# Generated by pormake.
# Topology lig, (3)-cn, num edge types: 1
# Building blocks:
#     Node 0, Type 0, BuildingBlock: WUSLED_clean_sbu_0, # of connection points: 3
#     Node 1, Type 0, BuildingBlock: WUSLED_clean_sbu_0, # of connection points: 3
#     Node 2, Type 0, BuildingBlock: WUSLED_clean_sbu_0, # of connection points: 3
#     Node 3, Type 0, BuildingBlock: WUSLED_clean_sbu_0, # of connection points: 3
#     Node 4, Type 0, BuildingBlock: WUSLED_clean_sbu_0, # of connection points: 3
#     Node 5, Type 0, BuildingBlock: WUSLED_clean_sbu_0, # of connection points: 3
#     Node 6, Type 0, BuildingBlock: WUSLED_clean_sbu_0, # of connection points: 3
#     Node 7, Type 0, BuildingBlock: WUSLED_clean_sbu_0, # of connection points: 3
#     Node 8, Type 0, BuildingBlock: WUSLED_clean_sbu_0, # of connection points: 3
#     Node 9, Type 0, BuildingBlock: WUSLED_clean_sbu_0, # of connection points: 3
#     Node 10, Type 0, BuildingBlock: WUSLED_clean_sbu_0, # of connection points: 3
#     Node 11, Type 0, BuildingBlock: WUSLED_clean_sbu_0, # of connection points: 3
#     Node 12, Type 0, BuildingBlock: WUSLED_clean_sbu_0, # of connection points: 3
#     Node 13, Type 0, BuildingBlock: WUSLED_clean_sbu_0, # of connection points: 3
#     Node 14, Type 0, BuildingBlock: WUSLED_clean_sbu_0, # of connection points: 3
#     Node 15, Type 0, BuildingBlock: WUSLED_clean_sbu_0, # of connection points: 3
#     Edge 16, Type (0, 0), None
#     Edge 17, Type (0, 0), None
#     Edge 18, Type (0, 0), None
#     Edge 19, Type (0, 0), None
#     Edge 20, Type (0, 0), None
#     Edge 21, Type (0, 0), None
#     Edge 22, Type (0, 0), None
#     Edge 23, Type (0, 0), None
#     Edge 24, Type (0, 0), None
#     Edge 25, Type (0, 0), None
#     Edge 26, Type (0, 0), None
#     Edge 27, Type (0, 0), None
#     Edge 28, Type (0, 0), None
#     Edge 29, Type (0, 0), None
#     Edge 30, Type (0, 0), None
#     Edge 31, Type (0, 0), None
#     Edge 32, Type (0, 0), None
#     Edge 33, Type (0, 0), None
#     Edge 34, Type (0, 0), None
#     Edge 35, Type (0, 0), None
#     Edge 36, Type (0, 0), None
#     Edge 37, Type (0, 0), None
#     Edge 38, Type (0, 0), None
#     Edge 39, Type (0, 0), None
# Relax obj value: 0.000
# Max RMSD: 0.008
# Mean RMSD: 0.005
data_MOF--net-lig--node1-WUSLED_clean_sbu_0--edge1-none
_symmetry_space_group_name_H-M    P1
_symmetry_Int_Tables_number       1
_symmetry_cell_setting            triclinic
loop_
_symmetry_equiv_pos_as_xyz
'x, y, z'
_cell_length_a     58.660801
_cell_length_b     59.138687
_cell_length_c     41.863418
_cell_angle_alpha  88.17392
_cell_angle_beta   89.873339
_cell_angle_gamma 91.541323
loop_
_atom_site_label
_atom_site_type_symbol
_atom_site_fract_x
_atom_site_fract_y
_atom_site_fract_z
_atom_type_partial_charge
C0 C 0.08143 1.02284 0.05766 0.0
C1 C 0.06854 0.03499 0.0793 0.0
C2 C 0.03321 1.02507 0.05158 0.0
C3 C 0.04481 0.03617 0.07625 0.0
C4 C 0.0462 1.01336 0.02943 0.0
C5 C 0.06998 1.01224 0.03242 0.0
U6 U 0.1467 0.031 0.04044 0.0
O7 O 0.17455 0.03619 0.07505 0.0
O8 O 0.17382 1.00613 0.04573 0.0
C9 C 0.18402 1.0169 0.06893 0.0
C10 C 0.10615 1.0195 0.06391 0.0
C11 C 0.1912 1.00285 0.09682 0.0
C12 C 0.18359 0.97435 0.13909 0.0
C13 C 0.17585 0.98839 0.11389 0.0
C14 C 0.22199 0.9894 0.13083 0.0
C15 C 0.20685 0.97449 0.14773 0.0
C16 C 0.21424 1.00337 0.10571 0.0
C17 C 0.16742 0.06767 0.96611 0.0
C18 C 0.19782 0.09578 0.95453 0.0
C19 C 0.18075 0.07509 0.91139 0.0
C20 C 0.16644 0.06324 0.93336 0.0
C21 C 0.19639 0.09184 0.92155 0.0
C22 C 0.18352 0.08388 0.97653 0.0
C23 C 0.15008 0.05683 0.98808 0.0
O24 O 0.11736 1.007 0.04409 0.0
O25 O 0.11816 0.0372 0.07316 0.0
O26 O 0.14843 0.06483 1.01693 0.0
O27 O 0.14784 0.03466 0.98778 0.0
H28 H 0.07675 0.04304 0.09928 0.0
H29 H 0.03546 0.04505 0.09409 0.0
H30 H 0.03794 1.00481 1.00992 0.0
H31 H 0.07928 1.0026 1.01537 0.0
H32 H 0.17134 0.96334 0.15176 0.0
H33 H 0.15796 0.98776 0.10749 0.0
H34 H 0.24002 0.98981 0.13631 0.0
H35 H 0.22641 1.01434 0.09277 0.0
H36 H 0.20941 0.1087 0.96332 0.0
H37 H 0.17934 0.07127 0.88634 0.0
H38 H 0.15414 0.05094 0.92459 0.0
H39 H 0.18467 0.08785 1.00156 0.0
C40 C 0.27657 0.84133 0.30561 0.0
C41 C 0.25705 0.83358 0.28947 0.0
C42 C 0.27048 0.79469 0.29257 0.0
C43 C 0.25403 0.81052 0.28306 0.0
C44 C 0.29007 0.80268 0.30851 0.0
C45 C 0.29304 0.82569 0.31494 0.0
U46 U 0.26896 0.90594 0.29187 0.0
O47 O 0.26283 0.932 0.32711 0.0
O48 O 0.29414 0.93383 0.29837 0.0
C49 C 0.28271 0.94233 0.32204 0.0
C50 C 0.27998 0.8654 0.31378 0.0
C51 C 0.29598 0.94949 0.35056 0.0
C52 C 0.29751 0.95869 0.40705 0.0
C53 C 0.28601 0.94911 0.3812 0.0
C54 C 0.32947 0.96893 0.37255 0.0
C55 C 0.31929 0.96907 0.40304 0.0
C56 C 0.31795 0.95936 0.34669 0.0
C57 C 0.23397 0.92707 0.21815 0.0
C58 C 0.23326 0.96507 0.19395 0.0
C59 C 0.20691 0.93606 0.17582 0.0
C60 C 0.21602 0.92059 0.19803 0.0
C61 C 0.21555 0.95849 0.17314 0.0
C62 C 0.24237 0.94953 0.21622 0.0
C63 C 0.24418 0.90972 0.23958 0.0
O64 O 0.29306 0.8779 0.29431 0.0
O65 O 0.26187 0.876 0.3233 0.0
O66 O 0.23532 0.90706 0.26836 0.0
O67 O 0.26655 0.90884 0.23944 0.0
H68 H 0.24406 0.8453 0.28205 0.0
H69 H 0.23859 0.80507 0.27109 0.0
H70 H 0.30331 0.79119 0.31574 0.0
H71 H 0.30826 0.83127 0.32736 0.0
H72 H 0.28888 0.95872 0.42994 0.0
H73 H 0.26898 0.94202 0.38512 0.0
H74 H 0.3463 0.97645 0.36849 0.0
H75 H 0.32604 0.96025 0.32339 0.0
H76 H 0.24017 0.98224 0.19295 0.0
H77 H 0.19356 0.93019 0.16004 0.0
H78 H 0.20933 0.90332 0.19901 0.0
H79 H 0.25618 0.95495 0.23159 0.0
C80 C 0.34981 1.00494 0.48206 0.0
C81 C 0.33797 0.98417 0.48736 0.0
C82 C 0.33076 0.98087 0.43015 0.0
C83 C 0.32865 0.97226 0.46181 0.0
C84 C 0.34309 1.00145 0.42481 0.0
C85 C 0.35245 1.01333 0.45037 0.0
U86 U 0.39465 0.03334 0.53791 0.0
O87 O 0.39359 0.06653 0.56023 0.0
O88 O 0.39407 0.03558 0.59046 0.0
C89 C 0.39262 0.05773 0.58946 0.0
C90 C 0.35719 1.01847 0.50987 0.0
C91 C 0.37619 0.06758 0.61172 0.0
C92 C 0.33908 0.08273 0.62441 0.0
C93 C 0.35375 0.07255 0.6028 0.0
C94 C 0.36904 0.08298 0.66401 0.0
C95 C 0.34658 0.08821 0.6553 0.0
C96 C 0.38361 0.07281 0.64251 0.0
C97 C 0.45968 0.02699 0.51948 0.0
C98 C 0.49696 0.03849 0.49752 0.0
C99 C 0.49457 1.01862 0.54883 0.0
C100 C 0.47068 1.01778 0.54657 0.0
C101 C 0.50809 0.02865 0.52408 0.0
C102 C 0.47312 0.0376 0.49524 0.0
C103 C 0.43474 1.02357 0.51413 0.0
O104 O 0.36704 1.00749 0.53368 0.0
O105 O 0.36663 0.03858 0.50378 0.0
O106 O 0.42326 0.04135 0.50466 0.0
O107 O 0.42334 1.01026 0.53465 0.0
H108 H 0.33546 0.97732 0.51146 0.0
H109 H 0.3196 0.95636 0.46697 0.0
H110 H 0.34485 1.00886 0.40092 0.0
H111 H 0.36124 0.02938 0.44529 0.0
H112 H 0.32197 0.08661 0.61672 0.0
H113 H 0.34765 0.06873 0.57913 0.0
H114 H 0.37536 0.08647 0.68769 0.0
H115 H 0.40083 0.06911 0.64995 0.0
H116 H 0.50669 0.04607 0.47774 0.0
H117 H 0.50247 1.01111 0.56983 0.0
H118 H 0.46091 1.0094 0.5657 0.0
H119 H 0.4652 0.04456 0.47388 0.0
C120 C 0.28306 0.22367 0.77268 0.0
C121 C 0.26424 0.22969 0.79106 0.0
C122 C 0.27629 0.26967 0.78691 0.0
C123 C 0.26089 0.25243 0.79807 0.0
C124 C 0.29521 0.26341 0.76873 0.0
C125 C 0.29852 0.24071 0.76172 0.0
U126 U 0.27402 0.15873 0.78378 0.0
O127 O 0.26899 0.13313 0.74688 0.0
O128 O 0.2986 0.1316 0.77871 0.0
C129 C 0.28817 0.12311 0.75383 0.0
C130 C 0.28669 0.19994 0.76394 0.0
C131 C 0.30265 0.11655 0.72658 0.0
C132 C 0.33951 0.11541 0.69959 0.0
C133 C 0.32549 0.12412 0.72321 0.0
C134 C 0.30801 0.09197 0.68149 0.0
C135 C 0.33109 0.09889 0.67873 0.0
C136 C 0.29402 0.10065 0.70516 0.0
C137 C 0.23522 0.13525 0.85436 0.0
C138 C 0.23274 0.11305 0.9046 0.0
C139 C 0.20064 0.1132 0.86852 0.0
C140 C 0.21291 0.1277 0.8472 0.0
C141 C 0.21024 0.1059 0.89777 0.0
C142 C 0.24502 0.12758 0.88326 0.0
C143 C 0.24699 0.15318 0.83401 0.0
O144 O 0.29867 0.18761 0.78408 0.0
O145 O 0.26889 0.18886 0.75264 0.0
O146 O 0.23949 0.15643 0.80468 0.0
O147 O 0.26934 0.15496 0.83598 0.0
H148 H 0.25205 0.21684 0.79975 0.0
H149 H 0.24597 0.25653 0.8118 0.0
H150 H 0.30767 0.27603 0.76014 0.0
H151 H 0.31319 0.23645 0.74757 0.0
H152 H 0.35707 0.12147 0.6979 0.0
H153 H 0.3327 0.13638 0.73928 0.0
H154 H 0.30091 0.07918 0.66616 0.0
H155 H 0.27655 0.09436 0.70736 0.0
H156 H 0.24084 0.10764 0.92666 0.0
H157 H 0.18326 0.10843 0.86254 0.0
H158 H 0.20458 0.13358 0.82553 0.0
H159 H 0.26202 0.13328 0.88987 0.0
C160 C 0.84876 1.00344 0.09404 0.0
C161 C 0.86427 0.99236 0.11421 0.0
C162 C 0.83276 0.97499 0.14566 0.0
C163 C 0.85635 0.97827 0.13976 0.0
C164 C 0.8174 0.98641 0.12546 0.0
C165 C 0.82533 1.00043 0.09999 0.0
U166 U 0.89436 0.03208 0.03747 0.0
O167 O 0.89306 0.03654 0.98495 0.0
O168 O 0.89462 0.06626 1.01496 0.0
C169 C 0.89211 0.0587 0.98592 0.0
C170 C 0.85638 1.01787 0.06634 0.0
C171 C 0.87505 0.06988 0.9648 0.0
C172 C 0.85961 0.07608 0.91118 0.0
C173 C 0.87369 0.06419 0.9325 0.0
C174 C 0.84756 0.09946 0.95408 0.0
C175 C 0.84659 0.09414 0.92151 0.0
C176 C 0.86162 0.08753 0.97542 0.0
C177 C 0.95919 1.02227 0.05362 0.0
C178 C 0.99518 0.04372 0.058 0.0
C179 C 0.99549 1.00455 0.04321 0.0
C180 C 0.97161 1.00339 0.04498 0.0
C181 C 1.00767 1.02461 0.05028 0.0
C182 C 0.97127 0.04257 0.05968 0.0
C183 C 0.93421 1.01957 0.05986 0.0
O184 O 0.86713 0.03696 0.0728 0.0
O185 O 0.86567 1.0074 0.04255 0.0
O186 O 0.92216 1.00765 0.0396 0.0
O187 O 0.92345 0.03727 0.06982 0.0
H188 H 0.88245 0.99449 0.11007 0.0
H189 H 0.86872 0.96999 0.15496 0.0
H190 H 0.79917 0.98408 0.12877 0.0
H191 H 0.81307 1.00877 0.08464 0.0
H192 H 0.85912 0.07121 0.88647 0.0
H193 H 0.88394 0.05081 0.9235 0.0
H194 H 0.83808 0.11342 0.96296 0.0
H195 H 0.86235 0.09256 1.00005 0.0
H196 H 1.0039 0.05954 0.06322 0.0
H197 H 1.00443 0.98938 0.03763 0.0
H198 H 0.96289 0.9874 0.04067 0.0
H199 H 0.96234 0.05745 0.06661 0.0
C200 C 0.76152 0.22313 0.77197 0.0
C201 C 0.77136 0.22971 0.80088 0.0
C202 C 0.76743 0.26972 0.78527 0.0
C203 C 0.77428 0.25276 0.80747 0.0
C204 C 0.75765 0.26289 0.75631 0.0
C205 C 0.75474 0.2399 0.7498 0.0
U206 U 0.77017 0.15855 0.78497 0.0
O207 O 0.74522 0.13038 0.78052 0.0
O208 O 0.7748 0.13291 0.74837 0.0
C209 C 0.7554 0.12225 0.7555 0.0
C210 C 0.75794 0.19903 0.76429 0.0
C211 C 0.74071 0.11527 0.72835 0.0
C212 C 0.70325 0.11037 0.70383 0.0
C213 C 0.71725 0.11959 0.72752 0.0
C214 C 0.7359 0.09292 0.68058 0.0
C215 C 0.71229 0.09657 0.68033 0.0
C216 C 0.74988 0.10207 0.70435 0.0
C217 C 0.80845 0.13679 0.85543 0.0
C218 C 0.84129 0.11341 0.8673 0.0
C219 C 0.81179 0.11674 0.90713 0.0
C220 C 0.79981 0.13099 0.88608 0.0
C221 C 0.83289 0.10799 0.89825 0.0
C222 C 0.82929 0.12764 0.84624 0.0
C223 C 0.79711 0.1543 0.83505 0.0
O224 O 0.77576 0.18872 0.75328 0.0
O225 O 0.74595 0.1864 0.78495 0.0
O226 O 0.77479 0.15532 0.83719 0.0
O227 O 0.80467 0.1577 0.80563 0.0
H228 H 0.77669 0.21705 0.81837 0.0
H229 H 0.78161 0.25727 0.83018 0.0
H230 H 0.7525 0.27531 0.73838 0.0
H231 H 0.74718 0.2352 0.72729 0.0
H232 H 0.68524 0.1139 0.70414 0.0
H233 H 0.70954 0.12966 0.74559 0.0
H234 H 0.74349 0.08226 0.66312 0.0
H235 H 0.76784 0.09825 0.70454 0.0
H236 H 0.85762 0.10735 0.85966 0.0
H237 H 0.80458 0.11278 0.93054 0.0
H238 H 0.78398 0.13796 0.89417 0.0
H239 H 0.83674 0.13198 0.82309 0.0
C240 C 0.58185 1.02403 0.52087 0.0
C241 C 0.57119 0.04404 0.51067 0.0
C242 C 0.53361 0.02768 0.52485 0.0
C243 C 0.54742 0.04585 0.5127 0.0
C244 C 0.54439 1.00794 0.53591 0.0
C245 C 0.56812 1.00612 0.53382 0.0
U246 U 0.64731 0.03026 0.53786 0.0
O247 O 0.67351 1.00441 0.53333 0.0
O248 O 0.67562 0.03556 0.50355 0.0
C249 C 0.684 1.01546 0.50957 0.0
C250 C 0.60657 1.02057 0.51465 0.0
C251 C 0.69089 1.00203 0.48172 0.0
C252 C 0.69839 0.99893 0.42459 0.0
C253 C 0.68931 1.01067 0.4501 0.0
C254 C 0.7104 0.96936 0.46149 0.0
C255 C 0.70938 0.97824 0.42991 0.0
C256 C 0.70136 0.98113 0.48699 0.0
C257 C 0.66739 0.06415 0.61223 0.0
C258 C 0.7036 0.08322 0.62444 0.0
C259 C 0.6755 0.07628 0.66623 0.0
C260 C 0.66095 0.06587 0.64433 0.0
C261 C 0.69698 0.0853 0.65662 0.0
C262 C 0.68893 0.0728 0.60244 0.0
C263 C 0.65065 0.05438 0.58964 0.0
O264 O 0.61912 0.03827 0.505 0.0
O265 O 0.61732 1.00714 0.53483 0.0
O266 O 0.64795 0.03223 0.59045 0.0
O267 O 0.6502 0.06333 0.56049 0.0
H268 H 0.5811 0.05813 0.50026 0.0
H269 H 0.53982 0.06141 0.50428 0.0
H270 H 0.5344 0.99344 0.54495 0.0
H271 H 0.57566 0.99031 0.54137 0.0
H272 H 0.6975 1.00656 0.40078 0.0
H273 H 0.68162 0.02684 0.44506 0.0
H274 H 0.7184 0.95337 0.46662 0.0
H275 H 0.70307 0.97408 0.51104 0.0
H276 H 0.71994 0.09004 0.6161 0.0
H277 H 0.66994 0.07709 0.69084 0.0
H278 H 0.64443 0.05933 0.65248 0.0
H279 H 0.6943 0.07177 0.57777 0.0
C280 C 0.76571 0.84003 0.30836 0.0
C281 C 0.77477 0.83433 0.27871 0.0
C282 C 0.77262 0.79403 0.29429 0.0
C283 C 0.77818 0.81159 0.27173 0.0
C284 C 0.76363 0.79997 0.32401 0.0
C285 C 0.76023 0.82267 0.33091 0.0
U286 U 0.77147 0.90486 0.29301 0.0
O287 O 0.74568 0.93093 0.29911 0.0
O288 O 0.7771 0.93188 0.32734 0.0
C289 C 0.75702 0.94069 0.32224 0.0
C290 C 0.76153 0.86379 0.31626 0.0
C291 C 0.74373 0.94748 0.35066 0.0
C292 C 0.71099 0.96683 0.37211 0.0
C293 C 0.72242 0.95749 0.34638 0.0
C294 C 0.74169 0.95603 0.40733 0.0
C295 C 0.72062 0.9666 0.40291 0.0
C296 C 0.7531 0.94665 0.38159 0.0
C297 C 0.80603 0.92748 0.21834 0.0
C298 C 0.8045 0.96396 0.18975 0.0
C299 C 0.83479 0.93843 0.17823 0.0
C300 C 0.82584 0.92284 0.20115 0.0
C301 C 0.8241 0.95911 0.17184 0.0
C302 C 0.79557 0.94831 0.21275 0.0
C303 C 0.79613 0.90973 0.2404 0.0
O304 O 0.77939 0.87587 0.32521 0.0
O305 O 0.74816 0.87504 0.29665 0.0
O306 O 0.77379 0.90714 0.24052 0.0
O307 O 0.80506 0.90812 0.26911 0.0
H308 H 0.77908 0.84746 0.2609 0.0
H309 H 0.78486 0.80776 0.24845 0.0
H310 H 0.75947 0.78708 0.3422 0.0
H311 H 0.75327 0.82668 0.35399 0.0
H312 H 0.69469 0.97449 0.36772 0.0
H313 H 0.71482 0.95868 0.32284 0.0
H314 H 0.74989 0.95575 0.43048 0.0
H315 H 0.76961 0.9394 0.38584 0.0
H316 H 0.79597 0.97982 0.18589 0.0
H317 H 0.84967 0.9339 0.16476 0.0
H318 H 0.83414 0.90683 0.20496 0.0
H319 H 0.78031 0.95234 0.22579 0.0
C320 C 0.58143 0.52267 0.55726 0.0
C321 C 0.56856 0.53482 0.57893 0.0
C322 C 0.53321 0.52495 0.55123 0.0
C323 C 0.54482 0.53602 0.5759 0.0
C324 C 0.54617 0.51325 0.52904 0.0
C325 C 0.56996 0.5121 0.53201 0.0
U326 U 0.6467 0.53078 0.53998 0.0
O327 O 0.67457 0.53594 0.57457 0.0
O328 O 0.67379 0.50589 0.54523 0.0
C329 C 0.68401 0.51664 0.56843 0.0
C330 C 0.60614 0.51931 0.56349 0.0
C331 C 0.69119 0.50257 0.59631 0.0
C332 C 0.68362 0.4739 0.63837 0.0
C333 C 0.67587 0.48796 0.6132 0.0
C334 C 0.72195 0.48922 0.63045 0.0
C335 C 0.70685 0.47417 0.64717 0.0
C336 C 0.7142 0.50322 0.60536 0.0
C337 C 0.66738 0.56745 0.46562 0.0
C338 C 0.69794 0.5954 0.45408 0.0
C339 C 0.68053 0.57504 0.41087 0.0
C340 C 0.66624 0.56319 0.43284 0.0
C341 C 0.69633 0.59163 0.42107 0.0
C342 C 0.68364 0.58349 0.47608 0.0
C343 C 0.65006 0.55661 0.48762 0.0
O344 O 0.61733 0.5068 0.54365 0.0
O345 O 0.61818 0.537 0.57273 0.0
O346 O 0.64844 0.56461 0.51648 0.0
O347 O 0.6478 0.53444 0.48731 0.0
H348 H 0.57678 0.54285 0.59892 0.0
H349 H 0.53549 0.54489 0.59376 0.0
H350 H 0.5379 0.50472 0.50952 0.0
H351 H 0.57924 0.50247 0.51494 0.0
H352 H 0.6714 0.46278 0.65089 0.0
H353 H 0.65801 0.48723 0.60668 0.0
H354 H 0.73996 0.48974 0.63606 0.0
H355 H 0.72633 0.51431 0.59256 0.0
H356 H 0.70966 0.60819 0.46291 0.0
H357 H 0.67899 0.57137 0.38578 0.0
H358 H 0.65382 0.55102 0.42404 0.0
H359 H 0.68493 0.58732 0.50115 0.0
C360 C 0.77665 0.34103 0.80506 0.0
C361 C 0.75719 0.33328 0.7888 0.0
C362 C 0.77057 0.29437 0.79209 0.0
C363 C 0.75417 0.31022 0.78243 0.0
C364 C 0.79011 0.30236 0.80816 0.0
C365 C 0.79308 0.32538 0.81455 0.0
U366 U 0.76904 0.40564 0.79121 0.0
O367 O 0.76294 0.43172 0.82641 0.0
O368 O 0.79423 0.43353 0.79763 0.0
C369 C 0.78282 0.44205 0.82129 0.0
C370 C 0.78006 0.36511 0.81318 0.0
C371 C 0.7961 0.44924 0.84978 0.0
C372 C 0.79777 0.45821 0.90635 0.0
C373 C 0.78626 0.44861 0.88051 0.0
C374 C 0.82947 0.46896 0.87164 0.0
C375 C 0.81941 0.46885 0.90223 0.0
C376 C 0.81795 0.45938 0.8458 0.0
C377 C 0.73402 0.42671 0.7175 0.0
C378 C 0.73316 0.46477 0.6935 0.0
C379 C 0.70706 0.43567 0.67502 0.0
C380 C 0.71619 0.42018 0.6972 0.0
C381 C 0.71557 0.45815 0.67253 0.0
C382 C 0.74229 0.44922 0.71576 0.0
C383 C 0.74423 0.40937 0.73894 0.0
O384 O 0.79313 0.37759 0.79368 0.0
O385 O 0.76196 0.37571 0.82269 0.0
O386 O 0.73539 0.40674 0.76773 0.0
O387 O 0.7666 0.40849 0.73877 0.0
H388 H 0.74424 0.34501 0.78125 0.0
H389 H 0.73877 0.30477 0.77035 0.0
H390 H 0.80331 0.29087 0.81552 0.0
H391 H 0.80826 0.33097 0.82707 0.0
H392 H 0.78924 0.45804 0.92932 0.0
H393 H 0.76933 0.4413 0.88452 0.0
H394 H 0.8462 0.47669 0.86749 0.0
H395 H 0.82593 0.46046 0.82243 0.0
H396 H 0.73996 0.48198 0.69266 0.0
H397 H 0.69381 0.42976 0.6591 0.0
H398 H 0.7096 0.40287 0.69804 0.0
H399 H 0.756 0.45467 0.73126 0.0
C400 C 0.84988 0.50474 0.98128 0.0
C401 C 0.8383 0.48381 0.98652 0.0
C402 C 0.83087 0.48067 0.92934 0.0
C403 C 0.829 0.47191 0.96095 0.0
C404 C 0.84294 0.5014 0.92406 0.0
C405 C 0.85228 0.51328 0.94964 0.0
U406 U 0.89463 0.53322 0.03722 0.0
O407 O 0.89341 0.56634 0.0597 0.0
O408 O 0.89405 0.53533 0.0898 0.0
C409 C 0.89245 0.55747 0.08889 0.0
C410 C 0.85722 0.51824 1.00915 0.0
C411 C 0.876 0.56718 0.11128 0.0
C412 C 0.83963 0.58414 0.12345 0.0
C413 C 0.85418 0.57392 0.10173 0.0
C414 C 0.86844 0.58087 0.16448 0.0
C415 C 0.84664 0.58792 0.15512 0.0
C416 C 0.88288 0.57066 0.14285 0.0
C417 C 0.95968 0.52717 1.01873 0.0
C418 C 0.99454 0.51922 0.0484 0.0
C419 C 0.99697 0.53844 0.99661 0.0
C420 C 0.97314 0.53749 0.99429 0.0
C421 C 1.00808 0.52896 1.02344 0.0
C422 C 0.97065 0.51833 0.04609 0.0
C423 C 0.93475 0.52367 1.01339 0.0
O424 O 0.86712 0.50726 0.0329 0.0
O425 O 0.86657 0.5384 1.00312 0.0
O426 O 0.92321 0.54143 1.00401 0.0
O427 O 0.92341 0.51028 0.03385 0.0
H428 H 0.83597 0.47684 1.01059 0.0
H429 H 0.82015 0.4559 0.96606 0.0
H430 H 0.8445 0.50893 0.90021 0.0
H431 H 0.86086 0.52944 0.94462 0.0
H432 H 0.82305 0.58943 0.11527 0.0
H433 H 0.84849 0.57149 0.07745 0.0
H434 H 0.87432 0.58301 0.18872 0.0
H435 H 0.89961 0.5656 0.1508 0.0
H436 H 1.00242 0.512 0.0696 0.0
H437 H 1.00672 0.54578 0.97669 0.0
H438 H 0.96523 0.54417 0.97274 0.0
H439 H 0.96086 0.51018 0.06538 0.0
C440 C 0.78306 0.72371 0.27271 0.0
C441 C 0.76399 0.72975 0.29055 0.0
C442 C 0.77622 0.7697 0.28695 0.0
C443 C 0.76059 0.75249 0.29757 0.0
C444 C 0.79539 0.76342 0.26932 0.0
C445 C 0.79873 0.74072 0.2623 0.0
U446 U 0.7741 0.65874 0.2836 0.0
O447 O 0.76924 0.63319 0.2466 0.0
O448 O 0.79874 0.63166 0.27861 0.0
C449 C 0.78844 0.62321 0.25361 0.0
C450 C 0.78674 0.7 0.26394 0.0
C451 C 0.80302 0.6167 0.2264 0.0
C452 C 0.8403 0.61396 0.20099 0.0
C453 C 0.82635 0.62279 0.22458 0.0
C454 C 0.80784 0.59338 0.17982 0.0
C455 C 0.83135 0.59879 0.1786 0.0
C456 C 0.79391 0.60216 0.20347 0.0
C457 C 0.73517 0.63512 0.35398 0.0
C458 C 0.73277 0.61268 0.40401 0.0
C459 C 0.70051 0.61324 0.36822 0.0
C460 C 0.71278 0.62777 0.34694 0.0
C461 C 0.71018 0.60572 0.39731 0.0
C462 C 0.74505 0.62722 0.38271 0.0
C463 C 0.74696 0.65308 0.33369 0.0
O464 O 0.79869 0.68766 0.2841 0.0
O465 O 0.76899 0.68891 0.25252 0.0
O466 O 0.73951 0.65633 0.30433 0.0
O467 O 0.7693 0.65491 0.33576 0.0
H468 H 0.75162 0.71693 0.29881 0.0
H469 H 0.74549 0.7566 0.31087 0.0
H470 H 0.80801 0.77602 0.26117 0.0
H471 H 0.8136 0.73645 0.24857 0.0
H472 H 0.85822 0.61886 0.20052 0.0
H473 H 0.83398 0.63394 0.24182 0.0
H474 H 0.80031 0.58164 0.16327 0.0
H475 H 0.77606 0.59698 0.20446 0.0
H476 H 0.74092 0.60709 0.42594 0.0
H477 H 0.68306 0.60863 0.36236 0.0
H478 H 0.70439 0.63382 0.32542 0.0
H479 H 0.76211 0.63276 0.38922 0.0
C480 C 0.34876 0.50343 0.5938 0.0
C481 C 0.36427 0.4925 0.61413 0.0
C482 C 0.33276 0.47498 0.64542 0.0
C483 C 0.35635 0.47841 0.63968 0.0
C484 C 0.3174 0.48624 0.62505 0.0
C485 C 0.32532 0.50027 0.59959 0.0
U486 U 0.39435 0.5321 0.53726 0.0
O487 O 0.39304 0.53663 0.48474 0.0
O488 O 0.39464 0.5663 0.51483 0.0
C489 C 0.3921 0.55878 0.48577 0.0
C490 C 0.35638 0.51789 0.56613 0.0
C491 C 0.37503 0.56999 0.46471 0.0
C492 C 0.3595 0.57621 0.41114 0.0
C493 C 0.37359 0.5643 0.43241 0.0
C494 C 0.3476 0.59964 0.45407 0.0
C495 C 0.34654 0.5943 0.42152 0.0
C496 C 0.36166 0.58768 0.47537 0.0
C497 C 0.45918 0.52221 0.55332 0.0
C498 C 0.49519 0.54363 0.5577 0.0
C499 C 0.49546 0.50447 0.54285 0.0
C500 C 0.47159 0.50333 0.54464 0.0
C501 C 0.50766 0.52451 0.54994 0.0
C502 C 0.47128 0.5425 0.5594 0.0
C503 C 0.43421 0.51953 0.55958 0.0
O504 O 0.36715 0.53696 0.57262 0.0
O505 O 0.36564 0.50743 0.54231 0.0
O506 O 0.42214 0.50764 0.5393 0.0
O507 O 0.42347 0.53723 0.56959 0.0
H508 H 0.38245 0.49475 0.61012 0.0
H509 H 0.36872 0.47025 0.65501 0.0
H510 H 0.29916 0.48379 0.62824 0.0
H511 H 0.31306 0.50849 0.58411 0.0
H512 H 0.35895 0.57134 0.38644 0.0
H513 H 0.38379 0.55089 0.42338 0.0
H514 H 0.33816 0.61362 0.46298 0.0
H515 H 0.36246 0.59272 0.49999 0.0
H516 H 0.50394 0.55943 0.56294 0.0
H517 H 0.50439 0.4893 0.53724 0.0
H518 H 0.46285 0.48735 0.54031 0.0
H519 H 0.46237 0.55737 0.56636 0.0
C520 C 0.26137 0.72346 0.27238 0.0
C521 C 0.27132 0.73002 0.30122 0.0
C522 C 0.26733 0.77004 0.28572 0.0
C523 C 0.27426 0.75307 0.30783 0.0
C524 C 0.25745 0.76323 0.25682 0.0
C525 C 0.25451 0.74024 0.25029 0.0
U526 U 0.26996 0.65886 0.28529 0.0
O527 O 0.24494 0.63074 0.28098 0.0
O528 O 0.27442 0.63322 0.24866 0.0
C529 C 0.25501 0.6226 0.25587 0.0
C530 C 0.25775 0.69937 0.26469 0.0
C531 C 0.24021 0.61562 0.22878 0.0
C532 C 0.20251 0.60851 0.20599 0.0
C533 C 0.21639 0.61784 0.2297 0.0
C534 C 0.23587 0.59508 0.17928 0.0
C535 C 0.21199 0.59664 0.18072 0.0
C536 C 0.24976 0.60435 0.20308 0.0
C537 C 0.30836 0.63702 0.35557 0.0
C538 C 0.34117 0.61358 0.36732 0.0
C539 C 0.31176 0.61698 0.40726 0.0
C540 C 0.29977 0.63125 0.38626 0.0
C541 C 0.33283 0.60818 0.3983 0.0
C542 C 0.32916 0.62783 0.3463 0.0
C543 C 0.29701 0.65456 0.33523 0.0
O544 O 0.27552 0.68903 0.25359 0.0
O545 O 0.24579 0.68675 0.28541 0.0
O546 O 0.2747 0.65562 0.33748 0.0
O547 O 0.30451 0.65794 0.30578 0.0
H548 H 0.27672 0.71735 0.31866 0.0
H549 H 0.28169 0.75756 0.3305 0.0
H550 H 0.25223 0.77566 0.23895 0.0
H551 H 0.24686 0.73556 0.22783 0.0
H552 H 0.18424 0.61042 0.20767 0.0
H553 H 0.20836 0.62632 0.24914 0.0
H554 H 0.24382 0.58593 0.16042 0.0
H555 H 0.26801 0.60209 0.20188 0.0
H556 H 0.35746 0.60748 0.35961 0.0
H557 H 0.3046 0.61304 0.4307 0.0
H558 H 0.28398 0.63825 0.39441 0.0
H559 H 0.33657 0.63215 0.32312 0.0
C560 C 0.08186 0.52439 1.02049 0.0
C561 C 0.06815 0.50663 0.03391 0.0
C562 C 0.03361 0.52803 1.02432 0.0
C563 C 0.0444 0.50846 0.03592 0.0
C564 C 0.04739 0.54607 1.01171 0.0
C565 C 0.07117 0.54426 1.00975 0.0
U566 U 0.14734 0.5304 0.03754 0.0
O567 O 0.17344 0.50446 0.03295 0.0
O568 O 0.17567 0.53564 1.00324 0.0
C569 C 0.18398 0.51551 1.00922 0.0
C570 C 0.10657 0.52089 1.0143 0.0
C571 C 0.19085 0.50208 0.98136 0.0
C572 C 0.19845 0.49904 0.92425 0.0
C573 C 0.18938 0.51078 0.94976 0.0
C574 C 0.21023 0.46935 0.96111 0.0
C575 C 0.20933 0.47828 0.92955 0.0
C576 C 0.2012 0.48111 0.98661 0.0
C577 C 0.16765 0.56405 0.11206 0.0
C578 C 0.20274 0.58522 0.12411 0.0
C579 C 0.17651 0.57408 0.16678 0.0
C580 C 0.1621 0.56367 0.14469 0.0
C581 C 0.19694 0.58523 0.15684 0.0
C582 C 0.18822 0.5748 0.10193 0.0
C583 C 0.15084 0.55442 0.0894 0.0
O584 O 0.11917 0.53856 1.00472 0.0
O585 O 0.11728 0.50739 0.03444 0.0
O586 O 0.14799 0.53229 0.09015 0.0
O587 O 0.15037 0.56343 0.06028 0.0
H588 H 0.07569 0.49093 0.04189 0.0
H589 H 0.03443 0.49406 0.04533 0.0
H590 H 0.03978 0.56151 1.00286 0.0
H591 H 0.08107 0.55822 0.99896 0.0
H592 H 0.19765 0.50671 0.90046 0.0
H593 H 0.18178 0.52699 0.94473 0.0
H594 H 0.21815 0.45331 0.96623 0.0
H595 H 0.20282 0.47402 1.01065 0.0
H596 H 0.21825 0.59372 0.11552 0.0
H597 H 0.17164 0.57327 0.19176 0.0
H598 H 0.14635 0.55553 0.15313 0.0
H599 H 0.19291 0.57545 0.07687 0.0
C600 C 0.26583 0.34002 0.80825 0.0
C601 C 0.27448 0.33427 0.77837 0.0
C602 C 0.27272 0.29401 0.79422 0.0
C603 C 0.27788 0.31152 0.77142 0.0
C604 C 0.26417 0.3 0.82417 0.0
C605 C 0.26077 0.32271 0.83105 0.0
U606 U 0.27152 0.40485 0.79281 0.0
O607 O 0.24569 0.4309 0.79885 0.0
O608 O 0.2771 0.43191 0.8271 0.0
C609 C 0.25701 0.44068 0.82196 0.0
C610 C 0.26163 0.36379 0.81611 0.0
C611 C 0.2437 0.44749 0.85036 0.0
C612 C 0.21101 0.46696 0.87172 0.0
C613 C 0.22245 0.4576 0.84601 0.0
C614 C 0.24158 0.45596 0.90705 0.0
C615 C 0.22057 0.46663 0.90257 0.0
C616 C 0.253 0.44657 0.88133 0.0
C617 C 0.30607 0.42748 0.71814 0.0
C618 C 0.30441 0.46388 0.68935 0.0
C619 C 0.33491 0.43852 0.67819 0.0
C620 C 0.32597 0.42292 0.70113 0.0
C621 C 0.3241 0.45911 0.67162 0.0
C622 C 0.29549 0.44823 0.71237 0.0
C623 C 0.29619 0.40972 0.74021 0.0
O624 O 0.27948 0.37589 0.82505 0.0
O625 O 0.24825 0.37501 0.79648 0.0
O626 O 0.27386 0.40709 0.74032 0.0
O627 O 0.30511 0.40814 0.76893 0.0
H628 H 0.27847 0.34736 0.76037 0.0
H629 H 0.28422 0.30765 0.74797 0.0
H630 H 0.26033 0.28715 0.84255 0.0
H631 H 0.25414 0.32676 0.85429 0.0
H632 H 0.19476 0.4747 0.86729 0.0
H633 H 0.21491 0.45886 0.82244 0.0
H634 H 0.24973 0.4556 0.93023 0.0
H635 H 0.26947 0.43923 0.88563 0.0
H636 H 0.29579 0.47967 0.68535 0.0
H637 H 0.34988 0.43405 0.66486 0.0
H638 H 0.33437 0.40698 0.70507 0.0
H639 H 0.28015 0.4522 0.72528 0.0
loop_
_geom_bond_atom_site_label_1
_geom_bond_atom_site_label_2
_geom_bond_distance
_geom_bond_site_symmetry_2
_ccdc_geom_bond_type
C0 C1 1.264 1_554 S
C0 C5 1.479 1_545 S
C0 C10 1.465 . S
C1 C0 1.264 1_556 S
C1 C3 1.339 . S
C1 H28 0.931 . S
C2 C3 1.395 1_554 S
C2 C4 1.320 1_545 S
C3 C1 1.339 . S
C3 C2 1.395 1_556 S
C3 H29 0.929 . S
C4 C2 1.320 1_565 S
C4 C5 1.405 . S
C4 H30 0.930 . S
C5 C0 1.479 1_565 S
C5 C4 1.405 . S
C5 H31 0.931 . S
U6 O7 2.454 1_545 S
U6 O8 2.458 1_545 S
U6 C9 2.984 1_545 S
U6 C10 2.847 . S
U6 C23 2.882 1_554 S
U6 O24 2.440 . S
U6 O25 2.420 . S
U6 O26 2.455 1_554 S
U6 O27 2.449 1_554 S
O7 U6 2.454 1_565 S
O7 C9 1.353 . S
O8 U6 2.458 1_565 S
O8 C9 1.286 . S
C9 U6 2.984 1_565 S
C9 O7 1.353 . S
C9 O8 1.286 . S
C9 C11 1.363 . S
C10 C0 1.465 . S
C10 U6 2.847 . S
C10 O24 1.246 . S
C10 O25 1.202 . S
C11 C9 1.363 . S
C11 C13 1.408 . S
C11 C16 1.342 . S
C12 C13 1.310 . S
C12 C15 1.461 . S
C12 H32 0.932 . S
C13 C11 1.408 . S
C13 C12 1.310 . S
C13 H33 0.930 . S
C14 C15 1.474 . S
C14 C16 1.285 . S
C14 H34 0.929 . S
C15 C12 1.461 . S
C15 C14 1.474 . S
C16 C11 1.342 . S
C16 C14 1.285 . S
C16 H35 0.930 . S
C17 C20 1.424 . S
C17 C22 1.245 . S
C17 C23 1.428 . S
C18 C21 1.260 . S
C18 C22 1.477 . S
C18 H36 0.932 . S
C19 C20 1.384 . S
C19 C21 1.479 . S
C19 H37 0.929 . S
C20 C17 1.424 . S
C20 C19 1.384 . S
C20 H38 0.928 . S
C21 C18 1.260 . S
C21 C19 1.479 . S
C22 C17 1.245 . S
C22 C18 1.477 . S
C22 H39 0.932 . S
C23 U6 2.882 1_556 S
C23 C17 1.428 . S
C23 O26 1.301 . S
C23 O27 1.282 . S
O24 U6 2.440 . S
O24 C10 1.246 . S
O25 U6 2.420 . S
O25 C10 1.202 . S
O26 U6 2.455 1_556 S
O26 C23 1.301 . S
O27 U6 2.449 1_556 S
O27 C23 1.282 . S
H28 C1 0.931 . S
H29 C3 0.929 . S
H30 C4 0.930 . S
H31 C5 0.931 . S
H32 C12 0.932 . S
H33 C13 0.930 . S
H34 C14 0.929 . S
H35 C16 0.930 . S
H36 C18 0.932 . S
H37 C19 0.929 . S
H38 C20 0.928 . S
H39 C22 0.932 . S
C40 C41 1.264 . S
C40 C45 1.479 . S
C40 C50 1.465 . S
C41 C40 1.264 . S
C41 C43 1.339 . S
C41 H68 0.931 . S
C42 C43 1.395 . S
C42 C44 1.320 . S
C43 C41 1.339 . S
C43 C42 1.395 . S
C43 H69 0.929 . S
C44 C42 1.320 . S
C44 C45 1.405 . S
C44 H70 0.930 . S
C45 C40 1.479 . S
C45 C44 1.405 . S
C45 H71 0.931 . S
U46 O47 2.454 . S
U46 O48 2.458 . S
U46 C49 2.984 . S
U46 C50 2.847 . S
U46 C63 2.882 . S
U46 O64 2.441 . S
U46 O65 2.420 . S
U46 O66 2.455 . S
U46 O67 2.449 . S
O47 U46 2.454 . S
O47 C49 1.353 . S
O48 U46 2.458 . S
O48 C49 1.286 . S
C49 U46 2.984 . S
C49 O47 1.353 . S
C49 O48 1.286 . S
C49 C51 1.363 . S
C50 C40 1.465 . S
C50 U46 2.847 . S
C50 O64 1.249 . S
C50 O65 1.202 . S
C51 C49 1.363 . S
C51 C53 1.408 . S
C51 C56 1.342 . S
C52 C53 1.310 . S
C52 C55 1.461 . S
C52 H72 0.932 . S
C53 C51 1.408 . S
C53 C52 1.310 . S
C53 H73 0.930 . S
C54 C55 1.474 . S
C54 C56 1.285 . S
C54 H74 0.929 . S
C55 C52 1.461 . S
C55 C54 1.474 . S
C56 C51 1.342 . S
C56 C54 1.285 . S
C56 H75 0.930 . S
C57 C60 1.424 . S
C57 C62 1.245 . S
C57 C63 1.428 . S
C58 C61 1.260 . S
C58 C62 1.477 . S
C58 H76 0.932 . S
C59 C60 1.384 . S
C59 C61 1.479 . S
C59 H77 0.929 . S
C60 C57 1.424 . S
C60 C59 1.384 . S
C60 H78 0.928 . S
C61 C58 1.260 . S
C61 C59 1.479 . S
C62 C57 1.245 . S
C62 C58 1.477 . S
C62 H79 0.932 . S
C63 U46 2.882 . S
C63 C57 1.428 . S
C63 O66 1.301 . S
C63 O67 1.282 . S
O64 U46 2.441 . S
O64 C50 1.249 . S
O65 U46 2.420 . S
O65 C50 1.202 . S
O66 U46 2.455 . S
O66 C63 1.301 . S
O67 U46 2.449 . S
O67 C63 1.282 . S
H68 C41 0.931 . S
H69 C43 0.929 . S
H70 C44 0.930 . S
H71 C45 0.931 . S
H72 C52 0.932 . S
H73 C53 0.930 . S
H74 C54 0.929 . S
H75 C56 0.930 . S
H76 C58 0.932 . S
H77 C59 0.929 . S
H78 C60 0.928 . S
H79 C62 0.932 . S
C80 C81 1.264 . S
C80 C85 1.479 . S
C80 C90 1.491 . S
C81 C80 1.264 . S
C81 C83 1.339 . S
C81 H108 0.931 . S
C82 C83 1.395 . S
C82 C84 1.320 . S
C83 C81 1.339 . S
C83 C82 1.395 . S
C83 H109 0.929 . S
C84 C82 1.320 . S
C84 C85 1.405 . S
C84 H110 0.930 . S
C85 C80 1.479 . S
C85 C84 1.405 . S
C85 H111 0.931 . S
U86 O87 2.454 . S
U86 O88 2.458 . S
U86 C89 2.984 . S
U86 C90 2.828 1_545 S
U86 C103 2.882 . S
U86 O104 2.441 . S
U86 O105 2.420 . S
U86 O106 2.455 . S
U86 O107 2.449 . S
O87 U86 2.454 . S
O87 C89 1.353 . S
O88 U86 2.458 . S
O88 C89 1.286 . S
C89 U86 2.984 . S
C89 O87 1.353 . S
C89 O88 1.286 . S
C89 C91 1.363 . S
C90 C80 1.491 . S
C90 U86 2.828 1_565 S
C90 O104 1.231 1_565 S
C90 O105 1.196 1_565 S
C91 C89 1.363 . S
C91 C93 1.408 . S
C91 C96 1.342 . S
C92 C93 1.310 . S
C92 C95 1.461 . S
C92 H112 0.932 . S
C93 C91 1.408 . S
C93 C92 1.310 . S
C93 H113 0.930 . S
C94 C95 1.474 . S
C94 C96 1.285 . S
C94 H114 0.929 . S
C95 C92 1.461 . S
C95 C94 1.474 . S
C96 C91 1.342 . S
C96 C94 1.285 . S
C96 H115 0.930 . S
C97 C100 1.424 . S
C97 C102 1.245 . S
C97 C103 1.428 . S
C98 C101 1.260 . S
C98 C102 1.477 . S
C98 H116 0.932 . S
C99 C100 1.384 . S
C99 C101 1.479 . S
C99 H117 0.929 1_545 S
C100 C97 1.424 . S
C100 C99 1.384 . S
C100 H118 0.928 1_545 S
C101 C98 1.260 . S
C101 C99 1.479 . S
C102 C97 1.245 . S
C102 C98 1.477 . S
C102 H119 0.932 . S
C103 U86 2.882 . S
C103 C97 1.428 . S
C103 O106 1.301 . S
C103 O107 1.282 . S
O104 U86 2.441 . S
O104 C90 1.231 1_545 S
O105 U86 2.420 . S
O105 C90 1.196 1_545 S
O106 U86 2.455 . S
O106 C103 1.301 . S
O107 U86 2.449 . S
O107 C103 1.282 . S
H108 C81 0.931 . S
H109 C83 0.929 . S
H110 C84 0.930 . S
H111 C85 0.931 . S
H112 C92 0.932 . S
H113 C93 0.930 . S
H114 C94 0.929 . S
H115 C96 0.930 . S
H116 C98 0.932 . S
H117 C99 0.929 1_565 S
H118 C100 0.928 1_565 S
H119 C102 0.932 . S
C120 C121 1.264 . S
C120 C125 1.479 . S
C120 C130 1.465 . S
C121 C120 1.264 . S
C121 C123 1.339 . S
C121 H148 0.931 . S
C122 C123 1.395 . S
C122 C124 1.320 . S
C123 C121 1.339 . S
C123 C122 1.395 . S
C123 H149 0.929 . S
C124 C122 1.320 . S
C124 C125 1.405 . S
C124 H150 0.930 . S
C125 C120 1.479 . S
C125 C124 1.405 . S
C125 H151 0.931 . S
U126 O127 2.454 . S
U126 O128 2.458 . S
U126 C129 2.984 . S
U126 C130 2.847 . S
U126 C143 2.882 . S
U126 O144 2.441 . S
U126 O145 2.420 . S
U126 O146 2.455 . S
U126 O147 2.449 . S
O127 U126 2.454 . S
O127 C129 1.353 . S
O128 U126 2.458 . S
O128 C129 1.286 . S
C129 U126 2.984 . S
C129 O127 1.353 . S
C129 O128 1.286 . S
C129 C131 1.363 . S
C130 C120 1.465 . S
C130 U126 2.847 . S
C130 O144 1.249 . S
C130 O145 1.202 . S
C131 C129 1.363 . S
C131 C133 1.408 . S
C131 C136 1.342 . S
C132 C133 1.310 . S
C132 C135 1.461 . S
C132 H152 0.932 . S
C133 C131 1.408 . S
C133 C132 1.310 . S
C133 H153 0.930 . S
C134 C135 1.474 . S
C134 C136 1.285 . S
C134 H154 0.929 . S
C135 C132 1.461 . S
C135 C134 1.474 . S
C136 C131 1.342 . S
C136 C134 1.285 . S
C136 H155 0.930 . S
C137 C140 1.424 . S
C137 C142 1.245 . S
C137 C143 1.428 . S
C138 C141 1.260 . S
C138 C142 1.477 . S
C138 H156 0.932 . S
C139 C140 1.384 . S
C139 C141 1.479 . S
C139 H157 0.929 . S
C140 C137 1.424 . S
C140 C139 1.384 . S
C140 H158 0.928 . S
C141 C138 1.260 . S
C141 C139 1.479 . S
C142 C137 1.245 . S
C142 C138 1.477 . S
C142 H159 0.932 . S
C143 U126 2.882 . S
C143 C137 1.428 . S
C143 O146 1.301 . S
C143 O147 1.282 . S
O144 U126 2.441 . S
O144 C130 1.249 . S
O145 U126 2.420 . S
O145 C130 1.202 . S
O146 U126 2.455 . S
O146 C143 1.301 . S
O147 U126 2.449 . S
O147 C143 1.282 . S
H148 C121 0.931 . S
H149 C123 0.929 . S
H150 C124 0.930 . S
H151 C125 0.931 . S
H152 C132 0.932 . S
H153 C133 0.930 . S
H154 C134 0.929 . S
H155 C136 0.930 . S
H156 C138 0.932 . S
H157 C139 0.929 . S
H158 C140 0.928 . S
H159 C142 0.932 . S
C160 C161 1.264 . S
C160 C165 1.479 . S
C160 C170 1.465 . S
C161 C160 1.264 . S
C161 C163 1.339 . S
C161 H188 0.931 . S
C162 C163 1.395 . S
C162 C164 1.320 . S
C163 C161 1.339 . S
C163 C162 1.395 . S
C163 H189 0.929 . S
C164 C162 1.320 . S
C164 C165 1.405 . S
C164 H190 0.930 . S
C165 C160 1.479 . S
C165 C164 1.405 . S
C165 H191 0.931 . S
U166 O167 2.454 1_554 S
U166 O168 2.458 1_554 S
U166 C169 2.984 1_554 S
U166 C170 2.847 1_545 S
U166 C183 2.882 1_545 S
U166 O184 2.441 1_545 S
U166 O185 2.420 1_545 S
U166 O186 2.455 1_554 S
U166 O187 2.449 1_545 S
O167 U166 2.454 1_556 S
O167 C169 1.353 . S
O168 U166 2.458 1_556 S
O168 C169 1.286 . S
C169 U166 2.984 1_556 S
C169 O167 1.353 . S
C169 O168 1.286 . S
C169 C171 1.363 . S
C170 C160 1.465 . S
C170 U166 2.847 1_565 S
C170 O184 1.249 . S
C170 O185 1.202 . S
C171 C169 1.363 . S
C171 C173 1.408 . S
C171 C176 1.342 . S
C172 C173 1.310 . S
C172 C175 1.461 . S
C172 H192 0.932 . S
C173 C171 1.408 . S
C173 C172 1.310 . S
C173 H193 0.930 . S
C174 C175 1.474 . S
C174 C176 1.285 . S
C174 H194 0.929 . S
C175 C172 1.461 . S
C175 C174 1.474 . S
C176 C171 1.342 . S
C176 C174 1.285 . S
C176 H195 0.930 . S
C177 C180 1.424 1_545 S
C177 C182 1.245 1_554 S
C177 C183 1.427 1_545 S
C178 C181 1.260 1_556 S
C178 C182 1.477 . S
C178 H196 0.932 . S
C179 C180 1.384 . S
C179 C181 1.479 1_565 S
C179 H197 0.929 . S
C180 C177 1.424 1_565 S
C180 C179 1.384 . S
C180 H198 0.928 . S
C181 C178 1.260 1_554 S
C181 C179 1.479 1_545 S
C182 C177 1.245 1_556 S
C182 C178 1.477 . S
C182 H199 0.932 . S
C183 U166 2.882 1_565 S
C183 C177 1.427 1_565 S
C183 O186 1.298 1_564 S
C183 O187 1.286 . S
O184 U166 2.441 1_565 S
O184 C170 1.249 . S
O185 U166 2.420 1_565 S
O185 C170 1.202 . S
O186 U166 2.455 1_556 S
O186 C183 1.298 1_546 S
O187 U166 2.449 1_565 S
O187 C183 1.286 . S
H188 C161 0.931 . S
H189 C163 0.929 . S
H190 C164 0.930 . S
H191 C165 0.931 . S
H192 C172 0.932 . S
H193 C173 0.930 . S
H194 C174 0.929 . S
H195 C176 0.930 . S
H196 C178 0.932 . S
H197 C179 0.929 . S
H198 C180 0.928 . S
H199 C182 0.932 . S
C200 C201 1.264 . S
C200 C205 1.479 . S
C200 C210 1.465 . S
C201 C200 1.264 . S
C201 C203 1.339 . S
C201 H228 0.931 . S
C202 C203 1.395 . S
C202 C204 1.320 . S
C203 C201 1.339 . S
C203 C202 1.395 . S
C203 H229 0.929 . S
C204 C202 1.320 . S
C204 C205 1.405 . S
C204 H230 0.930 . S
C205 C200 1.479 . S
C205 C204 1.405 . S
C205 H231 0.931 . S
U206 O207 2.454 . S
U206 O208 2.458 . S
U206 C209 2.984 . S
U206 C210 2.847 . S
U206 C223 2.882 . S
U206 O224 2.441 . S
U206 O225 2.420 . S
U206 O226 2.455 . S
U206 O227 2.449 . S
O207 U206 2.454 . S
O207 C209 1.353 . S
O208 U206 2.458 . S
O208 C209 1.286 . S
C209 U206 2.984 . S
C209 O207 1.353 . S
C209 O208 1.286 . S
C209 C211 1.363 . S
C210 C200 1.465 . S
C210 U206 2.847 . S
C210 O224 1.249 . S
C210 O225 1.202 . S
C211 C209 1.363 . S
C211 C213 1.408 . S
C211 C216 1.342 . S
C212 C213 1.310 . S
C212 C215 1.461 . S
C212 H232 0.932 . S
C213 C211 1.408 . S
C213 C212 1.310 . S
C213 H233 0.930 . S
C214 C215 1.474 . S
C214 C216 1.285 . S
C214 H234 0.929 . S
C215 C212 1.461 . S
C215 C214 1.474 . S
C216 C211 1.342 . S
C216 C214 1.285 . S
C216 H235 0.930 . S
C217 C220 1.424 . S
C217 C222 1.245 . S
C217 C223 1.428 . S
C218 C221 1.260 . S
C218 C222 1.477 . S
C218 H236 0.932 . S
C219 C220 1.384 . S
C219 C221 1.479 . S
C219 H237 0.929 . S
C220 C217 1.424 . S
C220 C219 1.384 . S
C220 H238 0.928 . S
C221 C218 1.260 . S
C221 C219 1.479 . S
C222 C217 1.245 . S
C222 C218 1.477 . S
C222 H239 0.932 . S
C223 U206 2.882 . S
C223 C217 1.428 . S
C223 O226 1.301 . S
C223 O227 1.282 . S
O224 U206 2.441 . S
O224 C210 1.249 . S
O225 U206 2.420 . S
O225 C210 1.202 . S
O226 U206 2.455 . S
O226 C223 1.301 . S
O227 U206 2.449 . S
O227 C223 1.282 . S
H228 C201 0.931 . S
H229 C203 0.929 . S
H230 C204 0.930 . S
H231 C205 0.931 . S
H232 C212 0.932 . S
H233 C213 0.930 . S
H234 C214 0.929 . S
H235 C216 0.930 . S
H236 C218 0.932 . S
H237 C219 0.929 . S
H238 C220 0.928 . S
H239 C222 0.932 . S
C240 C241 1.264 1_565 S
C240 C245 1.479 . S
C240 C250 1.465 . S
C241 C240 1.264 1_545 S
C241 C243 1.339 . S
C241 H268 0.931 . S
C242 C243 1.384 1_565 S
C242 C244 1.342 . S
C243 C241 1.339 . S
C243 C242 1.384 1_545 S
C243 H269 0.929 . S
C244 C242 1.342 . S
C244 C245 1.405 . S
C244 H270 0.930 . S
C245 C240 1.479 . S
C245 C244 1.405 . S
C245 H271 0.931 . S
U246 O247 2.454 . S
U246 O248 2.458 . S
U246 C249 2.984 . S
U246 C250 2.847 . S
U246 C263 2.882 1_565 S
U246 O264 2.441 . S
U246 O265 2.420 . S
U246 O266 2.470 . S
U246 O267 2.449 1_565 S
O247 U246 2.454 . S
O247 C249 1.353 . S
O248 U246 2.458 . S
O248 C249 1.286 . S
C249 U246 2.984 . S
C249 O247 1.353 . S
C249 O248 1.286 . S
C249 C251 1.363 . S
C250 C240 1.465 . S
C250 U246 2.847 . S
C250 O264 1.249 . S
C250 O265 1.202 . S
C251 C249 1.363 . S
C251 C253 1.408 . S
C251 C256 1.342 . S
C252 C253 1.310 . S
C252 C255 1.461 . S
C252 H272 0.932 . S
C253 C251 1.408 . S
C253 C252 1.310 . S
C253 H273 0.930 . S
C254 C255 1.474 . S
C254 C256 1.285 . S
C254 H274 0.929 . S
C255 C252 1.461 . S
C255 C254 1.474 . S
C256 C251 1.342 . S
C256 C254 1.285 . S
C256 H275 0.930 . S
C257 C260 1.424 . S
C257 C262 1.245 . S
C257 C263 1.428 . S
C258 C261 1.260 . S
C258 C262 1.477 . S
C258 H276 0.932 . S
C259 C260 1.384 . S
C259 C261 1.479 . S
C259 H277 0.929 . S
C260 C257 1.424 . S
C260 C259 1.384 . S
C260 H278 0.928 . S
C261 C258 1.260 . S
C261 C259 1.479 . S
C262 C257 1.245 . S
C262 C258 1.477 . S
C262 H279 0.932 . S
C263 U246 2.882 1_545 S
C263 C257 1.428 . S
C263 O266 1.271 1_545 S
C263 O267 1.282 . S
O264 U246 2.441 . S
O264 C250 1.249 . S
O265 U246 2.420 . S
O265 C250 1.202 . S
O266 U246 2.470 . S
O266 C263 1.271 1_565 S
O267 U246 2.449 1_545 S
O267 C263 1.282 . S
H268 C241 0.931 . S
H269 C243 0.929 . S
H270 C244 0.930 . S
H271 C245 0.931 . S
H272 C252 0.932 . S
H273 C253 0.930 . S
H274 C254 0.929 . S
H275 C256 0.930 . S
H276 C258 0.932 . S
H277 C259 0.929 . S
H278 C260 0.928 . S
H279 C262 0.932 . S
C280 C281 1.264 . S
C280 C285 1.479 . S
C280 C290 1.465 . S
C281 C280 1.264 . S
C281 C283 1.339 . S
C281 H308 0.931 . S
C282 C283 1.395 . S
C282 C284 1.320 . S
C283 C281 1.339 . S
C283 C282 1.395 . S
C283 H309 0.929 . S
C284 C282 1.320 . S
C284 C285 1.405 . S
C284 H310 0.930 . S
C285 C280 1.479 . S
C285 C284 1.405 . S
C285 H311 0.931 . S
U286 O287 2.454 . S
U286 O288 2.458 . S
U286 C289 2.984 . S
U286 C290 2.847 . S
U286 C303 2.882 . S
U286 O304 2.441 . S
U286 O305 2.420 . S
U286 O306 2.455 . S
U286 O307 2.449 . S
O287 U286 2.454 . S
O287 C289 1.353 . S
O288 U286 2.458 . S
O288 C289 1.286 . S
C289 U286 2.984 . S
C289 O287 1.353 . S
C289 O288 1.286 . S
C289 C291 1.363 . S
C290 C280 1.465 . S
C290 U286 2.847 . S
C290 O304 1.249 . S
C290 O305 1.202 . S
C291 C289 1.363 . S
C291 C293 1.408 . S
C291 C296 1.342 . S
C292 C293 1.310 . S
C292 C295 1.461 . S
C292 H312 0.932 . S
C293 C291 1.408 . S
C293 C292 1.310 . S
C293 H313 0.930 . S
C294 C295 1.474 . S
C294 C296 1.285 . S
C294 H314 0.929 . S
C295 C292 1.461 . S
C295 C294 1.474 . S
C296 C291 1.342 . S
C296 C294 1.285 . S
C296 H315 0.930 . S
C297 C300 1.424 . S
C297 C302 1.245 . S
C297 C303 1.428 . S
C298 C301 1.260 . S
C298 C302 1.477 . S
C298 H316 0.932 . S
C299 C300 1.384 . S
C299 C301 1.479 . S
C299 H317 0.929 . S
C300 C297 1.424 . S
C300 C299 1.384 . S
C300 H318 0.928 . S
C301 C298 1.260 . S
C301 C299 1.479 . S
C302 C297 1.245 . S
C302 C298 1.477 . S
C302 H319 0.932 . S
C303 U286 2.882 . S
C303 C297 1.428 . S
C303 O306 1.301 . S
C303 O307 1.282 . S
O304 U286 2.441 . S
O304 C290 1.249 . S
O305 U286 2.420 . S
O305 C290 1.202 . S
O306 U286 2.455 . S
O306 C303 1.301 . S
O307 U286 2.449 . S
O307 C303 1.282 . S
H308 C281 0.931 . S
H309 C283 0.929 . S
H310 C284 0.930 . S
H311 C285 0.931 . S
H312 C292 0.932 . S
H313 C293 0.930 . S
H314 C294 0.929 . S
H315 C296 0.930 . S
H316 C298 0.932 . S
H317 C299 0.929 . S
H318 C300 0.928 . S
H319 C302 0.932 . S
C320 C321 1.264 . S
C320 C325 1.479 . S
C320 C330 1.465 . S
C321 C320 1.264 . S
C321 C323 1.339 . S
C321 H348 0.931 . S
C322 C323 1.395 . S
C322 C324 1.320 . S
C323 C321 1.339 . S
C323 C322 1.395 . S
C323 H349 0.929 . S
C324 C322 1.320 . S
C324 C325 1.405 . S
C324 H350 0.930 . S
C325 C320 1.479 . S
C325 C324 1.405 . S
C325 H351 0.931 . S
U326 O327 2.454 . S
U326 O328 2.458 . S
U326 C329 2.984 . S
U326 C330 2.847 . S
U326 C343 2.882 . S
U326 O344 2.441 . S
U326 O345 2.420 . S
U326 O346 2.455 . S
U326 O347 2.449 . S
O327 U326 2.454 . S
O327 C329 1.353 . S
O328 U326 2.458 . S
O328 C329 1.286 . S
C329 U326 2.984 . S
C329 O327 1.353 . S
C329 O328 1.286 . S
C329 C331 1.363 . S
C330 C320 1.465 . S
C330 U326 2.847 . S
C330 O344 1.249 . S
C330 O345 1.202 . S
C331 C329 1.363 . S
C331 C333 1.408 . S
C331 C336 1.342 . S
C332 C333 1.310 . S
C332 C335 1.461 . S
C332 H352 0.932 . S
C333 C331 1.408 . S
C333 C332 1.310 . S
C333 H353 0.930 . S
C334 C335 1.474 . S
C334 C336 1.285 . S
C334 H354 0.929 . S
C335 C332 1.461 . S
C335 C334 1.474 . S
C336 C331 1.342 . S
C336 C334 1.285 . S
C336 H355 0.930 . S
C337 C340 1.424 . S
C337 C342 1.245 . S
C337 C343 1.428 . S
C338 C341 1.260 . S
C338 C342 1.477 . S
C338 H356 0.932 . S
C339 C340 1.384 . S
C339 C341 1.479 . S
C339 H357 0.929 . S
C340 C337 1.424 . S
C340 C339 1.384 . S
C340 H358 0.928 . S
C341 C338 1.260 . S
C341 C339 1.479 . S
C342 C337 1.245 . S
C342 C338 1.477 . S
C342 H359 0.932 . S
C343 U326 2.882 . S
C343 C337 1.428 . S
C343 O346 1.301 . S
C343 O347 1.282 . S
O344 U326 2.441 . S
O344 C330 1.249 . S
O345 U326 2.420 . S
O345 C330 1.202 . S
O346 U326 2.455 . S
O346 C343 1.301 . S
O347 U326 2.449 . S
O347 C343 1.282 . S
H348 C321 0.931 . S
H349 C323 0.929 . S
H350 C324 0.930 . S
H351 C325 0.931 . S
H352 C332 0.932 . S
H353 C333 0.930 . S
H354 C334 0.929 . S
H355 C336 0.930 . S
H356 C338 0.932 . S
H357 C339 0.929 . S
H358 C340 0.928 . S
H359 C342 0.932 . S
C360 C361 1.264 . S
C360 C365 1.479 . S
C360 C370 1.465 . S
C361 C360 1.264 . S
C361 C363 1.339 . S
C361 H388 0.931 . S
C362 C363 1.395 . S
C362 C364 1.320 . S
C363 C361 1.339 . S
C363 C362 1.395 . S
C363 H389 0.929 . S
C364 C362 1.320 . S
C364 C365 1.405 . S
C364 H390 0.930 . S
C365 C360 1.479 . S
C365 C364 1.405 . S
C365 H391 0.931 . S
U366 O367 2.454 . S
U366 O368 2.458 . S
U366 C369 2.984 . S
U366 C370 2.847 . S
U366 C383 2.882 . S
U366 O384 2.441 . S
U366 O385 2.420 . S
U366 O386 2.455 . S
U366 O387 2.449 . S
O367 U366 2.454 . S
O367 C369 1.353 . S
O368 U366 2.458 . S
O368 C369 1.286 . S
C369 U366 2.984 . S
C369 O367 1.353 . S
C369 O368 1.286 . S
C369 C371 1.363 . S
C370 C360 1.465 . S
C370 U366 2.847 . S
C370 O384 1.249 . S
C370 O385 1.202 . S
C371 C369 1.363 . S
C371 C373 1.408 . S
C371 C376 1.342 . S
C372 C373 1.310 . S
C372 C375 1.461 . S
C372 H392 0.932 . S
C373 C371 1.408 . S
C373 C372 1.310 . S
C373 H393 0.930 . S
C374 C375 1.474 . S
C374 C376 1.285 . S
C374 H394 0.929 . S
C375 C372 1.461 . S
C375 C374 1.474 . S
C376 C371 1.342 . S
C376 C374 1.285 . S
C376 H395 0.930 . S
C377 C380 1.424 . S
C377 C382 1.245 . S
C377 C383 1.428 . S
C378 C381 1.260 . S
C378 C382 1.477 . S
C378 H396 0.932 . S
C379 C380 1.384 . S
C379 C381 1.479 . S
C379 H397 0.929 . S
C380 C377 1.424 . S
C380 C379 1.384 . S
C380 H398 0.928 . S
C381 C378 1.260 . S
C381 C379 1.479 . S
C382 C377 1.245 . S
C382 C378 1.477 . S
C382 H399 0.932 . S
C383 U366 2.882 . S
C383 C377 1.428 . S
C383 O386 1.301 . S
C383 O387 1.282 . S
O384 U366 2.441 . S
O384 C370 1.249 . S
O385 U366 2.420 . S
O385 C370 1.202 . S
O386 U366 2.455 . S
O386 C383 1.301 . S
O387 U366 2.449 . S
O387 C383 1.282 . S
H388 C361 0.931 . S
H389 C363 0.929 . S
H390 C364 0.930 . S
H391 C365 0.931 . S
H392 C372 0.932 . S
H393 C373 0.930 . S
H394 C374 0.929 . S
H395 C376 0.930 . S
H396 C378 0.932 . S
H397 C379 0.929 . S
H398 C380 0.928 . S
H399 C382 0.932 . S
C400 C401 1.264 . S
C400 C405 1.479 . S
C400 C410 1.465 . S
C401 C400 1.264 . S
C401 C403 1.339 . S
C401 H428 0.931 . S
C402 C403 1.395 . S
C402 C404 1.320 . S
C403 C401 1.339 . S
C403 C402 1.395 . S
C403 H429 0.929 . S
C404 C402 1.320 . S
C404 C405 1.405 . S
C404 H430 0.930 . S
C405 C400 1.479 . S
C405 C404 1.405 . S
C405 H431 0.931 . S
U406 O407 2.454 1_556 S
U406 O408 2.458 1_556 S
U406 C409 2.984 1_556 S
U406 C410 2.847 . S
U406 C423 2.882 . S
U406 O424 2.441 . S
U406 O425 2.420 . S
U406 O426 2.455 1_556 S
U406 O427 2.449 . S
O407 U406 2.454 1_554 S
O407 C409 1.353 . S
O408 U406 2.458 1_554 S
O408 C409 1.286 . S
C409 U406 2.984 1_554 S
C409 O407 1.353 . S
C409 O408 1.286 . S
C409 C411 1.363 . S
C410 C400 1.465 . S
C410 U406 2.847 . S
C410 O424 1.249 . S
C410 O425 1.202 . S
C411 C409 1.363 . S
C411 C413 1.408 . S
C411 C416 1.342 . S
C412 C413 1.310 . S
C412 C415 1.461 . S
C412 H432 0.932 . S
C413 C411 1.408 . S
C413 C412 1.310 . S
C413 H433 0.930 . S
C414 C415 1.474 . S
C414 C416 1.285 . S
C414 H434 0.929 . S
C415 C412 1.461 . S
C415 C414 1.474 . S
C416 C411 1.342 . S
C416 C414 1.285 . S
C416 H435 0.930 . S
C417 C420 1.424 . S
C417 C422 1.245 1_556 S
C417 C423 1.428 . S
C418 C421 1.260 . S
C418 C422 1.477 . S
C418 H436 0.932 . S
C419 C420 1.384 . S
C419 C421 1.479 1_556 S
C419 H437 0.929 . S
C420 C417 1.424 . S
C420 C419 1.384 . S
C420 H438 0.928 . S
C421 C418 1.260 . S
C421 C419 1.479 1_554 S
C422 C417 1.245 1_554 S
C422 C418 1.477 . S
C422 H439 0.932 . S
C423 U406 2.882 . S
C423 C417 1.428 . S
C423 O426 1.301 1_556 S
C423 O427 1.282 . S
O424 U406 2.441 . S
O424 C410 1.249 . S
O425 U406 2.420 . S
O425 C410 1.202 . S
O426 U406 2.455 1_554 S
O426 C423 1.301 1_554 S
O427 U406 2.449 . S
O427 C423 1.282 . S
H428 C401 0.931 . S
H429 C403 0.929 . S
H430 C404 0.930 . S
H431 C405 0.931 . S
H432 C412 0.932 . S
H433 C413 0.930 . S
H434 C414 0.929 . S
H435 C416 0.930 . S
H436 C418 0.932 . S
H437 C419 0.929 . S
H438 C420 0.928 . S
H439 C422 0.932 . S
C440 C441 1.264 . S
C440 C445 1.479 . S
C440 C450 1.465 . S
C441 C440 1.264 . S
C441 C443 1.339 . S
C441 H468 0.931 . S
C442 C443 1.395 . S
C442 C444 1.320 . S
C443 C441 1.339 . S
C443 C442 1.395 . S
C443 H469 0.929 . S
C444 C442 1.320 . S
C444 C445 1.405 . S
C444 H470 0.930 . S
C445 C440 1.479 . S
C445 C444 1.405 . S
C445 H471 0.931 . S
U446 O447 2.454 . S
U446 O448 2.458 . S
U446 C449 2.984 . S
U446 C450 2.847 . S
U446 C463 2.882 . S
U446 O464 2.441 . S
U446 O465 2.420 . S
U446 O466 2.455 . S
U446 O467 2.449 . S
O447 U446 2.454 . S
O447 C449 1.353 . S
O448 U446 2.458 . S
O448 C449 1.286 . S
C449 U446 2.984 . S
C449 O447 1.353 . S
C449 O448 1.286 . S
C449 C451 1.363 . S
C450 C440 1.465 . S
C450 U446 2.847 . S
C450 O464 1.249 . S
C450 O465 1.202 . S
C451 C449 1.363 . S
C451 C453 1.408 . S
C451 C456 1.342 . S
C452 C453 1.310 . S
C452 C455 1.461 . S
C452 H472 0.932 . S
C453 C451 1.408 . S
C453 C452 1.310 . S
C453 H473 0.930 . S
C454 C455 1.474 . S
C454 C456 1.285 . S
C454 H474 0.929 . S
C455 C452 1.461 . S
C455 C454 1.474 . S
C456 C451 1.342 . S
C456 C454 1.285 . S
C456 H475 0.930 . S
C457 C460 1.424 . S
C457 C462 1.245 . S
C457 C463 1.428 . S
C458 C461 1.260 . S
C458 C462 1.477 . S
C458 H476 0.932 . S
C459 C460 1.384 . S
C459 C461 1.479 . S
C459 H477 0.929 . S
C460 C457 1.424 . S
C460 C459 1.384 . S
C460 H478 0.928 . S
C461 C458 1.260 . S
C461 C459 1.479 . S
C462 C457 1.245 . S
C462 C458 1.477 . S
C462 H479 0.932 . S
C463 U446 2.882 . S
C463 C457 1.428 . S
C463 O466 1.301 . S
C463 O467 1.282 . S
O464 U446 2.441 . S
O464 C450 1.249 . S
O465 U446 2.420 . S
O465 C450 1.202 . S
O466 U446 2.455 . S
O466 C463 1.301 . S
O467 U446 2.449 . S
O467 C463 1.282 . S
H468 C441 0.931 . S
H469 C443 0.929 . S
H470 C444 0.930 . S
H471 C445 0.931 . S
H472 C452 0.932 . S
H473 C453 0.930 . S
H474 C454 0.929 . S
H475 C456 0.930 . S
H476 C458 0.932 . S
H477 C459 0.929 . S
H478 C460 0.928 . S
H479 C462 0.932 . S
C480 C481 1.264 . S
C480 C485 1.479 . S
C480 C490 1.465 . S
C481 C480 1.264 . S
C481 C483 1.339 . S
C481 H508 0.931 . S
C482 C483 1.395 . S
C482 C484 1.320 . S
C483 C481 1.339 . S
C483 C482 1.395 . S
C483 H509 0.929 . S
C484 C482 1.320 . S
C484 C485 1.405 . S
C484 H510 0.930 . S
C485 C480 1.479 . S
C485 C484 1.405 . S
C485 H511 0.931 . S
U486 O487 2.454 . S
U486 O488 2.458 . S
U486 C489 2.984 . S
U486 C490 2.847 . S
U486 C503 2.882 . S
U486 O504 2.441 . S
U486 O505 2.420 . S
U486 O506 2.455 . S
U486 O507 2.449 . S
O487 U486 2.454 . S
O487 C489 1.353 . S
O488 U486 2.458 . S
O488 C489 1.286 . S
C489 U486 2.984 . S
C489 O487 1.353 . S
C489 O488 1.286 . S
C489 C491 1.363 . S
C490 C480 1.465 . S
C490 U486 2.847 . S
C490 O504 1.249 . S
C490 O505 1.202 . S
C491 C489 1.363 . S
C491 C493 1.408 . S
C491 C496 1.342 . S
C492 C493 1.310 . S
C492 C495 1.461 . S
C492 H512 0.932 . S
C493 C491 1.408 . S
C493 C492 1.310 . S
C493 H513 0.930 . S
C494 C495 1.474 . S
C494 C496 1.285 . S
C494 H514 0.929 . S
C495 C492 1.461 . S
C495 C494 1.474 . S
C496 C491 1.342 . S
C496 C494 1.285 . S
C496 H515 0.930 . S
C497 C500 1.424 . S
C497 C502 1.245 . S
C497 C503 1.428 . S
C498 C501 1.260 . S
C498 C502 1.477 . S
C498 H516 0.932 . S
C499 C500 1.384 . S
C499 C501 1.479 . S
C499 H517 0.929 . S
C500 C497 1.424 . S
C500 C499 1.384 . S
C500 H518 0.928 . S
C501 C498 1.260 . S
C501 C499 1.479 . S
C502 C497 1.245 . S
C502 C498 1.477 . S
C502 H519 0.932 . S
C503 U486 2.882 . S
C503 C497 1.428 . S
C503 O506 1.301 . S
C503 O507 1.282 . S
O504 U486 2.441 . S
O504 C490 1.249 . S
O505 U486 2.420 . S
O505 C490 1.202 . S
O506 U486 2.455 . S
O506 C503 1.301 . S
O507 U486 2.449 . S
O507 C503 1.282 . S
H508 C481 0.931 . S
H509 C483 0.929 . S
H510 C484 0.930 . S
H511 C485 0.931 . S
H512 C492 0.932 . S
H513 C493 0.930 . S
H514 C494 0.929 . S
H515 C496 0.930 . S
H516 C498 0.932 . S
H517 C499 0.929 . S
H518 C500 0.928 . S
H519 C502 0.932 . S
C520 C521 1.264 . S
C520 C525 1.479 . S
C520 C530 1.465 . S
C521 C520 1.264 . S
C521 C523 1.339 . S
C521 H548 0.931 . S
C522 C523 1.395 . S
C522 C524 1.320 . S
C523 C521 1.339 . S
C523 C522 1.395 . S
C523 H549 0.929 . S
C524 C522 1.320 . S
C524 C525 1.405 . S
C524 H550 0.930 . S
C525 C520 1.479 . S
C525 C524 1.405 . S
C525 H551 0.931 . S
U526 O527 2.454 . S
U526 O528 2.458 . S
U526 C529 2.984 . S
U526 C530 2.847 . S
U526 C543 2.882 . S
U526 O544 2.441 . S
U526 O545 2.420 . S
U526 O546 2.455 . S
U526 O547 2.449 . S
O527 U526 2.454 . S
O527 C529 1.353 . S
O528 U526 2.458 . S
O528 C529 1.286 . S
C529 U526 2.984 . S
C529 O527 1.353 . S
C529 O528 1.286 . S
C529 C531 1.363 . S
C530 C520 1.465 . S
C530 U526 2.847 . S
C530 O544 1.249 . S
C530 O545 1.202 . S
C531 C529 1.363 . S
C531 C533 1.408 . S
C531 C536 1.342 . S
C532 C533 1.310 . S
C532 C535 1.461 . S
C532 H552 0.932 . S
C533 C531 1.408 . S
C533 C532 1.310 . S
C533 H553 0.930 . S
C534 C535 1.474 . S
C534 C536 1.285 . S
C534 H554 0.929 . S
C535 C532 1.461 . S
C535 C534 1.474 . S
C536 C531 1.342 . S
C536 C534 1.285 . S
C536 H555 0.930 . S
C537 C540 1.424 . S
C537 C542 1.245 . S
C537 C543 1.428 . S
C538 C541 1.260 . S
C538 C542 1.477 . S
C538 H556 0.932 . S
C539 C540 1.384 . S
C539 C541 1.479 . S
C539 H557 0.929 . S
C540 C537 1.424 . S
C540 C539 1.384 . S
C540 H558 0.928 . S
C541 C538 1.260 . S
C541 C539 1.479 . S
C542 C537 1.245 . S
C542 C538 1.477 . S
C542 H559 0.932 . S
C543 U526 2.882 . S
C543 C537 1.428 . S
C543 O546 1.301 . S
C543 O547 1.282 . S
O544 U526 2.441 . S
O544 C530 1.249 . S
O545 U526 2.420 . S
O545 C530 1.202 . S
O546 U526 2.455 . S
O546 C543 1.301 . S
O547 U526 2.449 . S
O547 C543 1.282 . S
H548 C521 0.931 . S
H549 C523 0.929 . S
H550 C524 0.930 . S
H551 C525 0.931 . S
H552 C532 0.932 . S
H553 C533 0.930 . S
H554 C534 0.929 . S
H555 C536 0.930 . S
H556 C538 0.932 . S
H557 C539 0.929 . S
H558 C540 0.928 . S
H559 C542 0.932 . S
C560 C561 1.264 . S
C560 C565 1.479 1_554 S
C560 C570 1.465 . S
C561 C560 1.264 . S
C561 C563 1.339 . S
C561 H588 0.931 . S
C562 C563 1.395 . S
C562 C564 1.320 1_554 S
C563 C561 1.339 . S
C563 C562 1.395 . S
C563 H589 0.929 . S
C564 C562 1.320 1_556 S
C564 C565 1.405 . S
C564 H590 0.930 . S
C565 C560 1.479 1_556 S
C565 C564 1.405 . S
C565 H591 0.931 . S
U566 O567 2.454 1_554 S
U566 O568 2.458 1_554 S
U566 C569 2.984 1_554 S
U566 C570 2.847 . S
U566 C583 2.882 . S
U566 O584 2.444 . S
U566 O585 2.420 . S
U566 O586 2.455 . S
U566 O587 2.449 . S
O567 U566 2.454 1_556 S
O567 C569 1.353 . S
O568 U566 2.458 1_556 S
O568 C569 1.286 . S
C569 U566 2.984 1_556 S
C569 O567 1.353 . S
C569 O568 1.286 . S
C569 C571 1.363 . S
C570 C560 1.465 . S
C570 U566 2.847 . S
C570 O584 1.255 . S
C570 O585 1.202 . S
C571 C569 1.363 . S
C571 C573 1.408 . S
C571 C576 1.342 . S
C572 C573 1.310 . S
C572 C575 1.461 . S
C572 H592 0.932 . S
C573 C571 1.408 . S
C573 C572 1.310 . S
C573 H593 0.930 . S
C574 C575 1.474 . S
C574 C576 1.285 . S
C574 H594 0.929 . S
C575 C572 1.461 . S
C575 C574 1.474 . S
C576 C571 1.342 . S
C576 C574 1.285 . S
C576 H595 0.930 . S
C577 C580 1.424 . S
C577 C582 1.245 . S
C577 C583 1.428 . S
C578 C581 1.260 . S
C578 C582 1.477 . S
C578 H596 0.932 . S
C579 C580 1.384 . S
C579 C581 1.479 . S
C579 H597 0.929 . S
C580 C577 1.424 . S
C580 C579 1.384 . S
C580 H598 0.928 . S
C581 C578 1.260 . S
C581 C579 1.479 . S
C582 C577 1.245 . S
C582 C578 1.477 . S
C582 H599 0.932 . S
C583 U566 2.882 . S
C583 C577 1.428 . S
C583 O586 1.301 . S
C583 O587 1.282 . S
O584 U566 2.444 . S
O584 C570 1.255 . S
O585 U566 2.420 . S
O585 C570 1.202 . S
O586 U566 2.455 . S
O586 C583 1.301 . S
O587 U566 2.449 . S
O587 C583 1.282 . S
H588 C561 0.931 . S
H589 C563 0.929 . S
H590 C564 0.930 . S
H591 C565 0.931 . S
H592 C572 0.932 . S
H593 C573 0.930 . S
H594 C574 0.929 . S
H595 C576 0.930 . S
H596 C578 0.932 . S
H597 C579 0.929 . S
H598 C580 0.928 . S
H599 C582 0.932 . S
C600 C601 1.264 . S
C600 C605 1.479 . S
C600 C610 1.465 . S
C601 C600 1.264 . S
C601 C603 1.339 . S
C601 H628 0.931 . S
C602 C603 1.395 . S
C602 C604 1.320 . S
C603 C601 1.339 . S
C603 C602 1.395 . S
C603 H629 0.929 . S
C604 C602 1.320 . S
C604 C605 1.405 . S
C604 H630 0.930 . S
C605 C600 1.479 . S
C605 C604 1.405 . S
C605 H631 0.931 . S
U606 O607 2.454 . S
U606 O608 2.458 . S
U606 C609 2.984 . S
U606 C610 2.847 . S
U606 C623 2.882 . S
U606 O624 2.441 . S
U606 O625 2.420 . S
U606 O626 2.455 . S
U606 O627 2.449 . S
O607 U606 2.454 . S
O607 C609 1.353 . S
O608 U606 2.458 . S
O608 C609 1.286 . S
C609 U606 2.984 . S
C609 O607 1.353 . S
C609 O608 1.286 . S
C609 C611 1.363 . S
C610 C600 1.465 . S
C610 U606 2.847 . S
C610 O624 1.249 . S
C610 O625 1.202 . S
C611 C609 1.363 . S
C611 C613 1.408 . S
C611 C616 1.342 . S
C612 C613 1.310 . S
C612 C615 1.461 . S
C612 H632 0.932 . S
C613 C611 1.408 . S
C613 C612 1.310 . S
C613 H633 0.930 . S
C614 C615 1.474 . S
C614 C616 1.285 . S
C614 H634 0.929 . S
C615 C612 1.461 . S
C615 C614 1.474 . S
C616 C611 1.342 . S
C616 C614 1.285 . S
C616 H635 0.930 . S
C617 C620 1.424 . S
C617 C622 1.245 . S
C617 C623 1.428 . S
C618 C621 1.260 . S
C618 C622 1.477 . S
C618 H636 0.932 . S
C619 C620 1.384 . S
C619 C621 1.479 . S
C619 H637 0.929 . S
C620 C617 1.424 . S
C620 C619 1.384 . S
C620 H638 0.928 . S
C621 C618 1.260 . S
C621 C619 1.479 . S
C622 C617 1.245 . S
C622 C618 1.477 . S
C622 H639 0.932 . S
C623 U606 2.882 . S
C623 C617 1.428 . S
C623 O626 1.301 . S
C623 O627 1.282 . S
O624 U606 2.441 . S
O624 C610 1.249 . S
O625 U606 2.420 . S
O625 C610 1.202 . S
O626 U606 2.455 . S
O626 C623 1.301 . S
O627 U606 2.449 . S
O627 C623 1.282 . S
H628 C601 0.931 . S
H629 C603 0.929 . S
H630 C604 0.930 . S
H631 C605 0.931 . S
H632 C612 0.932 . S
H633 C613 0.930 . S
H634 C614 0.929 . S
H635 C616 0.930 . S
H636 C618 0.932 . S
H637 C619 0.929 . S
H638 C620 0.928 . S
H639 C622 0.932 . S
C21 C141 1.475 . S
C61 C15 1.498 . S
C55 C82 1.525 . S
C135 C95 1.518 . S
C301 C162 1.460 . S
C175 C221 1.495 . S
C261 C215 1.550 . S
C295 C255 1.527 . S
C461 C341 1.480 . S
C335 C381 1.503 . S
C402 C375 1.538 . S
C415 C455 1.527 . S
C482 C621 1.461 . S
C541 C495 1.492 . S
C535 C581 1.533 . S
C575 C615 1.524 . S
C181 C2 1.452 1_655 S
C522 C42 1.459 . S
C101 C242 1.634 1_545 S
C602 C122 1.500 . S
C362 C202 1.460 . S
C282 C442 1.502 . S
C501 C322 1.453 . S
C421 C562 1.650 1_655 S
