# Generated by pormake.
# Topology vby, (6)-cn, num edge types: 1
# Building blocks:
#     Node 0, Type 0, BuildingBlock: PAMTUU_clean_sbu_0, # of connection points: 6
#     Node 1, Type 0, BuildingBlock: PAMTUU_clean_sbu_0, # of connection points: 6
#     Node 2, Type 0, BuildingBlock: PAMTUU_clean_sbu_0, # of connection points: 6
#     Node 3, Type 0, BuildingBlock: PAMTUU_clean_sbu_0, # of connection points: 6
#     Node 4, Type 0, BuildingBlock: PAMTUU_clean_sbu_0, # of connection points: 6
#     Node 5, Type 0, BuildingBlock: PAMTUU_clean_sbu_0, # of connection points: 6
#     Node 6, Type 0, BuildingBlock: PAMTUU_clean_sbu_0, # of connection points: 6
#     Node 7, Type 0, BuildingBlock: PAMTUU_clean_sbu_0, # of connection points: 6
#     Edge 8, Type (0, 0), None
#     Edge 9, Type (0, 0), None
#     Edge 10, Type (0, 0), None
#     Edge 11, Type (0, 0), None
#     Edge 12, Type (0, 0), None
#     Edge 13, Type (0, 0), None
#     Edge 14, Type (0, 0), None
#     Edge 15, Type (0, 0), None
#     Edge 16, Type (0, 0), None
#     Edge 17, Type (0, 0), None
#     Edge 18, Type (0, 0), None
#     Edge 19, Type (0, 0), None
#     Edge 20, Type (0, 0), None
#     Edge 21, Type (0, 0), None
#     Edge 22, Type (0, 0), None
#     Edge 23, Type (0, 0), None
#     Edge 24, Type (0, 0), None
#     Edge 25, Type (0, 0), None
#     Edge 26, Type (0, 0), None
#     Edge 27, Type (0, 0), None
#     Edge 28, Type (0, 0), None
#     Edge 29, Type (0, 0), None
#     Edge 30, Type (0, 0), None
#     Edge 31, Type (0, 0), None
# Relax obj value: 0.135
# Max RMSD: 0.199
# Mean RMSD: 0.199
data_MOF--net-vby--node1-PAMTUU_clean_sbu_0--edge1-none
_symmetry_space_group_name_H-M    P1
_symmetry_Int_Tables_number       1
_symmetry_cell_setting            triclinic
loop_
_symmetry_equiv_pos_as_xyz
'x, y, z'
_cell_length_a     6.8281716
_cell_length_b     67.520791
_cell_length_c     13.34254
_cell_angle_alpha  89.987659
_cell_angle_beta   86.683019
_cell_angle_gamma 89.999843
loop_
_atom_site_label
_atom_site_type_symbol
_atom_site_fract_x
_atom_site_fract_y
_atom_site_fract_z
_atom_type_partial_charge
Tb0 Tb 1.05471 0.41219 0.05848 0.0
Tb1 Tb 1.05687 0.4624 0.05257 0.0
C2 C 0.07501 0.43599 0.85843 0.0
C3 C 0.13978 0.35572 0.05576 0.0
C4 C 0.28437 0.31684 0.02264 0.0
C5 C 0.26638 0.33001 0.94173 0.0
C6 C 0.19451 0.34925 0.95805 0.0
C7 C 0.16149 0.34274 0.13665 0.0
C8 C 0.23328 0.32355 0.12043 0.0
C9 C 1.0395 0.37486 0.07532 0.0
O10 O 0.36124 0.4203 0.06649 0.0
O11 O 0.36414 0.45425 0.03401 0.0
O12 O 0.14621 0.45281 0.19814 0.0
O13 O 0.96894 0.42414 0.20523 0.0
O14 O 0.11198 0.48917 0.97391 0.0
O15 O 1.00073 0.48902 0.12894 0.0
O16 O 0.75146 0.45386 0.07848 0.0
O17 O 0.75687 0.42079 0.03167 0.0
O18 O 0.14698 0.4209 0.90645 0.0
O19 O 0.99481 0.45137 0.90491 0.0
C20 C 0.45183 0.43732 0.05068 0.0
O21 O 0.11005 0.38657 0.14211 0.0
O22 O 0.97487 0.38468 -0.00036 0.0
C23 C 1.06714 0.43801 0.24903 0.0
C24 C 0.8995 0.51542 0.02876 0.0
C25 C 0.63151 0.54717 0.01745 0.0
C26 C 0.56527 0.52791 0.04208 0.0
C27 C 0.69769 0.51222 0.04759 0.0
C28 C 0.96539 0.5343 -0.00133 0.0
C29 C 0.83293 0.55005 -0.00684 0.0
C30 C 1.0431 0.49984 0.04958 0.0
C31 C 0.66447 0.4374 0.05305 0.0
H32 H 0.30736 0.32543 0.86559 0.0
H33 H 0.17837 0.35888 0.8941 0.0
H34 H 0.11739 0.34727 0.21257 0.0
H35 H 0.24305 0.31379 0.18437 0.0
H36 H 0.41133 0.52501 0.05959 0.0
H37 H 0.64293 0.49772 0.06999 0.0
H38 H 0.12018 0.53705 -0.01726 0.0
H39 H 0.8898 0.56464 0.97435 0.0
Tb40 Tb 0.0994 0.65174 0.05347 0.0
Tb41 Tb 0.10265 0.70196 0.05412 0.0
C42 C 0.08735 0.67693 0.85723 0.0
C43 C 0.23779 0.59726 0.04396 0.0
C44 C 0.49317 0.56431 0.02403 0.0
C45 C 0.51026 0.58019 0.95542 0.0
C46 C 0.38379 0.59655 0.96539 0.0
C47 C 0.21964 0.58141 0.11168 0.0
C48 C 0.34602 0.56519 0.10224 0.0
C49 C 0.10351 0.61425 0.05932 0.0
O50 O 0.40157 0.66011 0.07271 0.0
O51 O 0.40582 0.69316 0.02488 0.0
O52 O 0.177 0.69094 0.19963 0.0
O53 O 0.99698 0.66248 0.20032 0.0
O54 O 0.18928 0.72927 -0.01041 0.0
O55 O 1.03498 0.7278 0.13589 0.0
O56 O 0.79383 0.69374 0.06819 0.0
O57 O 0.79673 0.65981 0.03591 0.0
O58 O 0.17086 0.662 0.90143 0.0
O59 O 1.0221 0.69268 0.90633 0.0
C60 C 0.49349 0.67669 0.04908 0.0
O61 O 0.13499 0.62561 0.1356 0.0
O62 O 1.05799 0.62447 -0.01901 0.0
C63 C 0.08375 0.67664 0.24791 0.0
C64 C 1.00873 0.75815 0.04558 0.0
C65 C 0.85597 0.79674 0.02022 0.0
C66 C 0.80992 0.78596 0.10866 0.0
C67 C 0.88606 0.76696 0.12136 0.0
C68 C 1.05289 0.76882 0.95657 0.0
C69 C 0.97694 0.78785 0.94393 0.0
C70 C 0.11175 0.73935 0.06557 0.0
C71 C 0.7062 0.67681 0.05064 0.0
H72 H 0.62086 0.57996 0.8939 0.0
H73 H 0.40079 0.60864 0.91221 0.0
H74 H 0.10829 0.58167 0.17296 0.0
H75 H 0.33034 0.5535 0.15768 0.0
H76 H 0.71943 0.79244 0.16948 0.0
H77 H 0.85318 0.7594 0.19198 0.0
H78 H 0.14993 0.76265 0.89748 0.0
H79 H 1.01339 0.79563 0.87433 0.0
Tb80 Tb 1.05638 0.65086 0.55376 0.0
Tb81 Tb 1.05576 0.70109 0.55456 0.0
C82 C 1.06911 0.67611 0.74854 0.0
C83 C 0.89903 0.59775 0.53489 0.0
C84 C 0.63135 0.56595 0.52482 0.0
C85 C 0.56499 0.58521 0.54921 0.0
C86 C 0.69724 0.60094 0.55408 0.0
C87 C 0.96505 0.57885 0.50537 0.0
C88 C 0.83275 0.56307 0.50046 0.0
C89 C 1.04257 0.61342 0.55441 0.0
O90 O 0.75124 0.6594 0.57932 0.0
O91 O 0.75717 0.69234 0.53037 0.0
O92 O 0.15199 0.69145 0.40478 0.0
O93 O 0.99387 0.66134 0.40509 0.0
O94 O 0.11618 0.72755 0.62962 0.0
O95 O 0.96995 0.72793 0.49017 0.0
O96 O 0.36185 0.693 0.56425 0.0
O97 O 0.36396 0.65893 0.53511 0.0
O98 O 0.14498 0.66102 0.69845 0.0
O99 O 0.97514 0.69025 0.7043 0.0
C100 C 0.66455 0.67581 0.55306 0.0
O101 O 0.11187 0.62381 0.4778 0.0
O102 O 0.99995 0.62453 0.63268 0.0
C103 C 0.07701 0.67643 0.3576 0.0
C104 C 0.14356 0.75733 0.53206 0.0
C105 C 0.28813 0.79613 0.4942 0.0
C106 C 0.15751 0.78728 0.42977 0.0
C107 C 0.08551 0.76816 0.44874 0.0
C108 C 0.27771 0.76599 0.59515 0.0
C109 C 0.34959 0.78512 0.57623 0.0
C110 C 1.04223 0.73856 0.56087 0.0
C111 C 0.45199 0.6759 0.55048 0.0
H112 H 0.41105 0.58811 0.56681 0.0
H113 H 0.64236 0.61545 0.57609 0.0
H114 H 0.11981 0.57611 0.48925 0.0
H115 H 0.88971 0.54848 0.48188 0.0
H116 H 0.10538 0.79539 0.36652 0.0
H117 H 0.979 0.76213 0.39992 0.0
H118 H 0.32321 0.75822 0.66094 0.0
H119 H 0.45233 0.79135 0.62649 0.0
Tb120 Tb 0.1021 0.41122 0.55177 0.0
Tb121 Tb 0.0991 0.46144 0.55586 0.0
C122 C 0.08127 0.43573 0.74865 0.0
C123 C 1.0207 0.35521 0.52493 0.0
C124 C 0.86457 0.31713 0.49179 0.0
C125 C 0.74651 0.33213 0.53707 0.0
C126 C 0.82378 0.351 0.55354 0.0
C127 C 0.13669 0.34046 0.47703 0.0
C128 C 1.05966 0.32165 0.46041 0.0
C129 C 0.11611 0.37382 0.5539 0.0
O130 O 0.79319 0.41935 0.5666 0.0
O131 O 0.79599 0.45346 0.5389 0.0
O132 O 0.17043 0.4518 0.40272 0.0
O133 O 1.01896 0.42128 0.40586 0.0
O134 O 0.13624 0.48727 0.64015 0.0
O135 O 1.0553 0.48897 0.4863 0.0
O136 O 0.40107 0.45309 0.57493 0.0
O137 O 0.40526 0.42019 0.52491 0.0
O138 O 0.17135 0.42124 0.70002 0.0
O139 O 0.99687 0.45013 0.70164 0.0
C140 C 0.70551 0.4364 0.55175 0.0
O141 O 0.19958 0.38467 0.48257 0.0
O142 O 1.02913 0.38452 0.62489 0.0
C143 C 0.08556 0.43706 0.35764 0.0
C144 C 0.23709 0.51591 0.55034 0.0
C145 C 0.49302 0.54882 0.53125 0.0
C146 C 0.51029 0.53297 0.46247 0.0
C147 C 0.38358 0.51663 0.47203 0.0
C148 C 0.21883 0.5317 0.61832 0.0
C149 C 0.3455 0.54791 0.60927 0.0
C150 C 0.10278 0.49891 0.56518 0.0
C151 C 0.49285 0.43656 0.55045 0.0
H152 H 0.59466 0.32925 0.5605 0.0
H153 H 0.73087 0.36209 0.59073 0.0
H154 H 0.28955 0.34329 0.45531 0.0
H155 H 0.15526 0.31044 0.42612 0.0
H156 H 0.62119 0.53322 0.40109 0.0
H157 H 0.40073 0.50456 0.41873 0.0
H158 H 0.10719 0.53141 0.67946 0.0
H159 H 0.32969 0.55958 0.66484 0.0
Tb160 Tb 0.54019 0.91123 0.94756 0.0
Tb161 Tb 0.54319 0.96145 0.94338 0.0
C162 C 0.561 0.93573 0.75063 0.0
C163 C 0.62159 0.85521 0.97446 0.0
C164 C 0.77773 0.81713 0.00755 0.0
C165 C 0.8958 0.83214 0.96233 0.0
C166 C 0.81853 0.85101 0.94587 0.0
C167 C 0.50558 0.84045 0.02231 0.0
C168 C 0.58262 0.82164 0.03891 0.0
C169 C 0.52617 0.87382 0.94549 0.0
O170 O 0.8491 0.91936 0.93273 0.0
O171 O 0.84631 0.95346 0.96033 0.0
O172 O 0.47184 0.9518 0.09653 0.0
O173 O 0.62333 0.92129 0.09345 0.0
O174 O 0.5059 0.98728 0.85907 0.0
O175 O 0.58715 0.98897 0.01288 0.0
O176 O 0.24123 0.95309 0.92433 0.0
O177 O 0.23703 0.9202 0.9744 0.0
O178 O 0.47097 0.92125 0.79929 0.0
O179 O 0.64543 0.95014 0.79761 0.0
C180 C 0.93679 0.93641 0.94753 0.0
O181 O 0.44276 0.88468 0.01682 0.0
O182 O 0.61311 0.88453 0.87447 0.0
C183 C 0.55667 0.93707 0.14165 0.0
C184 C 0.40523 1.01591 0.94891 0.0
C185 C 0.14932 1.04882 0.9681 0.0
C186 C 0.13205 1.03296 0.03683 0.0
C187 C 0.25875 1.01662 0.02722 0.0
C188 C 0.42349 1.03172 0.88098 0.0
C189 C 0.29684 1.04793 0.89008 0.0
C190 C 0.53952 0.99892 0.93401 0.0
C191 C 0.14944 0.93656 0.94883 0.0
H192 H 1.04767 0.82926 0.93891 0.0
H193 H 0.91145 0.8621 0.90871 0.0
H194 H 0.35271 0.84328 0.04401 0.0
H195 H 0.487 0.81043 0.07316 0.0
H196 H 1.02115 1.0332 0.09822 0.0
H197 H 0.24159 1.00454 0.08048 0.0
H198 H 0.53512 1.03144 0.81983 0.0
H199 H 0.31264 0.05961 0.83455 0.0
Tb200 Tb 0.58595 0.15086 0.94568 0.0
Tb201 Tb 0.58658 0.20109 0.94478 0.0
C202 C 0.5732 0.17611 0.75085 0.0
C203 C 0.74329 0.09776 0.9646 0.0
C204 C 1.01099 0.06595 0.97458 0.0
C205 C 0.07734 0.08522 0.95025 0.0
C206 C 0.94507 0.10095 0.94542 0.0
C207 C 0.67728 0.07885 -0.00593 0.0
C208 C 0.80959 0.06307 -0.00106 0.0
C209 C 0.59974 0.11343 0.94509 0.0
O210 O 0.89109 0.15941 0.92011 0.0
O211 O 0.88517 0.19235 0.96898 0.0
O212 O 0.49036 0.19145 0.09458 0.0
O213 O 0.64847 0.16134 0.09433 0.0
O214 O 0.52609 0.22755 0.86969 0.0
O215 O 0.67245 0.22794 0.0091 0.0
O216 O 0.28048 0.19301 0.93509 0.0
O217 O 0.27837 0.15893 0.96433 0.0
O218 O 0.49737 0.16103 0.80097 0.0
O219 O 0.66722 0.19026 0.79506 0.0
C220 C 0.97778 0.17581 0.94633 0.0
O221 O 0.53052 0.12381 0.0217 0.0
O222 O 0.64231 0.12453 0.8668 0.0
C223 C 0.56528 0.17645 0.14179 0.0
C224 C 0.49878 0.25734 0.96722 0.0
C225 C 0.35421 0.29613 0.00512 0.0
C226 C 0.48473 0.28727 0.06957 0.0
C227 C 0.55675 0.26815 0.05059 0.0
C228 C 0.36472 0.26601 0.90411 0.0
C229 C 0.29283 0.28513 0.92305 0.0
C230 C 0.60011 0.23857 0.93842 0.0
C231 C 0.19034 0.17591 0.94891 0.0
H232 H 0.23127 0.08812 0.93266 0.0
H233 H 0.99995 0.11546 0.92344 0.0
H234 H 0.52252 0.07611 0.01019 0.0
H235 H 0.75263 1.04847 0.01748 0.0
H236 H 0.53681 0.29537 0.13287 0.0
H237 H 0.66318 0.26211 0.09942 0.0
H238 H 0.31927 0.25825 0.83829 0.0
H239 H 0.19016 0.29137 0.87277 0.0
Tb240 Tb 0.54296 0.15175 0.44596 0.0
Tb241 Tb 0.53971 0.20196 0.44521 0.0
C242 C 0.55508 0.17694 0.64215 0.0
C243 C 0.40454 0.09726 0.45546 0.0
C244 C 0.14914 0.06431 0.47527 0.0
C245 C 0.13205 0.08018 0.54393 0.0
C246 C 0.25853 0.09654 0.53403 0.0
C247 C 0.42269 0.08143 0.38769 0.0
C248 C 0.29629 0.06521 0.39707 0.0
C249 C 0.53885 0.11425 0.44016 0.0
O250 O 0.24078 0.16011 0.4267 0.0
O251 O 0.23654 0.19317 0.47448 0.0
O252 O 0.46534 0.19095 0.29973 0.0
O253 O 0.64537 0.1625 0.29909 0.0
O254 O 0.45301 0.22928 0.50969 0.0
O255 O 0.60745 0.22781 0.36342 0.0
O256 O 0.84852 0.19375 0.43116 0.0
O257 O 0.84562 0.15981 0.46353 0.0
O258 O 0.47151 0.162 0.59798 0.0
O259 O 0.62025 0.19268 0.59302 0.0
C260 C 0.14887 0.1767 0.45031 0.0
O261 O 0.50753 0.12562 0.36384 0.0
O262 O 0.58421 0.12448 0.51851 0.0
C263 C 0.55865 0.17664 0.25148 0.0
C264 C 0.63361 0.25816 0.45371 0.0
C265 C 0.78634 0.29674 0.4791 0.0
C266 C 0.83231 0.28598 0.39062 0.0
C267 C 0.75618 0.26698 0.37791 0.0
C268 C 0.58953 0.2688 0.54275 0.0
C269 C 0.66546 0.28784 0.5554 0.0
C270 C 0.53061 0.23935 0.43371 0.0
C271 C 0.93616 0.17681 0.44876 0.0
H272 H 1.02144 0.07994 0.60545 0.0
H273 H 0.24153 0.10862 0.58724 0.0
H274 H 0.53404 0.0817 0.32641 0.0
H275 H 0.31198 1.05353 0.34159 0.0
H276 H 0.92273 0.29246 0.3298 0.0
H277 H 0.78899 0.25943 0.30727 0.0
H278 H 0.49256 0.26263 0.60186 0.0
H279 H 0.62908 0.29561 0.62503 0.0
Tb280 Tb 0.58761 0.9122 0.44085 0.0
Tb281 Tb 0.58545 0.96241 0.44665 0.0
C282 C 0.56733 0.936 0.64085 0.0
C283 C 0.50253 0.85573 0.44362 0.0
C284 C 0.35795 0.81684 0.4767 0.0
C285 C 0.37603 0.83 0.55763 0.0
C286 C 0.44789 0.84924 0.54133 0.0
C287 C 0.48073 0.84276 0.36271 0.0
C288 C 0.40895 0.82357 0.37891 0.0
C289 C 0.60282 0.87487 0.42407 0.0
O290 O 0.28107 0.9203 0.43283 0.0
O291 O 0.27817 0.95426 0.46522 0.0
O292 O 0.49609 0.95282 0.30111 0.0
O293 O 0.67336 0.92415 0.29407 0.0
O294 O 0.53029 0.98918 0.52525 0.0
O295 O 0.64165 0.98903 0.37025 0.0
O296 O 0.89086 0.95386 0.42076 0.0
O297 O 0.88544 0.92079 0.46765 0.0
O298 O 0.49533 0.9209 0.59286 0.0
O299 O 0.6475 0.95138 0.59434 0.0
C300 C 0.19049 0.93732 0.4486 0.0
O301 O 0.53233 0.88658 0.35725 0.0
O302 O 0.66737 0.88468 0.49975 0.0
C303 C 0.57519 0.93801 0.25025 0.0
C304 C 0.74282 1.01543 0.47042 0.0
C305 C 1.0108 1.04718 0.4818 0.0
C306 C 0.07705 1.02792 0.45712 0.0
C307 C 0.94464 1.01222 0.45157 0.0
C308 C 0.67693 1.0343 0.50055 0.0
C309 C 0.80939 1.05005 0.50609 0.0
C310 C 0.59923 0.99984 0.44959 0.0
C311 C 0.97784 0.93741 0.44623 0.0
H312 H 0.33512 0.82541 0.63376 0.0
H313 H 0.4641 0.85886 0.60528 0.0
H314 H 0.52476 0.8473 0.28678 0.0
H315 H 0.39911 0.81381 0.31495 0.0
H316 H 0.23099 1.02502 0.43961 0.0
H317 H 0.99941 0.99773 0.42914 0.0
H318 H 0.52214 1.03705 0.5165 0.0
H319 H 0.7525 0.06464 0.52494 0.0
loop_
_geom_bond_atom_site_label_1
_geom_bond_atom_site_label_2
_geom_bond_distance
_geom_bond_site_symmetry_2
_ccdc_geom_bond_type
Tb0 C9 2.764 . S
Tb0 O10 2.325 1_554 S
Tb0 O13 2.303 . S
Tb0 O17 2.322 1_455 S
Tb0 O18 2.349 1_554 S
Tb0 O21 2.415 . S
Tb0 O22 2.399 1_554 S
Tb1 O11 2.322 . S
Tb1 O12 2.349 . S
Tb1 O14 2.415 1_454 S
Tb1 O15 2.399 1_455 S
Tb1 O16 2.325 1_455 S
Tb1 O19 2.303 1_554 S
Tb1 C30 2.764 1_455 S
C2 O18 1.261 . S
C2 O19 1.257 . S
C3 C6 1.358 1_554 S
C3 C7 1.332 . S
C3 C9 1.504 . S
C4 C5 1.373 1_554 S
C4 C8 1.308 . S
C5 C4 1.373 1_556 S
C5 C6 1.429 . S
C5 H32 0.932 . S
C6 C3 1.358 1_556 S
C6 C5 1.429 . S
C6 H33 0.930 . S
C7 C3 1.332 . S
C7 C8 1.394 . S
C7 H34 0.932 . S
C8 C4 1.308 . S
C8 C7 1.394 . S
C8 H35 0.929 . S
C9 Tb0 2.764 . S
C9 C3 1.504 . S
C9 O21 1.239 . S
C9 O22 1.263 1_554 S
O10 Tb0 2.325 1_556 S
O10 C20 1.236 1_556 S
O11 Tb1 2.322 . S
O11 C20 1.257 . S
O12 Tb1 2.349 . S
O12 C23 1.261 . S
O13 Tb0 2.303 . S
O13 C23 1.257 . S
O14 Tb1 2.415 1_656 S
O14 C30 1.239 1_556 S
O15 Tb1 2.399 1_655 S
O15 C30 1.263 . S
O16 Tb1 2.325 1_655 S
O16 C31 1.236 . S
O17 Tb0 2.322 1_655 S
O17 C31 1.257 . S
O18 Tb0 2.349 1_556 S
O18 C2 1.261 . S
O19 Tb1 2.303 1_556 S
O19 C2 1.257 . S
C20 O10 1.236 1_554 S
C20 O11 1.257 . S
O21 Tb0 2.415 . S
O21 C9 1.239 . S
O22 Tb0 2.399 1_556 S
O22 C9 1.263 1_556 S
C23 O12 1.261 . S
C23 O13 1.257 . S
C24 C27 1.358 . S
C24 C28 1.332 1_554 S
C24 C30 1.504 . S
C25 C26 1.373 1_556 S
C25 C29 1.308 . S
C26 C25 1.373 1_554 S
C26 C27 1.429 . S
C26 H36 0.932 . S
C27 C24 1.358 . S
C27 C26 1.429 . S
C27 H37 0.930 . S
C28 C24 1.332 1_556 S
C28 C29 1.394 . S
C28 H38 0.932 . S
C29 C25 1.308 . S
C29 C28 1.394 . S
C29 H39 0.929 . S
C30 Tb1 2.764 1_655 S
C30 O14 1.239 1_554 S
C30 O15 1.263 . S
C30 C24 1.504 . S
C31 O16 1.236 . S
C31 O17 1.257 . S
H32 C5 0.932 . S
H33 C6 0.930 . S
H34 C7 0.932 . S
H35 C8 0.929 . S
H36 C26 0.932 . S
H37 C27 0.930 . S
H38 C28 0.932 . S
H39 C29 0.929 . S
Tb40 C49 2.764 1_655 S
Tb40 O50 2.325 1_654 S
Tb40 O53 2.303 . S
Tb40 O57 2.322 . S
Tb40 O58 2.349 1_554 S
Tb40 O61 2.415 1_655 S
Tb40 O62 2.399 1_654 S
Tb41 O51 2.322 1_655 S
Tb41 O52 2.349 . S
Tb41 O54 2.415 1_554 S
Tb41 O55 2.399 . S
Tb41 O56 2.325 . S
Tb41 O59 2.303 1_554 S
Tb41 C70 2.764 . S
C42 O58 1.261 . S
C42 O59 1.257 . S
C43 C46 1.358 1_554 S
C43 C47 1.332 . S
C43 C49 1.504 . S
C44 C45 1.373 1_554 S
C44 C48 1.308 . S
C45 C44 1.373 1_556 S
C45 C46 1.429 . S
C45 H72 0.932 . S
C46 C43 1.358 1_556 S
C46 C45 1.429 . S
C46 H73 0.930 . S
C47 C43 1.332 . S
C47 C48 1.394 . S
C47 H74 0.932 . S
C48 C44 1.308 . S
C48 C47 1.394 . S
C48 H75 0.929 . S
C49 Tb40 2.764 1_455 S
C49 C43 1.504 . S
C49 O61 1.239 . S
C49 O62 1.263 1_554 S
O50 Tb40 2.325 1_456 S
O50 C60 1.236 1_556 S
O51 Tb41 2.322 1_455 S
O51 C60 1.257 . S
O52 Tb41 2.349 . S
O52 C63 1.261 . S
O53 Tb40 2.303 . S
O53 C63 1.257 . S
O54 Tb41 2.415 1_556 S
O54 C70 1.239 1_556 S
O55 Tb41 2.399 . S
O55 C70 1.263 . S
O56 Tb41 2.325 . S
O56 C71 1.236 . S
O57 Tb40 2.322 . S
O57 C71 1.257 . S
O58 Tb40 2.349 1_556 S
O58 C42 1.261 . S
O59 Tb41 2.303 1_556 S
O59 C42 1.257 . S
C60 O50 1.236 1_554 S
C60 O51 1.257 . S
O61 Tb40 2.415 1_455 S
O61 C49 1.239 . S
O62 Tb40 2.399 1_456 S
O62 C49 1.263 1_556 S
C63 O52 1.261 . S
C63 O53 1.257 . S
C64 C67 1.358 . S
C64 C68 1.332 1_554 S
C64 C70 1.504 . S
C65 C66 1.373 1_556 S
C65 C69 1.308 . S
C66 C65 1.373 1_554 S
C66 C67 1.429 . S
C66 H76 0.932 . S
C67 C64 1.358 . S
C67 C66 1.429 . S
C67 H77 0.930 . S
C68 C64 1.332 1_556 S
C68 C69 1.394 . S
C68 H78 0.932 . S
C69 C65 1.308 . S
C69 C68 1.394 . S
C69 H79 0.929 . S
C70 Tb41 2.764 . S
C70 O54 1.239 1_554 S
C70 O55 1.263 . S
C70 C64 1.504 . S
C71 O56 1.236 . S
C71 O57 1.257 . S
H72 C45 0.932 . S
H73 C46 0.930 . S
H74 C47 0.932 . S
H75 C48 0.929 . S
H76 C66 0.932 . S
H77 C67 0.930 . S
H78 C68 0.932 . S
H79 C69 0.929 . S
Tb80 C89 2.764 1_455 S
Tb80 O90 2.325 1_455 S
Tb80 O93 2.303 . S
Tb80 O97 2.322 . S
Tb80 O98 2.349 . S
Tb80 O101 2.415 1_455 S
Tb80 O102 2.399 1_455 S
Tb81 O91 2.322 1_455 S
Tb81 O92 2.349 . S
Tb81 O94 2.415 . S
Tb81 O95 2.399 . S
Tb81 O96 2.325 . S
Tb81 O99 2.303 . S
Tb81 C110 2.764 . S
C82 O98 1.261 . S
C82 O99 1.257 . S
C83 C86 1.358 . S
C83 C87 1.332 . S
C83 C89 1.504 . S
C84 C85 1.373 . S
C84 C88 1.308 . S
C85 C84 1.373 . S
C85 C86 1.429 . S
C85 H112 0.932 . S
C86 C83 1.358 . S
C86 C85 1.429 . S
C86 H113 0.930 . S
C87 C83 1.332 . S
C87 C88 1.394 . S
C87 H114 0.932 . S
C88 C84 1.308 . S
C88 C87 1.394 . S
C88 H115 0.929 . S
C89 Tb80 2.764 1_655 S
C89 C83 1.504 . S
C89 O101 1.239 . S
C89 O102 1.263 . S
O90 Tb80 2.325 1_655 S
O90 C100 1.236 . S
O91 Tb81 2.322 1_655 S
O91 C100 1.257 . S
O92 Tb81 2.349 . S
O92 C103 1.261 . S
O93 Tb80 2.303 . S
O93 C103 1.257 . S
O94 Tb81 2.415 . S
O94 C110 1.239 . S
O95 Tb81 2.399 . S
O95 C110 1.263 . S
O96 Tb81 2.325 . S
O96 C111 1.236 . S
O97 Tb80 2.322 . S
O97 C111 1.257 . S
O98 Tb80 2.349 . S
O98 C82 1.261 . S
O99 Tb81 2.303 . S
O99 C82 1.257 . S
C100 O90 1.236 . S
C100 O91 1.257 . S
O101 Tb80 2.415 1_655 S
O101 C89 1.239 . S
O102 Tb80 2.399 1_655 S
O102 C89 1.263 . S
C103 O92 1.261 . S
C103 O93 1.257 . S
C104 C107 1.358 . S
C104 C108 1.332 . S
C104 C110 1.504 . S
C105 C106 1.373 . S
C105 C109 1.308 . S
C106 C105 1.373 . S
C106 C107 1.429 . S
C106 H116 0.932 . S
C107 C104 1.358 . S
C107 C106 1.429 . S
C107 H117 0.930 . S
C108 C104 1.332 . S
C108 C109 1.394 . S
C108 H118 0.932 . S
C109 C105 1.308 . S
C109 C108 1.394 . S
C109 H119 0.929 . S
C110 Tb81 2.764 . S
C110 O94 1.239 . S
C110 O95 1.263 . S
C110 C104 1.504 . S
C111 O96 1.236 . S
C111 O97 1.257 . S
H112 C85 0.932 . S
H113 C86 0.930 . S
H114 C87 0.932 . S
H115 C88 0.929 . S
H116 C106 0.932 . S
H117 C107 0.930 . S
H118 C108 0.932 . S
H119 C109 0.929 . S
Tb120 C129 2.764 . S
Tb120 O130 2.325 . S
Tb120 O133 2.303 . S
Tb120 O137 2.322 1_655 S
Tb120 O138 2.349 . S
Tb120 O141 2.415 . S
Tb120 O142 2.399 . S
Tb121 O131 2.322 . S
Tb121 O132 2.349 . S
Tb121 O134 2.415 1_655 S
Tb121 O135 2.399 1_655 S
Tb121 O136 2.325 1_655 S
Tb121 O139 2.303 . S
Tb121 C150 2.764 1_655 S
C122 O138 1.261 . S
C122 O139 1.257 . S
C123 C126 1.358 . S
C123 C127 1.332 . S
C123 C129 1.504 . S
C124 C125 1.373 . S
C124 C128 1.308 . S
C125 C124 1.373 . S
C125 C126 1.429 . S
C125 H152 0.932 . S
C126 C123 1.358 . S
C126 C125 1.429 . S
C126 H153 0.930 . S
C127 C123 1.332 . S
C127 C128 1.394 . S
C127 H154 0.932 . S
C128 C124 1.308 . S
C128 C127 1.394 . S
C128 H155 0.929 . S
C129 Tb120 2.764 . S
C129 C123 1.504 . S
C129 O141 1.239 . S
C129 O142 1.263 . S
O130 Tb120 2.325 . S
O130 C140 1.236 . S
O131 Tb121 2.322 . S
O131 C140 1.257 . S
O132 Tb121 2.349 . S
O132 C143 1.261 . S
O133 Tb120 2.303 . S
O133 C143 1.257 . S
O134 Tb121 2.415 1_455 S
O134 C150 1.239 . S
O135 Tb121 2.399 1_455 S
O135 C150 1.263 . S
O136 Tb121 2.325 1_455 S
O136 C151 1.236 . S
O137 Tb120 2.322 1_455 S
O137 C151 1.257 . S
O138 Tb120 2.349 . S
O138 C122 1.261 . S
O139 Tb121 2.303 . S
O139 C122 1.257 . S
C140 O130 1.236 . S
C140 O131 1.257 . S
O141 Tb120 2.415 . S
O141 C129 1.239 . S
O142 Tb120 2.399 . S
O142 C129 1.263 . S
C143 O132 1.261 . S
C143 O133 1.257 . S
C144 C147 1.358 . S
C144 C148 1.332 . S
C144 C150 1.504 . S
C145 C146 1.373 . S
C145 C149 1.308 . S
C146 C145 1.373 . S
C146 C147 1.429 . S
C146 H156 0.932 . S
C147 C144 1.358 . S
C147 C146 1.429 . S
C147 H157 0.930 . S
C148 C144 1.332 . S
C148 C149 1.394 . S
C148 H158 0.932 . S
C149 C145 1.308 . S
C149 C148 1.394 . S
C149 H159 0.929 . S
C150 Tb121 2.764 1_455 S
C150 O134 1.239 . S
C150 O135 1.263 . S
C150 C144 1.504 . S
C151 O136 1.236 . S
C151 O137 1.257 . S
H152 C125 0.932 . S
H153 C126 0.930 . S
H154 C127 0.932 . S
H155 C128 0.929 . S
H156 C146 0.932 . S
H157 C147 0.930 . S
H158 C148 0.932 . S
H159 C149 0.929 . S
Tb160 C169 2.764 . S
Tb160 O170 2.325 1_554 S
Tb160 O173 2.303 . S
Tb160 O177 2.322 . S
Tb160 O178 2.349 1_554 S
Tb160 O181 2.415 . S
Tb160 O182 2.399 1_554 S
Tb161 O171 2.322 . S
Tb161 O172 2.349 . S
Tb161 O174 2.415 1_554 S
Tb161 O175 2.399 . S
Tb161 O176 2.325 . S
Tb161 O179 2.303 1_554 S
Tb161 C190 2.764 . S
C162 O178 1.261 . S
C162 O179 1.257 . S
C163 C166 1.358 1_554 S
C163 C167 1.332 . S
C163 C169 1.504 . S
C164 C165 1.373 1_554 S
C164 C168 1.308 . S
C165 C164 1.373 1_556 S
C165 C166 1.429 . S
C165 H192 0.932 . S
C166 C163 1.358 1_556 S
C166 C165 1.429 . S
C166 H193 0.930 . S
C167 C163 1.332 . S
C167 C168 1.394 . S
C167 H194 0.932 . S
C168 C164 1.308 . S
C168 C167 1.394 . S
C168 H195 0.929 . S
C169 Tb160 2.764 . S
C169 C163 1.504 . S
C169 O181 1.239 . S
C169 O182 1.263 1_554 S
O170 Tb160 2.325 1_556 S
O170 C180 1.236 1_556 S
O171 Tb161 2.322 . S
O171 C180 1.257 . S
O172 Tb161 2.349 . S
O172 C183 1.261 . S
O173 Tb160 2.303 . S
O173 C183 1.257 . S
O174 Tb161 2.415 1_556 S
O174 C190 1.239 1_556 S
O175 Tb161 2.399 . S
O175 C190 1.263 . S
O176 Tb161 2.325 . S
O176 C191 1.236 . S
O177 Tb160 2.322 . S
O177 C191 1.257 . S
O178 Tb160 2.349 1_556 S
O178 C162 1.261 . S
O179 Tb161 2.303 1_556 S
O179 C162 1.257 . S
C180 O170 1.236 1_554 S
C180 O171 1.257 . S
O181 Tb160 2.415 . S
O181 C169 1.239 . S
O182 Tb160 2.399 1_556 S
O182 C169 1.263 1_556 S
C183 O172 1.261 . S
C183 O173 1.257 . S
C184 C187 1.358 . S
C184 C188 1.332 1_554 S
C184 C190 1.504 . S
C185 C186 1.373 1_556 S
C185 C189 1.308 . S
C186 C185 1.373 1_554 S
C186 C187 1.429 . S
C186 H196 0.932 . S
C187 C184 1.358 . S
C187 C186 1.429 . S
C187 H197 0.930 . S
C188 C184 1.332 1_556 S
C188 C189 1.394 . S
C188 H198 0.932 . S
C189 C185 1.308 . S
C189 C188 1.394 . S
C189 H199 0.929 . S
C190 Tb161 2.764 . S
C190 O174 1.239 1_554 S
C190 O175 1.263 . S
C190 C184 1.504 . S
C191 O176 1.236 . S
C191 O177 1.257 . S
H192 C165 0.932 . S
H193 C166 0.930 . S
H194 C167 0.932 . S
H195 C168 0.929 . S
H196 C186 0.932 . S
H197 C187 0.930 . S
H198 C188 0.932 . S
H199 C189 0.929 . S
Tb200 C209 2.764 . S
Tb200 O210 2.325 1_554 S
Tb200 O213 2.303 . S
Tb200 O217 2.322 . S
Tb200 O218 2.349 1_554 S
Tb200 O221 2.415 . S
Tb200 O222 2.399 1_554 S
Tb201 O211 2.322 . S
Tb201 O212 2.349 . S
Tb201 O214 2.415 1_554 S
Tb201 O215 2.399 . S
Tb201 O216 2.325 . S
Tb201 O219 2.303 1_554 S
Tb201 C230 2.764 . S
C202 O218 1.261 . S
C202 O219 1.257 . S
C203 C206 1.358 1_554 S
C203 C207 1.332 . S
C203 C209 1.504 . S
C204 C205 1.373 1_554 S
C204 C208 1.308 . S
C205 C204 1.373 1_556 S
C205 C206 1.429 . S
C205 H232 0.932 . S
C206 C203 1.358 1_556 S
C206 C205 1.429 . S
C206 H233 0.930 . S
C207 C203 1.332 . S
C207 C208 1.394 . S
C207 H234 0.932 . S
C208 C204 1.308 . S
C208 C207 1.394 . S
C208 H235 0.929 . S
C209 Tb200 2.764 . S
C209 C203 1.504 . S
C209 O221 1.239 . S
C209 O222 1.263 1_554 S
O210 Tb200 2.325 1_556 S
O210 C220 1.236 1_556 S
O211 Tb201 2.322 . S
O211 C220 1.257 . S
O212 Tb201 2.349 . S
O212 C223 1.261 . S
O213 Tb200 2.303 . S
O213 C223 1.257 . S
O214 Tb201 2.415 1_556 S
O214 C230 1.239 1_556 S
O215 Tb201 2.399 . S
O215 C230 1.263 . S
O216 Tb201 2.325 . S
O216 C231 1.236 . S
O217 Tb200 2.322 . S
O217 C231 1.257 . S
O218 Tb200 2.349 1_556 S
O218 C202 1.261 . S
O219 Tb201 2.303 1_556 S
O219 C202 1.257 . S
C220 O210 1.236 1_554 S
C220 O211 1.257 . S
O221 Tb200 2.415 . S
O221 C209 1.239 . S
O222 Tb200 2.399 1_556 S
O222 C209 1.263 1_556 S
C223 O212 1.261 . S
C223 O213 1.257 . S
C224 C227 1.358 . S
C224 C228 1.332 1_554 S
C224 C230 1.504 . S
C225 C226 1.373 1_556 S
C225 C229 1.308 . S
C226 C225 1.373 1_554 S
C226 C227 1.429 . S
C226 H236 0.932 . S
C227 C224 1.358 . S
C227 C226 1.429 . S
C227 H237 0.930 . S
C228 C224 1.332 1_556 S
C228 C229 1.394 . S
C228 H238 0.932 . S
C229 C225 1.308 . S
C229 C228 1.394 . S
C229 H239 0.929 . S
C230 Tb201 2.764 . S
C230 O214 1.239 1_554 S
C230 O215 1.263 . S
C230 C224 1.504 . S
C231 O216 1.236 . S
C231 O217 1.257 . S
H232 C205 0.932 . S
H233 C206 0.930 . S
H234 C207 0.932 . S
H235 C208 0.929 . S
H236 C226 0.932 . S
H237 C227 0.930 . S
H238 C228 0.932 . S
H239 C229 0.929 . S
Tb240 C249 2.764 . S
Tb240 O250 2.325 . S
Tb240 O253 2.303 . S
Tb240 O257 2.322 . S
Tb240 O258 2.349 . S
Tb240 O261 2.415 . S
Tb240 O262 2.399 . S
Tb241 O251 2.322 . S
Tb241 O252 2.349 . S
Tb241 O254 2.415 . S
Tb241 O255 2.399 . S
Tb241 O256 2.325 . S
Tb241 O259 2.303 . S
Tb241 C270 2.764 . S
C242 O258 1.261 . S
C242 O259 1.257 . S
C243 C246 1.358 . S
C243 C247 1.332 . S
C243 C249 1.504 . S
C244 C245 1.373 . S
C244 C248 1.308 . S
C245 C244 1.373 . S
C245 C246 1.429 . S
C245 H272 0.932 . S
C246 C243 1.358 . S
C246 C245 1.429 . S
C246 H273 0.930 . S
C247 C243 1.332 . S
C247 C248 1.394 . S
C247 H274 0.932 . S
C248 C244 1.308 . S
C248 C247 1.394 . S
C248 H275 0.929 . S
C249 Tb240 2.764 . S
C249 C243 1.504 . S
C249 O261 1.239 . S
C249 O262 1.263 . S
O250 Tb240 2.325 . S
O250 C260 1.236 . S
O251 Tb241 2.322 . S
O251 C260 1.257 . S
O252 Tb241 2.349 . S
O252 C263 1.261 . S
O253 Tb240 2.303 . S
O253 C263 1.257 . S
O254 Tb241 2.415 . S
O254 C270 1.239 . S
O255 Tb241 2.399 . S
O255 C270 1.263 . S
O256 Tb241 2.325 . S
O256 C271 1.236 . S
O257 Tb240 2.322 . S
O257 C271 1.257 . S
O258 Tb240 2.349 . S
O258 C242 1.261 . S
O259 Tb241 2.303 . S
O259 C242 1.257 . S
C260 O250 1.236 . S
C260 O251 1.257 . S
O261 Tb240 2.415 . S
O261 C249 1.239 . S
O262 Tb240 2.399 . S
O262 C249 1.263 . S
C263 O252 1.261 . S
C263 O253 1.257 . S
C264 C267 1.358 . S
C264 C268 1.332 . S
C264 C270 1.504 . S
C265 C266 1.373 . S
C265 C269 1.308 . S
C266 C265 1.373 . S
C266 C267 1.429 . S
C266 H276 0.932 . S
C267 C264 1.358 . S
C267 C266 1.429 . S
C267 H277 0.930 . S
C268 C264 1.332 . S
C268 C269 1.394 . S
C268 H278 0.932 . S
C269 C265 1.308 . S
C269 C268 1.394 . S
C269 H279 0.929 . S
C270 Tb241 2.764 . S
C270 O254 1.239 . S
C270 O255 1.263 . S
C270 C264 1.504 . S
C271 O256 1.236 . S
C271 O257 1.257 . S
H272 C245 0.932 . S
H273 C246 0.930 . S
H274 C247 0.932 . S
H275 C248 0.929 . S
H276 C266 0.932 . S
H277 C267 0.930 . S
H278 C268 0.932 . S
H279 C269 0.929 . S
Tb280 C289 2.764 . S
Tb280 O290 2.325 . S
Tb280 O293 2.303 . S
Tb280 O297 2.322 . S
Tb280 O298 2.349 . S
Tb280 O301 2.415 . S
Tb280 O302 2.399 . S
Tb281 O291 2.322 . S
Tb281 O292 2.349 . S
Tb281 O294 2.415 . S
Tb281 O295 2.399 . S
Tb281 O296 2.325 . S
Tb281 O299 2.303 . S
Tb281 C310 2.764 . S
C282 O298 1.261 . S
C282 O299 1.257 . S
C283 C286 1.358 . S
C283 C287 1.332 . S
C283 C289 1.504 . S
C284 C285 1.373 . S
C284 C288 1.308 . S
C285 C284 1.373 . S
C285 C286 1.429 . S
C285 H312 0.932 . S
C286 C283 1.358 . S
C286 C285 1.429 . S
C286 H313 0.930 . S
C287 C283 1.332 . S
C287 C288 1.394 . S
C287 H314 0.932 . S
C288 C284 1.308 . S
C288 C287 1.394 . S
C288 H315 0.929 . S
C289 Tb280 2.764 . S
C289 C283 1.504 . S
C289 O301 1.239 . S
C289 O302 1.263 . S
O290 Tb280 2.325 . S
O290 C300 1.236 . S
O291 Tb281 2.322 . S
O291 C300 1.257 . S
O292 Tb281 2.349 . S
O292 C303 1.261 . S
O293 Tb280 2.303 . S
O293 C303 1.257 . S
O294 Tb281 2.415 . S
O294 C310 1.239 . S
O295 Tb281 2.399 . S
O295 C310 1.263 . S
O296 Tb281 2.325 . S
O296 C311 1.236 . S
O297 Tb280 2.322 . S
O297 C311 1.257 . S
O298 Tb280 2.349 . S
O298 C282 1.261 . S
O299 Tb281 2.303 . S
O299 C282 1.257 . S
C300 O290 1.236 . S
C300 O291 1.257 . S
O301 Tb280 2.415 . S
O301 C289 1.239 . S
O302 Tb280 2.399 . S
O302 C289 1.263 . S
C303 O292 1.261 . S
C303 O293 1.257 . S
C304 C307 1.358 . S
C304 C308 1.332 . S
C304 C310 1.504 . S
C305 C306 1.373 . S
C305 C309 1.308 . S
C306 C305 1.373 . S
C306 C307 1.429 . S
C306 H316 0.932 . S
C307 C304 1.358 . S
C307 C306 1.429 . S
C307 H317 0.930 . S
C308 C304 1.332 . S
C308 C309 1.394 . S
C308 H318 0.932 . S
C309 C305 1.308 . S
C309 C308 1.394 . S
C309 H319 0.929 . S
C310 Tb281 2.764 . S
C310 O294 1.239 . S
C310 O295 1.263 . S
C310 C304 1.504 . S
C311 O296 1.236 . S
C311 O297 1.257 . S
H312 C285 0.932 . S
H313 C286 0.930 . S
H314 C287 0.932 . S
H315 C288 0.929 . S
H316 C306 0.932 . S
H317 C307 0.930 . S
H318 C308 0.932 . S
H319 C309 0.929 . S
C20 C31 2.760 . S
C60 C71 2.760 . S
C100 C111 2.760 . S
C140 C151 2.760 . S
C180 C191 2.760 1_655 S
C231 C220 2.760 1_455 S
C260 C271 2.760 1_455 S
C311 C300 2.760 1_655 S
C44 C25 4.185 1_554 S
C145 C84 4.183 . S
C185 C204 4.182 1_466 S
C244 C305 4.184 1_445 S
C4 C225 3.484 1_554 S
C164 C65 3.488 1_554 S
C105 C284 3.484 . S
C124 C265 3.488 . S
C23 C143 1.402 1_455 S
C63 C103 1.843 1_655 S
C42 C82 1.399 1_655 S
C122 C2 1.843 1_655 S
C183 C303 1.399 . S
C223 C263 1.843 . S
C202 C242 1.398 . S
C282 C162 1.844 . S
