# Generated by pormake.
# Topology dia, (4)-cn, num edge types: 1
# Building blocks:
#     Node 0, Type 0, BuildingBlock: AZAVOO_clean_sbu_0, # of connection points: 4
#     Node 1, Type 0, BuildingBlock: AZAVOO_clean_sbu_0, # of connection points: 4
#     Node 2, Type 0, BuildingBlock: AZAVOO_clean_sbu_0, # of connection points: 4
#     Node 3, Type 0, BuildingBlock: AZAVOO_clean_sbu_0, # of connection points: 4
#     Node 4, Type 0, BuildingBlock: AZAVOO_clean_sbu_0, # of connection points: 4
#     Node 5, Type 0, BuildingBlock: AZAVOO_clean_sbu_0, # of connection points: 4
#     Node 6, Type 0, BuildingBlock: AZAVOO_clean_sbu_0, # of connection points: 4
#     Node 7, Type 0, BuildingBlock: AZAVOO_clean_sbu_0, # of connection points: 4
#     Edge 8, Type (0, 0), BuildingBlock: MIFKUJ_clean_linker_0, # of connection points: 2
#     Edge 9, Type (0, 0), BuildingBlock: MIFKUJ_clean_linker_0, # of connection points: 2
#     Edge 10, Type (0, 0), BuildingBlock: MIFKUJ_clean_linker_0, # of connection points: 2
#     Edge 11, Type (0, 0), BuildingBlock: MIFKUJ_clean_linker_0, # of connection points: 2
#     Edge 12, Type (0, 0), BuildingBlock: MIFKUJ_clean_linker_0, # of connection points: 2
#     Edge 13, Type (0, 0), BuildingBlock: MIFKUJ_clean_linker_0, # of connection points: 2
#     Edge 14, Type (0, 0), BuildingBlock: MIFKUJ_clean_linker_0, # of connection points: 2
#     Edge 15, Type (0, 0), BuildingBlock: MIFKUJ_clean_linker_0, # of connection points: 2
#     Edge 16, Type (0, 0), BuildingBlock: MIFKUJ_clean_linker_0, # of connection points: 2
#     Edge 17, Type (0, 0), BuildingBlock: MIFKUJ_clean_linker_0, # of connection points: 2
#     Edge 18, Type (0, 0), BuildingBlock: MIFKUJ_clean_linker_0, # of connection points: 2
#     Edge 19, Type (0, 0), BuildingBlock: MIFKUJ_clean_linker_0, # of connection points: 2
#     Edge 20, Type (0, 0), BuildingBlock: MIFKUJ_clean_linker_0, # of connection points: 2
#     Edge 21, Type (0, 0), BuildingBlock: MIFKUJ_clean_linker_0, # of connection points: 2
#     Edge 22, Type (0, 0), BuildingBlock: MIFKUJ_clean_linker_0, # of connection points: 2
#     Edge 23, Type (0, 0), BuildingBlock: MIFKUJ_clean_linker_0, # of connection points: 2
# Relax obj value: 0.001
# Max RMSD: 0.029
# Mean RMSD: 0.029
data_MOF--net-dia--node1-AZAVOO_clean_sbu_0--edge1-MIFKUJ_clean_linker_0
_symmetry_space_group_name_H-M    P1
_symmetry_Int_Tables_number       1
_symmetry_cell_setting            triclinic
loop_
_symmetry_equiv_pos_as_xyz
'x, y, z'
_cell_length_a     45.085651
_cell_length_b     46.922402
_cell_length_c     45.015521
_cell_angle_alpha  95.381064
_cell_angle_beta   92.982333
_cell_angle_gamma 95.27388
loop_
_atom_site_label
_atom_site_type_symbol
_atom_site_fract_x
_atom_site_fract_y
_atom_site_fract_z
_atom_type_partial_charge
Mg0 Mg 0.14342 0.15274 0.65359 0.0
O1 O 0.10667 0.12542 0.62298 0.0
O2 O 0.07647 0.15566 0.60476 0.0
Mg3 Mg 0.09311 0.20158 0.62307 0.0
C4 C 0.08385 0.13026 0.60681 0.0
C5 C 0.15854 0.09196 0.66699 0.0
O6 O 0.13012 0.09082 0.6724 0.0
O7 O 0.16647 0.16682 0.61258 0.0
O8 O 0.13534 0.19787 0.59769 0.0
O9 O 0.11455 0.15162 0.69262 0.0
O10 O 0.11531 0.18494 0.66115 0.0
C11 C 0.15918 0.18533 0.59509 0.0
C12 C 0.10404 0.17439 0.68383 0.0
O13 O 0.17068 0.11434 0.65693 0.0
Mg14 Mg 0.83264 0.35688 0.85986 0.0
O15 O 0.86776 0.38306 0.8934 0.0
O16 O 0.88258 0.35254 0.92532 0.0
Mg17 Mg 0.8566 0.30843 0.9143 0.0
C18 C 0.88397 0.37748 0.91595 0.0
C19 C 0.82765 0.41698 0.83706 0.0
O20 O 0.82451 0.42309 0.86575 0.0
O21 O 0.86975 0.33434 0.83716 0.0
O22 O 0.87975 0.30365 0.87068 0.0
O23 O 0.79562 0.36689 0.88993 0.0
O24 O 0.82248 0.32995 0.89206 0.0
C25 C 0.88354 0.31354 0.84553 0.0
C26 C 0.80259 0.34489 0.90315 0.0
O27 O 0.83344 0.3918 0.82774 0.0
Mg28 Mg 0.63836 0.12965 0.1419 0.0
O29 O 0.60391 0.10074 0.10943 0.0
O30 O 0.57652 0.131 0.087 0.0
Mg31 Mg 0.5911 0.17733 0.1046 0.0
C32 C 0.583 0.1056 0.09071 0.0
C33 C 0.68764 0.10064 0.17036 0.0
O34 O 0.69113 0.12767 0.1817 0.0
O35 O 0.66526 0.1425 0.10267 0.0
O36 O 0.63515 0.17234 0.0833 0.0
O37 O 0.60681 0.13043 0.17899 0.0
O38 O 0.60915 0.16112 0.14474 0.0
C39 C 0.65911 0.15982 0.08347 0.0
C40 C 0.59662 0.15212 0.16749 0.0
O41 O 0.66659 0.0929 0.15052 0.0
Mg42 Mg 0.86679 0.86587 0.37255 0.0
O43 O 0.89702 0.89605 0.40758 0.0
O44 O 0.92124 0.86758 0.43554 0.0
Mg45 Mg 0.9065 0.82061 0.4203 0.0
C46 C 0.9158 0.89252 0.42893 0.0
C47 C 0.8417 0.89538 0.32064 0.0
O48 O 0.83397 0.86787 0.31305 0.0
O49 O 0.90709 0.85533 0.34639 0.0
O50 O 0.92792 0.82607 0.37608 0.0
O51 O 0.82967 0.86335 0.40362 0.0
O52 O 0.86481 0.83363 0.40127 0.0
C53 C 0.92706 0.83866 0.35214 0.0
C54 C 0.84148 0.84169 0.41357 0.0
O55 O 0.85735 0.90281 0.34494 0.0
Mg56 Mg 0.12454 0.63073 0.1405 0.0
O57 O 0.08807 0.60167 0.11086 0.0
O58 O 0.06058 0.63148 0.088 0.0
Mg59 Mg 0.07728 0.67808 0.10284 0.0
C60 C 0.06653 0.60615 0.09274 0.0
C61 C 0.14519 0.57856 0.1705 0.0
O62 O 0.12129 0.58381 0.18477 0.0
O63 O 0.14939 0.64054 0.0992 0.0
O64 O 0.12025 0.67108 0.07974 0.0
O65 O 0.09533 0.6349 0.17933 0.0
O66 O 0.09684 0.66387 0.14359 0.0
C67 C 0.14355 0.65753 0.07956 0.0
C68 C 0.08565 0.65677 0.16779 0.0
O69 O 0.15182 0.59305 0.14887 0.0
Mg70 Mg 0.3581 0.35683 0.35075 0.0
O71 O 0.38772 0.38561 0.38746 0.0
O72 O 0.41008 0.35599 0.41556 0.0
Mg73 Mg 0.39553 0.30952 0.39811 0.0
C74 C 0.40543 0.38127 0.40939 0.0
C75 C 0.33293 0.41315 0.33582 0.0
O76 O 0.32405 0.41053 0.36285 0.0
O77 O 0.39926 0.347 0.32564 0.0
O78 O 0.41899 0.31708 0.35539 0.0
O79 O 0.32007 0.35337 0.38073 0.0
O80 O 0.35484 0.32331 0.37793 0.0
C81 C 0.41917 0.33043 0.33193 0.0
C82 C 0.33139 0.33122 0.39007 0.0
O83 O 0.34973 0.39516 0.32465 0.0
Mg84 Mg 0.34097 0.8557 0.86451 0.0
O85 O 0.37538 0.88356 0.89781 0.0
O86 O 0.39799 0.85269 0.92418 0.0
Mg87 Mg 0.37982 0.80668 0.90858 0.0
C88 C 0.39438 0.87827 0.91825 0.0
C89 C 0.30467 0.89202 0.82838 0.0
O90 O 0.28618 0.87096 0.83591 0.0
O91 O 0.37806 0.84236 0.83532 0.0
O92 O 0.39946 0.81197 0.86341 0.0
O93 O 0.30597 0.85553 0.89807 0.0
O94 O 0.33892 0.82366 0.89316 0.0
C95 C 0.39757 0.82492 0.83979 0.0
C96 C 0.31716 0.83319 0.90712 0.0
O97 O 0.332 0.89318 0.83743 0.0
Mg98 Mg 0.6305 0.64066 0.64082 0.0
O99 O 0.59746 0.61225 0.60689 0.0
O100 O 0.56942 0.64231 0.58513 0.0
Mg101 Mg 0.58315 0.68856 0.60443 0.0
C102 C 0.5765 0.61698 0.58822 0.0
C103 C 0.67257 0.60868 0.67465 0.0
O104 O 0.66848 0.6324 0.69125 0.0
O105 O 0.65835 0.65561 0.60302 0.0
O106 O 0.62851 0.68618 0.58473 0.0
O107 O 0.597 0.63944 0.67628 0.0
O108 O 0.6015 0.67216 0.64432 0.0
C109 C 0.65288 0.67427 0.58502 0.0
C110 C 0.58792 0.66221 0.666 0.0
O111 O 0.65893 0.60392 0.64895 0.0
H112 H 0.34928 0.28277 0.41189 0.0
H113 H 0.3258 0.25513 0.44898 0.0
H114 H 0.25892 0.31502 0.45775 0.0
H115 H 0.28299 0.34349 0.42131 0.0
H116 H 0.27673 0.3004 0.51096 0.0
H117 H 0.24566 0.25011 0.41432 0.0
H118 H 0.25322 0.22561 0.36478 0.0
H119 H 0.30039 0.16292 0.40632 0.0
H120 H 0.29343 0.1873 0.45613 0.0
H121 H 0.15043 0.22461 0.55555 0.0
H122 H 0.18606 0.24504 0.52288 0.0
H123 H 0.25008 0.1882 0.54985 0.0
H124 H 0.21444 0.16754 0.58345 0.0
H125 H 0.24098 0.19765 0.48283 0.0
H126 H 0.26591 0.2468 0.58068 0.0
H127 H 0.25449 0.27137 0.62899 0.0
H128 H 0.21545 0.33657 0.58352 0.0
H129 H 0.2262 0.31212 0.53488 0.0
C130 C 0.32989 0.29041 0.42203 0.0
C131 C 0.31807 0.31544 0.41375 0.0
C132 C 0.31633 0.27438 0.44305 0.0
C133 C 0.2904 0.2828 0.4558 0.0
C134 C 0.27894 0.30814 0.44813 0.0
C135 C 0.29264 0.32434 0.42726 0.0
C136 C 0.27475 0.26492 0.47664 0.0
C137 C 0.26889 0.27797 0.50475 0.0
C138 C 0.26518 0.23541 0.46883 0.0
C139 C 0.26935 0.22073 0.43891 0.0
C140 C 0.25786 0.23124 0.41287 0.0
C141 C 0.26199 0.21735 0.38475 0.0
C142 C 0.27736 0.19278 0.3824 0.0
C143 C 0.28855 0.18199 0.40817 0.0
C144 C 0.2845 0.19583 0.43635 0.0
C145 C 0.17192 0.21609 0.55449 0.0
C146 C 0.17969 0.19462 0.57247 0.0
C147 C 0.19224 0.22785 0.53575 0.0
C148 C 0.22067 0.21832 0.53436 0.0
C149 C 0.22816 0.19582 0.55086 0.0
C150 C 0.20781 0.18411 0.56999 0.0
C151 C 0.24263 0.23337 0.5167 0.0
C152 C 0.24953 0.21989 0.4892 0.0
C153 C 0.25294 0.26255 0.5249 0.0
C154 C 0.24668 0.2775 0.55412 0.0
C155 C 0.25466 0.26624 0.58096 0.0
C156 C 0.24835 0.28017 0.60841 0.0
C157 C 0.2342 0.30549 0.60932 0.0
C158 C 0.2264 0.31695 0.58278 0.0
C159 C 0.23263 0.30309 0.55527 0.0
H160 H 0.22933 0.31624 0.63059 0.0
H161 H 0.28053 0.18205 0.3606 0.0
H162 H 0.68912 0.55849 0.64616 0.0
H163 H 0.72164 0.52508 0.66687 0.0
H164 H 0.73258 0.57921 0.7504 0.0
H165 H 0.70095 0.61269 0.72985 0.0
H166 H 0.78435 0.56173 0.73636 0.0
H167 H 0.68335 0.51682 0.73943 0.0
H168 H 0.63382 0.49634 0.71747 0.0
H169 H 0.67478 0.43427 0.66102 0.0
H170 H 0.7246 0.45463 0.68242 0.0
H171 H 0.81618 0.47284 0.84959 0.0
H172 H 0.79653 0.50458 0.81506 0.0
H173 H 0.80102 0.43963 0.74144 0.0
H174 H 0.8206 0.40756 0.77594 0.0
H175 H 0.74661 0.45987 0.74224 0.0
H176 H 0.84754 0.50071 0.74637 0.0
H177 H 0.89633 0.52097 0.77028 0.0
H178 H 0.85523 0.59075 0.81477 0.0
H179 H 0.8061 0.57069 0.79147 0.0
C180 C 0.69856 0.56326 0.6689 0.0
C181 C 0.69234 0.58821 0.68637 0.0
C182 C 0.71708 0.54413 0.68073 0.0
C183 C 0.72942 0.54952 0.7103 0.0
C184 C 0.72348 0.57461 0.72752 0.0
C185 C 0.70521 0.59371 0.71572 0.0
C186 C 0.74797 0.52899 0.724 0.0
C187 C 0.77605 0.53948 0.73773 0.0
C188 C 0.73759 0.49971 0.72506 0.0
C189 C 0.70768 0.48747 0.71223 0.0
C190 C 0.68179 0.49895 0.72216 0.0
C191 C 0.65367 0.48734 0.70985 0.0
C192 C 0.65116 0.46408 0.68779 0.0
C193 C 0.67676 0.45233 0.67806 0.0
C194 C 0.70494 0.46389 0.69027 0.0
C195 C 0.81348 0.46543 0.82599 0.0
C196 C 0.81986 0.4376 0.81557 0.0
C197 C 0.80233 0.48367 0.80623 0.0
C198 C 0.7974 0.47453 0.77561 0.0
C199 C 0.80466 0.44712 0.76496 0.0
C200 C 0.81598 0.42888 0.78472 0.0
C201 C 0.78258 0.49287 0.75536 0.0
C202 C 0.7552 0.48196 0.74039 0.0
C203 C 0.79352 0.52181 0.75334 0.0
C204 C 0.82308 0.53408 0.76729 0.0
C205 C 0.84886 0.52027 0.76141 0.0
C206 C 0.87659 0.53174 0.77483 0.0
C207 C 0.87887 0.5571 0.79407 0.0
C208 C 0.85343 0.57109 0.79987 0.0
C209 C 0.82564 0.55971 0.78652 0.0
H210 H 0.90036 0.56594 0.80444 0.0
H211 H 0.62937 0.45511 0.67829 0.0
H212 H 0.54737 0.10839 0.0406 0.0
H213 H 0.51635 0.06954 0.0113 0.0
H214 H 0.54679 0.00901 0.06972 0.0
H215 H 0.57873 0.048 0.09905 0.0
H216 H 0.54415 0.98709 0.01216 0.0
H217 H 0.47796 0.03453 0.07599 0.0
H218 H 0.45459 0.07605 0.0989 0.0
H219 H 0.42073 0.09372 0.01229 0.0
H220 H 0.44424 0.05253 0.98881 0.0
H221 H 0.43112 0.87521 0.9677 0.0
H222 H 0.46336 0.91378 0.99607 0.0
H223 H 0.43348 0.97425 0.9373 0.0
H224 H 0.40047 0.93561 0.90881 0.0
H225 H 0.43593 0.99615 0.99494 0.0
H226 H 0.50187 0.94853 0.93114 0.0
H227 H 0.52528 0.90706 0.90821 0.0
H228 H 0.55958 0.88967 0.99476 0.0
H229 H 0.53601 0.93081 0.01826 0.0
C230 C 0.54756 0.08685 0.04734 0.0
C231 C 0.56532 0.08136 0.07243 0.0
C232 C 0.52969 0.06464 0.03055 0.0
C233 C 0.52872 0.03648 0.03869 0.0
C234 C 0.54706 0.03066 0.06318 0.0
C235 C 0.56527 0.05293 0.07992 0.0
C236 C 0.50836 0.01329 0.0216 0.0
C237 C 0.52041 0.98885 0.00878 0.0
C238 C 0.47749 0.01597 0.01651 0.0
C239 C 0.46307 0.04058 0.03062 0.0
C240 C 0.46569 0.04738 0.06181 0.0
C241 C 0.45239 0.07084 0.0749 0.0
C242 C 0.43624 0.08754 0.05706 0.0
C243 C 0.43327 0.08077 0.02609 0.0
C244 C 0.44654 0.05735 0.01288 0.0
C245 C 0.43132 0.89667 0.96066 0.0
C246 C 0.41329 0.90224 0.93577 0.0
C247 C 0.44992 0.91871 0.97691 0.0
C248 C 0.45127 0.94679 0.96849 0.0
C249 C 0.4329 0.95266 0.94406 0.0
C250 C 0.41407 0.93057 0.9278 0.0
C251 C 0.47172 0.96995 0.9855 0.0
C252 C 0.45966 0.99438 0.99832 0.0
C253 C 0.50257 0.96725 0.99059 0.0
C254 C 0.51695 0.94261 0.97648 0.0
C255 C 0.51422 0.93574 0.9453 0.0
C256 C 0.52755 0.91232 0.9322 0.0
C257 C 0.54385 0.8957 0.95002 0.0
C258 C 0.54692 0.90254 0.98098 0.0
C259 C 0.53361 0.92593 0.9942 0.0
H260 H 0.55415 0.87757 0.93983 0.0
H261 H 0.42598 0.10571 0.06724 0.0
H262 H 0.9789 0.8146 0.36084 0.0
H263 H 0.00698 0.79086 0.32298 0.0
H264 H 0.95095 0.82011 0.25363 0.0
H265 H 0.92193 0.84352 0.29181 0.0
H266 H 0.9525 0.76428 0.24468 0.0
H267 H 0.02662 0.84248 0.26219 0.0
H268 H 0.06098 0.88039 0.29076 0.0
H269 H 0.10775 0.81623 0.33015 0.0
H270 H 0.07342 0.77791 0.30217 0.0
H271 H 0.04755 0.69141 0.14306 0.0
H272 H 0.02014 0.7274 0.16959 0.0
H273 H 0.04998 0.69955 0.25375 0.0
H274 H 0.07736 0.66326 0.22729 0.0
H275 H 0.06221 0.76078 0.24699 0.0
H276 H 0.98165 0.68359 0.23296 0.0
H277 H 0.94728 0.64691 0.20259 0.0
H278 H 0.91337 0.71233 0.15345 0.0
H279 H 0.94787 0.74938 0.18328 0.0
C280 C 0.97291 0.81661 0.33756 0.0
C281 C 0.94796 0.83063 0.32931 0.0
C282 C 0.98919 0.80317 0.31586 0.0
C283 C 0.98116 0.80376 0.28542 0.0
C284 C 0.9575 0.81941 0.27703 0.0
C285 C 0.94108 0.83292 0.29885 0.0
C286 C 0.99514 0.7849 0.26305 0.0
C287 C 0.97653 0.76404 0.24462 0.0
C288 C 0.02648 0.78432 0.26319 0.0
C289 C 0.0473 0.80728 0.28013 0.0
C290 C 0.0441 0.83643 0.2771 0.0
C291 C 0.0636 0.85801 0.29317 0.0
C292 C 0.08651 0.85072 0.31228 0.0
C293 C 0.09 0.82184 0.31532 0.0
C294 C 0.07055 0.80017 0.29931 0.0
C295 C 0.048 0.69266 0.16715 0.0
C296 C 0.06482 0.6747 0.18312 0.0
C297 C 0.03226 0.71319 0.18226 0.0
C298 C 0.03336 0.71622 0.21355 0.0
C299 C 0.04908 0.69754 0.22954 0.0
C300 C 0.06446 0.6767 0.21442 0.0
C301 C 0.0195 0.73986 0.22973 0.0
C302 C 0.03822 0.76155 0.24677 0.0
C303 C 0.98835 0.74146 0.22796 0.0
C304 C 0.9676 0.7192 0.21009 0.0
C305 C 0.96708 0.69012 0.21548 0.0
C306 C 0.94752 0.66927 0.19841 0.0
C307 C 0.92822 0.67727 0.17603 0.0
C308 C 0.92838 0.70616 0.17075 0.0
C309 C 0.94791 0.72709 0.18774 0.0
H310 H 0.9131 0.6611 0.16285 0.0
H311 H 0.10159 0.86746 0.32471 0.0
H312 H 0.33689 0.93485 0.80247 0.0
H313 H 0.31742 0.96846 0.76944 0.0
H314 H 0.2278 0.93065 0.77833 0.0
H315 H 0.24697 0.89691 0.81059 0.0
H316 H 0.2359 0.93797 0.72177 0.0
H317 H 0.25659 0.99598 0.81689 0.0
H318 H 0.28865 0.01839 0.86049 0.0
H319 H 0.34553 0.06266 0.8025 0.0
H320 H 0.31397 0.04023 0.75851 0.0
H321 H 0.1392 0.0417 0.6889 0.0
H322 H 0.16944 0.00726 0.71011 0.0
H323 H 0.24957 0.05636 0.68813 0.0
H324 H 0.21936 0.09128 0.66709 0.0
H325 H 0.25342 0.04378 0.74521 0.0
H326 H 0.22775 0.99074 0.65054 0.0
H327 H 0.1946 0.96892 0.60751 0.0
H328 H 0.14639 0.91544 0.66467 0.0
H329 H 0.17898 0.93722 0.70814 0.0
C330 C 0.31305 0.9338 0.79741 0.0
C331 C 0.2935 0.9132 0.80918 0.0
C332 C 0.30194 0.95303 0.77858 0.0
C333 C 0.2711 0.95217 0.77148 0.0
C334 C 0.25167 0.93166 0.78331 0.0
C335 C 0.2627 0.91242 0.8019 0.0
C336 C 0.25861 0.97247 0.75184 0.0
C337 C 0.23961 0.96111 0.72699 0.0
C338 C 0.26421 0.00269 0.758 0.0
C339 C 0.28315 0.01616 0.78442 0.0
C340 C 0.27607 0.01032 0.81343 0.0
C341 C 0.29412 0.02305 0.83821 0.0
C342 C 0.31917 0.04186 0.83426 0.0
C343 C 0.32616 0.04804 0.80552 0.0
C344 C 0.3082 0.03534 0.78067 0.0
C345 C 0.16323 0.04502 0.68815 0.0
C346 C 0.17684 0.06931 0.67635 0.0
C347 C 0.18052 0.02521 0.7002 0.0
C348 C 0.21179 0.0291 0.70054 0.0
C349 C 0.22547 0.05292 0.68807 0.0
C350 C 0.20816 0.07277 0.67594 0.0
C351 C 0.22998 0.00924 0.7157 0.0
C352 C 0.25008 0.02066 0.73966 0.0
C353 C 0.22531 0.97906 0.70878 0.0
C354 C 0.20573 0.96576 0.68265 0.0
C355 C 0.20996 0.97446 0.65398 0.0
C356 C 0.19128 0.96208 0.6295 0.0
C357 C 0.16838 0.94084 0.63336 0.0
C358 C 0.16414 0.93189 0.66171 0.0
C359 C 0.18274 0.94422 0.68627 0.0
H360 H 0.15394 0.93128 0.61439 0.0
H361 H 0.33311 0.0517 0.85347 0.0
H362 H 0.88495 0.43576 0.91335 0.0
H363 H 0.91758 0.47366 0.94308 0.0
H364 H 0.96275 0.40941 0.98516 0.0
H365 H 0.92976 0.37155 0.95627 0.0
H366 H 0.95139 0.44946 0.02574 0.0
H367 H 0.9949 0.4488 0.93079 0.0
H368 H 0.99527 0.45056 0.87623 0.0
H369 H 0.96519 0.53498 0.88517 0.0
H370 H 0.96427 0.53358 0.93977 0.0
H371 H 0.07232 0.54828 0.09357 0.0
H372 H 0.04293 0.50829 0.06329 0.0
H373 H 0.99017 0.56828 0.02306 0.0
H374 H 0.01931 0.60816 0.05278 0.0
H375 H 0.00762 0.52922 0.98141 0.0
H376 H 0.96271 0.52863 0.07642 0.0
H377 H 0.96267 0.52651 0.13095 0.0
H378 H 0.99649 0.44374 0.12157 0.0
H379 H 0.9971 0.44554 0.06698 0.0
C380 C 0.90197 0.42971 0.92877 0.0
C381 C 0.9047 0.40062 0.93245 0.0
C382 C 0.92069 0.4514 0.9457 0.0
C383 C 0.94285 0.44439 0.96619 0.0
C384 C 0.9458 0.41536 0.96958 0.0
C385 C 0.92693 0.39373 0.95296 0.0
C386 C 0.9624 0.46725 0.98478 0.0
C387 C 0.96405 0.46664 0.01597 0.0
C388 C 0.97854 0.48998 0.97216 0.0
C389 C 0.97927 0.49097 0.93935 0.0
C390 C 0.98817 0.46766 0.9211 0.0
C391 C 0.98851 0.46861 0.89017 0.0
C392 C 0.98019 0.49284 0.87724 0.0
C393 C 0.9716 0.51622 0.89522 0.0
C394 C 0.9712 0.51537 0.92616 0.0
C395 C 0.05437 0.55295 0.07839 0.0
C396 C 0.04824 0.58149 0.07566 0.0
C397 C 0.03757 0.53007 0.06113 0.0
C398 C 0.0143 0.53534 0.04097 0.0
C399 C 0.00809 0.56373 0.03836 0.0
C400 C 0.02477 0.58652 0.05553 0.0
C401 C 0.99643 0.51145 0.02228 0.0
C402 C 0.99509 0.51189 0.99109 0.0
C403 C 0.9807 0.48851 0.03488 0.0
C404 C 0.98026 0.48737 0.06767 0.0
C405 C 0.97037 0.51009 0.08602 0.0
C406 C 0.9702 0.50892 0.11693 0.0
C407 C 0.97965 0.48504 0.12973 0.0
C408 C 0.98922 0.46224 0.11163 0.0
C409 C 0.98946 0.46331 0.0807 0.0
H410 H 0.9795 0.48418 0.15366 0.0
H411 H 0.98046 0.49353 0.85328 0.0
H412 H 0.41431 0.3312 0.27107 0.0
H413 H 0.44534 0.30706 0.23527 0.0
H414 H 0.50411 0.28844 0.30821 0.0
H415 H 0.47367 0.3127 0.34378 0.0
H416 H 0.53474 0.29769 0.25978 0.0
H417 H 0.44342 0.24199 0.28298 0.0
H418 H 0.38879 0.23297 0.28471 0.0
H419 H 0.37854 0.23517 0.18959 0.0
H420 H 0.43314 0.24456 0.18739 0.0
H421 H 0.58933 0.16461 0.22652 0.0
H422 H 0.55778 0.19989 0.2485 0.0
H423 H 0.51999 0.21055 0.16069 0.0
H424 H 0.55144 0.17533 0.13867 0.0
H425 H 0.47814 0.20987 0.20745 0.0
H426 H 0.5713 0.25739 0.18422 0.0
H427 H 0.62612 0.26471 0.18371 0.0
H428 H 0.63319 0.27705 0.27964 0.0
H429 H 0.57839 0.26932 0.28074 0.0
C430 C 0.43444 0.32285 0.27932 0.0
C431 C 0.44134 0.32333 0.31018 0.0
C432 C 0.45201 0.30891 0.2589 0.0
C433 C 0.47659 0.29542 0.2692 0.0
C434 C 0.48514 0.29854 0.2998 0.0
C435 C 0.46763 0.31231 0.32012 0.0
C436 C 0.49123 0.27491 0.24922 0.0
C437 C 0.52237 0.27855 0.24825 0.0
C438 C 0.475 0.25014 0.23378 0.0
C439 C 0.44226 0.24432 0.23507 0.0
C440 C 0.42948 0.24073 0.26248 0.0
C441 C 0.39854 0.23554 0.26353 0.0
C442 C 0.3802 0.23359 0.23728 0.0
C443 C 0.39277 0.23675 0.20991 0.0
C444 C 0.4237 0.24201 0.20874 0.0
C445 C 0.57369 0.17391 0.21205 0.0
C446 C 0.57306 0.1677 0.18093 0.0
C447 C 0.55593 0.19418 0.22454 0.0
C448 C 0.5371 0.20812 0.20606 0.0
C449 C 0.53465 0.20018 0.1752 0.0
C450 C 0.55272 0.18024 0.16268 0.0
C451 C 0.52162 0.23235 0.21884 0.0
C452 C 0.49041 0.22933 0.2184 0.0
C453 C 0.53779 0.25762 0.23309 0.0
C454 C 0.57075 0.26253 0.23256 0.0
C455 C 0.58455 0.26142 0.20522 0.0
C456 C 0.61562 0.26569 0.20482 0.0
C457 C 0.63313 0.27128 0.23163 0.0
C458 C 0.61959 0.27269 0.25889 0.0
C459 C 0.58853 0.26839 0.25942 0.0
H460 H 0.65718 0.27459 0.23128 0.0
H461 H 0.35625 0.22956 0.23814 0.0
H462 H 0.78841 0.84866 0.43855 0.0
H463 H 0.76347 0.81826 0.47265 0.0
H464 H 0.83937 0.76867 0.4764 0.0
H465 H 0.86372 0.79803 0.4413 0.0
H466 H 0.79205 0.73384 0.46742 0.0
H467 H 0.82134 0.81394 0.53789 0.0
H468 H 0.82853 0.86479 0.55861 0.0
H469 H 0.73365 0.86867 0.55489 0.0
H470 H 0.72587 0.81796 0.53373 0.0
H471 H 0.71214 0.66383 0.58548 0.0
H472 H 0.75163 0.68949 0.55967 0.0
H473 H 0.68597 0.73589 0.51698 0.0
H474 H 0.64663 0.7103 0.54173 0.0
H475 H 0.73699 0.77008 0.55344 0.0
H476 H 0.71118 0.69035 0.47511 0.0
H477 H 0.70624 0.63895 0.45627 0.0
H478 H 0.79918 0.6343 0.47932 0.0
H479 H 0.80454 0.68562 0.49869 0.0
C480 C 0.79999 0.83159 0.44701 0.0
C481 C 0.82813 0.8259 0.43726 0.0
C482 C 0.78578 0.81428 0.46666 0.0
C483 C 0.7997 0.79133 0.4774 0.0
C484 C 0.82821 0.78624 0.46846 0.0
C485 C 0.84222 0.80326 0.44849 0.0
C486 C 0.78347 0.7714 0.49604 0.0
C487 C 0.7806 0.74177 0.48665 0.0
C488 C 0.76855 0.7816 0.52121 0.0
C489 C 0.77304 0.81214 0.53404 0.0
C490 C 0.80201 0.82568 0.54129 0.0
C491 C 0.80619 0.85448 0.55315 0.0
C492 C 0.78156 0.86996 0.55802 0.0
C493 C 0.7527 0.85665 0.5511 0.0
C494 C 0.74839 0.82786 0.53922 0.0
C495 C 0.70608 0.67902 0.57007 0.0
C496 C 0.67627 0.68527 0.56599 0.0
C497 C 0.72864 0.69371 0.55551 0.0
C498 C 0.72156 0.71479 0.53689 0.0
C499 C 0.69177 0.71989 0.53158 0.0
C500 C 0.66933 0.70514 0.54574 0.0
C501 C 0.74493 0.73305 0.52403 0.0
C502 C 0.74913 0.76229 0.53462 0.0
C503 C 0.76145 0.72246 0.50038 0.0
C504 C 0.75816 0.69168 0.48872 0.0
C505 C 0.73047 0.67828 0.47646 0.0
C506 C 0.72762 0.64919 0.46561 0.0
C507 C 0.75235 0.63334 0.4667 0.0
C508 C 0.78002 0.64658 0.47856 0.0
C509 C 0.78298 0.67566 0.48946 0.0
H510 H 0.7501 0.61082 0.45828 0.0
H511 H 0.78485 0.89226 0.5672 0.0
H512 H 0.14162 0.55234 0.22185 0.0
H513 H 0.17898 0.52584 0.24526 0.0
H514 H 0.23393 0.53467 0.17049 0.0
H515 H 0.19663 0.56175 0.14682 0.0
H516 H 0.22827 0.47725 0.19399 0.0
H517 H 0.25486 0.57732 0.226 0.0
H518 H 0.24497 0.62607 0.24594 0.0
H519 H 0.21746 0.59373 0.32734 0.0
H520 H 0.22675 0.54469 0.3077 0.0
H521 H 0.34608 0.42498 0.27902 0.0
H522 H 0.32 0.45524 0.24689 0.0
H523 H 0.26308 0.47702 0.31809 0.0
H524 H 0.28957 0.44783 0.35044 0.0
H525 H 0.27599 0.52221 0.29107 0.0
H526 H 0.24216 0.4228 0.25853 0.0
H527 H 0.24827 0.37276 0.23954 0.0
H528 H 0.28572 0.40208 0.16073 0.0
H529 H 0.28015 0.45234 0.17945 0.0
C530 C 0.16144 0.54842 0.2101 0.0
C531 C 0.16622 0.55937 0.18253 0.0
C532 C 0.18281 0.53331 0.2236 0.0
C533 C 0.20931 0.52862 0.20975 0.0
C534 C 0.21362 0.5382 0.18154 0.0
C535 C 0.19231 0.55366 0.16809 0.0
C536 C 0.23285 0.51486 0.22572 0.0
C537 C 0.23924 0.48724 0.21491 0.0
C538 C 0.24663 0.52777 0.25326 0.0
C539 C 0.24131 0.55729 0.26527 0.0
C540 C 0.24649 0.58057 0.24806 0.0
C541 C 0.24102 0.60826 0.25933 0.0
C542 C 0.23054 0.61298 0.28787 0.0
C543 C 0.22557 0.59004 0.30523 0.0
C544 C 0.23096 0.56229 0.29406 0.0
C545 C 0.32828 0.43656 0.28793 0.0
C546 C 0.31978 0.43381 0.31724 0.0
C547 C 0.31324 0.45369 0.26947 0.0
C548 C 0.28915 0.468 0.27983 0.0
C549 C 0.28153 0.46618 0.30949 0.0
C550 C 0.29671 0.44939 0.328 0.0
C551 C 0.27098 0.4841 0.25984 0.0
C552 C 0.26554 0.51227 0.2699 0.0
C553 C 0.25777 0.47149 0.23182 0.0
C554 C 0.26108 0.44132 0.22055 0.0
C555 C 0.2519 0.41857 0.23725 0.0
C556 C 0.25523 0.39018 0.22653 0.0
C557 C 0.26747 0.38425 0.19899 0.0
C558 C 0.27631 0.40671 0.18208 0.0
C559 C 0.27306 0.43515 0.19273 0.0
H560 H 0.27003 0.36226 0.19072 0.0
H561 H 0.22632 0.63444 0.29655 0.0
H562 H 0.83084 0.33746 0.95581 0.0
H563 H 0.81055 0.30816 0.99354 0.0
H564 H 0.7235 0.30175 0.94737 0.0
H565 H 0.74375 0.33175 0.91 0.0
H566 H 0.71927 0.30052 0.0071 0.0
H567 H 0.77278 0.25348 0.92884 0.0
H568 H 0.81686 0.24772 0.8994 0.0
H569 H 0.86883 0.235 0.9789 0.0
H570 H 0.82513 0.24114 0.0089 0.0
H571 H 0.64859 0.16997 0.0261 0.0
H572 H 0.68026 0.20198 0.99875 0.0
H573 H 0.75084 0.20509 0.06773 0.0
H574 H 0.7191 0.17266 0.09529 0.0
H575 H 0.76829 0.20968 0.00326 0.0
H576 H 0.71126 0.25253 0.08063 0.0
H577 H 0.66542 0.25662 0.10767 0.0
H578 H 0.61876 0.27606 0.02758 0.0
H579 H 0.66421 0.27154 -8e-05 0.0
C580 C 0.80716 0.33064 0.95444 0.0
C581 C 0.78878 0.33644 0.93006 0.0
C582 C 0.79564 0.31385 0.97586 0.0
C583 C 0.76578 0.3021 0.97267 0.0
C584 C 0.74669 0.31047 0.95007 0.0
C585 C 0.75817 0.32768 0.92884 0.0
C586 C 0.75545 0.27825 0.99003 0.0
C587 C 0.73002 0.28072 0.0063 0.0
C588 C 0.76975 0.25249 0.98925 0.0
C589 C 0.7958 0.24805 0.97114 0.0
C590 C 0.79364 0.24957 0.94005 0.0
C591 C 0.81855 0.24624 0.92327 0.0
C592 C 0.84564 0.24106 0.93728 0.0
C593 C 0.84784 0.23906 0.96809 0.0
C594 C 0.82301 0.24246 0.98499 0.0
C595 C 0.67133 0.17644 0.03478 0.0
C596 C 0.68138 0.16923 0.06288 0.0
C597 C 0.68933 0.19476 0.0192 0.0
C598 C 0.71749 0.20628 0.03166 0.0
C599 C 0.72906 0.19638 0.05793 0.0
C600 C 0.71101 0.1778 0.07354 0.0
C601 C 0.73201 0.23197 0.0199 0.0
C602 C 0.75804 0.22976 0.0046 0.0
C603 C 0.71821 0.25794 0.0214 0.0
C604 C 0.69108 0.26148 0.03816 0.0
C605 C 0.69117 0.25749 0.06874 0.0
C606 C 0.66527 0.2599 0.08419 0.0
C607 C 0.63918 0.26655 0.06934 0.0
C608 C 0.63898 0.2709 0.03905 0.0
C609 C 0.66481 0.26844 0.02348 0.0
H610 H 0.61913 0.26838 0.08133 0.0
H611 H 0.86492 0.23855 0.92426 0.0
H612 H 0.85059 0.95423 0.33104 0.0
H613 H 0.82773 0.98958 0.30287 0.0
H614 H 0.78305 0.92106 0.24142 0.0
H615 H 0.80618 0.88571 0.26903 0.0
H616 H 0.80281 0.96512 0.21187 0.0
H617 H 0.74654 0.95285 0.29825 0.0
H618 H 0.73916 0.95164 0.35204 0.0
H619 H 0.7734 0.04051 0.36849 0.0
H620 H 0.78135 0.04214 0.31482 0.0
H621 H 0.68557 0.04241 0.15434 0.0
H622 H 0.71503 0.00789 0.17725 0.0
H623 H 0.76181 0.07698 0.23648 0.0
H624 H 0.73255 0.11142 0.21396 0.0
H625 H 0.74171 0.03285 0.26662 0.0
H626 H 0.79615 0.04509 0.17903 0.0
H627 H 0.80243 0.04565 0.125 0.0
H628 H 0.77013 0.95617 0.11043 0.0
H629 H 0.76326 0.95518 0.16436 0.0
C630 C 0.83614 0.9467 0.31136 0.0
C631 C 0.83003 0.91712 0.30245 0.0
C632 C 0.82298 0.96693 0.29535 0.0
C633 C 0.80329 0.95795 0.27029 0.0
C634 C 0.79809 0.92851 0.2607 0.0
C635 C 0.81128 0.90831 0.27662 0.0
C636 C 0.78713 0.97905 0.25474 0.0
C637 C 0.78921 0.97975 0.22378 0.0
C638 C 0.76968 0.99841 0.27031 0.0
C639 C 0.76483 0.99752 0.30258 0.0
C640 C 0.75271 0.97207 0.31338 0.0
C641 C 0.74839 0.97132 0.34383 0.0
C642 C 0.75589 0.99596 0.36368 0.0
C643 C 0.76765 0.02143 0.35309 0.0
C644 C 0.77205 0.02228 0.32266 0.0
C645 C 0.70233 0.05025 0.17205 0.0
C646 C 0.70662 0.07966 0.18236 0.0
C647 C 0.7192 0.03053 0.18507 0.0
C648 C 0.7407 0.03988 0.20854 0.0
C649 C 0.74532 0.06927 0.21847 0.0
C650 C 0.72857 0.08894 0.20547 0.0
C651 C 0.75752 0.01907 0.22377 0.0
C652 C 0.75543 0.01834 0.2547 0.0
C653 C 0.77478 -0.00039 0.20812 0.0
C654 C 0.7789 0.00014 0.17569 0.0
C655 C 0.79014 0.0256 0.16427 0.0
C656 C 0.79386 0.02598 0.13367 0.0
C657 C 0.7866 0.00098 0.11428 0.0
C658 C 0.77569 0.97553 0.12547 0.0
C659 C 0.77191 0.97504 0.15605 0.0
H660 H 0.7895 0.00132 0.09059 0.0
H661 H 0.75252 0.99534 0.38725 0.0
H662 H 0.9628 0.89302 0.46972 0.0
H663 H 0.98936 0.93414 0.49982 0.0
H664 H 0.93238 0.99076 0.4596 0.0
H665 H 0.90587 0.94951 0.42863 0.0
H666 H 0.98911 0.01324 0.46355 0.0
H667 H 0.9229 0.97211 0.53094 0.0
H668 H 0.89859 0.93351 0.55743 0.0
H669 H 0.98338 0.91906 0.5983 0.0
H670 H 0.00828 0.9573 0.57171 0.0
H671 H 0.03409 0.13248 0.56997 0.0
H672 H 0.00447 0.09275 0.54028 0.0
H673 H 0.06196 0.03301 0.57396 0.0
H674 H 0.09174 0.07271 0.60415 0.0
H675 H 0.00298 0.01325 0.57365 0.0
H676 H 0.06898 0.05382 0.50457 0.0
H677 H 0.09267 0.0928 0.47815 0.0
H678 H 0.00693 0.10891 0.44082 0.0
H679 H 0.98268 0.07027 0.46737 0.0
C680 C 0.95576 0.91416 0.46721 0.0
C681 C 0.932 0.91789 0.44684 0.0
C682 C 0.97095 0.93769 0.4846 0.0
C683 C 0.96252 0.96548 0.48242 0.0
C684 C 0.93916 0.96945 0.46177 0.0
C685 C 0.92401 0.94586 0.44412 0.0
C686 C 0.9785 0.9903 0.50149 0.0
C687 C 0.9917 0.01346 0.48767 0.0
C688 C 0.98242 0.99034 0.53294 0.0
C689 C 0.96749 0.96742 0.54912 0.0
C690 C 0.9364 0.96056 0.54541 0.0
C691 C 0.9225 0.93877 0.56047 0.0
C692 C 0.93944 0.9238 0.57949 0.0
C693 C 0.97029 0.93065 0.58354 0.0
C694 C 0.98431 0.95241 0.5685 0.0
C695 C 0.04052 0.11093 0.57118 0.0
C696 C 0.06548 0.10586 0.58938 0.0
C697 C 0.02356 0.08823 0.55406 0.0
C698 C 0.03124 0.05998 0.55459 0.0
C699 C 0.05572 0.05469 0.57316 0.0
C700 C 0.07276 0.07742 0.59034 0.0
C701 C 0.01374 0.036 0.53567 0.0
C702 C 0.00024 0.01304 0.54954 0.0
C703 C 0.00942 0.03622 0.50431 0.0
C704 C 0.02399 0.05934 0.48819 0.0
C705 C 0.05516 0.06582 0.49091 0.0
C706 C 0.06869 0.08783 0.47588 0.0
C707 C 0.05131 0.10337 0.45788 0.0
C708 C 0.02036 0.09688 0.45481 0.0
C709 C 0.00672 0.07491 0.46981 0.0
H710 H 0.06183 0.12041 0.44627 0.0
H711 H 0.92864 0.90693 0.59113 0.0
H712 H 0.90692 0.26298 0.85166 0.0
H713 H 0.94307 0.24061 0.82151 0.0
H714 H 0.9445 0.30987 0.76484 0.0
H715 H 0.90751 0.33258 0.79497 0.0
H716 H 0.94399 0.25643 0.73289 0.0
H717 H 0.00031 0.30956 0.81602 0.0
H718 H 0.01283 0.32621 0.86915 0.0
H719 H 0.02512 0.23978 0.88758 0.0
H720 H 0.01222 0.22253 0.83462 0.0
H721 H 0.08098 0.22406 0.67198 0.0
H722 H 0.0415 0.24702 0.69683 0.0
H723 H 0.03273 0.17894 0.75476 0.0
H724 H 0.07222 0.15535 0.72955 0.0
H725 H 0.03763 0.23398 0.78483 0.0
H726 H 0.9805 0.18118 0.70099 0.0
H727 H 0.96862 0.16536 0.64758 0.0
H728 H 0.95903 0.25254 0.63005 0.0
H729 H 0.97132 0.26895 0.68332 0.0
C730 C 0.91482 0.27363 0.83282 0.0
C731 C 0.9046 0.29983 0.82596 0.0
C732 C 0.93554 0.26074 0.81561 0.0
C733 C 0.94686 0.27388 0.79135 0.0
C734 C 0.9361 0.29954 0.78366 0.0
C735 C 0.91507 0.31248 0.80089 0.0
C736 C 0.97034 0.2607 0.77465 0.0
C737 C 0.9647 0.25195 0.74408 0.0
C738 C 0.99706 0.25441 0.7895 0.0
C739 C 0.00507 0.26472 0.82137 0.0
C740 C 0.00547 0.29407 0.83143 0.0
C741 C 0.01267 0.30362 0.86152 0.0
C742 C 0.01971 0.28406 0.88174 0.0
C743 C 0.01964 0.25491 0.8719 0.0
C744 C 0.01242 0.24524 0.84184 0.0
C745 C 0.07035 0.21357 0.6896 0.0
C746 C 0.07947 0.18764 0.69853 0.0
C747 C 0.04781 0.22683 0.70382 0.0
C748 C 0.03403 0.21449 0.72734 0.0
C749 C 0.04308 0.18866 0.73649 0.0
C750 C 0.06557 0.17524 0.72209 0.0
C751 C 0.01111 0.22935 0.74319 0.0
C752 C 0.01694 0.23853 0.77362 0.0
C753 C 0.98473 0.23618 0.72813 0.0
C754 C 0.97713 0.22633 0.69611 0.0
C755 C 0.97611 0.19701 0.68571 0.0
C756 C 0.96926 0.18793 0.65547 0.0
C757 C 0.96315 0.20794 0.63542 0.0
C758 C 0.9638 0.23707 0.6456 0.0
C759 C 0.97069 0.24627 0.67583 0.0
H760 H 0.95784 0.20086 0.61201 0.0
H761 H 0.02527 0.29149 0.90503 0.0
H762 H 0.57577 0.71646 0.6582 0.0
H763 H 0.54033 0.74445 0.68357 0.0
H764 H 0.50908 0.67071 0.72798 0.0
H765 H 0.54596 0.64272 0.70348 0.0
H766 H 0.48471 0.74496 0.68638 0.0
H767 H 0.48965 0.69207 0.79708 0.0
H768 H 0.52375 0.66548 0.82626 0.0
H769 H 0.59891 0.7063 0.78648 0.0
H770 H 0.56529 0.73336 0.75736 0.0
H771 H 0.37963 0.80073 0.78419 0.0
H772 H 0.40996 0.77421 0.74986 0.0
H773 H 0.48866 0.80322 0.80755 0.0
H774 H 0.45779 0.8279 0.84285 0.0
H775 H 0.48768 0.75022 0.79701 0.0
H776 H 0.47446 0.82469 0.73335 0.0
H777 H 0.44675 0.85721 0.70489 0.0
H778 H 0.39965 0.7846 0.65183 0.0
H779 H 0.42682 0.75162 0.68024 0.0
C780 C 0.56116 0.706 0.6731 0.0
C781 C 0.56379 0.67744 0.67907 0.0
C782 C 0.54078 0.72207 0.68754 0.0
C783 C 0.52228 0.70988 0.70802 0.0
C784 C 0.5236 0.68078 0.71275 0.0
C785 C 0.54454 0.66477 0.69869 0.0
C786 C 0.50329 0.72846 0.72565 0.0
C787 C 0.48525 0.74607 0.71058 0.0
C788 C 0.50451 0.73043 0.75725 0.0
C789 C 0.52493 0.71443 0.7748 0.0
C790 C 0.51346 0.69539 0.79463 0.0
C791 C 0.5327 0.68024 0.81115 0.0
C792 C 0.56347 0.68411 0.80814 0.0
C793 C 0.57507 0.70323 0.7887 0.0
C794 C 0.55594 0.71846 0.77217 0.0
C795 C 0.40356 0.80211 0.78892 0.0
C796 C 0.41661 0.81639 0.81584 0.0
C797 C 0.42091 0.78696 0.76933 0.0
C798 C 0.45169 0.78668 0.77603 0.0
C799 C 0.46495 0.80285 0.802 0.0
C800 C 0.44746 0.81721 0.82198 0.0
C801 C 0.46953 0.76734 0.75784 0.0
C802 C 0.48708 0.74927 0.77281 0.0
C803 C 0.46885 0.76591 0.72626 0.0
C804 C 0.45247 0.78568 0.70912 0.0
C805 C 0.45803 0.81565 0.71576 0.0
C806 C 0.44245 0.83417 0.69961 0.0
C807 C 0.4214 0.82298 0.67662 0.0
C808 C 0.41594 0.79324 0.66967 0.0
C809 C 0.43144 0.77463 0.68577 0.0
H810 H 0.40936 0.83735 0.66414 0.0
H811 H 0.57831 0.67235 0.82092 0.0
H812 H 0.20388 0.6533 0.08387 0.0
H813 H 0.24099 0.67685 0.0539 0.0
H814 H 0.17016 0.70287 0.99733 0.0
H815 H 0.13326 0.67909 0.02658 0.0
H816 H 0.21638 0.69173 0.96551 0.0
H817 H 0.19963 0.74567 0.05991 0.0
H818 H 0.1992 0.75294 0.11487 0.0
H819 H 0.29298 0.74316 0.1227 0.0
H820 H 0.29385 0.73546 0.06774 0.0
H821 H 0.25877 0.82652 0.91906 0.0
H822 H 0.23543 0.79165 0.95011 0.0
H823 H 0.32219 0.769 0.97878 0.0
H824 H 0.34564 0.80368 0.94767 0.0
H825 H 0.27681 0.77338 0.02498 0.0
H826 H 0.29311 0.72717 0.92796 0.0
H827 H 0.2912 0.72293 0.87287 0.0
H828 H 0.19565 0.72056 0.86996 0.0
H829 H 0.19704 0.72528 0.92509 0.0
C830 C 0.1963 0.66323 0.06444 0.0
C831 C 0.16571 0.66485 0.05785 0.0
C832 C 0.21749 0.67683 0.04749 0.0
C833 C 0.20826 0.69216 0.02387 0.0
C834 C 0.17778 0.69134 0.01559 0.0
C835 C 0.15669 0.67784 0.03243 0.0
C836 C 0.22955 0.71189 0.0098 0.0
C837 C 0.22969 0.70948 0.97853 0.0
C838 C 0.24721 0.73489 0.02683 0.0
C839 C 0.24672 0.73962 0.0598 0.0
C840 C 0.2201 0.74486 0.07338 0.0
C841 C 0.21979 0.74909 0.10451 0.0
C842 C 0.24603 0.74841 0.12227 0.0
C843 C 0.27266 0.7436 0.10892 0.0
C844 C 0.27308 0.7393 0.07779 0.0
C845 C 0.27287 0.81465 0.9326 0.0
C846 C 0.30394 0.81737 0.93064 0.0
C847 C 0.25955 0.79467 0.95013 0.0
C848 C 0.27718 0.77755 0.96622 0.0
C849 C 0.30831 0.78192 0.96626 0.0
C850 C 0.32162 0.80157 0.94836 0.0
C851 C 0.26287 0.75351 0.98083 0.0
C852 C 0.26408 0.75519 0.01208 0.0
C853 C 0.24617 0.73003 0.96381 0.0
C854 C 0.24521 0.72682 0.93065 0.0
C855 C 0.27171 0.72598 0.91558 0.0
C856 C 0.27072 0.72346 0.88434 0.0
C857 C 0.24332 0.72154 0.86792 0.0
C858 C 0.21685 0.72207 0.88271 0.0
C859 C 0.21773 0.72464 0.91395 0.0
H860 H 0.2426 0.71958 0.84374 0.0
H861 H 0.24574 0.7517 0.14637 0.0
H862 H 0.40068 0.43903 0.40641 0.0
H863 H 0.42908 0.47941 0.43692 0.0
H864 H 0.47621 0.41998 0.48448 0.0
H865 H 0.44769 0.37971 0.45476 0.0
H866 H 0.46087 0.46145 0.52241 0.0
H867 H 0.50821 0.45627 0.42901 0.0
H868 H 0.5103 0.4553 0.37429 0.0
H869 H 0.47838 0.5389 0.3771 0.0
H870 H 0.47572 0.5402 0.43183 0.0
H871 H 0.58155 0.55908 0.58944 0.0
H872 H 0.55222 0.51921 0.55903 0.0
H873 H 0.50328 0.57959 0.51485 0.0
H874 H 0.53251 0.61943 0.54469 0.0
H875 H 0.51918 0.53805 0.47527 0.0
H876 H 0.47259 0.54312 0.56916 0.0
H877 H 0.4711 0.54382 0.62391 0.0
H878 H 0.50248 0.45996 0.62012 0.0
H879 H 0.50454 0.45893 0.56536 0.0
C880 C 0.41703 0.43456 0.42341 0.0
C881 C 0.42191 0.40607 0.42802 0.0
C882 C 0.43335 0.45767 0.44075 0.0
C883 C 0.45505 0.45273 0.46277 0.0
C884 C 0.4596 0.42435 0.46766 0.0
C885 C 0.44326 0.40131 0.45051 0.0
C886 C 0.47321 0.47697 0.48076 0.0
C887 C 0.47389 0.47802 0.51208 0.0
C888 C 0.48979 0.49889 0.46734 0.0
C889 C 0.49147 0.4982 0.43446 0.0
C890 C 0.50142 0.47435 0.41793 0.0
C891 C 0.50274 0.47376 0.38692 0.0
C892 C 0.4944 0.49699 0.37222 0.0
C893 C 0.48479 0.5209 0.38851 0.0
C894 C 0.48339 0.52159 0.41953 0.0
C895 C 0.5646 0.56389 0.57321 0.0
C896 C 0.55937 0.59251 0.56964 0.0
C897 C 0.54777 0.54107 0.55593 0.0
C898 C 0.52536 0.54644 0.53487 0.0
C899 C 0.52044 0.57494 0.53096 0.0
C900 C 0.53716 0.59771 0.54818 0.0
C901 C 0.50688 0.52246 0.51687 0.0
C902 C 0.50615 0.52148 0.48557 0.0
C903 C 0.49034 0.50054 0.5303 0.0
C904 C 0.48901 0.50108 0.5632 0.0
C905 C 0.4794 0.52493 0.58003 0.0
C906 C 0.47841 0.52537 0.61106 0.0
C907 C 0.48676 0.50198 0.62549 0.0
C908 C 0.49605 0.47808 0.60892 0.0
C909 C 0.49711 0.47754 0.57788 0.0
H910 H 0.48598 0.50236 0.64952 0.0
H911 H 0.49544 0.49649 0.34821 0.0
loop_
_geom_bond_atom_site_label_1
_geom_bond_atom_site_label_2
_geom_bond_distance
_geom_bond_site_symmetry_2
_ccdc_geom_bond_type
Mg0 O1 2.028 . S
Mg0 O7 1.986 . S
Mg0 O9 2.114 . S
Mg0 O10 2.251 . S
Mg0 O13 2.010 . S
O1 Mg0 2.028 . S
O1 C4 1.250 . S
O2 Mg3 2.028 . S
O2 C4 1.248 . S
Mg3 O2 2.028 . S
Mg3 O8 2.032 . S
Mg3 O10 2.079 . S
C4 O1 1.250 . S
C4 O2 1.248 . S
C5 O6 1.264 . S
C5 O13 1.249 . S
O6 C5 1.264 . S
O7 Mg0 1.986 . S
O7 C11 1.246 . S
O8 Mg3 2.032 . S
O8 C11 1.259 . S
O9 Mg0 2.114 . S
O9 C12 1.252 . S
O10 Mg0 2.251 . S
O10 Mg3 2.079 . S
O10 C12 1.273 . S
C11 O7 1.246 . S
C11 O8 1.259 . S
C12 O9 1.252 . S
C12 O10 1.273 . S
O13 Mg0 2.010 . S
O13 C5 1.249 . S
Mg14 O15 2.028 . S
Mg14 O21 1.986 . S
Mg14 O23 2.114 . S
Mg14 O24 2.251 . S
Mg14 O27 2.010 . S
O15 Mg14 2.028 . S
O15 C18 1.250 . S
O16 Mg17 2.028 . S
O16 C18 1.248 . S
Mg17 O16 2.028 . S
Mg17 O22 2.032 . S
Mg17 O24 2.079 . S
C18 O15 1.250 . S
C18 O16 1.248 . S
C19 O20 1.264 . S
C19 O27 1.249 . S
O20 C19 1.264 . S
O21 Mg14 1.986 . S
O21 C25 1.246 . S
O22 Mg17 2.032 . S
O22 C25 1.259 . S
O23 Mg14 2.114 . S
O23 C26 1.252 . S
O24 Mg14 2.251 . S
O24 Mg17 2.079 . S
O24 C26 1.273 . S
C25 O21 1.246 . S
C25 O22 1.259 . S
C26 O23 1.252 . S
C26 O24 1.273 . S
O27 Mg14 2.010 . S
O27 C19 1.249 . S
Mg28 O29 2.028 . S
Mg28 O35 1.986 . S
Mg28 O37 2.114 . S
Mg28 O38 2.251 . S
Mg28 O41 2.010 . S
O29 Mg28 2.028 . S
O29 C32 1.250 . S
O30 Mg31 2.028 . S
O30 C32 1.248 . S
Mg31 O30 2.028 . S
Mg31 O36 2.032 . S
Mg31 O38 2.079 . S
C32 O29 1.250 . S
C32 O30 1.248 . S
C33 O34 1.264 . S
C33 O41 1.249 . S
O34 C33 1.264 . S
O35 Mg28 1.986 . S
O35 C39 1.246 . S
O36 Mg31 2.032 . S
O36 C39 1.259 . S
O37 Mg28 2.114 . S
O37 C40 1.252 . S
O38 Mg28 2.251 . S
O38 Mg31 2.079 . S
O38 C40 1.273 . S
C39 O35 1.246 . S
C39 O36 1.259 . S
C40 O37 1.252 . S
C40 O38 1.273 . S
O41 Mg28 2.010 . S
O41 C33 1.249 . S
Mg42 O43 2.028 . S
Mg42 O49 1.986 . S
Mg42 O51 2.114 . S
Mg42 O52 2.251 . S
Mg42 O55 2.010 . S
O43 Mg42 2.028 . S
O43 C46 1.250 . S
O44 Mg45 2.028 . S
O44 C46 1.248 . S
Mg45 O44 2.028 . S
Mg45 O50 2.032 . S
Mg45 O52 2.079 . S
C46 O43 1.250 . S
C46 O44 1.248 . S
C47 O48 1.264 . S
C47 O55 1.249 . S
O48 C47 1.264 . S
O49 Mg42 1.986 . S
O49 C53 1.246 . S
O50 Mg45 2.032 . S
O50 C53 1.259 . S
O51 Mg42 2.114 . S
O51 C54 1.252 . S
O52 Mg42 2.251 . S
O52 Mg45 2.079 . S
O52 C54 1.273 . S
C53 O49 1.246 . S
C53 O50 1.259 . S
C54 O51 1.252 . S
C54 O52 1.273 . S
O55 Mg42 2.010 . S
O55 C47 1.249 . S
Mg56 O57 2.028 . S
Mg56 O63 1.986 . S
Mg56 O65 2.114 . S
Mg56 O66 2.251 . S
Mg56 O69 2.010 . S
O57 Mg56 2.028 . S
O57 C60 1.250 . S
O58 Mg59 2.028 . S
O58 C60 1.248 . S
Mg59 O58 2.028 . S
Mg59 O64 2.032 . S
Mg59 O66 2.079 . S
C60 O57 1.250 . S
C60 O58 1.248 . S
C61 O62 1.264 . S
C61 O69 1.249 . S
O62 C61 1.264 . S
O63 Mg56 1.986 . S
O63 C67 1.246 . S
O64 Mg59 2.032 . S
O64 C67 1.259 . S
O65 Mg56 2.114 . S
O65 C68 1.252 . S
O66 Mg56 2.251 . S
O66 Mg59 2.079 . S
O66 C68 1.273 . S
C67 O63 1.246 . S
C67 O64 1.259 . S
C68 O65 1.252 . S
C68 O66 1.273 . S
O69 Mg56 2.010 . S
O69 C61 1.249 . S
Mg70 O71 2.028 . S
Mg70 O77 1.986 . S
Mg70 O79 2.114 . S
Mg70 O80 2.251 . S
Mg70 O83 2.010 . S
O71 Mg70 2.028 . S
O71 C74 1.250 . S
O72 Mg73 2.028 . S
O72 C74 1.248 . S
Mg73 O72 2.028 . S
Mg73 O78 2.032 . S
Mg73 O80 2.079 . S
C74 O71 1.250 . S
C74 O72 1.248 . S
C75 O76 1.264 . S
C75 O83 1.249 . S
O76 C75 1.264 . S
O77 Mg70 1.986 . S
O77 C81 1.246 . S
O78 Mg73 2.032 . S
O78 C81 1.259 . S
O79 Mg70 2.114 . S
O79 C82 1.252 . S
O80 Mg70 2.251 . S
O80 Mg73 2.079 . S
O80 C82 1.273 . S
C81 O77 1.246 . S
C81 O78 1.259 . S
C82 O79 1.252 . S
C82 O80 1.273 . S
O83 Mg70 2.010 . S
O83 C75 1.249 . S
Mg84 O85 2.028 . S
Mg84 O91 1.986 . S
Mg84 O93 2.114 . S
Mg84 O94 2.251 . S
Mg84 O97 2.010 . S
O85 Mg84 2.028 . S
O85 C88 1.250 . S
O86 Mg87 2.028 . S
O86 C88 1.248 . S
Mg87 O86 2.028 . S
Mg87 O92 2.032 . S
Mg87 O94 2.079 . S
C88 O85 1.250 . S
C88 O86 1.248 . S
C89 O90 1.264 . S
C89 O97 1.249 . S
O90 C89 1.264 . S
O91 Mg84 1.986 . S
O91 C95 1.246 . S
O92 Mg87 2.032 . S
O92 C95 1.259 . S
O93 Mg84 2.114 . S
O93 C96 1.252 . S
O94 Mg84 2.251 . S
O94 Mg87 2.079 . S
O94 C96 1.273 . S
C95 O91 1.246 . S
C95 O92 1.259 . S
C96 O93 1.252 . S
C96 O94 1.273 . S
O97 Mg84 2.010 . S
O97 C89 1.249 . S
Mg98 O99 2.028 . S
Mg98 O105 1.986 . S
Mg98 O107 2.114 . S
Mg98 O108 2.251 . S
Mg98 O111 2.010 . S
O99 Mg98 2.028 . S
O99 C102 1.250 . S
O100 Mg101 2.028 . S
O100 C102 1.248 . S
Mg101 O100 2.028 . S
Mg101 O106 2.032 . S
Mg101 O108 2.079 . S
C102 O99 1.250 . S
C102 O100 1.248 . S
C103 O104 1.264 . S
C103 O111 1.249 . S
O104 C103 1.264 . S
O105 Mg98 1.986 . S
O105 C109 1.246 . S
O106 Mg101 2.032 . S
O106 C109 1.259 . S
O107 Mg98 2.114 . S
O107 C110 1.252 . S
O108 Mg98 2.251 . S
O108 Mg101 2.079 . S
O108 C110 1.273 . S
C109 O105 1.246 . S
C109 O106 1.259 . S
C110 O107 1.252 . S
C110 O108 1.273 . S
O111 Mg98 2.010 . S
O111 C103 1.249 . S
H112 C130 0.951 . S
H113 C132 0.951 . S
H114 C134 0.950 . S
H115 C135 0.950 . S
H116 C137 0.950 . S
H117 C140 0.950 . S
H118 C141 0.950 . S
H119 C143 0.950 . S
H120 C144 0.950 . S
H121 C145 0.951 . S
H122 C147 0.951 . S
H123 C149 0.950 . S
H124 C150 0.950 . S
H125 C152 0.950 . S
H126 C155 0.950 . S
H127 C156 0.950 . S
H128 C158 0.950 . S
H129 C159 0.950 . S
C130 H112 0.951 . S
C130 C131 1.366 . S
C130 C132 1.388 . S
C131 C130 1.366 . S
C131 C135 1.385 . S
C132 H113 0.951 . S
C132 C130 1.388 . S
C132 C133 1.366 . S
C133 C132 1.366 . S
C133 C134 1.414 . S
C133 C136 1.499 . S
C134 H114 0.950 . S
C134 C133 1.414 . S
C134 C135 1.374 . S
C135 H115 0.950 . S
C135 C131 1.385 . S
C135 C134 1.374 . S
C136 C133 1.499 . S
C136 C137 1.373 . S
C136 C138 1.389 . S
C137 H116 0.950 . S
C137 C136 1.373 . S
C137 C153 1.377 . S
C138 C136 1.389 . S
C138 C139 1.524 . S
C138 C152 1.377 . S
C139 C138 1.524 . S
C139 C140 1.397 . S
C139 C144 1.363 . S
C140 H117 0.950 . S
C140 C139 1.397 . S
C140 C141 1.334 . S
C141 H118 0.950 . S
C141 C140 1.334 . S
C141 C142 1.287 . S
C142 C141 1.287 . S
C142 C143 1.524 . S
C142 H161 0.913 . S
C143 H119 0.950 . S
C143 C142 1.524 . S
C143 C144 1.415 . S
C144 H120 0.950 . S
C144 C139 1.363 . S
C144 C143 1.415 . S
C145 H121 0.951 . S
C145 C146 1.366 . S
C145 C147 1.388 . S
C146 C145 1.366 . S
C146 C150 1.385 . S
C147 H122 0.951 . S
C147 C145 1.388 . S
C147 C148 1.366 . S
C148 C147 1.366 . S
C148 C149 1.414 . S
C148 C151 1.499 . S
C149 H123 0.950 . S
C149 C148 1.414 . S
C149 C150 1.374 . S
C150 H124 0.950 . S
C150 C146 1.385 . S
C150 C149 1.374 . S
C151 C148 1.499 . S
C151 C152 1.373 . S
C151 C153 1.389 . S
C152 H125 0.950 . S
C152 C138 1.377 . S
C152 C151 1.373 . S
C153 C137 1.377 . S
C153 C151 1.389 . S
C153 C154 1.524 . S
C154 C153 1.524 . S
C154 C155 1.397 . S
C154 C159 1.363 . S
C155 H126 0.950 . S
C155 C154 1.397 . S
C155 C156 1.334 . S
C156 H127 0.950 . S
C156 C155 1.334 . S
C156 C157 1.287 . S
C157 C156 1.287 . S
C157 C158 1.524 . S
C157 H160 0.999 . S
C158 H128 0.950 . S
C158 C157 1.524 . S
C158 C159 1.415 . S
C159 H129 0.950 . S
C159 C154 1.363 . S
C159 C158 1.415 . S
H160 C157 0.999 . S
H161 C142 0.913 . S
H162 C180 0.951 . S
H163 C182 0.951 . S
H164 C184 0.950 . S
H165 C185 0.950 . S
H166 C187 0.950 . S
H167 C190 0.950 . S
H168 C191 0.950 . S
H169 C193 0.950 . S
H170 C194 0.950 . S
H171 C195 0.951 . S
H172 C197 0.951 . S
H173 C199 0.950 . S
H174 C200 0.950 . S
H175 C202 0.950 . S
H176 C205 0.950 . S
H177 C206 0.950 . S
H178 C208 0.950 . S
H179 C209 0.950 . S
C180 H162 0.951 . S
C180 C181 1.366 . S
C180 C182 1.388 . S
C181 C180 1.366 . S
C181 C185 1.385 . S
C182 H163 0.951 . S
C182 C180 1.388 . S
C182 C183 1.366 . S
C183 C182 1.366 . S
C183 C184 1.414 . S
C183 C186 1.499 . S
C184 H164 0.950 . S
C184 C183 1.414 . S
C184 C185 1.374 . S
C185 H165 0.950 . S
C185 C181 1.385 . S
C185 C184 1.374 . S
C186 C183 1.499 . S
C186 C187 1.373 . S
C186 C188 1.389 . S
C187 H166 0.950 . S
C187 C186 1.373 . S
C187 C203 1.377 . S
C188 C186 1.389 . S
C188 C189 1.524 . S
C188 C202 1.377 . S
C189 C188 1.524 . S
C189 C190 1.397 . S
C189 C194 1.363 . S
C190 H167 0.950 . S
C190 C189 1.397 . S
C190 C191 1.334 . S
C191 H168 0.950 . S
C191 C190 1.334 . S
C191 C192 1.287 . S
C192 C191 1.287 . S
C192 C193 1.524 . S
C192 H211 0.913 . S
C193 H169 0.950 . S
C193 C192 1.524 . S
C193 C194 1.415 . S
C194 H170 0.950 . S
C194 C189 1.363 . S
C194 C193 1.415 . S
C195 H171 0.951 . S
C195 C196 1.366 . S
C195 C197 1.388 . S
C196 C195 1.366 . S
C196 C200 1.385 . S
C197 H172 0.951 . S
C197 C195 1.388 . S
C197 C198 1.366 . S
C198 C197 1.366 . S
C198 C199 1.414 . S
C198 C201 1.499 . S
C199 H173 0.950 . S
C199 C198 1.414 . S
C199 C200 1.374 . S
C200 H174 0.950 . S
C200 C196 1.385 . S
C200 C199 1.374 . S
C201 C198 1.499 . S
C201 C202 1.373 . S
C201 C203 1.389 . S
C202 H175 0.950 . S
C202 C188 1.377 . S
C202 C201 1.373 . S
C203 C187 1.377 . S
C203 C201 1.389 . S
C203 C204 1.524 . S
C204 C203 1.524 . S
C204 C205 1.397 . S
C204 C209 1.363 . S
C205 H176 0.950 . S
C205 C204 1.397 . S
C205 C206 1.334 . S
C206 H177 0.950 . S
C206 C205 1.334 . S
C206 C207 1.287 . S
C207 C206 1.287 . S
C207 C208 1.524 . S
C207 H210 0.999 . S
C208 H178 0.950 . S
C208 C207 1.524 . S
C208 C209 1.415 . S
C209 H179 0.950 . S
C209 C204 1.363 . S
C209 C208 1.415 . S
H210 C207 0.999 . S
H211 C192 0.913 . S
H212 C230 0.951 . S
H213 C232 0.951 . S
H214 C234 0.950 . S
H215 C235 0.950 . S
H216 C237 0.950 . S
H217 C240 0.950 1_554 S
H218 C241 0.936 1_554 S
H219 C243 0.950 . S
H220 C244 0.950 . S
H221 C245 0.951 . S
H222 C247 0.951 . S
H223 C249 0.950 . S
H224 C250 0.950 . S
H225 C252 0.950 . S
H226 C255 0.950 1_556 S
H227 C256 0.950 . S
H228 C258 0.950 . S
H229 C259 0.950 . S
C230 H212 0.951 . S
C230 C231 1.366 . S
C230 C232 1.388 . S
C231 C230 1.366 . S
C231 C235 1.385 . S
C232 H213 0.951 . S
C232 C230 1.388 . S
C232 C233 1.366 . S
C233 C232 1.366 . S
C233 C234 1.414 . S
C233 C236 1.499 . S
C234 H214 0.950 . S
C234 C233 1.414 . S
C234 C235 1.374 . S
C235 H215 0.950 . S
C235 C231 1.385 . S
C235 C234 1.374 . S
C236 C233 1.499 . S
C236 C237 1.373 1_545 S
C236 C238 1.389 1_554 S
C237 H216 0.950 . S
C237 C236 1.373 1_565 S
C237 C253 1.377 . S
C238 C236 1.389 1_556 S
C238 C239 1.524 . S
C238 C252 1.377 . S
C239 C238 1.524 . S
C239 C240 1.397 . S
C239 C244 1.363 . S
C240 H217 0.950 1_556 S
C240 C239 1.397 . S
C240 C241 1.334 . S
C241 H218 0.936 1_556 S
C241 C240 1.334 . S
C241 C242 1.287 . S
C242 C241 1.287 . S
C242 C243 1.524 . S
C242 H261 0.913 . S
C243 H219 0.950 . S
C243 C242 1.524 . S
C243 C244 1.415 . S
C244 H220 0.950 . S
C244 C239 1.363 . S
C244 C243 1.415 . S
C245 H221 0.951 . S
C245 C246 1.366 . S
C245 C247 1.388 . S
C246 C245 1.366 . S
C246 C250 1.385 . S
C247 H222 0.951 . S
C247 C245 1.388 . S
C247 C248 1.366 . S
C248 C247 1.366 . S
C248 C249 1.414 . S
C248 C251 1.499 . S
C249 H223 0.950 . S
C249 C248 1.414 . S
C249 C250 1.374 . S
C250 H224 0.950 . S
C250 C246 1.385 . S
C250 C249 1.374 . S
C251 C248 1.499 . S
C251 C252 1.373 1_565 S
C251 C253 1.389 1_556 S
C252 H225 0.950 . S
C252 C238 1.377 . S
C252 C251 1.373 1_545 S
C253 C237 1.377 . S
C253 C251 1.389 1_554 S
C253 C254 1.524 . S
C254 C253 1.524 . S
C254 C255 1.397 . S
C254 C259 1.363 . S
C255 H226 0.950 1_554 S
C255 C254 1.397 . S
C255 C256 1.334 . S
C256 H227 0.950 . S
C256 C255 1.334 . S
C256 C257 1.287 . S
C257 C256 1.287 . S
C257 C258 1.524 . S
C257 H260 0.999 . S
C258 H228 0.950 . S
C258 C257 1.524 . S
C258 C259 1.415 . S
C259 H229 0.950 . S
C259 C254 1.363 . S
C259 C258 1.415 . S
H260 C257 0.999 . S
H261 C242 0.913 . S
H262 C280 0.951 . S
H263 C282 0.951 . S
H264 C284 0.950 . S
H265 C285 0.950 . S
H266 C287 0.950 . S
H267 C290 0.950 . S
H268 C291 0.950 . S
H269 C293 0.950 . S
H270 C294 0.950 . S
H271 C295 0.951 . S
H272 C297 0.951 . S
H273 C299 0.950 . S
H274 C300 0.950 . S
H275 C302 0.950 . S
H276 C305 0.950 . S
H277 C306 0.950 . S
H278 C308 0.950 . S
H279 C309 0.950 . S
C280 H262 0.951 . S
C280 C281 1.366 . S
C280 C282 1.388 . S
C281 C280 1.366 . S
C281 C285 1.385 . S
C282 H263 0.951 . S
C282 C280 1.388 . S
C282 C283 1.366 . S
C283 C282 1.366 . S
C283 C284 1.414 . S
C283 C286 1.499 . S
C284 H264 0.950 . S
C284 C283 1.414 . S
C284 C285 1.374 . S
C285 H265 0.950 . S
C285 C281 1.385 . S
C285 C284 1.374 . S
C286 C283 1.499 . S
C286 C287 1.373 . S
C286 C288 1.389 1_655 S
C287 H266 0.950 . S
C287 C286 1.373 . S
C287 C303 1.377 . S
C288 C286 1.389 1_455 S
C288 C289 1.524 . S
C288 C302 1.377 . S
C289 C288 1.524 . S
C289 C290 1.397 . S
C289 C294 1.363 . S
C290 H267 0.950 . S
C290 C289 1.397 . S
C290 C291 1.334 . S
C291 H268 0.950 . S
C291 C290 1.334 . S
C291 C292 1.287 . S
C292 C291 1.287 . S
C292 C293 1.524 . S
C292 H311 0.913 . S
C293 H269 0.950 . S
C293 C292 1.524 . S
C293 C294 1.415 . S
C294 H270 0.950 . S
C294 C289 1.363 . S
C294 C293 1.415 . S
C295 H271 0.951 . S
C295 C296 1.366 . S
C295 C297 1.388 . S
C296 C295 1.366 . S
C296 C300 1.385 . S
C297 H272 0.951 . S
C297 C295 1.388 . S
C297 C298 1.366 . S
C298 C297 1.366 . S
C298 C299 1.414 . S
C298 C301 1.499 . S
C299 H273 0.950 . S
C299 C298 1.414 . S
C299 C300 1.374 . S
C300 H274 0.950 . S
C300 C296 1.385 . S
C300 C299 1.374 . S
C301 C298 1.499 . S
C301 C302 1.373 . S
C301 C303 1.389 1_455 S
C302 H275 0.950 . S
C302 C288 1.377 . S
C302 C301 1.373 . S
C303 C287 1.377 . S
C303 C301 1.389 1_655 S
C303 C304 1.524 . S
C304 C303 1.524 . S
C304 C305 1.397 . S
C304 C309 1.363 . S
C305 H276 0.950 . S
C305 C304 1.397 . S
C305 C306 1.334 . S
C306 H277 0.950 . S
C306 C305 1.334 . S
C306 C307 1.287 . S
C307 C306 1.287 . S
C307 C308 1.524 . S
C307 H310 0.999 . S
C308 H278 0.950 . S
C308 C307 1.524 . S
C308 C309 1.415 . S
C309 H279 0.950 . S
C309 C304 1.363 . S
C309 C308 1.415 . S
H310 C307 0.999 . S
H311 C292 0.913 . S
H312 C330 0.951 . S
H313 C332 0.951 . S
H314 C334 0.950 . S
H315 C335 0.950 . S
H316 C337 0.950 . S
H317 C340 0.950 . S
H318 C341 0.950 . S
H319 C343 0.950 . S
H320 C344 0.950 . S
H321 C345 0.951 . S
H322 C347 0.951 . S
H323 C349 0.950 . S
H324 C350 0.950 . S
H325 C352 0.950 . S
H326 C355 0.950 . S
H327 C356 0.950 . S
H328 C358 0.950 . S
H329 C359 0.950 . S
C330 H312 0.951 . S
C330 C331 1.366 . S
C330 C332 1.388 . S
C331 C330 1.366 . S
C331 C335 1.385 . S
C332 H313 0.951 . S
C332 C330 1.388 . S
C332 C333 1.366 . S
C333 C332 1.366 . S
C333 C334 1.414 . S
C333 C336 1.499 . S
C334 H314 0.950 . S
C334 C333 1.414 . S
C334 C335 1.374 . S
C335 H315 0.950 . S
C335 C331 1.385 . S
C335 C334 1.374 . S
C336 C333 1.499 . S
C336 C337 1.373 . S
C336 C338 1.389 1_565 S
C337 H316 0.950 . S
C337 C336 1.373 . S
C337 C353 1.377 . S
C338 C336 1.389 1_545 S
C338 C339 1.524 . S
C338 C352 1.377 . S
C339 C338 1.524 . S
C339 C340 1.397 . S
C339 C344 1.363 . S
C340 H317 0.950 . S
C340 C339 1.397 . S
C340 C341 1.334 . S
C341 H318 0.950 . S
C341 C340 1.334 . S
C341 C342 1.287 . S
C342 C341 1.287 . S
C342 C343 1.524 . S
C342 H361 0.913 . S
C343 H319 0.950 . S
C343 C342 1.524 . S
C343 C344 1.415 . S
C344 H320 0.950 . S
C344 C339 1.363 . S
C344 C343 1.415 . S
C345 H321 0.951 . S
C345 C346 1.366 . S
C345 C347 1.388 . S
C346 C345 1.366 . S
C346 C350 1.385 . S
C347 H322 0.951 . S
C347 C345 1.388 . S
C347 C348 1.366 . S
C348 C347 1.366 . S
C348 C349 1.414 . S
C348 C351 1.499 . S
C349 H323 0.950 . S
C349 C348 1.414 . S
C349 C350 1.374 . S
C350 H324 0.950 . S
C350 C346 1.385 . S
C350 C349 1.374 . S
C351 C348 1.499 . S
C351 C352 1.373 . S
C351 C353 1.389 1_545 S
C352 H325 0.950 . S
C352 C338 1.377 . S
C352 C351 1.373 . S
C353 C337 1.377 . S
C353 C351 1.389 1_565 S
C353 C354 1.524 . S
C354 C353 1.524 . S
C354 C355 1.397 . S
C354 C359 1.363 . S
C355 H326 0.950 . S
C355 C354 1.397 . S
C355 C356 1.334 . S
C356 H327 0.950 . S
C356 C355 1.334 . S
C356 C357 1.287 . S
C357 C356 1.287 . S
C357 C358 1.524 . S
C357 H360 0.999 . S
C358 H328 0.950 . S
C358 C357 1.524 . S
C358 C359 1.415 . S
C359 H329 0.950 . S
C359 C354 1.363 . S
C359 C358 1.415 . S
H360 C357 0.999 . S
H361 C342 0.913 . S
H362 C380 0.951 . S
H363 C382 0.951 . S
H364 C384 0.950 . S
H365 C385 0.950 . S
H366 C387 0.956 . S
H367 C390 0.950 . S
H368 C391 0.950 . S
H369 C393 0.950 . S
H370 C394 0.950 . S
H371 C395 0.951 . S
H372 C397 0.951 . S
H373 C399 0.950 . S
H374 C400 0.950 . S
H375 C402 0.950 . S
H376 C405 0.950 . S
H377 C406 0.950 . S
H378 C408 0.950 . S
H379 C409 0.950 . S
C380 H362 0.951 . S
C380 C381 1.366 . S
C380 C382 1.388 . S
C381 C380 1.366 . S
C381 C385 1.385 . S
C382 H363 0.951 . S
C382 C380 1.388 . S
C382 C383 1.366 . S
C383 C382 1.366 . S
C383 C384 1.414 . S
C383 C386 1.499 . S
C384 H364 0.950 . S
C384 C383 1.414 . S
C384 C385 1.374 . S
C385 H365 0.950 . S
C385 C381 1.385 . S
C385 C384 1.374 . S
C386 C383 1.499 . S
C386 C387 1.353 1_655 S
C386 C388 1.389 . S
C387 H366 0.956 . S
C387 C386 1.353 1_455 S
C387 C403 1.392 1_556 S
C388 C386 1.389 . S
C388 C389 1.524 . S
C388 C402 1.377 1_556 S
C389 C388 1.524 . S
C389 C390 1.397 . S
C389 C394 1.363 . S
C390 H367 0.950 . S
C390 C389 1.397 . S
C390 C391 1.334 . S
C391 H368 0.950 . S
C391 C390 1.334 . S
C391 C392 1.287 . S
C392 C391 1.287 . S
C392 C393 1.524 . S
C392 H411 0.913 . S
C393 H369 0.950 . S
C393 C392 1.524 . S
C393 C394 1.415 . S
C394 H370 0.950 . S
C394 C389 1.363 . S
C394 C393 1.415 . S
C395 H371 0.951 . S
C395 C396 1.366 . S
C395 C397 1.388 . S
C396 C395 1.366 . S
C396 C400 1.385 . S
C397 H372 0.951 . S
C397 C395 1.388 . S
C397 C398 1.366 . S
C398 C397 1.366 . S
C398 C399 1.414 . S
C398 C401 1.499 . S
C399 H373 0.950 . S
C399 C398 1.414 . S
C399 C400 1.374 . S
C400 H374 0.950 . S
C400 C396 1.385 . S
C400 C399 1.374 . S
C401 C398 1.499 . S
C401 C402 1.373 1_455 S
C401 C403 1.389 . S
C402 H375 0.950 . S
C402 C388 1.377 1_554 S
C402 C401 1.373 1_655 S
C403 C387 1.392 1_554 S
C403 C401 1.389 . S
C403 C404 1.524 . S
C404 C403 1.524 . S
C404 C405 1.397 . S
C404 C409 1.363 . S
C405 H376 0.950 . S
C405 C404 1.397 . S
C405 C406 1.334 . S
C406 H377 0.950 . S
C406 C405 1.334 . S
C406 C407 1.287 . S
C407 C406 1.287 . S
C407 C408 1.524 . S
C407 H410 0.999 . S
C408 H378 0.950 . S
C408 C407 1.524 . S
C408 C409 1.415 . S
C409 H379 0.950 . S
C409 C404 1.363 . S
C409 C408 1.415 . S
H410 C407 0.999 . S
H411 C392 0.913 . S
H412 C430 0.951 . S
H413 C432 0.951 . S
H414 C434 0.950 . S
H415 C435 0.950 . S
H416 C437 0.950 . S
H417 C440 0.950 . S
H418 C441 0.950 . S
H419 C443 0.950 . S
H420 C444 0.950 . S
H421 C445 0.951 . S
H422 C447 0.951 . S
H423 C449 0.950 . S
H424 C450 0.950 . S
H425 C452 0.950 . S
H426 C455 0.950 . S
H427 C456 0.950 . S
H428 C458 0.950 . S
H429 C459 0.950 . S
C430 H412 0.951 . S
C430 C431 1.366 . S
C430 C432 1.388 . S
C431 C430 1.366 . S
C431 C435 1.385 . S
C432 H413 0.951 . S
C432 C430 1.388 . S
C432 C433 1.366 . S
C433 C432 1.366 . S
C433 C434 1.414 . S
C433 C436 1.499 . S
C434 H414 0.950 . S
C434 C433 1.414 . S
C434 C435 1.374 . S
C435 H415 0.950 . S
C435 C431 1.385 . S
C435 C434 1.374 . S
C436 C433 1.499 . S
C436 C437 1.373 . S
C436 C438 1.389 . S
C437 H416 0.950 . S
C437 C436 1.373 . S
C437 C453 1.377 . S
C438 C436 1.389 . S
C438 C439 1.524 . S
C438 C452 1.377 . S
C439 C438 1.524 . S
C439 C440 1.397 . S
C439 C444 1.363 . S
C440 H417 0.950 . S
C440 C439 1.397 . S
C440 C441 1.334 . S
C441 H418 0.950 . S
C441 C440 1.334 . S
C441 C442 1.287 . S
C442 C441 1.287 . S
C442 C443 1.524 . S
C442 H461 0.913 . S
C443 H419 0.950 . S
C443 C442 1.524 . S
C443 C444 1.415 . S
C444 H420 0.950 . S
C444 C439 1.363 . S
C444 C443 1.415 . S
C445 H421 0.951 . S
C445 C446 1.366 . S
C445 C447 1.388 . S
C446 C445 1.366 . S
C446 C450 1.385 . S
C447 H422 0.951 . S
C447 C445 1.388 . S
C447 C448 1.366 . S
C448 C447 1.366 . S
C448 C449 1.414 . S
C448 C451 1.499 . S
C449 H423 0.950 . S
C449 C448 1.414 . S
C449 C450 1.374 . S
C450 H424 0.950 . S
C450 C446 1.385 . S
C450 C449 1.374 . S
C451 C448 1.499 . S
C451 C452 1.373 . S
C451 C453 1.389 . S
C452 H425 0.950 . S
C452 C438 1.377 . S
C452 C451 1.373 . S
C453 C437 1.377 . S
C453 C451 1.389 . S
C453 C454 1.524 . S
C454 C453 1.524 . S
C454 C455 1.397 . S
C454 C459 1.363 . S
C455 H426 0.950 . S
C455 C454 1.397 . S
C455 C456 1.334 . S
C456 H427 0.950 . S
C456 C455 1.334 . S
C456 C457 1.287 . S
C457 C456 1.287 . S
C457 C458 1.524 . S
C457 H460 0.999 . S
C458 H428 0.950 . S
C458 C457 1.524 . S
C458 C459 1.415 . S
C459 H429 0.950 . S
C459 C454 1.363 . S
C459 C458 1.415 . S
H460 C457 0.999 . S
H461 C442 0.913 . S
H462 C480 0.951 . S
H463 C482 0.951 . S
H464 C484 0.950 . S
H465 C485 0.950 . S
H466 C487 0.950 . S
H467 C490 0.950 . S
H468 C491 0.950 . S
H469 C493 0.950 . S
H470 C494 0.950 . S
H471 C495 0.951 . S
H472 C497 0.951 . S
H473 C499 0.950 . S
H474 C500 0.950 . S
H475 C502 0.950 . S
H476 C505 0.950 . S
H477 C506 0.950 . S
H478 C508 0.950 . S
H479 C509 0.950 . S
C480 H462 0.951 . S
C480 C481 1.366 . S
C480 C482 1.388 . S
C481 C480 1.366 . S
C481 C485 1.385 . S
C482 H463 0.951 . S
C482 C480 1.388 . S
C482 C483 1.366 . S
C483 C482 1.366 . S
C483 C484 1.414 . S
C483 C486 1.499 . S
C484 H464 0.950 . S
C484 C483 1.414 . S
C484 C485 1.374 . S
C485 H465 0.950 . S
C485 C481 1.385 . S
C485 C484 1.374 . S
C486 C483 1.499 . S
C486 C487 1.373 . S
C486 C488 1.389 . S
C487 H466 0.950 . S
C487 C486 1.373 . S
C487 C503 1.377 . S
C488 C486 1.389 . S
C488 C489 1.524 . S
C488 C502 1.377 . S
C489 C488 1.524 . S
C489 C490 1.397 . S
C489 C494 1.363 . S
C490 H467 0.950 . S
C490 C489 1.397 . S
C490 C491 1.334 . S
C491 H468 0.950 . S
C491 C490 1.334 . S
C491 C492 1.287 . S
C492 C491 1.287 . S
C492 C493 1.524 . S
C492 H511 0.913 . S
C493 H469 0.950 . S
C493 C492 1.524 . S
C493 C494 1.415 . S
C494 H470 0.950 . S
C494 C489 1.363 . S
C494 C493 1.415 . S
C495 H471 0.951 . S
C495 C496 1.366 . S
C495 C497 1.388 . S
C496 C495 1.366 . S
C496 C500 1.385 . S
C497 H472 0.951 . S
C497 C495 1.388 . S
C497 C498 1.366 . S
C498 C497 1.366 . S
C498 C499 1.414 . S
C498 C501 1.499 . S
C499 H473 0.950 . S
C499 C498 1.414 . S
C499 C500 1.374 . S
C500 H474 0.950 . S
C500 C496 1.385 . S
C500 C499 1.374 . S
C501 C498 1.499 . S
C501 C502 1.373 . S
C501 C503 1.389 . S
C502 H475 0.950 . S
C502 C488 1.377 . S
C502 C501 1.373 . S
C503 C487 1.377 . S
C503 C501 1.389 . S
C503 C504 1.524 . S
C504 C503 1.524 . S
C504 C505 1.397 . S
C504 C509 1.363 . S
C505 H476 0.950 . S
C505 C504 1.397 . S
C505 C506 1.334 . S
C506 H477 0.950 . S
C506 C505 1.334 . S
C506 C507 1.287 . S
C507 C506 1.287 . S
C507 C508 1.524 . S
C507 H510 0.999 . S
C508 H478 0.950 . S
C508 C507 1.524 . S
C508 C509 1.415 . S
C509 H479 0.950 . S
C509 C504 1.363 . S
C509 C508 1.415 . S
H510 C507 0.999 . S
H511 C492 0.913 . S
H512 C530 0.951 . S
H513 C532 0.951 . S
H514 C534 0.950 . S
H515 C535 0.950 . S
H516 C537 0.950 . S
H517 C540 0.950 . S
H518 C541 0.950 . S
H519 C543 0.950 . S
H520 C544 0.950 . S
H521 C545 0.951 . S
H522 C547 0.951 . S
H523 C549 0.950 . S
H524 C550 0.950 . S
H525 C552 0.950 . S
H526 C555 0.950 . S
H527 C556 0.950 . S
H528 C558 0.950 . S
H529 C559 0.950 . S
C530 H512 0.951 . S
C530 C531 1.366 . S
C530 C532 1.388 . S
C531 C530 1.366 . S
C531 C535 1.385 . S
C532 H513 0.951 . S
C532 C530 1.388 . S
C532 C533 1.366 . S
C533 C532 1.366 . S
C533 C534 1.414 . S
C533 C536 1.499 . S
C534 H514 0.950 . S
C534 C533 1.414 . S
C534 C535 1.374 . S
C535 H515 0.950 . S
C535 C531 1.385 . S
C535 C534 1.374 . S
C536 C533 1.499 . S
C536 C537 1.373 . S
C536 C538 1.389 . S
C537 H516 0.950 . S
C537 C536 1.373 . S
C537 C553 1.377 . S
C538 C536 1.389 . S
C538 C539 1.524 . S
C538 C552 1.377 . S
C539 C538 1.524 . S
C539 C540 1.397 . S
C539 C544 1.363 . S
C540 H517 0.950 . S
C540 C539 1.397 . S
C540 C541 1.334 . S
C541 H518 0.950 . S
C541 C540 1.334 . S
C541 C542 1.287 . S
C542 C541 1.287 . S
C542 C543 1.524 . S
C542 H561 0.913 . S
C543 H519 0.950 . S
C543 C542 1.524 . S
C543 C544 1.415 . S
C544 H520 0.950 . S
C544 C539 1.363 . S
C544 C543 1.415 . S
C545 H521 0.951 . S
C545 C546 1.366 . S
C545 C547 1.388 . S
C546 C545 1.366 . S
C546 C550 1.385 . S
C547 H522 0.951 . S
C547 C545 1.388 . S
C547 C548 1.366 . S
C548 C547 1.366 . S
C548 C549 1.414 . S
C548 C551 1.499 . S
C549 H523 0.950 . S
C549 C548 1.414 . S
C549 C550 1.374 . S
C550 H524 0.950 . S
C550 C546 1.385 . S
C550 C549 1.374 . S
C551 C548 1.499 . S
C551 C552 1.373 . S
C551 C553 1.389 . S
C552 H525 0.950 . S
C552 C538 1.377 . S
C552 C551 1.373 . S
C553 C537 1.377 . S
C553 C551 1.389 . S
C553 C554 1.524 . S
C554 C553 1.524 . S
C554 C555 1.397 . S
C554 C559 1.363 . S
C555 H526 0.950 . S
C555 C554 1.397 . S
C555 C556 1.334 . S
C556 H527 0.950 . S
C556 C555 1.334 . S
C556 C557 1.287 . S
C557 C556 1.287 . S
C557 C558 1.524 . S
C557 H560 0.999 . S
C558 H528 0.950 . S
C558 C557 1.524 . S
C558 C559 1.415 . S
C559 H529 0.950 . S
C559 C554 1.363 . S
C559 C558 1.415 . S
H560 C557 0.999 . S
H561 C542 0.913 . S
H562 C580 0.951 . S
H563 C582 0.951 . S
H564 C584 0.950 . S
H565 C585 0.950 . S
H566 C587 0.950 . S
H567 C590 0.972 . S
H568 C591 0.950 1_556 S
H569 C593 0.950 . S
H570 C594 0.950 . S
H571 C595 0.951 . S
H572 C597 0.951 . S
H573 C599 0.950 . S
H574 C600 0.950 . S
H575 C602 0.950 . S
H576 C605 0.957 . S
H577 C606 0.950 1_554 S
H578 C608 0.950 . S
H579 C609 0.950 . S
C580 H562 0.951 . S
C580 C581 1.366 . S
C580 C582 1.388 . S
C581 C580 1.366 . S
C581 C585 1.385 . S
C582 H563 0.951 . S
C582 C580 1.388 . S
C582 C583 1.366 . S
C583 C582 1.366 . S
C583 C584 1.414 . S
C583 C586 1.499 . S
C584 H564 0.950 . S
C584 C583 1.414 . S
C584 C585 1.374 . S
C585 H565 0.950 . S
C585 C581 1.385 . S
C585 C584 1.374 . S
C586 C583 1.499 . S
C586 C587 1.373 . S
C586 C588 1.389 1_556 S
C587 H566 0.950 . S
C587 C586 1.373 . S
C587 C603 1.377 . S
C588 C586 1.389 1_554 S
C588 C589 1.524 . S
C588 C602 1.377 . S
C589 C588 1.524 . S
C589 C590 1.380 1_554 S
C589 C594 1.363 . S
C590 H567 0.972 . S
C590 C589 1.380 1_556 S
C590 C591 1.329 1_556 S
C591 H568 0.950 1_554 S
C591 C590 1.329 1_554 S
C591 C592 1.287 . S
C592 C591 1.287 . S
C592 C593 1.524 . S
C592 H611 0.913 . S
C593 H569 0.950 . S
C593 C592 1.524 . S
C593 C594 1.415 . S
C594 H570 0.950 . S
C594 C589 1.363 . S
C594 C593 1.415 . S
C595 H571 0.951 . S
C595 C596 1.366 . S
C595 C597 1.388 . S
C596 C595 1.366 . S
C596 C600 1.385 . S
C597 H572 0.951 . S
C597 C595 1.388 . S
C597 C598 1.366 . S
C598 C597 1.366 . S
C598 C599 1.414 . S
C598 C601 1.499 . S
C599 H573 0.950 . S
C599 C598 1.414 . S
C599 C600 1.374 . S
C600 H574 0.950 . S
C600 C596 1.385 . S
C600 C599 1.374 . S
C601 C598 1.499 . S
C601 C602 1.373 . S
C601 C603 1.389 1_554 S
C602 H575 0.950 . S
C602 C588 1.377 . S
C602 C601 1.373 . S
C603 C587 1.377 . S
C603 C601 1.389 1_556 S
C603 C604 1.524 . S
C604 C603 1.524 . S
C604 C605 1.391 1_556 S
C604 C609 1.363 . S
C605 H576 0.957 . S
C605 C604 1.391 1_554 S
C605 C606 1.332 1_554 S
C606 H577 0.950 1_556 S
C606 C605 1.332 1_556 S
C606 C607 1.287 . S
C607 C606 1.287 . S
C607 C608 1.524 . S
C607 H610 0.999 . S
C608 H578 0.950 . S
C608 C607 1.524 . S
C608 C609 1.415 . S
C609 H579 0.950 . S
C609 C604 1.363 . S
C609 C608 1.415 . S
H610 C607 0.999 . S
H611 C592 0.913 . S
H612 C630 0.951 . S
H613 C632 0.951 . S
H614 C634 0.950 . S
H615 C635 0.950 . S
H616 C637 0.950 . S
H617 C640 0.950 . S
H618 C641 0.950 . S
H619 C643 0.950 . S
H620 C644 0.950 . S
H621 C645 0.951 . S
H622 C647 0.951 . S
H623 C649 0.950 . S
H624 C650 0.950 . S
H625 C652 0.950 . S
H626 C655 0.950 . S
H627 C656 0.950 . S
H628 C658 0.950 . S
H629 C659 0.950 . S
C630 H612 0.951 . S
C630 C631 1.366 . S
C630 C632 1.388 . S
C631 C630 1.366 . S
C631 C635 1.385 . S
C632 H613 0.951 . S
C632 C630 1.388 . S
C632 C633 1.366 . S
C633 C632 1.366 . S
C633 C634 1.414 . S
C633 C636 1.499 . S
C634 H614 0.950 . S
C634 C633 1.414 . S
C634 C635 1.374 . S
C635 H615 0.950 . S
C635 C631 1.385 . S
C635 C634 1.374 . S
C636 C633 1.499 . S
C636 C637 1.373 . S
C636 C638 1.389 . S
C637 H616 0.950 . S
C637 C636 1.373 . S
C637 C653 1.377 1_565 S
C638 C636 1.389 . S
C638 C639 1.524 . S
C638 C652 1.377 1_565 S
C639 C638 1.524 . S
C639 C640 1.397 . S
C639 C644 1.363 1_565 S
C640 H617 0.950 . S
C640 C639 1.397 . S
C640 C641 1.334 . S
C641 H618 0.950 . S
C641 C640 1.334 . S
C641 C642 1.287 . S
C642 C641 1.287 . S
C642 C643 1.524 1_565 S
C642 H661 0.913 . S
C643 H619 0.950 . S
C643 C642 1.524 1_545 S
C643 C644 1.415 . S
C644 H620 0.950 . S
C644 C639 1.363 1_545 S
C644 C643 1.415 . S
C645 H621 0.951 . S
C645 C646 1.366 . S
C645 C647 1.388 . S
C646 C645 1.366 . S
C646 C650 1.385 . S
C647 H622 0.951 . S
C647 C645 1.388 . S
C647 C648 1.366 . S
C648 C647 1.366 . S
C648 C649 1.414 . S
C648 C651 1.499 . S
C649 H623 0.950 . S
C649 C648 1.414 . S
C649 C650 1.374 . S
C650 H624 0.950 . S
C650 C646 1.385 . S
C650 C649 1.374 . S
C651 C648 1.499 . S
C651 C652 1.373 . S
C651 C653 1.389 . S
C652 H625 0.950 . S
C652 C638 1.377 1_545 S
C652 C651 1.373 . S
C653 C637 1.377 1_545 S
C653 C651 1.389 . S
C653 C654 1.524 . S
C654 C653 1.524 . S
C654 C655 1.397 . S
C654 C659 1.363 1_545 S
C655 H626 0.950 . S
C655 C654 1.397 . S
C655 C656 1.334 . S
C656 H627 0.950 . S
C656 C655 1.334 . S
C656 C657 1.287 . S
C657 C656 1.287 . S
C657 C658 1.524 1_545 S
C657 H660 0.999 . S
C658 H628 0.950 . S
C658 C657 1.524 1_565 S
C658 C659 1.415 . S
C659 H629 0.950 . S
C659 C654 1.363 1_565 S
C659 C658 1.415 . S
H660 C657 0.999 . S
H661 C642 0.913 . S
H662 C680 0.951 . S
H663 C682 0.951 . S
H664 C684 0.950 . S
H665 C685 0.950 . S
H666 C687 0.950 . S
H667 C690 0.950 . S
H668 C691 0.950 . S
H669 C693 0.950 . S
H670 C694 0.950 . S
H671 C695 0.951 . S
H672 C697 0.951 . S
H673 C699 0.950 . S
H674 C700 0.950 . S
H675 C702 0.950 . S
H676 C705 0.950 . S
H677 C706 0.950 . S
H678 C708 0.950 . S
H679 C709 0.950 . S
C680 H662 0.951 . S
C680 C681 1.366 . S
C680 C682 1.388 . S
C681 C680 1.366 . S
C681 C685 1.385 . S
C682 H663 0.951 . S
C682 C680 1.388 . S
C682 C683 1.366 . S
C683 C682 1.366 . S
C683 C684 1.414 . S
C683 C686 1.499 . S
C684 H664 0.950 . S
C684 C683 1.414 . S
C684 C685 1.374 . S
C685 H665 0.950 . S
C685 C681 1.385 . S
C685 C684 1.374 . S
C686 C683 1.499 . S
C686 C687 1.373 1_565 S
C686 C688 1.389 1_655 S
C687 H666 0.950 . S
C687 C686 1.373 1_545 S
C687 C703 1.377 . S
C688 C686 1.389 1_455 S
C688 C689 1.524 . S
C688 C702 1.377 . S
C689 C688 1.524 . S
C689 C690 1.397 1_455 S
C689 C694 1.363 . S
C690 H667 0.950 . S
C690 C689 1.397 1_655 S
C690 C691 1.334 . S
C691 H668 0.950 . S
C691 C690 1.334 . S
C691 C692 1.287 1_655 S
C692 C691 1.287 1_455 S
C692 C693 1.524 . S
C692 H711 0.913 . S
C693 H669 0.950 . S
C693 C692 1.524 . S
C693 C694 1.415 . S
C694 H670 0.950 . S
C694 C689 1.363 . S
C694 C693 1.415 . S
C695 H671 0.951 . S
C695 C696 1.366 . S
C695 C697 1.388 . S
C696 C695 1.366 . S
C696 C700 1.385 . S
C697 H672 0.951 . S
C697 C695 1.388 . S
C697 C698 1.366 . S
C698 C697 1.366 . S
C698 C699 1.414 . S
C698 C701 1.499 . S
C699 H673 0.950 . S
C699 C698 1.414 . S
C699 C700 1.374 . S
C700 H674 0.950 . S
C700 C696 1.385 . S
C700 C699 1.374 . S
C701 C698 1.499 . S
C701 C702 1.373 1_545 S
C701 C703 1.389 1_455 S
C702 H675 0.950 . S
C702 C688 1.377 . S
C702 C701 1.373 1_565 S
C703 C687 1.377 . S
C703 C701 1.389 1_655 S
C703 C704 1.524 . S
C704 C703 1.524 . S
C704 C705 1.397 1_655 S
C704 C709 1.363 . S
C705 H676 0.950 . S
C705 C704 1.397 1_455 S
C705 C706 1.334 . S
C706 H677 0.950 . S
C706 C705 1.334 . S
C706 C707 1.287 1_455 S
C707 C706 1.287 1_655 S
C707 C708 1.524 . S
C707 H710 0.999 . S
C708 H678 0.950 . S
C708 C707 1.524 . S
C708 C709 1.415 . S
C709 H679 0.950 . S
C709 C704 1.363 . S
C709 C708 1.415 . S
H710 C707 0.999 . S
H711 C692 0.913 . S
H712 C730 0.951 . S
H713 C732 0.951 . S
H714 C734 0.950 . S
H715 C735 0.950 . S
H716 C737 0.950 . S
H717 C740 0.950 . S
H718 C741 0.950 . S
H719 C743 0.950 . S
H720 C744 0.950 . S
H721 C745 0.951 . S
H722 C747 0.951 . S
H723 C749 0.950 . S
H724 C750 0.950 . S
H725 C752 0.950 . S
H726 C755 0.950 . S
H727 C756 0.950 . S
H728 C758 0.950 . S
H729 C759 0.950 . S
C730 H712 0.951 . S
C730 C731 1.366 . S
C730 C732 1.388 . S
C731 C730 1.366 . S
C731 C735 1.385 . S
C732 H713 0.951 . S
C732 C730 1.388 . S
C732 C733 1.366 . S
C733 C732 1.366 . S
C733 C734 1.414 . S
C733 C736 1.499 . S
C734 H714 0.950 . S
C734 C733 1.414 . S
C734 C735 1.374 . S
C735 H715 0.950 . S
C735 C731 1.385 . S
C735 C734 1.374 . S
C736 C733 1.499 . S
C736 C737 1.373 . S
C736 C738 1.389 1_655 S
C737 H716 0.950 . S
C737 C736 1.373 . S
C737 C753 1.377 . S
C738 C736 1.389 1_455 S
C738 C739 1.524 . S
C738 C752 1.377 . S
C739 C738 1.524 . S
C739 C740 1.397 . S
C739 C744 1.363 . S
C740 H717 0.950 . S
C740 C739 1.397 . S
C740 C741 1.334 . S
C741 H718 0.950 . S
C741 C740 1.334 . S
C741 C742 1.287 . S
C742 C741 1.287 . S
C742 C743 1.524 . S
C742 H761 0.913 . S
C743 H719 0.950 . S
C743 C742 1.524 . S
C743 C744 1.415 . S
C744 H720 0.950 . S
C744 C739 1.363 . S
C744 C743 1.415 . S
C745 H721 0.951 . S
C745 C746 1.366 . S
C745 C747 1.388 . S
C746 C745 1.366 . S
C746 C750 1.385 . S
C747 H722 0.951 . S
C747 C745 1.388 . S
C747 C748 1.366 . S
C748 C747 1.366 . S
C748 C749 1.414 . S
C748 C751 1.499 . S
C749 H723 0.950 . S
C749 C748 1.414 . S
C749 C750 1.374 . S
C750 H724 0.950 . S
C750 C746 1.385 . S
C750 C749 1.374 . S
C751 C748 1.499 . S
C751 C752 1.373 . S
C751 C753 1.389 1_455 S
C752 H725 0.950 . S
C752 C738 1.377 . S
C752 C751 1.373 . S
C753 C737 1.377 . S
C753 C751 1.389 1_655 S
C753 C754 1.524 . S
C754 C753 1.524 . S
C754 C755 1.397 . S
C754 C759 1.363 . S
C755 H726 0.950 . S
C755 C754 1.397 . S
C755 C756 1.334 . S
C756 H727 0.950 . S
C756 C755 1.334 . S
C756 C757 1.287 . S
C757 C756 1.287 . S
C757 C758 1.524 . S
C757 H760 0.999 . S
C758 H728 0.950 . S
C758 C757 1.524 . S
C758 C759 1.415 . S
C759 H729 0.950 . S
C759 C754 1.363 . S
C759 C758 1.415 . S
H760 C757 0.999 . S
H761 C742 0.913 . S
H762 C780 0.951 . S
H763 C782 0.951 . S
H764 C784 0.950 . S
H765 C785 0.950 . S
H766 C787 0.950 . S
H767 C790 0.950 . S
H768 C791 0.950 . S
H769 C793 0.950 . S
H770 C794 0.950 . S
H771 C795 0.951 . S
H772 C797 0.951 . S
H773 C799 0.950 . S
H774 C800 0.950 . S
H775 C802 0.950 . S
H776 C805 0.950 . S
H777 C806 0.950 . S
H778 C808 0.950 . S
H779 C809 0.950 . S
C780 H762 0.951 . S
C780 C781 1.366 . S
C780 C782 1.388 . S
C781 C780 1.366 . S
C781 C785 1.385 . S
C782 H763 0.951 . S
C782 C780 1.388 . S
C782 C783 1.366 . S
C783 C782 1.366 . S
C783 C784 1.414 . S
C783 C786 1.499 . S
C784 H764 0.950 . S
C784 C783 1.414 . S
C784 C785 1.374 . S
C785 H765 0.950 . S
C785 C781 1.385 . S
C785 C784 1.374 . S
C786 C783 1.499 . S
C786 C787 1.373 . S
C786 C788 1.389 . S
C787 H766 0.950 . S
C787 C786 1.373 . S
C787 C803 1.377 . S
C788 C786 1.389 . S
C788 C789 1.524 . S
C788 C802 1.377 . S
C789 C788 1.524 . S
C789 C790 1.397 . S
C789 C794 1.363 . S
C790 H767 0.950 . S
C790 C789 1.397 . S
C790 C791 1.334 . S
C791 H768 0.950 . S
C791 C790 1.334 . S
C791 C792 1.287 . S
C792 C791 1.287 . S
C792 C793 1.524 . S
C792 H811 0.913 . S
C793 H769 0.950 . S
C793 C792 1.524 . S
C793 C794 1.415 . S
C794 H770 0.950 . S
C794 C789 1.363 . S
C794 C793 1.415 . S
C795 H771 0.951 . S
C795 C796 1.366 . S
C795 C797 1.388 . S
C796 C795 1.366 . S
C796 C800 1.385 . S
C797 H772 0.951 . S
C797 C795 1.388 . S
C797 C798 1.366 . S
C798 C797 1.366 . S
C798 C799 1.414 . S
C798 C801 1.499 . S
C799 H773 0.950 . S
C799 C798 1.414 . S
C799 C800 1.374 . S
C800 H774 0.950 . S
C800 C796 1.385 . S
C800 C799 1.374 . S
C801 C798 1.499 . S
C801 C802 1.373 . S
C801 C803 1.389 . S
C802 H775 0.950 . S
C802 C788 1.377 . S
C802 C801 1.373 . S
C803 C787 1.377 . S
C803 C801 1.389 . S
C803 C804 1.524 . S
C804 C803 1.524 . S
C804 C805 1.397 . S
C804 C809 1.363 . S
C805 H776 0.950 . S
C805 C804 1.397 . S
C805 C806 1.334 . S
C806 H777 0.950 . S
C806 C805 1.334 . S
C806 C807 1.287 . S
C807 C806 1.287 . S
C807 C808 1.524 . S
C807 H810 0.999 . S
C808 H778 0.950 . S
C808 C807 1.524 . S
C808 C809 1.415 . S
C809 H779 0.950 . S
C809 C804 1.363 . S
C809 C808 1.415 . S
H810 C807 0.999 . S
H811 C792 0.913 . S
H812 C830 0.951 . S
H813 C832 0.951 . S
H814 C834 0.950 . S
H815 C835 0.950 . S
H816 C837 0.950 . S
H817 C840 0.950 . S
H818 C841 0.950 . S
H819 C843 0.950 . S
H820 C844 0.950 . S
H821 C845 0.951 . S
H822 C847 0.951 . S
H823 C849 0.950 . S
H824 C850 0.950 . S
H825 C852 0.950 . S
H826 C855 0.950 . S
H827 C856 0.950 . S
H828 C858 0.950 . S
H829 C859 0.950 . S
C830 H812 0.951 . S
C830 C831 1.366 . S
C830 C832 1.388 . S
C831 C830 1.366 . S
C831 C835 1.385 . S
C832 H813 0.951 . S
C832 C830 1.388 . S
C832 C833 1.366 . S
C833 C832 1.366 . S
C833 C834 1.414 . S
C833 C836 1.499 . S
C834 H814 0.950 . S
C834 C833 1.414 . S
C834 C835 1.374 . S
C835 H815 0.950 . S
C835 C831 1.385 . S
C835 C834 1.374 . S
C836 C833 1.499 . S
C836 C837 1.373 1_554 S
C836 C838 1.389 . S
C837 H816 0.950 . S
C837 C836 1.373 1_556 S
C837 C853 1.377 . S
C838 C836 1.389 . S
C838 C839 1.524 . S
C838 C852 1.377 . S
C839 C838 1.524 . S
C839 C840 1.397 . S
C839 C844 1.363 . S
C840 H817 0.950 . S
C840 C839 1.397 . S
C840 C841 1.334 . S
C841 H818 0.950 . S
C841 C840 1.334 . S
C841 C842 1.287 . S
C842 C841 1.287 . S
C842 C843 1.524 . S
C842 H861 0.913 . S
C843 H819 0.950 . S
C843 C842 1.524 . S
C843 C844 1.415 . S
C844 H820 0.950 . S
C844 C839 1.363 . S
C844 C843 1.415 . S
C845 H821 0.951 . S
C845 C846 1.366 . S
C845 C847 1.388 . S
C846 C845 1.366 . S
C846 C850 1.385 . S
C847 H822 0.951 . S
C847 C845 1.388 . S
C847 C848 1.366 . S
C848 C847 1.366 . S
C848 C849 1.414 . S
C848 C851 1.499 . S
C849 H823 0.950 . S
C849 C848 1.414 . S
C849 C850 1.374 . S
C850 H824 0.950 . S
C850 C846 1.385 . S
C850 C849 1.374 . S
C851 C848 1.499 . S
C851 C852 1.373 1_556 S
C851 C853 1.389 . S
C852 H825 0.950 . S
C852 C838 1.377 . S
C852 C851 1.373 1_554 S
C853 C837 1.377 . S
C853 C851 1.389 . S
C853 C854 1.524 . S
C854 C853 1.524 . S
C854 C855 1.397 . S
C854 C859 1.363 . S
C855 H826 0.950 . S
C855 C854 1.397 . S
C855 C856 1.334 . S
C856 H827 0.950 . S
C856 C855 1.334 . S
C856 C857 1.287 . S
C857 C856 1.287 . S
C857 C858 1.524 . S
C857 H860 0.999 . S
C858 H828 0.950 . S
C858 C857 1.524 . S
C858 C859 1.415 . S
C859 H829 0.950 . S
C859 C854 1.363 . S
C859 C858 1.415 . S
H860 C857 0.999 . S
H861 C842 0.913 . S
H862 C880 0.951 . S
H863 C882 0.951 . S
H864 C884 0.950 . S
H865 C885 0.950 . S
H866 C887 0.950 . S
H867 C890 0.950 . S
H868 C891 0.950 . S
H869 C893 0.950 . S
H870 C894 0.950 . S
H871 C895 0.951 . S
H872 C897 0.951 . S
H873 C899 0.950 . S
H874 C900 0.950 . S
H875 C902 0.950 . S
H876 C905 0.950 . S
H877 C906 0.950 . S
H878 C908 0.950 . S
H879 C909 0.950 . S
C880 H862 0.951 . S
C880 C881 1.366 . S
C880 C882 1.388 . S
C881 C880 1.366 . S
C881 C885 1.385 . S
C882 H863 0.951 . S
C882 C880 1.388 . S
C882 C883 1.366 . S
C883 C882 1.366 . S
C883 C884 1.414 . S
C883 C886 1.499 . S
C884 H864 0.950 . S
C884 C883 1.414 . S
C884 C885 1.374 . S
C885 H865 0.950 . S
C885 C881 1.385 . S
C885 C884 1.374 . S
C886 C883 1.499 . S
C886 C887 1.373 . S
C886 C888 1.389 . S
C887 H866 0.950 . S
C887 C886 1.373 . S
C887 C903 1.377 . S
C888 C886 1.389 . S
C888 C889 1.524 . S
C888 C902 1.377 . S
C889 C888 1.524 . S
C889 C890 1.397 . S
C889 C894 1.363 . S
C890 H867 0.950 . S
C890 C889 1.397 . S
C890 C891 1.334 . S
C891 H868 0.950 . S
C891 C890 1.334 . S
C891 C892 1.287 . S
C892 C891 1.287 . S
C892 C893 1.524 . S
C892 H911 0.913 . S
C893 H869 0.950 . S
C893 C892 1.524 . S
C893 C894 1.415 . S
C894 H870 0.950 . S
C894 C889 1.363 . S
C894 C893 1.415 . S
C895 H871 0.951 . S
C895 C896 1.366 . S
C895 C897 1.388 . S
C896 C895 1.366 . S
C896 C900 1.385 . S
C897 H872 0.951 . S
C897 C895 1.388 . S
C897 C898 1.366 . S
C898 C897 1.366 . S
C898 C899 1.414 . S
C898 C901 1.499 . S
C899 H873 0.950 . S
C899 C898 1.414 . S
C899 C900 1.374 . S
C900 H874 0.950 . S
C900 C896 1.385 . S
C900 C899 1.374 . S
C901 C898 1.499 . S
C901 C902 1.373 . S
C901 C903 1.389 . S
C902 H875 0.950 . S
C902 C888 1.377 . S
C902 C901 1.373 . S
C903 C887 1.377 . S
C903 C901 1.389 . S
C903 C904 1.524 . S
C904 C903 1.524 . S
C904 C905 1.397 . S
C904 C909 1.363 . S
C905 H876 0.950 . S
C905 C904 1.397 . S
C905 C906 1.334 . S
C906 H877 0.950 . S
C906 C905 1.334 . S
C906 C907 1.287 . S
C907 C906 1.287 . S
C907 C908 1.524 . S
C907 H910 0.999 . S
C908 H878 0.950 . S
C908 C907 1.524 . S
C908 C909 1.415 . S
C909 H879 0.950 . S
C909 C904 1.363 . S
C909 C908 1.415 . S
H910 C907 0.999 . S
H911 C892 0.913 . S
C131 C82 1.500 . S
C146 C11 1.474 . S
C181 C103 1.262 . S
C196 C19 1.262 . S
C231 C32 1.461 . S
C246 C88 1.461 . S
C281 C53 1.474 . S
C296 C68 1.500 . S
C331 C89 1.262 . S
C346 C5 1.262 . S
C381 C18 1.460 . S
C396 C60 1.460 . S
C431 C81 1.474 . S
C446 C40 1.500 . S
C481 C54 1.500 . S
C496 C109 1.474 . S
C531 C61 1.265 . S
C546 C75 1.265 . S
C581 C26 1.500 . S
C596 C39 1.475 . S
C631 C47 1.264 . S
C646 C33 1.263 . S
C681 C46 1.461 . S
C696 C4 1.461 . S
C731 C25 1.475 . S
C746 C12 1.500 . S
C781 C110 1.500 . S
C796 C95 1.474 . S
C831 C67 1.474 . S
C846 C96 1.500 . S
C881 C74 1.461 . S
C896 C102 1.461 . S
