# Generated by pormake.
# Topology unn, (4)-cn, num edge types: 1
# Building blocks:
#     Node 0, Type 0, BuildingBlock: ESEHIV_clean_sbu_0, # of connection points: 4
#     Node 1, Type 0, BuildingBlock: ESEHIV_clean_sbu_0, # of connection points: 4
#     Node 2, Type 0, BuildingBlock: ESEHIV_clean_sbu_0, # of connection points: 4
#     Node 3, Type 0, BuildingBlock: ESEHIV_clean_sbu_0, # of connection points: 4
#     Node 4, Type 0, BuildingBlock: ESEHIV_clean_sbu_0, # of connection points: 4
#     Node 5, Type 0, BuildingBlock: ESEHIV_clean_sbu_0, # of connection points: 4
#     Node 6, Type 0, BuildingBlock: ESEHIV_clean_sbu_0, # of connection points: 4
#     Node 7, Type 0, BuildingBlock: ESEHIV_clean_sbu_0, # of connection points: 4
#     Node 8, Type 0, BuildingBlock: ESEHIV_clean_sbu_0, # of connection points: 4
#     Node 9, Type 0, BuildingBlock: ESEHIV_clean_sbu_0, # of connection points: 4
#     Node 10, Type 0, BuildingBlock: ESEHIV_clean_sbu_0, # of connection points: 4
#     Node 11, Type 0, BuildingBlock: ESEHIV_clean_sbu_0, # of connection points: 4
#     Node 12, Type 0, BuildingBlock: ESEHIV_clean_sbu_0, # of connection points: 4
#     Node 13, Type 0, BuildingBlock: ESEHIV_clean_sbu_0, # of connection points: 4
#     Node 14, Type 0, BuildingBlock: ESEHIV_clean_sbu_0, # of connection points: 4
#     Node 15, Type 0, BuildingBlock: ESEHIV_clean_sbu_0, # of connection points: 4
#     Node 16, Type 0, BuildingBlock: ESEHIV_clean_sbu_0, # of connection points: 4
#     Node 17, Type 0, BuildingBlock: ESEHIV_clean_sbu_0, # of connection points: 4
#     Edge 18, Type (0, 0), BuildingBlock: TEMPAE_clean_linker_10, # of connection points: 2
#     Edge 19, Type (0, 0), BuildingBlock: TEMPAE_clean_linker_10, # of connection points: 2
#     Edge 20, Type (0, 0), BuildingBlock: TEMPAE_clean_linker_10, # of connection points: 2
#     Edge 21, Type (0, 0), BuildingBlock: TEMPAE_clean_linker_10, # of connection points: 2
#     Edge 22, Type (0, 0), BuildingBlock: TEMPAE_clean_linker_10, # of connection points: 2
#     Edge 23, Type (0, 0), BuildingBlock: TEMPAE_clean_linker_10, # of connection points: 2
#     Edge 24, Type (0, 0), BuildingBlock: TEMPAE_clean_linker_10, # of connection points: 2
#     Edge 25, Type (0, 0), BuildingBlock: TEMPAE_clean_linker_10, # of connection points: 2
#     Edge 26, Type (0, 0), BuildingBlock: TEMPAE_clean_linker_10, # of connection points: 2
#     Edge 27, Type (0, 0), BuildingBlock: TEMPAE_clean_linker_10, # of connection points: 2
#     Edge 28, Type (0, 0), BuildingBlock: TEMPAE_clean_linker_10, # of connection points: 2
#     Edge 29, Type (0, 0), BuildingBlock: TEMPAE_clean_linker_10, # of connection points: 2
#     Edge 30, Type (0, 0), BuildingBlock: TEMPAE_clean_linker_10, # of connection points: 2
#     Edge 31, Type (0, 0), BuildingBlock: TEMPAE_clean_linker_10, # of connection points: 2
#     Edge 32, Type (0, 0), BuildingBlock: TEMPAE_clean_linker_10, # of connection points: 2
#     Edge 33, Type (0, 0), BuildingBlock: TEMPAE_clean_linker_10, # of connection points: 2
#     Edge 34, Type (0, 0), BuildingBlock: TEMPAE_clean_linker_10, # of connection points: 2
#     Edge 35, Type (0, 0), BuildingBlock: TEMPAE_clean_linker_10, # of connection points: 2
#     Edge 36, Type (0, 0), BuildingBlock: TEMPAE_clean_linker_10, # of connection points: 2
#     Edge 37, Type (0, 0), BuildingBlock: TEMPAE_clean_linker_10, # of connection points: 2
#     Edge 38, Type (0, 0), BuildingBlock: TEMPAE_clean_linker_10, # of connection points: 2
#     Edge 39, Type (0, 0), BuildingBlock: TEMPAE_clean_linker_10, # of connection points: 2
#     Edge 40, Type (0, 0), BuildingBlock: TEMPAE_clean_linker_10, # of connection points: 2
#     Edge 41, Type (0, 0), BuildingBlock: TEMPAE_clean_linker_10, # of connection points: 2
#     Edge 42, Type (0, 0), BuildingBlock: TEMPAE_clean_linker_10, # of connection points: 2
#     Edge 43, Type (0, 0), BuildingBlock: TEMPAE_clean_linker_10, # of connection points: 2
#     Edge 44, Type (0, 0), BuildingBlock: TEMPAE_clean_linker_10, # of connection points: 2
#     Edge 45, Type (0, 0), BuildingBlock: TEMPAE_clean_linker_10, # of connection points: 2
#     Edge 46, Type (0, 0), BuildingBlock: TEMPAE_clean_linker_10, # of connection points: 2
#     Edge 47, Type (0, 0), BuildingBlock: TEMPAE_clean_linker_10, # of connection points: 2
#     Edge 48, Type (0, 0), BuildingBlock: TEMPAE_clean_linker_10, # of connection points: 2
#     Edge 49, Type (0, 0), BuildingBlock: TEMPAE_clean_linker_10, # of connection points: 2
#     Edge 50, Type (0, 0), BuildingBlock: TEMPAE_clean_linker_10, # of connection points: 2
#     Edge 51, Type (0, 0), BuildingBlock: TEMPAE_clean_linker_10, # of connection points: 2
#     Edge 52, Type (0, 0), BuildingBlock: TEMPAE_clean_linker_10, # of connection points: 2
#     Edge 53, Type (0, 0), BuildingBlock: TEMPAE_clean_linker_10, # of connection points: 2
# Relax obj value: 0.007
# Max RMSD: 0.148
# Mean RMSD: 0.146
data_MOF--net-unn--node1-ESEHIV_clean_sbu_0--edge1-TEMPAE_clean_linker_10
_symmetry_space_group_name_H-M    P1
_symmetry_Int_Tables_number       1
_symmetry_cell_setting            triclinic
loop_
_symmetry_equiv_pos_as_xyz
'x, y, z'
_cell_length_a     55.759703
_cell_length_b     55.49024
_cell_length_c     43.188157
_cell_angle_alpha  90.133364
_cell_angle_beta   90.164858
_cell_angle_gamma 120.00874
loop_
_atom_site_label
_atom_site_type_symbol
_atom_site_fract_x
_atom_site_fract_y
_atom_site_fract_z
_atom_type_partial_charge
Cu0 Cu 0.01391 0.73319 0.26699 0.0
N1 N 0.04716 0.76787 0.27178 0.0
N2 N 0.09013 0.79954 0.28812 0.0
C3 C 0.06754 0.77414 0.29293 0.0
C4 C 0.08351 0.80961 0.26305 0.0
C5 C 0.05716 0.79017 0.25312 0.0
O6 O 1.0101 0.71382 0.30635 0.0
C7 C 0.03832 0.72 0.2149 0.0
O8 O 0.06254 0.73711 0.22734 0.0
H9 H 0.06628 0.75983 0.31069 0.0
H10 H 0.04639 0.79182 0.23309 0.0
N11 N 0.98218 0.73659 0.25918 0.0
N12 N 0.94064 0.72702 0.23975 0.0
C13 C 0.95905 0.718 0.24358 0.0
C14 C 0.97826 0.75812 0.26546 0.0
C15 C 0.95282 0.75231 0.25358 0.0
C16 C 0.98762 0.69873 0.32094 0.0
O17 O 0.96389 0.6921 0.30759 0.0
H18 H 0.95616 0.69853 0.23447 0.0
H19 H 0.99305 0.77693 0.27741 0.0
O20 O 0.0163 0.71423 0.22964 0.0
H21 H 0.09686 0.82955 0.25239 0.0
H22 H 0.944 0.76577 0.25511 0.0
Cu23 Cu 0.29538 0.29028 0.26263 0.0
N24 N 0.28922 0.25477 0.25043 0.0
N25 N 0.29756 0.22245 0.22922 0.0
C26 C 0.30829 0.24956 0.23743 0.0
C27 C 0.27064 0.21021 0.23757 0.0
C28 C 0.26559 0.23007 0.25056 0.0
O29 O 0.31684 0.31374 0.22767 0.0
C30 C 0.32726 0.32274 0.316 0.0
O31 O 0.33198 0.34488 0.30019 0.0
H32 H 0.32948 0.26562 0.23325 0.0
H33 H 0.24596 0.22678 0.2591 0.0
N34 N 0.26222 0.2917 0.26762 0.0
N35 N 0.23226 0.30518 0.28385 0.0
C36 C 0.25672 0.30611 0.28919 0.0
C37 C 0.24034 0.28114 0.24822 0.0
C38 C 0.22199 0.28941 0.25806 0.0
C39 C 0.31102 0.32982 0.21234 0.0
O40 O 0.29288 0.33602 0.22348 0.0
H41 H 0.2709 0.318 0.30769 0.0
H42 H 0.23831 0.269 0.22774 0.0
O43 O 0.31385 0.29883 0.30324 0.0
H44 H 0.25554 0.18838 0.2346 0.0
H45 H 0.20263 0.28439 0.24686 0.0
Cu46 Cu 0.74211 0.01468 0.26608 0.0
N47 N 0.74225 0.98071 0.27239 0.0
N48 N 0.73037 0.93749 0.28886 0.0
C49 C 0.72908 0.96093 0.29438 0.0
C50 C 0.74539 0.94305 0.26265 0.0
C51 C 0.7526 0.96945 0.25267 0.0
O52 O 0.73159 0.02539 0.30492 0.0
C53 C 0.70175 0.98804 0.21695 0.0
O54 O 0.69462 0.96445 0.23103 0.0
H55 H 0.71784 0.96313 0.31343 0.0
H56 H 0.76374 0.97938 0.23174 0.0
N57 N 0.77723 0.04453 0.25443 0.0
N58 N 0.80912 0.08501 0.23285 0.0
C59 C 0.7821 0.06846 0.24054 0.0
C60 C 0.80204 0.04603 0.25567 0.0
C61 C 0.82163 0.07081 0.24246 0.0
C62 C 0.70929 0.01009 0.31969 0.0
O63 O 0.6901 0.9868 0.30699 0.0
H64 H 0.76592 0.0732 0.23531 0.0
H65 H 0.80557 0.03001 0.26504 0.0
O66 O 0.71904 0.01089 0.23 0.0
H67 H 0.75052 0.92891 0.25109 0.0
H68 H 0.84346 0.07779 0.24015 0.0
Cu69 Cu 0.01544 0.28946 0.76158 0.0
N70 N 0.98495 0.2539 0.75189 0.0
N71 N 0.94314 0.22173 0.73309 0.0
C72 C 0.96323 0.24893 0.73338 0.0
C73 C 0.9528 0.20916 0.75214 0.0
C74 C 0.97843 0.22894 0.76363 0.0
O75 O 0.01714 0.31128 0.72511 0.0
C76 C 0.02302 0.32248 0.81675 0.0
O77 O 0.04699 0.34066 0.80485 0.0
H78 H 0.96174 0.2652 0.72128 0.0
H79 H 0.9911 0.22546 0.77998 0.0
N80 N 0.04969 0.28977 0.7659 0.0
N81 N 0.09309 0.3021 0.78154 0.0
C82 C 0.06853 0.29997 0.78941 0.0
C83 C 0.06272 0.2847 0.7428 0.0
C84 C 0.08927 0.29228 0.75223 0.0
C85 C 0.03882 0.33012 0.71184 0.0
O86 O 0.06295 0.34012 0.72571 0.0
H87 H 0.06494 0.30705 0.8113 0.0
H88 H 0.05403 0.27747 0.71995 0.0
O89 O 1.00649 0.30102 0.80097 0.0
H90 H 0.94206 0.1872 0.75761 0.0
H91 H 0.10486 0.29137 0.7382 0.0
Cu92 Cu 0.74019 0.73613 0.76778 0.0
N93 N 0.74467 0.77138 0.77793 0.0
N94 N 0.7342 0.80301 0.7965 0.0
C95 C 0.72867 0.77628 0.79762 0.0
C96 C 0.75461 0.81536 0.77537 0.0
C97 C 0.76098 0.79591 0.76402 0.0
O98 O 0.72041 0.71308 0.80375 0.0
C99 C 0.7074 0.70169 0.71543 0.0
O100 O 0.70248 0.67972 0.7317 0.0
H101 H 0.71227 0.76019 0.81131 0.0
H102 H 0.77572 0.79915 0.746 0.0
N103 N 0.77423 0.73671 0.76185 0.0
N104 N 0.80537 0.72504 0.74493 0.0
C105 C 0.77956 0.72142 0.74134 0.0
C106 C 0.79755 0.75062 0.77877 0.0
C107 C 0.81665 0.74349 0.7685 0.0
C108 C 0.72785 0.69818 0.81891 0.0
O109 O 0.74675 0.69335 0.80717 0.0
H110 H 0.76445 0.70717 0.72483 0.0
H111 H 0.80025 0.76453 0.79775 0.0
O112 O 0.72104 0.7258 0.72765 0.0
H113 H 0.76398 0.83686 0.76818 0.0
H114 H 0.83729 0.75129 0.77781 0.0
Cu115 Cu 0.29412 0.01068 0.76256 0.0
N116 N 0.29339 0.04434 0.75603 0.0
N117 N 0.3046 0.08742 0.73964 0.0
C118 C 0.30791 0.06499 0.73535 0.0
C119 C 0.28694 0.0803 0.76374 0.0
C120 C 0.28016 0.05399 0.77368 0.0
O121 O 0.30475 1.00023 0.72353 0.0
C122 C 0.33213 0.03702 0.81381 0.0
O123 O 0.33726 0.06073 0.80145 0.0
H124 H 0.32135 0.06409 0.71808 0.0
H125 H 0.26704 0.04294 0.79308 0.0
N126 N 0.25899 0.98049 0.77349 0.0
N127 N 0.2269 0.9395 0.7939 0.0
C128 C 0.25421 0.957 0.78834 0.0
C129 C 0.23382 0.97774 0.76942 0.0
C130 C 0.21411 0.95265 0.78193 0.0
C131 C 0.32706 0.01533 0.70866 0.0
O132 O 0.34667 0.03829 0.72147 0.0
H133 H 0.2706 0.95314 0.79548 0.0
H134 H 0.23005 0.99298 0.75827 0.0
O135 O 0.31696 0.01441 0.79904 0.0
H136 H 0.27951 0.09321 0.77379 0.0
H137 H 0.19199 0.94467 0.7819 0.0
Cu138 Cu 0.68073 0.06674 0.59931 0.0
N139 N 0.64907 0.06995 0.59041 0.0
N140 N 0.60656 0.05844 0.5724 0.0
C141 C 0.62869 0.05461 0.56963 0.0
C142 C 0.61349 0.07704 0.59577 0.0
C143 C 0.63943 0.08392 0.60683 0.0
O144 O 0.68504 0.04932 0.56166 0.0
C145 C 0.68716 0.03971 0.65371 0.0
O146 O 0.7118 0.04673 0.64307 0.0
H147 H 0.62943 0.03974 0.55397 0.0
H148 H 0.64997 0.09724 0.62645 0.0
N149 N 0.71299 0.10178 0.60856 0.0
N150 N 0.75493 0.13384 0.62755 0.0
C151 C 0.7383 0.10698 0.61861 0.0
C152 C 0.71408 0.12652 0.61072 0.0
C153 C 0.73964 0.14613 0.62237 0.0
C154 C 0.70728 0.05607 0.5469 0.0
O155 O 0.73126 0.07409 0.55912 0.0
H156 H 0.74427 0.09129 0.62023 0.0
H157 H 0.69714 0.12997 0.60512 0.0
O158 O 0.67076 0.04411 0.63719 0.0
H159 H 0.60048 0.08475 0.60478 0.0
H160 H 0.74626 0.16774 0.62703 0.0
Cu161 Cu 0.96158 0.62338 0.60246 0.0
N162 N 0.95806 0.58864 0.59138 0.0
N163 N 0.96903 0.5576 0.57186 0.0
C164 C 0.97513 0.58455 0.57249 0.0
C165 C 0.94715 0.54431 0.59105 0.0
C166 C 0.94053 0.56338 0.60301 0.0
O167 O 0.97951 0.64697 0.56616 0.0
C168 C 0.99438 0.65799 0.65472 0.0
O169 O 0.99719 0.67971 0.63947 0.0
H170 H 0.99243 0.60128 0.56045 0.0
H171 H 0.92451 0.55923 0.61972 0.0
N172 N 0.9271 0.62117 0.61108 0.0
N173 N 0.89553 0.63104 0.6309 0.0
C174 C 0.92284 0.63961 0.62746 0.0
C175 C 0.90157 0.60032 0.60387 0.0
C176 C 0.88219 0.60626 0.61604 0.0
C177 C 0.96982 0.65997 0.55102 0.0
O178 O 0.94926 0.66211 0.56274 0.0
H179 H 0.93944 0.65868 0.63722 0.0
H180 H 0.89731 0.58188 0.59092 0.0
O181 O 0.98208 0.63409 0.64181 0.0
H182 H 0.93672 0.52233 0.59638 0.0
H183 H 0.85994 0.59334 0.61392 0.0
Cu184 Cu 0.40518 0.34547 0.59949 0.0
N185 N 0.43857 0.38003 0.59456 0.0
N186 N 0.46938 0.42316 0.5778 0.0
C187 C 0.4445 0.39984 0.57278 0.0
C188 C 0.47943 0.41758 0.60363 0.0
C189 C 0.46056 0.39118 0.6138 0.0
O190 O 0.38667 0.33563 0.5589 0.0
C191 C 0.38927 0.3692 0.65009 0.0
O192 O 0.4071 0.39375 0.63903 0.0
H193 H 0.43043 0.3976 0.55424 0.0
H194 H 0.46243 0.38104 0.63427 0.0
N195 N 0.41095 0.31585 0.61122 0.0
N196 N 0.40207 0.2748 0.63174 0.0
C197 C 0.39172 0.29156 0.62414 0.0
C198 C 0.43431 0.31442 0.61051 0.0
C199 C 0.42894 0.28928 0.62309 0.0
C200 C 0.3734 0.34619 0.54617 0.0
O201 O 0.36878 0.36369 0.56202 0.0
H202 H 0.37067 0.28666 0.62863 0.0
H203 H 0.45397 0.33064 0.60181 0.0
O204 O 0.38386 0.34737 0.63472 0.0
H205 H 0.49907 0.43164 0.61457 0.0
H206 H 0.44377 0.28223 0.62551 0.0
Cu207 Cu 0.68099 0.6234 0.10001 0.0
N208 N 0.65038 0.58829 0.08904 0.0
N209 N 0.60893 0.55651 0.06901 0.0
C210 C 0.62816 0.58391 0.07181 0.0
C211 C 0.61971 0.54323 0.08509 0.0
C212 C 0.64511 0.56276 0.09731 0.0
O213 O 0.68496 0.64612 0.06341 0.0
C214 C 0.68666 0.65686 0.15421 0.0
O215 O 0.71009 0.67587 0.14201 0.0
H216 H 0.62588 0.60065 0.06216 0.0
H217 H 0.65867 0.55862 0.11148 0.0
N218 N 0.71426 0.62218 0.10685 0.0
N219 N 0.75685 0.63291 0.12413 0.0
C220 C 0.734 0.63518 0.12906 0.0
C221 C 0.72489 0.61086 0.0876 0.0
C222 C 0.75092 0.61739 0.09806 0.0
C223 C 0.70756 0.66174 0.04924 0.0
O224 O 0.73115 0.66754 0.06232 0.0
H225 H 0.73221 0.64694 0.14792 0.0
H226 H 0.71481 0.59948 0.06669 0.0
O227 O 0.67101 0.63477 0.13886 0.0
H228 H 0.61005 0.52092 0.08779 0.0
H229 H 0.76455 0.61143 0.08694 0.0
Cu230 Cu 0.40615 0.06787 0.09603 0.0
N231 N 0.44141 0.07266 0.08649 0.0
N232 N 0.47325 0.06254 0.06831 0.0
C233 C 0.4467 0.05706 0.06642 0.0
C234 C 0.4851 0.08248 0.09033 0.0
C235 C 0.46552 0.08864 0.10143 0.0
O236 O 0.38357 0.04837 0.05945 0.0
C237 C 0.37161 0.03531 0.14786 0.0
O238 O 0.35 0.03167 0.13181 0.0
H239 H 0.43098 0.04092 0.05192 0.0
H240 H 0.46836 0.10295 0.12001 0.0
N241 N 0.40651 0.10192 0.10269 0.0
N242 N 0.39443 0.13288 0.11972 0.0
C243 C 0.39009 0.10658 0.12201 0.0
C244 C 0.42189 0.12615 0.08786 0.0
C245 C 0.41453 0.14515 0.09821 0.0
C246 C 0.36871 0.05588 0.04436 0.0
O247 O 0.36374 0.07468 0.05643 0.0
H248 H 0.37466 0.09073 0.13679 0.0
H249 H 0.43712 0.12964 0.07035 0.0
O250 O 0.39556 0.04808 0.13563 0.0
H251 H 0.50631 0.09163 0.09831 0.0
H252 H 0.42342 0.16644 0.09045 0.0
Cu253 Cu 0.96665 0.34543 0.0982 0.0
N254 N 0.9642 0.37798 0.09233 0.0
N255 N 0.97458 0.42049 0.07499 0.0
C256 C 0.98077 0.39974 0.07387 0.0
C257 C 0.95314 0.41117 0.09496 0.0
C258 C 0.94682 0.38512 0.10552 0.0
O259 O 0.98466 0.34304 0.06022 0.0
C260 C 1.00278 0.37018 0.15186 0.0
O261 O 0.01143 0.39452 0.13888 0.0
H262 H 0.99746 0.40051 0.06039 0.0
H263 H 0.93075 0.37234 0.1218 0.0
N264 N 0.93185 0.31259 0.10309 0.0
N265 N 0.89992 0.26995 0.11995 0.0
C266 C 0.9262 0.29155 0.12301 0.0
C267 C 0.90829 0.30407 0.08695 0.0
C268 C 0.88867 0.27793 0.09721 0.0
C269 C 0.97863 0.32102 0.04492 0.0
O270 O 0.96155 0.2966 0.05687 0.0
H271 H 0.9414 0.29179 0.13882 0.0
H272 H 0.90568 0.31587 0.06867 0.0
O273 O 0.98612 0.34809 0.13712 0.0
H274 H 0.94248 0.42222 0.1014 0.0
H275 H 0.86769 0.2658 0.08854 0.0
Cu276 Cu 0.34868 0.40172 0.9314 0.0
N277 N 0.3788 0.43698 0.94429 0.0
N278 N 0.42001 0.46901 0.96491 0.0
C279 C 0.40522 0.44362 0.95119 0.0
C280 C 0.40237 0.47902 0.96571 0.0
C281 C 0.37728 0.45946 0.95309 0.0
O282 O 0.33922 0.37724 0.96788 0.0
C283 C 0.34462 0.36801 0.87828 0.0
O284 O 0.32107 0.34911 0.89039 0.0
H285 H 0.41318 0.42966 0.94736 0.0
H286 H 0.35892 0.46129 0.95144 0.0
N287 N 0.31587 0.40313 0.92178 0.0
N288 N 0.27419 0.39273 0.90181 0.0
C289 C 0.29699 0.39006 0.89873 0.0
C290 C 0.30428 0.41424 0.93998 0.0
C291 C 0.27896 0.40817 0.92768 0.0
C292 C 0.35701 0.37538 0.98487 0.0
O293 O 0.38243 0.38572 0.97478 0.0
H294 H 0.29956 0.37845 0.88023 0.0
H295 H 0.31298 0.42488 0.96166 0.0
O296 O 0.36006 0.39022 0.89357 0.0
H297 H 0.407 0.49894 0.97526 0.0
H298 H 0.26453 0.41352 0.93792 0.0
Cu299 Cu 0.62791 0.95673 0.93308 0.0
N300 N 0.62504 0.92168 0.92528 0.0
N301 N 0.63548 0.89016 0.90621 0.0
C302 C 0.64377 0.91753 0.9097 0.0
C303 C 0.61055 0.8766 0.92019 0.0
C304 C 0.60425 0.89599 0.93199 0.0
O305 O 0.64556 0.97785 0.89545 0.0
C306 C 0.66183 0.96382 0.98703 0.0
O307 O 0.66563 0.9443 0.97481 0.0
H308 H 0.6629 0.93431 0.90053 0.0
H309 H 0.58569 0.89159 0.94439 0.0
N310 N 0.59331 0.9548 0.93955 0.0
N311 N 0.5619 0.96548 0.95791 0.0
C312 C 0.58912 0.97339 0.95565 0.0
C313 C 0.56782 0.93455 0.93117 0.0
C314 C 0.54851 0.94098 0.94253 0.0
C315 C 0.6388 0.99328 0.88033 0.0
O316 O 0.62094 0.99953 0.89226 0.0
H317 H 0.60572 0.99206 0.96615 0.0
H318 H 0.5635 0.91622 0.91798 0.0
O319 O 0.64855 0.97304 0.97168 0.0
H320 H 0.5978 0.85422 0.92198 0.0
H321 H 0.52628 0.92861 0.93953 0.0
Cu322 Cu 0.07556 0.67994 0.93616 0.0
N323 N 0.08106 0.65017 0.94933 0.0
N324 N 0.0726 0.60908 0.96968 0.0
C325 C 0.06154 0.62384 0.95717 0.0
C326 C 0.10024 0.62668 0.96872 0.0
C327 C 0.10533 0.65169 0.95626 0.0
O328 O 0.05934 0.6892 0.97159 0.0
C329 C 0.04239 0.68044 0.88432 0.0
O330 O 0.03955 0.69919 0.89994 0.0
H331 H 0.03958 0.61583 0.95451 0.0
H332 H 0.12544 0.66994 0.95316 0.0
N333 N 0.1093 0.71329 0.92786 0.0
N334 N 0.13936 0.75614 0.90966 0.0
C335 C 0.11431 0.73271 0.90587 0.0
C336 C 0.13195 0.72495 0.94611 0.0
C337 C 0.15043 0.75102 0.93493 0.0
C338 C 0.03927 0.67158 0.98808 0.0
O339 O 0.0242 0.64594 0.97799 0.0
H340 H 0.09929 0.7303 0.88843 0.0
H341 H 0.13437 0.71569 0.96702 0.0
O342 O 0.05495 0.66904 0.89687 0.0
H343 H 0.1159 0.62205 0.97673 0.0
H344 H 0.17033 0.76532 0.94515 0.0
Cu345 Cu 0.34965 0.9556 0.42941 0.0
N346 N 0.31583 0.92168 0.42268 0.0
N347 N 0.27366 0.89056 0.40371 0.0
C348 C 0.29406 0.91765 0.40474 0.0
C349 C 0.28298 0.87715 0.42184 0.0
C350 C 0.30873 0.89626 0.43353 0.0
O351 O 0.35923 0.97485 0.38948 0.0
C352 C 0.32504 0.96931 0.48074 0.0
O353 O 0.30095 0.9498 0.47018 0.0
H354 H 0.29343 0.93416 0.39216 0.0
H355 H 0.32145 0.89185 0.44878 0.0
N356 N 0.3798 0.95061 0.44074 0.0
N357 N 0.42097 0.9601 0.46117 0.0
C358 C 0.40309 0.96954 0.45582 0.0
C359 C 0.38319 0.92851 0.43618 0.0
C360 C 0.40835 0.93422 0.4488 0.0
C361 C 0.34866 0.98831 0.37727 0.0
O362 O 0.33143 0.99291 0.39348 0.0
H363 H 0.40664 0.98974 0.46312 0.0
H364 H 0.36849 0.90957 0.42439 0.0
O365 O 0.34684 0.9762 0.46498 0.0
H366 H 0.27186 0.85504 0.42656 0.0
H367 H 0.41685 0.92044 0.44843 0.0
Cu368 Cu 0.07756 0.40626 0.43214 0.0
N369 N 0.08144 0.44114 0.4446 0.0
N370 N 0.07142 0.47275 0.46478 0.0
C371 C 0.0613 0.44616 0.4548 0.0
C372 C 0.09899 0.48508 0.45999 0.0
C373 C 0.10502 0.46576 0.44754 0.0
O374 O 0.06404 0.38202 0.46877 0.0
C375 C 0.04625 0.37108 0.38053 0.0
O376 O 0.0506 0.35209 0.39317 0.0
H377 H 0.03964 0.43053 0.4555 0.0
H378 H 0.12536 0.46952 0.4414 0.0
N379 N 0.11202 0.40879 0.42133 0.0
N380 N 0.14344 0.39892 0.40086 0.0
C381 C 0.11687 0.39354 0.40019 0.0
C382 C 0.13649 0.42406 0.43597 0.0
C383 C 0.15582 0.41831 0.42327 0.0
C384 C 0.04224 0.37641 0.48388 0.0
O385 O 0.02448 0.38279 0.47192 0.0
H386 H 0.10131 0.37856 0.3847 0.0
H387 H 0.13987 0.43765 0.45547 0.0
O388 O 0.05386 0.39385 0.395 0.0
H389 H 0.11389 0.5066 0.46512 0.0
H390 H 0.17706 0.42685 0.4309 0.0
Cu391 Cu 0.62781 0.68047 0.4334 0.0
N392 N 0.62349 0.71115 0.42218 0.0
N393 N 0.63339 0.75256 0.40176 0.0
C394 C 0.64211 0.73395 0.40634 0.0
C395 C 0.60827 0.74088 0.41544 0.0
C396 C 0.60232 0.71557 0.42801 0.0
O397 O 0.64782 0.67699 0.39783 0.0
C398 C 0.65978 0.67845 0.48574 0.0
O399 O 0.66304 0.66015 0.46971 0.0
H400 H 0.6616 0.73666 0.39804 0.0
H401 H 0.58389 0.70149 0.44071 0.0
N402 N 0.59365 0.64697 0.44005 0.0
N403 N 0.56195 0.60507 0.45901 0.0
C404 C 0.5891 0.6251 0.45815 0.0
C405 C 0.56851 0.64035 0.42895 0.0
C406 C 0.54905 0.61477 0.4406 0.0
C407 C 0.64016 0.65507 0.38159 0.0
O408 O 0.62 0.63114 0.39155 0.0
H409 H 0.60529 0.62415 0.471 0.0
H410 H 0.56453 0.65333 0.41359 0.0
O411 O 0.64731 0.69 0.47334 0.0
H412 H 0.59522 0.75013 0.41681 0.0
H413 H 0.52706 0.60404 0.43567 0.0
C414 C 0.01318 0.70389 0.16393 0.0
C415 C 0.03665 0.71065 0.18215 0.0
C416 C 0.01237 0.69774 0.13213 0.0
C417 C 0.03531 0.69763 0.11819 0.0
C418 C 0.05875 0.70369 0.13669 0.0
C419 C 0.05928 0.71048 0.16825 0.0
C420 C 0.98721 0.69202 0.11327 0.0
C421 C 0.08337 0.7031 0.1231 0.0
C422 C 0.02394 0.65711 0.04277 0.0
C423 C 0.03617 0.67844 0.02072 0.0
C424 C 0.02343 0.66304 0.0744 0.0
C425 C 0.03478 0.691 0.08437 0.0
C426 C 0.04629 0.7126 0.06208 0.0
C427 C 0.04722 0.70611 0.03064 0.0
C428 C 0.01158 0.63937 0.09729 0.0
C429 C 0.05797 0.74264 0.07149 0.0
H430 H 0.99571 0.70433 0.17431 0.0
H431 H 0.07749 0.71567 0.1821 0.0
H432 H 0.99342 0.7073 0.09415 0.0
H433 H 0.97783 0.67105 0.10256 0.0
H434 H 0.97123 0.69321 0.12742 0.0
H435 H 0.09946 0.7071 0.1408 0.0
H436 H 0.07659 0.68254 0.11218 0.0
H437 H 0.09284 0.71902 0.10471 0.0
H438 H 0.01566 0.63567 0.03551 0.0
H439 H 0.05671 0.72273 1.01383 0.0
H440 H 0.99467 0.63943 0.11069 0.0
H441 H 0.02786 0.64212 0.11409 0.0
H442 H 1.00331 0.61876 0.08583 0.0
H443 H 0.04239 0.7451 0.08493 0.0
H444 H 0.06433 0.75677 0.05122 0.0
H445 H 0.07627 0.74923 0.08674 0.0
C446 C 0.37222 0.37635 0.03977 0.0
C447 C 0.35066 0.36635 0.01781 0.0
C448 C 0.36684 0.37057 0.07153 0.0
C449 C 0.33923 0.3537 0.08177 0.0
C450 C 0.31741 0.34276 0.0596 0.0
C451 C 0.32334 0.34955 0.028 0.0
C452 C 0.3907 0.38332 0.09424 0.0
C453 C 0.28775 0.3241 0.06932 0.0
C454 C 0.32799 0.32079 0.1621 0.0
C455 C 0.3208 0.33749 0.17981 0.0
C456 C 0.33384 0.32567 0.13024 0.0
C457 C 0.33318 0.34823 0.11572 0.0
C458 C 0.32682 0.3657 0.13375 0.0
C459 C 0.32036 0.3599 0.16537 0.0
C460 C 0.33994 0.30617 0.11192 0.0
C461 C 0.3266 0.39042 0.11956 0.0
H462 H 0.39339 0.38966 0.0323 0.0
H463 H 0.30656 0.34173 1.01126 0.0
H464 H 0.38776 0.39698 0.11074 0.0
H465 H 0.39133 0.3668 0.10801 0.0
H466 H 0.41099 0.39582 0.08259 0.0
H467 H 0.27343 0.3157 0.04917 0.0
H468 H 0.28594 0.30643 0.08312 0.0
H469 H 0.28102 0.33587 0.08431 0.0
H470 H 0.32799 0.30316 0.17288 0.0
H471 H 0.31479 0.37288 0.1788 0.0
H472 H 0.36057 0.31794 0.1009 0.0
H473 H 0.32444 0.2963 0.09305 0.0
H474 H 0.33956 0.28953 0.12653 0.0
H475 H 0.34676 0.40422 0.10828 0.0
H476 H 0.32262 0.40277 0.13697 0.0
H477 H 0.31037 0.38329 0.10135 0.0
C478 C 0.67192 0.96355 0.17065 0.0
C479 C 0.69367 0.98778 0.18395 0.0
C480 C 0.66632 0.96178 0.13865 0.0
C481 C 0.68317 0.98459 0.1192 0.0
C482 C 0.70459 0.00945 0.13263 0.0
C483 C 0.70941 0.01082 0.1648 0.0
C484 C 0.64292 0.93507 0.1255 0.0
C485 C 0.72328 0.03416 0.11284 0.0
C486 C 0.68777 0.96548 0.03536 0.0
C487 C 0.66957 0.97208 0.02005 0.0
C488 C 0.69305 0.97034 0.06732 0.0
C489 C 0.67949 0.98169 0.08471 0.0
C490 C 0.66163 0.98906 0.06926 0.0
C491 C 0.65705 0.98437 0.03713 0.0
C492 C 0.71264 0.96261 0.08263 0.0
C493 C 0.64651 1.00092 0.08687 0.0
H494 H 0.65957 0.94568 0.1852 0.0
H495 H 0.72641 0.0296 0.17473 0.0
H496 H 0.62923 0.93952 0.11085 0.0
H497 H 0.65144 0.92491 0.1105 0.0
H498 H 0.63025 0.9202 0.14389 0.0
H499 H 0.73765 0.0526 0.12694 0.0
H500 H 0.73574 0.02862 0.09748 0.0
H501 H 0.71083 0.0399 0.09772 0.0
H502 H 0.69763 0.95608 0.02241 0.0
H503 H 0.64278 0.98937 0.02563 0.0
H504 H 0.70113 0.94549 0.09933 0.0
H505 H 0.7288 0.98062 0.09589 0.0
H506 H 0.72296 0.95578 0.06561 0.0
H507 H 0.63195 0.98522 0.10348 0.0
H508 H 0.63459 0.00706 0.0713 0.0
H509 H 0.66136 0.01938 0.10055 0.0
C510 C 0.72856 0.0461 0.50092 0.0
C511 C 0.70593 0.04662 0.51429 0.0
C512 C 0.7283 0.03919 0.46945 0.0
C513 C 0.70522 0.03352 0.45051 0.0
C514 C 0.68226 0.03394 0.46395 0.0
C515 C 0.68272 0.04007 0.4957 0.0
C516 C 0.75286 0.03815 0.45642 0.0
C517 C 0.65753 0.02877 0.44459 0.0
C518 C 0.71878 0.04375 0.36343 0.0
C519 C 0.7069 0.01625 0.3527 0.0
C520 C 0.71764 0.04963 0.39499 0.0
C521 C 0.70529 0.02753 0.41661 0.0
C522 C 0.69345 0.99972 0.40584 0.0
C523 C 0.69398 0.99443 0.37402 0.0
C524 C 0.72975 0.07953 0.40522 0.0
C525 C 0.68091 0.97554 0.42804 0.0
H526 H 0.74654 0.0511 0.51511 0.0
H527 H 0.66528 0.04079 0.50571 0.0
H528 H 0.74587 0.01779 0.44488 0.0
H529 H 0.76319 0.05451 0.43862 0.0
H530 H 0.76833 0.04125 0.47456 0.0
H531 H 0.64136 0.02989 0.45848 0.0
H532 H 0.66424 0.04441 0.4258 0.0
H533 H 0.64818 0.00799 0.43342 0.0
H534 H 0.72877 0.06068 0.34705 0.0
H535 H 0.68515 0.97313 0.36595 0.0
H536 H 0.74756 0.08535 0.421 0.0
H537 H 0.71409 0.08213 0.41833 0.0
H538 H 0.73692 0.09415 0.38536 0.0
H539 H 0.69666 0.97788 0.44541 0.0
H540 H 0.67297 0.95519 0.41607 0.0
H541 H 0.66362 0.97534 0.44088 0.0
C542 C 0.98905 0.65517 0.5001 0.0
C543 C 0.97815 0.66844 0.51825 0.0
C544 C 0.99289 0.65988 0.46793 0.0
C545 C 0.98618 0.67873 0.45354 0.0
C546 C 0.97652 0.69321 0.47209 0.0
C547 C 0.97235 0.68769 0.50403 0.0
C548 C 1.00286 0.64366 0.44913 0.0
C549 C 0.96965 0.71392 0.458 0.0
C550 C 0.01223 0.70697 0.37227 0.0
C551 C 0.98825 0.69164 0.35416 0.0
C552 C 0.0121 0.70264 0.40446 0.0
C553 C 0.98755 0.68213 0.41897 0.0
C554 C 0.96366 0.66581 0.40055 0.0
C555 C 0.96421 0.67094 0.36855 0.0
C556 C 0.03793 0.72081 0.42313 0.0
C557 C 0.93718 0.64336 0.41479 0.0
H558 H 0.99333 0.64003 0.51075 0.0
H559 H 0.964 0.69811 0.51782 0.0
H560 H 0.98615 0.6293 0.43313 0.0
H561 H 0.02081 0.65793 0.43472 0.0
H562 H 1.00896 0.63124 0.46393 0.0
H563 H 0.96469 0.72521 0.47583 0.0
H564 H 0.98728 0.72936 0.44396 0.0
H565 H 0.95157 0.70297 0.44223 0.0
H566 H 0.03088 0.72317 0.3615 0.0
H567 H 0.94562 0.6589 0.35482 0.0
H568 H 0.04369 0.70781 0.43727 0.0
H569 H 0.03391 0.73389 0.43939 0.0
H570 H 0.05578 0.73468 0.40826 0.0
H571 H 0.94135 0.62901 0.42862 0.0
H572 H 0.92115 0.63104 0.39707 0.0
H573 H 0.92871 0.6529 0.43079 0.0
C574 C 0.37923 0.33151 0.49282 0.0
C575 C 0.36565 0.34087 0.51269 0.0
C576 C 0.37357 0.32823 0.46078 0.0
C577 C 0.35337 0.33384 0.44817 0.0
C578 C 0.33913 0.34267 0.46823 0.0
C579 C 0.34566 0.34639 0.50009 0.0
C580 C 0.38967 0.31932 0.4403 0.0
C581 C 0.31703 0.34832 0.45601 0.0
C582 C 0.35492 0.35097 0.36213 0.0
C583 C 0.33504 0.32528 0.34947 0.0
C584 C 0.36146 0.3539 0.39399 0.0
C585 C 0.34735 0.33077 0.41399 0.0
C586 C 0.32728 0.30477 0.40132 0.0
C587 C 0.32161 0.30228 0.36928 0.0
C588 C 0.38341 0.38185 0.40627 0.0
C589 C 0.31134 0.27968 0.42174 0.0
H590 H 0.39491 0.32745 0.5022 0.0
H591 H 0.33501 0.35357 0.5152 0.0
H592 H 0.37528 0.29986 0.42777 0.0
H593 H 0.40113 0.3355 0.42259 0.0
H594 H 0.4047 0.31578 0.4536 0.0
H595 H 0.30698 0.35381 0.47474 0.0
H596 H 0.3262 0.36568 0.43918 0.0
H597 H 0.30089 0.32974 0.44349 0.0
H598 H 0.36548 0.36885 0.34707 0.0
H599 H 0.30601 0.2824 0.35987 0.0
H600 H 0.39964 0.37966 0.41876 0.0
H601 H 0.37413 0.38991 0.42313 0.0
H602 H 0.39338 0.39744 0.38758 0.0
H603 H 0.32583 0.27485 0.43422 0.0
H604 H 0.2964 0.26096 0.40839 0.0
H605 H 0.29978 0.28423 0.43949 0.0
C606 C 0.03892 0.33738 0.87143 0.0
C607 C 0.0171 0.32469 0.84994 0.0
C608 C 0.03382 0.33755 0.90334 0.0
C609 C 1.00621 0.32548 0.9141 0.0
C610 C 0.98411 0.3134 0.89235 0.0
C611 C 0.98979 0.31271 0.86066 0.0
C612 C 0.058 0.34992 0.92563 0.0
C613 C 0.9544 0.301 0.90259 0.0
C614 C 0.9884 0.30061 0.99782 0.0
C615 C 0.98778 0.32301 1.01214 0.0
C616 C 0.99505 0.30145 0.96622 0.0
C617 C 1.00042 0.32492 0.94812 0.0
C618 C 0.99991 0.34765 0.96252 0.0
C619 C 0.99399 0.34658 0.99436 0.0
C620 C 0.99613 0.27708 0.95215 0.0
C621 C 1.00481 0.3728 0.94411 0.0
H622 H 0.06008 0.34632 0.86342 0.0
H623 H 0.97283 0.3029 0.84421 0.0
H624 H 0.05803 0.36687 0.93932 0.0
H625 H 0.05598 0.33379 0.94224 0.0
H626 H 0.07821 0.35841 0.91363 0.0
H627 H 0.93974 0.29411 0.8827 0.0
H628 H 0.94873 0.28284 0.91775 0.0
H629 H 0.95185 0.31648 0.91636 0.0
H630 H 0.98367 0.28234 1.01135 0.0
H631 H 0.99322 0.36386 1.00509 0.0
H632 H 0.01637 0.28439 0.94063 0.0
H633 H 0.97981 0.26703 0.93416 0.0
H634 H 0.99314 0.2612 0.96968 0.0
H635 H 0.02538 0.38242 0.93283 0.0
H636 H 1.00381 0.38878 0.9587 0.0
H637 H 0.98905 0.36633 0.92542 0.0
C638 C 0.73157 0.68944 1.00181 0.0
C639 C 0.70715 0.66936 0.01616 0.0
C640 C 0.73249 0.69439 0.96973 0.0
C641 C 0.70854 0.67857 0.95122 0.0
C642 C 0.68356 0.65889 0.96572 0.0
C643 C 0.68311 0.65467 0.99797 0.0
C644 C 0.75946 0.71594 0.95549 0.0
C645 C 0.6576 0.64133 0.94698 0.0
C646 C 0.70915 0.70502 0.86923 0.0
C647 C 0.71913 0.69051 0.85177 0.0
C648 C 0.70489 0.70089 0.90143 0.0
C649 C 0.7103 0.68143 0.91659 0.0
C650 C 0.71906 0.66577 0.89876 0.0
C651 C 0.72359 0.67065 0.86675 0.0
C652 C 0.69584 0.71828 0.91943 0.0
C653 C 0.72462 0.64445 0.9137 0.0
H654 H 0.75023 0.70097 0.01558 0.0
H655 H 0.66415 0.63894 1.00868 0.0
H656 H 0.76745 0.70557 0.94004 0.0
H657 H 0.75612 0.73055 0.94108 0.0
H658 H 0.77551 0.7281 0.97324 0.0
H659 H 0.63938 0.62847 0.96185 0.0
H660 H 0.65289 0.65471 0.93209 0.0
H661 H 0.66085 0.62727 0.93144 0.0
H662 H 0.70587 0.7206 0.85802 0.0
H663 H 0.73121 0.65926 0.85352 0.0
H664 H 0.71268 0.73239 0.93545 0.0
H665 H 0.67751 0.70478 0.93379 0.0
H666 H 0.69065 0.73109 0.90408 0.0
H667 H 0.7426 0.65501 0.92968 0.0
H668 H 0.72911 0.63242 0.89638 0.0
H669 H 0.70653 0.62971 0.92768 0.0
C670 C 0.37593 0.03786 0.99365 0.0
C671 C 0.36116 0.04735 1.01134 0.0
C672 C 0.37184 0.03382 0.96138 0.0
C673 C 0.35216 0.03892 0.94637 0.0
C674 C 0.33624 0.04716 0.96439 0.0
C675 C 0.3411 0.05151 0.99648 0.0
C676 C 0.38951 0.02534 0.94315 0.0
C677 C 0.31468 0.05236 0.94961 0.0
C678 C 0.35965 0.06098 0.86164 0.0
C679 C 0.33992 0.03642 0.84679 0.0
C680 C 0.36467 0.06171 0.89371 0.0
C681 C 0.34929 0.03741 0.91171 0.0
C682 C 0.33001 0.01229 0.8967 0.0
C683 C 0.32572 0.01204 0.86447 0.0
C684 C 0.38578 0.08885 0.9085 0.0
C685 C 0.31294 0.98596 0.91491 0.0
H686 H 0.39167 0.03482 1.00478 0.0
H687 H 0.32951 0.05876 1.00989 0.0
H688 H 0.37631 0.00696 0.92842 0.0
H689 H 0.40332 0.04252 0.92749 0.0
H690 H 0.4025 0.02031 0.95838 0.0
H691 H 0.30249 0.05641 0.96704 0.0
H692 H 0.3249 0.07059 0.93401 0.0
H693 H 0.30023 0.03419 0.93526 0.0
H694 H 0.37082 0.0799 0.84826 0.0
H695 H 0.31027 0.99298 0.85336 0.0
H696 H 0.40054 0.08571 0.92283 0.0
H697 H 0.3752 0.09645 0.92412 0.0
H698 H 0.39767 0.10521 0.89107 0.0
H699 H 0.3265 0.98148 0.92975 0.0
H700 H 0.30045 0.96769 0.89966 0.0
H701 H 0.29868 0.98872 0.93046 0.0
C702 C 0.31681 0.98201 0.6643 0.0
C703 C 0.32897 0.00942 0.6754 0.0
C704 C 0.31747 0.97639 0.63254 0.0
C705 C 0.32959 0.99867 0.61111 0.0
C706 C 0.34169 0.0264 0.62226 0.0
C707 C 0.34166 0.03142 0.65425 0.0
C708 C 0.30511 0.94657 0.62192 0.0
C709 C 0.35397 0.05077 0.60031 0.0
C710 C 0.35087 0.98629 0.53111 0.0
C711 C 0.3273 0.9796 0.51312 0.0
C712 C 0.35191 0.99251 0.56292 0.0
C713 C 0.32919 0.99294 0.57704 0.0
C714 C 0.30582 0.98731 0.55865 0.0
C715 C 0.30495 0.98024 0.52713 0.0
C716 C 0.37691 0.99757 0.58167 0.0
C717 C 0.28151 0.98843 0.57236 0.0
H718 H 0.30697 0.96494 0.68054 0.0
H719 H 0.3507 0.05265 0.66261 0.0
H720 H 0.28707 0.94093 0.60657 0.0
H721 H 0.32052 0.94402 0.60824 0.0
H722 H 0.29819 0.93178 0.64161 0.0
H723 H 0.36206 0.07101 0.61257 0.0
H724 H 0.3711 0.05108 0.58701 0.0
H725 H 0.33802 0.04859 0.58333 0.0
H726 H 0.36807 0.98543 0.52062 0.0
H727 H 0.28668 0.97509 0.51341 0.0
H728 H 0.37048 0.98173 0.6002 0.0
H729 H 0.38635 0.01823 0.59316 0.0
H730 H 0.39293 0.99667 0.56726 0.0
H731 H 0.27122 0.97181 0.58989 0.0
H732 H 0.26595 0.98573 0.55453 0.0
H733 H 0.28876 0.00863 0.58435 0.0
C734 C 0.05868 0.36203 0.66605 0.0
C735 C 0.03735 0.33746 0.67895 0.0
C736 C 0.05856 0.36807 0.63438 0.0
C737 C 0.037 0.34871 0.61478 0.0
C738 C 0.01535 0.32391 0.62773 0.0
C739 C 0.01561 0.31877 0.65962 0.0
C740 C 0.08165 0.39511 0.62183 0.0
C741 C 0.99226 0.3024 0.60772 0.0
C742 C 0.02398 0.37375 0.53753 0.0
C743 C 0.03925 0.3672 0.51676 0.0
C744 C 0.02308 0.36788 0.56935 0.0
C745 C 0.03718 0.35441 0.58078 0.0
C746 C 0.05189 0.34692 0.55975 0.0
C747 C 0.0531 0.35376 0.52814 0.0
C748 C 1.00772 0.3769 0.59089 0.0
C749 C 0.06661 0.33189 0.57072 0.0
H750 H 0.07555 0.37659 0.68076 0.0
H751 H 0.9992 0.29953 0.66922 0.0
H752 H 0.09365 0.39083 0.60444 0.0
H753 H 0.0729 0.40672 0.60992 0.0
H754 H 0.09606 0.40859 0.64031 0.0
H755 H 0.97694 0.28422 0.62129 0.0
H756 H 0.98129 0.31179 0.59579 0.0
H757 H 1.00103 0.29494 0.58953 0.0
H758 H 0.0135 0.38447 0.52911 0.0
H759 H 0.06493 0.34862 0.5123 0.0
H760 H 0.02227 0.3917 0.60839 0.0
H761 H 0.99153 0.35871 0.60361 0.0
H762 H 0.99774 0.38708 0.57839 0.0
H763 H 0.08353 0.34536 0.58697 0.0
H764 H 0.0756 0.32591 0.55127 0.0
H765 H 0.05202 0.31282 0.58353 0.0
C766 C 0.6866 0.67609 0.53156 0.0
C767 C 0.66788 0.68347 0.51912 0.0
C768 C 0.69333 0.67949 0.56337 0.0
C769 C 0.68058 0.68994 0.58352 0.0
C770 C 0.66166 0.69741 0.57108 0.0
C771 C 0.65579 0.69438 0.53909 0.0
C772 C 0.71408 0.67185 0.57544 0.0
C773 C 0.64717 0.70813 0.59167 0.0
C774 C 0.67862 0.67351 0.66984 0.0
C775 C 0.69964 0.69884 0.68198 0.0
C776 C 0.67188 0.67047 0.63802 0.0
C777 C 0.68701 0.69305 0.61758 0.0
C778 C 0.70836 0.71862 0.62972 0.0
C779 C 0.71417 0.72129 0.66171 0.0
C780 C 0.64854 0.64305 0.62628 0.0
C781 C 0.72545 0.74305 0.60882 0.0
H782 H 0.6961 0.66769 0.51638 0.0
H783 H 0.64108 0.69989 0.52985 0.0
H784 H 0.73121 0.68993 0.58762 0.0
H785 H 0.70406 0.65478 0.59252 0.0
H786 H 0.72299 0.66507 0.55666 0.0
H787 H 0.63281 0.71277 0.57851 0.0
H788 H 0.63522 0.6925 0.60971 0.0
H789 H 0.66263 0.72736 0.60378 0.0
H790 H 0.66724 0.65608 0.68528 0.0
H791 H 0.73068 0.74087 0.67074 0.0
H792 H 0.65658 0.63379 0.60935 0.0
H793 H 0.63295 0.64642 0.614 0.0
H794 H 0.63806 0.62789 0.64525 0.0
H795 H 0.73577 0.73704 0.59093 0.0
H796 H 0.74155 0.76138 0.62176 0.0
H797 H 0.71188 0.74922 0.59652 0.0
C798 C 0.37792 0.37899 0.83404 0.0
C799 C 0.35065 0.36578 0.8451 0.0
C800 C 0.38352 0.37824 0.80231 0.0
C801 C 0.36131 0.36484 0.78082 0.0
C802 C 0.33374 0.35156 0.79192 0.0
C803 C 0.32878 0.35182 0.82387 0.0
C804 C 0.41323 0.39196 0.79175 0.0
C805 C 0.30939 0.33777 0.76994 0.0
C806 C 0.37755 0.38873 0.69656 0.0
C807 C 0.37942 0.36686 0.68263 0.0
C808 C 0.3709 0.38795 0.72816 0.0
C809 C 0.36691 0.36518 0.74673 0.0
C810 C 0.36862 0.34295 0.73271 0.0
C811 C 0.37442 0.34387 0.70083 0.0
C812 C 0.36842 0.4117 0.74176 0.0
C813 C 0.36527 0.31862 0.7516 0.0
H814 H 0.39492 0.38982 0.85027 0.0
H815 H 0.30762 0.34193 0.83209 0.0
H816 H 0.4167 0.37697 0.77817 0.0
H817 H 0.4178 0.40968 0.77631 0.0
H818 H 0.42809 0.39981 0.81147 0.0
H819 H 0.28923 0.32852 0.78218 0.0
H820 H 0.31034 0.35326 0.75304 0.0
H821 H 0.31024 0.32115 0.75655 0.0
H822 H 0.38141 0.40658 0.68271 0.0
H823 H 0.37625 0.32705 0.69043 0.0
H824 H 0.38491 0.42286 0.75934 0.0
H825 H 0.34824 0.40357 0.75367 0.0
H826 H 0.37017 0.42685 0.72388 0.0
H827 H 0.38129 0.32615 0.77011 0.0
H828 H 0.36712 0.30296 0.7373 0.0
H829 H 0.3448 0.30824 0.76314 0.0
C830 C 0.65276 0.01491 0.69629 0.0
C831 C 0.68031 0.03101 0.68658 0.0
C832 C 0.64628 0.00807 0.72775 0.0
C833 C 0.6678 0.0184 0.75025 0.0
C834 C 0.69564 0.03474 0.7405 0.0
C835 C 0.70156 0.04046 0.70883 0.0
C836 C 0.61638 0.9899 0.73694 0.0
C837 C 0.71919 0.04689 0.76364 0.0
C838 C 0.64802 0.02366 0.83365 0.0
C839 C 0.64804 1.0009 0.8477 0.0
C840 C 0.65493 0.0299 0.8022 0.0
C841 C 0.66121 0.01248 0.78398 0.0
C842 C 0.66123 0.98945 0.79808 0.0
C843 C 0.65505 0.98418 0.82979 0.0
C844 C 0.65545 0.05514 0.78843 0.0
C845 C 0.66711 0.96992 0.77947 0.0
H846 H 0.63625 0.00754 0.67923 0.0
H847 H 0.7229 0.05328 0.70161 0.0
H848 H 0.6139 0.9718 0.75043 0.0
H849 H 0.60991 1.00178 0.75208 0.0
H850 H 0.60228 0.98212 0.71656 0.0
H851 H 0.73967 0.05942 0.75238 0.0
H852 H 0.71619 0.06037 0.78035 0.0
H853 H 0.71942 0.03002 0.77711 0.0
H854 H 0.64265 0.03667 0.84732 0.0
H855 H 0.65475 0.96632 0.84031 0.0
H856 H 0.63957 0.04862 0.76989 0.0
H857 H 0.67588 0.06887 0.77765 0.0
H858 H 0.65145 0.06735 0.80599 0.0
H859 H 0.65203 0.96082 0.7601 0.0
H860 H 0.6659 0.9527 0.79372 0.0
H861 H 0.68804 0.98151 0.76912 0.0
C862 C 0.04769 0.666 0.83069 0.0
C863 C 0.03424 0.6752 0.85097 0.0
C864 C 0.04193 0.66313 0.79867 0.0
C865 C 0.02169 0.6689 0.78652 0.0
C866 C 1.00755 0.67752 0.80701 0.0
C867 C 0.01426 0.68094 0.83883 0.0
C868 C 0.05799 0.65452 0.77772 0.0
C869 C 0.98534 0.68322 0.7953 0.0
C870 C 0.02231 0.68637 0.70068 0.0
C871 C 1.00257 0.66062 0.68804 0.0
C872 C 0.02914 0.68923 0.73247 0.0
C873 C 0.01537 0.66598 0.75242 0.0
C874 C 0.99538 0.63996 0.73975 0.0
C875 C 0.9895 0.63753 0.70777 0.0
C876 C 0.05108 0.71718 0.74474 0.0
C877 C 0.9797 0.61477 0.76011 0.0
H878 H 0.06342 0.66185 0.83972 0.0
H879 H 1.00375 0.68803 0.85428 0.0
H880 H 0.0436 0.63509 0.76516 0.0
H881 H 0.0692 0.67083 0.76006 0.0
H882 H 0.07324 0.65105 0.79067 0.0
H883 H 0.97536 0.68849 0.81432 0.0
H884 H 0.99437 0.70075 0.77868 0.0
H885 H 0.96916 0.66474 0.78268 0.0
H886 H 0.03255 0.70431 0.68566 0.0
H887 H 0.97398 0.61761 0.69836 0.0
H888 H 0.06746 0.71506 0.75697 0.0
H889 H 0.04185 0.72512 0.76182 0.0
H890 H 0.06085 0.73283 0.72606 0.0
H891 H 0.99435 0.60991 0.77217 0.0
H892 H 0.96463 0.59609 0.7468 0.0
H893 H 0.96833 0.61922 0.77821 0.0
C894 C 0.65818 0.68126 0.33181 0.0
C895 C 0.65047 0.65721 0.34934 0.0
C896 C 0.6645 0.68234 0.30008 0.0
C897 C 0.66398 0.65911 0.28559 0.0
C898 C 0.6573 0.63519 0.30354 0.0
C899 C 0.65015 0.63435 0.33497 0.0
C900 C 0.67071 0.70796 0.28179 0.0
C901 C 0.65736 0.61031 0.28945 0.0
C902 C 0.65349 0.64763 0.198 0.0
C903 C 0.68075 0.65892 0.18741 0.0
C904 C 0.64781 0.64833 0.2297 0.0
C905 C 0.66984 0.65957 0.25159 0.0
C906 C 0.69741 0.67079 0.24095 0.0
C907 C 0.70254 0.67077 0.20903 0.0
C908 C 0.61819 0.63693 0.23978 0.0
C909 C 0.72148 0.68209 0.26337 0.0
H910 H 0.65806 0.69888 0.34257 0.0
H911 H 0.64421 0.61569 0.34834 0.0
H912 H 0.6913 0.71681 0.2707 0.0
H913 H 0.65517 0.70225 0.26298 0.0
H914 H 0.67045 0.72431 0.29644 0.0
H915 H 0.65387 0.59427 0.307 0.0
H916 H 0.64089 0.60067 0.27155 0.0
H917 H 0.67743 0.61692 0.27782 0.0
H918 H 0.63658 0.63844 0.18142 0.0
H919 H 0.72365 0.6791 0.20107 0.0
H920 H 0.61633 0.65276 0.25369 0.0
H921 H 0.61175 0.61851 0.25475 0.0
H922 H 0.60367 0.63072 0.2198 0.0
H923 H 0.72244 0.69953 0.27697 0.0
H924 H 0.74161 0.6896 0.25148 0.0
H925 H 0.7185 0.66565 0.28006 0.0
C926 C 0.343 0.00771 0.19345 0.0
C927 C 0.36873 0.02738 0.18121 0.0
C928 C 0.33993 1.00104 0.22522 0.0
C929 C 0.36297 0.01486 0.24553 0.0
C930 C 0.38897 0.03481 0.23329 0.0
C931 C 0.3916 0.04057 0.20134 0.0
C932 C 0.31198 0.97918 0.23707 0.0
C933 C 0.41396 0.0505 0.25405 0.0
C934 C 0.34809 0.01636 0.33175 0.0
C935 C 0.35355 0.99614 0.34389 0.0
C936 C 0.35149 0.02297 0.29997 0.0
C937 C 0.3599 0.00855 0.27955 0.0
C938 C 0.36537 0.98806 0.29169 0.0
C939 C 0.36245 0.98236 0.32366 0.0
C940 C 0.34605 0.04541 0.28823 0.0
C941 C 0.37383 0.97177 0.27081 0.0
H942 H 0.32522 0.99738 0.17812 0.0
H943 H 0.41152 0.05604 0.19225 0.0
H944 H 0.31387 0.96259 0.24919 0.0
H945 H 0.30421 0.98857 0.25416 0.0
H946 H 0.29642 0.96952 0.21819 0.0
H947 H 0.43264 0.06558 0.24105 0.0
H948 H 0.40953 0.06198 0.27211 0.0
H949 H 0.41866 0.03571 0.26615 0.0
H950 H 0.34126 0.02716 0.34716 0.0
H951 H 0.36644 0.96648 0.33268 0.0
H952 H 0.32875 0.03645 0.27124 0.0
H953 H 0.36459 0.06164 0.27602 0.0
H954 H 0.34072 0.05545 0.30719 0.0
H955 H 0.35769 0.96065 0.25283 0.0
H956 H 0.37701 0.9563 0.28374 0.0
H957 H 0.3933 0.98611 0.25862 0.0
C958 C 0.04453 0.35355 0.32655 0.0
C959 C 0.03738 0.36829 0.34752 0.0
C960 C 0.03905 0.35307 0.29462 0.0
C961 C 0.02527 0.36692 0.28332 0.0
C962 C 0.01713 0.38102 0.30458 0.0
C963 C 0.02372 0.38195 0.33628 0.0
C964 C 0.04887 0.3385 0.27285 0.0
C965 C 1.00168 0.39535 0.29379 0.0
C966 C 0.03342 0.39019 0.19881 0.0
C967 C 1.00952 0.36853 0.18495 0.0
C968 C 0.0391 0.38959 0.23054 0.0
C969 C 0.01999 0.36724 0.24924 0.0
C970 C 0.9958 0.34532 0.23533 0.0
C971 C 0.99107 0.34603 0.20336 0.0
C972 C 0.06555 0.41298 0.24409 0.0
C973 C 0.97449 0.32145 0.25438 0.0
H974 H 0.05548 0.3433 0.33493 0.0
H975 H 0.01814 0.39338 0.35233 0.0
H976 H 0.03114 0.32218 0.25947 0.0
H977 H 0.06361 0.35364 0.25592 0.0
H978 H 0.05927 0.32869 0.28525 0.0
H979 H 0.99504 0.40362 0.3134 0.0
H980 H 0.01503 0.41286 0.27828 0.0
H981 H 0.98308 0.38063 0.28024 0.0
H982 H 0.04779 0.40761 0.18477 0.0
H983 H 0.97236 0.32936 0.19298 0.0
H984 H 0.07734 0.40442 0.25596 0.0
H985 H 0.06065 0.42442 0.26171 0.0
H986 H 0.079 0.42797 0.22619 0.0
H987 H 0.9841 0.31056 0.26605 0.0
H988 H 0.95673 0.30608 0.24016 0.0
H989 H 0.96652 0.32955 0.27279 0.0
C990 C 0.23284 0.89233 0.38279 0.0
C991 C 0.24757 0.8781 0.38668 0.0
C992 C 0.20691 0.87983 0.36737 0.0
C993 C 0.19549 0.85257 0.35477 0.0
C994 C 0.21056 0.83835 0.3582 0.0
C995 C 0.2361 0.8511 0.37428 0.0
C996 C 0.19155 0.8957 0.36488 0.0
C997 C 0.19979 0.80964 0.34463 0.0
C998 C 0.11752 0.80831 0.33679 0.0
C999 C 0.11638 0.81268 0.30491 0.0
C1000 C 0.14289 0.82144 0.35334 0.0
C1001 C 0.16806 0.83904 0.33767 0.0
C1002 C 0.16703 0.84325 0.30541 0.0
C1003 C 0.14135 0.8303 0.28959 0.0
C1004 C 0.14272 0.81659 0.38772 0.0
C1005 C 0.19317 0.86121 0.28742 0.0
H1006 H 0.24132 0.91304 0.3925 0.0
H1007 H 0.24738 0.84001 0.37677 0.0
H1008 H 0.18835 0.8988 0.34018 0.0
H1009 H 0.17076 0.88351 0.3755 0.0
H1010 H 0.20278 0.91637 0.37644 0.0
H1011 H 0.21416 0.80154 0.34869 0.0
H1012 H 0.17942 0.79493 0.35489 0.0
H1013 H 0.19657 0.81006 0.31931 0.0
H1014 H 0.09843 0.795 0.34896 0.0
H1015 H 0.1409 0.83358 0.26494 0.0
H1016 H 0.15222 0.83678 0.40026 0.0
H1017 H 0.15538 0.80679 0.39301 0.0
H1018 H 0.12147 0.80301 0.39672 0.0
H1019 H 0.20397 0.88265 0.29706 0.0
H1020 H 0.18901 0.86228 0.26244 0.0
H1021 H 0.20752 0.8529 0.28968 0.0
C1022 C 0.22275 0.32237 0.33308 0.0
C1023 C 0.22008 0.31913 0.30077 0.0
C1024 C 0.21003 0.33497 0.34972 0.0
C1025 C 0.19472 0.34528 0.33373 0.0
C1026 C 0.19244 0.3425 0.30103 0.0
C1027 C 0.20482 0.32929 0.2851 0.0
C1028 C 0.21267 0.3369 0.38454 0.0
C1029 C 0.17704 0.3537 0.28274 0.0
C1030 C 0.1408 0.35704 0.37617 0.0
C1031 C 0.15585 0.38559 0.38323 0.0
C1032 C 0.15322 0.34363 0.36061 0.0
C1033 C 0.18129 0.35916 0.35102 0.0
C1034 C 0.19637 0.38812 0.35759 0.0
C1035 C 0.18364 0.40082 0.37387 0.0
C1036 C 0.13639 0.31268 0.35483 0.0
C1037 C 0.226 0.4058 0.3472 0.0
H1038 H 0.23425 0.31443 0.34545 0.0
H1039 H 0.20291 0.32728 0.26014 0.0
H1040 H 0.22295 0.359 0.392 0.0
H1041 H 0.19178 0.32619 0.39515 0.0
H1042 H 0.22475 0.32748 0.39365 0.0
H1043 H 0.17772 0.35059 0.25741 0.0
H1044 H 0.15507 0.34328 0.29006 0.0
H1045 H 0.18609 0.37628 0.28745 0.0
H1046 H 0.11946 0.34501 0.38363 0.0
H1047 H 0.19538 0.4229 0.37897 0.0
H1048 H 0.1469 0.3022 0.36542 0.0
H1049 H 0.13481 0.30835 0.3296 0.0
H1050 H 0.11515 0.30338 0.36443 0.0
H1051 H 0.2391 0.39825 0.35795 0.0
H1052 H 0.23471 0.4281 0.35334 0.0
H1053 H 0.22729 0.40403 0.32173 0.0
C1054 C 0.71052 0.9103 0.33736 0.0
C1055 C 0.71682 0.91123 0.30571 0.0
C1056 C 0.69738 0.88488 0.35377 0.0
C1057 C 0.69 0.85946 0.33831 0.0
C1058 C 0.69619 0.86026 0.30637 0.0
C1059 C 0.70948 0.88594 0.29061 0.0
C1060 C 0.69146 0.88523 0.38778 0.0
C1061 C 0.68848 0.83387 0.28865 0.0
C1062 C 0.67673 0.79459 0.38421 0.0
C1063 C 0.64766 0.77927 0.38588 0.0
C1064 C 0.69072 0.82072 0.36928 0.0
C1065 C 0.67544 0.83198 0.35524 0.0
C1066 C 0.6461 0.81656 0.35673 0.0
C1067 C 0.63267 0.79064 0.37202 0.0
C1068 C 0.72196 0.83634 0.36859 0.0
C1069 C 0.62878 0.82733 0.34183 0.0
H1070 H 0.71619 0.92955 0.34946 0.0
H1071 H 0.71367 0.88607 0.26614 0.0
H1072 H 0.66888 0.8723 0.392 0.0
H1073 H 0.70181 0.87602 0.40133 0.0
H1074 H 0.69862 0.90661 0.39659 0.0
H1075 H 0.69478 0.8379 0.26397 0.0
H1076 H 0.69845 0.82293 0.29942 0.0
H1077 H 0.66576 0.81959 0.28966 0.0
H1078 H 0.68866 0.78636 0.39503 0.0
H1079 H 0.61027 0.77902 0.37266 0.0
H1080 H 0.73007 0.85724 0.3792 0.0
H1081 H 0.72924 0.83952 0.34428 0.0
H1082 H 0.73093 0.8252 0.38112 0.0
H1083 H 0.63443 0.84802 0.35162 0.0
H1084 H 0.60624 0.81309 0.34521 0.0
H1085 H 0.63302 0.83012 0.31662 0.0
C1086 C 0.81104 0.12965 0.21935 0.0
C1087 C 0.82192 0.11169 0.21689 0.0
C1088 C 0.82358 0.15574 0.20429 0.0
C1089 C 0.84754 0.16423 0.18588 0.0
C1090 C 0.85849 0.1461 0.18315 0.0
C1091 C 0.84571 0.1203 0.19869 0.0
C1092 C 0.81123 0.17433 0.20822 0.0
C1093 C 0.88367 0.15387 0.16353 0.0
C1094 C 0.86508 0.21939 0.12301 0.0
C1095 C 0.88681 0.2436 0.13659 0.0
C1096 C 0.85219 0.19367 0.13872 0.0
C1097 C 0.8609 0.19177 0.16907 0.0
C1098 C 0.88271 0.21614 0.18301 0.0
C1099 C 0.89542 0.24158 0.16665 0.0
C1100 C 0.82934 0.16836 0.12262 0.0
C1101 C 0.89262 0.21536 0.21534 0.0
H1102 H 0.79291 0.12351 0.23352 0.0
H1103 H 0.85418 0.1066 0.19612 0.0
H1104 H 0.82698 0.19472 0.21799 0.0
H1105 H 0.80491 0.17842 0.18535 0.0
H1106 H 0.7929 0.16505 0.22367 0.0
H1107 H 0.88973 0.1376 0.16372 0.0
H1108 H 0.87954 0.15727 0.13925 0.0
H1109 H 0.90143 0.17369 0.17199 0.0
H1110 H 0.8584 0.22039 0.09973 0.0
H1111 H 0.91189 0.26004 0.17764 0.0
H1112 H 0.81012 0.1595 0.13655 0.0
H1113 H 0.83521 0.15205 0.12052 0.0
H1114 H 0.82479 0.17319 0.09912 0.0
H1115 H 0.8751 0.20782 0.2318 0.0
H1116 H 0.90936 0.23611 0.22325 0.0
H1117 H 0.90045 0.20052 0.21624 0.0
C1118 C 0.80796 0.65243 0.12681 0.0
C1119 C 0.78291 0.64598 0.14141 0.0
C1120 C 0.83346 0.66533 0.14298 0.0
C1121 C 0.83433 0.67197 0.17485 0.0
C1122 C 0.80914 0.66544 0.18982 0.0
C1123 C 0.7839 0.65273 0.17299 0.0
C1124 C 0.85961 0.67215 0.12575 0.0
C1125 C 0.80883 0.67183 0.22374 0.0
C1126 C 0.89816 0.68395 0.22193 0.0
C1127 C 0.91403 0.71314 0.22363 0.0
C1128 C 0.87216 0.67034 0.20666 0.0
C1129 C 0.86163 0.68614 0.19222 0.0
C1130 C 0.87763 0.7156 0.19374 0.0
C1131 C 0.90337 0.72864 0.20945 0.0
C1132 C 0.85589 0.63895 0.20604 0.0
C1133 C 0.86769 0.73346 0.17839 0.0
H1134 H 0.80779 0.64789 0.1024 0.0
H1135 H 0.76484 0.64774 0.18472 0.0
H1136 H 0.87433 0.69488 0.1268 0.0
H1137 H 0.86993 0.66171 0.13689 0.0
H1138 H 0.85557 0.66562 0.10106 0.0
H1139 H 0.78763 0.66528 0.23216 0.0
H1140 H 0.81746 0.66111 0.23762 0.0
H1141 H 0.82219 0.6945 0.22795 0.0
H1142 H 0.90588 0.67166 0.23299 0.0
H1143 H 0.91543 0.75115 0.21013 0.0
H1144 H 0.85271 0.63137 0.18175 0.0
H1145 H 0.8351 0.63144 0.21622 0.0
H1146 H 0.86644 0.62959 0.21899 0.0
H1147 H 0.86492 0.72896 0.15317 0.0
H1148 H 0.88235 0.75605 0.18177 0.0
H1149 H 0.84723 0.72846 0.1878 0.0
C1150 C 0.3402 0.22018 0.21749 0.0
C1151 C 0.31152 0.20938 0.21401 0.0
C1152 C 0.35386 0.20753 0.20298 0.0
C1153 C 0.33871 0.18353 0.18411 0.0
C1154 C 0.30979 0.17259 0.18045 0.0
C1155 C 0.29662 0.18549 0.19544 0.0
C1156 C 0.38462 0.21989 0.20787 0.0
C1157 C 0.29271 0.14735 0.16034 0.0
C1158 C 0.37779 0.16696 0.12232 0.0
C1159 C 0.38022 0.14523 0.13586 0.0
C1160 C 0.3644 0.17944 0.13764 0.0
C1161 C 0.35314 0.17031 0.16758 0.0
C1162 C 0.35551 0.14839 0.18143 0.0
C1163 C 0.36881 0.13608 0.16542 0.0
C1164 C 0.36215 0.20239 0.12162 0.0
C1165 C 0.34412 0.13804 0.21334 0.0
H1166 H 0.35197 0.23836 0.23196 0.0
H1167 H 0.2746 0.17707 0.1921 0.0
H1168 H 0.38896 0.20396 0.21757 0.0
H1169 H 0.3955 0.22653 0.18536 0.0
H1170 H 0.39339 0.23812 0.22377 0.0
H1171 H 0.27043 0.14115 0.16005 0.0
H1172 H 0.30057 0.15167 0.13624 0.0
H1173 H 0.29467 0.12953 0.16872 0.0
H1174 H 0.38604 0.17403 0.09937 0.0
H1175 H 0.37072 0.11956 0.17634 0.0
H1176 H 0.37232 0.22165 0.13585 0.0
H1177 H 0.34005 0.19642 0.11907 0.0
H1178 H 0.37182 0.2071 0.09833 0.0
H1179 H 0.35386 0.15543 0.23027 0.0
H1180 H 0.34778 0.12107 0.22111 0.0
H1181 H 0.32152 0.13025 0.21359 0.0
C1182 C 0.8007 0.13672 0.63519 0.0
C1183 C 0.78231 0.1464 0.64188 0.0
C1184 C 0.82731 0.14888 0.64903 0.0
C1185 C 0.83585 0.17113 0.67054 0.0
C1186 C 0.8173 0.18087 0.67749 0.0
C1187 C 0.79101 0.16858 0.66306 0.0
C1188 C 0.84634 0.13794 0.64054 0.0
C1189 C 0.82508 0.20414 0.70054 0.0
C1190 C 0.89331 0.18531 0.72938 0.0
C1191 C 0.91645 0.20896 0.71716 0.0
C1192 C 0.86721 0.17283 0.71448 0.0
C1193 C 0.86388 0.18391 0.68626 0.0
C1194 C 0.88722 0.20761 0.67361 0.0
C1195 C 0.91303 0.2199 0.68923 0.0
C1196 C 0.84302 0.14795 0.72925 0.0
C1197 C 0.88494 0.22004 0.64348 0.0
H1198 H 0.79445 0.11983 0.61875 0.0
H1199 H 0.77699 0.17604 0.66891 0.0
H1200 H 0.8661 0.15507 0.63137 0.0
H1201 H 0.85145 0.12981 0.66147 0.0
H1202 H 0.83703 0.12105 0.62292 0.0
H1203 H 0.80845 0.20943 0.70344 0.0
H1204 H 0.82954 0.19814 0.72341 0.0
H1205 H 0.84422 0.22306 0.69299 0.0
H1206 H 0.89543 0.1768 0.75108 0.0
H1207 H 0.9307 0.23792 0.67931 0.0
H1208 H 0.83424 0.13003 0.71297 0.0
H1209 H 0.82638 0.15276 0.73443 0.0
H1210 H 0.84894 0.14163 0.75106 0.0
H1211 H 0.87716 0.20397 0.62495 0.0
H1212 H 0.90509 0.23787 0.63611 0.0
H1213 H 0.86976 0.22731 0.64584 0.0
C1214 C 0.89573 0.674 0.64835 0.0
C1215 C 0.88293 0.64483 0.64732 0.0
C1216 C 0.88315 0.68748 0.66347 0.0
C1217 C 0.85729 0.67156 0.67857 0.0
C1218 C 0.84448 0.64211 0.6779 0.0
C1219 C 0.85726 0.6292 0.66217 0.0
C1220 C 0.89747 0.71884 0.66306 0.0
C1221 C 0.81731 0.62416 0.69412 0.0
C1222 C 0.8376 0.70628 0.7429 0.0
C1223 C 0.81807 0.71145 0.72825 0.0
C1224 C 0.85035 0.69336 0.72713 0.0
C1225 C 0.84388 0.68559 0.69558 0.0
C1226 C 0.82426 0.69085 0.68057 0.0
C1227 C 0.81147 0.70344 0.69708 0.0
C1228 C 0.87063 0.68777 0.74443 0.0
C1229 C 0.81689 0.68335 0.64692 0.0
H1230 H 0.91536 0.6863 0.63674 0.0
H1231 H 0.84731 0.60671 0.66193 0.0
H1232 H 0.88354 0.72559 0.65274 0.0
H1233 H 0.9022 0.72709 0.68708 0.0
H1234 H 0.91706 0.72826 0.64969 0.0
H1235 H 0.81009 0.60161 0.69173 0.0
H1236 H 0.81947 0.62955 0.71912 0.0
H1237 H 0.80115 0.62816 0.68453 0.0
H1238 H 0.84263 0.71194 0.76704 0.0
H1239 H 0.79666 0.70751 0.68538 0.0
H1240 H 0.89111 0.69853 0.73293 0.0
H1241 H 0.8634 0.66516 0.74398 0.0
H1242 H 0.87332 0.69481 0.76894 0.0
H1243 H 0.83585 0.69392 0.63257 0.0
H1244 H 0.80175 0.68927 0.63835 0.0
H1245 H 0.80798 0.66062 0.64356 0.0
C1246 C 0.32173 0.1384 0.73766 0.0
C1247 C 0.31826 0.11401 0.7234 0.0
C1248 C 0.33507 0.16437 0.72249 0.0
C1249 C 0.34537 0.16641 0.69204 0.0
C1250 C 0.34192 0.14192 0.67743 0.0
C1251 C 0.32855 0.11617 0.69321 0.0
C1252 C 0.33837 0.18977 0.73926 0.0
C1253 C 0.35238 0.14288 0.64501 0.0
C1254 C 0.35899 0.23017 0.64372 0.0
C1255 C 0.38783 0.2476 0.64661 0.0
C1256 C 0.34503 0.20371 0.65793 0.0
C1257 C 0.36006 0.19423 0.67583 0.0
C1258 C 0.38915 0.21173 0.67886 0.0
C1259 C 0.40259 0.23798 0.66424 0.0
C1260 C 0.3141 0.18587 0.65379 0.0
C1261 C 0.40612 0.20285 0.6979 0.0
H1262 H 0.31443 0.13739 0.76107 0.0
H1263 H 0.32588 0.09765 0.68166 0.0
H1264 H 0.36067 0.20548 0.74157 0.0
H1265 H 0.32851 0.19946 0.72568 0.0
H1266 H 0.32904 0.18479 0.76272 0.0
H1267 H 0.34802 0.1221 0.6367 0.0
H1268 H 0.34257 0.15094 0.62883 0.0
H1269 H 0.37505 0.1574 0.64417 0.0
H1270 H 0.34729 0.23704 0.62996 0.0
H1271 H 0.42474 0.2512 0.66714 0.0
H1272 H 0.30376 0.18163 0.67665 0.0
H1273 H 0.30899 0.16549 0.64352 0.0
H1274 H 0.30541 0.19584 0.63868 0.0
H1275 H 0.39885 0.19935 0.72223 0.0
H1276 H 0.42856 0.21857 0.69769 0.0
H1277 H 0.40334 0.18285 0.68895 0.0
C1278 C 0.18837 0.90252 0.82469 0.0
C1279 C 0.21399 0.91272 0.80967 0.0
C1280 C 0.17558 0.87669 0.84016 0.0
C1281 C 0.18846 0.86019 0.8407 0.0
C1282 C 0.21421 0.87021 0.82538 0.0
C1283 C 0.22665 0.89625 0.81025 0.0
C1284 C 0.14837 0.86723 0.85639 0.0
C1285 C 0.22872 0.85342 0.82509 0.0
C1286 C 0.17025 0.80749 0.90635 0.0
C1287 C 0.15122 0.78206 0.89225 0.0
C1288 C 0.18238 0.8328 0.88993 0.0
C1289 C 0.17557 0.8331 0.85833 0.0
C1290 C 0.1563 0.80757 0.84392 0.0
C1291 C 0.14431 0.78249 0.861 0.0
C1292 C 0.20247 0.85935 0.90656 0.0
C1293 C 0.14844 0.80671 0.81031 0.0
H1294 H 0.17844 0.91502 0.82491 0.0
H1295 H 0.2462 0.90356 0.79851 0.0
H1296 H 0.1325 0.8465 0.84751 0.0
H1297 H 0.15082 0.86498 0.88154 0.0
H1298 H 0.14061 0.88201 0.85323 0.0
H1299 H 0.24811 0.86353 0.81135 0.0
H1300 H 0.23387 0.85053 0.84912 0.0
H1301 H 0.21478 0.83242 0.81529 0.0
H1302 H 0.17548 0.80776 0.93054 0.0
H1303 H 0.12986 0.7631 0.8497 0.0
H1304 H 0.19476 0.8743 0.90583 0.0
H1305 H 0.22281 0.86929 0.89473 0.0
H1306 H 0.20563 0.85572 0.93114 0.0
H1307 H 0.1394 0.82032 0.80661 0.0
H1308 H 0.13326 0.78532 0.80237 0.0
H1309 H 0.16721 0.81488 0.79566 0.0
C1310 C 0.11928 0.31275 0.83137 0.0
C1311 C 0.11898 0.315 0.799 0.0
C1312 C 0.14446 0.32481 0.8483 0.0
C1313 C 0.17017 0.34015 0.8327 0.0
C1314 C 0.16991 0.34282 0.80006 0.0
C1315 C 0.14451 0.33008 0.78371 0.0
C1316 C 0.14356 0.32092 0.88292 0.0
C1317 C 0.19651 0.35949 0.78234 0.0
C1318 C 0.23351 0.39354 0.87932 0.0
C1319 C 0.24882 0.37993 0.88343 0.0
C1320 C 0.20821 0.38102 0.86277 0.0
C1321 C 0.1973 0.35379 0.8504 0.0
C1322 C 0.21266 0.33989 0.85453 0.0
C1323 C 0.23826 0.35319 0.87062 0.0
C1324 C 0.19318 0.39709 0.85839 0.0
C1325 C 0.20181 0.31073 0.84234 0.0
H1326 H 0.09977 0.30106 0.84342 0.0
H1327 H 0.14463 0.33242 0.75882 0.0
H1328 H 0.15588 0.31101 0.88948 0.0
H1329 H 0.15305 0.34143 0.89474 0.0
H1330 H 0.12209 0.30785 0.89157 0.0
H1331 H 0.19286 0.36001 0.75712 0.0
H1332 H 0.2078 0.38118 0.79126 0.0
H1333 H 0.21018 0.35052 0.7858 0.0
H1334 H 0.24154 0.41425 0.88886 0.0
H1335 H 0.24966 0.3423 0.87396 0.0
H1336 H 0.17238 0.38569 0.8691 0.0
H1337 H 0.19007 0.39905 0.83333 0.0
H1338 H 0.20463 0.41826 0.86875 0.0
H1339 H 0.18109 0.29663 0.8523 0.0
H1340 H 0.21579 0.30247 0.84798 0.0
H1341 H 0.19923 0.31035 0.81684 0.0
C1342 C 0.71614 0.83588 0.79822 0.0
C1343 C 0.72003 0.81536 0.81257 0.0
C1344 C 0.70235 0.84805 0.81334 0.0
C1345 C 0.69252 0.84005 0.84399 0.0
C1346 C 0.69658 0.81948 0.85871 0.0
C1347 C 0.70994 0.80722 0.84276 0.0
C1348 C 0.69801 0.86929 0.79629 0.0
C1349 C 0.68701 0.81059 0.89149 0.0
C1350 C 0.67883 0.89051 0.89171 0.0
C1351 C 0.64984 0.87782 0.89053 0.0
C1352 C 0.6929 0.87828 0.87722 0.0
C1353 C 0.67777 0.85298 0.86039 0.0
C1354 C 0.6485 0.84031 0.8588 0.0
C1355 C 0.63495 0.85265 0.87411 0.0
C1356 C 0.724 0.89234 0.88016 0.0
C1357 C 0.63144 0.8138 0.84059 0.0
H1358 H 0.72345 0.84208 0.77478 0.0
H1359 H 0.71301 0.79159 0.85416 0.0
H1360 H 0.67557 0.86226 0.79505 0.0
H1361 H 0.7082 0.88938 0.80904 0.0
H1362 H 0.70638 0.87293 0.77238 0.0
H1363 H 0.69222 0.79486 0.89998 0.0
H1364 H 0.69672 0.82895 0.90715 0.0
H1365 H 0.66427 0.80168 0.89295 0.0
H1366 H 0.69051 0.90976 0.90458 0.0
H1367 H 0.61261 0.84283 0.87273 0.0
H1368 H 0.7336 0.89817 0.85692 0.0
H1369 H 0.72994 0.87773 0.89036 0.0
H1370 H 0.7327 0.91137 0.89483 0.0
H1371 H 0.63831 0.81699 0.8161 0.0
H1372 H 0.60896 0.80674 0.84117 0.0
H1373 H 0.6346 0.797 0.84996 0.0
C1374 C 0.47838 0.44934 0.52826 0.0
C1375 C 0.48229 0.44909 0.5604 0.0
C1376 C 0.4916 0.47441 0.51115 0.0
C1377 C 0.50888 0.50014 0.52646 0.0
C1378 C 0.51256 0.5 0.55896 0.0
C1379 C 0.49949 0.47464 0.57536 0.0
C1380 C 0.48727 0.4733 0.47657 0.0
C1381 C 0.53017 0.52675 0.57657 0.0
C1382 C 0.56289 0.56412 0.48135 0.0
C1383 C 0.54901 0.57904 0.4762 0.0
C1384 C 0.55002 0.53835 0.49712 0.0
C1385 C 0.52269 0.52725 0.50874 0.0
C1386 C 0.50876 0.54245 0.50394 0.0
C1387 C 0.52191 0.56786 0.48761 0.0
C1388 C 0.56563 0.52285 0.50115 0.0
C1389 C 0.47996 0.53201 0.51637 0.0
H1390 H 0.4654 0.42982 0.51635 0.0
H1391 H 0.50241 0.47489 0.60018 0.0
H1392 H 0.47775 0.486 0.4701 0.0
H1393 H 0.50754 0.48237 0.46463 0.0
H1394 H 0.47377 0.45172 0.46794 0.0
H1395 H 0.53079 0.52326 0.60181 0.0
H1396 H 0.55167 0.53728 0.56762 0.0
H1397 H 0.52201 0.54114 0.57305 0.0
H1398 H 0.58366 0.57233 0.47243 0.0
H1399 H 0.51106 0.57927 0.4842 0.0
H1400 H 0.55354 0.50169 0.49094 0.0
H1401 H 0.56837 0.52028 0.52614 0.0
H1402 H 0.58635 0.53375 0.4901 0.0
H1403 H 0.4655 0.51124 0.50641 0.0
H1404 H 0.47197 0.5463 0.511 0.0
H1405 H 0.47994 0.52954 0.54186 0.0
C1406 C 0.57849 0.03492 0.52523 0.0
C1407 C 0.58018 0.0442 0.5559 0.0
C1408 C 0.55298 0.02153 0.50895 0.0
C1409 C 0.52825 0.01679 0.52369 0.0
C1410 C 0.52982 0.02585 0.55475 0.0
C1411 C 0.5556 0.03947 0.5703 0.0
C1412 C 0.55254 0.01261 0.47583 0.0
C1413 C 0.50415 0.02094 0.57175 0.0
C1414 C 0.46436 1.00353 0.47602 0.0
C1415 C 0.4478 0.97438 0.47675 0.0
C1416 C 0.49063 0.0175 0.49063 0.0
C1417 C 0.5007 1.00213 0.50692 0.0
C1418 C 0.48399 0.97272 0.50789 0.0
C1419 C 0.45801 0.95928 0.49273 0.0
C1420 C 0.50768 0.04879 0.48856 0.0
C1421 C 0.49343 0.95537 0.52533 0.0
H1422 H 0.59726 0.03859 0.51373 0.0
H1423 H 0.55638 0.04603 0.59408 0.0
H1424 H 0.53868 0.98978 0.47358 0.0
H1425 H 0.54409 0.02266 0.46057 0.0
H1426 H 0.57347 0.01804 0.46747 0.0
H1427 H 0.50871 0.029 0.59589 0.0
H1428 H 0.49423 0.03118 0.55933 0.0
H1429 H 0.48889 0.99833 0.57238 0.0
H1430 H 0.45697 0.01547 0.46352 0.0
H1431 H 0.44539 0.93684 0.49389 0.0
H1432 H 0.5282 0.05498 0.47837 0.0
H1433 H 0.51143 0.05808 0.51209 0.0
H1434 H 0.49743 0.05772 0.47429 0.0
H1435 H 0.51353 0.95907 0.51608 0.0
H1436 H 0.47821 0.93275 0.5238 0.0
H1437 H 0.49677 0.96162 0.55009 0.0
C1438 C 0.0698 0.50726 0.50044 0.0
C1439 C 0.05646 0.48512 0.47919 0.0
C1440 C 0.05567 0.51935 0.51495 0.0
C1441 C 0.02734 0.5094 0.5081 0.0
C1442 C 0.01376 0.48721 0.4865 0.0
C1443 C 0.02836 0.47529 0.47251 0.0
C1444 C 0.07105 0.54261 0.53806 0.0
C1445 C 0.98372 0.476 0.47816 0.0
C1446 C 0.98387 0.52219 0.56764 0.0
C1447 C 0.98357 0.54562 0.55571 0.0
C1448 C 0.99785 0.51027 0.55242 0.0
C1449 C 0.01185 0.52171 0.5242 0.0
C1450 C 0.01151 0.54525 0.51188 0.0
C1451 C 0.9976 0.55697 0.5278 0.0
C1452 C 0.99787 0.48552 0.56683 0.0
C1453 C 0.02583 0.55807 0.48178 0.0
H1454 H 0.09131 0.51485 0.50629 0.0
H1455 H 0.0178 0.45845 0.456 0.0
H1456 H 0.07027 0.56137 0.53079 0.0
H1457 H 0.06093 0.53635 0.56102 0.0
H1458 H 0.09309 0.54827 0.54066 0.0
H1459 H 0.97628 0.45928 0.46035 0.0
H1460 H 0.97069 0.46756 0.4991 0.0
H1461 H 0.98069 0.49305 0.4693 0.0
H1462 H 0.97355 0.51339 0.58934 0.0
H1463 H 0.99735 0.57484 0.51812 0.0
H1464 H 0.01946 0.49063 0.57173 0.0
H1465 H 0.98886 0.46769 0.55043 0.0
H1466 H 0.98593 0.47892 0.58874 0.0
H1467 H 0.0483 0.56551 0.48391 0.0
H1468 H 0.02315 0.57585 0.47481 0.0
H1469 H 0.01755 0.54218 0.46307 0.0
C1470 C 0.45497 0.50064 1.00356 0.0
C1471 C 0.44764 0.48173 0.97871 0.0
C1472 C 0.4814 0.51295 0.0176 0.0
C1473 C 0.50151 0.5065 1.00668 0.0
C1474 C 0.49437 0.48753 0.98153 0.0
C1475 C 0.46762 0.47533 0.96801 0.0
C1476 C 0.4877 0.53269 0.0445 0.0
C1477 C 0.51503 0.48008 0.96889 0.0
C1478 C 0.57769 0.55729 0.02794 0.0
C1479 C 0.58222 0.54395 0.05307 0.0
C1480 C 0.55186 0.5452 1.01235 0.0
C1481 C 0.52965 0.51914 0.02211 0.0
C1482 C 0.53412 0.50558 0.04743 0.0
C1483 C 0.56018 0.51802 0.06242 0.0
C1484 C 0.54832 0.56043 0.98541 0.0
C1485 C 0.51117 0.47801 0.05904 0.0
H1486 H 0.43978 0.50549 1.0126 0.0
H1487 H 0.46248 0.461 0.94878 0.0
H1488 H 0.49285 0.52449 0.06535 0.0
H1489 H 0.50604 0.55318 0.0392 0.0
H1490 H 0.47004 0.53588 0.05008 0.0
H1491 H 0.50665 0.46553 0.94888 0.0
H1492 H 0.53406 0.4992 0.96149 0.0
H1493 H 0.52119 0.47029 0.98728 0.0
H1494 H 0.59449 0.5771 0.02014 0.0
H1495 H 0.56308 0.50756 0.08197 0.0
H1496 H 0.53195 0.5656 0.99073 0.0
H1497 H 0.54149 0.54687 0.96456 0.0
H1498 H 0.56774 0.57999 0.9799 0.0
H1499 H 0.4935 0.48032 0.06693 0.0
H1500 H 0.518 0.4698 0.07852 0.0
H1501 H 0.50343 0.46244 0.04 0.0
C1502 C 0.52387 0.96439 0.98888 0.0
C1503 C 0.54947 0.97965 0.97382 0.0
C1504 C 0.51135 0.97773 1.00427 0.0
C1505 C 0.52428 0.00719 1.00418 0.0
C1506 C 0.55004 0.02271 0.98876 0.0
C1507 C 0.56243 0.00883 0.97416 0.0
C1508 C 0.48434 0.96022 0.02098 0.0
C1509 C 0.56442 0.05405 0.98742 0.0
C1510 C 0.4787 0.03955 0.02139 0.0
C1511 C 0.48586 0.04862 0.05218 0.0
C1512 C 0.49127 0.0265 1.00539 0.0
C1513 C 0.5111 0.0217 0.02064 0.0
C1514 C 0.51808 0.03048 0.05187 0.0
C1515 C 0.50566 0.04402 0.06705 0.0
C1516 C 0.48349 0.01807 0.972 0.0
C1517 C 0.53847 0.02527 0.06948 0.0
H1518 H 0.51383 0.94189 0.98909 0.0
H1519 H 0.58202 0.0208 0.96236 0.0
H1520 H 0.48674 0.96631 0.04578 0.0
H1521 H 0.46807 0.9639 1.01113 0.0
H1522 H 0.47714 0.93762 0.01941 0.0
H1523 H 0.58384 0.0631 0.97376 0.0
H1524 H 0.5504 0.0606 0.97693 0.0
H1525 H 0.56948 0.06288 1.01118 0.0
H1526 H 0.46362 0.04318 1.00961 0.0
H1527 H 0.51109 0.05055 0.09093 0.0
H1528 H 0.47446 0.99525 0.96943 0.0
H1529 H 0.50229 0.02817 0.95734 0.0
H1530 H 0.46831 0.02383 0.96316 0.0
H1531 H 0.53123 1.00266 0.06969 0.0
H1532 H 0.54134 0.03287 0.09377 0.0
H1533 H 0.55887 0.03576 0.05779 0.0
C1534 C 0.07142 0.57347 1.00579 0.0
C1535 C 0.05819 0.58139 0.98352 0.0
C1536 C 0.05777 0.54704 0.01992 0.0
C1537 C 0.02998 0.5276 1.01187 0.0
C1538 C 0.01647 0.53531 0.98933 0.0
C1539 C 0.03064 0.56196 0.97553 0.0
C1540 C 0.0731 0.54005 0.04388 0.0
C1541 C 0.98692 0.51538 0.97985 0.0
C1542 C 1.00284 0.45059 0.03123 0.0
C1543 C 0.98818 0.44713 0.05888 0.0
C1544 C 0.01612 0.47636 0.01553 0.0
C1545 C 0.01498 0.49958 0.02762 0.0
C1546 C 1.00015 0.49621 0.05542 0.0
C1547 C 0.98701 0.47022 0.07058 0.0
C1548 C 0.03151 0.47876 0.98597 0.0
C1549 C 0.99841 0.52023 0.06944 0.0
H1550 H 0.09243 0.58816 1.01279 0.0
H1551 H 0.0201 0.56745 0.95827 0.0
H1552 H 0.06228 0.5358 0.06643 0.0
H1553 H 0.07332 0.5209 0.03697 0.0
H1554 H 0.09482 0.55711 0.04716 0.0
H1555 H 0.97943 0.52415 0.96164 0.0
H1556 H 0.98508 0.49571 0.97109 0.0
H1557 H 0.97316 0.51005 1.00026 0.0
H1558 H 1.00372 0.43303 0.02159 0.0
H1559 H 0.97618 0.46819 0.09203 0.0
H1560 H 0.05372 0.49457 0.98887 0.0
H1561 H 0.02325 0.48591 0.96688 0.0
H1562 H 0.02991 0.45871 0.97905 0.0
H1563 H 0.0195 0.53738 0.07537 0.0
H1564 H 0.98556 0.51418 0.09071 0.0
H1565 H 0.98948 0.52854 0.05241 0.0
loop_
_geom_bond_atom_site_label_1
_geom_bond_atom_site_label_2
_geom_bond_distance
_geom_bond_site_symmetry_2
_ccdc_geom_bond_type
Cu0 N1 1.999 . S
Cu0 O6 1.969 1_455 S
Cu0 N11 1.985 1_455 S
Cu0 O20 1.959 . S
N1 Cu0 1.999 . S
N1 C3 1.263 . S
N1 C5 1.389 . S
N2 C3 1.358 . S
N2 C4 1.400 . S
C3 N1 1.263 . S
C3 N2 1.358 . S
C3 H9 0.930 . S
C4 N2 1.400 . S
C4 C5 1.351 . S
C4 H21 0.930 . S
C5 N1 1.389 . S
C5 C4 1.351 . S
C5 H10 0.930 . S
O6 Cu0 1.969 1_655 S
O6 C16 1.268 . S
C7 O8 1.261 . S
C7 O20 1.251 . S
O8 C7 1.261 . S
H9 C3 0.930 . S
H10 C5 0.930 . S
N11 Cu0 1.985 1_655 S
N11 C13 1.335 . S
N11 C14 1.390 . S
N12 C13 1.345 . S
N12 C15 1.336 . S
C13 N11 1.335 . S
C13 N12 1.345 . S
C13 H18 0.930 . S
C14 N11 1.390 . S
C14 C15 1.346 . S
C14 H19 0.930 . S
C15 N12 1.336 . S
C15 C14 1.346 . S
C15 H22 0.929 . S
C16 O6 1.268 . S
C16 O17 1.216 . S
O17 C16 1.216 . S
H18 C13 0.930 . S
H19 C14 0.930 . S
O20 Cu0 1.959 . S
O20 C7 1.251 . S
H21 C4 0.930 . S
H22 C15 0.929 . S
Cu23 N24 1.999 . S
Cu23 O29 1.974 . S
Cu23 N34 1.985 . S
Cu23 O43 1.959 . S
N24 Cu23 1.999 . S
N24 C26 1.263 . S
N24 C28 1.389 . S
N25 C26 1.358 . S
N25 C27 1.400 . S
C26 N24 1.263 . S
C26 N25 1.358 . S
C26 H32 0.930 . S
C27 N25 1.400 . S
C27 C28 1.351 . S
C27 H44 0.930 . S
C28 N24 1.389 . S
C28 C27 1.351 . S
C28 H33 0.930 . S
O29 Cu23 1.974 . S
O29 C39 1.282 . S
C30 O31 1.261 . S
C30 O43 1.251 . S
O31 C30 1.261 . S
H32 C26 0.930 . S
H33 C28 0.930 . S
N34 Cu23 1.985 . S
N34 C36 1.335 . S
N34 C37 1.390 . S
N35 C36 1.345 . S
N35 C38 1.336 . S
C36 N34 1.335 . S
C36 N35 1.345 . S
C36 H41 0.930 . S
C37 N34 1.390 . S
C37 C38 1.346 . S
C37 H42 0.930 . S
C38 N35 1.336 . S
C38 C37 1.346 . S
C38 H45 0.929 . S
C39 O29 1.282 . S
C39 O40 1.216 . S
O40 C39 1.216 . S
H41 C36 0.930 . S
H42 C37 0.930 . S
O43 Cu23 1.959 . S
O43 C30 1.251 . S
H44 C27 0.930 . S
H45 C38 0.929 . S
Cu46 N47 1.999 1_545 S
Cu46 O52 1.974 . S
Cu46 N57 1.985 . S
Cu46 O66 1.959 1_545 S
N47 Cu46 1.999 1_565 S
N47 C49 1.263 . S
N47 C51 1.389 . S
N48 C49 1.358 . S
N48 C50 1.400 . S
C49 N47 1.263 . S
C49 N48 1.358 . S
C49 H55 0.930 . S
C50 N48 1.400 . S
C50 C51 1.351 . S
C50 H67 0.930 . S
C51 N47 1.389 . S
C51 C50 1.351 . S
C51 H56 0.930 . S
O52 Cu46 1.974 . S
O52 C62 1.282 . S
C53 O54 1.261 . S
C53 O66 1.251 . S
O54 C53 1.261 . S
H55 C49 0.930 . S
H56 C51 0.930 . S
N57 Cu46 1.985 . S
N57 C59 1.335 . S
N57 C60 1.390 . S
N58 C59 1.345 . S
N58 C61 1.336 . S
C59 N57 1.335 . S
C59 N58 1.345 . S
C59 H64 0.930 . S
C60 N57 1.390 . S
C60 C61 1.346 . S
C60 H65 0.930 . S
C61 N58 1.336 . S
C61 C60 1.346 . S
C61 H68 0.929 . S
C62 O52 1.282 . S
C62 O63 1.216 . S
O63 C62 1.216 . S
H64 C59 0.930 . S
H65 C60 0.930 . S
O66 Cu46 1.959 1_565 S
O66 C53 1.251 . S
H67 C50 0.930 . S
H68 C61 0.929 . S
Cu69 N70 1.999 1_455 S
Cu69 O75 1.974 . S
Cu69 N80 1.985 . S
Cu69 O89 1.960 1_455 S
N70 Cu69 1.999 1_655 S
N70 C72 1.263 . S
N70 C74 1.389 . S
N71 C72 1.358 . S
N71 C73 1.400 . S
C72 N70 1.263 . S
C72 N71 1.358 . S
C72 H78 0.930 . S
C73 N71 1.400 . S
C73 C74 1.351 . S
C73 H90 0.930 . S
C74 N70 1.389 . S
C74 C73 1.351 . S
C74 H79 0.930 . S
O75 Cu69 1.974 . S
O75 C85 1.282 . S
C76 O77 1.261 . S
C76 O89 1.249 . S
O77 C76 1.261 . S
H78 C72 0.930 . S
H79 C74 0.930 . S
N80 Cu69 1.985 . S
N80 C82 1.335 . S
N80 C83 1.390 . S
N81 C82 1.345 . S
N81 C84 1.336 . S
C82 N80 1.335 . S
C82 N81 1.345 . S
C82 H87 0.930 . S
C83 N80 1.390 . S
C83 C84 1.346 . S
C83 H88 0.930 . S
C84 N81 1.336 . S
C84 C83 1.346 . S
C84 H91 0.929 . S
C85 O75 1.282 . S
C85 O86 1.216 . S
O86 C85 1.216 . S
H87 C82 0.930 . S
H88 C83 0.930 . S
O89 Cu69 1.960 1_655 S
O89 C76 1.249 . S
H90 C73 0.930 . S
H91 C84 0.929 . S
Cu92 N93 1.999 . S
Cu92 O98 1.974 . S
Cu92 N103 1.985 . S
Cu92 O112 1.959 . S
N93 Cu92 1.999 . S
N93 C95 1.263 . S
N93 C97 1.389 . S
N94 C95 1.358 . S
N94 C96 1.400 . S
C95 N93 1.263 . S
C95 N94 1.358 . S
C95 H101 0.930 . S
C96 N94 1.400 . S
C96 C97 1.351 . S
C96 H113 0.930 . S
C97 N93 1.389 . S
C97 C96 1.351 . S
C97 H102 0.930 . S
O98 Cu92 1.974 . S
O98 C108 1.282 . S
C99 O100 1.261 . S
C99 O112 1.251 . S
O100 C99 1.261 . S
H101 C95 0.930 . S
H102 C97 0.930 . S
N103 Cu92 1.985 . S
N103 C105 1.335 . S
N103 C106 1.390 . S
N104 C105 1.345 . S
N104 C107 1.336 . S
C105 N103 1.335 . S
C105 N104 1.345 . S
C105 H110 0.930 . S
C106 N103 1.390 . S
C106 C107 1.346 . S
C106 H111 0.930 . S
C107 N104 1.336 . S
C107 C106 1.346 . S
C107 H114 0.929 . S
C108 O98 1.282 . S
C108 O109 1.216 . S
O109 C108 1.216 . S
H110 C105 0.930 . S
H111 C106 0.930 . S
O112 Cu92 1.959 . S
O112 C99 1.251 . S
H113 C96 0.930 . S
H114 C107 0.929 . S
Cu115 N116 1.999 . S
Cu115 O121 1.974 1_545 S
Cu115 N126 1.985 1_545 S
Cu115 O135 1.959 . S
N116 Cu115 1.999 . S
N116 C118 1.263 . S
N116 C120 1.389 . S
N117 C118 1.358 . S
N117 C119 1.400 . S
C118 N116 1.263 . S
C118 N117 1.358 . S
C118 H124 0.930 . S
C119 N117 1.400 . S
C119 C120 1.351 . S
C119 H136 0.930 . S
C120 N116 1.389 . S
C120 C119 1.351 . S
C120 H125 0.930 . S
O121 Cu115 1.974 1_565 S
O121 C131 1.282 . S
C122 O123 1.261 . S
C122 O135 1.251 . S
O123 C122 1.261 . S
H124 C118 0.930 . S
H125 C120 0.930 . S
N126 Cu115 1.985 1_565 S
N126 C128 1.335 . S
N126 C129 1.390 . S
N127 C128 1.345 . S
N127 C130 1.336 . S
C128 N126 1.335 . S
C128 N127 1.345 . S
C128 H133 0.930 . S
C129 N126 1.390 . S
C129 C130 1.346 . S
C129 H134 0.930 . S
C130 N127 1.336 . S
C130 C129 1.346 . S
C130 H137 0.929 . S
C131 O121 1.282 . S
C131 O132 1.216 . S
O132 C131 1.216 . S
H133 C128 0.930 . S
H134 C129 0.930 . S
O135 Cu115 1.959 . S
O135 C122 1.251 . S
H136 C119 0.930 . S
H137 C130 0.929 . S
Cu138 N139 1.999 . S
Cu138 O144 1.974 . S
Cu138 N149 1.985 . S
Cu138 O158 1.959 . S
N139 Cu138 1.999 . S
N139 C141 1.263 . S
N139 C143 1.389 . S
N140 C141 1.358 . S
N140 C142 1.400 . S
C141 N139 1.263 . S
C141 N140 1.358 . S
C141 H147 0.930 . S
C142 N140 1.400 . S
C142 C143 1.351 . S
C142 H159 0.930 . S
C143 N139 1.389 . S
C143 C142 1.351 . S
C143 H148 0.930 . S
O144 Cu138 1.974 . S
O144 C154 1.282 . S
C145 O146 1.261 . S
C145 O158 1.251 . S
O146 C145 1.261 . S
H147 C141 0.930 . S
H148 C143 0.930 . S
N149 Cu138 1.985 . S
N149 C151 1.335 . S
N149 C152 1.390 . S
N150 C151 1.345 . S
N150 C153 1.336 . S
C151 N149 1.335 . S
C151 N150 1.345 . S
C151 H156 0.930 . S
C152 N149 1.390 . S
C152 C153 1.346 . S
C152 H157 0.930 . S
C153 N150 1.336 . S
C153 C152 1.346 . S
C153 H160 0.929 . S
C154 O144 1.282 . S
C154 O155 1.216 . S
O155 C154 1.216 . S
H156 C151 0.930 . S
H157 C152 0.930 . S
O158 Cu138 1.959 . S
O158 C145 1.251 . S
H159 C142 0.930 . S
H160 C153 0.929 . S
Cu161 N162 1.999 . S
Cu161 O167 1.974 . S
Cu161 N172 1.985 . S
Cu161 O181 1.959 . S
N162 Cu161 1.999 . S
N162 C164 1.263 . S
N162 C166 1.389 . S
N163 C164 1.358 . S
N163 C165 1.400 . S
C164 N162 1.263 . S
C164 N163 1.358 . S
C164 H170 0.930 . S
C165 N163 1.400 . S
C165 C166 1.351 . S
C165 H182 0.930 . S
C166 N162 1.389 . S
C166 C165 1.351 . S
C166 H171 0.930 . S
O167 Cu161 1.974 . S
O167 C177 1.282 . S
C168 O169 1.261 . S
C168 O181 1.251 . S
O169 C168 1.261 . S
H170 C164 0.930 . S
H171 C166 0.930 . S
N172 Cu161 1.985 . S
N172 C174 1.335 . S
N172 C175 1.390 . S
N173 C174 1.345 . S
N173 C176 1.336 . S
C174 N172 1.335 . S
C174 N173 1.345 . S
C174 H179 0.930 . S
C175 N172 1.390 . S
C175 C176 1.346 . S
C175 H180 0.930 . S
C176 N173 1.336 . S
C176 C175 1.346 . S
C176 H183 0.929 . S
C177 O167 1.282 . S
C177 O178 1.216 . S
O178 C177 1.216 . S
H179 C174 0.930 . S
H180 C175 0.930 . S
O181 Cu161 1.959 . S
O181 C168 1.251 . S
H182 C165 0.930 . S
H183 C176 0.929 . S
Cu184 N185 1.999 . S
Cu184 O190 1.974 . S
Cu184 N195 1.985 . S
Cu184 O204 1.959 . S
N185 Cu184 1.999 . S
N185 C187 1.263 . S
N185 C189 1.389 . S
N186 C187 1.358 . S
N186 C188 1.400 . S
C187 N185 1.263 . S
C187 N186 1.358 . S
C187 H193 0.930 . S
C188 N186 1.400 . S
C188 C189 1.351 . S
C188 H205 0.930 . S
C189 N185 1.389 . S
C189 C188 1.351 . S
C189 H194 0.930 . S
O190 Cu184 1.974 . S
O190 C200 1.282 . S
C191 O192 1.261 . S
C191 O204 1.251 . S
O192 C191 1.261 . S
H193 C187 0.930 . S
H194 C189 0.930 . S
N195 Cu184 1.985 . S
N195 C197 1.335 . S
N195 C198 1.390 . S
N196 C197 1.345 . S
N196 C199 1.336 . S
C197 N195 1.335 . S
C197 N196 1.345 . S
C197 H202 0.930 . S
C198 N195 1.390 . S
C198 C199 1.346 . S
C198 H203 0.930 . S
C199 N196 1.336 . S
C199 C198 1.346 . S
C199 H206 0.929 . S
C200 O190 1.282 . S
C200 O201 1.216 . S
O201 C200 1.216 . S
H202 C197 0.930 . S
H203 C198 0.930 . S
O204 Cu184 1.959 . S
O204 C191 1.251 . S
H205 C188 0.930 . S
H206 C199 0.929 . S
Cu207 N208 1.999 . S
Cu207 O213 1.974 . S
Cu207 N218 1.985 . S
Cu207 O227 1.959 . S
N208 Cu207 1.999 . S
N208 C210 1.263 . S
N208 C212 1.389 . S
N209 C210 1.358 . S
N209 C211 1.400 . S
C210 N208 1.263 . S
C210 N209 1.358 . S
C210 H216 0.930 . S
C211 N209 1.400 . S
C211 C212 1.351 . S
C211 H228 0.930 . S
C212 N208 1.389 . S
C212 C211 1.351 . S
C212 H217 0.930 . S
O213 Cu207 1.974 . S
O213 C223 1.282 . S
C214 O215 1.261 . S
C214 O227 1.251 . S
O215 C214 1.261 . S
H216 C210 0.930 . S
H217 C212 0.930 . S
N218 Cu207 1.985 . S
N218 C220 1.335 . S
N218 C221 1.390 . S
N219 C220 1.345 . S
N219 C222 1.336 . S
C220 N218 1.335 . S
C220 N219 1.345 . S
C220 H225 0.930 . S
C221 N218 1.390 . S
C221 C222 1.346 . S
C221 H226 0.930 . S
C222 N219 1.336 . S
C222 C221 1.346 . S
C222 H229 0.929 . S
C223 O213 1.282 . S
C223 O224 1.216 . S
O224 C223 1.216 . S
H225 C220 0.930 . S
H226 C221 0.930 . S
O227 Cu207 1.959 . S
O227 C214 1.251 . S
H228 C211 0.930 . S
H229 C222 0.929 . S
Cu230 N231 1.999 . S
Cu230 O236 1.974 . S
Cu230 N241 1.985 . S
Cu230 O250 1.959 . S
N231 Cu230 1.999 . S
N231 C233 1.263 . S
N231 C235 1.389 . S
N232 C233 1.358 . S
N232 C234 1.400 . S
C233 N231 1.263 . S
C233 N232 1.358 . S
C233 H239 0.930 . S
C234 N232 1.400 . S
C234 C235 1.351 . S
C234 H251 0.930 . S
C235 N231 1.389 . S
C235 C234 1.351 . S
C235 H240 0.930 . S
O236 Cu230 1.974 . S
O236 C246 1.282 . S
C237 O238 1.261 . S
C237 O250 1.251 . S
O238 C237 1.261 . S
H239 C233 0.930 . S
H240 C235 0.930 . S
N241 Cu230 1.985 . S
N241 C243 1.335 . S
N241 C244 1.390 . S
N242 C243 1.345 . S
N242 C245 1.336 . S
C243 N241 1.335 . S
C243 N242 1.345 . S
C243 H248 0.930 . S
C244 N241 1.390 . S
C244 C245 1.346 . S
C244 H249 0.930 . S
C245 N242 1.336 . S
C245 C244 1.346 . S
C245 H252 0.929 . S
C246 O236 1.282 . S
C246 O247 1.216 . S
O247 C246 1.216 . S
H248 C243 0.930 . S
H249 C244 0.930 . S
O250 Cu230 1.959 . S
O250 C237 1.251 . S
H251 C234 0.930 . S
H252 C245 0.929 . S
Cu253 N254 1.999 . S
Cu253 O259 1.974 . S
Cu253 N264 1.985 . S
Cu253 O273 1.959 . S
N254 Cu253 1.999 . S
N254 C256 1.263 . S
N254 C258 1.389 . S
N255 C256 1.358 . S
N255 C257 1.400 . S
C256 N254 1.263 . S
C256 N255 1.358 . S
C256 H262 0.930 . S
C257 N255 1.400 . S
C257 C258 1.351 . S
C257 H274 0.930 . S
C258 N254 1.389 . S
C258 C257 1.351 . S
C258 H263 0.930 . S
O259 Cu253 1.974 . S
O259 C269 1.282 . S
C260 O261 1.261 . S
C260 O273 1.251 . S
O261 C260 1.261 . S
H262 C256 0.930 . S
H263 C258 0.930 . S
N264 Cu253 1.985 . S
N264 C266 1.335 . S
N264 C267 1.390 . S
N265 C266 1.345 . S
N265 C268 1.336 . S
C266 N264 1.335 . S
C266 N265 1.345 . S
C266 H271 0.930 . S
C267 N264 1.390 . S
C267 C268 1.346 . S
C267 H272 0.930 . S
C268 N265 1.336 . S
C268 C267 1.346 . S
C268 H275 0.929 . S
C269 O259 1.282 . S
C269 O270 1.216 . S
O270 C269 1.216 . S
H271 C266 0.930 . S
H272 C267 0.930 . S
O273 Cu253 1.959 . S
O273 C260 1.251 . S
H274 C257 0.930 . S
H275 C268 0.929 . S
Cu276 N277 1.999 . S
Cu276 O282 1.974 . S
Cu276 N287 1.985 . S
Cu276 O296 1.959 . S
N277 Cu276 1.999 . S
N277 C279 1.263 . S
N277 C281 1.389 . S
N278 C279 1.358 . S
N278 C280 1.400 . S
C279 N277 1.263 . S
C279 N278 1.358 . S
C279 H285 0.930 . S
C280 N278 1.400 . S
C280 C281 1.351 . S
C280 H297 0.930 . S
C281 N277 1.389 . S
C281 C280 1.351 . S
C281 H286 0.930 . S
O282 Cu276 1.974 . S
O282 C292 1.282 . S
C283 O284 1.261 . S
C283 O296 1.251 . S
O284 C283 1.261 . S
H285 C279 0.930 . S
H286 C281 0.930 . S
N287 Cu276 1.985 . S
N287 C289 1.335 . S
N287 C290 1.390 . S
N288 C289 1.345 . S
N288 C291 1.336 . S
C289 N287 1.335 . S
C289 N288 1.345 . S
C289 H294 0.930 . S
C290 N287 1.390 . S
C290 C291 1.346 . S
C290 H295 0.930 . S
C291 N288 1.336 . S
C291 C290 1.346 . S
C291 H298 0.929 . S
C292 O282 1.282 . S
C292 O293 1.216 . S
O293 C292 1.216 . S
H294 C289 0.930 . S
H295 C290 0.930 . S
O296 Cu276 1.959 . S
O296 C283 1.251 . S
H297 C280 0.930 . S
H298 C291 0.929 . S
Cu299 N300 1.999 . S
Cu299 O305 1.974 . S
Cu299 N310 1.985 . S
Cu299 O319 1.959 . S
N300 Cu299 1.999 . S
N300 C302 1.263 . S
N300 C304 1.389 . S
N301 C302 1.358 . S
N301 C303 1.400 . S
C302 N300 1.263 . S
C302 N301 1.358 . S
C302 H308 0.930 . S
C303 N301 1.400 . S
C303 C304 1.351 . S
C303 H320 0.930 . S
C304 N300 1.389 . S
C304 C303 1.351 . S
C304 H309 0.930 . S
O305 Cu299 1.974 . S
O305 C315 1.282 . S
C306 O307 1.261 . S
C306 O319 1.251 . S
O307 C306 1.261 . S
H308 C302 0.930 . S
H309 C304 0.930 . S
N310 Cu299 1.985 . S
N310 C312 1.335 . S
N310 C313 1.390 . S
N311 C312 1.345 . S
N311 C314 1.335 . S
C312 N310 1.335 . S
C312 N311 1.345 . S
C312 H317 0.930 . S
C313 N310 1.390 . S
C313 C314 1.344 . S
C313 H318 0.930 . S
C314 N311 1.335 . S
C314 C313 1.344 . S
C314 H321 0.933 1_565 S
C315 O305 1.282 . S
C315 O316 1.216 . S
O316 C315 1.216 . S
H317 C312 0.930 . S
H318 C313 0.930 . S
O319 Cu299 1.959 . S
O319 C306 1.251 . S
H320 C303 0.930 . S
H321 C314 0.933 1_545 S
Cu322 N323 1.999 . S
Cu322 O328 1.974 . S
Cu322 N333 1.985 . S
Cu322 O342 1.959 . S
N323 Cu322 1.999 . S
N323 C325 1.263 . S
N323 C327 1.389 . S
N324 C325 1.358 . S
N324 C326 1.400 . S
C325 N323 1.263 . S
C325 N324 1.358 . S
C325 H331 0.930 . S
C326 N324 1.400 . S
C326 C327 1.351 . S
C326 H343 0.930 . S
C327 N323 1.389 . S
C327 C326 1.351 . S
C327 H332 0.930 . S
O328 Cu322 1.974 . S
O328 C338 1.282 . S
C329 O330 1.261 . S
C329 O342 1.251 . S
O330 C329 1.261 . S
H331 C325 0.930 . S
H332 C327 0.930 . S
N333 Cu322 1.985 . S
N333 C335 1.335 . S
N333 C336 1.390 . S
N334 C335 1.345 . S
N334 C337 1.336 . S
C335 N333 1.335 . S
C335 N334 1.345 . S
C335 H340 0.930 . S
C336 N333 1.390 . S
C336 C337 1.346 . S
C336 H341 0.930 . S
C337 N334 1.336 . S
C337 C336 1.346 . S
C337 H344 0.929 . S
C338 O328 1.282 . S
C338 O339 1.216 . S
O339 C338 1.216 . S
H340 C335 0.930 . S
H341 C336 0.930 . S
O342 Cu322 1.959 . S
O342 C329 1.251 . S
H343 C326 0.930 . S
H344 C337 0.929 . S
Cu345 N346 1.999 . S
Cu345 O351 1.974 . S
Cu345 N356 1.985 . S
Cu345 O365 1.959 . S
N346 Cu345 1.999 . S
N346 C348 1.263 . S
N346 C350 1.389 . S
N347 C348 1.358 . S
N347 C349 1.400 . S
C348 N346 1.263 . S
C348 N347 1.358 . S
C348 H354 0.930 . S
C349 N347 1.400 . S
C349 C350 1.351 . S
C349 H366 0.930 . S
C350 N346 1.389 . S
C350 C349 1.351 . S
C350 H355 0.930 . S
O351 Cu345 1.974 . S
O351 C361 1.282 . S
C352 O353 1.261 . S
C352 O365 1.251 . S
O353 C352 1.261 . S
H354 C348 0.930 . S
H355 C350 0.930 . S
N356 Cu345 1.985 . S
N356 C358 1.335 . S
N356 C359 1.390 . S
N357 C358 1.345 . S
N357 C360 1.322 1_565 S
C358 N356 1.335 . S
C358 N357 1.345 . S
C358 H363 0.930 . S
C359 N356 1.390 . S
C359 C360 1.346 1_565 S
C359 H364 0.930 . S
C360 N357 1.322 1_545 S
C360 C359 1.346 1_545 S
C360 H367 0.944 . S
C361 O351 1.282 . S
C361 O362 1.216 . S
O362 C361 1.216 . S
H363 C358 0.930 . S
H364 C359 0.930 . S
O365 Cu345 1.959 . S
O365 C352 1.251 . S
H366 C349 0.930 . S
H367 C360 0.944 . S
Cu368 N369 1.999 . S
Cu368 O374 1.974 . S
Cu368 N379 1.985 . S
Cu368 O388 1.959 . S
N369 Cu368 1.999 . S
N369 C371 1.263 . S
N369 C373 1.389 . S
N370 C371 1.358 . S
N370 C372 1.400 . S
C371 N369 1.263 . S
C371 N370 1.358 . S
C371 H377 0.930 . S
C372 N370 1.400 . S
C372 C373 1.351 . S
C372 H389 0.930 . S
C373 N369 1.389 . S
C373 C372 1.351 . S
C373 H378 0.930 . S
O374 Cu368 1.974 . S
O374 C384 1.282 . S
C375 O376 1.261 . S
C375 O388 1.251 . S
O376 C375 1.261 . S
H377 C371 0.930 . S
H378 C373 0.930 . S
N379 Cu368 1.985 . S
N379 C381 1.335 . S
N379 C382 1.390 . S
N380 C381 1.345 . S
N380 C383 1.336 . S
C381 N379 1.335 . S
C381 N380 1.345 . S
C381 H386 0.930 . S
C382 N379 1.390 . S
C382 C383 1.346 . S
C382 H387 0.930 . S
C383 N380 1.336 . S
C383 C382 1.346 . S
C383 H390 0.929 . S
C384 O374 1.282 . S
C384 O385 1.216 . S
O385 C384 1.216 . S
H386 C381 0.930 . S
H387 C382 0.930 . S
O388 Cu368 1.959 . S
O388 C375 1.251 . S
H389 C372 0.930 . S
H390 C383 0.929 . S
Cu391 N392 1.999 . S
Cu391 O397 1.974 . S
Cu391 N402 1.985 . S
Cu391 O411 1.959 . S
N392 Cu391 1.999 . S
N392 C394 1.263 . S
N392 C396 1.389 . S
N393 C394 1.358 . S
N393 C395 1.400 . S
C394 N392 1.263 . S
C394 N393 1.358 . S
C394 H400 0.930 . S
C395 N393 1.400 . S
C395 C396 1.351 . S
C395 H412 0.930 . S
C396 N392 1.389 . S
C396 C395 1.351 . S
C396 H401 0.930 . S
O397 Cu391 1.974 . S
O397 C407 1.282 . S
C398 O399 1.261 . S
C398 O411 1.251 . S
O399 C398 1.261 . S
H400 C394 0.930 . S
H401 C396 0.930 . S
N402 Cu391 1.985 . S
N402 C404 1.335 . S
N402 C405 1.390 . S
N403 C404 1.345 . S
N403 C406 1.336 . S
C404 N402 1.335 . S
C404 N403 1.345 . S
C404 H409 0.930 . S
C405 N402 1.390 . S
C405 C406 1.346 . S
C405 H410 0.930 . S
C406 N403 1.336 . S
C406 C405 1.346 . S
C406 H413 0.929 . S
C407 O397 1.282 . S
C407 O408 1.216 . S
O408 C407 1.216 . S
H409 C404 0.930 . S
H410 C405 0.930 . S
O411 Cu391 1.959 . S
O411 C398 1.251 . S
H412 C395 0.930 . S
H413 C406 0.929 . S
C414 C415 1.391 . S
C414 C416 1.394 . S
C414 H430 0.931 . S
C415 C414 1.391 . S
C415 C419 1.376 . S
C416 C414 1.394 . S
C416 C417 1.369 . S
C416 C420 1.531 . S
C417 C416 1.369 . S
C417 C418 1.410 . S
C417 C425 1.503 . S
C418 C417 1.410 . S
C418 C419 1.392 . S
C418 C421 1.511 . S
C419 C415 1.376 . S
C419 C418 1.392 . S
C419 H431 0.929 . S
C420 C416 1.531 . S
C420 H432 0.960 . S
C420 H433 0.962 . S
C420 H434 0.960 . S
C421 C418 1.511 . S
C421 H435 0.961 . S
C421 H436 0.961 . S
C421 H437 0.961 . S
C422 C423 1.370 . S
C422 C424 1.363 . S
C422 H438 0.931 . S
C423 C422 1.370 . S
C423 C427 1.408 . S
C424 C422 1.363 . S
C424 C425 1.370 . S
C424 C428 1.501 1_455 S
C425 C417 1.503 . S
C425 C424 1.370 . S
C425 C426 1.403 . S
C426 C425 1.403 . S
C426 C427 1.404 . S
C426 C429 1.539 . S
C427 C423 1.408 . S
C427 C426 1.404 . S
C427 H439 0.930 . S
C428 C424 1.501 1_655 S
C428 H440 0.988 . S
C428 H441 0.948 1_655 S
C428 H442 0.966 . S
C429 C426 1.539 . S
C429 H443 0.958 . S
C429 H444 0.961 . S
C429 H445 0.960 . S
H430 C414 0.931 . S
H431 C419 0.929 . S
H432 C420 0.960 . S
H433 C420 0.962 . S
H434 C420 0.960 . S
H435 C421 0.961 . S
H436 C421 0.961 . S
H437 C421 0.961 . S
H438 C422 0.931 . S
H439 C427 0.930 . S
H440 C428 0.988 . S
H441 C428 0.948 1_455 S
H442 C428 0.966 . S
H443 C429 0.958 . S
H444 C429 0.961 . S
H445 C429 0.960 . S
C446 C447 1.391 . S
C446 C448 1.394 . S
C446 H462 0.931 . S
C447 C446 1.391 . S
C447 C451 1.376 . S
C448 C446 1.394 . S
C448 C449 1.369 . S
C448 C452 1.531 . S
C449 C448 1.369 . S
C449 C450 1.410 . S
C449 C457 1.503 . S
C450 C449 1.410 . S
C450 C451 1.392 . S
C450 C453 1.511 . S
C451 C447 1.376 . S
C451 C450 1.392 . S
C451 H463 0.929 . S
C452 C448 1.531 . S
C452 H464 0.960 . S
C452 H465 0.962 . S
C452 H466 0.960 . S
C453 C450 1.511 . S
C453 H467 0.961 . S
C453 H468 0.961 . S
C453 H469 0.961 . S
C454 C455 1.370 . S
C454 C456 1.363 . S
C454 H470 0.931 . S
C455 C454 1.370 . S
C455 C459 1.408 . S
C456 C454 1.363 . S
C456 C457 1.370 . S
C456 C460 1.524 . S
C457 C449 1.503 . S
C457 C456 1.370 . S
C457 C458 1.403 . S
C458 C457 1.403 . S
C458 C459 1.404 . S
C458 C461 1.539 . S
C459 C455 1.408 . S
C459 C458 1.404 . S
C459 H471 0.930 . S
C460 C456 1.524 . S
C460 H472 0.956 . S
C460 H473 0.961 . S
C460 H474 0.961 . S
C461 C458 1.539 . S
C461 H475 0.958 . S
C461 H476 0.961 . S
C461 H477 0.960 . S
H462 C446 0.931 . S
H463 C451 0.929 . S
H464 C452 0.960 . S
H465 C452 0.962 . S
H466 C452 0.960 . S
H467 C453 0.961 . S
H468 C453 0.961 . S
H469 C453 0.961 . S
H470 C454 0.931 . S
H471 C459 0.930 . S
H472 C460 0.956 . S
H473 C460 0.961 . S
H474 C460 0.961 . S
H475 C461 0.958 . S
H476 C461 0.961 . S
H477 C461 0.960 . S
C478 C479 1.391 . S
C478 C480 1.394 . S
C478 H494 0.931 . S
C479 C478 1.391 . S
C479 C483 1.376 1_565 S
C480 C478 1.394 . S
C480 C481 1.369 . S
C480 C484 1.531 . S
C481 C480 1.369 . S
C481 C482 1.410 1_565 S
C481 C489 1.503 . S
C482 C481 1.410 1_545 S
C482 C483 1.392 . S
C482 C485 1.511 . S
C483 C479 1.376 1_545 S
C483 C482 1.392 . S
C483 H495 0.929 . S
C484 C480 1.531 . S
C484 H496 0.960 . S
C484 H497 0.962 . S
C484 H498 0.960 . S
C485 C482 1.511 . S
C485 H499 0.961 . S
C485 H500 0.961 . S
C485 H501 0.961 . S
C486 C487 1.370 . S
C486 C488 1.363 . S
C486 H502 0.931 . S
C487 C486 1.370 . S
C487 C491 1.408 . S
C488 C486 1.363 . S
C488 C489 1.370 . S
C488 C492 1.524 . S
C489 C481 1.503 . S
C489 C488 1.370 . S
C489 C490 1.403 . S
C490 C489 1.403 . S
C490 C491 1.404 . S
C490 C493 1.539 . S
C491 C487 1.408 . S
C491 C490 1.404 . S
C491 H503 0.930 . S
C492 C488 1.524 . S
C492 H504 0.956 . S
C492 H505 0.961 . S
C492 H506 0.961 . S
C493 C490 1.539 . S
C493 H507 0.958 . S
C493 H508 0.961 1_565 S
C493 H509 0.960 1_565 S
H494 C478 0.931 . S
H495 C483 0.929 . S
H496 C484 0.960 . S
H497 C484 0.962 . S
H498 C484 0.960 . S
H499 C485 0.961 . S
H500 C485 0.961 . S
H501 C485 0.961 . S
H502 C486 0.931 . S
H503 C491 0.930 . S
H504 C492 0.956 . S
H505 C492 0.961 . S
H506 C492 0.961 . S
H507 C493 0.958 . S
H508 C493 0.961 1_545 S
H509 C493 0.960 1_545 S
C510 C511 1.391 . S
C510 C512 1.394 . S
C510 H526 0.931 . S
C511 C510 1.391 . S
C511 C515 1.376 . S
C512 C510 1.394 . S
C512 C513 1.369 . S
C512 C516 1.531 . S
C513 C512 1.369 . S
C513 C514 1.410 . S
C513 C521 1.503 . S
C514 C513 1.410 . S
C514 C515 1.392 . S
C514 C517 1.511 . S
C515 C511 1.376 . S
C515 C514 1.392 . S
C515 H527 0.929 . S
C516 C512 1.531 . S
C516 H528 0.960 . S
C516 H529 0.962 . S
C516 H530 0.960 . S
C517 C514 1.511 . S
C517 H531 0.961 . S
C517 H532 0.961 . S
C517 H533 0.961 . S
C518 C519 1.370 . S
C518 C520 1.363 . S
C518 H534 0.931 . S
C519 C518 1.370 . S
C519 C523 1.408 1_545 S
C520 C518 1.363 . S
C520 C521 1.370 . S
C520 C524 1.524 . S
C521 C513 1.503 . S
C521 C520 1.370 . S
C521 C522 1.403 . S
C522 C521 1.403 . S
C522 C523 1.404 1_545 S
C522 C525 1.539 1_545 S
C523 C519 1.408 1_565 S
C523 C522 1.404 1_565 S
C523 H535 0.930 . S
C524 C520 1.524 . S
C524 H536 0.956 . S
C524 H537 0.961 . S
C524 H538 0.961 . S
C525 C522 1.539 1_565 S
C525 H539 0.958 . S
C525 H540 0.961 . S
C525 H541 0.960 . S
H526 C510 0.931 . S
H527 C515 0.929 . S
H528 C516 0.960 . S
H529 C516 0.962 . S
H530 C516 0.960 . S
H531 C517 0.961 . S
H532 C517 0.961 . S
H533 C517 0.961 . S
H534 C518 0.931 . S
H535 C523 0.930 . S
H536 C524 0.956 . S
H537 C524 0.961 . S
H538 C524 0.961 . S
H539 C525 0.958 . S
H540 C525 0.961 . S
H541 C525 0.960 . S
C542 C543 1.391 . S
C542 C544 1.394 . S
C542 H558 0.931 . S
C543 C542 1.391 . S
C543 C547 1.376 . S
C544 C542 1.394 . S
C544 C545 1.369 . S
C544 C548 1.531 . S
C545 C544 1.369 . S
C545 C546 1.410 . S
C545 C553 1.503 . S
C546 C545 1.410 . S
C546 C547 1.392 . S
C546 C549 1.511 . S
C547 C543 1.376 . S
C547 C546 1.392 . S
C547 H559 0.929 . S
C548 C544 1.531 . S
C548 H560 0.960 . S
C548 H561 0.962 1_655 S
C548 H562 0.960 . S
C549 C546 1.511 . S
C549 H563 0.961 . S
C549 H564 0.961 . S
C549 H565 0.961 . S
C550 C551 1.370 1_455 S
C550 C552 1.363 . S
C550 H566 0.931 . S
C551 C550 1.370 1_655 S
C551 C555 1.408 . S
C552 C550 1.363 . S
C552 C553 1.370 1_455 S
C552 C556 1.524 . S
C553 C545 1.503 . S
C553 C552 1.370 1_655 S
C553 C554 1.403 . S
C554 C553 1.403 . S
C554 C555 1.404 . S
C554 C557 1.539 . S
C555 C551 1.408 . S
C555 C554 1.404 . S
C555 H567 0.930 . S
C556 C552 1.524 . S
C556 H568 0.956 . S
C556 H569 0.961 . S
C556 H570 0.961 . S
C557 C554 1.539 . S
C557 H571 0.958 . S
C557 H572 0.961 . S
C557 H573 0.960 . S
H558 C542 0.931 . S
H559 C547 0.929 . S
H560 C548 0.960 . S
H561 C548 0.962 1_455 S
H562 C548 0.960 . S
H563 C549 0.961 . S
H564 C549 0.961 . S
H565 C549 0.961 . S
H566 C550 0.931 . S
H567 C555 0.930 . S
H568 C556 0.956 . S
H569 C556 0.961 . S
H570 C556 0.961 . S
H571 C557 0.958 . S
H572 C557 0.961 . S
H573 C557 0.960 . S
C574 C575 1.391 . S
C574 C576 1.394 . S
C574 H590 0.931 . S
C575 C574 1.391 . S
C575 C579 1.376 . S
C576 C574 1.394 . S
C576 C577 1.369 . S
C576 C580 1.531 . S
C577 C576 1.369 . S
C577 C578 1.410 . S
C577 C585 1.503 . S
C578 C577 1.410 . S
C578 C579 1.392 . S
C578 C581 1.511 . S
C579 C575 1.376 . S
C579 C578 1.392 . S
C579 H591 0.929 . S
C580 C576 1.531 . S
C580 H592 0.960 . S
C580 H593 0.962 . S
C580 H594 0.960 . S
C581 C578 1.511 . S
C581 H595 0.961 . S
C581 H596 0.961 . S
C581 H597 0.961 . S
C582 C583 1.370 . S
C582 C584 1.363 . S
C582 H598 0.931 . S
C583 C582 1.370 . S
C583 C587 1.408 . S
C584 C582 1.363 . S
C584 C585 1.370 . S
C584 C588 1.524 . S
C585 C577 1.503 . S
C585 C584 1.370 . S
C585 C586 1.403 . S
C586 C585 1.403 . S
C586 C587 1.404 . S
C586 C589 1.539 . S
C587 C583 1.408 . S
C587 C586 1.404 . S
C587 H599 0.930 . S
C588 C584 1.524 . S
C588 H600 0.956 . S
C588 H601 0.961 . S
C588 H602 0.961 . S
C589 C586 1.539 . S
C589 H603 0.958 . S
C589 H604 0.961 . S
C589 H605 0.960 . S
H590 C574 0.931 . S
H591 C579 0.929 . S
H592 C580 0.960 . S
H593 C580 0.962 . S
H594 C580 0.960 . S
H595 C581 0.961 . S
H596 C581 0.961 . S
H597 C581 0.961 . S
H598 C582 0.931 . S
H599 C587 0.930 . S
H600 C588 0.956 . S
H601 C588 0.961 . S
H602 C588 0.961 . S
H603 C589 0.958 . S
H604 C589 0.961 . S
H605 C589 0.960 . S
C606 C607 1.391 1_455 S
C606 C608 1.394 . S
C606 H622 0.931 . S
C607 C606 1.391 1_655 S
C607 C611 1.376 . S
C608 C606 1.394 . S
C608 C609 1.369 1_455 S
C608 C612 1.531 . S
C609 C608 1.369 1_655 S
C609 C610 1.410 . S
C609 C617 1.503 . S
C610 C609 1.410 . S
C610 C611 1.392 . S
C610 C613 1.511 . S
C611 C607 1.376 . S
C611 C610 1.392 . S
C611 H623 0.929 . S
C612 C608 1.531 . S
C612 H624 0.960 . S
C612 H625 0.962 . S
C612 H626 0.960 . S
C613 C610 1.511 . S
C613 H627 0.961 . S
C613 H628 0.961 . S
C613 H629 0.961 . S
C614 C615 1.370 . S
C614 C616 1.363 . S
C614 H630 0.931 . S
C615 C614 1.370 . S
C615 C619 1.408 . S
C616 C614 1.363 . S
C616 C617 1.370 . S
C616 C620 1.524 . S
C617 C609 1.503 . S
C617 C616 1.370 . S
C617 C618 1.403 . S
C618 C617 1.403 . S
C618 C619 1.404 . S
C618 C621 1.539 . S
C619 C615 1.408 . S
C619 C618 1.404 . S
C619 H631 0.930 . S
C620 C616 1.524 . S
C620 H632 0.956 1_655 S
C620 H633 0.961 . S
C620 H634 0.961 . S
C621 C618 1.539 . S
C621 H635 0.958 . S
C621 H636 0.961 . S
C621 H637 0.960 . S
H622 C606 0.931 . S
H623 C611 0.929 . S
H624 C612 0.960 . S
H625 C612 0.962 . S
H626 C612 0.960 . S
H627 C613 0.961 . S
H628 C613 0.961 . S
H629 C613 0.961 . S
H630 C614 0.931 . S
H631 C619 0.930 . S
H632 C620 0.956 1_455 S
H633 C620 0.961 . S
H634 C620 0.961 . S
H635 C621 0.958 . S
H636 C621 0.961 . S
H637 C621 0.960 . S
C638 C639 1.391 . S
C638 C640 1.394 . S
C638 H654 0.931 . S
C639 C638 1.391 . S
C639 C643 1.376 . S
C640 C638 1.394 . S
C640 C641 1.369 . S
C640 C644 1.531 . S
C641 C640 1.369 . S
C641 C642 1.410 . S
C641 C649 1.503 . S
C642 C641 1.410 . S
C642 C643 1.392 . S
C642 C645 1.511 . S
C643 C639 1.376 . S
C643 C642 1.392 . S
C643 H655 0.929 . S
C644 C640 1.531 . S
C644 H656 0.960 . S
C644 H657 0.962 . S
C644 H658 0.960 . S
C645 C642 1.511 . S
C645 H659 0.961 . S
C645 H660 0.961 . S
C645 H661 0.961 . S
C646 C647 1.370 . S
C646 C648 1.363 . S
C646 H662 0.931 . S
C647 C646 1.370 . S
C647 C651 1.408 . S
C648 C646 1.363 . S
C648 C649 1.370 . S
C648 C652 1.524 . S
C649 C641 1.503 . S
C649 C648 1.370 . S
C649 C650 1.403 . S
C650 C649 1.403 . S
C650 C651 1.404 . S
C650 C653 1.539 . S
C651 C647 1.408 . S
C651 C650 1.404 . S
C651 H663 0.930 . S
C652 C648 1.524 . S
C652 H664 0.956 . S
C652 H665 0.961 . S
C652 H666 0.961 . S
C653 C650 1.539 . S
C653 H667 0.958 . S
C653 H668 0.961 . S
C653 H669 0.960 . S
H654 C638 0.931 . S
H655 C643 0.929 . S
H656 C644 0.960 . S
H657 C644 0.962 . S
H658 C644 0.960 . S
H659 C645 0.961 . S
H660 C645 0.961 . S
H661 C645 0.961 . S
H662 C646 0.931 . S
H663 C651 0.930 . S
H664 C652 0.956 . S
H665 C652 0.961 . S
H666 C652 0.961 . S
H667 C653 0.958 . S
H668 C653 0.961 . S
H669 C653 0.960 . S
C670 C671 1.391 . S
C670 C672 1.394 . S
C670 H686 0.931 . S
C671 C670 1.391 . S
C671 C675 1.376 . S
C672 C670 1.394 . S
C672 C673 1.369 . S
C672 C676 1.531 . S
C673 C672 1.369 . S
C673 C674 1.410 . S
C673 C681 1.503 . S
C674 C673 1.410 . S
C674 C675 1.392 . S
C674 C677 1.511 . S
C675 C671 1.376 . S
C675 C674 1.392 . S
C675 H687 0.929 . S
C676 C672 1.531 . S
C676 H688 0.960 . S
C676 H689 0.962 . S
C676 H690 0.960 . S
C677 C674 1.511 . S
C677 H691 0.961 . S
C677 H692 0.961 . S
C677 H693 0.961 . S
C678 C679 1.370 . S
C678 C680 1.363 . S
C678 H694 0.931 . S
C679 C678 1.370 . S
C679 C683 1.408 1_545 S
C680 C678 1.363 . S
C680 C681 1.370 . S
C680 C684 1.524 . S
C681 C673 1.503 . S
C681 C680 1.370 . S
C681 C682 1.403 . S
C682 C681 1.403 . S
C682 C683 1.404 1_545 S
C682 C685 1.539 1_545 S
C683 C679 1.408 1_565 S
C683 C682 1.404 1_565 S
C683 H695 0.930 . S
C684 C680 1.524 . S
C684 H696 0.956 . S
C684 H697 0.961 . S
C684 H698 0.961 . S
C685 C682 1.539 1_565 S
C685 H699 0.958 . S
C685 H700 0.961 . S
C685 H701 0.960 . S
H686 C670 0.931 . S
H687 C675 0.929 . S
H688 C676 0.960 . S
H689 C676 0.962 . S
H690 C676 0.960 . S
H691 C677 0.961 . S
H692 C677 0.961 . S
H693 C677 0.961 . S
H694 C678 0.931 . S
H695 C683 0.930 . S
H696 C684 0.956 . S
H697 C684 0.961 . S
H698 C684 0.961 . S
H699 C685 0.958 . S
H700 C685 0.961 . S
H701 C685 0.960 . S
C702 C703 1.391 . S
C702 C704 1.394 . S
C702 H718 0.931 . S
C703 C702 1.391 . S
C703 C707 1.376 1_565 S
C704 C702 1.394 . S
C704 C705 1.369 . S
C704 C708 1.531 . S
C705 C704 1.369 . S
C705 C706 1.410 1_565 S
C705 C713 1.503 . S
C706 C705 1.410 1_545 S
C706 C707 1.392 . S
C706 C709 1.511 . S
C707 C703 1.376 1_545 S
C707 C706 1.392 . S
C707 H719 0.929 . S
C708 C704 1.531 . S
C708 H720 0.960 . S
C708 H721 0.962 . S
C708 H722 0.960 . S
C709 C706 1.511 . S
C709 H723 0.961 . S
C709 H724 0.961 . S
C709 H725 0.961 . S
C710 C711 1.370 . S
C710 C712 1.363 . S
C710 H726 0.931 . S
C711 C710 1.370 . S
C711 C715 1.408 . S
C712 C710 1.363 . S
C712 C713 1.370 . S
C712 C716 1.524 . S
C713 C705 1.503 . S
C713 C712 1.370 . S
C713 C714 1.403 . S
C714 C713 1.403 . S
C714 C715 1.404 . S
C714 C717 1.539 . S
C715 C711 1.408 . S
C715 C714 1.404 . S
C715 H727 0.930 . S
C716 C712 1.524 . S
C716 H728 0.956 . S
C716 H729 0.943 1_565 S
C716 H730 0.961 . S
C717 C714 1.539 . S
C717 H731 0.958 . S
C717 H732 0.961 . S
C717 H733 0.960 . S
H718 C702 0.931 . S
H719 C707 0.929 . S
H720 C708 0.960 . S
H721 C708 0.962 . S
H722 C708 0.960 . S
H723 C709 0.961 . S
H724 C709 0.961 . S
H725 C709 0.961 . S
H726 C710 0.931 . S
H727 C715 0.930 . S
H728 C716 0.956 . S
H729 C716 0.943 1_545 S
H730 C716 0.961 . S
H731 C717 0.958 . S
H732 C717 0.961 . S
H733 C717 0.960 . S
C734 C735 1.391 . S
C734 C736 1.394 . S
C734 H750 0.931 . S
C735 C734 1.391 . S
C735 C739 1.376 . S
C736 C734 1.394 . S
C736 C737 1.369 . S
C736 C740 1.531 . S
C737 C736 1.369 . S
C737 C738 1.410 . S
C737 C745 1.503 . S
C738 C737 1.410 . S
C738 C739 1.392 . S
C738 C741 1.511 . S
C739 C735 1.376 . S
C739 C738 1.392 . S
C739 H751 0.929 . S
C740 C736 1.531 . S
C740 H752 0.960 . S
C740 H753 0.962 . S
C740 H754 0.960 . S
C741 C738 1.511 . S
C741 H755 0.961 . S
C741 H756 0.961 . S
C741 H757 0.961 . S
C742 C743 1.370 . S
C742 C744 1.363 . S
C742 H758 0.931 . S
C743 C742 1.370 . S
C743 C747 1.408 . S
C744 C742 1.363 . S
C744 C745 1.370 . S
C744 C748 1.524 1_455 S
C745 C737 1.503 . S
C745 C744 1.370 . S
C745 C746 1.403 . S
C746 C745 1.403 . S
C746 C747 1.404 . S
C746 C749 1.539 . S
C747 C743 1.408 . S
C747 C746 1.404 . S
C747 H759 0.930 . S
C748 C744 1.524 1_655 S
C748 H760 0.956 . S
C748 H761 0.961 . S
C748 H762 0.961 . S
C749 C746 1.539 . S
C749 H763 0.958 . S
C749 H764 0.961 . S
C749 H765 0.960 . S
H750 C734 0.931 . S
H751 C739 0.929 . S
H752 C740 0.960 . S
H753 C740 0.962 . S
H754 C740 0.960 . S
H755 C741 0.961 . S
H756 C741 0.961 . S
H757 C741 0.961 . S
H758 C742 0.931 . S
H759 C747 0.930 . S
H760 C748 0.956 . S
H761 C748 0.961 . S
H762 C748 0.961 . S
H763 C749 0.958 . S
H764 C749 0.961 . S
H765 C749 0.960 . S
C766 C767 1.391 . S
C766 C768 1.394 . S
C766 H782 0.931 . S
C767 C766 1.391 . S
C767 C771 1.376 . S
C768 C766 1.394 . S
C768 C769 1.369 . S
C768 C772 1.531 . S
C769 C768 1.369 . S
C769 C770 1.410 . S
C769 C777 1.503 . S
C770 C769 1.410 . S
C770 C771 1.392 . S
C770 C773 1.511 . S
C771 C767 1.376 . S
C771 C770 1.392 . S
C771 H783 0.929 . S
C772 C768 1.531 . S
C772 H784 0.960 . S
C772 H785 0.962 . S
C772 H786 0.960 . S
C773 C770 1.511 . S
C773 H787 0.961 . S
C773 H788 0.961 . S
C773 H789 0.961 . S
C774 C775 1.370 . S
C774 C776 1.363 . S
C774 H790 0.931 . S
C775 C774 1.370 . S
C775 C779 1.408 . S
C776 C774 1.363 . S
C776 C777 1.370 . S
C776 C780 1.524 . S
C777 C769 1.503 . S
C777 C776 1.370 . S
C777 C778 1.403 . S
C778 C777 1.403 . S
C778 C779 1.404 . S
C778 C781 1.539 . S
C779 C775 1.408 . S
C779 C778 1.404 . S
C779 H791 0.930 . S
C780 C776 1.524 . S
C780 H792 0.956 . S
C780 H793 0.961 . S
C780 H794 0.961 . S
C781 C778 1.539 . S
C781 H795 0.958 . S
C781 H796 0.961 . S
C781 H797 0.960 . S
H782 C766 0.931 . S
H783 C771 0.929 . S
H784 C772 0.960 . S
H785 C772 0.962 . S
H786 C772 0.960 . S
H787 C773 0.961 . S
H788 C773 0.961 . S
H789 C773 0.961 . S
H790 C774 0.931 . S
H791 C779 0.930 . S
H792 C780 0.956 . S
H793 C780 0.961 . S
H794 C780 0.961 . S
H795 C781 0.958 . S
H796 C781 0.961 . S
H797 C781 0.960 . S
C798 C799 1.391 . S
C798 C800 1.394 . S
C798 H814 0.931 . S
C799 C798 1.391 . S
C799 C803 1.376 . S
C800 C798 1.394 . S
C800 C801 1.369 . S
C800 C804 1.531 . S
C801 C800 1.369 . S
C801 C802 1.410 . S
C801 C809 1.503 . S
C802 C801 1.410 . S
C802 C803 1.392 . S
C802 C805 1.511 . S
C803 C799 1.376 . S
C803 C802 1.392 . S
C803 H815 0.929 . S
C804 C800 1.531 . S
C804 H816 0.960 . S
C804 H817 0.962 . S
C804 H818 0.960 . S
C805 C802 1.511 . S
C805 H819 0.961 . S
C805 H820 0.961 . S
C805 H821 0.961 . S
C806 C807 1.370 . S
C806 C808 1.363 . S
C806 H822 0.931 . S
C807 C806 1.370 . S
C807 C811 1.408 . S
C808 C806 1.363 . S
C808 C809 1.370 . S
C808 C812 1.524 . S
C809 C801 1.503 . S
C809 C808 1.370 . S
C809 C810 1.403 . S
C810 C809 1.403 . S
C810 C811 1.404 . S
C810 C813 1.539 . S
C811 C807 1.408 . S
C811 C810 1.404 . S
C811 H823 0.930 . S
C812 C808 1.524 . S
C812 H824 0.956 . S
C812 H825 0.961 . S
C812 H826 0.961 . S
C813 C810 1.539 . S
C813 H827 0.958 . S
C813 H828 0.961 . S
C813 H829 0.960 . S
H814 C798 0.931 . S
H815 C803 0.929 . S
H816 C804 0.960 . S
H817 C804 0.962 . S
H818 C804 0.960 . S
H819 C805 0.961 . S
H820 C805 0.961 . S
H821 C805 0.961 . S
H822 C806 0.931 . S
H823 C811 0.930 . S
H824 C812 0.956 . S
H825 C812 0.961 . S
H826 C812 0.961 . S
H827 C813 0.958 . S
H828 C813 0.961 . S
H829 C813 0.960 . S
C830 C831 1.391 . S
C830 C832 1.394 . S
C830 H846 0.931 . S
C831 C830 1.391 . S
C831 C835 1.376 . S
C832 C830 1.394 . S
C832 C833 1.369 . S
C832 C836 1.531 1_545 S
C833 C832 1.369 . S
C833 C834 1.410 . S
C833 C841 1.503 1_545 S
C834 C833 1.410 . S
C834 C835 1.392 . S
C834 C837 1.511 . S
C835 C831 1.376 . S
C835 C834 1.392 . S
C835 H847 0.929 . S
C836 C832 1.531 1_565 S
C836 H848 0.960 . S
C836 H849 0.962 1_565 S
C836 H850 0.960 . S
C837 C834 1.511 . S
C837 H851 0.961 . S
C837 H852 0.961 . S
C837 H853 0.961 1_545 S
C838 C839 1.370 1_545 S
C838 C840 1.363 . S
C838 H854 0.931 . S
C839 C838 1.370 1_565 S
C839 C843 1.408 . S
C840 C838 1.363 . S
C840 C841 1.370 1_545 S
C840 C844 1.524 . S
C841 C833 1.503 1_565 S
C841 C840 1.370 1_565 S
C841 C842 1.403 . S
C842 C841 1.403 . S
C842 C843 1.404 . S
C842 C845 1.539 . S
C843 C839 1.408 . S
C843 C842 1.404 . S
C843 H855 0.930 . S
C844 C840 1.524 . S
C844 H856 0.956 . S
C844 H857 0.961 . S
C844 H858 0.961 . S
C845 C842 1.539 . S
C845 H859 0.958 . S
C845 H860 0.961 . S
C845 H861 0.960 . S
H846 C830 0.931 . S
H847 C835 0.929 . S
H848 C836 0.960 . S
H849 C836 0.962 1_545 S
H850 C836 0.960 . S
H851 C837 0.961 . S
H852 C837 0.961 . S
H853 C837 0.961 1_565 S
H854 C838 0.931 . S
H855 C843 0.930 . S
H856 C844 0.956 . S
H857 C844 0.961 . S
H858 C844 0.961 . S
H859 C845 0.958 . S
H860 C845 0.961 . S
H861 C845 0.960 . S
C862 C863 1.391 . S
C862 C864 1.394 . S
C862 H878 0.931 . S
C863 C862 1.391 . S
C863 C867 1.376 . S
C864 C862 1.394 . S
C864 C865 1.369 . S
C864 C868 1.531 . S
C865 C864 1.369 . S
C865 C866 1.410 . S
C865 C873 1.503 1_455 S
C866 C865 1.410 . S
C866 C867 1.392 . S
C866 C869 1.511 1_455 S
C867 C863 1.376 . S
C867 C866 1.392 . S
C867 H879 0.929 . S
C868 C864 1.531 . S
C868 H880 0.960 . S
C868 H881 0.962 . S
C868 H882 0.960 . S
C869 C866 1.511 1_655 S
C869 H883 0.961 . S
C869 H884 0.961 . S
C869 H885 0.961 . S
C870 C871 1.366 1_455 S
C870 C872 1.366 . S
C870 H886 0.932 . S
C871 C870 1.366 1_655 S
C871 C875 1.408 . S
C872 C870 1.366 . S
C872 C873 1.370 1_455 S
C872 C876 1.524 . S
C873 C865 1.503 1_655 S
C873 C872 1.370 1_655 S
C873 C874 1.403 . S
C874 C873 1.403 . S
C874 C875 1.404 . S
C874 C877 1.539 . S
C875 C871 1.408 . S
C875 C874 1.404 . S
C875 H887 0.930 . S
C876 C872 1.524 . S
C876 H888 0.956 . S
C876 H889 0.961 . S
C876 H890 0.961 . S
C877 C874 1.539 . S
C877 H891 0.958 . S
C877 H892 0.961 . S
C877 H893 0.960 . S
H878 C862 0.931 . S
H879 C867 0.929 . S
H880 C868 0.960 . S
H881 C868 0.962 . S
H882 C868 0.960 . S
H883 C869 0.961 . S
H884 C869 0.961 . S
H885 C869 0.961 . S
H886 C870 0.932 . S
H887 C875 0.930 . S
H888 C876 0.956 . S
H889 C876 0.961 . S
H890 C876 0.961 . S
H891 C877 0.958 . S
H892 C877 0.961 . S
H893 C877 0.960 . S
C894 C895 1.391 . S
C894 C896 1.394 . S
C894 H910 0.931 . S
C895 C894 1.391 . S
C895 C899 1.376 . S
C896 C894 1.394 . S
C896 C897 1.369 . S
C896 C900 1.531 . S
C897 C896 1.369 . S
C897 C898 1.410 . S
C897 C905 1.503 . S
C898 C897 1.410 . S
C898 C899 1.392 . S
C898 C901 1.511 . S
C899 C895 1.376 . S
C899 C898 1.392 . S
C899 H911 0.929 . S
C900 C896 1.531 . S
C900 H912 0.960 . S
C900 H913 0.962 . S
C900 H914 0.960 . S
C901 C898 1.511 . S
C901 H915 0.961 . S
C901 H916 0.961 . S
C901 H917 0.961 . S
C902 C903 1.370 . S
C902 C904 1.363 . S
C902 H918 0.931 . S
C903 C902 1.370 . S
C903 C907 1.408 . S
C904 C902 1.363 . S
C904 C905 1.370 . S
C904 C908 1.524 . S
C905 C897 1.503 . S
C905 C904 1.370 . S
C905 C906 1.403 . S
C906 C905 1.403 . S
C906 C907 1.404 . S
C906 C909 1.539 . S
C907 C903 1.408 . S
C907 C906 1.404 . S
C907 H919 0.930 . S
C908 C904 1.524 . S
C908 H920 0.956 . S
C908 H921 0.961 . S
C908 H922 0.961 . S
C909 C906 1.539 . S
C909 H923 0.958 . S
C909 H924 0.961 . S
C909 H925 0.960 . S
H910 C894 0.931 . S
H911 C899 0.929 . S
H912 C900 0.960 . S
H913 C900 0.962 . S
H914 C900 0.960 . S
H915 C901 0.961 . S
H916 C901 0.961 . S
H917 C901 0.961 . S
H918 C902 0.931 . S
H919 C907 0.930 . S
H920 C908 0.956 . S
H921 C908 0.961 . S
H922 C908 0.961 . S
H923 C909 0.958 . S
H924 C909 0.961 . S
H925 C909 0.960 . S
C926 C927 1.391 . S
C926 C928 1.388 1_545 S
C926 H942 0.931 . S
C927 C926 1.391 . S
C927 C931 1.376 . S
C928 C926 1.388 1_565 S
C928 C929 1.369 1_565 S
C928 C932 1.536 . S
C929 C928 1.369 1_545 S
C929 C930 1.410 . S
C929 C937 1.503 1_545 S
C930 C929 1.410 . S
C930 C931 1.392 . S
C930 C933 1.511 . S
C931 C927 1.376 . S
C931 C930 1.392 . S
C931 H943 0.929 . S
C932 C928 1.536 . S
C932 H944 0.960 . S
C932 H945 0.962 . S
C932 H946 0.960 . S
C933 C930 1.511 . S
C933 H947 0.961 . S
C933 H948 0.961 . S
C933 H949 0.961 . S
C934 C935 1.370 . S
C934 C936 1.363 1_565 S
C934 H950 0.931 1_565 S
C935 C934 1.370 . S
C935 C939 1.408 . S
C936 C934 1.363 1_545 S
C936 C937 1.370 1_545 S
C936 C940 1.524 . S
C937 C929 1.503 1_565 S
C937 C936 1.370 1_565 S
C937 C938 1.403 . S
C938 C937 1.403 . S
C938 C939 1.404 . S
C938 C941 1.539 . S
C939 C935 1.408 . S
C939 C938 1.404 . S
C939 H951 0.930 . S
C940 C936 1.524 . S
C940 H952 0.956 . S
C940 H953 0.961 . S
C940 H954 0.961 . S
C941 C938 1.539 . S
C941 H955 0.958 . S
C941 H956 0.961 . S
C941 H957 0.960 . S
H942 C926 0.931 . S
H943 C931 0.929 . S
H944 C932 0.960 . S
H945 C932 0.962 . S
H946 C932 0.960 . S
H947 C933 0.961 . S
H948 C933 0.961 . S
H949 C933 0.961 . S
H950 C934 0.931 1_545 S
H951 C939 0.930 . S
H952 C940 0.956 . S
H953 C940 0.961 . S
H954 C940 0.961 . S
H955 C941 0.958 . S
H956 C941 0.961 . S
H957 C941 0.960 . S
C958 C959 1.391 . S
C958 C960 1.394 . S
C958 H974 0.931 . S
C959 C958 1.391 . S
C959 C963 1.376 . S
C960 C958 1.394 . S
C960 C961 1.369 . S
C960 C964 1.531 . S
C961 C960 1.369 . S
C961 C962 1.410 . S
C961 C969 1.503 1_455 S
C962 C961 1.410 . S
C962 C963 1.392 . S
C962 C965 1.511 . S
C963 C959 1.376 . S
C963 C962 1.392 . S
C963 H975 0.929 . S
C964 C960 1.531 . S
C964 H976 0.960 1_455 S
C964 H977 0.962 . S
C964 H978 0.960 . S
C965 C962 1.511 . S
C965 H979 0.961 . S
C965 H980 0.961 . S
C965 H981 0.961 1_455 S
C966 C967 1.370 1_455 S
C966 C968 1.363 . S
C966 H982 0.931 . S
C967 C966 1.370 1_655 S
C967 C971 1.408 . S
C968 C966 1.363 . S
C968 C969 1.370 1_455 S
C968 C972 1.524 . S
C969 C961 1.503 1_655 S
C969 C968 1.370 1_655 S
C969 C970 1.403 . S
C970 C969 1.403 . S
C970 C971 1.404 . S
C970 C973 1.539 . S
C971 C967 1.408 . S
C971 C970 1.404 . S
C971 H983 0.930 . S
C972 C968 1.524 . S
C972 H984 0.956 . S
C972 H985 0.961 . S
C972 H986 0.961 . S
C973 C970 1.539 . S
C973 H987 0.958 . S
C973 H988 0.961 . S
C973 H989 0.960 . S
H974 C958 0.931 . S
H975 C963 0.929 . S
H976 C964 0.960 1_655 S
H977 C964 0.962 . S
H978 C964 0.960 . S
H979 C965 0.961 . S
H980 C965 0.961 . S
H981 C965 0.961 1_655 S
H982 C966 0.931 . S
H983 C971 0.930 . S
H984 C972 0.956 . S
H985 C972 0.961 . S
H986 C972 0.961 . S
H987 C973 0.958 . S
H988 C973 0.961 . S
H989 C973 0.960 . S
C990 C991 1.391 . S
C990 C992 1.394 . S
C990 H1006 0.931 . S
C991 C990 1.391 . S
C991 C995 1.376 . S
C992 C990 1.394 . S
C992 C993 1.369 . S
C992 C996 1.531 . S
C993 C992 1.369 . S
C993 C994 1.410 . S
C993 C1001 1.503 . S
C994 C993 1.410 . S
C994 C995 1.392 . S
C994 C997 1.511 . S
C995 C991 1.376 . S
C995 C994 1.392 . S
C995 H1007 0.929 . S
C996 C992 1.531 . S
C996 H1008 0.960 . S
C996 H1009 0.962 . S
C996 H1010 0.960 . S
C997 C994 1.511 . S
C997 H1011 0.961 . S
C997 H1012 0.961 . S
C997 H1013 0.961 . S
C998 C999 1.370 . S
C998 C1000 1.363 . S
C998 H1014 0.931 . S
C999 C998 1.370 . S
C999 C1003 1.408 . S
C1000 C998 1.363 . S
C1000 C1001 1.370 . S
C1000 C1004 1.524 . S
C1001 C993 1.503 . S
C1001 C1000 1.370 . S
C1001 C1002 1.403 . S
C1002 C1001 1.403 . S
C1002 C1003 1.404 . S
C1002 C1005 1.539 . S
C1003 C999 1.408 . S
C1003 C1002 1.404 . S
C1003 H1015 0.930 . S
C1004 C1000 1.524 . S
C1004 H1016 0.956 . S
C1004 H1017 0.961 . S
C1004 H1018 0.961 . S
C1005 C1002 1.539 . S
C1005 H1019 0.958 . S
C1005 H1020 0.961 . S
C1005 H1021 0.960 . S
H1006 C990 0.931 . S
H1007 C995 0.929 . S
H1008 C996 0.960 . S
H1009 C996 0.962 . S
H1010 C996 0.960 . S
H1011 C997 0.961 . S
H1012 C997 0.961 . S
H1013 C997 0.961 . S
H1014 C998 0.931 . S
H1015 C1003 0.930 . S
H1016 C1004 0.956 . S
H1017 C1004 0.961 . S
H1018 C1004 0.961 . S
H1019 C1005 0.958 . S
H1020 C1005 0.961 . S
H1021 C1005 0.960 . S
C1022 C1023 1.391 . S
C1022 C1024 1.394 . S
C1022 H1038 0.931 . S
C1023 C1022 1.391 . S
C1023 C1027 1.376 . S
C1024 C1022 1.394 . S
C1024 C1025 1.369 . S
C1024 C1028 1.531 . S
C1025 C1024 1.369 . S
C1025 C1026 1.410 . S
C1025 C1033 1.503 . S
C1026 C1025 1.410 . S
C1026 C1027 1.392 . S
C1026 C1029 1.511 . S
C1027 C1023 1.376 . S
C1027 C1026 1.392 . S
C1027 H1039 0.929 . S
C1028 C1024 1.531 . S
C1028 H1040 0.960 . S
C1028 H1041 0.962 . S
C1028 H1042 0.960 . S
C1029 C1026 1.511 . S
C1029 H1043 0.961 . S
C1029 H1044 0.961 . S
C1029 H1045 0.961 . S
C1030 C1031 1.370 . S
C1030 C1032 1.363 . S
C1030 H1046 0.931 . S
C1031 C1030 1.370 . S
C1031 C1035 1.408 . S
C1032 C1030 1.363 . S
C1032 C1033 1.370 . S
C1032 C1036 1.524 . S
C1033 C1025 1.503 . S
C1033 C1032 1.370 . S
C1033 C1034 1.403 . S
C1034 C1033 1.403 . S
C1034 C1035 1.404 . S
C1034 C1037 1.539 . S
C1035 C1031 1.408 . S
C1035 C1034 1.404 . S
C1035 H1047 0.930 . S
C1036 C1032 1.524 . S
C1036 H1048 0.956 . S
C1036 H1049 0.961 . S
C1036 H1050 0.961 . S
C1037 C1034 1.539 . S
C1037 H1051 0.958 . S
C1037 H1052 0.961 . S
C1037 H1053 0.960 . S
H1038 C1022 0.931 . S
H1039 C1027 0.929 . S
H1040 C1028 0.960 . S
H1041 C1028 0.962 . S
H1042 C1028 0.960 . S
H1043 C1029 0.961 . S
H1044 C1029 0.961 . S
H1045 C1029 0.961 . S
H1046 C1030 0.931 . S
H1047 C1035 0.930 . S
H1048 C1036 0.956 . S
H1049 C1036 0.961 . S
H1050 C1036 0.961 . S
H1051 C1037 0.958 . S
H1052 C1037 0.961 . S
H1053 C1037 0.960 . S
C1054 C1055 1.391 . S
C1054 C1056 1.394 . S
C1054 H1070 0.931 . S
C1055 C1054 1.391 . S
C1055 C1059 1.376 . S
C1056 C1054 1.394 . S
C1056 C1057 1.369 . S
C1056 C1060 1.531 . S
C1057 C1056 1.369 . S
C1057 C1058 1.410 . S
C1057 C1065 1.503 . S
C1058 C1057 1.410 . S
C1058 C1059 1.392 . S
C1058 C1061 1.511 . S
C1059 C1055 1.376 . S
C1059 C1058 1.392 . S
C1059 H1071 0.929 . S
C1060 C1056 1.531 . S
C1060 H1072 0.960 . S
C1060 H1073 0.962 . S
C1060 H1074 0.960 . S
C1061 C1058 1.511 . S
C1061 H1075 0.961 . S
C1061 H1076 0.961 . S
C1061 H1077 0.961 . S
C1062 C1063 1.370 . S
C1062 C1064 1.363 . S
C1062 H1078 0.931 . S
C1063 C1062 1.370 . S
C1063 C1067 1.408 . S
C1064 C1062 1.363 . S
C1064 C1065 1.370 . S
C1064 C1068 1.524 . S
C1065 C1057 1.503 . S
C1065 C1064 1.370 . S
C1065 C1066 1.403 . S
C1066 C1065 1.403 . S
C1066 C1067 1.404 . S
C1066 C1069 1.539 . S
C1067 C1063 1.408 . S
C1067 C1066 1.404 . S
C1067 H1079 0.930 . S
C1068 C1064 1.524 . S
C1068 H1080 0.956 . S
C1068 H1081 0.961 . S
C1068 H1082 0.961 . S
C1069 C1066 1.539 . S
C1069 H1083 0.958 . S
C1069 H1084 0.961 . S
C1069 H1085 0.960 . S
H1070 C1054 0.931 . S
H1071 C1059 0.929 . S
H1072 C1060 0.960 . S
H1073 C1060 0.962 . S
H1074 C1060 0.960 . S
H1075 C1061 0.961 . S
H1076 C1061 0.961 . S
H1077 C1061 0.961 . S
H1078 C1062 0.931 . S
H1079 C1067 0.930 . S
H1080 C1068 0.956 . S
H1081 C1068 0.961 . S
H1082 C1068 0.961 . S
H1083 C1069 0.958 . S
H1084 C1069 0.961 . S
H1085 C1069 0.960 . S
C1086 C1087 1.391 . S
C1086 C1088 1.394 . S
C1086 H1102 0.931 . S
C1087 C1086 1.391 . S
C1087 C1091 1.376 . S
C1088 C1086 1.394 . S
C1088 C1089 1.369 . S
C1088 C1092 1.531 . S
C1089 C1088 1.369 . S
C1089 C1090 1.410 . S
C1089 C1097 1.503 . S
C1090 C1089 1.410 . S
C1090 C1091 1.392 . S
C1090 C1093 1.511 . S
C1091 C1087 1.376 . S
C1091 C1090 1.392 . S
C1091 H1103 0.929 . S
C1092 C1088 1.531 . S
C1092 H1104 0.960 . S
C1092 H1105 0.962 . S
C1092 H1106 0.960 . S
C1093 C1090 1.511 . S
C1093 H1107 0.961 . S
C1093 H1108 0.961 . S
C1093 H1109 0.961 . S
C1094 C1095 1.370 . S
C1094 C1096 1.363 . S
C1094 H1110 0.931 . S
C1095 C1094 1.370 . S
C1095 C1099 1.408 . S
C1096 C1094 1.363 . S
C1096 C1097 1.370 . S
C1096 C1100 1.524 . S
C1097 C1089 1.503 . S
C1097 C1096 1.370 . S
C1097 C1098 1.403 . S
C1098 C1097 1.403 . S
C1098 C1099 1.404 . S
C1098 C1101 1.539 . S
C1099 C1095 1.408 . S
C1099 C1098 1.404 . S
C1099 H1111 0.930 . S
C1100 C1096 1.524 . S
C1100 H1112 0.956 . S
C1100 H1113 0.961 . S
C1100 H1114 0.961 . S
C1101 C1098 1.539 . S
C1101 H1115 0.958 . S
C1101 H1116 0.961 . S
C1101 H1117 0.960 . S
H1102 C1086 0.931 . S
H1103 C1091 0.929 . S
H1104 C1092 0.960 . S
H1105 C1092 0.962 . S
H1106 C1092 0.960 . S
H1107 C1093 0.961 . S
H1108 C1093 0.961 . S
H1109 C1093 0.961 . S
H1110 C1094 0.931 . S
H1111 C1099 0.930 . S
H1112 C1100 0.956 . S
H1113 C1100 0.961 . S
H1114 C1100 0.961 . S
H1115 C1101 0.958 . S
H1116 C1101 0.961 . S
H1117 C1101 0.960 . S
C1118 C1119 1.391 . S
C1118 C1120 1.394 . S
C1118 H1134 0.931 . S
C1119 C1118 1.391 . S
C1119 C1123 1.376 . S
C1120 C1118 1.394 . S
C1120 C1121 1.369 . S
C1120 C1124 1.531 . S
C1121 C1120 1.369 . S
C1121 C1122 1.410 . S
C1121 C1129 1.503 . S
C1122 C1121 1.410 . S
C1122 C1123 1.392 . S
C1122 C1125 1.511 . S
C1123 C1119 1.376 . S
C1123 C1122 1.392 . S
C1123 H1135 0.929 . S
C1124 C1120 1.531 . S
C1124 H1136 0.960 . S
C1124 H1137 0.962 . S
C1124 H1138 0.960 . S
C1125 C1122 1.511 . S
C1125 H1139 0.961 . S
C1125 H1140 0.961 . S
C1125 H1141 0.961 . S
C1126 C1127 1.370 . S
C1126 C1128 1.363 . S
C1126 H1142 0.931 . S
C1127 C1126 1.370 . S
C1127 C1131 1.408 . S
C1128 C1126 1.363 . S
C1128 C1129 1.370 . S
C1128 C1132 1.524 . S
C1129 C1121 1.503 . S
C1129 C1128 1.370 . S
C1129 C1130 1.403 . S
C1130 C1129 1.403 . S
C1130 C1131 1.404 . S
C1130 C1133 1.539 . S
C1131 C1127 1.408 . S
C1131 C1130 1.404 . S
C1131 H1143 0.930 . S
C1132 C1128 1.524 . S
C1132 H1144 0.956 . S
C1132 H1145 0.961 . S
C1132 H1146 0.961 . S
C1133 C1130 1.539 . S
C1133 H1147 0.958 . S
C1133 H1148 0.961 . S
C1133 H1149 0.960 . S
H1134 C1118 0.931 . S
H1135 C1123 0.929 . S
H1136 C1124 0.960 . S
H1137 C1124 0.962 . S
H1138 C1124 0.960 . S
H1139 C1125 0.961 . S
H1140 C1125 0.961 . S
H1141 C1125 0.961 . S
H1142 C1126 0.931 . S
H1143 C1131 0.930 . S
H1144 C1132 0.956 . S
H1145 C1132 0.961 . S
H1146 C1132 0.961 . S
H1147 C1133 0.958 . S
H1148 C1133 0.961 . S
H1149 C1133 0.960 . S
C1150 C1151 1.391 . S
C1150 C1152 1.394 . S
C1150 H1166 0.931 . S
C1151 C1150 1.391 . S
C1151 C1155 1.376 . S
C1152 C1150 1.394 . S
C1152 C1153 1.369 . S
C1152 C1156 1.531 . S
C1153 C1152 1.369 . S
C1153 C1154 1.410 . S
C1153 C1161 1.503 . S
C1154 C1153 1.410 . S
C1154 C1155 1.392 . S
C1154 C1157 1.511 . S
C1155 C1151 1.376 . S
C1155 C1154 1.392 . S
C1155 H1167 0.929 . S
C1156 C1152 1.531 . S
C1156 H1168 0.960 . S
C1156 H1169 0.962 . S
C1156 H1170 0.960 . S
C1157 C1154 1.511 . S
C1157 H1171 0.961 . S
C1157 H1172 0.961 . S
C1157 H1173 0.961 . S
C1158 C1159 1.370 . S
C1158 C1160 1.363 . S
C1158 H1174 0.931 . S
C1159 C1158 1.370 . S
C1159 C1163 1.408 . S
C1160 C1158 1.363 . S
C1160 C1161 1.370 . S
C1160 C1164 1.524 . S
C1161 C1153 1.503 . S
C1161 C1160 1.370 . S
C1161 C1162 1.403 . S
C1162 C1161 1.403 . S
C1162 C1163 1.404 . S
C1162 C1165 1.539 . S
C1163 C1159 1.408 . S
C1163 C1162 1.404 . S
C1163 H1175 0.930 . S
C1164 C1160 1.524 . S
C1164 H1176 0.956 . S
C1164 H1177 0.961 . S
C1164 H1178 0.961 . S
C1165 C1162 1.539 . S
C1165 H1179 0.958 . S
C1165 H1180 0.961 . S
C1165 H1181 0.960 . S
H1166 C1150 0.931 . S
H1167 C1155 0.929 . S
H1168 C1156 0.960 . S
H1169 C1156 0.962 . S
H1170 C1156 0.960 . S
H1171 C1157 0.961 . S
H1172 C1157 0.961 . S
H1173 C1157 0.961 . S
H1174 C1158 0.931 . S
H1175 C1163 0.930 . S
H1176 C1164 0.956 . S
H1177 C1164 0.961 . S
H1178 C1164 0.961 . S
H1179 C1165 0.958 . S
H1180 C1165 0.961 . S
H1181 C1165 0.960 . S
C1182 C1183 1.391 . S
C1182 C1184 1.394 . S
C1182 H1198 0.931 . S
C1183 C1182 1.391 . S
C1183 C1187 1.376 . S
C1184 C1182 1.394 . S
C1184 C1185 1.369 . S
C1184 C1188 1.531 . S
C1185 C1184 1.369 . S
C1185 C1186 1.410 . S
C1185 C1193 1.503 . S
C1186 C1185 1.410 . S
C1186 C1187 1.392 . S
C1186 C1189 1.511 . S
C1187 C1183 1.376 . S
C1187 C1186 1.392 . S
C1187 H1199 0.929 . S
C1188 C1184 1.531 . S
C1188 H1200 0.960 . S
C1188 H1201 0.962 . S
C1188 H1202 0.960 . S
C1189 C1186 1.511 . S
C1189 H1203 0.961 . S
C1189 H1204 0.961 . S
C1189 H1205 0.961 . S
C1190 C1191 1.370 . S
C1190 C1192 1.363 . S
C1190 H1206 0.931 . S
C1191 C1190 1.370 . S
C1191 C1195 1.408 . S
C1192 C1190 1.363 . S
C1192 C1193 1.370 . S
C1192 C1196 1.524 . S
C1193 C1185 1.503 . S
C1193 C1192 1.370 . S
C1193 C1194 1.403 . S
C1194 C1193 1.403 . S
C1194 C1195 1.404 . S
C1194 C1197 1.539 . S
C1195 C1191 1.408 . S
C1195 C1194 1.404 . S
C1195 H1207 0.930 . S
C1196 C1192 1.524 . S
C1196 H1208 0.956 . S
C1196 H1209 0.961 . S
C1196 H1210 0.961 . S
C1197 C1194 1.539 . S
C1197 H1211 0.958 . S
C1197 H1212 0.961 . S
C1197 H1213 0.960 . S
H1198 C1182 0.931 . S
H1199 C1187 0.929 . S
H1200 C1188 0.960 . S
H1201 C1188 0.962 . S
H1202 C1188 0.960 . S
H1203 C1189 0.961 . S
H1204 C1189 0.961 . S
H1205 C1189 0.961 . S
H1206 C1190 0.931 . S
H1207 C1195 0.930 . S
H1208 C1196 0.956 . S
H1209 C1196 0.961 . S
H1210 C1196 0.961 . S
H1211 C1197 0.958 . S
H1212 C1197 0.961 . S
H1213 C1197 0.960 . S
C1214 C1215 1.391 . S
C1214 C1216 1.394 . S
C1214 H1230 0.931 . S
C1215 C1214 1.391 . S
C1215 C1219 1.376 . S
C1216 C1214 1.394 . S
C1216 C1217 1.369 . S
C1216 C1220 1.531 . S
C1217 C1216 1.369 . S
C1217 C1218 1.410 . S
C1217 C1225 1.503 . S
C1218 C1217 1.410 . S
C1218 C1219 1.392 . S
C1218 C1221 1.511 . S
C1219 C1215 1.376 . S
C1219 C1218 1.392 . S
C1219 H1231 0.929 . S
C1220 C1216 1.531 . S
C1220 H1232 0.960 . S
C1220 H1233 0.962 . S
C1220 H1234 0.960 . S
C1221 C1218 1.511 . S
C1221 H1235 0.961 . S
C1221 H1236 0.961 . S
C1221 H1237 0.961 . S
C1222 C1223 1.370 . S
C1222 C1224 1.363 . S
C1222 H1238 0.931 . S
C1223 C1222 1.370 . S
C1223 C1227 1.408 . S
C1224 C1222 1.363 . S
C1224 C1225 1.370 . S
C1224 C1228 1.524 . S
C1225 C1217 1.503 . S
C1225 C1224 1.370 . S
C1225 C1226 1.403 . S
C1226 C1225 1.403 . S
C1226 C1227 1.404 . S
C1226 C1229 1.539 . S
C1227 C1223 1.408 . S
C1227 C1226 1.404 . S
C1227 H1239 0.930 . S
C1228 C1224 1.524 . S
C1228 H1240 0.956 . S
C1228 H1241 0.961 . S
C1228 H1242 0.961 . S
C1229 C1226 1.539 . S
C1229 H1243 0.958 . S
C1229 H1244 0.961 . S
C1229 H1245 0.960 . S
H1230 C1214 0.931 . S
H1231 C1219 0.929 . S
H1232 C1220 0.960 . S
H1233 C1220 0.962 . S
H1234 C1220 0.960 . S
H1235 C1221 0.961 . S
H1236 C1221 0.961 . S
H1237 C1221 0.961 . S
H1238 C1222 0.931 . S
H1239 C1227 0.930 . S
H1240 C1228 0.956 . S
H1241 C1228 0.961 . S
H1242 C1228 0.961 . S
H1243 C1229 0.958 . S
H1244 C1229 0.961 . S
H1245 C1229 0.960 . S
C1246 C1247 1.391 . S
C1246 C1248 1.394 . S
C1246 H1262 0.931 . S
C1247 C1246 1.391 . S
C1247 C1251 1.376 . S
C1248 C1246 1.394 . S
C1248 C1249 1.369 . S
C1248 C1252 1.531 . S
C1249 C1248 1.369 . S
C1249 C1250 1.410 . S
C1249 C1257 1.503 . S
C1250 C1249 1.410 . S
C1250 C1251 1.392 . S
C1250 C1253 1.511 . S
C1251 C1247 1.376 . S
C1251 C1250 1.392 . S
C1251 H1263 0.929 . S
C1252 C1248 1.531 . S
C1252 H1264 0.960 . S
C1252 H1265 0.962 . S
C1252 H1266 0.960 . S
C1253 C1250 1.511 . S
C1253 H1267 0.961 . S
C1253 H1268 0.961 . S
C1253 H1269 0.961 . S
C1254 C1255 1.370 . S
C1254 C1256 1.363 . S
C1254 H1270 0.931 . S
C1255 C1254 1.370 . S
C1255 C1259 1.408 . S
C1256 C1254 1.363 . S
C1256 C1257 1.370 . S
C1256 C1260 1.524 . S
C1257 C1249 1.503 . S
C1257 C1256 1.370 . S
C1257 C1258 1.403 . S
C1258 C1257 1.403 . S
C1258 C1259 1.404 . S
C1258 C1261 1.539 . S
C1259 C1255 1.408 . S
C1259 C1258 1.404 . S
C1259 H1271 0.930 . S
C1260 C1256 1.524 . S
C1260 H1272 0.956 . S
C1260 H1273 0.961 . S
C1260 H1274 0.961 . S
C1261 C1258 1.539 . S
C1261 H1275 0.958 . S
C1261 H1276 0.961 . S
C1261 H1277 0.960 . S
H1262 C1246 0.931 . S
H1263 C1251 0.929 . S
H1264 C1252 0.960 . S
H1265 C1252 0.962 . S
H1266 C1252 0.960 . S
H1267 C1253 0.961 . S
H1268 C1253 0.961 . S
H1269 C1253 0.961 . S
H1270 C1254 0.931 . S
H1271 C1259 0.930 . S
H1272 C1260 0.956 . S
H1273 C1260 0.961 . S
H1274 C1260 0.961 . S
H1275 C1261 0.958 . S
H1276 C1261 0.961 . S
H1277 C1261 0.960 . S
C1278 C1279 1.391 . S
C1278 C1280 1.394 . S
C1278 H1294 0.931 . S
C1279 C1278 1.391 . S
C1279 C1283 1.376 . S
C1280 C1278 1.394 . S
C1280 C1281 1.369 . S
C1280 C1284 1.531 . S
C1281 C1280 1.369 . S
C1281 C1282 1.410 . S
C1281 C1289 1.503 . S
C1282 C1281 1.410 . S
C1282 C1283 1.392 . S
C1282 C1285 1.511 . S
C1283 C1279 1.376 . S
C1283 C1282 1.392 . S
C1283 H1295 0.929 . S
C1284 C1280 1.531 . S
C1284 H1296 0.960 . S
C1284 H1297 0.962 . S
C1284 H1298 0.960 . S
C1285 C1282 1.511 . S
C1285 H1299 0.961 . S
C1285 H1300 0.961 . S
C1285 H1301 0.961 . S
C1286 C1287 1.370 . S
C1286 C1288 1.363 . S
C1286 H1302 0.931 . S
C1287 C1286 1.370 . S
C1287 C1291 1.408 . S
C1288 C1286 1.363 . S
C1288 C1289 1.370 . S
C1288 C1292 1.524 . S
C1289 C1281 1.503 . S
C1289 C1288 1.370 . S
C1289 C1290 1.403 . S
C1290 C1289 1.403 . S
C1290 C1291 1.404 . S
C1290 C1293 1.539 . S
C1291 C1287 1.408 . S
C1291 C1290 1.404 . S
C1291 H1303 0.930 . S
C1292 C1288 1.524 . S
C1292 H1304 0.956 . S
C1292 H1305 0.961 . S
C1292 H1306 0.961 . S
C1293 C1290 1.539 . S
C1293 H1307 0.958 . S
C1293 H1308 0.961 . S
C1293 H1309 0.960 . S
H1294 C1278 0.931 . S
H1295 C1283 0.929 . S
H1296 C1284 0.960 . S
H1297 C1284 0.962 . S
H1298 C1284 0.960 . S
H1299 C1285 0.961 . S
H1300 C1285 0.961 . S
H1301 C1285 0.961 . S
H1302 C1286 0.931 . S
H1303 C1291 0.930 . S
H1304 C1292 0.956 . S
H1305 C1292 0.961 . S
H1306 C1292 0.961 . S
H1307 C1293 0.958 . S
H1308 C1293 0.961 . S
H1309 C1293 0.960 . S
C1310 C1311 1.391 . S
C1310 C1312 1.394 . S
C1310 H1326 0.931 . S
C1311 C1310 1.391 . S
C1311 C1315 1.376 . S
C1312 C1310 1.394 . S
C1312 C1313 1.369 . S
C1312 C1316 1.531 . S
C1313 C1312 1.369 . S
C1313 C1314 1.410 . S
C1313 C1321 1.503 . S
C1314 C1313 1.410 . S
C1314 C1315 1.392 . S
C1314 C1317 1.511 . S
C1315 C1311 1.376 . S
C1315 C1314 1.392 . S
C1315 H1327 0.929 . S
C1316 C1312 1.531 . S
C1316 H1328 0.960 . S
C1316 H1329 0.962 . S
C1316 H1330 0.960 . S
C1317 C1314 1.511 . S
C1317 H1331 0.961 . S
C1317 H1332 0.961 . S
C1317 H1333 0.961 . S
C1318 C1319 1.370 . S
C1318 C1320 1.363 . S
C1318 H1334 0.931 . S
C1319 C1318 1.370 . S
C1319 C1323 1.408 . S
C1320 C1318 1.363 . S
C1320 C1321 1.370 . S
C1320 C1324 1.524 . S
C1321 C1313 1.503 . S
C1321 C1320 1.370 . S
C1321 C1322 1.403 . S
C1322 C1321 1.403 . S
C1322 C1323 1.404 . S
C1322 C1325 1.539 . S
C1323 C1319 1.408 . S
C1323 C1322 1.404 . S
C1323 H1335 0.930 . S
C1324 C1320 1.524 . S
C1324 H1336 0.956 . S
C1324 H1337 0.961 . S
C1324 H1338 0.961 . S
C1325 C1322 1.539 . S
C1325 H1339 0.958 . S
C1325 H1340 0.961 . S
C1325 H1341 0.960 . S
H1326 C1310 0.931 . S
H1327 C1315 0.929 . S
H1328 C1316 0.960 . S
H1329 C1316 0.962 . S
H1330 C1316 0.960 . S
H1331 C1317 0.961 . S
H1332 C1317 0.961 . S
H1333 C1317 0.961 . S
H1334 C1318 0.931 . S
H1335 C1323 0.930 . S
H1336 C1324 0.956 . S
H1337 C1324 0.961 . S
H1338 C1324 0.961 . S
H1339 C1325 0.958 . S
H1340 C1325 0.961 . S
H1341 C1325 0.960 . S
C1342 C1343 1.391 . S
C1342 C1344 1.394 . S
C1342 H1358 0.931 . S
C1343 C1342 1.391 . S
C1343 C1347 1.376 . S
C1344 C1342 1.394 . S
C1344 C1345 1.369 . S
C1344 C1348 1.531 . S
C1345 C1344 1.369 . S
C1345 C1346 1.410 . S
C1345 C1353 1.503 . S
C1346 C1345 1.410 . S
C1346 C1347 1.392 . S
C1346 C1349 1.511 . S
C1347 C1343 1.376 . S
C1347 C1346 1.392 . S
C1347 H1359 0.929 . S
C1348 C1344 1.531 . S
C1348 H1360 0.960 . S
C1348 H1361 0.962 . S
C1348 H1362 0.960 . S
C1349 C1346 1.511 . S
C1349 H1363 0.961 . S
C1349 H1364 0.961 . S
C1349 H1365 0.961 . S
C1350 C1351 1.370 . S
C1350 C1352 1.363 . S
C1350 H1366 0.931 . S
C1351 C1350 1.370 . S
C1351 C1355 1.408 . S
C1352 C1350 1.363 . S
C1352 C1353 1.370 . S
C1352 C1356 1.524 . S
C1353 C1345 1.503 . S
C1353 C1352 1.370 . S
C1353 C1354 1.403 . S
C1354 C1353 1.403 . S
C1354 C1355 1.404 . S
C1354 C1357 1.539 . S
C1355 C1351 1.408 . S
C1355 C1354 1.404 . S
C1355 H1367 0.930 . S
C1356 C1352 1.524 . S
C1356 H1368 0.956 . S
C1356 H1369 0.961 . S
C1356 H1370 0.961 . S
C1357 C1354 1.539 . S
C1357 H1371 0.958 . S
C1357 H1372 0.961 . S
C1357 H1373 0.960 . S
H1358 C1342 0.931 . S
H1359 C1347 0.929 . S
H1360 C1348 0.960 . S
H1361 C1348 0.962 . S
H1362 C1348 0.960 . S
H1363 C1349 0.961 . S
H1364 C1349 0.961 . S
H1365 C1349 0.961 . S
H1366 C1350 0.931 . S
H1367 C1355 0.930 . S
H1368 C1356 0.956 . S
H1369 C1356 0.961 . S
H1370 C1356 0.961 . S
H1371 C1357 0.958 . S
H1372 C1357 0.961 . S
H1373 C1357 0.960 . S
C1374 C1375 1.391 . S
C1374 C1376 1.394 . S
C1374 H1390 0.931 . S
C1375 C1374 1.391 . S
C1375 C1379 1.376 . S
C1376 C1374 1.394 . S
C1376 C1377 1.369 . S
C1376 C1380 1.531 . S
C1377 C1376 1.369 . S
C1377 C1378 1.410 . S
C1377 C1385 1.503 . S
C1378 C1377 1.410 . S
C1378 C1379 1.392 . S
C1378 C1381 1.511 . S
C1379 C1375 1.376 . S
C1379 C1378 1.392 . S
C1379 H1391 0.929 . S
C1380 C1376 1.531 . S
C1380 H1392 0.960 . S
C1380 H1393 0.962 . S
C1380 H1394 0.960 . S
C1381 C1378 1.511 . S
C1381 H1395 0.961 . S
C1381 H1396 0.961 . S
C1381 H1397 0.961 . S
C1382 C1383 1.370 . S
C1382 C1384 1.363 . S
C1382 H1398 0.931 . S
C1383 C1382 1.370 . S
C1383 C1387 1.408 . S
C1384 C1382 1.363 . S
C1384 C1385 1.370 . S
C1384 C1388 1.524 . S
C1385 C1377 1.503 . S
C1385 C1384 1.370 . S
C1385 C1386 1.403 . S
C1386 C1385 1.403 . S
C1386 C1387 1.404 . S
C1386 C1389 1.539 . S
C1387 C1383 1.408 . S
C1387 C1386 1.404 . S
C1387 H1399 0.930 . S
C1388 C1384 1.524 . S
C1388 H1400 0.956 . S
C1388 H1401 0.961 . S
C1388 H1402 0.961 . S
C1389 C1386 1.539 . S
C1389 H1403 0.958 . S
C1389 H1404 0.961 . S
C1389 H1405 0.960 . S
H1390 C1374 0.931 . S
H1391 C1379 0.929 . S
H1392 C1380 0.960 . S
H1393 C1380 0.962 . S
H1394 C1380 0.960 . S
H1395 C1381 0.961 . S
H1396 C1381 0.961 . S
H1397 C1381 0.961 . S
H1398 C1382 0.931 . S
H1399 C1387 0.930 . S
H1400 C1388 0.956 . S
H1401 C1388 0.961 . S
H1402 C1388 0.961 . S
H1403 C1389 0.958 . S
H1404 C1389 0.961 . S
H1405 C1389 0.960 . S
C1406 C1407 1.391 . S
C1406 C1408 1.394 . S
C1406 H1422 0.931 . S
C1407 C1406 1.391 . S
C1407 C1411 1.376 . S
C1408 C1406 1.394 . S
C1408 C1409 1.369 . S
C1408 C1412 1.531 . S
C1409 C1408 1.369 . S
C1409 C1410 1.410 . S
C1409 C1417 1.520 1_545 S
C1410 C1409 1.410 . S
C1410 C1411 1.392 . S
C1410 C1413 1.511 1_545 S
C1411 C1407 1.376 . S
C1411 C1410 1.392 . S
C1411 H1423 0.929 . S
C1412 C1408 1.531 . S
C1412 H1424 0.960 1_545 S
C1412 H1425 0.962 . S
C1412 H1426 0.960 . S
C1413 C1410 1.511 1_565 S
C1413 H1427 0.961 1_565 S
C1413 H1428 0.956 1_565 S
C1413 H1429 0.961 . S
C1414 C1415 1.370 1_545 S
C1414 C1416 1.363 . S
C1414 H1430 0.931 . S
C1415 C1414 1.370 1_565 S
C1415 C1419 1.408 . S
C1416 C1414 1.363 . S
C1416 C1417 1.330 1_545 S
C1416 C1420 1.524 . S
C1417 C1409 1.520 1_565 S
C1417 C1416 1.330 1_565 S
C1417 C1418 1.428 . S
C1418 C1417 1.428 . S
C1418 C1419 1.404 . S
C1418 C1421 1.539 . S
C1419 C1415 1.408 . S
C1419 C1418 1.404 . S
C1419 H1431 0.930 . S
C1420 C1416 1.524 . S
C1420 H1432 0.956 . S
C1420 H1433 0.961 . S
C1420 H1434 0.961 . S
C1421 C1418 1.539 . S
C1421 H1435 0.958 . S
C1421 H1436 0.961 . S
C1421 H1437 0.960 . S
H1422 C1406 0.931 . S
H1423 C1411 0.929 . S
H1424 C1412 0.960 1_565 S
H1425 C1412 0.962 . S
H1426 C1412 0.960 . S
H1427 C1413 0.961 1_545 S
H1428 C1413 0.956 1_545 S
H1429 C1413 0.961 . S
H1430 C1414 0.931 . S
H1431 C1419 0.930 . S
H1432 C1420 0.956 . S
H1433 C1420 0.961 . S
H1434 C1420 0.961 . S
H1435 C1421 0.958 . S
H1436 C1421 0.961 . S
H1437 C1421 0.960 . S
C1438 C1439 1.391 . S
C1438 C1440 1.394 . S
C1438 H1454 0.931 . S
C1439 C1438 1.391 . S
C1439 C1443 1.376 1_455 S
C1440 C1438 1.394 . S
C1440 C1441 1.369 . S
C1440 C1444 1.531 . S
C1441 C1440 1.369 . S
C1441 C1442 1.410 1_455 S
C1441 C1449 1.503 . S
C1442 C1441 1.410 1_655 S
C1442 C1443 1.392 . S
C1442 C1445 1.511 . S
C1443 C1439 1.376 1_655 S
C1443 C1442 1.392 . S
C1443 H1455 0.929 . S
C1444 C1440 1.531 . S
C1444 H1456 0.960 . S
C1444 H1457 0.962 . S
C1444 H1458 0.960 . S
C1445 C1442 1.511 . S
C1445 H1459 0.961 . S
C1445 H1460 0.961 . S
C1445 H1461 0.961 . S
C1446 C1447 1.370 . S
C1446 C1448 1.387 . S
C1446 H1462 0.931 . S
C1447 C1446 1.370 . S
C1447 C1451 1.408 1_655 S
C1448 C1446 1.387 . S
C1448 C1449 1.363 1_655 S
C1448 C1452 1.510 . S
C1449 C1441 1.503 . S
C1449 C1448 1.363 1_455 S
C1449 C1450 1.403 . S
C1450 C1449 1.403 . S
C1450 C1451 1.404 . S
C1450 C1453 1.539 . S
C1451 C1447 1.408 1_455 S
C1451 C1450 1.404 . S
C1451 H1463 0.930 . S
C1452 C1448 1.510 . S
C1452 H1464 0.956 1_655 S
C1452 H1465 0.961 . S
C1452 H1466 0.961 . S
C1453 C1450 1.539 . S
C1453 H1467 0.958 . S
C1453 H1468 0.961 . S
C1453 H1469 0.960 . S
H1454 C1438 0.931 . S
H1455 C1443 0.929 . S
H1456 C1444 0.960 . S
H1457 C1444 0.962 . S
H1458 C1444 0.960 . S
H1459 C1445 0.961 . S
H1460 C1445 0.961 . S
H1461 C1445 0.961 . S
H1462 C1446 0.931 . S
H1463 C1451 0.930 . S
H1464 C1452 0.956 1_455 S
H1465 C1452 0.961 . S
H1466 C1452 0.961 . S
H1467 C1453 0.958 . S
H1468 C1453 0.961 . S
H1469 C1453 0.960 . S
C1470 C1471 1.391 . S
C1470 C1472 1.394 . S
C1470 H1486 0.931 . S
C1471 C1470 1.391 . S
C1471 C1475 1.376 . S
C1472 C1470 1.394 . S
C1472 C1473 1.372 . S
C1472 C1476 1.531 1_556 S
C1473 C1472 1.372 . S
C1473 C1474 1.422 . S
C1473 C1481 1.492 1_556 S
C1474 C1473 1.422 . S
C1474 C1475 1.392 . S
C1474 C1477 1.511 . S
C1475 C1471 1.376 . S
C1475 C1474 1.392 . S
C1475 H1487 0.929 . S
C1476 C1472 1.531 1_554 S
C1476 H1488 0.960 . S
C1476 H1489 0.962 1_554 S
C1476 H1490 0.960 . S
C1477 C1474 1.511 . S
C1477 H1491 0.961 . S
C1477 H1492 0.961 . S
C1477 H1493 0.961 1_556 S
C1478 C1479 1.370 . S
C1478 C1480 1.363 1_554 S
C1478 H1494 0.931 1_554 S
C1479 C1478 1.370 . S
C1479 C1483 1.408 . S
C1480 C1478 1.363 1_556 S
C1480 C1481 1.370 1_556 S
C1480 C1484 1.524 . S
C1481 C1473 1.492 1_554 S
C1481 C1480 1.370 1_554 S
C1481 C1482 1.403 . S
C1482 C1481 1.403 . S
C1482 C1483 1.404 . S
C1482 C1485 1.539 . S
C1483 C1479 1.408 . S
C1483 C1482 1.404 . S
C1483 H1495 0.930 . S
C1484 C1480 1.524 . S
C1484 H1496 0.956 . S
C1484 H1497 0.961 . S
C1484 H1498 0.961 . S
C1485 C1482 1.539 . S
C1485 H1499 0.958 . S
C1485 H1500 0.961 . S
C1485 H1501 0.960 . S
H1486 C1470 0.931 . S
H1487 C1475 0.929 . S
H1488 C1476 0.960 . S
H1489 C1476 0.962 1_556 S
H1490 C1476 0.960 . S
H1491 C1477 0.961 . S
H1492 C1477 0.961 . S
H1493 C1477 0.961 1_554 S
H1494 C1478 0.931 1_556 S
H1495 C1483 0.930 . S
H1496 C1484 0.956 . S
H1497 C1484 0.961 . S
H1498 C1484 0.961 . S
H1499 C1485 0.958 . S
H1500 C1485 0.961 . S
H1501 C1485 0.960 . S
C1502 C1503 1.391 . S
C1502 C1504 1.394 . S
C1502 H1518 0.931 . S
C1503 C1502 1.391 . S
C1503 C1507 1.376 1_565 S
C1504 C1502 1.394 . S
C1504 C1505 1.414 . S
C1504 C1508 1.531 . S
C1505 C1504 1.414 . S
C1505 C1506 1.398 1_566 S
C1505 C1513 1.469 1_566 S
C1506 C1505 1.398 1_544 S
C1506 C1507 1.392 1_554 S
C1506 C1509 1.511 . S
C1507 C1503 1.376 1_545 S
C1507 C1506 1.392 1_556 S
C1507 H1519 0.929 . S
C1508 C1504 1.531 . S
C1508 H1520 0.960 . S
C1508 H1521 0.962 . S
C1508 H1522 0.960 . S
C1509 C1506 1.511 . S
C1509 H1523 0.961 . S
C1509 H1524 0.961 . S
C1509 H1525 0.961 . S
C1510 C1511 1.370 . S
C1510 C1512 1.363 1_554 S
C1510 H1526 0.931 1_554 S
C1511 C1510 1.370 . S
C1511 C1515 1.408 1_545 S
C1512 C1510 1.363 1_556 S
C1512 C1513 1.370 1_556 S
C1512 C1516 1.524 . S
C1513 C1505 1.469 1_544 S
C1513 C1512 1.370 1_554 S
C1513 C1514 1.403 1_545 S
C1514 C1513 1.403 1_565 S
C1514 C1515 1.404 . S
C1514 C1517 1.539 . S
C1515 C1511 1.408 1_565 S
C1515 C1514 1.404 . S
C1515 H1527 0.930 . S
C1516 C1512 1.524 . S
C1516 H1528 0.956 . S
C1516 H1529 0.961 . S
C1516 H1530 0.961 . S
C1517 C1514 1.539 . S
C1517 H1531 0.958 . S
C1517 H1532 0.961 . S
C1517 H1533 0.960 . S
H1518 C1502 0.931 . S
H1519 C1507 0.929 . S
H1520 C1508 0.960 . S
H1521 C1508 0.962 . S
H1522 C1508 0.960 . S
H1523 C1509 0.961 . S
H1524 C1509 0.961 . S
H1525 C1509 0.961 . S
H1526 C1510 0.931 1_556 S
H1527 C1515 0.930 . S
H1528 C1516 0.956 . S
H1529 C1516 0.961 . S
H1530 C1516 0.961 . S
H1531 C1517 0.958 . S
H1532 C1517 0.961 . S
H1533 C1517 0.960 . S
C1534 C1535 1.391 . S
C1534 C1536 1.394 . S
C1534 H1550 0.931 . S
C1535 C1534 1.391 . S
C1535 C1539 1.376 1_455 S
C1536 C1534 1.394 . S
C1536 C1537 1.371 . S
C1536 C1540 1.531 . S
C1537 C1536 1.371 . S
C1537 C1538 1.410 1_456 S
C1537 C1545 1.502 1_556 S
C1538 C1537 1.410 1_654 S
C1538 C1539 1.394 1_554 S
C1538 C1541 1.510 . S
C1539 C1535 1.376 1_655 S
C1539 C1538 1.394 1_556 S
C1539 H1551 0.929 . S
C1540 C1536 1.531 . S
C1540 H1552 0.960 1_556 S
C1540 H1553 0.962 . S
C1540 H1554 0.960 . S
C1541 C1538 1.510 . S
C1541 H1555 0.961 . S
C1541 H1556 0.961 . S
C1541 H1557 0.961 . S
C1542 C1543 1.370 . S
C1542 C1544 1.363 1_554 S
C1542 H1558 0.931 1_554 S
C1543 C1542 1.370 . S
C1543 C1547 1.408 1_655 S
C1544 C1542 1.363 1_556 S
C1544 C1545 1.370 1_656 S
C1544 C1548 1.524 . S
C1545 C1537 1.502 1_554 S
C1545 C1544 1.370 1_454 S
C1545 C1546 1.403 . S
C1546 C1545 1.403 . S
C1546 C1547 1.404 . S
C1546 C1549 1.539 . S
C1547 C1543 1.408 1_455 S
C1547 C1546 1.404 . S
C1547 H1559 0.930 . S
C1548 C1544 1.524 . S
C1548 H1560 0.956 1_655 S
C1548 H1561 0.961 . S
C1548 H1562 0.961 . S
C1549 C1546 1.539 . S
C1549 H1563 0.958 . S
C1549 H1564 0.961 . S
C1549 H1565 0.960 . S
H1550 C1534 0.931 . S
H1551 C1539 0.929 . S
H1552 C1540 0.960 1_554 S
H1553 C1540 0.962 . S
H1554 C1540 0.960 . S
H1555 C1541 0.961 . S
H1556 C1541 0.961 . S
H1557 C1541 0.961 . S
H1558 C1542 0.931 1_556 S
H1559 C1547 0.930 . S
H1560 C1548 0.956 1_455 S
H1561 C1548 0.961 . S
H1562 C1548 0.961 . S
H1563 C1549 0.958 . S
H1564 C1549 0.961 . S
H1565 C1549 0.960 . S
C415 C7 1.724 . S
C423 C338 1.693 1_554 S
C447 C292 1.675 1_554 S
C455 C39 1.645 . S
C479 C53 1.744 . S
C487 C306 1.763 1_554 S
C511 C154 1.638 . S
C519 C62 1.649 . S
C543 C177 1.673 . S
C551 C16 1.645 . S
C575 C200 1.668 . S
C583 C30 1.723 . S
C607 C76 1.688 . S
C615 C269 1.686 1_556 S
C639 C223 1.669 1_556 S
C647 C108 1.641 . S
C671 C246 1.654 1_556 S
C679 C122 1.719 . S
C703 C131 1.709 . S
C711 C352 1.718 . S
C735 C85 1.647 . S
C743 C384 1.656 . S
C767 C398 1.740 . S
C775 C99 1.769 . S
C799 C283 1.737 . S
C807 C191 1.766 . S
C831 C145 1.709 . S
C839 C315 1.704 . S
C863 C329 1.745 . S
C871 C168 1.770 . S
C895 C407 1.677 . S
C903 C214 1.740 . S
C927 C237 1.720 . S
C935 C361 1.706 . S
C959 C375 1.742 . S
C967 C260 1.772 . S
C991 N347 1.577 . S
C999 N2 1.547 . S
C1023 N35 1.605 . S
C1031 N380 1.606 . S
C1055 N48 1.584 . S
C1063 N393 1.536 . S
C1087 N58 1.569 . S
C1095 N265 1.607 . S
C1119 N219 1.599 . S
C1127 N12 1.597 . S
C1151 N25 1.519 . S
C1159 N242 1.620 . S
C1183 N150 1.586 . S
C1191 N71 1.546 . S
C1215 N173 1.568 . S
C1223 N104 1.606 . S
C1247 N117 1.547 . S
C1255 N196 1.608 . S
C1279 N127 1.561 . S
C1287 N334 1.598 . S
C1311 N81 1.565 . S
C1319 N288 1.604 . S
C1343 N94 1.572 . S
C1351 N301 1.525 . S
C1375 N186 1.571 . S
C1383 N403 1.596 . S
C1407 N140 1.568 . S
C1415 N357 1.604 . S
C1439 N370 1.516 . S
C1447 N163 1.558 . S
C1471 N278 1.571 . S
C1479 N209 1.533 . S
C1503 N311 1.612 . S
C1511 N232 1.532 . S
C1535 N324 1.553 . S
C1543 N255 1.537 . S
