# Generated by pormake.
# Topology vbm, (6)-cn, num edge types: 1
# Building blocks:
#     Node 0, Type 0, BuildingBlock: GEDQOX_clean_sbu_0, # of connection points: 6
#     Node 1, Type 0, BuildingBlock: GEDQOX_clean_sbu_0, # of connection points: 6
#     Node 2, Type 0, BuildingBlock: GEDQOX_clean_sbu_0, # of connection points: 6
#     Node 3, Type 0, BuildingBlock: GEDQOX_clean_sbu_0, # of connection points: 6
#     Node 4, Type 0, BuildingBlock: GEDQOX_clean_sbu_0, # of connection points: 6
#     Node 5, Type 0, BuildingBlock: GEDQOX_clean_sbu_0, # of connection points: 6
#     Node 6, Type 0, BuildingBlock: GEDQOX_clean_sbu_0, # of connection points: 6
#     Node 7, Type 0, BuildingBlock: GEDQOX_clean_sbu_0, # of connection points: 6
#     Node 8, Type 0, BuildingBlock: GEDQOX_clean_sbu_0, # of connection points: 6
#     Node 9, Type 0, BuildingBlock: GEDQOX_clean_sbu_0, # of connection points: 6
#     Node 10, Type 0, BuildingBlock: GEDQOX_clean_sbu_0, # of connection points: 6
#     Node 11, Type 0, BuildingBlock: GEDQOX_clean_sbu_0, # of connection points: 6
#     Node 12, Type 0, BuildingBlock: GEDQOX_clean_sbu_0, # of connection points: 6
#     Node 13, Type 0, BuildingBlock: GEDQOX_clean_sbu_0, # of connection points: 6
#     Node 14, Type 0, BuildingBlock: GEDQOX_clean_sbu_0, # of connection points: 6
#     Node 15, Type 0, BuildingBlock: GEDQOX_clean_sbu_0, # of connection points: 6
#     Edge 16, Type (0, 0), BuildingBlock: MIFKUJ_clean_linker_0, # of connection points: 2
#     Edge 17, Type (0, 0), BuildingBlock: MIFKUJ_clean_linker_0, # of connection points: 2
#     Edge 18, Type (0, 0), BuildingBlock: MIFKUJ_clean_linker_0, # of connection points: 2
#     Edge 19, Type (0, 0), BuildingBlock: MIFKUJ_clean_linker_0, # of connection points: 2
#     Edge 20, Type (0, 0), BuildingBlock: MIFKUJ_clean_linker_0, # of connection points: 2
#     Edge 21, Type (0, 0), BuildingBlock: MIFKUJ_clean_linker_0, # of connection points: 2
#     Edge 22, Type (0, 0), BuildingBlock: MIFKUJ_clean_linker_0, # of connection points: 2
#     Edge 23, Type (0, 0), BuildingBlock: MIFKUJ_clean_linker_0, # of connection points: 2
#     Edge 24, Type (0, 0), BuildingBlock: MIFKUJ_clean_linker_0, # of connection points: 2
#     Edge 25, Type (0, 0), BuildingBlock: MIFKUJ_clean_linker_0, # of connection points: 2
#     Edge 26, Type (0, 0), BuildingBlock: MIFKUJ_clean_linker_0, # of connection points: 2
#     Edge 27, Type (0, 0), BuildingBlock: MIFKUJ_clean_linker_0, # of connection points: 2
#     Edge 28, Type (0, 0), BuildingBlock: MIFKUJ_clean_linker_0, # of connection points: 2
#     Edge 29, Type (0, 0), BuildingBlock: MIFKUJ_clean_linker_0, # of connection points: 2
#     Edge 30, Type (0, 0), BuildingBlock: MIFKUJ_clean_linker_0, # of connection points: 2
#     Edge 31, Type (0, 0), BuildingBlock: MIFKUJ_clean_linker_0, # of connection points: 2
#     Edge 32, Type (0, 0), BuildingBlock: MIFKUJ_clean_linker_0, # of connection points: 2
#     Edge 33, Type (0, 0), BuildingBlock: MIFKUJ_clean_linker_0, # of connection points: 2
#     Edge 34, Type (0, 0), BuildingBlock: MIFKUJ_clean_linker_0, # of connection points: 2
#     Edge 35, Type (0, 0), BuildingBlock: MIFKUJ_clean_linker_0, # of connection points: 2
#     Edge 36, Type (0, 0), BuildingBlock: MIFKUJ_clean_linker_0, # of connection points: 2
#     Edge 37, Type (0, 0), BuildingBlock: MIFKUJ_clean_linker_0, # of connection points: 2
#     Edge 38, Type (0, 0), BuildingBlock: MIFKUJ_clean_linker_0, # of connection points: 2
#     Edge 39, Type (0, 0), BuildingBlock: MIFKUJ_clean_linker_0, # of connection points: 2
#     Edge 40, Type (0, 0), BuildingBlock: MIFKUJ_clean_linker_0, # of connection points: 2
#     Edge 41, Type (0, 0), BuildingBlock: MIFKUJ_clean_linker_0, # of connection points: 2
#     Edge 42, Type (0, 0), BuildingBlock: MIFKUJ_clean_linker_0, # of connection points: 2
#     Edge 43, Type (0, 0), BuildingBlock: MIFKUJ_clean_linker_0, # of connection points: 2
#     Edge 44, Type (0, 0), BuildingBlock: MIFKUJ_clean_linker_0, # of connection points: 2
#     Edge 45, Type (0, 0), BuildingBlock: MIFKUJ_clean_linker_0, # of connection points: 2
#     Edge 46, Type (0, 0), BuildingBlock: MIFKUJ_clean_linker_0, # of connection points: 2
#     Edge 47, Type (0, 0), BuildingBlock: MIFKUJ_clean_linker_0, # of connection points: 2
#     Edge 48, Type (0, 0), BuildingBlock: MIFKUJ_clean_linker_0, # of connection points: 2
#     Edge 49, Type (0, 0), BuildingBlock: MIFKUJ_clean_linker_0, # of connection points: 2
#     Edge 50, Type (0, 0), BuildingBlock: MIFKUJ_clean_linker_0, # of connection points: 2
#     Edge 51, Type (0, 0), BuildingBlock: MIFKUJ_clean_linker_0, # of connection points: 2
#     Edge 52, Type (0, 0), BuildingBlock: MIFKUJ_clean_linker_0, # of connection points: 2
#     Edge 53, Type (0, 0), BuildingBlock: MIFKUJ_clean_linker_0, # of connection points: 2
#     Edge 54, Type (0, 0), BuildingBlock: MIFKUJ_clean_linker_0, # of connection points: 2
#     Edge 55, Type (0, 0), BuildingBlock: MIFKUJ_clean_linker_0, # of connection points: 2
#     Edge 56, Type (0, 0), BuildingBlock: MIFKUJ_clean_linker_0, # of connection points: 2
#     Edge 57, Type (0, 0), BuildingBlock: MIFKUJ_clean_linker_0, # of connection points: 2
#     Edge 58, Type (0, 0), BuildingBlock: MIFKUJ_clean_linker_0, # of connection points: 2
#     Edge 59, Type (0, 0), BuildingBlock: MIFKUJ_clean_linker_0, # of connection points: 2
#     Edge 60, Type (0, 0), BuildingBlock: MIFKUJ_clean_linker_0, # of connection points: 2
#     Edge 61, Type (0, 0), BuildingBlock: MIFKUJ_clean_linker_0, # of connection points: 2
#     Edge 62, Type (0, 0), BuildingBlock: MIFKUJ_clean_linker_0, # of connection points: 2
#     Edge 63, Type (0, 0), BuildingBlock: MIFKUJ_clean_linker_0, # of connection points: 2
# Relax obj value: 0.182
# Max RMSD: 0.201
# Mean RMSD: 0.201
data_MOF--net-vbm--node1-GEDQOX_clean_sbu_0--edge1-MIFKUJ_clean_linker_0
_symmetry_space_group_name_H-M    P1
_symmetry_Int_Tables_number       1
_symmetry_cell_setting            triclinic
loop_
_symmetry_equiv_pos_as_xyz
'x, y, z'
_cell_length_a     123.14989
_cell_length_b     20.541539
_cell_length_c     76.817337
_cell_angle_alpha  89.842175
_cell_angle_beta   90.04336
_cell_angle_gamma 89.86682
loop_
_atom_site_label
_atom_site_type_symbol
_atom_site_fract_x
_atom_site_fract_y
_atom_site_fract_z
_atom_type_partial_charge
Nd0 Nd 0.1196 0.09805 0.12968 0.0
Nd1 Nd 0.14646 0.09905 0.12445 0.0
C2 C 0.09972 0.09734 0.14326 0.0
C3 C 0.08807 0.07995 0.1409 0.0
C4 C 0.08219 0.05576 0.15518 0.0
C5 C 0.07095 0.04547 0.15406 0.0
C6 C 0.0652 0.0591 0.13858 0.0
C7 C 0.07118 0.08198 0.12413 0.0
C8 C 0.08245 0.09235 0.12528 0.0
C9 C 0.12536 0.09593 0.09454 0.0
C10 C 0.13287 0.95728 0.12523 0.0
C11 C 0.16649 0.10437 0.11147 0.0
C12 C 0.17772 0.13053 0.11423 0.0
C13 C 0.1806 0.19375 0.1088 0.0
C14 C 0.19142 0.21539 0.10982 0.0
C15 C 0.19973 0.17435 0.11618 0.0
C16 C 0.19679 0.1115 0.12186 0.0
C17 C 0.18598 0.08993 0.12085 0.0
C18 C 0.14062 0.09923 0.1596 0.0
C19 C 0.13319 0.23985 0.12874 0.0
O20 O 0.10681 0.05068 0.14601 0.0
O21 O 0.10363 0.14527 0.13389 0.0
O22 O 0.11539 0.09631 0.10014 0.0
O23 O 0.13156 0.09592 0.10765 0.0
O24 O 0.12381 0.98778 0.13008 0.0
O25 O 0.14192 0.98927 0.12092 0.0
O26 O 0.15871 0.14489 0.10701 0.0
O27 O 0.16309 0.05763 0.12177 0.0
O28 O 0.15059 0.10165 0.15408 0.0
O29 O 0.13448 0.09948 0.14645 0.0
O30 O 0.14228 0.20936 0.12409 0.0
O31 O 0.12417 0.20775 0.13301 0.0
H32 H 0.08627 0.04648 0.16744 0.0
H33 H 0.06671 1.02877 0.16557 0.0
H34 H 0.06714 0.09215 0.11189 0.0
H35 H 0.08674 0.11112 0.11404 0.0
H36 H 0.17453 0.22624 0.10337 0.0
H37 H 0.1933 0.26375 0.10509 0.0
H38 H 0.20285 0.07857 0.12709 0.0
H39 H 0.18414 0.04072 0.12498 0.0
Nd40 Nd 0.89085 0.96627 0.12728 0.0
Nd41 Nd 0.86535 0.96725 0.12413 0.0
C42 C 0.91206 0.98091 0.13181 0.0
C43 C 0.92405 0.99023 0.13353 0.0
C44 C 0.92965 0.97296 0.14885 0.0
C45 C 0.94101 0.97945 0.14995 0.0
C46 C 0.94712 1.00317 0.13575 0.0
C47 C 0.94145 1.02057 0.12048 0.0
C48 C 0.93012 1.01433 0.11941 0.0
C49 C 0.88251 0.94676 0.09419 0.0
C50 C 0.87779 0.10857 0.12677 0.0
C51 C 0.84522 0.95961 0.1116 0.0
C52 C 0.8342 0.9303 0.11371 0.0
C53 C 0.82936 0.89859 0.0995 0.0
C54 C 0.81861 0.8761 0.10039 0.0
C55 C 0.81232 0.88472 0.11554 0.0
C56 C 0.81728 0.91514 0.12994 0.0
C57 C 0.82805 0.93779 0.12903 0.0
C58 C 0.87076 0.96755 0.15931 0.0
C59 C 0.87857 0.82518 0.12846 0.0
O60 O 0.90597 0.95106 0.14335 0.0
O61 O 0.90673 1.00402 0.11839 0.0
O62 O 0.89065 0.91484 0.10071 0.0
O63 O 0.87899 0.98758 0.10514 0.0
O64 O 0.88658 0.07574 0.13175 0.0
O65 O 0.869 0.07769 0.12115 0.0
O66 O 0.85319 0.92206 0.10634 0.0
O67 O 0.84839 1.00385 0.12276 0.0
O68 O 0.86091 0.96632 0.15333 0.0
O69 O 0.87731 0.96662 0.14667 0.0
O70 O 0.86971 0.85654 0.1231 0.0
O71 O 0.88747 0.85733 0.13303 0.0
H72 H 0.92525 0.95419 0.15998 0.0
H73 H 0.94499 0.96625 0.16203 0.0
H74 H 0.94577 0.03782 0.10911 0.0
H75 H 0.92614 1.02754 0.10733 0.0
H76 H 0.83385 0.89229 0.08749 0.0
H77 H 0.81522 0.85202 0.08911 0.0
H78 H 0.81273 0.92332 0.1418 0.0
H79 H 0.83148 0.96232 0.14021 0.0
Nd80 Nd 0.11994 0.96154 0.3716 0.0
Nd81 Nd 0.14673 0.95975 0.37816 0.0
C82 C 0.10022 0.96058 0.35736 0.0
C83 C 0.08848 0.97652 0.35934 0.0
C84 C 0.08194 0.97992 0.34439 0.0
C85 C 0.07066 0.98871 0.3457 0.0
C86 C 0.06556 0.99455 0.36204 0.0
C87 C 0.07219 0.99287 0.37704 0.0
C88 C 0.08352 0.98362 0.37572 0.0
C89 C 0.12509 0.968 0.40701 0.0
C90 C 0.13332 0.10166 0.37578 0.0
C91 C 0.16651 0.95341 0.39214 0.0
C92 C 0.17767 0.92604 0.39014 0.0
C93 C 0.18363 0.90946 0.40511 0.0
C94 C 0.19445 0.88806 0.4039 0.0
C95 C 0.19966 0.8825 0.38763 0.0
C96 C 0.19357 0.89778 0.37257 0.0
C97 C 0.18273 0.91945 0.37381 0.0
C98 C 0.14139 0.96173 0.34276 0.0
C99 C 0.13357 0.81925 0.37315 0.0
O100 O 0.10716 1.00813 0.35501 0.0
O101 O 0.10415 0.91309 0.3669 0.0
O102 O 0.11524 0.96872 0.40086 0.0
O103 O 0.13152 0.96452 0.39425 0.0
O104 O 0.12451 0.07121 0.3699 0.0
O105 O 0.14204 0.06938 0.38157 0.0
O106 O 0.15863 0.91356 0.39638 0.0
O107 O 0.1634 0.99905 0.38124 0.0
O108 O 0.15129 0.96132 0.3487 0.0
O109 O 0.13513 0.95843 0.3557 0.0
O110 O 0.14258 0.84952 0.37816 0.0
O111 O 0.1246 0.85164 0.36858 0.0
H112 H 0.08554 0.97444 0.33161 0.0
H113 H 0.06592 0.99083 0.33383 0.0
H114 H 0.0686 0.99675 0.38986 0.0
H115 H 0.08835 0.98078 0.38748 0.0
H116 H 0.17996 0.91401 0.41786 0.0
H117 H 0.19872 0.87575 0.41579 0.0
H118 H 0.19727 0.89467 0.35982 0.0
H119 H 0.17836 0.932 0.36202 0.0
Nd120 Nd 0.89308 0.09501 0.37152 0.0
Nd121 Nd 0.86627 0.09697 0.37803 0.0
C122 C 0.91289 0.09534 0.35761 0.0
C123 C 0.9246 0.079 0.36005 0.0
C124 C 0.93082 0.06102 0.34551 0.0
C125 C 0.94207 0.05121 0.34691 0.0
C126 C 0.9475 0.05898 0.36295 0.0
C127 C 0.94118 0.07592 0.37761 0.0
C128 C 0.92989 0.08588 0.37617 0.0
C129 C 0.88784 0.08935 0.40685 0.0
C130 C 0.87968 0.95478 0.37562 0.0
C131 C 0.84644 0.10193 0.39176 0.0
C132 C 0.83522 0.12875 0.38958 0.0
C133 C 0.82994 0.15669 0.40396 0.0
C134 C 0.8191 0.17775 0.40282 0.0
C135 C 0.81315 0.17148 0.38722 0.0
C136 C 0.81853 0.14427 0.37271 0.0
C137 C 0.8294 0.12319 0.37388 0.0
C138 C 0.87159 0.10014 0.34266 0.0
C139 C 0.87955 0.23726 0.37369 0.0
O140 O 0.90593 0.04788 0.35525 0.0
O141 O 0.90887 0.14347 0.36674 0.0
O142 O 0.89772 0.08904 0.40087 0.0
O143 O 0.88149 0.09164 0.394 0.0
O144 O 0.8885 0.98537 0.36979 0.0
O145 O 0.87094 0.98705 0.3813 0.0
O146 O 0.85424 0.14213 0.39611 0.0
O147 O 0.84968 0.05632 0.38102 0.0
O148 O 0.86171 0.10157 0.34859 0.0
O149 O 0.8779 0.09939 0.35557 0.0
O150 O 0.87064 0.20675 0.37909 0.0
O151 O 0.88838 0.20501 0.36845 0.0
H152 H 0.92699 0.05609 0.33288 0.0
H153 H 0.94656 0.03934 0.33522 0.0
H154 H 0.94495 0.0815 0.39025 0.0
H155 H 0.92533 0.09985 0.38763 0.0
H156 H 0.83416 0.16103 0.41629 0.0
H157 H 0.8153 0.19737 0.41438 0.0
H158 H 0.81434 0.13932 0.36039 0.0
H159 H 0.8332 0.10189 0.36252 0.0
Nd160 Nd 0.86731 0.96784 0.87563 0.0
Nd161 Nd 0.89141 0.96174 0.87251 0.0
C162 C 0.84621 0.95797 0.8835 0.0
C163 C 0.83536 0.92623 0.88104 0.0
C164 C 0.83223 0.87135 0.89085 0.0
C165 C 0.82149 0.84785 0.89023 0.0
C166 C 0.81351 0.87897 0.87993 0.0
C167 C 0.81675 0.93283 0.86981 0.0
C168 C 0.82747 0.95609 0.87038 0.0
C169 C 0.87459 0.9853 0.84181 0.0
C170 C 0.87896 0.82293 0.87077 0.0
C171 C 0.91253 0.96902 0.86451 0.0
C172 C 0.92402 0.98867 0.8683 0.0
C173 C 0.92861 0.04447 0.86058 0.0
C174 C 0.93984 0.05692 0.86184 0.0
C175 C 0.94684 1.01345 0.87066 0.0
C176 C 0.94216 0.95873 0.87879 0.0
C177 C 0.93096 0.94653 0.87762 0.0
C178 C 0.88414 0.9506 0.90664 0.0
C179 C 0.87962 0.10692 0.87666 0.0
O180 O 0.8539 0.92807 0.89219 0.0
O181 O 0.85004 0.9945 0.871 0.0
O182 O 0.86659 1.01657 0.84881 0.0
O183 O 0.87834 0.94314 0.85232 0.0
O184 O 0.8705 0.8556 0.87687 0.0
O185 O 0.88758 0.85497 0.86514 0.0
O186 O 0.90535 1.01182 0.85923 0.0
O187 O 0.90818 0.92251 0.87375 0.0
O188 O 0.89225 0.91879 0.90016 0.0
O189 O 0.88039 0.98987 0.89545 0.0
O190 O 0.88808 0.07397 0.87052 0.0
O191 O 0.87103 0.07512 0.88255 0.0
H192 H 0.83799 0.84761 0.89944 0.0
H193 H 0.81935 0.80668 0.89835 0.0
H194 H 0.81096 0.95767 0.86149 0.0
H195 H 0.82948 0.99892 0.8628 0.0
H196 H 0.92359 0.07745 0.85302 0.0
H197 H 0.94309 0.09928 0.85527 0.0
H198 H 0.9472 0.92455 0.88591 0.0
H199 H 0.92782 0.9026 0.88357 0.0
Nd200 Nd 0.14641 0.09302 0.87806 0.0
Nd201 Nd 0.12064 0.09145 0.8736 0.0
C202 C 0.1665 0.10313 0.89074 0.0
C203 C 0.17757 0.13204 0.88827 0.0
C204 C 0.18154 0.17768 0.90031 0.0
C205 C 0.19231 0.20016 0.89944 0.0
C206 C 0.19952 0.17751 0.88653 0.0
C207 C 0.19545 0.1328 0.87423 0.0
C208 C 0.18467 0.11028 0.87512 0.0
C209 C 0.14119 0.0899 0.84266 0.0
C210 C 0.13273 0.23387 0.87341 0.0
C211 C 0.10005 0.06701 0.86526 0.0
C212 C 0.08805 0.07632 0.86568 0.0
C213 C 0.08179 0.04896 0.85229 0.0
C214 C 0.07041 0.04915 0.85309 0.0
C215 C 0.0649 0.07722 0.86729 0.0
C216 C 0.07119 0.10669 0.88046 0.0
C217 C 0.08264 0.10574 0.87975 0.0
C218 C 0.12814 0.11193 0.90719 0.0
C219 C 0.13434 0.95081 0.87566 0.0
O220 O 0.15848 0.14151 0.8954 0.0
O221 O 0.16336 0.05652 0.88027 0.0
O222 O 0.15101 0.09256 0.84872 0.0
O223 O 0.13472 0.0913 0.85537 0.0
O224 O 0.14161 0.20297 0.87889 0.0
O225 O 0.12388 0.20143 0.8686 0.0
O226 O 0.10625 0.10568 0.856 0.0
O227 O 0.10489 0.04352 0.87909 0.0
O228 O 0.11951 0.13901 0.9006 0.0
O229 O 0.13226 0.07286 0.89627 0.0
O230 O 0.12566 0.98279 0.86988 0.0
O231 O 0.14293 0.98255 0.88172 0.0
H232 H 0.17636 0.19512 0.9107 0.0
H233 H 0.19498 0.23527 0.909 0.0
H234 H 0.2007 0.1134 0.8642 0.0
H235 H 0.18199 0.07459 0.8657 0.0
H236 H 0.08573 1.02558 0.84135 0.0
H237 H 0.0659 1.02681 0.84259 0.0
H238 H 0.06726 0.1285 0.89163 0.0
H239 H 0.08726 0.12667 0.89034 0.0
Nd240 Nd 0.86601 0.09734 0.6221 0.0
Nd241 Nd 0.89281 0.09588 0.6289 0.0
C242 C 0.84612 0.10452 0.60856 0.0
C243 C 0.83484 0.13007 0.6115 0.0
C244 C 0.83117 0.186 0.60261 0.0
C245 C 0.82032 0.20693 0.60394 0.0
C246 C 0.81273 0.17235 0.61411 0.0
C247 C 0.81646 0.11682 0.62318 0.0
C248 C 0.82732 0.09596 0.62187 0.0
C249 C 0.87126 0.09495 0.65754 0.0
C250 C 0.87922 0.23785 0.62711 0.0
C251 C 0.91254 0.09508 0.64312 0.0
C252 C 0.9243 0.07971 0.64084 0.0
C253 C 0.93051 0.06289 0.65552 0.0
C254 C 0.9418 0.0544 0.65429 0.0
C255 C 0.94725 0.06239 0.6383 0.0
C256 C 0.94094 0.07751 0.62346 0.0
C257 C 0.92961 0.08634 0.62473 0.0
C258 C 0.88771 0.09292 0.59347 0.0
C259 C 0.87952 0.95571 0.62389 0.0
O260 O 0.85386 0.14622 0.60493 0.0
O261 O 0.84954 0.05573 0.61818 0.0
O262 O 0.86139 0.09597 0.65155 0.0
O263 O 0.87756 0.09797 0.64466 0.0
O264 O 0.87036 0.20738 0.6215 0.0
O265 O 0.88804 0.20549 0.6324 0.0
O266 O 0.90564 0.047 0.64493 0.0
O267 O 0.90852 0.14424 0.6343 0.0
O268 O 0.89756 0.09253 0.59958 0.0
O269 O 0.88129 0.09403 0.60624 0.0
O270 O 0.88822 0.98613 0.63021 0.0
O271 O 0.87085 0.98817 0.61796 0.0
H272 H 0.83664 0.21295 0.59426 0.0
H273 H 0.81781 0.24928 0.59653 0.0
H274 H 0.81097 0.08918 0.63134 0.0
H275 H 0.82976 0.05234 0.6288 0.0
H276 H 0.92664 0.05763 0.66811 0.0
H277 H 0.94627 0.04169 0.66596 0.0
H278 H 0.9448 0.08452 0.61094 0.0
H279 H 0.92505 0.09963 0.61319 0.0
Nd280 Nd 0.1464 0.95882 0.62329 0.0
Nd281 Nd 0.11967 0.96039 0.62973 0.0
C282 C 0.16622 0.9528 0.60955 0.0
C283 C 0.17744 0.92637 0.61205 0.0
C284 C 0.18265 0.89492 0.59813 0.0
C285 C 0.19348 0.87397 0.59953 0.0
C286 C 0.19949 0.88393 0.61493 0.0
C287 C 0.19419 0.91468 0.62898 0.0
C288 C 0.18332 0.9356 0.62757 0.0
C289 C 0.14119 0.95974 0.65873 0.0
C290 C 0.13324 0.81805 0.62807 0.0
C291 C 0.09991 0.9596 0.64381 0.0
C292 C 0.0882 0.97641 0.64172 0.0
C293 C 0.08166 0.981 0.65661 0.0
C294 C 0.07042 0.99142 0.65523 0.0
C295 C 0.06534 0.99785 0.63885 0.0
C296 C 0.07199 0.99413 0.62389 0.0
C297 C 0.08327 0.98341 0.6253 0.0
C298 C 0.12482 0.96649 0.59432 0.0
C299 C 0.13296 0.10084 0.62524 0.0
O300 O 0.15844 0.91192 0.60556 0.0
O301 O 0.16293 0.99969 0.61985 0.0
O302 O 0.15105 0.95883 0.65266 0.0
O303 O 0.13482 0.95739 0.64588 0.0
O304 O 0.14222 0.84858 0.62301 0.0
O305 O 0.1243 0.85031 0.63279 0.0
O306 O 0.10692 1.00662 0.64635 0.0
O307 O 0.1038 0.91241 0.6342 0.0
O308 O 0.11497 0.96712 0.60041 0.0
O309 O 0.13124 0.96341 0.60712 0.0
O310 O 0.12413 0.0703 0.63105 0.0
O311 O 0.14172 0.06854 0.61969 0.0
H312 H 0.17838 0.88769 0.58595 0.0
H313 H 0.19723 0.85149 0.5883 0.0
H314 H 0.19842 0.92252 0.64115 0.0
H315 H 0.17958 0.95964 0.63857 0.0
H316 H 0.08522 0.97502 0.66942 0.0
H317 H 0.06569 0.99265 0.66709 0.0
H318 H 0.0685 0.99965 0.61103 0.0
H319 H 0.08811 0.97987 0.61357 0.0
Nd320 Nd 0.61907 0.59967 0.13004 0.0
Nd321 Nd 0.64582 0.60178 0.12355 0.0
C322 C 0.59933 0.59659 0.1442 0.0
C323 C 0.58745 0.59172 0.14083 0.0
C324 C 0.58023 0.6245 0.15191 0.0
C325 C 0.56895 0.61826 0.14988 0.0
C326 C 0.56452 0.579 0.13664 0.0
C327 C 0.57182 0.54663 0.1254 0.0
C328 C 0.58314 0.5529 0.12747 0.0
C329 C 0.62413 0.59678 0.09463 0.0
C330 C 0.63279 0.46014 0.12666 0.0
C331 C 0.66572 0.60805 0.11014 0.0
C332 C 0.6769 0.63497 0.11294 0.0
C333 C 0.68015 0.69308 0.10471 0.0
C334 C 0.69092 0.71527 0.10589 0.0
C335 C 0.69884 0.67992 0.11526 0.0
C336 C 0.69553 0.62224 0.12371 0.0
C337 C 0.68476 0.60003 0.12251 0.0
C338 C 0.64044 0.60141 0.1589 0.0
C339 C 0.63242 0.74226 0.12821 0.0
O340 O 0.60535 0.54474 0.1417 0.0
O341 O 0.60428 0.65064 0.13985 0.0
O342 O 0.61429 0.59706 0.10075 0.0
O343 O 0.6306 0.59829 0.10737 0.0
O344 O 0.62422 0.4912 0.13325 0.0
O345 O 0.64124 0.49218 0.11999 0.0
O346 O 0.65787 0.64846 0.10592 0.0
O347 O 0.66241 0.56067 0.12031 0.0
O348 O 0.65034 0.60439 0.15311 0.0
O349 O 0.6342 0.60131 0.14594 0.0
O350 O 0.64141 0.71183 0.12304 0.0
O351 O 0.62351 0.70992 0.13299 0.0
H352 H 0.58332 0.65429 0.16242 0.0
H353 H 0.56372 0.64315 0.15902 0.0
H354 H 0.56879 0.51663 0.1149 0.0
H355 H 0.5885 0.52703 0.11871 0.0
H356 H 0.6744 0.72104 0.09705 0.0
H357 H 0.69303 0.76031 0.09938 0.0
H358 H 0.70135 0.59293 0.13085 0.0
H359 H 0.68266 0.55453 0.12881 0.0
Nd360 Nd 0.39183 0.45879 0.12955 0.0
Nd361 Nd 0.36618 0.45984 0.1236 0.0
C362 C 0.4123 0.46929 0.14072 0.0
C363 C 0.4239 0.48515 0.13701 0.0
C364 C 0.4295 0.52708 0.14828 0.0
C365 C 0.44073 0.53692 0.14657 0.0
C366 C 0.44674 0.50498 0.1335 0.0
C367 C 0.44104 0.46413 0.12192 0.0
C368 C 0.42978 0.45425 0.12367 0.0
C369 C 0.38528 0.44806 0.09506 0.0
C370 C 0.37886 0.60193 0.12665 0.0
C371 C 0.34624 0.45292 0.11026 0.0
C372 C 0.33513 0.42499 0.11284 0.0
C373 C 0.33104 0.379 0.101 0.0
C374 C 0.32026 0.35686 0.10214 0.0
C375 C 0.31318 0.38038 0.11512 0.0
C376 C 0.31735 0.4257 0.12714 0.0
C377 C 0.32814 0.4477 0.12602 0.0
C378 C 0.3708 0.4544 0.15926 0.0
C379 C 0.37898 0.3194 0.12936 0.0
O380 O 0.40519 0.51651 0.14183 0.0
O381 O 0.40818 0.41621 0.13413 0.0
O382 O 0.39412 0.42305 0.10139 0.0
O383 O 0.38075 0.48294 0.10649 0.0
O384 O 0.38774 0.56964 0.13153 0.0
O385 O 0.37 0.57076 0.12128 0.0
O386 O 0.35416 0.41358 0.10574 0.0
O387 O 0.34947 0.49923 0.12077 0.0
O388 O 0.36106 0.45509 0.15281 0.0
O389 O 0.37738 0.45481 0.14675 0.0
O390 O 0.37097 0.35036 0.12121 0.0
O391 O 0.38696 0.3526 0.13685 0.0
H392 H 0.42524 0.55084 0.15885 0.0
H393 H 0.44475 0.56794 0.15593 0.0
H394 H 0.44528 0.43937 0.11152 0.0
H395 H 0.42574 0.42139 0.11478 0.0
H396 H 0.33612 0.36116 0.09053 0.0
H397 H 0.31739 0.32271 0.09248 0.0
H398 H 0.31226 0.4444 0.13748 0.0
H399 H 0.33093 0.48337 0.13535 0.0
Nd400 Nd 0.62173 0.4522 0.37161 0.0
Nd401 Nd 0.64574 0.45714 0.37719 0.0
C402 C 0.60096 0.4587 0.36166 0.0
C403 C 0.58952 0.48232 0.36321 0.0
C404 C 0.5838 0.49962 0.34805 0.0
C405 C 0.57257 0.5117 0.34853 0.0
C406 C 0.56669 0.50685 0.36422 0.0
C407 C 0.57253 0.49197 0.37954 0.0
C408 C 0.58378 0.47956 0.37904 0.0
C409 C 0.6278 0.44177 0.40639 0.0
C410 C 0.63335 0.59713 0.37643 0.0
C411 C 0.66641 0.44731 0.38755 0.0
C412 C 0.6771 0.41298 0.38716 0.0
C413 C 0.68335 0.40988 0.40246 0.0
C414 C 0.69407 0.38638 0.40217 0.0
C415 C 0.69889 0.36506 0.38655 0.0
C416 C 0.69247 0.36602 0.37132 0.0
C417 C 0.68174 0.38997 0.3716 0.0
C418 C 0.63986 0.47461 0.34276 0.0
C419 C 0.63422 0.3129 0.371 0.0
O420 O 0.60851 0.49591 0.355 0.0
O421 O 0.60469 0.41881 0.3735 0.0
O422 O 0.62006 0.40905 0.39916 0.0
O423 O 0.63191 0.48071 0.39549 0.0
O424 O 0.62501 0.56423 0.36997 0.0
O425 O 0.64184 0.56548 0.38288 0.0
O426 O 0.6583 0.42243 0.39632 0.0
O427 O 0.66324 0.4781 0.37354 0.0
O428 O 0.64774 0.50441 0.35052 0.0
O429 O 0.63555 0.43305 0.35288 0.0
O430 O 0.64245 0.34504 0.37801 0.0
O431 O 0.62582 0.34538 0.36461 0.0
H432 H 0.58796 0.50157 0.33564 0.0
H433 H 0.56846 0.52407 0.33649 0.0
H434 H 0.56833 0.48728 0.39186 0.0
H435 H 0.5879 0.46573 0.39095 0.0
H436 H 0.68003 0.4276 0.41463 0.0
H437 H 0.69862 0.38548 0.41424 0.0
H438 H 0.69587 0.3505 0.35901 0.0
H439 H 0.67719 0.39215 0.35954 0.0
Nd440 Nd 0.39213 0.59754 0.37471 0.0
Nd441 Nd 0.36658 0.59754 0.37693 0.0
C442 C 0.4134 0.584 0.37044 0.0
C443 C 0.42544 0.57578 0.369 0.0
C444 C 0.43094 0.58561 0.35315 0.0
C445 C 0.44234 0.5802 0.35223 0.0
C446 C 0.44856 0.56553 0.36717 0.0
C447 C 0.44301 0.55528 0.38295 0.0
C448 C 0.43165 0.56015 0.38384 0.0
C449 C 0.38348 0.61827 0.40746 0.0
C450 C 0.37906 0.45508 0.37484 0.0
C451 C 0.34637 0.60432 0.38919 0.0
C452 C 0.33533 0.63379 0.38741 0.0
C453 C 0.32945 0.64895 0.40253 0.0
C454 C 0.31871 0.67191 0.40154 0.0
C455 C 0.31349 0.68066 0.38536 0.0
C456 C 0.31948 0.66628 0.37016 0.0
C457 C 0.33025 0.64308 0.37117 0.0
C458 C 0.37235 0.59893 0.34197 0.0
C459 C 0.37977 0.73943 0.37325 0.0
O460 O 0.40721 0.61022 0.35837 0.0
O461 O 0.40815 0.56375 0.38422 0.0
O462 O 0.39173 0.6493 0.40111 0.0
O463 O 0.37998 0.57732 0.3965 0.0
O464 O 0.38816 0.48724 0.37137 0.0
O465 O 0.36996 0.48632 0.37891 0.0
O466 O 0.35431 0.64089 0.39493 0.0
O467 O 0.34955 0.5622 0.37746 0.0
O468 O 0.36245 0.60083 0.34768 0.0
O469 O 0.37882 0.59875 0.35478 0.0
O470 O 0.3707 0.70834 0.37759 0.0
O471 O 0.38886 0.70726 0.36965 0.0
H472 H 0.42644 0.59793 0.34147 0.0
H473 H 0.44629 0.58893 0.33986 0.0
H474 H 0.44744 0.54297 0.3947 0.0
H475 H 0.42773 0.55236 0.39629 0.0
H476 H 0.33309 0.64165 0.41523 0.0
H477 H 0.31443 0.68109 0.41359 0.0
H478 H 0.31588 0.67307 0.35743 0.0
H479 H 0.33456 0.63179 0.35927 0.0
Nd480 Nd 0.3665 0.45776 0.87917 0.0
Nd481 Nd 0.39341 0.45836 0.87302 0.0
C482 C 0.34655 0.45109 0.89248 0.0
C483 C 0.33539 0.42358 0.88997 0.0
C484 C 0.33127 0.37803 0.90197 0.0
C485 C 0.32048 0.35615 0.90092 0.0
C486 C 0.31338 0.37931 0.88786 0.0
C487 C 0.31758 0.4241 0.87564 0.0
C488 C 0.32839 0.44602 0.87671 0.0
C489 C 0.37201 0.45822 0.84384 0.0
C490 C 0.37976 0.3169 0.87453 0.0
C491 C 0.41321 0.45831 0.85898 0.0
C492 C 0.42501 0.47273 0.86085 0.0
C493 C 0.43159 0.47151 0.84594 0.0
C494 C 0.44288 0.47971 0.84715 0.0
C495 C 0.44797 0.4896 0.86336 0.0
C496 C 0.4413 0.49233 0.87832 0.0
C497 C 0.42996 0.48364 0.87709 0.0
C498 C 0.38786 0.46088 0.90828 0.0
C499 C 0.38005 0.59911 0.87768 0.0
O500 O 0.35444 0.41127 0.89693 0.0
O501 O 0.34981 0.4978 0.88205 0.0
O502 O 0.3621 0.45728 0.84966 0.0
O503 O 0.37827 0.45628 0.85684 0.0
O504 O 0.37085 0.34762 0.87989 0.0
O505 O 0.38863 0.34895 0.86944 0.0
O506 O 0.40634 0.50675 0.8572 0.0
O507 O 0.40922 0.40979 0.86803 0.0
O508 O 0.39781 0.45968 0.90259 0.0
O509 O 0.38166 0.46123 0.89523 0.0
O510 O 0.38887 0.56843 0.87182 0.0
O511 O 0.37125 0.56699 0.88314 0.0
H512 H 0.33637 0.36005 0.91244 0.0
H513 H 0.3177 0.32095 0.91042 0.0
H514 H 0.31242 0.4439 0.8655 0.0
H515 H 0.33119 0.48161 0.86731 0.0
H516 H 0.428 0.46309 0.83326 0.0
H517 H 0.44763 0.47835 0.8353 0.0
H518 H 0.44488 0.49943 0.89105 0.0
H519 H 0.42509 0.48442 0.88882 0.0
Nd520 Nd 0.6462 0.59206 0.87792 0.0
Nd521 Nd 0.62063 0.59359 0.8717 0.0
C522 C 0.66672 0.6046 0.88886 0.0
C523 C 0.67775 0.63295 0.88555 0.0
C524 C 0.68126 0.68884 0.8945 0.0
C525 C 0.69206 0.71069 0.89317 0.0
C526 C 0.69975 0.67697 0.88296 0.0
C527 C 0.69615 0.62186 0.87372 0.0
C528 C 0.68536 0.60016 0.87502 0.0
C529 C 0.63993 0.57333 0.8437 0.0
C530 C 0.63368 0.73573 0.8733 0.0
C531 C 0.60069 0.59309 0.8581 0.0
C532 C 0.58905 0.57505 0.86058 0.0
C533 C 0.58298 0.55326 0.84625 0.0
C534 C 0.57172 0.54305 0.84757 0.0
C535 C 0.56614 0.55436 0.86332 0.0
C536 C 0.57232 0.57475 0.87781 0.0
C537 C 0.5836 0.58504 0.87645 0.0
C538 C 0.62494 0.58437 0.90738 0.0
C539 C 0.63329 0.45286 0.87751 0.0
O540 O 0.65879 0.64265 0.89395 0.0
O541 O 0.66332 0.55766 0.87879 0.0
O542 O 0.64864 0.54965 0.85076 0.0
O543 O 0.63527 0.61189 0.85423 0.0
O544 O 0.6428 0.70363 0.87681 0.0
O545 O 0.62448 0.70451 0.86989 0.0
O546 O 0.60786 0.54714 0.85507 0.0
O547 O 0.60459 0.64029 0.86765 0.0
O548 O 0.61527 0.58589 0.90069 0.0
O549 O 0.6317 0.58722 0.89512 0.0
O550 O 0.62526 0.48394 0.8694 0.0
O551 O 0.64133 0.48576 0.88501 0.0
H552 H 0.67573 0.71478 0.90298 0.0
H553 H 0.69447 0.75281 0.90067 0.0
H554 H 0.7017 0.59496 0.86551 0.0
H555 H 0.68306 0.55654 0.86806 0.0
H556 H 0.58691 0.54586 0.83379 0.0
H557 H 0.56735 0.52828 0.83602 0.0
H558 H 0.56845 0.58302 0.89026 0.0
H559 H 0.58802 0.60196 0.88776 0.0
Nd560 Nd 0.367 0.59486 0.62603 0.0
Nd561 Nd 0.39108 0.60137 0.62945 0.0
C562 C 0.34584 0.60301 0.61851 0.0
C563 C 0.33527 0.6389 0.6181 0.0
C564 C 0.32894 0.63728 0.60288 0.0
C565 C 0.31827 0.66169 0.60273 0.0
C566 C 0.31358 0.68854 0.61783 0.0
C567 C 0.32008 0.69231 0.63293 0.0
C568 C 0.33076 0.66757 0.63309 0.0
C569 C 0.37443 0.57416 0.65961 0.0
C570 C 0.37848 0.7398 0.63096 0.0
C571 C 0.41211 0.59634 0.63781 0.0
C572 C 0.42357 0.5733 0.63639 0.0
C573 C 0.42993 0.56952 0.65154 0.0
C574 C 0.44117 0.55851 0.6506 0.0
C575 C 0.4464 0.55062 0.63444 0.0
C576 C 0.43993 0.55169 0.61926 0.0
C577 C 0.42867 0.56336 0.62021 0.0
C578 C 0.38384 0.61434 0.59536 0.0
C579 C 0.37949 0.45561 0.62487 0.0
O580 O 0.35347 0.61705 0.60728 0.0
O581 O 0.3497 0.58411 0.63353 0.0
O582 O 0.36678 0.54114 0.6522 0.0
O583 O 0.37792 0.6183 0.64947 0.0
O584 O 0.37017 0.70705 0.62443 0.0
O585 O 0.38705 0.70782 0.63691 0.0
O586 O 0.40475 0.56163 0.64584 0.0
O587 O 0.40811 0.63208 0.62528 0.0
O588 O 0.39173 0.64715 0.60215 0.0
O589 O 0.38018 0.57395 0.60633 0.0
O590 O 0.38805 0.48868 0.63055 0.0
O591 O 0.37067 0.48704 0.61961 0.0
H592 H 0.33213 0.61508 0.59117 0.0
H593 H 0.31366 0.6588 0.59075 0.0
H594 H 0.31679 0.71211 0.64486 0.0
H595 H 0.33536 0.66913 0.6451 0.0
H596 H 0.42625 0.57751 0.66418 0.0
H597 H 0.4458 0.55704 0.66258 0.0
H598 H 0.44364 0.54617 0.60658 0.0
H599 H 0.42401 0.56661 0.60827 0.0
Nd600 Nd 0.64533 0.44919 0.62423 0.0
Nd601 Nd 0.61964 0.44748 0.62899 0.0
C602 C 0.66547 0.44328 0.61162 0.0
C603 C 0.67667 0.41616 0.61432 0.0
C604 C 0.68011 0.35982 0.60545 0.0
C605 C 0.69095 0.33828 0.60642 0.0
C606 C 0.69876 0.37268 0.61617 0.0
C607 C 0.69526 0.42845 0.62527 0.0
C608 C 0.68442 0.4499 0.62432 0.0
C609 C 0.64021 0.4444 0.65968 0.0
C610 C 0.63272 0.30864 0.62975 0.0
C611 C 0.59892 0.45455 0.63906 0.0
C612 C 0.58739 0.47401 0.63606 0.0
C613 C 0.58131 0.49864 0.65004 0.0
C614 C 0.57006 0.50883 0.64852 0.0
C615 C 0.56451 0.49476 0.63291 0.0
C616 C 0.57071 0.4718 0.61872 0.0
C617 C 0.58198 0.46138 0.62028 0.0
C618 C 0.62692 0.43498 0.59492 0.0
C619 C 0.63225 0.59123 0.62569 0.0
O620 O 0.65766 0.40378 0.60679 0.0
O621 O 0.66204 0.48909 0.62214 0.0
O622 O 0.65003 0.44426 0.65361 0.0
O623 O 0.63377 0.44446 0.64696 0.0
O624 O 0.64083 0.33949 0.62192 0.0
O625 O 0.62457 0.34188 0.63679 0.0
O626 O 0.60616 0.4984 0.64322 0.0
O627 O 0.60296 0.40726 0.62974 0.0
O628 O 0.61821 0.40808 0.60105 0.0
O629 O 0.63102 0.47165 0.60636 0.0
O630 O 0.62315 0.55916 0.62941 0.0
O631 O 0.64142 0.55996 0.62182 0.0
H632 H 0.67446 0.3331 0.59736 0.0
H633 H 0.69328 0.2957 0.59902 0.0
H634 H 0.70092 0.45594 0.63313 0.0
H635 H 0.68217 0.49387 0.63119 0.0
H636 H 0.5852 0.50787 0.66244 0.0
H637 H 0.56568 0.52553 0.65988 0.0
H638 H 0.56685 0.46134 0.60638 0.0
H639 H 0.5864 0.44204 0.60926 0.0
H640 H 0.20798 0.2962 0.12372 0.0
H641 H 0.22695 0.33133 0.12385 0.0
H642 H 0.23711 0.13776 0.1096 0.0
H643 H 0.21818 0.10234 0.10936 0.0
H644 H 0.25032 0.18272 0.13378 0.0
H645 H 0.23654 0.26772 0.07987 0.0
H646 H 0.22403 0.32999 0.06103 0.0
H647 H 0.23205 0.50574 0.08825 0.0
H648 H 0.24451 0.44433 0.10742 0.0
H649 H 0.30462 0.25858 0.10866 0.0
H650 H 0.28558 0.22494 0.10911 0.0
H651 H 0.27603 0.419 0.12394 0.0
H652 H 0.29502 0.45355 0.12299 0.0
H653 H 0.26249 0.37479 0.09982 0.0
H654 H 0.27645 0.28994 0.15351 0.0
H655 H 0.28895 0.22762 0.17234 0.0
H656 H 0.28061 0.05152 0.14552 0.0
H657 H 0.26816 0.11297 0.12636 0.0
C658 C 0.21422 0.26106 0.12045 0.0
C659 C 0.21142 0.19621 0.1165 0.0
C660 C 0.22512 0.28132 0.12055 0.0
C661 C 0.23358 0.23758 0.11654 0.0
C662 C 0.23082 0.1727 0.11279 0.0
C663 C 0.21993 0.15237 0.11272 0.0
C664 C 0.24526 0.25911 0.1163 0.0
C665 C 0.25298 0.22423 0.12615 0.0
C666 C 0.24883 0.31425 0.10672 0.0
C667 C 0.24137 0.35131 0.09519 0.0
C668 C 0.23557 0.31956 0.08192 0.0
C669 C 0.2285 0.35471 0.07117 0.0
C670 C 0.22722 0.42175 0.07347 0.0
C671 C 0.23304 0.4538 0.0865 0.0
C672 C 0.24011 0.41886 0.0973 0.0
C673 C 0.29849 0.2944 0.11192 0.0
C674 C 0.30148 0.35896 0.11584 0.0
C675 C 0.28756 0.27481 0.11235 0.0
C676 C 0.27926 0.31904 0.11677 0.0
C677 C 0.28221 0.38361 0.12055 0.0
C678 C 0.29314 0.40321 0.12016 0.0
C679 C 0.26754 0.2983 0.11727 0.0
C680 C 0.25983 0.33332 0.10747 0.0
C681 C 0.26398 0.24327 0.12688 0.0
C682 C 0.27145 0.20618 0.13839 0.0
C683 C 0.27734 0.23801 0.15153 0.0
C684 C 0.28441 0.20283 0.16228 0.0
C685 C 0.2856 0.13568 0.16009 0.0
C686 C 0.2797 0.10355 0.14718 0.0
C687 C 0.27262 0.13852 0.13638 0.0
H688 H 0.29107 0.10853 0.16843 0.0
H689 H 0.22175 0.44888 0.06513 0.0
H690 H 0.80088 0.82992 0.14287 0.0
H691 H 0.78181 0.79657 0.14356 0.0
H692 H 0.77805 0.85672 0.09009 0.0
H693 H 0.79698 0.89198 0.08946 0.0
H694 H 0.76091 0.89504 0.10821 0.0
H695 H 0.78032 0.69318 0.10238 0.0
H696 H 0.79381 0.60935 0.11037 0.0
H697 H 0.77833 0.58387 0.15998 0.0
H698 H 0.76482 0.66823 0.15237 0.0
H699 H 0.71094 0.7371 0.08919 0.0
H700 H 0.72986 0.77223 0.09003 0.0
H701 H 0.73239 0.70773 0.14332 0.0
H702 H 0.71342 0.67265 0.14261 0.0
H703 H 0.7501 0.67243 0.12623 0.0
H704 H 0.73051 0.87246 0.13202 0.0
H705 H 0.717 0.9564 0.1242 0.0
H706 H 0.73281 0.98592 0.07502 0.0
H707 H 0.74634 0.90148 0.08245 0.0
C708 C 0.796 0.83656 0.13126 0.0
C709 C 0.80061 0.86351 0.11607 0.0
C710 C 0.78507 0.81677 0.13163 0.0
C711 C 0.77841 0.82316 0.1168 0.0
C712 C 0.78295 0.85081 0.10171 0.0
C713 C 0.79386 0.87047 0.10132 0.0
C714 C 0.76673 0.80164 0.11698 0.0
C715 C 0.75859 0.84605 0.11195 0.0
C716 C 0.76354 0.73826 0.12228 0.0
C717 C 0.77163 0.6875 0.12687 0.0
C718 C 0.77985 0.67007 0.11504 0.0
C719 C 0.78749 0.62239 0.1195 0.0
C720 C 0.78695 0.59144 0.13569 0.0
C721 C 0.77875 0.60797 0.14745 0.0
C722 C 0.77109 0.65568 0.14307 0.0
C723 C 0.71544 0.73105 0.1012 0.0
C724 C 0.7105 0.70217 0.11587 0.0
C725 C 0.72633 0.75117 0.10165 0.0
C726 C 0.73264 0.74362 0.11682 0.0
C727 C 0.72778 0.71425 0.13142 0.0
C728 C 0.71688 0.69398 0.13098 0.0
C729 C 0.74429 0.76573 0.11736 0.0
C730 C 0.75242 0.72146 0.12253 0.0
C731 C 0.74748 0.82931 0.11222 0.0
C732 C 0.73938 0.8802 0.10773 0.0
C733 C 0.73106 0.8965 0.11948 0.0
C734 C 0.7234 0.94422 0.11513 0.0
C735 C 0.72403 0.97635 0.09911 0.0
C736 C 0.73233 0.96093 0.08742 0.0
C737 C 0.74 0.91318 0.0917 0.0
H738 H 0.7181 1.01329 0.09577 0.0
H739 H 0.79287 0.55453 0.13911 0.0
H740 H 0.29736 0.64457 0.36218 0.0
H741 H 0.27833 0.67883 0.36157 0.0
H742 H 0.28383 0.80142 0.40612 0.0
H743 H 0.30289 0.76845 0.40666 0.0
H744 H 0.26548 0.73388 0.41036 0.0
H745 H 0.28064 0.86454 0.36447 0.0
H746 H 0.29065 0.88479 0.33721 0.0
H747 H 0.26792 0.76656 0.30913 0.0
H748 H 0.25785 0.74488 0.33628 0.0
H749 H 0.21654 0.91593 0.40936 0.0
H750 H 0.2355 0.88148 0.4081 0.0
H751 H 0.22869 0.76855 0.36217 0.0
H752 H 0.20964 0.80315 0.36332 0.0
H753 H 0.24755 0.82749 0.35813 0.0
H754 H 0.23226 0.6971 0.40343 0.0
H755 H 0.22218 0.67472 0.43051 0.0
H756 H 0.24507 0.78875 0.45949 0.0
H757 H 0.25521 0.81256 0.43253 0.0
C758 C 0.29462 0.67963 0.37171 0.0
C759 C 0.30182 0.70341 0.38449 0.0
C760 C 0.28365 0.69911 0.37137 0.0
C761 C 0.27954 0.74319 0.38375 0.0
C762 C 0.2867 0.76716 0.39646 0.0
C763 C 0.29766 0.7479 0.39678 0.0
C764 C 0.26778 0.76344 0.38372 0.0
C765 C 0.26162 0.75515 0.39898 0.0
C766 C 0.26253 0.7895 0.36878 0.0
C767 C 0.26856 0.80254 0.35244 0.0
C768 C 0.27783 0.84243 0.35251 0.0
C769 C 0.2835 0.85424 0.33707 0.0
C770 C 0.27994 0.82683 0.32145 0.0
C771 C 0.27068 0.78767 0.32124 0.0
C772 C 0.26498 0.77565 0.33665 0.0
C773 C 0.219 0.88321 0.39905 0.0
C774 C 0.21141 0.86199 0.38655 0.0
C775 C 0.22992 0.86347 0.39834 0.0
C776 C 0.23362 0.82123 0.38521 0.0
C777 C 0.22613 0.80098 0.37249 0.0
C778 C 0.21519 0.82099 0.37314 0.0
C779 C 0.24527 0.79845 0.38483 0.0
C780 C 0.25139 0.80614 0.3695 0.0
C781 C 0.25049 0.77145 0.39968 0.0
C782 C 0.24443 0.75711 0.41593 0.0
C783 C 0.2351 0.7178 0.41556 0.0
C784 C 0.22938 0.70479 0.43089 0.0
C785 C 0.23297 0.73043 0.44671 0.0
C786 C 0.2423 0.76899 0.44723 0.0
C787 C 0.24803 0.78222 0.43193 0.0
H788 H 0.22853 0.7203 0.45856 0.0
H789 H 0.28435 0.83604 0.30951 0.0
H790 H 0.79624 0.1133 0.36942 0.0
H791 H 0.77711 0.14518 0.36863 0.0
H792 H 0.78399 0.30756 0.40226 0.0
H793 H 0.80315 0.2764 0.403 0.0
H794 H 0.76608 0.24873 0.41299 0.0
H795 H 0.77885 0.32588 0.35758 0.0
H796 H 0.78766 0.31682 0.32887 0.0
H797 H 0.7643 0.17321 0.31342 0.0
H798 H 0.75543 0.18079 0.34214 0.0
H799 H 0.71626 0.41944 0.40369 0.0
H800 H 0.73529 0.38604 0.40323 0.0
H801 H 0.72744 0.23003 0.368 0.0
H802 H 0.70833 0.26386 0.36825 0.0
H803 H 0.74573 0.28264 0.35796 0.0
H804 H 0.73285 0.20529 0.41301 0.0
H805 H 0.724 0.21297 0.44172 0.0
H806 H 0.74752 0.35443 0.45793 0.0
H807 H 0.75643 0.34823 0.42922 0.0
C808 C 0.79376 0.1564 0.37647 0.0
C809 C 0.80139 0.19209 0.38627 0.0
C810 C 0.78274 0.17458 0.37603 0.0
C811 C 0.77899 0.22933 0.38526 0.0
C812 C 0.78658 0.26503 0.39504 0.0
C813 C 0.79759 0.24689 0.3955 0.0
C814 C 0.76719 0.2488 0.38503 0.0
C815 C 0.76169 0.25697 0.40093 0.0
C816 C 0.76125 0.25794 0.36936 0.0
C817 C 0.76655 0.25343 0.35207 0.0
C818 C 0.77564 0.292 0.34811 0.0
C819 C 0.78064 0.2872 0.33183 0.0
C820 C 0.77656 0.24433 0.31935 0.0
C821 C 0.76746 0.20631 0.32311 0.0
C822 C 0.76244 0.21088 0.33938 0.0
C823 C 0.71852 0.37753 0.39597 0.0
C824 C 0.71063 0.34411 0.38615 0.0
C825 C 0.72947 0.35836 0.39571 0.0
C826 C 0.73291 0.3045 0.38583 0.0
C827 C 0.72509 0.27162 0.37579 0.0
C828 C 0.71412 0.29113 0.37593 0.0
C829 C 0.74463 0.28295 0.38594 0.0
C830 C 0.7501 0.27432 0.37003 0.0
C831 C 0.75055 0.2731 0.4016 0.0
C832 C 0.74524 0.27672 0.4189 0.0
C833 C 0.73609 0.23836 0.42265 0.0
C834 C 0.73107 0.24241 0.43893 0.0
C835 C 0.73518 0.28428 0.45162 0.0
C836 C 0.74433 0.32207 0.44807 0.0
C837 C 0.74938 0.31827 0.43181 0.0
H838 H 0.73128 0.28734 0.46422 0.0
H839 H 0.78044 0.24069 0.30674 0.0
H840 H 0.71811 0.59979 0.88214 0.0
H841 H 0.73713 0.63319 0.88132 0.0
H842 H 0.72731 0.83467 0.88215 0.0
H843 H 0.70821 0.80161 0.88246 0.0
H844 H 0.74349 0.81832 0.8593 0.0
H845 H 0.73767 0.7562 0.91882 0.0
H846 H 0.73211 0.68339 0.94277 0.0
H847 H 0.75575 0.54194 0.92664 0.0
H848 H 0.76135 0.61357 0.90244 0.0
H849 H 0.795 0.9546 0.87945 0.0
H850 H 0.77606 0.91998 0.87973 0.0
H851 H 0.78627 0.71918 0.88136 0.0
H852 H 0.80531 0.75365 0.88119 0.0
H853 H 0.76988 0.73416 0.90272 0.0
H854 H 0.7758 0.79511 0.84333 0.0
H855 H 0.78136 0.8667 0.81912 0.0
H856 H 0.75761 1.00853 0.83455 0.0
H857 H 0.752 0.93814 0.859 0.0
C858 C 0.71994 0.65131 0.88196 0.0
C859 C 0.71149 0.69781 0.88237 0.0
C860 C 0.73089 0.67042 0.88169 0.0
C861 C 0.73379 0.73667 0.8819 0.0
C862 C 0.72538 0.78326 0.88206 0.0
C863 C 0.71441 0.76417 0.88238 0.0
C864 C 0.74553 0.75725 0.88188 0.0
C865 C 0.74921 0.80053 0.86896 0.0
C866 C 0.75317 0.73304 0.89415 0.0
C867 C 0.74985 0.68998 0.90872 0.0
C868 C 0.74162 0.70935 0.9203 0.0
C869 C 0.73848 0.66833 0.93394 0.0
C870 C 0.74356 0.608 0.9362 0.0
C871 C 0.75181 0.58864 0.92486 0.0
C872 C 0.75498 0.62945 0.91119 0.0
C873 C 0.79327 0.90295 0.87966 0.0
C874 C 0.80181 0.8571 0.88013 0.0
C875 C 0.78236 0.8831 0.87983 0.0
C876 C 0.77958 0.81667 0.88026 0.0
C877 C 0.78809 0.77073 0.88099 0.0
C878 C 0.79903 0.7906 0.88092 0.0
C879 C 0.76787 0.79537 0.88015 0.0
C880 C 0.76418 0.75193 0.89304 0.0
C881 C 0.76022 0.81925 0.86781 0.0
C882 C 0.76355 0.86161 0.85309 0.0
C883 C 0.77182 0.84178 0.84163 0.0
C884 C 0.77497 0.88211 0.82786 0.0
C885 C 0.76986 0.9422 0.82532 0.0
C886 C 0.76157 0.96201 0.83654 0.0
C887 C 0.75839 0.92189 0.85035 0.0
H888 H 0.77231 0.97335 0.81465 0.0
H889 H 0.74111 0.57632 0.94677 0.0
H890 H 0.30043 0.35559 0.85908 0.0
H891 H 0.28139 0.32203 0.8583 0.0
H892 H 0.2805 0.32051 0.91438 0.0
H893 H 0.29949 0.35436 0.91529 0.0
H894 H 0.27033 0.21672 0.90273 0.0
H895 H 0.26854 0.44469 0.88903 0.0
H896 H 0.273 0.5448 0.87278 0.0
H897 H 0.26067 0.4597 0.82577 0.0
H898 H 0.25627 0.3587 0.8417 0.0
H899 H 0.21316 0.20187 0.9143 0.0
H900 H 0.23212 0.2361 0.91388 0.0
H901 H 0.23185 0.23427 0.85779 0.0
H902 H 0.21271 0.20218 0.85808 0.0
H903 H 0.24265 0.33824 0.86871 0.0
H904 H 0.24418 0.11105 0.88239 0.0
H905 H 0.23973 1.01073 0.89855 0.0
H906 H 0.25258 0.09393 0.94544 0.0
H907 H 0.25699 0.19514 0.9296 0.0
C908 C 0.29619 0.3488 0.87129 0.0
C909 C 0.30165 0.35801 0.88725 0.0
C910 C 0.28523 0.32944 0.87082 0.0
C911 C 0.27933 0.31919 0.88628 0.0
C912 C 0.28478 0.32775 0.90222 0.0
C913 C 0.29573 0.34699 0.90271 0.0
C914 C 0.26755 0.29916 0.88593 0.0
C915 C 0.26428 0.24396 0.89545 0.0
C916 C 0.25956 0.33321 0.87612 0.0
C917 C 0.26218 0.3939 0.86652 0.0
C918 C 0.26686 0.44714 0.8752 0.0
C919 C 0.26936 0.50408 0.86605 0.0
C920 C 0.26715 0.50854 0.84824 0.0
C921 C 0.2624 0.45613 0.83956 0.0
C922 C 0.25989 0.39905 0.84864 0.0
C923 C 0.21704 0.20938 0.90182 0.0
C924 C 0.21125 0.19897 0.88621 0.0
C925 C 0.228 0.22833 0.90161 0.0
C926 C 0.2336 0.23709 0.8858 0.0
C927 C 0.22782 0.2277 0.8702 0.0
C928 C 0.21684 0.20868 0.87039 0.0
C929 C 0.24543 0.25605 0.88559 0.0
C930 C 0.24871 0.31097 0.87596 0.0
C931 C 0.25343 0.22173 0.89529 0.0
C932 C 0.25082 0.16091 0.90484 0.0
C933 C 0.24599 0.10814 0.89618 0.0
C934 C 0.24348 0.05109 0.90527 0.0
C935 C 0.24584 0.04603 0.92302 0.0
C936 C 0.25074 0.09796 0.9317 0.0
C937 C 0.25326 0.15516 0.92266 0.0
H938 H 0.2439 1.00181 0.93004 0.0
H939 H 0.26909 0.55267 0.84118 0.0
H940 H 0.70725 0.24788 0.61669 0.0
H941 H 0.72632 0.21437 0.61654 0.0
H942 H 0.73616 0.41559 0.61655 0.0
H943 H 0.71712 0.44949 0.61612 0.0
H944 H 0.74839 0.35018 0.59438 0.0
H945 H 0.73774 0.31666 0.65372 0.0
H946 H 0.72652 0.27334 0.67766 0.0
H947 H 0.73399 0.07799 0.66182 0.0
H948 H 0.74513 0.12018 0.63763 0.0
H949 H 0.80421 0.29695 0.61486 0.0
H950 H 0.78515 0.33032 0.61548 0.0
H951 H 0.77534 0.12905 0.61586 0.0
H952 H 0.79439 0.09526 0.6152 0.0
H953 H 0.76308 0.19445 0.63791 0.0
H954 H 0.77366 0.22787 0.5785 0.0
H955 H 0.78487 0.2711 0.55454 0.0
H956 H 0.77752 0.4665 0.57046 0.0
H957 H 0.76638 0.42441 0.59467 0.0
C958 C 0.71344 0.2852 0.61655 0.0
C959 C 0.71051 0.35164 0.61649 0.0
C960 C 0.72441 0.26585 0.61664 0.0
C961 C 0.73281 0.31224 0.61676 0.0
C962 C 0.72992 0.37854 0.61654 0.0
C963 C 0.71896 0.39793 0.61647 0.0
C964 C 0.74458 0.29191 0.61688 0.0
C965 C 0.75161 0.31682 0.60407 0.0
C966 C 0.74886 0.2471 0.62922 0.0
C967 C 0.74218 0.22159 0.64376 0.0
C968 C 0.73692 0.26447 0.65526 0.0
C969 C 0.73059 0.24011 0.66889 0.0
C970 C 0.72952 0.17295 0.67123 0.0
C971 C 0.73481 0.13 0.65997 0.0
C972 C 0.74114 0.1541 0.64631 0.0
C973 C 0.79803 0.25957 0.61492 0.0
C974 C 0.80098 0.19317 0.61491 0.0
C975 C 0.78707 0.27885 0.61529 0.0
C976 C 0.77867 0.23242 0.61548 0.0
C977 C 0.78158 0.16614 0.61574 0.0
C978 C 0.79254 0.14681 0.61542 0.0
C979 C 0.7669 0.25276 0.61541 0.0
C980 C 0.75987 0.22783 0.62822 0.0
C981 C 0.76261 0.29753 0.60307 0.0
C982 C 0.76927 0.32297 0.5885 0.0
C983 C 0.7745 0.28006 0.57697 0.0
C984 C 0.78083 0.30435 0.56333 0.0
C985 C 0.78193 0.3715 0.56101 0.0
C986 C 0.77667 0.4145 0.57229 0.0
C987 C 0.77034 0.39046 0.58596 0.0
H988 H 0.78683 0.39022 0.55044 0.0
H989 H 0.72462 0.1542 0.68179 0.0
H990 H 0.20937 0.77489 0.60106 0.0
H991 H 0.22851 0.74378 0.60212 0.0
H992 H 0.23558 0.91361 0.63291 0.0
H993 H 0.21649 0.94643 0.63135 0.0
H994 H 0.2509 0.89915 0.6092 0.0
H995 H 0.23453 0.75666 0.65083 0.0
H996 H 0.22145 0.67551 0.66173 0.0
H997 H 0.23249 0.53839 0.6235 0.0
H998 H 0.24554 0.61907 0.61221 0.0
H999 H 0.30436 0.79529 0.63406 0.0
H1000 H 0.28525 0.82875 0.63436 0.0
H1001 H 0.27704 0.66485 0.60206 0.0
H1002 H 0.29604 0.6303 0.60203 0.0
H1003 H 0.26237 0.67763 0.62744 0.0
H1004 H 0.27853 0.82182 0.58556 0.0
H1005 H 0.29164 0.9033 0.57493 0.0
H1006 H 0.28104 0.03758 0.61418 0.0
H1007 H 0.26796 0.95651 0.6252 0.0
C1008 C 0.21497 0.80608 0.60798 0.0
C1009 C 0.21124 0.86338 0.61613 0.0
C1010 C 0.22596 0.78772 0.60874 0.0
C1011 C 0.2336 0.82571 0.61779 0.0
C1012 C 0.22993 0.88307 0.62588 0.0
C1013 C 0.21893 0.90151 0.62512 0.0
C1014 C 0.24539 0.80609 0.61861 0.0
C1015 C 0.25339 0.85097 0.61346 0.0
C1016 C 0.24876 0.74282 0.6238 0.0
C1017 C 0.24094 0.69415 0.63057 0.0
C1018 C 0.23411 0.70938 0.64466 0.0
C1019 C 0.22671 0.66343 0.65092 0.0
C1020 C 0.22612 0.60189 0.64329 0.0
C1021 C 0.23295 0.58611 0.62939 0.0
C1022 C 0.24035 0.63191 0.62306 0.0
C1023 C 0.2985 0.76607 0.62708 0.0
C1024 C 0.30187 0.71013 0.61793 0.0
C1025 C 0.28754 0.78565 0.62714 0.0
C1026 C 0.27961 0.74989 0.61807 0.0
C1027 C 0.28293 0.69364 0.60912 0.0
C1028 C 0.29387 0.67423 0.60898 0.0
C1029 C 0.26787 0.77057 0.61795 0.0
C1030 C 0.25988 0.72586 0.62324 0.0
C1031 C 0.26451 0.83402 0.61293 0.0
C1032 C 0.27235 0.88284 0.60632 0.0
C1033 C 0.27906 0.86853 0.59202 0.0
C1034 C 0.28647 0.91467 0.5859 0.0
C1035 C 0.28719 0.97551 0.5939 0.0
C1036 C 0.28048 0.99039 0.60801 0.0
C1037 C 0.27306 0.94438 0.61419 0.0
H1038 H 0.29293 1.01118 0.58915 0.0
H1039 H 0.22039 0.56638 0.64816 0.0
H1040 H 0.15517 1.00168 0.31759 0.0
H1041 H 0.1514 1.02688 0.28716 0.0
H1042 H 0.11778 0.97673 0.29461 0.0
H1043 H 0.12147 0.95284 0.32568 0.0
H1044 H 0.13131 0.92077 0.26192 0.0
H1045 H 0.11941 0.11706 0.2905 0.0
H1046 H 0.12135 0.20674 0.31154 0.0
H1047 H 0.15055 0.26904 0.28599 0.0
H1048 H 0.14889 0.17897 0.26498 0.0
H1049 H 0.12223 0.04418 0.17442 0.0
H1050 H 0.11913 1.02145 0.20561 0.0
H1051 H 0.14946 0.11464 0.21814 0.0
H1052 H 0.15263 0.13608 0.1873 0.0
H1053 H 0.13397 0.1493 0.24135 0.0
H1054 H 0.14816 0.95482 0.21643 0.0
H1055 H 0.14936 0.85954 0.1971 0.0
H1056 H 0.11879 0.78994 0.21639 0.0
H1057 H 0.1173 0.88566 0.23562 0.0
C1058 C 0.14694 0.99586 0.31286 0.0
C1059 C 0.13862 0.97521 0.32415 0.0
C1060 C 0.14481 1.01037 0.29538 0.0
C1061 C 0.13432 1.00378 0.2885 0.0
C1062 C 0.12595 0.98211 0.2996 0.0
C1063 C 0.12805 0.96865 0.31735 0.0
C1064 C 0.13237 1.0209 0.26977 0.0
C1065 C 0.13152 0.97086 0.25742 0.0
C1066 C 0.13313 0.08603 0.26381 0.0
C1067 C 0.13407 0.14093 0.27624 0.0
C1068 C 0.1263 0.14956 0.28945 0.0
C1069 C 0.12734 0.20052 0.30136 0.0
C1070 C 0.13608 0.2435 0.30012 0.0
C1071 C 0.14378 0.2357 0.28694 0.0
C1072 C 0.14279 0.18473 0.27501 0.0
C1073 C 0.12812 0.0607 0.18389 0.0
C1074 C 0.13766 0.09223 0.17836 0.0
C1075 C 0.12639 0.04726 0.20172 0.0
C1076 C 0.13408 0.06603 0.21438 0.0
C1077 C 0.14337 0.0997 0.2088 0.0
C1078 C 0.14518 0.11195 0.19108 0.0
C1079 C 0.13283 0.04914 0.23334 0.0
C1080 C 0.13331 0.09928 0.24577 0.0
C1081 C 0.13193 0.98395 0.23935 0.0
C1082 C 0.13253 0.92797 0.22725 0.0
C1083 C 0.1416 0.91981 0.21634 0.0
C1084 C 0.14235 0.86559 0.20545 0.0
C1085 C 0.13415 0.81877 0.20551 0.0
C1086 C 0.12513 0.82631 0.21635 0.0
C1087 C 0.12431 0.88061 0.22722 0.0
H1088 H 0.13482 0.7765 0.19719 0.0
H1089 H 0.13688 0.2829 0.30936 0.0
H1090 H 0.85769 0.11124 0.31563 0.0
H1091 H 0.86082 0.08763 0.285 0.0
H1092 H 0.89453 0.0477 0.29583 0.0
H1093 H 0.89141 0.07191 0.32695 0.0
H1094 H 0.88996 0.1193 0.26231 0.0
H1095 H 0.87943 0.9246 0.29293 0.0
H1096 H 0.86791 0.86425 0.31357 0.0
H1097 H 0.84 0.90046 0.28139 0.0
H1098 H 0.85131 0.96271 0.26079 0.0
H1099 H 0.89083 0.97483 0.17593 0.0
H1100 H 0.89415 0.99243 0.20727 0.0
H1101 H 0.85958 0.99866 0.21622 0.0
H1102 H 0.85631 0.97918 0.18552 0.0
H1103 H 0.86807 0.93338 0.24098 0.0
H1104 H 0.87704 0.13487 0.21225 0.0
H1105 H 0.88738 0.20171 0.19144 0.0
H1106 H 0.91679 0.16233 0.21964 0.0
H1107 H 0.9067 0.09229 0.24014 0.0
C1108 C 0.86583 0.09832 0.31155 0.0
C1109 C 0.87428 0.09302 0.32382 0.0
C1110 C 0.86761 0.08485 0.29395 0.0
C1111 C 0.87788 0.0652 0.28802 0.0
C1112 C 0.88653 0.06282 0.30005 0.0
C1113 C 0.88474 0.07649 0.31784 0.0
C1114 C 0.87909 0.04208 0.26961 0.0
C1115 C 0.88537 0.07782 0.25767 0.0
C1116 C 0.87295 0.98868 0.26341 0.0
C1117 C 0.86622 0.94864 0.27536 0.0
C1118 C 0.87083 0.9199 0.29028 0.0
C1119 C 0.86433 0.8854 0.30199 0.0
C1120 C 0.85321 0.87852 0.2988 0.0
C1121 C 0.8486 0.90585 0.28384 0.0
C1122 C 0.85506 0.94077 0.27215 0.0
C1123 C 0.88398 0.97943 0.18468 0.0
C1124 C 0.87331 0.97555 0.17819 0.0
C1125 C 0.88587 0.98986 0.20259 0.0
C1126 C 0.87711 0.99755 0.2143 0.0
C1127 C 0.86651 0.99269 0.20769 0.0
C1128 C 0.86464 0.98174 0.19 0.0
C1129 C 0.87869 1.01166 0.23336 0.0
C1130 C 0.87288 0.97413 0.24553 0.0
C1131 C 0.88512 0.06401 0.23962 0.0
C1132 C 0.89114 0.10753 0.22759 0.0
C1133 C 0.88573 0.13991 0.21393 0.0
C1134 C 0.89155 0.17835 0.20218 0.0
C1135 C 0.90273 0.18654 0.20425 0.0
C1136 C 0.90813 0.15592 0.21804 0.0
C1137 C 0.90237 0.1165 0.22967 0.0
H1138 H 0.90721 0.21665 0.19518 0.0
H1139 H 0.84816 0.85209 0.3079 0.0
H1140 H 0.89148 0.0799 0.67327 0.0
H1141 H 0.89513 0.05393 0.70415 0.0
H1142 H 0.86075 0.05709 0.71464 0.0
H1143 H 0.85711 0.08243 0.68421 0.0
H1144 H 0.89046 0.11713 0.73509 0.0
H1145 H 0.85414 0.94178 0.74403 0.0
H1146 H 0.84349 0.86284 0.72703 0.0
H1147 H 0.87054 0.83353 0.69268 0.0
H1148 H 0.88142 0.91163 0.70964 0.0
H1149 H 0.87038 0.08932 0.82123 0.0
H1150 H 0.87327 0.1014 0.78996 0.0
H1151 H 0.88762 0.90993 0.78811 0.0
H1152 H 0.88487 0.89798 0.81979 0.0
H1153 H 0.87168 0.92965 0.76253 0.0
H1154 H 0.90361 0.03669 0.78193 0.0
H1155 H 0.91434 0.11317 0.7996 0.0
H1156 H 0.89682 0.27438 0.7775 0.0
H1157 H 0.88586 0.1988 0.75989 0.0
C1158 C 0.88473 0.07523 0.68221 0.0
C1159 C 0.874 0.08295 0.67622 0.0
C1160 C 0.88681 0.0604 0.69987 0.0
C1161 C 0.87821 0.05231 0.71178 0.0
C1162 C 0.86754 0.06164 0.70577 0.0
C1163 C 0.86548 0.07656 0.6883 0.0
C1164 C 0.88015 0.03448 0.73051 0.0
C1165 C 0.88641 0.07585 0.74103 0.0
C1166 C 0.87502 0.98003 0.7384 0.0
C1167 C 0.86858 0.93287 0.72807 0.0
C1168 C 0.85784 0.91829 0.7329 0.0
C1169 C 0.85176 0.87374 0.72326 0.0
C1170 C 0.85633 0.84326 0.70878 0.0
C1171 C 0.867 0.85731 0.70388 0.0
C1172 C 0.87313 0.9018 0.7135 0.0
C1173 C 0.87427 0.04994 0.81424 0.0
C1174 C 0.87738 0.99262 0.82303 0.0
C1175 C 0.87596 0.05706 0.79631 0.0
C1176 C 0.88072 1.00682 0.78656 0.0
C1177 C 0.88396 0.94955 0.79531 0.0
C1178 C 0.88243 0.94281 0.81343 0.0
C1179 C 0.88165 1.01358 0.76717 0.0
C1180 C 0.87587 0.97033 0.75654 0.0
C1181 C 0.88722 0.0662 0.75921 0.0
C1182 C 0.89386 0.11197 0.76965 0.0
C1183 C 0.90199 0.08841 0.78092 0.0
C1184 C 0.90812 0.13162 0.79092 0.0
C1185 C 0.90626 0.19858 0.78969 0.0
C1186 C 0.89826 0.22249 0.77843 0.0
C1187 C 0.89209 0.17948 0.76842 0.0
H1188 H 0.91101 0.23196 0.79745 0.0
H1189 H 0.8516 0.80863 0.70141 0.0
H1190 H 0.15539 0.09352 0.81586 0.0
H1191 H 0.15216 0.07459 0.78506 0.0
H1192 H 0.11807 0.04621 0.79525 0.0
H1193 H 0.12135 0.06465 0.82661 0.0
H1194 H 0.12571 0.95528 0.77183 0.0
H1195 H 0.12656 0.18551 0.77551 0.0
H1196 H 0.13334 0.29334 0.78431 0.0
H1197 H 0.16302 0.25923 0.75645 0.0
H1198 H 0.15648 0.15075 0.74769 0.0
H1199 H 0.12116 0.9623 0.6758 0.0
H1200 H 0.1179 0.98635 0.70693 0.0
H1201 H 0.15233 1.0098 0.71478 0.0
H1202 H 0.15558 0.98518 0.68429 0.0
H1203 H 0.14041 0.11194 0.72867 0.0
H1204 H 0.13997 0.87553 0.72847 0.0
H1205 H 0.13292 0.76814 0.71979 0.0
H1206 H 0.10165 0.81712 0.74077 0.0
H1207 H 0.10849 0.92527 0.74935 0.0
C1208 C 0.14716 0.0837 0.81163 0.0
C1209 C 0.13862 0.08122 0.82377 0.0
C1210 C 0.14531 0.07299 0.79389 0.0
C1211 C 0.13483 0.05977 0.78758 0.0
C1212 C 0.12623 0.05658 0.79968 0.0
C1213 C 0.12809 0.06756 0.8176 0.0
C1214 C 0.13315 0.04925 0.76837 0.0
C1215 C 0.1287 0.99029 0.7624 0.0
C1216 C 0.13708 0.09438 0.75586 0.0
C1217 C 0.14105 0.15977 0.76102 0.0
C1218 C 0.13456 0.2008 0.77135 0.0
C1219 C 0.13836 0.26208 0.77632 0.0
C1220 C 0.14861 0.28309 0.77096 0.0
C1221 C 0.15508 0.24289 0.76059 0.0
C1222 C 0.15132 0.18153 0.7556 0.0
C1223 C 0.128 0.97225 0.68424 0.0
C1224 C 0.13863 0.9718 0.67749 0.0
C1225 C 0.12614 0.98593 0.70204 0.0
C1226 C 0.13488 1.00019 0.71331 0.0
C1227 C 0.14543 0.9994 0.70647 0.0
C1228 C 0.14728 0.98502 0.68893 0.0
C1229 C 0.13332 1.01725 0.73217 0.0
C1230 C 0.1372 0.07756 0.73808 0.0
C1231 C 0.12879 0.97362 0.74452 0.0
C1232 C 0.12469 0.90879 0.73932 0.0
C1233 C 0.13156 0.86367 0.73106 0.0
C1234 C 0.12761 0.8026 0.7262 0.0
C1235 C 0.11684 0.78591 0.72966 0.0
C1236 C 0.10999 0.83019 0.73805 0.0
C1237 C 0.1139 0.89136 0.74292 0.0
H1238 H 0.1138 0.73859 0.7259 0.0
H1239 H 0.15154 0.33055 0.77482 0.0
H1240 H 0.6521 0.54303 0.32001 0.0
H1241 H 0.6492 0.56189 0.28917 0.0
H1242 H 0.62014 0.44534 0.29087 0.0
H1243 H 0.62322 0.42455 0.32222 0.0
H1244 H 0.63176 0.42266 0.26076 0.0
H1245 H 0.6183 0.61152 0.28944 0.0
H1246 H 0.61882 0.7013 0.31066 0.0
H1247 H 0.64698 0.78017 0.28542 0.0
H1248 H 0.64673 0.69035 0.26417 0.0
H1249 H 0.62183 0.55011 0.17368 0.0
H1250 H 0.61864 0.52769 0.20486 0.0
H1251 H 0.64953 0.6142 0.21738 0.0
H1252 H 0.65281 0.63513 0.18651 0.0
H1253 H 0.63301 0.65205 0.2404 0.0
H1254 H 0.6478 0.45624 0.2148 0.0
H1255 H 0.64782 0.36607 0.19374 0.0
H1256 H 0.61706 0.30063 0.21333 0.0
H1257 H 0.61676 0.39154 0.2343 0.0
C1258 C 0.64508 0.52099 0.31393 0.0
C1259 C 0.63786 0.48248 0.3237 0.0
C1260 C 0.6434 0.53219 0.29619 0.0
C1261 C 0.63431 0.5064 0.2876 0.0
C1262 C 0.62718 0.46628 0.29716 0.0
C1263 C 0.62893 0.45447 0.31508 0.0
C1264 C 0.63242 0.52299 0.26877 0.0
C1265 C 0.63175 0.47288 0.25637 0.0
C1266 C 0.63253 0.58853 0.26283 0.0
C1267 C 0.63251 0.64397 0.27523 0.0
C1268 C 0.62462 0.64791 0.28843 0.0
C1269 C 0.62487 0.6988 0.30047 0.0
C1270 C 0.63293 0.74637 0.2994 0.0
C1271 C 0.64073 0.74331 0.28622 0.0
C1272 C 0.64053 0.69248 0.27415 0.0
C1273 C 0.62784 0.56511 0.18315 0.0
C1274 C 0.63757 0.59448 0.17764 0.0
C1275 C 0.62605 0.552 0.20095 0.0
C1276 C 0.63387 0.56902 0.21355 0.0
C1277 C 0.64335 0.60068 0.20801 0.0
C1278 C 0.64523 0.61258 0.19031 0.0
C1279 C 0.63259 0.55179 0.23242 0.0
C1280 C 0.63272 0.6019 0.24483 0.0
C1281 C 0.63194 0.48641 0.23832 0.0
C1282 C 0.63219 0.43116 0.22595 0.0
C1283 C 0.641 0.42296 0.21452 0.0
C1284 C 0.64107 0.37165 0.20261 0.0
C1285 C 0.63244 0.32765 0.20216 0.0
C1286 C 0.62373 0.33483 0.21367 0.0
C1287 C 0.6236 0.38628 0.22556 0.0
H1288 H 0.63251 0.28795 0.19292 0.0
H1289 H 0.63313 0.78563 0.30876 0.0
H1290 H 0.35839 0.61107 0.31505 0.0
H1291 H 0.36135 0.5869 0.28442 0.0
H1292 H 0.39507 0.54614 0.29488 0.0
H1293 H 0.39211 0.57048 0.32604 0.0
H1294 H 0.38938 0.61981 0.26058 0.0
H1295 H 0.38079 0.42625 0.29354 0.0
H1296 H 0.36975 0.36979 0.31561 0.0
H1297 H 0.34139 0.39235 0.28361 0.0
H1298 H 0.35214 0.45212 0.26174 0.0
H1299 H 0.39073 0.46793 0.17571 0.0
H1300 H 0.39401 0.48885 0.20686 0.0
H1301 H 0.35948 0.48371 0.21627 0.0
H1302 H 0.35627 0.46122 0.18561 0.0
H1303 H 0.36876 0.42515 0.24165 0.0
H1304 H 0.37504 0.62599 0.21137 0.0
H1305 H 0.38401 0.69629 0.18972 0.0
H1306 H 0.41449 0.67113 0.21608 0.0
H1307 H 0.40579 0.59813 0.23747 0.0
C1308 C 0.36651 0.59794 0.3109 0.0
C1309 C 0.375 0.59225 0.32309 0.0
C1310 C 0.36819 0.58429 0.29329 0.0
C1311 C 0.37841 0.56427 0.28726 0.0
C1312 C 0.38711 0.56174 0.29918 0.0
C1313 C 0.38541 0.57545 0.317 0.0
C1314 C 0.37944 0.53972 0.26897 0.0
C1315 C 0.3851 0.57638 0.25647 0.0
C1316 C 0.37359 0.48409 0.26346 0.0
C1317 C 0.36727 0.44419 0.27604 0.0
C1318 C 0.37219 0.41956 0.29124 0.0
C1319 C 0.36597 0.38714 0.30375 0.0
C1320 C 0.35488 0.37739 0.30101 0.0
C1321 C 0.34998 0.4 0.28573 0.0
C1322 C 0.35613 0.4334 0.2733 0.0
C1323 C 0.38388 0.4706 0.18451 0.0
C1324 C 0.37324 0.46293 0.17815 0.0
C1325 C 0.38574 0.48298 0.20232 0.0
C1326 C 0.37699 0.48869 0.21409 0.0
C1327 C 0.36641 0.47947 0.20767 0.0
C1328 C 0.36458 0.46678 0.19002 0.0
C1329 C 0.37858 0.50568 0.23298 0.0
C1330 C 0.3733 0.4677 0.24568 0.0
C1331 C 0.38459 0.56088 0.23854 0.0
C1332 C 0.38979 0.60579 0.22589 0.0
C1333 C 0.38368 0.63489 0.21247 0.0
C1334 C 0.38871 0.67525 0.20024 0.0
C1335 C 0.3998 0.68838 0.20155 0.0
C1336 C 0.4059 0.66088 0.21507 0.0
C1337 C 0.40093 0.61973 0.2272 0.0
H1338 H 0.40367 0.71988 0.19211 0.0
H1339 H 0.35009 0.35217 0.31071 0.0
H1340 H 0.39218 0.47704 0.82819 0.0
H1341 H 0.39571 0.5015 0.79718 0.0
H1342 H 0.36145 0.48656 0.78636 0.0
H1343 H 0.35794 0.4627 0.81689 0.0
H1344 H 0.39141 0.43537 0.76576 0.0
H1345 H 0.35386 0.6019 0.75779 0.0
H1346 H 0.34266 0.67633 0.7754 0.0
H1347 H 0.36977 0.712 0.80923 0.0
H1348 H 0.38117 0.63851 0.79168 0.0
H1349 H 0.37116 0.46617 0.67922 0.0
H1350 H 0.37422 0.45087 0.71039 0.0
H1351 H 0.38699 0.64561 0.71394 0.0
H1352 H 0.38408 0.66082 0.68241 0.0
H1353 H 0.37133 0.62006 0.73903 0.0
H1354 H 0.40359 0.51999 0.71846 0.0
H1355 H 0.41475 0.44622 0.70061 0.0
H1356 H 0.39912 0.28077 0.72378 0.0
H1357 H 0.38759 0.3535 0.74137 0.0
C1358 C 0.38545 0.47857 0.81914 0.0
C1359 C 0.37478 0.46826 0.82509 0.0
C1360 C 0.38745 0.49253 0.8014 0.0
C1361 C 0.37882 0.49703 0.78936 0.0
C1362 C 0.36825 0.48466 0.79531 0.0
C1363 C 0.36626 0.47069 0.81286 0.0
C1364 C 0.3806 0.51566 0.77064 0.0
C1365 C 0.38707 0.47596 0.75994 0.0
C1366 C 0.37509 0.56925 0.76294 0.0
C1367 C 0.36835 0.61439 0.77346 0.0
C1368 C 0.35745 0.62593 0.76892 0.0
C1369 C 0.35106 0.66788 0.77891 0.0
C1370 C 0.35548 0.69878 0.79344 0.0
C1371 C 0.36633 0.68792 0.798 0.0
C1372 C 0.37276 0.64605 0.78804 0.0
C1373 C 0.37475 0.50561 0.68657 0.0
C1374 C 0.37735 0.56483 0.6783 0.0
C1375 C 0.37654 0.49664 0.70443 0.0
C1376 C 0.38089 0.54686 0.71464 0.0
C1377 C 0.38365 0.60595 0.70639 0.0
C1378 C 0.38203 0.61459 0.68835 0.0
C1379 C 0.38183 0.53846 0.73401 0.0
C1380 C 0.3758 0.57995 0.74484 0.0
C1381 C 0.38774 0.48647 0.74176 0.0
C1382 C 0.39464 0.44239 0.73116 0.0
C1383 C 0.40243 0.46791 0.71961 0.0
C1384 C 0.40882 0.42624 0.70953 0.0
C1385 C 0.40761 0.35885 0.711 0.0
C1386 C 0.40002 0.33299 0.72259 0.0
C1387 C 0.39354 0.37444 0.73261 0.0
H1388 H 0.41257 0.32665 0.7032 0.0
H1389 H 0.35049 0.73119 0.80113 0.0
H1390 H 0.62269 0.62092 0.82367 0.0
H1391 H 0.62002 0.60662 0.79198 0.0
H1392 H 0.64956 0.4941 0.78942 0.0
H1393 H 0.65219 0.50751 0.82052 0.0
H1394 H 0.64875 0.58838 0.76399 0.0
H1395 H 0.62476 0.42194 0.78831 0.0
H1396 H 0.60909 0.38748 0.80603 0.0
H1397 H 0.58789 0.50599 0.77475 0.0
H1398 H 0.60348 0.54184 0.75699 0.0
H1399 H 0.6532 0.41767 0.68715 0.0
H1400 H 0.65048 0.44498 0.71769 0.0
H1401 H 0.61886 0.52366 0.70554 0.0
H1402 H 0.62146 0.49382 0.67471 0.0
H1403 H 0.61828 0.46668 0.73722 0.0
H1404 H 0.64087 0.62506 0.71101 0.0
H1405 H 0.65598 0.66751 0.6933 0.0
H1406 H 0.67899 0.57778 0.72792 0.0
H1407 H 0.66401 0.53386 0.74569 0.0
C1408 C 0.62858 0.59312 0.81629 0.0
C1409 C 0.63769 0.56574 0.82468 0.0
C1410 C 0.62704 0.58479 0.79819 0.0
C1411 C 0.63462 0.5493 0.78819 0.0
C1412 C 0.64363 0.52197 0.79669 0.0
C1413 C 0.6451 0.52969 0.81459 0.0
C1414 C 0.63354 0.54042 0.76887 0.0
C1415 C 0.64209 0.56156 0.75818 0.0
C1416 C 0.62467 0.50781 0.76102 0.0
C1417 C 0.61529 0.4851 0.77145 0.0
C1418 C 0.61677 0.44095 0.78528 0.0
C1419 C 0.6079 0.42113 0.79532 0.0
C1420 C 0.5975 0.4447 0.79155 0.0
C1421 C 0.59595 0.48788 0.77768 0.0
C1422 C 0.6048 0.50792 0.76762 0.0
C1423 C 0.64559 0.43992 0.69098 0.0
C1424 C 0.63758 0.45382 0.67846 0.0
C1425 C 0.64406 0.45604 0.70849 0.0
C1426 C 0.63458 0.48823 0.71403 0.0
C1427 C 0.62629 0.49938 0.70169 0.0
C1428 C 0.62777 0.48222 0.68406 0.0
C1429 C 0.63376 0.51223 0.73249 0.0
C1430 C 0.62487 0.49427 0.74296 0.0
C1431 C 0.64224 0.549 0.74018 0.0
C1432 C 0.65131 0.57584 0.72963 0.0
C1433 C 0.64915 0.61406 0.7148 0.0
C1434 C 0.65769 0.63842 0.70475 0.0
C1435 C 0.66844 0.62531 0.70947 0.0
C1436 C 0.67066 0.5879 0.72428 0.0
C1437 C 0.66215 0.56332 0.73436 0.0
H1438 H 0.67504 0.64421 0.70167 0.0
H1439 H 0.59065 0.42939 0.79936 0.0
H1440 H 0.14433 0.0477 0.92561 0.0
H1441 H 0.14705 0.04589 0.95736 0.0
H1442 H 0.1195 0.1738 0.9637 0.0
H1443 H 0.11705 0.17746 0.93226 0.0
H1444 H 0.13374 0.21029 0.98535 0.0
H1445 H 0.11921 0.9991 0.97093 0.0
H1446 H 0.11891 0.89287 0.95604 0.0
H1447 H 0.14964 0.84303 0.97901 0.0
H1448 H 0.15018 0.94939 0.99387 0.0
H1449 H 0.11227 0.13303 0.06811 0.0
H1450 H 0.11608 0.13676 0.03698 0.0
H1451 H 0.14867 0.06866 0.04653 0.0
H1452 H 0.14494 0.06644 0.07819 0.0
H1453 H 0.13549 1.00123 0.01768 0.0
H1454 H 0.14795 0.21166 0.03552 0.0
H1455 H 0.14672 0.31649 0.05093 0.0
H1456 H 0.11813 0.36626 0.0217 0.0
H1457 H 0.1191 0.26121 0.0063 0.0
C1458 C 0.13892 0.07576 0.93381 0.0
C1459 C 0.13044 0.11245 0.92633 0.0
C1460 C 0.14042 0.07436 0.95202 0.0
C1461 C 0.13338 0.10891 0.96321 0.0
C1462 C 0.12509 0.14663 0.95559 0.0
C1463 C 0.12366 0.14851 0.93749 0.0
C1464 C 0.1344 0.10589 0.98278 0.0
C1465 C 0.13409 0.16435 0.99232 0.0
C1466 C 0.13512 0.04636 0.9922 0.0
C1467 C 0.1348 0.98246 0.98332 0.0
C1468 C 0.12594 0.96566 0.9727 0.0
C1469 C 0.12572 0.90542 0.96428 0.0
C1470 C 0.13427 0.86132 0.96653 0.0
C1471 C 0.14303 0.87731 0.97725 0.0
C1472 C 0.1433 0.93754 0.98567 0.0
C1473 C 0.1203 0.11911 0.06368 0.0
C1474 C 0.12831 0.09956 0.0757 0.0
C1475 C 0.12246 0.12128 0.04581 0.0
C1476 C 0.13265 0.10297 0.0393 0.0
C1477 C 0.14072 0.08294 0.05121 0.0
C1478 C 0.13861 0.082 0.0693 0.0
C1479 C 0.13461 0.10539 0.02003 0.0
C1480 C 0.13538 0.047 0.01061 0.0
C1481 C 0.13414 0.16486 0.01068 0.0
C1482 C 0.13356 0.22829 0.01984 0.0
C1483 C 0.14135 0.24471 0.03248 0.0
C1484 C 0.14071 0.30424 0.0412 0.0
C1485 C 0.13233 0.34799 0.03732 0.0
C1486 C 0.12461 0.33232 0.02469 0.0
C1487 C 0.12521 0.27281 0.01595 0.0
H1488 H 0.13184 0.39407 0.04407 0.0
H1489 H 0.13408 0.8147 0.96 0.0
H1490 H 0.87163 0.03803 0.92524 0.0
H1491 H 0.86889 0.04119 0.95698 0.0
H1492 H 0.8886 0.8687 0.96269 0.0
H1493 H 0.89135 0.86548 0.93121 0.0
H1494 H 0.87069 0.86198 0.98325 0.0
H1495 H 0.89883 1.01998 0.97093 0.0
H1496 H 0.9063 0.11768 0.9566 0.0
H1497 H 0.8812 0.23504 0.97943 0.0
H1498 H 0.87349 0.13779 0.99372 0.0
H1499 H 0.88943 0.86008 0.06993 0.0
H1500 H 0.88715 0.86466 0.03838 0.0
H1501 H 0.86816 0.04021 0.04342 0.0
H1502 H 0.87047 0.03581 0.07526 0.0
H1503 H 0.88307 0.05248 0.01744 0.0
H1504 H 0.85591 0.89926 0.03217 0.0
H1505 H 0.84787 0.80299 0.04634 0.0
H1506 H 0.87006 0.67848 0.01895 0.0
H1507 H 0.87835 0.77416 0.00479 0.0
C1508 C 0.87532 1.00063 0.93328 0.0
C1509 C 0.88176 0.9517 0.92568 0.0
C1510 C 0.87378 1.00259 0.95144 0.0
C1511 C 0.87861 0.95546 0.96237 0.0
C1512 C 0.88478 0.90566 0.95466 0.0
C1513 C 0.88638 0.904 0.93661 0.0
C1514 C 0.87755 0.95812 0.98181 0.0
C1515 C 0.87347 0.90351 0.99071 0.0
C1516 C 0.88082 1.01301 0.99166 0.0
C1517 C 0.88551 0.07153 0.98323 0.0
C1518 C 0.89486 0.06655 0.97279 0.0
C1519 C 0.89914 0.12184 0.96469 0.0
C1520 C 0.8942 0.1825 0.96705 0.0
C1521 C 0.885 0.188 0.97758 0.0
C1522 C 0.88067 0.13283 0.9857 0.0
C1523 C 0.88466 0.89937 0.06438 0.0
C1524 C 0.88012 0.94751 0.07516 0.0
C1525 C 0.88334 0.90187 0.04627 0.0
C1526 C 0.87741 0.95256 0.03837 0.0
C1527 C 0.87276 1.00054 0.04912 0.0
C1528 C 0.87403 0.99778 0.06734 0.0
C1529 C 0.87643 0.9557 0.0189 0.0
C1530 C 0.88015 1.01126 0.01 0.0
C1531 C 0.87274 0.90186 0.00903 0.0
C1532 C 0.86781 0.844 0.01751 0.0
C1533 C 0.85914 0.85141 0.02927 0.0
C1534 C 0.85453 0.79694 0.03728 0.0
C1535 C 0.85845 0.73468 0.03355 0.0
C1536 C 0.86702 0.72676 0.02182 0.0
C1537 C 0.87167 0.78111 0.01378 0.0
H1538 H 0.85484 0.69258 0.03974 0.0
H1539 H 0.89753 0.22524 0.96076 0.0
H1540 H 0.14509 0.96093 0.42408 0.0
H1541 H 0.14831 0.96522 0.45582 0.0
H1542 H 0.11387 0.98619 0.46438 0.0
H1543 H 0.1107 0.98235 0.43318 0.0
H1544 H 0.12438 0.06985 0.4841 0.0
H1545 H 0.128 0.83959 0.47087 0.0
H1546 H 0.13635 0.74515 0.45626 0.0
H1547 H 0.16721 0.79207 0.47902 0.0
H1548 H 0.15905 0.88732 0.49359 0.0
H1549 H 0.11044 0.9743 0.56788 0.0
H1550 H 0.11373 0.97892 0.53672 0.0
H1551 H 0.14825 0.96895 0.5458 0.0
H1552 H 0.14492 0.96375 0.57753 0.0
H1553 H 0.14173 0.89066 0.5175 0.0
H1554 H 0.13722 0.11194 0.53429 0.0
H1555 H 0.1286 0.20496 0.5491 0.0
H1556 H 0.09943 0.17584 0.51951 0.0
H1557 H 0.10781 0.082 0.5047 0.0
C1558 C 0.13825 0.96652 0.43278 0.0
C1559 C 0.12764 0.97127 0.42603 0.0
C1560 C 0.14007 0.96874 0.45096 0.0
C1561 C 0.13132 0.97584 0.4627 0.0
C1562 C 0.12079 0.981 0.45579 0.0
C1563 C 0.11899 0.97859 0.43783 0.0
C1564 C 0.13282 0.9783 0.48215 0.0
C1565 C 0.12816 0.03047 0.49135 0.0
C1566 C 0.13808 0.92831 0.49181 0.0
C1567 C 0.14295 0.87098 0.48313 0.0
C1568 C 0.13658 0.83004 0.47264 0.0
C1569 C 0.14127 0.77633 0.46439 0.0
C1570 C 0.15231 0.76275 0.46666 0.0
C1571 C 0.15866 0.80274 0.47724 0.0
C1572 C 0.15401 0.85657 0.4855 0.0
C1573 C 0.11876 0.97314 0.56336 0.0
C1574 C 0.12741 0.96906 0.57531 0.0
C1575 C 0.12064 0.97596 0.54543 0.0
C1576 C 0.13125 0.97525 0.53872 0.0
C1577 C 0.13997 0.96986 0.55056 0.0
C1578 C 0.13808 0.96713 0.56871 0.0
C1579 C 0.13292 0.98104 0.51938 0.0
C1580 C 0.13815 0.93063 0.51023 0.0
C1581 C 0.12819 0.03273 0.50969 0.0
C1582 C 0.12314 0.08967 0.51843 0.0
C1583 C 0.12895 0.12512 0.53101 0.0
C1584 C 0.1241 0.17803 0.5394 0.0
C1585 C 0.11347 0.19626 0.53527 0.0
C1586 C 0.10767 0.16168 0.5227 0.0
C1587 C 0.11247 0.10867 0.51428 0.0
H1588 H 0.10972 0.23721 0.54177 0.0
H1589 H 0.15593 0.72114 0.46026 0.0
H1590 H 0.86765 0.08584 0.5768 0.0
H1591 H 0.86424 0.08926 0.54509 0.0
H1592 H 0.89864 0.10757 0.5359 0.0
H1593 H 0.90202 0.10414 0.56708 0.0
H1594 H 0.88756 0.19353 0.51635 0.0
H1595 H 0.88511 0.96306 0.53022 0.0
H1596 H 0.87728 0.8678 0.54521 0.0
H1597 H 0.8461 0.90983 0.52273 0.0
H1598 H 0.85372 1.00594 0.50778 0.0
H1599 H 0.9021 0.09349 0.43348 0.0
H1600 H 0.89859 0.09837 0.4646 0.0
H1601 H 0.86413 0.09219 0.45489 0.0
H1602 H 0.86766 0.08719 0.42322 0.0
H1603 H 0.87096 1.01117 0.48362 0.0
H1604 H 0.87432 0.23219 0.46602 0.0
H1605 H 0.88242 0.32595 0.45074 0.0
H1606 H 0.91178 0.30286 0.48032 0.0
H1607 H 0.90393 0.20826 0.49558 0.0
C1608 C 0.87444 0.09061 0.56796 0.0
C1609 C 0.8851 0.09473 0.5745 0.0
C1610 C 0.87251 0.09238 0.54983 0.0
C1611 C 0.88119 0.09866 0.53797 0.0
C1612 C 0.89178 0.10306 0.54464 0.0
C1613 C 0.8937 0.10084 0.56257 0.0
C1614 C 0.87956 0.10084 0.51859 0.0
C1615 C 0.88392 0.15357 0.50924 0.0
C1616 C 0.8745 0.04993 0.50916 0.0
C1617 C 0.86995 0.99211 0.51807 0.0
C1618 C 0.87656 0.9523 0.52859 0.0
C1619 C 0.87217 0.8981 0.53706 0.0
C1620 C 0.86119 0.8829 0.53497 0.0
C1621 C 0.85459 0.92176 0.52437 0.0
C1622 C 0.85895 0.97608 0.51589 0.0
C1623 C 0.89375 0.09306 0.43786 0.0
C1624 C 0.88516 0.09039 0.42579 0.0
C1625 C 0.89175 0.09599 0.45575 0.0
C1626 C 0.88109 0.09645 0.46222 0.0
C1627 C 0.87243 0.09213 0.45026 0.0
C1628 C 0.87445 0.08953 0.43217 0.0
C1629 C 0.87931 0.10281 0.48146 0.0
C1630 C 0.87436 0.05183 0.49076 0.0
C1631 C 0.88381 0.15546 0.49091 0.0
C1632 C 0.88855 0.21284 0.48189 0.0
C1633 C 0.88253 0.24682 0.46919 0.0
C1634 C 0.88708 0.30016 0.46054 0.0
C1635 C 0.89761 0.3203 0.46454 0.0
C1636 C 0.90362 0.28721 0.47723 0.0
C1637 C 0.89912 0.23376 0.48591 0.0
H1638 H 0.90112 0.36161 0.45784 0.0
H1639 H 0.8578 0.84092 0.54153 0.0
H1640 H 0.60969 0.59997 0.06825 0.0
H1641 H 0.61289 0.59378 0.03709 0.0
H1642 H 0.6474 0.58332 0.04614 0.0
H1643 H 0.64419 0.59022 0.07787 0.0
H1644 H 0.64198 0.66419 0.0174 0.0
H1645 H 0.6344 0.44723 0.03556 0.0
H1646 H 0.62451 0.36046 0.05106 0.0
H1647 H 0.59576 0.4036 0.02151 0.0
H1648 H 0.60543 0.49132 0.00601 0.0
H1649 H 0.6447 0.58511 0.92488 0.0
H1650 H 0.64759 0.58253 0.95667 0.0
H1651 H 0.61292 0.57756 0.96456 0.0
H1652 H 0.61007 0.57914 0.93322 0.0
H1653 H 0.62213 0.49243 0.98524 0.0
H1654 H 0.62904 0.71857 0.97023 0.0
H1655 H 0.63874 0.8068 0.95497 0.0
H1656 H 0.66875 0.74569 0.97842 0.0
H1657 H 0.65925 0.65655 0.99366 0.0
C1658 C 0.618 0.5965 0.06372 0.0
C1659 C 0.62668 0.59515 0.07564 0.0
C1660 C 0.61981 0.5928 0.0458 0.0
C1661 C 0.63038 0.58702 0.03912 0.0
C1662 C 0.63916 0.58745 0.05092 0.0
C1663 C 0.63733 0.59123 0.06905 0.0
C1664 C 0.63193 0.57905 0.01985 0.0
C1665 C 0.63783 0.62579 0.01039 0.0
C1666 C 0.62646 0.52941 0.01053 0.0
C1667 C 0.62064 0.47611 0.01968 0.0
C1668 C 0.62596 0.43848 0.03243 0.0
C1669 C 0.62039 0.38909 0.04122 0.0
C1670 C 0.60951 0.37658 0.03729 0.0
C1671 C 0.60419 0.41334 0.02454 0.0
C1672 C 0.60971 0.46284 0.01573 0.0
C1673 C 0.63773 0.58335 0.93345 0.0
C1674 C 0.62715 0.58229 0.92648 0.0
C1675 C 0.63937 0.58219 0.95165 0.0
C1676 C 0.63047 0.5802 0.9632 0.0
C1677 C 0.61996 0.57882 0.9561 0.0
C1678 C 0.61833 0.57992 0.93808 0.0
C1679 C 0.63183 0.57898 0.98266 0.0
C1680 C 0.62645 0.53025 0.9922 0.0
C1681 C 0.63778 0.62672 0.99197 0.0
C1682 C 0.64346 0.68048 0.98291 0.0
C1683 C 0.63772 0.72368 0.97203 0.0
C1684 C 0.64318 0.77389 0.9634 0.0
C1685 C 0.65436 0.78171 0.96567 0.0
C1686 C 0.6601 0.73948 0.97663 0.0
C1687 C 0.65468 0.68914 0.98528 0.0
H1688 H 0.65857 0.8206 0.95898 0.0
H1689 H 0.60522 0.33834 0.04411 0.0
H1690 H 0.36895 0.50094 0.92475 0.0
H1691 H 0.36531 0.50063 0.95643 0.0
H1692 H 0.39645 0.41066 0.96559 0.0
H1693 H 0.40024 0.41306 0.93439 0.0
H1694 H 0.37695 0.35277 0.98416 0.0
H1695 H 0.3961 0.55752 0.97245 0.0
H1696 H 0.39779 0.66412 0.95786 0.0
H1697 H 0.36711 0.72383 0.97912 0.0
H1698 H 0.36517 0.61708 0.99363 0.0
H1699 H 0.39519 0.37678 0.06996 0.0
H1700 H 0.39233 0.37971 0.03859 0.0
H1701 H 0.36702 0.52298 0.04513 0.0
H1702 H 0.36998 0.5206 0.07689 0.0
H1703 H 0.3795 0.557 0.01825 0.0
H1704 H 0.36077 0.36705 0.0333 0.0
H1705 H 0.3568 0.2613 0.04707 0.0
H1706 H 0.38322 0.17341 0.01921 0.0
H1707 H 0.38748 0.27898 0.00546 0.0
C1708 C 0.37496 0.48079 0.93356 0.0
C1709 C 0.38489 0.45709 0.92707 0.0
C1710 C 0.3729 0.48076 0.95164 0.0
C1711 C 0.38062 0.45557 0.96345 0.0
C1712 C 0.39035 0.43021 0.95683 0.0
C1713 C 0.39252 0.43175 0.93894 0.0
C1714 C 0.37889 0.45659 0.98274 0.0
C1715 C 0.37754 0.39734 0.99164 0.0
C1716 C 0.37919 0.51493 0.99251 0.0
C1717 C 0.38042 0.5791 0.98392 0.0
C1718 C 0.38966 0.59314 0.97386 0.0
C1719 C 0.39068 0.65363 0.96565 0.0
C1720 C 0.38255 0.70064 0.96751 0.0
C1721 C 0.3734 0.68732 0.97765 0.0
C1722 C 0.37234 0.62686 0.98588 0.0
C1723 C 0.38895 0.40871 0.0648 0.0
C1724 C 0.38281 0.44842 0.07601 0.0
C1725 C 0.38728 0.41012 0.04677 0.0
C1726 C 0.37937 0.45101 0.0393 0.0
C1727 C 0.37317 0.49083 0.05047 0.0
C1728 C 0.37483 0.48925 0.06864 0.0
C1729 C 0.37793 0.45264 0.01984 0.0
C1730 C 0.37872 0.51231 0.01088 0.0
C1731 C 0.37682 0.39471 0.00996 0.0
C1732 C 0.37449 0.33116 0.01842 0.0
C1733 C 0.36581 0.32537 0.03023 0.0
C1734 C 0.3635 0.26542 0.03802 0.0
C1735 C 0.36975 0.21069 0.03401 0.0
C1736 C 0.37838 0.21587 0.02228 0.0
C1737 C 0.38074 0.27577 0.01448 0.0
H1738 H 0.36788 0.16425 0.03996 0.0
H1739 H 0.38335 0.74744 0.96114 0.0
H1740 H 0.63877 0.53263 0.42622 0.0
H1741 H 0.64007 0.537 0.45815 0.0
H1742 H 0.62209 0.35745 0.46181 0.0
H1743 H 0.62048 0.35436 0.43017 0.0
H1744 H 0.61424 0.43671 0.48415 0.0
H1745 H 0.65095 0.37398 0.4694 0.0
H1746 H 0.6686 0.3873 0.45465 0.0
H1747 H 0.67336 0.57005 0.48053 0.0
H1748 H 0.65566 0.55826 0.49524 0.0
H1749 H 0.62099 0.34551 0.57096 0.0
H1750 H 0.6229 0.35041 0.53938 0.0
H1751 H 0.63976 0.53342 0.54382 0.0
H1752 H 0.63821 0.52716 0.57578 0.0
H1753 H 0.64835 0.46439 0.51764 0.0
H1754 H 0.61204 0.52504 0.53318 0.0
H1755 H 0.59433 0.51254 0.54778 0.0
H1756 H 0.58873 0.33464 0.51999 0.0
H1757 H 0.60647 0.34562 0.5054 0.0
C1758 C 0.63517 0.49392 0.43388 0.0
C1759 C 0.62949 0.44324 0.42563 0.0
C1760 C 0.63595 0.49624 0.45218 0.0
C1761 C 0.63124 0.44729 0.46262 0.0
C1762 C 0.62576 0.39613 0.45424 0.0
C1763 C 0.62488 0.39425 0.43607 0.0
C1764 C 0.63154 0.4497 0.48221 0.0
C1765 C 0.62175 0.44195 0.49139 0.0
C1766 C 0.64123 0.45892 0.49192 0.0
C1767 C 0.65193 0.46555 0.48328 0.0
C1768 C 0.65573 0.4172 0.47186 0.0
C1769 C 0.66575 0.42445 0.46351 0.0
C1770 C 0.67208 0.47957 0.46661 0.0
C1771 C 0.66843 0.52743 0.47812 0.0
C1772 C 0.65842 0.52047 0.48647 0.0
C1773 C 0.62522 0.38652 0.56526 0.0
C1774 C 0.62935 0.43623 0.5759 0.0
C1775 C 0.62625 0.38953 0.54712 0.0
C1776 C 0.6312 0.44325 0.53899 0.0
C1777 C 0.63582 0.49165 0.54965 0.0
C1778 C 0.63493 0.48809 0.56794 0.0
C1779 C 0.63109 0.44941 0.51946 0.0
C1780 C 0.64086 0.45922 0.51034 0.0
C1781 C 0.62137 0.44215 0.50971 0.0
C1782 C 0.61062 0.43595 0.51828 0.0
C1783 C 0.60705 0.4831 0.53024 0.0
C1784 C 0.59701 0.47628 0.53852 0.0
C1785 C 0.59042 0.42277 0.53484 0.0
C1786 C 0.59384 0.37605 0.52284 0.0
C1787 C 0.60389 0.38258 0.51454 0.0
H1788 H 0.58265 0.41756 0.54127 0.0
H1789 H 0.67983 0.48511 0.46013 0.0
H1790 H 0.37032 0.5334 0.57651 0.0
H1791 H 0.36767 0.53179 0.54475 0.0
H1792 H 0.38993 0.69236 0.53934 0.0
H1793 H 0.39242 0.69472 0.57084 0.0
H1794 H 0.37348 0.71131 0.51832 0.0
H1795 H 0.39715 0.52923 0.53091 0.0
H1796 H 0.40225 0.4256 0.54504 0.0
H1797 H 0.37465 0.33202 0.52194 0.0
H1798 H 0.36931 0.43539 0.50784 0.0
H1799 H 0.3921 0.69756 0.43203 0.0
H1800 H 0.38972 0.69387 0.46347 0.0
H1801 H 0.36704 0.53558 0.45798 0.0
H1802 H 0.36963 0.53819 0.42616 0.0
H1803 H 0.38084 0.51108 0.48434 0.0
H1804 H 0.35849 0.69253 0.46892 0.0
H1805 H 0.35414 0.79609 0.45415 0.0
H1806 H 0.37967 0.89151 0.48229 0.0
H1807 H 0.38425 0.78832 0.4971 0.0
C1808 C 0.37459 0.5685 0.56852 0.0
C1809 C 0.38164 0.61392 0.57624 0.0
C1810 C 0.37312 0.56738 0.55032 0.0
C1811 C 0.3787 0.61149 0.53944 0.0
C1812 C 0.38551 0.65773 0.54728 0.0
C1813 C 0.38697 0.65886 0.56537 0.0
C1814 C 0.37767 0.60964 0.51993 0.0
C1815 C 0.37515 0.6675 0.51094 0.0
C1816 C 0.37954 0.55231 0.51009 0.0
C1817 C 0.38276 0.49018 0.5185 0.0
C1818 C 0.39212 0.48666 0.52896 0.0
C1819 C 0.39506 0.42797 0.53694 0.0
C1820 C 0.38875 0.37231 0.53444 0.0
C1821 C 0.37951 0.3752 0.5239 0.0
C1822 C 0.37653 0.43381 0.5159 0.0
C1823 C 0.38652 0.66219 0.43743 0.0
C1824 C 0.38104 0.61826 0.4265 0.0
C1825 C 0.38512 0.66033 0.45551 0.0
C1826 C 0.37808 0.61505 0.46328 0.0
C1827 C 0.3725 0.5712 0.45239 0.0
C1828 C 0.37394 0.57294 0.43418 0.0
C1829 C 0.37688 0.61307 0.48276 0.0
C1830 C 0.37899 0.55462 0.49173 0.0
C1831 C 0.37466 0.66993 0.4926 0.0
C1832 C 0.37175 0.73253 0.48406 0.0
C1833 C 0.3632 0.73553 0.47192 0.0
C1834 C 0.36069 0.79418 0.46354 0.0
C1835 C 0.36664 0.85032 0.46726 0.0
C1836 C 0.37507 0.84798 0.47943 0.0
C1837 C 0.37761 0.78945 0.48785 0.0
H1838 H 0.3647 0.89564 0.46072 0.0
H1839 H 0.39104 0.32692 0.54063 0.0
H1840 H 0.96024 0.09728 0.12104 0.0
H1841 H 0.98001 0.10439 0.1214 0.0
H1842 H 0.98171 0.93127 0.1531 0.0
H1843 H 0.96189 0.9229 0.15253 0.0
H1844 H 0.99577 1.02226 0.16487 0.0
H1845 H 0.98774 0.92636 0.10964 0.0
H1846 H 0.97882 0.91756 0.081 0.0
H1847 H 0.99295 0.09923 0.06519 0.0
H1848 H 1.00184 0.10958 0.09384 0.0
H1849 H 0.05247 0.9646 0.154 0.0
H1850 H 0.0327 0.9548 0.1537 0.0
H1851 H 0.03038 0.1249 0.12093 0.0
H1852 H 0.05015 0.13559 0.12131 0.0
H1853 H 0.01662 0.03386 0.10973 0.0
H1854 H 0.02448 0.13059 0.16497 0.0
H1855 H 0.03337 0.13996 0.19363 0.0
H1856 H 0.01953 0.95746 0.20943 0.0
H1857 H 0.01068 0.94656 0.18076 0.0
C1858 C 0.96476 0.0601 0.12795 0.0
C1859 C 0.95932 1.00911 0.13664 0.0
C1860 C 0.97614 0.06442 0.12819 0.0
C1861 C 0.98246 1.01793 0.13708 0.0
C1862 C 0.97708 0.96785 0.14611 0.0
C1863 C 0.96568 0.96332 0.14584 0.0
C1864 C 0.99465 1.02156 0.13691 0.0
C1865 C 1.00032 1.02383 0.15279 0.0
C1866 C 1.00068 1.02515 0.1212 0.0
C1867 C 0.99537 1.01905 0.10395 0.0
C1868 C 0.98887 0.9647 0.10011 0.0
C1869 C 0.98384 0.95938 0.08386 0.0
C1870 C 0.98529 1.00789 0.0713 0.0
C1871 C 0.99182 0.06174 0.07494 0.0
C1872 C 0.99686 0.06733 0.09118 0.0
C1873 C 0.04779 1.00042 0.14682 0.0
C1874 C 0.05304 0.0512 0.13776 0.0
C1875 C 0.03642 0.99463 0.14665 0.0
C1876 C 0.02993 0.03958 0.13748 0.0
C1877 C 0.03514 0.08945 0.12811 0.0
C1878 C 0.04651 0.09533 0.12829 0.0
C1879 C 0.01775 0.03472 0.13769 0.0
C1880 C 0.01208 0.03222 0.12181 0.0
C1881 C 0.01171 0.031 0.1534 0.0
C1882 C 0.01701 0.03744 0.17065 0.0
C1883 C 0.0234 0.0922 0.17451 0.0
C1884 C 0.02842 0.09784 0.19076 0.0
C1885 C 0.02704 0.04925 0.20333 0.0
C1886 C 0.02061 0.99501 0.19968 0.0
C1887 C 0.01558 0.98909 0.18343 0.0
H1888 H 0.03093 0.05371 0.2159 0.0
H1889 H 0.98139 1.00368 0.05873 0.0
H1890 H 0.9607 0.9723 0.34536 0.0
H1891 H 0.98042 0.9625 0.34629 0.0
H1892 H 0.98189 0.11499 0.38466 0.0
H1893 H 0.96215 0.12732 0.38318 0.0
H1894 H 0.99755 0.13324 0.36232 0.0
H1895 H 0.98577 0.94829 0.3949 0.0
H1896 H 0.97543 0.84798 0.4008 0.0
H1897 H 0.99063 0.7547 0.35717 0.0
H1898 H 1.00095 0.85479 0.35086 0.0
H1899 H 0.05339 0.07211 0.38405 0.0
H1900 H 0.03357 0.08272 0.38554 0.0
H1901 H 0.03025 0.94242 0.34427 0.0
H1902 H 0.04999 0.93074 0.34292 0.0
H1903 H 0.01562 0.91886 0.36956 0.0
H1904 H 0.02703 0.10676 0.33684 0.0
H1905 H 0.03743 0.20734 0.33158 0.0
H1906 H 0.02297 0.29507 0.37667 0.0
H1907 H 0.01259 0.19463 0.38233 0.0
C1908 C 0.96517 1.0043 0.35393 0.0
C1909 C 0.95967 0.05072 0.36418 0.0
C1910 C 0.97652 0.998 0.35461 0.0
C1911 C 0.98278 0.03729 0.36574 0.0
C1912 C 0.97734 0.08373 0.37599 0.0
C1913 C 0.96597 0.09026 0.37526 0.0
C1914 C 0.99497 0.03066 0.36643 0.0
C1915 C 1.00146 0.08638 0.36419 0.0
C1916 C 1.00024 0.96958 0.36856 0.0
C1917 C 0.99406 0.90926 0.37231 0.0
C1918 C 0.98685 0.90655 0.38649 0.0
C1919 C 0.981 0.8497 0.38991 0.0
C1920 C 0.98235 0.79506 0.37934 0.0
C1921 C 0.98958 0.7971 0.36533 0.0
C1922 C 0.99544 0.85385 0.36184 0.0
C1923 C 0.04846 0.04313 0.37536 0.0
C1924 C 0.05339 1.00085 0.36328 0.0
C1925 C 0.03708 0.04965 0.37613 0.0
C1926 C 0.03031 1.01394 0.36488 0.0
C1927 C 0.03522 0.97082 0.35306 0.0
C1928 C 0.04657 0.9646 0.35221 0.0
C1929 C 0.01815 1.0213 0.36534 0.0
C1930 C 0.01168 0.9657 0.36778 0.0
C1931 C 0.01291 0.0825 0.36351 0.0
C1932 C 0.01912 0.14294 0.36011 0.0
C1933 C 0.02613 0.14732 0.34571 0.0
C1934 C 0.03201 0.20433 0.34265 0.0
C1935 C 0.03089 0.2575 0.35381 0.0
C1936 C 0.02385 0.25381 0.36804 0.0
C1937 C 0.01796 0.19687 0.37118 0.0
H1938 H 0.03544 0.3016 0.35141 0.0
H1939 H 0.97781 0.75109 0.38202 0.0
H1940 H 0.05032 0.17334 0.87668 0.0
H1941 H 0.03044 0.16733 0.87744 0.0
H1942 H 0.03198 0.96611 0.86169 0.0
H1943 H 0.05176 0.97271 0.86039 0.0
H1944 H 0.01656 1.01742 0.84481 0.0
H1945 H 0.02576 1.02298 0.90554 0.0
H1946 H 0.03418 0.06669 0.93219 0.0
H1947 H 0.01571 0.24313 0.92667 0.0
H1948 H 0.00728 0.20077 0.89986 0.0
H1949 H 0.96291 0.92126 0.86697 0.0
H1950 H 0.98258 0.9364 0.86685 0.0
H1951 H 0.97821 0.14274 0.87408 0.0
H1952 H 0.95843 0.12781 0.87446 0.0
H1953 H 0.99473 0.09445 0.89493 0.0
H1954 H 0.985 0.08348 0.8345 0.0
H1955 H 0.97644 0.03568 0.80849 0.0
H1956 H 0.99597 0.86357 0.81439 0.0
H1957 H 1.00454 0.91 0.84059 0.0
C1958 C 0.04642 0.12769 0.8735 0.0
C1959 C 0.05271 0.0736 0.86843 0.0
C1960 C 0.035 0.12413 0.87399 0.0
C1961 C 0.02953 0.0659 0.86984 0.0
C1962 C 0.03585 1.01184 0.86489 0.0
C1963 C 0.04723 1.01566 0.86415 0.0
C1964 C 0.01729 0.06112 0.87025 0.0
C1965 C 0.01186 0.03357 0.85593 0.0
C1966 C 0.01093 0.08345 0.88448 0.0
C1967 C 0.01598 0.10898 0.9006 0.0
C1968 C 0.02355 0.07129 0.90994 0.0
C1969 C 0.02832 0.09579 0.92509 0.0
C1970 C 0.02551 0.15772 0.93109 0.0
C1971 C 0.0179 0.19521 0.92199 0.0
C1972 C 0.01312 0.17097 0.90683 0.0
C1973 C 0.96609 0.96992 0.86871 0.0
C1974 C 0.95897 1.02325 0.87076 0.0
C1975 C 0.9774 0.97859 0.86849 0.0
C1976 C 0.98199 0.04086 0.8703 0.0
C1977 C 0.97494 0.09417 0.87261 0.0
C1978 C 0.96359 0.08559 0.8727 0.0
C1979 C 0.99411 0.05 0.86963 0.0
C1980 C 0.99948 0.07844 0.88386 0.0
C1981 C 1.00044 1.02787 0.85541 0.0
C1982 C 0.99534 1.0 0.8396 0.0
C1983 C 0.98741 0.03524 0.83033 0.0
C1984 C 0.98256 1.00843 0.81554 0.0
C1985 C 0.98564 0.94656 0.80982 0.0
C1986 C 0.99359 0.91146 0.81885 0.0
C1987 C 0.99845 0.93803 0.83366 0.0
H1988 H 0.98188 0.92588 0.79837 0.0
H1989 H 0.0292 0.1766 0.94282 0.0
H1990 H 0.95983 1.00636 0.61252 0.0
H1991 H 0.97966 0.99677 0.61128 0.0
H1992 H 0.98222 0.09475 0.66065 0.0
H1993 H 0.96247 0.10571 0.6618 0.0
H1994 H 0.99724 0.14046 0.63848 0.0
H1995 H 0.98543 0.92787 0.65693 0.0
H1996 H 0.97503 0.8258 0.6547 0.0
H1997 H 0.99033 0.78367 0.60579 0.0
H1998 H 1.00072 0.88599 0.60761 0.0
H1999 H 0.05172 0.0662 0.66082 0.0
H2000 H 0.03203 0.07657 0.6596 0.0
H2001 H 0.03143 0.96391 0.61235 0.0
H2002 H 0.05114 0.9503 0.61398 0.0
H2003 H 0.01536 0.92611 0.63185 0.0
H2004 H 0.02754 0.13554 0.61332 0.0
H2005 H 0.03789 0.23798 0.61485 0.0
H2006 H 0.02186 0.28726 0.66266 0.0
H2007 H 0.01151 0.18465 0.66154 0.0
C2008 C 0.9646 1.02629 0.62308 0.0
C2009 C 0.95944 0.05648 0.63732 0.0
C2010 C 0.97598 1.02026 0.62242 0.0
C2011 C 0.98254 0.04434 0.63597 0.0
C2012 C 0.97742 0.07544 0.65003 0.0
C2013 C 0.96606 0.08117 0.65075 0.0
C2014 C 0.99471 0.03745 0.63556 0.0
C2015 C 1.00118 0.09343 0.63723 0.0
C2016 C 0.99998 0.97649 0.63341 0.0
C2017 C 0.99376 0.91492 0.63232 0.0
C2018 C 0.98651 0.89709 0.64563 0.0
C2019 C 0.98063 0.83915 0.64445 0.0
C2020 C 0.98199 0.79837 0.63009 0.0
C2021 C 0.98927 0.81536 0.61689 0.0
C2022 C 0.99516 0.8733 0.618 0.0
C2023 C 0.04746 0.04297 0.65021 0.0
C2024 C 0.0532 1.00721 0.63752 0.0
C2025 C 0.03611 0.04976 0.64939 0.0
C2026 C 0.0301 1.02195 0.63573 0.0
C2027 C 0.03578 0.98623 0.62302 0.0
C2028 C 0.04714 0.97907 0.62388 0.0
C2029 C 0.01792 0.02915 0.6349 0.0
C2030 C 0.01144 0.97324 0.63301 0.0
C2031 C 0.01263 0.09029 0.63672 0.0
C2032 C 0.01882 0.15211 0.63742 0.0
C2033 C 0.02628 0.16799 0.62422 0.0
C2034 C 0.03214 0.22613 0.62501 0.0
C2035 C 0.03055 0.26902 0.63886 0.0
C2036 C 0.02309 0.25395 0.65195 0.0
C2037 C 0.01721 0.19584 0.65123 0.0
H2038 H 0.0351 0.31401 0.63945 0.0
H2039 H 0.97743 0.75352 0.6292 0.0
H2040 H 0.4622 0.41287 0.12487 0.0
H2041 H 0.48192 0.42485 0.12396 0.0
H2042 H 0.47882 0.62565 0.13936 0.0
H2043 H 0.45906 0.61488 0.13958 0.0
H2044 H 0.49394 0.61639 0.11529 0.0
H2045 H 0.48659 0.50089 0.16845 0.0
H2046 H 0.47902 0.41269 0.18655 0.0
H2047 H 0.49778 0.2719 0.15826 0.0
H2048 H 0.50536 0.35923 0.13983 0.0
H2049 H 0.54849 0.67102 0.14188 0.0
H2050 H 0.52884 0.65733 0.14043 0.0
H2051 H 0.53313 0.45691 0.12539 0.0
H2052 H 0.55285 0.46942 0.12755 0.0
H2053 H 0.51745 0.46406 0.14852 0.0
H2054 H 0.5252 0.58001 0.09583 0.0
H2055 H 0.53279 0.66833 0.07779 0.0
H2056 H 0.51332 0.80831 0.10514 0.0
H2057 H 0.50572 0.7209 0.1235 0.0
C2058 C 0.46566 0.45996 0.12784 0.0
C2059 C 0.4589 0.51277 0.13238 0.0
C2060 C 0.47701 0.46653 0.12752 0.0
C2061 C 0.48199 0.52593 0.13188 0.0
C2062 C 0.47527 0.57911 0.13603 0.0
C2063 C 0.46391 0.57264 0.13631 0.0
C2064 C 0.49416 0.53269 0.13221 0.0
C2065 C 0.49905 0.58347 0.12274 0.0
C2066 C 0.50098 0.48905 0.14155 0.0
C2067 C 0.49646 0.43652 0.15265 0.0
C2068 C 0.48904 0.45107 0.166 0.0
C2069 C 0.48476 0.40124 0.17634 0.0
C2070 C 0.48789 0.33671 0.17353 0.0
C2071 C 0.49535 0.32189 0.16041 0.0
C2072 C 0.49965 0.37153 0.15002 0.0
C2073 C 0.54531 0.62374 0.13837 0.0
C2074 C 0.5524 0.57136 0.13486 0.0
C2075 C 0.53399 0.61618 0.13734 0.0
C2076 C 0.52937 0.55623 0.13257 0.0
C2077 C 0.53641 0.50382 0.12904 0.0
C2078 C 0.54774 0.51129 0.13012 0.0
C2079 C 0.51724 0.54791 0.13164 0.0
C2080 C 0.51236 0.49686 0.14101 0.0
C2081 C 0.51043 0.59132 0.1222 0.0
C2082 C 0.51497 0.64396 0.11115 0.0
C2083 C 0.5226 0.62968 0.09808 0.0
C2084 C 0.52689 0.67957 0.08778 0.0
C2085 C 0.52356 0.74391 0.09035 0.0
C2086 C 0.51591 0.75846 0.10318 0.0
C2087 C 0.51159 0.70876 0.11353 0.0
H2088 H 0.5269 0.78246 0.08236 0.0
H2089 H 0.48457 0.29821 0.18154 0.0
H2090 H 0.46151 0.5111 0.3417 0.0
H2091 H 0.48136 0.50271 0.34102 0.0
H2092 H 0.48324 0.60131 0.39037 0.0
H2093 H 0.46343 0.61081 0.39101 0.0
H2094 H 0.49861 0.6469 0.36855 0.0
H2095 H 0.48678 0.43647 0.38755 0.0
H2096 H 0.47638 0.3342 0.38609 0.0
H2097 H 0.49164 0.28721 0.33746 0.0
H2098 H 0.50202 0.38973 0.33851 0.0
H2099 H 0.5538 0.56715 0.38887 0.0
H2100 H 0.53398 0.57795 0.3892 0.0
H2101 H 0.53206 0.47595 0.34035 0.0
H2102 H 0.55181 0.46367 0.34012 0.0
H2103 H 0.51669 0.43241 0.36187 0.0
H2104 H 0.52858 0.64262 0.34287 0.0
H2105 H 0.53897 0.74494 0.3443 0.0
H2106 H 0.52362 0.79246 0.39282 0.0
H2107 H 0.51325 0.68991 0.3918 0.0
C2108 C 0.46613 0.5315 0.35236 0.0
C2109 C 0.46077 0.56134 0.36646 0.0
C2110 C 0.47752 0.52617 0.35203 0.0
C2111 C 0.4839 0.55069 0.36574 0.0
C2112 C 0.47858 0.58169 0.37964 0.0
C2113 C 0.4672 0.58663 0.38005 0.0
C2114 C 0.49607 0.54384 0.36568 0.0
C2115 C 0.50254 0.59983 0.36731 0.0
C2116 C 0.50132 0.48276 0.3637 0.0
C2117 C 0.49509 0.42112 0.36302 0.0
C2118 C 0.48785 0.4046 0.37647 0.0
C2119 C 0.48197 0.34654 0.37573 0.0
C2120 C 0.48333 0.30432 0.36167 0.0
C2121 C 0.49058 0.32001 0.34833 0.0
C2122 C 0.49647 0.37807 0.349 0.0
C2123 C 0.54918 0.5467 0.37821 0.0
C2124 C 0.55452 0.51482 0.36441 0.0
C2125 C 0.5378 0.55342 0.37835 0.0
C2126 C 0.53142 0.52843 0.3647 0.0
C2127 C 0.53672 0.49597 0.35102 0.0
C2128 C 0.54808 0.48952 0.35083 0.0
C2129 C 0.51925 0.53549 0.36471 0.0
C2130 C 0.51277 0.47951 0.36309 0.0
C2131 C 0.514 0.59659 0.36669 0.0
C2132 C 0.52022 0.65825 0.36735 0.0
C2133 C 0.52749 0.67462 0.35392 0.0
C2134 C 0.53336 0.73271 0.35464 0.0
C2135 C 0.53198 0.77509 0.36867 0.0
C2136 C 0.5247 0.75953 0.38198 0.0
C2137 C 0.51881 0.70145 0.38133 0.0
H2138 H 0.53653 0.82005 0.3692 0.0
H2139 H 0.47877 0.25937 0.36112 0.0
H2140 H 0.46019 0.57233 0.88389 0.0
H2141 H 0.48001 0.58317 0.88507 0.0
H2142 H 0.48329 0.43233 0.84653 0.0
H2143 H 0.46355 0.42049 0.84552 0.0
H2144 H 0.4981 0.41545 0.87189 0.0
H2145 H 0.48637 0.59476 0.83608 0.0
H2146 H 0.47586 0.69378 0.8291 0.0
H2147 H 0.4904 0.79274 0.87238 0.0
H2148 H 0.5009 0.69395 0.87976 0.0
H2149 H 0.55307 0.46388 0.84692 0.0
H2150 H 0.53333 0.45401 0.84783 0.0
H2151 H 0.53159 0.61511 0.88356 0.0
H2152 H 0.55132 0.62724 0.8821 0.0
H2153 H 0.51592 0.62782 0.86086 0.0
H2154 H 0.52795 0.45113 0.89655 0.0
H2155 H 0.53841 0.35253 0.90411 0.0
H2156 H 0.52328 0.24896 0.86215 0.0
H2157 H 0.51283 0.34725 0.85418 0.0
C2158 C 0.46511 0.54107 0.87575 0.0
C2159 C 0.46015 0.4958 0.86451 0.0
C2160 C 0.47649 0.54771 0.87633 0.0
C2161 C 0.48326 0.50913 0.86574 0.0
C2162 C 0.47833 0.463 0.85481 0.0
C2163 C 0.46698 0.45665 0.85413 0.0
C2164 C 0.49543 0.51665 0.86595 0.0
C2165 C 0.50198 0.46181 0.86928 0.0
C2166 C 0.50062 0.57732 0.86301 0.0
C2167 C 0.49433 0.63675 0.85858 0.0
C2168 C 0.48726 0.63747 0.84419 0.0
C2169 C 0.48132 0.69358 0.84015 0.0
C2170 C 0.48244 0.74945 0.85032 0.0
C2171 C 0.48953 0.74938 0.86453 0.0
C2172 C 0.49548 0.69337 0.86865 0.0
C2173 C 0.54853 0.49772 0.8549 0.0
C2174 C 0.55396 0.5464 0.86445 0.0
C2175 C 0.53717 0.49145 0.85558 0.0
C2176 C 0.53083 0.53314 0.86597 0.0
C2177 C 0.5362 0.58195 0.87547 0.0
C2178 C 0.54757 0.58839 0.87477 0.0
C2179 C 0.51863 0.52647 0.86672 0.0
C2180 C 0.51207 0.58146 0.86355 0.0
C2181 C 0.51343 0.46598 0.86991 0.0
C2182 C 0.51968 0.40675 0.87467 0.0
C2183 C 0.52691 0.40747 0.88885 0.0
C2184 C 0.53283 0.35162 0.89322 0.0
C2185 C 0.53154 0.29457 0.88359 0.0
C2186 C 0.52429 0.29322 0.86958 0.0
C2187 C 0.51836 0.34896 0.86514 0.0
H2188 H 0.53612 0.25137 0.887 0.0
H2189 H 0.47783 0.79285 0.84716 0.0
H2190 H 0.45866 0.46875 0.61376 0.0
H2191 H 0.47851 0.45896 0.61243 0.0
H2192 H 0.48159 0.60798 0.65149 0.0
H2193 H 0.46181 0.6183 0.6528 0.0
H2194 H 0.49598 0.62703 0.62477 0.0
H2195 H 0.48533 0.44936 0.66195 0.0
H2196 H 0.47524 0.34989 0.66969 0.0
H2197 H 0.48965 0.24929 0.62653 0.0
H2198 H 0.49972 0.34852 0.61839 0.0
H2199 H 0.55132 0.58712 0.64838 0.0
H2200 H 0.53157 0.59513 0.64777 0.0
H2201 H 0.53005 0.42903 0.61369 0.0
H2202 H 0.54981 0.41851 0.61497 0.0
H2203 H 0.51472 0.41755 0.63659 0.0
H2204 H 0.52564 0.59171 0.59936 0.0
H2205 H 0.53561 0.69054 0.59067 0.0
H2206 H 0.52062 0.79716 0.63226 0.0
H2207 H 0.51066 0.69868 0.64134 0.0
C2208 C 0.46355 0.49963 0.62203 0.0
C2209 C 0.45855 0.54404 0.63348 0.0
C2210 C 0.47493 0.4937 0.62134 0.0
C2211 C 0.48163 0.53236 0.63196 0.0
C2212 C 0.47666 0.5774 0.64318 0.0
C2213 C 0.46531 0.58286 0.64402 0.0
C2214 C 0.49379 0.52614 0.63145 0.0
C2215 C 0.50008 0.58135 0.62755 0.0
C2216 C 0.49922 0.46626 0.63457 0.0
C2217 C 0.49319 0.40657 0.63945 0.0
C2218 C 0.48628 0.40619 0.65402 0.0
C2219 C 0.48057 0.34983 0.6585 0.0
C2220 C 0.48178 0.29336 0.64858 0.0
C2221 C 0.48871 0.2931 0.63419 0.0
C2222 C 0.49442 0.34938 0.62964 0.0
C2223 C 0.54684 0.55179 0.64083 0.0
C2224 C 0.55233 0.50208 0.63172 0.0
C2225 C 0.53547 0.55701 0.64031 0.0
C2226 C 0.52918 0.51332 0.63047 0.0
C2227 C 0.53462 0.46369 0.62135 0.0
C2228 C 0.546 0.45818 0.62194 0.0
C2229 C 0.51697 0.51864 0.62999 0.0
C2230 C 0.51066 0.46326 0.63371 0.0
C2231 C 0.51151 0.57829 0.62655 0.0
C2232 C 0.51748 0.63763 0.62113 0.0
C2233 C 0.52453 0.63609 0.60673 0.0
C2234 C 0.53017 0.69208 0.60172 0.0
C2235 C 0.52877 0.75005 0.61093 0.0
C2236 C 0.5217 0.75219 0.62515 0.0
C2237 C 0.51605 0.69632 0.63022 0.0
H2238 H 0.53314 0.79334 0.60703 0.0
H2239 H 0.47735 0.24976 0.65206 0.0
H2240 H 0.11533 0.87404 0.12366 0.0
H2241 H 0.11518 0.75507 0.12355 0.0
H2242 H 0.15013 0.75273 0.12662 0.0
H2243 H 0.15032 0.87205 0.12579 0.0
H2244 H 0.14472 0.65965 0.10648 0.0
H2245 H 0.13018 0.72491 0.16254 0.0
H2246 H 0.11705 0.78191 0.18141 0.0
H2247 H 0.09099 0.66981 0.15986 0.0
H2248 H 0.10384 0.614 0.14032 0.0
H2249 H 0.15061 0.32446 0.12864 0.0
H2250 H 0.15052 0.4434 0.12836 0.0
H2251 H 0.11551 0.44315 0.12801 0.0
H2252 H 0.11559 0.32397 0.12918 0.0
H2253 H 0.12073 0.53758 0.14668 0.0
H2254 H 0.13333 0.47827 0.09017 0.0
H2255 H 0.14496 0.42308 0.06864 0.0
H2256 H 0.17293 0.5224 0.08864 0.0
H2257 H 0.16149 0.57756 0.11048 0.0
C2258 C 0.12302 0.84841 0.12429 0.0
C2259 C 0.13284 0.8836 0.12483 0.0
C2260 C 0.12292 0.77969 0.12437 0.0
C2261 C 0.13263 0.74325 0.12557 0.0
C2262 C 0.14247 0.77847 0.12579 0.0
C2263 C 0.14258 0.84728 0.12535 0.0
C2264 C 0.1326 0.66908 0.12649 0.0
C2265 C 0.13957 0.63333 0.11551 0.0
C2266 C 0.12563 0.63299 0.13773 0.0
C2267 C 0.11798 0.66559 0.14985 0.0
C2268 C 0.12165 0.7126 0.16176 0.0
C2269 C 0.11426 0.74473 0.17257 0.0
C2270 C 0.10323 0.72927 0.17191 0.0
C2271 C 0.09954 0.68174 0.16037 0.0
C2272 C 0.10687 0.65001 0.14938 0.0
C2273 C 0.14286 0.3495 0.12853 0.0
C2274 C 0.13311 0.3136 0.12888 0.0
C2275 C 0.14281 0.41823 0.12821 0.0
C2276 C 0.133 0.45399 0.12773 0.0
C2277 C 0.12325 0.41804 0.12833 0.0
C2278 C 0.1233 0.34926 0.12896 0.0
C2279 C 0.13289 0.52819 0.12674 0.0
C2280 C 0.12591 0.5639 0.1377 0.0
C2281 C 0.13968 0.56428 0.11524 0.0
C2282 C 0.14657 0.53154 0.10207 0.0
C2283 C 0.14197 0.48804 0.09005 0.0
C2284 C 0.14853 0.45679 0.07778 0.0
C2285 C 0.15968 0.46908 0.07729 0.0
C2286 C 0.16429 0.51284 0.08905 0.0
C2287 C 0.15778 0.54414 0.10137 0.0
H2288 H 0.16473 0.44481 0.06778 0.0
H2289 H 0.09754 0.75418 0.18032 0.0
H2290 H 0.8938 0.1906 0.13924 0.0
H2291 H 0.89401 0.3097 0.13996 0.0
H2292 H 0.86218 0.31468 0.11665 0.0
H2293 H 0.86198 0.19546 0.11571 0.0
H2294 H 0.87395 0.40505 0.1018 0.0
H2295 H 0.86736 0.35049 0.1617 0.0
H2296 H 0.87055 0.30032 0.19047 0.0
H2297 H 0.90156 0.39461 0.19375 0.0
H2298 H 0.89859 0.44493 0.16493 0.0
H2299 H 0.86247 0.74103 0.11758 0.0
H2300 H 0.8625 0.62197 0.11752 0.0
H2301 H 0.89461 0.62098 0.13982 0.0
H2302 H 0.8946 0.74042 0.14003 0.0
H2303 H 0.88297 0.52895 0.15515 0.0
H2304 H 0.88969 0.58456 0.09586 0.0
H2305 H 0.88657 0.63793 0.0675 0.0
H2306 H 0.85574 0.5423 0.06298 0.0
H2307 H 0.8586 0.489 0.09146 0.0
C2308 C 0.8868 0.21676 0.13428 0.0
C2309 C 0.87786 0.18232 0.12743 0.0
C2310 C 0.88691 0.28549 0.13481 0.0
C2311 C 0.87806 0.32259 0.12856 0.0
C2312 C 0.86915 0.28823 0.12161 0.0
C2313 C 0.86903 0.21948 0.12113 0.0
C2314 C 0.87815 0.39666 0.12892 0.0
C2315 C 0.87577 0.43183 0.11359 0.0
C2316 C 0.88083 0.43308 0.14406 0.0
C2317 C 0.88279 0.40103 0.16109 0.0
C2318 C 0.8749 0.36001 0.16848 0.0
C2319 C 0.87665 0.33179 0.18483 0.0
C2320 C 0.88623 0.34446 0.19395 0.0
C2321 C 0.89413 0.38499 0.18669 0.0
C2322 C 0.89241 0.41341 0.17036 0.0
C2323 C 0.86957 0.71581 0.12251 0.0
C2324 C 0.87855 0.75142 0.12879 0.0
C2325 C 0.8696 0.64711 0.12236 0.0
C2326 C 0.87862 0.61117 0.12845 0.0
C2327 C 0.88753 0.64661 0.13499 0.0
C2328 C 0.88752 0.71543 0.13507 0.0
C2329 C 0.87872 0.53716 0.12808 0.0
C2330 C 0.88115 0.50208 0.14338 0.0
C2331 C 0.87613 0.50081 0.11291 0.0
C2332 C 0.87431 0.53327 0.09588 0.0
C2333 C 0.88219 0.57537 0.0889 0.0
C2334 C 0.88048 0.60552 0.07279 0.0
C2335 C 0.87096 0.59355 0.06347 0.0
C2336 C 0.86311 0.55153 0.07024 0.0
C2337 C 0.86477 0.5213 0.08636 0.0
H2338 H 0.86969 0.61659 0.05095 0.0
H2339 H 0.88755 0.32286 0.20664 0.0
H2340 H 0.15055 0.18544 0.3816 0.0
H2341 H 0.15072 0.30451 0.38073 0.0
H2342 H 0.11645 0.30598 0.36926 0.0
H2343 H 0.11634 0.1869 0.36948 0.0
H2344 H 0.12483 0.39569 0.35077 0.0
H2345 H 0.12876 0.34653 0.41164 0.0
H2346 H 0.1371 0.29534 0.4375 0.0
H2347 H 0.16725 0.39149 0.42645 0.0
H2348 H 0.15912 0.44263 0.40041 0.0
H2349 H 0.11632 0.73537 0.36749 0.0
H2350 H 0.11621 0.61623 0.368 0.0
H2351 H 0.15059 0.61484 0.37849 0.0
H2352 H 0.15068 0.73392 0.37851 0.0
H2353 H 0.14217 0.5252 0.39745 0.0
H2354 H 0.1381 0.57485 0.33659 0.0
H2355 H 0.12966 0.62589 0.3108 0.0
H2356 H 0.09961 0.52882 0.32199 0.0
H2357 H 0.10783 0.47782 0.34797 0.0
C2358 C 0.14301 0.21088 0.37896 0.0
C2359 C 0.13342 0.17546 0.37573 0.0
C2360 C 0.1431 0.27966 0.37856 0.0
C2361 C 0.13355 0.31589 0.37525 0.0
C2362 C 0.12398 0.28043 0.37189 0.0
C2363 C 0.12392 0.21168 0.37209 0.0
C2364 C 0.13351 0.39011 0.37507 0.0
C2365 C 0.12851 0.42368 0.36116 0.0
C2366 C 0.13849 0.42826 0.38828 0.0
C2367 C 0.14336 0.3979 0.40399 0.0
C2368 C 0.13718 0.35643 0.41467 0.0
C2369 C 0.14187 0.32747 0.42937 0.0
C2370 C 0.1527 0.34002 0.43359 0.0
C2371 C 0.15886 0.38173 0.42315 0.0
C2372 C 0.15422 0.41077 0.40843 0.0
C2373 C 0.12389 0.70996 0.36982 0.0
C2374 C 0.13352 0.74541 0.37287 0.0
C2375 C 0.12384 0.64114 0.37002 0.0
C2376 C 0.13343 0.60495 0.373 0.0
C2377 C 0.14303 0.64041 0.37613 0.0
C2378 C 0.14308 0.70917 0.37606 0.0
C2379 C 0.13348 0.53075 0.37316 0.0
C2380 C 0.13849 0.4972 0.38706 0.0
C2381 C 0.12849 0.49262 0.35996 0.0
C2382 C 0.12355 0.52304 0.34432 0.0
C2383 C 0.12967 0.56474 0.33361 0.0
C2384 C 0.12493 0.59361 0.31895 0.0
C2385 C 0.1141 0.58075 0.31478 0.0
C2386 C 0.10799 0.53882 0.32524 0.0
C2387 C 0.11269 0.50988 0.33993 0.0
H2388 H 0.11044 0.60315 0.30343 0.0
H2389 H 0.15632 0.31753 0.44497 0.0
H2390 H 0.8962 0.32185 0.36476 0.0
H2391 H 0.89624 0.44113 0.36527 0.0
H2392 H 0.86314 0.44101 0.3834 0.0
H2393 H 0.863 0.32198 0.38268 0.0
H2394 H 0.86498 0.53393 0.3604 0.0
H2395 H 0.88579 0.47598 0.41057 0.0
H2396 H 0.90039 0.4212 0.42704 0.0
H2397 H 0.92438 0.52096 0.39653 0.0
H2398 H 0.90992 0.57567 0.37968 0.0
H2399 H 0.86306 0.87048 0.38487 0.0
H2400 H 0.86301 0.75124 0.38471 0.0
H2401 H 0.89603 0.75043 0.36623 0.0
H2402 H 0.89617 0.86959 0.36655 0.0
H2403 H 0.89419 0.65793 0.38977 0.0
H2404 H 0.87329 0.70935 0.33844 0.0
H2405 H 0.85865 0.76055 0.32133 0.0
H2406 H 0.83476 0.67359 0.35471 0.0
H2407 H 0.8493 0.62094 0.3719 0.0
C2408 C 0.8889 0.34695 0.36885 0.0
C2409 C 0.87961 0.31112 0.3737 0.0
C2410 C 0.88895 0.41576 0.36926 0.0
C2411 C 0.87973 0.45147 0.37461 0.0
C2412 C 0.87041 0.41571 0.37922 0.0
C2413 C 0.87035 0.34699 0.37884 0.0
C2414 C 0.87974 0.52554 0.37527 0.0
C2415 C 0.87132 0.56066 0.36707 0.0
C2416 C 0.88805 0.56201 0.38362 0.0
C2417 C 0.89677 0.52941 0.39374 0.0
C2418 C 0.89418 0.48587 0.40728 0.0
C2419 C 0.90243 0.45489 0.4167 0.0
C2420 C 0.91331 0.46747 0.41281 0.0
C2421 C 0.91595 0.5112 0.39951 0.0
C2422 C 0.90773 0.54224 0.39003 0.0
C2423 C 0.87034 0.84521 0.38075 0.0
C2424 C 0.87961 0.88087 0.37569 0.0
C2425 C 0.87028 0.77638 0.38055 0.0
C2426 C 0.87947 0.74038 0.37523 0.0
C2427 C 0.88878 0.77594 0.37039 0.0
C2428 C 0.88884 0.84473 0.37054 0.0
C2429 C 0.87945 0.66623 0.37484 0.0
C2430 C 0.88785 0.63111 0.38312 0.0
C2431 C 0.87111 0.62966 0.36663 0.0
C2432 C 0.86237 0.66189 0.35655 0.0
C2433 C 0.86492 0.70157 0.3422 0.0
C2434 C 0.85664 0.73075 0.33247 0.0
C2435 C 0.84578 0.72093 0.33701 0.0
C2436 C 0.84318 0.68137 0.35123 0.0
C2437 C 0.85143 0.65158 0.36093 0.0
H2438 H 0.83938 0.7437 0.32946 0.0
H2439 H 0.91968 0.44345 0.42012 0.0
H2440 H 0.89635 0.1906 0.86787 0.0
H2441 H 0.89622 0.30987 0.86694 0.0
H2442 H 0.86293 0.31116 0.88415 0.0
H2443 H 0.863 0.19187 0.88505 0.0
H2444 H 0.86526 0.39898 0.8588 0.0
H2445 H 0.88436 0.35343 0.91155 0.0
H2446 H 0.8984 0.30296 0.93012 0.0
H2447 H 0.92334 0.39648 0.90015 0.0
H2448 H 0.90944 0.44682 0.88124 0.0
H2449 H 0.86224 0.73916 0.87943 0.0
H2450 H 0.86237 0.61995 0.88042 0.0
H2451 H 0.89567 0.61863 0.86326 0.0
H2452 H 0.8956 0.73796 0.86234 0.0
H2453 H 0.89332 0.53073 0.88864 0.0
H2454 H 0.87396 0.5763 0.83585 0.0
H2455 H 0.85975 0.6264 0.81756 0.0
H2456 H 0.83509 0.53263 0.84806 0.0
H2457 H 0.84916 0.48261 0.8667 0.0
C2458 C 0.88899 0.21603 0.87156 0.0
C2459 C 0.8797 0.18063 0.87663 0.0
C2460 C 0.88894 0.28479 0.87107 0.0
C2461 C 0.87959 0.32081 0.87562 0.0
C2462 C 0.87029 0.28547 0.88056 0.0
C2463 C 0.87035 0.21674 0.88116 0.0
C2464 C 0.87948 0.3948 0.87507 0.0
C2465 C 0.87134 0.42755 0.86555 0.0
C2466 C 0.88747 0.43335 0.88351 0.0
C2467 C 0.89586 0.40335 0.89486 0.0
C2468 C 0.89284 0.36282 0.90883 0.0
C2469 C 0.90077 0.33431 0.91943 0.0
C2470 C 0.91176 0.34636 0.91628 0.0
C2471 C 0.91483 0.38711 0.90255 0.0
C2472 C 0.90693 0.41569 0.8919 0.0
C2473 C 0.86959 0.71375 0.87574 0.0
C2474 C 0.87888 0.74918 0.87069 0.0
C2475 C 0.86965 0.645 0.87627 0.0
C2476 C 0.879 0.60896 0.87176 0.0
C2477 C 0.88831 0.64432 0.86682 0.0
C2478 C 0.88824 0.71307 0.8662 0.0
C2479 C 0.87911 0.53494 0.87234 0.0
C2480 C 0.88726 0.50217 0.88187 0.0
C2481 C 0.8711 0.49635 0.86396 0.0
C2482 C 0.86262 0.52626 0.85278 0.0
C2483 C 0.86551 0.56677 0.83874 0.0
C2484 C 0.85747 0.59508 0.8283 0.0
C2485 C 0.84652 0.58285 0.83167 0.0
C2486 C 0.84358 0.54213 0.84548 0.0
C2487 C 0.85158 0.51375 0.85598 0.0
H2488 H 0.84031 0.60481 0.82357 0.0
H2489 H 0.91789 0.32425 0.9245 0.0
H2490 H 0.14887 0.31729 0.88435 0.0
H2491 H 0.14904 0.43617 0.88448 0.0
H2492 H 0.11693 0.43931 0.86217 0.0
H2493 H 0.11675 0.3197 0.86187 0.0
H2494 H 0.12897 0.53195 0.84699 0.0
H2495 H 0.12185 0.47385 0.90622 0.0
H2496 H 0.12499 0.41769 0.93419 0.0
H2497 H 0.15601 0.51107 0.939 0.0
H2498 H 0.15312 0.56711 0.91092 0.0
H2499 H 0.11836 0.86863 0.86341 0.0
H2500 H 0.11808 0.74973 0.86289 0.0
H2501 H 0.14983 0.74442 0.88645 0.0
H2502 H 0.1501 0.86388 0.88723 0.0
H2503 H 0.13786 0.6527 0.90094 0.0
H2504 H 0.14506 0.71053 0.84172 0.0
H2505 H 0.14199 0.7666 0.81371 0.0
H2506 H 0.11094 0.67381 0.80882 0.0
H2507 H 0.11376 0.61784 0.83693 0.0
C2508 C 0.1418 0.34286 0.87943 0.0
C2509 C 0.13277 0.30772 0.87315 0.0
C2510 C 0.14189 0.41152 0.87961 0.0
C2511 C 0.13294 0.44807 0.87357 0.0
C2512 C 0.12397 0.41319 0.86699 0.0
C2513 C 0.12386 0.34429 0.86687 0.0
C2514 C 0.13298 0.52212 0.87414 0.0
C2515 C 0.13076 0.5581 0.85889 0.0
C2516 C 0.13556 0.55761 0.88946 0.0
C2517 C 0.13731 0.52417 0.90638 0.0
C2518 C 0.12938 0.48203 0.91317 0.0
C2519 C 0.13111 0.45028 0.92906 0.0
C2520 C 0.14071 0.46068 0.93834 0.0
C2521 C 0.14858 0.50299 0.93178 0.0
C2522 C 0.1469 0.5348 0.91589 0.0
C2523 C 0.12534 0.84253 0.86847 0.0
C2524 C 0.13429 0.877 0.8753 0.0
C2525 C 0.12518 0.77385 0.86808 0.0
C2526 C 0.134 0.73668 0.87439 0.0
C2527 C 0.14289 0.77097 0.88142 0.0
C2528 C 0.14306 0.83981 0.8818 0.0
C2529 C 0.13388 0.66261 0.87378 0.0
C2530 C 0.13607 0.62659 0.88903 0.0
C2531 C 0.13129 0.62711 0.85845 0.0
C2532 C 0.12958 0.6605 0.84152 0.0
C2533 C 0.13754 0.70245 0.83474 0.0
C2534 C 0.13585 0.73416 0.81883 0.0
C2535 C 0.12626 0.72391 0.80952 0.0
C2536 C 0.11835 0.68178 0.81606 0.0
C2537 C 0.12 0.65001 0.83198 0.0
H2538 H 0.12497 0.7485 0.7972 0.0
H2539 H 0.14203 0.43605 0.95064 0.0
H2540 H 0.86354 0.87141 0.61211 0.0
H2541 H 0.86351 0.75212 0.61234 0.0
H2542 H 0.89537 0.75146 0.63557 0.0
H2543 H 0.89551 0.87055 0.63512 0.0
H2544 H 0.89475 0.65806 0.61227 0.0
H2545 H 0.87099 0.72043 0.65865 0.0
H2546 H 0.85541 0.77755 0.6717 0.0
H2547 H 0.83353 0.67196 0.63874 0.0
H2548 H 0.84902 0.61556 0.62505 0.0
H2549 H 0.89547 0.32229 0.63786 0.0
H2550 H 0.89553 0.44153 0.63737 0.0
H2551 H 0.86325 0.44197 0.61572 0.0
H2552 H 0.86304 0.32293 0.61651 0.0
H2553 H 0.86407 0.53566 0.63814 0.0
H2554 H 0.88752 0.476 0.59112 0.0
H2555 H 0.90298 0.42099 0.57697 0.0
H2556 H 0.92518 0.52107 0.61066 0.0
H2557 H 0.90983 0.57607 0.62517 0.0
C2558 C 0.87057 0.84615 0.61727 0.0
C2559 C 0.87951 0.88181 0.62365 0.0
C2560 C 0.87053 0.77731 0.61748 0.0
C2561 C 0.87938 0.74134 0.62421 0.0
C2562 C 0.88838 0.77693 0.6303 0.0
C2563 C 0.88844 0.84569 0.63008 0.0
C2564 C 0.87927 0.66721 0.62503 0.0
C2565 C 0.88808 0.63162 0.61816 0.0
C2566 C 0.87052 0.63116 0.6323 0.0
C2567 C 0.86118 0.66423 0.6407 0.0
C2568 C 0.86286 0.70969 0.65409 0.0
C2569 C 0.85404 0.74193 0.66161 0.0
C2570 C 0.84348 0.72835 0.65609 0.0
C2571 C 0.84172 0.68248 0.643 0.0
C2572 C 0.85052 0.65044 0.63532 0.0
C2573 C 0.88835 0.3475 0.633 0.0
C2574 C 0.87926 0.31177 0.62719 0.0
C2575 C 0.88842 0.41634 0.63261 0.0
C2576 C 0.87946 0.45227 0.62623 0.0
C2577 C 0.87032 0.4166 0.62069 0.0
C2578 C 0.87023 0.34784 0.62112 0.0
C2579 C 0.87955 0.52643 0.62537 0.0
C2580 C 0.87074 0.56206 0.63225 0.0
C2581 C 0.88828 0.56252 0.61804 0.0
C2582 C 0.89752 0.52962 0.60935 0.0
C2583 C 0.8957 0.4859 0.59559 0.0
C2584 C 0.90444 0.45479 0.5875 0.0
C2585 C 0.91505 0.46739 0.59295 0.0
C2586 C 0.91695 0.51128 0.60648 0.0
C2587 C 0.90823 0.54247 0.61463 0.0
H2588 H 0.92181 0.44326 0.58666 0.0
H2589 H 0.83667 0.75335 0.66196 0.0
H2590 H 0.11594 0.18595 0.63129 0.0
H2591 H 0.11606 0.30508 0.63165 0.0
H2592 H 0.15021 0.30447 0.61957 0.0
H2593 H 0.15015 0.185 0.61917 0.0
H2594 H 0.1462 0.39459 0.64423 0.0
H2595 H 0.13093 0.34605 0.58879 0.0
H2596 H 0.11838 0.29408 0.56811 0.0
H2597 H 0.09131 0.38792 0.59286 0.0
H2598 H 0.10372 0.43983 0.61389 0.0
H2599 H 0.15033 0.73309 0.62236 0.0
H2600 H 0.15025 0.61403 0.62192 0.0
H2601 H 0.11603 0.6141 0.63349 0.0
H2602 H 0.11604 0.73356 0.63388 0.0
H2603 H 0.12012 0.52408 0.60905 0.0
H2604 H 0.13574 0.57301 0.66458 0.0
H2605 H 0.14856 0.62445 0.68499 0.0
H2606 H 0.17527 0.52955 0.65954 0.0
H2607 H 0.16261 0.4782 0.63882 0.0
C2608 C 0.12351 0.21082 0.62864 0.0
C2609 C 0.13303 0.17471 0.62512 0.0
C2610 C 0.12355 0.27957 0.62879 0.0
C2611 C 0.13313 0.31509 0.6255 0.0
C2612 C 0.14267 0.27917 0.62216 0.0
C2613 C 0.14261 0.21032 0.62185 0.0
C2614 C 0.13317 0.38918 0.62562 0.0
C2615 C 0.14058 0.42266 0.63632 0.0
C2616 C 0.12574 0.42712 0.61566 0.0
C2617 C 0.11824 0.39627 0.60303 0.0
C2618 C 0.12229 0.3552 0.58991 0.0
C2619 C 0.1152 0.32581 0.57811 0.0
C2620 C 0.10405 0.33752 0.57919 0.0
C2621 C 0.09996 0.37881 0.59205 0.0
C2622 C 0.10702 0.40828 0.60392 0.0
C2623 C 0.14276 0.70814 0.62489 0.0
C2624 C 0.1332 0.74414 0.62824 0.0
C2625 C 0.14273 0.63938 0.6247 0.0
C2626 C 0.13316 0.60368 0.62785 0.0
C2627 C 0.12358 0.6395 0.63103 0.0
C2628 C 0.1236 0.70836 0.63133 0.0
C2629 C 0.13314 0.52956 0.6277 0.0
C2630 C 0.12574 0.49604 0.61698 0.0
C2631 C 0.1406 0.49158 0.6376 0.0
C2632 C 0.14824 0.52229 0.65004 0.0
C2633 C 0.14436 0.56351 0.66325 0.0
C2634 C 0.15159 0.59258 0.67489 0.0
C2635 C 0.16273 0.58041 0.67353 0.0
C2636 C 0.16664 0.53901 0.66056 0.0
C2637 C 0.15944 0.50987 0.64887 0.0
H2638 H 0.16832 0.60296 0.68256 0.0
H2639 H 0.09857 0.31471 0.57003 0.0
H2640 H 0.61602 0.82686 0.13849 0.0
H2641 H 0.61603 0.94613 0.13858 0.0
H2642 H 0.64866 0.94623 0.11837 0.0
H2643 H 0.64878 0.82718 0.1186 0.0
H2644 H 0.64755 0.03802 0.14136 0.0
H2645 H 0.62475 0.9836 0.09292 0.0
H2646 H 0.60941 0.93085 0.07793 0.0
H2647 H 0.5869 0.03031 0.11129 0.0
H2648 H 0.60212 0.08305 0.12664 0.0
H2649 H 0.64896 0.37467 0.11599 0.0
H2650 H 0.64889 0.25534 0.11646 0.0
H2651 H 0.6167 0.25708 0.13838 0.0
H2652 H 0.61668 0.37618 0.13778 0.0
H2653 H 0.61752 0.16472 0.11465 0.0
H2654 H 0.64027 0.21848 0.16318 0.0
H2655 H 0.65559 0.27069 0.17834 0.0
H2656 H 0.67813 0.17301 0.14469 0.0
H2657 H 0.66294 0.12041 0.12924 0.0
C2658 C 0.62322 0.852 0.13405 0.0
C2659 C 0.63238 0.81618 0.12849 0.0
C2660 C 0.6232 0.92087 0.13399 0.0
C2661 C 0.6323 0.95672 0.12821 0.0
C2662 C 0.64149 0.92092 0.12289 0.0
C2663 C 0.64153 0.85215 0.12298 0.0
C2664 C 0.6323 0.03093 0.12777 0.0
C2665 C 0.64102 0.06535 0.13527 0.0
C2666 C 0.62374 0.06825 0.12025 0.0
C2667 C 0.61458 0.03674 0.11104 0.0
C2668 C 0.61653 0.99386 0.09714 0.0
C2669 C 0.60786 0.96402 0.08857 0.0
C2670 C 0.59719 0.97708 0.09368 0.0
C2671 C 0.59517 1.02016 0.10736 0.0
C2672 C 0.60381 0.05007 0.11599 0.0
C2673 C 0.64185 0.34992 0.12094 0.0
C2674 C 0.63284 0.38624 0.12687 0.0
C2675 C 0.64184 0.28107 0.1213 0.0
C2676 C 0.63283 0.24579 0.12765 0.0
C2677 C 0.62379 0.28204 0.1334 0.0
C2678 C 0.62381 0.3508 0.1331 0.0
C2679 C 0.63277 0.17166 0.1282 0.0
C2680 C 0.62404 0.1373 0.12073 0.0
C2681 C 0.64132 0.1344 0.13573 0.0
C2682 C 0.65046 0.16605 0.14494 0.0
C2683 C 0.64849 0.20851 0.15893 0.0
C2684 C 0.65715 0.2381 0.16759 0.0
C2685 C 0.66782 0.22543 0.16243 0.0
C2686 C 0.66986 0.18289 0.14864 0.0
C2687 C 0.66123 0.15307 0.13995 0.0
H2688 H 0.67452 0.24841 0.16915 0.0
H2689 H 0.59048 0.95393 0.08703 0.0
H2690 H 0.39335 0.68387 0.14318 0.0
H2691 H 0.39343 0.80312 0.14418 0.0
H2692 H 0.36466 0.80854 0.11229 0.0
H2693 H 0.36448 0.68907 0.11138 0.0
H2694 H 0.37936 0.89958 0.10112 0.0
H2695 H 0.36367 0.84168 0.15641 0.0
H2696 H 0.36277 0.7877 0.18509 0.0
H2697 H 0.39228 0.8823 0.20059 0.0
H2698 H 0.39342 0.93637 0.17192 0.0
H2699 H 0.3654 0.2343 0.11209 0.0
H2700 H 0.36567 0.11524 0.11193 0.0
H2701 H 0.39298 0.11557 0.14701 0.0
H2702 H 0.39274 0.23515 0.14723 0.0
H2703 H 0.37948 1.02134 0.15676 0.0
H2704 H 0.39588 0.07817 0.10327 0.0
H2705 H 0.39826 0.13135 0.07474 0.0
H2706 H 0.36946 0.03793 0.05573 0.0
H2707 H 0.36682 0.98478 0.08427 0.0
C2708 C 0.38701 0.71016 0.13635 0.0
C2709 C 0.3789 0.67577 0.12719 0.0
C2710 C 0.38703 0.77892 0.13702 0.0
C2711 C 0.379 0.81612 0.12842 0.0
C2712 C 0.37097 0.78191 0.11909 0.0
C2713 C 0.37086 0.71307 0.11862 0.0
C2714 C 0.37903 0.89019 0.129 0.0
C2715 C 0.3792 0.92597 0.11332 0.0
C2716 C 0.37925 0.92592 0.14483 0.0
C2717 C 0.37867 0.89267 0.16196 0.0
C2718 C 0.37002 0.85056 0.16588 0.0
C2719 C 0.36944 0.82013 0.18215 0.0
C2720 C 0.37744 0.83176 0.19467 0.0
C2721 C 0.38607 0.87353 0.1909 0.0
C2722 C 0.38668 0.90412 0.17465 0.0
C2723 C 0.37149 0.2094 0.11983 0.0
C2724 C 0.37906 0.2455 0.12966 0.0
C2725 C 0.37167 0.14065 0.11965 0.0
C2726 C 0.37942 0.10499 0.1293 0.0
C2727 C 0.38689 0.14089 0.13938 0.0
C2728 C 0.38676 0.20982 0.13946 0.0
C2729 C 0.37969 0.03084 0.12886 0.0
C2730 C 0.3796 0.99504 0.14454 0.0
C2731 C 0.37973 0.995 0.11303 0.0
C2732 C 0.38109 1.02802 0.09598 0.0
C2733 C 0.38998 0.06952 0.09308 0.0
C2734 C 0.39139 0.09952 0.07689 0.0
C2735 C 0.38402 0.08803 0.06344 0.0
C2736 C 0.37517 0.04676 0.06617 0.0
C2737 C 0.37371 1.01666 0.08235 0.0
H2738 H 0.3852 0.11085 0.05088 0.0
H2739 H 0.37697 0.80824 0.20727 0.0
H2740 H 0.61845 0.22925 0.35865 0.0
H2741 H 0.61826 0.11009 0.35911 0.0
H2742 H 0.64984 0.10856 0.3833 0.0
H2743 H 0.65013 0.2279 0.38267 0.0
H2744 H 0.64909 1.01424 0.35957 0.0
H2745 H 0.62541 0.07815 0.40641 0.0
H2746 H 0.6099 0.13573 0.41965 0.0
H2747 H 0.58795 0.03589 0.3855 0.0
H2748 H 0.60336 0.97833 0.37189 0.0
H2749 H 0.64921 0.68248 0.38761 0.0
H2750 H 0.64926 0.80156 0.38631 0.0
H2751 H 0.61742 0.79961 0.36301 0.0
H2752 H 0.61728 0.68037 0.36445 0.0
H2753 H 0.61812 0.89554 0.38585 0.0
H2754 H 0.64092 0.83246 0.33882 0.0
H2755 H 0.65597 0.77483 0.3243 0.0
H2756 H 0.67898 0.87252 0.3571 0.0
H2757 H 0.66404 0.93024 0.37195 0.0
C2758 C 0.6254 0.20383 0.36403 0.0
C2759 C 0.6343 0.2392 0.37065 0.0
C2760 C 0.62525 0.13511 0.3644 0.0
C2761 C 0.63397 0.09904 0.3715 0.0
C2762 C 0.64296 0.13428 0.37778 0.0
C2763 C 0.64311 0.20305 0.37743 0.0
C2764 C 0.63369 1.02513 0.37247 0.0
C2765 C 0.64237 0.98859 0.36557 0.0
C2766 C 0.62482 0.99022 0.37978 0.0
C2767 C 0.61555 1.0244 0.38803 0.0
C2768 C 0.61729 0.0688 0.40165 0.0
C2769 C 0.60851 0.10139 0.40923 0.0
C2770 C 0.59795 0.0896 0.40339 0.0
C2771 C 0.59614 0.04504 0.38999 0.0
C2772 C 0.60489 1.01238 0.38235 0.0
C2773 C 0.64217 0.70712 0.38224 0.0
C2774 C 0.63324 0.67082 0.37614 0.0
C2775 C 0.64224 0.77578 0.38139 0.0
C2776 C 0.6334 0.81084 0.37434 0.0
C2777 C 0.62439 0.77468 0.36851 0.0
C2778 C 0.62432 0.70597 0.36932 0.0
C2779 C 0.63356 0.88469 0.37306 0.0
C2780 C 0.62485 0.92118 0.37988 0.0
C2781 C 0.64235 0.91954 0.36552 0.0
C2782 C 0.65136 0.88517 0.35661 0.0
C2783 C 0.64919 0.8413 0.34302 0.0
C2784 C 0.6577 0.80868 0.33471 0.0
C2785 C 0.66842 0.81986 0.33981 0.0
C2786 C 0.67066 0.86384 0.35318 0.0
C2787 C 0.66218 0.89659 0.36153 0.0
H2788 H 0.675 0.79455 0.33337 0.0
H2789 H 0.59117 0.11489 0.40927 0.0
H2790 H 0.3972 0.82408 0.37443 0.0
H2791 H 0.397 0.9436 0.37494 0.0
H2792 H 0.36209 0.94256 0.37173 0.0
H2793 H 0.36222 0.82312 0.37156 0.0
H2794 H 0.37118 0.03469 0.34925 0.0
H2795 H 0.37378 0.97813 0.4094 0.0
H2796 H 0.38137 0.9233 0.43529 0.0
H2797 H 0.41178 1.021 0.42749 0.0
H2798 H 0.40441 0.07576 0.40138 0.0
H2799 H 0.3617 0.37042 0.37192 0.0
H2800 H 0.36191 0.25094 0.37099 0.0
H2801 H 0.39675 0.25173 0.37589 0.0
H2802 H 0.39661 0.37118 0.37647 0.0
H2803 H 0.38769 0.15937 0.39767 0.0
H2804 H 0.38576 0.21013 0.337 0.0
H2805 H 0.37906 0.25711 0.30942 0.0
H2806 H 0.34791 0.16899 0.31778 0.0
H2807 H 0.35446 0.12104 0.34538 0.0
C2808 C 0.38946 0.84908 0.37378 0.0
C2809 C 0.37973 0.81308 0.37294 0.0
C2810 C 0.38935 0.91785 0.37417 0.0
C2811 C 0.37952 0.95311 0.37347 0.0
C2812 C 0.36981 0.91727 0.3723 0.0
C2813 C 0.3699 0.84854 0.37224 0.0
C2814 C 0.37936 1.02694 0.3739 0.0
C2815 C 0.37464 0.06174 0.36001 0.0
C2816 C 0.3841 0.06332 0.38765 0.0
C2817 C 0.38858 0.0305 0.40332 0.0
C2818 C 0.38212 0.98747 0.41311 0.0
C2819 C 0.38637 0.9565 0.42784 0.0
C2820 C 0.39706 0.96852 0.433 0.0
C2821 C 0.40351 1.01166 0.42345 0.0
C2822 C 0.39929 0.04273 0.40869 0.0
C2823 C 0.36943 0.34538 0.37277 0.0
C2824 C 0.37914 0.38136 0.37427 0.0
C2825 C 0.36955 0.2766 0.37215 0.0
C2826 C 0.37935 0.24119 0.3733 0.0
C2827 C 0.38904 0.27703 0.37498 0.0
C2828 C 0.38895 0.34582 0.37525 0.0
C2829 C 0.37948 0.16725 0.37299 0.0
C2830 C 0.38419 0.13238 0.38693 0.0
C2831 C 0.37475 0.1307 0.35928 0.0
C2832 C 0.37056 0.16267 0.34333 0.0
C2833 C 0.37744 0.20149 0.33306 0.0
C2834 C 0.37369 0.22791 0.31738 0.0
C2835 C 0.36306 0.21612 0.31187 0.0
C2836 C 0.35614 0.17808 0.32207 0.0
C2837 C 0.35987 0.1511 0.3377 0.0
H2838 H 0.3602 0.2362 0.29966 0.0
H2839 H 0.40034 0.94452 0.44442 0.0
H2840 H 0.36372 0.68373 0.88819 0.0
H2841 H 0.36368 0.80299 0.88801 0.0
H2842 H 0.39618 0.80312 0.86732 0.0
H2843 H 0.39634 0.68399 0.86772 0.0
H2844 H 0.39487 0.89623 0.89063 0.0
H2845 H 0.37245 0.83648 0.84217 0.0
H2846 H 0.35726 0.78133 0.82756 0.0
H2847 H 0.33447 0.88443 0.85958 0.0
H2848 H 0.34957 0.93932 0.8747 0.0
H2849 H 0.39628 0.23194 0.865 0.0
H2850 H 0.39635 0.1127 0.86563 0.0
H2851 H 0.36352 0.11335 0.88499 0.0
H2852 H 0.36333 0.23238 0.88408 0.0
H2853 H 0.36496 1.01979 0.86256 0.0
H2854 H 0.38693 0.07848 0.91131 0.0
H2855 H 0.4019 0.13288 0.92682 0.0
H2856 H 0.42517 0.03223 0.89508 0.0
H2857 H 0.41032 0.97785 0.87922 0.0
C2858 C 0.37089 0.70885 0.8836 0.0
C2859 C 0.38002 0.67302 0.87792 0.0
C2860 C 0.37084 0.77769 0.88341 0.0
C2861 C 0.37987 0.81352 0.8774 0.0
C2862 C 0.38906 0.77776 0.87201 0.0
C2863 C 0.38912 0.70898 0.8722 0.0
C2864 C 0.37978 0.88766 0.87668 0.0
C2865 C 0.38837 0.92293 0.88426 0.0
C2866 C 0.37124 0.92407 0.86882 0.0
C2867 C 0.36215 0.89149 0.85969 0.0
C2868 C 0.36421 0.84705 0.84619 0.0
C2869 C 0.35561 0.81587 0.8378 0.0
C2870 C 0.3449 0.82927 0.84262 0.0
C2871 C 0.34277 0.87401 0.85586 0.0
C2872 C 0.35135 0.90516 0.86436 0.0
C2873 C 0.38904 0.20697 0.86938 0.0
C2874 C 0.37981 0.24299 0.87451 0.0
C2875 C 0.38912 0.13815 0.86985 0.0
C2876 C 0.38 0.10254 0.87562 0.0
C2877 C 0.37072 0.1385 0.88049 0.0
C2878 C 0.37063 0.20724 0.88 0.0
C2879 C 0.38006 1.02841 0.87649 0.0
C2880 C 0.37146 0.99313 0.86894 0.0
C2881 C 0.38856 0.99202 0.88447 0.0
C2882 C 0.39751 1.02463 0.89396 0.0
C2883 C 0.39524 0.06834 0.90755 0.0
C2884 C 0.4037 0.0991 0.91642 0.0
C2885 C 0.41448 0.08616 0.9119 0.0
C2886 C 0.41681 0.04229 0.89854 0.0
C2887 C 0.40838 1.01145 0.88962 0.0
H2888 H 0.42102 0.11002 0.91879 0.0
H2889 H 0.33826 0.80506 0.83608 0.0
H2890 H 0.61734 0.3684 0.8663 0.0
H2891 H 0.61753 0.24932 0.86583 0.0
H2892 H 0.64954 0.24876 0.88848 0.0
H2893 H 0.64941 0.36829 0.88895 0.0
H2894 H 0.6486 0.15958 0.86279 0.0
H2895 H 0.62647 0.20747 0.91241 0.0
H2896 H 0.61134 0.25888 0.92832 0.0
H2897 H 0.58839 0.16478 0.8947 0.0
H2898 H 0.6034 0.11346 0.87843 0.0
H2899 H 0.6504 0.81888 0.88234 0.0
H2900 H 0.6504 0.93782 0.88337 0.0
H2901 H 0.61724 0.94107 0.86541 0.0
H2902 H 0.61711 0.82181 0.86481 0.0
H2903 H 0.61888 0.02963 0.8889 0.0
H2904 H 0.64065 0.98327 0.83888 0.0
H2905 H 0.65558 0.93277 0.8223 0.0
H2906 H 0.67894 1.02457 0.85567 0.0
H2907 H 0.66413 0.07499 0.87259 0.0
C2908 C 0.62443 0.34327 0.87128 0.0
C2909 C 0.63334 0.37905 0.87775 0.0
C2910 C 0.62451 0.27455 0.87106 0.0
C2911 C 0.63351 0.23871 0.87727 0.0
C2912 C 0.64246 0.27432 0.8836 0.0
C2913 C 0.64235 0.34317 0.88395 0.0
C2914 C 0.63359 0.16465 0.87702 0.0
C2915 C 0.64216 0.13135 0.86875 0.0
C2916 C 0.6251 0.12656 0.88431 0.0
C2917 C 0.61606 0.15713 0.8941 0.0
C2918 C 0.6182 0.19813 0.90833 0.0
C2919 C 0.60965 0.22719 0.91742 0.0
C2920 C 0.59891 0.21524 0.91249 0.0
C2921 C 0.59671 0.17406 0.89848 0.0
C2922 C 0.60524 0.14493 0.88933 0.0
C2923 C 0.64309 0.84461 0.8785 0.0
C2924 C 0.63377 0.80959 0.87337 0.0
C2925 C 0.64312 0.91335 0.87901 0.0
C2926 C 0.63388 0.95006 0.8742 0.0
C2927 C 0.62454 0.91507 0.86919 0.0
C2928 C 0.62448 0.84626 0.86877 0.0
C2929 C 0.63389 1.02427 0.87462 0.0
C2930 C 0.62533 0.05769 0.88293 0.0
C2931 C 0.64236 0.0625 0.86726 0.0
C2932 C 0.65128 0.03235 0.85711 0.0
C2933 C 0.64897 0.9923 0.84276 0.0
C2934 C 0.65741 0.96376 0.83329 0.0
C2935 C 0.6682 0.97531 0.83796 0.0
C2936 C 0.67057 1.01559 0.85209 0.0
C2937 C 0.66216 0.0442 0.86161 0.0
H2938 H 0.67473 0.95317 0.83061 0.0
H2939 H 0.5923 0.23778 0.91955 0.0
H2940 H 0.36307 0.82377 0.61727 0.0
H2941 H 0.36325 0.94298 0.61638 0.0
H2942 H 0.39379 0.94394 0.64377 0.0
H2943 H 0.39362 0.82461 0.64481 0.0
H2944 H 0.38115 0.03985 0.6562 0.0
H2945 H 0.39187 0.97286 0.59893 0.0
H2946 H 0.39012 0.91387 0.57115 0.0
H2947 H 0.36016 1.01367 0.56046 0.0
H2948 H 0.36165 0.07261 0.58831 0.0
H2949 H 0.39491 0.37207 0.63872 0.0
H2950 H 0.39475 0.25281 0.63976 0.0
H2951 H 0.36425 0.2513 0.61225 0.0
H2952 H 0.36439 0.37057 0.61113 0.0
H2953 H 0.37689 0.15586 0.59989 0.0
H2954 H 0.36566 0.22115 0.65654 0.0
H2955 H 0.36684 0.28119 0.68422 0.0
H2956 H 0.39701 0.18579 0.6961 0.0
H2957 H 0.39608 0.12564 0.66834 0.0
C2958 C 0.36983 0.84909 0.6232 0.0
C2959 C 0.37834 0.81355 0.63109 0.0
C2960 C 0.36996 0.91781 0.62258 0.0
C2961 C 0.37861 0.95372 0.62979 0.0
C2962 C 0.38699 0.91834 0.63804 0.0
C2963 C 0.3869 0.84957 0.63859 0.0
C2964 C 0.37898 1.0276 0.62859 0.0
C2965 C 0.38037 0.06488 0.64381 0.0
C2966 C 0.3777 0.06174 0.61257 0.0
C2967 C 0.37682 1.02666 0.59579 0.0
C2968 C 0.38487 0.98188 0.59071 0.0
C2969 C 0.38393 0.9485 0.57495 0.0
C2970 C 0.37502 0.95989 0.56407 0.0
C2971 C 0.36705 1.00483 0.56892 0.0
C2972 C 0.36794 0.03826 0.58468 0.0
C2973 C 0.38817 0.34659 0.63279 0.0
C2974 C 0.37966 0.38192 0.62485 0.0
C2975 C 0.38805 0.27788 0.63349 0.0
C2976 C 0.37942 0.24184 0.62627 0.0
C2977 C 0.37103 0.27702 0.61799 0.0
C2978 C 0.37111 0.34575 0.61739 0.0
C2979 C 0.37908 0.16801 0.62748 0.0
C2980 C 0.37769 0.13078 0.61227 0.0
C2981 C 0.38028 0.13395 0.64351 0.0
C2982 C 0.38085 0.16934 0.66029 0.0
C2983 C 0.37259 0.21326 0.665 0.0
C2984 C 0.3732 0.24726 0.6807 0.0
C2985 C 0.382 0.23736 0.69189 0.0
C2986 C 0.3902 0.19338 0.6874 0.0
C2987 C 0.38963 0.15926 0.67169 0.0
H2988 H 0.38242 0.26361 0.70405 0.0
H2989 H 0.37431 0.934 0.55187 0.0
H2990 H 0.6481 0.67677 0.61433 0.0
H2991 H 0.64806 0.79578 0.61507 0.0
H2992 H 0.61637 0.79386 0.63885 0.0
H2993 H 0.61622 0.67476 0.63755 0.0
H2994 H 0.61635 0.88932 0.61761 0.0
H2995 H 0.6419 0.82816 0.66168 0.0
H2996 H 0.65795 0.77255 0.67398 0.0
H2997 H 0.67858 0.87335 0.63788 0.0
H2998 H 0.66264 0.92906 0.62523 0.0
H2999 H 0.61732 0.22485 0.64363 0.0
H3000 H 0.61716 0.10552 0.64343 0.0
H3001 H 0.64776 0.10417 0.61629 0.0
H3002 H 0.64805 0.22329 0.61669 0.0
H3003 H 0.64821 1.01077 0.63974 0.0
H3004 H 0.62211 0.07212 0.59593 0.0
H3005 H 0.60583 0.12814 0.58457 0.0
H3006 H 0.58593 1.02688 0.62163 0.0
H3007 H 0.60211 0.97087 0.63337 0.0
C3008 C 0.64109 0.70142 0.61973 0.0
C3009 C 0.63218 0.66505 0.62592 0.0
C3010 C 0.64111 0.77016 0.62028 0.0
C3011 C 0.63231 0.80542 0.62736 0.0
C3012 C 0.62333 0.76907 0.63333 0.0
C3013 C 0.62326 0.70032 0.63261 0.0
C3014 C 0.6324 0.87955 0.62845 0.0
C3015 C 0.62329 0.91544 0.62271 0.0
C3016 C 0.64146 0.91542 0.63478 0.0
C3017 C 0.65106 0.8823 0.6424 0.0
C3018 C 0.64985 0.83815 0.6563 0.0
C3019 C 0.65893 0.80665 0.66334 0.0
C3020 C 0.66927 0.81925 0.65668 0.0
C3021 C 0.67056 0.86356 0.643 0.0
C3022 C 0.66151 0.89517 0.63591 0.0
C3023 C 0.62405 0.19939 0.63764 0.0
C3024 C 0.63269 0.23481 0.63014 0.0
C3025 C 0.62392 0.13056 0.63742 0.0
C3026 C 0.63237 0.09442 0.6296 0.0
C3027 C 0.64109 0.1298 0.6224 0.0
C3028 C 0.64123 0.19854 0.62261 0.0
C3029 C 0.63217 1.02033 0.62888 0.0
C3030 C 0.64127 0.98451 0.63467 0.0
C3031 C 0.62307 0.98453 0.62275 0.0
C3032 C 0.61333 1.01779 0.61563 0.0
C3033 C 0.61427 0.06213 0.60173 0.0
C3034 C 0.60506 0.09383 0.59522 0.0
C3035 C 0.59486 0.08121 0.60241 0.0
C3036 C 0.59384 0.03669 0.6161 0.0
C3037 C 0.60303 1.00491 0.62267 0.0
H3038 H 0.58774 0.10581 0.59735 0.0
H3039 H 0.67629 0.79479 0.66214 0.0
loop_
_geom_bond_atom_site_label_1
_geom_bond_atom_site_label_2
_geom_bond_distance
_geom_bond_site_symmetry_2
_ccdc_geom_bond_type
Nd0 C2 2.836 . S
Nd0 O20 2.500 . S
Nd0 O21 2.492 . S
Nd0 O22 2.487 . S
Nd0 O23 2.682 . S
Nd0 O24 2.410 . S
Nd0 O29 2.414 . S
Nd0 O31 2.424 . S
Nd1 C11 2.836 . S
Nd1 O23 2.414 . S
Nd1 O25 2.424 1_545 S
Nd1 O26 2.500 . S
Nd1 O27 2.492 . S
Nd1 O28 2.487 . S
Nd1 O29 2.682 . S
Nd1 O30 2.410 . S
C2 Nd0 2.836 . S
C2 C3 1.498 . S
C2 O20 1.258 . S
C2 O21 1.239 . S
C3 C2 1.498 . S
C3 C4 1.366 1_545 S
C3 C8 1.407 . S
C4 C3 1.366 1_565 S
C4 C5 1.392 . S
C4 H32 0.930 . S
C5 C4 1.392 . S
C5 C6 1.398 . S
C5 H33 0.929 . S
C6 C5 1.398 . S
C6 C7 1.352 . S
C7 C6 1.352 . S
C7 C8 1.384 1_565 S
C7 H34 0.930 . S
C8 C3 1.407 . S
C8 C7 1.384 1_545 S
C8 H35 0.929 . S
C9 O22 1.241 . S
C9 O23 1.273 . S
C10 O24 1.251 1_565 S
C10 O25 1.268 . S
C11 Nd1 2.836 . S
C11 C12 1.498 . S
C11 O26 1.258 . S
C11 O27 1.239 . S
C12 C11 1.498 . S
C12 C13 1.366 . S
C12 C17 1.407 . S
C13 C12 1.366 . S
C13 C14 1.392 . S
C13 H36 0.930 . S
C14 C13 1.392 . S
C14 C15 1.398 . S
C14 H37 0.929 . S
C15 C14 1.398 . S
C15 C16 1.352 . S
C16 C15 1.352 . S
C16 C17 1.384 . S
C16 H38 0.930 . S
C17 C12 1.407 . S
C17 C16 1.384 . S
C17 H39 0.929 . S
C18 O28 1.241 . S
C18 O29 1.273 . S
C19 O30 1.251 . S
C19 O31 1.268 . S
O20 Nd0 2.500 . S
O20 C2 1.258 . S
O21 Nd0 2.492 . S
O21 C2 1.239 . S
O22 Nd0 2.487 . S
O22 C9 1.241 . S
O23 Nd0 2.682 . S
O23 Nd1 2.414 . S
O23 C9 1.273 . S
O24 Nd0 2.410 . S
O24 C10 1.251 1_545 S
O25 Nd1 2.424 1_565 S
O25 C10 1.268 . S
O26 Nd1 2.500 . S
O26 C11 1.258 . S
O27 Nd1 2.492 . S
O27 C11 1.239 . S
O28 Nd1 2.487 . S
O28 C18 1.241 . S
O29 Nd0 2.414 . S
O29 Nd1 2.682 . S
O29 C18 1.273 . S
O30 Nd1 2.410 . S
O30 C19 1.251 . S
O31 Nd0 2.424 . S
O31 C19 1.268 . S
H32 C4 0.930 . S
H33 C5 0.929 . S
H34 C7 0.930 . S
H35 C8 0.929 . S
H36 C13 0.930 . S
H37 C14 0.929 . S
H38 C16 0.930 . S
H39 C17 0.929 . S
Nd40 C42 2.836 . S
Nd40 O60 2.500 . S
Nd40 O61 2.492 . S
Nd40 O62 2.487 . S
Nd40 O63 2.682 . S
Nd40 O64 2.410 . S
Nd40 O69 2.414 . S
Nd40 O71 2.424 . S
Nd41 C51 2.836 . S
Nd41 O63 2.414 . S
Nd41 O65 2.424 1_565 S
Nd41 O66 2.500 . S
Nd41 O67 2.492 . S
Nd41 O68 2.487 . S
Nd41 O69 2.682 . S
Nd41 O70 2.410 . S
C42 Nd40 2.836 . S
C42 C43 1.498 . S
C42 O60 1.258 . S
C42 O61 1.239 . S
C43 C42 1.498 . S
C43 C44 1.366 1_565 S
C43 C48 1.407 . S
C44 C43 1.366 1_545 S
C44 C45 1.392 . S
C44 H72 0.930 . S
C45 C44 1.392 . S
C45 C46 1.398 . S
C45 H73 0.929 . S
C46 C45 1.398 . S
C46 C47 1.352 . S
C47 C46 1.352 . S
C47 C48 1.384 1_545 S
C47 H74 0.930 . S
C48 C43 1.407 . S
C48 C47 1.384 1_565 S
C48 H75 0.929 . S
C49 O62 1.241 . S
C49 O63 1.273 . S
C50 O64 1.251 1_545 S
C50 O65 1.268 . S
C51 Nd41 2.836 . S
C51 C52 1.498 . S
C51 O66 1.258 . S
C51 O67 1.239 . S
C52 C51 1.498 . S
C52 C53 1.366 . S
C52 C57 1.407 . S
C53 C52 1.366 . S
C53 C54 1.392 . S
C53 H76 0.930 . S
C54 C53 1.392 . S
C54 C55 1.398 . S
C54 H77 0.929 . S
C55 C54 1.398 . S
C55 C56 1.352 . S
C56 C55 1.352 . S
C56 C57 1.384 . S
C56 H78 0.930 . S
C57 C52 1.407 . S
C57 C56 1.384 . S
C57 H79 0.929 . S
C58 O68 1.241 . S
C58 O69 1.273 . S
C59 O70 1.251 . S
C59 O71 1.268 . S
O60 Nd40 2.500 . S
O60 C42 1.258 . S
O61 Nd40 2.492 . S
O61 C42 1.239 . S
O62 Nd40 2.487 . S
O62 C49 1.241 . S
O63 Nd40 2.682 . S
O63 Nd41 2.414 . S
O63 C49 1.273 . S
O64 Nd40 2.410 . S
O64 C50 1.251 1_565 S
O65 Nd41 2.424 1_545 S
O65 C50 1.268 . S
O66 Nd41 2.500 . S
O66 C51 1.258 . S
O67 Nd41 2.492 . S
O67 C51 1.239 . S
O68 Nd41 2.487 . S
O68 C58 1.241 . S
O69 Nd40 2.414 . S
O69 Nd41 2.682 . S
O69 C58 1.273 . S
O70 Nd41 2.410 . S
O70 C59 1.251 . S
O71 Nd40 2.424 . S
O71 C59 1.268 . S
H72 C44 0.930 . S
H73 C45 0.929 . S
H74 C47 0.930 . S
H75 C48 0.929 . S
H76 C53 0.930 . S
H77 C54 0.929 . S
H78 C56 0.930 . S
H79 C57 0.929 . S
Nd80 C82 2.836 . S
Nd80 O100 2.500 . S
Nd80 O101 2.492 . S
Nd80 O102 2.487 . S
Nd80 O103 2.682 . S
Nd80 O104 2.410 . S
Nd80 O109 2.414 . S
Nd80 O111 2.424 . S
Nd81 C91 2.836 . S
Nd81 O103 2.414 . S
Nd81 O105 2.424 1_565 S
Nd81 O106 2.500 . S
Nd81 O107 2.492 . S
Nd81 O108 2.487 . S
Nd81 O109 2.682 . S
Nd81 O110 2.410 . S
C82 Nd80 2.836 . S
C82 C83 1.498 . S
C82 O100 1.258 . S
C82 O101 1.239 . S
C83 C82 1.498 . S
C83 C84 1.366 1_565 S
C83 C88 1.407 . S
C84 C83 1.366 1_545 S
C84 C85 1.392 . S
C84 H112 0.930 . S
C85 C84 1.392 . S
C85 C86 1.398 . S
C85 H113 0.929 . S
C86 C85 1.398 . S
C86 C87 1.352 . S
C87 C86 1.352 . S
C87 C88 1.384 1_545 S
C87 H114 0.930 . S
C88 C83 1.407 . S
C88 C87 1.384 1_565 S
C88 H115 0.929 . S
C89 O102 1.241 . S
C89 O103 1.273 . S
C90 O104 1.251 1_545 S
C90 O105 1.268 . S
C91 Nd81 2.836 . S
C91 C92 1.498 . S
C91 O106 1.258 . S
C91 O107 1.239 . S
C92 C91 1.498 . S
C92 C93 1.366 . S
C92 C97 1.407 . S
C93 C92 1.366 . S
C93 C94 1.392 . S
C93 H116 0.930 . S
C94 C93 1.392 . S
C94 C95 1.398 . S
C94 H117 0.929 . S
C95 C94 1.398 . S
C95 C96 1.352 . S
C96 C95 1.352 . S
C96 C97 1.384 . S
C96 H118 0.930 . S
C97 C92 1.407 . S
C97 C96 1.384 . S
C97 H119 0.929 . S
C98 O108 1.241 . S
C98 O109 1.273 . S
C99 O110 1.251 . S
C99 O111 1.268 . S
O100 Nd80 2.500 . S
O100 C82 1.258 . S
O101 Nd80 2.492 . S
O101 C82 1.239 . S
O102 Nd80 2.487 . S
O102 C89 1.241 . S
O103 Nd80 2.682 . S
O103 Nd81 2.414 . S
O103 C89 1.273 . S
O104 Nd80 2.410 . S
O104 C90 1.251 1_565 S
O105 Nd81 2.424 1_545 S
O105 C90 1.268 . S
O106 Nd81 2.500 . S
O106 C91 1.258 . S
O107 Nd81 2.492 . S
O107 C91 1.239 . S
O108 Nd81 2.487 . S
O108 C98 1.241 . S
O109 Nd80 2.414 . S
O109 Nd81 2.682 . S
O109 C98 1.273 . S
O110 Nd81 2.410 . S
O110 C99 1.251 . S
O111 Nd80 2.424 . S
O111 C99 1.268 . S
H112 C84 0.930 . S
H113 C85 0.929 . S
H114 C87 0.930 . S
H115 C88 0.929 . S
H116 C93 0.930 . S
H117 C94 0.929 . S
H118 C96 0.930 . S
H119 C97 0.929 . S
Nd120 C122 2.836 . S
Nd120 O140 2.500 . S
Nd120 O141 2.492 . S
Nd120 O142 2.487 . S
Nd120 O143 2.682 . S
Nd120 O144 2.410 . S
Nd120 O149 2.414 . S
Nd120 O151 2.424 . S
Nd121 C131 2.836 . S
Nd121 O143 2.414 . S
Nd121 O145 2.424 1_545 S
Nd121 O146 2.500 . S
Nd121 O147 2.492 . S
Nd121 O148 2.487 . S
Nd121 O149 2.682 . S
Nd121 O150 2.410 . S
C122 Nd120 2.836 . S
C122 C123 1.498 . S
C122 O140 1.258 . S
C122 O141 1.239 . S
C123 C122 1.498 . S
C123 C124 1.366 1_545 S
C123 C128 1.407 . S
C124 C123 1.366 1_565 S
C124 C125 1.392 . S
C124 H152 0.930 . S
C125 C124 1.392 . S
C125 C126 1.398 . S
C125 H153 0.929 . S
C126 C125 1.398 . S
C126 C127 1.352 . S
C127 C126 1.352 . S
C127 C128 1.384 1_565 S
C127 H154 0.930 . S
C128 C123 1.407 . S
C128 C127 1.384 1_545 S
C128 H155 0.929 . S
C129 O142 1.241 . S
C129 O143 1.273 . S
C130 O144 1.251 1_565 S
C130 O145 1.268 . S
C131 Nd121 2.836 . S
C131 C132 1.498 . S
C131 O146 1.258 . S
C131 O147 1.239 . S
C132 C131 1.498 . S
C132 C133 1.366 . S
C132 C137 1.407 . S
C133 C132 1.366 . S
C133 C134 1.392 . S
C133 H156 0.930 . S
C134 C133 1.392 . S
C134 C135 1.398 . S
C134 H157 0.929 . S
C135 C134 1.398 . S
C135 C136 1.352 . S
C136 C135 1.352 . S
C136 C137 1.384 . S
C136 H158 0.930 . S
C137 C132 1.407 . S
C137 C136 1.384 . S
C137 H159 0.929 . S
C138 O148 1.241 . S
C138 O149 1.273 . S
C139 O150 1.251 . S
C139 O151 1.268 . S
O140 Nd120 2.500 . S
O140 C122 1.258 . S
O141 Nd120 2.492 . S
O141 C122 1.239 . S
O142 Nd120 2.487 . S
O142 C129 1.241 . S
O143 Nd120 2.682 . S
O143 Nd121 2.414 . S
O143 C129 1.273 . S
O144 Nd120 2.410 . S
O144 C130 1.251 1_545 S
O145 Nd121 2.424 1_565 S
O145 C130 1.268 . S
O146 Nd121 2.500 . S
O146 C131 1.258 . S
O147 Nd121 2.492 . S
O147 C131 1.239 . S
O148 Nd121 2.487 . S
O148 C138 1.241 . S
O149 Nd120 2.414 . S
O149 Nd121 2.682 . S
O149 C138 1.273 . S
O150 Nd121 2.410 . S
O150 C139 1.251 . S
O151 Nd120 2.424 . S
O151 C139 1.268 . S
H152 C124 0.930 . S
H153 C125 0.929 . S
H154 C127 0.930 . S
H155 C128 0.929 . S
H156 C133 0.930 . S
H157 C134 0.929 . S
H158 C136 0.930 . S
H159 C137 0.929 . S
Nd160 C162 2.836 . S
Nd160 O180 2.500 . S
Nd160 O181 2.492 . S
Nd160 O182 2.487 . S
Nd160 O183 2.682 . S
Nd160 O184 2.410 . S
Nd160 O189 2.414 . S
Nd160 O191 2.424 1_565 S
Nd161 C171 2.836 . S
Nd161 O183 2.414 . S
Nd161 O185 2.424 . S
Nd161 O186 2.500 . S
Nd161 O187 2.492 . S
Nd161 O188 2.487 . S
Nd161 O189 2.682 . S
Nd161 O190 2.410 . S
C162 Nd160 2.836 . S
C162 C163 1.498 . S
C162 O180 1.258 . S
C162 O181 1.239 . S
C163 C162 1.498 . S
C163 C164 1.366 . S
C163 C168 1.407 . S
C164 C163 1.366 . S
C164 C165 1.392 . S
C164 H192 0.930 . S
C165 C164 1.392 . S
C165 C166 1.398 . S
C165 H193 0.929 . S
C166 C165 1.398 . S
C166 C167 1.352 . S
C167 C166 1.352 . S
C167 C168 1.384 . S
C167 H194 0.930 . S
C168 C163 1.407 . S
C168 C167 1.384 . S
C168 H195 0.929 . S
C169 O182 1.241 . S
C169 O183 1.273 . S
C170 O184 1.251 . S
C170 O185 1.268 . S
C171 Nd161 2.836 . S
C171 C172 1.498 . S
C171 O186 1.258 . S
C171 O187 1.239 . S
C172 C171 1.498 . S
C172 C173 1.366 1_565 S
C172 C177 1.407 . S
C173 C172 1.366 1_545 S
C173 C174 1.392 . S
C173 H196 0.930 . S
C174 C173 1.392 . S
C174 C175 1.398 . S
C174 H197 0.929 . S
C175 C174 1.398 . S
C175 C176 1.352 . S
C176 C175 1.352 . S
C176 C177 1.384 1_545 S
C176 H198 0.930 . S
C177 C172 1.407 . S
C177 C176 1.384 1_565 S
C177 H199 0.929 . S
C178 O188 1.241 . S
C178 O189 1.273 . S
C179 O190 1.251 1_545 S
C179 O191 1.268 . S
O180 Nd160 2.500 . S
O180 C162 1.258 . S
O181 Nd160 2.492 . S
O181 C162 1.239 . S
O182 Nd160 2.487 . S
O182 C169 1.241 . S
O183 Nd160 2.682 . S
O183 Nd161 2.414 . S
O183 C169 1.273 . S
O184 Nd160 2.410 . S
O184 C170 1.251 . S
O185 Nd161 2.424 . S
O185 C170 1.268 . S
O186 Nd161 2.500 . S
O186 C171 1.258 . S
O187 Nd161 2.492 . S
O187 C171 1.239 . S
O188 Nd161 2.487 . S
O188 C178 1.241 . S
O189 Nd160 2.414 . S
O189 Nd161 2.682 . S
O189 C178 1.273 . S
O190 Nd161 2.410 . S
O190 C179 1.251 1_565 S
O191 Nd160 2.424 1_545 S
O191 C179 1.268 . S
H192 C164 0.930 . S
H193 C165 0.929 . S
H194 C167 0.930 . S
H195 C168 0.929 . S
H196 C173 0.930 . S
H197 C174 0.929 . S
H198 C176 0.930 . S
H199 C177 0.929 . S
Nd200 C202 2.836 . S
Nd200 O220 2.500 . S
Nd200 O221 2.492 . S
Nd200 O222 2.487 . S
Nd200 O223 2.682 . S
Nd200 O224 2.410 . S
Nd200 O229 2.414 . S
Nd200 O231 2.424 1_545 S
Nd201 C211 2.836 . S
Nd201 O223 2.414 . S
Nd201 O225 2.424 . S
Nd201 O226 2.500 . S
Nd201 O227 2.492 . S
Nd201 O228 2.487 . S
Nd201 O229 2.682 . S
Nd201 O230 2.410 . S
C202 Nd200 2.836 . S
C202 C203 1.498 . S
C202 O220 1.258 . S
C202 O221 1.239 . S
C203 C202 1.498 . S
C203 C204 1.366 . S
C203 C208 1.407 . S
C204 C203 1.366 . S
C204 C205 1.392 . S
C204 H232 0.930 . S
C205 C204 1.392 . S
C205 C206 1.398 . S
C205 H233 0.929 . S
C206 C205 1.398 . S
C206 C207 1.352 . S
C207 C206 1.352 . S
C207 C208 1.384 . S
C207 H234 0.930 . S
C208 C203 1.407 . S
C208 C207 1.384 . S
C208 H235 0.929 . S
C209 O222 1.241 . S
C209 O223 1.273 . S
C210 O224 1.251 . S
C210 O225 1.268 . S
C211 Nd201 2.836 . S
C211 C212 1.498 . S
C211 O226 1.258 . S
C211 O227 1.239 . S
C212 C211 1.498 . S
C212 C213 1.366 1_545 S
C212 C217 1.407 . S
C213 C212 1.366 1_565 S
C213 C214 1.392 . S
C213 H236 0.930 . S
C214 C213 1.392 . S
C214 C215 1.398 . S
C214 H237 0.929 . S
C215 C214 1.398 . S
C215 C216 1.352 . S
C216 C215 1.352 . S
C216 C217 1.384 1_565 S
C216 H238 0.930 . S
C217 C212 1.407 . S
C217 C216 1.384 1_545 S
C217 H239 0.929 . S
C218 O228 1.241 . S
C218 O229 1.273 . S
C219 O230 1.251 1_565 S
C219 O231 1.268 . S
O220 Nd200 2.500 . S
O220 C202 1.258 . S
O221 Nd200 2.492 . S
O221 C202 1.239 . S
O222 Nd200 2.487 . S
O222 C209 1.241 . S
O223 Nd200 2.682 . S
O223 Nd201 2.414 . S
O223 C209 1.273 . S
O224 Nd200 2.410 . S
O224 C210 1.251 . S
O225 Nd201 2.424 . S
O225 C210 1.268 . S
O226 Nd201 2.500 . S
O226 C211 1.258 . S
O227 Nd201 2.492 . S
O227 C211 1.239 . S
O228 Nd201 2.487 . S
O228 C218 1.241 . S
O229 Nd200 2.414 . S
O229 Nd201 2.682 . S
O229 C218 1.273 . S
O230 Nd201 2.410 . S
O230 C219 1.251 1_545 S
O231 Nd200 2.424 1_565 S
O231 C219 1.268 . S
H232 C204 0.930 . S
H233 C205 0.929 . S
H234 C207 0.930 . S
H235 C208 0.929 . S
H236 C213 0.930 . S
H237 C214 0.929 . S
H238 C216 0.930 . S
H239 C217 0.929 . S
Nd240 C242 2.836 . S
Nd240 O260 2.500 . S
Nd240 O261 2.492 . S
Nd240 O262 2.487 . S
Nd240 O263 2.682 . S
Nd240 O264 2.410 . S
Nd240 O269 2.414 . S
Nd240 O271 2.424 1_545 S
Nd241 C251 2.836 . S
Nd241 O263 2.414 . S
Nd241 O265 2.424 . S
Nd241 O266 2.500 . S
Nd241 O267 2.492 . S
Nd241 O268 2.487 . S
Nd241 O269 2.682 . S
Nd241 O270 2.410 . S
C242 Nd240 2.836 . S
C242 C243 1.498 . S
C242 O260 1.258 . S
C242 O261 1.239 . S
C243 C242 1.498 . S
C243 C244 1.366 . S
C243 C248 1.407 . S
C244 C243 1.366 . S
C244 C245 1.392 . S
C244 H272 0.930 . S
C245 C244 1.392 . S
C245 C246 1.398 . S
C245 H273 0.929 . S
C246 C245 1.398 . S
C246 C247 1.352 . S
C247 C246 1.352 . S
C247 C248 1.384 . S
C247 H274 0.930 . S
C248 C243 1.407 . S
C248 C247 1.384 . S
C248 H275 0.929 . S
C249 O262 1.241 . S
C249 O263 1.273 . S
C250 O264 1.251 . S
C250 O265 1.268 . S
C251 Nd241 2.836 . S
C251 C252 1.498 . S
C251 O266 1.258 . S
C251 O267 1.239 . S
C252 C251 1.498 . S
C252 C253 1.366 1_545 S
C252 C257 1.407 . S
C253 C252 1.366 1_565 S
C253 C254 1.392 . S
C253 H276 0.930 . S
C254 C253 1.392 . S
C254 C255 1.398 . S
C254 H277 0.929 . S
C255 C254 1.398 . S
C255 C256 1.352 . S
C256 C255 1.352 . S
C256 C257 1.384 1_565 S
C256 H278 0.930 . S
C257 C252 1.407 . S
C257 C256 1.384 1_545 S
C257 H279 0.929 . S
C258 O268 1.241 . S
C258 O269 1.273 . S
C259 O270 1.251 1_565 S
C259 O271 1.268 . S
O260 Nd240 2.500 . S
O260 C242 1.258 . S
O261 Nd240 2.492 . S
O261 C242 1.239 . S
O262 Nd240 2.487 . S
O262 C249 1.241 . S
O263 Nd240 2.682 . S
O263 Nd241 2.414 . S
O263 C249 1.273 . S
O264 Nd240 2.410 . S
O264 C250 1.251 . S
O265 Nd241 2.424 . S
O265 C250 1.268 . S
O266 Nd241 2.500 . S
O266 C251 1.258 . S
O267 Nd241 2.492 . S
O267 C251 1.239 . S
O268 Nd241 2.487 . S
O268 C258 1.241 . S
O269 Nd240 2.414 . S
O269 Nd241 2.682 . S
O269 C258 1.273 . S
O270 Nd241 2.410 . S
O270 C259 1.251 1_545 S
O271 Nd240 2.424 1_565 S
O271 C259 1.268 . S
H272 C244 0.930 . S
H273 C245 0.929 . S
H274 C247 0.930 . S
H275 C248 0.929 . S
H276 C253 0.930 . S
H277 C254 0.929 . S
H278 C256 0.930 . S
H279 C257 0.929 . S
Nd280 C282 2.836 . S
Nd280 O300 2.500 . S
Nd280 O301 2.492 . S
Nd280 O302 2.487 . S
Nd280 O303 2.682 . S
Nd280 O304 2.410 . S
Nd280 O309 2.414 . S
Nd280 O311 2.424 1_565 S
Nd281 C291 2.836 . S
Nd281 O303 2.414 . S
Nd281 O305 2.424 . S
Nd281 O306 2.500 . S
Nd281 O307 2.492 . S
Nd281 O308 2.487 . S
Nd281 O309 2.682 . S
Nd281 O310 2.410 . S
C282 Nd280 2.836 . S
C282 C283 1.498 . S
C282 O300 1.258 . S
C282 O301 1.239 . S
C283 C282 1.498 . S
C283 C284 1.366 . S
C283 C288 1.407 . S
C284 C283 1.366 . S
C284 C285 1.392 . S
C284 H312 0.930 . S
C285 C284 1.392 . S
C285 C286 1.398 . S
C285 H313 0.929 . S
C286 C285 1.398 . S
C286 C287 1.352 . S
C287 C286 1.352 . S
C287 C288 1.384 . S
C287 H314 0.930 . S
C288 C283 1.407 . S
C288 C287 1.384 . S
C288 H315 0.929 . S
C289 O302 1.241 . S
C289 O303 1.273 . S
C290 O304 1.251 . S
C290 O305 1.268 . S
C291 Nd281 2.836 . S
C291 C292 1.498 . S
C291 O306 1.258 . S
C291 O307 1.239 . S
C292 C291 1.498 . S
C292 C293 1.366 1_565 S
C292 C297 1.407 . S
C293 C292 1.366 1_545 S
C293 C294 1.392 . S
C293 H316 0.930 . S
C294 C293 1.392 . S
C294 C295 1.398 . S
C294 H317 0.929 . S
C295 C294 1.398 . S
C295 C296 1.352 . S
C296 C295 1.352 . S
C296 C297 1.384 1_545 S
C296 H318 0.930 . S
C297 C292 1.407 . S
C297 C296 1.384 1_565 S
C297 H319 0.929 . S
C298 O308 1.241 . S
C298 O309 1.273 . S
C299 O310 1.251 1_545 S
C299 O311 1.268 . S
O300 Nd280 2.500 . S
O300 C282 1.258 . S
O301 Nd280 2.492 . S
O301 C282 1.239 . S
O302 Nd280 2.487 . S
O302 C289 1.241 . S
O303 Nd280 2.682 . S
O303 Nd281 2.414 . S
O303 C289 1.273 . S
O304 Nd280 2.410 . S
O304 C290 1.251 . S
O305 Nd281 2.424 . S
O305 C290 1.268 . S
O306 Nd281 2.500 . S
O306 C291 1.258 . S
O307 Nd281 2.492 . S
O307 C291 1.239 . S
O308 Nd281 2.487 . S
O308 C298 1.241 . S
O309 Nd280 2.414 . S
O309 Nd281 2.682 . S
O309 C298 1.273 . S
O310 Nd281 2.410 . S
O310 C299 1.251 1_565 S
O311 Nd280 2.424 1_545 S
O311 C299 1.268 . S
H312 C284 0.930 . S
H313 C285 0.929 . S
H314 C287 0.930 . S
H315 C288 0.929 . S
H316 C293 0.930 . S
H317 C294 0.929 . S
H318 C296 0.930 . S
H319 C297 0.929 . S
Nd320 C322 2.836 . S
Nd320 O340 2.500 . S
Nd320 O341 2.492 . S
Nd320 O342 2.487 . S
Nd320 O343 2.682 . S
Nd320 O344 2.410 . S
Nd320 O349 2.414 . S
Nd320 O351 2.424 . S
Nd321 C331 2.836 . S
Nd321 O343 2.414 . S
Nd321 O345 2.424 . S
Nd321 O346 2.500 . S
Nd321 O347 2.492 . S
Nd321 O348 2.487 . S
Nd321 O349 2.682 . S
Nd321 O350 2.410 . S
C322 Nd320 2.836 . S
C322 C323 1.498 . S
C322 O340 1.258 . S
C322 O341 1.239 . S
C323 C322 1.498 . S
C323 C324 1.366 . S
C323 C328 1.407 . S
C324 C323 1.366 . S
C324 C325 1.392 . S
C324 H352 0.930 . S
C325 C324 1.392 . S
C325 C326 1.398 . S
C325 H353 0.929 . S
C326 C325 1.398 . S
C326 C327 1.352 . S
C327 C326 1.352 . S
C327 C328 1.384 . S
C327 H354 0.930 . S
C328 C323 1.407 . S
C328 C327 1.384 . S
C328 H355 0.929 . S
C329 O342 1.241 . S
C329 O343 1.273 . S
C330 O344 1.251 . S
C330 O345 1.268 . S
C331 Nd321 2.836 . S
C331 C332 1.498 . S
C331 O346 1.258 . S
C331 O347 1.239 . S
C332 C331 1.498 . S
C332 C333 1.366 . S
C332 C337 1.407 . S
C333 C332 1.366 . S
C333 C334 1.392 . S
C333 H356 0.930 . S
C334 C333 1.392 . S
C334 C335 1.398 . S
C334 H357 0.929 . S
C335 C334 1.398 . S
C335 C336 1.352 . S
C336 C335 1.352 . S
C336 C337 1.384 . S
C336 H358 0.930 . S
C337 C332 1.407 . S
C337 C336 1.384 . S
C337 H359 0.929 . S
C338 O348 1.241 . S
C338 O349 1.273 . S
C339 O350 1.251 . S
C339 O351 1.268 . S
O340 Nd320 2.500 . S
O340 C322 1.258 . S
O341 Nd320 2.492 . S
O341 C322 1.239 . S
O342 Nd320 2.487 . S
O342 C329 1.241 . S
O343 Nd320 2.682 . S
O343 Nd321 2.414 . S
O343 C329 1.273 . S
O344 Nd320 2.410 . S
O344 C330 1.251 . S
O345 Nd321 2.424 . S
O345 C330 1.268 . S
O346 Nd321 2.500 . S
O346 C331 1.258 . S
O347 Nd321 2.492 . S
O347 C331 1.239 . S
O348 Nd321 2.487 . S
O348 C338 1.241 . S
O349 Nd320 2.414 . S
O349 Nd321 2.682 . S
O349 C338 1.273 . S
O350 Nd321 2.410 . S
O350 C339 1.251 . S
O351 Nd320 2.424 . S
O351 C339 1.268 . S
H352 C324 0.930 . S
H353 C325 0.929 . S
H354 C327 0.930 . S
H355 C328 0.929 . S
H356 C333 0.930 . S
H357 C334 0.929 . S
H358 C336 0.930 . S
H359 C337 0.929 . S
Nd360 C362 2.836 . S
Nd360 O380 2.500 . S
Nd360 O381 2.492 . S
Nd360 O382 2.487 . S
Nd360 O383 2.682 . S
Nd360 O384 2.410 . S
Nd360 O389 2.414 . S
Nd360 O391 2.424 . S
Nd361 C371 2.836 . S
Nd361 O383 2.414 . S
Nd361 O385 2.424 . S
Nd361 O386 2.500 . S
Nd361 O387 2.492 . S
Nd361 O388 2.487 . S
Nd361 O389 2.682 . S
Nd361 O390 2.410 . S
C362 Nd360 2.836 . S
C362 C363 1.498 . S
C362 O380 1.258 . S
C362 O381 1.239 . S
C363 C362 1.498 . S
C363 C364 1.366 . S
C363 C368 1.407 . S
C364 C363 1.366 . S
C364 C365 1.392 . S
C364 H392 0.930 . S
C365 C364 1.392 . S
C365 C366 1.398 . S
C365 H393 0.929 . S
C366 C365 1.398 . S
C366 C367 1.352 . S
C367 C366 1.352 . S
C367 C368 1.384 . S
C367 H394 0.930 . S
C368 C363 1.407 . S
C368 C367 1.384 . S
C368 H395 0.929 . S
C369 O382 1.241 . S
C369 O383 1.273 . S
C370 O384 1.251 . S
C370 O385 1.268 . S
C371 Nd361 2.836 . S
C371 C372 1.498 . S
C371 O386 1.258 . S
C371 O387 1.239 . S
C372 C371 1.498 . S
C372 C373 1.366 . S
C372 C377 1.407 . S
C373 C372 1.366 . S
C373 C374 1.392 . S
C373 H396 0.930 . S
C374 C373 1.392 . S
C374 C375 1.398 . S
C374 H397 0.929 . S
C375 C374 1.398 . S
C375 C376 1.352 . S
C376 C375 1.352 . S
C376 C377 1.384 . S
C376 H398 0.930 . S
C377 C372 1.407 . S
C377 C376 1.384 . S
C377 H399 0.929 . S
C378 O388 1.241 . S
C378 O389 1.273 . S
C379 O390 1.251 . S
C379 O391 1.268 . S
O380 Nd360 2.500 . S
O380 C362 1.258 . S
O381 Nd360 2.492 . S
O381 C362 1.239 . S
O382 Nd360 2.487 . S
O382 C369 1.241 . S
O383 Nd360 2.682 . S
O383 Nd361 2.414 . S
O383 C369 1.273 . S
O384 Nd360 2.410 . S
O384 C370 1.251 . S
O385 Nd361 2.424 . S
O385 C370 1.268 . S
O386 Nd361 2.500 . S
O386 C371 1.258 . S
O387 Nd361 2.492 . S
O387 C371 1.239 . S
O388 Nd361 2.487 . S
O388 C378 1.241 . S
O389 Nd360 2.414 . S
O389 Nd361 2.682 . S
O389 C378 1.273 . S
O390 Nd361 2.410 . S
O390 C379 1.251 . S
O391 Nd360 2.424 . S
O391 C379 1.268 . S
H392 C364 0.930 . S
H393 C365 0.929 . S
H394 C367 0.930 . S
H395 C368 0.929 . S
H396 C373 0.930 . S
H397 C374 0.929 . S
H398 C376 0.930 . S
H399 C377 0.929 . S
Nd400 C402 2.836 . S
Nd400 O420 2.500 . S
Nd400 O421 2.492 . S
Nd400 O422 2.487 . S
Nd400 O423 2.682 . S
Nd400 O424 2.410 . S
Nd400 O429 2.414 . S
Nd400 O431 2.424 . S
Nd401 C411 2.836 . S
Nd401 O423 2.414 . S
Nd401 O425 2.424 . S
Nd401 O426 2.500 . S
Nd401 O427 2.492 . S
Nd401 O428 2.487 . S
Nd401 O429 2.682 . S
Nd401 O430 2.410 . S
C402 Nd400 2.836 . S
C402 C403 1.498 . S
C402 O420 1.258 . S
C402 O421 1.239 . S
C403 C402 1.498 . S
C403 C404 1.366 . S
C403 C408 1.407 . S
C404 C403 1.366 . S
C404 C405 1.392 . S
C404 H432 0.930 . S
C405 C404 1.392 . S
C405 C406 1.398 . S
C405 H433 0.929 . S
C406 C405 1.398 . S
C406 C407 1.352 . S
C407 C406 1.352 . S
C407 C408 1.384 . S
C407 H434 0.930 . S
C408 C403 1.407 . S
C408 C407 1.384 . S
C408 H435 0.929 . S
C409 O422 1.241 . S
C409 O423 1.273 . S
C410 O424 1.251 . S
C410 O425 1.268 . S
C411 Nd401 2.836 . S
C411 C412 1.498 . S
C411 O426 1.258 . S
C411 O427 1.239 . S
C412 C411 1.498 . S
C412 C413 1.366 . S
C412 C417 1.407 . S
C413 C412 1.366 . S
C413 C414 1.392 . S
C413 H436 0.930 . S
C414 C413 1.392 . S
C414 C415 1.398 . S
C414 H437 0.929 . S
C415 C414 1.398 . S
C415 C416 1.352 . S
C416 C415 1.352 . S
C416 C417 1.384 . S
C416 H438 0.930 . S
C417 C412 1.407 . S
C417 C416 1.384 . S
C417 H439 0.929 . S
C418 O428 1.241 . S
C418 O429 1.273 . S
C419 O430 1.251 . S
C419 O431 1.268 . S
O420 Nd400 2.500 . S
O420 C402 1.258 . S
O421 Nd400 2.492 . S
O421 C402 1.239 . S
O422 Nd400 2.487 . S
O422 C409 1.241 . S
O423 Nd400 2.682 . S
O423 Nd401 2.414 . S
O423 C409 1.273 . S
O424 Nd400 2.410 . S
O424 C410 1.251 . S
O425 Nd401 2.424 . S
O425 C410 1.268 . S
O426 Nd401 2.500 . S
O426 C411 1.258 . S
O427 Nd401 2.492 . S
O427 C411 1.239 . S
O428 Nd401 2.487 . S
O428 C418 1.241 . S
O429 Nd400 2.414 . S
O429 Nd401 2.682 . S
O429 C418 1.273 . S
O430 Nd401 2.410 . S
O430 C419 1.251 . S
O431 Nd400 2.424 . S
O431 C419 1.268 . S
H432 C404 0.930 . S
H433 C405 0.929 . S
H434 C407 0.930 . S
H435 C408 0.929 . S
H436 C413 0.930 . S
H437 C414 0.929 . S
H438 C416 0.930 . S
H439 C417 0.929 . S
Nd440 C442 2.836 . S
Nd440 O460 2.500 . S
Nd440 O461 2.492 . S
Nd440 O462 2.487 . S
Nd440 O463 2.682 . S
Nd440 O464 2.410 . S
Nd440 O469 2.414 . S
Nd440 O471 2.424 . S
Nd441 C451 2.836 . S
Nd441 O463 2.414 . S
Nd441 O465 2.424 . S
Nd441 O466 2.500 . S
Nd441 O467 2.492 . S
Nd441 O468 2.487 . S
Nd441 O469 2.682 . S
Nd441 O470 2.410 . S
C442 Nd440 2.836 . S
C442 C443 1.498 . S
C442 O460 1.258 . S
C442 O461 1.239 . S
C443 C442 1.498 . S
C443 C444 1.366 . S
C443 C448 1.407 . S
C444 C443 1.366 . S
C444 C445 1.392 . S
C444 H472 0.930 . S
C445 C444 1.392 . S
C445 C446 1.398 . S
C445 H473 0.929 . S
C446 C445 1.398 . S
C446 C447 1.352 . S
C447 C446 1.352 . S
C447 C448 1.384 . S
C447 H474 0.930 . S
C448 C443 1.407 . S
C448 C447 1.384 . S
C448 H475 0.929 . S
C449 O462 1.241 . S
C449 O463 1.273 . S
C450 O464 1.251 . S
C450 O465 1.268 . S
C451 Nd441 2.836 . S
C451 C452 1.498 . S
C451 O466 1.258 . S
C451 O467 1.239 . S
C452 C451 1.498 . S
C452 C453 1.366 . S
C452 C457 1.407 . S
C453 C452 1.366 . S
C453 C454 1.392 . S
C453 H476 0.930 . S
C454 C453 1.392 . S
C454 C455 1.398 . S
C454 H477 0.929 . S
C455 C454 1.398 . S
C455 C456 1.352 . S
C456 C455 1.352 . S
C456 C457 1.384 . S
C456 H478 0.930 . S
C457 C452 1.407 . S
C457 C456 1.384 . S
C457 H479 0.929 . S
C458 O468 1.241 . S
C458 O469 1.273 . S
C459 O470 1.251 . S
C459 O471 1.268 . S
O460 Nd440 2.500 . S
O460 C442 1.258 . S
O461 Nd440 2.492 . S
O461 C442 1.239 . S
O462 Nd440 2.487 . S
O462 C449 1.241 . S
O463 Nd440 2.682 . S
O463 Nd441 2.414 . S
O463 C449 1.273 . S
O464 Nd440 2.410 . S
O464 C450 1.251 . S
O465 Nd441 2.424 . S
O465 C450 1.268 . S
O466 Nd441 2.500 . S
O466 C451 1.258 . S
O467 Nd441 2.492 . S
O467 C451 1.239 . S
O468 Nd441 2.487 . S
O468 C458 1.241 . S
O469 Nd440 2.414 . S
O469 Nd441 2.682 . S
O469 C458 1.273 . S
O470 Nd441 2.410 . S
O470 C459 1.251 . S
O471 Nd440 2.424 . S
O471 C459 1.268 . S
H472 C444 0.930 . S
H473 C445 0.929 . S
H474 C447 0.930 . S
H475 C448 0.929 . S
H476 C453 0.930 . S
H477 C454 0.929 . S
H478 C456 0.930 . S
H479 C457 0.929 . S
Nd480 C482 2.836 . S
Nd480 O500 2.500 . S
Nd480 O501 2.492 . S
Nd480 O502 2.487 . S
Nd480 O503 2.682 . S
Nd480 O504 2.410 . S
Nd480 O509 2.414 . S
Nd480 O511 2.424 . S
Nd481 C491 2.836 . S
Nd481 O503 2.414 . S
Nd481 O505 2.424 . S
Nd481 O506 2.500 . S
Nd481 O507 2.492 . S
Nd481 O508 2.487 . S
Nd481 O509 2.682 . S
Nd481 O510 2.410 . S
C482 Nd480 2.836 . S
C482 C483 1.498 . S
C482 O500 1.258 . S
C482 O501 1.239 . S
C483 C482 1.498 . S
C483 C484 1.366 . S
C483 C488 1.407 . S
C484 C483 1.366 . S
C484 C485 1.392 . S
C484 H512 0.930 . S
C485 C484 1.392 . S
C485 C486 1.398 . S
C485 H513 0.929 . S
C486 C485 1.398 . S
C486 C487 1.352 . S
C487 C486 1.352 . S
C487 C488 1.384 . S
C487 H514 0.930 . S
C488 C483 1.407 . S
C488 C487 1.384 . S
C488 H515 0.929 . S
C489 O502 1.241 . S
C489 O503 1.273 . S
C490 O504 1.251 . S
C490 O505 1.268 . S
C491 Nd481 2.836 . S
C491 C492 1.498 . S
C491 O506 1.258 . S
C491 O507 1.239 . S
C492 C491 1.498 . S
C492 C493 1.366 . S
C492 C497 1.407 . S
C493 C492 1.366 . S
C493 C494 1.392 . S
C493 H516 0.930 . S
C494 C493 1.392 . S
C494 C495 1.398 . S
C494 H517 0.929 . S
C495 C494 1.398 . S
C495 C496 1.352 . S
C496 C495 1.352 . S
C496 C497 1.384 . S
C496 H518 0.930 . S
C497 C492 1.407 . S
C497 C496 1.384 . S
C497 H519 0.929 . S
C498 O508 1.241 . S
C498 O509 1.273 . S
C499 O510 1.251 . S
C499 O511 1.268 . S
O500 Nd480 2.500 . S
O500 C482 1.258 . S
O501 Nd480 2.492 . S
O501 C482 1.239 . S
O502 Nd480 2.487 . S
O502 C489 1.241 . S
O503 Nd480 2.682 . S
O503 Nd481 2.414 . S
O503 C489 1.273 . S
O504 Nd480 2.410 . S
O504 C490 1.251 . S
O505 Nd481 2.424 . S
O505 C490 1.268 . S
O506 Nd481 2.500 . S
O506 C491 1.258 . S
O507 Nd481 2.492 . S
O507 C491 1.239 . S
O508 Nd481 2.487 . S
O508 C498 1.241 . S
O509 Nd480 2.414 . S
O509 Nd481 2.682 . S
O509 C498 1.273 . S
O510 Nd481 2.410 . S
O510 C499 1.251 . S
O511 Nd480 2.424 . S
O511 C499 1.268 . S
H512 C484 0.930 . S
H513 C485 0.929 . S
H514 C487 0.930 . S
H515 C488 0.929 . S
H516 C493 0.930 . S
H517 C494 0.929 . S
H518 C496 0.930 . S
H519 C497 0.929 . S
Nd520 C522 2.836 . S
Nd520 O540 2.500 . S
Nd520 O541 2.492 . S
Nd520 O542 2.487 . S
Nd520 O543 2.682 . S
Nd520 O544 2.410 . S
Nd520 O549 2.414 . S
Nd520 O551 2.424 . S
Nd521 C531 2.836 . S
Nd521 O543 2.414 . S
Nd521 O545 2.424 . S
Nd521 O546 2.500 . S
Nd521 O547 2.492 . S
Nd521 O548 2.487 . S
Nd521 O549 2.682 . S
Nd521 O550 2.410 . S
C522 Nd520 2.836 . S
C522 C523 1.498 . S
C522 O540 1.258 . S
C522 O541 1.239 . S
C523 C522 1.498 . S
C523 C524 1.366 . S
C523 C528 1.407 . S
C524 C523 1.366 . S
C524 C525 1.392 . S
C524 H552 0.930 . S
C525 C524 1.392 . S
C525 C526 1.398 . S
C525 H553 0.929 . S
C526 C525 1.398 . S
C526 C527 1.352 . S
C527 C526 1.352 . S
C527 C528 1.384 . S
C527 H554 0.930 . S
C528 C523 1.407 . S
C528 C527 1.384 . S
C528 H555 0.929 . S
C529 O542 1.241 . S
C529 O543 1.273 . S
C530 O544 1.251 . S
C530 O545 1.268 . S
C531 Nd521 2.836 . S
C531 C532 1.498 . S
C531 O546 1.258 . S
C531 O547 1.239 . S
C532 C531 1.498 . S
C532 C533 1.366 . S
C532 C537 1.407 . S
C533 C532 1.366 . S
C533 C534 1.392 . S
C533 H556 0.930 . S
C534 C533 1.392 . S
C534 C535 1.398 . S
C534 H557 0.929 . S
C535 C534 1.398 . S
C535 C536 1.352 . S
C536 C535 1.352 . S
C536 C537 1.384 . S
C536 H558 0.930 . S
C537 C532 1.407 . S
C537 C536 1.384 . S
C537 H559 0.929 . S
C538 O548 1.241 . S
C538 O549 1.273 . S
C539 O550 1.251 . S
C539 O551 1.268 . S
O540 Nd520 2.500 . S
O540 C522 1.258 . S
O541 Nd520 2.492 . S
O541 C522 1.239 . S
O542 Nd520 2.487 . S
O542 C529 1.241 . S
O543 Nd520 2.682 . S
O543 Nd521 2.414 . S
O543 C529 1.273 . S
O544 Nd520 2.410 . S
O544 C530 1.251 . S
O545 Nd521 2.424 . S
O545 C530 1.268 . S
O546 Nd521 2.500 . S
O546 C531 1.258 . S
O547 Nd521 2.492 . S
O547 C531 1.239 . S
O548 Nd521 2.487 . S
O548 C538 1.241 . S
O549 Nd520 2.414 . S
O549 Nd521 2.682 . S
O549 C538 1.273 . S
O550 Nd521 2.410 . S
O550 C539 1.251 . S
O551 Nd520 2.424 . S
O551 C539 1.268 . S
H552 C524 0.930 . S
H553 C525 0.929 . S
H554 C527 0.930 . S
H555 C528 0.929 . S
H556 C533 0.930 . S
H557 C534 0.929 . S
H558 C536 0.930 . S
H559 C537 0.929 . S
Nd560 C562 2.836 . S
Nd560 O580 2.500 . S
Nd560 O581 2.492 . S
Nd560 O582 2.487 . S
Nd560 O583 2.682 . S
Nd560 O584 2.410 . S
Nd560 O589 2.414 . S
Nd560 O591 2.424 . S
Nd561 C571 2.836 . S
Nd561 O583 2.414 . S
Nd561 O585 2.424 . S
Nd561 O586 2.500 . S
Nd561 O587 2.492 . S
Nd561 O588 2.487 . S
Nd561 O589 2.682 . S
Nd561 O590 2.410 . S
C562 Nd560 2.836 . S
C562 C563 1.498 . S
C562 O580 1.258 . S
C562 O581 1.239 . S
C563 C562 1.498 . S
C563 C564 1.366 . S
C563 C568 1.407 . S
C564 C563 1.366 . S
C564 C565 1.392 . S
C564 H592 0.930 . S
C565 C564 1.392 . S
C565 C566 1.398 . S
C565 H593 0.929 . S
C566 C565 1.398 . S
C566 C567 1.352 . S
C567 C566 1.352 . S
C567 C568 1.384 . S
C567 H594 0.930 . S
C568 C563 1.407 . S
C568 C567 1.384 . S
C568 H595 0.929 . S
C569 O582 1.241 . S
C569 O583 1.273 . S
C570 O584 1.251 . S
C570 O585 1.268 . S
C571 Nd561 2.836 . S
C571 C572 1.498 . S
C571 O586 1.258 . S
C571 O587 1.239 . S
C572 C571 1.498 . S
C572 C573 1.366 . S
C572 C577 1.407 . S
C573 C572 1.366 . S
C573 C574 1.392 . S
C573 H596 0.930 . S
C574 C573 1.392 . S
C574 C575 1.398 . S
C574 H597 0.929 . S
C575 C574 1.398 . S
C575 C576 1.352 . S
C576 C575 1.352 . S
C576 C577 1.384 . S
C576 H598 0.930 . S
C577 C572 1.407 . S
C577 C576 1.384 . S
C577 H599 0.929 . S
C578 O588 1.241 . S
C578 O589 1.273 . S
C579 O590 1.251 . S
C579 O591 1.268 . S
O580 Nd560 2.500 . S
O580 C562 1.258 . S
O581 Nd560 2.492 . S
O581 C562 1.239 . S
O582 Nd560 2.487 . S
O582 C569 1.241 . S
O583 Nd560 2.682 . S
O583 Nd561 2.414 . S
O583 C569 1.273 . S
O584 Nd560 2.410 . S
O584 C570 1.251 . S
O585 Nd561 2.424 . S
O585 C570 1.268 . S
O586 Nd561 2.500 . S
O586 C571 1.258 . S
O587 Nd561 2.492 . S
O587 C571 1.239 . S
O588 Nd561 2.487 . S
O588 C578 1.241 . S
O589 Nd560 2.414 . S
O589 Nd561 2.682 . S
O589 C578 1.273 . S
O590 Nd561 2.410 . S
O590 C579 1.251 . S
O591 Nd560 2.424 . S
O591 C579 1.268 . S
H592 C564 0.930 . S
H593 C565 0.929 . S
H594 C567 0.930 . S
H595 C568 0.929 . S
H596 C573 0.930 . S
H597 C574 0.929 . S
H598 C576 0.930 . S
H599 C577 0.929 . S
Nd600 C602 2.836 . S
Nd600 O620 2.500 . S
Nd600 O621 2.492 . S
Nd600 O622 2.487 . S
Nd600 O623 2.682 . S
Nd600 O624 2.410 . S
Nd600 O629 2.414 . S
Nd600 O631 2.424 . S
Nd601 C611 2.836 . S
Nd601 O623 2.414 . S
Nd601 O625 2.424 . S
Nd601 O626 2.500 . S
Nd601 O627 2.492 . S
Nd601 O628 2.487 . S
Nd601 O629 2.682 . S
Nd601 O630 2.410 . S
C602 Nd600 2.836 . S
C602 C603 1.498 . S
C602 O620 1.258 . S
C602 O621 1.239 . S
C603 C602 1.498 . S
C603 C604 1.366 . S
C603 C608 1.407 . S
C604 C603 1.366 . S
C604 C605 1.392 . S
C604 H632 0.930 . S
C605 C604 1.392 . S
C605 C606 1.398 . S
C605 H633 0.929 . S
C606 C605 1.398 . S
C606 C607 1.352 . S
C607 C606 1.352 . S
C607 C608 1.384 . S
C607 H634 0.930 . S
C608 C603 1.407 . S
C608 C607 1.384 . S
C608 H635 0.929 . S
C609 O622 1.241 . S
C609 O623 1.273 . S
C610 O624 1.251 . S
C610 O625 1.268 . S
C611 Nd601 2.836 . S
C611 C612 1.498 . S
C611 O626 1.258 . S
C611 O627 1.239 . S
C612 C611 1.498 . S
C612 C613 1.366 . S
C612 C617 1.407 . S
C613 C612 1.366 . S
C613 C614 1.392 . S
C613 H636 0.930 . S
C614 C613 1.392 . S
C614 C615 1.398 . S
C614 H637 0.929 . S
C615 C614 1.398 . S
C615 C616 1.352 . S
C616 C615 1.352 . S
C616 C617 1.384 . S
C616 H638 0.930 . S
C617 C612 1.407 . S
C617 C616 1.384 . S
C617 H639 0.929 . S
C618 O628 1.241 . S
C618 O629 1.273 . S
C619 O630 1.251 . S
C619 O631 1.268 . S
O620 Nd600 2.500 . S
O620 C602 1.258 . S
O621 Nd600 2.492 . S
O621 C602 1.239 . S
O622 Nd600 2.487 . S
O622 C609 1.241 . S
O623 Nd600 2.682 . S
O623 Nd601 2.414 . S
O623 C609 1.273 . S
O624 Nd600 2.410 . S
O624 C610 1.251 . S
O625 Nd601 2.424 . S
O625 C610 1.268 . S
O626 Nd601 2.500 . S
O626 C611 1.258 . S
O627 Nd601 2.492 . S
O627 C611 1.239 . S
O628 Nd601 2.487 . S
O628 C618 1.241 . S
O629 Nd600 2.414 . S
O629 Nd601 2.682 . S
O629 C618 1.273 . S
O630 Nd601 2.410 . S
O630 C619 1.251 . S
O631 Nd600 2.424 . S
O631 C619 1.268 . S
H632 C604 0.930 . S
H633 C605 0.929 . S
H634 C607 0.930 . S
H635 C608 0.929 . S
H636 C613 0.930 . S
H637 C614 0.929 . S
H638 C616 0.930 . S
H639 C617 0.929 . S
H640 C658 0.951 . S
H641 C660 0.951 . S
H642 C662 0.950 . S
H643 C663 0.950 . S
H644 C665 0.950 . S
H645 C668 0.950 . S
H646 C669 0.950 . S
H647 C671 0.950 . S
H648 C672 0.950 . S
H649 C673 0.951 . S
H650 C675 0.951 . S
H651 C677 0.950 . S
H652 C678 0.950 . S
H653 C680 0.950 . S
H654 C683 0.950 . S
H655 C684 0.950 . S
H656 C686 0.950 . S
H657 C687 0.950 . S
C658 H640 0.951 . S
C658 C659 1.366 . S
C658 C660 1.388 . S
C659 C658 1.366 . S
C659 C663 1.385 . S
C660 H641 0.951 . S
C660 C658 1.388 . S
C660 C661 1.366 . S
C661 C660 1.366 . S
C661 C662 1.414 . S
C661 C664 1.499 . S
C662 H642 0.950 . S
C662 C661 1.414 . S
C662 C663 1.374 . S
C663 H643 0.950 . S
C663 C659 1.385 . S
C663 C662 1.374 . S
C664 C661 1.499 . S
C664 C665 1.373 . S
C664 C666 1.389 . S
C665 H644 0.950 . S
C665 C664 1.373 . S
C665 C681 1.377 . S
C666 C664 1.389 . S
C666 C667 1.524 . S
C666 C680 1.377 . S
C667 C666 1.524 . S
C667 C668 1.397 . S
C667 C672 1.363 . S
C668 H645 0.950 . S
C668 C667 1.397 . S
C668 C669 1.334 . S
C669 H646 0.950 . S
C669 C668 1.334 . S
C669 C670 1.287 . S
C670 C669 1.287 . S
C670 C671 1.524 . S
C670 H689 0.913 . S
C671 H647 0.950 . S
C671 C670 1.524 . S
C671 C672 1.415 . S
C672 H648 0.950 . S
C672 C667 1.363 . S
C672 C671 1.415 . S
C673 H649 0.951 . S
C673 C674 1.366 . S
C673 C675 1.388 . S
C674 C673 1.366 . S
C674 C678 1.385 . S
C675 H650 0.951 . S
C675 C673 1.388 . S
C675 C676 1.366 . S
C676 C675 1.366 . S
C676 C677 1.414 . S
C676 C679 1.499 . S
C677 H651 0.950 . S
C677 C676 1.414 . S
C677 C678 1.374 . S
C678 H652 0.950 . S
C678 C674 1.385 . S
C678 C677 1.374 . S
C679 C676 1.499 . S
C679 C680 1.373 . S
C679 C681 1.389 . S
C680 H653 0.950 . S
C680 C666 1.377 . S
C680 C679 1.373 . S
C681 C665 1.377 . S
C681 C679 1.389 . S
C681 C682 1.524 . S
C682 C681 1.524 . S
C682 C683 1.397 . S
C682 C687 1.363 . S
C683 H654 0.950 . S
C683 C682 1.397 . S
C683 C684 1.334 . S
C684 H655 0.950 . S
C684 C683 1.334 . S
C684 C685 1.287 . S
C685 C684 1.287 . S
C685 C686 1.524 . S
C685 H688 0.999 . S
C686 H656 0.950 . S
C686 C685 1.524 . S
C686 C687 1.415 . S
C687 H657 0.950 . S
C687 C682 1.363 . S
C687 C686 1.415 . S
H688 C685 0.999 . S
H689 C670 0.913 . S
H690 C708 0.951 . S
H691 C710 0.951 . S
H692 C712 0.950 . S
H693 C713 0.950 . S
H694 C715 0.950 . S
H695 C718 0.950 . S
H696 C719 0.950 . S
H697 C721 0.950 . S
H698 C722 0.950 . S
H699 C723 0.951 . S
H700 C725 0.951 . S
H701 C727 0.950 . S
H702 C728 0.950 . S
H703 C730 0.950 . S
H704 C733 0.950 . S
H705 C734 0.950 . S
H706 C736 0.950 . S
H707 C737 0.950 . S
C708 H690 0.951 . S
C708 C709 1.366 . S
C708 C710 1.388 . S
C709 C708 1.366 . S
C709 C713 1.385 . S
C710 H691 0.951 . S
C710 C708 1.388 . S
C710 C711 1.366 . S
C711 C710 1.366 . S
C711 C712 1.414 . S
C711 C714 1.499 . S
C712 H692 0.950 . S
C712 C711 1.414 . S
C712 C713 1.374 . S
C713 H693 0.950 . S
C713 C709 1.385 . S
C713 C712 1.374 . S
C714 C711 1.499 . S
C714 C715 1.373 . S
C714 C716 1.389 . S
C715 H694 0.950 . S
C715 C714 1.373 . S
C715 C731 1.377 . S
C716 C714 1.389 . S
C716 C717 1.524 . S
C716 C730 1.377 . S
C717 C716 1.524 . S
C717 C718 1.397 . S
C717 C722 1.363 . S
C718 H695 0.950 . S
C718 C717 1.397 . S
C718 C719 1.334 . S
C719 H696 0.950 . S
C719 C718 1.334 . S
C719 C720 1.287 . S
C720 C719 1.287 . S
C720 C721 1.524 . S
C720 H739 0.913 . S
C721 H697 0.950 . S
C721 C720 1.524 . S
C721 C722 1.415 . S
C722 H698 0.950 . S
C722 C717 1.363 . S
C722 C721 1.415 . S
C723 H699 0.951 . S
C723 C724 1.366 . S
C723 C725 1.388 . S
C724 C723 1.366 . S
C724 C728 1.385 . S
C725 H700 0.951 . S
C725 C723 1.388 . S
C725 C726 1.366 . S
C726 C725 1.366 . S
C726 C727 1.414 . S
C726 C729 1.499 . S
C727 H701 0.950 . S
C727 C726 1.414 . S
C727 C728 1.374 . S
C728 H702 0.950 . S
C728 C724 1.385 . S
C728 C727 1.374 . S
C729 C726 1.499 . S
C729 C730 1.373 . S
C729 C731 1.389 . S
C730 H703 0.950 . S
C730 C716 1.377 . S
C730 C729 1.373 . S
C731 C715 1.377 . S
C731 C729 1.389 . S
C731 C732 1.524 . S
C732 C731 1.524 . S
C732 C733 1.397 . S
C732 C737 1.363 . S
C733 H704 0.950 . S
C733 C732 1.397 . S
C733 C734 1.334 . S
C734 H705 0.950 . S
C734 C733 1.334 . S
C734 C735 1.287 . S
C735 C734 1.287 . S
C735 C736 1.524 . S
C735 H738 0.999 1_565 S
C736 H706 0.950 . S
C736 C735 1.524 . S
C736 C737 1.415 . S
C737 H707 0.950 . S
C737 C732 1.363 . S
C737 C736 1.415 . S
H738 C735 0.999 1_545 S
H739 C720 0.913 . S
H740 C758 0.951 . S
H741 C760 0.951 . S
H742 C762 0.950 . S
H743 C763 0.950 . S
H744 C765 0.950 . S
H745 C768 0.950 . S
H746 C769 0.950 . S
H747 C771 0.950 . S
H748 C772 0.950 . S
H749 C773 0.951 . S
H750 C775 0.951 . S
H751 C777 0.950 . S
H752 C778 0.950 . S
H753 C780 0.950 . S
H754 C783 0.950 . S
H755 C784 0.950 . S
H756 C786 0.950 . S
H757 C787 0.950 . S
C758 H740 0.951 . S
C758 C759 1.366 . S
C758 C760 1.388 . S
C759 C758 1.366 . S
C759 C763 1.385 . S
C760 H741 0.951 . S
C760 C758 1.388 . S
C760 C761 1.366 . S
C761 C760 1.366 . S
C761 C762 1.414 . S
C761 C764 1.499 . S
C762 H742 0.950 . S
C762 C761 1.414 . S
C762 C763 1.374 . S
C763 H743 0.950 . S
C763 C759 1.385 . S
C763 C762 1.374 . S
C764 C761 1.499 . S
C764 C765 1.373 . S
C764 C766 1.389 . S
C765 H744 0.950 . S
C765 C764 1.373 . S
C765 C781 1.377 . S
C766 C764 1.389 . S
C766 C767 1.524 . S
C766 C780 1.377 . S
C767 C766 1.524 . S
C767 C768 1.397 . S
C767 C772 1.363 . S
C768 H745 0.950 . S
C768 C767 1.397 . S
C768 C769 1.334 . S
C769 H746 0.950 . S
C769 C768 1.334 . S
C769 C770 1.287 . S
C770 C769 1.287 . S
C770 C771 1.524 . S
C770 H789 0.913 . S
C771 H747 0.950 . S
C771 C770 1.524 . S
C771 C772 1.415 . S
C772 H748 0.950 . S
C772 C767 1.363 . S
C772 C771 1.415 . S
C773 H749 0.951 . S
C773 C774 1.366 . S
C773 C775 1.388 . S
C774 C773 1.366 . S
C774 C778 1.385 . S
C775 H750 0.951 . S
C775 C773 1.388 . S
C775 C776 1.366 . S
C776 C775 1.366 . S
C776 C777 1.414 . S
C776 C779 1.499 . S
C777 H751 0.950 . S
C777 C776 1.414 . S
C777 C778 1.374 . S
C778 H752 0.950 . S
C778 C774 1.385 . S
C778 C777 1.374 . S
C779 C776 1.499 . S
C779 C780 1.373 . S
C779 C781 1.389 . S
C780 H753 0.950 . S
C780 C766 1.377 . S
C780 C779 1.373 . S
C781 C765 1.377 . S
C781 C779 1.389 . S
C781 C782 1.524 . S
C782 C781 1.524 . S
C782 C783 1.397 . S
C782 C787 1.363 . S
C783 H754 0.950 . S
C783 C782 1.397 . S
C783 C784 1.334 . S
C784 H755 0.950 . S
C784 C783 1.334 . S
C784 C785 1.287 . S
C785 C784 1.287 . S
C785 C786 1.524 . S
C785 H788 0.999 . S
C786 H756 0.950 . S
C786 C785 1.524 . S
C786 C787 1.415 . S
C787 H757 0.950 . S
C787 C782 1.363 . S
C787 C786 1.415 . S
H788 C785 0.999 . S
H789 C770 0.913 . S
H790 C808 0.951 . S
H791 C810 0.951 . S
H792 C812 0.950 . S
H793 C813 0.950 . S
H794 C815 0.950 . S
H795 C818 0.950 . S
H796 C819 0.950 . S
H797 C821 0.950 . S
H798 C822 0.950 . S
H799 C823 0.951 . S
H800 C825 0.951 . S
H801 C827 0.950 . S
H802 C828 0.950 . S
H803 C830 0.950 . S
H804 C833 0.950 . S
H805 C834 0.950 . S
H806 C836 0.950 . S
H807 C837 0.950 . S
C808 H790 0.951 . S
C808 C809 1.366 . S
C808 C810 1.388 . S
C809 C808 1.366 . S
C809 C813 1.385 . S
C810 H791 0.951 . S
C810 C808 1.388 . S
C810 C811 1.366 . S
C811 C810 1.366 . S
C811 C812 1.414 . S
C811 C814 1.499 . S
C812 H792 0.950 . S
C812 C811 1.414 . S
C812 C813 1.374 . S
C813 H793 0.950 . S
C813 C809 1.385 . S
C813 C812 1.374 . S
C814 C811 1.499 . S
C814 C815 1.373 . S
C814 C816 1.389 . S
C815 H794 0.950 . S
C815 C814 1.373 . S
C815 C831 1.377 . S
C816 C814 1.389 . S
C816 C817 1.524 . S
C816 C830 1.377 . S
C817 C816 1.524 . S
C817 C818 1.397 . S
C817 C822 1.363 . S
C818 H795 0.950 . S
C818 C817 1.397 . S
C818 C819 1.334 . S
C819 H796 0.950 . S
C819 C818 1.334 . S
C819 C820 1.287 . S
C820 C819 1.287 . S
C820 C821 1.524 . S
C820 H839 0.913 . S
C821 H797 0.950 . S
C821 C820 1.524 . S
C821 C822 1.415 . S
C822 H798 0.950 . S
C822 C817 1.363 . S
C822 C821 1.415 . S
C823 H799 0.951 . S
C823 C824 1.366 . S
C823 C825 1.388 . S
C824 C823 1.366 . S
C824 C828 1.385 . S
C825 H800 0.951 . S
C825 C823 1.388 . S
C825 C826 1.366 . S
C826 C825 1.366 . S
C826 C827 1.414 . S
C826 C829 1.499 . S
C827 H801 0.950 . S
C827 C826 1.414 . S
C827 C828 1.374 . S
C828 H802 0.950 . S
C828 C824 1.385 . S
C828 C827 1.374 . S
C829 C826 1.499 . S
C829 C830 1.373 . S
C829 C831 1.389 . S
C830 H803 0.950 . S
C830 C816 1.377 . S
C830 C829 1.373 . S
C831 C815 1.377 . S
C831 C829 1.389 . S
C831 C832 1.524 . S
C832 C831 1.524 . S
C832 C833 1.397 . S
C832 C837 1.363 . S
C833 H804 0.950 . S
C833 C832 1.397 . S
C833 C834 1.334 . S
C834 H805 0.950 . S
C834 C833 1.334 . S
C834 C835 1.287 . S
C835 C834 1.287 . S
C835 C836 1.524 . S
C835 H838 0.999 . S
C836 H806 0.950 . S
C836 C835 1.524 . S
C836 C837 1.415 . S
C837 H807 0.950 . S
C837 C832 1.363 . S
C837 C836 1.415 . S
H838 C835 0.999 . S
H839 C820 0.913 . S
H840 C858 0.951 . S
H841 C860 0.951 . S
H842 C862 0.950 . S
H843 C863 0.950 . S
H844 C865 0.950 . S
H845 C868 0.950 . S
H846 C869 0.950 . S
H847 C871 0.950 . S
H848 C872 0.950 . S
H849 C873 0.951 . S
H850 C875 0.951 . S
H851 C877 0.950 . S
H852 C878 0.950 . S
H853 C880 0.950 . S
H854 C883 0.950 . S
H855 C884 0.950 . S
H856 C886 0.950 . S
H857 C887 0.950 . S
C858 H840 0.951 . S
C858 C859 1.366 . S
C858 C860 1.388 . S
C859 C858 1.366 . S
C859 C863 1.385 . S
C860 H841 0.951 . S
C860 C858 1.388 . S
C860 C861 1.366 . S
C861 C860 1.366 . S
C861 C862 1.414 . S
C861 C864 1.499 . S
C862 H842 0.950 . S
C862 C861 1.414 . S
C862 C863 1.374 . S
C863 H843 0.950 . S
C863 C859 1.385 . S
C863 C862 1.374 . S
C864 C861 1.499 . S
C864 C865 1.373 . S
C864 C866 1.389 . S
C865 H844 0.950 . S
C865 C864 1.373 . S
C865 C881 1.377 . S
C866 C864 1.389 . S
C866 C867 1.524 . S
C866 C880 1.377 . S
C867 C866 1.524 . S
C867 C868 1.397 . S
C867 C872 1.363 . S
C868 H845 0.950 . S
C868 C867 1.397 . S
C868 C869 1.334 . S
C869 H846 0.950 . S
C869 C868 1.334 . S
C869 C870 1.287 . S
C870 C869 1.287 . S
C870 C871 1.524 . S
C870 H889 0.913 . S
C871 H847 0.950 . S
C871 C870 1.524 . S
C871 C872 1.415 . S
C872 H848 0.950 . S
C872 C867 1.363 . S
C872 C871 1.415 . S
C873 H849 0.951 . S
C873 C874 1.366 . S
C873 C875 1.388 . S
C874 C873 1.366 . S
C874 C878 1.385 . S
C875 H850 0.951 . S
C875 C873 1.388 . S
C875 C876 1.366 . S
C876 C875 1.366 . S
C876 C877 1.414 . S
C876 C879 1.499 . S
C877 H851 0.950 . S
C877 C876 1.414 . S
C877 C878 1.374 . S
C878 H852 0.950 . S
C878 C874 1.385 . S
C878 C877 1.374 . S
C879 C876 1.499 . S
C879 C880 1.373 . S
C879 C881 1.389 . S
C880 H853 0.950 . S
C880 C866 1.377 . S
C880 C879 1.373 . S
C881 C865 1.377 . S
C881 C879 1.389 . S
C881 C882 1.524 . S
C882 C881 1.524 . S
C882 C883 1.397 . S
C882 C887 1.363 . S
C883 H854 0.950 . S
C883 C882 1.397 . S
C883 C884 1.334 . S
C884 H855 0.950 . S
C884 C883 1.334 . S
C884 C885 1.287 . S
C885 C884 1.287 . S
C885 C886 1.524 . S
C885 H888 0.999 . S
C886 H856 0.950 . S
C886 C885 1.524 . S
C886 C887 1.415 . S
C887 H857 0.950 . S
C887 C882 1.363 . S
C887 C886 1.415 . S
H888 C885 0.999 . S
H889 C870 0.913 . S
H890 C908 0.951 . S
H891 C910 0.951 . S
H892 C912 0.950 . S
H893 C913 0.950 . S
H894 C915 0.950 . S
H895 C918 0.950 . S
H896 C919 0.950 . S
H897 C921 0.950 . S
H898 C922 0.950 . S
H899 C923 0.951 . S
H900 C925 0.951 . S
H901 C927 0.950 . S
H902 C928 0.950 . S
H903 C930 0.950 . S
H904 C933 0.950 . S
H905 C934 0.950 . S
H906 C936 0.950 . S
H907 C937 0.950 . S
C908 H890 0.951 . S
C908 C909 1.366 . S
C908 C910 1.388 . S
C909 C908 1.366 . S
C909 C913 1.385 . S
C910 H891 0.951 . S
C910 C908 1.388 . S
C910 C911 1.366 . S
C911 C910 1.366 . S
C911 C912 1.414 . S
C911 C914 1.499 . S
C912 H892 0.950 . S
C912 C911 1.414 . S
C912 C913 1.374 . S
C913 H893 0.950 . S
C913 C909 1.385 . S
C913 C912 1.374 . S
C914 C911 1.499 . S
C914 C915 1.373 . S
C914 C916 1.389 . S
C915 H894 0.950 . S
C915 C914 1.373 . S
C915 C931 1.377 . S
C916 C914 1.389 . S
C916 C917 1.524 . S
C916 C930 1.377 . S
C917 C916 1.524 . S
C917 C918 1.397 . S
C917 C922 1.363 . S
C918 H895 0.950 . S
C918 C917 1.397 . S
C918 C919 1.334 . S
C919 H896 0.950 . S
C919 C918 1.334 . S
C919 C920 1.287 . S
C920 C919 1.287 . S
C920 C921 1.524 . S
C920 H939 0.913 . S
C921 H897 0.950 . S
C921 C920 1.524 . S
C921 C922 1.415 . S
C922 H898 0.950 . S
C922 C917 1.363 . S
C922 C921 1.415 . S
C923 H899 0.951 . S
C923 C924 1.366 . S
C923 C925 1.388 . S
C924 C923 1.366 . S
C924 C928 1.385 . S
C925 H900 0.951 . S
C925 C923 1.388 . S
C925 C926 1.366 . S
C926 C925 1.366 . S
C926 C927 1.414 . S
C926 C929 1.499 . S
C927 H901 0.950 . S
C927 C926 1.414 . S
C927 C928 1.374 . S
C928 H902 0.950 . S
C928 C924 1.385 . S
C928 C927 1.374 . S
C929 C926 1.499 . S
C929 C930 1.373 . S
C929 C931 1.389 . S
C930 H903 0.950 . S
C930 C916 1.377 . S
C930 C929 1.373 . S
C931 C915 1.377 . S
C931 C929 1.389 . S
C931 C932 1.524 . S
C932 C931 1.524 . S
C932 C933 1.397 . S
C932 C937 1.363 . S
C933 H904 0.950 . S
C933 C932 1.397 . S
C933 C934 1.334 . S
C934 H905 0.950 . S
C934 C933 1.334 . S
C934 C935 1.287 . S
C935 C934 1.287 . S
C935 C936 1.524 . S
C935 H938 0.999 . S
C936 H906 0.950 . S
C936 C935 1.524 . S
C936 C937 1.415 . S
C937 H907 0.950 . S
C937 C932 1.363 . S
C937 C936 1.415 . S
H938 C935 0.999 . S
H939 C920 0.913 . S
H940 C958 0.951 . S
H941 C960 0.951 . S
H942 C962 0.950 . S
H943 C963 0.950 . S
H944 C965 0.950 . S
H945 C968 0.950 . S
H946 C969 0.950 . S
H947 C971 0.950 . S
H948 C972 0.950 . S
H949 C973 0.951 . S
H950 C975 0.951 . S
H951 C977 0.950 . S
H952 C978 0.950 . S
H953 C980 0.950 . S
H954 C983 0.950 . S
H955 C984 0.950 . S
H956 C986 0.950 . S
H957 C987 0.950 . S
C958 H940 0.951 . S
C958 C959 1.366 . S
C958 C960 1.388 . S
C959 C958 1.366 . S
C959 C963 1.385 . S
C960 H941 0.951 . S
C960 C958 1.388 . S
C960 C961 1.366 . S
C961 C960 1.366 . S
C961 C962 1.414 . S
C961 C964 1.499 . S
C962 H942 0.950 . S
C962 C961 1.414 . S
C962 C963 1.374 . S
C963 H943 0.950 . S
C963 C959 1.385 . S
C963 C962 1.374 . S
C964 C961 1.499 . S
C964 C965 1.373 . S
C964 C966 1.389 . S
C965 H944 0.950 . S
C965 C964 1.373 . S
C965 C981 1.377 . S
C966 C964 1.389 . S
C966 C967 1.524 . S
C966 C980 1.377 . S
C967 C966 1.524 . S
C967 C968 1.397 . S
C967 C972 1.363 . S
C968 H945 0.950 . S
C968 C967 1.397 . S
C968 C969 1.334 . S
C969 H946 0.950 . S
C969 C968 1.334 . S
C969 C970 1.287 . S
C970 C969 1.287 . S
C970 C971 1.524 . S
C970 H989 0.913 . S
C971 H947 0.950 . S
C971 C970 1.524 . S
C971 C972 1.415 . S
C972 H948 0.950 . S
C972 C967 1.363 . S
C972 C971 1.415 . S
C973 H949 0.951 . S
C973 C974 1.366 . S
C973 C975 1.388 . S
C974 C973 1.366 . S
C974 C978 1.385 . S
C975 H950 0.951 . S
C975 C973 1.388 . S
C975 C976 1.366 . S
C976 C975 1.366 . S
C976 C977 1.414 . S
C976 C979 1.499 . S
C977 H951 0.950 . S
C977 C976 1.414 . S
C977 C978 1.374 . S
C978 H952 0.950 . S
C978 C974 1.385 . S
C978 C977 1.374 . S
C979 C976 1.499 . S
C979 C980 1.373 . S
C979 C981 1.389 . S
C980 H953 0.950 . S
C980 C966 1.377 . S
C980 C979 1.373 . S
C981 C965 1.377 . S
C981 C979 1.389 . S
C981 C982 1.524 . S
C982 C981 1.524 . S
C982 C983 1.397 . S
C982 C987 1.363 . S
C983 H954 0.950 . S
C983 C982 1.397 . S
C983 C984 1.334 . S
C984 H955 0.950 . S
C984 C983 1.334 . S
C984 C985 1.287 . S
C985 C984 1.287 . S
C985 C986 1.524 . S
C985 H988 0.999 . S
C986 H956 0.950 . S
C986 C985 1.524 . S
C986 C987 1.415 . S
C987 H957 0.950 . S
C987 C982 1.363 . S
C987 C986 1.415 . S
H988 C985 0.999 . S
H989 C970 0.913 . S
H990 C1008 0.951 . S
H991 C1010 0.951 . S
H992 C1012 0.950 . S
H993 C1013 0.950 . S
H994 C1015 0.950 . S
H995 C1018 0.950 . S
H996 C1019 0.950 . S
H997 C1021 0.950 . S
H998 C1022 0.950 . S
H999 C1023 0.951 . S
H1000 C1025 0.951 . S
H1001 C1027 0.950 . S
H1002 C1028 0.950 . S
H1003 C1030 0.950 . S
H1004 C1033 0.950 . S
H1005 C1034 0.950 . S
H1006 C1036 0.950 1_545 S
H1007 C1037 0.950 . S
C1008 H990 0.951 . S
C1008 C1009 1.366 . S
C1008 C1010 1.388 . S
C1009 C1008 1.366 . S
C1009 C1013 1.385 . S
C1010 H991 0.951 . S
C1010 C1008 1.388 . S
C1010 C1011 1.366 . S
C1011 C1010 1.366 . S
C1011 C1012 1.414 . S
C1011 C1014 1.499 . S
C1012 H992 0.950 . S
C1012 C1011 1.414 . S
C1012 C1013 1.374 . S
C1013 H993 0.950 . S
C1013 C1009 1.385 . S
C1013 C1012 1.374 . S
C1014 C1011 1.499 . S
C1014 C1015 1.373 . S
C1014 C1016 1.389 . S
C1015 H994 0.950 . S
C1015 C1014 1.373 . S
C1015 C1031 1.377 . S
C1016 C1014 1.389 . S
C1016 C1017 1.524 . S
C1016 C1030 1.377 . S
C1017 C1016 1.524 . S
C1017 C1018 1.397 . S
C1017 C1022 1.363 . S
C1018 H995 0.950 . S
C1018 C1017 1.397 . S
C1018 C1019 1.334 . S
C1019 H996 0.950 . S
C1019 C1018 1.334 . S
C1019 C1020 1.287 . S
C1020 C1019 1.287 . S
C1020 C1021 1.524 . S
C1020 H1039 0.913 . S
C1021 H997 0.950 . S
C1021 C1020 1.524 . S
C1021 C1022 1.415 . S
C1022 H998 0.950 . S
C1022 C1017 1.363 . S
C1022 C1021 1.415 . S
C1023 H999 0.951 . S
C1023 C1024 1.366 . S
C1023 C1025 1.388 . S
C1024 C1023 1.366 . S
C1024 C1028 1.385 . S
C1025 H1000 0.951 . S
C1025 C1023 1.388 . S
C1025 C1026 1.366 . S
C1026 C1025 1.366 . S
C1026 C1027 1.414 . S
C1026 C1029 1.499 . S
C1027 H1001 0.950 . S
C1027 C1026 1.414 . S
C1027 C1028 1.374 . S
C1028 H1002 0.950 . S
C1028 C1024 1.385 . S
C1028 C1027 1.374 . S
C1029 C1026 1.499 . S
C1029 C1030 1.373 . S
C1029 C1031 1.389 . S
C1030 H1003 0.950 . S
C1030 C1016 1.377 . S
C1030 C1029 1.373 . S
C1031 C1015 1.377 . S
C1031 C1029 1.389 . S
C1031 C1032 1.524 . S
C1032 C1031 1.524 . S
C1032 C1033 1.397 . S
C1032 C1037 1.363 . S
C1033 H1004 0.950 . S
C1033 C1032 1.397 . S
C1033 C1034 1.334 . S
C1034 H1005 0.950 . S
C1034 C1033 1.334 . S
C1034 C1035 1.287 . S
C1035 C1034 1.287 . S
C1035 C1036 1.524 . S
C1035 H1038 0.999 . S
C1036 H1006 0.950 1_565 S
C1036 C1035 1.524 . S
C1036 C1037 1.415 . S
C1037 H1007 0.950 . S
C1037 C1032 1.363 . S
C1037 C1036 1.415 . S
H1038 C1035 0.999 . S
H1039 C1020 0.913 . S
H1040 C1058 0.951 . S
H1041 C1060 0.951 1_545 S
H1042 C1062 0.950 . S
H1043 C1063 0.950 . S
H1044 C1065 0.950 . S
H1045 C1068 0.950 . S
H1046 C1069 0.950 . S
H1047 C1071 0.950 . S
H1048 C1072 0.950 . S
H1049 C1073 0.951 . S
H1050 C1075 0.951 1_565 S
H1051 C1077 0.950 . S
H1052 C1078 0.950 . S
H1053 C1080 0.950 . S
H1054 C1083 0.950 . S
H1055 C1084 0.950 . S
H1056 C1086 0.950 . S
H1057 C1087 0.950 . S
C1058 H1040 0.951 . S
C1058 C1059 1.366 . S
C1058 C1060 1.388 . S
C1059 C1058 1.366 . S
C1059 C1063 1.385 . S
C1060 H1041 0.951 1_565 S
C1060 C1058 1.388 . S
C1060 C1061 1.366 . S
C1061 C1060 1.366 . S
C1061 C1062 1.414 . S
C1061 C1064 1.499 . S
C1062 H1042 0.950 . S
C1062 C1061 1.414 . S
C1062 C1063 1.374 . S
C1063 H1043 0.950 . S
C1063 C1059 1.385 . S
C1063 C1062 1.374 . S
C1064 C1061 1.499 . S
C1064 C1065 1.373 . S
C1064 C1066 1.389 1_565 S
C1065 H1044 0.950 . S
C1065 C1064 1.373 . S
C1065 C1081 1.377 . S
C1066 C1064 1.389 1_545 S
C1066 C1067 1.524 . S
C1066 C1080 1.377 . S
C1067 C1066 1.524 . S
C1067 C1068 1.397 . S
C1067 C1072 1.363 . S
C1068 H1045 0.950 . S
C1068 C1067 1.397 . S
C1068 C1069 1.334 . S
C1069 H1046 0.950 . S
C1069 C1068 1.334 . S
C1069 C1070 1.287 . S
C1070 C1069 1.287 . S
C1070 C1071 1.524 . S
C1070 H1089 0.913 . S
C1071 H1047 0.950 . S
C1071 C1070 1.524 . S
C1071 C1072 1.415 . S
C1072 H1048 0.950 . S
C1072 C1067 1.363 . S
C1072 C1071 1.415 . S
C1073 H1049 0.951 . S
C1073 C1074 1.366 . S
C1073 C1075 1.388 . S
C1074 C1073 1.366 . S
C1074 C1078 1.385 . S
C1075 H1050 0.951 1_545 S
C1075 C1073 1.388 . S
C1075 C1076 1.366 . S
C1076 C1075 1.366 . S
C1076 C1077 1.414 . S
C1076 C1079 1.499 . S
C1077 H1051 0.950 . S
C1077 C1076 1.414 . S
C1077 C1078 1.374 . S
C1078 H1052 0.950 . S
C1078 C1074 1.385 . S
C1078 C1077 1.374 . S
C1079 C1076 1.499 . S
C1079 C1080 1.373 . S
C1079 C1081 1.389 1_545 S
C1080 H1053 0.950 . S
C1080 C1066 1.377 . S
C1080 C1079 1.373 . S
C1081 C1065 1.377 . S
C1081 C1079 1.389 1_565 S
C1081 C1082 1.524 . S
C1082 C1081 1.524 . S
C1082 C1083 1.397 . S
C1082 C1087 1.363 . S
C1083 H1054 0.950 . S
C1083 C1082 1.397 . S
C1083 C1084 1.334 . S
C1084 H1055 0.950 . S
C1084 C1083 1.334 . S
C1084 C1085 1.287 . S
C1085 C1084 1.287 . S
C1085 C1086 1.524 . S
C1085 H1088 0.999 . S
C1086 H1056 0.950 . S
C1086 C1085 1.524 . S
C1086 C1087 1.415 . S
C1087 H1057 0.950 . S
C1087 C1082 1.363 . S
C1087 C1086 1.415 . S
H1088 C1085 0.999 . S
H1089 C1070 0.913 . S
H1090 C1108 0.951 . S
H1091 C1110 0.951 . S
H1092 C1112 0.950 . S
H1093 C1113 0.950 . S
H1094 C1115 0.950 . S
H1095 C1118 0.950 . S
H1096 C1119 0.950 . S
H1097 C1121 0.950 . S
H1098 C1122 0.950 . S
H1099 C1123 0.951 . S
H1100 C1125 0.951 . S
H1101 C1127 0.950 . S
H1102 C1128 0.950 . S
H1103 C1130 0.950 . S
H1104 C1133 0.950 . S
H1105 C1134 0.950 . S
H1106 C1136 0.950 . S
H1107 C1137 0.950 . S
C1108 H1090 0.951 . S
C1108 C1109 1.366 . S
C1108 C1110 1.388 . S
C1109 C1108 1.366 . S
C1109 C1113 1.385 . S
C1110 H1091 0.951 . S
C1110 C1108 1.388 . S
C1110 C1111 1.366 . S
C1111 C1110 1.366 . S
C1111 C1112 1.414 . S
C1111 C1114 1.499 . S
C1112 H1092 0.950 . S
C1112 C1111 1.414 . S
C1112 C1113 1.374 . S
C1113 H1093 0.950 . S
C1113 C1109 1.385 . S
C1113 C1112 1.374 . S
C1114 C1111 1.499 . S
C1114 C1115 1.373 . S
C1114 C1116 1.389 1_545 S
C1115 H1094 0.950 . S
C1115 C1114 1.373 . S
C1115 C1131 1.377 . S
C1116 C1114 1.389 1_565 S
C1116 C1117 1.524 . S
C1116 C1130 1.377 . S
C1117 C1116 1.524 . S
C1117 C1118 1.397 . S
C1117 C1122 1.363 . S
C1118 H1095 0.950 . S
C1118 C1117 1.397 . S
C1118 C1119 1.334 . S
C1119 H1096 0.950 . S
C1119 C1118 1.334 . S
C1119 C1120 1.287 . S
C1120 C1119 1.287 . S
C1120 C1121 1.524 . S
C1120 H1139 0.913 . S
C1121 H1097 0.950 . S
C1121 C1120 1.524 . S
C1121 C1122 1.415 . S
C1122 H1098 0.950 . S
C1122 C1117 1.363 . S
C1122 C1121 1.415 . S
C1123 H1099 0.951 . S
C1123 C1124 1.366 . S
C1123 C1125 1.388 . S
C1124 C1123 1.366 . S
C1124 C1128 1.385 . S
C1125 H1100 0.951 . S
C1125 C1123 1.388 . S
C1125 C1126 1.366 . S
C1126 C1125 1.366 . S
C1126 C1127 1.414 . S
C1126 C1129 1.499 . S
C1127 H1101 0.950 . S
C1127 C1126 1.414 . S
C1127 C1128 1.374 . S
C1128 H1102 0.950 . S
C1128 C1124 1.385 . S
C1128 C1127 1.374 . S
C1129 C1126 1.499 . S
C1129 C1130 1.373 . S
C1129 C1131 1.389 1_565 S
C1130 H1103 0.950 . S
C1130 C1116 1.377 . S
C1130 C1129 1.373 . S
C1131 C1115 1.377 . S
C1131 C1129 1.389 1_545 S
C1131 C1132 1.524 . S
C1132 C1131 1.524 . S
C1132 C1133 1.397 . S
C1132 C1137 1.363 . S
C1133 H1104 0.950 . S
C1133 C1132 1.397 . S
C1133 C1134 1.334 . S
C1134 H1105 0.950 . S
C1134 C1133 1.334 . S
C1134 C1135 1.287 . S
C1135 C1134 1.287 . S
C1135 C1136 1.524 . S
C1135 H1138 0.999 . S
C1136 H1106 0.950 . S
C1136 C1135 1.524 . S
C1136 C1137 1.415 . S
C1137 H1107 0.950 . S
C1137 C1132 1.363 . S
C1137 C1136 1.415 . S
H1138 C1135 0.999 . S
H1139 C1120 0.913 . S
H1140 C1158 0.951 1_565 S
H1141 C1160 0.951 . S
H1142 C1162 0.950 . S
H1143 C1163 0.950 . S
H1144 C1165 0.950 . S
H1145 C1168 0.950 . S
H1146 C1169 0.950 . S
H1147 C1171 0.950 . S
H1148 C1172 0.950 . S
H1149 C1173 0.951 1_545 S
H1150 C1175 0.951 . S
H1151 C1177 0.950 . S
H1152 C1178 0.950 . S
H1153 C1180 0.950 . S
H1154 C1183 0.950 . S
H1155 C1184 0.950 . S
H1156 C1186 0.950 . S
H1157 C1187 0.950 . S
C1158 H1140 0.951 1_545 S
C1158 C1159 1.366 . S
C1158 C1160 1.388 1_545 S
C1159 C1158 1.366 . S
C1159 C1163 1.385 . S
C1160 H1141 0.951 . S
C1160 C1158 1.388 1_565 S
C1160 C1161 1.365 1_565 S
C1161 C1160 1.365 1_545 S
C1161 C1162 1.414 . S
C1161 C1164 1.499 . S
C1162 H1142 0.950 . S
C1162 C1161 1.414 . S
C1162 C1163 1.374 . S
C1163 H1143 0.950 . S
C1163 C1159 1.385 . S
C1163 C1162 1.374 . S
C1164 C1161 1.499 . S
C1164 C1165 1.373 . S
C1164 C1166 1.389 1_545 S
C1165 H1144 0.950 . S
C1165 C1164 1.373 . S
C1165 C1181 1.377 . S
C1166 C1164 1.389 1_565 S
C1166 C1167 1.524 . S
C1166 C1180 1.377 . S
C1167 C1166 1.524 . S
C1167 C1168 1.397 . S
C1167 C1172 1.363 . S
C1168 H1145 0.950 . S
C1168 C1167 1.397 . S
C1168 C1169 1.334 . S
C1169 H1146 0.950 . S
C1169 C1168 1.334 . S
C1169 C1170 1.287 . S
C1170 C1169 1.287 . S
C1170 C1171 1.524 . S
C1170 H1189 0.913 . S
C1171 H1147 0.950 . S
C1171 C1170 1.524 . S
C1171 C1172 1.415 . S
C1172 H1148 0.950 . S
C1172 C1167 1.363 . S
C1172 C1171 1.415 . S
C1173 H1149 0.951 1_565 S
C1173 C1174 1.366 . S
C1173 C1175 1.388 1_565 S
C1174 C1173 1.366 . S
C1174 C1178 1.385 . S
C1175 H1150 0.951 . S
C1175 C1173 1.388 1_545 S
C1175 C1176 1.365 1_545 S
C1176 C1175 1.365 1_565 S
C1176 C1177 1.414 . S
C1176 C1179 1.499 . S
C1177 H1151 0.950 . S
C1177 C1176 1.414 . S
C1177 C1178 1.374 . S
C1178 H1152 0.950 . S
C1178 C1174 1.385 . S
C1178 C1177 1.374 . S
C1179 C1176 1.499 . S
C1179 C1180 1.373 . S
C1179 C1181 1.389 1_565 S
C1180 H1153 0.950 . S
C1180 C1166 1.377 . S
C1180 C1179 1.373 . S
C1181 C1165 1.377 . S
C1181 C1179 1.389 1_545 S
C1181 C1182 1.524 . S
C1182 C1181 1.524 . S
C1182 C1183 1.397 . S
C1182 C1187 1.363 . S
C1183 H1154 0.950 . S
C1183 C1182 1.397 . S
C1183 C1184 1.334 . S
C1184 H1155 0.950 . S
C1184 C1183 1.334 . S
C1184 C1185 1.287 . S
C1185 C1184 1.287 . S
C1185 C1186 1.524 . S
C1185 H1188 0.999 . S
C1186 H1156 0.950 . S
C1186 C1185 1.524 . S
C1186 C1187 1.415 . S
C1187 H1157 0.950 . S
C1187 C1182 1.363 . S
C1187 C1186 1.415 . S
H1188 C1185 0.999 . S
H1189 C1170 0.913 . S
H1190 C1208 0.951 . S
H1191 C1210 0.951 . S
H1192 C1212 0.950 . S
H1193 C1213 0.950 . S
H1194 C1215 0.950 . S
H1195 C1218 0.950 . S
H1196 C1219 0.950 . S
H1197 C1221 0.950 . S
H1198 C1222 0.950 . S
H1199 C1223 0.951 . S
H1200 C1225 0.951 . S
H1201 C1227 0.950 . S
H1202 C1228 0.950 . S
H1203 C1230 0.950 . S
H1204 C1233 0.950 . S
H1205 C1234 0.950 . S
H1206 C1236 0.950 . S
H1207 C1237 0.950 . S
C1208 H1190 0.951 . S
C1208 C1209 1.366 . S
C1208 C1210 1.388 . S
C1209 C1208 1.366 . S
C1209 C1213 1.385 . S
C1210 H1191 0.951 . S
C1210 C1208 1.388 . S
C1210 C1211 1.366 . S
C1211 C1210 1.366 . S
C1211 C1212 1.414 . S
C1211 C1214 1.499 . S
C1212 H1192 0.950 . S
C1212 C1211 1.414 . S
C1212 C1213 1.374 . S
C1213 H1193 0.950 . S
C1213 C1209 1.385 . S
C1213 C1212 1.374 . S
C1214 C1211 1.499 . S
C1214 C1215 1.373 1_545 S
C1214 C1216 1.389 . S
C1215 H1194 0.950 . S
C1215 C1214 1.373 1_565 S
C1215 C1231 1.377 . S
C1216 C1214 1.389 . S
C1216 C1217 1.524 . S
C1216 C1230 1.377 . S
C1217 C1216 1.524 . S
C1217 C1218 1.397 . S
C1217 C1222 1.363 . S
C1218 H1195 0.950 . S
C1218 C1217 1.397 . S
C1218 C1219 1.334 . S
C1219 H1196 0.950 . S
C1219 C1218 1.334 . S
C1219 C1220 1.287 . S
C1220 C1219 1.287 . S
C1220 C1221 1.524 . S
C1220 H1239 0.913 . S
C1221 H1197 0.950 . S
C1221 C1220 1.524 . S
C1221 C1222 1.415 . S
C1222 H1198 0.950 . S
C1222 C1217 1.363 . S
C1222 C1221 1.415 . S
C1223 H1199 0.951 . S
C1223 C1224 1.366 . S
C1223 C1225 1.388 . S
C1224 C1223 1.366 . S
C1224 C1228 1.385 . S
C1225 H1200 0.951 . S
C1225 C1223 1.388 . S
C1225 C1226 1.366 . S
C1226 C1225 1.366 . S
C1226 C1227 1.414 . S
C1226 C1229 1.499 . S
C1227 H1201 0.950 . S
C1227 C1226 1.414 . S
C1227 C1228 1.374 . S
C1228 H1202 0.950 . S
C1228 C1224 1.385 . S
C1228 C1227 1.374 . S
C1229 C1226 1.499 . S
C1229 C1230 1.373 1_565 S
C1229 C1231 1.389 . S
C1230 H1203 0.950 . S
C1230 C1216 1.377 . S
C1230 C1229 1.373 1_545 S
C1231 C1215 1.377 . S
C1231 C1229 1.389 . S
C1231 C1232 1.524 . S
C1232 C1231 1.524 . S
C1232 C1233 1.397 . S
C1232 C1237 1.363 . S
C1233 H1204 0.950 . S
C1233 C1232 1.397 . S
C1233 C1234 1.334 . S
C1234 H1205 0.950 . S
C1234 C1233 1.334 . S
C1234 C1235 1.287 . S
C1235 C1234 1.287 . S
C1235 C1236 1.524 . S
C1235 H1238 0.999 . S
C1236 H1206 0.950 . S
C1236 C1235 1.524 . S
C1236 C1237 1.415 . S
C1237 H1207 0.950 . S
C1237 C1232 1.363 . S
C1237 C1236 1.415 . S
H1238 C1235 0.999 . S
H1239 C1220 0.913 . S
H1240 C1258 0.951 . S
H1241 C1260 0.951 . S
H1242 C1262 0.950 . S
H1243 C1263 0.950 . S
H1244 C1265 0.950 . S
H1245 C1268 0.950 . S
H1246 C1269 0.950 . S
H1247 C1271 0.950 . S
H1248 C1272 0.950 . S
H1249 C1273 0.951 . S
H1250 C1275 0.951 . S
H1251 C1277 0.950 . S
H1252 C1278 0.950 . S
H1253 C1280 0.950 . S
H1254 C1283 0.950 . S
H1255 C1284 0.950 . S
H1256 C1286 0.950 . S
H1257 C1287 0.950 . S
C1258 H1240 0.951 . S
C1258 C1259 1.366 . S
C1258 C1260 1.388 . S
C1259 C1258 1.366 . S
C1259 C1263 1.385 . S
C1260 H1241 0.951 . S
C1260 C1258 1.388 . S
C1260 C1261 1.366 . S
C1261 C1260 1.366 . S
C1261 C1262 1.414 . S
C1261 C1264 1.499 . S
C1262 H1242 0.950 . S
C1262 C1261 1.414 . S
C1262 C1263 1.374 . S
C1263 H1243 0.950 . S
C1263 C1259 1.385 . S
C1263 C1262 1.374 . S
C1264 C1261 1.499 . S
C1264 C1265 1.373 . S
C1264 C1266 1.389 . S
C1265 H1244 0.950 . S
C1265 C1264 1.373 . S
C1265 C1281 1.377 . S
C1266 C1264 1.389 . S
C1266 C1267 1.524 . S
C1266 C1280 1.377 . S
C1267 C1266 1.524 . S
C1267 C1268 1.397 . S
C1267 C1272 1.363 . S
C1268 H1245 0.950 . S
C1268 C1267 1.397 . S
C1268 C1269 1.334 . S
C1269 H1246 0.950 . S
C1269 C1268 1.334 . S
C1269 C1270 1.287 . S
C1270 C1269 1.287 . S
C1270 C1271 1.524 . S
C1270 H1289 0.913 . S
C1271 H1247 0.950 . S
C1271 C1270 1.524 . S
C1271 C1272 1.415 . S
C1272 H1248 0.950 . S
C1272 C1267 1.363 . S
C1272 C1271 1.415 . S
C1273 H1249 0.951 . S
C1273 C1274 1.366 . S
C1273 C1275 1.388 . S
C1274 C1273 1.366 . S
C1274 C1278 1.385 . S
C1275 H1250 0.951 . S
C1275 C1273 1.388 . S
C1275 C1276 1.366 . S
C1276 C1275 1.366 . S
C1276 C1277 1.414 . S
C1276 C1279 1.499 . S
C1277 H1251 0.950 . S
C1277 C1276 1.414 . S
C1277 C1278 1.374 . S
C1278 H1252 0.950 . S
C1278 C1274 1.385 . S
C1278 C1277 1.374 . S
C1279 C1276 1.499 . S
C1279 C1280 1.373 . S
C1279 C1281 1.389 . S
C1280 H1253 0.950 . S
C1280 C1266 1.377 . S
C1280 C1279 1.373 . S
C1281 C1265 1.377 . S
C1281 C1279 1.389 . S
C1281 C1282 1.524 . S
C1282 C1281 1.524 . S
C1282 C1283 1.397 . S
C1282 C1287 1.363 . S
C1283 H1254 0.950 . S
C1283 C1282 1.397 . S
C1283 C1284 1.334 . S
C1284 H1255 0.950 . S
C1284 C1283 1.334 . S
C1284 C1285 1.287 . S
C1285 C1284 1.287 . S
C1285 C1286 1.524 . S
C1285 H1288 0.999 . S
C1286 H1256 0.950 . S
C1286 C1285 1.524 . S
C1286 C1287 1.415 . S
C1287 H1257 0.950 . S
C1287 C1282 1.363 . S
C1287 C1286 1.415 . S
H1288 C1285 0.999 . S
H1289 C1270 0.913 . S
H1290 C1308 0.951 . S
H1291 C1310 0.951 . S
H1292 C1312 0.950 . S
H1293 C1313 0.950 . S
H1294 C1315 0.950 . S
H1295 C1318 0.950 . S
H1296 C1319 0.950 . S
H1297 C1321 0.950 . S
H1298 C1322 0.950 . S
H1299 C1323 0.951 . S
H1300 C1325 0.951 . S
H1301 C1327 0.950 . S
H1302 C1328 0.950 . S
H1303 C1330 0.950 . S
H1304 C1333 0.950 . S
H1305 C1334 0.950 . S
H1306 C1336 0.950 . S
H1307 C1337 0.950 . S
C1308 H1290 0.951 . S
C1308 C1309 1.366 . S
C1308 C1310 1.388 . S
C1309 C1308 1.366 . S
C1309 C1313 1.385 . S
C1310 H1291 0.951 . S
C1310 C1308 1.388 . S
C1310 C1311 1.366 . S
C1311 C1310 1.366 . S
C1311 C1312 1.414 . S
C1311 C1314 1.499 . S
C1312 H1292 0.950 . S
C1312 C1311 1.414 . S
C1312 C1313 1.374 . S
C1313 H1293 0.950 . S
C1313 C1309 1.385 . S
C1313 C1312 1.374 . S
C1314 C1311 1.499 . S
C1314 C1315 1.373 . S
C1314 C1316 1.389 . S
C1315 H1294 0.950 . S
C1315 C1314 1.373 . S
C1315 C1331 1.377 . S
C1316 C1314 1.389 . S
C1316 C1317 1.524 . S
C1316 C1330 1.377 . S
C1317 C1316 1.524 . S
C1317 C1318 1.397 . S
C1317 C1322 1.363 . S
C1318 H1295 0.950 . S
C1318 C1317 1.397 . S
C1318 C1319 1.334 . S
C1319 H1296 0.950 . S
C1319 C1318 1.334 . S
C1319 C1320 1.287 . S
C1320 C1319 1.287 . S
C1320 C1321 1.524 . S
C1320 H1339 0.913 . S
C1321 H1297 0.950 . S
C1321 C1320 1.524 . S
C1321 C1322 1.415 . S
C1322 H1298 0.950 . S
C1322 C1317 1.363 . S
C1322 C1321 1.415 . S
C1323 H1299 0.951 . S
C1323 C1324 1.366 . S
C1323 C1325 1.388 . S
C1324 C1323 1.366 . S
C1324 C1328 1.385 . S
C1325 H1300 0.951 . S
C1325 C1323 1.388 . S
C1325 C1326 1.366 . S
C1326 C1325 1.366 . S
C1326 C1327 1.414 . S
C1326 C1329 1.499 . S
C1327 H1301 0.950 . S
C1327 C1326 1.414 . S
C1327 C1328 1.374 . S
C1328 H1302 0.950 . S
C1328 C1324 1.385 . S
C1328 C1327 1.374 . S
C1329 C1326 1.499 . S
C1329 C1330 1.373 . S
C1329 C1331 1.389 . S
C1330 H1303 0.950 . S
C1330 C1316 1.377 . S
C1330 C1329 1.373 . S
C1331 C1315 1.377 . S
C1331 C1329 1.389 . S
C1331 C1332 1.524 . S
C1332 C1331 1.524 . S
C1332 C1333 1.397 . S
C1332 C1337 1.363 . S
C1333 H1304 0.950 . S
C1333 C1332 1.397 . S
C1333 C1334 1.334 . S
C1334 H1305 0.950 . S
C1334 C1333 1.334 . S
C1334 C1335 1.287 . S
C1335 C1334 1.287 . S
C1335 C1336 1.524 . S
C1335 H1338 0.999 . S
C1336 H1306 0.950 . S
C1336 C1335 1.524 . S
C1336 C1337 1.415 . S
C1337 H1307 0.950 . S
C1337 C1332 1.363 . S
C1337 C1336 1.415 . S
H1338 C1335 0.999 . S
H1339 C1320 0.913 . S
H1340 C1358 0.951 . S
H1341 C1360 0.951 . S
H1342 C1362 0.950 . S
H1343 C1363 0.950 . S
H1344 C1365 0.950 . S
H1345 C1368 0.950 . S
H1346 C1369 0.950 . S
H1347 C1371 0.950 . S
H1348 C1372 0.950 . S
H1349 C1373 0.951 . S
H1350 C1375 0.951 . S
H1351 C1377 0.950 . S
H1352 C1378 0.950 . S
H1353 C1380 0.950 . S
H1354 C1383 0.950 . S
H1355 C1384 0.950 . S
H1356 C1386 0.950 . S
H1357 C1387 0.950 . S
C1358 H1340 0.951 . S
C1358 C1359 1.366 . S
C1358 C1360 1.388 . S
C1359 C1358 1.366 . S
C1359 C1363 1.385 . S
C1360 H1341 0.951 . S
C1360 C1358 1.388 . S
C1360 C1361 1.366 . S
C1361 C1360 1.366 . S
C1361 C1362 1.414 . S
C1361 C1364 1.499 . S
C1362 H1342 0.950 . S
C1362 C1361 1.414 . S
C1362 C1363 1.374 . S
C1363 H1343 0.950 . S
C1363 C1359 1.385 . S
C1363 C1362 1.374 . S
C1364 C1361 1.499 . S
C1364 C1365 1.373 . S
C1364 C1366 1.389 . S
C1365 H1344 0.950 . S
C1365 C1364 1.373 . S
C1365 C1381 1.377 . S
C1366 C1364 1.389 . S
C1366 C1367 1.524 . S
C1366 C1380 1.377 . S
C1367 C1366 1.524 . S
C1367 C1368 1.397 . S
C1367 C1372 1.363 . S
C1368 H1345 0.950 . S
C1368 C1367 1.397 . S
C1368 C1369 1.334 . S
C1369 H1346 0.950 . S
C1369 C1368 1.334 . S
C1369 C1370 1.287 . S
C1370 C1369 1.287 . S
C1370 C1371 1.524 . S
C1370 H1389 0.913 . S
C1371 H1347 0.950 . S
C1371 C1370 1.524 . S
C1371 C1372 1.415 . S
C1372 H1348 0.950 . S
C1372 C1367 1.363 . S
C1372 C1371 1.415 . S
C1373 H1349 0.951 . S
C1373 C1374 1.366 . S
C1373 C1375 1.388 . S
C1374 C1373 1.366 . S
C1374 C1378 1.385 . S
C1375 H1350 0.951 . S
C1375 C1373 1.388 . S
C1375 C1376 1.366 . S
C1376 C1375 1.366 . S
C1376 C1377 1.414 . S
C1376 C1379 1.499 . S
C1377 H1351 0.950 . S
C1377 C1376 1.414 . S
C1377 C1378 1.374 . S
C1378 H1352 0.950 . S
C1378 C1374 1.385 . S
C1378 C1377 1.374 . S
C1379 C1376 1.499 . S
C1379 C1380 1.373 . S
C1379 C1381 1.389 . S
C1380 H1353 0.950 . S
C1380 C1366 1.377 . S
C1380 C1379 1.373 . S
C1381 C1365 1.377 . S
C1381 C1379 1.389 . S
C1381 C1382 1.524 . S
C1382 C1381 1.524 . S
C1382 C1383 1.397 . S
C1382 C1387 1.363 . S
C1383 H1354 0.950 . S
C1383 C1382 1.397 . S
C1383 C1384 1.334 . S
C1384 H1355 0.950 . S
C1384 C1383 1.334 . S
C1384 C1385 1.287 . S
C1385 C1384 1.287 . S
C1385 C1386 1.524 . S
C1385 H1388 0.999 . S
C1386 H1356 0.950 . S
C1386 C1385 1.524 . S
C1386 C1387 1.415 . S
C1387 H1357 0.950 . S
C1387 C1382 1.363 . S
C1387 C1386 1.415 . S
H1388 C1385 0.999 . S
H1389 C1370 0.913 . S
H1390 C1408 0.951 . S
H1391 C1410 0.951 . S
H1392 C1412 0.950 . S
H1393 C1413 0.950 . S
H1394 C1415 0.950 . S
H1395 C1418 0.950 . S
H1396 C1419 0.950 . S
H1397 C1421 0.950 . S
H1398 C1422 0.950 . S
H1399 C1423 0.951 . S
H1400 C1425 0.951 . S
H1401 C1427 0.950 . S
H1402 C1428 0.950 . S
H1403 C1430 0.950 . S
H1404 C1433 0.950 . S
H1405 C1434 0.950 . S
H1406 C1436 0.950 . S
H1407 C1437 0.950 . S
C1408 H1390 0.951 . S
C1408 C1409 1.366 . S
C1408 C1410 1.388 . S
C1409 C1408 1.366 . S
C1409 C1413 1.385 . S
C1410 H1391 0.951 . S
C1410 C1408 1.388 . S
C1410 C1411 1.366 . S
C1411 C1410 1.366 . S
C1411 C1412 1.414 . S
C1411 C1414 1.499 . S
C1412 H1392 0.950 . S
C1412 C1411 1.414 . S
C1412 C1413 1.374 . S
C1413 H1393 0.950 . S
C1413 C1409 1.385 . S
C1413 C1412 1.374 . S
C1414 C1411 1.499 . S
C1414 C1415 1.373 . S
C1414 C1416 1.389 . S
C1415 H1394 0.950 . S
C1415 C1414 1.373 . S
C1415 C1431 1.377 . S
C1416 C1414 1.389 . S
C1416 C1417 1.524 . S
C1416 C1430 1.377 . S
C1417 C1416 1.524 . S
C1417 C1418 1.397 . S
C1417 C1422 1.363 . S
C1418 H1395 0.950 . S
C1418 C1417 1.397 . S
C1418 C1419 1.334 . S
C1419 H1396 0.950 . S
C1419 C1418 1.334 . S
C1419 C1420 1.287 . S
C1420 C1419 1.287 . S
C1420 C1421 1.524 . S
C1420 H1439 0.913 . S
C1421 H1397 0.950 . S
C1421 C1420 1.524 . S
C1421 C1422 1.415 . S
C1422 H1398 0.950 . S
C1422 C1417 1.363 . S
C1422 C1421 1.415 . S
C1423 H1399 0.951 . S
C1423 C1424 1.366 . S
C1423 C1425 1.388 . S
C1424 C1423 1.366 . S
C1424 C1428 1.385 . S
C1425 H1400 0.951 . S
C1425 C1423 1.388 . S
C1425 C1426 1.366 . S
C1426 C1425 1.366 . S
C1426 C1427 1.414 . S
C1426 C1429 1.499 . S
C1427 H1401 0.950 . S
C1427 C1426 1.414 . S
C1427 C1428 1.374 . S
C1428 H1402 0.950 . S
C1428 C1424 1.385 . S
C1428 C1427 1.374 . S
C1429 C1426 1.499 . S
C1429 C1430 1.373 . S
C1429 C1431 1.389 . S
C1430 H1403 0.950 . S
C1430 C1416 1.377 . S
C1430 C1429 1.373 . S
C1431 C1415 1.377 . S
C1431 C1429 1.389 . S
C1431 C1432 1.524 . S
C1432 C1431 1.524 . S
C1432 C1433 1.397 . S
C1432 C1437 1.363 . S
C1433 H1404 0.950 . S
C1433 C1432 1.397 . S
C1433 C1434 1.334 . S
C1434 H1405 0.950 . S
C1434 C1433 1.334 . S
C1434 C1435 1.287 . S
C1435 C1434 1.287 . S
C1435 C1436 1.524 . S
C1435 H1438 0.999 . S
C1436 H1406 0.950 . S
C1436 C1435 1.524 . S
C1436 C1437 1.415 . S
C1437 H1407 0.950 . S
C1437 C1432 1.363 . S
C1437 C1436 1.415 . S
H1438 C1435 0.999 . S
H1439 C1420 0.913 . S
H1440 C1458 0.951 . S
H1441 C1460 0.951 . S
H1442 C1462 0.950 . S
H1443 C1463 0.950 . S
H1444 C1465 0.950 . S
H1445 C1468 0.950 1_545 S
H1446 C1469 0.950 . S
H1447 C1471 0.950 . S
H1448 C1472 0.950 . S
H1449 C1473 0.951 . S
H1450 C1475 0.951 . S
H1451 C1477 0.950 . S
H1452 C1478 0.950 . S
H1453 C1480 0.950 . S
H1454 C1483 0.950 . S
H1455 C1484 0.950 . S
H1456 C1486 0.950 . S
H1457 C1487 0.950 . S
C1458 H1440 0.951 . S
C1458 C1459 1.366 . S
C1458 C1460 1.388 . S
C1459 C1458 1.366 . S
C1459 C1463 1.385 . S
C1460 H1441 0.951 . S
C1460 C1458 1.388 . S
C1460 C1461 1.366 . S
C1461 C1460 1.366 . S
C1461 C1462 1.414 . S
C1461 C1464 1.499 . S
C1462 H1442 0.950 . S
C1462 C1461 1.414 . S
C1462 C1463 1.374 . S
C1463 H1443 0.950 . S
C1463 C1459 1.385 . S
C1463 C1462 1.374 . S
C1464 C1461 1.499 . S
C1464 C1465 1.373 . S
C1464 C1466 1.389 . S
C1465 H1444 0.950 . S
C1465 C1464 1.373 . S
C1465 C1481 1.377 1_556 S
C1466 C1464 1.389 . S
C1466 C1467 1.524 . S
C1466 C1480 1.377 1_556 S
C1467 C1466 1.524 . S
C1467 C1468 1.397 1_545 S
C1467 C1472 1.363 1_545 S
C1468 H1445 0.950 1_565 S
C1468 C1467 1.397 1_565 S
C1468 C1469 1.334 . S
C1469 H1446 0.950 . S
C1469 C1468 1.334 . S
C1469 C1470 1.287 . S
C1470 C1469 1.287 . S
C1470 C1471 1.524 . S
C1470 H1489 0.913 . S
C1471 H1447 0.950 . S
C1471 C1470 1.524 . S
C1471 C1472 1.415 . S
C1472 H1448 0.950 . S
C1472 C1467 1.363 1_565 S
C1472 C1471 1.415 . S
C1473 H1449 0.951 . S
C1473 C1474 1.366 . S
C1473 C1475 1.388 . S
C1474 C1473 1.366 . S
C1474 C1478 1.385 . S
C1475 H1450 0.951 . S
C1475 C1473 1.388 . S
C1475 C1476 1.366 . S
C1476 C1475 1.366 . S
C1476 C1477 1.414 . S
C1476 C1479 1.499 . S
C1477 H1451 0.950 . S
C1477 C1476 1.414 . S
C1477 C1478 1.374 . S
C1478 H1452 0.950 . S
C1478 C1474 1.385 . S
C1478 C1477 1.374 . S
C1479 C1476 1.499 . S
C1479 C1480 1.373 . S
C1479 C1481 1.389 . S
C1480 H1453 0.950 . S
C1480 C1466 1.377 1_554 S
C1480 C1479 1.373 . S
C1481 C1465 1.377 1_554 S
C1481 C1479 1.389 . S
C1481 C1482 1.524 . S
C1482 C1481 1.524 . S
C1482 C1483 1.397 . S
C1482 C1487 1.363 . S
C1483 H1454 0.950 . S
C1483 C1482 1.397 . S
C1483 C1484 1.334 . S
C1484 H1455 0.950 . S
C1484 C1483 1.334 . S
C1484 C1485 1.287 . S
C1485 C1484 1.287 . S
C1485 C1486 1.524 . S
C1485 H1488 0.999 . S
C1486 H1456 0.950 . S
C1486 C1485 1.524 . S
C1486 C1487 1.415 . S
C1487 H1457 0.950 . S
C1487 C1482 1.363 . S
C1487 C1486 1.415 . S
H1488 C1485 0.999 . S
H1489 C1470 0.913 . S
H1490 C1508 0.951 . S
H1491 C1510 0.951 . S
H1492 C1512 0.950 . S
H1493 C1513 0.950 . S
H1494 C1515 0.950 . S
H1495 C1518 0.950 . S
H1496 C1519 0.950 . S
H1497 C1521 0.950 . S
H1498 C1522 0.950 . S
H1499 C1523 0.951 . S
H1500 C1525 0.951 . S
H1501 C1527 0.950 . S
H1502 C1528 0.950 . S
H1503 C1530 0.950 . S
H1504 C1533 0.950 . S
H1505 C1534 0.950 . S
H1506 C1536 0.950 . S
H1507 C1537 0.950 . S
C1508 H1490 0.951 . S
C1508 C1509 1.366 . S
C1508 C1510 1.388 . S
C1509 C1508 1.366 . S
C1509 C1513 1.385 . S
C1510 H1491 0.951 . S
C1510 C1508 1.388 . S
C1510 C1511 1.366 . S
C1511 C1510 1.366 . S
C1511 C1512 1.414 . S
C1511 C1514 1.499 . S
C1512 H1492 0.950 . S
C1512 C1511 1.414 . S
C1512 C1513 1.374 . S
C1513 H1493 0.950 . S
C1513 C1509 1.385 . S
C1513 C1512 1.374 . S
C1514 C1511 1.499 . S
C1514 C1515 1.373 . S
C1514 C1516 1.389 . S
C1515 H1494 0.950 . S
C1515 C1514 1.373 . S
C1515 C1531 1.377 1_556 S
C1516 C1514 1.389 . S
C1516 C1517 1.524 . S
C1516 C1530 1.377 1_556 S
C1517 C1516 1.524 . S
C1517 C1518 1.397 . S
C1517 C1522 1.363 1_565 S
C1518 H1495 0.950 . S
C1518 C1517 1.397 . S
C1518 C1519 1.334 . S
C1519 H1496 0.950 . S
C1519 C1518 1.334 . S
C1519 C1520 1.287 1_565 S
C1520 C1519 1.287 1_545 S
C1520 C1521 1.524 . S
C1520 H1539 0.913 . S
C1521 H1497 0.950 . S
C1521 C1520 1.524 . S
C1521 C1522 1.415 . S
C1522 H1498 0.950 . S
C1522 C1517 1.363 1_545 S
C1522 C1521 1.415 . S
C1523 H1499 0.951 . S
C1523 C1524 1.366 . S
C1523 C1525 1.388 . S
C1524 C1523 1.366 . S
C1524 C1528 1.385 . S
C1525 H1500 0.951 . S
C1525 C1523 1.388 . S
C1525 C1526 1.366 . S
C1526 C1525 1.366 . S
C1526 C1527 1.414 . S
C1526 C1529 1.499 . S
C1527 H1501 0.950 . S
C1527 C1526 1.414 . S
C1527 C1528 1.374 . S
C1528 H1502 0.950 . S
C1528 C1524 1.385 . S
C1528 C1527 1.374 . S
C1529 C1526 1.499 . S
C1529 C1530 1.373 . S
C1529 C1531 1.389 . S
C1530 H1503 0.950 . S
C1530 C1516 1.377 1_554 S
C1530 C1529 1.373 . S
C1531 C1515 1.377 1_554 S
C1531 C1529 1.389 . S
C1531 C1532 1.524 . S
C1532 C1531 1.524 . S
C1532 C1533 1.397 . S
C1532 C1537 1.363 . S
C1533 H1504 0.950 . S
C1533 C1532 1.397 . S
C1533 C1534 1.334 . S
C1534 H1505 0.950 . S
C1534 C1533 1.334 . S
C1534 C1535 1.287 . S
C1535 C1534 1.287 . S
C1535 C1536 1.524 . S
C1535 H1538 0.999 . S
C1536 H1506 0.950 . S
C1536 C1535 1.524 . S
C1536 C1537 1.415 . S
C1537 H1507 0.950 . S
C1537 C1532 1.363 . S
C1537 C1536 1.415 . S
H1538 C1535 0.999 . S
H1539 C1520 0.913 . S
H1540 C1558 0.951 . S
H1541 C1560 0.951 . S
H1542 C1562 0.950 . S
H1543 C1563 0.950 . S
H1544 C1565 0.950 . S
H1545 C1568 0.950 . S
H1546 C1569 0.950 . S
H1547 C1571 0.950 . S
H1548 C1572 0.950 . S
H1549 C1573 0.951 . S
H1550 C1575 0.951 . S
H1551 C1577 0.950 . S
H1552 C1578 0.950 . S
H1553 C1580 0.950 . S
H1554 C1583 0.950 . S
H1555 C1584 0.950 . S
H1556 C1586 0.950 . S
H1557 C1587 0.950 . S
C1558 H1540 0.951 . S
C1558 C1559 1.366 . S
C1558 C1560 1.388 . S
C1559 C1558 1.366 . S
C1559 C1563 1.385 . S
C1560 H1541 0.951 . S
C1560 C1558 1.388 . S
C1560 C1561 1.366 . S
C1561 C1560 1.366 . S
C1561 C1562 1.414 . S
C1561 C1564 1.499 . S
C1562 H1542 0.950 . S
C1562 C1561 1.414 . S
C1562 C1563 1.374 . S
C1563 H1543 0.950 . S
C1563 C1559 1.385 . S
C1563 C1562 1.374 . S
C1564 C1561 1.499 . S
C1564 C1565 1.373 . S
C1564 C1566 1.389 . S
C1565 H1544 0.950 . S
C1565 C1564 1.373 . S
C1565 C1581 1.377 . S
C1566 C1564 1.389 . S
C1566 C1567 1.524 . S
C1566 C1580 1.377 . S
C1567 C1566 1.524 . S
C1567 C1568 1.397 . S
C1567 C1572 1.363 . S
C1568 H1545 0.950 . S
C1568 C1567 1.397 . S
C1568 C1569 1.334 . S
C1569 H1546 0.950 . S
C1569 C1568 1.334 . S
C1569 C1570 1.287 . S
C1570 C1569 1.287 . S
C1570 C1571 1.524 . S
C1570 H1589 0.913 . S
C1571 H1547 0.950 . S
C1571 C1570 1.524 . S
C1571 C1572 1.415 . S
C1572 H1548 0.950 . S
C1572 C1567 1.363 . S
C1572 C1571 1.415 . S
C1573 H1549 0.951 . S
C1573 C1574 1.366 . S
C1573 C1575 1.388 . S
C1574 C1573 1.366 . S
C1574 C1578 1.385 . S
C1575 H1550 0.951 . S
C1575 C1573 1.388 . S
C1575 C1576 1.366 . S
C1576 C1575 1.366 . S
C1576 C1577 1.414 . S
C1576 C1579 1.499 . S
C1577 H1551 0.950 . S
C1577 C1576 1.414 . S
C1577 C1578 1.374 . S
C1578 H1552 0.950 . S
C1578 C1574 1.385 . S
C1578 C1577 1.374 . S
C1579 C1576 1.499 . S
C1579 C1580 1.373 . S
C1579 C1581 1.389 . S
C1580 H1553 0.950 . S
C1580 C1566 1.377 . S
C1580 C1579 1.373 . S
C1581 C1565 1.377 . S
C1581 C1579 1.389 . S
C1581 C1582 1.524 . S
C1582 C1581 1.524 . S
C1582 C1583 1.397 1_565 S
C1582 C1587 1.363 . S
C1583 H1554 0.950 . S
C1583 C1582 1.397 1_545 S
C1583 C1584 1.334 . S
C1584 H1555 0.950 . S
C1584 C1583 1.334 . S
C1584 C1585 1.287 . S
C1585 C1584 1.287 . S
C1585 C1586 1.524 . S
C1585 H1588 0.999 . S
C1586 H1556 0.950 . S
C1586 C1585 1.524 . S
C1586 C1587 1.415 1_545 S
C1587 H1557 0.950 . S
C1587 C1582 1.363 . S
C1587 C1586 1.415 1_565 S
H1588 C1585 0.999 . S
H1589 C1570 0.913 . S
H1590 C1608 0.951 . S
H1591 C1610 0.951 . S
H1592 C1612 0.950 . S
H1593 C1613 0.950 . S
H1594 C1615 0.950 . S
H1595 C1618 0.950 . S
H1596 C1619 0.950 . S
H1597 C1621 0.950 . S
H1598 C1622 0.950 1_545 S
H1599 C1623 0.951 . S
H1600 C1625 0.951 . S
H1601 C1627 0.950 . S
H1602 C1628 0.950 . S
H1603 C1630 0.950 . S
H1604 C1633 0.950 . S
H1605 C1634 0.950 . S
H1606 C1636 0.950 . S
H1607 C1637 0.950 . S
C1608 H1590 0.951 . S
C1608 C1609 1.366 . S
C1608 C1610 1.388 . S
C1609 C1608 1.366 . S
C1609 C1613 1.385 . S
C1610 H1591 0.951 . S
C1610 C1608 1.388 . S
C1610 C1611 1.366 . S
C1611 C1610 1.366 . S
C1611 C1612 1.414 . S
C1611 C1614 1.499 . S
C1612 H1592 0.950 . S
C1612 C1611 1.414 . S
C1612 C1613 1.374 . S
C1613 H1593 0.950 . S
C1613 C1609 1.385 . S
C1613 C1612 1.374 . S
C1614 C1611 1.499 . S
C1614 C1615 1.373 . S
C1614 C1616 1.389 . S
C1615 H1594 0.950 . S
C1615 C1614 1.373 . S
C1615 C1631 1.377 . S
C1616 C1614 1.389 . S
C1616 C1617 1.524 . S
C1616 C1630 1.377 . S
C1617 C1616 1.524 . S
C1617 C1618 1.397 1_545 S
C1617 C1622 1.363 1_545 S
C1618 H1595 0.950 . S
C1618 C1617 1.397 1_565 S
C1618 C1619 1.334 . S
C1619 H1596 0.950 . S
C1619 C1618 1.334 . S
C1619 C1620 1.287 . S
C1620 C1619 1.287 . S
C1620 C1621 1.524 . S
C1620 H1639 0.913 . S
C1621 H1597 0.950 . S
C1621 C1620 1.524 . S
C1621 C1622 1.415 . S
C1622 H1598 0.950 1_565 S
C1622 C1617 1.363 1_565 S
C1622 C1621 1.415 . S
C1623 H1599 0.951 . S
C1623 C1624 1.366 . S
C1623 C1625 1.388 . S
C1624 C1623 1.366 . S
C1624 C1628 1.385 . S
C1625 H1600 0.951 . S
C1625 C1623 1.388 . S
C1625 C1626 1.366 . S
C1626 C1625 1.366 . S
C1626 C1627 1.414 . S
C1626 C1629 1.499 . S
C1627 H1601 0.950 . S
C1627 C1626 1.414 . S
C1627 C1628 1.374 . S
C1628 H1602 0.950 . S
C1628 C1624 1.385 . S
C1628 C1627 1.374 . S
C1629 C1626 1.499 . S
C1629 C1630 1.373 . S
C1629 C1631 1.389 . S
C1630 H1603 0.950 . S
C1630 C1616 1.377 . S
C1630 C1629 1.373 . S
C1631 C1615 1.377 . S
C1631 C1629 1.389 . S
C1631 C1632 1.524 . S
C1632 C1631 1.524 . S
C1632 C1633 1.397 . S
C1632 C1637 1.363 . S
C1633 H1604 0.950 . S
C1633 C1632 1.397 . S
C1633 C1634 1.334 . S
C1634 H1605 0.950 . S
C1634 C1633 1.334 . S
C1634 C1635 1.287 . S
C1635 C1634 1.287 . S
C1635 C1636 1.524 . S
C1635 H1638 0.999 . S
C1636 H1606 0.950 . S
C1636 C1635 1.524 . S
C1636 C1637 1.415 . S
C1637 H1607 0.950 . S
C1637 C1632 1.363 . S
C1637 C1636 1.415 . S
H1638 C1635 0.999 . S
H1639 C1620 0.913 . S
H1640 C1658 0.951 . S
H1641 C1660 0.951 . S
H1642 C1662 0.950 . S
H1643 C1663 0.950 . S
H1644 C1665 0.950 . S
H1645 C1668 0.950 . S
H1646 C1669 0.950 . S
H1647 C1671 0.950 . S
H1648 C1672 0.950 . S
H1649 C1673 0.951 . S
H1650 C1675 0.951 . S
H1651 C1677 0.950 . S
H1652 C1678 0.950 . S
H1653 C1680 0.950 . S
H1654 C1683 0.950 . S
H1655 C1684 0.950 . S
H1656 C1686 0.950 . S
H1657 C1687 0.950 . S
C1658 H1640 0.951 . S
C1658 C1659 1.366 . S
C1658 C1660 1.388 . S
C1659 C1658 1.366 . S
C1659 C1663 1.385 . S
C1660 H1641 0.951 . S
C1660 C1658 1.388 . S
C1660 C1661 1.366 . S
C1661 C1660 1.366 . S
C1661 C1662 1.414 . S
C1661 C1664 1.499 . S
C1662 H1642 0.950 . S
C1662 C1661 1.414 . S
C1662 C1663 1.374 . S
C1663 H1643 0.950 . S
C1663 C1659 1.385 . S
C1663 C1662 1.374 . S
C1664 C1661 1.499 . S
C1664 C1665 1.373 . S
C1664 C1666 1.389 . S
C1665 H1644 0.950 . S
C1665 C1664 1.373 . S
C1665 C1681 1.377 1_554 S
C1666 C1664 1.389 . S
C1666 C1667 1.524 . S
C1666 C1680 1.377 1_554 S
C1667 C1666 1.524 . S
C1667 C1668 1.397 . S
C1667 C1672 1.363 . S
C1668 H1645 0.950 . S
C1668 C1667 1.397 . S
C1668 C1669 1.334 . S
C1669 H1646 0.950 . S
C1669 C1668 1.334 . S
C1669 C1670 1.287 . S
C1670 C1669 1.287 . S
C1670 C1671 1.524 . S
C1670 H1689 0.913 . S
C1671 H1647 0.950 . S
C1671 C1670 1.524 . S
C1671 C1672 1.415 . S
C1672 H1648 0.950 . S
C1672 C1667 1.363 . S
C1672 C1671 1.415 . S
C1673 H1649 0.951 . S
C1673 C1674 1.366 . S
C1673 C1675 1.388 . S
C1674 C1673 1.366 . S
C1674 C1678 1.385 . S
C1675 H1650 0.951 . S
C1675 C1673 1.388 . S
C1675 C1676 1.366 . S
C1676 C1675 1.366 . S
C1676 C1677 1.414 . S
C1676 C1679 1.499 . S
C1677 H1651 0.950 . S
C1677 C1676 1.414 . S
C1677 C1678 1.374 . S
C1678 H1652 0.950 . S
C1678 C1674 1.385 . S
C1678 C1677 1.374 . S
C1679 C1676 1.499 . S
C1679 C1680 1.373 . S
C1679 C1681 1.389 . S
C1680 H1653 0.950 . S
C1680 C1666 1.377 1_556 S
C1680 C1679 1.373 . S
C1681 C1665 1.377 1_556 S
C1681 C1679 1.389 . S
C1681 C1682 1.524 . S
C1682 C1681 1.524 . S
C1682 C1683 1.397 . S
C1682 C1687 1.363 . S
C1683 H1654 0.950 . S
C1683 C1682 1.397 . S
C1683 C1684 1.334 . S
C1684 H1655 0.950 . S
C1684 C1683 1.334 . S
C1684 C1685 1.287 . S
C1685 C1684 1.287 . S
C1685 C1686 1.524 . S
C1685 H1688 0.999 . S
C1686 H1656 0.950 . S
C1686 C1685 1.524 . S
C1686 C1687 1.415 . S
C1687 H1657 0.950 . S
C1687 C1682 1.363 . S
C1687 C1686 1.415 . S
H1688 C1685 0.999 . S
H1689 C1670 0.913 . S
H1690 C1708 0.951 . S
H1691 C1710 0.951 . S
H1692 C1712 0.950 . S
H1693 C1713 0.950 . S
H1694 C1715 0.950 . S
H1695 C1718 0.950 . S
H1696 C1719 0.950 . S
H1697 C1721 0.950 . S
H1698 C1722 0.950 . S
H1699 C1723 0.951 . S
H1700 C1725 0.951 . S
H1701 C1727 0.950 . S
H1702 C1728 0.950 . S
H1703 C1730 0.950 . S
H1704 C1733 0.950 . S
H1705 C1734 0.950 . S
H1706 C1736 0.950 . S
H1707 C1737 0.950 . S
C1708 H1690 0.951 . S
C1708 C1709 1.366 . S
C1708 C1710 1.388 . S
C1709 C1708 1.366 . S
C1709 C1713 1.385 . S
C1710 H1691 0.951 . S
C1710 C1708 1.388 . S
C1710 C1711 1.366 . S
C1711 C1710 1.366 . S
C1711 C1712 1.414 . S
C1711 C1714 1.499 . S
C1712 H1692 0.950 . S
C1712 C1711 1.414 . S
C1712 C1713 1.374 . S
C1713 H1693 0.950 . S
C1713 C1709 1.385 . S
C1713 C1712 1.374 . S
C1714 C1711 1.499 . S
C1714 C1715 1.373 . S
C1714 C1716 1.389 . S
C1715 H1694 0.950 . S
C1715 C1714 1.373 . S
C1715 C1731 1.377 1_556 S
C1716 C1714 1.389 . S
C1716 C1717 1.524 . S
C1716 C1730 1.377 1_556 S
C1717 C1716 1.524 . S
C1717 C1718 1.397 . S
C1717 C1722 1.363 . S
C1718 H1695 0.950 . S
C1718 C1717 1.397 . S
C1718 C1719 1.334 . S
C1719 H1696 0.950 . S
C1719 C1718 1.334 . S
C1719 C1720 1.287 . S
C1720 C1719 1.287 . S
C1720 C1721 1.524 . S
C1720 H1739 0.913 . S
C1721 H1697 0.950 . S
C1721 C1720 1.524 . S
C1721 C1722 1.415 . S
C1722 H1698 0.950 . S
C1722 C1717 1.363 . S
C1722 C1721 1.415 . S
C1723 H1699 0.951 . S
C1723 C1724 1.366 . S
C1723 C1725 1.388 . S
C1724 C1723 1.366 . S
C1724 C1728 1.385 . S
C1725 H1700 0.951 . S
C1725 C1723 1.388 . S
C1725 C1726 1.366 . S
C1726 C1725 1.366 . S
C1726 C1727 1.414 . S
C1726 C1729 1.499 . S
C1727 H1701 0.950 . S
C1727 C1726 1.414 . S
C1727 C1728 1.374 . S
C1728 H1702 0.950 . S
C1728 C1724 1.385 . S
C1728 C1727 1.374 . S
C1729 C1726 1.499 . S
C1729 C1730 1.373 . S
C1729 C1731 1.389 . S
C1730 H1703 0.950 . S
C1730 C1716 1.377 1_554 S
C1730 C1729 1.373 . S
C1731 C1715 1.377 1_554 S
C1731 C1729 1.389 . S
C1731 C1732 1.524 . S
C1732 C1731 1.524 . S
C1732 C1733 1.397 . S
C1732 C1737 1.363 . S
C1733 H1704 0.950 . S
C1733 C1732 1.397 . S
C1733 C1734 1.334 . S
C1734 H1705 0.950 . S
C1734 C1733 1.334 . S
C1734 C1735 1.287 . S
C1735 C1734 1.287 . S
C1735 C1736 1.524 . S
C1735 H1738 0.999 . S
C1736 H1706 0.950 . S
C1736 C1735 1.524 . S
C1736 C1737 1.415 . S
C1737 H1707 0.950 . S
C1737 C1732 1.363 . S
C1737 C1736 1.415 . S
H1738 C1735 0.999 . S
H1739 C1720 0.913 . S
H1740 C1758 0.951 . S
H1741 C1760 0.951 . S
H1742 C1762 0.950 . S
H1743 C1763 0.950 . S
H1744 C1765 0.950 . S
H1745 C1768 0.950 . S
H1746 C1769 0.950 . S
H1747 C1771 0.950 . S
H1748 C1772 0.950 . S
H1749 C1773 0.951 . S
H1750 C1775 0.951 . S
H1751 C1777 0.950 . S
H1752 C1778 0.950 . S
H1753 C1780 0.950 . S
H1754 C1783 0.950 . S
H1755 C1784 0.950 . S
H1756 C1786 0.950 . S
H1757 C1787 0.950 . S
C1758 H1740 0.951 . S
C1758 C1759 1.366 . S
C1758 C1760 1.388 . S
C1759 C1758 1.366 . S
C1759 C1763 1.385 . S
C1760 H1741 0.951 . S
C1760 C1758 1.388 . S
C1760 C1761 1.366 . S
C1761 C1760 1.366 . S
C1761 C1762 1.414 . S
C1761 C1764 1.499 . S
C1762 H1742 0.950 . S
C1762 C1761 1.414 . S
C1762 C1763 1.374 . S
C1763 H1743 0.950 . S
C1763 C1759 1.385 . S
C1763 C1762 1.374 . S
C1764 C1761 1.499 . S
C1764 C1765 1.373 . S
C1764 C1766 1.389 . S
C1765 H1744 0.950 . S
C1765 C1764 1.373 . S
C1765 C1781 1.377 . S
C1766 C1764 1.389 . S
C1766 C1767 1.524 . S
C1766 C1780 1.377 . S
C1767 C1766 1.524 . S
C1767 C1768 1.397 . S
C1767 C1772 1.363 . S
C1768 H1745 0.950 . S
C1768 C1767 1.397 . S
C1768 C1769 1.334 . S
C1769 H1746 0.950 . S
C1769 C1768 1.334 . S
C1769 C1770 1.287 . S
C1770 C1769 1.287 . S
C1770 C1771 1.524 . S
C1770 H1789 0.913 . S
C1771 H1747 0.950 . S
C1771 C1770 1.524 . S
C1771 C1772 1.415 . S
C1772 H1748 0.950 . S
C1772 C1767 1.363 . S
C1772 C1771 1.415 . S
C1773 H1749 0.951 . S
C1773 C1774 1.366 . S
C1773 C1775 1.388 . S
C1774 C1773 1.366 . S
C1774 C1778 1.385 . S
C1775 H1750 0.951 . S
C1775 C1773 1.388 . S
C1775 C1776 1.366 . S
C1776 C1775 1.366 . S
C1776 C1777 1.414 . S
C1776 C1779 1.499 . S
C1777 H1751 0.950 . S
C1777 C1776 1.414 . S
C1777 C1778 1.374 . S
C1778 H1752 0.950 . S
C1778 C1774 1.385 . S
C1778 C1777 1.374 . S
C1779 C1776 1.499 . S
C1779 C1780 1.373 . S
C1779 C1781 1.389 . S
C1780 H1753 0.950 . S
C1780 C1766 1.377 . S
C1780 C1779 1.373 . S
C1781 C1765 1.377 . S
C1781 C1779 1.389 . S
C1781 C1782 1.524 . S
C1782 C1781 1.524 . S
C1782 C1783 1.397 . S
C1782 C1787 1.363 . S
C1783 H1754 0.950 . S
C1783 C1782 1.397 . S
C1783 C1784 1.334 . S
C1784 H1755 0.950 . S
C1784 C1783 1.334 . S
C1784 C1785 1.287 . S
C1785 C1784 1.287 . S
C1785 C1786 1.524 . S
C1785 H1788 0.999 . S
C1786 H1756 0.950 . S
C1786 C1785 1.524 . S
C1786 C1787 1.415 . S
C1787 H1757 0.950 . S
C1787 C1782 1.363 . S
C1787 C1786 1.415 . S
H1788 C1785 0.999 . S
H1789 C1770 0.913 . S
H1790 C1808 0.951 . S
H1791 C1810 0.951 . S
H1792 C1812 0.950 . S
H1793 C1813 0.950 . S
H1794 C1815 0.950 . S
H1795 C1818 0.950 . S
H1796 C1819 0.950 . S
H1797 C1821 0.950 . S
H1798 C1822 0.950 . S
H1799 C1823 0.951 . S
H1800 C1825 0.951 . S
H1801 C1827 0.950 . S
H1802 C1828 0.950 . S
H1803 C1830 0.950 . S
H1804 C1833 0.950 . S
H1805 C1834 0.950 . S
H1806 C1836 0.950 . S
H1807 C1837 0.950 . S
C1808 H1790 0.951 . S
C1808 C1809 1.366 . S
C1808 C1810 1.388 . S
C1809 C1808 1.366 . S
C1809 C1813 1.385 . S
C1810 H1791 0.951 . S
C1810 C1808 1.388 . S
C1810 C1811 1.366 . S
C1811 C1810 1.366 . S
C1811 C1812 1.414 . S
C1811 C1814 1.499 . S
C1812 H1792 0.950 . S
C1812 C1811 1.414 . S
C1812 C1813 1.374 . S
C1813 H1793 0.950 . S
C1813 C1809 1.385 . S
C1813 C1812 1.374 . S
C1814 C1811 1.499 . S
C1814 C1815 1.373 . S
C1814 C1816 1.389 . S
C1815 H1794 0.950 . S
C1815 C1814 1.373 . S
C1815 C1831 1.377 . S
C1816 C1814 1.389 . S
C1816 C1817 1.524 . S
C1816 C1830 1.377 . S
C1817 C1816 1.524 . S
C1817 C1818 1.397 . S
C1817 C1822 1.363 . S
C1818 H1795 0.950 . S
C1818 C1817 1.397 . S
C1818 C1819 1.334 . S
C1819 H1796 0.950 . S
C1819 C1818 1.334 . S
C1819 C1820 1.287 . S
C1820 C1819 1.287 . S
C1820 C1821 1.524 . S
C1820 H1839 0.913 . S
C1821 H1797 0.950 . S
C1821 C1820 1.524 . S
C1821 C1822 1.415 . S
C1822 H1798 0.950 . S
C1822 C1817 1.363 . S
C1822 C1821 1.415 . S
C1823 H1799 0.951 . S
C1823 C1824 1.366 . S
C1823 C1825 1.388 . S
C1824 C1823 1.366 . S
C1824 C1828 1.385 . S
C1825 H1800 0.951 . S
C1825 C1823 1.388 . S
C1825 C1826 1.366 . S
C1826 C1825 1.366 . S
C1826 C1827 1.414 . S
C1826 C1829 1.499 . S
C1827 H1801 0.950 . S
C1827 C1826 1.414 . S
C1827 C1828 1.374 . S
C1828 H1802 0.950 . S
C1828 C1824 1.385 . S
C1828 C1827 1.374 . S
C1829 C1826 1.499 . S
C1829 C1830 1.373 . S
C1829 C1831 1.389 . S
C1830 H1803 0.950 . S
C1830 C1816 1.377 . S
C1830 C1829 1.373 . S
C1831 C1815 1.377 . S
C1831 C1829 1.389 . S
C1831 C1832 1.524 . S
C1832 C1831 1.524 . S
C1832 C1833 1.397 . S
C1832 C1837 1.363 . S
C1833 H1804 0.950 . S
C1833 C1832 1.397 . S
C1833 C1834 1.334 . S
C1834 H1805 0.950 . S
C1834 C1833 1.334 . S
C1834 C1835 1.287 . S
C1835 C1834 1.287 . S
C1835 C1836 1.524 . S
C1835 H1838 0.999 . S
C1836 H1806 0.950 . S
C1836 C1835 1.524 . S
C1836 C1837 1.415 . S
C1837 H1807 0.950 . S
C1837 C1832 1.363 . S
C1837 C1836 1.415 . S
H1838 C1835 0.999 . S
H1839 C1820 0.913 . S
H1840 C1858 0.951 . S
H1841 C1860 0.951 . S
H1842 C1862 0.950 1_565 S
H1843 C1863 0.956 . S
H1844 C1865 0.950 . S
H1845 C1868 0.950 . S
H1846 C1869 0.950 . S
H1847 C1871 0.950 . S
H1848 C1872 0.950 1_545 S
H1849 C1873 0.951 . S
H1850 C1875 0.951 . S
H1851 C1877 0.950 1_545 S
H1852 C1878 0.956 . S
H1853 C1880 0.950 . S
H1854 C1883 0.950 . S
H1855 C1884 0.950 . S
H1856 C1886 0.950 . S
H1857 C1887 0.950 1_565 S
C1858 H1840 0.951 . S
C1858 C1859 1.366 . S
C1858 C1860 1.388 . S
C1859 C1858 1.366 . S
C1859 C1863 1.385 . S
C1860 H1841 0.951 . S
C1860 C1858 1.388 . S
C1860 C1861 1.366 . S
C1861 C1860 1.366 . S
C1861 C1862 1.414 . S
C1861 C1864 1.499 . S
C1862 H1842 0.950 1_545 S
C1862 C1861 1.414 . S
C1862 C1863 1.374 . S
C1863 H1843 0.956 . S
C1863 C1859 1.385 . S
C1863 C1862 1.374 . S
C1864 C1861 1.499 . S
C1864 C1865 1.373 . S
C1864 C1866 1.389 1_545 S
C1865 H1844 0.950 . S
C1865 C1864 1.373 . S
C1865 C1881 1.377 1_655 S
C1866 C1864 1.389 1_565 S
C1866 C1867 1.524 . S
C1866 C1880 1.377 1_655 S
C1867 C1866 1.524 . S
C1867 C1868 1.397 . S
C1867 C1872 1.363 . S
C1868 H1845 0.950 . S
C1868 C1867 1.397 . S
C1868 C1869 1.334 . S
C1869 H1846 0.950 . S
C1869 C1868 1.334 . S
C1869 C1870 1.287 . S
C1870 C1869 1.287 . S
C1870 C1871 1.524 . S
C1870 H1889 0.913 . S
C1871 H1847 0.950 . S
C1871 C1870 1.524 . S
C1871 C1872 1.415 . S
C1872 H1848 0.950 1_565 S
C1872 C1867 1.363 . S
C1872 C1871 1.415 . S
C1873 H1849 0.951 . S
C1873 C1874 1.366 . S
C1873 C1875 1.388 . S
C1874 C1873 1.366 . S
C1874 C1878 1.385 . S
C1875 H1850 0.951 . S
C1875 C1873 1.388 . S
C1875 C1876 1.366 . S
C1876 C1875 1.366 . S
C1876 C1877 1.414 . S
C1876 C1879 1.499 . S
C1877 H1851 0.950 1_565 S
C1877 C1876 1.414 . S
C1877 C1878 1.374 . S
C1878 H1852 0.956 . S
C1878 C1874 1.385 . S
C1878 C1877 1.374 . S
C1879 C1876 1.499 . S
C1879 C1880 1.373 . S
C1879 C1881 1.389 1_565 S
C1880 H1853 0.950 . S
C1880 C1866 1.377 1_455 S
C1880 C1879 1.373 . S
C1881 C1865 1.377 1_455 S
C1881 C1879 1.389 1_545 S
C1881 C1882 1.524 . S
C1882 C1881 1.524 . S
C1882 C1883 1.397 . S
C1882 C1887 1.363 . S
C1883 H1854 0.950 . S
C1883 C1882 1.397 . S
C1883 C1884 1.334 . S
C1884 H1855 0.950 . S
C1884 C1883 1.334 . S
C1884 C1885 1.287 . S
C1885 C1884 1.287 . S
C1885 C1886 1.524 . S
C1885 H1888 0.999 . S
C1886 H1856 0.950 . S
C1886 C1885 1.524 . S
C1886 C1887 1.415 . S
C1887 H1857 0.950 1_545 S
C1887 C1882 1.363 . S
C1887 C1886 1.415 . S
H1888 C1885 0.999 . S
H1889 C1870 0.913 . S
H1890 C1908 0.951 . S
H1891 C1910 0.951 . S
H1892 C1912 0.950 . S
H1893 C1913 0.950 1_545 S
H1894 C1915 0.950 . S
H1895 C1918 0.950 . S
H1896 C1919 0.950 . S
H1897 C1921 0.987 . S
H1898 C1922 0.950 1_455 S
H1899 C1923 0.951 . S
H1900 C1925 0.951 . S
H1901 C1927 0.950 . S
H1902 C1928 0.950 1_565 S
H1903 C1930 0.950 . S
H1904 C1933 0.950 . S
H1905 C1934 0.950 . S
H1906 C1936 0.987 . S
H1907 C1937 0.950 1_655 S
C1908 H1890 0.951 . S
C1908 C1909 1.366 . S
C1908 C1910 1.388 . S
C1909 C1908 1.366 . S
C1909 C1913 1.385 . S
C1910 H1891 0.951 . S
C1910 C1908 1.388 . S
C1910 C1911 1.366 . S
C1911 C1910 1.366 . S
C1911 C1912 1.414 1_565 S
C1911 C1914 1.499 . S
C1912 H1892 0.950 . S
C1912 C1911 1.414 1_545 S
C1912 C1913 1.374 1_545 S
C1913 H1893 0.950 1_565 S
C1913 C1909 1.385 . S
C1913 C1912 1.374 1_565 S
C1914 C1911 1.499 . S
C1914 C1915 1.373 1_565 S
C1914 C1916 1.389 . S
C1915 H1894 0.950 . S
C1915 C1914 1.373 1_545 S
C1915 C1931 1.377 1_655 S
C1916 C1914 1.389 . S
C1916 C1917 1.524 . S
C1916 C1930 1.377 1_655 S
C1917 C1916 1.524 . S
C1917 C1918 1.397 . S
C1917 C1922 1.363 . S
C1918 H1895 0.950 . S
C1918 C1917 1.397 . S
C1918 C1919 1.334 . S
C1919 H1896 0.950 . S
C1919 C1918 1.334 . S
C1919 C1920 1.287 . S
C1920 C1919 1.287 . S
C1920 C1921 1.524 . S
C1920 H1939 0.913 . S
C1921 H1897 0.987 . S
C1921 C1920 1.524 . S
C1921 C1922 1.415 . S
C1922 H1898 0.950 1_655 S
C1922 C1917 1.363 . S
C1922 C1921 1.415 . S
C1923 H1899 0.951 . S
C1923 C1924 1.366 . S
C1923 C1925 1.388 . S
C1924 C1923 1.366 . S
C1924 C1928 1.385 . S
C1925 H1900 0.951 . S
C1925 C1923 1.388 . S
C1925 C1926 1.366 . S
C1926 C1925 1.366 . S
C1926 C1927 1.414 1_545 S
C1926 C1929 1.499 . S
C1927 H1901 0.950 . S
C1927 C1926 1.414 1_565 S
C1927 C1928 1.374 1_565 S
C1928 H1902 0.950 1_545 S
C1928 C1924 1.385 . S
C1928 C1927 1.374 1_545 S
C1929 C1926 1.499 . S
C1929 C1930 1.373 1_545 S
C1929 C1931 1.389 . S
C1930 H1903 0.950 . S
C1930 C1916 1.377 1_455 S
C1930 C1929 1.373 1_565 S
C1931 C1915 1.377 1_455 S
C1931 C1929 1.389 . S
C1931 C1932 1.524 . S
C1932 C1931 1.524 . S
C1932 C1933 1.397 . S
C1932 C1937 1.363 . S
C1933 H1904 0.950 . S
C1933 C1932 1.397 . S
C1933 C1934 1.334 . S
C1934 H1905 0.950 . S
C1934 C1933 1.334 . S
C1934 C1935 1.287 . S
C1935 C1934 1.287 . S
C1935 C1936 1.524 . S
C1935 H1938 0.999 . S
C1936 H1906 0.987 . S
C1936 C1935 1.524 . S
C1936 C1937 1.415 . S
C1937 H1907 0.950 1_455 S
C1937 C1932 1.363 . S
C1937 C1936 1.415 . S
H1938 C1935 0.999 . S
H1939 C1920 0.913 . S
H1940 C1958 0.951 . S
H1941 C1960 0.951 . S
H1942 C1962 0.950 . S
H1943 C1963 0.950 . S
H1944 C1965 0.950 . S
H1945 C1968 0.950 1_565 S
H1946 C1969 0.950 . S
H1947 C1971 0.950 . S
H1948 C1972 0.950 . S
H1949 C1973 0.951 . S
H1950 C1975 0.951 . S
H1951 C1977 0.950 . S
H1952 C1978 0.950 . S
H1953 C1980 0.950 . S
H1954 C1983 0.950 1_545 S
H1955 C1984 0.950 . S
H1956 C1986 0.950 . S
H1957 C1987 0.950 . S
C1958 H1940 0.951 . S
C1958 C1959 1.366 1_545 S
C1958 C1960 1.388 . S
C1959 C1958 1.366 1_565 S
C1959 C1963 1.385 . S
C1960 H1941 0.951 . S
C1960 C1958 1.388 . S
C1960 C1961 1.366 1_545 S
C1961 C1960 1.366 1_565 S
C1961 C1962 1.414 . S
C1961 C1964 1.499 . S
C1962 H1942 0.950 . S
C1962 C1961 1.414 . S
C1962 C1963 1.374 . S
C1963 H1943 0.950 . S
C1963 C1959 1.385 . S
C1963 C1962 1.374 . S
C1964 C1961 1.499 . S
C1964 C1965 1.373 . S
C1964 C1966 1.389 1_565 S
C1965 H1944 0.950 . S
C1965 C1964 1.373 . S
C1965 C1981 1.377 1_455 S
C1966 C1964 1.389 1_545 S
C1966 C1967 1.524 . S
C1966 C1980 1.377 1_455 S
C1967 C1966 1.524 . S
C1967 C1968 1.397 . S
C1967 C1972 1.363 . S
C1968 H1945 0.950 1_545 S
C1968 C1967 1.397 . S
C1968 C1969 1.334 . S
C1969 H1946 0.950 . S
C1969 C1968 1.334 . S
C1969 C1970 1.287 . S
C1970 C1969 1.287 . S
C1970 C1971 1.524 . S
C1970 H1989 0.913 . S
C1971 H1947 0.950 . S
C1971 C1970 1.524 . S
C1971 C1972 1.415 . S
C1972 H1948 0.950 . S
C1972 C1967 1.363 . S
C1972 C1971 1.415 . S
C1973 H1949 0.951 . S
C1973 C1974 1.366 1_565 S
C1973 C1975 1.388 . S
C1974 C1973 1.366 1_545 S
C1974 C1978 1.385 . S
C1975 H1950 0.951 . S
C1975 C1973 1.388 . S
C1975 C1976 1.366 1_565 S
C1976 C1975 1.366 1_545 S
C1976 C1977 1.414 . S
C1976 C1979 1.499 . S
C1977 H1951 0.950 . S
C1977 C1976 1.414 . S
C1977 C1978 1.374 . S
C1978 H1952 0.950 . S
C1978 C1974 1.385 . S
C1978 C1977 1.374 . S
C1979 C1976 1.499 . S
C1979 C1980 1.373 . S
C1979 C1981 1.389 1_545 S
C1980 H1953 0.950 . S
C1980 C1966 1.377 1_655 S
C1980 C1979 1.373 . S
C1981 C1965 1.377 1_655 S
C1981 C1979 1.389 1_565 S
C1981 C1982 1.524 . S
C1982 C1981 1.524 . S
C1982 C1983 1.397 . S
C1982 C1987 1.363 . S
C1983 H1954 0.950 1_565 S
C1983 C1982 1.397 . S
C1983 C1984 1.334 . S
C1984 H1955 0.950 . S
C1984 C1983 1.334 . S
C1984 C1985 1.287 . S
C1985 C1984 1.287 . S
C1985 C1986 1.524 . S
C1985 H1988 0.999 . S
C1986 H1956 0.950 . S
C1986 C1985 1.524 . S
C1986 C1987 1.415 . S
C1987 H1957 0.950 . S
C1987 C1982 1.363 . S
C1987 C1986 1.415 . S
H1988 C1985 0.999 . S
H1989 C1970 0.913 . S
H1990 C2008 0.951 . S
H1991 C2010 0.951 . S
H1992 C2012 0.950 1_545 S
H1993 C2013 0.950 . S
H1994 C2015 0.950 . S
H1995 C2018 0.950 . S
H1996 C2019 0.950 . S
H1997 C2021 0.950 . S
H1998 C2022 0.950 1_455 S
H1999 C2023 0.951 . S
H2000 C2025 0.951 . S
H2001 C2027 0.950 1_565 S
H2002 C2028 0.950 . S
H2003 C2030 0.950 . S
H2004 C2033 0.950 . S
H2005 C2034 0.950 . S
H2006 C2036 0.950 . S
H2007 C2037 0.950 1_655 S
C2008 H1990 0.951 . S
C2008 C2009 1.366 . S
C2008 C2010 1.388 . S
C2009 C2008 1.366 . S
C2009 C2013 1.385 . S
C2010 H1991 0.951 . S
C2010 C2008 1.388 . S
C2010 C2011 1.366 . S
C2011 C2010 1.366 . S
C2011 C2012 1.414 . S
C2011 C2014 1.499 . S
C2012 H1992 0.950 1_565 S
C2012 C2011 1.414 . S
C2012 C2013 1.374 . S
C2013 H1993 0.950 . S
C2013 C2009 1.385 . S
C2013 C2012 1.374 . S
C2014 C2011 1.499 . S
C2014 C2015 1.373 1_565 S
C2014 C2016 1.389 . S
C2015 H1994 0.950 . S
C2015 C2014 1.373 1_545 S
C2015 C2031 1.377 1_655 S
C2016 C2014 1.389 . S
C2016 C2017 1.524 . S
C2016 C2030 1.377 1_655 S
C2017 C2016 1.524 . S
C2017 C2018 1.397 . S
C2017 C2022 1.363 . S
C2018 H1995 0.950 . S
C2018 C2017 1.397 . S
C2018 C2019 1.334 . S
C2019 H1996 0.950 . S
C2019 C2018 1.334 . S
C2019 C2020 1.287 . S
C2020 C2019 1.287 . S
C2020 C2021 1.524 . S
C2020 H2039 0.913 . S
C2021 H1997 0.950 . S
C2021 C2020 1.524 . S
C2021 C2022 1.415 . S
C2022 H1998 0.950 1_655 S
C2022 C2017 1.363 . S
C2022 C2021 1.415 . S
C2023 H1999 0.951 . S
C2023 C2024 1.366 . S
C2023 C2025 1.388 . S
C2024 C2023 1.366 . S
C2024 C2028 1.385 . S
C2025 H2000 0.951 . S
C2025 C2023 1.388 . S
C2025 C2026 1.366 . S
C2026 C2025 1.366 . S
C2026 C2027 1.414 . S
C2026 C2029 1.499 . S
C2027 H2001 0.950 1_545 S
C2027 C2026 1.414 . S
C2027 C2028 1.374 . S
C2028 H2002 0.950 . S
C2028 C2024 1.385 . S
C2028 C2027 1.374 . S
C2029 C2026 1.499 . S
C2029 C2030 1.373 1_545 S
C2029 C2031 1.389 . S
C2030 H2003 0.950 . S
C2030 C2016 1.377 1_455 S
C2030 C2029 1.373 1_565 S
C2031 C2015 1.377 1_455 S
C2031 C2029 1.389 . S
C2031 C2032 1.524 . S
C2032 C2031 1.524 . S
C2032 C2033 1.397 . S
C2032 C2037 1.363 . S
C2033 H2004 0.950 . S
C2033 C2032 1.397 . S
C2033 C2034 1.334 . S
C2034 H2005 0.950 . S
C2034 C2033 1.334 . S
C2034 C2035 1.287 . S
C2035 C2034 1.287 . S
C2035 C2036 1.524 . S
C2035 H2038 0.999 . S
C2036 H2006 0.950 . S
C2036 C2035 1.524 . S
C2036 C2037 1.415 . S
C2037 H2007 0.950 1_455 S
C2037 C2032 1.363 . S
C2037 C2036 1.415 . S
H2038 C2035 0.999 . S
H2039 C2020 0.913 . S
H2040 C2058 0.951 . S
H2041 C2060 0.951 . S
H2042 C2062 0.950 . S
H2043 C2063 0.950 . S
H2044 C2065 0.950 . S
H2045 C2068 0.950 . S
H2046 C2069 0.950 . S
H2047 C2071 0.950 . S
H2048 C2072 0.950 . S
H2049 C2073 0.951 . S
H2050 C2075 0.951 . S
H2051 C2077 0.950 . S
H2052 C2078 0.950 . S
H2053 C2080 0.950 . S
H2054 C2083 0.950 . S
H2055 C2084 0.950 . S
H2056 C2086 0.950 . S
H2057 C2087 0.950 . S
C2058 H2040 0.951 . S
C2058 C2059 1.366 . S
C2058 C2060 1.388 . S
C2059 C2058 1.366 . S
C2059 C2063 1.385 . S
C2060 H2041 0.951 . S
C2060 C2058 1.388 . S
C2060 C2061 1.366 . S
C2061 C2060 1.366 . S
C2061 C2062 1.414 . S
C2061 C2064 1.499 . S
C2062 H2042 0.950 . S
C2062 C2061 1.414 . S
C2062 C2063 1.374 . S
C2063 H2043 0.950 . S
C2063 C2059 1.385 . S
C2063 C2062 1.374 . S
C2064 C2061 1.499 . S
C2064 C2065 1.373 . S
C2064 C2066 1.389 . S
C2065 H2044 0.950 . S
C2065 C2064 1.373 . S
C2065 C2081 1.377 . S
C2066 C2064 1.389 . S
C2066 C2067 1.524 . S
C2066 C2080 1.377 . S
C2067 C2066 1.524 . S
C2067 C2068 1.397 . S
C2067 C2072 1.363 . S
C2068 H2045 0.950 . S
C2068 C2067 1.397 . S
C2068 C2069 1.334 . S
C2069 H2046 0.950 . S
C2069 C2068 1.334 . S
C2069 C2070 1.287 . S
C2070 C2069 1.287 . S
C2070 C2071 1.524 . S
C2070 H2089 0.913 . S
C2071 H2047 0.950 . S
C2071 C2070 1.524 . S
C2071 C2072 1.415 . S
C2072 H2048 0.950 . S
C2072 C2067 1.363 . S
C2072 C2071 1.415 . S
C2073 H2049 0.951 . S
C2073 C2074 1.366 . S
C2073 C2075 1.388 . S
C2074 C2073 1.366 . S
C2074 C2078 1.385 . S
C2075 H2050 0.951 . S
C2075 C2073 1.388 . S
C2075 C2076 1.366 . S
C2076 C2075 1.366 . S
C2076 C2077 1.414 . S
C2076 C2079 1.499 . S
C2077 H2051 0.950 . S
C2077 C2076 1.414 . S
C2077 C2078 1.374 . S
C2078 H2052 0.950 . S
C2078 C2074 1.385 . S
C2078 C2077 1.374 . S
C2079 C2076 1.499 . S
C2079 C2080 1.373 . S
C2079 C2081 1.389 . S
C2080 H2053 0.950 . S
C2080 C2066 1.377 . S
C2080 C2079 1.373 . S
C2081 C2065 1.377 . S
C2081 C2079 1.389 . S
C2081 C2082 1.524 . S
C2082 C2081 1.524 . S
C2082 C2083 1.397 . S
C2082 C2087 1.363 . S
C2083 H2054 0.950 . S
C2083 C2082 1.397 . S
C2083 C2084 1.334 . S
C2084 H2055 0.950 . S
C2084 C2083 1.334 . S
C2084 C2085 1.287 . S
C2085 C2084 1.287 . S
C2085 C2086 1.524 . S
C2085 H2088 0.999 . S
C2086 H2056 0.950 . S
C2086 C2085 1.524 . S
C2086 C2087 1.415 . S
C2087 H2057 0.950 . S
C2087 C2082 1.363 . S
C2087 C2086 1.415 . S
H2088 C2085 0.999 . S
H2089 C2070 0.913 . S
H2090 C2108 0.951 . S
H2091 C2110 0.951 . S
H2092 C2112 0.950 . S
H2093 C2113 0.950 . S
H2094 C2115 0.950 . S
H2095 C2118 0.950 . S
H2096 C2119 0.950 . S
H2097 C2121 0.950 . S
H2098 C2122 0.950 . S
H2099 C2123 0.951 . S
H2100 C2125 0.951 . S
H2101 C2127 0.950 . S
H2102 C2128 0.950 . S
H2103 C2130 0.950 . S
H2104 C2133 0.950 . S
H2105 C2134 0.950 . S
H2106 C2136 0.950 . S
H2107 C2137 0.950 . S
C2108 H2090 0.951 . S
C2108 C2109 1.366 . S
C2108 C2110 1.388 . S
C2109 C2108 1.366 . S
C2109 C2113 1.385 . S
C2110 H2091 0.951 . S
C2110 C2108 1.388 . S
C2110 C2111 1.366 . S
C2111 C2110 1.366 . S
C2111 C2112 1.414 . S
C2111 C2114 1.499 . S
C2112 H2092 0.950 . S
C2112 C2111 1.414 . S
C2112 C2113 1.374 . S
C2113 H2093 0.950 . S
C2113 C2109 1.385 . S
C2113 C2112 1.374 . S
C2114 C2111 1.499 . S
C2114 C2115 1.373 . S
C2114 C2116 1.389 . S
C2115 H2094 0.950 . S
C2115 C2114 1.373 . S
C2115 C2131 1.377 . S
C2116 C2114 1.389 . S
C2116 C2117 1.524 . S
C2116 C2130 1.377 . S
C2117 C2116 1.524 . S
C2117 C2118 1.397 . S
C2117 C2122 1.363 . S
C2118 H2095 0.950 . S
C2118 C2117 1.397 . S
C2118 C2119 1.334 . S
C2119 H2096 0.950 . S
C2119 C2118 1.334 . S
C2119 C2120 1.287 . S
C2120 C2119 1.287 . S
C2120 C2121 1.524 . S
C2120 H2139 0.913 . S
C2121 H2097 0.950 . S
C2121 C2120 1.524 . S
C2121 C2122 1.415 . S
C2122 H2098 0.950 . S
C2122 C2117 1.363 . S
C2122 C2121 1.415 . S
C2123 H2099 0.951 . S
C2123 C2124 1.366 . S
C2123 C2125 1.388 . S
C2124 C2123 1.366 . S
C2124 C2128 1.385 . S
C2125 H2100 0.951 . S
C2125 C2123 1.388 . S
C2125 C2126 1.366 . S
C2126 C2125 1.366 . S
C2126 C2127 1.414 . S
C2126 C2129 1.499 . S
C2127 H2101 0.950 . S
C2127 C2126 1.414 . S
C2127 C2128 1.374 . S
C2128 H2102 0.950 . S
C2128 C2124 1.385 . S
C2128 C2127 1.374 . S
C2129 C2126 1.499 . S
C2129 C2130 1.373 . S
C2129 C2131 1.389 . S
C2130 H2103 0.950 . S
C2130 C2116 1.377 . S
C2130 C2129 1.373 . S
C2131 C2115 1.377 . S
C2131 C2129 1.389 . S
C2131 C2132 1.524 . S
C2132 C2131 1.524 . S
C2132 C2133 1.397 . S
C2132 C2137 1.363 . S
C2133 H2104 0.950 . S
C2133 C2132 1.397 . S
C2133 C2134 1.334 . S
C2134 H2105 0.950 . S
C2134 C2133 1.334 . S
C2134 C2135 1.287 . S
C2135 C2134 1.287 . S
C2135 C2136 1.524 . S
C2135 H2138 0.999 . S
C2136 H2106 0.950 . S
C2136 C2135 1.524 . S
C2136 C2137 1.415 . S
C2137 H2107 0.950 . S
C2137 C2132 1.363 . S
C2137 C2136 1.415 . S
H2138 C2135 0.999 . S
H2139 C2120 0.913 . S
H2140 C2158 0.951 . S
H2141 C2160 0.951 . S
H2142 C2162 0.950 . S
H2143 C2163 0.950 . S
H2144 C2165 0.950 . S
H2145 C2168 0.950 . S
H2146 C2169 0.950 . S
H2147 C2171 0.950 . S
H2148 C2172 0.950 . S
H2149 C2173 0.951 . S
H2150 C2175 0.951 . S
H2151 C2177 0.950 . S
H2152 C2178 0.950 . S
H2153 C2180 0.950 . S
H2154 C2183 0.950 . S
H2155 C2184 0.950 . S
H2156 C2186 0.950 . S
H2157 C2187 0.950 . S
C2158 H2140 0.951 . S
C2158 C2159 1.366 . S
C2158 C2160 1.388 . S
C2159 C2158 1.366 . S
C2159 C2163 1.385 . S
C2160 H2141 0.951 . S
C2160 C2158 1.388 . S
C2160 C2161 1.366 . S
C2161 C2160 1.366 . S
C2161 C2162 1.414 . S
C2161 C2164 1.499 . S
C2162 H2142 0.950 . S
C2162 C2161 1.414 . S
C2162 C2163 1.374 . S
C2163 H2143 0.950 . S
C2163 C2159 1.385 . S
C2163 C2162 1.374 . S
C2164 C2161 1.499 . S
C2164 C2165 1.373 . S
C2164 C2166 1.389 . S
C2165 H2144 0.950 . S
C2165 C2164 1.373 . S
C2165 C2181 1.377 . S
C2166 C2164 1.389 . S
C2166 C2167 1.524 . S
C2166 C2180 1.377 . S
C2167 C2166 1.524 . S
C2167 C2168 1.397 . S
C2167 C2172 1.363 . S
C2168 H2145 0.950 . S
C2168 C2167 1.397 . S
C2168 C2169 1.334 . S
C2169 H2146 0.950 . S
C2169 C2168 1.334 . S
C2169 C2170 1.287 . S
C2170 C2169 1.287 . S
C2170 C2171 1.524 . S
C2170 H2189 0.913 . S
C2171 H2147 0.950 . S
C2171 C2170 1.524 . S
C2171 C2172 1.415 . S
C2172 H2148 0.950 . S
C2172 C2167 1.363 . S
C2172 C2171 1.415 . S
C2173 H2149 0.951 . S
C2173 C2174 1.366 . S
C2173 C2175 1.388 . S
C2174 C2173 1.366 . S
C2174 C2178 1.385 . S
C2175 H2150 0.951 . S
C2175 C2173 1.388 . S
C2175 C2176 1.366 . S
C2176 C2175 1.366 . S
C2176 C2177 1.414 . S
C2176 C2179 1.499 . S
C2177 H2151 0.950 . S
C2177 C2176 1.414 . S
C2177 C2178 1.374 . S
C2178 H2152 0.950 . S
C2178 C2174 1.385 . S
C2178 C2177 1.374 . S
C2179 C2176 1.499 . S
C2179 C2180 1.373 . S
C2179 C2181 1.389 . S
C2180 H2153 0.950 . S
C2180 C2166 1.377 . S
C2180 C2179 1.373 . S
C2181 C2165 1.377 . S
C2181 C2179 1.389 . S
C2181 C2182 1.524 . S
C2182 C2181 1.524 . S
C2182 C2183 1.397 . S
C2182 C2187 1.363 . S
C2183 H2154 0.950 . S
C2183 C2182 1.397 . S
C2183 C2184 1.334 . S
C2184 H2155 0.950 . S
C2184 C2183 1.334 . S
C2184 C2185 1.287 . S
C2185 C2184 1.287 . S
C2185 C2186 1.524 . S
C2185 H2188 0.999 . S
C2186 H2156 0.950 . S
C2186 C2185 1.524 . S
C2186 C2187 1.415 . S
C2187 H2157 0.950 . S
C2187 C2182 1.363 . S
C2187 C2186 1.415 . S
H2188 C2185 0.999 . S
H2189 C2170 0.913 . S
H2190 C2208 0.951 . S
H2191 C2210 0.951 . S
H2192 C2212 0.950 . S
H2193 C2213 0.950 . S
H2194 C2215 0.950 . S
H2195 C2218 0.950 . S
H2196 C2219 0.950 . S
H2197 C2221 0.950 . S
H2198 C2222 0.950 . S
H2199 C2223 0.951 . S
H2200 C2225 0.951 . S
H2201 C2227 0.950 . S
H2202 C2228 0.950 . S
H2203 C2230 0.950 . S
H2204 C2233 0.950 . S
H2205 C2234 0.950 . S
H2206 C2236 0.950 . S
H2207 C2237 0.950 . S
C2208 H2190 0.951 . S
C2208 C2209 1.366 . S
C2208 C2210 1.388 . S
C2209 C2208 1.366 . S
C2209 C2213 1.385 . S
C2210 H2191 0.951 . S
C2210 C2208 1.388 . S
C2210 C2211 1.366 . S
C2211 C2210 1.366 . S
C2211 C2212 1.414 . S
C2211 C2214 1.499 . S
C2212 H2192 0.950 . S
C2212 C2211 1.414 . S
C2212 C2213 1.374 . S
C2213 H2193 0.950 . S
C2213 C2209 1.385 . S
C2213 C2212 1.374 . S
C2214 C2211 1.499 . S
C2214 C2215 1.373 . S
C2214 C2216 1.389 . S
C2215 H2194 0.950 . S
C2215 C2214 1.373 . S
C2215 C2231 1.377 . S
C2216 C2214 1.389 . S
C2216 C2217 1.524 . S
C2216 C2230 1.377 . S
C2217 C2216 1.524 . S
C2217 C2218 1.397 . S
C2217 C2222 1.363 . S
C2218 H2195 0.950 . S
C2218 C2217 1.397 . S
C2218 C2219 1.334 . S
C2219 H2196 0.950 . S
C2219 C2218 1.334 . S
C2219 C2220 1.287 . S
C2220 C2219 1.287 . S
C2220 C2221 1.524 . S
C2220 H2239 0.913 . S
C2221 H2197 0.950 . S
C2221 C2220 1.524 . S
C2221 C2222 1.415 . S
C2222 H2198 0.950 . S
C2222 C2217 1.363 . S
C2222 C2221 1.415 . S
C2223 H2199 0.951 . S
C2223 C2224 1.366 . S
C2223 C2225 1.388 . S
C2224 C2223 1.366 . S
C2224 C2228 1.385 . S
C2225 H2200 0.951 . S
C2225 C2223 1.388 . S
C2225 C2226 1.366 . S
C2226 C2225 1.366 . S
C2226 C2227 1.414 . S
C2226 C2229 1.499 . S
C2227 H2201 0.950 . S
C2227 C2226 1.414 . S
C2227 C2228 1.374 . S
C2228 H2202 0.950 . S
C2228 C2224 1.385 . S
C2228 C2227 1.374 . S
C2229 C2226 1.499 . S
C2229 C2230 1.373 . S
C2229 C2231 1.389 . S
C2230 H2203 0.950 . S
C2230 C2216 1.377 . S
C2230 C2229 1.373 . S
C2231 C2215 1.377 . S
C2231 C2229 1.389 . S
C2231 C2232 1.524 . S
C2232 C2231 1.524 . S
C2232 C2233 1.397 . S
C2232 C2237 1.363 . S
C2233 H2204 0.950 . S
C2233 C2232 1.397 . S
C2233 C2234 1.334 . S
C2234 H2205 0.950 . S
C2234 C2233 1.334 . S
C2234 C2235 1.287 . S
C2235 C2234 1.287 . S
C2235 C2236 1.524 . S
C2235 H2238 0.999 . S
C2236 H2206 0.950 . S
C2236 C2235 1.524 . S
C2236 C2237 1.415 . S
C2237 H2207 0.950 . S
C2237 C2232 1.363 . S
C2237 C2236 1.415 . S
H2238 C2235 0.999 . S
H2239 C2220 0.913 . S
H2240 C2258 0.951 . S
H2241 C2260 0.951 . S
H2242 C2262 0.950 . S
H2243 C2263 0.950 . S
H2244 C2265 0.950 . S
H2245 C2268 0.950 . S
H2246 C2269 0.950 . S
H2247 C2271 0.950 . S
H2248 C2272 0.950 . S
H2249 C2273 0.951 . S
H2250 C2275 0.951 . S
H2251 C2277 0.950 . S
H2252 C2278 0.950 . S
H2253 C2280 0.950 . S
H2254 C2283 0.950 . S
H2255 C2284 0.950 . S
H2256 C2286 0.950 . S
H2257 C2287 0.950 . S
C2258 H2240 0.951 . S
C2258 C2259 1.366 . S
C2258 C2260 1.388 . S
C2259 C2258 1.366 . S
C2259 C2263 1.385 . S
C2260 H2241 0.951 . S
C2260 C2258 1.388 . S
C2260 C2261 1.366 . S
C2261 C2260 1.366 . S
C2261 C2262 1.414 . S
C2261 C2264 1.499 . S
C2262 H2242 0.950 . S
C2262 C2261 1.414 . S
C2262 C2263 1.374 . S
C2263 H2243 0.950 . S
C2263 C2259 1.385 . S
C2263 C2262 1.374 . S
C2264 C2261 1.499 . S
C2264 C2265 1.373 . S
C2264 C2266 1.389 . S
C2265 H2244 0.950 . S
C2265 C2264 1.373 . S
C2265 C2281 1.377 . S
C2266 C2264 1.389 . S
C2266 C2267 1.524 . S
C2266 C2280 1.377 . S
C2267 C2266 1.524 . S
C2267 C2268 1.397 . S
C2267 C2272 1.363 . S
C2268 H2245 0.950 . S
C2268 C2267 1.397 . S
C2268 C2269 1.334 . S
C2269 H2246 0.950 . S
C2269 C2268 1.334 . S
C2269 C2270 1.287 . S
C2270 C2269 1.287 . S
C2270 C2271 1.524 . S
C2270 H2289 0.913 . S
C2271 H2247 0.950 . S
C2271 C2270 1.524 . S
C2271 C2272 1.415 . S
C2272 H2248 0.950 . S
C2272 C2267 1.363 . S
C2272 C2271 1.415 . S
C2273 H2249 0.951 . S
C2273 C2274 1.366 . S
C2273 C2275 1.388 . S
C2274 C2273 1.366 . S
C2274 C2278 1.385 . S
C2275 H2250 0.951 . S
C2275 C2273 1.388 . S
C2275 C2276 1.366 . S
C2276 C2275 1.366 . S
C2276 C2277 1.414 . S
C2276 C2279 1.499 . S
C2277 H2251 0.950 . S
C2277 C2276 1.414 . S
C2277 C2278 1.374 . S
C2278 H2252 0.950 . S
C2278 C2274 1.385 . S
C2278 C2277 1.374 . S
C2279 C2276 1.499 . S
C2279 C2280 1.373 . S
C2279 C2281 1.389 . S
C2280 H2253 0.950 . S
C2280 C2266 1.377 . S
C2280 C2279 1.373 . S
C2281 C2265 1.377 . S
C2281 C2279 1.389 . S
C2281 C2282 1.524 . S
C2282 C2281 1.524 . S
C2282 C2283 1.397 . S
C2282 C2287 1.363 . S
C2283 H2254 0.950 . S
C2283 C2282 1.397 . S
C2283 C2284 1.334 . S
C2284 H2255 0.950 . S
C2284 C2283 1.334 . S
C2284 C2285 1.287 . S
C2285 C2284 1.287 . S
C2285 C2286 1.524 . S
C2285 H2288 0.999 . S
C2286 H2256 0.950 . S
C2286 C2285 1.524 . S
C2286 C2287 1.415 . S
C2287 H2257 0.950 . S
C2287 C2282 1.363 . S
C2287 C2286 1.415 . S
H2288 C2285 0.999 . S
H2289 C2270 0.913 . S
H2290 C2308 0.951 . S
H2291 C2310 0.951 . S
H2292 C2312 0.950 . S
H2293 C2313 0.950 . S
H2294 C2315 0.950 . S
H2295 C2318 0.950 . S
H2296 C2319 0.950 . S
H2297 C2321 0.950 . S
H2298 C2322 0.950 . S
H2299 C2323 0.951 . S
H2300 C2325 0.951 . S
H2301 C2327 0.950 . S
H2302 C2328 0.950 . S
H2303 C2330 0.950 . S
H2304 C2333 0.950 . S
H2305 C2334 0.950 . S
H2306 C2336 0.950 . S
H2307 C2337 0.950 . S
C2308 H2290 0.951 . S
C2308 C2309 1.366 . S
C2308 C2310 1.388 . S
C2309 C2308 1.366 . S
C2309 C2313 1.385 . S
C2310 H2291 0.951 . S
C2310 C2308 1.388 . S
C2310 C2311 1.366 . S
C2311 C2310 1.366 . S
C2311 C2312 1.414 . S
C2311 C2314 1.499 . S
C2312 H2292 0.950 . S
C2312 C2311 1.414 . S
C2312 C2313 1.374 . S
C2313 H2293 0.950 . S
C2313 C2309 1.385 . S
C2313 C2312 1.374 . S
C2314 C2311 1.499 . S
C2314 C2315 1.373 . S
C2314 C2316 1.389 . S
C2315 H2294 0.950 . S
C2315 C2314 1.373 . S
C2315 C2331 1.377 . S
C2316 C2314 1.389 . S
C2316 C2317 1.524 . S
C2316 C2330 1.377 . S
C2317 C2316 1.524 . S
C2317 C2318 1.397 . S
C2317 C2322 1.363 . S
C2318 H2295 0.950 . S
C2318 C2317 1.397 . S
C2318 C2319 1.334 . S
C2319 H2296 0.950 . S
C2319 C2318 1.334 . S
C2319 C2320 1.287 . S
C2320 C2319 1.287 . S
C2320 C2321 1.524 . S
C2320 H2339 0.913 . S
C2321 H2297 0.950 . S
C2321 C2320 1.524 . S
C2321 C2322 1.415 . S
C2322 H2298 0.950 . S
C2322 C2317 1.363 . S
C2322 C2321 1.415 . S
C2323 H2299 0.951 . S
C2323 C2324 1.366 . S
C2323 C2325 1.388 . S
C2324 C2323 1.366 . S
C2324 C2328 1.385 . S
C2325 H2300 0.951 . S
C2325 C2323 1.388 . S
C2325 C2326 1.366 . S
C2326 C2325 1.366 . S
C2326 C2327 1.414 . S
C2326 C2329 1.499 . S
C2327 H2301 0.950 . S
C2327 C2326 1.414 . S
C2327 C2328 1.374 . S
C2328 H2302 0.950 . S
C2328 C2324 1.385 . S
C2328 C2327 1.374 . S
C2329 C2326 1.499 . S
C2329 C2330 1.373 . S
C2329 C2331 1.389 . S
C2330 H2303 0.950 . S
C2330 C2316 1.377 . S
C2330 C2329 1.373 . S
C2331 C2315 1.377 . S
C2331 C2329 1.389 . S
C2331 C2332 1.524 . S
C2332 C2331 1.524 . S
C2332 C2333 1.397 . S
C2332 C2337 1.363 . S
C2333 H2304 0.950 . S
C2333 C2332 1.397 . S
C2333 C2334 1.334 . S
C2334 H2305 0.950 . S
C2334 C2333 1.334 . S
C2334 C2335 1.287 . S
C2335 C2334 1.287 . S
C2335 C2336 1.524 . S
C2335 H2338 0.999 . S
C2336 H2306 0.950 . S
C2336 C2335 1.524 . S
C2336 C2337 1.415 . S
C2337 H2307 0.950 . S
C2337 C2332 1.363 . S
C2337 C2336 1.415 . S
H2338 C2335 0.999 . S
H2339 C2320 0.913 . S
H2340 C2358 0.951 . S
H2341 C2360 0.951 . S
H2342 C2362 0.950 . S
H2343 C2363 0.950 . S
H2344 C2365 0.950 . S
H2345 C2368 0.950 . S
H2346 C2369 0.950 . S
H2347 C2371 0.950 . S
H2348 C2372 0.950 . S
H2349 C2373 0.951 . S
H2350 C2375 0.951 . S
H2351 C2377 0.950 . S
H2352 C2378 0.950 . S
H2353 C2380 0.950 . S
H2354 C2383 0.950 . S
H2355 C2384 0.950 . S
H2356 C2386 0.950 . S
H2357 C2387 0.950 . S
C2358 H2340 0.951 . S
C2358 C2359 1.366 . S
C2358 C2360 1.388 . S
C2359 C2358 1.366 . S
C2359 C2363 1.385 . S
C2360 H2341 0.951 . S
C2360 C2358 1.388 . S
C2360 C2361 1.366 . S
C2361 C2360 1.366 . S
C2361 C2362 1.414 . S
C2361 C2364 1.499 . S
C2362 H2342 0.950 . S
C2362 C2361 1.414 . S
C2362 C2363 1.374 . S
C2363 H2343 0.950 . S
C2363 C2359 1.385 . S
C2363 C2362 1.374 . S
C2364 C2361 1.499 . S
C2364 C2365 1.373 . S
C2364 C2366 1.389 . S
C2365 H2344 0.950 . S
C2365 C2364 1.373 . S
C2365 C2381 1.377 . S
C2366 C2364 1.389 . S
C2366 C2367 1.524 . S
C2366 C2380 1.377 . S
C2367 C2366 1.524 . S
C2367 C2368 1.397 . S
C2367 C2372 1.363 . S
C2368 H2345 0.950 . S
C2368 C2367 1.397 . S
C2368 C2369 1.334 . S
C2369 H2346 0.950 . S
C2369 C2368 1.334 . S
C2369 C2370 1.287 . S
C2370 C2369 1.287 . S
C2370 C2371 1.524 . S
C2370 H2389 0.913 . S
C2371 H2347 0.950 . S
C2371 C2370 1.524 . S
C2371 C2372 1.415 . S
C2372 H2348 0.950 . S
C2372 C2367 1.363 . S
C2372 C2371 1.415 . S
C2373 H2349 0.951 . S
C2373 C2374 1.366 . S
C2373 C2375 1.388 . S
C2374 C2373 1.366 . S
C2374 C2378 1.385 . S
C2375 H2350 0.951 . S
C2375 C2373 1.388 . S
C2375 C2376 1.366 . S
C2376 C2375 1.366 . S
C2376 C2377 1.414 . S
C2376 C2379 1.499 . S
C2377 H2351 0.950 . S
C2377 C2376 1.414 . S
C2377 C2378 1.374 . S
C2378 H2352 0.950 . S
C2378 C2374 1.385 . S
C2378 C2377 1.374 . S
C2379 C2376 1.499 . S
C2379 C2380 1.373 . S
C2379 C2381 1.389 . S
C2380 H2353 0.950 . S
C2380 C2366 1.377 . S
C2380 C2379 1.373 . S
C2381 C2365 1.377 . S
C2381 C2379 1.389 . S
C2381 C2382 1.524 . S
C2382 C2381 1.524 . S
C2382 C2383 1.397 . S
C2382 C2387 1.363 . S
C2383 H2354 0.950 . S
C2383 C2382 1.397 . S
C2383 C2384 1.334 . S
C2384 H2355 0.950 . S
C2384 C2383 1.334 . S
C2384 C2385 1.287 . S
C2385 C2384 1.287 . S
C2385 C2386 1.524 . S
C2385 H2388 0.999 . S
C2386 H2356 0.950 . S
C2386 C2385 1.524 . S
C2386 C2387 1.415 . S
C2387 H2357 0.950 . S
C2387 C2382 1.363 . S
C2387 C2386 1.415 . S
H2388 C2385 0.999 . S
H2389 C2370 0.913 . S
H2390 C2408 0.951 . S
H2391 C2410 0.951 . S
H2392 C2412 0.950 . S
H2393 C2413 0.950 . S
H2394 C2415 0.950 . S
H2395 C2418 0.950 . S
H2396 C2419 0.950 . S
H2397 C2421 0.950 . S
H2398 C2422 0.950 . S
H2399 C2423 0.951 . S
H2400 C2425 0.951 . S
H2401 C2427 0.950 . S
H2402 C2428 0.950 . S
H2403 C2430 0.950 . S
H2404 C2433 0.950 . S
H2405 C2434 0.950 . S
H2406 C2436 0.950 . S
H2407 C2437 0.950 . S
C2408 H2390 0.951 . S
C2408 C2409 1.366 . S
C2408 C2410 1.388 . S
C2409 C2408 1.366 . S
C2409 C2413 1.385 . S
C2410 H2391 0.951 . S
C2410 C2408 1.388 . S
C2410 C2411 1.366 . S
C2411 C2410 1.366 . S
C2411 C2412 1.414 . S
C2411 C2414 1.499 . S
C2412 H2392 0.950 . S
C2412 C2411 1.414 . S
C2412 C2413 1.374 . S
C2413 H2393 0.950 . S
C2413 C2409 1.385 . S
C2413 C2412 1.374 . S
C2414 C2411 1.499 . S
C2414 C2415 1.373 . S
C2414 C2416 1.389 . S
C2415 H2394 0.950 . S
C2415 C2414 1.373 . S
C2415 C2431 1.377 . S
C2416 C2414 1.389 . S
C2416 C2417 1.524 . S
C2416 C2430 1.377 . S
C2417 C2416 1.524 . S
C2417 C2418 1.397 . S
C2417 C2422 1.363 . S
C2418 H2395 0.950 . S
C2418 C2417 1.397 . S
C2418 C2419 1.334 . S
C2419 H2396 0.950 . S
C2419 C2418 1.334 . S
C2419 C2420 1.287 . S
C2420 C2419 1.287 . S
C2420 C2421 1.524 . S
C2420 H2439 0.913 . S
C2421 H2397 0.950 . S
C2421 C2420 1.524 . S
C2421 C2422 1.415 . S
C2422 H2398 0.950 . S
C2422 C2417 1.363 . S
C2422 C2421 1.415 . S
C2423 H2399 0.951 . S
C2423 C2424 1.366 . S
C2423 C2425 1.388 . S
C2424 C2423 1.366 . S
C2424 C2428 1.385 . S
C2425 H2400 0.951 . S
C2425 C2423 1.388 . S
C2425 C2426 1.366 . S
C2426 C2425 1.366 . S
C2426 C2427 1.414 . S
C2426 C2429 1.499 . S
C2427 H2401 0.950 . S
C2427 C2426 1.414 . S
C2427 C2428 1.374 . S
C2428 H2402 0.950 . S
C2428 C2424 1.385 . S
C2428 C2427 1.374 . S
C2429 C2426 1.499 . S
C2429 C2430 1.373 . S
C2429 C2431 1.389 . S
C2430 H2403 0.950 . S
C2430 C2416 1.377 . S
C2430 C2429 1.373 . S
C2431 C2415 1.377 . S
C2431 C2429 1.389 . S
C2431 C2432 1.524 . S
C2432 C2431 1.524 . S
C2432 C2433 1.397 . S
C2432 C2437 1.363 . S
C2433 H2404 0.950 . S
C2433 C2432 1.397 . S
C2433 C2434 1.334 . S
C2434 H2405 0.950 . S
C2434 C2433 1.334 . S
C2434 C2435 1.287 . S
C2435 C2434 1.287 . S
C2435 C2436 1.524 . S
C2435 H2438 0.999 . S
C2436 H2406 0.950 . S
C2436 C2435 1.524 . S
C2436 C2437 1.415 . S
C2437 H2407 0.950 . S
C2437 C2432 1.363 . S
C2437 C2436 1.415 . S
H2438 C2435 0.999 . S
H2439 C2420 0.913 . S
H2440 C2458 0.951 . S
H2441 C2460 0.951 . S
H2442 C2462 0.950 . S
H2443 C2463 0.950 . S
H2444 C2465 0.950 . S
H2445 C2468 0.950 . S
H2446 C2469 0.950 . S
H2447 C2471 0.950 . S
H2448 C2472 0.950 . S
H2449 C2473 0.951 . S
H2450 C2475 0.951 . S
H2451 C2477 0.950 . S
H2452 C2478 0.950 . S
H2453 C2480 0.950 . S
H2454 C2483 0.950 . S
H2455 C2484 0.950 . S
H2456 C2486 0.950 . S
H2457 C2487 0.950 . S
C2458 H2440 0.951 . S
C2458 C2459 1.366 . S
C2458 C2460 1.388 . S
C2459 C2458 1.366 . S
C2459 C2463 1.385 . S
C2460 H2441 0.951 . S
C2460 C2458 1.388 . S
C2460 C2461 1.366 . S
C2461 C2460 1.366 . S
C2461 C2462 1.414 . S
C2461 C2464 1.499 . S
C2462 H2442 0.950 . S
C2462 C2461 1.414 . S
C2462 C2463 1.374 . S
C2463 H2443 0.950 . S
C2463 C2459 1.385 . S
C2463 C2462 1.374 . S
C2464 C2461 1.499 . S
C2464 C2465 1.373 . S
C2464 C2466 1.389 . S
C2465 H2444 0.950 . S
C2465 C2464 1.373 . S
C2465 C2481 1.377 . S
C2466 C2464 1.389 . S
C2466 C2467 1.524 . S
C2466 C2480 1.377 . S
C2467 C2466 1.524 . S
C2467 C2468 1.397 . S
C2467 C2472 1.363 . S
C2468 H2445 0.950 . S
C2468 C2467 1.397 . S
C2468 C2469 1.334 . S
C2469 H2446 0.950 . S
C2469 C2468 1.334 . S
C2469 C2470 1.287 . S
C2470 C2469 1.287 . S
C2470 C2471 1.524 . S
C2470 H2489 0.913 . S
C2471 H2447 0.950 . S
C2471 C2470 1.524 . S
C2471 C2472 1.415 . S
C2472 H2448 0.950 . S
C2472 C2467 1.363 . S
C2472 C2471 1.415 . S
C2473 H2449 0.951 . S
C2473 C2474 1.366 . S
C2473 C2475 1.388 . S
C2474 C2473 1.366 . S
C2474 C2478 1.385 . S
C2475 H2450 0.951 . S
C2475 C2473 1.388 . S
C2475 C2476 1.366 . S
C2476 C2475 1.366 . S
C2476 C2477 1.414 . S
C2476 C2479 1.499 . S
C2477 H2451 0.950 . S
C2477 C2476 1.414 . S
C2477 C2478 1.374 . S
C2478 H2452 0.950 . S
C2478 C2474 1.385 . S
C2478 C2477 1.374 . S
C2479 C2476 1.499 . S
C2479 C2480 1.373 . S
C2479 C2481 1.389 . S
C2480 H2453 0.950 . S
C2480 C2466 1.377 . S
C2480 C2479 1.373 . S
C2481 C2465 1.377 . S
C2481 C2479 1.389 . S
C2481 C2482 1.524 . S
C2482 C2481 1.524 . S
C2482 C2483 1.397 . S
C2482 C2487 1.363 . S
C2483 H2454 0.950 . S
C2483 C2482 1.397 . S
C2483 C2484 1.334 . S
C2484 H2455 0.950 . S
C2484 C2483 1.334 . S
C2484 C2485 1.287 . S
C2485 C2484 1.287 . S
C2485 C2486 1.524 . S
C2485 H2488 0.999 . S
C2486 H2456 0.950 . S
C2486 C2485 1.524 . S
C2486 C2487 1.415 . S
C2487 H2457 0.950 . S
C2487 C2482 1.363 . S
C2487 C2486 1.415 . S
H2488 C2485 0.999 . S
H2489 C2470 0.913 . S
H2490 C2508 0.951 . S
H2491 C2510 0.951 . S
H2492 C2512 0.950 . S
H2493 C2513 0.950 . S
H2494 C2515 0.950 . S
H2495 C2518 0.950 . S
H2496 C2519 0.950 . S
H2497 C2521 0.950 . S
H2498 C2522 0.950 . S
H2499 C2523 0.951 . S
H2500 C2525 0.951 . S
H2501 C2527 0.950 . S
H2502 C2528 0.950 . S
H2503 C2530 0.950 . S
H2504 C2533 0.950 . S
H2505 C2534 0.950 . S
H2506 C2536 0.950 . S
H2507 C2537 0.950 . S
C2508 H2490 0.951 . S
C2508 C2509 1.366 . S
C2508 C2510 1.388 . S
C2509 C2508 1.366 . S
C2509 C2513 1.385 . S
C2510 H2491 0.951 . S
C2510 C2508 1.388 . S
C2510 C2511 1.366 . S
C2511 C2510 1.366 . S
C2511 C2512 1.414 . S
C2511 C2514 1.499 . S
C2512 H2492 0.950 . S
C2512 C2511 1.414 . S
C2512 C2513 1.374 . S
C2513 H2493 0.950 . S
C2513 C2509 1.385 . S
C2513 C2512 1.374 . S
C2514 C2511 1.499 . S
C2514 C2515 1.373 . S
C2514 C2516 1.389 . S
C2515 H2494 0.950 . S
C2515 C2514 1.373 . S
C2515 C2531 1.377 . S
C2516 C2514 1.389 . S
C2516 C2517 1.524 . S
C2516 C2530 1.377 . S
C2517 C2516 1.524 . S
C2517 C2518 1.397 . S
C2517 C2522 1.363 . S
C2518 H2495 0.950 . S
C2518 C2517 1.397 . S
C2518 C2519 1.334 . S
C2519 H2496 0.950 . S
C2519 C2518 1.334 . S
C2519 C2520 1.287 . S
C2520 C2519 1.287 . S
C2520 C2521 1.524 . S
C2520 H2539 0.913 . S
C2521 H2497 0.950 . S
C2521 C2520 1.524 . S
C2521 C2522 1.415 . S
C2522 H2498 0.950 . S
C2522 C2517 1.363 . S
C2522 C2521 1.415 . S
C2523 H2499 0.951 . S
C2523 C2524 1.366 . S
C2523 C2525 1.388 . S
C2524 C2523 1.366 . S
C2524 C2528 1.385 . S
C2525 H2500 0.951 . S
C2525 C2523 1.388 . S
C2525 C2526 1.366 . S
C2526 C2525 1.366 . S
C2526 C2527 1.414 . S
C2526 C2529 1.499 . S
C2527 H2501 0.950 . S
C2527 C2526 1.414 . S
C2527 C2528 1.374 . S
C2528 H2502 0.950 . S
C2528 C2524 1.385 . S
C2528 C2527 1.374 . S
C2529 C2526 1.499 . S
C2529 C2530 1.373 . S
C2529 C2531 1.389 . S
C2530 H2503 0.950 . S
C2530 C2516 1.377 . S
C2530 C2529 1.373 . S
C2531 C2515 1.377 . S
C2531 C2529 1.389 . S
C2531 C2532 1.524 . S
C2532 C2531 1.524 . S
C2532 C2533 1.397 . S
C2532 C2537 1.363 . S
C2533 H2504 0.950 . S
C2533 C2532 1.397 . S
C2533 C2534 1.334 . S
C2534 H2505 0.950 . S
C2534 C2533 1.334 . S
C2534 C2535 1.287 . S
C2535 C2534 1.287 . S
C2535 C2536 1.524 . S
C2535 H2538 0.999 . S
C2536 H2506 0.950 . S
C2536 C2535 1.524 . S
C2536 C2537 1.415 . S
C2537 H2507 0.950 . S
C2537 C2532 1.363 . S
C2537 C2536 1.415 . S
H2538 C2535 0.999 . S
H2539 C2520 0.913 . S
H2540 C2558 0.951 . S
H2541 C2560 0.951 . S
H2542 C2562 0.950 . S
H2543 C2563 0.950 . S
H2544 C2565 0.950 . S
H2545 C2568 0.950 . S
H2546 C2569 0.950 . S
H2547 C2571 0.950 . S
H2548 C2572 0.950 . S
H2549 C2573 0.951 . S
H2550 C2575 0.951 . S
H2551 C2577 0.950 . S
H2552 C2578 0.950 . S
H2553 C2580 0.950 . S
H2554 C2583 0.950 . S
H2555 C2584 0.950 . S
H2556 C2586 0.950 . S
H2557 C2587 0.950 . S
C2558 H2540 0.951 . S
C2558 C2559 1.366 . S
C2558 C2560 1.388 . S
C2559 C2558 1.366 . S
C2559 C2563 1.385 . S
C2560 H2541 0.951 . S
C2560 C2558 1.388 . S
C2560 C2561 1.366 . S
C2561 C2560 1.366 . S
C2561 C2562 1.414 . S
C2561 C2564 1.499 . S
C2562 H2542 0.950 . S
C2562 C2561 1.414 . S
C2562 C2563 1.374 . S
C2563 H2543 0.950 . S
C2563 C2559 1.385 . S
C2563 C2562 1.374 . S
C2564 C2561 1.499 . S
C2564 C2565 1.373 . S
C2564 C2566 1.389 . S
C2565 H2544 0.950 . S
C2565 C2564 1.373 . S
C2565 C2581 1.377 . S
C2566 C2564 1.389 . S
C2566 C2567 1.524 . S
C2566 C2580 1.377 . S
C2567 C2566 1.524 . S
C2567 C2568 1.397 . S
C2567 C2572 1.363 . S
C2568 H2545 0.950 . S
C2568 C2567 1.397 . S
C2568 C2569 1.334 . S
C2569 H2546 0.950 . S
C2569 C2568 1.334 . S
C2569 C2570 1.287 . S
C2570 C2569 1.287 . S
C2570 C2571 1.524 . S
C2570 H2589 0.913 . S
C2571 H2547 0.950 . S
C2571 C2570 1.524 . S
C2571 C2572 1.415 . S
C2572 H2548 0.950 . S
C2572 C2567 1.363 . S
C2572 C2571 1.415 . S
C2573 H2549 0.951 . S
C2573 C2574 1.366 . S
C2573 C2575 1.388 . S
C2574 C2573 1.366 . S
C2574 C2578 1.385 . S
C2575 H2550 0.951 . S
C2575 C2573 1.388 . S
C2575 C2576 1.366 . S
C2576 C2575 1.366 . S
C2576 C2577 1.414 . S
C2576 C2579 1.499 . S
C2577 H2551 0.950 . S
C2577 C2576 1.414 . S
C2577 C2578 1.374 . S
C2578 H2552 0.950 . S
C2578 C2574 1.385 . S
C2578 C2577 1.374 . S
C2579 C2576 1.499 . S
C2579 C2580 1.373 . S
C2579 C2581 1.389 . S
C2580 H2553 0.950 . S
C2580 C2566 1.377 . S
C2580 C2579 1.373 . S
C2581 C2565 1.377 . S
C2581 C2579 1.389 . S
C2581 C2582 1.524 . S
C2582 C2581 1.524 . S
C2582 C2583 1.397 . S
C2582 C2587 1.363 . S
C2583 H2554 0.950 . S
C2583 C2582 1.397 . S
C2583 C2584 1.334 . S
C2584 H2555 0.950 . S
C2584 C2583 1.334 . S
C2584 C2585 1.287 . S
C2585 C2584 1.287 . S
C2585 C2586 1.524 . S
C2585 H2588 0.999 . S
C2586 H2556 0.950 . S
C2586 C2585 1.524 . S
C2586 C2587 1.415 . S
C2587 H2557 0.950 . S
C2587 C2582 1.363 . S
C2587 C2586 1.415 . S
H2588 C2585 0.999 . S
H2589 C2570 0.913 . S
H2590 C2608 0.951 . S
H2591 C2610 0.951 . S
H2592 C2612 0.950 . S
H2593 C2613 0.950 . S
H2594 C2615 0.950 . S
H2595 C2618 0.950 . S
H2596 C2619 0.950 . S
H2597 C2621 0.950 . S
H2598 C2622 0.950 . S
H2599 C2623 0.951 . S
H2600 C2625 0.951 . S
H2601 C2627 0.950 . S
H2602 C2628 0.950 . S
H2603 C2630 0.950 . S
H2604 C2633 0.950 . S
H2605 C2634 0.950 . S
H2606 C2636 0.950 . S
H2607 C2637 0.950 . S
C2608 H2590 0.951 . S
C2608 C2609 1.366 . S
C2608 C2610 1.388 . S
C2609 C2608 1.366 . S
C2609 C2613 1.385 . S
C2610 H2591 0.951 . S
C2610 C2608 1.388 . S
C2610 C2611 1.366 . S
C2611 C2610 1.366 . S
C2611 C2612 1.414 . S
C2611 C2614 1.499 . S
C2612 H2592 0.950 . S
C2612 C2611 1.414 . S
C2612 C2613 1.374 . S
C2613 H2593 0.950 . S
C2613 C2609 1.385 . S
C2613 C2612 1.374 . S
C2614 C2611 1.499 . S
C2614 C2615 1.373 . S
C2614 C2616 1.389 . S
C2615 H2594 0.950 . S
C2615 C2614 1.373 . S
C2615 C2631 1.377 . S
C2616 C2614 1.389 . S
C2616 C2617 1.524 . S
C2616 C2630 1.377 . S
C2617 C2616 1.524 . S
C2617 C2618 1.397 . S
C2617 C2622 1.363 . S
C2618 H2595 0.950 . S
C2618 C2617 1.397 . S
C2618 C2619 1.334 . S
C2619 H2596 0.950 . S
C2619 C2618 1.334 . S
C2619 C2620 1.287 . S
C2620 C2619 1.287 . S
C2620 C2621 1.524 . S
C2620 H2639 0.913 . S
C2621 H2597 0.950 . S
C2621 C2620 1.524 . S
C2621 C2622 1.415 . S
C2622 H2598 0.950 . S
C2622 C2617 1.363 . S
C2622 C2621 1.415 . S
C2623 H2599 0.951 . S
C2623 C2624 1.366 . S
C2623 C2625 1.388 . S
C2624 C2623 1.366 . S
C2624 C2628 1.385 . S
C2625 H2600 0.951 . S
C2625 C2623 1.388 . S
C2625 C2626 1.366 . S
C2626 C2625 1.366 . S
C2626 C2627 1.414 . S
C2626 C2629 1.499 . S
C2627 H2601 0.950 . S
C2627 C2626 1.414 . S
C2627 C2628 1.374 . S
C2628 H2602 0.950 . S
C2628 C2624 1.385 . S
C2628 C2627 1.374 . S
C2629 C2626 1.499 . S
C2629 C2630 1.373 . S
C2629 C2631 1.389 . S
C2630 H2603 0.950 . S
C2630 C2616 1.377 . S
C2630 C2629 1.373 . S
C2631 C2615 1.377 . S
C2631 C2629 1.389 . S
C2631 C2632 1.524 . S
C2632 C2631 1.524 . S
C2632 C2633 1.397 . S
C2632 C2637 1.363 . S
C2633 H2604 0.950 . S
C2633 C2632 1.397 . S
C2633 C2634 1.334 . S
C2634 H2605 0.950 . S
C2634 C2633 1.334 . S
C2634 C2635 1.287 . S
C2635 C2634 1.287 . S
C2635 C2636 1.524 . S
C2635 H2638 0.999 . S
C2636 H2606 0.950 . S
C2636 C2635 1.524 . S
C2636 C2637 1.415 . S
C2637 H2607 0.950 . S
C2637 C2632 1.363 . S
C2637 C2636 1.415 . S
H2638 C2635 0.999 . S
H2639 C2620 0.913 . S
H2640 C2658 0.951 . S
H2641 C2660 0.951 . S
H2642 C2662 0.950 . S
H2643 C2663 0.950 . S
H2644 C2665 0.950 . S
H2645 C2668 0.950 . S
H2646 C2669 0.950 . S
H2647 C2671 0.950 . S
H2648 C2672 0.950 . S
H2649 C2673 0.951 . S
H2650 C2675 0.951 . S
H2651 C2677 0.950 . S
H2652 C2678 0.950 . S
H2653 C2680 0.950 . S
H2654 C2683 0.950 . S
H2655 C2684 0.950 . S
H2656 C2686 0.950 . S
H2657 C2687 0.950 . S
C2658 H2640 0.951 . S
C2658 C2659 1.366 . S
C2658 C2660 1.388 . S
C2659 C2658 1.366 . S
C2659 C2663 1.385 . S
C2660 H2641 0.951 . S
C2660 C2658 1.388 . S
C2660 C2661 1.366 . S
C2661 C2660 1.366 . S
C2661 C2662 1.414 . S
C2661 C2664 1.499 1_565 S
C2662 H2642 0.950 . S
C2662 C2661 1.414 . S
C2662 C2663 1.374 . S
C2663 H2643 0.950 . S
C2663 C2659 1.385 . S
C2663 C2662 1.374 . S
C2664 C2661 1.499 1_545 S
C2664 C2665 1.373 . S
C2664 C2666 1.389 . S
C2665 H2644 0.950 . S
C2665 C2664 1.373 . S
C2665 C2681 1.377 . S
C2666 C2664 1.389 . S
C2666 C2667 1.524 . S
C2666 C2680 1.377 . S
C2667 C2666 1.524 . S
C2667 C2668 1.397 1_545 S
C2667 C2672 1.363 . S
C2668 H2645 0.950 . S
C2668 C2667 1.397 1_565 S
C2668 C2669 1.334 . S
C2669 H2646 0.950 . S
C2669 C2668 1.334 . S
C2669 C2670 1.287 . S
C2670 C2669 1.287 . S
C2670 C2671 1.524 1_565 S
C2670 H2689 0.913 . S
C2671 H2647 0.950 . S
C2671 C2670 1.524 1_545 S
C2671 C2672 1.415 . S
C2672 H2648 0.950 . S
C2672 C2667 1.363 . S
C2672 C2671 1.415 . S
C2673 H2649 0.951 . S
C2673 C2674 1.366 . S
C2673 C2675 1.388 . S
C2674 C2673 1.366 . S
C2674 C2678 1.385 . S
C2675 H2650 0.951 . S
C2675 C2673 1.388 . S
C2675 C2676 1.366 . S
C2676 C2675 1.366 . S
C2676 C2677 1.414 . S
C2676 C2679 1.499 . S
C2677 H2651 0.950 . S
C2677 C2676 1.414 . S
C2677 C2678 1.374 . S
C2678 H2652 0.950 . S
C2678 C2674 1.385 . S
C2678 C2677 1.374 . S
C2679 C2676 1.499 . S
C2679 C2680 1.373 . S
C2679 C2681 1.389 . S
C2680 H2653 0.950 . S
C2680 C2666 1.377 . S
C2680 C2679 1.373 . S
C2681 C2665 1.377 . S
C2681 C2679 1.389 . S
C2681 C2682 1.524 . S
C2682 C2681 1.524 . S
C2682 C2683 1.397 . S
C2682 C2687 1.363 . S
C2683 H2654 0.950 . S
C2683 C2682 1.397 . S
C2683 C2684 1.334 . S
C2684 H2655 0.950 . S
C2684 C2683 1.334 . S
C2684 C2685 1.287 . S
C2685 C2684 1.287 . S
C2685 C2686 1.524 . S
C2685 H2688 0.999 . S
C2686 H2656 0.950 . S
C2686 C2685 1.524 . S
C2686 C2687 1.415 . S
C2687 H2657 0.950 . S
C2687 C2682 1.363 . S
C2687 C2686 1.415 . S
H2688 C2685 0.999 . S
H2689 C2670 0.913 . S
H2690 C2708 0.951 . S
H2691 C2710 0.951 . S
H2692 C2712 0.950 . S
H2693 C2713 0.950 . S
H2694 C2715 0.950 . S
H2695 C2718 0.950 . S
H2696 C2719 0.950 . S
H2697 C2721 0.950 . S
H2698 C2722 0.950 . S
H2699 C2723 0.951 . S
H2700 C2725 0.951 . S
H2701 C2727 0.950 . S
H2702 C2728 0.950 . S
H2703 C2730 0.950 . S
H2704 C2733 0.945 1_545 S
H2705 C2734 0.950 . S
H2706 C2736 0.950 . S
H2707 C2737 0.950 . S
C2708 H2690 0.951 . S
C2708 C2709 1.366 . S
C2708 C2710 1.388 . S
C2709 C2708 1.366 . S
C2709 C2713 1.385 . S
C2710 H2691 0.951 . S
C2710 C2708 1.388 . S
C2710 C2711 1.366 . S
C2711 C2710 1.366 . S
C2711 C2712 1.414 . S
C2711 C2714 1.499 . S
C2712 H2692 0.950 . S
C2712 C2711 1.414 . S
C2712 C2713 1.374 . S
C2713 H2693 0.950 . S
C2713 C2709 1.385 . S
C2713 C2712 1.374 . S
C2714 C2711 1.499 . S
C2714 C2715 1.373 . S
C2714 C2716 1.389 . S
C2715 H2694 0.950 . S
C2715 C2714 1.373 . S
C2715 C2731 1.377 . S
C2716 C2714 1.389 . S
C2716 C2717 1.524 . S
C2716 C2730 1.377 . S
C2717 C2716 1.524 . S
C2717 C2718 1.397 . S
C2717 C2722 1.363 . S
C2718 H2695 0.950 . S
C2718 C2717 1.397 . S
C2718 C2719 1.334 . S
C2719 H2696 0.950 . S
C2719 C2718 1.334 . S
C2719 C2720 1.287 . S
C2720 C2719 1.287 . S
C2720 C2721 1.524 . S
C2720 H2739 0.913 . S
C2721 H2697 0.950 . S
C2721 C2720 1.524 . S
C2721 C2722 1.415 . S
C2722 H2698 0.950 . S
C2722 C2717 1.363 . S
C2722 C2721 1.415 . S
C2723 H2699 0.951 . S
C2723 C2724 1.366 . S
C2723 C2725 1.388 . S
C2724 C2723 1.366 . S
C2724 C2728 1.385 . S
C2725 H2700 0.951 . S
C2725 C2723 1.388 . S
C2725 C2726 1.366 . S
C2726 C2725 1.366 . S
C2726 C2727 1.414 . S
C2726 C2729 1.499 1_545 S
C2727 H2701 0.950 . S
C2727 C2726 1.414 . S
C2727 C2728 1.374 . S
C2728 H2702 0.950 . S
C2728 C2724 1.385 . S
C2728 C2727 1.374 . S
C2729 C2726 1.499 1_565 S
C2729 C2730 1.373 . S
C2729 C2731 1.389 . S
C2730 H2703 0.950 . S
C2730 C2716 1.377 . S
C2730 C2729 1.373 . S
C2731 C2715 1.377 . S
C2731 C2729 1.389 . S
C2731 C2732 1.524 . S
C2732 C2731 1.524 . S
C2732 C2733 1.409 . S
C2732 C2737 1.363 . S
C2733 H2704 0.945 1_565 S
C2733 C2732 1.409 . S
C2733 C2734 1.326 1_565 S
C2734 H2705 0.950 . S
C2734 C2733 1.326 1_545 S
C2734 C2735 1.287 . S
C2735 C2734 1.287 . S
C2735 C2736 1.524 1_545 S
C2735 H2738 0.999 . S
C2736 H2706 0.950 . S
C2736 C2735 1.524 1_565 S
C2736 C2737 1.415 . S
C2737 H2707 0.950 . S
C2737 C2732 1.363 . S
C2737 C2736 1.415 . S
H2738 C2735 0.999 . S
H2739 C2720 0.913 . S
H2740 C2758 0.951 . S
H2741 C2760 0.951 . S
H2742 C2762 0.950 . S
H2743 C2763 0.950 . S
H2744 C2765 0.950 . S
H2745 C2768 0.950 . S
H2746 C2769 0.950 . S
H2747 C2771 0.950 . S
H2748 C2772 0.950 . S
H2749 C2773 0.951 . S
H2750 C2775 0.951 . S
H2751 C2777 0.950 . S
H2752 C2778 0.950 . S
H2753 C2780 0.950 . S
H2754 C2783 0.950 . S
H2755 C2784 0.950 . S
H2756 C2786 0.950 . S
H2757 C2787 0.950 . S
C2758 H2740 0.951 . S
C2758 C2759 1.366 . S
C2758 C2760 1.388 . S
C2759 C2758 1.366 . S
C2759 C2763 1.385 . S
C2760 H2741 0.951 . S
C2760 C2758 1.388 . S
C2760 C2761 1.366 . S
C2761 C2760 1.366 . S
C2761 C2762 1.414 . S
C2761 C2764 1.499 1_545 S
C2762 H2742 0.950 . S
C2762 C2761 1.414 . S
C2762 C2763 1.374 . S
C2763 H2743 0.950 . S
C2763 C2759 1.385 . S
C2763 C2762 1.374 . S
C2764 C2761 1.499 1_565 S
C2764 C2765 1.373 . S
C2764 C2766 1.389 . S
C2765 H2744 0.950 . S
C2765 C2764 1.373 . S
C2765 C2781 1.377 . S
C2766 C2764 1.389 . S
C2766 C2767 1.524 . S
C2766 C2780 1.377 . S
C2767 C2766 1.524 . S
C2767 C2768 1.397 1_565 S
C2767 C2772 1.363 . S
C2768 H2745 0.950 . S
C2768 C2767 1.397 1_545 S
C2768 C2769 1.334 . S
C2769 H2746 0.950 . S
C2769 C2768 1.334 . S
C2769 C2770 1.287 . S
C2770 C2769 1.287 . S
C2770 C2771 1.524 1_545 S
C2770 H2789 0.913 . S
C2771 H2747 0.950 . S
C2771 C2770 1.524 1_565 S
C2771 C2772 1.415 . S
C2772 H2748 0.950 . S
C2772 C2767 1.363 . S
C2772 C2771 1.415 . S
C2773 H2749 0.951 . S
C2773 C2774 1.366 . S
C2773 C2775 1.388 . S
C2774 C2773 1.366 . S
C2774 C2778 1.385 . S
C2775 H2750 0.951 . S
C2775 C2773 1.388 . S
C2775 C2776 1.366 . S
C2776 C2775 1.366 . S
C2776 C2777 1.414 . S
C2776 C2779 1.499 . S
C2777 H2751 0.950 . S
C2777 C2776 1.414 . S
C2777 C2778 1.374 . S
C2778 H2752 0.950 . S
C2778 C2774 1.385 . S
C2778 C2777 1.374 . S
C2779 C2776 1.499 . S
C2779 C2780 1.373 . S
C2779 C2781 1.389 . S
C2780 H2753 0.950 . S
C2780 C2766 1.377 . S
C2780 C2779 1.373 . S
C2781 C2765 1.377 . S
C2781 C2779 1.389 . S
C2781 C2782 1.524 . S
C2782 C2781 1.524 . S
C2782 C2783 1.397 . S
C2782 C2787 1.363 . S
C2783 H2754 0.950 . S
C2783 C2782 1.397 . S
C2783 C2784 1.334 . S
C2784 H2755 0.950 . S
C2784 C2783 1.334 . S
C2784 C2785 1.287 . S
C2785 C2784 1.287 . S
C2785 C2786 1.524 . S
C2785 H2788 0.999 . S
C2786 H2756 0.950 . S
C2786 C2785 1.524 . S
C2786 C2787 1.415 . S
C2787 H2757 0.950 . S
C2787 C2782 1.363 . S
C2787 C2786 1.415 . S
H2788 C2785 0.999 . S
H2789 C2770 0.913 . S
H2790 C2808 0.951 . S
H2791 C2810 0.951 . S
H2792 C2812 0.950 . S
H2793 C2813 0.950 . S
H2794 C2815 0.950 . S
H2795 C2818 0.950 . S
H2796 C2819 0.950 . S
H2797 C2821 0.950 . S
H2798 C2822 0.950 . S
H2799 C2823 0.951 . S
H2800 C2825 0.951 . S
H2801 C2827 0.950 . S
H2802 C2828 0.950 . S
H2803 C2830 0.950 . S
H2804 C2833 0.950 . S
H2805 C2834 0.950 . S
H2806 C2836 0.950 . S
H2807 C2837 0.950 . S
C2808 H2790 0.951 . S
C2808 C2809 1.366 . S
C2808 C2810 1.388 . S
C2809 C2808 1.366 . S
C2809 C2813 1.385 . S
C2810 H2791 0.951 . S
C2810 C2808 1.388 . S
C2810 C2811 1.366 . S
C2811 C2810 1.366 . S
C2811 C2812 1.414 . S
C2811 C2814 1.499 1_565 S
C2812 H2792 0.950 . S
C2812 C2811 1.414 . S
C2812 C2813 1.374 . S
C2813 H2793 0.950 . S
C2813 C2809 1.385 . S
C2813 C2812 1.374 . S
C2814 C2811 1.499 1_545 S
C2814 C2815 1.373 . S
C2814 C2816 1.389 . S
C2815 H2794 0.950 . S
C2815 C2814 1.373 . S
C2815 C2831 1.377 . S
C2816 C2814 1.389 . S
C2816 C2817 1.524 . S
C2816 C2830 1.377 . S
C2817 C2816 1.524 . S
C2817 C2818 1.397 . S
C2817 C2822 1.363 . S
C2818 H2795 0.950 . S
C2818 C2817 1.397 . S
C2818 C2819 1.334 1_545 S
C2819 H2796 0.950 . S
C2819 C2818 1.334 1_565 S
C2819 C2820 1.287 . S
C2820 C2819 1.287 . S
C2820 C2821 1.524 1_565 S
C2820 H2839 0.913 . S
C2821 H2797 0.950 . S
C2821 C2820 1.524 1_545 S
C2821 C2822 1.415 . S
C2822 H2798 0.950 . S
C2822 C2817 1.363 . S
C2822 C2821 1.415 . S
C2823 H2799 0.951 . S
C2823 C2824 1.366 . S
C2823 C2825 1.388 . S
C2824 C2823 1.366 . S
C2824 C2828 1.385 . S
C2825 H2800 0.951 . S
C2825 C2823 1.388 . S
C2825 C2826 1.366 . S
C2826 C2825 1.366 . S
C2826 C2827 1.414 . S
C2826 C2829 1.499 . S
C2827 H2801 0.950 . S
C2827 C2826 1.414 . S
C2827 C2828 1.374 . S
C2828 H2802 0.950 . S
C2828 C2824 1.385 . S
C2828 C2827 1.374 . S
C2829 C2826 1.499 . S
C2829 C2830 1.373 . S
C2829 C2831 1.389 . S
C2830 H2803 0.950 . S
C2830 C2816 1.377 . S
C2830 C2829 1.373 . S
C2831 C2815 1.377 . S
C2831 C2829 1.389 . S
C2831 C2832 1.524 . S
C2832 C2831 1.524 . S
C2832 C2833 1.397 . S
C2832 C2837 1.363 . S
C2833 H2804 0.950 . S
C2833 C2832 1.397 . S
C2833 C2834 1.334 . S
C2834 H2805 0.950 . S
C2834 C2833 1.334 . S
C2834 C2835 1.287 . S
C2835 C2834 1.287 . S
C2835 C2836 1.524 . S
C2835 H2838 0.999 . S
C2836 H2806 0.950 . S
C2836 C2835 1.524 . S
C2836 C2837 1.415 . S
C2837 H2807 0.950 . S
C2837 C2832 1.363 . S
C2837 C2836 1.415 . S
H2838 C2835 0.999 . S
H2839 C2820 0.913 . S
H2840 C2858 0.951 . S
H2841 C2860 0.951 . S
H2842 C2862 0.950 . S
H2843 C2863 0.950 . S
H2844 C2865 0.950 . S
H2845 C2868 0.950 . S
H2846 C2869 0.950 . S
H2847 C2871 0.950 . S
H2848 C2872 0.950 . S
H2849 C2873 0.951 . S
H2850 C2875 0.951 . S
H2851 C2877 0.950 . S
H2852 C2878 0.950 . S
H2853 C2880 0.950 . S
H2854 C2883 0.950 . S
H2855 C2884 0.950 . S
H2856 C2886 0.950 . S
H2857 C2887 0.950 . S
C2858 H2840 0.951 . S
C2858 C2859 1.366 . S
C2858 C2860 1.388 . S
C2859 C2858 1.366 . S
C2859 C2863 1.385 . S
C2860 H2841 0.951 . S
C2860 C2858 1.388 . S
C2860 C2861 1.366 . S
C2861 C2860 1.366 . S
C2861 C2862 1.414 . S
C2861 C2864 1.499 . S
C2862 H2842 0.950 . S
C2862 C2861 1.414 . S
C2862 C2863 1.374 . S
C2863 H2843 0.950 . S
C2863 C2859 1.385 . S
C2863 C2862 1.374 . S
C2864 C2861 1.499 . S
C2864 C2865 1.373 . S
C2864 C2866 1.389 . S
C2865 H2844 0.950 . S
C2865 C2864 1.373 . S
C2865 C2881 1.377 . S
C2866 C2864 1.389 . S
C2866 C2867 1.524 . S
C2866 C2880 1.377 . S
C2867 C2866 1.524 . S
C2867 C2868 1.397 . S
C2867 C2872 1.363 . S
C2868 H2845 0.950 . S
C2868 C2867 1.397 . S
C2868 C2869 1.334 . S
C2869 H2846 0.950 . S
C2869 C2868 1.334 . S
C2869 C2870 1.287 . S
C2870 C2869 1.287 . S
C2870 C2871 1.524 . S
C2870 H2889 0.913 . S
C2871 H2847 0.950 . S
C2871 C2870 1.524 . S
C2871 C2872 1.415 . S
C2872 H2848 0.950 . S
C2872 C2867 1.363 . S
C2872 C2871 1.415 . S
C2873 H2849 0.951 . S
C2873 C2874 1.366 . S
C2873 C2875 1.388 . S
C2874 C2873 1.366 . S
C2874 C2878 1.385 . S
C2875 H2850 0.951 . S
C2875 C2873 1.388 . S
C2875 C2876 1.366 . S
C2876 C2875 1.366 . S
C2876 C2877 1.414 . S
C2876 C2879 1.499 1_545 S
C2877 H2851 0.950 . S
C2877 C2876 1.414 . S
C2877 C2878 1.374 . S
C2878 H2852 0.950 . S
C2878 C2874 1.385 . S
C2878 C2877 1.374 . S
C2879 C2876 1.499 1_565 S
C2879 C2880 1.373 . S
C2879 C2881 1.389 . S
C2880 H2853 0.950 . S
C2880 C2866 1.377 . S
C2880 C2879 1.373 . S
C2881 C2865 1.377 . S
C2881 C2879 1.389 . S
C2881 C2882 1.524 . S
C2882 C2881 1.524 . S
C2882 C2883 1.397 . S
C2882 C2887 1.363 . S
C2883 H2854 0.950 . S
C2883 C2882 1.397 . S
C2883 C2884 1.334 1_565 S
C2884 H2855 0.950 . S
C2884 C2883 1.334 1_545 S
C2884 C2885 1.287 . S
C2885 C2884 1.287 . S
C2885 C2886 1.524 1_545 S
C2885 H2888 0.999 . S
C2886 H2856 0.950 . S
C2886 C2885 1.524 1_565 S
C2886 C2887 1.415 . S
C2887 H2857 0.950 . S
C2887 C2882 1.363 . S
C2887 C2886 1.415 . S
H2888 C2885 0.999 . S
H2889 C2870 0.913 . S
H2890 C2908 0.951 . S
H2891 C2910 0.951 . S
H2892 C2912 0.950 . S
H2893 C2913 0.950 . S
H2894 C2915 0.950 . S
H2895 C2918 0.950 . S
H2896 C2919 0.950 . S
H2897 C2921 0.950 . S
H2898 C2922 0.950 . S
H2899 C2923 0.951 . S
H2900 C2925 0.951 . S
H2901 C2927 0.950 . S
H2902 C2928 0.950 . S
H2903 C2930 0.950 . S
H2904 C2933 0.950 . S
H2905 C2934 0.950 . S
H2906 C2936 0.950 . S
H2907 C2937 0.950 . S
C2908 H2890 0.951 . S
C2908 C2909 1.366 . S
C2908 C2910 1.388 . S
C2909 C2908 1.366 . S
C2909 C2913 1.385 . S
C2910 H2891 0.951 . S
C2910 C2908 1.388 . S
C2910 C2911 1.366 . S
C2911 C2910 1.366 . S
C2911 C2912 1.414 . S
C2911 C2914 1.499 . S
C2912 H2892 0.950 . S
C2912 C2911 1.414 . S
C2912 C2913 1.374 . S
C2913 H2893 0.950 . S
C2913 C2909 1.385 . S
C2913 C2912 1.374 . S
C2914 C2911 1.499 . S
C2914 C2915 1.373 . S
C2914 C2916 1.389 . S
C2915 H2894 0.950 . S
C2915 C2914 1.373 . S
C2915 C2931 1.377 . S
C2916 C2914 1.389 . S
C2916 C2917 1.524 . S
C2916 C2930 1.377 . S
C2917 C2916 1.524 . S
C2917 C2918 1.397 . S
C2917 C2922 1.363 . S
C2918 H2895 0.950 . S
C2918 C2917 1.397 . S
C2918 C2919 1.334 . S
C2919 H2896 0.950 . S
C2919 C2918 1.334 . S
C2919 C2920 1.287 . S
C2920 C2919 1.287 . S
C2920 C2921 1.524 . S
C2920 H2939 0.913 . S
C2921 H2897 0.950 . S
C2921 C2920 1.524 . S
C2921 C2922 1.415 . S
C2922 H2898 0.950 . S
C2922 C2917 1.363 . S
C2922 C2921 1.415 . S
C2923 H2899 0.951 . S
C2923 C2924 1.366 . S
C2923 C2925 1.388 . S
C2924 C2923 1.366 . S
C2924 C2928 1.385 . S
C2925 H2900 0.951 . S
C2925 C2923 1.388 . S
C2925 C2926 1.366 . S
C2926 C2925 1.366 . S
C2926 C2927 1.414 . S
C2926 C2929 1.499 1_565 S
C2927 H2901 0.950 . S
C2927 C2926 1.414 . S
C2927 C2928 1.374 . S
C2928 H2902 0.950 . S
C2928 C2924 1.385 . S
C2928 C2927 1.374 . S
C2929 C2926 1.499 1_545 S
C2929 C2930 1.373 . S
C2929 C2931 1.389 . S
C2930 H2903 0.950 . S
C2930 C2916 1.377 . S
C2930 C2929 1.373 . S
C2931 C2915 1.377 . S
C2931 C2929 1.389 . S
C2931 C2932 1.524 . S
C2932 C2931 1.524 . S
C2932 C2933 1.397 . S
C2932 C2937 1.363 . S
C2933 H2904 0.950 . S
C2933 C2932 1.397 . S
C2933 C2934 1.334 1_545 S
C2934 H2905 0.950 . S
C2934 C2933 1.334 1_565 S
C2934 C2935 1.287 1_565 S
C2935 C2934 1.287 1_545 S
C2935 C2936 1.524 . S
C2935 H2938 0.999 1_545 S
C2936 H2906 0.950 . S
C2936 C2935 1.524 . S
C2936 C2937 1.415 . S
C2937 H2907 0.950 . S
C2937 C2932 1.363 . S
C2937 C2936 1.415 . S
H2938 C2935 0.999 1_565 S
H2939 C2920 0.913 . S
H2940 C2958 0.951 . S
H2941 C2960 0.951 . S
H2942 C2962 0.950 . S
H2943 C2963 0.950 . S
H2944 C2965 0.950 . S
H2945 C2968 0.950 1_565 S
H2946 C2969 0.950 . S
H2947 C2971 0.950 . S
H2948 C2972 0.950 . S
H2949 C2973 0.951 . S
H2950 C2975 0.951 . S
H2951 C2977 0.950 . S
H2952 C2978 0.950 . S
H2953 C2980 0.950 . S
H2954 C2983 0.950 . S
H2955 C2984 0.950 . S
H2956 C2986 0.950 . S
H2957 C2987 0.950 . S
C2958 H2940 0.951 . S
C2958 C2959 1.366 . S
C2958 C2960 1.388 . S
C2959 C2958 1.366 . S
C2959 C2963 1.385 . S
C2960 H2941 0.951 . S
C2960 C2958 1.388 . S
C2960 C2961 1.366 . S
C2961 C2960 1.366 . S
C2961 C2962 1.414 . S
C2961 C2964 1.499 1_565 S
C2962 H2942 0.950 . S
C2962 C2961 1.414 . S
C2962 C2963 1.374 . S
C2963 H2943 0.950 . S
C2963 C2959 1.385 . S
C2963 C2962 1.374 . S
C2964 C2961 1.499 1_545 S
C2964 C2965 1.373 . S
C2964 C2966 1.389 . S
C2965 H2944 0.950 . S
C2965 C2964 1.373 . S
C2965 C2981 1.377 . S
C2966 C2964 1.389 . S
C2966 C2967 1.524 . S
C2966 C2980 1.377 . S
C2967 C2966 1.524 . S
C2967 C2968 1.397 . S
C2967 C2972 1.363 . S
C2968 H2945 0.950 1_545 S
C2968 C2967 1.397 . S
C2968 C2969 1.334 1_545 S
C2969 H2946 0.950 . S
C2969 C2968 1.334 1_565 S
C2969 C2970 1.290 . S
C2970 C2969 1.290 . S
C2970 C2971 1.517 1_565 S
C2970 H2989 0.918 . S
C2971 H2947 0.950 . S
C2971 C2970 1.517 1_545 S
C2971 C2972 1.415 . S
C2972 H2948 0.950 . S
C2972 C2967 1.363 . S
C2972 C2971 1.415 . S
C2973 H2949 0.951 . S
C2973 C2974 1.366 . S
C2973 C2975 1.388 . S
C2974 C2973 1.366 . S
C2974 C2978 1.385 . S
C2975 H2950 0.951 . S
C2975 C2973 1.388 . S
C2975 C2976 1.366 . S
C2976 C2975 1.366 . S
C2976 C2977 1.414 . S
C2976 C2979 1.499 . S
C2977 H2951 0.950 . S
C2977 C2976 1.414 . S
C2977 C2978 1.374 . S
C2978 H2952 0.950 . S
C2978 C2974 1.385 . S
C2978 C2977 1.374 . S
C2979 C2976 1.499 . S
C2979 C2980 1.373 . S
C2979 C2981 1.389 . S
C2980 H2953 0.950 . S
C2980 C2966 1.377 . S
C2980 C2979 1.373 . S
C2981 C2965 1.377 . S
C2981 C2979 1.389 . S
C2981 C2982 1.524 . S
C2982 C2981 1.524 . S
C2982 C2983 1.397 . S
C2982 C2987 1.363 . S
C2983 H2954 0.950 . S
C2983 C2982 1.397 . S
C2983 C2984 1.334 . S
C2984 H2955 0.950 . S
C2984 C2983 1.334 . S
C2984 C2985 1.287 . S
C2985 C2984 1.287 . S
C2985 C2986 1.524 . S
C2985 H2988 0.999 . S
C2986 H2956 0.950 . S
C2986 C2985 1.524 . S
C2986 C2987 1.415 . S
C2987 H2957 0.950 . S
C2987 C2982 1.363 . S
C2987 C2986 1.415 . S
H2988 C2985 0.999 . S
H2989 C2970 0.918 . S
H2990 C3008 0.951 . S
H2991 C3010 0.951 . S
H2992 C3012 0.950 . S
H2993 C3013 0.950 . S
H2994 C3015 0.950 . S
H2995 C3018 0.950 . S
H2996 C3019 0.950 . S
H2997 C3021 0.950 . S
H2998 C3022 0.950 . S
H2999 C3023 0.951 . S
H3000 C3025 0.951 . S
H3001 C3027 0.950 . S
H3002 C3028 0.950 . S
H3003 C3030 0.950 . S
H3004 C3033 0.950 . S
H3005 C3034 0.950 . S
H3006 C3036 0.950 . S
H3007 C3037 0.950 . S
C3008 H2990 0.951 . S
C3008 C3009 1.366 . S
C3008 C3010 1.388 . S
C3009 C3008 1.366 . S
C3009 C3013 1.385 . S
C3010 H2991 0.951 . S
C3010 C3008 1.388 . S
C3010 C3011 1.366 . S
C3011 C3010 1.366 . S
C3011 C3012 1.414 . S
C3011 C3014 1.499 . S
C3012 H2992 0.950 . S
C3012 C3011 1.414 . S
C3012 C3013 1.374 . S
C3013 H2993 0.950 . S
C3013 C3009 1.385 . S
C3013 C3012 1.374 . S
C3014 C3011 1.499 . S
C3014 C3015 1.373 . S
C3014 C3016 1.389 . S
C3015 H2994 0.950 . S
C3015 C3014 1.373 . S
C3015 C3031 1.377 . S
C3016 C3014 1.389 . S
C3016 C3017 1.524 . S
C3016 C3030 1.377 . S
C3017 C3016 1.524 . S
C3017 C3018 1.397 . S
C3017 C3022 1.363 . S
C3018 H2995 0.950 . S
C3018 C3017 1.397 . S
C3018 C3019 1.334 . S
C3019 H2996 0.950 . S
C3019 C3018 1.334 . S
C3019 C3020 1.287 . S
C3020 C3019 1.287 . S
C3020 C3021 1.524 . S
C3020 H3039 0.913 . S
C3021 H2997 0.950 . S
C3021 C3020 1.524 . S
C3021 C3022 1.415 . S
C3022 H2998 0.950 . S
C3022 C3017 1.363 . S
C3022 C3021 1.415 . S
C3023 H2999 0.951 . S
C3023 C3024 1.366 . S
C3023 C3025 1.388 . S
C3024 C3023 1.366 . S
C3024 C3028 1.385 . S
C3025 H3000 0.951 . S
C3025 C3023 1.388 . S
C3025 C3026 1.366 . S
C3026 C3025 1.366 . S
C3026 C3027 1.414 . S
C3026 C3029 1.499 1_545 S
C3027 H3001 0.950 . S
C3027 C3026 1.414 . S
C3027 C3028 1.374 . S
C3028 H3002 0.950 . S
C3028 C3024 1.385 . S
C3028 C3027 1.374 . S
C3029 C3026 1.499 1_565 S
C3029 C3030 1.373 . S
C3029 C3031 1.389 . S
C3030 H3003 0.950 . S
C3030 C3016 1.377 . S
C3030 C3029 1.373 . S
C3031 C3015 1.377 . S
C3031 C3029 1.389 . S
C3031 C3032 1.524 . S
C3032 C3031 1.524 . S
C3032 C3033 1.397 1_565 S
C3032 C3037 1.363 . S
C3033 H3004 0.950 . S
C3033 C3032 1.397 1_545 S
C3033 C3034 1.334 . S
C3034 H3005 0.950 . S
C3034 C3033 1.334 . S
C3034 C3035 1.287 . S
C3035 C3034 1.287 . S
C3035 C3036 1.524 1_545 S
C3035 H3038 0.999 . S
C3036 H3006 0.950 . S
C3036 C3035 1.524 1_565 S
C3036 C3037 1.415 . S
C3037 H3007 0.950 . S
C3037 C3032 1.363 . S
C3037 C3036 1.415 . S
H3038 C3035 0.999 . S
H3039 C3020 0.913 . S
C659 C15 1.896 . S
C674 C375 1.896 . S
C709 C55 1.895 . S
C724 C335 1.895 . S
C759 C455 1.896 . S
C774 C95 1.896 . S
C809 C135 1.896 . S
C824 C415 1.896 . S
C859 C526 1.896 . S
C874 C166 1.896 . S
C909 C486 1.897 . S
C924 C206 1.897 . S
C959 C606 1.896 . S
C974 C246 1.896 . S
C1009 C286 1.896 . S
C1024 C566 1.896 . S
C1059 C98 1.513 . S
C1074 C18 1.514 . S
C1109 C138 1.514 . S
C1124 C58 1.513 . S
C1159 C249 1.514 . S
C1174 C169 1.513 . S
C1209 C209 1.513 . S
C1224 C289 1.513 . S
C1259 C418 1.513 . S
C1274 C338 1.514 . S
C1309 C458 1.513 . S
C1324 C378 1.514 . S
C1359 C489 1.514 . S
C1374 C569 1.513 . S
C1409 C529 1.513 . S
C1424 C609 1.514 . S
C1459 C218 1.512 . S
C1474 C9 1.511 . S
C1509 C178 1.512 . S
C1524 C49 1.511 . S
C1559 C89 1.511 . S
C1574 C298 1.512 . S
C1609 C258 1.512 . S
C1624 C129 1.512 . S
C1659 C329 1.512 . S
C1674 C538 1.511 . S
C1709 C498 1.512 . S
C1724 C369 1.511 . S
C1759 C409 1.511 . S
C1774 C618 1.512 . S
C1809 C578 1.512 . S
C1824 C449 1.511 . S
C1859 C46 2.148 . S
C1874 C6 2.148 . S
C1909 C126 2.147 . S
C1924 C86 2.147 . S
C1959 C215 2.148 . S
C1974 C175 2.148 . S
C2009 C255 2.147 . S
C2024 C295 2.147 . S
C2059 C366 2.148 . S
C2074 C326 2.148 . S
C2109 C446 2.147 . S
C2124 C406 2.147 . S
C2159 C495 2.147 . S
C2174 C535 2.147 . S
C2209 C575 2.147 . S
C2224 C615 2.147 . S
C2259 C10 2.522 . S
C2274 C19 2.522 . S
C2309 C50 2.522 . S
C2324 C59 2.522 . S
C2359 C90 2.523 . S
C2374 C99 2.523 . S
C2409 C139 2.523 . S
C2424 C130 2.523 . S
C2459 C179 2.522 . S
C2474 C170 2.522 . S
C2509 C210 2.522 . S
C2524 C219 2.522 . S
C2559 C259 2.522 . S
C2574 C250 2.522 . S
C2609 C299 2.523 . S
C2624 C290 2.523 . S
C2659 C339 2.523 . S
C2674 C330 2.523 . S
C2709 C370 2.522 . S
C2724 C379 2.522 . S
C2759 C419 2.523 . S
C2774 C410 2.523 . S
C2809 C459 2.522 . S
C2824 C450 2.522 . S
C2859 C499 2.522 . S
C2874 C490 2.522 . S
C2909 C539 2.522 . S
C2924 C530 2.522 . S
C2959 C570 2.522 . S
C2974 C579 2.522 . S
C3009 C619 2.523 . S
C3024 C610 2.523 . S
