# Generated by pormake.
# Topology wjd, (6)-cn, num edge types: 1
# Building blocks:
#     Node 0, Type 0, BuildingBlock: GEDQOX_clean_sbu_0, # of connection points: 6
#     Node 1, Type 0, BuildingBlock: GEDQOX_clean_sbu_0, # of connection points: 6
#     Node 2, Type 0, BuildingBlock: GEDQOX_clean_sbu_0, # of connection points: 6
#     Node 3, Type 0, BuildingBlock: GEDQOX_clean_sbu_0, # of connection points: 6
#     Node 4, Type 0, BuildingBlock: GEDQOX_clean_sbu_0, # of connection points: 6
#     Node 5, Type 0, BuildingBlock: GEDQOX_clean_sbu_0, # of connection points: 6
#     Node 6, Type 0, BuildingBlock: GEDQOX_clean_sbu_0, # of connection points: 6
#     Node 7, Type 0, BuildingBlock: GEDQOX_clean_sbu_0, # of connection points: 6
#     Node 8, Type 0, BuildingBlock: GEDQOX_clean_sbu_0, # of connection points: 6
#     Node 9, Type 0, BuildingBlock: GEDQOX_clean_sbu_0, # of connection points: 6
#     Node 10, Type 0, BuildingBlock: GEDQOX_clean_sbu_0, # of connection points: 6
#     Node 11, Type 0, BuildingBlock: GEDQOX_clean_sbu_0, # of connection points: 6
#     Edge 12, Type (0, 0), BuildingBlock: KIFKEQ_clean_linker_1, # of connection points: 2
#     Edge 13, Type (0, 0), BuildingBlock: KIFKEQ_clean_linker_1, # of connection points: 2
#     Edge 14, Type (0, 0), BuildingBlock: KIFKEQ_clean_linker_1, # of connection points: 2
#     Edge 15, Type (0, 0), BuildingBlock: KIFKEQ_clean_linker_1, # of connection points: 2
#     Edge 16, Type (0, 0), BuildingBlock: KIFKEQ_clean_linker_1, # of connection points: 2
#     Edge 17, Type (0, 0), BuildingBlock: KIFKEQ_clean_linker_1, # of connection points: 2
#     Edge 18, Type (0, 0), BuildingBlock: KIFKEQ_clean_linker_1, # of connection points: 2
#     Edge 19, Type (0, 0), BuildingBlock: KIFKEQ_clean_linker_1, # of connection points: 2
#     Edge 20, Type (0, 0), BuildingBlock: KIFKEQ_clean_linker_1, # of connection points: 2
#     Edge 21, Type (0, 0), BuildingBlock: KIFKEQ_clean_linker_1, # of connection points: 2
#     Edge 22, Type (0, 0), BuildingBlock: KIFKEQ_clean_linker_1, # of connection points: 2
#     Edge 23, Type (0, 0), BuildingBlock: KIFKEQ_clean_linker_1, # of connection points: 2
#     Edge 24, Type (0, 0), BuildingBlock: KIFKEQ_clean_linker_1, # of connection points: 2
#     Edge 25, Type (0, 0), BuildingBlock: KIFKEQ_clean_linker_1, # of connection points: 2
#     Edge 26, Type (0, 0), BuildingBlock: KIFKEQ_clean_linker_1, # of connection points: 2
#     Edge 27, Type (0, 0), BuildingBlock: KIFKEQ_clean_linker_1, # of connection points: 2
#     Edge 28, Type (0, 0), BuildingBlock: KIFKEQ_clean_linker_1, # of connection points: 2
#     Edge 29, Type (0, 0), BuildingBlock: KIFKEQ_clean_linker_1, # of connection points: 2
#     Edge 30, Type (0, 0), BuildingBlock: KIFKEQ_clean_linker_1, # of connection points: 2
#     Edge 31, Type (0, 0), BuildingBlock: KIFKEQ_clean_linker_1, # of connection points: 2
#     Edge 32, Type (0, 0), BuildingBlock: KIFKEQ_clean_linker_1, # of connection points: 2
#     Edge 33, Type (0, 0), BuildingBlock: KIFKEQ_clean_linker_1, # of connection points: 2
#     Edge 34, Type (0, 0), BuildingBlock: KIFKEQ_clean_linker_1, # of connection points: 2
#     Edge 35, Type (0, 0), BuildingBlock: KIFKEQ_clean_linker_1, # of connection points: 2
#     Edge 36, Type (0, 0), BuildingBlock: KIFKEQ_clean_linker_1, # of connection points: 2
#     Edge 37, Type (0, 0), BuildingBlock: KIFKEQ_clean_linker_1, # of connection points: 2
#     Edge 38, Type (0, 0), BuildingBlock: KIFKEQ_clean_linker_1, # of connection points: 2
#     Edge 39, Type (0, 0), BuildingBlock: KIFKEQ_clean_linker_1, # of connection points: 2
#     Edge 40, Type (0, 0), BuildingBlock: KIFKEQ_clean_linker_1, # of connection points: 2
#     Edge 41, Type (0, 0), BuildingBlock: KIFKEQ_clean_linker_1, # of connection points: 2
#     Edge 42, Type (0, 0), BuildingBlock: KIFKEQ_clean_linker_1, # of connection points: 2
#     Edge 43, Type (0, 0), BuildingBlock: KIFKEQ_clean_linker_1, # of connection points: 2
#     Edge 44, Type (0, 0), BuildingBlock: KIFKEQ_clean_linker_1, # of connection points: 2
#     Edge 45, Type (0, 0), BuildingBlock: KIFKEQ_clean_linker_1, # of connection points: 2
#     Edge 46, Type (0, 0), BuildingBlock: KIFKEQ_clean_linker_1, # of connection points: 2
#     Edge 47, Type (0, 0), BuildingBlock: KIFKEQ_clean_linker_1, # of connection points: 2
# Relax obj value: 0.099
# Max RMSD: 0.218
# Mean RMSD: 0.218
data_MOF--net-wjd--node1-GEDQOX_clean_sbu_0--edge1-KIFKEQ_clean_linker_1
_symmetry_space_group_name_H-M    P1
_symmetry_Int_Tables_number       1
_symmetry_cell_setting            triclinic
loop_
_symmetry_equiv_pos_as_xyz
'x, y, z'
_cell_length_a     41.237738
_cell_length_b     41.211874
_cell_length_c     53.771175
_cell_angle_alpha  90.013908
_cell_angle_beta   89.930649
_cell_angle_gamma 120.06843
loop_
_atom_site_label
_atom_site_type_symbol
_atom_site_fract_x
_atom_site_fract_y
_atom_site_fract_z
_atom_type_partial_charge
Nd0 Nd 0.38041 0.11806 0.13927 0.0
Nd1 Nd 0.32862 0.15289 0.12904 0.0
C2 C 0.4367 0.10481 0.14599 0.0
C3 C 0.47839 0.12301 0.14752 0.0
C4 C 0.49464 0.10631 0.16176 0.0
C5 C 0.53323 0.11899 0.16018 0.0
C6 C 0.55684 0.14869 0.14413 0.0
C7 C 0.54063 0.16638 0.13065 0.0
C8 C 0.50203 0.15375 0.13232 0.0
C9 C 0.33762 0.09244 0.09708 0.0
C10 C 0.41781 0.209 0.12557 0.0
C11 C 0.28137 0.17261 0.11009 0.0
C12 C 0.25216 0.18148 0.11793 0.0
C13 C 0.23085 0.18679 0.09978 0.0
C14 C 0.20398 0.19655 0.10655 0.0
C15 C 0.19768 0.20131 0.13172 0.0
C16 C 0.21903 0.19567 0.14991 0.0
C17 C 0.246 0.18592 0.14308 0.0
C18 C 0.34762 0.16093 0.17924 0.0
C19 C 0.29131 0.06624 0.15089 0.0
O20 O 0.41766 0.10774 0.16465 0.0
O21 O 0.42308 0.10613 0.12429 0.0
O22 O 0.34477 0.07222 0.112 0.0
O23 O 0.35439 0.12686 0.10382 0.0
O24 O 0.42175 0.18215 0.13606 0.0
O25 O 0.38508 0.20253 0.11718 0.0
O26 O 0.27355 0.13773 0.11201 0.0
O27 O 0.31588 0.19657 0.11649 0.0
O28 O 0.32707 0.17293 0.16917 0.0
O29 O 0.3575 0.14623 0.16262 0.0
O30 O 0.28691 0.09151 0.13847 0.0
O31 O 0.32499 0.07128 0.15675 0.0
H32 H 0.4772 0.08247 0.17352 0.0
H33 H 0.54443 0.10504 0.17134 0.0
H34 H 0.55741 0.18907 0.11793 0.0
H35 H 0.49042 0.16716 0.12095 0.0
H36 H 0.23509 0.18352 0.08026 0.0
H37 H 0.18779 0.19991 0.09199 0.0
H38 H 0.21535 0.19936 0.16944 0.0
H39 H 0.26223 0.18214 0.15743 0.0
Nd40 Nd 0.8576 0.71863 0.41365 0.0
Nd41 Nd 0.77083 0.65906 0.40727 0.0
C42 C 0.92401 0.77041 0.43085 0.0
C43 C 0.96495 0.78911 0.42623 0.0
C44 C 0.98981 0.81024 0.44529 0.0
C45 C 0.02818 0.83334 0.44044 0.0
C46 C 0.04272 0.83599 0.41632 0.0
C47 C 1.01784 0.8134 0.39747 0.0
C48 C 0.9794 0.79029 0.40235 0.0
C49 C 0.84403 0.69488 0.36466 0.0
C50 C 0.79999 0.74906 0.39884 0.0
C51 C 0.70039 0.609 0.39536 0.0
C52 C 0.67239 0.56854 0.39947 0.0
C53 C 0.68196 0.54029 0.39753 0.0
C54 C 0.65466 0.50229 0.40076 0.0
C55 C 0.617 0.4914 0.40606 0.0
C56 C 0.60781 0.51996 0.4083 0.0
C57 C 0.63506 0.55787 0.40502 0.0
C58 C 0.79272 0.68633 0.4554 0.0
C59 C 0.83001 0.62869 0.41675 0.0
O60 O 0.90451 0.7769 0.41448 0.0
O61 O 0.90637 0.73583 0.43924 0.0
O62 O 0.87698 0.71825 0.37331 0.0
O63 O 0.82054 0.68443 0.38212 0.0
O64 O 0.833 0.7569 0.40769 0.0
O65 O 0.77224 0.71411 0.39514 0.0
O66 O 0.72922 0.6172 0.38105 0.0
O67 O 0.70937 0.63137 0.41455 0.0
O68 O 0.77066 0.65118 0.44983 0.0
O69 O 0.80475 0.70453 0.43541 0.0
O70 O 0.79698 0.62111 0.40793 0.0
O71 O 0.85533 0.66294 0.42406 0.0
H72 H 0.97929 0.81016 0.46378 0.0
H73 H 0.0461 0.85052 0.45542 0.0
H74 H 0.02792 0.81412 0.37876 0.0
H75 H 0.96079 0.77437 0.38728 0.0
H76 H 0.7105 0.54752 0.39332 0.0
H77 H 0.66302 0.48139 0.3986 0.0
H78 H 0.57949 0.51314 0.41281 0.0
H79 H 0.62685 0.57897 0.40674 0.0
Nd80 Nd 0.92178 0.27196 0.13966 0.0
Nd81 Nd 0.88956 0.18601 0.12716 0.0
C82 C 0.9337 0.34037 0.14927 0.0
C83 C 0.91424 0.36266 0.14944 0.0
C84 C 0.92363 0.39083 0.16734 0.0
C85 C 0.91019 0.41608 0.16539 0.0
C86 C 0.88738 0.41407 0.14526 0.0
C87 C 0.87686 0.38492 0.12788 0.0
C88 C 0.88993 0.35946 0.13001 0.0
C89 C 0.95067 0.2589 0.09743 0.0
C90 C 0.83128 0.21731 0.12464 0.0
C91 C 0.87191 0.12065 0.10636 0.0
C92 C 0.86215 0.08203 0.11331 0.0
C93 C 0.85247 0.05506 0.09459 0.0
C94 C 0.84169 0.01792 0.10055 0.0
C95 C 0.84026 1.00669 0.12548 0.0
C96 C 0.85049 0.03402 0.14425 0.0
C97 C 0.86121 0.0713 0.13823 0.0
C98 C 0.88097 0.19441 0.17774 0.0
C99 C 0.97455 0.23562 0.15088 0.0
O100 O 0.92653 0.31555 0.16688 0.0
O101 O 0.93801 0.32906 0.12743 0.0
O102 O 0.96915 0.28575 0.1131 0.0
O103 O 0.91591 0.23949 0.10334 0.0
O104 O 0.85804 0.24911 0.13422 0.0
O105 O 0.83801 0.19074 0.11714 0.0
O106 O 0.90645 0.14747 0.11012 0.0
O107 O 0.84732 0.13073 0.11192 0.0
O108 O 0.87032 0.16233 0.1672 0.0
O109 O 0.89469 0.21935 0.16132 0.0
O110 O 0.95087 0.20686 0.13705 0.0
O111 O 0.96802 0.263 0.15767 0.0
H112 H 0.94255 0.39423 0.18237 0.0
H113 H 0.91901 0.4382 0.17907 0.0
H114 H 0.85888 0.38209 0.11238 0.0
H115 H 0.882 0.33802 0.1159 0.0
H116 H 0.85306 0.06271 0.07524 0.0
H117 H 0.83476 0.99801 0.08553 0.0
H118 H 0.84952 0.02646 0.16363 0.0
H119 H 0.86843 0.09164 0.15301 0.0
Nd120 Nd 0.3242 0.14938 0.4176 0.0
Nd121 Nd 0.38808 0.12587 0.40379 0.0
C122 C 0.27297 0.16185 0.43843 0.0
C123 C 0.25039 0.18001 0.43309 0.0
C124 C 0.23244 0.18721 0.4527 0.0
C125 C 0.20861 0.20165 0.44809 0.0
C126 C 0.20203 0.20939 0.42364 0.0
C127 C 0.22061 0.20262 0.40399 0.0
C128 C 0.24449 0.18811 0.40867 0.0
C129 C 0.33842 0.15402 0.36668 0.0
C130 C 0.29849 0.06305 0.40241 0.0
C131 C 0.44227 0.11877 0.38222 0.0
C132 C 0.481 0.12747 0.3883 0.0
C133 C 0.49836 0.11194 0.374 0.0
C134 C 0.53543 0.12097 0.37887 0.0
C135 C 0.55626 0.14587 0.39822 0.0
C136 C 0.53852 0.16112 0.41266 0.0
C137 C 0.50139 0.15202 0.40778 0.0
C138 C 0.3661 0.10934 0.4533 0.0
C139 C 0.41426 0.21465 0.41845 0.0
O140 O 0.26496 0.13188 0.42545 0.0
O141 O 0.30907 0.18353 0.44212 0.0
O142 O 0.31491 0.16217 0.37697 0.0
O143 O 0.35318 0.14484 0.38367 0.0
O144 O 0.29216 0.08544 0.41668 0.0
O145 O 0.33168 0.07361 0.39195 0.0
O146 O 0.43743 0.14753 0.37878 0.0
O147 O 0.41474 0.09171 0.39478 0.0
O148 O 0.39287 0.10613 0.44306 0.0
O149 O 0.35543 0.12526 0.4378 0.0
O150 O 0.42359 0.18962 0.41115 0.0
O151 O 0.37918 0.20563 0.42351 0.0
H152 H 0.23621 0.18087 0.47167 0.0
H153 H 0.19449 0.20572 0.46374 0.0
H154 H 0.21674 0.20855 0.38496 0.0
H155 H 0.25795 0.18274 0.39317 0.0
H156 H 0.48334 0.0931 0.3588 0.0
H157 H 0.54801 0.109 0.36706 0.0
H158 H 0.55321 0.17994 0.42792 0.0
H159 H 0.48865 0.16436 0.41913 0.0
Nd160 Nd 0.76769 0.6573 0.13867 0.0
Nd161 Nd 0.8534 0.71101 0.12659 0.0
C162 C 0.69921 0.6021 0.15025 0.0
C163 C 0.67603 0.56046 0.15112 0.0
C164 C 0.64327 0.5435 0.16557 0.0
C165 C 0.6176 0.50493 0.16355 0.0
C166 C 0.62386 0.48218 0.14687 0.0
C167 C 0.65763 0.49908 0.13318 0.0
C168 C 0.68335 0.5377 0.13527 0.0
C169 C 0.78157 0.6921 0.09319 0.0
C170 C 0.82243 0.62117 0.12628 0.0
C171 C 0.9204 0.75816 0.10754 0.0
C172 C 0.95875 0.787 0.11588 0.0
C173 C 0.96586 0.82081 0.12709 0.0
C174 C 1.00243 0.84808 0.13392 0.0
C175 C 0.03303 0.84241 0.12975 0.0
C176 C 0.0257 0.8084 0.11869 0.0
C177 C 0.98917 0.78119 0.11182 0.0
C178 C 0.84422 0.69923 0.1778 0.0
C179 C 0.80085 0.74655 0.14304 0.0
O180 O 0.72542 0.61972 0.167 0.0
O181 O 0.70949 0.61675 0.12811 0.0
O182 O 0.75378 0.68525 0.10764 0.0
O183 O 0.80125 0.67878 0.10212 0.0
O184 O 0.79043 0.61629 0.13531 0.0
O185 O 0.84922 0.65429 0.11856 0.0
O186 O 0.8933 0.76591 0.10939 0.0
O187 O 0.90934 0.72316 0.11292 0.0
O188 O 0.87612 0.72023 0.16704 0.0
O189 O 0.81934 0.68589 0.16136 0.0
O190 O 0.82873 0.74997 0.12895 0.0
O191 O 0.77598 0.71401 0.15327 0.0
H192 H 0.63682 0.56037 0.17784 0.0
H193 H 0.59248 0.49307 0.17484 0.0
H194 H 0.66356 0.48284 0.12002 0.0
H195 H 0.70828 0.55004 0.12375 0.0
H196 H 0.94323 0.82645 0.1304 0.0
H197 H 1.00677 0.87402 0.14201 0.0
H198 H 0.04821 0.80258 0.11543 0.0
H199 H 0.98471 0.75554 0.10316 0.0
Nd200 Nd 0.89394 0.19355 0.41416 0.0
Nd201 Nd 0.9205 0.27736 0.40201 0.0
C202 C 0.88566 0.12698 0.42559 0.0
C203 C 0.86618 0.08626 0.4191 0.0
C204 C 0.83754 0.05946 0.43437 0.0
C205 C 0.82256 0.02088 0.4301 0.0
C206 C 0.83603 1.00797 0.41056 0.0
C207 C 0.86417 0.03494 0.39502 0.0
C208 C 0.87897 0.07338 0.39921 0.0
C209 C 0.88463 0.20861 0.3653 0.0
C210 C 0.98322 0.25285 0.40767 0.0
C211 C 0.93057 0.33986 0.3805 0.0
C212 C 0.92133 0.36979 0.38582 0.0
C213 C 0.91821 0.39041 0.36613 0.0
C214 C 0.90862 0.41815 0.37057 0.0
C215 C 0.90182 0.42612 0.39491 0.0
C216 C 0.90522 0.40547 0.41467 0.0
C217 C 0.91472 0.37758 0.41017 0.0
C218 C 0.93035 0.27297 0.45268 0.0
C219 C 0.83092 0.21748 0.41655 0.0
O220 O 0.91042 0.1505 0.40978 0.0
O221 O 0.86698 0.14085 0.43681 0.0
O222 O 0.86086 0.17909 0.37748 0.0
O223 O 0.91286 0.22856 0.37865 0.0
O224 O 0.95735 0.22459 0.4207 0.0
O225 O 0.97494 0.27498 0.39447 0.0
O226 O 0.90229 0.30651 0.37548 0.0
O227 O 0.95576 0.33849 0.39461 0.0
O228 O 0.93504 0.30263 0.44124 0.0
O229 O 0.91671 0.24573 0.43756 0.0
O230 O 0.85574 0.24866 0.40512 0.0
O231 O 0.8404 0.19361 0.42571 0.0
H232 H 0.82731 0.06831 0.45003 0.0
H233 H 0.80064 1.00119 0.44234 0.0
H234 H 0.87597 0.02651 0.38008 0.0
H235 H 0.9014 0.093 0.38724 0.0
H236 H 0.92314 0.38498 0.34718 0.0
H237 H 0.90689 0.43364 0.35486 0.0
H238 H 0.8998 0.41031 0.43362 0.0
H239 H 0.91661 0.36191 0.42572 0.0
Nd240 Nd 0.16069 0.32616 0.62985 0.0
Nd241 Nd 0.12779 0.37545 0.63588 0.0
C242 C 0.18088 0.27599 0.61741 0.0
C243 C 0.18938 0.24694 0.62657 0.0
C244 C 0.16088 0.21149 0.63458 0.0
C245 C 0.16893 0.18302 0.64026 0.0
C246 C 0.20564 0.18914 0.63793 0.0
C247 C 0.23422 0.22493 0.6305 0.0
C248 C 0.22617 0.25337 0.62486 0.0
C249 C 0.17172 0.35711 0.67706 0.0
C250 C 0.07206 0.28496 0.64478 0.0
C251 C 0.10425 0.42278 0.64803 0.0
C252 C 0.11737 0.46328 0.64343 0.0
C253 C 0.15366 0.49164 0.65014 0.0
C254 C 0.16535 0.52963 0.64609 0.0
C255 C 0.14125 0.54053 0.63506 0.0
C256 C 0.10504 0.51196 0.62816 0.0
C257 C 0.0933 0.47397 0.63235 0.0
C258 C 0.1276 0.35506 0.58647 0.0
C259 C 0.21532 0.41316 0.62257 0.0
O260 O 0.14627 0.2688 0.61778 0.0
O261 O 0.20468 0.31106 0.62228 0.0
O262 O 0.19596 0.35178 0.66521 0.0
O263 O 0.14207 0.34445 0.66452 0.0
O264 O 0.10209 0.28154 0.64243 0.0
O265 O 0.07398 0.31805 0.64306 0.0
O266 O 0.12477 0.4149 0.6626 0.0
O267 O 0.09113 0.40005 0.62899 0.0
O268 O 0.13913 0.3891 0.59394 0.0
O269 O 0.12089 0.33453 0.60531 0.0
O270 O 0.19127 0.41617 0.63709 0.0
O271 O 0.20495 0.38105 0.61124 0.0
H272 H 0.13213 0.20533 0.63585 0.0
H273 H 0.14606 0.15575 0.64561 0.0
H274 H 0.26288 0.23095 0.62881 0.0
H275 H 0.24871 0.28023 0.61852 0.0
H276 H 0.1731 0.48457 0.65868 0.0
H277 H 0.1932 0.55048 0.65205 0.0
H278 H 0.08573 0.51884 0.61925 0.0
H279 H 0.06525 0.45285 0.62689 0.0
Nd280 Nd 0.28015 0.90857 0.90207 0.0
Nd281 Nd 0.19453 0.87678 0.91348 0.0
C282 C 0.34913 0.92194 0.89292 0.0
C283 C 0.37286 0.9041 0.89259 0.0
C284 C 0.40051 0.91419 0.87419 0.0
C285 C 0.42706 0.9024 0.87579 0.0
C286 C 0.42687 0.88056 0.89602 0.0
C287 C 0.3983 0.86938 0.91394 0.0
C288 C 0.37155 0.88082 0.9122 0.0
C289 C 0.26566 0.93757 0.94381 0.0
C290 C 0.22597 0.81886 0.91855 0.0
C291 C 0.12903 0.85955 0.93379 0.0
C292 C 0.09054 0.84915 0.92622 0.0
C293 C 0.06504 0.84727 0.94422 0.0
C294 C 0.02804 0.83625 0.93771 0.0
C295 C 1.0156 0.82677 0.91297 0.0
C296 C 0.04145 0.82893 0.89492 0.0
C297 C 0.07851 0.83997 0.90148 0.0
C298 C 0.20284 0.86595 0.86331 0.0
C299 C 0.24498 0.96152 0.88939 0.0
O300 O 0.32445 0.91427 0.87518 0.0
O301 O 0.33713 0.92534 0.91474 0.0
O302 O 0.2927 0.95637 0.9283 0.0
O303 O 0.24698 0.90287 0.93788 0.0
O304 O 0.25793 0.84519 0.90884 0.0
O305 O 0.19923 0.82584 0.92508 0.0
O306 O 0.15562 0.89404 0.92947 0.0
O307 O 0.13948 0.83497 0.92916 0.0
O308 O 0.17089 0.85571 0.87388 0.0
O309 O 0.2282 0.88068 0.87944 0.0
O310 O 0.21577 0.93814 0.90305 0.0
O311 O 0.27209 0.95447 0.88311 0.0
H312 H 0.40245 0.93238 0.85903 0.0
H313 H 0.4487 0.91172 0.86171 0.0
H314 H 0.39686 0.85207 0.92953 0.0
H315 H 0.35058 0.87244 0.92668 0.0
H316 H 0.07373 0.85425 0.96342 0.0
H317 H 1.00932 0.83566 0.95207 0.0
H318 H 0.03293 0.82157 0.87574 0.0
H319 H 0.09769 0.84107 0.88728 0.0
Nd320 Nd 0.71442 0.84971 0.62045 0.0
Nd321 Nd 0.65427 0.76154 0.63637 0.0
C322 C 0.76399 0.91419 0.59979 0.0
C323 C 0.79195 0.953 0.6077 0.0
C324 C 0.82329 0.96029 0.62218 0.0
C325 C 0.85019 0.99711 0.62859 0.0
C326 C 0.84654 0.02777 0.62077 0.0
C327 C 0.81494 0.02034 0.60647 0.0
C328 C 0.78809 0.98348 0.59998 0.0
C329 C 0.70256 0.84017 0.67177 0.0
C330 C 0.74417 0.79147 0.63349 0.0
C331 C 0.60314 0.70022 0.65947 0.0
C332 C 0.56438 0.67009 0.6539 0.0
C333 C 0.54299 0.64382 0.67225 0.0
C334 C 0.50577 0.61606 0.66754 0.0
C335 C 0.48898 0.61387 0.64429 0.0
C336 C 0.51079 0.64013 0.62583 0.0
C337 C 0.54801 0.66797 0.63061 0.0
C338 C 0.6718 0.7669 0.58593 0.0
C339 C 0.6239 0.82019 0.62011 0.0
O340 O 0.7711 0.88739 0.60527 0.0
O341 O 0.72842 0.90373 0.60219 0.0
O342 O 0.72386 0.87243 0.66136 0.0
O343 O 0.68958 0.81627 0.6548 0.0
O344 O 0.74765 0.81919 0.61922 0.0
O345 O 0.71288 0.76913 0.64612 0.0
O346 O 0.6076 0.73359 0.66345 0.0
O347 O 0.62997 0.70125 0.64576 0.0
O348 O 0.64722 0.73639 0.59702 0.0
O349 O 0.68233 0.79355 0.60135 0.0
O350 O 0.61691 0.78824 0.63078 0.0
O351 O 0.65759 0.84524 0.61171 0.0
H352 H 0.82738 0.9376 0.62839 0.0
H353 H 0.87433 1.00153 0.63924 0.0
H354 H 0.81078 0.04301 0.60034 0.0
H355 H 0.76433 0.97881 0.58876 0.0
H356 H 0.555 0.64492 0.69036 0.0
H357 H 0.49021 0.59613 0.68212 0.0
H358 H 0.49884 0.63974 0.60783 0.0
H359 H 0.56391 0.68814 0.6162 0.0
Nd360 Nd 0.13782 0.37469 0.90716 0.0
Nd361 Nd 0.16444 0.31457 0.91136 0.0
C362 C 0.11822 0.42562 0.89638 0.0
C363 C 0.13212 0.46636 0.9004 0.0
C364 C 0.16962 0.49398 0.89585 0.0
C365 C 0.18164 0.53225 0.89916 0.0
C366 C 0.15657 0.54397 0.90726 0.0
C367 C 0.11914 0.51612 0.912 0.0
C368 C 0.10714 0.47795 0.90857 0.0
C369 C 0.13107 0.34395 0.95434 0.0
C370 C 0.22719 0.40422 0.91686 0.0
C371 C 0.17845 0.26161 0.92678 0.0
C372 C 0.19904 0.242 0.91998 0.0
C373 C 0.20593 0.22193 0.93825 0.0
C374 C 0.21934 0.19783 0.93168 0.0
C375 C 0.22604 0.1931 0.9066 0.0
C376 C 0.22075 0.2147 0.88844 0.0
C377 C 0.2074 0.23886 0.89505 0.0
C378 C 0.17494 0.34057 0.86295 0.0
C379 C 0.07635 0.28512 0.89689 0.0
O380 O 0.13713 0.41636 0.88122 0.0
O381 O 0.1058 0.40372 0.91586 0.0
O382 O 0.14372 0.3794 0.95008 0.0
O383 O 0.12553 0.32736 0.93377 0.0
O384 O 0.20204 0.41256 0.90854 0.0
O385 O 0.2178 0.36947 0.92318 0.0
O386 O 0.15072 0.25561 0.91212 0.0
O387 O 0.19735 0.29634 0.93478 0.0
O388 O 0.18383 0.31632 0.87084 0.0
O389 O 0.16208 0.35046 0.88084 0.0
O390 O 0.10165 0.27692 0.90494 0.0
O391 O 0.0836 0.32031 0.8944 0.0
H392 H 0.18972 0.48606 0.88968 0.0
H393 H 0.21074 0.55266 0.89561 0.0
H394 H 0.0988 0.52382 0.91792 0.0
H395 H 0.07806 0.45737 0.91213 0.0
H396 H 0.19932 0.22357 0.95756 0.0
H397 H 0.22262 0.18147 0.94618 0.0
H398 H 0.22611 0.21228 0.869 0.0
H399 H 0.20224 0.25399 0.88058 0.0
Nd400 Nd 0.18785 0.87068 0.62871 0.0
Nd401 Nd 0.2699 0.90516 0.63422 0.0
C402 C 0.11626 0.84713 0.61802 0.0
C403 C 0.0807 0.84627 0.6243 0.0
C404 C 0.06254 0.85538 0.60587 0.0
C405 C 0.02637 0.84944 0.6098 0.0
C406 C 1.0072 0.83411 0.63232 0.0
C407 C 0.02585 0.82589 0.65106 0.0
C408 C 0.06214 0.83187 0.6471 0.0
C409 C 0.20975 0.86082 0.67571 0.0
C410 C 0.23265 0.95848 0.64539 0.0
C411 C 0.34106 0.93047 0.64689 0.0
C412 C 0.3698 0.91959 0.64183 0.0
C413 C 0.40372 0.93676 0.65498 0.0
C414 C 0.43061 0.92584 0.65114 0.0
C415 C 0.42432 0.89735 0.63398 0.0
C416 C 0.39016 0.88028 0.62075 0.0
C417 C 0.36325 0.89123 0.62466 0.0
C418 C 0.2501 0.9076 0.5851 0.0
C419 C 0.22076 0.81738 0.61963 0.0
O420 O 0.1441 0.87733 0.60831 0.0
O421 O 0.12745 0.82947 0.63263 0.0
O422 O 0.1816 0.83499 0.66352 0.0
O423 O 0.22516 0.89052 0.66311 0.0
O424 O 0.19961 0.92799 0.6424 0.0
O425 O 0.26436 0.95756 0.64334 0.0
O426 O 0.31247 0.90708 0.66044 0.0
O427 O 0.331 0.94393 0.6283 0.0
O428 O 0.2729 0.89621 0.59207 0.0
O429 O 0.2356 0.91288 0.60422 0.0
O430 O 0.24797 0.84134 0.63417 0.0
O431 O 0.19871 0.82774 0.6089 0.0
H432 H 0.07581 0.86586 0.58797 0.0
H433 H 1.01291 0.8556 0.59472 0.0
H434 H 1.01231 0.81451 0.66874 0.0
H435 H 0.0752 0.82426 0.66168 0.0
H436 H 0.40931 0.95844 0.6685 0.0
H437 H 0.45606 0.93931 0.66205 0.0
H438 H 0.38426 0.85861 0.60718 0.0
H439 H 0.33721 0.8774 0.61434 0.0
Nd440 Nd 0.6692 0.76187 0.90005 0.0
Nd441 Nd 0.72581 0.84823 0.90931 0.0
C442 C 0.62017 0.69161 0.88697 0.0
C443 C 0.57998 0.6632 0.89181 0.0
C444 C 0.55129 0.67217 0.89008 0.0
C445 C 0.51356 0.64466 0.89405 0.0
C446 C 0.50329 0.60732 0.89995 0.0
C447 C 0.53227 0.59868 0.90193 0.0
C448 C 0.56993 0.62616 0.89789 0.0
C449 C 0.69266 0.7812 0.94918 0.0
C450 C 0.63559 0.81756 0.91079 0.0
C451 C 0.77513 0.91413 0.92885 0.0
C452 C 0.7957 0.95498 0.9237 0.0
C453 C 0.81751 0.97987 0.94257 0.0
C454 C 0.84166 0.01798 0.93742 0.0
C455 C 0.84469 0.03227 0.91318 0.0
C456 C 0.82159 1.00735 0.89448 0.0
C457 C 0.79747 0.96914 0.89967 0.0
C458 C 0.70729 0.83838 0.85933 0.0
C459 C 0.75966 0.79415 0.893 0.0
O460 O 0.62729 0.72097 0.87355 0.0
O461 O 0.64367 0.70009 0.90545 0.0
O462 O 0.65828 0.75825 0.94249 0.0
O463 O 0.71211 0.79486 0.92986 0.0
O464 O 0.6301 0.78639 0.90006 0.0
O465 O 0.66868 0.84238 0.92 0.0
O466 O 0.7841 0.89382 0.91494 0.0
O467 O 0.73912 0.89747 0.93362 0.0
O468 O 0.72935 0.87048 0.86961 0.0
O469 O 0.69517 0.81312 0.87578 0.0
O470 O 0.76561 0.82561 0.90353 0.0
O471 O 0.72545 0.76608 0.88779 0.0
H472 H 0.55793 0.70043 0.88548 0.0
H473 H 0.49237 0.65264 0.892 0.0
H474 H 0.52599 0.57066 0.90686 0.0
H475 H 0.59134 0.61836 0.89946 0.0
H476 H 0.81698 0.96954 0.96118 0.0
H477 H 0.8592 0.03584 0.95229 0.0
H478 H 0.82256 0.0172 0.87568 0.0
H479 H 0.78106 0.95046 0.88475 0.0
H480 H 0.04669 0.29507 0.1466 0.0
H481 H 0.98309 0.17791 0.16589 0.0
H482 H 0.1042 0.29106 0.14538 0.0
H483 H 0.0397 0.1736 0.16452 0.0
H484 H 0.14903 0.17613 0.17156 0.0
H485 H 0.09953 0.18994 0.18163 0.0
H486 H 0.1297 0.2625 0.11753 0.0
H487 H 0.18015 0.24987 0.10801 0.0
C488 C 0.04522 0.26886 0.15146 0.0
C489 C 1.01043 0.23692 0.15661 0.0
C490 C 0.07804 0.26632 0.15036 0.0
C491 C 0.07677 0.23188 0.15466 0.0
C492 C 0.04216 0.20069 0.16135 0.0
C493 C 1.00955 0.20315 0.16217 0.0
C494 C 0.14565 0.19559 0.15984 0.0
C495 C 0.16863 0.21154 0.1388 0.0
C496 C 0.11692 0.20328 0.1655 0.0
C497 C 0.11023 0.22722 0.15035 0.0
C498 C 0.13405 0.24421 0.12981 0.0
C499 C 0.16274 0.23647 0.12412 0.0
H500 H 0.28813 0.9931 0.4132 0.0
H501 H 0.23316 0.04966 0.38275 0.0
H502 H 0.22781 0.9338 0.41373 0.0
H503 H 0.17344 0.99134 0.38331 0.0
H504 H 0.07147 0.87952 0.37443 0.0
H505 H 0.13541 0.92941 0.3667 0.0
H506 H 0.16932 0.90813 0.43792 0.0
H507 H 0.1055 0.85702 0.44527 0.0
C508 C 0.2634 0.99253 0.40586 0.0
C509 C 0.26536 0.02577 0.39753 0.0
C510 C 0.22875 0.95876 0.40649 0.0
C511 C 0.19552 0.95761 0.3986 0.0
C512 C 0.19824 0.99073 0.38918 0.0
C513 C 0.23255 0.02428 0.38883 0.0
C514 C 0.09261 0.88472 0.38825 0.0
C515 C 0.08291 0.86413 0.4106 0.0
C516 C 0.12937 0.91376 0.3839 0.0
C517 C 0.1577 0.92325 0.40176 0.0
C518 C 0.14845 0.9016 0.42363 0.0
C519 C 0.11161 0.87252 0.428 0.0
H520 H 0.7835 0.94296 0.10426 0.0
H521 H 0.86926 0.97933 0.16058 0.0
H522 H 0.76696 0.87813 0.11134 0.0
H523 H 0.85277 0.91419 0.16762 0.0
H524 H 0.80223 0.78862 0.18341 0.0
H525 H 0.80688 0.85059 0.1819 0.0
H526 H 0.79561 0.84158 0.10194 0.0
H527 H 0.79047 0.7803 0.10372 0.0
C528 C 0.79893 0.93719 0.11816 0.0
C529 C 0.82818 0.96666 0.13154 0.0
C530 C 0.78935 0.89986 0.12228 0.0
C531 C 0.80875 0.8907 0.13988 0.0
C532 C 0.83693 0.91999 0.15407 0.0
C533 C 0.84649 0.95746 0.14997 0.0
C534 C 0.79961 0.7996 0.16569 0.0
C535 C 0.79559 0.77956 0.14369 0.0
C536 C 0.8028 0.83528 0.16474 0.0
C537 C 0.80174 0.85136 0.14177 0.0
C538 C 0.79603 0.8302 0.12001 0.0
C539 C 0.79317 0.79498 0.12098 0.0
H540 H 0.1906 0.25885 0.45157 0.0
H541 H 0.15202 0.1918 0.38481 0.0
H542 H 0.14304 0.27678 0.44617 0.0
H543 H 0.10467 0.21029 0.37928 0.0
H544 H 0.03331 0.26691 0.36927 0.0
H545 H 0.09041 0.26195 0.37116 0.0
H546 H 0.07511 0.24333 0.45038 0.0
H547 H 1.01885 0.24802 0.44833 0.0
C548 C 0.17206 0.24788 0.4357 0.0
C549 C 0.1751 0.22332 0.41887 0.0
C550 C 0.14478 0.25836 0.43254 0.0
C551 C 0.11967 0.24482 0.41237 0.0
C552 C 0.1237 0.22163 0.39489 0.0
C553 C 0.15095 0.21098 0.39811 0.0
C554 C 0.0429 0.26285 0.38712 0.0
C555 C 1.0217 0.25821 0.4087 0.0
C556 C 0.07531 0.2595 0.38819 0.0
C557 C 0.08748 0.25212 0.41094 0.0
C558 C 0.0671 0.24944 0.43258 0.0
C559 C 0.03467 0.25213 0.43141 0.0
H560 H 0.27797 0.99419 0.14455 0.0
H561 H 0.22471 0.05718 0.16582 0.0
H562 H 0.21622 0.9369 0.1423 0.0
H563 H 0.16356 1.00076 0.16343 0.0
H564 H 0.05693 0.88972 0.17031 0.0
H565 H 0.1201 0.93996 0.17997 0.0
H566 H 0.16203 0.91281 0.1143 0.0
H567 H 0.09883 0.86272 0.10451 0.0
C568 C 0.25323 0.99554 0.14958 0.0
C569 C 0.25627 0.03014 0.15565 0.0
C570 C 0.21776 0.96287 0.14789 0.0
C571 C 0.18463 0.96405 0.1525 0.0
C572 C 0.18817 0.99839 0.15999 0.0
C573 C 0.22336 0.03088 0.1614 0.0
C574 C 0.0795 0.89445 0.15782 0.0
C575 C 0.07233 0.87206 0.13646 0.0
C576 C 0.11591 0.92329 0.16344 0.0
C577 C 0.14644 0.93073 0.14792 0.0
C578 C 0.13949 0.90769 0.12695 0.0
C579 C 0.10304 0.87887 0.12129 0.0
H580 H 0.74894 0.76352 0.4213 0.0
H581 H 0.84162 0.8095 0.36988 0.0
H582 H 0.7515 0.82443 0.42291 0.0
H583 H 0.84402 0.86988 0.37111 0.0
H584 H 0.8258 0.96926 0.36667 0.0
H585 H 0.8103 0.90432 0.36115 0.0
H586 H 0.79881 0.88764 0.44057 0.0
H587 H 0.81537 0.95288 0.44629 0.0
C588 C 0.76885 0.78623 0.40961 0.0
C589 C 0.79458 0.78163 0.39505 0.0
C590 C 0.77073 0.82125 0.4108 0.0
C591 C 0.79804 0.85218 0.39717 0.0
C592 C 0.82236 0.84672 0.38161 0.0
C593 C 0.82093 0.81207 0.38082 0.0
C594 C 0.82012 0.95194 0.38304 0.0
C595 C 0.82241 0.96689 0.40699 0.0
C596 C 0.811 0.91452 0.37982 0.0
C597 C 0.80341 0.89068 0.4004 0.0
C598 C 0.80402 0.90501 0.42426 0.0
C599 C 0.81352 0.94258 0.42752 0.0
H600 H 0.17385 0.96746 0.65861 0.0
H601 H 0.29163 0.03109 0.64042 0.0
H602 H 0.17056 0.02448 0.65901 0.0
H603 H 0.28855 0.08898 0.64146 0.0
H604 H 0.25257 0.17258 0.61137 0.0
H605 H 0.26274 0.11963 0.61663 0.0
H606 H 0.18739 0.08179 0.67955 0.0
H607 H 0.17704 0.13464 0.67416 0.0
C608 C 0.19935 0.99377 0.65513 0.0
C609 C 0.23303 0.99449 0.64939 0.0
C610 C 0.19747 0.02671 0.65552 0.0
C611 C 0.22922 0.0616 0.65019 0.0
C612 C 0.26336 0.06261 0.64534 0.0
C613 C 0.26527 0.02945 0.64501 0.0
C614 C 0.23859 0.15334 0.62659 0.0
C615 C 0.21374 0.15794 0.64223 0.0
C616 C 0.24452 0.12289 0.62965 0.0
C617 C 0.2258 0.0961 0.64845 0.0
C618 C 0.20182 0.10135 0.66455 0.0
C619 C 0.19582 0.13173 0.66146 0.0
H620 H 0.95089 0.78273 0.93947 0.0
H621 H 0.99039 0.84504 0.87086 0.0
H622 H 0.88748 0.76924 0.93011 0.0
H623 H 0.92674 0.83023 0.86104 0.0
H624 H 0.82592 0.84847 0.87534 0.0
H625 H 0.88606 0.85124 0.87698 0.0
H626 H 0.83162 0.73701 0.90369 0.0
H627 H 0.77079 0.73457 0.90221 0.0
C628 C 0.94607 0.79334 0.92228 0.0
C629 C 0.97609 0.81547 0.90611 0.0
C630 C 0.90948 0.78508 0.91672 0.0
C631 C 0.90182 0.79873 0.89484 0.0
C632 C 0.93157 0.81958 0.87821 0.0
C633 C 0.96813 0.82782 0.88375 0.0
C634 C 0.82661 0.82355 0.88093 0.0
C635 C 0.79361 0.79125 0.88855 0.0
C636 C 0.8612 0.8251 0.88183 0.0
C637 C 0.86396 0.79445 0.8906 0.0
C638 C 0.83061 0.7613 0.89706 0.0
C639 C 0.79569 0.75964 0.8959 0.0
H640 H 0.88703 0.05417 0.66409 0.0
H641 H 0.87332 0.0912 0.59172 0.0
H642 H 0.93791 0.1173 0.67317 0.0
H643 H 0.92387 0.15444 0.60101 0.0
H644 H 1.00237 0.27195 0.63073 0.0
H645 H 0.94474 0.21094 0.62717 0.0
H646 H 1.00198 0.157 0.65864 0.0
H647 H 0.05896 0.21749 0.66233 0.0
C648 C 0.8948 0.07567 0.65007 0.0
C649 C 0.87604 0.06719 0.62704 0.0
C650 C 0.92396 0.11201 0.65534 0.0
C651 C 0.93519 0.14108 0.63781 0.0
C652 C 0.9157 0.13296 0.61511 0.0
C653 C 0.88662 0.09655 0.60978 0.0
C654 C 1.00229 0.24715 0.63747 0.0
C655 C 0.0353 0.24968 0.64685 0.0
C656 C 0.9694 0.21211 0.63515 0.0
C657 C 0.96868 0.1789 0.64246 0.0
C658 C 1.00124 0.18185 0.65301 0.0
C659 C 0.03406 0.21666 0.65507 0.0
H660 H 0.27318 0.17366 0.93026 0.0
H661 H 0.19999 0.14526 0.86668 0.0
H662 H 0.28237 0.12073 0.92111 0.0
H663 H 0.21012 0.09323 0.85713 0.0
H664 H 0.18868 0.97374 0.87651 0.0
H665 H 0.189 0.0329 0.87703 0.0
H666 H 0.30783 0.09183 0.89213 0.0
H667 H 0.3073 0.0319 0.89161 0.0
C668 C 0.25939 0.15645 0.91416 0.0
C669 C 0.23557 0.16372 0.89937 0.0
C670 C 0.26504 0.12632 0.90873 0.0
C671 C 0.24685 0.10249 0.88843 0.0
C672 C 0.22429 0.11071 0.87306 0.0
C673 C 0.21877 0.14088 0.87842 0.0
C674 C 0.21511 0.99943 0.87922 0.0
C675 C 0.24801 0.99819 0.88381 0.0
C676 C 0.21533 0.03345 0.87951 0.0
C677 C 0.2484 0.06727 0.88474 0.0
C678 C 0.2818 0.06629 0.88822 0.0
C679 C 0.28166 0.03207 0.88757 0.0
H680 H 0.97615 0.87576 0.61644 0.0
H681 H 0.94815 0.7737 0.65594 0.0
H682 H 0.9109 0.85987 0.61819 0.0
H683 H 0.88251 0.75824 0.65812 0.0
H684 H 0.77452 0.77348 0.67365 0.0
H685 H 0.83797 0.7815 0.67561 0.0
H686 H 0.85317 0.80918 0.59747 0.0
H687 H 0.7909 0.8013 0.59557 0.0
C688 C 0.95615 0.84988 0.62549 0.0
C689 C 0.96763 0.82582 0.63568 0.0
C690 C 0.91864 0.8408 0.62656 0.0
C691 C 0.89132 0.80747 0.63798 0.0
C692 C 0.90285 0.78412 0.64922 0.0
C693 C 0.94055 0.79311 0.648 0.0
C694 C 0.79113 0.78022 0.65683 0.0
C695 C 0.7778 0.78707 0.63452 0.0
C696 C 0.82751 0.78506 0.65795 0.0
C697 C 0.85098 0.79694 0.63681 0.0
C698 C 0.83632 0.80102 0.61425 0.0
C699 C 0.8004 0.79619 0.61313 0.0
H700 H 1.00755 0.27662 0.90962 0.0
H701 H 0.05958 0.2188 0.8764 0.0
H702 H 0.94731 0.21738 0.91077 0.0
H703 H 1.00045 0.1602 0.87778 0.0
H704 H 0.88751 0.05991 0.87083 0.0
H705 H 0.93824 0.12325 0.86266 0.0
H706 H 0.92019 0.15881 0.93433 0.0
H707 H 0.86806 0.09571 0.94205 0.0
C708 C 1.00587 0.25155 0.90189 0.0
C709 C 0.03826 0.25245 0.89274 0.0
C710 C 0.97151 0.21746 0.90287 0.0
C711 C 0.96881 0.1837 0.89446 0.0
C712 C 1.00098 0.18539 0.88412 0.0
C713 C 0.03508 0.21913 0.88338 0.0
C714 C 0.89359 0.0813 0.88466 0.0
C715 C 0.87355 0.07221 0.90724 0.0
C716 C 0.92316 0.11773 0.88007 0.0
C717 C 0.93386 0.14635 0.89792 0.0
C718 C 0.91279 0.13775 0.92003 0.0
C719 C 0.88311 0.10126 0.92462 0.0
H720 H 0.38871 0.14126 0.33974 0.0
H721 H 0.30015 0.16734 0.3317 0.0
H722 H 0.39678 0.14447 0.29413 0.0
H723 H 0.30714 0.16937 0.28705 0.0
H724 H 0.34674 0.21008 0.21176 0.0
H725 H 0.35007 0.20972 0.2568 0.0
H726 H 0.36667 0.11427 0.25368 0.0
H727 H 0.3649 0.11586 0.20789 0.0
C728 C 0.37101 0.14759 0.32829 0.0
C729 C 0.34414 0.15454 0.33936 0.0
C730 C 0.37545 0.14925 0.30219 0.0
C731 C 0.35311 0.15792 0.2868 0.0
C732 C 0.32572 0.16378 0.29813 0.0
C733 C 0.32149 0.16233 0.32389 0.0
C734 C 0.35168 0.18934 0.22062 0.0
C735 C 0.35518 0.16279 0.20632 0.0
C736 C 0.35331 0.1889 0.24653 0.0
C737 C 0.35763 0.16132 0.25907 0.0
C738 C 0.36326 0.13589 0.24471 0.0
C739 C 0.36219 0.13673 0.21851 0.0
H740 H 0.89117 0.6896 0.33264 0.0
H741 H 0.78167 0.6786 0.33651 0.0
H742 H 0.88682 0.68492 0.28764 0.0
H743 H 0.77777 0.67563 0.29077 0.0
H744 H 0.78038 0.65231 0.20502 0.0
H745 H 0.7755 0.64451 0.25058 0.0
H746 H 0.89247 0.72881 0.2572 0.0
H747 H 0.89734 0.73552 0.21248 0.0
C748 C 0.86588 0.68574 0.32378 0.0
C749 C 0.8369 0.68473 0.33802 0.0
C750 C 0.8635 0.68343 0.2979 0.0
C751 C 0.83243 0.68104 0.28538 0.0
C752 C 0.80216 0.67756 0.29973 0.0
C753 C 0.80432 0.67921 0.32591 0.0
C754 C 0.80491 0.66897 0.21636 0.0
C755 C 0.83934 0.69424 0.20515 0.0
C756 C 0.80213 0.66464 0.24243 0.0
C757 C 0.83377 0.6855 0.25767 0.0
C758 C 0.86774 0.71135 0.24621 0.0
C759 C 0.8705 0.71546 0.22044 0.0
H760 H 0.911 0.26059 0.2042 0.0
H761 H 0.84986 0.14034 0.21283 0.0
H762 H 0.91107 0.26784 0.2496 0.0
H763 H 0.85037 0.14732 0.2577 0.0
H764 H 0.82548 0.1666 0.33516 0.0
H765 H 0.82339 0.16662 0.28993 0.0
H766 H 0.93807 0.25756 0.28788 0.0
H767 H 0.93976 0.258 0.33352 0.0
C768 C 0.89742 0.23578 0.21577 0.0
C769 C 0.88023 0.1999 0.20496 0.0
C770 C 0.89767 0.23988 0.24177 0.0
C771 C 0.8805 0.20817 0.25741 0.0
C772 C 0.86324 0.17242 0.24636 0.0
C773 C 0.86312 0.16837 0.22056 0.0
C774 C 0.85016 0.18688 0.32509 0.0
C775 C 0.88291 0.212 0.33791 0.0
C776 C 0.84905 0.18676 0.29911 0.0
C777 C 0.88076 0.21166 0.28513 0.0
C778 C 0.91308 0.23806 0.298 0.0
C779 C 0.91413 0.23823 0.32414 0.0
H780 H 0.23349 0.38366 0.70629 0.0
H781 H 0.1153 0.34611 0.70929 0.0
H782 H 0.23676 0.38768 0.75151 0.0
H783 H 0.11825 0.34913 0.75483 0.0
H784 H 0.14143 0.37543 0.83868 0.0
H785 H 0.1423 0.38665 0.79361 0.0
H786 H 0.2146 0.33995 0.7829 0.0
H787 H 0.21402 0.32942 0.82724 0.0
C788 C 0.20823 0.37654 0.71664 0.0
C789 C 0.17405 0.36402 0.70426 0.0
C790 C 0.21004 0.37869 0.7426 0.0
C791 C 0.17763 0.36809 0.75693 0.0
C792 C 0.14379 0.35765 0.74444 0.0
C793 C 0.14204 0.35571 0.71835 0.0
C794 C 0.15797 0.36828 0.82662 0.0
C795 C 0.17774 0.35165 0.83647 0.0
C796 C 0.15825 0.37438 0.80082 0.0
C797 C 0.17866 0.36436 0.78455 0.0
C798 C 0.19911 0.3487 0.79475 0.0
C799 C 0.19859 0.3424 0.82026 0.0
H800 H 0.14781 0.8294 0.82953 0.0
H801 H 0.26809 0.8963 0.83564 0.0
H802 H 0.15304 0.82683 0.78468 0.0
H803 H 0.27358 0.89342 0.79023 0.0
H804 H 0.25791 0.91761 0.70654 0.0
H805 H 0.25947 0.91728 0.75205 0.0
H806 H 0.17308 0.80057 0.75216 0.0
H807 H 0.17113 0.80121 0.70682 0.0
C808 C 0.17551 0.84326 0.82127 0.0
C809 C 0.20754 0.863 0.83616 0.0
C810 C 0.17854 0.84158 0.79547 0.0
C811 C 0.21375 0.85972 0.78369 0.0
C812 C 0.24599 0.87929 0.79863 0.0
C813 C 0.24292 0.88076 0.82464 0.0
C814 C 0.23958 0.89179 0.71632 0.0
C815 C 0.21408 0.85954 0.70308 0.0
C816 C 0.2406 0.89154 0.74242 0.0
C817 C 0.21609 0.85902 0.7559 0.0
C818 C 0.19185 0.82634 0.74249 0.0
C819 C 0.19085 0.82661 0.71645 0.0
H820 H 0.70567 0.89097 0.70453 0.0
H821 H 0.68233 0.7768 0.70003 0.0
H822 H 0.70063 0.88634 0.74947 0.0
H823 H 0.67941 0.77255 0.74576 0.0
H824 H 0.65744 0.77586 0.83162 0.0
H825 H 0.65043 0.77232 0.78593 0.0
H826 H 0.74044 0.88725 0.78039 0.0
H827 H 0.74606 0.89101 0.82499 0.0
C828 C 0.6994 0.86475 0.71325 0.0
C829 C 0.69484 0.83443 0.69882 0.0
C830 C 0.69681 0.86212 0.73912 0.0
C831 C 0.69074 0.82942 0.75151 0.0
C832 C 0.68419 0.79821 0.73696 0.0
C833 C 0.68598 0.80063 0.71079 0.0
C834 C 0.6754 0.80025 0.82046 0.0
C835 C 0.70193 0.83385 0.83196 0.0
C836 C 0.67157 0.79824 0.79431 0.0
C837 C 0.69433 0.82976 0.7793 0.0
C838 C 0.72142 0.86274 0.7911 0.0
C839 C 0.72488 0.86483 0.81688 0.0
H840 H 0.25182 0.91335 0.99278 0.0
H841 H 0.2737 1.00636 0.94528 0.0
H842 H 0.2632 0.95318 0.02939 0.0
H843 H 0.28392 0.04582 0.98146 0.0
H844 H 0.35635 0.11705 0.04859 0.0
H845 H 0.33124 0.07795 1.01137 0.0
H846 H 0.24712 0.98826 0.05635 0.0
H847 H 0.27307 0.02702 0.09328 0.0
C848 C 0.25759 0.94183 0.9902 0.0
C849 C 0.26169 0.95661 0.96616 0.0
C850 C 0.26438 0.96493 1.01119 0.0
C851 C 0.27521 1.00328 1.00859 0.0
C852 C 0.27668 0.01697 0.98443 0.0
C853 C 0.27025 0.99409 0.96361 0.0
C854 C 0.33163 0.08957 0.05029 0.0
C855 C 0.31646 0.07533 0.07382 0.0
C856 C 0.31725 0.06682 0.02896 0.0
C857 C 0.28729 0.02934 0.03068 0.0
C858 C 0.27065 1.01639 0.05414 0.0
C859 C 0.28516 0.03894 0.07533 0.0
H860 H 0.81385 0.76036 0.46358 0.0
H861 H 0.74856 0.65005 0.4957 0.0
H862 H 0.7872 0.78512 0.49384 0.0
H863 H 0.72223 0.67474 0.52586 0.0
H864 H 0.64331 0.71279 0.55125 0.0
H865 H 0.67692 0.69675 0.52116 0.0
H866 H 0.77976 0.79773 0.53967 0.0
H867 H 0.74543 0.81423 0.56998 0.0
C868 C 0.79453 0.74152 0.47746 0.0
C869 C 0.78322 0.70302 0.47701 0.0
C870 C 0.77916 0.75578 0.4948 0.0
C871 C 0.7519 0.73187 0.51203 0.0
C872 C 0.74247 0.69391 0.51252 0.0
C873 C 0.7579 0.67974 0.49534 0.0
C874 C 0.67296 0.73216 0.54859 0.0
C875 C 0.69163 0.76463 0.56331 0.0
C876 C 0.69241 0.72262 0.53152 0.0
C877 C 0.73136 0.74523 0.52845 0.0
C878 C 0.74982 0.77939 0.54171 0.0
C879 C 0.73013 0.789 0.55902 0.0
H880 H 0.13516 0.37055 1.00174 0.0
H881 H 0.06697 0.27496 0.95511 0.0
H882 H 0.08871 0.34226 0.03519 0.0
H883 H 1.02011 0.24735 0.98825 0.0
H884 H 0.93009 0.24912 0.04741 0.0
H885 H 0.97397 0.26547 1.01209 0.0
H886 H 0.06202 0.28264 0.06289 0.0
H887 H 1.01859 0.26574 0.09759 0.0
C888 C 0.11055 0.34336 0.99872 0.0
C889 C 0.10521 0.325 0.97579 0.0
C890 C 0.0838 0.32715 1.01784 0.0
C891 C 0.05051 0.29253 1.01438 0.0
C892 C 0.04523 0.27407 0.99151 0.0
C893 C 0.07239 0.28984 0.9726 0.0
C894 C 0.95832 0.25472 0.05081 0.0
C895 C 0.97073 0.25583 0.07531 0.0
C896 C 0.98364 0.26458 0.03065 0.0
C897 C 1.02179 0.27618 0.03475 0.0
C898 C 0.03315 0.27456 0.05907 0.0
C899 C 1.00802 0.2644 0.07895 0.0
H900 H 0.2903 0.07502 0.46606 0.0
H901 H 0.39626 0.08899 0.49011 0.0
H902 H 0.25782 0.02398 0.49654 0.0
H903 H 0.36438 0.03893 0.52029 0.0
H904 H 0.30071 0.92041 0.54781 0.0
H905 H 0.32555 0.97073 0.51709 0.0
H906 H 0.24781 1.00504 0.54211 0.0
H907 H 0.22271 0.95432 0.57293 0.0
C908 C 0.30675 0.06805 0.47828 0.0
C909 C 0.34598 0.08621 0.47557 0.0
C910 C 0.28812 0.03853 0.49565 0.0
C911 C 0.30833 0.02645 0.51052 0.0
C912 C 0.34765 0.04648 0.50876 0.0
C913 C 0.36605 0.07572 0.49164 0.0
C914 C 0.28833 0.93814 0.54652 0.0
C915 C 0.25977 0.93321 0.56307 0.0
C916 C 0.30289 0.9674 0.52902 0.0
C917 C 0.28933 0.99269 0.52735 0.0
C918 C 0.2591 0.98632 0.54281 0.0
C919 C 0.24463 0.9571 0.56048 0.0
H920 H 0.73362 0.65023 0.057 0.0
H921 H 0.82391 0.76163 0.07263 0.0
H922 H 0.71417 0.67409 0.02198 0.0
H923 H 0.80413 0.78611 0.03781 0.0
H924 H 0.7669 0.81105 0.96121 0.0
H925 H 0.79399 0.78949 0.99315 0.0
H926 H 0.6828 0.71016 1.01917 0.0
H927 H 0.65583 0.73137 0.9871 0.0
C928 C 0.75037 0.67967 0.05222 0.0
C929 C 0.7809 0.70385 0.06723 0.0
C930 C 0.73865 0.69359 0.03249 0.0
C931 C 0.75688 0.73228 0.0273 0.0
C932 C 0.78929 0.75617 0.04114 0.0
C933 C 0.80102 0.7421 0.06094 0.0
C934 C 0.74823 0.78942 0.97403 0.0
C935 C 0.70907 0.77295 0.97147 0.0
C936 C 0.76383 0.77695 0.99234 0.0
C937 C 0.74072 0.74747 1.00857 0.0
C938 C 0.7016 0.73221 1.00666 0.0
C939 C 0.68604 0.74476 0.98844 0.0
H940 H 0.11876 0.3942 0.54826 0.0
H941 H 0.07839 0.28156 0.57488 0.0
H942 H 0.06905 0.37021 0.51717 0.0
H943 H 0.02796 0.25758 0.54424 0.0
H944 H 0.95691 0.22735 0.4706 0.0
H945 H 1.00715 0.24555 0.50132 0.0
H946 H 1.00317 0.34616 0.51747 0.0
H947 H 0.95445 0.32864 0.48647 0.0
C948 C 0.09966 0.36424 0.54724 0.0
C949 C 0.10263 0.33997 0.56424 0.0
C950 C 0.07068 0.35042 0.52961 0.0
C951 C 0.04362 0.31189 0.52847 0.0
C952 C 0.04803 0.28734 0.54446 0.0
C953 C 0.07712 0.30118 0.56206 0.0
C954 C 0.96632 0.25294 0.48108 0.0
C955 C 0.95199 0.27678 0.47577 0.0
C956 C 0.99531 0.26354 0.49867 0.0
C957 C 1.01034 0.29808 0.51143 0.0
C958 C 0.99358 0.32013 0.50744 0.0
C959 C 0.96502 0.30971 0.4899 0.0
H960 H 0.76801 0.15558 0.10643 0.0
H961 H 0.80394 0.26132 0.14323 0.0
H962 H 0.703 0.14038 0.11005 0.0
H963 H 0.73882 0.24566 0.14755 0.0
H964 H 0.618 0.21939 0.13554 0.0
H965 H 0.68321 0.23687 0.12865 0.0
H966 H 0.65419 0.12153 0.13913 0.0
H967 H 0.58891 0.1038 0.14466 0.0
C968 C 0.76217 0.17578 0.11518 0.0
C969 C 0.79163 0.20976 0.12451 0.0
C970 C 0.72461 0.16684 0.11753 0.0
C971 C 0.71505 0.19145 0.1294 0.0
C972 C 0.74465 0.22595 0.13809 0.0
C973 C 0.78226 0.23495 0.13566 0.0
C974 C 0.62532 0.19759 0.13613 0.0
C975 C 0.59759 0.16003 0.14074 0.0
C976 C 0.66308 0.20776 0.13244 0.0
C977 C 0.67455 0.18076 0.13322 0.0
C978 C 0.64682 0.14326 0.13794 0.0
C979 C 0.60912 0.1331 0.14157 0.0
H980 H 0.54277 0.45594 0.39167 0.0
H981 H 0.62352 0.43363 0.4271 0.0
H982 H 0.49489 0.39033 0.3964 0.0
H983 H 0.57556 0.36781 0.43164 0.0
H984 H 0.49008 0.24497 0.41077 0.0
H985 H 0.5384 0.31086 0.40859 0.0
H986 H 0.45597 0.34279 0.42598 0.0
H987 H 0.40742 0.2768 0.42777 0.0
C988 C 0.55039 0.43726 0.40074 0.0
C989 C 0.5874 0.45064 0.40902 0.0
C990 C 0.52272 0.39937 0.40346 0.0
C991 C 0.531 0.37335 0.41449 0.0
C992 C 0.568 0.38666 0.42275 0.0
C993 C 0.59568 0.42462 0.42009 0.0
C994 C 0.48215 0.26593 0.41436 0.0
C995 C 0.44451 0.25515 0.41944 0.0
C996 C 0.51008 0.30395 0.41319 0.0
C997 C 0.50137 0.33258 0.41696 0.0
C998 C 0.46387 0.32178 0.42256 0.0
C999 C 0.43593 0.28373 0.42382 0.0
H1000 H 0.86122 0.44417 0.18032 0.0
H1001 H 0.88806 0.45027 0.10225 0.0
H1002 H 0.84418 0.49269 0.17455 0.0
H1003 H 0.87095 0.49865 0.09648 0.0
H1004 H 0.88043 0.61617 0.10472 0.0
H1005 H 0.8947 0.56552 0.10871 0.0
H1006 H 0.79549 0.50261 0.15352 0.0
H1007 H 0.78099 0.55299 0.14942 0.0
C1008 C 0.86349 0.45583 0.16192 0.0
C1009 C 0.87597 0.44312 0.14176 0.0
C1010 C 0.85343 0.48348 0.15856 0.0
C1011 C 0.85614 0.49969 0.13502 0.0
C1012 C 0.86871 0.48704 0.11489 0.0
C1013 C 0.87822 0.45902 0.11817 0.0
C1014 C 0.86139 0.5914 0.11521 0.0
C1015 C 0.8295 0.58889 0.12671 0.0
C1016 C 0.86956 0.56226 0.11746 0.0
C1017 C 0.8464 0.52996 0.13158 0.0
C1018 C 0.81422 0.52719 0.14276 0.0
C1019 C 0.80575 0.55607 0.14022 0.0
H1020 H 0.58831 0.10106 0.3951 0.0
H1021 H 0.61578 0.21442 0.4121 0.0
H1022 H 0.65368 0.11858 0.40102 0.0
H1023 H 0.68082 0.23153 0.41903 0.0
H1024 H 0.80118 0.26011 0.40008 0.0
H1025 H 0.73563 0.24281 0.39696 0.0
H1026 H 0.70306 0.13567 0.4307 0.0
H1027 H 0.76891 0.15275 0.43334 0.0
C1028 C 0.60819 0.12974 0.40014 0.0
C1029 C 0.59636 0.15625 0.40296 0.0
C1030 C 0.6458 0.13972 0.40387 0.0
C1031 C 0.67297 0.17659 0.41052 0.0
C1032 C 0.66105 0.20298 0.41364 0.0
C1033 C 0.62343 0.19299 0.40994 0.0
C1034 C 0.78017 0.23293 0.40706 0.0
C1035 C 0.7907 0.2079 0.41697 0.0
C1036 C 0.74233 0.22302 0.40537 0.0
C1037 C 0.71359 0.18769 0.41349 0.0
C1038 C 0.72415 0.16291 0.42388 0.0
C1039 C 0.76209 0.17287 0.42562 0.0
H1040 H 0.4883 0.23559 0.1453 0.0
H1041 H 0.42086 0.27236 0.10638 0.0
H1042 H 0.53818 0.30062 0.1498 0.0
H1043 H 0.47107 0.33722 0.11028 0.0
H1044 H 0.54708 0.45028 0.14675 0.0
H1045 H 0.49953 0.38506 0.14055 0.0
H1046 H 0.586 0.35629 0.13044 0.0
H1047 H 0.63375 0.42152 0.13786 0.0
C1048 C 0.48425 0.25744 0.13732 0.0
C1049 C 0.45023 0.24841 0.12555 0.0
C1050 C 0.51306 0.29493 0.13986 0.0
C1051 C 0.50883 0.32464 0.13067 0.0
C1052 C 0.47528 0.31543 0.11813 0.0
C1053 C 0.44647 0.27799 0.11565 0.0
C1054 C 0.55615 0.4301 0.14357 0.0
C1055 C 0.59461 0.4416 0.14302 0.0
C1056 C 0.52869 0.39252 0.13958 0.0
C1057 C 0.53858 0.36497 0.13478 0.0
C1058 C 0.57703 0.37639 0.13426 0.0
C1059 C 0.60458 0.41407 0.13827 0.0
H1060 H 0.78524 0.55493 0.40337 0.0
H1061 H 0.8969 0.63269 0.42933 0.0
H1062 H 0.80198 0.50632 0.39951 0.0
H1063 H 0.91387 0.58398 0.42507 0.0
H1064 H 0.92309 0.47735 0.43337 0.0
H1065 H 0.90516 0.52485 0.44052 0.0
H1066 H 0.83865 0.48989 0.37353 0.0
H1067 H 0.85549 0.44177 0.36687 0.0
C1068 C 0.81338 0.56175 0.40841 0.0
C1069 C 0.83966 0.59806 0.41665 0.0
C1070 C 0.82312 0.53377 0.40597 0.0
C1071 C 0.8595 0.54103 0.41169 0.0
C1072 C 0.88551 0.57704 0.42063 0.0
C1073 C 0.87576 0.60513 0.42303 0.0
C1074 C 0.90433 0.47949 0.42028 0.0
C1075 C 0.89087 0.45546 0.39949 0.0
C1076 C 0.89433 0.50713 0.42425 0.0
C1077 C 0.87032 0.51147 0.40766 0.0
C1078 C 0.85678 0.48732 0.38695 0.0
C1079 C 0.86689 0.45986 0.38293 0.0
H1080 H 0.15905 0.75721 0.59878 0.0
H1081 H 0.261 0.78633 0.63849 0.0
H1082 H 0.14067 0.69099 0.60104 0.0
H1083 H 0.24246 0.72009 0.64094 0.0
H1084 H 0.21167 0.59885 0.6227 0.0
H1085 H 0.23187 0.66505 0.61721 0.0
H1086 H 0.11937 0.64159 0.63236 0.0
H1087 H 0.09922 0.57559 0.63833 0.0
C1088 C 0.17781 0.74961 0.60776 0.0
C1089 C 0.21158 0.77736 0.61845 0.0
C1090 C 0.16706 0.71147 0.60927 0.0
C1091 C 0.18985 0.69988 0.62137 0.0
C1092 C 0.22423 0.72777 0.63132 0.0
C1093 C 0.23485 0.7659 0.62996 0.0
C1094 C 0.19118 0.60769 0.62513 0.0
C1095 C 0.15365 0.58134 0.63105 0.0
C1096 C 0.20284 0.64584 0.62189 0.0
C1097 C 0.17733 0.65895 0.62426 0.0
C1098 C 0.13977 0.63263 0.62994 0.0
C1099 C 0.12816 0.59454 0.63335 0.0
H1100 H 0.4653 0.883 0.93833 0.0
H1101 H 0.4572 0.85598 0.8602 0.0
H1102 H 0.51499 0.86749 0.94302 0.0
H1103 H 0.50708 0.84077 0.86486 0.0
H1104 H 0.56737 0.7776 0.88795 0.0
H1105 H 0.51741 0.79253 0.885 0.0
H1106 H 0.58163 0.89101 0.93014 0.0
H1107 H 0.63209 0.87616 0.93311 0.0
C1108 C 0.47394 0.87354 0.92216 0.0
C1109 C 0.45702 0.87061 0.89888 0.0
C1110 C 0.50274 0.865 0.92482 0.0
C1111 C 0.51512 0.85281 0.90435 0.0
C1112 C 0.49808 0.84973 0.8811 0.0
C1113 C 0.46963 0.85872 0.87837 0.0
C1114 C 0.57096 0.80237 0.89744 0.0
C1115 C 0.60404 0.82567 0.91078 0.0
C1116 C 0.54227 0.81107 0.89556 0.0
C1117 C 0.54548 0.84314 0.90715 0.0
C1118 C 0.57808 0.86598 0.92106 0.0
C1119 C 0.60709 0.85749 0.92272 0.0
H1120 H 0.42918 0.58904 0.67625 0.0
H1121 H 0.45723 0.57276 0.60165 0.0
H1122 H 0.36406 0.54167 0.66908 0.0
H1123 H 0.39154 0.52602 0.59418 0.0
H1124 H 0.2769 0.41393 0.60168 0.0
H1125 H 0.34278 0.46266 0.60572 0.0
H1126 H 0.30968 0.53177 0.64637 0.0
H1127 H 0.24427 0.48317 0.64267 0.0
C1128 C 0.42155 0.57532 0.6583 0.0
C1129 C 0.44878 0.58486 0.63959 0.0
C1130 C 0.38394 0.54838 0.65405 0.0
C1131 C 0.37221 0.52997 0.63096 0.0
C1132 C 0.39943 0.53934 0.61224 0.0
C1133 C 0.43712 0.56649 0.61647 0.0
C1134 C 0.28365 0.43974 0.61118 0.0
C1135 C 0.2551 0.44439 0.62194 0.0
C1136 C 0.32152 0.46777 0.61349 0.0
C1137 C 0.33182 0.50113 0.62668 0.0
C1138 C 0.30307 0.50623 0.63657 0.0
C1139 C 0.26537 0.47835 0.63425 0.0
H1140 H 0.16137 0.75583 0.93349 0.0
H1141 H 0.27291 0.79156 0.90641 0.0
H1142 H 0.14633 0.69082 0.9316 0.0
H1143 H 0.25817 0.72634 0.90515 0.0
H1144 H 0.20491 0.60386 0.87796 0.0
H1145 H 0.22321 0.66975 0.8824 0.0
H1146 H 0.15529 0.64321 0.94868 0.0
H1147 H 0.13671 0.57734 0.94403 0.0
C1148 C 0.18301 0.74997 0.92751 0.0
C1149 C 0.21844 0.77932 0.9201 0.0
C1150 C 0.17436 0.71241 0.9265 0.0
C1151 C 0.20086 0.70279 0.91811 0.0
C1152 C 0.23667 0.73227 0.91131 0.0
C1153 C 0.2453 0.7699 0.91227 0.0
C1154 C 0.19415 0.61207 0.89365 0.0
C1155 C 0.16908 0.58489 0.91054 0.0
C1156 C 0.20475 0.65008 0.89625 0.0
C1157 C 0.19076 0.66229 0.91589 0.0
C1158 C 0.16619 0.63514 0.93301 0.0
C1159 C 0.15549 0.59714 0.93035 0.0
H1160 H 0.41292 0.82631 0.62504 0.0
H1161 H 0.50145 0.94109 0.63424 0.0
H1162 H 0.4595 0.80706 0.61932 0.0
H1163 H 0.54792 0.92159 0.62976 0.0
H1164 H 0.62572 0.88262 0.60001 0.0
H1165 H 0.57749 0.90024 0.60168 0.0
H1166 H 0.50426 0.79754 0.64086 0.0
H1167 H 0.55208 0.77947 0.63858 0.0
C1168 C 0.44228 0.84757 0.62576 0.0
C1169 C 0.45308 0.88539 0.63017 0.0
C1170 C 0.46916 0.83638 0.62279 0.0
C1171 C 0.50782 0.86261 0.6241 0.0
C1172 C 0.51859 0.90046 0.62829 0.0
C1173 C 0.49174 0.91164 0.63124 0.0
C1174 C 0.59921 0.86352 0.60875 0.0
C1175 C 0.59309 0.82952 0.61914 0.0
C1176 C 0.57151 0.87385 0.60993 0.0
C1177 C 0.53674 0.8506 0.62161 0.0
C1178 C 0.53032 0.81615 0.63145 0.0
C1179 C 0.55798 0.80579 0.63022 0.0
H1180 H 0.44583 0.61432 0.92113 0.0
H1181 H 0.46788 0.53214 0.88748 0.0
H1182 H 0.38033 0.56632 0.9268 0.0
H1183 H 0.40256 0.48419 0.89343 0.0
H1184 H 0.28954 0.39797 0.92666 0.0
H1185 H 0.35549 0.44654 0.92386 0.0
H1186 H 0.32302 0.52789 0.90436 0.0
H1187 H 0.25724 0.47957 0.9075 0.0
C1188 C 0.43685 0.58615 0.91474 0.0
C1189 C 0.46274 0.57754 0.90379 0.0
C1190 C 0.39905 0.55844 0.91807 0.0
C1191 C 0.38572 0.52103 0.91065 0.0
C1192 C 0.41161 0.51237 0.89983 0.0
C1193 C 0.44935 0.54008 0.89642 0.0
C1194 C 0.29637 0.42628 0.92205 0.0
C1195 C 0.26768 0.43456 0.91736 0.0
C1196 C 0.33438 0.45421 0.9202 0.0
C1197 C 0.34502 0.49141 0.91372 0.0
C1198 C 0.31627 0.49983 0.90964 0.0
C1199 C 0.2783 0.4719 0.91136 0.0
loop_
_geom_bond_atom_site_label_1
_geom_bond_atom_site_label_2
_geom_bond_distance
_geom_bond_site_symmetry_2
_ccdc_geom_bond_type
Nd0 C2 2.836 . S
Nd0 O20 2.500 . S
Nd0 O21 2.492 . S
Nd0 O22 2.487 . S
Nd0 O23 2.682 . S
Nd0 O24 2.410 . S
Nd0 O29 2.414 . S
Nd0 O31 2.424 . S
Nd1 C11 2.836 . S
Nd1 O23 2.414 . S
Nd1 O25 2.424 . S
Nd1 O26 2.500 . S
Nd1 O27 2.492 . S
Nd1 O28 2.487 . S
Nd1 O29 2.682 . S
Nd1 O30 2.410 . S
C2 Nd0 2.836 . S
C2 C3 1.498 . S
C2 O20 1.258 . S
C2 O21 1.239 . S
C3 C2 1.498 . S
C3 C4 1.366 . S
C3 C8 1.407 . S
C4 C3 1.366 . S
C4 C5 1.392 . S
C4 H32 0.930 . S
C5 C4 1.392 . S
C5 C6 1.398 . S
C5 H33 0.929 . S
C6 C5 1.398 . S
C6 C7 1.352 . S
C7 C6 1.352 . S
C7 C8 1.384 . S
C7 H34 0.930 . S
C8 C3 1.407 . S
C8 C7 1.384 . S
C8 H35 0.929 . S
C9 O22 1.241 . S
C9 O23 1.273 . S
C10 O24 1.251 . S
C10 O25 1.268 . S
C11 Nd1 2.836 . S
C11 C12 1.498 . S
C11 O26 1.258 . S
C11 O27 1.239 . S
C12 C11 1.498 . S
C12 C13 1.366 . S
C12 C17 1.407 . S
C13 C12 1.366 . S
C13 C14 1.392 . S
C13 H36 0.930 . S
C14 C13 1.392 . S
C14 C15 1.398 . S
C14 H37 0.929 . S
C15 C14 1.398 . S
C15 C16 1.352 . S
C16 C15 1.352 . S
C16 C17 1.384 . S
C16 H38 0.930 . S
C17 C12 1.407 . S
C17 C16 1.384 . S
C17 H39 0.929 . S
C18 O28 1.241 . S
C18 O29 1.273 . S
C19 O30 1.251 . S
C19 O31 1.268 . S
O20 Nd0 2.500 . S
O20 C2 1.258 . S
O21 Nd0 2.492 . S
O21 C2 1.239 . S
O22 Nd0 2.487 . S
O22 C9 1.241 . S
O23 Nd0 2.682 . S
O23 Nd1 2.414 . S
O23 C9 1.273 . S
O24 Nd0 2.410 . S
O24 C10 1.251 . S
O25 Nd1 2.424 . S
O25 C10 1.268 . S
O26 Nd1 2.500 . S
O26 C11 1.258 . S
O27 Nd1 2.492 . S
O27 C11 1.239 . S
O28 Nd1 2.487 . S
O28 C18 1.241 . S
O29 Nd0 2.414 . S
O29 Nd1 2.682 . S
O29 C18 1.273 . S
O30 Nd1 2.410 . S
O30 C19 1.251 . S
O31 Nd0 2.424 . S
O31 C19 1.268 . S
H32 C4 0.930 . S
H33 C5 0.929 . S
H34 C7 0.930 . S
H35 C8 0.929 . S
H36 C13 0.930 . S
H37 C14 0.929 . S
H38 C16 0.930 . S
H39 C17 0.929 . S
Nd40 C42 2.836 . S
Nd40 O60 2.500 . S
Nd40 O61 2.492 . S
Nd40 O62 2.487 . S
Nd40 O63 2.682 . S
Nd40 O64 2.410 . S
Nd40 O69 2.414 . S
Nd40 O71 2.424 . S
Nd41 C51 2.836 . S
Nd41 O63 2.414 . S
Nd41 O65 2.424 . S
Nd41 O66 2.500 . S
Nd41 O67 2.492 . S
Nd41 O68 2.487 . S
Nd41 O69 2.682 . S
Nd41 O70 2.410 . S
C42 Nd40 2.836 . S
C42 C43 1.498 . S
C42 O60 1.258 . S
C42 O61 1.239 . S
C43 C42 1.498 . S
C43 C44 1.366 . S
C43 C48 1.407 . S
C44 C43 1.366 . S
C44 C45 1.392 . S
C44 H72 0.930 . S
C45 C44 1.392 . S
C45 C46 1.398 1_655 S
C45 H73 0.929 . S
C46 C45 1.398 1_455 S
C46 C47 1.352 . S
C47 C46 1.352 . S
C47 C48 1.384 1_455 S
C47 H74 0.930 . S
C48 C43 1.407 . S
C48 C47 1.384 1_655 S
C48 H75 0.929 . S
C49 O62 1.241 . S
C49 O63 1.273 . S
C50 O64 1.251 . S
C50 O65 1.268 . S
C51 Nd41 2.836 . S
C51 C52 1.498 . S
C51 O66 1.258 . S
C51 O67 1.239 . S
C52 C51 1.498 . S
C52 C53 1.366 . S
C52 C57 1.407 . S
C53 C52 1.366 . S
C53 C54 1.392 . S
C53 H76 0.930 . S
C54 C53 1.392 . S
C54 C55 1.398 . S
C54 H77 0.929 . S
C55 C54 1.398 . S
C55 C56 1.352 . S
C56 C55 1.352 . S
C56 C57 1.384 . S
C56 H78 0.930 . S
C57 C52 1.407 . S
C57 C56 1.384 . S
C57 H79 0.929 . S
C58 O68 1.241 . S
C58 O69 1.273 . S
C59 O70 1.251 . S
C59 O71 1.268 . S
O60 Nd40 2.500 . S
O60 C42 1.258 . S
O61 Nd40 2.492 . S
O61 C42 1.239 . S
O62 Nd40 2.487 . S
O62 C49 1.241 . S
O63 Nd40 2.682 . S
O63 Nd41 2.414 . S
O63 C49 1.273 . S
O64 Nd40 2.410 . S
O64 C50 1.251 . S
O65 Nd41 2.424 . S
O65 C50 1.268 . S
O66 Nd41 2.500 . S
O66 C51 1.258 . S
O67 Nd41 2.492 . S
O67 C51 1.239 . S
O68 Nd41 2.487 . S
O68 C58 1.241 . S
O69 Nd40 2.414 . S
O69 Nd41 2.682 . S
O69 C58 1.273 . S
O70 Nd41 2.410 . S
O70 C59 1.251 . S
O71 Nd40 2.424 . S
O71 C59 1.268 . S
H72 C44 0.930 . S
H73 C45 0.929 . S
H74 C47 0.930 . S
H75 C48 0.929 . S
H76 C53 0.930 . S
H77 C54 0.929 . S
H78 C56 0.930 . S
H79 C57 0.929 . S
Nd80 C82 2.836 . S
Nd80 O100 2.500 . S
Nd80 O101 2.492 . S
Nd80 O102 2.487 . S
Nd80 O103 2.682 . S
Nd80 O104 2.410 . S
Nd80 O109 2.414 . S
Nd80 O111 2.424 . S
Nd81 C91 2.836 . S
Nd81 O103 2.414 . S
Nd81 O105 2.424 . S
Nd81 O106 2.500 . S
Nd81 O107 2.492 . S
Nd81 O108 2.487 . S
Nd81 O109 2.682 . S
Nd81 O110 2.410 . S
C82 Nd80 2.836 . S
C82 C83 1.498 . S
C82 O100 1.258 . S
C82 O101 1.239 . S
C83 C82 1.498 . S
C83 C84 1.366 . S
C83 C88 1.407 . S
C84 C83 1.366 . S
C84 C85 1.392 . S
C84 H112 0.930 . S
C85 C84 1.392 . S
C85 C86 1.398 . S
C85 H113 0.929 . S
C86 C85 1.398 . S
C86 C87 1.352 . S
C87 C86 1.352 . S
C87 C88 1.384 . S
C87 H114 0.930 . S
C88 C83 1.407 . S
C88 C87 1.384 . S
C88 H115 0.929 . S
C89 O102 1.241 . S
C89 O103 1.273 . S
C90 O104 1.251 . S
C90 O105 1.268 . S
C91 Nd81 2.836 . S
C91 C92 1.498 . S
C91 O106 1.258 . S
C91 O107 1.239 . S
C92 C91 1.498 . S
C92 C93 1.366 . S
C92 C97 1.407 . S
C93 C92 1.366 . S
C93 C94 1.392 . S
C93 H116 0.930 . S
C94 C93 1.392 . S
C94 C95 1.398 1_545 S
C94 H117 0.929 . S
C95 C94 1.398 1_565 S
C95 C96 1.352 . S
C96 C95 1.352 . S
C96 C97 1.384 1_565 S
C96 H118 0.930 . S
C97 C92 1.407 . S
C97 C96 1.384 1_545 S
C97 H119 0.929 . S
C98 O108 1.241 . S
C98 O109 1.273 . S
C99 O110 1.251 . S
C99 O111 1.268 . S
O100 Nd80 2.500 . S
O100 C82 1.258 . S
O101 Nd80 2.492 . S
O101 C82 1.239 . S
O102 Nd80 2.487 . S
O102 C89 1.241 . S
O103 Nd80 2.682 . S
O103 Nd81 2.414 . S
O103 C89 1.273 . S
O104 Nd80 2.410 . S
O104 C90 1.251 . S
O105 Nd81 2.424 . S
O105 C90 1.268 . S
O106 Nd81 2.500 . S
O106 C91 1.258 . S
O107 Nd81 2.492 . S
O107 C91 1.239 . S
O108 Nd81 2.487 . S
O108 C98 1.241 . S
O109 Nd80 2.414 . S
O109 Nd81 2.682 . S
O109 C98 1.273 . S
O110 Nd81 2.410 . S
O110 C99 1.251 . S
O111 Nd80 2.424 . S
O111 C99 1.268 . S
H112 C84 0.930 . S
H113 C85 0.929 . S
H114 C87 0.930 . S
H115 C88 0.929 . S
H116 C93 0.930 . S
H117 C94 0.929 . S
H118 C96 0.930 . S
H119 C97 0.929 . S
Nd120 C122 2.836 . S
Nd120 O140 2.500 . S
Nd120 O141 2.492 . S
Nd120 O142 2.487 . S
Nd120 O143 2.682 . S
Nd120 O144 2.410 . S
Nd120 O149 2.414 . S
Nd120 O151 2.424 . S
Nd121 C131 2.836 . S
Nd121 O143 2.414 . S
Nd121 O145 2.424 . S
Nd121 O146 2.500 . S
Nd121 O147 2.492 . S
Nd121 O148 2.487 . S
Nd121 O149 2.682 . S
Nd121 O150 2.410 . S
C122 Nd120 2.836 . S
C122 C123 1.498 . S
C122 O140 1.258 . S
C122 O141 1.239 . S
C123 C122 1.498 . S
C123 C124 1.366 . S
C123 C128 1.407 . S
C124 C123 1.366 . S
C124 C125 1.392 . S
C124 H152 0.930 . S
C125 C124 1.392 . S
C125 C126 1.398 . S
C125 H153 0.929 . S
C126 C125 1.398 . S
C126 C127 1.352 . S
C127 C126 1.352 . S
C127 C128 1.384 . S
C127 H154 0.930 . S
C128 C123 1.407 . S
C128 C127 1.384 . S
C128 H155 0.929 . S
C129 O142 1.241 . S
C129 O143 1.273 . S
C130 O144 1.251 . S
C130 O145 1.268 . S
C131 Nd121 2.836 . S
C131 C132 1.498 . S
C131 O146 1.258 . S
C131 O147 1.239 . S
C132 C131 1.498 . S
C132 C133 1.366 . S
C132 C137 1.407 . S
C133 C132 1.366 . S
C133 C134 1.392 . S
C133 H156 0.930 . S
C134 C133 1.392 . S
C134 C135 1.398 . S
C134 H157 0.929 . S
C135 C134 1.398 . S
C135 C136 1.352 . S
C136 C135 1.352 . S
C136 C137 1.384 . S
C136 H158 0.930 . S
C137 C132 1.407 . S
C137 C136 1.384 . S
C137 H159 0.929 . S
C138 O148 1.241 . S
C138 O149 1.273 . S
C139 O150 1.251 . S
C139 O151 1.268 . S
O140 Nd120 2.500 . S
O140 C122 1.258 . S
O141 Nd120 2.492 . S
O141 C122 1.239 . S
O142 Nd120 2.487 . S
O142 C129 1.241 . S
O143 Nd120 2.682 . S
O143 Nd121 2.414 . S
O143 C129 1.273 . S
O144 Nd120 2.410 . S
O144 C130 1.251 . S
O145 Nd121 2.424 . S
O145 C130 1.268 . S
O146 Nd121 2.500 . S
O146 C131 1.258 . S
O147 Nd121 2.492 . S
O147 C131 1.239 . S
O148 Nd121 2.487 . S
O148 C138 1.241 . S
O149 Nd120 2.414 . S
O149 Nd121 2.682 . S
O149 C138 1.273 . S
O150 Nd121 2.410 . S
O150 C139 1.251 . S
O151 Nd120 2.424 . S
O151 C139 1.268 . S
H152 C124 0.930 . S
H153 C125 0.929 . S
H154 C127 0.930 . S
H155 C128 0.929 . S
H156 C133 0.930 . S
H157 C134 0.929 . S
H158 C136 0.930 . S
H159 C137 0.929 . S
Nd160 C162 2.836 . S
Nd160 O180 2.500 . S
Nd160 O181 2.492 . S
Nd160 O182 2.487 . S
Nd160 O183 2.682 . S
Nd160 O184 2.410 . S
Nd160 O189 2.414 . S
Nd160 O191 2.424 . S
Nd161 C171 2.836 . S
Nd161 O183 2.414 . S
Nd161 O185 2.424 . S
Nd161 O186 2.500 . S
Nd161 O187 2.492 . S
Nd161 O188 2.487 . S
Nd161 O189 2.682 . S
Nd161 O190 2.410 . S
C162 Nd160 2.836 . S
C162 C163 1.498 . S
C162 O180 1.258 . S
C162 O181 1.239 . S
C163 C162 1.498 . S
C163 C164 1.366 . S
C163 C168 1.407 . S
C164 C163 1.366 . S
C164 C165 1.392 . S
C164 H192 0.930 . S
C165 C164 1.392 . S
C165 C166 1.398 . S
C165 H193 0.929 . S
C166 C165 1.398 . S
C166 C167 1.352 . S
C167 C166 1.352 . S
C167 C168 1.384 . S
C167 H194 0.930 . S
C168 C163 1.407 . S
C168 C167 1.384 . S
C168 H195 0.929 . S
C169 O182 1.241 . S
C169 O183 1.273 . S
C170 O184 1.251 . S
C170 O185 1.268 . S
C171 Nd161 2.836 . S
C171 C172 1.498 . S
C171 O186 1.258 . S
C171 O187 1.239 . S
C172 C171 1.498 . S
C172 C173 1.366 . S
C172 C177 1.407 . S
C173 C172 1.366 . S
C173 C174 1.392 . S
C173 H196 0.930 . S
C174 C173 1.392 . S
C174 C175 1.398 1_655 S
C174 H197 0.929 . S
C175 C174 1.398 1_455 S
C175 C176 1.352 . S
C176 C175 1.352 . S
C176 C177 1.384 1_455 S
C176 H198 0.930 . S
C177 C172 1.407 . S
C177 C176 1.384 1_655 S
C177 H199 0.929 . S
C178 O188 1.241 . S
C178 O189 1.273 . S
C179 O190 1.251 . S
C179 O191 1.268 . S
O180 Nd160 2.500 . S
O180 C162 1.258 . S
O181 Nd160 2.492 . S
O181 C162 1.239 . S
O182 Nd160 2.487 . S
O182 C169 1.241 . S
O183 Nd160 2.682 . S
O183 Nd161 2.414 . S
O183 C169 1.273 . S
O184 Nd160 2.410 . S
O184 C170 1.251 . S
O185 Nd161 2.424 . S
O185 C170 1.268 . S
O186 Nd161 2.500 . S
O186 C171 1.258 . S
O187 Nd161 2.492 . S
O187 C171 1.239 . S
O188 Nd161 2.487 . S
O188 C178 1.241 . S
O189 Nd160 2.414 . S
O189 Nd161 2.682 . S
O189 C178 1.273 . S
O190 Nd161 2.410 . S
O190 C179 1.251 . S
O191 Nd160 2.424 . S
O191 C179 1.268 . S
H192 C164 0.930 . S
H193 C165 0.929 . S
H194 C167 0.930 . S
H195 C168 0.929 . S
H196 C173 0.930 . S
H197 C174 0.929 . S
H198 C176 0.930 . S
H199 C177 0.929 . S
Nd200 C202 2.836 . S
Nd200 O220 2.500 . S
Nd200 O221 2.492 . S
Nd200 O222 2.487 . S
Nd200 O223 2.682 . S
Nd200 O224 2.410 . S
Nd200 O229 2.414 . S
Nd200 O231 2.424 . S
Nd201 C211 2.836 . S
Nd201 O223 2.414 . S
Nd201 O225 2.424 . S
Nd201 O226 2.500 . S
Nd201 O227 2.492 . S
Nd201 O228 2.487 . S
Nd201 O229 2.682 . S
Nd201 O230 2.410 . S
C202 Nd200 2.836 . S
C202 C203 1.498 . S
C202 O220 1.258 . S
C202 O221 1.239 . S
C203 C202 1.498 . S
C203 C204 1.366 . S
C203 C208 1.407 . S
C204 C203 1.366 . S
C204 C205 1.392 . S
C204 H232 0.930 . S
C205 C204 1.392 . S
C205 C206 1.398 1_545 S
C205 H233 0.929 . S
C206 C205 1.398 1_565 S
C206 C207 1.352 . S
C207 C206 1.352 . S
C207 C208 1.384 1_565 S
C207 H234 0.930 . S
C208 C203 1.407 . S
C208 C207 1.384 1_545 S
C208 H235 0.929 . S
C209 O222 1.241 . S
C209 O223 1.273 . S
C210 O224 1.251 . S
C210 O225 1.268 . S
C211 Nd201 2.836 . S
C211 C212 1.498 . S
C211 O226 1.258 . S
C211 O227 1.239 . S
C212 C211 1.498 . S
C212 C213 1.366 . S
C212 C217 1.407 . S
C213 C212 1.366 . S
C213 C214 1.392 . S
C213 H236 0.930 . S
C214 C213 1.392 . S
C214 C215 1.398 . S
C214 H237 0.929 . S
C215 C214 1.398 . S
C215 C216 1.352 . S
C216 C215 1.352 . S
C216 C217 1.384 . S
C216 H238 0.930 . S
C217 C212 1.407 . S
C217 C216 1.384 . S
C217 H239 0.929 . S
C218 O228 1.241 . S
C218 O229 1.273 . S
C219 O230 1.251 . S
C219 O231 1.268 . S
O220 Nd200 2.500 . S
O220 C202 1.258 . S
O221 Nd200 2.492 . S
O221 C202 1.239 . S
O222 Nd200 2.487 . S
O222 C209 1.241 . S
O223 Nd200 2.682 . S
O223 Nd201 2.414 . S
O223 C209 1.273 . S
O224 Nd200 2.410 . S
O224 C210 1.251 . S
O225 Nd201 2.424 . S
O225 C210 1.268 . S
O226 Nd201 2.500 . S
O226 C211 1.258 . S
O227 Nd201 2.492 . S
O227 C211 1.239 . S
O228 Nd201 2.487 . S
O228 C218 1.241 . S
O229 Nd200 2.414 . S
O229 Nd201 2.682 . S
O229 C218 1.273 . S
O230 Nd201 2.410 . S
O230 C219 1.251 . S
O231 Nd200 2.424 . S
O231 C219 1.268 . S
H232 C204 0.930 . S
H233 C205 0.929 . S
H234 C207 0.930 . S
H235 C208 0.929 . S
H236 C213 0.930 . S
H237 C214 0.929 . S
H238 C216 0.930 . S
H239 C217 0.929 . S
Nd240 C242 2.836 . S
Nd240 O260 2.500 . S
Nd240 O261 2.492 . S
Nd240 O262 2.487 . S
Nd240 O263 2.682 . S
Nd240 O264 2.410 . S
Nd240 O269 2.414 . S
Nd240 O271 2.424 . S
Nd241 C251 2.836 . S
Nd241 O263 2.414 . S
Nd241 O265 2.424 . S
Nd241 O266 2.500 . S
Nd241 O267 2.492 . S
Nd241 O268 2.487 . S
Nd241 O269 2.682 . S
Nd241 O270 2.410 . S
C242 Nd240 2.836 . S
C242 C243 1.498 . S
C242 O260 1.258 . S
C242 O261 1.239 . S
C243 C242 1.498 . S
C243 C244 1.366 . S
C243 C248 1.407 . S
C244 C243 1.366 . S
C244 C245 1.392 . S
C244 H272 0.930 . S
C245 C244 1.392 . S
C245 C246 1.398 . S
C245 H273 0.929 . S
C246 C245 1.398 . S
C246 C247 1.352 . S
C247 C246 1.352 . S
C247 C248 1.384 . S
C247 H274 0.930 . S
C248 C243 1.407 . S
C248 C247 1.384 . S
C248 H275 0.929 . S
C249 O262 1.241 . S
C249 O263 1.273 . S
C250 O264 1.251 . S
C250 O265 1.268 . S
C251 Nd241 2.836 . S
C251 C252 1.498 . S
C251 O266 1.258 . S
C251 O267 1.239 . S
C252 C251 1.498 . S
C252 C253 1.366 . S
C252 C257 1.407 . S
C253 C252 1.366 . S
C253 C254 1.392 . S
C253 H276 0.930 . S
C254 C253 1.392 . S
C254 C255 1.398 . S
C254 H277 0.929 . S
C255 C254 1.398 . S
C255 C256 1.352 . S
C256 C255 1.352 . S
C256 C257 1.384 . S
C256 H278 0.930 . S
C257 C252 1.407 . S
C257 C256 1.384 . S
C257 H279 0.929 . S
C258 O268 1.241 . S
C258 O269 1.273 . S
C259 O270 1.251 . S
C259 O271 1.268 . S
O260 Nd240 2.500 . S
O260 C242 1.258 . S
O261 Nd240 2.492 . S
O261 C242 1.239 . S
O262 Nd240 2.487 . S
O262 C249 1.241 . S
O263 Nd240 2.682 . S
O263 Nd241 2.414 . S
O263 C249 1.273 . S
O264 Nd240 2.410 . S
O264 C250 1.251 . S
O265 Nd241 2.424 . S
O265 C250 1.268 . S
O266 Nd241 2.500 . S
O266 C251 1.258 . S
O267 Nd241 2.492 . S
O267 C251 1.239 . S
O268 Nd241 2.487 . S
O268 C258 1.241 . S
O269 Nd240 2.414 . S
O269 Nd241 2.682 . S
O269 C258 1.273 . S
O270 Nd241 2.410 . S
O270 C259 1.251 . S
O271 Nd240 2.424 . S
O271 C259 1.268 . S
H272 C244 0.930 . S
H273 C245 0.929 . S
H274 C247 0.930 . S
H275 C248 0.929 . S
H276 C253 0.930 . S
H277 C254 0.929 . S
H278 C256 0.930 . S
H279 C257 0.929 . S
Nd280 C282 2.836 . S
Nd280 O300 2.500 . S
Nd280 O301 2.492 . S
Nd280 O302 2.487 . S
Nd280 O303 2.682 . S
Nd280 O304 2.410 . S
Nd280 O309 2.414 . S
Nd280 O311 2.424 . S
Nd281 C291 2.836 . S
Nd281 O303 2.414 . S
Nd281 O305 2.424 . S
Nd281 O306 2.500 . S
Nd281 O307 2.492 . S
Nd281 O308 2.487 . S
Nd281 O309 2.682 . S
Nd281 O310 2.410 . S
C282 Nd280 2.836 . S
C282 C283 1.498 . S
C282 O300 1.258 . S
C282 O301 1.239 . S
C283 C282 1.498 . S
C283 C284 1.366 . S
C283 C288 1.407 . S
C284 C283 1.366 . S
C284 C285 1.392 . S
C284 H312 0.930 . S
C285 C284 1.392 . S
C285 C286 1.398 . S
C285 H313 0.929 . S
C286 C285 1.398 . S
C286 C287 1.352 . S
C287 C286 1.352 . S
C287 C288 1.384 . S
C287 H314 0.930 . S
C288 C283 1.407 . S
C288 C287 1.384 . S
C288 H315 0.929 . S
C289 O302 1.241 . S
C289 O303 1.273 . S
C290 O304 1.251 . S
C290 O305 1.268 . S
C291 Nd281 2.836 . S
C291 C292 1.498 . S
C291 O306 1.258 . S
C291 O307 1.239 . S
C292 C291 1.498 . S
C292 C293 1.366 . S
C292 C297 1.407 . S
C293 C292 1.366 . S
C293 C294 1.392 . S
C293 H316 0.930 . S
C294 C293 1.392 . S
C294 C295 1.398 1_455 S
C294 H317 0.929 . S
C295 C294 1.398 1_655 S
C295 C296 1.352 . S
C296 C295 1.352 . S
C296 C297 1.384 1_655 S
C296 H318 0.930 . S
C297 C292 1.407 . S
C297 C296 1.384 1_455 S
C297 H319 0.929 . S
C298 O308 1.241 . S
C298 O309 1.273 . S
C299 O310 1.251 . S
C299 O311 1.268 . S
O300 Nd280 2.500 . S
O300 C282 1.258 . S
O301 Nd280 2.492 . S
O301 C282 1.239 . S
O302 Nd280 2.487 . S
O302 C289 1.241 . S
O303 Nd280 2.682 . S
O303 Nd281 2.414 . S
O303 C289 1.273 . S
O304 Nd280 2.410 . S
O304 C290 1.251 . S
O305 Nd281 2.424 . S
O305 C290 1.268 . S
O306 Nd281 2.500 . S
O306 C291 1.258 . S
O307 Nd281 2.492 . S
O307 C291 1.239 . S
O308 Nd281 2.487 . S
O308 C298 1.241 . S
O309 Nd280 2.414 . S
O309 Nd281 2.682 . S
O309 C298 1.273 . S
O310 Nd281 2.410 . S
O310 C299 1.251 . S
O311 Nd280 2.424 . S
O311 C299 1.268 . S
H312 C284 0.930 . S
H313 C285 0.929 . S
H314 C287 0.930 . S
H315 C288 0.929 . S
H316 C293 0.930 . S
H317 C294 0.929 . S
H318 C296 0.930 . S
H319 C297 0.929 . S
Nd320 C322 2.836 . S
Nd320 O340 2.500 . S
Nd320 O341 2.492 . S
Nd320 O342 2.487 . S
Nd320 O343 2.682 . S
Nd320 O344 2.410 . S
Nd320 O349 2.414 . S
Nd320 O351 2.424 . S
Nd321 C331 2.836 . S
Nd321 O343 2.414 . S
Nd321 O345 2.424 . S
Nd321 O346 2.500 . S
Nd321 O347 2.492 . S
Nd321 O348 2.487 . S
Nd321 O349 2.682 . S
Nd321 O350 2.410 . S
C322 Nd320 2.836 . S
C322 C323 1.498 . S
C322 O340 1.258 . S
C322 O341 1.239 . S
C323 C322 1.498 . S
C323 C324 1.366 . S
C323 C328 1.407 . S
C324 C323 1.366 . S
C324 C325 1.392 . S
C324 H352 0.930 . S
C325 C324 1.392 . S
C325 C326 1.398 1_565 S
C325 H353 0.929 . S
C326 C325 1.398 1_545 S
C326 C327 1.352 . S
C327 C326 1.352 . S
C327 C328 1.384 1_545 S
C327 H354 0.930 . S
C328 C323 1.407 . S
C328 C327 1.384 1_565 S
C328 H355 0.929 . S
C329 O342 1.241 . S
C329 O343 1.273 . S
C330 O344 1.251 . S
C330 O345 1.268 . S
C331 Nd321 2.836 . S
C331 C332 1.498 . S
C331 O346 1.258 . S
C331 O347 1.239 . S
C332 C331 1.498 . S
C332 C333 1.366 . S
C332 C337 1.407 . S
C333 C332 1.366 . S
C333 C334 1.392 . S
C333 H356 0.930 . S
C334 C333 1.392 . S
C334 C335 1.398 . S
C334 H357 0.929 . S
C335 C334 1.398 . S
C335 C336 1.352 . S
C336 C335 1.352 . S
C336 C337 1.384 . S
C336 H358 0.930 . S
C337 C332 1.407 . S
C337 C336 1.384 . S
C337 H359 0.929 . S
C338 O348 1.241 . S
C338 O349 1.273 . S
C339 O350 1.251 . S
C339 O351 1.268 . S
O340 Nd320 2.500 . S
O340 C322 1.258 . S
O341 Nd320 2.492 . S
O341 C322 1.239 . S
O342 Nd320 2.487 . S
O342 C329 1.241 . S
O343 Nd320 2.682 . S
O343 Nd321 2.414 . S
O343 C329 1.273 . S
O344 Nd320 2.410 . S
O344 C330 1.251 . S
O345 Nd321 2.424 . S
O345 C330 1.268 . S
O346 Nd321 2.500 . S
O346 C331 1.258 . S
O347 Nd321 2.492 . S
O347 C331 1.239 . S
O348 Nd321 2.487 . S
O348 C338 1.241 . S
O349 Nd320 2.414 . S
O349 Nd321 2.682 . S
O349 C338 1.273 . S
O350 Nd321 2.410 . S
O350 C339 1.251 . S
O351 Nd320 2.424 . S
O351 C339 1.268 . S
H352 C324 0.930 . S
H353 C325 0.929 . S
H354 C327 0.930 . S
H355 C328 0.929 . S
H356 C333 0.930 . S
H357 C334 0.929 . S
H358 C336 0.930 . S
H359 C337 0.929 . S
Nd360 C362 2.836 . S
Nd360 O380 2.500 . S
Nd360 O381 2.492 . S
Nd360 O382 2.487 . S
Nd360 O383 2.682 . S
Nd360 O384 2.410 . S
Nd360 O389 2.414 . S
Nd360 O391 2.424 . S
Nd361 C371 2.836 . S
Nd361 O383 2.414 . S
Nd361 O385 2.424 . S
Nd361 O386 2.500 . S
Nd361 O387 2.492 . S
Nd361 O388 2.487 . S
Nd361 O389 2.682 . S
Nd361 O390 2.410 . S
C362 Nd360 2.836 . S
C362 C363 1.498 . S
C362 O380 1.258 . S
C362 O381 1.239 . S
C363 C362 1.498 . S
C363 C364 1.366 . S
C363 C368 1.407 . S
C364 C363 1.366 . S
C364 C365 1.392 . S
C364 H392 0.930 . S
C365 C364 1.392 . S
C365 C366 1.398 . S
C365 H393 0.929 . S
C366 C365 1.398 . S
C366 C367 1.352 . S
C367 C366 1.352 . S
C367 C368 1.384 . S
C367 H394 0.930 . S
C368 C363 1.407 . S
C368 C367 1.384 . S
C368 H395 0.929 . S
C369 O382 1.241 . S
C369 O383 1.273 . S
C370 O384 1.251 . S
C370 O385 1.268 . S
C371 Nd361 2.836 . S
C371 C372 1.498 . S
C371 O386 1.258 . S
C371 O387 1.239 . S
C372 C371 1.498 . S
C372 C373 1.366 . S
C372 C377 1.407 . S
C373 C372 1.366 . S
C373 C374 1.392 . S
C373 H396 0.930 . S
C374 C373 1.392 . S
C374 C375 1.398 . S
C374 H397 0.929 . S
C375 C374 1.398 . S
C375 C376 1.352 . S
C376 C375 1.352 . S
C376 C377 1.384 . S
C376 H398 0.930 . S
C377 C372 1.407 . S
C377 C376 1.384 . S
C377 H399 0.929 . S
C378 O388 1.241 . S
C378 O389 1.273 . S
C379 O390 1.251 . S
C379 O391 1.268 . S
O380 Nd360 2.500 . S
O380 C362 1.258 . S
O381 Nd360 2.492 . S
O381 C362 1.239 . S
O382 Nd360 2.487 . S
O382 C369 1.241 . S
O383 Nd360 2.682 . S
O383 Nd361 2.414 . S
O383 C369 1.273 . S
O384 Nd360 2.410 . S
O384 C370 1.251 . S
O385 Nd361 2.424 . S
O385 C370 1.268 . S
O386 Nd361 2.500 . S
O386 C371 1.258 . S
O387 Nd361 2.492 . S
O387 C371 1.239 . S
O388 Nd361 2.487 . S
O388 C378 1.241 . S
O389 Nd360 2.414 . S
O389 Nd361 2.682 . S
O389 C378 1.273 . S
O390 Nd361 2.410 . S
O390 C379 1.251 . S
O391 Nd360 2.424 . S
O391 C379 1.268 . S
H392 C364 0.930 . S
H393 C365 0.929 . S
H394 C367 0.930 . S
H395 C368 0.929 . S
H396 C373 0.930 . S
H397 C374 0.929 . S
H398 C376 0.930 . S
H399 C377 0.929 . S
Nd400 C402 2.836 . S
Nd400 O420 2.500 . S
Nd400 O421 2.492 . S
Nd400 O422 2.487 . S
Nd400 O423 2.682 . S
Nd400 O424 2.410 . S
Nd400 O429 2.414 . S
Nd400 O431 2.424 . S
Nd401 C411 2.836 . S
Nd401 O423 2.414 . S
Nd401 O425 2.424 . S
Nd401 O426 2.500 . S
Nd401 O427 2.492 . S
Nd401 O428 2.487 . S
Nd401 O429 2.682 . S
Nd401 O430 2.410 . S
C402 Nd400 2.836 . S
C402 C403 1.498 . S
C402 O420 1.258 . S
C402 O421 1.239 . S
C403 C402 1.498 . S
C403 C404 1.366 . S
C403 C408 1.407 . S
C404 C403 1.366 . S
C404 C405 1.392 . S
C404 H432 0.930 . S
C405 C404 1.392 . S
C405 C406 1.398 1_455 S
C405 H433 0.929 . S
C406 C405 1.398 1_655 S
C406 C407 1.352 . S
C407 C406 1.352 . S
C407 C408 1.384 1_655 S
C407 H434 0.930 . S
C408 C403 1.407 . S
C408 C407 1.384 1_455 S
C408 H435 0.929 . S
C409 O422 1.241 . S
C409 O423 1.273 . S
C410 O424 1.251 . S
C410 O425 1.268 . S
C411 Nd401 2.836 . S
C411 C412 1.498 . S
C411 O426 1.258 . S
C411 O427 1.239 . S
C412 C411 1.498 . S
C412 C413 1.366 . S
C412 C417 1.407 . S
C413 C412 1.366 . S
C413 C414 1.392 . S
C413 H436 0.930 . S
C414 C413 1.392 . S
C414 C415 1.398 . S
C414 H437 0.929 . S
C415 C414 1.398 . S
C415 C416 1.352 . S
C416 C415 1.352 . S
C416 C417 1.384 . S
C416 H438 0.930 . S
C417 C412 1.407 . S
C417 C416 1.384 . S
C417 H439 0.929 . S
C418 O428 1.241 . S
C418 O429 1.273 . S
C419 O430 1.251 . S
C419 O431 1.268 . S
O420 Nd400 2.500 . S
O420 C402 1.258 . S
O421 Nd400 2.492 . S
O421 C402 1.239 . S
O422 Nd400 2.487 . S
O422 C409 1.241 . S
O423 Nd400 2.682 . S
O423 Nd401 2.414 . S
O423 C409 1.273 . S
O424 Nd400 2.410 . S
O424 C410 1.251 . S
O425 Nd401 2.424 . S
O425 C410 1.268 . S
O426 Nd401 2.500 . S
O426 C411 1.258 . S
O427 Nd401 2.492 . S
O427 C411 1.239 . S
O428 Nd401 2.487 . S
O428 C418 1.241 . S
O429 Nd400 2.414 . S
O429 Nd401 2.682 . S
O429 C418 1.273 . S
O430 Nd401 2.410 . S
O430 C419 1.251 . S
O431 Nd400 2.424 . S
O431 C419 1.268 . S
H432 C404 0.930 . S
H433 C405 0.929 . S
H434 C407 0.930 . S
H435 C408 0.929 . S
H436 C413 0.930 . S
H437 C414 0.929 . S
H438 C416 0.930 . S
H439 C417 0.929 . S
Nd440 C442 2.836 . S
Nd440 O460 2.500 . S
Nd440 O461 2.492 . S
Nd440 O462 2.487 . S
Nd440 O463 2.682 . S
Nd440 O464 2.410 . S
Nd440 O469 2.414 . S
Nd440 O471 2.424 . S
Nd441 C451 2.836 . S
Nd441 O463 2.414 . S
Nd441 O465 2.424 . S
Nd441 O466 2.500 . S
Nd441 O467 2.492 . S
Nd441 O468 2.487 . S
Nd441 O469 2.682 . S
Nd441 O470 2.410 . S
C442 Nd440 2.836 . S
C442 C443 1.498 . S
C442 O460 1.258 . S
C442 O461 1.239 . S
C443 C442 1.498 . S
C443 C444 1.366 . S
C443 C448 1.407 . S
C444 C443 1.366 . S
C444 C445 1.392 . S
C444 H472 0.930 . S
C445 C444 1.392 . S
C445 C446 1.398 . S
C445 H473 0.929 . S
C446 C445 1.398 . S
C446 C447 1.352 . S
C447 C446 1.352 . S
C447 C448 1.384 . S
C447 H474 0.930 . S
C448 C443 1.407 . S
C448 C447 1.384 . S
C448 H475 0.929 . S
C449 O462 1.241 . S
C449 O463 1.273 . S
C450 O464 1.251 . S
C450 O465 1.268 . S
C451 Nd441 2.836 . S
C451 C452 1.498 . S
C451 O466 1.258 . S
C451 O467 1.239 . S
C452 C451 1.498 . S
C452 C453 1.366 . S
C452 C457 1.407 . S
C453 C452 1.366 . S
C453 C454 1.392 . S
C453 H476 0.930 . S
C454 C453 1.392 . S
C454 C455 1.398 1_565 S
C454 H477 0.929 . S
C455 C454 1.398 1_545 S
C455 C456 1.352 . S
C456 C455 1.352 . S
C456 C457 1.384 1_545 S
C456 H478 0.930 . S
C457 C452 1.407 . S
C457 C456 1.384 1_565 S
C457 H479 0.929 . S
C458 O468 1.241 . S
C458 O469 1.273 . S
C459 O470 1.251 . S
C459 O471 1.268 . S
O460 Nd440 2.500 . S
O460 C442 1.258 . S
O461 Nd440 2.492 . S
O461 C442 1.239 . S
O462 Nd440 2.487 . S
O462 C449 1.241 . S
O463 Nd440 2.682 . S
O463 Nd441 2.414 . S
O463 C449 1.273 . S
O464 Nd440 2.410 . S
O464 C450 1.251 . S
O465 Nd441 2.424 . S
O465 C450 1.268 . S
O466 Nd441 2.500 . S
O466 C451 1.258 . S
O467 Nd441 2.492 . S
O467 C451 1.239 . S
O468 Nd441 2.487 . S
O468 C458 1.241 . S
O469 Nd440 2.414 . S
O469 Nd441 2.682 . S
O469 C458 1.273 . S
O470 Nd441 2.410 . S
O470 C459 1.251 . S
O471 Nd440 2.424 . S
O471 C459 1.268 . S
H472 C444 0.930 . S
H473 C445 0.929 . S
H474 C447 0.930 . S
H475 C448 0.929 . S
H476 C453 0.930 . S
H477 C454 0.929 . S
H478 C456 0.930 . S
H479 C457 0.929 . S
H480 C488 0.950 . S
H481 C493 0.950 . S
H482 C490 0.950 1_455 S
H483 C492 0.950 1_455 S
H484 C494 0.950 . S
H485 C496 0.950 . S
H486 C498 0.950 . S
H487 C499 0.950 . S
C488 H480 0.950 . S
C488 C489 1.386 . S
C488 C490 1.391 . S
C489 C488 1.386 . S
C489 C493 1.393 . S
C490 H482 0.950 1_655 S
C490 C488 1.391 . S
C490 C491 1.400 1_655 S
C491 C490 1.400 1_455 S
C491 C492 1.398 1_455 S
C491 C497 1.491 . S
C492 H483 0.950 1_655 S
C492 C491 1.398 1_655 S
C492 C493 1.391 . S
C493 H481 0.950 . S
C493 C489 1.393 . S
C493 C492 1.391 . S
C494 H484 0.950 . S
C494 C495 1.386 . S
C494 C496 1.391 . S
C495 C494 1.386 . S
C495 C499 1.393 . S
C496 H485 0.950 . S
C496 C494 1.391 . S
C496 C497 1.400 . S
C497 C491 1.491 . S
C497 C496 1.400 . S
C497 C498 1.398 . S
C498 H486 0.950 . S
C498 C497 1.398 . S
C498 C499 1.391 . S
C499 H487 0.950 . S
C499 C495 1.393 . S
C499 C498 1.391 . S
H500 C508 0.950 . S
H501 C513 0.950 . S
H502 C510 0.950 . S
H503 C512 0.950 . S
H504 C514 0.950 . S
H505 C516 0.950 . S
H506 C518 0.950 . S
H507 C519 0.950 . S
C508 H500 0.950 . S
C508 C509 1.386 . S
C508 C510 1.391 1_545 S
C509 C508 1.386 . S
C509 C513 1.393 . S
C510 H502 0.950 . S
C510 C508 1.391 1_565 S
C510 C511 1.400 . S
C511 C510 1.400 . S
C511 C512 1.398 1_565 S
C511 C517 1.491 . S
C512 H503 0.950 . S
C512 C511 1.398 1_545 S
C512 C513 1.391 . S
C513 H501 0.950 . S
C513 C509 1.393 . S
C513 C512 1.391 . S
C514 H504 0.950 . S
C514 C515 1.386 . S
C514 C516 1.391 . S
C515 C514 1.386 . S
C515 C519 1.393 . S
C516 H505 0.950 . S
C516 C514 1.391 . S
C516 C517 1.400 . S
C517 C511 1.491 . S
C517 C516 1.400 . S
C517 C518 1.398 . S
C518 H506 0.950 . S
C518 C517 1.398 . S
C518 C519 1.391 . S
C519 H507 0.950 . S
C519 C515 1.393 . S
C519 C518 1.391 . S
H520 C528 0.950 . S
H521 C533 0.950 . S
H522 C530 0.950 . S
H523 C532 0.950 . S
H524 C534 0.950 . S
H525 C536 0.950 . S
H526 C538 0.950 . S
H527 C539 0.950 . S
C528 H520 0.950 . S
C528 C529 1.386 . S
C528 C530 1.391 . S
C529 C528 1.386 . S
C529 C533 1.393 . S
C530 H522 0.950 . S
C530 C528 1.391 . S
C530 C531 1.400 . S
C531 C530 1.400 . S
C531 C532 1.398 . S
C531 C537 1.491 . S
C532 H523 0.950 . S
C532 C531 1.398 . S
C532 C533 1.391 . S
C533 H521 0.950 . S
C533 C529 1.393 . S
C533 C532 1.391 . S
C534 H524 0.950 . S
C534 C535 1.386 . S
C534 C536 1.391 . S
C535 C534 1.386 . S
C535 C539 1.393 . S
C536 H525 0.950 . S
C536 C534 1.391 . S
C536 C537 1.400 . S
C537 C531 1.491 . S
C537 C536 1.400 . S
C537 C538 1.398 . S
C538 H526 0.950 . S
C538 C537 1.398 . S
C538 C539 1.391 . S
C539 H527 0.950 . S
C539 C535 1.393 . S
C539 C538 1.391 . S
H540 C548 0.950 . S
H541 C553 0.950 . S
H542 C550 0.950 . S
H543 C552 0.950 . S
H544 C554 0.950 . S
H545 C556 0.950 . S
H546 C558 0.950 . S
H547 C559 0.950 . S
C548 H540 0.950 . S
C548 C549 1.386 . S
C548 C550 1.391 . S
C549 C548 1.386 . S
C549 C553 1.393 . S
C550 H542 0.950 . S
C550 C548 1.391 . S
C550 C551 1.400 . S
C551 C550 1.400 . S
C551 C552 1.398 . S
C551 C557 1.491 . S
C552 H543 0.950 . S
C552 C551 1.398 . S
C552 C553 1.391 . S
C553 H541 0.950 . S
C553 C549 1.393 . S
C553 C552 1.391 . S
C554 H544 0.950 . S
C554 C555 1.386 . S
C554 C556 1.391 1_655 S
C555 C554 1.386 . S
C555 C559 1.393 . S
C556 H545 0.950 . S
C556 C554 1.391 1_455 S
C556 C557 1.400 . S
C557 C551 1.491 . S
C557 C556 1.400 . S
C557 C558 1.398 1_455 S
C558 H546 0.950 . S
C558 C557 1.398 1_655 S
C558 C559 1.391 . S
C559 H547 0.950 . S
C559 C555 1.393 . S
C559 C558 1.391 . S
H560 C568 0.950 . S
H561 C573 0.950 . S
H562 C570 0.950 . S
H563 C572 0.950 . S
H564 C574 0.950 . S
H565 C576 0.950 . S
H566 C578 0.950 . S
H567 C579 0.950 . S
C568 H560 0.950 . S
C568 C569 1.386 . S
C568 C570 1.391 1_545 S
C569 C568 1.386 . S
C569 C573 1.393 . S
C570 H562 0.950 . S
C570 C568 1.391 1_565 S
C570 C571 1.400 . S
C571 C570 1.400 . S
C571 C572 1.398 1_565 S
C571 C577 1.491 . S
C572 H563 0.950 . S
C572 C571 1.398 1_545 S
C572 C573 1.391 . S
C573 H561 0.950 . S
C573 C569 1.393 . S
C573 C572 1.391 . S
C574 H564 0.950 . S
C574 C575 1.386 . S
C574 C576 1.391 . S
C575 C574 1.386 . S
C575 C579 1.393 . S
C576 H565 0.950 . S
C576 C574 1.391 . S
C576 C577 1.400 . S
C577 C571 1.491 . S
C577 C576 1.400 . S
C577 C578 1.398 . S
C578 H566 0.950 . S
C578 C577 1.398 . S
C578 C579 1.391 . S
C579 H567 0.950 . S
C579 C575 1.393 . S
C579 C578 1.391 . S
H580 C588 0.950 . S
H581 C593 0.950 . S
H582 C590 0.950 . S
H583 C592 0.950 . S
H584 C594 0.950 . S
H585 C596 0.950 . S
H586 C598 0.950 . S
H587 C599 0.950 . S
C588 H580 0.950 . S
C588 C589 1.386 . S
C588 C590 1.391 . S
C589 C588 1.386 . S
C589 C593 1.393 . S
C590 H582 0.950 . S
C590 C588 1.391 . S
C590 C591 1.400 . S
C591 C590 1.400 . S
C591 C592 1.398 . S
C591 C597 1.491 . S
C592 H583 0.950 . S
C592 C591 1.398 . S
C592 C593 1.391 . S
C593 H581 0.950 . S
C593 C589 1.393 . S
C593 C592 1.391 . S
C594 H584 0.950 . S
C594 C595 1.386 . S
C594 C596 1.391 . S
C595 C594 1.386 . S
C595 C599 1.393 . S
C596 H585 0.950 . S
C596 C594 1.391 . S
C596 C597 1.400 . S
C597 C591 1.491 . S
C597 C596 1.400 . S
C597 C598 1.398 . S
C598 H586 0.950 . S
C598 C597 1.398 . S
C598 C599 1.391 . S
C599 H587 0.950 . S
C599 C595 1.393 . S
C599 C598 1.391 . S
H600 C608 0.950 . S
H601 C613 0.950 . S
H602 C610 0.950 . S
H603 C612 0.950 . S
H604 C614 0.950 . S
H605 C616 0.950 . S
H606 C618 0.950 . S
H607 C619 0.950 . S
C608 H600 0.950 . S
C608 C609 1.386 . S
C608 C610 1.391 . S
C609 C608 1.386 . S
C609 C613 1.393 . S
C610 H602 0.950 . S
C610 C608 1.391 . S
C610 C611 1.400 1_565 S
C611 C610 1.400 1_545 S
C611 C612 1.398 . S
C611 C617 1.491 . S
C612 H603 0.950 . S
C612 C611 1.398 . S
C612 C613 1.391 1_545 S
C613 H601 0.950 . S
C613 C609 1.393 . S
C613 C612 1.391 1_565 S
C614 H604 0.950 . S
C614 C615 1.386 . S
C614 C616 1.391 . S
C615 C614 1.386 . S
C615 C619 1.393 . S
C616 H605 0.950 . S
C616 C614 1.391 . S
C616 C617 1.400 . S
C617 C611 1.491 . S
C617 C616 1.400 . S
C617 C618 1.398 . S
C618 H606 0.950 . S
C618 C617 1.398 . S
C618 C619 1.391 . S
C619 H607 0.950 . S
C619 C615 1.393 . S
C619 C618 1.391 . S
H620 C628 0.950 . S
H621 C633 0.950 . S
H622 C630 0.950 . S
H623 C632 0.950 . S
H624 C634 0.950 . S
H625 C636 0.950 . S
H626 C638 0.950 . S
H627 C639 0.950 . S
C628 H620 0.950 . S
C628 C629 1.386 . S
C628 C630 1.391 . S
C629 C628 1.386 . S
C629 C633 1.393 . S
C630 H622 0.950 . S
C630 C628 1.391 . S
C630 C631 1.400 . S
C631 C630 1.400 . S
C631 C632 1.398 . S
C631 C637 1.491 . S
C632 H623 0.950 . S
C632 C631 1.398 . S
C632 C633 1.391 . S
C633 H621 0.950 . S
C633 C629 1.393 . S
C633 C632 1.391 . S
C634 H624 0.950 . S
C634 C635 1.386 . S
C634 C636 1.391 . S
C635 C634 1.386 . S
C635 C639 1.393 . S
C636 H625 0.950 . S
C636 C634 1.391 . S
C636 C637 1.400 . S
C637 C631 1.491 . S
C637 C636 1.400 . S
C637 C638 1.398 . S
C638 H626 0.950 . S
C638 C637 1.398 . S
C638 C639 1.391 . S
C639 H627 0.950 . S
C639 C635 1.393 . S
C639 C638 1.391 . S
H640 C648 0.950 . S
H641 C653 0.950 . S
H642 C650 0.950 . S
H643 C652 0.950 . S
H644 C654 0.950 . S
H645 C656 0.950 . S
H646 C658 0.950 . S
H647 C659 0.950 . S
C648 H640 0.950 . S
C648 C649 1.386 . S
C648 C650 1.391 . S
C649 C648 1.386 . S
C649 C653 1.393 . S
C650 H642 0.950 . S
C650 C648 1.391 . S
C650 C651 1.400 . S
C651 C650 1.400 . S
C651 C652 1.398 . S
C651 C657 1.491 . S
C652 H643 0.950 . S
C652 C651 1.398 . S
C652 C653 1.391 . S
C653 H641 0.950 . S
C653 C649 1.393 . S
C653 C652 1.391 . S
C654 H644 0.950 . S
C654 C655 1.386 . S
C654 C656 1.391 1_455 S
C655 C654 1.386 . S
C655 C659 1.393 . S
C656 H645 0.950 . S
C656 C654 1.391 1_655 S
C656 C657 1.400 . S
C657 C651 1.491 . S
C657 C656 1.400 . S
C657 C658 1.398 1_655 S
C658 H646 0.950 . S
C658 C657 1.398 1_455 S
C658 C659 1.391 . S
C659 H647 0.950 . S
C659 C655 1.393 . S
C659 C658 1.391 . S
H660 C668 0.950 . S
H661 C673 0.950 . S
H662 C670 0.950 . S
H663 C672 0.950 . S
H664 C674 0.950 . S
H665 C676 0.950 . S
H666 C678 0.950 . S
H667 C679 0.950 . S
C668 H660 0.950 . S
C668 C669 1.386 . S
C668 C670 1.391 . S
C669 C668 1.386 . S
C669 C673 1.393 . S
C670 H662 0.950 . S
C670 C668 1.391 . S
C670 C671 1.400 . S
C671 C670 1.400 . S
C671 C672 1.398 . S
C671 C677 1.491 . S
C672 H663 0.950 . S
C672 C671 1.398 . S
C672 C673 1.391 . S
C673 H661 0.950 . S
C673 C669 1.393 . S
C673 C672 1.391 . S
C674 H664 0.950 . S
C674 C675 1.386 . S
C674 C676 1.391 . S
C675 C674 1.386 . S
C675 C679 1.393 . S
C676 H665 0.950 . S
C676 C674 1.391 . S
C676 C677 1.400 1_565 S
C677 C671 1.491 . S
C677 C676 1.400 1_545 S
C677 C678 1.398 . S
C678 H666 0.950 . S
C678 C677 1.398 . S
C678 C679 1.391 1_545 S
C679 H667 0.950 . S
C679 C675 1.393 . S
C679 C678 1.391 1_565 S
H680 C688 0.950 . S
H681 C693 0.950 . S
H682 C690 0.950 . S
H683 C692 0.950 . S
H684 C694 0.950 . S
H685 C696 0.950 . S
H686 C698 0.950 . S
H687 C699 0.950 . S
C688 H680 0.950 . S
C688 C689 1.386 . S
C688 C690 1.391 . S
C689 C688 1.386 . S
C689 C693 1.393 . S
C690 H682 0.950 . S
C690 C688 1.391 . S
C690 C691 1.400 . S
C691 C690 1.400 . S
C691 C692 1.398 . S
C691 C697 1.491 . S
C692 H683 0.950 . S
C692 C691 1.398 . S
C692 C693 1.391 . S
C693 H681 0.950 . S
C693 C689 1.393 . S
C693 C692 1.391 . S
C694 H684 0.950 . S
C694 C695 1.386 . S
C694 C696 1.391 . S
C695 C694 1.386 . S
C695 C699 1.393 . S
C696 H685 0.950 . S
C696 C694 1.391 . S
C696 C697 1.400 . S
C697 C691 1.491 . S
C697 C696 1.400 . S
C697 C698 1.398 . S
C698 H686 0.950 . S
C698 C697 1.398 . S
C698 C699 1.391 . S
C699 H687 0.950 . S
C699 C695 1.393 . S
C699 C698 1.391 . S
H700 C708 0.950 . S
H701 C713 0.950 . S
H702 C710 0.950 1_655 S
H703 C712 0.950 . S
H704 C714 0.950 . S
H705 C716 0.950 . S
H706 C718 0.950 . S
H707 C719 0.950 . S
C708 H700 0.950 . S
C708 C709 1.386 . S
C708 C710 1.391 . S
C709 C708 1.386 . S
C709 C713 1.393 . S
C710 H702 0.950 1_455 S
C710 C708 1.391 . S
C710 C711 1.400 1_455 S
C711 C710 1.400 1_655 S
C711 C712 1.398 1_655 S
C711 C717 1.491 . S
C712 H703 0.950 . S
C712 C711 1.398 1_455 S
C712 C713 1.391 . S
C713 H701 0.950 . S
C713 C709 1.393 . S
C713 C712 1.391 . S
C714 H704 0.950 . S
C714 C715 1.386 . S
C714 C716 1.391 . S
C715 C714 1.386 . S
C715 C719 1.393 . S
C716 H705 0.950 . S
C716 C714 1.391 . S
C716 C717 1.400 . S
C717 C711 1.491 . S
C717 C716 1.400 . S
C717 C718 1.398 . S
C718 H706 0.950 . S
C718 C717 1.398 . S
C718 C719 1.391 . S
C719 H707 0.950 . S
C719 C715 1.393 . S
C719 C718 1.391 . S
H720 C728 0.950 . S
H721 C733 0.950 . S
H722 C730 0.950 . S
H723 C732 0.950 . S
H724 C734 0.950 . S
H725 C736 0.950 . S
H726 C738 0.950 . S
H727 C739 0.950 . S
C728 H720 0.950 . S
C728 C729 1.386 . S
C728 C730 1.391 . S
C729 C728 1.386 . S
C729 C733 1.393 . S
C730 H722 0.950 . S
C730 C728 1.391 . S
C730 C731 1.400 . S
C731 C730 1.400 . S
C731 C732 1.398 . S
C731 C737 1.491 . S
C732 H723 0.950 . S
C732 C731 1.398 . S
C732 C733 1.391 . S
C733 H721 0.950 . S
C733 C729 1.393 . S
C733 C732 1.391 . S
C734 H724 0.950 . S
C734 C735 1.386 . S
C734 C736 1.391 . S
C735 C734 1.386 . S
C735 C739 1.393 . S
C736 H725 0.950 . S
C736 C734 1.391 . S
C736 C737 1.400 . S
C737 C731 1.491 . S
C737 C736 1.400 . S
C737 C738 1.398 . S
C738 H726 0.950 . S
C738 C737 1.398 . S
C738 C739 1.391 . S
C739 H727 0.950 . S
C739 C735 1.393 . S
C739 C738 1.391 . S
H740 C748 0.950 . S
H741 C753 0.950 . S
H742 C750 0.950 . S
H743 C752 0.950 . S
H744 C754 0.950 . S
H745 C756 0.950 . S
H746 C758 0.950 . S
H747 C759 0.950 . S
C748 H740 0.950 . S
C748 C749 1.386 . S
C748 C750 1.391 . S
C749 C748 1.386 . S
C749 C753 1.393 . S
C750 H742 0.950 . S
C750 C748 1.391 . S
C750 C751 1.400 . S
C751 C750 1.400 . S
C751 C752 1.398 . S
C751 C757 1.491 . S
C752 H743 0.950 . S
C752 C751 1.398 . S
C752 C753 1.391 . S
C753 H741 0.950 . S
C753 C749 1.393 . S
C753 C752 1.391 . S
C754 H744 0.950 . S
C754 C755 1.386 . S
C754 C756 1.391 . S
C755 C754 1.386 . S
C755 C759 1.393 . S
C756 H745 0.950 . S
C756 C754 1.391 . S
C756 C757 1.400 . S
C757 C751 1.491 . S
C757 C756 1.400 . S
C757 C758 1.398 . S
C758 H746 0.950 . S
C758 C757 1.398 . S
C758 C759 1.391 . S
C759 H747 0.950 . S
C759 C755 1.393 . S
C759 C758 1.391 . S
H760 C768 0.950 . S
H761 C773 0.950 . S
H762 C770 0.950 . S
H763 C772 0.950 . S
H764 C774 0.950 . S
H765 C776 0.950 . S
H766 C778 0.950 . S
H767 C779 0.950 . S
C768 H760 0.950 . S
C768 C769 1.386 . S
C768 C770 1.391 . S
C769 C768 1.386 . S
C769 C773 1.393 . S
C770 H762 0.950 . S
C770 C768 1.391 . S
C770 C771 1.400 . S
C771 C770 1.400 . S
C771 C772 1.398 . S
C771 C777 1.491 . S
C772 H763 0.950 . S
C772 C771 1.398 . S
C772 C773 1.391 . S
C773 H761 0.950 . S
C773 C769 1.393 . S
C773 C772 1.391 . S
C774 H764 0.950 . S
C774 C775 1.386 . S
C774 C776 1.391 . S
C775 C774 1.386 . S
C775 C779 1.393 . S
C776 H765 0.950 . S
C776 C774 1.391 . S
C776 C777 1.400 . S
C777 C771 1.491 . S
C777 C776 1.400 . S
C777 C778 1.398 . S
C778 H766 0.950 . S
C778 C777 1.398 . S
C778 C779 1.391 . S
C779 H767 0.950 . S
C779 C775 1.393 . S
C779 C778 1.391 . S
H780 C788 0.950 . S
H781 C793 0.950 . S
H782 C790 0.950 . S
H783 C792 0.950 . S
H784 C794 0.950 . S
H785 C796 0.950 . S
H786 C798 0.950 . S
H787 C799 0.950 . S
C788 H780 0.950 . S
C788 C789 1.386 . S
C788 C790 1.391 . S
C789 C788 1.386 . S
C789 C793 1.393 . S
C790 H782 0.950 . S
C790 C788 1.391 . S
C790 C791 1.400 . S
C791 C790 1.400 . S
C791 C792 1.398 . S
C791 C797 1.491 . S
C792 H783 0.950 . S
C792 C791 1.398 . S
C792 C793 1.391 . S
C793 H781 0.950 . S
C793 C789 1.393 . S
C793 C792 1.391 . S
C794 H784 0.950 . S
C794 C795 1.386 . S
C794 C796 1.391 . S
C795 C794 1.386 . S
C795 C799 1.393 . S
C796 H785 0.950 . S
C796 C794 1.391 . S
C796 C797 1.400 . S
C797 C791 1.491 . S
C797 C796 1.400 . S
C797 C798 1.398 . S
C798 H786 0.950 . S
C798 C797 1.398 . S
C798 C799 1.391 . S
C799 H787 0.950 . S
C799 C795 1.393 . S
C799 C798 1.391 . S
H800 C808 0.950 . S
H801 C813 0.950 . S
H802 C810 0.950 . S
H803 C812 0.950 . S
H804 C814 0.950 . S
H805 C816 0.950 . S
H806 C818 0.950 . S
H807 C819 0.950 . S
C808 H800 0.950 . S
C808 C809 1.386 . S
C808 C810 1.391 . S
C809 C808 1.386 . S
C809 C813 1.393 . S
C810 H802 0.950 . S
C810 C808 1.391 . S
C810 C811 1.400 . S
C811 C810 1.400 . S
C811 C812 1.398 . S
C811 C817 1.491 . S
C812 H803 0.950 . S
C812 C811 1.398 . S
C812 C813 1.391 . S
C813 H801 0.950 . S
C813 C809 1.393 . S
C813 C812 1.391 . S
C814 H804 0.950 . S
C814 C815 1.386 . S
C814 C816 1.391 . S
C815 C814 1.386 . S
C815 C819 1.393 . S
C816 H805 0.950 . S
C816 C814 1.391 . S
C816 C817 1.400 . S
C817 C811 1.491 . S
C817 C816 1.400 . S
C817 C818 1.398 . S
C818 H806 0.950 . S
C818 C817 1.398 . S
C818 C819 1.391 . S
C819 H807 0.950 . S
C819 C815 1.393 . S
C819 C818 1.391 . S
H820 C828 0.950 . S
H821 C833 0.950 . S
H822 C830 0.950 . S
H823 C832 0.950 . S
H824 C834 0.950 . S
H825 C836 0.950 . S
H826 C838 0.950 . S
H827 C839 0.950 . S
C828 H820 0.950 . S
C828 C829 1.386 . S
C828 C830 1.391 . S
C829 C828 1.386 . S
C829 C833 1.393 . S
C830 H822 0.950 . S
C830 C828 1.391 . S
C830 C831 1.400 . S
C831 C830 1.400 . S
C831 C832 1.398 . S
C831 C837 1.491 . S
C832 H823 0.950 . S
C832 C831 1.398 . S
C832 C833 1.391 . S
C833 H821 0.950 . S
C833 C829 1.393 . S
C833 C832 1.391 . S
C834 H824 0.950 . S
C834 C835 1.386 . S
C834 C836 1.391 . S
C835 C834 1.386 . S
C835 C839 1.393 . S
C836 H825 0.950 . S
C836 C834 1.391 . S
C836 C837 1.400 . S
C837 C831 1.491 . S
C837 C836 1.400 . S
C837 C838 1.398 . S
C838 H826 0.950 . S
C838 C837 1.398 . S
C838 C839 1.391 . S
C839 H827 0.950 . S
C839 C835 1.393 . S
C839 C838 1.391 . S
H840 C848 0.950 . S
H841 C853 0.950 . S
H842 C850 0.950 . S
H843 C852 0.950 1_545 S
H844 C854 0.950 . S
H845 C856 0.950 . S
H846 C858 0.950 1_565 S
H847 C859 0.950 . S
C848 H840 0.950 . S
C848 C849 1.386 . S
C848 C850 1.391 1_556 S
C849 C848 1.386 . S
C849 C853 1.393 . S
C850 H842 0.950 . S
C850 C848 1.391 1_554 S
C850 C851 1.400 1_554 S
C851 C850 1.400 1_556 S
C851 C852 1.398 . S
C851 C857 1.491 1_566 S
C852 H843 0.950 1_565 S
C852 C851 1.398 . S
C852 C853 1.391 . S
C853 H841 0.950 . S
C853 C849 1.393 . S
C853 C852 1.391 . S
C854 H844 0.950 . S
C854 C855 1.386 . S
C854 C856 1.391 1_554 S
C855 C854 1.386 . S
C855 C859 1.393 . S
C856 H845 0.950 . S
C856 C854 1.391 1_556 S
C856 C857 1.400 1_556 S
C857 C851 1.491 1_544 S
C857 C856 1.400 1_554 S
C857 C858 1.398 . S
C858 H846 0.950 1_545 S
C858 C857 1.398 . S
C858 C859 1.391 . S
C859 H847 0.950 . S
C859 C855 1.393 . S
C859 C858 1.391 . S
H860 C868 0.950 . S
H861 C873 0.950 . S
H862 C870 0.950 . S
H863 C872 0.950 . S
H864 C874 0.950 . S
H865 C876 0.950 . S
H866 C878 0.950 . S
H867 C879 0.950 . S
C868 H860 0.950 . S
C868 C869 1.386 . S
C868 C870 1.391 . S
C869 C868 1.386 . S
C869 C873 1.393 . S
C870 H862 0.950 . S
C870 C868 1.391 . S
C870 C871 1.400 . S
C871 C870 1.400 . S
C871 C872 1.398 . S
C871 C877 1.491 . S
C872 H863 0.950 . S
C872 C871 1.398 . S
C872 C873 1.391 . S
C873 H861 0.950 . S
C873 C869 1.393 . S
C873 C872 1.391 . S
C874 H864 0.950 . S
C874 C875 1.386 . S
C874 C876 1.391 . S
C875 C874 1.386 . S
C875 C879 1.393 . S
C876 H865 0.950 . S
C876 C874 1.391 . S
C876 C877 1.400 . S
C877 C871 1.491 . S
C877 C876 1.400 . S
C877 C878 1.398 . S
C878 H866 0.950 . S
C878 C877 1.398 . S
C878 C879 1.391 . S
C879 H867 0.950 . S
C879 C875 1.393 . S
C879 C878 1.391 . S
H880 C888 0.950 . S
H881 C893 0.950 . S
H882 C890 0.950 1_554 S
H883 C892 0.940 1_655 S
H884 C894 0.950 . S
H885 C896 0.950 1_556 S
H886 C898 0.940 1_455 S
H887 C899 0.950 . S
C888 H880 0.950 . S
C888 C889 1.386 . S
C888 C890 1.391 . S
C889 C888 1.386 . S
C889 C893 1.393 . S
C890 H882 0.950 1_556 S
C890 C888 1.391 . S
C890 C891 1.400 . S
C891 C890 1.400 . S
C891 C892 1.398 . S
C891 C897 1.491 1_456 S
C892 H883 0.940 1_455 S
C892 C891 1.398 . S
C892 C893 1.391 . S
C893 H881 0.950 . S
C893 C889 1.393 . S
C893 C892 1.391 . S
C894 H884 0.950 . S
C894 C895 1.386 . S
C894 C896 1.391 . S
C895 C894 1.386 . S
C895 C899 1.393 . S
C896 H885 0.950 1_554 S
C896 C894 1.391 . S
C896 C897 1.400 . S
C897 C891 1.491 1_654 S
C897 C896 1.400 . S
C897 C898 1.398 . S
C898 H886 0.940 1_655 S
C898 C897 1.398 . S
C898 C899 1.391 . S
C899 H887 0.950 . S
C899 C895 1.393 . S
C899 C898 1.391 . S
H900 C908 0.950 . S
H901 C913 0.950 . S
H902 C910 0.950 . S
H903 C912 0.950 . S
H904 C914 0.950 . S
H905 C916 0.950 . S
H906 C918 0.950 . S
H907 C919 0.950 . S
C908 H900 0.950 . S
C908 C909 1.386 . S
C908 C910 1.391 . S
C909 C908 1.386 . S
C909 C913 1.393 . S
C910 H902 0.950 . S
C910 C908 1.391 . S
C910 C911 1.400 . S
C911 C910 1.400 . S
C911 C912 1.398 . S
C911 C917 1.491 1_545 S
C912 H903 0.950 . S
C912 C911 1.398 . S
C912 C913 1.391 . S
C913 H901 0.950 . S
C913 C909 1.393 . S
C913 C912 1.391 . S
C914 H904 0.950 . S
C914 C915 1.386 . S
C914 C916 1.391 . S
C915 C914 1.386 . S
C915 C919 1.393 . S
C916 H905 0.950 . S
C916 C914 1.391 . S
C916 C917 1.400 . S
C917 C911 1.491 1_565 S
C917 C916 1.400 . S
C917 C918 1.398 . S
C918 H906 0.950 . S
C918 C917 1.398 . S
C918 C919 1.391 . S
C919 H907 0.950 . S
C919 C915 1.393 . S
C919 C918 1.391 . S
H920 C928 0.950 . S
H921 C933 0.950 . S
H922 C930 0.936 1_556 S
H923 C932 0.950 . S
H924 C934 0.950 . S
H925 C936 0.936 1_554 S
H926 C938 0.950 . S
H927 C939 0.950 . S
C928 H920 0.950 . S
C928 C929 1.386 . S
C928 C930 1.400 . S
C929 C928 1.386 . S
C929 C933 1.393 . S
C930 H922 0.936 1_554 S
C930 C928 1.400 . S
C930 C931 1.405 . S
C931 C930 1.405 . S
C931 C932 1.398 . S
C931 C937 1.491 1_554 S
C932 H923 0.950 . S
C932 C931 1.398 . S
C932 C933 1.391 . S
C933 H921 0.950 . S
C933 C929 1.393 . S
C933 C932 1.391 . S
C934 H924 0.950 . S
C934 C935 1.386 . S
C934 C936 1.400 . S
C935 C934 1.386 . S
C935 C939 1.393 . S
C936 H925 0.936 1_556 S
C936 C934 1.400 . S
C936 C937 1.405 . S
C937 C931 1.491 1_556 S
C937 C936 1.405 . S
C937 C938 1.398 . S
C938 H926 0.950 . S
C938 C937 1.398 . S
C938 C939 1.391 . S
C939 H927 0.950 . S
C939 C935 1.393 . S
C939 C938 1.391 . S
H940 C948 0.950 . S
H941 C953 0.950 . S
H942 C950 0.950 . S
H943 C952 0.950 . S
H944 C954 0.950 . S
H945 C956 0.950 . S
H946 C958 0.950 . S
H947 C959 0.950 . S
C948 H940 0.950 . S
C948 C949 1.386 . S
C948 C950 1.391 . S
C949 C948 1.386 . S
C949 C953 1.393 . S
C950 H942 0.950 . S
C950 C948 1.391 . S
C950 C951 1.400 . S
C951 C950 1.400 . S
C951 C952 1.398 . S
C951 C957 1.491 1_455 S
C952 H943 0.950 . S
C952 C951 1.398 . S
C952 C953 1.391 . S
C953 H941 0.950 . S
C953 C949 1.393 . S
C953 C952 1.391 . S
C954 H944 0.950 . S
C954 C955 1.386 . S
C954 C956 1.391 . S
C955 C954 1.386 . S
C955 C959 1.393 . S
C956 H945 0.950 . S
C956 C954 1.391 . S
C956 C957 1.400 . S
C957 C951 1.491 1_655 S
C957 C956 1.400 . S
C957 C958 1.398 . S
C958 H946 0.950 . S
C958 C957 1.398 . S
C958 C959 1.391 . S
C959 H947 0.950 . S
C959 C955 1.393 . S
C959 C958 1.391 . S
H960 C968 0.950 . S
H961 C973 0.950 . S
H962 C970 0.950 . S
H963 C972 0.950 . S
H964 C974 0.950 . S
H965 C976 0.950 . S
H966 C978 0.950 . S
H967 C979 0.950 . S
C968 H960 0.950 . S
C968 C969 1.386 . S
C968 C970 1.391 . S
C969 C968 1.386 . S
C969 C973 1.393 . S
C970 H962 0.950 . S
C970 C968 1.391 . S
C970 C971 1.400 . S
C971 C970 1.400 . S
C971 C972 1.398 . S
C971 C977 1.491 . S
C972 H963 0.950 . S
C972 C971 1.398 . S
C972 C973 1.391 . S
C973 H961 0.950 . S
C973 C969 1.393 . S
C973 C972 1.391 . S
C974 H964 0.950 . S
C974 C975 1.386 . S
C974 C976 1.391 . S
C975 C974 1.386 . S
C975 C979 1.393 . S
C976 H965 0.950 . S
C976 C974 1.391 . S
C976 C977 1.400 . S
C977 C971 1.491 . S
C977 C976 1.400 . S
C977 C978 1.398 . S
C978 H966 0.950 . S
C978 C977 1.398 . S
C978 C979 1.391 . S
C979 H967 0.950 . S
C979 C975 1.393 . S
C979 C978 1.391 . S
H980 C988 0.950 . S
H981 C993 0.950 . S
H982 C990 0.950 . S
H983 C992 0.950 . S
H984 C994 0.950 . S
H985 C996 0.950 . S
H986 C998 0.950 . S
H987 C999 0.950 . S
C988 H980 0.950 . S
C988 C989 1.386 . S
C988 C990 1.391 . S
C989 C988 1.386 . S
C989 C993 1.393 . S
C990 H982 0.950 . S
C990 C988 1.391 . S
C990 C991 1.400 . S
C991 C990 1.400 . S
C991 C992 1.398 . S
C991 C997 1.491 . S
C992 H983 0.950 . S
C992 C991 1.398 . S
C992 C993 1.391 . S
C993 H981 0.950 . S
C993 C989 1.393 . S
C993 C992 1.391 . S
C994 H984 0.950 . S
C994 C995 1.386 . S
C994 C996 1.391 . S
C995 C994 1.386 . S
C995 C999 1.393 . S
C996 H985 0.950 . S
C996 C994 1.391 . S
C996 C997 1.400 . S
C997 C991 1.491 . S
C997 C996 1.400 . S
C997 C998 1.398 . S
C998 H986 0.950 . S
C998 C997 1.398 . S
C998 C999 1.391 . S
C999 H987 0.950 . S
C999 C995 1.393 . S
C999 C998 1.391 . S
H1000 C1008 0.950 . S
H1001 C1013 0.950 . S
H1002 C1010 0.950 . S
H1003 C1012 0.950 . S
H1004 C1014 0.950 . S
H1005 C1016 0.950 . S
H1006 C1018 0.950 . S
H1007 C1019 0.950 . S
C1008 H1000 0.950 . S
C1008 C1009 1.386 . S
C1008 C1010 1.391 . S
C1009 C1008 1.386 . S
C1009 C1013 1.393 . S
C1010 H1002 0.950 . S
C1010 C1008 1.391 . S
C1010 C1011 1.400 . S
C1011 C1010 1.400 . S
C1011 C1012 1.398 . S
C1011 C1017 1.491 . S
C1012 H1003 0.950 . S
C1012 C1011 1.398 . S
C1012 C1013 1.391 . S
C1013 H1001 0.950 . S
C1013 C1009 1.393 . S
C1013 C1012 1.391 . S
C1014 H1004 0.950 . S
C1014 C1015 1.386 . S
C1014 C1016 1.391 . S
C1015 C1014 1.386 . S
C1015 C1019 1.393 . S
C1016 H1005 0.950 . S
C1016 C1014 1.391 . S
C1016 C1017 1.400 . S
C1017 C1011 1.491 . S
C1017 C1016 1.400 . S
C1017 C1018 1.398 . S
C1018 H1006 0.950 . S
C1018 C1017 1.398 . S
C1018 C1019 1.391 . S
C1019 H1007 0.950 . S
C1019 C1015 1.393 . S
C1019 C1018 1.391 . S
H1020 C1028 0.950 . S
H1021 C1033 0.950 . S
H1022 C1030 0.950 . S
H1023 C1032 0.950 . S
H1024 C1034 0.950 . S
H1025 C1036 0.950 . S
H1026 C1038 0.950 . S
H1027 C1039 0.950 . S
C1028 H1020 0.950 . S
C1028 C1029 1.386 . S
C1028 C1030 1.391 . S
C1029 C1028 1.386 . S
C1029 C1033 1.393 . S
C1030 H1022 0.950 . S
C1030 C1028 1.391 . S
C1030 C1031 1.400 . S
C1031 C1030 1.400 . S
C1031 C1032 1.398 . S
C1031 C1037 1.491 . S
C1032 H1023 0.950 . S
C1032 C1031 1.398 . S
C1032 C1033 1.391 . S
C1033 H1021 0.950 . S
C1033 C1029 1.393 . S
C1033 C1032 1.391 . S
C1034 H1024 0.950 . S
C1034 C1035 1.386 . S
C1034 C1036 1.391 . S
C1035 C1034 1.386 . S
C1035 C1039 1.393 . S
C1036 H1025 0.950 . S
C1036 C1034 1.391 . S
C1036 C1037 1.400 . S
C1037 C1031 1.491 . S
C1037 C1036 1.400 . S
C1037 C1038 1.398 . S
C1038 H1026 0.950 . S
C1038 C1037 1.398 . S
C1038 C1039 1.391 . S
C1039 H1027 0.950 . S
C1039 C1035 1.393 . S
C1039 C1038 1.391 . S
H1040 C1048 0.950 . S
H1041 C1053 0.950 . S
H1042 C1050 0.950 . S
H1043 C1052 0.950 . S
H1044 C1054 0.950 . S
H1045 C1056 0.950 . S
H1046 C1058 0.950 . S
H1047 C1059 0.950 . S
C1048 H1040 0.950 . S
C1048 C1049 1.386 . S
C1048 C1050 1.391 . S
C1049 C1048 1.386 . S
C1049 C1053 1.393 . S
C1050 H1042 0.950 . S
C1050 C1048 1.391 . S
C1050 C1051 1.400 . S
C1051 C1050 1.400 . S
C1051 C1052 1.398 . S
C1051 C1057 1.491 . S
C1052 H1043 0.950 . S
C1052 C1051 1.398 . S
C1052 C1053 1.391 . S
C1053 H1041 0.950 . S
C1053 C1049 1.393 . S
C1053 C1052 1.391 . S
C1054 H1044 0.950 . S
C1054 C1055 1.386 . S
C1054 C1056 1.391 . S
C1055 C1054 1.386 . S
C1055 C1059 1.393 . S
C1056 H1045 0.950 . S
C1056 C1054 1.391 . S
C1056 C1057 1.400 . S
C1057 C1051 1.491 . S
C1057 C1056 1.400 . S
C1057 C1058 1.398 . S
C1058 H1046 0.950 . S
C1058 C1057 1.398 . S
C1058 C1059 1.391 . S
C1059 H1047 0.950 . S
C1059 C1055 1.393 . S
C1059 C1058 1.391 . S
H1060 C1068 0.950 . S
H1061 C1073 0.950 . S
H1062 C1070 0.950 . S
H1063 C1072 0.950 . S
H1064 C1074 0.950 . S
H1065 C1076 0.950 . S
H1066 C1078 0.950 . S
H1067 C1079 0.950 . S
C1068 H1060 0.950 . S
C1068 C1069 1.386 . S
C1068 C1070 1.391 . S
C1069 C1068 1.386 . S
C1069 C1073 1.393 . S
C1070 H1062 0.950 . S
C1070 C1068 1.391 . S
C1070 C1071 1.400 . S
C1071 C1070 1.400 . S
C1071 C1072 1.398 . S
C1071 C1077 1.491 . S
C1072 H1063 0.950 . S
C1072 C1071 1.398 . S
C1072 C1073 1.391 . S
C1073 H1061 0.950 . S
C1073 C1069 1.393 . S
C1073 C1072 1.391 . S
C1074 H1064 0.950 . S
C1074 C1075 1.386 . S
C1074 C1076 1.391 . S
C1075 C1074 1.386 . S
C1075 C1079 1.393 . S
C1076 H1065 0.950 . S
C1076 C1074 1.391 . S
C1076 C1077 1.400 . S
C1077 C1071 1.491 . S
C1077 C1076 1.400 . S
C1077 C1078 1.398 . S
C1078 H1066 0.950 . S
C1078 C1077 1.398 . S
C1078 C1079 1.391 . S
C1079 H1067 0.950 . S
C1079 C1075 1.393 . S
C1079 C1078 1.391 . S
H1080 C1088 0.950 . S
H1081 C1093 0.950 . S
H1082 C1090 0.950 . S
H1083 C1092 0.950 . S
H1084 C1094 0.950 . S
H1085 C1096 0.950 . S
H1086 C1098 0.950 . S
H1087 C1099 0.950 . S
C1088 H1080 0.950 . S
C1088 C1089 1.386 . S
C1088 C1090 1.391 . S
C1089 C1088 1.386 . S
C1089 C1093 1.393 . S
C1090 H1082 0.950 . S
C1090 C1088 1.391 . S
C1090 C1091 1.400 . S
C1091 C1090 1.400 . S
C1091 C1092 1.398 . S
C1091 C1097 1.491 . S
C1092 H1083 0.950 . S
C1092 C1091 1.398 . S
C1092 C1093 1.391 . S
C1093 H1081 0.950 . S
C1093 C1089 1.393 . S
C1093 C1092 1.391 . S
C1094 H1084 0.950 . S
C1094 C1095 1.386 . S
C1094 C1096 1.391 . S
C1095 C1094 1.386 . S
C1095 C1099 1.393 . S
C1096 H1085 0.950 . S
C1096 C1094 1.391 . S
C1096 C1097 1.400 . S
C1097 C1091 1.491 . S
C1097 C1096 1.400 . S
C1097 C1098 1.398 . S
C1098 H1086 0.950 . S
C1098 C1097 1.398 . S
C1098 C1099 1.391 . S
C1099 H1087 0.950 . S
C1099 C1095 1.393 . S
C1099 C1098 1.391 . S
H1100 C1108 0.950 . S
H1101 C1113 0.950 . S
H1102 C1110 0.950 . S
H1103 C1112 0.950 . S
H1104 C1114 0.950 . S
H1105 C1116 0.950 . S
H1106 C1118 0.950 . S
H1107 C1119 0.950 . S
C1108 H1100 0.950 . S
C1108 C1109 1.386 . S
C1108 C1110 1.391 . S
C1109 C1108 1.386 . S
C1109 C1113 1.393 . S
C1110 H1102 0.950 . S
C1110 C1108 1.391 . S
C1110 C1111 1.400 . S
C1111 C1110 1.400 . S
C1111 C1112 1.398 . S
C1111 C1117 1.491 . S
C1112 H1103 0.950 . S
C1112 C1111 1.398 . S
C1112 C1113 1.391 . S
C1113 H1101 0.950 . S
C1113 C1109 1.393 . S
C1113 C1112 1.391 . S
C1114 H1104 0.950 . S
C1114 C1115 1.386 . S
C1114 C1116 1.391 . S
C1115 C1114 1.386 . S
C1115 C1119 1.393 . S
C1116 H1105 0.950 . S
C1116 C1114 1.391 . S
C1116 C1117 1.400 . S
C1117 C1111 1.491 . S
C1117 C1116 1.400 . S
C1117 C1118 1.398 . S
C1118 H1106 0.950 . S
C1118 C1117 1.398 . S
C1118 C1119 1.391 . S
C1119 H1107 0.950 . S
C1119 C1115 1.393 . S
C1119 C1118 1.391 . S
H1120 C1128 0.950 . S
H1121 C1133 0.950 . S
H1122 C1130 0.950 . S
H1123 C1132 0.950 . S
H1124 C1134 0.950 . S
H1125 C1136 0.950 . S
H1126 C1138 0.950 . S
H1127 C1139 0.950 . S
C1128 H1120 0.950 . S
C1128 C1129 1.386 . S
C1128 C1130 1.391 . S
C1129 C1128 1.386 . S
C1129 C1133 1.393 . S
C1130 H1122 0.950 . S
C1130 C1128 1.391 . S
C1130 C1131 1.400 . S
C1131 C1130 1.400 . S
C1131 C1132 1.398 . S
C1131 C1137 1.491 . S
C1132 H1123 0.950 . S
C1132 C1131 1.398 . S
C1132 C1133 1.391 . S
C1133 H1121 0.950 . S
C1133 C1129 1.393 . S
C1133 C1132 1.391 . S
C1134 H1124 0.950 . S
C1134 C1135 1.386 . S
C1134 C1136 1.391 . S
C1135 C1134 1.386 . S
C1135 C1139 1.393 . S
C1136 H1125 0.950 . S
C1136 C1134 1.391 . S
C1136 C1137 1.400 . S
C1137 C1131 1.491 . S
C1137 C1136 1.400 . S
C1137 C1138 1.398 . S
C1138 H1126 0.950 . S
C1138 C1137 1.398 . S
C1138 C1139 1.391 . S
C1139 H1127 0.950 . S
C1139 C1135 1.393 . S
C1139 C1138 1.391 . S
H1140 C1148 0.950 . S
H1141 C1153 0.950 . S
H1142 C1150 0.950 . S
H1143 C1152 0.950 . S
H1144 C1154 0.950 . S
H1145 C1156 0.950 . S
H1146 C1158 0.950 . S
H1147 C1159 0.950 . S
C1148 H1140 0.950 . S
C1148 C1149 1.386 . S
C1148 C1150 1.391 . S
C1149 C1148 1.386 . S
C1149 C1153 1.393 . S
C1150 H1142 0.950 . S
C1150 C1148 1.391 . S
C1150 C1151 1.400 . S
C1151 C1150 1.400 . S
C1151 C1152 1.398 . S
C1151 C1157 1.491 . S
C1152 H1143 0.950 . S
C1152 C1151 1.398 . S
C1152 C1153 1.391 . S
C1153 H1141 0.950 . S
C1153 C1149 1.393 . S
C1153 C1152 1.391 . S
C1154 H1144 0.950 . S
C1154 C1155 1.386 . S
C1154 C1156 1.391 . S
C1155 C1154 1.386 . S
C1155 C1159 1.393 . S
C1156 H1145 0.950 . S
C1156 C1154 1.391 . S
C1156 C1157 1.400 . S
C1157 C1151 1.491 . S
C1157 C1156 1.400 . S
C1157 C1158 1.398 . S
C1158 H1146 0.950 . S
C1158 C1157 1.398 . S
C1158 C1159 1.391 . S
C1159 H1147 0.950 . S
C1159 C1155 1.393 . S
C1159 C1158 1.391 . S
H1160 C1168 0.950 . S
H1161 C1173 0.950 . S
H1162 C1170 0.950 . S
H1163 C1172 0.950 . S
H1164 C1174 0.950 . S
H1165 C1176 0.950 . S
H1166 C1178 0.950 . S
H1167 C1179 0.950 . S
C1168 H1160 0.950 . S
C1168 C1169 1.386 . S
C1168 C1170 1.391 . S
C1169 C1168 1.386 . S
C1169 C1173 1.393 . S
C1170 H1162 0.950 . S
C1170 C1168 1.391 . S
C1170 C1171 1.400 . S
C1171 C1170 1.400 . S
C1171 C1172 1.398 . S
C1171 C1177 1.491 . S
C1172 H1163 0.950 . S
C1172 C1171 1.398 . S
C1172 C1173 1.391 . S
C1173 H1161 0.950 . S
C1173 C1169 1.393 . S
C1173 C1172 1.391 . S
C1174 H1164 0.950 . S
C1174 C1175 1.386 . S
C1174 C1176 1.391 . S
C1175 C1174 1.386 . S
C1175 C1179 1.393 . S
C1176 H1165 0.950 . S
C1176 C1174 1.391 . S
C1176 C1177 1.400 . S
C1177 C1171 1.491 . S
C1177 C1176 1.400 . S
C1177 C1178 1.398 . S
C1178 H1166 0.950 . S
C1178 C1177 1.398 . S
C1178 C1179 1.391 . S
C1179 H1167 0.950 . S
C1179 C1175 1.393 . S
C1179 C1178 1.391 . S
H1180 C1188 0.950 . S
H1181 C1193 0.950 . S
H1182 C1190 0.950 . S
H1183 C1192 0.950 . S
H1184 C1194 0.950 . S
H1185 C1196 0.950 . S
H1186 C1198 0.950 . S
H1187 C1199 0.950 . S
C1188 H1180 0.950 . S
C1188 C1189 1.386 . S
C1188 C1190 1.391 . S
C1189 C1188 1.386 . S
C1189 C1193 1.393 . S
C1190 H1182 0.950 . S
C1190 C1188 1.391 . S
C1190 C1191 1.400 . S
C1191 C1190 1.400 . S
C1191 C1192 1.398 . S
C1191 C1197 1.491 . S
C1192 H1183 0.950 . S
C1192 C1191 1.398 . S
C1192 C1193 1.391 . S
C1193 H1181 0.950 . S
C1193 C1189 1.393 . S
C1193 C1192 1.391 . S
C1194 H1184 0.950 . S
C1194 C1195 1.386 . S
C1194 C1196 1.391 . S
C1195 C1194 1.386 . S
C1195 C1199 1.393 . S
C1196 H1185 0.950 . S
C1196 C1194 1.391 . S
C1196 C1197 1.400 . S
C1197 C1191 1.491 . S
C1197 C1196 1.400 . S
C1197 C1198 1.398 . S
C1198 H1186 0.950 . S
C1198 C1197 1.398 . S
C1198 C1199 1.391 . S
C1199 H1187 0.950 . S
C1199 C1195 1.393 . S
C1199 C1198 1.391 . S
C489 C99 1.409 . S
C495 C15 1.380 . S
C509 C130 1.402 . S
C515 C46 1.355 . S
C529 C95 1.375 . S
C535 C179 1.408 . S
C549 C126 1.359 . S
C555 C210 1.402 . S
C569 C19 1.403 . S
C575 C175 1.365 . S
C589 C50 1.403 . S
C595 C206 1.365 . S
C609 C410 1.404 . S
C615 C246 1.367 . S
C629 C295 1.378 . S
C635 C459 1.407 . S
C649 C326 1.365 . S
C655 C250 1.403 . S
C669 C375 1.377 . S
C675 C299 1.407 . S
C689 C406 1.368 . S
C695 C330 1.404 . S
C709 C379 1.409 . S
C715 C455 1.380 . S
C729 C129 1.792 . S
C735 C18 1.787 . S
C749 C49 1.792 . S
C755 C178 1.787 . S
C769 C98 1.799 . S
C775 C209 1.781 . S
C789 C249 1.791 . S
C795 C378 1.788 . S
C809 C298 1.791 . S
C815 C409 1.789 . S
C829 C329 1.790 . S
C835 C458 1.790 . S
C849 C289 2.098 . S
C855 C9 2.113 . S
C869 C58 2.103 . S
C875 C338 2.094 . S
C889 C369 2.110 . S
C895 C89 2.123 . S
C909 C138 2.094 . S
C915 C418 2.101 . S
C929 C169 2.095 . S
C935 C449 2.108 . S
C949 C258 2.115 . S
C955 C218 2.124 . S
C969 C90 1.691 . S
C975 C6 1.699 . S
C989 C55 1.701 . S
C995 C139 1.689 . S
C1009 C86 1.702 . S
C1015 C170 1.684 . S
C1029 C135 1.701 . S
C1035 C219 1.679 . S
C1049 C10 1.678 . S
C1055 C166 1.701 . S
C1069 C59 1.680 . S
C1075 C215 1.695 . S
C1089 C419 1.686 . S
C1095 C255 1.702 . S
C1109 C286 1.694 . S
C1115 C450 1.682 . S
C1129 C335 1.695 . S
C1135 C259 1.686 . S
C1149 C290 1.678 . S
C1155 C366 1.696 . S
C1169 C415 1.696 . S
C1175 C339 1.688 . S
C1189 C446 1.702 . S
C1195 C370 1.687 . S
