# Generated by pormake.
# Topology sra, (4)-cn, num edge types: 1
# Building blocks:
#     Node 0, Type 0, BuildingBlock: QUQFOY_clean_sbu_1, # of connection points: 4
#     Node 1, Type 0, BuildingBlock: QUQFOY_clean_sbu_1, # of connection points: 4
#     Node 2, Type 0, BuildingBlock: QUQFOY_clean_sbu_1, # of connection points: 4
#     Node 3, Type 0, BuildingBlock: QUQFOY_clean_sbu_1, # of connection points: 4
#     Node 4, Type 0, BuildingBlock: QUQFOY_clean_sbu_1, # of connection points: 4
#     Node 5, Type 0, BuildingBlock: QUQFOY_clean_sbu_1, # of connection points: 4
#     Node 6, Type 0, BuildingBlock: QUQFOY_clean_sbu_1, # of connection points: 4
#     Node 7, Type 0, BuildingBlock: QUQFOY_clean_sbu_1, # of connection points: 4
#     Edge 8, Type (0, 0), BuildingBlock: TEMPAE_clean_linker_10, # of connection points: 2
#     Edge 9, Type (0, 0), BuildingBlock: TEMPAE_clean_linker_10, # of connection points: 2
#     Edge 10, Type (0, 0), BuildingBlock: TEMPAE_clean_linker_10, # of connection points: 2
#     Edge 11, Type (0, 0), BuildingBlock: TEMPAE_clean_linker_10, # of connection points: 2
#     Edge 12, Type (0, 0), BuildingBlock: TEMPAE_clean_linker_10, # of connection points: 2
#     Edge 13, Type (0, 0), BuildingBlock: TEMPAE_clean_linker_10, # of connection points: 2
#     Edge 14, Type (0, 0), BuildingBlock: TEMPAE_clean_linker_10, # of connection points: 2
#     Edge 15, Type (0, 0), BuildingBlock: TEMPAE_clean_linker_10, # of connection points: 2
#     Edge 16, Type (0, 0), BuildingBlock: TEMPAE_clean_linker_10, # of connection points: 2
#     Edge 17, Type (0, 0), BuildingBlock: TEMPAE_clean_linker_10, # of connection points: 2
#     Edge 18, Type (0, 0), BuildingBlock: TEMPAE_clean_linker_10, # of connection points: 2
#     Edge 19, Type (0, 0), BuildingBlock: TEMPAE_clean_linker_10, # of connection points: 2
#     Edge 20, Type (0, 0), BuildingBlock: TEMPAE_clean_linker_10, # of connection points: 2
#     Edge 21, Type (0, 0), BuildingBlock: TEMPAE_clean_linker_10, # of connection points: 2
#     Edge 22, Type (0, 0), BuildingBlock: TEMPAE_clean_linker_10, # of connection points: 2
#     Edge 23, Type (0, 0), BuildingBlock: TEMPAE_clean_linker_10, # of connection points: 2
# Relax obj value: 0.042
# Max RMSD: 0.079
# Mean RMSD: 0.079
data_MOF--net-sra--node1-QUQFOY_clean_sbu_1--edge1-TEMPAE_clean_linker_10
_symmetry_space_group_name_H-M    P1
_symmetry_Int_Tables_number       1
_symmetry_cell_setting            triclinic
loop_
_symmetry_equiv_pos_as_xyz
'x, y, z'
_cell_length_a     28.821905
_cell_length_b     54.302668
_cell_length_c     34.325535
_cell_angle_alpha  89.937985
_cell_angle_beta   90.002402
_cell_angle_gamma 89.774886
loop_
_atom_site_label
_atom_site_type_symbol
_atom_site_fract_x
_atom_site_fract_y
_atom_site_fract_z
_atom_type_partial_charge
O0 O 0.95144 0.10088 0.15688 0.0
Cd1 Cd 1.01204 0.10999 0.12756 0.0
Cd2 Cd 0.03999 0.11813 0.2002 0.0
O3 O 0.97831 0.10263 0.21705 0.0
O4 O 1.00506 0.09521 0.07477 0.0
O5 O 0.05837 0.08302 0.11697 0.0
C6 C 0.03856 0.08039 0.0835 0.0
C7 C 0.11258 0.10456 0.22138 0.0
C8 C 0.94545 0.09826 0.19337 0.0
C9 C 0.03201 0.16205 0.14798 0.0
O10 O 0.03526 0.15422 0.18272 0.0
O11 O 0.02682 0.14712 0.11982 0.0
O12 O 0.08576 0.11733 0.2438 0.0
O13 O 0.09713 0.09855 0.18737 0.0
O14 O 0.14157 0.40033 0.15156 0.0
Cd15 Cd 0.0781 0.39593 0.1241 0.0
Cd16 Cd 0.05183 0.39167 0.19662 0.0
O17 O 0.11438 0.40825 0.21029 0.0
O18 O 0.08471 0.41079 0.07127 0.0
O19 O 0.03718 0.42553 0.11624 0.0
C20 C 0.05497 0.42732 0.08182 0.0
C21 C 0.97911 0.40489 0.21878 0.0
C22 C 0.14831 0.40698 0.18663 0.0
C23 C 0.05298 0.34607 0.14727 0.0
O24 O 0.05579 0.35483 0.1815 0.0
O25 O 0.05476 0.36026 0.11788 0.0
O26 O 1.00745 0.39321 0.24141 0.0
O27 O 0.99319 0.41028 0.18409 0.0
O28 O 0.96805 0.90668 0.8404 0.0
Cd29 Cd 0.0237 0.8982 0.87576 0.0
Cd30 Cd 0.06471 0.88827 0.8073 0.0
O31 O 1.00161 0.89927 0.78375 0.0
O32 O 1.01016 0.91464 0.92624 0.0
O33 O 0.0694 0.92489 0.88868 0.0
C34 C 0.04525 0.92874 0.91982 0.0
C35 C 0.13618 0.90274 0.78471 0.0
C36 C 0.96621 0.90578 0.80344 0.0
C37 C 0.0535 0.84611 0.86391 0.0
O38 O 0.06715 0.85335 0.83064 0.0
O39 O 0.03541 0.86129 0.8877 0.0
O40 O 0.11179 0.8874 0.76474 0.0
O41 O 0.11868 0.91101 0.81682 0.0
O42 O 0.12774 0.60256 0.8392 0.0
Cd43 Cd 0.07167 0.61064 0.87427 0.0
Cd44 Cd 0.03123 0.62078 0.80533 0.0
O45 O 0.09472 0.60989 0.78228 0.0
O46 O 0.08576 0.59427 0.92476 0.0
O47 O 0.02665 0.58363 0.88737 0.0
C48 C 0.05101 0.57992 0.91845 0.0
C49 C 0.95998 0.60634 0.78204 0.0
C50 C 0.12999 0.60349 0.80226 0.0
C51 C 0.04144 0.66269 0.86247 0.0
O52 O 0.02843 0.6556 0.82896 0.0
O53 O 0.05921 0.64743 0.88635 0.0
O54 O 0.98459 0.62176 0.76236 0.0
O55 O 0.97711 0.59798 0.81426 0.0
O56 O 0.4549 0.60245 0.65384 0.0
Cd57 Cd 0.51174 0.6105 0.61982 0.0
Cd58 Cd 0.55175 0.61926 0.68942 0.0
O59 O 0.48739 0.60886 0.71121 0.0
O60 O 0.50092 0.59385 0.56908 0.0
O61 O 0.55819 0.58368 0.609 0.0
C62 C 0.53578 0.57974 0.57701 0.0
C63 C 0.62227 0.60459 0.71441 0.0
C64 C 0.45223 0.60302 0.69078 0.0
C65 C 0.54356 0.66187 0.6329 0.0
O66 O 0.55632 0.65414 0.66618 0.0
O67 O 0.52484 0.64729 0.60865 0.0
O68 O 0.59684 0.61998 0.73355 0.0
O69 O 0.60618 0.59625 0.68187 0.0
O70 O 0.63915 0.905 0.65742 0.0
Cd71 Cd 0.58081 0.89703 0.625 0.0
Cd72 Cd 0.54423 0.88804 0.6955 0.0
O73 O 0.6088 0.89894 0.71572 0.0
O74 O 0.59009 0.91333 0.57369 0.0
O75 O 0.53452 0.92406 0.61485 0.0
C76 C 0.55575 0.92765 0.58219 0.0
C77 C 0.47416 0.90334 0.72008 0.0
C78 C 0.64317 0.90468 0.69429 0.0
C79 C 0.55015 0.84545 0.63925 0.0
O80 O 0.53973 0.85296 0.6732 0.0
O81 O 0.56658 0.86032 0.61422 0.0
O82 O 0.49944 0.88815 0.73983 0.0
O83 O 0.49013 0.91105 0.6871 0.0
O84 O 0.46935 0.39904 0.34126 0.0
Cd85 Cd 0.52794 0.39419 0.37464 0.0
Cd86 Cd 0.56717 0.38848 0.30516 0.0
O87 O 0.50419 0.40225 0.28423 0.0
O88 O 0.51503 0.4104 0.42545 0.0
O89 O 0.56966 0.42302 0.38482 0.0
C90 C 0.54719 0.426 0.41707 0.0
C91 C 0.6395 0.40238 0.28323 0.0
C92 C 0.46747 0.40311 0.30484 0.0
C93 C 0.56017 0.3439 0.35851 0.0
O94 O 0.56814 0.35226 0.32453 0.0
O95 O 0.54644 0.35826 0.38534 0.0
O96 O 0.61356 0.38856 0.26189 0.0
O97 O 0.62312 0.40959 0.31637 0.0
O98 O 0.62106 0.09654 0.33226 0.0
Cd99 Cd 0.56832 0.10725 0.36911 0.0
Cd100 Cd 0.52532 0.1177 0.30163 0.0
O101 O 0.58628 0.10512 0.27652 0.0
O102 O 0.58325 0.09143 0.41984 0.0
O103 O 0.52107 0.08202 0.38522 0.0
C104 C 0.54665 0.07813 0.41554 0.0
C105 C 0.45236 0.10452 0.28088 0.0
C106 C 0.62149 0.09737 0.29528 0.0
C107 C 0.54296 0.15999 0.35643 0.0
O108 O 0.52648 0.1528 0.32408 0.0
O109 O 0.56126 0.14461 0.37984 0.0
O110 O 0.47705 0.11936 0.2602 0.0
O111 O 0.47021 0.09609 0.31278 0.0
C112 C 0.07638 0.30371 0.16631 0.0
C113 C 0.05029 0.31918 0.14202 0.0
C114 C 0.07409 0.27805 0.16261 0.0
C115 C 0.04361 0.26759 0.13488 0.0
C116 C 0.01741 0.28316 0.10997 0.0
C117 C 0.02173 0.30887 0.11338 0.0
C118 C 0.10365 0.26214 0.18895 0.0
C119 C 0.98346 0.27272 0.08095 0.0
C120 C 0.06063 0.19944 0.11299 0.0
C121 C 0.03192 0.18881 0.1412 0.0
C122 C 0.06403 0.22521 0.10972 0.0
C123 C 0.03684 0.24044 0.13437 0.0
C124 C 1.0058 0.2296 0.16129 0.0
C125 C 1.00441 0.20392 0.16488 0.0
C126 C 0.09851 0.23607 0.08149 0.0
C127 C 0.97516 0.24512 0.18729 0.0
H128 H 0.09897 0.31173 0.1881 0.0
H129 H 1.00148 0.3209 0.09469 0.0
H130 H 0.08118 0.252 0.20967 0.0
H131 H 0.12292 0.24825 0.17156 0.0
H132 H 0.12899 0.27312 0.20598 0.0
H133 H 0.96772 0.28722 0.06224 0.0
H134 H 1.00082 0.25894 0.06204 0.0
H135 H 0.95526 0.26305 0.09672 0.0
H136 H 0.08204 0.18765 0.09487 0.0
H137 H 0.98187 0.19558 0.18644 0.0
H138 H 0.12667 0.24525 0.09799 0.0
H139 H 0.08167 0.25031 0.06307 0.0
H140 H 0.11424 0.22186 0.06228 0.0
H141 H 0.99677 0.25487 0.20905 0.0
H142 H 0.94911 0.23388 0.20312 0.0
H143 H 0.95666 0.25931 0.16987 0.0
C144 C 0.02613 0.80919 0.9013 0.0
C145 C 0.05571 0.8195 0.87326 0.0
C146 C 0.0232 0.78351 0.90602 0.0
C147 C 0.05086 0.7679 0.88243 0.0
C148 C 0.08289 0.77832 0.8559 0.0
C149 C 0.08472 0.80395 0.85149 0.0
C150 C 0.98858 0.77309 0.93454 0.0
C151 C 0.11354 0.76235 0.83059 0.0
C152 C 0.06748 0.69939 0.90098 0.0
C153 C 0.03889 0.68926 0.87209 0.0
C154 C 0.07017 0.72503 0.90616 0.0
C155 C 0.04328 0.7408 0.88215 0.0
C156 C 1.0122 0.73055 0.8547 0.0
C157 C 1.01059 0.70495 0.84987 0.0
C158 C 0.10377 0.73525 0.93567 0.0
C159 C 0.98239 0.74668 0.8289 0.0
H160 H 1.00357 0.82109 0.9182 0.0
H161 H 0.10807 0.8118 0.8301 0.0
H162 H 0.95939 0.76467 0.91829 0.0
H163 H 1.00474 0.75837 0.95245 0.0
H164 H 0.97429 0.78747 0.95423 0.0
H165 H 0.13968 0.77329 0.81433 0.0
H166 H 0.13195 0.74842 0.84857 0.0
H167 H 0.09187 0.75227 0.80922 0.0
H168 H 0.08948 0.68738 0.91825 0.0
H169 H 0.98799 0.69724 0.82781 0.0
H170 H 0.08696 0.74984 0.95341 0.0
H171 H 0.13347 0.74382 0.92027 0.0
H172 H 0.11743 0.72075 0.95548 0.0
H173 H 0.96338 0.76049 0.84663 0.0
H174 H 0.95682 0.73585 0.81188 0.0
H175 H 1.00476 0.75691 0.80819 0.0
C176 C 0.51646 0.7002 0.59902 0.0
C177 C 0.54802 0.6884 0.62399 0.0
C178 C 0.51607 0.726 0.59537 0.0
C179 C 0.54849 0.74015 0.61671 0.0
C180 C 0.58241 0.72813 0.63982 0.0
C181 C 0.58147 0.70243 0.64346 0.0
C182 C 0.47915 0.73814 0.5707 0.0
C183 C 0.61817 0.74248 0.66247 0.0
C184 C 0.56917 0.80834 0.59857 0.0
C185 C 0.54532 0.81892 0.63007 0.0
C186 C 0.56901 0.78271 0.59268 0.0
C187 C 0.54407 0.76743 0.61869 0.0
C188 C 0.51793 0.77818 0.64922 0.0
C189 C 0.51905 0.80374 0.65462 0.0
C190 C 0.5974 0.77192 0.55989 0.0
C191 C 0.49038 0.76258 0.67733 0.0
H192 H 0.49044 0.68941 0.58401 0.0
H193 H 0.60628 0.69335 0.66244 0.0
H194 H 0.45343 0.74732 0.58993 0.0
H195 H 0.49451 0.75255 0.55182 0.0
H196 H 0.46059 0.72466 0.55208 0.0
H197 H 0.64513 0.73034 0.6755 0.0
H198 H 0.63542 0.75614 0.64334 0.0
H199 H 0.60085 0.75281 0.6863 0.0
H200 H 0.58954 0.81995 0.57945 0.0
H201 H 0.50007 0.81178 0.67876 0.0
H202 H 0.57667 0.75841 0.54315 0.0
H203 H 0.6277 0.7619 0.57215 0.0
H204 H 0.61029 0.7863 0.5396 0.0
H205 H 0.46749 0.74977 0.66119 0.0
H206 H 0.46866 0.77389 0.69724 0.0
H207 H 0.51441 0.75124 0.69521 0.0
C208 C 0.58758 0.30187 0.33963 0.0
C209 C 0.56323 0.31704 0.36565 0.0
C210 C 0.58624 0.27615 0.34315 0.0
C211 C 0.55929 0.2653 0.37304 0.0
C212 C 0.53627 0.28051 0.40044 0.0
C213 C 0.53879 0.30623 0.39658 0.0
C214 C 0.61199 0.26058 0.31375 0.0
C215 C 0.50684 0.26965 0.43247 0.0
C216 C 0.51263 0.20252 0.34582 0.0
C217 C 0.54355 0.18667 0.3651 0.0
C218 C 0.51605 0.22813 0.34978 0.0
C219 C 0.55178 0.2382 0.37308 0.0
C220 C 0.58201 0.2223 0.39386 0.0
C221 C 0.57729 0.19666 0.38986 0.0
C222 C 0.48252 0.24442 0.32771 0.0
C223 C 0.62079 0.23235 0.41868 0.0
H224 H 0.60691 0.3101 0.31589 0.0
H225 H 0.51978 0.31784 0.41675 0.0
H226 H 0.63323 0.24637 0.32876 0.0
H227 H 0.58674 0.25082 0.29493 0.0
H228 H 0.63507 0.27176 0.29485 0.0
H229 H 0.49533 0.28378 0.4538 0.0
H230 H 0.47564 0.26096 0.41955 0.0
H231 H 0.52623 0.25503 0.44821 0.0
H232 H 0.4862 0.19489 0.32693 0.0
H233 H 0.60144 0.18449 0.40468 0.0
H234 H 0.50142 0.2547 0.30475 0.0
H235 H 0.4667 0.2582 0.34758 0.0
H236 H 0.45431 0.23373 0.31368 0.0
H237 H 0.64694 0.24131 0.39971 0.0
H238 H 0.63834 0.2177 0.43591 0.0
H239 H 0.6074 0.2466 0.43893 0.0
C240 C 0.38202 0.11343 0.24088 0.0
C241 C 0.40367 0.09923 0.26986 0.0
C242 C 0.33448 0.1111 0.23316 0.0
C243 C 0.30791 0.09382 0.25442 0.0
C244 C 0.33001 0.07846 0.28225 0.0
C245 C 0.3776 0.08153 0.28995 0.0
C246 C 0.31226 0.12807 0.20357 0.0
C247 C 0.30308 0.05942 0.30483 0.0
C248 C 0.18106 0.11147 0.26446 0.0
C249 C 0.16098 0.09892 0.23305 0.0
C250 C 0.22854 0.10912 0.27276 0.0
C251 C 0.25654 0.09347 0.24953 0.0
C252 C 0.2359 0.07955 0.21931 0.0
C253 C 0.18841 0.08264 0.21114 0.0
C254 C 0.2492 0.12455 0.30493 0.0
C255 C 0.26435 0.06222 0.19451 0.0
H256 H 0.40183 0.12718 0.22523 0.0
H257 H 0.39415 0.07039 0.31224 0.0
H258 H 0.2931 0.11724 0.18147 0.0
H259 H 0.28674 0.14026 0.2183 0.0
H260 H 0.3381 0.13977 0.18836 0.0
H261 H 0.32621 0.04692 0.32167 0.0
H262 H 0.27919 0.06873 0.32547 0.0
H263 H 0.28153 0.04822 0.28483 0.0
H264 H 0.16015 0.12411 0.28152 0.0
H265 H 0.17304 0.07273 0.187 0.0
H266 H 0.27341 0.13823 0.29222 0.0
H267 H 0.26952 0.11282 0.32521 0.0
H268 H 0.22229 0.13459 0.32188 0.0
H269 H 0.28752 0.073 0.1752 0.0
H270 H 0.24222 0.05026 0.17605 0.0
H271 H 0.28672 0.05039 0.2131 0.0
C272 C 0.71459 0.42526 0.29147 0.0
C273 C 0.68803 0.40772 0.27153 0.0
C274 C 0.76202 0.42842 0.28303 0.0
C275 C 0.78359 0.41327 0.25467 0.0
C276 C 0.75655 0.39605 0.23372 0.0
C277 C 0.70912 0.39368 0.2421 0.0
C278 C 0.78934 0.44743 0.3053 0.0
C279 C 0.77817 0.37923 0.20368 0.0
C280 C 0.9019 0.42572 0.20945 0.0
C281 C 0.93055 0.40981 0.23101 0.0
C282 C 0.8544 0.42818 0.21824 0.0
C283 C 0.83489 0.41393 0.24868 0.0
C284 C 0.86405 0.39851 0.27138 0.0
C285 C 0.91153 0.39685 0.26254 0.0
C286 C 0.82479 0.4453 0.194 0.0
C287 C 0.84466 0.38269 0.30368 0.0
H288 H 0.6985 0.43626 0.31413 0.0
H289 H 0.68897 0.38 0.22665 0.0
H290 H 0.81419 0.43809 0.32514 0.0
H291 H 0.8099 0.45893 0.28494 0.0
H292 H 0.76657 0.45964 0.32293 0.0
H293 H 0.7521 0.36743 0.18899 0.0
H294 H 0.7965 0.39019 0.18121 0.0
H295 H 0.80434 0.36714 0.21787 0.0
H296 H 0.91639 0.4359 0.18518 0.0
H297 H 0.93333 0.38443 0.27926 0.0
H298 H 0.8028 0.45701 0.21306 0.0
H299 H 0.8012 0.43438 0.1753 0.0
H300 H 0.84602 0.4574 0.17498 0.0
H301 H 0.82469 0.39413 0.32456 0.0
H302 H 0.87226 0.37268 0.31991 0.0
H303 H 0.82036 0.36898 0.29123 0.0
C304 C 0.20562 0.89515 0.74289 0.0
C305 C 0.18437 0.90869 0.7728 0.0
C306 C 0.25296 0.89786 0.73453 0.0
C307 C 0.27976 0.91485 0.75614 0.0
C308 C 0.25797 0.92964 0.78484 0.0
C309 C 0.21058 0.92622 0.7931 0.0
C310 C 0.2748 0.88151 0.70395 0.0
C311 C 0.2851 0.94835 0.80788 0.0
C312 C 0.40652 0.89657 0.76423 0.0
C313 C 0.42639 0.90952 0.73307 0.0
C314 C 0.35925 0.89907 0.77321 0.0
C315 C 0.33114 0.91524 0.75092 0.0
C316 C 0.35164 0.92964 0.72114 0.0
C317 C 0.39898 0.92645 0.71231 0.0
C318 C 0.33883 0.88319 0.805 0.0
C319 C 0.32313 0.94751 0.69732 0.0
H320 H 0.18573 0.88155 0.72701 0.0
H321 H 0.19438 0.93687 0.81612 0.0
H322 H 0.29378 0.89278 0.68227 0.0
H323 H 0.30042 0.86898 0.71789 0.0
H324 H 0.24876 0.87016 0.68836 0.0
H325 H 0.26208 0.96068 0.82509 0.0
H326 H 0.30894 0.93873 0.82824 0.0
H327 H 0.3067 0.95976 0.78817 0.0
H328 H 0.42737 0.88347 0.7805 0.0
H329 H 0.41411 0.93666 0.68835 0.0
H330 H 0.31446 0.86973 0.79198 0.0
H331 H 0.31875 0.89463 0.82581 0.0
H332 H 0.36586 0.87287 0.82143 0.0
H333 H 0.30002 0.93715 0.67742 0.0
H334 H 0.34523 0.9599 0.67952 0.0
H335 H 0.30072 0.95889 0.71652 0.0
C336 C 0.69804 0.58187 0.70735 0.0
C337 C 0.67022 0.59886 0.72754 0.0
C338 C 0.74539 0.57897 0.71646 0.0
C339 C 0.7655 0.59372 0.74596 0.0
C340 C 0.73703 0.61004 0.76759 0.0
C341 C 0.68978 0.61226 0.75833 0.0
C342 C 0.7743 0.56097 0.69332 0.0
C343 C 0.75701 0.62631 0.79904 0.0
C344 C 0.88529 0.58301 0.78996 0.0
C345 C 0.91195 0.60036 0.76962 0.0
C346 C 0.83804 0.57956 0.78115 0.0
C347 C 0.81682 0.59413 0.75181 0.0
C348 C 0.84408 0.61092 0.73017 0.0
C349 C 0.89128 0.61368 0.73912 0.0
C350 C 0.81042 0.56108 0.8043 0.0
C351 C 0.82288 0.62701 0.6989 0.0
H352 H 0.68319 0.57134 0.68365 0.0
H353 H 0.66864 0.62542 0.77416 0.0
H354 H 0.79782 0.5712 0.67356 0.0
H355 H 0.79633 0.54969 0.71301 0.0
H356 H 0.75253 0.54848 0.67544 0.0
H357 H 0.72977 0.63684 0.81482 0.0
H358 H 0.77672 0.6151 0.82045 0.0
H359 H 0.78164 0.63958 0.78585 0.0
H360 H 0.90102 0.57253 0.81343 0.0
H361 H 0.91151 0.62714 0.7232 0.0
H362 H 0.78931 0.54945 0.78458 0.0
H363 H 0.78607 0.57091 0.82396 0.0
H364 H 0.83304 0.54896 0.82227 0.0
H365 H 0.80413 0.61558 0.67732 0.0
H366 H 0.84927 0.63814 0.68328 0.0
H367 H 0.79716 0.63974 0.7122 0.0
C368 C 0.70278 0.89609 0.74535 0.0
C369 C 0.68931 0.90902 0.71184 0.0
C370 C 0.74844 0.8975 0.75947 0.0
C371 C 0.78098 0.91283 0.74032 0.0
C372 C 0.76684 0.92689 0.70761 0.0
C373 C 0.72138 0.92448 0.69334 0.0
C374 C 0.76235 0.88176 0.79387 0.0
C375 C 0.79997 0.94409 0.68723 0.0
C376 C 0.88904 0.92677 0.79973 0.0
C377 C 0.92115 0.91007 0.78396 0.0
C378 C 0.84398 0.92884 0.78443 0.0
C379 C 0.83023 0.91318 0.75359 0.0
C380 C 0.86295 0.89671 0.73695 0.0
C381 C 0.90827 0.89566 0.75195 0.0
C382 C 0.81071 0.94726 0.80203 0.0
C383 C 0.84943 0.87927 0.70469 0.0
H384 H 0.67822 0.88392 0.75946 0.0
H385 H 0.71096 0.9346 0.66752 0.0
H386 H 0.79028 0.86878 0.78508 0.0
H387 H 0.77643 0.89345 0.81752 0.0
H388 H 0.73283 0.87097 0.80565 0.0
H389 H 0.78235 0.9555 0.66475 0.0
H390 H 0.81673 0.95647 0.70868 0.0
H391 H 0.82793 0.9333 0.67294 0.0
H392 H 0.89903 0.93802 0.8244 0.0
H393 H 0.93289 0.88253 0.74001 0.0
H394 H 0.783 0.93744 0.8181 0.0
H395 H 0.79368 0.95827 0.77877 0.0
H396 H 0.82831 0.96001 0.82251 0.0
H397 H 0.82206 0.8666 0.71527 0.0
H398 H 0.87928 0.86811 0.69418 0.0
H399 H 0.83476 0.88965 0.6797 0.0
C400 C 0.39376 0.61263 0.74231 0.0
C401 C 0.40663 0.59894 0.70944 0.0
C402 C 0.34831 0.61158 0.75703 0.0
C403 C 0.31541 0.59586 0.7392 0.0
C404 C 0.32902 0.58102 0.70725 0.0
C405 C 0.37423 0.58307 0.69231 0.0
C406 C 0.33496 0.62814 0.79056 0.0
C407 C 0.29552 0.56341 0.68828 0.0
C408 C 0.20772 0.58299 0.79981 0.0
C409 C 0.17531 0.5992 0.78315 0.0
C410 C 0.25283 0.58082 0.78464 0.0
C411 C 0.26631 0.59587 0.75292 0.0
C412 C 0.23336 0.6119 0.73548 0.0
C413 C 0.18802 0.61308 0.75044 0.0
C414 C 0.28637 0.56289 0.80319 0.0
C415 C 0.24658 0.62868 0.7022 0.0
H416 H 0.41857 0.62512 0.75532 0.0
H417 H 0.38419 0.57238 0.66697 0.0
H418 H 0.30717 0.64104 0.78116 0.0
H419 H 0.32089 0.61706 0.81497 0.0
H420 H 0.36476 0.63905 0.8015 0.0
H421 H 0.31278 0.55143 0.66638 0.0
H422 H 0.27898 0.55157 0.71065 0.0
H423 H 0.26744 0.5739 0.67357 0.0
H424 H 0.19789 0.57215 0.82502 0.0
H425 H 0.1632 0.62583 0.73779 0.0
H426 H 0.31439 0.57313 0.81816 0.0
H427 H 0.30297 0.55124 0.78055 0.0
H428 H 0.26913 0.55073 0.82479 0.0
H429 H 0.27423 0.64147 0.71183 0.0
H430 H 0.21669 0.63971 0.69141 0.0
H431 H 0.2608 0.61776 0.67764 0.0
C432 C 0.69538 0.07364 0.28875 0.0
C433 C 0.66528 0.09193 0.2747 0.0
C434 C 0.7402 0.07085 0.27329 0.0
C435 C 0.75579 0.08743 0.24428 0.0
C436 C 0.72479 0.10531 0.22896 0.0
C437 C 0.67957 0.10705 0.24393 0.0
C438 C 0.77153 0.05093 0.28928 0.0
C439 C 0.74036 0.12378 0.1988 0.0
C440 C 0.88356 0.10391 0.24308 0.0
C441 C 0.89856 0.09288 0.20841 0.0
C442 C 0.8373 0.10197 0.25529 0.0
C443 C 0.80564 0.08792 0.23298 0.0
C444 C 0.82126 0.0756 0.19906 0.0
C445 C 0.8674 0.07864 0.18671 0.0
C446 C 0.82184 0.11593 0.2911 0.0
C447 C 0.78904 0.05968 0.17538 0.0
H448 H 0.68419 0.06185 0.31245 0.0
H449 H 0.65645 0.12137 0.23336 0.0
H450 H 0.78967 0.04121 0.26524 0.0
H451 H 0.79843 0.05929 0.30814 0.0
H452 H 0.75203 0.03722 0.30682 0.0
H453 H 0.71134 0.13556 0.18829 0.0
H454 H 0.76742 0.13584 0.21153 0.0
H455 H 0.75609 0.11427 0.17346 0.0
H456 H 0.90746 0.11516 0.25966 0.0
H457 H 0.87906 0.07001 0.15996 0.0
H458 H 0.80671 0.1031 0.31274 0.0
H459 H 0.79436 0.12939 0.28308 0.0
H460 H 0.85081 0.12603 0.30515 0.0
H461 H 0.77038 0.04661 0.19463 0.0
H462 H 0.80786 0.04905 0.15266 0.0
H463 H 0.76253 0.07137 0.16088 0.0
C464 C 0.2324 0.39633 0.18468 0.0
C465 C 0.19639 0.41049 0.20072 0.0
C466 C 0.27742 0.3971 0.20019 0.0
C467 C 0.28713 0.41309 0.23169 0.0
C468 C 0.25146 0.42847 0.24659 0.0
C469 C 0.20622 0.42663 0.23144 0.0
C470 C 0.31386 0.37975 0.18428 0.0
C471 C 0.26076 0.44636 0.27926 0.0
C472 C 0.38324 0.39381 0.30106 0.0
C473 C 0.42151 0.40672 0.28644 0.0
C474 C 0.33946 0.3958 0.28353 0.0
C475 C 0.33325 0.41182 0.25135 0.0
C476 C 0.37149 0.42553 0.23716 0.0
C477 C 0.41549 0.42244 0.25442 0.0
C478 C 0.30017 0.38018 0.2988 0.0
C479 C 0.36589 0.44341 0.20379 0.0
H480 H 0.22486 0.38365 0.16115 0.0
H481 H 0.17851 0.43773 0.24371 0.0
H482 H 0.34533 0.39008 0.17565 0.0
H483 H 0.32434 0.36648 0.2073 0.0
H484 H 0.30127 0.36922 0.15867 0.0
H485 H 0.23132 0.4593 0.28383 0.0
H486 H 0.26683 0.4361 0.30675 0.0
H487 H 0.29254 0.45716 0.27307 0.0
H488 H 0.3879 0.38145 0.3256 0.0
H489 H 0.445 0.43256 0.24328 0.0
H490 H 0.28673 0.36822 0.27518 0.0
H491 H 0.27108 0.39209 0.30855 0.0
H492 H 0.31101 0.36831 0.32359 0.0
H493 H 0.35666 0.43332 0.17684 0.0
H494 H 0.39802 0.45409 0.19827 0.0
H495 H 0.33709 0.45645 0.21002 0.0
C496 C 0.08332 0.0418 0.0686 0.0
C497 C 0.05096 0.05979 0.05715 0.0
C498 C 0.0903 0.02045 0.04619 0.0
C499 C 0.06415 0.01702 0.0117 0.0
C500 C 0.03349 0.03578 0.99891 0.0
C501 C 0.02734 0.05693 0.02174 0.0
C502 C 0.12372 1.00099 0.06054 0.0
C503 C 1.00501 0.0329 0.96225 0.0
C504 C 0.08898 0.9672 0.93666 0.0
C505 C 0.055 0.94973 0.94607 0.0
C506 C 0.09416 0.98873 0.95895 0.0
C507 C 0.06453 0.99287 0.99122 0.0
C508 C 0.03184 0.97469 0.00196 0.0
C509 C 0.02755 0.95337 0.97932 0.0
C510 C 0.12976 0.00756 0.94687 0.0
C511 C 0.99963 0.97832 0.03622 0.0
H512 H 0.10192 0.04393 0.09582 0.0
H513 H 1.00254 0.07081 0.01249 0.0
H514 H 0.10396 0.98491 0.07148 0.0
H515 H 0.14614 0.9944 0.03641 0.0
H516 H 0.14611 0.00788 0.08448 0.0
H517 H 0.98588 0.05003 0.95454 0.0
H518 H 0.02759 0.0277 0.9374 0.0
H519 H 0.97947 0.01788 0.96632 0.0
H520 H 0.11048 0.96448 0.9111 0.0
H521 H 1.00143 0.9399 0.98701 0.0
H522 H 0.15006 0.01381 0.97245 0.0
H523 H 0.11191 0.02396 0.93459 0.0
H524 H 0.15408 1.00022 0.92457 0.0
H525 H 0.01974 0.983 0.06273 0.0
H526 H 0.97851 0.9617 0.04238 0.0
H527 H 0.97576 0.99396 0.03024 0.0
C528 C 1.00719 0.54163 0.9362 0.0
C529 C 0.04188 0.55885 0.9448 0.0
C530 C 1.00222 0.52012 0.95866 0.0
C531 C 0.03282 0.51574 0.99023 0.0
C532 C 0.06643 0.53363 6e-05 0.0
C533 C 0.07045 0.55496 0.97732 0.0
C534 C 0.96561 0.5016 0.94758 0.0
C535 C 0.09975 0.5297 0.03351 0.0
C536 C 1.01363 0.46717 0.06831 0.0
C537 C 0.04424 0.44854 0.05614 0.0
C538 C 1.00751 0.48869 0.04607 0.0
C539 C 0.03283 0.49168 0.01105 0.0
C540 C 0.06201 0.47241 0.99773 0.0
C541 C 0.06725 0.45107 0.02037 0.0
C542 C 0.97565 0.5087 0.06098 0.0
C543 C 0.08968 0.47485 0.96056 0.0
H544 H 0.98485 0.54455 0.91121 0.0
H545 H 0.09717 0.56822 0.98435 0.0
H546 H 0.98251 0.48489 0.93548 0.0
H547 H 0.94564 0.49583 0.97364 0.0
H548 H 0.9411 0.50902 0.92547 0.0
H549 H 0.12181 0.54608 0.03891 0.0
H550 H 0.08044 0.52536 0.06059 0.0
H551 H 0.1227 0.51375 0.02711 0.0
H552 H 0.99548 0.46529 0.0958 0.0
H553 H 0.09077 0.43673 0.01062 0.0
H554 H 0.95243 0.51533 0.03739 0.0
H555 H 0.99658 0.52463 0.0708 0.0
H556 H 0.95406 0.50232 0.08581 0.0
H557 H 0.06667 0.4802 0.93605 0.0
H558 H 0.10798 0.45751 0.95274 0.0
H559 H 0.11587 0.48963 0.96396 0.0
C560 C 0.52957 0.45049 0.4768 0.0
C561 C 0.55554 0.44754 0.44255 0.0
C562 C 0.53264 0.47207 0.49901 0.0
C563 C 0.56253 0.4912 0.48678 0.0
C564 C 0.59066 0.48786 0.45336 0.0
C565 C 0.58677 0.46606 0.43156 0.0
C566 C 0.50209 0.47486 0.53451 0.0
C567 C 0.62323 0.50775 0.43962 0.0
C568 C 0.52131 0.55459 0.51745 0.0
C569 C 0.5473 0.55864 0.55137 0.0
C570 C 0.52753 0.53321 0.49518 0.0
C571 C 0.5607 0.51542 0.50702 0.0
C572 C 0.58878 0.51996 0.54007 0.0
C573 C 0.58169 0.54153 0.56194 0.0
C574 C 0.49691 0.52911 0.46008 0.0
C575 C 0.62479 0.50153 0.55337 0.0
H576 H 0.50557 0.43623 0.48568 0.0
H577 H 0.60711 0.46389 0.40522 0.0
H578 H 0.52309 0.48039 0.56009 0.0
H579 H 0.47608 0.48962 0.52931 0.0
H580 H 0.48338 0.4576 0.54175 0.0
H581 H 0.64672 0.50118 0.41614 0.0
H582 H 0.60281 0.52358 0.42832 0.0
H583 H 0.64455 0.51462 0.4642 0.0
H584 H 0.49486 0.56777 0.50889 0.0
H585 H 0.60206 0.54457 0.58803 0.0
H586 H 0.47355 0.51329 0.4656 0.0
H587 H 0.51829 0.52448 0.43422 0.0
H588 H 0.47527 0.54551 0.4531 0.0
H589 H 0.60728 0.48489 0.5649 0.0
H590 H 0.64753 0.50909 0.57656 0.0
H591 H 0.64673 0.4956 0.52851 0.0
C592 C 0.56688 0.95155 0.52082 0.0
C593 C 0.54349 0.94853 0.55631 0.0
C594 C 0.56028 0.97269 0.49802 0.0
C595 C 0.52947 0.99133 0.51097 0.0
C596 C 0.50381 0.98783 0.5457 0.0
C597 C 0.51115 0.96644 0.56803 0.0
C598 C 0.5882 0.97564 0.46106 0.0
C599 C 0.47038 0.00719 0.56028 0.0
C600 C 0.56475 0.0547 0.47622 0.0
C601 C 0.53686 0.05778 0.44309 0.0
C602 C 0.56081 0.03373 0.4998 0.0
C603 C 0.52813 0.01535 0.49006 0.0
C604 C 0.49792 0.01901 0.45801 0.0
C605 C 0.50266 0.04023 0.43483 0.0
C606 C 0.59356 0.03062 0.53384 0.0
C607 C 0.46238 0.99993 0.44693 0.0
H608 H 0.59164 0.93772 0.51136 0.0
H609 H 0.49279 0.96419 0.59536 0.0
H610 H 0.56512 0.9805 0.43635 0.0
H611 H 0.6133 0.99092 0.46463 0.0
H612 H 0.60779 0.95865 0.45345 0.0
H613 H 0.44868 1.00033 0.5847 0.0
H614 H 0.49009 0.02344 0.57059 0.0
H615 H 0.44729 0.01352 0.5364 0.0
H616 H 0.59099 0.06828 0.48304 0.0
H617 H 0.48084 0.04252 0.40935 0.0
H618 H 0.61797 0.01522 0.52786 0.0
H619 H 0.57399 0.02585 0.56061 0.0
H620 H 0.6141 0.04751 0.53953 0.0
H621 H 0.48024 0.98354 0.43468 0.0
H622 H 0.43742 0.00699 0.42488 0.0
H623 H 0.44279 0.99375 0.47296 0.0
loop_
_geom_bond_atom_site_label_1
_geom_bond_atom_site_label_2
_geom_bond_distance
_geom_bond_site_symmetry_2
_ccdc_geom_bond_type
O0 Cd1 2.223 . S
O0 C8 1.315 . S
Cd1 O0 2.223 . S
Cd1 O4 2.297 . S
Cd1 O5 2.439 1_655 S
Cd1 O11 2.240 1_655 S
Cd2 O3 2.240 1_455 S
Cd2 O10 2.223 . S
Cd2 O12 2.297 . S
Cd2 O13 2.439 . S
O3 Cd2 2.240 1_655 S
O3 C8 1.279 . S
O4 Cd1 2.297 . S
O4 C6 1.236 1_655 S
O5 Cd1 2.439 1_455 S
O5 C6 1.218 . S
C6 O4 1.236 1_455 S
C6 O5 1.218 . S
C7 O12 1.247 . S
C7 O13 1.208 . S
C8 O0 1.315 . S
C8 O3 1.279 . S
C9 O10 1.315 . S
C9 O11 1.279 . S
O10 Cd2 2.223 . S
O10 C9 1.315 . S
O11 Cd1 2.240 1_455 S
O11 C9 1.279 . S
O12 Cd2 2.297 . S
O12 C7 1.247 . S
O13 Cd2 2.439 . S
O13 C7 1.208 . S
O14 Cd15 2.223 . S
O14 C22 1.315 . S
Cd15 O14 2.223 . S
Cd15 O18 2.297 . S
Cd15 O19 2.439 . S
Cd15 O25 2.240 . S
Cd16 O17 2.240 . S
Cd16 O24 2.223 . S
Cd16 O26 2.297 1_455 S
Cd16 O27 2.439 1_455 S
O17 Cd16 2.240 . S
O17 C22 1.279 . S
O18 Cd15 2.297 . S
O18 C20 1.247 . S
O19 Cd15 2.439 . S
O19 C20 1.208 . S
C20 O18 1.247 . S
C20 O19 1.208 . S
C21 O26 1.247 . S
C21 O27 1.208 . S
C22 O14 1.315 . S
C22 O17 1.279 . S
C23 O24 1.315 . S
C23 O25 1.279 . S
O24 Cd16 2.223 . S
O24 C23 1.315 . S
O25 Cd15 2.240 . S
O25 C23 1.279 . S
O26 Cd16 2.297 1_655 S
O26 C21 1.247 . S
O27 Cd16 2.439 1_655 S
O27 C21 1.208 . S
O28 Cd29 2.223 . S
O28 C36 1.315 . S
Cd29 O28 2.223 . S
Cd29 O32 2.297 . S
Cd29 O33 2.439 1_655 S
Cd29 O39 2.240 1_655 S
Cd30 O31 2.240 1_455 S
Cd30 O38 2.223 . S
Cd30 O40 2.297 . S
Cd30 O41 2.439 . S
O31 Cd30 2.240 1_655 S
O31 C36 1.279 . S
O32 Cd29 2.297 . S
O32 C34 1.236 1_655 S
O33 Cd29 2.439 1_455 S
O33 C34 1.218 . S
C34 O32 1.236 1_455 S
C34 O33 1.218 . S
C35 O40 1.247 . S
C35 O41 1.208 . S
C36 O28 1.315 . S
C36 O31 1.279 . S
C37 O38 1.315 . S
C37 O39 1.279 . S
O38 Cd30 2.223 . S
O38 C37 1.315 . S
O39 Cd29 2.240 1_455 S
O39 C37 1.279 . S
O40 Cd30 2.297 . S
O40 C35 1.247 . S
O41 Cd30 2.439 . S
O41 C35 1.208 . S
O42 Cd43 2.223 . S
O42 C50 1.315 . S
Cd43 O42 2.223 . S
Cd43 O46 2.297 . S
Cd43 O47 2.439 . S
Cd43 O53 2.240 . S
Cd44 O45 2.240 . S
Cd44 O52 2.223 . S
Cd44 O54 2.297 1_455 S
Cd44 O55 2.439 1_455 S
O45 Cd44 2.240 . S
O45 C50 1.279 . S
O46 Cd43 2.297 . S
O46 C48 1.247 . S
O47 Cd43 2.439 . S
O47 C48 1.208 . S
C48 O46 1.247 . S
C48 O47 1.208 . S
C49 O54 1.247 . S
C49 O55 1.208 . S
C50 O42 1.315 . S
C50 O45 1.279 . S
C51 O52 1.315 . S
C51 O53 1.279 . S
O52 Cd44 2.223 . S
O52 C51 1.315 . S
O53 Cd43 2.240 . S
O53 C51 1.279 . S
O54 Cd44 2.297 1_655 S
O54 C49 1.247 . S
O55 Cd44 2.439 1_655 S
O55 C49 1.208 . S
O56 Cd57 2.223 . S
O56 C64 1.315 . S
Cd57 O56 2.223 . S
Cd57 O60 2.297 . S
Cd57 O61 2.439 . S
Cd57 O67 2.240 . S
Cd58 O59 2.240 . S
Cd58 O66 2.223 . S
Cd58 O68 2.297 . S
Cd58 O69 2.439 . S
O59 Cd58 2.240 . S
O59 C64 1.279 . S
O60 Cd57 2.297 . S
O60 C62 1.247 . S
O61 Cd57 2.439 . S
O61 C62 1.208 . S
C62 O60 1.247 . S
C62 O61 1.208 . S
C63 O68 1.247 . S
C63 O69 1.208 . S
C64 O56 1.315 . S
C64 O59 1.279 . S
C65 O66 1.315 . S
C65 O67 1.279 . S
O66 Cd58 2.223 . S
O66 C65 1.315 . S
O67 Cd57 2.240 . S
O67 C65 1.279 . S
O68 Cd58 2.297 . S
O68 C63 1.247 . S
O69 Cd58 2.439 . S
O69 C63 1.208 . S
O70 Cd71 2.223 . S
O70 C78 1.315 . S
Cd71 O70 2.223 . S
Cd71 O74 2.297 . S
Cd71 O75 2.439 . S
Cd71 O81 2.240 . S
Cd72 O73 2.240 . S
Cd72 O80 2.223 . S
Cd72 O82 2.297 . S
Cd72 O83 2.439 . S
O73 Cd72 2.240 . S
O73 C78 1.279 . S
O74 Cd71 2.297 . S
O74 C76 1.247 . S
O75 Cd71 2.439 . S
O75 C76 1.208 . S
C76 O74 1.247 . S
C76 O75 1.208 . S
C77 O82 1.247 . S
C77 O83 1.208 . S
C78 O70 1.315 . S
C78 O73 1.279 . S
C79 O80 1.315 . S
C79 O81 1.279 . S
O80 Cd72 2.223 . S
O80 C79 1.315 . S
O81 Cd71 2.240 . S
O81 C79 1.279 . S
O82 Cd72 2.297 . S
O82 C77 1.247 . S
O83 Cd72 2.439 . S
O83 C77 1.208 . S
O84 Cd85 2.223 . S
O84 C92 1.315 . S
Cd85 O84 2.223 . S
Cd85 O88 2.297 . S
Cd85 O89 2.439 . S
Cd85 O95 2.240 . S
Cd86 O87 2.240 . S
Cd86 O94 2.223 . S
Cd86 O96 2.297 . S
Cd86 O97 2.439 . S
O87 Cd86 2.240 . S
O87 C92 1.279 . S
O88 Cd85 2.297 . S
O88 C90 1.247 . S
O89 Cd85 2.439 . S
O89 C90 1.208 . S
C90 O88 1.247 . S
C90 O89 1.208 . S
C91 O96 1.247 . S
C91 O97 1.208 . S
C92 O84 1.315 . S
C92 O87 1.279 . S
C93 O94 1.315 . S
C93 O95 1.279 . S
O94 Cd86 2.223 . S
O94 C93 1.315 . S
O95 Cd85 2.240 . S
O95 C93 1.279 . S
O96 Cd86 2.297 . S
O96 C91 1.247 . S
O97 Cd86 2.439 . S
O97 C91 1.208 . S
O98 Cd99 2.223 . S
O98 C106 1.315 . S
Cd99 O98 2.223 . S
Cd99 O102 2.297 . S
Cd99 O103 2.439 . S
Cd99 O109 2.240 . S
Cd100 O101 2.240 . S
Cd100 O108 2.223 . S
Cd100 O110 2.297 . S
Cd100 O111 2.439 . S
O101 Cd100 2.240 . S
O101 C106 1.279 . S
O102 Cd99 2.297 . S
O102 C104 1.247 . S
O103 Cd99 2.439 . S
O103 C104 1.208 . S
C104 O102 1.247 . S
C104 O103 1.208 . S
C105 O110 1.247 . S
C105 O111 1.208 . S
C106 O98 1.315 . S
C106 O101 1.279 . S
C107 O108 1.315 . S
C107 O109 1.279 . S
O108 Cd100 2.223 . S
O108 C107 1.315 . S
O109 Cd99 2.240 . S
O109 C107 1.279 . S
O110 Cd100 2.297 . S
O110 C105 1.247 . S
O111 Cd100 2.439 . S
O111 C105 1.208 . S
C112 C113 1.391 . S
C112 C114 1.394 . S
C112 H128 0.931 . S
C113 C112 1.391 . S
C113 C117 1.376 . S
C114 C112 1.394 . S
C114 C115 1.369 . S
C114 C118 1.531 . S
C115 C114 1.369 . S
C115 C116 1.410 1_455 S
C115 C123 1.503 . S
C116 C115 1.410 1_655 S
C116 C117 1.392 1_655 S
C116 C119 1.511 . S
C117 C113 1.376 . S
C117 C116 1.392 1_455 S
C117 H129 0.929 1_455 S
C118 C114 1.531 . S
C118 H130 0.960 . S
C118 H131 0.962 . S
C118 H132 0.960 . S
C119 C116 1.511 . S
C119 H133 0.961 . S
C119 H134 0.961 . S
C119 H135 0.961 . S
C120 C121 1.370 . S
C120 C122 1.363 . S
C120 H136 0.931 . S
C121 C120 1.370 . S
C121 C125 1.403 1_455 S
C122 C120 1.363 . S
C122 C123 1.370 . S
C122 C126 1.524 . S
C123 C115 1.503 . S
C123 C122 1.370 . S
C123 C124 1.403 . S
C124 C123 1.403 . S
C124 C125 1.402 1_455 S
C124 C127 1.539 1_455 S
C125 C121 1.403 1_655 S
C125 C124 1.402 1_655 S
C125 H137 0.937 . S
C126 C122 1.524 . S
C126 H138 0.956 . S
C126 H139 0.961 . S
C126 H140 0.961 . S
C127 C124 1.539 1_655 S
C127 H141 0.958 1_655 S
C127 H142 0.961 . S
C127 H143 0.960 . S
H128 C112 0.931 . S
H129 C117 0.929 1_655 S
H130 C118 0.960 . S
H131 C118 0.962 . S
H132 C118 0.960 . S
H133 C119 0.961 . S
H134 C119 0.961 . S
H135 C119 0.961 . S
H136 C120 0.931 . S
H137 C125 0.937 . S
H138 C126 0.956 . S
H139 C126 0.961 . S
H140 C126 0.961 . S
H141 C127 0.958 1_455 S
H142 C127 0.961 . S
H143 C127 0.960 . S
C144 C145 1.391 1_655 S
C144 C146 1.394 . S
C144 H160 0.931 . S
C145 C144 1.391 1_455 S
C145 C149 1.376 . S
C146 C144 1.394 . S
C146 C147 1.369 1_655 S
C146 C150 1.531 . S
C147 C146 1.369 1_455 S
C147 C148 1.410 . S
C147 C155 1.503 . S
C148 C147 1.410 . S
C148 C149 1.392 . S
C148 C151 1.511 . S
C149 C145 1.376 . S
C149 C148 1.392 . S
C149 H161 0.929 . S
C150 C146 1.531 . S
C150 H162 0.960 . S
C150 H163 0.962 . S
C150 H164 0.960 . S
C151 C148 1.511 . S
C151 H165 0.961 . S
C151 H166 0.961 . S
C151 H167 0.961 . S
C152 C153 1.370 . S
C152 C154 1.363 . S
C152 H168 0.931 . S
C153 C152 1.370 . S
C153 C157 1.408 . S
C154 C152 1.363 . S
C154 C155 1.370 . S
C154 C158 1.524 . S
C155 C147 1.503 . S
C155 C154 1.370 . S
C155 C156 1.403 . S
C156 C155 1.403 . S
C156 C157 1.404 . S
C156 C159 1.539 . S
C157 C153 1.408 . S
C157 C156 1.404 . S
C157 H169 0.930 . S
C158 C154 1.524 . S
C158 H170 0.956 . S
C158 H171 0.961 . S
C158 H172 0.961 . S
C159 C156 1.539 . S
C159 H173 0.958 . S
C159 H174 0.961 . S
C159 H175 0.960 . S
H160 C144 0.931 . S
H161 C149 0.929 . S
H162 C150 0.960 . S
H163 C150 0.962 . S
H164 C150 0.960 . S
H165 C151 0.961 . S
H166 C151 0.961 . S
H167 C151 0.961 . S
H168 C152 0.931 . S
H169 C157 0.930 . S
H170 C158 0.956 . S
H171 C158 0.961 . S
H172 C158 0.961 . S
H173 C159 0.958 . S
H174 C159 0.961 . S
H175 C159 0.960 . S
C176 C177 1.391 . S
C176 C178 1.394 . S
C176 H192 0.931 . S
C177 C176 1.391 . S
C177 C181 1.376 . S
C178 C176 1.394 . S
C178 C179 1.369 . S
C178 C182 1.531 . S
C179 C178 1.369 . S
C179 C180 1.410 . S
C179 C187 1.503 . S
C180 C179 1.410 . S
C180 C181 1.392 . S
C180 C183 1.511 . S
C181 C177 1.376 . S
C181 C180 1.392 . S
C181 H193 0.929 . S
C182 C178 1.531 . S
C182 H194 0.960 . S
C182 H195 0.962 . S
C182 H196 0.960 . S
C183 C180 1.511 . S
C183 H197 0.961 . S
C183 H198 0.961 . S
C183 H199 0.961 . S
C184 C185 1.370 . S
C184 C186 1.363 . S
C184 H200 0.931 . S
C185 C184 1.370 . S
C185 C189 1.408 . S
C186 C184 1.363 . S
C186 C187 1.370 . S
C186 C190 1.524 . S
C187 C179 1.503 . S
C187 C186 1.370 . S
C187 C188 1.403 . S
C188 C187 1.403 . S
C188 C189 1.404 . S
C188 C191 1.539 . S
C189 C185 1.408 . S
C189 C188 1.404 . S
C189 H201 0.930 . S
C190 C186 1.524 . S
C190 H202 0.956 . S
C190 H203 0.961 . S
C190 H204 0.961 . S
C191 C188 1.539 . S
C191 H205 0.958 . S
C191 H206 0.961 . S
C191 H207 0.960 . S
H192 C176 0.931 . S
H193 C181 0.929 . S
H194 C182 0.960 . S
H195 C182 0.962 . S
H196 C182 0.960 . S
H197 C183 0.961 . S
H198 C183 0.961 . S
H199 C183 0.961 . S
H200 C184 0.931 . S
H201 C189 0.930 . S
H202 C190 0.956 . S
H203 C190 0.961 . S
H204 C190 0.961 . S
H205 C191 0.958 . S
H206 C191 0.961 . S
H207 C191 0.960 . S
C208 C209 1.391 . S
C208 C210 1.394 . S
C208 H224 0.931 . S
C209 C208 1.391 . S
C209 C213 1.376 . S
C210 C208 1.394 . S
C210 C211 1.369 . S
C210 C214 1.531 . S
C211 C210 1.369 . S
C211 C212 1.410 . S
C211 C219 1.503 . S
C212 C211 1.410 . S
C212 C213 1.392 . S
C212 C215 1.511 . S
C213 C209 1.376 . S
C213 C212 1.392 . S
C213 H225 0.929 . S
C214 C210 1.531 . S
C214 H226 0.960 . S
C214 H227 0.962 . S
C214 H228 0.960 . S
C215 C212 1.511 . S
C215 H229 0.961 . S
C215 H230 0.961 . S
C215 H231 0.961 . S
C216 C217 1.370 . S
C216 C218 1.363 . S
C216 H232 0.931 . S
C217 C216 1.370 . S
C217 C221 1.408 . S
C218 C216 1.363 . S
C218 C219 1.370 . S
C218 C222 1.524 . S
C219 C211 1.503 . S
C219 C218 1.370 . S
C219 C220 1.403 . S
C220 C219 1.403 . S
C220 C221 1.404 . S
C220 C223 1.539 . S
C221 C217 1.408 . S
C221 C220 1.404 . S
C221 H233 0.930 . S
C222 C218 1.524 . S
C222 H234 0.956 . S
C222 H235 0.961 . S
C222 H236 0.961 . S
C223 C220 1.539 . S
C223 H237 0.958 . S
C223 H238 0.961 . S
C223 H239 0.960 . S
H224 C208 0.931 . S
H225 C213 0.929 . S
H226 C214 0.960 . S
H227 C214 0.962 . S
H228 C214 0.960 . S
H229 C215 0.961 . S
H230 C215 0.961 . S
H231 C215 0.961 . S
H232 C216 0.931 . S
H233 C221 0.930 . S
H234 C222 0.956 . S
H235 C222 0.961 . S
H236 C222 0.961 . S
H237 C223 0.958 . S
H238 C223 0.961 . S
H239 C223 0.960 . S
C240 C241 1.391 . S
C240 C242 1.394 . S
C240 H256 0.931 . S
C241 C240 1.391 . S
C241 C245 1.376 . S
C242 C240 1.394 . S
C242 C243 1.369 . S
C242 C246 1.531 . S
C243 C242 1.369 . S
C243 C244 1.410 . S
C243 C251 1.503 . S
C244 C243 1.410 . S
C244 C245 1.392 . S
C244 C247 1.511 . S
C245 C241 1.376 . S
C245 C244 1.392 . S
C245 H257 0.929 . S
C246 C242 1.531 . S
C246 H258 0.960 . S
C246 H259 0.962 . S
C246 H260 0.960 . S
C247 C244 1.511 . S
C247 H261 0.961 . S
C247 H262 0.961 . S
C247 H263 0.961 . S
C248 C249 1.370 . S
C248 C250 1.363 . S
C248 H264 0.931 . S
C249 C248 1.370 . S
C249 C253 1.408 . S
C250 C248 1.363 . S
C250 C251 1.370 . S
C250 C254 1.524 . S
C251 C243 1.503 . S
C251 C250 1.370 . S
C251 C252 1.403 . S
C252 C251 1.403 . S
C252 C253 1.404 . S
C252 C255 1.539 . S
C253 C249 1.408 . S
C253 C252 1.404 . S
C253 H265 0.930 . S
C254 C250 1.524 . S
C254 H266 0.956 . S
C254 H267 0.961 . S
C254 H268 0.961 . S
C255 C252 1.539 . S
C255 H269 0.958 . S
C255 H270 0.961 . S
C255 H271 0.960 . S
H256 C240 0.931 . S
H257 C245 0.929 . S
H258 C246 0.960 . S
H259 C246 0.962 . S
H260 C246 0.960 . S
H261 C247 0.961 . S
H262 C247 0.961 . S
H263 C247 0.961 . S
H264 C248 0.931 . S
H265 C253 0.930 . S
H266 C254 0.956 . S
H267 C254 0.961 . S
H268 C254 0.961 . S
H269 C255 0.958 . S
H270 C255 0.961 . S
H271 C255 0.960 . S
C272 C273 1.391 . S
C272 C274 1.394 . S
C272 H288 0.931 . S
C273 C272 1.391 . S
C273 C277 1.376 . S
C274 C272 1.394 . S
C274 C275 1.369 . S
C274 C278 1.531 . S
C275 C274 1.369 . S
C275 C276 1.410 . S
C275 C283 1.503 . S
C276 C275 1.410 . S
C276 C277 1.392 . S
C276 C279 1.511 . S
C277 C273 1.376 . S
C277 C276 1.392 . S
C277 H289 0.929 . S
C278 C274 1.531 . S
C278 H290 0.960 . S
C278 H291 0.962 . S
C278 H292 0.960 . S
C279 C276 1.511 . S
C279 H293 0.961 . S
C279 H294 0.961 . S
C279 H295 0.961 . S
C280 C281 1.370 . S
C280 C282 1.363 . S
C280 H296 0.931 . S
C281 C280 1.370 . S
C281 C285 1.408 . S
C282 C280 1.363 . S
C282 C283 1.370 . S
C282 C286 1.524 . S
C283 C275 1.503 . S
C283 C282 1.370 . S
C283 C284 1.403 . S
C284 C283 1.403 . S
C284 C285 1.404 . S
C284 C287 1.539 . S
C285 C281 1.408 . S
C285 C284 1.404 . S
C285 H297 0.930 . S
C286 C282 1.524 . S
C286 H298 0.956 . S
C286 H299 0.961 . S
C286 H300 0.961 . S
C287 C284 1.539 . S
C287 H301 0.958 . S
C287 H302 0.961 . S
C287 H303 0.960 . S
H288 C272 0.931 . S
H289 C277 0.929 . S
H290 C278 0.960 . S
H291 C278 0.962 . S
H292 C278 0.960 . S
H293 C279 0.961 . S
H294 C279 0.961 . S
H295 C279 0.961 . S
H296 C280 0.931 . S
H297 C285 0.930 . S
H298 C286 0.956 . S
H299 C286 0.961 . S
H300 C286 0.961 . S
H301 C287 0.958 . S
H302 C287 0.961 . S
H303 C287 0.960 . S
C304 C305 1.391 . S
C304 C306 1.394 . S
C304 H320 0.931 . S
C305 C304 1.391 . S
C305 C309 1.376 . S
C306 C304 1.394 . S
C306 C307 1.369 . S
C306 C310 1.531 . S
C307 C306 1.369 . S
C307 C308 1.410 . S
C307 C315 1.503 . S
C308 C307 1.410 . S
C308 C309 1.392 . S
C308 C311 1.511 . S
C309 C305 1.376 . S
C309 C308 1.392 . S
C309 H321 0.929 . S
C310 C306 1.531 . S
C310 H322 0.960 . S
C310 H323 0.962 . S
C310 H324 0.960 . S
C311 C308 1.511 . S
C311 H325 0.961 . S
C311 H326 0.961 . S
C311 H327 0.961 . S
C312 C313 1.370 . S
C312 C314 1.363 . S
C312 H328 0.931 . S
C313 C312 1.370 . S
C313 C317 1.408 . S
C314 C312 1.363 . S
C314 C315 1.370 . S
C314 C318 1.524 . S
C315 C307 1.503 . S
C315 C314 1.370 . S
C315 C316 1.403 . S
C316 C315 1.403 . S
C316 C317 1.404 . S
C316 C319 1.539 . S
C317 C313 1.408 . S
C317 C316 1.404 . S
C317 H329 0.930 . S
C318 C314 1.524 . S
C318 H330 0.956 . S
C318 H331 0.961 . S
C318 H332 0.961 . S
C319 C316 1.539 . S
C319 H333 0.958 . S
C319 H334 0.961 . S
C319 H335 0.960 . S
H320 C304 0.931 . S
H321 C309 0.929 . S
H322 C310 0.960 . S
H323 C310 0.962 . S
H324 C310 0.960 . S
H325 C311 0.961 . S
H326 C311 0.961 . S
H327 C311 0.961 . S
H328 C312 0.931 . S
H329 C317 0.930 . S
H330 C318 0.956 . S
H331 C318 0.961 . S
H332 C318 0.961 . S
H333 C319 0.958 . S
H334 C319 0.961 . S
H335 C319 0.960 . S
C336 C337 1.391 . S
C336 C338 1.394 . S
C336 H352 0.931 . S
C337 C336 1.391 . S
C337 C341 1.376 . S
C338 C336 1.394 . S
C338 C339 1.369 . S
C338 C342 1.531 . S
C339 C338 1.369 . S
C339 C340 1.410 . S
C339 C347 1.503 . S
C340 C339 1.410 . S
C340 C341 1.392 . S
C340 C343 1.511 . S
C341 C337 1.376 . S
C341 C340 1.392 . S
C341 H353 0.929 . S
C342 C338 1.531 . S
C342 H354 0.960 . S
C342 H355 0.962 . S
C342 H356 0.960 . S
C343 C340 1.511 . S
C343 H357 0.961 . S
C343 H358 0.961 . S
C343 H359 0.961 . S
C344 C345 1.370 . S
C344 C346 1.363 . S
C344 H360 0.931 . S
C345 C344 1.370 . S
C345 C349 1.408 . S
C346 C344 1.363 . S
C346 C347 1.370 . S
C346 C350 1.524 . S
C347 C339 1.503 . S
C347 C346 1.370 . S
C347 C348 1.403 . S
C348 C347 1.403 . S
C348 C349 1.404 . S
C348 C351 1.539 . S
C349 C345 1.408 . S
C349 C348 1.404 . S
C349 H361 0.930 . S
C350 C346 1.524 . S
C350 H362 0.956 . S
C350 H363 0.961 . S
C350 H364 0.961 . S
C351 C348 1.539 . S
C351 H365 0.958 . S
C351 H366 0.961 . S
C351 H367 0.960 . S
H352 C336 0.931 . S
H353 C341 0.929 . S
H354 C342 0.960 . S
H355 C342 0.962 . S
H356 C342 0.960 . S
H357 C343 0.961 . S
H358 C343 0.961 . S
H359 C343 0.961 . S
H360 C344 0.931 . S
H361 C349 0.930 . S
H362 C350 0.956 . S
H363 C350 0.961 . S
H364 C350 0.961 . S
H365 C351 0.958 . S
H366 C351 0.961 . S
H367 C351 0.960 . S
C368 C369 1.391 . S
C368 C370 1.394 . S
C368 H384 0.931 . S
C369 C368 1.391 . S
C369 C373 1.376 . S
C370 C368 1.394 . S
C370 C371 1.369 . S
C370 C374 1.531 . S
C371 C370 1.369 . S
C371 C372 1.410 . S
C371 C379 1.503 . S
C372 C371 1.410 . S
C372 C373 1.392 . S
C372 C375 1.511 . S
C373 C369 1.376 . S
C373 C372 1.392 . S
C373 H385 0.929 . S
C374 C370 1.531 . S
C374 H386 0.960 . S
C374 H387 0.962 . S
C374 H388 0.960 . S
C375 C372 1.511 . S
C375 H389 0.961 . S
C375 H390 0.961 . S
C375 H391 0.961 . S
C376 C377 1.370 . S
C376 C378 1.363 . S
C376 H392 0.931 . S
C377 C376 1.370 . S
C377 C381 1.408 . S
C378 C376 1.363 . S
C378 C379 1.370 . S
C378 C382 1.524 . S
C379 C371 1.503 . S
C379 C378 1.370 . S
C379 C380 1.403 . S
C380 C379 1.403 . S
C380 C381 1.404 . S
C380 C383 1.539 . S
C381 C377 1.408 . S
C381 C380 1.404 . S
C381 H393 0.930 . S
C382 C378 1.524 . S
C382 H394 0.956 . S
C382 H395 0.961 . S
C382 H396 0.961 . S
C383 C380 1.539 . S
C383 H397 0.958 . S
C383 H398 0.961 . S
C383 H399 0.960 . S
H384 C368 0.931 . S
H385 C373 0.929 . S
H386 C374 0.960 . S
H387 C374 0.962 . S
H388 C374 0.960 . S
H389 C375 0.961 . S
H390 C375 0.961 . S
H391 C375 0.961 . S
H392 C376 0.931 . S
H393 C381 0.930 . S
H394 C382 0.956 . S
H395 C382 0.961 . S
H396 C382 0.961 . S
H397 C383 0.958 . S
H398 C383 0.961 . S
H399 C383 0.960 . S
C400 C401 1.391 . S
C400 C402 1.394 . S
C400 H416 0.931 . S
C401 C400 1.391 . S
C401 C405 1.376 . S
C402 C400 1.394 . S
C402 C403 1.369 . S
C402 C406 1.531 . S
C403 C402 1.369 . S
C403 C404 1.410 . S
C403 C411 1.503 . S
C404 C403 1.410 . S
C404 C405 1.392 . S
C404 C407 1.511 . S
C405 C401 1.376 . S
C405 C404 1.392 . S
C405 H417 0.929 . S
C406 C402 1.531 . S
C406 H418 0.960 . S
C406 H419 0.962 . S
C406 H420 0.960 . S
C407 C404 1.511 . S
C407 H421 0.961 . S
C407 H422 0.961 . S
C407 H423 0.961 . S
C408 C409 1.370 . S
C408 C410 1.363 . S
C408 H424 0.931 . S
C409 C408 1.370 . S
C409 C413 1.408 . S
C410 C408 1.363 . S
C410 C411 1.370 . S
C410 C414 1.524 . S
C411 C403 1.503 . S
C411 C410 1.370 . S
C411 C412 1.403 . S
C412 C411 1.403 . S
C412 C413 1.404 . S
C412 C415 1.539 . S
C413 C409 1.408 . S
C413 C412 1.404 . S
C413 H425 0.930 . S
C414 C410 1.524 . S
C414 H426 0.956 . S
C414 H427 0.961 . S
C414 H428 0.961 . S
C415 C412 1.539 . S
C415 H429 0.958 . S
C415 H430 0.961 . S
C415 H431 0.960 . S
H416 C400 0.931 . S
H417 C405 0.929 . S
H418 C406 0.960 . S
H419 C406 0.962 . S
H420 C406 0.960 . S
H421 C407 0.961 . S
H422 C407 0.961 . S
H423 C407 0.961 . S
H424 C408 0.931 . S
H425 C413 0.930 . S
H426 C414 0.956 . S
H427 C414 0.961 . S
H428 C414 0.961 . S
H429 C415 0.958 . S
H430 C415 0.961 . S
H431 C415 0.960 . S
C432 C433 1.391 . S
C432 C434 1.394 . S
C432 H448 0.931 . S
C433 C432 1.391 . S
C433 C437 1.376 . S
C434 C432 1.394 . S
C434 C435 1.369 . S
C434 C438 1.531 . S
C435 C434 1.369 . S
C435 C436 1.410 . S
C435 C443 1.503 . S
C436 C435 1.410 . S
C436 C437 1.392 . S
C436 C439 1.511 . S
C437 C433 1.376 . S
C437 C436 1.392 . S
C437 H449 0.929 . S
C438 C434 1.531 . S
C438 H450 0.960 . S
C438 H451 0.962 . S
C438 H452 0.960 . S
C439 C436 1.511 . S
C439 H453 0.961 . S
C439 H454 0.961 . S
C439 H455 0.961 . S
C440 C441 1.370 . S
C440 C442 1.363 . S
C440 H456 0.931 . S
C441 C440 1.370 . S
C441 C445 1.408 . S
C442 C440 1.363 . S
C442 C443 1.370 . S
C442 C446 1.524 . S
C443 C435 1.503 . S
C443 C442 1.370 . S
C443 C444 1.403 . S
C444 C443 1.403 . S
C444 C445 1.404 . S
C444 C447 1.539 . S
C445 C441 1.408 . S
C445 C444 1.404 . S
C445 H457 0.930 . S
C446 C442 1.524 . S
C446 H458 0.956 . S
C446 H459 0.961 . S
C446 H460 0.961 . S
C447 C444 1.539 . S
C447 H461 0.958 . S
C447 H462 0.961 . S
C447 H463 0.960 . S
H448 C432 0.931 . S
H449 C437 0.929 . S
H450 C438 0.960 . S
H451 C438 0.962 . S
H452 C438 0.960 . S
H453 C439 0.961 . S
H454 C439 0.961 . S
H455 C439 0.961 . S
H456 C440 0.931 . S
H457 C445 0.930 . S
H458 C446 0.956 . S
H459 C446 0.961 . S
H460 C446 0.961 . S
H461 C447 0.958 . S
H462 C447 0.961 . S
H463 C447 0.960 . S
C464 C465 1.391 . S
C464 C466 1.394 . S
C464 H480 0.931 . S
C465 C464 1.391 . S
C465 C469 1.376 . S
C466 C464 1.394 . S
C466 C467 1.369 . S
C466 C470 1.531 . S
C467 C466 1.369 . S
C467 C468 1.410 . S
C467 C475 1.503 . S
C468 C467 1.410 . S
C468 C469 1.392 . S
C468 C471 1.511 . S
C469 C465 1.376 . S
C469 C468 1.392 . S
C469 H481 0.929 . S
C470 C466 1.531 . S
C470 H482 0.960 . S
C470 H483 0.962 . S
C470 H484 0.960 . S
C471 C468 1.511 . S
C471 H485 0.961 . S
C471 H486 0.961 . S
C471 H487 0.961 . S
C472 C473 1.370 . S
C472 C474 1.363 . S
C472 H488 0.931 . S
C473 C472 1.370 . S
C473 C477 1.408 . S
C474 C472 1.363 . S
C474 C475 1.370 . S
C474 C478 1.524 . S
C475 C467 1.503 . S
C475 C474 1.370 . S
C475 C476 1.403 . S
C476 C475 1.403 . S
C476 C477 1.404 . S
C476 C479 1.539 . S
C477 C473 1.408 . S
C477 C476 1.404 . S
C477 H489 0.930 . S
C478 C474 1.524 . S
C478 H490 0.956 . S
C478 H491 0.961 . S
C478 H492 0.961 . S
C479 C476 1.539 . S
C479 H493 0.958 . S
C479 H494 0.961 . S
C479 H495 0.960 . S
H480 C464 0.931 . S
H481 C469 0.929 . S
H482 C470 0.960 . S
H483 C470 0.962 . S
H484 C470 0.960 . S
H485 C471 0.961 . S
H486 C471 0.961 . S
H487 C471 0.961 . S
H488 C472 0.931 . S
H489 C477 0.930 . S
H490 C478 0.956 . S
H491 C478 0.961 . S
H492 C478 0.961 . S
H493 C479 0.958 . S
H494 C479 0.961 . S
H495 C479 0.960 . S
C496 C497 1.391 1_455 S
C496 C498 1.394 . S
C496 H512 0.931 . S
C497 C496 1.391 1_655 S
C497 C501 1.376 . S
C498 C496 1.394 . S
C498 C499 1.369 1_455 S
C498 C502 1.531 1_545 S
C499 C498 1.369 1_655 S
C499 C500 1.410 . S
C499 C507 1.503 1_544 S
C500 C499 1.410 . S
C500 C501 1.392 . S
C500 C503 1.511 1_554 S
C501 C497 1.376 . S
C501 C500 1.392 . S
C501 H513 0.929 . S
C502 C498 1.531 1_565 S
C502 H514 0.960 . S
C502 H515 0.962 . S
C502 H516 0.960 . S
C503 C500 1.511 1_556 S
C503 H517 0.961 . S
C503 H518 0.961 . S
C503 H519 0.961 . S
C504 C505 1.387 . S
C504 C506 1.363 . S
C504 H520 0.931 . S
C505 C504 1.387 . S
C505 C509 1.391 1_455 S
C506 C504 1.363 . S
C506 C507 1.370 1_455 S
C506 C510 1.524 1_565 S
C507 C499 1.503 1_566 S
C507 C506 1.370 1_655 S
C507 C508 1.403 . S
C508 C507 1.403 . S
C508 C509 1.404 . S
C508 C511 1.539 1_556 S
C509 C505 1.391 1_655 S
C509 C508 1.404 . S
C509 H521 0.930 . S
C510 C506 1.524 1_545 S
C510 H522 0.956 . S
C510 H523 0.961 . S
C510 H524 0.961 . S
C511 C508 1.539 1_554 S
C511 H525 0.958 . S
C511 H526 0.961 1_554 S
C511 H527 0.960 . S
H512 C496 0.931 . S
H513 C501 0.929 . S
H514 C502 0.960 . S
H515 C502 0.962 . S
H516 C502 0.960 . S
H517 C503 0.961 . S
H518 C503 0.961 . S
H519 C503 0.961 . S
H520 C504 0.931 . S
H521 C509 0.930 . S
H522 C510 0.956 . S
H523 C510 0.961 . S
H524 C510 0.961 . S
H525 C511 0.958 . S
H526 C511 0.961 1_556 S
H527 C511 0.960 . S
C528 C529 1.391 . S
C528 C530 1.394 . S
C528 H544 0.931 . S
C529 C528 1.391 . S
C529 C533 1.376 . S
C530 C528 1.394 . S
C530 C531 1.369 . S
C530 C534 1.531 1_455 S
C531 C530 1.369 . S
C531 C532 1.410 . S
C531 C539 1.503 1_556 S
C532 C531 1.410 . S
C532 C533 1.392 . S
C532 C535 1.511 1_556 S
C533 C529 1.376 . S
C533 C532 1.392 . S
C533 H545 0.929 . S
C534 C530 1.531 1_655 S
C534 H546 0.960 1_655 S
C534 H547 0.962 . S
C534 H548 0.960 . S
C535 C532 1.511 1_554 S
C535 H549 0.961 . S
C535 H550 0.961 . S
C535 H551 0.961 1_554 S
C536 C537 1.370 . S
C536 C538 1.363 . S
C536 H552 0.931 . S
C537 C536 1.370 . S
C537 C541 1.408 . S
C538 C536 1.363 . S
C538 C539 1.370 . S
C538 C542 1.524 . S
C539 C531 1.503 1_554 S
C539 C538 1.370 . S
C539 C540 1.403 . S
C540 C539 1.403 . S
C540 C541 1.404 . S
C540 C543 1.539 1_554 S
C541 C537 1.408 . S
C541 C540 1.404 . S
C541 H553 0.930 . S
C542 C538 1.524 . S
C542 H554 0.956 . S
C542 H555 0.961 . S
C542 H556 0.961 . S
C543 C540 1.539 1_556 S
C543 H557 0.958 . S
C543 H558 0.961 . S
C543 H559 0.960 . S
H544 C528 0.931 . S
H545 C533 0.929 . S
H546 C534 0.960 1_455 S
H547 C534 0.962 . S
H548 C534 0.960 . S
H549 C535 0.961 . S
H550 C535 0.961 . S
H551 C535 0.961 1_556 S
H552 C536 0.931 . S
H553 C541 0.930 . S
H554 C542 0.956 . S
H555 C542 0.961 . S
H556 C542 0.961 . S
H557 C543 0.958 . S
H558 C543 0.961 . S
H559 C543 0.960 . S
C560 C561 1.391 . S
C560 C562 1.394 . S
C560 H576 0.931 . S
C561 C560 1.391 . S
C561 C565 1.376 . S
C562 C560 1.394 . S
C562 C563 1.369 . S
C562 C566 1.531 . S
C563 C562 1.369 . S
C563 C564 1.410 . S
C563 C571 1.503 . S
C564 C563 1.410 . S
C564 C565 1.392 . S
C564 C567 1.511 . S
C565 C561 1.376 . S
C565 C564 1.392 . S
C565 H577 0.929 . S
C566 C562 1.531 . S
C566 H578 0.960 . S
C566 H579 0.962 . S
C566 H580 0.960 . S
C567 C564 1.511 . S
C567 H581 0.961 . S
C567 H582 0.961 . S
C567 H583 0.961 . S
C568 C569 1.370 . S
C568 C570 1.363 . S
C568 H584 0.931 . S
C569 C568 1.370 . S
C569 C573 1.408 . S
C570 C568 1.363 . S
C570 C571 1.370 . S
C570 C574 1.524 . S
C571 C563 1.503 . S
C571 C570 1.370 . S
C571 C572 1.403 . S
C572 C571 1.403 . S
C572 C573 1.404 . S
C572 C575 1.539 . S
C573 C569 1.408 . S
C573 C572 1.404 . S
C573 H585 0.930 . S
C574 C570 1.524 . S
C574 H586 0.956 . S
C574 H587 0.961 . S
C574 H588 0.961 . S
C575 C572 1.539 . S
C575 H589 0.958 . S
C575 H590 0.961 . S
C575 H591 0.960 . S
H576 C560 0.931 . S
H577 C565 0.929 . S
H578 C566 0.960 . S
H579 C566 0.962 . S
H580 C566 0.960 . S
H581 C567 0.961 . S
H582 C567 0.961 . S
H583 C567 0.961 . S
H584 C568 0.931 . S
H585 C573 0.930 . S
H586 C574 0.956 . S
H587 C574 0.961 . S
H588 C574 0.961 . S
H589 C575 0.958 . S
H590 C575 0.961 . S
H591 C575 0.960 . S
C592 C593 1.391 . S
C592 C594 1.394 . S
C592 H608 0.931 . S
C593 C592 1.391 . S
C593 C597 1.376 . S
C594 C592 1.394 . S
C594 C595 1.369 . S
C594 C598 1.531 . S
C595 C594 1.369 . S
C595 C596 1.410 . S
C595 C603 1.503 1_565 S
C596 C595 1.410 . S
C596 C597 1.392 . S
C596 C599 1.511 . S
C597 C593 1.376 . S
C597 C596 1.392 . S
C597 H609 0.929 . S
C598 C594 1.531 . S
C598 H610 0.960 1_565 S
C598 H611 0.962 1_565 S
C598 H612 0.960 . S
C599 C596 1.511 . S
C599 H613 0.961 . S
C599 H614 0.961 . S
C599 H615 0.961 . S
C600 C601 1.370 . S
C600 C602 1.363 . S
C600 H616 0.931 . S
C601 C600 1.370 . S
C601 C605 1.408 . S
C602 C600 1.363 . S
C602 C603 1.370 . S
C602 C606 1.524 . S
C603 C595 1.503 1_545 S
C603 C602 1.370 . S
C603 C604 1.403 . S
C604 C603 1.403 . S
C604 C605 1.404 . S
C604 C607 1.539 1_545 S
C605 C601 1.408 . S
C605 C604 1.404 . S
C605 H617 0.930 . S
C606 C602 1.524 . S
C606 H618 0.956 . S
C606 H619 0.961 . S
C606 H620 0.961 . S
C607 C604 1.539 1_565 S
C607 H621 0.958 . S
C607 H622 0.961 . S
C607 H623 0.960 . S
H608 C592 0.931 . S
H609 C597 0.929 . S
H610 C598 0.960 1_545 S
H611 C598 0.962 1_545 S
H612 C598 0.960 . S
H613 C599 0.961 . S
H614 C599 0.961 . S
H615 C599 0.961 . S
H616 C600 0.931 . S
H617 C605 0.930 . S
H618 C606 0.956 . S
H619 C606 0.961 . S
H620 C606 0.961 . S
H621 C607 0.958 . S
H622 C607 0.961 . S
H623 C607 0.960 . S
C113 C23 1.456 . S
C121 C9 1.485 . S
C145 C37 1.463 . S
C153 C51 1.480 . S
C177 C65 1.456 . S
C185 C79 1.485 . S
C209 C93 1.500 . S
C217 C107 1.494 . S
C241 C105 1.268 . S
C249 C7 1.296 . S
C273 C91 1.272 . S
C281 C21 1.293 . S
C305 C35 1.299 . S
C313 C77 1.291 . S
C337 C63 1.272 . S
C345 C49 1.293 . S
C369 C78 1.675 . S
C377 C36 1.698 . S
C401 C64 1.684 . S
C409 C50 1.695 . S
C433 C106 1.703 . S
C441 C8 1.686 . S
C465 C22 1.673 . S
C473 C92 1.698 . S
C497 C6 1.508 1_655 S
C505 C34 1.503 . S
C529 C48 1.518 . S
C537 C20 1.499 . S
C561 C90 1.488 . S
C569 C62 1.515 . S
C593 C76 1.483 . S
C601 C104 1.515 . S
