# Generated by pormake.
# Topology atn, (4)-cn, num edge types: 1
# Building blocks:
#     Node 0, Type 0, BuildingBlock: QUQFOY_clean_sbu_1, # of connection points: 4
#     Node 1, Type 0, BuildingBlock: QUQFOY_clean_sbu_1, # of connection points: 4
#     Node 2, Type 0, BuildingBlock: QUQFOY_clean_sbu_1, # of connection points: 4
#     Node 3, Type 0, BuildingBlock: QUQFOY_clean_sbu_1, # of connection points: 4
#     Node 4, Type 0, BuildingBlock: QUQFOY_clean_sbu_1, # of connection points: 4
#     Node 5, Type 0, BuildingBlock: QUQFOY_clean_sbu_1, # of connection points: 4
#     Node 6, Type 0, BuildingBlock: QUQFOY_clean_sbu_1, # of connection points: 4
#     Node 7, Type 0, BuildingBlock: QUQFOY_clean_sbu_1, # of connection points: 4
#     Node 8, Type 0, BuildingBlock: QUQFOY_clean_sbu_1, # of connection points: 4
#     Node 9, Type 0, BuildingBlock: QUQFOY_clean_sbu_1, # of connection points: 4
#     Node 10, Type 0, BuildingBlock: QUQFOY_clean_sbu_1, # of connection points: 4
#     Node 11, Type 0, BuildingBlock: QUQFOY_clean_sbu_1, # of connection points: 4
#     Node 12, Type 0, BuildingBlock: QUQFOY_clean_sbu_1, # of connection points: 4
#     Node 13, Type 0, BuildingBlock: QUQFOY_clean_sbu_1, # of connection points: 4
#     Node 14, Type 0, BuildingBlock: QUQFOY_clean_sbu_1, # of connection points: 4
#     Node 15, Type 0, BuildingBlock: QUQFOY_clean_sbu_1, # of connection points: 4
#     Edge 16, Type (0, 0), BuildingBlock: XIVTED_clean_linker_0, # of connection points: 2
#     Edge 17, Type (0, 0), BuildingBlock: XIVTED_clean_linker_0, # of connection points: 2
#     Edge 18, Type (0, 0), BuildingBlock: XIVTED_clean_linker_0, # of connection points: 2
#     Edge 19, Type (0, 0), BuildingBlock: XIVTED_clean_linker_0, # of connection points: 2
#     Edge 20, Type (0, 0), BuildingBlock: XIVTED_clean_linker_0, # of connection points: 2
#     Edge 21, Type (0, 0), BuildingBlock: XIVTED_clean_linker_0, # of connection points: 2
#     Edge 22, Type (0, 0), BuildingBlock: XIVTED_clean_linker_0, # of connection points: 2
#     Edge 23, Type (0, 0), BuildingBlock: XIVTED_clean_linker_0, # of connection points: 2
#     Edge 24, Type (0, 0), BuildingBlock: XIVTED_clean_linker_0, # of connection points: 2
#     Edge 25, Type (0, 0), BuildingBlock: XIVTED_clean_linker_0, # of connection points: 2
#     Edge 26, Type (0, 0), BuildingBlock: XIVTED_clean_linker_0, # of connection points: 2
#     Edge 27, Type (0, 0), BuildingBlock: XIVTED_clean_linker_0, # of connection points: 2
#     Edge 28, Type (0, 0), BuildingBlock: XIVTED_clean_linker_0, # of connection points: 2
#     Edge 29, Type (0, 0), BuildingBlock: XIVTED_clean_linker_0, # of connection points: 2
#     Edge 30, Type (0, 0), BuildingBlock: XIVTED_clean_linker_0, # of connection points: 2
#     Edge 31, Type (0, 0), BuildingBlock: XIVTED_clean_linker_0, # of connection points: 2
#     Edge 32, Type (0, 0), BuildingBlock: XIVTED_clean_linker_0, # of connection points: 2
#     Edge 33, Type (0, 0), BuildingBlock: XIVTED_clean_linker_0, # of connection points: 2
#     Edge 34, Type (0, 0), BuildingBlock: XIVTED_clean_linker_0, # of connection points: 2
#     Edge 35, Type (0, 0), BuildingBlock: XIVTED_clean_linker_0, # of connection points: 2
#     Edge 36, Type (0, 0), BuildingBlock: XIVTED_clean_linker_0, # of connection points: 2
#     Edge 37, Type (0, 0), BuildingBlock: XIVTED_clean_linker_0, # of connection points: 2
#     Edge 38, Type (0, 0), BuildingBlock: XIVTED_clean_linker_0, # of connection points: 2
#     Edge 39, Type (0, 0), BuildingBlock: XIVTED_clean_linker_0, # of connection points: 2
#     Edge 40, Type (0, 0), BuildingBlock: XIVTED_clean_linker_0, # of connection points: 2
#     Edge 41, Type (0, 0), BuildingBlock: XIVTED_clean_linker_0, # of connection points: 2
#     Edge 42, Type (0, 0), BuildingBlock: XIVTED_clean_linker_0, # of connection points: 2
#     Edge 43, Type (0, 0), BuildingBlock: XIVTED_clean_linker_0, # of connection points: 2
#     Edge 44, Type (0, 0), BuildingBlock: XIVTED_clean_linker_0, # of connection points: 2
#     Edge 45, Type (0, 0), BuildingBlock: XIVTED_clean_linker_0, # of connection points: 2
#     Edge 46, Type (0, 0), BuildingBlock: XIVTED_clean_linker_0, # of connection points: 2
#     Edge 47, Type (0, 0), BuildingBlock: XIVTED_clean_linker_0, # of connection points: 2
# Relax obj value: 0.049
# Max RMSD: 0.085
# Mean RMSD: 0.085
data_MOF--net-atn--node1-QUQFOY_clean_sbu_1--edge1-XIVTED_clean_linker_0
_symmetry_space_group_name_H-M    P1
_symmetry_Int_Tables_number       1
_symmetry_cell_setting            triclinic
loop_
_symmetry_equiv_pos_as_xyz
'x, y, z'
_cell_length_a     62.373428
_cell_length_b     62.349288
_cell_length_c     28.70412
_cell_angle_alpha  90.024992
_cell_angle_beta   90.028171
_cell_angle_gamma 90.006804
loop_
_atom_site_label
_atom_site_type_symbol
_atom_site_fract_x
_atom_site_fract_y
_atom_site_fract_z
_atom_type_partial_charge
O0 O 0.18996 0.37996 0.10874 0.0
Cd1 Cd 0.20977 0.38547 0.05271 0.0
Cd2 Cd 0.18259 0.35658 0.01403 0.0
O3 O 0.16523 0.36001 0.07511 0.0
O4 O 0.22519 0.41187 0.07268 0.0
O5 O 0.20407 0.4107 1.01075 0.0
C6 C 0.21608 0.42173 0.03857 0.0
C7 C 0.16709 0.35931 0.94002 0.0
C8 C 0.17236 0.36978 0.11082 0.0
C9 C 0.22878 0.34332 0.02693 0.0
O10 O 0.20966 0.33759 0.01784 0.0
O11 O 0.23283 0.36258 0.03862 0.0
O12 O 0.16361 0.34293 0.96641 0.0
O13 O 0.1787 0.37472 0.95655 0.0
O14 O 0.62274 0.19502 0.1097 0.0
Cd15 Cd 0.61692 0.21225 0.04989 0.0
Cd16 Cd 0.64433 0.18376 0.01459 0.0
O17 O 0.63965 0.16781 0.07714 0.0
O18 O 0.5899 0.22838 0.06183 0.0
O19 O 0.5925 0.2021 1.01014 0.0
C20 C 0.58079 0.21601 0.03172 0.0
C21 C 0.64037 0.16798 0.9412 0.0
C22 C 0.63136 0.17661 0.11289 0.0
C23 C 0.6591 0.22955 0.02081 0.0
O24 O 0.66448 0.21 0.01627 0.0
O25 O 0.63978 0.23444 0.03009 0.0
O26 O 0.65673 0.16377 0.96722 0.0
O27 O 0.62561 0.18028 0.95807 0.0
O28 O 0.81233 0.62357 0.10674 0.0
Cd29 Cd 0.79273 0.61725 0.05073 0.0
Cd30 Cd 0.81955 0.64626 1.01083 0.0
O31 O 0.83678 0.64355 0.07229 0.0
O32 O 0.77787 0.59061 0.07098 0.0
O33 O 0.79908 0.59201 1.00924 0.0
C34 C 0.78723 0.58084 0.03706 0.0
C35 C 0.83607 0.64453 0.93767 0.0
C36 C 0.82979 0.63402 0.1084 0.0
C37 C 0.77299 0.65871 0.02289 0.0
O38 O 0.79202 0.66463 0.01355 0.0
O39 O 0.76924 0.63954 0.03561 0.0
O40 O 0.83851 0.66088 0.96468 0.0
O41 O 0.82484 0.6286 0.95302 0.0
O42 O 0.37824 0.81254 0.10503 0.0
Cd43 Cd 0.38393 0.79275 0.049 0.0
Cd44 Cd 0.35517 0.81998 1.01006 0.0
O45 O 0.35833 0.83729 0.07137 0.0
O46 O 0.41013 0.7772 0.06961 0.0
O47 O 0.4094 0.79832 1.00768 0.0
C48 C 0.42021 0.78624 0.03573 0.0
C49 C 0.35862 0.83543 0.93616 0.0
C50 C 0.36803 0.83013 0.10713 0.0
C51 C 0.34191 0.77374 0.02208 0.0
O52 O 0.33618 0.79288 0.01312 0.0
O53 O 0.36111 0.76971 0.03416 0.0
O54 O 0.34202 0.83898 0.96183 0.0
O55 O 0.37384 0.82378 0.95339 0.0
O56 O 0.18997 0.62323 0.93894 0.0
Cd57 Cd 0.20958 0.61778 0.99537 0.0
Cd58 Cd 0.18184 0.64602 0.03398 0.0
O59 O 0.16473 0.64252 0.97255 0.0
O60 O 0.22528 0.59148 0.97587 0.0
O61 O 0.20375 0.59253 0.03712 0.0
C62 C 0.21599 0.58157 1.00967 0.0
C63 C 0.16615 0.64295 0.10769 0.0
C64 C 0.17217 0.63307 0.93676 0.0
C65 C 0.22788 0.66005 0.02238 0.0
O66 O 0.20862 0.66543 0.03101 0.0
O67 O 0.2323 0.6409 1.01049 0.0
O68 O 0.16251 0.65931 0.08136 0.0
O69 O 0.17801 0.62772 0.09123 0.0
O70 O 0.3789 0.19477 0.93703 0.0
Cd71 Cd 0.38461 0.21195 0.99702 0.0
Cd72 Cd 0.35709 0.18346 0.03201 0.0
O73 O 0.36158 0.16772 0.96914 0.0
O74 O 0.41134 0.22849 0.98476 0.0
O75 O 0.40932 0.20215 0.03636 0.0
C76 C 0.42073 0.21627 0.01469 0.0
C77 C 0.36116 0.16726 0.10489 0.0
C78 C 0.37006 0.17647 0.93358 0.0
C79 C 0.34233 0.22919 0.02644 0.0
O80 O 0.33688 0.20966 0.03097 0.0
O81 O 0.36165 0.23402 0.01696 0.0
O82 O 0.34487 0.16306 0.07869 0.0
O83 O 0.37579 0.17986 0.08855 0.0
O84 O 0.81241 0.37883 0.93658 0.0
Cd85 Cd 0.79295 0.38464 0.99303 0.0
Cd86 Cd 0.82001 0.3555 0.0315 0.0
O87 O 0.83703 0.35864 0.96987 0.0
O88 O 0.77779 0.41122 0.97346 0.0
O89 O 0.7992 0.40978 0.03491 0.0
C90 C 0.78719 0.42095 1.00739 0.0
C91 C 0.83644 0.3574 0.10478 0.0
C92 C 0.82988 0.36843 0.93423 0.0
C93 C 0.77352 0.34283 0.01965 0.0
O94 O 0.79261 0.33694 0.02858 0.0
O95 O 0.76965 0.36208 1.00765 0.0
O96 O 0.83913 0.3411 0.07772 0.0
O97 O 0.82505 0.3732 0.08938 0.0
O98 O 0.62191 0.80886 0.93712 0.0
Cd99 Cd 0.61628 0.78982 0.99432 0.0
Cd100 Cd 0.64434 0.81802 0.0324 0.0
O101 O 0.64038 0.83476 0.97055 0.0
O102 O 0.58986 0.77417 0.97553 0.0
O103 O 0.59111 0.79633 0.03576 0.0
C104 C 0.58004 0.78393 1.00884 0.0
C105 C 0.6426 0.8346 0.10558 0.0
C106 C 0.63133 0.82687 0.93469 0.0
C107 C 0.6584 0.77179 0.02196 0.0
O108 O 0.66371 0.79116 0.02973 0.0
O109 O 0.63925 0.76717 1.01049 0.0
O110 O 0.65857 0.83771 0.07785 0.0
O111 O 0.62698 0.82277 0.09084 0.0
O112 O 0.69066 0.87941 0.61259 0.0
Cd113 Cd 0.71016 0.8853 0.55624 0.0
Cd114 Cd 0.68308 0.85652 0.51748 0.0
O115 O 0.66579 0.85969 0.57879 0.0
O116 O 0.72518 0.91206 0.57534 0.0
O117 O 0.70372 0.91022 0.51401 0.0
C118 C 0.71571 0.92158 0.54122 0.0
C119 C 0.66778 0.85988 0.44338 0.0
C120 C 0.67304 0.86924 0.61467 0.0
C121 C 0.72945 0.84353 0.5293 0.0
O122 O 0.71031 0.83773 0.52053 0.0
O123 O 0.73343 0.86276 0.54131 0.0
O124 O 0.6644 0.84317 0.46884 0.0
O125 O 0.67907 0.87527 0.46103 0.0
O126 O 0.12271 0.69497 0.61296 0.0
Cd127 Cd 0.11766 0.71187 0.55239 0.0
Cd128 Cd 0.14551 0.68325 0.51915 0.0
O129 O 0.14017 0.66773 0.582 0.0
O130 O 0.09084 0.72852 0.56302 0.0
O131 O 0.09333 0.70195 0.51201 0.0
C132 C 0.08174 0.71619 0.53285 0.0
C133 C 0.14219 0.66688 0.44619 0.0
C134 C 0.1314 0.67664 0.61706 0.0
C135 C 0.16025 0.72898 0.52478 0.0
O136 O 0.16577 0.70943 0.52086 0.0
O137 O 0.14084 0.73382 0.5332 0.0
O138 O 0.15815 0.66266 0.47331 0.0
O139 O 0.12744 0.6796 0.46164 0.0
O140 O 0.31004 0.12413 0.61032 0.0
Cd141 Cd 0.29264 0.1185 0.55061 0.0
Cd142 Cd 0.32085 0.1463 0.51539 0.0
O143 O 0.33675 0.14192 0.5781 0.0
O144 O 0.27613 0.09176 0.56307 0.0
O145 O 0.30218 0.09381 0.51081 0.0
C146 C 0.28814 0.08239 0.53271 0.0
C147 C 0.3369 0.14236 0.44231 0.0
C148 C 0.32821 0.13323 0.61367 0.0
C149 C 0.27511 0.16083 0.52199 0.0
O150 O 0.29458 0.16638 0.51686 0.0
O151 O 0.27043 0.14148 0.53157 0.0
O152 O 0.34106 0.15867 0.46853 0.0
O153 O 0.32441 0.12764 0.45874 0.0
O154 O 0.87985 0.30655 0.61043 0.0
Cd155 Cd 0.88553 0.28969 0.55004 0.0
Cd156 Cd 0.85802 0.31843 0.51607 0.0
O157 O 0.86286 0.33401 0.5791 0.0
O158 O 0.91232 0.27317 0.56194 0.0
O159 O 0.91022 0.29978 0.511 0.0
C160 C 0.92168 0.2856 0.53238 0.0
C161 C 0.86213 0.33428 0.44281 0.0
C162 C 0.87126 0.32494 0.61442 0.0
C163 C 0.84322 0.27267 0.52085 0.0
O164 O 0.8378 0.29225 0.51723 0.0
O165 O 0.86258 0.26772 0.52957 0.0
O166 O 0.8458 0.33861 0.46882 0.0
O167 O 0.8768 0.32187 0.4597 0.0
O168 O 0.68991 0.12327 0.43476 0.0
Cd169 Cd 0.70956 0.11744 0.49092 0.0
Cd170 Cd 0.6826 0.14634 0.53025 0.0
O171 O 0.66537 0.14324 0.4689 0.0
O172 O 0.72457 0.09072 0.4717 0.0
O173 O 0.70333 0.09253 0.53335 0.0
C174 C 0.71525 0.08119 0.50599 0.0
C175 C 0.6662 0.14451 0.60351 0.0
C176 C 0.67239 0.1336 0.43295 0.0
C177 C 0.729 0.15919 0.51778 0.0
O178 O 0.70994 0.16499 0.52722 0.0
O179 O 0.73288 0.14001 0.50532 0.0
O180 O 0.66353 0.16079 0.57643 0.0
O181 O 0.67759 0.12869 0.58816 0.0
O182 O 0.87969 0.6958 0.43181 0.0
Cd183 Cd 0.88567 0.71282 0.49189 0.0
Cd184 Cd 0.85834 0.68423 0.52709 0.0
O185 O 0.8629 0.66848 0.46422 0.0
O186 O 0.91281 0.72883 0.48036 0.0
O187 O 0.90999 0.70235 0.53148 0.0
C188 C 0.9218 0.71629 0.51026 0.0
C189 C 0.86229 0.66823 0.60025 0.0
C190 C 0.87108 0.67738 0.42848 0.0
C191 C 0.84361 0.73006 0.5219 0.0
O192 O 0.83821 0.71049 0.52609 0.0
O193 O 0.86291 0.73496 0.51242 0.0
O194 O 0.84593 0.6641 0.57418 0.0
O195 O 0.87707 0.68055 0.58352 0.0
O196 O 0.3071 0.88086 0.43126 0.0
Cd197 Cd 0.2905 0.88631 0.49203 0.0
Cd198 Cd 0.31889 0.85827 0.52507 0.0
O199 O 0.33441 0.86345 0.46212 0.0
O200 O 0.27444 0.91353 0.4817 0.0
O201 O 0.30114 0.9104 0.53218 0.0
C202 C 0.28713 0.92235 0.51158 0.0
C203 C 0.33496 0.86165 0.59834 0.0
C204 C 0.3254 0.8721 0.42701 0.0
C205 C 0.27304 0.84393 0.51977 0.0
O206 O 0.29255 0.83824 0.52323 0.0
O207 O 0.26833 0.86342 0.51175 0.0
O208 O 0.33923 0.84561 0.57145 0.0
O209 O 0.32243 0.87646 0.58242 0.0
O210 O 0.12277 0.30792 0.43441 0.0
Cd211 Cd 0.11765 0.29103 0.49495 0.0
Cd212 Cd 0.14575 0.3194 0.52799 0.0
O213 O 0.1403 0.33512 0.46539 0.0
O214 O 0.09068 0.27466 0.48416 0.0
O215 O 0.09343 0.30111 0.53538 0.0
C216 C 0.08168 0.28704 0.51437 0.0
C217 C 0.14272 0.33553 0.60126 0.0
C218 C 0.13148 0.32624 0.43032 0.0
C219 C 0.16017 0.27359 0.52171 0.0
O220 O 0.16584 0.29311 0.5255 0.0
O221 O 0.14067 0.26888 0.51386 0.0
O222 O 0.15862 0.33977 0.57403 0.0
O223 O 0.12787 0.32293 0.58577 0.0
H224 H 0.22774 0.55297 0.94267 0.0
H225 H 0.22736 0.45036 0.10588 0.0
H226 H 0.20889 0.55675 0.08709 0.0
H227 H 0.20936 0.44652 0.96092 0.0
H228 H 0.22858 0.4895 0.09949 0.0
H229 H 0.229 0.51383 0.94907 0.0
C230 C 0.22411 0.54558 0.97589 0.0
C231 C 0.2182 0.5581 0.01448 0.0
C232 C 0.22447 0.48004 0.0691 0.0
C233 C 0.2198 0.51346 0.02193 0.0
C234 C 0.2239 0.45774 0.07256 0.0
C235 C 0.21824 0.44521 0.03381 0.0
C236 C 0.21981 0.48985 0.02637 0.0
C237 C 0.21374 0.45562 0.99162 0.0
C238 C 0.22469 0.52328 0.97934 0.0
C239 C 0.21347 0.54766 0.05652 0.0
N240 N 0.21474 0.47738 0.98891 0.0
N241 N 0.2145 0.5259 0.05924 0.0
H242 H 0.44691 0.25078 1.00085 0.0
H243 H 0.5545 0.18364 1.00278 0.0
H244 H 0.44784 0.1841 0.04087 0.0
H245 H 0.55379 0.24975 0.04722 0.0
H246 H 0.51516 0.18399 1.00058 0.0
H247 H 0.48624 0.25126 1.0038 0.0
C248 C 0.4554 0.23631 1.0106 0.0
C249 C 0.44418 0.2174 0.0209 0.0
C250 C 0.52369 0.19842 1.01057 0.0
C251 C 0.48892 0.2177 0.02288 0.0
C252 C 0.54607 0.1983 1.01138 0.0
C253 C 0.55734 0.2167 0.02519 0.0
C254 C 0.5126 0.21719 0.02261 0.0
C255 C 0.54565 0.23522 0.03649 0.0
C256 C 0.47777 0.2366 1.01222 0.0
C257 C 0.45591 0.19905 0.03314 0.0
N258 N 0.52388 0.23505 0.03469 0.0
N259 N 0.4777 0.19957 0.0332 0.0
H260 H 0.77582 0.44974 0.94053 0.0
H261 H 0.77644 0.55209 0.10446 0.0
H262 H 0.79462 0.44563 0.08497 0.0
H263 H 0.79422 0.5561 0.95945 0.0
H264 H 0.77545 0.51295 0.09793 0.0
H265 H 0.77488 0.48887 0.94722 0.0
C266 C 0.77953 0.45706 0.9738 0.0
C267 C 0.78531 0.44445 1.01232 0.0
C268 C 0.77949 0.52244 0.06757 0.0
C269 C 0.78406 0.48909 0.0201 0.0
C270 C 0.77992 0.54474 0.07111 0.0
C271 C 0.78542 0.55733 0.03237 0.0
C272 C 0.78411 0.51269 0.02476 0.0
C273 C 0.78997 0.54696 0.99014 0.0
C274 C 0.77912 0.47936 0.97742 0.0
C275 C 0.79014 0.45479 0.05444 0.0
N276 N 0.78907 0.5252 0.98734 0.0
N277 N 0.78928 0.47656 0.05733 0.0
H278 H 0.55142 0.77204 0.94202 0.0
H279 H 0.44849 0.77507 0.10377 0.0
H280 H 0.55519 0.79206 0.08574 0.0
H281 H 0.44531 0.79239 0.95838 0.0
H282 H 0.48762 0.77333 0.09796 0.0
H283 H 0.51227 0.77148 0.94802 0.0
C284 C 0.54402 0.77607 0.97501 0.0
C285 C 0.55654 0.78211 0.01351 0.0
C286 C 0.4783 0.77741 0.06736 0.0
C287 C 0.51189 0.78131 0.0205 0.0
C288 C 0.45601 0.77828 0.07048 0.0
C289 C 0.44367 0.78388 0.03142 0.0
C290 C 0.48828 0.7817 0.02466 0.0
C291 C 0.45426 0.78806 0.9893 0.0
C292 C 0.52171 0.77589 0.97822 0.0
C293 C 0.5461 0.78737 0.05525 0.0
N294 N 0.47601 0.78675 0.98692 0.0
N295 N 0.52433 0.78672 0.05776 0.0
H296 H 0.72634 0.05194 0.43982 0.0
H297 H 0.72689 0.95086 0.60732 0.0
H298 H 0.70825 0.05708 0.58449 0.0
H299 H 0.70835 0.94568 0.46287 0.0
H300 H 0.72778 0.98996 0.59936 0.0
H301 H 0.72747 0.01287 0.44783 0.0
C302 C 0.72282 0.04486 0.47341 0.0
C303 C 0.71719 0.05774 0.51162 0.0
C304 C 0.72361 0.98021 0.56944 0.0
C305 C 0.71866 0.01318 0.52091 0.0
C306 C 0.72323 0.95794 0.57379 0.0
C307 C 0.71754 0.94504 0.53563 0.0
C308 C 0.71873 0.98962 0.52639 0.0
C309 C 0.71276 0.95506 0.49314 0.0
C310 C 0.72334 0.02259 0.47779 0.0
C311 C 0.71261 0.04771 0.55419 0.0
N312 N 0.7136 0.9768 0.48954 0.0
N313 N 0.71358 0.02597 0.55781 0.0
H314 H 0.94787 0.68379 0.53945 0.0
H315 H 0.05551 0.7508 0.54501 0.0
H316 H 0.94901 0.74992 0.49529 0.0
H317 H 0.05483 0.68401 0.50565 0.0
H318 H 0.01622 0.75134 0.5403 0.0
H319 H 0.98719 0.68404 0.54266 0.0
C320 C 0.95639 0.69844 0.53108 0.0
C321 C 0.94524 0.71688 0.5171 0.0
C322 C 0.02474 0.73664 0.53239 0.0
C323 C 0.98997 0.71725 0.52085 0.0
C324 C 0.04708 0.73631 0.53502 0.0
C325 C 0.05837 0.71735 0.52546 0.0
C326 C 0.01365 0.71773 0.52146 0.0
C327 C 0.04671 0.699 0.51286 0.0
C328 C 0.97876 0.69849 0.53248 0.0
C329 C 0.95704 0.73536 0.50614 0.0
N330 N 0.02493 0.69955 0.51181 0.0
N331 N 0.97881 0.73514 0.50852 0.0
H332 H 0.25358 0.05636 0.54715 0.0
H333 H 0.3199 0.94824 0.54009 0.0
H334 H 0.31996 0.05517 0.50506 0.0
H335 H 0.25347 0.94971 0.49822 0.0
H336 H 0.31987 0.98757 0.54344 0.0
H337 H 0.2528 0.01703 0.54334 0.0
C338 C 0.26793 0.04781 0.53679 0.0
C339 C 0.28683 0.05897 0.52615 0.0
C340 C 0.3053 0.97921 0.53377 0.0
C341 C 0.2862 0.01421 0.52315 0.0
C342 C 0.30524 0.95683 0.53231 0.0
C343 C 0.28665 0.94577 0.51887 0.0
C344 C 0.28652 0.99052 0.52277 0.0
C345 C 0.26814 0.95767 0.50864 0.0
C346 C 0.26746 0.02545 0.53467 0.0
C347 C 0.30501 0.04716 0.51309 0.0
N348 N 0.26849 0.97944 0.51105 0.0
N349 N 0.30434 0.02536 0.51253 0.0
H350 H 0.05528 0.31928 0.54352 0.0
H351 H 0.9481 0.25127 0.54622 0.0
H352 H 0.05489 0.25302 0.50006 0.0
H353 H 0.94857 0.318 0.50654 0.0
H354 H 0.98744 0.25109 0.54346 0.0
H355 H 0.01596 0.31863 0.54628 0.0
C356 C 0.04693 0.30452 0.53528 0.0
C357 C 0.05829 0.28617 0.52154 0.0
C358 C 0.97886 0.26569 0.53509 0.0
C359 C 0.01356 0.28535 0.52473 0.0
C360 C 0.95649 0.26582 0.53659 0.0
C361 C 0.94513 0.28465 0.52631 0.0
C362 C 0.98989 0.28469 0.52455 0.0
C363 C 0.95674 0.3031 0.51424 0.0
C364 C 0.02455 0.30424 0.53641 0.0
C365 C 0.04669 0.26752 0.51072 0.0
N366 N 0.97854 0.30274 0.51426 0.0
N367 N 0.02492 0.26754 0.51278 0.0
H368 H 0.27222 0.34968 0.03636 0.0
H369 H 0.299 0.22423 0.03584 0.0
H370 H 0.22494 0.29995 0.0159 0.0
H371 H 0.34791 0.27294 0.02364 0.0
H372 H 0.27172 0.25219 0.03607 0.0
H373 H 0.30027 0.32217 0.0379 0.0
C374 C 0.26773 0.33302 0.03205 0.0
C375 C 0.24617 0.32714 0.02596 0.0
C376 C 0.28842 0.25679 0.0334 0.0
C377 C 0.27814 0.29562 0.02818 0.0
C378 C 0.30404 0.24082 0.03349 0.0
C379 C 0.32582 0.24621 0.02957 0.0
C380 C 0.29453 0.2784 0.02966 0.0
C381 C 0.33132 0.26803 0.02659 0.0
C382 C 0.28375 0.31733 0.03294 0.0
C383 C 0.24132 0.30528 0.02057 0.0
N384 N 0.31577 0.28333 0.02668 0.0
N385 N 0.25714 0.29036 0.02201 0.0
H386 H 0.73012 0.34956 1.01036 0.0
H387 H 0.70239 0.22435 1.01154 0.0
H388 H 0.77696 0.29949 0.03148 0.0
H389 H 0.65379 0.27335 0.02382 0.0
H390 H 0.72984 0.25213 1.0114 0.0
H391 H 0.70182 0.32228 1.00922 0.0
C392 C 0.73446 0.33287 0.01492 0.0
C393 C 0.75598 0.32683 0.02104 0.0
C394 C 0.71317 0.25684 0.01408 0.0
C395 C 0.72372 0.29558 0.01927 0.0
C396 C 0.69744 0.24097 0.01394 0.0
C397 C 0.6757 0.24649 0.01784 0.0
C398 C 0.70721 0.27848 0.01785 0.0
C399 C 0.67034 0.26834 0.02088 0.0
C400 C 0.7183 0.31733 0.01426 0.0
C401 C 0.76063 0.30495 0.02677 0.0
N402 N 0.686 0.28355 0.02082 0.0
N403 N 0.74467 0.29016 0.02552 0.0
H404 H 0.72957 0.65179 0.03134 0.0
H405 H 0.70158 0.77681 0.03346 0.0
H406 H 0.77629 0.70205 1.01107 0.0
H407 H 0.65312 0.72805 0.01512 0.0
H408 H 0.72901 0.74904 0.03321 0.0
H409 H 0.70115 0.67898 0.03197 0.0
C410 C 0.73386 0.66849 0.02686 0.0
C411 C 0.75537 0.67463 0.02115 0.0
C412 C 0.71238 0.74438 0.02924 0.0
C413 C 0.723 0.70574 0.02237 0.0
C414 C 0.69666 0.76025 0.02961 0.0
C415 C 0.67497 0.75479 0.02418 0.0
C416 C 0.70646 0.72281 0.02377 0.0
C417 C 0.66965 0.733 0.01927 0.0
C418 C 0.71763 0.68398 0.02721 0.0
C419 C 0.75996 0.69652 0.01548 0.0
N420 N 0.68529 0.71778 0.01924 0.0
N421 N 0.74395 0.71125 0.01649 0.0
H422 H 0.2232 0.70328 0.03405 0.0
H423 H 0.34841 0.73023 0.02957 0.0
H424 H 0.27152 0.6545 0.01443 0.0
H425 H 0.29853 0.77754 1.01156 0.0
H426 H 0.32097 0.70207 0.03034 0.0
H427 H 0.25116 0.73054 0.03341 0.0
C428 C 0.23971 0.69826 0.02983 0.0
C429 C 0.24498 0.67652 0.02419 0.0
C430 C 0.3161 0.71863 0.02605 0.0
C431 C 0.27717 0.70781 0.02334 0.0
C432 C 0.33173 0.73471 0.02563 0.0
C433 C 0.32578 0.75631 0.0205 0.0
C434 C 0.29437 0.72423 0.02185 0.0
C435 C 0.30392 0.76114 0.0155 0.0
C436 C 0.25568 0.71388 0.02924 0.0
C437 C 0.2667 0.67106 0.01877 0.0
N438 N 0.28904 0.74526 0.01656 0.0
N439 N 0.28202 0.68661 0.01855 0.0
H440 H 0.80036 0.72486 0.53196 0.0
H441 H 0.77291 0.85011 0.53774 0.0
H442 H 0.84898 0.77387 0.52003 0.0
H443 H 0.72582 0.80023 0.51696 0.0
H444 H 0.80115 0.82278 0.53736 0.0
H445 H 0.77297 0.75267 0.53383 0.0
C446 C 0.80532 0.74148 0.52998 0.0
C447 C 0.82705 0.747 0.52569 0.0
C448 C 0.78463 0.81788 0.53276 0.0
C449 C 0.79561 0.77903 0.52768 0.0
C450 C 0.7685 0.83345 0.53298 0.0
C451 C 0.74693 0.82748 0.52736 0.0
C452 C 0.77912 0.79617 0.52735 0.0
C453 C 0.74219 0.80564 0.52132 0.0
C454 C 0.78963 0.75737 0.53084 0.0
C455 C 0.83243 0.76886 0.52324 0.0
N456 N 0.75812 0.79081 0.52168 0.0
N457 N 0.81681 0.78409 0.52427 0.0
H458 H 0.22938 0.84991 0.51763 0.0
H459 H 0.20363 0.72416 0.51517 0.0
H460 H 0.27762 0.80045 0.5276 0.0
H461 H 0.15458 0.77267 0.52841 0.0
H462 H 0.23081 0.75224 0.51477 0.0
H463 H 0.20161 0.82216 0.51795 0.0
C464 C 0.23415 0.83325 0.5201 0.0
C465 C 0.2559 0.82753 0.52257 0.0
C466 C 0.21411 0.75677 0.51772 0.0
C467 C 0.2242 0.79571 0.52251 0.0
C468 C 0.19853 0.74073 0.51776 0.0
C469 C 0.17675 0.74603 0.52192 0.0
C470 C 0.20792 0.77835 0.52166 0.0
C471 C 0.17118 0.76782 0.52521 0.0
C472 C 0.21828 0.81742 0.52023 0.0
C473 C 0.26109 0.80566 0.52569 0.0
N474 N 0.18667 0.78318 0.52502 0.0
N475 N 0.24538 0.79058 0.52537 0.0
H476 H 0.27974 0.20415 0.51072 0.0
H477 H 0.15415 0.22993 0.51966 0.0
H478 H 0.23149 0.15512 0.52809 0.0
H479 H 0.2037 0.27817 0.52782 0.0
H480 H 0.18187 0.20214 0.51861 0.0
H481 H 0.25166 0.23132 0.51139 0.0
C482 C 0.26322 0.19905 0.51442 0.0
C483 C 0.258 0.17728 0.51945 0.0
C484 C 0.18664 0.21881 0.52081 0.0
C485 C 0.22569 0.20844 0.52046 0.0
C486 C 0.17083 0.23469 0.52145 0.0
C487 C 0.17658 0.25645 0.52381 0.0
C488 C 0.20836 0.22473 0.52216 0.0
C489 C 0.19847 0.26163 0.52603 0.0
C490 C 0.24719 0.21462 0.51501 0.0
C491 C 0.23628 0.17171 0.52418 0.0
N492 N 0.21353 0.24591 0.52495 0.0
N493 N 0.22091 0.1872 0.52458 0.0
H494 H 0.79988 0.27789 0.51242 0.0
H495 H 0.77237 0.15263 0.50757 0.0
H496 H 0.84859 0.22887 0.5221 0.0
H497 H 0.7255 0.20248 0.53068 0.0
H498 H 0.80061 0.17998 0.50676 0.0
H499 H 0.77247 0.25007 0.51164 0.0
C500 C 0.80486 0.26126 0.51412 0.0
C501 C 0.82662 0.25574 0.51748 0.0
C502 C 0.78413 0.18487 0.51214 0.0
C503 C 0.79516 0.22371 0.51676 0.0
C504 C 0.76801 0.16928 0.51262 0.0
C505 C 0.7465 0.17524 0.51922 0.0
C506 C 0.77868 0.20657 0.51784 0.0
C507 C 0.74182 0.19708 0.52558 0.0
C508 C 0.78915 0.24537 0.51389 0.0
C509 C 0.83202 0.23388 0.5196 0.0
N510 N 0.75774 0.21191 0.52452 0.0
N511 N 0.81638 0.21865 0.51921 0.0
H512 H 0.11236 0.31277 0.3496 0.0
H513 H 0.18062 0.39222 0.19063 0.0
H514 H 0.15362 0.36242 0.40415 0.0
H515 H 0.13968 0.34243 0.13562 0.0
H516 H 0.16686 0.38489 0.26845 0.0
H517 H 0.11821 0.32663 0.2712 0.0
C518 C 0.12248 0.32674 0.34521 0.0
C519 C 0.13274 0.33627 0.38359 0.0
C520 C 0.16068 0.37572 0.23935 0.0
C521 C 0.13959 0.35216 0.29357 0.0
C522 C 0.16851 0.37991 0.19479 0.0
C523 C 0.16151 0.36772 0.15651 0.0
C524 C 0.1458 0.3591 0.24593 0.0
C525 C 0.14565 0.35214 0.16409 0.0
C526 C 0.12581 0.33465 0.30033 0.0
C527 C 0.1455 0.35445 0.37564 0.0
N528 N 0.13853 0.34809 0.20802 0.0
N529 N 0.14875 0.36165 0.33148 0.0
H530 H 0.63871 0.16007 0.41019 0.0
H531 H 0.65308 0.13984 0.13674 0.0
H532 H 0.6814 0.11273 0.35147 0.0
H533 H 0.61371 0.19007 0.19511 0.0
H534 H 0.65918 0.12595 0.2153 0.0
H535 H 0.62487 0.16739 0.33203 0.0
C536 C 0.64495 0.15098 0.38102 0.0
C537 C 0.66146 0.13597 0.38739 0.0
C538 C 0.64902 0.13989 0.21085 0.0
C539 C 0.64582 0.14439 0.29778 0.0
C540 C 0.6455 0.1478 0.16595 0.0
C541 C 0.63309 0.16633 0.15929 0.0
C542 C 0.6401 0.15058 0.24939 0.0
C543 C 0.6236 0.1759 0.19854 0.0
C544 C 0.63709 0.15523 0.33635 0.0
C545 C 0.66887 0.12465 0.34823 0.0
N546 N 0.62747 0.16804 0.24187 0.0
N547 N 0.66116 0.12924 0.30512 0.0
H548 H 0.8496 0.64047 0.40456 0.0
H549 H 0.86314 0.66097 0.13097 0.0
H550 H 0.88826 0.69121 0.34606 0.0
H551 H 0.82106 0.61319 0.19 0.0
H552 H 0.87699 0.66852 0.20906 0.0
H553 H 0.84339 0.62665 0.32598 0.0
C554 C 0.85699 0.64857 0.37531 0.0
C555 C 0.86924 0.6672 0.38196 0.0
C556 C 0.86489 0.65621 0.20482 0.0
C557 C 0.8621 0.65152 0.29182 0.0
C558 C 0.85704 0.65184 0.16019 0.0
C559 C 0.8407 0.63662 0.15393 0.0
C560 C 0.85635 0.64529 0.24345 0.0
C561 C 0.83346 0.62525 0.19316 0.0
C562 C 0.8534 0.64069 0.33039 0.0
C563 C 0.8785 0.67694 0.34265 0.0
N564 N 0.84117 0.62996 0.23621 0.0
N565 N 0.87457 0.66911 0.2993 0.0
H566 H 0.31162 0.89084 0.34614 0.0
H567 H 0.39046 0.8219 0.18694 0.0
H568 H 0.3614 0.84976 0.40056 0.0
H569 H 0.34066 0.8628 0.132 0.0
H570 H 0.38326 0.83581 0.26471 0.0
H571 H 0.32513 0.88459 0.2676 0.0
C572 C 0.32555 0.88067 0.34169 0.0
C573 C 0.33522 0.87059 0.3801 0.0
C574 C 0.37405 0.84195 0.23564 0.0
C575 C 0.35071 0.86328 0.28989 0.0
C576 C 0.37816 0.83402 0.1911 0.0
C577 C 0.36595 0.84099 0.15285 0.0
C578 C 0.3575 0.85688 0.24225 0.0
C579 C 0.35039 0.85687 0.16045 0.0
C580 C 0.33325 0.87711 0.29672 0.0
C581 C 0.35333 0.85775 0.37205 0.0
N582 N 0.34643 0.86408 0.20436 0.0
N583 N 0.36034 0.85428 0.32781 0.0
H584 H 0.11227 0.69006 0.69778 0.0
H585 H 0.18095 0.61098 0.85677 0.0
H586 H 0.15359 0.6405 0.64323 0.0
H587 H 0.1392 0.66003 0.91186 0.0
H588 H 0.16725 0.6183 0.77887 0.0
H589 H 0.11814 0.67618 0.77617 0.0
C590 C 0.12242 0.67611 0.70217 0.0
C591 C 0.13268 0.66661 0.66379 0.0
C592 C 0.16087 0.62731 0.808 0.0
C593 C 0.13956 0.65069 0.7538 0.0
C594 C 0.16869 0.62313 0.8526 0.0
C595 C 0.16142 0.63511 0.89093 0.0
C596 C 0.14578 0.64373 0.80143 0.0
C597 C 0.14536 0.65048 0.88335 0.0
C598 C 0.12575 0.66818 0.74705 0.0
C599 C 0.14547 0.64845 0.67173 0.0
N600 N 0.13828 0.65455 0.83938 0.0
N601 N 0.14873 0.64124 0.71588 0.0
H602 H 0.31652 0.11327 0.69462 0.0
H603 H 0.38968 0.18866 0.85258 0.0
H604 H 0.3628 0.15793 0.63902 0.0
H605 H 0.34614 0.14133 0.90821 0.0
H606 H 0.38303 0.17478 0.77447 0.0
H607 H 0.3301 0.12038 0.77278 0.0
C608 C 0.32971 0.12441 0.69875 0.0
C609 C 0.33835 0.13523 0.66015 0.0
C610 C 0.3751 0.16726 0.80376 0.0
C611 C 0.35388 0.14358 0.74989 0.0
C612 C 0.37888 0.17519 0.84847 0.0
C613 C 0.36825 0.16632 0.88706 0.0
C614 C 0.36044 0.15043 0.79738 0.0
C615 C 0.35459 0.14876 0.87951 0.0
C616 C 0.33746 0.12846 0.74348 0.0
C617 C 0.35555 0.14932 0.66772 0.0
N618 N 0.35089 0.14156 0.8355 0.0
N619 N 0.36257 0.15329 0.71176 0.0
H620 H 0.82136 0.3906 0.8542 0.0
H621 H 0.88998 0.31132 0.69539 0.0
H622 H 0.86247 0.34102 0.9093 0.0
H623 H 0.84888 0.361 0.64057 0.0
H624 H 0.88383 0.32503 0.7738 0.0
H625 H 0.83505 0.38318 0.77635 0.0
C626 C 0.83347 0.37831 0.85006 0.0
C627 C 0.84057 0.36622 0.88838 0.0
C628 C 0.87632 0.33309 0.74462 0.0
C629 C 0.85621 0.35751 0.79892 0.0
C630 C 0.87982 0.32526 0.69973 0.0
C631 C 0.86971 0.33485 0.66125 0.0
C632 C 0.86251 0.35059 0.75131 0.0
C633 C 0.85689 0.35299 0.66915 0.0
C634 C 0.84128 0.37407 0.80548 0.0
C635 C 0.85644 0.35065 0.8808 0.0
N636 N 0.85348 0.36012 0.71333 0.0
N637 N 0.86353 0.34656 0.83686 0.0
H638 H 0.65517 0.8624 0.91121 0.0
H639 H 0.63862 0.84377 0.63784 0.0
H640 H 0.61195 0.81539 0.85291 0.0
H641 H 0.68304 0.88961 0.69621 0.0
H642 H 0.62474 0.83689 0.71615 0.0
H643 H 0.66167 0.87627 0.83276 0.0
C644 C 0.64682 0.85518 0.88207 0.0
C645 C 0.63322 0.83751 0.88869 0.0
C646 C 0.63737 0.84864 0.71172 0.0
C647 C 0.6407 0.8532 0.7987 0.0
C648 C 0.64525 0.85262 0.66696 0.0
C649 C 0.66223 0.86708 0.66042 0.0
C650 C 0.64655 0.85916 0.75023 0.0
C651 C 0.67013 0.87812 0.69955 0.0
C652 C 0.65058 0.86307 0.83722 0.0
C653 C 0.62278 0.82887 0.84951 0.0
N654 N 0.66239 0.87377 0.74274 0.0
N655 N 0.62691 0.83665 0.80625 0.0
H656 H 0.89258 0.67707 0.66694 0.0
H657 H 0.86456 0.67297 0.90026 0.0
H658 H 0.83338 0.64258 0.64573 0.0
H659 H 0.82648 0.61755 0.8648 0.0
H660 H 0.87485 0.67653 0.8189 0.0
H661 H 0.89067 0.66875 0.74997 0.0
C662 C 0.87923 0.66764 0.67969 0.0
C663 C 0.86295 0.6608 0.64934 0.0
C664 C 0.86475 0.6632 0.82881 0.0
C665 C 0.86024 0.65178 0.74487 0.0
C666 C 0.85869 0.66127 0.87543 0.0
C667 C 0.8446 0.64494 0.88945 0.0
C668 C 0.85658 0.64875 0.79563 0.0
C669 C 0.83742 0.63034 0.85561 0.0
C670 C 0.87799 0.66311 0.72732 0.0
C671 C 0.84618 0.64841 0.66786 0.0
N672 N 0.84324 0.63278 0.81018 0.0
N673 N 0.84518 0.64443 0.71441 0.0
H674 H 0.32248 0.88849 0.66903 0.0
H675 H 0.38613 0.82332 0.86626 0.0
H676 H 0.36435 0.83508 0.63969 0.0
H677 H 0.33219 0.86468 0.89431 0.0
H678 H 0.38363 0.83275 0.78352 0.0
H679 H 0.33133 0.88522 0.75183 0.0
C680 C 0.3338 0.87629 0.67985 0.0
C681 C 0.34254 0.86192 0.64735 0.0
C682 C 0.3725 0.83992 0.80791 0.0
C683 C 0.35267 0.85804 0.74218 0.0
C684 C 0.37397 0.83463 0.85518 0.0
C685 C 0.35923 0.84309 0.88725 0.0
C686 C 0.35628 0.85391 0.79263 0.0
C687 C 0.34379 0.85764 0.8708 0.0
C688 C 0.33875 0.87437 0.72719 0.0
C689 C 0.3571 0.84641 0.66352 0.0
N690 N 0.34265 0.8625 0.82468 0.0
N691 N 0.3616 0.8448 0.70978 0.0
H692 H 0.16899 0.3656 0.64114 0.0
H693 H 0.13759 0.33265 0.89973 0.0
H694 H 0.11665 0.32281 0.67308 0.0
H695 H 0.1794 0.38587 0.86857 0.0
H696 H 0.12852 0.32996 0.81713 0.0
H697 H 0.17191 0.37453 0.72385 0.0
C698 C 0.15792 0.35828 0.66546 0.0
C699 C 0.14264 0.34331 0.65012 0.0
C700 C 0.13948 0.34241 0.82836 0.0
C701 C 0.1461 0.35326 0.74513 0.0
C702 C 0.14468 0.34395 0.87558 0.0
C703 C 0.15939 0.35943 0.89111 0.0
C704 C 0.14927 0.35625 0.79615 0.0
C705 C 0.168 0.37368 0.85818 0.0
C706 C 0.1596 0.3634 0.71274 0.0
C707 C 0.1287 0.3344 0.68328 0.0
N708 N 0.16304 0.37157 0.8122 0.0
N709 N 0.13095 0.33929 0.72924 0.0
H710 H 0.61 0.17683 0.87472 0.0
H711 H 0.63758 0.17277 0.64112 0.0
H712 H 0.66928 0.14245 0.89539 0.0
H713 H 0.67607 0.11761 0.67628 0.0
H714 H 0.62739 0.1763 0.72254 0.0
H715 H 0.61181 0.16856 0.79165 0.0
C716 C 0.62335 0.16744 0.86184 0.0
C717 C 0.63968 0.16062 0.89205 0.0
C718 C 0.63756 0.16302 0.71256 0.0
C719 C 0.64228 0.15165 0.79647 0.0
C720 C 0.64356 0.16112 0.66589 0.0
C721 C 0.65773 0.14488 0.65177 0.0
C722 C 0.64587 0.14864 0.74567 0.0
C723 C 0.66506 0.13033 0.68556 0.0
C724 C 0.62453 0.16294 0.81418 0.0
C725 C 0.65645 0.14827 0.87337 0.0
N726 N 0.65929 0.13275 0.73103 0.0
N727 N 0.65739 0.14432 0.82679 0.0
H728 H 0.89247 0.32525 0.37641 0.0
H729 H 0.86499 0.32911 0.14265 0.0
H730 H 0.83331 0.35986 0.39681 0.0
H731 H 0.82657 0.38436 0.17748 0.0
H732 H 0.87512 0.32565 0.22414 0.0
H733 H 0.89067 0.33339 0.2933 0.0
C734 C 0.87915 0.33466 0.36346 0.0
C735 C 0.86285 0.34159 0.39363 0.0
C736 C 0.86497 0.33893 0.21408 0.0
C737 C 0.86026 0.35041 0.29796 0.0
C738 C 0.85901 0.3408 0.16737 0.0
C739 C 0.84488 0.35705 0.15312 0.0
C740 C 0.85667 0.35336 0.24712 0.0
C741 C 0.83755 0.37163 0.18684 0.0
C742 C 0.87797 0.33909 0.31577 0.0
C743 C 0.84612 0.35397 0.37484 0.0
N744 N 0.84329 0.36925 0.23235 0.0
N745 N 0.84518 0.35784 0.32823 0.0
H746 H 0.67053 0.86381 0.14249 0.0
H747 H 0.67592 0.89054 0.377 0.0
H748 H 0.61662 0.82393 0.17932 0.0
H749 H 0.64299 0.8304 0.39738 0.0
H750 H 0.6673 0.88878 0.29403 0.0
H751 H 0.67462 0.87375 0.22401 0.0
C752 C 0.65926 0.85747 0.16766 0.0
C753 C 0.64321 0.84298 0.15395 0.0
C754 C 0.66208 0.87587 0.31648 0.0
C755 C 0.64764 0.85452 0.24797 0.0
C756 C 0.66679 0.87701 0.36408 0.0
C757 C 0.66045 0.86045 0.39418 0.0
C758 C 0.65105 0.85795 0.29873 0.0
C759 C 0.64844 0.84342 0.37545 0.0
C760 C 0.66149 0.86331 0.21439 0.0
C761 C 0.62917 0.8352 0.18824 0.0
N762 N 0.64425 0.84256 0.32897 0.0
N763 N 0.63192 0.84082 0.23372 0.0
H764 H 0.16832 0.63669 0.4064 0.0
H765 H 0.13633 0.66925 0.14788 0.0
H766 H 0.11591 0.67941 0.37454 0.0
H767 H 0.17866 0.61645 0.1791 0.0
H768 H 0.12728 0.67187 0.23047 0.0
H769 H 0.17105 0.62761 0.32376 0.0
C770 C 0.15719 0.64396 0.38212 0.0
C771 C 0.14195 0.65896 0.39745 0.0
C772 C 0.13834 0.65953 0.21926 0.0
C773 C 0.1452 0.64883 0.3025 0.0
C774 C 0.14354 0.65802 0.17204 0.0
C775 C 0.1584 0.6427 0.15653 0.0
C776 C 0.1483 0.64581 0.25149 0.0
C777 C 0.16715 0.62853 0.18947 0.0
C778 C 0.15876 0.63875 0.33487 0.0
C779 C 0.12793 0.6678 0.36434 0.0
N780 N 0.16219 0.63061 0.23545 0.0
N781 N 0.13007 0.66282 0.3184 0.0
H782 H 0.32449 0.11508 0.37228 0.0
H783 H 0.38853 0.17955 0.17483 0.0
H784 H 0.36658 0.16844 0.40073 0.0
H785 H 0.33519 0.13744 0.14641 0.0
H786 H 0.38601 0.17022 0.25751 0.0
H787 H 0.33366 0.11775 0.28952 0.0
C788 C 0.33592 0.12713 0.36128 0.0
C789 C 0.34463 0.14169 0.39348 0.0
C790 C 0.37502 0.16284 0.23308 0.0
C791 C 0.35513 0.14487 0.29876 0.0
C792 C 0.37651 0.16808 0.18582 0.0
C793 C 0.36192 0.15942 0.15365 0.0
C794 C 0.3589 0.14874 0.2483 0.0
C795 C 0.34666 0.14465 0.16999 0.0
C796 C 0.34107 0.12871 0.31398 0.0
C797 C 0.35934 0.157 0.37712 0.0
N798 N 0.34546 0.13989 0.21616 0.0
N799 N 0.36402 0.15827 0.33092 0.0
loop_
_geom_bond_atom_site_label_1
_geom_bond_atom_site_label_2
_geom_bond_distance
_geom_bond_site_symmetry_2
_ccdc_geom_bond_type
O0 Cd1 2.223 . S
O0 C8 1.315 . S
Cd1 O0 2.223 . S
Cd1 O4 2.297 . S
Cd1 O5 2.439 . S
Cd1 O11 2.231 1_554 S
Cd2 O3 2.240 1_556 S
Cd2 O10 2.223 1_556 S
Cd2 O12 2.297 . S
Cd2 O13 2.439 . S
O3 Cd2 2.240 1_554 S
O3 C8 1.279 . S
O4 Cd1 2.297 . S
O4 C6 1.247 . S
O5 Cd1 2.439 . S
O5 C6 1.208 . S
C6 O4 1.247 . S
C6 O5 1.208 . S
C7 O12 1.247 . S
C7 O13 1.208 . S
C8 O0 1.315 . S
C8 O3 1.279 . S
C9 O10 1.315 . S
C9 O11 1.273 1_554 S
O10 Cd2 2.223 1_554 S
O10 C9 1.315 . S
O11 Cd1 2.231 1_556 S
O11 C9 1.273 1_556 S
O12 Cd2 2.297 . S
O12 C7 1.247 . S
O13 Cd2 2.439 . S
O13 C7 1.208 . S
O14 Cd15 2.223 . S
O14 C22 1.315 . S
Cd15 O14 2.223 . S
Cd15 O18 2.297 . S
Cd15 O19 2.439 . S
Cd15 O25 2.231 1_554 S
Cd16 O17 2.240 1_556 S
Cd16 O24 2.223 1_556 S
Cd16 O26 2.297 . S
Cd16 O27 2.439 . S
O17 Cd16 2.240 1_554 S
O17 C22 1.279 . S
O18 Cd15 2.297 . S
O18 C20 1.247 . S
O19 Cd15 2.439 . S
O19 C20 1.208 . S
C20 O18 1.247 . S
C20 O19 1.208 . S
C21 O26 1.247 . S
C21 O27 1.208 . S
C22 O14 1.315 . S
C22 O17 1.279 . S
C23 O24 1.315 . S
C23 O25 1.273 1_554 S
O24 Cd16 2.223 1_554 S
O24 C23 1.315 . S
O25 Cd15 2.231 1_556 S
O25 C23 1.273 1_556 S
O26 Cd16 2.297 . S
O26 C21 1.247 . S
O27 Cd16 2.439 . S
O27 C21 1.208 . S
O28 Cd29 2.223 . S
O28 C36 1.315 . S
Cd29 O28 2.223 . S
Cd29 O32 2.297 . S
Cd29 O33 2.439 . S
Cd29 O39 2.231 1_554 S
Cd30 O31 2.240 1_556 S
Cd30 O38 2.223 1_556 S
Cd30 O40 2.297 . S
Cd30 O41 2.439 . S
O31 Cd30 2.240 1_554 S
O31 C36 1.279 . S
O32 Cd29 2.297 . S
O32 C34 1.247 . S
O33 Cd29 2.439 . S
O33 C34 1.208 . S
C34 O32 1.247 . S
C34 O33 1.208 . S
C35 O40 1.247 . S
C35 O41 1.208 . S
C36 O28 1.315 . S
C36 O31 1.279 . S
C37 O38 1.315 . S
C37 O39 1.273 1_554 S
O38 Cd30 2.223 1_554 S
O38 C37 1.315 . S
O39 Cd29 2.231 1_556 S
O39 C37 1.273 1_556 S
O40 Cd30 2.297 . S
O40 C35 1.247 . S
O41 Cd30 2.439 . S
O41 C35 1.208 . S
O42 Cd43 2.223 . S
O42 C50 1.315 . S
Cd43 O42 2.223 . S
Cd43 O46 2.297 . S
Cd43 O47 2.439 . S
Cd43 O53 2.231 1_554 S
Cd44 O45 2.240 1_556 S
Cd44 O52 2.223 1_556 S
Cd44 O54 2.297 . S
Cd44 O55 2.439 . S
O45 Cd44 2.240 1_554 S
O45 C50 1.279 . S
O46 Cd43 2.297 . S
O46 C48 1.247 . S
O47 Cd43 2.439 . S
O47 C48 1.208 . S
C48 O46 1.247 . S
C48 O47 1.208 . S
C49 O54 1.247 . S
C49 O55 1.208 . S
C50 O42 1.315 . S
C50 O45 1.279 . S
C51 O52 1.315 . S
C51 O53 1.273 1_554 S
O52 Cd44 2.223 1_554 S
O52 C51 1.315 . S
O53 Cd43 2.231 1_556 S
O53 C51 1.273 1_556 S
O54 Cd44 2.297 . S
O54 C49 1.247 . S
O55 Cd44 2.439 . S
O55 C49 1.208 . S
O56 Cd57 2.223 . S
O56 C64 1.315 . S
Cd57 O56 2.223 . S
Cd57 O60 2.297 . S
Cd57 O61 2.439 1_556 S
Cd57 O67 2.240 1_556 S
Cd58 O59 2.240 1_554 S
Cd58 O66 2.223 . S
Cd58 O68 2.297 . S
Cd58 O69 2.439 . S
O59 Cd58 2.240 1_556 S
O59 C64 1.279 . S
O60 Cd57 2.297 . S
O60 C62 1.247 . S
O61 Cd57 2.439 1_554 S
O61 C62 1.208 1_554 S
C62 O60 1.247 . S
C62 O61 1.208 1_556 S
C63 O68 1.247 . S
C63 O69 1.208 . S
C64 O56 1.315 . S
C64 O59 1.279 . S
C65 O66 1.315 . S
C65 O67 1.279 . S
O66 Cd58 2.223 . S
O66 C65 1.315 . S
O67 Cd57 2.240 1_554 S
O67 C65 1.279 . S
O68 Cd58 2.297 . S
O68 C63 1.247 . S
O69 Cd58 2.439 . S
O69 C63 1.208 . S
O70 Cd71 2.223 . S
O70 C78 1.315 . S
Cd71 O70 2.223 . S
Cd71 O74 2.297 . S
Cd71 O75 2.439 1_556 S
Cd71 O81 2.240 1_556 S
Cd72 O73 2.240 1_554 S
Cd72 O80 2.223 . S
Cd72 O82 2.297 . S
Cd72 O83 2.439 . S
O73 Cd72 2.240 1_556 S
O73 C78 1.279 . S
O74 Cd71 2.297 . S
O74 C76 1.247 . S
O75 Cd71 2.439 1_554 S
O75 C76 1.208 1_554 S
C76 O74 1.247 . S
C76 O75 1.208 1_556 S
C77 O82 1.247 . S
C77 O83 1.208 . S
C78 O70 1.315 . S
C78 O73 1.279 . S
C79 O80 1.315 . S
C79 O81 1.279 . S
O80 Cd72 2.223 . S
O80 C79 1.315 . S
O81 Cd71 2.240 1_554 S
O81 C79 1.279 . S
O82 Cd72 2.297 . S
O82 C77 1.247 . S
O83 Cd72 2.439 . S
O83 C77 1.208 . S
O84 Cd85 2.223 . S
O84 C92 1.315 . S
Cd85 O84 2.223 . S
Cd85 O88 2.297 . S
Cd85 O89 2.439 1_556 S
Cd85 O95 2.240 1_556 S
Cd86 O87 2.240 1_554 S
Cd86 O94 2.223 . S
Cd86 O96 2.297 . S
Cd86 O97 2.439 . S
O87 Cd86 2.240 1_556 S
O87 C92 1.279 . S
O88 Cd85 2.297 . S
O88 C90 1.247 . S
O89 Cd85 2.439 1_554 S
O89 C90 1.208 1_554 S
C90 O88 1.247 . S
C90 O89 1.208 1_556 S
C91 O96 1.247 . S
C91 O97 1.208 . S
C92 O84 1.315 . S
C92 O87 1.279 . S
C93 O94 1.315 . S
C93 O95 1.279 . S
O94 Cd86 2.223 . S
O94 C93 1.315 . S
O95 Cd85 2.240 1_554 S
O95 C93 1.279 . S
O96 Cd86 2.297 . S
O96 C91 1.247 . S
O97 Cd86 2.439 . S
O97 C91 1.208 . S
O98 Cd99 2.223 . S
O98 C106 1.315 . S
Cd99 O98 2.223 . S
Cd99 O102 2.297 . S
Cd99 O103 2.439 1_556 S
Cd99 O109 2.240 1_556 S
Cd100 O101 2.240 1_554 S
Cd100 O108 2.223 . S
Cd100 O110 2.297 . S
Cd100 O111 2.439 . S
O101 Cd100 2.240 1_556 S
O101 C106 1.279 . S
O102 Cd99 2.297 . S
O102 C104 1.247 . S
O103 Cd99 2.439 1_554 S
O103 C104 1.208 1_554 S
C104 O102 1.247 . S
C104 O103 1.208 1_556 S
C105 O110 1.247 . S
C105 O111 1.208 . S
C106 O98 1.315 . S
C106 O101 1.279 . S
C107 O108 1.315 . S
C107 O109 1.279 . S
O108 Cd100 2.223 . S
O108 C107 1.315 . S
O109 Cd99 2.240 1_554 S
O109 C107 1.279 . S
O110 Cd100 2.297 . S
O110 C105 1.247 . S
O111 Cd100 2.439 . S
O111 C105 1.208 . S
O112 Cd113 2.223 . S
O112 C120 1.315 . S
Cd113 O112 2.223 . S
Cd113 O116 2.297 . S
Cd113 O117 2.439 . S
Cd113 O123 2.240 . S
Cd114 O115 2.240 . S
Cd114 O122 2.223 . S
Cd114 O124 2.297 . S
Cd114 O125 2.439 . S
O115 Cd114 2.240 . S
O115 C120 1.279 . S
O116 Cd113 2.297 . S
O116 C118 1.247 . S
O117 Cd113 2.439 . S
O117 C118 1.208 . S
C118 O116 1.247 . S
C118 O117 1.208 . S
C119 O124 1.247 . S
C119 O125 1.208 . S
C120 O112 1.315 . S
C120 O115 1.279 . S
C121 O122 1.315 . S
C121 O123 1.279 . S
O122 Cd114 2.223 . S
O122 C121 1.315 . S
O123 Cd113 2.240 . S
O123 C121 1.279 . S
O124 Cd114 2.297 . S
O124 C119 1.247 . S
O125 Cd114 2.439 . S
O125 C119 1.208 . S
O126 Cd127 2.223 . S
O126 C134 1.315 . S
Cd127 O126 2.223 . S
Cd127 O130 2.297 . S
Cd127 O131 2.439 . S
Cd127 O137 2.240 . S
Cd128 O129 2.240 . S
Cd128 O136 2.223 . S
Cd128 O138 2.297 . S
Cd128 O139 2.439 . S
O129 Cd128 2.240 . S
O129 C134 1.279 . S
O130 Cd127 2.297 . S
O130 C132 1.247 . S
O131 Cd127 2.439 . S
O131 C132 1.208 . S
C132 O130 1.247 . S
C132 O131 1.208 . S
C133 O138 1.247 . S
C133 O139 1.208 . S
C134 O126 1.315 . S
C134 O129 1.279 . S
C135 O136 1.315 . S
C135 O137 1.279 . S
O136 Cd128 2.223 . S
O136 C135 1.315 . S
O137 Cd127 2.240 . S
O137 C135 1.279 . S
O138 Cd128 2.297 . S
O138 C133 1.247 . S
O139 Cd128 2.439 . S
O139 C133 1.208 . S
O140 Cd141 2.223 . S
O140 C148 1.315 . S
Cd141 O140 2.223 . S
Cd141 O144 2.297 . S
Cd141 O145 2.439 . S
Cd141 O151 2.240 . S
Cd142 O143 2.240 . S
Cd142 O150 2.223 . S
Cd142 O152 2.297 . S
Cd142 O153 2.439 . S
O143 Cd142 2.240 . S
O143 C148 1.279 . S
O144 Cd141 2.297 . S
O144 C146 1.247 . S
O145 Cd141 2.439 . S
O145 C146 1.208 . S
C146 O144 1.247 . S
C146 O145 1.208 . S
C147 O152 1.247 . S
C147 O153 1.208 . S
C148 O140 1.315 . S
C148 O143 1.279 . S
C149 O150 1.315 . S
C149 O151 1.279 . S
O150 Cd142 2.223 . S
O150 C149 1.315 . S
O151 Cd141 2.240 . S
O151 C149 1.279 . S
O152 Cd142 2.297 . S
O152 C147 1.247 . S
O153 Cd142 2.439 . S
O153 C147 1.208 . S
O154 Cd155 2.223 . S
O154 C162 1.315 . S
Cd155 O154 2.223 . S
Cd155 O158 2.297 . S
Cd155 O159 2.439 . S
Cd155 O165 2.240 . S
Cd156 O157 2.240 . S
Cd156 O164 2.223 . S
Cd156 O166 2.297 . S
Cd156 O167 2.439 . S
O157 Cd156 2.240 . S
O157 C162 1.279 . S
O158 Cd155 2.297 . S
O158 C160 1.247 . S
O159 Cd155 2.439 . S
O159 C160 1.208 . S
C160 O158 1.247 . S
C160 O159 1.208 . S
C161 O166 1.247 . S
C161 O167 1.208 . S
C162 O154 1.315 . S
C162 O157 1.279 . S
C163 O164 1.315 . S
C163 O165 1.279 . S
O164 Cd156 2.223 . S
O164 C163 1.315 . S
O165 Cd155 2.240 . S
O165 C163 1.279 . S
O166 Cd156 2.297 . S
O166 C161 1.247 . S
O167 Cd156 2.439 . S
O167 C161 1.208 . S
O168 Cd169 2.223 . S
O168 C176 1.315 . S
Cd169 O168 2.223 . S
Cd169 O172 2.297 . S
Cd169 O173 2.439 . S
Cd169 O179 2.240 . S
Cd170 O171 2.240 . S
Cd170 O178 2.223 . S
Cd170 O180 2.297 . S
Cd170 O181 2.439 . S
O171 Cd170 2.240 . S
O171 C176 1.279 . S
O172 Cd169 2.297 . S
O172 C174 1.247 . S
O173 Cd169 2.439 . S
O173 C174 1.208 . S
C174 O172 1.247 . S
C174 O173 1.208 . S
C175 O180 1.247 . S
C175 O181 1.208 . S
C176 O168 1.315 . S
C176 O171 1.279 . S
C177 O178 1.315 . S
C177 O179 1.279 . S
O178 Cd170 2.223 . S
O178 C177 1.315 . S
O179 Cd169 2.240 . S
O179 C177 1.279 . S
O180 Cd170 2.297 . S
O180 C175 1.247 . S
O181 Cd170 2.439 . S
O181 C175 1.208 . S
O182 Cd183 2.223 . S
O182 C190 1.315 . S
Cd183 O182 2.223 . S
Cd183 O186 2.297 . S
Cd183 O187 2.439 . S
Cd183 O193 2.240 . S
Cd184 O185 2.240 . S
Cd184 O192 2.223 . S
Cd184 O194 2.297 . S
Cd184 O195 2.439 . S
O185 Cd184 2.240 . S
O185 C190 1.279 . S
O186 Cd183 2.297 . S
O186 C188 1.247 . S
O187 Cd183 2.439 . S
O187 C188 1.208 . S
C188 O186 1.247 . S
C188 O187 1.208 . S
C189 O194 1.247 . S
C189 O195 1.208 . S
C190 O182 1.315 . S
C190 O185 1.279 . S
C191 O192 1.315 . S
C191 O193 1.279 . S
O192 Cd184 2.223 . S
O192 C191 1.315 . S
O193 Cd183 2.240 . S
O193 C191 1.279 . S
O194 Cd184 2.297 . S
O194 C189 1.247 . S
O195 Cd184 2.439 . S
O195 C189 1.208 . S
O196 Cd197 2.223 . S
O196 C204 1.315 . S
Cd197 O196 2.223 . S
Cd197 O200 2.297 . S
Cd197 O201 2.439 . S
Cd197 O207 2.240 . S
Cd198 O199 2.240 . S
Cd198 O206 2.223 . S
Cd198 O208 2.297 . S
Cd198 O209 2.439 . S
O199 Cd198 2.240 . S
O199 C204 1.279 . S
O200 Cd197 2.297 . S
O200 C202 1.247 . S
O201 Cd197 2.439 . S
O201 C202 1.208 . S
C202 O200 1.247 . S
C202 O201 1.208 . S
C203 O208 1.247 . S
C203 O209 1.208 . S
C204 O196 1.315 . S
C204 O199 1.279 . S
C205 O206 1.315 . S
C205 O207 1.279 . S
O206 Cd198 2.223 . S
O206 C205 1.315 . S
O207 Cd197 2.240 . S
O207 C205 1.279 . S
O208 Cd198 2.297 . S
O208 C203 1.247 . S
O209 Cd198 2.439 . S
O209 C203 1.208 . S
O210 Cd211 2.223 . S
O210 C218 1.315 . S
Cd211 O210 2.223 . S
Cd211 O214 2.297 . S
Cd211 O215 2.439 . S
Cd211 O221 2.240 . S
Cd212 O213 2.240 . S
Cd212 O220 2.223 . S
Cd212 O222 2.297 . S
Cd212 O223 2.439 . S
O213 Cd212 2.240 . S
O213 C218 1.279 . S
O214 Cd211 2.297 . S
O214 C216 1.247 . S
O215 Cd211 2.439 . S
O215 C216 1.208 . S
C216 O214 1.247 . S
C216 O215 1.208 . S
C217 O222 1.247 . S
C217 O223 1.208 . S
C218 O210 1.315 . S
C218 O213 1.279 . S
C219 O220 1.315 . S
C219 O221 1.279 . S
O220 Cd212 2.223 . S
O220 C219 1.315 . S
O221 Cd211 2.240 . S
O221 C219 1.279 . S
O222 Cd212 2.297 . S
O222 C217 1.247 . S
O223 Cd212 2.439 . S
O223 C217 1.208 . S
H224 C230 0.930 . S
H225 C234 0.930 . S
H226 C239 0.929 . S
H227 C237 0.929 . S
H228 C232 0.929 . S
H229 C238 0.929 . S
C230 H224 0.930 . S
C230 C231 1.367 . S
C230 C238 1.378 . S
C231 C230 1.367 . S
C231 C239 1.433 1_556 S
C232 H228 0.929 . S
C232 C234 1.378 . S
C232 C236 1.350 . S
C233 C236 1.463 . S
C233 C238 1.350 1_554 S
C233 N241 1.427 . S
C234 H225 0.930 . S
C234 C232 1.378 . S
C234 C235 1.367 . S
C235 C234 1.367 . S
C235 C237 1.433 1_554 S
C236 C232 1.350 . S
C236 C233 1.463 . S
C236 N240 1.427 1_554 S
C237 H227 0.929 . S
C237 C235 1.433 1_556 S
C237 N240 1.384 . S
C238 H229 0.929 . S
C238 C230 1.378 . S
C238 C233 1.350 1_556 S
C239 H226 0.929 . S
C239 C231 1.433 1_554 S
C239 N241 1.384 . S
N240 C236 1.427 1_556 S
N240 C237 1.384 . S
N241 C233 1.427 . S
N241 C239 1.384 . S
H242 C248 0.930 . S
H243 C252 0.930 . S
H244 C257 0.929 . S
H245 C255 0.929 . S
H246 C250 0.929 1_556 S
H247 C256 0.929 . S
C248 H242 0.930 . S
C248 C249 1.367 1_554 S
C248 C256 1.378 . S
C249 C248 1.367 1_556 S
C249 C257 1.433 . S
C250 H246 0.929 1_554 S
C250 C252 1.378 . S
C250 C254 1.350 . S
C251 C254 1.463 . S
C251 C256 1.350 . S
C251 N259 1.427 1_554 S
C252 H243 0.930 . S
C252 C250 1.378 . S
C252 C253 1.367 . S
C253 C252 1.367 . S
C253 C255 1.433 . S
C254 C250 1.350 . S
C254 C251 1.463 . S
C254 N258 1.427 . S
C255 H245 0.929 . S
C255 C253 1.433 . S
C255 N258 1.384 . S
C256 H247 0.929 . S
C256 C248 1.378 . S
C256 C251 1.350 . S
C257 H244 0.929 . S
C257 C249 1.433 . S
C257 N259 1.384 . S
N258 C254 1.427 . S
N258 C255 1.384 . S
N259 C251 1.427 1_556 S
N259 C257 1.384 . S
H260 C266 0.930 . S
H261 C270 0.930 . S
H262 C275 0.929 . S
H263 C273 0.929 . S
H264 C268 0.929 . S
H265 C274 0.929 . S
C266 H260 0.930 . S
C266 C267 1.367 . S
C266 C274 1.378 . S
C267 C266 1.367 . S
C267 C275 1.433 1_556 S
C268 H264 0.929 . S
C268 C270 1.378 . S
C268 C272 1.350 . S
C269 C272 1.463 . S
C269 C274 1.350 1_554 S
C269 N277 1.427 . S
C270 H261 0.930 . S
C270 C268 1.378 . S
C270 C271 1.367 . S
C271 C270 1.367 . S
C271 C273 1.433 1_554 S
C272 C268 1.350 . S
C272 C269 1.463 . S
C272 N276 1.427 1_554 S
C273 H263 0.929 . S
C273 C271 1.433 1_556 S
C273 N276 1.384 . S
C274 H265 0.929 . S
C274 C266 1.378 . S
C274 C269 1.350 1_556 S
C275 H262 0.929 . S
C275 C267 1.433 1_554 S
C275 N277 1.384 . S
N276 C272 1.427 1_556 S
N276 C273 1.384 . S
N277 C269 1.427 . S
N277 C275 1.384 . S
H278 C284 0.930 . S
H279 C288 0.930 . S
H280 C293 0.929 . S
H281 C291 0.929 . S
H282 C286 0.929 . S
H283 C292 0.929 . S
C284 H278 0.930 . S
C284 C285 1.367 . S
C284 C292 1.378 . S
C285 C284 1.367 . S
C285 C293 1.433 1_556 S
C286 H282 0.929 . S
C286 C288 1.378 . S
C286 C290 1.350 . S
C287 C290 1.463 . S
C287 C292 1.350 1_554 S
C287 N295 1.427 . S
C288 H279 0.930 . S
C288 C286 1.378 . S
C288 C289 1.367 . S
C289 C288 1.367 . S
C289 C291 1.433 1_554 S
C290 C286 1.350 . S
C290 C287 1.463 . S
C290 N294 1.427 1_554 S
C291 H281 0.929 . S
C291 C289 1.433 1_556 S
C291 N294 1.384 . S
C292 H283 0.929 . S
C292 C284 1.378 . S
C292 C287 1.350 1_556 S
C293 H280 0.929 . S
C293 C285 1.433 1_554 S
C293 N295 1.384 . S
N294 C290 1.427 1_556 S
N294 C291 1.384 . S
N295 C287 1.427 . S
N295 C293 1.384 . S
H296 C302 0.930 . S
H297 C306 0.930 . S
H298 C311 0.929 . S
H299 C309 0.929 . S
H300 C304 0.929 . S
H301 C310 0.929 . S
C302 H296 0.930 . S
C302 C303 1.367 . S
C302 C310 1.378 . S
C303 C302 1.367 . S
C303 C311 1.433 . S
C304 H300 0.929 . S
C304 C306 1.378 . S
C304 C308 1.350 . S
C305 C308 1.463 1_545 S
C305 C310 1.350 . S
C305 N313 1.427 . S
C306 H297 0.930 . S
C306 C304 1.378 . S
C306 C307 1.367 . S
C307 C306 1.367 . S
C307 C309 1.433 . S
C308 C304 1.350 . S
C308 C305 1.463 1_565 S
C308 N312 1.427 . S
C309 H299 0.929 . S
C309 C307 1.433 . S
C309 N312 1.384 . S
C310 H301 0.929 . S
C310 C302 1.378 . S
C310 C305 1.350 . S
C311 H298 0.929 . S
C311 C303 1.433 . S
C311 N313 1.384 . S
N312 C308 1.427 . S
N312 C309 1.384 . S
N313 C305 1.427 . S
N313 C311 1.384 . S
H314 C320 0.930 . S
H315 C324 0.930 . S
H316 C329 0.929 . S
H317 C327 0.929 . S
H318 C322 0.929 . S
H319 C328 0.929 . S
C320 H314 0.930 . S
C320 C321 1.367 . S
C320 C328 1.378 . S
C321 C320 1.367 . S
C321 C329 1.433 . S
C322 H318 0.929 . S
C322 C324 1.378 . S
C322 C326 1.350 . S
C323 C326 1.463 1_655 S
C323 C328 1.350 . S
C323 N331 1.427 . S
C324 H315 0.930 . S
C324 C322 1.378 . S
C324 C325 1.367 . S
C325 C324 1.367 . S
C325 C327 1.433 . S
C326 C322 1.350 . S
C326 C323 1.463 1_455 S
C326 N330 1.427 . S
C327 H317 0.929 . S
C327 C325 1.433 . S
C327 N330 1.384 . S
C328 H319 0.929 . S
C328 C320 1.378 . S
C328 C323 1.350 . S
C329 H316 0.929 . S
C329 C321 1.433 . S
C329 N331 1.384 . S
N330 C326 1.427 . S
N330 C327 1.384 . S
N331 C323 1.427 . S
N331 C329 1.384 . S
H332 C338 0.930 . S
H333 C342 0.930 . S
H334 C347 0.929 . S
H335 C345 0.929 . S
H336 C340 0.929 . S
H337 C346 0.929 . S
C338 H332 0.930 . S
C338 C339 1.367 . S
C338 C346 1.378 . S
C339 C338 1.367 . S
C339 C347 1.433 . S
C340 H336 0.929 . S
C340 C342 1.378 . S
C340 C344 1.350 . S
C341 C344 1.463 1_545 S
C341 C346 1.350 . S
C341 N349 1.427 . S
C342 H333 0.930 . S
C342 C340 1.378 . S
C342 C343 1.367 . S
C343 C342 1.367 . S
C343 C345 1.433 . S
C344 C340 1.350 . S
C344 C341 1.463 1_565 S
C344 N348 1.427 . S
C345 H335 0.929 . S
C345 C343 1.433 . S
C345 N348 1.384 . S
C346 H337 0.929 . S
C346 C338 1.378 . S
C346 C341 1.350 . S
C347 H334 0.929 . S
C347 C339 1.433 . S
C347 N349 1.384 . S
N348 C344 1.427 . S
N348 C345 1.384 . S
N349 C341 1.427 . S
N349 C347 1.384 . S
H350 C356 0.930 . S
H351 C360 0.930 . S
H352 C365 0.929 . S
H353 C363 0.929 . S
H354 C358 0.929 . S
H355 C364 0.929 . S
C356 H350 0.930 . S
C356 C357 1.367 . S
C356 C364 1.378 . S
C357 C356 1.367 . S
C357 C365 1.433 . S
C358 H354 0.929 . S
C358 C360 1.378 . S
C358 C362 1.350 . S
C359 C362 1.463 1_455 S
C359 C364 1.350 . S
C359 N367 1.427 . S
C360 H351 0.930 . S
C360 C358 1.378 . S
C360 C361 1.367 . S
C361 C360 1.367 . S
C361 C363 1.433 . S
C362 C358 1.350 . S
C362 C359 1.463 1_655 S
C362 N366 1.427 . S
C363 H353 0.929 . S
C363 C361 1.433 . S
C363 N366 1.384 . S
C364 H355 0.929 . S
C364 C356 1.378 . S
C364 C359 1.350 . S
C365 H352 0.929 . S
C365 C357 1.433 . S
C365 N367 1.384 . S
N366 C362 1.427 . S
N366 C363 1.384 . S
N367 C359 1.427 . S
N367 C365 1.384 . S
H368 C374 0.930 . S
H369 C378 0.930 . S
H370 C383 0.929 . S
H371 C381 0.929 . S
H372 C376 0.929 . S
H373 C382 0.929 . S
C374 H368 0.930 . S
C374 C375 1.367 1_556 S
C374 C382 1.378 . S
C375 C374 1.367 1_554 S
C375 C383 1.433 . S
C376 H372 0.929 . S
C376 C378 1.378 . S
C376 C380 1.350 . S
C377 C380 1.463 . S
C377 C382 1.350 1_554 S
C377 N385 1.427 . S
C378 H369 0.930 . S
C378 C376 1.378 . S
C378 C379 1.367 . S
C379 C378 1.367 . S
C379 C381 1.433 1_554 S
C380 C376 1.350 . S
C380 C377 1.463 . S
C380 N384 1.427 1_554 S
C381 H371 0.929 . S
C381 C379 1.433 1_556 S
C381 N384 1.384 . S
C382 H373 0.929 . S
C382 C374 1.378 . S
C382 C377 1.350 1_556 S
C383 H370 0.929 . S
C383 C375 1.433 . S
C383 N385 1.384 . S
N384 C380 1.427 1_556 S
N384 C381 1.384 . S
N385 C377 1.427 . S
N385 C383 1.384 . S
H386 C392 0.930 1_556 S
H387 C396 0.930 . S
H388 C401 0.929 . S
H389 C399 0.929 . S
H390 C394 0.929 . S
H391 C400 0.929 . S
C392 H386 0.930 1_554 S
C392 C393 1.367 . S
C392 C400 1.378 . S
C393 C392 1.367 . S
C393 C401 1.433 . S
C394 H390 0.929 . S
C394 C396 1.378 . S
C394 C398 1.350 . S
C395 C398 1.463 . S
C395 C400 1.350 . S
C395 N403 1.427 . S
C396 H387 0.930 . S
C396 C394 1.378 . S
C396 C397 1.367 . S
C397 C396 1.367 . S
C397 C399 1.433 . S
C398 C394 1.350 . S
C398 C395 1.463 . S
C398 N402 1.427 . S
C399 H389 0.929 . S
C399 C397 1.433 . S
C399 N402 1.384 . S
C400 H391 0.929 . S
C400 C392 1.378 . S
C400 C395 1.350 . S
C401 H388 0.929 . S
C401 C393 1.433 . S
C401 N403 1.384 . S
N402 C398 1.427 . S
N402 C399 1.384 . S
N403 C395 1.427 . S
N403 C401 1.384 . S
H404 C410 0.930 . S
H405 C414 0.930 . S
H406 C419 0.929 . S
H407 C417 0.929 . S
H408 C412 0.929 . S
H409 C418 0.929 . S
C410 H404 0.930 . S
C410 C411 1.367 1_556 S
C410 C418 1.378 . S
C411 C410 1.367 1_554 S
C411 C419 1.433 . S
C412 H408 0.929 . S
C412 C414 1.378 . S
C412 C416 1.350 . S
C413 C416 1.463 . S
C413 C418 1.350 1_554 S
C413 N421 1.427 . S
C414 H405 0.930 . S
C414 C412 1.378 . S
C414 C415 1.367 . S
C415 C414 1.367 . S
C415 C417 1.433 1_554 S
C416 C412 1.350 . S
C416 C413 1.463 . S
C416 N420 1.427 1_554 S
C417 H407 0.929 . S
C417 C415 1.433 1_556 S
C417 N420 1.384 . S
C418 H409 0.929 . S
C418 C410 1.378 . S
C418 C413 1.350 1_556 S
C419 H406 0.929 . S
C419 C411 1.433 . S
C419 N421 1.384 . S
N420 C416 1.427 1_556 S
N420 C417 1.384 . S
N421 C413 1.427 . S
N421 C419 1.384 . S
H422 C428 0.930 . S
H423 C432 0.930 . S
H424 C437 0.929 . S
H425 C435 0.929 . S
H426 C430 0.929 . S
H427 C436 0.929 . S
C428 H422 0.930 . S
C428 C429 1.367 1_556 S
C428 C436 1.378 . S
C429 C428 1.367 1_554 S
C429 C437 1.433 . S
C430 H426 0.929 . S
C430 C432 1.378 . S
C430 C434 1.350 . S
C431 C434 1.463 . S
C431 C436 1.350 1_554 S
C431 N439 1.427 . S
C432 H423 0.930 . S
C432 C430 1.378 . S
C432 C433 1.367 . S
C433 C432 1.367 . S
C433 C435 1.433 1_554 S
C434 C430 1.350 . S
C434 C431 1.463 . S
C434 N438 1.427 1_554 S
C435 H425 0.929 . S
C435 C433 1.433 1_556 S
C435 N438 1.384 . S
C436 H427 0.929 . S
C436 C428 1.378 . S
C436 C431 1.350 1_556 S
C437 H424 0.929 . S
C437 C429 1.433 . S
C437 N439 1.384 . S
N438 C434 1.427 1_556 S
N438 C435 1.384 . S
N439 C431 1.427 . S
N439 C437 1.384 . S
H440 C446 0.930 . S
H441 C450 0.930 . S
H442 C455 0.929 . S
H443 C453 0.929 . S
H444 C448 0.929 . S
H445 C454 0.929 . S
C446 H440 0.930 . S
C446 C447 1.367 . S
C446 C454 1.378 . S
C447 C446 1.367 . S
C447 C455 1.433 . S
C448 H444 0.929 . S
C448 C450 1.378 . S
C448 C452 1.350 . S
C449 C452 1.463 . S
C449 C454 1.350 . S
C449 N457 1.427 . S
C450 H441 0.930 . S
C450 C448 1.378 . S
C450 C451 1.367 . S
C451 C450 1.367 . S
C451 C453 1.433 . S
C452 C448 1.350 . S
C452 C449 1.463 . S
C452 N456 1.427 . S
C453 H443 0.929 . S
C453 C451 1.433 . S
C453 N456 1.384 . S
C454 H445 0.929 . S
C454 C446 1.378 . S
C454 C449 1.350 . S
C455 H442 0.929 . S
C455 C447 1.433 . S
C455 N457 1.384 . S
N456 C452 1.427 . S
N456 C453 1.384 . S
N457 C449 1.427 . S
N457 C455 1.384 . S
H458 C464 0.930 . S
H459 C468 0.930 . S
H460 C473 0.929 . S
H461 C471 0.929 . S
H462 C466 0.929 . S
H463 C472 0.929 . S
C464 H458 0.930 . S
C464 C465 1.367 . S
C464 C472 1.378 . S
C465 C464 1.367 . S
C465 C473 1.433 . S
C466 H462 0.929 . S
C466 C468 1.378 . S
C466 C470 1.350 . S
C467 C470 1.463 . S
C467 C472 1.350 . S
C467 N475 1.427 . S
C468 H459 0.930 . S
C468 C466 1.378 . S
C468 C469 1.367 . S
C469 C468 1.367 . S
C469 C471 1.433 . S
C470 C466 1.350 . S
C470 C467 1.463 . S
C470 N474 1.427 . S
C471 H461 0.929 . S
C471 C469 1.433 . S
C471 N474 1.384 . S
C472 H463 0.929 . S
C472 C464 1.378 . S
C472 C467 1.350 . S
C473 H460 0.929 . S
C473 C465 1.433 . S
C473 N475 1.384 . S
N474 C470 1.427 . S
N474 C471 1.384 . S
N475 C467 1.427 . S
N475 C473 1.384 . S
H476 C482 0.930 . S
H477 C486 0.930 . S
H478 C491 0.929 . S
H479 C489 0.929 . S
H480 C484 0.929 . S
H481 C490 0.929 . S
C482 H476 0.930 . S
C482 C483 1.367 . S
C482 C490 1.378 . S
C483 C482 1.367 . S
C483 C491 1.433 . S
C484 H480 0.929 . S
C484 C486 1.378 . S
C484 C488 1.350 . S
C485 C488 1.463 . S
C485 C490 1.350 . S
C485 N493 1.427 . S
C486 H477 0.930 . S
C486 C484 1.378 . S
C486 C487 1.367 . S
C487 C486 1.367 . S
C487 C489 1.433 . S
C488 C484 1.350 . S
C488 C485 1.463 . S
C488 N492 1.427 . S
C489 H479 0.929 . S
C489 C487 1.433 . S
C489 N492 1.384 . S
C490 H481 0.929 . S
C490 C482 1.378 . S
C490 C485 1.350 . S
C491 H478 0.929 . S
C491 C483 1.433 . S
C491 N493 1.384 . S
N492 C488 1.427 . S
N492 C489 1.384 . S
N493 C485 1.427 . S
N493 C491 1.384 . S
H494 C500 0.930 . S
H495 C504 0.930 . S
H496 C509 0.929 . S
H497 C507 0.929 . S
H498 C502 0.929 . S
H499 C508 0.929 . S
C500 H494 0.930 . S
C500 C501 1.367 . S
C500 C508 1.378 . S
C501 C500 1.367 . S
C501 C509 1.433 . S
C502 H498 0.929 . S
C502 C504 1.378 . S
C502 C506 1.350 . S
C503 C506 1.463 . S
C503 C508 1.350 . S
C503 N511 1.427 . S
C504 H495 0.930 . S
C504 C502 1.378 . S
C504 C505 1.367 . S
C505 C504 1.367 . S
C505 C507 1.433 . S
C506 C502 1.350 . S
C506 C503 1.463 . S
C506 N510 1.427 . S
C507 H497 0.929 . S
C507 C505 1.433 . S
C507 N510 1.384 . S
C508 H499 0.929 . S
C508 C500 1.378 . S
C508 C503 1.350 . S
C509 H496 0.929 . S
C509 C501 1.433 . S
C509 N511 1.384 . S
N510 C506 1.427 . S
N510 C507 1.384 . S
N511 C503 1.427 . S
N511 C509 1.384 . S
H512 C518 0.930 . S
H513 C522 0.930 . S
H514 C527 0.929 . S
H515 C525 0.929 . S
H516 C520 0.929 . S
H517 C526 0.929 . S
C518 H512 0.930 . S
C518 C519 1.367 . S
C518 C526 1.378 . S
C519 C518 1.367 . S
C519 C527 1.433 . S
C520 H516 0.929 . S
C520 C522 1.378 . S
C520 C524 1.350 . S
C521 C524 1.463 . S
C521 C526 1.350 . S
C521 N529 1.427 . S
C522 H513 0.930 . S
C522 C520 1.378 . S
C522 C523 1.367 . S
C523 C522 1.367 . S
C523 C525 1.433 . S
C524 C520 1.350 . S
C524 C521 1.463 . S
C524 N528 1.427 . S
C525 H515 0.929 . S
C525 C523 1.433 . S
C525 N528 1.384 . S
C526 H517 0.929 . S
C526 C518 1.378 . S
C526 C521 1.350 . S
C527 H514 0.929 . S
C527 C519 1.433 . S
C527 N529 1.384 . S
N528 C524 1.427 . S
N528 C525 1.384 . S
N529 C521 1.427 . S
N529 C527 1.384 . S
H530 C536 0.930 . S
H531 C540 0.930 . S
H532 C545 0.929 . S
H533 C543 0.929 . S
H534 C538 0.929 . S
H535 C544 0.929 . S
C536 H530 0.930 . S
C536 C537 1.367 . S
C536 C544 1.378 . S
C537 C536 1.367 . S
C537 C545 1.433 . S
C538 H534 0.929 . S
C538 C540 1.378 . S
C538 C542 1.350 . S
C539 C542 1.463 . S
C539 C544 1.350 . S
C539 N547 1.427 . S
C540 H531 0.930 . S
C540 C538 1.378 . S
C540 C541 1.367 . S
C541 C540 1.367 . S
C541 C543 1.433 . S
C542 C538 1.350 . S
C542 C539 1.463 . S
C542 N546 1.427 . S
C543 H533 0.929 . S
C543 C541 1.433 . S
C543 N546 1.384 . S
C544 H535 0.929 . S
C544 C536 1.378 . S
C544 C539 1.350 . S
C545 H532 0.929 . S
C545 C537 1.433 . S
C545 N547 1.384 . S
N546 C542 1.427 . S
N546 C543 1.384 . S
N547 C539 1.427 . S
N547 C545 1.384 . S
H548 C554 0.930 . S
H549 C558 0.930 . S
H550 C563 0.929 . S
H551 C561 0.929 . S
H552 C556 0.929 . S
H553 C562 0.929 . S
C554 H548 0.930 . S
C554 C555 1.367 . S
C554 C562 1.378 . S
C555 C554 1.367 . S
C555 C563 1.433 . S
C556 H552 0.929 . S
C556 C558 1.378 . S
C556 C560 1.350 . S
C557 C560 1.463 . S
C557 C562 1.350 . S
C557 N565 1.427 . S
C558 H549 0.930 . S
C558 C556 1.378 . S
C558 C559 1.367 . S
C559 C558 1.367 . S
C559 C561 1.433 . S
C560 C556 1.350 . S
C560 C557 1.463 . S
C560 N564 1.427 . S
C561 H551 0.929 . S
C561 C559 1.433 . S
C561 N564 1.384 . S
C562 H553 0.929 . S
C562 C554 1.378 . S
C562 C557 1.350 . S
C563 H550 0.929 . S
C563 C555 1.433 . S
C563 N565 1.384 . S
N564 C560 1.427 . S
N564 C561 1.384 . S
N565 C557 1.427 . S
N565 C563 1.384 . S
H566 C572 0.930 . S
H567 C576 0.930 . S
H568 C581 0.929 . S
H569 C579 0.929 . S
H570 C574 0.929 . S
H571 C580 0.929 . S
C572 H566 0.930 . S
C572 C573 1.367 . S
C572 C580 1.378 . S
C573 C572 1.367 . S
C573 C581 1.433 . S
C574 H570 0.929 . S
C574 C576 1.378 . S
C574 C578 1.350 . S
C575 C578 1.463 . S
C575 C580 1.350 . S
C575 N583 1.427 . S
C576 H567 0.930 . S
C576 C574 1.378 . S
C576 C577 1.367 . S
C577 C576 1.367 . S
C577 C579 1.433 . S
C578 C574 1.350 . S
C578 C575 1.463 . S
C578 N582 1.427 . S
C579 H569 0.929 . S
C579 C577 1.433 . S
C579 N582 1.384 . S
C580 H571 0.929 . S
C580 C572 1.378 . S
C580 C575 1.350 . S
C581 H568 0.929 . S
C581 C573 1.433 . S
C581 N583 1.384 . S
N582 C578 1.427 . S
N582 C579 1.384 . S
N583 C575 1.427 . S
N583 C581 1.384 . S
H584 C590 0.930 . S
H585 C594 0.930 . S
H586 C599 0.929 . S
H587 C597 0.929 . S
H588 C592 0.929 . S
H589 C598 0.929 . S
C590 H584 0.930 . S
C590 C591 1.367 . S
C590 C598 1.378 . S
C591 C590 1.367 . S
C591 C599 1.433 . S
C592 H588 0.929 . S
C592 C594 1.378 . S
C592 C596 1.350 . S
C593 C596 1.463 . S
C593 C598 1.350 . S
C593 N601 1.427 . S
C594 H585 0.930 . S
C594 C592 1.378 . S
C594 C595 1.367 . S
C595 C594 1.367 . S
C595 C597 1.433 . S
C596 C592 1.350 . S
C596 C593 1.463 . S
C596 N600 1.427 . S
C597 H587 0.929 . S
C597 C595 1.433 . S
C597 N600 1.384 . S
C598 H589 0.929 . S
C598 C590 1.378 . S
C598 C593 1.350 . S
C599 H586 0.929 . S
C599 C591 1.433 . S
C599 N601 1.384 . S
N600 C596 1.427 . S
N600 C597 1.384 . S
N601 C593 1.427 . S
N601 C599 1.384 . S
H602 C608 0.930 . S
H603 C612 0.930 . S
H604 C617 0.929 . S
H605 C615 0.929 . S
H606 C610 0.929 . S
H607 C616 0.929 . S
C608 H602 0.930 . S
C608 C609 1.367 . S
C608 C616 1.378 . S
C609 C608 1.367 . S
C609 C617 1.433 . S
C610 H606 0.929 . S
C610 C612 1.378 . S
C610 C614 1.350 . S
C611 C614 1.463 . S
C611 C616 1.350 . S
C611 N619 1.427 . S
C612 H603 0.930 . S
C612 C610 1.378 . S
C612 C613 1.367 . S
C613 C612 1.367 . S
C613 C615 1.433 . S
C614 C610 1.350 . S
C614 C611 1.463 . S
C614 N618 1.427 . S
C615 H605 0.929 . S
C615 C613 1.433 . S
C615 N618 1.384 . S
C616 H607 0.929 . S
C616 C608 1.378 . S
C616 C611 1.350 . S
C617 H604 0.929 . S
C617 C609 1.433 . S
C617 N619 1.384 . S
N618 C614 1.427 . S
N618 C615 1.384 . S
N619 C611 1.427 . S
N619 C617 1.384 . S
H620 C626 0.930 . S
H621 C630 0.930 . S
H622 C635 0.929 . S
H623 C633 0.929 . S
H624 C628 0.929 . S
H625 C634 0.929 . S
C626 H620 0.930 . S
C626 C627 1.367 . S
C626 C634 1.378 . S
C627 C626 1.367 . S
C627 C635 1.433 . S
C628 H624 0.929 . S
C628 C630 1.378 . S
C628 C632 1.350 . S
C629 C632 1.463 . S
C629 C634 1.350 . S
C629 N637 1.427 . S
C630 H621 0.930 . S
C630 C628 1.378 . S
C630 C631 1.367 . S
C631 C630 1.367 . S
C631 C633 1.433 . S
C632 C628 1.350 . S
C632 C629 1.463 . S
C632 N636 1.427 . S
C633 H623 0.929 . S
C633 C631 1.433 . S
C633 N636 1.384 . S
C634 H625 0.929 . S
C634 C626 1.378 . S
C634 C629 1.350 . S
C635 H622 0.929 . S
C635 C627 1.433 . S
C635 N637 1.384 . S
N636 C632 1.427 . S
N636 C633 1.384 . S
N637 C629 1.427 . S
N637 C635 1.384 . S
H638 C644 0.930 . S
H639 C648 0.930 . S
H640 C653 0.929 . S
H641 C651 0.929 . S
H642 C646 0.929 . S
H643 C652 0.929 . S
C644 H638 0.930 . S
C644 C645 1.367 . S
C644 C652 1.378 . S
C645 C644 1.367 . S
C645 C653 1.433 . S
C646 H642 0.929 . S
C646 C648 1.378 . S
C646 C650 1.350 . S
C647 C650 1.463 . S
C647 C652 1.350 . S
C647 N655 1.427 . S
C648 H639 0.930 . S
C648 C646 1.378 . S
C648 C649 1.367 . S
C649 C648 1.367 . S
C649 C651 1.433 . S
C650 C646 1.350 . S
C650 C647 1.463 . S
C650 N654 1.427 . S
C651 H641 0.929 . S
C651 C649 1.433 . S
C651 N654 1.384 . S
C652 H643 0.929 . S
C652 C644 1.378 . S
C652 C647 1.350 . S
C653 H640 0.929 . S
C653 C645 1.433 . S
C653 N655 1.384 . S
N654 C650 1.427 . S
N654 C651 1.384 . S
N655 C647 1.427 . S
N655 C653 1.384 . S
H656 C662 0.930 . S
H657 C666 0.930 . S
H658 C671 0.929 . S
H659 C669 0.929 . S
H660 C664 0.929 . S
H661 C670 0.929 . S
C662 H656 0.930 . S
C662 C663 1.367 . S
C662 C670 1.378 . S
C663 C662 1.367 . S
C663 C671 1.433 . S
C664 H660 0.929 . S
C664 C666 1.378 . S
C664 C668 1.350 . S
C665 C668 1.463 . S
C665 C670 1.350 . S
C665 N673 1.427 . S
C666 H657 0.930 . S
C666 C664 1.378 . S
C666 C667 1.367 . S
C667 C666 1.367 . S
C667 C669 1.433 . S
C668 C664 1.350 . S
C668 C665 1.463 . S
C668 N672 1.427 . S
C669 H659 0.929 . S
C669 C667 1.433 . S
C669 N672 1.384 . S
C670 H661 0.929 . S
C670 C662 1.378 . S
C670 C665 1.350 . S
C671 H658 0.929 . S
C671 C663 1.433 . S
C671 N673 1.384 . S
N672 C668 1.427 . S
N672 C669 1.384 . S
N673 C665 1.427 . S
N673 C671 1.384 . S
H674 C680 0.930 . S
H675 C684 0.930 . S
H676 C689 0.929 . S
H677 C687 0.929 . S
H678 C682 0.929 . S
H679 C688 0.929 . S
C680 H674 0.930 . S
C680 C681 1.367 . S
C680 C688 1.378 . S
C681 C680 1.367 . S
C681 C689 1.433 . S
C682 H678 0.929 . S
C682 C684 1.378 . S
C682 C686 1.350 . S
C683 C686 1.463 . S
C683 C688 1.350 . S
C683 N691 1.427 . S
C684 H675 0.930 . S
C684 C682 1.378 . S
C684 C685 1.367 . S
C685 C684 1.367 . S
C685 C687 1.433 . S
C686 C682 1.350 . S
C686 C683 1.463 . S
C686 N690 1.427 . S
C687 H677 0.929 . S
C687 C685 1.433 . S
C687 N690 1.384 . S
C688 H679 0.929 . S
C688 C680 1.378 . S
C688 C683 1.350 . S
C689 H676 0.929 . S
C689 C681 1.433 . S
C689 N691 1.384 . S
N690 C686 1.427 . S
N690 C687 1.384 . S
N691 C683 1.427 . S
N691 C689 1.384 . S
H692 C698 0.930 . S
H693 C702 0.930 . S
H694 C707 0.929 . S
H695 C705 0.929 . S
H696 C700 0.929 . S
H697 C706 0.929 . S
C698 H692 0.930 . S
C698 C699 1.367 . S
C698 C706 1.378 . S
C699 C698 1.367 . S
C699 C707 1.433 . S
C700 H696 0.929 . S
C700 C702 1.378 . S
C700 C704 1.350 . S
C701 C704 1.463 . S
C701 C706 1.350 . S
C701 N709 1.427 . S
C702 H693 0.930 . S
C702 C700 1.378 . S
C702 C703 1.367 . S
C703 C702 1.367 . S
C703 C705 1.433 . S
C704 C700 1.350 . S
C704 C701 1.463 . S
C704 N708 1.427 . S
C705 H695 0.929 . S
C705 C703 1.433 . S
C705 N708 1.384 . S
C706 H697 0.929 . S
C706 C698 1.378 . S
C706 C701 1.350 . S
C707 H694 0.929 . S
C707 C699 1.433 . S
C707 N709 1.384 . S
N708 C704 1.427 . S
N708 C705 1.384 . S
N709 C701 1.427 . S
N709 C707 1.384 . S
H710 C716 0.930 . S
H711 C720 0.930 . S
H712 C725 0.929 . S
H713 C723 0.929 . S
H714 C718 0.929 . S
H715 C724 0.929 . S
C716 H710 0.930 . S
C716 C717 1.367 . S
C716 C724 1.378 . S
C717 C716 1.367 . S
C717 C725 1.433 . S
C718 H714 0.929 . S
C718 C720 1.378 . S
C718 C722 1.350 . S
C719 C722 1.463 . S
C719 C724 1.350 . S
C719 N727 1.427 . S
C720 H711 0.930 . S
C720 C718 1.378 . S
C720 C721 1.367 . S
C721 C720 1.367 . S
C721 C723 1.433 . S
C722 C718 1.350 . S
C722 C719 1.463 . S
C722 N726 1.427 . S
C723 H713 0.929 . S
C723 C721 1.433 . S
C723 N726 1.384 . S
C724 H715 0.929 . S
C724 C716 1.378 . S
C724 C719 1.350 . S
C725 H712 0.929 . S
C725 C717 1.433 . S
C725 N727 1.384 . S
N726 C722 1.427 . S
N726 C723 1.384 . S
N727 C719 1.427 . S
N727 C725 1.384 . S
H728 C734 0.930 . S
H729 C738 0.930 . S
H730 C743 0.929 . S
H731 C741 0.929 . S
H732 C736 0.929 . S
H733 C742 0.929 . S
C734 H728 0.930 . S
C734 C735 1.367 . S
C734 C742 1.378 . S
C735 C734 1.367 . S
C735 C743 1.433 . S
C736 H732 0.929 . S
C736 C738 1.378 . S
C736 C740 1.350 . S
C737 C740 1.463 . S
C737 C742 1.350 . S
C737 N745 1.427 . S
C738 H729 0.930 . S
C738 C736 1.378 . S
C738 C739 1.367 . S
C739 C738 1.367 . S
C739 C741 1.433 . S
C740 C736 1.350 . S
C740 C737 1.463 . S
C740 N744 1.427 . S
C741 H731 0.929 . S
C741 C739 1.433 . S
C741 N744 1.384 . S
C742 H733 0.929 . S
C742 C734 1.378 . S
C742 C737 1.350 . S
C743 H730 0.929 . S
C743 C735 1.433 . S
C743 N745 1.384 . S
N744 C740 1.427 . S
N744 C741 1.384 . S
N745 C737 1.427 . S
N745 C743 1.384 . S
H746 C752 0.930 . S
H747 C756 0.930 . S
H748 C761 0.929 . S
H749 C759 0.929 . S
H750 C754 0.929 . S
H751 C760 0.929 . S
C752 H746 0.930 . S
C752 C753 1.367 . S
C752 C760 1.378 . S
C753 C752 1.367 . S
C753 C761 1.433 . S
C754 H750 0.929 . S
C754 C756 1.378 . S
C754 C758 1.350 . S
C755 C758 1.463 . S
C755 C760 1.350 . S
C755 N763 1.427 . S
C756 H747 0.930 . S
C756 C754 1.378 . S
C756 C757 1.367 . S
C757 C756 1.367 . S
C757 C759 1.433 . S
C758 C754 1.350 . S
C758 C755 1.463 . S
C758 N762 1.427 . S
C759 H749 0.929 . S
C759 C757 1.433 . S
C759 N762 1.384 . S
C760 H751 0.929 . S
C760 C752 1.378 . S
C760 C755 1.350 . S
C761 H748 0.929 . S
C761 C753 1.433 . S
C761 N763 1.384 . S
N762 C758 1.427 . S
N762 C759 1.384 . S
N763 C755 1.427 . S
N763 C761 1.384 . S
H764 C770 0.930 . S
H765 C774 0.930 . S
H766 C779 0.929 . S
H767 C777 0.929 . S
H768 C772 0.929 . S
H769 C778 0.929 . S
C770 H764 0.930 . S
C770 C771 1.367 . S
C770 C778 1.378 . S
C771 C770 1.367 . S
C771 C779 1.433 . S
C772 H768 0.929 . S
C772 C774 1.378 . S
C772 C776 1.350 . S
C773 C776 1.463 . S
C773 C778 1.350 . S
C773 N781 1.427 . S
C774 H765 0.930 . S
C774 C772 1.378 . S
C774 C775 1.367 . S
C775 C774 1.367 . S
C775 C777 1.433 . S
C776 C772 1.350 . S
C776 C773 1.463 . S
C776 N780 1.427 . S
C777 H767 0.929 . S
C777 C775 1.433 . S
C777 N780 1.384 . S
C778 H769 0.929 . S
C778 C770 1.378 . S
C778 C773 1.350 . S
C779 H766 0.929 . S
C779 C771 1.433 . S
C779 N781 1.384 . S
N780 C776 1.427 . S
N780 C777 1.384 . S
N781 C773 1.427 . S
N781 C779 1.384 . S
H782 C788 0.930 . S
H783 C792 0.930 . S
H784 C797 0.929 . S
H785 C795 0.929 . S
H786 C790 0.929 . S
H787 C796 0.929 . S
C788 H782 0.930 . S
C788 C789 1.367 . S
C788 C796 1.378 . S
C789 C788 1.367 . S
C789 C797 1.433 . S
C790 H786 0.929 . S
C790 C792 1.378 . S
C790 C794 1.350 . S
C791 C794 1.463 . S
C791 C796 1.350 . S
C791 N799 1.427 . S
C792 H783 0.930 . S
C792 C790 1.378 . S
C792 C793 1.367 . S
C793 C792 1.367 . S
C793 C795 1.433 . S
C794 C790 1.350 . S
C794 C791 1.463 . S
C794 N798 1.427 . S
C795 H785 0.929 . S
C795 C793 1.433 . S
C795 N798 1.384 . S
C796 H787 0.929 . S
C796 C788 1.378 . S
C796 C791 1.350 . S
C797 H784 0.929 . S
C797 C789 1.433 . S
C797 N799 1.384 . S
N798 C794 1.427 . S
N798 C795 1.384 . S
N799 C791 1.427 . S
N799 C797 1.384 . S
C231 C62 1.557 . S
C235 C6 1.561 . S
C249 C76 1.554 . S
C253 C20 1.563 . S
C267 C90 1.557 . S
C271 C34 1.562 . S
C285 C104 1.557 . S
C289 C48 1.561 . S
C303 C174 1.556 . S
C307 C118 1.562 . S
C321 C188 1.563 . S
C325 C132 1.554 . S
C339 C146 1.556 . S
C343 C202 1.563 . S
C357 C216 1.563 . S
C361 C160 1.554 . S
C375 C9 1.521 . S
C379 C79 1.515 . S
C393 C93 1.525 . S
C397 C23 1.516 . S
C411 C37 1.521 . S
C415 C107 1.515 . S
C429 C65 1.521 . S
C433 C51 1.526 . S
C447 C191 1.523 . S
C451 C121 1.525 . S
C465 C205 1.526 . S
C469 C135 1.522 . S
C483 C149 1.519 . S
C487 C219 1.526 . S
C501 C163 1.515 . S
C505 C177 1.519 . S
C519 C218 1.950 . S
C523 C8 1.950 . S
C537 C176 1.956 . S
C541 C22 1.956 . S
C555 C190 1.953 . S
C559 C36 1.953 . S
C573 C204 1.951 . S
C577 C50 1.952 . S
C591 C134 1.951 . S
C595 C64 1.951 . S
C609 C148 1.952 . S
C613 C78 1.952 . S
C627 C92 1.952 . S
C631 C162 1.951 . S
C645 C106 1.955 . S
C649 C120 1.955 . S
C663 C189 1.012 . S
C667 C35 1.007 . S
C681 C203 1.014 . S
C685 C49 1.015 . S
C699 C217 1.008 . S
C703 C7 1.004 . S
C717 C21 1.011 . S
C721 C175 1.006 . S
C735 C161 1.011 . S
C739 C91 1.007 . S
C753 C105 1.008 . S
C757 C119 1.012 . S
C771 C133 1.010 . S
C775 C63 1.005 . S
C789 C147 1.014 . S
C793 C77 1.015 . S
