# Generated by pormake.
# Topology dft, (4)-cn, num edge types: 1
# Building blocks:
#     Node 0, Type 0, BuildingBlock: TATPOV_clean_sbu_0, # of connection points: 4
#     Node 1, Type 0, BuildingBlock: TATPOV_clean_sbu_0, # of connection points: 4
#     Node 2, Type 0, BuildingBlock: TATPOV_clean_sbu_0, # of connection points: 4
#     Node 3, Type 0, BuildingBlock: TATPOV_clean_sbu_0, # of connection points: 4
#     Node 4, Type 0, BuildingBlock: TATPOV_clean_sbu_0, # of connection points: 4
#     Node 5, Type 0, BuildingBlock: TATPOV_clean_sbu_0, # of connection points: 4
#     Node 6, Type 0, BuildingBlock: TATPOV_clean_sbu_0, # of connection points: 4
#     Node 7, Type 0, BuildingBlock: TATPOV_clean_sbu_0, # of connection points: 4
#     Edge 8, Type (0, 0), BuildingBlock: ZUJKAS_clean_linker_0, # of connection points: 2
#     Edge 9, Type (0, 0), BuildingBlock: ZUJKAS_clean_linker_0, # of connection points: 2
#     Edge 10, Type (0, 0), BuildingBlock: ZUJKAS_clean_linker_0, # of connection points: 2
#     Edge 11, Type (0, 0), BuildingBlock: ZUJKAS_clean_linker_0, # of connection points: 2
#     Edge 12, Type (0, 0), BuildingBlock: ZUJKAS_clean_linker_0, # of connection points: 2
#     Edge 13, Type (0, 0), BuildingBlock: ZUJKAS_clean_linker_0, # of connection points: 2
#     Edge 14, Type (0, 0), BuildingBlock: ZUJKAS_clean_linker_0, # of connection points: 2
#     Edge 15, Type (0, 0), BuildingBlock: ZUJKAS_clean_linker_0, # of connection points: 2
#     Edge 16, Type (0, 0), BuildingBlock: ZUJKAS_clean_linker_0, # of connection points: 2
#     Edge 17, Type (0, 0), BuildingBlock: ZUJKAS_clean_linker_0, # of connection points: 2
#     Edge 18, Type (0, 0), BuildingBlock: ZUJKAS_clean_linker_0, # of connection points: 2
#     Edge 19, Type (0, 0), BuildingBlock: ZUJKAS_clean_linker_0, # of connection points: 2
#     Edge 20, Type (0, 0), BuildingBlock: ZUJKAS_clean_linker_0, # of connection points: 2
#     Edge 21, Type (0, 0), BuildingBlock: ZUJKAS_clean_linker_0, # of connection points: 2
#     Edge 22, Type (0, 0), BuildingBlock: ZUJKAS_clean_linker_0, # of connection points: 2
#     Edge 23, Type (0, 0), BuildingBlock: ZUJKAS_clean_linker_0, # of connection points: 2
# Relax obj value: 0.141
# Max RMSD: 0.143
# Mean RMSD: 0.143
data_MOF--net-dft--node1-TATPOV_clean_sbu_0--edge1-ZUJKAS_clean_linker_0
_symmetry_space_group_name_H-M    P1
_symmetry_Int_Tables_number       1
_symmetry_cell_setting            triclinic
loop_
_symmetry_equiv_pos_as_xyz
'x, y, z'
_cell_length_a     43.753697
_cell_length_b     43.727161
_cell_length_c     53.053365
_cell_angle_alpha  89.948954
_cell_angle_beta   89.998801
_cell_angle_gamma 90.051546
loop_
_atom_site_label
_atom_site_type_symbol
_atom_site_fract_x
_atom_site_fract_y
_atom_site_fract_z
_atom_type_partial_charge
Zn0 Zn 0.24607 0.01711 0.14752 0.0
Zn1 Zn 0.29806 0.01485 0.17372 0.0
O2 O 0.27709 0.97411 0.18334 0.0
O3 O 0.23505 0.97528 0.16058 0.0
O4 O 0.33862 0.01417 0.1917 0.0
O5 O 0.26941 0.022 0.11522 0.0
O6 O 0.31218 0.01729 0.13667 0.0
C7 C 0.25217 0.96168 0.17623 0.0
C8 C 0.25094 0.06587 0.18321 0.0
O9 O 0.27681 0.05361 0.18774 0.0
O10 O 0.23331 0.05424 0.1669 0.0
C11 C 0.34581 0.99741 0.21037 0.0
O12 O 0.32534 0.97885 0.22012 0.0
C13 C 0.29829 0.02065 0.11576 0.0
Zn14 Zn 0.00139 0.24741 0.65527 0.0
Zn15 Zn 0.00388 0.29928 0.68172 0.0
O16 O 0.04269 0.27684 0.6939 0.0
O17 O 0.03855 0.23277 0.67413 0.0
O18 O 0.00352 0.33991 0.69967 0.0
O19 O 0.007 0.27054 0.62298 0.0
O20 O 0.00524 0.31342 0.64459 0.0
C21 C 0.05271 0.25004 0.68933 0.0
C22 C 0.94867 0.25573 0.68619 0.0
O23 O 0.96373 0.27906 0.69355 0.0
O24 O 0.95919 0.23886 0.66887 0.0
C25 C 0.02452 0.35079 0.71359 0.0
O26 O 0.04902 0.33437 0.71818 0.0
C27 C 0.00728 0.29946 0.6236 0.0
Zn28 Zn 0.7632 -0.00039 0.14698 0.0
Zn29 Zn 0.71371 0.00217 0.17619 0.0
O30 O 0.73776 0.04053 0.18706 0.0
O31 O 0.78063 0.03572 0.16568 0.0
O32 O 0.6746 0.00466 0.19622 0.0
O33 O 0.73773 0.00701 0.1162 0.0
O34 O 0.69662 0.00404 0.13995 0.0
C35 C 0.76447 0.05011 0.18152 0.0
C36 C 0.75592 0.94594 0.17724 0.0
O37 O 0.73395 0.96133 0.18661 0.0
O38 O 0.77122 0.95661 0.15898 0.0
C39 C 0.66504 0.98556 0.21251 0.0
O40 O 0.68214 0.96199 0.21854 0.0
C41 C 0.70893 0.00702 0.11834 0.0
Zn42 Zn 0.9906 0.76811 0.64005 0.0
Zn43 Zn 0.99263 0.71702 0.66794 0.0
O44 O 0.95388 0.73889 0.68117 0.0
O45 O 0.95305 0.78126 0.65873 0.0
O46 O 0.99342 0.67726 0.68718 0.0
O47 O 0.98625 0.74305 0.60856 0.0
O48 O 0.99012 0.70123 0.63143 0.0
C49 C 0.94145 0.7644 0.67563 0.0
C50 C 0.04562 0.76329 0.66935 0.0
O51 O 0.03324 0.73849 0.67685 0.0
O52 O 0.03213 0.77997 0.65332 0.0
C53 C 0.01113 0.67055 0.70537 0.0
O54 O 0.03052 0.69111 0.71375 0.0
C55 C 0.98717 0.71418 0.61006 0.0
Zn56 Zn 0.23755 0.99657 0.84216 0.0
Zn57 Zn 0.28861 0.99871 0.81436 0.0
O58 O 0.26786 0.03993 0.80626 0.0
O59 O 0.22678 0.03895 0.83021 0.0
O60 O 0.32844 0.00101 0.79523 0.0
O61 O 0.26242 0.99035 0.87356 0.0
O62 O 0.30428 0.99468 0.85085 0.0
C63 C 0.24352 0.05262 0.8143 0.0
C64 C 0.23999 0.94882 0.80531 0.0
O65 O 0.26588 0.96078 0.80026 0.0
O66 O 0.2233 0.96023 0.82237 0.0
C67 C 0.33935 0.98007 0.78127 0.0
O68 O 0.32348 0.95497 0.77755 0.0
C69 C 0.29128 0.99103 0.87212 0.0
Zn70 Zn 0.00481 0.24372 0.3484 0.0
Zn71 Zn 0.00587 0.29509 0.32109 0.0
O72 O 0.96773 0.27254 0.30716 0.0
O73 O 0.96803 0.22977 0.32908 0.0
O74 O 0.00779 0.33521 0.30241 0.0
O75 O 0.99893 0.26794 0.38011 0.0
O76 O 0.00188 0.31024 0.35774 0.0
C77 C 0.95605 0.24653 0.31232 0.0
C78 C 0.06005 0.2502 0.31987 0.0
O79 O 0.04705 0.27465 0.31235 0.0
O80 O 0.04685 0.23306 0.33577 0.0
C81 C 0.99197 0.34322 0.28342 0.0
O82 O 0.97234 0.32388 0.27358 0.0
C83 C 0.99881 0.29684 0.37891 0.0
Zn84 Zn 0.75748 0.00804 0.84746 0.0
Zn85 Zn 0.70698 0.00739 0.81943 0.0
O86 O 0.72918 0.9683 0.80774 0.0
O87 O 0.77293 0.97159 0.82807 0.0
O88 O 0.66717 0.00815 0.8003 0.0
O89 O 0.73287 0.0011 0.87879 0.0
O90 O 0.69107 0.00561 0.85605 0.0
C91 C 0.75575 0.95787 0.81254 0.0
C92 C 0.7512 0.06203 0.81755 0.0
O93 O 0.72843 0.0474 0.80862 0.0
O94 O 0.76662 0.05088 0.83553 0.0
C95 C 0.65932 0.99038 0.78248 0.0
O96 O 0.6787 0.96976 0.77426 0.0
C97 C 0.70403 0.00199 0.87734 0.0
Zn98 Zn 0.01017 0.76476 0.33629 0.0
Zn99 Zn 0.01325 0.71321 0.30937 0.0
O100 O 0.0518 0.73655 0.29764 0.0
O101 O 0.04738 0.78019 0.31799 0.0
O102 O 0.01575 0.67271 0.29131 0.0
O103 O 0.01538 0.74123 0.36846 0.0
O104 O 0.01403 0.69869 0.34637 0.0
C105 C 0.06168 0.76333 0.30259 0.0
C106 C 0.95751 0.7559 0.30504 0.0
O107 O 0.97264 0.73266 0.29764 0.0
O108 O 0.96811 0.77289 0.32227 0.0
C109 C 0.99846 0.66353 0.27358 0.0
O110 O 0.97734 0.6819 0.26464 0.0
C111 C 0.01566 0.71232 0.36753 0.0
H112 H 0.35605 0.99921 0.10582 0.0
H113 H 0.38068 0.99542 0.06425 0.0
H114 H 0.30319 0.04055 0.03044 0.0
H115 H 0.27873 0.04434 0.07141 0.0
H116 H 0.35523 0.96285 0.02506 0.0
H117 H 0.37383 0.08129 0.99385 0.0
H118 H 0.36974 0.07123 0.02676 0.0
H119 H 0.33649 0.07808 0.00747 0.0
C120 C 0.3447 0.00895 0.08955 0.0
C121 C 0.31538 0.02188 0.09178 0.0
C122 C 0.35879 0.00681 0.06588 0.0
C123 C 0.34402 0.01821 0.04434 0.0
C124 C 0.31541 0.03233 0.04686 0.0
H125 H 0.27281 0.96792 0.91705 0.0
H126 H 0.29946 0.97022 0.95714 0.0
C127 C 0.30125 0.03414 0.07029 0.0
C128 C 0.35542 0.01157 0.01866 0.0
H129 H 0.35595 0.04528 0.96079 0.0
C130 C 0.35665 0.98087 0.01104 0.0
C131 C 0.3582 0.03494 0.00038 0.0
C132 C 0.35985 0.06822 0.00764 0.0
C133 C 0.35602 0.9731 0.98541 0.0
C134 C 0.35364 0.99662 0.96721 0.0
C135 C 0.35705 0.02718 0.97476 0.0
C136 C 0.34064 0.99067 0.94193 0.0
C137 C 0.35541 0.93979 0.97814 0.0
C138 C 0.35486 0.00151 0.91994 0.0
C139 C 0.33949 0.00026 0.89678 0.0
C140 C 0.30947 0.98879 0.8955 0.0
C141 C 0.29585 0.97702 0.91742 0.0
C142 C 0.31125 0.97796 0.94035 0.0
H143 H 0.3694 0.92598 0.9914 0.0
H144 H 0.33157 0.9312 0.97924 0.0
H145 H 0.36402 0.93626 0.95866 0.0
H146 H 0.37736 0.01181 0.92085 0.0
H147 H 0.3505 0.00959 0.88018 0.0
H148 H 0.03113 0.2789 0.57972 0.0
H149 H 0.03131 0.30433 0.53899 0.0
H150 H 0.98908 0.38389 0.57202 0.0
H151 H 0.98906 0.35837 0.61342 0.0
H152 H 0.9579 0.35964 0.52987 0.0
H153 H 0.07971 0.37479 0.50713 0.0
H154 H 0.07345 0.33766 0.52054 0.0
H155 H 0.06601 0.3713 0.53919 0.0
C156 C 0.02231 0.302 0.57849 0.0
C157 C 0.0099 0.31658 0.59971 0.0
C158 C 0.02277 0.31668 0.55523 0.0
C159 C 0.01075 0.34622 0.55258 0.0
C160 C 0.99891 0.36127 0.57381 0.0
H161 H 0.01695 0.35594 0.3883 0.0
H162 H 0.01615 0.38243 0.42922 0.0
C163 C 0.99885 0.34666 0.59735 0.0
C164 C 0.00703 0.35869 0.52685 0.0
H165 H 0.0465 0.35934 0.47155 0.0
C166 C 0.97728 0.36091 0.51716 0.0
C167 C 0.03223 0.36117 0.51031 0.0
C168 C 0.06465 0.36145 0.51993 0.0
C169 C 0.97215 0.36089 0.49107 0.0
C170 C 0.99737 0.35823 0.47456 0.0
C171 C 0.0271 0.36075 0.48423 0.0
C172 C 0.99372 0.34536 0.44897 0.0
C173 C 0.93974 0.36097 0.48146 0.0
C174 C 0.98144 0.31586 0.44661 0.0
C175 C 0.98232 0.30065 0.42362 0.0
C176 C 0.99544 0.31462 0.40238 0.0
C177 C 0.00663 0.3447 0.40438 0.0
C178 C 0.00613 0.35985 0.42766 0.0
H179 H 0.92474 0.37468 0.494 0.0
H180 H 0.93838 0.37029 0.46201 0.0
H181 H 0.93084 0.33719 0.48134 0.0
H182 H 0.97249 0.30391 0.46293 0.0
H183 H 0.97338 0.27756 0.42264 0.0
H184 H 0.72189 0.97534 0.92093 0.0
H185 H 0.69504 0.97449 0.96095 0.0
H186 H 0.61835 0.02101 0.92716 0.0
H187 H 0.6454 0.0218 0.88646 0.0
H188 H 0.6411 0.04992 0.96983 0.0
H189 H 0.62322 0.92838 0.99155 0.0
H190 H 0.66088 0.93341 0.97894 0.0
H191 H 0.62808 0.94215 0.95962 0.0
C192 C 0.6991 0.98494 0.92181 0.0
C193 C 0.68584 0.99885 0.90063 0.0
C194 C 0.68356 0.98406 0.94466 0.0
C195 C 0.65441 0.99712 0.94693 0.0
C196 C 0.64062 0.01036 0.92566 0.0
H197 H 0.64931 0.98916 0.11084 0.0
H198 H 0.62075 0.99058 0.07085 0.0
C199 C 0.6561 0.01087 0.90252 0.0
C200 C 0.64143 0.00071 0.9725 0.0
H201 H 0.64075 0.96062 0.02753 0.0
C202 C 0.63962 0.03039 0.9824 0.0
C203 C 0.63852 0.97537 0.98889 0.0
C204 C 0.63742 0.94305 0.97908 0.0
C205 C 0.64003 0.03523 0.00852 0.0
C206 C 0.64275 0.00979 0.02482 0.0
C207 C 0.63942 0.9802 0.015 0.0
C208 C 0.65693 0.01295 0.04999 0.0
C209 C 0.64057 0.06756 0.01834 0.0
C210 C 0.68663 0.02491 0.0514 0.0
C211 C 0.703 0.02367 0.07384 0.0
C212 C 0.69003 0.01049 0.09547 0.0
C213 C 0.6598 -0.00047 0.09443 0.0
C214 C 0.64347 0.0004 0.0717 0.0
H215 H 0.62645 0.08276 0.00625 0.0
H216 H 0.63204 0.06878 0.03803 0.0
H217 H 0.66437 0.07633 0.01785 0.0
H218 H 0.69782 0.03393 0.03476 0.0
H219 H 0.72617 0.03245 0.07406 0.0
H220 H 0.03711 0.73229 0.41248 0.0
H221 H 0.03467 0.70638 0.45294 0.0
H222 H 0.99494 0.62703 0.41743 0.0
H223 H 0.99747 0.65308 0.37634 0.0
H224 H 0.9607 0.64963 0.45743 0.0
H225 H 0.08017 0.6369 0.4877 0.0
H226 H 0.07476 0.67423 0.47449 0.0
H227 H 0.06957 0.64093 0.45491 0.0
C228 C 0.02835 0.70911 0.41312 0.0
C229 C 0.01728 0.69479 0.39129 0.0
C230 C 0.02733 0.69415 0.43625 0.0
C231 C 0.01517 0.66454 0.43813 0.0
C232 C 0.00485 0.6497 0.41627 0.0
H233 H 0.00778 0.65565 0.6021 0.0
H234 H 0.01088 0.6288 0.56145 0.0
C235 C 0.00625 0.66461 0.39289 0.0
C236 C 0.00937 0.6519 0.46355 0.0
H237 H 0.04355 0.65207 0.5212 0.0
C238 C 0.97887 0.64885 0.47133 0.0
C239 C 0.033 0.64995 0.48165 0.0
C240 C 0.06622 0.65033 0.47415 0.0
C241 C 0.97131 0.64864 0.49701 0.0
C242 C 0.99482 0.65198 0.51508 0.0
C243 C 0.02543 0.65021 0.50732 0.0
C244 C 0.98848 0.66474 0.54035 0.0
C245 C 0.9381 0.64753 0.50451 0.0
C246 C 0.97483 0.6937 0.5419 0.0
C247 C 0.97346 0.70913 0.56479 0.0
C248 C 0.98567 0.69593 0.5867 0.0
C249 C 0.99811 0.6663 0.58548 0.0
C250 C -0.00016 0.65094 0.56234 0.0
H251 H 0.92483 0.63311 0.49119 0.0
H252 H 0.93517 0.63843 0.52391 0.0
H253 H 0.92842 0.67097 0.50374 0.0
H254 H 0.96666 0.70517 0.5251 0.0
H255 H 0.96361 0.73185 0.56515 0.0
H256 H 0.39237 0.035 0.19585 0.0
H257 H 0.44616 0.03155 0.20755 0.0
H258 H 0.42585 0.95614 0.25722 0.0
H259 H 0.37172 0.95921 0.24546 0.0
H260 H 0.4766 0.03348 0.25611 0.0
H261 H 0.48951 0.92198 0.20632 0.0
H262 H 0.45689 0.94647 0.20132 0.0
H263 H 0.46012 0.92476 0.22991 0.0
C264 C 0.3992 0.01781 0.20943 0.0
C265 C 0.37779 0.99715 0.2195 0.0
C266 C 0.42996 0.01597 0.21617 0.0
C267 C 0.43998 0.99339 0.233 0.0
C268 C 0.41856 0.9735 0.24395 0.0
H269 H 0.63441 0.94585 0.24364 0.0
H270 H 0.58024 0.9475 0.25526 0.0
C271 C 0.38767 0.97536 0.23726 0.0
C272 C 0.47314 0.98981 0.23761 0.0
H273 H 0.534 0.94519 0.22152 0.0
C274 C 0.48917 0.01397 0.24893 0.0
C275 C 0.48939 0.96423 0.22836 0.0
C276 C 0.47328 0.93788 0.21565 0.0
C277 C 0.52121 0.01377 0.25036 0.0
C278 C 0.53756 0.98908 0.23968 0.0
C279 C 0.52142 0.96413 0.22967 0.0
C280 C 0.57113 0.99013 0.23594 0.0
C281 C 0.53721 0.04029 0.26286 0.0
C282 C 0.58404 0.01366 0.22142 0.0
C283 C 0.61487 0.01281 0.21478 0.0
C284 C 0.63344 0.98819 0.22228 0.0
C285 C 0.62075 0.96513 0.23755 0.0
C286 C 0.58981 0.96603 0.24422 0.0
H287 H 0.52254 0.05083 0.27756 0.0
H288 H 0.5591 0.03308 0.27163 0.0
H289 H 0.54218 0.0581 0.24852 0.0
H290 H 0.56995 0.03207 0.21425 0.0
H291 H 0.62385 0.03093 0.20297 0.0
H292 H 0.06664 0.38322 0.74105 0.0
H293 H 0.06534 0.43783 0.75125 0.0
H294 H 0.97735 0.44563 0.71517 0.0
H295 H 0.97814 0.39128 0.70538 0.0
H296 H 0.06418 0.48293 0.71661 0.0
H297 H 0.96323 0.49495 0.7782 0.0
H298 H 0.98084 0.45838 0.77198 0.0
H299 H 0.95387 0.47445 0.75 0.0
C300 C 0.04674 0.39645 0.73574 0.0
C301 C 0.02254 0.38289 0.72232 0.0
C302 C 0.04604 0.42764 0.7416 0.0
C303 C 0.02105 0.44574 0.73432 0.0
C304 C 0.9965 0.43202 0.72159 0.0
H305 H 0.97224 0.62386 0.69369 0.0
H306 H 0.97646 0.57027 0.70604 0.0
C307 C 0.99714 0.40092 0.71578 0.0
C308 C 0.02193 0.47945 0.73725 0.0
H309 H 0.97842 0.54049 0.7551 0.0
C310 C 0.04583 0.49555 0.72558 0.0
C311 C 0.998 0.49588 0.74898 0.0
C312 C 0.97273 0.47997 0.76322 0.0
C313 C 0.04535 0.52756 0.72377 0.0
C314 C 0.02046 0.54384 0.73418 0.0
C315 C 0.9974 0.52789 0.74704 0.0
C316 C 0.0164 0.57693 0.72942 0.0
C317 C 0.07046 0.54358 0.70937 0.0
C318 C 0.03702 0.59855 0.73907 0.0
C319 C 0.03471 0.62932 0.73201 0.0
C320 C 0.01175 0.63886 0.71518 0.0
C321 C 0.99034 0.61728 0.70652 0.0
C322 C 0.99262 0.58664 0.71363 0.0
H323 H 0.08563 0.52724 0.69936 0.0
H324 H 0.06061 0.55968 0.69536 0.0
H325 H 0.08465 0.55706 0.72268 0.0
H326 H 0.05531 0.5915 0.75153 0.0
H327 H 0.05146 0.64539 0.73912 0.0
H328 H 0.61441 0.03101 0.79476 0.0
H329 H 0.56034 0.02828 0.78374 0.0
H330 H 0.57756 0.94852 0.7382 0.0
H331 H 0.63189 0.95084 0.74932 0.0
H332 H 0.52809 0.02679 0.73608 0.0
H333 H 0.5153 0.91981 0.79234 0.0
H334 H 0.54851 0.94409 0.79498 0.0
H335 H 0.54385 0.91984 0.76796 0.0
C336 C 0.60684 0.01305 0.78217 0.0
C337 C 0.62741 0.99089 0.77319 0.0
C338 C 0.57593 0.01161 0.77582 0.0
C339 C 0.56495 0.98797 0.76045 0.0
C340 C 0.58559 0.96671 0.75036 0.0
H341 H 0.37113 0.93868 0.75273 0.0
H342 H 0.42536 0.94047 0.74151 0.0
C343 C 0.61662 0.96814 0.75668 0.0
C344 C 0.5316 0.98455 0.75677 0.0
H345 H 0.47079 0.94142 0.7757 0.0
C346 C 0.51552 0.00792 0.74441 0.0
C347 C 0.51535 0.95985 0.7676 0.0
C348 C 0.53147 0.9345 0.78163 0.0
C349 C 0.48346 0.00769 0.74324 0.0
C350 C 0.46715 0.98379 0.75521 0.0
C351 C 0.48333 0.95971 0.76651 0.0
C352 C 0.43351 0.98467 0.75856 0.0
C353 C 0.4674 0.03322 0.72946 0.0
C354 C 0.42001 0.00907 0.77162 0.0
C355 C 0.38908 0.00816 0.77801 0.0
C356 C 0.37106 0.98262 0.77173 0.0
C357 C 0.38436 0.95866 0.75789 0.0
C358 C 0.41535 0.95965 0.75144 0.0
H359 H 0.48209 0.04289 0.71434 0.0
H360 H 0.4456 0.02528 0.72097 0.0
H361 H 0.46224 0.05191 0.74294 0.0
H362 H 0.4337 0.02826 0.7779 0.0
H363 H 0.37961 0.02698 0.78872 0.0
H364 H 0.03142 0.38779 0.29883 0.0
H365 H 0.03193 0.44147 0.28636 0.0
H366 H 0.95837 0.42472 0.23407 0.0
H367 H 0.95739 0.37074 0.24665 0.0
H368 H 0.03904 0.47071 0.23834 0.0
H369 H 0.92492 0.49165 0.2817 0.0
H370 H 0.94666 0.45747 0.28811 0.0
H371 H 0.92733 0.46182 0.25849 0.0
C372 C 0.01545 0.39537 0.28453 0.0
C373 C 0.99411 0.37502 0.27395 0.0
C374 C 0.01587 0.42607 0.27736 0.0
C375 C 0.99494 0.4371 0.25955 0.0
C376 C 0.97442 0.41669 0.24812 0.0
H377 H 0.96042 0.63359 0.24072 0.0
H378 H 0.95993 0.57881 0.23105 0.0
C379 C 0.97398 0.38586 0.25528 0.0
C380 C 0.99378 0.47034 0.25429 0.0
H381 H 0.95159 0.53422 0.26648 0.0
C382 C 0.01975 0.48461 0.24413 0.0
C383 C 0.96851 0.48834 0.26174 0.0
C384 C 0.94028 0.47422 0.27327 0.0
C385 C 0.02158 0.51657 0.24208 0.0
C386 C 0.99702 0.53465 0.25089 0.0
C387 C 0.9704 0.52029 0.25976 0.0
C388 C -0.00038 0.56827 0.25377 0.0
C389 C 0.05001 0.53066 0.23095 0.0
C390 C 0.02221 0.58052 0.26958 0.0
C391 C 0.02255 0.6117 0.27516 0.0
C392 C 0.0001 0.63128 0.2652 0.0
C393 C 0.97805 0.61915 0.24868 0.0
C394 C 0.97773 0.58786 0.24313 0.0
H395 H 0.06125 0.51479 0.2175 0.0
H396 H 0.0448 0.55242 0.22103 0.0
H397 H 0.06653 0.53555 0.2463 0.0
H398 H 0.03888 0.56576 0.27851 0.0
H399 H 0.03983 0.62024 0.28797 0.0
H400 H 0.08664 0.19427 0.32388 0.0
H401 H 0.13224 0.17595 0.30288 0.0
H402 H 0.1471 0.26544 0.27072 0.0
H403 H 0.10014 0.28373 0.29097 0.0
H404 H 0.15248 0.22601 0.23597 0.0
H405 H 0.22092 0.18123 0.31409 0.0
H406 H 0.18362 0.16485 0.31697 0.0
H407 H 0.18844 0.20578 0.31954 0.0
C408 C 0.0998 0.21031 0.31271 0.0
C409 C 0.08969 0.24048 0.30908 0.0
C410 C 0.12624 0.19985 0.30092 0.0
C411 C 0.14375 0.21946 0.28571 0.0
C412 C 0.13419 0.24993 0.28258 0.0
H413 H 0.2842 0.10337 0.21476 0.0
H414 H 0.26538 0.14805 0.23817 0.0
C415 C 0.10734 0.26034 0.29411 0.0
C416 C 0.1694 0.20663 0.2707 0.0
H417 H 0.22468 0.15182 0.27408 0.0
C418 C 0.16888 0.2105 0.24443 0.0
C419 C 0.19173 0.18719 0.28151 0.0
C420 C 0.19639 0.18491 0.30962 0.0
C421 C 0.1876 0.19288 0.22867 0.0
C422 C 0.2064 0.16999 0.23942 0.0
C423 C 0.20956 0.16865 0.26572 0.0
C424 C 0.21908 0.14466 0.22402 0.0
C425 C 0.18604 0.1982 0.2006 0.0
C426 C 0.19928 0.12766 0.20867 0.0
C427 C 0.20992 0.10252 0.19524 0.0
C428 C 0.24057 0.09324 0.19721 0.0
C429 C 0.26048 0.11001 0.2128 0.0
C430 C 0.24978 0.13555 0.22612 0.0
H431 H 0.18225 0.2228 0.19641 0.0
H432 H 0.20727 0.19066 0.19096 0.0
H433 H 0.16637 0.18536 0.19269 0.0
H434 H 0.17523 0.13336 0.20749 0.0
H435 H 0.19381 0.08996 0.18369 0.0
H436 H 0.90441 0.21729 0.66878 0.0
H437 H 0.86212 0.19515 0.69273 0.0
H438 H 0.88676 0.24995 0.75712 0.0
H439 H 0.92905 0.2726 0.73316 0.0
H440 H 0.88727 0.18165 0.76183 0.0
H441 H 0.77847 0.2279 0.72348 0.0
H442 H 0.8074 0.2176 0.7009 0.0
H443 H 0.81412 0.24883 0.7221 0.0
C444 C 0.90041 0.22521 0.68784 0.0
C445 C 0.9202 0.2465 0.69917 0.0
C446 C 0.87609 0.2127 0.70142 0.0
C447 C 0.87124 0.22113 0.72657 0.0
C448 C 0.89 0.24346 0.7376 0.0
H449 H 0.78027 0.10948 0.84037 0.0
H450 H 0.80549 0.15281 0.81992 0.0
C451 C 0.91413 0.25633 0.7239 0.0
C452 C 0.84996 0.20304 0.74226 0.0
H453 H 0.77487 0.18375 0.74959 0.0
C454 C 0.86264 0.1824 0.75952 0.0
C455 C 0.81799 0.20381 0.73872 0.0
C456 C 0.8035 0.22584 0.72042 0.0
C457 C 0.84431 0.16158 0.77274 0.0
C458 C 0.81218 0.16225 0.76931 0.0
C459 C 0.79942 0.18341 0.75236 0.0
C460 C 0.79192 0.13991 0.78216 0.0
C461 C 0.85983 0.13801 0.78918 0.0
C462 C 0.77386 0.11969 0.76794 0.0
C463 C 0.75867 0.09538 0.7797 0.0
C464 C 0.7617 0.09076 0.80578 0.0
C465 C 0.77797 0.11227 0.82016 0.0
C466 C 0.79254 0.13691 0.80849 0.0
H467 H 0.88437 0.13532 0.78427 0.0
H468 H 0.85858 0.14538 0.80915 0.0
H469 H 0.84857 0.11534 0.78746 0.0
H470 H 0.77286 0.12172 0.7476 0.0
H471 H 0.74624 0.07913 0.76819 0.0
H472 H 0.93472 0.73509 0.26001 0.0
H473 H 0.89141 0.75626 0.23639 0.0
H474 H 0.87219 0.81797 0.29767 0.0
H475 H 0.91526 0.79715 0.32135 0.0
H476 H 0.81772 0.7884 0.26981 0.0
H477 H 0.90493 0.84818 0.21096 0.0
H478 H 0.90869 0.80754 0.21538 0.0
H479 H 0.91401 0.83279 0.24163 0.0
C480 C 0.92087 0.75269 0.26868 0.0
C481 C 0.92869 0.76476 0.29239 0.0
C482 C 0.89616 0.76472 0.25518 0.0
C483 C 0.87883 0.78875 0.26529 0.0
C484 C 0.8853 0.79937 0.28961 0.0
H485 H 0.75078 0.92821 0.22646 0.0
H486 H 0.7764 0.88482 0.24648 0.0
C487 C 0.91005 0.78756 0.30302 0.0
C488 C 0.8567 0.80568 0.24955 0.0
H489 H 0.85379 0.86055 0.20402 0.0
C490 C 0.82541 0.80389 0.25514 0.0
C491 C 0.86695 0.82583 0.23053 0.0
C492 C 0.90046 0.829 0.22421 0.0
C493 C 0.80401 0.82214 0.24228 0.0
C494 C 0.81443 0.84327 0.22394 0.0
C495 C 0.8457 0.8443 0.21798 0.0
C496 C 0.79407 0.86601 0.21162 0.0
C497 C 0.77057 0.81852 0.24848 0.0
C498 C 0.79522 0.8699 0.18536 0.0
C499 C 0.78135 0.89512 0.17403 0.0
C500 C 0.76562 0.91674 0.18868 0.0
C501 C 0.76255 0.91174 0.21471 0.0
C502 C 0.77702 0.88678 0.22615 0.0
H503 H 0.76551 0.79504 0.25535 0.0
H504 H 0.76442 0.83471 0.26375 0.0
H505 H 0.75592 0.82335 0.23186 0.0
H506 H 0.80819 0.85421 0.17374 0.0
H507 H 0.78389 0.89832 0.15388 0.0
H508 H 0.07094 0.81986 0.66527 0.0
H509 H 0.11624 0.83929 0.68615 0.0
H510 H 0.13285 0.75035 0.71869 0.0
H511 H 0.08628 0.7309 0.69853 0.0
H512 H 0.13762 0.79047 0.75324 0.0
H513 H 0.20499 0.83507 0.67424 0.0
H514 H 0.16741 0.85084 0.67165 0.0
H515 H 0.17277 0.80997 0.66927 0.0
C516 C 0.08443 0.80419 0.67652 0.0
C517 C 0.07495 0.77381 0.68025 0.0
C518 C 0.11067 0.8153 0.68824 0.0
C519 C 0.12858 0.79615 0.7035 0.0
C520 C 0.11962 0.76551 0.70679 0.0
H521 H 0.27158 0.91099 0.77297 0.0
H522 H 0.25118 0.86701 0.74952 0.0
C523 C 0.09298 0.75444 0.69531 0.0
C524 C 0.15418 0.80952 0.71827 0.0
H525 H 0.20955 0.86428 0.71411 0.0
C526 C 0.15392 0.80593 0.74457 0.0
C527 C 0.17633 0.82895 0.70715 0.0
C528 C 0.18057 0.83106 0.67898 0.0
C529 C 0.1729 0.82365 0.76006 0.0
C530 C 0.19173 0.84635 0.74902 0.0
C531 C 0.19445 0.84756 0.72268 0.0
C532 C 0.20523 0.87144 0.76423 0.0
C533 C 0.17169 0.81855 0.78818 0.0
C534 C 0.18614 0.88881 0.77988 0.0
C535 C 0.19769 0.91355 0.79335 0.0
C536 C 0.22856 0.92203 0.7911 0.0
C537 C 0.24772 0.90496 0.77513 0.0
C538 C 0.23612 0.87982 0.76179 0.0
H539 H 0.16749 0.79405 0.79254 0.0
H540 H 0.19321 0.82578 0.79754 0.0
H541 H 0.15241 0.8318 0.79623 0.0
H542 H 0.16198 0.88366 0.78133 0.0
H543 H 0.18214 0.9264 0.80517 0.0
H544 H 0.72306 0.91539 0.7854 0.0
H545 H 0.74296 0.86941 0.76458 0.0
H546 H 0.83397 0.89248 0.78954 0.0
H547 H 0.81431 0.93736 0.81094 0.0
H548 H 0.78081 0.86407 0.72726 0.0
H549 H 0.83346 0.80436 0.8072 0.0
H550 H 0.80722 0.83573 0.8117 0.0
H551 H 0.84749 0.84281 0.80696 0.0
C552 C 0.74726 0.91038 0.78666 0.0
C553 C 0.76708 0.92991 0.79995 0.0
C554 C 0.75857 0.88407 0.77484 0.0
C555 C 0.78985 0.87695 0.7761 0.0
C556 C 0.80959 0.89669 0.78913 0.0
H557 H 0.91538 0.82061 0.67235 0.0
H558 H 0.87239 0.84044 0.69595 0.0
C559 C 0.79832 0.92264 0.80114 0.0
C560 C 0.80284 0.85074 0.76194 0.0
H561 H 0.8593 0.79728 0.76623 0.0
C562 C 0.79735 0.84888 0.73592 0.0
C563 C 0.82361 0.83 0.7732 0.0
C564 C 0.82793 0.82813 0.80137 0.0
C565 C 0.81449 0.82923 0.72057 0.0
C566 C 0.83843 0.81187 0.73142 0.0
C567 C 0.84156 0.8112 0.75774 0.0
C568 C 0.863 0.79816 0.71581 0.0
C569 C 0.80746 0.82818 0.69275 0.0
C570 C 0.87294 0.76795 0.71967 0.0
C571 C 0.89824 0.75658 0.70645 0.0
C572 C 0.91397 0.77531 0.68919 0.0
C573 C 0.90369 0.80539 0.68528 0.0
C574 C 0.87876 0.81673 0.69859 0.0
H575 H 0.78257 0.83115 0.6894 0.0
H576 H 0.81937 0.84734 0.68314 0.0
H577 H 0.81487 0.80629 0.68411 0.0
H578 H 0.86139 0.75333 0.73314 0.0
H579 H 0.90563 0.73332 0.70991 0.0
H580 H 0.2839 0.92271 0.20752 0.0
H581 H 0.26472 0.87576 0.2274 0.0
H582 H 0.17792 0.88829 0.19019 0.0
H583 H 0.19706 0.93401 0.16975 0.0
H584 H 0.22138 0.87036 0.25997 0.0
H585 H 0.18735 0.79933 0.17963 0.0
H586 H 0.21169 0.83237 0.17574 0.0
H587 H 0.17058 0.83626 0.17533 0.0
C588 C 0.26093 0.91505 0.20323 0.0
C589 C 0.24203 0.93211 0.18702 0.0
C590 C 0.25002 0.8882 0.21456 0.0
C591 C 0.22008 0.87799 0.20986 0.0
C592 C 0.20146 0.89488 0.19343 0.0
H593 H 0.08197 0.82205 0.30295 0.0
H594 H 0.1265 0.84317 0.28202 0.0
C595 C 0.21237 0.92138 0.18195 0.0
C596 C 0.20656 0.85212 0.22422 0.0
H597 H 0.15459 0.79451 0.21755 0.0
C598 C 0.20749 0.8532 0.25065 0.0
C599 C 0.1892 0.82892 0.2123 0.0
C600 C 0.19001 0.82399 0.18418 0.0
C601 C 0.18895 0.83397 0.2653 0.0
C602 C 0.16819 0.81396 0.25317 0.0
C603 C 0.1698 0.81047 0.22691 0.0
C604 C 0.14212 0.79994 0.26686 0.0
C605 C 0.19104 0.83619 0.29362 0.0
C606 C 0.13516 0.76868 0.26451 0.0
C607 C 0.10906 0.7565 0.27613 0.0
C608 C 0.08954 0.77545 0.29027 0.0
C609 C 0.09665 0.80668 0.29249 0.0
C610 C 0.1224 0.81879 0.28073 0.0
H611 H 0.2148 0.8415 0.29958 0.0
H612 H 0.17626 0.85515 0.30028 0.0
H613 H 0.18367 0.81466 0.30294 0.0
H614 H 0.14982 0.75377 0.25358 0.0
H615 H 0.10417 0.73235 0.27404 0.0
H616 H 0.09451 0.28176 0.71811 0.0
H617 H 0.14032 0.26112 0.7388 0.0
H618 H 0.11863 0.17135 0.71019 0.0
H619 H 0.0739 0.19168 0.68909 0.0
H620 H 0.14547 0.22009 0.77487 0.0
H621 H 0.20706 0.17503 0.69285 0.0
H622 H 0.1756 0.20143 0.68953 0.0
H623 H 0.16872 0.16079 0.69178 0.0
C624 C 0.09978 0.25769 0.71604 0.0
C625 C 0.08066 0.23841 0.70181 0.0
C626 C 0.12598 0.24597 0.7278 0.0
C627 C 0.13343 0.21484 0.72545 0.0
C628 C 0.11411 0.19565 0.71149 0.0
H629 H 0.1886 0.08033 0.82154 0.0
H630 H 0.16954 0.12652 0.80182 0.0
C631 C 0.08825 0.20731 0.69963 0.0
C632 C 0.15966 0.20124 0.73919 0.0
H633 H 0.21354 0.14567 0.73224 0.0
C634 C 0.16097 0.20445 0.76548 0.0
C635 C 0.18079 0.18171 0.72703 0.0
C636 C 0.18317 0.17989 0.6987 0.0
C637 C 0.18044 0.18607 0.78006 0.0
C638 C 0.19815 0.16322 0.76807 0.0
C639 C 0.19938 0.16253 0.74163 0.0
C640 C 0.21169 0.13724 0.78226 0.0
C641 C 0.18095 0.19069 0.80823 0.0
C642 C 0.24162 0.12714 0.77741 0.0
C643 C 0.25245 0.10001 0.78827 0.0
C644 C 0.23352 0.08258 0.8042 0.0
C645 C 0.20393 0.09326 0.80954 0.0
C646 C 0.19306 0.12002 0.79849 0.0
H647 H 0.17818 0.21528 0.81294 0.0
H648 H 0.16143 0.17825 0.81684 0.0
H649 H 0.20254 0.18229 0.81677 0.0
H650 H 0.25633 0.13984 0.76473 0.0
H651 H 0.27537 0.09241 0.78381 0.0
H652 H 0.92023 0.2765 0.27735 0.0
H653 H 0.87598 0.25565 0.25452 0.0
H654 H 0.88744 0.16953 0.29309 0.0
H655 H 0.93051 0.1901 0.31618 0.0
H656 H 0.87357 0.20969 0.22223 0.0
H657 H 0.79752 0.1804 0.30095 0.0
H658 H 0.83001 0.20544 0.30494 0.0
H659 H 0.83442 0.16448 0.30723 0.0
C660 C 0.91299 0.25326 0.28115 0.0
C661 C 0.92882 0.23504 0.29869 0.0
C662 C 0.88769 0.24142 0.26815 0.0
C663 C 0.87784 0.21128 0.2726 0.0
C664 C 0.89379 0.19318 0.29 0.0
H665 H 0.82378 0.06858 0.1821 0.0
H666 H 0.84535 0.11364 0.20205 0.0
C667 C 0.91875 0.20495 0.30303 0.0
C668 C 0.85289 0.19718 0.25766 0.0
H669 H 0.79433 0.14627 0.26407 0.0
C670 C 0.85569 0.19649 0.23132 0.0
C671 C 0.82883 0.18074 0.2693 0.0
C672 C 0.82234 0.18315 0.29715 0.0
C673 C 0.83716 0.17727 0.21666 0.0
C674 C 0.81608 0.15753 0.22878 0.0
C675 C 0.81106 0.16071 0.25477 0.0
C676 C 0.80203 0.13111 0.21556 0.0
C677 C 0.84113 0.17766 0.18841 0.0
C678 C 0.77055 0.12503 0.2174 0.0
C679 C 0.75815 0.09864 0.20645 0.0
C680 C 0.77705 0.07799 0.19343 0.0
C681 C 0.8085 0.08418 0.1917 0.0
C682 C 0.82086 0.11022 0.20287 0.0
H683 H 0.84729 0.20096 0.18174 0.0
H684 H 0.86015 0.16216 0.18315 0.0
H685 H 0.82006 0.17016 0.17852 0.0
H686 H 0.75563 0.1406 0.22741 0.0
H687 H 0.73382 0.09449 0.20808 0.0
loop_
_geom_bond_atom_site_label_1
_geom_bond_atom_site_label_2
_geom_bond_distance
_geom_bond_site_symmetry_2
_ccdc_geom_bond_type
Zn0 O3 2.031 . S
Zn0 O5 2.049 1_565 S
Zn0 O10 2.067 1_565 S
Zn1 O2 1.962 . S
Zn1 O4 1.984 1_565 S
Zn1 O6 1.996 . S
Zn1 O9 1.943 1_565 S
O2 Zn1 1.962 . S
O2 C7 1.254 . S
O3 Zn0 2.031 . S
O3 C7 1.269 . S
O4 Zn1 1.984 1_545 S
O4 C11 1.262 . S
O5 Zn0 2.049 1_545 S
O5 C13 1.260 . S
O6 Zn1 1.996 . S
O6 C13 1.257 1_565 S
C7 O2 1.254 . S
C7 O3 1.269 . S
C8 O9 1.249 . S
C8 O10 1.270 . S
O9 Zn1 1.943 1_545 S
O9 C8 1.249 . S
O10 Zn0 2.067 1_545 S
O10 C8 1.270 . S
C11 O4 1.262 . S
C11 O12 1.230 1_545 S
O12 C11 1.230 1_565 S
C13 O5 1.260 . S
C13 O6 1.257 1_545 S
Zn14 O17 2.031 . S
Zn14 O19 2.043 1_455 S
Zn14 O24 2.067 1_455 S
Zn15 O16 1.962 . S
Zn15 O18 1.986 . S
Zn15 O20 1.996 . S
Zn15 O23 1.943 1_455 S
O16 Zn15 1.962 . S
O16 C21 1.254 . S
O17 Zn14 2.031 . S
O17 C21 1.269 . S
O18 Zn15 1.986 . S
O18 C25 1.262 . S
O19 Zn14 2.043 1_655 S
O19 C27 1.257 1_655 S
O20 Zn15 1.996 . S
O20 C27 1.257 . S
C21 O16 1.254 . S
C21 O17 1.269 . S
C22 O23 1.249 . S
C22 O24 1.270 . S
O23 Zn15 1.943 1_655 S
O23 C22 1.249 . S
O24 Zn14 2.067 1_655 S
O24 C22 1.270 . S
C25 O18 1.262 . S
C25 O26 1.232 . S
O26 C25 1.232 . S
C27 O19 1.257 1_455 S
C27 O20 1.257 . S
Zn28 O31 2.031 . S
Zn28 O33 2.043 1_545 S
Zn28 O38 2.067 1_545 S
Zn29 O30 1.962 . S
Zn29 O32 1.986 . S
Zn29 O34 1.996 . S
Zn29 O37 1.943 1_545 S
O30 Zn29 1.962 . S
O30 C35 1.254 . S
O31 Zn28 2.031 . S
O31 C35 1.269 . S
O32 Zn29 1.986 . S
O32 C39 1.262 . S
O33 Zn28 2.043 1_565 S
O33 C41 1.257 1_565 S
O34 Zn29 1.996 . S
O34 C41 1.257 . S
C35 O30 1.254 . S
C35 O31 1.269 . S
C36 O37 1.249 . S
C36 O38 1.270 . S
O37 Zn29 1.943 1_565 S
O37 C36 1.249 . S
O38 Zn28 2.067 1_565 S
O38 C36 1.270 . S
C39 O32 1.262 . S
C39 O40 1.232 . S
O40 C39 1.232 . S
C41 O33 1.257 1_545 S
C41 O34 1.257 . S
Zn42 O45 2.031 . S
Zn42 O47 2.049 1_655 S
Zn42 O52 2.067 1_655 S
Zn43 O44 1.962 . S
Zn43 O46 1.984 1_655 S
Zn43 O48 1.996 . S
Zn43 O51 1.943 1_655 S
O44 Zn43 1.962 . S
O44 C49 1.254 . S
O45 Zn42 2.031 . S
O45 C49 1.269 . S
O46 Zn43 1.984 1_455 S
O46 C53 1.262 . S
O47 Zn42 2.049 1_455 S
O47 C55 1.260 . S
O48 Zn43 1.996 . S
O48 C55 1.257 1_655 S
C49 O44 1.254 . S
C49 O45 1.269 . S
C50 O51 1.249 . S
C50 O52 1.270 . S
O51 Zn43 1.943 1_455 S
O51 C50 1.249 . S
O52 Zn42 2.067 1_455 S
O52 C50 1.270 . S
C53 O46 1.262 . S
C53 O54 1.230 1_455 S
O54 C53 1.230 1_655 S
C55 O47 1.260 . S
C55 O48 1.257 1_455 S
Zn56 O59 2.031 . S
Zn56 O61 2.043 1_545 S
Zn56 O66 2.067 1_545 S
Zn57 O58 1.962 . S
Zn57 O60 1.986 . S
Zn57 O62 1.996 . S
Zn57 O65 1.943 1_545 S
O58 Zn57 1.962 . S
O58 C63 1.254 . S
O59 Zn56 2.031 . S
O59 C63 1.269 . S
O60 Zn57 1.986 . S
O60 C67 1.262 . S
O61 Zn56 2.043 1_565 S
O61 C69 1.257 1_565 S
O62 Zn57 1.996 . S
O62 C69 1.257 . S
C63 O58 1.254 . S
C63 O59 1.269 . S
C64 O65 1.249 . S
C64 O66 1.270 . S
O65 Zn57 1.943 1_565 S
O65 C64 1.249 . S
O66 Zn56 2.067 1_565 S
O66 C64 1.270 . S
C67 O60 1.262 . S
C67 O68 1.232 . S
O68 C67 1.232 . S
C69 O61 1.257 1_545 S
C69 O62 1.257 . S
Zn70 O73 2.031 . S
Zn70 O75 2.049 1_655 S
Zn70 O80 2.067 1_655 S
Zn71 O72 1.962 . S
Zn71 O74 1.984 1_655 S
Zn71 O76 1.996 . S
Zn71 O79 1.943 1_655 S
O72 Zn71 1.962 . S
O72 C77 1.254 . S
O73 Zn70 2.031 . S
O73 C77 1.269 . S
O74 Zn71 1.984 1_455 S
O74 C81 1.262 . S
O75 Zn70 2.049 1_455 S
O75 C83 1.260 . S
O76 Zn71 1.996 . S
O76 C83 1.257 1_655 S
C77 O72 1.254 . S
C77 O73 1.269 . S
C78 O79 1.249 . S
C78 O80 1.270 . S
O79 Zn71 1.943 1_455 S
O79 C78 1.249 . S
O80 Zn70 2.067 1_455 S
O80 C78 1.270 . S
C81 O74 1.262 . S
C81 O82 1.230 1_455 S
O82 C81 1.230 1_655 S
C83 O75 1.260 . S
C83 O76 1.257 1_455 S
Zn84 O87 2.031 . S
Zn84 O89 2.049 1_565 S
Zn84 O94 2.067 1_565 S
Zn85 O86 1.962 . S
Zn85 O88 1.984 1_565 S
Zn85 O90 1.996 . S
Zn85 O93 1.943 1_565 S
O86 Zn85 1.962 . S
O86 C91 1.254 . S
O87 Zn84 2.031 . S
O87 C91 1.269 . S
O88 Zn85 1.984 1_545 S
O88 C95 1.262 . S
O89 Zn84 2.049 1_545 S
O89 C97 1.260 . S
O90 Zn85 1.996 . S
O90 C97 1.257 1_565 S
C91 O86 1.254 . S
C91 O87 1.269 . S
C92 O93 1.249 . S
C92 O94 1.270 . S
O93 Zn85 1.943 1_545 S
O93 C92 1.249 . S
O94 Zn84 2.067 1_545 S
O94 C92 1.270 . S
C95 O88 1.262 . S
C95 O96 1.230 1_545 S
O96 C95 1.230 1_565 S
C97 O89 1.260 . S
C97 O90 1.257 1_545 S
Zn98 O101 2.031 . S
Zn98 O103 2.043 1_455 S
Zn98 O108 2.067 1_455 S
Zn99 O100 1.962 . S
Zn99 O102 1.986 . S
Zn99 O104 1.996 . S
Zn99 O107 1.943 1_455 S
O100 Zn99 1.962 . S
O100 C105 1.254 . S
O101 Zn98 2.031 . S
O101 C105 1.269 . S
O102 Zn99 1.986 . S
O102 C109 1.262 . S
O103 Zn98 2.043 1_655 S
O103 C111 1.257 1_655 S
O104 Zn99 1.996 . S
O104 C111 1.257 . S
C105 O100 1.254 . S
C105 O101 1.269 . S
C106 O107 1.249 . S
C106 O108 1.270 . S
O107 Zn99 1.943 1_655 S
O107 C106 1.249 . S
O108 Zn98 2.067 1_655 S
O108 C106 1.270 . S
C109 O102 1.262 . S
C109 O110 1.232 . S
O110 C109 1.232 . S
C111 O103 1.257 1_455 S
C111 O104 1.257 . S
H112 C120 0.929 . S
H113 C122 0.930 . S
H114 C124 0.930 . S
H115 C127 0.929 . S
H116 C130 0.930 . S
H117 C132 0.960 . S
H118 C132 0.960 . S
H119 C132 0.960 . S
C120 H112 0.929 . S
C120 C121 1.377 1_565 S
C120 C122 1.384 . S
C121 C120 1.377 1_545 S
C121 C127 1.390 . S
C122 H113 0.930 . S
C122 C120 1.384 . S
C122 C123 1.372 1_565 S
C123 C122 1.372 1_545 S
C123 C124 1.400 . S
C123 C128 1.490 . S
C124 H114 0.930 . S
C124 C123 1.400 . S
C124 C127 1.386 . S
H125 C141 0.930 . S
H126 C142 0.931 . S
C127 H115 0.929 . S
C127 C121 1.390 . S
C127 C124 1.386 . S
C128 C123 1.490 . S
C128 C130 1.395 1_545 S
C128 C131 1.403 . S
H129 C135 0.930 . S
C130 H116 0.930 . S
C130 C128 1.395 1_565 S
C130 C133 1.403 1_554 S
C131 C128 1.403 . S
C131 C132 1.524 . S
C131 C135 1.400 1_554 S
C132 H117 0.960 . S
C132 H118 0.960 . S
C132 H119 0.960 . S
C132 C131 1.524 . S
C133 C130 1.403 1_556 S
C133 C134 1.386 1_565 S
C133 C137 1.495 . S
C134 C133 1.386 1_545 S
C134 C135 1.392 . S
C134 C136 1.478 . S
C135 H129 0.930 . S
C135 C131 1.400 1_556 S
C135 C134 1.392 . S
C136 C134 1.478 . S
C136 C138 1.365 1_545 S
C136 C142 1.399 . S
C137 C133 1.495 . S
C137 H143 0.959 . S
C137 H144 0.961 . S
C137 H145 0.960 . S
C138 C136 1.365 1_565 S
C138 C139 1.394 . S
C138 H146 0.930 . S
C139 C138 1.394 . S
C139 C140 1.358 1_565 S
C139 H147 0.929 . S
C140 C139 1.358 1_545 S
C140 C141 1.402 . S
C141 H125 0.930 . S
C141 C140 1.402 . S
C141 C142 1.379 . S
C142 H126 0.931 . S
C142 C136 1.399 . S
C142 C141 1.379 . S
H143 C137 0.959 . S
H144 C137 0.961 . S
H145 C137 0.960 . S
H146 C138 0.930 . S
H147 C139 0.929 . S
H148 C156 0.929 . S
H149 C158 0.930 . S
H150 C160 0.930 . S
H151 C163 0.929 . S
H152 C166 0.930 . S
H153 C168 0.960 . S
H154 C168 0.960 . S
H155 C168 0.960 . S
C156 H148 0.929 . S
C156 C157 1.377 . S
C156 C158 1.384 . S
C157 C156 1.377 . S
C157 C163 1.390 1_455 S
C158 H149 0.930 . S
C158 C156 1.384 . S
C158 C159 1.372 . S
C159 C158 1.372 . S
C159 C160 1.400 1_455 S
C159 C164 1.490 . S
C160 H150 0.930 . S
C160 C159 1.400 1_655 S
C160 C163 1.386 . S
H161 C177 0.930 . S
H162 C178 0.931 . S
C163 H151 0.929 . S
C163 C157 1.390 1_655 S
C163 C160 1.386 . S
C164 C159 1.490 . S
C164 C166 1.395 1_455 S
C164 C167 1.403 . S
H165 C171 0.930 . S
C166 H152 0.930 . S
C166 C164 1.395 1_655 S
C166 C169 1.403 . S
C167 C164 1.403 . S
C167 C168 1.524 . S
C167 C171 1.400 . S
C168 H153 0.960 . S
C168 H154 0.960 . S
C168 H155 0.960 . S
C168 C167 1.524 . S
C169 C166 1.403 . S
C169 C170 1.392 1_655 S
C169 C173 1.495 . S
C170 C169 1.392 1_455 S
C170 C171 1.385 . S
C170 C172 1.478 . S
C171 H165 0.930 . S
C171 C167 1.400 . S
C171 C170 1.385 . S
C172 C170 1.478 . S
C172 C174 1.381 . S
C172 C178 1.383 1_455 S
C173 C169 1.495 . S
C173 H179 0.959 . S
C173 H180 0.961 . S
C173 H181 0.960 1_655 S
C174 C172 1.381 . S
C174 C175 1.394 . S
C174 H182 0.930 . S
C175 C174 1.394 . S
C175 C176 1.383 . S
C175 H183 0.929 . S
C176 C175 1.383 . S
C176 C177 1.377 1_455 S
C177 H161 0.930 . S
C177 C176 1.377 1_655 S
C177 C178 1.379 . S
C178 H162 0.931 . S
C178 C172 1.383 1_655 S
C178 C177 1.379 . S
H179 C173 0.959 . S
H180 C173 0.961 . S
H181 C173 0.960 1_455 S
H182 C174 0.930 . S
H183 C175 0.929 . S
H184 C192 0.929 . S
H185 C194 0.930 . S
H186 C196 0.930 . S
H187 C199 0.929 . S
H188 C202 0.930 . S
H189 C204 0.960 . S
H190 C204 0.932 1_565 S
H191 C204 0.987 . S
C192 H184 0.929 . S
C192 C193 1.377 1_565 S
C192 C194 1.384 . S
C193 C192 1.377 1_545 S
C193 C199 1.390 . S
C194 H185 0.930 . S
C194 C192 1.384 . S
C194 C195 1.372 1_565 S
C195 C194 1.372 1_545 S
C195 C196 1.400 . S
C195 C200 1.490 . S
C196 H186 0.930 . S
C196 C195 1.400 . S
C196 C199 1.386 . S
H197 C213 0.930 . S
H198 C214 0.931 . S
C199 H187 0.929 . S
C199 C193 1.390 . S
C199 C196 1.386 . S
C200 C195 1.490 . S
C200 C202 1.395 . S
C200 C203 1.403 . S
H201 C207 0.930 . S
C202 H188 0.930 . S
C202 C200 1.395 . S
C202 C205 1.403 1_556 S
C203 C200 1.403 . S
C203 C204 1.526 . S
C203 C207 1.400 1_556 S
C204 H189 0.960 . S
C204 H190 0.932 1_545 S
C204 H191 0.987 . S
C204 C203 1.526 . S
C205 C202 1.403 1_554 S
C205 C206 1.392 . S
C205 C209 1.495 . S
C206 C205 1.392 . S
C206 C207 1.385 . S
C206 C208 1.478 . S
C207 H201 0.930 . S
C207 C203 1.400 1_554 S
C207 C206 1.385 . S
C208 C206 1.478 . S
C208 C210 1.381 1_545 S
C208 C214 1.383 . S
C209 C205 1.495 . S
C209 H215 0.959 . S
C209 H216 0.961 . S
C209 H217 0.960 1_545 S
C210 C208 1.381 1_565 S
C210 C211 1.394 . S
C210 H218 0.930 . S
C211 C210 1.394 . S
C211 C212 1.383 1_565 S
C211 H219 0.929 . S
C212 C211 1.383 1_545 S
C212 C213 1.377 . S
C213 H197 0.930 . S
C213 C212 1.377 . S
C213 C214 1.379 . S
C214 H198 0.931 . S
C214 C208 1.383 . S
C214 C213 1.379 . S
H215 C209 0.959 . S
H216 C209 0.961 . S
H217 C209 0.960 1_565 S
H218 C210 0.930 . S
H219 C211 0.929 . S
H220 C228 0.929 . S
H221 C230 0.930 . S
H222 C232 0.928 1_655 S
H223 C235 0.932 . S
H224 C238 0.930 . S
H225 C240 0.960 . S
H226 C240 0.960 . S
H227 C240 0.960 . S
C228 H220 0.929 . S
C228 C229 1.377 . S
C228 C230 1.384 . S
C229 C228 1.377 . S
C229 C235 1.388 1_455 S
C230 H221 0.930 . S
C230 C228 1.384 . S
C230 C231 1.372 . S
C231 C230 1.372 . S
C231 C232 1.401 . S
C231 C236 1.490 . S
C232 H222 0.928 1_455 S
C232 C231 1.401 . S
C232 C235 1.385 1_455 S
H233 C249 0.930 . S
H234 C250 0.931 . S
C235 H223 0.932 . S
C235 C229 1.388 1_655 S
C235 C232 1.385 1_655 S
C236 C231 1.490 . S
C236 C238 1.395 1_455 S
C236 C239 1.403 . S
H237 C243 0.930 . S
C238 H224 0.930 . S
C238 C236 1.395 1_655 S
C238 C241 1.403 . S
C239 C236 1.403 . S
C239 C240 1.524 . S
C239 C243 1.400 . S
C240 H225 0.960 . S
C240 H226 0.960 . S
C240 H227 0.960 . S
C240 C239 1.524 . S
C241 C238 1.403 . S
C241 C242 1.376 1_655 S
C241 C245 1.495 . S
C242 C241 1.376 1_455 S
C242 C243 1.403 . S
C242 C244 1.478 . S
C243 H237 0.930 . S
C243 C239 1.400 . S
C243 C242 1.403 . S
C244 C242 1.478 . S
C244 C246 1.389 . S
C244 C250 1.378 1_455 S
C245 C241 1.495 . S
C245 H251 0.959 . S
C245 H252 0.961 . S
C245 H253 0.960 . S
C246 C244 1.389 . S
C246 C247 1.394 . S
C246 H254 0.930 . S
C247 C246 1.394 . S
C247 C248 1.383 . S
C247 H255 0.929 . S
C248 C247 1.383 . S
C248 C249 1.377 1_455 S
C249 H233 0.930 . S
C249 C248 1.377 1_655 S
C249 C250 1.379 . S
C250 H234 0.931 . S
C250 C244 1.378 1_655 S
C250 C249 1.379 . S
H251 C245 0.959 . S
H252 C245 0.961 . S
H253 C245 0.960 . S
H254 C246 0.930 . S
H255 C247 0.929 . S
H256 C264 0.929 . S
H257 C266 0.930 . S
H258 C268 0.930 . S
H259 C271 0.929 . S
H260 C274 0.930 . S
H261 C276 0.960 . S
H262 C276 0.960 . S
H263 C276 0.960 . S
C264 H256 0.929 . S
C264 C265 1.377 . S
C264 C266 1.384 . S
C265 C264 1.377 . S
C265 C271 1.390 1_545 S
C266 H257 0.930 . S
C266 C264 1.384 . S
C266 C267 1.372 . S
C267 C266 1.372 . S
C267 C268 1.400 1_545 S
C267 C272 1.490 . S
C268 H258 0.930 . S
C268 C267 1.400 1_565 S
C268 C271 1.386 . S
H269 C285 0.930 . S
H270 C286 0.931 . S
C271 H259 0.929 . S
C271 C265 1.390 1_565 S
C271 C268 1.386 . S
C272 C267 1.490 . S
C272 C274 1.395 . S
C272 C275 1.403 1_545 S
H273 C279 0.930 . S
C274 H260 0.930 . S
C274 C272 1.395 . S
C274 C277 1.403 . S
C275 C272 1.403 1_565 S
C275 C276 1.524 . S
C275 C279 1.400 . S
C276 H261 0.960 . S
C276 H262 0.960 . S
C276 H263 0.960 . S
C276 C275 1.524 . S
C277 C274 1.403 . S
C277 C278 1.392 . S
C277 C281 1.495 . S
C278 C277 1.392 . S
C278 C279 1.385 1_545 S
C278 C280 1.478 . S
C279 H273 0.930 . S
C279 C275 1.400 . S
C279 C278 1.385 1_565 S
C280 C278 1.478 . S
C280 C282 1.381 . S
C280 C286 1.383 1_545 S
C281 C277 1.495 . S
C281 H287 0.959 . S
C281 H288 0.961 . S
C281 H289 0.960 . S
C282 C280 1.381 . S
C282 C283 1.394 . S
C282 H290 0.930 . S
C283 C282 1.394 . S
C283 C284 1.383 . S
C283 H291 0.929 . S
C284 C283 1.383 . S
C284 C285 1.377 1_545 S
C285 H269 0.930 . S
C285 C284 1.377 1_565 S
C285 C286 1.379 . S
C286 H270 0.931 . S
C286 C280 1.383 1_565 S
C286 C285 1.379 . S
H287 C281 0.959 . S
H288 C281 0.961 . S
H289 C281 0.960 . S
H290 C282 0.930 . S
H291 C283 0.929 . S
H292 C300 0.929 . S
H293 C302 0.930 . S
H294 C304 0.933 . S
H295 C307 0.929 . S
H296 C310 0.930 . S
H297 C312 0.960 . S
H298 C312 0.960 . S
H299 C312 0.960 . S
C300 H292 0.929 . S
C300 C301 1.377 . S
C300 C302 1.384 . S
C301 C300 1.377 . S
C301 C307 1.390 . S
C302 H293 0.930 . S
C302 C300 1.384 . S
C302 C303 1.372 . S
C303 C302 1.372 . S
C303 C304 1.400 . S
C303 C308 1.490 . S
C304 H294 0.933 . S
C304 C303 1.400 . S
C304 C307 1.386 . S
H305 C321 0.930 . S
H306 C322 0.931 . S
C307 H295 0.929 . S
C307 C301 1.390 . S
C307 C304 1.386 . S
C308 C303 1.490 . S
C308 C310 1.395 . S
C308 C311 1.403 1_455 S
H309 C315 0.930 . S
C310 H296 0.930 . S
C310 C308 1.395 . S
C310 C313 1.403 . S
C311 C308 1.403 1_655 S
C311 C312 1.524 . S
C311 C315 1.400 . S
C312 H297 0.960 . S
C312 H298 0.960 . S
C312 H299 0.960 . S
C312 C311 1.524 . S
C313 C310 1.403 . S
C313 C314 1.392 . S
C313 C317 1.495 . S
C314 C313 1.392 . S
C314 C315 1.385 1_455 S
C314 C316 1.478 . S
C315 H309 0.930 . S
C315 C311 1.400 . S
C315 C314 1.385 1_655 S
C316 C314 1.478 . S
C316 C318 1.381 . S
C316 C322 1.383 . S
C317 C313 1.495 . S
C317 H323 0.959 . S
C317 H324 0.961 . S
C317 H325 0.960 . S
C318 C316 1.381 . S
C318 C319 1.394 . S
C318 H326 0.930 . S
C319 C318 1.394 . S
C319 C320 1.383 . S
C319 H327 0.929 . S
C320 C319 1.383 . S
C320 C321 1.377 . S
C321 H305 0.930 . S
C321 C320 1.377 . S
C321 C322 1.379 . S
C322 H306 0.931 . S
C322 C316 1.383 . S
C322 C321 1.379 . S
H323 C317 0.959 . S
H324 C317 0.961 . S
H325 C317 0.960 . S
H326 C318 0.930 . S
H327 C319 0.929 . S
H328 C336 0.929 . S
H329 C338 0.930 . S
H330 C340 0.930 . S
H331 C343 0.929 . S
H332 C346 0.930 . S
H333 C348 0.960 . S
H334 C348 0.960 . S
H335 C348 0.960 . S
C336 H328 0.929 . S
C336 C337 1.377 . S
C336 C338 1.384 . S
C337 C336 1.377 . S
C337 C343 1.390 1_545 S
C338 H329 0.930 . S
C338 C336 1.384 . S
C338 C339 1.372 . S
C339 C338 1.372 . S
C339 C340 1.400 1_545 S
C339 C344 1.490 . S
C340 H330 0.930 . S
C340 C339 1.400 1_565 S
C340 C343 1.386 . S
H341 C357 0.930 . S
H342 C358 0.931 . S
C343 H331 0.929 . S
C343 C337 1.390 1_565 S
C343 C340 1.386 . S
C344 C339 1.490 . S
C344 C346 1.395 . S
C344 C347 1.403 1_545 S
H345 C351 0.930 . S
C346 H332 0.930 . S
C346 C344 1.395 . S
C346 C349 1.403 . S
C347 C344 1.403 1_565 S
C347 C348 1.524 . S
C347 C351 1.400 . S
C348 H333 0.960 . S
C348 H334 0.960 . S
C348 H335 0.960 . S
C348 C347 1.524 . S
C349 C346 1.403 . S
C349 C350 1.392 . S
C349 C353 1.495 . S
C350 C349 1.392 . S
C350 C351 1.385 1_545 S
C350 C352 1.478 . S
C351 H345 0.930 . S
C351 C347 1.400 . S
C351 C350 1.385 1_565 S
C352 C350 1.478 . S
C352 C354 1.381 . S
C352 C358 1.383 1_545 S
C353 C349 1.495 . S
C353 H359 0.959 . S
C353 H360 0.961 . S
C353 H361 0.960 . S
C354 C352 1.381 . S
C354 C355 1.394 . S
C354 H362 0.930 . S
C355 C354 1.394 . S
C355 C356 1.383 . S
C355 H363 0.929 . S
C356 C355 1.383 . S
C356 C357 1.377 1_545 S
C357 H341 0.930 . S
C357 C356 1.377 1_565 S
C357 C358 1.379 . S
C358 H342 0.931 . S
C358 C352 1.383 1_565 S
C358 C357 1.379 . S
H359 C353 0.959 . S
H360 C353 0.961 . S
H361 C353 0.960 . S
H362 C354 0.930 . S
H363 C355 0.929 . S
H364 C372 0.929 . S
H365 C374 0.931 . S
H366 C376 0.930 . S
H367 C379 0.929 . S
H368 C382 0.930 . S
H369 C384 0.960 . S
H370 C384 0.960 . S
H371 C384 0.960 . S
C372 H364 0.929 . S
C372 C373 1.377 1_655 S
C372 C374 1.384 . S
C373 C372 1.377 1_455 S
C373 C379 1.390 . S
C374 H365 0.931 . S
C374 C372 1.384 . S
C374 C375 1.370 1_655 S
C375 C374 1.370 1_455 S
C375 C376 1.400 . S
C375 C380 1.490 . S
C376 H366 0.930 . S
C376 C375 1.400 . S
C376 C379 1.386 . S
H377 C393 0.930 . S
H378 C394 0.931 . S
C379 H367 0.929 . S
C379 C373 1.390 . S
C379 C376 1.386 . S
C380 C375 1.490 . S
C380 C382 1.395 . S
C380 C383 1.403 1_455 S
H381 C387 0.930 . S
C382 H368 0.930 . S
C382 C380 1.395 . S
C382 C385 1.403 . S
C383 C380 1.403 1_655 S
C383 C384 1.524 . S
C383 C387 1.400 . S
C384 H369 0.960 . S
C384 H370 0.960 . S
C384 H371 0.960 . S
C384 C383 1.524 . S
C385 C382 1.403 . S
C385 C386 1.392 . S
C385 C389 1.495 . S
C386 C385 1.392 . S
C386 C387 1.385 1_455 S
C386 C388 1.478 . S
C387 H381 0.930 . S
C387 C383 1.400 . S
C387 C386 1.385 1_655 S
C388 C386 1.478 . S
C388 C390 1.381 . S
C388 C394 1.383 . S
C389 C385 1.495 . S
C389 H395 0.959 . S
C389 H396 0.961 . S
C389 H397 0.960 . S
C390 C388 1.381 . S
C390 C391 1.394 . S
C390 H398 0.930 1_455 S
C391 C390 1.394 . S
C391 C392 1.383 . S
C391 H399 0.929 1_455 S
C392 C391 1.383 . S
C392 C393 1.377 . S
C393 H377 0.930 . S
C393 C392 1.377 . S
C393 C394 1.379 . S
C394 H378 0.931 . S
C394 C388 1.383 . S
C394 C393 1.379 . S
H395 C389 0.959 . S
H396 C389 0.961 . S
H397 C389 0.960 . S
H398 C390 0.930 1_655 S
H399 C391 0.929 1_655 S
H400 C408 0.929 . S
H401 C410 0.930 . S
H402 C412 0.930 . S
H403 C415 0.929 . S
H404 C418 0.930 . S
H405 C420 0.960 . S
H406 C420 0.960 . S
H407 C420 0.960 . S
C408 H400 0.929 . S
C408 C409 1.377 . S
C408 C410 1.384 . S
C409 C408 1.377 . S
C409 C415 1.390 . S
C410 H401 0.930 . S
C410 C408 1.384 . S
C410 C411 1.372 . S
C411 C410 1.372 . S
C411 C412 1.400 . S
C411 C416 1.490 . S
C412 H402 0.930 . S
C412 C411 1.400 . S
C412 C415 1.386 . S
H413 C429 0.930 . S
H414 C430 0.931 . S
C415 H403 0.929 . S
C415 C409 1.390 . S
C415 C412 1.386 . S
C416 C411 1.490 . S
C416 C418 1.395 . S
C416 C419 1.403 . S
H417 C423 0.930 . S
C418 H404 0.930 . S
C418 C416 1.395 . S
C418 C421 1.403 . S
C419 C416 1.403 . S
C419 C420 1.524 . S
C419 C423 1.400 . S
C420 H405 0.960 . S
C420 H406 0.960 . S
C420 H407 0.960 . S
C420 C419 1.524 . S
C421 C418 1.403 . S
C421 C422 1.392 . S
C421 C425 1.495 . S
C422 C421 1.392 . S
C422 C423 1.385 . S
C422 C424 1.478 . S
C423 H417 0.930 . S
C423 C419 1.400 . S
C423 C422 1.385 . S
C424 C422 1.478 . S
C424 C426 1.381 . S
C424 C430 1.383 . S
C425 C421 1.495 . S
C425 H431 0.959 . S
C425 H432 0.961 . S
C425 H433 0.960 . S
C426 C424 1.381 . S
C426 C427 1.394 . S
C426 H434 0.930 . S
C427 C426 1.394 . S
C427 C428 1.383 . S
C427 H435 0.929 . S
C428 C427 1.383 . S
C428 C429 1.377 . S
C429 H413 0.930 . S
C429 C428 1.377 . S
C429 C430 1.379 . S
C430 H414 0.931 . S
C430 C424 1.383 . S
C430 C429 1.379 . S
H431 C425 0.959 . S
H432 C425 0.961 . S
H433 C425 0.960 . S
H434 C426 0.930 . S
H435 C427 0.929 . S
H436 C444 0.929 . S
H437 C446 0.930 . S
H438 C448 0.930 . S
H439 C451 0.929 . S
H440 C454 0.930 . S
H441 C456 0.960 . S
H442 C456 0.960 . S
H443 C456 0.960 . S
C444 H436 0.929 . S
C444 C445 1.377 . S
C444 C446 1.384 . S
C445 C444 1.377 . S
C445 C451 1.390 . S
C446 H437 0.930 . S
C446 C444 1.384 . S
C446 C447 1.372 . S
C447 C446 1.372 . S
C447 C448 1.400 . S
C447 C452 1.490 . S
C448 H438 0.930 . S
C448 C447 1.400 . S
C448 C451 1.386 . S
H449 C465 0.930 . S
H450 C466 0.931 . S
C451 H439 0.929 . S
C451 C445 1.390 . S
C451 C448 1.386 . S
C452 C447 1.490 . S
C452 C454 1.395 . S
C452 C455 1.403 . S
H453 C459 0.930 . S
C454 H440 0.930 . S
C454 C452 1.395 . S
C454 C457 1.403 . S
C455 C452 1.403 . S
C455 C456 1.524 . S
C455 C459 1.400 . S
C456 H441 0.960 . S
C456 H442 0.960 . S
C456 H443 0.960 . S
C456 C455 1.524 . S
C457 C454 1.403 . S
C457 C458 1.392 . S
C457 C461 1.495 . S
C458 C457 1.392 . S
C458 C459 1.385 . S
C458 C460 1.478 . S
C459 H453 0.930 . S
C459 C455 1.400 . S
C459 C458 1.385 . S
C460 C458 1.478 . S
C460 C462 1.381 . S
C460 C466 1.383 . S
C461 C457 1.495 . S
C461 H467 0.959 . S
C461 H468 0.961 . S
C461 H469 0.960 . S
C462 C460 1.381 . S
C462 C463 1.394 . S
C462 H470 0.930 . S
C463 C462 1.394 . S
C463 C464 1.383 . S
C463 H471 0.929 . S
C464 C463 1.383 . S
C464 C465 1.377 . S
C465 H449 0.930 . S
C465 C464 1.377 . S
C465 C466 1.379 . S
C466 H450 0.931 . S
C466 C460 1.383 . S
C466 C465 1.379 . S
H467 C461 0.959 . S
H468 C461 0.961 . S
H469 C461 0.960 . S
H470 C462 0.930 . S
H471 C463 0.929 . S
H472 C480 0.929 . S
H473 C482 0.930 . S
H474 C484 0.930 . S
H475 C487 0.929 . S
H476 C490 0.930 . S
H477 C492 0.960 . S
H478 C492 0.960 . S
H479 C492 0.960 . S
C480 H472 0.929 . S
C480 C481 1.377 . S
C480 C482 1.384 . S
C481 C480 1.377 . S
C481 C487 1.390 . S
C482 H473 0.930 . S
C482 C480 1.384 . S
C482 C483 1.372 . S
C483 C482 1.372 . S
C483 C484 1.400 . S
C483 C488 1.490 . S
C484 H474 0.930 . S
C484 C483 1.400 . S
C484 C487 1.386 . S
H485 C501 0.930 . S
H486 C502 0.931 . S
C487 H475 0.929 . S
C487 C481 1.390 . S
C487 C484 1.386 . S
C488 C483 1.490 . S
C488 C490 1.395 . S
C488 C491 1.403 . S
H489 C495 0.930 . S
C490 H476 0.930 . S
C490 C488 1.395 . S
C490 C493 1.403 . S
C491 C488 1.403 . S
C491 C492 1.524 . S
C491 C495 1.400 . S
C492 H477 0.960 . S
C492 H478 0.960 . S
C492 H479 0.960 . S
C492 C491 1.524 . S
C493 C490 1.403 . S
C493 C494 1.392 . S
C493 C497 1.495 . S
C494 C493 1.392 . S
C494 C495 1.385 . S
C494 C496 1.478 . S
C495 H489 0.930 . S
C495 C491 1.400 . S
C495 C494 1.385 . S
C496 C494 1.478 . S
C496 C498 1.381 . S
C496 C502 1.383 . S
C497 C493 1.495 . S
C497 H503 0.959 . S
C497 H504 0.961 . S
C497 H505 0.960 . S
C498 C496 1.381 . S
C498 C499 1.394 . S
C498 H506 0.930 . S
C499 C498 1.394 . S
C499 C500 1.383 . S
C499 H507 0.929 . S
C500 C499 1.383 . S
C500 C501 1.377 . S
C501 H485 0.930 . S
C501 C500 1.377 . S
C501 C502 1.379 . S
C502 H486 0.931 . S
C502 C496 1.383 . S
C502 C501 1.379 . S
H503 C497 0.959 . S
H504 C497 0.961 . S
H505 C497 0.960 . S
H506 C498 0.930 . S
H507 C499 0.929 . S
H508 C516 0.929 . S
H509 C518 0.930 . S
H510 C520 0.930 . S
H511 C523 0.929 . S
H512 C526 0.930 . S
H513 C528 0.960 . S
H514 C528 0.960 . S
H515 C528 0.960 . S
C516 H508 0.929 . S
C516 C517 1.377 . S
C516 C518 1.384 . S
C517 C516 1.377 . S
C517 C523 1.390 . S
C518 H509 0.930 . S
C518 C516 1.384 . S
C518 C519 1.372 . S
C519 C518 1.372 . S
C519 C520 1.400 . S
C519 C524 1.490 . S
C520 H510 0.930 . S
C520 C519 1.400 . S
C520 C523 1.386 . S
H521 C537 0.930 . S
H522 C538 0.931 . S
C523 H511 0.929 . S
C523 C517 1.390 . S
C523 C520 1.386 . S
C524 C519 1.490 . S
C524 C526 1.395 . S
C524 C527 1.403 . S
H525 C531 0.930 . S
C526 H512 0.930 . S
C526 C524 1.395 . S
C526 C529 1.403 . S
C527 C524 1.403 . S
C527 C528 1.524 . S
C527 C531 1.400 . S
C528 H513 0.960 . S
C528 H514 0.960 . S
C528 H515 0.960 . S
C528 C527 1.524 . S
C529 C526 1.403 . S
C529 C530 1.392 . S
C529 C533 1.495 . S
C530 C529 1.392 . S
C530 C531 1.385 . S
C530 C532 1.478 . S
C531 H525 0.930 . S
C531 C527 1.400 . S
C531 C530 1.385 . S
C532 C530 1.478 . S
C532 C534 1.381 . S
C532 C538 1.383 . S
C533 C529 1.495 . S
C533 H539 0.959 . S
C533 H540 0.961 . S
C533 H541 0.960 . S
C534 C532 1.381 . S
C534 C535 1.394 . S
C534 H542 0.930 . S
C535 C534 1.394 . S
C535 C536 1.383 . S
C535 H543 0.929 . S
C536 C535 1.383 . S
C536 C537 1.377 . S
C537 H521 0.930 . S
C537 C536 1.377 . S
C537 C538 1.379 . S
C538 H522 0.931 . S
C538 C532 1.383 . S
C538 C537 1.379 . S
H539 C533 0.959 . S
H540 C533 0.961 . S
H541 C533 0.960 . S
H542 C534 0.930 . S
H543 C535 0.929 . S
H544 C552 0.929 . S
H545 C554 0.930 . S
H546 C556 0.930 . S
H547 C559 0.929 . S
H548 C562 0.930 . S
H549 C564 0.960 . S
H550 C564 0.960 . S
H551 C564 0.960 . S
C552 H544 0.929 . S
C552 C553 1.377 . S
C552 C554 1.384 . S
C553 C552 1.377 . S
C553 C559 1.390 . S
C554 H545 0.930 . S
C554 C552 1.384 . S
C554 C555 1.372 . S
C555 C554 1.372 . S
C555 C556 1.400 . S
C555 C560 1.490 . S
C556 H546 0.930 . S
C556 C555 1.400 . S
C556 C559 1.386 . S
H557 C573 0.930 . S
H558 C574 0.931 . S
C559 H547 0.929 . S
C559 C553 1.390 . S
C559 C556 1.386 . S
C560 C555 1.490 . S
C560 C562 1.395 . S
C560 C563 1.403 . S
H561 C567 0.930 . S
C562 H548 0.930 . S
C562 C560 1.395 . S
C562 C565 1.403 . S
C563 C560 1.403 . S
C563 C564 1.524 . S
C563 C567 1.400 . S
C564 H549 0.960 . S
C564 H550 0.960 . S
C564 H551 0.960 . S
C564 C563 1.524 . S
C565 C562 1.403 . S
C565 C566 1.392 . S
C565 C569 1.495 . S
C566 C565 1.392 . S
C566 C567 1.385 . S
C566 C568 1.478 . S
C567 H561 0.930 . S
C567 C563 1.400 . S
C567 C566 1.385 . S
C568 C566 1.478 . S
C568 C570 1.381 . S
C568 C574 1.383 . S
C569 C565 1.495 . S
C569 H575 0.959 . S
C569 H576 0.961 . S
C569 H577 0.960 . S
C570 C568 1.381 . S
C570 C571 1.394 . S
C570 H578 0.930 . S
C571 C570 1.394 . S
C571 C572 1.383 . S
C571 H579 0.929 . S
C572 C571 1.383 . S
C572 C573 1.377 . S
C573 H557 0.930 . S
C573 C572 1.377 . S
C573 C574 1.379 . S
C574 H558 0.931 . S
C574 C568 1.383 . S
C574 C573 1.379 . S
H575 C569 0.959 . S
H576 C569 0.961 . S
H577 C569 0.960 . S
H578 C570 0.930 . S
H579 C571 0.929 . S
H580 C588 0.929 . S
H581 C590 0.930 . S
H582 C592 0.930 . S
H583 C595 0.929 . S
H584 C598 0.930 . S
H585 C600 0.960 . S
H586 C600 0.960 . S
H587 C600 0.960 . S
C588 H580 0.929 . S
C588 C589 1.377 . S
C588 C590 1.384 . S
C589 C588 1.377 . S
C589 C595 1.390 . S
C590 H581 0.930 . S
C590 C588 1.384 . S
C590 C591 1.372 . S
C591 C590 1.372 . S
C591 C592 1.400 . S
C591 C596 1.490 . S
C592 H582 0.930 . S
C592 C591 1.400 . S
C592 C595 1.386 . S
H593 C609 0.930 . S
H594 C610 0.931 . S
C595 H583 0.929 . S
C595 C589 1.390 . S
C595 C592 1.386 . S
C596 C591 1.490 . S
C596 C598 1.395 . S
C596 C599 1.403 . S
H597 C603 0.930 . S
C598 H584 0.930 . S
C598 C596 1.395 . S
C598 C601 1.403 . S
C599 C596 1.403 . S
C599 C600 1.524 . S
C599 C603 1.400 . S
C600 H585 0.960 . S
C600 H586 0.960 . S
C600 H587 0.960 . S
C600 C599 1.524 . S
C601 C598 1.403 . S
C601 C602 1.392 . S
C601 C605 1.495 . S
C602 C601 1.392 . S
C602 C603 1.385 . S
C602 C604 1.478 . S
C603 H597 0.930 . S
C603 C599 1.400 . S
C603 C602 1.385 . S
C604 C602 1.478 . S
C604 C606 1.381 . S
C604 C610 1.383 . S
C605 C601 1.495 . S
C605 H611 0.959 . S
C605 H612 0.961 . S
C605 H613 0.960 . S
C606 C604 1.381 . S
C606 C607 1.394 . S
C606 H614 0.930 . S
C607 C606 1.394 . S
C607 C608 1.383 . S
C607 H615 0.929 . S
C608 C607 1.383 . S
C608 C609 1.377 . S
C609 H593 0.930 . S
C609 C608 1.377 . S
C609 C610 1.379 . S
C610 H594 0.931 . S
C610 C604 1.383 . S
C610 C609 1.379 . S
H611 C605 0.959 . S
H612 C605 0.961 . S
H613 C605 0.960 . S
H614 C606 0.930 . S
H615 C607 0.929 . S
H616 C624 0.929 . S
H617 C626 0.930 . S
H618 C628 0.930 . S
H619 C631 0.929 . S
H620 C634 0.930 . S
H621 C636 0.960 . S
H622 C636 0.960 . S
H623 C636 0.960 . S
C624 H616 0.929 . S
C624 C625 1.377 . S
C624 C626 1.384 . S
C625 C624 1.377 . S
C625 C631 1.390 . S
C626 H617 0.930 . S
C626 C624 1.384 . S
C626 C627 1.372 . S
C627 C626 1.372 . S
C627 C628 1.400 . S
C627 C632 1.490 . S
C628 H618 0.930 . S
C628 C627 1.400 . S
C628 C631 1.386 . S
H629 C645 0.930 . S
H630 C646 0.931 . S
C631 H619 0.929 . S
C631 C625 1.390 . S
C631 C628 1.386 . S
C632 C627 1.490 . S
C632 C634 1.395 . S
C632 C635 1.403 . S
H633 C639 0.930 . S
C634 H620 0.930 . S
C634 C632 1.395 . S
C634 C637 1.403 . S
C635 C632 1.403 . S
C635 C636 1.524 . S
C635 C639 1.400 . S
C636 H621 0.960 . S
C636 H622 0.960 . S
C636 H623 0.960 . S
C636 C635 1.524 . S
C637 C634 1.403 . S
C637 C638 1.392 . S
C637 C641 1.495 . S
C638 C637 1.392 . S
C638 C639 1.385 . S
C638 C640 1.478 . S
C639 H633 0.930 . S
C639 C635 1.400 . S
C639 C638 1.385 . S
C640 C638 1.478 . S
C640 C642 1.381 . S
C640 C646 1.383 . S
C641 C637 1.495 . S
C641 H647 0.959 . S
C641 H648 0.961 . S
C641 H649 0.960 . S
C642 C640 1.381 . S
C642 C643 1.394 . S
C642 H650 0.930 . S
C643 C642 1.394 . S
C643 C644 1.383 . S
C643 H651 0.929 . S
C644 C643 1.383 . S
C644 C645 1.377 . S
C645 H629 0.930 . S
C645 C644 1.377 . S
C645 C646 1.379 . S
C646 H630 0.931 . S
C646 C640 1.383 . S
C646 C645 1.379 . S
H647 C641 0.959 . S
H648 C641 0.961 . S
H649 C641 0.960 . S
H650 C642 0.930 . S
H651 C643 0.929 . S
H652 C660 0.929 . S
H653 C662 0.930 . S
H654 C664 0.930 . S
H655 C667 0.929 . S
H656 C670 0.930 . S
H657 C672 0.960 . S
H658 C672 0.960 . S
H659 C672 0.960 . S
C660 H652 0.929 . S
C660 C661 1.377 . S
C660 C662 1.384 . S
C661 C660 1.377 . S
C661 C667 1.390 . S
C662 H653 0.930 . S
C662 C660 1.384 . S
C662 C663 1.372 . S
C663 C662 1.372 . S
C663 C664 1.400 . S
C663 C668 1.490 . S
C664 H654 0.930 . S
C664 C663 1.400 . S
C664 C667 1.386 . S
H665 C681 0.930 . S
H666 C682 0.931 . S
C667 H655 0.929 . S
C667 C661 1.390 . S
C667 C664 1.386 . S
C668 C663 1.490 . S
C668 C670 1.395 . S
C668 C671 1.403 . S
H669 C675 0.930 . S
C670 H656 0.930 . S
C670 C668 1.395 . S
C670 C673 1.403 . S
C671 C668 1.403 . S
C671 C672 1.524 . S
C671 C675 1.400 . S
C672 H657 0.960 . S
C672 H658 0.960 . S
C672 H659 0.960 . S
C672 C671 1.524 . S
C673 C670 1.403 . S
C673 C674 1.392 . S
C673 C677 1.495 . S
C674 C673 1.392 . S
C674 C675 1.385 . S
C674 C676 1.478 . S
C675 H669 0.930 . S
C675 C671 1.400 . S
C675 C674 1.385 . S
C676 C674 1.478 . S
C676 C678 1.381 . S
C676 C682 1.383 . S
C677 C673 1.495 . S
C677 H683 0.959 . S
C677 H684 0.961 . S
C677 H685 0.960 . S
C678 C676 1.381 . S
C678 C679 1.394 . S
C678 H686 0.930 . S
C679 C678 1.394 . S
C679 C680 1.383 . S
C679 H687 0.929 . S
C680 C679 1.383 . S
C680 C681 1.377 . S
C681 H665 0.930 . S
C681 C680 1.377 . S
C681 C682 1.379 . S
C682 H666 0.931 . S
C682 C676 1.383 . S
C682 C681 1.379 . S
H683 C677 0.959 . S
H684 C677 0.961 . S
H685 C677 0.960 . S
H686 C678 0.930 . S
H687 C679 0.929 . S
C121 C13 1.475 . S
C140 C69 1.445 . S
C157 C27 1.471 . S
C176 C83 1.436 . S
C193 C97 1.472 . S
C212 C41 1.437 . S
C229 C111 1.467 . S
C248 C55 1.444 . S
C265 C11 0.996 . S
C284 C39 0.991 . S
C301 C25 0.999 . S
C320 C53 1.010 . S
C337 C95 0.996 . S
C356 C67 0.990 . S
C373 C81 0.995 . S
C392 C109 0.982 . S
C409 C78 1.308 . S
C428 C8 1.306 . S
C445 C22 1.303 . S
C464 C92 1.280 . S
C481 C106 1.314 . S
C500 C36 1.333 . S
C517 C50 1.302 . S
C536 C64 1.276 . S
C553 C91 0.973 . S
C572 C49 0.995 . S
C589 C7 0.980 . S
C608 C105 0.955 . S
C625 C21 0.974 . S
C644 C63 0.991 . S
C661 C77 0.987 . S
C680 C35 0.949 . S
