# Generated by pormake.
# Topology wmb, (6)-cn, num edge types: 1
# Building blocks:
#     Node 0, Type 0, BuildingBlock: IZENUY_clean_sbu_0, # of connection points: 6
#     Node 1, Type 0, BuildingBlock: IZENUY_clean_sbu_0, # of connection points: 6
#     Node 2, Type 0, BuildingBlock: IZENUY_clean_sbu_0, # of connection points: 6
#     Node 3, Type 0, BuildingBlock: IZENUY_clean_sbu_0, # of connection points: 6
#     Node 4, Type 0, BuildingBlock: IZENUY_clean_sbu_0, # of connection points: 6
#     Node 5, Type 0, BuildingBlock: IZENUY_clean_sbu_0, # of connection points: 6
#     Edge 6, Type (0, 0), BuildingBlock: UVAHIK_clean_linker_0, # of connection points: 2
#     Edge 7, Type (0, 0), BuildingBlock: UVAHIK_clean_linker_0, # of connection points: 2
#     Edge 8, Type (0, 0), BuildingBlock: UVAHIK_clean_linker_0, # of connection points: 2
#     Edge 9, Type (0, 0), BuildingBlock: UVAHIK_clean_linker_0, # of connection points: 2
#     Edge 10, Type (0, 0), BuildingBlock: UVAHIK_clean_linker_0, # of connection points: 2
#     Edge 11, Type (0, 0), BuildingBlock: UVAHIK_clean_linker_0, # of connection points: 2
#     Edge 12, Type (0, 0), BuildingBlock: UVAHIK_clean_linker_0, # of connection points: 2
#     Edge 13, Type (0, 0), BuildingBlock: UVAHIK_clean_linker_0, # of connection points: 2
#     Edge 14, Type (0, 0), BuildingBlock: UVAHIK_clean_linker_0, # of connection points: 2
#     Edge 15, Type (0, 0), BuildingBlock: UVAHIK_clean_linker_0, # of connection points: 2
#     Edge 16, Type (0, 0), BuildingBlock: UVAHIK_clean_linker_0, # of connection points: 2
#     Edge 17, Type (0, 0), BuildingBlock: UVAHIK_clean_linker_0, # of connection points: 2
#     Edge 18, Type (0, 0), BuildingBlock: UVAHIK_clean_linker_0, # of connection points: 2
#     Edge 19, Type (0, 0), BuildingBlock: UVAHIK_clean_linker_0, # of connection points: 2
#     Edge 20, Type (0, 0), BuildingBlock: UVAHIK_clean_linker_0, # of connection points: 2
#     Edge 21, Type (0, 0), BuildingBlock: UVAHIK_clean_linker_0, # of connection points: 2
#     Edge 22, Type (0, 0), BuildingBlock: UVAHIK_clean_linker_0, # of connection points: 2
#     Edge 23, Type (0, 0), BuildingBlock: UVAHIK_clean_linker_0, # of connection points: 2
# Relax obj value: 0.258
# Max RMSD: 0.258
# Mean RMSD: 0.258
data_MOF--net-wmb--node1-IZENUY_clean_sbu_0--edge1-UVAHIK_clean_linker_0
_symmetry_space_group_name_H-M    P1
_symmetry_Int_Tables_number       1
_symmetry_cell_setting            triclinic
loop_
_symmetry_equiv_pos_as_xyz
'x, y, z'
_cell_length_a     34.573617
_cell_length_b     34.586395
_cell_length_c     53.793221
_cell_angle_alpha  90.016625
_cell_angle_beta   89.808781
_cell_angle_gamma 120.02605
loop_
_atom_site_label
_atom_site_type_symbol
_atom_site_fract_x
_atom_site_fract_y
_atom_site_fract_z
_atom_type_partial_charge
Fe0 Fe 0.48199 0.16019 0.03452 0.0
Fe1 Fe 0.54992 0.14979 0.00274 0.0
O2 O 0.53007 0.18417 0.01508 0.0
Fe3 Fe 0.55872 0.24222 0.00838 0.0
O4 O 0.54819 0.25859 0.03896 0.0
O5 O 0.51376 0.19581 0.06024 0.0
O6 O 0.49233 0.11736 0.04764 0.0
C7 C 0.52818 0.11625 0.04974 0.0
C8 C 0.47227 0.22496 0.00681 0.0
O9 O 0.55895 0.13469 0.03377 0.0
C10 C 0.55969 0.20179 0.96239 0.0
O11 O 0.44701 0.12241 0.01015 0.0
O12 O 0.49457 0.10008 0.00043 0.0
O13 O 0.50897 0.23962 0.99541 0.0
O14 O 0.46274 0.19872 0.02512 0.0
C15 C 0.6304 0.22938 0.01382 0.0
O16 O 0.54225 0.16281 0.97123 0.0
O17 O 0.57414 0.23555 0.97655 0.0
C18 C 0.45593 0.09543 -0.00075 0.0
O19 O 0.60896 0.19292 0.00227 0.0
O20 O 0.61106 0.25013 0.02103 0.0
C21 C 0.53703 0.23788 0.05949 0.0
Fe22 Fe 0.85882 0.3985 0.67154 0.0
Fe23 Fe 0.76319 0.31926 0.67116 0.0
O24 O 0.81975 0.34298 0.68025 0.0
Fe25 Fe 0.83691 0.31122 0.69815 0.0
O26 O 0.85567 0.35146 0.72303 0.0
O27 O 0.8926 0.41161 0.70002 0.0
O28 O 0.82756 0.42058 0.68711 0.0
C29 C 0.78767 0.40903 0.68216 0.0
C30 C 0.91091 0.36088 0.6652 0.0
O31 O 0.7626 0.37229 0.67132 0.0
C32 C 0.77805 0.24513 0.66795 0.0
O33 O 0.83206 0.39522 0.64161 0.0
O34 O 0.77832 0.32519 0.63849 0.0
O35 O 0.89383 0.33712 0.68452 0.0
O36 O 0.89286 0.38076 0.65524 0.0
C37 C 0.75361 0.29102 0.71926 0.0
O38 O 0.75258 0.26157 0.66966 0.0
O39 O 0.81838 0.26774 0.6746 0.0
C40 C 0.80538 0.36208 0.62848 0.0
O41 O 0.74521 0.31236 0.70321 0.0
O42 O 0.78375 0.28091 0.71546 0.0
C43 C 0.88325 0.39255 0.72107 0.0
Fe44 Fe 0.70209 0.53497 0.36746 0.0
Fe45 Fe 0.61673 0.47148 0.33883 0.0
O46 O 0.67235 0.48859 0.34753 0.0
Fe47 Fe 0.69824 0.45876 0.33664 0.0
O48 O 0.70412 0.44376 0.36808 0.0
O49 O 0.73368 0.51197 0.38281 0.0
O50 O 0.66089 0.50865 0.3918 0.0
C51 C 0.6196 0.49421 0.38974 0.0
C52 C 0.76964 0.54905 0.33613 0.0
O53 O 0.60147 0.48713 0.36852 0.0
C54 C 0.65618 0.46105 0.29453 0.0
O55 O 0.67519 0.5659 0.35599 0.0
O56 O 0.63329 0.5253 0.32503 0.0
O57 O 0.7551 0.50735 0.33653 0.0
O58 O 0.74597 0.56448 0.34452 0.0
C59 C 0.60916 0.38978 0.34541 0.0
O60 O 0.62229 0.45287 0.30764 0.0
O61 O 0.69314 0.47163 0.30461 0.0
C62 C 0.65297 0.56192 0.3365 0.0
O63 O 0.59581 0.41611 0.35202 0.0
O64 O 0.64655 0.40455 0.33468 0.0
C65 C 0.72429 0.47172 0.38511 0.0
Fe66 Fe 0.25619 0.55984 0.99159 0.0
Fe67 Fe 0.18139 0.47954 0.96418 0.0
O68 O 0.19979 0.52888 0.98189 0.0
Fe69 Fe 0.16243 0.54797 0.9897 0.0
O70 O 0.19656 0.60096 0.97407 0.0
O71 O 0.25924 0.61449 0.99145 0.0
O72 O 0.27529 0.57054 0.95965 0.0
C73 C 0.26578 0.54054 0.94355 0.0
C74 C 0.21347 0.56235 0.03358 0.0
O75 O 0.23477 0.50065 0.94738 0.0
C76 C 0.10702 0.45848 0.99622 0.0
O77 O 0.2645 0.5115 0.99334 0.0
O78 O 0.19781 0.45342 0.98815 0.0
O79 O 0.18852 0.57056 0.01994 0.0
O80 O 0.23966 0.55083 0.02408 0.0
C81 C 0.13856 0.51738 0.94016 0.0
O82 O 0.12419 0.45047 0.9774 0.0
O83 O 0.12561 0.49675 0.00585 0.0
C84 C 0.23785 0.46986 0.99509 0.0
O85 O 0.16454 0.50186 0.93882 0.0
O86 O 0.1296 0.52849 0.96089 0.0
C87 C 0.23648 0.62798 0.97978 0.0
Fe88 Fe 0.45883 0.6944 0.65351 0.0
Fe89 Fe 0.53696 0.68979 0.62845 0.0
O90 O 0.4878 0.66522 0.64707 0.0
Fe91 Fe 0.46715 0.6105 0.65884 0.0
O92 O 0.4083 0.59489 0.65909 0.0
O93 O 0.40676 0.65015 0.64034 0.0
O94 O 0.4702 0.72172 0.62307 0.0
C95 C 0.483 0.71331 0.60273 0.0
C96 C 0.45647 0.6518 0.69937 0.0
O97 O 0.50695 0.69523 0.6023 0.0
C98 C 0.56083 0.64855 0.66334 0.0
O99 O 0.508 0.74159 0.66698 0.0
O100 O 0.55623 0.74733 0.63842 0.0
O101 O 0.47403 0.63028 0.69059 0.0
O102 O 0.44267 0.67168 0.68518 0.0
C103 C 0.49035 0.60032 0.61191 0.0
O104 O 0.57049 0.68541 0.65331 0.0
O105 O 0.52196 0.6152 0.66134 0.0
C106 C 0.54526 0.76397 0.65617 0.0
O107 O 0.52648 0.63686 0.61475 0.0
O108 O 0.45892 0.5876 0.62751 0.0
C109 C 0.38713 0.61004 0.64748 0.0
Fe110 Fe 0.31919 0.76917 0.32499 0.0
Fe111 Fe 0.31512 0.84139 0.29409 0.0
O112 O 0.345 0.82484 0.31396 0.0
Fe113 Fe 0.40075 0.86337 0.32245 0.0
O114 O 0.4214 0.82875 0.30918 0.0
O115 O 0.37086 0.76667 0.3268 0.0
O116 O 0.31302 0.74805 0.29356 0.0
C117 C 0.29289 0.75582 0.2765 0.0
C118 C 0.36182 0.81397 0.36691 0.0
O119 O 0.28357 0.78675 0.27874 0.0
C120 C 0.36456 0.91762 0.32498 0.0
O121 O 0.26232 0.76081 0.32514 0.0
O122 O 0.27131 0.82697 0.3171 0.0
O123 O 0.39549 0.83941 0.35359 0.0
O124 O 0.32467 0.78738 0.35706 0.0
C125 C 0.3975 0.88303 0.27161 0.0
O126 O 0.34201 0.89925 0.30559 0.0
O127 O 0.38446 0.90079 0.33631 0.0
C128 C 0.2475 0.78774 0.32529 0.0
O129 O 0.35617 0.8563 0.26964 0.0
O130 O 0.41577 0.89415 0.29278 0.0
C131 C 0.40801 0.78906 0.31579 0.0
C132 C 0.3037 0.45892 -0.00014 0.0
C133 C 0.25697 0.44029 -0.00056 0.0
C134 C 0.32279 0.43167 0.0001 0.0
C135 C 0.3085 0.32434 0.01692 0.0
H136 H 0.39277 0.34597 0.96357 0.0
C137 C 0.39816 0.22147 0.00939 0.0
C138 C 0.44304 0.24402 0.00159 0.0
C139 C 0.37182 0.24157 0.00727 0.0
C140 C 0.36987 0.33975 0.97882 0.0
H141 H 0.19377 0.37802 0.00035 0.0
H142 H 0.22759 0.33018 0.00167 0.0
H143 H 0.35408 0.38852 0.9653 0.0
H144 H 0.4952 0.30514 0.985 0.0
H145 H 0.45014 0.34088 0.98211 0.0
H146 H 0.32575 0.27735 0.03131 0.0
C147 C 0.24911 0.36612 0.00136 0.0
C148 C 0.34744 0.36397 0.97966 0.0
C149 C 0.22982 0.39349 0.00065 0.0
C150 C 0.46061 0.28665 0.99095 0.0
C151 C 0.43453 0.3071 0.98923 0.0
C152 C 0.3316 0.30063 0.01638 0.0
C153 C 0.29579 0.38505 0.00041 0.0
C154 C 0.31689 0.35684 -0.00117 0.0
C155 C 0.38987 0.28514 -0.00231 0.0
C156 C 0.36304 0.30832 -0.00256 0.0
H157 H 0.32585 0.49473 -0.00101 0.0
H158 H 0.35886 0.4471 -0.0003 0.0
H159 H 0.28532 0.31845 0.03199 0.0
H160 H 0.38352 0.18842 0.01752 0.0
H161 H 0.33739 0.22297 0.01342 0.0
C162 C 0.71073 0.16867 0.66463 0.0
C163 C 0.75754 0.19615 0.66379 0.0
C164 C 0.69085 0.12218 0.66425 0.0
C165 C 0.70459 0.02839 0.64581 0.0
H166 H 0.61921 0.96463 0.69849 0.0
C167 C 0.61849 0.83589 0.65368 0.0
C168 C 0.57352 0.81253 0.66133 0.0
C169 C 0.64374 0.88249 0.65562 0.0
C170 C 0.6424 0.98161 0.6834 0.0
H171 H 0.81991 0.19579 0.66071 0.0
H172 H 0.78476 0.11408 0.65923 0.0
H173 H 0.65711 0.04585 0.69697 0.0
H174 H 0.52012 0.82002 0.67742 0.0
H175 H 0.56329 0.90098 0.68004 0.0
H176 H 0.68868 0.96444 0.63149 0.0
C177 C 0.76374 0.12898 0.66055 0.0
C178 C 0.66435 0.02831 0.68265 0.0
C179 C 0.78382 0.17572 0.66138 0.0
C180 C 0.5548 0.83684 0.67162 0.0
C181 C 0.5798 0.88352 0.67317 0.0
C182 C 0.68203 0.98156 0.64628 0.0
C183 C 0.71708 0.10176 0.66259 0.0
C184 C 0.69545 0.05221 0.66377 0.0
C185 C 0.62453 0.90721 0.66486 0.0
C186 C 0.6503 0.95735 0.66501 0.0
H187 H 0.68926 0.18298 0.66652 0.0
H188 H 0.6548 0.10208 0.66551 0.0
H189 H 0.72817 0.04593 0.63094 0.0
H190 H 0.63405 0.81816 0.6458 0.0
H191 H 0.67828 0.89908 0.64961 0.0
C192 C 0.17041 0.72326 0.33212 0.0
C193 C 0.19889 0.76963 0.32945 0.0
C194 C 0.12411 0.70469 0.33205 0.0
C195 C 0.03101 0.72287 0.34306 0.0
H196 H 0.97041 0.62857 0.29449 0.0
C197 C 0.83757 0.6262 0.33363 0.0
C198 C 0.81773 0.5797 0.33054 0.0
C199 C 0.88397 0.654 0.33124 0.0
C200 C 0.9866 0.6545 0.30833 0.0
H201 H 0.20063 0.83303 0.32617 0.0
H202 H 0.11909 0.80022 0.32675 0.0
H203 H 0.05158 0.66806 0.29687 0.0
H204 H 0.83127 0.52637 0.32165 0.0
H205 H 0.91129 0.57412 0.31806 0.0
H206 H 0.96595 0.70795 0.35537 0.0
C207 C 0.13312 0.7785 0.32851 0.0
C208 C 0.03317 0.67726 0.30959 0.0
C209 C 0.17972 0.7972 0.3282 0.0
C210 C 0.84519 0.56198 0.32413 0.0
C211 C 0.89135 0.58958 0.3219 0.0
C212 C 0.98417 0.69957 0.34208 0.0
C213 C 0.10497 0.73195 0.3297 0.0
C214 C 0.0558 0.71105 0.32725 0.0
C215 C 0.91157 0.63593 0.32572 0.0
C216 C 0.96131 0.66439 0.32502 0.0
H217 H 0.18376 0.70089 0.33324 0.0
H218 H 0.10313 0.66874 0.33335 0.0
H219 H 0.04774 0.74881 0.35686 0.0
H220 H 0.81745 0.64104 0.33853 0.0
H221 H 0.89822 0.68959 0.33396 0.0
C222 C 0.40429 0.88952 0.22533 0.0
C223 C 0.42388 0.90423 0.24882 0.0
C224 C 0.42793 0.91046 0.20374 0.0
C225 C 0.51802 0.01801 0.18122 0.0
H226 H 0.49708 0.95108 0.12005 0.0
C227 C 0.56859 0.10419 0.08478 0.0
C228 C 0.53073 0.08839 0.06958 0.0
C229 C 0.56726 0.08026 0.10613 0.0
C230 C 0.50371 0.9702 0.13704 0.0
H231 H 0.48436 0.95177 0.26796 0.0
H232 H 0.52579 0.98851 0.23004 0.0
H233 H 0.47292 0.91138 0.15962 0.0
H234 H 0.46309 0.03446 0.06363 0.0
H235 H 0.46115 0.99227 0.10027 0.0
H236 H 0.54727 0.07674 0.15839 0.0
C237 C 0.49191 0.96088 0.22846 0.0
C238 C 0.48967 0.94752 0.15967 0.0
C239 C 0.46821 0.93975 0.25016 0.0
C240 C 0.49268 0.04727 0.07511 0.0
C241 C 0.4917 0.02303 0.09599 0.0
C242 C 0.53234 0.04074 0.15855 0.0
C243 C 0.47186 0.94668 0.205 0.0
C244 C 0.49489 0.97104 0.1819 0.0
C245 C 0.52847 0.03978 0.1121 0.0
C246 C 0.5236 0.0169 0.13616 0.0
H247 H 0.3703 0.86215 0.22356 0.0
H248 H 0.41112 0.89912 0.18604 0.0
H249 H 0.5224 0.03714 0.19797 0.0
H250 H 0.59814 0.13606 0.08091 0.0
H251 H 0.596 0.09387 0.1183 0.0
C252 C 0.89631 0.396 0.76686 0.0
C253 C 0.9078 0.41727 0.74355 0.0
C254 C 0.92084 0.41768 0.78798 0.0
C255 C 0.03274 0.50498 0.80641 0.0
H256 H 0.97742 0.47999 0.8717 0.0
C257 C 0.12563 0.50625 0.89438 0.0
C258 C 0.11541 0.51861 0.91731 0.0
C259 C 0.10218 0.50445 0.87298 0.0
C260 C 0.99352 0.48813 0.85364 0.0
H261 H 0.9531 0.47886 0.72437 0.0
H262 H 0.99596 0.51699 0.76148 0.0
H263 H 0.93079 0.45836 0.83476 0.0
H264 H 0.07371 0.5407 0.93545 0.0
H265 H 0.03283 0.53786 0.89787 0.0
H266 H 0.09547 0.53448 0.8253 0.0
C267 C 0.9682 0.48321 0.76325 0.0
C268 C 0.96672 0.47521 0.83244 0.0
C269 C 0.94355 0.46143 0.74202 0.0
C270 C 0.08218 0.5307 0.91813 0.0
C271 C 0.05866 0.52894 0.89662 0.0
C272 C 0.05956 0.51812 0.82762 0.0
C273 C 0.95745 0.46131 0.78642 0.0
C274 C 0.98594 0.48204 0.80861 0.0
C275 C 0.06798 0.51515 0.87386 0.0
C276 C 0.04019 0.50843 0.85148 0.0
H277 H 0.86883 0.36208 0.7688 0.0
H278 H 0.91201 0.39948 0.80539 0.0
H279 H 0.0487 0.51069 0.78837 0.0
H280 H 0.15119 0.49694 0.89299 0.0
H281 H 0.10982 0.49299 0.85591 0.0
C282 C 0.6128 0.49428 0.436 0.0
C283 C 0.59327 0.48947 0.4125 0.0
C284 C 0.58944 0.49235 0.45758 0.0
C285 C 0.50058 0.51203 0.47991 0.0
H286 H 0.52124 0.4667 0.54138 0.0
C287 C 0.4503 0.5485 0.57649 0.0
C288 C 0.48816 0.57061 0.59169 0.0
C289 C 0.45171 0.52611 0.55504 0.0
C290 C 0.5147 0.47903 0.52432 0.0
H291 H 0.53312 0.47741 0.39334 0.0
H292 H 0.49214 0.47402 0.43124 0.0
H293 H 0.54465 0.44989 0.50194 0.0
H294 H 0.55597 0.5847 0.59747 0.0
H295 H 0.55802 0.54479 0.56068 0.0
H296 H 0.47203 0.54248 0.50255 0.0
C297 C 0.52579 0.47964 0.43284 0.0
C298 C 0.52832 0.46967 0.50175 0.0
C299 C 0.54922 0.48144 0.41115 0.0
C300 C 0.52637 0.56792 0.58599 0.0
C301 C 0.52743 0.54486 0.56503 0.0
C302 C 0.48663 0.52113 0.50253 0.0
C303 C 0.54584 0.48549 0.4563 0.0
C304 C 0.5232 0.48769 0.47939 0.0
C305 C 0.49058 0.52464 0.54899 0.0
C306 C 0.49526 0.50624 0.52501 0.0
H307 H 0.64658 0.5003 0.4378 0.0
H308 H 0.60629 0.49781 0.47526 0.0
H309 H 0.49629 0.52661 0.46307 0.0
H310 H 0.42061 0.55049 0.58047 0.0
H311 H 0.42291 0.51083 0.54292 0.0
C312 C 0.38277 0.02493 0.00397 0.0
C313 C 0.42013 0.05286 0.98932 0.0
C314 C 0.35598 0.97972 -0.00219 0.0
C315 C 0.37001 0.89383 0.96517 0.0
H316 H 0.24597 0.81629 0.98348 0.0
C317 C 0.29869 0.70708 0.98358 0.0
C318 C 0.25485 0.67661 0.97609 0.0
C319 C 0.31546 0.75299 0.98162 0.0
C320 C 0.28048 0.83752 0.97793 0.0
H321 H 0.45656 0.05719 0.95568 0.0
H322 H 0.40863 0.9792 0.94414 0.0
H323 H 0.27802 0.89731 0.98496 0.0
H324 H 0.19455 0.67074 0.96014 0.0
H325 H 0.22417 0.75119 0.9565 0.0
H326 H 0.37266 0.83441 0.95813 0.0
C327 C 0.40076 0.99133 0.96087 0.0
C328 C 0.29897 0.88397 0.97903 0.0
C329 C 0.42791 0.03613 0.96728 0.0
C330 C 0.22845 0.69327 0.96613 0.0
C331 C 0.24529 0.73937 0.96419 0.0
C332 C 0.35155 0.84762 0.964 0.0
C333 C 0.36595 0.96197 0.97675 0.0
C334 C 0.34423 0.91273 0.97304 0.0
C335 C 0.28894 0.76977 0.97204 0.0
C336 C 0.30687 0.81885 0.97088 0.0
H337 H 0.37655 0.03702 0.02126 0.0
H338 H 0.32963 0.95817 0.01055 0.0
H339 H 0.40515 0.91466 0.96079 0.0
H340 H 0.31997 0.69553 0.99137 0.0
H341 H 0.34898 0.77539 0.9882 0.0
C342 C 0.31555 0.54129 0.65879 0.0
C343 C 0.33792 0.58127 0.64508 0.0
C344 C 0.26922 0.51426 0.65757 0.0
C345 C 0.16667 0.51686 0.64032 0.0
H346 H 0.11157 0.38848 0.64841 0.0
C347 C 0.97624 0.40263 0.63661 0.0
C348 C 0.95729 0.37444 0.65738 0.0
C349 C 0.02211 0.42363 0.63199 0.0
C350 C 0.12651 0.42428 0.64618 0.0
H351 H 0.32888 0.62361 0.61887 0.0
H352 H 0.24774 0.57563 0.61612 0.0
H353 H 0.19272 0.43422 0.64534 0.0
H354 H 0.9716 0.34363 0.68843 0.0
H355 H 0.05189 0.37985 0.68001 0.0
H356 H 0.10026 0.50663 0.64092 0.0
C357 C 0.2661 0.56573 0.62832 0.0
C358 C 0.17308 0.45064 0.64453 0.0
C359 C 0.31268 0.59319 0.62977 0.0
C360 C 0.98498 0.36508 0.67228 0.0
C361 C 0.03101 0.38589 0.66749 0.0
C362 C 0.12014 0.49043 0.64163 0.0
C363 C 0.24369 0.52597 0.64236 0.0
C364 C 0.1939 0.49744 0.64198 0.0
C365 C 0.05022 0.41663 0.64781 0.0
C366 C 0.09956 0.44392 0.64489 0.0
H367 H 0.33374 0.53111 0.67097 0.0
H368 H 0.2534 0.48464 0.66912 0.0
H369 H 0.18123 0.5527 0.63881 0.0
H370 H 0.95597 0.41033 0.62453 0.0
H371 H 0.03584 0.44648 0.61641 0.0
C372 C 0.48072 0.79443 0.30282 0.0
C373 C 0.43835 0.77042 0.31412 0.0
C374 C 0.5101 0.77754 0.303 0.0
C375 C 0.53485 0.70337 0.33952 0.0
H376 H 0.59615 0.69541 0.28093 0.0
C377 C 0.61756 0.59336 0.30848 0.0
C378 C 0.64242 0.59727 0.32994 0.0
C379 C 0.60082 0.62223 0.30453 0.0
C380 C 0.57942 0.6977 0.29745 0.0
H381 H 0.3932 0.70908 0.33367 0.0
H382 H 0.44432 0.68015 0.33409 0.0
H383 H 0.54892 0.7296 0.27783 0.0
H384 H 0.67198 0.63683 0.36312 0.0
H385 H 0.64265 0.68701 0.35621 0.0
H386 H 0.56415 0.67072 0.35909 0.0
C387 C 0.45501 0.71215 0.32532 0.0
C388 C 0.55265 0.71744 0.2957 0.0
C389 C 0.42563 0.72871 0.32495 0.0
C390 C 0.65271 0.63261 0.34648 0.0
C391 C 0.63572 0.66126 0.3426 0.0
C392 C 0.56187 0.68418 0.34133 0.0
C393 C 0.49776 0.73663 0.31471 0.0
C394 C 0.52937 0.71957 0.31664 0.0
C395 C 0.6084 0.65546 0.32202 0.0
C396 C 0.5839 0.68044 0.32026 0.0
H397 H 0.49149 0.82657 0.29422 0.0
H398 H 0.5429 0.79706 0.29467 0.0
H399 H 0.51767 0.70501 0.35602 0.0
H400 H 0.60927 0.56672 0.29526 0.0
H401 H 0.57975 0.6168 0.28854 0.0
C402 C 0.03311 0.38808 0.9898 0.0
C403 C 0.06043 0.4263 0.00402 0.0
C404 C 0.98708 0.36281 0.99454 0.0
C405 C 0.89696 0.37846 0.01877 0.0
H406 H 0.82569 0.24937 0.017 0.0
C407 C 0.70479 0.28749 0.03118 0.0
C408 C 0.67958 0.24974 0.01624 0.0
C409 C 0.75136 0.30689 0.03258 0.0
C410 C 0.84498 0.28549 0.01728 0.0
H411 H 0.06105 0.46576 0.03562 0.0
H412 H 0.98119 0.42188 0.0437 0.0
H413 H 0.90695 0.28559 0.01407 0.0
H414 H 0.68377 0.20281 0.99111 0.0
H415 H 0.76428 0.23717 0.99291 0.0
H416 H 0.83541 0.37882 0.02099 0.0
C417 C 0.9952 0.41187 0.02866 0.0
C418 C 0.89159 0.30617 0.0157 0.0
C419 C 0.04108 0.43686 0.02407 0.0
C420 C 0.70197 0.2317 0.00295 0.0
C421 C 0.74837 0.25128 0.00414 0.0
C422 C 0.8504 0.35786 0.02005 0.0
C423 C 0.96747 0.37541 0.0135 0.0
C424 C 0.91808 0.3529 0.01631 0.0
C425 C 0.77385 0.28926 0.01888 0.0
C426 C 0.82366 0.31107 0.01912 0.0
H427 H 0.04681 0.37896 0.97421 0.0
H428 H 0.96652 0.33486 0.98252 0.0
H429 H 0.91642 0.4146 0.01892 0.0
H430 H 0.68858 0.30204 0.04179 0.0
H431 H 0.76969 0.33569 0.04445 0.0
C432 C 0.6404 0.66425 0.66544 0.0
C433 C 0.59573 0.64013 0.67348 0.0
C434 C 0.6702 0.64913 0.67128 0.0
C435 C 0.67996 0.56274 0.70932 0.0
H436 H 0.75198 0.56361 0.6537 0.0
C437 C 0.72649 0.42668 0.68905 0.0
C438 C 0.77212 0.4415 0.68572 0.0
C439 C 0.71159 0.45743 0.69119 0.0
C440 C 0.73242 0.5636 0.66949 0.0
H441 H 0.54837 0.58361 0.6956 0.0
H442 H 0.59904 0.55693 0.7051 0.0
H443 H 0.71558 0.60849 0.65173 0.0
H444 H 0.83793 0.50011 0.68195 0.0
H445 H 0.81142 0.55378 0.68476 0.0
H446 H 0.69435 0.51508 0.72613 0.0
C447 C 0.61191 0.58765 0.6946 0.0
C448 C 0.71179 0.58959 0.66849 0.0
C449 C 0.58248 0.60278 0.68892 0.0
C450 C 0.80258 0.4877 0.68468 0.0
C451 C 0.78751 0.5184 0.68618 0.0
C452 C 0.69975 0.53604 0.71004 0.0
C453 C 0.65584 0.60968 0.68525 0.0
C454 C 0.68421 0.58857 0.68812 0.0
C455 C 0.74189 0.50349 0.68942 0.0
C456 C 0.72534 0.53554 0.68991 0.0
H457 H 0.65161 0.69318 0.65353 0.0
H458 H 0.70402 0.6675 0.66413 0.0
H459 H 0.66011 0.56194 0.72513 0.0
H460 H 0.70232 0.39131 0.68995 0.0
H461 H 0.67618 0.44519 0.69353 0.0
C462 C 0.58966 0.31189 0.33438 0.0
C463 C 0.57847 0.34081 0.34675 0.0
C464 C 0.55992 0.26601 0.33393 0.0
C465 C 0.46567 0.17359 0.36574 0.0
H466 H 0.44768 0.11522 0.30179 0.0
C467 C 0.36288 0.98788 0.31572 0.0
C468 C 0.37501 0.96349 0.33164 0.0
C469 C 0.37949 0.03349 0.3196 0.0
C470 C 0.45172 0.13098 0.31974 0.0
H471 H 0.52768 0.34378 0.36912 0.0
H472 H 0.47571 0.26295 0.36857 0.0
H473 H 0.49385 0.19609 0.3045 0.0
H474 H 0.41119 0.96724 0.36531 0.0
H475 H 0.44016 0.04671 0.37197 0.0
H476 H 0.42428 0.10806 0.38103 0.0
C477 C 0.50756 0.27624 0.3591 0.0
C478 C 0.47859 0.17728 0.32132 0.0
C479 C 0.53724 0.32245 0.35934 0.0
C480 C 0.40143 0.98505 0.35255 0.0
C481 C 0.41786 0.03061 0.35648 0.0
C482 C 0.43902 0.12704 0.3642 0.0
C483 C 0.51837 0.24771 0.34601 0.0
C484 C 0.48651 0.19901 0.34437 0.0
C485 C 0.40835 0.05565 0.33956 0.0
C486 C 0.43228 0.10519 0.3412 0.0
H487 H 0.62113 0.32472 0.32456 0.0
H488 H 0.56945 0.24474 0.32404 0.0
H489 H 0.4713 0.18952 0.38375 0.0
H490 H 0.34234 0.97233 0.29954 0.0
H491 H 0.371 0.05177 0.30646 0.0
C492 C 0.54375 0.24241 0.10597 0.0
C493 C 0.55007 0.26383 0.08289 0.0
C494 C 0.55753 0.26731 0.12791 0.0
C495 C 0.58388 0.37559 0.1547 0.0
H496 H 0.64634 0.34666 0.20449 0.0
C497 C 0.68229 0.4448 0.25437 0.0
C498 C 0.6498 0.44928 0.26782 0.0
C499 C 0.67323 0.427 0.23037 0.0
C500 C 0.62938 0.35547 0.19064 0.0
H501 H 0.57554 0.32826 0.06481 0.0
H502 H 0.59936 0.37148 0.10308 0.0
H503 H 0.62343 0.30451 0.16573 0.0
H504 H 0.58348 0.44131 0.26596 0.0
H505 H 0.56786 0.41043 0.22412 0.0
H506 H 0.58969 0.42646 0.17971 0.0
C507 C 0.58357 0.33546 0.1042 0.0
C508 C 0.61577 0.33096 0.1686 0.0
C509 C 0.57009 0.31064 0.08227 0.0
C510 C 0.60915 0.43807 0.25618 0.0
C511 C 0.60025 0.42055 0.23214 0.0
C512 C 0.59724 0.39992 0.17683 0.0
C513 C 0.57766 0.3141 0.12723 0.0
C514 C 0.59266 0.34059 0.15046 0.0
C515 C 0.63171 0.4137 0.21926 0.0
C516 C 0.61995 0.38997 0.19508 0.0
H517 H 0.52856 0.20643 0.1071 0.0
H518 H 0.55213 0.24991 0.14544 0.0
H519 H 0.5659 0.3836 0.14111 0.0
H520 H 0.71402 0.45326 0.26272 0.0
H521 H 0.69837 0.4227 0.22071 0.0
C522 C 0.55382 0.17162 0.91932 0.0
C523 C 0.56954 0.20844 0.93543 0.0
C524 C 0.56699 0.17764 0.89438 0.0
C525 C 0.62039 0.2636 0.8449 0.0
H526 H 0.65595 0.18159 0.81856 0.0
C527 C 0.73884 0.25772 0.76199 0.0
C528 C 0.72662 0.27611 0.74233 0.0
C529 C 0.71485 0.2461 0.78431 0.0
C530 C 0.64634 0.20488 0.82567 0.0
H531 H 0.61001 0.28063 0.93767 0.0
H532 H 0.63349 0.291 0.89439 0.0
H533 H 0.62242 0.16876 0.85978 0.0
H534 H 0.67879 0.29557 0.73047 0.0
H535 H 0.63651 0.27449 0.76921 0.0
H536 H 0.6462 0.30086 0.81127 0.0
C537 C 0.61055 0.2575 0.9009 0.0
C538 C 0.62652 0.19719 0.84917 0.0
C539 C 0.59725 0.25152 0.9258 0.0
C540 C 0.68928 0.2817 0.74529 0.0
C541 C 0.66516 0.26985 0.76756 0.0
C542 C 0.64036 0.27138 0.82144 0.0
C543 C 0.59623 0.22057 0.88501 0.0
C544 C 0.61384 0.22678 0.8592 0.0
C545 C 0.67797 0.2524 0.78744 0.0
C546 C 0.65409 0.24243 0.81167 0.0
H547 H 0.53207 0.13798 0.92608 0.0
H548 H 0.55471 0.14856 0.88251 0.0
H549 H 0.61053 0.28674 0.85194 0.0
H550 H 0.7676 0.25325 0.76038 0.0
H551 H 0.72605 0.23336 0.79937 0.0
C552 C 0.71811 0.4126 0.41441 0.0
C553 C 0.73815 0.45792 0.40779 0.0
C554 C 0.72815 0.40005 0.43712 0.0
C555 C 0.77133 0.44705 0.49919 0.0
H556 H 0.7787 0.3397 0.50853 0.0
C557 C 0.82954 0.41144 0.59106 0.0
C558 C 0.80183 0.36913 0.60165 0.0
C559 C 0.82386 0.41996 0.56644 0.0
C560 C 0.77645 0.36961 0.50614 0.0
H561 H 0.7862 0.52542 0.4191 0.0
H562 H 0.80469 0.50355 0.45823 0.0
H563 H 0.76595 0.3596 0.46687 0.0
H564 H 0.74796 0.30186 0.59418 0.0
H565 H 0.73815 0.31696 0.55088 0.0
H566 H 0.78218 0.45733 0.53829 0.0
C567 C 0.78017 0.47771 0.44632 0.0
C568 C 0.76909 0.38099 0.48235 0.0
C569 C 0.76978 0.49026 0.4238 0.0
C570 C 0.76966 0.33488 0.58663 0.0
C571 C 0.76415 0.34342 0.56184 0.0
C572 C 0.77904 0.43591 0.52281 0.0
C573 C 0.75871 0.43257 0.45354 0.0
C574 C 0.76668 0.42001 0.47861 0.0
C575 C 0.79054 0.38636 0.55175 0.0
C576 C 0.7819 0.39726 0.52652 0.0
H577 H 0.69344 0.38692 0.40247 0.0
H578 H 0.71075 0.36503 0.44218 0.0
H579 H 0.76843 0.47664 0.49715 0.0
H580 H 0.85503 0.43851 0.60195 0.0
H581 H 0.84515 0.45317 0.55898 0.0
C582 C 0.33038 0.59357 0.91685 0.0
C583 C 0.29138 0.55187 0.92 0.0
C584 C 0.35243 0.60549 0.8939 0.0
C585 C 0.32965 0.58362 0.82781 0.0
H586 H 0.45818 0.63922 0.82004 0.0
C587 C 0.4163 0.66193 0.73533 0.0
C588 C 0.44523 0.64765 0.72619 0.0
C589 C 0.40125 0.65327 0.7599 0.0
C590 C 0.42226 0.62369 0.82199 0.0
H591 H 0.24555 0.48965 0.90166 0.0
H592 H 0.28391 0.51068 0.86162 0.0
H593 H 0.42439 0.61585 0.86145 0.0
H594 H 0.48307 0.61535 0.73615 0.0
H595 H 0.45688 0.60056 0.77922 0.0
H596 H 0.32729 0.59138 0.78851 0.0
C597 C 0.29731 0.53409 0.87692 0.0
C598 C 0.403 0.61056 0.84563 0.0
C599 C 0.27554 0.52197 0.89989 0.0
C600 C 0.46058 0.62656 0.74256 0.0
C601 C 0.44578 0.61825 0.76724 0.0
C602 C 0.34889 0.59719 0.8043 0.0
C603 C 0.3356 0.57617 0.87361 0.0
C604 C 0.35647 0.59017 0.84871 0.0
C605 C 0.4151 0.63055 0.77594 0.0
C606 C 0.39534 0.61729 0.80113 0.0
H607 H 0.34346 0.61735 0.93198 0.0
H608 H 0.38174 0.63824 0.8918 0.0
H609 H 0.29374 0.56842 0.82968 0.0
H610 H 0.40397 0.67846 0.72331 0.0
H611 H 0.37807 0.66365 0.76625 0.0
C612 C 0.48334 0.71692 0.55609 0.0
C613 C 0.47051 0.72623 0.57913 0.0
C614 C 0.47036 0.72815 0.53391 0.0
C615 C 0.38677 0.75358 0.50795 0.0
H616 H 0.47163 0.80414 0.4536 0.0
C617 C 0.33818 0.77182 0.40729 0.0
C618 C 0.36904 0.80938 0.3936 0.0
C619 C 0.34877 0.76412 0.43119 0.0
C620 C 0.44764 0.7905 0.46868 0.0
H621 H 0.43399 0.75481 0.59686 0.0
H622 H 0.4119 0.77475 0.55822 0.0
H623 H 0.49452 0.78578 0.4925 0.0
H624 H 0.4337 0.87004 0.39499 0.0
H625 H 0.45171 0.85695 0.43669 0.0
H626 H 0.34002 0.75878 0.48412 0.0
C627 C 0.43152 0.75828 0.5573 0.0
C628 C 0.46061 0.77942 0.49087 0.0
C629 C 0.44451 0.74712 0.57946 0.0
C630 C 0.40942 0.84045 0.40489 0.0
C631 C 0.4199 0.83282 0.42874 0.0
C632 C 0.37374 0.76461 0.48571 0.0
C633 C 0.44421 0.74887 0.53428 0.0
C634 C 0.43033 0.76075 0.51074 0.0
C635 C 0.39032 0.79391 0.44186 0.0
C636 C 0.40407 0.78321 0.46583 0.0
H637 H 0.50309 0.7006 0.55515 0.0
H638 H 0.48023 0.71997 0.51645 0.0
H639 H 0.36252 0.73885 0.52284 0.0
H640 H 0.30679 0.74722 0.39913 0.0
H641 H 0.3253 0.73374 0.44078 0.0
C642 C 0.18938 0.58892 0.07048 0.0
C643 C 0.2165 0.57318 0.06039 0.0
C644 C 0.19478 0.60347 0.09504 0.0
C645 C 0.24035 0.60008 0.15596 0.0
H646 H 0.25023 0.71611 0.16413 0.0
C647 C 0.29862 0.7022 0.24747 0.0
C648 C 0.27911 0.7281 0.2538 0.0
C649 C 0.28864 0.67944 0.22481 0.0
C650 C 0.24681 0.68335 0.16232 0.0
H651 H 0.26899 0.55816 0.06868 0.0
H652 H 0.27833 0.58371 0.11185 0.0
H653 H 0.23667 0.68252 0.12313 0.0
H654 H 0.23212 0.74857 0.24196 0.0
H655 H 0.21377 0.70796 0.20288 0.0
H656 H 0.25019 0.60087 0.19531 0.0
C657 C 0.25298 0.58476 0.10056 0.0
C658 C 0.2392 0.66419 0.13877 0.0
C659 C 0.24774 0.57033 0.07584 0.0
C660 C 0.2481 0.72932 0.2375 0.0
C661 C 0.2378 0.70625 0.21501 0.0
C662 C 0.24763 0.61915 0.17967 0.0
C663 C 0.22724 0.60246 0.11017 0.0
C664 C 0.23568 0.62231 0.13534 0.0
C665 C 0.25869 0.68186 0.20811 0.0
C666 C 0.25074 0.66096 0.18312 0.0
H667 H 0.16459 0.5911 0.05925 0.0
H668 H 0.17395 0.61622 0.10211 0.0
H669 H 0.23758 0.56765 0.15381 0.0
H670 H 0.32281 0.70079 0.25962 0.0
H671 H 0.30562 0.6613 0.22 0.0
loop_
_geom_bond_atom_site_label_1
_geom_bond_atom_site_label_2
_geom_bond_distance
_geom_bond_site_symmetry_2
_ccdc_geom_bond_type
Fe0 O2 1.918 . S
Fe0 O5 1.997 . S
Fe0 O6 2.002 . S
Fe0 O11 1.976 . S
Fe0 O14 1.996 . S
Fe1 O2 1.918 . S
Fe1 O9 1.997 . S
Fe1 O12 1.996 . S
Fe1 O16 1.976 1_554 S
Fe1 O19 2.002 . S
O2 Fe0 1.918 . S
O2 Fe1 1.918 . S
O2 Fe3 1.918 . S
Fe3 O2 1.918 . S
Fe3 O4 2.002 . S
Fe3 O13 1.976 . S
Fe3 O17 1.996 1_554 S
Fe3 O20 1.997 . S
O4 Fe3 2.002 . S
O4 C21 1.295 . S
O5 Fe0 1.997 . S
O5 C21 1.235 . S
O6 Fe0 2.002 . S
O6 C7 1.295 . S
C7 O6 1.295 . S
C7 O9 1.235 . S
C8 O13 1.287 . S
C8 O14 1.255 . S
O9 Fe1 1.997 . S
O9 C7 1.235 . S
C10 O16 1.287 . S
C10 O17 1.255 . S
O11 Fe0 1.976 . S
O11 C18 1.287 . S
O12 Fe1 1.996 . S
O12 C18 1.255 . S
O13 Fe3 1.976 . S
O13 C8 1.287 . S
O14 Fe0 1.996 . S
O14 C8 1.255 . S
C15 O19 1.295 . S
C15 O20 1.235 . S
O16 Fe1 1.976 1_556 S
O16 C10 1.287 . S
O17 Fe3 1.996 1_556 S
O17 C10 1.255 . S
C18 O11 1.287 . S
C18 O12 1.255 . S
O19 Fe1 2.002 . S
O19 C15 1.295 . S
O20 Fe3 1.997 . S
O20 C15 1.235 . S
C21 O4 1.295 . S
C21 O5 1.235 . S
Fe22 O24 1.918 . S
Fe22 O27 1.997 . S
Fe22 O28 2.002 . S
Fe22 O33 1.976 . S
Fe22 O36 1.996 . S
Fe23 O24 1.918 . S
Fe23 O31 1.997 . S
Fe23 O34 1.996 . S
Fe23 O38 1.976 . S
Fe23 O41 2.002 . S
O24 Fe22 1.918 . S
O24 Fe23 1.918 . S
O24 Fe25 1.918 . S
Fe25 O24 1.918 . S
Fe25 O26 2.002 . S
Fe25 O35 1.976 . S
Fe25 O39 1.996 . S
Fe25 O42 1.997 . S
O26 Fe25 2.002 . S
O26 C43 1.295 . S
O27 Fe22 1.997 . S
O27 C43 1.235 . S
O28 Fe22 2.002 . S
O28 C29 1.295 . S
C29 O28 1.295 . S
C29 O31 1.235 . S
C30 O35 1.287 . S
C30 O36 1.255 . S
O31 Fe23 1.997 . S
O31 C29 1.235 . S
C32 O38 1.287 . S
C32 O39 1.255 . S
O33 Fe22 1.976 . S
O33 C40 1.287 . S
O34 Fe23 1.996 . S
O34 C40 1.255 . S
O35 Fe25 1.976 . S
O35 C30 1.287 . S
O36 Fe22 1.996 . S
O36 C30 1.255 . S
C37 O41 1.295 . S
C37 O42 1.235 . S
O38 Fe23 1.976 . S
O38 C32 1.287 . S
O39 Fe25 1.996 . S
O39 C32 1.255 . S
C40 O33 1.287 . S
C40 O34 1.255 . S
O41 Fe23 2.002 . S
O41 C37 1.295 . S
O42 Fe25 1.997 . S
O42 C37 1.235 . S
C43 O26 1.295 . S
C43 O27 1.235 . S
Fe44 O46 1.918 . S
Fe44 O49 1.997 . S
Fe44 O50 2.002 . S
Fe44 O55 1.976 . S
Fe44 O58 1.996 . S
Fe45 O46 1.918 . S
Fe45 O53 1.997 . S
Fe45 O56 1.996 . S
Fe45 O60 1.976 . S
Fe45 O63 2.002 . S
O46 Fe44 1.918 . S
O46 Fe45 1.918 . S
O46 Fe47 1.918 . S
Fe47 O46 1.918 . S
Fe47 O48 2.002 . S
Fe47 O57 1.976 . S
Fe47 O61 1.996 . S
Fe47 O64 1.997 . S
O48 Fe47 2.002 . S
O48 C65 1.295 . S
O49 Fe44 1.997 . S
O49 C65 1.235 . S
O50 Fe44 2.002 . S
O50 C51 1.295 . S
C51 O50 1.295 . S
C51 O53 1.235 . S
C52 O57 1.287 . S
C52 O58 1.255 . S
O53 Fe45 1.997 . S
O53 C51 1.235 . S
C54 O60 1.287 . S
C54 O61 1.255 . S
O55 Fe44 1.976 . S
O55 C62 1.287 . S
O56 Fe45 1.996 . S
O56 C62 1.255 . S
O57 Fe47 1.976 . S
O57 C52 1.287 . S
O58 Fe44 1.996 . S
O58 C52 1.255 . S
C59 O63 1.295 . S
C59 O64 1.235 . S
O60 Fe45 1.976 . S
O60 C54 1.287 . S
O61 Fe47 1.996 . S
O61 C54 1.255 . S
C62 O55 1.287 . S
C62 O56 1.255 . S
O63 Fe45 2.002 . S
O63 C59 1.295 . S
O64 Fe47 1.997 . S
O64 C59 1.235 . S
C65 O48 1.295 . S
C65 O49 1.235 . S
Fe66 O68 1.918 . S
Fe66 O71 1.997 . S
Fe66 O72 2.002 . S
Fe66 O77 1.976 . S
Fe66 O80 1.996 1_556 S
Fe67 O68 1.918 . S
Fe67 O75 1.997 . S
Fe67 O78 1.996 . S
Fe67 O82 1.976 . S
Fe67 O85 2.002 . S
O68 Fe66 1.918 . S
O68 Fe67 1.918 . S
O68 Fe69 1.918 . S
Fe69 O68 1.918 . S
Fe69 O70 2.002 . S
Fe69 O79 1.976 1_556 S
Fe69 O83 1.996 . S
Fe69 O86 1.997 . S
O70 Fe69 2.002 . S
O70 C87 1.295 . S
O71 Fe66 1.997 . S
O71 C87 1.235 . S
O72 Fe66 2.002 . S
O72 C73 1.295 . S
C73 O72 1.295 . S
C73 O75 1.235 . S
C74 O79 1.287 . S
C74 O80 1.255 . S
O75 Fe67 1.997 . S
O75 C73 1.235 . S
C76 O82 1.287 . S
C76 O83 1.255 . S
O77 Fe66 1.976 . S
O77 C84 1.287 . S
O78 Fe67 1.996 . S
O78 C84 1.255 . S
O79 Fe69 1.976 1_554 S
O79 C74 1.287 . S
O80 Fe66 1.996 1_554 S
O80 C74 1.255 . S
C81 O85 1.295 . S
C81 O86 1.235 . S
O82 Fe67 1.976 . S
O82 C76 1.287 . S
O83 Fe69 1.996 . S
O83 C76 1.255 . S
C84 O77 1.287 . S
C84 O78 1.255 . S
O85 Fe67 2.002 . S
O85 C81 1.295 . S
O86 Fe69 1.997 . S
O86 C81 1.235 . S
C87 O70 1.295 . S
C87 O71 1.235 . S
Fe88 O90 1.918 . S
Fe88 O93 1.997 . S
Fe88 O94 2.002 . S
Fe88 O99 1.976 . S
Fe88 O102 1.996 . S
Fe89 O90 1.918 . S
Fe89 O97 1.997 . S
Fe89 O100 1.996 . S
Fe89 O104 1.976 . S
Fe89 O107 2.002 . S
O90 Fe88 1.918 . S
O90 Fe89 1.918 . S
O90 Fe91 1.918 . S
Fe91 O90 1.918 . S
Fe91 O92 2.002 . S
Fe91 O101 1.976 . S
Fe91 O105 1.996 . S
Fe91 O108 1.997 . S
O92 Fe91 2.002 . S
O92 C109 1.295 . S
O93 Fe88 1.997 . S
O93 C109 1.235 . S
O94 Fe88 2.002 . S
O94 C95 1.295 . S
C95 O94 1.295 . S
C95 O97 1.235 . S
C96 O101 1.287 . S
C96 O102 1.255 . S
O97 Fe89 1.997 . S
O97 C95 1.235 . S
C98 O104 1.287 . S
C98 O105 1.255 . S
O99 Fe88 1.976 . S
O99 C106 1.287 . S
O100 Fe89 1.996 . S
O100 C106 1.255 . S
O101 Fe91 1.976 . S
O101 C96 1.287 . S
O102 Fe88 1.996 . S
O102 C96 1.255 . S
C103 O107 1.295 . S
C103 O108 1.235 . S
O104 Fe89 1.976 . S
O104 C98 1.287 . S
O105 Fe91 1.996 . S
O105 C98 1.255 . S
C106 O99 1.287 . S
C106 O100 1.255 . S
O107 Fe89 2.002 . S
O107 C103 1.295 . S
O108 Fe91 1.997 . S
O108 C103 1.235 . S
C109 O92 1.295 . S
C109 O93 1.235 . S
Fe110 O112 1.918 . S
Fe110 O115 1.997 . S
Fe110 O116 2.002 . S
Fe110 O121 1.976 . S
Fe110 O124 1.996 . S
Fe111 O112 1.918 . S
Fe111 O119 1.997 . S
Fe111 O122 1.996 . S
Fe111 O126 1.976 . S
Fe111 O129 2.002 . S
O112 Fe110 1.918 . S
O112 Fe111 1.918 . S
O112 Fe113 1.918 . S
Fe113 O112 1.918 . S
Fe113 O114 2.002 . S
Fe113 O123 1.976 . S
Fe113 O127 1.996 . S
Fe113 O130 1.997 . S
O114 Fe113 2.002 . S
O114 C131 1.295 . S
O115 Fe110 1.997 . S
O115 C131 1.235 . S
O116 Fe110 2.002 . S
O116 C117 1.295 . S
C117 O116 1.295 . S
C117 O119 1.235 . S
C118 O123 1.287 . S
C118 O124 1.255 . S
O119 Fe111 1.997 . S
O119 C117 1.235 . S
C120 O126 1.287 . S
C120 O127 1.255 . S
O121 Fe110 1.976 . S
O121 C128 1.287 . S
O122 Fe111 1.996 . S
O122 C128 1.255 . S
O123 Fe113 1.976 . S
O123 C118 1.287 . S
O124 Fe110 1.996 . S
O124 C118 1.255 . S
C125 O129 1.295 . S
C125 O130 1.235 . S
O126 Fe111 1.976 . S
O126 C120 1.287 . S
O127 Fe113 1.996 . S
O127 C120 1.255 . S
C128 O121 1.287 . S
C128 O122 1.255 . S
O129 Fe111 2.002 . S
O129 C125 1.295 . S
O130 Fe113 1.997 . S
O130 C125 1.235 . S
C131 O114 1.295 . S
C131 O115 1.235 . S
C132 C133 1.349 . S
C132 C134 1.327 . S
C132 H157 0.950 . S
C133 C132 1.349 . S
C133 C149 1.349 1_556 S
C134 C132 1.327 . S
C134 C153 1.429 . S
C134 H158 0.950 . S
C135 C152 1.574 . S
C135 C154 1.368 1_554 S
C135 H159 0.949 . S
H136 C140 0.949 . S
C137 C138 1.349 . S
C137 C139 1.327 . S
C137 H160 0.950 . S
C138 C137 1.349 . S
C138 C150 1.349 1_554 S
C139 C137 1.327 . S
C139 C155 1.429 . S
C139 H161 0.950 . S
C140 H136 0.949 . S
C140 C148 1.574 . S
C140 C156 1.368 1_556 S
H141 C149 0.950 . S
H142 C147 0.950 . S
H143 C148 0.949 . S
H144 C150 0.950 . S
H145 C151 0.950 . S
H146 C152 0.949 . S
C147 H142 0.950 . S
C147 C149 1.327 . S
C147 C153 1.429 1_554 S
C148 C140 1.574 . S
C148 H143 0.949 . S
C148 C154 1.368 . S
C149 C133 1.349 1_554 S
C149 H141 0.950 . S
C149 C147 1.327 . S
C150 C138 1.349 1_556 S
C150 H144 0.950 . S
C150 C151 1.327 . S
C151 H145 0.950 . S
C151 C150 1.327 . S
C151 C155 1.429 1_556 S
C152 C135 1.574 . S
C152 H146 0.949 . S
C152 C156 1.368 . S
C153 C134 1.429 . S
C153 C147 1.429 1_556 S
C153 C154 1.523 . S
C154 C135 1.368 1_556 S
C154 C148 1.368 . S
C154 C153 1.523 . S
C155 C139 1.429 . S
C155 C151 1.429 1_554 S
C155 C156 1.523 . S
C156 C140 1.368 1_554 S
C156 C152 1.368 . S
C156 C155 1.523 . S
H157 C132 0.950 . S
H158 C134 0.950 . S
H159 C135 0.949 . S
H160 C137 0.950 . S
H161 C139 0.950 . S
C162 C163 1.349 . S
C162 C164 1.327 . S
C162 H187 0.950 . S
C163 C162 1.349 . S
C163 C179 1.349 . S
C164 C162 1.327 . S
C164 C183 1.429 . S
C164 H188 0.950 . S
C165 C182 1.574 1_545 S
C165 C184 1.368 . S
C165 H189 0.949 . S
H166 C170 0.949 . S
C167 C168 1.349 . S
C167 C169 1.327 . S
C167 H190 0.950 . S
C168 C167 1.349 . S
C168 C180 1.349 . S
C169 C167 1.327 . S
C169 C185 1.429 . S
C169 H191 0.950 . S
C170 H166 0.949 . S
C170 C178 1.574 1_565 S
C170 C186 1.368 . S
H171 C179 0.950 . S
H172 C177 0.950 . S
H173 C178 0.949 . S
H174 C180 0.950 . S
H175 C181 0.950 . S
H176 C182 0.949 . S
C177 H172 0.950 . S
C177 C179 1.327 . S
C177 C183 1.429 . S
C178 C170 1.574 1_545 S
C178 H173 0.949 . S
C178 C184 1.368 . S
C179 C163 1.349 . S
C179 H171 0.950 . S
C179 C177 1.327 . S
C180 C168 1.349 . S
C180 H174 0.950 . S
C180 C181 1.327 . S
C181 H175 0.950 . S
C181 C180 1.327 . S
C181 C185 1.429 . S
C182 C165 1.574 1_565 S
C182 H176 0.949 . S
C182 C186 1.368 . S
C183 C164 1.429 . S
C183 C177 1.429 . S
C183 C184 1.523 . S
C184 C165 1.368 . S
C184 C178 1.368 . S
C184 C183 1.523 . S
C185 C169 1.429 . S
C185 C181 1.429 . S
C185 C186 1.523 . S
C186 C170 1.368 . S
C186 C182 1.368 . S
C186 C185 1.523 . S
H187 C162 0.950 . S
H188 C164 0.950 . S
H189 C165 0.949 . S
H190 C167 0.950 . S
H191 C169 0.950 . S
C192 C193 1.349 . S
C192 C194 1.327 . S
C192 H217 0.950 . S
C193 C192 1.349 . S
C193 C209 1.349 . S
C194 C192 1.327 . S
C194 C213 1.429 . S
C194 H218 0.950 . S
C195 C212 1.574 1_455 S
C195 C214 1.368 . S
C195 H219 0.949 . S
H196 C200 0.949 . S
C197 C198 1.349 . S
C197 C199 1.327 . S
C197 H220 0.950 . S
C198 C197 1.349 . S
C198 C210 1.349 . S
C199 C197 1.327 . S
C199 C215 1.429 . S
C199 H221 0.950 . S
C200 H196 0.949 . S
C200 C208 1.574 1_655 S
C200 C216 1.368 . S
H201 C209 0.950 . S
H202 C207 0.950 . S
H203 C208 0.949 . S
H204 C210 0.950 . S
H205 C211 0.950 . S
H206 C212 0.949 . S
C207 H202 0.950 . S
C207 C209 1.327 . S
C207 C213 1.429 . S
C208 C200 1.574 1_455 S
C208 H203 0.949 . S
C208 C214 1.368 . S
C209 C193 1.349 . S
C209 H201 0.950 . S
C209 C207 1.327 . S
C210 C198 1.349 . S
C210 H204 0.950 . S
C210 C211 1.327 . S
C211 H205 0.950 . S
C211 C210 1.327 . S
C211 C215 1.429 . S
C212 C195 1.574 1_655 S
C212 H206 0.949 . S
C212 C216 1.368 . S
C213 C194 1.429 . S
C213 C207 1.429 . S
C213 C214 1.523 . S
C214 C195 1.368 . S
C214 C208 1.368 . S
C214 C213 1.523 . S
C215 C199 1.429 . S
C215 C211 1.429 . S
C215 C216 1.523 . S
C216 C200 1.368 . S
C216 C212 1.368 . S
C216 C215 1.523 . S
H217 C192 0.950 . S
H218 C194 0.950 . S
H219 C195 0.949 . S
H220 C197 0.950 . S
H221 C199 0.950 . S
C222 C223 1.349 . S
C222 C224 1.327 . S
C222 H247 0.950 . S
C223 C222 1.349 . S
C223 C239 1.349 . S
C224 C222 1.327 . S
C224 C243 1.429 . S
C224 H248 0.950 . S
C225 C242 1.574 . S
C225 C244 1.368 1_545 S
C225 H249 0.949 . S
H226 C230 0.949 . S
C227 C228 1.349 . S
C227 C229 1.327 . S
C227 H250 0.950 . S
C228 C227 1.349 . S
C228 C240 1.349 . S
C229 C227 1.327 . S
C229 C245 1.429 . S
C229 H251 0.950 . S
C230 H226 0.949 . S
C230 C238 1.574 . S
C230 C246 1.368 1_565 S
H231 C239 0.950 . S
H232 C237 0.950 . S
H233 C238 0.949 . S
H234 C240 0.950 . S
H235 C241 0.950 . S
H236 C242 0.949 . S
C237 H232 0.950 . S
C237 C239 1.327 . S
C237 C243 1.429 . S
C238 C230 1.574 . S
C238 H233 0.949 . S
C238 C244 1.368 . S
C239 C223 1.349 . S
C239 H231 0.950 . S
C239 C237 1.327 . S
C240 C228 1.349 . S
C240 H234 0.950 . S
C240 C241 1.327 . S
C241 H235 0.950 . S
C241 C240 1.327 . S
C241 C245 1.429 . S
C242 C225 1.574 . S
C242 H236 0.949 . S
C242 C246 1.368 . S
C243 C224 1.429 . S
C243 C237 1.429 . S
C243 C244 1.523 . S
C244 C225 1.368 1_565 S
C244 C238 1.368 . S
C244 C243 1.523 . S
C245 C229 1.429 . S
C245 C241 1.429 . S
C245 C246 1.523 . S
C246 C230 1.368 1_545 S
C246 C242 1.368 . S
C246 C245 1.523 . S
H247 C222 0.950 . S
H248 C224 0.950 . S
H249 C225 0.949 . S
H250 C227 0.950 . S
H251 C229 0.950 . S
C252 C253 1.349 . S
C252 C254 1.327 . S
C252 H277 0.950 . S
C253 C252 1.349 . S
C253 C269 1.349 . S
C254 C252 1.327 . S
C254 C273 1.429 . S
C254 H278 0.950 . S
C255 C272 1.574 1_655 S
C255 C274 1.368 . S
C255 H279 0.949 . S
H256 C260 0.949 . S
C257 C258 1.349 . S
C257 C259 1.327 . S
C257 H280 0.950 . S
C258 C257 1.349 . S
C258 C270 1.349 . S
C259 C257 1.327 . S
C259 C275 1.429 . S
C259 H281 0.950 . S
C260 H256 0.949 . S
C260 C268 1.574 1_455 S
C260 C276 1.368 . S
H261 C269 0.950 . S
H262 C267 0.950 . S
H263 C268 0.949 . S
H264 C270 0.950 . S
H265 C271 0.950 . S
H266 C272 0.949 . S
C267 H262 0.950 . S
C267 C269 1.327 . S
C267 C273 1.429 . S
C268 C260 1.574 1_655 S
C268 H263 0.949 . S
C268 C274 1.368 . S
C269 C253 1.349 . S
C269 H261 0.950 . S
C269 C267 1.327 . S
C270 C258 1.349 . S
C270 H264 0.950 . S
C270 C271 1.327 . S
C271 H265 0.950 . S
C271 C270 1.327 . S
C271 C275 1.429 . S
C272 C255 1.574 1_455 S
C272 H266 0.949 . S
C272 C276 1.368 . S
C273 C254 1.429 . S
C273 C267 1.429 . S
C273 C274 1.523 . S
C274 C255 1.368 . S
C274 C268 1.368 . S
C274 C273 1.523 . S
C275 C259 1.429 . S
C275 C271 1.429 . S
C275 C276 1.523 . S
C276 C260 1.368 . S
C276 C272 1.368 . S
C276 C275 1.523 . S
H277 C252 0.950 . S
H278 C254 0.950 . S
H279 C255 0.949 . S
H280 C257 0.950 . S
H281 C259 0.950 . S
C282 C283 1.349 . S
C282 C284 1.327 . S
C282 H307 0.950 . S
C283 C282 1.349 . S
C283 C299 1.349 . S
C284 C282 1.327 . S
C284 C303 1.429 . S
C284 H308 0.950 . S
C285 C302 1.574 . S
C285 C304 1.368 . S
C285 H309 0.949 . S
H286 C290 0.949 . S
C287 C288 1.349 . S
C287 C289 1.327 . S
C287 H310 0.950 . S
C288 C287 1.349 . S
C288 C300 1.349 . S
C289 C287 1.327 . S
C289 C305 1.429 . S
C289 H311 0.950 . S
C290 H286 0.949 . S
C290 C298 1.574 . S
C290 C306 1.368 . S
H291 C299 0.950 . S
H292 C297 0.950 . S
H293 C298 0.949 . S
H294 C300 0.950 . S
H295 C301 0.950 . S
H296 C302 0.949 . S
C297 H292 0.950 . S
C297 C299 1.327 . S
C297 C303 1.429 . S
C298 C290 1.574 . S
C298 H293 0.949 . S
C298 C304 1.368 . S
C299 C283 1.349 . S
C299 H291 0.950 . S
C299 C297 1.327 . S
C300 C288 1.349 . S
C300 H294 0.950 . S
C300 C301 1.327 . S
C301 H295 0.950 . S
C301 C300 1.327 . S
C301 C305 1.429 . S
C302 C285 1.574 . S
C302 H296 0.949 . S
C302 C306 1.368 . S
C303 C284 1.429 . S
C303 C297 1.429 . S
C303 C304 1.523 . S
C304 C285 1.368 . S
C304 C298 1.368 . S
C304 C303 1.523 . S
C305 C289 1.429 . S
C305 C301 1.429 . S
C305 C306 1.523 . S
C306 C290 1.368 . S
C306 C302 1.368 . S
C306 C305 1.523 . S
H307 C282 0.950 . S
H308 C284 0.950 . S
H309 C285 0.949 . S
H310 C287 0.950 . S
H311 C289 0.950 . S
C312 C313 1.349 . S
C312 C314 1.327 1_545 S
C312 H337 0.950 . S
C313 C312 1.349 . S
C313 C329 1.349 1_554 S
C314 C312 1.327 1_565 S
C314 C333 1.429 1_554 S
C314 H338 0.950 . S
C315 C332 1.574 . S
C315 C334 1.368 . S
C315 H339 0.949 . S
H316 C320 0.957 . S
C317 C318 1.349 . S
C317 C319 1.327 . S
C317 H340 0.950 . S
C318 C317 1.349 . S
C318 C330 1.349 . S
C319 C317 1.327 . S
C319 C335 1.429 . S
C319 H341 0.950 . S
C320 H316 0.957 . S
C320 C328 1.577 . S
C320 C336 1.357 1_554 S
H321 C329 0.950 . S
H322 C327 0.950 . S
H323 C328 0.949 . S
H324 C330 0.950 . S
H325 C331 0.950 1_554 S
H326 C332 0.949 . S
C327 H322 0.950 . S
C327 C329 1.327 1_565 S
C327 C333 1.429 . S
C328 C320 1.577 . S
C328 H323 0.949 . S
C328 C334 1.368 1_554 S
C329 C313 1.349 1_556 S
C329 H321 0.950 . S
C329 C327 1.327 1_545 S
C330 C318 1.349 . S
C330 H324 0.950 . S
C330 C331 1.327 . S
C331 H325 0.950 1_556 S
C331 C330 1.327 . S
C331 C335 1.429 . S
C332 C315 1.574 . S
C332 H326 0.949 . S
C332 C336 1.368 . S
C333 C314 1.429 1_556 S
C333 C327 1.429 . S
C333 C334 1.523 . S
C334 C315 1.368 . S
C334 C328 1.368 1_556 S
C334 C333 1.523 . S
C335 C319 1.429 . S
C335 C331 1.429 . S
C335 C336 1.523 . S
C336 C320 1.357 1_556 S
C336 C332 1.368 . S
C336 C335 1.523 . S
H337 C312 0.950 . S
H338 C314 0.950 . S
H339 C315 0.949 . S
H340 C317 0.950 . S
H341 C319 0.950 . S
C342 C343 1.349 . S
C342 C344 1.327 . S
C342 H367 0.950 . S
C343 C342 1.349 . S
C343 C359 1.349 . S
C344 C342 1.327 . S
C344 C363 1.429 . S
C344 H368 0.950 . S
C345 C362 1.574 . S
C345 C364 1.368 . S
C345 H369 0.949 . S
H346 C350 0.949 . S
C347 C348 1.349 . S
C347 C349 1.327 1_655 S
C347 H370 0.950 . S
C348 C347 1.349 . S
C348 C360 1.349 . S
C349 C347 1.327 1_455 S
C349 C365 1.429 . S
C349 H371 0.950 . S
C350 H346 0.949 . S
C350 C358 1.574 . S
C350 C366 1.368 . S
H351 C359 0.950 . S
H352 C357 0.950 . S
H353 C358 0.949 . S
H354 C360 0.950 . S
H355 C361 0.950 . S
H356 C362 0.949 . S
C357 H352 0.950 . S
C357 C359 1.327 . S
C357 C363 1.429 . S
C358 C350 1.574 . S
C358 H353 0.949 . S
C358 C364 1.368 . S
C359 C343 1.349 . S
C359 H351 0.950 . S
C359 C357 1.327 . S
C360 C348 1.349 . S
C360 H354 0.950 . S
C360 C361 1.327 1_655 S
C361 H355 0.950 . S
C361 C360 1.327 1_455 S
C361 C365 1.429 . S
C362 C345 1.574 . S
C362 H356 0.949 . S
C362 C366 1.368 . S
C363 C344 1.429 . S
C363 C357 1.429 . S
C363 C364 1.523 . S
C364 C345 1.368 . S
C364 C358 1.368 . S
C364 C363 1.523 . S
C365 C349 1.429 . S
C365 C361 1.429 . S
C365 C366 1.523 . S
C366 C350 1.368 . S
C366 C362 1.368 . S
C366 C365 1.523 . S
H367 C342 0.950 . S
H368 C344 0.950 . S
H369 C345 0.949 . S
H370 C347 0.950 . S
H371 C349 0.950 . S
C372 C373 1.349 . S
C372 C374 1.327 . S
C372 H397 0.950 . S
C373 C372 1.349 . S
C373 C389 1.349 . S
C374 C372 1.327 . S
C374 C393 1.429 . S
C374 H398 0.950 . S
C375 C392 1.574 . S
C375 C394 1.368 . S
C375 H399 0.949 . S
H376 C380 0.949 . S
C377 C378 1.349 . S
C377 C379 1.327 . S
C377 H400 0.950 . S
C378 C377 1.349 . S
C378 C390 1.349 . S
C379 C377 1.327 . S
C379 C395 1.429 . S
C379 H401 0.950 . S
C380 H376 0.949 . S
C380 C388 1.574 . S
C380 C396 1.368 . S
H381 C389 0.950 . S
H382 C387 0.950 . S
H383 C388 0.949 . S
H384 C390 0.950 . S
H385 C391 0.950 . S
H386 C392 0.949 . S
C387 H382 0.950 . S
C387 C389 1.327 . S
C387 C393 1.429 . S
C388 C380 1.574 . S
C388 H383 0.949 . S
C388 C394 1.368 . S
C389 C373 1.349 . S
C389 H381 0.950 . S
C389 C387 1.327 . S
C390 C378 1.349 . S
C390 H384 0.950 . S
C390 C391 1.327 . S
C391 H385 0.950 . S
C391 C390 1.327 . S
C391 C395 1.429 . S
C392 C375 1.574 . S
C392 H386 0.949 . S
C392 C396 1.368 . S
C393 C374 1.429 . S
C393 C387 1.429 . S
C393 C394 1.523 . S
C394 C375 1.368 . S
C394 C388 1.368 . S
C394 C393 1.523 . S
C395 C379 1.429 . S
C395 C391 1.429 . S
C395 C396 1.523 . S
C396 C380 1.368 . S
C396 C392 1.368 . S
C396 C395 1.523 . S
H397 C372 0.950 . S
H398 C374 0.950 . S
H399 C375 0.949 . S
H400 C377 0.950 . S
H401 C379 0.950 . S
C402 C403 1.349 . S
C402 C404 1.327 1_455 S
C402 H427 0.950 . S
C403 C402 1.349 . S
C403 C419 1.349 1_556 S
C404 C402 1.327 1_655 S
C404 C423 1.429 1_556 S
C404 H428 0.950 . S
C405 C422 1.574 . S
C405 C424 1.368 . S
C405 H429 0.949 . S
H406 C410 0.949 1_556 S
C407 C408 1.349 . S
C407 C409 1.327 . S
C407 H430 0.950 . S
C408 C407 1.349 . S
C408 C420 1.349 . S
C409 C407 1.327 . S
C409 C425 1.429 . S
C409 H431 0.950 . S
C410 H406 0.949 1_554 S
C410 C418 1.574 1_554 S
C410 C426 1.368 . S
H411 C419 0.950 . S
H412 C417 0.950 . S
H413 C418 0.949 . S
H414 C420 0.950 . S
H415 C421 0.950 . S
H416 C422 0.949 . S
C417 H412 0.950 . S
C417 C419 1.327 1_655 S
C417 C423 1.429 . S
C418 C410 1.574 1_556 S
C418 H413 0.949 . S
C418 C424 1.368 1_556 S
C419 C403 1.349 1_554 S
C419 H411 0.950 . S
C419 C417 1.327 1_455 S
C420 C408 1.349 . S
C420 H414 0.950 . S
C420 C421 1.327 . S
C421 H415 0.950 . S
C421 C420 1.327 . S
C421 C425 1.429 . S
C422 C405 1.574 . S
C422 H416 0.949 . S
C422 C426 1.368 . S
C423 C404 1.429 1_554 S
C423 C417 1.429 . S
C423 C424 1.523 . S
C424 C405 1.368 . S
C424 C418 1.368 1_554 S
C424 C423 1.523 . S
C425 C409 1.429 . S
C425 C421 1.429 . S
C425 C426 1.523 . S
C426 C410 1.368 . S
C426 C422 1.368 . S
C426 C425 1.523 . S
H427 C402 0.950 . S
H428 C404 0.950 . S
H429 C405 0.949 . S
H430 C407 0.950 . S
H431 C409 0.950 . S
C432 C433 1.349 . S
C432 C434 1.327 . S
C432 H457 0.950 . S
C433 C432 1.349 . S
C433 C449 1.349 . S
C434 C432 1.327 . S
C434 C453 1.429 . S
C434 H458 0.950 . S
C435 C452 1.574 . S
C435 C454 1.368 . S
C435 H459 0.949 . S
H436 C440 0.949 . S
C437 C438 1.349 . S
C437 C439 1.327 . S
C437 H460 0.950 . S
C438 C437 1.349 . S
C438 C450 1.349 . S
C439 C437 1.327 . S
C439 C455 1.429 . S
C439 H461 0.950 . S
C440 H436 0.949 . S
C440 C448 1.574 . S
C440 C456 1.368 . S
H441 C449 0.950 . S
H442 C447 0.950 . S
H443 C448 0.949 . S
H444 C450 0.950 . S
H445 C451 0.950 . S
H446 C452 0.949 . S
C447 H442 0.950 . S
C447 C449 1.327 . S
C447 C453 1.429 . S
C448 C440 1.574 . S
C448 H443 0.949 . S
C448 C454 1.368 . S
C449 C433 1.349 . S
C449 H441 0.950 . S
C449 C447 1.327 . S
C450 C438 1.349 . S
C450 H444 0.950 . S
C450 C451 1.327 . S
C451 H445 0.950 . S
C451 C450 1.327 . S
C451 C455 1.429 . S
C452 C435 1.574 . S
C452 H446 0.949 . S
C452 C456 1.368 . S
C453 C434 1.429 . S
C453 C447 1.429 . S
C453 C454 1.523 . S
C454 C435 1.368 . S
C454 C448 1.368 . S
C454 C453 1.523 . S
C455 C439 1.429 . S
C455 C451 1.429 . S
C455 C456 1.523 . S
C456 C440 1.368 . S
C456 C452 1.368 . S
C456 C455 1.523 . S
H457 C432 0.950 . S
H458 C434 0.950 . S
H459 C435 0.949 . S
H460 C437 0.950 . S
H461 C439 0.950 . S
C462 C463 1.349 . S
C462 C464 1.327 . S
C462 H487 0.950 . S
C463 C462 1.349 . S
C463 C479 1.349 . S
C464 C462 1.327 . S
C464 C483 1.429 . S
C464 H488 0.950 . S
C465 C482 1.574 . S
C465 C484 1.368 . S
C465 H489 0.949 . S
H466 C470 0.949 . S
C467 C468 1.349 . S
C467 C469 1.327 1_565 S
C467 H490 0.950 . S
C468 C467 1.349 . S
C468 C480 1.349 . S
C469 C467 1.327 1_545 S
C469 C485 1.429 . S
C469 H491 0.950 . S
C470 H466 0.949 . S
C470 C478 1.574 . S
C470 C486 1.368 . S
H471 C479 0.950 . S
H472 C477 0.950 . S
H473 C478 0.949 . S
H474 C480 0.950 . S
H475 C481 0.950 . S
H476 C482 0.949 . S
C477 H472 0.950 . S
C477 C479 1.327 . S
C477 C483 1.429 . S
C478 C470 1.574 . S
C478 H473 0.949 . S
C478 C484 1.368 . S
C479 C463 1.349 . S
C479 H471 0.950 . S
C479 C477 1.327 . S
C480 C468 1.349 . S
C480 H474 0.950 . S
C480 C481 1.327 1_565 S
C481 H475 0.950 . S
C481 C480 1.327 1_545 S
C481 C485 1.429 . S
C482 C465 1.574 . S
C482 H476 0.949 . S
C482 C486 1.368 . S
C483 C464 1.429 . S
C483 C477 1.429 . S
C483 C484 1.523 . S
C484 C465 1.368 . S
C484 C478 1.368 . S
C484 C483 1.523 . S
C485 C469 1.429 . S
C485 C481 1.429 . S
C485 C486 1.523 . S
C486 C470 1.368 . S
C486 C482 1.368 . S
C486 C485 1.523 . S
H487 C462 0.950 . S
H488 C464 0.950 . S
H489 C465 0.949 . S
H490 C467 0.950 . S
H491 C469 0.950 . S
C492 C493 1.349 . S
C492 C494 1.327 . S
C492 H517 0.950 . S
C493 C492 1.349 . S
C493 C509 1.349 . S
C494 C492 1.327 . S
C494 C513 1.429 . S
C494 H518 0.950 . S
C495 C512 1.574 . S
C495 C514 1.368 . S
C495 H519 0.949 . S
H496 C500 0.949 . S
C497 C498 1.349 . S
C497 C499 1.327 . S
C497 H520 0.950 . S
C498 C497 1.349 . S
C498 C510 1.349 . S
C499 C497 1.327 . S
C499 C515 1.429 . S
C499 H521 0.950 . S
C500 H496 0.949 . S
C500 C508 1.574 . S
C500 C516 1.368 . S
H501 C509 0.950 . S
H502 C507 0.950 . S
H503 C508 0.949 . S
H504 C510 0.950 . S
H505 C511 0.950 . S
H506 C512 0.949 . S
C507 H502 0.950 . S
C507 C509 1.327 . S
C507 C513 1.429 . S
C508 C500 1.574 . S
C508 H503 0.949 . S
C508 C514 1.368 . S
C509 C493 1.349 . S
C509 H501 0.950 . S
C509 C507 1.327 . S
C510 C498 1.349 . S
C510 H504 0.950 . S
C510 C511 1.327 . S
C511 H505 0.950 . S
C511 C510 1.327 . S
C511 C515 1.429 . S
C512 C495 1.574 . S
C512 H506 0.949 . S
C512 C516 1.368 . S
C513 C494 1.429 . S
C513 C507 1.429 . S
C513 C514 1.523 . S
C514 C495 1.368 . S
C514 C508 1.368 . S
C514 C513 1.523 . S
C515 C499 1.429 . S
C515 C511 1.429 . S
C515 C516 1.523 . S
C516 C500 1.368 . S
C516 C512 1.368 . S
C516 C515 1.523 . S
H517 C492 0.950 . S
H518 C494 0.950 . S
H519 C495 0.949 . S
H520 C497 0.950 . S
H521 C499 0.950 . S
C522 C523 1.349 . S
C522 C524 1.327 . S
C522 H547 0.950 . S
C523 C522 1.349 . S
C523 C539 1.349 . S
C524 C522 1.327 . S
C524 C543 1.429 . S
C524 H548 0.950 . S
C525 C542 1.574 . S
C525 C544 1.368 . S
C525 H549 0.949 . S
H526 C530 0.949 . S
C527 C528 1.349 . S
C527 C529 1.327 . S
C527 H550 0.950 . S
C528 C527 1.349 . S
C528 C540 1.349 . S
C529 C527 1.327 . S
C529 C545 1.429 . S
C529 H551 0.950 . S
C530 H526 0.949 . S
C530 C538 1.574 . S
C530 C546 1.368 . S
H531 C539 0.950 . S
H532 C537 0.950 . S
H533 C538 0.949 . S
H534 C540 0.950 . S
H535 C541 0.950 . S
H536 C542 0.949 . S
C537 H532 0.950 . S
C537 C539 1.327 . S
C537 C543 1.429 . S
C538 C530 1.574 . S
C538 H533 0.949 . S
C538 C544 1.368 . S
C539 C523 1.349 . S
C539 H531 0.950 . S
C539 C537 1.327 . S
C540 C528 1.349 . S
C540 H534 0.950 . S
C540 C541 1.327 . S
C541 H535 0.950 . S
C541 C540 1.327 . S
C541 C545 1.429 . S
C542 C525 1.574 . S
C542 H536 0.949 . S
C542 C546 1.368 . S
C543 C524 1.429 . S
C543 C537 1.429 . S
C543 C544 1.523 . S
C544 C525 1.368 . S
C544 C538 1.368 . S
C544 C543 1.523 . S
C545 C529 1.429 . S
C545 C541 1.429 . S
C545 C546 1.523 . S
C546 C530 1.368 . S
C546 C542 1.368 . S
C546 C545 1.523 . S
H547 C522 0.950 . S
H548 C524 0.950 . S
H549 C525 0.949 . S
H550 C527 0.950 . S
H551 C529 0.950 . S
C552 C553 1.349 . S
C552 C554 1.327 . S
C552 H577 0.950 . S
C553 C552 1.349 . S
C553 C569 1.349 . S
C554 C552 1.327 . S
C554 C573 1.429 . S
C554 H578 0.950 . S
C555 C572 1.574 . S
C555 C574 1.368 . S
C555 H579 0.949 . S
H556 C560 0.949 . S
C557 C558 1.349 . S
C557 C559 1.327 . S
C557 H580 0.950 . S
C558 C557 1.349 . S
C558 C570 1.349 . S
C559 C557 1.327 . S
C559 C575 1.429 . S
C559 H581 0.950 . S
C560 H556 0.949 . S
C560 C568 1.574 . S
C560 C576 1.368 . S
H561 C569 0.950 . S
H562 C567 0.950 . S
H563 C568 0.949 . S
H564 C570 0.950 . S
H565 C571 0.950 . S
H566 C572 0.949 . S
C567 H562 0.950 . S
C567 C569 1.327 . S
C567 C573 1.429 . S
C568 C560 1.574 . S
C568 H563 0.949 . S
C568 C574 1.368 . S
C569 C553 1.349 . S
C569 H561 0.950 . S
C569 C567 1.327 . S
C570 C558 1.349 . S
C570 H564 0.950 . S
C570 C571 1.327 . S
C571 H565 0.950 . S
C571 C570 1.327 . S
C571 C575 1.429 . S
C572 C555 1.574 . S
C572 H566 0.949 . S
C572 C576 1.368 . S
C573 C554 1.429 . S
C573 C567 1.429 . S
C573 C574 1.523 . S
C574 C555 1.368 . S
C574 C568 1.368 . S
C574 C573 1.523 . S
C575 C559 1.429 . S
C575 C571 1.429 . S
C575 C576 1.523 . S
C576 C560 1.368 . S
C576 C572 1.368 . S
C576 C575 1.523 . S
H577 C552 0.950 . S
H578 C554 0.950 . S
H579 C555 0.949 . S
H580 C557 0.950 . S
H581 C559 0.950 . S
C582 C583 1.349 . S
C582 C584 1.327 . S
C582 H607 0.950 . S
C583 C582 1.349 . S
C583 C599 1.349 . S
C584 C582 1.327 . S
C584 C603 1.429 . S
C584 H608 0.950 . S
C585 C602 1.574 . S
C585 C604 1.368 . S
C585 H609 0.949 . S
H586 C590 0.949 . S
C587 C588 1.349 . S
C587 C589 1.327 . S
C587 H610 0.950 . S
C588 C587 1.349 . S
C588 C600 1.349 . S
C589 C587 1.327 . S
C589 C605 1.429 . S
C589 H611 0.950 . S
C590 H586 0.949 . S
C590 C598 1.574 . S
C590 C606 1.368 . S
H591 C599 0.950 . S
H592 C597 0.950 . S
H593 C598 0.949 . S
H594 C600 0.950 . S
H595 C601 0.950 . S
H596 C602 0.949 . S
C597 H592 0.950 . S
C597 C599 1.327 . S
C597 C603 1.429 . S
C598 C590 1.574 . S
C598 H593 0.949 . S
C598 C604 1.368 . S
C599 C583 1.349 . S
C599 H591 0.950 . S
C599 C597 1.327 . S
C600 C588 1.349 . S
C600 H594 0.950 . S
C600 C601 1.327 . S
C601 H595 0.950 . S
C601 C600 1.327 . S
C601 C605 1.429 . S
C602 C585 1.574 . S
C602 H596 0.949 . S
C602 C606 1.368 . S
C603 C584 1.429 . S
C603 C597 1.429 . S
C603 C604 1.523 . S
C604 C585 1.368 . S
C604 C598 1.368 . S
C604 C603 1.523 . S
C605 C589 1.429 . S
C605 C601 1.429 . S
C605 C606 1.523 . S
C606 C590 1.368 . S
C606 C602 1.368 . S
C606 C605 1.523 . S
H607 C582 0.950 . S
H608 C584 0.950 . S
H609 C585 0.949 . S
H610 C587 0.950 . S
H611 C589 0.950 . S
C612 C613 1.349 . S
C612 C614 1.327 . S
C612 H637 0.950 . S
C613 C612 1.349 . S
C613 C629 1.349 . S
C614 C612 1.327 . S
C614 C633 1.429 . S
C614 H638 0.950 . S
C615 C632 1.574 . S
C615 C634 1.368 . S
C615 H639 0.949 . S
H616 C620 0.949 . S
C617 C618 1.349 . S
C617 C619 1.327 . S
C617 H640 0.950 . S
C618 C617 1.349 . S
C618 C630 1.349 . S
C619 C617 1.327 . S
C619 C635 1.429 . S
C619 H641 0.950 . S
C620 H616 0.949 . S
C620 C628 1.574 . S
C620 C636 1.368 . S
H621 C629 0.950 . S
H622 C627 0.950 . S
H623 C628 0.949 . S
H624 C630 0.950 . S
H625 C631 0.950 . S
H626 C632 0.949 . S
C627 H622 0.950 . S
C627 C629 1.327 . S
C627 C633 1.429 . S
C628 C620 1.574 . S
C628 H623 0.949 . S
C628 C634 1.368 . S
C629 C613 1.349 . S
C629 H621 0.950 . S
C629 C627 1.327 . S
C630 C618 1.349 . S
C630 H624 0.950 . S
C630 C631 1.327 . S
C631 H625 0.950 . S
C631 C630 1.327 . S
C631 C635 1.429 . S
C632 C615 1.574 . S
C632 H626 0.949 . S
C632 C636 1.368 . S
C633 C614 1.429 . S
C633 C627 1.429 . S
C633 C634 1.523 . S
C634 C615 1.368 . S
C634 C628 1.368 . S
C634 C633 1.523 . S
C635 C619 1.429 . S
C635 C631 1.429 . S
C635 C636 1.523 . S
C636 C620 1.368 . S
C636 C632 1.368 . S
C636 C635 1.523 . S
H637 C612 0.950 . S
H638 C614 0.950 . S
H639 C615 0.949 . S
H640 C617 0.950 . S
H641 C619 0.950 . S
C642 C643 1.349 . S
C642 C644 1.327 . S
C642 H667 0.950 . S
C643 C642 1.349 . S
C643 C659 1.349 . S
C644 C642 1.327 . S
C644 C663 1.429 . S
C644 H668 0.950 . S
C645 C662 1.574 . S
C645 C664 1.368 . S
C645 H669 0.949 . S
H646 C650 0.949 . S
C647 C648 1.349 . S
C647 C649 1.327 . S
C647 H670 0.950 . S
C648 C647 1.349 . S
C648 C660 1.349 . S
C649 C647 1.327 . S
C649 C665 1.429 . S
C649 H671 0.950 . S
C650 H646 0.949 . S
C650 C658 1.574 . S
C650 C666 1.368 . S
H651 C659 0.950 . S
H652 C657 0.950 . S
H653 C658 0.949 . S
H654 C660 0.950 . S
H655 C661 0.950 . S
H656 C662 0.949 . S
C657 H652 0.950 . S
C657 C659 1.327 . S
C657 C663 1.429 . S
C658 C650 1.574 . S
C658 H653 0.949 . S
C658 C664 1.368 . S
C659 C643 1.349 . S
C659 H651 0.950 . S
C659 C657 1.327 . S
C660 C648 1.349 . S
C660 H654 0.950 . S
C660 C661 1.327 . S
C661 H655 0.950 . S
C661 C660 1.327 . S
C661 C665 1.429 . S
C662 C645 1.574 . S
C662 H656 0.949 . S
C662 C666 1.368 . S
C663 C644 1.429 . S
C663 C657 1.429 . S
C663 C664 1.523 . S
C664 C645 1.368 . S
C664 C658 1.368 . S
C664 C663 1.523 . S
C665 C649 1.429 . S
C665 C661 1.429 . S
C665 C666 1.523 . S
C666 C650 1.368 . S
C666 C662 1.368 . S
C666 C665 1.523 . S
H667 C642 0.950 . S
H668 C644 0.950 . S
H669 C645 0.949 . S
H670 C647 0.950 . S
H671 C649 0.950 . S
C133 C84 1.882 . S
C138 C8 1.882 . S
C163 C32 1.882 . S
C168 C106 1.882 . S
C193 C128 1.882 . S
C198 C52 1.882 . S
C223 C125 0.659 . S
C228 C7 0.659 . S
C253 C43 0.659 . S
C258 C81 0.659 . S
C283 C51 0.659 . S
C288 C103 0.659 . S
C313 C18 1.324 . S
C318 C87 1.325 . S
C343 C109 1.325 . S
C348 C30 1.324 . S
C373 C131 1.325 . S
C378 C62 1.324 . S
C403 C76 1.324 . S
C408 C15 1.325 . S
C433 C98 1.324 . S
C438 C29 1.325 . S
C463 C59 1.325 . S
C468 C120 1.324 . S
C493 C21 1.205 . S
C498 C54 1.199 . S
C523 C10 1.199 . S
C528 C37 1.205 . S
C553 C65 1.205 . S
C558 C40 1.198 . S
C583 C73 1.205 . S
C588 C96 1.199 . S
C613 C95 1.205 . S
C618 C118 1.198 . S
C643 C74 1.199 . S
C648 C117 1.205 . S
