# Generated by pormake.
# Topology unn, (4)-cn, num edge types: 1
# Building blocks:
#     Node 0, Type 0, BuildingBlock: NAWXER_clean_sbu_0, # of connection points: 4
#     Node 1, Type 0, BuildingBlock: NAWXER_clean_sbu_0, # of connection points: 4
#     Node 2, Type 0, BuildingBlock: NAWXER_clean_sbu_0, # of connection points: 4
#     Node 3, Type 0, BuildingBlock: NAWXER_clean_sbu_0, # of connection points: 4
#     Node 4, Type 0, BuildingBlock: NAWXER_clean_sbu_0, # of connection points: 4
#     Node 5, Type 0, BuildingBlock: NAWXER_clean_sbu_0, # of connection points: 4
#     Node 6, Type 0, BuildingBlock: NAWXER_clean_sbu_0, # of connection points: 4
#     Node 7, Type 0, BuildingBlock: NAWXER_clean_sbu_0, # of connection points: 4
#     Node 8, Type 0, BuildingBlock: NAWXER_clean_sbu_0, # of connection points: 4
#     Node 9, Type 0, BuildingBlock: NAWXER_clean_sbu_0, # of connection points: 4
#     Node 10, Type 0, BuildingBlock: NAWXER_clean_sbu_0, # of connection points: 4
#     Node 11, Type 0, BuildingBlock: NAWXER_clean_sbu_0, # of connection points: 4
#     Node 12, Type 0, BuildingBlock: NAWXER_clean_sbu_0, # of connection points: 4
#     Node 13, Type 0, BuildingBlock: NAWXER_clean_sbu_0, # of connection points: 4
#     Node 14, Type 0, BuildingBlock: NAWXER_clean_sbu_0, # of connection points: 4
#     Node 15, Type 0, BuildingBlock: NAWXER_clean_sbu_0, # of connection points: 4
#     Node 16, Type 0, BuildingBlock: NAWXER_clean_sbu_0, # of connection points: 4
#     Node 17, Type 0, BuildingBlock: NAWXER_clean_sbu_0, # of connection points: 4
#     Edge 18, Type (0, 0), BuildingBlock: XIVTED_clean_linker_0, # of connection points: 2
#     Edge 19, Type (0, 0), BuildingBlock: XIVTED_clean_linker_0, # of connection points: 2
#     Edge 20, Type (0, 0), BuildingBlock: XIVTED_clean_linker_0, # of connection points: 2
#     Edge 21, Type (0, 0), BuildingBlock: XIVTED_clean_linker_0, # of connection points: 2
#     Edge 22, Type (0, 0), BuildingBlock: XIVTED_clean_linker_0, # of connection points: 2
#     Edge 23, Type (0, 0), BuildingBlock: XIVTED_clean_linker_0, # of connection points: 2
#     Edge 24, Type (0, 0), BuildingBlock: XIVTED_clean_linker_0, # of connection points: 2
#     Edge 25, Type (0, 0), BuildingBlock: XIVTED_clean_linker_0, # of connection points: 2
#     Edge 26, Type (0, 0), BuildingBlock: XIVTED_clean_linker_0, # of connection points: 2
#     Edge 27, Type (0, 0), BuildingBlock: XIVTED_clean_linker_0, # of connection points: 2
#     Edge 28, Type (0, 0), BuildingBlock: XIVTED_clean_linker_0, # of connection points: 2
#     Edge 29, Type (0, 0), BuildingBlock: XIVTED_clean_linker_0, # of connection points: 2
#     Edge 30, Type (0, 0), BuildingBlock: XIVTED_clean_linker_0, # of connection points: 2
#     Edge 31, Type (0, 0), BuildingBlock: XIVTED_clean_linker_0, # of connection points: 2
#     Edge 32, Type (0, 0), BuildingBlock: XIVTED_clean_linker_0, # of connection points: 2
#     Edge 33, Type (0, 0), BuildingBlock: XIVTED_clean_linker_0, # of connection points: 2
#     Edge 34, Type (0, 0), BuildingBlock: XIVTED_clean_linker_0, # of connection points: 2
#     Edge 35, Type (0, 0), BuildingBlock: XIVTED_clean_linker_0, # of connection points: 2
#     Edge 36, Type (0, 0), BuildingBlock: XIVTED_clean_linker_0, # of connection points: 2
#     Edge 37, Type (0, 0), BuildingBlock: XIVTED_clean_linker_0, # of connection points: 2
#     Edge 38, Type (0, 0), BuildingBlock: XIVTED_clean_linker_0, # of connection points: 2
#     Edge 39, Type (0, 0), BuildingBlock: XIVTED_clean_linker_0, # of connection points: 2
#     Edge 40, Type (0, 0), BuildingBlock: XIVTED_clean_linker_0, # of connection points: 2
#     Edge 41, Type (0, 0), BuildingBlock: XIVTED_clean_linker_0, # of connection points: 2
#     Edge 42, Type (0, 0), BuildingBlock: XIVTED_clean_linker_0, # of connection points: 2
#     Edge 43, Type (0, 0), BuildingBlock: XIVTED_clean_linker_0, # of connection points: 2
#     Edge 44, Type (0, 0), BuildingBlock: XIVTED_clean_linker_0, # of connection points: 2
#     Edge 45, Type (0, 0), BuildingBlock: XIVTED_clean_linker_0, # of connection points: 2
#     Edge 46, Type (0, 0), BuildingBlock: XIVTED_clean_linker_0, # of connection points: 2
#     Edge 47, Type (0, 0), BuildingBlock: XIVTED_clean_linker_0, # of connection points: 2
#     Edge 48, Type (0, 0), BuildingBlock: XIVTED_clean_linker_0, # of connection points: 2
#     Edge 49, Type (0, 0), BuildingBlock: XIVTED_clean_linker_0, # of connection points: 2
#     Edge 50, Type (0, 0), BuildingBlock: XIVTED_clean_linker_0, # of connection points: 2
#     Edge 51, Type (0, 0), BuildingBlock: XIVTED_clean_linker_0, # of connection points: 2
#     Edge 52, Type (0, 0), BuildingBlock: XIVTED_clean_linker_0, # of connection points: 2
#     Edge 53, Type (0, 0), BuildingBlock: XIVTED_clean_linker_0, # of connection points: 2
# Relax obj value: 0.039
# Max RMSD: 0.205
# Mean RMSD: 0.205
data_MOF--net-unn--node1-NAWXER_clean_sbu_0--edge1-XIVTED_clean_linker_0
_symmetry_space_group_name_H-M    P1
_symmetry_Int_Tables_number       1
_symmetry_cell_setting            triclinic
loop_
_symmetry_equiv_pos_as_xyz
'x, y, z'
_cell_length_a     45.808938
_cell_length_b     45.846588
_cell_length_c     42.415704
_cell_angle_alpha  89.952398
_cell_angle_beta   89.998656
_cell_angle_gamma 119.98593
loop_
_atom_site_label
_atom_site_type_symbol
_atom_site_fract_x
_atom_site_fract_y
_atom_site_fract_z
_atom_type_partial_charge
C0 C 0.96446 0.73157 0.21102 0.0
C1 C 0.07582 0.78559 0.26325 0.0
O2 O 0.9817 0.76239 0.21914 0.0
Zn3 Zn 0.02034 0.76068 0.23682 0.0
O4 O 0.97611 0.71182 0.21646 0.0
Zn5 Zn 0.0195 0.71339 0.23679 0.0
O6 O 1.00021 0.68284 0.27162 0.0
O7 O 0.99916 0.73021 0.27751 0.0
O8 O 0.06334 0.75413 0.25761 0.0
O9 O 0.05957 0.80016 0.25484 0.0
O10 O 0.04069 0.7506 0.19601 0.0
O11 O 0.03804 0.70142 0.20184 0.0
C12 C 0.99287 0.70147 0.28807 0.0
C13 C 0.04607 0.72756 0.18538 0.0
C14 C 0.30394 0.2411 0.21259 0.0
C15 C 0.24589 0.29731 0.2595 0.0
O16 O 0.27282 0.22682 0.21996 0.0
Zn17 Zn 0.27268 0.26699 0.23596 0.0
O18 O 0.32283 0.27262 0.21789 0.0
Zn19 Zn 0.3195 0.314 0.2364 0.0
O20 O 0.34861 0.32649 0.27248 0.0
O21 O 0.30124 0.27799 0.27832 0.0
O22 O 0.2775 0.31651 0.25467 0.0
O23 O 0.23196 0.26639 0.25159 0.0
O24 O 0.28414 0.2963 0.19403 0.0
O25 O 0.33237 0.34373 0.20071 0.0
C26 C 0.32934 0.30117 0.28941 0.0
C27 C 0.30734 0.32466 0.1834 0.0
C28 C 0.7401 0.96036 0.26414 0.0
C29 C 0.79194 0.07362 0.21559 0.0
O30 O 0.77135 0.97944 0.25832 0.0
Zn31 Zn 0.76807 0.0172 0.2398 0.0
O32 O 0.71937 0.97017 0.25648 0.0
Zn33 Zn 0.71922 0.01231 0.23587 0.0
O34 O 0.6925 0.99304 0.19891 0.0
O35 O 0.7426 0.9971 0.19615 0.0
O36 O 0.75982 0.05899 0.21859 0.0
O37 O 0.80744 0.05874 0.22531 0.0
O38 O 0.75182 0.03385 0.27963 0.0
O39 O 0.70079 0.02561 0.2698 0.0
C40 C 0.71415 0.98917 0.18357 0.0
C41 C 0.72578 0.03531 0.28828 0.0
C42 C 0.99429 0.29967 0.78898 0.0
C43 C 0.04158 0.32427 0.68364 0.0
O44 O 1.0008 0.2773 0.77857 0.0
Zn45 Zn 0.02032 0.26734 0.7368 0.0
O46 O 0.99966 0.32451 0.77167 0.0
Zn47 Zn 0.01817 0.31303 0.73638 0.0
O48 O 0.97491 0.27027 0.71724 0.0
O49 O 0.9815 0.22593 0.72057 0.0
O50 O 0.03445 0.34268 0.70064 0.0
O51 O 0.03761 0.29645 0.69456 0.0
O52 O 0.06119 0.26892 0.75324 0.0
O53 O 0.06343 0.31801 0.75562 0.0
C54 C 0.96374 0.23891 0.71222 0.0
C55 C 0.07699 0.29992 0.76098 0.0
C56 C 0.73785 0.70295 0.7895 0.0
C57 C 0.69671 0.71379 0.68795 0.0
O58 O 0.75768 0.73111 0.77611 0.0
Zn59 Zn 0.76034 0.75616 0.73295 0.0
O60 O 0.71095 0.68152 0.77575 0.0
Zn61 Zn 0.71637 0.70772 0.73889 0.0
O62 O 0.75727 0.70695 0.71595 0.0
O63 O 0.79995 0.75879 0.71223 0.0
O64 O 0.68247 0.68902 0.70682 0.0
O65 O 0.72494 0.73966 0.69519 0.0
O66 O 0.75975 0.79603 0.74807 0.0
O67 O 0.71191 0.74903 0.75696 0.0
C68 C 0.78742 0.72742 0.70697 0.0
C69 C 0.72993 0.78116 0.75921 0.0
C70 C 0.30133 0.07279 0.71267 0.0
C71 C 0.24354 0.95873 0.7601 0.0
O72 O 0.3202 0.06007 0.71778 0.0
Zn73 Zn 0.31697 0.01544 0.73653 0.0
O74 O 0.27032 0.05615 0.72047 0.0
Zn75 Zn 0.27024 0.01587 0.73661 0.0
O76 O 0.29939 0.03365 0.77854 0.0
O77 O 0.34652 0.03213 0.77225 0.0
O78 O 0.22967 0.97593 0.75267 0.0
O79 O 0.27508 0.971 0.75497 0.0
O80 O 0.32937 0.9983 0.70087 0.0
O81 O 0.28103 0.99751 0.69469 0.0
C82 C 0.3276 0.03852 0.78933 0.0
C83 C 0.30404 0.99213 0.6839 0.0
C84 C 0.63105 0.06105 0.5453 0.0
C85 C 0.74507 0.11598 0.59221 0.0
O86 O 0.64952 0.09236 0.55105 0.0
Zn87 Zn 0.68825 0.0904 0.56867 0.0
O88 O 0.6418 0.04097 0.55252 0.0
Zn89 Zn 0.6851 0.04238 0.57238 0.0
O90 O 0.66698 0.0155 0.60952 0.0
O91 O 0.66938 0.06479 0.61246 0.0
O92 O 0.73141 0.08396 0.58926 0.0
O93 O 0.72917 0.13053 0.58271 0.0
O94 O 0.70513 0.07504 0.52841 0.0
O95 O 0.69888 0.0248 0.5381 0.0
C96 C 0.66253 0.03665 0.62504 0.0
C97 C 0.70746 0.04957 0.51956 0.0
C98 C 0.99916 0.64112 0.6211 0.0
C99 C 0.96793 0.65375 0.51542 0.0
O100 O 0.01525 0.66607 0.60274 0.0
Zn101 Zn 0.98452 0.64818 0.56808 0.0
O102 O 0.97171 0.61538 0.61199 0.0
Zn103 Zn 0.94002 0.59966 0.57144 0.0
O104 O 0.94187 0.56009 0.55736 0.0
O105 O 0.99029 0.60725 0.55134 0.0
O106 O 0.94684 0.62544 0.52784 0.0
O107 O 0.99338 0.67509 0.53104 0.0
O108 O 0.94183 0.64872 0.58689 0.0
O109 O 0.89873 0.59697 0.58836 0.0
C110 C 0.97245 0.57522 0.54818 0.0
C111 C 0.91097 0.62829 0.59371 0.0
C112 C 0.46622 0.40627 0.54513 0.0
C113 C 0.4072 0.29367 0.59525 0.0
O114 O 0.47966 0.38892 0.55344 0.0
Zn115 Zn 0.4388 0.35003 0.57037 0.0
O116 O 0.43482 0.39478 0.55047 0.0
Zn117 Zn 0.39261 0.35136 0.57019 0.0
O118 O 0.38106 0.36987 0.60543 0.0
O119 O 0.4289 0.36978 0.6119 0.0
O120 O 0.38861 0.30668 0.58988 0.0
O121 O 0.43814 0.30981 0.58721 0.0
O122 O 0.40924 0.3317 0.52864 0.0
O123 O 0.36264 0.33425 0.53472 0.0
C124 C 0.40632 0.37594 0.62245 0.0
C125 C 0.38115 0.32711 0.51783 0.0
C126 C 0.66633 0.65482 0.11799 0.0
C127 C 0.71829 0.66688 0.01616 0.0
O128 O 0.66822 0.62882 0.11016 0.0
Zn129 Zn 0.68651 0.6125 0.07172 0.0
O130 O 0.67698 0.67984 0.09941 0.0
Zn131 Zn 0.69171 0.66138 0.06674 0.0
O132 O 0.64569 0.62097 0.04816 0.0
O133 O 0.64567 0.5734 0.05591 0.0
O134 O 0.71295 0.68822 0.03026 0.0
O135 O 0.7095 0.63839 0.02908 0.0
O136 O 0.72319 0.60879 0.09191 0.0
O137 O 0.73299 0.66091 0.08927 0.0
C138 C 0.63115 0.58889 0.04526 0.0
C139 C 0.74233 0.64001 0.09768 0.0
C140 C 0.40123 0.0373 0.12274 0.0
C141 C 0.37946 0.06246 0.01747 0.0
O142 O 0.42447 0.06581 0.11245 0.0
Zn143 Zn 0.43606 0.09585 0.07102 0.0
O144 O 0.37612 0.0186 0.10536 0.0
Zn145 Zn 0.38919 0.04889 0.07018 0.0
O146 O 0.43127 0.04654 0.05192 0.0
O147 O 0.47684 0.0966 0.05535 0.0
O148 O 0.36019 0.03691 0.03414 0.0
O149 O 0.40758 0.08547 0.02869 0.0
O150 O 0.4359 0.13577 0.08773 0.0
O151 O 0.38586 0.08999 0.08941 0.0
C152 C 0.46291 0.06573 0.0473 0.0
C153 C 0.40478 0.12143 0.09509 0.0
C154 C 0.96175 0.40442 0.04349 0.0
C155 C 0.907 0.29246 0.09491 0.0
O156 O 0.98142 0.3927 0.04905 0.0
Zn157 Zn 0.9796 0.34925 0.06947 0.0
O158 O 0.93097 0.38741 0.05188 0.0
Zn159 Zn 0.93243 0.3484 0.06917 0.0
O160 O 0.96199 0.36825 0.11089 0.0
O161 O 1.00972 0.3679 0.10462 0.0
O162 O 0.89246 0.30865 0.08624 0.0
O163 O 0.93858 0.30511 0.08964 0.0
O164 O 0.99233 0.33135 0.0346 0.0
O165 O 0.94351 0.3293 0.0277 0.0
C166 C 0.99064 0.37422 0.12154 0.0
C167 C 0.96691 0.32425 0.01738 0.0
C168 C 0.29777 0.40468 0.8786 0.0
C169 C 0.41147 0.46467 0.92678 0.0
O170 O 0.31377 0.43566 0.88641 0.0
Zn171 Zn 0.35462 0.43688 0.9026 0.0
O172 O 0.3112 0.38644 0.88373 0.0
Zn173 Zn 0.35634 0.3909 0.90255 0.0
O174 O 0.34006 0.36109 0.93812 0.0
O175 O 0.33726 0.40748 0.94464 0.0
O176 O 0.3999 0.43328 0.92155 0.0
O177 O 0.39391 0.47801 0.91888 0.0
O178 O 0.37373 0.42691 0.8606 0.0
O179 O 0.37439 0.37938 0.86697 0.0
C180 C 0.33309 0.37949 0.95533 0.0
C181 C 0.37991 0.40443 0.84988 0.0
C182 C 0.63862 0.98963 0.85324 0.0
C183 C 0.66543 0.96314 0.95608 0.0
O184 O 0.66482 1.00786 0.86957 0.0
Zn185 Zn 0.653 0.9775 0.90469 0.0
O186 O 0.61554 0.96135 0.86414 0.0
Zn187 Zn 0.60567 0.93123 0.90533 0.0
O188 O 0.5664 0.93132 0.92351 0.0
O189 O 0.61255 0.98104 0.92576 0.0
O190 O 0.6365 0.94067 0.94588 0.0
O191 O 0.68398 0.98881 0.93924 0.0
O192 O 0.65391 0.93553 0.88389 0.0
O193 O 0.60336 0.89064 0.88762 0.0
C194 C 0.5811 0.96218 0.93167 0.0
C195 C 0.63393 0.90416 0.87861 0.0
C196 C 0.11978 0.73741 0.87596 0.0
C197 C 0.06092 0.62376 0.92399 0.0
O198 O 0.13261 0.71883 0.88136 0.0
Zn199 Zn 0.09223 0.68037 0.89991 0.0
O200 O 0.08914 0.72687 0.88379 0.0
Zn201 Zn 0.04758 0.68404 0.90441 0.0
O202 O 0.03983 0.70268 0.94159 0.0
O203 O 0.08658 0.69983 0.94372 0.0
O204 O 0.04282 0.63776 0.92132 0.0
O205 O 0.09125 0.63929 0.91409 0.0
O206 O 0.05892 0.66309 0.86047 0.0
O207 O 0.01544 0.67008 0.87083 0.0
C208 C 0.06572 0.70709 0.95662 0.0
C209 C 0.03098 0.66086 0.85215 0.0
C210 C 0.33005 0.9636 0.45654 0.0
C211 C 0.37703 0.98717 0.35136 0.0
O212 O 0.33525 0.94046 0.44587 0.0
Zn213 Zn 0.35362 0.92956 0.40398 0.0
O214 O 0.3365 0.98895 0.43949 0.0
Zn215 Zn 0.35368 0.9764 0.404 0.0
O216 O 0.30921 0.9348 0.38517 0.0
O217 O 0.31368 0.88918 0.38792 0.0
O218 O 0.3708 1.00613 0.36851 0.0
O219 O 0.37183 0.9588 0.362 0.0
O220 O 0.39351 0.92906 0.42015 0.0
O221 O 0.39814 0.97921 0.42283 0.0
C222 C 0.29678 0.90325 0.38011 0.0
C223 C 0.41048 0.96 0.42793 0.0
C224 C 0.07329 0.45792 0.42695 0.0
C225 C 0.12812 0.39987 0.37748 0.0
O226 O 0.05361 0.42659 0.42127 0.0
Zn227 Zn 0.0553 0.38473 0.40141 0.0
O228 O 0.10421 0.47158 0.41899 0.0
Zn229 Zn 0.10267 0.43096 0.40203 0.0
O230 O 0.07377 0.4215 0.35998 0.0
O231 O 0.02582 0.3736 0.36574 0.0
O232 O 0.14264 0.43067 0.38584 0.0
O233 O 0.09644 0.38112 0.38232 0.0
O234 O 0.04184 0.35435 0.43666 0.0
O235 O 0.0907 0.40099 0.44366 0.0
C236 C 0.04524 0.39903 0.349 0.0
C237 C 0.06703 0.37276 0.45407 0.0
C238 C 0.64658 0.74083 0.38234 0.0
C239 C 0.58795 0.62483 0.4248 0.0
O240 O 0.66574 0.72834 0.387 0.0
Zn241 Zn 0.66191 0.68235 0.40308 0.0
O242 O 0.61536 0.72332 0.38907 0.0
Zn243 Zn 0.61545 0.68274 0.40337 0.0
O244 O 0.64397 0.69878 0.44596 0.0
O245 O 0.69027 0.69566 0.43947 0.0
O246 O 0.57455 0.64262 0.41806 0.0
O247 O 0.61949 0.63685 0.41975 0.0
O248 O 0.67605 0.66861 0.36633 0.0
O249 O 0.6269 0.66624 0.36054 0.0
C250 C 0.67157 0.70209 0.45681 0.0
C251 C 0.65077 0.66246 0.34935 0.0
H252 H 0.06603 0.68744 0.15519 0.0
H253 H 0.03957 0.74101 -0.01227 0.0
H254 H 0.05352 0.77396 0.14139 0.0
H255 H 0.10197 0.69597 0.00092 0.0
H256 H 0.04267 0.752 0.04444 0.0
H257 H 0.07834 0.68851 0.09883 0.0
C258 C 0.06633 0.70689 0.14043 0.0
C259 C 0.05831 0.73034 0.15285 0.0
C260 C 0.0561 0.74018 0.03477 0.0
C261 C 0.07182 0.73139 0.08878 0.0
C262 C 0.05419 0.73379 0.00254 0.0
C263 C 0.07035 0.71742 -0.01019 0.0
C264 C 0.07357 0.72934 0.05432 0.0
C265 C 0.08915 0.70869 0.00989 0.0
C266 C 0.07344 0.70755 0.10839 0.0
C267 C 0.05926 0.75518 0.13276 0.0
N268 N 0.08977 0.71423 0.04134 0.0
N269 N 0.06528 0.75469 0.10158 0.0
H270 H 0.33634 0.42145 0.00222 0.0
H271 H 0.26937 0.28207 0.13659 0.0
H272 H 0.30849 0.31803 0.98407 0.0
H273 H 0.34254 0.38634 0.1546 0.0
H274 H 0.27104 0.29502 0.08057 0.0
H275 H 0.32592 0.40838 0.05833 0.0
C276 C 0.32756 0.39586 0.00997 0.0
C277 C 0.32343 0.37075 -0.01147 0.0
C278 C 0.28648 0.31504 0.09688 0.0
C279 C 0.3114 0.35584 0.05247 0.0
C280 C 0.28547 0.30781 0.12883 0.0
C281 C 0.30604 0.33321 0.15021 0.0
C282 C 0.30778 0.34798 0.08634 0.0
C283 C 0.32649 0.36603 0.13883 0.0
C284 C 0.32185 0.38856 0.04196 0.0
C285 C 0.31218 0.33812 -0.00012 0.0
N286 N 0.32685 0.37252 0.10754 0.0
N287 N 0.30653 0.33156 0.03121 0.0
H288 H 0.76103 0.99997 0.13869 0.0
H289 H 0.6263 0.91773 0.00082 0.0
H290 H 0.65371 0.95465 0.15303 0.0
H291 H 0.72629 1.00225 0.9855 0.0
H292 H 0.63943 0.91815 0.05653 0.0
H293 H 0.75111 0.98799 0.08227 0.0
C294 C 0.73535 0.98699 0.13005 0.0
C295 C 0.70809 0.97851 0.15042 0.0
C296 C 0.65858 0.93631 0.04085 0.0
C297 C 0.69678 0.96462 0.0863 0.0
C298 C 0.65122 0.93608 0.00903 0.0
C299 C 0.67513 0.96037 -0.01143 0.0
C300 C 0.69014 0.96071 0.05221 0.0
C301 C 0.70703 0.98336 0.00056 0.0
C302 C 0.7298 0.98034 0.09791 0.0
C303 C 0.67538 0.96188 0.13802 0.0
N304 N 0.71359 0.98312 0.03177 0.0
N305 N 0.67061 0.95552 0.10664 0.0
H306 H 0.68124 0.99373 0.48261 0.0
H307 H 0.77614 0.08095 0.32568 0.0
H308 H 0.74975 0.10103 0.48113 0.0
H309 H 0.67057 1.00572 0.32602 0.0
H310 H 0.77409 0.08532 0.38327 0.0
H311 H 0.68566 0.99271 0.42503 0.0
C312 C 0.69787 0.01687 0.47021 0.0
C313 C 0.71524 0.0475 0.48641 0.0
C314 C 0.75136 0.06824 0.37056 0.0
C315 C 0.72011 0.04651 0.42115 0.0
C316 C 0.75244 0.06588 0.33789 0.0
C317 C 0.72339 0.04317 0.32131 0.0
C318 C 0.72136 0.04692 0.38658 0.0
C319 C 0.69335 0.02385 0.33803 0.0
C320 C 0.69996 0.01635 0.43748 0.0
C321 C 0.73599 0.07695 0.46931 0.0
N322 N 0.69322 0.02571 0.36995 0.0
N323 N 0.73798 0.07576 0.43746 0.0
H324 H 0.93126 0.60715 0.47074 0.0
H325 H 0.9868 0.74119 0.33211 0.0
H326 H 0.99557 0.71417 0.4846 0.0
H327 H 0.97041 0.64076 0.31792 0.0
H328 H 0.97349 0.72846 0.38779 0.0
H329 H 0.92968 0.61701 0.41427 0.0
C330 C 0.9446 0.63277 0.46197 0.0
C331 C 0.96388 0.65994 0.4822 0.0
C332 C 0.97243 0.70915 0.37235 0.0
C333 C 0.96182 0.67116 0.41806 0.0
C334 C 0.9799 0.71626 0.34057 0.0
C335 C 0.98021 0.69209 0.32047 0.0
C336 C 0.96484 0.67757 0.38399 0.0
C337 C 0.97087 0.6602 0.33273 0.0
C338 C 0.94376 0.63827 0.42982 0.0
C339 C 0.98074 0.69256 0.46967 0.0
N340 N 0.96374 0.65388 0.3639 0.0
N341 N 0.97939 0.69729 0.43825 0.0
H342 H 0.42314 0.32872 0.47169 0.0
H343 H 0.28573 0.26327 0.33571 0.0
H344 H 0.31995 0.30295 0.4885 0.0
H345 H 0.39062 0.3356 0.31897 0.0
H346 H 0.2977 0.2646 0.39196 0.0
H347 H 0.41061 0.31788 0.4156 0.0
C348 C 0.39769 0.32029 0.46367 0.0
C349 C 0.37252 0.31692 0.48472 0.0
C350 C 0.31807 0.27991 0.37587 0.0
C351 C 0.35824 0.30442 0.42076 0.0
C352 C 0.31139 0.27908 0.3438 0.0
C353 C 0.33727 0.29955 0.32273 0.0
C354 C 0.35091 0.30089 0.3868 0.0
C355 C 0.36996 0.31965 0.3345 0.0
C356 C 0.39071 0.31433 0.43167 0.0
C357 C 0.34009 0.30607 0.473 0.0
N358 N 0.3759 0.31983 0.36589 0.0
N359 N 0.33384 0.3002 0.44166 0.0
H360 H 0.96566 0.33322 0.81696 0.0
H361 H 1.00382 0.29917 -0.01044 0.0
H362 H 0.99951 0.26238 0.83624 0.0
H363 H 0.92751 0.32582 0.97018 0.0
H364 H 1.00533 0.28793 0.93329 0.0
H365 H 0.95388 0.3337 0.87326 0.0
C366 C 0.97029 0.31756 0.83298 0.0
C367 C 0.9837 0.29787 0.82202 0.0
C368 C 0.98796 0.2958 0.94152 0.0
C369 C 0.97084 0.29868 0.88611 0.0
C370 C 0.98716 0.30229 0.97354 0.0
C371 C 0.96565 0.31358 0.98446 0.0
C372 C 0.96763 0.30137 0.92039 0.0
C373 C 0.94448 0.31714 0.96274 0.0
C374 C 0.96348 0.31775 0.865 0.0
C375 C 0.98916 0.27793 0.84372 0.0
N376 N 0.94637 0.31154 0.93163 0.0
N377 N 0.98317 0.27921 0.87484 0.0
H378 H 0.71857 0.62139 0.97509 0.0
H379 H 0.78197 0.74952 0.83088 0.0
H380 H 0.74846 0.72657 0.98376 0.0
H381 H 0.70972 0.64344 0.82201 0.0
H382 H 0.78695 0.74129 0.8871 0.0
H383 H 0.73288 0.63017 0.91915 0.0
C384 C 0.72871 0.64648 0.96537 0.0
C385 C 0.73174 0.67322 0.98389 0.0
C386 C 0.77048 0.7198 0.87265 0.0
C387 C 0.74828 0.68325 0.92023 0.0
C388 C 0.76764 0.72437 0.84062 0.0
C389 C 0.74489 0.69715 0.82197 0.0
C390 C 0.75078 0.68777 0.88589 0.0
C391 C 0.72709 0.66515 0.83573 0.0
C392 C 0.73678 0.65137 0.93349 0.0
C393 C 0.74521 0.70519 0.97015 0.0
N394 N 0.7302 0.66135 0.86705 0.0
N395 N 0.75274 0.70929 0.93894 0.0
H396 H 0.4228 0.10146 0.97146 0.0
H397 H 0.28515 0.03555 0.83564 0.0
H398 H 0.31818 0.02807 -0.01201 0.0
H399 H 0.38888 0.06346 0.81855 0.0
H400 H 0.29762 0.04615 0.89176 0.0
H401 H 0.41069 0.10078 0.91532 0.0
C402 C 0.39717 0.08555 0.96335 0.0
C403 C 0.37142 0.06457 0.98431 0.0
C404 C 0.31765 0.05022 0.87562 0.0
C405 C 0.3576 0.06397 0.92039 0.0
C406 C 0.31069 0.04438 0.84362 0.0
C407 C 0.33605 0.04842 0.82249 0.0
C408 C 0.35026 0.06067 0.88645 0.0
C409 C 0.3686 0.0598 0.83413 0.0
C410 C 0.3904 0.0851 0.93135 0.0
C411 C 0.33875 0.04439 0.97253 0.0
N412 N 0.37482 0.06552 0.86548 0.0
N413 N 0.33273 0.04456 0.94121 0.0
H414 H 0.26506 0.99579 0.63749 0.0
H415 H 0.33278 0.92423 0.5031 0.0
H416 H 0.33875 0.96516 0.65514 0.0
H417 H 0.30417 0.99934 0.48517 0.0
H418 H 0.32144 0.92593 0.5591 0.0
H419 H 0.26597 0.98381 0.58156 0.0
C420 C 0.28109 0.98609 0.62968 0.0
C421 C 0.30211 0.98167 0.65088 0.0
C422 C 0.31736 0.94175 0.54279 0.0
C423 C 0.30296 0.96783 0.58718 0.0
C424 C 0.32364 0.94073 0.51087 0.0
C425 C 0.31965 0.96193 0.48956 0.0
C426 C 0.30655 0.96371 0.55333 0.0
C427 C 0.30783 0.98284 0.5009 0.0
C428 C 0.28166 0.97945 0.59779 0.0
C429 C 0.32241 0.96916 0.63948 0.0
N430 N 0.30172 0.98326 0.53217 0.0
N431 N 0.32238 0.96268 0.60825 0.0
H432 H 0.0668 0.38565 0.65461 0.0
H433 H 0.0299 0.31123 0.48277 0.0
H434 H 0.03718 0.28172 0.63691 0.0
H435 H 0.10539 0.41464 0.50108 0.0
H436 H 0.02803 0.29945 0.53939 0.0
H437 H 0.07723 0.39713 0.59802 0.0
C438 C 0.0628 0.36538 0.63887 0.0
C439 C 0.05111 0.33274 0.65036 0.0
C440 C 0.04527 0.32459 0.53082 0.0
C441 C 0.06234 0.34546 0.586 0.0
C442 C 0.04627 0.33131 0.49863 0.0
C443 C 0.06776 0.36392 0.4873 0.0
C444 C 0.06531 0.35086 0.55168 0.0
C445 C 0.0885 0.38909 0.50882 0.0
C446 C 0.06882 0.37193 0.6067 0.0
C447 C 0.04632 0.30731 0.62902 0.0
N448 N 0.08642 0.38214 0.54007 0.0
N449 N 0.05151 0.3141 0.59775 0.0
H450 H 0.7009 0.67671 0.49517 0.0
H451 H 0.69788 0.76354 0.65216 0.0
H452 H 0.65566 0.73973 0.4951 0.0
H453 H 0.67046 0.65882 0.6502 0.0
H454 H 0.691 0.76219 0.59465 0.0
H455 H 0.70191 0.67831 0.55294 0.0
C456 C 0.69195 0.69152 0.50733 0.0
C457 C 0.6783 0.70823 0.4906 0.0
C458 C 0.68589 0.73942 0.60701 0.0
C459 C 0.67909 0.70984 0.55603 0.0
C460 C 0.68958 0.7401 0.63963 0.0
C461 C 0.68452 0.71118 0.65565 0.0
C462 C 0.67828 0.71 0.59055 0.0
C463 C 0.6742 0.68148 0.63859 0.0
C464 C 0.69203 0.69196 0.54013 0.0
C465 C 0.66642 0.72658 0.50735 0.0
N466 N 0.67212 0.68181 0.60671 0.0
N467 N 0.66723 0.72708 0.53934 0.0
H468 H 0.37531 0.44267 0.80318 0.0
H469 H 0.44625 0.37389 0.66889 0.0
H470 H 0.40772 0.37046 0.82121 0.0
H471 H 0.37112 0.40254 0.65103 0.0
H472 H 0.44522 0.38608 0.72474 0.0
H473 H 0.38683 0.44131 0.74715 0.0
C474 C 0.38533 0.42689 0.79543 0.0
C475 C 0.39035 0.4064 0.81679 0.0
C476 C 0.42925 0.38998 0.70849 0.0
C477 C 0.40365 0.40501 0.75294 0.0
C478 C 0.42988 0.38322 0.67662 0.0
C479 C 0.40847 0.38696 0.65536 0.0
C480 C 0.40744 0.40101 0.71905 0.0
C481 C 0.38777 0.39905 0.66671 0.0
C482 C 0.3917 0.42606 0.76348 0.0
C483 C 0.40325 0.3864 0.80545 0.0
N484 N 0.38771 0.40561 0.69792 0.0
N485 N 0.40943 0.38615 0.77417 0.0
H486 H 0.67259 0.08329 0.66977 0.0
H487 H 0.5935 0.94964 0.80881 0.0
H488 H 0.63009 0.9763 0.65606 0.0
H489 H 0.6775 0.05007 0.82311 0.0
H490 H 0.59371 0.96205 0.7529 0.0
H491 H 0.66145 0.07351 0.72633 0.0
C492 C 0.66042 0.05769 0.6786 0.0
C493 C 0.65245 0.03051 0.65835 0.0
C494 C 0.6118 0.98144 0.76841 0.0
C495 C 0.63952 0.01936 0.72262 0.0
C496 C 0.61168 0.97451 0.80032 0.0
C497 C 0.63586 0.99878 0.82056 0.0
C498 C 0.63594 0.01296 0.75674 0.0
C499 C 0.65869 0.03056 0.80822 0.0
C500 C 0.65426 0.05223 0.7108 0.0
C501 C 0.63688 0.99792 0.67097 0.0
N502 N 0.6583 0.03673 0.77694 0.0
N503 N 0.63093 0.99322 0.70243 0.0
H504 H 1.00174 0.68741 0.81506 0.0
H505 H 0.99234 0.59027 0.65905 0.0
H506 H 0.03787 0.61668 0.81458 0.0
H507 H 0.0249 0.69632 0.6587 0.0
H508 H 0.99767 0.59222 0.71675 0.0
H509 H 0.99569 0.68218 0.75756 0.0
C510 C 1.00748 0.6701 0.80291 0.0
C511 C 0.02026 0.65239 0.81932 0.0
C512 C 1.004 0.61505 0.70387 0.0
C513 C 0.01373 0.64661 0.75421 0.0
C514 C 1.00119 0.61403 0.67115 0.0
C515 C 1.00852 0.64326 0.65436 0.0
C516 C 0.01307 0.64522 0.71967 0.0
C517 C 0.01951 0.67339 0.67091 0.0
C518 C 1.00452 0.66754 0.77023 0.0
C519 C 0.02795 0.63073 0.80257 0.0
N520 N 0.02093 0.67351 0.70285 0.0
N521 N 0.02452 0.62835 0.77076 0.0
H522 H 0.59685 0.62313 0.31204 0.0
H523 H 0.69351 0.71025 0.15535 0.0
H524 H 0.70457 0.68966 0.30996 0.0
H525 H 0.61967 0.60427 0.1546 0.0
H526 H 0.688 0.71044 0.21285 0.0
H527 H 0.59655 0.6215 0.25407 0.0
C528 C 0.62043 0.63691 0.29933 0.0
C529 C 0.65085 0.65627 0.31552 0.0
C530 C 0.67264 0.68736 0.19989 0.0
C531 C 0.65035 0.6558 0.25008 0.0
C532 C 0.67538 0.68733 0.16721 0.0
C533 C 0.65703 0.65718 0.1505 0.0
C534 C 0.65089 0.65724 0.21557 0.0
C535 C 0.63427 0.62796 0.16689 0.0
C536 C 0.62018 0.63614 0.26649 0.0
C537 C 0.68072 0.67405 0.29822 0.0
N538 N 0.63182 0.62865 0.19872 0.0
N539 N 0.67968 0.67383 0.26627 0.0
H540 H 0.36471 0.97553 0.15107 0.0
H541 H 0.40371 0.04893 0.32293 0.0
H542 H 0.44048 0.07882 0.16954 0.0
H543 H 0.3724 0.9447 0.30445 0.0
H544 H 0.41446 0.06079 0.26647 0.0
H545 H 0.36388 0.96326 0.20744 0.0
C546 C 0.38135 0.99548 0.16691 0.0
C547 C 0.40254 0.02822 0.15574 0.0
C548 C 0.40565 0.03544 0.27495 0.0
C549 C 0.40136 0.01459 0.2198 0.0
C550 C 0.39943 0.02867 0.30704 0.0
C551 C 0.38705 0.99582 0.31825 0.0
C552 C 0.3987 0.00899 0.25406 0.0
C553 C 0.38199 0.97043 0.29675 0.0
C554 C 0.38096 0.98848 0.19895 0.0
C555 C 0.42373 0.0532 0.17719 0.0
N556 N 0.38737 0.97745 0.26555 0.0
N557 N 0.42225 0.04597 0.20832 0.0
H558 H 0.08808 0.43822 0.3027 0.0
H559 H 0.94859 0.37174 0.16814 0.0
H560 H 0.9835 0.36539 0.32015 0.0
H561 H 0.05242 0.40071 0.15011 0.0
H562 H 0.96169 0.38304 0.22415 0.0
H563 H 0.07526 0.43796 0.24678 0.0
C564 C 0.06231 0.42253 0.29485 0.0
C565 C 0.03679 0.40155 0.31601 0.0
C566 C 0.98161 0.38724 0.20782 0.0
C567 C 0.02215 0.40142 0.25228 0.0
C568 C 0.97428 0.38099 0.17587 0.0
C569 C 0.99946 0.38504 0.15451 0.0
C570 C 0.01442 0.39808 0.21836 0.0
C571 C 0.03225 0.397 0.16585 0.0
C572 C 0.05513 0.42233 0.26296 0.0
C573 C 1.00391 0.38169 0.30454 0.0
N574 N 0.0388 0.40305 0.19713 0.0
N575 N 0.9975 0.38207 0.27332 0.0
H576 H 0.26204 0.8366 0.36137 0.0
H577 H 0.11055 0.85199 0.28247 0.0
H578 H 0.25568 0.92743 0.36201 0.0
H579 H 0.11575 0.76053 0.28297 0.0
H580 H 0.16391 0.88017 0.31157 0.0
H581 H 0.20821 0.808 0.33294 0.0
C582 C 0.24932 0.85049 0.35569 0.0
C583 C 0.26353 0.8845 0.36413 0.0
C584 C 0.15335 0.85392 0.30527 0.0
C585 C 0.202 0.85202 0.33143 0.0
C586 C 0.12289 0.83786 0.28859 0.0
C587 C 0.10855 0.80383 0.28019 0.0
C588 C 0.16962 0.83586 0.31363 0.0
C589 C 0.12575 0.78679 0.28888 0.0
C590 C 0.21862 0.83419 0.33939 0.0
C591 C 0.24584 0.90121 0.35602 0.0
N592 N 0.15526 0.80293 0.30507 0.0
N593 N 0.21617 0.88488 0.34014 0.0
H594 H 0.1794 0.26497 0.27918 0.0
H595 H 0.19458 0.43158 0.35815 0.0
H596 H 0.26966 0.36259 0.27705 0.0
H597 H 0.10342 0.33465 0.35884 0.0
H598 H 0.22275 0.4065 0.32888 0.0
H599 H 0.15087 0.28987 0.30829 0.0
C600 C 0.19316 0.2916 0.28464 0.0
C601 C 0.227 0.31161 0.27561 0.0
C602 C 0.19658 0.39072 0.3355 0.0
C603 C 0.19464 0.3403 0.30912 0.0
C604 C 0.18053 0.40505 0.35231 0.0
C605 C 0.14656 0.38529 0.36102 0.0
C606 C 0.17856 0.35636 0.32732 0.0
C607 C 0.12962 0.35098 0.35265 0.0
C608 C 0.17691 0.30582 0.30135 0.0
C609 C 0.24358 0.34604 0.28349 0.0
N610 N 0.14574 0.33768 0.3363 0.0
N611 N 0.22731 0.35919 0.29978 0.0
H612 H 0.6745 0.91513 0.27771 0.0
H613 H 0.71278 0.78512 0.36894 0.0
H614 H 0.77501 0.93094 0.28951 0.0
H615 H 0.61354 0.77333 0.36063 0.0
H616 H 0.73614 0.83836 0.34039 0.0
H617 H 0.65218 0.86305 0.30752 0.0
C618 C 0.692 0.90764 0.28646 0.0
C619 C 0.72685 0.92766 0.28098 0.0
C620 C 0.70928 0.82425 0.34491 0.0
C621 C 0.70107 0.86749 0.31559 0.0
C622 C 0.69584 0.79379 0.3613 0.0
C623 C 0.66101 0.77453 0.36723 0.0
C624 C 0.68782 0.83571 0.33414 0.0
C625 C 0.64049 0.78724 0.35671 0.0
C626 C 0.67912 0.87779 0.30363 0.0
C627 C 0.74802 0.91637 0.29304 0.0
N628 N 0.65418 0.81691 0.34058 0.0
N629 N 0.7348 0.88705 0.3098 0.0
H630 H 0.85924 0.11121 0.19983 0.0
H631 H 0.84014 0.25708 0.11334 0.0
H632 H 0.76544 0.11176 0.19401 0.0
H633 H 0.93257 0.25362 0.11636 0.0
H634 H 0.81231 0.20437 0.14362 0.0
H635 H 0.88689 0.16441 0.17053 0.0
C636 C 0.84449 0.12256 0.19258 0.0
C637 C 0.80993 0.10686 0.19942 0.0
C638 C 0.83868 0.21518 0.13759 0.0
C639 C 0.84138 0.16778 0.16564 0.0
C640 C 0.85455 0.24524 0.12022 0.0
C641 C 0.88876 0.2599 0.11218 0.0
C642 C 0.85716 0.19967 0.14705 0.0
C643 C 0.90615 0.24338 0.12191 0.0
C644 C 0.86026 0.15292 0.17574 0.0
C645 C 0.79212 0.12282 0.18928 0.0
N646 N 0.89023 0.21432 0.13878 0.0
N647 N 0.80799 0.15226 0.17292 0.0
H648 H 0.78605 0.70503 0.11442 0.0
H649 H 0.92176 0.66645 0.19332 0.0
H650 H 0.77343 0.6053 0.11934 0.0
H651 H 0.93139 0.76505 0.19192 0.0
H652 H 0.86792 0.64376 0.16608 0.0
H653 H 0.83937 0.72717 0.1422 0.0
C654 C 0.79446 0.68767 0.12129 0.0
C655 C 0.77505 0.6531 0.11441 0.0
C656 C 0.88172 0.67033 0.17175 0.0
C657 C 0.83663 0.67866 0.14654 0.0
C658 C 0.91257 0.68342 0.18734 0.0
C659 C 0.93131 0.71785 0.19499 0.0
C660 C 0.86928 0.69173 0.16354 0.0
C661 C 0.91791 0.7384 0.18657 0.0
C662 C 0.82503 0.70045 0.13726 0.0
C663 C 0.78747 0.63206 0.12407 0.0
N664 N 0.88777 0.72504 0.17127 0.0
N665 N 0.81748 0.64518 0.13962 0.0
H666 H 0.37003 0.26513 0.19755 0.0
H667 H 0.33876 0.09714 0.11062 0.0
H668 H 0.27227 0.17547 0.19073 0.0
H669 H 0.43641 0.18696 0.11717 0.0
H670 H 0.31418 0.1254 0.13964 0.0
H671 H 0.39461 0.23674 0.16876 0.0
C672 C 0.35364 0.23936 0.19012 0.0
C673 C 0.31887 0.22271 0.19663 0.0
C674 C 0.34096 0.13902 0.13473 0.0
C675 C 0.3472 0.18996 0.16325 0.0
C676 C 0.35512 0.12292 0.11804 0.0
C677 C 0.38986 0.13966 0.11136 0.0
C678 C 0.36155 0.17226 0.145 0.0
C679 C 0.40957 0.17305 0.12168 0.0
C680 C 0.36781 0.22318 0.17357 0.0
C681 C 0.29914 0.1893 0.18634 0.0
N682 N 0.39515 0.18821 0.13803 0.0
N683 N 0.31357 0.17408 0.17011 0.0
H684 H 0.78032 0.18321 0.60809 0.0
H685 H 0.93141 0.17218 0.69332 0.0
H686 H 0.78549 0.09187 0.61335 0.0
H687 H 0.92168 0.26111 0.69207 0.0
H688 H 0.8787 0.14228 0.66318 0.0
H689 H 0.83338 0.21257 0.63735 0.0
C690 C 0.79267 0.16936 0.6152 0.0
C691 C 0.77829 0.13498 0.60822 0.0
C692 C 0.88814 0.16834 0.6696 0.0
C693 C 0.83909 0.16841 0.642 0.0
C694 C 0.91819 0.18537 0.68689 0.0
C695 C 0.93111 0.21924 0.69534 0.0
C696 C 0.87094 0.18531 0.66062 0.0
C697 C 0.91285 0.23504 0.68618 0.0
C698 C 0.82294 0.1861 0.63204 0.0
C699 C 0.79552 0.11837 0.61819 0.0
N700 N 0.88389 0.21803 0.66935 0.0
N701 N 0.82489 0.13518 0.63457 0.0
H702 H 0.84599 0.59391 0.61728 0.0
H703 H 0.85151 0.76171 0.68155 0.0
H704 H 0.93077 0.69418 0.60492 0.0
H705 H 0.76635 0.6616 0.69355 0.0
H706 H 0.88088 0.73744 0.65295 0.0
H707 H 0.81581 0.61821 0.6445 0.0
C708 C 0.85818 0.62097 0.6201 0.0
C709 C 0.89101 0.64193 0.60881 0.0
C710 C 0.85575 0.72081 0.66187 0.0
C711 C 0.85677 0.66997 0.64008 0.0
C712 C 0.83902 0.73469 0.67826 0.0
C713 C 0.80642 0.71376 0.69006 0.0
C714 C 0.83978 0.68573 0.65724 0.0
C715 C 0.79146 0.67884 0.68495 0.0
C716 C 0.84101 0.63486 0.63572 0.0
C717 C 0.90556 0.6769 0.61326 0.0
N718 N 0.80821 0.666 0.66899 0.0
N719 N 0.88843 0.68974 0.62855 0.0
H720 H 0.26988 0.10778 0.69292 0.0
H721 H 0.43822 0.2584 0.61504 0.0
H722 H 0.36688 0.11359 0.69519 0.0
H723 H 0.34171 0.25368 0.61361 0.0
H724 H 0.41236 0.20502 0.64417 0.0
H725 H 0.29564 0.1614 0.66406 0.0
C726 C 0.29655 0.12033 0.68753 0.0
C727 C 0.31614 0.10602 0.69654 0.0
C728 C 0.39685 0.21568 0.63742 0.0
C729 C 0.34581 0.16731 0.66333 0.0
C730 C 0.41162 0.24613 0.6207 0.0
C731 C 0.39221 0.26066 0.6118 0.0
C732 C 0.36238 0.19957 0.64532 0.0
C733 C 0.35779 0.24355 0.61993 0.0
C734 C 0.31127 0.15091 0.67097 0.0
C735 C 0.35064 0.1235 0.68876 0.0
N736 N 0.34406 0.21406 0.63619 0.0
N737 N 0.36428 0.15305 0.67263 0.0
H738 H 0.26609 0.91514 0.77365 0.0
H739 H 0.09803 0.78174 0.8631 0.0
H740 H 0.17809 0.92593 0.78259 0.0
H741 H 0.18433 0.76857 0.85108 0.0
H742 H 0.12727 0.83465 0.83434 0.0
H743 H 0.23671 0.86175 0.80179 0.0
C744 C 0.24048 0.90627 0.78142 0.0
C745 C 0.22459 0.92526 0.77571 0.0
C746 C 0.13991 0.8203 0.83797 0.0
C747 C 0.19073 0.86375 0.80832 0.0
C748 C 0.12325 0.78998 0.85451 0.0
C749 C 0.1387 0.77047 0.85961 0.0
C750 C 0.17245 0.83154 0.82628 0.0
C751 C 0.17142 0.7827 0.84781 0.0
C752 C 0.22373 0.87567 0.79757 0.0
C753 C 0.19135 0.91222 0.78636 0.0
N754 N 0.18718 0.81242 0.83168 0.0
N755 N 0.17559 0.88235 0.80223 0.0
H756 H 0.1166 0.3658 0.77803 0.0
H757 H 0.2578 0.3388 0.8619 0.0
H758 H 0.11307 0.26999 0.78167 0.0
H759 H 0.26185 0.43485 0.85792 0.0
H760 H 0.2048 0.31336 0.83307 0.0
H761 H 0.16958 0.39135 0.80697 0.0
C762 C 0.12698 0.35005 0.78479 0.0
C763 C 0.11016 0.31554 0.77731 0.0
C764 C 0.21716 0.33998 0.83851 0.0
C765 C 0.17122 0.34496 0.81085 0.0
C766 C 0.24752 0.35463 0.85508 0.0
C767 C 0.26452 0.38918 0.86243 0.0
C768 C 0.20338 0.35986 0.82902 0.0
C769 C 0.24972 0.40818 0.85288 0.0
C770 C 0.15733 0.36476 0.80143 0.0
C771 C 0.12507 0.29663 0.78681 0.0
N772 N 0.22006 0.39328 0.83663 0.0
N773 N 0.15468 0.31157 0.80312 0.0
H774 H 0.76104 0.84901 0.77243 0.0
H775 H 0.60061 0.83678 0.86221 0.0
H776 H 0.66659 0.75628 0.78374 0.0
H777 H 0.69728 0.92778 0.85505 0.0
H778 H 0.62359 0.80687 0.83244 0.0
H779 H 0.73731 0.87861 0.80128 0.0
C780 C 0.7353 0.83488 0.78085 0.0
C781 C 0.71587 0.80007 0.77563 0.0
C782 C 0.63974 0.83339 0.83744 0.0
C783 C 0.68847 0.83379 0.80884 0.0
C784 C 0.62662 0.85045 0.85448 0.0
C785 C 0.64698 0.88486 0.86125 0.0
C786 C 0.67344 0.85087 0.82702 0.0
C787 C 0.68054 0.90126 0.85051 0.0
C788 C 0.72175 0.85178 0.79741 0.0
C789 C 0.68261 0.78312 0.7872 0.0
N790 N 0.69263 0.88419 0.83398 0.0
N791 N 0.67002 0.80009 0.80323 0.0
H792 H 0.53216 0.43797 0.52396 0.0
H793 H 0.52175 0.59209 0.44482 0.0
H794 H 0.44383 0.44879 0.52683 0.0
H795 H 0.61021 0.58154 0.44112 0.0
H796 H 0.49243 0.53896 0.47412 0.0
H797 H 0.56136 0.49049 0.49353 0.0
C798 C 0.51896 0.45141 0.51837 0.0
C799 C 0.48547 0.43884 0.52805 0.0
C800 C 0.51824 0.54823 0.46678 0.0
C801 C 0.51862 0.49886 0.49302 0.0
C802 C 0.53494 0.57854 0.44992 0.0
C803 C 0.56853 0.59144 0.44045 0.0
C804 C 0.53523 0.53066 0.47431 0.0
C805 C 0.58433 0.57271 0.44792 0.0
C806 C 0.53559 0.48134 0.50089 0.0
C807 C 0.46962 0.45736 0.51994 0.0
N808 N 0.56763 0.54343 0.46442 0.0
N809 N 0.48627 0.48628 0.50295 0.0
H810 H 0.59961 0.0947 0.52195 0.0
H811 H 0.44349 0.92723 0.44922 0.0
H812 H 0.58718 0.9953 0.53093 0.0
H813 H 0.45312 0.0257 0.44375 0.0
H814 H 0.49696 0.95203 0.47814 0.0
H815 H 0.54625 0.07016 0.49275 0.0
C816 C 0.58565 0.06777 0.51796 0.0
C817 C 0.59801 0.04713 0.52897 0.0
C818 C 0.48737 0.9682 0.47053 0.0
C819 C 0.53705 0.01884 0.49535 0.0
C820 C 0.45688 0.95403 0.45392 0.0
C821 C 0.44367 0.97431 0.44402 0.0
C822 C 0.50485 1.00293 0.47728 0.0
C823 C 0.46218 0.00896 0.45092 0.0
C824 C 0.55522 0.05375 0.5012 0.0
C825 C 0.57879 0.01233 0.52295 0.0
N826 N 0.49169 0.0221 0.4671 0.0
N827 N 0.54945 0.99938 0.50656 0.0
H828 H 0.10643 0.52418 0.44718 0.0
H829 H 0.94169 0.50829 0.53132 0.0
H830 H 1.00854 0.43418 0.44643 0.0
H831 H 0.0375 0.60064 0.52805 0.0
H832 H 0.96663 0.48023 0.50185 0.0
H833 H 0.08238 0.55262 0.47777 0.0
C834 C 0.07993 0.51045 0.45327 0.0
C835 C 0.05956 0.47673 0.44413 0.0
C836 C 0.98224 0.50663 0.50766 0.0
C837 C 0.0319 0.50897 0.47935 0.0
C838 C 0.96799 0.52262 0.52462 0.0
C839 C 0.98743 0.5569 0.5322 0.0
C840 C 0.01621 0.525 0.49817 0.0
C841 C 0.02144 0.57419 0.52273 0.0
C842 C 0.06621 0.52665 0.47082 0.0
C843 C 0.02534 0.46019 0.45286 0.0
N844 N 0.03469 0.55811 0.50621 0.0
N845 N 1.01269 0.4764 0.46995 0.0
H846 H 0.45291 0.44141 0.94606 0.0
H847 H 0.59277 0.61488 0.02286 0.0
H848 H 0.4453 0.53155 0.94556 0.0
H849 H 0.59434 0.52171 0.02932 0.0
H850 H 0.53976 0.58561 -0.00621 0.0
H851 H 0.50552 0.47129 0.97504 0.0
C852 C 0.46232 0.46761 0.95192 0.0
C853 C 0.44443 0.48393 0.94325 0.0
C854 C 0.55163 0.57153 0.00161 0.0
C855 C 0.50524 0.5185 0.97687 0.0
C856 C 0.58196 0.58821 0.01827 0.0
C857 C 0.5982 0.57076 0.02863 0.0
C858 C 0.53729 0.53708 -0.00497 0.0
C859 C 0.58282 0.53623 0.0219 0.0
C860 C 0.49247 0.48466 0.96862 0.0
C861 C 0.45816 0.51793 0.95166 0.0
N862 N 0.55334 0.52059 0.00549 0.0
N863 N 0.48773 0.53408 0.96802 0.0
H864 H 0.51477 0.9307 0.9512 0.0
H865 H 0.52975 0.09785 0.0286 0.0
H866 H 0.6063 0.02732 0.95094 0.0
H867 H 0.43914 1.00046 0.02979 0.0
H868 H 0.55864 0.07265 0.00054 0.0
H869 H 0.48664 0.95602 0.98007 0.0
C870 C 0.52893 0.9572 0.95711 0.0
C871 C 0.56296 0.97682 0.94855 0.0
C872 C 0.53244 0.05683 0.00705 0.0
C873 C 0.53096 1.00607 0.98174 0.0
C874 C 0.51598 0.07122 0.02314 0.0
C875 C 0.48194 0.05135 0.0316 0.0
C876 C 0.51472 0.02233 -0.00066 0.0
C877 C 0.46537 0.01691 0.02377 0.0
C878 C 0.51289 0.97168 0.97366 0.0
C879 C 0.58003 0.01111 0.95698 0.0
N880 N 0.48185 1.0036 0.0081 0.0
N881 N 0.5639 0.02458 0.97305 0.0
H882 H 0.09208 0.58741 0.93927 0.0
H883 H 0.9288 0.43834 0.02505 0.0
H884 H 0.99647 0.58421 0.94553 0.0
H885 H 0.026 0.44465 0.02213 0.0
H886 H 0.95257 0.49114 -0.00499 0.0
H887 H 0.06764 0.53401 0.96819 0.0
C888 C 0.06594 0.57544 0.94654 0.0
C889 C 0.0464 0.59046 0.93994 0.0
C890 C 0.96867 0.48093 0.00101 0.0
C891 C 0.0182 0.52931 0.97327 0.0
C892 C 0.9551 0.45081 0.01823 0.0
C893 C 0.97535 0.43694 0.02625 0.0
C894 C 1.00272 0.49728 -0.00834 0.0
C895 C 1.00931 0.45427 0.01661 0.0
C896 C 0.05199 0.54497 0.96316 0.0
C897 C 1.01261 0.57371 0.95008 0.0
N898 N 0.02183 0.48337 -0.00013 0.0
N899 N 0.99966 0.54418 0.96623 0.0
loop_
_geom_bond_atom_site_label_1
_geom_bond_atom_site_label_2
_geom_bond_distance
_geom_bond_site_symmetry_2
_ccdc_geom_bond_type
C0 O2 1.247 . S
C0 O4 1.258 . S
C1 O8 1.247 . S
C1 O9 1.258 . S
O2 C0 1.247 . S
O2 Zn3 2.028 1_655 S
Zn3 O2 2.028 1_455 S
Zn3 O7 2.035 1_455 S
Zn3 O9 2.035 . S
Zn3 O10 2.028 . S
O4 C0 1.258 . S
O4 Zn5 2.035 1_655 S
Zn5 O4 2.035 1_455 S
Zn5 O6 2.028 1_455 S
Zn5 O8 2.028 . S
Zn5 O11 2.035 . S
O6 Zn5 2.028 1_655 S
O6 C12 1.247 . S
O7 Zn3 2.035 1_655 S
O7 C12 1.258 . S
O8 C1 1.247 . S
O8 Zn5 2.028 . S
O9 C1 1.258 . S
O9 Zn3 2.035 . S
O10 Zn3 2.028 . S
O10 C13 1.247 . S
O11 Zn5 2.035 . S
O11 C13 1.258 . S
C12 O6 1.247 . S
C12 O7 1.258 . S
C13 O10 1.247 . S
C13 O11 1.258 . S
C14 O16 1.247 . S
C14 O18 1.258 . S
C15 O22 1.247 . S
C15 O23 1.258 . S
O16 C14 1.247 . S
O16 Zn17 2.028 . S
Zn17 O16 2.028 . S
Zn17 O21 2.035 . S
Zn17 O23 2.035 . S
Zn17 O24 2.028 . S
O18 C14 1.258 . S
O18 Zn19 2.035 . S
Zn19 O18 2.035 . S
Zn19 O20 2.028 . S
Zn19 O22 2.028 . S
Zn19 O25 2.035 . S
O20 Zn19 2.028 . S
O20 C26 1.247 . S
O21 Zn17 2.035 . S
O21 C26 1.258 . S
O22 C15 1.247 . S
O22 Zn19 2.028 . S
O23 C15 1.258 . S
O23 Zn17 2.035 . S
O24 Zn17 2.028 . S
O24 C27 1.247 . S
O25 Zn19 2.035 . S
O25 C27 1.258 . S
C26 O20 1.247 . S
C26 O21 1.258 . S
C27 O24 1.247 . S
C27 O25 1.258 . S
C28 O30 1.247 . S
C28 O32 1.258 . S
C29 O36 1.247 . S
C29 O37 1.258 . S
O30 C28 1.247 . S
O30 Zn31 2.028 1_565 S
Zn31 O30 2.028 1_545 S
Zn31 O35 2.035 1_545 S
Zn31 O37 2.035 . S
Zn31 O38 2.028 . S
O32 C28 1.258 . S
O32 Zn33 2.035 1_565 S
Zn33 O32 2.035 1_545 S
Zn33 O34 2.028 1_545 S
Zn33 O36 2.028 . S
Zn33 O39 2.035 . S
O34 Zn33 2.028 1_565 S
O34 C40 1.247 . S
O35 Zn31 2.035 1_565 S
O35 C40 1.258 . S
O36 C29 1.247 . S
O36 Zn33 2.028 . S
O37 C29 1.258 . S
O37 Zn31 2.035 . S
O38 Zn31 2.028 . S
O38 C41 1.247 . S
O39 Zn33 2.035 . S
O39 C41 1.258 . S
C40 O34 1.247 . S
C40 O35 1.258 . S
C41 O38 1.247 . S
C41 O39 1.258 . S
C42 O44 1.247 . S
C42 O46 1.258 . S
C43 O50 1.247 . S
C43 O51 1.258 . S
O44 C42 1.247 . S
O44 Zn45 2.028 1_655 S
Zn45 O44 2.028 1_455 S
Zn45 O49 2.035 1_455 S
Zn45 O51 2.035 . S
Zn45 O52 2.028 . S
O46 C42 1.258 . S
O46 Zn47 2.035 1_655 S
Zn47 O46 2.035 1_455 S
Zn47 O48 2.028 1_455 S
Zn47 O50 2.028 . S
Zn47 O53 2.035 . S
O48 Zn47 2.028 1_655 S
O48 C54 1.247 . S
O49 Zn45 2.035 1_655 S
O49 C54 1.258 . S
O50 C43 1.247 . S
O50 Zn47 2.028 . S
O51 C43 1.258 . S
O51 Zn45 2.035 . S
O52 Zn45 2.028 . S
O52 C55 1.247 . S
O53 Zn47 2.035 . S
O53 C55 1.258 . S
C54 O48 1.247 . S
C54 O49 1.258 . S
C55 O52 1.247 . S
C55 O53 1.258 . S
C56 O58 1.247 . S
C56 O60 1.258 . S
C57 O64 1.247 . S
C57 O65 1.258 . S
O58 C56 1.247 . S
O58 Zn59 2.028 . S
Zn59 O58 2.028 . S
Zn59 O63 2.035 . S
Zn59 O65 2.035 . S
Zn59 O66 2.028 . S
O60 C56 1.258 . S
O60 Zn61 2.035 . S
Zn61 O60 2.035 . S
Zn61 O62 2.028 . S
Zn61 O64 2.028 . S
Zn61 O67 2.035 . S
O62 Zn61 2.028 . S
O62 C68 1.247 . S
O63 Zn59 2.035 . S
O63 C68 1.258 . S
O64 C57 1.247 . S
O64 Zn61 2.028 . S
O65 C57 1.258 . S
O65 Zn59 2.035 . S
O66 Zn59 2.028 . S
O66 C69 1.247 . S
O67 Zn61 2.035 . S
O67 C69 1.258 . S
C68 O62 1.247 . S
C68 O63 1.258 . S
C69 O66 1.247 . S
C69 O67 1.258 . S
C70 O72 1.247 . S
C70 O74 1.258 . S
C71 O78 1.247 . S
C71 O79 1.258 . S
O72 C70 1.247 . S
O72 Zn73 2.028 . S
Zn73 O72 2.028 . S
Zn73 O77 2.035 . S
Zn73 O79 2.035 1_545 S
Zn73 O80 2.028 1_545 S
O74 C70 1.258 . S
O74 Zn75 2.035 . S
Zn75 O74 2.035 . S
Zn75 O76 2.028 . S
Zn75 O78 2.028 1_545 S
Zn75 O81 2.035 1_545 S
O76 Zn75 2.028 . S
O76 C82 1.247 . S
O77 Zn73 2.035 . S
O77 C82 1.258 . S
O78 C71 1.247 . S
O78 Zn75 2.028 1_565 S
O79 C71 1.258 . S
O79 Zn73 2.035 1_565 S
O80 Zn73 2.028 1_565 S
O80 C83 1.247 . S
O81 Zn75 2.035 1_565 S
O81 C83 1.258 . S
C82 O76 1.247 . S
C82 O77 1.258 . S
C83 O80 1.247 . S
C83 O81 1.258 . S
C84 O86 1.247 . S
C84 O88 1.258 . S
C85 O92 1.247 . S
C85 O93 1.258 . S
O86 C84 1.247 . S
O86 Zn87 2.028 . S
Zn87 O86 2.028 . S
Zn87 O91 2.035 . S
Zn87 O93 2.035 . S
Zn87 O94 2.028 . S
O88 C84 1.258 . S
O88 Zn89 2.035 . S
Zn89 O88 2.035 . S
Zn89 O90 2.028 . S
Zn89 O92 2.028 . S
Zn89 O95 2.035 . S
O90 Zn89 2.028 . S
O90 C96 1.247 . S
O91 Zn87 2.035 . S
O91 C96 1.258 . S
O92 C85 1.247 . S
O92 Zn89 2.028 . S
O93 C85 1.258 . S
O93 Zn87 2.035 . S
O94 Zn87 2.028 . S
O94 C97 1.247 . S
O95 Zn89 2.035 . S
O95 C97 1.258 . S
C96 O90 1.247 . S
C96 O91 1.258 . S
C97 O94 1.247 . S
C97 O95 1.258 . S
C98 O100 1.247 . S
C98 O102 1.258 . S
C99 O106 1.247 . S
C99 O107 1.258 . S
O100 C98 1.247 . S
O100 Zn101 2.028 . S
Zn101 O100 2.028 . S
Zn101 O105 2.035 . S
Zn101 O107 2.035 . S
Zn101 O108 2.028 . S
O102 C98 1.258 . S
O102 Zn103 2.035 . S
Zn103 O102 2.035 . S
Zn103 O104 2.028 . S
Zn103 O106 2.028 . S
Zn103 O109 2.035 . S
O104 Zn103 2.028 . S
O104 C110 1.247 . S
O105 Zn101 2.035 . S
O105 C110 1.258 . S
O106 C99 1.247 . S
O106 Zn103 2.028 . S
O107 C99 1.258 . S
O107 Zn101 2.035 . S
O108 Zn101 2.028 . S
O108 C111 1.247 . S
O109 Zn103 2.035 . S
O109 C111 1.258 . S
C110 O104 1.247 . S
C110 O105 1.258 . S
C111 O108 1.247 . S
C111 O109 1.258 . S
C112 O114 1.247 . S
C112 O116 1.258 . S
C113 O120 1.247 . S
C113 O121 1.258 . S
O114 C112 1.247 . S
O114 Zn115 2.028 . S
Zn115 O114 2.028 . S
Zn115 O119 2.035 . S
Zn115 O121 2.035 . S
Zn115 O122 2.028 . S
O116 C112 1.258 . S
O116 Zn117 2.035 . S
Zn117 O116 2.035 . S
Zn117 O118 2.028 . S
Zn117 O120 2.028 . S
Zn117 O123 2.035 . S
O118 Zn117 2.028 . S
O118 C124 1.247 . S
O119 Zn115 2.035 . S
O119 C124 1.258 . S
O120 C113 1.247 . S
O120 Zn117 2.028 . S
O121 C113 1.258 . S
O121 Zn115 2.035 . S
O122 Zn115 2.028 . S
O122 C125 1.247 . S
O123 Zn117 2.035 . S
O123 C125 1.258 . S
C124 O118 1.247 . S
C124 O119 1.258 . S
C125 O122 1.247 . S
C125 O123 1.258 . S
C126 O128 1.247 . S
C126 O130 1.258 . S
C127 O134 1.247 . S
C127 O135 1.258 . S
O128 C126 1.247 . S
O128 Zn129 2.028 . S
Zn129 O128 2.028 . S
Zn129 O133 2.035 . S
Zn129 O135 2.035 . S
Zn129 O136 2.028 . S
O130 C126 1.258 . S
O130 Zn131 2.035 . S
Zn131 O130 2.035 . S
Zn131 O132 2.028 . S
Zn131 O134 2.028 . S
Zn131 O137 2.035 . S
O132 Zn131 2.028 . S
O132 C138 1.247 . S
O133 Zn129 2.035 . S
O133 C138 1.258 . S
O134 C127 1.247 . S
O134 Zn131 2.028 . S
O135 C127 1.258 . S
O135 Zn129 2.035 . S
O136 Zn129 2.028 . S
O136 C139 1.247 . S
O137 Zn131 2.035 . S
O137 C139 1.258 . S
C138 O132 1.247 . S
C138 O133 1.258 . S
C139 O136 1.247 . S
C139 O137 1.258 . S
C140 O142 1.247 . S
C140 O144 1.258 . S
C141 O148 1.247 . S
C141 O149 1.258 . S
O142 C140 1.247 . S
O142 Zn143 2.028 . S
Zn143 O142 2.028 . S
Zn143 O147 2.035 . S
Zn143 O149 2.035 . S
Zn143 O150 2.028 . S
O144 C140 1.258 . S
O144 Zn145 2.035 . S
Zn145 O144 2.035 . S
Zn145 O146 2.028 . S
Zn145 O148 2.028 . S
Zn145 O151 2.035 . S
O146 Zn145 2.028 . S
O146 C152 1.247 . S
O147 Zn143 2.035 . S
O147 C152 1.258 . S
O148 C141 1.247 . S
O148 Zn145 2.028 . S
O149 C141 1.258 . S
O149 Zn143 2.035 . S
O150 Zn143 2.028 . S
O150 C153 1.247 . S
O151 Zn145 2.035 . S
O151 C153 1.258 . S
C152 O146 1.247 . S
C152 O147 1.258 . S
C153 O150 1.247 . S
C153 O151 1.258 . S
C154 O156 1.247 . S
C154 O158 1.258 . S
C155 O162 1.247 . S
C155 O163 1.258 . S
O156 C154 1.247 . S
O156 Zn157 2.028 . S
Zn157 O156 2.028 . S
Zn157 O161 2.035 . S
Zn157 O163 2.035 . S
Zn157 O164 2.028 . S
O158 C154 1.258 . S
O158 Zn159 2.035 . S
Zn159 O158 2.035 . S
Zn159 O160 2.028 . S
Zn159 O162 2.028 . S
Zn159 O165 2.035 . S
O160 Zn159 2.028 . S
O160 C166 1.247 . S
O161 Zn157 2.035 . S
O161 C166 1.258 . S
O162 C155 1.247 . S
O162 Zn159 2.028 . S
O163 C155 1.258 . S
O163 Zn157 2.035 . S
O164 Zn157 2.028 . S
O164 C167 1.247 . S
O165 Zn159 2.035 . S
O165 C167 1.258 . S
C166 O160 1.247 . S
C166 O161 1.258 . S
C167 O164 1.247 . S
C167 O165 1.258 . S
C168 O170 1.247 . S
C168 O172 1.258 . S
C169 O176 1.247 . S
C169 O177 1.258 . S
O170 C168 1.247 . S
O170 Zn171 2.028 . S
Zn171 O170 2.028 . S
Zn171 O175 2.035 . S
Zn171 O177 2.035 . S
Zn171 O178 2.028 . S
O172 C168 1.258 . S
O172 Zn173 2.035 . S
Zn173 O172 2.035 . S
Zn173 O174 2.028 . S
Zn173 O176 2.028 . S
Zn173 O179 2.035 . S
O174 Zn173 2.028 . S
O174 C180 1.247 . S
O175 Zn171 2.035 . S
O175 C180 1.258 . S
O176 C169 1.247 . S
O176 Zn173 2.028 . S
O177 C169 1.258 . S
O177 Zn171 2.035 . S
O178 Zn171 2.028 . S
O178 C181 1.247 . S
O179 Zn173 2.035 . S
O179 C181 1.258 . S
C180 O174 1.247 . S
C180 O175 1.258 . S
C181 O178 1.247 . S
C181 O179 1.258 . S
C182 O184 1.247 . S
C182 O186 1.258 . S
C183 O190 1.247 . S
C183 O191 1.258 . S
O184 C182 1.247 . S
O184 Zn185 2.028 . S
Zn185 O184 2.028 . S
Zn185 O189 2.035 . S
Zn185 O191 2.035 . S
Zn185 O192 2.028 . S
O186 C182 1.258 . S
O186 Zn187 2.035 . S
Zn187 O186 2.035 . S
Zn187 O188 2.028 . S
Zn187 O190 2.028 . S
Zn187 O193 2.035 . S
O188 Zn187 2.028 . S
O188 C194 1.247 . S
O189 Zn185 2.035 . S
O189 C194 1.258 . S
O190 C183 1.247 . S
O190 Zn187 2.028 . S
O191 C183 1.258 . S
O191 Zn185 2.035 . S
O192 Zn185 2.028 . S
O192 C195 1.247 . S
O193 Zn187 2.035 . S
O193 C195 1.258 . S
C194 O188 1.247 . S
C194 O189 1.258 . S
C195 O192 1.247 . S
C195 O193 1.258 . S
C196 O198 1.247 . S
C196 O200 1.258 . S
C197 O204 1.247 . S
C197 O205 1.258 . S
O198 C196 1.247 . S
O198 Zn199 2.028 . S
Zn199 O198 2.028 . S
Zn199 O203 2.035 . S
Zn199 O205 2.035 . S
Zn199 O206 2.028 . S
O200 C196 1.258 . S
O200 Zn201 2.035 . S
Zn201 O200 2.035 . S
Zn201 O202 2.028 . S
Zn201 O204 2.028 . S
Zn201 O207 2.035 . S
O202 Zn201 2.028 . S
O202 C208 1.247 . S
O203 Zn199 2.035 . S
O203 C208 1.258 . S
O204 C197 1.247 . S
O204 Zn201 2.028 . S
O205 C197 1.258 . S
O205 Zn199 2.035 . S
O206 Zn199 2.028 . S
O206 C209 1.247 . S
O207 Zn201 2.035 . S
O207 C209 1.258 . S
C208 O202 1.247 . S
C208 O203 1.258 . S
C209 O206 1.247 . S
C209 O207 1.258 . S
C210 O212 1.247 . S
C210 O214 1.258 . S
C211 O218 1.247 . S
C211 O219 1.258 . S
O212 C210 1.247 . S
O212 Zn213 2.028 . S
Zn213 O212 2.028 . S
Zn213 O217 2.035 . S
Zn213 O219 2.035 . S
Zn213 O220 2.028 . S
O214 C210 1.258 . S
O214 Zn215 2.035 . S
Zn215 O214 2.035 . S
Zn215 O216 2.028 . S
Zn215 O218 2.028 . S
Zn215 O221 2.035 . S
O216 Zn215 2.028 . S
O216 C222 1.247 . S
O217 Zn213 2.035 . S
O217 C222 1.258 . S
O218 C211 1.247 . S
O218 Zn215 2.028 . S
O219 C211 1.258 . S
O219 Zn213 2.035 . S
O220 Zn213 2.028 . S
O220 C223 1.247 . S
O221 Zn215 2.035 . S
O221 C223 1.258 . S
C222 O216 1.247 . S
C222 O217 1.258 . S
C223 O220 1.247 . S
C223 O221 1.258 . S
C224 O226 1.247 . S
C224 O228 1.258 . S
C225 O232 1.247 . S
C225 O233 1.258 . S
O226 C224 1.247 . S
O226 Zn227 2.028 . S
Zn227 O226 2.028 . S
Zn227 O231 2.035 . S
Zn227 O233 2.035 . S
Zn227 O234 2.028 . S
O228 C224 1.258 . S
O228 Zn229 2.035 . S
Zn229 O228 2.035 . S
Zn229 O230 2.028 . S
Zn229 O232 2.028 . S
Zn229 O235 2.035 . S
O230 Zn229 2.028 . S
O230 C236 1.247 . S
O231 Zn227 2.035 . S
O231 C236 1.258 . S
O232 C225 1.247 . S
O232 Zn229 2.028 . S
O233 C225 1.258 . S
O233 Zn227 2.035 . S
O234 Zn227 2.028 . S
O234 C237 1.247 . S
O235 Zn229 2.035 . S
O235 C237 1.258 . S
C236 O230 1.247 . S
C236 O231 1.258 . S
C237 O234 1.247 . S
C237 O235 1.258 . S
C238 O240 1.247 . S
C238 O242 1.258 . S
C239 O246 1.247 . S
C239 O247 1.258 . S
O240 C238 1.247 . S
O240 Zn241 2.028 . S
Zn241 O240 2.028 . S
Zn241 O245 2.035 . S
Zn241 O247 2.035 . S
Zn241 O248 2.028 . S
O242 C238 1.258 . S
O242 Zn243 2.035 . S
Zn243 O242 2.035 . S
Zn243 O244 2.028 . S
Zn243 O246 2.028 . S
Zn243 O249 2.035 . S
O244 Zn243 2.028 . S
O244 C250 1.247 . S
O245 Zn241 2.035 . S
O245 C250 1.258 . S
O246 C239 1.247 . S
O246 Zn243 2.028 . S
O247 C239 1.258 . S
O247 Zn241 2.035 . S
O248 Zn241 2.028 . S
O248 C251 1.247 . S
O249 Zn243 2.035 . S
O249 C251 1.258 . S
C250 O244 1.247 . S
C250 O245 1.258 . S
C251 O248 1.247 . S
C251 O249 1.258 . S
H252 C258 0.930 . S
H253 C262 0.930 . S
H254 C267 0.929 . S
H255 C265 0.929 . S
H256 C260 0.929 . S
H257 C266 0.929 . S
C258 H252 0.930 . S
C258 C259 1.367 . S
C258 C266 1.378 . S
C259 C258 1.367 . S
C259 C267 1.433 . S
C260 H256 0.929 . S
C260 C262 1.378 . S
C260 C264 1.350 . S
C261 C264 1.463 . S
C261 C266 1.350 . S
C261 N269 1.427 . S
C262 H253 0.930 . S
C262 C260 1.378 . S
C262 C263 1.367 . S
C263 C262 1.367 . S
C263 C265 1.433 . S
C264 C260 1.350 . S
C264 C261 1.463 . S
C264 N268 1.427 . S
C265 H255 0.929 . S
C265 C263 1.433 . S
C265 N268 1.384 . S
C266 H257 0.929 . S
C266 C258 1.378 . S
C266 C261 1.350 . S
C267 H254 0.929 . S
C267 C259 1.433 . S
C267 N269 1.384 . S
N268 C264 1.427 . S
N268 C265 1.384 . S
N269 C261 1.427 . S
N269 C267 1.384 . S
H270 C276 0.930 . S
H271 C280 0.930 . S
H272 C285 0.929 1_556 S
H273 C283 0.929 . S
H274 C278 0.929 . S
H275 C284 0.929 . S
C276 H270 0.930 . S
C276 C277 1.367 . S
C276 C284 1.378 . S
C277 C276 1.367 . S
C277 C285 1.433 . S
C278 H274 0.929 . S
C278 C280 1.378 . S
C278 C282 1.350 . S
C279 C282 1.463 . S
C279 C284 1.350 . S
C279 N287 1.427 . S
C280 H271 0.930 . S
C280 C278 1.378 . S
C280 C281 1.367 . S
C281 C280 1.367 . S
C281 C283 1.433 . S
C282 C278 1.350 . S
C282 C279 1.463 . S
C282 N286 1.427 . S
C283 H273 0.929 . S
C283 C281 1.433 . S
C283 N286 1.384 . S
C284 H275 0.929 . S
C284 C276 1.378 . S
C284 C279 1.350 . S
C285 H272 0.929 1_554 S
C285 C277 1.433 . S
C285 N287 1.384 . S
N286 C282 1.427 . S
N286 C283 1.384 . S
N287 C279 1.427 . S
N287 C285 1.384 . S
H288 C294 0.930 1_545 S
H289 C298 0.930 . S
H290 C303 0.929 . S
H291 C301 0.929 1_556 S
H292 C296 0.929 . S
H293 C302 0.929 . S
C294 H288 0.930 1_565 S
C294 C295 1.367 . S
C294 C302 1.378 . S
C295 C294 1.367 . S
C295 C303 1.433 . S
C296 H292 0.929 . S
C296 C298 1.378 . S
C296 C300 1.350 . S
C297 C300 1.463 . S
C297 C302 1.350 . S
C297 N305 1.427 . S
C298 H289 0.930 . S
C298 C296 1.378 . S
C298 C299 1.367 . S
C299 C298 1.367 . S
C299 C301 1.433 . S
C300 C296 1.350 . S
C300 C297 1.463 . S
C300 N304 1.427 . S
C301 H291 0.929 1_554 S
C301 C299 1.433 . S
C301 N304 1.384 . S
C302 H293 0.929 . S
C302 C294 1.378 . S
C302 C297 1.350 . S
C303 H290 0.929 . S
C303 C295 1.433 . S
C303 N305 1.384 . S
N304 C300 1.427 . S
N304 C301 1.384 . S
N305 C297 1.427 . S
N305 C303 1.384 . S
H306 C312 0.930 . S
H307 C316 0.930 . S
H308 C321 0.929 . S
H309 C319 0.929 . S
H310 C314 0.929 . S
H311 C320 0.929 . S
C312 H306 0.930 . S
C312 C313 1.367 . S
C312 C320 1.378 . S
C313 C312 1.367 . S
C313 C321 1.433 . S
C314 H310 0.929 . S
C314 C316 1.378 . S
C314 C318 1.350 . S
C315 C318 1.463 . S
C315 C320 1.350 . S
C315 N323 1.427 . S
C316 H307 0.930 . S
C316 C314 1.378 . S
C316 C317 1.367 . S
C317 C316 1.367 . S
C317 C319 1.433 . S
C318 C314 1.350 . S
C318 C315 1.463 . S
C318 N322 1.427 . S
C319 H309 0.929 . S
C319 C317 1.433 . S
C319 N322 1.384 . S
C320 H311 0.929 . S
C320 C312 1.378 . S
C320 C315 1.350 . S
C321 H308 0.929 . S
C321 C313 1.433 . S
C321 N323 1.384 . S
N322 C318 1.427 . S
N322 C319 1.384 . S
N323 C315 1.427 . S
N323 C321 1.384 . S
H324 C330 0.930 . S
H325 C334 0.930 . S
H326 C339 0.929 . S
H327 C337 0.929 . S
H328 C332 0.929 . S
H329 C338 0.929 . S
C330 H324 0.930 . S
C330 C331 1.367 . S
C330 C338 1.378 . S
C331 C330 1.367 . S
C331 C339 1.433 . S
C332 H328 0.929 . S
C332 C334 1.378 . S
C332 C336 1.350 . S
C333 C336 1.463 . S
C333 C338 1.350 . S
C333 N341 1.427 . S
C334 H325 0.930 . S
C334 C332 1.378 . S
C334 C335 1.367 . S
C335 C334 1.367 . S
C335 C337 1.433 . S
C336 C332 1.350 . S
C336 C333 1.463 . S
C336 N340 1.427 . S
C337 H327 0.929 . S
C337 C335 1.433 . S
C337 N340 1.384 . S
C338 H329 0.929 . S
C338 C330 1.378 . S
C338 C333 1.350 . S
C339 H326 0.929 . S
C339 C331 1.433 . S
C339 N341 1.384 . S
N340 C336 1.427 . S
N340 C337 1.384 . S
N341 C333 1.427 . S
N341 C339 1.384 . S
H342 C348 0.930 . S
H343 C352 0.930 . S
H344 C357 0.929 . S
H345 C355 0.929 . S
H346 C350 0.929 . S
H347 C356 0.929 . S
C348 H342 0.930 . S
C348 C349 1.367 . S
C348 C356 1.378 . S
C349 C348 1.367 . S
C349 C357 1.433 . S
C350 H346 0.929 . S
C350 C352 1.378 . S
C350 C354 1.350 . S
C351 C354 1.463 . S
C351 C356 1.350 . S
C351 N359 1.427 . S
C352 H343 0.930 . S
C352 C350 1.378 . S
C352 C353 1.367 . S
C353 C352 1.367 . S
C353 C355 1.433 . S
C354 C350 1.350 . S
C354 C351 1.463 . S
C354 N358 1.427 . S
C355 H345 0.929 . S
C355 C353 1.433 . S
C355 N358 1.384 . S
C356 H347 0.929 . S
C356 C348 1.378 . S
C356 C351 1.350 . S
C357 H344 0.929 . S
C357 C349 1.433 . S
C357 N359 1.384 . S
N358 C354 1.427 . S
N358 C355 1.384 . S
N359 C351 1.427 . S
N359 C357 1.384 . S
H360 C366 0.930 . S
H361 C370 0.930 1_554 S
H362 C375 0.929 . S
H363 C373 0.929 . S
H364 C368 0.929 . S
H365 C374 0.929 . S
C366 H360 0.930 . S
C366 C367 1.367 . S
C366 C374 1.378 . S
C367 C366 1.367 . S
C367 C375 1.433 . S
C368 H364 0.929 . S
C368 C370 1.378 . S
C368 C372 1.350 . S
C369 C372 1.463 . S
C369 C374 1.350 . S
C369 N377 1.427 . S
C370 H361 0.930 1_556 S
C370 C368 1.378 . S
C370 C371 1.367 . S
C371 C370 1.367 . S
C371 C373 1.433 . S
C372 C368 1.350 . S
C372 C369 1.463 . S
C372 N376 1.427 . S
C373 H363 0.929 . S
C373 C371 1.433 . S
C373 N376 1.384 . S
C374 H365 0.929 . S
C374 C366 1.378 . S
C374 C369 1.350 . S
C375 H362 0.929 . S
C375 C367 1.433 . S
C375 N377 1.384 . S
N376 C372 1.427 . S
N376 C373 1.384 . S
N377 C369 1.427 . S
N377 C375 1.384 . S
H378 C384 0.930 . S
H379 C388 0.930 . S
H380 C393 0.929 1_554 S
H381 C391 0.929 . S
H382 C386 0.929 . S
H383 C392 0.929 . S
C384 H378 0.930 . S
C384 C385 1.367 . S
C384 C392 1.378 . S
C385 C384 1.367 . S
C385 C393 1.433 . S
C386 H382 0.929 . S
C386 C388 1.378 . S
C386 C390 1.350 . S
C387 C390 1.463 . S
C387 C392 1.350 . S
C387 N395 1.427 . S
C388 H379 0.930 . S
C388 C386 1.378 . S
C388 C389 1.367 . S
C389 C388 1.367 . S
C389 C391 1.433 . S
C390 C386 1.350 . S
C390 C387 1.463 . S
C390 N394 1.427 . S
C391 H381 0.929 . S
C391 C389 1.433 . S
C391 N394 1.384 . S
C392 H383 0.929 . S
C392 C384 1.378 . S
C392 C387 1.350 . S
C393 H380 0.929 1_556 S
C393 C385 1.433 . S
C393 N395 1.384 . S
N394 C390 1.427 . S
N394 C391 1.384 . S
N395 C387 1.427 . S
N395 C393 1.384 . S
H396 C402 0.930 . S
H397 C406 0.930 . S
H398 C411 0.929 1_554 S
H399 C409 0.929 . S
H400 C404 0.929 . S
H401 C410 0.929 . S
C402 H396 0.930 . S
C402 C403 1.367 . S
C402 C410 1.378 . S
C403 C402 1.367 . S
C403 C411 1.433 . S
C404 H400 0.929 . S
C404 C406 1.378 . S
C404 C408 1.350 . S
C405 C408 1.463 . S
C405 C410 1.350 . S
C405 N413 1.427 . S
C406 H397 0.930 . S
C406 C404 1.378 . S
C406 C407 1.367 . S
C407 C406 1.367 . S
C407 C409 1.433 . S
C408 C404 1.350 . S
C408 C405 1.463 . S
C408 N412 1.427 . S
C409 H399 0.929 . S
C409 C407 1.433 . S
C409 N412 1.384 . S
C410 H401 0.929 . S
C410 C402 1.378 . S
C410 C405 1.350 . S
C411 H398 0.929 1_556 S
C411 C403 1.433 . S
C411 N413 1.384 . S
N412 C408 1.427 . S
N412 C409 1.384 . S
N413 C405 1.427 . S
N413 C411 1.384 . S
H414 C420 0.930 1_545 S
H415 C424 0.930 . S
H416 C429 0.929 . S
H417 C427 0.929 . S
H418 C422 0.929 . S
H419 C428 0.929 1_545 S
C420 H414 0.930 1_565 S
C420 C421 1.367 . S
C420 C428 1.378 . S
C421 C420 1.367 . S
C421 C429 1.433 . S
C422 H418 0.929 . S
C422 C424 1.378 . S
C422 C426 1.350 . S
C423 C426 1.463 . S
C423 C428 1.350 . S
C423 N431 1.427 . S
C424 H415 0.930 . S
C424 C422 1.378 . S
C424 C425 1.367 . S
C425 C424 1.367 . S
C425 C427 1.433 . S
C426 C422 1.350 . S
C426 C423 1.463 . S
C426 N430 1.427 . S
C427 H417 0.929 . S
C427 C425 1.433 . S
C427 N430 1.384 . S
C428 H419 0.929 1_565 S
C428 C420 1.378 . S
C428 C423 1.350 . S
C429 H416 0.929 . S
C429 C421 1.433 . S
C429 N431 1.384 . S
N430 C426 1.427 . S
N430 C427 1.384 . S
N431 C423 1.427 . S
N431 C429 1.384 . S
H432 C438 0.930 . S
H433 C442 0.930 . S
H434 C447 0.929 1_655 S
H435 C445 0.929 . S
H436 C440 0.929 . S
H437 C446 0.929 . S
C438 H432 0.930 . S
C438 C439 1.367 . S
C438 C446 1.378 . S
C439 C438 1.367 . S
C439 C447 1.433 . S
C440 H436 0.929 . S
C440 C442 1.378 . S
C440 C444 1.350 . S
C441 C444 1.463 . S
C441 C446 1.350 . S
C441 N449 1.427 . S
C442 H433 0.930 . S
C442 C440 1.378 . S
C442 C443 1.367 . S
C443 C442 1.367 . S
C443 C445 1.433 . S
C444 C440 1.350 . S
C444 C441 1.463 . S
C444 N448 1.427 . S
C445 H435 0.929 . S
C445 C443 1.433 . S
C445 N448 1.384 . S
C446 H437 0.929 . S
C446 C438 1.378 . S
C446 C441 1.350 . S
C447 H434 0.929 1_455 S
C447 C439 1.433 . S
C447 N449 1.384 . S
N448 C444 1.427 . S
N448 C445 1.384 . S
N449 C441 1.427 . S
N449 C447 1.384 . S
H450 C456 0.930 . S
H451 C460 0.930 . S
H452 C465 0.929 . S
H453 C463 0.929 . S
H454 C458 0.929 . S
H455 C464 0.929 . S
C456 H450 0.930 . S
C456 C457 1.367 . S
C456 C464 1.378 . S
C457 C456 1.367 . S
C457 C465 1.433 . S
C458 H454 0.929 . S
C458 C460 1.378 . S
C458 C462 1.350 . S
C459 C462 1.463 . S
C459 C464 1.350 . S
C459 N467 1.427 . S
C460 H451 0.930 . S
C460 C458 1.378 . S
C460 C461 1.367 . S
C461 C460 1.367 . S
C461 C463 1.433 . S
C462 C458 1.350 . S
C462 C459 1.463 . S
C462 N466 1.427 . S
C463 H453 0.929 . S
C463 C461 1.433 . S
C463 N466 1.384 . S
C464 H455 0.929 . S
C464 C456 1.378 . S
C464 C459 1.350 . S
C465 H452 0.929 . S
C465 C457 1.433 . S
C465 N467 1.384 . S
N466 C462 1.427 . S
N466 C463 1.384 . S
N467 C459 1.427 . S
N467 C465 1.384 . S
H468 C474 0.930 . S
H469 C478 0.930 . S
H470 C483 0.929 . S
H471 C481 0.929 . S
H472 C476 0.929 . S
H473 C482 0.929 . S
C474 H468 0.930 . S
C474 C475 1.367 . S
C474 C482 1.378 . S
C475 C474 1.367 . S
C475 C483 1.433 . S
C476 H472 0.929 . S
C476 C478 1.378 . S
C476 C480 1.350 . S
C477 C480 1.463 . S
C477 C482 1.350 . S
C477 N485 1.427 . S
C478 H469 0.930 . S
C478 C476 1.378 . S
C478 C479 1.367 . S
C479 C478 1.367 . S
C479 C481 1.433 . S
C480 C476 1.350 . S
C480 C477 1.463 . S
C480 N484 1.427 . S
C481 H471 0.929 . S
C481 C479 1.433 . S
C481 N484 1.384 . S
C482 H473 0.929 . S
C482 C474 1.378 . S
C482 C477 1.350 . S
C483 H470 0.929 . S
C483 C475 1.433 . S
C483 N485 1.384 . S
N484 C480 1.427 . S
N484 C481 1.384 . S
N485 C477 1.427 . S
N485 C483 1.384 . S
H486 C492 0.930 . S
H487 C496 0.930 . S
H488 C501 0.929 . S
H489 C499 0.929 . S
H490 C494 0.929 . S
H491 C500 0.929 . S
C492 H486 0.930 . S
C492 C493 1.367 . S
C492 C500 1.378 . S
C493 C492 1.367 . S
C493 C501 1.433 . S
C494 H490 0.929 . S
C494 C496 1.378 . S
C494 C498 1.350 . S
C495 C498 1.463 1_545 S
C495 C500 1.350 . S
C495 N503 1.427 . S
C496 H487 0.930 . S
C496 C494 1.378 . S
C496 C497 1.367 . S
C497 C496 1.367 . S
C497 C499 1.433 . S
C498 C494 1.350 . S
C498 C495 1.463 1_565 S
C498 N502 1.427 1_565 S
C499 H489 0.929 . S
C499 C497 1.433 . S
C499 N502 1.384 1_565 S
C500 H491 0.929 . S
C500 C492 1.378 . S
C500 C495 1.350 . S
C501 H488 0.929 . S
C501 C493 1.433 . S
C501 N503 1.384 . S
N502 C498 1.427 1_545 S
N502 C499 1.384 1_545 S
N503 C495 1.427 . S
N503 C501 1.384 . S
H504 C510 0.930 . S
H505 C514 0.930 . S
H506 C519 0.929 . S
H507 C517 0.929 . S
H508 C512 0.929 . S
H509 C518 0.929 . S
C510 H504 0.930 . S
C510 C511 1.367 . S
C510 C518 1.378 . S
C511 C510 1.367 . S
C511 C519 1.433 . S
C512 H508 0.929 . S
C512 C514 1.378 . S
C512 C516 1.350 . S
C513 C516 1.463 1_455 S
C513 C518 1.350 . S
C513 N521 1.427 . S
C514 H505 0.930 . S
C514 C512 1.378 . S
C514 C515 1.367 . S
C515 C514 1.367 . S
C515 C517 1.433 . S
C516 C512 1.350 . S
C516 C513 1.463 1_655 S
C516 N520 1.427 . S
C517 H507 0.929 . S
C517 C515 1.433 . S
C517 N520 1.384 . S
C518 H509 0.929 . S
C518 C510 1.378 . S
C518 C513 1.350 . S
C519 H506 0.929 . S
C519 C511 1.433 . S
C519 N521 1.384 . S
N520 C516 1.427 . S
N520 C517 1.384 . S
N521 C513 1.427 . S
N521 C519 1.384 . S
H522 C528 0.930 . S
H523 C532 0.930 . S
H524 C537 0.929 . S
H525 C535 0.929 . S
H526 C530 0.929 . S
H527 C536 0.929 . S
C528 H522 0.930 . S
C528 C529 1.367 . S
C528 C536 1.378 . S
C529 C528 1.367 . S
C529 C537 1.433 . S
C530 H526 0.929 . S
C530 C532 1.378 . S
C530 C534 1.350 . S
C531 C534 1.463 . S
C531 C536 1.350 . S
C531 N539 1.427 . S
C532 H523 0.930 . S
C532 C530 1.378 . S
C532 C533 1.367 . S
C533 C532 1.367 . S
C533 C535 1.433 . S
C534 C530 1.350 . S
C534 C531 1.463 . S
C534 N538 1.427 . S
C535 H525 0.929 . S
C535 C533 1.433 . S
C535 N538 1.384 . S
C536 H527 0.929 . S
C536 C528 1.378 . S
C536 C531 1.350 . S
C537 H524 0.929 . S
C537 C529 1.433 . S
C537 N539 1.384 . S
N538 C534 1.427 . S
N538 C535 1.384 . S
N539 C531 1.427 . S
N539 C537 1.384 . S
H540 C546 0.930 . S
H541 C550 0.930 . S
H542 C555 0.929 . S
H543 C553 0.929 . S
H544 C548 0.929 . S
H545 C554 0.929 1_565 S
C546 H540 0.930 . S
C546 C547 1.367 . S
C546 C554 1.378 . S
C547 C546 1.367 . S
C547 C555 1.433 . S
C548 H544 0.929 . S
C548 C550 1.378 1_545 S
C548 C552 1.350 1_545 S
C549 C552 1.463 1_545 S
C549 C554 1.350 . S
C549 N557 1.427 . S
C550 H541 0.930 . S
C550 C548 1.378 1_565 S
C550 C551 1.367 . S
C551 C550 1.367 . S
C551 C553 1.433 . S
C552 C548 1.350 1_565 S
C552 C549 1.463 1_565 S
C552 N556 1.427 . S
C553 H543 0.929 . S
C553 C551 1.433 . S
C553 N556 1.384 . S
C554 H545 0.929 1_545 S
C554 C546 1.378 . S
C554 C549 1.350 . S
C555 H542 0.929 . S
C555 C547 1.433 . S
C555 N557 1.384 . S
N556 C552 1.427 . S
N556 C553 1.384 . S
N557 C549 1.427 . S
N557 C555 1.384 . S
H558 C564 0.930 . S
H559 C568 0.930 . S
H560 C573 0.929 . S
H561 C571 0.929 . S
H562 C566 0.929 . S
H563 C572 0.929 . S
C564 H558 0.930 . S
C564 C565 1.367 . S
C564 C572 1.378 . S
C565 C564 1.367 . S
C565 C573 1.433 . S
C566 H562 0.929 . S
C566 C568 1.378 . S
C566 C570 1.350 . S
C567 C570 1.463 1_455 S
C567 C572 1.350 . S
C567 N575 1.427 . S
C568 H559 0.930 . S
C568 C566 1.378 . S
C568 C569 1.367 . S
C569 C568 1.367 . S
C569 C571 1.433 . S
C570 C566 1.350 . S
C570 C567 1.463 1_655 S
C570 N574 1.427 . S
C571 H561 0.929 . S
C571 C569 1.433 . S
C571 N574 1.384 . S
C572 H563 0.929 . S
C572 C564 1.378 . S
C572 C567 1.350 . S
C573 H560 0.929 . S
C573 C565 1.433 . S
C573 N575 1.384 . S
N574 C570 1.427 . S
N574 C571 1.384 . S
N575 C567 1.427 . S
N575 C573 1.384 . S
H576 C582 0.930 . S
H577 C586 0.930 . S
H578 C591 0.929 . S
H579 C589 0.929 . S
H580 C584 0.929 . S
H581 C590 0.929 . S
C582 H576 0.930 . S
C582 C583 1.367 . S
C582 C590 1.378 . S
C583 C582 1.367 . S
C583 C591 1.433 . S
C584 H580 0.929 . S
C584 C586 1.378 . S
C584 C588 1.350 . S
C585 C588 1.463 . S
C585 C590 1.350 . S
C585 N593 1.427 . S
C586 H577 0.930 . S
C586 C584 1.378 . S
C586 C587 1.367 . S
C587 C586 1.367 . S
C587 C589 1.433 . S
C588 C584 1.350 . S
C588 C585 1.463 . S
C588 N592 1.427 . S
C589 H579 0.929 . S
C589 C587 1.433 . S
C589 N592 1.384 . S
C590 H581 0.929 . S
C590 C582 1.378 . S
C590 C585 1.350 . S
C591 H578 0.929 . S
C591 C583 1.433 . S
C591 N593 1.384 . S
N592 C588 1.427 . S
N592 C589 1.384 . S
N593 C585 1.427 . S
N593 C591 1.384 . S
H594 C600 0.930 . S
H595 C604 0.930 . S
H596 C609 0.929 . S
H597 C607 0.929 . S
H598 C602 0.929 . S
H599 C608 0.929 . S
C600 H594 0.930 . S
C600 C601 1.367 . S
C600 C608 1.378 . S
C601 C600 1.367 . S
C601 C609 1.433 . S
C602 H598 0.929 . S
C602 C604 1.378 . S
C602 C606 1.350 . S
C603 C606 1.463 . S
C603 C608 1.350 . S
C603 N611 1.427 . S
C604 H595 0.930 . S
C604 C602 1.378 . S
C604 C605 1.367 . S
C605 C604 1.367 . S
C605 C607 1.433 . S
C606 C602 1.350 . S
C606 C603 1.463 . S
C606 N610 1.427 . S
C607 H597 0.929 . S
C607 C605 1.433 . S
C607 N610 1.384 . S
C608 H599 0.929 . S
C608 C600 1.378 . S
C608 C603 1.350 . S
C609 H596 0.929 . S
C609 C601 1.433 . S
C609 N611 1.384 . S
N610 C606 1.427 . S
N610 C607 1.384 . S
N611 C603 1.427 . S
N611 C609 1.384 . S
H612 C618 0.930 . S
H613 C622 0.930 . S
H614 C627 0.929 . S
H615 C625 0.929 . S
H616 C620 0.929 . S
H617 C626 0.929 . S
C618 H612 0.930 . S
C618 C619 1.367 . S
C618 C626 1.378 . S
C619 C618 1.367 . S
C619 C627 1.433 . S
C620 H616 0.929 . S
C620 C622 1.378 . S
C620 C624 1.350 . S
C621 C624 1.463 . S
C621 C626 1.350 . S
C621 N629 1.427 . S
C622 H613 0.930 . S
C622 C620 1.378 . S
C622 C623 1.367 . S
C623 C622 1.367 . S
C623 C625 1.433 . S
C624 C620 1.350 . S
C624 C621 1.463 . S
C624 N628 1.427 . S
C625 H615 0.929 . S
C625 C623 1.433 . S
C625 N628 1.384 . S
C626 H617 0.929 . S
C626 C618 1.378 . S
C626 C621 1.350 . S
C627 H614 0.929 . S
C627 C619 1.433 . S
C627 N629 1.384 . S
N628 C624 1.427 . S
N628 C625 1.384 . S
N629 C621 1.427 . S
N629 C627 1.384 . S
H630 C636 0.930 . S
H631 C640 0.930 . S
H632 C645 0.929 . S
H633 C643 0.929 . S
H634 C638 0.929 . S
H635 C644 0.929 . S
C636 H630 0.930 . S
C636 C637 1.367 . S
C636 C644 1.378 . S
C637 C636 1.367 . S
C637 C645 1.433 . S
C638 H634 0.929 . S
C638 C640 1.378 . S
C638 C642 1.350 . S
C639 C642 1.463 . S
C639 C644 1.350 . S
C639 N647 1.427 . S
C640 H631 0.930 . S
C640 C638 1.378 . S
C640 C641 1.367 . S
C641 C640 1.367 . S
C641 C643 1.433 . S
C642 C638 1.350 . S
C642 C639 1.463 . S
C642 N646 1.427 . S
C643 H633 0.929 . S
C643 C641 1.433 . S
C643 N646 1.384 . S
C644 H635 0.929 . S
C644 C636 1.378 . S
C644 C639 1.350 . S
C645 H632 0.929 . S
C645 C637 1.433 . S
C645 N647 1.384 . S
N646 C642 1.427 . S
N646 C643 1.384 . S
N647 C639 1.427 . S
N647 C645 1.384 . S
H648 C654 0.930 . S
H649 C658 0.930 . S
H650 C663 0.929 . S
H651 C661 0.929 . S
H652 C656 0.929 . S
H653 C662 0.929 . S
C654 H648 0.930 . S
C654 C655 1.367 . S
C654 C662 1.378 . S
C655 C654 1.367 . S
C655 C663 1.433 . S
C656 H652 0.929 . S
C656 C658 1.378 . S
C656 C660 1.350 . S
C657 C660 1.463 . S
C657 C662 1.350 . S
C657 N665 1.427 . S
C658 H649 0.930 . S
C658 C656 1.378 . S
C658 C659 1.367 . S
C659 C658 1.367 . S
C659 C661 1.433 . S
C660 C656 1.350 . S
C660 C657 1.463 . S
C660 N664 1.427 . S
C661 H651 0.929 . S
C661 C659 1.433 . S
C661 N664 1.384 . S
C662 H653 0.929 . S
C662 C654 1.378 . S
C662 C657 1.350 . S
C663 H650 0.929 . S
C663 C655 1.433 . S
C663 N665 1.384 . S
N664 C660 1.427 . S
N664 C661 1.384 . S
N665 C657 1.427 . S
N665 C663 1.384 . S
H666 C672 0.930 . S
H667 C676 0.930 . S
H668 C681 0.929 . S
H669 C679 0.929 . S
H670 C674 0.929 . S
H671 C680 0.929 . S
C672 H666 0.930 . S
C672 C673 1.367 . S
C672 C680 1.378 . S
C673 C672 1.367 . S
C673 C681 1.433 . S
C674 H670 0.929 . S
C674 C676 1.378 . S
C674 C678 1.350 . S
C675 C678 1.463 . S
C675 C680 1.350 . S
C675 N683 1.427 . S
C676 H667 0.930 . S
C676 C674 1.378 . S
C676 C677 1.367 . S
C677 C676 1.367 . S
C677 C679 1.433 . S
C678 C674 1.350 . S
C678 C675 1.463 . S
C678 N682 1.427 . S
C679 H669 0.929 . S
C679 C677 1.433 . S
C679 N682 1.384 . S
C680 H671 0.929 . S
C680 C672 1.378 . S
C680 C675 1.350 . S
C681 H668 0.929 . S
C681 C673 1.433 . S
C681 N683 1.384 . S
N682 C678 1.427 . S
N682 C679 1.384 . S
N683 C675 1.427 . S
N683 C681 1.384 . S
H684 C690 0.930 . S
H685 C694 0.930 . S
H686 C699 0.929 . S
H687 C697 0.929 . S
H688 C692 0.929 . S
H689 C698 0.929 . S
C690 H684 0.930 . S
C690 C691 1.367 . S
C690 C698 1.378 . S
C691 C690 1.367 . S
C691 C699 1.433 . S
C692 H688 0.929 . S
C692 C694 1.378 . S
C692 C696 1.350 . S
C693 C696 1.463 . S
C693 C698 1.350 . S
C693 N701 1.427 . S
C694 H685 0.930 . S
C694 C692 1.378 . S
C694 C695 1.367 . S
C695 C694 1.367 . S
C695 C697 1.433 . S
C696 C692 1.350 . S
C696 C693 1.463 . S
C696 N700 1.427 . S
C697 H687 0.929 . S
C697 C695 1.433 . S
C697 N700 1.384 . S
C698 H689 0.929 . S
C698 C690 1.378 . S
C698 C693 1.350 . S
C699 H686 0.929 . S
C699 C691 1.433 . S
C699 N701 1.384 . S
N700 C696 1.427 . S
N700 C697 1.384 . S
N701 C693 1.427 . S
N701 C699 1.384 . S
H702 C708 0.930 . S
H703 C712 0.930 . S
H704 C717 0.929 . S
H705 C715 0.929 . S
H706 C710 0.929 . S
H707 C716 0.929 . S
C708 H702 0.930 . S
C708 C709 1.367 . S
C708 C716 1.378 . S
C709 C708 1.367 . S
C709 C717 1.433 . S
C710 H706 0.929 . S
C710 C712 1.378 . S
C710 C714 1.350 . S
C711 C714 1.463 . S
C711 C716 1.350 . S
C711 N719 1.427 . S
C712 H703 0.930 . S
C712 C710 1.378 . S
C712 C713 1.367 . S
C713 C712 1.367 . S
C713 C715 1.433 . S
C714 C710 1.350 . S
C714 C711 1.463 . S
C714 N718 1.427 . S
C715 H705 0.929 . S
C715 C713 1.433 . S
C715 N718 1.384 . S
C716 H707 0.929 . S
C716 C708 1.378 . S
C716 C711 1.350 . S
C717 H704 0.929 . S
C717 C709 1.433 . S
C717 N719 1.384 . S
N718 C714 1.427 . S
N718 C715 1.384 . S
N719 C711 1.427 . S
N719 C717 1.384 . S
H720 C726 0.930 . S
H721 C730 0.930 . S
H722 C735 0.929 . S
H723 C733 0.929 . S
H724 C728 0.929 . S
H725 C734 0.929 . S
C726 H720 0.930 . S
C726 C727 1.367 . S
C726 C734 1.378 . S
C727 C726 1.367 . S
C727 C735 1.433 . S
C728 H724 0.929 . S
C728 C730 1.378 . S
C728 C732 1.350 . S
C729 C732 1.463 . S
C729 C734 1.350 . S
C729 N737 1.427 . S
C730 H721 0.930 . S
C730 C728 1.378 . S
C730 C731 1.367 . S
C731 C730 1.367 . S
C731 C733 1.433 . S
C732 C728 1.350 . S
C732 C729 1.463 . S
C732 N736 1.427 . S
C733 H723 0.929 . S
C733 C731 1.433 . S
C733 N736 1.384 . S
C734 H725 0.929 . S
C734 C726 1.378 . S
C734 C729 1.350 . S
C735 H722 0.929 . S
C735 C727 1.433 . S
C735 N737 1.384 . S
N736 C732 1.427 . S
N736 C733 1.384 . S
N737 C729 1.427 . S
N737 C735 1.384 . S
H738 C744 0.930 . S
H739 C748 0.930 . S
H740 C753 0.929 . S
H741 C751 0.929 . S
H742 C746 0.929 . S
H743 C752 0.929 . S
C744 H738 0.930 . S
C744 C745 1.367 . S
C744 C752 1.378 . S
C745 C744 1.367 . S
C745 C753 1.433 . S
C746 H742 0.929 . S
C746 C748 1.378 . S
C746 C750 1.350 . S
C747 C750 1.463 . S
C747 C752 1.350 . S
C747 N755 1.427 . S
C748 H739 0.930 . S
C748 C746 1.378 . S
C748 C749 1.367 . S
C749 C748 1.367 . S
C749 C751 1.433 . S
C750 C746 1.350 . S
C750 C747 1.463 . S
C750 N754 1.427 . S
C751 H741 0.929 . S
C751 C749 1.433 . S
C751 N754 1.384 . S
C752 H743 0.929 . S
C752 C744 1.378 . S
C752 C747 1.350 . S
C753 H740 0.929 . S
C753 C745 1.433 . S
C753 N755 1.384 . S
N754 C750 1.427 . S
N754 C751 1.384 . S
N755 C747 1.427 . S
N755 C753 1.384 . S
H756 C762 0.930 . S
H757 C766 0.930 . S
H758 C771 0.929 . S
H759 C769 0.929 . S
H760 C764 0.929 . S
H761 C770 0.929 . S
C762 H756 0.930 . S
C762 C763 1.367 . S
C762 C770 1.378 . S
C763 C762 1.367 . S
C763 C771 1.433 . S
C764 H760 0.929 . S
C764 C766 1.378 . S
C764 C768 1.350 . S
C765 C768 1.463 . S
C765 C770 1.350 . S
C765 N773 1.427 . S
C766 H757 0.930 . S
C766 C764 1.378 . S
C766 C767 1.367 . S
C767 C766 1.367 . S
C767 C769 1.433 . S
C768 C764 1.350 . S
C768 C765 1.463 . S
C768 N772 1.427 . S
C769 H759 0.929 . S
C769 C767 1.433 . S
C769 N772 1.384 . S
C770 H761 0.929 . S
C770 C762 1.378 . S
C770 C765 1.350 . S
C771 H758 0.929 . S
C771 C763 1.433 . S
C771 N773 1.384 . S
N772 C768 1.427 . S
N772 C769 1.384 . S
N773 C765 1.427 . S
N773 C771 1.384 . S
H774 C780 0.930 . S
H775 C784 0.930 . S
H776 C789 0.929 . S
H777 C787 0.929 . S
H778 C782 0.929 . S
H779 C788 0.929 . S
C780 H774 0.930 . S
C780 C781 1.367 . S
C780 C788 1.378 . S
C781 C780 1.367 . S
C781 C789 1.433 . S
C782 H778 0.929 . S
C782 C784 1.378 . S
C782 C786 1.350 . S
C783 C786 1.463 . S
C783 C788 1.350 . S
C783 N791 1.427 . S
C784 H775 0.930 . S
C784 C782 1.378 . S
C784 C785 1.367 . S
C785 C784 1.367 . S
C785 C787 1.433 . S
C786 C782 1.350 . S
C786 C783 1.463 . S
C786 N790 1.427 . S
C787 H777 0.929 . S
C787 C785 1.433 . S
C787 N790 1.384 . S
C788 H779 0.929 . S
C788 C780 1.378 . S
C788 C783 1.350 . S
C789 H776 0.929 . S
C789 C781 1.433 . S
C789 N791 1.384 . S
N790 C786 1.427 . S
N790 C787 1.384 . S
N791 C783 1.427 . S
N791 C789 1.384 . S
H792 C798 0.930 . S
H793 C802 0.930 . S
H794 C807 0.929 . S
H795 C805 0.929 . S
H796 C800 0.929 . S
H797 C806 0.929 . S
C798 H792 0.930 . S
C798 C799 1.367 . S
C798 C806 1.378 . S
C799 C798 1.367 . S
C799 C807 1.433 . S
C800 H796 0.929 . S
C800 C802 1.378 . S
C800 C804 1.350 . S
C801 C804 1.463 . S
C801 C806 1.350 . S
C801 N809 1.427 . S
C802 H793 0.930 . S
C802 C800 1.378 . S
C802 C803 1.367 . S
C803 C802 1.367 . S
C803 C805 1.433 . S
C804 C800 1.350 . S
C804 C801 1.463 . S
C804 N808 1.427 . S
C805 H795 0.929 . S
C805 C803 1.433 . S
C805 N808 1.384 . S
C806 H797 0.929 . S
C806 C798 1.378 . S
C806 C801 1.350 . S
C807 H794 0.929 . S
C807 C799 1.433 . S
C807 N809 1.384 . S
N808 C804 1.427 . S
N808 C805 1.384 . S
N809 C801 1.427 . S
N809 C807 1.384 . S
H810 C816 0.930 . S
H811 C820 0.930 . S
H812 C825 0.929 . S
H813 C823 0.905 1_545 S
H814 C818 0.929 . S
H815 C824 0.929 . S
C816 H810 0.930 . S
C816 C817 1.367 . S
C816 C824 1.378 . S
C817 C816 1.367 . S
C817 C825 1.433 . S
C818 H814 0.929 . S
C818 C820 1.378 . S
C818 C822 1.350 . S
C819 C822 1.463 1_545 S
C819 C824 1.350 . S
C819 N827 1.427 . S
C820 H811 0.930 . S
C820 C818 1.378 . S
C820 C821 1.367 . S
C821 C820 1.367 . S
C821 C823 1.433 . S
C822 C818 1.350 . S
C822 C819 1.463 1_565 S
C822 N826 1.427 1_565 S
C823 H813 0.905 1_565 S
C823 C821 1.433 . S
C823 N826 1.384 1_565 S
C824 H815 0.929 . S
C824 C816 1.378 . S
C824 C819 1.350 . S
C825 H812 0.929 . S
C825 C817 1.433 . S
C825 N827 1.384 . S
N826 C822 1.427 1_545 S
N826 C823 1.384 1_545 S
N827 C819 1.427 . S
N827 C825 1.384 . S
H828 C834 0.930 . S
H829 C838 0.930 . S
H830 C843 0.929 . S
H831 C841 0.929 1_455 S
H832 C836 0.929 . S
H833 C842 0.929 . S
C834 H828 0.930 . S
C834 C835 1.367 . S
C834 C842 1.378 . S
C835 C834 1.367 . S
C835 C843 1.433 . S
C836 H832 0.929 . S
C836 C838 1.378 . S
C836 C840 1.350 . S
C837 C840 1.463 1_455 S
C837 C842 1.350 . S
C837 N845 1.427 . S
C838 H829 0.930 . S
C838 C836 1.378 . S
C838 C839 1.367 . S
C839 C838 1.367 . S
C839 C841 1.433 . S
C840 C836 1.350 . S
C840 C837 1.463 1_655 S
C840 N844 1.427 1_655 S
C841 H831 0.929 1_655 S
C841 C839 1.433 . S
C841 N844 1.384 1_655 S
C842 H833 0.929 . S
C842 C834 1.378 . S
C842 C837 1.350 . S
C843 H830 0.929 . S
C843 C835 1.433 . S
C843 N845 1.384 . S
N844 C840 1.427 1_455 S
N844 C841 1.384 1_455 S
N845 C837 1.427 . S
N845 C843 1.384 . S
H846 C852 0.930 . S
H847 C856 0.930 . S
H848 C861 0.929 1_554 S
H849 C859 0.929 1_556 S
H850 C854 0.929 . S
H851 C860 0.929 . S
C852 H846 0.930 . S
C852 C853 1.367 . S
C852 C860 1.378 . S
C853 C852 1.367 . S
C853 C861 1.433 . S
C854 H850 0.929 . S
C854 C856 1.378 . S
C854 C858 1.350 . S
C855 C858 1.463 1_556 S
C855 C860 1.350 . S
C855 N863 1.427 1_556 S
C856 H847 0.930 . S
C856 C854 1.378 . S
C856 C857 1.367 . S
C857 C856 1.367 . S
C857 C859 1.433 . S
C858 C854 1.350 . S
C858 C855 1.463 1_554 S
C858 N862 1.427 1_554 S
C859 H849 0.929 1_554 S
C859 C857 1.433 . S
C859 N862 1.384 1_554 S
C860 H851 0.929 . S
C860 C852 1.378 . S
C860 C855 1.350 . S
C861 H848 0.929 1_556 S
C861 C853 1.433 . S
C861 N863 1.384 1_556 S
N862 C858 1.427 1_556 S
N862 C859 1.384 1_556 S
N863 C855 1.427 1_554 S
N863 C861 1.384 1_554 S
H864 C870 0.930 1_554 S
H865 C874 0.930 1_556 S
H866 C879 0.929 . S
H867 C877 0.929 . S
H868 C872 0.929 . S
H869 C878 0.929 . S
C870 H864 0.930 1_556 S
C870 C871 1.367 . S
C870 C878 1.378 1_556 S
C871 C870 1.367 . S
C871 C879 1.433 . S
C872 H868 0.929 . S
C872 C874 1.378 1_556 S
C872 C876 1.350 1_556 S
C873 C876 1.463 1_566 S
C873 C878 1.350 1_556 S
C873 N881 1.427 1_565 S
C874 H865 0.930 1_554 S
C874 C872 1.378 1_554 S
C874 C875 1.367 . S
C875 C874 1.367 . S
C875 C877 1.433 . S
C876 C872 1.350 1_554 S
C876 C873 1.463 1_544 S
C876 N880 1.427 . S
C877 H867 0.929 . S
C877 C875 1.433 . S
C877 N880 1.384 . S
C878 H869 0.929 . S
C878 C870 1.378 1_554 S
C878 C873 1.350 1_554 S
C879 H866 0.929 . S
C879 C871 1.433 . S
C879 N881 1.384 1_565 S
N880 C876 1.427 . S
N880 C877 1.384 . S
N881 C873 1.427 1_545 S
N881 C879 1.384 1_545 S
H882 C888 0.930 . S
H883 C892 0.930 . S
H884 C897 0.929 . S
H885 C895 0.929 1_455 S
H886 C890 0.929 . S
H887 C896 0.929 . S
C888 H882 0.930 . S
C888 C889 1.367 . S
C888 C896 1.378 . S
C889 C888 1.367 . S
C889 C897 1.433 . S
C890 H886 0.929 . S
C890 C892 1.378 . S
C890 C894 1.350 . S
C891 C894 1.463 1_456 S
C891 C896 1.350 . S
C891 N899 1.427 . S
C892 H883 0.930 . S
C892 C890 1.378 . S
C892 C893 1.367 . S
C893 C892 1.367 . S
C893 C895 1.433 . S
C894 C890 1.350 . S
C894 C891 1.463 1_654 S
C894 N898 1.427 1_655 S
C895 H885 0.929 1_655 S
C895 C893 1.433 . S
C895 N898 1.384 1_655 S
C896 H887 0.929 . S
C896 C888 1.378 . S
C896 C891 1.350 . S
C897 H884 0.929 . S
C897 C889 1.433 . S
C897 N899 1.384 . S
N898 C894 1.427 1_455 S
N898 C895 1.384 1_455 S
N899 C891 1.427 . S
N899 C897 1.384 . S
C259 C13 1.883 . S
C263 C208 1.883 1_554 S
C277 C180 1.891 1_554 S
C281 C27 1.893 . S
C295 C40 1.890 . S
C299 C183 1.894 1_554 S
C313 C97 1.888 . S
C317 C41 1.891 . S
C331 C99 1.892 . S
C335 C12 1.891 . S
C349 C125 1.893 . S
C353 C26 1.887 . S
C367 C42 1.883 . S
C371 C167 1.879 1_556 S
C385 C127 1.891 1_556 S
C389 C56 1.892 . S
C403 C141 1.891 1_556 S
C407 C82 1.894 . S
C421 C83 1.886 . S
C425 C210 1.893 . S
C439 C43 1.882 . S
C443 C237 1.879 . S
C457 C250 1.886 . S
C461 C57 1.887 . S
C475 C181 1.893 . S
C479 C124 1.891 . S
C493 C96 1.891 . S
C497 C182 1.891 . S
C511 C209 1.886 . S
C515 C98 1.887 . S
C529 C251 1.887 . S
C533 C126 1.887 . S
C547 C140 1.884 . S
C551 C211 1.879 . S
C565 C236 1.889 . S
C569 C166 1.892 . S
C583 C222 1.560 . S
C587 C1 1.560 . S
C601 C15 1.560 . S
C605 C225 1.560 . S
C619 C28 1.561 . S
C623 C238 1.561 . S
C637 C29 1.560 . S
C641 C155 1.560 . S
C655 C139 1.561 . S
C659 C0 1.561 . S
C673 C14 1.561 . S
C677 C153 1.561 . S
C691 C85 1.560 . S
C695 C54 1.560 . S
C709 C111 1.560 . S
C713 C68 1.560 . S
C727 C70 1.560 . S
C731 C113 1.560 . S
C745 C71 1.561 . S
C749 C196 1.561 . S
C763 C55 1.561 . S
C767 C168 1.561 . S
C781 C69 1.560 . S
C785 C195 1.560 . S
C799 C112 1.561 . S
C803 C239 1.561 . S
C817 C84 1.560 . S
C821 C223 1.560 . S
C835 C224 1.560 . S
C839 C110 1.560 . S
C853 C169 1.561 . S
C857 C138 1.561 . S
C871 C194 1.560 . S
C875 C152 1.561 . S
C889 C197 1.560 . S
C893 C154 1.560 . S
