# Generated by pormake.
# Topology lcy-e, (6)-cn, num edge types: 1
# Building blocks:
#     Node 0, Type 0, BuildingBlock: BETGAK_clean_sbu_0, # of connection points: 6
#     Node 1, Type 0, BuildingBlock: BETGAK_clean_sbu_0, # of connection points: 6
#     Node 2, Type 0, BuildingBlock: BETGAK_clean_sbu_0, # of connection points: 6
#     Node 3, Type 0, BuildingBlock: BETGAK_clean_sbu_0, # of connection points: 6
#     Node 4, Type 0, BuildingBlock: BETGAK_clean_sbu_0, # of connection points: 6
#     Node 5, Type 0, BuildingBlock: BETGAK_clean_sbu_0, # of connection points: 6
#     Node 6, Type 0, BuildingBlock: BETGAK_clean_sbu_0, # of connection points: 6
#     Node 7, Type 0, BuildingBlock: BETGAK_clean_sbu_0, # of connection points: 6
#     Node 8, Type 0, BuildingBlock: BETGAK_clean_sbu_0, # of connection points: 6
#     Node 9, Type 0, BuildingBlock: BETGAK_clean_sbu_0, # of connection points: 6
#     Node 10, Type 0, BuildingBlock: BETGAK_clean_sbu_0, # of connection points: 6
#     Node 11, Type 0, BuildingBlock: BETGAK_clean_sbu_0, # of connection points: 6
#     Edge 12, Type (0, 0), BuildingBlock: KIFKEQ_clean_linker_1, # of connection points: 2
#     Edge 13, Type (0, 0), BuildingBlock: KIFKEQ_clean_linker_1, # of connection points: 2
#     Edge 14, Type (0, 0), BuildingBlock: KIFKEQ_clean_linker_1, # of connection points: 2
#     Edge 15, Type (0, 0), BuildingBlock: KIFKEQ_clean_linker_1, # of connection points: 2
#     Edge 16, Type (0, 0), BuildingBlock: KIFKEQ_clean_linker_1, # of connection points: 2
#     Edge 17, Type (0, 0), BuildingBlock: KIFKEQ_clean_linker_1, # of connection points: 2
#     Edge 18, Type (0, 0), BuildingBlock: KIFKEQ_clean_linker_1, # of connection points: 2
#     Edge 19, Type (0, 0), BuildingBlock: KIFKEQ_clean_linker_1, # of connection points: 2
#     Edge 20, Type (0, 0), BuildingBlock: KIFKEQ_clean_linker_1, # of connection points: 2
#     Edge 21, Type (0, 0), BuildingBlock: KIFKEQ_clean_linker_1, # of connection points: 2
#     Edge 22, Type (0, 0), BuildingBlock: KIFKEQ_clean_linker_1, # of connection points: 2
#     Edge 23, Type (0, 0), BuildingBlock: KIFKEQ_clean_linker_1, # of connection points: 2
#     Edge 24, Type (0, 0), BuildingBlock: KIFKEQ_clean_linker_1, # of connection points: 2
#     Edge 25, Type (0, 0), BuildingBlock: KIFKEQ_clean_linker_1, # of connection points: 2
#     Edge 26, Type (0, 0), BuildingBlock: KIFKEQ_clean_linker_1, # of connection points: 2
#     Edge 27, Type (0, 0), BuildingBlock: KIFKEQ_clean_linker_1, # of connection points: 2
#     Edge 28, Type (0, 0), BuildingBlock: KIFKEQ_clean_linker_1, # of connection points: 2
#     Edge 29, Type (0, 0), BuildingBlock: KIFKEQ_clean_linker_1, # of connection points: 2
#     Edge 30, Type (0, 0), BuildingBlock: KIFKEQ_clean_linker_1, # of connection points: 2
#     Edge 31, Type (0, 0), BuildingBlock: KIFKEQ_clean_linker_1, # of connection points: 2
#     Edge 32, Type (0, 0), BuildingBlock: KIFKEQ_clean_linker_1, # of connection points: 2
#     Edge 33, Type (0, 0), BuildingBlock: KIFKEQ_clean_linker_1, # of connection points: 2
#     Edge 34, Type (0, 0), BuildingBlock: KIFKEQ_clean_linker_1, # of connection points: 2
#     Edge 35, Type (0, 0), BuildingBlock: KIFKEQ_clean_linker_1, # of connection points: 2
#     Edge 36, Type (0, 0), BuildingBlock: KIFKEQ_clean_linker_1, # of connection points: 2
#     Edge 37, Type (0, 0), BuildingBlock: KIFKEQ_clean_linker_1, # of connection points: 2
#     Edge 38, Type (0, 0), BuildingBlock: KIFKEQ_clean_linker_1, # of connection points: 2
#     Edge 39, Type (0, 0), BuildingBlock: KIFKEQ_clean_linker_1, # of connection points: 2
#     Edge 40, Type (0, 0), BuildingBlock: KIFKEQ_clean_linker_1, # of connection points: 2
#     Edge 41, Type (0, 0), BuildingBlock: KIFKEQ_clean_linker_1, # of connection points: 2
#     Edge 42, Type (0, 0), BuildingBlock: KIFKEQ_clean_linker_1, # of connection points: 2
#     Edge 43, Type (0, 0), BuildingBlock: KIFKEQ_clean_linker_1, # of connection points: 2
#     Edge 44, Type (0, 0), BuildingBlock: KIFKEQ_clean_linker_1, # of connection points: 2
#     Edge 45, Type (0, 0), BuildingBlock: KIFKEQ_clean_linker_1, # of connection points: 2
#     Edge 46, Type (0, 0), BuildingBlock: KIFKEQ_clean_linker_1, # of connection points: 2
#     Edge 47, Type (0, 0), BuildingBlock: KIFKEQ_clean_linker_1, # of connection points: 2
# Relax obj value: 0.200
# Max RMSD: 0.311
# Mean RMSD: 0.287
data_MOF--net-lcy-e--node1-BETGAK_clean_sbu_0--edge1-KIFKEQ_clean_linker_1
_symmetry_space_group_name_H-M    P1
_symmetry_Int_Tables_number       1
_symmetry_cell_setting            triclinic
loop_
_symmetry_equiv_pos_as_xyz
'x, y, z'
_cell_length_a     45.50951
_cell_length_b     42.319449
_cell_length_c     45.465546
_cell_angle_alpha  89.646177
_cell_angle_beta   90.867267
_cell_angle_gamma 88.353335
loop_
_atom_site_label
_atom_site_type_symbol
_atom_site_fract_x
_atom_site_fract_y
_atom_site_fract_z
_atom_type_partial_charge
La0 La 0.15054 0.28246 0.48558 0.0
La1 La 0.1647 0.22725 0.52655 0.0
C2 C 0.14564 0.33422 0.45804 0.0
C3 C 0.15211 0.34428 0.42774 0.0
C4 C 0.15423 0.32226 0.40481 0.0
C5 C 0.16317 0.33171 0.3768 0.0
C6 C 0.17051 0.36328 0.37127 0.0
C7 C 0.16804 0.38525 0.3943 0.0
C8 C 0.15894 0.37583 0.42221 0.0
C9 C 0.12417 0.22896 0.47158 0.0
C10 C 0.2005 0.23321 0.46923 0.0
C11 C 0.16577 0.17717 0.55681 0.0
C12 C 0.1469 0.15517 0.57285 0.0
C13 C 0.13497 0.16282 0.60034 0.0
C14 C 0.1205 0.13998 0.61672 0.0
C15 C 0.11772 0.10904 0.60598 0.0
C16 C 0.12891 0.10184 0.57808 0.0
C17 C 0.14337 0.12458 0.56179 0.0
C18 C 0.20068 0.27605 0.5298 0.0
C19 C 0.11715 0.27737 0.54662 0.0
O20 O 0.12375 0.31506 0.46152 0.0
O21 O 0.16881 0.32551 0.47382 0.0
O22 O 0.13376 0.24937 0.45297 0.0
O23 O 0.1289 0.23943 0.49704 0.0
O24 O 0.19185 0.26332 0.46784 0.0
O25 O 0.18791 0.21324 0.48714 0.0
O26 O 0.16989 0.20528 0.56792 0.0
O27 O 0.16299 0.17785 0.52803 0.0
O28 O 0.20848 0.24713 0.5362 0.0
O29 O 0.17353 0.27637 0.5257 0.0
O30 O 0.1272 0.24784 0.54911 0.0
O31 O 0.12489 0.29615 0.52463 0.0
H32 H 0.14957 0.29764 0.40874 0.0
H33 H 0.16512 0.31411 0.3597 0.0
H34 H 0.17316 0.40981 0.39075 0.0
H35 H 0.15777 0.39311 0.43967 0.0
H36 H 0.13744 0.18614 0.60958 0.0
H37 H 0.11184 0.14645 0.63798 0.0
H38 H 0.12764 0.07819 0.56928 0.0
H39 H 0.15271 0.11787 0.54088 0.0
La40 La 1.00378 0.87028 0.7433 0.0
La41 La 0.0573 0.88103 0.78292 0.0
C42 C 0.95731 0.87838 0.71285 0.0
C43 C 0.94833 0.89087 0.6835 0.0
C44 C 0.96508 0.88469 0.65834 0.0
C45 C 0.95491 0.895 0.63053 0.0
C46 C 0.92787 0.91184 0.62732 0.0
C47 C 0.9117 0.91876 0.65276 0.0
C48 C 0.92182 0.90836 0.68048 0.0
C49 C 0.04835 0.83109 0.73503 0.0
C50 C 0.05043 0.92457 0.7281 0.0
C51 C 0.10373 0.87168 0.81269 0.0
C52 C 0.13128 0.86613 0.83012 0.0
C53 C 0.13081 0.8659 0.861 0.0
C54 C 0.15633 0.85824 0.8775 0.0
C55 C 0.18309 0.85078 0.86356 0.0
C56 C 0.18351 0.85139 0.83259 0.0
C57 C 0.15793 0.85884 0.8161 0.0
C58 C 1.00953 0.91699 0.79242 0.0
C59 C 1.01093 0.83043 0.80079 0.0
O60 O 0.97302 0.85195 0.71363 0.0
O61 O 0.96669 0.89895 0.73198 0.0
O62 O 1.02108 0.8239 0.73111 0.0
O63 O 0.05003 0.86018 0.74073 0.0
O64 O 0.02505 0.91082 0.72235 0.0
O65 O 0.06814 0.91538 0.75 0.0
O66 O 0.07926 0.88261 0.82417 0.0
O67 O 0.1022 0.86728 0.78422 0.0
O68 O 0.03613 0.92617 0.7978 0.0
O69 O 1.01117 0.8886 0.78541 0.0
O70 O 0.03915 0.83671 0.79875 0.0
O71 O 0.9912 0.84482 0.78309 0.0
H72 H 0.98579 0.87151 0.6601 0.0
H73 H 0.96816 0.88965 0.61151 0.0
H74 H 0.89066 0.93133 0.65119 0.0
H75 H 0.90856 0.91344 0.69957 0.0
H76 H 0.11055 0.87096 0.87248 0.0
H77 H 0.15484 0.85754 0.90123 0.0
H78 H 0.20368 0.84631 0.82098 0.0
H79 H 0.159 0.85867 0.79232 0.0
La80 La 0.39721 0.78468 0.03854 0.0
La81 La 0.40268 0.7366 0.98491 0.0
C82 C 0.40955 0.81096 0.08658 0.0
C83 C 0.41768 0.84148 0.09912 0.0
C84 C 0.40576 0.87051 0.08878 0.0
C85 C 0.41595 0.89895 0.10031 0.0
C86 C 0.43846 0.89864 0.12196 0.0
C87 C 0.44994 0.86942 0.13234 0.0
C88 C 0.43962 0.84121 0.12107 0.0
C89 C 0.36107 0.80085 0.99413 0.0
C90 C 0.44539 0.79565 0.99024 0.0
C91 C 0.40354 0.71648 0.93279 0.0
C92 C 0.38867 0.69841 0.90939 0.0
C93 C 0.40491 0.67486 0.89466 0.0
C94 C 0.39357 0.66083 0.8693 0.0
C95 C 0.36568 0.67008 0.85796 0.0
C96 C 0.34888 0.69278 0.87342 0.0
C97 C 0.3603 0.70691 0.89882 0.0
C98 C 0.42719 0.71795 0.03553 0.0
C99 C 0.35751 0.72307 0.0328 0.0
O100 O 0.38246 0.80723 0.07707 0.0
O101 O 0.42914 0.79816 0.06916 0.0
O102 O 0.36377 0.81727 1.01804 0.0
O103 O 0.37903 0.77791 0.9966 0.0
O104 O 0.43048 0.80774 1.01257 0.0
O105 O 0.43934 0.76806 0.97812 0.0
O106 O 0.41557 0.70093 0.95516 0.0
O107 O 0.3917 0.74376 0.94045 0.0
O108 O 0.41881 0.69852 1.01511 0.0
O109 O 0.42449 0.74579 0.02543 0.0
O110 O 0.36189 0.72245 1.00399 0.0
O111 O 0.37102 0.74328 0.05065 0.0
H112 H 0.38898 0.87121 0.07161 0.0
H113 H 0.40674 0.92114 0.09187 0.0
H114 H 0.46688 0.86833 0.14935 0.0
H115 H 0.44915 0.81902 0.12925 0.0
H116 H 0.42691 0.66806 0.90219 0.0
H117 H 0.40688 0.64298 0.85835 0.0
H118 H 0.32736 0.70053 0.86528 0.0
H119 H 0.34731 0.7252 0.90953 0.0
La120 La 0.56268 0.13724 0.25063 0.0
La121 La 0.51257 0.12314 0.29305 0.0
C122 C 0.60713 0.12975 0.21862 0.0
C123 C 0.61416 0.11609 0.18945 0.0
C124 C 0.59904 0.12598 0.16364 0.0
C125 C 0.60727 0.11398 0.13618 0.0
C126 C 0.63072 0.09169 0.13385 0.0
C127 C 0.64529 0.0813 0.15984 0.0
C128 C 0.63714 0.09342 0.18726 0.0
C129 C 0.51466 0.17145 0.24263 0.0
C130 C 0.5165 0.08169 0.23711 0.0
C131 C 0.46665 0.13334 0.32176 0.0
C132 C 0.43939 0.14186 0.33777 0.0
C133 C 0.42627 0.12059 0.35708 0.0
C134 C 0.40041 0.12942 0.37184 0.0
C135 C 0.38732 0.15976 0.3677 0.0
C136 C 0.40057 0.18085 0.34833 0.0
C137 C 0.42619 0.17205 0.3336 0.0
C138 C 0.56419 0.09338 0.30401 0.0
C139 C 0.55734 0.17794 0.30837 0.0
O140 O 0.5907 0.15573 0.21901 0.0
O141 O 0.60006 0.10976 0.23931 0.0
O142 O 0.54058 0.18092 0.23596 0.0
O143 O 0.51592 0.14256 0.24974 0.0
O144 O 0.54193 0.0951 0.23134 0.0
O145 O 0.49955 0.09131 0.25881 0.0
O146 O 0.48228 0.10691 0.32501 0.0
O147 O 0.477 0.15296 0.30246 0.0
O148 O 0.5391 0.08243 0.31221 0.0
O149 O 0.559 0.12038 0.2938 0.0
O150 O 0.53096 0.16606 0.31137 0.0
O151 O 0.57568 0.16727 0.28788 0.0
H152 H 0.58107 0.14326 0.16455 0.0
H153 H 0.59527 0.12223 0.11674 0.0
H154 H 0.66364 0.06449 0.15897 0.0
H155 H 0.64919 0.08543 0.20678 0.0
H156 H 0.43595 0.0972 0.36077 0.0
H157 H 0.39089 0.11266 0.38677 0.0
H158 H 0.3909 0.20417 0.34417 0.0
H159 H 0.43562 0.18906 0.31882 0.0
La160 La 0.65765 0.2433 0.56647 0.0
La161 La 0.66669 0.30358 0.52551 0.0
C162 C 0.6667 0.19168 0.59316 0.0
C163 C 0.67242 0.18173 0.62429 0.0
C164 C 0.64926 0.17324 0.6426 0.0
C165 C 0.65491 0.16245 0.67141 0.0
C166 C 0.68389 0.15965 0.68267 0.0
C167 C 0.70699 0.16872 0.66452 0.0
C168 C 0.70135 0.17951 0.63573 0.0
C169 C 0.62412 0.29266 0.58257 0.0
C170 C 0.70473 0.29599 0.58281 0.0
C171 C 0.66171 0.35386 0.49562 0.0
C172 C 0.6413 0.37523 0.47853 0.0
C173 C 0.63547 0.36983 0.44855 0.0
C174 C 0.62098 0.393 0.43113 0.0
C175 C 0.61208 0.42225 0.44321 0.0
C176 C 0.61669 0.42701 0.47351 0.0
C177 C 0.63119 0.40383 0.49092 0.0
C178 C 0.70232 0.25304 0.51872 0.0
C179 C 0.62111 0.25326 0.50711 0.0
O180 O 0.64022 0.20298 0.58622 0.0
O181 O 0.68747 0.20758 0.58049 0.0
O182 O 0.62431 0.26522 0.59538 0.0
O183 O 0.64279 0.29069 0.5627 0.0
O184 O 0.69589 0.2665 0.58599 0.0
O185 O 0.6935 0.31592 0.56287 0.0
O186 O 0.66873 0.32617 0.48445 0.0
O187 O 0.65902 0.35276 0.52433 0.0
O188 O 0.70932 0.28169 0.51193 0.0
O189 O 0.67584 0.25399 0.52524 0.0
O190 O 0.6259 0.28385 0.50954 0.0
O191 O 0.63332 0.23199 0.5257 0.0
H192 H 0.62673 0.17453 0.63457 0.0
H193 H 0.63651 0.15599 0.68479 0.0
H194 H 0.72961 0.16641 0.67215 0.0
H195 H 0.71982 0.18555 0.62224 0.0
H196 H 0.64328 0.34828 0.43814 0.0
H197 H 0.61815 0.38857 0.40785 0.0
H198 H 0.60978 0.44902 0.48365 0.0
H199 H 0.63558 0.4089 0.51387 0.0
La200 La 1.00511 0.38322 0.75212 0.0
La201 La 0.04487 0.36257 0.80154 0.0
C202 C 0.97944 0.39636 0.704 0.0
C203 C 0.9501 0.38861 0.69274 0.0
C204 C 0.92691 0.38401 0.71219 0.0
C205 C 0.89968 0.37427 0.70164 0.0
C206 C 0.8952 0.36859 0.67147 0.0
C207 C 0.91856 0.37327 0.65209 0.0
C208 C 0.94576 0.3832 0.66266 0.0
C209 C 0.99335 0.40991 0.80322 0.0
C210 C 0.98441 0.32684 0.79025 0.0
C211 C 0.06547 0.34922 0.85193 0.0
C212 C 0.08127 0.36393 0.87638 0.0
C213 C 0.07705 0.35234 0.90483 0.0
C214 C 0.09184 0.36531 0.92872 0.0
C215 C 0.11134 0.39008 0.92461 0.0
C216 C 0.11512 0.40213 0.89601 0.0
C217 C 0.10013 0.38916 0.87202 0.0
C218 C 0.05694 0.3368 0.75019 0.0
C219 C 0.06759 0.41441 0.7625 0.0
O220 O 0.98027 0.4158 0.72625 0.0
O221 O 0.99747 0.37205 0.70781 0.0
O222 O 0.97371 0.40124 0.78423 0.0
O223 O 1.01852 0.4043 0.79296 0.0
O224 O 0.97984 0.3427 0.76539 0.0
O225 O 1.00733 0.33214 0.80756 0.0
O226 O 0.07992 0.34439 0.8276 0.0
O227 O 0.03855 0.35985 0.84704 0.0
O228 O 0.0767 0.34324 0.76991 0.0
O229 O 0.03198 0.34252 0.76065 0.0
O230 O 0.06634 0.40537 0.79022 0.0
O231 O 0.04732 0.40588 0.74299 0.0
H232 H 0.92994 0.38759 0.7356 0.0
H233 H 0.88211 0.37129 0.71713 0.0
H234 H 0.91604 0.3686 0.62881 0.0
H235 H 0.96358 0.38607 0.64742 0.0
H236 H 0.0623 0.33311 0.90858 0.0
H237 H 0.08793 0.35591 0.95048 0.0
H238 H 0.1301 0.42108 0.8921 0.0
H239 H 0.10344 0.39857 0.85014 0.0
La240 La 0.91015 0.76746 0.05706 0.0
La241 La 0.89433 0.70975 1.02194 0.0
C242 C 0.90726 0.81847 0.08548 0.0
C243 C 0.89634 0.82918 0.11434 0.0
C244 C 0.90243 0.81192 0.14036 0.0
C245 C 0.89289 0.82347 0.16755 0.0
C246 C 0.87701 0.85244 0.16924 0.0
C247 C 0.87025 0.86909 0.14298 0.0
C248 C 0.87987 0.8576 0.11589 0.0
C249 C 0.94697 0.7191 0.06419 0.0
C250 C 0.86141 0.7197 0.0803 0.0
C251 C 0.89403 0.65826 0.99403 0.0
C252 C 0.91224 0.63576 0.97655 0.0
C253 C 0.91743 0.64091 0.94647 0.0
C254 C 0.93039 0.61697 0.92932 0.0
C255 C 0.93814 0.58729 0.9418 0.0
C256 C 0.93414 0.58278 0.97213 0.0
C257 C 0.92131 0.60665 0.98923 0.0
C258 C 0.85991 0.76114 1.01488 0.0
C259 C 0.9404 0.75631 0.99689 0.0
O260 O 0.9304 0.79935 0.08555 0.0
O261 O 0.8873 0.81011 0.06626 0.0
O262 O 0.95402 0.74848 0.06576 0.0
O263 O 0.91933 0.71744 0.06159 0.0
O264 O 0.87438 0.74727 0.08285 0.0
O265 O 0.86776 0.69963 0.05917 0.0
O266 O 0.88627 0.68569 0.98236 0.0
O267 O 0.90026 0.6604 1.02216 0.0
O268 O 0.85061 0.73259 1.01229 0.0
O269 O 0.88716 0.75937 1.01774 0.0
O270 O 0.93372 0.72635 1.0006 0.0
O271 O 0.93023 0.77851 1.0149 0.0
H272 H 0.9149 0.78975 0.13979 0.0
H273 H 0.89866 0.81011 0.18729 0.0
H274 H 0.85756 0.89112 0.14333 0.0
H275 H 0.87464 0.87114 0.09609 0.0
H276 H 0.91048 0.66294 0.9359 0.0
H277 H 0.933 0.62119 0.906 0.0
H278 H 0.94027 0.56043 0.98256 0.0
H279 H 0.91744 0.60181 1.01225 0.0
La280 La 0.55769 0.62513 0.24253 0.0
La281 La 0.51579 0.63579 0.29373 0.0
C282 C 0.58744 0.63355 0.19714 0.0
C283 C 0.61728 0.64339 0.19042 0.0
C284 C 0.6413 0.63524 0.20896 0.0
C285 C 0.66945 0.64511 0.20211 0.0
C286 C 0.67394 0.66356 0.17681 0.0
C287 C 0.64969 0.67197 0.15858 0.0
C288 C 0.62162 0.66193 0.16534 0.0
C289 C 0.56876 0.58883 0.28842 0.0
C290 C 0.57023 0.67922 0.29074 0.0
C291 C 0.48757 0.62571 0.3394 0.0
C292 C 0.47044 0.61778 0.36549 0.0
C293 C 0.46834 0.63868 0.38924 0.0
C294 C 0.45407 0.62969 0.41493 0.0
C295 C 0.4413 0.59991 0.41697 0.0
C296 C 0.44285 0.5794 0.39285 0.0
C297 C 0.45748 0.58816 0.36744 0.0
C298 C 0.50095 0.66594 0.2432 0.0
C299 C 0.50216 0.58253 0.24692 0.0
O300 O 0.58508 0.60601 0.21013 0.0
O301 O 0.5703 0.65544 0.2086 0.0
O302 O 0.57522 0.58134 0.26164 0.0
O303 O 0.55983 0.61743 0.28922 0.0
O304 O 0.57575 0.6672 0.26436 0.0
O305 O 0.54974 0.6677 0.30777 0.0
O306 O 0.4891 0.65419 0.32803 0.0
O307 O 0.50172 0.60355 0.32499 0.0
O308 O 0.4914 0.67464 0.26878 0.0
O309 O 0.514 0.64015 0.24749 0.0
O310 O 0.50065 0.59158 0.27467 0.0
O311 O 0.52017 0.59657 0.22842 0.0
H312 H 0.63831 0.62127 0.22868 0.0
H313 H 0.68767 0.63851 0.21669 0.0
H314 H 0.65248 0.6858 0.13875 0.0
H315 H 0.60328 0.66857 0.1509 0.0
H316 H 0.47833 0.66158 0.38822 0.0
H317 H 0.45292 0.64603 0.43315 0.0
H318 H 0.43331 0.55626 0.3939 0.0
H319 H 0.45885 0.57163 0.34937 0.0
La320 La 0.24266 0.51317 0.15151 0.0
La321 La 0.28468 0.45907 0.13988 0.0
C322 C 0.21392 0.56445 0.15784 0.0
C323 C 0.18359 0.57514 0.15025 0.0
C324 C 0.16954 0.5983 0.16731 0.0
C325 C 0.14141 0.60992 0.15941 0.0
C326 C 0.12683 0.59875 0.13413 0.0
C327 C 0.14071 0.57483 0.11755 0.0
C328 C 0.16878 0.5631 0.12557 0.0
C329 C 0.23095 0.45987 0.17927 0.0
C330 C 0.22597 0.46762 0.10063 0.0
C331 C 0.3078 0.40468 0.13341 0.0
C332 C 0.32699 0.38084 0.14827 0.0
C333 C 0.33998 0.35696 0.13124 0.0
C334 C 0.35757 0.33318 0.14443 0.0
C335 C 0.36257 0.33277 0.17503 0.0
C336 C 0.34987 0.35711 0.19209 0.0
C337 C 0.33211 0.38097 0.1788 0.0
C338 C 0.29713 0.51257 0.11316 0.0
C339 C 0.30449 0.50563 0.18587 0.0
O340 O 0.21694 0.54295 0.17854 0.0
O341 O 0.2309 0.55834 0.13553 0.0
O342 O 0.21147 0.47919 0.16759 0.0
O343 O 0.25605 0.47096 0.1754 0.0
O344 O 0.2203 0.49543 0.11262 0.0
O345 O 0.24856 0.44945 0.10939 0.0
O346 O 0.32004 0.43075 0.12502 0.0
O347 O 0.28172 0.40991 0.14449 0.0
O348 O 0.31677 0.49143 0.12133 0.0
O349 O 0.27199 0.50192 0.11734 0.0
O350 O 0.30412 0.47516 0.18018 0.0
O351 O 0.2841 0.5255 0.17453 0.0
H352 H 0.18047 0.60771 0.18655 0.0
H353 H 0.13117 0.62786 0.17306 0.0
H354 H 0.13031 0.56583 0.09785 0.0
H355 H 0.17914 0.54508 0.11211 0.0
H356 H 0.33637 0.35661 0.10762 0.0
H357 H 0.36748 0.31519 0.13059 0.0
H358 H 0.35326 0.35739 0.21571 0.0
H359 H 0.32222 0.3993 0.19229 0.0
La360 La 0.74814 0.97505 0.89341 0.0
La361 La 0.78531 0.02997 0.90907 0.0
C362 C 0.71892 0.92523 0.896 0.0
C363 C 0.69007 0.91531 0.90689 0.0
C364 C 0.66357 0.93091 0.89833 0.0
C365 C 0.63657 0.91995 0.90805 0.0
C366 C 0.63548 0.89321 0.92656 0.0
C367 C 0.66214 0.87822 0.93564 0.0
C368 C 0.68906 0.8891 0.92585 0.0
C369 C 0.741 0.02246 0.85664 0.0
C370 C 0.72865 0.02319 0.94518 0.0
C371 C 0.81452 0.07975 0.91063 0.0
C372 C 0.82971 0.10224 0.89159 0.0
C373 C 0.82227 0.13451 0.89383 0.0
C374 C 0.83748 0.15697 0.87796 0.0
C375 C 0.86061 0.14769 0.85947 0.0
C376 C 0.8677 0.11522 0.85676 0.0
C377 C 0.85239 0.09267 0.87268 0.0
C378 C 0.79459 0.97679 0.94024 0.0
C379 C 0.80703 0.98431 0.8596 0.0
O380 O 0.719 0.94405 0.87303 0.0
O381 O 0.73817 0.93329 0.91603 0.0
O382 O 0.73862 0.99293 0.85004 0.0
O383 O 0.7446 0.02539 0.88435 0.0
O384 O 0.72414 0.99643 0.93089 0.0
O385 O 0.75046 0.04156 0.93868 0.0
O386 O 0.82619 0.05131 0.91431 0.0
O387 O 0.78587 0.07951 0.90792 0.0
O388 O 0.79717 1.00475 0.95133 0.0
O389 O 0.78919 0.98021 0.91353 0.0
O390 O 0.80391 0.01425 0.86741 0.0
O391 O 0.78949 0.9627 0.87074 0.0
H392 H 0.66365 0.9513 0.88383 0.0
H393 H 0.61652 0.93195 0.90042 0.0
H394 H 0.66227 0.85799 0.95033 0.0
H395 H 0.70918 0.87679 0.93292 0.0
H396 H 0.80505 0.14247 0.90848 0.0
H397 H 0.83176 0.18174 0.88103 0.0
H398 H 0.88525 0.10725 0.84252 0.0
H399 H 0.85863 0.06792 0.87058 0.0
La400 La 0.76913 0.97725 0.40585 0.0
La401 La 0.82151 0.01989 0.39786 0.0
C402 C 0.71986 0.95076 0.40698 0.0
C403 C 0.70712 0.92173 0.39451 0.0
C404 C 0.68294 0.90833 0.40809 0.0
C405 C 0.67016 0.88124 0.39651 0.0
C406 C 0.6812 0.86683 0.37092 0.0
C407 C 0.70548 0.8804 0.35728 0.0
C408 C 0.71834 0.90749 0.36899 0.0
C409 C 0.81649 0.96252 0.43824 0.0
C410 C 0.81552 0.95675 0.35909 0.0
C411 C 0.87303 0.04044 0.39416 0.0
C412 C 0.8974 0.05999 0.40492 0.0
C413 C 0.92466 0.05619 0.39129 0.0
C414 C 0.94845 0.07447 0.39958 0.0
C415 C 0.94573 0.09743 0.42174 0.0
C416 C 0.91833 0.10091 0.43583 0.0
C417 C 0.89435 0.08236 0.42746 0.0
C418 C 0.77332 0.03546 0.3672 0.0
C419 C 0.77437 0.04316 0.44085 0.0
O420 O 0.74024 0.94685 0.42737 0.0
O421 O 0.72654 0.97281 0.3882 0.0
O422 O 0.79873 0.94215 0.42723 0.0
O423 O 0.80661 0.98988 0.43209 0.0
O424 O 0.78855 0.95281 0.3686 0.0
O425 O 0.83214 0.97966 0.36914 0.0
O426 O 0.84978 0.05452 0.38215 0.0
O427 O 0.86655 0.01503 0.40905 0.0
O428 O 0.79161 0.0558 0.3775 0.0
O429 O 0.78358 1.00807 0.37255 0.0
O430 O 0.80293 0.04264 0.43583 0.0
O431 O 0.75668 0.02178 0.42912 0.0
H432 H 0.67376 0.91898 0.42765 0.0
H433 H 0.65124 0.87188 0.40739 0.0
H434 H 0.71479 0.86987 0.33774 0.0
H435 H 0.737 0.91735 0.35805 0.0
H436 H 0.92758 0.03899 0.37393 0.0
H437 H 0.96915 0.0703 0.38863 0.0
H438 H 0.91521 0.11837 0.45288 0.0
H439 H 0.87348 0.08569 0.43833 0.0
La440 La 0.31522 0.48878 0.6505 0.0
La441 La 0.27292 0.54131 0.63177 0.0
C442 C 0.3491 0.44054 0.65096 0.0
C443 C 0.37938 0.43172 0.64227 0.0
C444 C 0.39709 0.4136 0.6618 0.0
C445 C 0.42505 0.40284 0.65362 0.0
C446 C 0.43594 0.40975 0.62555 0.0
C447 C 0.41858 0.42891 0.60631 0.0
C448 C 0.39051 0.43978 0.61458 0.0
C449 C 0.31672 0.53808 0.68463 0.0
C450 C 0.33101 0.5357 0.59728 0.0
C451 C 0.23981 0.59001 0.62712 0.0
C452 C 0.22239 0.61333 0.6438 0.0
C453 C 0.20309 0.6338 0.62814 0.0
C454 C 0.18808 0.65829 0.64246 0.0
C455 C 0.19202 0.66282 0.67285 0.0
C456 C 0.21082 0.64168 0.68876 0.0
C457 C 0.22606 0.61715 0.67429 0.0
C458 C 0.26907 0.48717 0.60222 0.0
C459 C 0.25544 0.49625 0.68282 0.0
O460 O 0.34636 0.45974 0.67327 0.0
O461 O 0.3301 0.44733 0.62979 0.0
O462 O 0.32182 0.50923 0.69331 0.0
O463 O 0.31352 0.53927 0.65683 0.0
O464 O 0.3384 0.51043 0.61345 0.0
O465 O 0.30691 0.55269 0.60182 0.0
O466 O 0.23026 0.56117 0.62559 0.0
O467 O 0.26837 0.59064 0.63066 0.0
O468 O 0.26332 0.5148 0.59069 0.0
O469 O 0.27407 0.49109 0.62897 0.0
O470 O 0.25552 0.52596 0.67371 0.0
O471 O 0.27503 0.47513 0.67286 0.0
H472 H 0.38906 0.40728 0.68331 0.0
H473 H 0.43807 0.38876 0.66925 0.0
H474 H 0.42627 0.43461 0.58453 0.0
H475 H 0.37733 0.4539 0.5991 0.0
H476 H 0.20002 0.63122 0.6046 0.0
H477 H 0.17331 0.67371 0.62968 0.0
H478 H 0.21429 0.64459 0.7122 0.0
H479 H 0.24105 0.60162 0.68671 0.0
H480 H 0.2275 0.3197 0.4961 0.0
H481 H 0.2062 0.297 0.58558 0.0
H482 H 0.24649 0.37058 0.51201 0.0
H483 H 0.22382 0.34799 0.60164 0.0
H484 H 0.27604 0.43001 0.62887 0.0
H485 H 0.26419 0.37848 0.61029 0.0
H486 H 0.2322 0.42148 0.52899 0.0
H487 H 0.24628 0.47344 0.54724 0.0
C488 C 0.22735 0.32553 0.51927 0.0
C489 C 0.2161 0.3043 0.53977 0.0
C490 C 0.23782 0.35484 0.52839 0.0
C491 C 0.23686 0.3637 0.55821 0.0
C492 C 0.22572 0.34199 0.57862 0.0
C493 C 0.21558 0.31266 0.56951 0.0
C494 C 0.2671 0.42854 0.60676 0.0
C495 C 0.26245 0.45589 0.58943 0.0
C496 C 0.25979 0.39884 0.5962 0.0
C497 C 0.24679 0.39548 0.56818 0.0
C498 C 0.24246 0.42289 0.55056 0.0
C499 C 0.25034 0.45277 0.56104 0.0
H500 H 0.82921 0.92431 0.84897 0.0
H501 H 0.84775 0.02287 0.83591 0.0
H502 H 0.87821 0.90971 0.83171 0.0
H503 H 0.89703 1.00854 0.82029 0.0
H504 H 0.97963 0.97048 0.7734 0.0
H505 H 0.92908 0.98649 0.78566 0.0
H506 H 0.92682 0.9098 0.84887 0.0
H507 H 0.97649 0.89337 0.83545 0.0
C508 C 0.84355 0.94286 0.8421 0.0
C509 C 0.83447 0.97477 0.8441 0.0
C510 C 0.87194 0.93455 0.83261 0.0
C511 C 0.89212 0.95793 0.82515 0.0
C512 C 0.88235 0.98976 0.82568 0.0
C513 C 0.85394 0.99801 0.83485 0.0
C514 C 0.96841 0.95769 0.7904 0.0
C515 C 0.98205 0.93115 0.80393 0.0
C516 C 0.93935 0.96664 0.79735 0.0
C517 C 0.92343 0.94925 0.81808 0.0
C518 C 0.93781 0.92336 0.83227 0.0
C519 C 0.96656 0.91426 0.82504 0.0
H520 H 0.32737 0.6774 1.00372 0.0
H521 H 0.35415 0.7058 0.09105 0.0
H522 H 0.3114 0.62722 1.02338 0.0
H523 H 0.33797 0.65543 0.11065 0.0
H524 H 0.28402 0.56995 0.13779 0.0
H525 H 0.29458 0.62227 0.11877 0.0
H526 H 0.33763 0.57941 0.04435 0.0
H527 H 0.32633 0.52683 0.06338 0.0
C528 C 0.32939 0.67327 0.02721 0.0
C529 C 0.34218 0.69579 0.04575 0.0
C530 C 0.32046 0.64429 0.03841 0.0
C531 C 0.32382 0.63708 0.06849 0.0
C532 C 0.33501 0.66026 0.08736 0.0
C533 C 0.34417 0.68925 0.07611 0.0
C534 C 0.29503 0.57164 0.11704 0.0
C535 C 0.3035 0.54433 0.10157 0.0
C536 C 0.30154 0.60169 0.10635 0.0
C537 C 0.31667 0.60511 0.07987 0.0
C538 C 0.32544 0.57765 0.06455 0.0
C539 C 0.31915 0.54757 0.07546 0.0
H540 H 0.5825 0.03664 0.33039 0.0
H541 H 0.61447 0.12552 0.2988 0.0
H542 H 0.63303 0.02119 0.34641 0.0
H543 H 0.66371 0.11066 0.3151 0.0
H544 H 0.74089 0.08904 0.37845 0.0
H545 H 0.68959 0.10097 0.36456 0.0
H546 H 0.68468 1.01063 0.32148 0.0
H547 H 0.73634 0.99896 0.33497 0.0
C548 C 0.60013 0.05282 0.32687 0.0
C549 C 0.59428 0.08237 0.31339 0.0
C550 C 0.629 0.04402 0.33599 0.0
C551 C 0.6523 0.06489 0.33225 0.0
C552 C 0.64628 0.09424 0.31871 0.0
C553 C 0.61784 0.10269 0.30925 0.0
C554 C 0.72893 0.07184 0.36583 0.0
C555 C 0.74255 0.04303 0.35786 0.0
C556 C 0.69951 0.07857 0.35802 0.0
C557 C 0.683 0.05662 0.34209 0.0
C558 C 0.69665 0.02777 0.33415 0.0
C559 C 0.72622 0.02118 0.34173 0.0
H560 H 0.74039 0.21267 0.54757 0.0
H561 H 0.69333 0.22697 0.46544 0.0
H562 H 0.75594 0.15949 0.53201 0.0
H563 H 0.70934 0.17428 0.44928 0.0
H564 H 0.71798 0.06821 0.43915 0.0
H565 H 0.70105 0.11899 0.4592 0.0
H566 H 0.78712 0.13199 0.49789 0.0
H567 H 0.80368 0.08125 0.47854 0.0
C568 C 0.73413 0.20465 0.52584 0.0
C569 C 0.7164 0.22401 0.50733 0.0
C570 C 0.74283 0.17417 0.51694 0.0
C571 C 0.73377 0.16242 0.48941 0.0
C572 C 0.71636 0.18226 0.47078 0.0
C573 C 0.70766 0.21265 0.47973 0.0
C574 C 0.73301 0.08157 0.45257 0.0
C575 C 0.76218 0.07068 0.45719 0.0
C576 C 0.72347 0.11091 0.46371 0.0
C577 C 0.74285 0.1299 0.47985 0.0
C578 C 0.77152 0.11808 0.48573 0.0
C579 C 0.78105 0.08894 0.47451 0.0
H580 H 0.11942 0.41811 0.79264 0.0
H581 H 0.07693 0.44477 0.71007 0.0
H582 H 0.16566 0.43816 0.77508 0.0
H583 H 0.12346 0.46565 0.69289 0.0
H584 H 0.20515 0.5306 0.69292 0.0
H585 H 0.15938 0.51194 0.7127 0.0
H586 H 0.20013 0.42009 0.72895 0.0
H587 H 0.24622 0.43838 0.70827 0.0
C588 C 0.11977 0.42874 0.77092 0.0
C589 C 0.09441 0.43005 0.75276 0.0
C590 C 0.14635 0.43992 0.76086 0.0
C591 C 0.14801 0.45323 0.7327 0.0
C592 C 0.12258 0.45548 0.71478 0.0
C593 C 0.09602 0.44365 0.72461 0.0
C594 C 0.20465 0.50649 0.70099 0.0
C595 C 0.22943 0.48591 0.699 0.0
C596 C 0.1783 0.49584 0.71207 0.0
C597 C 0.1763 0.46462 0.72201 0.0
C598 C 0.20128 0.44433 0.72133 0.0
C599 C 0.2276 0.4548 0.70963 0.0
H600 H 0.80982 0.96117 0.99823 0.0
H601 H 0.79546 0.92088 0.91236 0.0
H602 H 0.82286 0.90784 1.01762 0.0
H603 H 0.80674 0.86882 0.93151 0.0
H604 H 0.86745 0.78879 0.96247 0.0
H605 H 0.85088 0.84152 0.94686 0.0
H606 H 0.80405 0.85338 0.02824 0.0
H607 H 0.82139 0.80011 0.04398 0.0
C608 C 0.80912 0.94106 0.98364 0.0
C609 C 0.80156 0.94537 0.95376 0.0
C610 C 0.81634 0.91055 0.99472 0.0
C611 C 0.81611 0.88401 0.97602 0.0
C612 C 0.80778 0.8886 0.94646 0.0
C613 C 0.80099 0.91869 0.93551 0.0
C614 C 0.85294 0.80236 0.97662 0.0
C615 C 0.8448 0.79014 1.00389 0.0
C616 C 0.84354 0.83267 0.96782 0.0
C617 C 0.82587 0.85172 0.98619 0.0
C618 C 0.81765 0.83938 1.01361 0.0
C619 C 0.82706 0.80877 1.02238 0.0
H620 H 0.47577 0.58624 0.19249 0.0
H621 H 0.47061 0.54013 0.27716 0.0
H622 H 0.42693 0.56757 0.17941 0.0
H623 H 0.42179 0.52205 0.26443 0.0
H624 H 0.3266 0.56495 0.1815 0.0
H625 H 0.37628 0.58053 0.1951 0.0
H626 H 0.39408 0.48788 0.23285 0.0
H627 H 0.34447 0.47261 0.21985 0.0
C628 C 0.46462 0.5713 0.20793 0.0
C629 C 0.47707 0.56448 0.23579 0.0
C630 C 0.43639 0.56116 0.20069 0.0
C631 C 0.42023 0.54382 0.2211 0.0
C632 C 0.43359 0.5353 0.24817 0.0
C633 C 0.46164 0.54555 0.25543 0.0
C634 C 0.34086 0.54824 0.19342 0.0
C635 C 0.33157 0.51758 0.19968 0.0
C636 C 0.36951 0.55695 0.20072 0.0
C637 C 0.38934 0.53524 0.21458 0.0
C638 C 0.37943 0.50519 0.2222 0.0
C639 C 0.35092 0.49646 0.21482 0.0
H640 H 0.61447 0.18699 0.32635 0.0
H641 H 0.5242 0.20877 0.34887 0.0
H642 H 0.63039 0.20527 0.37502 0.0
H643 H 0.54012 0.22582 0.39745 0.0
H644 H 0.5813 0.2077 0.49238 0.0
H645 H 0.56659 0.1922 0.44214 0.0
H646 H 0.6264 0.25904 0.40603 0.0
H647 H 0.64032 0.275 0.45557 0.0
C648 C 0.59814 0.19641 0.34127 0.0
C649 C 0.56808 0.19631 0.33374 0.0
C650 C 0.6072 0.20644 0.36923 0.0
C651 C 0.58632 0.2161 0.39011 0.0
C652 C 0.55653 0.21775 0.38196 0.0
C653 C 0.54754 0.20831 0.35401 0.0
C654 C 0.59103 0.21908 0.47363 0.0
C655 C 0.61136 0.24296 0.47773 0.0
C656 C 0.58272 0.2103 0.44503 0.0
C657 C 0.5954 0.22459 0.42035 0.0
C658 C 0.61635 0.24771 0.42464 0.0
C659 C 0.62403 0.257 0.45299 0.0
H660 H 0.11704 0.33761 0.56828 0.0
H661 H 0.08155 0.24548 0.58318 0.0
H662 H 0.09955 0.35467 0.61656 0.0
H663 H 0.06405 0.26245 0.63112 0.0
H664 H 1.02056 0.30971 0.71004 0.0
H665 H 0.03012 0.29921 0.65805 0.0
H666 H 0.11616 0.33865 0.66793 0.0
H667 H 0.10647 0.3492 0.71981 0.0
C668 C 0.10468 0.32136 0.58142 0.0
C669 C 0.10062 0.29023 0.57191 0.0
C670 C 0.09501 0.33097 0.60922 0.0
C671 C 0.08067 0.3098 0.62781 0.0
C672 C 0.07486 0.2794 0.61734 0.0
C673 C 0.0849 0.26967 0.58983 0.0
C674 C 0.04144 0.31622 0.70099 0.0
C675 C 0.06282 0.33012 0.7189 0.0
C676 C 0.04694 0.31019 0.67128 0.0
C677 C 0.07385 0.31824 0.6588 0.0
C678 C 0.09506 0.33256 0.67674 0.0
C679 C 0.08968 0.33824 0.70652 0.0
H680 H 0.95571 0.81077 0.81456 0.0
H681 H 0.04459 0.81525 0.84913 0.0
H682 H 0.93953 0.79177 0.86268 0.0
H683 H 0.02807 0.79746 0.89692 0.0
H684 H 0.96801 0.81119 0.98299 0.0
H685 H 0.9855 0.82707 0.93432 0.0
H686 H 0.95805 0.73845 0.89827 0.0
H687 H 0.94151 0.72204 0.94658 0.0
C688 C 0.9718 0.8073 0.83216 0.0
C689 C 1.00143 0.81436 0.82788 0.0
C690 C 0.96252 0.79667 0.85965 0.0
C691 C 0.98261 0.79364 0.88335 0.0
C692 C 1.01222 0.79995 0.87896 0.0
C693 C 1.02162 0.80985 0.85145 0.0
C694 C 0.96615 0.79496 0.96476 0.0
C695 C 0.95373 0.76527 0.96872 0.0
C696 C 0.976 0.80406 0.93701 0.0
C697 C 0.97282 0.78395 0.91275 0.0
C698 C 0.96052 0.75433 0.91669 0.0
C699 C 0.95137 0.74492 0.94444 0.0
H700 H 0.52038 0.64529 0.19071 0.0
H701 H 0.45344 0.70573 0.22855 0.0
H702 H 0.50232 0.65775 0.14214 0.0
H703 H 0.43242 0.71562 0.17948 0.0
H704 H 0.41315 0.74873 0.08631 0.0
H705 H 0.43146 0.73878 0.13552 0.0
H706 H 0.47061 0.65037 0.1057 0.0
H707 H 0.45586 0.66401 0.05538 0.0
C708 C 0.50184 0.66164 0.18863 0.0
C709 C 0.48912 0.67537 0.21364 0.0
C710 C 0.49071 0.66813 0.16043 0.0
C711 C 0.46542 0.68759 0.15605 0.0
C712 C 0.45227 0.70107 0.18131 0.0
C713 C 0.46421 0.69534 0.2097 0.0
C714 C 0.42737 0.72848 0.08992 0.0
C715 C 0.43515 0.70886 0.06642 0.0
C716 C 0.43693 0.72174 0.1187 0.0
C717 C 0.45356 0.69399 0.12531 0.0
C718 C 0.45923 0.67283 0.10189 0.0
C719 C 0.45037 0.68033 0.07285 0.0
H720 H 0.21577 0.40234 0.35902 0.0
H721 H 0.14935 0.34679 0.31677 0.0
H722 H 0.23161 0.4209 0.31109 0.0
H723 H 0.16572 0.36472 0.26867 0.0
H724 H 0.17686 0.44078 0.19518 0.0
H725 H 0.16365 0.41389 0.24045 0.0
H726 H 0.25549 0.40486 0.26543 0.0
H727 H 0.26865 0.43223 0.22011 0.0
C728 C 0.20458 0.39401 0.33948 0.0
C729 C 0.18109 0.37329 0.34181 0.0
C730 C 0.21394 0.40433 0.31194 0.0
C731 C 0.19997 0.39432 0.28594 0.0
C732 C 0.17683 0.37312 0.28823 0.0
C733 C 0.16758 0.36264 0.3158 0.0
C734 C 0.19427 0.43258 0.2101 0.0
C735 C 0.22376 0.43888 0.20421 0.0
C736 C 0.18671 0.41704 0.23605 0.0
C737 C 0.20846 0.40746 0.2568 0.0
C738 C 0.23813 0.41239 0.25017 0.0
C739 C 0.24571 0.42784 0.2241 0.0
H740 H 0.89855 0.9669 0.61067 0.0
H741 H 0.92947 0.87713 0.57655 0.0
H742 H 0.87447 0.97926 0.56363 0.0
H743 H 0.90657 0.89009 0.52905 0.0
H744 H 0.82889 0.90514 0.46377 0.0
H745 H 0.85839 0.89393 0.50797 0.0
H746 H 0.8805 0.99243 0.51298 0.0
H747 H 0.85005 1.0037 0.46923 0.0
C748 C 0.90042 0.94988 0.59306 0.0
C749 C 0.91576 0.92087 0.5976 0.0
C750 C 0.88689 0.95715 0.56589 0.0
C751 C 0.88835 0.93562 0.54243 0.0
C752 C 0.90455 0.90707 0.54668 0.0
C753 C 0.91805 0.89979 0.57387 0.0
C754 C 0.84033 0.92433 0.47413 0.0
C755 C 0.83711 0.9553 0.46306 0.0
C756 C 0.8574 0.91789 0.49945 0.0
C757 C 0.87188 0.94226 0.51424 0.0
C758 C 0.86935 0.97313 0.50252 0.0
C759 C 0.85211 0.97958 0.47727 0.0
H760 H 0.3386 0.59788 0.67825 0.0
H761 H 0.29483 0.53691 0.73885 0.0
H762 H 0.347 0.63566 0.71833 0.0
H763 H 0.30299 0.574 0.77845 0.0
H764 H 0.30993 0.65101 0.84432 0.0
H765 H 0.29287 0.62601 0.79914 0.0
H766 H 0.3796 0.63285 0.76282 0.0
H767 H 0.3964 0.65866 0.80756 0.0
C768 C 0.33002 0.59309 0.69986 0.0
C769 C 0.31617 0.56455 0.70558 0.0
C770 C 0.33506 0.61445 0.72286 0.0
C771 C 0.32585 0.60776 0.7517 0.0
C772 C 0.31016 0.58017 0.7566 0.0
C773 C 0.30558 0.55881 0.73389 0.0
C774 C 0.32522 0.64769 0.82651 0.0
C775 C 0.35464 0.6565 0.82978 0.0
C776 C 0.31549 0.63322 0.80064 0.0
C777 C 0.33488 0.62732 0.77732 0.0
C778 C 0.36397 0.63731 0.78014 0.0
C779 C 0.37373 0.65165 0.80604 0.0
H780 H 0.64908 0.03168 0.11785 0.0
H781 H 0.63558 0.12626 0.08306 0.0
H782 H 0.66934 0.01467 0.07086 0.0
H783 H 0.65471 0.10904 0.03594 0.0
H784 H 0.72833 0.07956 0.97377 0.0
H785 H 0.70217 0.09468 1.0176 0.0
H786 H 0.65978 1.00468 1.01837 0.0
H787 H 0.68683 0.98899 0.97421 0.0
C788 C 0.65022 0.04881 0.10015 0.0
C789 C 0.64084 0.08044 0.10444 0.0
C790 C 0.66152 0.03894 0.07304 0.0
C791 C 0.66387 0.06048 0.04954 0.0
C792 C 0.65364 0.09184 0.0536 0.0
C793 C 0.64232 0.10168 0.08061 0.0
C794 C 0.71328 0.06291 0.98296 0.0
C795 C 0.70981 0.03293 0.97031 0.0
C796 C 0.69804 0.07177 1.00816 0.0
C797 C 0.67871 0.05102 1.02163 0.0
C798 C 0.67468 0.02119 1.00873 0.0
C799 C 0.68999 1.01228 0.98328 0.0
H800 H 0.65724 0.10924 0.70761 0.0
H801 H 0.72522 0.17625 0.72465 0.0
H802 H 0.67076 0.08121 0.75285 0.0
H803 H 0.73916 0.14736 0.77003 0.0
H804 H 0.73237 0.08783 0.8632 0.0
H805 H 0.71747 0.12593 0.82369 0.0
H806 H 0.72083 0.0504 0.76043 0.0
H807 H 0.73572 0.01331 0.7987 0.0
C808 C 0.67464 0.11849 0.72127 0.0
C809 C 0.69022 0.14498 0.71222 0.0
C810 C 0.6825 0.10226 0.74719 0.0
C811 C 0.70612 0.112 0.7649 0.0
C812 C 0.72078 0.13944 0.75689 0.0
C813 C 0.71299 0.1557 0.73072 0.0
C814 C 0.73013 0.07966 0.84077 0.0
C815 C 0.73472 0.04747 0.8342 0.0
C816 C 0.72163 0.10135 0.81824 0.0
C817 C 0.71738 0.0909 0.78911 0.0
C818 C 0.72324 0.05905 0.7827 0.0
C819 C 0.73187 0.03777 0.80479 0.0
H820 H 0.23635 0.41577 0.06685 0.0
H821 H 0.1759 0.49567 0.07623 0.0
H822 H 0.20906 0.39871 1.02402 0.0
H823 H 0.14784 0.47783 0.03339 0.0
H824 H 0.12348 0.45184 0.93735 0.0
H825 H 0.15088 0.47152 0.97985 0.0
H826 H 0.16309 0.37585 1.01249 0.0
H827 H 0.13719 0.35622 0.96964 0.0
C828 C 0.21702 0.42959 0.05998 0.0
C829 C 0.20824 0.45705 0.07515 0.0
C830 C 0.20127 0.41968 0.03539 0.0
C831 C 0.17612 0.43675 0.02537 0.0
C832 C 0.16729 0.46431 0.04041 0.0
C833 C 0.18322 0.47439 0.06507 0.0
C834 C 0.13232 0.43505 0.95348 0.0
C835 C 0.12808 0.40247 0.95014 0.0
C836 C 0.14768 0.44635 0.978 0.0
C837 C 0.15916 0.42527 0.99958 0.0
C838 C 0.15486 0.39274 0.99614 0.0
C839 C 0.13967 0.3815 0.97171 0.0
H840 H 0.78926 0.90664 0.33205 0.0
H841 H 0.86645 0.96371 0.32892 0.0
H842 H 0.80481 0.87966 0.28725 0.0
H843 H 0.88194 0.93663 0.28455 0.0
H844 H 0.87858 0.91413 0.1866 0.0
H845 H 0.86444 0.93665 0.23354 0.0
H846 H 0.8428 0.84395 0.26534 0.0
H847 H 0.85609 0.82137 0.21775 0.0
C848 C 0.80969 0.9132 0.32206 0.0
C849 C 0.82641 0.93761 0.334 0.0
C850 C 0.81865 0.89763 0.29643 0.0
C851 C 0.84442 0.90628 0.28208 0.0
C852 C 0.86169 0.92979 0.29472 0.0
C853 C 0.85286 0.94518 0.32035 0.0
C854 C 0.87052 0.8985 0.20342 0.0
C855 C 0.86838 0.86591 0.19824 0.0
C856 C 0.86278 0.91139 0.23054 0.0
C857 C 0.85267 0.89209 0.25332 0.0
C858 C 0.85037 0.8595 0.24821 0.0
C859 C 0.85824 0.84653 0.22102 0.0
H860 H 0.31525 0.57629 0.553 0.0
H861 H 0.38784 0.51634 0.58436 0.0
H862 H 0.34329 0.59083 0.51036 0.0
H863 H 0.41625 0.53155 0.54113 0.0
H864 H 0.46191 0.60249 0.47371 0.0
H865 H 0.43701 0.58561 0.51848 0.0
H866 H 0.36234 0.5582 0.46587 0.0
H867 H 0.38717 0.5748 0.4213 0.0
C868 C 0.33732 0.56635 0.55098 0.0
C869 C 0.34931 0.54509 0.57219 0.0
C870 C 0.35329 0.57461 0.52638 0.0
C871 C 0.3818 0.56218 0.52242 0.0
C872 C 0.39426 0.54148 0.54381 0.0
C873 C 0.37801 0.53273 0.56842 0.0
C874 C 0.44016 0.59288 0.47183 0.0
C875 C 0.42637 0.59003 0.44412 0.0
C876 C 0.42611 0.58296 0.49733 0.0
C877 C 0.39784 0.5706 0.49553 0.0
C878 C 0.38412 0.56773 0.46782 0.0
C879 C 0.39832 0.57715 0.44236 0.0
H880 H 0.22661 0.17418 0.47041 0.0
H881 H 0.23361 0.26637 0.43016 0.0
H882 H 0.2713 0.15633 0.44628 0.0
H883 H 0.27809 0.24814 0.40527 0.0
H884 H 0.3742 0.21686 0.39314 0.0
H885 H 0.32862 0.23417 0.41619 0.0
H886 H 0.29228 0.14257 0.40004 0.0
H887 H 0.3381 0.12519 0.37715 0.0
C888 C 0.23743 0.19059 0.45607 0.0
C889 C 0.2264 0.2218 0.45229 0.0
C890 C 0.26311 0.18023 0.44209 0.0
C891 C 0.2785 0.20074 0.42382 0.0
C892 C 0.26714 0.23179 0.41955 0.0
C893 C 0.24144 0.2422 0.43363 0.0
C894 C 0.35644 0.20043 0.39435 0.0
C895 C 0.35984 0.16964 0.38313 0.0
C896 C 0.3302 0.21042 0.40751 0.0
C897 C 0.30654 0.18993 0.40982 0.0
C898 C 0.31008 0.15895 0.39896 0.0
C899 C 0.3364 0.14893 0.38585 0.0
H900 H 0.12529 0.0987 0.66519 0.0
H901 H 0.08147 0.06175 0.58835 0.0
H902 H 0.10741 0.05519 0.69458 0.0
H903 H 0.06473 0.01737 0.61746 0.0
H904 H 1.01815 0.95602 0.68494 0.0
H905 H 0.03238 1.00183 0.65614 0.0
H906 H 0.11727 0.99954 0.70009 0.0
H907 H 0.10289 0.95446 0.72927 0.0
C908 C 0.11159 0.08149 0.6546 0.0
C909 C 0.10489 0.08376 0.62435 0.0
C910 C 0.10168 0.05623 0.67138 0.0
C911 C 0.08487 0.03251 0.65836 0.0
C912 C 0.07747 0.03526 0.62829 0.0
C913 C 0.08734 0.06056 0.61151 0.0
C914 C 0.03988 0.96524 0.6884 0.0
C915 C 0.05932 0.95153 0.70951 0.0
C916 C 0.04808 0.99149 0.67181 0.0
C917 C 0.07592 1.00458 0.67589 0.0
C918 C 0.09543 0.99056 0.69675 0.0
C919 C 0.08723 0.96446 0.71337 0.0
H920 H 0.2275 0.80717 0.85122 0.0
H921 H 0.2008 0.8757 0.91636 0.0
H922 H 0.27234 0.79512 0.87971 0.0
H923 H 0.24437 0.86226 0.94557 0.0
H924 H 0.33618 0.85754 0.98022 0.0
H925 H 0.29501 0.86925 0.9469 0.0
H926 H 0.29251 0.77051 0.92336 0.0
H927 H 0.33482 0.75921 0.95621 0.0
C928 C 0.23112 0.81974 0.87157 0.0
C929 C 0.21037 0.84262 0.88127 0.0
C930 C 0.25674 0.81248 0.88815 0.0
C931 C 0.26234 0.82783 0.91495 0.0
C932 C 0.24135 0.85034 0.92479 0.0
C933 C 0.21593 0.85774 0.90817 0.0
C934 C 0.32712 0.83842 0.96755 0.0
C935 C 0.33877 0.80752 0.9707 0.0
C936 C 0.30323 0.84504 0.94865 0.0
C937 C 0.2898 0.82079 0.93275 0.0
C938 C 0.30225 0.7899 0.93506 0.0
C939 C 0.32658 0.78336 0.95381 0.0
H940 H 0.54127 0.05744 0.18683 0.0
H941 H 0.46655 0.04845 0.24361 0.0
H942 H 0.52211 0.01587 0.15532 0.0
H943 H 0.44791 1.00694 0.21263 0.0
H944 H 0.40731 0.95129 0.13971 0.0
H945 H 0.42632 0.99775 0.16442 0.0
H946 H 0.51476 0.95894 0.15741 0.0
H947 H 0.49583 0.91307 0.13197 0.0
C948 C 0.52085 0.04663 0.19264 0.0
C949 C 0.5055 0.05635 0.21778 0.0
C950 C 0.50989 0.02278 0.17462 0.0
C951 C 0.48335 1.00822 0.18133 0.0
C952 C 0.46807 0.01805 0.20643 0.0
C953 C 0.47897 0.04176 0.22438 0.0
C954 C 0.43084 0.95301 0.14295 0.0
C955 C 0.45003 0.92839 0.13417 0.0
C956 C 0.44173 0.97946 0.15736 0.0
C957 C 0.47206 0.98191 0.16319 0.0
C958 C 0.49133 0.95792 0.15317 0.0
C959 C 0.48044 0.93147 0.13886 0.0
H960 H 0.86621 0.38661 0.62069 0.0
H961 H 0.85882 0.32593 0.69689 0.0
H962 H 0.81936 0.36852 0.60196 0.0
H963 H 0.81109 0.30897 0.67876 0.0
H964 H 0.74396 0.26014 0.61632 0.0
H965 H 0.78942 0.27764 0.63948 0.0
H966 H 0.7678 0.37378 0.61274 0.0
H967 H 0.72293 0.35636 0.58921 0.0
C968 C 0.85461 0.3694 0.63347 0.0
C969 C 0.86633 0.35775 0.6603 0.0
C970 C 0.82751 0.35934 0.62293 0.0
C971 C 0.81133 0.33749 0.639 0.0
C972 C 0.82306 0.3257 0.66578 0.0
C973 C 0.85026 0.33572 0.67632 0.0
C974 C 0.74873 0.28506 0.61577 0.0
C975 C 0.72998 0.30677 0.60061 0.0
C976 C 0.77477 0.29511 0.62907 0.0
C977 C 0.78247 0.32704 0.62752 0.0
C978 C 0.7629 0.3489 0.61369 0.0
C979 C 0.73704 0.3389 0.60036 0.0
H980 H 0.03195 0.44797 0.83207 0.0
H981 H 0.94015 0.42548 0.8262 0.0
H982 H 1.02008 0.4905 0.86669 0.0
H983 H 0.92831 0.46773 0.86075 0.0
H984 H 0.92103 0.52602 0.94422 0.0
H985 H 0.93608 0.48204 0.91302 0.0
H986 H 0.9927 0.54344 0.86506 0.0
H987 H 0.97793 0.58761 0.89673 0.0
C988 C 1.0093 0.4519 0.83843 0.0
C989 C 0.98695 0.43345 0.82641 0.0
C990 C 1.00248 0.47639 0.85806 0.0
C991 C 0.97323 0.4826 0.8664 0.0
C992 C 0.95108 0.46344 0.85499 0.0
C993 C 0.95784 0.43927 0.83514 0.0
C994 C 0.93701 0.53013 0.92731 0.0
C995 C 0.94835 0.56038 0.92309 0.0
C996 C 0.94542 0.50494 0.90923 0.0
C997 C 0.96555 0.5092 0.88651 0.0
C998 C 0.97733 0.5393 0.88253 0.0
C999 C 0.96868 0.56466 0.90049 0.0
H1000 H 0.8348 0.66314 0.08467 0.0
H1001 H 0.83393 0.75716 0.12146 0.0
H1002 H 0.79177 0.65071 0.1126 0.0
H1003 H 0.79078 0.74423 0.15022 0.0
H1004 H 0.6908 0.72118 0.15659 0.0
H1005 H 0.73888 0.73504 0.13823 0.0
H1006 H 0.77297 0.64164 0.16125 0.0
H1007 H 0.72464 0.62746 0.17861 0.0
C1008 C 0.82574 0.68106 0.09913 0.0
C1009 C 0.83773 0.71128 0.10063 0.0
C1010 C 0.80111 0.67378 0.11538 0.0
C1011 C 0.7878 0.69647 0.13363 0.0
C1012 C 0.8004 0.72635 0.13609 0.0
C1013 C 0.82521 0.73367 0.11979 0.0
C1014 C 0.70862 0.70367 0.15781 0.0
C1015 C 0.70388 0.67313 0.16875 0.0
C1016 C 0.73626 0.71174 0.14765 0.0
C1017 C 0.75972 0.6894 0.14816 0.0
C1018 C 0.75525 0.65928 0.16027 0.0
C1019 C 0.72764 0.65124 0.17046 0.0
H1020 H 0.62419 0.48536 0.44562 0.0
H1021 H 0.57333 0.41842 0.39653 0.0
H1022 H 0.6095 0.52689 0.41052 0.0
H1023 H 0.55879 0.45996 0.36138 0.0
H1024 H 0.58005 0.52621 0.28463 0.0
H1025 H 0.58613 0.48757 0.32397 0.0
H1026 H 0.56888 0.56047 0.38804 0.0
H1027 H 0.56299 0.59974 0.34802 0.0
C1028 C 0.60934 0.47961 0.42773 0.0
C1029 C 0.60019 0.44837 0.4238 0.0
C1030 C 0.60092 0.5035 0.40759 0.0
C1031 C 0.58322 0.49674 0.38295 0.0
C1032 C 0.5729 0.46587 0.37982 0.0
C1033 C 0.58128 0.44202 0.39996 0.0
C1034 C 0.5774 0.53411 0.30708 0.0
C1035 C 0.57118 0.56606 0.31325 0.0
C1036 C 0.58062 0.51181 0.32968 0.0
C1037 C 0.57782 0.52079 0.35921 0.0
C1038 C 0.57131 0.55281 0.3655 0.0
C1039 C 0.56785 0.57526 0.34267 0.0
H1040 H 0.40567 0.33773 0.21739 0.0
H1041 H 0.3616 0.26954 0.16343 0.0
H1042 H 0.43916 0.29606 0.23618 0.0
H1043 H 0.39469 0.22777 0.18249 0.0
H1044 H 0.48438 0.17402 0.19108 0.0
H1045 H 0.44485 0.21167 0.17707 0.0
H1046 H 0.44551 0.24912 0.26539 0.0
H1047 H 0.48601 0.21218 0.27869 0.0
C1048 C 0.4028 0.31373 0.20995 0.0
C1049 C 0.38119 0.30702 0.18868 0.0
C1050 C 0.42196 0.28977 0.22078 0.0
C1051 C 0.41982 0.25848 0.21071 0.0
C1052 C 0.39741 0.25164 0.1903 0.0
C1053 C 0.3784 0.2756 0.17938 0.0
C1054 C 0.47551 0.18991 0.20754 0.0
C1055 C 0.48767 0.19004 0.23599 0.0
C1056 C 0.45285 0.21146 0.19962 0.0
C1057 C 0.44193 0.23357 0.22009 0.0
C1058 C 0.4536 0.23278 0.24895 0.0
C1059 C 0.47647 0.21138 0.25673 0.0
H1060 H 0.93464 0.30664 0.76149 0.0
H1061 H 0.99055 0.2874 0.83763 0.0
H1062 H 0.90451 0.26182 0.77488 0.0
H1063 H 0.96054 0.24337 0.85094 0.0
H1064 H 0.92032 0.14823 0.85333 0.0
H1065 H 0.94958 0.19055 0.83366 0.0
H1066 H 0.87027 0.24552 0.81372 0.0
H1067 H 0.84087 0.20264 0.83243 0.0
C1068 C 0.94047 0.293 0.78106 0.0
C1069 C 0.96509 0.30063 0.7984 0.0
C1070 C 0.92318 0.26738 0.78876 0.0
C1071 C 0.93033 0.2488 0.8138 0.0
C1072 C 0.95476 0.25672 0.83118 0.0
C1073 C 0.97185 0.28226 0.82363 0.0
C1074 C 0.90905 0.16901 0.84416 0.0
C1075 C 0.87823 0.17208 0.84465 0.0
C1076 C 0.92585 0.19346 0.8332 0.0
C1077 C 0.91227 0.22159 0.82245 0.0
C1078 C 0.88142 0.22414 0.82174 0.0
C1079 C 0.86459 0.19968 0.83275 0.0
H1080 H 0.10959 0.66097 0.13551 0.0
H1081 H 0.07879 0.56927 0.11011 0.0
H1082 H 0.06279 0.68504 0.12026 0.0
H1083 H 0.03162 0.59376 0.09435 0.0
H1084 H 0.96822 0.66521 0.03816 0.0
H1085 H 1.01031 0.63223 0.05602 0.0
H1086 H 1.0118 0.68553 0.13675 0.0
H1087 H 0.97064 0.71857 0.11858 0.0
C1088 C 0.09269 0.64581 0.12706 0.0
C1089 C 0.09792 0.61307 0.1245 0.0
C1090 C 0.06579 0.65966 0.11825 0.0
C1091 C 0.04328 0.64124 0.10652 0.0
C1092 C 0.04854 0.60856 0.10331 0.0
C1093 C 0.07557 0.59459 0.1123 0.0
C1094 C 0.97713 0.66906 0.06005 0.0
C1095 C 0.96643 0.69427 0.07709 0.0
C1096 C 1.0012 0.65032 0.07024 0.0
C1097 C 1.01475 0.65674 0.09756 0.0
C1098 C 1.00232 0.68047 0.11536 0.0
C1099 C 0.97859 0.69918 0.10513 0.0
H1100 H 0.66997 0.85218 0.31287 0.0
H1101 H 0.66071 0.81572 0.40102 0.0
H1102 H 0.64476 0.80648 0.29332 0.0
H1103 H 0.63591 0.76997 0.38158 0.0
H1104 H 0.56268 0.71219 0.34179 0.0
H1105 H 0.59042 0.75618 0.36026 0.0
H1106 H 0.64653 0.75062 0.28455 0.0
H1107 H 0.61805 0.70685 0.26556 0.0
C1108 C 0.66291 0.83424 0.3281 0.0
C1109 C 0.6672 0.83796 0.35862 0.0
C1110 C 0.64843 0.80791 0.31685 0.0
C1111 C 0.63791 0.78444 0.33579 0.0
C1112 C 0.64296 0.7878 0.36624 0.0
C1113 C 0.65729 0.81413 0.37746 0.0
C1114 C 0.58096 0.72019 0.32901 0.0
C1115 C 0.58802 0.70579 0.30211 0.0
C1116 C 0.5971 0.74544 0.33978 0.0
C1117 C 0.62098 0.75712 0.32409 0.0
C1118 C 0.62813 0.74265 0.29716 0.0
C1119 C 0.61186 0.71736 0.28631 0.0
H1120 H 0.59862 0.30457 0.634 0.0
H1121 H 0.59899 0.33643 0.54369 0.0
H1122 H 0.55459 0.33673 0.64275 0.0
H1123 H 0.55387 0.36852 0.55228 0.0
H1124 H 0.48015 0.43745 0.59424 0.0
H1125 H 0.52855 0.41396 0.58229 0.0
H1126 H 0.50435 0.32662 0.62374 0.0
H1127 H 0.45655 0.34962 0.63532 0.0
C1128 C 0.58951 0.31902 0.61614 0.0
C1129 C 0.60198 0.31788 0.58817 0.0
C1130 C 0.56415 0.33725 0.62107 0.0
C1131 C 0.55032 0.35449 0.59802 0.0
C1132 C 0.56402 0.35536 0.57044 0.0
C1133 C 0.58982 0.33713 0.56553 0.0
C1134 C 0.48517 0.41315 0.60053 0.0
C1135 C 0.46471 0.39563 0.61634 0.0
C1136 C 0.51284 0.39976 0.59369 0.0
C1137 C 0.52048 0.3687 0.60266 0.0
C1138 C 0.49949 0.35092 0.61727 0.0
C1139 C 0.47205 0.36415 0.62398 0.0
H1140 H 0.18604 0.724 0.65374 0.0
H1141 H 0.16227 0.66211 0.72484 0.0
H1142 H 0.15491 0.76618 0.67389 0.0
H1143 H 0.13146 0.70462 0.74537 0.0
H1144 H 0.04555 0.7676 0.73698 0.0
H1145 H 0.08431 0.72853 0.72711 0.0
H1146 H 0.14594 0.80324 0.71574 0.0
H1147 H 0.10666 0.84267 0.72568 0.0
C1148 C 0.17443 0.71955 0.67391 0.0
C1149 C 0.17626 0.68956 0.68746 0.0
C1150 C 0.15686 0.74385 0.68564 0.0
C1151 C 0.14057 0.73871 0.71113 0.0
C1152 C 0.14355 0.70921 0.72553 0.0
C1153 C 0.16132 0.68493 0.71389 0.0
C1154 C 0.06746 0.7757 0.73272 0.0
C1155 C 0.0731 0.80813 0.73187 0.0
C1156 C 0.08975 0.75328 0.72733 0.0
C1157 C 0.11823 0.76274 0.72064 0.0
C1158 C 0.12416 0.79525 0.72068 0.0
C1159 C 0.10179 0.81778 0.72648 0.0
H1160 H 0.46964 0.84993 1.01177 0.0
H1161 H 0.48038 0.77956 0.94395 0.0
H1162 H 0.51473 0.87462 0.99604 0.0
H1163 H 0.5249 0.80448 0.92807 0.0
H1164 H 0.62079 0.83112 0.93117 0.0
H1165 H 0.57445 0.80954 0.94624 0.0
H1166 H 0.53785 0.90406 0.95643 0.0
H1167 H 0.58489 0.92581 0.94243 0.0
C1168 C 0.48137 0.8399 0.99332 0.0
C1169 C 0.47139 0.81253 0.97933 0.0
C1170 C 0.5072 0.85415 0.98423 0.0
C1171 C 0.52369 0.84136 0.96097 0.0
C1172 C 0.51315 0.81462 0.94645 0.0
C1173 C 0.48742 0.80041 0.95549 0.0
C1174 C 0.60305 0.8474 0.93694 0.0
C1175 C 0.60675 0.88027 0.93567 0.0
C1176 C 0.57625 0.83498 0.94522 0.0
C1177 C 0.55225 0.85502 0.95238 0.0
C1178 C 0.5559 0.88792 0.95125 0.0
C1179 C 0.5828 0.90039 0.94291 0.0
H1180 H 0.98732 0.12075 0.38486 0.0
H1181 H 0.96291 0.12004 0.47628 0.0
H1182 H 0.03091 0.14941 0.39714 0.0
H1183 H 1.00564 0.15125 0.4884 0.0
H1184 H 0.09919 0.18418 0.50653 0.0
H1185 H 0.05653 0.15227 0.49501 0.0
H1186 H 0.04936 0.19697 0.40926 0.0
H1187 H 0.09275 0.22688 0.42023 0.0
C1188 C 0.99115 0.12672 0.40769 0.0
C1189 C 0.97148 0.11747 0.42955 0.0
C1190 C 1.01614 0.14383 0.41474 0.0
C1191 C 1.02223 0.15302 0.44389 0.0
C1192 C 1.00224 0.14433 0.46576 0.0
C1193 C 0.97731 0.12677 0.45872 0.0
C1194 C 0.08864 0.1867 0.48508 0.0
C1195 C 0.09954 0.20786 0.46422 0.0
C1196 C 0.06389 0.1687 0.47853 0.0
C1197 C 0.04906 0.17177 0.45109 0.0
C1198 C 0.06024 0.19306 0.43035 0.0
C1199 C 0.08522 0.2105 0.43669 0.0
loop_
_geom_bond_atom_site_label_1
_geom_bond_atom_site_label_2
_geom_bond_distance
_geom_bond_site_symmetry_2
_ccdc_geom_bond_type
La0 C2 2.928 . S
La0 O20 2.521 . S
La0 O21 2.628 . S
La0 O22 2.554 . S
La0 O23 2.757 . S
La0 O24 2.470 . S
La0 O29 2.482 . S
La0 O31 2.503 . S
La1 C11 2.928 . S
La1 O23 2.482 . S
La1 O25 2.503 . S
La1 O26 2.521 . S
La1 O27 2.628 . S
La1 O28 2.554 . S
La1 O29 2.757 . S
La1 O30 2.470 . S
C2 La0 2.928 . S
C2 C3 1.503 . S
C2 O20 1.261 . S
C2 O21 1.243 . S
C3 C2 1.503 . S
C3 C4 1.394 . S
C3 C8 1.373 . S
C4 C3 1.394 . S
C4 C5 1.380 . S
C4 H32 0.930 . S
C5 C4 1.380 . S
C5 C6 1.376 . S
C5 H33 0.930 . S
C6 C5 1.376 . S
C6 C7 1.370 . S
C7 C6 1.370 . S
C7 C8 1.396 . S
C7 H34 0.929 . S
C8 C3 1.373 . S
C8 C7 1.396 . S
C8 H35 0.929 . S
C9 O22 1.240 . S
C9 O23 1.289 . S
C10 O24 1.258 . S
C10 O25 1.256 . S
C11 La1 2.928 . S
C11 C12 1.503 . S
C11 O26 1.261 . S
C11 O27 1.243 . S
C12 C11 1.503 . S
C12 C13 1.394 . S
C12 C17 1.373 . S
C13 C12 1.394 . S
C13 C14 1.380 . S
C13 H36 0.930 . S
C14 C13 1.380 . S
C14 C15 1.376 . S
C14 H37 0.930 . S
C15 C14 1.376 . S
C15 C16 1.370 . S
C16 C15 1.370 . S
C16 C17 1.396 . S
C16 H38 0.929 . S
C17 C12 1.373 . S
C17 C16 1.396 . S
C17 H39 0.929 . S
C18 O28 1.240 . S
C18 O29 1.289 . S
C19 O30 1.258 . S
C19 O31 1.256 . S
O20 La0 2.521 . S
O20 C2 1.261 . S
O21 La0 2.628 . S
O21 C2 1.243 . S
O22 La0 2.554 . S
O22 C9 1.240 . S
O23 La0 2.757 . S
O23 La1 2.482 . S
O23 C9 1.289 . S
O24 La0 2.470 . S
O24 C10 1.258 . S
O25 La1 2.503 . S
O25 C10 1.256 . S
O26 La1 2.521 . S
O26 C11 1.261 . S
O27 La1 2.628 . S
O27 C11 1.243 . S
O28 La1 2.554 . S
O28 C18 1.240 . S
O29 La0 2.482 . S
O29 La1 2.757 . S
O29 C18 1.289 . S
O30 La1 2.470 . S
O30 C19 1.258 . S
O31 La0 2.503 . S
O31 C19 1.256 . S
H32 C4 0.930 . S
H33 C5 0.930 . S
H34 C7 0.929 . S
H35 C8 0.929 . S
H36 C13 0.930 . S
H37 C14 0.930 . S
H38 C16 0.929 . S
H39 C17 0.929 . S
La40 C42 2.928 . S
La40 O60 2.521 . S
La40 O61 2.628 . S
La40 O62 2.554 1_655 S
La40 O63 2.757 1_655 S
La40 O64 2.470 1_655 S
La40 O69 2.482 . S
La40 O71 2.503 . S
La41 C51 2.928 . S
La41 O63 2.482 . S
La41 O65 2.503 . S
La41 O66 2.521 . S
La41 O67 2.628 . S
La41 O68 2.564 . S
La41 O69 2.757 1_455 S
La41 O70 2.470 . S
C42 La40 2.928 . S
C42 C43 1.503 . S
C42 O60 1.261 . S
C42 O61 1.243 . S
C43 C42 1.503 . S
C43 C44 1.394 . S
C43 C48 1.373 . S
C44 C43 1.394 . S
C44 C45 1.380 . S
C44 H72 0.930 . S
C45 C44 1.380 . S
C45 C46 1.376 . S
C45 H73 0.930 . S
C46 C45 1.376 . S
C46 C47 1.370 . S
C47 C46 1.370 . S
C47 C48 1.396 . S
C47 H74 0.929 . S
C48 C43 1.373 . S
C48 C47 1.396 . S
C48 H75 0.929 . S
C49 O62 1.240 . S
C49 O63 1.289 . S
C50 O64 1.258 . S
C50 O65 1.256 . S
C51 La41 2.928 . S
C51 C52 1.503 . S
C51 O66 1.261 . S
C51 O67 1.243 . S
C52 C51 1.503 . S
C52 C53 1.394 . S
C52 C57 1.373 . S
C53 C52 1.394 . S
C53 C54 1.380 . S
C53 H76 0.930 . S
C54 C53 1.380 . S
C54 C55 1.376 . S
C54 H77 0.930 . S
C55 C54 1.376 . S
C55 C56 1.370 . S
C56 C55 1.370 . S
C56 C57 1.396 . S
C56 H78 0.929 . S
C57 C52 1.373 . S
C57 C56 1.396 . S
C57 H79 0.929 . S
C58 O68 1.231 1_655 S
C58 O69 1.289 . S
C59 O70 1.258 1_655 S
C59 O71 1.256 . S
O60 La40 2.521 . S
O60 C42 1.261 . S
O61 La40 2.628 . S
O61 C42 1.243 . S
O62 La40 2.554 1_455 S
O62 C49 1.240 . S
O63 La40 2.757 1_455 S
O63 La41 2.482 . S
O63 C49 1.289 . S
O64 La40 2.470 1_455 S
O64 C50 1.258 . S
O65 La41 2.503 . S
O65 C50 1.256 . S
O66 La41 2.521 . S
O66 C51 1.261 . S
O67 La41 2.628 . S
O67 C51 1.243 . S
O68 La41 2.564 . S
O68 C58 1.231 1_455 S
O69 La40 2.482 . S
O69 La41 2.757 1_655 S
O69 C58 1.289 . S
O70 La41 2.470 . S
O70 C59 1.258 1_455 S
O71 La40 2.503 . S
O71 C59 1.256 . S
H72 C44 0.930 . S
H73 C45 0.930 . S
H74 C47 0.929 . S
H75 C48 0.929 . S
H76 C53 0.930 . S
H77 C54 0.930 . S
H78 C56 0.929 . S
H79 C57 0.929 . S
La80 C82 2.928 . S
La80 O100 2.521 . S
La80 O101 2.628 . S
La80 O102 2.554 1_554 S
La80 O103 2.757 1_554 S
La80 O104 2.470 1_554 S
La80 O109 2.482 . S
La80 O111 2.503 . S
La81 C91 2.928 . S
La81 O103 2.482 . S
La81 O105 2.503 . S
La81 O106 2.521 . S
La81 O107 2.628 . S
La81 O108 2.554 . S
La81 O109 2.757 1_556 S
La81 O110 2.470 . S
C82 La80 2.928 . S
C82 C83 1.503 . S
C82 O100 1.261 . S
C82 O101 1.243 . S
C83 C82 1.503 . S
C83 C84 1.394 . S
C83 C88 1.373 . S
C84 C83 1.394 . S
C84 C85 1.380 . S
C84 H112 0.930 . S
C85 C84 1.380 . S
C85 C86 1.376 . S
C85 H113 0.930 . S
C86 C85 1.376 . S
C86 C87 1.370 . S
C87 C86 1.370 . S
C87 C88 1.396 . S
C87 H114 0.929 . S
C88 C83 1.373 . S
C88 C87 1.396 . S
C88 H115 0.929 . S
C89 O102 1.240 . S
C89 O103 1.289 . S
C90 O104 1.258 . S
C90 O105 1.256 . S
C91 La81 2.928 . S
C91 C92 1.503 . S
C91 O106 1.261 . S
C91 O107 1.243 . S
C92 C91 1.503 . S
C92 C93 1.394 . S
C92 C97 1.373 . S
C93 C92 1.394 . S
C93 C94 1.380 . S
C93 H116 0.930 . S
C94 C93 1.380 . S
C94 C95 1.376 . S
C94 H117 0.930 . S
C95 C94 1.376 . S
C95 C96 1.370 . S
C96 C95 1.370 . S
C96 C97 1.396 . S
C96 H118 0.929 . S
C97 C92 1.373 . S
C97 C96 1.396 . S
C97 H119 0.929 . S
C98 O108 1.240 1_554 S
C98 O109 1.289 . S
C99 O110 1.258 1_554 S
C99 O111 1.256 . S
O100 La80 2.521 . S
O100 C82 1.261 . S
O101 La80 2.628 . S
O101 C82 1.243 . S
O102 La80 2.554 1_556 S
O102 C89 1.240 . S
O103 La80 2.757 1_556 S
O103 La81 2.482 . S
O103 C89 1.289 . S
O104 La80 2.470 1_556 S
O104 C90 1.258 . S
O105 La81 2.503 . S
O105 C90 1.256 . S
O106 La81 2.521 . S
O106 C91 1.261 . S
O107 La81 2.628 . S
O107 C91 1.243 . S
O108 La81 2.554 . S
O108 C98 1.240 1_556 S
O109 La80 2.482 . S
O109 La81 2.757 1_554 S
O109 C98 1.289 . S
O110 La81 2.470 . S
O110 C99 1.258 1_556 S
O111 La80 2.503 . S
O111 C99 1.256 . S
H112 C84 0.930 . S
H113 C85 0.930 . S
H114 C87 0.929 . S
H115 C88 0.929 . S
H116 C93 0.930 . S
H117 C94 0.930 . S
H118 C96 0.929 . S
H119 C97 0.929 . S
La120 C122 2.928 . S
La120 O140 2.521 . S
La120 O141 2.628 . S
La120 O142 2.554 . S
La120 O143 2.757 . S
La120 O144 2.470 . S
La120 O149 2.482 . S
La120 O151 2.503 . S
La121 C131 2.928 . S
La121 O143 2.482 . S
La121 O145 2.503 . S
La121 O146 2.521 . S
La121 O147 2.628 . S
La121 O148 2.554 . S
La121 O149 2.757 . S
La121 O150 2.470 . S
C122 La120 2.928 . S
C122 C123 1.503 . S
C122 O140 1.261 . S
C122 O141 1.243 . S
C123 C122 1.503 . S
C123 C124 1.394 . S
C123 C128 1.373 . S
C124 C123 1.394 . S
C124 C125 1.380 . S
C124 H152 0.930 . S
C125 C124 1.380 . S
C125 C126 1.376 . S
C125 H153 0.930 . S
C126 C125 1.376 . S
C126 C127 1.370 . S
C127 C126 1.370 . S
C127 C128 1.396 . S
C127 H154 0.929 . S
C128 C123 1.373 . S
C128 C127 1.396 . S
C128 H155 0.929 . S
C129 O142 1.240 . S
C129 O143 1.289 . S
C130 O144 1.258 . S
C130 O145 1.256 . S
C131 La121 2.928 . S
C131 C132 1.503 . S
C131 O146 1.261 . S
C131 O147 1.243 . S
C132 C131 1.503 . S
C132 C133 1.394 . S
C132 C137 1.373 . S
C133 C132 1.394 . S
C133 C134 1.380 . S
C133 H156 0.930 . S
C134 C133 1.380 . S
C134 C135 1.376 . S
C134 H157 0.930 . S
C135 C134 1.376 . S
C135 C136 1.370 . S
C136 C135 1.370 . S
C136 C137 1.396 . S
C136 H158 0.929 . S
C137 C132 1.373 . S
C137 C136 1.396 . S
C137 H159 0.929 . S
C138 O148 1.240 . S
C138 O149 1.289 . S
C139 O150 1.258 . S
C139 O151 1.256 . S
O140 La120 2.521 . S
O140 C122 1.261 . S
O141 La120 2.628 . S
O141 C122 1.243 . S
O142 La120 2.554 . S
O142 C129 1.240 . S
O143 La120 2.757 . S
O143 La121 2.482 . S
O143 C129 1.289 . S
O144 La120 2.470 . S
O144 C130 1.258 . S
O145 La121 2.503 . S
O145 C130 1.256 . S
O146 La121 2.521 . S
O146 C131 1.261 . S
O147 La121 2.628 . S
O147 C131 1.243 . S
O148 La121 2.554 . S
O148 C138 1.240 . S
O149 La120 2.482 . S
O149 La121 2.757 . S
O149 C138 1.289 . S
O150 La121 2.470 . S
O150 C139 1.258 . S
O151 La120 2.503 . S
O151 C139 1.256 . S
H152 C124 0.930 . S
H153 C125 0.930 . S
H154 C127 0.929 . S
H155 C128 0.929 . S
H156 C133 0.930 . S
H157 C134 0.930 . S
H158 C136 0.929 . S
H159 C137 0.929 . S
La160 C162 2.928 . S
La160 O180 2.521 . S
La160 O181 2.628 . S
La160 O182 2.554 . S
La160 O183 2.757 . S
La160 O184 2.470 . S
La160 O189 2.482 . S
La160 O191 2.503 . S
La161 C171 2.928 . S
La161 O183 2.482 . S
La161 O185 2.503 . S
La161 O186 2.521 . S
La161 O187 2.628 . S
La161 O188 2.554 . S
La161 O189 2.757 . S
La161 O190 2.470 . S
C162 La160 2.928 . S
C162 C163 1.503 . S
C162 O180 1.261 . S
C162 O181 1.243 . S
C163 C162 1.503 . S
C163 C164 1.394 . S
C163 C168 1.373 . S
C164 C163 1.394 . S
C164 C165 1.380 . S
C164 H192 0.930 . S
C165 C164 1.380 . S
C165 C166 1.376 . S
C165 H193 0.930 . S
C166 C165 1.376 . S
C166 C167 1.370 . S
C167 C166 1.370 . S
C167 C168 1.396 . S
C167 H194 0.929 . S
C168 C163 1.373 . S
C168 C167 1.396 . S
C168 H195 0.929 . S
C169 O182 1.240 . S
C169 O183 1.289 . S
C170 O184 1.258 . S
C170 O185 1.256 . S
C171 La161 2.928 . S
C171 C172 1.503 . S
C171 O186 1.261 . S
C171 O187 1.243 . S
C172 C171 1.503 . S
C172 C173 1.394 . S
C172 C177 1.373 . S
C173 C172 1.394 . S
C173 C174 1.380 . S
C173 H196 0.930 . S
C174 C173 1.380 . S
C174 C175 1.376 . S
C174 H197 0.930 . S
C175 C174 1.376 . S
C175 C176 1.370 . S
C176 C175 1.370 . S
C176 C177 1.396 . S
C176 H198 0.929 . S
C177 C172 1.373 . S
C177 C176 1.396 . S
C177 H199 0.929 . S
C178 O188 1.240 . S
C178 O189 1.289 . S
C179 O190 1.258 . S
C179 O191 1.256 . S
O180 La160 2.521 . S
O180 C162 1.261 . S
O181 La160 2.628 . S
O181 C162 1.243 . S
O182 La160 2.554 . S
O182 C169 1.240 . S
O183 La160 2.757 . S
O183 La161 2.482 . S
O183 C169 1.289 . S
O184 La160 2.470 . S
O184 C170 1.258 . S
O185 La161 2.503 . S
O185 C170 1.256 . S
O186 La161 2.521 . S
O186 C171 1.261 . S
O187 La161 2.628 . S
O187 C171 1.243 . S
O188 La161 2.554 . S
O188 C178 1.240 . S
O189 La160 2.482 . S
O189 La161 2.757 . S
O189 C178 1.289 . S
O190 La161 2.470 . S
O190 C179 1.258 . S
O191 La160 2.503 . S
O191 C179 1.256 . S
H192 C164 0.930 . S
H193 C165 0.930 . S
H194 C167 0.929 . S
H195 C168 0.929 . S
H196 C173 0.930 . S
H197 C174 0.930 . S
H198 C176 0.929 . S
H199 C177 0.929 . S
La200 C202 2.928 . S
La200 O220 2.521 . S
La200 O221 2.628 . S
La200 O222 2.554 . S
La200 O223 2.757 . S
La200 O224 2.470 . S
La200 O229 2.482 1_655 S
La200 O231 2.503 1_655 S
La201 C211 2.928 . S
La201 O223 2.482 1_455 S
La201 O225 2.503 1_455 S
La201 O226 2.521 . S
La201 O227 2.628 . S
La201 O228 2.554 . S
La201 O229 2.757 . S
La201 O230 2.470 . S
C202 La200 2.928 . S
C202 C203 1.503 . S
C202 O220 1.261 . S
C202 O221 1.243 . S
C203 C202 1.503 . S
C203 C204 1.394 . S
C203 C208 1.373 . S
C204 C203 1.394 . S
C204 C205 1.380 . S
C204 H232 0.930 . S
C205 C204 1.380 . S
C205 C206 1.376 . S
C205 H233 0.930 . S
C206 C205 1.376 . S
C206 C207 1.370 . S
C207 C206 1.370 . S
C207 C208 1.396 . S
C207 H234 0.929 . S
C208 C203 1.373 . S
C208 C207 1.396 . S
C208 H235 0.929 . S
C209 O222 1.240 . S
C209 O223 1.289 . S
C210 O224 1.258 . S
C210 O225 1.256 . S
C211 La201 2.928 . S
C211 C212 1.503 . S
C211 O226 1.261 . S
C211 O227 1.243 . S
C212 C211 1.503 . S
C212 C213 1.394 . S
C212 C217 1.373 . S
C213 C212 1.394 . S
C213 C214 1.380 . S
C213 H236 0.930 . S
C214 C213 1.380 . S
C214 C215 1.376 . S
C214 H237 0.930 . S
C215 C214 1.376 . S
C215 C216 1.370 . S
C216 C215 1.370 . S
C216 C217 1.396 . S
C216 H238 0.929 . S
C217 C212 1.373 . S
C217 C216 1.396 . S
C217 H239 0.929 . S
C218 O228 1.240 . S
C218 O229 1.289 . S
C219 O230 1.258 . S
C219 O231 1.256 . S
O220 La200 2.521 . S
O220 C202 1.261 . S
O221 La200 2.628 . S
O221 C202 1.243 . S
O222 La200 2.554 . S
O222 C209 1.240 . S
O223 La200 2.757 . S
O223 La201 2.482 1_655 S
O223 C209 1.289 . S
O224 La200 2.470 . S
O224 C210 1.258 . S
O225 La201 2.503 1_655 S
O225 C210 1.256 . S
O226 La201 2.521 . S
O226 C211 1.261 . S
O227 La201 2.628 . S
O227 C211 1.243 . S
O228 La201 2.554 . S
O228 C218 1.240 . S
O229 La200 2.482 1_455 S
O229 La201 2.757 . S
O229 C218 1.289 . S
O230 La201 2.470 . S
O230 C219 1.258 . S
O231 La200 2.503 1_455 S
O231 C219 1.256 . S
H232 C204 0.930 . S
H233 C205 0.930 . S
H234 C207 0.929 . S
H235 C208 0.929 . S
H236 C213 0.930 . S
H237 C214 0.930 . S
H238 C216 0.929 . S
H239 C217 0.929 . S
La240 C242 2.928 . S
La240 O260 2.521 . S
La240 O261 2.628 . S
La240 O262 2.554 . S
La240 O263 2.757 . S
La240 O264 2.470 . S
La240 O269 2.482 . S
La240 O271 2.503 1_554 S
La241 C251 2.928 . S
La241 O263 2.482 1_556 S
La241 O265 2.503 1_556 S
La241 O266 2.521 . S
La241 O267 2.628 . S
La241 O268 2.554 . S
La241 O269 2.757 1_556 S
La241 O270 2.470 . S
C242 La240 2.928 . S
C242 C243 1.503 . S
C242 O260 1.261 . S
C242 O261 1.243 . S
C243 C242 1.503 . S
C243 C244 1.394 . S
C243 C248 1.373 . S
C244 C243 1.394 . S
C244 C245 1.380 . S
C244 H272 0.930 . S
C245 C244 1.380 . S
C245 C246 1.376 . S
C245 H273 0.930 . S
C246 C245 1.376 . S
C246 C247 1.370 . S
C247 C246 1.370 . S
C247 C248 1.396 . S
C247 H274 0.929 . S
C248 C243 1.373 . S
C248 C247 1.396 . S
C248 H275 0.929 . S
C249 O262 1.240 . S
C249 O263 1.289 . S
C250 O264 1.258 . S
C250 O265 1.256 . S
C251 La241 2.928 . S
C251 C252 1.503 . S
C251 O266 1.261 . S
C251 O267 1.243 . S
C252 C251 1.503 . S
C252 C253 1.394 . S
C252 C257 1.373 . S
C253 C252 1.394 . S
C253 C254 1.380 . S
C253 H276 0.930 . S
C254 C253 1.380 . S
C254 C255 1.376 . S
C254 H277 0.930 . S
C255 C254 1.376 . S
C255 C256 1.370 . S
C256 C255 1.370 . S
C256 C257 1.396 . S
C256 H278 0.929 . S
C257 C252 1.373 . S
C257 C256 1.396 . S
C257 H279 0.929 . S
C258 O268 1.240 . S
C258 O269 1.289 1_556 S
C259 O270 1.258 . S
C259 O271 1.256 . S
O260 La240 2.521 . S
O260 C242 1.261 . S
O261 La240 2.628 . S
O261 C242 1.243 . S
O262 La240 2.554 . S
O262 C249 1.240 . S
O263 La240 2.757 . S
O263 La241 2.482 1_554 S
O263 C249 1.289 . S
O264 La240 2.470 . S
O264 C250 1.258 . S
O265 La241 2.503 1_554 S
O265 C250 1.256 . S
O266 La241 2.521 . S
O266 C251 1.261 . S
O267 La241 2.628 . S
O267 C251 1.243 . S
O268 La241 2.554 . S
O268 C258 1.240 . S
O269 La240 2.482 . S
O269 La241 2.757 1_554 S
O269 C258 1.289 1_554 S
O270 La241 2.470 . S
O270 C259 1.258 . S
O271 La240 2.503 1_556 S
O271 C259 1.256 . S
H272 C244 0.930 . S
H273 C245 0.930 . S
H274 C247 0.929 . S
H275 C248 0.929 . S
H276 C253 0.930 . S
H277 C254 0.930 . S
H278 C256 0.929 . S
H279 C257 0.929 . S
La280 C282 2.928 . S
La280 O300 2.521 . S
La280 O301 2.628 . S
La280 O302 2.554 . S
La280 O303 2.757 . S
La280 O304 2.470 . S
La280 O309 2.482 . S
La280 O311 2.503 . S
La281 C291 2.928 . S
La281 O303 2.482 . S
La281 O305 2.503 . S
La281 O306 2.521 . S
La281 O307 2.628 . S
La281 O308 2.554 . S
La281 O309 2.757 . S
La281 O310 2.470 . S
C282 La280 2.928 . S
C282 C283 1.503 . S
C282 O300 1.261 . S
C282 O301 1.243 . S
C283 C282 1.503 . S
C283 C284 1.394 . S
C283 C288 1.373 . S
C284 C283 1.394 . S
C284 C285 1.380 . S
C284 H312 0.930 . S
C285 C284 1.380 . S
C285 C286 1.376 . S
C285 H313 0.930 . S
C286 C285 1.376 . S
C286 C287 1.370 . S
C287 C286 1.370 . S
C287 C288 1.396 . S
C287 H314 0.929 . S
C288 C283 1.373 . S
C288 C287 1.396 . S
C288 H315 0.929 . S
C289 O302 1.240 . S
C289 O303 1.289 . S
C290 O304 1.258 . S
C290 O305 1.256 . S
C291 La281 2.928 . S
C291 C292 1.503 . S
C291 O306 1.261 . S
C291 O307 1.243 . S
C292 C291 1.503 . S
C292 C293 1.394 . S
C292 C297 1.373 . S
C293 C292 1.394 . S
C293 C294 1.380 . S
C293 H316 0.930 . S
C294 C293 1.380 . S
C294 C295 1.376 . S
C294 H317 0.930 . S
C295 C294 1.376 . S
C295 C296 1.370 . S
C296 C295 1.370 . S
C296 C297 1.396 . S
C296 H318 0.929 . S
C297 C292 1.373 . S
C297 C296 1.396 . S
C297 H319 0.929 . S
C298 O308 1.240 . S
C298 O309 1.289 . S
C299 O310 1.258 . S
C299 O311 1.256 . S
O300 La280 2.521 . S
O300 C282 1.261 . S
O301 La280 2.628 . S
O301 C282 1.243 . S
O302 La280 2.554 . S
O302 C289 1.240 . S
O303 La280 2.757 . S
O303 La281 2.482 . S
O303 C289 1.289 . S
O304 La280 2.470 . S
O304 C290 1.258 . S
O305 La281 2.503 . S
O305 C290 1.256 . S
O306 La281 2.521 . S
O306 C291 1.261 . S
O307 La281 2.628 . S
O307 C291 1.243 . S
O308 La281 2.554 . S
O308 C298 1.240 . S
O309 La280 2.482 . S
O309 La281 2.757 . S
O309 C298 1.289 . S
O310 La281 2.470 . S
O310 C299 1.258 . S
O311 La280 2.503 . S
O311 C299 1.256 . S
H312 C284 0.930 . S
H313 C285 0.930 . S
H314 C287 0.929 . S
H315 C288 0.929 . S
H316 C293 0.930 . S
H317 C294 0.930 . S
H318 C296 0.929 . S
H319 C297 0.929 . S
La320 C322 2.928 . S
La320 O340 2.521 . S
La320 O341 2.628 . S
La320 O342 2.554 . S
La320 O343 2.757 . S
La320 O344 2.470 . S
La320 O349 2.482 . S
La320 O351 2.503 . S
La321 C331 2.928 . S
La321 O343 2.482 . S
La321 O345 2.503 . S
La321 O346 2.521 . S
La321 O347 2.628 . S
La321 O348 2.554 . S
La321 O349 2.757 . S
La321 O350 2.470 . S
C322 La320 2.928 . S
C322 C323 1.503 . S
C322 O340 1.261 . S
C322 O341 1.243 . S
C323 C322 1.503 . S
C323 C324 1.394 . S
C323 C328 1.373 . S
C324 C323 1.394 . S
C324 C325 1.380 . S
C324 H352 0.930 . S
C325 C324 1.380 . S
C325 C326 1.376 . S
C325 H353 0.930 . S
C326 C325 1.376 . S
C326 C327 1.370 . S
C327 C326 1.370 . S
C327 C328 1.396 . S
C327 H354 0.929 . S
C328 C323 1.373 . S
C328 C327 1.396 . S
C328 H355 0.929 . S
C329 O342 1.240 . S
C329 O343 1.289 . S
C330 O344 1.258 . S
C330 O345 1.256 . S
C331 La321 2.928 . S
C331 C332 1.503 . S
C331 O346 1.261 . S
C331 O347 1.243 . S
C332 C331 1.503 . S
C332 C333 1.394 . S
C332 C337 1.373 . S
C333 C332 1.394 . S
C333 C334 1.380 . S
C333 H356 0.930 . S
C334 C333 1.380 . S
C334 C335 1.376 . S
C334 H357 0.930 . S
C335 C334 1.376 . S
C335 C336 1.370 . S
C336 C335 1.370 . S
C336 C337 1.396 . S
C336 H358 0.929 . S
C337 C332 1.373 . S
C337 C336 1.396 . S
C337 H359 0.929 . S
C338 O348 1.240 . S
C338 O349 1.289 . S
C339 O350 1.258 . S
C339 O351 1.256 . S
O340 La320 2.521 . S
O340 C322 1.261 . S
O341 La320 2.628 . S
O341 C322 1.243 . S
O342 La320 2.554 . S
O342 C329 1.240 . S
O343 La320 2.757 . S
O343 La321 2.482 . S
O343 C329 1.289 . S
O344 La320 2.470 . S
O344 C330 1.258 . S
O345 La321 2.503 . S
O345 C330 1.256 . S
O346 La321 2.521 . S
O346 C331 1.261 . S
O347 La321 2.628 . S
O347 C331 1.243 . S
O348 La321 2.554 . S
O348 C338 1.240 . S
O349 La320 2.482 . S
O349 La321 2.757 . S
O349 C338 1.289 . S
O350 La321 2.470 . S
O350 C339 1.258 . S
O351 La320 2.503 . S
O351 C339 1.256 . S
H352 C324 0.930 . S
H353 C325 0.930 . S
H354 C327 0.929 . S
H355 C328 0.929 . S
H356 C333 0.930 . S
H357 C334 0.930 . S
H358 C336 0.929 . S
H359 C337 0.929 . S
La360 C362 2.928 . S
La360 O380 2.521 . S
La360 O381 2.628 . S
La360 O382 2.554 1_565 S
La360 O383 2.757 1_565 S
La360 O384 2.470 1_565 S
La360 O389 2.482 . S
La360 O391 2.503 . S
La361 C371 2.928 . S
La361 O383 2.482 . S
La361 O385 2.503 . S
La361 O386 2.521 . S
La361 O387 2.628 . S
La361 O388 2.554 1_545 S
La361 O389 2.757 1_545 S
La361 O390 2.470 1_545 S
C362 La360 2.928 . S
C362 C363 1.503 . S
C362 O380 1.261 . S
C362 O381 1.243 . S
C363 C362 1.503 . S
C363 C364 1.394 . S
C363 C368 1.373 . S
C364 C363 1.394 . S
C364 C365 1.380 . S
C364 H392 0.930 . S
C365 C364 1.380 . S
C365 C366 1.376 . S
C365 H393 0.930 . S
C366 C365 1.376 . S
C366 C367 1.370 . S
C367 C366 1.370 . S
C367 C368 1.396 . S
C367 H394 0.929 . S
C368 C363 1.373 . S
C368 C367 1.396 . S
C368 H395 0.929 . S
C369 O382 1.240 . S
C369 O383 1.289 . S
C370 O384 1.258 . S
C370 O385 1.256 . S
C371 La361 2.928 . S
C371 C372 1.503 . S
C371 O386 1.261 . S
C371 O387 1.243 . S
C372 C371 1.503 . S
C372 C373 1.394 . S
C372 C377 1.373 . S
C373 C372 1.394 . S
C373 C374 1.380 . S
C373 H396 0.930 . S
C374 C373 1.380 . S
C374 C375 1.376 . S
C374 H397 0.930 . S
C375 C374 1.376 . S
C375 C376 1.370 . S
C376 C375 1.370 . S
C376 C377 1.396 . S
C376 H398 0.929 . S
C377 C372 1.373 . S
C377 C376 1.396 . S
C377 H399 0.929 . S
C378 O388 1.240 . S
C378 O389 1.289 . S
C379 O390 1.258 . S
C379 O391 1.256 . S
O380 La360 2.521 . S
O380 C362 1.261 . S
O381 La360 2.628 . S
O381 C362 1.243 . S
O382 La360 2.554 1_545 S
O382 C369 1.240 . S
O383 La360 2.757 1_545 S
O383 La361 2.482 . S
O383 C369 1.289 . S
O384 La360 2.470 1_545 S
O384 C370 1.258 . S
O385 La361 2.503 . S
O385 C370 1.256 . S
O386 La361 2.521 . S
O386 C371 1.261 . S
O387 La361 2.628 . S
O387 C371 1.243 . S
O388 La361 2.554 1_565 S
O388 C378 1.240 . S
O389 La360 2.482 . S
O389 La361 2.757 1_565 S
O389 C378 1.289 . S
O390 La361 2.470 1_565 S
O390 C379 1.258 . S
O391 La360 2.503 . S
O391 C379 1.256 . S
H392 C364 0.930 . S
H393 C365 0.930 . S
H394 C367 0.929 . S
H395 C368 0.929 . S
H396 C373 0.930 . S
H397 C374 0.930 . S
H398 C376 0.929 . S
H399 C377 0.929 . S
La400 C402 2.928 . S
La400 O420 2.521 . S
La400 O421 2.628 . S
La400 O422 2.554 . S
La400 O423 2.757 . S
La400 O424 2.470 . S
La400 O429 2.482 1_565 S
La400 O431 2.503 1_565 S
La401 C411 2.928 . S
La401 O423 2.482 1_545 S
La401 O425 2.503 1_545 S
La401 O426 2.521 . S
La401 O427 2.628 . S
La401 O428 2.554 . S
La401 O429 2.757 . S
La401 O430 2.470 . S
C402 La400 2.928 . S
C402 C403 1.503 . S
C402 O420 1.261 . S
C402 O421 1.243 . S
C403 C402 1.503 . S
C403 C404 1.394 . S
C403 C408 1.373 . S
C404 C403 1.394 . S
C404 C405 1.380 . S
C404 H432 0.930 . S
C405 C404 1.380 . S
C405 C406 1.376 . S
C405 H433 0.930 . S
C406 C405 1.376 . S
C406 C407 1.370 . S
C407 C406 1.370 . S
C407 C408 1.396 . S
C407 H434 0.929 . S
C408 C403 1.373 . S
C408 C407 1.396 . S
C408 H435 0.929 . S
C409 O422 1.240 . S
C409 O423 1.289 . S
C410 O424 1.258 . S
C410 O425 1.256 . S
C411 La401 2.928 . S
C411 C412 1.503 . S
C411 O426 1.261 . S
C411 O427 1.243 . S
C412 C411 1.503 . S
C412 C413 1.394 . S
C412 C417 1.373 . S
C413 C412 1.394 . S
C413 C414 1.380 . S
C413 H436 0.930 . S
C414 C413 1.380 . S
C414 C415 1.376 . S
C414 H437 0.930 . S
C415 C414 1.376 . S
C415 C416 1.370 . S
C416 C415 1.370 . S
C416 C417 1.396 . S
C416 H438 0.929 . S
C417 C412 1.373 . S
C417 C416 1.396 . S
C417 H439 0.929 . S
C418 O428 1.240 . S
C418 O429 1.289 . S
C419 O430 1.258 . S
C419 O431 1.256 . S
O420 La400 2.521 . S
O420 C402 1.261 . S
O421 La400 2.628 . S
O421 C402 1.243 . S
O422 La400 2.554 . S
O422 C409 1.240 . S
O423 La400 2.757 . S
O423 La401 2.482 1_565 S
O423 C409 1.289 . S
O424 La400 2.470 . S
O424 C410 1.258 . S
O425 La401 2.503 1_565 S
O425 C410 1.256 . S
O426 La401 2.521 . S
O426 C411 1.261 . S
O427 La401 2.628 . S
O427 C411 1.243 . S
O428 La401 2.554 . S
O428 C418 1.240 . S
O429 La400 2.482 1_545 S
O429 La401 2.757 . S
O429 C418 1.289 . S
O430 La401 2.470 . S
O430 C419 1.258 . S
O431 La400 2.503 1_545 S
O431 C419 1.256 . S
H432 C404 0.930 . S
H433 C405 0.930 . S
H434 C407 0.929 . S
H435 C408 0.929 . S
H436 C413 0.930 . S
H437 C414 0.930 . S
H438 C416 0.929 . S
H439 C417 0.929 . S
La440 C442 2.928 . S
La440 O460 2.521 . S
La440 O461 2.628 . S
La440 O462 2.554 . S
La440 O463 2.757 . S
La440 O464 2.470 . S
La440 O469 2.482 . S
La440 O471 2.503 . S
La441 C451 2.928 . S
La441 O463 2.482 . S
La441 O465 2.503 . S
La441 O466 2.521 . S
La441 O467 2.628 . S
La441 O468 2.554 . S
La441 O469 2.757 . S
La441 O470 2.470 . S
C442 La440 2.928 . S
C442 C443 1.503 . S
C442 O460 1.261 . S
C442 O461 1.243 . S
C443 C442 1.503 . S
C443 C444 1.394 . S
C443 C448 1.373 . S
C444 C443 1.394 . S
C444 C445 1.380 . S
C444 H472 0.930 . S
C445 C444 1.380 . S
C445 C446 1.376 . S
C445 H473 0.930 . S
C446 C445 1.376 . S
C446 C447 1.370 . S
C447 C446 1.370 . S
C447 C448 1.396 . S
C447 H474 0.929 . S
C448 C443 1.373 . S
C448 C447 1.396 . S
C448 H475 0.929 . S
C449 O462 1.240 . S
C449 O463 1.289 . S
C450 O464 1.258 . S
C450 O465 1.256 . S
C451 La441 2.928 . S
C451 C452 1.503 . S
C451 O466 1.261 . S
C451 O467 1.243 . S
C452 C451 1.503 . S
C452 C453 1.394 . S
C452 C457 1.373 . S
C453 C452 1.394 . S
C453 C454 1.380 . S
C453 H476 0.930 . S
C454 C453 1.380 . S
C454 C455 1.376 . S
C454 H477 0.930 . S
C455 C454 1.376 . S
C455 C456 1.370 . S
C456 C455 1.370 . S
C456 C457 1.396 . S
C456 H478 0.929 . S
C457 C452 1.373 . S
C457 C456 1.396 . S
C457 H479 0.929 . S
C458 O468 1.240 . S
C458 O469 1.289 . S
C459 O470 1.258 . S
C459 O471 1.256 . S
O460 La440 2.521 . S
O460 C442 1.261 . S
O461 La440 2.628 . S
O461 C442 1.243 . S
O462 La440 2.554 . S
O462 C449 1.240 . S
O463 La440 2.757 . S
O463 La441 2.482 . S
O463 C449 1.289 . S
O464 La440 2.470 . S
O464 C450 1.258 . S
O465 La441 2.503 . S
O465 C450 1.256 . S
O466 La441 2.521 . S
O466 C451 1.261 . S
O467 La441 2.628 . S
O467 C451 1.243 . S
O468 La441 2.554 . S
O468 C458 1.240 . S
O469 La440 2.482 . S
O469 La441 2.757 . S
O469 C458 1.289 . S
O470 La441 2.470 . S
O470 C459 1.258 . S
O471 La440 2.503 . S
O471 C459 1.256 . S
H472 C444 0.930 . S
H473 C445 0.930 . S
H474 C447 0.929 . S
H475 C448 0.929 . S
H476 C453 0.930 . S
H477 C454 0.930 . S
H478 C456 0.929 . S
H479 C457 0.929 . S
H480 C488 0.950 . S
H481 C493 0.950 . S
H482 C490 0.950 . S
H483 C492 0.950 . S
H484 C494 0.950 . S
H485 C496 0.950 . S
H486 C498 0.950 . S
H487 C499 0.950 . S
C488 H480 0.950 . S
C488 C489 1.386 . S
C488 C490 1.391 . S
C489 C488 1.386 . S
C489 C493 1.393 . S
C490 H482 0.950 . S
C490 C488 1.391 . S
C490 C491 1.400 . S
C491 C490 1.400 . S
C491 C492 1.398 . S
C491 C497 1.491 . S
C492 H483 0.950 . S
C492 C491 1.398 . S
C492 C493 1.391 . S
C493 H481 0.950 . S
C493 C489 1.393 . S
C493 C492 1.391 . S
C494 H484 0.950 . S
C494 C495 1.386 . S
C494 C496 1.391 . S
C495 C494 1.386 . S
C495 C499 1.393 . S
C496 H485 0.950 . S
C496 C494 1.391 . S
C496 C497 1.400 . S
C497 C491 1.491 . S
C497 C496 1.400 . S
C497 C498 1.398 . S
C498 H486 0.950 . S
C498 C497 1.398 . S
C498 C499 1.391 . S
C499 H487 0.950 . S
C499 C495 1.393 . S
C499 C498 1.391 . S
H500 C508 0.950 . S
H501 C513 0.950 1_545 S
H502 C510 0.950 . S
H503 C512 0.950 . S
H504 C514 0.950 . S
H505 C516 0.950 . S
H506 C518 0.950 . S
H507 C519 0.950 . S
C508 H500 0.950 . S
C508 C509 1.386 . S
C508 C510 1.391 . S
C509 C508 1.386 . S
C509 C513 1.393 . S
C510 H502 0.950 . S
C510 C508 1.391 . S
C510 C511 1.400 . S
C511 C510 1.400 . S
C511 C512 1.398 . S
C511 C517 1.491 . S
C512 H503 0.950 . S
C512 C511 1.398 . S
C512 C513 1.391 . S
C513 H501 0.950 1_565 S
C513 C509 1.393 . S
C513 C512 1.391 . S
C514 H504 0.950 . S
C514 C515 1.386 . S
C514 C516 1.391 . S
C515 C514 1.386 . S
C515 C519 1.393 . S
C516 H505 0.950 . S
C516 C514 1.391 . S
C516 C517 1.400 . S
C517 C511 1.491 . S
C517 C516 1.400 . S
C517 C518 1.398 . S
C518 H506 0.950 . S
C518 C517 1.398 . S
C518 C519 1.391 . S
C519 H507 0.950 . S
C519 C515 1.393 . S
C519 C518 1.391 . S
H520 C528 0.950 . S
H521 C533 0.950 . S
H522 C530 0.941 1_556 S
H523 C532 0.950 . S
H524 C534 0.950 . S
H525 C536 0.950 . S
H526 C538 0.950 . S
H527 C539 0.950 . S
C528 H520 0.950 . S
C528 C529 1.386 1_556 S
C528 C530 1.391 1_556 S
C529 C528 1.386 1_554 S
C529 C533 1.393 . S
C530 H522 0.941 1_554 S
C530 C528 1.391 1_554 S
C530 C531 1.400 . S
C531 C530 1.400 . S
C531 C532 1.398 . S
C531 C537 1.491 . S
C532 H523 0.950 . S
C532 C531 1.398 . S
C532 C533 1.391 . S
C533 H521 0.950 . S
C533 C529 1.393 . S
C533 C532 1.391 . S
C534 H524 0.950 . S
C534 C535 1.386 . S
C534 C536 1.391 . S
C535 C534 1.386 . S
C535 C539 1.393 . S
C536 H525 0.950 . S
C536 C534 1.391 . S
C536 C537 1.400 . S
C537 C531 1.491 . S
C537 C536 1.400 . S
C537 C538 1.398 . S
C538 H526 0.950 . S
C538 C537 1.398 . S
C538 C539 1.391 . S
C539 H527 0.950 . S
C539 C535 1.393 . S
C539 C538 1.391 . S
H540 C548 0.950 . S
H541 C553 0.950 . S
H542 C550 0.950 . S
H543 C552 0.950 . S
H544 C554 0.950 . S
H545 C556 0.950 . S
H546 C558 0.950 . S
H547 C559 0.950 1_565 S
C548 H540 0.950 . S
C548 C549 1.386 . S
C548 C550 1.391 . S
C549 C548 1.386 . S
C549 C553 1.393 . S
C550 H542 0.950 . S
C550 C548 1.391 . S
C550 C551 1.400 . S
C551 C550 1.400 . S
C551 C552 1.398 . S
C551 C557 1.491 . S
C552 H543 0.950 . S
C552 C551 1.398 . S
C552 C553 1.391 . S
C553 H541 0.950 . S
C553 C549 1.393 . S
C553 C552 1.391 . S
C554 H544 0.950 . S
C554 C555 1.386 . S
C554 C556 1.391 . S
C555 C554 1.386 . S
C555 C559 1.393 . S
C556 H545 0.950 . S
C556 C554 1.391 . S
C556 C557 1.400 . S
C557 C551 1.491 . S
C557 C556 1.400 . S
C557 C558 1.398 . S
C558 H546 0.950 . S
C558 C557 1.398 . S
C558 C559 1.391 . S
C559 H547 0.950 1_545 S
C559 C555 1.393 . S
C559 C558 1.391 . S
H560 C568 0.950 . S
H561 C573 0.950 . S
H562 C570 0.950 . S
H563 C572 0.950 . S
H564 C574 0.950 . S
H565 C576 0.950 . S
H566 C578 0.950 . S
H567 C579 0.950 . S
C568 H560 0.950 . S
C568 C569 1.386 . S
C568 C570 1.391 . S
C569 C568 1.386 . S
C569 C573 1.393 . S
C570 H562 0.950 . S
C570 C568 1.391 . S
C570 C571 1.400 . S
C571 C570 1.400 . S
C571 C572 1.398 . S
C571 C577 1.491 . S
C572 H563 0.950 . S
C572 C571 1.398 . S
C572 C573 1.391 . S
C573 H561 0.950 . S
C573 C569 1.393 . S
C573 C572 1.391 . S
C574 H564 0.950 . S
C574 C575 1.386 . S
C574 C576 1.391 . S
C575 C574 1.386 . S
C575 C579 1.393 . S
C576 H565 0.950 . S
C576 C574 1.391 . S
C576 C577 1.400 . S
C577 C571 1.491 . S
C577 C576 1.400 . S
C577 C578 1.398 . S
C578 H566 0.950 . S
C578 C577 1.398 . S
C578 C579 1.391 . S
C579 H567 0.950 . S
C579 C575 1.393 . S
C579 C578 1.391 . S
H580 C588 0.950 . S
H581 C593 0.950 . S
H582 C590 0.950 . S
H583 C592 0.950 . S
H584 C594 0.950 . S
H585 C596 0.950 . S
H586 C598 0.950 . S
H587 C599 0.950 . S
C588 H580 0.950 . S
C588 C589 1.386 . S
C588 C590 1.391 . S
C589 C588 1.386 . S
C589 C593 1.393 . S
C590 H582 0.950 . S
C590 C588 1.391 . S
C590 C591 1.400 . S
C591 C590 1.400 . S
C591 C592 1.398 . S
C591 C597 1.491 . S
C592 H583 0.950 . S
C592 C591 1.398 . S
C592 C593 1.391 . S
C593 H581 0.950 . S
C593 C589 1.393 . S
C593 C592 1.391 . S
C594 H584 0.950 . S
C594 C595 1.386 . S
C594 C596 1.391 . S
C595 C594 1.386 . S
C595 C599 1.393 . S
C596 H585 0.950 . S
C596 C594 1.391 . S
C596 C597 1.400 . S
C597 C591 1.491 . S
C597 C596 1.400 . S
C597 C598 1.398 . S
C598 H586 0.950 . S
C598 C597 1.398 . S
C598 C599 1.391 . S
C599 H587 0.950 . S
C599 C595 1.393 . S
C599 C598 1.391 . S
H600 C608 0.950 . S
H601 C613 0.950 . S
H602 C610 0.950 . S
H603 C612 0.950 . S
H604 C614 0.950 . S
H605 C616 0.950 . S
H606 C618 0.950 . S
H607 C619 0.950 1_554 S
C608 H600 0.950 . S
C608 C609 1.386 . S
C608 C610 1.391 . S
C609 C608 1.386 . S
C609 C613 1.393 . S
C610 H602 0.950 . S
C610 C608 1.391 . S
C610 C611 1.400 . S
C611 C610 1.400 . S
C611 C612 1.398 . S
C611 C617 1.491 . S
C612 H603 0.950 . S
C612 C611 1.398 . S
C612 C613 1.391 . S
C613 H601 0.950 . S
C613 C609 1.393 . S
C613 C612 1.391 . S
C614 H604 0.950 . S
C614 C615 1.386 . S
C614 C616 1.391 . S
C615 C614 1.386 . S
C615 C619 1.393 . S
C616 H605 0.950 . S
C616 C614 1.391 . S
C616 C617 1.400 . S
C617 C611 1.491 . S
C617 C616 1.400 . S
C617 C618 1.398 . S
C618 H606 0.950 . S
C618 C617 1.398 . S
C618 C619 1.391 . S
C619 H607 0.950 1_556 S
C619 C615 1.393 . S
C619 C618 1.391 . S
H620 C628 0.950 . S
H621 C633 0.950 . S
H622 C630 0.950 . S
H623 C632 0.950 . S
H624 C634 0.950 . S
H625 C636 0.950 . S
H626 C638 0.950 . S
H627 C639 0.950 . S
C628 H620 0.950 . S
C628 C629 1.386 . S
C628 C630 1.391 . S
C629 C628 1.386 . S
C629 C633 1.393 . S
C630 H622 0.950 . S
C630 C628 1.391 . S
C630 C631 1.400 . S
C631 C630 1.400 . S
C631 C632 1.398 . S
C631 C637 1.491 . S
C632 H623 0.950 . S
C632 C631 1.398 . S
C632 C633 1.391 . S
C633 H621 0.950 . S
C633 C629 1.393 . S
C633 C632 1.391 . S
C634 H624 0.950 . S
C634 C635 1.386 . S
C634 C636 1.391 . S
C635 C634 1.386 . S
C635 C639 1.393 . S
C636 H625 0.950 . S
C636 C634 1.391 . S
C636 C637 1.400 . S
C637 C631 1.491 . S
C637 C636 1.400 . S
C637 C638 1.398 . S
C638 H626 0.950 . S
C638 C637 1.398 . S
C638 C639 1.391 . S
C639 H627 0.950 . S
C639 C635 1.393 . S
C639 C638 1.391 . S
H640 C648 0.950 . S
H641 C653 0.950 . S
H642 C650 0.950 . S
H643 C652 0.950 . S
H644 C654 0.950 . S
H645 C656 0.950 . S
H646 C658 0.950 . S
H647 C659 0.950 . S
C648 H640 0.950 . S
C648 C649 1.386 . S
C648 C650 1.391 . S
C649 C648 1.386 . S
C649 C653 1.393 . S
C650 H642 0.950 . S
C650 C648 1.391 . S
C650 C651 1.400 . S
C651 C650 1.400 . S
C651 C652 1.398 . S
C651 C657 1.491 . S
C652 H643 0.950 . S
C652 C651 1.398 . S
C652 C653 1.391 . S
C653 H641 0.950 . S
C653 C649 1.393 . S
C653 C652 1.391 . S
C654 H644 0.950 . S
C654 C655 1.386 . S
C654 C656 1.391 . S
C655 C654 1.386 . S
C655 C659 1.393 . S
C656 H645 0.950 . S
C656 C654 1.391 . S
C656 C657 1.400 . S
C657 C651 1.491 . S
C657 C656 1.400 . S
C657 C658 1.398 . S
C658 H646 0.950 . S
C658 C657 1.398 . S
C658 C659 1.391 . S
C659 H647 0.950 . S
C659 C655 1.393 . S
C659 C658 1.391 . S
H660 C668 0.950 . S
H661 C673 0.950 . S
H662 C670 0.950 . S
H663 C672 0.950 . S
H664 C674 0.950 1_655 S
H665 C676 0.955 . S
H666 C678 0.950 . S
H667 C679 0.950 . S
C668 H660 0.950 . S
C668 C669 1.386 . S
C668 C670 1.391 . S
C669 C668 1.386 . S
C669 C673 1.393 . S
C670 H662 0.950 . S
C670 C668 1.391 . S
C670 C671 1.400 . S
C671 C670 1.400 . S
C671 C672 1.398 . S
C671 C677 1.491 . S
C672 H663 0.950 . S
C672 C671 1.398 . S
C672 C673 1.391 . S
C673 H661 0.950 . S
C673 C669 1.393 . S
C673 C672 1.391 . S
C674 H664 0.950 1_455 S
C674 C675 1.386 . S
C674 C676 1.391 . S
C675 C674 1.386 . S
C675 C679 1.393 . S
C676 H665 0.955 . S
C676 C674 1.391 . S
C676 C677 1.400 . S
C677 C671 1.491 . S
C677 C676 1.400 . S
C677 C678 1.398 . S
C678 H666 0.950 . S
C678 C677 1.398 . S
C678 C679 1.391 . S
C679 H667 0.950 . S
C679 C675 1.393 . S
C679 C678 1.391 . S
H680 C688 0.950 . S
H681 C693 0.950 . S
H682 C690 0.950 . S
H683 C692 0.950 1_455 S
H684 C694 0.950 . S
H685 C696 0.950 . S
H686 C698 0.950 . S
H687 C699 0.950 . S
C688 H680 0.950 . S
C688 C689 1.386 . S
C688 C690 1.391 . S
C689 C688 1.386 . S
C689 C693 1.393 1_655 S
C690 H682 0.950 . S
C690 C688 1.391 . S
C690 C691 1.400 . S
C691 C690 1.400 . S
C691 C692 1.398 . S
C691 C697 1.491 . S
C692 H683 0.950 1_655 S
C692 C691 1.398 . S
C692 C693 1.391 1_655 S
C693 H681 0.950 . S
C693 C689 1.393 1_455 S
C693 C692 1.391 1_455 S
C694 H684 0.950 . S
C694 C695 1.386 . S
C694 C696 1.391 . S
C695 C694 1.386 . S
C695 C699 1.393 . S
C696 H685 0.950 . S
C696 C694 1.391 . S
C696 C697 1.400 . S
C697 C691 1.491 . S
C697 C696 1.400 . S
C697 C698 1.398 . S
C698 H686 0.950 . S
C698 C697 1.398 . S
C698 C699 1.391 . S
C699 H687 0.950 . S
C699 C695 1.393 . S
C699 C698 1.391 . S
H700 C708 0.950 . S
H701 C713 0.950 . S
H702 C710 0.950 . S
H703 C712 0.950 . S
H704 C714 0.950 . S
H705 C716 0.950 . S
H706 C718 0.950 . S
H707 C719 0.950 . S
C708 H700 0.950 . S
C708 C709 1.386 . S
C708 C710 1.391 . S
C709 C708 1.386 . S
C709 C713 1.393 . S
C710 H702 0.950 . S
C710 C708 1.391 . S
C710 C711 1.400 . S
C711 C710 1.400 . S
C711 C712 1.398 . S
C711 C717 1.491 . S
C712 H703 0.950 . S
C712 C711 1.398 . S
C712 C713 1.391 . S
C713 H701 0.950 . S
C713 C709 1.393 . S
C713 C712 1.391 . S
C714 H704 0.950 . S
C714 C715 1.386 . S
C714 C716 1.391 . S
C715 C714 1.386 . S
C715 C719 1.393 . S
C716 H705 0.950 . S
C716 C714 1.391 . S
C716 C717 1.400 . S
C717 C711 1.491 . S
C717 C716 1.400 . S
C717 C718 1.398 . S
C718 H706 0.950 . S
C718 C717 1.398 . S
C718 C719 1.391 . S
C719 H707 0.950 . S
C719 C715 1.393 . S
C719 C718 1.391 . S
H720 C728 0.950 . S
H721 C733 0.950 . S
H722 C730 0.950 . S
H723 C732 0.950 . S
H724 C734 0.950 . S
H725 C736 0.950 . S
H726 C738 0.950 . S
H727 C739 0.950 . S
C728 H720 0.950 . S
C728 C729 1.386 . S
C728 C730 1.391 . S
C729 C728 1.386 . S
C729 C733 1.393 . S
C730 H722 0.950 . S
C730 C728 1.391 . S
C730 C731 1.400 . S
C731 C730 1.400 . S
C731 C732 1.398 . S
C731 C737 1.491 . S
C732 H723 0.950 . S
C732 C731 1.398 . S
C732 C733 1.391 . S
C733 H721 0.950 . S
C733 C729 1.393 . S
C733 C732 1.391 . S
C734 H724 0.950 . S
C734 C735 1.386 . S
C734 C736 1.391 . S
C735 C734 1.386 . S
C735 C739 1.393 . S
C736 H725 0.950 . S
C736 C734 1.391 . S
C736 C737 1.400 . S
C737 C731 1.491 . S
C737 C736 1.400 . S
C737 C738 1.398 . S
C738 H726 0.950 . S
C738 C737 1.398 . S
C738 C739 1.391 . S
C739 H727 0.950 . S
C739 C735 1.393 . S
C739 C738 1.391 . S
H740 C748 0.950 . S
H741 C753 0.950 . S
H742 C750 0.950 . S
H743 C752 0.950 . S
H744 C754 0.950 . S
H745 C756 0.950 . S
H746 C758 0.950 . S
H747 C759 0.950 . S
C748 H740 0.950 . S
C748 C749 1.386 . S
C748 C750 1.391 . S
C749 C748 1.386 . S
C749 C753 1.393 . S
C750 H742 0.950 . S
C750 C748 1.391 . S
C750 C751 1.400 . S
C751 C750 1.400 . S
C751 C752 1.398 . S
C751 C757 1.491 . S
C752 H743 0.950 . S
C752 C751 1.398 . S
C752 C753 1.391 . S
C753 H741 0.950 . S
C753 C749 1.393 . S
C753 C752 1.391 . S
C754 H744 0.950 . S
C754 C755 1.386 . S
C754 C756 1.391 . S
C755 C754 1.386 . S
C755 C759 1.393 . S
C756 H745 0.950 . S
C756 C754 1.391 . S
C756 C757 1.400 . S
C757 C751 1.491 . S
C757 C756 1.400 . S
C757 C758 1.398 . S
C758 H746 0.950 . S
C758 C757 1.398 . S
C758 C759 1.391 . S
C759 H747 0.950 . S
C759 C755 1.393 . S
C759 C758 1.391 . S
H760 C768 0.950 . S
H761 C773 0.950 . S
H762 C770 0.950 . S
H763 C772 0.950 . S
H764 C774 0.950 . S
H765 C776 0.950 . S
H766 C778 0.950 . S
H767 C779 0.950 . S
C768 H760 0.950 . S
C768 C769 1.386 . S
C768 C770 1.391 . S
C769 C768 1.386 . S
C769 C773 1.393 . S
C770 H762 0.950 . S
C770 C768 1.391 . S
C770 C771 1.400 . S
C771 C770 1.400 . S
C771 C772 1.398 . S
C771 C777 1.491 . S
C772 H763 0.950 . S
C772 C771 1.398 . S
C772 C773 1.391 . S
C773 H761 0.950 . S
C773 C769 1.393 . S
C773 C772 1.391 . S
C774 H764 0.950 . S
C774 C775 1.386 . S
C774 C776 1.391 . S
C775 C774 1.386 . S
C775 C779 1.393 . S
C776 H765 0.950 . S
C776 C774 1.391 . S
C776 C777 1.400 . S
C777 C771 1.491 . S
C777 C776 1.400 . S
C777 C778 1.398 . S
C778 H766 0.950 . S
C778 C777 1.398 . S
C778 C779 1.391 . S
C779 H767 0.950 . S
C779 C775 1.393 . S
C779 C778 1.391 . S
H780 C788 0.950 . S
H781 C793 0.950 . S
H782 C790 0.950 . S
H783 C792 0.950 . S
H784 C794 0.950 . S
H785 C796 0.950 . S
H786 C798 0.950 . S
H787 C799 0.950 1_565 S
C788 H780 0.950 . S
C788 C789 1.386 . S
C788 C790 1.391 . S
C789 C788 1.386 . S
C789 C793 1.393 . S
C790 H782 0.950 . S
C790 C788 1.391 . S
C790 C791 1.400 . S
C791 C790 1.400 . S
C791 C792 1.398 . S
C791 C797 1.491 1_554 S
C792 H783 0.950 . S
C792 C791 1.398 . S
C792 C793 1.391 . S
C793 H781 0.950 . S
C793 C789 1.393 . S
C793 C792 1.391 . S
C794 H784 0.950 . S
C794 C795 1.386 . S
C794 C796 1.391 . S
C795 C794 1.386 . S
C795 C799 1.393 . S
C796 H785 0.950 . S
C796 C794 1.391 . S
C796 C797 1.400 . S
C797 C791 1.491 1_556 S
C797 C796 1.400 . S
C797 C798 1.398 . S
C798 H786 0.950 . S
C798 C797 1.398 . S
C798 C799 1.391 . S
C799 H787 0.950 1_545 S
C799 C795 1.393 . S
C799 C798 1.391 . S
H800 C808 0.950 . S
H801 C813 0.950 . S
H802 C810 0.950 . S
H803 C812 0.950 . S
H804 C814 0.950 . S
H805 C816 0.950 . S
H806 C818 0.950 . S
H807 C819 0.950 . S
C808 H800 0.950 . S
C808 C809 1.386 . S
C808 C810 1.391 . S
C809 C808 1.386 . S
C809 C813 1.393 . S
C810 H802 0.950 . S
C810 C808 1.391 . S
C810 C811 1.400 . S
C811 C810 1.400 . S
C811 C812 1.398 . S
C811 C817 1.491 . S
C812 H803 0.950 . S
C812 C811 1.398 . S
C812 C813 1.391 . S
C813 H801 0.950 . S
C813 C809 1.393 . S
C813 C812 1.391 . S
C814 H804 0.950 . S
C814 C815 1.386 . S
C814 C816 1.391 . S
C815 C814 1.386 . S
C815 C819 1.393 . S
C816 H805 0.950 . S
C816 C814 1.391 . S
C816 C817 1.400 . S
C817 C811 1.491 . S
C817 C816 1.400 . S
C817 C818 1.398 . S
C818 H806 0.950 . S
C818 C817 1.398 . S
C818 C819 1.391 . S
C819 H807 0.950 . S
C819 C815 1.393 . S
C819 C818 1.391 . S
H820 C828 0.950 . S
H821 C833 0.950 . S
H822 C830 0.950 . S
H823 C832 0.950 . S
H824 C834 0.950 . S
H825 C836 0.950 . S
H826 C838 0.950 . S
H827 C839 0.950 . S
C828 H820 0.950 . S
C828 C829 1.386 . S
C828 C830 1.391 1_554 S
C829 C828 1.386 . S
C829 C833 1.393 . S
C830 H822 0.950 . S
C830 C828 1.391 1_556 S
C830 C831 1.400 . S
C831 C830 1.400 . S
C831 C832 1.398 . S
C831 C837 1.491 . S
C832 H823 0.950 . S
C832 C831 1.398 . S
C832 C833 1.391 1_556 S
C833 H821 0.950 . S
C833 C829 1.393 . S
C833 C832 1.391 1_554 S
C834 H824 0.950 . S
C834 C835 1.386 . S
C834 C836 1.391 . S
C835 C834 1.386 . S
C835 C839 1.393 . S
C836 H825 0.950 . S
C836 C834 1.391 . S
C836 C837 1.400 . S
C837 C831 1.491 . S
C837 C836 1.400 . S
C837 C838 1.398 . S
C838 H826 0.950 . S
C838 C837 1.398 . S
C838 C839 1.391 . S
C839 H827 0.950 . S
C839 C835 1.393 . S
C839 C838 1.391 . S
H840 C848 0.950 . S
H841 C853 0.950 . S
H842 C850 0.950 . S
H843 C852 0.950 . S
H844 C854 0.950 . S
H845 C856 0.950 . S
H846 C858 0.950 . S
H847 C859 0.950 . S
C848 H840 0.950 . S
C848 C849 1.386 . S
C848 C850 1.391 . S
C849 C848 1.386 . S
C849 C853 1.393 . S
C850 H842 0.950 . S
C850 C848 1.391 . S
C850 C851 1.400 . S
C851 C850 1.400 . S
C851 C852 1.398 . S
C851 C857 1.491 . S
C852 H843 0.950 . S
C852 C851 1.398 . S
C852 C853 1.391 . S
C853 H841 0.950 . S
C853 C849 1.393 . S
C853 C852 1.391 . S
C854 H844 0.950 . S
C854 C855 1.386 . S
C854 C856 1.391 . S
C855 C854 1.386 . S
C855 C859 1.393 . S
C856 H845 0.950 . S
C856 C854 1.391 . S
C856 C857 1.400 . S
C857 C851 1.491 . S
C857 C856 1.400 . S
C857 C858 1.398 . S
C858 H846 0.950 . S
C858 C857 1.398 . S
C858 C859 1.391 . S
C859 H847 0.950 . S
C859 C855 1.393 . S
C859 C858 1.391 . S
H860 C868 0.950 . S
H861 C873 0.950 . S
H862 C870 0.950 . S
H863 C872 0.950 . S
H864 C874 0.950 . S
H865 C876 0.950 . S
H866 C878 0.950 . S
H867 C879 0.950 . S
C868 H860 0.950 . S
C868 C869 1.386 . S
C868 C870 1.391 . S
C869 C868 1.386 . S
C869 C873 1.393 . S
C870 H862 0.950 . S
C870 C868 1.391 . S
C870 C871 1.400 . S
C871 C870 1.400 . S
C871 C872 1.398 . S
C871 C877 1.491 . S
C872 H863 0.950 . S
C872 C871 1.398 . S
C872 C873 1.391 . S
C873 H861 0.950 . S
C873 C869 1.393 . S
C873 C872 1.391 . S
C874 H864 0.950 . S
C874 C875 1.386 . S
C874 C876 1.391 . S
C875 C874 1.386 . S
C875 C879 1.393 . S
C876 H865 0.950 . S
C876 C874 1.391 . S
C876 C877 1.400 . S
C877 C871 1.491 . S
C877 C876 1.400 . S
C877 C878 1.398 . S
C878 H866 0.950 . S
C878 C877 1.398 . S
C878 C879 1.391 . S
C879 H867 0.950 . S
C879 C875 1.393 . S
C879 C878 1.391 . S
H880 C888 0.950 . S
H881 C893 0.950 . S
H882 C890 0.950 . S
H883 C892 0.950 . S
H884 C894 0.950 . S
H885 C896 0.950 . S
H886 C898 0.950 . S
H887 C899 0.950 . S
C888 H880 0.950 . S
C888 C889 1.386 . S
C888 C890 1.391 . S
C889 C888 1.386 . S
C889 C893 1.393 . S
C890 H882 0.950 . S
C890 C888 1.391 . S
C890 C891 1.400 . S
C891 C890 1.400 . S
C891 C892 1.398 . S
C891 C897 1.491 . S
C892 H883 0.950 . S
C892 C891 1.398 . S
C892 C893 1.391 . S
C893 H881 0.950 . S
C893 C889 1.393 . S
C893 C892 1.391 . S
C894 H884 0.950 . S
C894 C895 1.386 . S
C894 C896 1.391 . S
C895 C894 1.386 . S
C895 C899 1.393 . S
C896 H885 0.950 . S
C896 C894 1.391 . S
C896 C897 1.400 . S
C897 C891 1.491 . S
C897 C896 1.400 . S
C897 C898 1.398 . S
C898 H886 0.950 . S
C898 C897 1.398 . S
C898 C899 1.391 . S
C899 H887 0.950 . S
C899 C895 1.393 . S
C899 C898 1.391 . S
H900 C908 0.950 . S
H901 C913 0.950 . S
H902 C910 0.950 . S
H903 C912 0.950 . S
H904 C914 0.950 1_655 S
H905 C916 0.950 . S
H906 C918 0.950 . S
H907 C919 0.950 . S
C908 H900 0.950 . S
C908 C909 1.386 . S
C908 C910 1.391 . S
C909 C908 1.386 . S
C909 C913 1.393 . S
C910 H902 0.950 . S
C910 C908 1.391 . S
C910 C911 1.400 . S
C911 C910 1.400 . S
C911 C912 1.398 . S
C911 C917 1.491 . S
C912 H903 0.950 . S
C912 C911 1.398 . S
C912 C913 1.391 . S
C913 H901 0.950 . S
C913 C909 1.393 . S
C913 C912 1.391 . S
C914 H904 0.950 1_455 S
C914 C915 1.386 . S
C914 C916 1.391 1_565 S
C915 C914 1.386 . S
C915 C919 1.393 . S
C916 H905 0.950 . S
C916 C914 1.391 1_545 S
C916 C917 1.400 . S
C917 C911 1.491 . S
C917 C916 1.400 . S
C917 C918 1.398 1_545 S
C918 H906 0.950 . S
C918 C917 1.398 1_565 S
C918 C919 1.391 . S
C919 H907 0.950 . S
C919 C915 1.393 . S
C919 C918 1.391 . S
H920 C928 0.950 . S
H921 C933 0.950 . S
H922 C930 0.950 . S
H923 C932 0.950 . S
H924 C934 0.950 . S
H925 C936 0.950 . S
H926 C938 0.950 . S
H927 C939 0.950 . S
C928 H920 0.950 . S
C928 C929 1.386 . S
C928 C930 1.391 . S
C929 C928 1.386 . S
C929 C933 1.393 . S
C930 H922 0.950 . S
C930 C928 1.391 . S
C930 C931 1.400 . S
C931 C930 1.400 . S
C931 C932 1.398 . S
C931 C937 1.491 . S
C932 H923 0.950 . S
C932 C931 1.398 . S
C932 C933 1.391 . S
C933 H921 0.950 . S
C933 C929 1.393 . S
C933 C932 1.391 . S
C934 H924 0.950 . S
C934 C935 1.386 . S
C934 C936 1.391 . S
C935 C934 1.386 . S
C935 C939 1.393 . S
C936 H925 0.950 . S
C936 C934 1.391 . S
C936 C937 1.400 . S
C937 C931 1.491 . S
C937 C936 1.400 . S
C937 C938 1.398 . S
C938 H926 0.950 . S
C938 C937 1.398 . S
C938 C939 1.391 . S
C939 H927 0.950 . S
C939 C935 1.393 . S
C939 C938 1.391 . S
H940 C948 0.950 . S
H941 C953 0.950 . S
H942 C950 0.950 . S
H943 C952 0.950 . S
H944 C954 0.950 . S
H945 C956 0.950 . S
H946 C958 0.950 . S
H947 C959 0.950 . S
C948 H940 0.950 . S
C948 C949 1.386 . S
C948 C950 1.391 . S
C949 C948 1.386 . S
C949 C953 1.393 . S
C950 H942 0.950 . S
C950 C948 1.391 . S
C950 C951 1.400 . S
C951 C950 1.400 . S
C951 C952 1.398 . S
C951 C957 1.491 1_545 S
C952 H943 0.950 . S
C952 C951 1.398 . S
C952 C953 1.391 . S
C953 H941 0.950 . S
C953 C949 1.393 . S
C953 C952 1.391 . S
C954 H944 0.950 . S
C954 C955 1.386 . S
C954 C956 1.391 . S
C955 C954 1.386 . S
C955 C959 1.393 . S
C956 H945 0.950 . S
C956 C954 1.391 . S
C956 C957 1.400 . S
C957 C951 1.491 1_565 S
C957 C956 1.400 . S
C957 C958 1.398 . S
C958 H946 0.950 . S
C958 C957 1.398 . S
C958 C959 1.391 . S
C959 H947 0.950 . S
C959 C955 1.393 . S
C959 C958 1.391 . S
H960 C968 0.950 . S
H961 C973 0.950 . S
H962 C970 0.950 . S
H963 C972 0.950 . S
H964 C974 0.950 . S
H965 C976 0.950 . S
H966 C978 0.950 . S
H967 C979 0.950 . S
C968 H960 0.950 . S
C968 C969 1.386 . S
C968 C970 1.391 . S
C969 C968 1.386 . S
C969 C973 1.393 . S
C970 H962 0.950 . S
C970 C968 1.391 . S
C970 C971 1.400 . S
C971 C970 1.400 . S
C971 C972 1.398 . S
C971 C977 1.491 . S
C972 H963 0.950 . S
C972 C971 1.398 . S
C972 C973 1.391 . S
C973 H961 0.950 . S
C973 C969 1.393 . S
C973 C972 1.391 . S
C974 H964 0.950 . S
C974 C975 1.386 . S
C974 C976 1.391 . S
C975 C974 1.386 . S
C975 C979 1.393 . S
C976 H965 0.950 . S
C976 C974 1.391 . S
C976 C977 1.400 . S
C977 C971 1.491 . S
C977 C976 1.400 . S
C977 C978 1.398 . S
C978 H966 0.950 . S
C978 C977 1.398 . S
C978 C979 1.391 . S
C979 H967 0.950 . S
C979 C975 1.393 . S
C979 C978 1.391 . S
H980 C988 0.950 . S
H981 C993 0.950 . S
H982 C990 0.950 . S
H983 C992 0.950 . S
H984 C994 0.950 . S
H985 C996 0.950 . S
H986 C998 0.950 . S
H987 C999 0.950 . S
C988 H980 0.950 . S
C988 C989 1.386 . S
C988 C990 1.391 . S
C989 C988 1.386 . S
C989 C993 1.393 . S
C990 H982 0.950 . S
C990 C988 1.391 . S
C990 C991 1.400 . S
C991 C990 1.400 . S
C991 C992 1.398 . S
C991 C997 1.491 . S
C992 H983 0.950 . S
C992 C991 1.398 . S
C992 C993 1.391 . S
C993 H981 0.950 . S
C993 C989 1.393 . S
C993 C992 1.391 . S
C994 H984 0.950 . S
C994 C995 1.386 . S
C994 C996 1.391 . S
C995 C994 1.386 . S
C995 C999 1.393 . S
C996 H985 0.950 . S
C996 C994 1.391 . S
C996 C997 1.400 . S
C997 C991 1.491 . S
C997 C996 1.400 . S
C997 C998 1.398 . S
C998 H986 0.950 . S
C998 C997 1.398 . S
C998 C999 1.391 . S
C999 H987 0.950 . S
C999 C995 1.393 . S
C999 C998 1.391 . S
H1000 C1008 0.950 . S
H1001 C1013 0.950 . S
H1002 C1010 0.950 . S
H1003 C1012 0.950 . S
H1004 C1014 0.950 . S
H1005 C1016 0.950 . S
H1006 C1018 0.950 . S
H1007 C1019 0.950 . S
C1008 H1000 0.950 . S
C1008 C1009 1.386 . S
C1008 C1010 1.391 . S
C1009 C1008 1.386 . S
C1009 C1013 1.393 . S
C1010 H1002 0.950 . S
C1010 C1008 1.391 . S
C1010 C1011 1.400 . S
C1011 C1010 1.400 . S
C1011 C1012 1.398 . S
C1011 C1017 1.491 . S
C1012 H1003 0.950 . S
C1012 C1011 1.398 . S
C1012 C1013 1.391 . S
C1013 H1001 0.950 . S
C1013 C1009 1.393 . S
C1013 C1012 1.391 . S
C1014 H1004 0.950 . S
C1014 C1015 1.386 . S
C1014 C1016 1.391 . S
C1015 C1014 1.386 . S
C1015 C1019 1.393 . S
C1016 H1005 0.950 . S
C1016 C1014 1.391 . S
C1016 C1017 1.400 . S
C1017 C1011 1.491 . S
C1017 C1016 1.400 . S
C1017 C1018 1.398 . S
C1018 H1006 0.950 . S
C1018 C1017 1.398 . S
C1018 C1019 1.391 . S
C1019 H1007 0.950 . S
C1019 C1015 1.393 . S
C1019 C1018 1.391 . S
H1020 C1028 0.950 . S
H1021 C1033 0.950 . S
H1022 C1030 0.950 . S
H1023 C1032 0.950 . S
H1024 C1034 0.950 . S
H1025 C1036 0.950 . S
H1026 C1038 0.950 . S
H1027 C1039 0.950 . S
C1028 H1020 0.950 . S
C1028 C1029 1.386 . S
C1028 C1030 1.391 . S
C1029 C1028 1.386 . S
C1029 C1033 1.393 . S
C1030 H1022 0.950 . S
C1030 C1028 1.391 . S
C1030 C1031 1.400 . S
C1031 C1030 1.400 . S
C1031 C1032 1.398 . S
C1031 C1037 1.491 . S
C1032 H1023 0.950 . S
C1032 C1031 1.398 . S
C1032 C1033 1.391 . S
C1033 H1021 0.950 . S
C1033 C1029 1.393 . S
C1033 C1032 1.391 . S
C1034 H1024 0.950 . S
C1034 C1035 1.386 . S
C1034 C1036 1.391 . S
C1035 C1034 1.386 . S
C1035 C1039 1.393 . S
C1036 H1025 0.950 . S
C1036 C1034 1.391 . S
C1036 C1037 1.400 . S
C1037 C1031 1.491 . S
C1037 C1036 1.400 . S
C1037 C1038 1.398 . S
C1038 H1026 0.950 . S
C1038 C1037 1.398 . S
C1038 C1039 1.391 . S
C1039 H1027 0.950 . S
C1039 C1035 1.393 . S
C1039 C1038 1.391 . S
H1040 C1048 0.950 . S
H1041 C1053 0.950 . S
H1042 C1050 0.950 . S
H1043 C1052 0.950 . S
H1044 C1054 0.950 . S
H1045 C1056 0.950 . S
H1046 C1058 0.950 . S
H1047 C1059 0.950 . S
C1048 H1040 0.950 . S
C1048 C1049 1.386 . S
C1048 C1050 1.391 . S
C1049 C1048 1.386 . S
C1049 C1053 1.393 . S
C1050 H1042 0.950 . S
C1050 C1048 1.391 . S
C1050 C1051 1.400 . S
C1051 C1050 1.400 . S
C1051 C1052 1.398 . S
C1051 C1057 1.491 . S
C1052 H1043 0.950 . S
C1052 C1051 1.398 . S
C1052 C1053 1.391 . S
C1053 H1041 0.950 . S
C1053 C1049 1.393 . S
C1053 C1052 1.391 . S
C1054 H1044 0.950 . S
C1054 C1055 1.386 . S
C1054 C1056 1.391 . S
C1055 C1054 1.386 . S
C1055 C1059 1.393 . S
C1056 H1045 0.950 . S
C1056 C1054 1.391 . S
C1056 C1057 1.400 . S
C1057 C1051 1.491 . S
C1057 C1056 1.400 . S
C1057 C1058 1.398 . S
C1058 H1046 0.950 . S
C1058 C1057 1.398 . S
C1058 C1059 1.391 . S
C1059 H1047 0.950 . S
C1059 C1055 1.393 . S
C1059 C1058 1.391 . S
H1060 C1068 0.950 . S
H1061 C1073 0.950 . S
H1062 C1070 0.950 . S
H1063 C1072 0.950 . S
H1064 C1074 0.950 . S
H1065 C1076 0.950 . S
H1066 C1078 0.950 . S
H1067 C1079 0.950 . S
C1068 H1060 0.950 . S
C1068 C1069 1.386 . S
C1068 C1070 1.391 . S
C1069 C1068 1.386 . S
C1069 C1073 1.393 . S
C1070 H1062 0.950 . S
C1070 C1068 1.391 . S
C1070 C1071 1.400 . S
C1071 C1070 1.400 . S
C1071 C1072 1.398 . S
C1071 C1077 1.491 . S
C1072 H1063 0.950 . S
C1072 C1071 1.398 . S
C1072 C1073 1.391 . S
C1073 H1061 0.950 . S
C1073 C1069 1.393 . S
C1073 C1072 1.391 . S
C1074 H1064 0.950 . S
C1074 C1075 1.386 . S
C1074 C1076 1.391 . S
C1075 C1074 1.386 . S
C1075 C1079 1.393 . S
C1076 H1065 0.950 . S
C1076 C1074 1.391 . S
C1076 C1077 1.400 . S
C1077 C1071 1.491 . S
C1077 C1076 1.400 . S
C1077 C1078 1.398 . S
C1078 H1066 0.950 . S
C1078 C1077 1.398 . S
C1078 C1079 1.391 . S
C1079 H1067 0.950 . S
C1079 C1075 1.393 . S
C1079 C1078 1.391 . S
H1080 C1088 0.950 . S
H1081 C1093 0.950 . S
H1082 C1090 0.950 . S
H1083 C1092 0.950 . S
H1084 C1094 0.950 . S
H1085 C1096 0.950 . S
H1086 C1098 0.951 . S
H1087 C1099 0.950 . S
C1088 H1080 0.950 . S
C1088 C1089 1.386 . S
C1088 C1090 1.391 . S
C1089 C1088 1.386 . S
C1089 C1093 1.393 . S
C1090 H1082 0.950 . S
C1090 C1088 1.391 . S
C1090 C1091 1.400 . S
C1091 C1090 1.400 . S
C1091 C1092 1.398 . S
C1091 C1097 1.491 1_455 S
C1092 H1083 0.950 . S
C1092 C1091 1.398 . S
C1092 C1093 1.391 . S
C1093 H1081 0.950 . S
C1093 C1089 1.393 . S
C1093 C1092 1.391 . S
C1094 H1084 0.950 . S
C1094 C1095 1.386 . S
C1094 C1096 1.391 . S
C1095 C1094 1.386 . S
C1095 C1099 1.393 . S
C1096 H1085 0.950 . S
C1096 C1094 1.391 . S
C1096 C1097 1.400 . S
C1097 C1091 1.491 1_655 S
C1097 C1096 1.400 . S
C1097 C1098 1.398 . S
C1098 H1086 0.951 . S
C1098 C1097 1.398 . S
C1098 C1099 1.391 . S
C1099 H1087 0.950 . S
C1099 C1095 1.393 . S
C1099 C1098 1.391 . S
H1100 C1108 0.950 . S
H1101 C1113 0.950 . S
H1102 C1110 0.950 . S
H1103 C1112 0.950 . S
H1104 C1114 0.950 . S
H1105 C1116 0.950 . S
H1106 C1118 0.950 . S
H1107 C1119 0.950 . S
C1108 H1100 0.950 . S
C1108 C1109 1.386 . S
C1108 C1110 1.391 . S
C1109 C1108 1.386 . S
C1109 C1113 1.393 . S
C1110 H1102 0.950 . S
C1110 C1108 1.391 . S
C1110 C1111 1.400 . S
C1111 C1110 1.400 . S
C1111 C1112 1.398 . S
C1111 C1117 1.491 . S
C1112 H1103 0.950 . S
C1112 C1111 1.398 . S
C1112 C1113 1.391 . S
C1113 H1101 0.950 . S
C1113 C1109 1.393 . S
C1113 C1112 1.391 . S
C1114 H1104 0.950 . S
C1114 C1115 1.386 . S
C1114 C1116 1.391 . S
C1115 C1114 1.386 . S
C1115 C1119 1.393 . S
C1116 H1105 0.950 . S
C1116 C1114 1.391 . S
C1116 C1117 1.400 . S
C1117 C1111 1.491 . S
C1117 C1116 1.400 . S
C1117 C1118 1.398 . S
C1118 H1106 0.950 . S
C1118 C1117 1.398 . S
C1118 C1119 1.391 . S
C1119 H1107 0.950 . S
C1119 C1115 1.393 . S
C1119 C1118 1.391 . S
H1120 C1128 0.950 . S
H1121 C1133 0.950 . S
H1122 C1130 0.950 . S
H1123 C1132 0.950 . S
H1124 C1134 0.950 . S
H1125 C1136 0.950 . S
H1126 C1138 0.950 . S
H1127 C1139 0.950 . S
C1128 H1120 0.950 . S
C1128 C1129 1.386 . S
C1128 C1130 1.391 . S
C1129 C1128 1.386 . S
C1129 C1133 1.393 . S
C1130 H1122 0.950 . S
C1130 C1128 1.391 . S
C1130 C1131 1.400 . S
C1131 C1130 1.400 . S
C1131 C1132 1.398 . S
C1131 C1137 1.491 . S
C1132 H1123 0.950 . S
C1132 C1131 1.398 . S
C1132 C1133 1.391 . S
C1133 H1121 0.950 . S
C1133 C1129 1.393 . S
C1133 C1132 1.391 . S
C1134 H1124 0.950 . S
C1134 C1135 1.386 . S
C1134 C1136 1.391 . S
C1135 C1134 1.386 . S
C1135 C1139 1.393 . S
C1136 H1125 0.950 . S
C1136 C1134 1.391 . S
C1136 C1137 1.400 . S
C1137 C1131 1.491 . S
C1137 C1136 1.400 . S
C1137 C1138 1.398 . S
C1138 H1126 0.950 . S
C1138 C1137 1.398 . S
C1138 C1139 1.391 . S
C1139 H1127 0.950 . S
C1139 C1135 1.393 . S
C1139 C1138 1.391 . S
H1140 C1148 0.950 . S
H1141 C1153 0.950 . S
H1142 C1150 0.950 . S
H1143 C1152 0.950 . S
H1144 C1154 0.950 . S
H1145 C1156 0.950 . S
H1146 C1158 0.950 . S
H1147 C1159 0.950 . S
C1148 H1140 0.950 . S
C1148 C1149 1.386 . S
C1148 C1150 1.391 . S
C1149 C1148 1.386 . S
C1149 C1153 1.393 . S
C1150 H1142 0.950 . S
C1150 C1148 1.391 . S
C1150 C1151 1.400 . S
C1151 C1150 1.400 . S
C1151 C1152 1.398 . S
C1151 C1157 1.491 . S
C1152 H1143 0.950 . S
C1152 C1151 1.398 . S
C1152 C1153 1.391 . S
C1153 H1141 0.950 . S
C1153 C1149 1.393 . S
C1153 C1152 1.391 . S
C1154 H1144 0.950 . S
C1154 C1155 1.386 . S
C1154 C1156 1.391 . S
C1155 C1154 1.386 . S
C1155 C1159 1.393 . S
C1156 H1145 0.950 . S
C1156 C1154 1.391 . S
C1156 C1157 1.400 . S
C1157 C1151 1.491 . S
C1157 C1156 1.400 . S
C1157 C1158 1.398 . S
C1158 H1146 0.950 . S
C1158 C1157 1.398 . S
C1158 C1159 1.391 . S
C1159 H1147 0.950 . S
C1159 C1155 1.393 . S
C1159 C1158 1.391 . S
H1160 C1168 0.950 . S
H1161 C1173 0.950 . S
H1162 C1170 0.950 . S
H1163 C1172 0.950 . S
H1164 C1174 0.950 . S
H1165 C1176 0.950 . S
H1166 C1178 0.950 . S
H1167 C1179 0.950 . S
C1168 H1160 0.950 . S
C1168 C1169 1.386 . S
C1168 C1170 1.391 . S
C1169 C1168 1.386 . S
C1169 C1173 1.393 . S
C1170 H1162 0.950 . S
C1170 C1168 1.391 . S
C1170 C1171 1.400 . S
C1171 C1170 1.400 . S
C1171 C1172 1.398 . S
C1171 C1177 1.491 . S
C1172 H1163 0.950 . S
C1172 C1171 1.398 . S
C1172 C1173 1.391 . S
C1173 H1161 0.950 . S
C1173 C1169 1.393 . S
C1173 C1172 1.391 . S
C1174 H1164 0.950 . S
C1174 C1175 1.386 . S
C1174 C1176 1.391 . S
C1175 C1174 1.386 . S
C1175 C1179 1.393 . S
C1176 H1165 0.950 . S
C1176 C1174 1.391 . S
C1176 C1177 1.400 . S
C1177 C1171 1.491 . S
C1177 C1176 1.400 . S
C1177 C1178 1.398 . S
C1178 H1166 0.950 . S
C1178 C1177 1.398 . S
C1178 C1179 1.391 . S
C1179 H1167 0.950 . S
C1179 C1175 1.393 . S
C1179 C1178 1.391 . S
H1180 C1188 0.950 . S
H1181 C1193 0.950 . S
H1182 C1190 0.950 . S
H1183 C1192 0.950 . S
H1184 C1194 0.950 . S
H1185 C1196 0.950 . S
H1186 C1198 0.950 1_655 S
H1187 C1199 0.950 . S
C1188 H1180 0.950 . S
C1188 C1189 1.386 . S
C1188 C1190 1.391 . S
C1189 C1188 1.386 . S
C1189 C1193 1.393 . S
C1190 H1182 0.950 . S
C1190 C1188 1.391 . S
C1190 C1191 1.400 . S
C1191 C1190 1.400 . S
C1191 C1192 1.398 . S
C1191 C1197 1.491 . S
C1192 H1183 0.950 . S
C1192 C1191 1.398 . S
C1192 C1193 1.391 . S
C1193 H1181 0.950 . S
C1193 C1189 1.393 . S
C1193 C1192 1.391 . S
C1194 H1184 0.950 . S
C1194 C1195 1.386 . S
C1194 C1196 1.391 . S
C1195 C1194 1.386 . S
C1195 C1199 1.393 . S
C1196 H1185 0.950 . S
C1196 C1194 1.391 . S
C1196 C1197 1.400 1_455 S
C1197 C1191 1.491 . S
C1197 C1196 1.400 1_655 S
C1197 C1198 1.398 1_655 S
C1198 H1186 0.950 1_455 S
C1198 C1197 1.398 1_455 S
C1198 C1199 1.391 . S
C1199 H1187 0.950 . S
C1199 C1195 1.393 . S
C1199 C1198 1.391 . S
C489 C18 1.042 . S
C495 C458 1.056 . S
C509 C379 1.648 . S
C515 C58 1.742 . S
C529 C99 1.233 . S
C535 C338 1.329 . S
C549 C138 2.032 . S
C555 C418 2.021 . S
C569 C178 1.661 . S
C575 C419 1.596 . S
C589 C219 1.424 . S
C595 C459 1.471 . S
C609 C378 1.811 . S
C615 C258 1.807 . S
C629 C299 1.664 . S
C635 C339 1.704 . S
C649 C139 1.731 . S
C655 C179 1.750 . S
C669 C19 1.538 . S
C675 C218 1.635 . S
C689 C59 1.605 . S
C695 C259 1.587 . S
C709 C298 1.875 . S
C715 C98 1.891 . S
C729 C6 1.588 . S
C735 C329 1.468 . S
C749 C46 1.812 . S
C755 C409 1.709 . S
C769 C449 1.923 . S
C775 C95 1.955 . S
C789 C126 1.547 . S
C795 C370 1.513 . S
C809 C166 1.225 . S
C815 C369 1.176 . S
C829 C330 1.929 . S
C835 C215 1.853 . S
C849 C410 1.351 . S
C855 C246 1.356 . S
C869 C450 2.644 . S
C875 C295 2.550 . S
C889 C10 2.740 . S
C895 C135 2.644 . S
C909 C15 1.985 . S
C915 C50 2.045 . S
C929 C55 2.249 . S
C935 C89 2.212 . S
C949 C130 1.674 . S
C955 C86 1.714 . S
C969 C206 1.453 . S
C975 C170 1.424 . S
C989 C209 1.269 . S
C995 C255 1.323 . S
C1009 C250 1.456 . S
C1015 C286 1.482 . S
C1029 C175 0.829 . S
C1035 C289 0.818 . S
C1049 C335 0.770 . S
C1055 C129 0.757 . S
C1069 C210 1.662 . S
C1075 C375 1.611 . S
C1089 C326 1.367 . S
C1095 C249 1.299 . S
C1109 C406 1.811 . S
C1115 C290 1.781 . S
C1129 C169 1.254 . S
C1135 C446 1.326 . S
C1149 C455 1.687 . S
C1155 C49 1.634 . S
C1169 C90 1.505 . S
C1175 C366 1.527 . S
C1189 C415 1.752 . S
C1195 C9 1.712 . S
