# Generated by pormake.
# Topology yfy, (5)-cn, num edge types: 1
# Building blocks:
#     Node 0, Type 0, BuildingBlock: XOMCOT_clean_sbu_1, # of connection points: 5
#     Node 1, Type 0, BuildingBlock: XOMCOT_clean_sbu_1, # of connection points: 5
#     Node 2, Type 0, BuildingBlock: XOMCOT_clean_sbu_1, # of connection points: 5
#     Node 3, Type 0, BuildingBlock: XOMCOT_clean_sbu_1, # of connection points: 5
#     Node 4, Type 0, BuildingBlock: XOMCOT_clean_sbu_1, # of connection points: 5
#     Node 5, Type 0, BuildingBlock: XOMCOT_clean_sbu_1, # of connection points: 5
#     Node 6, Type 0, BuildingBlock: XOMCOT_clean_sbu_1, # of connection points: 5
#     Node 7, Type 0, BuildingBlock: XOMCOT_clean_sbu_1, # of connection points: 5
#     Node 8, Type 0, BuildingBlock: XOMCOT_clean_sbu_1, # of connection points: 5
#     Node 9, Type 0, BuildingBlock: XOMCOT_clean_sbu_1, # of connection points: 5
#     Node 10, Type 0, BuildingBlock: XOMCOT_clean_sbu_1, # of connection points: 5
#     Node 11, Type 0, BuildingBlock: XOMCOT_clean_sbu_1, # of connection points: 5
#     Node 12, Type 0, BuildingBlock: XOMCOT_clean_sbu_1, # of connection points: 5
#     Node 13, Type 0, BuildingBlock: XOMCOT_clean_sbu_1, # of connection points: 5
#     Node 14, Type 0, BuildingBlock: XOMCOT_clean_sbu_1, # of connection points: 5
#     Node 15, Type 0, BuildingBlock: XOMCOT_clean_sbu_1, # of connection points: 5
#     Edge 16, Type (0, 0), BuildingBlock: CIFDUS_clean_linker_0, # of connection points: 2
#     Edge 17, Type (0, 0), BuildingBlock: CIFDUS_clean_linker_0, # of connection points: 2
#     Edge 18, Type (0, 0), BuildingBlock: CIFDUS_clean_linker_0, # of connection points: 2
#     Edge 19, Type (0, 0), BuildingBlock: CIFDUS_clean_linker_0, # of connection points: 2
#     Edge 20, Type (0, 0), BuildingBlock: CIFDUS_clean_linker_0, # of connection points: 2
#     Edge 21, Type (0, 0), BuildingBlock: CIFDUS_clean_linker_0, # of connection points: 2
#     Edge 22, Type (0, 0), BuildingBlock: CIFDUS_clean_linker_0, # of connection points: 2
#     Edge 23, Type (0, 0), BuildingBlock: CIFDUS_clean_linker_0, # of connection points: 2
#     Edge 24, Type (0, 0), BuildingBlock: CIFDUS_clean_linker_0, # of connection points: 2
#     Edge 25, Type (0, 0), BuildingBlock: CIFDUS_clean_linker_0, # of connection points: 2
#     Edge 26, Type (0, 0), BuildingBlock: CIFDUS_clean_linker_0, # of connection points: 2
#     Edge 27, Type (0, 0), BuildingBlock: CIFDUS_clean_linker_0, # of connection points: 2
#     Edge 28, Type (0, 0), BuildingBlock: CIFDUS_clean_linker_0, # of connection points: 2
#     Edge 29, Type (0, 0), BuildingBlock: CIFDUS_clean_linker_0, # of connection points: 2
#     Edge 30, Type (0, 0), BuildingBlock: CIFDUS_clean_linker_0, # of connection points: 2
#     Edge 31, Type (0, 0), BuildingBlock: CIFDUS_clean_linker_0, # of connection points: 2
#     Edge 32, Type (0, 0), BuildingBlock: CIFDUS_clean_linker_0, # of connection points: 2
#     Edge 33, Type (0, 0), BuildingBlock: CIFDUS_clean_linker_0, # of connection points: 2
#     Edge 34, Type (0, 0), BuildingBlock: CIFDUS_clean_linker_0, # of connection points: 2
#     Edge 35, Type (0, 0), BuildingBlock: CIFDUS_clean_linker_0, # of connection points: 2
#     Edge 36, Type (0, 0), BuildingBlock: CIFDUS_clean_linker_0, # of connection points: 2
#     Edge 37, Type (0, 0), BuildingBlock: CIFDUS_clean_linker_0, # of connection points: 2
#     Edge 38, Type (0, 0), BuildingBlock: CIFDUS_clean_linker_0, # of connection points: 2
#     Edge 39, Type (0, 0), BuildingBlock: CIFDUS_clean_linker_0, # of connection points: 2
#     Edge 40, Type (0, 0), BuildingBlock: CIFDUS_clean_linker_0, # of connection points: 2
#     Edge 41, Type (0, 0), BuildingBlock: CIFDUS_clean_linker_0, # of connection points: 2
#     Edge 42, Type (0, 0), BuildingBlock: CIFDUS_clean_linker_0, # of connection points: 2
#     Edge 43, Type (0, 0), BuildingBlock: CIFDUS_clean_linker_0, # of connection points: 2
#     Edge 44, Type (0, 0), BuildingBlock: CIFDUS_clean_linker_0, # of connection points: 2
#     Edge 45, Type (0, 0), BuildingBlock: CIFDUS_clean_linker_0, # of connection points: 2
#     Edge 46, Type (0, 0), BuildingBlock: CIFDUS_clean_linker_0, # of connection points: 2
#     Edge 47, Type (0, 0), BuildingBlock: CIFDUS_clean_linker_0, # of connection points: 2
#     Edge 48, Type (0, 0), BuildingBlock: CIFDUS_clean_linker_0, # of connection points: 2
#     Edge 49, Type (0, 0), BuildingBlock: CIFDUS_clean_linker_0, # of connection points: 2
#     Edge 50, Type (0, 0), BuildingBlock: CIFDUS_clean_linker_0, # of connection points: 2
#     Edge 51, Type (0, 0), BuildingBlock: CIFDUS_clean_linker_0, # of connection points: 2
#     Edge 52, Type (0, 0), BuildingBlock: CIFDUS_clean_linker_0, # of connection points: 2
#     Edge 53, Type (0, 0), BuildingBlock: CIFDUS_clean_linker_0, # of connection points: 2
#     Edge 54, Type (0, 0), BuildingBlock: CIFDUS_clean_linker_0, # of connection points: 2
#     Edge 55, Type (0, 0), BuildingBlock: CIFDUS_clean_linker_0, # of connection points: 2
# Relax obj value: 0.173
# Max RMSD: 0.197
# Mean RMSD: 0.197
data_MOF--net-yfy--node1-XOMCOT_clean_sbu_1--edge1-CIFDUS_clean_linker_0
_symmetry_space_group_name_H-M    P1
_symmetry_Int_Tables_number       1
_symmetry_cell_setting            triclinic
loop_
_symmetry_equiv_pos_as_xyz
'x, y, z'
_cell_length_a     39.003328
_cell_length_b     38.961706
_cell_length_c     44.813627
_cell_angle_alpha  89.977291
_cell_angle_beta   90.028024
_cell_angle_gamma 89.955942
loop_
_atom_site_label
_atom_site_type_symbol
_atom_site_fract_x
_atom_site_fract_y
_atom_site_fract_z
_atom_type_partial_charge
C0 C 1.002 0.27561 0.26962 0.0
C1 C 0.97886 0.24934 0.26649 0.0
N2 N 0.96563 0.24238 0.29347 0.0
N3 N 1.004 0.28536 0.29856 0.0
C4 C 0.981 0.26464 0.31248 0.0
H5 H 0.017 0.28663 0.25174 0.0
Co6 Co 0.03494 0.32107 0.31027 0.0
C7 C 0.07924 0.26342 0.29225 0.0
O8 O 0.05693 0.24359 0.30584 0.0
N9 N 0.06537 0.35684 0.31967 0.0
C10 C 0.0897 0.40323 0.33923 0.0
C11 C 0.0664 0.37711 0.34399 0.0
C12 C 0.08807 0.37113 0.30049 0.0
N13 N 0.10323 0.39964 0.31166 0.0
O14 O 0.02112 0.34663 0.27552 0.0
H15 H 0.05023 0.37398 0.3634 0.0
H16 H 0.09251 0.36117 0.27831 0.0
O17 O 0.0734 0.29589 0.29058 0.0
C18 C 0.99672 0.36498 0.28623 0.0
O19 O 0.98891 0.36098 0.31455 0.0
N20 N 0.04461 0.30013 0.34719 0.0
C21 C 0.05251 0.28251 0.40728 0.0
C22 C 0.08044 0.28081 0.38754 0.0
C23 C 0.07611 0.29033 0.3576 0.0
C24 C 0.01779 0.30323 0.36643 0.0
C25 C 0.02086 0.29378 0.39625 0.0
H26 H 0.09843 0.29155 0.34341 0.0
H27 H 0.99401 0.31451 0.35882 0.0
H28 H 0.97575 0.26512 0.33608 0.0
H29 H 0.9719 0.23676 0.24582 0.0
H30 H 0.09499 0.42409 0.35448 0.0
H31 H 0.10564 0.27334 0.39537 0.0
H32 H 0.99906 0.29722 0.41091 0.0
C33 C 0.82827 0.96218 0.3325 0.0
C34 C 0.85685 0.94251 0.32722 0.0
N35 N 0.87803 0.96009 0.30907 0.0
N36 N 0.83109 0.9922 0.31778 0.0
C37 C 0.86183 0.99032 0.30374 0.0
H38 H 0.80673 0.95511 0.34638 0.0
Co39 Co 0.79614 0.02528 0.31852 0.0
C40 C 0.8283 0.09216 0.3099 0.0
O41 O 0.80708 0.10207 0.33096 0.0
N42 N 0.75938 0.05815 0.31817 0.0
C43 C 0.71563 0.09386 0.32672 0.0
C44 C 0.73756 0.07013 0.33925 0.0
C45 C 0.74946 0.0748 0.29297 0.0
N46 N 0.72313 0.09672 0.29754 0.0
O47 O 0.7795 1.00841 0.281 0.0
H48 H 0.73707 0.06267 0.36238 0.0
H49 H 0.76192 0.0714 0.2716 0.0
O50 O 0.82715 0.06084 0.30068 0.0
C51 C 0.7566 0.98712 0.28977 0.0
O52 O 0.75215 0.98327 0.31865 0.0
N53 N 0.81021 0.03689 0.35733 0.0
C54 C 0.82825 0.04172 0.41748 0.0
C55 C 0.85157 0.05116 0.39509 0.0
C56 C 0.84235 0.04776 0.36509 0.0
C57 C 0.78843 0.02519 0.37875 0.0
C58 C 0.79639 0.02833 0.40888 0.0
H59 H 0.86151 0.05273 0.34826 0.0
H60 H 0.76478 1.01276 0.37236 0.0
H61 H 0.87196 1.01048 0.28967 0.0
H62 H 0.86197 0.91743 0.33664 0.0
H63 H 0.69533 0.10751 0.33814 0.0
H64 H 0.87708 0.06009 0.40065 0.0
H65 H 0.77762 0.02023 0.42522 0.0
C66 C 0.15288 0.8395 0.33841 0.0
C67 C 0.17687 0.86408 0.33168 0.0
N68 N 0.17127 0.87521 0.30366 0.0
N69 N 0.13147 0.83519 0.31504 0.0
C70 C 0.14414 0.85659 0.29379 0.0
H71 H 0.15099 0.82591 0.35937 0.0
Co72 Co 0.09435 0.80343 0.31536 0.0
C73 C 0.05689 0.86654 0.28795 0.0
O74 O 0.08128 0.88935 0.29149 0.0
N75 N 0.05684 0.77122 0.31541 0.0
C76 C 1.00564 0.74815 0.32534 0.0
C77 C 0.02802 0.77415 0.33209 0.0
C78 C 0.05038 0.74342 0.2978 0.0
N79 N 0.01955 0.72883 0.30371 0.0
O80 O 0.11175 0.78334 0.27926 0.0
H81 H 0.02257 0.79466 0.34758 0.0
H82 H 0.06749 0.73428 0.28056 0.0
O83 O 0.06212 0.83521 0.29546 0.0
C84 C 0.1337 0.76197 0.28989 0.0
O85 O 0.13724 0.76042 0.31903 0.0
N86 N 0.08149 0.81959 0.35319 0.0
C87 C 0.074 0.83583 0.41339 0.0
C88 C 0.06655 0.86023 0.39129 0.0
C89 C 0.07085 0.85171 0.36118 0.0
C90 C 0.08846 0.79557 0.37446 0.0
C91 C 0.08471 0.80304 0.40461 0.0
H92 H 0.06673 0.87135 0.34477 0.0
H93 H 0.09757 0.77048 0.36788 0.0
H94 H 0.1335 0.85872 0.27155 0.0
H95 H 0.19617 0.87394 0.34678 0.0
H96 H 0.98027 0.74466 0.33465 0.0
H97 H 0.05858 0.88597 0.39724 0.0
H98 H 0.09026 0.78327 0.42091 0.0
C99 C 0.30984 0.15692 0.30873 0.0
C100 C 0.2826 0.17863 0.30431 0.0
N101 N 0.25454 0.15969 0.2983 0.0
N102 N 0.29951 0.12413 0.30551 0.0
C103 C 0.26553 0.12659 0.29943 0.0
H104 H 0.33555 0.16471 0.31458 0.0
Co105 Co 0.32964 0.0867 0.31026 0.0
C106 C 0.27861 0.04403 0.26894 0.0
O107 O 0.26661 0.06416 0.24786 0.0
N108 N 0.3602 0.04958 0.3146 0.0
C109 C 0.39648 1.0104 0.33218 0.0
C110 C 0.37506 0.03725 0.3396 0.0
C111 C 0.37327 0.03008 0.29231 0.0
N112 N 0.39545 1.006 0.30236 0.0
O113 O 0.35454 0.10173 0.27555 0.0
H114 H 0.37102 0.04739 0.36177 0.0
H115 H 0.36652 0.03351 0.26907 0.0
O116 O 0.29956 0.05595 0.28823 0.0
C117 C 0.38031 0.11847 0.28569 0.0
O118 O 0.38526 0.1187 0.31471 0.0
N119 N 0.30807 0.07541 0.34612 0.0
C120 C 0.28675 0.064 0.40468 0.0
C121 C 0.27768 0.04106 0.38181 0.0
C122 C 0.28861 0.04726 0.35253 0.0
C123 C 0.31641 0.09826 0.3679 0.0
C124 C 0.30593 0.09318 0.39724 0.0
H125 H 0.28234 0.02888 0.3355 0.0
H126 H 0.33248 0.12003 0.36258 0.0
H127 H 0.24918 0.10453 0.29618 0.0
H128 H 0.28338 0.20628 0.30639 0.0
H129 H 0.41235 0.99592 0.3475 0.0
H130 H 0.2629 0.01819 0.3866 0.0
H131 H 0.31426 0.11117 0.41417 0.0
C132 C 0.96507 0.83006 0.67203 0.0
C133 C 0.94279 0.85601 0.67932 0.0
N134 N 0.95804 0.87638 0.69955 0.0
N135 N 0.99517 0.83432 0.68653 0.0
C136 C 0.98918 0.86199 0.7043 0.0
H137 H 0.95856 0.80846 0.6581 0.0
Co138 Co 0.03204 0.80179 0.68619 0.0
C139 C 0.07003 0.86581 0.70038 0.0
O140 O 0.05167 0.88112 0.67967 0.0
N141 N 0.06697 0.76845 0.68692 0.0
C142 C 0.09925 0.72333 0.67542 0.0
C143 C 0.07467 0.74586 0.66518 0.0
C144 C 0.08695 0.75899 0.71024 0.0
N145 N 0.10693 0.73141 0.70393 0.0
O146 O 1.01324 0.78255 0.722 0.0
H147 H 0.06261 0.74532 0.64344 0.0
H148 H 0.08571 0.77135 0.73182 0.0
O149 O 0.06356 0.83433 0.70709 0.0
C150 C 0.99356 0.75889 0.71193 0.0
O151 O 0.99308 0.75366 0.68294 0.0
N152 N 0.04809 0.81711 0.64854 0.0
C153 C 0.06766 0.83159 0.58986 0.0
C154 C 0.09129 0.83464 0.61333 0.0
C155 C 0.08117 0.82655 0.64247 0.0
C156 C 0.02579 0.81187 0.6256 0.0
C157 C 0.03466 0.81968 0.59635 0.0
H158 H 0.1003 0.82676 0.6599 0.0
H159 H 1.00165 0.79948 0.6295 0.0
H160 H 1.00671 0.87085 0.7213 0.0
H161 H 0.91725 0.85944 0.67036 0.0
H162 H 0.11038 0.7025 0.66273 0.0
H163 H 0.11749 0.84247 0.60916 0.0
H164 H 0.01629 0.81466 0.57875 0.0
C165 C 0.29084 0.9766 0.66692 0.0
C166 C 0.26333 0.95553 0.67228 0.0
N167 N 0.23992 0.97322 0.68809 0.0
N168 N 0.28519 1.00757 0.67937 0.0
C169 C 0.25366 1.0049 0.69195 0.0
H170 H 0.31378 0.96965 0.65481 0.0
Co171 Co 0.31918 0.04158 0.67916 0.0
C172 C 0.28688 0.10794 0.69497 0.0
O173 O 0.30825 0.12161 0.67574 0.0
N174 N 0.35529 0.07489 0.67962 0.0
C175 C 0.39838 0.11061 0.66953 0.0
C176 C 0.37503 0.08797 0.6576 0.0
C177 C 0.3678 0.08982 0.70475 0.0
N178 N 0.39395 0.11185 0.69934 0.0
O179 O 0.33761 0.02256 0.71557 0.0
H180 H 0.37296 0.08196 0.63421 0.0
H181 H 0.3577 0.0844 0.72671 0.0
O182 O 0.28758 0.07527 0.69959 0.0
C183 C 0.36155 1.00271 0.70616 0.0
O184 O 0.36735 1.00171 0.67729 0.0
N185 N 0.30369 0.0553 0.64125 0.0
C186 C 0.28508 0.0621 0.58137 0.0
C187 C 0.2638 0.07491 0.60401 0.0
C188 C 0.27311 0.07034 0.63396 0.0
C189 C 0.32364 0.04132 0.61948 0.0
C190 C 0.31521 0.04491 0.58948 0.0
H191 H 0.25503 0.0777 0.65097 0.0
H192 H 0.34637 0.02704 0.62552 0.0
H193 H 0.24129 0.02542 0.70416 0.0
H194 H 0.26048 0.92933 0.66464 0.0
H195 H 0.4169 0.12525 0.65688 0.0
H196 H 0.23968 0.08726 0.59865 0.0
H197 H 0.33228 0.03435 0.57277 0.0
C198 C 0.15759 0.31682 0.66036 0.0
C199 C 0.18308 0.29304 0.66479 0.0
N200 N 0.17257 0.27052 0.68566 0.0
N201 N 0.13099 0.30975 0.67851 0.0
C202 C 0.1408 0.28114 0.6937 0.0
H203 H 0.15855 0.33835 0.64514 0.0
Co204 Co 0.09166 0.33777 0.68017 0.0
C205 C 0.04038 0.2986 0.71596 0.0
O206 O 0.02955 0.32639 0.72959 0.0
N207 N 0.05144 0.36643 0.68175 0.0
C208 C 0.99865 0.38613 0.67272 0.0
C209 C 0.02248 0.36151 0.66564 0.0
C210 C 0.04389 0.39418 0.69907 0.0
N211 N 1.01199 0.40664 0.69383 0.0
O212 O 0.10796 0.35612 0.71737 0.0
H213 H 0.01825 0.34067 0.65017 0.0
H214 H 0.06107 0.40485 0.71557 0.0
O215 O 0.06577 0.30022 0.69802 0.0
C216 C 0.12715 0.38069 0.70818 0.0
O217 O 0.12648 0.38816 0.67957 0.0
N218 N 0.08018 0.32291 0.64191 0.0
C219 C 0.07976 0.3072 0.58131 0.0
C220 C 0.07309 0.28161 0.60264 0.0
C221 C 0.07381 0.28995 0.6331 0.0
C222 C 0.08541 0.34814 0.62142 0.0
C223 C 0.08507 0.34093 0.59107 0.0
H224 H 0.07104 0.26973 0.64943 0.0
H225 H 0.09122 0.3739 0.62882 0.0
H226 H 0.12556 0.26905 0.71091 0.0
H227 H 0.20779 0.29253 0.65379 0.0
H228 H 0.97289 0.38802 0.66386 0.0
H229 H 0.06911 0.25521 0.59592 0.0
H230 H 0.08981 0.36151 0.57535 0.0
C231 C 0.88337 0.10248 0.67692 0.0
C232 C 0.9106 0.12426 0.68044 0.0
N233 N 0.89993 0.15238 0.69527 0.0
N234 N 0.85495 0.11646 0.68914 0.0
C235 C 0.86594 0.14703 0.70014 0.0
H236 H 0.88461 0.07754 0.66645 0.0
Co237 Co 0.81136 0.09432 0.6902 0.0
C238 C 0.85669 0.04906 0.72814 0.0
O239 O 0.87439 0.07444 0.73974 0.0
N240 N 0.76892 0.07184 0.69162 0.0
C241 C 0.71663 0.05198 0.68214 0.0
C242 C 0.74315 0.07209 0.67159 0.0
C243 C 0.75746 0.05182 0.71413 0.0
N244 N 0.72569 0.03921 0.70902 0.0
O245 O 0.79897 0.11775 0.72621 0.0
H246 H 0.74356 0.08609 0.65075 0.0
H247 H 0.77242 0.04647 0.73392 0.0
O248 O 0.83187 0.05532 0.71043 0.0
C249 C 0.78125 0.14315 0.71654 0.0
O250 O 0.78128 0.14902 0.68764 0.0
N251 N 0.82009 0.0744 0.65326 0.0
C252 C 0.82905 0.05341 0.59439 0.0
C253 C 0.83031 0.02946 0.61785 0.0
C254 C 0.82538 0.04045 0.64727 0.0
C255 C 0.8184 0.09786 0.63084 0.0
C256 C 0.82281 0.08798 0.6013 0.0
H257 H 0.82548 0.02166 0.66498 0.0
H258 H 0.81325 0.12447 0.63603 0.0
H259 H 0.8495 0.16471 0.71198 0.0
H260 H 0.93626 0.11952 0.67232 0.0
H261 H 0.69236 0.04768 0.67106 0.0
H262 H 0.8349 1.0025 0.61356 0.0
H263 H 0.82041 0.10726 0.58402 0.0
C264 C 0.46993 0.8018 0.82304 0.0
C265 C 0.45085 0.77277 0.81811 0.0
N266 N 0.47021 0.75018 0.80282 0.0
N267 N 0.50127 0.7979 0.81086 0.0
C268 C 0.50082 0.76598 0.79881 0.0
H269 H 0.46154 0.82437 0.83501 0.0
Co270 Co 0.53404 0.83291 0.81226 0.0
C271 C 0.60116 0.80249 0.79556 0.0
O272 O 0.61495 0.8242 0.81446 0.0
N273 N 0.56616 0.86998 0.81323 0.0
C274 C 0.59843 0.91509 0.82529 0.0
C275 C 0.57677 0.89013 0.83598 0.0
C276 C 0.58157 0.88385 0.78887 0.0
N277 N 0.60159 0.91118 0.79556 0.0
O278 O 0.51501 0.85209 0.77622 0.0
H279 H 0.56921 0.88779 0.85899 0.0
H280 H 0.57834 0.87366 0.7666 0.0
O281 O 0.56848 0.80301 0.79129 0.0
C282 C 0.49414 0.87502 0.78582 0.0
O283 O 0.49241 0.88003 0.81477 0.0
N284 N 0.54776 0.81626 0.84969 0.0
C285 C 0.55228 0.79392 0.90882 0.0
C286 C 0.5659 0.77403 0.88553 0.0
C287 C 0.56274 0.78534 0.85598 0.0
C288 C 0.53302 0.83486 0.87194 0.0
C289 C 0.53579 0.8248 0.90159 0.0
H290 H 0.5707 0.76827 0.83839 0.0
H291 H 0.51844 0.85764 0.86654 0.0
H292 H 0.52226 0.75463 0.78712 0.0
H293 H 0.42496 0.76828 0.82586 0.0
H294 H 0.61016 0.93513 0.8385 0.0
H295 H 0.57767 0.74937 0.88995 0.0
H296 H 0.52481 0.84113 0.91864 0.0
C297 C 0.3442 0.47969 0.8398 0.0
C298 C 0.36856 0.45487 0.83462 0.0
N299 N 0.38029 0.45849 0.80651 0.0
N300 N 0.34077 0.49956 0.81532 0.0
C301 C 0.36226 0.4852 0.79507 0.0
H302 H 0.33039 0.48348 0.86046 0.0
Co303 Co 0.31085 0.53775 0.81197 0.0
C304 C 0.37762 0.57055 0.78681 0.0
O305 O 0.39935 0.54583 0.79305 0.0
N306 N 0.28098 0.57642 0.80798 0.0
C307 C 0.26451 0.63121 0.80798 0.0
C308 C 0.28847 0.6082 0.8181 0.0
C309 C 0.25206 0.58109 0.79153 0.0
N310 N 0.24148 0.61434 0.79105 0.0
O311 O 0.29305 0.51891 0.77551 0.0
H312 H 0.31117 0.61479 0.83073 0.0
H313 H 0.23967 0.56074 0.77923 0.0
O314 O 0.34569 0.56686 0.79264 0.0
C315 C 0.27064 0.49766 0.78545 0.0
O316 O 0.26696 0.49508 0.81453 0.0
N317 N 0.32438 0.55281 0.84997 0.0
C318 C 0.3359 0.56308 0.91066 0.0
C319 C 0.3633 0.56374 0.89041 0.0
C320 C 0.35697 0.55862 0.85996 0.0
C321 C 0.29761 0.55211 0.86946 0.0
C322 C 0.3027 0.55766 0.89978 0.0
H323 H 0.37844 0.55746 0.84498 0.0
H324 H 0.27215 0.54608 0.86147 0.0
H325 H 0.3651 0.49462 0.77248 0.0
H326 H 0.37793 0.43651 0.85082 0.0
H327 H 0.2654 0.65867 0.81145 0.0
H328 H 0.38936 0.56746 0.89812 0.0
H329 H 0.28096 0.55614 0.91476 0.0
C330 C 0.65944 0.32625 0.82319 0.0
C331 C 0.67911 0.35509 0.81903 0.0
N332 N 0.65884 0.38036 0.8085 0.0
N333 N 0.6268 0.33297 0.81523 0.0
C334 C 0.62712 0.36635 0.80671 0.0
H335 H 0.66846 0.30176 0.83137 0.0
Co336 Co 0.59253 0.29929 0.81557 0.0
C337 C 0.54797 0.34813 0.77427 0.0
O338 O 0.5668 0.35768 0.75145 0.0
N339 N 0.55818 0.26522 0.81532 0.0
C340 C 0.52154 0.22325 0.8262 0.0
C341 C 0.54522 0.24602 0.8377 0.0
C342 C 0.54207 0.25357 0.79056 0.0
N343 N 0.51974 0.22791 0.79644 0.0
O344 O 0.61242 0.27961 0.78018 0.0
H345 H 0.5529 0.24774 0.86081 0.0
H346 H 0.54691 0.26368 0.76846 0.0
O347 O 0.56058 0.32841 0.79419 0.0
C348 C 0.631 0.25481 0.78981 0.0
O349 O 0.6291 0.24705 0.8183 0.0
N350 N 0.57723 0.31608 0.85217 0.0
C351 C 0.5665 0.33595 0.91121 0.0
C352 C 0.54758 0.35104 0.88793 0.0
C353 C 0.5536 0.34096 0.85834 0.0
C354 C 0.59583 0.3014 0.87448 0.0
C355 C 0.59081 0.31077 0.90407 0.0
H356 H 0.53971 0.3536 0.84072 0.0
H357 H 0.6148 0.28212 0.86913 0.0
H358 H 0.60475 0.38009 0.79899 0.0
H359 H 0.70623 0.35733 0.82378 0.0
H360 H 0.50768 0.20394 0.83868 0.0
H361 H 0.52876 0.37081 0.89249 0.0
H362 H 0.60557 0.29795 0.92125 0.0
C363 C 0.784 0.64754 0.84297 0.0
C364 C 0.76135 0.67396 0.83815 0.0
N365 N 0.7511 0.67269 0.80957 0.0
N366 N 0.78785 0.62911 0.81764 0.0
C367 C 0.76813 0.64591 0.7973 0.0
H368 H 0.79726 0.64243 0.86369 0.0
Co369 Co 0.81824 0.59108 0.8142 0.0
C370 C 0.75266 0.55916 0.78708 0.0
O371 O 0.7315 0.58486 0.79148 0.0
N372 N 0.84883 0.55274 0.81038 0.0
C373 C 0.86837 0.49904 0.81424 0.0
C374 C 0.84251 0.52124 0.82187 0.0
C375 C 0.87857 0.54843 0.79488 0.0
N376 N 0.89102 0.51602 0.79719 0.0
O377 O 0.83632 0.61053 0.77819 0.0
H378 H 0.8199 0.51432 0.83445 0.0
H379 H 0.89075 0.56834 0.78185 0.0
O380 O 0.7843 0.56208 0.79415 0.0
C381 C 0.85856 0.63174 0.78841 0.0
O382 O 0.86256 0.63349 0.81751 0.0
N383 N 0.80378 0.57522 0.85177 0.0
C384 C 0.78939 0.56407 0.91184 0.0
C385 C 0.76299 0.56365 0.89064 0.0
C386 C 0.77076 0.56914 0.86053 0.0
C387 C 0.82963 0.57569 0.87224 0.0
C388 C 0.8231 0.56962 0.90229 0.0
H389 H 0.74997 0.57057 0.84483 0.0
H390 H 0.85542 0.58192 0.86524 0.0
H391 H 0.7666 0.63895 0.77396 0.0
H392 H 0.75336 0.69306 0.85426 0.0
H393 H 0.86977 0.47203 0.81981 0.0
H394 H 0.73659 0.55988 0.89738 0.0
H395 H 0.84406 0.57084 0.91812 0.0
C396 C 0.47388 0.32299 0.17864 0.0
C397 C 0.45241 0.3505 0.18276 0.0
N398 N 0.47119 0.3774 0.19219 0.0
N399 N 0.50627 0.33206 0.18549 0.0
C400 C 0.50392 0.36559 0.19337 0.0
H401 H 0.46626 0.29786 0.17091 0.0
Co402 Co 0.54272 0.30056 0.18364 0.0
C403 C 0.58621 0.35201 0.22399 0.0
O404 O 0.56716 0.3626 0.24633 0.0
N405 N 0.57896 0.26861 0.18232 0.0
C406 C 0.61635 0.22788 0.17005 0.0
C407 C 0.59201 0.2505 0.15935 0.0
C408 C 0.59581 0.25663 0.20658 0.0
N409 N 0.61863 0.23158 0.19994 0.0
O410 O 0.5255 0.2785 0.21915 0.0
H411 H 0.58383 0.2528 0.13639 0.0
H412 H 0.59021 0.26533 0.22896 0.0
O413 O 0.57376 0.33118 0.20484 0.0
C414 C 0.50845 0.25275 0.20929 0.0
O415 O 0.5088 0.24698 0.18039 0.0
N416 N 0.55571 0.31905 0.14699 0.0
C417 C 0.56532 0.3388 0.08775 0.0
C418 C 0.5851 0.35347 0.11068 0.0
C419 C 0.5797 0.34339 0.14037 0.0
C420 C 0.53615 0.30494 0.12505 0.0
C421 C 0.54053 0.31433 0.09538 0.0
H422 H 0.59472 0.35522 0.15768 0.0
H423 H 0.51719 0.2858 0.13071 0.0
H424 H 0.52564 0.38103 0.19993 0.0
H425 H 0.42511 0.35078 0.17846 0.0
H426 H 0.63081 0.20983 0.15671 0.0
H427 H 0.60439 0.37262 0.10575 0.0
H428 H 0.52515 0.30175 0.07849 0.0
C429 C 0.7949 0.47966 0.16219 0.0
C430 C 0.77025 0.45511 0.16713 0.0
N431 N 0.75688 0.45992 0.19454 0.0
N432 N 0.79695 0.50068 0.18604 0.0
C433 C 0.77437 0.4871 0.20585 0.0
H434 H 0.8098 0.48254 0.142 0.0
Co435 Co 0.82658 0.5395 0.18851 0.0
C436 C 0.75867 0.5725 0.21062 0.0
O437 O 0.73781 0.54742 0.20346 0.0
N438 N 0.8563 0.57868 0.19144 0.0
C439 C 0.87467 0.63246 0.18532 0.0
C440 C 0.84936 0.60932 0.17855 0.0
C441 C 0.8859 0.58449 0.20681 0.0
N442 N 0.89767 0.61698 0.20314 0.0
O443 O 0.84395 0.52217 0.22573 0.0
H444 H 0.82676 0.61491 0.16544 0.0
H445 H 0.89855 0.56553 0.22059 0.0
O446 O 0.79101 0.56932 0.20633 0.0
C447 C 0.86752 0.50235 0.21545 0.0
O448 O 0.87211 0.50158 0.18639 0.0
N449 N 0.81401 0.55235 0.1496 0.0
C450 C 0.80499 0.55185 0.08789 0.0
C451 C 0.77681 0.55647 0.10698 0.0
C452 C 0.78187 0.55656 0.13799 0.0
C453 C 0.84167 0.54978 0.13119 0.0
C454 C 0.83783 0.55002 0.10042 0.0
H455 H 0.75977 0.55736 0.15227 0.0
H456 H 0.86692 0.54566 0.1405 0.0
H457 H 0.77023 0.49753 0.22793 0.0
H458 H 0.7618 0.43615 0.1511 0.0
H459 H 0.87549 0.65912 0.1785 0.0
H460 H 0.75098 0.55784 0.09817 0.0
H461 H 0.86042 0.54726 0.08657 0.0
C462 C 0.6503 0.79648 0.17536 0.0
C463 C 0.67238 0.77025 0.18224 0.0
N464 N 0.65513 0.74664 0.1981 0.0
N465 N 0.61857 0.78952 0.18585 0.0
C466 C 0.62293 0.7594 0.20078 0.0
H467 H 0.65732 0.8196 0.16355 0.0
Co468 Co 0.58252 0.82252 0.18138 0.0
C469 C 0.539 0.76318 0.20018 0.0
O470 O 0.55525 0.74332 0.18117 0.0
N471 N 0.54847 0.85656 0.17762 0.0
C472 C 0.51714 0.89954 0.15986 0.0
C473 C 0.54104 0.87485 0.15294 0.0
C474 C 0.52902 0.87091 0.19937 0.0
N475 N 0.50967 0.89743 0.18923 0.0
O476 O 0.59941 0.84487 0.21638 0.0
H477 H 0.5529 0.87106 0.13138 0.0
H478 H 0.53034 0.86295 0.22246 0.0
O479 O 0.54878 0.79436 0.20371 0.0
C480 C 0.61888 0.86897 0.20694 0.0
O481 O 0.62051 0.87435 0.17801 0.0
N482 N 0.56862 0.8033 0.14445 0.0
C483 C 0.55235 0.78642 0.08534 0.0
C484 C 0.52728 0.78511 0.10783 0.0
C485 C 0.53573 0.79454 0.13706 0.0
C486 C 0.59293 0.80526 0.12271 0.0
C487 C 0.58556 0.79664 0.09331 0.0
H488 H 0.5154 0.79646 0.15326 0.0
H489 H 0.6177 0.81598 0.12749 0.0
H490 H 0.60362 0.74747 0.21453 0.0
H491 H 0.69896 0.76844 0.1755 0.0
H492 H 0.5066 0.91794 0.14428 0.0
H493 H 0.50106 0.77811 0.10279 0.0
H494 H 0.60539 0.80012 0.07669 0.0
C495 C 0.32541 0.64622 0.16336 0.0
C496 C 0.34969 0.6711 0.16888 0.0
N497 N 0.36465 0.66425 0.1953 0.0
N498 N 0.32534 0.62328 0.18593 0.0
C499 C 0.34866 0.63578 0.20555 0.0
H500 H 0.30953 0.64438 0.14363 0.0
Co501 Co 0.29692 0.58393 0.18858 0.0
C502 C 0.36656 0.55159 0.20729 0.0
O503 O 0.38646 0.5769 0.19886 0.0
N504 N 0.26844 0.54407 0.19207 0.0
C505 C 0.25146 0.48972 0.1869 0.0
C506 C 0.27512 0.51384 0.1784 0.0
C507 C 0.24083 0.53705 0.20964 0.0
N508 N 0.22996 0.50419 0.20664 0.0
O509 O 0.28065 0.60062 0.22645 0.0
H510 H 0.29658 0.50912 0.16369 0.0
H511 H 0.22905 0.55537 0.22458 0.0
O512 O 0.3339 0.55441 0.20499 0.0
C513 C 0.25667 0.62037 0.21672 0.0
O514 O 0.25025 0.62011 0.18791 0.0
N515 N 0.30823 0.57209 0.14902 0.0
C516 C 0.31526 0.57264 0.087 0.0
C517 C 0.34411 0.56912 0.10549 0.0
C518 C 0.34006 0.56902 0.13656 0.0
C519 C 0.27993 0.57396 0.13124 0.0
C520 C 0.28279 0.57372 0.10033 0.0
H521 H 0.36267 0.56895 0.15011 0.0
H522 H 0.25488 0.57724 0.14115 0.0
H523 H 0.35472 0.62355 0.2266 0.0
H524 H 0.35724 0.69142 0.15377 0.0
H525 H 0.25081 0.46314 0.17989 0.0
H526 H 0.36972 0.56855 0.09618 0.0
H527 H 0.25969 0.57567 0.08702 0.0
H528 H 0.1041 0.30535 0.44272 0.0
H529 H 1.00964 0.24797 0.44514 0.0
H530 H 1.01119 0.24767 0.4997 0.0
H531 H 0.0363 0.26926 0.54672 0.0
H532 H 0.13024 0.32749 0.54356 0.0
H533 H 0.13222 0.32153 0.48943 0.0
C534 C 0.08434 0.29197 0.45513 0.0
C535 C 0.05671 0.27689 0.43988 0.0
C536 C 0.08508 0.29243 0.48645 0.0
C537 C 0.03102 0.26011 0.45639 0.0
C538 C 0.03187 0.25995 0.48759 0.0
C539 C 0.05748 0.28006 0.53417 0.0
C540 C 0.08275 0.29926 0.54903 0.0
C541 C 0.05826 0.2769 0.50288 0.0
C542 C 0.11008 0.31318 0.53252 0.0
C543 C 0.11131 0.30971 0.50158 0.0
H544 H 0.86084 0.08758 0.54918 0.0
H545 H 0.80393 0.99506 0.56812 0.0
H546 H 0.80256 0.98125 0.51507 0.0
H547 H 0.81235 0.99832 0.46318 0.0
H548 H 0.8636 0.09407 0.44412 0.0
H549 H 0.87249 0.10359 0.49735 0.0
C550 C 0.84803 0.06441 0.54175 0.0
C551 C 0.83212 0.04267 0.56268 0.0
C552 C 0.84614 0.0573 0.51114 0.0
C553 C 0.81661 1.01221 0.55265 0.0
C554 C 0.8155 1.00444 0.52224 0.0
C555 C 0.82531 0.02139 0.47062 0.0
C556 C 0.83681 0.04568 0.44961 0.0
C557 C 0.82932 0.0273 0.50128 0.0
C558 C 0.85459 0.07484 0.4597 0.0
C559 C 0.85946 0.08045 0.49018 0.0
H560 H 0.03082 0.86342 0.54647 0.0
H561 H 0.12681 0.81131 0.56229 0.0
H562 H 0.1389 0.81152 0.50885 0.0
H563 H 0.11913 0.82053 0.45746 0.0
H564 H 0.02167 0.8696 0.44137 0.0
H565 H 1.01325 0.87675 0.4951 0.0
C566 C 0.05453 0.85238 0.53821 0.0
C567 C 0.07771 0.83705 0.55829 0.0
C568 C 0.06086 0.85175 0.50742 0.0
C569 C 0.10863 0.82346 0.54737 0.0
C570 C 0.1154 0.82326 0.51677 0.0
C571 C 0.0961 0.8329 0.46575 0.0
C572 C 0.0708 0.84403 0.44556 0.0
C573 C 0.0912 0.83636 0.49658 0.0
C574 C 0.0415 0.86081 0.45649 0.0
C575 C 0.0366 0.86472 0.48719 0.0
H576 H 0.28768 1.01369 0.53791 0.0
H577 H 0.26327 0.12024 0.55305 0.0
H578 H 0.25731 0.12935 0.49925 0.0
H579 H 0.26546 0.1084 0.44792 0.0
H580 H 0.29253 1.00233 0.43314 0.0
H581 H 0.29041 0.99151 0.48673 0.0
C582 C 0.28081 0.03885 0.5294 0.0
C583 C 0.27644 0.06639 0.54934 0.0
C584 C 0.27798 0.04397 0.49852 0.0
C585 C 0.26677 0.09865 0.53813 0.0
C586 C 0.26358 0.10391 0.50738 0.0
C587 C 0.27059 0.08284 0.45643 0.0
C588 C 0.2795 0.05631 0.43654 0.0
C589 C 0.27012 0.07698 0.48736 0.0
C590 C 0.28539 0.02317 0.44787 0.0
C591 C 0.28452 0.01703 0.47856 0.0
H592 H 0.50384 0.80041 0.9522 0.0
H593 H 0.60628 0.76226 0.93684 0.0
H594 H 0.61291 0.75103 0.99015 0.0
H595 H 0.59224 0.75848 0.04143 0.0
H596 H 0.49268 0.80402 0.0566 0.0
H597 H 0.48214 0.80521 0.00315 0.0
C598 C 0.52772 0.78976 0.96046 0.0
C599 C 0.55478 0.78288 0.94053 0.0
C600 C 0.53187 0.78465 0.9912 0.0
C601 C 0.58501 0.76784 0.95158 0.0
C602 C 0.58892 0.76164 0.98213 0.0
C603 C 0.5682 0.76869 0.03312 0.0
C604 C 0.54356 0.78156 0.05325 0.0
C605 C 0.56293 0.77098 0.0022 0.0
C606 C 0.51211 0.79361 0.04193 0.0
C607 C 0.50617 0.79473 0.01122 0.0
H608 H 0.30174 0.60348 0.94947 0.0
H609 H 0.38192 0.52753 0.9448 0.0
H610 H 0.38422 0.52488 -0.00058 0.0
H611 H 0.35921 0.5403 0.04833 0.0
H612 H 0.27937 0.61707 0.052 0.0
H613 H 0.28079 0.6228 0.99801 0.0
C614 C 0.31997 0.58664 0.96048 0.0
C615 C 0.34143 0.56558 0.94328 0.0
C616 C 0.32076 0.58493 0.99169 0.0
C617 C 0.36527 0.54416 0.95767 0.0
C618 C 0.36635 0.54241 0.98885 0.0
C619 C 0.34247 0.55859 0.03735 0.0
C620 C 0.31862 0.57755 0.05422 0.0
C621 C 0.3436 0.56209 0.0061 0.0
C622 C 0.2972 0.60127 0.03956 0.0
C623 C 0.29817 0.60485 0.00866 0.0
H624 H 0.61441 0.34647 0.95436 0.0
H625 H 0.5051 0.34551 0.93949 0.0
H626 H 0.49517 0.35116 0.99312 0.0
H627 H 0.51752 0.34924 0.04437 0.0
H628 H 0.62681 0.34627 0.05922 0.0
H629 H 0.63679 0.3498 0.0055 0.0
C630 C 0.5884 0.34771 0.96285 0.0
C631 C 0.56052 0.34501 0.94299 0.0
C632 C 0.5829 0.35008 0.99373 0.0
C633 C 0.527 0.34756 0.95425 0.0
C634 C 0.52132 0.35052 0.98494 0.0
C635 C 0.54354 0.34961 0.03585 0.0
C636 C 0.57137 0.34698 0.05578 0.0
C637 C 0.54906 0.35068 0.00491 0.0
C638 C 0.60493 0.34837 0.04444 0.0
C639 C 0.61065 0.35007 0.01368 0.0
H640 H 0.76295 0.58636 0.04897 0.0
H641 H 0.83712 0.50421 0.05366 0.0
H642 H 0.83648 0.49875 -0.00037 0.0
H643 H 0.81905 0.52061 0.95082 0.0
H644 H 0.74437 0.60181 0.94497 0.0
H645 H 0.74023 0.60377 -0.00044 0.0
C646 C 0.77851 0.56694 0.03815 0.0
C647 C 0.80077 0.54643 0.05529 0.0
C648 C 0.77793 0.56373 0.00686 0.0
C649 C 0.82061 0.52115 0.04094 0.0
C650 C 0.82011 0.51779 0.01004 0.0
C651 C 0.80151 0.53834 0.96158 0.0
C652 C 0.78225 0.56117 0.94413 0.0
C653 C 0.79959 0.53952 0.99276 0.0
C654 C 0.75932 0.58388 0.9581 0.0
C655 C 0.75719 0.58518 0.98926 0.0
H656 H 0.09788 0.19646 0.29515 0.0
H657 H 0.13851 0.29704 0.27575 0.0
H658 H 0.19654 0.27293 0.27367 0.0
H659 H 0.23584 0.22418 0.2815 0.0
H660 H 0.19459 0.12471 0.30441 0.0
H661 H 0.13665 0.14757 0.30057 0.0
C662 C 0.1193 0.21321 0.29012 0.0
C663 C 0.1137 0.24868 0.28579 0.0
C664 C 0.15257 0.19936 0.28983 0.0
C665 C 0.14192 0.26972 0.2791 0.0
C666 C 0.17516 0.25593 0.27813 0.0
C667 C 0.21432 0.20739 0.28585 0.0
C668 C 0.22003 0.17265 0.29369 0.0
C669 C 0.18086 0.22094 0.28424 0.0
C670 C 0.1914 0.15137 0.29829 0.0
C671 C 0.1581 0.16452 0.29625 0.0
H672 H 0.84239 0.15261 0.33628 0.0
H673 H 0.87761 0.08615 0.26557 0.0
H674 H 0.92381 0.12713 0.25422 0.0
H675 H 0.95405 0.18199 0.26501 0.0
H676 H 0.91792 0.24625 0.33689 0.0
H677 H 0.87232 0.20537 0.34751 0.0
C678 C 0.85994 0.14686 0.3182 0.0
C679 C 0.85622 0.11633 0.30158 0.0
C680 C 0.88645 0.17005 0.31225 0.0
C681 C 0.87969 0.10948 0.27858 0.0
C682 C 0.90612 0.13289 0.27217 0.0
C683 C 0.93608 0.18709 0.2829 0.0
C684 C 0.93946 0.2173 0.30015 0.0
C685 C 0.90973 0.1633 0.28891 0.0
C686 C 0.91627 0.22317 0.32354 0.0
C687 C 0.89 0.19989 0.32947 0.0
H688 H 0.89825 0.89505 0.29837 0.0
H689 H 0.93366 0.99981 0.29772 0.0
H690 H 0.99209 0.98013 0.28728 0.0
H691 H 0.03396 0.93283 0.2836 0.0
H692 H 0.99824 0.82794 0.28566 0.0
H693 H 0.93921 0.84802 0.29006 0.0
C694 C 0.91873 0.9136 0.29585 0.0
C695 C 0.91159 0.94888 0.29928 0.0
C696 C 0.9523 0.90204 0.29019 0.0
C697 C 0.93833 0.97258 0.29517 0.0
C698 C 0.97182 0.96128 0.28938 0.0
C699 C 1.01328 0.91428 0.28447 0.0
C700 C 0.02083 0.8788 0.2846 0.0
C701 C 0.97925 0.92602 0.28754 0.0
C702 C 0.99345 0.85533 0.28565 0.0
C703 C 0.95959 0.86681 0.28833 0.0
H704 H 0.21701 0.01738 0.25 0.0
H705 H 0.30994 0.99035 0.29673 0.0
H706 H 0.2859 0.93455 0.30949 0.0
H707 H 0.23689 0.89512 0.31111 0.0
H708 H 0.14348 0.92134 0.26507 0.0
H709 H 0.1694 0.97506 0.24778 0.0
C710 C 0.23219 0.99906 0.26256 0.0
C711 C 0.26511 1.00846 0.27282 0.0
C712 C 0.21802 0.96677 0.27007 0.0
C713 C 0.28439 0.9842 0.28895 0.0
C714 C 0.27064 0.95217 0.29628 0.0
C715 C 0.22225 0.91247 0.29712 0.0
C716 C 0.18811 0.90424 0.2897 0.0
C717 C 0.2372 0.9435 0.28761 0.0
C718 C 0.16981 0.92681 0.27104 0.0
C719 C 0.18457 0.95773 0.26134 0.0
H720 H 0.22463 0.90951 0.7073 0.0
H721 H 0.18012 1.00836 0.68832 0.0
H722 H 0.12254 0.98443 0.69503 0.0
H723 H 0.08513 0.93376 0.69975 0.0
H724 H 0.12963 0.83468 0.71853 0.0
H725 H 0.18688 0.86036 0.71908 0.0
C726 C 0.20228 0.92586 0.70501 0.0
C727 C 0.20659 0.96059 0.69688 0.0
C728 C 0.1693 0.91181 0.70882 0.0
C729 C 0.17749 0.98165 0.69457 0.0
C730 C 0.14458 0.96787 0.69823 0.0
C731 C 0.10729 0.9179 0.70467 0.0
C732 C 0.10306 0.88224 0.70882 0.0
C733 C 0.14018 0.93277 0.70446 0.0
C734 C 0.13203 0.86215 0.7154 0.0
C735 C 0.16485 0.87679 0.71538 0.0
H736 H 0.1574 0.20255 0.69006 0.0
H737 H 0.23554 0.27778 0.70798 0.0
H738 H 0.2768 0.23241 0.71906 0.0
H739 H 0.29322 0.17215 0.71521 0.0
H740 H 0.21726 0.09553 0.69503 0.0
H741 H 0.1725 0.14001 0.69408 0.0
C742 C 0.18319 0.20878 0.69725 0.0
C743 C 0.19358 0.24349 0.69806 0.0
C744 C 0.20723 0.18222 0.70293 0.0
C745 C 0.22715 0.25131 0.70707 0.0
C746 C 0.25073 0.22536 0.71334 0.0
C747 C 0.26662 0.16501 0.7117 0.0
C748 C 0.2586 0.13062 0.70521 0.0
C749 C 0.24146 0.19081 0.71018 0.0
C750 C 0.2241 0.12173 0.70046 0.0
C751 C 0.19858 0.14733 0.69945 0.0
H752 H 0.96945 0.1551 0.69795 0.0
H753 H 0.8785 0.21635 0.71187 0.0
H754 H 0.91424 0.26618 0.7229 0.0
H755 H 0.97139 0.2936 0.72484 0.0
H756 H 0.06147 0.23291 0.70637 0.0
H757 H 0.02589 0.18173 0.70057 0.0
C758 C 0.95712 0.17926 0.70306 0.0
C759 C 0.92096 0.18163 0.70358 0.0
C760 C 0.97782 0.20809 0.70858 0.0
C761 C 0.90605 0.21334 0.71129 0.0
C762 C 0.92656 0.24203 0.71748 0.0
C763 C 0.98327 0.26903 0.72008 0.0
C764 C 0.01912 0.26702 0.71629 0.0
C765 C 0.96247 0.23985 0.71577 0.0
C766 C 0.03401 0.23513 0.70952 0.0
C767 C 1.01365 0.20589 0.70609 0.0
H768 H 0.89136 0.89358 0.70639 0.0
H769 H 0.99419 0.93116 0.71986 0.0
H770 H 0.9715 0.9873 0.73411 0.0
H771 H 0.92264 0.02762 0.73718 0.0
H772 H 0.82026 0.99027 0.72071 0.0
H773 H 0.84252 0.93235 0.71321 0.0
C774 C 0.90887 0.91396 0.71249 0.0
C775 C 0.94452 0.90808 0.71165 0.0
C776 C 0.89566 0.94642 0.72003 0.0
C777 C 0.96668 0.93474 0.7204 0.0
C778 C 0.95369 0.96701 0.72836 0.0
C779 C 0.90513 1.00664 0.73268 0.0
C780 C 0.8698 1.01332 0.72947 0.0
C781 C 0.91826 0.97341 0.72756 0.0
C782 C 0.84754 0.98587 0.72323 0.0
C783 C 0.86028 0.95274 0.71881 0.0
H784 H 0.66838 0.80476 0.78232 0.0
H785 H 0.58377 0.73427 0.78969 0.0
H786 H 0.62389 0.68577 0.79037 0.0
H787 H 0.68381 0.66464 0.79802 0.0
H788 H 0.76741 0.73623 0.79263 0.0
H789 H 0.72731 0.78301 0.7817 0.0
C790 C 0.65865 0.77869 0.78311 0.0
C791 C 0.62312 0.7732 0.78615 0.0
C792 C 0.68192 0.75112 0.78427 0.0
C793 C 0.6109 0.73929 0.78711 0.0
C794 C 0.63395 0.71153 0.7879 0.0
C795 C 0.69308 0.69031 0.79335 0.0
C796 C 0.72845 0.69716 0.79575 0.0
C797 C 0.66959 0.71725 0.78781 0.0
C798 C 0.74035 0.73053 0.79043 0.0
C799 C 0.71739 0.75722 0.78445 0.0
H800 H 0.40719 0.72937 0.78647 0.0
H801 H 0.51043 0.69346 0.80064 0.0
H802 H 0.4915 0.6341 0.79317 0.0
H803 H 0.44439 0.59226 0.78807 0.0
H804 H 0.34099 0.62878 0.77437 0.0
H805 H 0.36122 0.68795 0.77603 0.0
C806 C 0.42558 0.70855 0.78775 0.0
C807 C 0.4601 0.7158 0.79453 0.0
C808 C 0.41441 0.67455 0.78368 0.0
C809 C 0.48377 0.68861 0.79542 0.0
C810 C 0.47287 0.65465 0.79133 0.0
C811 C 0.4263 0.61309 0.78487 0.0
C812 C 0.39102 0.60587 0.78162 0.0
C813 C 0.43809 0.64725 0.78618 0.0
C814 C 0.36815 0.63339 0.77735 0.0
C815 C 0.37971 0.66733 0.77835 0.0
H816 H 0.52034 0.40781 0.75203 0.0
H817 H 0.4964 0.31998 0.80687 0.0
H818 H 0.44127 0.34531 0.81997 0.0
H819 H 0.40149 0.39408 0.81893 0.0
H820 H 0.42507 0.48261 0.765 0.0
H821 H 0.47797 0.45515 0.74802 0.0
C822 C 0.50283 0.39402 0.76649 0.0
C823 C 0.51283 0.36222 0.77879 0.0
C824 C 0.471 0.40893 0.7742 0.0
C825 C 0.48969 0.3447 0.79742 0.0
C826 C 0.45807 0.35916 0.80495 0.0
C827 C 0.41811 0.40737 0.80339 0.0
C828 C 0.40929 0.44059 0.79356 0.0
C829 C 0.44876 0.39159 0.79403 0.0
C830 C 0.43093 0.45702 0.77288 0.0
C831 C 0.46142 0.44138 0.76331 0.0
H832 H 0.68606 0.53829 0.79279 0.0
H833 H 0.78782 0.50041 0.77388 0.0
H834 H 0.76706 0.44146 0.77714 0.0
H835 H 0.72131 0.4007 0.78963 0.0
H836 H 0.62007 0.43823 0.81043 0.0
H837 H 0.6392 0.49716 0.80174 0.0
C838 C 0.70361 0.5172 0.78876 0.0
C839 C 0.73858 0.52394 0.78325 0.0
C840 C 0.69164 0.48321 0.79135 0.0
C841 C 0.76085 0.49611 0.77827 0.0
C842 C 0.74902 0.46232 0.78028 0.0
C843 C 0.7034 0.42174 0.79234 0.0
C844 C 0.66936 0.41495 0.80111 0.0
C845 C 0.71471 0.45558 0.78763 0.0
C846 C 0.64634 0.44258 0.80368 0.0
C847 C 0.65735 0.47635 0.79883 0.0
H848 H 0.61401 0.41188 0.24575 0.0
H849 H 0.63809 0.32341 0.19175 0.0
H850 H 0.69388 0.3479 0.17959 0.0
H851 H 0.73465 0.39579 0.1817 0.0
H852 H 0.71077 0.48509 0.2346 0.0
H853 H 0.65686 0.45868 0.25025 0.0
C854 C 0.63163 0.39778 0.23161 0.0
C855 C 0.62148 0.36597 0.21937 0.0
C856 C 0.66388 0.41221 0.22445 0.0
C857 C 0.64484 0.34811 0.20116 0.0
C858 C 0.67687 0.3621 0.19419 0.0
C859 C 0.71775 0.40955 0.19668 0.0
C860 C 0.72694 0.44266 0.20665 0.0
C861 C 0.68643 0.39441 0.20524 0.0
C862 C 0.70477 0.45959 0.22662 0.0
C863 C 0.67367 0.44455 0.23543 0.0
H864 H 0.69105 0.59086 0.21331 0.0
H865 H 0.79319 0.63293 0.21977 0.0
H866 H 0.7696 0.69094 0.21933 0.0
H867 H 0.72055 0.72978 0.21177 0.0
H868 H 0.61867 0.68783 0.20396 0.0
H869 H 0.64149 0.62993 0.21092 0.0
C870 C 0.70821 0.61265 0.21512 0.0
C871 C 0.74401 0.6073 0.2161 0.0
C872 C 0.69448 0.6461 0.21444 0.0
C873 C 0.76563 0.63605 0.21868 0.0
C874 C 0.75214 0.66934 0.21834 0.0
C875 C 0.70329 0.708 0.21178 0.0
C876 C 0.66792 0.71325 0.20693 0.0
C877 C 0.7167 0.67468 0.21531 0.0
C878 C 0.6459 0.6847 0.20773 0.0
C879 C 0.65902 0.65149 0.21148 0.0
H880 H 0.51845 0.69975 0.21715 0.0
H881 H 0.48084 0.80227 0.20176 0.0
H882 H 0.42186 0.78089 0.20105 0.0
H883 H 0.38192 0.73134 0.19717 0.0
H884 H 0.41962 0.62979 0.21635 0.0
H885 H 0.47731 0.65233 0.22359 0.0
C886 C 0.49724 0.71754 0.21461 0.0
C887 C 0.50404 0.75244 0.2092 0.0
C888 C 0.46337 0.70509 0.21442 0.0
C889 C 0.47633 0.77529 0.20607 0.0
C890 C 0.44257 0.76299 0.20532 0.0
C891 C 0.40269 0.71438 0.20359 0.0
C892 C 0.39656 0.67882 0.20569 0.0
C893 C 0.4359 0.72772 0.20826 0.0
C894 C 0.42358 0.65713 0.21442 0.0
C895 C 0.45669 0.67003 0.21845 0.0
H896 H 0.40715 0.39479 0.20984 0.0
H897 H 0.50631 0.4375 0.18892 0.0
H898 H 0.48335 0.49541 0.19531 0.0
H899 H 0.43407 0.53389 0.20245 0.0
H900 H 0.33426 0.49107 0.22113 0.0
H901 H 0.35861 0.43329 0.22005 0.0
C902 C 0.4238 0.41671 0.20656 0.0
C903 C 0.45842 0.41158 0.19846 0.0
C904 C 0.41026 0.44999 0.20983 0.0
C905 C 0.47969 0.44046 0.1952 0.0
C906 C 0.46648 0.47367 0.1987 0.0
C907 C 0.41762 0.51202 0.20673 0.0
C908 C 0.3822 0.51703 0.21165 0.0
C909 C 0.43166 0.47875 0.20544 0.0
C910 C 0.3615 0.48817 0.21719 0.0
C911 C 0.37541 0.45504 0.21643 0.0
H912 H 0.2148 0.50519 0.26565 0.0
H913 H 0.1837 0.46257 0.18127 0.0
H914 H 0.14083 0.42693 0.2062 0.0
H915 H 0.11382 0.40607 0.25198 0.0
H916 H 0.14671 0.44585 0.33718 0.0
H917 H 0.1867 0.4844 0.31211 0.0
C918 C 0.19818 0.48849 0.25282 0.0
C919 C 0.20226 0.48661 0.22162 0.0
C920 C 0.17406 0.46728 0.2675 0.0
C921 C 0.181 0.4644 0.20526 0.0
C922 C 0.15657 0.44396 0.21954 0.0
C923 C 0.12984 0.42283 0.26525 0.0
C924 C 0.12703 0.42261 0.29665 0.0
C925 C 0.15324 0.44472 0.25069 0.0
C926 C 0.14783 0.44538 0.31307 0.0
C927 C 0.17093 0.46747 0.29871 0.0
H928 H 0.69528 0.15921 0.30676 0.0
H929 H 0.71284 0.08266 0.23908 0.0
H930 H 0.68268 0.11809 0.20239 0.0
H931 H 0.64953 0.16988 0.19005 0.0
H932 H 0.6342 0.24756 0.25756 0.0
H933 H 0.66471 0.21244 0.29368 0.0
C934 C 0.69238 0.15025 0.284 0.0
C935 C 0.70616 0.11822 0.27575 0.0
C936 C 0.67517 0.17089 0.26296 0.0
C937 C 0.70272 0.10727 0.246 0.0
C938 C 0.68531 0.12748 0.22504 0.0
C939 C 0.6531 0.17951 0.21249 0.0
C940 C 0.63887 0.21145 0.22082 0.0
C941 C 0.67126 0.1593 0.23329 0.0
C942 C 0.64393 0.22295 0.25032 0.0
C943 C 0.66167 0.20289 0.27112 0.0
H944 H 0.91787 0.61416 0.26081 0.0
H945 H 0.94248 0.65865 0.17559 0.0
H946 H 0.9864 0.69472 0.19877 0.0
H947 H 1.0134 0.71844 0.24433 0.0
H948 H 0.98556 0.67706 0.32997 0.0
H949 H 0.94799 0.63496 0.30599 0.0
C950 C 0.93347 0.63117 0.24733 0.0
C951 C 0.92699 0.6337 0.21652 0.0
C952 C 0.958 0.65273 0.26106 0.0
C953 C 0.94697 0.65635 0.19935 0.0
C954 C 0.97203 0.67704 0.21262 0.0
C955 C 0.99973 0.69961 0.25757 0.0
C956 C 1.00234 0.70074 0.28887 0.0
C957 C 0.97719 0.67618 0.2436 0.0
C958 C 0.98392 0.67663 0.30585 0.0
C959 C 0.96235 0.65264 0.29214 0.0
H960 H 0.41909 1.01448 0.2462 0.0
H961 H 0.41665 0.9427 0.31935 0.0
H962 H 0.45148 0.9022 0.29069 0.0
H963 H 0.48301 0.88727 0.24479 0.0
H964 H 0.48684 0.96075 0.1726 0.0
H965 H 0.45073 0.99975 0.20061 0.0
C966 C 0.42584 0.98984 0.25576 0.0
C967 C 0.41516 0.98172 0.28493 0.0
C968 C 0.44617 0.96675 0.23923 0.0
C969 C 0.42475 0.94981 0.2971 0.0
C970 C 0.44459 0.92656 0.28065 0.0
C971 C 0.47623 0.91183 0.23514 0.0
C972 C 0.48786 0.92051 0.20626 0.0
C973 C 0.45566 0.9348 0.25171 0.0
C974 C 0.47815 0.95261 0.19436 0.0
C975 C 0.45752 0.97529 0.21053 0.0
H976 H 0.21184 0.67664 0.79961 0.0
H977 H 0.20893 0.58754 0.74236 0.0
H978 H 0.16611 0.6155 0.71101 0.0
H979 H 0.13104 0.66608 0.69857 0.0
H980 H 0.13681 0.75631 0.7543 0.0
H981 H 0.17703 0.72702 0.78722 0.0
C982 C 0.20221 0.66325 0.78018 0.0
C983 C 0.21422 0.62989 0.77349 0.0
C984 C 0.17802 0.6798 0.76177 0.0
C985 C 0.20034 0.61298 0.74848 0.0
C986 C 0.17591 0.62913 0.73029 0.0
C987 C 0.14121 0.67961 0.71771 0.0
C988 C 0.13064 0.71366 0.72365 0.0
C989 C 0.16487 0.66271 0.73649 0.0
C990 C 0.14391 0.73014 0.7491 0.0
C991 C 0.16717 0.71341 0.76796 0.0
H992 H 0.45488 0.14435 0.69066 0.0
H993 H 0.37654 0.12647 0.75701 0.0
H994 H 0.40875 0.16035 0.79295 0.0
H995 H 0.4591 0.19582 0.80578 0.0
H996 H 0.5362 0.21484 0.73883 0.0
H997 H 0.50404 0.18063 0.7029 0.0
C998 C 0.44443 0.14797 0.71279 0.0
C999 C 0.41304 0.13239 0.72075 0.0
C1000 C 0.46287 0.16807 0.73341 0.0
C1001 C 0.40067 0.13742 0.74998 0.0
C1002 C 0.41905 0.15711 0.77067 0.0
C1003 C 0.46894 0.19235 0.78337 0.0
C1004 C 0.5001 0.20806 0.77513 0.0
C1005 C 0.45022 0.17254 0.76267 0.0
C1006 C 0.51215 0.20357 0.7458 0.0
C1007 C 0.49385 0.18375 0.72523 0.0
H1008 H 1.00888 0.41886 0.7531 0.0
H1009 H 0.97303 0.45519 0.66793 0.0
H1010 H 0.93507 0.49641 0.69262 0.0
H1011 H 0.90726 0.51779 0.73871 0.0
H1012 H 0.93958 0.47786 0.82367 0.0
H1013 H 0.98375 0.443 0.79929 0.0
C1014 C 0.99331 0.4364 0.74007 0.0
C1015 C 0.99381 0.43407 0.70873 0.0
C1016 C 0.97062 0.45929 0.75452 0.0
C1017 C 0.97299 0.45649 0.69206 0.0
C1018 C 0.95123 0.48001 0.70619 0.0
C1019 C 0.92462 0.5021 0.7518 0.0
C1020 C 0.92043 0.50056 0.78294 0.0
C1021 C 0.94913 0.48108 0.73743 0.0
C1022 C 0.94252 0.4795 0.79968 0.0
C1023 C 0.96764 0.45947 0.78572 0.0
H1024 H 0.65549 0.95175 0.80978 0.0
H1025 H 0.5933 0.91867 0.73549 0.0
H1026 H 0.62656 0.95505 0.70192 0.0
H1027 H 0.67309 0.99696 0.69367 0.0
H1028 H 0.73294 0.03165 0.76894 0.0
H1029 H 0.70067 0.99415 0.80189 0.0
C1030 C 0.6488 0.95264 0.78635 0.0
C1031 C 0.62163 0.93233 0.77543 0.0
C1032 C 0.66774 0.97402 0.76718 0.0
C1033 C 0.61417 0.93355 0.7447 0.0
C1034 C 0.6331 0.95461 0.72543 0.0
C1035 C 0.67894 0.99661 0.71729 0.0
C1036 C 0.70577 0.01721 0.72854 0.0
C1037 C 0.65989 0.97509 0.73643 0.0
C1038 C 0.71303 0.01585 0.7593 0.0
C1039 C 0.69436 0.99448 0.77833 0.0
H1040 H 0.94761 0.71145 0.69328 0.0
H1041 H 0.98703 0.7593 0.77315 0.0
H1042 H 0.94804 0.7243 0.80343 0.0
H1043 H 0.90341 0.68023 0.80696 0.0
H1044 H 0.86392 0.63245 0.7271 0.0
H1045 H 0.90253 0.66783 0.69678 0.0
C1046 C 0.94785 0.71433 0.71734 0.0
C1047 C 0.97043 0.738 0.73096 0.0
C1048 C 0.92535 0.69427 0.73446 0.0
C1049 C 0.97007 0.74132 0.76212 0.0
C1050 C 0.94776 0.72132 0.77939 0.0
C1051 C 0.9031 0.67743 0.78289 0.0
C1052 C 0.88074 0.65355 0.7693 0.0
C1053 C 0.92536 0.69773 0.76576 0.0
C1054 C 0.88074 0.65057 0.73811 0.0
C1055 C 0.90288 0.67075 0.72083 0.0
H1056 H 0.40915 0.95632 0.68867 0.0
H1057 H 0.36276 0.99955 0.76768 0.0
H1058 H 0.39987 0.96343 0.79889 0.0
H1059 H 0.44548 0.92034 0.80342 0.0
H1060 H 0.49175 0.8771 0.72435 0.0
H1061 H 0.45428 0.91285 0.69318 0.0
C1062 C 0.40701 0.95801 0.71275 0.0
C1063 C 0.38313 0.98083 0.72584 0.0
C1064 C 0.42836 0.93724 0.73039 0.0
C1065 C 0.3808 0.98232 0.75704 0.0
C1066 C 0.40206 0.96169 0.77483 0.0
C1067 C 0.44754 0.91862 0.77934 0.0
C1068 C 0.47161 0.89601 0.76622 0.0
C1069 C 0.42595 0.93917 0.7617 0.0
C1070 C 0.47358 0.89417 0.73501 0.0
C1071 C 0.45216 0.91464 0.71724 0.0
H1072 H 0.17328 0.42832 0.69037 0.0
H1073 H 0.13693 0.37562 0.76903 0.0
H1074 H 0.1791 0.40676 0.79936 0.0
H1075 H 0.22572 0.44881 0.80324 0.0
H1076 H 0.26206 0.5013 0.72447 0.0
H1077 H 0.22029 0.46972 0.69413 0.0
C1078 C 0.17433 0.42358 0.7142 0.0
C1079 C 0.15168 0.39968 0.72746 0.0
C1080 C 0.19872 0.44132 0.73129 0.0
C1081 C 0.15383 0.39388 0.75829 0.0
C1082 C 0.178 0.41164 0.77557 0.0
C1083 C 0.22468 0.45342 0.77939 0.0
C1084 C 0.24709 0.47755 0.76613 0.0
C1085 C 0.20053 0.43538 0.76226 0.0
C1086 C 0.24531 0.4829 0.73522 0.0
C1087 C 0.22133 0.46493 0.71794 0.0
H1088 H 0.67439 0.20459 0.80782 0.0
H1089 H 0.64713 0.26511 0.73059 0.0
H1090 H 0.69275 0.23698 0.70194 0.0
H1091 H 0.73986 0.19533 0.69902 0.0
H1092 H 0.76659 0.1344 0.77615 0.0
H1093 H 0.72177 0.16339 0.80504 0.0
C1094 C 0.6782 0.21169 0.78466 0.0
C1095 C 0.65713 0.23695 0.77132 0.0
C1096 C 0.70459 0.19566 0.76852 0.0
C1097 C 0.66274 0.24571 0.74135 0.0
C1098 C 0.68893 0.22972 0.72505 0.0
C1099 C 0.73617 0.18843 0.72224 0.0
C1100 C 0.75677 0.16267 0.73544 0.0
C1101 C 0.71003 0.20476 0.73846 0.0
C1102 C 0.75139 0.1542 0.7655 0.0
C1103 C 0.7256 0.17063 0.78193 0.0
H1104 H 0.94653 0.40701 0.30665 0.0
H1105 H 1.00189 0.38049 0.22643 0.0
H1106 H 0.96726 0.42185 0.19821 0.0
H1107 H 0.92081 0.46392 0.1963 0.0
H1108 H 0.86469 0.49012 0.27619 0.0
H1109 H 0.90068 0.45022 0.30491 0.0
C1110 C 0.9512 0.41017 0.28296 0.0
C1111 C 0.97681 0.39043 0.26861 0.0
C1112 C 0.93115 0.43385 0.26699 0.0
C1113 C 0.98242 0.39519 0.23798 0.0
C1114 C 0.96259 0.41883 0.2219 0.0
C1115 C 0.91629 0.46112 0.22005 0.0
C1116 C 0.88982 0.48 0.23408 0.0
C1117 C 0.93681 0.43807 0.23618 0.0
C1118 C 0.88476 0.476 0.26486 0.0
C1119 C 0.90529 0.45313 0.2812 0.0
H1120 H 0.66515 0.91734 0.19046 0.0
H1121 H 0.62422 0.86568 0.26795 0.0
H1122 H 0.66387 0.89764 0.29988 0.0
H1123 H 0.71002 0.93932 0.30555 0.0
H1124 H 0.75149 0.99119 0.22842 0.0
H1125 H 0.7116 0.95946 0.19623 0.0
C1126 C 0.6647 0.91308 0.21436 0.0
C1127 C 0.64159 0.88911 0.22684 0.0
C1128 C 0.68773 0.93131 0.23247 0.0
C1129 C 0.64159 0.88395 0.25781 0.0
C1130 C 0.66432 0.90216 0.27602 0.0
C1131 C 0.71051 0.94384 0.28167 0.0
C1132 C 0.73383 0.96768 0.26937 0.0
C1133 C 0.68753 0.92574 0.26354 0.0
C1134 C 0.73397 0.97295 0.23841 0.0
C1135 C 0.71109 0.9549 0.22009 0.0
H1136 H 0.18266 0.71793 0.3094 0.0
H1137 H 0.13142 0.75164 0.22907 0.0
H1138 H 0.16502 0.71025 0.19999 0.0
H1139 H 0.20809 0.66477 0.19766 0.0
H1140 H 0.25975 0.63093 0.27774 0.0
H1141 H 0.22623 0.67242 0.30698 0.0
C1142 C 0.17872 0.71638 0.28549 0.0
C1143 C 0.15438 0.73799 0.27141 0.0
C1144 C 0.19801 0.6925 0.26905 0.0
C1145 C 0.1499 0.7355 0.24044 0.0
C1146 C 0.16907 0.71177 0.22388 0.0
C1147 C 0.21217 0.66621 0.22156 0.0
C1148 C 0.2365 0.64451 0.23553 0.0
C1149 C 0.19305 0.69014 0.238 0.0
C1150 C 0.24125 0.64712 0.26646 0.0
C1151 C 0.22211 0.67089 0.2831 0.0
H1152 H 0.42717 0.165 0.30456 0.0
H1153 H 0.38322 0.12201 0.2244 0.0
H1154 H 0.41948 0.15981 0.19412 0.0
H1155 H 0.46289 0.20504 0.19065 0.0
H1156 H 0.50575 0.24931 0.27071 0.0
H1157 H 0.47025 0.21077 0.30106 0.0
C1158 C 0.42553 0.16365 0.28043 0.0
C1159 C 0.40253 0.14044 0.26673 0.0
C1160 C 0.4461 0.18572 0.26329 0.0
C1161 C 0.40066 0.13947 0.23549 0.0
C1162 C 0.42138 0.16111 0.21822 0.0
C1163 C 0.46468 0.20633 0.21477 0.0
C1164 C 0.48718 0.23004 0.22841 0.0
C1165 C 0.44408 0.18434 0.23192 0.0
C1166 C 0.48874 0.2314 0.25966 0.0
C1167 C 0.46847 0.20932 0.27696 0.0
loop_
_geom_bond_atom_site_label_1
_geom_bond_atom_site_label_2
_geom_bond_distance
_geom_bond_site_symmetry_2
_ccdc_geom_bond_type
C0 C1 1.351 . S
C0 N3 1.368 . S
C0 H5 0.931 . S
C1 C0 1.351 . S
C1 N2 1.373 . S
C1 H29 0.930 . S
N2 C1 1.373 . S
N2 C4 1.340 . S
N3 C0 1.368 . S
N3 C4 1.321 . S
N3 Co6 2.135 1_655 S
C4 N2 1.340 . S
C4 N3 1.321 . S
C4 H28 0.930 1_655 S
H5 C0 0.931 . S
Co6 N3 2.135 1_455 S
Co6 N9 2.121 . S
Co6 O14 2.055 . S
Co6 O17 2.039 . S
Co6 N20 2.140 . S
C7 O8 1.227 . S
C7 O17 1.265 . S
O8 C7 1.227 . S
N9 Co6 2.121 . S
N9 C11 1.375 . S
N9 C12 1.313 . S
C10 C11 1.338 . S
C10 N13 1.377 . S
C10 H30 0.930 . S
C11 N9 1.375 . S
C11 C10 1.338 . S
C11 H15 0.931 . S
C12 N9 1.313 . S
C12 N13 1.344 . S
C12 H16 0.930 . S
N13 C10 1.377 . S
N13 C12 1.344 . S
O14 Co6 2.055 . S
O14 C18 1.253 1_455 S
H15 C11 0.931 . S
H16 C12 0.930 . S
O17 Co6 2.039 . S
O17 C7 1.265 . S
C18 O14 1.253 1_655 S
C18 O19 1.227 . S
O19 C18 1.227 . S
N20 Co6 2.140 . S
N20 C23 1.346 . S
N20 C24 1.345 . S
C21 C22 1.387 . S
C21 C25 1.391 . S
C22 C21 1.387 . S
C22 C23 1.369 . S
C22 H31 0.929 . S
C23 N20 1.346 . S
C23 C22 1.369 . S
C23 H26 0.928 . S
C24 N20 1.345 . S
C24 C25 1.371 . S
C24 H27 0.931 . S
C25 C21 1.391 . S
C25 C24 1.371 . S
C25 H32 0.930 . S
H26 C23 0.928 . S
H27 C24 0.931 . S
H28 C4 0.930 1_455 S
H29 C1 0.930 . S
H30 C10 0.930 . S
H31 C22 0.929 . S
H32 C25 0.930 . S
C33 C34 1.351 . S
C33 N36 1.368 . S
C33 H38 0.931 . S
C34 C33 1.351 . S
C34 N35 1.373 . S
C34 H62 0.930 . S
N35 C34 1.373 . S
N35 C37 1.340 . S
N36 C33 1.368 . S
N36 C37 1.321 . S
N36 Co39 2.135 1_565 S
C37 N35 1.340 . S
C37 N36 1.321 . S
C37 H61 0.930 1_565 S
H38 C33 0.931 . S
Co39 N36 2.135 1_545 S
Co39 N42 2.121 . S
Co39 O47 2.055 . S
Co39 O50 2.039 . S
Co39 N53 2.140 . S
C40 O41 1.227 . S
C40 O50 1.265 . S
O41 C40 1.227 . S
N42 Co39 2.121 . S
N42 C44 1.375 . S
N42 C45 1.313 . S
C43 C44 1.338 . S
C43 N46 1.377 . S
C43 H63 0.930 . S
C44 N42 1.375 . S
C44 C43 1.338 . S
C44 H48 0.931 . S
C45 N42 1.313 . S
C45 N46 1.344 . S
C45 H49 0.930 . S
N46 C43 1.377 . S
N46 C45 1.344 . S
O47 Co39 2.055 . S
O47 C51 1.253 1_545 S
H48 C44 0.931 . S
H49 C45 0.930 . S
O50 Co39 2.039 . S
O50 C40 1.265 . S
C51 O47 1.253 1_565 S
C51 O52 1.227 . S
O52 C51 1.227 . S
N53 Co39 2.140 . S
N53 C56 1.346 . S
N53 C57 1.345 . S
C54 C55 1.387 . S
C54 C58 1.391 . S
C55 C54 1.387 . S
C55 C56 1.369 . S
C55 H64 0.929 . S
C56 N53 1.346 . S
C56 C55 1.369 . S
C56 H59 0.928 . S
C57 N53 1.345 . S
C57 C58 1.371 . S
C57 H60 0.931 . S
C58 C54 1.391 . S
C58 C57 1.371 . S
C58 H65 0.930 . S
H59 C56 0.928 . S
H60 C57 0.931 . S
H61 C37 0.930 1_545 S
H62 C34 0.930 . S
H63 C43 0.930 . S
H64 C55 0.929 . S
H65 C58 0.930 . S
C66 C67 1.351 . S
C66 N69 1.368 . S
C66 H71 0.931 . S
C67 C66 1.351 . S
C67 N68 1.373 . S
C67 H95 0.930 . S
N68 C67 1.373 . S
N68 C70 1.340 . S
N69 C66 1.368 . S
N69 C70 1.321 . S
N69 Co72 2.135 . S
C70 N68 1.340 . S
C70 N69 1.321 . S
C70 H94 0.930 . S
H71 C66 0.931 . S
Co72 N69 2.135 . S
Co72 N75 2.121 . S
Co72 O80 2.055 . S
Co72 O83 2.039 . S
Co72 N86 2.140 . S
C73 O74 1.227 . S
C73 O83 1.265 . S
O74 C73 1.227 . S
N75 Co72 2.121 . S
N75 C77 1.375 1_455 S
N75 C78 1.313 . S
C76 C77 1.338 . S
C76 N79 1.377 . S
C76 H96 0.930 . S
C77 N75 1.375 1_655 S
C77 C76 1.338 . S
C77 H81 0.931 . S
C78 N75 1.313 . S
C78 N79 1.344 1_455 S
C78 H82 0.930 . S
N79 C76 1.377 . S
N79 C78 1.344 1_655 S
O80 Co72 2.055 . S
O80 C84 1.253 . S
H81 C77 0.931 . S
H82 C78 0.930 . S
O83 Co72 2.039 . S
O83 C73 1.265 . S
C84 O80 1.253 . S
C84 O85 1.227 . S
O85 C84 1.227 . S
N86 Co72 2.140 . S
N86 C89 1.346 . S
N86 C90 1.345 . S
C87 C88 1.387 . S
C87 C91 1.391 . S
C88 C87 1.387 . S
C88 C89 1.369 . S
C88 H97 0.929 . S
C89 N86 1.346 . S
C89 C88 1.369 . S
C89 H92 0.928 . S
C90 N86 1.345 . S
C90 C91 1.371 . S
C90 H93 0.931 . S
C91 C87 1.391 . S
C91 C90 1.371 . S
C91 H98 0.930 . S
H92 C89 0.928 . S
H93 C90 0.931 . S
H94 C70 0.930 . S
H95 C67 0.930 . S
H96 C76 0.930 . S
H97 C88 0.929 . S
H98 C91 0.930 . S
C99 C100 1.351 . S
C99 N102 1.368 . S
C99 H104 0.931 . S
C100 C99 1.351 . S
C100 N101 1.373 . S
C100 H128 0.930 . S
N101 C100 1.373 . S
N101 C103 1.340 . S
N102 C99 1.368 . S
N102 C103 1.321 . S
N102 Co105 2.135 . S
C103 N101 1.340 . S
C103 N102 1.321 . S
C103 H127 0.930 . S
H104 C99 0.931 . S
Co105 N102 2.135 . S
Co105 N108 2.121 . S
Co105 O113 2.055 . S
Co105 O116 2.039 . S
Co105 N119 2.140 . S
C106 O107 1.227 . S
C106 O116 1.265 . S
O107 C106 1.227 . S
N108 Co105 2.121 . S
N108 C110 1.375 1_545 S
N108 C111 1.313 . S
C109 C110 1.338 . S
C109 N112 1.377 . S
C109 H129 0.930 . S
C110 N108 1.375 1_565 S
C110 C109 1.338 . S
C110 H114 0.931 . S
C111 N108 1.313 . S
C111 N112 1.344 1_545 S
C111 H115 0.930 . S
N112 C109 1.377 . S
N112 C111 1.344 1_565 S
O113 Co105 2.055 . S
O113 C117 1.253 . S
H114 C110 0.931 . S
H115 C111 0.930 . S
O116 Co105 2.039 . S
O116 C106 1.265 . S
C117 O113 1.253 . S
C117 O118 1.227 . S
O118 C117 1.227 . S
N119 Co105 2.140 . S
N119 C122 1.346 . S
N119 C123 1.345 . S
C120 C121 1.387 . S
C120 C124 1.391 . S
C121 C120 1.387 . S
C121 C122 1.369 . S
C121 H130 0.929 . S
C122 N119 1.346 . S
C122 C121 1.369 . S
C122 H125 0.928 . S
C123 N119 1.345 . S
C123 C124 1.371 . S
C123 H126 0.931 . S
C124 C120 1.391 . S
C124 C123 1.371 . S
C124 H131 0.930 . S
H125 C122 0.928 . S
H126 C123 0.931 . S
H127 C103 0.930 . S
H128 C100 0.930 . S
H129 C109 0.930 . S
H130 C121 0.929 . S
H131 C124 0.930 . S
C132 C133 1.351 . S
C132 N135 1.368 . S
C132 H137 0.931 . S
C133 C132 1.351 . S
C133 N134 1.373 . S
C133 H161 0.930 . S
N134 C133 1.373 . S
N134 C136 1.340 . S
N135 C132 1.368 . S
N135 C136 1.321 . S
N135 Co138 2.135 1_655 S
C136 N134 1.340 . S
C136 N135 1.321 . S
C136 H160 0.930 1_655 S
H137 C132 0.931 . S
Co138 N135 2.135 1_455 S
Co138 N141 2.121 . S
Co138 O146 2.055 . S
Co138 O149 2.039 . S
Co138 N152 2.140 . S
C139 O140 1.227 . S
C139 O149 1.265 . S
O140 C139 1.227 . S
N141 Co138 2.121 . S
N141 C143 1.375 . S
N141 C144 1.313 . S
C142 C143 1.338 . S
C142 N145 1.377 . S
C142 H162 0.930 . S
C143 N141 1.375 . S
C143 C142 1.338 . S
C143 H147 0.931 . S
C144 N141 1.313 . S
C144 N145 1.344 . S
C144 H148 0.930 . S
N145 C142 1.377 . S
N145 C144 1.344 . S
O146 Co138 2.055 . S
O146 C150 1.253 1_455 S
H147 C143 0.931 . S
H148 C144 0.930 . S
O149 Co138 2.039 . S
O149 C139 1.265 . S
C150 O146 1.253 1_655 S
C150 O151 1.227 . S
O151 C150 1.227 . S
N152 Co138 2.140 . S
N152 C155 1.346 . S
N152 C156 1.345 . S
C153 C154 1.387 . S
C153 C157 1.391 . S
C154 C153 1.387 . S
C154 C155 1.369 . S
C154 H163 0.929 . S
C155 N152 1.346 . S
C155 C154 1.369 . S
C155 H158 0.928 . S
C156 N152 1.345 . S
C156 C157 1.371 . S
C156 H159 0.931 . S
C157 C153 1.391 . S
C157 C156 1.371 . S
C157 H164 0.930 . S
H158 C155 0.928 . S
H159 C156 0.931 . S
H160 C136 0.930 1_455 S
H161 C133 0.930 . S
H162 C142 0.930 . S
H163 C154 0.929 . S
H164 C157 0.930 . S
C165 C166 1.351 . S
C165 N168 1.368 . S
C165 H170 0.931 . S
C166 C165 1.351 . S
C166 N167 1.373 . S
C166 H194 0.930 . S
N167 C166 1.373 . S
N167 C169 1.340 . S
N168 C165 1.368 . S
N168 C169 1.321 . S
N168 Co171 2.135 1_565 S
C169 N167 1.340 . S
C169 N168 1.321 . S
C169 H193 0.930 1_565 S
H170 C165 0.931 . S
Co171 N168 2.135 1_545 S
Co171 N174 2.121 . S
Co171 O179 2.055 . S
Co171 O182 2.039 . S
Co171 N185 2.140 . S
C172 O173 1.227 . S
C172 O182 1.265 . S
O173 C172 1.227 . S
N174 Co171 2.121 . S
N174 C176 1.375 . S
N174 C177 1.313 . S
C175 C176 1.338 . S
C175 N178 1.377 . S
C175 H195 0.930 . S
C176 N174 1.375 . S
C176 C175 1.338 . S
C176 H180 0.931 . S
C177 N174 1.313 . S
C177 N178 1.344 . S
C177 H181 0.930 . S
N178 C175 1.377 . S
N178 C177 1.344 . S
O179 Co171 2.055 . S
O179 C183 1.253 1_545 S
H180 C176 0.931 . S
H181 C177 0.930 . S
O182 Co171 2.039 . S
O182 C172 1.265 . S
C183 O179 1.253 1_565 S
C183 O184 1.227 . S
O184 C183 1.227 . S
N185 Co171 2.140 . S
N185 C188 1.346 . S
N185 C189 1.345 . S
C186 C187 1.387 . S
C186 C190 1.391 . S
C187 C186 1.387 . S
C187 C188 1.369 . S
C187 H196 0.929 . S
C188 N185 1.346 . S
C188 C187 1.369 . S
C188 H191 0.928 . S
C189 N185 1.345 . S
C189 C190 1.371 . S
C189 H192 0.931 . S
C190 C186 1.391 . S
C190 C189 1.371 . S
C190 H197 0.930 . S
H191 C188 0.928 . S
H192 C189 0.931 . S
H193 C169 0.930 1_545 S
H194 C166 0.930 . S
H195 C175 0.930 . S
H196 C187 0.929 . S
H197 C190 0.930 . S
C198 C199 1.351 . S
C198 N201 1.368 . S
C198 H203 0.931 . S
C199 C198 1.351 . S
C199 N200 1.373 . S
C199 H227 0.930 . S
N200 C199 1.373 . S
N200 C202 1.340 . S
N201 C198 1.368 . S
N201 C202 1.321 . S
N201 Co204 2.135 . S
C202 N200 1.340 . S
C202 N201 1.321 . S
C202 H226 0.930 . S
H203 C198 0.931 . S
Co204 N201 2.135 . S
Co204 N207 2.121 . S
Co204 O212 2.055 . S
Co204 O215 2.039 . S
Co204 N218 2.140 . S
C205 O206 1.227 . S
C205 O215 1.265 . S
O206 C205 1.227 . S
N207 Co204 2.121 . S
N207 C209 1.375 1_455 S
N207 C210 1.313 . S
C208 C209 1.338 . S
C208 N211 1.377 . S
C208 H228 0.930 . S
C209 N207 1.375 1_655 S
C209 C208 1.338 . S
C209 H213 0.931 . S
C210 N207 1.313 . S
C210 N211 1.344 1_455 S
C210 H214 0.930 . S
N211 C208 1.377 . S
N211 C210 1.344 1_655 S
O212 Co204 2.055 . S
O212 C216 1.253 . S
H213 C209 0.931 . S
H214 C210 0.930 . S
O215 Co204 2.039 . S
O215 C205 1.265 . S
C216 O212 1.253 . S
C216 O217 1.227 . S
O217 C216 1.227 . S
N218 Co204 2.140 . S
N218 C221 1.346 . S
N218 C222 1.345 . S
C219 C220 1.387 . S
C219 C223 1.391 . S
C220 C219 1.387 . S
C220 C221 1.369 . S
C220 H229 0.929 . S
C221 N218 1.346 . S
C221 C220 1.369 . S
C221 H224 0.928 . S
C222 N218 1.345 . S
C222 C223 1.371 . S
C222 H225 0.931 . S
C223 C219 1.391 . S
C223 C222 1.371 . S
C223 H230 0.930 . S
H224 C221 0.928 . S
H225 C222 0.931 . S
H226 C202 0.930 . S
H227 C199 0.930 . S
H228 C208 0.930 . S
H229 C220 0.929 . S
H230 C223 0.930 . S
C231 C232 1.351 . S
C231 N234 1.368 . S
C231 H236 0.931 . S
C232 C231 1.351 . S
C232 N233 1.373 . S
C232 H260 0.930 . S
N233 C232 1.373 . S
N233 C235 1.340 . S
N234 C231 1.368 . S
N234 C235 1.321 . S
N234 Co237 2.135 . S
C235 N233 1.340 . S
C235 N234 1.321 . S
C235 H259 0.930 . S
H236 C231 0.931 . S
Co237 N234 2.135 . S
Co237 N240 2.121 . S
Co237 O245 2.055 . S
Co237 O248 2.039 . S
Co237 N251 2.140 . S
C238 O239 1.227 . S
C238 O248 1.265 . S
O239 C238 1.227 . S
N240 Co237 2.121 . S
N240 C242 1.375 1_545 S
N240 C243 1.313 . S
C241 C242 1.338 . S
C241 N244 1.377 . S
C241 H261 0.930 . S
C242 N240 1.375 1_565 S
C242 C241 1.338 . S
C242 H246 0.931 . S
C243 N240 1.313 . S
C243 N244 1.344 1_545 S
C243 H247 0.930 . S
N244 C241 1.377 . S
N244 C243 1.344 1_565 S
O245 Co237 2.055 . S
O245 C249 1.253 . S
H246 C242 0.931 . S
H247 C243 0.930 . S
O248 Co237 2.039 . S
O248 C238 1.265 . S
C249 O245 1.253 . S
C249 O250 1.227 . S
O250 C249 1.227 . S
N251 Co237 2.140 . S
N251 C254 1.346 . S
N251 C255 1.345 . S
C252 C253 1.387 . S
C252 C256 1.391 . S
C253 C252 1.387 . S
C253 C254 1.369 . S
C253 H262 0.929 . S
C254 N251 1.346 . S
C254 C253 1.369 . S
C254 H257 0.928 . S
C255 N251 1.345 . S
C255 C256 1.371 . S
C255 H258 0.931 . S
C256 C252 1.391 . S
C256 C255 1.371 . S
C256 H263 0.930 . S
H257 C254 0.928 . S
H258 C255 0.931 . S
H259 C235 0.930 . S
H260 C232 0.930 . S
H261 C241 0.930 . S
H262 C253 0.929 . S
H263 C256 0.930 . S
C264 C265 1.351 . S
C264 N267 1.368 . S
C264 H269 0.931 . S
C265 C264 1.351 . S
C265 N266 1.373 . S
C265 H293 0.930 . S
N266 C265 1.373 . S
N266 C268 1.340 . S
N267 C264 1.368 . S
N267 C268 1.321 . S
N267 Co270 2.135 . S
C268 N266 1.340 . S
C268 N267 1.321 . S
C268 H292 0.930 . S
H269 C264 0.931 . S
Co270 N267 2.135 . S
Co270 N273 2.121 . S
Co270 O278 2.055 . S
Co270 O281 2.039 . S
Co270 N284 2.140 . S
C271 O272 1.227 . S
C271 O281 1.265 . S
O272 C271 1.227 . S
N273 Co270 2.121 . S
N273 C275 1.375 . S
N273 C276 1.313 . S
C274 C275 1.338 . S
C274 N277 1.377 . S
C274 H294 0.930 . S
C275 N273 1.375 . S
C275 C274 1.338 . S
C275 H279 0.931 . S
C276 N273 1.313 . S
C276 N277 1.344 . S
C276 H280 0.930 . S
N277 C274 1.377 . S
N277 C276 1.344 . S
O278 Co270 2.055 . S
O278 C282 1.253 . S
H279 C275 0.931 . S
H280 C276 0.930 . S
O281 Co270 2.039 . S
O281 C271 1.265 . S
C282 O278 1.253 . S
C282 O283 1.227 . S
O283 C282 1.227 . S
N284 Co270 2.140 . S
N284 C287 1.346 . S
N284 C288 1.345 . S
C285 C286 1.387 . S
C285 C289 1.391 . S
C286 C285 1.387 . S
C286 C287 1.369 . S
C286 H295 0.929 . S
C287 N284 1.346 . S
C287 C286 1.369 . S
C287 H290 0.928 . S
C288 N284 1.345 . S
C288 C289 1.371 . S
C288 H291 0.931 . S
C289 C285 1.391 . S
C289 C288 1.371 . S
C289 H296 0.930 . S
H290 C287 0.928 . S
H291 C288 0.931 . S
H292 C268 0.930 . S
H293 C265 0.930 . S
H294 C274 0.930 . S
H295 C286 0.929 . S
H296 C289 0.930 . S
C297 C298 1.351 . S
C297 N300 1.368 . S
C297 H302 0.931 . S
C298 C297 1.351 . S
C298 N299 1.373 . S
C298 H326 0.930 . S
N299 C298 1.373 . S
N299 C301 1.340 . S
N300 C297 1.368 . S
N300 C301 1.321 . S
N300 Co303 2.135 . S
C301 N299 1.340 . S
C301 N300 1.321 . S
C301 H325 0.930 . S
H302 C297 0.931 . S
Co303 N300 2.135 . S
Co303 N306 2.121 . S
Co303 O311 2.055 . S
Co303 O314 2.039 . S
Co303 N317 2.140 . S
C304 O305 1.227 . S
C304 O314 1.265 . S
O305 C304 1.227 . S
N306 Co303 2.121 . S
N306 C308 1.375 . S
N306 C309 1.313 . S
C307 C308 1.338 . S
C307 N310 1.377 . S
C307 H327 0.930 . S
C308 N306 1.375 . S
C308 C307 1.338 . S
C308 H312 0.931 . S
C309 N306 1.313 . S
C309 N310 1.344 . S
C309 H313 0.930 . S
N310 C307 1.377 . S
N310 C309 1.344 . S
O311 Co303 2.055 . S
O311 C315 1.253 . S
H312 C308 0.931 . S
H313 C309 0.930 . S
O314 Co303 2.039 . S
O314 C304 1.265 . S
C315 O311 1.253 . S
C315 O316 1.227 . S
O316 C315 1.227 . S
N317 Co303 2.140 . S
N317 C320 1.346 . S
N317 C321 1.345 . S
C318 C319 1.387 . S
C318 C322 1.391 . S
C319 C318 1.387 . S
C319 C320 1.369 . S
C319 H328 0.929 . S
C320 N317 1.346 . S
C320 C319 1.369 . S
C320 H323 0.928 . S
C321 N317 1.345 . S
C321 C322 1.371 . S
C321 H324 0.931 . S
C322 C318 1.391 . S
C322 C321 1.371 . S
C322 H329 0.930 . S
H323 C320 0.928 . S
H324 C321 0.931 . S
H325 C301 0.930 . S
H326 C298 0.930 . S
H327 C307 0.930 . S
H328 C319 0.929 . S
H329 C322 0.930 . S
C330 C331 1.351 . S
C330 N333 1.368 . S
C330 H335 0.931 . S
C331 C330 1.351 . S
C331 N332 1.373 . S
C331 H359 0.930 . S
N332 C331 1.373 . S
N332 C334 1.340 . S
N333 C330 1.368 . S
N333 C334 1.321 . S
N333 Co336 2.135 . S
C334 N332 1.340 . S
C334 N333 1.321 . S
C334 H358 0.930 . S
H335 C330 0.931 . S
Co336 N333 2.135 . S
Co336 N339 2.121 . S
Co336 O344 2.055 . S
Co336 O347 2.039 . S
Co336 N350 2.140 . S
C337 O338 1.227 . S
C337 O347 1.265 . S
O338 C337 1.227 . S
N339 Co336 2.121 . S
N339 C341 1.375 . S
N339 C342 1.313 . S
C340 C341 1.338 . S
C340 N343 1.377 . S
C340 H360 0.930 . S
C341 N339 1.375 . S
C341 C340 1.338 . S
C341 H345 0.931 . S
C342 N339 1.313 . S
C342 N343 1.344 . S
C342 H346 0.930 . S
N343 C340 1.377 . S
N343 C342 1.344 . S
O344 Co336 2.055 . S
O344 C348 1.253 . S
H345 C341 0.931 . S
H346 C342 0.930 . S
O347 Co336 2.039 . S
O347 C337 1.265 . S
C348 O344 1.253 . S
C348 O349 1.227 . S
O349 C348 1.227 . S
N350 Co336 2.140 . S
N350 C353 1.346 . S
N350 C354 1.345 . S
C351 C352 1.387 . S
C351 C355 1.391 . S
C352 C351 1.387 . S
C352 C353 1.369 . S
C352 H361 0.929 . S
C353 N350 1.346 . S
C353 C352 1.369 . S
C353 H356 0.928 . S
C354 N350 1.345 . S
C354 C355 1.371 . S
C354 H357 0.931 . S
C355 C351 1.391 . S
C355 C354 1.371 . S
C355 H362 0.930 . S
H356 C353 0.928 . S
H357 C354 0.931 . S
H358 C334 0.930 . S
H359 C331 0.930 . S
H360 C340 0.930 . S
H361 C352 0.929 . S
H362 C355 0.930 . S
C363 C364 1.351 . S
C363 N366 1.368 . S
C363 H368 0.931 . S
C364 C363 1.351 . S
C364 N365 1.373 . S
C364 H392 0.930 . S
N365 C364 1.373 . S
N365 C367 1.340 . S
N366 C363 1.368 . S
N366 C367 1.321 . S
N366 Co369 2.135 . S
C367 N365 1.340 . S
C367 N366 1.321 . S
C367 H391 0.930 . S
H368 C363 0.931 . S
Co369 N366 2.135 . S
Co369 N372 2.121 . S
Co369 O377 2.055 . S
Co369 O380 2.039 . S
Co369 N383 2.140 . S
C370 O371 1.227 . S
C370 O380 1.265 . S
O371 C370 1.227 . S
N372 Co369 2.121 . S
N372 C374 1.375 . S
N372 C375 1.313 . S
C373 C374 1.338 . S
C373 N376 1.377 . S
C373 H393 0.930 . S
C374 N372 1.375 . S
C374 C373 1.338 . S
C374 H378 0.931 . S
C375 N372 1.313 . S
C375 N376 1.344 . S
C375 H379 0.930 . S
N376 C373 1.377 . S
N376 C375 1.344 . S
O377 Co369 2.055 . S
O377 C381 1.253 . S
H378 C374 0.931 . S
H379 C375 0.930 . S
O380 Co369 2.039 . S
O380 C370 1.265 . S
C381 O377 1.253 . S
C381 O382 1.227 . S
O382 C381 1.227 . S
N383 Co369 2.140 . S
N383 C386 1.346 . S
N383 C387 1.345 . S
C384 C385 1.387 . S
C384 C388 1.391 . S
C385 C384 1.387 . S
C385 C386 1.369 . S
C385 H394 0.929 . S
C386 N383 1.346 . S
C386 C385 1.369 . S
C386 H389 0.928 . S
C387 N383 1.345 . S
C387 C388 1.371 . S
C387 H390 0.931 . S
C388 C384 1.391 . S
C388 C387 1.371 . S
C388 H395 0.930 . S
H389 C386 0.928 . S
H390 C387 0.931 . S
H391 C367 0.930 . S
H392 C364 0.930 . S
H393 C373 0.930 . S
H394 C385 0.929 . S
H395 C388 0.930 . S
C396 C397 1.351 . S
C396 N399 1.368 . S
C396 H401 0.931 . S
C397 C396 1.351 . S
C397 N398 1.373 . S
C397 H425 0.930 . S
N398 C397 1.373 . S
N398 C400 1.340 . S
N399 C396 1.368 . S
N399 C400 1.321 . S
N399 Co402 2.135 . S
C400 N398 1.340 . S
C400 N399 1.321 . S
C400 H424 0.930 . S
H401 C396 0.931 . S
Co402 N399 2.135 . S
Co402 N405 2.121 . S
Co402 O410 2.055 . S
Co402 O413 2.039 . S
Co402 N416 2.140 . S
C403 O404 1.227 . S
C403 O413 1.265 . S
O404 C403 1.227 . S
N405 Co402 2.121 . S
N405 C407 1.375 . S
N405 C408 1.313 . S
C406 C407 1.338 . S
C406 N409 1.377 . S
C406 H426 0.930 . S
C407 N405 1.375 . S
C407 C406 1.338 . S
C407 H411 0.931 . S
C408 N405 1.313 . S
C408 N409 1.344 . S
C408 H412 0.930 . S
N409 C406 1.377 . S
N409 C408 1.344 . S
O410 Co402 2.055 . S
O410 C414 1.253 . S
H411 C407 0.931 . S
H412 C408 0.930 . S
O413 Co402 2.039 . S
O413 C403 1.265 . S
C414 O410 1.253 . S
C414 O415 1.227 . S
O415 C414 1.227 . S
N416 Co402 2.140 . S
N416 C419 1.346 . S
N416 C420 1.345 . S
C417 C418 1.387 . S
C417 C421 1.391 . S
C418 C417 1.387 . S
C418 C419 1.369 . S
C418 H427 0.929 . S
C419 N416 1.346 . S
C419 C418 1.369 . S
C419 H422 0.928 . S
C420 N416 1.345 . S
C420 C421 1.371 . S
C420 H423 0.931 . S
C421 C417 1.391 . S
C421 C420 1.371 . S
C421 H428 0.930 . S
H422 C419 0.928 . S
H423 C420 0.931 . S
H424 C400 0.930 . S
H425 C397 0.930 . S
H426 C406 0.930 . S
H427 C418 0.929 . S
H428 C421 0.930 . S
C429 C430 1.351 . S
C429 N432 1.368 . S
C429 H434 0.931 . S
C430 C429 1.351 . S
C430 N431 1.373 . S
C430 H458 0.930 . S
N431 C430 1.373 . S
N431 C433 1.340 . S
N432 C429 1.368 . S
N432 C433 1.321 . S
N432 Co435 2.135 . S
C433 N431 1.340 . S
C433 N432 1.321 . S
C433 H457 0.930 . S
H434 C429 0.931 . S
Co435 N432 2.135 . S
Co435 N438 2.121 . S
Co435 O443 2.055 . S
Co435 O446 2.039 . S
Co435 N449 2.140 . S
C436 O437 1.227 . S
C436 O446 1.265 . S
O437 C436 1.227 . S
N438 Co435 2.121 . S
N438 C440 1.375 . S
N438 C441 1.313 . S
C439 C440 1.338 . S
C439 N442 1.377 . S
C439 H459 0.930 . S
C440 N438 1.375 . S
C440 C439 1.338 . S
C440 H444 0.931 . S
C441 N438 1.313 . S
C441 N442 1.344 . S
C441 H445 0.930 . S
N442 C439 1.377 . S
N442 C441 1.344 . S
O443 Co435 2.055 . S
O443 C447 1.253 . S
H444 C440 0.931 . S
H445 C441 0.930 . S
O446 Co435 2.039 . S
O446 C436 1.265 . S
C447 O443 1.253 . S
C447 O448 1.227 . S
O448 C447 1.227 . S
N449 Co435 2.140 . S
N449 C452 1.346 . S
N449 C453 1.345 . S
C450 C451 1.387 . S
C450 C454 1.391 . S
C451 C450 1.387 . S
C451 C452 1.369 . S
C451 H460 0.929 . S
C452 N449 1.346 . S
C452 C451 1.369 . S
C452 H455 0.928 . S
C453 N449 1.345 . S
C453 C454 1.371 . S
C453 H456 0.931 . S
C454 C450 1.391 . S
C454 C453 1.371 . S
C454 H461 0.930 . S
H455 C452 0.928 . S
H456 C453 0.931 . S
H457 C433 0.930 . S
H458 C430 0.930 . S
H459 C439 0.930 . S
H460 C451 0.929 . S
H461 C454 0.930 . S
C462 C463 1.351 . S
C462 N465 1.368 . S
C462 H467 0.931 . S
C463 C462 1.351 . S
C463 N464 1.373 . S
C463 H491 0.930 . S
N464 C463 1.373 . S
N464 C466 1.340 . S
N465 C462 1.368 . S
N465 C466 1.321 . S
N465 Co468 2.135 . S
C466 N464 1.340 . S
C466 N465 1.321 . S
C466 H490 0.930 . S
H467 C462 0.931 . S
Co468 N465 2.135 . S
Co468 N471 2.121 . S
Co468 O476 2.055 . S
Co468 O479 2.039 . S
Co468 N482 2.140 . S
C469 O470 1.227 . S
C469 O479 1.265 . S
O470 C469 1.227 . S
N471 Co468 2.121 . S
N471 C473 1.375 . S
N471 C474 1.313 . S
C472 C473 1.338 . S
C472 N475 1.377 . S
C472 H492 0.930 . S
C473 N471 1.375 . S
C473 C472 1.338 . S
C473 H477 0.931 . S
C474 N471 1.313 . S
C474 N475 1.344 . S
C474 H478 0.930 . S
N475 C472 1.377 . S
N475 C474 1.344 . S
O476 Co468 2.055 . S
O476 C480 1.253 . S
H477 C473 0.931 . S
H478 C474 0.930 . S
O479 Co468 2.039 . S
O479 C469 1.265 . S
C480 O476 1.253 . S
C480 O481 1.227 . S
O481 C480 1.227 . S
N482 Co468 2.140 . S
N482 C485 1.346 . S
N482 C486 1.345 . S
C483 C484 1.387 . S
C483 C487 1.391 . S
C484 C483 1.387 . S
C484 C485 1.369 . S
C484 H493 0.929 . S
C485 N482 1.346 . S
C485 C484 1.369 . S
C485 H488 0.928 . S
C486 N482 1.345 . S
C486 C487 1.371 . S
C486 H489 0.931 . S
C487 C483 1.391 . S
C487 C486 1.371 . S
C487 H494 0.930 . S
H488 C485 0.928 . S
H489 C486 0.931 . S
H490 C466 0.930 . S
H491 C463 0.930 . S
H492 C472 0.930 . S
H493 C484 0.929 . S
H494 C487 0.930 . S
C495 C496 1.351 . S
C495 N498 1.368 . S
C495 H500 0.931 . S
C496 C495 1.351 . S
C496 N497 1.373 . S
C496 H524 0.930 . S
N497 C496 1.373 . S
N497 C499 1.340 . S
N498 C495 1.368 . S
N498 C499 1.321 . S
N498 Co501 2.135 . S
C499 N497 1.340 . S
C499 N498 1.321 . S
C499 H523 0.930 . S
H500 C495 0.931 . S
Co501 N498 2.135 . S
Co501 N504 2.121 . S
Co501 O509 2.055 . S
Co501 O512 2.039 . S
Co501 N515 2.140 . S
C502 O503 1.227 . S
C502 O512 1.265 . S
O503 C502 1.227 . S
N504 Co501 2.121 . S
N504 C506 1.375 . S
N504 C507 1.313 . S
C505 C506 1.338 . S
C505 N508 1.377 . S
C505 H525 0.930 . S
C506 N504 1.375 . S
C506 C505 1.338 . S
C506 H510 0.931 . S
C507 N504 1.313 . S
C507 N508 1.344 . S
C507 H511 0.930 . S
N508 C505 1.377 . S
N508 C507 1.344 . S
O509 Co501 2.055 . S
O509 C513 1.253 . S
H510 C506 0.931 . S
H511 C507 0.930 . S
O512 Co501 2.039 . S
O512 C502 1.265 . S
C513 O509 1.253 . S
C513 O514 1.227 . S
O514 C513 1.227 . S
N515 Co501 2.140 . S
N515 C518 1.346 . S
N515 C519 1.345 . S
C516 C517 1.387 . S
C516 C520 1.391 . S
C517 C516 1.387 . S
C517 C518 1.369 . S
C517 H526 0.929 . S
C518 N515 1.346 . S
C518 C517 1.369 . S
C518 H521 0.928 . S
C519 N515 1.345 . S
C519 C520 1.371 . S
C519 H522 0.931 . S
C520 C516 1.391 . S
C520 C519 1.371 . S
C520 H527 0.930 . S
H521 C518 0.928 . S
H522 C519 0.931 . S
H523 C499 0.930 . S
H524 C496 0.930 . S
H525 C505 0.930 . S
H526 C517 0.929 . S
H527 C520 0.930 . S
H528 C534 0.930 . S
H529 C537 0.930 1_655 S
H530 C538 0.930 1_655 S
H531 C539 0.930 . S
H532 C542 0.930 . S
H533 C543 0.930 . S
C534 H528 0.930 . S
C534 C535 1.355 . S
C534 C536 1.415 . S
C535 C534 1.355 . S
C535 C537 1.419 . S
C536 C534 1.415 . S
C536 C541 1.425 . S
C536 C543 1.409 . S
C537 H529 0.930 1_455 S
C537 C535 1.419 . S
C537 C538 1.362 . S
C538 H530 0.930 1_455 S
C538 C537 1.362 . S
C538 C541 1.409 . S
C539 H531 0.930 . S
C539 C540 1.355 . S
C539 C541 1.415 . S
C540 C539 1.355 . S
C540 C542 1.419 . S
C541 C536 1.425 . S
C541 C538 1.409 . S
C541 C539 1.415 . S
C542 H532 0.930 . S
C542 C540 1.419 . S
C542 C543 1.362 . S
C543 H533 0.930 . S
C543 C536 1.409 . S
C543 C542 1.362 . S
H544 C550 0.930 . S
H545 C553 0.930 . S
H546 C554 0.930 . S
H547 C555 0.930 . S
H548 C558 0.930 . S
H549 C559 0.930 . S
C550 H544 0.930 . S
C550 C551 1.355 . S
C550 C552 1.415 . S
C551 C550 1.355 . S
C551 C553 1.419 . S
C552 C550 1.415 . S
C552 C557 1.425 . S
C552 C559 1.409 . S
C553 H545 0.930 . S
C553 C551 1.419 . S
C553 C554 1.362 . S
C554 H546 0.930 . S
C554 C553 1.362 . S
C554 C557 1.409 . S
C555 H547 0.930 . S
C555 C556 1.355 . S
C555 C557 1.415 . S
C556 C555 1.355 . S
C556 C558 1.419 . S
C557 C552 1.425 . S
C557 C554 1.409 . S
C557 C555 1.415 . S
C558 H548 0.930 . S
C558 C556 1.419 . S
C558 C559 1.362 . S
C559 H549 0.930 . S
C559 C552 1.409 . S
C559 C558 1.362 . S
H560 C566 0.930 . S
H561 C569 0.930 . S
H562 C570 0.930 . S
H563 C571 0.930 . S
H564 C574 0.930 . S
H565 C575 0.930 . S
C566 H560 0.930 . S
C566 C567 1.355 . S
C566 C568 1.415 . S
C567 C566 1.355 . S
C567 C569 1.419 . S
C568 C566 1.415 . S
C568 C573 1.425 . S
C568 C575 1.409 . S
C569 H561 0.930 . S
C569 C567 1.419 . S
C569 C570 1.362 . S
C570 H562 0.930 . S
C570 C569 1.362 . S
C570 C573 1.409 . S
C571 H563 0.930 . S
C571 C572 1.355 . S
C571 C573 1.415 . S
C572 C571 1.355 . S
C572 C574 1.419 . S
C573 C568 1.425 . S
C573 C570 1.409 . S
C573 C571 1.415 . S
C574 H564 0.930 . S
C574 C572 1.419 . S
C574 C575 1.362 . S
C575 H565 0.930 . S
C575 C568 1.409 . S
C575 C574 1.362 . S
H576 C582 0.930 . S
H577 C585 0.930 . S
H578 C586 0.930 . S
H579 C587 0.930 . S
H580 C590 0.930 . S
H581 C591 0.930 1_565 S
C582 H576 0.930 . S
C582 C583 1.355 . S
C582 C584 1.415 . S
C583 C582 1.355 . S
C583 C585 1.419 . S
C584 C582 1.415 . S
C584 C589 1.425 . S
C584 C591 1.409 . S
C585 H577 0.930 . S
C585 C583 1.419 . S
C585 C586 1.362 . S
C586 H578 0.930 . S
C586 C585 1.362 . S
C586 C589 1.409 . S
C587 H579 0.930 . S
C587 C588 1.355 . S
C587 C589 1.415 . S
C588 C587 1.355 . S
C588 C590 1.419 . S
C589 C584 1.425 . S
C589 C586 1.409 . S
C589 C587 1.415 . S
C590 H580 0.930 . S
C590 C588 1.419 . S
C590 C591 1.362 . S
C591 H581 0.930 1_545 S
C591 C584 1.409 . S
C591 C590 1.362 . S
H592 C598 0.930 . S
H593 C601 0.930 . S
H594 C602 0.930 . S
H595 C603 0.930 . S
H596 C606 0.930 . S
H597 C607 0.930 . S
C598 H592 0.930 . S
C598 C599 1.355 . S
C598 C600 1.415 . S
C599 C598 1.355 . S
C599 C601 1.419 . S
C600 C598 1.415 . S
C600 C605 1.425 1_556 S
C600 C607 1.409 1_556 S
C601 H593 0.930 . S
C601 C599 1.419 . S
C601 C602 1.362 . S
C602 H594 0.930 . S
C602 C601 1.362 . S
C602 C605 1.409 1_556 S
C603 H595 0.930 . S
C603 C604 1.355 . S
C603 C605 1.415 . S
C604 C603 1.355 . S
C604 C606 1.419 . S
C605 C600 1.425 1_554 S
C605 C602 1.409 1_554 S
C605 C603 1.415 . S
C606 H596 0.930 . S
C606 C604 1.419 . S
C606 C607 1.362 . S
C607 H597 0.930 . S
C607 C600 1.409 1_554 S
C607 C606 1.362 . S
H608 C614 0.930 . S
H609 C617 0.930 . S
H610 C618 0.930 1_554 S
H611 C619 0.930 . S
H612 C622 0.930 . S
H613 C623 0.930 1_556 S
C614 H608 0.930 . S
C614 C615 1.355 . S
C614 C616 1.415 . S
C615 C614 1.355 . S
C615 C617 1.419 . S
C616 C614 1.415 . S
C616 C621 1.425 1_556 S
C616 C623 1.409 1_556 S
C617 H609 0.930 . S
C617 C615 1.419 . S
C617 C618 1.362 . S
C618 H610 0.930 1_556 S
C618 C617 1.362 . S
C618 C621 1.409 1_556 S
C619 H611 0.930 . S
C619 C620 1.355 . S
C619 C621 1.415 . S
C620 C619 1.355 . S
C620 C622 1.419 . S
C621 C616 1.425 1_554 S
C621 C618 1.409 1_554 S
C621 C619 1.415 . S
C622 H612 0.930 . S
C622 C620 1.419 . S
C622 C623 1.362 . S
C623 H613 0.930 1_554 S
C623 C616 1.409 1_554 S
C623 C622 1.362 . S
H624 C630 0.930 . S
H625 C633 0.930 . S
H626 C634 0.930 . S
H627 C635 0.930 . S
H628 C638 0.930 . S
H629 C639 0.930 . S
C630 H624 0.930 . S
C630 C631 1.355 . S
C630 C632 1.415 . S
C631 C630 1.355 . S
C631 C633 1.419 . S
C632 C630 1.415 . S
C632 C637 1.425 1_556 S
C632 C639 1.409 1_556 S
C633 H625 0.930 . S
C633 C631 1.419 . S
C633 C634 1.362 . S
C634 H626 0.930 . S
C634 C633 1.362 . S
C634 C637 1.409 1_556 S
C635 H627 0.930 . S
C635 C636 1.355 . S
C635 C637 1.415 . S
C636 C635 1.355 . S
C636 C638 1.419 . S
C637 C632 1.425 1_554 S
C637 C634 1.409 1_554 S
C637 C635 1.415 . S
C638 H628 0.930 . S
C638 C636 1.419 . S
C638 C639 1.362 . S
C639 H629 0.930 . S
C639 C632 1.409 1_554 S
C639 C638 1.362 . S
H640 C646 0.930 . S
H641 C649 0.930 . S
H642 C650 0.930 1_556 S
H643 C651 0.930 . S
H644 C654 0.930 . S
H645 C655 0.930 1_554 S
C646 H640 0.930 . S
C646 C647 1.355 . S
C646 C648 1.415 . S
C647 C646 1.355 . S
C647 C649 1.419 . S
C648 C646 1.415 . S
C648 C653 1.425 1_554 S
C648 C655 1.409 1_554 S
C649 H641 0.930 . S
C649 C647 1.419 . S
C649 C650 1.362 . S
C650 H642 0.930 1_554 S
C650 C649 1.362 . S
C650 C653 1.409 1_554 S
C651 H643 0.930 . S
C651 C652 1.355 . S
C651 C653 1.415 . S
C652 C651 1.355 . S
C652 C654 1.419 . S
C653 C648 1.425 1_556 S
C653 C650 1.409 1_556 S
C653 C651 1.415 . S
C654 H644 0.930 . S
C654 C652 1.419 . S
C654 C655 1.362 . S
C655 H645 0.930 1_556 S
C655 C648 1.409 1_556 S
C655 C654 1.362 . S
H656 C662 0.930 . S
H657 C665 0.930 . S
H658 C666 0.930 . S
H659 C667 0.930 . S
H660 C670 0.930 . S
H661 C671 0.930 . S
C662 H656 0.930 . S
C662 C663 1.355 . S
C662 C664 1.415 . S
C663 C662 1.355 . S
C663 C665 1.419 . S
C664 C662 1.415 . S
C664 C669 1.425 . S
C664 C671 1.409 . S
C665 H657 0.930 . S
C665 C663 1.419 . S
C665 C666 1.362 . S
C666 H658 0.930 . S
C666 C665 1.362 . S
C666 C669 1.409 . S
C667 H659 0.930 . S
C667 C668 1.355 . S
C667 C669 1.415 . S
C668 C667 1.355 . S
C668 C670 1.419 . S
C669 C664 1.425 . S
C669 C666 1.409 . S
C669 C667 1.415 . S
C670 H660 0.930 . S
C670 C668 1.419 . S
C670 C671 1.362 . S
C671 H661 0.930 . S
C671 C664 1.409 . S
C671 C670 1.362 . S
H672 C678 0.930 . S
H673 C681 0.930 . S
H674 C682 0.930 . S
H675 C683 0.930 . S
H676 C686 0.930 . S
H677 C687 0.930 . S
C678 H672 0.930 . S
C678 C679 1.355 . S
C678 C680 1.415 . S
C679 C678 1.355 . S
C679 C681 1.419 . S
C680 C678 1.415 . S
C680 C685 1.425 . S
C680 C687 1.409 . S
C681 H673 0.930 . S
C681 C679 1.419 . S
C681 C682 1.362 . S
C682 H674 0.930 . S
C682 C681 1.362 . S
C682 C685 1.409 . S
C683 H675 0.930 . S
C683 C684 1.355 . S
C683 C685 1.415 . S
C684 C683 1.355 . S
C684 C686 1.419 . S
C685 C680 1.425 . S
C685 C682 1.409 . S
C685 C683 1.415 . S
C686 H676 0.930 . S
C686 C684 1.419 . S
C686 C687 1.362 . S
C687 H677 0.930 . S
C687 C680 1.409 . S
C687 C686 1.362 . S
H688 C694 0.930 . S
H689 C697 0.930 . S
H690 C698 0.930 . S
H691 C699 0.930 1_455 S
H692 C702 0.930 . S
H693 C703 0.930 . S
C694 H688 0.930 . S
C694 C695 1.355 . S
C694 C696 1.415 . S
C695 C694 1.355 . S
C695 C697 1.419 . S
C696 C694 1.415 . S
C696 C701 1.425 . S
C696 C703 1.409 . S
C697 H689 0.930 . S
C697 C695 1.419 . S
C697 C698 1.362 . S
C698 H690 0.930 . S
C698 C697 1.362 . S
C698 C701 1.409 . S
C699 H691 0.930 1_655 S
C699 C700 1.355 . S
C699 C701 1.415 . S
C700 C699 1.355 . S
C700 C702 1.419 . S
C701 C696 1.425 . S
C701 C698 1.409 . S
C701 C699 1.415 . S
C702 H692 0.930 . S
C702 C700 1.419 . S
C702 C703 1.362 . S
C703 H693 0.930 . S
C703 C696 1.409 . S
C703 C702 1.362 . S
H704 C710 0.921 1_545 S
H705 C713 0.930 . S
H706 C714 0.930 . S
H707 C715 0.930 . S
H708 C718 0.930 . S
H709 C719 0.930 . S
C710 H704 0.921 1_565 S
C710 C711 1.355 . S
C710 C712 1.415 . S
C711 C710 1.355 . S
C711 C713 1.419 . S
C712 C710 1.415 . S
C712 C717 1.425 . S
C712 C719 1.409 . S
C713 H705 0.930 . S
C713 C711 1.419 . S
C713 C714 1.362 . S
C714 H706 0.930 . S
C714 C713 1.362 . S
C714 C717 1.409 . S
C715 H707 0.930 . S
C715 C716 1.355 . S
C715 C717 1.415 . S
C716 C715 1.355 . S
C716 C718 1.419 . S
C717 C712 1.425 . S
C717 C714 1.409 . S
C717 C715 1.415 . S
C718 H708 0.930 . S
C718 C716 1.419 . S
C718 C719 1.362 . S
C719 H709 0.930 . S
C719 C712 1.409 . S
C719 C718 1.362 . S
H720 C726 0.930 . S
H721 C729 0.930 . S
H722 C730 0.930 . S
H723 C731 0.930 . S
H724 C734 0.930 . S
H725 C735 0.930 . S
C726 H720 0.930 . S
C726 C727 1.355 . S
C726 C728 1.415 . S
C727 C726 1.355 . S
C727 C729 1.419 . S
C728 C726 1.415 . S
C728 C733 1.425 . S
C728 C735 1.409 . S
C729 H721 0.930 . S
C729 C727 1.419 . S
C729 C730 1.362 . S
C730 H722 0.930 . S
C730 C729 1.362 . S
C730 C733 1.409 . S
C731 H723 0.930 . S
C731 C732 1.355 . S
C731 C733 1.415 . S
C732 C731 1.355 . S
C732 C734 1.419 . S
C733 C728 1.425 . S
C733 C730 1.409 . S
C733 C731 1.415 . S
C734 H724 0.930 . S
C734 C732 1.419 . S
C734 C735 1.362 . S
C735 H725 0.930 . S
C735 C728 1.409 . S
C735 C734 1.362 . S
H736 C742 0.930 . S
H737 C745 0.930 . S
H738 C746 0.930 . S
H739 C747 0.930 . S
H740 C750 0.930 . S
H741 C751 0.930 . S
C742 H736 0.930 . S
C742 C743 1.355 . S
C742 C744 1.415 . S
C743 C742 1.355 . S
C743 C745 1.419 . S
C744 C742 1.415 . S
C744 C749 1.425 . S
C744 C751 1.409 . S
C745 H737 0.930 . S
C745 C743 1.419 . S
C745 C746 1.362 . S
C746 H738 0.930 . S
C746 C745 1.362 . S
C746 C749 1.409 . S
C747 H739 0.930 . S
C747 C748 1.355 . S
C747 C749 1.415 . S
C748 C747 1.355 . S
C748 C750 1.419 . S
C749 C744 1.425 . S
C749 C746 1.409 . S
C749 C747 1.415 . S
C750 H740 0.930 . S
C750 C748 1.419 . S
C750 C751 1.362 . S
C751 H741 0.930 . S
C751 C744 1.409 . S
C751 C750 1.362 . S
H752 C758 0.930 . S
H753 C761 0.930 . S
H754 C762 0.930 . S
H755 C763 0.930 . S
H756 C766 0.930 . S
H757 C767 0.930 . S
C758 H752 0.930 . S
C758 C759 1.355 . S
C758 C760 1.415 . S
C759 C758 1.355 . S
C759 C761 1.419 . S
C760 C758 1.415 . S
C760 C765 1.425 . S
C760 C767 1.409 . S
C761 H753 0.930 . S
C761 C759 1.419 . S
C761 C762 1.362 . S
C762 H754 0.930 . S
C762 C761 1.362 . S
C762 C765 1.409 . S
C763 H755 0.930 . S
C763 C764 1.360 . S
C763 C765 1.415 . S
C764 C763 1.360 . S
C764 C766 1.417 1_655 S
C765 C760 1.425 . S
C765 C762 1.409 . S
C765 C763 1.415 . S
C766 H756 0.930 . S
C766 C764 1.417 1_455 S
C766 C767 1.362 1_455 S
C767 H757 0.930 . S
C767 C760 1.409 . S
C767 C766 1.362 1_655 S
H768 C774 0.930 . S
H769 C777 0.930 . S
H770 C778 0.930 . S
H771 C779 0.930 1_545 S
H772 C782 0.930 . S
H773 C783 0.930 . S
C774 H768 0.930 . S
C774 C775 1.355 . S
C774 C776 1.415 . S
C775 C774 1.355 . S
C775 C777 1.419 . S
C776 C774 1.415 . S
C776 C781 1.425 . S
C776 C783 1.409 . S
C777 H769 0.930 . S
C777 C775 1.419 . S
C777 C778 1.362 . S
C778 H770 0.930 . S
C778 C777 1.362 . S
C778 C781 1.409 . S
C779 H771 0.930 1_565 S
C779 C780 1.355 . S
C779 C781 1.415 . S
C780 C779 1.355 . S
C780 C782 1.419 . S
C781 C776 1.425 . S
C781 C778 1.409 . S
C781 C779 1.415 . S
C782 H772 0.930 . S
C782 C780 1.419 . S
C782 C783 1.362 . S
C783 H773 0.930 . S
C783 C776 1.409 . S
C783 C782 1.362 . S
H784 C790 0.930 . S
H785 C793 0.930 . S
H786 C794 0.930 . S
H787 C795 0.930 . S
H788 C798 0.930 . S
H789 C799 0.930 . S
C790 H784 0.930 . S
C790 C791 1.355 . S
C790 C792 1.415 . S
C791 C790 1.355 . S
C791 C793 1.419 . S
C792 C790 1.415 . S
C792 C797 1.425 . S
C792 C799 1.409 . S
C793 H785 0.930 . S
C793 C791 1.419 . S
C793 C794 1.362 . S
C794 H786 0.930 . S
C794 C793 1.362 . S
C794 C797 1.409 . S
C795 H787 0.930 . S
C795 C796 1.355 . S
C795 C797 1.415 . S
C796 C795 1.355 . S
C796 C798 1.419 . S
C797 C792 1.425 . S
C797 C794 1.409 . S
C797 C795 1.415 . S
C798 H788 0.930 . S
C798 C796 1.419 . S
C798 C799 1.362 . S
C799 H789 0.930 . S
C799 C792 1.409 . S
C799 C798 1.362 . S
H800 C806 0.930 . S
H801 C809 0.930 . S
H802 C810 0.930 . S
H803 C811 0.930 . S
H804 C814 0.930 . S
H805 C815 0.930 . S
C806 H800 0.930 . S
C806 C807 1.355 . S
C806 C808 1.415 . S
C807 C806 1.355 . S
C807 C809 1.419 . S
C808 C806 1.415 . S
C808 C813 1.425 . S
C808 C815 1.409 . S
C809 H801 0.930 . S
C809 C807 1.419 . S
C809 C810 1.362 . S
C810 H802 0.930 . S
C810 C809 1.362 . S
C810 C813 1.409 . S
C811 H803 0.930 . S
C811 C812 1.355 . S
C811 C813 1.415 . S
C812 C811 1.355 . S
C812 C814 1.419 . S
C813 C808 1.425 . S
C813 C810 1.409 . S
C813 C811 1.415 . S
C814 H804 0.930 . S
C814 C812 1.419 . S
C814 C815 1.362 . S
C815 H805 0.930 . S
C815 C808 1.409 . S
C815 C814 1.362 . S
H816 C822 0.930 . S
H817 C825 0.930 . S
H818 C826 0.930 . S
H819 C827 0.930 . S
H820 C830 0.930 . S
H821 C831 0.930 . S
C822 H816 0.930 . S
C822 C823 1.355 . S
C822 C824 1.415 . S
C823 C822 1.355 . S
C823 C825 1.419 . S
C824 C822 1.415 . S
C824 C829 1.425 . S
C824 C831 1.409 . S
C825 H817 0.930 . S
C825 C823 1.419 . S
C825 C826 1.362 . S
C826 H818 0.930 . S
C826 C825 1.362 . S
C826 C829 1.409 . S
C827 H819 0.930 . S
C827 C828 1.355 . S
C827 C829 1.415 . S
C828 C827 1.355 . S
C828 C830 1.419 . S
C829 C824 1.425 . S
C829 C826 1.409 . S
C829 C827 1.415 . S
C830 H820 0.930 . S
C830 C828 1.419 . S
C830 C831 1.362 . S
C831 H821 0.930 . S
C831 C824 1.409 . S
C831 C830 1.362 . S
H832 C838 0.930 . S
H833 C841 0.930 . S
H834 C842 0.930 . S
H835 C843 0.930 . S
H836 C846 0.930 . S
H837 C847 0.930 . S
C838 H832 0.930 . S
C838 C839 1.355 . S
C838 C840 1.415 . S
C839 C838 1.355 . S
C839 C841 1.419 . S
C840 C838 1.415 . S
C840 C845 1.425 . S
C840 C847 1.409 . S
C841 H833 0.930 . S
C841 C839 1.419 . S
C841 C842 1.362 . S
C842 H834 0.930 . S
C842 C841 1.362 . S
C842 C845 1.409 . S
C843 H835 0.930 . S
C843 C844 1.355 . S
C843 C845 1.415 . S
C844 C843 1.355 . S
C844 C846 1.419 . S
C845 C840 1.425 . S
C845 C842 1.409 . S
C845 C843 1.415 . S
C846 H836 0.930 . S
C846 C844 1.419 . S
C846 C847 1.362 . S
C847 H837 0.930 . S
C847 C840 1.409 . S
C847 C846 1.362 . S
H848 C854 0.930 . S
H849 C857 0.930 . S
H850 C858 0.930 . S
H851 C859 0.930 . S
H852 C862 0.930 . S
H853 C863 0.930 . S
C854 H848 0.930 . S
C854 C855 1.355 . S
C854 C856 1.415 . S
C855 C854 1.355 . S
C855 C857 1.419 . S
C856 C854 1.415 . S
C856 C861 1.425 . S
C856 C863 1.409 . S
C857 H849 0.930 . S
C857 C855 1.419 . S
C857 C858 1.362 . S
C858 H850 0.930 . S
C858 C857 1.362 . S
C858 C861 1.409 . S
C859 H851 0.930 . S
C859 C860 1.355 . S
C859 C861 1.415 . S
C860 C859 1.355 . S
C860 C862 1.419 . S
C861 C856 1.425 . S
C861 C858 1.409 . S
C861 C859 1.415 . S
C862 H852 0.930 . S
C862 C860 1.419 . S
C862 C863 1.362 . S
C863 H853 0.930 . S
C863 C856 1.409 . S
C863 C862 1.362 . S
H864 C870 0.930 . S
H865 C873 0.930 . S
H866 C874 0.930 . S
H867 C875 0.930 . S
H868 C878 0.930 . S
H869 C879 0.930 . S
C870 H864 0.930 . S
C870 C871 1.355 . S
C870 C872 1.415 . S
C871 C870 1.355 . S
C871 C873 1.419 . S
C872 C870 1.415 . S
C872 C877 1.425 . S
C872 C879 1.409 . S
C873 H865 0.930 . S
C873 C871 1.419 . S
C873 C874 1.362 . S
C874 H866 0.930 . S
C874 C873 1.362 . S
C874 C877 1.409 . S
C875 H867 0.930 . S
C875 C876 1.355 . S
C875 C877 1.415 . S
C876 C875 1.355 . S
C876 C878 1.419 . S
C877 C872 1.425 . S
C877 C874 1.409 . S
C877 C875 1.415 . S
C878 H868 0.930 . S
C878 C876 1.419 . S
C878 C879 1.362 . S
C879 H869 0.930 . S
C879 C872 1.409 . S
C879 C878 1.362 . S
H880 C886 0.930 . S
H881 C889 0.930 . S
H882 C890 0.930 . S
H883 C891 0.930 . S
H884 C894 0.930 . S
H885 C895 0.930 . S
C886 H880 0.930 . S
C886 C887 1.355 . S
C886 C888 1.415 . S
C887 C886 1.355 . S
C887 C889 1.419 . S
C888 C886 1.415 . S
C888 C893 1.425 . S
C888 C895 1.409 . S
C889 H881 0.930 . S
C889 C887 1.419 . S
C889 C890 1.362 . S
C890 H882 0.930 . S
C890 C889 1.362 . S
C890 C893 1.409 . S
C891 H883 0.930 . S
C891 C892 1.355 . S
C891 C893 1.415 . S
C892 C891 1.355 . S
C892 C894 1.419 . S
C893 C888 1.425 . S
C893 C890 1.409 . S
C893 C891 1.415 . S
C894 H884 0.930 . S
C894 C892 1.419 . S
C894 C895 1.362 . S
C895 H885 0.930 . S
C895 C888 1.409 . S
C895 C894 1.362 . S
H896 C902 0.930 . S
H897 C905 0.930 . S
H898 C906 0.930 . S
H899 C907 0.930 . S
H900 C910 0.930 . S
H901 C911 0.930 . S
C902 H896 0.930 . S
C902 C903 1.355 . S
C902 C904 1.415 . S
C903 C902 1.355 . S
C903 C905 1.419 . S
C904 C902 1.415 . S
C904 C909 1.425 . S
C904 C911 1.409 . S
C905 H897 0.930 . S
C905 C903 1.419 . S
C905 C906 1.362 . S
C906 H898 0.930 . S
C906 C905 1.362 . S
C906 C909 1.409 . S
C907 H899 0.930 . S
C907 C908 1.355 . S
C907 C909 1.415 . S
C908 C907 1.355 . S
C908 C910 1.419 . S
C909 C904 1.425 . S
C909 C906 1.409 . S
C909 C907 1.415 . S
C910 H900 0.930 . S
C910 C908 1.419 . S
C910 C911 1.362 . S
C911 H901 0.930 . S
C911 C904 1.409 . S
C911 C910 1.362 . S
H912 C918 0.930 . S
H913 C921 0.930 . S
H914 C922 0.930 . S
H915 C923 0.930 . S
H916 C926 0.930 . S
H917 C927 0.930 . S
C918 H912 0.930 . S
C918 C919 1.355 . S
C918 C920 1.415 . S
C919 C918 1.355 . S
C919 C921 1.419 . S
C920 C918 1.415 . S
C920 C925 1.425 . S
C920 C927 1.409 . S
C921 H913 0.930 . S
C921 C919 1.419 . S
C921 C922 1.362 . S
C922 H914 0.930 . S
C922 C921 1.362 . S
C922 C925 1.409 . S
C923 H915 0.930 . S
C923 C924 1.355 . S
C923 C925 1.415 . S
C924 C923 1.355 . S
C924 C926 1.419 . S
C925 C920 1.425 . S
C925 C922 1.409 . S
C925 C923 1.415 . S
C926 H916 0.930 . S
C926 C924 1.419 . S
C926 C927 1.362 . S
C927 H917 0.930 . S
C927 C920 1.409 . S
C927 C926 1.362 . S
H928 C934 0.930 . S
H929 C937 0.930 . S
H930 C938 0.930 . S
H931 C939 0.930 . S
H932 C942 0.930 . S
H933 C943 0.930 . S
C934 H928 0.930 . S
C934 C935 1.355 . S
C934 C936 1.415 . S
C935 C934 1.355 . S
C935 C937 1.419 . S
C936 C934 1.415 . S
C936 C941 1.425 . S
C936 C943 1.409 . S
C937 H929 0.930 . S
C937 C935 1.419 . S
C937 C938 1.362 . S
C938 H930 0.930 . S
C938 C937 1.362 . S
C938 C941 1.409 . S
C939 H931 0.930 . S
C939 C940 1.355 . S
C939 C941 1.415 . S
C940 C939 1.355 . S
C940 C942 1.419 . S
C941 C936 1.425 . S
C941 C938 1.409 . S
C941 C939 1.415 . S
C942 H932 0.930 . S
C942 C940 1.419 . S
C942 C943 1.362 . S
C943 H933 0.930 . S
C943 C936 1.409 . S
C943 C942 1.362 . S
H944 C950 0.930 . S
H945 C953 0.930 . S
H946 C954 0.930 . S
H947 C955 0.930 1_455 S
H948 C958 0.930 . S
H949 C959 0.930 . S
C950 H944 0.930 . S
C950 C951 1.355 . S
C950 C952 1.415 . S
C951 C950 1.355 . S
C951 C953 1.419 . S
C952 C950 1.415 . S
C952 C957 1.425 . S
C952 C959 1.409 . S
C953 H945 0.930 . S
C953 C951 1.419 . S
C953 C954 1.362 . S
C954 H946 0.930 . S
C954 C953 1.362 . S
C954 C957 1.409 . S
C955 H947 0.930 1_655 S
C955 C956 1.355 . S
C955 C957 1.415 . S
C956 C955 1.355 . S
C956 C958 1.419 . S
C957 C952 1.425 . S
C957 C954 1.409 . S
C957 C955 1.415 . S
C958 H948 0.930 . S
C958 C956 1.419 . S
C958 C959 1.362 . S
C959 H949 0.930 . S
C959 C952 1.409 . S
C959 C958 1.362 . S
H960 C966 0.930 . S
H961 C969 0.930 1_545 S
H962 C970 0.930 . S
H963 C971 0.930 . S
H964 C974 0.930 . S
H965 C975 0.930 . S
C966 H960 0.930 . S
C966 C967 1.355 . S
C966 C968 1.415 . S
C967 C966 1.355 . S
C967 C969 1.419 . S
C968 C966 1.415 . S
C968 C973 1.425 . S
C968 C975 1.409 . S
C969 H961 0.930 1_565 S
C969 C967 1.419 . S
C969 C970 1.362 . S
C970 H962 0.930 . S
C970 C969 1.362 . S
C970 C973 1.409 . S
C971 H963 0.930 . S
C971 C972 1.355 . S
C971 C973 1.415 . S
C972 C971 1.355 . S
C972 C974 1.419 . S
C973 C968 1.425 . S
C973 C970 1.409 . S
C973 C971 1.415 . S
C974 H964 0.930 . S
C974 C972 1.419 . S
C974 C975 1.362 . S
C975 H965 0.930 . S
C975 C968 1.409 . S
C975 C974 1.362 . S
H976 C982 0.930 . S
H977 C985 0.930 . S
H978 C986 0.930 . S
H979 C987 0.930 . S
H980 C990 0.930 . S
H981 C991 0.930 . S
C982 H976 0.930 . S
C982 C983 1.355 . S
C982 C984 1.415 . S
C983 C982 1.355 . S
C983 C985 1.419 . S
C984 C982 1.415 . S
C984 C989 1.425 . S
C984 C991 1.409 . S
C985 H977 0.930 . S
C985 C983 1.419 . S
C985 C986 1.362 . S
C986 H978 0.930 . S
C986 C985 1.362 . S
C986 C989 1.409 . S
C987 H979 0.930 . S
C987 C988 1.355 . S
C987 C989 1.415 . S
C988 C987 1.355 . S
C988 C990 1.419 . S
C989 C984 1.425 . S
C989 C986 1.409 . S
C989 C987 1.415 . S
C990 H980 0.930 . S
C990 C988 1.419 . S
C990 C991 1.362 . S
C991 H981 0.930 . S
C991 C984 1.409 . S
C991 C990 1.362 . S
H992 C998 0.930 . S
H993 C1001 0.930 . S
H994 C1002 0.930 . S
H995 C1003 0.930 . S
H996 C1006 0.930 . S
H997 C1007 0.930 . S
C998 H992 0.930 . S
C998 C999 1.355 . S
C998 C1000 1.415 . S
C999 C998 1.355 . S
C999 C1001 1.419 . S
C1000 C998 1.415 . S
C1000 C1005 1.425 . S
C1000 C1007 1.409 . S
C1001 H993 0.930 . S
C1001 C999 1.419 . S
C1001 C1002 1.362 . S
C1002 H994 0.930 . S
C1002 C1001 1.362 . S
C1002 C1005 1.409 . S
C1003 H995 0.930 . S
C1003 C1004 1.355 . S
C1003 C1005 1.415 . S
C1004 C1003 1.355 . S
C1004 C1006 1.419 . S
C1005 C1000 1.425 . S
C1005 C1002 1.409 . S
C1005 C1003 1.415 . S
C1006 H996 0.930 . S
C1006 C1004 1.419 . S
C1006 C1007 1.362 . S
C1007 H997 0.930 . S
C1007 C1000 1.409 . S
C1007 C1006 1.362 . S
H1008 C1014 0.930 1_455 S
H1009 C1017 0.930 . S
H1010 C1018 0.930 . S
H1011 C1019 0.930 . S
H1012 C1022 0.930 . S
H1013 C1023 0.930 . S
C1014 H1008 0.930 1_655 S
C1014 C1015 1.355 . S
C1014 C1016 1.415 . S
C1015 C1014 1.355 . S
C1015 C1017 1.419 . S
C1016 C1014 1.415 . S
C1016 C1021 1.425 . S
C1016 C1023 1.409 . S
C1017 H1009 0.930 . S
C1017 C1015 1.419 . S
C1017 C1018 1.362 . S
C1018 H1010 0.930 . S
C1018 C1017 1.362 . S
C1018 C1021 1.409 . S
C1019 H1011 0.930 . S
C1019 C1020 1.355 . S
C1019 C1021 1.415 . S
C1020 C1019 1.355 . S
C1020 C1022 1.419 . S
C1021 C1016 1.425 . S
C1021 C1018 1.409 . S
C1021 C1019 1.415 . S
C1022 H1012 0.930 . S
C1022 C1020 1.419 . S
C1022 C1023 1.362 . S
C1023 H1013 0.930 . S
C1023 C1016 1.409 . S
C1023 C1022 1.362 . S
H1024 C1030 0.930 . S
H1025 C1033 0.930 . S
H1026 C1034 0.930 . S
H1027 C1035 0.930 . S
H1028 C1038 0.930 . S
H1029 C1039 0.930 . S
C1030 H1024 0.930 . S
C1030 C1031 1.355 . S
C1030 C1032 1.415 . S
C1031 C1030 1.355 . S
C1031 C1033 1.419 . S
C1032 C1030 1.415 . S
C1032 C1037 1.425 . S
C1032 C1039 1.409 . S
C1033 H1025 0.930 . S
C1033 C1031 1.419 . S
C1033 C1034 1.362 . S
C1034 H1026 0.930 . S
C1034 C1033 1.362 . S
C1034 C1037 1.409 . S
C1035 H1027 0.930 . S
C1035 C1036 1.355 . S
C1035 C1037 1.415 . S
C1036 C1035 1.355 . S
C1036 C1038 1.419 1_565 S
C1037 C1032 1.425 . S
C1037 C1034 1.409 . S
C1037 C1035 1.415 . S
C1038 H1028 0.930 . S
C1038 C1036 1.419 1_545 S
C1038 C1039 1.362 1_545 S
C1039 H1029 0.930 . S
C1039 C1032 1.409 . S
C1039 C1038 1.362 1_565 S
H1040 C1046 0.930 . S
H1041 C1049 0.930 . S
H1042 C1050 0.930 . S
H1043 C1051 0.930 . S
H1044 C1054 0.930 . S
H1045 C1055 0.930 . S
C1046 H1040 0.930 . S
C1046 C1047 1.355 . S
C1046 C1048 1.415 . S
C1047 C1046 1.355 . S
C1047 C1049 1.419 . S
C1048 C1046 1.415 . S
C1048 C1053 1.425 . S
C1048 C1055 1.409 . S
C1049 H1041 0.930 . S
C1049 C1047 1.419 . S
C1049 C1050 1.362 . S
C1050 H1042 0.930 . S
C1050 C1049 1.362 . S
C1050 C1053 1.409 . S
C1051 H1043 0.930 . S
C1051 C1052 1.355 . S
C1051 C1053 1.415 . S
C1052 C1051 1.355 . S
C1052 C1054 1.419 . S
C1053 C1048 1.425 . S
C1053 C1050 1.409 . S
C1053 C1051 1.415 . S
C1054 H1044 0.930 . S
C1054 C1052 1.419 . S
C1054 C1055 1.362 . S
C1055 H1045 0.930 . S
C1055 C1048 1.409 . S
C1055 C1054 1.362 . S
H1056 C1062 0.930 . S
H1057 C1065 0.930 . S
H1058 C1066 0.930 . S
H1059 C1067 0.930 . S
H1060 C1070 0.930 . S
H1061 C1071 0.930 . S
C1062 H1056 0.930 . S
C1062 C1063 1.355 . S
C1062 C1064 1.415 . S
C1063 C1062 1.355 . S
C1063 C1065 1.419 . S
C1064 C1062 1.415 . S
C1064 C1069 1.425 . S
C1064 C1071 1.409 . S
C1065 H1057 0.930 . S
C1065 C1063 1.419 . S
C1065 C1066 1.362 . S
C1066 H1058 0.930 . S
C1066 C1065 1.362 . S
C1066 C1069 1.409 . S
C1067 H1059 0.930 . S
C1067 C1068 1.355 . S
C1067 C1069 1.415 . S
C1068 C1067 1.355 . S
C1068 C1070 1.419 . S
C1069 C1064 1.425 . S
C1069 C1066 1.409 . S
C1069 C1067 1.415 . S
C1070 H1060 0.930 . S
C1070 C1068 1.419 . S
C1070 C1071 1.362 . S
C1071 H1061 0.930 . S
C1071 C1064 1.409 . S
C1071 C1070 1.362 . S
H1072 C1078 0.930 . S
H1073 C1081 0.930 . S
H1074 C1082 0.930 . S
H1075 C1083 0.930 . S
H1076 C1086 0.930 . S
H1077 C1087 0.930 . S
C1078 H1072 0.930 . S
C1078 C1079 1.355 . S
C1078 C1080 1.415 . S
C1079 C1078 1.355 . S
C1079 C1081 1.419 . S
C1080 C1078 1.415 . S
C1080 C1085 1.425 . S
C1080 C1087 1.409 . S
C1081 H1073 0.930 . S
C1081 C1079 1.419 . S
C1081 C1082 1.362 . S
C1082 H1074 0.930 . S
C1082 C1081 1.362 . S
C1082 C1085 1.409 . S
C1083 H1075 0.930 . S
C1083 C1084 1.355 . S
C1083 C1085 1.415 . S
C1084 C1083 1.355 . S
C1084 C1086 1.419 . S
C1085 C1080 1.425 . S
C1085 C1082 1.409 . S
C1085 C1083 1.415 . S
C1086 H1076 0.930 . S
C1086 C1084 1.419 . S
C1086 C1087 1.362 . S
C1087 H1077 0.930 . S
C1087 C1080 1.409 . S
C1087 C1086 1.362 . S
H1088 C1094 0.930 . S
H1089 C1097 0.930 . S
H1090 C1098 0.930 . S
H1091 C1099 0.930 . S
H1092 C1102 0.930 . S
H1093 C1103 0.930 . S
C1094 H1088 0.930 . S
C1094 C1095 1.355 . S
C1094 C1096 1.415 . S
C1095 C1094 1.355 . S
C1095 C1097 1.419 . S
C1096 C1094 1.415 . S
C1096 C1101 1.425 . S
C1096 C1103 1.409 . S
C1097 H1089 0.930 . S
C1097 C1095 1.419 . S
C1097 C1098 1.362 . S
C1098 H1090 0.930 . S
C1098 C1097 1.362 . S
C1098 C1101 1.409 . S
C1099 H1091 0.930 . S
C1099 C1100 1.355 . S
C1099 C1101 1.415 . S
C1100 C1099 1.355 . S
C1100 C1102 1.419 . S
C1101 C1096 1.425 . S
C1101 C1098 1.409 . S
C1101 C1099 1.415 . S
C1102 H1092 0.930 . S
C1102 C1100 1.419 . S
C1102 C1103 1.362 . S
C1103 H1093 0.930 . S
C1103 C1096 1.409 . S
C1103 C1102 1.362 . S
H1104 C1110 0.930 . S
H1105 C1113 0.930 . S
H1106 C1114 0.930 . S
H1107 C1115 0.930 . S
H1108 C1118 0.930 . S
H1109 C1119 0.930 . S
C1110 H1104 0.930 . S
C1110 C1111 1.355 . S
C1110 C1112 1.415 . S
C1111 C1110 1.355 . S
C1111 C1113 1.419 . S
C1112 C1110 1.415 . S
C1112 C1117 1.425 . S
C1112 C1119 1.409 . S
C1113 H1105 0.930 . S
C1113 C1111 1.419 . S
C1113 C1114 1.362 . S
C1114 H1106 0.930 . S
C1114 C1113 1.362 . S
C1114 C1117 1.409 . S
C1115 H1107 0.930 . S
C1115 C1116 1.355 . S
C1115 C1117 1.415 . S
C1116 C1115 1.355 . S
C1116 C1118 1.419 . S
C1117 C1112 1.425 . S
C1117 C1114 1.409 . S
C1117 C1115 1.415 . S
C1118 H1108 0.930 . S
C1118 C1116 1.419 . S
C1118 C1119 1.362 . S
C1119 H1109 0.930 . S
C1119 C1112 1.409 . S
C1119 C1118 1.362 . S
H1120 C1126 0.930 . S
H1121 C1129 0.930 . S
H1122 C1130 0.930 . S
H1123 C1131 0.930 . S
H1124 C1134 0.930 . S
H1125 C1135 0.930 . S
C1126 H1120 0.930 . S
C1126 C1127 1.355 . S
C1126 C1128 1.415 . S
C1127 C1126 1.355 . S
C1127 C1129 1.419 . S
C1128 C1126 1.415 . S
C1128 C1133 1.425 . S
C1128 C1135 1.409 . S
C1129 H1121 0.930 . S
C1129 C1127 1.419 . S
C1129 C1130 1.362 . S
C1130 H1122 0.930 . S
C1130 C1129 1.362 . S
C1130 C1133 1.409 . S
C1131 H1123 0.930 . S
C1131 C1132 1.355 . S
C1131 C1133 1.415 . S
C1132 C1131 1.355 . S
C1132 C1134 1.419 . S
C1133 C1128 1.425 . S
C1133 C1130 1.409 . S
C1133 C1131 1.415 . S
C1134 H1124 0.930 . S
C1134 C1132 1.419 . S
C1134 C1135 1.362 . S
C1135 H1125 0.930 . S
C1135 C1128 1.409 . S
C1135 C1134 1.362 . S
H1136 C1142 0.930 . S
H1137 C1145 0.930 . S
H1138 C1146 0.930 . S
H1139 C1147 0.930 . S
H1140 C1150 0.930 . S
H1141 C1151 0.930 . S
C1142 H1136 0.930 . S
C1142 C1143 1.355 . S
C1142 C1144 1.415 . S
C1143 C1142 1.355 . S
C1143 C1145 1.419 . S
C1144 C1142 1.415 . S
C1144 C1149 1.425 . S
C1144 C1151 1.409 . S
C1145 H1137 0.930 . S
C1145 C1143 1.419 . S
C1145 C1146 1.362 . S
C1146 H1138 0.930 . S
C1146 C1145 1.362 . S
C1146 C1149 1.409 . S
C1147 H1139 0.930 . S
C1147 C1148 1.355 . S
C1147 C1149 1.415 . S
C1148 C1147 1.355 . S
C1148 C1150 1.419 . S
C1149 C1144 1.425 . S
C1149 C1146 1.409 . S
C1149 C1147 1.415 . S
C1150 H1140 0.930 . S
C1150 C1148 1.419 . S
C1150 C1151 1.362 . S
C1151 H1141 0.930 . S
C1151 C1144 1.409 . S
C1151 C1150 1.362 . S
H1152 C1158 0.930 . S
H1153 C1161 0.930 . S
H1154 C1162 0.930 . S
H1155 C1163 0.930 . S
H1156 C1166 0.930 . S
H1157 C1167 0.930 . S
C1158 H1152 0.930 . S
C1158 C1159 1.355 . S
C1158 C1160 1.415 . S
C1159 C1158 1.355 . S
C1159 C1161 1.419 . S
C1160 C1158 1.415 . S
C1160 C1165 1.425 . S
C1160 C1167 1.409 . S
C1161 H1153 0.930 . S
C1161 C1159 1.419 . S
C1161 C1162 1.362 . S
C1162 H1154 0.930 . S
C1162 C1161 1.362 . S
C1162 C1165 1.409 . S
C1163 H1155 0.930 . S
C1163 C1164 1.355 . S
C1163 C1165 1.415 . S
C1164 C1163 1.355 . S
C1164 C1166 1.419 . S
C1165 C1160 1.425 . S
C1165 C1162 1.409 . S
C1165 C1163 1.415 . S
C1166 H1156 0.930 . S
C1166 C1164 1.419 . S
C1166 C1167 1.362 . S
C1167 H1157 0.930 . S
C1167 C1160 1.409 . S
C1167 C1166 1.362 . S
C535 C21 1.495 . S
C540 C219 1.513 . S
C551 C252 1.476 . S
C556 C54 1.485 . S
C567 C153 1.477 . S
C572 C87 1.496 . S
C583 C186 1.477 . S
C588 C120 1.483 . S
C599 C285 1.476 . S
C604 C483 1.487 . S
C615 C318 1.495 . S
C620 C516 1.513 . S
C631 C351 1.480 . S
C636 C417 1.479 . S
C647 C450 1.511 . S
C652 C384 1.508 . S
C663 C7 1.405 . S
C668 N101 1.416 . S
C679 C40 1.470 . S
C684 N2 1.492 . S
C695 N35 1.485 . S
C700 C73 1.451 1_655 S
C711 C106 1.404 1_565 S
C716 N68 1.434 . S
C727 N167 1.463 . S
C732 C139 1.423 . S
C743 N200 1.412 . S
C748 C172 1.426 . S
C759 N233 1.412 . S
C764 C205 1.423 1_655 S
C775 N134 1.489 . S
C780 C238 1.460 1_565 S
C791 C271 1.446 . S
C796 N365 1.422 . S
C807 N266 1.492 . S
C812 C304 1.474 . S
C823 C337 1.405 . S
C828 N299 1.416 . S
C839 C370 1.440 . S
C844 N332 1.478 . S
C855 C403 1.402 . S
C860 N431 1.424 . S
C871 C436 1.427 . S
C876 N464 1.467 . S
C887 C469 1.442 . S
C892 N497 1.479 . S
C903 N398 1.444 . S
C908 C502 1.409 . S
C919 N508 1.300 . S
C924 N13 1.269 . S
C935 N46 1.310 . S
C940 N409 1.236 . S
C951 N442 1.305 . S
C956 N79 1.261 . S
C967 N112 1.304 . S
C972 N475 1.262 . S
C983 N310 1.289 . S
C988 N145 1.224 . S
C999 N178 1.265 . S
C1004 N343 1.234 . S
C1015 N211 1.232 . S
C1020 N376 1.308 . S
C1031 N277 1.225 . S
C1036 N244 1.302 . S
C1047 C150 1.552 . S
C1052 C381 1.545 . S
C1063 C183 1.536 . S
C1068 C282 1.528 . S
C1079 C216 1.523 . S
C1084 C315 1.531 . S
C1095 C348 1.526 . S
C1100 C249 1.519 . S
C1111 C18 1.516 . S
C1116 C447 1.523 . S
C1127 C480 1.526 . S
C1132 C51 1.534 . S
C1143 C84 1.553 . S
C1148 C513 1.559 . S
C1159 C117 1.519 . S
C1164 C414 1.526 . S
