# Generated by pormake.
# Topology sod, (4)-cn, num edge types: 1
# Building blocks:
#     Node 0, Type 0, BuildingBlock: QUQFOY_clean_sbu_3, # of connection points: 4
#     Node 1, Type 0, BuildingBlock: QUQFOY_clean_sbu_3, # of connection points: 4
#     Node 2, Type 0, BuildingBlock: QUQFOY_clean_sbu_3, # of connection points: 4
#     Node 3, Type 0, BuildingBlock: QUQFOY_clean_sbu_3, # of connection points: 4
#     Node 4, Type 0, BuildingBlock: QUQFOY_clean_sbu_3, # of connection points: 4
#     Node 5, Type 0, BuildingBlock: QUQFOY_clean_sbu_3, # of connection points: 4
#     Node 6, Type 0, BuildingBlock: QUQFOY_clean_sbu_3, # of connection points: 4
#     Node 7, Type 0, BuildingBlock: QUQFOY_clean_sbu_3, # of connection points: 4
#     Node 8, Type 0, BuildingBlock: QUQFOY_clean_sbu_3, # of connection points: 4
#     Node 9, Type 0, BuildingBlock: QUQFOY_clean_sbu_3, # of connection points: 4
#     Node 10, Type 0, BuildingBlock: QUQFOY_clean_sbu_3, # of connection points: 4
#     Node 11, Type 0, BuildingBlock: QUQFOY_clean_sbu_3, # of connection points: 4
#     Edge 12, Type (0, 0), BuildingBlock: UVAHIK_clean_linker_0, # of connection points: 2
#     Edge 13, Type (0, 0), BuildingBlock: UVAHIK_clean_linker_0, # of connection points: 2
#     Edge 14, Type (0, 0), BuildingBlock: UVAHIK_clean_linker_0, # of connection points: 2
#     Edge 15, Type (0, 0), BuildingBlock: UVAHIK_clean_linker_0, # of connection points: 2
#     Edge 16, Type (0, 0), BuildingBlock: UVAHIK_clean_linker_0, # of connection points: 2
#     Edge 17, Type (0, 0), BuildingBlock: UVAHIK_clean_linker_0, # of connection points: 2
#     Edge 18, Type (0, 0), BuildingBlock: UVAHIK_clean_linker_0, # of connection points: 2
#     Edge 19, Type (0, 0), BuildingBlock: UVAHIK_clean_linker_0, # of connection points: 2
#     Edge 20, Type (0, 0), BuildingBlock: UVAHIK_clean_linker_0, # of connection points: 2
#     Edge 21, Type (0, 0), BuildingBlock: UVAHIK_clean_linker_0, # of connection points: 2
#     Edge 22, Type (0, 0), BuildingBlock: UVAHIK_clean_linker_0, # of connection points: 2
#     Edge 23, Type (0, 0), BuildingBlock: UVAHIK_clean_linker_0, # of connection points: 2
#     Edge 24, Type (0, 0), BuildingBlock: UVAHIK_clean_linker_0, # of connection points: 2
#     Edge 25, Type (0, 0), BuildingBlock: UVAHIK_clean_linker_0, # of connection points: 2
#     Edge 26, Type (0, 0), BuildingBlock: UVAHIK_clean_linker_0, # of connection points: 2
#     Edge 27, Type (0, 0), BuildingBlock: UVAHIK_clean_linker_0, # of connection points: 2
#     Edge 28, Type (0, 0), BuildingBlock: UVAHIK_clean_linker_0, # of connection points: 2
#     Edge 29, Type (0, 0), BuildingBlock: UVAHIK_clean_linker_0, # of connection points: 2
#     Edge 30, Type (0, 0), BuildingBlock: UVAHIK_clean_linker_0, # of connection points: 2
#     Edge 31, Type (0, 0), BuildingBlock: UVAHIK_clean_linker_0, # of connection points: 2
#     Edge 32, Type (0, 0), BuildingBlock: UVAHIK_clean_linker_0, # of connection points: 2
#     Edge 33, Type (0, 0), BuildingBlock: UVAHIK_clean_linker_0, # of connection points: 2
#     Edge 34, Type (0, 0), BuildingBlock: UVAHIK_clean_linker_0, # of connection points: 2
#     Edge 35, Type (0, 0), BuildingBlock: UVAHIK_clean_linker_0, # of connection points: 2
# Relax obj value: 0.139
# Max RMSD: 0.179
# Mean RMSD: 0.168
data_MOF--net-sod--node1-QUQFOY_clean_sbu_3--edge1-UVAHIK_clean_linker_0
_symmetry_space_group_name_H-M    P1
_symmetry_Int_Tables_number       1
_symmetry_cell_setting            triclinic
loop_
_symmetry_equiv_pos_as_xyz
'x, y, z'
_cell_length_a     55.689937
_cell_length_b     56.203384
_cell_length_c     55.941468
_cell_angle_alpha  92.605824
_cell_angle_beta   90.115484
_cell_angle_gamma 91.546131
loop_
_atom_site_label
_atom_site_type_symbol
_atom_site_fract_x
_atom_site_fract_y
_atom_site_fract_z
_atom_type_partial_charge
C0 C -0.00546 0.21776 0.50665 0.0
O1 O 0.00125 0.2247 0.52759 0.0
Cd2 Cd 0.02682 0.25865 0.53656 0.0
O3 O 0.00185 0.22875 0.48845 0.0
Cd4 Cd 0.02927 0.26336 0.48121 0.0
C5 C 0.07651 0.23848 0.50813 0.0
O6 O 0.01121 0.28866 0.51197 0.0
O7 O 0.04376 0.30308 0.49709 0.0
O8 O 0.0058 0.2701 0.44514 0.0
C9 C 0.0255 0.30633 0.51019 0.0
O10 O 0.06744 0.24501 0.52815 0.0
C11 C 0.02404 0.27389 0.43211 0.0
O12 O 0.06542 0.24171 0.48872 0.0
O13 O 0.04448 0.27213 0.44181 0.0
C14 C 0.71271 0.04117 0.46151 0.0
O15 O 0.7181 0.06265 0.46782 0.0
Cd16 Cd 0.74804 0.07436 0.49694 0.0
O17 O 0.72345 0.02404 0.47076 0.0
Cd18 Cd 0.75537 0.01934 0.50106 0.0
C19 C 0.72329 0.04785 0.54474 0.0
O20 O 0.78158 0.05012 0.48577 0.0
O21 O 0.79317 0.03593 0.51887 0.0
O22 O 0.76756 0.98264 0.47971 0.0
C23 C 0.7978 0.049 0.5015 0.0
O24 O 0.72888 0.06755 0.53556 0.0
C25 C 0.76744 0.97038 0.49825 0.0
O26 O 0.72983 0.02828 0.53491 0.0
O27 O 0.76132 0.98086 0.51777 0.0
C28 C 0.925 0.78014 0.48596 0.0
O29 O 0.93479 0.77799 0.46551 0.0
Cd30 Cd 0.97061 0.75714 0.45644 0.0
O31 O 0.93437 0.77102 0.50414 0.0
Cd32 Cd 0.9705 0.74748 0.51214 0.0
C33 C 0.0097 0.78989 0.49241 0.0
O34 O 0.96467 0.72126 0.47713 0.0
O35 O -0.00295 0.71536 0.49676 0.0
O36 O 0.94911 0.72597 0.54289 0.0
C37 C 0.98293 0.70879 0.47979 0.0
O38 O 0.00364 0.7833 0.47113 0.0
C39 C 0.96495 0.73027 0.55899 0.0
O40 O -0.00047 0.78062 0.51022 0.0
O41 O 0.98281 0.74342 0.55355 0.0
C42 C 0.28461 0.96794 0.4731 0.0
O43 O 0.28134 0.94808 0.48274 0.0
Cd44 Cd 0.2535 0.94065 0.51403 0.0
O45 O 0.27327 0.98626 0.48058 0.0
Cd46 Cd 0.24327 -0.00501 0.51268 0.0
C47 C 0.27754 0.9764 0.55856 0.0
O48 O 0.21842 0.96055 0.50078 0.0
O49 O 0.20616 0.97986 0.53232 0.0
O50 O 0.22797 0.02807 0.49011 0.0
C51 C 0.20217 0.96362 0.51624 0.0
O52 O 0.27277 0.95492 0.55163 0.0
C53 C 0.22923 0.04302 0.50785 0.0
O54 O 0.27004 -0.00655 0.54669 0.0
O55 O 0.23722 0.03558 0.52731 0.0
C56 C 0.52891 -0.00817 0.28379 0.0
O57 O 0.52496 0.97032 0.27662 0.0
Cd58 Cd 0.49661 0.95847 0.2463 0.0
O59 O 0.51744 0.00863 0.27475 0.0
Cd60 Cd 0.48591 0.01224 0.24351 0.0
C61 C 0.44646 0.97852 0.27437 0.0
O62 O 0.50596 0.9858 0.21539 0.0
O63 O 0.47042 -0.00499 0.20454 0.0
O64 O 0.50355 0.05176 0.23659 0.0
C65 C 0.49027 0.98572 0.19906 0.0
O66 O 0.45781 0.96028 0.26697 0.0
C67 C 0.48346 0.0617 0.23465 0.0
O68 O 0.45367 -0.00076 0.26908 0.0
O69 O 0.46476 0.0487 0.23729 0.0
C70 C 0.03637 0.52461 0.21361 0.0
O71 O 0.02657 0.5441 0.21975 0.0
Cd72 Cd -0.00162 0.55001 0.25121 0.0
O73 O 0.03057 0.50538 0.22375 0.0
Cd74 Cd 0.00145 0.49433 0.25555 0.0
C75 C 0.95209 0.51625 0.22826 0.0
O76 O 0.01573 0.52694 0.28157 0.0
O77 O 0.98638 0.50691 0.2962 0.0
O78 O 0.02556 0.45994 0.26506 0.0
C79 C 0.00241 0.52319 0.29928 0.0
O80 O 0.95921 0.53727 0.23466 0.0
C81 C 0.00769 0.44536 0.2647 0.0
O82 O 0.96483 0.49853 0.23264 0.0
O83 O 0.98744 0.45356 0.25952 0.0
C84 C 0.54276 0.03262 0.72667 0.0
O85 O 0.53316 0.05167 0.73451 0.0
Cd86 Cd 0.50355 0.05406 0.7651 0.0
O87 O 0.53633 0.01253 0.7347 0.0
Cd88 Cd 0.5065 -0.00112 0.76469 0.0
C89 C 0.4584 0.02224 0.7373 0.0
O90 O 0.51908 0.02882 0.79491 0.0
O91 O 0.48732 0.00854 0.80384 0.0
O92 O 0.53055 0.96422 0.77336 0.0
C93 C 0.50383 0.02331 0.81053 0.0
O94 O 0.46504 0.04278 0.74572 0.0
C95 C 0.51302 0.94935 0.77086 0.0
O96 O 0.47111 0.00427 0.74067 0.0
O97 O 0.49301 0.95754 0.76486 0.0
C98 C 0.03891 0.49049 0.78489 0.0
O99 O 0.03378 0.4687 0.77978 0.0
Cd100 Cd 0.0041 0.45543 0.7512 0.0
O101 O 0.02799 0.50689 0.77461 0.0
Cd102 Cd -0.00408 0.50892 0.74378 0.0
C103 C 0.95501 0.48001 0.77744 0.0
O104 O 0.01294 0.47889 0.71722 0.0
O105 O 0.97731 0.48902 0.70748 0.0
O106 O 0.01514 0.54453 0.72813 0.0
C107 C -0.00366 0.47829 0.70176 0.0
O108 O 0.96557 0.46083 0.7715 0.0
C109 C -0.00362 0.55687 0.7291 0.0
O110 O 0.96315 0.49991 0.77063 0.0
O111 O 0.97766 0.54715 0.73767 0.0
C112 C 0.2227 0.54372 0.96162 0.0
O113 O 0.22703 0.56511 0.969 0.0
Cd114 Cd 0.2548 0.57614 0.00038 0.0
O115 O 0.23358 0.52659 0.97071 0.0
Cd116 Cd 0.26445 0.52129 0.00193 0.0
C117 C 0.22853 0.5454 0.04493 0.0
O118 O 0.29001 0.55411 0.98974 0.0
O119 O 0.30064 0.53834 0.02237 0.0
O120 O 0.27781 0.48639 0.97832 0.0
C121 C 0.30551 0.55269 0.00613 0.0
O122 O 0.23356 0.56582 0.03703 0.0
C123 C 0.27877 0.47313 -0.00391 0.0
O124 O 0.23672 0.52671 0.03468 0.0
O125 O 0.27277 0.48227 0.01628 0.0
C126 C 0.42545 0.27104 0.98937 0.0
O127 O 0.43473 0.26419 0.96961 0.0
Cd128 Cd 0.46956 0.24071 0.96553 0.0
O129 O 0.43465 0.26538 0.00918 0.0
Cd130 Cd 0.46968 0.24197 0.02126 0.0
C131 C 0.50917 0.2791 -0.00555 0.0
O132 O 0.46243 0.20916 -0.00758 0.0
O133 O 0.4969 0.20916 0.00981 0.0
O134 O 0.44873 0.22848 0.05692 0.0
C135 C 0.48139 0.19818 -0.00347 0.0
O136 O 0.50367 0.26838 0.97457 0.0
C137 C 0.46607 0.23397 0.0711 0.0
O138 O 0.49835 0.27375 0.01352 0.0
O139 O 0.48447 0.2439 0.06214 0.0
C140 C 0.78044 0.46805 0.96485 0.0
O141 O 0.77716 0.44755 0.97317 0.0
Cd142 Cd 0.74872 0.43733 0.00311 0.0
O143 O 0.76861 0.48578 0.97301 0.0
Cd144 Cd 0.73757 0.49234 0.00455 0.0
C145 C 0.77101 0.47111 0.05 0.0
O146 O 0.71384 0.45783 0.99048 0.0
O147 O 0.69995 0.47594 0.02197 0.0
O148 O 0.72271 0.52691 0.98393 0.0
C149 C 0.69707 0.45984 0.00554 0.0
O150 O 0.76696 0.44992 0.04174 0.0
C151 C 0.72379 0.54074 0.00255 0.0
O152 O 0.76335 0.48869 0.03902 0.0
O153 O 0.73132 0.53199 0.02157 0.0
C154 C 0.4999 0.72496 0.01315 0.0
O155 O 0.50753 0.73251 0.0336 0.0
Cd156 Cd 0.53346 0.76651 0.04052 0.0
O157 O 0.50646 0.73528 -0.00572 0.0
Cd158 Cd 0.53397 0.76937 0.98515 0.0
C159 C 0.58179 0.74458 0.01136 0.0
O160 O 0.51656 0.79555 0.01545 0.0
O161 O 0.54859 0.80974 -0.00064 0.0
O162 O 0.51006 0.77486 0.94899 0.0
C163 C 0.53049 0.81329 0.01261 0.0
O164 O 0.5736 0.75182 0.03155 0.0
C165 C 0.5282 0.77822 0.93569 0.0
O166 O 0.57006 0.74759 -0.00771 0.0
O167 O 0.54871 0.77678 0.94533 0.0
C168 C 0.04192 0.29122 0.39569 0.0
C169 C 0.02169 0.28213 0.40753 0.0
C170 C 0.03938 0.30243 0.37411 0.0
C171 C -0.00614 0.33545 0.34283 0.0
H172 H 0.04428 0.34092 0.2955 0.0
C173 C 0.98921 0.4055 0.27243 0.0
C174 C 0.00973 0.4206 0.27215 0.0
C175 C -0.01001 0.38356 0.28307 0.0
C176 C 0.03001 0.33946 0.30852 0.0
H177 H 0.98317 0.27585 0.40512 0.0
H178 H 0.97876 0.29482 0.36705 0.0
H179 H 0.04625 0.31018 0.32494 0.0
H180 H 0.04761 0.42379 0.28114 0.0
H181 H 0.04893 0.38547 0.2999 0.0
H182 H 0.97794 0.36502 0.32687 0.0
C183 C -0.00347 0.29395 0.37479 0.0
C184 C 0.03114 0.32192 0.32542 0.0
C185 C -0.00094 0.28296 0.39654 0.0
C186 C 0.03148 0.41258 0.28118 0.0
C187 C 0.03226 0.39057 0.29181 0.0
C188 C -0.00737 0.35277 0.32584 0.0
C189 C 0.01655 0.30459 0.36375 0.0
C190 C 0.01344 0.32019 0.34325 0.0
C191 C 0.01131 0.37624 0.2936 0.0
C192 C 0.01101 0.35541 0.30893 0.0
H193 H 0.05963 0.29081 0.40368 0.0
H194 H 0.05518 0.3106 0.36635 0.0
H195 H 0.98011 0.33502 0.35647 0.0
H196 H 0.97222 0.41106 0.26538 0.0
H197 H 0.97365 0.37271 0.2839 0.0
C198 C 0.68748 0.01251 0.43588 0.0
C199 C 0.69373 0.03609 0.44333 0.0
C200 C 0.6695 0.00783 0.41874 0.0
C201 C 0.61696 0.03448 0.39139 0.0
H202 H 0.62655 0.98637 0.34067 0.0
C203 C 0.55294 0.02093 0.31016 0.0
C204 C 0.54723 -0.00273 0.30255 0.0
C205 C 0.57066 0.02588 0.32754 0.0
C206 C 0.6235 -0.00031 0.35487 0.0
H207 H 0.68599 0.07325 0.43856 0.0
H208 H 0.6548 0.06504 0.40857 0.0
H209 H 0.65782 -0.00559 0.37072 0.0
H210 H 0.55544 0.96025 0.30751 0.0
H211 H 0.58606 0.96891 0.3379 0.0
H212 H 0.58261 0.03974 0.37553 0.0
C213 C 0.66361 0.05018 0.41618 0.0
C214 C 0.6414 0.00427 0.37208 0.0
C215 C 0.6816 0.05487 0.43327 0.0
C216 C 0.55946 0.97869 0.31284 0.0
C217 C 0.57713 0.98364 0.33018 0.0
C218 C 0.59904 0.02989 0.37418 0.0
C219 C 0.65737 0.02662 0.40874 0.0
C220 C 0.63831 0.0217 0.39053 0.0
C221 C 0.58302 0.00728 0.33763 0.0
C222 C 0.60211 0.01241 0.35577 0.0
H223 H 0.69643 -0.00237 0.4433 0.0
H224 H 0.66488 0.98947 0.41354 0.0
H225 H 0.61394 0.04781 0.40559 0.0
H226 H 0.54389 0.03565 0.30255 0.0
H227 H 0.57498 0.04429 0.33277 0.0
C228 C 0.9871 0.5374 0.33955 0.0
C229 C 0.004 0.53904 0.32103 0.0
C230 C 0.98778 0.55401 0.35899 0.0
C231 C 0.00631 0.61578 0.37207 0.0
H232 H -0.0044 0.60207 0.43861 0.0
C233 C 0.97509 0.68602 0.4413 0.0
C234 C 0.98782 0.68852 0.463 0.0
C235 C 0.97922 0.66693 0.42525 0.0
C236 C -0.00117 0.60606 0.42011 0.0
H237 H 0.03566 0.55845 0.30903 0.0
H238 H 0.03674 0.58727 0.34277 0.0
H239 H -0.00079 0.5691 0.40854 0.0
H240 H 0.01467 0.67288 0.48511 0.0
H241 H 0.02168 0.63898 0.4569 0.0
H242 H 0.00541 0.6526 0.38337 0.0
C243 C 0.02282 0.57342 0.34215 0.0
C244 C 0.00069 0.58728 0.40294 0.0
C245 C 0.02218 0.55687 0.32285 0.0
C246 C 0.0047 0.67141 0.46844 0.0
C247 C 0.0086 0.65201 0.45243 0.0
C248 C 0.00419 0.63445 0.38909 0.0
C249 C 0.00532 0.57252 0.36011 0.0
C250 C 0.00432 0.59202 0.37875 0.0
C251 C -0.00402 0.64976 0.43064 0.0
C252 C 0.00018 0.62978 0.4132 0.0
H253 H 0.97297 0.52377 0.33866 0.0
H254 H 0.97401 0.553 0.37257 0.0
H255 H 0.00886 0.61997 0.35351 0.0
H256 H 0.96196 0.69892 0.43661 0.0
H257 H 0.96911 0.66546 0.40865 0.0
C258 C 0.31261 0.9488 0.44361 0.0
C259 C 0.30098 0.9693 0.45235 0.0
C260 C 0.32724 0.94954 0.42345 0.0
C261 C 0.33934 0.98392 0.36998 0.0
H262 H 0.39901 0.94986 0.36893 0.0
C263 C 0.41336 -0.00385 0.29899 0.0
C264 C 0.42609 0.976 0.29111 0.0
C265 C 0.39628 -0.00544 0.31711 0.0
C266 C 0.38223 0.95916 0.36879 0.0
H267 H 0.29586 0.00679 0.44683 0.0
H268 H 0.32179 0.00816 0.41173 0.0
H269 H 0.37373 0.94945 0.40435 0.0
H270 H 0.42989 0.93808 0.29523 0.0
H271 H 0.39988 0.9353 0.32679 0.0
H272 H 0.3481 -0.00615 0.33445 0.0
C273 C 0.31925 -0.00858 0.42035 0.0
C274 C 0.36776 0.95898 0.38912 0.0
C275 C 0.30454 0.99067 0.44056 0.0
C276 C 0.4205 0.95397 0.30095 0.0
C277 C 0.40344 0.9524 0.31915 0.0
C278 C 0.35387 0.98414 0.34963 0.0
C279 C 0.33069 0.97082 0.41153 0.0
C280 C 0.34616 0.97135 0.38996 0.0
C281 C 0.39156 0.9728 0.32779 0.0
C282 C 0.37547 0.97176 0.34884 0.0
H283 H 0.31021 0.93199 0.45215 0.0
H284 H 0.33551 0.93328 0.41695 0.0
H285 H 0.32263 -0.00667 0.36994 0.0
H286 H 0.41715 0.0134 0.29174 0.0
H287 H 0.38754 0.01063 0.32346 0.0
C288 C 0.97542 0.59466 0.72156 0.0
C289 C -0.00442 0.58034 0.71833 0.0
C290 C 0.97286 0.61488 0.70822 0.0
C291 C 0.98603 0.63283 0.6493 0.0
H292 H 0.96923 0.69695 0.67049 0.0
C293 C 0.94897 0.69815 0.58438 0.0
C294 C 0.96419 0.71822 0.58189 0.0
C295 C 0.95139 0.68394 0.60401 0.0
C296 C 0.97385 0.67907 0.66446 0.0
H297 H 0.02955 0.57675 0.69977 0.0
H298 H 0.02474 0.61177 0.6761 0.0
H299 H 0.97847 0.66747 0.70025 0.0
H300 H -0.00749 0.74027 0.59889 0.0
H301 H -0.0037 0.71556 0.63359 0.0
H302 H 0.98088 0.64402 0.61366 0.0
C303 C 0.01105 0.60737 0.68903 0.0
C304 C 0.97912 0.66231 0.68137 0.0
C305 C 0.01379 0.58739 0.70261 0.0
C306 C 0.98061 0.72483 0.60031 0.0
C307 C 0.98274 0.7108 0.62017 0.0
C308 C 0.98029 0.64933 0.63252 0.0
C309 C -0.00975 0.62085 0.69124 0.0
C310 C 0.98538 0.63911 0.67385 0.0
C311 C 0.96875 0.6898 0.62169 0.0
C312 C 0.97415 0.67255 0.63993 0.0
H313 H 0.96115 0.5897 0.73365 0.0
H314 H 0.95663 0.62499 0.71012 0.0
H315 H -0.00946 0.61496 0.64311 0.0
H316 H 0.93615 0.6926 0.5705 0.0
H317 H 0.94035 0.66784 0.60494 0.0
C318 C 0.42341 0.03871 0.71557 0.0
C319 C 0.43616 0.01902 0.72284 0.0
C320 C 0.40337 0.03539 0.70053 0.0
C321 C 0.35874 0.98984 0.67727 0.0
H322 H 0.35693 0.02903 0.62206 0.0
C323 C 0.30339 0.96362 0.59225 0.0
C324 C 0.29242 0.98186 0.58018 0.0
C325 C 0.31855 0.96912 0.6118 0.0
C326 C 0.3569 0.01817 0.63757 0.0
H327 H 0.43733 0.98038 0.72066 0.0
H328 H 0.40268 0.9747 0.69443 0.0
H329 H 0.38728 0.03738 0.65289 0.0
H330 H 0.28808 0.02013 0.57978 0.0
H331 H 0.31423 0.02961 0.61394 0.0
H332 H 0.32861 0.97035 0.66168 0.0
C333 C 0.40798 -0.00733 0.70046 0.0
C334 C 0.3743 0.02299 0.65526 0.0
C335 C 0.428 -0.00403 0.71536 0.0
C336 C 0.29641 0.00563 0.58851 0.0
C337 C 0.31149 0.0111 0.60805 0.0
C338 C 0.34131 0.98503 0.65958 0.0
C339 C 0.39563 0.01233 0.6926 0.0
C340 C 0.37565 0.00866 0.67512 0.0
C341 C 0.323 -0.00705 0.61972 0.0
C342 C 0.34041 -0.00106 0.63936 0.0
H343 H 0.42918 0.05669 0.72107 0.0
H344 H 0.39405 0.05088 0.69495 0.0
H345 H 0.35912 0.97869 0.69255 0.0
H346 H 0.30072 0.94513 0.58629 0.0
H347 H 0.32735 0.95473 0.62025 0.0
C348 C 5e-05 0.33288 0.53574 0.0
C349 C 0.02243 0.32828 0.52519 0.0
C350 C -0.00264 0.35253 0.55157 0.0
C351 C 0.03131 0.3879 0.5956 0.0
H352 H 0.97783 0.43071 0.59545 0.0
C353 C 0.02214 0.46028 0.67003 0.0
C354 C -0.00096 0.46472 0.67881 0.0
C355 C 0.02522 0.4465 0.64898 0.0
C356 C -0.00727 0.41875 0.5959 0.0
H357 H 0.05934 0.34102 0.52224 0.0
H358 H 0.05476 0.37518 0.55049 0.0
H359 H 0.98278 0.40154 0.56216 0.0
H360 H 0.96096 0.45876 0.67231 0.0
H361 H 0.96627 0.43361 0.636 0.0
H362 H 0.04069 0.40387 0.62972 0.0
C363 C 0.03931 0.3636 0.54632 0.0
C364 C -0.00437 0.4022 0.57676 0.0
C365 C 0.04191 0.34413 0.53015 0.0
C366 C 0.97898 0.45558 0.66587 0.0
C367 C 0.98206 0.44132 0.64498 0.0
C368 C 0.02822 0.40412 0.61487 0.0
C369 C 0.01709 0.36774 0.55741 0.0
C370 C 0.0149 0.38658 0.57652 0.0
C371 C 0.00528 0.43634 0.63646 0.0
C372 C 0.00885 0.41973 0.61536 0.0
H373 H 0.98468 0.32102 0.53211 0.0
H374 H 0.98011 0.35523 0.56003 0.0
H375 H 0.04606 0.37574 0.59606 0.0
H376 H 0.03792 0.46746 0.67947 0.0
H377 H 0.04333 0.44368 0.64266 0.0
C378 C 0.57368 0.01362 0.6999 0.0
C379 C 0.56191 0.0341 0.70847 0.0
C380 C 0.59213 0.01538 0.6831 0.0
C381 C 0.61632 0.05479 0.63748 0.0
H382 H 0.67424 0.01884 0.64407 0.0
C383 C 0.69761 0.0683 0.57577 0.0
C384 C 0.70779 0.04737 0.56617 0.0
C385 C 0.68117 0.0673 0.59457 0.0
C386 C 0.6581 0.02888 0.64192 0.0
H387 H 0.56035 0.0725 0.70606 0.0
H388 H 0.5925 0.07551 0.67702 0.0
H389 H 0.64218 0.01527 0.67351 0.0
H390 H 0.70941 0.00907 0.56944 0.0
H391 H 0.68069 0.00737 0.60199 0.0
H392 H 0.63209 0.06826 0.60584 0.0
C393 C 0.58731 0.05807 0.68304 0.0
C394 C 0.63973 0.02678 0.65873 0.0
C395 C 0.56894 0.05633 0.6998 0.0
C396 C 0.70187 0.02556 0.57636 0.0
C397 C 0.6855 0.02457 0.59514 0.0
C398 C 0.63466 0.05689 0.6207 0.0
C399 C 0.59912 0.03764 0.67451 0.0
C400 C 0.61863 0.03969 0.65665 0.0
C401 C 0.67465 0.04536 0.60417 0.0
C402 C 0.65573 0.04392 0.6227 0.0
H403 H 0.5687 -0.00377 0.7062 0.0
H404 H 0.60073 -0.00072 0.67663 0.0
H405 H 0.60012 0.0647 0.63519 0.0
H406 H 0.70186 0.0854 0.5684 0.0
H407 H 0.67336 0.08367 0.60141 0.0
C408 C 0.39485 0.29333 0.96729 0.0
C409 C 0.40469 0.2869 0.98918 0.0
C410 C 0.37698 0.31019 0.96678 0.0
C411 C 0.33238 0.34281 0.00327 0.0
H412 H 0.34619 0.39329 0.95991 0.0
C413 C 0.29211 0.43592 0.01425 0.0
C414 C 0.28768 0.44864 -0.00627 0.0
C415 C 0.30266 0.41368 0.01232 0.0
C416 C 0.34169 0.37914 0.97176 0.0
H417 H 0.40252 0.29225 0.02777 0.0
H418 H 0.37131 0.32189 0.02682 0.0
H419 H 0.37117 0.35854 0.95923 0.0
H420 H 0.28958 0.44752 0.95499 0.0
H421 H 0.30755 0.40841 0.95154 0.0
H422 H 0.30305 0.36366 0.01603 0.0
C423 C 0.37743 0.31374 0.01008 0.0
C424 C 0.35609 0.35922 0.97141 0.0
C425 C 0.39539 0.29687 0.01061 0.0
C426 C 0.29301 0.43822 0.97114 0.0
C427 C 0.30341 0.41588 0.96919 0.0
C428 C 0.31784 0.36271 0.00352 0.0
C429 C 0.36848 0.32097 0.98813 0.0
C430 C 0.35181 0.34102 0.98738 0.0
C431 C 0.30886 0.40359 0.9898 0.0
C432 C 0.32258 0.38129 0.98802 0.0
H433 H 0.4014 0.28583 0.95043 0.0
H434 H 0.37014 0.31516 0.94961 0.0
H435 H 0.32854 0.3289 0.0156 0.0
H436 H 0.28819 0.44349 0.03193 0.0
H437 H 0.30687 0.40489 0.02858 0.0
C438 C 0.34297 0.56876 0.02661 0.0
C439 C 0.32751 0.56793 0.0067 0.0
C440 C 0.36344 0.58372 0.02719 0.0
C441 C 0.40498 0.61671 0.98873 0.0
H442 H 0.41598 0.65764 0.04557 0.0
C443 C 0.46971 0.69883 0.99041 0.0
C444 C 0.48274 0.70442 0.01154 0.0
C445 C 0.45237 0.68036 0.98961 0.0
C446 C 0.41345 0.64607 0.0297 0.0
H447 H 0.32156 0.5817 0.97162 0.0
H448 H 0.35725 0.60776 0.97267 0.0
H449 H 0.38301 0.6283 0.04481 0.0
H450 H 0.48856 0.69434 0.04807 0.0
H451 H 0.45878 0.6619 0.04648 0.0
H452 H 0.43539 0.63452 0.97358 0.0
C453 C 0.35364 0.59679 0.98775 0.0
C454 C 0.39453 0.62928 0.02928 0.0
C455 C 0.33311 0.582 0.98724 0.0
C456 C 0.47863 0.69068 0.03158 0.0
C457 C 0.46146 0.67214 0.03072 0.0
C458 C 0.42403 0.63341 0.9892 0.0
C459 C 0.3689 0.59794 0.00779 0.0
C460 C 0.38995 0.61462 0.00871 0.0
C461 C 0.44784 0.667 0.00987 0.0
C462 C 0.42835 0.64844 0.00962 0.0
H463 H 0.33914 0.55805 0.04183 0.0
H464 H 0.37503 0.58415 0.04279 0.0
H465 H 0.402 0.60542 0.97274 0.0
H466 H 0.47243 0.70912 0.97468 0.0
H467 H 0.44201 0.67704 0.97334 0.0
C468 C 0.53145 0.3124 0.01675 0.0
C469 C 0.52791 0.29831 -0.00445 0.0
C470 C 0.5488 0.33079 0.01792 0.0
C471 C 0.58596 0.36935 0.97984 0.0
H472 H 0.62393 0.38001 0.03775 0.0
C473 C 0.67262 0.42756 0.98441 0.0
C474 C 0.67615 0.44311 0.00457 0.0
C475 C 0.65338 0.41114 0.98345 0.0
C476 C 0.61325 0.37744 0.02158 0.0
H477 H 0.54002 0.29239 0.95899 0.0
H478 H 0.57076 0.32418 0.9612 0.0
H479 H 0.59314 0.34832 0.0356 0.0
H480 H 0.66217 0.45388 0.03943 0.0
H481 H 0.6285 0.42486 0.03782 0.0
H482 H 0.60655 0.39817 0.96568 0.0
C483 C 0.55973 0.3213 0.97679 0.0
C484 C 0.5956 0.35928 0.02033 0.0
C485 C 0.54222 0.30298 0.97556 0.0
C486 C 0.6599 0.44209 0.02368 0.0
C487 C 0.64072 0.42544 0.02281 0.0
C488 C 0.60373 0.38738 0.98105 0.0
C489 C 0.5632 0.33545 -0.00201 0.0
C490 C 0.5818 0.35495 -0.0006 0.0
C491 C 0.63735 0.40977 0.00269 0.0
C492 C 0.61763 0.39152 0.00189 0.0
H493 H 0.52062 0.30943 0.03245 0.0
H494 H 0.55069 0.34156 0.0344 0.0
H495 H 0.57537 0.36681 0.96362 0.0
H496 H 0.68482 0.42794 0.96937 0.0
H497 H 0.65139 0.39912 0.96783 0.0
C498 C 0.71734 0.58007 0.02376 0.0
C499 C 0.71574 0.5656 0.00263 0.0
C500 C 0.70796 0.60285 0.02471 0.0
C501 C 0.6859 0.6509 0.98808 0.0
H502 H 0.64446 0.66356 0.04255 0.0
C503 C 0.61052 0.71891 0.98842 0.0
C504 C 0.60372 0.73027 0.01018 0.0
C505 C 0.62877 0.70237 0.98779 0.0
C506 C 0.65638 0.66067 0.02748 0.0
H507 H 0.704 0.56404 0.9656 0.0
H508 H 0.68736 0.60389 0.96733 0.0
H509 H 0.66787 0.62774 0.04062 0.0
H510 H 0.6121 0.73457 0.04804 0.0
H511 H 0.64435 0.70606 0.04686 0.0
H512 H 0.67398 0.68371 0.97474 0.0
C513 C 0.69605 0.59763 0.9831 0.0
C514 C 0.66975 0.64003 0.02634 0.0
C515 C 0.70544 0.57476 0.98216 0.0
C516 C 0.6167 0.72593 0.03103 0.0
C517 C 0.6351 0.70948 0.03037 0.0
C518 C 0.67259 0.67167 0.98928 0.0
C519 C 0.69677 0.6117 0.00455 0.0
C520 C 0.68434 0.63471 0.00646 0.0
C521 C 0.64079 0.69691 0.00889 0.0
C522 C 0.65732 0.67657 0.00881 0.0
H523 H 0.72537 0.57363 0.03981 0.0
H524 H 0.7091 0.61342 0.04138 0.0
H525 H 0.69723 0.64739 0.97268 0.0
H526 H 0.60097 0.72188 0.97198 0.0
H527 H 0.6325 0.69292 0.97096 0.0
C528 C 0.50304 0.78631 0.89992 0.0
C529 C 0.52572 0.78571 0.91086 0.0
C530 C 0.50045 0.79674 0.87787 0.0
C531 C 0.53512 0.82411 0.82805 0.0
H532 H 0.48198 0.86727 0.82912 0.0
C533 C 0.53648 0.91587 0.78636 0.0
C534 C 0.51498 0.92419 0.77705 0.0
C535 C 0.53701 0.89341 0.7961 0.0
C536 C 0.49665 0.85499 0.82818 0.0
H537 H 0.56366 0.79415 0.90662 0.0
H538 H 0.5591 0.81304 0.86886 0.0
H539 H 0.48381 0.83718 0.85864 0.0
H540 H 0.47773 0.91475 0.76877 0.0
H541 H 0.47871 0.87567 0.78587 0.0
H542 H 0.54867 0.84333 0.79843 0.0
C543 C 0.54331 0.80508 0.87683 0.0
C544 C 0.49768 0.83761 0.84512 0.0
C545 C 0.54592 0.7944 0.89868 0.0
C546 C 0.49453 0.90896 0.77606 0.0
C547 C 0.49504 0.88659 0.78587 0.0
C548 C 0.53421 0.84175 0.81123 0.0
C549 C 0.52044 0.80708 0.8665 0.0
C550 C 0.51729 0.8224 0.84576 0.0
C551 C 0.51604 0.87895 0.79676 0.0
C552 C 0.51528 0.85776 0.81158 0.0
H553 H 0.48718 0.77947 0.90876 0.0
H554 H 0.48264 0.79747 0.87018 0.0
H555 H 0.55023 0.81238 0.82768 0.0
H556 H 0.55256 0.92715 0.78727 0.0
H557 H 0.55343 0.88807 0.80451 0.0
C558 C 0.19868 0.51511 0.93483 0.0
C559 C 0.2046 0.53868 0.94256 0.0
C560 C 0.1812 0.5104 0.9172 0.0
C561 C 0.12908 0.53701 0.88907 0.0
H562 H 0.13843 0.48764 0.83953 0.0
C563 C 0.06401 0.52062 0.809 0.0
C564 C 0.05795 0.4967 0.80274 0.0
C565 C 0.0822 0.52629 0.8257 0.0
C566 C 0.13549 0.50134 0.85337 0.0
H567 H 0.197 0.57583 0.93757 0.0
H568 H 0.16672 0.56759 0.90665 0.0
H569 H 0.16986 0.49645 0.86927 0.0
H570 H 0.06617 0.45999 0.80926 0.0
H571 H 0.09768 0.46992 0.83843 0.0
H572 H 0.09466 0.54184 0.87319 0.0
C573 C 0.17535 0.55274 0.91448 0.0
C574 C 0.15347 0.50637 0.87041 0.0
C575 C 0.19281 0.55745 0.93212 0.0
C576 C 0.07041 0.47861 0.81359 0.0
C577 C 0.08859 0.48427 0.83021 0.0
C578 C 0.11111 0.532 0.87201 0.0
C579 C 0.16928 0.52917 0.90691 0.0
C580 C 0.15041 0.52417 0.88851 0.0
C581 C 0.09472 0.50816 0.8364 0.0
C582 C 0.11407 0.51402 0.85407 0.0
H583 H 0.20737 0.50023 0.94255 0.0
H584 H 0.17671 0.49204 0.91194 0.0
H585 H 0.12605 0.5506 0.90301 0.0
H586 H 0.05478 0.53498 0.80094 0.0
H587 H 0.0867 0.54487 0.82999 0.0
C588 C 0.48303 0.03765 0.84791 0.0
C589 C 0.50411 0.03562 0.83436 0.0
C590 C 0.48309 0.05145 0.86935 0.0
C591 C 0.51791 0.10127 0.89951 0.0
H592 H 0.47388 0.08972 0.95157 0.0
C593 C 0.50986 0.16764 0.98043 0.0
C594 C 0.48626 0.17536 0.98364 0.0
C595 C 0.51432 0.1473 0.96594 0.0
C596 C 0.48638 0.09304 0.93721 0.0
H597 H 0.54209 0.04493 0.83327 0.0
H598 H 0.5425 0.06809 0.87107 0.0
H599 H 0.47787 0.05951 0.91911 0.0
H600 H 0.44876 0.1672 0.97552 0.0
H601 H 0.45654 0.13159 0.95055 0.0
H602 H 0.52624 0.13486 0.91756 0.0
C603 C 0.52567 0.05992 0.86482 0.0
C604 C 0.48855 0.07585 0.91853 0.0
C605 C 0.52549 0.04653 0.84321 0.0
C606 C 0.46715 0.16174 0.9732 0.0
C607 C 0.47157 0.14125 0.95908 0.0
C608 C 0.51597 0.11826 0.91832 0.0
C609 C 0.50435 0.06314 0.87785 0.0
C610 C 0.50393 0.08001 0.89914 0.0
C611 C 0.49521 0.13416 0.95484 0.0
C612 C 0.49979 0.11456 0.93704 0.0
H613 H 0.46629 0.02943 0.84144 0.0
H614 H 0.46625 0.05373 0.87869 0.0
H615 H 0.52961 0.10539 0.88474 0.0
H616 H 0.52491 0.17781 0.9883 0.0
H617 H 0.53271 0.14212 0.96298 0.0
C618 C 0.92245 0.50059 0.80049 0.0
C619 C 0.93399 0.47942 0.79357 0.0
C620 C 0.90389 0.50041 0.81724 0.0
C621 C 0.8605 0.46056 0.84707 0.0
H622 H 0.86292 0.50987 0.89792 0.0
C623 C 0.8095 0.45101 0.93516 0.0
C624 C 0.79751 0.4709 0.94486 0.0
C625 C 0.82483 0.45318 0.91567 0.0
C626 C 0.86179 0.49618 0.88366 0.0
H627 H 0.93456 0.44134 0.79834 0.0
H628 H 0.90237 0.44107 0.82771 0.0
H629 H 0.89159 0.51139 0.86507 0.0
H630 H 0.79252 0.50881 0.94181 0.0
H631 H 0.81948 0.51259 0.90766 0.0
H632 H 0.83101 0.44511 0.86591 0.0
C633 C 0.9075 0.45779 0.82 0.0
C634 C 0.87819 0.49705 0.86483 0.0
C635 C 0.92605 0.45795 0.80324 0.0
C636 C 0.8015 0.49314 0.93479 0.0
C637 C 0.81697 0.49532 0.91528 0.0
C638 C 0.84416 0.45967 0.86591 0.0
C639 C 0.89644 0.47906 0.82744 0.0
C640 C 0.87793 0.47906 0.84649 0.0
C641 C 0.82862 0.4753 0.90541 0.0
C642 C 0.84486 0.47727 0.88459 0.0
H643 H 0.92801 0.51743 0.7933 0.0
H644 H 0.89548 0.51703 0.82232 0.0
H645 H 0.85956 0.44668 0.83299 0.0
H646 H 0.80694 0.43361 0.94248 0.0
H647 H 0.83389 0.43752 0.90875 0.0
C648 C 0.45965 0.0953 0.22045 0.0
C649 C 0.48179 0.08664 0.22773 0.0
C650 C 0.45844 0.11763 0.21067 0.0
C651 C 0.49724 0.15861 0.17786 0.0
H652 H 0.43958 0.1958 0.1776 0.0
C653 C 0.4868 0.23058 0.11038 0.0
C654 C 0.4661 0.22672 0.09616 0.0
C655 C 0.48876 0.21983 0.13228 0.0
C656 C 0.45586 0.18569 0.17766 0.0
H657 H 0.51973 0.09531 0.23231 0.0
H658 H 0.51755 0.13467 0.21587 0.0
H659 H 0.44374 0.16502 0.20672 0.0
H660 H 0.4304 0.21032 0.09467 0.0
H661 H 0.43385 0.19148 0.1329 0.0
H662 H 0.50909 0.17877 0.14846 0.0
C663 C 0.5012 0.12391 0.21702 0.0
C664 C 0.45824 0.168 0.19424 0.0
C665 C 0.50246 0.10141 0.22655 0.0
C666 C 0.44663 0.21352 0.10516 0.0
C667 C 0.44855 0.20284 0.12714 0.0
C668 C 0.49498 0.17642 0.16151 0.0
C669 C 0.47931 0.13196 0.20819 0.0
C670 C 0.4786 0.15367 0.19396 0.0
C671 C 0.47 0.20513 0.14044 0.0
C672 C 0.47395 0.1896 0.16072 0.0
H673 H 0.44339 0.08435 0.22117 0.0
H674 H 0.44131 0.123 0.20382 0.0
H675 H 0.51301 0.14776 0.17677 0.0
H676 H 0.50204 0.24086 0.10404 0.0
H677 H 0.50537 0.22213 0.14233 0.0
C678 C 0.92193 0.48904 0.20698 0.0
C679 C 0.92947 0.51227 0.21453 0.0
C680 C 0.90176 0.48525 0.19232 0.0
C681 C 0.86657 0.51567 0.14811 0.0
H682 H 0.82297 0.46107 0.15267 0.0
C683 C 0.78844 0.49908 0.0819 0.0
C684 C 0.78543 0.4757 0.07208 0.0
C685 C 0.80339 0.50393 0.10165 0.0
C686 C 0.83509 0.47632 0.15112 0.0
H687 H 0.92103 0.54967 0.21342 0.0
H688 H 0.88564 0.543 0.18795 0.0
H689 H 0.85356 0.46927 0.18355 0.0
H690 H 0.79516 0.43895 0.07589 0.0
H691 H 0.82156 0.44749 0.11029 0.0
H692 H 0.8485 0.52251 0.11551 0.0
C693 C 0.89561 0.52776 0.19311 0.0
C694 C 0.85258 0.48103 0.16879 0.0
C695 C 0.91582 0.53157 0.2078 0.0
C696 C 0.7971 0.45715 0.083 0.0
C697 C 0.81213 0.46203 0.10279 0.0
C698 C 0.8491 0.51098 0.13048 0.0
C699 C 0.88861 0.50458 0.18487 0.0
C700 C 0.86869 0.50061 0.16733 0.0
C701 C 0.81575 0.48554 0.11206 0.0
C702 C 0.83332 0.49112 0.13164 0.0
H703 H 0.93197 0.47374 0.21186 0.0
H704 H 0.89703 0.4672 0.18608 0.0
H705 H 0.87896 0.53064 0.14619 0.0
H706 H 0.77953 0.51379 0.07411 0.0
H707 H 0.80545 0.52216 0.10863 0.0
C708 C 0.50432 0.84076 0.03619 0.0
C709 C 0.52693 0.83596 0.02629 0.0
C710 C 0.50106 0.86119 0.05079 0.0
C711 C 0.53356 0.89933 0.09353 0.0
H712 H 0.47834 0.93976 0.09091 0.0
C713 C 0.51825 0.97081 0.16763 0.0
C714 C 0.49459 0.97357 0.17564 0.0
C715 C 0.5229 0.95783 0.1464 0.0
C716 C 0.49375 0.92851 0.09203 0.0
H717 H 0.56369 0.84909 0.02317 0.0
H718 H 0.55811 0.88469 0.04936 0.0
H719 H 0.48524 0.91006 0.05853 0.0
H720 H 0.45713 0.96563 0.16749 0.0
H721 H 0.46519 0.94189 0.13088 0.0
H722 H 0.54146 0.91644 0.1275 0.0
C723 C 0.54291 0.87265 0.04559 0.0
C724 C 0.49777 0.91167 0.0734 0.0
C725 C 0.54609 0.85236 0.03061 0.0
C726 C 0.47555 0.96376 0.16165 0.0
C727 C 0.48021 0.9503 0.14059 0.0
C728 C 0.52937 0.91587 0.11229 0.0
C729 C 0.52044 0.87704 0.05605 0.0
C730 C 0.51756 0.89675 0.07415 0.0
C731 C 0.50401 0.94681 0.13293 0.0
C732 C 0.50926 0.93051 0.11196 0.0
H733 H 0.48919 0.82849 0.03302 0.0
H734 H 0.48362 0.86403 0.05881 0.0
H735 H 0.54873 0.88776 0.09474 0.0
H736 H 0.53326 0.97854 0.17792 0.0
H737 H 0.54139 0.95616 0.14077 0.0
C738 C 0.19905 0.56272 0.07425 0.0
C739 C 0.21171 0.54302 0.06516 0.0
C740 C 0.18146 0.55986 0.09173 0.0
C741 C 0.14047 0.51406 0.1152 0.0
H742 H 0.13055 0.56199 0.16599 0.0
C743 C 0.06893 0.5044 0.18988 0.0
C744 C 0.05581 0.5249 0.19562 0.0
C745 C 0.08856 0.50553 0.17436 0.0
C746 C 0.13302 0.54853 0.15179 0.0
H747 H 0.21658 0.50505 0.0681 0.0
H748 H 0.18619 0.5002 0.09882 0.0
H749 H 0.16469 0.56625 0.13917 0.0
H750 H 0.05252 0.56244 0.18883 0.0
H751 H 0.08647 0.56427 0.16179 0.0
H752 H 0.10868 0.49642 0.12782 0.0
C753 C 0.18949 0.51774 0.09207 0.0
C754 C 0.15255 0.55098 0.13644 0.0
C755 C 0.20702 0.52058 0.07456 0.0
C756 C 0.0623 0.54633 0.18498 0.0
C757 C 0.08189 0.54745 0.16959 0.0
C758 C 0.12096 0.51157 0.13062 0.0
C759 C 0.17623 0.53726 0.10055 0.0
C760 C 0.15634 0.53392 0.11779 0.0
C761 C 0.09545 0.52719 0.1644 0.0
C762 C 0.11686 0.52896 0.14886 0.0
H763 H 0.20218 0.58023 0.06735 0.0
H764 H 0.17139 0.57522 0.09772 0.0
H765 H 0.1427 0.50076 0.1008 0.0
H766 H 0.0644 0.48763 0.19778 0.0
H767 H 0.09875 0.48964 0.17067 0.0
C768 C 0.78423 0.93484 0.47625 0.0
C769 C 0.77566 0.9456 0.4976 0.0
C770 C 0.79471 0.91254 0.47632 0.0
C771 C 0.82827 0.87666 0.51669 0.0
H772 H 0.82404 0.82921 0.46424 0.0
C773 C 0.89203 0.79775 0.51108 0.0
C774 C 0.90289 0.79402 0.48861 0.0
C775 C 0.87209 0.81224 0.5136 0.0
C776 C 0.8254 0.84231 0.47902 0.0
H777 H 0.76998 0.94084 0.53548 0.0
H778 H 0.78823 0.9019 0.53554 0.0
H779 H 0.79627 0.86216 0.46581 0.0
H780 H 0.90072 0.80184 0.45101 0.0
H781 H 0.86644 0.82732 0.45549 0.0
H782 H 0.858 0.85754 0.52938 0.0
C783 C 0.78713 0.91084 0.51884 0.0
C784 C 0.8095 0.86113 0.47992 0.0
C785 C 0.77662 0.9331 0.51876 0.0
C786 C 0.89288 0.80438 0.46861 0.0
C787 C 0.87302 0.81884 0.47113 0.0
C788 C 0.8442 0.85791 0.51575 0.0
C789 C 0.79683 0.90061 0.49775 0.0
C790 C 0.81118 0.87882 0.49845 0.0
C791 C 0.86263 0.82326 0.4937 0.0
C792 C 0.84337 0.84089 0.49657 0.0
H793 H 0.78369 0.94401 0.45965 0.0
H794 H 0.80223 0.90522 0.45982 0.0
H795 H 0.83022 0.89017 0.53105 0.0
H796 H 0.89919 0.78988 0.52682 0.0
H797 H 0.8643 0.81511 0.53119 0.0
C798 C 0.96609 0.19185 0.48151 0.0
C799 C 0.97744 0.19726 0.50363 0.0
C800 C 0.94862 0.17356 0.4793 0.0
C801 C 0.92449 0.12011 0.50796 0.0
H802 H 0.8645 0.13648 0.47839 0.0
C803 C 0.83611 0.06576 0.51974 0.0
C804 C 0.8202 0.06348 0.50022 0.0
C805 C 0.85677 0.08036 0.51864 0.0
C806 C 0.88124 0.13141 0.48634 0.0
H807 H 0.98004 0.18707 0.54051 0.0
H808 H 0.94962 0.15524 0.53659 0.0
H809 H 0.89847 0.16461 0.4785 0.0
H810 H 0.81385 0.07392 0.46393 0.0
H811 H 0.85005 0.0989 0.46182 0.0
H812 H 0.9072 0.08694 0.51595 0.0
C813 C 0.95426 0.16508 0.52097 0.0
C814 C 0.90071 0.14756 0.48639 0.0
C815 C 0.97157 0.18345 0.52324 0.0
C816 C 0.82565 0.07554 0.47938 0.0
C817 C 0.84634 0.08995 0.47821 0.0
C818 C 0.90505 0.10386 0.50778 0.0
C819 C 0.94234 0.1602 0.49909 0.0
C820 C 0.92244 0.14219 0.49743 0.0
C821 C 0.86198 0.09281 0.49793 0.0
C822 C 0.88311 0.10944 0.49718 0.0
H823 H 0.97025 0.20211 0.46605 0.0
H824 H 0.93985 0.17 0.46216 0.0
H825 H 0.94114 0.11542 0.5164 0.0
H826 H 0.83236 0.05667 0.53604 0.0
H827 H 0.86829 0.08238 0.53426 0.0
C828 C 0.0324 0.81938 0.51951 0.0
C829 C 0.02831 0.80896 0.49647 0.0
C830 C 0.04947 0.8379 0.52316 0.0
C831 C 0.0843 0.88316 0.49033 0.0
H832 H 0.12613 0.88484 0.54595 0.0
C833 C 0.17449 0.93447 0.49474 0.0
C834 C 0.1802 0.94832 0.51561 0.0
C835 C 0.1541 0.91956 0.4938 0.0
C836 C 0.11432 0.88478 0.53053 0.0
H837 H 0.03928 0.80953 0.45931 0.0
H838 H 0.0694 0.84129 0.46576 0.0
H839 H 0.09432 0.85414 0.54153 0.0
H840 H 0.16903 0.95751 0.55189 0.0
H841 H 0.13332 0.93083 0.55037 0.0
H842 H 0.10494 0.91324 0.47893 0.0
C843 C 0.059 0.83563 0.48093 0.0
C844 C 0.0961 0.86722 0.52798 0.0
C845 C 0.04185 0.81726 0.47725 0.0
C846 C 0.16501 0.94703 0.53557 0.0
C847 C 0.14469 0.93176 0.53474 0.0
C848 C 0.10262 0.90052 0.49278 0.0
C849 C 0.06292 0.8463 0.5039 0.0
C850 C 0.08115 0.86595 0.50761 0.0
C851 C 0.13907 0.91794 0.5138 0.0
C852 C 0.11806 0.90124 0.51268 0.0
H853 H 0.02219 0.81348 0.5347 0.0
H854 H 0.05184 0.84586 0.54103 0.0
H855 H 0.07275 0.88309 0.47473 0.0
H856 H 0.18581 0.93513 0.47905 0.0
H857 H 0.15034 0.90889 0.47754 0.0
C858 C 0.10625 0.21318 0.48613 0.0
C859 C 0.09898 0.225 0.50748 0.0
C860 C 0.12542 0.19769 0.48609 0.0
C861 C 0.1562 0.15973 0.52747 0.0
H862 H 0.19721 0.14661 0.47274 0.0
C863 C 0.22202 0.08323 0.52686 0.0
C864 C 0.22056 0.06756 0.50657 0.0
C865 C 0.2116 0.10551 0.52674 0.0
C866 C 0.18587 0.15011 0.48814 0.0
H867 H 0.10733 0.23126 0.54517 0.0
H868 H 0.1412 0.20467 0.54498 0.0
H869 H 0.17153 0.18124 0.47338 0.0
H870 H 0.20813 0.06344 0.46982 0.0
H871 H 0.18971 0.10242 0.46967 0.0
H872 H 0.17015 0.12845 0.54206 0.0
C873 C 0.13161 0.20684 0.52839 0.0
C874 C 0.17115 0.1699 0.48851 0.0
C875 C 0.11228 0.22218 0.52848 0.0
C876 C 0.20948 0.0751 0.48575 0.0
C877 C 0.19906 0.09747 0.48562 0.0
C878 C 0.171 0.1401 0.52716 0.0
C879 C 0.13792 0.19382 0.50736 0.0
C880 C 0.15579 0.17468 0.50801 0.0
C881 C 0.19951 0.11264 0.50632 0.0
C882 C 0.18568 0.13483 0.50733 0.0
H883 H 0.09642 0.21497 0.4696 0.0
H884 H 0.12958 0.18782 0.4696 0.0
H885 H 0.14429 0.16251 0.54256 0.0
H886 H 0.23064 0.07804 0.54313 0.0
H887 H 0.21254 0.11697 0.54283 0.0
loop_
_geom_bond_atom_site_label_1
_geom_bond_atom_site_label_2
_geom_bond_distance
_geom_bond_site_symmetry_2
_ccdc_geom_bond_type
C0 O1 1.306 . S
C0 O3 1.160 . S
O1 C0 1.306 . S
O1 Cd2 2.228 . S
Cd2 O1 2.228 . S
Cd2 O6 2.273 . S
Cd2 O10 2.277 1_655 S
O3 C0 1.160 . S
O3 Cd4 2.203 1_655 S
Cd4 O3 2.203 1_455 S
Cd4 O6 2.411 1_455 S
Cd4 O7 2.333 . S
Cd4 O8 2.352 1_455 S
Cd4 O12 2.277 . S
Cd4 O13 2.356 . S
C5 O10 1.209 . S
C5 O12 1.226 . S
O6 Cd2 2.273 . S
O6 Cd4 2.411 1_655 S
O6 C9 1.320 1_655 S
O7 Cd4 2.333 . S
O7 C9 1.214 . S
O8 Cd4 2.352 1_655 S
O8 C11 1.258 . S
C9 O6 1.320 1_455 S
C9 O7 1.214 . S
O10 Cd2 2.277 1_455 S
O10 C5 1.209 . S
C11 O8 1.258 . S
C11 O13 1.282 1_655 S
O12 Cd4 2.277 . S
O12 C5 1.226 . S
O13 Cd4 2.356 . S
O13 C11 1.282 1_455 S
C14 O15 1.306 . S
C14 O17 1.160 1_545 S
O15 C14 1.306 . S
O15 Cd16 2.228 . S
Cd16 O15 2.228 . S
Cd16 O20 2.273 . S
Cd16 O24 2.277 . S
O17 C14 1.160 1_565 S
O17 Cd18 2.203 1_565 S
Cd18 O17 2.203 1_545 S
Cd18 O20 2.411 . S
Cd18 O21 2.333 . S
Cd18 O22 2.352 1_545 S
Cd18 O26 2.277 . S
Cd18 O27 2.356 1_545 S
C19 O24 1.209 . S
C19 O26 1.226 . S
O20 Cd16 2.273 . S
O20 Cd18 2.411 . S
O20 C23 1.320 . S
O21 Cd18 2.333 . S
O21 C23 1.214 . S
O22 Cd18 2.352 1_565 S
O22 C25 1.258 . S
C23 O20 1.320 . S
C23 O21 1.214 . S
O24 Cd16 2.277 . S
O24 C19 1.209 . S
C25 O22 1.258 . S
C25 O27 1.282 . S
O26 Cd18 2.277 . S
O26 C19 1.226 . S
O27 Cd18 2.356 1_565 S
O27 C25 1.282 . S
C28 O29 1.306 . S
C28 O31 1.160 . S
O29 C28 1.306 . S
O29 Cd30 2.228 1_655 S
Cd30 O29 2.228 1_455 S
Cd30 O34 2.273 . S
Cd30 O38 2.277 . S
O31 C28 1.160 . S
O31 Cd32 2.203 1_655 S
Cd32 O31 2.203 1_455 S
Cd32 O34 2.411 . S
Cd32 O35 2.333 . S
Cd32 O36 2.352 1_455 S
Cd32 O40 2.277 . S
Cd32 O41 2.356 . S
C33 O38 1.209 . S
C33 O40 1.226 . S
O34 Cd30 2.273 . S
O34 Cd32 2.411 . S
O34 C37 1.320 . S
O35 Cd32 2.333 . S
O35 C37 1.214 . S
O36 Cd32 2.352 1_655 S
O36 C39 1.258 1_655 S
C37 O34 1.320 . S
C37 O35 1.214 . S
O38 Cd30 2.277 . S
O38 C33 1.209 . S
C39 O36 1.258 1_455 S
C39 O41 1.282 . S
O40 Cd32 2.277 . S
O40 C33 1.226 . S
O41 Cd32 2.356 . S
O41 C39 1.282 . S
C42 O43 1.306 1_545 S
C42 O45 1.160 . S
O43 C42 1.306 1_565 S
O43 Cd44 2.228 . S
Cd44 O43 2.228 . S
Cd44 O48 2.273 . S
Cd44 O52 2.277 . S
O45 C42 1.160 . S
O45 Cd46 2.203 . S
Cd46 O45 2.203 . S
Cd46 O48 2.411 1_545 S
Cd46 O49 2.333 . S
Cd46 O50 2.352 . S
Cd46 O54 2.277 . S
Cd46 O55 2.356 . S
C47 O52 1.209 1_545 S
C47 O54 1.226 . S
O48 Cd44 2.273 . S
O48 Cd46 2.411 1_565 S
O48 C51 1.320 . S
O49 Cd46 2.333 . S
O49 C51 1.214 1_545 S
O50 Cd46 2.352 . S
O50 C53 1.258 . S
C51 O48 1.320 . S
C51 O49 1.214 1_565 S
O52 Cd44 2.277 . S
O52 C47 1.209 1_565 S
C53 O50 1.258 . S
C53 O55 1.282 . S
O54 Cd46 2.277 . S
O54 C47 1.226 . S
O55 Cd46 2.356 . S
O55 C53 1.282 . S
C56 O57 1.306 1_545 S
C56 O59 1.160 . S
O57 C56 1.306 1_565 S
O57 Cd58 2.228 . S
Cd58 O57 2.228 . S
Cd58 O62 2.273 . S
Cd58 O66 2.277 . S
O59 C56 1.160 . S
O59 Cd60 2.203 . S
Cd60 O59 2.203 . S
Cd60 O62 2.411 1_545 S
Cd60 O63 2.333 1_545 S
Cd60 O64 2.352 . S
Cd60 O68 2.277 . S
Cd60 O69 2.356 . S
C61 O66 1.209 1_545 S
C61 O68 1.226 . S
O62 Cd58 2.273 . S
O62 Cd60 2.411 1_565 S
O62 C65 1.320 . S
O63 Cd60 2.333 1_565 S
O63 C65 1.214 . S
O64 Cd60 2.352 . S
O64 C67 1.258 . S
C65 O62 1.320 . S
C65 O63 1.214 . S
O66 Cd58 2.277 . S
O66 C61 1.209 1_565 S
C67 O64 1.258 . S
C67 O69 1.282 . S
O68 Cd60 2.277 . S
O68 C61 1.226 . S
O69 Cd60 2.356 . S
O69 C67 1.282 . S
C70 O71 1.306 . S
C70 O73 1.160 . S
O71 C70 1.306 . S
O71 Cd72 2.228 . S
Cd72 O71 2.228 . S
Cd72 O76 2.273 . S
Cd72 O80 2.277 1_455 S
O73 C70 1.160 . S
O73 Cd74 2.203 . S
Cd74 O73 2.203 . S
Cd74 O76 2.411 . S
Cd74 O77 2.333 1_455 S
Cd74 O78 2.352 . S
Cd74 O82 2.277 1_455 S
Cd74 O83 2.356 1_455 S
C75 O80 1.209 . S
C75 O82 1.226 . S
O76 Cd72 2.273 . S
O76 Cd74 2.411 . S
O76 C79 1.320 . S
O77 Cd74 2.333 1_655 S
O77 C79 1.214 1_655 S
O78 Cd74 2.352 . S
O78 C81 1.258 . S
C79 O76 1.320 . S
C79 O77 1.214 1_455 S
O80 Cd72 2.277 1_655 S
O80 C75 1.209 . S
C81 O78 1.258 . S
C81 O83 1.282 1_455 S
O82 Cd74 2.277 1_655 S
O82 C75 1.226 . S
O83 Cd74 2.356 1_655 S
O83 C81 1.282 1_655 S
C84 O85 1.306 . S
C84 O87 1.160 1_545 S
O85 C84 1.306 . S
O85 Cd86 2.228 . S
Cd86 O85 2.228 . S
Cd86 O90 2.273 . S
Cd86 O94 2.277 . S
O87 C84 1.160 1_565 S
O87 Cd88 2.203 1_565 S
Cd88 O87 2.203 1_545 S
Cd88 O90 2.411 . S
Cd88 O91 2.333 . S
Cd88 O92 2.352 1_545 S
Cd88 O96 2.277 . S
Cd88 O97 2.356 1_545 S
C89 O94 1.209 . S
C89 O96 1.226 . S
O90 Cd86 2.273 . S
O90 Cd88 2.411 . S
O90 C93 1.320 . S
O91 Cd88 2.333 . S
O91 C93 1.214 . S
O92 Cd88 2.352 1_565 S
O92 C95 1.258 . S
C93 O90 1.320 . S
C93 O91 1.214 . S
O94 Cd86 2.277 . S
O94 C89 1.209 . S
C95 O92 1.258 . S
C95 O97 1.282 . S
O96 Cd88 2.277 . S
O96 C89 1.226 . S
O97 Cd88 2.356 1_565 S
O97 C95 1.282 . S
C98 O99 1.306 . S
C98 O101 1.160 . S
O99 C98 1.306 . S
O99 Cd100 2.228 . S
Cd100 O99 2.228 . S
Cd100 O104 2.273 . S
Cd100 O108 2.277 1_455 S
O101 C98 1.160 . S
O101 Cd102 2.203 . S
Cd102 O101 2.203 . S
Cd102 O104 2.411 . S
Cd102 O105 2.333 1_455 S
Cd102 O106 2.352 . S
Cd102 O110 2.277 1_455 S
Cd102 O111 2.356 1_455 S
C103 O108 1.209 . S
C103 O110 1.226 . S
O104 Cd100 2.273 . S
O104 Cd102 2.411 . S
O104 C107 1.320 . S
O105 Cd102 2.333 1_655 S
O105 C107 1.214 1_655 S
O106 Cd102 2.352 . S
O106 C109 1.258 . S
C107 O104 1.320 . S
C107 O105 1.214 1_455 S
O108 Cd100 2.277 1_655 S
O108 C103 1.209 . S
C109 O106 1.258 . S
C109 O111 1.282 1_455 S
O110 Cd102 2.277 1_655 S
O110 C103 1.226 . S
O111 Cd102 2.356 1_655 S
O111 C109 1.282 1_655 S
C112 O113 1.306 . S
C112 O115 1.160 . S
O113 C112 1.306 . S
O113 Cd114 2.228 1_556 S
Cd114 O113 2.228 1_554 S
Cd114 O118 2.273 . S
Cd114 O122 2.277 . S
O115 C112 1.160 . S
O115 Cd116 2.203 1_556 S
Cd116 O115 2.203 1_554 S
Cd116 O118 2.411 . S
Cd116 O119 2.333 . S
Cd116 O120 2.352 1_554 S
Cd116 O124 2.277 . S
Cd116 O125 2.356 . S
C117 O122 1.209 . S
C117 O124 1.226 . S
O118 Cd114 2.273 . S
O118 Cd116 2.411 . S
O118 C121 1.320 . S
O119 Cd116 2.333 . S
O119 C121 1.214 . S
O120 Cd116 2.352 1_556 S
O120 C123 1.258 1_556 S
C121 O118 1.320 . S
C121 O119 1.214 . S
O122 Cd114 2.277 . S
O122 C117 1.209 . S
C123 O120 1.258 1_554 S
C123 O125 1.282 . S
O124 Cd116 2.277 . S
O124 C117 1.226 . S
O125 Cd116 2.356 . S
O125 C123 1.282 . S
C126 O127 1.306 1_554 S
C126 O129 1.160 . S
O127 C126 1.306 1_556 S
O127 Cd128 2.228 . S
Cd128 O127 2.228 . S
Cd128 O132 2.273 . S
Cd128 O136 2.277 . S
O129 C126 1.160 . S
O129 Cd130 2.203 . S
Cd130 O129 2.203 . S
Cd130 O132 2.411 1_554 S
Cd130 O133 2.333 1_554 S
Cd130 O134 2.352 . S
Cd130 O138 2.277 . S
Cd130 O139 2.356 . S
C131 O136 1.209 1_554 S
C131 O138 1.226 . S
O132 Cd128 2.273 . S
O132 Cd130 2.411 1_556 S
O132 C135 1.320 . S
O133 Cd130 2.333 1_556 S
O133 C135 1.214 . S
O134 Cd130 2.352 . S
O134 C137 1.258 . S
C135 O132 1.320 . S
C135 O133 1.214 . S
O136 Cd128 2.277 . S
O136 C131 1.209 1_556 S
C137 O134 1.258 . S
C137 O139 1.282 . S
O138 Cd130 2.277 . S
O138 C131 1.226 . S
O139 Cd130 2.356 . S
O139 C137 1.282 . S
C140 O141 1.306 . S
C140 O143 1.160 . S
O141 C140 1.306 . S
O141 Cd142 2.216 1_556 S
Cd142 O141 2.216 1_554 S
Cd142 O146 2.274 . S
Cd142 O150 2.291 . S
O143 C140 1.160 . S
O143 Cd144 2.203 1_556 S
Cd144 O143 2.203 1_554 S
Cd144 O146 2.411 . S
Cd144 O147 2.333 . S
Cd144 O148 2.352 1_554 S
Cd144 O152 2.277 . S
Cd144 O153 2.356 . S
C145 O150 1.209 . S
C145 O152 1.226 . S
O146 Cd142 2.274 . S
O146 Cd144 2.411 . S
O146 C149 1.320 . S
O147 Cd144 2.333 . S
O147 C149 1.214 . S
O148 Cd144 2.352 1_556 S
O148 C151 1.258 1_556 S
C149 O146 1.320 . S
C149 O147 1.214 . S
O150 Cd142 2.291 . S
O150 C145 1.209 . S
C151 O148 1.258 1_554 S
C151 O153 1.282 . S
O152 Cd144 2.277 . S
O152 C145 1.226 . S
O153 Cd144 2.356 . S
O153 C151 1.282 . S
C154 O155 1.306 . S
C154 O157 1.160 1_554 S
O155 C154 1.306 . S
O155 Cd156 2.228 . S
Cd156 O155 2.228 . S
Cd156 O160 2.273 . S
Cd156 O164 2.277 . S
O157 C154 1.160 1_556 S
O157 Cd158 2.203 1_556 S
Cd158 O157 2.203 1_554 S
Cd158 O160 2.411 . S
Cd158 O161 2.333 . S
Cd158 O162 2.352 1_554 S
Cd158 O166 2.277 . S
Cd158 O167 2.356 1_554 S
C159 O164 1.209 . S
C159 O166 1.226 . S
O160 Cd156 2.273 . S
O160 Cd158 2.411 . S
O160 C163 1.320 . S
O161 Cd158 2.333 . S
O161 C163 1.214 . S
O162 Cd158 2.352 1_556 S
O162 C165 1.258 . S
C163 O160 1.320 . S
C163 O161 1.214 . S
O164 Cd156 2.277 . S
O164 C159 1.209 . S
C165 O162 1.258 . S
C165 O167 1.282 . S
O166 Cd158 2.277 . S
O166 C159 1.226 . S
O167 Cd158 2.356 1_556 S
O167 C165 1.282 . S
C168 C169 1.349 1_455 S
C168 C170 1.327 . S
C168 H193 0.950 . S
C169 C168 1.349 1_655 S
C169 C185 1.349 . S
C170 C168 1.327 . S
C170 C189 1.429 . S
C170 H194 0.950 . S
C171 C188 1.574 . S
C171 C190 1.368 1_655 S
C171 H195 0.949 . S
H172 C176 0.949 . S
C173 C174 1.349 1_655 S
C173 C175 1.327 . S
C173 H196 0.950 . S
C174 C173 1.349 1_455 S
C174 C186 1.349 . S
C175 C173 1.327 . S
C175 C191 1.429 1_655 S
C175 H197 0.950 . S
C176 H172 0.949 . S
C176 C184 1.574 . S
C176 C192 1.368 . S
H177 C185 0.950 . S
H178 C183 0.950 . S
H179 C184 0.949 . S
H180 C186 0.950 . S
H181 C187 0.950 . S
H182 C188 0.949 . S
C183 H178 0.950 . S
C183 C185 1.327 . S
C183 C189 1.429 1_655 S
C184 C176 1.574 . S
C184 H179 0.949 . S
C184 C190 1.368 . S
C185 C169 1.349 . S
C185 H177 0.950 . S
C185 C183 1.327 . S
C186 C174 1.349 . S
C186 H180 0.950 . S
C186 C187 1.327 . S
C187 H181 0.950 . S
C187 C186 1.327 . S
C187 C191 1.429 . S
C188 C171 1.574 . S
C188 H182 0.949 . S
C188 C192 1.368 1_655 S
C189 C170 1.429 . S
C189 C183 1.429 1_455 S
C189 C190 1.523 . S
C190 C171 1.368 1_455 S
C190 C184 1.368 . S
C190 C189 1.523 . S
C191 C175 1.429 1_455 S
C191 C187 1.429 . S
C191 C192 1.523 . S
C192 C176 1.368 . S
C192 C188 1.368 1_455 S
C192 C191 1.523 . S
H193 C168 0.950 . S
H194 C170 0.950 . S
H195 C171 0.949 . S
H196 C173 0.950 . S
H197 C175 0.950 . S
C198 C199 1.349 1_565 S
C198 C200 1.327 . S
C198 H223 0.950 . S
C199 C198 1.349 1_545 S
C199 C215 1.349 . S
C200 C198 1.327 . S
C200 C219 1.429 1_565 S
C200 H224 0.950 . S
C201 C218 1.574 . S
C201 C220 1.368 . S
C201 H225 0.949 . S
H202 C206 0.949 . S
C203 C204 1.349 . S
C203 C205 1.327 . S
C203 H226 0.950 . S
C204 C203 1.349 . S
C204 C216 1.349 . S
C205 C203 1.327 . S
C205 C221 1.429 . S
C205 H227 0.950 . S
C206 H202 0.949 . S
C206 C214 1.574 . S
C206 C222 1.368 1_565 S
H207 C215 0.950 . S
H208 C213 0.950 . S
H209 C214 0.949 . S
H210 C216 0.950 1_565 S
H211 C217 0.959 . S
H212 C218 0.949 . S
C213 H208 0.950 . S
C213 C215 1.327 . S
C213 C219 1.429 . S
C214 C206 1.574 . S
C214 H209 0.949 . S
C214 C220 1.368 1_565 S
C215 C199 1.349 . S
C215 H207 0.950 . S
C215 C213 1.327 . S
C216 C204 1.349 . S
C216 H210 0.950 1_545 S
C216 C217 1.325 1_545 S
C217 H211 0.959 . S
C217 C216 1.325 1_565 S
C217 C221 1.421 1_565 S
C218 C201 1.574 . S
C218 H212 0.949 . S
C218 C222 1.368 . S
C219 C200 1.429 1_545 S
C219 C213 1.429 . S
C219 C220 1.523 . S
C220 C201 1.368 . S
C220 C214 1.368 1_545 S
C220 C219 1.523 . S
C221 C205 1.429 . S
C221 C217 1.421 1_545 S
C221 C222 1.523 . S
C222 C206 1.368 1_545 S
C222 C218 1.368 . S
C222 C221 1.523 . S
H223 C198 0.950 . S
H224 C200 0.950 . S
H225 C201 0.949 . S
H226 C203 0.950 . S
H227 C205 0.950 . S
C228 C229 1.344 1_655 S
C228 C230 1.325 1_655 S
C228 H253 0.957 . S
C229 C228 1.344 1_455 S
C229 C245 1.349 . S
C230 C228 1.325 1_455 S
C230 C249 1.429 . S
C230 H254 0.950 1_455 S
C231 C248 1.574 . S
C231 C250 1.368 . S
C231 H255 0.949 . S
H232 C236 0.949 . S
C233 C234 1.349 . S
C233 C235 1.327 . S
C233 H256 0.950 . S
C234 C233 1.349 . S
C234 C246 1.349 . S
C235 C233 1.327 . S
C235 C251 1.429 . S
C235 H257 0.950 . S
C236 H232 0.949 . S
C236 C244 1.574 . S
C236 C252 1.368 . S
H237 C245 0.950 . S
H238 C243 0.950 . S
H239 C244 0.949 . S
H240 C246 0.950 . S
H241 C247 0.950 . S
H242 C248 0.949 . S
C243 H238 0.950 . S
C243 C245 1.327 . S
C243 C249 1.429 . S
C244 C236 1.574 . S
C244 H239 0.949 . S
C244 C250 1.368 . S
C245 C229 1.349 . S
C245 H237 0.950 . S
C245 C243 1.327 . S
C246 C234 1.349 . S
C246 H240 0.950 . S
C246 C247 1.327 . S
C247 H241 0.950 . S
C247 C246 1.327 . S
C247 C251 1.429 . S
C248 C231 1.574 . S
C248 H242 0.949 . S
C248 C252 1.368 . S
C249 C230 1.429 . S
C249 C243 1.429 . S
C249 C250 1.523 . S
C250 C231 1.368 . S
C250 C244 1.368 . S
C250 C249 1.523 . S
C251 C235 1.429 . S
C251 C247 1.429 . S
C251 C252 1.523 . S
C252 C236 1.368 . S
C252 C248 1.368 . S
C252 C251 1.523 . S
H253 C228 0.957 . S
H254 C230 0.950 1_655 S
H255 C231 0.949 . S
H256 C233 0.950 . S
H257 C235 0.950 . S
C258 C259 1.349 . S
C258 C260 1.327 . S
C258 H283 0.950 1_545 S
C259 C258 1.349 . S
C259 C275 1.349 . S
C260 C258 1.327 . S
C260 C279 1.429 . S
C260 H284 0.950 1_545 S
C261 C278 1.574 . S
C261 C280 1.368 . S
C261 H285 0.949 . S
H262 C266 0.949 . S
C263 C264 1.349 . S
C263 C265 1.327 . S
C263 H286 0.950 . S
C264 C263 1.349 . S
C264 C276 1.349 1_545 S
C265 C263 1.327 . S
C265 C281 1.429 . S
C265 H287 0.950 . S
C266 H262 0.949 . S
C266 C274 1.574 . S
C266 C282 1.368 1_565 S
H267 C275 0.950 . S
H268 C273 0.950 . S
H269 C274 0.949 . S
H270 C276 0.950 . S
H271 C277 0.950 . S
H272 C278 0.949 . S
C273 H268 0.950 . S
C273 C275 1.327 . S
C273 C279 1.429 . S
C274 C266 1.574 . S
C274 H269 0.949 . S
C274 C280 1.368 1_565 S
C275 C259 1.349 . S
C275 H267 0.950 . S
C275 C273 1.327 . S
C276 C264 1.349 1_565 S
C276 H270 0.950 . S
C276 C277 1.327 . S
C277 H271 0.950 . S
C277 C276 1.327 . S
C277 C281 1.429 1_565 S
C278 C261 1.574 . S
C278 H272 0.949 . S
C278 C282 1.368 . S
C279 C260 1.429 . S
C279 C273 1.429 . S
C279 C280 1.523 . S
C280 C261 1.368 . S
C280 C274 1.368 1_545 S
C280 C279 1.523 . S
C281 C265 1.429 . S
C281 C277 1.429 1_545 S
C281 C282 1.523 . S
C282 C266 1.368 1_545 S
C282 C278 1.368 . S
C282 C281 1.523 . S
H283 C258 0.950 1_565 S
H284 C260 0.950 1_565 S
H285 C261 0.949 . S
H286 C263 0.950 . S
H287 C265 0.950 . S
C288 C289 1.349 . S
C288 C290 1.327 . S
C288 H313 0.950 . S
C289 C288 1.349 . S
C289 C305 1.349 . S
C290 C288 1.327 . S
C290 C309 1.429 . S
C290 H314 0.950 . S
C291 C308 1.574 . S
C291 C310 1.368 . S
C291 H315 0.949 . S
H292 C296 0.949 . S
C293 C294 1.349 . S
C293 C295 1.327 . S
C293 H316 0.950 . S
C294 C293 1.349 . S
C294 C306 1.349 . S
C295 C293 1.327 . S
C295 C311 1.429 . S
C295 H317 0.950 . S
C296 H292 0.949 . S
C296 C304 1.574 . S
C296 C312 1.368 . S
H297 C305 0.950 . S
H298 C303 0.950 . S
H299 C304 0.949 . S
H300 C306 0.950 . S
H301 C307 0.950 . S
H302 C308 0.949 . S
C303 H298 0.950 . S
C303 C305 1.327 . S
C303 C309 1.429 . S
C304 C296 1.574 . S
C304 H299 0.949 . S
C304 C310 1.368 . S
C305 C289 1.349 . S
C305 H297 0.950 . S
C305 C303 1.327 . S
C306 C294 1.349 . S
C306 H300 0.950 . S
C306 C307 1.327 . S
C307 H301 0.950 . S
C307 C306 1.327 . S
C307 C311 1.429 . S
C308 C291 1.574 . S
C308 H302 0.949 . S
C308 C312 1.368 . S
C309 C290 1.429 . S
C309 C303 1.429 . S
C309 C310 1.523 . S
C310 C291 1.368 . S
C310 C304 1.368 . S
C310 C309 1.523 . S
C311 C295 1.429 . S
C311 C307 1.429 . S
C311 C312 1.523 . S
C312 C296 1.368 . S
C312 C308 1.368 . S
C312 C311 1.523 . S
H313 C288 0.950 . S
H314 C290 0.950 . S
H315 C291 0.949 . S
H316 C293 0.950 . S
H317 C295 0.950 . S
C318 C319 1.349 . S
C318 C320 1.327 . S
C318 H343 0.950 . S
C319 C318 1.349 . S
C319 C335 1.349 . S
C320 C318 1.327 . S
C320 C339 1.429 . S
C320 H344 0.950 . S
C321 C338 1.574 1_545 S
C321 C340 1.368 . S
C321 H345 0.949 1_545 S
H322 C326 0.949 . S
C323 C324 1.349 1_565 S
C323 C325 1.327 . S
C323 H346 0.950 . S
C324 C323 1.349 1_545 S
C324 C336 1.349 . S
C325 C323 1.327 . S
C325 C341 1.429 1_565 S
C325 H347 0.950 . S
C326 H322 0.949 . S
C326 C334 1.574 . S
C326 C342 1.368 . S
H327 C335 0.950 1_565 S
H328 C333 0.950 1_565 S
H329 C334 0.949 . S
H330 C336 0.950 . S
H331 C337 0.950 . S
H332 C338 0.949 . S
C333 H328 0.950 1_545 S
C333 C335 1.327 . S
C333 C339 1.429 . S
C334 C326 1.574 . S
C334 H329 0.949 . S
C334 C340 1.368 . S
C335 C319 1.349 . S
C335 H327 0.950 1_545 S
C335 C333 1.327 . S
C336 C324 1.349 . S
C336 H330 0.950 . S
C336 C337 1.327 . S
C337 H331 0.950 . S
C337 C336 1.327 . S
C337 C341 1.429 . S
C338 C321 1.574 1_565 S
C338 H332 0.949 . S
C338 C342 1.368 1_565 S
C339 C320 1.429 . S
C339 C333 1.429 . S
C339 C340 1.523 . S
C340 C321 1.368 . S
C340 C334 1.368 . S
C340 C339 1.523 . S
C341 C325 1.429 1_545 S
C341 C337 1.429 . S
C341 C342 1.523 . S
C342 C326 1.368 . S
C342 C338 1.368 1_545 S
C342 C341 1.523 . S
H343 C318 0.950 . S
H344 C320 0.950 . S
H345 C321 0.949 1_565 S
H346 C323 0.950 . S
H347 C325 0.950 . S
C348 C349 1.349 . S
C348 C350 1.327 1_455 S
C348 H373 0.950 1_455 S
C349 C348 1.349 . S
C349 C365 1.349 . S
C350 C348 1.327 1_655 S
C350 C369 1.426 1_655 S
C350 H374 0.953 . S
C351 C368 1.574 . S
C351 C370 1.368 . S
C351 H375 0.949 . S
H352 C356 0.949 . S
C353 C354 1.366 . S
C353 C355 1.327 . S
C353 H376 0.950 . S
C354 C353 1.366 . S
C354 C366 1.335 1_455 S
C355 C353 1.327 . S
C355 C371 1.429 . S
C355 H377 0.950 . S
C356 H352 0.949 . S
C356 C364 1.574 . S
C356 C372 1.368 1_655 S
H357 C365 0.950 . S
H358 C363 0.950 . S
H359 C364 0.949 . S
H360 C366 0.950 . S
H361 C367 0.950 . S
H362 C368 0.949 . S
C363 H358 0.950 . S
C363 C365 1.327 . S
C363 C369 1.429 . S
C364 C356 1.574 . S
C364 H359 0.949 . S
C364 C370 1.368 1_655 S
C365 C349 1.349 . S
C365 H357 0.950 . S
C365 C363 1.327 . S
C366 C354 1.335 1_655 S
C366 H360 0.950 . S
C366 C367 1.327 . S
C367 H361 0.950 . S
C367 C366 1.327 . S
C367 C371 1.429 1_655 S
C368 C351 1.574 . S
C368 H362 0.949 . S
C368 C372 1.368 . S
C369 C350 1.426 1_455 S
C369 C363 1.429 . S
C369 C370 1.523 . S
C370 C351 1.368 . S
C370 C364 1.368 1_455 S
C370 C369 1.523 . S
C371 C355 1.429 . S
C371 C367 1.429 1_455 S
C371 C372 1.523 . S
C372 C356 1.368 1_455 S
C372 C368 1.368 . S
C372 C371 1.523 . S
H373 C348 0.950 1_655 S
H374 C350 0.953 . S
H375 C351 0.949 . S
H376 C353 0.950 . S
H377 C355 0.950 . S
C378 C379 1.349 1_565 S
C378 C380 1.327 . S
C378 H403 0.950 . S
C379 C378 1.349 1_545 S
C379 C395 1.349 . S
C380 C378 1.327 . S
C380 C399 1.429 1_565 S
C380 H404 0.950 . S
C381 C398 1.574 . S
C381 C400 1.368 . S
C381 H405 0.949 . S
H382 C386 0.949 . S
C383 C384 1.349 . S
C383 C385 1.327 . S
C383 H406 0.950 . S
C384 C383 1.349 . S
C384 C396 1.349 . S
C385 C383 1.327 . S
C385 C401 1.429 . S
C385 H407 0.950 . S
C386 H382 0.949 . S
C386 C394 1.574 . S
C386 C402 1.368 1_565 S
H387 C395 0.950 . S
H388 C393 0.950 . S
H389 C394 0.949 . S
H390 C396 0.950 1_565 S
H391 C397 0.950 1_565 S
H392 C398 0.949 . S
C393 H388 0.950 . S
C393 C395 1.327 . S
C393 C399 1.429 . S
C394 C386 1.574 . S
C394 H389 0.949 . S
C394 C400 1.368 1_565 S
C395 C379 1.349 . S
C395 H387 0.950 . S
C395 C393 1.327 . S
C396 C384 1.349 . S
C396 H390 0.950 1_545 S
C396 C397 1.327 . S
C397 H391 0.950 1_545 S
C397 C396 1.327 . S
C397 C401 1.429 . S
C398 C381 1.574 . S
C398 H392 0.949 . S
C398 C402 1.368 . S
C399 C380 1.429 1_545 S
C399 C393 1.429 . S
C399 C400 1.523 . S
C400 C381 1.368 . S
C400 C394 1.368 1_545 S
C400 C399 1.523 . S
C401 C385 1.429 . S
C401 C397 1.429 . S
C401 C402 1.523 . S
C402 C386 1.368 1_545 S
C402 C398 1.368 . S
C402 C401 1.523 . S
H403 C378 0.950 . S
H404 C380 0.950 . S
H405 C381 0.949 . S
H406 C383 0.950 . S
H407 C385 0.950 . S
C408 C409 1.349 . S
C408 C410 1.327 1_554 S
C408 H433 0.950 1_554 S
C409 C408 1.349 . S
C409 C425 1.349 . S
C410 C408 1.327 1_556 S
C410 C429 1.429 1_556 S
C410 H434 0.950 . S
C411 C428 1.574 . S
C411 C430 1.368 . S
C411 H435 0.949 . S
H412 C416 0.949 . S
C413 C414 1.349 . S
C413 C415 1.327 . S
C413 H436 0.950 . S
C414 C413 1.349 . S
C414 C426 1.349 1_554 S
C415 C413 1.327 . S
C415 C431 1.429 . S
C415 H437 0.950 . S
C416 H412 0.949 . S
C416 C424 1.574 . S
C416 C432 1.368 1_556 S
H417 C425 0.950 . S
H418 C423 0.950 . S
H419 C424 0.949 . S
H420 C426 0.950 . S
H421 C427 0.950 . S
H422 C428 0.949 . S
C423 H418 0.950 . S
C423 C425 1.327 . S
C423 C429 1.429 . S
C424 C416 1.574 . S
C424 H419 0.949 . S
C424 C430 1.368 1_556 S
C425 C409 1.349 . S
C425 H417 0.950 . S
C425 C423 1.327 . S
C426 C414 1.349 1_556 S
C426 H420 0.950 . S
C426 C427 1.327 . S
C427 H421 0.950 . S
C427 C426 1.327 . S
C427 C431 1.429 1_556 S
C428 C411 1.574 . S
C428 H422 0.949 . S
C428 C432 1.368 . S
C429 C410 1.429 1_554 S
C429 C423 1.429 . S
C429 C430 1.523 . S
C430 C411 1.368 . S
C430 C424 1.368 1_554 S
C430 C429 1.523 . S
C431 C415 1.429 . S
C431 C427 1.429 1_554 S
C431 C432 1.523 . S
C432 C416 1.368 1_554 S
C432 C428 1.368 . S
C432 C431 1.523 . S
H433 C408 0.950 1_556 S
H434 C410 0.950 . S
H435 C411 0.949 . S
H436 C413 0.950 . S
H437 C415 0.950 . S
C438 C439 1.349 . S
C438 C440 1.327 . S
C438 H463 0.950 . S
C439 C438 1.349 . S
C439 C455 1.349 . S
C440 C438 1.327 . S
C440 C459 1.429 . S
C440 H464 0.950 . S
C441 C458 1.574 . S
C441 C460 1.368 1_556 S
C441 H465 0.949 . S
H442 C446 0.949 . S
C443 C444 1.349 1_556 S
C443 C445 1.327 . S
C443 H466 0.950 . S
C444 C443 1.349 1_554 S
C444 C456 1.349 . S
C445 C443 1.327 . S
C445 C461 1.429 1_556 S
C445 H467 0.950 . S
C446 H442 0.949 . S
C446 C454 1.574 . S
C446 C462 1.368 . S
H447 C455 0.950 1_556 S
H448 C453 0.921 1_556 S
H449 C454 0.949 . S
H450 C456 0.950 . S
H451 C457 0.950 . S
H452 C458 0.949 . S
C453 H448 0.921 1_554 S
C453 C455 1.332 . S
C453 C459 1.452 . S
C454 C446 1.574 . S
C454 H449 0.949 . S
C454 C460 1.368 . S
C455 C439 1.349 . S
C455 H447 0.950 1_554 S
C455 C453 1.332 . S
C456 C444 1.349 . S
C456 H450 0.950 . S
C456 C457 1.327 . S
C457 H451 0.950 . S
C457 C456 1.327 . S
C457 C461 1.429 . S
C458 C441 1.574 . S
C458 H452 0.949 . S
C458 C462 1.368 1_556 S
C459 C440 1.429 . S
C459 C453 1.452 . S
C459 C460 1.523 . S
C460 C441 1.368 1_554 S
C460 C454 1.368 . S
C460 C459 1.523 . S
C461 C445 1.429 1_554 S
C461 C457 1.429 . S
C461 C462 1.523 . S
C462 C446 1.368 . S
C462 C458 1.368 1_554 S
C462 C461 1.523 . S
H463 C438 0.950 . S
H464 C440 0.950 . S
H465 C441 0.949 . S
H466 C443 0.950 . S
H467 C445 0.950 . S
C468 C469 1.349 . S
C468 C470 1.327 . S
C468 H493 0.950 . S
C469 C468 1.349 . S
C469 C485 1.349 1_554 S
C470 C468 1.327 . S
C470 C489 1.429 . S
C470 H494 0.950 . S
C471 C488 1.574 . S
C471 C490 1.368 1_556 S
C471 H495 0.949 . S
H472 C476 0.949 . S
C473 C474 1.349 . S
C473 C475 1.327 1_554 S
C473 H496 0.950 1_554 S
C474 C473 1.349 . S
C474 C486 1.349 . S
C475 C473 1.327 1_556 S
C475 C491 1.429 1_556 S
C475 H497 0.950 . S
C476 H472 0.949 . S
C476 C484 1.574 . S
C476 C492 1.368 . S
H477 C485 0.950 . S
H478 C483 0.950 . S
H479 C484 0.949 . S
H480 C486 0.950 . S
H481 C487 0.950 . S
H482 C488 0.949 . S
C483 H478 0.950 . S
C483 C485 1.327 . S
C483 C489 1.429 1_556 S
C484 C476 1.574 . S
C484 H479 0.949 . S
C484 C490 1.368 . S
C485 C469 1.349 1_556 S
C485 H477 0.950 . S
C485 C483 1.327 . S
C486 C474 1.349 . S
C486 H480 0.950 . S
C486 C487 1.327 . S
C487 H481 0.950 . S
C487 C486 1.327 . S
C487 C491 1.429 . S
C488 C471 1.574 . S
C488 H482 0.949 . S
C488 C492 1.368 1_556 S
C489 C470 1.429 . S
C489 C483 1.429 1_554 S
C489 C490 1.523 . S
C490 C471 1.368 1_554 S
C490 C484 1.368 . S
C490 C489 1.523 . S
C491 C475 1.429 1_554 S
C491 C487 1.429 . S
C491 C492 1.523 . S
C492 C476 1.368 . S
C492 C488 1.368 1_554 S
C492 C491 1.523 . S
H493 C468 0.950 . S
H494 C470 0.950 . S
H495 C471 0.949 . S
H496 C473 0.950 1_556 S
H497 C475 0.950 . S
C498 C499 1.349 . S
C498 C500 1.327 . S
C498 H523 0.950 . S
C499 C498 1.349 . S
C499 C515 1.349 1_554 S
C500 C498 1.327 . S
C500 C519 1.429 . S
C500 H524 0.950 . S
C501 C518 1.572 1_556 S
C501 C520 1.368 1_556 S
C501 H525 0.949 . S
H502 C506 0.949 . S
C503 C504 1.349 . S
C503 C505 1.327 . S
C503 H526 0.948 . S
C504 C503 1.349 . S
C504 C516 1.349 . S
C505 C503 1.327 . S
C505 C521 1.429 . S
C505 H527 0.950 1_554 S
C506 H502 0.949 . S
C506 C514 1.574 . S
C506 C522 1.368 . S
H507 C515 0.950 . S
H508 C513 0.950 . S
H509 C514 0.949 . S
H510 C516 0.950 . S
H511 C517 0.950 . S
H512 C518 0.937 1_556 S
C513 H508 0.950 . S
C513 C515 1.327 . S
C513 C519 1.429 1_556 S
C514 C506 1.574 . S
C514 H509 0.949 . S
C514 C520 1.368 . S
C515 C499 1.349 1_556 S
C515 H507 0.950 . S
C515 C513 1.327 . S
C516 C504 1.349 . S
C516 H510 0.950 . S
C516 C517 1.327 . S
C517 H511 0.950 . S
C517 C516 1.327 . S
C517 C521 1.429 . S
C518 C501 1.572 1_554 S
C518 H512 0.937 1_554 S
C518 C522 1.383 . S
C519 C500 1.429 . S
C519 C513 1.429 1_554 S
C519 C520 1.523 . S
C520 C501 1.368 1_554 S
C520 C514 1.368 . S
C520 C519 1.523 . S
C521 C505 1.429 . S
C521 C517 1.429 . S
C521 C522 1.523 . S
C522 C506 1.368 . S
C522 C518 1.383 . S
C522 C521 1.523 . S
H523 C498 0.950 . S
H524 C500 0.950 . S
H525 C501 0.949 . S
H526 C503 0.948 . S
H527 C505 0.950 1_556 S
C528 C529 1.349 . S
C528 C530 1.327 . S
C528 H553 0.950 . S
C529 C528 1.349 . S
C529 C545 1.349 . S
C530 C528 1.327 . S
C530 C549 1.429 . S
C530 H554 0.950 . S
C531 C548 1.574 . S
C531 C550 1.368 . S
C531 H555 0.949 . S
H532 C536 0.949 . S
C533 C534 1.349 . S
C533 C535 1.327 . S
C533 H556 0.950 . S
C534 C533 1.349 . S
C534 C546 1.349 . S
C535 C533 1.327 . S
C535 C551 1.429 . S
C535 H557 0.950 . S
C536 H532 0.949 . S
C536 C544 1.574 . S
C536 C552 1.368 . S
H537 C545 0.950 . S
H538 C543 0.950 . S
H539 C544 0.949 . S
H540 C546 0.950 . S
H541 C547 0.950 . S
H542 C548 0.949 . S
C543 H538 0.950 . S
C543 C545 1.327 . S
C543 C549 1.429 . S
C544 C536 1.574 . S
C544 H539 0.949 . S
C544 C550 1.368 . S
C545 C529 1.349 . S
C545 H537 0.950 . S
C545 C543 1.327 . S
C546 C534 1.349 . S
C546 H540 0.950 . S
C546 C547 1.327 . S
C547 H541 0.950 . S
C547 C546 1.327 . S
C547 C551 1.429 . S
C548 C531 1.574 . S
C548 H542 0.949 . S
C548 C552 1.368 . S
C549 C530 1.429 . S
C549 C543 1.429 . S
C549 C550 1.523 . S
C550 C531 1.368 . S
C550 C544 1.368 . S
C550 C549 1.523 . S
C551 C535 1.429 . S
C551 C547 1.429 . S
C551 C552 1.523 . S
C552 C536 1.368 . S
C552 C548 1.368 . S
C552 C551 1.523 . S
H553 C528 0.950 . S
H554 C530 0.950 . S
H555 C531 0.949 . S
H556 C533 0.950 . S
H557 C535 0.950 . S
C558 C559 1.349 . S
C558 C560 1.327 . S
C558 H583 0.950 . S
C559 C558 1.349 . S
C559 C575 1.349 . S
C560 C558 1.327 . S
C560 C579 1.429 . S
C560 H584 0.950 . S
C561 C578 1.574 . S
C561 C580 1.368 . S
C561 H585 0.949 . S
H562 C566 0.949 . S
C563 C564 1.349 . S
C563 C565 1.327 . S
C563 H586 0.950 . S
C564 C563 1.349 . S
C564 C576 1.349 . S
C565 C563 1.327 . S
C565 C581 1.429 . S
C565 H587 0.950 . S
C566 H562 0.949 . S
C566 C574 1.574 . S
C566 C582 1.368 . S
H567 C575 0.950 . S
H568 C573 0.950 . S
H569 C574 0.949 . S
H570 C576 0.950 . S
H571 C577 0.950 . S
H572 C578 0.949 . S
C573 H568 0.950 . S
C573 C575 1.327 . S
C573 C579 1.429 . S
C574 C566 1.574 . S
C574 H569 0.949 . S
C574 C580 1.368 . S
C575 C559 1.349 . S
C575 H567 0.950 . S
C575 C573 1.327 . S
C576 C564 1.349 . S
C576 H570 0.950 . S
C576 C577 1.327 . S
C577 H571 0.950 . S
C577 C576 1.327 . S
C577 C581 1.429 . S
C578 C561 1.574 . S
C578 H572 0.949 . S
C578 C582 1.368 . S
C579 C560 1.429 . S
C579 C573 1.429 . S
C579 C580 1.523 . S
C580 C561 1.368 . S
C580 C574 1.368 . S
C580 C579 1.523 . S
C581 C565 1.429 . S
C581 C577 1.429 . S
C581 C582 1.523 . S
C582 C566 1.368 . S
C582 C578 1.368 . S
C582 C581 1.523 . S
H583 C558 0.950 . S
H584 C560 0.950 . S
H585 C561 0.949 . S
H586 C563 0.950 . S
H587 C565 0.950 . S
C588 C589 1.349 . S
C588 C590 1.327 . S
C588 H613 0.950 . S
C589 C588 1.349 . S
C589 C605 1.349 . S
C590 C588 1.327 . S
C590 C609 1.429 . S
C590 H614 0.950 . S
C591 C608 1.574 . S
C591 C610 1.368 . S
C591 H615 0.949 . S
H592 C596 0.949 . S
C593 C594 1.349 . S
C593 C595 1.327 . S
C593 H616 0.950 . S
C594 C593 1.349 . S
C594 C606 1.349 . S
C595 C593 1.327 . S
C595 C611 1.429 . S
C595 H617 0.950 . S
C596 H592 0.949 . S
C596 C604 1.574 . S
C596 C612 1.368 . S
H597 C605 0.950 . S
H598 C603 0.950 . S
H599 C604 0.949 . S
H600 C606 0.950 . S
H601 C607 0.950 . S
H602 C608 0.949 . S
C603 H598 0.950 . S
C603 C605 1.327 . S
C603 C609 1.429 . S
C604 C596 1.574 . S
C604 H599 0.949 . S
C604 C610 1.368 . S
C605 C589 1.349 . S
C605 H597 0.950 . S
C605 C603 1.327 . S
C606 C594 1.349 . S
C606 H600 0.950 . S
C606 C607 1.327 . S
C607 H601 0.950 . S
C607 C606 1.327 . S
C607 C611 1.429 . S
C608 C591 1.574 . S
C608 H602 0.949 . S
C608 C612 1.368 . S
C609 C590 1.429 . S
C609 C603 1.429 . S
C609 C610 1.523 . S
C610 C591 1.368 . S
C610 C604 1.368 . S
C610 C609 1.523 . S
C611 C595 1.429 . S
C611 C607 1.429 . S
C611 C612 1.523 . S
C612 C596 1.368 . S
C612 C608 1.368 . S
C612 C611 1.523 . S
H613 C588 0.950 . S
H614 C590 0.950 . S
H615 C591 0.949 . S
H616 C593 0.950 . S
H617 C595 0.950 . S
C618 C619 1.349 . S
C618 C620 1.327 . S
C618 H643 0.950 . S
C619 C618 1.349 . S
C619 C635 1.349 . S
C620 C618 1.327 . S
C620 C639 1.429 . S
C620 H644 0.950 . S
C621 C638 1.574 . S
C621 C640 1.368 . S
C621 H645 0.949 . S
H622 C626 0.949 . S
C623 C624 1.349 . S
C623 C625 1.327 . S
C623 H646 0.950 . S
C624 C623 1.349 . S
C624 C636 1.349 . S
C625 C623 1.327 . S
C625 C641 1.429 . S
C625 H647 0.950 . S
C626 H622 0.949 . S
C626 C634 1.574 . S
C626 C642 1.368 . S
H627 C635 0.950 . S
H628 C633 0.950 . S
H629 C634 0.949 . S
H630 C636 0.950 . S
H631 C637 0.950 . S
H632 C638 0.949 . S
C633 H628 0.950 . S
C633 C635 1.327 . S
C633 C639 1.429 . S
C634 C626 1.574 . S
C634 H629 0.949 . S
C634 C640 1.368 . S
C635 C619 1.349 . S
C635 H627 0.950 . S
C635 C633 1.327 . S
C636 C624 1.349 . S
C636 H630 0.950 . S
C636 C637 1.327 . S
C637 H631 0.950 . S
C637 C636 1.327 . S
C637 C641 1.429 . S
C638 C621 1.574 . S
C638 H632 0.949 . S
C638 C642 1.368 . S
C639 C620 1.429 . S
C639 C633 1.429 . S
C639 C640 1.523 . S
C640 C621 1.368 . S
C640 C634 1.368 . S
C640 C639 1.523 . S
C641 C625 1.429 . S
C641 C637 1.429 . S
C641 C642 1.523 . S
C642 C626 1.368 . S
C642 C638 1.368 . S
C642 C641 1.523 . S
H643 C618 0.950 . S
H644 C620 0.950 . S
H645 C621 0.949 . S
H646 C623 0.950 . S
H647 C625 0.950 . S
C648 C649 1.349 . S
C648 C650 1.327 . S
C648 H673 0.950 . S
C649 C648 1.349 . S
C649 C665 1.349 . S
C650 C648 1.327 . S
C650 C669 1.429 . S
C650 H674 0.950 . S
C651 C668 1.574 . S
C651 C670 1.368 . S
C651 H675 0.949 . S
H652 C656 0.949 . S
C653 C654 1.349 . S
C653 C655 1.327 . S
C653 H676 0.950 . S
C654 C653 1.349 . S
C654 C666 1.349 . S
C655 C653 1.327 . S
C655 C671 1.429 . S
C655 H677 0.950 . S
C656 H652 0.949 . S
C656 C664 1.574 . S
C656 C672 1.368 . S
H657 C665 0.950 . S
H658 C663 0.950 . S
H659 C664 0.949 . S
H660 C666 0.950 . S
H661 C667 0.950 . S
H662 C668 0.949 . S
C663 H658 0.950 . S
C663 C665 1.327 . S
C663 C669 1.429 . S
C664 C656 1.574 . S
C664 H659 0.949 . S
C664 C670 1.368 . S
C665 C649 1.349 . S
C665 H657 0.950 . S
C665 C663 1.327 . S
C666 C654 1.349 . S
C666 H660 0.950 . S
C666 C667 1.327 . S
C667 H661 0.950 . S
C667 C666 1.327 . S
C667 C671 1.429 . S
C668 C651 1.574 . S
C668 H662 0.949 . S
C668 C672 1.368 . S
C669 C650 1.429 . S
C669 C663 1.429 . S
C669 C670 1.523 . S
C670 C651 1.368 . S
C670 C664 1.368 . S
C670 C669 1.523 . S
C671 C655 1.429 . S
C671 C667 1.429 . S
C671 C672 1.523 . S
C672 C656 1.368 . S
C672 C668 1.368 . S
C672 C671 1.523 . S
H673 C648 0.950 . S
H674 C650 0.950 . S
H675 C651 0.949 . S
H676 C653 0.950 . S
H677 C655 0.950 . S
C678 C679 1.349 . S
C678 C680 1.327 . S
C678 H703 0.950 . S
C679 C678 1.349 . S
C679 C695 1.349 . S
C680 C678 1.327 . S
C680 C699 1.429 . S
C680 H704 0.950 . S
C681 C698 1.574 . S
C681 C700 1.368 . S
C681 H705 0.949 . S
H682 C686 0.949 . S
C683 C684 1.349 . S
C683 C685 1.327 . S
C683 H706 0.950 . S
C684 C683 1.349 . S
C684 C696 1.349 . S
C685 C683 1.327 . S
C685 C701 1.429 . S
C685 H707 0.950 . S
C686 H682 0.949 . S
C686 C694 1.574 . S
C686 C702 1.368 . S
H687 C695 0.950 . S
H688 C693 0.950 . S
H689 C694 0.949 . S
H690 C696 0.950 . S
H691 C697 0.950 . S
H692 C698 0.949 . S
C693 H688 0.950 . S
C693 C695 1.327 . S
C693 C699 1.429 . S
C694 C686 1.574 . S
C694 H689 0.949 . S
C694 C700 1.368 . S
C695 C679 1.349 . S
C695 H687 0.950 . S
C695 C693 1.327 . S
C696 C684 1.349 . S
C696 H690 0.950 . S
C696 C697 1.327 . S
C697 H691 0.950 . S
C697 C696 1.327 . S
C697 C701 1.429 . S
C698 C681 1.574 . S
C698 H692 0.949 . S
C698 C702 1.368 . S
C699 C680 1.429 . S
C699 C693 1.429 . S
C699 C700 1.523 . S
C700 C681 1.368 . S
C700 C694 1.368 . S
C700 C699 1.523 . S
C701 C685 1.429 . S
C701 C697 1.429 . S
C701 C702 1.523 . S
C702 C686 1.368 . S
C702 C698 1.368 . S
C702 C701 1.523 . S
H703 C678 0.950 . S
H704 C680 0.950 . S
H705 C681 0.949 . S
H706 C683 0.950 . S
H707 C685 0.950 . S
C708 C709 1.349 . S
C708 C710 1.327 . S
C708 H733 0.950 . S
C709 C708 1.349 . S
C709 C725 1.349 . S
C710 C708 1.327 . S
C710 C729 1.429 . S
C710 H734 0.950 . S
C711 C728 1.574 . S
C711 C730 1.368 . S
C711 H735 0.949 . S
H712 C716 0.949 . S
C713 C714 1.349 . S
C713 C715 1.327 . S
C713 H736 0.950 . S
C714 C713 1.349 . S
C714 C726 1.349 . S
C715 C713 1.327 . S
C715 C731 1.429 . S
C715 H737 0.950 . S
C716 H712 0.949 . S
C716 C724 1.574 . S
C716 C732 1.368 . S
H717 C725 0.950 . S
H718 C723 0.950 . S
H719 C724 0.949 . S
H720 C726 0.950 . S
H721 C727 0.950 . S
H722 C728 0.949 . S
C723 H718 0.950 . S
C723 C725 1.327 . S
C723 C729 1.429 . S
C724 C716 1.574 . S
C724 H719 0.949 . S
C724 C730 1.368 . S
C725 C709 1.349 . S
C725 H717 0.950 . S
C725 C723 1.327 . S
C726 C714 1.349 . S
C726 H720 0.950 . S
C726 C727 1.327 . S
C727 H721 0.950 . S
C727 C726 1.327 . S
C727 C731 1.429 . S
C728 C711 1.574 . S
C728 H722 0.949 . S
C728 C732 1.368 . S
C729 C710 1.429 . S
C729 C723 1.429 . S
C729 C730 1.523 . S
C730 C711 1.368 . S
C730 C724 1.368 . S
C730 C729 1.523 . S
C731 C715 1.429 . S
C731 C727 1.429 . S
C731 C732 1.523 . S
C732 C716 1.368 . S
C732 C728 1.368 . S
C732 C731 1.523 . S
H733 C708 0.950 . S
H734 C710 0.950 . S
H735 C711 0.949 . S
H736 C713 0.950 . S
H737 C715 0.950 . S
C738 C739 1.349 . S
C738 C740 1.327 . S
C738 H763 0.950 . S
C739 C738 1.349 . S
C739 C755 1.349 . S
C740 C738 1.327 . S
C740 C759 1.429 . S
C740 H764 0.950 . S
C741 C758 1.574 . S
C741 C760 1.368 . S
C741 H765 0.949 . S
H742 C746 0.949 . S
C743 C744 1.349 . S
C743 C745 1.327 . S
C743 H766 0.950 . S
C744 C743 1.349 . S
C744 C756 1.349 . S
C745 C743 1.327 . S
C745 C761 1.429 . S
C745 H767 0.950 . S
C746 H742 0.949 . S
C746 C754 1.574 . S
C746 C762 1.368 . S
H747 C755 0.950 . S
H748 C753 0.950 . S
H749 C754 0.949 . S
H750 C756 0.950 . S
H751 C757 0.950 . S
H752 C758 0.949 . S
C753 H748 0.950 . S
C753 C755 1.327 . S
C753 C759 1.429 . S
C754 C746 1.574 . S
C754 H749 0.949 . S
C754 C760 1.368 . S
C755 C739 1.349 . S
C755 H747 0.950 . S
C755 C753 1.327 . S
C756 C744 1.349 . S
C756 H750 0.950 . S
C756 C757 1.327 . S
C757 H751 0.950 . S
C757 C756 1.327 . S
C757 C761 1.429 . S
C758 C741 1.574 . S
C758 H752 0.949 . S
C758 C762 1.368 . S
C759 C740 1.429 . S
C759 C753 1.429 . S
C759 C760 1.523 . S
C760 C741 1.368 . S
C760 C754 1.368 . S
C760 C759 1.523 . S
C761 C745 1.429 . S
C761 C757 1.429 . S
C761 C762 1.523 . S
C762 C746 1.368 . S
C762 C758 1.368 . S
C762 C761 1.523 . S
H763 C738 0.950 . S
H764 C740 0.950 . S
H765 C741 0.949 . S
H766 C743 0.950 . S
H767 C745 0.950 . S
C768 C769 1.349 . S
C768 C770 1.327 . S
C768 H793 0.950 . S
C769 C768 1.349 . S
C769 C785 1.349 . S
C770 C768 1.327 . S
C770 C789 1.429 . S
C770 H794 0.950 . S
C771 C788 1.574 . S
C771 C790 1.368 . S
C771 H795 0.949 . S
H772 C776 0.949 . S
C773 C774 1.349 . S
C773 C775 1.327 . S
C773 H796 0.950 . S
C774 C773 1.349 . S
C774 C786 1.349 . S
C775 C773 1.327 . S
C775 C791 1.429 . S
C775 H797 0.950 . S
C776 H772 0.949 . S
C776 C784 1.574 . S
C776 C792 1.368 . S
H777 C785 0.950 . S
H778 C783 0.950 . S
H779 C784 0.949 . S
H780 C786 0.950 . S
H781 C787 0.950 . S
H782 C788 0.949 . S
C783 H778 0.950 . S
C783 C785 1.327 . S
C783 C789 1.429 . S
C784 C776 1.574 . S
C784 H779 0.949 . S
C784 C790 1.368 . S
C785 C769 1.349 . S
C785 H777 0.950 . S
C785 C783 1.327 . S
C786 C774 1.349 . S
C786 H780 0.950 . S
C786 C787 1.327 . S
C787 H781 0.950 . S
C787 C786 1.327 . S
C787 C791 1.429 . S
C788 C771 1.574 . S
C788 H782 0.949 . S
C788 C792 1.368 . S
C789 C770 1.429 . S
C789 C783 1.429 . S
C789 C790 1.523 . S
C790 C771 1.368 . S
C790 C784 1.368 . S
C790 C789 1.523 . S
C791 C775 1.429 . S
C791 C787 1.429 . S
C791 C792 1.523 . S
C792 C776 1.368 . S
C792 C788 1.368 . S
C792 C791 1.523 . S
H793 C768 0.950 . S
H794 C770 0.950 . S
H795 C771 0.949 . S
H796 C773 0.950 . S
H797 C775 0.950 . S
C798 C799 1.349 . S
C798 C800 1.327 . S
C798 H823 0.950 . S
C799 C798 1.349 . S
C799 C815 1.349 . S
C800 C798 1.327 . S
C800 C819 1.429 . S
C800 H824 0.950 . S
C801 C818 1.574 . S
C801 C820 1.368 . S
C801 H825 0.949 . S
H802 C806 0.949 . S
C803 C804 1.349 . S
C803 C805 1.327 . S
C803 H826 0.950 . S
C804 C803 1.349 . S
C804 C816 1.349 . S
C805 C803 1.327 . S
C805 C821 1.429 . S
C805 H827 0.950 . S
C806 H802 0.949 . S
C806 C814 1.574 . S
C806 C822 1.368 . S
H807 C815 0.950 . S
H808 C813 0.950 . S
H809 C814 0.949 . S
H810 C816 0.950 . S
H811 C817 0.950 . S
H812 C818 0.949 . S
C813 H808 0.950 . S
C813 C815 1.327 . S
C813 C819 1.429 . S
C814 C806 1.574 . S
C814 H809 0.949 . S
C814 C820 1.368 . S
C815 C799 1.349 . S
C815 H807 0.950 . S
C815 C813 1.327 . S
C816 C804 1.349 . S
C816 H810 0.950 . S
C816 C817 1.327 . S
C817 H811 0.950 . S
C817 C816 1.327 . S
C817 C821 1.429 . S
C818 C801 1.574 . S
C818 H812 0.949 . S
C818 C822 1.368 . S
C819 C800 1.429 . S
C819 C813 1.429 . S
C819 C820 1.523 . S
C820 C801 1.368 . S
C820 C814 1.368 . S
C820 C819 1.523 . S
C821 C805 1.429 . S
C821 C817 1.429 . S
C821 C822 1.523 . S
C822 C806 1.368 . S
C822 C818 1.368 . S
C822 C821 1.523 . S
H823 C798 0.950 . S
H824 C800 0.950 . S
H825 C801 0.949 . S
H826 C803 0.950 . S
H827 C805 0.950 . S
C828 C829 1.349 . S
C828 C830 1.327 . S
C828 H853 0.950 . S
C829 C828 1.349 . S
C829 C845 1.349 . S
C830 C828 1.327 . S
C830 C849 1.429 . S
C830 H854 0.950 . S
C831 C848 1.574 . S
C831 C850 1.368 . S
C831 H855 0.949 . S
H832 C836 0.949 . S
C833 C834 1.349 . S
C833 C835 1.327 . S
C833 H856 0.950 . S
C834 C833 1.349 . S
C834 C846 1.349 . S
C835 C833 1.327 . S
C835 C851 1.429 . S
C835 H857 0.950 . S
C836 H832 0.949 . S
C836 C844 1.574 . S
C836 C852 1.368 . S
H837 C845 0.950 . S
H838 C843 0.950 . S
H839 C844 0.949 . S
H840 C846 0.950 . S
H841 C847 0.950 . S
H842 C848 0.949 . S
C843 H838 0.950 . S
C843 C845 1.327 . S
C843 C849 1.429 . S
C844 C836 1.574 . S
C844 H839 0.949 . S
C844 C850 1.368 . S
C845 C829 1.349 . S
C845 H837 0.950 . S
C845 C843 1.327 . S
C846 C834 1.349 . S
C846 H840 0.950 . S
C846 C847 1.327 . S
C847 H841 0.950 . S
C847 C846 1.327 . S
C847 C851 1.429 . S
C848 C831 1.574 . S
C848 H842 0.949 . S
C848 C852 1.368 . S
C849 C830 1.429 . S
C849 C843 1.429 . S
C849 C850 1.523 . S
C850 C831 1.368 . S
C850 C844 1.368 . S
C850 C849 1.523 . S
C851 C835 1.429 . S
C851 C847 1.429 . S
C851 C852 1.523 . S
C852 C836 1.368 . S
C852 C848 1.368 . S
C852 C851 1.523 . S
H853 C828 0.950 . S
H854 C830 0.950 . S
H855 C831 0.949 . S
H856 C833 0.950 . S
H857 C835 0.950 . S
C858 C859 1.349 . S
C858 C860 1.327 . S
C858 H883 0.950 . S
C859 C858 1.349 . S
C859 C875 1.349 . S
C860 C858 1.327 . S
C860 C879 1.429 . S
C860 H884 0.950 . S
C861 C878 1.574 . S
C861 C880 1.368 . S
C861 H885 0.949 . S
H862 C866 0.949 . S
C863 C864 1.349 . S
C863 C865 1.327 . S
C863 H886 0.950 . S
C864 C863 1.349 . S
C864 C876 1.349 . S
C865 C863 1.327 . S
C865 C881 1.429 . S
C865 H887 0.950 . S
C866 H862 0.949 . S
C866 C874 1.574 . S
C866 C882 1.368 . S
H867 C875 0.950 . S
H868 C873 0.950 . S
H869 C874 0.949 . S
H870 C876 0.950 . S
H871 C877 0.950 . S
H872 C878 0.949 . S
C873 H868 0.950 . S
C873 C875 1.327 . S
C873 C879 1.429 . S
C874 C866 1.574 . S
C874 H869 0.949 . S
C874 C880 1.368 . S
C875 C859 1.349 . S
C875 H867 0.950 . S
C875 C873 1.327 . S
C876 C864 1.349 . S
C876 H870 0.950 . S
C876 C877 1.327 . S
C877 H871 0.950 . S
C877 C876 1.327 . S
C877 C881 1.429 . S
C878 C861 1.574 . S
C878 H872 0.949 . S
C878 C882 1.368 . S
C879 C860 1.429 . S
C879 C873 1.429 . S
C879 C880 1.523 . S
C880 C861 1.368 . S
C880 C874 1.368 . S
C880 C879 1.523 . S
C881 C865 1.429 . S
C881 C877 1.429 . S
C881 C882 1.523 . S
C882 C866 1.368 . S
C882 C878 1.368 . S
C882 C881 1.523 . S
H883 C858 0.950 . S
H884 C860 0.950 . S
H885 C861 0.949 . S
H886 C863 0.950 . S
H887 C865 0.950 . S
C169 C11 1.438 . S
C174 C81 1.441 . S
C199 C14 1.387 . S
C204 C56 1.390 . S
C229 C79 1.346 . S
C234 C37 1.346 . S
C259 C42 1.389 . S
C264 C61 1.408 . S
C289 C109 1.437 . S
C294 C39 1.440 . S
C319 C89 1.396 . S
C324 C47 1.397 . S
C349 C9 1.344 . S
C354 C107 1.344 . S
C379 C84 1.388 . S
C384 C19 1.406 . S
C409 C126 1.413 . S
C414 C123 1.419 . S
C439 C121 1.376 . S
C444 C154 1.361 . S
C469 C131 1.374 . S
C474 C149 1.371 . S
C499 C151 1.415 . S
C504 C159 1.426 . S
C529 C165 1.438 . S
C534 C95 1.441 . S
C559 C112 1.387 . S
C564 C98 1.390 . S
C589 C93 1.346 . S
C594 C135 1.346 . S
C619 C103 1.408 . S
C624 C140 1.389 . S
C649 C67 1.437 . S
C654 C137 1.440 . S
C679 C75 1.396 . S
C684 C145 1.397 . S
C709 C163 1.344 . S
C714 C65 1.343 . S
C739 C117 1.406 . S
C744 C70 1.388 . S
C769 C25 1.419 . S
C774 C28 1.413 . S
C799 C0 1.360 . S
C804 C23 1.376 . S
C829 C33 1.374 . S
C834 C51 1.371 . S
C859 C5 1.426 . S
C864 C53 1.415 . S
