# Generated by pormake.
# Topology uoz, (4)-cn, num edge types: 1
# Building blocks:
#     Node 0, Type 0, BuildingBlock: UXUYUI_clean_sbu_0, # of connection points: 4
#     Node 1, Type 0, BuildingBlock: UXUYUI_clean_sbu_0, # of connection points: 4
#     Node 2, Type 0, BuildingBlock: UXUYUI_clean_sbu_0, # of connection points: 4
#     Node 3, Type 0, BuildingBlock: UXUYUI_clean_sbu_0, # of connection points: 4
#     Node 4, Type 0, BuildingBlock: UXUYUI_clean_sbu_0, # of connection points: 4
#     Node 5, Type 0, BuildingBlock: UXUYUI_clean_sbu_0, # of connection points: 4
#     Node 6, Type 0, BuildingBlock: UXUYUI_clean_sbu_0, # of connection points: 4
#     Node 7, Type 0, BuildingBlock: UXUYUI_clean_sbu_0, # of connection points: 4
#     Node 8, Type 0, BuildingBlock: UXUYUI_clean_sbu_0, # of connection points: 4
#     Node 9, Type 0, BuildingBlock: UXUYUI_clean_sbu_0, # of connection points: 4
#     Node 10, Type 0, BuildingBlock: UXUYUI_clean_sbu_0, # of connection points: 4
#     Node 11, Type 0, BuildingBlock: UXUYUI_clean_sbu_0, # of connection points: 4
#     Node 12, Type 0, BuildingBlock: UXUYUI_clean_sbu_0, # of connection points: 4
#     Node 13, Type 0, BuildingBlock: UXUYUI_clean_sbu_0, # of connection points: 4
#     Node 14, Type 0, BuildingBlock: UXUYUI_clean_sbu_0, # of connection points: 4
#     Node 15, Type 0, BuildingBlock: UXUYUI_clean_sbu_0, # of connection points: 4
#     Edge 16, Type (0, 0), BuildingBlock: OJICUG_clean_linker_0, # of connection points: 2
#     Edge 17, Type (0, 0), BuildingBlock: OJICUG_clean_linker_0, # of connection points: 2
#     Edge 18, Type (0, 0), BuildingBlock: OJICUG_clean_linker_0, # of connection points: 2
#     Edge 19, Type (0, 0), BuildingBlock: OJICUG_clean_linker_0, # of connection points: 2
#     Edge 20, Type (0, 0), BuildingBlock: OJICUG_clean_linker_0, # of connection points: 2
#     Edge 21, Type (0, 0), BuildingBlock: OJICUG_clean_linker_0, # of connection points: 2
#     Edge 22, Type (0, 0), BuildingBlock: OJICUG_clean_linker_0, # of connection points: 2
#     Edge 23, Type (0, 0), BuildingBlock: OJICUG_clean_linker_0, # of connection points: 2
#     Edge 24, Type (0, 0), BuildingBlock: OJICUG_clean_linker_0, # of connection points: 2
#     Edge 25, Type (0, 0), BuildingBlock: OJICUG_clean_linker_0, # of connection points: 2
#     Edge 26, Type (0, 0), BuildingBlock: OJICUG_clean_linker_0, # of connection points: 2
#     Edge 27, Type (0, 0), BuildingBlock: OJICUG_clean_linker_0, # of connection points: 2
#     Edge 28, Type (0, 0), BuildingBlock: OJICUG_clean_linker_0, # of connection points: 2
#     Edge 29, Type (0, 0), BuildingBlock: OJICUG_clean_linker_0, # of connection points: 2
#     Edge 30, Type (0, 0), BuildingBlock: OJICUG_clean_linker_0, # of connection points: 2
#     Edge 31, Type (0, 0), BuildingBlock: OJICUG_clean_linker_0, # of connection points: 2
#     Edge 32, Type (0, 0), BuildingBlock: OJICUG_clean_linker_0, # of connection points: 2
#     Edge 33, Type (0, 0), BuildingBlock: OJICUG_clean_linker_0, # of connection points: 2
#     Edge 34, Type (0, 0), BuildingBlock: OJICUG_clean_linker_0, # of connection points: 2
#     Edge 35, Type (0, 0), BuildingBlock: OJICUG_clean_linker_0, # of connection points: 2
#     Edge 36, Type (0, 0), BuildingBlock: OJICUG_clean_linker_0, # of connection points: 2
#     Edge 37, Type (0, 0), BuildingBlock: OJICUG_clean_linker_0, # of connection points: 2
#     Edge 38, Type (0, 0), BuildingBlock: OJICUG_clean_linker_0, # of connection points: 2
#     Edge 39, Type (0, 0), BuildingBlock: OJICUG_clean_linker_0, # of connection points: 2
#     Edge 40, Type (0, 0), BuildingBlock: OJICUG_clean_linker_0, # of connection points: 2
#     Edge 41, Type (0, 0), BuildingBlock: OJICUG_clean_linker_0, # of connection points: 2
#     Edge 42, Type (0, 0), BuildingBlock: OJICUG_clean_linker_0, # of connection points: 2
#     Edge 43, Type (0, 0), BuildingBlock: OJICUG_clean_linker_0, # of connection points: 2
#     Edge 44, Type (0, 0), BuildingBlock: OJICUG_clean_linker_0, # of connection points: 2
#     Edge 45, Type (0, 0), BuildingBlock: OJICUG_clean_linker_0, # of connection points: 2
#     Edge 46, Type (0, 0), BuildingBlock: OJICUG_clean_linker_0, # of connection points: 2
#     Edge 47, Type (0, 0), BuildingBlock: OJICUG_clean_linker_0, # of connection points: 2
# Relax obj value: 0.206
# Max RMSD: 0.135
# Mean RMSD: 0.135
data_MOF--net-uoz--node1-UXUYUI_clean_sbu_0--edge1-OJICUG_clean_linker_0
_symmetry_space_group_name_H-M    P1
_symmetry_Int_Tables_number       1
_symmetry_cell_setting            triclinic
loop_
_symmetry_equiv_pos_as_xyz
'x, y, z'
_cell_length_a     70.930936
_cell_length_b     70.828053
_cell_length_c     27.186091
_cell_angle_alpha  90.000143
_cell_angle_beta   89.990349
_cell_angle_gamma 90.026969
loop_
_atom_site_label
_atom_site_type_symbol
_atom_site_fract_x
_atom_site_fract_y
_atom_site_fract_z
_atom_type_partial_charge
Li0 Li 0.98417 0.59841 0.31205 0.0
Li1 Li 0.01888 0.59851 0.31304 0.0
Li2 Li 1.00082 0.57057 0.28474 0.0
Li3 Li 1.00128 0.57734 0.37132 0.0
C4 C 0.99575 0.60573 0.21694 0.0
N5 N 0.98271 0.62609 0.13711 0.0
C6 C 1.00131 0.6245 0.21023 0.0
C7 C 0.98388 0.59722 0.18242 0.0
C8 C 0.99448 0.63458 0.16982 0.0
C9 C 0.97735 0.60777 0.14249 0.0
C10 C 0.0115 0.61294 0.40689 0.0
C11 C 0.03971 0.61303 0.45642 0.0
N12 N 0.03198 0.62653 0.48575 0.0
C13 C 0.00385 0.62682 0.43745 0.0
C14 C 0.02959 0.606 0.41632 0.0
C15 C 0.01443 0.63351 0.47716 0.0
C16 C 0.94631 0.60894 0.2842 0.0
N17 N 0.96383 0.61531 0.29606 0.0
C18 C 0.95618 0.64615 0.2661 0.0
C19 C 0.96864 0.63371 0.28926 0.0
C20 C 0.9385 0.63962 0.25008 0.0
C21 C 0.93341 0.62088 0.2608 0.0
H22 H 0.94253 0.59444 0.29115 0.0
H23 H 0.98265 0.63844 0.29909 0.0
C24 C 0.05334 0.6061 0.26652 0.0
N25 N 0.03995 0.6139 0.2959 0.0
C26 C 0.06695 0.61746 0.24404 0.0
C27 C 0.05281 0.6447 0.28271 0.0
C28 C 0.03966 0.63275 0.30516 0.0
C29 C 0.06651 0.63717 0.25067 0.0
H30 H 0.05287 0.59117 0.25855 0.0
H31 H 0.02847 0.63866 0.32739 0.0
C32 C 0.96627 0.55814 0.31447 0.0
N33 N 0.94148 0.53064 0.28209 0.0
C34 C 0.96263 0.54222 0.34346 0.0
C35 C 0.95727 0.55999 0.269 0.0
C36 C 0.95005 0.5285 0.32647 0.0
C37 C 0.94481 0.54597 0.25326 0.0
C38 C 0.03101 0.5537 0.32933 0.0
C39 C 0.02019 0.53816 0.34369 0.0
C40 C 0.04976 0.55106 0.3151 0.0
C41 C 0.02828 0.52019 0.34349 0.0
C42 C 0.05735 0.53286 0.31537 0.0
N43 N 0.04654 0.51793 0.32942 0.0
C44 C 0.01205 0.55632 0.19495 0.0
C45 C 0.99479 0.53395 0.24174 0.0
C46 C 0.0136 0.54363 0.15603 0.0
N47 N 0.00237 0.55146 0.23621 0.0
C48 C 0.99568 0.52096 0.20343 0.0
C49 C 0.005 0.5259 0.15988 0.0
H50 H 0.01839 0.57016 0.19213 0.0
H51 H 0.98803 0.52999 0.27567 0.0
C52 C 0.98538 0.55917 0.45553 0.0
N53 N 1.00187 0.56455 0.43418 0.0
C54 C 0.98531 0.54568 0.49324 0.0
C55 C 0.0193 0.54477 0.48936 0.0
C56 C 0.0187 0.55816 0.45155 0.0
C57 C 0.00241 0.53784 0.50964 0.0
H58 H 0.97218 0.5645 0.44129 0.0
H59 H 0.03165 0.56253 0.43393 0.0
O60 O 0.00209 0.59571 0.25675 0.0
O61 O 1.00129 0.60635 0.3678 0.0
O62 O 0.97856 0.57176 0.33048 0.0
O63 O 0.02324 0.57139 0.32862 0.0
H64 H 0.01054 0.63132 0.23633 0.0
H65 H 0.97984 0.58258 0.18608 0.0
H66 H 0.99851 0.64917 0.16454 0.0
H67 H 0.96807 0.60136 0.11567 0.0
H68 H 0.05372 0.60778 0.46416 0.0
H69 H 0.98989 0.63237 0.4305 0.0
H70 H 0.03583 0.59537 0.39292 0.0
H71 H 0.00868 0.64425 0.50113 0.0
H72 H 0.96077 0.66044 0.25856 0.0
H73 H 0.91975 0.61538 0.25028 0.0
H74 H 0.07736 0.61086 0.22056 0.0
H75 H 0.05153 0.65976 0.28847 0.0
H76 H 0.96962 0.54025 0.37832 0.0
H77 H 0.95995 0.57209 0.24596 0.0
H78 H 0.94719 0.5161 0.34848 0.0
H79 H 0.9378 0.54726 0.21808 0.0
H80 H 0.00563 0.53993 0.35454 0.0
H81 H 0.05839 0.56292 0.30412 0.0
H82 H 0.02003 0.50804 0.3544 0.0
H83 H 0.07184 0.5306 0.30442 0.0
H84 H 0.02095 0.5478 0.12283 0.0
H85 H 0.9892 0.5072 0.20772 0.0
H86 H 0.97197 0.54107 0.50844 0.0
H87 H 0.03282 0.53913 0.5006 0.0
Li88 Li 0.67766 0.75117 0.61765 0.0
Li89 Li 0.65397 0.76908 0.56844 0.0
Li90 Li 0.65641 0.73284 0.56539 0.0
Li91 Li 0.68129 0.75325 0.53183 0.0
C92 C 0.64811 0.74915 0.6713 0.0
N93 N 0.6483 0.74825 0.7728 0.0
C94 C 0.64687 0.76594 0.69808 0.0
C95 C 0.6494 0.7319 0.69598 0.0
C96 C 0.64699 0.76518 0.74943 0.0
C97 C 0.64949 0.73174 0.74737 0.0
C98 C 0.69541 0.78505 0.55997 0.0
C99 C 0.70721 0.80745 0.50068 0.0
N100 N 0.725 0.80461 0.51784 0.0
C101 C 0.7138 0.78236 0.57706 0.0
C102 C 0.69206 0.79771 0.52152 0.0
C103 C 0.72857 0.79239 0.55528 0.0
C104 C 0.69955 0.73429 0.69367 0.0
N105 N 0.69238 0.75098 0.67755 0.0
C106 C 0.71063 0.76784 0.73738 0.0
C107 C 0.69738 0.76757 0.69915 0.0
C108 C 0.71889 0.75087 0.75363 0.0
C109 C 0.71283 0.7339 0.73178 0.0
H110 H 0.69546 0.72131 0.67572 0.0
H111 H 0.69161 0.78069 0.68542 0.0
C112 C 0.61925 0.78312 0.53929 0.0
N113 N 0.63621 0.78886 0.55721 0.0
C114 C 0.6073 0.79598 0.51605 0.0
C115 C 0.62962 0.8208 0.53435 0.0
C116 C 0.64133 0.80737 0.55664 0.0
C117 C 0.61272 0.81498 0.51198 0.0
H118 H 0.61571 0.76827 0.53952 0.0
H119 H 0.655 0.81151 0.57057 0.0
C120 C 0.69028 0.71492 0.54582 0.0
N121 N 0.70249 0.68437 0.49111 0.0
C122 C 0.68537 0.71332 0.49618 0.0
C123 C 0.70154 0.70102 0.56748 0.0
C124 C 0.69165 0.69777 0.46918 0.0
C125 C 0.70752 0.68566 0.53926 0.0
C126 C 0.6477 0.75385 0.46582 0.0
C127 C 0.64226 0.73805 0.43838 0.0
C128 C 0.64514 0.7719 0.446 0.0
C129 C 0.63431 0.74057 0.39184 0.0
C130 C 0.63712 0.77384 0.39936 0.0
N131 N 0.63191 0.75827 0.37347 0.0
C132 C 0.62234 0.71714 0.5393 0.0
C133 C 0.64629 0.69388 0.54182 0.0
C134 C 0.61005 0.7046 0.51603 0.0
N135 N 0.64029 0.71185 0.55009 0.0
C136 C 0.63448 0.68088 0.51815 0.0
C137 C 0.61627 0.68639 0.50333 0.0
H138 H 0.61795 0.73152 0.54608 0.0
H139 H 0.66051 0.68983 0.55113 0.0
C140 C 0.71724 0.74878 0.49049 0.0
N141 N 0.69957 0.75515 0.48059 0.0
C142 C 0.73106 0.74899 0.45402 0.0
C143 C 0.7083 0.76251 0.39804 0.0
C144 C 0.69503 0.76222 0.43571 0.0
C145 C 0.72657 0.75569 0.40679 0.0
H146 H 0.72054 0.74343 0.52674 0.0
H147 H 0.68111 0.76754 0.42879 0.0
O148 O 0.64868 0.74965 0.62112 0.0
O149 O 0.68085 0.77497 0.57992 0.0
O150 O 0.68452 0.73013 0.57306 0.0
O151 O 0.65496 0.75168 0.51226 0.0
H152 H 0.64601 0.7794 0.67935 0.0
H153 H 0.65053 0.71882 0.67561 0.0
H154 H 0.64612 0.77806 0.77071 0.0
H155 H 0.65057 0.71851 0.76703 0.0
H156 H 0.70484 0.8172 0.47069 0.0
H157 H 0.71669 0.77242 0.60631 0.0
H158 H 0.67796 0.79975 0.50735 0.0
H159 H 0.74288 0.79037 0.56795 0.0
H160 H 0.71456 0.78125 0.7535 0.0
H161 H 0.71884 0.72048 0.74254 0.0
H162 H 0.5943 0.79098 0.4997 0.0
H163 H 0.63428 0.83534 0.53188 0.0
H164 H 0.67687 0.72396 0.47859 0.0
H165 H 0.70562 0.70207 0.60572 0.0
H166 H 0.68791 0.69638 0.43077 0.0
H167 H 0.71619 0.67478 0.55563 0.0
H168 H 0.64414 0.72394 0.45271 0.0
H169 H 0.64958 0.78431 0.46601 0.0
H170 H 0.63003 0.72845 0.37034 0.0
H171 H 0.63508 0.78773 0.3837 0.0
H172 H 0.59601 0.70937 0.50669 0.0
H173 H 0.63994 0.66702 0.50932 0.0
H174 H 0.74507 0.74395 0.46277 0.0
H175 H 0.7041 0.76763 0.36216 0.0
Li176 Li 0.50378 0.43251 0.78763 0.0
Li177 Li 0.50192 0.42682 0.8747 0.0
Li178 Li 0.51943 0.4041 0.81598 0.0
Li179 Li 0.48438 0.40569 0.81284 0.0
C180 C 0.5386 0.44415 0.82363 0.0
N181 N 0.5657 0.47097 0.80187 0.0
C182 C 0.53973 0.4608 0.85116 0.0
C183 C 0.55136 0.44113 0.78525 0.0
C184 C 0.55351 0.47419 0.83956 0.0
C185 C 0.56491 0.45487 0.77472 0.0
C186 C 0.47258 0.44926 0.8149 0.0
C187 C 0.45024 0.4661 0.76452 0.0
N188 N 0.45737 0.48274 0.78119 0.0
C189 C 0.47964 0.46652 0.83175 0.0
C190 C 0.45771 0.44902 0.78122 0.0
C191 C 0.47177 0.4833 0.81421 0.0
C192 C 0.49389 0.44703 0.69673 0.0
N193 N 0.50376 0.45148 0.73801 0.0
C194 C 0.51136 0.48183 0.70547 0.0
C195 C 0.51206 0.46866 0.74344 0.0
C196 C 0.50157 0.47742 0.66224 0.0
C197 C 0.49255 0.45989 0.65816 0.0
H198 H 0.48694 0.43349 0.69393 0.0
H199 H 0.51887 0.47239 0.77736 0.0
C200 C 0.51767 0.44438 0.96024 0.0
N201 N 0.50128 0.44013 0.93672 0.0
C202 C 0.51792 0.45785 0.99799 0.0
C203 C 0.4842 0.46112 0.98962 0.0
C204 C 0.48464 0.44787 0.95142 0.0
C205 C 0.50108 0.46672 0.01241 0.0
H206 H 0.53075 0.4382 0.94761 0.0
H207 H 0.47182 0.44452 0.9317 0.0
C208 C 0.50947 0.39987 0.71695 0.0
N209 N 0.52409 0.38419 0.632 0.0
C210 C 0.50248 0.38269 0.69929 0.0
C211 C 0.52369 0.40919 0.69093 0.0
C212 C 0.51012 0.37496 0.65642 0.0
C213 C 0.53094 0.40101 0.64819 0.0
C214 C 0.4919 0.38601 0.90102 0.0
C215 C 0.4961 0.36674 0.90087 0.0
C216 C 0.47812 0.393 0.93291 0.0
C217 C 0.48634 0.35471 0.93269 0.0
C218 C 0.46869 0.38052 0.96419 0.0
N219 N 0.47295 0.36179 0.96341 0.0
C220 C 0.55793 0.39121 0.80468 0.0
C221 C 0.53367 0.36984 0.78253 0.0
C222 C 0.57151 0.37944 0.78328 0.0
N223 N 0.53934 0.38653 0.80234 0.0
C224 C 0.54666 0.35792 0.7597 0.0
C225 C 0.56577 0.36293 0.75887 0.0
H226 H 0.56215 0.40443 0.82122 0.0
H227 H 0.51885 0.36628 0.78209 0.0
C228 C 0.45766 0.39526 0.74483 0.0
N229 N 0.46302 0.3911 0.79161 0.0
C230 C 0.44447 0.38407 0.7203 0.0
C231 C 0.44175 0.36483 0.79324 0.0
C232 C 0.45512 0.37639 0.81636 0.0
C233 C 0.43654 0.36835 0.74409 0.0
H234 H 0.46438 0.40681 0.72559 0.0
H235 H 0.45954 0.37317 0.85336 0.0
O236 O 0.52536 0.43074 0.83495 0.0
O237 O 0.48049 0.43271 0.83052 0.0
O238 O 0.50239 0.40748 0.75944 0.0
O239 O 0.5013 0.39797 0.87017 0.0
H240 H 0.52981 0.46364 0.88035 0.0
H241 H 0.55088 0.4283 0.76386 0.0
H242 H 0.55443 0.48718 0.86033 0.0
H243 H 0.57483 0.4527 0.74503 0.0
H244 H 0.43879 0.46613 0.73823 0.0
H245 H 0.49131 0.46696 0.85734 0.0
H246 H 0.45207 0.43579 0.76788 0.0
H247 H 0.47719 0.49676 0.8266 0.0
H248 H 0.51813 0.49543 0.7101 0.0
H249 H 0.48482 0.4561 0.62526 0.0
H250 H 0.53122 0.46163 0.01494 0.0
H251 H 0.47092 0.46766 0.99942 0.0
H252 H 0.49152 0.37522 0.71898 0.0
H253 H 0.52897 0.42268 0.70334 0.0
H254 H 0.50497 0.36158 0.64265 0.0
H255 H 0.542 0.40806 0.62782 0.0
H256 H 0.50675 0.36115 0.87636 0.0
H257 H 0.47466 0.40787 0.93323 0.0
H258 H 0.4894 0.33975 0.93294 0.0
H259 H 0.45795 0.38571 0.98899 0.0
H260 H 0.5862 0.38363 0.78364 0.0
H261 H 0.54179 0.34513 0.7419 0.0
H262 H 0.4412 0.38725 0.68229 0.0
H263 H 0.43581 0.35307 0.81343 0.0
Li264 Li 0.8253 0.25395 0.11762 0.0
Li265 Li 0.85026 0.23551 0.07012 0.0
Li266 Li 0.84756 0.27134 0.06365 0.0
Li267 Li 0.8238 0.25093 0.03197 0.0
C268 C 0.85982 0.24924 0.16814 0.0
N269 N 0.87148 0.2365 0.25919 0.0
C270 C 0.85837 0.2301 0.17999 0.0
C271 C 0.86724 0.26191 0.20249 0.0
C272 C 0.86436 0.22393 0.22623 0.0
C273 C 0.87302 0.25519 0.24839 0.0
C274 C 0.80842 0.2186 0.06743 0.0
C275 C 0.79614 0.18889 0.03809 0.0
N276 N 0.77834 0.19593 0.04111 0.0
C277 C 0.79001 0.22552 0.07027 0.0
C278 C 0.81153 0.20013 0.05122 0.0
C279 C 0.77499 0.21385 0.05676 0.0
C280 C 0.79133 0.26287 0.16462 0.0
N281 N 0.80837 0.25484 0.17433 0.0
C282 C 0.79785 0.24681 0.25572 0.0
C283 C 0.81184 0.2469 0.21908 0.0
C284 C 0.78011 0.25499 0.24633 0.0
C285 C 0.77708 0.26318 0.2 0.0
H286 H 0.78849 0.2686 0.12858 0.0
H287 H 0.82526 0.24032 0.22629 0.0
C288 C 0.88346 0.22202 0.03247 0.0
N289 N 0.86862 0.21604 0.05995 0.0
C290 C 0.89598 0.20908 0.01188 0.0
C291 C 0.87871 0.18395 0.05158 0.0
C292 C 0.86627 0.19745 0.07086 0.0
C293 C 0.89353 0.18963 0.02026 0.0
H294 H 0.88492 0.23687 0.02396 0.0
H295 H 0.85439 0.19299 0.0929 0.0
C296 C 0.81687 0.29111 0.09434 0.0
N297 N 0.81066 0.32438 0.14502 0.0
C298 C 0.80231 0.30325 0.08014 0.0
C299 C 0.82826 0.29593 0.13439 0.0
C300 C 0.7994 0.31999 0.1062 0.0
C301 C 0.8249 0.3128 0.15952 0.0
C302 C 0.84964 0.25041 0.96275 0.0
C303 C 0.84756 0.26646 0.93333 0.0
C304 C 0.85065 0.23259 0.94083 0.0
C305 C 0.84641 0.26438 0.88231 0.0
C306 C 0.84946 0.23111 0.88969 0.0
N307 N 0.84737 0.2469 0.86174 0.0
C308 C 0.88185 0.28921 0.04596 0.0
C309 C 0.85551 0.30851 0.02755 0.0
C310 C 0.89402 0.30215 0.02367 0.0
N311 N 0.86298 0.29245 0.04686 0.0
C312 C 0.8672 0.32192 0.00519 0.0
C313 C 0.88674 0.31863 0.0019 0.0
H314 H 0.88731 0.27602 0.06012 0.0
H315 H 0.84041 0.3105 0.02714 0.0
C316 C 0.80434 0.23276 0.95238 0.0
N317 N 0.80726 0.2491 0.97751 0.0
C318 C 0.79217 0.23245 0.91215 0.0
C319 C 0.78696 0.26593 0.92318 0.0
C320 C 0.79908 0.26554 0.96337 0.0
C321 C 0.7832 0.24918 0.89737 0.0
H322 H 0.81155 0.22001 0.96325 0.0
H323 H 0.80217 0.27843 0.98299 0.0
O324 O 0.85418 0.25559 0.123 0.0
O325 O 0.82332 0.22976 0.08074 0.0
O326 O 0.81977 0.27465 0.06895 0.0
O327 O 0.85036 0.25212 0.01282 0.0
H328 H 0.85243 0.22017 0.15408 0.0
H329 H 0.86853 0.27676 0.19377 0.0
H330 H 0.86326 0.20916 0.23598 0.0
H331 H 0.87875 0.26483 0.27539 0.0
H332 H 0.79836 0.17459 0.02537 0.0
H333 H 0.78734 0.23984 0.0819 0.0
H334 H 0.82567 0.19458 0.04829 0.0
H335 H 0.76068 0.21907 0.05855 0.0
H336 H 0.8009 0.24041 0.291 0.0
H337 H 0.76358 0.2693 0.19047 0.0
H338 H 0.90686 0.21432 0.98755 0.0
H339 H 0.87643 0.16921 0.06018 0.0
H340 H 0.79327 0.29974 0.0494 0.0
H341 H 0.83957 0.28681 0.14607 0.0
H342 H 0.78817 0.32949 0.09559 0.0
H343 H 0.83362 0.31668 0.19056 0.0
H344 H 0.84665 0.28034 0.94976 0.0
H345 H 0.85201 0.22 0.96309 0.0
H346 H 0.84471 0.27666 0.85908 0.0
H347 H 0.8501 0.2174 0.87224 0.0
H348 H 0.90887 0.29873 0.02135 0.0
H349 H 0.86092 0.33447 0.98947 0.0
H350 H 0.78963 0.21922 0.89331 0.0
H351 H 0.78073 0.27924 0.91224 0.0
Li352 Li 0.00243 0.42964 0.77548 0.0
Li353 Li 1.00137 0.43328 0.86504 0.0
Li354 Li 0.01883 0.4057 0.82762 0.0
Li355 Li 0.98429 0.40605 0.82948 0.0
C356 C 0.03863 0.44319 0.80445 0.0
N357 N 0.06878 0.46368 0.76847 0.0
C358 C 0.04132 0.46191 0.81914 0.0
C359 C 0.05147 0.43478 0.77223 0.0
C360 C 0.05658 0.47207 0.80029 0.0
C361 C 0.06658 0.4454 0.75426 0.0
C362 C 0.96545 0.44568 0.82994 0.0
C363 C 0.94056 0.45574 0.8845 0.0
N364 N 0.93692 0.4706 0.8543 0.0
C365 C 0.9613 0.46094 0.79916 0.0
C366 C 0.95486 0.44296 0.87272 0.0
C367 C 0.94689 0.47342 0.81221 0.0
C368 C 1.0004 0.4423 0.67203 0.0
N369 N 0.00305 0.4468 0.72022 0.0
C370 C 0.00618 0.47956 0.69974 0.0
C371 C 0.00575 0.46502 0.73432 0.0
C372 C 0.00355 0.47549 0.64969 0.0
C373 C 1.00056 0.45653 0.63595 0.0
H374 H 0.998 0.42776 0.66159 0.0
H375 H 0.00706 0.46835 0.77295 0.0
C376 C 0.0134 0.44649 0.9554 0.0
N377 N 0.00267 0.45114 0.91582 0.0
C378 C 0.01472 0.45879 0.99521 0.0
C379 C 0.99423 0.48055 0.95214 0.0
C380 C 0.99359 0.46798 0.91281 0.0
C381 C 0.00478 0.47586 0.99396 0.0
H382 H 0.02074 0.4331 0.95614 0.0
H383 H 0.98584 0.47169 0.88009 0.0
C384 C 0.01 0.38913 0.73896 0.0
N385 N 0.02823 0.36498 0.67491 0.0
C386 C 0.00568 0.36988 0.73891 0.0
C387 C 0.02332 0.39616 0.70585 0.0
C388 C 0.01514 0.35788 0.70644 0.0
C389 C 0.03246 0.38372 0.67391 0.0
C390 C 0.99524 0.39824 0.92711 0.0
C391 C 1.00043 0.37973 0.93883 0.0
C392 C 0.98319 0.4081 0.95866 0.0
C393 C 0.99303 0.37123 0.98098 0.0
C394 C 0.9761 0.39912 1.00051 0.0
N395 N 0.98109 0.381 0.01066 0.0
C396 C 0.05547 0.39692 0.86192 0.0
C397 C 0.03647 0.37042 0.84257 0.0
C398 C 0.06861 0.38533 0.88567 0.0
N399 N 0.0396 0.38936 0.84183 0.0
C400 C 0.0491 0.35837 0.86639 0.0
C401 C 0.06512 0.36586 0.88968 0.0
H402 H 0.0573 0.41207 0.86261 0.0
H403 H 0.0234 0.36482 0.82838 0.0
C404 C 0.94542 0.39535 0.84649 0.0
N405 N 0.96355 0.38933 0.842 0.0
C406 C 0.93188 0.38372 0.86869 0.0
C407 C 0.95564 0.35956 0.87792 0.0
C408 C 0.9686 0.37152 0.85511 0.0
C409 C 0.93716 0.36586 0.88651 0.0
H410 H 0.94163 0.40945 0.83516 0.0
H411 H 0.98307 0.36704 0.85073 0.0
O412 O 0.02376 0.43304 0.82258 0.0
O413 O 0.97976 0.43351 0.81806 0.0
O414 O 1.0009 0.40109 0.7705 0.0
O415 O 0.00216 0.40673 0.8855 0.0
H416 H 0.03163 0.46855 0.8446 0.0
H417 H 0.04993 0.42015 0.76167 0.0
H418 H 0.05875 0.48662 0.81102 0.0
H419 H 0.07659 0.43908 0.72918 0.0
H420 H 0.93231 0.4538 0.9176 0.0
H421 H 0.96903 0.46312 0.76541 0.0
H422 H 0.95751 0.43104 0.89637 0.0
H423 H 0.94361 0.48532 0.78879 0.0
H424 H 0.00806 0.49394 0.71234 0.0
H425 H 0.99849 0.45273 0.59775 0.0
H426 H 0.02301 0.45484 0.02705 0.0
H427 H 0.98666 0.4938 0.94989 0.0
H428 H 0.9952 0.36425 0.76386 0.0
H429 H 0.02651 0.41108 0.70465 0.0
H430 H 0.01204 0.34292 0.70626 0.0
H431 H 0.04287 0.38896 0.64822 0.0
H432 H 0.00987 0.37189 0.91534 0.0
H433 H 0.9795 0.4226 0.95136 0.0
H434 H 0.99677 0.35684 0.99007 0.0
H435 H 0.9667 0.4066 0.02504 0.0
H436 H 0.08067 0.3917 0.9036 0.0
H437 H 0.04592 0.34343 0.86851 0.0
H438 H 0.91774 0.38907 0.87433 0.0
H439 H 0.96019 0.34575 0.89019 0.0
Li440 Li 0.84878 0.73479 0.07727 0.0
Li441 Li 0.82374 0.75181 0.11843 0.0
Li442 Li 0.82456 0.75119 0.02706 0.0
Li443 Li 0.84979 0.76941 0.07887 0.0
C444 C 0.81533 0.71241 0.08429 0.0
N445 N 0.80358 0.67618 0.10579 0.0
C446 C 0.81603 0.70578 0.13267 0.0
C447 C 0.80863 0.70068 0.04686 0.0
C448 C 0.81001 0.6874 0.14278 0.0
C449 C 0.80277 0.68238 0.05848 0.0
C450 C 0.85823 0.75226 0.17917 0.0
C451 C 0.86919 0.76977 0.24974 0.0
N452 N 0.87379 0.75328 0.27237 0.0
C453 C 0.86289 0.73547 0.20341 0.0
C454 C 0.86125 0.76955 0.20274 0.0
C455 C 0.87081 0.73629 0.25039 0.0
C456 C 0.8836 0.72017 0.10177 0.0
N457 N 0.86617 0.71424 0.0878 0.0
C458 C 0.87345 0.68269 0.11316 0.0
C459 C 0.86121 0.69571 0.09113 0.0
C460 C 0.89097 0.68879 0.13159 0.0
C461 C 0.89626 0.70766 0.12366 0.0
H462 H 0.88716 0.73498 0.09919 0.0
H463 H 0.84743 0.69115 0.07939 0.0
C464 C 0.78779 0.75404 0.16098 0.0
N465 N 0.80636 0.75171 0.17187 0.0
C466 C 0.77442 0.75482 0.19856 0.0
C467 C 0.79936 0.74958 0.25759 0.0
C468 C 0.81225 0.74928 0.21903 0.0
C469 C 0.78025 0.75258 0.24749 0.0
H470 H 0.7834 0.75543 0.12308 0.0
H471 H 0.82689 0.74703 0.22715 0.0
C472 C 0.86498 0.74076 0.99387 0.0
N473 N 0.8891 0.71634 0.94591 0.0
C474 C 0.88429 0.74457 0.99236 0.0
C475 C 0.85788 0.72464 0.97075 0.0
C476 C 0.89627 0.73202 0.96797 0.0
C477 C 0.87032 0.71244 0.94676 0.0
C478 C 0.80903 0.78575 0.09183 0.0
C479 C 0.79198 0.78911 0.06761 0.0
C480 C 0.8126 0.79447 0.13701 0.0
C481 C 0.77868 0.80105 0.08928 0.0
C482 C 0.79893 0.80629 0.15749 0.0
N483 N 0.7824 0.8093 0.13341 0.0
C484 C 0.78948 0.74516 0.98452 0.0
C485 C 0.81154 0.75631 0.92597 0.0
C486 C 0.7752 0.74487 0.94911 0.0
N487 N 0.80721 0.75085 0.9726 0.0
C488 C 0.79762 0.75625 0.88921 0.0
C489 C 0.77908 0.7505 0.90054 0.0
H490 H 0.78636 0.74107 0.022 0.0
H491 H 0.82574 0.76082 0.91736 0.0
C492 C 0.88446 0.78549 0.10047 0.0
N493 N 0.86635 0.79019 0.08982 0.0
C494 C 0.89655 0.79869 0.12189 0.0
C495 C 0.8714 0.82167 0.11888 0.0
C496 C 0.85978 0.80799 0.0973 0.0
C497 C 0.8899 0.8169 0.13296 0.0
H498 H 0.88915 0.7711 0.09532 0.0
H499 H 0.84521 0.81127 0.08941 0.0
O500 O 0.8211 0.73032 0.07342 0.0
O501 O 0.85063 0.75175 0.13289 0.0
O502 O 0.85306 0.75253 0.0187 0.0
O503 O 0.82208 0.77388 0.07152 0.0
H504 H 0.82135 0.71465 0.16195 0.0
H505 H 0.80804 0.70564 0.00923 0.0
H506 H 0.81052 0.68203 0.18001 0.0
H507 H 0.7976 0.67311 0.02988 0.0
H508 H 0.87165 0.78306 0.26827 0.0
H509 H 0.86017 0.72192 0.18649 0.0
H510 H 0.85743 0.78267 0.18515 0.0
H511 H 0.87452 0.72341 0.26946 0.0
H512 H 0.86874 0.66828 0.11825 0.0
H513 H 0.90978 0.71295 0.13608 0.0
H514 H 0.7597 0.75691 0.18951 0.0
H515 H 0.80432 0.74779 0.29499 0.0
H516 H 0.88998 0.75701 0.01009 0.0
H517 H 0.84294 0.7215 0.97184 0.0
H518 H 0.91128 0.73472 0.96667 0.0
H519 H 0.86506 0.69984 0.92894 0.0
H520 H 0.78903 0.78253 0.03253 0.0
H521 H 0.82568 0.79193 0.15633 0.0
H522 H 0.7654 0.80374 0.07103 0.0
H523 H 0.80145 0.81302 0.19259 0.0
H524 H 0.76114 0.74065 0.96006 0.0
H525 H 0.80139 0.76052 0.85226 0.0
H526 H 0.91077 0.79445 0.13123 0.0
H527 H 0.8656 0.83546 0.12697 0.0
Li528 Li 0.48468 0.59838 0.3285 0.0
Li529 Li 0.51966 0.59779 0.33133 0.0
Li530 Li 0.50098 0.57422 0.27958 0.0
Li531 Li 0.50119 0.5716 0.36961 0.0
C532 C 0.49353 0.61558 0.2447 0.0
N533 N 0.47372 0.64205 0.19095 0.0
C534 C 0.49817 0.6347 0.24827 0.0
C535 C 0.47901 0.60988 0.21334 0.0
C536 C 0.48792 0.64789 0.22095 0.0
C537 C 0.46912 0.62348 0.18657 0.0
C538 C 0.5028 0.60376 0.43367 0.0
C539 C 0.521 0.6093 0.50722 0.0
N540 N 0.50498 0.61435 0.53136 0.0
C541 C 0.48653 0.60907 0.45918 0.0
C542 C 0.52019 0.60392 0.45783 0.0
C543 C 0.48792 0.61434 0.50856 0.0
C544 C 0.44695 0.60896 0.35206 0.0
N545 N 0.46454 0.61551 0.34173 0.0
C546 C 0.45696 0.64565 0.37607 0.0
C547 C 0.46959 0.63357 0.35241 0.0
C548 C 0.439 0.63904 0.38962 0.0
C549 C 0.43384 0.6206 0.37582 0.0
H550 H 0.44354 0.59432 0.34511 0.0
H551 H 0.4839 0.63818 0.34581 0.0
C552 C 0.5589 0.60854 0.34705 0.0
N553 N 0.54057 0.61415 0.34467 0.0
C554 C 0.57247 0.62028 0.36873 0.0
C555 C 0.5483 0.64376 0.38191 0.0
C556 C 0.53521 0.63153 0.36066 0.0
C557 C 0.56713 0.63801 0.38739 0.0
H558 H 0.5629 0.5947 0.33413 0.0
H559 H 0.52049 0.63545 0.35948 0.0
C560 C 0.46671 0.55861 0.30566 0.0
N561 N 0.44196 0.53302 0.26427 0.0
C562 C 0.46684 0.53976 0.32083 0.0
C563 C 0.45378 0.56452 0.27009 0.0
C564 C 0.45428 0.52701 0.29926 0.0
C565 C 0.44144 0.55135 0.24944 0.0
C566 C 0.53993 0.56191 0.33341 0.0
C567 C 0.54963 0.55272 0.29565 0.0
C568 C 0.5478 0.56273 0.38051 0.0
C569 C 0.56713 0.54451 0.30563 0.0
C570 C 0.56533 0.55436 0.389 0.0
N571 N 0.57455 0.5455 0.3517 0.0
C572 C 0.50097 0.56149 0.17644 0.0
C573 C 0.50199 0.53839 0.23934 0.0
C574 C 0.50106 0.54731 0.14027 0.0
N575 N 0.50126 0.55677 0.22499 0.0
C576 C 0.50169 0.52385 0.20467 0.0
C577 C 0.50118 0.52818 0.15436 0.0
H578 H 0.50069 0.57619 0.16574 0.0
H579 H 0.5028 0.53501 0.27807 0.0
C580 C 0.48873 0.55787 0.46097 0.0
N581 N 0.50024 0.55435 0.42208 0.0
C582 C 0.4882 0.54541 0.50062 0.0
C583 C 0.51095 0.52571 0.45858 0.0
C584 C 0.5108 0.53839 0.41949 0.0
C585 C 0.49967 0.52929 0.49985 0.0
H586 H 0.47995 0.57032 0.46113 0.0
H587 H 0.5191 0.53548 0.38708 0.0
O588 O 0.50323 0.60247 0.27158 0.0
O589 O 0.50173 0.59881 0.38506 0.0
O590 O 0.47896 0.57126 0.32617 0.0
O591 O 0.52267 0.56976 0.32432 0.0
H592 H 0.50949 0.63933 0.27205 0.0
H593 H 0.47546 0.59511 0.20962 0.0
H594 H 0.49127 0.66276 0.22358 0.0
H595 H 0.45779 0.61927 0.16227 0.0
H596 H 0.53438 0.6095 0.52632 0.0
H597 H 0.47292 0.60896 0.44124 0.0
H598 H 0.53297 0.60008 0.43867 0.0
H599 H 0.47542 0.61842 0.52875 0.0
H600 H 0.46151 0.6598 0.38543 0.0
H601 H 0.42026 0.61481 0.38604 0.0
H602 H 0.58689 0.6154 0.37179 0.0
H603 H 0.54351 0.65719 0.39628 0.0
H604 H 0.47664 0.53499 0.34868 0.0
H605 H 0.4532 0.57914 0.25878 0.0
H606 H 0.45433 0.51234 0.31035 0.0
H607 H 0.43141 0.55571 0.22172 0.0
H608 H 0.54368 0.5519 0.25904 0.0
H609 H 0.54037 0.5696 0.41024 0.0
H610 H 0.5748 0.53733 0.27677 0.0
H611 H 0.57157 0.55487 0.42528 0.0
H612 H 0.50073 0.55123 0.10177 0.0
H613 H 0.50213 0.50933 0.21712 0.0
H614 H 0.47923 0.54848 0.53186 0.0
H615 H 0.51963 0.51315 0.45644 0.0
Li616 Li 0.6574 0.26882 0.58461 0.0
Li617 Li 0.68396 0.24935 0.61494 0.0
Li618 Li 0.67821 0.2522 0.52678 0.0
Li619 Li 0.6567 0.23366 0.58005 0.0
C620 C 0.68845 0.29106 0.57931 0.0
N621 N 0.69469 0.32929 0.59145 0.0
C622 C 0.69948 0.29755 0.61843 0.0
C623 C 0.68067 0.30401 0.54624 0.0
C624 C 0.70246 0.31694 0.62396 0.0
C625 C 0.68396 0.32328 0.55306 0.0
C626 C 0.64592 0.24295 0.67266 0.0
C627 C 0.63767 0.21885 0.7317 0.0
N628 N 0.62071 0.22737 0.73887 0.0
C629 C 0.62842 0.25148 0.68079 0.0
C630 C 0.65061 0.22654 0.69852 0.0
C631 C 0.61588 0.24338 0.71436 0.0
C632 C 0.62445 0.29216 0.58663 0.0
N633 N 0.64232 0.29006 0.60377 0.0
C634 C 0.63728 0.31421 0.66389 0.0
C635 C 0.64885 0.3008 0.64154 0.0
C636 C 0.61837 0.31611 0.64903 0.0
C637 C 0.61215 0.30506 0.609 0.0
H638 H 0.61937 0.283 0.55768 0.0
H639 H 0.66281 0.29836 0.65604 0.0
C640 C 0.72119 0.24961 0.652 0.0
N641 N 0.70263 0.24861 0.66417 0.0
C642 C 0.73491 0.24946 0.68873 0.0
C643 C 0.71007 0.24771 0.74956 0.0
C644 C 0.69689 0.24791 0.71175 0.0
C645 C 0.72935 0.24856 0.73825 0.0
H646 H 0.72529 0.25081 0.61384 0.0
H647 H 0.68207 0.24778 0.72049 0.0
C648 C 0.64657 0.25321 0.47901 0.0
N649 N 0.64199 0.25422 0.37821 0.0
C650 C 0.64557 0.23641 0.45224 0.0
C651 C 0.64511 0.27052 0.4547 0.0
C652 C 0.64329 0.23722 0.40123 0.0
C653 C 0.64283 0.27074 0.40367 0.0
C654 C 0.69933 0.21876 0.57749 0.0
C655 C 0.71583 0.22061 0.54974 0.0
C656 C 0.69931 0.20713 0.61906 0.0
C657 C 0.732 0.21078 0.56401 0.0
C658 C 0.71578 0.19758 0.63221 0.0
N659 N 0.73165 0.19957 0.60463 0.0
C660 C 0.70226 0.26952 0.45676 0.0
C661 C 0.69443 0.23798 0.43665 0.0
C662 C 0.71559 0.27015 0.41892 0.0
N663 N 0.69219 0.25353 0.46552 0.0
C664 C 0.70774 0.23795 0.39845 0.0
C665 C 0.71884 0.2541 0.38973 0.0
H666 H 0.70069 0.28155 0.48068 0.0
H667 H 0.68662 0.22525 0.44493 0.0
C668 C 0.62131 0.2173 0.59651 0.0
N669 N 0.63983 0.21288 0.59099 0.0
C670 C 0.60899 0.20458 0.61913 0.0
C671 C 0.63463 0.1823 0.62591 0.0
C672 C 0.6465 0.19551 0.60332 0.0
C673 C 0.61578 0.18708 0.63592 0.0
H674 H 0.61642 0.23128 0.58684 0.0
H675 H 0.66127 0.19233 0.59862 0.0
O676 O 0.6853 0.27213 0.57343 0.0
O677 O 0.65829 0.25049 0.63922 0.0
O678 O 0.64923 0.25271 0.52873 0.0
O679 O 0.68335 0.22838 0.56429 0.0
H680 H 0.70559 0.28776 0.64444 0.0
H681 H 0.67211 0.29922 0.5158 0.0
H682 H 0.71091 0.32216 0.65414 0.0
H683 H 0.67798 0.33345 0.52784 0.0
H684 H 0.64108 0.20608 0.75161 0.0
H685 H 0.62445 0.26412 0.66121 0.0
H686 H 0.66403 0.21968 0.6927 0.0
H687 H 0.60227 0.24981 0.72081 0.0
H688 H 0.64306 0.32258 0.69358 0.0
H689 H 0.59768 0.30558 0.59647 0.0
H690 H 0.74964 0.2505 0.67857 0.0
H691 H 0.70519 0.2469 0.78726 0.0
H692 H 0.64673 0.2229 0.47066 0.0
H693 H 0.64574 0.28364 0.47505 0.0
H694 H 0.6426 0.22434 0.37995 0.0
H695 H 0.64174 0.28403 0.38429 0.0
H696 H 0.71629 0.22972 0.51793 0.0
H697 H 0.68681 0.2057 0.64142 0.0
H698 H 0.74487 0.21214 0.54293 0.0
H699 H 0.71596 0.18863 0.66445 0.0
H700 H 0.72393 0.28284 0.41423 0.0
H701 H 0.7096 0.22529 0.37668 0.0
H702 H 0.59449 0.20873 0.62527 0.0
H703 H 0.64048 0.16899 0.63819 0.0
Li704 Li 0.31966 0.25302 0.61947 0.0
Li705 Li 0.3449 0.23419 0.58671 0.0
Li706 Li 0.34725 0.2694 0.58264 0.0
Li707 Li 0.32407 0.25099 0.53068 0.0
C708 C 0.35346 0.24392 0.68061 0.0
N709 N 0.36958 0.22461 0.75833 0.0
C710 C 0.34283 0.23089 0.70757 0.0
C711 C 0.37228 0.24715 0.69332 0.0
C712 C 0.35123 0.2213 0.74675 0.0
C713 C 0.38018 0.23723 0.73266 0.0
C714 C 0.31377 0.21178 0.57833 0.0
C715 C 0.31784 0.18067 0.54384 0.0
N716 N 0.30708 0.17335 0.58062 0.0
C717 C 0.30274 0.20396 0.61577 0.0
C718 C 0.32138 0.20006 0.54203 0.0
C719 C 0.29952 0.1845 0.61627 0.0
C720 C 0.28365 0.24989 0.66115 0.0
N721 N 0.30173 0.25511 0.67015 0.0
C722 C 0.29451 0.26209 0.75381 0.0
C723 C 0.30725 0.26161 0.71488 0.0
C724 C 0.27581 0.25622 0.74619 0.0
C725 C 0.27034 0.25045 0.69878 0.0
H726 H 0.27967 0.24509 0.62482 0.0
H727 H 0.32167 0.26604 0.72055 0.0
C728 C 0.37963 0.21494 0.595 0.0
N729 N 0.36085 0.21298 0.60371 0.0
C730 C 0.39262 0.20276 0.61732 0.0
C731 C 0.36669 0.18623 0.65543 0.0
C732 C 0.35426 0.19871 0.63258 0.0
C733 C 0.3862 0.18848 0.64919 0.0
H734 H 0.38461 0.22672 0.57326 0.0
H735 H 0.33949 0.19778 0.64126 0.0
C736 C 0.30437 0.28391 0.58582 0.0
N737 N 0.2724 0.30193 0.62007 0.0
C738 C 0.28703 0.2811 0.56248 0.0
C739 C 0.30541 0.29583 0.62674 0.0
C740 C 0.27105 0.29037 0.58028 0.0
C741 C 0.28909 0.30481 0.64347 0.0
C742 C 0.35577 0.24904 0.48083 0.0
C743 C 0.35576 0.26544 0.45232 0.0
C744 C 0.35845 0.2315 0.45839 0.0
C745 C 0.35818 0.26399 0.40145 0.0
C746 C 0.36085 0.23064 0.40744 0.0
N747 N 0.36064 0.24677 0.38025 0.0
C748 C 0.38273 0.28563 0.59926 0.0
C749 C 0.35756 0.30752 0.60374 0.0
C750 C 0.39516 0.29884 0.61947 0.0
N751 N 0.36421 0.28997 0.59334 0.0
C752 C 0.36949 0.32116 0.62424 0.0
C753 C 0.38846 0.3167 0.63398 0.0
H754 H 0.38762 0.27153 0.59085 0.0
H755 H 0.34281 0.31066 0.59854 0.0
C756 C 0.2991 0.23495 0.45999 0.0
N757 N 0.30939 0.25069 0.47017 0.0
C758 C 0.28584 0.23494 0.42195 0.0
C759 C 0.29396 0.26732 0.40456 0.0
C760 C 0.30719 0.26668 0.44295 0.0
C761 C 0.28284 0.25135 0.39398 0.0
H762 H 0.3005 0.2226 0.48275 0.0
H763 H 0.31513 0.27921 0.45236 0.0
O764 O 0.34561 0.25314 0.64134 0.0
O765 O 0.3171 0.23081 0.5773 0.0
O766 O 0.3201 0.27457 0.5697 0.0
O767 O 0.35306 0.25013 0.53048 0.0
H768 H 0.32837 0.22788 0.69765 0.0
H769 H 0.38076 0.2571 0.67286 0.0
H770 H 0.3432 0.21108 0.76764 0.0
H771 H 0.39476 0.23952 0.74271 0.0
H772 H 0.32367 0.17144 0.51603 0.0
H773 H 0.29687 0.21276 0.64441 0.0
H774 H 0.32994 0.20589 0.51284 0.0
H775 H 0.29106 0.17824 0.6451 0.0
H776 H 0.29944 0.26652 0.78968 0.0
H777 H 0.25597 0.2463 0.69081 0.0
H778 H 0.40754 0.20518 0.61183 0.0
H779 H 0.36107 0.17535 0.67927 0.0
H780 H 0.28584 0.27168 0.53135 0.0
H781 H 0.31857 0.29775 0.64622 0.0
H782 H 0.25754 0.28829 0.56261 0.0
H783 H 0.28968 0.31396 0.6753 0.0
H784 H 0.35373 0.27912 0.46929 0.0
H785 H 0.35875 0.21871 0.48014 0.0
H786 H 0.35808 0.27655 0.37882 0.0
H787 H 0.3629 0.21716 0.38951 0.0
H788 H 0.40974 0.29487 0.62511 0.0
H789 H 0.36361 0.33467 0.63482 0.0
H790 H 0.27743 0.22238 0.41601 0.0
H791 H 0.29227 0.28027 0.38388 0.0
Li792 Li 0.15514 0.76983 0.0798 0.0
Li793 Li 0.18058 0.75209 0.11771 0.0
Li794 Li 0.17837 0.75333 0.02637 0.0
Li795 Li 0.15355 0.73526 0.0801 0.0
C796 C 0.18799 0.79214 0.0844 0.0
N797 N 0.19848 0.82875 0.10631 0.0
C798 C 0.18873 0.79816 0.13331 0.0
C799 C 0.1925 0.80475 0.0466 0.0
C800 C 0.1941 0.81673 0.14363 0.0
C801 C 0.19779 0.82319 0.05845 0.0
C802 C 0.14731 0.75076 0.18212 0.0
C803 C 0.13926 0.73133 0.25195 0.0
N804 N 0.13375 0.747 0.27699 0.0
C805 C 0.14173 0.76671 0.20877 0.0
C806 C 0.14623 0.73294 0.20409 0.0
C807 C 0.13486 0.7645 0.25659 0.0
C808 C 0.12067 0.78443 0.10847 0.0
N809 N 0.13792 0.79045 0.09318 0.0
C810 C 0.13072 0.82195 0.11923 0.0
C811 C 0.14281 0.80899 0.0964 0.0
C812 C 0.11334 0.8158 0.13833 0.0
C813 C 0.10811 0.79689 0.13108 0.0
H814 H 0.11717 0.76961 0.10627 0.0
H815 H 0.15637 0.81371 0.08348 0.0
C816 C 0.21701 0.7481 0.15722 0.0
N817 N 0.19871 0.75148 0.16935 0.0
C818 C 0.23084 0.74747 0.19368 0.0
C819 C 0.20693 0.75485 0.25404 0.0
C820 C 0.19356 0.75501 0.21663 0.0
C821 C 0.22578 0.75095 0.24269 0.0
H822 H 0.22088 0.74604 0.11917 0.0
H823 H 0.17919 0.75832 0.22558 0.0
C824 C 0.13716 0.76427 0.99862 0.0
N825 N 0.11169 0.78867 0.95565 0.0
C826 C 0.11788 0.76026 1.00013 0.0
C827 C 0.14353 0.78059 0.97502 0.0
C828 C 0.10521 0.7728 0.97823 0.0
C829 C 0.13041 0.79278 0.95359 0.0
C830 C 0.19444 0.7179 0.08499 0.0
C831 C 0.21097 0.71558 0.05765 0.0
C832 C 0.19174 0.70736 0.12788 0.0
C833 C 0.22464 0.70285 0.07402 0.0
C834 C 0.20576 0.6948 0.14304 0.0
N835 N 0.22178 0.69283 0.11604 0.0
C836 C 0.21093 0.76392 0.97534 0.0
C837 C 0.1927 0.74191 0.93026 0.0
C838 C 0.22489 0.7639 0.93906 0.0
N839 N 0.19514 0.75319 0.97031 0.0
C840 C 0.20652 0.74124 0.89322 0.0
C841 C 0.22289 0.75239 0.89734 0.0
H842 H 0.21296 0.7722 0.00829 0.0
H843 H 0.18024 0.73317 0.9275 0.0
C844 C 0.11955 0.72027 0.10985 0.0
N845 N 0.13661 0.71486 0.092 0.0
C846 C 0.10775 0.70719 0.13272 0.0
C847 C 0.13058 0.6828 0.1149 0.0
C848 C 0.14216 0.69648 0.09302 0.0
C849 C 0.11346 0.68829 0.13662 0.0
H850 H 0.1157 0.73503 0.1095 0.0
H851 H 0.15598 0.69262 0.07957 0.0
O852 O 0.18294 0.774 0.07341 0.0
O853 O 0.15393 0.75265 0.13503 0.0
O854 O 0.14975 0.75248 0.02097 0.0
O855 O 0.18098 0.7304 0.06971 0.0
H856 H 0.18501 0.78869 0.16293 0.0
H857 H 0.19178 0.80037 0.0085 0.0
H858 H 0.19472 0.8216 0.18131 0.0
H859 H 0.20129 0.83311 0.02959 0.0
H860 H 0.13825 0.7176 0.26921 0.0
H861 H 0.14296 0.78068 0.19307 0.0
H862 H 0.15069 0.72046 0.18449 0.0
H863 H 0.13049 0.77672 0.27757 0.0
H864 H 0.13516 0.8365 0.12313 0.0
H865 H 0.09495 0.79144 0.14546 0.0
H866 H 0.24535 0.7447 0.18361 0.0
H867 H 0.20256 0.75766 0.29152 0.0
H868 H 0.11276 0.74767 0.01836 0.0
H869 H 0.15843 0.78389 0.97379 0.0
H870 H 0.09024 0.76994 0.9793 0.0
H871 H 0.13511 0.80554 0.93544 0.0
H872 H 0.21326 0.72359 0.0243 0.0
H873 H 0.17904 0.70899 0.14942 0.0
H874 H 0.23754 0.70096 0.05334 0.0
H875 H 0.2039 0.68662 0.17631 0.0
H876 H 0.2374 0.77244 0.94429 0.0
H877 H 0.20439 0.73216 0.86164 0.0
H878 H 0.0946 0.71192 0.14876 0.0
H879 H 0.13546 0.66834 0.11743 0.0
Li880 Li 0.17673 0.25218 0.12169 0.0
Li881 Li 0.15142 0.27019 0.06962 0.0
Li882 Li 0.15277 0.23554 0.07109 0.0
Li883 Li 0.17773 0.25284 0.03179 0.0
C884 C 0.13612 0.2414 0.15381 0.0
N885 N 0.11174 0.2168 0.20029 0.0
C886 C 0.11676 0.24503 0.15401 0.0
C887 C 0.14312 0.22536 0.17748 0.0
C888 C 0.10465 0.23238 0.17767 0.0
C889 C 0.13055 0.21307 0.20071 0.0
C890 C 0.19251 0.28607 0.05645 0.0
C891 C 0.2028 0.30623 0.99019 0.0
N892 N 0.22002 0.30774 0.01185 0.0
C893 C 0.21027 0.2879 0.07822 0.0
C894 C 0.18868 0.29539 0.01226 0.0
C895 C 0.224 0.2989 0.05505 0.0
C896 C 0.21099 0.24404 0.16621 0.0
N897 N 0.19404 0.25209 0.17644 0.0
C898 C 0.20476 0.26032 0.25735 0.0
C899 C 0.19066 0.26017 0.221 0.0
C900 C 0.22246 0.25205 0.24776 0.0
C901 C 0.22538 0.24382 0.20133 0.0
H902 H 0.21349 0.23807 0.13019 0.0
H903 H 0.17713 0.26666 0.22817 0.0
C904 C 0.11693 0.28563 0.04443 0.0
N905 N 0.13464 0.29074 0.058 0.0
C906 C 0.10499 0.29863 0.02166 0.0
C907 C 0.12928 0.32233 0.03013 0.0
C908 C 0.14085 0.30878 0.05247 0.0
C909 C 0.11127 0.31718 0.01289 0.0
H910 H 0.1126 0.27105 0.0478 0.0
H911 H 0.15513 0.31239 0.06274 0.0
C912 C 0.18608 0.21411 0.05615 0.0
N913 N 0.19739 0.18005 0.01644 0.0
C914 C 0.18244 0.21004 0.00677 0.0
C915 C 0.19551 0.20091 0.08533 0.0
C916 C 0.18827 0.19273 0.98737 0.0
C917 C 0.20109 0.18375 0.06458 0.0
C918 C 0.1436 0.25285 0.96908 0.0
C919 C 0.1394 0.23598 0.94464 0.0
C920 C 0.14038 0.27008 0.94536 0.0
C921 C 0.13177 0.23664 0.89732 0.0
C922 C 0.13273 0.27014 0.89802 0.0
N923 N 0.1286 0.25357 0.87519 0.0
C924 C 0.11814 0.22072 0.0452 0.0
C925 C 0.14065 0.19644 0.05676 0.0
C926 C 0.10577 0.20815 0.02242 0.0
N927 N 0.13551 0.21491 0.06001 0.0
C928 C 0.12869 0.18335 0.03389 0.0
C929 C 0.11129 0.18935 0.0145 0.0
H930 H 0.11445 0.23549 0.04768 0.0
H931 H 0.15442 0.19202 0.06906 0.0
C932 C 0.21406 0.25263 0.99179 0.0
N933 N 0.1955 0.25312 0.97931 0.0
C934 C 0.22791 0.25324 0.95535 0.0
C935 C 0.20325 0.25389 0.89396 0.0
C936 C 0.18994 0.25371 0.93148 0.0
C937 C 0.22243 0.25377 0.90586 0.0
H938 H 0.21808 0.25188 0.03011 0.0
H939 H 0.17526 0.25395 0.92199 0.0
O940 O 0.14816 0.25324 0.12963 0.0
O941 O 0.17902 0.27506 0.07807 0.0
O942 O 0.18043 0.2309 0.07615 0.0
O943 O 0.15101 0.25252 0.01564 0.0
H944 H 0.11115 0.25738 0.13575 0.0
H945 H 0.15809 0.22235 0.17737 0.0
H946 H 0.08962 0.23494 0.17793 0.0
H947 H 0.13574 0.20053 0.21895 0.0
H948 H 0.20009 0.3134 0.95578 0.0
H949 H 0.21344 0.2808 0.11248 0.0
H950 H 0.17504 0.29403 0.99482 0.0
H951 H 0.23784 0.30038 0.07135 0.0
H952 H 0.20177 0.26672 0.29267 0.0
H953 H 0.23882 0.2376 0.19168 0.0
H954 H 0.09145 0.29378 0.00839 0.0
H955 H 0.13466 0.3365 0.02497 0.0
H956 H 0.17512 0.22005 0.98375 0.0
H957 H 0.19838 0.20384 0.12369 0.0
H958 H 0.1855 0.18937 0.94923 0.0
H959 H 0.20835 0.17336 0.08676 0.0
H960 H 0.14208 0.22248 0.96175 0.0
H961 H 0.1439 0.28329 0.963 0.0
H962 H 0.1284 0.22369 0.87814 0.0
H963 H 0.13015 0.28338 0.87935 0.0
H964 H 0.09233 0.21334 0.00924 0.0
H965 H 0.13355 0.16899 0.02881 0.0
H966 H 0.24266 0.25299 0.96559 0.0
H967 H 0.19861 0.25435 0.856 0.0
Li968 Li 0.34969 0.73322 0.56624 0.0
Li969 Li 0.32571 0.7516 0.61706 0.0
Li970 Li 0.32391 0.75097 0.5282 0.0
Li971 Li 0.34902 0.76921 0.56612 0.0
C972 C 0.30718 0.71969 0.55434 0.0
N973 N 0.27649 0.70242 0.51084 0.0
C974 C 0.28909 0.72248 0.57337 0.0
C975 C 0.30968 0.70805 0.51332 0.0
C976 C 0.27375 0.71363 0.55085 0.0
C977 C 0.29397 0.69947 0.4918 0.0
C978 C 0.35757 0.75733 0.66961 0.0
C979 C 0.35872 0.78195 0.73073 0.0
N980 N 0.36254 0.7688 0.7658 0.0
C981 C 0.36158 0.74405 0.70613 0.0
C982 C 0.35618 0.77643 0.68184 0.0
C983 C 0.36402 0.75014 0.7546 0.0
C984 C 0.38454 0.71786 0.54319 0.0
N985 N 0.36651 0.71278 0.55376 0.0
C986 C 0.37209 0.68156 0.52345 0.0
C987 C 0.36024 0.69491 0.54557 0.0
C988 C 0.39053 0.68669 0.50966 0.0
C989 C 0.39684 0.70499 0.52118 0.0
H990 H 0.38897 0.73231 0.54886 0.0
H991 H 0.34578 0.69127 0.55384 0.0
C992 C 0.29427 0.76366 0.6715 0.0
N993 N 0.30933 0.75181 0.67431 0.0
C994 C 0.28067 0.76402 0.70864 0.0
C995 C 0.29769 0.73934 0.75067 0.0
C996 C 0.31121 0.73966 0.71284 0.0
C997 C 0.28216 0.7517 0.74888 0.0
H998 H 0.29242 0.77247 0.6395 0.0
H999 H 0.32292 0.72991 0.7137 0.0
C1000 C 0.35532 0.75536 0.46421 0.0
N1001 N 0.36519 0.76414 0.3686 0.0
C1002 C 0.35117 0.77317 0.44494 0.0
C1003 C 0.36452 0.74202 0.43489 0.0
C1004 C 0.35628 0.77735 0.39653 0.0
C1005 C 0.36937 0.74672 0.38661 0.0
C1006 C 0.31626 0.79144 0.56847 0.0
C1007 C 0.31185 0.79947 0.52292 0.0
C1008 C 0.31532 0.80251 0.61102 0.0
C1009 C 0.30669 0.81848 0.52065 0.0
C1010 C 0.31006 0.82146 0.60721 0.0
N1011 N 0.30591 0.82899 0.56248 0.0
C1012 C 0.28922 0.75761 0.48346 0.0
C1013 C 0.31145 0.7427 0.43121 0.0
C1014 C 0.27578 0.75754 0.44611 0.0
N1015 N 0.30669 0.75045 0.47519 0.0
C1016 C 0.29854 0.74253 0.39263 0.0
C1017 C 0.28045 0.7501 0.39975 0.0
H1018 H 0.28574 0.7633 0.51926 0.0
H1019 H 0.32518 0.73646 0.42611 0.0
C1020 C 0.38309 0.78373 0.53451 0.0
N1021 N 0.36619 0.78973 0.55223 0.0
C1022 C 0.39552 0.7964 0.51217 0.0
C1023 C 0.37355 0.82155 0.52929 0.0
C1024 C 0.36149 0.80836 0.55123 0.0
C1025 C 0.39062 0.81556 0.50811 0.0
H1026 H 0.38642 0.76883 0.53507 0.0
H1027 H 0.34813 0.81301 0.56547 0.0
O1028 O 0.3223 0.72866 0.57506 0.0
O1029 O 0.35467 0.75161 0.62223 0.0
O1030 O 0.3505 0.75097 0.51157 0.0
O1031 O 0.32117 0.7728 0.57155 0.0
H1032 H 0.28689 0.73149 0.60496 0.0
H1033 H 0.32353 0.70602 0.49755 0.0
H1034 H 0.25966 0.71571 0.56507 0.0
H1035 H 0.29567 0.69057 0.45978 0.0
H1036 H 0.35763 0.79669 0.7408 0.0
H1037 H 0.36263 0.7292 0.69715 0.0
H1038 H 0.3531 0.78687 0.65391 0.0
H1039 H 0.36705 0.74002 0.78334 0.0
H1040 H 0.3667 0.66755 0.51592 0.0
H1041 H 0.41079 0.70972 0.51069 0.0
H1042 H 0.26874 0.77346 0.70508 0.0
H1043 H 0.29936 0.72956 0.78095 0.0
H1044 H 0.34417 0.78368 0.46717 0.0
H1045 H 0.36773 0.72812 0.44911 0.0
H1046 H 0.35318 0.79109 0.38118 0.0
H1047 H 0.37643 0.73652 0.36345 0.0
H1048 H 0.31236 0.79113 0.48964 0.0
H1049 H 0.31871 0.79656 0.64659 0.0
H1050 H 0.30328 0.82487 0.48563 0.0
H1051 H 0.30931 0.83019 0.6398 0.0
H1052 H 0.26187 0.7631 0.45367 0.0
H1053 H 0.3028 0.73672 0.35751 0.0
H1054 H 0.4084 0.79101 0.49602 0.0
H1055 H 0.36932 0.83623 0.52793 0.0
Li1056 Li 0.52017 0.09944 0.81686 0.0
Li1057 Li 0.48509 0.10147 0.81913 0.0
Li1058 Li 0.5038 0.07744 0.87281 0.0
Li1059 Li 0.50183 0.07387 0.78515 0.0
C1060 C 0.51466 0.11933 0.89643 0.0
N1061 N 0.53812 0.14624 0.93703 0.0
C1062 C 0.50994 0.13844 0.89342 0.0
C1063 C 0.53123 0.11386 0.92024 0.0
C1064 C 0.52201 0.15185 0.91415 0.0
C1065 C 0.54293 0.1277 0.94048 0.0
C1066 C 0.5015 0.09921 0.71337 0.0
C1067 C 0.48376 0.09702 0.63795 0.0
N1068 N 0.50017 0.09585 0.61224 0.0
C1069 C 0.51819 0.09807 0.68625 0.0
C1070 C 0.48413 0.09875 0.68912 0.0
C1071 C 0.51722 0.09634 0.63512 0.0
C1072 C 0.55858 0.10927 0.79284 0.0
N1073 N 0.54071 0.11568 0.79988 0.0
C1074 C 0.54858 0.1454 0.76353 0.0
C1075 C 0.53561 0.1334 0.78613 0.0
C1076 C 0.56702 0.13909 0.75428 0.0
C1077 C 0.57206 0.12084 0.77011 0.0
H1078 H 0.56212 0.09492 0.80272 0.0
H1079 H 0.52114 0.13788 0.79043 0.0
C1080 C 0.44688 0.11734 0.81681 0.0
N1081 N 0.4655 0.11943 0.80612 0.0
C1082 C 0.43351 0.12927 0.79492 0.0
C1083 C 0.45888 0.14607 0.75494 0.0
C1084 C 0.47166 0.13385 0.77731 0.0
C1085 C 0.43945 0.14348 0.7621 0.0
H1086 H 0.44229 0.10578 0.83991 0.0
H1087 H 0.48655 0.13528 0.76961 0.0
C1088 C 0.53179 0.05446 0.83375 0.0
N1089 N 0.54537 0.01845 0.85031 0.0
C1090 C 0.51956 0.03901 0.83271 0.0
C1091 C 0.55096 0.0516 0.84298 0.0
C1092 C 0.52668 0.02092 0.84121 0.0
C1093 C 0.55755 0.03329 0.85134 0.0
C1094 C 0.46557 0.06235 0.82021 0.0
C1095 C 0.46476 0.04394 0.83876 0.0
C1096 C 0.45088 0.06895 0.79052 0.0
C1097 C 0.44946 0.03241 0.82675 0.0
C1098 C 0.43581 0.057 0.77937 0.0
N1099 N 0.43541 0.03912 0.79755 0.0
C1100 C 0.4876 0.05597 0.95107 0.0
C1101 C 0.52094 0.05678 0.95188 0.0
C1102 C 0.48746 0.04213 0.98791 0.0
N1103 N 0.50419 0.06261 0.93281 0.0
C1104 C 0.52147 0.04293 0.98865 0.0
C1105 C 0.50458 0.03503 0.00649 0.0
H1106 H 0.47443 0.06087 0.93566 0.0
H1107 H 0.53398 0.06225 0.93705 0.0
C1108 C 0.51896 0.0512 0.71379 0.0
N1109 N 0.50181 0.05659 0.73119 0.0
C1110 C 0.52028 0.03908 0.67358 0.0
C1111 C 0.48626 0.03868 0.66887 0.0
C1112 C 0.48563 0.05086 0.70898 0.0
C1113 C 0.50375 0.03257 0.65079 0.0
H1114 H 0.53167 0.05657 0.73073 0.0
H1115 H 0.47223 0.05594 0.7215 0.0
O1116 O 0.50325 0.10601 0.87556 0.0
O1117 O 0.50214 0.10037 0.76353 0.0
O1118 O 0.52511 0.07236 0.82616 0.0
O1119 O 0.4802 0.07408 0.83255 0.0
H1120 H 0.49716 0.14286 0.87494 0.0
H1121 H 0.53509 0.0991 0.92261 0.0
H1122 H 0.5186 0.1667 0.91196 0.0
H1123 H 0.55586 0.1237 0.95884 0.0
H1124 H 0.47043 0.09655 0.61869 0.0
H1125 H 0.53174 0.0983 0.70455 0.0
H1126 H 0.47108 0.09953 0.70964 0.0
H1127 H 0.53002 0.09534 0.61365 0.0
H1128 H 0.54387 0.15914 0.75117 0.0
H1129 H 0.58613 0.1154 0.76401 0.0
H1130 H 0.41867 0.12676 0.8016 0.0
H1131 H 0.46418 0.15711 0.73109 0.0
H1132 H 0.50479 0.04097 0.82506 0.0
H1133 H 0.56062 0.06342 0.84409 0.0
H1134 H 0.51734 0.00884 0.8405 0.0
H1135 H 0.57234 0.03088 0.85871 0.0
H1136 H 0.47574 0.03855 0.86245 0.0
H1137 H 0.45139 0.08294 0.77488 0.0
H1138 H 0.44871 0.01814 0.8408 0.0
H1139 H 0.42448 0.0619 0.75601 0.0
H1140 H 0.47406 0.03686 1.00115 0.0
H1141 H 0.53503 0.03793 1.00142 0.0
H1142 H 0.53407 0.03507 0.66008 0.0
H1143 H 0.47316 0.03399 0.65249 0.0
Li1144 Li 0.00593 0.93278 0.2859 0.0
Li1145 Li 0.00204 0.92824 0.37265 0.0
Li1146 Li 0.02058 0.90506 0.31935 0.0
Li1147 Li 0.98579 0.90622 0.31077 0.0
C1148 C 0.03842 0.94642 0.32723 0.0
N1149 N 0.0631 0.97585 0.30898 0.0
C1150 C 0.03893 0.96207 0.35859 0.0
C1151 C 0.05046 0.94579 0.28652 0.0
C1152 C 0.05151 0.97678 0.34877 0.0
C1153 C 0.06282 0.9608 0.27792 0.0
C1154 C 0.97309 0.9487 0.30271 0.0
C1155 C 0.95001 0.96157 0.24684 0.0
N1156 N 0.95636 0.97927 0.257 0.0
C1157 C 0.97927 0.96704 0.31292 0.0
C1158 C 0.95824 0.94595 0.2697 0.0
C1159 C 0.97067 0.9823 0.28934 0.0
C1160 C 0.99867 0.94546 0.1919 0.0
N1161 N 0.00714 0.95091 0.23445 0.0
C1162 C 0.01446 0.98108 0.20037 0.0
C1163 C 0.0146 0.9685 0.23968 0.0
C1164 C 0.00597 0.97566 0.15613 0.0
C1165 C 0.99782 0.95774 0.15201 0.0
H1166 H 0.99232 0.93162 0.18923 0.0
H1167 H 0.02021 0.97304 0.27452 0.0
C1168 C 0.01371 0.94346 0.46732 0.0
N1169 N 0.99977 0.94266 0.43303 0.0
C1170 C 0.01328 0.95725 0.50447 0.0
C1171 C 0.98392 0.96868 0.4712 0.0
C1172 C 0.9847 0.95446 0.4357 0.0
C1173 C 0.99852 0.97063 0.50597 0.0
H1174 H 0.02565 0.93402 0.46444 0.0
H1175 H 0.97361 0.95346 0.40862 0.0
C1176 C 0.01304 0.89687 0.22345 0.0
N1177 N 0.03004 0.87518 0.15153 0.0
C1178 C 0.00695 0.87838 0.21496 0.0
C1179 C 0.0276 0.9044 0.19492 0.0
C1180 C 0.01576 0.86763 0.17851 0.0
C1181 C 0.03607 0.89319 0.15888 0.0
C1182 C 0.99003 0.89063 0.40558 0.0
C1183 C 0.99346 0.87193 0.41926 0.0
C1184 C 0.97503 0.90049 0.42679 0.0
C1185 C 0.98178 0.86337 0.45413 0.0
C1186 C 0.9637 0.89144 0.46162 0.0
N1187 N 0.96728 0.87322 0.47443 0.0
C1188 C 0.05838 0.89383 0.29693 0.0
C1189 C 0.03603 0.8691 0.30241 0.0
C1190 C 0.07122 0.88189 0.27331 0.0
N1191 N 0.04087 0.88751 0.30889 0.0
C1192 C 0.04842 0.85666 0.27895 0.0
C1193 C 0.06601 0.86322 0.26215 0.0
H1194 H 0.06202 0.90843 0.30287 0.0
H1195 H 0.02196 0.86445 0.31184 0.0
C1196 C 0.96095 0.89407 0.23981 0.0
N1197 N 0.96481 0.8914 0.28831 0.0
C1198 C 0.94762 0.88289 0.21582 0.0
C1199 C 0.94196 0.86654 0.29235 0.0
C1200 C 0.95551 0.87806 0.31494 0.0
C1201 C 0.93805 0.86869 0.24185 0.0
H1202 H 0.96876 0.90453 0.21921 0.0
H1203 H 0.95886 0.87596 0.35326 0.0
O1204 O 0.02636 0.93176 0.33676 0.0
O1205 O 0.98163 0.93354 0.32463 0.0
O1206 O 0.00489 0.90748 0.25977 0.0
O1207 O 1.00122 0.8991 0.37114 0.0
H1208 H 0.02964 0.96297 0.38994 0.0
H1209 H 0.05007 0.93403 0.26132 0.0
H1210 H 0.05202 0.98897 0.37271 0.0
H1211 H 0.07214 0.96051 0.24642 0.0
H1212 H 0.93857 0.95962 0.22103 0.0
H1213 H 0.99089 0.96944 0.33797 0.0
H1214 H 0.9531 0.93192 0.26179 0.0
H1215 H 0.97546 0.99654 0.29651 0.0
H1216 H 0.02052 0.99502 0.20476 0.0
H1217 H 0.99105 0.95327 0.11824 0.0
H1218 H 0.02467 0.9576 0.5309 0.0
H1219 H 0.97229 0.97852 0.46955 0.0
H1220 H 0.99578 0.87226 0.23689 0.0
H1221 H 0.03233 0.91875 0.20054 0.0
H1222 H 0.01132 0.85324 0.17188 0.0
H1223 H 0.04744 0.89881 0.13675 0.0
H1224 H 0.00498 0.8641 0.40295 0.0
H1225 H 0.97203 0.91488 0.41608 0.0
H1226 H 0.98423 0.84888 0.46502 0.0
H1227 H 0.95202 0.89887 0.4783 0.0
H1228 H 0.08459 0.88762 0.26124 0.0
H1229 H 0.04393 0.84228 0.27218 0.0
H1230 H 0.94542 0.8849 0.17676 0.0
H1231 H 0.93481 0.85592 0.31409 0.0
Li1232 Li 0.50321 0.92911 0.28008 0.0
Li1233 Li 0.50172 0.93287 0.36939 0.0
Li1234 Li 0.51939 0.90514 0.33385 0.0
Li1235 Li 0.485 0.90609 0.33472 0.0
C1236 C 0.54029 0.94122 0.31045 0.0
N1237 N 0.57277 0.95863 0.27717 0.0
C1238 C 0.54393 0.96008 0.32235 0.0
C1239 C 0.55342 0.93111 0.28259 0.0
C1240 C 0.56035 0.96867 0.30487 0.0
C1241 C 0.56969 0.94018 0.26587 0.0
C1242 C 0.46902 0.94823 0.33508 0.0
C1243 C 0.44944 0.96409 0.39479 0.0
N1244 N 0.44665 0.97845 0.3624 0.0
C1245 C 0.4657 0.96302 0.30214 0.0
C1246 C 0.46058 0.94865 0.38153 0.0
C1247 C 0.45445 0.97821 0.31671 0.0
C1248 C 0.50047 0.9411 0.17606 0.0
N1249 N 0.50427 0.94586 0.22357 0.0
C1250 C 0.5089 0.97819 0.20026 0.0
C1251 C 0.50832 0.96402 0.23592 0.0
C1252 C 0.50519 0.97382 0.1508 0.0
C1253 C 0.50091 0.95492 0.13891 0.0
H1254 H 0.49695 0.92666 0.16697 0.0
H1255 H 0.51046 0.96767 0.27408 0.0
C1256 C 0.50595 0.94594 0.46585 0.0
N1257 N 0.50278 0.95142 0.41873 0.0
C1258 C 0.5068 0.95933 0.50326 0.0
C1259 C 0.50179 0.9838 0.44253 0.0
C1260 C 0.50096 0.96991 0.40633 0.0
C1261 C 0.50464 0.97855 0.4918 0.0
H1262 H 0.50784 0.93116 0.47437 0.0
H1263 H 0.49889 0.97384 0.36828 0.0
C1264 C 0.51122 0.89023 0.24116 0.0
N1265 N 0.53003 0.86982 0.16974 0.0
C1266 C 0.5074 0.87102 0.23474 0.0
C1267 C 0.52439 0.8991 0.21071 0.0
C1268 C 0.51713 0.86093 0.1986 0.0
C1269 C 0.53381 0.88854 0.17497 0.0
C1270 C 0.49458 0.89469 0.42597 0.0
C1271 C 0.50009 0.87577 0.42856 0.0
C1272 C 0.48073 0.90137 0.45821 0.0
C1273 C 0.49146 0.86379 0.46265 0.0
C1274 C 0.47241 0.88895 0.49173 0.0
N1275 N 0.47788 0.87057 0.4932 0.0
C1276 C 0.55451 0.89699 0.37589 0.0
C1277 C 0.53975 0.87028 0.34048 0.0
C1278 C 0.56804 0.88555 0.39841 0.0
N1279 N 0.54052 0.88922 0.34835 0.0
C1280 C 0.5528 0.85826 0.36301 0.0
C1281 C 0.56693 0.86579 0.39371 0.0
H1282 H 0.55458 0.91204 0.38261 0.0
H1283 H 0.52811 0.86432 0.32012 0.0
C1284 C 0.44754 0.89692 0.36566 0.0
N1285 N 0.46385 0.88979 0.34698 0.0
C1286 C 0.43442 0.88497 0.3883 0.0
C1287 C 0.45457 0.85847 0.36932 0.0
C1288 C 0.46724 0.8709 0.34696 0.0
C1289 C 0.4382 0.86553 0.39192 0.0
H1290 H 0.44526 0.91198 0.36593 0.0
H1291 H 0.48052 0.86563 0.33315 0.0
O1292 O 0.52431 0.93256 0.32755 0.0
O1293 O 0.48019 0.93333 0.32151 0.0
O1294 O 0.50183 0.90033 0.27642 0.0
O1295 O 0.50254 0.90653 0.39182 0.0
H1296 H 0.53413 0.96804 0.34465 0.0
H1297 H 0.55122 0.91633 0.27451 0.0
H1298 H 0.56324 0.9833 0.31344 0.0
H1299 H 0.57992 0.93252 0.24413 0.0
H1300 H 0.44302 0.96466 0.43086 0.0
H1301 H 0.47155 0.9627 0.26547 0.0
H1302 H 0.46278 0.93731 0.40733 0.0
H1303 H 0.45186 0.98976 0.2916 0.0
H1304 H 0.51172 0.99255 0.21174 0.0
H1305 H 0.498 0.95081 0.10132 0.0
H1306 H 0.50887 0.95465 0.54079 0.0
H1307 H 0.5004 0.99848 0.43201 0.0
H1308 H 0.4971 0.86394 0.25752 0.0
H1309 H 0.52727 0.914 0.21447 0.0
H1310 H 0.5144 0.84603 0.19347 0.0
H1311 H 0.54409 0.89524 0.1513 0.0
H1312 H 0.51068 0.87026 0.40402 0.0
H1313 H 0.4764 0.91596 0.45741 0.0
H1314 H 0.49548 0.84909 0.46461 0.0
H1315 H 0.46158 0.89394 0.51657 0.0
H1316 H 0.57884 0.89214 0.42069 0.0
H1317 H 0.55104 0.84317 0.35874 0.0
H1318 H 0.42206 0.89106 0.40541 0.0
H1319 H 0.45795 0.84357 0.37065 0.0
Li1320 Li 0.01989 0.09824 0.83349 0.0
Li1321 Li 0.98526 0.09741 0.83994 0.0
Li1322 Li 0.00492 0.07035 0.86482 0.0
Li1323 Li 1.00179 0.07601 0.77828 0.0
C1324 C 0.01131 0.10614 0.92917 0.0
N1325 N 0.02719 0.12801 0.00245 0.0
C1326 C 0.00473 0.12446 0.93765 0.0
C1327 C 0.02573 0.09884 0.95853 0.0
C1328 C 0.01299 0.13531 0.97476 0.0
C1329 C 0.03366 0.11015 0.9952 0.0
C1330 C 0.98971 0.11149 0.74367 0.0
C1331 C 0.96104 0.1097 0.69624 0.0
N1332 N 0.96694 0.12459 0.66865 0.0
C1333 C 0.99549 0.12678 0.71491 0.0
C1334 C 0.97233 0.10287 0.73437 0.0
C1335 C 0.98378 0.1332 0.67713 0.0
C1336 C 0.05761 0.10942 0.85829 0.0
N1337 N 0.04013 0.11568 0.84587 0.0
C1338 C 0.04755 0.14664 0.87532 0.0
C1339 C 0.03521 0.13407 0.85212 0.0
C1340 C 0.06516 0.1402 0.89215 0.0
C1341 C 0.07038 0.12147 0.8818 0.0
H1342 H 0.06137 0.09486 0.85227 0.0
H1343 H 0.02113 0.13864 0.8425 0.0
C1344 C 0.95479 0.10636 0.90072 0.0
N1345 N 0.96467 0.11278 0.86123 0.0
C1346 C 0.94197 0.1181 0.92492 0.0
C1347 C 0.94995 0.14306 0.86801 0.0
C1348 C 0.96237 0.1307 0.84426 0.0
C1349 C 0.93975 0.13684 0.9093 0.0
H1350 H 0.95769 0.09247 0.91526 0.0
H1351 H 0.97092 0.13575 0.81407 0.0
C1352 C 0.03792 0.05726 0.82509 0.0
N1353 N 0.06276 0.02813 0.84485 0.0
C1354 C 0.03916 0.04179 0.79326 0.0
C1355 C 0.04932 0.05785 0.86703 0.0
C1356 C 0.05181 0.02723 0.80386 0.0
C1357 C 0.06177 0.04301 0.87638 0.0
C1358 C 0.97336 0.05307 0.83787 0.0
C1359 C 0.98224 0.03627 0.82403 0.0
C1360 C 0.95657 0.05232 0.8647 0.0
C1361 C 0.97434 0.01901 0.83793 0.0
C1362 C 0.94911 0.03478 0.87794 0.0
N1363 N 0.95809 0.01862 0.86445 0.0
C1364 C 0.99681 0.05689 0.95759 0.0
C1365 C 0.01335 0.03436 0.90963 0.0
C1366 C 0.99616 0.04447 0.99726 0.0
N1367 N 0.00557 0.05178 0.91516 0.0
C1368 C 0.01339 0.02166 0.94865 0.0
C1369 C 0.00478 0.02678 0.99297 0.0
H1370 H 0.99026 0.07063 0.96051 0.0
H1371 H 0.01929 0.03011 0.87491 0.0
C1372 C 0.01467 0.06065 0.68545 0.0
N1373 N 0.99975 0.06249 0.71651 0.0
C1374 C 0.01434 0.04711 0.64774 0.0
C1375 C 0.98301 0.03824 0.6733 0.0
C1376 C 0.98378 0.05222 0.70951 0.0
C1377 C 0.99861 0.03505 0.64227 0.0
H1378 H 0.02727 0.06894 0.69164 0.0
H1379 H 0.97194 0.05406 0.73403 0.0
O1380 O 0.00373 0.09546 0.89216 0.0
O1381 O 1.00104 0.10516 0.78088 0.0
O1382 O 0.02574 0.07175 0.81493 0.0
O1383 O 0.98106 0.07011 0.82501 0.0
H1384 H 0.99358 0.13036 0.91534 0.0
H1385 H 0.03077 0.0846 0.95308 0.0
H1386 H 0.00816 0.14957 0.98139 0.0
H1387 H 0.04494 0.10473 0.01793 0.0
H1388 H 0.94756 0.10317 0.68862 0.0
H1389 H 0.00888 0.13362 0.72178 0.0
H1390 H 0.96754 0.09111 0.75637 0.0
H1391 H 0.98807 0.14503 0.65458 0.0
H1392 H 0.04286 0.16091 0.88268 0.0
H1393 H 0.08397 0.11603 0.89307 0.0
H1394 H 0.93466 0.11292 0.9572 0.0
H1395 H 0.94867 0.15747 0.85506 0.0
H1396 H 0.03035 0.04088 0.76101 0.0
H1397 H 0.04835 0.06946 0.89259 0.0
H1398 H 0.05287 0.01517 0.77959 0.0
H1399 H 0.07059 0.04327 0.90884 0.0
H1400 H 0.99528 0.03657 0.80336 0.0
H1401 H 0.94926 0.06511 0.87486 0.0
H1402 H 0.98118 0.00592 0.82781 0.0
H1403 H 0.93615 0.03401 0.89882 0.0
H1404 H 0.9893 0.04872 0.0311 0.0
H1405 H 0.01983 0.0079 0.94411 0.0
H1406 H 0.02655 0.04583 0.62414 0.0
H1407 H 0.97055 0.02947 0.67174 0.0
C1408 C 0.0965 0.65738 0.1465 0.0
C1409 C 0.10211 0.67481 0.16611 0.0
H1410 H 0.08043 0.63218 0.15676 0.0
C1411 C 0.09665 0.67951 0.21425 0.0
H1412 H 0.10046 0.65348 0.10938 0.0
C1413 C 0.08559 0.66713 0.24209 0.0
C1414 C 0.07942 0.64984 0.22221 0.0
H1415 H 0.10107 0.69276 0.23052 0.0
H1416 H 0.08192 0.67117 0.27928 0.0
C1417 C 0.08513 0.64512 0.174 0.0
C1418 C 0.58535 0.8583 0.47095 0.0
C1419 C 0.57949 0.85312 0.42321 0.0
H1420 H 0.60044 0.85039 0.53626 0.0
C1421 C 0.58507 0.83538 0.40496 0.0
H1422 H 0.58108 0.87162 0.48696 0.0
C1423 C 0.59578 0.82306 0.43389 0.0
C1424 C 0.60143 0.82824 0.48157 0.0
H1425 H 0.58123 0.83096 0.36819 0.0
H1426 H 0.59983 0.80951 0.41872 0.0
C1427 C 0.59633 0.84608 0.49956 0.0
C1428 C 0.42498 0.33561 0.72407 0.0
C1429 C 0.42378 0.35523 0.7168 0.0
H1430 H 0.4148 0.30823 0.70439 0.0
C1431 C 0.41085 0.3621 0.6818 0.0
H1432 H 0.43493 0.32973 0.75009 0.0
C1433 C 0.39954 0.34967 0.65464 0.0
C1434 C 0.40081 0.33004 0.66179 0.0
H1435 H 0.40938 0.37711 0.67545 0.0
H1436 H 0.38992 0.35548 0.62768 0.0
C1437 C 0.41363 0.32321 0.69708 0.0
C1438 C 0.8983 0.15807 0.97847 0.0
C1439 C 0.90568 0.17556 0.99408 0.0
H1440 H 0.90326 0.13216 0.93947 0.0
C1441 C 0.92451 0.1799 0.98197 0.0
H1442 H 0.88382 0.15425 0.98611 0.0
C1443 C 0.93541 0.16745 0.95394 0.0
C1444 C 0.92793 0.15014 0.9381 0.0
H1445 H 0.93095 0.19294 0.99417 0.0
H1446 H 0.94983 0.17125 0.94523 0.0
C1447 C 0.90936 0.14545 0.95122 0.0
C1448 C 0.06868 0.34141 0.95563 0.0
C1449 C 0.0771 0.35373 0.92157 0.0
H1450 H 0.0727 0.32088 0.01226 0.0
C1451 C 0.09686 0.35463 0.91924 0.0
H1452 H 0.05348 0.34072 0.95912 0.0
C1453 C 0.10796 0.34305 0.94941 0.0
C1454 C 0.09954 0.33049 0.98313 0.0
H1455 H 0.10374 0.36398 0.89331 0.0
H1456 H 0.12313 0.34362 0.94526 0.0
C1457 C 0.07974 0.33003 0.98617 0.0
C1458 C 0.92465 0.83628 0.22688 0.0
C1459 C 0.92492 0.85565 0.21563 0.0
H1460 H 0.91334 0.80903 0.21033 0.0
C1461 C 0.91321 0.86226 0.17749 0.0
H1462 H 0.93359 0.83061 0.25557 0.0
C1463 C 0.90182 0.84978 0.15076 0.0
C1464 C 0.90184 0.83036 0.16147 0.0
H1465 H 0.91286 0.87712 0.16815 0.0
H1466 H 0.89325 0.85532 0.12114 0.0
C1467 C 0.91325 0.82383 0.20027 0.0
C1468 C 0.42226 0.67283 0.48921 0.0
C1469 C 0.40273 0.67362 0.48067 0.0
H1470 H 0.44886 0.66121 0.46791 0.0
C1471 C 0.39512 0.66258 0.44241 0.0
H1472 H 0.42858 0.68088 0.5188 0.0
C1473 C 0.4068 0.65131 0.41297 0.0
C1474 C 0.42638 0.65085 0.42094 0.0
H1475 H 0.38019 0.66305 0.43424 0.0
H1476 H 0.40054 0.6433 0.38324 0.0
C1477 C 0.43391 0.6616 0.45981 0.0
C1478 C 0.59214 0.18238 0.7036 0.0
C1479 C 0.60365 0.17458 0.66669 0.0
H1480 H 0.57208 0.17737 0.7609 0.0
C1481 C 0.60371 0.15487 0.66038 0.0
H1482 H 0.5921 0.19745 0.71034 0.0
C1483 C 0.59218 0.14331 0.68948 0.0
C1484 C 0.58039 0.15116 0.72578 0.0
H1485 H 0.61237 0.14842 0.63219 0.0
H1486 H 0.59212 0.12825 0.68254 0.0
C1487 C 0.5807 0.17084 0.73276 0.0
C1488 C 0.90517 0.35157 0.9018 0.0
C1489 C 0.92396 0.35428 0.91645 0.0
H1490 H 0.87883 0.33794 0.91643 0.0
C1491 C 0.93018 0.3459 0.96043 0.0
H1492 H 0.90001 0.35779 0.86799 0.0
C1493 C 0.91801 0.3348 0.9887 0.0
C1494 C 0.89931 0.33161 0.97354 0.0
H1495 H 0.94448 0.34808 0.97327 0.0
H1496 H 0.92329 0.32873 0.02255 0.0
C1497 C 0.89302 0.34028 0.92984 0.0
C1498 C 0.42915 0.15919 0.68358 0.0
C1499 C 0.42565 0.15492 0.73337 0.0
H1500 H 0.41945 0.17283 0.61797 0.0
C1501 C 0.40893 0.16157 0.75498 0.0
H1502 H 0.44169 0.15398 0.66536 0.0
C1503 C 0.39614 0.17236 0.72764 0.0
C1504 C 0.3997 0.17671 0.67791 0.0
H1505 H 0.40588 0.15873 0.79331 0.0
H1506 H 0.3836 0.17762 0.7458 0.0
C1507 C 0.41637 0.16998 0.65627 0.0
C1508 C 0.59235 0.64239 0.4515 0.0
C1509 C 0.58067 0.65011 0.41487 0.0
H1510 H 0.61235 0.6477 0.50896 0.0
C1511 C 0.58117 0.66969 0.40676 0.0
H1512 H 0.59209 0.62738 0.45907 0.0
C1513 C 0.59283 0.68132 0.43505 0.0
C1514 C 0.60418 0.67373 0.47269 0.0
H1515 H 0.57251 0.67604 0.37841 0.0
H1516 H 0.59301 0.6963 0.42711 0.0
C1517 C 0.60393 0.65406 0.48017 0.0
C1518 C 0.08154 0.82821 0.16389 0.0
C1519 C 0.10128 0.82857 0.16852 0.0
H1520 H 0.05505 0.83896 0.18899 0.0
C1521 C 0.10936 0.84048 0.20418 0.0
H1522 H 0.07485 0.81936 0.13647 0.0
C1523 C 0.09799 0.85159 0.23477 0.0
C1524 C 0.07823 0.85111 0.23045 0.0
H1525 H 0.1245 0.84086 0.20935 0.0
H1526 H 0.10469 0.86033 0.26239 0.0
C1527 C 0.07018 0.83936 0.19432 0.0
C1528 C 0.92381 0.67124 0.23239 0.0
C1529 C 0.92587 0.65204 0.22053 0.0
H1530 H 0.91102 0.69767 0.21449 0.0
C1531 C 0.91626 0.64494 0.17914 0.0
H1532 H 0.93078 0.67712 0.26436 0.0
C1533 C 0.90501 0.65679 0.15014 0.0
C1534 C 0.90308 0.67604 0.16179 0.0
H1535 H 0.91777 0.63029 0.16847 0.0
H1536 H 0.89808 0.65092 0.11811 0.0
C1537 C 0.91253 0.68305 0.20354 0.0
C1538 C 0.07963 0.17183 0.91108 0.0
C1539 C 0.07747 0.15262 0.92266 0.0
H1540 H 0.09219 0.19827 0.93017 0.0
C1541 C 0.0866 0.1455 0.96473 0.0
H1542 H 0.073 0.17773 0.87866 0.0
C1543 C 0.09752 0.15733 0.99464 0.0
C1544 C 0.09956 0.17659 0.98327 0.0
H1545 H 0.08497 0.13083 0.97522 0.0
H1546 H 0.1041 0.15145 0.02715 0.0
C1547 C 0.09057 0.18363 0.94086 0.0
C1548 C 0.58947 0.33708 0.65359 0.0
C1549 C 0.6051 0.32866 0.6769 0.0
H1550 H 0.56475 0.3543 0.66148 0.0
C1551 C 0.60765 0.33196 0.72773 0.0
H1552 H 0.58708 0.3353 0.61456 0.0
C1553 C 0.59512 0.34337 0.75412 0.0
C1554 C 0.57944 0.35136 0.73079 0.0
H1555 H 0.61909 0.32543 0.74775 0.0
H1556 H 0.59742 0.34558 0.7931 0.0
C1557 C 0.5767 0.34811 0.68035 0.0
C1558 C 0.42256 0.82751 0.48187 0.0
C1559 C 0.40279 0.8289 0.47978 0.0
H1560 H 0.44912 0.83801 0.45639 0.0
C1561 C 0.39475 0.84264 0.44876 0.0
H1562 H 0.42928 0.81734 0.50588 0.0
C1563 C 0.40617 0.85452 0.42028 0.0
C1564 C 0.42591 0.8529 0.42188 0.0
H1565 H 0.37959 0.84393 0.44552 0.0
H1566 H 0.39951 0.86474 0.39627 0.0
C1567 C 0.43395 0.83934 0.45332 0.0
C1568 C 0.98801 0.50605 0.09906 0.0
C1569 C 0.00512 0.51285 0.11793 0.0
H1570 H 0.9746 0.48907 0.04409 0.0
C1571 C 0.02219 0.50741 0.09605 0.0
H1572 H 0.97471 0.51022 0.11537 0.0
C1573 C 0.02213 0.49514 0.05588 0.0
C1574 C 0.00499 0.48857 0.03662 0.0
H1575 H 0.03551 0.51252 0.11028 0.0
H1576 H 0.03541 0.49101 0.0394 0.0
C1577 C 0.98794 0.49412 0.05835 0.0
C1578 C 0.76609 0.73905 0.32367 0.0
C1579 C 0.76651 0.75338 0.28807 0.0
H1580 H 0.75284 0.72829 0.38838 0.0
C1581 C 0.75401 0.76863 0.29193 0.0
H1582 H 0.77555 0.72708 0.32112 0.0
C1583 C 0.74129 0.76958 0.33098 0.0
C1584 C 0.74064 0.75513 0.36646 0.0
H1585 H 0.75431 0.77997 0.26518 0.0
H1586 H 0.73208 0.78173 0.33353 0.0
C1587 C 0.75319 0.73984 0.36232 0.0
C1588 C 0.5173 0.5111 0.56316 0.0
C1589 C 0.50002 0.51628 0.542 0.0
H1590 H 0.53124 0.49476 0.61854 0.0
C1591 C 0.48318 0.50885 0.56098 0.0
H1592 H 0.53044 0.51678 0.54918 0.0
C1593 C 0.48366 0.49613 0.60014 0.0
C1594 C 0.50095 0.49098 0.62131 0.0
H1595 H 0.46972 0.51264 0.54497 0.0
H1596 H 0.47054 0.4904 0.61413 0.0
C1597 C 0.51776 0.49865 0.60282 0.0
C1598 C 0.75304 0.25986 0.85909 0.0
C1599 C 0.76968 0.24919 0.85595 0.0
H1600 H 0.7275 0.26832 0.824 0.0
C1601 C 0.77317 0.23852 0.81333 0.0
H1602 H 0.74983 0.26806 0.89166 0.0
C1603 C 0.76017 0.23841 0.77478 0.0
C1604 C 0.74347 0.24898 0.77822 0.0
H1605 H 0.78598 0.23033 0.80963 0.0
H1606 H 0.76304 0.22984 0.74265 0.0
C1607 C 0.74012 0.25981 0.82059 0.0
C1608 C 0.25012 0.26844 0.86441 0.0
C1609 C 0.23655 0.25408 0.86635 0.0
H1610 H 0.27274 0.28087 0.82384 0.0
C1611 C 0.23598 0.24037 0.82922 0.0
H1612 H 0.25059 0.27926 0.89257 0.0
C1613 C 0.24882 0.241 0.7905 0.0
C1614 C 0.26225 0.25558 0.78769 0.0
H1615 H 0.22566 0.2291 0.83039 0.0
H1616 H 0.24829 0.22994 0.76305 0.0
C1617 C 0.26277 0.26929 0.82516 0.0
C1618 C 0.26543 0.73518 0.32565 0.0
C1619 C 0.26656 0.75033 0.35902 0.0
H1620 H 0.25162 0.7236 0.26233 0.0
C1621 C 0.25435 0.76579 0.35309 0.0
H1622 H 0.27441 0.72291 0.32962 0.0
C1623 C 0.24115 0.76599 0.31513 0.0
C1624 C 0.24007 0.75086 0.28198 0.0
H1625 H 0.25509 0.77787 0.37744 0.0
H1626 H 0.2319 0.77807 0.31136 0.0
C1627 C 0.25238 0.73551 0.28725 0.0
C1628 C 0.51793 0.99137 0.57036 0.0
C1629 C 0.50509 0.99295 0.5312 0.0
H1630 H 0.52742 0.0025 0.6391 0.0
C1631 C 0.49233 0.00811 0.53067 0.0
H1632 H 0.52812 0.97999 0.57145 0.0
C1633 C 0.49216 0.0212 0.56897 0.0
C1634 C 0.50468 0.01934 0.60874 0.0
H1635 H 0.48216 0.00964 0.50122 0.0
H1636 H 0.48215 0.03273 0.56752 0.0
C1637 C 0.51769 0.0044 0.60879 0.0
C1638 C 0.02224 0.00755 0.05409 0.0
C1639 C 0.00498 0.01373 0.03478 0.0
H1640 H 0.03597 0.99068 0.10884 0.0
C1641 C 0.98801 0.00738 0.05545 0.0
H1642 H 0.03545 0.0124 0.03855 0.0
C1643 C 0.98831 0.99475 0.0948 0.0
C1644 C 0.00558 0.98874 0.1144 0.0
H1645 H 0.97459 0.01201 0.04076 0.0
H1646 H 0.97512 0.98985 0.11032 0.0
C1647 C 0.02254 0.99526 0.09409 0.0
C1648 C 0.99004 0.4918 0.57501 0.0
C1649 C 0.00357 0.49113 0.61278 0.0
H1650 H 0.979 0.507 0.51321 0.0
C1651 C 0.01672 0.50597 0.61629 0.0
H1652 H 0.9796 0.48072 0.57146 0.0
C1653 C 0.0163 0.52111 0.58313 0.0
C1654 C 0.00264 0.5219 0.5457 0.0
H1655 H 0.02744 0.50586 0.64465 0.0
H1656 H 0.02658 0.53231 0.58719 0.0
C1657 C 0.98954 0.50702 0.54203 0.0
C1658 C 0.74997 0.73623 0.8618 0.0
C1659 C 0.76379 0.75052 0.86249 0.0
H1660 H 0.72498 0.72525 0.82805 0.0
C1661 C 0.76261 0.76498 0.82712 0.0
H1662 H 0.75047 0.72472 0.88799 0.0
C1663 C 0.74803 0.76518 0.79226 0.0
C1664 C 0.73419 0.7509 0.79166 0.0
H1665 H 0.77283 0.77634 0.8267 0.0
H1666 H 0.74778 0.77642 0.7653 0.0
C1667 C 0.73541 0.73642 0.82697 0.0
C1668 C 0.48813 0.4976 0.12193 0.0
C1669 C 0.50091 0.51269 0.11726 0.0
H1670 H 0.47806 0.47135 0.09238 0.0
C1671 C 0.51378 0.51252 0.07795 0.0
H1672 H 0.478 0.49738 0.15176 0.0
C1673 C 0.51404 0.49744 0.04448 0.0
C1674 C 0.50119 0.48239 0.04903 0.0
H1675 H 0.52387 0.52388 0.07361 0.0
H1676 H 0.52412 0.49769 0.01456 0.0
C1677 C 0.48813 0.48273 0.08792 0.0
C1678 C 0.76116 0.23866 0.31273 0.0
C1679 C 0.76462 0.25475 0.28373 0.0
H1680 H 0.74407 0.22576 0.3685 0.0
C1681 C 0.75272 0.2705 0.28955 0.0
H1682 H 0.76988 0.2262 0.30891 0.0
C1683 C 0.7378 0.27018 0.32329 0.0
C1684 C 0.73429 0.25409 0.35223 0.0
H1685 H 0.75501 0.28321 0.26823 0.0
H1686 H 0.72892 0.28255 0.32645 0.0
C1687 C 0.74616 0.23831 0.34641 0.0
C1688 C 0.25602 0.26778 0.34992 0.0
C1689 C 0.2677 0.25185 0.35558 0.0
H1690 H 0.23269 0.28039 0.31189 0.0
C1691 C 0.26429 0.23604 0.32548 0.0
H1692 H 0.25803 0.28013 0.37281 0.0
C1693 C 0.24964 0.23612 0.29096 0.0
C1694 C 0.23789 0.25199 0.28541 0.0
H1695 H 0.27303 0.22356 0.3284 0.0
H1696 H 0.24739 0.22358 0.26894 0.0
C1697 C 0.24128 0.26783 0.31542 0.0
C1698 C 0.26049 0.7688 0.807 0.0
C1699 C 0.26731 0.75167 0.78783 0.0
H1700 H 0.24121 0.78244 0.85619 0.0
C1701 C 0.25932 0.73469 0.80481 0.0
H1702 H 0.26638 0.78213 0.79488 0.0
C1703 C 0.2447 0.73487 0.83967 0.0
C1704 C 0.23796 0.75204 0.85896 0.0
H1705 H 0.26413 0.72126 0.79045 0.0
H1706 H 0.23884 0.72157 0.85206 0.0
C1707 C 0.24611 0.76898 0.84229 0.0
C1708 C 0.51865 0.00389 0.11511 0.0
C1709 C 0.50539 0.9891 0.11264 0.0
H1710 H 0.52863 0.02993 0.08476 0.0
C1711 C 0.49198 0.98947 0.0745 0.0
H1712 H 0.52936 0.00402 0.14348 0.0
C1713 C 0.4917 0.00431 0.0403 0.0
C1714 C 0.50483 0.01922 0.04316 0.0
H1715 H 0.48143 0.97848 0.07155 0.0
H1716 H 0.48125 0.00399 0.01129 0.0
C1717 C 0.51836 0.01871 0.08098 0.0
C1718 C 0.01564 0.0099 0.59236 0.0
C1719 C 0.99869 0.01879 0.60646 0.0
H1720 H 0.02907 0.98854 0.5494 0.0
C1721 C 0.98172 0.01143 0.58744 0.0
H1722 H 0.02907 0.01467 0.60655 0.0
C1723 C 0.98166 0.99563 0.5565 0.0
C1724 C 0.9986 0.98689 0.54175 0.0
H1725 H 0.9683 0.01784 0.59608 0.0
H1726 H 0.96814 0.99029 0.54448 0.0
C1727 C 0.01561 0.99441 0.56015 0.0
loop_
_geom_bond_atom_site_label_1
_geom_bond_atom_site_label_2
_geom_bond_distance
_geom_bond_site_symmetry_2
_ccdc_geom_bond_type
Li0 N17 1.990 . S
Li0 O60 1.919 1_655 S
Li0 O61 1.996 . S
Li0 O62 1.961 . S
Li1 N25 1.990 . S
Li1 O60 2.005 . S
Li1 O61 1.928 1_455 S
Li1 O63 1.961 . S
Li2 N47 1.993 . S
Li2 O60 1.958 1_655 S
Li2 O62 1.988 . S
Li2 O63 1.936 1_655 S
Li3 N53 1.994 . S
Li3 O61 1.958 1_455 S
Li3 O62 1.926 1_455 S
Li3 O63 1.998 . S
C4 C6 1.348 . S
C4 C7 1.356 1_455 S
C4 O60 1.324 . S
N5 C8 1.314 1_655 S
N5 C9 1.279 . S
C6 C4 1.348 . S
C6 C8 1.353 . S
C6 H64 0.929 . S
C7 C4 1.356 1_655 S
C7 C9 1.358 . S
C7 H65 0.930 . S
C8 N5 1.314 1_455 S
C8 C6 1.353 . S
C8 H66 0.930 . S
C9 N5 1.279 . S
C9 C7 1.358 . S
C9 H67 0.930 . S
C10 C13 1.348 1_455 S
C10 C14 1.356 . S
C10 O61 1.324 1_455 S
C11 N12 1.279 . S
C11 C14 1.358 . S
C11 H68 0.930 . S
N12 C11 1.279 . S
N12 C15 1.314 1_455 S
C13 C10 1.348 1_655 S
C13 C15 1.353 . S
C13 H69 0.929 . S
C14 C10 1.356 . S
C14 C11 1.358 . S
C14 H70 0.930 . S
C15 N12 1.314 1_655 S
C15 C13 1.353 . S
C15 H71 0.930 . S
C16 N17 1.314 . S
C16 C21 1.353 . S
C16 H22 0.930 . S
N17 Li0 1.990 . S
N17 C16 1.314 . S
N17 C19 1.279 . S
C18 C19 1.358 . S
C18 C20 1.356 . S
C18 H72 0.930 . S
C19 N17 1.279 . S
C19 C18 1.358 . S
C19 H23 0.930 . S
C20 C18 1.356 . S
C20 C21 1.348 . S
C21 C16 1.353 . S
C21 C20 1.348 . S
C21 H73 0.929 . S
H22 C16 0.930 . S
H23 C19 0.930 . S
C24 N25 1.314 . S
C24 C26 1.353 . S
C24 H30 0.930 . S
N25 Li1 1.990 . S
N25 C24 1.314 . S
N25 C28 1.279 . S
C26 C24 1.353 . S
C26 C29 1.348 . S
C26 H74 0.929 . S
C27 C28 1.358 . S
C27 C29 1.356 . S
C27 H75 0.930 . S
C28 N25 1.279 . S
C28 C27 1.358 . S
C28 H31 0.930 . S
C29 C26 1.348 . S
C29 C27 1.356 . S
H30 C24 0.930 . S
H31 C28 0.930 . S
C32 C34 1.348 . S
C32 C35 1.356 . S
C32 O62 1.325 . S
N33 C36 1.314 . S
N33 C37 1.279 . S
C34 C32 1.348 . S
C34 C36 1.353 . S
C34 H76 0.929 . S
C35 C32 1.356 . S
C35 C37 1.358 . S
C35 H77 0.930 . S
C36 N33 1.314 . S
C36 C34 1.353 . S
C36 H78 0.930 . S
C37 N33 1.279 . S
C37 C35 1.358 . S
C37 H79 0.930 . S
C38 C39 1.348 . S
C38 C40 1.356 . S
C38 O63 1.325 . S
C39 C38 1.348 . S
C39 C41 1.353 . S
C39 H80 0.929 . S
C40 C38 1.356 . S
C40 C42 1.358 . S
C40 H81 0.930 . S
C41 C39 1.353 . S
C41 N43 1.314 . S
C41 H82 0.930 . S
C42 C40 1.358 . S
C42 N43 1.279 . S
C42 H83 0.930 . S
N43 C41 1.314 . S
N43 C42 1.279 . S
C44 C46 1.353 . S
C44 N47 1.314 1_455 S
C44 H50 0.930 . S
C45 N47 1.279 . S
C45 C48 1.358 . S
C45 H51 0.930 . S
C46 C44 1.353 . S
C46 C49 1.348 . S
C46 H84 0.929 . S
N47 Li2 1.993 . S
N47 C44 1.314 1_655 S
N47 C45 1.279 . S
C48 C45 1.358 . S
C48 C49 1.356 1_655 S
C48 H85 0.930 . S
C49 C46 1.348 . S
C49 C48 1.356 1_455 S
H50 C44 0.930 . S
H51 C45 0.930 . S
C52 N53 1.314 1_655 S
C52 C54 1.353 . S
C52 H58 0.930 . S
N53 Li3 1.994 . S
N53 C52 1.314 1_455 S
N53 C56 1.279 . S
C54 C52 1.353 . S
C54 C57 1.348 1_655 S
C54 H86 0.929 . S
C55 C56 1.358 . S
C55 C57 1.356 . S
C55 H87 0.930 . S
C56 N53 1.279 . S
C56 C55 1.358 . S
C56 H59 0.930 . S
C57 C54 1.348 1_455 S
C57 C55 1.356 . S
H58 C52 0.930 . S
H59 C56 0.930 . S
O60 Li0 1.919 1_455 S
O60 Li1 2.005 . S
O60 Li2 1.958 1_455 S
O60 C4 1.324 . S
O61 Li0 1.996 . S
O61 Li1 1.928 1_655 S
O61 Li3 1.958 1_655 S
O61 C10 1.324 1_655 S
O62 Li0 1.961 . S
O62 Li2 1.988 . S
O62 Li3 1.926 1_655 S
O62 C32 1.325 . S
O63 Li1 1.961 . S
O63 Li2 1.936 1_455 S
O63 Li3 1.998 . S
O63 C38 1.325 . S
H64 C6 0.929 . S
H65 C7 0.930 . S
H66 C8 0.930 . S
H67 C9 0.930 . S
H68 C11 0.930 . S
H69 C13 0.929 . S
H70 C14 0.930 . S
H71 C15 0.930 . S
H72 C18 0.930 . S
H73 C21 0.929 . S
H74 C26 0.929 . S
H75 C27 0.930 . S
H76 C34 0.929 . S
H77 C35 0.930 . S
H78 C36 0.930 . S
H79 C37 0.930 . S
H80 C39 0.929 . S
H81 C40 0.930 . S
H82 C41 0.930 . S
H83 C42 0.930 . S
H84 C46 0.929 . S
H85 C48 0.930 . S
H86 C54 0.929 . S
H87 C55 0.930 . S
Li88 N105 1.990 . S
Li88 O148 1.956 . S
Li88 O149 1.970 . S
Li88 O150 1.961 . S
Li89 N113 1.990 . S
Li89 O148 1.970 . S
Li89 O149 1.956 . S
Li89 O151 1.961 . S
Li90 N135 1.990 . S
Li90 O148 1.961 . S
Li90 O150 1.956 . S
Li90 O151 1.970 . S
Li91 N141 1.990 . S
Li91 O149 1.961 . S
Li91 O150 1.970 . S
Li91 O151 1.956 . S
C92 C94 1.348 . S
C92 C95 1.356 . S
C92 O148 1.325 . S
N93 C96 1.314 . S
N93 C97 1.279 . S
C94 C92 1.348 . S
C94 C96 1.353 . S
C94 H152 0.929 . S
C95 C92 1.356 . S
C95 C97 1.358 . S
C95 H153 0.930 . S
C96 N93 1.314 . S
C96 C94 1.353 . S
C96 H154 0.930 . S
C97 N93 1.279 . S
C97 C95 1.358 . S
C97 H155 0.930 . S
C98 C101 1.348 . S
C98 C102 1.356 . S
C98 O149 1.325 . S
C99 N100 1.279 . S
C99 C102 1.358 . S
C99 H156 0.930 . S
N100 C99 1.279 . S
N100 C103 1.314 . S
C101 C98 1.348 . S
C101 C103 1.353 . S
C101 H157 0.929 . S
C102 C98 1.356 . S
C102 C99 1.358 . S
C102 H158 0.930 . S
C103 N100 1.314 . S
C103 C101 1.353 . S
C103 H159 0.930 . S
C104 N105 1.314 . S
C104 C109 1.353 . S
C104 H110 0.930 . S
N105 Li88 1.990 . S
N105 C104 1.314 . S
N105 C107 1.279 . S
C106 C107 1.358 . S
C106 C108 1.356 . S
C106 H160 0.930 . S
C107 N105 1.279 . S
C107 C106 1.358 . S
C107 H111 0.930 . S
C108 C106 1.356 . S
C108 C109 1.348 . S
C109 C104 1.353 . S
C109 C108 1.348 . S
C109 H161 0.929 . S
H110 C104 0.930 . S
H111 C107 0.930 . S
C112 N113 1.314 . S
C112 C114 1.353 . S
C112 H118 0.930 . S
N113 Li89 1.990 . S
N113 C112 1.314 . S
N113 C116 1.279 . S
C114 C112 1.353 . S
C114 C117 1.348 . S
C114 H162 0.929 . S
C115 C116 1.358 . S
C115 C117 1.356 . S
C115 H163 0.930 . S
C116 N113 1.279 . S
C116 C115 1.358 . S
C116 H119 0.930 . S
C117 C114 1.348 . S
C117 C115 1.356 . S
H118 C112 0.930 . S
H119 C116 0.930 . S
C120 C122 1.348 . S
C120 C123 1.356 . S
C120 O150 1.325 . S
N121 C124 1.314 . S
N121 C125 1.279 . S
C122 C120 1.348 . S
C122 C124 1.353 . S
C122 H164 0.929 . S
C123 C120 1.356 . S
C123 C125 1.358 . S
C123 H165 0.930 . S
C124 N121 1.314 . S
C124 C122 1.353 . S
C124 H166 0.930 . S
C125 N121 1.279 . S
C125 C123 1.358 . S
C125 H167 0.930 . S
C126 C127 1.348 . S
C126 C128 1.356 . S
C126 O151 1.325 . S
C127 C126 1.348 . S
C127 C129 1.353 . S
C127 H168 0.929 . S
C128 C126 1.356 . S
C128 C130 1.358 . S
C128 H169 0.930 . S
C129 C127 1.353 . S
C129 N131 1.314 . S
C129 H170 0.930 . S
C130 C128 1.358 . S
C130 N131 1.279 . S
C130 H171 0.930 . S
N131 C129 1.314 . S
N131 C130 1.279 . S
C132 C134 1.353 . S
C132 N135 1.314 . S
C132 H138 0.930 . S
C133 N135 1.279 . S
C133 C136 1.358 . S
C133 H139 0.930 . S
C134 C132 1.353 . S
C134 C137 1.348 . S
C134 H172 0.929 . S
N135 Li90 1.990 . S
N135 C132 1.314 . S
N135 C133 1.279 . S
C136 C133 1.358 . S
C136 C137 1.356 . S
C136 H173 0.930 . S
C137 C134 1.348 . S
C137 C136 1.356 . S
H138 C132 0.930 . S
H139 C133 0.930 . S
C140 N141 1.314 . S
C140 C142 1.353 . S
C140 H146 0.930 . S
N141 Li91 1.990 . S
N141 C140 1.314 . S
N141 C144 1.279 . S
C142 C140 1.353 . S
C142 C145 1.348 . S
C142 H174 0.929 . S
C143 C144 1.358 . S
C143 C145 1.356 . S
C143 H175 0.930 . S
C144 N141 1.279 . S
C144 C143 1.358 . S
C144 H147 0.930 . S
C145 C142 1.348 . S
C145 C143 1.356 . S
H146 C140 0.930 . S
H147 C144 0.930 . S
O148 Li88 1.956 . S
O148 Li89 1.970 . S
O148 Li90 1.961 . S
O148 C92 1.325 . S
O149 Li88 1.970 . S
O149 Li89 1.956 . S
O149 Li91 1.961 . S
O149 C98 1.325 . S
O150 Li88 1.961 . S
O150 Li90 1.956 . S
O150 Li91 1.970 . S
O150 C120 1.325 . S
O151 Li89 1.961 . S
O151 Li90 1.970 . S
O151 Li91 1.956 . S
O151 C126 1.325 . S
H152 C94 0.929 . S
H153 C95 0.930 . S
H154 C96 0.930 . S
H155 C97 0.930 . S
H156 C99 0.930 . S
H157 C101 0.929 . S
H158 C102 0.930 . S
H159 C103 0.930 . S
H160 C106 0.930 . S
H161 C109 0.929 . S
H162 C114 0.929 . S
H163 C115 0.930 . S
H164 C122 0.929 . S
H165 C123 0.930 . S
H166 C124 0.930 . S
H167 C125 0.930 . S
H168 C127 0.929 . S
H169 C128 0.930 . S
H170 C129 0.930 . S
H171 C130 0.930 . S
H172 C134 0.929 . S
H173 C136 0.930 . S
H174 C142 0.929 . S
H175 C143 0.930 . S
Li176 N193 1.990 . S
Li176 O236 1.956 . S
Li176 O237 1.970 . S
Li176 O238 1.961 . S
Li177 N201 1.990 . S
Li177 O236 1.970 . S
Li177 O237 1.956 . S
Li177 O239 1.961 . S
Li178 N223 1.990 . S
Li178 O236 1.961 . S
Li178 O238 1.956 . S
Li178 O239 1.970 . S
Li179 N229 1.990 . S
Li179 O237 1.961 . S
Li179 O238 1.970 . S
Li179 O239 1.956 . S
C180 C182 1.348 . S
C180 C183 1.356 . S
C180 O236 1.325 . S
N181 C184 1.314 . S
N181 C185 1.279 . S
C182 C180 1.348 . S
C182 C184 1.353 . S
C182 H240 0.929 . S
C183 C180 1.356 . S
C183 C185 1.358 . S
C183 H241 0.930 . S
C184 N181 1.314 . S
C184 C182 1.353 . S
C184 H242 0.930 . S
C185 N181 1.279 . S
C185 C183 1.358 . S
C185 H243 0.930 . S
C186 C189 1.348 . S
C186 C190 1.356 . S
C186 O237 1.325 . S
C187 N188 1.279 . S
C187 C190 1.358 . S
C187 H244 0.930 . S
N188 C187 1.279 . S
N188 C191 1.314 . S
C189 C186 1.348 . S
C189 C191 1.353 . S
C189 H245 0.929 . S
C190 C186 1.356 . S
C190 C187 1.358 . S
C190 H246 0.930 . S
C191 N188 1.314 . S
C191 C189 1.353 . S
C191 H247 0.930 . S
C192 N193 1.314 . S
C192 C197 1.353 . S
C192 H198 0.930 . S
N193 Li176 1.990 . S
N193 C192 1.314 . S
N193 C195 1.279 . S
C194 C195 1.358 . S
C194 C196 1.356 . S
C194 H248 0.930 . S
C195 N193 1.279 . S
C195 C194 1.358 . S
C195 H199 0.930 . S
C196 C194 1.356 . S
C196 C197 1.348 . S
C197 C192 1.353 . S
C197 C196 1.348 . S
C197 H249 0.929 . S
H198 C192 0.930 . S
H199 C195 0.930 . S
C200 N201 1.314 . S
C200 C202 1.353 . S
C200 H206 0.930 . S
N201 Li177 1.990 . S
N201 C200 1.314 . S
N201 C204 1.279 . S
C202 C200 1.353 . S
C202 C205 1.348 . S
C202 H250 0.929 . S
C203 C204 1.358 . S
C203 C205 1.356 . S
C203 H251 0.930 . S
C204 N201 1.279 . S
C204 C203 1.358 . S
C204 H207 0.930 . S
C205 C202 1.348 . S
C205 C203 1.356 . S
H206 C200 0.930 . S
H207 C204 0.930 . S
C208 C210 1.348 . S
C208 C211 1.356 . S
C208 O238 1.325 . S
N209 C212 1.314 . S
N209 C213 1.279 . S
C210 C208 1.348 . S
C210 C212 1.353 . S
C210 H252 0.929 . S
C211 C208 1.356 . S
C211 C213 1.358 . S
C211 H253 0.930 . S
C212 N209 1.314 . S
C212 C210 1.353 . S
C212 H254 0.930 . S
C213 N209 1.279 . S
C213 C211 1.358 . S
C213 H255 0.930 . S
C214 C215 1.348 . S
C214 C216 1.356 . S
C214 O239 1.325 . S
C215 C214 1.348 . S
C215 C217 1.353 . S
C215 H256 0.929 . S
C216 C214 1.356 . S
C216 C218 1.358 . S
C216 H257 0.930 . S
C217 C215 1.353 . S
C217 N219 1.314 . S
C217 H258 0.930 . S
C218 C216 1.358 . S
C218 N219 1.279 . S
C218 H259 0.930 . S
N219 C217 1.314 . S
N219 C218 1.279 . S
C220 C222 1.353 . S
C220 N223 1.314 . S
C220 H226 0.930 . S
C221 N223 1.279 . S
C221 C224 1.358 . S
C221 H227 0.930 . S
C222 C220 1.353 . S
C222 C225 1.348 . S
C222 H260 0.929 . S
N223 Li178 1.990 . S
N223 C220 1.314 . S
N223 C221 1.279 . S
C224 C221 1.358 . S
C224 C225 1.356 . S
C224 H261 0.930 . S
C225 C222 1.348 . S
C225 C224 1.356 . S
H226 C220 0.930 . S
H227 C221 0.930 . S
C228 N229 1.314 . S
C228 C230 1.353 . S
C228 H234 0.930 . S
N229 Li179 1.990 . S
N229 C228 1.314 . S
N229 C232 1.279 . S
C230 C228 1.353 . S
C230 C233 1.348 . S
C230 H262 0.929 . S
C231 C232 1.358 . S
C231 C233 1.356 . S
C231 H263 0.930 . S
C232 N229 1.279 . S
C232 C231 1.358 . S
C232 H235 0.930 . S
C233 C230 1.348 . S
C233 C231 1.356 . S
H234 C228 0.930 . S
H235 C232 0.930 . S
O236 Li176 1.956 . S
O236 Li177 1.970 . S
O236 Li178 1.961 . S
O236 C180 1.325 . S
O237 Li176 1.970 . S
O237 Li177 1.956 . S
O237 Li179 1.961 . S
O237 C186 1.325 . S
O238 Li176 1.961 . S
O238 Li178 1.956 . S
O238 Li179 1.970 . S
O238 C208 1.325 . S
O239 Li177 1.961 . S
O239 Li178 1.970 . S
O239 Li179 1.956 . S
O239 C214 1.325 . S
H240 C182 0.929 . S
H241 C183 0.930 . S
H242 C184 0.930 . S
H243 C185 0.930 . S
H244 C187 0.930 . S
H245 C189 0.929 . S
H246 C190 0.930 . S
H247 C191 0.930 . S
H248 C194 0.930 . S
H249 C197 0.929 . S
H250 C202 0.929 . S
H251 C203 0.930 . S
H252 C210 0.929 . S
H253 C211 0.930 . S
H254 C212 0.930 . S
H255 C213 0.930 . S
H256 C215 0.929 . S
H257 C216 0.930 . S
H258 C217 0.930 . S
H259 C218 0.930 . S
H260 C222 0.929 . S
H261 C224 0.930 . S
H262 C230 0.929 . S
H263 C231 0.930 . S
Li264 N281 1.990 . S
Li264 O324 1.956 . S
Li264 O325 1.970 . S
Li264 O326 1.961 . S
Li265 N289 1.990 . S
Li265 O324 1.970 . S
Li265 O325 1.956 . S
Li265 O327 1.961 1_554 S
Li266 N311 1.990 . S
Li266 O324 1.961 . S
Li266 O326 1.956 . S
Li266 O327 1.970 1_554 S
Li267 N317 1.990 . S
Li267 O325 1.961 1_556 S
Li267 O326 1.970 1_556 S
Li267 O327 1.956 . S
C268 C270 1.348 . S
C268 C271 1.356 . S
C268 O324 1.325 . S
N269 C272 1.314 . S
N269 C273 1.279 . S
C270 C268 1.348 . S
C270 C272 1.353 . S
C270 H328 0.929 . S
C271 C268 1.356 . S
C271 C273 1.358 . S
C271 H329 0.930 . S
C272 N269 1.314 . S
C272 C270 1.353 . S
C272 H330 0.930 . S
C273 N269 1.279 . S
C273 C271 1.358 . S
C273 H331 0.930 . S
C274 C277 1.348 . S
C274 C278 1.356 1_554 S
C274 O325 1.325 . S
C275 N276 1.279 1_556 S
C275 C278 1.358 . S
C275 H332 0.930 . S
N276 C275 1.279 1_554 S
N276 C279 1.314 . S
C277 C274 1.348 . S
C277 C279 1.353 . S
C277 H333 0.929 . S
C278 C274 1.356 1_556 S
C278 C275 1.358 . S
C278 H334 0.930 . S
C279 N276 1.314 . S
C279 C277 1.353 . S
C279 H335 0.930 . S
C280 N281 1.314 . S
C280 C285 1.353 . S
C280 H286 0.930 . S
N281 Li264 1.990 . S
N281 C280 1.314 . S
N281 C283 1.279 . S
C282 C283 1.358 . S
C282 C284 1.356 . S
C282 H336 0.930 . S
C283 N281 1.279 . S
C283 C282 1.358 . S
C283 H287 0.930 . S
C284 C282 1.356 . S
C284 C285 1.348 . S
C285 C280 1.353 . S
C285 C284 1.348 . S
C285 H337 0.929 . S
H286 C280 0.930 . S
H287 C283 0.930 . S
C288 N289 1.314 1_556 S
C288 C290 1.353 . S
C288 H294 0.930 . S
N289 Li265 1.990 . S
N289 C288 1.314 1_554 S
N289 C292 1.279 . S
C290 C288 1.353 . S
C290 C293 1.348 . S
C290 H338 0.929 . S
C291 C292 1.358 . S
C291 C293 1.356 1_554 S
C291 H339 0.930 . S
C292 N289 1.279 . S
C292 C291 1.358 . S
C292 H295 0.930 . S
C293 C290 1.348 . S
C293 C291 1.356 1_556 S
H294 C288 0.930 . S
H295 C292 0.930 . S
C296 C298 1.348 1_554 S
C296 C299 1.356 . S
C296 O326 1.325 . S
N297 C300 1.314 . S
N297 C301 1.279 . S
C298 C296 1.348 1_556 S
C298 C300 1.353 1_556 S
C298 H340 0.929 . S
C299 C296 1.356 . S
C299 C301 1.358 . S
C299 H341 0.930 . S
C300 N297 1.314 . S
C300 C298 1.353 1_554 S
C300 H342 0.930 1_554 S
C301 N297 1.279 . S
C301 C299 1.358 . S
C301 H343 0.930 . S
C302 C303 1.348 . S
C302 C304 1.356 . S
C302 O327 1.325 . S
C303 C302 1.348 . S
C303 C305 1.353 . S
C303 H344 0.929 . S
C304 C302 1.356 . S
C304 C306 1.358 . S
C304 H345 0.930 . S
C305 C303 1.353 . S
C305 N307 1.314 . S
C305 H346 0.930 . S
C306 C304 1.358 . S
C306 N307 1.279 . S
C306 H347 0.930 . S
N307 C305 1.314 . S
N307 C306 1.279 . S
C308 C310 1.353 . S
C308 N311 1.314 . S
C308 H314 0.930 . S
C309 N311 1.279 . S
C309 C312 1.358 1_554 S
C309 H315 0.930 . S
C310 C308 1.353 . S
C310 C313 1.348 1_554 S
C310 H348 0.929 . S
N311 Li266 1.990 . S
N311 C308 1.314 . S
N311 C309 1.279 . S
C312 C309 1.358 1_556 S
C312 C313 1.356 . S
C312 H349 0.930 . S
C313 C310 1.348 1_556 S
C313 C312 1.356 . S
H314 C308 0.930 . S
H315 C309 0.930 . S
C316 N317 1.314 . S
C316 C318 1.353 . S
C316 H322 0.930 . S
N317 Li267 1.990 . S
N317 C316 1.314 . S
N317 C320 1.279 . S
C318 C316 1.353 . S
C318 C321 1.348 . S
C318 H350 0.929 . S
C319 C320 1.358 . S
C319 C321 1.356 . S
C319 H351 0.930 . S
C320 N317 1.279 . S
C320 C319 1.358 . S
C320 H323 0.930 . S
C321 C318 1.348 . S
C321 C319 1.356 . S
H322 C316 0.930 . S
H323 C320 0.930 . S
O324 Li264 1.956 . S
O324 Li265 1.970 . S
O324 Li266 1.961 . S
O324 C268 1.325 . S
O325 Li264 1.970 . S
O325 Li265 1.956 . S
O325 Li267 1.961 1_554 S
O325 C274 1.325 . S
O326 Li264 1.961 . S
O326 Li266 1.956 . S
O326 Li267 1.970 1_554 S
O326 C296 1.325 . S
O327 Li265 1.961 1_556 S
O327 Li266 1.970 1_556 S
O327 Li267 1.956 . S
O327 C302 1.325 . S
H328 C270 0.929 . S
H329 C271 0.930 . S
H330 C272 0.930 . S
H331 C273 0.930 . S
H332 C275 0.930 . S
H333 C277 0.929 . S
H334 C278 0.930 . S
H335 C279 0.930 . S
H336 C282 0.930 . S
H337 C285 0.929 . S
H338 C290 0.929 . S
H339 C291 0.930 . S
H340 C298 0.929 . S
H341 C299 0.930 . S
H342 C300 0.930 1_556 S
H343 C301 0.930 . S
H344 C303 0.929 . S
H345 C304 0.930 . S
H346 C305 0.930 . S
H347 C306 0.930 . S
H348 C310 0.929 . S
H349 C312 0.930 . S
H350 C318 0.929 . S
H351 C319 0.930 . S
Li352 N369 1.994 . S
Li352 O412 1.998 . S
Li352 O413 1.926 1_455 S
Li352 O414 1.958 1_455 S
Li353 N377 1.993 . S
Li353 O412 1.936 1_655 S
Li353 O413 1.988 . S
Li353 O415 1.958 1_655 S
Li354 N399 1.990 . S
Li354 O412 1.961 . S
Li354 O414 1.928 1_455 S
Li354 O415 2.005 . S
Li355 N405 1.990 . S
Li355 O413 1.961 . S
Li355 O414 1.996 . S
Li355 O415 1.919 1_655 S
C356 C358 1.348 . S
C356 C359 1.356 . S
C356 O412 1.325 . S
N357 C360 1.314 . S
N357 C361 1.279 . S
C358 C356 1.348 . S
C358 C360 1.353 . S
C358 H416 0.929 . S
C359 C356 1.356 . S
C359 C361 1.358 . S
C359 H417 0.930 . S
C360 N357 1.314 . S
C360 C358 1.353 . S
C360 H418 0.930 . S
C361 N357 1.279 . S
C361 C359 1.358 . S
C361 H419 0.930 . S
C362 C365 1.348 . S
C362 C366 1.356 . S
C362 O413 1.325 . S
C363 N364 1.279 . S
C363 C366 1.358 . S
C363 H420 0.930 . S
N364 C363 1.279 . S
N364 C367 1.314 . S
C365 C362 1.348 . S
C365 C367 1.353 . S
C365 H421 0.929 . S
C366 C362 1.356 . S
C366 C363 1.358 . S
C366 H422 0.930 . S
C367 N364 1.314 . S
C367 C365 1.353 . S
C367 H423 0.930 . S
C368 N369 1.314 1_655 S
C368 C373 1.353 . S
C368 H374 0.930 . S
N369 Li352 1.994 . S
N369 C368 1.314 1_455 S
N369 C371 1.279 . S
C370 C371 1.358 . S
C370 C372 1.356 . S
C370 H424 0.930 . S
C371 N369 1.279 . S
C371 C370 1.358 . S
C371 H375 0.930 . S
C372 C370 1.356 . S
C372 C373 1.348 1_455 S
C373 C368 1.353 . S
C373 C372 1.348 1_655 S
C373 H425 0.929 . S
H374 C368 0.930 . S
H375 C371 0.930 . S
C376 N377 1.314 1_454 S
C376 C378 1.353 . S
C376 H382 0.930 . S
N377 Li353 1.993 . S
N377 C376 1.314 1_656 S
N377 C380 1.279 . S
C378 C376 1.353 . S
C378 C381 1.348 . S
C378 H426 0.929 . S
C379 C380 1.354 1_554 S
C379 C381 1.361 1_655 S
C379 H427 0.929 1_554 S
C380 N377 1.279 . S
C380 C379 1.354 1_556 S
C380 H383 0.930 . S
C381 C378 1.348 . S
C381 C379 1.361 1_455 S
H382 C376 0.930 . S
H383 C380 0.930 . S
C384 C386 1.348 1_455 S
C384 C387 1.356 . S
C384 O414 1.324 1_455 S
N385 C388 1.314 1_455 S
N385 C389 1.279 . S
C386 C384 1.348 1_655 S
C386 C388 1.353 . S
C386 H428 0.929 . S
C387 C384 1.356 . S
C387 C389 1.358 . S
C387 H429 0.930 . S
C388 N385 1.314 1_655 S
C388 C386 1.353 . S
C388 H430 0.930 . S
C389 N385 1.279 . S
C389 C387 1.358 . S
C389 H431 0.930 . S
C390 C391 1.348 . S
C390 C392 1.356 1_456 S
C390 O415 1.324 . S
C391 C390 1.348 . S
C391 C393 1.353 1_556 S
C391 H432 0.929 . S
C392 C390 1.356 1_654 S
C392 C394 1.358 . S
C392 H433 0.930 . S
C393 C391 1.353 1_554 S
C393 N395 1.314 1_455 S
C393 H434 0.930 . S
C394 C392 1.358 . S
C394 N395 1.279 . S
C394 H435 0.930 . S
N395 C393 1.314 1_655 S
N395 C394 1.279 . S
C396 C398 1.353 . S
C396 N399 1.314 . S
C396 H402 0.930 . S
C397 N399 1.279 . S
C397 C400 1.358 . S
C397 H403 0.930 . S
C398 C396 1.353 . S
C398 C401 1.348 . S
C398 H436 0.929 . S
N399 Li354 1.990 . S
N399 C396 1.314 . S
N399 C397 1.279 . S
C400 C397 1.358 . S
C400 C401 1.356 . S
C400 H437 0.930 . S
C401 C398 1.348 . S
C401 C400 1.356 . S
H402 C396 0.930 . S
H403 C397 0.930 . S
C404 N405 1.314 . S
C404 C406 1.353 . S
C404 H410 0.930 . S
N405 Li355 1.990 . S
N405 C404 1.314 . S
N405 C408 1.279 . S
C406 C404 1.353 . S
C406 C409 1.348 . S
C406 H438 0.929 . S
C407 C408 1.358 . S
C407 C409 1.356 . S
C407 H439 0.930 . S
C408 N405 1.279 . S
C408 C407 1.358 . S
C408 H411 0.930 . S
C409 C406 1.348 . S
C409 C407 1.356 . S
H410 C404 0.930 . S
H411 C408 0.930 . S
O412 Li352 1.998 . S
O412 Li353 1.936 1_455 S
O412 Li354 1.961 . S
O412 C356 1.325 . S
O413 Li352 1.926 1_655 S
O413 Li353 1.988 . S
O413 Li355 1.961 . S
O413 C362 1.325 . S
O414 Li352 1.958 1_655 S
O414 Li354 1.928 1_655 S
O414 Li355 1.996 . S
O414 C384 1.324 1_655 S
O415 Li353 1.958 1_455 S
O415 Li354 2.005 . S
O415 Li355 1.919 1_455 S
O415 C390 1.324 . S
H416 C358 0.929 . S
H417 C359 0.930 . S
H418 C360 0.930 . S
H419 C361 0.930 . S
H420 C363 0.930 . S
H421 C365 0.929 . S
H422 C366 0.930 . S
H423 C367 0.930 . S
H424 C370 0.930 . S
H425 C373 0.929 . S
H426 C378 0.929 . S
H427 C379 0.929 1_556 S
H428 C386 0.929 . S
H429 C387 0.930 . S
H430 C388 0.930 . S
H431 C389 0.930 . S
H432 C391 0.929 . S
H433 C392 0.930 . S
H434 C393 0.930 . S
H435 C394 0.930 . S
H436 C398 0.929 . S
H437 C400 0.930 . S
H438 C406 0.929 . S
H439 C407 0.930 . S
Li440 N457 1.990 . S
Li440 O500 1.956 . S
Li440 O501 1.970 . S
Li440 O502 1.961 . S
Li441 N465 1.990 . S
Li441 O500 1.970 . S
Li441 O501 1.956 . S
Li441 O503 1.961 . S
Li442 N487 2.002 . S
Li442 O500 1.961 . S
Li442 O502 1.956 . S
Li442 O503 1.970 . S
Li443 N493 1.990 . S
Li443 O501 1.961 . S
Li443 O502 1.970 . S
Li443 O503 1.956 . S
C444 C446 1.348 . S
C444 C447 1.356 . S
C444 O500 1.325 . S
N445 C448 1.314 . S
N445 C449 1.279 . S
C446 C444 1.348 . S
C446 C448 1.353 . S
C446 H504 0.929 . S
C447 C444 1.356 . S
C447 C449 1.358 . S
C447 H505 0.930 . S
C448 N445 1.314 . S
C448 C446 1.353 . S
C448 H506 0.930 . S
C449 N445 1.279 . S
C449 C447 1.358 . S
C449 H507 0.930 . S
C450 C453 1.348 . S
C450 C454 1.356 . S
C450 O501 1.325 . S
C451 N452 1.279 . S
C451 C454 1.358 . S
C451 H508 0.930 . S
N452 C451 1.279 . S
N452 C455 1.314 . S
C453 C450 1.348 . S
C453 C455 1.353 . S
C453 H509 0.929 . S
C454 C450 1.356 . S
C454 C451 1.358 . S
C454 H510 0.930 . S
C455 N452 1.314 . S
C455 C453 1.353 . S
C455 H511 0.930 . S
C456 N457 1.314 . S
C456 C461 1.353 . S
C456 H462 0.930 . S
N457 Li440 1.990 . S
N457 C456 1.314 . S
N457 C459 1.279 . S
C458 C459 1.358 . S
C458 C460 1.356 . S
C458 H512 0.930 . S
C459 N457 1.279 . S
C459 C458 1.358 . S
C459 H463 0.930 . S
C460 C458 1.356 . S
C460 C461 1.348 . S
C461 C456 1.353 . S
C461 C460 1.348 . S
C461 H513 0.929 . S
H462 C456 0.930 . S
H463 C459 0.930 . S
C464 N465 1.314 . S
C464 C466 1.353 . S
C464 H470 0.930 . S
N465 Li441 1.990 . S
N465 C464 1.314 . S
N465 C468 1.279 . S
C466 C464 1.353 . S
C466 C469 1.348 . S
C466 H514 0.929 . S
C467 C468 1.358 . S
C467 C469 1.356 . S
C467 H515 0.930 . S
C468 N465 1.279 . S
C468 C467 1.358 . S
C468 H471 0.930 . S
C469 C466 1.348 . S
C469 C467 1.356 . S
H470 C464 0.930 . S
H471 C468 0.930 . S
C472 C474 1.348 . S
C472 C475 1.356 . S
C472 O502 1.325 . S
N473 C476 1.314 . S
N473 C477 1.279 . S
C474 C472 1.348 . S
C474 C476 1.353 1_554 S
C474 H516 0.929 . S
C475 C472 1.356 . S
C475 C477 1.358 1_554 S
C475 H517 0.930 . S
C476 N473 1.314 . S
C476 C474 1.353 1_556 S
C476 H518 0.930 . S
C477 N473 1.279 . S
C477 C475 1.358 1_556 S
C477 H519 0.930 . S
C478 C479 1.348 . S
C478 C480 1.356 . S
C478 O503 1.325 . S
C479 C478 1.348 . S
C479 C481 1.353 . S
C479 H520 0.929 . S
C480 C478 1.356 . S
C480 C482 1.358 . S
C480 H521 0.930 . S
C481 C479 1.353 . S
C481 N483 1.314 . S
C481 H522 0.930 . S
C482 C480 1.358 . S
C482 N483 1.279 . S
C482 H523 0.930 . S
N483 C481 1.314 . S
N483 C482 1.279 . S
C484 C486 1.353 . S
C484 N487 1.312 1_556 S
C484 H490 0.930 1_556 S
C485 N487 1.268 1_556 S
C485 C488 1.358 . S
C485 H491 0.930 . S
C486 C484 1.353 . S
C486 C489 1.348 . S
C486 H524 0.929 . S
N487 Li442 2.002 . S
N487 C484 1.312 1_554 S
N487 C485 1.268 1_554 S
C488 C485 1.358 . S
C488 C489 1.356 . S
C488 H525 0.930 . S
C489 C486 1.348 . S
C489 C488 1.356 . S
H490 C484 0.930 1_554 S
H491 C485 0.930 . S
C492 N493 1.314 . S
C492 C494 1.353 . S
C492 H498 0.930 . S
N493 Li443 1.990 . S
N493 C492 1.314 . S
N493 C496 1.279 . S
C494 C492 1.353 . S
C494 C497 1.348 . S
C494 H526 0.929 . S
C495 C496 1.358 . S
C495 C497 1.356 . S
C495 H527 0.930 . S
C496 N493 1.279 . S
C496 C495 1.358 . S
C496 H499 0.930 . S
C497 C494 1.348 . S
C497 C495 1.356 . S
H498 C492 0.930 . S
H499 C496 0.930 . S
O500 Li440 1.956 . S
O500 Li441 1.970 . S
O500 Li442 1.961 . S
O500 C444 1.325 . S
O501 Li440 1.970 . S
O501 Li441 1.956 . S
O501 Li443 1.961 . S
O501 C450 1.325 . S
O502 Li440 1.961 . S
O502 Li442 1.956 . S
O502 Li443 1.970 . S
O502 C472 1.325 . S
O503 Li441 1.961 . S
O503 Li442 1.970 . S
O503 Li443 1.956 . S
O503 C478 1.325 . S
H504 C446 0.929 . S
H505 C447 0.930 . S
H506 C448 0.930 . S
H507 C449 0.930 . S
H508 C451 0.930 . S
H509 C453 0.929 . S
H510 C454 0.930 . S
H511 C455 0.930 . S
H512 C458 0.930 . S
H513 C461 0.929 . S
H514 C466 0.929 . S
H515 C467 0.930 . S
H516 C474 0.929 . S
H517 C475 0.930 . S
H518 C476 0.930 . S
H519 C477 0.930 . S
H520 C479 0.929 . S
H521 C480 0.930 . S
H522 C481 0.930 . S
H523 C482 0.930 . S
H524 C486 0.929 . S
H525 C488 0.930 . S
H526 C494 0.929 . S
H527 C495 0.930 . S
Li528 N545 1.990 . S
Li528 O588 1.956 . S
Li528 O589 1.970 . S
Li528 O590 1.961 . S
Li529 N553 1.990 . S
Li529 O588 1.970 . S
Li529 O589 1.956 . S
Li529 O591 1.961 . S
Li530 N575 1.990 . S
Li530 O588 1.961 . S
Li530 O590 1.956 . S
Li530 O591 1.970 . S
Li531 N581 1.990 . S
Li531 O589 1.961 . S
Li531 O590 1.970 . S
Li531 O591 1.956 . S
C532 C534 1.348 . S
C532 C535 1.356 . S
C532 O588 1.325 . S
N533 C536 1.314 . S
N533 C537 1.279 . S
C534 C532 1.348 . S
C534 C536 1.353 . S
C534 H592 0.929 . S
C535 C532 1.356 . S
C535 C537 1.358 . S
C535 H593 0.930 . S
C536 N533 1.314 . S
C536 C534 1.353 . S
C536 H594 0.930 . S
C537 N533 1.279 . S
C537 C535 1.358 . S
C537 H595 0.930 . S
C538 C541 1.348 . S
C538 C542 1.356 . S
C538 O589 1.325 . S
C539 N540 1.279 . S
C539 C542 1.358 . S
C539 H596 0.930 . S
N540 C539 1.279 . S
N540 C543 1.314 . S
C541 C538 1.348 . S
C541 C543 1.353 . S
C541 H597 0.929 . S
C542 C538 1.356 . S
C542 C539 1.358 . S
C542 H598 0.930 . S
C543 N540 1.314 . S
C543 C541 1.353 . S
C543 H599 0.930 . S
C544 N545 1.314 . S
C544 C549 1.353 . S
C544 H550 0.930 . S
N545 Li528 1.990 . S
N545 C544 1.314 . S
N545 C547 1.279 . S
C546 C547 1.358 . S
C546 C548 1.356 . S
C546 H600 0.930 . S
C547 N545 1.279 . S
C547 C546 1.358 . S
C547 H551 0.930 . S
C548 C546 1.356 . S
C548 C549 1.348 . S
C549 C544 1.353 . S
C549 C548 1.348 . S
C549 H601 0.929 . S
H550 C544 0.930 . S
H551 C547 0.930 . S
C552 N553 1.314 . S
C552 C554 1.353 . S
C552 H558 0.930 . S
N553 Li529 1.990 . S
N553 C552 1.314 . S
N553 C556 1.279 . S
C554 C552 1.353 . S
C554 C557 1.348 . S
C554 H602 0.929 . S
C555 C556 1.358 . S
C555 C557 1.356 . S
C555 H603 0.930 . S
C556 N553 1.279 . S
C556 C555 1.358 . S
C556 H559 0.930 . S
C557 C554 1.348 . S
C557 C555 1.356 . S
H558 C552 0.930 . S
H559 C556 0.930 . S
C560 C562 1.348 . S
C560 C563 1.356 . S
C560 O590 1.325 . S
N561 C564 1.314 . S
N561 C565 1.279 . S
C562 C560 1.348 . S
C562 C564 1.353 . S
C562 H604 0.929 . S
C563 C560 1.356 . S
C563 C565 1.358 . S
C563 H605 0.930 . S
C564 N561 1.314 . S
C564 C562 1.353 . S
C564 H606 0.930 . S
C565 N561 1.279 . S
C565 C563 1.358 . S
C565 H607 0.930 . S
C566 C567 1.348 . S
C566 C568 1.356 . S
C566 O591 1.325 . S
C567 C566 1.348 . S
C567 C569 1.353 . S
C567 H608 0.929 . S
C568 C566 1.356 . S
C568 C570 1.358 . S
C568 H609 0.930 . S
C569 C567 1.353 . S
C569 N571 1.314 . S
C569 H610 0.930 . S
C570 C568 1.358 . S
C570 N571 1.279 . S
C570 H611 0.930 . S
N571 C569 1.314 . S
N571 C570 1.279 . S
C572 C574 1.353 . S
C572 N575 1.314 . S
C572 H578 0.930 . S
C573 N575 1.279 . S
C573 C576 1.358 . S
C573 H579 0.930 . S
C574 C572 1.353 . S
C574 C577 1.348 . S
C574 H612 0.929 . S
N575 Li530 1.990 . S
N575 C572 1.314 . S
N575 C573 1.279 . S
C576 C573 1.358 . S
C576 C577 1.356 . S
C576 H613 0.930 . S
C577 C574 1.348 . S
C577 C576 1.356 . S
H578 C572 0.930 . S
H579 C573 0.930 . S
C580 N581 1.314 . S
C580 C582 1.353 . S
C580 H586 0.930 . S
N581 Li531 1.990 . S
N581 C580 1.314 . S
N581 C584 1.279 . S
C582 C580 1.353 . S
C582 C585 1.348 . S
C582 H614 0.929 . S
C583 C584 1.358 . S
C583 C585 1.356 . S
C583 H615 0.930 . S
C584 N581 1.279 . S
C584 C583 1.358 . S
C584 H587 0.930 . S
C585 C582 1.348 . S
C585 C583 1.356 . S
H586 C580 0.930 . S
H587 C584 0.930 . S
O588 Li528 1.956 . S
O588 Li529 1.970 . S
O588 Li530 1.961 . S
O588 C532 1.325 . S
O589 Li528 1.970 . S
O589 Li529 1.956 . S
O589 Li531 1.961 . S
O589 C538 1.325 . S
O590 Li528 1.961 . S
O590 Li530 1.956 . S
O590 Li531 1.970 . S
O590 C560 1.325 . S
O591 Li529 1.961 . S
O591 Li530 1.970 . S
O591 Li531 1.956 . S
O591 C566 1.325 . S
H592 C534 0.929 . S
H593 C535 0.930 . S
H594 C536 0.930 . S
H595 C537 0.930 . S
H596 C539 0.930 . S
H597 C541 0.929 . S
H598 C542 0.930 . S
H599 C543 0.930 . S
H600 C546 0.930 . S
H601 C549 0.929 . S
H602 C554 0.929 . S
H603 C555 0.930 . S
H604 C562 0.929 . S
H605 C563 0.930 . S
H606 C564 0.930 . S
H607 C565 0.930 . S
H608 C567 0.929 . S
H609 C568 0.930 . S
H610 C569 0.930 . S
H611 C570 0.930 . S
H612 C574 0.929 . S
H613 C576 0.930 . S
H614 C582 0.929 . S
H615 C583 0.930 . S
Li616 N633 1.990 . S
Li616 O676 1.956 . S
Li616 O677 1.970 . S
Li616 O678 1.961 . S
Li617 N641 1.990 . S
Li617 O676 1.970 . S
Li617 O677 1.956 . S
Li617 O679 1.961 . S
Li618 N663 1.990 . S
Li618 O676 1.961 . S
Li618 O678 1.956 . S
Li618 O679 1.970 . S
Li619 N669 1.990 . S
Li619 O677 1.961 . S
Li619 O678 1.970 . S
Li619 O679 1.956 . S
C620 C622 1.348 . S
C620 C623 1.356 . S
C620 O676 1.325 . S
N621 C624 1.314 . S
N621 C625 1.279 . S
C622 C620 1.348 . S
C622 C624 1.353 . S
C622 H680 0.929 . S
C623 C620 1.356 . S
C623 C625 1.358 . S
C623 H681 0.930 . S
C624 N621 1.314 . S
C624 C622 1.353 . S
C624 H682 0.930 . S
C625 N621 1.279 . S
C625 C623 1.358 . S
C625 H683 0.930 . S
C626 C629 1.348 . S
C626 C630 1.356 . S
C626 O677 1.325 . S
C627 N628 1.279 . S
C627 C630 1.358 . S
C627 H684 0.930 . S
N628 C627 1.279 . S
N628 C631 1.314 . S
C629 C626 1.348 . S
C629 C631 1.353 . S
C629 H685 0.929 . S
C630 C626 1.356 . S
C630 C627 1.358 . S
C630 H686 0.930 . S
C631 N628 1.314 . S
C631 C629 1.353 . S
C631 H687 0.930 . S
C632 N633 1.314 . S
C632 C637 1.353 . S
C632 H638 0.930 . S
N633 Li616 1.990 . S
N633 C632 1.314 . S
N633 C635 1.279 . S
C634 C635 1.358 . S
C634 C636 1.356 . S
C634 H688 0.930 . S
C635 N633 1.279 . S
C635 C634 1.358 . S
C635 H639 0.930 . S
C636 C634 1.356 . S
C636 C637 1.348 . S
C637 C632 1.353 . S
C637 C636 1.348 . S
C637 H689 0.929 . S
H638 C632 0.930 . S
H639 C635 0.930 . S
C640 N641 1.314 . S
C640 C642 1.353 . S
C640 H646 0.930 . S
N641 Li617 1.990 . S
N641 C640 1.314 . S
N641 C644 1.279 . S
C642 C640 1.353 . S
C642 C645 1.348 . S
C642 H690 0.929 . S
C643 C644 1.358 . S
C643 C645 1.356 . S
C643 H691 0.930 . S
C644 N641 1.279 . S
C644 C643 1.358 . S
C644 H647 0.930 . S
C645 C642 1.348 . S
C645 C643 1.356 . S
H646 C640 0.930 . S
H647 C644 0.930 . S
C648 C650 1.348 . S
C648 C651 1.356 . S
C648 O678 1.325 . S
N649 C652 1.314 . S
N649 C653 1.279 . S
C650 C648 1.348 . S
C650 C652 1.353 . S
C650 H692 0.929 . S
C651 C648 1.356 . S
C651 C653 1.358 . S
C651 H693 0.930 . S
C652 N649 1.314 . S
C652 C650 1.353 . S
C652 H694 0.930 . S
C653 N649 1.279 . S
C653 C651 1.358 . S
C653 H695 0.930 . S
C654 C655 1.348 . S
C654 C656 1.356 . S
C654 O679 1.325 . S
C655 C654 1.348 . S
C655 C657 1.353 . S
C655 H696 0.929 . S
C656 C654 1.356 . S
C656 C658 1.358 . S
C656 H697 0.930 . S
C657 C655 1.353 . S
C657 N659 1.314 . S
C657 H698 0.930 . S
C658 C656 1.358 . S
C658 N659 1.279 . S
C658 H699 0.930 . S
N659 C657 1.314 . S
N659 C658 1.279 . S
C660 C662 1.353 . S
C660 N663 1.314 . S
C660 H666 0.930 . S
C661 N663 1.279 . S
C661 C664 1.358 . S
C661 H667 0.930 . S
C662 C660 1.353 . S
C662 C665 1.348 . S
C662 H700 0.929 . S
N663 Li618 1.990 . S
N663 C660 1.314 . S
N663 C661 1.279 . S
C664 C661 1.358 . S
C664 C665 1.356 . S
C664 H701 0.930 . S
C665 C662 1.348 . S
C665 C664 1.356 . S
H666 C660 0.930 . S
H667 C661 0.930 . S
C668 N669 1.314 . S
C668 C670 1.353 . S
C668 H674 0.930 . S
N669 Li619 1.990 . S
N669 C668 1.314 . S
N669 C672 1.279 . S
C670 C668 1.353 . S
C670 C673 1.348 . S
C670 H702 0.929 . S
C671 C672 1.358 . S
C671 C673 1.356 . S
C671 H703 0.930 . S
C672 N669 1.279 . S
C672 C671 1.358 . S
C672 H675 0.930 . S
C673 C670 1.348 . S
C673 C671 1.356 . S
H674 C668 0.930 . S
H675 C672 0.930 . S
O676 Li616 1.956 . S
O676 Li617 1.970 . S
O676 Li618 1.961 . S
O676 C620 1.325 . S
O677 Li616 1.970 . S
O677 Li617 1.956 . S
O677 Li619 1.961 . S
O677 C626 1.325 . S
O678 Li616 1.961 . S
O678 Li618 1.956 . S
O678 Li619 1.970 . S
O678 C648 1.325 . S
O679 Li617 1.961 . S
O679 Li618 1.970 . S
O679 Li619 1.956 . S
O679 C654 1.325 . S
H680 C622 0.929 . S
H681 C623 0.930 . S
H682 C624 0.930 . S
H683 C625 0.930 . S
H684 C627 0.930 . S
H685 C629 0.929 . S
H686 C630 0.930 . S
H687 C631 0.930 . S
H688 C634 0.930 . S
H689 C637 0.929 . S
H690 C642 0.929 . S
H691 C643 0.930 . S
H692 C650 0.929 . S
H693 C651 0.930 . S
H694 C652 0.930 . S
H695 C653 0.930 . S
H696 C655 0.929 . S
H697 C656 0.930 . S
H698 C657 0.930 . S
H699 C658 0.930 . S
H700 C662 0.929 . S
H701 C664 0.930 . S
H702 C670 0.929 . S
H703 C671 0.930 . S
Li704 N721 1.990 . S
Li704 O764 1.956 . S
Li704 O765 1.970 . S
Li704 O766 1.961 . S
Li705 N729 1.990 . S
Li705 O764 1.970 . S
Li705 O765 1.956 . S
Li705 O767 1.961 . S
Li706 N751 1.990 . S
Li706 O764 1.961 . S
Li706 O766 1.956 . S
Li706 O767 1.970 . S
Li707 N757 1.990 . S
Li707 O765 1.961 . S
Li707 O766 1.970 . S
Li707 O767 1.956 . S
C708 C710 1.348 . S
C708 C711 1.356 . S
C708 O764 1.325 . S
N709 C712 1.314 . S
N709 C713 1.279 . S
C710 C708 1.348 . S
C710 C712 1.353 . S
C710 H768 0.929 . S
C711 C708 1.356 . S
C711 C713 1.358 . S
C711 H769 0.930 . S
C712 N709 1.314 . S
C712 C710 1.353 . S
C712 H770 0.930 . S
C713 N709 1.279 . S
C713 C711 1.358 . S
C713 H771 0.930 . S
C714 C717 1.348 . S
C714 C718 1.356 . S
C714 O765 1.325 . S
C715 N716 1.279 . S
C715 C718 1.358 . S
C715 H772 0.930 . S
N716 C715 1.279 . S
N716 C719 1.314 . S
C717 C714 1.348 . S
C717 C719 1.353 . S
C717 H773 0.929 . S
C718 C714 1.356 . S
C718 C715 1.358 . S
C718 H774 0.930 . S
C719 N716 1.314 . S
C719 C717 1.353 . S
C719 H775 0.930 . S
C720 N721 1.314 . S
C720 C725 1.353 . S
C720 H726 0.930 . S
N721 Li704 1.990 . S
N721 C720 1.314 . S
N721 C723 1.279 . S
C722 C723 1.358 . S
C722 C724 1.356 . S
C722 H776 0.930 . S
C723 N721 1.279 . S
C723 C722 1.358 . S
C723 H727 0.930 . S
C724 C722 1.356 . S
C724 C725 1.348 . S
C725 C720 1.353 . S
C725 C724 1.348 . S
C725 H777 0.929 . S
H726 C720 0.930 . S
H727 C723 0.930 . S
C728 N729 1.314 . S
C728 C730 1.353 . S
C728 H734 0.930 . S
N729 Li705 1.990 . S
N729 C728 1.314 . S
N729 C732 1.279 . S
C730 C728 1.353 . S
C730 C733 1.348 . S
C730 H778 0.929 . S
C731 C732 1.358 . S
C731 C733 1.356 . S
C731 H779 0.930 . S
C732 N729 1.279 . S
C732 C731 1.358 . S
C732 H735 0.930 . S
C733 C730 1.348 . S
C733 C731 1.356 . S
H734 C728 0.930 . S
H735 C732 0.930 . S
C736 C738 1.348 . S
C736 C739 1.356 . S
C736 O766 1.325 . S
N737 C740 1.314 . S
N737 C741 1.279 . S
C738 C736 1.348 . S
C738 C740 1.353 . S
C738 H780 0.929 . S
C739 C736 1.356 . S
C739 C741 1.358 . S
C739 H781 0.930 . S
C740 N737 1.314 . S
C740 C738 1.353 . S
C740 H782 0.930 . S
C741 N737 1.279 . S
C741 C739 1.358 . S
C741 H783 0.930 . S
C742 C743 1.348 . S
C742 C744 1.356 . S
C742 O767 1.325 . S
C743 C742 1.348 . S
C743 C745 1.353 . S
C743 H784 0.929 . S
C744 C742 1.356 . S
C744 C746 1.358 . S
C744 H785 0.930 . S
C745 C743 1.353 . S
C745 N747 1.314 . S
C745 H786 0.930 . S
C746 C744 1.358 . S
C746 N747 1.279 . S
C746 H787 0.930 . S
N747 C745 1.314 . S
N747 C746 1.279 . S
C748 C750 1.353 . S
C748 N751 1.314 . S
C748 H754 0.930 . S
C749 N751 1.279 . S
C749 C752 1.358 . S
C749 H755 0.930 . S
C750 C748 1.353 . S
C750 C753 1.348 . S
C750 H788 0.929 . S
N751 Li706 1.990 . S
N751 C748 1.314 . S
N751 C749 1.279 . S
C752 C749 1.358 . S
C752 C753 1.356 . S
C752 H789 0.930 . S
C753 C750 1.348 . S
C753 C752 1.356 . S
H754 C748 0.930 . S
H755 C749 0.930 . S
C756 N757 1.314 . S
C756 C758 1.353 . S
C756 H762 0.930 . S
N757 Li707 1.990 . S
N757 C756 1.314 . S
N757 C760 1.279 . S
C758 C756 1.353 . S
C758 C761 1.348 . S
C758 H790 0.929 . S
C759 C760 1.358 . S
C759 C761 1.356 . S
C759 H791 0.930 . S
C760 N757 1.279 . S
C760 C759 1.358 . S
C760 H763 0.930 . S
C761 C758 1.348 . S
C761 C759 1.356 . S
H762 C756 0.930 . S
H763 C760 0.930 . S
O764 Li704 1.956 . S
O764 Li705 1.970 . S
O764 Li706 1.961 . S
O764 C708 1.325 . S
O765 Li704 1.970 . S
O765 Li705 1.956 . S
O765 Li707 1.961 . S
O765 C714 1.325 . S
O766 Li704 1.961 . S
O766 Li706 1.956 . S
O766 Li707 1.970 . S
O766 C736 1.325 . S
O767 Li705 1.961 . S
O767 Li706 1.970 . S
O767 Li707 1.956 . S
O767 C742 1.325 . S
H768 C710 0.929 . S
H769 C711 0.930 . S
H770 C712 0.930 . S
H771 C713 0.930 . S
H772 C715 0.930 . S
H773 C717 0.929 . S
H774 C718 0.930 . S
H775 C719 0.930 . S
H776 C722 0.930 . S
H777 C725 0.929 . S
H778 C730 0.929 . S
H779 C731 0.930 . S
H780 C738 0.929 . S
H781 C739 0.930 . S
H782 C740 0.930 . S
H783 C741 0.930 . S
H784 C743 0.929 . S
H785 C744 0.930 . S
H786 C745 0.930 . S
H787 C746 0.930 . S
H788 C750 0.929 . S
H789 C752 0.930 . S
H790 C758 0.929 . S
H791 C759 0.930 . S
Li792 N809 1.990 . S
Li792 O852 1.956 . S
Li792 O853 1.970 . S
Li792 O854 1.961 . S
Li793 N817 1.990 . S
Li793 O852 1.970 . S
Li793 O853 1.956 . S
Li793 O855 1.961 . S
Li794 N839 2.002 . S
Li794 O852 1.961 . S
Li794 O854 1.956 . S
Li794 O855 1.970 . S
Li795 N845 1.990 . S
Li795 O853 1.961 . S
Li795 O854 1.970 . S
Li795 O855 1.956 . S
C796 C798 1.348 . S
C796 C799 1.356 . S
C796 O852 1.325 . S
N797 C800 1.314 . S
N797 C801 1.279 . S
C798 C796 1.348 . S
C798 C800 1.353 . S
C798 H856 0.929 . S
C799 C796 1.356 . S
C799 C801 1.358 . S
C799 H857 0.930 . S
C800 N797 1.314 . S
C800 C798 1.353 . S
C800 H858 0.930 . S
C801 N797 1.279 . S
C801 C799 1.358 . S
C801 H859 0.930 . S
C802 C805 1.348 . S
C802 C806 1.356 . S
C802 O853 1.325 . S
C803 N804 1.279 . S
C803 C806 1.358 . S
C803 H860 0.930 . S
N804 C803 1.279 . S
N804 C807 1.314 . S
C805 C802 1.348 . S
C805 C807 1.353 . S
C805 H861 0.929 . S
C806 C802 1.356 . S
C806 C803 1.358 . S
C806 H862 0.930 . S
C807 N804 1.314 . S
C807 C805 1.353 . S
C807 H863 0.930 . S
C808 N809 1.314 . S
C808 C813 1.353 . S
C808 H814 0.930 . S
N809 Li792 1.990 . S
N809 C808 1.314 . S
N809 C811 1.279 . S
C810 C811 1.358 . S
C810 C812 1.356 . S
C810 H864 0.930 . S
C811 N809 1.279 . S
C811 C810 1.358 . S
C811 H815 0.930 . S
C812 C810 1.356 . S
C812 C813 1.348 . S
C813 C808 1.353 . S
C813 C812 1.348 . S
C813 H865 0.929 . S
H814 C808 0.930 . S
H815 C811 0.930 . S
C816 N817 1.314 . S
C816 C818 1.353 . S
C816 H822 0.930 . S
N817 Li793 1.990 . S
N817 C816 1.314 . S
N817 C820 1.279 . S
C818 C816 1.353 . S
C818 C821 1.348 . S
C818 H866 0.929 . S
C819 C820 1.358 . S
C819 C821 1.356 . S
C819 H867 0.930 . S
C820 N817 1.279 . S
C820 C819 1.358 . S
C820 H823 0.930 . S
C821 C818 1.348 . S
C821 C819 1.356 . S
H822 C816 0.930 . S
H823 C820 0.930 . S
C824 C826 1.348 . S
C824 C827 1.356 . S
C824 O854 1.325 . S
N825 C828 1.314 . S
N825 C829 1.279 . S
C826 C824 1.348 . S
C826 C828 1.353 1_554 S
C826 H868 0.929 . S
C827 C824 1.356 . S
C827 C829 1.358 1_554 S
C827 H869 0.930 . S
C828 N825 1.314 . S
C828 C826 1.353 1_556 S
C828 H870 0.930 . S
C829 N825 1.279 . S
C829 C827 1.358 1_556 S
C829 H871 0.930 . S
C830 C831 1.348 . S
C830 C832 1.356 . S
C830 O855 1.325 . S
C831 C830 1.348 . S
C831 C833 1.353 . S
C831 H872 0.929 . S
C832 C830 1.356 . S
C832 C834 1.358 . S
C832 H873 0.930 . S
C833 C831 1.353 . S
C833 N835 1.314 . S
C833 H874 0.930 . S
C834 C832 1.358 . S
C834 N835 1.279 . S
C834 H875 0.930 . S
N835 C833 1.314 . S
N835 C834 1.279 . S
C836 C838 1.353 . S
C836 N839 1.312 1_556 S
C836 H842 0.930 1_556 S
C837 N839 1.268 1_556 S
C837 C840 1.358 . S
C837 H843 0.930 . S
C838 C836 1.353 . S
C838 C841 1.348 . S
C838 H876 0.929 . S
N839 Li794 2.002 . S
N839 C836 1.312 1_554 S
N839 C837 1.268 1_554 S
C840 C837 1.358 . S
C840 C841 1.356 . S
C840 H877 0.930 . S
C841 C838 1.348 . S
C841 C840 1.356 . S
H842 C836 0.930 1_554 S
H843 C837 0.930 . S
C844 N845 1.314 . S
C844 C846 1.353 . S
C844 H850 0.930 . S
N845 Li795 1.990 . S
N845 C844 1.314 . S
N845 C848 1.279 . S
C846 C844 1.353 . S
C846 C849 1.348 . S
C846 H878 0.929 . S
C847 C848 1.358 . S
C847 C849 1.356 . S
C847 H879 0.930 . S
C848 N845 1.279 . S
C848 C847 1.358 . S
C848 H851 0.930 . S
C849 C846 1.348 . S
C849 C847 1.356 . S
H850 C844 0.930 . S
H851 C848 0.930 . S
O852 Li792 1.956 . S
O852 Li793 1.970 . S
O852 Li794 1.961 . S
O852 C796 1.325 . S
O853 Li792 1.970 . S
O853 Li793 1.956 . S
O853 Li795 1.961 . S
O853 C802 1.325 . S
O854 Li792 1.961 . S
O854 Li794 1.956 . S
O854 Li795 1.970 . S
O854 C824 1.325 . S
O855 Li793 1.961 . S
O855 Li794 1.970 . S
O855 Li795 1.956 . S
O855 C830 1.325 . S
H856 C798 0.929 . S
H857 C799 0.930 . S
H858 C800 0.930 . S
H859 C801 0.930 . S
H860 C803 0.930 . S
H861 C805 0.929 . S
H862 C806 0.930 . S
H863 C807 0.930 . S
H864 C810 0.930 . S
H865 C813 0.929 . S
H866 C818 0.929 . S
H867 C819 0.930 . S
H868 C826 0.929 . S
H869 C827 0.930 . S
H870 C828 0.930 . S
H871 C829 0.930 . S
H872 C831 0.929 . S
H873 C832 0.930 . S
H874 C833 0.930 . S
H875 C834 0.930 . S
H876 C838 0.929 . S
H877 C840 0.930 . S
H878 C846 0.929 . S
H879 C847 0.930 . S
Li880 N897 1.990 . S
Li880 O940 1.956 . S
Li880 O941 1.970 . S
Li880 O942 1.961 . S
Li881 N905 1.990 . S
Li881 O940 1.970 . S
Li881 O941 1.956 . S
Li881 O943 1.961 1_554 S
Li882 N927 1.990 . S
Li882 O940 1.961 . S
Li882 O942 1.956 . S
Li882 O943 1.970 1_554 S
Li883 N933 1.990 . S
Li883 O941 1.961 1_556 S
Li883 O942 1.970 1_556 S
Li883 O943 1.956 . S
C884 C886 1.348 . S
C884 C887 1.356 . S
C884 O940 1.325 . S
N885 C888 1.314 . S
N885 C889 1.279 . S
C886 C884 1.348 . S
C886 C888 1.353 . S
C886 H944 0.929 . S
C887 C884 1.356 . S
C887 C889 1.358 . S
C887 H945 0.930 . S
C888 N885 1.314 . S
C888 C886 1.353 . S
C888 H946 0.930 . S
C889 N885 1.279 . S
C889 C887 1.358 . S
C889 H947 0.930 . S
C890 C893 1.348 . S
C890 C894 1.356 1_554 S
C890 O941 1.325 . S
C891 N892 1.279 1_556 S
C891 C894 1.358 . S
C891 H948 0.930 . S
N892 C891 1.279 1_554 S
N892 C895 1.314 . S
C893 C890 1.348 . S
C893 C895 1.353 . S
C893 H949 0.929 . S
C894 C890 1.356 1_556 S
C894 C891 1.358 . S
C894 H950 0.930 . S
C895 N892 1.314 . S
C895 C893 1.353 . S
C895 H951 0.930 . S
C896 N897 1.314 . S
C896 C901 1.353 . S
C896 H902 0.930 . S
N897 Li880 1.990 . S
N897 C896 1.314 . S
N897 C899 1.279 . S
C898 C899 1.358 . S
C898 C900 1.356 . S
C898 H952 0.930 . S
C899 N897 1.279 . S
C899 C898 1.358 . S
C899 H903 0.930 . S
C900 C898 1.356 . S
C900 C901 1.348 . S
C901 C896 1.353 . S
C901 C900 1.348 . S
C901 H953 0.929 . S
H902 C896 0.930 . S
H903 C899 0.930 . S
C904 N905 1.314 1_556 S
C904 C906 1.353 . S
C904 H910 0.930 . S
N905 Li881 1.990 . S
N905 C904 1.314 1_554 S
N905 C908 1.279 . S
C906 C904 1.353 . S
C906 C909 1.348 . S
C906 H954 0.929 . S
C907 C908 1.358 . S
C907 C909 1.356 1_554 S
C907 H955 0.930 . S
C908 N905 1.279 . S
C908 C907 1.358 . S
C908 H911 0.930 . S
C909 C906 1.348 . S
C909 C907 1.356 1_556 S
H910 C904 0.930 . S
H911 C908 0.930 . S
C912 C914 1.348 1_554 S
C912 C915 1.356 . S
C912 O942 1.325 . S
N913 C916 1.314 . S
N913 C917 1.279 . S
C914 C912 1.348 1_556 S
C914 C916 1.353 1_556 S
C914 H956 0.929 . S
C915 C912 1.356 . S
C915 C917 1.358 . S
C915 H957 0.930 . S
C916 N913 1.314 . S
C916 C914 1.353 1_554 S
C916 H958 0.930 1_554 S
C917 N913 1.279 . S
C917 C915 1.358 . S
C917 H959 0.930 . S
C918 C919 1.348 . S
C918 C920 1.356 . S
C918 O943 1.325 . S
C919 C918 1.348 . S
C919 C921 1.353 . S
C919 H960 0.929 . S
C920 C918 1.356 . S
C920 C922 1.358 . S
C920 H961 0.930 . S
C921 C919 1.353 . S
C921 N923 1.314 . S
C921 H962 0.930 . S
C922 C920 1.358 . S
C922 N923 1.279 . S
C922 H963 0.930 . S
N923 C921 1.314 . S
N923 C922 1.279 . S
C924 C926 1.353 . S
C924 N927 1.314 . S
C924 H930 0.930 . S
C925 N927 1.279 . S
C925 C928 1.358 1_554 S
C925 H931 0.930 . S
C926 C924 1.353 . S
C926 C929 1.348 1_554 S
C926 H964 0.929 . S
N927 Li882 1.990 . S
N927 C924 1.314 . S
N927 C925 1.279 . S
C928 C925 1.358 1_556 S
C928 C929 1.356 . S
C928 H965 0.930 . S
C929 C926 1.348 1_556 S
C929 C928 1.356 . S
H930 C924 0.930 . S
H931 C925 0.930 . S
C932 N933 1.314 . S
C932 C934 1.353 . S
C932 H938 0.930 . S
N933 Li883 1.990 . S
N933 C932 1.314 . S
N933 C936 1.279 . S
C934 C932 1.353 . S
C934 C937 1.348 . S
C934 H966 0.929 . S
C935 C936 1.358 . S
C935 C937 1.356 . S
C935 H967 0.930 . S
C936 N933 1.279 . S
C936 C935 1.358 . S
C936 H939 0.930 . S
C937 C934 1.348 . S
C937 C935 1.356 . S
H938 C932 0.930 . S
H939 C936 0.930 . S
O940 Li880 1.956 . S
O940 Li881 1.970 . S
O940 Li882 1.961 . S
O940 C884 1.325 . S
O941 Li880 1.970 . S
O941 Li881 1.956 . S
O941 Li883 1.961 1_554 S
O941 C890 1.325 . S
O942 Li880 1.961 . S
O942 Li882 1.956 . S
O942 Li883 1.970 1_554 S
O942 C912 1.325 . S
O943 Li881 1.961 1_556 S
O943 Li882 1.970 1_556 S
O943 Li883 1.956 . S
O943 C918 1.325 . S
H944 C886 0.929 . S
H945 C887 0.930 . S
H946 C888 0.930 . S
H947 C889 0.930 . S
H948 C891 0.930 . S
H949 C893 0.929 . S
H950 C894 0.930 . S
H951 C895 0.930 . S
H952 C898 0.930 . S
H953 C901 0.929 . S
H954 C906 0.929 . S
H955 C907 0.930 . S
H956 C914 0.929 . S
H957 C915 0.930 . S
H958 C916 0.930 1_556 S
H959 C917 0.930 . S
H960 C919 0.929 . S
H961 C920 0.930 . S
H962 C921 0.930 . S
H963 C922 0.930 . S
H964 C926 0.929 . S
H965 C928 0.930 . S
H966 C934 0.929 . S
H967 C935 0.930 . S
Li968 N985 1.990 . S
Li968 O1028 1.956 . S
Li968 O1029 1.970 . S
Li968 O1030 1.961 . S
Li969 N993 1.990 . S
Li969 O1028 1.970 . S
Li969 O1029 1.956 . S
Li969 O1031 1.961 . S
Li970 N1015 1.990 . S
Li970 O1028 1.961 . S
Li970 O1030 1.956 . S
Li970 O1031 1.970 . S
Li971 N1021 1.990 . S
Li971 O1029 1.961 . S
Li971 O1030 1.970 . S
Li971 O1031 1.956 . S
C972 C974 1.348 . S
C972 C975 1.356 . S
C972 O1028 1.325 . S
N973 C976 1.314 . S
N973 C977 1.279 . S
C974 C972 1.348 . S
C974 C976 1.353 . S
C974 H1032 0.929 . S
C975 C972 1.356 . S
C975 C977 1.358 . S
C975 H1033 0.930 . S
C976 N973 1.314 . S
C976 C974 1.353 . S
C976 H1034 0.930 . S
C977 N973 1.279 . S
C977 C975 1.358 . S
C977 H1035 0.930 . S
C978 C981 1.348 . S
C978 C982 1.356 . S
C978 O1029 1.325 . S
C979 N980 1.279 . S
C979 C982 1.358 . S
C979 H1036 0.930 . S
N980 C979 1.279 . S
N980 C983 1.314 . S
C981 C978 1.348 . S
C981 C983 1.353 . S
C981 H1037 0.929 . S
C982 C978 1.356 . S
C982 C979 1.358 . S
C982 H1038 0.930 . S
C983 N980 1.314 . S
C983 C981 1.353 . S
C983 H1039 0.930 . S
C984 N985 1.314 . S
C984 C989 1.353 . S
C984 H990 0.930 . S
N985 Li968 1.990 . S
N985 C984 1.314 . S
N985 C987 1.279 . S
C986 C987 1.358 . S
C986 C988 1.356 . S
C986 H1040 0.930 . S
C987 N985 1.279 . S
C987 C986 1.358 . S
C987 H991 0.930 . S
C988 C986 1.356 . S
C988 C989 1.348 . S
C989 C984 1.353 . S
C989 C988 1.348 . S
C989 H1041 0.929 . S
H990 C984 0.930 . S
H991 C987 0.930 . S
C992 N993 1.314 . S
C992 C994 1.353 . S
C992 H998 0.930 . S
N993 Li969 1.990 . S
N993 C992 1.314 . S
N993 C996 1.279 . S
C994 C992 1.353 . S
C994 C997 1.348 . S
C994 H1042 0.929 . S
C995 C996 1.358 . S
C995 C997 1.356 . S
C995 H1043 0.930 . S
C996 N993 1.279 . S
C996 C995 1.358 . S
C996 H999 0.930 . S
C997 C994 1.348 . S
C997 C995 1.356 . S
H998 C992 0.930 . S
H999 C996 0.930 . S
C1000 C1002 1.348 . S
C1000 C1003 1.356 . S
C1000 O1030 1.325 . S
N1001 C1004 1.314 . S
N1001 C1005 1.279 . S
C1002 C1000 1.348 . S
C1002 C1004 1.353 . S
C1002 H1044 0.929 . S
C1003 C1000 1.356 . S
C1003 C1005 1.358 . S
C1003 H1045 0.930 . S
C1004 N1001 1.314 . S
C1004 C1002 1.353 . S
C1004 H1046 0.930 . S
C1005 N1001 1.279 . S
C1005 C1003 1.358 . S
C1005 H1047 0.930 . S
C1006 C1007 1.348 . S
C1006 C1008 1.356 . S
C1006 O1031 1.325 . S
C1007 C1006 1.348 . S
C1007 C1009 1.353 . S
C1007 H1048 0.929 . S
C1008 C1006 1.356 . S
C1008 C1010 1.358 . S
C1008 H1049 0.930 . S
C1009 C1007 1.353 . S
C1009 N1011 1.314 . S
C1009 H1050 0.930 . S
C1010 C1008 1.358 . S
C1010 N1011 1.279 . S
C1010 H1051 0.930 . S
N1011 C1009 1.314 . S
N1011 C1010 1.279 . S
C1012 C1014 1.353 . S
C1012 N1015 1.314 . S
C1012 H1018 0.930 . S
C1013 N1015 1.279 . S
C1013 C1016 1.358 . S
C1013 H1019 0.930 . S
C1014 C1012 1.353 . S
C1014 C1017 1.348 . S
C1014 H1052 0.929 . S
N1015 Li970 1.990 . S
N1015 C1012 1.314 . S
N1015 C1013 1.279 . S
C1016 C1013 1.358 . S
C1016 C1017 1.356 . S
C1016 H1053 0.930 . S
C1017 C1014 1.348 . S
C1017 C1016 1.356 . S
H1018 C1012 0.930 . S
H1019 C1013 0.930 . S
C1020 N1021 1.314 . S
C1020 C1022 1.353 . S
C1020 H1026 0.930 . S
N1021 Li971 1.990 . S
N1021 C1020 1.314 . S
N1021 C1024 1.279 . S
C1022 C1020 1.353 . S
C1022 C1025 1.348 . S
C1022 H1054 0.929 . S
C1023 C1024 1.358 . S
C1023 C1025 1.356 . S
C1023 H1055 0.930 . S
C1024 N1021 1.279 . S
C1024 C1023 1.358 . S
C1024 H1027 0.930 . S
C1025 C1022 1.348 . S
C1025 C1023 1.356 . S
H1026 C1020 0.930 . S
H1027 C1024 0.930 . S
O1028 Li968 1.956 . S
O1028 Li969 1.970 . S
O1028 Li970 1.961 . S
O1028 C972 1.325 . S
O1029 Li968 1.970 . S
O1029 Li969 1.956 . S
O1029 Li971 1.961 . S
O1029 C978 1.325 . S
O1030 Li968 1.961 . S
O1030 Li970 1.956 . S
O1030 Li971 1.970 . S
O1030 C1000 1.325 . S
O1031 Li969 1.961 . S
O1031 Li970 1.970 . S
O1031 Li971 1.956 . S
O1031 C1006 1.325 . S
H1032 C974 0.929 . S
H1033 C975 0.930 . S
H1034 C976 0.930 . S
H1035 C977 0.930 . S
H1036 C979 0.930 . S
H1037 C981 0.929 . S
H1038 C982 0.930 . S
H1039 C983 0.930 . S
H1040 C986 0.930 . S
H1041 C989 0.929 . S
H1042 C994 0.929 . S
H1043 C995 0.930 . S
H1044 C1002 0.929 . S
H1045 C1003 0.930 . S
H1046 C1004 0.930 . S
H1047 C1005 0.930 . S
H1048 C1007 0.929 . S
H1049 C1008 0.930 . S
H1050 C1009 0.930 . S
H1051 C1010 0.930 . S
H1052 C1014 0.929 . S
H1053 C1016 0.930 . S
H1054 C1022 0.929 . S
H1055 C1023 0.930 . S
Li1056 N1073 1.990 . S
Li1056 O1116 1.956 . S
Li1056 O1117 1.970 . S
Li1056 O1118 1.961 . S
Li1057 N1081 1.990 . S
Li1057 O1116 1.970 . S
Li1057 O1117 1.956 . S
Li1057 O1119 1.961 . S
Li1058 N1103 1.990 . S
Li1058 O1116 1.961 . S
Li1058 O1118 1.956 . S
Li1058 O1119 1.970 . S
Li1059 N1109 1.990 . S
Li1059 O1117 1.961 . S
Li1059 O1118 1.970 . S
Li1059 O1119 1.956 . S
C1060 C1062 1.348 . S
C1060 C1063 1.356 . S
C1060 O1116 1.325 . S
N1061 C1064 1.314 . S
N1061 C1065 1.279 . S
C1062 C1060 1.348 . S
C1062 C1064 1.353 . S
C1062 H1120 0.929 . S
C1063 C1060 1.356 . S
C1063 C1065 1.358 . S
C1063 H1121 0.930 . S
C1064 N1061 1.314 . S
C1064 C1062 1.353 . S
C1064 H1122 0.930 . S
C1065 N1061 1.279 . S
C1065 C1063 1.358 . S
C1065 H1123 0.930 . S
C1066 C1069 1.348 . S
C1066 C1070 1.356 . S
C1066 O1117 1.325 . S
C1067 N1068 1.279 . S
C1067 C1070 1.358 . S
C1067 H1124 0.930 . S
N1068 C1067 1.279 . S
N1068 C1071 1.314 . S
C1069 C1066 1.348 . S
C1069 C1071 1.353 . S
C1069 H1125 0.929 . S
C1070 C1066 1.356 . S
C1070 C1067 1.358 . S
C1070 H1126 0.930 . S
C1071 N1068 1.314 . S
C1071 C1069 1.353 . S
C1071 H1127 0.930 . S
C1072 N1073 1.314 . S
C1072 C1077 1.353 . S
C1072 H1078 0.930 . S
N1073 Li1056 1.990 . S
N1073 C1072 1.314 . S
N1073 C1075 1.279 . S
C1074 C1075 1.358 . S
C1074 C1076 1.356 . S
C1074 H1128 0.930 . S
C1075 N1073 1.279 . S
C1075 C1074 1.358 . S
C1075 H1079 0.930 . S
C1076 C1074 1.356 . S
C1076 C1077 1.348 . S
C1077 C1072 1.353 . S
C1077 C1076 1.348 . S
C1077 H1129 0.929 . S
H1078 C1072 0.930 . S
H1079 C1075 0.930 . S
C1080 N1081 1.314 . S
C1080 C1082 1.353 . S
C1080 H1086 0.930 . S
N1081 Li1057 1.990 . S
N1081 C1080 1.314 . S
N1081 C1084 1.279 . S
C1082 C1080 1.353 . S
C1082 C1085 1.348 . S
C1082 H1130 0.929 . S
C1083 C1084 1.358 . S
C1083 C1085 1.356 . S
C1083 H1131 0.930 . S
C1084 N1081 1.279 . S
C1084 C1083 1.358 . S
C1084 H1087 0.930 . S
C1085 C1082 1.348 . S
C1085 C1083 1.356 . S
H1086 C1080 0.930 . S
H1087 C1084 0.930 . S
C1088 C1090 1.348 . S
C1088 C1091 1.356 . S
C1088 O1118 1.325 . S
N1089 C1092 1.314 . S
N1089 C1093 1.279 . S
C1090 C1088 1.348 . S
C1090 C1092 1.353 . S
C1090 H1132 0.929 . S
C1091 C1088 1.356 . S
C1091 C1093 1.358 . S
C1091 H1133 0.930 . S
C1092 N1089 1.314 . S
C1092 C1090 1.353 . S
C1092 H1134 0.930 . S
C1093 N1089 1.279 . S
C1093 C1091 1.358 . S
C1093 H1135 0.930 . S
C1094 C1095 1.348 . S
C1094 C1096 1.356 . S
C1094 O1119 1.325 . S
C1095 C1094 1.348 . S
C1095 C1097 1.353 . S
C1095 H1136 0.929 . S
C1096 C1094 1.356 . S
C1096 C1098 1.358 . S
C1096 H1137 0.930 . S
C1097 C1095 1.353 . S
C1097 N1099 1.314 . S
C1097 H1138 0.930 . S
C1098 C1096 1.358 . S
C1098 N1099 1.279 . S
C1098 H1139 0.930 . S
N1099 C1097 1.314 . S
N1099 C1098 1.279 . S
C1100 C1102 1.353 . S
C1100 N1103 1.314 . S
C1100 H1106 0.930 . S
C1101 N1103 1.279 . S
C1101 C1104 1.358 . S
C1101 H1107 0.930 . S
C1102 C1100 1.353 . S
C1102 C1105 1.348 . S
C1102 H1140 0.929 . S
N1103 Li1058 1.990 . S
N1103 C1100 1.314 . S
N1103 C1101 1.279 . S
C1104 C1101 1.358 . S
C1104 C1105 1.356 . S
C1104 H1141 0.930 . S
C1105 C1102 1.348 . S
C1105 C1104 1.356 . S
H1106 C1100 0.930 . S
H1107 C1101 0.930 . S
C1108 N1109 1.314 . S
C1108 C1110 1.353 . S
C1108 H1114 0.930 . S
N1109 Li1059 1.990 . S
N1109 C1108 1.314 . S
N1109 C1112 1.279 . S
C1110 C1108 1.353 . S
C1110 C1113 1.348 . S
C1110 H1142 0.929 . S
C1111 C1112 1.358 . S
C1111 C1113 1.356 . S
C1111 H1143 0.930 1_545 S
C1112 N1109 1.279 . S
C1112 C1111 1.358 . S
C1112 H1115 0.930 . S
C1113 C1110 1.348 . S
C1113 C1111 1.356 . S
H1114 C1108 0.930 . S
H1115 C1112 0.930 . S
O1116 Li1056 1.956 . S
O1116 Li1057 1.970 . S
O1116 Li1058 1.961 . S
O1116 C1060 1.325 . S
O1117 Li1056 1.970 . S
O1117 Li1057 1.956 . S
O1117 Li1059 1.961 . S
O1117 C1066 1.325 . S
O1118 Li1056 1.961 . S
O1118 Li1058 1.956 . S
O1118 Li1059 1.970 . S
O1118 C1088 1.325 . S
O1119 Li1057 1.961 . S
O1119 Li1058 1.970 . S
O1119 Li1059 1.956 . S
O1119 C1094 1.325 . S
H1120 C1062 0.929 . S
H1121 C1063 0.930 . S
H1122 C1064 0.930 . S
H1123 C1065 0.930 . S
H1124 C1067 0.930 . S
H1125 C1069 0.929 . S
H1126 C1070 0.930 . S
H1127 C1071 0.930 . S
H1128 C1074 0.930 . S
H1129 C1077 0.929 . S
H1130 C1082 0.929 . S
H1131 C1083 0.930 . S
H1132 C1090 0.929 . S
H1133 C1091 0.930 . S
H1134 C1092 0.930 . S
H1135 C1093 0.930 . S
H1136 C1095 0.929 . S
H1137 C1096 0.930 . S
H1138 C1097 0.930 . S
H1139 C1098 0.930 . S
H1140 C1102 0.929 . S
H1141 C1104 0.930 . S
H1142 C1110 0.929 . S
H1143 C1111 0.930 1_565 S
Li1144 N1161 1.994 . S
Li1144 O1204 1.998 . S
Li1144 O1205 1.926 1_455 S
Li1144 O1206 1.958 1_455 S
Li1145 N1169 1.993 . S
Li1145 O1204 1.936 1_655 S
Li1145 O1205 1.988 . S
Li1145 O1207 1.958 1_655 S
Li1146 N1191 1.990 . S
Li1146 O1204 1.961 . S
Li1146 O1206 1.929 1_455 S
Li1146 O1207 2.005 . S
Li1147 N1197 1.990 . S
Li1147 O1205 1.961 . S
Li1147 O1206 1.996 . S
Li1147 O1207 1.919 1_655 S
C1148 C1150 1.348 . S
C1148 C1151 1.356 . S
C1148 O1204 1.325 . S
N1149 C1152 1.314 . S
N1149 C1153 1.279 . S
C1150 C1148 1.348 . S
C1150 C1152 1.353 . S
C1150 H1208 0.929 . S
C1151 C1148 1.356 . S
C1151 C1153 1.358 . S
C1151 H1209 0.930 . S
C1152 N1149 1.314 . S
C1152 C1150 1.353 . S
C1152 H1210 0.930 . S
C1153 N1149 1.279 . S
C1153 C1151 1.358 . S
C1153 H1211 0.930 . S
C1154 C1157 1.348 . S
C1154 C1158 1.356 . S
C1154 O1205 1.325 . S
C1155 N1156 1.279 . S
C1155 C1158 1.358 . S
C1155 H1212 0.930 . S
N1156 C1155 1.279 . S
N1156 C1159 1.314 . S
C1157 C1154 1.348 . S
C1157 C1159 1.353 . S
C1157 H1213 0.929 . S
C1158 C1154 1.356 . S
C1158 C1155 1.358 . S
C1158 H1214 0.930 . S
C1159 N1156 1.314 . S
C1159 C1157 1.353 . S
C1159 H1215 0.930 . S
C1160 N1161 1.314 1_655 S
C1160 C1165 1.353 . S
C1160 H1166 0.930 . S
N1161 Li1144 1.994 . S
N1161 C1160 1.314 1_455 S
N1161 C1163 1.279 . S
C1162 C1163 1.358 . S
C1162 C1164 1.356 . S
C1162 H1216 0.930 1_565 S
C1163 N1161 1.279 . S
C1163 C1162 1.358 . S
C1163 H1167 0.930 . S
C1164 C1162 1.356 . S
C1164 C1165 1.348 1_455 S
C1165 C1160 1.353 . S
C1165 C1164 1.348 1_655 S
C1165 H1217 0.929 . S
H1166 C1160 0.930 . S
H1167 C1163 0.930 . S
C1168 N1169 1.314 1_455 S
C1168 C1170 1.353 . S
C1168 H1174 0.930 . S
N1169 Li1145 1.993 . S
N1169 C1168 1.314 1_655 S
N1169 C1172 1.279 . S
C1170 C1168 1.353 . S
C1170 C1173 1.348 . S
C1170 H1218 0.929 . S
C1171 C1172 1.358 . S
C1171 C1173 1.356 1_655 S
C1171 H1219 0.930 . S
C1172 N1169 1.279 . S
C1172 C1171 1.358 . S
C1172 H1175 0.930 . S
C1173 C1170 1.348 . S
C1173 C1171 1.356 1_455 S
H1174 C1168 0.930 . S
H1175 C1172 0.930 . S
C1176 C1178 1.348 1_455 S
C1176 C1179 1.356 . S
C1176 O1206 1.324 1_455 S
N1177 C1180 1.314 1_455 S
N1177 C1181 1.279 . S
C1178 C1176 1.348 1_655 S
C1178 C1180 1.353 . S
C1178 H1220 0.929 . S
C1179 C1176 1.356 . S
C1179 C1181 1.358 . S
C1179 H1221 0.930 . S
C1180 N1177 1.314 1_655 S
C1180 C1178 1.353 . S
C1180 H1222 0.930 . S
C1181 N1177 1.279 . S
C1181 C1179 1.358 . S
C1181 H1223 0.930 . S
C1182 C1183 1.348 . S
C1182 C1184 1.356 1_455 S
C1182 O1207 1.324 . S
C1183 C1182 1.348 . S
C1183 C1185 1.353 . S
C1183 H1224 0.929 . S
C1184 C1182 1.356 1_655 S
C1184 C1186 1.358 . S
C1184 H1225 0.930 . S
C1185 C1183 1.353 . S
C1185 N1187 1.314 1_455 S
C1185 H1226 0.930 . S
C1186 C1184 1.358 . S
C1186 N1187 1.279 . S
C1186 H1227 0.930 . S
N1187 C1185 1.314 1_655 S
N1187 C1186 1.279 . S
C1188 C1190 1.353 . S
C1188 N1191 1.314 . S
C1188 H1194 0.930 . S
C1189 N1191 1.279 . S
C1189 C1192 1.358 . S
C1189 H1195 0.930 . S
C1190 C1188 1.353 . S
C1190 C1193 1.348 . S
C1190 H1228 0.929 . S
N1191 Li1146 1.990 . S
N1191 C1188 1.314 . S
N1191 C1189 1.279 . S
C1192 C1189 1.358 . S
C1192 C1193 1.356 . S
C1192 H1229 0.930 . S
C1193 C1190 1.348 . S
C1193 C1192 1.356 . S
H1194 C1188 0.930 . S
H1195 C1189 0.930 . S
C1196 N1197 1.314 . S
C1196 C1198 1.353 . S
C1196 H1202 0.930 . S
N1197 Li1147 1.990 . S
N1197 C1196 1.314 . S
N1197 C1200 1.279 . S
C1198 C1196 1.353 . S
C1198 C1201 1.348 . S
C1198 H1230 0.929 . S
C1199 C1200 1.358 . S
C1199 C1201 1.356 . S
C1199 H1231 0.930 . S
C1200 N1197 1.279 . S
C1200 C1199 1.358 . S
C1200 H1203 0.930 . S
C1201 C1198 1.348 . S
C1201 C1199 1.356 . S
H1202 C1196 0.930 . S
H1203 C1200 0.930 . S
O1204 Li1144 1.998 . S
O1204 Li1145 1.936 1_455 S
O1204 Li1146 1.961 . S
O1204 C1148 1.325 . S
O1205 Li1144 1.926 1_655 S
O1205 Li1145 1.988 . S
O1205 Li1147 1.961 . S
O1205 C1154 1.325 . S
O1206 Li1144 1.958 1_655 S
O1206 Li1146 1.929 1_655 S
O1206 Li1147 1.996 . S
O1206 C1176 1.324 1_655 S
O1207 Li1145 1.958 1_455 S
O1207 Li1146 2.005 . S
O1207 Li1147 1.919 1_455 S
O1207 C1182 1.324 . S
H1208 C1150 0.929 . S
H1209 C1151 0.930 . S
H1210 C1152 0.930 . S
H1211 C1153 0.930 . S
H1212 C1155 0.930 . S
H1213 C1157 0.929 . S
H1214 C1158 0.930 . S
H1215 C1159 0.930 . S
H1216 C1162 0.930 1_545 S
H1217 C1165 0.929 . S
H1218 C1170 0.929 . S
H1219 C1171 0.930 . S
H1220 C1178 0.929 . S
H1221 C1179 0.930 . S
H1222 C1180 0.930 . S
H1223 C1181 0.930 . S
H1224 C1183 0.929 . S
H1225 C1184 0.930 . S
H1226 C1185 0.930 . S
H1227 C1186 0.930 . S
H1228 C1190 0.929 . S
H1229 C1192 0.930 . S
H1230 C1198 0.929 . S
H1231 C1199 0.930 . S
Li1232 N1249 1.990 . S
Li1232 O1292 1.956 . S
Li1232 O1293 1.970 . S
Li1232 O1294 1.961 . S
Li1233 N1257 1.990 . S
Li1233 O1292 1.970 . S
Li1233 O1293 1.956 . S
Li1233 O1295 1.961 . S
Li1234 N1279 1.990 . S
Li1234 O1292 1.961 . S
Li1234 O1294 1.956 . S
Li1234 O1295 1.970 . S
Li1235 N1285 1.990 . S
Li1235 O1293 1.961 . S
Li1235 O1294 1.970 . S
Li1235 O1295 1.956 . S
C1236 C1238 1.348 . S
C1236 C1239 1.356 . S
C1236 O1292 1.325 . S
N1237 C1240 1.314 . S
N1237 C1241 1.279 . S
C1238 C1236 1.348 . S
C1238 C1240 1.353 . S
C1238 H1296 0.929 . S
C1239 C1236 1.356 . S
C1239 C1241 1.358 . S
C1239 H1297 0.930 . S
C1240 N1237 1.314 . S
C1240 C1238 1.353 . S
C1240 H1298 0.930 . S
C1241 N1237 1.279 . S
C1241 C1239 1.358 . S
C1241 H1299 0.930 . S
C1242 C1245 1.348 . S
C1242 C1246 1.356 . S
C1242 O1293 1.325 . S
C1243 N1244 1.279 . S
C1243 C1246 1.358 . S
C1243 H1300 0.930 . S
N1244 C1243 1.279 . S
N1244 C1247 1.314 . S
C1245 C1242 1.348 . S
C1245 C1247 1.353 . S
C1245 H1301 0.929 . S
C1246 C1242 1.356 . S
C1246 C1243 1.358 . S
C1246 H1302 0.930 . S
C1247 N1244 1.314 . S
C1247 C1245 1.353 . S
C1247 H1303 0.930 . S
C1248 N1249 1.314 . S
C1248 C1253 1.353 . S
C1248 H1254 0.930 . S
N1249 Li1232 1.990 . S
N1249 C1248 1.314 . S
N1249 C1251 1.279 . S
C1250 C1251 1.358 . S
C1250 C1252 1.356 . S
C1250 H1304 0.930 . S
C1251 N1249 1.279 . S
C1251 C1250 1.358 . S
C1251 H1255 0.930 . S
C1252 C1250 1.356 . S
C1252 C1253 1.348 . S
C1253 C1248 1.353 . S
C1253 C1252 1.348 . S
C1253 H1305 0.929 . S
H1254 C1248 0.930 . S
H1255 C1251 0.930 . S
C1256 N1257 1.314 . S
C1256 C1258 1.353 . S
C1256 H1262 0.930 . S
N1257 Li1233 1.990 . S
N1257 C1256 1.314 . S
N1257 C1260 1.279 . S
C1258 C1256 1.353 . S
C1258 C1261 1.348 . S
C1258 H1306 0.929 . S
C1259 C1260 1.358 . S
C1259 C1261 1.356 . S
C1259 H1307 0.930 1_565 S
C1260 N1257 1.279 . S
C1260 C1259 1.358 . S
C1260 H1263 0.930 . S
C1261 C1258 1.348 . S
C1261 C1259 1.356 . S
H1262 C1256 0.930 . S
H1263 C1260 0.930 . S
C1264 C1266 1.348 . S
C1264 C1267 1.356 . S
C1264 O1294 1.325 . S
N1265 C1268 1.314 . S
N1265 C1269 1.279 . S
C1266 C1264 1.348 . S
C1266 C1268 1.353 . S
C1266 H1308 0.929 . S
C1267 C1264 1.356 . S
C1267 C1269 1.358 . S
C1267 H1309 0.930 . S
C1268 N1265 1.314 . S
C1268 C1266 1.353 . S
C1268 H1310 0.930 . S
C1269 N1265 1.279 . S
C1269 C1267 1.358 . S
C1269 H1311 0.930 . S
C1270 C1271 1.348 . S
C1270 C1272 1.356 . S
C1270 O1295 1.325 . S
C1271 C1270 1.348 . S
C1271 C1273 1.353 . S
C1271 H1312 0.929 . S
C1272 C1270 1.356 . S
C1272 C1274 1.358 . S
C1272 H1313 0.930 . S
C1273 C1271 1.353 . S
C1273 N1275 1.314 . S
C1273 H1314 0.930 . S
C1274 C1272 1.358 . S
C1274 N1275 1.279 . S
C1274 H1315 0.930 . S
N1275 C1273 1.314 . S
N1275 C1274 1.279 . S
C1276 C1278 1.353 . S
C1276 N1279 1.314 . S
C1276 H1282 0.930 . S
C1277 N1279 1.279 . S
C1277 C1280 1.358 . S
C1277 H1283 0.930 . S
C1278 C1276 1.353 . S
C1278 C1281 1.348 . S
C1278 H1316 0.929 . S
N1279 Li1234 1.990 . S
N1279 C1276 1.314 . S
N1279 C1277 1.279 . S
C1280 C1277 1.358 . S
C1280 C1281 1.356 . S
C1280 H1317 0.930 . S
C1281 C1278 1.348 . S
C1281 C1280 1.356 . S
H1282 C1276 0.930 . S
H1283 C1277 0.930 . S
C1284 N1285 1.314 . S
C1284 C1286 1.353 . S
C1284 H1290 0.930 . S
N1285 Li1235 1.990 . S
N1285 C1284 1.314 . S
N1285 C1288 1.279 . S
C1286 C1284 1.353 . S
C1286 C1289 1.348 . S
C1286 H1318 0.929 . S
C1287 C1288 1.358 . S
C1287 C1289 1.356 . S
C1287 H1319 0.930 . S
C1288 N1285 1.279 . S
C1288 C1287 1.358 . S
C1288 H1291 0.930 . S
C1289 C1286 1.348 . S
C1289 C1287 1.356 . S
H1290 C1284 0.930 . S
H1291 C1288 0.930 . S
O1292 Li1232 1.956 . S
O1292 Li1233 1.970 . S
O1292 Li1234 1.961 . S
O1292 C1236 1.325 . S
O1293 Li1232 1.970 . S
O1293 Li1233 1.956 . S
O1293 Li1235 1.961 . S
O1293 C1242 1.325 . S
O1294 Li1232 1.961 . S
O1294 Li1234 1.956 . S
O1294 Li1235 1.970 . S
O1294 C1264 1.325 . S
O1295 Li1233 1.961 . S
O1295 Li1234 1.970 . S
O1295 Li1235 1.956 . S
O1295 C1270 1.325 . S
H1296 C1238 0.929 . S
H1297 C1239 0.930 . S
H1298 C1240 0.930 . S
H1299 C1241 0.930 . S
H1300 C1243 0.930 . S
H1301 C1245 0.929 . S
H1302 C1246 0.930 . S
H1303 C1247 0.930 . S
H1304 C1250 0.930 . S
H1305 C1253 0.929 . S
H1306 C1258 0.929 . S
H1307 C1259 0.930 1_545 S
H1308 C1266 0.929 . S
H1309 C1267 0.930 . S
H1310 C1268 0.930 . S
H1311 C1269 0.930 . S
H1312 C1271 0.929 . S
H1313 C1272 0.930 . S
H1314 C1273 0.930 . S
H1315 C1274 0.930 . S
H1316 C1278 0.929 . S
H1317 C1280 0.930 . S
H1318 C1286 0.929 . S
H1319 C1287 0.930 . S
Li1320 N1337 1.990 . S
Li1320 O1380 1.929 1_455 S
Li1320 O1381 2.005 . S
Li1320 O1382 1.961 . S
Li1321 N1345 1.990 . S
Li1321 O1380 1.996 . S
Li1321 O1381 1.919 1_655 S
Li1321 O1383 1.961 . S
Li1322 N1367 1.994 . S
Li1322 O1380 1.958 1_455 S
Li1322 O1382 1.998 . S
Li1322 O1383 1.926 1_455 S
Li1323 N1373 1.993 . S
Li1323 O1381 1.958 1_655 S
Li1323 O1382 1.936 1_655 S
Li1323 O1383 1.988 . S
C1324 C1326 1.348 1_455 S
C1324 C1327 1.356 1_556 S
C1324 O1380 1.324 1_455 S
N1325 C1328 1.314 1_455 S
N1325 C1329 1.279 . S
C1326 C1324 1.348 1_655 S
C1326 C1328 1.353 1_556 S
C1326 H1384 0.929 . S
C1327 C1324 1.356 1_554 S
C1327 C1329 1.358 . S
C1327 H1385 0.930 . S
C1328 N1325 1.314 1_655 S
C1328 C1326 1.353 1_554 S
C1328 H1386 0.930 . S
C1329 N1325 1.279 . S
C1329 C1327 1.358 . S
C1329 H1387 0.930 . S
C1330 C1333 1.348 . S
C1330 C1334 1.356 1_455 S
C1330 O1381 1.324 . S
C1331 N1332 1.279 . S
C1331 C1334 1.358 . S
C1331 H1388 0.930 . S
N1332 C1331 1.279 . S
N1332 C1335 1.314 1_655 S
C1333 C1330 1.348 . S
C1333 C1335 1.353 . S
C1333 H1389 0.929 . S
C1334 C1330 1.356 1_655 S
C1334 C1331 1.358 . S
C1334 H1390 0.930 . S
C1335 N1332 1.314 1_455 S
C1335 C1333 1.353 . S
C1335 H1391 0.930 . S
C1336 N1337 1.314 . S
C1336 C1341 1.353 . S
C1336 H1342 0.930 . S
N1337 Li1320 1.990 . S
N1337 C1336 1.314 . S
N1337 C1339 1.279 . S
C1338 C1339 1.358 . S
C1338 C1340 1.356 . S
C1338 H1392 0.930 . S
C1339 N1337 1.279 . S
C1339 C1338 1.358 . S
C1339 H1343 0.930 . S
C1340 C1338 1.356 . S
C1340 C1341 1.348 . S
C1341 C1336 1.353 . S
C1341 C1340 1.348 . S
C1341 H1393 0.929 . S
H1342 C1336 0.930 . S
H1343 C1339 0.930 . S
C1344 N1345 1.314 . S
C1344 C1346 1.353 . S
C1344 H1350 0.930 . S
N1345 Li1321 1.990 . S
N1345 C1344 1.314 . S
N1345 C1348 1.279 . S
C1346 C1344 1.353 . S
C1346 C1349 1.348 . S
C1346 H1394 0.929 . S
C1347 C1348 1.358 . S
C1347 C1349 1.356 . S
C1347 H1395 0.930 . S
C1348 N1345 1.279 . S
C1348 C1347 1.358 . S
C1348 H1351 0.930 . S
C1349 C1346 1.348 . S
C1349 C1347 1.356 . S
H1350 C1344 0.930 . S
H1351 C1348 0.930 . S
C1352 C1354 1.348 . S
C1352 C1355 1.356 . S
C1352 O1382 1.325 . S
N1353 C1356 1.314 . S
N1353 C1357 1.279 . S
C1354 C1352 1.348 . S
C1354 C1356 1.353 . S
C1354 H1396 0.929 . S
C1355 C1352 1.356 . S
C1355 C1357 1.358 . S
C1355 H1397 0.930 . S
C1356 N1353 1.314 . S
C1356 C1354 1.353 . S
C1356 H1398 0.930 . S
C1357 N1353 1.279 . S
C1357 C1355 1.358 . S
C1357 H1399 0.930 . S
C1358 C1359 1.348 . S
C1358 C1360 1.356 . S
C1358 O1383 1.325 . S
C1359 C1358 1.348 . S
C1359 C1361 1.353 . S
C1359 H1400 0.929 . S
C1360 C1358 1.356 . S
C1360 C1362 1.358 . S
C1360 H1401 0.930 . S
C1361 C1359 1.353 . S
C1361 N1363 1.314 . S
C1361 H1402 0.930 . S
C1362 C1360 1.358 . S
C1362 N1363 1.279 . S
C1362 H1403 0.930 . S
N1363 C1361 1.314 . S
N1363 C1362 1.279 . S
C1364 C1366 1.353 . S
C1364 N1367 1.314 1_654 S
C1364 H1370 0.930 . S
C1365 N1367 1.279 . S
C1365 C1368 1.354 1_556 S
C1365 H1371 0.930 . S
C1366 C1364 1.353 . S
C1366 C1369 1.348 1_655 S
C1366 H1404 0.929 . S
N1367 Li1322 1.994 . S
N1367 C1364 1.314 1_456 S
N1367 C1365 1.279 . S
C1368 C1365 1.354 1_554 S
C1368 C1369 1.361 . S
C1368 H1405 0.929 1_544 S
C1369 C1366 1.348 1_455 S
C1369 C1368 1.361 . S
H1370 C1364 0.930 . S
H1371 C1365 0.930 . S
C1372 N1373 1.314 1_455 S
C1372 C1374 1.353 . S
C1372 H1378 0.930 . S
N1373 Li1323 1.993 . S
N1373 C1372 1.314 1_655 S
N1373 C1376 1.279 . S
C1374 C1372 1.353 . S
C1374 C1377 1.348 . S
C1374 H1406 0.929 . S
C1375 C1376 1.358 . S
C1375 C1377 1.356 1_655 S
C1375 H1407 0.930 . S
C1376 N1373 1.279 . S
C1376 C1375 1.358 . S
C1376 H1379 0.930 . S
C1377 C1374 1.348 . S
C1377 C1375 1.356 1_455 S
H1378 C1372 0.930 . S
H1379 C1376 0.930 . S
O1380 Li1320 1.929 1_655 S
O1380 Li1321 1.996 . S
O1380 Li1322 1.958 1_655 S
O1380 C1324 1.324 1_655 S
O1381 Li1320 2.005 . S
O1381 Li1321 1.919 1_455 S
O1381 Li1323 1.958 1_455 S
O1381 C1330 1.324 . S
O1382 Li1320 1.961 . S
O1382 Li1322 1.998 . S
O1382 Li1323 1.936 1_455 S
O1382 C1352 1.325 . S
O1383 Li1321 1.961 . S
O1383 Li1322 1.926 1_655 S
O1383 Li1323 1.988 . S
O1383 C1358 1.325 . S
H1384 C1326 0.929 . S
H1385 C1327 0.930 . S
H1386 C1328 0.930 . S
H1387 C1329 0.930 . S
H1388 C1331 0.930 . S
H1389 C1333 0.929 . S
H1390 C1334 0.930 . S
H1391 C1335 0.930 . S
H1392 C1338 0.930 . S
H1393 C1341 0.929 . S
H1394 C1346 0.929 . S
H1395 C1347 0.930 . S
H1396 C1354 0.929 . S
H1397 C1355 0.930 . S
H1398 C1356 0.930 . S
H1399 C1357 0.930 . S
H1400 C1359 0.929 . S
H1401 C1360 0.930 . S
H1402 C1361 0.930 . S
H1403 C1362 0.930 . S
H1404 C1366 0.929 . S
H1405 C1368 0.929 1_566 S
H1406 C1374 0.929 . S
H1407 C1375 0.930 . S
C1408 C1409 1.387 . S
C1408 H1412 0.950 . S
C1408 C1417 1.390 . S
C1409 C1408 1.387 . S
C1409 C1411 1.387 . S
H1410 C1417 0.950 . S
C1411 C1409 1.387 . S
C1411 C1413 1.390 . S
C1411 H1415 0.950 . S
H1412 C1408 0.950 . S
C1413 C1411 1.390 . S
C1413 C1414 1.387 . S
C1413 H1416 0.950 . S
C1414 C1413 1.387 . S
C1414 C1417 1.387 . S
H1415 C1411 0.950 . S
H1416 C1413 0.950 . S
C1417 C1408 1.390 . S
C1417 H1410 0.950 . S
C1417 C1414 1.387 . S
C1418 C1419 1.387 . S
C1418 H1422 0.950 . S
C1418 C1427 1.390 . S
C1419 C1418 1.387 . S
C1419 C1421 1.387 . S
H1420 C1427 0.950 . S
C1421 C1419 1.387 . S
C1421 C1423 1.390 . S
C1421 H1425 0.950 . S
H1422 C1418 0.950 . S
C1423 C1421 1.390 . S
C1423 C1424 1.387 . S
C1423 H1426 0.950 . S
C1424 C1423 1.387 . S
C1424 C1427 1.387 . S
H1425 C1421 0.950 . S
H1426 C1423 0.950 . S
C1427 C1418 1.390 . S
C1427 H1420 0.950 . S
C1427 C1424 1.387 . S
C1428 C1429 1.387 . S
C1428 H1432 0.950 . S
C1428 C1437 1.390 . S
C1429 C1428 1.387 . S
C1429 C1431 1.387 . S
H1430 C1437 0.950 . S
C1431 C1429 1.387 . S
C1431 C1433 1.390 . S
C1431 H1435 0.950 . S
H1432 C1428 0.950 . S
C1433 C1431 1.390 . S
C1433 C1434 1.387 . S
C1433 H1436 0.950 . S
C1434 C1433 1.387 . S
C1434 C1437 1.387 . S
H1435 C1431 0.950 . S
H1436 C1433 0.950 . S
C1437 C1428 1.390 . S
C1437 H1430 0.950 . S
C1437 C1434 1.387 . S
C1438 C1439 1.387 . S
C1438 H1442 0.950 . S
C1438 C1447 1.390 . S
C1439 C1438 1.387 . S
C1439 C1441 1.387 . S
H1440 C1447 0.950 . S
C1441 C1439 1.387 . S
C1441 C1443 1.390 . S
C1441 H1445 0.950 . S
H1442 C1438 0.950 . S
C1443 C1441 1.390 . S
C1443 C1444 1.387 . S
C1443 H1446 0.950 . S
C1444 C1443 1.387 . S
C1444 C1447 1.387 . S
H1445 C1441 0.950 . S
H1446 C1443 0.950 . S
C1447 C1438 1.390 . S
C1447 H1440 0.950 . S
C1447 C1444 1.387 . S
C1448 C1449 1.387 . S
C1448 H1452 0.950 . S
C1448 C1457 1.390 . S
C1449 C1448 1.387 . S
C1449 C1451 1.387 . S
H1450 C1457 0.950 . S
C1451 C1449 1.387 . S
C1451 C1453 1.390 . S
C1451 H1455 0.950 . S
H1452 C1448 0.950 . S
C1453 C1451 1.390 . S
C1453 C1454 1.387 . S
C1453 H1456 0.950 . S
C1454 C1453 1.387 . S
C1454 C1457 1.387 . S
H1455 C1451 0.950 . S
H1456 C1453 0.950 . S
C1457 C1448 1.390 . S
C1457 H1450 0.950 . S
C1457 C1454 1.387 . S
C1458 C1459 1.387 . S
C1458 H1462 0.950 . S
C1458 C1467 1.390 . S
C1459 C1458 1.387 . S
C1459 C1461 1.387 . S
H1460 C1467 0.950 . S
C1461 C1459 1.387 . S
C1461 C1463 1.390 . S
C1461 H1465 0.950 . S
H1462 C1458 0.950 . S
C1463 C1461 1.390 . S
C1463 C1464 1.387 . S
C1463 H1466 0.950 . S
C1464 C1463 1.387 . S
C1464 C1467 1.387 . S
H1465 C1461 0.950 . S
H1466 C1463 0.950 . S
C1467 C1458 1.390 . S
C1467 H1460 0.950 . S
C1467 C1464 1.387 . S
C1468 C1469 1.387 . S
C1468 H1472 0.950 . S
C1468 C1477 1.390 . S
C1469 C1468 1.387 . S
C1469 C1471 1.387 . S
H1470 C1477 0.950 . S
C1471 C1469 1.387 . S
C1471 C1473 1.390 . S
C1471 H1475 0.950 . S
H1472 C1468 0.950 . S
C1473 C1471 1.390 . S
C1473 C1474 1.387 . S
C1473 H1476 0.950 . S
C1474 C1473 1.387 . S
C1474 C1477 1.387 . S
H1475 C1471 0.950 . S
H1476 C1473 0.950 . S
C1477 C1468 1.390 . S
C1477 H1470 0.950 . S
C1477 C1474 1.387 . S
C1478 C1479 1.387 . S
C1478 H1482 0.950 . S
C1478 C1487 1.390 . S
C1479 C1478 1.387 . S
C1479 C1481 1.387 . S
H1480 C1487 0.950 . S
C1481 C1479 1.387 . S
C1481 C1483 1.390 . S
C1481 H1485 0.950 . S
H1482 C1478 0.950 . S
C1483 C1481 1.390 . S
C1483 C1484 1.387 . S
C1483 H1486 0.950 . S
C1484 C1483 1.387 . S
C1484 C1487 1.387 . S
H1485 C1481 0.950 . S
H1486 C1483 0.950 . S
C1487 C1478 1.390 . S
C1487 H1480 0.950 . S
C1487 C1484 1.387 . S
C1488 C1489 1.387 . S
C1488 H1492 0.950 . S
C1488 C1497 1.390 . S
C1489 C1488 1.387 . S
C1489 C1491 1.387 . S
H1490 C1497 0.950 . S
C1491 C1489 1.387 . S
C1491 C1493 1.390 . S
C1491 H1495 0.950 . S
H1492 C1488 0.950 . S
C1493 C1491 1.390 . S
C1493 C1494 1.387 . S
C1493 H1496 0.950 1_556 S
C1494 C1493 1.387 . S
C1494 C1497 1.387 . S
H1495 C1491 0.950 . S
H1496 C1493 0.950 1_554 S
C1497 C1488 1.390 . S
C1497 H1490 0.950 . S
C1497 C1494 1.387 . S
C1498 C1499 1.387 . S
C1498 H1502 0.950 . S
C1498 C1507 1.390 . S
C1499 C1498 1.387 . S
C1499 C1501 1.387 . S
H1500 C1507 0.950 . S
C1501 C1499 1.387 . S
C1501 C1503 1.390 . S
C1501 H1505 0.950 . S
H1502 C1498 0.950 . S
C1503 C1501 1.390 . S
C1503 C1504 1.387 . S
C1503 H1506 0.950 . S
C1504 C1503 1.387 . S
C1504 C1507 1.387 . S
H1505 C1501 0.950 . S
H1506 C1503 0.950 . S
C1507 C1498 1.390 . S
C1507 H1500 0.950 . S
C1507 C1504 1.387 . S
C1508 C1509 1.387 . S
C1508 H1512 0.950 . S
C1508 C1517 1.390 . S
C1509 C1508 1.387 . S
C1509 C1511 1.387 . S
H1510 C1517 0.950 . S
C1511 C1509 1.387 . S
C1511 C1513 1.390 . S
C1511 H1515 0.950 . S
H1512 C1508 0.950 . S
C1513 C1511 1.390 . S
C1513 C1514 1.387 . S
C1513 H1516 0.950 . S
C1514 C1513 1.387 . S
C1514 C1517 1.387 . S
H1515 C1511 0.950 . S
H1516 C1513 0.950 . S
C1517 C1508 1.390 . S
C1517 H1510 0.950 . S
C1517 C1514 1.387 . S
C1518 C1519 1.387 . S
C1518 H1522 0.950 . S
C1518 C1527 1.390 . S
C1519 C1518 1.387 . S
C1519 C1521 1.387 . S
H1520 C1527 0.950 . S
C1521 C1519 1.387 . S
C1521 C1523 1.390 . S
C1521 H1525 0.950 . S
H1522 C1518 0.950 . S
C1523 C1521 1.390 . S
C1523 C1524 1.387 . S
C1523 H1526 0.950 . S
C1524 C1523 1.387 . S
C1524 C1527 1.387 . S
H1525 C1521 0.950 . S
H1526 C1523 0.950 . S
C1527 C1518 1.390 . S
C1527 H1520 0.950 . S
C1527 C1524 1.387 . S
C1528 C1529 1.387 . S
C1528 H1532 0.950 . S
C1528 C1537 1.390 . S
C1529 C1528 1.387 . S
C1529 C1531 1.387 . S
H1530 C1537 0.950 . S
C1531 C1529 1.387 . S
C1531 C1533 1.390 . S
C1531 H1535 0.950 . S
H1532 C1528 0.950 . S
C1533 C1531 1.390 . S
C1533 C1534 1.387 . S
C1533 H1536 0.950 . S
C1534 C1533 1.387 . S
C1534 C1537 1.387 . S
H1535 C1531 0.950 . S
H1536 C1533 0.950 . S
C1537 C1528 1.390 . S
C1537 H1530 0.950 . S
C1537 C1534 1.387 . S
C1538 C1539 1.387 . S
C1538 H1542 0.950 . S
C1538 C1547 1.390 . S
C1539 C1538 1.387 . S
C1539 C1541 1.387 . S
H1540 C1547 0.950 . S
C1541 C1539 1.387 . S
C1541 C1543 1.390 . S
C1541 H1545 0.950 . S
H1542 C1538 0.950 . S
C1543 C1541 1.390 . S
C1543 C1544 1.387 . S
C1543 H1546 0.950 1_556 S
C1544 C1543 1.387 . S
C1544 C1547 1.387 . S
H1545 C1541 0.950 . S
H1546 C1543 0.950 1_554 S
C1547 C1538 1.390 . S
C1547 H1540 0.950 . S
C1547 C1544 1.387 . S
C1548 C1549 1.387 . S
C1548 H1552 0.950 . S
C1548 C1557 1.390 . S
C1549 C1548 1.387 . S
C1549 C1551 1.387 . S
H1550 C1557 0.950 . S
C1551 C1549 1.387 . S
C1551 C1553 1.390 . S
C1551 H1555 0.950 . S
H1552 C1548 0.950 . S
C1553 C1551 1.390 . S
C1553 C1554 1.387 . S
C1553 H1556 0.950 . S
C1554 C1553 1.387 . S
C1554 C1557 1.387 . S
H1555 C1551 0.950 . S
H1556 C1553 0.950 . S
C1557 C1548 1.390 . S
C1557 H1550 0.950 . S
C1557 C1554 1.387 . S
C1558 C1559 1.387 . S
C1558 H1562 0.950 . S
C1558 C1567 1.390 . S
C1559 C1558 1.387 . S
C1559 C1561 1.387 . S
H1560 C1567 0.950 . S
C1561 C1559 1.387 . S
C1561 C1563 1.390 . S
C1561 H1565 0.950 . S
H1562 C1558 0.950 . S
C1563 C1561 1.390 . S
C1563 C1564 1.387 . S
C1563 H1566 0.950 . S
C1564 C1563 1.387 . S
C1564 C1567 1.387 . S
H1565 C1561 0.950 . S
H1566 C1563 0.950 . S
C1567 C1558 1.390 . S
C1567 H1560 0.950 . S
C1567 C1564 1.387 . S
C1568 C1569 1.361 1_655 S
C1568 H1572 0.950 . S
C1568 C1577 1.390 . S
C1569 C1568 1.361 1_455 S
C1569 C1571 1.414 . S
H1570 C1577 0.950 . S
C1571 C1569 1.414 . S
C1571 C1573 1.390 . S
C1571 H1575 0.950 . S
H1572 C1568 0.950 . S
C1573 C1571 1.390 . S
C1573 C1574 1.414 . S
C1573 H1576 0.950 . S
C1574 C1573 1.414 . S
C1574 C1577 1.361 1_455 S
H1575 C1571 0.950 . S
H1576 C1573 0.950 . S
C1577 C1568 1.390 . S
C1577 H1570 0.950 . S
C1577 C1574 1.361 1_655 S
C1578 C1579 1.387 . S
C1578 H1582 0.950 . S
C1578 C1587 1.390 . S
C1579 C1578 1.387 . S
C1579 C1581 1.387 . S
H1580 C1587 0.950 . S
C1581 C1579 1.387 . S
C1581 C1583 1.390 . S
C1581 H1585 0.950 . S
H1582 C1578 0.950 . S
C1583 C1581 1.390 . S
C1583 C1584 1.387 . S
C1583 H1586 0.950 . S
C1584 C1583 1.387 . S
C1584 C1587 1.387 . S
H1585 C1581 0.950 . S
H1586 C1583 0.950 . S
C1587 C1578 1.390 . S
C1587 H1580 0.950 . S
C1587 C1584 1.387 . S
C1588 C1589 1.387 . S
C1588 H1592 0.950 . S
C1588 C1597 1.390 . S
C1589 C1588 1.387 . S
C1589 C1591 1.387 . S
H1590 C1597 0.950 . S
C1591 C1589 1.387 . S
C1591 C1593 1.390 . S
C1591 H1595 0.950 . S
H1592 C1588 0.950 . S
C1593 C1591 1.390 . S
C1593 C1594 1.387 . S
C1593 H1596 0.950 . S
C1594 C1593 1.387 . S
C1594 C1597 1.387 . S
H1595 C1591 0.950 . S
H1596 C1593 0.950 . S
C1597 C1588 1.390 . S
C1597 H1590 0.950 . S
C1597 C1594 1.387 . S
C1598 C1599 1.387 . S
C1598 H1602 0.950 . S
C1598 C1607 1.390 . S
C1599 C1598 1.387 . S
C1599 C1601 1.387 . S
H1600 C1607 0.950 . S
C1601 C1599 1.387 . S
C1601 C1603 1.390 . S
C1601 H1605 0.950 . S
H1602 C1598 0.950 . S
C1603 C1601 1.390 . S
C1603 C1604 1.387 . S
C1603 H1606 0.950 . S
C1604 C1603 1.387 . S
C1604 C1607 1.387 . S
H1605 C1601 0.950 . S
H1606 C1603 0.950 . S
C1607 C1598 1.390 . S
C1607 H1600 0.950 . S
C1607 C1604 1.387 . S
C1608 C1609 1.387 . S
C1608 H1612 0.950 . S
C1608 C1617 1.390 . S
C1609 C1608 1.387 . S
C1609 C1611 1.387 . S
H1610 C1617 0.950 . S
C1611 C1609 1.387 . S
C1611 C1613 1.390 . S
C1611 H1615 0.950 . S
H1612 C1608 0.950 . S
C1613 C1611 1.390 . S
C1613 C1614 1.387 . S
C1613 H1616 0.950 . S
C1614 C1613 1.387 . S
C1614 C1617 1.387 . S
H1615 C1611 0.950 . S
H1616 C1613 0.950 . S
C1617 C1608 1.390 . S
C1617 H1610 0.950 . S
C1617 C1614 1.387 . S
C1618 C1619 1.387 . S
C1618 H1622 0.950 . S
C1618 C1627 1.390 . S
C1619 C1618 1.387 . S
C1619 C1621 1.387 . S
H1620 C1627 0.950 . S
C1621 C1619 1.387 . S
C1621 C1623 1.390 . S
C1621 H1625 0.950 . S
H1622 C1618 0.950 . S
C1623 C1621 1.390 . S
C1623 C1624 1.387 . S
C1623 H1626 0.950 . S
C1624 C1623 1.387 . S
C1624 C1627 1.387 . S
H1625 C1621 0.950 . S
H1626 C1623 0.950 . S
C1627 C1618 1.390 . S
C1627 H1620 0.950 . S
C1627 C1624 1.387 . S
C1628 C1629 1.389 1_565 S
C1628 H1632 0.950 . S
C1628 C1637 1.390 . S
C1629 C1628 1.389 1_545 S
C1629 C1631 1.386 . S
H1630 C1637 0.950 . S
C1631 C1629 1.386 . S
C1631 C1633 1.390 . S
C1631 H1635 0.950 . S
H1632 C1628 0.950 . S
C1633 C1631 1.390 . S
C1633 C1634 1.389 1_545 S
C1633 H1636 0.950 . S
C1634 C1633 1.389 1_565 S
C1634 C1637 1.386 . S
H1635 C1631 0.950 . S
H1636 C1633 0.950 . S
C1637 C1628 1.390 . S
C1637 H1630 0.950 . S
C1637 C1634 1.386 . S
C1638 C1639 1.373 1_455 S
C1638 H1642 0.950 . S
C1638 C1647 1.390 1_565 S
C1639 C1638 1.373 1_655 S
C1639 C1641 1.402 . S
H1640 C1647 0.950 . S
C1641 C1639 1.402 . S
C1641 C1643 1.390 1_565 S
C1641 H1645 0.950 . S
H1642 C1638 0.950 . S
C1643 C1641 1.390 1_545 S
C1643 C1644 1.402 . S
C1643 H1646 0.950 . S
C1644 C1643 1.402 . S
C1644 C1647 1.373 1_655 S
H1645 C1641 0.950 . S
H1646 C1643 0.950 . S
C1647 C1638 1.390 1_545 S
C1647 H1640 0.950 . S
C1647 C1644 1.373 1_455 S
C1648 C1649 1.401 . S
C1648 H1652 0.950 . S
C1648 C1657 1.390 . S
C1649 C1648 1.401 . S
C1649 C1651 1.374 1_655 S
H1650 C1657 0.950 . S
C1651 C1649 1.374 1_455 S
C1651 C1653 1.390 . S
C1651 H1655 0.950 . S
H1652 C1648 0.950 . S
C1653 C1651 1.390 . S
C1653 C1654 1.374 1_455 S
C1653 H1656 0.950 . S
C1654 C1653 1.374 1_655 S
C1654 C1657 1.401 . S
H1655 C1651 0.950 . S
H1656 C1653 0.950 . S
C1657 C1648 1.390 . S
C1657 H1650 0.950 . S
C1657 C1654 1.401 . S
C1658 C1659 1.387 . S
C1658 H1662 0.950 . S
C1658 C1667 1.390 . S
C1659 C1658 1.387 . S
C1659 C1661 1.387 . S
H1660 C1667 0.950 . S
C1661 C1659 1.387 . S
C1661 C1663 1.390 . S
C1661 H1665 0.950 . S
H1662 C1658 0.950 . S
C1663 C1661 1.390 . S
C1663 C1664 1.387 . S
C1663 H1666 0.950 . S
C1664 C1663 1.387 . S
C1664 C1667 1.387 . S
H1665 C1661 0.950 . S
H1666 C1663 0.950 . S
C1667 C1658 1.390 . S
C1667 H1660 0.950 . S
C1667 C1664 1.387 . S
C1668 C1669 1.387 . S
C1668 H1672 0.950 . S
C1668 C1677 1.390 . S
C1669 C1668 1.387 . S
C1669 C1671 1.387 . S
H1670 C1677 0.950 . S
C1671 C1669 1.387 . S
C1671 C1673 1.390 . S
C1671 H1675 0.950 . S
H1672 C1668 0.950 . S
C1673 C1671 1.390 . S
C1673 C1674 1.387 . S
C1673 H1676 0.950 . S
C1674 C1673 1.387 . S
C1674 C1677 1.387 . S
H1675 C1671 0.950 . S
H1676 C1673 0.950 . S
C1677 C1668 1.390 . S
C1677 H1670 0.950 . S
C1677 C1674 1.387 . S
C1678 C1679 1.387 . S
C1678 H1682 0.950 . S
C1678 C1687 1.390 . S
C1679 C1678 1.387 . S
C1679 C1681 1.387 . S
H1680 C1687 0.950 . S
C1681 C1679 1.387 . S
C1681 C1683 1.390 . S
C1681 H1685 0.950 . S
H1682 C1678 0.950 . S
C1683 C1681 1.390 . S
C1683 C1684 1.387 . S
C1683 H1686 0.950 . S
C1684 C1683 1.387 . S
C1684 C1687 1.387 . S
H1685 C1681 0.950 . S
H1686 C1683 0.950 . S
C1687 C1678 1.390 . S
C1687 H1680 0.950 . S
C1687 C1684 1.387 . S
C1688 C1689 1.387 . S
C1688 H1692 0.950 . S
C1688 C1697 1.390 . S
C1689 C1688 1.387 . S
C1689 C1691 1.387 . S
H1690 C1697 0.950 . S
C1691 C1689 1.387 . S
C1691 C1693 1.390 . S
C1691 H1695 0.950 . S
H1692 C1688 0.950 . S
C1693 C1691 1.390 . S
C1693 C1694 1.387 . S
C1693 H1696 0.950 . S
C1694 C1693 1.387 . S
C1694 C1697 1.387 . S
H1695 C1691 0.950 . S
H1696 C1693 0.950 . S
C1697 C1688 1.390 . S
C1697 H1690 0.950 . S
C1697 C1694 1.387 . S
C1698 C1699 1.387 . S
C1698 H1702 0.950 . S
C1698 C1707 1.390 . S
C1699 C1698 1.387 . S
C1699 C1701 1.387 . S
H1700 C1707 0.950 . S
C1701 C1699 1.387 . S
C1701 C1703 1.390 . S
C1701 H1705 0.950 . S
H1702 C1698 0.950 . S
C1703 C1701 1.390 . S
C1703 C1704 1.387 . S
C1703 H1706 0.950 . S
C1704 C1703 1.387 . S
C1704 C1707 1.387 . S
H1705 C1701 0.950 . S
H1706 C1703 0.950 . S
C1707 C1698 1.390 . S
C1707 H1700 0.950 . S
C1707 C1704 1.387 . S
C1708 C1709 1.387 . S
C1708 H1712 0.950 . S
C1708 C1717 1.390 1_565 S
C1709 C1708 1.387 . S
C1709 C1711 1.387 . S
H1710 C1717 0.950 . S
C1711 C1709 1.387 . S
C1711 C1713 1.390 1_565 S
C1711 H1715 0.950 . S
H1712 C1708 0.950 . S
C1713 C1711 1.390 1_545 S
C1713 C1714 1.387 . S
C1713 H1716 0.950 . S
C1714 C1713 1.387 . S
C1714 C1717 1.387 . S
H1715 C1711 0.950 . S
H1716 C1713 0.950 . S
C1717 C1708 1.390 1_545 S
C1717 H1710 0.950 . S
C1717 C1714 1.387 . S
C1718 C1719 1.413 . S
C1718 H1722 0.950 . S
C1718 C1727 1.390 1_545 S
C1719 C1718 1.413 . S
C1719 C1721 1.362 1_455 S
H1720 C1727 0.950 . S
C1721 C1719 1.362 1_655 S
C1721 C1723 1.390 1_545 S
C1721 H1725 0.950 . S
H1722 C1718 0.950 . S
C1723 C1721 1.390 1_565 S
C1723 C1724 1.362 1_655 S
C1723 H1726 0.950 . S
C1724 C1723 1.362 1_455 S
C1724 C1727 1.413 . S
H1725 C1721 0.950 . S
H1726 C1723 0.950 . S
C1727 C1718 1.390 1_565 S
C1727 H1720 0.950 . S
C1727 C1724 1.413 . S
C1409 C849 1.632 . S
C1414 C29 1.639 . S
C1419 C1281 1.643 . S
C1424 C117 1.631 . S
C1429 C233 1.641 . S
C1434 C753 1.631 . S
C1439 C293 1.633 . S
C1444 C1349 1.647 . S
C1449 C401 1.641 . S
C1454 C909 1.627 . S
C1459 C1201 1.641 . S
C1464 C497 1.634 . S
C1469 C988 1.630 . S
C1474 C548 1.641 . S
C1479 C673 1.631 . S
C1484 C1076 1.641 . S
C1489 C409 1.629 . S
C1494 C313 1.647 . S
C1499 C1085 1.629 . S
C1504 C733 1.645 . S
C1509 C557 1.629 . S
C1514 C137 1.644 . S
C1519 C812 1.645 . S
C1524 C1193 1.626 . S
C1529 C20 1.631 . S
C1534 C460 1.649 . S
C1539 C1340 1.631 . S
C1544 C929 1.642 . S
C1549 C636 1.645 . S
C1554 C225 1.630 . S
C1559 C1025 1.645 . S
C1564 C1289 1.630 . S
C1569 C49 0.736 . S
C1574 C381 0.736 . S
C1579 C469 0.741 . S
C1584 C145 0.742 . S
C1589 C585 0.736 . S
C1594 C196 0.736 . S
C1599 C321 0.744 . S
C1604 C645 0.744 . S
C1609 C937 0.736 . S
C1614 C724 0.736 . S
C1619 C1017 0.736 . S
C1624 C821 0.736 . S
C1629 C1261 0.732 1_545 S
C1634 C1113 0.732 1_565 S
C1639 C1369 0.732 1_665 S
C1644 C1164 0.732 1_645 S
C1649 C372 1.963 1_655 S
C1654 C57 1.963 1_655 S
C1659 C489 1.971 . S
C1664 C108 1.971 . S
C1669 C577 1.960 . S
C1674 C205 1.960 1_554 S
C1679 C284 1.969 . S
C1684 C665 1.969 . S
C1689 C761 1.969 . S
C1694 C900 1.969 . S
C1699 C997 1.971 . S
C1704 C841 1.971 . S
C1709 C1252 1.960 . S
C1714 C1105 1.960 1_554 S
C1719 C1377 1.962 . S
C1724 C1173 1.962 . S
