# Generated by pormake.
# Topology smc, (6)-cn, num edge types: 1
# Building blocks:
#     Node 0, Type 0, BuildingBlock: BETDIP_clean_sbu_0, # of connection points: 6
#     Node 1, Type 0, BuildingBlock: BETDIP_clean_sbu_0, # of connection points: 6
#     Node 2, Type 0, BuildingBlock: BETDIP_clean_sbu_0, # of connection points: 6
#     Node 3, Type 0, BuildingBlock: BETDIP_clean_sbu_0, # of connection points: 6
#     Node 4, Type 0, BuildingBlock: BETDIP_clean_sbu_0, # of connection points: 6
#     Node 5, Type 0, BuildingBlock: BETDIP_clean_sbu_0, # of connection points: 6
#     Node 6, Type 0, BuildingBlock: BETDIP_clean_sbu_0, # of connection points: 6
#     Node 7, Type 0, BuildingBlock: BETDIP_clean_sbu_0, # of connection points: 6
#     Node 8, Type 0, BuildingBlock: BETDIP_clean_sbu_0, # of connection points: 6
#     Edge 9, Type (0, 0), BuildingBlock: KIFKEQ_clean_linker_1, # of connection points: 2
#     Edge 10, Type (0, 0), BuildingBlock: KIFKEQ_clean_linker_1, # of connection points: 2
#     Edge 11, Type (0, 0), BuildingBlock: KIFKEQ_clean_linker_1, # of connection points: 2
#     Edge 12, Type (0, 0), BuildingBlock: KIFKEQ_clean_linker_1, # of connection points: 2
#     Edge 13, Type (0, 0), BuildingBlock: KIFKEQ_clean_linker_1, # of connection points: 2
#     Edge 14, Type (0, 0), BuildingBlock: KIFKEQ_clean_linker_1, # of connection points: 2
#     Edge 15, Type (0, 0), BuildingBlock: KIFKEQ_clean_linker_1, # of connection points: 2
#     Edge 16, Type (0, 0), BuildingBlock: KIFKEQ_clean_linker_1, # of connection points: 2
#     Edge 17, Type (0, 0), BuildingBlock: KIFKEQ_clean_linker_1, # of connection points: 2
#     Edge 18, Type (0, 0), BuildingBlock: KIFKEQ_clean_linker_1, # of connection points: 2
#     Edge 19, Type (0, 0), BuildingBlock: KIFKEQ_clean_linker_1, # of connection points: 2
#     Edge 20, Type (0, 0), BuildingBlock: KIFKEQ_clean_linker_1, # of connection points: 2
#     Edge 21, Type (0, 0), BuildingBlock: KIFKEQ_clean_linker_1, # of connection points: 2
#     Edge 22, Type (0, 0), BuildingBlock: KIFKEQ_clean_linker_1, # of connection points: 2
#     Edge 23, Type (0, 0), BuildingBlock: KIFKEQ_clean_linker_1, # of connection points: 2
#     Edge 24, Type (0, 0), BuildingBlock: KIFKEQ_clean_linker_1, # of connection points: 2
#     Edge 25, Type (0, 0), BuildingBlock: KIFKEQ_clean_linker_1, # of connection points: 2
#     Edge 26, Type (0, 0), BuildingBlock: KIFKEQ_clean_linker_1, # of connection points: 2
#     Edge 27, Type (0, 0), BuildingBlock: KIFKEQ_clean_linker_1, # of connection points: 2
#     Edge 28, Type (0, 0), BuildingBlock: KIFKEQ_clean_linker_1, # of connection points: 2
#     Edge 29, Type (0, 0), BuildingBlock: KIFKEQ_clean_linker_1, # of connection points: 2
#     Edge 30, Type (0, 0), BuildingBlock: KIFKEQ_clean_linker_1, # of connection points: 2
#     Edge 31, Type (0, 0), BuildingBlock: KIFKEQ_clean_linker_1, # of connection points: 2
#     Edge 32, Type (0, 0), BuildingBlock: KIFKEQ_clean_linker_1, # of connection points: 2
#     Edge 33, Type (0, 0), BuildingBlock: KIFKEQ_clean_linker_1, # of connection points: 2
#     Edge 34, Type (0, 0), BuildingBlock: KIFKEQ_clean_linker_1, # of connection points: 2
#     Edge 35, Type (0, 0), BuildingBlock: KIFKEQ_clean_linker_1, # of connection points: 2
# Relax obj value: 0.200
# Max RMSD: 0.318
# Mean RMSD: 0.318
data_MOF--net-smc--node1-BETDIP_clean_sbu_0--edge1-KIFKEQ_clean_linker_1
_symmetry_space_group_name_H-M    P1
_symmetry_Int_Tables_number       1
_symmetry_cell_setting            triclinic
loop_
_symmetry_equiv_pos_as_xyz
'x, y, z'
_cell_length_a     39.558346
_cell_length_b     39.577059
_cell_length_c     39.494406
_cell_angle_alpha  89.936063
_cell_angle_beta   90.00233
_cell_angle_gamma 119.89772
loop_
_atom_site_label
_atom_site_type_symbol
_atom_site_fract_x
_atom_site_fract_y
_atom_site_fract_z
_atom_type_partial_charge
Tb0 Tb 0.05904 0.493 1.02356 0.0
Tb1 Tb 1.0004 0.40474 0.03398 0.0
C2 C 0.09723 0.56591 0.02803 0.0
C3 C 0.13118 0.60443 1.02006 0.0
C4 C 0.16117 0.62299 0.04398 0.0
C5 C 0.18835 0.66268 0.04106 0.0
C6 C 0.18589 0.68495 1.01436 0.0
C7 C 0.15696 0.6658 0.98951 0.0
C8 C 0.13 0.62603 0.99229 0.0
C9 C 0.03129 0.45017 0.96803 0.0
C10 C 0.09179 0.43698 1.02148 0.0
C11 C 0.94821 0.33461 0.0286 0.0
C12 C 0.90535 0.31198 1.02605 0.0
C13 C 0.88384 0.32075 1.00286 0.0
C14 C 0.8429 0.29906 1.00305 0.0
C15 C 0.82304 0.26858 0.02656 0.0
C16 C 0.84491 0.26092 0.0502 0.0
C17 C 0.88545 0.28216 0.04978 0.0
C18 C 0.03692 0.43583 0.09215 0.0
C19 C 0.97135 0.4657 0.04186 0.0
O20 O 0.10173 0.54253 0.0488 0.0
O21 O 0.07112 0.54727 1.00445 0.0
O22 O 1.01284 0.44676 0.99512 0.0
O23 O 0.06618 0.48001 0.97079 0.0
O24 O 0.09964 0.47278 0.02831 0.0
O25 O 0.05553 0.40669 1.01848 0.0
O26 O 0.96901 0.35545 1.00272 0.0
O27 O 0.96067 0.35289 0.05733 0.0
O28 O 0.04045 0.45266 0.06408 0.0
O29 O 1.01073 0.39999 0.0878 0.0
O30 O 0.96085 0.42879 0.03585 0.0
O31 O 1.00821 0.49316 0.04341 0.0
H32 H 0.16255 0.60732 0.06595 0.0
H33 H 0.21067 0.67606 0.06029 0.0
H34 H 0.15367 0.68183 0.96876 0.0
H35 H 0.10688 0.61281 0.97369 0.0
H36 H 0.89848 0.34425 0.98481 0.0
H37 H 0.82687 0.30575 0.98456 0.0
H38 H 0.83066 0.23854 0.06932 0.0
H39 H 0.90141 0.27557 0.06847 0.0
Tb40 Tb 0.56903 0.589 1.02186 0.0
Tb41 Tb 0.65161 0.6155 0.03221 0.0
C42 C 0.49569 0.55313 1.0244 0.0
C43 C 0.45665 0.54872 1.01907 0.0
C44 C 0.43812 0.55739 0.04524 0.0
C45 C 0.39821 0.54478 0.0435 0.0
C46 C 0.37566 0.52262 1.01577 0.0
C47 C 0.39475 0.51534 0.98903 0.0
C48 C 0.43467 0.52834 0.99062 0.0
C49 C 0.6104 0.60206 0.96563 0.0
C50 C 0.62136 0.67701 1.01786 0.0
C51 C 0.72318 0.63748 0.0298 0.0
C52 C 0.74511 0.61595 0.03161 0.0
C53 C 0.75244 0.60026 1.00241 0.0
C54 C 0.77378 0.5807 1.0044 0.0
C55 C 0.78826 0.57621 0.03568 0.0
C56 C 0.77995 0.59108 0.06493 0.0
C57 C 0.75899 0.61087 0.06289 0.0
C58 C 0.61443 0.61017 0.08976 0.0
C59 C 0.59364 0.52696 0.03774 0.0
O60 O 0.518 0.57541 0.04887 0.0
O61 O 0.51555 0.55238 0.99822 0.0
O62 O 0.61286 0.58569 0.99216 0.0
O63 O 0.58274 0.61027 0.96947 0.0
O64 O 0.58534 0.64889 1.02299 0.0
O65 O 0.6516 0.6706 1.01802 0.0
O66 O 0.70195 0.6324 1.00281 0.0
O67 O 0.70515 0.63776 0.05741 0.0
O68 O 0.60971 0.6223 0.06156 0.0
O69 O 0.63827 0.59715 0.08489 0.0
O70 O 0.62951 0.55266 0.02863 0.0
O71 O 0.56816 0.53825 0.04359 0.0
H72 H 0.45406 0.57246 0.0678 0.0
H73 H 0.38497 0.55176 0.06431 0.0
H74 H 0.37866 0.49788 0.96747 0.0
H75 H 0.4478 0.5204 0.97033 0.0
H76 H 0.74209 0.60346 0.97788 0.0
H77 H 0.77975 0.57004 0.98123 0.0
H78 H 0.78964 0.58748 0.08962 0.0
H79 H 0.75374 0.62231 0.08598 0.0
Tb80 Tb 0.47173 1.00457 1.02442 0.0
Tb81 Tb 0.44275 0.0588 0.03147 0.0
C82 C 0.50855 0.96799 0.02957 0.0
C83 C 0.51343 0.93372 1.0233 0.0
C84 C 0.50549 0.9065 0.04931 0.0
C85 C 0.51811 0.87922 0.04689 0.0
C86 C 0.5396 0.87881 1.0186 0.0
C87 C 0.54616 0.9052 0.992 0.0
C88 C 0.53315 0.93216 0.99428 0.0
C89 C 0.45929 0.03089 0.96645 0.0
C90 C 0.38357 0.96754 1.0174 0.0
C91 C 0.41959 0.10738 0.02764 0.0
C92 C 0.44055 0.15063 0.02884 0.0
C93 C 0.46763 0.17366 1.0038 0.0
C94 C 0.48695 0.21448 1.00573 0.0
C95 C 0.48001 0.23326 0.03295 0.0
C96 C 0.45387 0.20991 0.05849 0.0
C97 C 0.43421 0.16927 0.05628 0.0
C98 C 0.44868 0.03013 0.09076 0.0
C99 C 0.531 0.0917 0.03891 0.0
O100 O 0.4827 0.96537 0.05171 0.0
O101 O 0.5128 0.99126 1.00437 0.0
O102 O 0.47447 0.05022 0.99292 0.0
O103 O 0.45196 0.99548 0.97131 0.0
O104 O 0.41199 0.96032 1.02374 0.0
O105 O 0.38903 1.00367 1.01679 0.0
O106 O 0.42496 0.09082 1.00109 0.0
O107 O 0.41985 0.09012 0.05573 0.0
O108 O 0.43689 1.01168 0.06316 0.0
O109 O 0.46119 0.0665 0.08412 0.0
O110 O 0.50503 0.09982 0.02639 0.0
O111 O 0.52048 0.05568 0.04726 0.0
H112 H 0.49096 0.90732 0.07228 0.0
H113 H 0.51159 0.85899 0.06762 0.0
H114 H 0.56302 0.90651 0.96996 0.0
H115 H 0.54046 0.95315 0.97401 0.0
H116 H 0.47371 0.16026 0.98254 0.0
H117 H 0.5066 0.23117 0.98542 0.0
H118 H 0.44851 0.2229 0.08044 0.0
H119 H 0.41402 0.15231 0.07624 0.0
Tb120 Tb 0.72562 0.82433 0.35411 0.0
Tb121 Tb 0.66952 0.74404 0.37177 0.0
C122 C 0.76348 0.89756 0.35249 0.0
C123 C 0.79775 0.93721 0.3512 0.0
C124 C 0.81832 0.95623 0.38068 0.0
C125 C 0.84516 0.99633 0.38027 0.0
C126 C 0.85144 1.01848 0.35052 0.0
C127 C 0.83117 0.99885 0.32099 0.0
C128 C 0.80506 0.95885 0.32129 0.0
C129 C 0.69503 0.77831 0.30091 0.0
C130 C 0.75994 0.77044 0.35637 0.0
C131 C 0.61952 0.67279 0.37813 0.0
C132 C 0.57624 0.65097 0.37612 0.0
C133 C 0.55693 0.63909 0.34477 0.0
C134 C 0.51614 0.61816 0.34327 0.0
C135 C 0.49364 0.60848 0.37306 0.0
C136 C 0.513 0.62091 0.40432 0.0
C137 C 0.55374 0.64179 0.40582 0.0
C138 C 0.70632 0.78745 0.42585 0.0
C139 C 0.63897 0.80225 0.36908 0.0
O140 O 0.75434 0.87733 0.38059 0.0
O141 O 0.75266 0.87581 0.32533 0.0
O142 O 0.67689 0.77763 0.32759 0.0
O143 O 0.73028 0.80739 0.30232 0.0
O144 O 0.76849 0.807 0.35907 0.0
O145 O 0.72315 0.74089 0.35837 0.0
O146 O 0.63855 0.68832 0.35025 0.0
O147 O 0.63482 0.69654 0.40365 0.0
O148 O 0.72031 0.78813 0.397 0.0
O149 O 0.6691 0.76488 0.42294 0.0
O150 O 0.62861 0.76541 0.36413 0.0
O151 O 0.67593 0.82867 0.37134 0.0
H152 H 0.81277 0.94047 0.40435 0.0
H153 H 0.86047 1.00989 0.40345 0.0
H154 H 0.83393 1.01444 0.29771 0.0
H155 H 0.78891 0.94525 0.29839 0.0
H156 H 0.57326 0.64579 0.32133 0.0
H157 H 0.50223 0.60956 0.31872 0.0
H158 H 0.49672 0.6136 0.4278 0.0
H159 H 0.56764 0.65045 0.43038 0.0
Tb160 Tb 0.23585 0.923 0.3566 0.0
Tb161 Tb 0.31708 0.94801 0.36707 0.0
C162 C 0.16247 0.88727 0.35683 0.0
C163 C 0.12349 0.88359 0.35439 0.0
C164 C 0.10386 0.88406 0.38385 0.0
C165 C 0.06393 0.87122 0.38305 0.0
C166 C 0.04263 0.85758 0.35273 0.0
C167 C 0.06275 0.85889 0.32294 0.0
C168 C 0.10264 0.87155 0.3238 0.0
C169 C 0.27752 0.93738 0.30039 0.0
C170 C 0.28809 1.0107 0.35606 0.0
C171 C 0.38882 0.97108 0.3638 0.0
C172 C 0.41134 0.95024 0.36477 0.0
C173 C 0.41408 0.93041 0.33627 0.0
C174 C 0.43588 0.91135 0.33763 0.0
C175 C 0.4553 0.91147 0.36756 0.0
C176 C 0.45157 0.93046 0.39624 0.0
C177 C 0.43019 0.94982 0.39477 0.0
C178 C 0.28083 0.94178 0.42541 0.0
C179 C 0.25932 0.85919 0.37052 0.0
O180 O 0.18368 0.90226 0.38402 0.0
O181 O 0.18343 0.89406 0.32944 0.0
O182 O 0.27919 0.91956 0.32624 0.0
O183 O 0.25109 0.94707 0.30518 0.0
O184 O 0.25217 0.98276 0.36178 0.0
O185 O 0.31775 1.00363 0.35428 0.0
O186 O 0.36714 0.96592 0.33713 0.0
O187 O 0.37096 0.97052 0.39178 0.0
O188 O 0.27567 0.95474 0.39772 0.0
O189 O 0.30374 0.92794 0.41917 0.0
O190 O 0.29577 0.88536 0.36361 0.0
O191 O 0.23304 0.86981 0.37443 0.0
H192 H 0.11885 0.89233 0.40797 0.0
H193 H 0.04946 0.87019 0.40661 0.0
H194 H 0.04753 0.84926 0.29902 0.0
H195 H 0.11671 0.87011 0.30074 0.0
H196 H 0.39974 0.92991 0.31275 0.0
H197 H 0.43826 0.89739 0.31491 0.0
H198 H 0.46519 0.93045 0.42002 0.0
H199 H 0.42843 0.96452 0.41726 0.0
Tb200 Tb 0.14031 0.33842 0.35702 0.0
Tb201 Tb 0.11285 0.39205 0.37273 0.0
C202 C 0.17676 0.30133 0.35539 0.0
C203 C 0.17932 0.26531 0.35455 0.0
C204 C 0.18141 0.24776 0.38483 0.0
C205 C 0.19325 0.21985 0.38454 0.0
C206 C 0.20358 0.20904 0.35399 0.0
C207 C 0.19968 0.22528 0.32355 0.0
C208 C 0.18776 0.25312 0.32385 0.0
C209 C 0.12814 0.37062 0.30285 0.0
C210 C 0.05212 0.30173 0.35487 0.0
C211 C 0.08951 0.44067 0.37655 0.0
C212 C 0.11022 0.48406 0.37483 0.0
C213 C 0.1213 0.504 0.3437 0.0
C214 C 0.1409 0.54482 0.34264 0.0
C215 C 0.14969 0.56683 0.37264 0.0
C216 C 0.13891 0.54686 0.40376 0.0
C217 C 0.11943 0.50607 0.40482 0.0
C218 C 0.11758 0.35491 0.42757 0.0
C219 C 0.20217 0.4246 0.37421 0.0
O220 O 0.16637 0.31128 0.38343 0.0
O221 O 0.16532 0.31184 0.32833 0.0
O222 O 0.14342 0.38775 0.33037 0.0
O223 O 0.12126 0.33512 0.30453 0.0
O224 O 0.08063 0.29435 0.36019 0.0
O225 O 0.05799 0.33807 0.35638 0.0
O226 O 0.08729 0.42151 0.34887 0.0
O227 O 0.09742 0.42588 0.40286 0.0
O228 O 0.10595 0.34109 0.39837 0.0
O229 O 0.13082 0.39197 0.4251 0.0
O230 O 0.17532 0.43415 0.36756 0.0
O231 O 0.19232 0.38788 0.37706 0.0
H232 H 0.17572 0.25691 0.40897 0.0
H233 H 0.1953 0.20749 0.4084 0.0
H234 H 0.20781 0.21805 0.2996 0.0
H235 H 0.18729 0.26669 0.30015 0.0
H236 H 0.11473 0.48818 0.32006 0.0
H237 H 0.14922 0.55914 0.31822 0.0
H238 H 0.14466 0.56267 0.42738 0.0
H239 H 0.11128 0.49173 0.42925 0.0
Tb240 Tb 0.39179 0.15823 0.68934 0.0
Tb241 Tb 0.3357 0.07694 0.69944 0.0
C242 C 0.4299 0.23167 0.69033 0.0
C243 C 0.46535 0.27067 0.68856 0.0
C244 C 0.48477 0.28983 0.71839 0.0
C245 C 0.51207 0.32972 0.71808 0.0
C246 C 0.5204 0.35155 0.68797 0.0
C247 C 0.50223 0.33193 0.65784 0.0
C248 C 0.47501 0.29202 0.65815 0.0
C249 C 0.36364 0.11709 0.63285 0.0
C250 C 0.42706 0.10578 0.68683 0.0
C251 C 0.28655 1.00531 0.6968 0.0
C252 C 0.24316 0.98319 0.69696 0.0
C253 C 0.2215 0.98125 0.66802 0.0
C254 C 0.18066 0.95997 0.66857 0.0
C255 C 0.16043 0.94017 0.69804 0.0
C256 C 0.18212 0.94272 0.72711 0.0
C257 C 0.22293 0.96384 0.72653 0.0
C258 C 0.36626 0.11262 0.7578 0.0
C259 C 0.30473 0.13493 0.70299 0.0
O260 O 0.42297 0.20996 0.71734 0.0
O261 O 0.41615 0.21118 0.66269 0.0
O262 O 0.34465 0.11528 0.65905 0.0
O263 O 0.39975 0.14348 0.63737 0.0
O264 O 0.43508 0.14156 0.69334 0.0
O265 O 0.39035 0.07618 0.68534 0.0
O266 O 0.30391 0.02644 0.67005 0.0
O267 O 0.30321 0.02355 0.72478 0.0
O268 O 0.38419 0.11786 0.73 0.0
O269 O 0.32948 0.09053 0.75149 0.0
O270 O 0.29468 0.09872 0.69527 0.0
O271 O 0.34151 0.16093 0.70767 0.0
H272 H 0.47756 0.27445 0.74235 0.0
H273 H 0.52592 0.34365 0.74167 0.0
H274 H 0.50746 0.34774 0.63425 0.0
H275 H 0.45997 0.27839 0.63484 0.0
H276 H 0.23601 0.99603 0.64485 0.0
H277 H 0.1649 0.95911 0.64586 0.0
H278 H 0.16759 0.92754 0.75014 0.0
H279 H 0.23871 0.96479 0.74926 0.0
Tb280 Tb 0.90248 0.2538 0.69128 0.0
Tb281 Tb 0.98536 0.283 0.70258 0.0
C282 C 0.82912 0.21694 0.69433 0.0
C283 C 0.79043 0.21288 0.68769 0.0
C284 C 0.77229 0.22404 0.71234 0.0
C285 C 0.73255 0.21198 0.71001 0.0
C286 C 0.70978 0.18794 0.6832 0.0
C287 C 0.72852 0.17829 0.65779 0.0
C288 C 0.76829 0.19069 0.65997 0.0
C289 C 0.94411 0.26614 0.63529 0.0
C290 C 0.95315 0.34208 0.68494 0.0
C291 C 0.05728 0.30643 0.70168 0.0
C292 C 0.07959 0.28529 0.70054 0.0
C293 C 0.09014 0.27567 0.66953 0.0
C294 C 0.11127 0.25589 0.66881 0.0
C295 C 0.12247 0.2453 0.69907 0.0
C296 C 0.11148 0.25451 0.73003 0.0
C297 C 0.09042 0.27428 0.73076 0.0
C298 C 0.94689 0.27845 0.7595 0.0
C299 C 0.92938 0.19439 0.70892 0.0
O300 O 0.8515 0.24122 0.71772 0.0
O301 O 0.84898 0.21422 0.66902 0.0
O302 O 0.94743 0.25132 0.6625 0.0
O303 O 0.91511 0.27249 0.63817 0.0
O304 O 0.91736 0.31323 0.68959 0.0
O305 O 0.98418 0.33711 0.6872 0.0
O306 O 0.03756 0.30527 0.67465 0.0
O307 O 0.03747 0.30213 0.72935 0.0
O308 O 0.9424 0.28929 0.7306 0.0
O309 O 0.9716 0.26636 0.75576 0.0
O310 O 0.96441 0.2204 0.69812 0.0
O311 O 0.90374 0.20525 0.71545 0.0
H312 H 0.78835 0.24064 0.73432 0.0
H313 H 0.71958 0.22083 0.72972 0.0
H314 H 0.71221 0.15942 0.63698 0.0
H315 H 0.78113 0.18092 0.64086 0.0
H316 H 0.0822 0.28352 0.64576 0.0
H317 H 0.11875 0.24881 0.64448 0.0
H318 H 0.11998 0.24733 0.75384 0.0
H319 H 0.0829 0.28121 0.75514 0.0
Tb320 Tb 0.80371 0.66873 0.68939 0.0
Tb321 Tb 0.77966 0.72583 0.70133 0.0
C322 C 0.83175 0.62452 0.68901 0.0
C323 C 0.84826 0.59843 0.68881 0.0
C324 C 0.83789 0.57008 0.71415 0.0
C325 C 0.85291 0.54477 0.71372 0.0
C326 C 0.87895 0.54766 0.68815 0.0
C327 C 0.88946 0.57623 0.66288 0.0
C328 C 0.87405 0.60126 0.6631 0.0
C329 C 0.78937 0.6973 0.63393 0.0
C330 C 0.71565 0.63515 0.68977 0.0
C331 C 0.75784 0.77565 0.70022 0.0
C332 C 0.77934 0.81899 0.70116 0.0
C333 C 0.79054 0.84105 0.67111 0.0
C334 C 0.80994 0.88187 0.67222 0.0
C335 C 0.81868 0.90167 0.70343 0.0
C336 C 0.80829 0.87948 0.73343 0.0
C337 C 0.78868 0.83878 0.73231 0.0
C338 C 0.78653 0.69484 0.75876 0.0
C339 C 0.86893 0.75538 0.7025 0.0
O340 O 0.81867 0.63236 0.71661 0.0
O341 O 0.82938 0.64192 0.66171 0.0
O342 O 0.80721 0.71613 0.65991 0.0
O343 O 0.7799 0.6612 0.63796 0.0
O344 O 0.74348 0.62681 0.69433 0.0
O345 O 0.72302 0.67196 0.689 0.0
O346 O 0.76159 0.75905 0.67298 0.0
O347 O 0.75907 0.75791 0.7277 0.0
O348 O 0.77283 0.67718 0.73106 0.0
O349 O 0.80116 0.73169 0.75276 0.0
O350 O 0.84255 0.76597 0.6972 0.0
O351 O 0.85867 0.71837 0.70516 0.0
H352 H 0.81784 0.56721 0.73412 0.0
H353 H 0.84443 0.52314 0.73359 0.0
H354 H 0.90909 0.57879 0.64264 0.0
H355 H 0.88241 0.62287 0.64323 0.0
H356 H 0.7839 0.82679 0.64666 0.0
H357 H 0.8171 0.8978 0.64855 0.0
H358 H 0.81525 0.8935 0.75797 0.0
H359 H 0.78073 0.82284 0.756 0.0
H360 H 0.3283 0.50965 0.96058 0.0
H361 H 0.32402 0.49685 0.0695 0.0
H362 H 0.25817 0.47886 0.95889 0.0
H363 H 0.25391 0.47003 0.06816 0.0
H364 H 0.12369 0.40127 0.05868 0.0
H365 H 0.19233 0.41839 0.0564 0.0
H366 H 0.20848 0.49013 0.9683 0.0
H367 H 0.14024 0.47097 0.96978 0.0
C368 C 0.31255 0.50041 0.98429 0.0
C369 C 0.33235 0.50584 1.01515 0.0
C370 C 0.27198 0.48322 0.98338 0.0
C371 C 0.24977 0.47185 1.01339 0.0
C372 C 0.26957 0.47759 0.04436 0.0
C373 C 0.31018 0.49394 0.0452 0.0
C374 C 0.14169 0.41897 0.03789 0.0
C375 C 0.12656 0.43399 1.01387 0.0
C376 C 0.18132 0.42971 0.037 0.0
C377 C 0.20658 0.45609 1.01231 0.0
C378 C 0.1904 0.46916 0.9873 0.0
C379 C 0.15097 0.45799 0.98796 0.0
H380 H 0.56593 0.85206 0.07143 0.0
H381 H 0.55177 0.84478 0.96265 0.0
H382 H 0.59168 0.80791 0.06902 0.0
H383 H 0.58184 0.80487 0.95981 0.0
H384 H 0.58934 0.69493 0.96695 0.0
H385 H 0.57092 0.74447 0.9674 0.0
H386 H 0.64082 0.79484 0.05735 0.0
H387 H 0.65641 0.74217 0.05798 0.0
C388 C 0.56832 0.84124 0.04691 0.0
C389 C 0.55625 0.85209 1.01725 0.0
C390 C 0.58411 0.81645 0.04545 0.0
C391 C 0.5892 0.80242 1.01419 0.0
C392 C 0.57786 0.81404 0.98456 0.0
C393 C 0.56113 0.83786 0.98611 0.0
C394 C 0.60211 0.71762 0.98598 0.0
C395 C 0.62528 0.71544 1.01178 0.0
C396 C 0.5914 0.74623 0.98642 0.0
C397 C 0.60425 0.77431 1.01238 0.0
C398 C 0.62971 0.77359 0.03715 0.0
C399 C 0.63977 0.74413 0.03704 0.0
H400 H 0.31805 0.93606 0.05666 0.0
H401 H 0.36732 0.91927 0.96535 0.0
H402 H 0.266 0.86773 0.05485 0.0
H403 H 0.31777 0.85118 0.96433 0.0
H404 H 0.21623 0.73196 0.95844 0.0
H405 H 0.25566 0.80219 0.95639 0.0
H406 H 0.25768 0.80637 0.06586 0.0
H407 H 0.21468 0.73632 0.06778 0.0
C408 C 0.31662 0.91809 0.03542 0.0
C409 C 0.34575 0.93299 1.01051 0.0
C410 C 0.28753 0.87867 0.0348 0.0
C411 C 0.28757 0.85344 1.00955 0.0
C412 C 0.31582 0.86938 0.98376 0.0
C413 C 0.3443 0.90864 0.98416 0.0
C414 C 0.22433 0.7478 0.98212 0.0
C415 C 0.21205 0.72811 1.01325 0.0
C416 C 0.24762 0.78831 0.98098 0.0
C417 C 0.26023 0.81043 1.01095 0.0
C418 C 0.24813 0.79071 0.04215 0.0
C419 C 0.22407 0.7502 0.04327 0.0
H420 H 0.44932 0.27663 0.05865 0.0
H421 H 0.55307 0.28934 1.0102 0.0
H422 H 0.479 0.34637 0.06244 0.0
H423 H 0.58136 0.35984 1.01069 0.0
H424 H 0.63591 0.48865 0.04105 0.0
H425 H 0.61009 0.41803 0.04103 0.0
H426 H 0.49317 0.3997 0.03115 0.0
H427 H 0.51855 0.46898 0.03346 0.0
C428 C 0.47857 0.29418 0.04878 0.0
C429 C 0.49868 0.27678 0.03435 0.0
C430 C 0.49543 0.33462 0.05028 0.0
C431 C 0.53261 0.35933 0.03645 0.0
C432 C 0.55288 0.34206 1.02196 0.0
C433 C 0.53627 0.30138 1.02113 0.0
C434 C 0.6047 0.46929 0.0393 0.0
C435 C 0.57935 0.48447 0.03793 0.0
C436 C 0.58981 0.42877 0.03895 0.0
C437 C 0.54929 0.40264 0.03655 0.0
C438 C 0.52431 0.41831 0.03428 0.0
C439 C 0.53903 0.45842 0.03537 0.0
H440 H 0.58764 0.08969 0.07629 0.0
H441 H 0.5691 0.15943 1.00255 0.0
H442 H 0.65744 0.13397 0.07358 0.0
H443 H 0.63942 0.20286 0.99821 0.0
H444 H 0.76825 0.29149 1.01807 0.0
H445 H 0.69747 0.25103 1.02252 0.0
H446 H 0.70978 0.14956 0.03862 0.0
H447 H 0.77989 0.18994 0.03498 0.0
C448 C 0.59856 0.11469 0.05956 0.0
C449 C 0.57289 0.12124 0.03979 0.0
C450 C 0.63874 0.13989 0.05763 0.0
C451 C 0.65446 0.1719 0.03526 0.0
C452 C 0.62857 0.17891 1.01604 0.0
C453 C 0.58819 0.15399 1.01847 0.0
C454 C 0.75569 0.26048 1.02234 0.0
C455 C 0.77978 0.24407 0.02663 0.0
C456 C 0.71505 0.2372 1.02488 0.0
C457 C 0.69762 0.19694 0.03149 0.0
C458 C 0.72188 0.18054 0.03462 0.0
C459 C 0.76228 0.20375 0.03234 0.0
H460 H 0.98522 0.53904 0.05502 0.0
H461 H 0.89144 0.42301 0.03224 0.0
H462 H 0.94049 0.56356 0.05293 0.0
H463 H 0.84553 0.44764 0.03177 0.0
H464 H 0.78296 0.51458 0.99841 0.0
H465 H 0.82559 0.48654 1.0008 0.0
H466 H 0.89079 0.56563 0.08187 0.0
H467 H 0.85052 0.5955 0.07766 0.0
C468 C 0.95479 0.5184 0.05017 0.0
C469 C 0.94202 0.47876 0.04407 0.0
C470 C 0.92888 0.53261 0.04919 0.0
C471 C 0.88907 0.50767 0.04254 0.0
C472 C 0.87602 0.46785 0.03674 0.0
C473 C 0.90223 0.45357 0.03743 0.0
C474 C 0.8067 0.52634 1.01647 0.0
C475 C 0.81308 0.55749 0.03781 0.0
C476 C 0.83084 0.50977 1.0182 0.0
C477 C 0.86188 0.52372 0.04148 0.0
C478 C 0.86772 0.55438 0.06317 0.0
C479 C 0.84401 0.57119 0.06116 0.0
H480 H 0.796 0.75951 0.30253 0.0
H481 H 0.80318 0.77604 0.41059 0.0
H482 H 0.86518 0.77856 0.30109 0.0
H483 H 0.87132 0.79373 0.40966 0.0
H484 H 0.99889 0.88125 0.3889 0.0
H485 H 0.92835 0.85185 0.39021 0.0
H486 H 0.91745 0.76569 0.31733 0.0
H487 H 0.98814 0.79473 0.31633 0.0
C488 C 0.81175 0.76484 0.32618 0.0
C489 C 0.79378 0.76465 0.35684 0.0
C490 C 0.8515 0.77631 0.32538 0.0
C491 C 0.87394 0.78815 0.35524 0.0
C492 C 0.8551 0.7853 0.38613 0.0
C493 C 0.81561 0.77396 0.38685 0.0
C494 C 0.98155 0.85582 0.37338 0.0
C495 C 0.99942 0.84045 0.35256 0.0
C496 C 0.94099 0.83886 0.37417 0.0
C497 C 0.91715 0.80607 0.35413 0.0
C498 C 0.93495 0.79102 0.33292 0.0
C499 C 0.97556 0.80787 0.33225 0.0
H500 H 0.25528 0.20754 0.39924 0.0
H501 H 0.19065 0.15133 0.30857 0.0
H502 H 0.28427 0.16604 0.39874 0.0
H503 H 0.21901 0.10914 0.30834 0.0
H504 H 0.29153 0.05236 0.30049 0.0
H505 H 0.27453 0.10388 0.2992 0.0
H506 H 0.27119 0.10302 0.40873 0.0
H507 H 0.29017 0.05336 0.40946 0.0
C508 C 0.24684 0.18595 0.37939 0.0
C509 C 0.22042 0.1827 0.35403 0.0
C510 C 0.26359 0.1621 0.37905 0.0
C511 C 0.25429 0.13414 0.35343 0.0
C512 C 0.22775 0.13087 0.32808 0.0
C513 C 0.21119 0.15494 0.3283 0.0
C514 C 0.28937 0.06501 0.32414 0.0
C515 C 0.29358 0.05011 0.35506 0.0
C516 C 0.27852 0.09373 0.32352 0.0
C517 C 0.27098 0.10756 0.35387 0.0
C518 C 0.27736 0.09389 0.3848 0.0
C519 C 0.28862 0.06559 0.38533 0.0
H520 H 0.98273 0.27208 0.39007 0.0
H521 H 0.03894 0.25139 0.30569 0.0
H522 H 0.93028 0.2039 0.38806 0.0
H523 H 0.99015 0.18382 0.30537 0.0
H524 H 0.89438 0.06467 0.29718 0.0
H525 H 0.93273 0.13411 0.29447 0.0
H526 H 0.91346 0.1415 0.40146 0.0
H527 H 0.86948 0.07164 0.40278 0.0
C528 C 0.98302 0.25327 0.37033 0.0
C529 C 1.01426 0.26713 0.34744 0.0
C530 C 0.9536 0.21381 0.36969 0.0
C531 C 0.95545 0.18744 0.34662 0.0
C532 C 0.98614 0.20247 0.32291 0.0
C533 C 1.01452 0.24167 0.32299 0.0
C534 C 0.89708 0.08083 0.32005 0.0
C535 C 0.87807 0.06179 0.35012 0.0
C536 C 0.9203 0.12126 0.31873 0.0
C537 C 0.92728 0.14434 0.34786 0.0
C538 C 0.90868 0.12534 0.3782 0.0
C539 C 0.88401 0.08477 0.37918 0.0
H540 H 0.1855 0.80027 0.36032 0.0
H541 H 0.30182 0.82214 0.38164 0.0
H542 H 0.16124 0.73067 0.36049 0.0
H543 H 0.27718 0.75151 0.38177 0.0
H544 H 0.20525 0.62084 0.41559 0.0
H545 H 0.23321 0.69158 0.41508 0.0
H546 H 0.16575 0.68207 0.32601 0.0
H547 H 0.13675 0.61154 0.3272 0.0
C548 C 0.20598 0.79021 0.36522 0.0
C549 C 0.24569 0.81683 0.37113 0.0
C550 C 0.19203 0.75017 0.36499 0.0
C551 C 0.21726 0.73544 0.37094 0.0
C552 C 0.25697 0.76196 0.37722 0.0
C553 C 0.27114 0.80235 0.37699 0.0
C554 C 0.19624 0.6338 0.39597 0.0
C555 C 0.1686 0.61028 0.37146 0.0
C556 C 0.21265 0.67442 0.39547 0.0
C557 C 0.20172 0.69252 0.37054 0.0
C558 C 0.17456 0.66908 0.34578 0.0
C559 C 0.15824 0.62858 0.34624 0.0
H560 H 0.26215 0.40992 0.37082 0.0
H561 H 0.238 0.50485 0.37806 0.0
H562 H 0.33136 0.45579 0.36978 0.0
H563 H 0.30843 0.55145 0.37676 0.0
H564 H 0.43926 0.61566 0.41107 0.0
H565 H 0.36855 0.57275 0.41128 0.0
H566 H 0.37921 0.50399 0.33161 0.0
H567 H 0.44971 0.5457 0.33229 0.0
C568 C 0.27157 0.4407 0.37236 0.0
C569 C 0.24438 0.45373 0.37469 0.0
C570 C 0.31145 0.46706 0.3714 0.0
C571 C 0.32548 0.50731 0.37288 0.0
C572 C 0.29847 0.52055 0.37569 0.0
C573 C 0.2582 0.49396 0.37633 0.0
C574 C 0.42652 0.59131 0.39366 0.0
C575 C 0.4503 0.58412 0.37173 0.0
C576 C 0.38595 0.56701 0.39353 0.0
C577 C 0.36824 0.53491 0.37154 0.0
C578 C 0.39194 0.52823 0.34914 0.0
C579 C 0.4324 0.55246 0.34926 0.0
H580 H 0.4445 0.8448 0.33544 0.0
H581 H 0.52387 0.93698 0.40207 0.0
H582 H 0.48769 0.81738 0.3358 0.0
H583 H 0.56496 0.90793 0.40465 0.0
H584 H 0.65458 0.8772 0.37235 0.0
H585 H 0.60961 0.90152 0.37145 0.0
H586 H 0.51266 0.78347 0.36768 0.0
H587 H 0.55854 0.75882 0.36704 0.0
C588 C 0.47098 0.85916 0.3503 0.0
C589 C 0.48053 0.89325 0.3687 0.0
C590 C 0.49548 0.84303 0.35093 0.0
C591 C 0.53001 0.86038 0.37017 0.0
C592 C 0.53907 0.89401 0.38902 0.0
C593 C 0.51497 0.91038 0.38802 0.0
C594 C 0.62369 0.85615 0.37143 0.0
C595 C 0.61019 0.81587 0.36995 0.0
C596 C 0.59773 0.87025 0.37117 0.0
C597 C 0.55729 0.84457 0.36992 0.0
C598 C 0.54362 0.80417 0.3684 0.0
C599 C 0.56984 0.78997 0.36832 0.0
H600 H 0.65853 0.16642 0.73697 0.0
H601 H 0.66227 0.1716 0.62758 0.0
H602 H 0.58855 0.14015 0.73541 0.0
H603 H 0.59215 0.14131 0.62591 0.0
H604 H 0.47464 0.13505 0.63399 0.0
H605 H 0.54271 0.15339 0.633 0.0
H606 H 0.52684 0.08845 0.72562 0.0
H607 H 0.4586 0.07269 0.72742 0.0
C608 C 0.64458 0.16195 0.71252 0.0
C609 C 0.66656 0.17156 0.68239 0.0
C610 C 0.60403 0.14589 0.7116 0.0
C611 C 0.58406 0.13815 0.68051 0.0
C612 C 0.60609 0.14726 0.65045 0.0
C613 C 0.64663 0.16417 0.65139 0.0
C614 C 0.48538 0.12327 0.6533 0.0
C615 C 0.46118 0.10147 0.68018 0.0
C616 C 0.5247 0.13398 0.65293 0.0
C617 C 0.54093 0.12264 0.67928 0.0
C618 C 0.51582 0.0984 0.70512 0.0
C619 C 0.47637 0.08827 0.70574 0.0
H620 H 0.9978 0.41212 0.71786 0.0
H621 H 0.911 0.35539 0.63999 0.0
H622 H 0.9829 0.46571 0.71911 0.0
H623 H 0.89555 0.40759 0.64193 0.0
H624 H 0.83862 0.4689 0.69706 0.0
H625 H 0.86377 0.42372 0.6947 0.0
H626 H 0.97954 0.51961 0.67554 0.0
H627 H 0.95439 0.56512 0.67783 0.0
C628 C 0.97691 0.41198 0.70006 0.0
C629 C 0.95593 0.38 0.67847 0.0
C630 C 0.96797 0.44221 0.7011 0.0
C631 C 0.93768 0.44026 0.68095 0.0
C632 C 0.91873 0.40957 0.65792 0.0
C633 C 0.92799 0.38002 0.65651 0.0
C634 C 0.8695 0.48041 0.69269 0.0
C635 C 0.89455 0.5205 0.68757 0.0
C636 C 0.88384 0.45459 0.69121 0.0
C637 C 0.92359 0.46834 0.68495 0.0
C638 C 0.94887 0.50845 0.68061 0.0
C639 C 0.9344 0.53431 0.68162 0.0
H640 H 0.67743 0.59307 0.74407 0.0
H641 H 0.66965 0.5981 0.63566 0.0
H642 H 0.6289 0.52428 0.74355 0.0
H643 H 0.61903 0.52932 0.6348 0.0
H644 H 0.57392 0.39815 0.64006 0.0
H645 H 0.61514 0.46869 0.64036 0.0
H646 H 0.56568 0.47375 0.73657 0.0
H647 H 0.5251 0.4033 0.73643 0.0
C648 C 0.66337 0.57986 0.7203 0.0
C649 C 0.67613 0.60125 0.69006 0.0
C650 C 0.63573 0.54015 0.71987 0.0
C651 C 0.61984 0.52074 0.68909 0.0
C652 C 0.6309 0.54293 0.65897 0.0
C653 C 0.65905 0.58268 0.65945 0.0
C654 C 0.57169 0.41433 0.6612 0.0
C655 C 0.54624 0.39482 0.6883 0.0
C656 C 0.59523 0.45499 0.6613 0.0
C657 C 0.5938 0.47738 0.6884 0.0
C658 C 0.56821 0.45775 0.71544 0.0
C659 C 0.54487 0.41713 0.71541 0.0
H660 H 0.80444 0.94535 0.74892 0.0
H661 H 0.87468 0.95682 0.66113 0.0
H662 H 0.83428 1.01547 0.75212 0.0
H663 H 0.90245 0.02735 0.66275 0.0
H664 H 0.97003 0.15679 0.69226 0.0
H665 H 0.94511 0.08636 0.6915 0.0
H666 H 0.83257 0.0665 0.72498 0.0
H667 H 0.85767 0.13587 0.72721 0.0
C668 C 0.82639 0.96276 0.7303 0.0
C669 C 0.83718 0.94507 0.70488 0.0
C670 C 0.84311 1.00321 0.73179 0.0
C671 C 0.87069 0.02738 0.70754 0.0
C672 C 0.88167 1.00983 0.68212 0.0
C673 C 0.86523 0.96922 0.68088 0.0
C674 C 0.9402 0.13727 0.69998 0.0
C675 C 0.91613 0.15211 0.71023 0.0
C676 C 0.92572 0.09687 0.69917 0.0
C677 C 0.8868 0.07049 0.70842 0.0
C678 C 0.86291 0.08562 0.7185 0.0
C679 C 0.87738 0.1257 0.7196 0.0
H680 H 0.92771 0.74315 0.6833 0.0
H681 H 0.90562 0.83291 0.72048 0.0
H682 H 0.9973 0.7895 0.68175 0.0
H683 H 0.97608 0.87968 0.71931 0.0
H684 H 0.10894 0.93317 0.74812 0.0
H685 H 0.03813 0.89013 0.74906 0.0
H686 H 0.04289 0.84908 0.64895 0.0
H687 H 0.1135 0.8913 0.6482 0.0
C688 C 0.93777 0.77282 0.69136 0.0
C689 C 0.91116 0.78437 0.70216 0.0
C690 C 0.97769 0.79947 0.69019 0.0
C691 C 0.99221 0.83829 0.70028 0.0
C692 C 0.96571 0.84989 0.71147 0.0
C693 C 0.92545 0.82325 0.71201 0.0
C694 C 0.09488 0.91495 0.72631 0.0
C695 C 0.11702 0.9157 0.69809 0.0
C696 C 0.05428 0.8906 0.72675 0.0
C697 C 0.03493 0.86618 0.69911 0.0
C698 C 0.05697 0.86734 0.67075 0.0
C699 C 0.09744 0.89184 0.6702 0.0
H700 H 0.22468 0.09205 0.70958 0.0
H701 H 0.3203 0.20949 0.6959 0.0
H702 H 0.17871 0.11678 0.70795 0.0
H703 H 0.27497 0.23381 0.69435 0.0
H704 H 0.18331 0.26072 0.65667 0.0
H705 H 0.22487 0.23158 0.65692 0.0
H706 H 0.1599 0.15855 0.74131 0.0
H707 H 0.11722 0.18673 0.74032 0.0
C708 C 0.23584 0.123 0.70631 0.0
C709 C 0.27609 0.14872 0.70305 0.0
C710 C 0.20962 0.1372 0.7055 0.0
C711 C 0.22317 0.17726 0.70079 0.0
C712 C 0.26344 0.20278 0.69756 0.0
C713 C 0.2895 0.18876 0.6988 0.0
C714 C 0.17736 0.23799 0.67493 0.0
C715 C 0.14681 0.22614 0.69846 0.0
C716 C 0.20152 0.22157 0.67533 0.0
C717 C 0.19583 0.19284 0.69926 0.0
C718 C 0.16486 0.18038 0.72238 0.0
C719 C 0.14068 0.19687 0.72203 0.0
H720 H 0.12643 0.4391 0.29644 0.0
H721 H 0.11762 0.34304 0.23832 0.0
H722 H 0.1091 0.46364 0.24608 0.0
H723 H 0.10368 0.36918 0.18741 0.0
H724 H 0.10843 0.44214 0.09648 0.0
H725 H 0.13521 0.43007 0.14813 0.0
H726 H 0.0471 0.43676 0.20728 0.0
H727 H 1.01995 0.44773 0.15551 0.0
C728 C 0.12073 0.42322 0.27301 0.0
C729 C 0.12216 0.38847 0.27176 0.0
C730 C 0.11127 0.4375 0.24402 0.0
C731 C 0.10506 0.41845 0.21262 0.0
C732 C 0.10842 0.38472 0.21108 0.0
C733 C 0.11628 0.36964 0.24033 0.0
C734 C 0.09614 0.44314 0.12067 0.0
C735 C 0.06297 0.44745 0.12196 0.0
C736 C 0.11096 0.4354 0.15024 0.0
C737 C 0.09326 0.43236 0.18191 0.0
C738 C 0.06183 0.43948 0.18346 0.0
C739 C 0.04663 0.44644 0.15382 0.0
H740 H 0.69507 0.80124 0.23549 0.0
H741 H 0.66161 0.69936 0.29607 0.0
H742 H 0.67214 0.76025 0.18472 0.0
H743 H 0.63406 0.65796 0.24747 0.0
H744 H 0.63466 0.59644 0.15174 0.0
H745 H 0.65276 0.63742 0.20154 0.0
H746 H 0.62129 0.71457 0.1505 0.0
H747 H 0.60491 0.67399 0.09978 0.0
C748 C 0.68142 0.7699 0.23822 0.0
C749 C 0.67797 0.75332 0.27043 0.0
C750 C 0.66794 0.74625 0.20912 0.0
C751 C 0.65071 0.70531 0.21154 0.0
C752 C 0.64719 0.68912 0.244 0.0
C753 C 0.66144 0.71283 0.27265 0.0
C754 C 0.63089 0.62174 0.15133 0.0
C755 C 0.61785 0.63149 0.12184 0.0
C756 C 0.64119 0.64543 0.18011 0.0
C757 C 0.63836 0.67959 0.18064 0.0
C758 C 0.62431 0.68886 0.15127 0.0
C759 C 0.61422 0.66515 0.12225 0.0
H760 H 0.40143 0.95291 0.10982 0.0
H761 H 0.4474 0.07081 0.14572 0.0
H762 H 0.36082 0.9285 0.16119 0.0
H763 H 0.40651 0.04668 0.19581 0.0
H764 H 0.29063 0.99336 0.2541 0.0
H765 H 0.3332 1.0133 0.20457 0.0
H766 H 0.36657 0.92755 0.22855 0.0
H767 H 0.32409 0.90789 0.27888 0.0
C768 C 0.40344 0.97355 0.12883 0.0
C769 C 0.42803 1.01388 0.12361 0.0
C770 C 0.38008 0.95958 0.15818 0.0
C771 C 0.38022 0.98568 0.18255 0.0
C772 C 0.40541 0.02577 0.17753 0.0
C773 C 0.42915 0.03959 0.14878 0.0
C774 C 0.30694 0.97864 0.24883 0.0
C775 C 0.30383 0.94895 0.27038 0.0
C776 C 0.33149 0.99018 0.22047 0.0
C777 C 0.35329 0.97199 0.21247 0.0
C778 C 0.34993 0.94191 0.23382 0.0
C779 C 0.32579 0.93082 0.2627 0.0
H780 H 0.48238 0.10652 0.9481 0.0
H781 H 0.41026 0.98744 0.91569 0.0
H782 H 0.46232 0.12909 0.89797 0.0
H783 H 0.39027 1.00976 0.8659 0.0
H784 H 0.32556 0.0584 0.80639 0.0
H785 H 0.3499 0.0405 0.85547 0.0
H786 H 0.46693 0.13144 0.83227 0.0
H787 H 0.44238 0.14909 0.78171 0.0
C788 C 0.46236 0.08518 0.93022 0.0
C789 C 0.44795 0.04514 0.93588 0.0
C790 C 0.45107 0.09814 0.90138 0.0
C791 C 0.42464 0.07131 0.87778 0.0
C792 C 0.41042 0.0313 0.88357 0.0
C793 C 0.42203 1.01845 0.91207 0.0
C794 C 0.35648 0.07519 0.81172 0.0
C795 C 0.38187 0.1057 0.79006 0.0
C796 C 0.37052 0.06451 0.83989 0.0
C797 C 0.41041 0.08433 0.84795 0.0
C798 C 0.43595 0.11564 0.82694 0.0
C799 C 0.42191 0.12586 0.79804 0.0
H800 H 0.95651 0.39097 0.95532 0.0
H801 H 0.071 0.4531 0.91057 0.0
H802 H 0.93274 0.34756 0.90595 0.0
H803 H 0.04668 0.41167 0.86028 0.0
H804 H 0.97571 0.35683 0.7624 0.0
H805 H 0.99463 0.39818 0.81277 0.0
H806 H 0.94916 0.29605 0.87633 0.0
H807 H 0.93139 0.25457 0.82559 0.0
C808 C 0.97671 0.39501 0.9352 0.0
C809 C 1.01594 0.42472 0.93747 0.0
C810 C 0.963 0.37045 0.90674 0.0
C811 C 0.98784 0.37606 0.8792 0.0
C812 C 1.02676 0.40657 0.88102 0.0
C813 C 0.0407 0.4303 0.90988 0.0
C814 C 0.96889 0.34308 0.7871 0.0
C815 C 0.95137 0.3023 0.79004 0.0
C816 C 0.98016 0.36684 0.81597 0.0
C817 C 0.97346 0.35044 0.84859 0.0
C818 C 0.95449 0.30955 0.85157 0.0
C819 C 0.94415 0.28579 0.82259 0.0
H820 H 0.74443 0.61824 0.78084 0.0
H821 H 0.77722 0.73588 0.80972 0.0
H822 H 0.70215 0.59359 0.83129 0.0
H823 H 0.7348 0.71144 0.8587 0.0
H824 H 0.61871 0.65272 0.91555 0.0
H825 H 0.66194 0.67259 0.86647 0.0
H826 H 0.70551 0.59709 0.89844 0.0
H827 H 0.66207 0.57727 0.94808 0.0
C828 C 0.74319 0.63883 0.79812 0.0
C829 C 0.76479 0.67911 0.79128 0.0
C830 C 0.71888 0.62473 0.82693 0.0
C831 C 0.71492 0.65056 0.849 0.0
C832 C 0.7369 0.69069 0.84224 0.0
C833 C 0.76164 0.70473 0.81414 0.0
C834 C 0.63735 0.64019 0.9121 0.0
C835 C 0.63685 0.61337 0.93572 0.0
C836 C 0.66229 0.6517 0.884 0.0
C837 C 0.68724 0.63643 0.87841 0.0
C838 C 0.68643 0.60913 0.90179 0.0
C839 C 0.66174 0.59797 0.93031 0.0
H840 H 0.73842 0.74127 0.42968 0.0
H841 H 0.71144 0.81482 0.4908 0.0
H842 H 0.76188 0.72295 0.47937 0.0
H843 H 0.73354 0.79515 0.54153 0.0
H844 H 0.80783 0.77312 0.62115 0.0
H845 H 0.79005 0.79809 0.57146 0.0
H846 H 0.73281 0.68258 0.52808 0.0
H847 H 0.74992 0.6578 0.57777 0.0
C848 C 0.73869 0.75453 0.45371 0.0
C849 C 0.72455 0.78075 0.4561 0.0
C850 C 0.75131 0.74329 0.48243 0.0
C851 C 0.7495 0.75733 0.51469 0.0
C852 C 0.73585 0.78409 0.51709 0.0
C853 C 0.72318 0.79541 0.4881 0.0
C854 C 0.7911 0.75305 0.60112 0.0
C855 C 0.77989 0.71335 0.6036 0.0
C856 C 0.78094 0.76738 0.5726 0.0
C857 C 0.76006 0.74248 0.54555 0.0
C858 C 0.74932 0.70285 0.54807 0.0
C859 C 0.75899 0.68851 0.57669 0.0
H860 H 0.32488 0.94474 0.47967 0.0
H861 H 0.25089 0.98904 0.44485 0.0
H862 H 0.34287 0.98676 0.52903 0.0
H863 H 0.26849 0.03092 0.49542 0.0
H864 H 0.28739 0.0701 0.61241 0.0
H865 H 0.26375 0.0268 0.56274 0.0
H866 H 0.38236 0.06007 0.53707 0.0
H867 H 0.40579 0.10352 0.58598 0.0
C868 C 0.31172 0.96286 0.4828 0.0
C869 C 0.28613 0.96311 0.45811 0.0
C870 C 0.32239 0.9873 0.51114 0.0
C871 C 0.30733 1.01242 0.51626 0.0
C872 C 0.28048 1.01176 0.49238 0.0
C873 C 0.2703 0.98768 0.46345 0.0
C874 C 0.30834 0.06824 0.596 0.0
C875 C 0.34852 0.09044 0.60305 0.0
C876 C 0.29481 0.0436 0.56747 0.0
C877 C 0.32112 0.03992 0.54582 0.0
C878 C 0.36122 0.06199 0.55319 0.0
C879 C 0.37471 0.08706 0.5812 0.0
H880 H 0.93826 0.29796 0.57593 0.0
H881 H 1.00741 0.25584 0.62532 0.0
H882 H 0.98025 0.31548 0.52607 0.0
H883 H 0.05059 0.27492 0.5758 0.0
H884 H 0.14099 0.3613 0.49368 0.0
H885 H 0.09918 0.33717 0.54419 0.0
H886 H 0.99736 0.2827 0.48013 0.0
H887 H 0.03903 0.306 0.4301 0.0
C888 C 0.96252 0.29253 0.5762 0.0
C889 C 0.96967 0.2759 0.60485 0.0
C890 C 0.98658 0.3025 0.54754 0.0
C891 C 1.01892 0.29669 0.54685 0.0
C892 C 1.02618 0.28013 0.57556 0.0
C893 C 1.00152 0.26933 0.60401 0.0
C894 C 0.10976 0.34327 0.49052 0.0
C895 C 0.09346 0.33493 0.45789 0.0
C896 C 0.08576 0.32955 0.51939 0.0
C897 C 0.04483 0.30814 0.51629 0.0
C898 C 1.02868 0.29924 0.48355 0.0
C899 C 0.05265 0.31218 0.4548 0.0
loop_
_geom_bond_atom_site_label_1
_geom_bond_atom_site_label_2
_geom_bond_distance
_geom_bond_site_symmetry_2
_ccdc_geom_bond_type
Tb0 C2 2.809 . S
Tb0 O20 2.484 1_556 S
Tb0 O21 2.440 . S
Tb0 O22 2.658 1_455 S
Tb0 O23 2.409 . S
Tb0 O24 2.378 . S
Tb0 O28 2.325 1_556 S
Tb0 O31 2.341 1_456 S
Tb1 C11 2.809 . S
Tb1 O22 2.325 1_554 S
Tb1 O25 2.341 1_654 S
Tb1 O26 2.484 1_554 S
Tb1 O27 2.440 . S
Tb1 O28 2.658 1_655 S
Tb1 O29 2.409 . S
Tb1 O30 2.378 . S
C2 Tb0 2.809 . S
C2 C3 1.514 . S
C2 O20 1.248 1_556 S
C2 O21 1.266 . S
C3 C2 1.514 . S
C3 C4 1.359 1_556 S
C3 C8 1.348 . S
C4 C3 1.359 1_554 S
C4 C5 1.380 . S
C4 H32 0.929 . S
C5 C4 1.380 . S
C5 C6 1.347 1_554 S
C5 H33 0.931 . S
C6 C5 1.347 1_556 S
C6 C7 1.369 . S
C7 C6 1.369 . S
C7 C8 1.408 . S
C7 H34 0.930 . S
C8 C3 1.348 . S
C8 C7 1.408 . S
C8 H35 0.930 . S
C9 O22 1.281 . S
C9 O23 1.254 1_655 S
C10 O24 1.236 . S
C10 O25 1.266 . S
C11 Tb1 2.809 . S
C11 C12 1.514 . S
C11 O26 1.248 1_554 S
C11 O27 1.266 . S
C12 C11 1.514 . S
C12 C13 1.359 1_554 S
C12 C17 1.348 . S
C13 C12 1.359 1_556 S
C13 C14 1.380 . S
C13 H36 0.929 . S
C14 C13 1.380 . S
C14 C15 1.347 1_556 S
C14 H37 0.931 . S
C15 C14 1.347 1_554 S
C15 C16 1.369 . S
C16 C15 1.369 . S
C16 C17 1.408 . S
C16 H38 0.930 . S
C17 C12 1.348 . S
C17 C16 1.408 . S
C17 H39 0.930 . S
C18 O28 1.281 . S
C18 O29 1.254 1_455 S
C19 O30 1.236 . S
C19 O31 1.266 . S
O20 Tb0 2.484 1_554 S
O20 C2 1.248 1_554 S
O21 Tb0 2.440 . S
O21 C2 1.266 . S
O22 Tb0 2.658 1_655 S
O22 Tb1 2.325 1_556 S
O22 C9 1.281 . S
O23 Tb0 2.409 . S
O23 C9 1.254 1_455 S
O24 Tb0 2.378 . S
O24 C10 1.236 . S
O25 Tb1 2.341 1_456 S
O25 C10 1.266 . S
O26 Tb1 2.484 1_556 S
O26 C11 1.248 1_556 S
O27 Tb1 2.440 . S
O27 C11 1.266 . S
O28 Tb0 2.325 1_554 S
O28 Tb1 2.658 1_455 S
O28 C18 1.281 . S
O29 Tb1 2.409 . S
O29 C18 1.254 1_655 S
O30 Tb1 2.378 . S
O30 C19 1.236 . S
O31 Tb0 2.341 1_654 S
O31 C19 1.266 . S
H32 C4 0.929 . S
H33 C5 0.931 . S
H34 C7 0.930 . S
H35 C8 0.930 . S
H36 C13 0.929 . S
H37 C14 0.931 . S
H38 C16 0.930 . S
H39 C17 0.930 . S
Tb40 C42 2.809 . S
Tb40 O60 2.484 1_556 S
Tb40 O61 2.440 . S
Tb40 O62 2.658 . S
Tb40 O63 2.409 . S
Tb40 O64 2.378 . S
Tb40 O68 2.325 1_556 S
Tb40 O71 2.341 1_556 S
Tb41 C51 2.809 . S
Tb41 O62 2.325 1_554 S
Tb41 O65 2.341 1_554 S
Tb41 O66 2.484 1_554 S
Tb41 O67 2.440 . S
Tb41 O68 2.658 . S
Tb41 O69 2.409 . S
Tb41 O70 2.378 . S
C42 Tb40 2.809 . S
C42 C43 1.514 . S
C42 O60 1.248 1_556 S
C42 O61 1.266 . S
C43 C42 1.514 . S
C43 C44 1.359 1_556 S
C43 C48 1.348 . S
C44 C43 1.359 1_554 S
C44 C45 1.380 . S
C44 H72 0.929 . S
C45 C44 1.380 . S
C45 C46 1.347 1_554 S
C45 H73 0.931 . S
C46 C45 1.347 1_556 S
C46 C47 1.369 . S
C47 C46 1.369 . S
C47 C48 1.408 . S
C47 H74 0.930 . S
C48 C43 1.348 . S
C48 C47 1.408 . S
C48 H75 0.930 . S
C49 O62 1.281 . S
C49 O63 1.254 . S
C50 O64 1.236 . S
C50 O65 1.266 . S
C51 Tb41 2.809 . S
C51 C52 1.514 . S
C51 O66 1.248 1_554 S
C51 O67 1.266 . S
C52 C51 1.514 . S
C52 C53 1.359 1_554 S
C52 C57 1.348 . S
C53 C52 1.359 1_556 S
C53 C54 1.380 . S
C53 H76 0.929 . S
C54 C53 1.380 . S
C54 C55 1.347 1_556 S
C54 H77 0.931 . S
C55 C54 1.347 1_554 S
C55 C56 1.369 . S
C56 C55 1.369 . S
C56 C57 1.408 . S
C56 H78 0.930 . S
C57 C52 1.348 . S
C57 C56 1.408 . S
C57 H79 0.930 . S
C58 O68 1.281 . S
C58 O69 1.254 . S
C59 O70 1.236 . S
C59 O71 1.266 . S
O60 Tb40 2.484 1_554 S
O60 C42 1.248 1_554 S
O61 Tb40 2.440 . S
O61 C42 1.266 . S
O62 Tb40 2.658 . S
O62 Tb41 2.325 1_556 S
O62 C49 1.281 . S
O63 Tb40 2.409 . S
O63 C49 1.254 . S
O64 Tb40 2.378 . S
O64 C50 1.236 . S
O65 Tb41 2.341 1_556 S
O65 C50 1.266 . S
O66 Tb41 2.484 1_556 S
O66 C51 1.248 1_556 S
O67 Tb41 2.440 . S
O67 C51 1.266 . S
O68 Tb40 2.325 1_554 S
O68 Tb41 2.658 . S
O68 C58 1.281 . S
O69 Tb41 2.409 . S
O69 C58 1.254 . S
O70 Tb41 2.378 . S
O70 C59 1.236 . S
O71 Tb40 2.341 1_554 S
O71 C59 1.266 . S
H72 C44 0.929 . S
H73 C45 0.931 . S
H74 C47 0.930 . S
H75 C48 0.930 . S
H76 C53 0.929 . S
H77 C54 0.931 . S
H78 C56 0.930 . S
H79 C57 0.930 . S
Tb80 C82 2.809 . S
Tb80 O100 2.484 1_556 S
Tb80 O101 2.440 . S
Tb80 O102 2.658 1_565 S
Tb80 O103 2.409 . S
Tb80 O104 2.378 . S
Tb80 O108 2.325 1_556 S
Tb80 O111 2.341 1_566 S
Tb81 C91 2.809 . S
Tb81 O102 2.325 1_554 S
Tb81 O105 2.341 1_544 S
Tb81 O106 2.484 1_554 S
Tb81 O107 2.440 . S
Tb81 O108 2.658 1_545 S
Tb81 O109 2.409 . S
Tb81 O110 2.378 . S
C82 Tb80 2.809 . S
C82 C83 1.514 . S
C82 O100 1.248 1_556 S
C82 O101 1.266 . S
C83 C82 1.514 . S
C83 C84 1.359 1_556 S
C83 C88 1.348 . S
C84 C83 1.359 1_554 S
C84 C85 1.380 . S
C84 H112 0.929 . S
C85 C84 1.380 . S
C85 C86 1.347 1_554 S
C85 H113 0.931 . S
C86 C85 1.347 1_556 S
C86 C87 1.369 . S
C87 C86 1.369 . S
C87 C88 1.408 . S
C87 H114 0.930 . S
C88 C83 1.348 . S
C88 C87 1.408 . S
C88 H115 0.930 . S
C89 O102 1.281 . S
C89 O103 1.254 1_545 S
C90 O104 1.236 . S
C90 O105 1.266 . S
C91 Tb81 2.809 . S
C91 C92 1.514 . S
C91 O106 1.248 1_554 S
C91 O107 1.266 . S
C92 C91 1.514 . S
C92 C93 1.359 1_554 S
C92 C97 1.348 . S
C93 C92 1.359 1_556 S
C93 C94 1.380 . S
C93 H116 0.929 . S
C94 C93 1.380 . S
C94 C95 1.347 1_556 S
C94 H117 0.931 . S
C95 C94 1.347 1_554 S
C95 C96 1.369 . S
C96 C95 1.369 . S
C96 C97 1.408 . S
C96 H118 0.930 . S
C97 C92 1.348 . S
C97 C96 1.408 . S
C97 H119 0.930 . S
C98 O108 1.281 1_545 S
C98 O109 1.254 . S
C99 O110 1.236 . S
C99 O111 1.266 . S
O100 Tb80 2.484 1_554 S
O100 C82 1.248 1_554 S
O101 Tb80 2.440 . S
O101 C82 1.266 . S
O102 Tb80 2.658 1_545 S
O102 Tb81 2.325 1_556 S
O102 C89 1.281 . S
O103 Tb80 2.409 . S
O103 C89 1.254 1_565 S
O104 Tb80 2.378 . S
O104 C90 1.236 . S
O105 Tb81 2.341 1_566 S
O105 C90 1.266 . S
O106 Tb81 2.484 1_556 S
O106 C91 1.248 1_556 S
O107 Tb81 2.440 . S
O107 C91 1.266 . S
O108 Tb80 2.325 1_554 S
O108 Tb81 2.658 1_565 S
O108 C98 1.281 1_565 S
O109 Tb81 2.409 . S
O109 C98 1.254 . S
O110 Tb81 2.378 . S
O110 C99 1.236 . S
O111 Tb80 2.341 1_544 S
O111 C99 1.266 . S
H112 C84 0.929 . S
H113 C85 0.931 . S
H114 C87 0.930 . S
H115 C88 0.930 . S
H116 C93 0.929 . S
H117 C94 0.931 . S
H118 C96 0.930 . S
H119 C97 0.930 . S
Tb120 C122 2.809 . S
Tb120 O140 2.484 . S
Tb120 O141 2.440 . S
Tb120 O142 2.658 . S
Tb120 O143 2.409 . S
Tb120 O144 2.378 . S
Tb120 O148 2.325 . S
Tb120 O151 2.341 . S
Tb121 C131 2.809 . S
Tb121 O142 2.325 . S
Tb121 O145 2.341 . S
Tb121 O146 2.484 . S
Tb121 O147 2.440 . S
Tb121 O148 2.658 . S
Tb121 O149 2.409 . S
Tb121 O150 2.378 . S
C122 Tb120 2.809 . S
C122 C123 1.514 . S
C122 O140 1.248 . S
C122 O141 1.266 . S
C123 C122 1.514 . S
C123 C124 1.359 . S
C123 C128 1.348 . S
C124 C123 1.359 . S
C124 C125 1.380 . S
C124 H152 0.929 . S
C125 C124 1.380 . S
C125 C126 1.347 . S
C125 H153 0.931 . S
C126 C125 1.347 . S
C126 C127 1.369 . S
C127 C126 1.369 . S
C127 C128 1.408 . S
C127 H154 0.930 . S
C128 C123 1.348 . S
C128 C127 1.408 . S
C128 H155 0.930 . S
C129 O142 1.281 . S
C129 O143 1.254 . S
C130 O144 1.236 . S
C130 O145 1.266 . S
C131 Tb121 2.809 . S
C131 C132 1.514 . S
C131 O146 1.248 . S
C131 O147 1.266 . S
C132 C131 1.514 . S
C132 C133 1.359 . S
C132 C137 1.348 . S
C133 C132 1.359 . S
C133 C134 1.380 . S
C133 H156 0.929 . S
C134 C133 1.380 . S
C134 C135 1.347 . S
C134 H157 0.931 . S
C135 C134 1.347 . S
C135 C136 1.369 . S
C136 C135 1.369 . S
C136 C137 1.408 . S
C136 H158 0.930 . S
C137 C132 1.348 . S
C137 C136 1.408 . S
C137 H159 0.930 . S
C138 O148 1.281 . S
C138 O149 1.254 . S
C139 O150 1.236 . S
C139 O151 1.266 . S
O140 Tb120 2.484 . S
O140 C122 1.248 . S
O141 Tb120 2.440 . S
O141 C122 1.266 . S
O142 Tb120 2.658 . S
O142 Tb121 2.325 . S
O142 C129 1.281 . S
O143 Tb120 2.409 . S
O143 C129 1.254 . S
O144 Tb120 2.378 . S
O144 C130 1.236 . S
O145 Tb121 2.341 . S
O145 C130 1.266 . S
O146 Tb121 2.484 . S
O146 C131 1.248 . S
O147 Tb121 2.440 . S
O147 C131 1.266 . S
O148 Tb120 2.325 . S
O148 Tb121 2.658 . S
O148 C138 1.281 . S
O149 Tb121 2.409 . S
O149 C138 1.254 . S
O150 Tb121 2.378 . S
O150 C139 1.236 . S
O151 Tb120 2.341 . S
O151 C139 1.266 . S
H152 C124 0.929 . S
H153 C125 0.931 . S
H154 C127 0.930 . S
H155 C128 0.930 . S
H156 C133 0.929 . S
H157 C134 0.931 . S
H158 C136 0.930 . S
H159 C137 0.930 . S
Tb160 C162 2.809 . S
Tb160 O180 2.484 . S
Tb160 O181 2.440 . S
Tb160 O182 2.658 . S
Tb160 O183 2.409 . S
Tb160 O184 2.378 . S
Tb160 O188 2.325 . S
Tb160 O191 2.341 . S
Tb161 C171 2.809 . S
Tb161 O182 2.325 . S
Tb161 O185 2.341 . S
Tb161 O186 2.484 . S
Tb161 O187 2.440 . S
Tb161 O188 2.658 . S
Tb161 O189 2.409 . S
Tb161 O190 2.378 . S
C162 Tb160 2.809 . S
C162 C163 1.514 . S
C162 O180 1.248 . S
C162 O181 1.266 . S
C163 C162 1.514 . S
C163 C164 1.359 . S
C163 C168 1.348 . S
C164 C163 1.359 . S
C164 C165 1.380 . S
C164 H192 0.929 . S
C165 C164 1.380 . S
C165 C166 1.347 . S
C165 H193 0.931 . S
C166 C165 1.347 . S
C166 C167 1.369 . S
C167 C166 1.369 . S
C167 C168 1.408 . S
C167 H194 0.930 . S
C168 C163 1.348 . S
C168 C167 1.408 . S
C168 H195 0.930 . S
C169 O182 1.281 . S
C169 O183 1.254 . S
C170 O184 1.236 . S
C170 O185 1.266 . S
C171 Tb161 2.809 . S
C171 C172 1.514 . S
C171 O186 1.248 . S
C171 O187 1.266 . S
C172 C171 1.514 . S
C172 C173 1.359 . S
C172 C177 1.348 . S
C173 C172 1.359 . S
C173 C174 1.380 . S
C173 H196 0.929 . S
C174 C173 1.380 . S
C174 C175 1.347 . S
C174 H197 0.931 . S
C175 C174 1.347 . S
C175 C176 1.369 . S
C176 C175 1.369 . S
C176 C177 1.408 . S
C176 H198 0.930 . S
C177 C172 1.348 . S
C177 C176 1.408 . S
C177 H199 0.930 . S
C178 O188 1.281 . S
C178 O189 1.254 . S
C179 O190 1.236 . S
C179 O191 1.266 . S
O180 Tb160 2.484 . S
O180 C162 1.248 . S
O181 Tb160 2.440 . S
O181 C162 1.266 . S
O182 Tb160 2.658 . S
O182 Tb161 2.325 . S
O182 C169 1.281 . S
O183 Tb160 2.409 . S
O183 C169 1.254 . S
O184 Tb160 2.378 . S
O184 C170 1.236 . S
O185 Tb161 2.341 . S
O185 C170 1.266 . S
O186 Tb161 2.484 . S
O186 C171 1.248 . S
O187 Tb161 2.440 . S
O187 C171 1.266 . S
O188 Tb160 2.325 . S
O188 Tb161 2.658 . S
O188 C178 1.281 . S
O189 Tb161 2.409 . S
O189 C178 1.254 . S
O190 Tb161 2.378 . S
O190 C179 1.236 . S
O191 Tb160 2.341 . S
O191 C179 1.266 . S
H192 C164 0.929 . S
H193 C165 0.931 . S
H194 C167 0.930 . S
H195 C168 0.930 . S
H196 C173 0.929 . S
H197 C174 0.931 . S
H198 C176 0.930 . S
H199 C177 0.930 . S
Tb200 C202 2.809 . S
Tb200 O220 2.484 . S
Tb200 O221 2.440 . S
Tb200 O222 2.658 . S
Tb200 O223 2.409 . S
Tb200 O224 2.378 . S
Tb200 O228 2.325 . S
Tb200 O231 2.341 . S
Tb201 C211 2.809 . S
Tb201 O222 2.325 . S
Tb201 O225 2.341 . S
Tb201 O226 2.484 . S
Tb201 O227 2.440 . S
Tb201 O228 2.658 . S
Tb201 O229 2.409 . S
Tb201 O230 2.378 . S
C202 Tb200 2.809 . S
C202 C203 1.514 . S
C202 O220 1.248 . S
C202 O221 1.266 . S
C203 C202 1.514 . S
C203 C204 1.359 . S
C203 C208 1.348 . S
C204 C203 1.359 . S
C204 C205 1.380 . S
C204 H232 0.929 . S
C205 C204 1.380 . S
C205 C206 1.347 . S
C205 H233 0.931 . S
C206 C205 1.347 . S
C206 C207 1.369 . S
C207 C206 1.369 . S
C207 C208 1.408 . S
C207 H234 0.930 . S
C208 C203 1.348 . S
C208 C207 1.408 . S
C208 H235 0.930 . S
C209 O222 1.281 . S
C209 O223 1.254 . S
C210 O224 1.236 . S
C210 O225 1.266 . S
C211 Tb201 2.809 . S
C211 C212 1.514 . S
C211 O226 1.248 . S
C211 O227 1.266 . S
C212 C211 1.514 . S
C212 C213 1.359 . S
C212 C217 1.348 . S
C213 C212 1.359 . S
C213 C214 1.380 . S
C213 H236 0.929 . S
C214 C213 1.380 . S
C214 C215 1.347 . S
C214 H237 0.931 . S
C215 C214 1.347 . S
C215 C216 1.369 . S
C216 C215 1.369 . S
C216 C217 1.408 . S
C216 H238 0.930 . S
C217 C212 1.348 . S
C217 C216 1.408 . S
C217 H239 0.930 . S
C218 O228 1.281 . S
C218 O229 1.254 . S
C219 O230 1.236 . S
C219 O231 1.266 . S
O220 Tb200 2.484 . S
O220 C202 1.248 . S
O221 Tb200 2.440 . S
O221 C202 1.266 . S
O222 Tb200 2.658 . S
O222 Tb201 2.325 . S
O222 C209 1.281 . S
O223 Tb200 2.409 . S
O223 C209 1.254 . S
O224 Tb200 2.378 . S
O224 C210 1.236 . S
O225 Tb201 2.341 . S
O225 C210 1.266 . S
O226 Tb201 2.484 . S
O226 C211 1.248 . S
O227 Tb201 2.440 . S
O227 C211 1.266 . S
O228 Tb200 2.325 . S
O228 Tb201 2.658 . S
O228 C218 1.281 . S
O229 Tb201 2.409 . S
O229 C218 1.254 . S
O230 Tb201 2.378 . S
O230 C219 1.236 . S
O231 Tb200 2.341 . S
O231 C219 1.266 . S
H232 C204 0.929 . S
H233 C205 0.931 . S
H234 C207 0.930 . S
H235 C208 0.930 . S
H236 C213 0.929 . S
H237 C214 0.931 . S
H238 C216 0.930 . S
H239 C217 0.930 . S
Tb240 C242 2.809 . S
Tb240 O260 2.484 . S
Tb240 O261 2.440 . S
Tb240 O262 2.658 . S
Tb240 O263 2.409 . S
Tb240 O264 2.378 . S
Tb240 O268 2.325 . S
Tb240 O271 2.341 . S
Tb241 C251 2.809 . S
Tb241 O262 2.325 . S
Tb241 O265 2.341 . S
Tb241 O266 2.484 . S
Tb241 O267 2.440 . S
Tb241 O268 2.658 . S
Tb241 O269 2.409 . S
Tb241 O270 2.378 . S
C242 Tb240 2.809 . S
C242 C243 1.514 . S
C242 O260 1.248 . S
C242 O261 1.266 . S
C243 C242 1.514 . S
C243 C244 1.359 . S
C243 C248 1.348 . S
C244 C243 1.359 . S
C244 C245 1.380 . S
C244 H272 0.929 . S
C245 C244 1.380 . S
C245 C246 1.347 . S
C245 H273 0.931 . S
C246 C245 1.347 . S
C246 C247 1.369 . S
C247 C246 1.369 . S
C247 C248 1.408 . S
C247 H274 0.930 . S
C248 C243 1.348 . S
C248 C247 1.408 . S
C248 H275 0.930 . S
C249 O262 1.281 . S
C249 O263 1.254 . S
C250 O264 1.236 . S
C250 O265 1.266 . S
C251 Tb241 2.809 . S
C251 C252 1.514 1_545 S
C251 O266 1.248 . S
C251 O267 1.266 . S
C252 C251 1.514 1_565 S
C252 C253 1.359 . S
C252 C257 1.348 . S
C253 C252 1.359 . S
C253 C254 1.380 . S
C253 H276 0.929 . S
C254 C253 1.380 . S
C254 C255 1.347 . S
C254 H277 0.931 . S
C255 C254 1.347 . S
C255 C256 1.369 . S
C256 C255 1.369 . S
C256 C257 1.408 . S
C256 H278 0.930 . S
C257 C252 1.348 . S
C257 C256 1.408 . S
C257 H279 0.930 . S
C258 O268 1.281 . S
C258 O269 1.254 . S
C259 O270 1.236 . S
C259 O271 1.266 . S
O260 Tb240 2.484 . S
O260 C242 1.248 . S
O261 Tb240 2.440 . S
O261 C242 1.266 . S
O262 Tb240 2.658 . S
O262 Tb241 2.325 . S
O262 C249 1.281 . S
O263 Tb240 2.409 . S
O263 C249 1.254 . S
O264 Tb240 2.378 . S
O264 C250 1.236 . S
O265 Tb241 2.341 . S
O265 C250 1.266 . S
O266 Tb241 2.484 . S
O266 C251 1.248 . S
O267 Tb241 2.440 . S
O267 C251 1.266 . S
O268 Tb240 2.325 . S
O268 Tb241 2.658 . S
O268 C258 1.281 . S
O269 Tb241 2.409 . S
O269 C258 1.254 . S
O270 Tb241 2.378 . S
O270 C259 1.236 . S
O271 Tb240 2.341 . S
O271 C259 1.266 . S
H272 C244 0.929 . S
H273 C245 0.931 . S
H274 C247 0.930 . S
H275 C248 0.930 . S
H276 C253 0.929 . S
H277 C254 0.931 . S
H278 C256 0.930 . S
H279 C257 0.930 . S
Tb280 C282 2.809 . S
Tb280 O300 2.484 . S
Tb280 O301 2.440 . S
Tb280 O302 2.658 . S
Tb280 O303 2.409 . S
Tb280 O304 2.378 . S
Tb280 O308 2.325 . S
Tb280 O311 2.341 . S
Tb281 C291 2.809 1_655 S
Tb281 O302 2.325 . S
Tb281 O305 2.341 . S
Tb281 O306 2.484 . S
Tb281 O307 2.440 . S
Tb281 O308 2.658 . S
Tb281 O309 2.409 . S
Tb281 O310 2.378 . S
C282 Tb280 2.809 . S
C282 C283 1.514 . S
C282 O300 1.248 . S
C282 O301 1.266 . S
C283 C282 1.514 . S
C283 C284 1.359 . S
C283 C288 1.348 . S
C284 C283 1.359 . S
C284 C285 1.380 . S
C284 H312 0.929 . S
C285 C284 1.380 . S
C285 C286 1.347 . S
C285 H313 0.931 . S
C286 C285 1.347 . S
C286 C287 1.369 . S
C287 C286 1.369 . S
C287 C288 1.408 . S
C287 H314 0.930 . S
C288 C283 1.348 . S
C288 C287 1.408 . S
C288 H315 0.930 . S
C289 O302 1.281 . S
C289 O303 1.254 . S
C290 O304 1.236 . S
C290 O305 1.266 . S
C291 Tb281 2.809 1_455 S
C291 C292 1.514 . S
C291 O306 1.248 1_455 S
C291 O307 1.266 1_455 S
C292 C291 1.514 . S
C292 C293 1.359 . S
C292 C297 1.348 . S
C293 C292 1.359 . S
C293 C294 1.380 . S
C293 H316 0.929 . S
C294 C293 1.380 . S
C294 C295 1.347 . S
C294 H317 0.931 . S
C295 C294 1.347 . S
C295 C296 1.369 . S
C296 C295 1.369 . S
C296 C297 1.408 . S
C296 H318 0.930 . S
C297 C292 1.348 . S
C297 C296 1.408 . S
C297 H319 0.930 . S
C298 O308 1.281 . S
C298 O309 1.254 . S
C299 O310 1.236 . S
C299 O311 1.266 . S
O300 Tb280 2.484 . S
O300 C282 1.248 . S
O301 Tb280 2.440 . S
O301 C282 1.266 . S
O302 Tb280 2.658 . S
O302 Tb281 2.325 . S
O302 C289 1.281 . S
O303 Tb280 2.409 . S
O303 C289 1.254 . S
O304 Tb280 2.378 . S
O304 C290 1.236 . S
O305 Tb281 2.341 . S
O305 C290 1.266 . S
O306 Tb281 2.484 . S
O306 C291 1.248 1_655 S
O307 Tb281 2.440 . S
O307 C291 1.266 1_655 S
O308 Tb280 2.325 . S
O308 Tb281 2.658 . S
O308 C298 1.281 . S
O309 Tb281 2.409 . S
O309 C298 1.254 . S
O310 Tb281 2.378 . S
O310 C299 1.236 . S
O311 Tb280 2.341 . S
O311 C299 1.266 . S
H312 C284 0.929 . S
H313 C285 0.931 . S
H314 C287 0.930 . S
H315 C288 0.930 . S
H316 C293 0.929 . S
H317 C294 0.931 . S
H318 C296 0.930 . S
H319 C297 0.930 . S
Tb320 C322 2.809 . S
Tb320 O340 2.484 . S
Tb320 O341 2.440 . S
Tb320 O342 2.658 . S
Tb320 O343 2.409 . S
Tb320 O344 2.378 . S
Tb320 O348 2.325 . S
Tb320 O351 2.341 . S
Tb321 C331 2.809 . S
Tb321 O342 2.325 . S
Tb321 O345 2.341 . S
Tb321 O346 2.484 . S
Tb321 O347 2.440 . S
Tb321 O348 2.658 . S
Tb321 O349 2.409 . S
Tb321 O350 2.378 . S
C322 Tb320 2.809 . S
C322 C323 1.514 . S
C322 O340 1.248 . S
C322 O341 1.266 . S
C323 C322 1.514 . S
C323 C324 1.359 . S
C323 C328 1.348 . S
C324 C323 1.359 . S
C324 C325 1.380 . S
C324 H352 0.929 . S
C325 C324 1.380 . S
C325 C326 1.347 . S
C325 H353 0.931 . S
C326 C325 1.347 . S
C326 C327 1.369 . S
C327 C326 1.369 . S
C327 C328 1.408 . S
C327 H354 0.930 . S
C328 C323 1.348 . S
C328 C327 1.408 . S
C328 H355 0.930 . S
C329 O342 1.281 . S
C329 O343 1.254 . S
C330 O344 1.236 . S
C330 O345 1.266 . S
C331 Tb321 2.809 . S
C331 C332 1.514 . S
C331 O346 1.248 . S
C331 O347 1.266 . S
C332 C331 1.514 . S
C332 C333 1.359 . S
C332 C337 1.348 . S
C333 C332 1.359 . S
C333 C334 1.380 . S
C333 H356 0.929 . S
C334 C333 1.380 . S
C334 C335 1.347 . S
C334 H357 0.931 . S
C335 C334 1.347 . S
C335 C336 1.369 . S
C336 C335 1.369 . S
C336 C337 1.408 . S
C336 H358 0.930 . S
C337 C332 1.348 . S
C337 C336 1.408 . S
C337 H359 0.930 . S
C338 O348 1.281 . S
C338 O349 1.254 . S
C339 O350 1.236 . S
C339 O351 1.266 . S
O340 Tb320 2.484 . S
O340 C322 1.248 . S
O341 Tb320 2.440 . S
O341 C322 1.266 . S
O342 Tb320 2.658 . S
O342 Tb321 2.325 . S
O342 C329 1.281 . S
O343 Tb320 2.409 . S
O343 C329 1.254 . S
O344 Tb320 2.378 . S
O344 C330 1.236 . S
O345 Tb321 2.341 . S
O345 C330 1.266 . S
O346 Tb321 2.484 . S
O346 C331 1.248 . S
O347 Tb321 2.440 . S
O347 C331 1.266 . S
O348 Tb320 2.325 . S
O348 Tb321 2.658 . S
O348 C338 1.281 . S
O349 Tb321 2.409 . S
O349 C338 1.254 . S
O350 Tb321 2.378 . S
O350 C339 1.236 . S
O351 Tb320 2.341 . S
O351 C339 1.266 . S
H352 C324 0.929 . S
H353 C325 0.931 . S
H354 C327 0.930 . S
H355 C328 0.930 . S
H356 C333 0.929 . S
H357 C334 0.931 . S
H358 C336 0.930 . S
H359 C337 0.930 . S
H360 C368 0.950 . S
H361 C373 0.950 . S
H362 C370 0.950 . S
H363 C372 0.950 . S
H364 C374 0.950 . S
H365 C376 0.950 . S
H366 C378 0.950 . S
H367 C379 0.950 . S
C368 H360 0.950 . S
C368 C369 1.386 . S
C368 C370 1.391 . S
C369 C368 1.386 . S
C369 C373 1.393 1_556 S
C370 H362 0.950 . S
C370 C368 1.391 . S
C370 C371 1.400 . S
C371 C370 1.400 . S
C371 C372 1.398 1_556 S
C371 C377 1.491 . S
C372 H363 0.950 . S
C372 C371 1.398 1_554 S
C372 C373 1.391 . S
C373 H361 0.950 . S
C373 C369 1.393 1_554 S
C373 C372 1.391 . S
C374 H364 0.950 . S
C374 C375 1.386 1_554 S
C374 C376 1.391 . S
C375 C374 1.386 1_556 S
C375 C379 1.393 . S
C376 H365 0.950 . S
C376 C374 1.391 . S
C376 C377 1.400 1_554 S
C377 C371 1.491 . S
C377 C376 1.400 1_556 S
C377 C378 1.398 . S
C378 H366 0.950 . S
C378 C377 1.398 . S
C378 C379 1.391 . S
C379 H367 0.950 . S
C379 C375 1.393 . S
C379 C378 1.391 . S
H380 C388 0.950 . S
H381 C393 0.950 . S
H382 C390 0.950 . S
H383 C392 0.950 . S
H384 C394 0.950 . S
H385 C396 0.950 . S
H386 C398 0.950 . S
H387 C399 0.950 . S
C388 H380 0.950 . S
C388 C389 1.386 1_554 S
C388 C390 1.391 . S
C389 C388 1.386 1_556 S
C389 C393 1.393 . S
C390 H382 0.950 . S
C390 C388 1.391 . S
C390 C391 1.400 1_554 S
C391 C390 1.400 1_556 S
C391 C392 1.398 . S
C391 C397 1.491 . S
C392 H383 0.950 . S
C392 C391 1.398 . S
C392 C393 1.391 . S
C393 H381 0.950 . S
C393 C389 1.393 . S
C393 C392 1.391 . S
C394 H384 0.950 . S
C394 C395 1.386 . S
C394 C396 1.391 . S
C395 C394 1.386 . S
C395 C399 1.393 1_556 S
C396 H385 0.950 . S
C396 C394 1.391 . S
C396 C397 1.400 . S
C397 C391 1.491 . S
C397 C396 1.400 . S
C397 C398 1.398 1_556 S
C398 H386 0.950 . S
C398 C397 1.398 1_554 S
C398 C399 1.391 . S
C399 H387 0.950 . S
C399 C395 1.393 1_554 S
C399 C398 1.391 . S
H400 C408 0.950 . S
H401 C413 0.950 . S
H402 C410 0.950 . S
H403 C412 0.950 . S
H404 C414 0.950 . S
H405 C416 0.950 . S
H406 C418 0.950 . S
H407 C419 0.950 . S
C408 H400 0.950 . S
C408 C409 1.386 1_554 S
C408 C410 1.391 . S
C409 C408 1.386 1_556 S
C409 C413 1.393 . S
C410 H402 0.950 . S
C410 C408 1.391 . S
C410 C411 1.400 1_554 S
C411 C410 1.400 1_556 S
C411 C412 1.398 . S
C411 C417 1.491 . S
C412 H403 0.950 . S
C412 C411 1.398 . S
C412 C413 1.391 . S
C413 H401 0.950 . S
C413 C409 1.393 . S
C413 C412 1.391 . S
C414 H404 0.950 . S
C414 C415 1.386 . S
C414 C416 1.391 . S
C415 C414 1.386 . S
C415 C419 1.393 1_556 S
C416 H405 0.950 . S
C416 C414 1.391 . S
C416 C417 1.400 . S
C417 C411 1.491 . S
C417 C416 1.400 . S
C417 C418 1.398 1_556 S
C418 H406 0.950 . S
C418 C417 1.398 1_554 S
C418 C419 1.391 . S
C419 H407 0.950 . S
C419 C415 1.393 1_554 S
C419 C418 1.391 . S
H420 C428 0.950 1_556 S
H421 C433 0.950 . S
H422 C430 0.950 1_556 S
H423 C432 0.950 . S
H424 C434 0.950 . S
H425 C436 0.950 . S
H426 C438 0.950 1_556 S
H427 C439 0.950 1_556 S
C428 H420 0.950 1_554 S
C428 C429 1.386 . S
C428 C430 1.391 . S
C429 C428 1.386 . S
C429 C433 1.393 . S
C430 H422 0.950 1_554 S
C430 C428 1.391 . S
C430 C431 1.400 . S
C431 C430 1.400 . S
C431 C432 1.398 . S
C431 C437 1.491 . S
C432 H423 0.950 . S
C432 C431 1.398 . S
C432 C433 1.391 . S
C433 H421 0.950 . S
C433 C429 1.393 . S
C433 C432 1.391 . S
C434 H424 0.950 . S
C434 C435 1.386 . S
C434 C436 1.391 . S
C435 C434 1.386 . S
C435 C439 1.393 . S
C436 H425 0.950 . S
C436 C434 1.391 . S
C436 C437 1.400 . S
C437 C431 1.491 . S
C437 C436 1.400 . S
C437 C438 1.398 . S
C438 H426 0.950 1_554 S
C438 C437 1.398 . S
C438 C439 1.391 . S
C439 H427 0.950 1_554 S
C439 C435 1.393 . S
C439 C438 1.391 . S
H440 C448 0.950 . S
H441 C453 0.950 . S
H442 C450 0.950 . S
H443 C452 0.950 . S
H444 C454 0.950 . S
H445 C456 0.950 . S
H446 C458 0.950 . S
H447 C459 0.950 . S
C448 H440 0.950 . S
C448 C449 1.386 . S
C448 C450 1.391 . S
C449 C448 1.386 . S
C449 C453 1.393 1_554 S
C450 H442 0.950 . S
C450 C448 1.391 . S
C450 C451 1.400 . S
C451 C450 1.400 . S
C451 C452 1.398 1_554 S
C451 C457 1.491 . S
C452 H443 0.950 . S
C452 C451 1.398 1_556 S
C452 C453 1.391 . S
C453 H441 0.950 . S
C453 C449 1.393 1_556 S
C453 C452 1.391 . S
C454 H444 0.950 . S
C454 C455 1.386 1_556 S
C454 C456 1.391 . S
C455 C454 1.386 1_554 S
C455 C459 1.393 . S
C456 H445 0.950 . S
C456 C454 1.391 . S
C456 C457 1.400 1_556 S
C457 C451 1.491 . S
C457 C456 1.400 1_554 S
C457 C458 1.398 . S
C458 H446 0.950 . S
C458 C457 1.398 . S
C458 C459 1.391 . S
C459 H447 0.950 . S
C459 C455 1.393 . S
C459 C458 1.391 . S
H460 C468 0.950 . S
H461 C473 0.950 . S
H462 C470 0.950 . S
H463 C472 0.950 . S
H464 C474 0.950 . S
H465 C476 0.950 . S
H466 C478 0.950 . S
H467 C479 0.950 . S
C468 H460 0.950 . S
C468 C469 1.386 . S
C468 C470 1.391 . S
C469 C468 1.386 . S
C469 C473 1.393 1_554 S
C470 H462 0.950 . S
C470 C468 1.391 . S
C470 C471 1.400 . S
C471 C470 1.400 . S
C471 C472 1.398 1_554 S
C471 C477 1.491 . S
C472 H463 0.950 . S
C472 C471 1.398 1_556 S
C472 C473 1.391 . S
C473 H461 0.950 . S
C473 C469 1.393 1_556 S
C473 C472 1.391 . S
C474 H464 0.950 . S
C474 C475 1.386 1_556 S
C474 C476 1.391 . S
C475 C474 1.386 1_554 S
C475 C479 1.393 . S
C476 H465 0.950 . S
C476 C474 1.391 . S
C476 C477 1.400 1_556 S
C477 C471 1.491 . S
C477 C476 1.400 1_554 S
C477 C478 1.398 . S
C478 H466 0.950 . S
C478 C477 1.398 . S
C478 C479 1.391 . S
C479 H467 0.950 . S
C479 C475 1.393 . S
C479 C478 1.391 . S
H480 C488 0.950 . S
H481 C493 0.950 . S
H482 C490 0.950 . S
H483 C492 0.950 . S
H484 C494 0.950 . S
H485 C496 0.950 . S
H486 C498 0.950 . S
H487 C499 0.950 . S
C488 H480 0.950 . S
C488 C489 1.386 . S
C488 C490 1.391 . S
C489 C488 1.386 . S
C489 C493 1.393 . S
C490 H482 0.950 . S
C490 C488 1.391 . S
C490 C491 1.400 . S
C491 C490 1.400 . S
C491 C492 1.398 . S
C491 C497 1.491 . S
C492 H483 0.950 . S
C492 C491 1.398 . S
C492 C493 1.391 . S
C493 H481 0.950 . S
C493 C489 1.393 . S
C493 C492 1.391 . S
C494 H484 0.950 . S
C494 C495 1.386 . S
C494 C496 1.391 . S
C495 C494 1.386 . S
C495 C499 1.393 . S
C496 H485 0.950 . S
C496 C494 1.391 . S
C496 C497 1.400 . S
C497 C491 1.491 . S
C497 C496 1.400 . S
C497 C498 1.398 . S
C498 H486 0.950 . S
C498 C497 1.398 . S
C498 C499 1.391 . S
C499 H487 0.950 . S
C499 C495 1.393 . S
C499 C498 1.391 . S
H500 C508 0.950 . S
H501 C513 0.950 . S
H502 C510 0.950 . S
H503 C512 0.950 . S
H504 C514 0.950 . S
H505 C516 0.950 . S
H506 C518 0.950 . S
H507 C519 0.950 . S
C508 H500 0.950 . S
C508 C509 1.386 . S
C508 C510 1.391 . S
C509 C508 1.386 . S
C509 C513 1.393 . S
C510 H502 0.950 . S
C510 C508 1.391 . S
C510 C511 1.400 . S
C511 C510 1.400 . S
C511 C512 1.398 . S
C511 C517 1.491 . S
C512 H503 0.950 . S
C512 C511 1.398 . S
C512 C513 1.391 . S
C513 H501 0.950 . S
C513 C509 1.393 . S
C513 C512 1.391 . S
C514 H504 0.950 . S
C514 C515 1.386 . S
C514 C516 1.389 . S
C515 C514 1.386 . S
C515 C519 1.393 1_565 S
C516 H505 0.950 . S
C516 C514 1.389 . S
C516 C517 1.402 1_565 S
C517 C511 1.491 . S
C517 C516 1.402 1_545 S
C517 C518 1.398 . S
C518 H506 0.950 . S
C518 C517 1.398 . S
C518 C519 1.391 . S
C519 H507 0.950 . S
C519 C515 1.393 1_545 S
C519 C518 1.391 . S
H520 C528 0.950 . S
H521 C533 0.950 . S
H522 C530 0.950 . S
H523 C532 0.950 . S
H524 C534 0.950 . S
H525 C536 0.950 . S
H526 C538 0.950 . S
H527 C539 0.950 . S
C528 H520 0.950 . S
C528 C529 1.386 1_655 S
C528 C530 1.391 . S
C529 C528 1.386 1_455 S
C529 C533 1.393 . S
C530 H522 0.950 . S
C530 C528 1.391 . S
C530 C531 1.400 . S
C531 C530 1.400 . S
C531 C532 1.398 1_655 S
C531 C537 1.491 . S
C532 H523 0.950 . S
C532 C531 1.398 1_455 S
C532 C533 1.391 . S
C533 H521 0.950 . S
C533 C529 1.393 . S
C533 C532 1.391 . S
C534 H524 0.950 . S
C534 C535 1.386 . S
C534 C536 1.391 . S
C535 C534 1.386 . S
C535 C539 1.393 . S
C536 H525 0.950 . S
C536 C534 1.391 . S
C536 C537 1.400 . S
C537 C531 1.491 . S
C537 C536 1.400 . S
C537 C538 1.398 . S
C538 H526 0.950 . S
C538 C537 1.398 . S
C538 C539 1.391 . S
C539 H527 0.950 . S
C539 C535 1.393 . S
C539 C538 1.391 . S
H540 C548 0.950 . S
H541 C553 0.950 . S
H542 C550 0.950 . S
H543 C552 0.950 . S
H544 C554 0.950 . S
H545 C556 0.950 . S
H546 C558 0.950 . S
H547 C559 0.950 . S
C548 H540 0.950 . S
C548 C549 1.386 . S
C548 C550 1.391 . S
C549 C548 1.386 . S
C549 C553 1.393 . S
C550 H542 0.950 . S
C550 C548 1.391 . S
C550 C551 1.400 . S
C551 C550 1.400 . S
C551 C552 1.398 . S
C551 C557 1.491 . S
C552 H543 0.950 . S
C552 C551 1.398 . S
C552 C553 1.391 . S
C553 H541 0.950 . S
C553 C549 1.393 . S
C553 C552 1.391 . S
C554 H544 0.950 . S
C554 C555 1.386 . S
C554 C556 1.391 . S
C555 C554 1.386 . S
C555 C559 1.393 . S
C556 H545 0.950 . S
C556 C554 1.391 . S
C556 C557 1.400 . S
C557 C551 1.491 . S
C557 C556 1.400 . S
C557 C558 1.398 . S
C558 H546 0.950 . S
C558 C557 1.398 . S
C558 C559 1.391 . S
C559 H547 0.950 . S
C559 C555 1.393 . S
C559 C558 1.391 . S
H560 C568 0.950 . S
H561 C573 0.950 . S
H562 C570 0.950 . S
H563 C572 0.950 . S
H564 C574 0.950 . S
H565 C576 0.950 . S
H566 C578 0.950 . S
H567 C579 0.950 . S
C568 H560 0.950 . S
C568 C569 1.386 . S
C568 C570 1.391 . S
C569 C568 1.386 . S
C569 C573 1.393 . S
C570 H562 0.950 . S
C570 C568 1.391 . S
C570 C571 1.400 . S
C571 C570 1.400 . S
C571 C572 1.398 . S
C571 C577 1.491 . S
C572 H563 0.950 . S
C572 C571 1.398 . S
C572 C573 1.391 . S
C573 H561 0.950 . S
C573 C569 1.393 . S
C573 C572 1.391 . S
C574 H564 0.950 . S
C574 C575 1.386 . S
C574 C576 1.391 . S
C575 C574 1.386 . S
C575 C579 1.393 . S
C576 H565 0.950 . S
C576 C574 1.391 . S
C576 C577 1.400 . S
C577 C571 1.491 . S
C577 C576 1.400 . S
C577 C578 1.398 . S
C578 H566 0.950 . S
C578 C577 1.398 . S
C578 C579 1.391 . S
C579 H567 0.950 . S
C579 C575 1.393 . S
C579 C578 1.391 . S
H580 C588 0.950 . S
H581 C593 0.950 . S
H582 C590 0.950 . S
H583 C592 0.950 . S
H584 C594 0.950 . S
H585 C596 0.950 . S
H586 C598 0.950 . S
H587 C599 0.950 . S
C588 H580 0.950 . S
C588 C589 1.386 . S
C588 C590 1.391 . S
C589 C588 1.386 . S
C589 C593 1.393 . S
C590 H582 0.950 . S
C590 C588 1.391 . S
C590 C591 1.400 . S
C591 C590 1.400 . S
C591 C592 1.398 . S
C591 C597 1.491 . S
C592 H583 0.950 . S
C592 C591 1.398 . S
C592 C593 1.391 . S
C593 H581 0.950 . S
C593 C589 1.393 . S
C593 C592 1.391 . S
C594 H584 0.950 . S
C594 C595 1.386 . S
C594 C596 1.391 . S
C595 C594 1.386 . S
C595 C599 1.393 . S
C596 H585 0.950 . S
C596 C594 1.391 . S
C596 C597 1.400 . S
C597 C591 1.491 . S
C597 C596 1.400 . S
C597 C598 1.398 . S
C598 H586 0.950 . S
C598 C597 1.398 . S
C598 C599 1.391 . S
C599 H587 0.950 . S
C599 C595 1.393 . S
C599 C598 1.391 . S
H600 C608 0.950 . S
H601 C613 0.950 . S
H602 C610 0.950 . S
H603 C612 0.950 . S
H604 C614 0.950 . S
H605 C616 0.950 . S
H606 C618 0.950 . S
H607 C619 0.950 . S
C608 H600 0.950 . S
C608 C609 1.386 . S
C608 C610 1.391 . S
C609 C608 1.386 . S
C609 C613 1.393 . S
C610 H602 0.950 . S
C610 C608 1.391 . S
C610 C611 1.400 . S
C611 C610 1.400 . S
C611 C612 1.398 . S
C611 C617 1.491 . S
C612 H603 0.950 . S
C612 C611 1.398 . S
C612 C613 1.391 . S
C613 H601 0.950 . S
C613 C609 1.393 . S
C613 C612 1.391 . S
C614 H604 0.950 . S
C614 C615 1.386 . S
C614 C616 1.391 . S
C615 C614 1.386 . S
C615 C619 1.393 . S
C616 H605 0.950 . S
C616 C614 1.391 . S
C616 C617 1.400 . S
C617 C611 1.491 . S
C617 C616 1.400 . S
C617 C618 1.398 . S
C618 H606 0.950 . S
C618 C617 1.398 . S
C618 C619 1.391 . S
C619 H607 0.950 . S
C619 C615 1.393 . S
C619 C618 1.391 . S
H620 C628 0.950 . S
H621 C633 0.950 . S
H622 C630 0.950 . S
H623 C632 0.950 . S
H624 C634 0.950 . S
H625 C636 0.950 . S
H626 C638 0.950 . S
H627 C639 0.950 . S
C628 H620 0.950 . S
C628 C629 1.386 . S
C628 C630 1.391 . S
C629 C628 1.386 . S
C629 C633 1.393 . S
C630 H622 0.950 . S
C630 C628 1.391 . S
C630 C631 1.400 . S
C631 C630 1.400 . S
C631 C632 1.398 . S
C631 C637 1.491 . S
C632 H623 0.950 . S
C632 C631 1.398 . S
C632 C633 1.391 . S
C633 H621 0.950 . S
C633 C629 1.393 . S
C633 C632 1.391 . S
C634 H624 0.950 . S
C634 C635 1.386 . S
C634 C636 1.391 . S
C635 C634 1.386 . S
C635 C639 1.393 . S
C636 H625 0.950 . S
C636 C634 1.391 . S
C636 C637 1.400 . S
C637 C631 1.491 . S
C637 C636 1.400 . S
C637 C638 1.398 . S
C638 H626 0.950 . S
C638 C637 1.398 . S
C638 C639 1.391 . S
C639 H627 0.950 . S
C639 C635 1.393 . S
C639 C638 1.391 . S
H640 C648 0.950 . S
H641 C653 0.950 . S
H642 C650 0.950 . S
H643 C652 0.950 . S
H644 C654 0.950 . S
H645 C656 0.950 . S
H646 C658 0.950 . S
H647 C659 0.950 . S
C648 H640 0.950 . S
C648 C649 1.386 . S
C648 C650 1.391 . S
C649 C648 1.386 . S
C649 C653 1.393 . S
C650 H642 0.950 . S
C650 C648 1.391 . S
C650 C651 1.400 . S
C651 C650 1.400 . S
C651 C652 1.398 . S
C651 C657 1.491 . S
C652 H643 0.950 . S
C652 C651 1.398 . S
C652 C653 1.391 . S
C653 H641 0.950 . S
C653 C649 1.393 . S
C653 C652 1.391 . S
C654 H644 0.950 . S
C654 C655 1.386 . S
C654 C656 1.391 . S
C655 C654 1.386 . S
C655 C659 1.393 . S
C656 H645 0.950 . S
C656 C654 1.391 . S
C656 C657 1.400 . S
C657 C651 1.491 . S
C657 C656 1.400 . S
C657 C658 1.398 . S
C658 H646 0.950 . S
C658 C657 1.398 . S
C658 C659 1.391 . S
C659 H647 0.950 . S
C659 C655 1.393 . S
C659 C658 1.391 . S
H660 C668 0.950 . S
H661 C673 0.950 . S
H662 C670 0.950 . S
H663 C672 0.950 1_545 S
H664 C674 0.950 . S
H665 C676 0.950 . S
H666 C678 0.950 . S
H667 C679 0.950 . S
C668 H660 0.950 . S
C668 C669 1.386 . S
C668 C670 1.391 . S
C669 C668 1.386 . S
C669 C673 1.393 . S
C670 H662 0.950 . S
C670 C668 1.391 . S
C670 C671 1.400 1_565 S
C671 C670 1.400 1_545 S
C671 C672 1.398 1_545 S
C671 C677 1.491 . S
C672 H663 0.950 1_565 S
C672 C671 1.398 1_565 S
C672 C673 1.391 . S
C673 H661 0.950 . S
C673 C669 1.393 . S
C673 C672 1.391 . S
C674 H664 0.950 . S
C674 C675 1.386 . S
C674 C676 1.391 . S
C675 C674 1.386 . S
C675 C679 1.393 . S
C676 H665 0.950 . S
C676 C674 1.391 . S
C676 C677 1.400 . S
C677 C671 1.491 . S
C677 C676 1.400 . S
C677 C678 1.398 . S
C678 H666 0.950 . S
C678 C677 1.398 . S
C678 C679 1.391 . S
C679 H667 0.950 . S
C679 C675 1.393 . S
C679 C678 1.391 . S
H680 C688 0.950 . S
H681 C693 0.950 . S
H682 C690 0.950 . S
H683 C692 0.950 . S
H684 C694 0.950 . S
H685 C696 0.950 . S
H686 C698 0.950 . S
H687 C699 0.950 . S
C688 H680 0.950 . S
C688 C689 1.386 . S
C688 C690 1.391 . S
C689 C688 1.386 . S
C689 C693 1.393 . S
C690 H682 0.950 . S
C690 C688 1.391 . S
C690 C691 1.400 . S
C691 C690 1.400 . S
C691 C692 1.398 . S
C691 C697 1.491 1_655 S
C692 H683 0.950 . S
C692 C691 1.398 . S
C692 C693 1.391 . S
C693 H681 0.950 . S
C693 C689 1.393 . S
C693 C692 1.391 . S
C694 H684 0.950 . S
C694 C695 1.386 . S
C694 C696 1.391 . S
C695 C694 1.386 . S
C695 C699 1.393 . S
C696 H685 0.950 . S
C696 C694 1.391 . S
C696 C697 1.400 . S
C697 C691 1.491 1_455 S
C697 C696 1.400 . S
C697 C698 1.398 . S
C698 H686 0.950 . S
C698 C697 1.398 . S
C698 C699 1.391 . S
C699 H687 0.950 . S
C699 C695 1.393 . S
C699 C698 1.391 . S
H700 C708 0.950 . S
H701 C713 0.950 . S
H702 C710 0.950 . S
H703 C712 0.950 . S
H704 C714 0.950 . S
H705 C716 0.950 . S
H706 C718 0.950 . S
H707 C719 0.950 . S
C708 H700 0.950 . S
C708 C709 1.386 . S
C708 C710 1.391 . S
C709 C708 1.386 . S
C709 C713 1.393 . S
C710 H702 0.950 . S
C710 C708 1.391 . S
C710 C711 1.400 . S
C711 C710 1.400 . S
C711 C712 1.398 . S
C711 C717 1.491 . S
C712 H703 0.950 . S
C712 C711 1.398 . S
C712 C713 1.391 . S
C713 H701 0.950 . S
C713 C709 1.393 . S
C713 C712 1.391 . S
C714 H704 0.950 . S
C714 C715 1.386 . S
C714 C716 1.391 . S
C715 C714 1.386 . S
C715 C719 1.393 . S
C716 H705 0.950 . S
C716 C714 1.391 . S
C716 C717 1.400 . S
C717 C711 1.491 . S
C717 C716 1.400 . S
C717 C718 1.398 . S
C718 H706 0.950 . S
C718 C717 1.398 . S
C718 C719 1.391 . S
C719 H707 0.950 . S
C719 C715 1.393 . S
C719 C718 1.391 . S
H720 C728 0.950 . S
H721 C733 0.950 . S
H722 C730 0.950 . S
H723 C732 0.950 . S
H724 C734 0.950 . S
H725 C736 0.950 . S
H726 C738 0.950 . S
H727 C739 0.950 1_655 S
C728 H720 0.950 . S
C728 C729 1.386 . S
C728 C730 1.391 . S
C729 C728 1.386 . S
C729 C733 1.393 . S
C730 H722 0.950 . S
C730 C728 1.391 . S
C730 C731 1.400 . S
C731 C730 1.400 . S
C731 C732 1.398 . S
C731 C737 1.491 . S
C732 H723 0.950 . S
C732 C731 1.398 . S
C732 C733 1.391 . S
C733 H721 0.950 . S
C733 C729 1.393 . S
C733 C732 1.391 . S
C734 H724 0.950 . S
C734 C735 1.386 . S
C734 C736 1.391 . S
C735 C734 1.386 . S
C735 C739 1.393 . S
C736 H725 0.950 . S
C736 C734 1.391 . S
C736 C737 1.400 . S
C737 C731 1.491 . S
C737 C736 1.400 . S
C737 C738 1.398 . S
C738 H726 0.950 . S
C738 C737 1.398 . S
C738 C739 1.391 . S
C739 H727 0.950 1_455 S
C739 C735 1.393 . S
C739 C738 1.391 . S
H740 C748 0.950 . S
H741 C753 0.950 . S
H742 C750 0.950 . S
H743 C752 0.950 . S
H744 C754 0.950 . S
H745 C756 0.950 . S
H746 C758 0.950 . S
H747 C759 0.950 . S
C748 H740 0.950 . S
C748 C749 1.386 . S
C748 C750 1.391 . S
C749 C748 1.386 . S
C749 C753 1.393 . S
C750 H742 0.950 . S
C750 C748 1.391 . S
C750 C751 1.400 . S
C751 C750 1.400 . S
C751 C752 1.398 . S
C751 C757 1.491 . S
C752 H743 0.950 . S
C752 C751 1.398 . S
C752 C753 1.391 . S
C753 H741 0.950 . S
C753 C749 1.393 . S
C753 C752 1.391 . S
C754 H744 0.950 . S
C754 C755 1.386 . S
C754 C756 1.391 . S
C755 C754 1.386 . S
C755 C759 1.393 . S
C756 H745 0.950 . S
C756 C754 1.391 . S
C756 C757 1.400 . S
C757 C751 1.491 . S
C757 C756 1.400 . S
C757 C758 1.398 . S
C758 H746 0.950 . S
C758 C757 1.398 . S
C758 C759 1.391 . S
C759 H747 0.950 . S
C759 C755 1.393 . S
C759 C758 1.391 . S
H760 C768 0.950 . S
H761 C773 0.950 . S
H762 C770 0.950 . S
H763 C772 0.950 1_545 S
H764 C774 0.950 . S
H765 C776 0.950 . S
H766 C778 0.950 . S
H767 C779 0.950 . S
C768 H760 0.950 . S
C768 C769 1.386 . S
C768 C770 1.391 . S
C769 C768 1.386 . S
C769 C773 1.393 1_565 S
C770 H762 0.950 . S
C770 C768 1.391 . S
C770 C771 1.400 . S
C771 C770 1.400 . S
C771 C772 1.398 . S
C771 C777 1.491 . S
C772 H763 0.950 1_565 S
C772 C771 1.398 . S
C772 C773 1.391 1_565 S
C773 H761 0.950 . S
C773 C769 1.393 1_545 S
C773 C772 1.391 1_545 S
C774 H764 0.950 . S
C774 C775 1.386 . S
C774 C776 1.391 . S
C775 C774 1.386 . S
C775 C779 1.393 . S
C776 H765 0.950 . S
C776 C774 1.391 . S
C776 C777 1.400 . S
C777 C771 1.491 . S
C777 C776 1.400 . S
C777 C778 1.398 . S
C778 H766 0.950 . S
C778 C777 1.398 . S
C778 C779 1.391 . S
C779 H767 0.950 . S
C779 C775 1.393 . S
C779 C778 1.391 . S
H780 C788 0.950 . S
H781 C793 0.950 1_565 S
H782 C790 0.950 . S
H783 C792 0.950 . S
H784 C794 0.950 . S
H785 C796 0.950 . S
H786 C798 0.950 . S
H787 C799 0.950 . S
C788 H780 0.950 . S
C788 C789 1.386 . S
C788 C790 1.391 . S
C789 C788 1.386 . S
C789 C793 1.393 . S
C790 H782 0.950 . S
C790 C788 1.391 . S
C790 C791 1.400 . S
C791 C790 1.400 . S
C791 C792 1.398 . S
C791 C797 1.491 . S
C792 H783 0.950 . S
C792 C791 1.398 . S
C792 C793 1.391 . S
C793 H781 0.950 1_545 S
C793 C789 1.393 . S
C793 C792 1.391 . S
C794 H784 0.950 . S
C794 C795 1.386 . S
C794 C796 1.391 . S
C795 C794 1.386 . S
C795 C799 1.393 . S
C796 H785 0.950 . S
C796 C794 1.391 . S
C796 C797 1.400 . S
C797 C791 1.491 . S
C797 C796 1.400 . S
C797 C798 1.398 . S
C798 H786 0.950 . S
C798 C797 1.398 . S
C798 C799 1.391 . S
C799 H787 0.950 . S
C799 C795 1.393 . S
C799 C798 1.391 . S
H800 C808 0.950 . S
H801 C813 0.950 1_455 S
H802 C810 0.950 . S
H803 C812 0.950 . S
H804 C814 0.950 . S
H805 C816 0.950 . S
H806 C818 0.950 . S
H807 C819 0.950 . S
C808 H800 0.950 . S
C808 C809 1.386 . S
C808 C810 1.391 . S
C809 C808 1.386 . S
C809 C813 1.393 . S
C810 H802 0.950 . S
C810 C808 1.391 . S
C810 C811 1.400 . S
C811 C810 1.400 . S
C811 C812 1.398 . S
C811 C817 1.491 . S
C812 H803 0.950 . S
C812 C811 1.398 . S
C812 C813 1.391 . S
C813 H801 0.950 1_655 S
C813 C809 1.393 . S
C813 C812 1.391 . S
C814 H804 0.950 . S
C814 C815 1.386 . S
C814 C816 1.391 . S
C815 C814 1.386 . S
C815 C819 1.393 . S
C816 H805 0.950 . S
C816 C814 1.391 . S
C816 C817 1.400 . S
C817 C811 1.491 . S
C817 C816 1.400 . S
C817 C818 1.398 . S
C818 H806 0.950 . S
C818 C817 1.398 . S
C818 C819 1.391 . S
C819 H807 0.950 . S
C819 C815 1.393 . S
C819 C818 1.391 . S
H820 C828 0.950 . S
H821 C833 0.950 . S
H822 C830 0.950 . S
H823 C832 0.950 . S
H824 C834 0.950 . S
H825 C836 0.950 . S
H826 C838 0.950 . S
H827 C839 0.950 . S
C828 H820 0.950 . S
C828 C829 1.386 . S
C828 C830 1.391 . S
C829 C828 1.386 . S
C829 C833 1.393 . S
C830 H822 0.950 . S
C830 C828 1.391 . S
C830 C831 1.400 . S
C831 C830 1.400 . S
C831 C832 1.398 . S
C831 C837 1.491 . S
C832 H823 0.950 . S
C832 C831 1.398 . S
C832 C833 1.391 . S
C833 H821 0.950 . S
C833 C829 1.393 . S
C833 C832 1.391 . S
C834 H824 0.950 . S
C834 C835 1.386 . S
C834 C836 1.391 . S
C835 C834 1.386 . S
C835 C839 1.393 . S
C836 H825 0.950 . S
C836 C834 1.391 . S
C836 C837 1.400 . S
C837 C831 1.491 . S
C837 C836 1.400 . S
C837 C838 1.398 . S
C838 H826 0.950 . S
C838 C837 1.398 . S
C838 C839 1.391 . S
C839 H827 0.950 . S
C839 C835 1.393 . S
C839 C838 1.391 . S
H840 C848 0.950 . S
H841 C853 0.950 . S
H842 C850 0.950 . S
H843 C852 0.950 . S
H844 C854 0.950 . S
H845 C856 0.950 . S
H846 C858 0.950 . S
H847 C859 0.950 . S
C848 H840 0.950 . S
C848 C849 1.386 . S
C848 C850 1.391 . S
C849 C848 1.386 . S
C849 C853 1.393 . S
C850 H842 0.950 . S
C850 C848 1.391 . S
C850 C851 1.400 . S
C851 C850 1.400 . S
C851 C852 1.398 . S
C851 C857 1.491 . S
C852 H843 0.950 . S
C852 C851 1.398 . S
C852 C853 1.391 . S
C853 H841 0.950 . S
C853 C849 1.393 . S
C853 C852 1.391 . S
C854 H844 0.950 . S
C854 C855 1.386 . S
C854 C856 1.391 . S
C855 C854 1.386 . S
C855 C859 1.393 . S
C856 H845 0.950 . S
C856 C854 1.391 . S
C856 C857 1.400 . S
C857 C851 1.491 . S
C857 C856 1.400 . S
C857 C858 1.398 . S
C858 H846 0.950 . S
C858 C857 1.398 . S
C858 C859 1.391 . S
C859 H847 0.950 . S
C859 C855 1.393 . S
C859 C858 1.391 . S
H860 C868 0.950 . S
H861 C873 0.950 . S
H862 C870 0.950 . S
H863 C872 0.950 . S
H864 C874 0.950 . S
H865 C876 0.950 . S
H866 C878 0.950 . S
H867 C879 0.950 . S
C868 H860 0.950 . S
C868 C869 1.386 . S
C868 C870 1.391 . S
C869 C868 1.386 . S
C869 C873 1.393 . S
C870 H862 0.950 . S
C870 C868 1.391 . S
C870 C871 1.400 . S
C871 C870 1.400 . S
C871 C872 1.398 . S
C871 C877 1.491 1_565 S
C872 H863 0.950 . S
C872 C871 1.398 . S
C872 C873 1.391 . S
C873 H861 0.950 . S
C873 C869 1.393 . S
C873 C872 1.391 . S
C874 H864 0.950 . S
C874 C875 1.386 . S
C874 C876 1.391 . S
C875 C874 1.386 . S
C875 C879 1.393 . S
C876 H865 0.950 . S
C876 C874 1.391 . S
C876 C877 1.400 . S
C877 C871 1.491 1_545 S
C877 C876 1.400 . S
C877 C878 1.398 . S
C878 H866 0.950 . S
C878 C877 1.398 . S
C878 C879 1.391 . S
C879 H867 0.950 . S
C879 C875 1.393 . S
C879 C878 1.391 . S
H880 C888 0.950 . S
H881 C893 0.950 . S
H882 C890 0.950 . S
H883 C892 0.950 1_455 S
H884 C894 0.950 . S
H885 C896 0.950 . S
H886 C898 0.950 1_655 S
H887 C899 0.950 . S
C888 H880 0.950 . S
C888 C889 1.386 . S
C888 C890 1.391 . S
C889 C888 1.386 . S
C889 C893 1.393 . S
C890 H882 0.950 . S
C890 C888 1.391 . S
C890 C891 1.400 . S
C891 C890 1.400 . S
C891 C892 1.398 . S
C891 C897 1.491 1_655 S
C892 H883 0.950 1_655 S
C892 C891 1.398 . S
C892 C893 1.391 . S
C893 H881 0.950 . S
C893 C889 1.393 . S
C893 C892 1.391 . S
C894 H884 0.950 . S
C894 C895 1.386 . S
C894 C896 1.391 . S
C895 C894 1.386 . S
C895 C899 1.393 . S
C896 H885 0.950 . S
C896 C894 1.391 . S
C896 C897 1.400 . S
C897 C891 1.491 1_455 S
C897 C896 1.400 . S
C897 C898 1.398 . S
C898 H886 0.950 1_455 S
C898 C897 1.398 . S
C898 C899 1.391 . S
C899 H887 0.950 . S
C899 C895 1.393 . S
C899 C898 1.391 . S
C369 C46 1.605 . S
C375 C10 1.660 . S
C389 C86 1.623 . S
C395 C50 1.668 . S
C409 C90 1.667 . S
C415 C6 1.622 . S
C429 C95 1.441 . S
C435 C59 1.404 . S
C449 C99 1.392 . S
C455 C15 1.435 . S
C469 C19 1.395 . S
C475 C55 1.437 . S
C489 C130 1.660 . S
C495 C166 1.610 1_655 S
C509 C206 1.625 . S
C515 C170 1.669 . S
C529 C210 1.665 . S
C535 C126 1.619 1_545 S
C549 C179 1.412 . S
C555 C215 1.446 . S
C569 C219 1.410 . S
C575 C135 1.444 . S
C589 C175 1.442 . S
C595 C139 1.403 . S
C609 C286 1.624 . S
C615 C250 1.669 . S
C629 C290 1.662 . S
C635 C326 1.614 . S
C649 C330 1.673 . S
C655 C246 1.628 . S
C669 C335 1.434 . S
C675 C299 1.389 . S
C689 C339 1.413 . S
C695 C255 1.447 . S
C709 C259 1.387 . S
C715 C295 1.433 . S
C729 C209 2.548 . S
C735 C18 2.191 . S
C749 C129 2.548 . S
C755 C58 2.209 . S
C769 C98 2.213 1_565 S
C775 C169 2.551 . S
C789 C89 2.551 . S
C795 C258 2.212 . S
C809 C9 2.550 . S
C815 C298 2.200 . S
C829 C338 2.209 . S
C835 C49 2.551 . S
C849 C138 2.199 . S
C855 C329 2.547 . S
C869 C178 2.191 . S
C875 C249 2.546 . S
C889 C289 2.547 . S
C895 C218 2.196 . S
