# Generated by pormake.
# Topology snz, (6)-cn, num edge types: 1
# Building blocks:
#     Node 0, Type 0, BuildingBlock: GEDQOX_clean_sbu_0, # of connection points: 6
#     Node 1, Type 0, BuildingBlock: GEDQOX_clean_sbu_0, # of connection points: 6
#     Node 2, Type 0, BuildingBlock: GEDQOX_clean_sbu_0, # of connection points: 6
#     Node 3, Type 0, BuildingBlock: GEDQOX_clean_sbu_0, # of connection points: 6
#     Node 4, Type 0, BuildingBlock: GEDQOX_clean_sbu_0, # of connection points: 6
#     Node 5, Type 0, BuildingBlock: GEDQOX_clean_sbu_0, # of connection points: 6
#     Node 6, Type 0, BuildingBlock: GEDQOX_clean_sbu_0, # of connection points: 6
#     Node 7, Type 0, BuildingBlock: GEDQOX_clean_sbu_0, # of connection points: 6
#     Node 8, Type 0, BuildingBlock: GEDQOX_clean_sbu_0, # of connection points: 6
#     Edge 9, Type (0, 0), BuildingBlock: AJUNOK_clean_linker_0, # of connection points: 2
#     Edge 10, Type (0, 0), BuildingBlock: AJUNOK_clean_linker_0, # of connection points: 2
#     Edge 11, Type (0, 0), BuildingBlock: AJUNOK_clean_linker_0, # of connection points: 2
#     Edge 12, Type (0, 0), BuildingBlock: AJUNOK_clean_linker_0, # of connection points: 2
#     Edge 13, Type (0, 0), BuildingBlock: AJUNOK_clean_linker_0, # of connection points: 2
#     Edge 14, Type (0, 0), BuildingBlock: AJUNOK_clean_linker_0, # of connection points: 2
#     Edge 15, Type (0, 0), BuildingBlock: AJUNOK_clean_linker_0, # of connection points: 2
#     Edge 16, Type (0, 0), BuildingBlock: AJUNOK_clean_linker_0, # of connection points: 2
#     Edge 17, Type (0, 0), BuildingBlock: AJUNOK_clean_linker_0, # of connection points: 2
#     Edge 18, Type (0, 0), BuildingBlock: AJUNOK_clean_linker_0, # of connection points: 2
#     Edge 19, Type (0, 0), BuildingBlock: AJUNOK_clean_linker_0, # of connection points: 2
#     Edge 20, Type (0, 0), BuildingBlock: AJUNOK_clean_linker_0, # of connection points: 2
#     Edge 21, Type (0, 0), BuildingBlock: AJUNOK_clean_linker_0, # of connection points: 2
#     Edge 22, Type (0, 0), BuildingBlock: AJUNOK_clean_linker_0, # of connection points: 2
#     Edge 23, Type (0, 0), BuildingBlock: AJUNOK_clean_linker_0, # of connection points: 2
#     Edge 24, Type (0, 0), BuildingBlock: AJUNOK_clean_linker_0, # of connection points: 2
#     Edge 25, Type (0, 0), BuildingBlock: AJUNOK_clean_linker_0, # of connection points: 2
#     Edge 26, Type (0, 0), BuildingBlock: AJUNOK_clean_linker_0, # of connection points: 2
#     Edge 27, Type (0, 0), BuildingBlock: AJUNOK_clean_linker_0, # of connection points: 2
#     Edge 28, Type (0, 0), BuildingBlock: AJUNOK_clean_linker_0, # of connection points: 2
#     Edge 29, Type (0, 0), BuildingBlock: AJUNOK_clean_linker_0, # of connection points: 2
#     Edge 30, Type (0, 0), BuildingBlock: AJUNOK_clean_linker_0, # of connection points: 2
#     Edge 31, Type (0, 0), BuildingBlock: AJUNOK_clean_linker_0, # of connection points: 2
#     Edge 32, Type (0, 0), BuildingBlock: AJUNOK_clean_linker_0, # of connection points: 2
#     Edge 33, Type (0, 0), BuildingBlock: AJUNOK_clean_linker_0, # of connection points: 2
#     Edge 34, Type (0, 0), BuildingBlock: AJUNOK_clean_linker_0, # of connection points: 2
#     Edge 35, Type (0, 0), BuildingBlock: AJUNOK_clean_linker_0, # of connection points: 2
# Relax obj value: 0.277
# Max RMSD: 0.282
# Mean RMSD: 0.234
data_MOF--net-snz--node1-GEDQOX_clean_sbu_0--edge1-AJUNOK_clean_linker_0
_symmetry_space_group_name_H-M    P1
_symmetry_Int_Tables_number       1
_symmetry_cell_setting            triclinic
loop_
_symmetry_equiv_pos_as_xyz
'x, y, z'
_cell_length_a     44.301262
_cell_length_b     60.760103
_cell_length_c     10.970873
_cell_angle_alpha  85.937358
_cell_angle_beta   85.205679
_cell_angle_gamma 120.76387
loop_
_atom_site_label
_atom_site_type_symbol
_atom_site_fract_x
_atom_site_fract_y
_atom_site_fract_z
_atom_type_partial_charge
Nd0 Nd 1.06375 0.58367 0.00592 0.0
Nd1 Nd 0.13541 0.63045 0.97112 0.0
C2 C 1.01199 0.53657 0.10299 0.0
C3 C 1.00611 0.5105 0.08203 0.0
C4 C 1.01758 0.49778 0.16137 0.0
C5 C 1.01519 0.47455 0.13642 0.0
C6 C 1.00077 0.46305 0.03216 0.0
C7 C 0.98815 0.47525 0.95534 0.0
C8 C 0.99092 0.49863 0.97943 0.0
C9 C 0.08608 0.59134 0.75556 0.0
C10 C 0.13579 0.57819 0.99274 0.0
C11 C 0.19207 0.67762 0.92115 0.0
C12 C 0.20199 0.70325 0.9575 0.0
C13 C 0.21237 0.72401 0.86574 0.0
C14 C 0.22548 0.74895 0.89655 0.0
C15 C 0.2286 0.75367 0.01985 0.0
C16 C 0.21598 0.73263 0.11277 0.0
C17 C 0.20273 0.70761 0.08196 0.0
C18 C 0.10957 0.61106 0.21643 0.0
C19 C 1.06702 0.63932 0.9468 0.0
O20 O 1.03925 0.55099 0.15828 0.0
O21 O 1.00838 0.55017 0.0133 0.0
O22 O 1.05627 0.57237 0.81193 0.0
O23 O 0.10432 0.60575 0.83181 0.0
O24 O 0.1023 0.5688 0.03895 0.0
O25 O 0.15438 0.60204 0.9346 0.0
O26 O 0.1676 0.66801 0.84904 0.0
O27 O 0.18891 0.6602 0.00642 0.0
O28 O 0.14154 0.61948 0.16605 0.0
O29 O 0.0913 0.61305 0.13729 0.0
O30 O 0.10151 0.64912 0.94533 0.0
O31 O 1.04471 0.61375 0.97569 0.0
H32 H 1.02891 0.50602 0.24237 0.0
H33 H 1.02441 0.46547 0.19946 0.0
H34 H 0.97676 0.46696 0.8745 0.0
H35 H 0.98161 0.50761 0.91623 0.0
H36 H 0.21164 0.72111 0.76946 0.0
H37 H 0.23487 0.76482 0.82319 0.0
H38 H 0.21845 0.7357 0.20841 0.0
H39 H 0.19444 0.69193 0.15522 0.0
Nd40 Nd 0.59226 0.54502 0.09725 0.0
Nd41 Nd 0.58544 0.49323 0.1214 0.0
C42 C 0.61403 0.59336 0.02059 0.0
C43 C 0.64288 0.61722 0.05799 0.0
C44 C 0.67362 0.63352 0.97313 0.0
C45 C 0.7025 0.65512 0.00897 0.0
C46 C 0.70091 0.66082 0.12993 0.0
C47 C 0.67069 0.64428 0.21577 0.0
C48 C 0.64196 0.62254 0.18045 0.0
C49 C 0.59596 0.53367 0.34515 0.0
C50 C 0.66427 0.54383 0.08652 0.0
C51 C 0.57123 0.44539 0.18186 0.0
C52 C 0.56174 0.42307 0.11493 0.0
C53 C 0.56888 0.40409 0.15734 0.0
C54 C 0.56238 0.38389 0.08859 0.0
C55 C 0.54888 0.38252 0.97581 0.0
C56 C 0.54107 0.40131 0.93547 0.0
C57 C 0.54754 0.42143 0.00409 0.0
C58 C 0.59645 0.51341 0.87654 0.0
C59 C 0.51167 0.49707 0.13003 0.0
O60 O 0.62499 0.58005 0.9639 0.0
O61 O 0.58533 0.57877 0.10073 0.0
O62 O 0.59705 0.55409 0.29748 0.0
O63 O 0.59217 0.5193 0.26282 0.0
O64 O 0.64894 0.5552 0.03838 0.0
O65 O 0.64486 0.52014 0.14652 0.0
O66 O 0.54765 0.45211 0.1979 0.0
O67 O 0.6032 0.46525 0.14843 0.0
O68 O 0.60775 0.49886 0.91765 0.0
O69 O 0.57703 0.51512 0.9628 0.0
O70 O 0.52606 0.48279 0.15257 0.0
O71 O 0.53205 0.52225 0.0967 0.0
H72 H 0.6753 0.62951 0.87893 0.0
H73 H 0.72551 0.66786 0.94133 0.0
H74 H 0.66903 0.64858 0.30941 0.0
H75 H 0.61911 0.61002 0.24895 0.0
H76 H 0.57988 0.40507 0.24277 0.0
H77 H 0.56784 0.36936 0.12376 0.0
H78 H 0.53071 0.40082 0.84905 0.0
H79 H 0.54209 0.43601 0.96935 0.0
Nd80 Nd 0.75562 0.11424 0.18188 0.0
Nd81 Nd 0.76149 0.06906 0.17425 0.0
C82 C 0.74619 0.15013 0.26927 0.0
C83 C 0.72469 0.16213 0.27325 0.0
C84 C 0.68764 0.14757 0.30472 0.0
C85 C 0.6679 0.15936 0.28994 0.0
C86 C 0.68505 0.18564 0.24203 0.0
C87 C 0.72221 0.2006 0.2237 0.0
C88 C 0.74189 0.1889 0.23918 0.0
C89 C 0.75727 0.10302 0.93821 0.0
C90 C 0.68052 0.06027 0.18976 0.0
C91 C 0.77958 1.03345 0.14086 0.0
C92 C 0.79778 1.01927 0.17969 0.0
C93 C 0.81451 1.01251 0.08773 0.0
C94 C 0.8309 0.99852 0.11762 0.0
C95 C 0.83167 0.99084 0.24132 0.0
C96 C 0.81448 0.99736 0.33399 0.0
C97 C 0.79783 1.01136 0.30376 0.0
C98 C 0.75907 0.08221 0.4144 0.0
C99 C 0.83104 0.12853 0.07358 0.0
O100 O 0.7324 0.12683 0.32789 0.0
O101 O 0.76537 0.15393 0.16385 0.0
O102 O 0.76898 0.12588 0.97064 0.0
O103 O 0.74145 0.08606 0.03338 0.0
O104 O 0.69624 0.08391 0.21878 0.0
O105 O 0.70021 0.05024 0.15533 0.0
O106 O 0.7989 0.05767 0.09293 0.0
O107 O 0.74988 1.02832 0.20394 0.0
O108 O 0.7427 0.05904 0.38573 0.0
O109 O 0.7772 0.09773 0.31709 0.0
O110 O 0.81464 0.10372 0.05795 0.0
O111 O 0.81546 0.13602 0.15223 0.0
H112 H 0.67384 0.12693 0.33366 0.0
H113 H 0.63919 0.14753 0.305 0.0
H114 H 0.73599 0.22084 0.1858 0.0
H115 H 0.77052 0.20051 0.21689 0.0
H116 H 0.81457 1.01785 0.9913 0.0
H117 H 0.84254 0.99335 0.04271 0.0
H118 H 0.81423 0.99188 0.43031 0.0
H119 H 0.78503 1.01599 0.37745 0.0
Nd120 Nd 0.90019 0.87786 0.3652 0.0
Nd121 Nd 0.97166 0.92325 0.32635 0.0
C122 C 0.84303 0.8311 0.41785 0.0
C123 C 0.83141 0.80667 0.36613 0.0
C124 C 0.81825 0.78365 0.44577 0.0
C125 C 0.80397 0.76001 0.399 0.0
C126 C 0.80261 0.75915 0.27209 0.0
C127 C 0.81793 0.78228 0.19145 0.0
C128 C 0.83251 0.80593 0.23797 0.0
C129 C 0.9244 0.89648 0.11792 0.0
C130 C 0.9675 0.86745 0.38288 0.0
C131 C 1.02285 0.97019 0.22557 0.0
C132 C 1.02888 0.99616 0.24907 0.0
C133 C 1.02236 1.01092 0.1619 0.0
C134 C 1.02452 1.03404 0.18795 0.0
C135 C 1.03346 0.04324 0.3019 0.0
C136 C 1.04093 1.02885 0.38744 0.0
C137 C 1.03855 1.00568 0.36181 0.0
C138 C 0.95127 0.91646 0.57766 0.0
C139 C 0.90079 0.93018 0.3475 0.0
O140 O 0.87016 0.83915 0.47816 0.0
O141 O 0.8442 0.8498 0.34721 0.0
O142 O 0.89317 0.88914 0.17214 0.0
O143 O 0.94293 0.89414 0.19486 0.0
O144 O 0.93303 0.85816 0.38816 0.0
O145 O 0.99022 0.89288 0.35193 0.0
O146 O 0.9949 0.95582 0.17317 0.0
O147 O 1.02731 0.95657 0.31257 0.0
O148 O 0.98177 0.93426 0.52 0.0
O149 O 0.93199 0.90199 0.50388 0.0
O150 O 0.93383 0.93901 0.29791 0.0
O151 O 0.8823 0.90654 0.40748 0.0
H152 H 0.81766 0.78384 0.54459 0.0
H153 H 0.79182 0.74228 0.4626 0.0
H154 H 0.81674 0.78191 0.0933 0.0
H155 H 0.84322 0.82347 0.17406 0.0
H156 H 1.01492 1.0043 0.07395 0.0
H157 H 1.01931 0.04478 0.11847 0.0
H158 H 1.04788 1.03522 0.47613 0.0
H159 H 1.04366 0.99499 0.43182 0.0
Nd160 Nd 0.44901 1.01271 0.20861 0.0
Nd161 Nd 0.4464 0.96602 0.22499 0.0
C162 C 0.45966 0.06005 0.15642 0.0
C163 C 0.46573 0.08193 0.22318 0.0
C164 C 0.47359 0.10544 0.15827 0.0
C165 C 0.47804 0.12594 0.22194 0.0
C166 C 0.47481 0.12323 0.35158 0.0
C167 C 0.46626 0.09944 0.41596 0.0
C168 C 0.46188 0.07906 0.35248 0.0
C169 C 0.44214 0.99424 0.45407 0.0
C170 C 0.52461 1.01153 0.2019 0.0
C171 C 0.42312 0.91625 0.26048 0.0
C172 C 0.39059 0.89461 0.22499 0.0
C173 C 0.36745 0.87299 0.31197 0.0
C174 C 0.33648 0.8525 0.27909 0.0
C175 C 0.32823 0.85331 0.15852 0.0
C176 C 0.35053 0.87552 0.07336 0.0
C177 C 0.38127 0.89606 0.10645 0.0
C178 C 0.45386 0.98602 0.98056 0.0
C179 C 0.37103 0.96267 0.25708 0.0
O180 O 0.48494 0.05499 0.14393 0.0
O181 O 0.42864 0.03913 0.18575 0.0
O182 O 0.42508 1.00452 0.41272 0.0
O183 O 0.46272 0.99421 0.36727 0.0
O184 O 0.50949 1.02441 0.16176 0.0
O185 O 0.50415 0.98749 0.25412 0.0
O186 O 0.41796 0.9283 0.34593 0.0
O187 O 0.44795 0.93208 0.17076 0.0
O188 O 0.47286 0.97743 0.02185 0.0
O189 O 0.43239 0.98482 0.06799 0.0
O190 O 0.38885 0.95273 0.29845 0.0
O191 O 0.38873 0.98606 0.19468 0.0
H192 H 0.47625 0.10794 0.0584 0.0
H193 H 0.48464 0.14403 0.16994 0.0
H194 H 0.46295 0.09661 0.51587 0.0
H195 H 0.45531 0.06097 0.40442 0.0
H196 H 0.37364 0.87177 0.40475 0.0
H197 H 0.31991 0.8355 0.34614 0.0
H198 H 0.34466 0.87667 0.98001 0.0
H199 H 0.39797 0.91288 0.0385 0.0
Nd200 Nd 0.27485 0.43837 0.15221 0.0
Nd201 Nd 0.28123 0.39351 0.14645 0.0
C202 C 0.25709 0.47421 0.18436 0.0
C203 C 0.2378 0.4878 0.14924 0.0
C204 C 0.22222 0.49498 0.24316 0.0
C205 C 0.20591 0.50917 0.21596 0.0
C206 C 0.20403 0.51662 0.09318 0.0
C207 C 0.2199 0.50955 -0.0014 0.0
C208 C 0.23651 0.49539 0.02607 0.0
C209 C 0.27787 0.42528 0.91249 0.0
C210 C 0.20429 0.37808 0.2393 0.0
C211 C 0.29612 0.35954 0.06718 0.0
C212 C 0.32317 0.35245 0.06604 0.0
C213 C 0.32845 0.3408 0.96716 0.0
C214 C 0.35001 0.33029 0.97317 0.0
C215 C 0.36672 0.33152 0.07789 0.0
C216 C 0.36337 0.3449 0.17256 0.0
C217 C 0.34169 0.35523 0.16681 0.0
C218 C 0.27786 0.40462 0.38924 0.0
C219 C 0.35567 0.44797 0.1381 0.0
O220 O 0.23915 0.45062 0.24148 0.0
O221 O 0.28515 0.47855 0.11285 0.0
O222 O 0.29438 0.44844 0.94142 0.0
O223 O 0.25963 0.40968 0.00936 0.0
O224 O 0.22027 0.40291 0.25577 0.0
O225 O 0.22137 0.37058 0.1673 0.0
O226 O 0.3049 0.38114 0.00031 0.0
O227 O 0.2774 0.35575 0.17373 0.0
O228 O 0.26522 0.3817 0.35685 0.0
O229 O 0.29474 0.42159 0.29462 0.0
O230 O 0.34004 0.42484 0.10362 0.0
O231 O 0.33584 0.45761 0.17576 0.0
H232 H 0.22323 0.48999 0.33891 0.0
H233 H 0.19535 0.51477 0.29219 0.0
H234 H 0.21926 0.51479 0.90288 0.0
H235 H 0.24848 0.49052 0.95084 0.0
H236 H 0.3144 0.33863 0.88833 0.0
H237 H 0.35194 0.31986 0.89974 0.0
H238 H 0.37525 0.34563 0.25573 0.0
H239 H 0.33801 0.36422 0.2439 0.0
Nd240 Nd 0.47506 0.24787 0.66627 0.0
Nd241 Nd 0.54858 0.26161 0.63748 0.0
C242 C 0.40728 0.2298 0.66858 0.0
C243 C 0.39267 0.23463 0.56108 0.0
C244 C 0.40382 0.23156 0.44248 0.0
C245 C 0.40158 0.2447 0.33711 0.0
C246 C 0.38819 0.26097 0.34949 0.0
C247 C 0.37421 0.26226 0.46645 0.0
C248 C 0.37626 0.24907 0.57162 0.0
C249 C 0.52049 0.29962 0.68118 0.0
C250 C 0.51861 0.26982 0.39604 0.0
C251 C 0.61561 0.27585 0.62946 0.0
C252 C 0.62711 0.26282 0.71585 0.0
C253 C 0.6564 0.2766 0.7781 0.0
C254 C 0.66279 0.26359 0.87419 0.0
C255 C 0.6391 0.23691 0.91198 0.0
C256 C 0.60906 0.2238 0.853 0.0
C257 C 0.60427 0.23627 0.75298 0.0
C258 C 0.50181 0.20987 0.621 0.0
C259 C 0.50702 0.24238 0.91163 0.0
O260 O 0.42065 0.21505 0.65747 0.0
O261 O 0.42782 0.25066 0.71657 0.0
O262 O 0.4942 0.29075 0.61756 0.0
O263 O 0.5231 0.28129 0.72874 0.0
O264 O 0.48722 0.25449 0.45969 0.0
O265 O 0.54747 0.27987 0.44961 0.0
O266 O 0.6027 0.28851 0.68161 0.0
O267 O 0.59581 0.26168 0.55089 0.0
O268 O 0.52542 0.21826 0.69472 0.0
O269 O 0.50072 0.22861 0.57011 0.0
O270 O 0.5382 0.2555 0.84437 0.0
O271 O 0.4775 0.23365 0.86223 0.0
H272 H 0.41684 0.22069 0.4311 0.0
H273 H 0.41207 0.24333 0.24705 0.0
H274 H 0.36348 0.27466 0.4768 0.0
H275 H 0.36794 0.25204 0.66158 0.0
H276 H 0.67399 0.29726 0.75329 0.0
H277 H 0.68623 0.27433 0.91818 0.0
H278 H 0.58918 0.20367 0.88292 0.0
H279 H 0.58202 0.22502 0.7062 0.0
Nd280 Nd 1.02727 0.23367 0.66041 0.0
Nd281 Nd 1.00239 0.27241 0.67733 0.0
C282 C 1.05351 0.20297 0.63357 0.0
C283 C 1.04796 0.18066 0.56665 0.0
C284 C 1.07633 0.18271 0.48818 0.0
C285 C 1.07292 0.16134 0.43405 0.0
C286 C 1.04094 0.13713 0.45622 0.0
C287 C 1.01214 0.13529 0.53178 0.0
C288 C 1.01558 0.15669 0.58617 0.0
C289 C 0.95435 0.20975 0.72734 0.0
C290 C 1.00169 0.24915 0.42388 0.0
C291 C 0.96844 0.29606 0.74907 0.0
C292 C 0.97674 0.32046 0.801 0.0
C293 C 0.95325 0.31967 0.89817 0.0
C294 C 0.95907 0.34241 0.94385 0.0
C295 C 0.98876 0.36674 0.89446 0.0
C296 C 1.01299 0.36744 0.79988 0.0
C297 C 1.00707 0.34464 0.75375 0.0
C298 C 1.07195 0.30192 0.56516 0.0
C299 C 1.03796 0.26349 0.90366 0.0
O300 O 1.0673 0.22574 0.56922 0.0
O301 O 1.02911 0.19877 0.72325 0.0
O302 O 0.96961 0.20288 0.64545 0.0
O303 O 0.97795 0.23027 0.76369 0.0
O304 O 1.02331 0.24262 0.46433 0.0
O305 O 0.98446 0.25705 0.49487 0.0
O306 O 0.96927 0.27829 0.82074 0.0
O307 O 0.98112 0.29788 0.63414 0.0
O308 O 1.05154 0.31048 0.59674 0.0
O309 O 1.05618 0.27747 0.59878 0.0
O310 O 1.02905 0.27853 0.84686 0.0
O311 O 1.04104 0.24574 0.8507 0.0
H312 H 0.10163 0.20078 0.47097 0.0
H313 H 0.09564 0.16369 0.37594 0.0
H314 H 0.98726 0.11699 0.55313 0.0
H315 H 0.99307 0.15421 0.64613 0.0
H316 H 0.92985 0.3014 0.93752 0.0
H317 H 0.93998 0.34097 0.01734 0.0
H318 H 1.03593 0.38574 0.75827 0.0
H319 H 1.02592 0.34602 0.67949 0.0
Nd320 Nd 1.05784 0.77327 0.64112 0.0
Nd321 Nd 0.97419 0.73176 0.68079 0.0
C322 C 0.12298 0.814 0.57917 0.0
C323 C 0.15682 0.83813 0.52625 0.0
C324 C 0.15883 0.85566 0.43023 0.0
C325 C 0.1918 0.87786 0.38026 0.0
C326 C 0.2234 0.88295 0.42543 0.0
C327 C 0.22096 0.86514 0.52112 0.0
C328 C 0.18825 0.84311 0.57044 0.0
C329 C 1.04725 0.72511 0.74526 0.0
C330 C 1.01801 0.7436 0.4166 0.0
C331 C 0.90813 0.69163 0.74315 0.0
C332 C 0.87686 0.66844 0.8197 0.0
C333 C 0.87227 0.64363 0.82899 0.0
C334 C 0.84027 0.62181 0.88912 0.0
C335 C 0.81194 0.62418 0.94104 0.0
C336 C 0.81691 0.64911 0.93173 0.0
C337 C 0.84877 0.67077 0.87295 0.0
C338 C 0.98546 0.78033 0.57702 0.0
C339 C 1.01436 0.76001 0.90699 0.0
O340 O 0.09922 0.81405 0.65897 0.0
O341 O 0.11139 0.79271 0.52871 0.0
O342 O 0.0772 0.74672 0.7162 0.0
O343 O 1.02298 0.72949 0.71803 0.0
O344 O 1.04372 0.76466 0.45082 0.0
O345 O 0.99024 0.72549 0.49222 0.0
O346 O 0.93281 0.69012 0.67582 0.0
O347 O 0.91951 0.71446 0.77781 0.0
O348 O 0.95545 0.75874 0.60422 0.0
O349 O 1.00932 0.77557 0.60452 0.0
O350 O 0.98838 0.73928 0.87165 0.0
O351 O 1.04135 0.77879 0.83107 0.0
H352 H 0.135 0.85219 0.39387 0.0
H353 H 0.19247 0.89118 0.30755 0.0
H354 H 0.24459 0.86808 0.55729 0.0
H355 H 0.18756 0.82977 0.64324 0.0
H356 H 0.89307 0.64097 0.78765 0.0
H357 H 0.83754 0.603 0.89357 0.0
H358 H 0.79559 0.65189 0.96544 0.0
H359 H 0.85086 0.6894 0.86501 0.0
C360 C 1.06911 0.57918 0.54706 0.0
C361 C 0.0928 0.59735 0.61808 0.0
C362 C 1.07314 0.58428 0.41754 0.0
C363 C 0.10112 0.60774 0.35331 0.0
H364 H 1.04727 0.56064 0.59182 0.0
H365 H 1.05499 0.56936 0.36746 0.0
S366 S 0.16888 0.66266 0.49447 0.0
N367 N 0.14402 0.64043 0.61345 0.0
N368 N 0.15204 0.64985 0.37071 0.0
C369 C 0.12457 0.62628 0.42312 0.0
C370 C 0.12033 0.62116 0.55506 0.0
C371 C 0.5848 0.49853 0.66654 0.0
C372 C 0.59581 0.51853 0.74168 0.0
C373 C 0.58533 0.5033 0.53788 0.0
C374 C 0.59729 0.52834 0.4794 0.0
H375 H 0.57537 0.47898 0.70775 0.0
H376 H 0.5759 0.48726 0.48444 0.0
S377 S 0.63439 0.58792 0.6312 0.0
N378 N 0.62249 0.56449 0.7445 0.0
N379 N 0.62373 0.57367 0.5059 0.0
C380 C 0.60964 0.54853 0.55315 0.0
C381 C 0.60884 0.54359 0.68328 0.0
C382 C 0.74392 0.07284 0.77219 0.0
C383 C 0.75739 0.09798 0.80417 0.0
C384 C 0.74473 0.06815 0.64719 0.0
C385 C 0.7594 0.08831 0.54679 0.0
H386 H 0.73268 0.05656 0.8444 0.0
H387 H 0.73385 0.04837 0.62922 0.0
S388 S 0.79711 0.15772 0.57817 0.0
N389 N 0.78497 0.14337 0.72215 0.0
N390 N 0.78704 0.13454 0.4905 0.0
C391 C 0.77286 0.11352 0.5775 0.0
C392 C 0.77172 0.11831 0.70464 0.0
C393 C 0.91194 0.90401 0.78009 0.0
C394 C 0.94447 0.91037 0.71445 0.0
C395 C 0.90625 0.89985 0.90996 0.0
C396 C 0.93254 0.90133 0.97996 0.0
H397 H 0.89106 0.90286 0.73093 0.0
H398 H 0.8808 0.89544 0.95583 0.0
S399 S 1.0214 0.91519 0.84993 0.0
N400 N 1.00292 0.91681 0.72759 0.0
N401 N 0.99183 0.90835 0.97114 0.0
C402 C 0.96491 0.90704 0.91476 0.0
C403 C 0.97092 0.9117 0.78233 0.0
C404 C 0.4781 1.00145 0.62981 0.0
C405 C 0.44491 0.99114 0.58764 0.0
C406 C 0.48072 1.0 0.75714 0.0
C407 C 0.45031 0.98832 0.84691 0.0
H408 H 0.5022 1.01111 0.56417 0.0
H409 H 0.5068 1.0083 0.78565 0.0
S410 S 0.35721 0.95557 0.78272 0.0
N411 N 0.38113 0.96722 0.64488 0.0
N412 N 0.3859 0.96429 0.8829 0.0
C413 C 0.41702 0.97746 0.80535 0.0
C414 C 0.4144 0.97895 0.6761 0.0
C415 C 0.29276 0.43481 0.55524 0.0
C416 C 0.27809 0.40959 0.52318 0.0
C417 C 0.29246 0.4395 0.68019 0.0
C418 C 0.27725 0.41926 0.78027 0.0
H419 H 0.30452 0.45114 0.48313 0.0
H420 H 0.30419 0.45933 0.69838 0.0
S421 S 0.23659 0.34964 0.74872 0.0
N422 N 0.2488 0.36402 0.60477 0.0
N423 N 0.24798 0.37291 0.83656 0.0
C424 C 0.2627 0.39399 0.74958 0.0
C425 C 0.26318 0.38918 0.62247 0.0
C426 C 0.49578 0.26807 0.1989 0.0
C427 C 0.52062 0.26688 0.26603 0.0
C428 C 0.48906 0.2578 0.08768 0.0
C429 C 0.5069 0.24595 0.04108 0.0
H430 H 0.48083 0.27641 0.23444 0.0
H431 H 0.4708 0.26003 0.03574 0.0
S432 S 0.57249 0.23632 0.18615 0.0
N433 N 0.56162 0.2517 0.28216 0.0
N434 N 0.54959 0.23297 0.07024 0.0
C435 C 0.53163 0.24451 0.10751 0.0
C436 C 0.53848 0.25495 0.22065 0.0
C437 C 1.00296 0.23212 0.2303 0.0
C438 C 1.00375 0.252 0.29054 0.0
C439 C 1.01713 0.23665 0.10657 0.0
C440 C 1.03254 0.26127 0.03862 0.0
H441 H 0.99262 0.21313 0.28103 0.0
H442 H 1.01493 0.2205 0.06331 0.0
S443 S 1.04212 0.32006 0.15634 0.0
N444 N 1.02179 0.29722 0.27608 0.0
N445 N 1.04819 0.30596 0.04139 0.0
C446 C 1.03343 0.28137 0.09818 0.0
C447 C 1.01882 0.27664 0.22438 0.0
C448 C 0.98557 0.74113 0.24443 0.0
C449 C 1.01644 0.74431 0.28607 0.0
C450 C 0.98579 0.74801 0.12083 0.0
C451 C 1.0169 0.7583 0.03686 0.0
H452 H 0.96162 0.73436 0.30837 0.0
H453 H 0.96148 0.74507 0.09033 0.0
S454 S 0.10335 0.76773 0.10002 0.0
N455 N 0.07804 0.75679 0.23554 0.0
N456 N 0.07838 0.76941 0.00049 0.0
C457 C 1.04771 0.76101 0.07696 0.0
C458 C 1.04743 0.75396 0.20271 0.0
C459 C 0.20104 0.55315 0.97127 0.0
C460 C 0.18583 0.53172 0.06522 0.0
C461 C 0.18509 0.56801 0.94822 0.0
C462 C 0.15268 0.56206 0.0164 0.0
H463 H 0.226 0.55889 0.91632 0.0
H464 H 0.19833 0.58432 0.87588 0.0
S465 S 0.10111 0.50759 0.27143 0.0
N466 N 0.13554 0.50517 0.2247 0.0
N467 N 0.10623 0.53278 0.1835 0.0
C468 C 0.13707 0.5405 0.10978 0.0
C469 C 0.15336 0.52552 0.13352 0.0
C470 C 0.76189 0.69141 0.1809 0.0
C471 C 0.72789 0.68603 0.16142 0.0
C472 C 0.78673 0.71538 0.21549 0.0
C473 C 0.77819 0.73452 0.22856 0.0
H474 H 0.76897 0.67692 0.17161 0.0
H475 H 0.81248 0.71893 0.23267 0.0
S476 S 0.69329 0.72983 0.18348 0.0
N477 N 0.68739 0.70165 0.15535 0.0
N478 N 0.73405 0.74666 0.21768 0.0
C479 C 0.74463 0.72938 0.20658 0.0
C480 C 0.71944 0.70511 0.17348 0.0
C481 C 0.62422 0.06172 0.18786 0.0
C482 C 0.6408 0.04695 0.18639 0.0
C483 C 0.58723 0.05047 0.18864 0.0
C484 C 0.56448 1.0237 0.19024 0.0
H485 H 0.63997 0.08241 0.18872 0.0
H486 H 0.57631 0.06284 0.19141 0.0
S487 S 0.5936 0.97611 0.18031 0.0
N488 N 0.63085 1.00394 0.18062 0.0
N489 N 0.56174 0.98274 0.18455 0.0
C490 C 0.58062 1.00869 0.18656 0.0
C491 C 0.61847 1.02026 0.18386 0.0
C492 C 0.67031 0.21978 0.19679 0.0
C493 C 0.66579 0.19569 0.17773 0.0
C494 C 0.66037 0.23269 0.11312 0.0
C495 C 0.64642 0.22215 0.00643 0.0
H496 H 0.68302 0.22916 0.27374 0.0
H497 H 0.6646 0.25134 0.13019 0.0
S498 S 0.62984 0.15941 0.91566 0.0
N499 N 0.64539 0.16135 0.04831 0.0
N500 N 0.62888 0.18603 0.88732 0.0
C501 C 0.64093 0.19764 0.98895 0.0
C502 C 0.65003 0.1843 0.07571 0.0
C503 C 0.96349 0.39472 0.9431 0.0
C504 C 0.99268 0.39121 0.93548 0.0
C505 C 0.96634 0.41772 0.97518 0.0
C506 C 0.99838 0.43832 0.0033 0.0
H507 H 0.93823 0.37973 0.92118 0.0
H508 H 0.94308 0.41937 0.97804 0.0
S509 S 0.08259 0.43881 0.00407 0.0
N510 N 1.05468 0.41032 0.96371 0.0
N511 N 1.05992 0.4533 0.0245 0.0
C512 C 1.02765 0.4349 -0.00078 0.0
C513 C 1.02487 0.41153 0.96495 0.0
C514 C 0.76024 0.57856 0.93617 0.0
C515 C 0.7764 0.60086 0.99644 0.0
C516 C 0.7246 0.55845 0.97387 0.0
C517 C 0.70374 0.55957 0.07453 0.0
H518 H 0.77441 0.57736 0.85403 0.0
H519 H 0.71259 0.5428 0.91857 0.0
S520 S 0.73384 0.61176 0.27351 0.0
N521 N 0.76909 0.62109 0.17131 0.0
N522 N 0.70242 0.58384 0.23862 0.0
C523 C 0.7201 0.58086 0.14003 0.0
C524 C 0.75626 0.60128 0.10223 0.0
C525 C 1.07529 0.70559 0.87053 0.0
C526 C 1.0459 0.70121 0.81095 0.0
C527 C 0.08005 0.68548 0.91857 0.0
C528 C 1.05589 0.65904 0.91128 0.0
H529 H 0.09589 0.72522 0.87787 0.0
H530 H 0.10399 0.69106 0.95943 0.0
S531 S 0.97247 0.63568 0.7721 0.0
N532 N 0.9906 0.66742 0.75391 0.0
N533 N 0.9995 0.62967 0.84324 0.0
C534 C 1.02525 0.65396 0.85689 0.0
C535 C 1.0203 0.67482 0.80741 0.0
C536 C 0.51089 0.34862 0.84857 0.0
C537 C 0.54276 0.36167 0.89937 0.0
C538 C 0.50462 0.32942 0.77327 0.0
C539 C 0.5298 0.32225 0.74682 0.0
H540 H 0.49032 0.35302 0.86867 0.0
H541 H 0.47929 0.31953 0.73906 0.0
S542 S 0.61799 0.3509 0.85261 0.0
N543 N 0.60047 0.36669 0.91321 0.0
N544 N 0.58794 0.32983 0.77535 0.0
C545 C 0.56176 0.33508 0.79662 0.0
C546 C 0.5684 0.35491 0.87213 0.0
C547 C 0.92033 0.16585 0.85829 0.0
C548 C 0.92251 0.18915 0.81385 0.0
C549 C 0.8909 0.14622 0.94133 0.0
C550 C 0.86248 0.14912 0.98462 0.0
H551 H 0.94181 0.16285 0.82958 0.0
H552 H 0.89069 0.12885 0.97321 0.0
S553 S 0.85324 0.20505 0.88485 0.0
N554 N 0.89233 0.21292 0.81245 0.0
N555 N 0.83743 0.1766 0.96717 0.0
C556 C 0.86411 0.17216 0.93835 0.0
C557 C 0.89396 0.19199 0.85376 0.0
C558 C 0.83451 0.9543 0.36356 0.0
C559 C 0.85025 0.97615 0.27195 0.0
C560 C 0.85078 0.93973 0.38818 0.0
C561 C 0.88401 0.94639 0.324 0.0
H562 H 0.80888 0.94797 0.41509 0.0
H563 H 0.83703 0.92298 0.45812 0.0
S564 S 0.93744 1.0025 0.07784 0.0
N565 N 0.90202 1.00405 0.11996 0.0
N566 N 0.93205 0.97706 0.16431 0.0
C567 C 0.90025 0.96849 0.23353 0.0
C568 C 0.88362 0.98316 0.20814 0.0
C569 C 0.30906 0.82029 0.0148 0.0
C570 C 0.29997 0.82966 0.11618 0.0
C571 C 0.28502 0.79625 0.98153 0.0
C572 C 0.2508 0.78054 0.04802 0.0
H573 H 0.33565 0.83106 0.96427 0.0
H574 H 0.29401 0.78936 0.90662 0.0
S575 S 0.2119 0.79809 0.30875 0.0
N576 N 0.25312 0.82284 0.27457 0.0
N577 N 0.20758 0.77734 0.21176 0.0
C578 C 0.24056 0.79026 0.1456 0.0
C579 C 0.26521 0.8149 0.17967 0.0
C580 C 0.45547 0.49938 0.12891 0.0
C581 C 0.47169 0.48446 0.13882 0.0
C582 C 0.41817 0.48787 0.13245 0.0
C583 C 0.39521 0.46084 0.14436 0.0
H584 H 0.47176 0.52027 0.11739 0.0
H585 H 0.40742 0.50029 0.12256 0.0
S586 S 0.42347 0.41274 0.18119 0.0
N587 N 0.46085 0.44091 0.16664 0.0
N588 N 0.39198 0.41947 0.17293 0.0
C589 C 0.41113 0.44575 0.1571 0.0
C590 C 0.44884 0.45743 0.15444 0.0
C591 C 0.95848 0.80073 0.45136 0.0
C592 C 0.98732 0.80458 0.51305 0.0
C593 C 0.95413 0.82117 0.40498 0.0
C594 C 0.97823 0.84741 0.41615 0.0
H595 H 0.93796 0.78127 0.44116 0.0
H596 H 0.93057 0.81603 0.36237 0.0
S597 S 1.05994 0.86942 0.5645 0.0
N598 N 1.04181 0.8377 0.57782 0.0
N599 N 1.03369 0.87601 0.49158 0.0
C600 C 1.00827 0.85197 0.47315 0.0
C601 C 1.01278 0.8308 0.52095 0.0
C602 C 0.47025 0.17946 0.46867 0.0
C603 C 0.49339 0.18673 0.5587 0.0
C604 C 0.46442 0.15907 0.40099 0.0
C605 C 0.48166 0.14529 0.42044 0.0
H606 H 0.45675 0.18973 0.44971 0.0
H607 H 0.44613 0.15394 0.33366 0.0
S608 S 0.54752 0.15823 0.63531 0.0
N609 N 0.53477 0.17897 0.65862 0.0
N610 N 0.52484 0.14169 0.52859 0.0
C611 C 0.50537 0.15274 0.50787 0.0
C612 C 0.51093 0.17314 0.57778 0.0
C613 C 0.12256 0.34676 0.4877 0.0
C614 C 0.10726 0.31984 0.48724 0.0
C615 C 0.15308 0.36518 0.40637 0.0
C616 C 0.17004 0.3578 0.31862 0.0
H617 H 0.11054 0.35386 0.55147 0.0
H618 H 0.16345 0.38546 0.4129 0.0
S619 S 0.14075 0.28961 0.27677 0.0
N620 N 0.11151 0.28674 0.39035 0.0
N621 N 0.16876 0.32097 0.23728 0.0
C622 C 0.15511 0.3308 0.31715 0.0
C623 C 0.12394 0.31199 0.40124 0.0
C624 C 0.36178 0.26962 0.17633 0.0
C625 C 0.39044 0.27814 0.24349 0.0
C626 C 0.35688 0.28745 0.10649 0.0
C627 C 0.3803 0.31421 0.10371 0.0
H628 H 0.34132 0.24933 0.18734 0.0
H629 H 0.33251 0.28025 0.06642 0.0
S630 S 0.46416 0.34559 0.23915 0.0
N631 N 0.44608 0.31437 0.28466 0.0
N632 N 0.43685 0.34803 0.15307 0.0
C633 C 0.41151 0.32268 0.15724 0.0
C634 C 0.41653 0.30454 0.22789 0.0
C635 C 1.06445 0.08622 0.3849 0.0
C636 C 1.0353 0.06771 0.33278 0.0
C637 C 1.06625 0.10863 0.42116 0.0
C638 C 1.0388 0.11365 0.40871 0.0
H639 H 0.08619 0.08333 0.39835 0.0
H640 H 0.0891 0.12185 0.46253 0.0
S641 S 0.95699 0.07196 0.27258 0.0
N642 N 0.97858 0.05644 0.26722 0.0
N643 N 0.98197 0.09841 0.33462 0.0
C644 C 1.0097 0.09554 0.35444 0.0
C645 C 1.00802 0.07275 0.31644 0.0
C646 C 0.28229 0.92083 0.45873 0.0
C647 C 0.25907 0.90657 0.37597 0.0
C648 C 0.31765 0.94058 0.41747 0.0
C649 C 0.33162 0.94736 0.29149 0.0
H650 H 0.27343 0.91606 0.5572 0.0
H651 H 0.33476 0.94986 0.48559 0.0
S652 S 0.28205 0.91714 0.03507 0.0
N653 N 0.25262 0.90157 0.16003 0.0
N654 N 0.31898 0.93883 0.0834 0.0
C655 C 0.30837 0.93428 0.20689 0.0
C656 C 0.27218 0.91396 0.24882 0.0
loop_
_geom_bond_atom_site_label_1
_geom_bond_atom_site_label_2
_geom_bond_distance
_geom_bond_site_symmetry_2
_ccdc_geom_bond_type
Nd0 C2 2.836 . S
Nd0 O20 2.500 . S
Nd0 O21 2.492 . S
Nd0 O22 2.487 1_554 S
Nd0 O23 2.682 1_655 S
Nd0 O24 2.410 1_655 S
Nd0 O29 2.414 1_655 S
Nd0 O31 2.424 . S
Nd1 C11 2.836 . S
Nd1 O23 2.414 . S
Nd1 O25 2.424 . S
Nd1 O26 2.500 . S
Nd1 O27 2.492 . S
Nd1 O28 2.487 . S
Nd1 O29 2.682 . S
Nd1 O30 2.410 . S
C2 Nd0 2.836 . S
C2 C3 1.498 . S
C2 O20 1.258 . S
C2 O21 1.239 . S
C3 C2 1.498 . S
C3 C4 1.366 . S
C3 C8 1.407 . S
C4 C3 1.366 . S
C4 C5 1.392 . S
C4 H32 0.930 . S
C5 C4 1.392 . S
C5 C6 1.398 . S
C5 H33 0.929 . S
C6 C5 1.398 . S
C6 C7 1.352 . S
C7 C6 1.352 . S
C7 C8 1.384 . S
C7 H34 0.930 . S
C8 C3 1.407 . S
C8 C7 1.384 . S
C8 H35 0.929 1_554 S
C9 O22 1.241 1_455 S
C9 O23 1.273 1_556 S
C10 O24 1.251 . S
C10 O25 1.268 . S
C11 Nd1 2.836 . S
C11 C12 1.498 . S
C11 O26 1.258 . S
C11 O27 1.239 . S
C12 C11 1.498 . S
C12 C13 1.366 . S
C12 C17 1.407 . S
C13 C12 1.366 . S
C13 C14 1.392 . S
C13 H36 0.930 1_554 S
C14 C13 1.392 . S
C14 C15 1.398 . S
C14 H37 0.929 1_554 S
C15 C14 1.398 . S
C15 C16 1.352 . S
C16 C15 1.352 . S
C16 C17 1.384 . S
C16 H38 0.930 . S
C17 C12 1.407 . S
C17 C16 1.384 . S
C17 H39 0.929 . S
C18 O28 1.241 . S
C18 O29 1.273 . S
C19 O30 1.251 1_655 S
C19 O31 1.268 . S
O20 Nd0 2.500 . S
O20 C2 1.258 . S
O21 Nd0 2.492 . S
O21 C2 1.239 . S
O22 Nd0 2.487 1_556 S
O22 C9 1.241 1_655 S
O23 Nd0 2.682 1_455 S
O23 Nd1 2.414 . S
O23 C9 1.273 1_554 S
O24 Nd0 2.410 1_455 S
O24 C10 1.251 . S
O25 Nd1 2.424 . S
O25 C10 1.268 . S
O26 Nd1 2.500 . S
O26 C11 1.258 . S
O27 Nd1 2.492 . S
O27 C11 1.239 . S
O28 Nd1 2.487 . S
O28 C18 1.241 . S
O29 Nd0 2.414 1_455 S
O29 Nd1 2.682 . S
O29 C18 1.273 . S
O30 Nd1 2.410 . S
O30 C19 1.251 1_455 S
O31 Nd0 2.424 . S
O31 C19 1.268 . S
H32 C4 0.930 . S
H33 C5 0.929 . S
H34 C7 0.930 . S
H35 C8 0.929 1_556 S
H36 C13 0.930 1_556 S
H37 C14 0.929 1_556 S
H38 C16 0.930 . S
H39 C17 0.929 . S
Nd40 C42 2.836 . S
Nd40 O60 2.500 . S
Nd40 O61 2.492 . S
Nd40 O62 2.487 . S
Nd40 O63 2.682 . S
Nd40 O64 2.410 . S
Nd40 O69 2.414 . S
Nd40 O71 2.424 . S
Nd41 C51 2.836 . S
Nd41 O63 2.414 . S
Nd41 O65 2.424 . S
Nd41 O66 2.500 . S
Nd41 O67 2.492 . S
Nd41 O68 2.487 1_554 S
Nd41 O69 2.682 . S
Nd41 O70 2.410 . S
C42 Nd40 2.836 . S
C42 C43 1.498 . S
C42 O60 1.258 . S
C42 O61 1.239 . S
C43 C42 1.498 . S
C43 C44 1.366 . S
C43 C48 1.407 . S
C44 C43 1.366 . S
C44 C45 1.392 . S
C44 H72 0.930 1_554 S
C45 C44 1.392 . S
C45 C46 1.398 . S
C45 H73 0.929 1_554 S
C46 C45 1.398 . S
C46 C47 1.352 . S
C47 C46 1.352 . S
C47 C48 1.384 . S
C47 H74 0.930 . S
C48 C43 1.407 . S
C48 C47 1.384 . S
C48 H75 0.929 . S
C49 O62 1.241 . S
C49 O63 1.273 . S
C50 O64 1.251 . S
C50 O65 1.268 . S
C51 Nd41 2.836 . S
C51 C52 1.498 . S
C51 O66 1.258 . S
C51 O67 1.239 . S
C52 C51 1.498 . S
C52 C53 1.366 . S
C52 C57 1.407 . S
C53 C52 1.366 . S
C53 C54 1.392 . S
C53 H76 0.930 . S
C54 C53 1.392 . S
C54 C55 1.398 . S
C54 H77 0.929 . S
C55 C54 1.398 . S
C55 C56 1.352 . S
C56 C55 1.352 . S
C56 C57 1.384 . S
C56 H78 0.930 . S
C57 C52 1.407 . S
C57 C56 1.384 . S
C57 H79 0.929 1_554 S
C58 O68 1.241 . S
C58 O69 1.273 1_556 S
C59 O70 1.251 . S
C59 O71 1.268 . S
O60 Nd40 2.500 . S
O60 C42 1.258 . S
O61 Nd40 2.492 . S
O61 C42 1.239 . S
O62 Nd40 2.487 . S
O62 C49 1.241 . S
O63 Nd40 2.682 . S
O63 Nd41 2.414 . S
O63 C49 1.273 . S
O64 Nd40 2.410 . S
O64 C50 1.251 . S
O65 Nd41 2.424 . S
O65 C50 1.268 . S
O66 Nd41 2.500 . S
O66 C51 1.258 . S
O67 Nd41 2.492 . S
O67 C51 1.239 . S
O68 Nd41 2.487 1_556 S
O68 C58 1.241 . S
O69 Nd40 2.414 . S
O69 Nd41 2.682 . S
O69 C58 1.273 1_554 S
O70 Nd41 2.410 . S
O70 C59 1.251 . S
O71 Nd40 2.424 . S
O71 C59 1.268 . S
H72 C44 0.930 1_556 S
H73 C45 0.929 1_556 S
H74 C47 0.930 . S
H75 C48 0.929 . S
H76 C53 0.930 . S
H77 C54 0.929 . S
H78 C56 0.930 . S
H79 C57 0.929 1_556 S
Nd80 C82 2.836 . S
Nd80 O100 2.500 . S
Nd80 O101 2.492 . S
Nd80 O102 2.487 1_554 S
Nd80 O103 2.682 . S
Nd80 O104 2.410 . S
Nd80 O109 2.414 . S
Nd80 O111 2.424 . S
Nd81 C91 2.836 . S
Nd81 O103 2.414 . S
Nd81 O105 2.424 . S
Nd81 O106 2.500 . S
Nd81 O107 2.492 . S
Nd81 O108 2.487 . S
Nd81 O109 2.682 . S
Nd81 O110 2.410 . S
C82 Nd80 2.836 . S
C82 C83 1.498 . S
C82 O100 1.258 . S
C82 O101 1.239 . S
C83 C82 1.498 . S
C83 C84 1.366 . S
C83 C88 1.407 . S
C84 C83 1.366 . S
C84 C85 1.392 . S
C84 H112 0.930 . S
C85 C84 1.392 . S
C85 C86 1.398 . S
C85 H113 0.929 . S
C86 C85 1.398 . S
C86 C87 1.352 . S
C87 C86 1.352 . S
C87 C88 1.384 . S
C87 H114 0.930 . S
C88 C83 1.407 . S
C88 C87 1.384 . S
C88 H115 0.929 . S
C89 O102 1.241 . S
C89 O103 1.273 1_556 S
C90 O104 1.251 . S
C90 O105 1.268 . S
C91 Nd81 2.836 . S
C91 C92 1.498 . S
C91 O106 1.258 . S
C91 O107 1.239 . S
C92 C91 1.498 . S
C92 C93 1.366 . S
C92 C97 1.407 . S
C93 C92 1.366 . S
C93 C94 1.392 . S
C93 H116 0.930 . S
C94 C93 1.392 . S
C94 C95 1.398 . S
C94 H117 0.929 . S
C95 C94 1.398 . S
C95 C96 1.352 . S
C96 C95 1.352 . S
C96 C97 1.384 . S
C96 H118 0.930 1_545 S
C97 C92 1.407 . S
C97 C96 1.384 . S
C97 H119 0.929 . S
C98 O108 1.241 . S
C98 O109 1.273 . S
C99 O110 1.251 . S
C99 O111 1.268 . S
O100 Nd80 2.500 . S
O100 C82 1.258 . S
O101 Nd80 2.492 . S
O101 C82 1.239 . S
O102 Nd80 2.487 1_556 S
O102 C89 1.241 . S
O103 Nd80 2.682 . S
O103 Nd81 2.414 . S
O103 C89 1.273 1_554 S
O104 Nd80 2.410 . S
O104 C90 1.251 . S
O105 Nd81 2.424 . S
O105 C90 1.268 . S
O106 Nd81 2.500 . S
O106 C91 1.258 . S
O107 Nd81 2.492 . S
O107 C91 1.239 . S
O108 Nd81 2.487 . S
O108 C98 1.241 . S
O109 Nd80 2.414 . S
O109 Nd81 2.682 . S
O109 C98 1.273 . S
O110 Nd81 2.410 . S
O110 C99 1.251 . S
O111 Nd80 2.424 . S
O111 C99 1.268 . S
H112 C84 0.930 . S
H113 C85 0.929 . S
H114 C87 0.930 . S
H115 C88 0.929 . S
H116 C93 0.930 . S
H117 C94 0.929 . S
H118 C96 0.930 1_565 S
H119 C97 0.929 . S
Nd120 C122 2.836 . S
Nd120 O140 2.500 . S
Nd120 O141 2.492 . S
Nd120 O142 2.487 1_554 S
Nd120 O143 2.682 . S
Nd120 O144 2.410 . S
Nd120 O149 2.414 . S
Nd120 O151 2.424 . S
Nd121 C131 2.836 . S
Nd121 O143 2.414 . S
Nd121 O145 2.424 . S
Nd121 O146 2.500 . S
Nd121 O147 2.492 . S
Nd121 O148 2.487 . S
Nd121 O149 2.682 . S
Nd121 O150 2.410 . S
C122 Nd120 2.836 . S
C122 C123 1.498 . S
C122 O140 1.258 . S
C122 O141 1.239 . S
C123 C122 1.498 . S
C123 C124 1.366 . S
C123 C128 1.407 . S
C124 C123 1.366 . S
C124 C125 1.392 . S
C124 H152 0.930 . S
C125 C124 1.392 . S
C125 C126 1.398 . S
C125 H153 0.929 . S
C126 C125 1.398 . S
C126 C127 1.352 . S
C127 C126 1.352 . S
C127 C128 1.384 . S
C127 H154 0.930 . S
C128 C123 1.407 . S
C128 C127 1.384 . S
C128 H155 0.929 . S
C129 O142 1.241 . S
C129 O143 1.273 1_556 S
C130 O144 1.251 . S
C130 O145 1.268 . S
C131 Nd121 2.836 . S
C131 C132 1.498 . S
C131 O146 1.258 . S
C131 O147 1.239 . S
C132 C131 1.498 . S
C132 C133 1.366 . S
C132 C137 1.407 . S
C133 C132 1.366 . S
C133 C134 1.392 1_565 S
C133 H156 0.930 1_554 S
C134 C133 1.392 1_545 S
C134 C135 1.398 . S
C134 H157 0.929 1_554 S
C135 C134 1.398 . S
C135 C136 1.352 . S
C136 C135 1.352 . S
C136 C137 1.384 1_545 S
C136 H158 0.930 . S
C137 C132 1.407 . S
C137 C136 1.384 1_565 S
C137 H159 0.929 . S
C138 O148 1.241 . S
C138 O149 1.273 . S
C139 O150 1.251 . S
C139 O151 1.268 . S
O140 Nd120 2.500 . S
O140 C122 1.258 . S
O141 Nd120 2.492 . S
O141 C122 1.239 . S
O142 Nd120 2.487 1_556 S
O142 C129 1.241 . S
O143 Nd120 2.682 . S
O143 Nd121 2.414 . S
O143 C129 1.273 1_554 S
O144 Nd120 2.410 . S
O144 C130 1.251 . S
O145 Nd121 2.424 . S
O145 C130 1.268 . S
O146 Nd121 2.500 . S
O146 C131 1.258 . S
O147 Nd121 2.492 . S
O147 C131 1.239 . S
O148 Nd121 2.487 . S
O148 C138 1.241 . S
O149 Nd120 2.414 . S
O149 Nd121 2.682 . S
O149 C138 1.273 . S
O150 Nd121 2.410 . S
O150 C139 1.251 . S
O151 Nd120 2.424 . S
O151 C139 1.268 . S
H152 C124 0.930 . S
H153 C125 0.929 . S
H154 C127 0.930 . S
H155 C128 0.929 . S
H156 C133 0.930 1_556 S
H157 C134 0.929 1_556 S
H158 C136 0.930 . S
H159 C137 0.929 . S
Nd160 C162 2.836 1_565 S
Nd160 O180 2.500 1_565 S
Nd160 O181 2.492 1_565 S
Nd160 O182 2.487 . S
Nd160 O183 2.682 . S
Nd160 O184 2.410 1_565 S
Nd160 O189 2.414 . S
Nd160 O191 2.424 . S
Nd161 C171 2.836 . S
Nd161 O183 2.414 . S
Nd161 O185 2.424 . S
Nd161 O186 2.500 . S
Nd161 O187 2.492 . S
Nd161 O188 2.487 1_554 S
Nd161 O189 2.682 . S
Nd161 O190 2.410 . S
C162 Nd160 2.836 1_545 S
C162 C163 1.498 . S
C162 O180 1.258 . S
C162 O181 1.239 . S
C163 C162 1.498 . S
C163 C164 1.366 . S
C163 C168 1.407 . S
C164 C163 1.366 . S
C164 C165 1.392 . S
C164 H192 0.930 1_554 S
C165 C164 1.392 . S
C165 C166 1.398 . S
C165 H193 0.929 1_554 S
C166 C165 1.398 . S
C166 C167 1.352 . S
C167 C166 1.352 . S
C167 C168 1.384 . S
C167 H194 0.930 . S
C168 C163 1.407 . S
C168 C167 1.384 . S
C168 H195 0.929 . S
C169 O182 1.241 . S
C169 O183 1.273 . S
C170 O184 1.251 1_565 S
C170 O185 1.268 . S
C171 Nd161 2.836 . S
C171 C172 1.498 . S
C171 O186 1.258 . S
C171 O187 1.239 . S
C172 C171 1.498 . S
C172 C173 1.366 . S
C172 C177 1.407 . S
C173 C172 1.366 . S
C173 C174 1.392 . S
C173 H196 0.930 . S
C174 C173 1.392 . S
C174 C175 1.398 . S
C174 H197 0.929 . S
C175 C174 1.398 . S
C175 C176 1.352 . S
C176 C175 1.352 . S
C176 C177 1.384 . S
C176 H198 0.930 . S
C177 C172 1.407 . S
C177 C176 1.384 . S
C177 H199 0.929 1_554 S
C178 O188 1.241 . S
C178 O189 1.273 1_556 S
C179 O190 1.251 . S
C179 O191 1.268 . S
O180 Nd160 2.500 1_545 S
O180 C162 1.258 . S
O181 Nd160 2.492 1_545 S
O181 C162 1.239 . S
O182 Nd160 2.487 . S
O182 C169 1.241 . S
O183 Nd160 2.682 . S
O183 Nd161 2.414 . S
O183 C169 1.273 . S
O184 Nd160 2.410 1_545 S
O184 C170 1.251 1_545 S
O185 Nd161 2.424 . S
O185 C170 1.268 . S
O186 Nd161 2.500 . S
O186 C171 1.258 . S
O187 Nd161 2.492 . S
O187 C171 1.239 . S
O188 Nd161 2.487 1_556 S
O188 C178 1.241 . S
O189 Nd160 2.414 . S
O189 Nd161 2.682 . S
O189 C178 1.273 1_554 S
O190 Nd161 2.410 . S
O190 C179 1.251 . S
O191 Nd160 2.424 . S
O191 C179 1.268 . S
H192 C164 0.930 1_556 S
H193 C165 0.929 1_556 S
H194 C167 0.930 . S
H195 C168 0.929 . S
H196 C173 0.930 . S
H197 C174 0.929 . S
H198 C176 0.930 . S
H199 C177 0.929 1_556 S
Nd200 C202 2.836 . S
Nd200 O220 2.500 . S
Nd200 O221 2.492 1_554 S
Nd200 O222 2.487 1_554 S
Nd200 O223 2.682 1_554 S
Nd200 O224 2.410 . S
Nd200 O229 2.414 . S
Nd200 O231 2.424 . S
Nd201 C211 2.836 . S
Nd201 O223 2.414 1_554 S
Nd201 O225 2.424 . S
Nd201 O226 2.500 . S
Nd201 O227 2.492 . S
Nd201 O228 2.487 . S
Nd201 O229 2.682 . S
Nd201 O230 2.410 . S
C202 Nd200 2.836 . S
C202 C203 1.498 . S
C202 O220 1.258 . S
C202 O221 1.239 1_554 S
C203 C202 1.498 . S
C203 C204 1.366 . S
C203 C208 1.407 1_554 S
C204 C203 1.366 . S
C204 C205 1.392 . S
C204 H232 0.930 . S
C205 C204 1.392 . S
C205 C206 1.398 . S
C205 H233 0.929 . S
C206 C205 1.398 . S
C206 C207 1.352 1_554 S
C207 C206 1.352 1_556 S
C207 C208 1.384 . S
C207 H234 0.930 . S
C208 C203 1.407 1_556 S
C208 C207 1.384 . S
C208 H235 0.929 . S
C209 O222 1.241 . S
C209 O223 1.273 . S
C210 O224 1.251 . S
C210 O225 1.268 . S
C211 Nd201 2.836 . S
C211 C212 1.498 . S
C211 O226 1.258 . S
C211 O227 1.239 . S
C212 C211 1.498 . S
C212 C213 1.366 . S
C212 C217 1.407 . S
C213 C212 1.366 . S
C213 C214 1.392 1_554 S
C213 H236 0.930 1_554 S
C214 C213 1.392 1_556 S
C214 C215 1.398 1_556 S
C214 H237 0.929 . S
C215 C214 1.398 1_554 S
C215 C216 1.352 . S
C216 C215 1.352 . S
C216 C217 1.384 . S
C216 H238 0.930 . S
C217 C212 1.407 . S
C217 C216 1.384 . S
C217 H239 0.929 . S
C218 O228 1.241 . S
C218 O229 1.273 . S
C219 O230 1.251 . S
C219 O231 1.268 . S
O220 Nd200 2.500 . S
O220 C202 1.258 . S
O221 Nd200 2.492 1_556 S
O221 C202 1.239 1_556 S
O222 Nd200 2.487 1_556 S
O222 C209 1.241 . S
O223 Nd200 2.682 1_556 S
O223 Nd201 2.414 1_556 S
O223 C209 1.273 . S
O224 Nd200 2.410 . S
O224 C210 1.251 . S
O225 Nd201 2.424 . S
O225 C210 1.268 . S
O226 Nd201 2.500 . S
O226 C211 1.258 . S
O227 Nd201 2.492 . S
O227 C211 1.239 . S
O228 Nd201 2.487 . S
O228 C218 1.241 . S
O229 Nd200 2.414 . S
O229 Nd201 2.682 . S
O229 C218 1.273 . S
O230 Nd201 2.410 . S
O230 C219 1.251 . S
O231 Nd200 2.424 . S
O231 C219 1.268 . S
H232 C204 0.930 . S
H233 C205 0.929 . S
H234 C207 0.930 . S
H235 C208 0.929 . S
H236 C213 0.930 1_556 S
H237 C214 0.929 . S
H238 C216 0.930 . S
H239 C217 0.929 . S
Nd240 C242 2.836 . S
Nd240 O260 2.500 . S
Nd240 O261 2.492 . S
Nd240 O262 2.487 . S
Nd240 O263 2.682 . S
Nd240 O264 2.410 . S
Nd240 O269 2.414 . S
Nd240 O271 2.424 . S
Nd241 C251 2.836 . S
Nd241 O263 2.414 . S
Nd241 O265 2.424 . S
Nd241 O266 2.500 . S
Nd241 O267 2.492 . S
Nd241 O268 2.487 . S
Nd241 O269 2.682 . S
Nd241 O270 2.410 . S
C242 Nd240 2.836 . S
C242 C243 1.498 . S
C242 O260 1.258 . S
C242 O261 1.239 . S
C243 C242 1.498 . S
C243 C244 1.366 . S
C243 C248 1.407 . S
C244 C243 1.366 . S
C244 C245 1.392 . S
C244 H272 0.930 . S
C245 C244 1.392 . S
C245 C246 1.398 . S
C245 H273 0.929 . S
C246 C245 1.398 . S
C246 C247 1.352 . S
C247 C246 1.352 . S
C247 C248 1.384 . S
C247 H274 0.930 . S
C248 C243 1.407 . S
C248 C247 1.384 . S
C248 H275 0.929 . S
C249 O262 1.241 . S
C249 O263 1.273 . S
C250 O264 1.251 . S
C250 O265 1.268 . S
C251 Nd241 2.836 . S
C251 C252 1.498 . S
C251 O266 1.258 . S
C251 O267 1.239 . S
C252 C251 1.498 . S
C252 C253 1.366 . S
C252 C257 1.407 . S
C253 C252 1.366 . S
C253 C254 1.392 1_556 S
C253 H276 0.930 . S
C254 C253 1.392 1_554 S
C254 C255 1.398 . S
C254 H277 0.929 . S
C255 C254 1.398 . S
C255 C256 1.352 1_554 S
C256 C255 1.352 1_556 S
C256 C257 1.384 . S
C256 H278 0.930 . S
C257 C252 1.407 . S
C257 C256 1.384 . S
C257 H279 0.929 . S
C258 O268 1.241 . S
C258 O269 1.273 . S
C259 O270 1.251 . S
C259 O271 1.268 . S
O260 Nd240 2.500 . S
O260 C242 1.258 . S
O261 Nd240 2.492 . S
O261 C242 1.239 . S
O262 Nd240 2.487 . S
O262 C249 1.241 . S
O263 Nd240 2.682 . S
O263 Nd241 2.414 . S
O263 C249 1.273 . S
O264 Nd240 2.410 . S
O264 C250 1.251 . S
O265 Nd241 2.424 . S
O265 C250 1.268 . S
O266 Nd241 2.500 . S
O266 C251 1.258 . S
O267 Nd241 2.492 . S
O267 C251 1.239 . S
O268 Nd241 2.487 . S
O268 C258 1.241 . S
O269 Nd240 2.414 . S
O269 Nd241 2.682 . S
O269 C258 1.273 . S
O270 Nd241 2.410 . S
O270 C259 1.251 . S
O271 Nd240 2.424 . S
O271 C259 1.268 . S
H272 C244 0.930 . S
H273 C245 0.929 . S
H274 C247 0.930 . S
H275 C248 0.929 . S
H276 C253 0.930 . S
H277 C254 0.929 . S
H278 C256 0.930 . S
H279 C257 0.929 . S
Nd280 C282 2.836 . S
Nd280 O300 2.500 . S
Nd280 O301 2.492 . S
Nd280 O302 2.487 . S
Nd280 O303 2.682 . S
Nd280 O304 2.410 . S
Nd280 O309 2.414 . S
Nd280 O311 2.424 . S
Nd281 C291 2.836 . S
Nd281 O303 2.414 . S
Nd281 O305 2.424 . S
Nd281 O306 2.500 . S
Nd281 O307 2.492 . S
Nd281 O308 2.487 . S
Nd281 O309 2.682 . S
Nd281 O310 2.410 . S
C282 Nd280 2.836 . S
C282 C283 1.498 . S
C282 O300 1.258 . S
C282 O301 1.239 . S
C283 C282 1.498 . S
C283 C284 1.366 . S
C283 C288 1.407 . S
C284 C283 1.366 . S
C284 C285 1.392 . S
C284 H312 0.930 . S
C285 C284 1.392 . S
C285 C286 1.398 . S
C285 H313 0.929 . S
C286 C285 1.398 . S
C286 C287 1.352 . S
C287 C286 1.352 . S
C287 C288 1.384 . S
C287 H314 0.930 . S
C288 C283 1.407 . S
C288 C287 1.384 . S
C288 H315 0.929 . S
C289 O302 1.241 . S
C289 O303 1.273 . S
C290 O304 1.251 . S
C290 O305 1.268 . S
C291 Nd281 2.836 . S
C291 C292 1.498 . S
C291 O306 1.258 . S
C291 O307 1.239 . S
C292 C291 1.498 . S
C292 C293 1.366 . S
C292 C297 1.407 . S
C293 C292 1.366 . S
C293 C294 1.392 1_556 S
C293 H316 0.930 1_556 S
C294 C293 1.392 1_554 S
C294 C295 1.398 . S
C294 H317 0.929 . S
C295 C294 1.398 . S
C295 C296 1.352 1_554 S
C296 C295 1.352 1_556 S
C296 C297 1.384 . S
C296 H318 0.930 . S
C297 C292 1.407 . S
C297 C296 1.384 . S
C297 H319 0.929 . S
C298 O308 1.266 . S
C298 O309 1.286 . S
C299 O310 1.251 . S
C299 O311 1.268 . S
O300 Nd280 2.500 . S
O300 C282 1.258 . S
O301 Nd280 2.492 . S
O301 C282 1.239 . S
O302 Nd280 2.487 . S
O302 C289 1.241 . S
O303 Nd280 2.682 . S
O303 Nd281 2.414 . S
O303 C289 1.273 . S
O304 Nd280 2.410 . S
O304 C290 1.251 . S
O305 Nd281 2.424 . S
O305 C290 1.268 . S
O306 Nd281 2.500 . S
O306 C291 1.258 . S
O307 Nd281 2.492 . S
O307 C291 1.239 . S
O308 Nd281 2.487 . S
O308 C298 1.266 . S
O309 Nd280 2.414 . S
O309 Nd281 2.682 . S
O309 C298 1.286 . S
O310 Nd281 2.410 . S
O310 C299 1.251 . S
O311 Nd280 2.424 . S
O311 C299 1.268 . S
H312 C284 0.930 . S
H313 C285 0.929 . S
H314 C287 0.930 . S
H315 C288 0.929 . S
H316 C293 0.930 1_554 S
H317 C294 0.929 . S
H318 C296 0.930 . S
H319 C297 0.929 . S
Nd320 C322 2.836 1_655 S
Nd320 O340 2.500 1_655 S
Nd320 O341 2.492 1_655 S
Nd320 O342 2.487 . S
Nd320 O343 2.682 . S
Nd320 O344 2.410 . S
Nd320 O349 2.414 . S
Nd320 O351 2.424 . S
Nd321 C331 2.836 . S
Nd321 O343 2.414 . S
Nd321 O345 2.424 . S
Nd321 O346 2.500 . S
Nd321 O347 2.492 . S
Nd321 O348 2.487 . S
Nd321 O349 2.682 . S
Nd321 O350 2.410 . S
C322 Nd320 2.836 1_455 S
C322 C323 1.498 . S
C322 O340 1.258 . S
C322 O341 1.239 . S
C323 C322 1.498 . S
C323 C324 1.366 . S
C323 C328 1.407 . S
C324 C323 1.366 . S
C324 C325 1.392 . S
C324 H352 0.930 . S
C325 C324 1.392 . S
C325 C326 1.398 . S
C325 H353 0.929 . S
C326 C325 1.398 . S
C326 C327 1.352 . S
C327 C326 1.352 . S
C327 C328 1.384 . S
C327 H354 0.930 . S
C328 C323 1.407 . S
C328 C327 1.384 . S
C328 H355 0.929 . S
C329 O342 1.241 . S
C329 O343 1.273 . S
C330 O344 1.251 . S
C330 O345 1.268 . S
C331 Nd321 2.836 . S
C331 C332 1.498 . S
C331 O346 1.258 . S
C331 O347 1.239 . S
C332 C331 1.498 . S
C332 C333 1.365 1_556 S
C332 C337 1.407 . S
C333 C332 1.365 1_554 S
C333 C334 1.393 . S
C333 H356 0.930 . S
C334 C333 1.393 . S
C334 C335 1.398 . S
C334 H357 0.929 . S
C335 C334 1.398 . S
C335 C336 1.352 1_554 S
C336 C335 1.352 1_556 S
C336 C337 1.384 . S
C336 H358 0.930 . S
C337 C332 1.407 . S
C337 C336 1.384 . S
C337 H359 0.929 . S
C338 O348 1.241 . S
C338 O349 1.273 . S
C339 O350 1.251 . S
C339 O351 1.268 . S
O340 Nd320 2.500 1_455 S
O340 C322 1.258 . S
O341 Nd320 2.492 1_455 S
O341 C322 1.239 . S
O342 Nd320 2.487 . S
O342 C329 1.241 . S
O343 Nd320 2.682 . S
O343 Nd321 2.414 . S
O343 C329 1.273 . S
O344 Nd320 2.410 . S
O344 C330 1.251 . S
O345 Nd321 2.424 . S
O345 C330 1.268 . S
O346 Nd321 2.500 . S
O346 C331 1.258 . S
O347 Nd321 2.492 . S
O347 C331 1.239 . S
O348 Nd321 2.487 . S
O348 C338 1.241 . S
O349 Nd320 2.414 . S
O349 Nd321 2.682 . S
O349 C338 1.273 . S
O350 Nd321 2.410 . S
O350 C339 1.251 . S
O351 Nd320 2.424 . S
O351 C339 1.268 . S
H352 C324 0.930 . S
H353 C325 0.929 . S
H354 C327 0.930 . S
H355 C328 0.929 . S
H356 C333 0.930 . S
H357 C334 0.929 . S
H358 C336 0.930 . S
H359 C337 0.929 . S
C360 C361 1.369 . S
C360 C362 1.419 1_455 S
C360 H364 0.930 1_455 S
C361 C360 1.369 . S
C361 C370 1.429 . S
C362 C360 1.419 1_655 S
C362 C363 1.363 1_655 S
C362 H365 0.929 . S
C363 C362 1.363 1_455 S
C363 C369 1.428 . S
H364 C360 0.930 1_655 S
H365 C362 0.929 . S
S366 N367 1.613 . S
S366 N368 1.610 . S
N367 S366 1.613 . S
N367 C370 1.350 . S
N368 S366 1.610 . S
N368 C369 1.351 . S
C369 C363 1.428 . S
C369 N368 1.351 . S
C369 C370 1.434 . S
C370 C361 1.429 . S
C370 N367 1.350 . S
C370 C369 1.434 . S
C371 C372 1.369 . S
C371 C373 1.419 . S
C371 H375 0.930 . S
C372 C371 1.369 . S
C372 C381 1.429 . S
C373 C371 1.419 . S
C373 C374 1.363 . S
C373 H376 0.929 . S
C374 C373 1.363 . S
C374 C380 1.428 . S
H375 C371 0.930 . S
H376 C373 0.929 . S
S377 N378 1.613 . S
S377 N379 1.610 . S
N378 S377 1.613 . S
N378 C381 1.350 . S
N379 S377 1.610 . S
N379 C380 1.351 . S
C380 C374 1.428 . S
C380 N379 1.351 . S
C380 C381 1.434 . S
C381 C372 1.429 . S
C381 N378 1.350 . S
C381 C380 1.434 . S
C382 C383 1.369 . S
C382 C384 1.419 . S
C382 H386 0.930 . S
C383 C382 1.369 . S
C383 C392 1.429 . S
C384 C382 1.419 . S
C384 C385 1.363 . S
C384 H387 0.929 . S
C385 C384 1.363 . S
C385 C391 1.428 . S
H386 C382 0.930 . S
H387 C384 0.929 . S
S388 N389 1.613 . S
S388 N390 1.610 . S
N389 S388 1.613 . S
N389 C392 1.350 . S
N390 S388 1.610 . S
N390 C391 1.351 . S
C391 C385 1.428 . S
C391 N390 1.351 . S
C391 C392 1.434 . S
C392 C383 1.429 . S
C392 N389 1.350 . S
C392 C391 1.434 . S
C393 C394 1.369 . S
C393 C395 1.419 . S
C393 H397 0.930 . S
C394 C393 1.369 . S
C394 C403 1.429 . S
C395 C393 1.419 . S
C395 C396 1.363 . S
C395 H398 0.929 . S
C396 C395 1.363 . S
C396 C402 1.428 . S
H397 C393 0.930 . S
H398 C395 0.929 . S
S399 N400 1.613 . S
S399 N401 1.610 . S
N400 S399 1.613 . S
N400 C403 1.350 . S
N401 S399 1.610 . S
N401 C402 1.351 . S
C402 C396 1.428 . S
C402 N401 1.351 . S
C402 C403 1.434 . S
C403 C394 1.429 . S
C403 N400 1.350 . S
C403 C402 1.434 . S
C404 C405 1.369 . S
C404 C406 1.419 . S
C404 H408 0.930 . S
C405 C404 1.369 . S
C405 C414 1.429 . S
C406 C404 1.419 . S
C406 C407 1.363 . S
C406 H409 0.929 1_565 S
C407 C406 1.363 . S
C407 C413 1.428 . S
H408 C404 0.930 . S
H409 C406 0.929 1_545 S
S410 N411 1.613 . S
S410 N412 1.610 . S
N411 S410 1.613 . S
N411 C414 1.350 . S
N412 S410 1.610 . S
N412 C413 1.351 . S
C413 C407 1.428 . S
C413 N412 1.351 . S
C413 C414 1.434 . S
C414 C405 1.429 . S
C414 N411 1.350 . S
C414 C413 1.434 . S
C415 C416 1.369 . S
C415 C417 1.419 . S
C415 H419 0.930 . S
C416 C415 1.369 . S
C416 C425 1.429 . S
C417 C415 1.419 . S
C417 C418 1.363 . S
C417 H420 0.929 . S
C418 C417 1.363 . S
C418 C424 1.428 . S
H419 C415 0.930 . S
H420 C417 0.929 . S
S421 N422 1.613 . S
S421 N423 1.610 . S
N422 S421 1.613 . S
N422 C425 1.350 . S
N423 S421 1.610 . S
N423 C424 1.351 . S
C424 C418 1.428 . S
C424 N423 1.351 . S
C424 C425 1.434 . S
C425 C416 1.429 . S
C425 N422 1.350 . S
C425 C424 1.434 . S
C426 C427 1.369 . S
C426 C428 1.419 . S
C426 H430 0.930 . S
C427 C426 1.369 . S
C427 C436 1.429 . S
C428 C426 1.419 . S
C428 C429 1.363 . S
C428 H431 0.929 1_554 S
C429 C428 1.363 . S
C429 C435 1.428 . S
H430 C426 0.930 . S
H431 C428 0.929 1_556 S
S432 N433 1.613 . S
S432 N434 1.610 . S
N433 S432 1.613 . S
N433 C436 1.350 . S
N434 S432 1.610 . S
N434 C435 1.351 . S
C435 C429 1.428 . S
C435 N434 1.351 . S
C435 C436 1.434 . S
C436 C427 1.429 . S
C436 N433 1.350 . S
C436 C435 1.434 . S
C437 C438 1.369 . S
C437 C439 1.419 . S
C437 H441 0.930 . S
C438 C437 1.369 . S
C438 C447 1.429 . S
C439 C437 1.419 . S
C439 C440 1.363 . S
C439 H442 0.929 . S
C440 C439 1.363 . S
C440 C446 1.428 . S
H441 C437 0.930 . S
H442 C439 0.929 . S
S443 N444 1.613 . S
S443 N445 1.610 . S
N444 S443 1.613 . S
N444 C447 1.350 . S
N445 S443 1.610 . S
N445 C446 1.351 . S
C446 C440 1.428 . S
C446 N445 1.351 . S
C446 C447 1.434 . S
C447 C438 1.429 . S
C447 N444 1.350 . S
C447 C446 1.434 . S
C448 C449 1.369 . S
C448 C450 1.419 . S
C448 H452 0.930 . S
C449 C448 1.369 . S
C449 C458 1.429 . S
C450 C448 1.419 . S
C450 C451 1.363 . S
C450 H453 0.929 . S
C451 C450 1.363 . S
C451 C457 1.428 . S
H452 C448 0.930 . S
H453 C450 0.929 . S
S454 N455 1.613 . S
S454 N456 1.610 1_554 S
N455 S454 1.613 . S
N455 C458 1.350 . S
N456 S454 1.610 1_556 S
N456 C457 1.351 1_556 S
C457 C451 1.428 . S
C457 N456 1.351 1_554 S
C457 C458 1.434 . S
C458 C449 1.429 . S
C458 N455 1.350 . S
C458 C457 1.434 . S
C459 C460 1.369 . S
C459 C461 1.419 . S
C459 H463 0.930 1_554 S
C460 C459 1.369 . S
C460 C469 1.429 . S
C461 C459 1.419 . S
C461 C462 1.363 . S
C461 H464 0.929 1_554 S
C462 C461 1.363 . S
C462 C468 1.428 . S
H463 C459 0.930 1_556 S
H464 C461 0.929 1_556 S
S465 N466 1.613 . S
S465 N467 1.610 . S
N466 S465 1.613 . S
N466 C469 1.350 . S
N467 S465 1.610 . S
N467 C468 1.351 . S
C468 C462 1.428 . S
C468 N467 1.351 . S
C468 C469 1.434 . S
C469 C460 1.429 . S
C469 N466 1.350 . S
C469 C468 1.434 . S
C470 C471 1.369 . S
C470 C472 1.419 . S
C470 H474 0.930 . S
C471 C470 1.369 . S
C471 C480 1.429 . S
C472 C470 1.419 . S
C472 C473 1.363 . S
C472 H475 0.929 . S
C473 C472 1.363 . S
C473 C479 1.428 . S
H474 C470 0.930 . S
H475 C472 0.929 . S
S476 N477 1.613 . S
S476 N478 1.610 . S
N477 S476 1.613 . S
N477 C480 1.350 . S
N478 S476 1.610 . S
N478 C479 1.351 . S
C479 C473 1.428 . S
C479 N478 1.351 . S
C479 C480 1.434 . S
C480 C471 1.429 . S
C480 N477 1.350 . S
C480 C479 1.434 . S
C481 C482 1.369 . S
C481 C483 1.419 . S
C481 H485 0.930 . S
C482 C481 1.369 . S
C482 C491 1.429 . S
C483 C481 1.419 . S
C483 C484 1.363 . S
C483 H486 0.929 . S
C484 C483 1.363 . S
C484 C490 1.424 1_545 S
H485 C481 0.930 . S
H486 C483 0.929 . S
S487 N488 1.613 . S
S487 N489 1.610 . S
N488 S487 1.613 . S
N488 C491 1.350 1_565 S
N489 S487 1.610 . S
N489 C490 1.355 . S
C490 C484 1.424 1_565 S
C490 N489 1.355 . S
C490 C491 1.435 1_565 S
C491 C482 1.429 . S
C491 N488 1.350 1_545 S
C491 C490 1.435 1_545 S
C492 C493 1.369 . S
C492 C494 1.419 . S
C492 H496 0.930 . S
C493 C492 1.369 . S
C493 C502 1.429 . S
C494 C492 1.419 . S
C494 C495 1.363 . S
C494 H497 0.929 . S
C495 C494 1.363 . S
C495 C501 1.428 . S
H496 C492 0.930 . S
H497 C494 0.929 . S
S498 N499 1.613 1_556 S
S498 N500 1.610 . S
N499 S498 1.613 1_554 S
N499 C502 1.350 . S
N500 S498 1.610 . S
N500 C501 1.351 1_556 S
C501 C495 1.428 . S
C501 N500 1.351 1_554 S
C501 C502 1.434 . S
C502 C493 1.429 . S
C502 N499 1.350 . S
C502 C501 1.434 . S
C503 C504 1.369 . S
C503 C505 1.419 . S
C503 H507 0.930 . S
C504 C503 1.369 . S
C504 C513 1.429 . S
C505 C503 1.419 . S
C505 C506 1.363 . S
C505 H508 0.929 . S
C506 C505 1.363 . S
C506 C512 1.428 . S
H507 C503 0.930 . S
H508 C505 0.929 . S
S509 N510 1.613 1_455 S
S509 N511 1.610 1_455 S
N510 S509 1.613 1_655 S
N510 C513 1.350 . S
N511 S509 1.610 1_655 S
N511 C512 1.351 . S
C512 C506 1.428 . S
C512 N511 1.351 . S
C512 C513 1.434 . S
C513 C504 1.429 . S
C513 N510 1.350 . S
C513 C512 1.434 . S
C514 C515 1.369 . S
C514 C516 1.419 . S
C514 H518 0.930 . S
C515 C514 1.369 . S
C515 C524 1.429 . S
C516 C514 1.419 . S
C516 C517 1.363 . S
C516 H519 0.929 . S
C517 C516 1.363 . S
C517 C523 1.428 . S
H518 C514 0.930 . S
H519 C516 0.929 . S
S520 N521 1.613 . S
S520 N522 1.610 . S
N521 S520 1.613 . S
N521 C524 1.350 . S
N522 S520 1.610 . S
N522 C523 1.351 . S
C523 C517 1.428 . S
C523 N522 1.351 . S
C523 C524 1.434 . S
C524 C515 1.429 . S
C524 N521 1.350 . S
C524 C523 1.434 . S
C525 C526 1.369 . S
C525 C527 1.419 1_556 S
C525 H529 0.930 . S
C526 C525 1.369 . S
C526 C535 1.429 . S
C527 C525 1.419 1_554 S
C527 C528 1.363 . S
C527 H530 0.929 . S
C528 C527 1.363 . S
C528 C534 1.428 1_554 S
H529 C525 0.930 . S
H530 C527 0.929 . S
S531 N532 1.613 . S
S531 N533 1.610 . S
N532 S531 1.613 . S
N532 C535 1.350 . S
N533 S531 1.610 . S
N533 C534 1.351 . S
C534 C528 1.428 1_556 S
C534 N533 1.351 . S
C534 C535 1.434 . S
C535 C526 1.429 . S
C535 N532 1.350 . S
C535 C534 1.434 . S
C536 C537 1.369 . S
C536 C538 1.419 1_554 S
C536 H540 0.930 . S
C537 C536 1.369 . S
C537 C546 1.429 1_554 S
C538 C536 1.419 1_556 S
C538 C539 1.363 . S
C538 H541 0.929 . S
C539 C538 1.363 . S
C539 C545 1.428 . S
H540 C536 0.930 . S
H541 C538 0.929 . S
S542 N543 1.613 1_556 S
S542 N544 1.610 . S
N543 S542 1.613 1_554 S
N543 C546 1.350 1_554 S
N544 S542 1.610 . S
N544 C545 1.351 . S
C545 C539 1.428 . S
C545 N544 1.351 . S
C545 C546 1.434 . S
C546 C537 1.429 1_556 S
C546 N543 1.350 1_556 S
C546 C545 1.434 . S
C547 C548 1.369 . S
C547 C549 1.419 1_556 S
C547 H551 0.930 . S
C548 C547 1.369 . S
C548 C557 1.429 . S
C549 C547 1.419 1_554 S
C549 C550 1.363 . S
C549 H552 0.929 . S
C550 C549 1.363 . S
C550 C556 1.428 . S
H551 C547 0.930 . S
H552 C549 0.929 . S
S553 N554 1.613 . S
S553 N555 1.610 . S
N554 S553 1.613 . S
N554 C557 1.350 . S
N555 S553 1.610 . S
N555 C556 1.351 1_556 S
C556 C550 1.428 . S
C556 N555 1.351 1_554 S
C556 C557 1.434 1_554 S
C557 C548 1.429 . S
C557 N554 1.350 . S
C557 C556 1.434 1_556 S
C558 C559 1.369 . S
C558 C560 1.419 . S
C558 H562 0.930 . S
C559 C558 1.369 . S
C559 C568 1.429 . S
C560 C558 1.419 . S
C560 C561 1.363 . S
C560 H563 0.929 . S
C561 C560 1.363 . S
C561 C567 1.428 . S
H562 C558 0.930 . S
H563 C560 0.929 . S
S564 N565 1.613 1_556 S
S564 N566 1.610 1_556 S
N565 S564 1.613 1_554 S
N565 C568 1.350 . S
N566 S564 1.610 1_554 S
N566 C567 1.351 . S
C567 C561 1.428 . S
C567 N566 1.351 . S
C567 C568 1.434 . S
C568 C559 1.429 . S
C568 N565 1.350 . S
C568 C567 1.434 . S
C569 C570 1.369 . S
C569 C571 1.419 . S
C569 H573 0.930 . S
C570 C569 1.369 . S
C570 C579 1.429 . S
C571 C569 1.419 . S
C571 C572 1.363 . S
C571 H574 0.929 . S
C572 C571 1.363 . S
C572 C578 1.428 . S
H573 C569 0.930 . S
H574 C571 0.929 . S
S575 N576 1.613 . S
S575 N577 1.610 . S
N576 S575 1.613 . S
N576 C579 1.350 . S
N577 S575 1.610 . S
N577 C578 1.351 . S
C578 C572 1.428 . S
C578 N577 1.351 . S
C578 C579 1.434 . S
C579 C570 1.429 . S
C579 N576 1.350 . S
C579 C578 1.434 . S
C580 C581 1.369 . S
C580 C582 1.419 . S
C580 H584 0.930 . S
C581 C580 1.369 . S
C581 C590 1.429 . S
C582 C580 1.419 . S
C582 C583 1.363 . S
C582 H585 0.929 . S
C583 C582 1.363 . S
C583 C589 1.428 . S
H584 C580 0.930 . S
H585 C582 0.929 . S
S586 N587 1.613 . S
S586 N588 1.610 . S
N587 S586 1.613 . S
N587 C590 1.350 . S
N588 S586 1.610 . S
N588 C589 1.351 . S
C589 C583 1.428 . S
C589 N588 1.351 . S
C589 C590 1.434 . S
C590 C581 1.429 . S
C590 N587 1.350 . S
C590 C589 1.434 . S
C591 C592 1.369 . S
C591 C593 1.419 . S
C591 H595 0.930 . S
C592 C591 1.369 . S
C592 C601 1.429 . S
C593 C591 1.419 . S
C593 C594 1.363 . S
C593 H596 0.929 . S
C594 C593 1.363 . S
C594 C600 1.428 . S
H595 C591 0.930 . S
H596 C593 0.929 . S
S597 N598 1.613 . S
S597 N599 1.610 . S
N598 S597 1.613 . S
N598 C601 1.350 . S
N599 S597 1.610 . S
N599 C600 1.351 . S
C600 C594 1.428 . S
C600 N599 1.351 . S
C600 C601 1.434 . S
C601 C592 1.429 . S
C601 N598 1.350 . S
C601 C600 1.434 . S
C602 C603 1.369 . S
C602 C604 1.419 . S
C602 H606 0.930 . S
C603 C602 1.369 . S
C603 C612 1.429 . S
C604 C602 1.419 . S
C604 C605 1.363 . S
C604 H607 0.929 . S
C605 C604 1.363 . S
C605 C611 1.428 . S
H606 C602 0.930 . S
H607 C604 0.929 . S
S608 N609 1.613 . S
S608 N610 1.610 . S
N609 S608 1.613 . S
N609 C612 1.350 . S
N610 S608 1.610 . S
N610 C611 1.351 . S
C611 C605 1.428 . S
C611 N610 1.351 . S
C611 C612 1.434 . S
C612 C603 1.429 . S
C612 N609 1.350 . S
C612 C611 1.434 . S
C613 C614 1.369 . S
C613 C615 1.419 . S
C613 H617 0.930 . S
C614 C613 1.369 . S
C614 C623 1.429 . S
C615 C613 1.419 . S
C615 C616 1.363 . S
C615 H618 0.929 . S
C616 C615 1.363 . S
C616 C622 1.428 . S
H617 C613 0.930 . S
H618 C615 0.929 . S
S619 N620 1.613 . S
S619 N621 1.610 . S
N620 S619 1.613 . S
N620 C623 1.350 . S
N621 S619 1.610 . S
N621 C622 1.351 . S
C622 C616 1.428 . S
C622 N621 1.351 . S
C622 C623 1.434 . S
C623 C614 1.429 . S
C623 N620 1.350 . S
C623 C622 1.434 . S
C624 C625 1.369 . S
C624 C626 1.419 . S
C624 H628 0.930 . S
C625 C624 1.369 . S
C625 C634 1.429 . S
C626 C624 1.419 . S
C626 C627 1.363 . S
C626 H629 0.929 . S
C627 C626 1.363 . S
C627 C633 1.428 . S
H628 C624 0.930 . S
H629 C626 0.929 . S
S630 N631 1.613 . S
S630 N632 1.610 . S
N631 S630 1.613 . S
N631 C634 1.350 . S
N632 S630 1.610 . S
N632 C633 1.351 . S
C633 C627 1.428 . S
C633 N632 1.351 . S
C633 C634 1.434 . S
C634 C625 1.429 . S
C634 N631 1.350 . S
C634 C633 1.434 . S
C635 C636 1.369 . S
C635 C637 1.419 . S
C635 H639 0.930 1_655 S
C636 C635 1.369 . S
C636 C645 1.429 . S
C637 C635 1.419 . S
C637 C638 1.363 . S
C637 H640 0.941 . S
C638 C637 1.363 . S
C638 C644 1.428 . S
H639 C635 0.930 1_455 S
H640 C637 0.941 . S
S641 N642 1.613 . S
S641 N643 1.610 . S
N642 S641 1.613 . S
N642 C645 1.350 . S
N643 S641 1.610 . S
N643 C644 1.351 . S
C644 C638 1.428 . S
C644 N643 1.351 . S
C644 C645 1.434 . S
C645 C636 1.429 . S
C645 N642 1.350 . S
C645 C644 1.434 . S
C646 C647 1.369 . S
C646 C648 1.419 . S
C646 H650 0.930 . S
C647 C646 1.369 . S
C647 C656 1.429 . S
C648 C646 1.419 . S
C648 C649 1.363 . S
C648 H651 0.929 . S
C649 C648 1.363 . S
C649 C655 1.428 . S
H650 C646 0.930 . S
H651 C648 0.929 . S
S652 N653 1.613 . S
S652 N654 1.610 . S
N653 S652 1.613 . S
N653 C656 1.350 1_556 S
N654 S652 1.610 . S
N654 C655 1.351 1_556 S
C655 C649 1.428 . S
C655 N654 1.351 1_554 S
C655 C656 1.434 . S
C656 C647 1.429 . S
C656 N653 1.350 1_554 S
C656 C655 1.434 . S
C361 C9 1.411 . S
C363 C18 1.400 . S
C372 C58 1.426 . S
C374 C49 1.415 . S
C383 C89 1.401 . S
C385 C98 1.411 . S
C394 C138 1.406 . S
C396 C129 1.404 . S
C405 C169 1.424 . S
C407 C178 1.416 . S
C416 C218 1.400 . S
C418 C209 1.412 . S
C427 C250 1.473 . S
C429 C259 1.481 1_554 S
C438 C290 1.452 . S
C440 C299 1.456 1_554 S
C449 C330 1.467 . S
C451 C339 1.460 1_554 S
C460 C206 2.480 . S
C462 C10 2.535 . S
C471 C46 1.580 . S
C473 C126 1.523 . S
C482 C90 3.772 . S
C484 C170 3.685 1_545 S
C493 C86 0.961 . S
C495 C255 0.977 . S
C504 C295 1.604 . S
C506 C6 1.531 . S
C515 C335 1.917 . S
C517 C50 1.968 . S
C526 C329 2.842 . S
C528 C19 2.875 . S
C537 C55 1.823 . S
C539 C249 1.809 . S
C548 C289 1.968 . S
C550 C99 2.023 . S
C559 C95 2.479 1_565 S
C561 C139 2.535 . S
C570 C175 1.574 . S
C572 C15 1.529 . S
C581 C59 3.687 . S
C583 C219 3.772 . S
C592 C338 2.841 . S
C594 C130 2.874 . S
C603 C258 1.799 . S
C605 C166 1.828 . S
C614 C298 1.949 1_455 S
C616 C210 2.024 . S
C625 C246 0.970 . S
C627 C215 0.968 . S
C636 C135 1.532 . S
C638 C286 1.604 . S
C647 C326 1.917 . S
C649 C179 1.968 . S
