# Generated by pormake.
# Topology unb, (4)-cn, num edge types: 1
# Building blocks:
#     Node 0, Type 0, BuildingBlock: NAHDIM_clean_sbu_0, # of connection points: 4
#     Node 1, Type 0, BuildingBlock: NAHDIM_clean_sbu_0, # of connection points: 4
#     Node 2, Type 0, BuildingBlock: NAHDIM_clean_sbu_0, # of connection points: 4
#     Node 3, Type 0, BuildingBlock: NAHDIM_clean_sbu_0, # of connection points: 4
#     Node 4, Type 0, BuildingBlock: NAHDIM_clean_sbu_0, # of connection points: 4
#     Node 5, Type 0, BuildingBlock: NAHDIM_clean_sbu_0, # of connection points: 4
#     Node 6, Type 0, BuildingBlock: NAHDIM_clean_sbu_0, # of connection points: 4
#     Node 7, Type 0, BuildingBlock: NAHDIM_clean_sbu_0, # of connection points: 4
#     Node 8, Type 0, BuildingBlock: NAHDIM_clean_sbu_0, # of connection points: 4
#     Node 9, Type 0, BuildingBlock: NAHDIM_clean_sbu_0, # of connection points: 4
#     Node 10, Type 0, BuildingBlock: NAHDIM_clean_sbu_0, # of connection points: 4
#     Node 11, Type 0, BuildingBlock: NAHDIM_clean_sbu_0, # of connection points: 4
#     Node 12, Type 0, BuildingBlock: NAHDIM_clean_sbu_0, # of connection points: 4
#     Node 13, Type 0, BuildingBlock: NAHDIM_clean_sbu_0, # of connection points: 4
#     Node 14, Type 0, BuildingBlock: NAHDIM_clean_sbu_0, # of connection points: 4
#     Node 15, Type 0, BuildingBlock: NAHDIM_clean_sbu_0, # of connection points: 4
#     Node 16, Type 0, BuildingBlock: NAHDIM_clean_sbu_0, # of connection points: 4
#     Node 17, Type 0, BuildingBlock: NAHDIM_clean_sbu_0, # of connection points: 4
#     Edge 18, Type (0, 0), BuildingBlock: KIFKEQ_clean_linker_1, # of connection points: 2
#     Edge 19, Type (0, 0), BuildingBlock: KIFKEQ_clean_linker_1, # of connection points: 2
#     Edge 20, Type (0, 0), BuildingBlock: KIFKEQ_clean_linker_1, # of connection points: 2
#     Edge 21, Type (0, 0), BuildingBlock: KIFKEQ_clean_linker_1, # of connection points: 2
#     Edge 22, Type (0, 0), BuildingBlock: KIFKEQ_clean_linker_1, # of connection points: 2
#     Edge 23, Type (0, 0), BuildingBlock: KIFKEQ_clean_linker_1, # of connection points: 2
#     Edge 24, Type (0, 0), BuildingBlock: KIFKEQ_clean_linker_1, # of connection points: 2
#     Edge 25, Type (0, 0), BuildingBlock: KIFKEQ_clean_linker_1, # of connection points: 2
#     Edge 26, Type (0, 0), BuildingBlock: KIFKEQ_clean_linker_1, # of connection points: 2
#     Edge 27, Type (0, 0), BuildingBlock: KIFKEQ_clean_linker_1, # of connection points: 2
#     Edge 28, Type (0, 0), BuildingBlock: KIFKEQ_clean_linker_1, # of connection points: 2
#     Edge 29, Type (0, 0), BuildingBlock: KIFKEQ_clean_linker_1, # of connection points: 2
#     Edge 30, Type (0, 0), BuildingBlock: KIFKEQ_clean_linker_1, # of connection points: 2
#     Edge 31, Type (0, 0), BuildingBlock: KIFKEQ_clean_linker_1, # of connection points: 2
#     Edge 32, Type (0, 0), BuildingBlock: KIFKEQ_clean_linker_1, # of connection points: 2
#     Edge 33, Type (0, 0), BuildingBlock: KIFKEQ_clean_linker_1, # of connection points: 2
#     Edge 34, Type (0, 0), BuildingBlock: KIFKEQ_clean_linker_1, # of connection points: 2
#     Edge 35, Type (0, 0), BuildingBlock: KIFKEQ_clean_linker_1, # of connection points: 2
#     Edge 36, Type (0, 0), BuildingBlock: KIFKEQ_clean_linker_1, # of connection points: 2
#     Edge 37, Type (0, 0), BuildingBlock: KIFKEQ_clean_linker_1, # of connection points: 2
#     Edge 38, Type (0, 0), BuildingBlock: KIFKEQ_clean_linker_1, # of connection points: 2
#     Edge 39, Type (0, 0), BuildingBlock: KIFKEQ_clean_linker_1, # of connection points: 2
#     Edge 40, Type (0, 0), BuildingBlock: KIFKEQ_clean_linker_1, # of connection points: 2
#     Edge 41, Type (0, 0), BuildingBlock: KIFKEQ_clean_linker_1, # of connection points: 2
#     Edge 42, Type (0, 0), BuildingBlock: KIFKEQ_clean_linker_1, # of connection points: 2
#     Edge 43, Type (0, 0), BuildingBlock: KIFKEQ_clean_linker_1, # of connection points: 2
#     Edge 44, Type (0, 0), BuildingBlock: KIFKEQ_clean_linker_1, # of connection points: 2
#     Edge 45, Type (0, 0), BuildingBlock: KIFKEQ_clean_linker_1, # of connection points: 2
#     Edge 46, Type (0, 0), BuildingBlock: KIFKEQ_clean_linker_1, # of connection points: 2
#     Edge 47, Type (0, 0), BuildingBlock: KIFKEQ_clean_linker_1, # of connection points: 2
#     Edge 48, Type (0, 0), BuildingBlock: KIFKEQ_clean_linker_1, # of connection points: 2
#     Edge 49, Type (0, 0), BuildingBlock: KIFKEQ_clean_linker_1, # of connection points: 2
#     Edge 50, Type (0, 0), BuildingBlock: KIFKEQ_clean_linker_1, # of connection points: 2
#     Edge 51, Type (0, 0), BuildingBlock: KIFKEQ_clean_linker_1, # of connection points: 2
#     Edge 52, Type (0, 0), BuildingBlock: KIFKEQ_clean_linker_1, # of connection points: 2
#     Edge 53, Type (0, 0), BuildingBlock: KIFKEQ_clean_linker_1, # of connection points: 2
# Relax obj value: 0.066
# Max RMSD: 0.064
# Mean RMSD: 0.063
data_MOF--net-unb--node1-NAHDIM_clean_sbu_0--edge1-KIFKEQ_clean_linker_1
_symmetry_space_group_name_H-M    P1
_symmetry_Int_Tables_number       1
_symmetry_cell_setting            triclinic
loop_
_symmetry_equiv_pos_as_xyz
'x, y, z'
_cell_length_a     65.770435
_cell_length_b     65.763138
_cell_length_c     26.117476
_cell_angle_alpha  89.978386
_cell_angle_beta   90.024205
_cell_angle_gamma 120.02089
loop_
_atom_site_label
_atom_site_type_symbol
_atom_site_fract_x
_atom_site_fract_y
_atom_site_fract_z
_atom_type_partial_charge
C0 C 0.15796 0.29219 0.16082 0.0
O1 O 0.17487 0.29052 0.13802 0.0
O2 O 0.14538 0.24486 0.066 0.0
Zn3 Zn 0.12963 0.26429 0.07391 0.0
O4 O 0.09456 0.24417 0.06671 0.0
C5 C 0.16149 0.29577 0.99807 0.0
O6 O 0.17658 0.29185 0.02288 0.0
O7 O 0.1376 0.28222 0.1408 0.0
C8 C 0.08605 0.23354 0.02465 0.0
O9 O 0.10044 0.23514 0.98793 0.0
C10 C 0.13533 0.22266 0.07027 0.0
O11 O 0.11331 0.21085 0.08512 0.0
O12 O 0.14053 0.28661 0.01439 0.0
C13 C 0.70397 0.85721 0.16454 0.0
O14 O 0.69379 0.86189 0.12668 0.0
O15 O 0.75979 0.90358 0.08148 0.0
Zn16 Zn 0.73972 0.86828 0.0877 0.0
O17 O 0.75887 0.85246 0.07558 0.0
C18 C 0.7194 0.86901 0.99069 0.0
O19 O 0.73917 0.88903 0.9863 0.0
O20 O 0.72392 0.859 0.15706 0.0
C21 C 0.7728 0.85829 0.03763 0.0
O22 O 0.77528 0.87532 0.0073 0.0
C23 C 0.78197 0.91523 0.08678 0.0
O24 O 0.79317 0.90441 0.10176 0.0
O25 O 0.7154 0.85703 0.03151 0.0
C26 C 0.14122 0.86818 0.18632 0.0
O27 O 0.15214 0.89098 0.17877 0.0
O28 O 0.08475 0.85257 0.07602 0.0
Zn29 Zn 0.11973 0.86664 0.08706 0.0
O30 O 0.1356 0.90216 0.08507 0.0
C31 C 0.1328 0.86539 0.98315 0.0
O32 O 0.12806 0.8825 0.97939 0.0
O33 O 0.12655 0.85464 0.15302 0.0
C34 C 0.15688 0.9146 0.07095 0.0
O35 O 0.16917 0.90428 0.0614 0.0
C36 C 0.07723 0.86356 0.04905 0.0
O37 O 0.09216 0.88487 0.03312 0.0
O38 O 0.13103 0.85584 0.02654 0.0
C39 C 0.273 0.14324 0.83294 0.0
O40 O 0.25152 0.13916 0.82553 0.0
O41 O 0.23874 0.14629 0.94469 0.0
Zn42 Zn 0.25768 0.12996 0.93909 0.0
O43 O 0.23739 0.09471 0.943 0.0
C44 C 0.28811 0.16026 0.01835 0.0
O45 O 0.28688 0.17658 0.9918 0.0
O46 O 0.27903 0.14033 0.87736 0.0
C47 C 0.22658 0.0864 0.985 0.0
O48 O 0.22793 0.10103 0.02086 0.0
C49 C 0.21656 0.13668 0.94071 0.0
O50 O 0.20422 0.11446 0.92751 0.0
O51 O 0.27768 0.13926 0.00197 0.0
C52 C 0.8657 0.14935 0.82627 0.0
O53 O 0.88273 0.16678 0.85177 0.0
O54 O 0.85431 0.08782 0.92293 0.0
Zn55 Zn 0.86611 0.12271 0.91431 0.0
O56 O 0.90166 0.14168 0.92183 0.0
C57 C 0.84446 0.12075 0.01194 0.0
O58 O 0.84609 0.10177 0.01709 0.0
O59 O 0.85603 0.12879 0.84527 0.0
C60 C 0.9106 0.147 0.96647 0.0
O61 O 0.89661 0.14012 0.00639 0.0
C62 C 0.86651 0.08001 0.94397 0.0
O63 O 0.88837 0.09478 0.95661 0.0
O64 O 0.85152 0.13255 0.97061 0.0
C65 C 0.85439 0.6995 0.83134 0.0
O66 O 0.86002 0.68978 0.86854 0.0
O67 O 0.90033 0.75414 0.91525 0.0
Zn68 Zn 0.865 0.73483 0.90872 0.0
O69 O 0.85002 0.75479 0.92073 0.0
C70 C 0.86444 0.7148 0.00653 0.0
O71 O 0.884 0.73495 0.0119 0.0
O72 O 0.85546 0.7191 0.83936 0.0
C73 C 0.85727 0.77011 0.95616 0.0
O74 O 0.87527 0.77355 0.98429 0.0
C75 C 0.91253 0.77598 0.90579 0.0
O76 O 0.90227 0.787 0.8864 0.0
O77 O 0.85312 0.7104 0.96467 0.0
C78 C 0.7951 0.61482 0.49324 0.0
O79 O 0.77942 0.6172 0.46679 0.0
O80 O 0.8054 0.56409 0.39643 0.0
Zn81 Zn 0.7921 0.5856 0.40705 0.0
O82 O 0.75661 0.56722 0.40211 0.0
C83 C 0.80192 0.60204 0.30423 0.0
O84 O 0.79024 0.5793 0.29592 0.0
O85 O 0.80284 0.60199 0.47546 0.0
C86 C 0.7454 0.57542 0.37828 0.0
O87 O 0.75702 0.59666 0.35878 0.0
C88 C 0.79415 0.54444 0.37352 0.0
O89 O 0.77239 0.53692 0.35903 0.0
O90 O 0.80505 0.60951 0.3501 0.0
C91 C 0.38921 0.19625 0.54024 0.0
O92 O 0.41033 0.21467 0.54462 0.0
O93 O 0.42479 0.2291 0.42643 0.0
Zn94 Zn 0.40225 0.1942 0.43296 0.0
O95 O 0.42027 0.17668 0.42595 0.0
C96 C 0.37037 0.197 0.36001 0.0
O97 O 0.37424 0.21557 0.3866 0.0
O98 O 0.38293 0.18542 0.49775 0.0
C99 C 0.42013 0.16736 0.3831 0.0
O100 O 0.40794 0.1689 0.345 0.0
C101 C 0.43345 0.236 0.38196 0.0
O102 O 0.42789 0.22031 0.34557 0.0
O103 O 0.37975 0.18511 0.37413 0.0
C104 C 0.81105 0.18046 0.48749 0.0
O105 O 0.80268 0.16422 0.45175 0.0
O106 O 0.76739 0.19489 0.41071 0.0
Zn107 Zn 0.80251 0.20704 0.41014 0.0
O108 O 0.82056 0.24225 0.39698 0.0
C109 C 0.79663 0.1829 0.31371 0.0
O110 O 0.77803 0.18532 0.31062 0.0
O111 O 0.81254 0.20018 0.47849 0.0
C112 C 0.82585 0.25044 0.35171 0.0
O113 O 0.81954 0.23583 0.31293 0.0
C114 C 0.75831 0.20499 0.3857 0.0
O115 O 0.77211 0.2246 0.36126 0.0
O116 O 0.80971 0.19056 0.35315 0.0
C117 C 0.95839 0.47141 0.14835 0.0
O118 O 0.95905 0.45412 0.17203 0.0
O119 O 0.90774 0.48135 0.24534 0.0
Zn120 Zn 0.93083 0.46976 0.23724 0.0
O121 O 0.91467 0.43435 0.2448 0.0
C122 C 0.9492 0.49041 0.33587 0.0
O123 O 0.92831 0.48824 0.34019 0.0
O124 O 0.94726 0.48052 0.16878 0.0
C125 C 0.9043 0.42516 0.28676 0.0
O126 O 0.90384 0.4388 0.32289 0.0
C127 C 0.88549 0.4687 0.24634 0.0
O128 O 0.87563 0.44601 0.23808 0.0
O129 O 0.95465 0.48407 0.29449 0.0
C130 C 0.52583 0.47949 0.18133 0.0
O131 O 0.54317 0.4969 0.20618 0.0
O132 O 0.5148 0.41723 0.27282 0.0
Zn133 Zn 0.52616 0.4521 0.26864 0.0
O134 O 0.5616 0.47144 0.27688 0.0
C135 C 0.50368 0.44841 0.36646 0.0
O136 O 0.50544 0.42946 0.37071 0.0
O137 O 0.51614 0.45896 0.20051 0.0
C138 C 0.57051 0.477 0.32151 0.0
O139 O 0.55653 0.46986 0.36148 0.0
C140 C 0.52526 0.40868 0.29829 0.0
O141 O 0.5452 0.42293 0.32112 0.0
O142 O 0.51094 0.46068 0.32581 0.0
C143 C 0.5353 0.04066 0.17866 0.0
O144 O 0.53945 0.02964 0.21559 0.0
O145 O 0.57873 0.0992 0.26696 0.0
Zn146 Zn 0.54438 0.07459 0.25954 0.0
O147 O 0.52494 0.09005 0.27376 0.0
C148 C 0.5513 0.04714 0.33876 0.0
O149 O 0.57371 0.06082 0.32874 0.0
O150 O 0.53686 0.06037 0.18818 0.0
C151 C 0.51499 0.08778 0.31687 0.0
O152 O 0.51714 0.07491 0.35257 0.0
C153 C 0.58522 0.11027 0.30924 0.0
O154 O 0.5694 0.10575 0.3448 0.0
O155 O 0.53608 0.04922 0.31278 0.0
C156 C 0.4768 0.96026 0.83581 0.0
O157 O 0.46135 0.96313 0.80965 0.0
O158 O 0.47929 0.90278 0.74872 0.0
Zn159 Zn 0.47213 0.92947 0.75072 0.0
O160 O 0.43702 0.91681 0.7422 0.0
C161 C 0.49445 0.94434 0.65157 0.0
O162 O 0.4887 0.92218 0.64874 0.0
O163 O 0.48374 0.94673 0.81818 0.0
C164 C 0.42813 0.91357 0.69755 0.0
O165 O 0.44192 0.91887 0.65749 0.0
C166 C 0.46663 0.88379 0.72428 0.0
O167 O 0.44728 0.88043 0.70209 0.0
O168 O 0.48959 0.95185 0.69204 0.0
C169 C 0.04368 0.53344 0.81153 0.0
O170 O 0.03486 0.54096 0.77605 0.0
O171 O 0.10003 0.57997 0.73399 0.0
Zn172 Zn 0.07948 0.54444 0.73422 0.0
O173 O 0.09869 0.52847 0.72251 0.0
C174 C 0.06002 0.54737 0.63696 0.0
O175 O 0.08027 0.56691 0.63322 0.0
O176 O 0.06272 0.53352 0.80239 0.0
C177 C 0.10352 0.52457 0.67766 0.0
O178 O 0.09633 0.5315 0.6379 0.0
C179 C 0.11958 0.59062 0.71047 0.0
O180 O 0.12764 0.57827 0.68776 0.0
O181 O 0.0555 0.53488 0.67715 0.0
C182 C 0.47011 0.50877 0.84226 0.0
O183 O 0.46231 0.49256 0.80647 0.0
O184 O 0.42763 0.52426 0.76056 0.0
Zn185 Zn 0.46246 0.53522 0.76328 0.0
O186 O 0.4822 0.57009 0.74803 0.0
C187 C 0.45561 0.50951 0.66933 0.0
O188 O 0.43703 0.51198 0.66653 0.0
O189 O 0.47145 0.52838 0.83276 0.0
C190 C 0.48523 0.57737 0.70196 0.0
O191 O 0.47506 0.5621 0.66486 0.0
C192 C 0.41956 0.5368 0.74261 0.0
O193 O 0.43421 0.55875 0.73033 0.0
O194 O 0.46913 0.51769 0.70799 0.0
C195 C 0.62039 0.79963 0.50429 0.0
O196 O 0.6238 0.78497 0.53216 0.0
O197 O 0.56705 0.80711 0.59816 0.0
Zn198 Zn 0.59039 0.79585 0.58943 0.0
O199 O 0.57354 0.76046 0.59589 0.0
C200 C 0.60694 0.8061 0.69256 0.0
O201 O 0.5844 0.79255 0.70125 0.0
O202 O 0.60667 0.80654 0.52085 0.0
C203 C 0.58271 0.75006 0.61933 0.0
O204 O 0.60418 0.76247 0.63722 0.0
C205 C 0.54846 0.79559 0.62459 0.0
O206 O 0.54346 0.77518 0.64397 0.0
O207 O 0.61422 0.81025 0.64653 0.0
C208 C 0.17901 0.80587 0.50521 0.0
O209 O 0.16205 0.78946 0.53287 0.0
O210 O 0.19512 0.77276 0.60052 0.0
Zn211 Zn 0.20807 0.80785 0.59147 0.0
O212 O 0.24343 0.82518 0.60048 0.0
C213 C 0.1745 0.80703 0.66585 0.0
O214 O 0.1606 0.7857 0.64848 0.0
O215 O 0.19997 0.81564 0.52199 0.0
C216 C 0.25236 0.83099 0.64505 0.0
O217 O 0.23843 0.8257 0.68487 0.0
C218 C 0.19417 0.7648 0.64545 0.0
O219 O 0.20177 0.77951 0.68415 0.0
O220 O 0.19475 0.81942 0.64625 0.0
C221 C 0.19002 0.39152 0.4792 0.0
O222 O 0.17846 0.40276 0.48667 0.0
O223 O 0.24466 0.43125 0.5941 0.0
Zn224 Zn 0.20994 0.41065 0.57957 0.0
O225 O 0.19342 0.42956 0.58173 0.0
C226 C 0.20751 0.37789 0.65593 0.0
O227 O 0.22663 0.38098 0.63299 0.0
O228 O 0.20443 0.39267 0.51315 0.0
C229 C 0.1927 0.43803 0.62504 0.0
O230 O 0.20313 0.43464 0.66436 0.0
C231 C 0.25513 0.45349 0.59836 0.0
O232 O 0.24358 0.46458 0.58896 0.0
O233 O 0.19687 0.388 0.6382 0.0
H234 H 0.1619 0.38687 0.39769 0.0
H235 H 0.20855 0.36359 0.45469 0.0
H236 H 0.15451 0.36293 0.32131 0.0
H237 H 0.20071 0.33918 0.37876 0.0
H238 H 0.19986 0.31753 0.21114 0.0
H239 H 0.2079 0.34167 0.28758 0.0
H240 H 0.13478 0.32236 0.29518 0.0
H241 H 0.12685 0.29868 0.21817 0.0
C242 C 0.17054 0.37659 0.39404 0.0
C243 C 0.18582 0.37717 0.43238 0.0
C244 C 0.16617 0.36272 0.35034 0.0
C245 C 0.17693 0.34902 0.34389 0.0
C246 C 0.19234 0.34971 0.38213 0.0
C247 C 0.19674 0.36363 0.42583 0.0
C248 C 0.18548 0.31839 0.22916 0.0
C249 C 0.16272 0.30621 0.20838 0.0
C250 C 0.19007 0.33215 0.27319 0.0
C251 C 0.17201 0.33404 0.29753 0.0
C252 C 0.1492 0.32163 0.277 0.0
C253 C 0.14462 0.30791 0.23298 0.0
H254 H 0.61996 0.8325 0.44055 0.0
H255 H 0.64864 0.78631 0.45544 0.0
H256 H 0.6406 0.84702 0.35949 0.0
H257 H 0.66877 0.80037 0.37379 0.0
H258 H 0.72067 0.84775 0.25214 0.0
H259 H 0.70077 0.83441 0.33435 0.0
H260 H 0.6401 0.83496 0.27246 0.0
H261 H 0.66021 0.84885 0.19077 0.0
C262 C 0.63055 0.82534 0.42641 0.0
C263 C 0.63264 0.80824 0.45456 0.0
C264 C 0.64231 0.83358 0.37975 0.0
C265 C 0.65638 0.82488 0.35999 0.0
C266 C 0.6584 0.80774 0.38816 0.0
C267 C 0.64671 0.79955 0.43488 0.0
C268 C 0.70311 0.84509 0.25612 0.0
C269 C 0.69205 0.84938 0.21482 0.0
C270 C 0.69162 0.83729 0.3032 0.0
C271 C 0.66878 0.83354 0.3101 0.0
C272 C 0.65779 0.83796 0.26881 0.0
C273 C 0.6693 0.84581 0.2218 0.0
H274 H 0.13609 0.78935 0.45958 0.0
H275 H 0.2096 0.84057 0.44069 0.0
H276 H 0.12688 0.80392 0.38222 0.0
H277 H 0.20043 0.85485 0.36287 0.0
H278 H 0.17208 0.8924 0.26333 0.0
H279 H 0.18109 0.87668 0.33887 0.0
H280 H 0.13166 0.80617 0.2894 0.0
H281 H 0.12229 0.82193 0.21404 0.0
C282 C 0.15033 0.80359 0.43873 0.0
C283 C 0.17358 0.81384 0.45653 0.0
C284 C 0.14505 0.81187 0.39418 0.0
C285 C 0.16289 0.83064 0.3664 0.0
C286 C 0.1862 0.84061 0.38375 0.0
C287 C 0.19148 0.83231 0.42823 0.0
C288 C 0.16308 0.87354 0.26849 0.0
C289 C 0.14644 0.85845 0.23255 0.0
C290 C 0.16839 0.86451 0.3117 0.0
C291 C 0.15719 0.84014 0.32016 0.0
C292 C 0.14045 0.82503 0.28434 0.0
C293 C 0.13516 0.83407 0.24101 0.0
H294 H 0.34331 0.16113 0.54082 0.0
H295 H 0.39706 0.21377 0.638 0.0
H296 H 0.3155 0.14856 0.61155 0.0
H297 H 0.36906 0.20132 0.7087 0.0
H298 H 0.31915 0.15481 0.83656 0.0
H299 H 0.34727 0.16764 0.76628 0.0
H300 H 0.29399 0.16297 0.66238 0.0
H301 H 0.26572 0.14982 0.73252 0.0
C302 C 0.34922 0.17005 0.57727 0.0
C303 C 0.37246 0.18847 0.58371 0.0
C304 C 0.3332 0.16293 0.61773 0.0
C305 C 0.34002 0.17397 0.66574 0.0
C306 C 0.3633 0.1923 0.67234 0.0
C307 C 0.37932 0.19951 0.63174 0.0
C308 C 0.3134 0.15651 0.79874 0.0
C309 C 0.29013 0.15123 0.79018 0.0
C310 C 0.32959 0.16401 0.75851 0.0
C311 C 0.32289 0.16633 0.70871 0.0
C312 C 0.29964 0.16109 0.70017 0.0
C313 C 0.28346 0.15367 0.74045 0.0
H314 H 0.81254 0.14125 0.5164 0.0
H315 H 0.82724 0.2092 0.57157 0.0
H316 H 0.82586 0.1338 0.59758 0.0
H317 H 0.84 0.2015 0.65334 0.0
H318 H 0.88446 0.19056 0.77262 0.0
H319 H 0.87134 0.19793 0.69108 0.0
H320 H 0.81522 0.12567 0.68617 0.0
H321 H 0.82874 0.11815 0.76712 0.0
C322 C 0.81848 0.15456 0.54595 0.0
C323 C 0.81884 0.17585 0.53736 0.0
C324 C 0.826 0.15022 0.59271 0.0
C325 C 0.83402 0.16702 0.63218 0.0
C326 C 0.83428 0.18829 0.62361 0.0
C327 C 0.82681 0.19266 0.57678 0.0
C328 C 0.86934 0.17621 0.75414 0.0
C329 C 0.85768 0.15375 0.77646 0.0
C330 C 0.8617 0.18049 0.70747 0.0
C331 C 0.84216 0.16243 0.68194 0.0
C332 C 0.83052 0.13994 0.70431 0.0
C333 C 0.83821 0.13564 0.75093 0.0
H334 H 0.8425 0.71512 0.74535 0.0
H335 H 0.84783 0.65651 0.80396 0.0
H336 H 0.82869 0.69495 0.66353 0.0
H337 H 0.83348 0.63612 0.72269 0.0
H338 H 0.82979 0.61638 0.554 0.0
H339 H 0.84467 0.6373 0.63463 0.0
H340 H 0.79489 0.66187 0.62581 0.0
H341 H 0.78043 0.64144 0.54453 0.0
C342 C 0.84068 0.69791 0.74085 0.0
C343 C 0.84629 0.68745 0.78126 0.0
C344 C 0.8326 0.68627 0.69401 0.0
C345 C 0.8299 0.66386 0.68646 0.0
C346 C 0.83564 0.65348 0.72685 0.0
C347 C 0.84376 0.66513 0.77362 0.0
C348 C 0.82201 0.62624 0.56925 0.0
C349 C 0.80391 0.62723 0.54275 0.0
C350 C 0.83047 0.63815 0.61567 0.0
C351 C 0.821 0.65129 0.63683 0.0
C352 C 0.80285 0.65222 0.61031 0.0
C353 C 0.79444 0.64036 0.56382 0.0
H354 H 0.98199 0.45466 0.09213 0.0
H355 H 0.96291 0.5087 0.09248 0.0
H356 H 0.00242 0.46957 0.01097 0.0
H357 H 0.98381 0.52395 0.01198 0.0
H358 H 0.00204 0.52952 0.84167 0.0
H359 H 0.98138 0.51435 0.92241 0.0
H360 H 0.03695 0.50261 0.97511 0.0
H361 H 0.05737 0.51729 0.89383 0.0
C362 C 0.98222 0.46978 0.07503 0.0
C363 C 0.97077 0.48045 0.09885 0.0
C364 C 0.99408 0.47843 0.02859 0.0
C365 C 0.99482 0.498 0.00486 0.0
C366 C 0.98334 0.50866 0.02874 0.0
C367 C 0.97145 0.49998 0.0751 0.0
C368 C 0.00988 0.52372 0.87046 0.0
C369 C 0.03137 0.52461 0.86118 0.0
C370 C 0.99808 0.51513 0.91695 0.0
C371 C 0.00747 0.50724 0.9554 0.0
C372 C 0.02902 0.50822 0.94614 0.0
C373 C 0.04082 0.51679 0.89961 0.0
H374 H 0.48844 0.44814 0.1236 0.0
H375 H 0.5443 0.52052 0.12696 0.0
H376 H 0.47451 0.45526 0.04283 0.0
H377 H 0.53074 0.5275 0.04551 0.0
H378 H 0.48606 0.5379 0.92575 0.0
H379 H 0.49904 0.53074 0.00786 0.0
H380 H 0.48512 0.46284 0.95403 0.0
H381 H 0.47162 0.46975 0.87253 0.0
C382 C 0.49784 0.46555 0.10699 0.0
C383 C 0.5175 0.48375 0.13182 0.0
C384 C 0.48992 0.46961 0.06047 0.0
C385 C 0.50149 0.49196 0.0375 0.0
C386 C 0.52117 0.51016 0.06239 0.0
C387 C 0.52905 0.50611 0.109 0.0
C388 C 0.48571 0.52142 0.93148 0.0
C389 C 0.47778 0.5044 0.89251 0.0
C390 C 0.4933 0.51737 0.97849 0.0
C391 C 0.49318 0.49622 0.98766 0.0
C392 C 0.48516 0.47919 0.94866 0.0
C393 C 0.47753 0.48321 0.90174 0.0
H394 H 0.52565 0.05853 0.09304 0.0
H395 H 0.52798 0.99777 0.14808 0.0
H396 H 0.51243 0.03981 0.00955 0.0
H397 H 0.51424 0.97886 0.06524 0.0
H398 H 0.51084 0.96039 0.89647 0.0
H399 H 0.52598 0.98066 0.97765 0.0
H400 H 0.47847 0.008 0.96903 0.0
H401 H 0.46375 0.98821 0.88718 0.0
C402 C 0.52334 0.04119 0.08738 0.0
C403 C 0.52789 0.02967 0.12733 0.0
C404 C 0.5156 0.03037 0.03957 0.0
C405 C 0.5122 0.00778 0.03056 0.0
C406 C 0.51697 0.99639 0.07046 0.0
C407 C 0.52474 0.00721 0.11817 0.0
C408 C 0.50364 0.97075 0.91182 0.0
C409 C 0.48604 0.97263 0.88527 0.0
C410 C 0.51224 0.98229 0.95857 0.0
C411 C 0.50343 0.99596 0.98009 0.0
C412 C 0.48591 0.99791 0.95335 0.0
C413 C 0.47735 0.98642 0.90651 0.0
H414 H 0.13265 0.29959 0.92829 0.0
H415 H 0.20537 0.32091 0.95658 0.0
H416 H 0.14318 0.31844 0.84474 0.0
H417 H 0.21606 0.34048 0.87364 0.0
H418 H 0.22393 0.35143 0.70139 0.0
H419 H 0.2125 0.33161 0.78405 0.0
H420 H 0.16288 0.35588 0.80431 0.0
H421 H 0.17372 0.37496 0.72111 0.0
C422 C 0.15094 0.30858 0.91696 0.0
C423 C 0.16818 0.30874 0.94904 0.0
C424 C 0.157 0.31946 0.86906 0.0
C425 C 0.18047 0.33092 0.8523 0.0
C426 C 0.19776 0.33144 0.88488 0.0
C427 C 0.19166 0.3204 0.93264 0.0
C428 C 0.21045 0.35237 0.72335 0.0
C429 C 0.19972 0.36474 0.70465 0.0
C430 C 0.20404 0.34118 0.77095 0.0
C431 C 0.18687 0.34226 0.80105 0.0
C432 C 0.17594 0.35441 0.78193 0.0
C433 C 0.18223 0.36543 0.73423 0.0
H434 H 0.655 0.83168 0.68939 0.0
H435 H 0.59625 0.80246 0.79415 0.0
H436 H 0.68205 0.84689 0.76176 0.0
H437 H 0.6232 0.8181 0.86619 0.0
H438 H 0.67861 0.8268 0.98345 0.0
H439 H 0.65168 0.81177 0.91101 0.0
H440 H 0.69492 0.87635 0.82856 0.0
H441 H 0.72214 0.89116 0.90041 0.0
C442 C 0.64786 0.82863 0.72781 0.0
C443 C 0.62349 0.81582 0.73602 0.0
C444 C 0.66334 0.83744 0.76927 0.0
C445 C 0.65478 0.83367 0.81978 0.0
C446 C 0.63039 0.821 0.82785 0.0
C447 C 0.61494 0.81215 0.78647 0.0
C448 C 0.68234 0.83781 0.94992 0.0
C449 C 0.70253 0.86016 0.94767 0.0
C450 C 0.66685 0.82924 0.90847 0.0
C451 C 0.67117 0.84285 0.86395 0.0
C452 C 0.69127 0.86528 0.86195 0.0
C453 C 0.70678 0.87382 0.90332 0.0
H454 H 0.13571 0.82551 0.9722 0.0
H455 H 0.14466 0.88642 0.88955 0.0
H456 H 0.14538 0.81137 0.89452 0.0
H457 H 0.15426 0.87225 0.81221 0.0
H458 H 0.19661 0.8516 0.70418 0.0
H459 H 0.18668 0.86568 0.7813 0.0
H460 H 0.12725 0.79647 0.80702 0.0
H461 H 0.13715 0.78228 0.72982 0.0
C462 C 0.13982 0.83591 0.93757 0.0
C463 C 0.13942 0.85707 0.93698 0.0
C464 C 0.14518 0.82773 0.89308 0.0
C465 C 0.15051 0.8407 0.84738 0.0
C466 C 0.15039 0.86199 0.847 0.0
C467 C 0.1448 0.87003 0.89126 0.0
C468 C 0.18135 0.8394 0.72609 0.0
C469 C 0.16764 0.81583 0.71087 0.0
C470 C 0.17564 0.84749 0.77015 0.0
C471 C 0.15626 0.83214 0.80018 0.0
C472 C 0.14244 0.80861 0.78483 0.0
C473 C 0.148 0.80056 0.74043 0.0
H474 H 0.36433 0.16333 0.29116 0.0
H475 H 0.34678 0.21757 0.31851 0.0
H476 H 0.34472 0.15499 0.20879 0.0
H477 H 0.32639 0.20866 0.23628 0.0
H478 H 0.31528 0.20352 0.06186 0.0
H479 H 0.33458 0.21231 0.14528 0.0
H480 H 0.30646 0.13812 0.17207 0.0
H481 H 0.28786 0.12942 0.08839 0.0
C482 C 0.35603 0.1733 0.27988 0.0
C483 C 0.3571 0.19111 0.31144 0.0
C484 C 0.34467 0.16843 0.23265 0.0
C485 C 0.33394 0.18112 0.21593 0.0
C486 C 0.33476 0.19878 0.24774 0.0
C487 C 0.34627 0.20376 0.29502 0.0
C488 C 0.31332 0.18912 0.08553 0.0
C489 C 0.30018 0.1658 0.06839 0.0
C490 C 0.32421 0.19414 0.1335 0.0
C491 C 0.32208 0.17592 0.16535 0.0
C492 C 0.3088 0.1526 0.14818 0.0
C493 C 0.29806 0.14761 0.10021 0.0
H494 H 0.83591 0.10392 0.10964 0.0
H495 H 0.8351 0.15694 0.01317 0.0
H496 H 0.82412 0.11865 0.18271 0.0
H497 H 0.82327 0.17166 0.08663 0.0
H498 H 0.77708 0.17281 0.21844 0.0
H499 H 0.78825 0.15756 0.14525 0.0
H500 H 0.842 0.15551 0.23633 0.0
H501 H 0.83085 0.1708 0.30987 0.0
C502 C 0.83313 0.11866 0.10393 0.0
C503 C 0.83643 0.12927 0.05556 0.0
C504 C 0.82653 0.12718 0.14592 0.0
C505 C 0.82287 0.14633 0.14036 0.0
C506 C 0.82583 0.15675 0.09188 0.0
C507 C 0.83267 0.14838 0.04991 0.0
C508 C 0.79123 0.16904 0.22301 0.0
C509 C 0.80308 0.173 0.27 0.0
C510 C 0.79771 0.16046 0.18094 0.0
C511 C 0.81601 0.15541 0.18509 0.0
C512 C 0.8277 0.1591 0.2322 0.0
C513 C 0.82138 0.16792 0.2742 0.0
H514 H 0.88526 0.71854 0.09911 0.0
H515 H 0.82316 0.6729 0.01129 0.0
H516 H 0.87021 0.69123 0.17071 0.0
H517 H 0.80784 0.64581 0.08348 0.0
H518 H 0.79987 0.59136 0.20278 0.0
H519 H 0.81516 0.6184 0.13074 0.0
H520 H 0.83942 0.67714 0.23469 0.0
H521 H 0.82458 0.65007 0.307 0.0
C522 C 0.86836 0.7027 0.0951 0.0
C523 C 0.85541 0.69789 0.04948 0.0
C524 C 0.85966 0.68712 0.13631 0.0
C525 C 0.83778 0.66639 0.13291 0.0
C526 C 0.82488 0.6615 0.08714 0.0
C527 C 0.83361 0.67707 0.04584 0.0
C528 C 0.80846 0.61005 0.21032 0.0
C529 C 0.81105 0.61858 0.26064 0.0
C530 C 0.81711 0.62554 0.16896 0.0
C531 C 0.82849 0.64993 0.17694 0.0
C532 C 0.83102 0.65846 0.22729 0.0
C533 C 0.82241 0.64295 0.26871 0.0
H534 H 0.99549 0.50227 0.33759 0.0
H535 H 0.93997 0.49811 0.43345 0.0
H536 H 0.0222 0.51606 0.41089 0.0
H537 H 0.96666 0.51187 0.5064 0.0
H538 H 0.01474 0.51072 0.63451 0.0
H539 H 0.988 0.49697 0.56129 0.0
H540 H 0.04127 0.5519 0.46764 0.0
H541 H 0.06801 0.56567 0.54054 0.0
C542 C 0.989 0.50433 0.3742 0.0
C543 C 0.96563 0.49913 0.37969 0.0
C544 C 0.00431 0.5123 0.41607 0.0
C545 C 0.99646 0.51499 0.46431 0.0
C546 C 0.9731 0.50974 0.46979 0.0
C547 C 0.95788 0.50201 0.42788 0.0
C548 C 0.02072 0.51989 0.59833 0.0
C549 C 0.04348 0.53929 0.59334 0.0
C550 C 0.00539 0.51207 0.55651 0.0
C551 C 0.01261 0.52334 0.50879 0.0
C552 C 0.03534 0.54273 0.50383 0.0
C553 C 0.05057 0.55069 0.54571 0.0
H554 H 0.48986 0.49747 0.66499 0.0
H555 H 0.43519 0.49846 0.57497 0.0
H556 H 0.50075 0.48202 0.59129 0.0
H557 H 0.44612 0.48309 0.50162 0.0
H558 H 0.49349 0.48399 0.36875 0.0
H559 H 0.48126 0.49801 0.4427 0.0
H560 H 0.48299 0.44506 0.53735 0.0
H561 H 0.49518 0.43098 0.4637 0.0
C562 C 0.48012 0.4943 0.62962 0.0
C563 C 0.46169 0.4992 0.6258 0.0
C564 C 0.48629 0.48539 0.58755 0.0
C565 C 0.47431 0.48145 0.54076 0.0
C566 C 0.4558 0.48619 0.53708 0.0
C567 C 0.44947 0.49485 0.57922 0.0
C568 C 0.49116 0.47527 0.40527 0.0
C569 C 0.4953 0.45638 0.41037 0.0
C570 C 0.48408 0.48325 0.44751 0.0
C571 C 0.48125 0.47264 0.49572 0.0
C572 C 0.48527 0.45369 0.50074 0.0
C573 C 0.49209 0.44556 0.45845 0.0
H574 H 0.493 0.93048 0.55295 0.0
H575 H 0.51763 0.99242 0.64724 0.0
H576 H 0.5074 0.95513 0.47671 0.0
H577 H 0.53246 0.01712 0.57053 0.0
H578 H 0.57762 0.04963 0.42173 0.0
H579 H 0.56458 0.02489 0.49834 0.0
H580 H 0.49534 0.98403 0.433 0.0
H581 H 0.50816 0.009 0.35674 0.0
C582 C 0.50168 0.94937 0.55747 0.0
C583 C 0.5042 0.95955 0.60608 0.0
C584 C 0.50979 0.96342 0.51379 0.0
C585 C 0.52097 0.98793 0.51793 0.0
C586 C 0.52398 0.99821 0.56654 0.0
C587 C 0.51544 0.98412 0.61026 0.0
C588 C 0.55967 0.03526 0.42355 0.0
C589 C 0.5439 0.03118 0.38325 0.0
C590 C 0.55221 0.02126 0.46748 0.0
C591 C 0.52899 0.00267 0.4714 0.0
C592 C 0.51336 0.99824 0.43068 0.0
C593 C 0.52068 0.01252 0.38719 0.0
H594 H 0.17816 0.24143 0.0238 0.0
H595 H 0.12029 0.17564 0.07727 0.0
H596 H 0.19733 0.22085 0.99023 0.0
H597 H 0.13991 0.15506 0.04507 0.0
H598 H 0.1697 0.12254 0.93523 0.0
H599 H 0.15019 0.14338 0.9666 0.0
H600 H 0.21714 0.20076 0.01621 0.0
H601 H 0.23663 0.18036 0.98347 0.0
C602 C 0.16965 0.22258 0.02902 0.0
C603 C 0.14768 0.21019 0.0533 0.0
C604 C 0.18071 0.21077 0.00986 0.0
C605 C 0.17019 0.18625 0.01482 0.0
C606 C 0.14835 0.17389 0.03978 0.0
C607 C 0.13719 0.18571 0.05869 0.0
C608 C 0.18025 0.1397 0.95242 0.0
C609 C 0.20473 0.14979 0.95669 0.0
C610 C 0.16905 0.15156 0.97086 0.0
C611 C 0.18205 0.17374 0.9942 0.0
C612 C 0.20657 0.18389 0.99785 0.0
C613 C 0.21776 0.17212 0.97917 0.0
H614 H 0.82292 0.04375 0.91883 0.0
H615 H 0.88432 0.06048 0.00941 0.0
H616 H 0.80315 0.00402 0.95349 0.0
H617 H 0.8643 0.02116 0.04563 0.0
H618 H 0.82896 0.94173 0.06676 0.0
H619 H 0.84981 0.9809 0.02945 0.0
H620 H 0.78561 0.98387 0.03053 0.0
H621 H 0.76463 0.94435 0.06588 0.0
C622 C 0.83222 0.03893 0.94604 0.0
C623 C 0.85519 0.05529 0.96134 0.0
C624 C 0.8208 0.01621 0.96636 0.0
C625 C 0.83199 0.00938 0.00288 0.0
C626 C 0.85519 0.02564 0.01721 0.0
C627 C 0.86668 0.04827 0.9965 0.0
C628 C 0.81935 0.95084 0.05943 0.0
C629 C 0.79514 0.93992 0.06923 0.0
C630 C 0.83132 0.97335 0.03807 0.0
C631 C 0.8194 0.98557 0.02651 0.0
C632 C 0.79528 0.97483 0.03774 0.0
C633 C 0.78328 0.95224 0.05856 0.0
H634 H 0.94018 0.82351 0.91656 0.0
H635 H 0.94052 0.75844 0.9358 0.0
H636 H 0.9794 0.84501 0.95339 0.0
H637 H 0.98011 0.77998 0.97074 0.0
H638 H 0.04047 0.82128 0.08014 0.0
H639 H 0.00079 0.80061 0.04508 0.0
H640 H 0.01934 0.85764 0.93867 0.0
H641 H 0.05855 0.87861 0.9751 0.0
C642 C 0.9488 0.81384 0.92783 0.0
C643 C 0.93723 0.78927 0.92327 0.0
C644 C 0.97134 0.82617 0.94892 0.0
C645 C 0.98295 0.81426 0.96543 0.0
C646 C 0.97155 0.78972 0.95955 0.0
C647 C 0.94893 0.77737 0.93899 0.0
C648 C 0.03597 0.82947 0.0496 0.0
C649 C 0.05267 0.85159 0.03049 0.0
C650 C 0.01328 0.81753 0.02911 0.0
C651 C 0.00683 0.82733 0.98866 0.0
C652 C 0.0235 0.84965 0.97019 0.0
C653 C 0.04607 0.86167 0.99102 0.0
H654 H 0.812 0.75769 0.93345 0.0
H655 H 0.87535 0.81269 0.00306 0.0
H656 H 0.79165 0.77926 0.95441 0.0
H657 H 0.85509 0.83445 0.02276 0.0
H658 H 0.81347 0.87435 0.98377 0.0
H659 H 0.83433 0.8532 0.96389 0.0
H660 H 0.78173 0.79261 0.04568 0.0
H661 H 0.76111 0.81389 0.06679 0.0
C662 C 0.82161 0.77445 0.9528 0.0
C663 C 0.84523 0.78352 0.96669 0.0
C664 C 0.80994 0.78668 0.96499 0.0
C665 C 0.82186 0.80842 0.99021 0.0
C666 C 0.84559 0.81773 0.00318 0.0
C667 C 0.85711 0.80526 0.99205 0.0
C668 C 0.80642 0.85655 0.99768 0.0
C669 C 0.7857 0.84575 0.02686 0.0
C670 C 0.81838 0.84453 0.98643 0.0
C671 C 0.80952 0.82132 0.00316 0.0
C672 C 0.78879 0.81047 0.03218 0.0
C673 C 0.77711 0.82268 0.04444 0.0
H674 H 0.13631 0.94145 0.08616 0.0
H675 H 0.19999 0.94509 0.03098 0.0
H676 H 0.15197 0.98265 0.0636 0.0
H677 H 0.21569 0.9863 0.00898 0.0
H678 H 0.22564 0.05165 0.92541 0.0
H679 H 0.20823 0.01005 0.94648 0.0
H680 H 0.18329 0.02193 0.09007 0.0
H681 H 0.20041 0.06339 0.06888 0.0
C682 C 0.15371 0.95107 0.0696 0.0
C683 C 0.1669 0.93997 0.06041 0.0
C684 C 0.16269 0.97469 0.05676 0.0
C685 C 0.18501 0.98769 0.03421 0.0
C686 C 0.19829 0.97665 0.02555 0.0
C687 C 0.18936 0.95308 0.03861 0.0
C688 C 0.21625 0.04534 0.96124 0.0
C689 C 0.21448 0.06085 0.99552 0.0
C690 C 0.20644 0.02155 0.9735 0.0
C691 C 0.19453 0.01274 0.02012 0.0
C692 C 0.19221 0.02813 0.05371 0.0
C693 C 0.20211 0.05192 0.0416 0.0
H694 H 0.94521 0.16855 0.89415 0.0
H695 H 0.93423 0.15384 0.05619 0.0
H696 H 0.98764 0.18954 0.90797 0.0
H697 H 0.97638 0.17398 0.06974 0.0
H698 H 0.06207 0.2049 0.94423 0.0
H699 H 0.01979 0.18377 0.92971 0.0
H700 H 0.00979 0.21217 0.07056 0.0
H701 H 0.05192 0.23257 0.08587 0.0
C702 C 0.95185 0.16968 0.93263 0.0
C703 C 0.93635 0.15963 0.97407 0.0
C704 C 0.97617 0.18158 0.94055 0.0
C705 C 0.98549 0.18353 0.99004 0.0
C706 C 0.96989 0.17325 0.03128 0.0
C707 C 0.94566 0.16156 0.02344 0.0
C708 C 0.05082 0.20654 0.97219 0.0
C709 C 0.06035 0.22035 0.0163 0.0
C710 C 0.02657 0.19457 0.96366 0.0
C711 C 0.01132 0.19626 0.9989 0.0
C712 C 0.02093 0.21012 0.04299 0.0
C713 C 0.04513 0.22193 0.0517 0.0
H714 H 0.77785 0.50621 0.31052 0.0
H715 H 0.83817 0.5539 0.40074 0.0
H716 H 0.79934 0.48756 0.27843 0.0
H717 H 0.85939 0.53484 0.36983 0.0
H718 H 0.9001 0.51514 0.2605 0.0
H719 H 0.87731 0.53238 0.29194 0.0
H720 H 0.81578 0.46331 0.30153 0.0
H721 H 0.83849 0.44607 0.26861 0.0
C722 C 0.79558 0.51251 0.32409 0.0
C723 C 0.80634 0.53164 0.35798 0.0
C724 C 0.80788 0.50176 0.30578 0.0
C725 C 0.83119 0.50983 0.32113 0.0
C726 C 0.84165 0.5285 0.35632 0.0
C727 C 0.82941 0.53931 0.3744 0.0
C728 C 0.88167 0.50362 0.26894 0.0
C729 C 0.87113 0.47921 0.26208 0.0
C730 C 0.86863 0.5135 0.28744 0.0
C731 C 0.84476 0.49923 0.29986 0.0
C732 C 0.83408 0.47485 0.29199 0.0
C733 C 0.84712 0.46495 0.27321 0.0
H734 H 0.53702 0.38566 0.36905 0.0
H735 H 0.48659 0.37387 0.25005 0.0
H736 H 0.51576 0.3438 0.38948 0.0
H737 H 0.46542 0.33206 0.27055 0.0
H738 H 0.44826 0.25582 0.2879 0.0
H739 H 0.47163 0.29735 0.26673 0.0
H740 H 0.47585 0.31505 0.42703 0.0
H741 H 0.45235 0.2733 0.44852 0.0
C742 C 0.52154 0.37413 0.34692 0.0
C743 C 0.51349 0.38309 0.30789 0.0
C744 C 0.50928 0.3502 0.35894 0.0
C745 C 0.4889 0.33471 0.33175 0.0
C746 C 0.48118 0.34357 0.29191 0.0
C747 C 0.49327 0.36752 0.28027 0.0
C748 C 0.45424 0.26851 0.31877 0.0
C749 C 0.4484 0.26126 0.36995 0.0
C750 C 0.46753 0.29232 0.30653 0.0
C751 C 0.47549 0.30942 0.34518 0.0
C752 C 0.47008 0.30221 0.39649 0.0
C753 C 0.45654 0.27834 0.40875 0.0
H754 H 0.62226 0.1283 0.24232 0.0
H755 H 0.60515 0.12772 0.40227 0.0
H756 H 0.664 0.15271 0.26272 0.0
H757 H 0.6468 0.15193 0.42247 0.0
H758 H 0.72415 0.16719 0.43784 0.0
H759 H 0.68203 0.14561 0.41979 0.0
H760 H 0.69227 0.19384 0.29713 0.0
H761 H 0.73432 0.21554 0.31522 0.0
C762 C 0.62738 0.13348 0.28171 0.0
C763 C 0.61041 0.12607 0.32065 0.0
C764 C 0.65125 0.14752 0.29334 0.0
C765 C 0.6586 0.15414 0.3442 0.0
C766 C 0.64162 0.14692 0.38302 0.0
C767 C 0.61778 0.13317 0.37133 0.0
C768 C 0.71738 0.17333 0.40738 0.0
C769 C 0.73258 0.19306 0.37796 0.0
C770 C 0.69328 0.16102 0.39715 0.0
C771 C 0.68394 0.16801 0.35689 0.0
C772 C 0.69905 0.18795 0.32806 0.0
C773 C 0.7231 0.20045 0.33871 0.0
H774 H 0.49133 0.08593 0.4043 0.0
H775 H 0.50801 0.11677 0.2531 0.0
H776 H 0.46858 0.10519 0.42129 0.0
H777 H 0.48564 0.1364 0.27054 0.0
H778 H 0.42204 0.14518 0.29679 0.0
H779 H 0.44506 0.12619 0.28179 0.0
H780 H 0.47301 0.14394 0.4353 0.0
H781 H 0.4495 0.16267 0.45081 0.0
C782 C 0.49023 0.0969 0.37474 0.0
C783 C 0.5014 0.09972 0.32723 0.0
C784 C 0.47732 0.10806 0.38465 0.0
C785 C 0.47526 0.1223 0.34728 0.0
C786 C 0.4866 0.12528 0.29991 0.0
C787 C 0.49951 0.1141 0.28998 0.0
C788 C 0.43305 0.14504 0.32749 0.0
C789 C 0.43394 0.15547 0.37503 0.0
C790 C 0.44639 0.13427 0.3187 0.0
C791 C 0.461 0.13368 0.35719 0.0
C792 C 0.46177 0.14393 0.40498 0.0
C793 C 0.44837 0.15473 0.41382 0.0
H794 H 0.8335 0.27285 0.25982 0.0
H795 H 0.84573 0.28602 0.42213 0.0
H796 H 0.8524 0.31486 0.24389 0.0
H797 H 0.86542 0.32817 0.40605 0.0
H798 H 0.87559 0.39999 0.36567 0.0
H799 H 0.85703 0.35798 0.38099 0.0
H800 H 0.88937 0.3503 0.24386 0.0
H801 H 0.90734 0.39235 0.22763 0.0
C802 C 0.84042 0.28473 0.29212 0.0
C803 C 0.83804 0.27607 0.34229 0.0
C804 C 0.85142 0.30887 0.28291 0.0
C805 C 0.86047 0.32498 0.32363 0.0
C806 C 0.85832 0.31629 0.37381 0.0
C807 C 0.84715 0.29211 0.38305 0.0
C808 C 0.87873 0.38935 0.33871 0.0
C809 C 0.89293 0.39952 0.29538 0.0
C810 C 0.86821 0.36524 0.34772 0.0
C811 C 0.87176 0.35069 0.31385 0.0
C812 C 0.88598 0.36089 0.27043 0.0
C813 C 0.89637 0.38503 0.2612 0.0
H814 H 0.59461 0.48609 0.41135 0.0
H815 H 0.60461 0.49967 0.24873 0.0
H816 H 0.63684 0.50962 0.42466 0.0
H817 H 0.64704 0.52321 0.26221 0.0
H818 H 0.71749 0.58552 0.31861 0.0
H819 H 0.67535 0.56133 0.304 0.0
H820 H 0.67309 0.50811 0.40459 0.0
H821 H 0.71528 0.53233 0.41949 0.0
C822 C 0.60582 0.49405 0.37838 0.0
C823 C 0.59624 0.49103 0.32895 0.0
C824 C 0.63004 0.50742 0.38604 0.0
C825 C 0.64525 0.51824 0.34451 0.0
C826 C 0.63571 0.51523 0.29501 0.0
C827 C 0.61145 0.50166 0.28727 0.0
C828 C 0.70802 0.56869 0.33774 0.0
C829 C 0.71974 0.56088 0.37036 0.0
C830 C 0.68391 0.55477 0.32903 0.0
C831 C 0.67094 0.53282 0.35305 0.0
C832 C 0.68261 0.52505 0.38587 0.0
C833 C 0.70677 0.53889 0.39428 0.0
H834 H 0.544 0.82899 0.57175 0.0
H835 H 0.52081 0.78653 0.70879 0.0
H836 H 0.52184 0.8482 0.59741 0.0
H837 H 0.49928 0.80629 0.73495 0.0
H838 H 0.49857 0.8777 0.77929 0.0
H839 H 0.51648 0.85412 0.75518 0.0
H840 H 0.47434 0.8316 0.61798 0.0
H841 H 0.45591 0.85452 0.64251 0.0
C842 C 0.5341 0.82372 0.60716 0.0
C843 C 0.53405 0.80624 0.6382 0.0
C844 C 0.52143 0.83464 0.62171 0.0
C845 C 0.50898 0.82866 0.6681 0.0
C846 C 0.50882 0.81115 0.69906 0.0
C847 C 0.52101 0.79982 0.68392 0.0
C848 C 0.49289 0.86742 0.74442 0.0
C849 C 0.47582 0.86789 0.71286 0.0
C850 C 0.50309 0.85396 0.73073 0.0
C851 C 0.49677 0.84122 0.68471 0.0
C852 C 0.47948 0.84136 0.65357 0.0
C853 C 0.46888 0.85436 0.66782 0.0
H854 H 0.18383 0.74247 0.7377 0.0
H855 H 0.18106 0.72946 0.57494 0.0
H856 H 0.16654 0.7006 0.75432 0.0
H857 H 0.16363 0.68738 0.5918 0.0
H858 H 0.1567 0.61761 0.64767 0.0
H859 H 0.17505 0.65973 0.63187 0.0
H860 H 0.12795 0.66409 0.74064 0.0
H861 H 0.10958 0.62196 0.75665 0.0
C862 C 0.17957 0.73069 0.70541 0.0
C863 C 0.18384 0.73931 0.65494 0.0
C864 C 0.16953 0.70667 0.715 0.0
C865 C 0.1637 0.69071 0.6744 0.0
C866 C 0.16814 0.69931 0.62389 0.0
C867 C 0.178 0.72337 0.61423 0.0
C868 C 0.15035 0.62756 0.66853 0.0
C869 C 0.13168 0.61641 0.70348 0.0
C870 C 0.16075 0.65165 0.65912 0.0
C871 C 0.15287 0.66518 0.68483 0.0
C872 C 0.13451 0.65414 0.72051 0.0
C873 C 0.12395 0.63 0.72958 0.0
H874 H 0.38408 0.49229 0.76411 0.0
H875 H 0.39861 0.55597 0.68537 0.0
H876 H 0.34412 0.4727 0.73074 0.0
H877 H 0.35901 0.5362 0.65057 0.0
H878 H 0.27962 0.49922 0.6299 0.0
H879 H 0.31841 0.51968 0.66907 0.0
H880 H 0.32448 0.45758 0.65127 0.0
H881 H 0.28536 0.4369 0.61378 0.0
C882 C 0.37871 0.50216 0.73994 0.0
C883 C 0.39456 0.52568 0.72734 0.0
C884 C 0.35586 0.49086 0.72035 0.0
C885 C 0.34837 0.50276 0.68739 0.0
C886 C 0.36403 0.52652 0.67619 0.0
C887 C 0.38682 0.53787 0.69609 0.0
C888 C 0.28928 0.48997 0.63411 0.0
C889 C 0.27939 0.46642 0.6187 0.0
C890 C 0.31158 0.50173 0.6565 0.0
C891 C 0.32459 0.49027 0.66366 0.0
C892 C 0.3148 0.46682 0.64739 0.0
C893 C 0.29244 0.45501 0.62538 0.0
H894 H 0.19483 0.4647 0.70688 0.0
H895 H 0.16252 0.44158 0.55825 0.0
H896 H 0.17405 0.48624 0.71907 0.0
H897 H 0.14096 0.46241 0.57118 0.0
H898 H 0.12307 0.52047 0.58897 0.0
H899 H 0.14528 0.5004 0.57582 0.0
H900 H 0.13605 0.4803 0.73545 0.0
H901 H 0.11461 0.50117 0.74892 0.0
C902 C 0.18317 0.46411 0.67688 0.0
C903 C 0.18031 0.45142 0.6316 0.0
C904 C 0.17111 0.47635 0.68403 0.0
C905 C 0.15569 0.476 0.64627 0.0
C906 C 0.15293 0.46337 0.6008 0.0
C907 C 0.1652 0.45131 0.59345 0.0
C908 C 0.12583 0.51181 0.6213 0.0
C909 C 0.1171 0.51244 0.67002 0.0
C910 C 0.13845 0.50015 0.61367 0.0
C911 C 0.14245 0.48864 0.6545 0.0
C912 C 0.13367 0.48928 0.70326 0.0
C913 C 0.12124 0.50114 0.71098 0.0
H914 H 0.4911 0.59839 0.60887 0.0
H915 H 0.51189 0.61362 0.76759 0.0
H916 H 0.5149 0.63996 0.58822 0.0
H917 H 0.53561 0.65534 0.7468 0.0
H918 H 0.59526 0.72359 0.67763 0.0
H919 H 0.57175 0.68186 0.69758 0.0
H920 H 0.51506 0.6771 0.60514 0.0
H921 H 0.5386 0.71881 0.58478 0.0
C922 C 0.50071 0.61061 0.63941 0.0
C923 C 0.4996 0.60269 0.68991 0.0
C924 C 0.51426 0.63445 0.62756 0.0
C925 C 0.52712 0.65091 0.66586 0.0
C926 C 0.52607 0.64302 0.71637 0.0
C927 C 0.51238 0.61916 0.72832 0.0
C928 C 0.57783 0.71364 0.66131 0.0
C929 C 0.56881 0.72453 0.62955 0.0
C930 C 0.56431 0.68977 0.67309 0.0
C931 C 0.54154 0.67623 0.65308 0.0
C932 C 0.53263 0.68704 0.62078 0.0
C933 C 0.54609 0.71095 0.60925 0.0
H934 H 0.27624 0.83441 0.73278 0.0
H935 H 0.28657 0.85591 0.57426 0.0
H936 H 0.31851 0.85451 0.74552 0.0
H937 H 0.32892 0.87718 0.58742 0.0
H938 H 0.40327 0.89188 0.61182 0.0
H939 H 0.36108 0.87208 0.59948 0.0
H940 H 0.35267 0.89091 0.75352 0.0
H941 H 0.395 0.90967 0.76658 0.0
C942 C 0.28759 0.84367 0.70075 0.0
C943 C 0.2781 0.84351 0.65246 0.0
C944 C 0.31189 0.8554 0.70813 0.0
C945 C 0.32732 0.8676 0.6676 0.0
C946 C 0.3177 0.86762 0.61937 0.0
C947 C 0.29339 0.85553 0.61179 0.0
C948 C 0.39241 0.89183 0.64305 0.0
C949 C 0.40245 0.90232 0.69021 0.0
C950 C 0.36815 0.88059 0.63585 0.0
C951 C 0.35327 0.87988 0.67537 0.0
C952 C 0.36343 0.89068 0.72244 0.0
C953 C 0.38773 0.9016 0.72991 0.0
loop_
_geom_bond_atom_site_label_1
_geom_bond_atom_site_label_2
_geom_bond_distance
_geom_bond_site_symmetry_2
_ccdc_geom_bond_type
C0 O1 1.160 . S
C0 O7 1.185 . S
O1 C0 1.160 . S
O2 Zn3 1.899 . S
O2 C10 1.284 . S
Zn3 O2 1.899 . S
Zn3 O4 2.032 . S
Zn3 O7 2.086 . S
Zn3 O12 1.977 . S
O4 Zn3 2.032 . S
O4 C8 1.278 . S
C5 O6 1.203 . S
C5 O12 1.267 1_556 S
O6 C5 1.203 . S
O7 C0 1.185 . S
O7 Zn3 2.086 . S
C8 O4 1.278 . S
C8 O9 1.211 1_554 S
O9 C8 1.211 1_556 S
C10 O2 1.284 . S
C10 O11 1.273 . S
O11 C10 1.273 . S
O12 Zn3 1.977 . S
O12 C5 1.267 1_554 S
C13 O14 1.160 . S
C13 O20 1.185 . S
O14 C13 1.160 . S
O15 Zn16 1.899 . S
O15 C23 1.284 . S
Zn16 O15 1.899 . S
Zn16 O17 2.032 . S
Zn16 O20 2.086 . S
Zn16 O25 1.977 . S
O17 Zn16 2.032 . S
O17 C21 1.278 . S
C18 O19 1.203 . S
C18 O25 1.267 1_556 S
O19 C18 1.203 . S
O20 C13 1.185 . S
O20 Zn16 2.086 . S
C21 O17 1.278 . S
C21 O22 1.211 1_554 S
O22 C21 1.211 1_556 S
C23 O15 1.284 . S
C23 O24 1.273 . S
O24 C23 1.273 . S
O25 Zn16 1.977 . S
O25 C18 1.267 1_554 S
C26 O27 1.160 . S
C26 O33 1.185 . S
O27 C26 1.160 . S
O28 Zn29 1.899 . S
O28 C36 1.284 . S
Zn29 O28 1.899 . S
Zn29 O30 2.032 . S
Zn29 O33 2.086 . S
Zn29 O38 1.977 . S
O30 Zn29 2.032 . S
O30 C34 1.278 . S
C31 O32 1.203 . S
C31 O38 1.267 1_556 S
O32 C31 1.203 . S
O33 C26 1.185 . S
O33 Zn29 2.086 . S
C34 O30 1.278 . S
C34 O35 1.211 1_554 S
O35 C34 1.211 1_556 S
C36 O28 1.284 . S
C36 O37 1.273 . S
O37 C36 1.273 . S
O38 Zn29 1.977 . S
O38 C31 1.267 1_554 S
C39 O40 1.160 . S
C39 O46 1.185 . S
O40 C39 1.160 . S
O41 Zn42 1.899 . S
O41 C49 1.284 . S
Zn42 O41 1.899 . S
Zn42 O43 2.032 . S
Zn42 O46 2.086 . S
Zn42 O51 1.977 . S
O43 Zn42 2.032 . S
O43 C47 1.278 . S
C44 O45 1.203 . S
C44 O51 1.267 1_554 S
O45 C44 1.203 . S
O46 C39 1.185 . S
O46 Zn42 2.086 . S
C47 O43 1.278 . S
C47 O48 1.211 1_556 S
O48 C47 1.211 1_554 S
C49 O41 1.284 . S
C49 O50 1.273 . S
O50 C49 1.273 . S
O51 Zn42 1.977 . S
O51 C44 1.267 1_556 S
C52 O53 1.160 . S
C52 O59 1.185 . S
O53 C52 1.160 . S
O54 Zn55 1.899 . S
O54 C62 1.284 . S
Zn55 O54 1.899 . S
Zn55 O56 2.032 . S
Zn55 O59 2.086 . S
Zn55 O64 1.977 . S
O56 Zn55 2.032 . S
O56 C60 1.278 . S
C57 O58 1.203 . S
C57 O64 1.267 1_554 S
O58 C57 1.203 . S
O59 C52 1.185 . S
O59 Zn55 2.086 . S
C60 O56 1.278 . S
C60 O61 1.211 1_556 S
O61 C60 1.211 1_554 S
C62 O54 1.284 . S
C62 O63 1.273 . S
O63 C62 1.273 . S
O64 Zn55 1.977 . S
O64 C57 1.267 1_556 S
C65 O66 1.160 . S
C65 O72 1.185 . S
O66 C65 1.160 . S
O67 Zn68 1.899 . S
O67 C75 1.284 . S
Zn68 O67 1.899 . S
Zn68 O69 2.032 . S
Zn68 O72 2.086 . S
Zn68 O77 1.977 . S
O69 Zn68 2.032 . S
O69 C73 1.278 . S
C70 O71 1.203 . S
C70 O77 1.267 1_554 S
O71 C70 1.203 . S
O72 C65 1.185 . S
O72 Zn68 2.086 . S
C73 O69 1.278 . S
C73 O74 1.211 1_556 S
O74 C73 1.211 1_554 S
C75 O67 1.284 . S
C75 O76 1.273 . S
O76 C75 1.273 . S
O77 Zn68 1.977 . S
O77 C70 1.267 1_556 S
C78 O79 1.160 . S
C78 O85 1.185 . S
O79 C78 1.160 . S
O80 Zn81 1.899 . S
O80 C88 1.284 . S
Zn81 O80 1.899 . S
Zn81 O82 2.032 . S
Zn81 O85 2.086 . S
Zn81 O90 1.977 . S
O82 Zn81 2.032 . S
O82 C86 1.278 . S
C83 O84 1.203 . S
C83 O90 1.267 . S
O84 C83 1.203 . S
O85 C78 1.185 . S
O85 Zn81 2.086 . S
C86 O82 1.278 . S
C86 O87 1.211 . S
O87 C86 1.211 . S
C88 O80 1.284 . S
C88 O89 1.273 . S
O89 C88 1.273 . S
O90 Zn81 1.977 . S
O90 C83 1.267 . S
C91 O92 1.160 . S
C91 O98 1.185 . S
O92 C91 1.160 . S
O93 Zn94 1.899 . S
O93 C101 1.284 . S
Zn94 O93 1.899 . S
Zn94 O95 2.032 . S
Zn94 O98 2.086 . S
Zn94 O103 1.977 . S
O95 Zn94 2.032 . S
O95 C99 1.278 . S
C96 O97 1.203 . S
C96 O103 1.267 . S
O97 C96 1.203 . S
O98 C91 1.185 . S
O98 Zn94 2.086 . S
C99 O95 1.278 . S
C99 O100 1.211 . S
O100 C99 1.211 . S
C101 O93 1.284 . S
C101 O102 1.273 . S
O102 C101 1.273 . S
O103 Zn94 1.977 . S
O103 C96 1.267 . S
C104 O105 1.160 . S
C104 O111 1.185 . S
O105 C104 1.160 . S
O106 Zn107 1.899 . S
O106 C114 1.284 . S
Zn107 O106 1.899 . S
Zn107 O108 2.032 . S
Zn107 O111 2.086 . S
Zn107 O116 1.977 . S
O108 Zn107 2.032 . S
O108 C112 1.278 . S
C109 O110 1.203 . S
C109 O116 1.267 . S
O110 C109 1.203 . S
O111 C104 1.185 . S
O111 Zn107 2.086 . S
C112 O108 1.278 . S
C112 O113 1.211 . S
O113 C112 1.211 . S
C114 O106 1.284 . S
C114 O115 1.273 . S
O115 C114 1.273 . S
O116 Zn107 1.977 . S
O116 C109 1.267 . S
C117 O118 1.160 . S
C117 O124 1.185 . S
O118 C117 1.160 . S
O119 Zn120 1.899 . S
O119 C127 1.284 . S
Zn120 O119 1.899 . S
Zn120 O121 2.032 . S
Zn120 O124 2.086 . S
Zn120 O129 1.977 . S
O121 Zn120 2.032 . S
O121 C125 1.278 . S
C122 O123 1.203 . S
C122 O129 1.267 . S
O123 C122 1.203 . S
O124 C117 1.185 . S
O124 Zn120 2.086 . S
C125 O121 1.278 . S
C125 O126 1.211 . S
O126 C125 1.211 . S
C127 O119 1.284 . S
C127 O128 1.273 . S
O128 C127 1.273 . S
O129 Zn120 1.977 . S
O129 C122 1.267 . S
C130 O131 1.160 . S
C130 O137 1.185 . S
O131 C130 1.160 . S
O132 Zn133 1.899 . S
O132 C140 1.284 . S
Zn133 O132 1.899 . S
Zn133 O134 2.032 . S
Zn133 O137 2.086 . S
Zn133 O142 1.977 . S
O134 Zn133 2.032 . S
O134 C138 1.278 . S
C135 O136 1.203 . S
C135 O142 1.267 . S
O136 C135 1.203 . S
O137 C130 1.185 . S
O137 Zn133 2.086 . S
C138 O134 1.278 . S
C138 O139 1.211 . S
O139 C138 1.211 . S
C140 O132 1.284 . S
C140 O141 1.273 . S
O141 C140 1.273 . S
O142 Zn133 1.977 . S
O142 C135 1.267 . S
C143 O144 1.160 . S
C143 O150 1.185 . S
O144 C143 1.160 . S
O145 Zn146 1.899 . S
O145 C153 1.284 . S
Zn146 O145 1.899 . S
Zn146 O147 2.032 . S
Zn146 O150 2.086 . S
Zn146 O155 1.977 . S
O147 Zn146 2.032 . S
O147 C151 1.278 . S
C148 O149 1.203 . S
C148 O155 1.267 . S
O149 C148 1.203 . S
O150 C143 1.185 . S
O150 Zn146 2.086 . S
C151 O147 1.278 . S
C151 O152 1.211 . S
O152 C151 1.211 . S
C153 O145 1.284 . S
C153 O154 1.273 . S
O154 C153 1.273 . S
O155 Zn146 1.977 . S
O155 C148 1.267 . S
C156 O157 1.160 . S
C156 O163 1.185 . S
O157 C156 1.160 . S
O158 Zn159 1.899 . S
O158 C166 1.284 . S
Zn159 O158 1.899 . S
Zn159 O160 2.032 . S
Zn159 O163 2.086 . S
Zn159 O168 1.977 . S
O160 Zn159 2.032 . S
O160 C164 1.278 . S
C161 O162 1.203 . S
C161 O168 1.267 . S
O162 C161 1.203 . S
O163 C156 1.185 . S
O163 Zn159 2.086 . S
C164 O160 1.278 . S
C164 O165 1.211 . S
O165 C164 1.211 . S
C166 O158 1.284 . S
C166 O167 1.273 . S
O167 C166 1.273 . S
O168 Zn159 1.977 . S
O168 C161 1.267 . S
C169 O170 1.160 . S
C169 O176 1.185 . S
O170 C169 1.160 . S
O171 Zn172 1.899 . S
O171 C179 1.284 . S
Zn172 O171 1.899 . S
Zn172 O173 2.032 . S
Zn172 O176 2.086 . S
Zn172 O181 1.977 . S
O173 Zn172 2.032 . S
O173 C177 1.278 . S
C174 O175 1.203 . S
C174 O181 1.267 . S
O175 C174 1.203 . S
O176 C169 1.185 . S
O176 Zn172 2.086 . S
C177 O173 1.278 . S
C177 O178 1.211 . S
O178 C177 1.211 . S
C179 O171 1.284 . S
C179 O180 1.273 . S
O180 C179 1.273 . S
O181 Zn172 1.977 . S
O181 C174 1.267 . S
C182 O183 1.160 . S
C182 O189 1.185 . S
O183 C182 1.160 . S
O184 Zn185 1.899 . S
O184 C192 1.284 . S
Zn185 O184 1.899 . S
Zn185 O186 2.032 . S
Zn185 O189 2.086 . S
Zn185 O194 1.977 . S
O186 Zn185 2.032 . S
O186 C190 1.278 . S
C187 O188 1.203 . S
C187 O194 1.267 . S
O188 C187 1.203 . S
O189 C182 1.185 . S
O189 Zn185 2.086 . S
C190 O186 1.278 . S
C190 O191 1.211 . S
O191 C190 1.211 . S
C192 O184 1.284 . S
C192 O193 1.273 . S
O193 C192 1.273 . S
O194 Zn185 1.977 . S
O194 C187 1.267 . S
C195 O196 1.160 . S
C195 O202 1.185 . S
O196 C195 1.160 . S
O197 Zn198 1.899 . S
O197 C205 1.284 . S
Zn198 O197 1.899 . S
Zn198 O199 2.032 . S
Zn198 O202 2.086 . S
Zn198 O207 1.977 . S
O199 Zn198 2.032 . S
O199 C203 1.278 . S
C200 O201 1.203 . S
C200 O207 1.267 . S
O201 C200 1.203 . S
O202 C195 1.185 . S
O202 Zn198 2.086 . S
C203 O199 1.278 . S
C203 O204 1.211 . S
O204 C203 1.211 . S
C205 O197 1.284 . S
C205 O206 1.273 . S
O206 C205 1.273 . S
O207 Zn198 1.977 . S
O207 C200 1.267 . S
C208 O209 1.160 . S
C208 O215 1.185 . S
O209 C208 1.160 . S
O210 Zn211 1.899 . S
O210 C218 1.284 . S
Zn211 O210 1.899 . S
Zn211 O212 2.032 . S
Zn211 O215 2.086 . S
Zn211 O220 1.977 . S
O212 Zn211 2.032 . S
O212 C216 1.278 . S
C213 O214 1.203 . S
C213 O220 1.267 . S
O214 C213 1.203 . S
O215 C208 1.185 . S
O215 Zn211 2.086 . S
C216 O212 1.278 . S
C216 O217 1.211 . S
O217 C216 1.211 . S
C218 O210 1.284 . S
C218 O219 1.273 . S
O219 C218 1.273 . S
O220 Zn211 1.977 . S
O220 C213 1.267 . S
C221 O222 1.160 . S
C221 O228 1.185 . S
O222 C221 1.160 . S
O223 Zn224 1.899 . S
O223 C231 1.284 . S
Zn224 O223 1.899 . S
Zn224 O225 2.032 . S
Zn224 O228 2.086 . S
Zn224 O233 1.977 . S
O225 Zn224 2.032 . S
O225 C229 1.278 . S
C226 O227 1.203 . S
C226 O233 1.267 . S
O227 C226 1.203 . S
O228 C221 1.185 . S
O228 Zn224 2.086 . S
C229 O225 1.278 . S
C229 O230 1.211 . S
O230 C229 1.211 . S
C231 O223 1.284 . S
C231 O232 1.273 . S
O232 C231 1.273 . S
O233 Zn224 1.977 . S
O233 C226 1.267 . S
H234 C242 0.950 . S
H235 C247 0.950 . S
H236 C244 0.950 . S
H237 C246 0.950 . S
H238 C248 0.950 . S
H239 C250 0.950 . S
H240 C252 0.950 . S
H241 C253 0.950 . S
C242 H234 0.950 . S
C242 C243 1.386 . S
C242 C244 1.391 . S
C243 C242 1.386 . S
C243 C247 1.393 . S
C244 H236 0.950 . S
C244 C242 1.391 . S
C244 C245 1.400 . S
C245 C244 1.400 . S
C245 C246 1.398 . S
C245 C251 1.491 . S
C246 H237 0.950 . S
C246 C245 1.398 . S
C246 C247 1.391 . S
C247 H235 0.950 . S
C247 C243 1.393 . S
C247 C246 1.391 . S
C248 H238 0.950 . S
C248 C249 1.386 . S
C248 C250 1.391 . S
C249 C248 1.386 . S
C249 C253 1.393 . S
C250 H239 0.950 . S
C250 C248 1.391 . S
C250 C251 1.400 . S
C251 C245 1.491 . S
C251 C250 1.400 . S
C251 C252 1.398 . S
C252 H240 0.950 . S
C252 C251 1.398 . S
C252 C253 1.391 . S
C253 H241 0.950 . S
C253 C249 1.393 . S
C253 C252 1.391 . S
H254 C262 0.950 . S
H255 C267 0.950 . S
H256 C264 0.950 . S
H257 C266 0.950 . S
H258 C268 0.950 . S
H259 C270 0.950 . S
H260 C272 0.950 . S
H261 C273 0.950 . S
C262 H254 0.950 . S
C262 C263 1.386 . S
C262 C264 1.391 . S
C263 C262 1.386 . S
C263 C267 1.393 . S
C264 H256 0.950 . S
C264 C262 1.391 . S
C264 C265 1.400 . S
C265 C264 1.400 . S
C265 C266 1.398 . S
C265 C271 1.491 . S
C266 H257 0.950 . S
C266 C265 1.398 . S
C266 C267 1.391 . S
C267 H255 0.950 . S
C267 C263 1.393 . S
C267 C266 1.391 . S
C268 H258 0.950 . S
C268 C269 1.386 . S
C268 C270 1.391 . S
C269 C268 1.386 . S
C269 C273 1.393 . S
C270 H259 0.950 . S
C270 C268 1.391 . S
C270 C271 1.400 . S
C271 C265 1.491 . S
C271 C270 1.400 . S
C271 C272 1.398 . S
C272 H260 0.950 . S
C272 C271 1.398 . S
C272 C273 1.391 . S
C273 H261 0.950 . S
C273 C269 1.393 . S
C273 C272 1.391 . S
H274 C282 0.950 . S
H275 C287 0.950 . S
H276 C284 0.950 . S
H277 C286 0.950 . S
H278 C288 0.950 . S
H279 C290 0.950 . S
H280 C292 0.950 . S
H281 C293 0.950 . S
C282 H274 0.950 . S
C282 C283 1.386 . S
C282 C284 1.391 . S
C283 C282 1.386 . S
C283 C287 1.393 . S
C284 H276 0.950 . S
C284 C282 1.391 . S
C284 C285 1.400 . S
C285 C284 1.400 . S
C285 C286 1.398 . S
C285 C291 1.491 . S
C286 H277 0.950 . S
C286 C285 1.398 . S
C286 C287 1.391 . S
C287 H275 0.950 . S
C287 C283 1.393 . S
C287 C286 1.391 . S
C288 H278 0.950 . S
C288 C289 1.386 . S
C288 C290 1.391 . S
C289 C288 1.386 . S
C289 C293 1.393 . S
C290 H279 0.950 . S
C290 C288 1.391 . S
C290 C291 1.400 . S
C291 C285 1.491 . S
C291 C290 1.400 . S
C291 C292 1.398 . S
C292 H280 0.950 . S
C292 C291 1.398 . S
C292 C293 1.391 . S
C293 H281 0.950 . S
C293 C289 1.393 . S
C293 C292 1.391 . S
H294 C302 0.950 . S
H295 C307 0.950 . S
H296 C304 0.950 . S
H297 C306 0.950 . S
H298 C308 0.950 . S
H299 C310 0.950 . S
H300 C312 0.950 . S
H301 C313 0.950 . S
C302 H294 0.950 . S
C302 C303 1.386 . S
C302 C304 1.391 . S
C303 C302 1.386 . S
C303 C307 1.393 . S
C304 H296 0.950 . S
C304 C302 1.391 . S
C304 C305 1.400 . S
C305 C304 1.400 . S
C305 C306 1.398 . S
C305 C311 1.491 . S
C306 H297 0.950 . S
C306 C305 1.398 . S
C306 C307 1.391 . S
C307 H295 0.950 . S
C307 C303 1.393 . S
C307 C306 1.391 . S
C308 H298 0.950 . S
C308 C309 1.386 . S
C308 C310 1.391 . S
C309 C308 1.386 . S
C309 C313 1.393 . S
C310 H299 0.950 . S
C310 C308 1.391 . S
C310 C311 1.400 . S
C311 C305 1.491 . S
C311 C310 1.400 . S
C311 C312 1.398 . S
C312 H300 0.950 . S
C312 C311 1.398 . S
C312 C313 1.391 . S
C313 H301 0.950 . S
C313 C309 1.393 . S
C313 C312 1.391 . S
H314 C322 0.950 . S
H315 C327 0.950 . S
H316 C324 0.950 . S
H317 C326 0.950 . S
H318 C328 0.950 . S
H319 C330 0.950 . S
H320 C332 0.950 . S
H321 C333 0.950 . S
C322 H314 0.950 . S
C322 C323 1.386 . S
C322 C324 1.391 . S
C323 C322 1.386 . S
C323 C327 1.393 . S
C324 H316 0.950 . S
C324 C322 1.391 . S
C324 C325 1.400 . S
C325 C324 1.400 . S
C325 C326 1.398 . S
C325 C331 1.491 . S
C326 H317 0.950 . S
C326 C325 1.398 . S
C326 C327 1.391 . S
C327 H315 0.950 . S
C327 C323 1.393 . S
C327 C326 1.391 . S
C328 H318 0.950 . S
C328 C329 1.386 . S
C328 C330 1.391 . S
C329 C328 1.386 . S
C329 C333 1.393 . S
C330 H319 0.950 . S
C330 C328 1.391 . S
C330 C331 1.400 . S
C331 C325 1.491 . S
C331 C330 1.400 . S
C331 C332 1.398 . S
C332 H320 0.950 . S
C332 C331 1.398 . S
C332 C333 1.391 . S
C333 H321 0.950 . S
C333 C329 1.393 . S
C333 C332 1.391 . S
H334 C342 0.950 . S
H335 C347 0.950 . S
H336 C344 0.950 . S
H337 C346 0.950 . S
H338 C348 0.950 . S
H339 C350 0.950 . S
H340 C352 0.950 . S
H341 C353 0.950 . S
C342 H334 0.950 . S
C342 C343 1.386 . S
C342 C344 1.391 . S
C343 C342 1.386 . S
C343 C347 1.393 . S
C344 H336 0.950 . S
C344 C342 1.391 . S
C344 C345 1.400 . S
C345 C344 1.400 . S
C345 C346 1.398 . S
C345 C351 1.491 . S
C346 H337 0.950 . S
C346 C345 1.398 . S
C346 C347 1.391 . S
C347 H335 0.950 . S
C347 C343 1.393 . S
C347 C346 1.391 . S
C348 H338 0.950 . S
C348 C349 1.386 . S
C348 C350 1.391 . S
C349 C348 1.386 . S
C349 C353 1.393 . S
C350 H339 0.950 . S
C350 C348 1.391 . S
C350 C351 1.400 . S
C351 C345 1.491 . S
C351 C350 1.400 . S
C351 C352 1.398 . S
C352 H340 0.950 . S
C352 C351 1.398 . S
C352 C353 1.391 . S
C353 H341 0.950 . S
C353 C349 1.393 . S
C353 C352 1.391 . S
H354 C362 0.950 . S
H355 C367 0.950 . S
H356 C364 0.950 1_556 S
H357 C366 0.923 1_455 S
H358 C368 0.950 . S
H359 C370 0.950 1_554 S
H360 C372 0.923 1_655 S
H361 C373 0.950 . S
C362 H354 0.950 . S
C362 C363 1.386 . S
C362 C364 1.391 . S
C363 C362 1.386 . S
C363 C367 1.393 . S
C364 H356 0.950 1_554 S
C364 C362 1.391 . S
C364 C365 1.400 . S
C365 C364 1.400 . S
C365 C366 1.398 . S
C365 C371 1.491 1_654 S
C366 H357 0.923 1_655 S
C366 C365 1.398 . S
C366 C367 1.420 . S
C367 H355 0.950 . S
C367 C363 1.393 . S
C367 C366 1.420 . S
C368 H358 0.950 . S
C368 C369 1.386 . S
C368 C370 1.391 . S
C369 C368 1.386 . S
C369 C373 1.393 . S
C370 H359 0.950 1_556 S
C370 C368 1.391 . S
C370 C371 1.400 . S
C371 C365 1.491 1_456 S
C371 C370 1.400 . S
C371 C372 1.398 . S
C372 H360 0.923 1_455 S
C372 C371 1.398 . S
C372 C373 1.420 . S
C373 H361 0.950 . S
C373 C369 1.393 . S
C373 C372 1.420 . S
H374 C382 0.950 . S
H375 C387 0.950 . S
H376 C384 0.950 . S
H377 C386 0.950 1_556 S
H378 C388 0.950 . S
H379 C390 0.950 . S
H380 C392 0.950 1_554 S
H381 C393 0.950 . S
C382 H374 0.950 . S
C382 C383 1.386 . S
C382 C384 1.391 . S
C383 C382 1.386 . S
C383 C387 1.393 . S
C384 H376 0.950 . S
C384 C382 1.391 . S
C384 C385 1.400 . S
C385 C384 1.400 . S
C385 C386 1.398 . S
C385 C391 1.491 1_554 S
C386 H377 0.950 1_554 S
C386 C385 1.398 . S
C386 C387 1.391 . S
C387 H375 0.950 . S
C387 C383 1.393 . S
C387 C386 1.391 . S
C388 H378 0.950 . S
C388 C389 1.386 . S
C388 C390 1.391 . S
C389 C388 1.386 . S
C389 C393 1.393 . S
C390 H379 0.950 . S
C390 C388 1.391 . S
C390 C391 1.400 . S
C391 C385 1.491 1_556 S
C391 C390 1.400 . S
C391 C392 1.398 . S
C392 H380 0.950 1_556 S
C392 C391 1.398 . S
C392 C393 1.391 . S
C393 H381 0.950 . S
C393 C389 1.393 . S
C393 C392 1.391 . S
H394 C402 0.950 . S
H395 C407 0.950 . S
H396 C404 0.950 1_565 S
H397 C406 0.950 . S
H398 C408 0.950 . S
H399 C410 0.950 1_545 S
H400 C412 0.950 . S
H401 C413 0.950 . S
C402 H394 0.950 . S
C402 C403 1.386 . S
C402 C404 1.391 . S
C403 C402 1.386 . S
C403 C407 1.393 . S
C404 H396 0.950 1_545 S
C404 C402 1.391 . S
C404 C405 1.400 . S
C405 C404 1.400 . S
C405 C406 1.398 . S
C405 C411 1.491 1_544 S
C406 H397 0.950 . S
C406 C405 1.398 . S
C406 C407 1.391 . S
C407 H395 0.950 . S
C407 C403 1.393 . S
C407 C406 1.391 . S
C408 H398 0.950 . S
C408 C409 1.386 . S
C408 C410 1.391 . S
C409 C408 1.386 . S
C409 C413 1.393 . S
C410 H399 0.950 1_565 S
C410 C408 1.391 . S
C410 C411 1.400 . S
C411 C405 1.491 1_566 S
C411 C410 1.400 . S
C411 C412 1.398 . S
C412 H400 0.950 . S
C412 C411 1.398 . S
C412 C413 1.391 . S
C413 H401 0.950 . S
C413 C409 1.393 . S
C413 C412 1.391 . S
H414 C422 0.950 . S
H415 C427 0.950 . S
H416 C424 0.950 . S
H417 C426 0.950 . S
H418 C428 0.950 . S
H419 C430 0.950 . S
H420 C432 0.950 . S
H421 C433 0.950 . S
C422 H414 0.950 . S
C422 C423 1.386 . S
C422 C424 1.391 . S
C423 C422 1.386 . S
C423 C427 1.393 . S
C424 H416 0.950 . S
C424 C422 1.391 . S
C424 C425 1.400 . S
C425 C424 1.400 . S
C425 C426 1.398 . S
C425 C431 1.491 . S
C426 H417 0.950 . S
C426 C425 1.398 . S
C426 C427 1.391 . S
C427 H415 0.950 . S
C427 C423 1.393 . S
C427 C426 1.391 . S
C428 H418 0.950 . S
C428 C429 1.386 . S
C428 C430 1.391 . S
C429 C428 1.386 . S
C429 C433 1.393 . S
C430 H419 0.950 . S
C430 C428 1.391 . S
C430 C431 1.400 . S
C431 C425 1.491 . S
C431 C430 1.400 . S
C431 C432 1.398 . S
C432 H420 0.950 . S
C432 C431 1.398 . S
C432 C433 1.391 . S
C433 H421 0.950 . S
C433 C429 1.393 . S
C433 C432 1.391 . S
H434 C442 0.950 . S
H435 C447 0.950 . S
H436 C444 0.950 . S
H437 C446 0.950 . S
H438 C448 0.950 . S
H439 C450 0.950 . S
H440 C452 0.950 . S
H441 C453 0.950 . S
C442 H434 0.950 . S
C442 C443 1.386 . S
C442 C444 1.391 . S
C443 C442 1.386 . S
C443 C447 1.393 . S
C444 H436 0.950 . S
C444 C442 1.391 . S
C444 C445 1.400 . S
C445 C444 1.400 . S
C445 C446 1.398 . S
C445 C451 1.491 . S
C446 H437 0.950 . S
C446 C445 1.398 . S
C446 C447 1.391 . S
C447 H435 0.950 . S
C447 C443 1.393 . S
C447 C446 1.391 . S
C448 H438 0.950 . S
C448 C449 1.386 . S
C448 C450 1.391 . S
C449 C448 1.386 . S
C449 C453 1.393 . S
C450 H439 0.950 . S
C450 C448 1.391 . S
C450 C451 1.400 . S
C451 C445 1.491 . S
C451 C450 1.400 . S
C451 C452 1.398 . S
C452 H440 0.950 . S
C452 C451 1.398 . S
C452 C453 1.391 . S
C453 H441 0.950 . S
C453 C449 1.393 . S
C453 C452 1.391 . S
H454 C462 0.950 . S
H455 C467 0.950 . S
H456 C464 0.950 . S
H457 C466 0.950 . S
H458 C468 0.950 . S
H459 C470 0.950 . S
H460 C472 0.950 . S
H461 C473 0.950 . S
C462 H454 0.950 . S
C462 C463 1.386 . S
C462 C464 1.391 . S
C463 C462 1.386 . S
C463 C467 1.393 . S
C464 H456 0.950 . S
C464 C462 1.391 . S
C464 C465 1.400 . S
C465 C464 1.400 . S
C465 C466 1.398 . S
C465 C471 1.491 . S
C466 H457 0.950 . S
C466 C465 1.398 . S
C466 C467 1.391 . S
C467 H455 0.950 . S
C467 C463 1.393 . S
C467 C466 1.391 . S
C468 H458 0.950 . S
C468 C469 1.386 . S
C468 C470 1.391 . S
C469 C468 1.386 . S
C469 C473 1.393 . S
C470 H459 0.950 . S
C470 C468 1.391 . S
C470 C471 1.400 . S
C471 C465 1.491 . S
C471 C470 1.400 . S
C471 C472 1.398 . S
C472 H460 0.950 . S
C472 C471 1.398 . S
C472 C473 1.391 . S
C473 H461 0.950 . S
C473 C469 1.393 . S
C473 C472 1.391 . S
H474 C482 0.950 . S
H475 C487 0.950 . S
H476 C484 0.950 . S
H477 C486 0.950 . S
H478 C488 0.950 . S
H479 C490 0.950 . S
H480 C492 0.950 . S
H481 C493 0.950 . S
C482 H474 0.950 . S
C482 C483 1.386 . S
C482 C484 1.391 . S
C483 C482 1.386 . S
C483 C487 1.393 . S
C484 H476 0.950 . S
C484 C482 1.391 . S
C484 C485 1.400 . S
C485 C484 1.400 . S
C485 C486 1.398 . S
C485 C491 1.491 . S
C486 H477 0.950 . S
C486 C485 1.398 . S
C486 C487 1.391 . S
C487 H475 0.950 . S
C487 C483 1.393 . S
C487 C486 1.391 . S
C488 H478 0.950 . S
C488 C489 1.386 . S
C488 C490 1.391 . S
C489 C488 1.386 . S
C489 C493 1.393 . S
C490 H479 0.950 . S
C490 C488 1.391 . S
C490 C491 1.400 . S
C491 C485 1.491 . S
C491 C490 1.400 . S
C491 C492 1.398 . S
C492 H480 0.950 . S
C492 C491 1.398 . S
C492 C493 1.391 . S
C493 H481 0.950 . S
C493 C489 1.393 . S
C493 C492 1.391 . S
H494 C502 0.950 . S
H495 C507 0.950 . S
H496 C504 0.950 . S
H497 C506 0.950 . S
H498 C508 0.950 . S
H499 C510 0.950 . S
H500 C512 0.950 . S
H501 C513 0.950 . S
C502 H494 0.950 . S
C502 C503 1.386 . S
C502 C504 1.391 . S
C503 C502 1.386 . S
C503 C507 1.393 . S
C504 H496 0.950 . S
C504 C502 1.391 . S
C504 C505 1.400 . S
C505 C504 1.400 . S
C505 C506 1.398 . S
C505 C511 1.491 . S
C506 H497 0.950 . S
C506 C505 1.398 . S
C506 C507 1.391 . S
C507 H495 0.950 . S
C507 C503 1.393 . S
C507 C506 1.391 . S
C508 H498 0.950 . S
C508 C509 1.386 . S
C508 C510 1.391 . S
C509 C508 1.386 . S
C509 C513 1.393 . S
C510 H499 0.950 . S
C510 C508 1.391 . S
C510 C511 1.400 . S
C511 C505 1.491 . S
C511 C510 1.400 . S
C511 C512 1.398 . S
C512 H500 0.950 . S
C512 C511 1.398 . S
C512 C513 1.391 . S
C513 H501 0.950 . S
C513 C509 1.393 . S
C513 C512 1.391 . S
H514 C522 0.950 . S
H515 C527 0.950 . S
H516 C524 0.950 . S
H517 C526 0.950 . S
H518 C528 0.950 . S
H519 C530 0.950 . S
H520 C532 0.950 . S
H521 C533 0.950 . S
C522 H514 0.950 . S
C522 C523 1.386 . S
C522 C524 1.391 . S
C523 C522 1.386 . S
C523 C527 1.393 . S
C524 H516 0.950 . S
C524 C522 1.391 . S
C524 C525 1.400 . S
C525 C524 1.400 . S
C525 C526 1.398 . S
C525 C531 1.491 . S
C526 H517 0.950 . S
C526 C525 1.398 . S
C526 C527 1.391 . S
C527 H515 0.950 . S
C527 C523 1.393 . S
C527 C526 1.391 . S
C528 H518 0.950 . S
C528 C529 1.386 . S
C528 C530 1.391 . S
C529 C528 1.386 . S
C529 C533 1.393 . S
C530 H519 0.950 . S
C530 C528 1.391 . S
C530 C531 1.400 . S
C531 C525 1.491 . S
C531 C530 1.400 . S
C531 C532 1.398 . S
C532 H520 0.950 . S
C532 C531 1.398 . S
C532 C533 1.391 . S
C533 H521 0.950 . S
C533 C529 1.393 . S
C533 C532 1.391 . S
H534 C542 0.950 . S
H535 C547 0.950 . S
H536 C544 0.923 1_455 S
H537 C546 0.950 . S
H538 C548 0.950 . S
H539 C550 0.923 1_655 S
H540 C552 0.950 . S
H541 C553 0.950 . S
C542 H534 0.950 . S
C542 C543 1.386 . S
C542 C544 1.420 . S
C543 C542 1.386 . S
C543 C547 1.393 . S
C544 H536 0.923 1_655 S
C544 C542 1.420 . S
C544 C545 1.401 . S
C545 C544 1.401 . S
C545 C546 1.398 . S
C545 C551 1.491 1_655 S
C546 H537 0.950 . S
C546 C545 1.398 . S
C546 C547 1.391 . S
C547 H535 0.950 . S
C547 C543 1.393 . S
C547 C546 1.391 . S
C548 H538 0.950 . S
C548 C549 1.386 . S
C548 C550 1.420 . S
C549 C548 1.386 . S
C549 C553 1.393 . S
C550 H539 0.923 1_455 S
C550 C548 1.420 . S
C550 C551 1.401 . S
C551 C545 1.491 1_455 S
C551 C550 1.401 . S
C551 C552 1.398 . S
C552 H540 0.950 . S
C552 C551 1.398 . S
C552 C553 1.391 . S
C553 H541 0.950 . S
C553 C549 1.393 . S
C553 C552 1.391 . S
H554 C562 0.950 . S
H555 C567 0.950 . S
H556 C564 0.950 . S
H557 C566 0.950 . S
H558 C568 0.950 . S
H559 C570 0.950 . S
H560 C572 0.950 . S
H561 C573 0.950 . S
C562 H554 0.950 . S
C562 C563 1.386 . S
C562 C564 1.391 . S
C563 C562 1.386 . S
C563 C567 1.393 . S
C564 H556 0.950 . S
C564 C562 1.391 . S
C564 C565 1.400 . S
C565 C564 1.400 . S
C565 C566 1.398 . S
C565 C571 1.491 . S
C566 H557 0.950 . S
C566 C565 1.398 . S
C566 C567 1.391 . S
C567 H555 0.950 . S
C567 C563 1.393 . S
C567 C566 1.391 . S
C568 H558 0.950 . S
C568 C569 1.386 . S
C568 C570 1.391 . S
C569 C568 1.386 . S
C569 C573 1.393 . S
C570 H559 0.950 . S
C570 C568 1.391 . S
C570 C571 1.400 . S
C571 C565 1.491 . S
C571 C570 1.400 . S
C571 C572 1.398 . S
C572 H560 0.950 . S
C572 C571 1.398 . S
C572 C573 1.391 . S
C573 H561 0.950 . S
C573 C569 1.393 . S
C573 C572 1.391 . S
H574 C582 0.950 . S
H575 C587 0.950 . S
H576 C584 0.950 . S
H577 C586 0.950 1_545 S
H578 C588 0.950 . S
H579 C590 0.950 . S
H580 C592 0.950 1_565 S
H581 C593 0.950 . S
C582 H574 0.950 . S
C582 C583 1.386 . S
C582 C584 1.391 . S
C583 C582 1.386 . S
C583 C587 1.393 . S
C584 H576 0.950 . S
C584 C582 1.391 . S
C584 C585 1.400 . S
C585 C584 1.400 . S
C585 C586 1.398 . S
C585 C591 1.491 1_565 S
C586 H577 0.950 1_565 S
C586 C585 1.398 . S
C586 C587 1.391 . S
C587 H575 0.950 . S
C587 C583 1.393 . S
C587 C586 1.391 . S
C588 H578 0.950 . S
C588 C589 1.386 . S
C588 C590 1.391 . S
C589 C588 1.386 . S
C589 C593 1.393 . S
C590 H579 0.950 . S
C590 C588 1.391 . S
C590 C591 1.400 . S
C591 C585 1.491 1_545 S
C591 C590 1.400 . S
C591 C592 1.398 . S
C592 H580 0.950 1_545 S
C592 C591 1.398 . S
C592 C593 1.391 . S
C593 H581 0.950 . S
C593 C589 1.393 . S
C593 C592 1.391 . S
H594 C602 0.950 . S
H595 C607 0.950 . S
H596 C604 0.950 . S
H597 C606 0.950 . S
H598 C608 0.950 . S
H599 C610 0.950 . S
H600 C612 0.950 . S
H601 C613 0.950 . S
C602 H594 0.950 . S
C602 C603 1.386 . S
C602 C604 1.391 . S
C603 C602 1.386 . S
C603 C607 1.393 1_554 S
C604 H596 0.950 . S
C604 C602 1.391 . S
C604 C605 1.400 . S
C605 C604 1.400 . S
C605 C606 1.398 1_554 S
C605 C611 1.491 1_554 S
C606 H597 0.950 . S
C606 C605 1.398 1_556 S
C606 C607 1.391 . S
C607 H595 0.950 . S
C607 C603 1.393 1_556 S
C607 C606 1.391 . S
C608 H598 0.950 . S
C608 C609 1.386 . S
C608 C610 1.391 . S
C609 C608 1.386 . S
C609 C613 1.393 1_556 S
C610 H599 0.950 . S
C610 C608 1.391 . S
C610 C611 1.400 . S
C611 C605 1.491 1_556 S
C611 C610 1.400 . S
C611 C612 1.398 1_556 S
C612 H600 0.950 . S
C612 C611 1.398 1_554 S
C612 C613 1.391 . S
C613 H601 0.950 . S
C613 C609 1.393 1_554 S
C613 C612 1.391 . S
H614 C622 0.950 . S
H615 C627 0.950 . S
H616 C624 0.950 . S
H617 C626 0.950 . S
H618 C628 0.950 . S
H619 C630 0.950 . S
H620 C632 0.950 . S
H621 C633 0.950 . S
C622 H614 0.950 . S
C622 C623 1.386 . S
C622 C624 1.391 . S
C623 C622 1.386 . S
C623 C627 1.393 . S
C624 H616 0.950 . S
C624 C622 1.391 . S
C624 C625 1.400 . S
C625 C624 1.400 . S
C625 C626 1.398 . S
C625 C631 1.491 1_546 S
C626 H617 0.950 . S
C626 C625 1.398 . S
C626 C627 1.391 . S
C627 H615 0.950 . S
C627 C623 1.393 . S
C627 C626 1.391 . S
C628 H618 0.950 . S
C628 C629 1.386 . S
C628 C630 1.391 . S
C629 C628 1.386 . S
C629 C633 1.393 . S
C630 H619 0.950 . S
C630 C628 1.391 . S
C630 C631 1.400 . S
C631 C625 1.491 1_564 S
C631 C630 1.400 . S
C631 C632 1.398 . S
C632 H620 0.950 . S
C632 C631 1.398 . S
C632 C633 1.391 . S
C633 H621 0.950 . S
C633 C629 1.393 . S
C633 C632 1.391 . S
H634 C642 0.950 . S
H635 C647 0.950 . S
H636 C644 0.950 . S
H637 C646 0.950 . S
H638 C648 0.950 . S
H639 C650 0.950 . S
H640 C652 0.950 . S
H641 C653 0.950 . S
C642 H634 0.950 . S
C642 C643 1.386 . S
C642 C644 1.391 . S
C643 C642 1.386 . S
C643 C647 1.393 1_556 S
C644 H636 0.950 . S
C644 C642 1.391 . S
C644 C645 1.400 . S
C645 C644 1.400 . S
C645 C646 1.398 1_556 S
C645 C651 1.491 1_656 S
C646 H637 0.950 . S
C646 C645 1.398 1_554 S
C646 C647 1.391 . S
C647 H635 0.950 . S
C647 C643 1.393 1_554 S
C647 C646 1.391 . S
C648 H638 0.950 . S
C648 C649 1.386 . S
C648 C650 1.391 . S
C649 C648 1.386 . S
C649 C653 1.393 1_554 S
C650 H639 0.950 . S
C650 C648 1.391 . S
C650 C651 1.400 . S
C651 C645 1.491 1_454 S
C651 C650 1.400 . S
C651 C652 1.398 1_554 S
C652 H640 0.950 . S
C652 C651 1.398 1_556 S
C652 C653 1.391 . S
C653 H641 0.950 . S
C653 C649 1.393 1_556 S
C653 C652 1.391 . S
H654 C662 0.950 . S
H655 C667 0.950 . S
H656 C664 0.950 . S
H657 C666 0.950 . S
H658 C668 0.950 . S
H659 C670 0.950 . S
H660 C672 0.950 . S
H661 C673 0.950 . S
C662 H654 0.950 . S
C662 C663 1.386 . S
C662 C664 1.391 . S
C663 C662 1.386 . S
C663 C667 1.393 . S
C664 H656 0.950 . S
C664 C662 1.391 . S
C664 C665 1.400 . S
C665 C664 1.400 . S
C665 C666 1.398 . S
C665 C671 1.491 1_556 S
C666 H657 0.950 . S
C666 C665 1.398 . S
C666 C667 1.391 . S
C667 H655 0.950 . S
C667 C663 1.393 . S
C667 C666 1.391 . S
C668 H658 0.950 . S
C668 C669 1.386 . S
C668 C670 1.391 . S
C669 C668 1.386 . S
C669 C673 1.393 . S
C670 H659 0.950 . S
C670 C668 1.391 . S
C670 C671 1.400 . S
C671 C665 1.491 1_554 S
C671 C670 1.400 . S
C671 C672 1.398 . S
C672 H660 0.950 . S
C672 C671 1.398 . S
C672 C673 1.391 . S
C673 H661 0.950 . S
C673 C669 1.393 . S
C673 C672 1.391 . S
H674 C682 0.950 . S
H675 C687 0.950 . S
H676 C684 0.950 . S
H677 C686 0.950 1_556 S
H678 C688 0.950 . S
H679 C690 0.950 . S
H680 C692 0.950 1_554 S
H681 C693 0.950 . S
C682 H674 0.950 . S
C682 C683 1.386 . S
C682 C684 1.391 . S
C683 C682 1.386 . S
C683 C687 1.393 . S
C684 H676 0.950 . S
C684 C682 1.391 . S
C684 C685 1.400 . S
C685 C684 1.400 . S
C685 C686 1.398 . S
C685 C691 1.491 1_564 S
C686 H677 0.950 1_554 S
C686 C685 1.398 . S
C686 C687 1.391 . S
C687 H675 0.950 . S
C687 C683 1.393 . S
C687 C686 1.391 . S
C688 H678 0.950 . S
C688 C689 1.386 . S
C688 C690 1.391 . S
C689 C688 1.386 . S
C689 C693 1.393 . S
C690 H679 0.950 . S
C690 C688 1.391 . S
C690 C691 1.400 . S
C691 C685 1.491 1_546 S
C691 C690 1.400 . S
C691 C692 1.398 . S
C692 H680 0.950 1_556 S
C692 C691 1.398 . S
C692 C693 1.391 . S
C693 H681 0.950 . S
C693 C689 1.393 . S
C693 C692 1.391 . S
H694 C702 0.950 . S
H695 C707 0.950 . S
H696 C704 0.950 . S
H697 C706 0.950 . S
H698 C708 0.950 . S
H699 C710 0.950 . S
H700 C712 0.950 . S
H701 C713 0.950 . S
C702 H694 0.950 . S
C702 C703 1.386 . S
C702 C704 1.391 . S
C703 C702 1.386 . S
C703 C707 1.393 . S
C704 H696 0.950 . S
C704 C702 1.391 . S
C704 C705 1.400 . S
C705 C704 1.400 . S
C705 C706 1.398 . S
C705 C711 1.491 1_656 S
C706 H697 0.950 . S
C706 C705 1.398 . S
C706 C707 1.391 . S
C707 H695 0.950 . S
C707 C703 1.393 . S
C707 C706 1.391 . S
C708 H698 0.950 . S
C708 C709 1.386 . S
C708 C710 1.391 . S
C709 C708 1.386 . S
C709 C713 1.393 . S
C710 H699 0.950 . S
C710 C708 1.391 . S
C710 C711 1.400 . S
C711 C705 1.491 1_454 S
C711 C710 1.400 . S
C711 C712 1.398 . S
C712 H700 0.950 . S
C712 C711 1.398 . S
C712 C713 1.391 . S
C713 H701 0.950 . S
C713 C709 1.393 . S
C713 C712 1.391 . S
H714 C722 0.950 . S
H715 C727 0.950 . S
H716 C724 0.950 . S
H717 C726 0.950 . S
H718 C728 0.950 . S
H719 C730 0.950 . S
H720 C732 0.950 . S
H721 C733 0.950 . S
C722 H714 0.950 . S
C722 C723 1.386 . S
C722 C724 1.391 . S
C723 C722 1.386 . S
C723 C727 1.393 . S
C724 H716 0.950 . S
C724 C722 1.391 . S
C724 C725 1.400 . S
C725 C724 1.400 . S
C725 C726 1.398 . S
C725 C731 1.491 . S
C726 H717 0.950 . S
C726 C725 1.398 . S
C726 C727 1.391 . S
C727 H715 0.950 . S
C727 C723 1.393 . S
C727 C726 1.391 . S
C728 H718 0.950 . S
C728 C729 1.386 . S
C728 C730 1.391 . S
C729 C728 1.386 . S
C729 C733 1.393 . S
C730 H719 0.950 . S
C730 C728 1.391 . S
C730 C731 1.400 . S
C731 C725 1.491 . S
C731 C730 1.400 . S
C731 C732 1.398 . S
C732 H720 0.950 . S
C732 C731 1.398 . S
C732 C733 1.391 . S
C733 H721 0.950 . S
C733 C729 1.393 . S
C733 C732 1.391 . S
H734 C742 0.950 . S
H735 C747 0.950 . S
H736 C744 0.950 . S
H737 C746 0.950 . S
H738 C748 0.950 . S
H739 C750 0.950 . S
H740 C752 0.950 . S
H741 C753 0.950 . S
C742 H734 0.950 . S
C742 C743 1.386 . S
C742 C744 1.391 . S
C743 C742 1.386 . S
C743 C747 1.393 . S
C744 H736 0.950 . S
C744 C742 1.391 . S
C744 C745 1.400 . S
C745 C744 1.400 . S
C745 C746 1.398 . S
C745 C751 1.491 . S
C746 H737 0.950 . S
C746 C745 1.398 . S
C746 C747 1.391 . S
C747 H735 0.950 . S
C747 C743 1.393 . S
C747 C746 1.391 . S
C748 H738 0.950 . S
C748 C749 1.386 . S
C748 C750 1.391 . S
C749 C748 1.386 . S
C749 C753 1.393 . S
C750 H739 0.950 . S
C750 C748 1.391 . S
C750 C751 1.400 . S
C751 C745 1.491 . S
C751 C750 1.400 . S
C751 C752 1.398 . S
C752 H740 0.950 . S
C752 C751 1.398 . S
C752 C753 1.391 . S
C753 H741 0.950 . S
C753 C749 1.393 . S
C753 C752 1.391 . S
H754 C762 0.950 . S
H755 C767 0.950 . S
H756 C764 0.950 . S
H757 C766 0.950 . S
H758 C768 0.950 . S
H759 C770 0.950 . S
H760 C772 0.950 . S
H761 C773 0.950 . S
C762 H754 0.950 . S
C762 C763 1.386 . S
C762 C764 1.391 . S
C763 C762 1.386 . S
C763 C767 1.393 . S
C764 H756 0.950 . S
C764 C762 1.391 . S
C764 C765 1.400 . S
C765 C764 1.400 . S
C765 C766 1.398 . S
C765 C771 1.491 . S
C766 H757 0.950 . S
C766 C765 1.398 . S
C766 C767 1.391 . S
C767 H755 0.950 . S
C767 C763 1.393 . S
C767 C766 1.391 . S
C768 H758 0.950 . S
C768 C769 1.386 . S
C768 C770 1.391 . S
C769 C768 1.386 . S
C769 C773 1.393 . S
C770 H759 0.950 . S
C770 C768 1.391 . S
C770 C771 1.400 . S
C771 C765 1.491 . S
C771 C770 1.400 . S
C771 C772 1.398 . S
C772 H760 0.950 . S
C772 C771 1.398 . S
C772 C773 1.391 . S
C773 H761 0.950 . S
C773 C769 1.393 . S
C773 C772 1.391 . S
H774 C782 0.950 . S
H775 C787 0.950 . S
H776 C784 0.950 . S
H777 C786 0.950 . S
H778 C788 0.950 . S
H779 C790 0.950 . S
H780 C792 0.950 . S
H781 C793 0.950 . S
C782 H774 0.950 . S
C782 C783 1.386 . S
C782 C784 1.391 . S
C783 C782 1.386 . S
C783 C787 1.393 . S
C784 H776 0.950 . S
C784 C782 1.391 . S
C784 C785 1.400 . S
C785 C784 1.400 . S
C785 C786 1.398 . S
C785 C791 1.491 . S
C786 H777 0.950 . S
C786 C785 1.398 . S
C786 C787 1.391 . S
C787 H775 0.950 . S
C787 C783 1.393 . S
C787 C786 1.391 . S
C788 H778 0.950 . S
C788 C789 1.386 . S
C788 C790 1.391 . S
C789 C788 1.386 . S
C789 C793 1.393 . S
C790 H779 0.950 . S
C790 C788 1.391 . S
C790 C791 1.400 . S
C791 C785 1.491 . S
C791 C790 1.400 . S
C791 C792 1.398 . S
C792 H780 0.950 . S
C792 C791 1.398 . S
C792 C793 1.391 . S
C793 H781 0.950 . S
C793 C789 1.393 . S
C793 C792 1.391 . S
H794 C802 0.950 . S
H795 C807 0.950 . S
H796 C804 0.950 . S
H797 C806 0.950 . S
H798 C808 0.950 . S
H799 C810 0.950 . S
H800 C812 0.950 . S
H801 C813 0.950 . S
C802 H794 0.950 . S
C802 C803 1.386 . S
C802 C804 1.391 . S
C803 C802 1.386 . S
C803 C807 1.393 . S
C804 H796 0.950 . S
C804 C802 1.391 . S
C804 C805 1.400 . S
C805 C804 1.400 . S
C805 C806 1.398 . S
C805 C811 1.491 . S
C806 H797 0.950 . S
C806 C805 1.398 . S
C806 C807 1.391 . S
C807 H795 0.950 . S
C807 C803 1.393 . S
C807 C806 1.391 . S
C808 H798 0.950 . S
C808 C809 1.386 . S
C808 C810 1.391 . S
C809 C808 1.386 . S
C809 C813 1.393 . S
C810 H799 0.950 . S
C810 C808 1.391 . S
C810 C811 1.400 . S
C811 C805 1.491 . S
C811 C810 1.400 . S
C811 C812 1.398 . S
C812 H800 0.950 . S
C812 C811 1.398 . S
C812 C813 1.391 . S
C813 H801 0.950 . S
C813 C809 1.393 . S
C813 C812 1.391 . S
H814 C822 0.950 . S
H815 C827 0.950 . S
H816 C824 0.950 . S
H817 C826 0.950 . S
H818 C828 0.950 . S
H819 C830 0.950 . S
H820 C832 0.950 . S
H821 C833 0.950 . S
C822 H814 0.950 . S
C822 C823 1.386 . S
C822 C824 1.391 . S
C823 C822 1.386 . S
C823 C827 1.393 . S
C824 H816 0.950 . S
C824 C822 1.391 . S
C824 C825 1.400 . S
C825 C824 1.400 . S
C825 C826 1.398 . S
C825 C831 1.491 . S
C826 H817 0.950 . S
C826 C825 1.398 . S
C826 C827 1.391 . S
C827 H815 0.950 . S
C827 C823 1.393 . S
C827 C826 1.391 . S
C828 H818 0.950 . S
C828 C829 1.386 . S
C828 C830 1.391 . S
C829 C828 1.386 . S
C829 C833 1.393 . S
C830 H819 0.950 . S
C830 C828 1.391 . S
C830 C831 1.400 . S
C831 C825 1.491 . S
C831 C830 1.400 . S
C831 C832 1.398 . S
C832 H820 0.950 . S
C832 C831 1.398 . S
C832 C833 1.391 . S
C833 H821 0.950 . S
C833 C829 1.393 . S
C833 C832 1.391 . S
H834 C842 0.950 . S
H835 C847 0.950 . S
H836 C844 0.950 . S
H837 C846 0.950 . S
H838 C848 0.950 . S
H839 C850 0.950 . S
H840 C852 0.950 . S
H841 C853 0.950 . S
C842 H834 0.950 . S
C842 C843 1.386 . S
C842 C844 1.391 . S
C843 C842 1.386 . S
C843 C847 1.393 . S
C844 H836 0.950 . S
C844 C842 1.391 . S
C844 C845 1.400 . S
C845 C844 1.400 . S
C845 C846 1.398 . S
C845 C851 1.491 . S
C846 H837 0.950 . S
C846 C845 1.398 . S
C846 C847 1.391 . S
C847 H835 0.950 . S
C847 C843 1.393 . S
C847 C846 1.391 . S
C848 H838 0.950 . S
C848 C849 1.386 . S
C848 C850 1.391 . S
C849 C848 1.386 . S
C849 C853 1.393 . S
C850 H839 0.950 . S
C850 C848 1.391 . S
C850 C851 1.400 . S
C851 C845 1.491 . S
C851 C850 1.400 . S
C851 C852 1.398 . S
C852 H840 0.950 . S
C852 C851 1.398 . S
C852 C853 1.391 . S
C853 H841 0.950 . S
C853 C849 1.393 . S
C853 C852 1.391 . S
H854 C862 0.950 . S
H855 C867 0.950 . S
H856 C864 0.950 . S
H857 C866 0.950 . S
H858 C868 0.950 . S
H859 C870 0.950 . S
H860 C872 0.950 . S
H861 C873 0.950 . S
C862 H854 0.950 . S
C862 C863 1.386 . S
C862 C864 1.391 . S
C863 C862 1.386 . S
C863 C867 1.393 . S
C864 H856 0.950 . S
C864 C862 1.391 . S
C864 C865 1.400 . S
C865 C864 1.400 . S
C865 C866 1.398 . S
C865 C871 1.491 . S
C866 H857 0.950 . S
C866 C865 1.398 . S
C866 C867 1.391 . S
C867 H855 0.950 . S
C867 C863 1.393 . S
C867 C866 1.391 . S
C868 H858 0.950 . S
C868 C869 1.386 . S
C868 C870 1.391 . S
C869 C868 1.386 . S
C869 C873 1.393 . S
C870 H859 0.950 . S
C870 C868 1.391 . S
C870 C871 1.400 . S
C871 C865 1.491 . S
C871 C870 1.400 . S
C871 C872 1.398 . S
C872 H860 0.950 . S
C872 C871 1.398 . S
C872 C873 1.391 . S
C873 H861 0.950 . S
C873 C869 1.393 . S
C873 C872 1.391 . S
H874 C882 0.950 . S
H875 C887 0.950 . S
H876 C884 0.950 . S
H877 C886 0.950 . S
H878 C888 0.950 . S
H879 C890 0.950 . S
H880 C892 0.950 . S
H881 C893 0.950 . S
C882 H874 0.950 . S
C882 C883 1.386 . S
C882 C884 1.391 . S
C883 C882 1.386 . S
C883 C887 1.393 . S
C884 H876 0.950 . S
C884 C882 1.391 . S
C884 C885 1.400 . S
C885 C884 1.400 . S
C885 C886 1.398 . S
C885 C891 1.491 . S
C886 H877 0.950 . S
C886 C885 1.398 . S
C886 C887 1.391 . S
C887 H875 0.950 . S
C887 C883 1.393 . S
C887 C886 1.391 . S
C888 H878 0.950 . S
C888 C889 1.386 . S
C888 C890 1.391 . S
C889 C888 1.386 . S
C889 C893 1.393 . S
C890 H879 0.950 . S
C890 C888 1.391 . S
C890 C891 1.400 . S
C891 C885 1.491 . S
C891 C890 1.400 . S
C891 C892 1.398 . S
C892 H880 0.950 . S
C892 C891 1.398 . S
C892 C893 1.391 . S
C893 H881 0.950 . S
C893 C889 1.393 . S
C893 C892 1.391 . S
H894 C902 0.950 . S
H895 C907 0.950 . S
H896 C904 0.950 . S
H897 C906 0.950 . S
H898 C908 0.950 . S
H899 C910 0.950 . S
H900 C912 0.950 . S
H901 C913 0.950 . S
C902 H894 0.950 . S
C902 C903 1.386 . S
C902 C904 1.391 . S
C903 C902 1.386 . S
C903 C907 1.393 . S
C904 H896 0.950 . S
C904 C902 1.391 . S
C904 C905 1.400 . S
C905 C904 1.400 . S
C905 C906 1.398 . S
C905 C911 1.491 . S
C906 H897 0.950 . S
C906 C905 1.398 . S
C906 C907 1.391 . S
C907 H895 0.950 . S
C907 C903 1.393 . S
C907 C906 1.391 . S
C908 H898 0.950 . S
C908 C909 1.386 . S
C908 C910 1.391 . S
C909 C908 1.386 . S
C909 C913 1.393 . S
C910 H899 0.950 . S
C910 C908 1.391 . S
C910 C911 1.400 . S
C911 C905 1.491 . S
C911 C910 1.400 . S
C911 C912 1.398 . S
C912 H900 0.950 . S
C912 C911 1.398 . S
C912 C913 1.391 . S
C913 H901 0.950 . S
C913 C909 1.393 . S
C913 C912 1.391 . S
H914 C922 0.950 . S
H915 C927 0.950 . S
H916 C924 0.950 . S
H917 C926 0.950 . S
H918 C928 0.950 . S
H919 C930 0.950 . S
H920 C932 0.950 . S
H921 C933 0.950 . S
C922 H914 0.950 . S
C922 C923 1.386 . S
C922 C924 1.391 . S
C923 C922 1.386 . S
C923 C927 1.393 . S
C924 H916 0.950 . S
C924 C922 1.391 . S
C924 C925 1.400 . S
C925 C924 1.400 . S
C925 C926 1.398 . S
C925 C931 1.491 . S
C926 H917 0.950 . S
C926 C925 1.398 . S
C926 C927 1.391 . S
C927 H915 0.950 . S
C927 C923 1.393 . S
C927 C926 1.391 . S
C928 H918 0.950 . S
C928 C929 1.386 . S
C928 C930 1.391 . S
C929 C928 1.386 . S
C929 C933 1.393 . S
C930 H919 0.950 . S
C930 C928 1.391 . S
C930 C931 1.400 . S
C931 C925 1.491 . S
C931 C930 1.400 . S
C931 C932 1.398 . S
C932 H920 0.950 . S
C932 C931 1.398 . S
C932 C933 1.391 . S
C933 H921 0.950 . S
C933 C929 1.393 . S
C933 C932 1.391 . S
H934 C942 0.950 . S
H935 C947 0.950 . S
H936 C944 0.950 . S
H937 C946 0.950 . S
H938 C948 0.950 . S
H939 C950 0.950 . S
H940 C952 0.950 . S
H941 C953 0.950 . S
C942 H934 0.950 . S
C942 C943 1.386 . S
C942 C944 1.391 . S
C943 C942 1.386 . S
C943 C947 1.393 . S
C944 H936 0.950 . S
C944 C942 1.391 . S
C944 C945 1.400 . S
C945 C944 1.400 . S
C945 C946 1.398 . S
C945 C951 1.491 . S
C946 H937 0.950 . S
C946 C945 1.398 . S
C946 C947 1.391 . S
C947 H935 0.950 . S
C947 C943 1.393 . S
C947 C946 1.391 . S
C948 H938 0.950 . S
C948 C949 1.386 . S
C948 C950 1.391 . S
C949 C948 1.386 . S
C949 C953 1.393 . S
C950 H939 0.950 . S
C950 C948 1.391 . S
C950 C951 1.400 . S
C951 C945 1.491 . S
C951 C950 1.400 . S
C951 C952 1.398 . S
C952 H940 0.950 . S
C952 C951 1.398 . S
C952 C953 1.391 . S
C953 H941 0.950 . S
C953 C949 1.393 . S
C953 C952 1.391 . S
C243 C221 1.822 . S
C249 C0 1.836 . S
C263 C195 1.833 . S
C269 C13 1.826 . S
C283 C208 1.822 . S
C289 C26 1.836 . S
C303 C91 1.836 . S
C309 C39 1.822 . S
C323 C104 1.824 . S
C329 C52 1.835 . S
C343 C65 1.835 . S
C349 C78 1.823 . S
C363 C117 1.823 . S
C369 C169 1.835 . S
C383 C130 1.836 . S
C389 C182 1.823 . S
C403 C143 1.832 . S
C409 C156 1.826 . S
C423 C5 0.860 . S
C429 C226 0.866 . S
C443 C200 0.842 . S
C449 C18 0.855 . S
C463 C31 0.838 . S
C469 C213 0.850 . S
C483 C96 0.865 . S
C489 C44 0.863 . S
C503 C57 0.847 . S
C509 C109 0.835 . S
C523 C70 0.851 . S
C529 C83 0.839 . S
C543 C122 0.834 . S
C549 C174 0.844 . S
C563 C187 0.850 . S
C569 C135 0.862 . S
C583 C161 0.866 . S
C589 C148 0.859 . S
C603 C10 1.462 . S
C609 C49 1.471 . S
C623 C62 1.469 . S
C629 C23 1.470 . S
C643 C75 1.458 . S
C649 C36 1.464 . S
C663 C73 1.409 . S
C669 C21 1.408 . S
C683 C34 1.434 . S
C689 C47 1.438 . S
C703 C60 1.410 . S
C709 C8 1.408 . S
C723 C88 1.461 . S
C729 C127 1.459 . S
C743 C140 1.471 . S
C749 C101 1.462 . S
C763 C153 1.458 . S
C769 C114 1.467 . S
C783 C151 1.417 . S
C789 C99 1.409 . S
C803 C112 1.433 . S
C809 C125 1.423 . S
C823 C138 1.435 . S
C829 C86 1.427 . S
C843 C205 1.461 . S
C849 C166 1.470 . S
C863 C218 1.470 . S
C869 C179 1.461 . S
C883 C192 1.471 . S
C889 C231 1.467 . S
C903 C229 1.431 . S
C909 C177 1.421 . S
C923 C190 1.436 . S
C929 C203 1.428 . S
C943 C216 1.423 . S
C949 C164 1.413 . S
