# Generated by pormake.
# Topology fcu, (12)-cn, num edge types: 1
# Building blocks:
#     Node 0, Type 0, BuildingBlock: QEWDON_clean_sbu_0, # of connection points: 12
#     Node 1, Type 0, BuildingBlock: QEWDON_clean_sbu_0, # of connection points: 12
#     Node 2, Type 0, BuildingBlock: QEWDON_clean_sbu_0, # of connection points: 12
#     Node 3, Type 0, BuildingBlock: QEWDON_clean_sbu_0, # of connection points: 12
#     Edge 4, Type (0, 0), BuildingBlock: TEMPAE_clean_linker_10, # of connection points: 2
#     Edge 5, Type (0, 0), BuildingBlock: TEMPAE_clean_linker_10, # of connection points: 2
#     Edge 6, Type (0, 0), BuildingBlock: TEMPAE_clean_linker_10, # of connection points: 2
#     Edge 7, Type (0, 0), BuildingBlock: TEMPAE_clean_linker_10, # of connection points: 2
#     Edge 8, Type (0, 0), BuildingBlock: TEMPAE_clean_linker_10, # of connection points: 2
#     Edge 9, Type (0, 0), BuildingBlock: TEMPAE_clean_linker_10, # of connection points: 2
#     Edge 10, Type (0, 0), BuildingBlock: TEMPAE_clean_linker_10, # of connection points: 2
#     Edge 11, Type (0, 0), BuildingBlock: TEMPAE_clean_linker_10, # of connection points: 2
#     Edge 12, Type (0, 0), BuildingBlock: TEMPAE_clean_linker_10, # of connection points: 2
#     Edge 13, Type (0, 0), BuildingBlock: TEMPAE_clean_linker_10, # of connection points: 2
#     Edge 14, Type (0, 0), BuildingBlock: TEMPAE_clean_linker_10, # of connection points: 2
#     Edge 15, Type (0, 0), BuildingBlock: TEMPAE_clean_linker_10, # of connection points: 2
#     Edge 16, Type (0, 0), BuildingBlock: TEMPAE_clean_linker_10, # of connection points: 2
#     Edge 17, Type (0, 0), BuildingBlock: TEMPAE_clean_linker_10, # of connection points: 2
#     Edge 18, Type (0, 0), BuildingBlock: TEMPAE_clean_linker_10, # of connection points: 2
#     Edge 19, Type (0, 0), BuildingBlock: TEMPAE_clean_linker_10, # of connection points: 2
#     Edge 20, Type (0, 0), BuildingBlock: TEMPAE_clean_linker_10, # of connection points: 2
#     Edge 21, Type (0, 0), BuildingBlock: TEMPAE_clean_linker_10, # of connection points: 2
#     Edge 22, Type (0, 0), BuildingBlock: TEMPAE_clean_linker_10, # of connection points: 2
#     Edge 23, Type (0, 0), BuildingBlock: TEMPAE_clean_linker_10, # of connection points: 2
#     Edge 24, Type (0, 0), BuildingBlock: TEMPAE_clean_linker_10, # of connection points: 2
#     Edge 25, Type (0, 0), BuildingBlock: TEMPAE_clean_linker_10, # of connection points: 2
#     Edge 26, Type (0, 0), BuildingBlock: TEMPAE_clean_linker_10, # of connection points: 2
#     Edge 27, Type (0, 0), BuildingBlock: TEMPAE_clean_linker_10, # of connection points: 2
# Relax obj value: 0.042
# Max RMSD: 0.120
# Mean RMSD: 0.109
data_MOF--net-fcu--node1-QEWDON_clean_sbu_0--edge1-TEMPAE_clean_linker_10
_symmetry_space_group_name_H-M    P1
_symmetry_Int_Tables_number       1
_symmetry_cell_setting            triclinic
loop_
_symmetry_equiv_pos_as_xyz
'x, y, z'
_cell_length_a     27.16531
_cell_length_b     27.640859
_cell_length_c     28.213787
_cell_angle_alpha  89.980881
_cell_angle_beta   89.828808
_cell_angle_gamma 89.999782
loop_
_atom_site_label
_atom_site_type_symbol
_atom_site_fract_x
_atom_site_fract_y
_atom_site_fract_z
_atom_type_partial_charge
Zn0 Zn 0.91232 0.917 0.96436 0.0
Zn1 Zn 0.94114 0.89938 0.07617 0.0
O2 O 0.93577 0.94933 0.02411 0.0
H3 H 0.94926 0.98151 0.02442 0.0
C4 C 0.01415 0.86675 0.89055 0.0
O5 O -0.00429 0.85676 0.93249 0.0
Zn6 Zn 0.0503 0.08478 0.08052 0.0
Zn7 Zn 0.06185 0.06716 0.96445 0.0
O8 O 0.04587 0.0358 0.02774 0.0
H9 H 0.02742 0.00631 0.03123 0.0
Zn10 Zn 0.07882 0.93405 0.94644 0.0
O11 O 0.04822 0.92254 0.01092 0.0
Zn12 Zn 0.10049 0.92932 0.06239 0.0
H13 H 0.01963 0.90186 0.01138 0.0
Zn14 Zn 0.91899 0.05476 0.96685 0.0
O15 O 0.94656 0.07239 0.03041 0.0
H16 H 0.9671 0.10094 0.02991 0.0
Zn17 Zn 0.89511 0.05744 0.08027 0.0
C18 C 0.95012 0.08591 0.86941 0.0
O19 O 0.93472 0.04283 0.85663 0.0
O20 O 0.89468 0.84635 0.97619 0.0
O21 O 0.91737 0.83552 0.05136 0.0
O22 O 0.06993 0.1399 0.97324 0.0
O23 O 0.06447 0.14983 0.05174 0.0
O24 O 0.1541 0.92983 0.95272 0.0
O25 O 0.1658 0.92027 0.03064 0.0
C26 C 0.88418 0.96067 0.13314 0.0
O27 O 0.8436 0.05686 0.97182 0.0
O28 O 0.8294 0.06946 0.04897 0.0
O29 O 0.1119 0.03733 0.91573 0.0
C30 C 0.89968 0.81964 0.01262 0.0
O31 O 0.86822 0.95301 0.91567 0.0
C32 C 0.12053 0.02323 0.12219 0.0
O33 O 0.04824 0.89827 0.88731 0.0
C34 C 0.07008 0.16659 0.00998 0.0
O35 O 0.94799 0.09785 0.91286 0.0
C36 C 0.04181 0.87468 0.12272 0.0
O37 O 0.89884 0.91717 0.13211 0.0
O38 O 0.89964 0.98849 0.10045 0.0
C39 C 0.18228 0.92312 0.98824 0.0
O40 O 0.10476 0.06634 0.12552 0.0
O41 O 0.09966 -0.0043 0.09211 0.0
C42 C 0.95559 0.10412 0.14441 0.0
O43 O 0.08739 0.88171 0.11538 0.0
O44 O 0.01203 0.89466 0.09431 0.0
C45 C 0.81428 0.06557 0.00621 0.0
O46 O 0.90974 0.0964 0.13928 0.0
O47 O 0.98405 0.08805 0.11236 0.0
C48 C 0.11158 0.05693 0.87488 0.0
O49 O 0.07896 0.0909 0.86636 0.0
C50 C 0.87677 0.94328 0.87242 0.0
O51 O 0.91389 0.91472 0.8621 0.0
Zn52 Zn 0.90672 0.45135 0.41136 0.0
Zn53 Zn 0.899 0.56522 0.42363 0.0
O54 O 0.94628 0.51313 0.40845 0.0
H55 H 0.9314 0.48144 0.40899 0.0
C56 C 0.88666 0.39581 0.53403 0.0
O57 O 0.89735 0.43359 0.50774 0.0
Zn58 Zn 0.08323 0.54703 0.59469 0.0
Zn59 Zn 0.07185 0.43308 0.59219 0.0
O60 O 0.03299 0.49491 0.60618 0.0
H61 H 0.00657 0.49713 0.62906 0.0
Zn62 Zn 0.92304 0.46066 0.60617 0.0
O63 O 0.93501 0.51465 0.55926 0.0
Zn64 Zn 0.92729 0.57528 0.59648 0.0
H65 H 0.95365 0.51124 0.53032 0.0
Zn66 Zn 0.03359 0.44533 0.41197 0.0
O67 O 0.02705 0.50441 0.45441 0.0
H68 H 0.02457 0.50245 0.48845 0.0
Zn69 Zn 0.05214 0.56009 0.41595 0.0
C70 C 0.07742 0.38122 0.48006 0.0
O71 O 0.09088 0.42309 0.49783 0.0
O72 O 0.83591 0.4663 0.38851 0.0
O73 O 0.83111 0.54566 0.40149 0.0
O74 O 0.14445 0.44152 0.61022 0.0
O75 O 0.1493 0.52168 0.61448 0.0
O76 O 0.88005 0.4852 0.66112 0.0
O77 O 0.88177 0.56514 0.65181 0.0
C78 C 0.96303 0.63145 0.37538 0.0
O79 O 0.08316 0.45591 0.35789 0.0
O80 O 0.09481 0.53556 0.36175 0.0
O81 O 0.04679 0.36748 0.61904 0.0
C82 C 0.81198 0.50604 0.38731 0.0
O83 O 0.94036 0.38813 0.38667 0.0
C84 C 0.02483 0.61572 0.64165 0.0
O85 O 0.8973 0.3967 0.57781 0.0
C86 C 0.16825 0.47983 0.61968 0.0
O87 O 0.04901 0.38056 0.44444 0.0
C88 C 0.89287 0.62064 0.5116 0.0
O89 O 0.91858 0.62336 0.38676 0.0
O90 O -0.00273 0.60414 0.39088 0.0
C91 C 0.86635 0.52751 0.67332 0.0
O92 O 0.06968 0.60389 0.63792 0.0
O93 O -0.00544 0.59207 0.61676 0.0
C94 C 0.10672 0.59255 0.50068 0.0
O95 O 0.90023 0.62714 0.5555 0.0
O96 O 0.90286 0.58011 0.49283 0.0
C97 C 0.10392 0.49437 0.3434 0.0
O98 O 0.09948 0.59717 0.45639 0.0
O99 O 0.0788 0.56553 0.52531 0.0
C100 C 0.00971 0.36265 0.64608 0.0
O101 O 0.98228 0.40052 0.65572 0.0
C102 C 0.95974 0.39098 0.34574 0.0
O103 O 0.95838 0.4325 0.32312 0.0
Zn104 Zn 0.41248 0.90989 0.4616 0.0
Zn105 Zn 0.42608 0.90688 0.57641 0.0
O106 O 0.42161 0.95221 0.5199 0.0
H107 H 0.43035 0.98604 0.51902 0.0
C108 C 0.51056 0.89123 0.37988 0.0
O109 O 0.50384 0.93692 0.36881 0.0
Zn110 Zn 0.57091 0.10246 0.57056 0.0
Zn111 Zn 0.57281 0.076 0.45636 0.0
O112 O 0.55878 0.05041 0.52245 0.0
H113 H 0.53316 0.02717 0.52856 0.0
Zn114 Zn 0.57771 0.9271 0.45698 0.0
O115 O 0.54768 0.93896 0.52072 0.0
Zn116 Zn 0.59919 0.93628 0.57115 0.0
H117 H 0.51372 0.94827 0.52422 0.0
Zn118 Zn 0.40934 0.07788 0.47045 0.0
O119 O 0.45067 0.07757 0.52923 0.0
H120 H 0.47934 0.09798 0.5271 0.0
Zn121 Zn 0.40423 0.07514 0.58465 0.0
C122 C 0.47057 0.14169 0.41308 0.0
O123 O 0.47696 0.16115 0.4551 0.0
O124 O 0.37863 0.84767 0.48287 0.0
O125 O 0.39604 0.84221 0.55988 0.0
O126 O 0.59703 0.14532 0.46035 0.0
O127 O 0.59726 0.16249 0.53763 0.0
O128 O 0.64892 0.90465 0.46442 0.0
O129 O 0.66081 0.90409 0.54268 0.0
C130 C 0.37359 0.977 0.63167 0.0
O131 O 0.34427 0.11155 0.48694 0.0
O132 O 0.33946 0.10592 0.56584 0.0
O133 O 0.62307 0.04112 0.41236 0.0
C134 C 0.376 0.82563 0.52244 0.0
O135 O 0.38539 0.93692 0.39725 0.0
C136 C 0.63376 0.0351 0.6182 0.0
O137 O 0.53838 0.88038 0.41438 0.0
C138 C 0.6066 0.17368 0.49457 0.0
O139 O 0.44389 0.10403 0.40959 0.0
C140 C 0.52587 0.88817 0.62944 0.0
O141 O 0.38242 0.93208 0.6284 0.0
O142 O 0.39727 0.00541 0.6044 0.0
C143 C 0.67546 0.89496 0.50034 0.0
O144 O 0.62315 0.07977 0.61558 0.0
O145 O 0.61019 0.00585 0.59177 0.0
C146 C 0.47827 0.12656 0.63901 0.0
O147 O 0.5717 0.89741 0.62625 0.0
O148 O 0.49761 0.9033 0.59677 0.0
C149 C 0.32194 0.11924 0.526 0.0
O150 O 0.4331 0.11451 0.63751 0.0
O151 O 0.50664 0.11147 0.6063 0.0
C152 C 0.6138 0.02788 0.37019 0.0
O153 O 0.56841 0.03024 0.35444 0.0
C154 C 0.34349 0.95744 0.39726 0.0
O155 O 0.32118 0.96461 0.43806 0.0
Zn156 Zn 0.43947 0.57046 0.04508 0.0
Zn157 Zn 0.43391 0.57959 0.93421 0.0
O158 O 0.45309 0.53215 0.98534 0.0
H159 H 0.45161 0.49731 0.98556 0.0
C160 C 0.4937 0.62507 0.14396 0.0
O161 O 0.46443 0.58737 0.14338 0.0
Zn162 Zn 0.54566 0.41622 0.93289 0.0
Zn163 Zn 0.56693 0.4222 0.04608 0.0
O164 O 0.53768 0.45717 0.99166 0.0
H165 H 0.53467 0.49167 0.99549 0.0
Zn166 Zn 0.54567 0.58165 0.05902 0.0
O167 O 0.51967 0.60056 0.99426 0.0
Zn168 Zn 0.57196 0.5852 0.94728 0.0
H169 H 0.5285 0.59273 0.02647 0.0
Zn170 Zn 0.40581 0.4021 0.05503 0.0
O171 O 0.4418 0.39589 0.99294 0.0
H172 H 0.42827 0.39795 0.02454 0.0
Zn173 Zn 0.39284 0.41002 0.94088 0.0
C174 C 0.47091 0.34707 0.12343 0.0
O175 O 0.50727 0.35881 0.0949 0.0
O176 O 0.4245 0.64171 0.03089 0.0
O177 O 0.38939 0.62947 0.96054 0.0
O178 O 0.59659 0.35715 0.02769 0.0
O179 O 0.58094 0.35452 0.94997 0.0
O180 O 0.62066 0.57329 0.05662 0.0
O181 O 0.63728 0.58706 0.98028 0.0
C182 C 0.39311 0.50121 0.88204 0.0
O183 O 0.33134 0.40994 0.04473 0.0
O184 O 0.32389 0.40297 0.96623 0.0
O185 O 0.59913 0.46248 0.09889 0.0
C186 C 0.39731 0.65544 0.99686 0.0
O187 O 0.38875 0.54441 0.09374 0.0
C188 C 0.58522 0.49873 0.88794 0.0
O189 O 0.52782 0.62883 0.11335 0.0
C190 C 0.59816 0.33583 0.98775 0.0
O191 O 0.42743 0.36099 0.11372 0.0
C192 C 0.52315 0.64168 0.88326 0.0
O193 O 0.40242 0.54604 0.88074 0.0
O194 O 0.39976 0.47868 0.92069 0.0
C195 C 0.65118 0.5796 0.02285 0.0
O196 O 0.58218 0.45322 0.88299 0.0
O197 O 0.56177 0.51891 0.92133 0.0
C198 C 0.4569 0.37261 0.87962 0.0
O199 O 0.56742 0.63372 0.89513 0.0
O200 O 0.48932 0.61731 0.90339 0.0
C201 C 0.30494 0.40735 0.00753 0.0
O202 O 0.41053 0.36934 0.88404 0.0
O203 O 0.47946 0.39791 0.91008 0.0
C204 C 0.57349 0.48325 0.13063 0.0
O205 O 0.52535 0.4793 0.1296 0.0
C206 C 0.38762 0.50487 0.11663 0.0
O207 O 0.42196 0.47225 0.10985 0.0
C208 C 0.94448 0.14071 0.2239 0.0
C209 C 0.97292 0.13618 0.18267 0.0
C210 C 0.9538 0.17756 0.25666 0.0
C211 C -0.00808 0.2112 0.24738 0.0
C212 C 0.0244 0.20327 0.20877 0.0
C213 C 0.01452 0.1656 0.17667 0.0
C214 C 0.91983 0.18316 0.29877 0.0
C215 C 0.06708 0.23686 0.19931 0.0
C216 C 0.95461 0.33998 0.27423 0.0
C217 C 0.97324 0.34669 0.31984 0.0
C218 C 0.96176 0.29641 0.25001 0.0
C219 C 0.99009 0.25918 0.27117 0.0
C220 C 0.01134 0.26674 0.3164 0.0
C221 C 0.00189 0.31031 0.34068 0.0
C222 C 0.93655 0.28935 0.20281 0.0
C223 C 0.04413 0.22933 0.33912 0.0
H224 H 0.91327 0.11686 0.22937 0.0
H225 H 0.03729 0.16145 0.14534 0.0
H226 H 0.9414 0.18885 0.33162 0.0
H227 H 0.89614 0.21546 0.29365 0.0
H228 H 0.89576 0.15105 0.30382 0.0
H229 H 0.09372 0.22107 0.17367 0.0
H230 H 0.05318 0.27141 0.18444 0.0
H231 H 0.08654 0.24539 0.23283 0.0
H232 H 0.93211 0.36805 0.2584 0.0
H233 H 0.01682 0.31592 0.37581 0.0
H234 H 0.91051 0.25848 0.20512 0.0
H235 H 0.96407 0.28059 0.17501 0.0
H236 H 0.91572 0.32192 0.19146 0.0
H237 H 0.03206 0.19191 0.33105 0.0
H238 H 0.0455 0.23388 0.3782 0.0
H239 H 0.08199 0.23367 0.32485 0.0
C240 C 0.81725 0.01555 0.16369 0.0
C241 C 0.84895 0.97618 0.17048 0.0
C242 C 0.77942 0.02584 0.19639 0.0
C243 C 0.77358 -0.00375 0.2371 0.0
C244 C 0.80684 0.95772 0.24511 0.0
C245 C 0.84388 0.94807 0.21167 0.0
C246 C 0.74463 0.06718 0.18637 0.0
C247 C 0.80245 0.92569 0.28834 0.0
C248 C 0.70054 0.04072 0.34371 0.0
C249 C 0.6549 0.01797 0.33704 0.0
C250 C 0.739 0.03498 0.31085 0.0
C251 C 0.73219 0.00466 0.27098 0.0
C252 C 0.68635 0.98105 0.26441 0.0
C253 C 0.648 0.98852 0.29722 0.0
C254 C 0.78679 0.06173 0.31857 0.0
C255 C 0.67786 0.94782 0.22278 0.0
H256 H 0.82065 0.03717 0.13198 0.0
H257 H 0.86844 0.91772 0.21741 0.0
H258 H 0.70788 0.05254 0.17706 0.0
H259 H 0.73989 0.09014 0.21831 0.0
H260 H 0.75767 0.09024 0.15661 0.0
H261 H 0.83237 0.89834 0.29022 0.0
H262 H 0.80342 0.94794 0.32104 0.0
H263 H 0.76657 0.90651 0.28792 0.0
H264 H 0.70576 0.06426 0.37402 0.0
H265 H 0.61272 0.971 0.29195 0.0
H266 H 0.79529 0.08465 0.2873 0.0
H267 H 0.81745 0.03554 0.32245 0.0
H268 H 0.78563 0.08515 0.35056 0.0
H269 H 0.68294 0.96806 0.18916 0.0
H270 H 0.6404 0.93169 0.2231 0.0
H271 H 0.70534 0.91811 0.22307 0.0
C272 C 0.05726 0.83449 0.20007 0.0
C273 C 0.02518 0.84365 0.16233 0.0
C274 C 0.04361 0.80387 0.23738 0.0
C275 C -0.00281 0.78071 0.23633 0.0
C276 C 0.96373 0.7913 0.19934 0.0
C277 C 0.97803 0.82311 0.16295 0.0
C278 C 0.07932 0.79551 0.27749 0.0
C279 C 0.91358 0.76791 0.19738 0.0
C280 C -0.00135 0.65976 0.2994 0.0
C281 C 0.9735 0.67037 0.34138 0.0
C282 C 0.00413 0.69491 0.26393 0.0
C283 C 0.98613 0.74239 0.27177 0.0
C284 C 0.96092 0.75334 0.31451 0.0
C285 C 0.95378 0.71667 0.34831 0.0
C286 C 0.02885 0.68112 0.21785 0.0
C287 C 0.94085 0.80322 0.32479 0.0
H288 H 0.09326 0.85127 0.20043 0.0
H289 H 0.95285 0.83064 0.13435 0.0
H290 H 0.06051 0.80095 0.31207 0.0
H291 H 0.09275 0.75762 0.27649 0.0
H292 H 0.11162 0.8201 0.27556 0.0
H293 H 0.8917 0.7805 0.16651 0.0
H294 H 0.91763 0.72802 0.19518 0.0
H295 H 0.89276 0.77609 0.23028 0.0
H296 H 0.01241 0.6234 0.29359 0.0
H297 H 0.93325 0.72436 0.38044 0.0
H298 H 0.0641 0.70103 0.21408 0.0
H299 H 0.0052 0.69146 0.18747 0.0
H300 H 0.03661 0.64172 0.21566 0.0
H301 H 0.96321 0.83211 0.30792 0.0
H302 H 0.9392 0.81015 0.36355 0.0
H303 H 0.90276 0.8058 0.31092 0.0
C304 C 0.33616 0.95208 0.30837 0.0
C305 C 0.31747 0.96814 0.35212 0.0
C306 C 0.30925 0.95838 0.26618 0.0
C307 C 0.26261 0.98134 0.26775 0.0
C308 C 0.24423 -0.00142 0.31165 0.0
C309 C 0.27182 0.99186 0.35313 0.0
C310 C 0.32999 0.9392 0.22022 0.0
C311 C 0.19475 0.0233 0.31503 0.0
C312 C 0.19958 0.04096 0.16306 0.0
C313 C 0.16211 0.00772 0.15263 0.0
C314 C 0.23495 0.0312 0.19801 0.0
C315 C 0.23235 0.98742 0.22394 0.0
C316 C 0.19646 0.95237 0.21148 0.0
C317 C 0.16168 0.96303 0.176 0.0
C318 C 0.27321 0.06912 0.20915 0.0
C319 C 0.192 0.90506 0.23785 0.0
H320 H 0.37129 0.93351 0.30719 0.0
H321 H 0.25709 0.00457 0.38662 0.0
H322 H 0.30676 0.9089 0.20743 0.0
H323 H 0.32936 0.96774 0.19256 0.0
H324 H 0.36835 0.92595 0.22421 0.0
H325 H 0.186 0.03526 0.35169 0.0
H326 H 0.19392 0.05537 0.29138 0.0
H327 H 0.16544 -0.00178 0.30301 0.0
H328 H 0.20022 0.07554 0.1449 0.0
H329 H 0.13226 0.93777 0.16907 0.0
H330 H 0.31019 0.05239 0.21226 0.0
H331 H 0.26445 0.08622 0.24373 0.0
H332 H 0.27473 0.09788 0.18167 0.0
H333 H 0.22795 0.89237 0.25161 0.0
H334 H 0.17653 0.87643 0.21469 0.0
H335 H 0.16666 0.90997 0.26841 0.0
C336 C 0.96514 0.79978 0.8532 0.0
C337 C -0.00061 0.83761 0.84855 0.0
C338 C 0.9572 0.76674 0.81606 0.0
C339 C 0.9843 0.77151 0.77334 0.0
C340 C 0.01477 0.81262 0.76673 0.0
C341 C 0.02207 0.84506 0.80442 0.0
C342 C 0.92323 0.72434 0.82426 0.0
C343 C 0.04323 0.82002 0.72128 0.0
C344 C 0.03868 0.65917 0.71715 0.0
C345 C 0.0099 0.65303 0.67651 0.0
C346 C 0.02895 0.69619 0.74964 0.0
C347 C 0.99007 0.72912 0.7409 0.0
C348 C 0.95989 0.72259 0.70038 0.0
C349 C 0.96972 0.68396 0.66892 0.0
C350 C 0.06146 0.70078 0.79281 0.0
C351 C 0.91797 0.7567 0.68977 0.0
H352 H 0.94634 0.79435 0.88673 0.0
H353 H 0.04764 0.87484 0.79997 0.0
H354 H 0.90088 0.71688 0.79226 0.0
H355 H 0.94548 0.69154 0.83169 0.0
H356 H 0.89807 0.7306 0.85478 0.0
H357 H 0.05821 0.85732 0.71844 0.0
H358 H 0.07448 0.79418 0.71998 0.0
H359 H 0.01955 0.8128 0.6901 0.0
H360 H 0.06935 0.63492 0.72349 0.0
H361 H 0.94731 0.67917 0.63754 0.0
H362 H 0.03865 0.70148 0.82548 0.0
H363 H 0.08226 0.7353 0.79121 0.0
H364 H 0.08826 0.67058 0.79574 0.0
H365 H 0.88798 0.75106 0.71594 0.0
H366 H 0.90272 0.75096 0.6537 0.0
H367 H 0.93016 0.79488 0.69296 0.0
C368 C 0.14542 0.06441 0.79259 0.0
C369 C 0.14923 0.04484 0.83839 0.0
C370 C 0.18164 0.05567 0.758 0.0
C371 C 0.22313 0.02698 0.76944 0.0
C372 C 0.22711 0.00683 0.81553 0.0
C373 C 0.18998 0.01575 0.84935 0.0
C374 C 0.17524 0.07688 0.70904 0.0
C375 C 0.27061 0.97584 0.82916 0.0
C376 C 0.29319 0.96283 0.67117 0.0
C377 C 0.33404 0.99316 0.66427 0.0
C378 C 0.25646 0.97402 0.7044 0.0
C379 C 0.26109 0.01615 0.73248 0.0
C380 C 0.30198 0.04739 0.72531 0.0
C381 C 0.33778 0.03578 0.6908 0.0
C382 C 0.21299 0.94033 0.70978 0.0
C383 C 0.30868 0.09219 0.75513 0.0
H384 H 0.11397 0.08672 0.78363 0.0
H385 H 0.19331 0.00052 0.8846 0.0
H386 H 0.20699 0.10046 0.70016 0.0
H387 H 0.17434 0.04744 0.68232 0.0
H388 H 0.1409 0.09846 0.70586 0.0
H389 H 0.27031 0.96622 0.86739 0.0
H390 H 0.2704 0.94191 0.80818 0.0
H391 H 0.3055 -0.005 0.82094 0.0
H392 H 0.28999 0.92995 0.65044 0.0
H393 H 0.36959 0.0589 0.686 0.0
H394 H 0.17807 0.96076 0.7059 0.0
H395 H 0.21295 0.92408 0.74573 0.0
H396 H 0.21349 0.91061 0.68327 0.0
H397 H 0.2757 0.11568 0.75254 0.0
H398 H 0.34156 0.11344 0.74433 0.0
H399 H 0.31266 0.08174 0.79292 0.0
C400 C 0.95632 0.30651 0.69282 0.0
C401 C 0.00189 0.31659 0.6717 0.0
C402 C 0.94994 0.26543 0.72143 0.0
C403 C 0.9904 0.23426 0.72993 0.0
C404 C 0.03607 0.24333 0.7073 0.0
C405 C 0.04113 0.28419 0.67808 0.0
C406 C 0.90029 0.25634 0.74393 0.0
C407 C 0.08027 0.21134 0.71572 0.0
C408 C 0.9832 0.16747 0.84728 0.0
C409 C 0.96546 0.12198 0.8333 0.0
C410 C -0.00657 0.20364 0.81375 0.0
C411 C 0.98547 0.19426 0.76502 0.0
C412 C 0.96971 0.14777 0.75049 0.0
C413 C 0.95997 0.11214 0.7848 0.0
C414 C 0.01107 0.2525 0.83066 0.0
C415 C 0.96109 0.13626 0.69888 0.0
H416 H 0.92579 0.33119 0.68756 0.0
H417 H 0.07655 0.29187 0.66193 0.0
H418 H 0.88827 0.21862 0.73713 0.0
H419 H 0.90302 0.2609 0.78291 0.0
H420 H 0.8716 0.28142 0.73043 0.0
H421 H 0.11118 0.2199 0.69121 0.0
H422 H 0.09328 0.21624 0.75265 0.0
H423 H 0.07035 0.17267 0.71149 0.0
H424 H 0.98816 0.17525 0.88462 0.0
H425 H 0.94656 0.07703 0.77363 0.0
H426 H 0.98249 0.28019 0.8234 0.0
H427 H 0.04477 0.26336 0.81107 0.0
H428 H 0.0192 0.25276 0.86923 0.0
H429 H 0.92902 0.15722 0.68587 0.0
H430 H 0.95379 0.09717 0.693 0.0
H431 H -0.0066 0.14708 0.67719 0.0
C432 C 0.67026 0.97409 0.67395 0.0
C433 C 0.67201 0.01953 0.65213 0.0
C434 C 0.70361 0.96204 0.71016 0.0
C435 C 0.74015 -0.00411 0.72391 0.0
C436 C 0.74294 0.04124 0.70086 0.0
C437 C 0.70859 0.05262 0.66562 0.0
C438 C 0.69902 0.91359 0.73448 0.0
C439 C 0.78186 0.07801 0.71374 0.0
C440 C 0.79957 0.98469 0.84543 0.0
C441 C 0.84319 0.95986 0.83447 0.0
C442 C 0.76565 -0.00326 0.80981 0.0
C443 C 0.7758 0.98391 0.76213 0.0
C444 C 0.82049 0.96025 0.75075 0.0
C445 C 0.85355 0.94844 0.78703 0.0
C446 C 0.71858 0.02242 0.82334 0.0
C447 C 0.83325 0.94703 0.70025 0.0
H448 H 0.64176 0.94874 0.66404 0.0
H449 H 0.71023 0.08781 0.64867 0.0
H450 H 0.7338 0.89294 0.73052 0.0
H451 H 0.6927 0.91898 0.773 0.0
H452 H 0.66832 0.89157 0.72 0.0
H453 H 0.78005 0.11092 0.6912 0.0
H454 H 0.77744 0.08903 0.75131 0.0
H455 H 0.81906 0.06182 0.71009 0.0
H456 H 0.79141 -0.00613 0.88198 0.0
H457 H 0.88735 0.92962 0.77818 0.0
H458 H 0.68646 -0.00021 0.81346 0.0
H459 H 0.7154 0.05696 0.80357 0.0
H460 H 0.71654 0.03041 0.86189 0.0
H461 H 0.80523 0.92182 0.68592 0.0
H462 H 0.87002 0.92967 0.69723 0.0
H463 H 0.83288 0.97988 0.67764 0.0
C464 C 0.23273 0.3837 0.05619 0.0
C465 C 0.25151 0.40078 0.013 0.0
C466 C 0.18825 0.35831 0.05739 0.0
C467 C 0.16207 0.35155 0.01459 0.0
C468 C 0.1756 0.37803 0.9737 0.0
C469 C 0.22099 0.40193 0.97308 0.0
C470 C 0.17526 0.33103 0.10208 0.0
C471 C 0.14693 0.37394 0.92819 0.0
C472 C 0.13805 0.22008 0.99033 0.0
C473 C 0.08938 0.2153 0.00522 0.0
C474 C 0.16172 0.26463 0.99264 0.0
C475 C 0.13495 0.30579 0.00821 0.0
C476 C 0.08453 0.30162 0.02036 0.0
C477 C 0.06249 0.25569 0.02005 0.0
C478 C 0.21604 0.26676 0.98062 0.0
C479 C 0.05449 0.34508 0.03485 0.0
H480 H 0.2555 0.38428 0.08768 0.0
H481 H 0.23457 0.41704 0.94005 0.0
H482 H 0.13512 0.32501 0.1055 0.0
H483 H 0.19357 0.29513 0.10125 0.0
H484 H 0.18838 0.35056 0.134 0.0
H485 H 0.15271 0.40625 0.90541 0.0
H486 H 0.1598 0.34172 0.90821 0.0
H487 H 0.10699 0.36953 0.9353 0.0
H488 H 0.15852 0.18819 0.97952 0.0
H489 H 0.02467 0.25124 0.03163 0.0
H490 H 0.23713 0.2809 0.01125 0.0
H491 H 0.22232 0.29148 0.95026 0.0
H492 H 0.23132 0.23074 0.97113 0.0
H493 H 0.06498 0.35665 0.07104 0.0
H494 H 0.0144 0.3371 0.03483 0.0
H495 H 0.06174 0.37594 0.01064 0.0
C496 C 0.40566 0.74207 0.98033 0.0
C497 C 0.37704 0.70371 0.99704 0.0
C498 C 0.38456 0.7876 0.97318 0.0
C499 C 0.33419 0.79425 0.98391 0.0
C500 C 0.3054 0.75521 0.00134 0.0
C501 C 0.32736 0.71005 0.00743 0.0
C502 C 0.41565 0.82801 0.95318 0.0
C503 C 0.25117 0.76068 0.01238 0.0
C504 C 0.26588 0.9051 0.01788 0.0
C505 C 0.23317 0.90764 0.97968 0.0
C506 C 0.30487 0.87218 0.01714 0.0
C507 C 0.31052 0.84166 0.97732 0.0
C508 C 0.283 0.85029 0.93567 0.0
C509 C 0.24467 0.88393 0.93719 0.0
C510 C 0.33448 0.86475 0.06174 0.0
C511 C 0.28819 0.81902 0.89211 0.0
H512 H 0.44401 0.73591 0.97133 0.0
H513 H 0.3056 0.67942 0.01933 0.0
H514 H 0.3973 0.8444 0.92198 0.0
H515 H 0.41985 0.8569 0.98014 0.0
H516 H 0.45283 0.81535 0.94232 0.0
H517 H 0.23471 0.72685 0.02663 0.0
H518 H 0.24547 0.78994 0.03873 0.0
H519 H 0.23096 0.7709 0.97975 0.0
H520 H 0.25781 0.92469 0.05029 0.0
H521 H 0.22011 0.88669 0.90707 0.0
H522 H 0.37345 0.85642 0.05325 0.0
H523 H 0.31914 0.83356 0.08171 0.0
H524 H 0.33313 0.89708 0.0851 0.0
H525 H 0.32566 0.80366 0.8887 0.0
H526 H 0.27952 0.83996 0.85956 0.0
H527 H 0.26162 0.78859 0.89447 0.0
C528 C 0.59399 0.24872 0.96769 0.0
C529 C 0.62057 0.28807 0.98541 0.0
C530 C 0.6147 0.20229 0.96732 0.0
C531 C 0.6634 0.19607 0.98378 0.0
C532 C 0.69043 0.23622 0.00117 0.0
C533 C 0.6682 0.2817 0.0025 0.0
C534 C 0.58454 0.16012 0.9498 0.0
C535 C 0.7429 0.23133 0.01827 0.0
C536 C 0.72987 0.08907 0.03144 0.0
C537 C 0.76424 0.0823 0.99496 0.0
C538 C 0.69083 0.12154 0.02569 0.0
C539 C 0.68735 0.14814 0.98297 0.0
C540 C 0.71718 0.1356 0.94369 0.0
C541 C 0.75498 0.10192 0.94999 0.0
C542 C 0.65799 0.1323 0.0676 0.0
C543 C 0.71488 0.16313 0.8975 0.0
H544 H 0.55665 0.25408 0.95531 0.0
H545 H 0.68828 0.31258 0.01622 0.0
H546 H 0.60049 0.14604 0.91633 0.0
H547 H 0.58534 0.13017 0.97599 0.0
H548 H 0.54562 0.17036 0.94315 0.0
H549 H 0.75924 0.26671 0.02835 0.0
H550 H 0.74423 0.2071 0.04958 0.0
H551 H 0.76616 0.21491 0.99016 0.0
H552 H 0.73604 0.07264 0.06582 0.0
H553 H 0.78078 0.09587 0.92118 0.0
H554 H 0.62002 0.14101 0.05601 0.0
H555 H 0.67262 0.16414 0.08695 0.0
H556 H 0.65667 0.1013 0.09267 0.0
H557 H 0.67655 0.1728 0.88814 0.0
H558 H 0.7313 0.14203 0.86789 0.0
H559 H 0.73602 0.19731 0.90118 0.0
C560 C 0.89382 0.73537 0.04308 0.0
C561 C 0.87667 0.77182 0.01282 0.0
C562 C 0.86676 0.6927 0.04938 0.0
C563 C 0.82089 0.6878 0.02636 0.0
C564 C 0.80433 0.724 0.99459 0.0
C565 C 0.83309 0.76514 0.98744 0.0
C566 C 0.88641 0.65359 0.08149 0.0
C567 C 0.75496 0.72076 0.97008 0.0
C568 C 0.73978 0.58237 0.00212 0.0
C569 C 0.70215 0.59142 0.0348 0.0
C570 C 0.78357 0.60894 0.00365 0.0
C571 C 0.788 0.64674 0.03708 0.0
C572 C 0.7527 0.65172 0.07378 0.0
C573 C 0.7105 0.62283 0.07283 0.0
C574 C 0.82181 0.60084 0.96561 0.0
C575 C 0.75499 0.69251 0.10932 0.0
H576 H 0.92776 0.74074 0.06252 0.0
H577 H 0.81966 0.79365 0.96444 0.0
H578 H 0.86197 0.64917 0.11273 0.0
H579 H 0.88688 0.61847 0.06241 0.0
H580 H 0.92419 0.66173 0.09418 0.0
H581 H 0.74667 0.75346 0.94862 0.0
H582 H 0.75419 0.68886 0.94629 0.0
H583 H 0.72515 0.7161 0.99669 0.0
H584 H 0.73329 0.55753 0.97323 0.0
H585 H 0.68128 0.62973 0.09824 0.0
H586 H 0.85891 0.61275 0.9771 0.0
H587 H 0.8116 0.62171 0.9335 0.0
H588 H 0.82365 0.56201 0.95575 0.0
H589 H 0.79311 0.69892 0.12165 0.0
H590 H 0.73119 0.6853 0.14064 0.0
H591 H 0.74191 0.7263 0.09217 0.0
C592 C 0.61546 0.53955 0.81559 0.0
C593 C 0.62362 0.52447 0.86215 0.0
C594 C 0.65531 0.55106 0.78599 0.0
C595 C 0.70385 0.54609 0.80359 0.0
C596 C 0.71167 0.53466 0.85185 0.0
C597 C 0.67115 0.52437 0.88081 0.0
C598 C 0.64559 0.5631 0.73469 0.0
C599 C 0.76294 0.52857 0.87154 0.0
C600 C 0.79921 0.49198 0.72201 0.0
C601 C 0.82719 0.53254 0.70928 0.0
C602 C 0.75838 0.4964 0.75185 0.0
C603 C 0.74572 0.54245 0.77018 0.0
C604 C 0.77439 0.58345 0.75852 0.0
C605 C 0.81475 0.57809 0.7278 0.0
C606 C 0.72891 0.4516 0.76393 0.0
C607 C 0.76235 0.63278 0.77833 0.0
H608 H 0.57836 0.53914 0.80148 0.0
H609 H 0.67686 0.51214 0.91691 0.0
H610 H 0.67085 0.59187 0.72198 0.0
H611 H 0.65222 0.53045 0.7127 0.0
H612 H 0.60699 0.57509 0.7291 0.0
H613 H 0.76268 0.515 0.90852 0.0
H614 H 0.78443 0.50258 0.84984 0.0
H615 H 0.78251 0.56374 0.87016 0.0
H616 H 0.80836 0.45673 0.70764 0.0
H617 H 0.83632 0.60957 0.71805 0.0
H618 H 0.68972 0.45694 0.75427 0.0
H619 H 0.73031 0.44482 0.80267 0.0
H620 H 0.74279 0.41886 0.74537 0.0
H621 H 0.72431 0.64318 0.76836 0.0
H622 H 0.78815 0.6611 0.76543 0.0
H623 H 0.7638 0.63177 0.81761 0.0
C624 C 0.21042 0.50196 0.69299 0.0
C625 C 0.21098 0.47528 0.6509 0.0
C626 C 0.24497 0.4935 0.72842 0.0
C627 C 0.28244 0.45873 0.72079 0.0
C628 C 0.28362 0.43176 0.67812 0.0
C629 C 0.247 0.4397 0.64381 0.0
C630 C 0.24103 0.52181 0.77418 0.0
C631 C 0.32337 0.39479 0.66888 0.0
C632 C 0.38729 0.49972 0.79505 0.0
C633 C 0.37503 0.47811 0.83845 0.0
C634 C 0.36084 0.48924 0.75404 0.0
C635 C 0.32224 0.45506 0.75629 0.0
C636 C 0.31475 0.4278 0.79828 0.0
C637 C 0.34056 0.44053 0.83952 0.0
C638 C 0.36944 0.52013 0.71058 0.0
C639 C 0.27549 0.38936 0.80146 0.0
H640 H 0.18131 0.52809 0.69924 0.0
H641 H 0.24641 0.41826 0.61164 0.0
H642 H 0.23756 0.49662 0.80462 0.0
H643 H 0.2748 0.54366 0.77962 0.0
H644 H 0.20878 0.54654 0.77465 0.0
H645 H 0.3169 0.37426 0.63563 0.0
H646 H 0.35961 0.4131 0.66619 0.0
H647 H 0.32567 0.36896 0.6989 0.0
H648 H 0.41479 0.52816 0.79397 0.0
H649 H 0.33091 0.42372 0.87294 0.0
H650 H 0.34054 0.54848 0.70881 0.0
H651 H 0.367 0.49826 0.67775 0.0
H652 H 0.40586 0.53839 0.7115 0.0
H653 H 0.24015 0.40631 0.81222 0.0
H654 H 0.28512 0.36173 0.82851 0.0
H655 H 0.2699 0.37114 0.76686 0.0
C656 C 0.13945 0.49799 0.26212 0.0
C657 C 0.1455 0.48997 0.31058 0.0
C658 C 0.17998 0.49539 0.23122 0.0
C659 C 0.22741 0.48532 0.24967 0.0
C660 C 0.23324 0.47622 0.2987 0.0
C661 C 0.19199 0.47843 0.3286 0.0
C662 C 0.17231 0.50453 0.17901 0.0
C663 C 0.28321 0.46608 0.31984 0.0
C664 C 0.3291 0.45243 0.16233 0.0
C665 C 0.34936 0.49808 0.15309 0.0
C666 C 0.28951 0.44736 0.1942 0.0
C667 C 0.27126 0.4887 0.21825 0.0
C668 C 0.29364 0.53431 0.21083 0.0
C669 C 0.33189 0.53852 0.17782 0.0
C670 C 0.26671 0.39811 0.20148 0.0
C671 C 0.2766 0.57897 0.23703 0.0
H672 H 0.1032 0.50668 0.24857 0.0
H673 H 0.19617 0.47223 0.36634 0.0
H674 H 0.19186 0.53807 0.16834 0.0
H675 H 0.18809 0.47434 0.15794 0.0
H676 H 0.13275 0.50847 0.16991 0.0
H677 H 0.28097 0.45719 0.3582 0.0
H678 H 0.30118 0.43557 0.30106 0.0
H679 H 0.30727 0.4982 0.31536 0.0
H680 H 0.34295 0.4211 0.14344 0.0
H681 H 0.34827 0.5737 0.17132 0.0
H682 H 0.22617 0.40016 0.19726 0.0
H683 H 0.27401 0.38547 0.23809 0.0
H684 H 0.28152 0.37079 0.17632 0.0
H685 H 0.23847 0.5881 0.22626 0.0
H686 H 0.30055 0.61076 0.22992 0.0
H687 H 0.27608 0.57213 0.27578 0.0
C688 C 0.57599 0.50176 0.21702 0.0
C689 C 0.59841 0.50381 0.17226 0.0
C690 C 0.60359 0.5098 0.25824 0.0
C691 C 0.6543 0.52086 0.25415 0.0
C692 C 0.6754 0.52858 0.2088 0.0
C693 C 0.64726 0.51945 0.16832 0.0
C694 C 0.57964 0.50171 0.3059 0.0
C695 C 0.72898 0.5419 0.20278 0.0
C696 C 0.73928 0.55177 0.35604 0.0
C697 C 0.7645 0.50776 0.36168 0.0
C698 C 0.70077 0.55616 0.32321 0.0
C699 C 0.68728 0.51557 0.29565 0.0
C700 C 0.70983 0.47019 0.30405 0.0
C701 C 0.74817 0.4669 0.33688 0.0
C702 C 0.67721 0.605 0.31563 0.0
C703 C 0.69622 0.42578 0.27571 0.0
H704 H 0.53801 0.49008 0.2201 0.0
H705 H 0.66433 0.522 0.13362 0.0
H706 H 0.58984 0.46529 0.31921 0.0
H707 H 0.59262 0.52865 0.33217 0.0
H708 H 0.53886 0.50365 0.30366 0.0
H709 H 0.73725 0.55463 0.16624 0.0
H710 H 0.73964 0.57065 0.22816 0.0
H711 H 0.75215 0.50972 0.21019 0.0
H712 H 0.75134 0.58355 0.3753 0.0
H713 H 0.76741 0.43284 0.34067 0.0
H714 H 0.63678 0.6015 0.31143 0.0
H715 H 0.69192 0.62131 0.28256 0.0
H716 H 0.68491 0.63015 0.34541 0.0
H717 H 0.65571 0.42079 0.27529 0.0
H718 H 0.71339 0.39238 0.29006 0.0
H719 H 0.70858 0.43043 0.23845 0.0
C720 C 0.34627 0.74977 0.56162 0.0
C721 C 0.34071 0.78562 0.52695 0.0
C722 C 0.30996 0.71415 0.56804 0.0
C723 C 0.26711 0.71533 0.53962 0.0
C724 C 0.26086 0.75246 0.50561 0.0
C725 C 0.29801 0.78671 0.49931 0.0
C726 C 0.31766 0.675 0.60455 0.0
C727 C 0.2152 0.75572 0.47522 0.0
C728 C 0.19553 0.60795 0.49795 0.0
C729 C 0.15046 0.61541 0.52081 0.0
C730 C 0.23597 0.63744 0.50764 0.0
C731 C 0.23085 0.67539 0.54091 0.0
C732 C 0.18667 0.68012 0.56741 0.0
C733 C 0.14653 0.65007 0.55667 0.0
C734 C 0.28217 0.63138 0.47828 0.0
C735 C 0.17993 0.71989 0.60345 0.0
H736 H 0.37915 0.74938 0.58324 0.0
H737 H 0.29294 0.81529 0.47343 0.0
H738 H 0.28529 0.67278 0.62852 0.0
H739 H 0.32118 0.63944 0.58665 0.0
H740 H 0.35118 0.68128 0.62616 0.0
H741 H 0.21489 0.78866 0.45264 0.0
H742 H 0.2128 0.72354 0.45185 0.0
H743 H 0.18176 0.75611 0.49788 0.0
H744 H 0.19818 0.58095 0.47014 0.0
H745 H 0.1112 0.65642 0.57342 0.0
H746 H 0.31544 0.63424 0.50079 0.0
H747 H 0.28409 0.66068 0.45142 0.0
H748 H 0.28298 0.5961 0.45945 0.0
H749 H 0.21433 0.72635 0.62356 0.0
H750 H 0.14979 0.71127 0.62881 0.0
H751 H 0.17027 0.75399 0.5849 0.0
C752 C 0.1091 0.29878 0.46208 0.0
C753 C 0.10313 0.33666 0.49459 0.0
C754 C 0.14102 0.26025 0.47171 0.0
C755 C 0.16572 0.25856 0.51579 0.0
C756 C 0.15702 0.29488 0.55012 0.0
C757 C 0.12662 0.33409 0.53862 0.0
C758 C 0.15033 0.22288 0.43362 0.0
C759 C 0.18223 0.29402 0.59775 0.0
C760 C 0.23468 0.14229 0.54317 0.0
C761 C 0.28139 0.15396 0.52566 0.0
C762 C 0.19636 0.17643 0.54125 0.0
C763 C 0.20597 0.22315 0.52268 0.0
C764 C 0.25391 0.23536 0.50694 0.0
C765 C 0.29084 0.20031 0.50805 0.0
C766 C 0.14553 0.16234 0.55792 0.0
C767 C 0.2659 0.28493 0.48741 0.0
H768 H 0.09146 0.30081 0.42775 0.0
H769 H 0.12255 0.36347 0.56352 0.0
H770 H 0.19036 0.21678 0.42849 0.0
H771 H 0.13367 0.18794 0.44445 0.0
H772 H 0.13458 0.23376 0.39899 0.0
H773 H 0.16663 0.32131 0.6225 0.0
H774 H 0.17891 0.25768 0.61416 0.0
H775 H 0.22205 0.30167 0.59307 0.0
H776 H 0.22793 0.10632 0.55708 0.0
H777 H 0.32748 0.20918 0.49532 0.0
H778 H 0.11974 0.16293 0.5275 0.0
H779 H 0.13176 0.1889 0.5843 0.0
H780 H 0.14482 0.12567 0.57404 0.0
H781 H 0.24458 0.29134 0.45451 0.0
H782 H 0.30568 0.28916 0.47914 0.0
H783 H 0.2552 0.31333 0.51323 0.0
C784 C 0.89488 0.70351 0.4797 0.0
C785 C 0.86993 0.6596 0.48475 0.0
C786 C 0.86891 0.74627 0.47055 0.0
C787 C 0.8169 0.74477 0.46855 0.0
C788 C 0.79228 0.69952 0.46846 0.0
C789 C 0.8194 0.65716 0.47618 0.0
C790 C 0.8967 0.79343 0.46828 0.0
C791 C 0.73687 0.69615 0.46614 0.0
C792 C 0.74279 0.84178 0.53068 0.0
C793 C 0.71985 0.86478 0.49242 0.0
C794 C 0.77661 0.80423 0.52312 0.0
C795 C 0.78805 0.78969 0.47615 0.0
C796 C 0.76841 0.81553 0.43738 0.0
C797 C 0.73448 0.85281 0.44597 0.0
C798 C 0.79745 0.77793 0.56555 0.0
C799 C 0.78052 0.80182 0.38685 0.0
H800 H 0.93416 0.70493 0.48634 0.0
H801 H 0.80039 0.62292 0.48057 0.0
H802 H 0.88037 0.81804 0.44154 0.0
H803 H 0.89454 0.81169 0.50324 0.0
H804 H 0.93615 0.78761 0.45945 0.0
H805 H 0.72428 0.65865 0.45879 0.0
H806 H 0.72101 0.70777 0.50061 0.0
H807 H 0.72208 0.72047 0.43837 0.0
H808 H 0.7321 0.85096 0.56662 0.0
H809 H 0.71748 0.87077 0.41603 0.0
H810 H 0.83817 0.77619 0.56315 0.0
H811 H 0.78351 0.74018 0.56614 0.0
H812 H 0.78729 0.7956 0.59957 0.0
H813 H 0.82025 0.79342 0.38277 0.0
H814 H 0.7706 0.83102 0.36154 0.0
H815 H 0.75962 0.76883 0.37707 0.0
C816 C 0.6822 0.20239 0.45516 0.0
C817 C 0.64245 0.21235 0.48558 0.0
C818 C 0.72453 0.23113 0.45562 0.0
C819 C 0.72614 0.27185 0.48578 0.0
C820 C 0.68414 0.28482 0.5129 0.0
C821 C 0.64305 0.25411 0.51342 0.0
C822 C 0.76876 0.21568 0.42677 0.0
C823 C 0.68371 0.32962 0.54345 0.0
C824 C 0.84282 0.317 0.54311 0.0
C825 C 0.8527 0.35845 0.5161 0.0
C826 C 0.80347 0.28649 0.53151 0.0
C827 C 0.77294 0.29837 0.49258 0.0
C828 C 0.78526 0.33784 0.46298 0.0
C829 C 0.82526 0.36728 0.47501 0.0
C830 C 0.79301 0.24303 0.56244 0.0
C831 C 0.75462 0.35168 0.42055 0.0
H832 H 0.6821 0.16962 0.43401 0.0
H833 H 0.6123 0.26169 0.53686 0.0
H834 H 0.78406 0.24673 0.40666 0.0
H835 H 0.79801 0.20259 0.45099 0.0
H836 H 0.75977 0.1862 0.40146 0.0
H837 H 0.64629 0.33798 0.55717 0.0
H838 H 0.70869 0.32442 0.57407 0.0
H839 H 0.6974 0.36118 0.52294 0.0
H840 H 0.86453 0.3095 0.57445 0.0
H841 H 0.83292 0.39899 0.45375 0.0
H842 H 0.78656 0.2105 0.54026 0.0
H843 H 0.75907 0.24952 0.58348 0.0
H844 H 0.82365 0.23535 0.58733 0.0
H845 H 0.73362 0.32082 0.40577 0.0
H846 H 0.77845 0.3667 0.39214 0.0
H847 H 0.72804 0.3802 0.4312 0.0
C848 C 0.51771 0.31024 0.85395 0.0
C849 C 0.48252 0.34524 0.84237 0.0
C850 C 0.53316 0.27604 0.82016 0.0
C851 C 0.51255 0.2772 0.77407 0.0
C852 C 0.48152 0.31623 0.76102 0.0
C853 C 0.46627 0.34937 0.79562 0.0
C854 C 0.56701 0.23581 0.83568 0.0
C855 C 0.45963 0.31986 0.71203 0.0
C856 C 0.53621 0.18869 0.67308 0.0
C857 C 0.49483 0.15868 0.67772 0.0
C858 C 0.54518 0.22572 0.70636 0.0
C859 C 0.51176 0.23266 0.74447 0.0
C860 C 0.47252 0.19964 0.75121 0.0
C861 C 0.46475 0.16311 0.71793 0.0
C862 C 0.58856 0.25898 0.69921 0.0
C863 C 0.43635 0.20487 0.79175 0.0
H864 H 0.52981 0.30683 0.89026 0.0
H865 H 0.43936 0.37693 0.78675 0.0
H866 H 0.54483 0.2067 0.85242 0.0
H867 H 0.58766 0.21997 0.80547 0.0
H868 H 0.59372 0.24905 0.86243 0.0
H869 H 0.44413 0.35639 0.7051 0.0
H870 H 0.48769 0.3117 0.68455 0.0
H871 H 0.42954 0.29295 0.70851 0.0
H872 H 0.55989 0.18504 0.64229 0.0
H873 H 0.43336 0.13927 0.72231 0.0
H874 H 0.60713 0.26635 0.73345 0.0
H875 H 0.57556 0.29411 0.68495 0.0
H876 H 0.61582 0.24357 0.67394 0.0
H877 H 0.4562 0.20701 0.82598 0.0
H878 H 0.40989 0.17426 0.79359 0.0
H879 H 0.41507 0.23887 0.7875 0.0
C880 C 0.47452 0.82169 0.66413 0.0
C881 C 0.50781 0.85983 0.67029 0.0
C882 C 0.46662 0.78765 0.70053 0.0
C883 C 0.49229 0.79246 0.74403 0.0
C884 C 0.52164 0.83402 0.75187 0.0
C885 C 0.52968 0.86673 0.71467 0.0
C886 C 0.43431 0.74454 0.69041 0.0
C887 C 0.54783 0.842 0.79833 0.0
C888 C 0.47058 0.70797 0.84929 0.0
C889 C 0.51191 0.67765 0.84597 0.0
C890 C 0.46265 0.74501 0.81577 0.0
C891 C 0.49618 0.75084 0.77757 0.0
C892 C 0.53646 0.71854 0.77301 0.0
C893 C 0.54425 0.68298 0.80764 0.0
C894 C 0.41968 0.77893 0.82234 0.0
C895 C 0.57223 0.72223 0.73207 0.0
H896 H 0.4577 0.81618 0.62979 0.0
H897 H 0.55494 0.8967 0.71966 0.0
H898 H 0.45677 0.71607 0.67297 0.0
H899 H 0.41802 0.72903 0.72313 0.0
H900 H 0.40404 0.75454 0.66595 0.0
H901 H 0.56243 0.87942 0.80143 0.0
H902 H 0.52261 0.83495 0.82856 0.0
H903 H 0.57913 0.81639 0.8012 0.0
H904 H 0.4456 0.70399 0.87909 0.0
H905 H 0.57586 0.65918 0.80473 0.0
H906 H 0.40045 0.78525 0.78825 0.0
H907 H 0.43334 0.81446 0.83505 0.0
H908 H 0.39283 0.76473 0.84861 0.0
H909 H 0.55196 0.72278 0.69797 0.0
H910 H 0.59885 0.69171 0.73138 0.0
H911 H 0.59322 0.75656 0.73464 0.0
C912 C 0.44296 0.67099 0.20306 0.0
C913 C 0.48821 0.66296 0.18035 0.0
C914 C 0.43771 0.70833 0.23655 0.0
C915 C 0.47898 0.7373 0.24808 0.0
C916 C 0.52486 0.72865 0.22567 0.0
C917 C 0.52875 0.69191 0.19182 0.0
C918 C 0.38824 0.71667 0.25961 0.0
C919 C 0.5701 0.75801 0.23765 0.0
C920 C 0.47558 0.86217 0.30292 0.0
C921 C 0.49226 0.85208 0.34884 0.0
C922 C 0.46732 0.82461 0.27036 0.0
C923 C 0.47551 0.77606 0.28439 0.0
C924 C 0.48812 0.76558 0.33189 0.0
C925 C 0.49638 0.80374 0.36353 0.0
C926 C 0.45339 0.83703 0.22005 0.0
C927 C 0.49703 0.71433 0.34836 0.0
H928 H 0.41151 0.64869 0.19406 0.0
H929 H 0.56391 0.68544 0.17468 0.0
H930 H 0.3908 0.70963 0.29823 0.0
H931 H 0.37692 0.75498 0.2552 0.0
H932 H 0.35916 0.693 0.24457 0.0
H933 H 0.60292 0.74663 0.21687 0.0
H934 H 0.56316 0.79692 0.23069 0.0
H935 H 0.57869 0.75423 0.27589 0.0
H936 H 0.47176 0.89943 0.2915 0.0
H937 H 0.50841 0.79562 0.39927 0.0
H938 H 0.42055 0.81596 0.20918 0.0
H939 H 0.4839 0.82706 0.1957 0.0
H940 H 0.44547 0.87618 0.21553 0.0
H941 H 0.46741 0.68993 0.33581 0.0
H942 H 0.49923 0.71176 0.3876 0.0
H943 H 0.53224 0.701 0.33318 0.0
C944 C 0.50469 0.21536 0.37332 0.0
C945 C 0.48719 0.16771 0.36996 0.0
C946 C 0.5113 0.24391 0.33263 0.0
C947 C 0.50066 0.22411 0.28753 0.0
C948 C 0.48793 0.17457 0.2837 0.0
C949 C 0.48104 0.147 0.325 0.0
C950 C 0.52547 0.29639 0.33837 0.0
C951 C 0.47781 0.1516 0.23619 0.0
C952 C 0.44088 0.30687 0.1973 0.0
C953 C 0.47979 0.31678 0.16601 0.0
C954 C 0.44763 0.27724 0.23704 0.0
C955 C 0.49447 0.25668 0.24589 0.0
C956 C 0.5342 0.26684 0.21482 0.0
C957 C 0.52644 0.29701 0.17529 0.0
C958 C 0.40428 0.26761 0.2694 0.0
C959 C 0.58471 0.24578 0.22321 0.0
H960 H 0.51037 0.23147 0.4079 0.0
H961 H 0.46859 0.10986 0.32206 0.0
H962 H 0.55335 0.30707 0.31156 0.0
H963 H 0.49252 0.31941 0.33279 0.0
H964 H 0.54032 0.30403 0.37425 0.0
H965 H 0.47637 0.11149 0.23852 0.0
H966 H 0.44191 0.16473 0.22262 0.0
H967 H 0.50648 0.162 0.21002 0.0
H968 H 0.4048 0.32215 0.19067 0.0
H969 H 0.55679 0.30463 0.15141 0.0
H970 H 0.41334 0.27853 0.30619 0.0
H971 H 0.39594 0.22831 0.26993 0.0
H972 H 0.37064 0.28735 0.25819 0.0
H973 H 0.60033 0.26092 0.25631 0.0
H974 H 0.61052 0.25369 0.19359 0.0
H975 H 0.58232 0.206 0.22793 0.0
loop_
_geom_bond_atom_site_label_1
_geom_bond_atom_site_label_2
_geom_bond_distance
_geom_bond_site_symmetry_2
_ccdc_geom_bond_type
Zn0 O2 1.933 1_556 S
Zn0 O20 1.985 . S
Zn0 O31 1.955 . S
Zn1 O2 1.911 . S
Zn1 O21 1.970 . S
Zn1 O37 1.945 . S
Zn1 O44 1.981 . S
O2 Zn0 1.933 1_554 S
O2 Zn1 1.911 . S
O2 H3 0.841 . S
H3 O2 0.841 . S
C4 O5 1.246 . S
C4 O33 1.276 1_655 S
O5 C4 1.246 . S
Zn6 O8 1.911 . S
Zn6 O23 1.970 . S
Zn6 O40 1.945 . S
Zn6 O47 1.981 . S
Zn7 O8 1.933 1_556 S
Zn7 O22 1.985 . S
Zn7 O29 1.955 . S
O8 Zn6 1.911 . S
O8 Zn7 1.933 1_554 S
O8 H9 0.841 . S
H9 O8 0.841 . S
Zn10 O11 1.933 1_556 S
Zn10 O24 1.985 . S
Zn10 O33 1.955 . S
O11 Zn10 1.933 1_554 S
O11 Zn12 1.911 . S
O11 H13 0.841 . S
Zn12 O11 1.911 . S
Zn12 O25 1.970 . S
Zn12 O41 1.981 . S
Zn12 O43 1.945 . S
H13 O11 0.841 . S
Zn14 O15 1.933 1_556 S
Zn14 O27 1.985 . S
Zn14 O35 1.955 . S
O15 Zn14 1.933 1_554 S
O15 H16 0.841 . S
O15 Zn17 1.911 . S
H16 O15 0.841 . S
Zn17 O15 1.911 . S
Zn17 O28 1.970 . S
Zn17 O38 1.981 . S
Zn17 O46 1.945 . S
C18 O19 1.246 . S
C18 O35 1.276 1_455 S
O19 C18 1.246 . S
O20 Zn0 1.985 . S
O20 C30 1.245 1_556 S
O21 Zn1 1.970 . S
O21 C30 1.263 . S
O22 Zn7 1.985 . S
O22 C34 1.245 1_556 S
O23 Zn6 1.970 . S
O23 C34 1.263 . S
O24 Zn10 1.985 . S
O24 C39 1.245 1_556 S
O25 Zn12 1.970 . S
O25 C39 1.263 . S
C26 O37 1.262 1_545 S
C26 O38 1.245 . S
O27 Zn14 1.985 . S
O27 C45 1.245 1_556 S
O28 Zn17 1.970 . S
O28 C45 1.263 . S
O29 Zn7 1.955 . S
O29 C48 1.281 . S
C30 O20 1.245 1_554 S
C30 O21 1.263 . S
O31 Zn0 1.955 . S
O31 C50 1.276 1_565 S
C32 O40 1.262 . S
C32 O41 1.245 1_545 S
O33 C4 1.276 1_455 S
O33 Zn10 1.955 . S
C34 O22 1.245 1_554 S
C34 O23 1.263 . S
O35 Zn14 1.955 . S
O35 C18 1.276 1_655 S
C36 O43 1.267 . S
C36 O44 1.242 1_455 S
O37 Zn1 1.945 . S
O37 C26 1.262 1_565 S
O38 Zn17 1.981 . S
O38 C26 1.245 . S
C39 O24 1.245 1_554 S
C39 O25 1.263 . S
O40 Zn6 1.945 . S
O40 C32 1.262 . S
O41 Zn12 1.981 . S
O41 C32 1.245 1_565 S
C42 O46 1.262 1_455 S
C42 O47 1.245 . S
O43 Zn12 1.945 . S
O43 C36 1.267 . S
O44 Zn1 1.981 . S
O44 C36 1.242 1_655 S
C45 O27 1.245 1_554 S
C45 O28 1.263 . S
O46 Zn17 1.945 . S
O46 C42 1.262 1_655 S
O47 Zn6 1.981 . S
O47 C42 1.245 . S
C48 O29 1.281 . S
C48 O49 1.243 1_545 S
O49 C48 1.243 1_565 S
C50 O31 1.276 1_545 S
C50 O51 1.246 . S
O51 C50 1.246 . S
Zn52 O54 1.933 . S
Zn52 O72 1.985 . S
Zn52 O83 1.955 . S
Zn53 O54 1.911 . S
Zn53 O73 1.970 . S
Zn53 O89 1.945 . S
Zn53 O96 1.981 . S
O54 Zn52 1.933 . S
O54 Zn53 1.911 . S
O54 H55 0.841 . S
H55 O54 0.841 . S
C56 O57 1.246 . S
C56 O85 1.276 . S
O57 C56 1.246 . S
Zn58 O60 1.911 . S
Zn58 O75 1.970 . S
Zn58 O92 1.945 . S
Zn58 O99 1.981 . S
Zn59 O60 1.933 . S
Zn59 O74 1.985 . S
Zn59 O81 1.955 . S
O60 Zn58 1.911 . S
O60 Zn59 1.933 . S
O60 H61 0.841 . S
H61 O60 0.841 . S
Zn62 O63 1.933 . S
Zn62 O76 1.985 . S
Zn62 O85 1.955 . S
O63 Zn62 1.933 . S
O63 Zn64 1.911 . S
O63 H65 0.841 . S
Zn64 O63 1.911 . S
Zn64 O77 1.970 . S
Zn64 O93 1.981 . S
Zn64 O95 1.945 . S
H65 O63 0.841 . S
Zn66 O67 1.933 . S
Zn66 O79 1.985 . S
Zn66 O87 1.955 . S
O67 Zn66 1.933 . S
O67 H68 0.841 . S
O67 Zn69 1.911 . S
H68 O67 0.841 . S
Zn69 O67 1.911 . S
Zn69 O80 1.970 . S
Zn69 O90 1.981 . S
Zn69 O98 1.945 . S
C70 O71 1.246 . S
C70 O87 1.276 . S
O71 C70 1.246 . S
O72 Zn52 1.985 . S
O72 C82 1.245 . S
O73 Zn53 1.970 . S
O73 C82 1.263 . S
O74 Zn59 1.985 . S
O74 C86 1.245 . S
O75 Zn58 1.970 . S
O75 C86 1.263 . S
O76 Zn62 1.985 . S
O76 C91 1.245 . S
O77 Zn64 1.970 . S
O77 C91 1.263 . S
C78 O89 1.262 . S
C78 O90 1.245 1_655 S
O79 Zn66 1.985 . S
O79 C97 1.245 . S
O80 Zn69 1.970 . S
O80 C97 1.263 . S
O81 Zn59 1.955 . S
O81 C100 1.276 1_455 S
C82 O72 1.245 . S
C82 O73 1.263 . S
O83 Zn52 1.955 . S
O83 C102 1.276 1_655 S
C84 O92 1.268 . S
C84 O93 1.242 1_455 S
O85 C56 1.276 . S
O85 Zn62 1.955 . S
C86 O74 1.245 . S
C86 O75 1.263 . S
O87 Zn66 1.955 . S
O87 C70 1.276 . S
C88 O95 1.262 . S
C88 O96 1.245 . S
O89 Zn53 1.945 . S
O89 C78 1.262 . S
O90 Zn69 1.981 . S
O90 C78 1.245 1_455 S
C91 O76 1.245 . S
C91 O77 1.263 . S
O92 Zn58 1.945 . S
O92 C84 1.268 . S
O93 Zn64 1.981 . S
O93 C84 1.242 1_655 S
C94 O98 1.262 . S
C94 O99 1.245 . S
O95 Zn64 1.945 . S
O95 C88 1.262 . S
O96 Zn53 1.981 . S
O96 C88 1.245 . S
C97 O79 1.245 . S
C97 O80 1.263 . S
O98 Zn69 1.945 . S
O98 C94 1.262 . S
O99 Zn58 1.981 . S
O99 C94 1.245 . S
C100 O81 1.276 1_655 S
C100 O101 1.246 . S
O101 C100 1.246 . S
C102 O83 1.276 1_455 S
C102 O103 1.246 . S
O103 C102 1.246 . S
Zn104 O106 1.933 . S
Zn104 O124 1.985 . S
Zn104 O135 1.955 . S
Zn105 O106 1.911 . S
Zn105 O125 1.970 . S
Zn105 O141 1.945 . S
Zn105 O148 1.981 . S
O106 Zn104 1.933 . S
O106 Zn105 1.911 . S
O106 H107 0.841 . S
H107 O106 0.841 . S
C108 O109 1.246 . S
C108 O137 1.276 . S
O109 C108 1.246 . S
Zn110 O112 1.911 . S
Zn110 O127 1.970 . S
Zn110 O144 1.945 . S
Zn110 O151 1.981 . S
Zn111 O112 1.933 . S
Zn111 O126 1.985 . S
Zn111 O133 1.955 . S
O112 Zn110 1.911 . S
O112 Zn111 1.933 . S
O112 H113 0.841 . S
H113 O112 0.841 . S
Zn114 O115 1.933 . S
Zn114 O128 1.985 . S
Zn114 O137 1.955 . S
O115 Zn114 1.933 . S
O115 Zn116 1.911 . S
O115 H117 0.841 . S
Zn116 O115 1.911 . S
Zn116 O129 1.970 . S
Zn116 O145 1.981 . S
Zn116 O147 1.945 . S
H117 O115 0.841 . S
Zn118 O119 1.933 . S
Zn118 O131 1.985 . S
Zn118 O139 1.955 . S
O119 Zn118 1.933 . S
O119 H120 0.841 . S
O119 Zn121 1.911 . S
H120 O119 0.841 . S
Zn121 O119 1.911 . S
Zn121 O132 1.970 . S
Zn121 O142 1.981 . S
Zn121 O150 1.945 . S
C122 O123 1.246 . S
C122 O139 1.276 . S
O123 C122 1.246 . S
O124 Zn104 1.985 . S
O124 C134 1.245 . S
O125 Zn105 1.970 . S
O125 C134 1.263 . S
O126 Zn111 1.985 . S
O126 C138 1.245 . S
O127 Zn110 1.970 . S
O127 C138 1.263 . S
O128 Zn114 1.985 . S
O128 C143 1.245 . S
O129 Zn116 1.970 . S
O129 C143 1.263 . S
C130 O141 1.262 1_545 S
C130 O142 1.245 . S
O131 Zn118 1.985 . S
O131 C149 1.245 . S
O132 Zn121 1.970 . S
O132 C149 1.263 . S
O133 Zn111 1.955 . S
O133 C152 1.281 . S
C134 O124 1.245 . S
C134 O125 1.263 . S
O135 Zn104 1.955 . S
O135 C154 1.276 1_565 S
C136 O144 1.262 . S
C136 O145 1.245 1_545 S
O137 C108 1.276 . S
O137 Zn114 1.955 . S
C138 O126 1.245 . S
C138 O127 1.263 . S
O139 Zn118 1.955 . S
O139 C122 1.276 . S
C140 O147 1.262 . S
C140 O148 1.245 . S
O141 Zn105 1.945 . S
O141 C130 1.262 1_565 S
O142 Zn121 1.981 . S
O142 C130 1.245 . S
C143 O128 1.245 . S
C143 O129 1.263 . S
O144 Zn110 1.945 . S
O144 C136 1.262 . S
O145 Zn116 1.981 . S
O145 C136 1.245 1_565 S
C146 O150 1.262 . S
C146 O151 1.245 . S
O147 Zn116 1.945 . S
O147 C140 1.262 . S
O148 Zn105 1.981 . S
O148 C140 1.245 . S
C149 O131 1.245 . S
C149 O132 1.263 . S
O150 Zn121 1.945 . S
O150 C146 1.262 . S
O151 Zn110 1.981 . S
O151 C146 1.245 . S
C152 O133 1.281 . S
C152 O153 1.243 1_545 S
O153 C152 1.243 1_565 S
C154 O135 1.276 1_545 S
C154 O155 1.246 . S
O155 C154 1.246 . S
Zn156 O158 1.933 . S
Zn156 O176 1.985 . S
Zn156 O187 1.955 . S
Zn157 O158 1.911 1_556 S
Zn157 O177 1.970 . S
Zn157 O193 1.945 . S
Zn157 O200 1.981 . S
O158 Zn156 1.933 . S
O158 Zn157 1.911 1_554 S
O158 H159 0.841 . S
H159 O158 0.841 . S
C160 O161 1.246 . S
C160 O189 1.276 . S
O161 C160 1.246 . S
Zn162 O164 1.911 1_556 S
Zn162 O179 1.970 . S
Zn162 O196 1.945 . S
Zn162 O203 1.981 . S
Zn163 O164 1.933 . S
Zn163 O178 1.985 . S
Zn163 O185 1.955 . S
O164 Zn162 1.911 1_554 S
O164 Zn163 1.933 . S
O164 H165 0.841 . S
H165 O164 0.841 . S
Zn166 O167 1.933 . S
Zn166 O180 1.985 . S
Zn166 O189 1.955 . S
O167 Zn166 1.933 . S
O167 Zn168 1.911 1_554 S
O167 H169 0.841 . S
Zn168 O167 1.911 1_556 S
Zn168 O181 1.970 . S
Zn168 O197 1.981 . S
Zn168 O199 1.945 . S
H169 O167 0.841 . S
Zn170 O171 1.933 . S
Zn170 O183 1.985 . S
Zn170 O191 1.955 . S
O171 Zn170 1.933 . S
O171 H172 0.841 . S
O171 Zn173 1.911 1_554 S
H172 O171 0.841 . S
Zn173 O171 1.911 1_556 S
Zn173 O184 1.970 . S
Zn173 O194 1.981 . S
Zn173 O202 1.945 . S
C174 O175 1.246 . S
C174 O191 1.276 . S
O175 C174 1.246 . S
O176 Zn156 1.985 . S
O176 C186 1.245 . S
O177 Zn157 1.970 . S
O177 C186 1.263 1_556 S
O178 Zn163 1.985 . S
O178 C190 1.245 . S
O179 Zn162 1.970 . S
O179 C190 1.263 1_556 S
O180 Zn166 1.985 . S
O180 C195 1.245 . S
O181 Zn168 1.970 . S
O181 C195 1.263 1_556 S
C182 O193 1.262 . S
C182 O194 1.245 . S
O183 Zn170 1.985 . S
O183 C201 1.245 . S
O184 Zn173 1.970 . S
O184 C201 1.263 1_556 S
O185 Zn163 1.955 . S
O185 C204 1.276 . S
C186 O176 1.245 . S
C186 O177 1.263 1_554 S
O187 Zn156 1.955 . S
O187 C206 1.276 . S
C188 O196 1.262 . S
C188 O197 1.245 . S
O189 C160 1.276 . S
O189 Zn166 1.955 . S
C190 O178 1.245 . S
C190 O179 1.263 1_554 S
O191 Zn170 1.955 . S
O191 C174 1.276 . S
C192 O199 1.262 . S
C192 O200 1.245 . S
O193 Zn157 1.945 . S
O193 C182 1.262 . S
O194 Zn173 1.981 . S
O194 C182 1.245 . S
C195 O180 1.245 . S
C195 O181 1.263 1_554 S
O196 Zn162 1.945 . S
O196 C188 1.262 . S
O197 Zn168 1.981 . S
O197 C188 1.245 . S
C198 O202 1.262 . S
C198 O203 1.245 . S
O199 Zn168 1.945 . S
O199 C192 1.262 . S
O200 Zn157 1.981 . S
O200 C192 1.245 . S
C201 O183 1.245 . S
C201 O184 1.263 1_554 S
O202 Zn173 1.945 . S
O202 C198 1.262 . S
O203 Zn162 1.981 . S
O203 C198 1.245 . S
C204 O185 1.276 . S
C204 O205 1.246 . S
O205 C204 1.246 . S
C206 O187 1.276 . S
C206 O207 1.246 . S
O207 C206 1.246 . S
C208 C209 1.391 1_655 S
C208 C210 1.394 . S
C208 H224 0.931 . S
C209 C208 1.391 1_455 S
C209 C213 1.376 . S
C210 C208 1.394 . S
C210 C211 1.369 1_655 S
C210 C214 1.531 . S
C211 C210 1.369 1_455 S
C211 C212 1.410 . S
C211 C219 1.503 . S
C212 C211 1.410 . S
C212 C213 1.392 . S
C212 C215 1.511 . S
C213 C209 1.376 . S
C213 C212 1.392 . S
C213 H225 0.929 . S
C214 C210 1.531 . S
C214 H226 0.960 . S
C214 H227 0.962 . S
C214 H228 0.960 . S
C215 C212 1.511 . S
C215 H229 0.961 . S
C215 H230 0.961 . S
C215 H231 0.961 . S
C216 C217 1.370 1_655 S
C216 C218 1.363 . S
C216 H232 0.931 . S
C217 C216 1.370 1_455 S
C217 C221 1.408 . S
C218 C216 1.363 . S
C218 C219 1.370 1_655 S
C218 C222 1.524 . S
C219 C211 1.503 . S
C219 C218 1.370 1_455 S
C219 C220 1.403 . S
C220 C219 1.403 . S
C220 C221 1.404 . S
C220 C223 1.539 . S
C221 C217 1.408 . S
C221 C220 1.404 . S
C221 H233 0.930 . S
C222 C218 1.524 . S
C222 H234 0.956 . S
C222 H235 0.961 . S
C222 H236 0.961 . S
C223 C220 1.539 . S
C223 H237 0.958 . S
C223 H238 0.961 . S
C223 H239 0.960 . S
H224 C208 0.931 . S
H225 C213 0.929 . S
H226 C214 0.960 . S
H227 C214 0.962 . S
H228 C214 0.960 . S
H229 C215 0.961 . S
H230 C215 0.961 . S
H231 C215 0.961 . S
H232 C216 0.931 . S
H233 C221 0.930 . S
H234 C222 0.956 . S
H235 C222 0.961 . S
H236 C222 0.961 . S
H237 C223 0.958 . S
H238 C223 0.961 . S
H239 C223 0.960 . S
C240 C241 1.391 . S
C240 C242 1.394 . S
C240 H256 0.931 . S
C241 C240 1.391 . S
C241 C245 1.376 1_545 S
C242 C240 1.394 . S
C242 C243 1.369 1_545 S
C242 C246 1.531 . S
C243 C242 1.369 1_565 S
C243 C244 1.410 . S
C243 C251 1.503 . S
C244 C243 1.410 . S
C244 C245 1.392 . S
C244 C247 1.511 . S
C245 C241 1.376 1_565 S
C245 C244 1.392 . S
C245 H257 0.929 . S
C246 C242 1.531 . S
C246 H258 0.960 . S
C246 H259 0.962 . S
C246 H260 0.960 . S
C247 C244 1.511 . S
C247 H261 0.961 . S
C247 H262 0.961 . S
C247 H263 0.961 . S
C248 C249 1.370 1_545 S
C248 C250 1.363 . S
C248 H264 0.931 . S
C249 C248 1.370 1_565 S
C249 C253 1.408 . S
C250 C248 1.363 . S
C250 C251 1.370 1_545 S
C250 C254 1.524 . S
C251 C243 1.503 . S
C251 C250 1.370 1_565 S
C251 C252 1.403 . S
C252 C251 1.403 . S
C252 C253 1.404 . S
C252 C255 1.539 . S
C253 C249 1.408 . S
C253 C252 1.404 . S
C253 H265 0.930 . S
C254 C250 1.524 . S
C254 H266 0.956 . S
C254 H267 0.961 . S
C254 H268 0.961 . S
C255 C252 1.539 . S
C255 H269 0.958 . S
C255 H270 0.961 . S
C255 H271 0.960 . S
H256 C240 0.931 . S
H257 C245 0.929 . S
H258 C246 0.960 . S
H259 C246 0.962 . S
H260 C246 0.960 . S
H261 C247 0.961 . S
H262 C247 0.961 . S
H263 C247 0.961 . S
H264 C248 0.931 . S
H265 C253 0.930 . S
H266 C254 0.956 . S
H267 C254 0.961 . S
H268 C254 0.961 . S
H269 C255 0.958 . S
H270 C255 0.961 . S
H271 C255 0.960 . S
C272 C273 1.391 1_455 S
C272 C274 1.394 . S
C272 H288 0.931 . S
C273 C272 1.391 1_655 S
C273 C277 1.376 . S
C274 C272 1.394 . S
C274 C275 1.369 1_455 S
C274 C278 1.531 . S
C275 C274 1.369 1_655 S
C275 C276 1.410 . S
C275 C283 1.502 1_655 S
C276 C275 1.410 . S
C276 C277 1.392 . S
C276 C279 1.511 . S
C277 C273 1.376 . S
C277 C276 1.392 . S
C277 H289 0.929 . S
C278 C274 1.531 . S
C278 H290 0.960 . S
C278 H291 0.962 . S
C278 H292 0.960 . S
C279 C276 1.511 . S
C279 H293 0.961 . S
C279 H294 0.961 . S
C279 H295 0.961 . S
C280 C281 1.370 . S
C280 C282 1.363 . S
C280 H296 0.931 . S
C281 C280 1.370 . S
C281 C285 1.408 1_455 S
C282 C280 1.363 . S
C282 C283 1.373 . S
C282 C286 1.524 . S
C283 C275 1.502 1_455 S
C283 C282 1.373 . S
C283 C284 1.401 1_455 S
C284 C283 1.401 1_655 S
C284 C285 1.404 . S
C284 C287 1.539 . S
C285 C281 1.408 1_655 S
C285 C284 1.404 . S
C285 H297 0.930 . S
C286 C282 1.524 . S
C286 H298 0.956 . S
C286 H299 0.961 1_455 S
C286 H300 0.961 . S
C287 C284 1.539 . S
C287 H301 0.958 1_655 S
C287 H302 0.961 . S
C287 H303 0.960 . S
H288 C272 0.931 . S
H289 C277 0.929 . S
H290 C278 0.960 . S
H291 C278 0.962 . S
H292 C278 0.960 . S
H293 C279 0.961 . S
H294 C279 0.961 . S
H295 C279 0.961 . S
H296 C280 0.931 . S
H297 C285 0.930 . S
H298 C286 0.956 . S
H299 C286 0.961 1_655 S
H300 C286 0.961 . S
H301 C287 0.958 1_455 S
H302 C287 0.961 . S
H303 C287 0.960 . S
C304 C305 1.391 1_565 S
C304 C306 1.394 . S
C304 H320 0.931 . S
C305 C304 1.391 1_545 S
C305 C309 1.376 . S
C306 C304 1.394 . S
C306 C307 1.369 . S
C306 C310 1.531 . S
C307 C306 1.369 . S
C307 C308 1.410 1_565 S
C307 C315 1.503 . S
C308 C307 1.410 1_545 S
C308 C309 1.392 . S
C308 C311 1.511 . S
C309 C305 1.376 . S
C309 C308 1.392 . S
C309 H321 0.929 . S
C310 C306 1.531 . S
C310 H322 0.960 . S
C310 H323 0.962 . S
C310 H324 0.960 . S
C311 C308 1.511 . S
C311 H325 0.961 . S
C311 H326 0.961 . S
C311 H327 0.961 . S
C312 C313 1.370 1_545 S
C312 C314 1.363 . S
C312 H328 0.931 . S
C313 C312 1.370 1_565 S
C313 C317 1.408 . S
C314 C312 1.363 . S
C314 C315 1.370 1_545 S
C314 C318 1.524 . S
C315 C307 1.503 . S
C315 C314 1.370 1_565 S
C315 C316 1.403 . S
C316 C315 1.403 . S
C316 C317 1.404 . S
C316 C319 1.539 . S
C317 C313 1.408 . S
C317 C316 1.404 . S
C317 H329 0.930 . S
C318 C314 1.524 . S
C318 H330 0.956 . S
C318 H331 0.961 . S
C318 H332 0.961 . S
C319 C316 1.539 . S
C319 H333 0.958 . S
C319 H334 0.961 . S
C319 H335 0.960 . S
H320 C304 0.931 . S
H321 C309 0.929 . S
H322 C310 0.960 . S
H323 C310 0.962 . S
H324 C310 0.960 . S
H325 C311 0.961 . S
H326 C311 0.961 . S
H327 C311 0.961 . S
H328 C312 0.931 . S
H329 C317 0.930 . S
H330 C318 0.956 . S
H331 C318 0.961 . S
H332 C318 0.961 . S
H333 C319 0.958 . S
H334 C319 0.961 . S
H335 C319 0.960 . S
C336 C337 1.391 . S
C336 C338 1.394 . S
C336 H352 0.931 . S
C337 C336 1.391 . S
C337 C341 1.376 1_655 S
C338 C336 1.394 . S
C338 C339 1.369 . S
C338 C342 1.531 . S
C339 C338 1.369 . S
C339 C340 1.410 1_655 S
C339 C347 1.503 . S
C340 C339 1.410 1_455 S
C340 C341 1.392 . S
C340 C343 1.511 . S
C341 C337 1.376 1_455 S
C341 C340 1.392 . S
C341 H353 0.929 . S
C342 C338 1.531 . S
C342 H354 0.960 . S
C342 H355 0.962 . S
C342 H356 0.960 . S
C343 C340 1.511 . S
C343 H357 0.961 . S
C343 H358 0.961 . S
C343 H359 0.961 . S
C344 C345 1.370 1_455 S
C344 C346 1.363 . S
C344 H360 0.931 . S
C345 C344 1.370 1_655 S
C345 C349 1.408 . S
C346 C344 1.363 . S
C346 C347 1.370 1_455 S
C346 C350 1.524 . S
C347 C339 1.503 . S
C347 C346 1.370 1_655 S
C347 C348 1.403 . S
C348 C347 1.403 . S
C348 C349 1.404 . S
C348 C351 1.539 . S
C349 C345 1.408 . S
C349 C348 1.404 . S
C349 H361 0.930 . S
C350 C346 1.524 . S
C350 H362 0.956 . S
C350 H363 0.961 . S
C350 H364 0.961 . S
C351 C348 1.539 . S
C351 H365 0.958 . S
C351 H366 0.961 . S
C351 H367 0.960 . S
H352 C336 0.931 . S
H353 C341 0.929 . S
H354 C342 0.960 . S
H355 C342 0.962 . S
H356 C342 0.960 . S
H357 C343 0.961 . S
H358 C343 0.961 . S
H359 C343 0.961 . S
H360 C344 0.931 . S
H361 C349 0.930 . S
H362 C350 0.956 . S
H363 C350 0.961 . S
H364 C350 0.961 . S
H365 C351 0.958 . S
H366 C351 0.961 . S
H367 C351 0.960 . S
C368 C369 1.391 1_545 S
C368 C370 1.394 . S
C368 H384 0.931 . S
C369 C368 1.391 1_565 S
C369 C373 1.376 . S
C370 C368 1.394 . S
C370 C371 1.369 . S
C370 C374 1.531 . S
C371 C370 1.369 . S
C371 C372 1.410 1_545 S
C371 C379 1.503 . S
C372 C371 1.410 1_565 S
C372 C373 1.392 . S
C372 C375 1.511 . S
C373 C369 1.376 . S
C373 C372 1.392 . S
C373 H385 0.929 . S
C374 C370 1.531 . S
C374 H386 0.960 . S
C374 H387 0.962 . S
C374 H388 0.960 . S
C375 C372 1.511 . S
C375 H389 0.961 . S
C375 H390 0.961 . S
C375 H391 0.961 . S
C376 C377 1.370 1_565 S
C376 C378 1.363 . S
C376 H392 0.931 . S
C377 C376 1.370 1_545 S
C377 C381 1.408 . S
C378 C376 1.363 . S
C378 C379 1.370 1_565 S
C378 C382 1.524 . S
C379 C371 1.503 . S
C379 C378 1.370 1_545 S
C379 C380 1.403 . S
C380 C379 1.403 . S
C380 C381 1.404 . S
C380 C383 1.539 . S
C381 C377 1.408 . S
C381 C380 1.404 . S
C381 H393 0.930 . S
C382 C378 1.524 . S
C382 H394 0.956 . S
C382 H395 0.961 . S
C382 H396 0.961 . S
C383 C380 1.539 . S
C383 H397 0.958 . S
C383 H398 0.961 . S
C383 H399 0.960 . S
H384 C368 0.931 . S
H385 C373 0.929 . S
H386 C374 0.960 . S
H387 C374 0.962 . S
H388 C374 0.960 . S
H389 C375 0.961 . S
H390 C375 0.961 . S
H391 C375 0.961 . S
H392 C376 0.931 . S
H393 C381 0.930 . S
H394 C382 0.956 . S
H395 C382 0.961 . S
H396 C382 0.961 . S
H397 C383 0.958 . S
H398 C383 0.961 . S
H399 C383 0.960 . S
C400 C401 1.391 . S
C400 C402 1.394 . S
C400 H416 0.931 . S
C401 C400 1.391 . S
C401 C405 1.376 1_655 S
C402 C400 1.394 . S
C402 C403 1.369 . S
C402 C406 1.531 . S
C403 C402 1.369 . S
C403 C404 1.410 1_655 S
C403 C411 1.503 1_655 S
C404 C403 1.410 1_455 S
C404 C405 1.392 . S
C404 C407 1.511 . S
C405 C401 1.376 1_455 S
C405 C404 1.392 . S
C405 H417 0.929 . S
C406 C402 1.531 . S
C406 H418 0.960 . S
C406 H419 0.962 . S
C406 H420 0.960 . S
C407 C404 1.511 . S
C407 H421 0.961 . S
C407 H422 0.961 . S
C407 H423 0.961 . S
C408 C409 1.370 . S
C408 C410 1.363 . S
C408 H424 0.931 . S
C409 C408 1.370 . S
C409 C413 1.408 . S
C410 C408 1.363 . S
C410 C411 1.370 . S
C410 C414 1.524 . S
C411 C403 1.503 1_455 S
C411 C410 1.370 . S
C411 C412 1.403 . S
C412 C411 1.403 . S
C412 C413 1.404 . S
C412 C415 1.539 1_455 S
C413 C409 1.408 . S
C413 C412 1.404 . S
C413 H425 0.930 . S
C414 C410 1.524 . S
C414 H426 0.956 1_455 S
C414 H427 0.961 . S
C414 H428 0.961 . S
C415 C412 1.539 1_655 S
C415 H429 0.963 . S
C415 H430 0.959 1_655 S
C415 H431 0.958 1_655 S
H416 C400 0.931 . S
H417 C405 0.929 . S
H418 C406 0.960 . S
H419 C406 0.962 . S
H420 C406 0.960 . S
H421 C407 0.961 . S
H422 C407 0.961 . S
H423 C407 0.961 . S
H424 C408 0.931 . S
H425 C413 0.930 . S
H426 C414 0.956 1_655 S
H427 C414 0.961 . S
H428 C414 0.961 . S
H429 C415 0.963 . S
H430 C415 0.959 1_455 S
H431 C415 0.958 1_455 S
C432 C433 1.391 . S
C432 C434 1.394 . S
C432 H448 0.931 . S
C433 C432 1.391 . S
C433 C437 1.376 1_565 S
C434 C432 1.394 . S
C434 C435 1.382 . S
C434 C438 1.531 . S
C435 C434 1.382 . S
C435 C436 1.398 1_565 S
C435 C443 1.502 1_565 S
C436 C435 1.398 1_545 S
C436 C437 1.392 . S
C436 C439 1.511 . S
C437 C433 1.376 1_545 S
C437 C436 1.392 . S
C437 H449 0.929 . S
C438 C434 1.531 . S
C438 H450 0.960 . S
C438 H451 0.962 . S
C438 H452 0.960 . S
C439 C436 1.511 . S
C439 H453 0.961 . S
C439 H454 0.961 . S
C439 H455 0.961 . S
C440 C441 1.370 . S
C440 C442 1.363 . S
C440 H456 0.931 . S
C441 C440 1.370 . S
C441 C445 1.408 1_545 S
C442 C440 1.363 . S
C442 C443 1.370 . S
C442 C446 1.524 . S
C443 C435 1.502 1_545 S
C443 C442 1.370 . S
C443 C444 1.403 1_545 S
C444 C443 1.403 1_565 S
C444 C445 1.404 . S
C444 C447 1.539 . S
C445 C441 1.408 1_565 S
C445 C444 1.404 . S
C445 H457 0.930 . S
C446 C442 1.524 . S
C446 H458 0.956 . S
C446 H459 0.961 . S
C446 H460 0.961 . S
C447 C444 1.539 . S
C447 H461 0.958 . S
C447 H462 0.961 . S
C447 H463 0.960 . S
H448 C432 0.931 . S
H449 C437 0.929 . S
H450 C438 0.960 . S
H451 C438 0.962 . S
H452 C438 0.960 . S
H453 C439 0.961 . S
H454 C439 0.961 . S
H455 C439 0.961 . S
H456 C440 0.931 . S
H457 C445 0.930 . S
H458 C446 0.956 . S
H459 C446 0.961 . S
H460 C446 0.961 . S
H461 C447 0.958 . S
H462 C447 0.961 . S
H463 C447 0.960 . S
C464 C465 1.391 . S
C464 C466 1.394 . S
C464 H480 0.931 . S
C465 C464 1.391 . S
C465 C469 1.376 1_554 S
C466 C464 1.394 . S
C466 C467 1.369 . S
C466 C470 1.531 . S
C467 C466 1.369 . S
C467 C468 1.410 1_554 S
C467 C475 1.503 . S
C468 C467 1.410 1_556 S
C468 C469 1.392 . S
C468 C471 1.511 . S
C469 C465 1.376 1_556 S
C469 C468 1.392 . S
C469 H481 0.929 . S
C470 C466 1.531 . S
C470 H482 0.960 . S
C470 H483 0.962 . S
C470 H484 0.960 . S
C471 C468 1.511 . S
C471 H485 0.961 . S
C471 H486 0.961 . S
C471 H487 0.961 . S
C472 C473 1.369 1_556 S
C472 C474 1.363 . S
C472 H488 0.932 . S
C473 C472 1.369 1_554 S
C473 C477 1.408 . S
C474 C472 1.363 . S
C474 C475 1.367 1_556 S
C474 C478 1.528 . S
C475 C467 1.503 . S
C475 C474 1.367 1_554 S
C475 C476 1.403 . S
C476 C475 1.403 . S
C476 C477 1.404 . S
C476 C479 1.539 . S
C477 C473 1.408 . S
C477 C476 1.404 . S
C477 H489 0.930 . S
C478 C474 1.528 . S
C478 H490 0.956 1_556 S
C478 H491 0.961 . S
C478 H492 0.961 . S
C479 C476 1.539 . S
C479 H493 0.958 . S
C479 H494 0.961 . S
C479 H495 0.960 . S
H480 C464 0.931 . S
H481 C469 0.929 . S
H482 C470 0.960 . S
H483 C470 0.962 . S
H484 C470 0.960 . S
H485 C471 0.961 . S
H486 C471 0.961 . S
H487 C471 0.961 . S
H488 C472 0.932 . S
H489 C477 0.930 . S
H490 C478 0.956 1_554 S
H491 C478 0.961 . S
H492 C478 0.961 . S
H493 C479 0.958 . S
H494 C479 0.961 . S
H495 C479 0.960 . S
C496 C497 1.388 1_556 S
C496 C498 1.394 . S
C496 H512 0.931 . S
C497 C496 1.388 1_554 S
C497 C501 1.378 . S
C498 C496 1.394 . S
C498 C499 1.369 . S
C498 C502 1.531 . S
C499 C498 1.369 . S
C499 C500 1.410 1_556 S
C499 C507 1.503 . S
C500 C499 1.410 1_554 S
C500 C501 1.392 . S
C500 C503 1.511 . S
C501 C497 1.378 . S
C501 C500 1.392 . S
C501 H513 0.929 . S
C502 C498 1.531 . S
C502 H514 0.960 . S
C502 H515 0.962 1_556 S
C502 H516 0.960 . S
C503 C500 1.511 . S
C503 H517 0.961 . S
C503 H518 0.961 . S
C503 H519 0.961 1_554 S
C504 C505 1.370 . S
C504 C506 1.363 . S
C504 H520 0.931 . S
C505 C504 1.370 . S
C505 C509 1.408 1_554 S
C506 C504 1.363 . S
C506 C507 1.370 1_554 S
C506 C510 1.524 . S
C507 C499 1.503 . S
C507 C506 1.370 1_556 S
C507 C508 1.403 . S
C508 C507 1.403 . S
C508 C509 1.404 . S
C508 C511 1.539 . S
C509 C505 1.408 1_556 S
C509 C508 1.404 . S
C509 H521 0.930 . S
C510 C506 1.524 . S
C510 H522 0.956 . S
C510 H523 0.961 . S
C510 H524 0.961 . S
C511 C508 1.539 . S
C511 H525 0.958 . S
C511 H526 0.961 . S
C511 H527 0.960 . S
H512 C496 0.931 . S
H513 C501 0.929 . S
H514 C502 0.960 . S
H515 C502 0.962 1_554 S
H516 C502 0.960 . S
H517 C503 0.961 . S
H518 C503 0.961 . S
H519 C503 0.961 1_556 S
H520 C504 0.931 . S
H521 C509 0.930 . S
H522 C510 0.956 . S
H523 C510 0.961 . S
H524 C510 0.961 . S
H525 C511 0.958 . S
H526 C511 0.961 . S
H527 C511 0.960 . S
C528 C529 1.384 1_556 S
C528 C530 1.394 . S
C528 H544 0.931 . S
C529 C528 1.384 1_554 S
C529 C533 1.381 . S
C530 C528 1.394 . S
C530 C531 1.369 . S
C530 C534 1.531 . S
C531 C530 1.369 . S
C531 C532 1.410 1_556 S
C531 C539 1.503 . S
C532 C531 1.410 1_554 S
C532 C533 1.392 . S
C532 C535 1.511 . S
C533 C529 1.381 . S
C533 C532 1.392 . S
C533 H545 0.929 . S
C534 C530 1.531 . S
C534 H546 0.960 . S
C534 H547 0.962 . S
C534 H548 0.960 . S
C535 C532 1.511 . S
C535 H549 0.961 . S
C535 H550 0.961 . S
C535 H551 0.961 . S
C536 C537 1.370 . S
C536 C538 1.363 . S
C536 H552 0.931 . S
C537 C536 1.370 . S
C537 C541 1.408 1_554 S
C538 C536 1.363 . S
C538 C539 1.370 1_554 S
C538 C542 1.524 . S
C539 C531 1.503 . S
C539 C538 1.370 1_556 S
C539 C540 1.403 . S
C540 C539 1.403 . S
C540 C541 1.404 . S
C540 C543 1.539 . S
C541 C537 1.408 1_556 S
C541 C540 1.404 . S
C541 H553 0.930 . S
C542 C538 1.524 . S
C542 H554 0.956 . S
C542 H555 0.961 . S
C542 H556 0.961 . S
C543 C540 1.539 . S
C543 H557 0.958 . S
C543 H558 0.961 . S
C543 H559 0.960 . S
H544 C528 0.931 . S
H545 C533 0.929 . S
H546 C534 0.960 . S
H547 C534 0.962 . S
H548 C534 0.960 . S
H549 C535 0.961 . S
H550 C535 0.961 . S
H551 C535 0.961 . S
H552 C536 0.931 . S
H553 C541 0.930 . S
H554 C542 0.956 . S
H555 C542 0.961 . S
H556 C542 0.961 . S
H557 C543 0.958 . S
H558 C543 0.961 . S
H559 C543 0.960 . S
C560 C561 1.391 . S
C560 C562 1.394 . S
C560 H576 0.931 . S
C561 C560 1.391 . S
C561 C565 1.376 1_554 S
C562 C560 1.394 . S
C562 C563 1.369 . S
C562 C566 1.531 . S
C563 C562 1.369 . S
C563 C564 1.410 1_554 S
C563 C571 1.503 . S
C564 C563 1.410 1_556 S
C564 C565 1.392 . S
C564 C567 1.511 . S
C565 C561 1.376 1_556 S
C565 C564 1.392 . S
C565 H577 0.929 . S
C566 C562 1.531 . S
C566 H578 0.960 . S
C566 H579 0.962 . S
C566 H580 0.960 . S
C567 C564 1.511 . S
C567 H581 0.961 . S
C567 H582 0.961 . S
C567 H583 0.961 . S
C568 C569 1.370 1_556 S
C568 C570 1.363 . S
C568 H584 0.931 . S
C569 C568 1.370 1_554 S
C569 C573 1.408 . S
C570 C568 1.363 . S
C570 C571 1.370 1_556 S
C570 C574 1.524 . S
C571 C563 1.503 . S
C571 C570 1.370 1_554 S
C571 C572 1.403 . S
C572 C571 1.403 . S
C572 C573 1.404 . S
C572 C575 1.539 . S
C573 C569 1.408 . S
C573 C572 1.404 . S
C573 H585 0.930 . S
C574 C570 1.524 . S
C574 H586 0.956 . S
C574 H587 0.961 . S
C574 H588 0.961 . S
C575 C572 1.539 . S
C575 H589 0.958 . S
C575 H590 0.961 . S
C575 H591 0.960 . S
H576 C560 0.931 . S
H577 C565 0.929 . S
H578 C566 0.960 . S
H579 C566 0.962 . S
H580 C566 0.960 . S
H581 C567 0.961 . S
H582 C567 0.961 . S
H583 C567 0.961 . S
H584 C568 0.931 . S
H585 C573 0.930 . S
H586 C574 0.956 . S
H587 C574 0.961 . S
H588 C574 0.961 . S
H589 C575 0.958 . S
H590 C575 0.961 . S
H591 C575 0.960 . S
C592 C593 1.391 . S
C592 C594 1.394 . S
C592 H608 0.931 . S
C593 C592 1.391 . S
C593 C597 1.376 . S
C594 C592 1.394 . S
C594 C595 1.369 . S
C594 C598 1.531 . S
C595 C594 1.369 . S
C595 C596 1.410 . S
C595 C603 1.503 . S
C596 C595 1.410 . S
C596 C597 1.392 . S
C596 C599 1.511 . S
C597 C593 1.376 . S
C597 C596 1.392 . S
C597 H609 0.929 . S
C598 C594 1.531 . S
C598 H610 0.960 . S
C598 H611 0.962 . S
C598 H612 0.960 . S
C599 C596 1.511 . S
C599 H613 0.961 . S
C599 H614 0.961 . S
C599 H615 0.961 . S
C600 C601 1.370 . S
C600 C602 1.363 . S
C600 H616 0.931 . S
C601 C600 1.370 . S
C601 C605 1.408 . S
C602 C600 1.363 . S
C602 C603 1.370 . S
C602 C606 1.524 . S
C603 C595 1.503 . S
C603 C602 1.370 . S
C603 C604 1.403 . S
C604 C603 1.403 . S
C604 C605 1.404 . S
C604 C607 1.539 . S
C605 C601 1.408 . S
C605 C604 1.404 . S
C605 H617 0.930 . S
C606 C602 1.524 . S
C606 H618 0.956 . S
C606 H619 0.961 . S
C606 H620 0.961 . S
C607 C604 1.539 . S
C607 H621 0.958 . S
C607 H622 0.961 . S
C607 H623 0.960 . S
H608 C592 0.931 . S
H609 C597 0.929 . S
H610 C598 0.960 . S
H611 C598 0.962 . S
H612 C598 0.960 . S
H613 C599 0.961 . S
H614 C599 0.961 . S
H615 C599 0.961 . S
H616 C600 0.931 . S
H617 C605 0.930 . S
H618 C606 0.956 . S
H619 C606 0.961 . S
H620 C606 0.961 . S
H621 C607 0.958 . S
H622 C607 0.961 . S
H623 C607 0.960 . S
C624 C625 1.391 . S
C624 C626 1.394 . S
C624 H640 0.931 . S
C625 C624 1.391 . S
C625 C629 1.376 . S
C626 C624 1.394 . S
C626 C627 1.369 . S
C626 C630 1.531 . S
C627 C626 1.369 . S
C627 C628 1.410 . S
C627 C635 1.503 . S
C628 C627 1.410 . S
C628 C629 1.392 . S
C628 C631 1.511 . S
C629 C625 1.376 . S
C629 C628 1.392 . S
C629 H641 0.929 . S
C630 C626 1.531 . S
C630 H642 0.960 . S
C630 H643 0.962 . S
C630 H644 0.960 . S
C631 C628 1.511 . S
C631 H645 0.961 . S
C631 H646 0.961 . S
C631 H647 0.961 . S
C632 C633 1.370 . S
C632 C634 1.363 . S
C632 H648 0.931 . S
C633 C632 1.370 . S
C633 C637 1.408 . S
C634 C632 1.363 . S
C634 C635 1.370 . S
C634 C638 1.524 . S
C635 C627 1.503 . S
C635 C634 1.370 . S
C635 C636 1.403 . S
C636 C635 1.403 . S
C636 C637 1.404 . S
C636 C639 1.539 . S
C637 C633 1.408 . S
C637 C636 1.404 . S
C637 H649 0.930 . S
C638 C634 1.524 . S
C638 H650 0.956 . S
C638 H651 0.961 . S
C638 H652 0.961 . S
C639 C636 1.539 . S
C639 H653 0.958 . S
C639 H654 0.961 . S
C639 H655 0.960 . S
H640 C624 0.931 . S
H641 C629 0.929 . S
H642 C630 0.960 . S
H643 C630 0.962 . S
H644 C630 0.960 . S
H645 C631 0.961 . S
H646 C631 0.961 . S
H647 C631 0.961 . S
H648 C632 0.931 . S
H649 C637 0.930 . S
H650 C638 0.956 . S
H651 C638 0.961 . S
H652 C638 0.961 . S
H653 C639 0.958 . S
H654 C639 0.961 . S
H655 C639 0.960 . S
C656 C657 1.391 . S
C656 C658 1.394 . S
C656 H672 0.931 . S
C657 C656 1.391 . S
C657 C661 1.376 . S
C658 C656 1.394 . S
C658 C659 1.369 . S
C658 C662 1.531 . S
C659 C658 1.369 . S
C659 C660 1.410 . S
C659 C667 1.503 . S
C660 C659 1.410 . S
C660 C661 1.392 . S
C660 C663 1.511 . S
C661 C657 1.376 . S
C661 C660 1.392 . S
C661 H673 0.929 . S
C662 C658 1.531 . S
C662 H674 0.960 . S
C662 H675 0.962 . S
C662 H676 0.960 . S
C663 C660 1.511 . S
C663 H677 0.961 . S
C663 H678 0.961 . S
C663 H679 0.961 . S
C664 C665 1.370 . S
C664 C666 1.363 . S
C664 H680 0.931 . S
C665 C664 1.370 . S
C665 C669 1.408 . S
C666 C664 1.363 . S
C666 C667 1.370 . S
C666 C670 1.524 . S
C667 C659 1.503 . S
C667 C666 1.370 . S
C667 C668 1.403 . S
C668 C667 1.403 . S
C668 C669 1.404 . S
C668 C671 1.539 . S
C669 C665 1.408 . S
C669 C668 1.404 . S
C669 H681 0.930 . S
C670 C666 1.524 . S
C670 H682 0.956 . S
C670 H683 0.961 . S
C670 H684 0.961 . S
C671 C668 1.539 . S
C671 H685 0.958 . S
C671 H686 0.961 . S
C671 H687 0.960 . S
H672 C656 0.931 . S
H673 C661 0.929 . S
H674 C662 0.960 . S
H675 C662 0.962 . S
H676 C662 0.960 . S
H677 C663 0.961 . S
H678 C663 0.961 . S
H679 C663 0.961 . S
H680 C664 0.931 . S
H681 C669 0.930 . S
H682 C670 0.956 . S
H683 C670 0.961 . S
H684 C670 0.961 . S
H685 C671 0.958 . S
H686 C671 0.961 . S
H687 C671 0.960 . S
C688 C689 1.391 . S
C688 C690 1.394 . S
C688 H704 0.931 . S
C689 C688 1.391 . S
C689 C693 1.376 . S
C690 C688 1.394 . S
C690 C691 1.369 . S
C690 C694 1.531 . S
C691 C690 1.369 . S
C691 C692 1.410 . S
C691 C699 1.503 . S
C692 C691 1.410 . S
C692 C693 1.392 . S
C692 C695 1.511 . S
C693 C689 1.376 . S
C693 C692 1.392 . S
C693 H705 0.929 . S
C694 C690 1.531 . S
C694 H706 0.960 . S
C694 H707 0.962 . S
C694 H708 0.960 . S
C695 C692 1.511 . S
C695 H709 0.961 . S
C695 H710 0.961 . S
C695 H711 0.961 . S
C696 C697 1.370 . S
C696 C698 1.363 . S
C696 H712 0.931 . S
C697 C696 1.370 . S
C697 C701 1.408 . S
C698 C696 1.363 . S
C698 C699 1.370 . S
C698 C702 1.524 . S
C699 C691 1.503 . S
C699 C698 1.370 . S
C699 C700 1.403 . S
C700 C699 1.403 . S
C700 C701 1.404 . S
C700 C703 1.539 . S
C701 C697 1.408 . S
C701 C700 1.404 . S
C701 H713 0.930 . S
C702 C698 1.524 . S
C702 H714 0.956 . S
C702 H715 0.961 . S
C702 H716 0.961 . S
C703 C700 1.539 . S
C703 H717 0.958 . S
C703 H718 0.961 . S
C703 H719 0.960 . S
H704 C688 0.931 . S
H705 C693 0.929 . S
H706 C694 0.960 . S
H707 C694 0.962 . S
H708 C694 0.960 . S
H709 C695 0.961 . S
H710 C695 0.961 . S
H711 C695 0.961 . S
H712 C696 0.931 . S
H713 C701 0.930 . S
H714 C702 0.956 . S
H715 C702 0.961 . S
H716 C702 0.961 . S
H717 C703 0.958 . S
H718 C703 0.961 . S
H719 C703 0.960 . S
C720 C721 1.391 . S
C720 C722 1.394 . S
C720 H736 0.931 . S
C721 C720 1.391 . S
C721 C725 1.376 . S
C722 C720 1.394 . S
C722 C723 1.369 . S
C722 C726 1.531 . S
C723 C722 1.369 . S
C723 C724 1.410 . S
C723 C731 1.503 . S
C724 C723 1.410 . S
C724 C725 1.392 . S
C724 C727 1.511 . S
C725 C721 1.376 . S
C725 C724 1.392 . S
C725 H737 0.929 . S
C726 C722 1.531 . S
C726 H738 0.960 . S
C726 H739 0.962 . S
C726 H740 0.960 . S
C727 C724 1.511 . S
C727 H741 0.961 . S
C727 H742 0.961 . S
C727 H743 0.961 . S
C728 C729 1.370 . S
C728 C730 1.363 . S
C728 H744 0.931 . S
C729 C728 1.370 . S
C729 C733 1.408 . S
C730 C728 1.363 . S
C730 C731 1.370 . S
C730 C734 1.524 . S
C731 C723 1.503 . S
C731 C730 1.370 . S
C731 C732 1.403 . S
C732 C731 1.403 . S
C732 C733 1.404 . S
C732 C735 1.539 . S
C733 C729 1.408 . S
C733 C732 1.404 . S
C733 H745 0.930 . S
C734 C730 1.524 . S
C734 H746 0.956 . S
C734 H747 0.961 . S
C734 H748 0.961 . S
C735 C732 1.539 . S
C735 H749 0.958 . S
C735 H750 0.961 . S
C735 H751 0.960 . S
H736 C720 0.931 . S
H737 C725 0.929 . S
H738 C726 0.960 . S
H739 C726 0.962 . S
H740 C726 0.960 . S
H741 C727 0.961 . S
H742 C727 0.961 . S
H743 C727 0.961 . S
H744 C728 0.931 . S
H745 C733 0.930 . S
H746 C734 0.956 . S
H747 C734 0.961 . S
H748 C734 0.961 . S
H749 C735 0.958 . S
H750 C735 0.961 . S
H751 C735 0.960 . S
C752 C753 1.391 . S
C752 C754 1.394 . S
C752 H768 0.931 . S
C753 C752 1.391 . S
C753 C757 1.376 . S
C754 C752 1.394 . S
C754 C755 1.369 . S
C754 C758 1.531 . S
C755 C754 1.369 . S
C755 C756 1.410 . S
C755 C763 1.503 . S
C756 C755 1.410 . S
C756 C757 1.392 . S
C756 C759 1.511 . S
C757 C753 1.376 . S
C757 C756 1.392 . S
C757 H769 0.929 . S
C758 C754 1.531 . S
C758 H770 0.960 . S
C758 H771 0.962 . S
C758 H772 0.960 . S
C759 C756 1.511 . S
C759 H773 0.961 . S
C759 H774 0.961 . S
C759 H775 0.961 . S
C760 C761 1.370 . S
C760 C762 1.363 . S
C760 H776 0.931 . S
C761 C760 1.370 . S
C761 C765 1.408 . S
C762 C760 1.363 . S
C762 C763 1.370 . S
C762 C766 1.524 . S
C763 C755 1.503 . S
C763 C762 1.370 . S
C763 C764 1.403 . S
C764 C763 1.403 . S
C764 C765 1.404 . S
C764 C767 1.539 . S
C765 C761 1.408 . S
C765 C764 1.404 . S
C765 H777 0.930 . S
C766 C762 1.524 . S
C766 H778 0.956 . S
C766 H779 0.961 . S
C766 H780 0.961 . S
C767 C764 1.539 . S
C767 H781 0.958 . S
C767 H782 0.961 . S
C767 H783 0.960 . S
H768 C752 0.931 . S
H769 C757 0.929 . S
H770 C758 0.960 . S
H771 C758 0.962 . S
H772 C758 0.960 . S
H773 C759 0.961 . S
H774 C759 0.961 . S
H775 C759 0.961 . S
H776 C760 0.931 . S
H777 C765 0.930 . S
H778 C766 0.956 . S
H779 C766 0.961 . S
H780 C766 0.961 . S
H781 C767 0.958 . S
H782 C767 0.961 . S
H783 C767 0.960 . S
C784 C785 1.391 . S
C784 C786 1.394 . S
C784 H800 0.931 . S
C785 C784 1.391 . S
C785 C789 1.376 . S
C786 C784 1.394 . S
C786 C787 1.369 . S
C786 C790 1.531 . S
C787 C786 1.369 . S
C787 C788 1.410 . S
C787 C795 1.503 . S
C788 C787 1.410 . S
C788 C789 1.392 . S
C788 C791 1.511 . S
C789 C785 1.376 . S
C789 C788 1.392 . S
C789 H801 0.929 . S
C790 C786 1.531 . S
C790 H802 0.960 . S
C790 H803 0.962 . S
C790 H804 0.960 . S
C791 C788 1.511 . S
C791 H805 0.961 . S
C791 H806 0.961 . S
C791 H807 0.961 . S
C792 C793 1.370 . S
C792 C794 1.363 . S
C792 H808 0.931 . S
C793 C792 1.370 . S
C793 C797 1.408 . S
C794 C792 1.363 . S
C794 C795 1.370 . S
C794 C798 1.524 . S
C795 C787 1.503 . S
C795 C794 1.370 . S
C795 C796 1.403 . S
C796 C795 1.403 . S
C796 C797 1.404 . S
C796 C799 1.539 . S
C797 C793 1.408 . S
C797 C796 1.404 . S
C797 H809 0.930 . S
C798 C794 1.524 . S
C798 H810 0.956 . S
C798 H811 0.961 . S
C798 H812 0.961 . S
C799 C796 1.539 . S
C799 H813 0.958 . S
C799 H814 0.961 . S
C799 H815 0.960 . S
H800 C784 0.931 . S
H801 C789 0.929 . S
H802 C790 0.960 . S
H803 C790 0.962 . S
H804 C790 0.960 . S
H805 C791 0.961 . S
H806 C791 0.961 . S
H807 C791 0.961 . S
H808 C792 0.931 . S
H809 C797 0.930 . S
H810 C798 0.956 . S
H811 C798 0.961 . S
H812 C798 0.961 . S
H813 C799 0.958 . S
H814 C799 0.961 . S
H815 C799 0.960 . S
C816 C817 1.391 . S
C816 C818 1.394 . S
C816 H832 0.931 . S
C817 C816 1.391 . S
C817 C821 1.376 . S
C818 C816 1.394 . S
C818 C819 1.369 . S
C818 C822 1.531 . S
C819 C818 1.369 . S
C819 C820 1.410 . S
C819 C827 1.503 . S
C820 C819 1.410 . S
C820 C821 1.392 . S
C820 C823 1.511 . S
C821 C817 1.376 . S
C821 C820 1.392 . S
C821 H833 0.929 . S
C822 C818 1.531 . S
C822 H834 0.960 . S
C822 H835 0.962 . S
C822 H836 0.960 . S
C823 C820 1.511 . S
C823 H837 0.961 . S
C823 H838 0.961 . S
C823 H839 0.961 . S
C824 C825 1.370 . S
C824 C826 1.363 . S
C824 H840 0.931 . S
C825 C824 1.370 . S
C825 C829 1.408 . S
C826 C824 1.363 . S
C826 C827 1.370 . S
C826 C830 1.524 . S
C827 C819 1.503 . S
C827 C826 1.370 . S
C827 C828 1.403 . S
C828 C827 1.403 . S
C828 C829 1.404 . S
C828 C831 1.539 . S
C829 C825 1.408 . S
C829 C828 1.404 . S
C829 H841 0.930 . S
C830 C826 1.524 . S
C830 H842 0.956 . S
C830 H843 0.961 . S
C830 H844 0.961 . S
C831 C828 1.539 . S
C831 H845 0.958 . S
C831 H846 0.961 . S
C831 H847 0.960 . S
H832 C816 0.931 . S
H833 C821 0.929 . S
H834 C822 0.960 . S
H835 C822 0.962 . S
H836 C822 0.960 . S
H837 C823 0.961 . S
H838 C823 0.961 . S
H839 C823 0.961 . S
H840 C824 0.931 . S
H841 C829 0.930 . S
H842 C830 0.956 . S
H843 C830 0.961 . S
H844 C830 0.961 . S
H845 C831 0.958 . S
H846 C831 0.961 . S
H847 C831 0.960 . S
C848 C849 1.391 . S
C848 C850 1.394 . S
C848 H864 0.931 . S
C849 C848 1.391 . S
C849 C853 1.376 . S
C850 C848 1.394 . S
C850 C851 1.369 . S
C850 C854 1.531 . S
C851 C850 1.369 . S
C851 C852 1.410 . S
C851 C859 1.503 . S
C852 C851 1.410 . S
C852 C853 1.392 . S
C852 C855 1.511 . S
C853 C849 1.376 . S
C853 C852 1.392 . S
C853 H865 0.929 . S
C854 C850 1.531 . S
C854 H866 0.960 . S
C854 H867 0.962 . S
C854 H868 0.960 . S
C855 C852 1.511 . S
C855 H869 0.961 . S
C855 H870 0.961 . S
C855 H871 0.961 . S
C856 C857 1.370 . S
C856 C858 1.363 . S
C856 H872 0.931 . S
C857 C856 1.370 . S
C857 C861 1.408 . S
C858 C856 1.363 . S
C858 C859 1.370 . S
C858 C862 1.524 . S
C859 C851 1.503 . S
C859 C858 1.370 . S
C859 C860 1.403 . S
C860 C859 1.403 . S
C860 C861 1.404 . S
C860 C863 1.539 . S
C861 C857 1.408 . S
C861 C860 1.404 . S
C861 H873 0.930 . S
C862 C858 1.524 . S
C862 H874 0.956 . S
C862 H875 0.961 . S
C862 H876 0.961 . S
C863 C860 1.539 . S
C863 H877 0.958 . S
C863 H878 0.961 . S
C863 H879 0.960 . S
H864 C848 0.931 . S
H865 C853 0.929 . S
H866 C854 0.960 . S
H867 C854 0.962 . S
H868 C854 0.960 . S
H869 C855 0.961 . S
H870 C855 0.961 . S
H871 C855 0.961 . S
H872 C856 0.931 . S
H873 C861 0.930 . S
H874 C862 0.956 . S
H875 C862 0.961 . S
H876 C862 0.961 . S
H877 C863 0.958 . S
H878 C863 0.961 . S
H879 C863 0.960 . S
C880 C881 1.391 . S
C880 C882 1.394 . S
C880 H896 0.931 . S
C881 C880 1.391 . S
C881 C885 1.376 . S
C882 C880 1.394 . S
C882 C883 1.369 . S
C882 C886 1.531 . S
C883 C882 1.369 . S
C883 C884 1.410 . S
C883 C891 1.503 . S
C884 C883 1.410 . S
C884 C885 1.392 . S
C884 C887 1.511 . S
C885 C881 1.376 . S
C885 C884 1.392 . S
C885 H897 0.929 . S
C886 C882 1.531 . S
C886 H898 0.960 . S
C886 H899 0.962 . S
C886 H900 0.960 . S
C887 C884 1.511 . S
C887 H901 0.961 . S
C887 H902 0.961 . S
C887 H903 0.961 . S
C888 C889 1.370 . S
C888 C890 1.363 . S
C888 H904 0.931 . S
C889 C888 1.370 . S
C889 C893 1.408 . S
C890 C888 1.363 . S
C890 C891 1.370 . S
C890 C894 1.524 . S
C891 C883 1.503 . S
C891 C890 1.370 . S
C891 C892 1.403 . S
C892 C891 1.403 . S
C892 C893 1.404 . S
C892 C895 1.539 . S
C893 C889 1.408 . S
C893 C892 1.404 . S
C893 H905 0.930 . S
C894 C890 1.524 . S
C894 H906 0.956 . S
C894 H907 0.961 . S
C894 H908 0.961 . S
C895 C892 1.539 . S
C895 H909 0.958 . S
C895 H910 0.961 . S
C895 H911 0.960 . S
H896 C880 0.931 . S
H897 C885 0.929 . S
H898 C886 0.960 . S
H899 C886 0.962 . S
H900 C886 0.960 . S
H901 C887 0.961 . S
H902 C887 0.961 . S
H903 C887 0.961 . S
H904 C888 0.931 . S
H905 C893 0.930 . S
H906 C894 0.956 . S
H907 C894 0.961 . S
H908 C894 0.961 . S
H909 C895 0.958 . S
H910 C895 0.961 . S
H911 C895 0.960 . S
C912 C913 1.391 . S
C912 C914 1.394 . S
C912 H928 0.931 . S
C913 C912 1.391 . S
C913 C917 1.376 . S
C914 C912 1.394 . S
C914 C915 1.369 . S
C914 C918 1.531 . S
C915 C914 1.369 . S
C915 C916 1.410 . S
C915 C923 1.503 . S
C916 C915 1.410 . S
C916 C917 1.392 . S
C916 C919 1.511 . S
C917 C913 1.376 . S
C917 C916 1.392 . S
C917 H929 0.929 . S
C918 C914 1.531 . S
C918 H930 0.960 . S
C918 H931 0.962 . S
C918 H932 0.960 . S
C919 C916 1.511 . S
C919 H933 0.961 . S
C919 H934 0.961 . S
C919 H935 0.961 . S
C920 C921 1.370 . S
C920 C922 1.363 . S
C920 H936 0.931 . S
C921 C920 1.370 . S
C921 C925 1.408 . S
C922 C920 1.363 . S
C922 C923 1.370 . S
C922 C926 1.524 . S
C923 C915 1.503 . S
C923 C922 1.370 . S
C923 C924 1.403 . S
C924 C923 1.403 . S
C924 C925 1.404 . S
C924 C927 1.539 . S
C925 C921 1.408 . S
C925 C924 1.404 . S
C925 H937 0.930 . S
C926 C922 1.524 . S
C926 H938 0.956 . S
C926 H939 0.961 . S
C926 H940 0.961 . S
C927 C924 1.539 . S
C927 H941 0.958 . S
C927 H942 0.961 . S
C927 H943 0.960 . S
H928 C912 0.931 . S
H929 C917 0.929 . S
H930 C918 0.960 . S
H931 C918 0.962 . S
H932 C918 0.960 . S
H933 C919 0.961 . S
H934 C919 0.961 . S
H935 C919 0.961 . S
H936 C920 0.931 . S
H937 C925 0.930 . S
H938 C926 0.956 . S
H939 C926 0.961 . S
H940 C926 0.961 . S
H941 C927 0.958 . S
H942 C927 0.961 . S
H943 C927 0.960 . S
C944 C945 1.391 . S
C944 C946 1.394 . S
C944 H960 0.931 . S
C945 C944 1.391 . S
C945 C949 1.376 . S
C946 C944 1.394 . S
C946 C947 1.369 . S
C946 C950 1.531 . S
C947 C946 1.369 . S
C947 C948 1.410 . S
C947 C955 1.503 . S
C948 C947 1.410 . S
C948 C949 1.392 . S
C948 C951 1.511 . S
C949 C945 1.376 . S
C949 C948 1.392 . S
C949 H961 0.929 . S
C950 C946 1.531 . S
C950 H962 0.960 . S
C950 H963 0.962 . S
C950 H964 0.960 . S
C951 C948 1.511 . S
C951 H965 0.961 . S
C951 H966 0.961 . S
C951 H967 0.961 . S
C952 C953 1.370 . S
C952 C954 1.363 . S
C952 H968 0.931 . S
C953 C952 1.370 . S
C953 C957 1.408 . S
C954 C952 1.363 . S
C954 C955 1.370 . S
C954 C958 1.524 . S
C955 C947 1.503 . S
C955 C954 1.370 . S
C955 C956 1.403 . S
C956 C955 1.403 . S
C956 C957 1.404 . S
C956 C959 1.539 . S
C957 C953 1.408 . S
C957 C956 1.404 . S
C957 H969 0.930 . S
C958 C954 1.524 . S
C958 H970 0.956 . S
C958 H971 0.961 . S
C958 H972 0.961 . S
C959 C956 1.539 . S
C959 H973 0.958 . S
C959 H974 0.961 . S
C959 H975 0.960 . S
H960 C944 0.931 . S
H961 C949 0.929 . S
H962 C950 0.960 . S
H963 C950 0.962 . S
H964 C950 0.960 . S
H965 C951 0.961 . S
H966 C951 0.961 . S
H967 C951 0.961 . S
H968 C952 0.931 . S
H969 C957 0.930 . S
H970 C958 0.956 . S
H971 C958 0.961 . S
H972 C958 0.961 . S
H973 C959 0.958 . S
H974 C959 0.961 . S
H975 C959 0.960 . S
C209 C42 1.901 . S
C217 C102 1.850 . S
C241 C26 1.706 . S
C249 C152 1.743 1_565 S
C273 C36 1.797 1_655 S
C281 C78 1.767 1_455 S
C305 C154 1.695 . S
C313 C32 1.762 1_565 S
C337 C4 1.844 . S
C345 C84 1.841 1_655 S
C369 C48 1.676 1_565 S
C377 C130 1.746 . S
C401 C100 1.915 . S
C409 C18 1.920 . S
C433 C136 1.722 1_565 S
C441 C50 1.730 . S
C465 C201 0.769 . S
C473 C34 0.738 . S
C497 C186 0.696 . S
C505 C39 0.694 . S
C529 C190 0.703 . S
C537 C45 0.704 . S
C561 C30 0.680 . S
C569 C195 0.692 . S
C593 C188 1.271 . S
C601 C91 1.289 . S
C625 C86 1.289 . S
C633 C182 1.292 . S
C657 C97 1.375 . S
C665 C206 1.306 . S
C689 C204 1.298 . S
C697 C82 1.377 . S
C721 C134 1.116 . S
C729 C94 1.118 . S
C753 C70 1.129 . S
C761 C149 1.198 . S
C785 C88 1.119 . S
C793 C143 1.114 . S
C817 C138 1.235 . S
C825 C56 1.178 . S
C849 C198 1.736 . S
C857 C146 1.762 . S
C881 C140 1.719 . S
C889 C192 1.750 . S
C913 C160 1.914 . S
C921 C108 1.886 . S
C945 C122 1.933 . S
C953 C174 1.918 . S
