# Generated by pormake.
# Topology gsi, (4)-cn, num edge types: 1
# Building blocks:
#     Node 0, Type 0, BuildingBlock: NAHDIM_clean_sbu_0, # of connection points: 4
#     Node 1, Type 0, BuildingBlock: NAHDIM_clean_sbu_0, # of connection points: 4
#     Node 2, Type 0, BuildingBlock: NAHDIM_clean_sbu_0, # of connection points: 4
#     Node 3, Type 0, BuildingBlock: NAHDIM_clean_sbu_0, # of connection points: 4
#     Node 4, Type 0, BuildingBlock: NAHDIM_clean_sbu_0, # of connection points: 4
#     Node 5, Type 0, BuildingBlock: NAHDIM_clean_sbu_0, # of connection points: 4
#     Node 6, Type 0, BuildingBlock: NAHDIM_clean_sbu_0, # of connection points: 4
#     Node 7, Type 0, BuildingBlock: NAHDIM_clean_sbu_0, # of connection points: 4
#     Node 8, Type 0, BuildingBlock: NAHDIM_clean_sbu_0, # of connection points: 4
#     Node 9, Type 0, BuildingBlock: NAHDIM_clean_sbu_0, # of connection points: 4
#     Node 10, Type 0, BuildingBlock: NAHDIM_clean_sbu_0, # of connection points: 4
#     Node 11, Type 0, BuildingBlock: NAHDIM_clean_sbu_0, # of connection points: 4
#     Node 12, Type 0, BuildingBlock: NAHDIM_clean_sbu_0, # of connection points: 4
#     Node 13, Type 0, BuildingBlock: NAHDIM_clean_sbu_0, # of connection points: 4
#     Node 14, Type 0, BuildingBlock: NAHDIM_clean_sbu_0, # of connection points: 4
#     Node 15, Type 0, BuildingBlock: NAHDIM_clean_sbu_0, # of connection points: 4
#     Edge 16, Type (0, 0), BuildingBlock: CIFDUS_clean_linker_0, # of connection points: 2
#     Edge 17, Type (0, 0), BuildingBlock: CIFDUS_clean_linker_0, # of connection points: 2
#     Edge 18, Type (0, 0), BuildingBlock: CIFDUS_clean_linker_0, # of connection points: 2
#     Edge 19, Type (0, 0), BuildingBlock: CIFDUS_clean_linker_0, # of connection points: 2
#     Edge 20, Type (0, 0), BuildingBlock: CIFDUS_clean_linker_0, # of connection points: 2
#     Edge 21, Type (0, 0), BuildingBlock: CIFDUS_clean_linker_0, # of connection points: 2
#     Edge 22, Type (0, 0), BuildingBlock: CIFDUS_clean_linker_0, # of connection points: 2
#     Edge 23, Type (0, 0), BuildingBlock: CIFDUS_clean_linker_0, # of connection points: 2
#     Edge 24, Type (0, 0), BuildingBlock: CIFDUS_clean_linker_0, # of connection points: 2
#     Edge 25, Type (0, 0), BuildingBlock: CIFDUS_clean_linker_0, # of connection points: 2
#     Edge 26, Type (0, 0), BuildingBlock: CIFDUS_clean_linker_0, # of connection points: 2
#     Edge 27, Type (0, 0), BuildingBlock: CIFDUS_clean_linker_0, # of connection points: 2
#     Edge 28, Type (0, 0), BuildingBlock: CIFDUS_clean_linker_0, # of connection points: 2
#     Edge 29, Type (0, 0), BuildingBlock: CIFDUS_clean_linker_0, # of connection points: 2
#     Edge 30, Type (0, 0), BuildingBlock: CIFDUS_clean_linker_0, # of connection points: 2
#     Edge 31, Type (0, 0), BuildingBlock: CIFDUS_clean_linker_0, # of connection points: 2
#     Edge 32, Type (0, 0), BuildingBlock: CIFDUS_clean_linker_0, # of connection points: 2
#     Edge 33, Type (0, 0), BuildingBlock: CIFDUS_clean_linker_0, # of connection points: 2
#     Edge 34, Type (0, 0), BuildingBlock: CIFDUS_clean_linker_0, # of connection points: 2
#     Edge 35, Type (0, 0), BuildingBlock: CIFDUS_clean_linker_0, # of connection points: 2
#     Edge 36, Type (0, 0), BuildingBlock: CIFDUS_clean_linker_0, # of connection points: 2
#     Edge 37, Type (0, 0), BuildingBlock: CIFDUS_clean_linker_0, # of connection points: 2
#     Edge 38, Type (0, 0), BuildingBlock: CIFDUS_clean_linker_0, # of connection points: 2
#     Edge 39, Type (0, 0), BuildingBlock: CIFDUS_clean_linker_0, # of connection points: 2
#     Edge 40, Type (0, 0), BuildingBlock: CIFDUS_clean_linker_0, # of connection points: 2
#     Edge 41, Type (0, 0), BuildingBlock: CIFDUS_clean_linker_0, # of connection points: 2
#     Edge 42, Type (0, 0), BuildingBlock: CIFDUS_clean_linker_0, # of connection points: 2
#     Edge 43, Type (0, 0), BuildingBlock: CIFDUS_clean_linker_0, # of connection points: 2
#     Edge 44, Type (0, 0), BuildingBlock: CIFDUS_clean_linker_0, # of connection points: 2
#     Edge 45, Type (0, 0), BuildingBlock: CIFDUS_clean_linker_0, # of connection points: 2
#     Edge 46, Type (0, 0), BuildingBlock: CIFDUS_clean_linker_0, # of connection points: 2
#     Edge 47, Type (0, 0), BuildingBlock: CIFDUS_clean_linker_0, # of connection points: 2
# Relax obj value: 0.050
# Max RMSD: 0.060
# Mean RMSD: 0.054
data_MOF--net-gsi--node1-NAHDIM_clean_sbu_0--edge1-CIFDUS_clean_linker_0
_symmetry_space_group_name_H-M    P1
_symmetry_Int_Tables_number       1
_symmetry_cell_setting            triclinic
loop_
_symmetry_equiv_pos_as_xyz
'x, y, z'
_cell_length_a     36.529843
_cell_length_b     37.557997
_cell_length_c     37.570753
_cell_angle_alpha  89.959314
_cell_angle_beta   89.841246
_cell_angle_gamma 95.259681
loop_
_atom_site_label
_atom_site_type_symbol
_atom_site_fract_x
_atom_site_fract_y
_atom_site_fract_z
_atom_type_partial_charge
C0 C 0.10286 0.20049 0.13388 0.0
O1 O 0.13632 0.21612 0.13004 0.0
O2 O 0.17166 0.13898 0.09558 0.0
Zn3 Zn 0.14543 0.14148 0.14303 0.0
O4 O 0.18015 0.17121 0.17455 0.0
C5 C 0.11225 0.06868 0.16308 0.0
O6 O 0.08743 0.07233 0.13842 0.0
O7 O 0.09877 0.16683 0.13899 0.0
C8 C 0.21371 0.16486 0.17522 0.0
O9 O 0.22459 0.13918 0.15515 0.0
C10 C 0.17577 0.11133 0.077 0.0
O11 O 0.15993 0.08018 0.08723 0.0
O12 O 0.13761 0.09364 0.16798 0.0
C13 C 0.91369 0.29271 0.14466 0.0
O14 O 0.8799 0.27733 0.14469 0.0
O15 O 0.85382 0.36303 0.10084 0.0
Zn16 Zn 0.87413 0.35529 0.1502 0.0
O17 O 0.8351 0.32765 0.18002 0.0
C18 C 0.88831 0.43296 0.16122 0.0
O19 O 0.88653 0.43532 0.12639 0.0
O20 O 0.91866 0.32666 0.14674 0.0
C21 C 0.81419 0.34408 0.20015 0.0
O22 O 0.81767 0.37919 0.20066 0.0
C23 C 0.82072 0.36996 0.09601 0.0
O24 O 0.79932 0.37296 0.12378 0.0
O25 O 0.88613 0.40229 0.17578 0.0
C26 C 0.13069 0.9079 0.30003 0.0
O27 O 0.1107 0.87883 0.28987 0.0
O28 O 0.09854 0.83855 0.36331 0.0
Zn29 Zn 0.15097 0.85834 0.35186 0.0
O30 O 0.17131 0.82474 0.31673 0.0
C31 C 0.1883 0.82982 0.40998 0.0
O32 O 0.1736 0.8007 0.39436 0.0
O33 O 0.15075 0.90645 0.32757 0.0
C34 C 0.20525 0.82053 0.31353 0.0
O35 O 0.22929 0.84 0.33298 0.0
C36 C 0.08949 0.80525 0.35921 0.0
O37 O 0.11438 0.78464 0.34823 0.0
O38 O 0.18247 0.86 0.39675 0.0
C39 C 0.8575 0.58785 0.30091 0.0
O40 O 0.86787 0.61958 0.28763 0.0
O41 O 0.88805 0.65719 0.36335 0.0
Zn42 Zn 0.83706 0.63321 0.3558 0.0
O43 O 0.81077 0.66379 0.32207 0.0
C44 C 0.82628 0.62527 0.43186 0.0
O45 O 0.86215 0.62439 0.43116 0.0
O46 O 0.84247 0.58591 0.33155 0.0
C47 C 0.78713 0.68445 0.33221 0.0
O48 O 0.77877 0.68594 0.36617 0.0
C49 C 0.89475 0.69054 0.36889 0.0
O50 O 0.86726 0.71066 0.37121 0.0
O51 O 0.80924 0.62775 0.40263 0.0
C52 C 0.39997 0.79584 0.64338 0.0
O53 O 0.36754 0.7788 0.64946 0.0
O54 O 0.33373 0.86595 0.59861 0.0
Zn55 Zn 0.35691 0.85665 0.64652 0.0
O56 O 0.31976 0.82653 0.676 0.0
C57 C 0.35066 0.9295 0.66911 0.0
O58 O 0.32638 0.92832 0.64331 0.0
O59 O 0.40259 0.82979 0.64059 0.0
C60 C 0.28593 0.832 0.67631 0.0
O61 O 0.27474 0.85785 0.6567 0.0
C62 C 0.31744 0.83939 0.58229 0.0
O63 O 0.31796 0.80737 0.59627 0.0
O64 O 0.36848 0.90246 0.67448 0.0
C65 C 0.85591 0.91404 0.8072 0.0
O66 O 0.83187 0.88904 0.79471 0.0
O67 O 0.84342 0.86321 0.90633 0.0
Zn68 Zn 0.86858 0.85926 0.859 0.0
O69 O 0.83761 0.82362 0.82878 0.0
C70 C 0.9214 0.8112 0.88037 0.0
O71 O 0.89143 0.79109 0.88929 0.0
O72 O 0.87453 0.90747 0.83461 0.0
C73 C 0.85123 0.80098 0.8087 0.0
O74 O 0.88707 0.8004 0.80678 0.0
C75 C 0.81008 0.87023 0.90793 0.0
O76 O 0.79255 0.87582 0.87824 0.0
O77 O 0.91851 0.84195 0.86709 0.0
C78 C 0.13737 0.59595 0.8202 0.0
O79 O 0.13404 0.62343 0.79922 0.0
O80 O 0.17955 0.65189 0.91846 0.0
Zn81 Zn 0.15219 0.6519 0.87174 0.0
O82 O 0.18374 0.68185 0.83659 0.0
C83 C 0.1008 0.70498 0.88401 0.0
O84 O 0.13107 0.72666 0.88543 0.0
O85 O 0.14453 0.60144 0.85295 0.0
C86 C 0.17159 0.7012 0.81233 0.0
O87 O 0.13594 0.70221 0.8087 0.0
C88 C 0.19973 0.67976 0.9276 0.0
O89 O 0.20181 0.70788 0.90664 0.0
O90 O 0.10306 0.67181 0.87868 0.0
C91 C 0.79432 0.13454 0.58196 0.0
O92 O 0.77121 0.12709 0.60836 0.0
O93 O 0.89347 0.17405 0.64331 0.0
Zn94 Zn 0.84337 0.14698 0.64018 0.0
O95 O 0.80665 0.17484 0.66523 0.0
C96 C 0.86129 0.09197 0.68969 0.0
O97 O 0.88327 0.11808 0.70329 0.0
O98 O 0.82802 0.143 0.58895 0.0
C99 C 0.81213 0.188 0.69608 0.0
O100 O 0.84288 0.18318 0.7127 0.0
C101 C 0.89631 0.20707 0.63523 0.0
O102 O 0.86677 0.2218 0.6251 0.0
O103 O 0.84237 0.09805 0.66236 0.0
C104 C 0.19985 0.33964 0.60462 0.0
O105 O 0.19954 0.31145 0.62538 0.0
O106 O 0.10384 0.33135 0.6528 0.0
Zn107 Zn 0.15233 0.36095 0.6596 0.0
O108 O 0.18228 0.3367 0.69553 0.0
C109 C 0.13652 0.41388 0.71069 0.0
O110 O 0.13334 0.38566 0.73154 0.0
O111 O 0.18087 0.36499 0.61345 0.0
C112 C 0.21097 0.3522 0.70971 0.0
O113 O 0.22133 0.38557 0.70129 0.0
C114 C 0.1017 0.29766 0.65743 0.0
O115 O 0.13147 0.28254 0.66606 0.0
O116 O 0.14391 0.40991 0.67792 0.0
C117 C 0.65745 0.08267 0.31059 0.0
O118 O 0.68826 0.0971 0.32449 0.0
O119 O 0.6556 0.13831 0.38962 0.0
Zn120 Zn 0.63534 0.14563 0.34037 0.0
O121 O 0.67201 0.17623 0.31103 0.0
C122 C 0.58287 0.19078 0.369 0.0
O123 O 0.60793 0.19561 0.39398 0.0
O124 O 0.62835 0.0984 0.31474 0.0
C125 C 0.67622 0.21013 0.31237 0.0
O126 O 0.6558 0.22713 0.33425 0.0
C127 C 0.68951 0.14543 0.39669 0.0
O128 O 0.71207 0.1578 0.37136 0.0
O129 O 0.58808 0.16962 0.3434 0.0
C130 C 0.595 0.71445 0.63637 0.0
O131 O 0.62786 0.73135 0.63224 0.0
O132 O 0.66288 0.64656 0.60467 0.0
Zn133 Zn 0.63867 0.65651 0.65234 0.0
O134 O 0.67262 0.69042 0.68191 0.0
C135 C 0.6451 0.58459 0.68105 0.0
O136 O 0.67428 0.58547 0.66046 0.0
O137 O 0.59237 0.68132 0.64417 0.0
C138 C 0.69723 0.68032 0.70251 0.0
O139 O 0.7017 0.64614 0.70523 0.0
C140 C 0.69756 0.64579 0.60194 0.0
O141 O 0.71794 0.65102 0.6305 0.0
O142 O 0.62566 0.61103 0.68094 0.0
C143 C 0.63621 0.41983 0.81714 0.0
O144 O 0.60316 0.41196 0.83045 0.0
O145 O 0.6062 0.33232 0.85738 0.0
Zn146 Zn 0.65749 0.35777 0.85826 0.0
O147 O 0.69138 0.32366 0.83841 0.0
C148 C 0.70941 0.37407 0.91346 0.0
O149 O 0.73154 0.37304 0.88592 0.0
O150 O 0.6621 0.40124 0.8261 0.0
C151 C 0.68609 0.31055 0.80753 0.0
O152 O 0.65771 0.31912 0.78901 0.0
C153 C 0.59518 0.31056 0.88194 0.0
O154 O 0.61669 0.30649 0.90934 0.0
O155 O 0.67485 0.3697 0.90837 0.0
C156 C 0.34054 0.10852 0.78271 0.0
O157 O 0.33103 0.13934 0.77111 0.0
O158 O 0.39451 0.17546 0.85565 0.0
Zn159 Zn 0.34435 0.14845 0.84815 0.0
O160 O 0.31138 0.18152 0.82431 0.0
C161 C 0.31906 0.15889 0.91857 0.0
O162 O 0.33715 0.1901 0.91211 0.0
O163 O 0.34826 0.10533 0.81555 0.0
C164 C 0.31511 0.21546 0.82606 0.0
O165 O 0.34179 0.23142 0.84521 0.0
C166 C 0.4105 0.19124 0.82911 0.0
O167 O 0.39474 0.18805 0.79775 0.0
O168 O 0.31948 0.13447 0.89516 0.0
C169 C 0.3761 0.41863 0.35598 0.0
O170 O 0.38714 0.41828 0.38922 0.0
O171 O 0.33085 0.34641 0.41474 0.0
Zn172 Zn 0.35397 0.34218 0.36641 0.0
O173 O 0.3183 0.31167 0.3364 0.0
C174 C 0.42388 0.3214 0.39471 0.0
O175 O 0.41836 0.34343 0.42093 0.0
O176 O 0.36213 0.38983 0.34186 0.0
C177 C 0.32969 0.29266 0.31147 0.0
O178 O 0.3652 0.29296 0.30569 0.0
C179 C 0.32626 0.31817 0.4335 0.0
O180 O 0.33814 0.28857 0.42118 0.0
O181 O 0.4008 0.31779 0.36946 0.0
C182 C 0.31373 0.65442 0.10559 0.0
O183 O 0.32715 0.68553 0.11809 0.0
O184 O 0.40386 0.64996 0.15383 0.0
Zn185 Zn 0.35184 0.63102 0.16642 0.0
O186 O 0.3316 0.66614 0.19998 0.0
C187 C 0.36691 0.58318 0.22227 0.0
O188 O 0.38127 0.61334 0.23624 0.0
O189 O 0.32062 0.62614 0.12194 0.0
C190 C 0.29776 0.67108 0.20242 0.0
O191 O 0.2737 0.65151 0.18309 0.0
C192 C 0.41241 0.68355 0.15443 0.0
O193 O 0.38712 0.70484 0.16274 0.0
O194 O 0.35239 0.58375 0.19157 0.0
C195 C 0.67713 0.8695 0.07729 0.0
O196 O 0.64257 0.87647 0.07909 0.0
O197 O 0.61374 0.83055 0.14317 0.0
Zn198 Zn 0.66493 0.8531 0.15144 0.0
O199 O 0.69014 0.82115 0.18448 0.0
C200 C 0.63329 0.91637 0.17765 0.0
O201 O 0.60384 0.90287 0.16068 0.0
O202 O 0.69274 0.85924 0.10519 0.0
C203 C 0.67787 0.81792 0.21613 0.0
O204 O 0.64989 0.83551 0.22549 0.0
C205 C 0.60699 0.79702 0.13909 0.0
O206 O 0.6344 0.77669 0.13876 0.0
O207 O 0.66247 0.90036 0.1762 0.0
H208 H 0.19858 0.21368 0.22517 0.0
H209 H 0.28823 0.16333 0.17728 0.0
H210 H 0.33199 0.19841 0.21527 0.0
H211 H 0.34482 0.24356 0.2618 0.0
H212 H 0.255 0.29304 0.31043 0.0
H213 H 0.21129 0.25801 0.2724 0.0
C214 C 0.2277 0.21039 0.22299 0.0
C215 C 0.24012 0.186 0.19836 0.0
C216 C 0.25268 0.23046 0.24504 0.0
C217 C 0.27791 0.18192 0.19603 0.0
C218 C 0.30298 0.20198 0.21772 0.0
C219 C 0.31569 0.24671 0.26408 0.0
C220 C 0.30323 0.27095 0.28884 0.0
C221 C 0.29067 0.22636 0.24228 0.0
C222 C 0.26535 0.27454 0.29161 0.0
C223 C 0.24032 0.25456 0.26984 0.0
H224 H 0.80007 0.27191 0.20598 0.0
H225 H 0.76581 0.37153 0.24573 0.0
H226 H 0.72028 0.33893 0.28399 0.0
H227 H 0.69022 0.28223 0.30633 0.0
H228 H 0.72441 0.1826 0.26655 0.0
H229 H 0.76991 0.2152 0.22822 0.0
C230 C 0.78262 0.28651 0.22297 0.0
C231 C 0.78637 0.32409 0.22295 0.0
C232 C 0.75648 0.26762 0.24497 0.0
C233 C 0.76354 0.34258 0.24517 0.0
C234 C 0.73747 0.32397 0.26711 0.0
C235 C 0.70763 0.26763 0.28931 0.0
C236 C 0.70388 0.23006 0.28934 0.0
C237 C 0.73373 0.28651 0.26726 0.0
C238 C 0.72666 0.21156 0.26706 0.0
C239 C 0.75272 0.23016 0.2451 0.0
H240 H 0.229 0.69257 0.20974 0.0
H241 H 0.34059 0.71477 0.24668 0.0
H242 H 0.32202 0.76342 0.28358 0.0
H243 H 0.27417 0.79964 0.30553 0.0
H244 H 0.16256 0.77737 0.2687 0.0
H245 H 0.1812 0.72897 0.2315 0.0
C246 C 0.24925 0.70796 0.22593 0.0
C247 C 0.28609 0.69993 0.22547 0.0
C248 C 0.23845 0.73604 0.24702 0.0
C249 C 0.312 0.72029 0.24654 0.0
C250 C 0.30144 0.74819 0.26763 0.0
C251 C 0.25394 0.78433 0.28925 0.0
C252 C 0.21706 0.7922 0.28991 0.0
C253 C 0.26477 0.75634 0.26805 0.0
C254 C 0.19117 0.77194 0.26872 0.0
C255 C 0.20177 0.74418 0.24745 0.0
H256 H 0.73343 0.72862 0.34427 0.0
H257 H 0.80227 0.69131 0.26116 0.0
H258 H 0.77469 0.72934 0.21803 0.0
H259 H 0.73128 0.7734 0.20387 0.0
H260 H 0.66199 0.8102 0.28686 0.0
H261 H 0.68954 0.77215 0.32998 0.0
C262 C 0.74242 0.72877 0.31673 0.0
C263 C 0.76992 0.70716 0.30604 0.0
C264 C 0.72639 0.75064 0.292 0.0
C265 C 0.78113 0.70765 0.27017 0.0
C266 C 0.76541 0.72942 0.24545 0.0
C267 C 0.72222 0.77314 0.2314 0.0
C268 C 0.69467 0.7947 0.24209 0.0
C269 C 0.73807 0.75108 0.25607 0.0
C270 C 0.68314 0.79388 0.27785 0.0
C271 C 0.69889 0.77213 0.30258 0.0
H272 H 0.30138 0.78127 0.72416 0.0
H273 H 0.21123 0.8327 0.67906 0.0
H274 H 0.16784 0.79635 0.7167 0.0
H275 H 0.15557 0.75044 0.76291 0.0
H276 H 0.24608 0.7 0.80865 0.0
H277 H 0.28919 0.73553 0.77021 0.0
C278 C 0.27224 0.78451 0.72247 0.0
C279 C 0.25961 0.80969 0.69882 0.0
C280 C 0.24747 0.76373 0.74434 0.0
C281 C 0.22174 0.81358 0.69708 0.0
C282 C 0.19688 0.79278 0.71859 0.0
C283 C 0.18471 0.74713 0.76441 0.0
C284 C 0.19752 0.72256 0.78862 0.0
C285 C 0.20945 0.76784 0.74239 0.0
C286 C 0.23542 0.71875 0.79031 0.0
C287 C 0.26014 0.73904 0.76832 0.0
H288 H 0.76634 0.67325 0.72548 0.0
H289 H 0.68267 0.74713 0.72326 0.0
H290 H 0.72272 0.79089 0.75666 0.0
H291 H 0.78155 0.80797 0.78667 0.0
H292 H 0.86663 0.73552 0.78515 0.0
H293 H 0.82606 0.69137 0.75293 0.0
C294 C 0.75686 0.6989 0.73243 0.0
C295 C 0.72155 0.70689 0.72225 0.0
C296 C 0.78031 0.72416 0.75087 0.0
C297 C 0.70979 0.74041 0.73086 0.0
C298 C 0.73263 0.76539 0.74998 0.0
C299 C 0.79113 0.78247 0.7793 0.0
C300 C 0.82689 0.77486 0.78843 0.0
C301 C 0.76793 0.75753 0.76016 0.0
C302 C 0.83921 0.74199 0.77832 0.0
C303 C 0.81602 0.71671 0.76001 0.0
H304 H 0.68264 0.27805 0.74285 0.0
H305 H 0.74881 0.29029 0.83788 0.0
H306 H 0.79331 0.25307 0.81201 0.0
H307 H 0.81411 0.21802 0.762 0.0
H308 H 0.74786 0.20579 0.66702 0.0
H309 H 0.70278 0.242 0.69337 0.0
C310 C 0.70673 0.27252 0.75797 0.0
C311 C 0.71238 0.28703 0.7922 0.0
C312 C 0.73228 0.25114 0.74293 0.0
C313 C 0.74375 0.2795 0.81144 0.0
C314 C 0.76927 0.25823 0.79666 0.0
C315 C 0.78979 0.22321 0.74707 0.0
C316 C 0.78448 0.20928 0.71256 0.0
C317 C 0.76392 0.24408 0.76236 0.0
C318 C 0.75271 0.2162 0.69364 0.0
C319 C 0.72688 0.23693 0.70867 0.0
H320 H 0.20112 0.28159 0.72583 0.0
H321 H 0.27052 0.37804 0.74899 0.0
H322 H 0.30803 0.34447 0.7883 0.0
H323 H 0.32216 0.28735 0.81461 0.0
H324 H 0.25336 0.1909 0.78983 0.0
H325 H 0.2145 0.225 0.75272 0.0
C326 C 0.22434 0.29537 0.73959 0.0
C327 C 0.23303 0.33227 0.73443 0.0
C328 C 0.24594 0.2759 0.76183 0.0
C329 C 0.26329 0.34963 0.7524 0.0
C330 C 0.28475 0.33046 0.7749 0.0
C331 C 0.29853 0.27382 0.80129 0.0
C332 C 0.29073 0.23663 0.80499 0.0
C333 C 0.27648 0.29353 0.7796 0.0
C334 C 0.26008 0.21949 0.78739 0.0
C335 C 0.23782 0.23896 0.76613 0.0
H336 H 0.08804 0.91999 0.24277 0.0
H337 H 0.17391 0.97071 0.30915 0.0
H338 H 0.17577 0.02466 0.27258 0.0
H339 H 0.15368 0.05713 0.22136 0.0
H340 H 0.06723 0.00678 0.15543 0.0
H341 H 0.06503 0.95296 0.19227 0.0
C342 C 0.10714 0.94285 0.24934 0.0
C343 C 0.13087 0.94119 0.27868 0.0
C344 C 0.10804 0.97383 0.22821 0.0
C345 C 0.15531 0.97119 0.28679 0.0
C346 C 0.15644 0.00205 0.26583 0.0
C347 C 0.13435 0.03439 0.21496 0.0
C348 C 0.11074 0.03601 0.18551 0.0
C349 C 0.13307 0.00361 0.23639 0.0
C350 C 0.08573 0.00633 0.17787 0.0
C351 C 0.08446 0.97551 0.19894 0.0
H352 H 0.87098 0.43631 0.23156 0.0
H353 H 0.90361 0.50259 0.14092 0.0
H354 H 0.89796 0.55625 0.17654 0.0
H355 H 0.88145 0.58425 0.23259 0.0
H356 H 0.84629 0.51803 0.32254 0.0
H357 H 0.8551 0.46439 0.28789 0.0
C358 C 0.87725 0.46249 0.21965 0.0
C359 C 0.88783 0.46541 0.1836 0.0
C360 C 0.87317 0.49322 0.24007 0.0
C361 C 0.89543 0.49956 0.16857 0.0
C362 C 0.89212 0.53026 0.18891 0.0
C363 C 0.87581 0.55811 0.24473 0.0
C364 C 0.86317 0.55522 0.28015 0.0
C365 C 0.8806 0.5274 0.22455 0.0
C366 C 0.85592 0.52107 0.29532 0.0
C367 C 0.86102 0.49037 0.27554 0.0
H368 H 0.27219 0.10071 0.93757 0.0
H369 H 0.31352 0.20628 0.97262 0.0
H370 H 0.27268 0.20097 0.024 0.0
H371 H 0.22437 0.1673 0.05849 0.0
H372 H 0.18308 0.06136 0.0249 0.0
H373 H 0.22457 0.06599 0.97349 0.0
C374 C 0.27244 0.12244 0.95659 0.0
C375 C 0.29592 0.15388 0.95106 0.0
C376 C 0.24866 0.11931 0.98625 0.0
C377 C 0.29579 0.18177 0.97603 0.0
C378 C 0.27233 0.17884 0.00546 0.0
C379 C 0.22427 0.14523 0.03987 0.0
C380 C 0.2004 0.11413 0.04544 0.0
C381 C 0.24843 0.14791 0.01066 0.0
C382 C 0.20107 0.08566 0.02123 0.0
C383 C 0.22484 0.08827 0.99183 0.0
H384 H 0.74987 0.37691 0.0769 0.0
H385 H 0.85833 0.36989 0.033 0.0
H386 H 0.83362 0.37251 0.97284 0.0
H387 H 0.78106 0.37442 0.93273 0.0
H388 H 0.67223 0.37966 0.97636 0.0
H389 H 0.69737 0.38035 0.03662 0.0
C390 C 0.76818 0.37615 0.0542 0.0
C391 C 0.80592 0.3731 0.05954 0.0
C392 C 0.75373 0.37731 0.01962 0.0
C393 C 0.82917 0.3721 0.02974 0.0
C394 C 0.81506 0.37361 0.99529 0.0
C395 C 0.7628 0.37599 0.95537 0.0
C396 C 0.72477 0.37694 0.94996 0.0
C397 C 0.77735 0.37587 0.98992 0.0
C398 C 0.70159 0.37885 0.9797 0.0
C399 C 0.71594 0.37919 0.01419 0.0
H400 H 0.28001 0.78783 0.54302 0.0
H401 H 0.30646 0.90207 0.54768 0.0
H402 H 0.26886 0.90957 0.49477 0.0
H403 H 0.22747 0.88337 0.44749 0.0
H404 H 0.20184 0.76882 0.44431 0.0
H405 H 0.23996 0.76194 0.49627 0.0
C406 C 0.27773 0.81443 0.53248 0.0
C407 C 0.29608 0.84431 0.54937 0.0
C408 C 0.256 0.81854 0.50229 0.0
C409 C 0.29271 0.87854 0.53521 0.0
C410 C 0.27112 0.88286 0.50498 0.0
C411 C 0.23022 0.85695 0.45821 0.0
C412 C 0.21165 0.82671 0.44192 0.0
C413 C 0.25245 0.85303 0.48836 0.0
C414 C 0.21569 0.79264 0.45616 0.0
C415 C 0.23756 0.78859 0.48596 0.0
H416 H 0.76906 0.63564 0.58977 0.0
H417 H 0.66593 0.64273 0.53565 0.0
H418 H 0.6963 0.63577 0.47824 0.0
H419 H 0.75279 0.62978 0.44332 0.0
H420 H 0.85551 0.6226 0.49835 0.0
H421 H 0.82453 0.62736 0.55541 0.0
C422 C 0.75311 0.63559 0.56546 0.0
C423 C 0.71527 0.63993 0.56708 0.0
C424 C 0.77071 0.63159 0.53263 0.0
C425 C 0.69508 0.6395 0.53524 0.0
C426 C 0.71246 0.63557 0.50238 0.0
C427 C 0.76836 0.62903 0.46779 0.0
C428 C 0.80652 0.62596 0.46641 0.0
C429 C 0.75035 0.63189 0.50072 0.0
C430 C 0.82619 0.625 0.49847 0.0
C431 C 0.8085 0.62778 0.5312 0.0
H432 H 0.9865 0.3153 0.13686 0.0
H433 H 0.91184 0.21994 0.1476 0.0
H434 H 0.9633 0.18298 0.14474 0.0
H435 H 0.0298 0.17753 0.13989 0.0
H436 H 0.10424 0.27299 0.12836 0.0
H437 H 0.05274 0.3098 0.13069 0.0
C438 C 0.98147 0.28644 0.13858 0.0
C439 C 0.94528 0.27053 0.14255 0.0
C440 C 0.01123 0.26521 0.13673 0.0
C441 C 0.93934 0.23302 0.14454 0.0
C442 C 0.9688 0.21178 0.14292 0.0
C443 C 0.03475 0.20637 0.13778 0.0
C444 C 0.07095 0.22235 0.13402 0.0
C445 C 0.0049 0.22756 0.1391 0.0
C446 C 0.07675 0.25983 0.13126 0.0
C447 C 0.04727 0.28101 0.13265 0.0
H448 H 0.91918 0.76109 0.37634 0.0
H449 H 0.9571 0.6562 0.36371 0.0
H450 H 0.02049 0.68253 0.36115 0.0
H451 H 0.06492 0.7351 0.35966 0.0
H452 H 0.02805 0.84035 0.3719 0.0
H453 H 0.96448 0.81402 0.37767 0.0
C454 C 0.94132 0.74397 0.37327 0.0
C455 C 0.93328 0.70671 0.36999 0.0
C456 C 0.97788 0.75931 0.37162 0.0
C457 C 0.96237 0.68494 0.36615 0.0
C458 C 0.9987 0.69997 0.36464 0.0
C459 C 0.04305 0.75237 0.36372 0.0
C460 C 0.05122 0.78967 0.36507 0.0
C461 C 0.00671 0.7371 0.36687 0.0
C462 C 0.02252 0.81155 0.37069 0.0
C463 C 0.98616 0.79651 0.37392 0.0
H464 H 0.5233 0.68827 0.6446 0.0
H465 H 0.59203 0.78573 0.62345 0.0
H466 H 0.53801 0.81942 0.62296 0.0
H467 H 0.47125 0.82167 0.63035 0.0
H468 H 0.40277 0.72401 0.65147 0.0
H469 H 0.45656 0.69019 0.65007 0.0
C470 C 0.52649 0.71685 0.6397 0.0
C471 C 0.56178 0.73437 0.6342 0.0
C472 C 0.49528 0.73617 0.63956 0.0
C473 C 0.56527 0.77146 0.62783 0.0
C474 C 0.53435 0.79083 0.62759 0.0
C475 C 0.46806 0.79298 0.63453 0.0
C476 C 0.43293 0.77554 0.64115 0.0
C477 C 0.49923 0.77353 0.63373 0.0
C478 C 0.4294 0.73827 0.64639 0.0
C479 C 0.4602 0.71881 0.64562 0.0
H480 H 0.89565 0.07088 0.74934 0.0
H481 H 0.81751 0.03287 0.66879 0.0
H482 H 0.80908 0.97469 0.69803 0.0
H483 H 0.82318 0.9348 0.74673 0.0
H484 H 0.90129 0.97254 0.82738 0.0
H485 H 0.91034 0.03061 0.79779 0.0
C486 C 0.87686 0.04985 0.73809 0.0
C487 C 0.85725 0.05632 0.7069 0.0
C488 C 0.87202 0.01641 0.7551 0.0
C489 C 0.83299 0.02871 0.69275 0.0
C490 C 0.82809 0.99539 0.70947 0.0
C491 C 0.84219 0.9557 0.7579 0.0
C492 C 0.86145 0.94928 0.78929 0.0
C493 C 0.84733 0.989 0.74073 0.0
C494 C 0.88606 0.9767 0.80326 0.0
C495 C 0.89128 0.00995 0.78635 0.0
H496 H 0.13358 0.57671 0.75056 0.0
H497 H 0.13556 0.53277 0.85668 0.0
H498 H 0.13376 0.47245 0.8321 0.0
H499 H 0.13378 0.43241 0.78049 0.0
H500 H 0.13391 0.47664 0.67438 0.0
H501 H 0.13261 0.53665 0.69902 0.0
C502 C 0.13339 0.55395 0.76836 0.0
C503 C 0.13474 0.55929 0.80542 0.0
C504 C 0.13283 0.51939 0.75405 0.0
C505 C 0.13464 0.52946 0.82805 0.0
C506 C 0.13361 0.49494 0.81402 0.0
C507 C 0.13326 0.45513 0.76272 0.0
C508 C 0.13395 0.45001 0.72564 0.0
C509 C 0.13301 0.48962 0.77706 0.0
C510 C 0.13348 0.47981 0.70303 0.0
C511 C 0.13274 0.51415 0.71709 0.0
H512 H 0.74893 0.85928 0.06527 0.0
H513 H 0.65068 0.88677 0.01217 0.0
H514 H 0.68334 0.89026 0.95534 0.0
H515 H 0.73936 0.88417 0.92045 0.0
H516 H 0.83756 0.85665 0.97363 0.0
H517 H 0.80531 0.85466 0.03065 0.0
C518 C 0.73464 0.86611 0.0413 0.0
C519 C 0.69735 0.87262 0.04303 0.0
C520 C 0.75356 0.86806 0.00867 0.0
C521 C 0.67935 0.88158 0.01167 0.0
C522 C 0.69801 0.88356 0.97911 0.0
C523 C 0.75378 0.87785 0.9445 0.0
C524 C 0.79081 0.87047 0.94267 0.0
C525 C 0.73505 0.87665 0.97726 0.0
C526 C 0.80905 0.86241 0.97419 0.0
C527 C 0.79062 0.86122 0.00685 0.0
H528 H 0.2117 0.62381 0.97124 0.0
H529 H 0.23654 0.73778 0.95869 0.0
H530 H 0.2735 0.73983 0.01263 0.0
H531 H 0.29942 0.70952 0.06285 0.0
H532 H 0.27619 0.59544 0.07547 0.0
H533 H 0.23802 0.59323 0.02197 0.0
C534 C 0.22509 0.6491 0.9804 0.0
C535 C 0.22132 0.68059 0.96091 0.0
C536 C 0.24669 0.65009 0.01137 0.0
C537 C 0.23902 0.71311 0.97306 0.0
C538 C 0.26019 0.71435 0.00395 0.0
C539 C 0.286 0.68412 0.054 0.0
C540 C 0.29067 0.6527 0.07318 0.0
C541 C 0.26433 0.68302 0.02321 0.0
C542 C 0.27313 0.62004 0.06118 0.0
C543 C 0.25125 0.61875 0.03061 0.0
H544 H 0.76045 0.15412 0.41896 0.0
H545 H 0.64985 0.12485 0.45624 0.0
H546 H 0.67276 0.1176 0.51656 0.0
H547 H 0.72391 0.12116 0.55896 0.0
H548 H 0.83445 0.15076 0.52165 0.0
H549 H 0.81176 0.15606 0.46102 0.0
C550 C 0.74132 0.1461 0.44024 0.0
C551 C 0.70347 0.14019 0.43308 0.0
C552 C 0.75465 0.142 0.47485 0.0
C553 C 0.67912 0.12963 0.46098 0.0
C554 C 0.69219 0.12548 0.49551 0.0
C555 C 0.74311 0.12858 0.53756 0.0
C556 C 0.78082 0.13565 0.54491 0.0
C557 C 0.72987 0.1318 0.50278 0.0
C558 C 0.80527 0.1452 0.5168 0.0
C559 C 0.79232 0.14831 0.4821 0.0
H560 H 0.24169 0.28947 0.57865 0.0
H561 H 0.20895 0.39484 0.55676 0.0
H562 H 0.24634 0.39813 0.50259 0.0
H563 H 0.28749 0.37056 0.46087 0.0
H564 H 0.31903 0.26471 0.48272 0.0
H565 H 0.28311 0.26232 0.53759 0.0
C566 C 0.2427 0.31321 0.56209 0.0
C567 C 0.22245 0.34182 0.57176 0.0
C568 C 0.26412 0.31489 0.53098 0.0
C569 C 0.22417 0.37237 0.54993 0.0
C570 C 0.24559 0.3743 0.51896 0.0
C571 C 0.28669 0.34707 0.47776 0.0
C572 C 0.30592 0.31786 0.46765 0.0
C573 C 0.26561 0.34567 0.50917 0.0
C574 C 0.30443 0.28755 0.48977 0.0
C575 C 0.28386 0.28612 0.52117 0.0
H576 H 0.08648 0.77456 0.88069 0.0
H577 H 0.03349 0.66761 0.89211 0.0
H578 H 0.97339 0.69127 0.89378 0.0
H579 H 0.93581 0.74214 0.89005 0.0
H580 H 0.98882 0.84875 0.87599 0.0
H581 H 0.04902 0.82538 0.87745 0.0
C582 C 0.06182 0.75641 0.88378 0.0
C583 C 0.06449 0.71937 0.8863 0.0
C584 C 0.02734 0.77013 0.88418 0.0
C585 C 0.03221 0.69623 0.89003 0.0
C586 C 0.99783 0.70974 0.891 0.0
C587 C 0.96054 0.7603 0.88759 0.0
C588 C 0.95783 0.79714 0.88297 0.0
C589 C 0.99505 0.74662 0.88784 0.0
C590 C 0.99014 0.82027 0.87949 0.0
C591 C 0.02458 0.80693 0.88033 0.0
H592 H 0.03536 0.32006 0.6393 0.0
H593 H 0.08793 0.22578 0.66803 0.0
H594 H 0.02924 0.1895 0.66366 0.0
H595 H 0.96285 0.18449 0.65221 0.0
H596 H 0.91032 0.2787 0.62319 0.0
H597 H 0.96909 0.31492 0.62718 0.0
C598 C 0.03402 0.29157 0.64456 0.0
C599 C 0.06605 0.27574 0.65402 0.0
C600 C 1.00014 0.27079 0.642 0.0
C601 C 0.06376 0.23874 0.66069 0.0
C602 C 0.03017 0.21792 0.65823 0.0
C603 C 0.96424 0.21294 0.64673 0.0
C604 C 0.93217 0.2288 0.63745 0.0
C605 C 0.99817 0.23367 0.649 0.0
C606 C 0.93453 0.26572 0.63038 0.0
C607 C 0.96816 0.28652 0.63266 0.0
H608 H 0.56648 0.24088 0.41734 0.0
H609 H 0.52614 0.18768 0.32143 0.0
H610 H 0.4737 0.22356 0.3209 0.0
H611 H 0.43968 0.27037 0.3472 0.0
H612 H 0.47989 0.32366 0.4431 0.0
H613 H 0.5321 0.28741 0.44396 0.0
C614 C 0.54617 0.23699 0.39637 0.0
C615 C 0.5503 0.21157 0.36947 0.0
C616 C 0.51614 0.25784 0.39612 0.0
C617 C 0.52369 0.20701 0.34249 0.0
C618 C 0.4937 0.22757 0.34212 0.0
C619 C 0.45987 0.27416 0.36829 0.0
C620 C 0.45587 0.29981 0.395 0.0
C621 C 0.48974 0.25316 0.3687 0.0
C622 C 0.48227 0.30418 0.42217 0.0
C623 C 0.51214 0.28342 0.42271 0.0
H624 H 0.68989 0.53401 0.70018 0.0
H625 H 0.58205 0.56827 0.71957 0.0
H626 H 0.5696 0.52028 0.76318 0.0
H627 H 0.58972 0.46896 0.79645 0.0
H628 H 0.69852 0.43637 0.77806 0.0
H629 H 0.71015 0.48338 0.73363 0.0
C630 C 0.66355 0.53087 0.71374 0.0
C631 C 0.6369 0.55463 0.70645 0.0
C632 C 0.65679 0.5036 0.73919 0.0
C633 C 0.60307 0.55036 0.72463 0.0
C634 C 0.59593 0.52293 0.74961 0.0
C635 C 0.61598 0.47213 0.78274 0.0
C636 C 0.64316 0.44908 0.79068 0.0
C637 C 0.62266 0.49948 0.75725 0.0
C638 C 0.67709 0.45373 0.77266 0.0
C639 C 0.68378 0.48059 0.74712 0.0
H640 H 0.37129 0.04516 0.79183 0.0
H641 H 0.31035 0.10362 0.71678 0.0
H642 H 0.30915 0.05415 0.67495 0.0
H643 H 0.32395 0.99386 0.65981 0.0
H644 H 0.38616 0.93514 0.73337 0.0
H645 H 0.38858 0.98511 0.7753 0.0
C646 C 0.35776 0.04702 0.76633 0.0
C647 C 0.34079 0.07805 0.75763 0.0
C648 C 0.35747 0.01844 0.74198 0.0
C649 C 0.32368 0.08014 0.72428 0.0
C650 C 0.32292 0.05181 0.70025 0.0
C651 C 0.3382 0.99199 0.68494 0.0
C652 C 0.35468 0.96071 0.69344 0.0
C653 C 0.33956 0.0208 0.70885 0.0
C654 C 0.37327 0.95893 0.72606 0.0
C655 C 0.37454 0.98746 0.75015 0.0
H656 H 0.45155 0.20303 0.88942 0.0
H657 H 0.44672 0.23333 0.77876 0.0
H658 H 0.50224 0.27385 0.78571 0.0
H659 H 0.55261 0.30046 0.82284 0.0
H660 H 0.55881 0.26925 0.93307 0.0
H661 H 0.50233 0.22961 0.92665 0.0
C662 C 0.46268 0.21844 0.86681 0.0
C663 C 0.44492 0.21501 0.83361 0.0
C664 C 0.49484 0.24172 0.87091 0.0
C665 C 0.45979 0.23525 0.80462 0.0
C666 C 0.49155 0.25857 0.80856 0.0
C667 C 0.54149 0.2852 0.84556 0.0
C668 C 0.5599 0.28796 0.87842 0.0
C669 C 0.50931 0.26204 0.84156 0.0
C670 C 0.54524 0.26767 0.90745 0.0
C671 C 0.51294 0.24493 0.9038 0.0
H672 H 0.39309 0.57368 0.28906 0.0
H673 H 0.3409 0.51622 0.20051 0.0
H674 H 0.33998 0.46036 0.23382 0.0
H675 H 0.35295 0.42799 0.28823 0.0
H676 H 0.40453 0.48522 0.3772 0.0
H677 H 0.40679 0.54102 0.34343 0.0
C678 C 0.38158 0.54895 0.27698 0.0
C679 C 0.36704 0.54921 0.24232 0.0
C680 C 0.381 0.51688 0.29634 0.0
C681 C 0.35224 0.51686 0.22713 0.0
C682 C 0.35169 0.48486 0.24617 0.0
C683 C 0.36481 0.45262 0.30028 0.0
C684 C 0.37851 0.45236 0.33526 0.0
C685 C 0.36585 0.48459 0.28082 0.0
C686 C 0.39375 0.48459 0.35036 0.0
C687 C 0.39503 0.51654 0.33106 0.0
H688 H 0.60244 0.05212 0.26848 0.0
H689 H 0.71334 0.04017 0.30293 0.0
H690 H 0.71576 0.98823 0.26452 0.0
H691 H 0.68697 0.94661 0.22074 0.0
H692 H 0.57622 0.95809 0.18569 0.0
H693 H 0.57333 0.00989 0.22457 0.0
C694 C 0.62704 0.03801 0.26774 0.0
C695 C 0.65764 0.05005 0.28858 0.0
C696 C 0.62843 0.00822 0.2453 0.0
C697 C 0.68938 0.03156 0.28715 0.0
C698 C 0.69086 1.00184 0.26514 0.0
C699 C 0.66221 0.96048 0.22145 0.0
C700 C 0.63192 0.94851 0.20023 0.0
C701 C 0.66065 0.99008 0.24395 0.0
C702 C 0.6 0.96676 0.20168 0.0
C703 C 0.59828 0.99635 0.22398 0.0
H704 H 0.58258 0.72629 0.13626 0.0
H705 H 0.54476 0.83189 0.13977 0.0
H706 H 0.48126 0.80587 0.14309 0.0
H707 H 0.43677 0.75352 0.14828 0.0
H708 H 0.47383 0.64768 0.14544 0.0
H709 H 0.53738 0.6735 0.13835 0.0
C710 C 0.56044 0.74362 0.13745 0.0
C711 C 0.56849 0.78098 0.13801 0.0
C712 C 0.52388 0.72848 0.13965 0.0
C713 C 0.53942 0.80304 0.13946 0.0
C714 C 0.50306 0.7882 0.14142 0.0
C715 C 0.45868 0.73602 0.14596 0.0
C716 C 0.45059 0.69874 0.14769 0.0
C717 C 0.49503 0.751 0.14209 0.0
C718 C 0.47932 0.67649 0.14429 0.0
C719 C 0.51567 0.69124 0.14031 0.0
loop_
_geom_bond_atom_site_label_1
_geom_bond_atom_site_label_2
_geom_bond_distance
_geom_bond_site_symmetry_2
_ccdc_geom_bond_type
C0 O1 1.160 . S
C0 O7 1.185 . S
O1 C0 1.160 . S
O2 Zn3 1.899 . S
O2 C10 1.284 . S
Zn3 O2 1.899 . S
Zn3 O4 2.032 . S
Zn3 O7 2.086 . S
Zn3 O12 1.977 . S
O4 Zn3 2.032 . S
O4 C8 1.278 . S
C5 O6 1.203 . S
C5 O12 1.267 . S
O6 C5 1.203 . S
O7 C0 1.185 . S
O7 Zn3 2.086 . S
C8 O4 1.278 . S
C8 O9 1.211 . S
O9 C8 1.211 . S
C10 O2 1.284 . S
C10 O11 1.273 . S
O11 C10 1.273 . S
O12 Zn3 1.977 . S
O12 C5 1.267 . S
C13 O14 1.160 . S
C13 O20 1.185 . S
O14 C13 1.160 . S
O15 Zn16 1.899 . S
O15 C23 1.284 . S
Zn16 O15 1.899 . S
Zn16 O17 2.032 . S
Zn16 O20 2.086 . S
Zn16 O25 1.977 . S
O17 Zn16 2.032 . S
O17 C21 1.278 . S
C18 O19 1.203 . S
C18 O25 1.267 . S
O19 C18 1.203 . S
O20 C13 1.185 . S
O20 Zn16 2.086 . S
C21 O17 1.278 . S
C21 O22 1.211 . S
O22 C21 1.211 . S
C23 O15 1.284 . S
C23 O24 1.273 . S
O24 C23 1.273 . S
O25 Zn16 1.977 . S
O25 C18 1.267 . S
C26 O27 1.160 . S
C26 O33 1.185 . S
O27 C26 1.160 . S
O28 Zn29 1.899 . S
O28 C36 1.284 . S
Zn29 O28 1.899 . S
Zn29 O30 2.032 . S
Zn29 O33 2.086 . S
Zn29 O38 1.977 . S
O30 Zn29 2.032 . S
O30 C34 1.278 . S
C31 O32 1.203 . S
C31 O38 1.267 . S
O32 C31 1.203 . S
O33 C26 1.185 . S
O33 Zn29 2.086 . S
C34 O30 1.278 . S
C34 O35 1.211 . S
O35 C34 1.211 . S
C36 O28 1.284 . S
C36 O37 1.273 . S
O37 C36 1.273 . S
O38 Zn29 1.977 . S
O38 C31 1.267 . S
C39 O40 1.160 . S
C39 O46 1.185 . S
O40 C39 1.160 . S
O41 Zn42 1.899 . S
O41 C49 1.284 . S
Zn42 O41 1.899 . S
Zn42 O43 2.032 . S
Zn42 O46 2.086 . S
Zn42 O51 1.977 . S
O43 Zn42 2.032 . S
O43 C47 1.278 . S
C44 O45 1.203 . S
C44 O51 1.267 . S
O45 C44 1.203 . S
O46 C39 1.185 . S
O46 Zn42 2.086 . S
C47 O43 1.278 . S
C47 O48 1.211 . S
O48 C47 1.211 . S
C49 O41 1.284 . S
C49 O50 1.273 . S
O50 C49 1.273 . S
O51 Zn42 1.977 . S
O51 C44 1.267 . S
C52 O53 1.160 . S
C52 O59 1.185 . S
O53 C52 1.160 . S
O54 Zn55 1.899 . S
O54 C62 1.284 . S
Zn55 O54 1.899 . S
Zn55 O56 2.032 . S
Zn55 O59 2.086 . S
Zn55 O64 1.977 . S
O56 Zn55 2.032 . S
O56 C60 1.278 . S
C57 O58 1.203 . S
C57 O64 1.267 . S
O58 C57 1.203 . S
O59 C52 1.185 . S
O59 Zn55 2.086 . S
C60 O56 1.278 . S
C60 O61 1.211 . S
O61 C60 1.211 . S
C62 O54 1.284 . S
C62 O63 1.273 . S
O63 C62 1.273 . S
O64 Zn55 1.977 . S
O64 C57 1.267 . S
C65 O66 1.160 . S
C65 O72 1.185 . S
O66 C65 1.160 . S
O67 Zn68 1.899 . S
O67 C75 1.284 . S
Zn68 O67 1.899 . S
Zn68 O69 2.032 . S
Zn68 O72 2.086 . S
Zn68 O77 1.977 . S
O69 Zn68 2.032 . S
O69 C73 1.278 . S
C70 O71 1.203 . S
C70 O77 1.267 . S
O71 C70 1.203 . S
O72 C65 1.185 . S
O72 Zn68 2.086 . S
C73 O69 1.278 . S
C73 O74 1.211 . S
O74 C73 1.211 . S
C75 O67 1.284 . S
C75 O76 1.273 . S
O76 C75 1.273 . S
O77 Zn68 1.977 . S
O77 C70 1.267 . S
C78 O79 1.160 . S
C78 O85 1.185 . S
O79 C78 1.160 . S
O80 Zn81 1.899 . S
O80 C88 1.284 . S
Zn81 O80 1.899 . S
Zn81 O82 2.032 . S
Zn81 O85 2.086 . S
Zn81 O90 1.977 . S
O82 Zn81 2.032 . S
O82 C86 1.278 . S
C83 O84 1.203 . S
C83 O90 1.267 . S
O84 C83 1.203 . S
O85 C78 1.185 . S
O85 Zn81 2.086 . S
C86 O82 1.278 . S
C86 O87 1.211 . S
O87 C86 1.211 . S
C88 O80 1.284 . S
C88 O89 1.273 . S
O89 C88 1.273 . S
O90 Zn81 1.977 . S
O90 C83 1.267 . S
C91 O92 1.160 . S
C91 O98 1.185 . S
O92 C91 1.160 . S
O93 Zn94 1.899 . S
O93 C101 1.284 . S
Zn94 O93 1.899 . S
Zn94 O95 2.032 . S
Zn94 O98 2.086 . S
Zn94 O103 1.977 . S
O95 Zn94 2.032 . S
O95 C99 1.278 . S
C96 O97 1.203 . S
C96 O103 1.267 . S
O97 C96 1.203 . S
O98 C91 1.185 . S
O98 Zn94 2.086 . S
C99 O95 1.278 . S
C99 O100 1.211 . S
O100 C99 1.211 . S
C101 O93 1.284 . S
C101 O102 1.273 . S
O102 C101 1.273 . S
O103 Zn94 1.977 . S
O103 C96 1.267 . S
C104 O105 1.160 . S
C104 O111 1.185 . S
O105 C104 1.160 . S
O106 Zn107 1.899 . S
O106 C114 1.284 . S
Zn107 O106 1.899 . S
Zn107 O108 2.032 . S
Zn107 O111 2.086 . S
Zn107 O116 1.977 . S
O108 Zn107 2.032 . S
O108 C112 1.278 . S
C109 O110 1.203 . S
C109 O116 1.267 . S
O110 C109 1.203 . S
O111 C104 1.185 . S
O111 Zn107 2.086 . S
C112 O108 1.278 . S
C112 O113 1.211 . S
O113 C112 1.211 . S
C114 O106 1.284 . S
C114 O115 1.273 . S
O115 C114 1.273 . S
O116 Zn107 1.977 . S
O116 C109 1.267 . S
C117 O118 1.160 . S
C117 O124 1.185 . S
O118 C117 1.160 . S
O119 Zn120 1.899 . S
O119 C127 1.284 . S
Zn120 O119 1.899 . S
Zn120 O121 2.032 . S
Zn120 O124 2.086 . S
Zn120 O129 1.977 . S
O121 Zn120 2.032 . S
O121 C125 1.278 . S
C122 O123 1.203 . S
C122 O129 1.267 . S
O123 C122 1.203 . S
O124 C117 1.185 . S
O124 Zn120 2.086 . S
C125 O121 1.278 . S
C125 O126 1.211 . S
O126 C125 1.211 . S
C127 O119 1.284 . S
C127 O128 1.273 . S
O128 C127 1.273 . S
O129 Zn120 1.977 . S
O129 C122 1.267 . S
C130 O131 1.160 . S
C130 O137 1.185 . S
O131 C130 1.160 . S
O132 Zn133 1.899 . S
O132 C140 1.284 . S
Zn133 O132 1.899 . S
Zn133 O134 2.032 . S
Zn133 O137 2.086 . S
Zn133 O142 1.977 . S
O134 Zn133 2.032 . S
O134 C138 1.278 . S
C135 O136 1.203 . S
C135 O142 1.267 . S
O136 C135 1.203 . S
O137 C130 1.185 . S
O137 Zn133 2.086 . S
C138 O134 1.278 . S
C138 O139 1.211 . S
O139 C138 1.211 . S
C140 O132 1.284 . S
C140 O141 1.273 . S
O141 C140 1.273 . S
O142 Zn133 1.977 . S
O142 C135 1.267 . S
C143 O144 1.160 . S
C143 O150 1.185 . S
O144 C143 1.160 . S
O145 Zn146 1.899 . S
O145 C153 1.284 . S
Zn146 O145 1.899 . S
Zn146 O147 2.032 . S
Zn146 O150 2.086 . S
Zn146 O155 1.977 . S
O147 Zn146 2.032 . S
O147 C151 1.278 . S
C148 O149 1.203 . S
C148 O155 1.267 . S
O149 C148 1.203 . S
O150 C143 1.185 . S
O150 Zn146 2.086 . S
C151 O147 1.278 . S
C151 O152 1.211 . S
O152 C151 1.211 . S
C153 O145 1.284 . S
C153 O154 1.273 . S
O154 C153 1.273 . S
O155 Zn146 1.977 . S
O155 C148 1.267 . S
C156 O157 1.160 . S
C156 O163 1.185 . S
O157 C156 1.160 . S
O158 Zn159 1.899 . S
O158 C166 1.284 . S
Zn159 O158 1.899 . S
Zn159 O160 2.032 . S
Zn159 O163 2.086 . S
Zn159 O168 1.977 . S
O160 Zn159 2.032 . S
O160 C164 1.278 . S
C161 O162 1.203 . S
C161 O168 1.267 . S
O162 C161 1.203 . S
O163 C156 1.185 . S
O163 Zn159 2.086 . S
C164 O160 1.278 . S
C164 O165 1.211 . S
O165 C164 1.211 . S
C166 O158 1.284 . S
C166 O167 1.273 . S
O167 C166 1.273 . S
O168 Zn159 1.977 . S
O168 C161 1.267 . S
C169 O170 1.160 . S
C169 O176 1.185 . S
O170 C169 1.160 . S
O171 Zn172 1.899 . S
O171 C179 1.284 . S
Zn172 O171 1.899 . S
Zn172 O173 2.032 . S
Zn172 O176 2.086 . S
Zn172 O181 1.977 . S
O173 Zn172 2.032 . S
O173 C177 1.278 . S
C174 O175 1.203 . S
C174 O181 1.267 . S
O175 C174 1.203 . S
O176 C169 1.185 . S
O176 Zn172 2.086 . S
C177 O173 1.278 . S
C177 O178 1.211 . S
O178 C177 1.211 . S
C179 O171 1.284 . S
C179 O180 1.273 . S
O180 C179 1.273 . S
O181 Zn172 1.977 . S
O181 C174 1.267 . S
C182 O183 1.160 . S
C182 O189 1.185 . S
O183 C182 1.160 . S
O184 Zn185 1.899 . S
O184 C192 1.284 . S
Zn185 O184 1.899 . S
Zn185 O186 2.032 . S
Zn185 O189 2.086 . S
Zn185 O194 1.977 . S
O186 Zn185 2.032 . S
O186 C190 1.278 . S
C187 O188 1.203 . S
C187 O194 1.267 . S
O188 C187 1.203 . S
O189 C182 1.185 . S
O189 Zn185 2.086 . S
C190 O186 1.278 . S
C190 O191 1.211 . S
O191 C190 1.211 . S
C192 O184 1.284 . S
C192 O193 1.273 . S
O193 C192 1.273 . S
O194 Zn185 1.977 . S
O194 C187 1.267 . S
C195 O196 1.160 . S
C195 O202 1.185 . S
O196 C195 1.160 . S
O197 Zn198 1.899 . S
O197 C205 1.284 . S
Zn198 O197 1.899 . S
Zn198 O199 2.032 . S
Zn198 O202 2.086 . S
Zn198 O207 1.977 . S
O199 Zn198 2.032 . S
O199 C203 1.278 . S
C200 O201 1.203 . S
C200 O207 1.267 . S
O201 C200 1.203 . S
O202 C195 1.185 . S
O202 Zn198 2.086 . S
C203 O199 1.278 . S
C203 O204 1.211 . S
O204 C203 1.211 . S
C205 O197 1.284 . S
C205 O206 1.273 . S
O206 C205 1.273 . S
O207 Zn198 1.977 . S
O207 C200 1.267 . S
H208 C214 0.930 . S
H209 C217 0.930 . S
H210 C218 0.930 . S
H211 C219 0.930 . S
H212 C222 0.930 . S
H213 C223 0.930 . S
C214 H208 0.930 . S
C214 C215 1.355 . S
C214 C216 1.415 . S
C215 C214 1.355 . S
C215 C217 1.419 . S
C216 C214 1.415 . S
C216 C221 1.425 . S
C216 C223 1.409 . S
C217 H209 0.930 . S
C217 C215 1.419 . S
C217 C218 1.362 . S
C218 H210 0.930 . S
C218 C217 1.362 . S
C218 C221 1.409 . S
C219 H211 0.930 . S
C219 C220 1.355 . S
C219 C221 1.415 . S
C220 C219 1.355 . S
C220 C222 1.419 . S
C221 C216 1.425 . S
C221 C218 1.409 . S
C221 C219 1.415 . S
C222 H212 0.930 . S
C222 C220 1.419 . S
C222 C223 1.362 . S
C223 H213 0.930 . S
C223 C216 1.409 . S
C223 C222 1.362 . S
H224 C230 0.930 . S
H225 C233 0.930 . S
H226 C234 0.930 . S
H227 C235 0.930 . S
H228 C238 0.930 . S
H229 C239 0.930 . S
C230 H224 0.930 . S
C230 C231 1.355 . S
C230 C232 1.415 . S
C231 C230 1.355 . S
C231 C233 1.419 . S
C232 C230 1.415 . S
C232 C237 1.425 . S
C232 C239 1.409 . S
C233 H225 0.930 . S
C233 C231 1.419 . S
C233 C234 1.362 . S
C234 H226 0.930 . S
C234 C233 1.362 . S
C234 C237 1.409 . S
C235 H227 0.930 . S
C235 C236 1.355 . S
C235 C237 1.415 . S
C236 C235 1.355 . S
C236 C238 1.419 . S
C237 C232 1.425 . S
C237 C234 1.409 . S
C237 C235 1.415 . S
C238 H228 0.930 . S
C238 C236 1.419 . S
C238 C239 1.362 . S
C239 H229 0.930 . S
C239 C232 1.409 . S
C239 C238 1.362 . S
H240 C246 0.930 . S
H241 C249 0.930 . S
H242 C250 0.930 . S
H243 C251 0.930 . S
H244 C254 0.930 . S
H245 C255 0.930 . S
C246 H240 0.930 . S
C246 C247 1.355 . S
C246 C248 1.415 . S
C247 C246 1.355 . S
C247 C249 1.419 . S
C248 C246 1.415 . S
C248 C253 1.425 . S
C248 C255 1.409 . S
C249 H241 0.930 . S
C249 C247 1.419 . S
C249 C250 1.362 . S
C250 H242 0.930 . S
C250 C249 1.362 . S
C250 C253 1.409 . S
C251 H243 0.930 . S
C251 C252 1.355 . S
C251 C253 1.415 . S
C252 C251 1.355 . S
C252 C254 1.419 . S
C253 C248 1.425 . S
C253 C250 1.409 . S
C253 C251 1.415 . S
C254 H244 0.930 . S
C254 C252 1.419 . S
C254 C255 1.362 . S
C255 H245 0.930 . S
C255 C248 1.409 . S
C255 C254 1.362 . S
H256 C262 0.930 . S
H257 C265 0.930 . S
H258 C266 0.930 . S
H259 C267 0.930 . S
H260 C270 0.930 . S
H261 C271 0.930 . S
C262 H256 0.930 . S
C262 C263 1.355 . S
C262 C264 1.415 . S
C263 C262 1.355 . S
C263 C265 1.419 . S
C264 C262 1.415 . S
C264 C269 1.425 . S
C264 C271 1.409 . S
C265 H257 0.930 . S
C265 C263 1.419 . S
C265 C266 1.362 . S
C266 H258 0.930 . S
C266 C265 1.362 . S
C266 C269 1.409 . S
C267 H259 0.930 . S
C267 C268 1.355 . S
C267 C269 1.415 . S
C268 C267 1.355 . S
C268 C270 1.419 . S
C269 C264 1.425 . S
C269 C266 1.409 . S
C269 C267 1.415 . S
C270 H260 0.930 . S
C270 C268 1.419 . S
C270 C271 1.362 . S
C271 H261 0.930 . S
C271 C264 1.409 . S
C271 C270 1.362 . S
H272 C278 0.930 . S
H273 C281 0.930 . S
H274 C282 0.930 . S
H275 C283 0.930 . S
H276 C286 0.930 . S
H277 C287 0.930 . S
C278 H272 0.930 . S
C278 C279 1.355 . S
C278 C280 1.415 . S
C279 C278 1.355 . S
C279 C281 1.419 . S
C280 C278 1.415 . S
C280 C285 1.425 . S
C280 C287 1.409 . S
C281 H273 0.930 . S
C281 C279 1.419 . S
C281 C282 1.362 . S
C282 H274 0.930 . S
C282 C281 1.362 . S
C282 C285 1.409 . S
C283 H275 0.930 . S
C283 C284 1.355 . S
C283 C285 1.415 . S
C284 C283 1.355 . S
C284 C286 1.419 . S
C285 C280 1.425 . S
C285 C282 1.409 . S
C285 C283 1.415 . S
C286 H276 0.930 . S
C286 C284 1.419 . S
C286 C287 1.362 . S
C287 H277 0.930 . S
C287 C280 1.409 . S
C287 C286 1.362 . S
H288 C294 0.930 . S
H289 C297 0.930 . S
H290 C298 0.930 . S
H291 C299 0.930 . S
H292 C302 0.930 . S
H293 C303 0.930 . S
C294 H288 0.930 . S
C294 C295 1.355 . S
C294 C296 1.415 . S
C295 C294 1.355 . S
C295 C297 1.419 . S
C296 C294 1.415 . S
C296 C301 1.425 . S
C296 C303 1.409 . S
C297 H289 0.930 . S
C297 C295 1.419 . S
C297 C298 1.362 . S
C298 H290 0.930 . S
C298 C297 1.362 . S
C298 C301 1.409 . S
C299 H291 0.930 . S
C299 C300 1.355 . S
C299 C301 1.415 . S
C300 C299 1.355 . S
C300 C302 1.419 . S
C301 C296 1.425 . S
C301 C298 1.409 . S
C301 C299 1.415 . S
C302 H292 0.930 . S
C302 C300 1.419 . S
C302 C303 1.362 . S
C303 H293 0.930 . S
C303 C296 1.409 . S
C303 C302 1.362 . S
H304 C310 0.930 . S
H305 C313 0.930 . S
H306 C314 0.930 . S
H307 C315 0.930 . S
H308 C318 0.930 . S
H309 C319 0.930 . S
C310 H304 0.930 . S
C310 C311 1.355 . S
C310 C312 1.415 . S
C311 C310 1.355 . S
C311 C313 1.419 . S
C312 C310 1.415 . S
C312 C317 1.425 . S
C312 C319 1.409 . S
C313 H305 0.930 . S
C313 C311 1.419 . S
C313 C314 1.362 . S
C314 H306 0.930 . S
C314 C313 1.362 . S
C314 C317 1.409 . S
C315 H307 0.930 . S
C315 C316 1.355 . S
C315 C317 1.415 . S
C316 C315 1.355 . S
C316 C318 1.419 . S
C317 C312 1.425 . S
C317 C314 1.409 . S
C317 C315 1.415 . S
C318 H308 0.930 . S
C318 C316 1.419 . S
C318 C319 1.362 . S
C319 H309 0.930 . S
C319 C312 1.409 . S
C319 C318 1.362 . S
H320 C326 0.930 . S
H321 C329 0.930 . S
H322 C330 0.930 . S
H323 C331 0.930 . S
H324 C334 0.930 . S
H325 C335 0.930 . S
C326 H320 0.930 . S
C326 C327 1.355 . S
C326 C328 1.415 . S
C327 C326 1.355 . S
C327 C329 1.419 . S
C328 C326 1.415 . S
C328 C333 1.425 . S
C328 C335 1.409 . S
C329 H321 0.930 . S
C329 C327 1.419 . S
C329 C330 1.362 . S
C330 H322 0.930 . S
C330 C329 1.362 . S
C330 C333 1.409 . S
C331 H323 0.930 . S
C331 C332 1.355 . S
C331 C333 1.415 . S
C332 C331 1.355 . S
C332 C334 1.419 . S
C333 C328 1.425 . S
C333 C330 1.409 . S
C333 C331 1.415 . S
C334 H324 0.930 . S
C334 C332 1.419 . S
C334 C335 1.362 . S
C335 H325 0.930 . S
C335 C328 1.409 . S
C335 C334 1.362 . S
H336 C342 0.930 . S
H337 C345 0.930 . S
H338 C346 0.930 . S
H339 C347 0.930 . S
H340 C350 0.930 . S
H341 C351 0.930 . S
C342 H336 0.930 . S
C342 C343 1.355 . S
C342 C344 1.415 . S
C343 C342 1.355 . S
C343 C345 1.419 . S
C344 C342 1.415 . S
C344 C349 1.425 1_565 S
C344 C351 1.409 . S
C345 H337 0.930 . S
C345 C343 1.419 . S
C345 C346 1.362 1_565 S
C346 H338 0.930 . S
C346 C345 1.362 1_545 S
C346 C349 1.409 . S
C347 H339 0.930 . S
C347 C348 1.355 . S
C347 C349 1.415 . S
C348 C347 1.355 . S
C348 C350 1.419 . S
C349 C344 1.425 1_545 S
C349 C346 1.409 . S
C349 C347 1.415 . S
C350 H340 0.930 . S
C350 C348 1.419 . S
C350 C351 1.362 1_545 S
C351 H341 0.930 . S
C351 C344 1.409 . S
C351 C350 1.362 1_565 S
H352 C358 0.930 . S
H353 C361 0.930 . S
H354 C362 0.930 . S
H355 C363 0.930 . S
H356 C366 0.930 . S
H357 C367 0.930 . S
C358 H352 0.930 . S
C358 C359 1.355 . S
C358 C360 1.415 . S
C359 C358 1.355 . S
C359 C361 1.419 . S
C360 C358 1.415 . S
C360 C365 1.425 . S
C360 C367 1.409 . S
C361 H353 0.930 . S
C361 C359 1.419 . S
C361 C362 1.362 . S
C362 H354 0.930 . S
C362 C361 1.362 . S
C362 C365 1.409 . S
C363 H355 0.930 . S
C363 C364 1.355 . S
C363 C365 1.415 . S
C364 C363 1.355 . S
C364 C366 1.419 . S
C365 C360 1.425 . S
C365 C362 1.409 . S
C365 C363 1.415 . S
C366 H356 0.930 . S
C366 C364 1.419 . S
C366 C367 1.362 . S
C367 H357 0.930 . S
C367 C360 1.409 . S
C367 C366 1.362 . S
H368 C374 0.930 . S
H369 C377 0.930 . S
H370 C378 0.930 . S
H371 C379 0.930 . S
H372 C382 0.930 . S
H373 C383 0.930 . S
C374 H368 0.930 . S
C374 C375 1.355 . S
C374 C376 1.415 1_556 S
C375 C374 1.355 . S
C375 C377 1.419 . S
C376 C374 1.415 1_554 S
C376 C381 1.423 1_554 S
C376 C383 1.409 . S
C377 H369 0.930 . S
C377 C375 1.419 . S
C377 C378 1.362 . S
C378 H370 0.930 . S
C378 C377 1.362 . S
C378 C381 1.424 . S
C379 H371 0.930 . S
C379 C380 1.355 . S
C379 C381 1.402 1_554 S
C380 C379 1.355 . S
C380 C382 1.419 . S
C381 C376 1.423 1_556 S
C381 C378 1.424 . S
C381 C379 1.402 1_556 S
C382 H372 0.930 . S
C382 C380 1.419 . S
C382 C383 1.362 . S
C383 H373 0.930 . S
C383 C376 1.409 . S
C383 C382 1.362 . S
H384 C390 0.930 . S
H385 C393 0.930 . S
H386 C394 0.930 . S
H387 C395 0.930 . S
H388 C398 0.930 . S
H389 C399 0.930 . S
C390 H384 0.930 . S
C390 C391 1.355 . S
C390 C392 1.415 . S
C391 C390 1.355 . S
C391 C393 1.419 . S
C392 C390 1.415 . S
C392 C397 1.425 1_554 S
C392 C399 1.409 . S
C393 H385 0.930 . S
C393 C391 1.419 . S
C393 C394 1.362 1_554 S
C394 H386 0.930 . S
C394 C393 1.362 1_556 S
C394 C397 1.409 . S
C395 H387 0.930 . S
C395 C396 1.355 . S
C395 C397 1.415 . S
C396 C395 1.355 . S
C396 C398 1.419 . S
C397 C392 1.425 1_556 S
C397 C394 1.409 . S
C397 C395 1.415 . S
C398 H388 0.930 . S
C398 C396 1.419 . S
C398 C399 1.362 1_556 S
C399 H389 0.930 . S
C399 C392 1.409 . S
C399 C398 1.362 1_554 S
H400 C406 0.930 . S
H401 C409 0.930 . S
H402 C410 0.930 . S
H403 C411 0.930 . S
H404 C414 0.930 . S
H405 C415 0.930 . S
C406 H400 0.930 . S
C406 C407 1.355 . S
C406 C408 1.415 . S
C407 C406 1.355 . S
C407 C409 1.419 . S
C408 C406 1.415 . S
C408 C413 1.425 . S
C408 C415 1.409 . S
C409 H401 0.930 . S
C409 C407 1.419 . S
C409 C410 1.362 . S
C410 H402 0.930 . S
C410 C409 1.362 . S
C410 C413 1.409 . S
C411 H403 0.930 . S
C411 C412 1.355 . S
C411 C413 1.415 . S
C412 C411 1.355 . S
C412 C414 1.419 . S
C413 C408 1.425 . S
C413 C410 1.409 . S
C413 C411 1.415 . S
C414 H404 0.930 . S
C414 C412 1.419 . S
C414 C415 1.362 . S
C415 H405 0.930 . S
C415 C408 1.409 . S
C415 C414 1.362 . S
H416 C422 0.930 . S
H417 C425 0.930 . S
H418 C426 0.930 . S
H419 C427 0.930 . S
H420 C430 0.930 . S
H421 C431 0.930 . S
C422 H416 0.930 . S
C422 C423 1.355 . S
C422 C424 1.415 . S
C423 C422 1.355 . S
C423 C425 1.419 . S
C424 C422 1.415 . S
C424 C429 1.425 . S
C424 C431 1.409 . S
C425 H417 0.930 . S
C425 C423 1.419 . S
C425 C426 1.362 . S
C426 H418 0.930 . S
C426 C425 1.362 . S
C426 C429 1.409 . S
C427 H419 0.930 . S
C427 C428 1.355 . S
C427 C429 1.415 . S
C428 C427 1.355 . S
C428 C430 1.419 . S
C429 C424 1.425 . S
C429 C426 1.409 . S
C429 C427 1.415 . S
C430 H420 0.930 . S
C430 C428 1.419 . S
C430 C431 1.362 . S
C431 H421 0.930 . S
C431 C424 1.409 . S
C431 C430 1.362 . S
H432 C438 0.930 . S
H433 C441 0.930 . S
H434 C442 0.930 . S
H435 C443 0.930 . S
H436 C446 0.930 . S
H437 C447 0.930 . S
C438 H432 0.930 . S
C438 C439 1.355 . S
C438 C440 1.415 1_655 S
C439 C438 1.355 . S
C439 C441 1.419 . S
C440 C438 1.415 1_455 S
C440 C445 1.425 1_455 S
C440 C447 1.409 . S
C441 H433 0.930 . S
C441 C439 1.419 . S
C441 C442 1.362 . S
C442 H434 0.930 . S
C442 C441 1.362 . S
C442 C445 1.409 . S
C443 H435 0.930 . S
C443 C444 1.355 . S
C443 C445 1.415 1_455 S
C444 C443 1.355 . S
C444 C446 1.419 . S
C445 C440 1.425 1_655 S
C445 C442 1.409 . S
C445 C443 1.415 1_655 S
C446 H436 0.930 . S
C446 C444 1.419 . S
C446 C447 1.362 . S
C447 H437 0.930 . S
C447 C440 1.409 . S
C447 C446 1.362 . S
H448 C454 0.930 . S
H449 C457 0.930 . S
H450 C458 0.930 . S
H451 C459 0.930 . S
H452 C462 0.930 . S
H453 C463 0.930 . S
C454 H448 0.930 . S
C454 C455 1.355 . S
C454 C456 1.415 . S
C455 C454 1.355 . S
C455 C457 1.419 . S
C456 C454 1.415 . S
C456 C461 1.425 1_655 S
C456 C463 1.409 1_655 S
C457 H449 0.930 . S
C457 C455 1.419 . S
C457 C458 1.362 . S
C458 H450 0.930 . S
C458 C457 1.362 . S
C458 C461 1.409 1_655 S
C459 H451 0.930 . S
C459 C460 1.355 . S
C459 C461 1.415 . S
C460 C459 1.355 . S
C460 C462 1.419 . S
C461 C456 1.425 1_455 S
C461 C458 1.409 1_455 S
C461 C459 1.415 . S
C462 H452 0.930 . S
C462 C460 1.419 . S
C462 C463 1.362 . S
C463 H453 0.930 . S
C463 C456 1.409 1_455 S
C463 C462 1.362 . S
H464 C470 0.930 . S
H465 C473 0.930 . S
H466 C474 0.930 . S
H467 C475 0.930 . S
H468 C478 0.930 . S
H469 C479 0.930 . S
C470 H464 0.930 . S
C470 C471 1.355 . S
C470 C472 1.415 . S
C471 C470 1.355 . S
C471 C473 1.419 . S
C472 C470 1.415 . S
C472 C477 1.425 . S
C472 C479 1.409 . S
C473 H465 0.930 . S
C473 C471 1.419 . S
C473 C474 1.362 . S
C474 H466 0.930 . S
C474 C473 1.362 . S
C474 C477 1.409 . S
C475 H467 0.930 . S
C475 C476 1.355 . S
C475 C477 1.415 . S
C476 C475 1.355 . S
C476 C478 1.419 . S
C477 C472 1.425 . S
C477 C474 1.409 . S
C477 C475 1.415 . S
C478 H468 0.930 . S
C478 C476 1.419 . S
C478 C479 1.362 . S
C479 H469 0.930 . S
C479 C472 1.409 . S
C479 C478 1.362 . S
H480 C486 0.930 . S
H481 C489 0.930 . S
H482 C490 0.930 . S
H483 C491 0.930 . S
H484 C494 0.930 . S
H485 C495 0.930 . S
C486 H480 0.930 . S
C486 C487 1.355 . S
C486 C488 1.415 . S
C487 C486 1.355 . S
C487 C489 1.419 . S
C488 C486 1.415 . S
C488 C493 1.425 . S
C488 C495 1.409 1_545 S
C489 H481 0.930 . S
C489 C487 1.419 . S
C489 C490 1.362 . S
C490 H482 0.930 . S
C490 C489 1.362 . S
C490 C493 1.409 . S
C491 H483 0.930 . S
C491 C492 1.355 . S
C491 C493 1.415 1_565 S
C492 C491 1.355 . S
C492 C494 1.419 . S
C493 C488 1.425 . S
C493 C490 1.409 . S
C493 C491 1.415 1_545 S
C494 H484 0.930 . S
C494 C492 1.419 . S
C494 C495 1.362 . S
C495 H485 0.930 . S
C495 C488 1.409 1_565 S
C495 C494 1.362 . S
H496 C502 0.930 . S
H497 C505 0.930 . S
H498 C506 0.930 . S
H499 C507 0.930 . S
H500 C510 0.930 . S
H501 C511 0.930 . S
C502 H496 0.930 . S
C502 C503 1.355 . S
C502 C504 1.415 . S
C503 C502 1.355 . S
C503 C505 1.419 . S
C504 C502 1.415 . S
C504 C509 1.425 . S
C504 C511 1.409 . S
C505 H497 0.930 . S
C505 C503 1.419 . S
C505 C506 1.362 . S
C506 H498 0.930 . S
C506 C505 1.362 . S
C506 C509 1.409 . S
C507 H499 0.930 . S
C507 C508 1.355 . S
C507 C509 1.415 . S
C508 C507 1.355 . S
C508 C510 1.419 . S
C509 C504 1.425 . S
C509 C506 1.409 . S
C509 C507 1.415 . S
C510 H500 0.930 . S
C510 C508 1.419 . S
C510 C511 1.362 . S
C511 H501 0.930 . S
C511 C504 1.409 . S
C511 C510 1.362 . S
H512 C518 0.930 . S
H513 C521 0.930 . S
H514 C522 0.930 . S
H515 C523 0.930 . S
H516 C526 0.930 . S
H517 C527 0.930 . S
C518 H512 0.930 . S
C518 C519 1.355 . S
C518 C520 1.415 . S
C519 C518 1.355 . S
C519 C521 1.419 . S
C520 C518 1.415 . S
C520 C525 1.425 1_554 S
C520 C527 1.409 . S
C521 H513 0.930 . S
C521 C519 1.419 . S
C521 C522 1.362 1_554 S
C522 H514 0.930 . S
C522 C521 1.362 1_556 S
C522 C525 1.409 . S
C523 H515 0.930 . S
C523 C524 1.355 . S
C523 C525 1.415 . S
C524 C523 1.355 . S
C524 C526 1.419 . S
C525 C520 1.425 1_556 S
C525 C522 1.409 . S
C525 C523 1.415 . S
C526 H516 0.930 . S
C526 C524 1.419 . S
C526 C527 1.362 1_556 S
C527 H517 0.930 . S
C527 C520 1.409 . S
C527 C526 1.362 1_554 S
H528 C534 0.930 . S
H529 C537 0.930 . S
H530 C538 0.930 . S
H531 C539 0.930 . S
H532 C542 0.930 . S
H533 C543 0.930 . S
C534 H528 0.930 . S
C534 C535 1.355 . S
C534 C536 1.415 1_556 S
C535 C534 1.355 . S
C535 C537 1.419 . S
C536 C534 1.415 1_554 S
C536 C541 1.425 1_554 S
C536 C543 1.409 . S
C537 H529 0.930 . S
C537 C535 1.419 . S
C537 C538 1.362 . S
C538 H530 0.930 . S
C538 C537 1.362 . S
C538 C541 1.409 . S
C539 H531 0.930 . S
C539 C540 1.355 . S
C539 C541 1.415 1_554 S
C540 C539 1.355 . S
C540 C542 1.419 . S
C541 C536 1.425 1_556 S
C541 C538 1.409 . S
C541 C539 1.415 1_556 S
C542 H532 0.930 . S
C542 C540 1.419 . S
C542 C543 1.362 . S
C543 H533 0.930 . S
C543 C536 1.409 . S
C543 C542 1.362 . S
H544 C550 0.930 . S
H545 C553 0.930 . S
H546 C554 0.930 . S
H547 C555 0.930 . S
H548 C558 0.930 . S
H549 C559 0.930 . S
C550 H544 0.930 . S
C550 C551 1.355 . S
C550 C552 1.415 . S
C551 C550 1.355 . S
C551 C553 1.419 . S
C552 C550 1.415 . S
C552 C557 1.425 . S
C552 C559 1.409 . S
C553 H545 0.930 . S
C553 C551 1.419 . S
C553 C554 1.362 . S
C554 H546 0.930 . S
C554 C553 1.362 . S
C554 C557 1.409 . S
C555 H547 0.930 . S
C555 C556 1.355 . S
C555 C557 1.415 . S
C556 C555 1.355 . S
C556 C558 1.419 . S
C557 C552 1.425 . S
C557 C554 1.409 . S
C557 C555 1.415 . S
C558 H548 0.930 . S
C558 C556 1.419 . S
C558 C559 1.362 . S
C559 H549 0.930 . S
C559 C552 1.409 . S
C559 C558 1.362 . S
H560 C566 0.930 . S
H561 C569 0.930 . S
H562 C570 0.930 . S
H563 C571 0.930 . S
H564 C574 0.930 . S
H565 C575 0.930 . S
C566 H560 0.930 . S
C566 C567 1.355 . S
C566 C568 1.415 . S
C567 C566 1.355 . S
C567 C569 1.419 . S
C568 C566 1.415 . S
C568 C573 1.425 . S
C568 C575 1.409 . S
C569 H561 0.930 . S
C569 C567 1.419 . S
C569 C570 1.362 . S
C570 H562 0.930 . S
C570 C569 1.362 . S
C570 C573 1.409 . S
C571 H563 0.930 . S
C571 C572 1.355 . S
C571 C573 1.415 . S
C572 C571 1.355 . S
C572 C574 1.419 . S
C573 C568 1.425 . S
C573 C570 1.409 . S
C573 C571 1.415 . S
C574 H564 0.930 . S
C574 C572 1.419 . S
C574 C575 1.362 . S
C575 H565 0.930 . S
C575 C568 1.409 . S
C575 C574 1.362 . S
H576 C582 0.930 . S
H577 C585 0.930 . S
H578 C586 0.930 . S
H579 C587 0.930 . S
H580 C590 0.930 . S
H581 C591 0.930 . S
C582 H576 0.930 . S
C582 C583 1.355 . S
C582 C584 1.415 . S
C583 C582 1.355 . S
C583 C585 1.419 . S
C584 C582 1.415 . S
C584 C589 1.425 1_455 S
C584 C591 1.409 . S
C585 H577 0.930 . S
C585 C583 1.419 . S
C585 C586 1.362 1_455 S
C586 H578 0.930 . S
C586 C585 1.362 1_655 S
C586 C589 1.409 . S
C587 H579 0.930 . S
C587 C588 1.355 . S
C587 C589 1.415 . S
C588 C587 1.355 . S
C588 C590 1.419 . S
C589 C584 1.425 1_655 S
C589 C586 1.409 . S
C589 C587 1.415 . S
C590 H580 0.930 . S
C590 C588 1.419 . S
C590 C591 1.362 1_655 S
C591 H581 0.930 . S
C591 C584 1.409 . S
C591 C590 1.362 1_455 S
H592 C598 0.930 . S
H593 C601 0.930 . S
H594 C602 0.930 . S
H595 C603 0.930 . S
H596 C606 0.930 . S
H597 C607 0.930 . S
C598 H592 0.930 . S
C598 C599 1.355 . S
C598 C600 1.415 1_455 S
C599 C598 1.355 . S
C599 C601 1.419 . S
C600 C598 1.415 1_655 S
C600 C605 1.425 1_655 S
C600 C607 1.409 . S
C601 H593 0.930 . S
C601 C599 1.419 . S
C601 C602 1.362 . S
C602 H594 0.930 . S
C602 C601 1.362 . S
C602 C605 1.409 . S
C603 H595 0.930 . S
C603 C604 1.355 . S
C603 C605 1.415 1_655 S
C604 C603 1.355 . S
C604 C606 1.419 . S
C605 C600 1.425 1_455 S
C605 C602 1.409 . S
C605 C603 1.415 1_455 S
C606 H596 0.930 . S
C606 C604 1.419 . S
C606 C607 1.362 . S
C607 H597 0.930 . S
C607 C600 1.409 . S
C607 C606 1.362 . S
H608 C614 0.930 . S
H609 C617 0.930 . S
H610 C618 0.930 . S
H611 C619 0.930 . S
H612 C622 0.930 . S
H613 C623 0.930 . S
C614 H608 0.930 . S
C614 C615 1.355 . S
C614 C616 1.415 . S
C615 C614 1.355 . S
C615 C617 1.419 . S
C616 C614 1.415 . S
C616 C621 1.425 . S
C616 C623 1.409 . S
C617 H609 0.930 . S
C617 C615 1.419 . S
C617 C618 1.362 . S
C618 H610 0.930 . S
C618 C617 1.362 . S
C618 C621 1.409 . S
C619 H611 0.930 . S
C619 C620 1.355 . S
C619 C621 1.415 . S
C620 C619 1.355 . S
C620 C622 1.419 . S
C621 C616 1.425 . S
C621 C618 1.409 . S
C621 C619 1.415 . S
C622 H612 0.930 . S
C622 C620 1.419 . S
C622 C623 1.362 . S
C623 H613 0.930 . S
C623 C616 1.409 . S
C623 C622 1.362 . S
H624 C630 0.930 . S
H625 C633 0.930 . S
H626 C634 0.930 . S
H627 C635 0.930 . S
H628 C638 0.930 . S
H629 C639 0.930 . S
C630 H624 0.930 . S
C630 C631 1.355 . S
C630 C632 1.415 . S
C631 C630 1.355 . S
C631 C633 1.419 . S
C632 C630 1.415 . S
C632 C637 1.425 . S
C632 C639 1.409 . S
C633 H625 0.930 . S
C633 C631 1.419 . S
C633 C634 1.362 . S
C634 H626 0.930 . S
C634 C633 1.362 . S
C634 C637 1.409 . S
C635 H627 0.930 . S
C635 C636 1.355 . S
C635 C637 1.415 . S
C636 C635 1.355 . S
C636 C638 1.419 . S
C637 C632 1.425 . S
C637 C634 1.409 . S
C637 C635 1.415 . S
C638 H628 0.930 . S
C638 C636 1.419 . S
C638 C639 1.362 . S
C639 H629 0.930 . S
C639 C632 1.409 . S
C639 C638 1.362 . S
H640 C646 0.930 . S
H641 C649 0.930 . S
H642 C650 0.930 . S
H643 C651 0.930 . S
H644 C654 0.930 . S
H645 C655 0.930 . S
C646 H640 0.930 . S
C646 C647 1.355 . S
C646 C648 1.415 1_545 S
C647 C646 1.355 . S
C647 C649 1.419 . S
C648 C646 1.415 1_565 S
C648 C653 1.425 1_565 S
C648 C655 1.409 . S
C649 H641 0.930 . S
C649 C647 1.419 . S
C649 C650 1.362 . S
C650 H642 0.930 . S
C650 C649 1.362 . S
C650 C653 1.409 . S
C651 H643 0.930 . S
C651 C652 1.355 . S
C651 C653 1.415 1_565 S
C652 C651 1.355 . S
C652 C654 1.419 . S
C653 C648 1.425 1_545 S
C653 C650 1.409 . S
C653 C651 1.415 1_545 S
C654 H644 0.930 . S
C654 C652 1.419 . S
C654 C655 1.362 . S
C655 H645 0.930 . S
C655 C648 1.409 . S
C655 C654 1.362 . S
H656 C662 0.930 . S
H657 C665 0.930 . S
H658 C666 0.930 . S
H659 C667 0.930 . S
H660 C670 0.930 . S
H661 C671 0.930 . S
C662 H656 0.930 . S
C662 C663 1.355 . S
C662 C664 1.415 . S
C663 C662 1.355 . S
C663 C665 1.419 . S
C664 C662 1.415 . S
C664 C669 1.425 . S
C664 C671 1.409 . S
C665 H657 0.930 . S
C665 C663 1.419 . S
C665 C666 1.362 . S
C666 H658 0.930 . S
C666 C665 1.362 . S
C666 C669 1.409 . S
C667 H659 0.930 . S
C667 C668 1.355 . S
C667 C669 1.415 . S
C668 C667 1.355 . S
C668 C670 1.419 . S
C669 C664 1.425 . S
C669 C666 1.409 . S
C669 C667 1.415 . S
C670 H660 0.930 . S
C670 C668 1.419 . S
C670 C671 1.362 . S
C671 H661 0.930 . S
C671 C664 1.409 . S
C671 C670 1.362 . S
H672 C678 0.930 . S
H673 C681 0.930 . S
H674 C682 0.930 . S
H675 C683 0.930 . S
H676 C686 0.930 . S
H677 C687 0.930 . S
C678 H672 0.930 . S
C678 C679 1.355 . S
C678 C680 1.415 . S
C679 C678 1.355 . S
C679 C681 1.419 . S
C680 C678 1.415 . S
C680 C685 1.425 . S
C680 C687 1.409 . S
C681 H673 0.930 . S
C681 C679 1.419 . S
C681 C682 1.362 . S
C682 H674 0.930 . S
C682 C681 1.362 . S
C682 C685 1.409 . S
C683 H675 0.930 . S
C683 C684 1.355 . S
C683 C685 1.415 . S
C684 C683 1.355 . S
C684 C686 1.419 . S
C685 C680 1.425 . S
C685 C682 1.409 . S
C685 C683 1.415 . S
C686 H676 0.930 . S
C686 C684 1.419 . S
C686 C687 1.362 . S
C687 H677 0.930 . S
C687 C680 1.409 . S
C687 C686 1.362 . S
H688 C694 0.930 . S
H689 C697 0.930 . S
H690 C698 0.930 . S
H691 C699 0.930 . S
H692 C702 0.930 . S
H693 C703 0.930 1_545 S
C694 H688 0.930 . S
C694 C695 1.355 . S
C694 C696 1.415 . S
C695 C694 1.355 . S
C695 C697 1.419 . S
C696 C694 1.415 . S
C696 C701 1.425 1_545 S
C696 C703 1.409 1_545 S
C697 H689 0.930 . S
C697 C695 1.419 . S
C697 C698 1.362 1_545 S
C698 H690 0.930 . S
C698 C697 1.362 1_565 S
C698 C701 1.409 . S
C699 H691 0.930 . S
C699 C700 1.355 . S
C699 C701 1.415 . S
C700 C699 1.355 . S
C700 C702 1.419 . S
C701 C696 1.425 1_565 S
C701 C698 1.409 . S
C701 C699 1.415 . S
C702 H692 0.930 . S
C702 C700 1.419 . S
C702 C703 1.362 . S
C703 H693 0.930 1_565 S
C703 C696 1.409 1_565 S
C703 C702 1.362 . S
H704 C710 0.930 . S
H705 C713 0.930 . S
H706 C714 0.930 . S
H707 C715 0.930 . S
H708 C718 0.930 . S
H709 C719 0.930 . S
C710 H704 0.930 . S
C710 C711 1.355 . S
C710 C712 1.415 . S
C711 C710 1.355 . S
C711 C713 1.419 . S
C712 C710 1.415 . S
C712 C717 1.425 . S
C712 C719 1.409 . S
C713 H705 0.930 . S
C713 C711 1.419 . S
C713 C714 1.362 . S
C714 H706 0.930 . S
C714 C713 1.362 . S
C714 C717 1.409 . S
C715 H707 0.930 . S
C715 C716 1.355 . S
C715 C717 1.415 . S
C716 C715 1.355 . S
C716 C718 1.419 . S
C717 C712 1.425 . S
C717 C714 1.409 . S
C717 C715 1.415 . S
C718 H708 0.930 . S
C718 C716 1.419 . S
C718 C719 1.362 . S
C719 H709 0.930 . S
C719 C712 1.409 . S
C719 C718 1.362 . S
C215 C8 1.063 . S
C220 C177 1.108 . S
C231 C21 1.062 . S
C236 C125 1.108 . S
C247 C190 1.135 . S
C252 C34 1.119 . S
C263 C47 1.141 . S
C268 C203 1.102 . S
C279 C60 1.079 . S
C284 C86 1.098 . S
C295 C138 1.073 . S
C300 C73 1.058 . S
C311 C151 1.138 . S
C316 C99 1.116 . S
C327 C112 1.092 . S
C332 C164 1.153 . S
C343 C26 1.555 . S
C348 C5 1.553 . S
C359 C18 1.529 . S
C364 C39 1.525 . S
C375 C161 1.562 . S
C380 C10 1.523 . S
C391 C23 1.540 . S
C396 C148 1.587 . S
C407 C62 1.572 . S
C412 C31 1.559 . S
C423 C140 1.550 . S
C428 C44 1.583 . S
C439 C13 1.503 . S
C444 C0 1.510 . S
C455 C49 1.525 . S
C460 C36 1.490 . S
C471 C130 1.497 . S
C476 C52 1.519 . S
C487 C96 1.581 . S
C492 C65 1.613 . S
C503 C78 1.603 . S
C508 C109 1.601 . S
C519 C195 1.543 . S
C524 C75 1.530 . S
C535 C88 1.474 . S
C540 C182 1.564 . S
C551 C127 1.536 . S
C556 C91 1.540 . S
C567 C104 1.564 . S
C572 C179 1.474 . S
C583 C83 1.581 . S
C588 C70 1.598 . S
C599 C114 1.421 . S
C604 C101 1.434 . S
C615 C122 1.561 . S
C620 C174 1.545 . S
C631 C135 1.562 . S
C636 C143 1.562 . S
C647 C156 1.516 . S
C652 C57 1.533 . S
C663 C166 1.482 . S
C668 C153 1.485 . S
C679 C187 1.587 . S
C684 C169 1.577 . S
C695 C117 1.581 . S
C700 C200 1.594 . S
C711 C205 1.479 . S
C716 C192 1.466 . S
