# Generated by pormake.
# Topology svo, (7)-cn, num edge types: 1
# Building blocks:
#     Node 0, Type 0, BuildingBlock: NUHQUE_clean_sbu_2, # of connection points: 7
#     Node 1, Type 0, BuildingBlock: NUHQUE_clean_sbu_2, # of connection points: 7
#     Node 2, Type 0, BuildingBlock: NUHQUE_clean_sbu_2, # of connection points: 7
#     Node 3, Type 0, BuildingBlock: NUHQUE_clean_sbu_2, # of connection points: 7
#     Node 4, Type 0, BuildingBlock: NUHQUE_clean_sbu_2, # of connection points: 7
#     Node 5, Type 0, BuildingBlock: NUHQUE_clean_sbu_2, # of connection points: 7
#     Node 6, Type 0, BuildingBlock: NUHQUE_clean_sbu_2, # of connection points: 7
#     Node 7, Type 0, BuildingBlock: NUHQUE_clean_sbu_2, # of connection points: 7
#     Node 8, Type 0, BuildingBlock: NUHQUE_clean_sbu_2, # of connection points: 7
#     Node 9, Type 0, BuildingBlock: NUHQUE_clean_sbu_2, # of connection points: 7
#     Node 10, Type 0, BuildingBlock: NUHQUE_clean_sbu_2, # of connection points: 7
#     Node 11, Type 0, BuildingBlock: NUHQUE_clean_sbu_2, # of connection points: 7
#     Node 12, Type 0, BuildingBlock: NUHQUE_clean_sbu_2, # of connection points: 7
#     Node 13, Type 0, BuildingBlock: NUHQUE_clean_sbu_2, # of connection points: 7
#     Node 14, Type 0, BuildingBlock: NUHQUE_clean_sbu_2, # of connection points: 7
#     Node 15, Type 0, BuildingBlock: NUHQUE_clean_sbu_2, # of connection points: 7
#     Edge 16, Type (0, 0), BuildingBlock: UVAHIK_clean_linker_0, # of connection points: 2
#     Edge 17, Type (0, 0), BuildingBlock: UVAHIK_clean_linker_0, # of connection points: 2
#     Edge 18, Type (0, 0), BuildingBlock: UVAHIK_clean_linker_0, # of connection points: 2
#     Edge 19, Type (0, 0), BuildingBlock: UVAHIK_clean_linker_0, # of connection points: 2
#     Edge 20, Type (0, 0), BuildingBlock: UVAHIK_clean_linker_0, # of connection points: 2
#     Edge 21, Type (0, 0), BuildingBlock: UVAHIK_clean_linker_0, # of connection points: 2
#     Edge 22, Type (0, 0), BuildingBlock: UVAHIK_clean_linker_0, # of connection points: 2
#     Edge 23, Type (0, 0), BuildingBlock: UVAHIK_clean_linker_0, # of connection points: 2
#     Edge 24, Type (0, 0), BuildingBlock: UVAHIK_clean_linker_0, # of connection points: 2
#     Edge 25, Type (0, 0), BuildingBlock: UVAHIK_clean_linker_0, # of connection points: 2
#     Edge 26, Type (0, 0), BuildingBlock: UVAHIK_clean_linker_0, # of connection points: 2
#     Edge 27, Type (0, 0), BuildingBlock: UVAHIK_clean_linker_0, # of connection points: 2
#     Edge 28, Type (0, 0), BuildingBlock: UVAHIK_clean_linker_0, # of connection points: 2
#     Edge 29, Type (0, 0), BuildingBlock: UVAHIK_clean_linker_0, # of connection points: 2
#     Edge 30, Type (0, 0), BuildingBlock: UVAHIK_clean_linker_0, # of connection points: 2
#     Edge 31, Type (0, 0), BuildingBlock: UVAHIK_clean_linker_0, # of connection points: 2
#     Edge 32, Type (0, 0), BuildingBlock: UVAHIK_clean_linker_0, # of connection points: 2
#     Edge 33, Type (0, 0), BuildingBlock: UVAHIK_clean_linker_0, # of connection points: 2
#     Edge 34, Type (0, 0), BuildingBlock: UVAHIK_clean_linker_0, # of connection points: 2
#     Edge 35, Type (0, 0), BuildingBlock: UVAHIK_clean_linker_0, # of connection points: 2
#     Edge 36, Type (0, 0), BuildingBlock: UVAHIK_clean_linker_0, # of connection points: 2
#     Edge 37, Type (0, 0), BuildingBlock: UVAHIK_clean_linker_0, # of connection points: 2
#     Edge 38, Type (0, 0), BuildingBlock: UVAHIK_clean_linker_0, # of connection points: 2
#     Edge 39, Type (0, 0), BuildingBlock: UVAHIK_clean_linker_0, # of connection points: 2
#     Edge 40, Type (0, 0), BuildingBlock: UVAHIK_clean_linker_0, # of connection points: 2
#     Edge 41, Type (0, 0), BuildingBlock: UVAHIK_clean_linker_0, # of connection points: 2
#     Edge 42, Type (0, 0), BuildingBlock: UVAHIK_clean_linker_0, # of connection points: 2
#     Edge 43, Type (0, 0), BuildingBlock: UVAHIK_clean_linker_0, # of connection points: 2
#     Edge 44, Type (0, 0), BuildingBlock: UVAHIK_clean_linker_0, # of connection points: 2
#     Edge 45, Type (0, 0), BuildingBlock: UVAHIK_clean_linker_0, # of connection points: 2
#     Edge 46, Type (0, 0), BuildingBlock: UVAHIK_clean_linker_0, # of connection points: 2
#     Edge 47, Type (0, 0), BuildingBlock: UVAHIK_clean_linker_0, # of connection points: 2
#     Edge 48, Type (0, 0), BuildingBlock: UVAHIK_clean_linker_0, # of connection points: 2
#     Edge 49, Type (0, 0), BuildingBlock: UVAHIK_clean_linker_0, # of connection points: 2
#     Edge 50, Type (0, 0), BuildingBlock: UVAHIK_clean_linker_0, # of connection points: 2
#     Edge 51, Type (0, 0), BuildingBlock: UVAHIK_clean_linker_0, # of connection points: 2
#     Edge 52, Type (0, 0), BuildingBlock: UVAHIK_clean_linker_0, # of connection points: 2
#     Edge 53, Type (0, 0), BuildingBlock: UVAHIK_clean_linker_0, # of connection points: 2
#     Edge 54, Type (0, 0), BuildingBlock: UVAHIK_clean_linker_0, # of connection points: 2
#     Edge 55, Type (0, 0), BuildingBlock: UVAHIK_clean_linker_0, # of connection points: 2
#     Edge 56, Type (0, 0), BuildingBlock: UVAHIK_clean_linker_0, # of connection points: 2
#     Edge 57, Type (0, 0), BuildingBlock: UVAHIK_clean_linker_0, # of connection points: 2
#     Edge 58, Type (0, 0), BuildingBlock: UVAHIK_clean_linker_0, # of connection points: 2
#     Edge 59, Type (0, 0), BuildingBlock: UVAHIK_clean_linker_0, # of connection points: 2
#     Edge 60, Type (0, 0), BuildingBlock: UVAHIK_clean_linker_0, # of connection points: 2
#     Edge 61, Type (0, 0), BuildingBlock: UVAHIK_clean_linker_0, # of connection points: 2
#     Edge 62, Type (0, 0), BuildingBlock: UVAHIK_clean_linker_0, # of connection points: 2
#     Edge 63, Type (0, 0), BuildingBlock: UVAHIK_clean_linker_0, # of connection points: 2
#     Edge 64, Type (0, 0), BuildingBlock: UVAHIK_clean_linker_0, # of connection points: 2
#     Edge 65, Type (0, 0), BuildingBlock: UVAHIK_clean_linker_0, # of connection points: 2
#     Edge 66, Type (0, 0), BuildingBlock: UVAHIK_clean_linker_0, # of connection points: 2
#     Edge 67, Type (0, 0), BuildingBlock: UVAHIK_clean_linker_0, # of connection points: 2
#     Edge 68, Type (0, 0), BuildingBlock: UVAHIK_clean_linker_0, # of connection points: 2
#     Edge 69, Type (0, 0), BuildingBlock: UVAHIK_clean_linker_0, # of connection points: 2
#     Edge 70, Type (0, 0), BuildingBlock: UVAHIK_clean_linker_0, # of connection points: 2
#     Edge 71, Type (0, 0), BuildingBlock: UVAHIK_clean_linker_0, # of connection points: 2
# Relax obj value: 0.171
# Max RMSD: 0.277
# Mean RMSD: 0.277
data_MOF--net-svo--node1-NUHQUE_clean_sbu_2--edge1-UVAHIK_clean_linker_0
_symmetry_space_group_name_H-M    P1
_symmetry_Int_Tables_number       1
_symmetry_cell_setting            triclinic
loop_
_symmetry_equiv_pos_as_xyz
'x, y, z'
_cell_length_a     46.995611
_cell_length_b     46.912422
_cell_length_c     70.574652
_cell_angle_alpha  90.011162
_cell_angle_beta   90.016202
_cell_angle_gamma 89.98387
loop_
_atom_site_label
_atom_site_type_symbol
_atom_site_fract_x
_atom_site_fract_y
_atom_site_fract_z
_atom_type_partial_charge
O0 O 0.21979 0.25462 0.11708 0.0
Tb1 Tb 0.23996 0.29308 0.12791 0.0
Eu2 Eu 0.18163 0.34582 0.14638 0.0
C3 C 0.22012 0.23164 0.1278 0.0
O4 O 0.23088 0.23342 0.14493 0.0
C5 C 0.2234 0.30675 0.16978 0.0
O6 O 0.18739 0.39339 0.14411 0.0
C7 C 0.1326 0.33368 0.16126 0.0
C8 C 0.21299 0.40422 0.14191 0.0
O9 O 0.23471 0.38682 0.13994 0.0
C10 C 0.20255 0.3334 0.10455 0.0
C11 C 0.10219 0.33626 0.15627 0.0
C12 C 0.08303 0.31476 0.16177 0.0
C13 C 0.05375 0.3182 0.15861 0.0
C14 C 0.04376 0.34288 0.14964 0.0
C15 C 0.06255 0.36438 0.14386 0.0
C16 C 0.09183 0.36089 0.14716 0.0
O17 O 0.22537 0.28682 0.15681 0.0
O18 O 0.21793 0.33336 0.16542 0.0
O19 O 0.28345 0.29898 0.13864 0.0
O20 O 0.27689 0.27475 0.11361 0.0
C21 C 0.29592 0.28414 0.12542 0.0
O22 O 0.17987 0.33624 0.11521 0.0
O23 O 0.22784 0.33112 0.1123 0.0
O24 O 0.14621 0.35769 0.16435 0.0
O25 O 0.14772 0.31494 0.15172 0.0
H26 H 0.09074 0.29593 0.16905 0.0
H27 H 0.02103 0.34566 0.14767 0.0
H28 H 0.10649 0.37752 0.14287 0.0
O29 O 0.76453 0.22144 0.1511 0.0
Tb30 Tb 0.72591 0.23576 0.13709 0.0
Eu31 Eu 0.65036 0.17901 0.1381 0.0
C32 C 0.77756 0.23832 0.16319 0.0
O33 O 0.7655 0.26259 0.16782 0.0
C34 C 0.68307 0.21225 0.16641 0.0
O35 O 0.60523 0.19531 0.13692 0.0
C36 C 0.65495 0.12416 0.13441 0.0
C37 C 0.58866 0.19069 0.12222 0.0
O38 O 0.59864 0.17615 0.10775 0.0
C39 C 0.69442 0.19904 0.10548 0.0
C40 C 0.6548 0.09824 0.12249 0.0
C41 C 0.67908 0.08066 0.12256 0.0
C42 C 0.67823 0.0533 0.11452 0.0
C43 C 0.65289 0.04373 0.1062 0.0
C44 C 0.62822 0.06053 0.10653 0.0
C45 C 0.62944 0.08811 0.11424 0.0
O46 O 0.68639 0.22329 0.14955 0.0
O47 O 0.66456 0.19171 0.16727 0.0
O48 O 0.71973 0.28061 0.14419 0.0
O49 O 0.73642 0.26982 0.11711 0.0
C50 C 0.72923 0.29074 0.12826 0.0
O51 O 0.66984 0.20482 0.11384 0.0
O52 O 0.719 0.20811 0.11259 0.0
O53 O 0.63069 0.13721 0.13769 0.0
O54 O 0.67693 0.14145 0.13346 0.0
H55 H 0.69821 0.08764 0.1298 0.0
H56 H 0.65166 0.02213 0.10077 0.0
H57 H 0.61011 0.10065 0.11513 0.0
O58 O 0.75112 0.75865 0.11917 0.0
Tb59 Tb 0.73286 0.71653 0.11512 0.0
Eu60 Eu 0.80497 0.65031 0.10802 0.0
C61 C 0.74783 0.77321 0.13494 0.0
O62 O 0.73459 0.76144 0.14931 0.0
C63 C 0.77504 0.68285 0.14042 0.0
O64 O 0.80276 0.60328 0.11404 0.0
C65 C 0.85278 0.6669 0.09325 0.0
C66 C 0.80374 0.58494 0.09997 0.0
O67 O 0.80735 0.59445 0.08263 0.0
C68 C 0.76556 0.69006 0.08258 0.0
C69 C 0.88343 0.66088 0.0943 0.0
C70 C 0.90257 0.68362 0.09221 0.0
C71 C 0.93196 0.67884 0.09316 0.0
C72 C 0.94206 0.65118 0.09645 0.0
C73 C 0.92324 0.6283 0.0991 0.0
C74 C 0.89378 0.6332 0.09779 0.0
O75 O 0.75436 0.68038 0.12806 0.0
O76 O 0.79888 0.66895 0.13723 0.0
O77 O 0.69375 0.72588 0.13064 0.0
O78 O 0.69096 0.70932 0.10259 0.0
C79 C 0.67644 0.71849 0.11709 0.0
O80 O 0.76553 0.66871 0.09457 0.0
O81 O 0.74961 0.71235 0.08651 0.0
O82 O 0.84145 0.67883 0.10828 0.0
O83 O 0.83653 0.64729 0.08556 0.0
H84 H 0.89461 0.70501 0.08977 0.0
H85 H 0.96482 0.64757 0.09731 0.0
H86 H 0.87899 0.61577 0.09991 0.0
O87 O 0.21511 0.76542 0.11821 0.0
Tb88 Tb 0.25733 0.75707 0.12908 0.0
Eu89 Eu 0.32589 0.82919 0.12065 0.0
C90 C 0.19744 0.78235 0.12723 0.0
O91 O 0.20584 0.79493 0.1429 0.0
C92 C 0.29547 0.79668 0.15448 0.0
O93 O 0.37226 0.8237 0.11345 0.0
C94 C 0.30526 0.87979 0.11494 0.0
C95 C 0.3814 0.79868 0.10766 0.0
O96 O 0.3629 0.77808 0.10505 0.0
C97 C 0.29497 0.77505 0.09769 0.0
C98 C 0.31396 0.90749 0.10712 0.0
C99 C 0.29345 0.92896 0.10476 0.0
C100 C 0.3012 0.95562 0.09737 0.0
C101 C 0.32972 0.96069 0.09262 0.0
C102 C 0.35063 0.93958 0.09507 0.0
C103 C 0.34246 0.91278 0.10222 0.0
O104 O 0.27428 0.79589 0.14228 0.0
O105 O 0.3179 0.81274 0.15055 0.0
O106 O 0.23792 0.72445 0.147 0.0
O107 O 0.2796 0.71756 0.13622 0.0
C108 C 0.259 0.70647 0.14613 0.0
O109 O 0.29782 0.79318 0.11162 0.0
O110 O 0.27652 0.75475 0.10103 0.0
O111 O 0.31745 0.87202 0.13094 0.0
O112 O 0.30262 0.85884 0.10268 0.0
H113 H 0.27151 0.92494 0.10867 0.0
H114 H 0.33581 0.9818 0.08788 0.0
H115 H 0.35816 0.89608 0.10409 0.0
O116 O 0.27465 0.76002 0.36348 0.0
Tb117 Tb 0.2801 0.71423 0.3658 0.0
Eu118 Eu 0.18668 0.67636 0.37097 0.0
C119 C 0.2512 0.77261 0.35772 0.0
O120 O 0.23 0.75733 0.3511 0.0
C121 C 0.23125 0.68947 0.33922 0.0
O122 O 0.19233 0.63076 0.38022 0.0
C123 C 0.13556 0.69603 0.37534 0.0
C124 C 0.21796 0.62094 0.38392 0.0
O125 O 0.23968 0.63851 0.38308 0.0
C126 C 0.23608 0.70395 0.39576 0.0
C127 C 0.10753 0.68759 0.38264 0.0
C128 C 0.08799 0.70895 0.38761 0.0
C129 C 0.06115 0.70171 0.39482 0.0
C130 C 0.05401 0.67289 0.39698 0.0
C131 C 0.07305 0.65125 0.39168 0.0
C132 C 0.09999 0.65874 0.38459 0.0
O133 O 0.24862 0.68508 0.35364 0.0
O134 O 0.2042 0.68258 0.34142 0.0
O135 O 0.31995 0.70663 0.35039 0.0
O136 O 0.3191 0.70163 0.3803 0.0
C137 C 0.33518 0.70075 0.36532 0.0
O138 O 0.22076 0.70679 0.38039 0.0
O139 O 0.26351 0.70861 0.39432 0.0
O140 O 0.14427 0.6836 0.35963 0.0
O141 O 0.15573 0.69911 0.38807 0.0
H142 H 0.09361 0.7312 0.38577 0.0
H143 H 0.03279 0.6673 0.40174 0.0
H144 H 0.11494 0.64225 0.38049 0.0
O145 O 0.2231 0.24841 0.3756 0.0
Tb146 Tb 0.26497 0.26198 0.38496 0.0
Eu147 Eu 0.33045 0.18687 0.3864 0.0
C148 C 0.21209 0.2576 0.35961 0.0
O149 O 0.22738 0.27407 0.34856 0.0
C150 C 0.29936 0.22444 0.35715 0.0
O151 O 0.37765 0.18926 0.3811 0.0
C152 C 0.31331 0.13639 0.39626 0.0
C153 C 0.39432 0.19831 0.39479 0.0
O154 O 0.38294 0.20448 0.41128 0.0
C155 C 0.29082 0.22189 0.41498 0.0
C156 C 0.32237 0.10666 0.39349 0.0
C157 C 0.30181 0.08484 0.39318 0.0
C158 C 0.31015 0.0564 0.39053 0.0
C159 C 0.33895 0.05006 0.38776 0.0
C160 C 0.35958 0.07161 0.38753 0.0
C161 C 0.35125 0.09995 0.39064 0.0
O162 O 0.30116 0.24121 0.3719 0.0
O163 O 0.31268 0.19985 0.35792 0.0
O164 O 0.26982 0.30362 0.37148 0.0
O165 O 0.26517 0.30145 0.40145 0.0
C166 C 0.2681 0.3185 0.38701 0.0
O167 O 0.31296 0.22352 0.40368 0.0
O168 O 0.26912 0.23914 0.41184 0.0
O169 O 0.30412 0.14958 0.38104 0.0
O170 O 0.32969 0.1524 0.40699 0.0
H171 H 0.2795 0.08992 0.39521 0.0
H172 H 0.34532 0.02805 0.38565 0.0
H173 H 0.36707 0.11677 0.39044 0.0
O174 O 0.76419 0.24212 0.35949 0.0
Tb175 Tb 0.74447 0.28152 0.36894 0.0
Eu176 Eu 0.80555 0.35478 0.37592 0.0
C177 C 0.7573 0.23025 0.34325 0.0
O178 O 0.73954 0.24342 0.3319 0.0
C179 C 0.7764 0.32485 0.34337 0.0
O180 O 0.79752 0.40175 0.3718 0.0
C181 C 0.85734 0.34374 0.38635 0.0
C182 C 0.77705 0.41424 0.38142 0.0
O183 O 0.7621 0.39895 0.39342 0.0
C184 C 0.77568 0.30966 0.40305 0.0
C185 C 0.8866 0.35104 0.38029 0.0
C186 C 0.90493 0.32917 0.37408 0.0
C187 C 0.93239 0.33569 0.36765 0.0
C188 C 0.94173 0.36399 0.36781 0.0
C189 C 0.92419 0.38596 0.37447 0.0
C190 C 0.89653 0.37941 0.38066 0.0
O191 O 0.76004 0.32169 0.35824 0.0
O192 O 0.79842 0.34159 0.34555 0.0
O193 O 0.70268 0.27777 0.35548 0.0
O194 O 0.70548 0.27815 0.38558 0.0
C195 C 0.68825 0.27622 0.3712 0.0
O196 O 0.77127 0.33348 0.3936 0.0
O197 O 0.76488 0.28551 0.39658 0.0
O198 O 0.84281 0.32733 0.37476 0.0
O199 O 0.84185 0.36409 0.39402 0.0
H200 H 0.8978 0.30719 0.3741 0.0
H201 H 0.96336 0.36871 0.36344 0.0
H202 H 0.88283 0.39642 0.38562 0.0
O203 O 0.76699 0.78905 0.37601 0.0
Tb204 Tb 0.72735 0.7735 0.3639 0.0
Eu205 Eu 0.6745 0.82717 0.34685 0.0
C206 C 0.79039 0.78768 0.36579 0.0
O207 O 0.78889 0.7779 0.34839 0.0
C208 C 0.7193 0.79362 0.32169 0.0
O209 O 0.63563 0.79976 0.35088 0.0
C210 C 0.66206 0.87706 0.33343 0.0
C211 C 0.62034 0.80036 0.36646 0.0
O212 O 0.62817 0.81693 0.38053 0.0
C213 C 0.69293 0.81503 0.38844 0.0
C214 C 0.66042 0.90688 0.34031 0.0
C215 C 0.6838 0.92545 0.33841 0.0
C216 C 0.68193 0.95374 0.34477 0.0
C217 C 0.65643 0.96364 0.35269 0.0
C218 C 0.6326 0.94582 0.35406 0.0
C219 C 0.63486 0.91738 0.34802 0.0
O220 O 0.7369 0.79091 0.33601 0.0
O221 O 0.6923 0.79966 0.32388 0.0
O222 O 0.7129 0.73136 0.35414 0.0
O223 O 0.74652 0.73424 0.37421 0.0
C224 C 0.73089 0.71683 0.3644 0.0
O225 O 0.69431 0.83462 0.3753 0.0
O226 O 0.69538 0.78801 0.38396 0.0
O227 O 0.64285 0.85919 0.33996 0.0
O228 O 0.68755 0.86563 0.33198 0.0
H229 H 0.70338 0.91807 0.33195 0.0
H230 H 0.65471 0.98586 0.35678 0.0
H231 H 0.61651 0.9035 0.34915 0.0
O232 O 0.73209 0.71766 0.85848 0.0
Tb233 Tb 0.77672 0.72967 0.85979 0.0
Eu234 Eu 0.84679 0.71002 0.85047 0.0
C235 C 0.71691 0.72507 0.8436 0.0
O236 O 0.72937 0.73891 0.82972 0.0
C237 C 0.80251 0.727 0.81992 0.0
O238 O 0.89339 0.7218 0.85062 0.0
C239 C 0.83958 0.65554 0.84544 0.0
C240 C 0.91013 0.71276 0.86432 0.0
O241 O 0.89929 0.69665 0.87772 0.0
C242 C 0.81914 0.71117 0.89104 0.0
C243 C 0.84508 0.62791 0.85478 0.0
C244 C 0.82629 0.605 0.85169 0.0
C245 C 0.83212 0.57809 0.85946 0.0
C246 C 0.85681 0.57412 0.87022 0.0
C247 C 0.87608 0.59656 0.87322 0.0
C248 C 0.86984 0.62359 0.86564 0.0
O249 O 0.78384 0.7149 0.83113 0.0
O250 O 0.82735 0.73501 0.82656 0.0
O251 O 0.7967 0.77191 0.85646 0.0
O252 O 0.75701 0.7684 0.87067 0.0
C253 C 0.7765 0.78608 0.86501 0.0
O254 O 0.84041 0.72152 0.88111 0.0
O255 O 0.79443 0.70556 0.88313 0.0
O256 O 0.86192 0.66966 0.8393 0.0
O257 O 0.8201 0.67204 0.85305 0.0
H258 H 0.80755 0.60792 0.84293 0.0
H259 H 0.86173 0.5529 0.87535 0.0
H260 H 0.88457 0.64106 0.86778 0.0
O261 O 0.28236 0.75545 0.88443 0.0
Tb262 Tb 0.26372 0.79673 0.8775 0.0
Eu263 Eu 0.32145 0.85804 0.86181 0.0
C264 C 0.28641 0.73676 0.87075 0.0
O265 O 0.28109 0.7444 0.85321 0.0
C266 C 0.27619 0.82201 0.83872 0.0
O267 O 0.31502 0.90549 0.8647 0.0
C268 C 0.37088 0.8463 0.8474 0.0
C269 C 0.2902 0.91607 0.86967 0.0
O270 O 0.26951 0.89853 0.87422 0.0
C271 C 0.30116 0.83493 0.90235 0.0
C272 C 0.40067 0.84405 0.85416 0.0
C273 C 0.41555 0.81811 0.85224 0.0
C274 C 0.44393 0.81592 0.85833 0.0
C275 C 0.45757 0.83994 0.86584 0.0
C276 C 0.4435 0.86613 0.86721 0.0
C277 C 0.41485 0.86797 0.86175 0.0
O278 O 0.2836 0.80113 0.85001 0.0
O279 O 0.28572 0.84792 0.84167 0.0
O280 O 0.22243 0.80302 0.86354 0.0
O281 O 0.22405 0.7805 0.88958 0.0
C282 C 0.20739 0.7895 0.87615 0.0
O283 O 0.32288 0.84402 0.89231 0.0
O284 O 0.27571 0.83305 0.89478 0.0
O285 O 0.35955 0.87192 0.84717 0.0
O286 O 0.35306 0.82648 0.85313 0.0
H287 H 0.40515 0.79975 0.84598 0.0
H288 H 0.47973 0.83846 0.87005 0.0
H289 H 0.40404 0.88831 0.86279 0.0
O290 O 0.293 0.27909 0.88155 0.0
Tb291 Tb 0.24892 0.27256 0.87342 0.0
Eu292 Eu 0.18006 0.33943 0.87438 0.0
C293 C 0.31182 0.28866 0.86932 0.0
O294 O 0.30324 0.29648 0.8524 0.0
C295 C 0.21057 0.30534 0.84411 0.0
O296 O 0.14128 0.31151 0.87713 0.0
C297 C 0.16625 0.39294 0.87498 0.0
C298 C 0.12689 0.30914 0.89302 0.0
O299 O 0.13629 0.32202 0.90832 0.0
C300 C 0.21558 0.30451 0.90467 0.0
C301 C 0.16873 0.4216 0.88352 0.0
C302 C 0.19481 0.43632 0.88502 0.0
C303 C 0.1953 0.46453 0.89193 0.0
C304 C 0.16959 0.47788 0.89685 0.0
C305 C 0.14353 0.46383 0.89485 0.0
C306 C 0.14332 0.4355 0.88857 0.0
O307 O 0.22875 0.30716 0.85818 0.0
O308 O 0.18806 0.32173 0.84527 0.0
O309 O 0.25953 0.23696 0.85464 0.0
O310 O 0.22776 0.23118 0.87568 0.0
C311 C 0.242 0.21872 0.8622 0.0
O312 O 0.21721 0.32597 0.89271 0.0
O313 O 0.22936 0.2806 0.90089 0.0
O314 O 0.15297 0.37335 0.88494 0.0
O315 O 0.18707 0.38292 0.86439 0.0
H316 H 0.21444 0.42617 0.88062 0.0
H317 H 0.16972 0.49993 0.90148 0.0
H318 H 0.12312 0.4247 0.88659 0.0
O319 O 0.7634 0.26973 0.86526 0.0
Tb320 Tb 0.77781 0.22789 0.8746 0.0
Eu321 Eu 0.7128 0.15176 0.88158 0.0
C322 C 0.77746 0.28404 0.85223 0.0
O323 O 0.79858 0.27149 0.84334 0.0
C324 C 0.73917 0.18814 0.84931 0.0
O325 O 0.71802 0.10425 0.87702 0.0
C326 C 0.66393 0.16656 0.8958 0.0
C327 C 0.73527 0.0897 0.8881 0.0
O328 O 0.74862 0.10328 0.90175 0.0
C329 C 0.74558 0.19687 0.90697 0.0
C330 C 0.63363 0.15874 0.89714 0.0
C331 C 0.6131 0.18058 0.89667 0.0
C332 C 0.5841 0.17419 0.89873 0.0
C333 C 0.5758 0.14574 0.90107 0.0
C334 C 0.5959 0.12362 0.90134 0.0
C335 C 0.62492 0.13023 0.89928 0.0
O336 O 0.75843 0.18983 0.86274 0.0
O337 O 0.71833 0.16985 0.85202 0.0
O338 O 0.82074 0.2222 0.86295 0.0
O339 O 0.81571 0.23114 0.8923 0.0
C340 C 0.8341 0.2265 0.87889 0.0
O341 O 0.74937 0.17461 0.8959 0.0
O342 O 0.75717 0.22148 0.9021 0.0
O343 O 0.67301 0.17531 0.8792 0.0
O344 O 0.68247 0.15057 0.90485 0.0
H345 H 0.61974 0.20257 0.89496 0.0
H346 H 0.55332 0.1407 0.90199 0.0
H347 H 0.64063 0.11331 0.89951 0.0
O348 O 0.72198 0.24951 0.64308 0.0
Tb349 Tb 0.76242 0.23344 0.63275 0.0
Eu350 Eu 0.83432 0.30134 0.62757 0.0
C351 C 0.70885 0.23716 0.65732 0.0
O352 O 0.72166 0.21636 0.66639 0.0
C353 C 0.80097 0.26986 0.65927 0.0
O354 O 0.88127 0.29672 0.6333 0.0
C355 C 0.82016 0.35149 0.61512 0.0
C356 C 0.89941 0.29489 0.61918 0.0
O357 O 0.88981 0.29674 0.60174 0.0
C358 C 0.79083 0.26883 0.60108 0.0
C359 C 0.82935 0.38145 0.61623 0.0
C360 C 0.80869 0.4031 0.61506 0.0
C361 C 0.81678 0.4318 0.61601 0.0
C362 C 0.84546 0.43878 0.61844 0.0
C363 C 0.86628 0.4175 0.62018 0.0
C364 C 0.85819 0.38872 0.6188 0.0
O365 O 0.80067 0.25092 0.64555 0.0
O366 O 0.81664 0.2928 0.65679 0.0
O367 O 0.76354 0.18943 0.64336 0.0
O368 O 0.75917 0.19679 0.6138 0.0
C369 C 0.76046 0.1773 0.62687 0.0
O370 O 0.81334 0.2651 0.61186 0.0
O371 O 0.76691 0.25594 0.60582 0.0
O372 O 0.8099 0.34046 0.63079 0.0
O373 O 0.83653 0.33381 0.6056 0.0
H374 H 0.78642 0.39764 0.61331 0.0
H375 H 0.85154 0.46107 0.61916 0.0
H376 H 0.87409 0.3721 0.62013 0.0
O377 O 0.74036 0.73375 0.60797 0.0
Tb378 Tb 0.75272 0.77834 0.60875 0.0
Eu379 Eu 0.66285 0.82268 0.6041 0.0
C380 C 0.73797 0.71871 0.62362 0.0
O381 O 0.74122 0.73145 0.64005 0.0
C382 C 0.70675 0.80486 0.63515 0.0
O383 O 0.66797 0.87004 0.59949 0.0
C384 C 0.61211 0.80204 0.59918 0.0
C385 C 0.69394 0.88033 0.59802 0.0
O386 O 0.71539 0.86239 0.5979 0.0
C387 C 0.71589 0.80116 0.57793 0.0
C388 C 0.58355 0.81047 0.59291 0.0
C389 C 0.56351 0.78921 0.58874 0.0
C390 C 0.53583 0.79662 0.58316 0.0
C391 C 0.52835 0.8255 0.58189 0.0
C392 C 0.54798 0.847 0.58646 0.0
C393 C 0.57579 0.8393 0.59175 0.0
O394 O 0.7238 0.80973 0.62085 0.0
O395 O 0.67966 0.81151 0.63329 0.0
O396 O 0.78857 0.77477 0.62831 0.0
O397 O 0.79567 0.79035 0.60033 0.0
C398 C 0.80765 0.78397 0.61641 0.0
O399 O 0.69773 0.79553 0.59163 0.0
O400 O 0.7418 0.79123 0.58019 0.0
O401 O 0.621 0.81288 0.61534 0.0
O402 O 0.6319 0.80111 0.58606 0.0
H403 H 0.56934 0.76693 0.59003 0.0
H404 H 0.50656 0.83115 0.57849 0.0
H405 H 0.59122 0.85564 0.59529 0.0
O406 O 0.24581 0.70828 0.60242 0.0
Tb407 Tb 0.20986 0.73119 0.61443 0.0
Eu408 Eu 0.15747 0.67872 0.63266 0.0
C409 C 0.2663 0.69801 0.61314 0.0
O410 O 0.26308 0.69794 0.63161 0.0
C411 C 0.19282 0.72373 0.656 0.0
O412 O 0.11128 0.68835 0.62765 0.0
C413 C 0.16392 0.63132 0.65094 0.0
C414 C 0.10383 0.71384 0.62175 0.0
O415 O 0.12369 0.7327 0.61803 0.0
C416 C 0.17049 0.69419 0.59047 0.0
C417 C 0.16312 0.60021 0.64768 0.0
C418 C 0.18742 0.58374 0.6515 0.0
C419 C 0.18615 0.55397 0.65036 0.0
C420 C 0.16067 0.54059 0.64512 0.0
C421 C 0.13625 0.55664 0.64114 0.0
C422 C 0.13766 0.5865 0.64235 0.0
O423 O 0.21407 0.72067 0.64418 0.0
O424 O 0.16694 0.71633 0.65123 0.0
O425 O 0.23427 0.76665 0.60271 0.0
O426 O 0.20004 0.7756 0.62142 0.0
C427 C 0.22019 0.78676 0.6112 0.0
O428 O 0.17025 0.6726 0.60224 0.0
O429 O 0.17367 0.72025 0.5968 0.0
O430 O 0.13957 0.64501 0.64977 0.0
O431 O 0.18552 0.64558 0.64377 0.0
H432 H 0.20697 0.59396 0.65605 0.0
H433 H 0.1597 0.51749 0.64476 0.0
H434 H 0.11875 0.59895 0.63942 0.0
O435 O 0.27246 0.27165 0.64892 0.0
Tb436 Tb 0.25388 0.23092 0.64137 0.0
Eu437 Eu 0.29971 0.14435 0.63426 0.0
C438 C 0.25974 0.28817 0.66133 0.0
O439 O 0.23631 0.27916 0.66954 0.0
C440 C 0.27509 0.17818 0.66633 0.0
O441 O 0.29356 0.09694 0.63228 0.0
C442 C 0.35145 0.16178 0.62867 0.0
C443 C 0.30211 0.08198 0.6176 0.0
O444 O 0.31578 0.09471 0.60375 0.0
C445 C 0.27449 0.19316 0.60826 0.0
C446 C 0.38111 0.15211 0.63031 0.0
C447 C 0.40169 0.17152 0.63682 0.0
C448 C 0.42991 0.16276 0.63954 0.0
C449 C 0.43748 0.13458 0.63537 0.0
C450 C 0.41729 0.11499 0.62865 0.0
C451 C 0.38898 0.12386 0.62614 0.0
O452 O 0.27719 0.19412 0.65119 0.0
O453 O 0.28559 0.15252 0.66438 0.0
O454 O 0.21259 0.22508 0.65546 0.0
O455 O 0.2141 0.23717 0.62632 0.0
C456 C 0.19741 0.23157 0.64054 0.0
O457 O 0.267 0.17235 0.61973 0.0
O458 O 0.26899 0.21984 0.6131 0.0
O459 O 0.33782 0.16524 0.64474 0.0
O460 O 0.33568 0.15044 0.61523 0.0
H461 H 0.39564 0.19329 0.64009 0.0
H462 H 0.45951 0.12808 0.63687 0.0
H463 H 0.37313 0.10878 0.62124 0.0
C464 C 0.22385 0.33536 0.07204 0.0
C465 C 0.19963 0.33408 0.08368 0.0
C466 C 0.22109 0.33507 0.05233 0.0
C467 C 0.17387 0.31077 0.01456 0.0
H468 H 0.22012 0.36003 0.98297 0.0
C469 C 0.20275 0.28654 0.93689 0.0
C470 C 0.2047 0.30935 0.92406 0.0
C471 C 0.19651 0.29152 0.95594 0.0
C472 C 0.20674 0.3464 0.99158 0.0
H473 H 0.1535 0.33166 0.08375 0.0
H474 H 0.14879 0.33091 0.04929 0.0
H475 H 0.22101 0.36588 0.01733 0.0
H476 H 0.19963 0.3551 0.92088 0.0
H477 H 0.18894 0.36376 0.95425 0.0
H478 H 0.16015 0.29083 0.9888 0.0
C479 C 0.16986 0.33215 0.05546 0.0
C480 C 0.2075 0.34956 0.01125 0.0
C481 C 0.17259 0.33271 0.07518 0.0
C482 C 0.19858 0.33708 0.93044 0.0
C483 C 0.19256 0.34208 0.94955 0.0
C484 C 0.17331 0.30744 0.99488 0.0
C485 C 0.19409 0.33324 0.04385 0.0
C486 C 0.19143 0.33148 0.02295 0.0
C487 C 0.19222 0.31942 0.96258 0.0
C488 C 0.19007 0.32495 0.98321 0.0
H489 H 0.24498 0.33638 0.07813 0.0
H490 H 0.24017 0.33559 0.04373 0.0
H491 H 0.16137 0.29643 0.02324 0.0
H492 H 0.2071 0.2649 0.93237 0.0
H493 H 0.19652 0.27364 0.96565 0.0
C494 C 0.66931 0.19226 0.07421 0.0
C495 C 0.69447 0.19145 0.08502 0.0
C496 C 0.67025 0.18861 0.05449 0.0
C497 C 0.71665 0.16347 0.01508 0.0
H498 H 0.67506 0.21876 0.98506 0.0
C499 C 0.72792 0.16651 0.93379 0.0
C500 C 0.73195 0.19367 0.92582 0.0
C501 C 0.71848 0.16355 0.95249 0.0
C502 C 0.68681 0.20316 0.99323 0.0
H503 H 0.74006 0.18439 0.08364 0.0
H504 H 0.74167 0.17823 0.0495 0.0
H505 H 0.66837 0.21733 0.01934 0.0
H506 H 0.72835 0.23904 0.93111 0.0
H507 H 0.71232 0.23396 0.96377 0.0
H508 H 0.73608 0.15014 0.98917 0.0
C509 C 0.72119 0.18166 0.05616 0.0
C510 C 0.68272 0.2021 0.01288 0.0
C511 C 0.72028 0.18542 0.07578 0.0
C512 C 0.72539 0.2178 0.93679 0.0
C513 C 0.71601 0.21486 0.9555 0.0
C514 C 0.72072 0.16451 0.99547 0.0
C515 C 0.6963 0.18379 0.04519 0.0
C516 C 0.69804 0.18264 0.0241 0.0
C517 C 0.71301 0.1877 0.96374 0.0
C518 C 0.70628 0.18473 0.98431 0.0
H519 H 0.649 0.19667 0.08084 0.0
H520 H 0.65062 0.18997 0.0465 0.0
H521 H 0.72853 0.14796 0.02325 0.0
H522 H 0.73297 0.14747 0.9258 0.0
H523 H 0.71602 0.14231 0.95825 0.0
C524 C 0.80037 0.69291 0.92166 0.0
C525 C 0.82301 0.7047 0.91133 0.0
C526 C 0.80334 0.6871 0.94086 0.0
C527 C 0.84208 0.70961 0.98284 0.0
H528 H 0.80084 0.64574 0.00425 0.0
C529 C 0.78875 0.7146 0.05532 0.0
C530 C 0.78321 0.68944 0.06538 0.0
C531 C 0.80288 0.71358 0.03795 0.0
C532 C 0.81315 0.66335 -0.0013 0.0
H533 H 0.8668 0.71921 0.91301 0.0
H534 H 0.87194 0.709 0.94688 0.0
H535 H 0.8092 0.64755 0.97046 0.0
H536 H 0.78845 0.6436 0.06545 0.0
H537 H 0.81458 0.64184 0.03572 0.0
H538 H 0.84585 0.72552 0.01114 0.0
C539 C 0.85188 0.7044 0.93997 0.0
C540 C 0.81759 0.66455 0.97922 0.0
C541 C 0.84892 0.71021 0.92062 0.0
C542 C 0.79292 0.66337 0.05813 0.0
C543 C 0.80758 0.66236 0.04096 0.0
C544 C 0.83795 0.70825 0.00243 0.0
C545 C 0.82904 0.69283 0.95027 0.0
C546 C 0.83076 0.68839 0.971 0.0
C547 C 0.81193 0.68735 0.03034 0.0
C548 C 0.82221 0.68578 0.01047 0.0
H549 H 0.78009 0.68842 0.91499 0.0
H550 H 0.78509 0.67883 0.94846 0.0
H551 H 0.85244 0.7282 0.97691 0.0
H552 H 0.78135 0.73501 0.06055 0.0
H553 H 0.8053 0.73323 0.03007 0.0
C554 C 0.33296 0.82658 0.93026 0.0
C555 C 0.30538 0.82801 0.92258 0.0
C556 C 0.33708 0.81903 0.94922 0.0
C557 C 0.33862 0.81739 0.99238 0.0
H558 H 0.28797 0.76087 0.01388 0.0
C559 C 0.31988 0.8035 0.07264 0.0
C560 C 0.30917 0.77739 0.07912 0.0
C561 C 0.32631 0.80724 0.05345 0.0
C562 C 0.30279 0.77625 0.00812 0.0
H563 H 0.26046 0.82316 0.92885 0.0
H564 H 0.26754 0.81076 0.96197 0.0
H565 H 0.28465 0.77216 0.98055 0.0
H566 H 0.30092 0.73345 0.07138 0.0
H567 H 0.31364 0.73939 0.03825 0.0
H568 H 0.3571 0.82104 0.02003 0.0
C569 C 0.28609 0.81478 0.95326 0.0
C570 C 0.30046 0.78315 0.98899 0.0
C571 C 0.28199 0.82211 0.9343 0.0
C572 C 0.3084 0.7541 0.06665 0.0
C573 C 0.31546 0.75759 0.04762 0.0
C574 C 0.34116 0.81027 0.01156 0.0
C575 C 0.31369 0.81287 0.96091 0.0
C576 C 0.31787 0.80424 0.98097 0.0
C577 C 0.32276 0.78463 0.04054 0.0
C578 C 0.32292 0.78995 0.01975 0.0
H579 H 0.35147 0.83085 0.92157 0.0
H580 H 0.35861 0.81747 0.95458 0.0
H581 H 0.35234 0.83381 0.98666 0.0
H582 H 0.32151 0.82151 0.08204 0.0
H583 H 0.33209 0.82836 0.04862 0.0
C584 C 0.23667 0.6765 0.42606 0.0
C585 C 0.22318 0.69589 0.41388 0.0
C586 C 0.22583 0.67172 0.44425 0.0
C587 C 0.19067 0.71122 0.48084 0.0
H588 H 0.1772 0.63889 0.50583 0.0
C589 C 0.15657 0.71002 0.55822 0.0
C590 C 0.16913 0.68944 0.56992 0.0
C591 C 0.15824 0.70752 0.53858 0.0
C592 C 0.18112 0.65925 0.49911 0.0
H593 H 0.18849 0.72588 0.41099 0.0
H594 H 0.16943 0.7175 0.44268 0.0
H595 H 0.19011 0.63976 0.4722 0.0
H596 H 0.19231 0.64956 0.57052 0.0
H597 H 0.19665 0.64584 0.53616 0.0
H598 H 0.18348 0.73091 0.50756 0.0
C599 C 0.18791 0.70554 0.43809 0.0
C600 C 0.18836 0.65969 0.47987 0.0
C601 C 0.19855 0.71004 0.41992 0.0
C602 C 0.18236 0.66565 0.56172 0.0
C603 C 0.18469 0.66349 0.54202 0.0
C604 C 0.18397 0.7108 0.50004 0.0
C605 C 0.20179 0.6868 0.45054 0.0
C606 C 0.19313 0.68572 0.47062 0.0
C607 C 0.1733 0.68483 0.53021 0.0
C608 C 0.17905 0.68485 0.50947 0.0
H609 H 0.25591 0.6656 0.42168 0.0
H610 H 0.23706 0.65743 0.45371 0.0
H611 H 0.1948 0.73155 0.47409 0.0
H612 H 0.14587 0.72835 0.56427 0.0
H613 H 0.14835 0.72386 0.52997 0.0
C614 C 0.29667 0.20897 0.57796 0.0
C615 C 0.28608 0.1868 0.58929 0.0
C616 C 0.30355 0.20407 0.55902 0.0
C617 C 0.28076 0.15954 0.51991 0.0
H618 H 0.34012 0.20059 0.4933 0.0
C619 C 0.26835 0.20288 0.44448 0.0
C620 C 0.29245 0.2056 0.43287 0.0
C621 C 0.27082 0.19171 0.46276 0.0
C622 C 0.32373 0.18844 0.50045 0.0
H623 H 0.27611 0.14165 0.59004 0.0
H624 H 0.28798 0.13315 0.55677 0.0
H625 H 0.34155 0.19745 0.5277 0.0
H626 H 0.33767 0.19723 0.43094 0.0
H627 H 0.34195 0.17727 0.46264 0.0
H628 H 0.26241 0.15137 0.49266 0.0
C629 C 0.29077 0.15434 0.56257 0.0
C630 C 0.32444 0.18689 0.52019 0.0
C631 C 0.28411 0.15921 0.58161 0.0
C632 C 0.31871 0.19533 0.43948 0.0
C633 C 0.3212 0.1841 0.45773 0.0
C634 C 0.28002 0.16113 0.50014 0.0
C635 C 0.29984 0.17692 0.55096 0.0
C636 C 0.30241 0.17335 0.53016 0.0
C637 C 0.29747 0.18305 0.4698 0.0
C638 C 0.30096 0.17647 0.49025 0.0
H639 H 0.2986 0.23042 0.5835 0.0
H640 H 0.31021 0.22199 0.55042 0.0
H641 H 0.26339 0.14906 0.5272 0.0
H642 H 0.24778 0.21054 0.43978 0.0
H643 H 0.25214 0.19148 0.47174 0.0
C644 C 0.7689 0.28864 0.57155 0.0
C645 C 0.79337 0.28272 0.58229 0.0
C646 C 0.77119 0.29764 0.55271 0.0
C647 C 0.81932 0.29062 0.5122 0.0
H648 H 0.76642 0.34277 0.48818 0.0
C649 C 0.79069 0.28534 0.43299 0.0
C650 C 0.78548 0.31075 0.42303 0.0
C651 C 0.79645 0.28583 0.45241 0.0
C652 C 0.78165 0.32846 0.49468 0.0
H653 H 0.8395 0.28282 0.58191 0.0
H654 H 0.84351 0.29873 0.54907 0.0
H655 H 0.76699 0.33842 0.52267 0.0
H656 H 0.78368 0.35681 0.42555 0.0
H657 H 0.7936 0.35763 0.45958 0.0
H658 H 0.83355 0.28019 0.48421 0.0
C659 C 0.82253 0.29618 0.55518 0.0
C660 C 0.78178 0.32576 0.51444 0.0
C661 C 0.82022 0.2873 0.57406 0.0
C662 C 0.78745 0.33682 0.4328 0.0
C663 C 0.79297 0.33729 0.45232 0.0
C664 C 0.81908 0.29319 0.49245 0.0
C665 C 0.79802 0.30078 0.54414 0.0
C666 C 0.80022 0.30638 0.52341 0.0
C667 C 0.79701 0.31175 0.46241 0.0
C668 C 0.79983 0.31169 0.48343 0.0
H669 H 0.74789 0.28533 0.57746 0.0
H670 H 0.75187 0.30074 0.5446 0.0
H671 H 0.83364 0.27531 0.51861 0.0
H672 H 0.78951 0.26489 0.42589 0.0
H673 H 0.79922 0.26574 0.45975 0.0
C674 C 0.68088 0.80267 0.4219 0.0
C675 C 0.6871 0.82344 0.40821 0.0
C676 C 0.6766 0.81045 0.44076 0.0
C677 C 0.6998 0.86335 0.47452 0.0
H678 H 0.64797 0.82243 0.50748 0.0
C679 C 0.72948 0.82149 0.54672 0.0
C680 C 0.70897 0.8185 0.56105 0.0
C681 C 0.72231 0.83365 0.52938 0.0
C682 C 0.6621 0.8347 0.49851 0.0
H683 H 0.69272 0.86881 0.4034 0.0
H684 H 0.68569 0.8823 0.43651 0.0
H685 H 0.6412 0.82052 0.47325 0.0
H686 H 0.66607 0.82952 0.56924 0.0
H687 H 0.65289 0.84956 0.53851 0.0
H688 H 0.72172 0.87608 0.49974 0.0
C689 C 0.68408 0.86003 0.43258 0.0
C690 C 0.6584 0.83333 0.47891 0.0
C691 C 0.68812 0.85227 0.41366 0.0
C692 C 0.68184 0.83024 0.55823 0.0
C693 C 0.67445 0.8421 0.54073 0.0
C694 C 0.70357 0.86461 0.49412 0.0
C695 C 0.67862 0.83914 0.44634 0.0
C696 C 0.67806 0.84645 0.46673 0.0
C697 C 0.69441 0.84299 0.52593 0.0
C698 C 0.68562 0.84908 0.50622 0.0
H699 H 0.67976 0.78031 0.41814 0.0
H700 H 0.67289 0.7938 0.4511 0.0
H701 H 0.71529 0.8737 0.46548 0.0
H702 H 0.75079 0.81309 0.54846 0.0
H703 H 0.73814 0.83381 0.51822 0.0
C704 C 0.26403 0.98762 0.11134 0.0
C705 C 0.28033 0.97919 0.09565 0.0
C706 C 0.24839 0.013 0.1108 0.0
C707 C 0.25089 0.08245 0.08658 0.0
H708 H 0.18397 0.09762 0.11706 0.0
C709 C 0.21555 0.19745 0.10061 0.0
C710 C 0.21331 0.20315 0.12009 0.0
C711 C 0.21533 0.16926 0.09404 0.0
C712 C 0.20255 0.09368 0.10837 0.0
H713 H 0.29125 0.98923 0.06661 0.0
H714 H 0.26335 0.03307 0.06542 0.0
H715 H 0.1993 0.04844 0.11192 0.0
H716 H 0.20645 0.1842 0.14773 0.0
H717 H 0.20592 0.13533 0.13633 0.0
H718 H 0.25479 0.1276 0.08358 0.0
C719 C 0.26325 0.02066 0.07836 0.0
C720 C 0.21142 0.06552 0.10549 0.0
C721 C 0.2791 0.99548 0.07897 0.0
C722 C 0.20843 0.18043 0.13264 0.0
C723 C 0.20792 0.15238 0.12607 0.0
C724 C 0.24195 0.11052 0.08937 0.0
C725 C 0.24856 0.03032 0.09449 0.0
C726 C 0.23623 0.0596 0.09505 0.0
C727 C 0.21251 0.14638 0.10681 0.0
C728 C 0.21823 0.11654 0.1008 0.0
H729 H 0.2648 0.97555 0.12441 0.0
H730 H 0.23761 0.01983 0.12358 0.0
H731 H 0.27033 0.07888 0.0787 0.0
H732 H 0.21934 0.21455 0.09062 0.0
H733 H 0.21861 0.16529 0.07908 0.0
C734 C 0.01253 0.30569 0.17894 0.0
C735 C 0.03271 0.29722 0.16544 0.0
C736 C 0.98879 0.28875 0.18264 0.0
C737 C 0.94258 0.23988 0.15722 0.0
H738 H 0.90192 0.23888 0.20502 0.0
C739 C 0.82374 0.21207 0.15937 0.0
C740 C 0.80744 0.23285 0.16877 0.0
C741 C 0.85322 0.21068 0.16211 0.0
C742 C 0.91304 0.23884 0.19158 0.0
H743 H 0.04503 0.2639 0.14592 0.0
H744 H 0.00327 0.23394 0.15237 0.0
H745 H 0.95198 0.25283 0.20433 0.0
H746 H 0.80886 0.26678 0.18962 0.0
H747 H 0.86004 0.26453 0.19428 0.0
H748 H 0.90339 0.2274 0.14429 0.0
C749 C 0.0058 0.25373 0.16009 0.0
C750 C 0.94172 0.24679 0.19118 0.0
C751 C 0.02977 0.27067 0.1565 0.0
C752 C 0.82085 0.25069 0.18203 0.0
C753 C 0.85024 0.24923 0.18482 0.0
C754 C 0.91393 0.23194 0.1576 0.0
C755 C 0.98458 0.26305 0.17276 0.0
C756 C 0.95651 0.24849 0.1739 0.0
C757 C 0.86693 0.22991 0.17439 0.0
C758 C 0.89851 0.2324 0.17469 0.0
H759 H 0.01435 0.32622 0.18588 0.0
H760 H 0.97278 0.29682 0.19228 0.0
H761 H 0.95318 0.24123 0.14362 0.0
H762 H 0.81403 0.19788 0.14914 0.0
H763 H 0.86542 0.19527 0.15407 0.0
C764 C 0.76001 0.81879 0.11848 0.0
C765 C 0.75496 0.80392 0.13543 0.0
C766 C 0.76218 0.84849 0.11848 0.0
C767 C 0.73764 0.90964 0.14695 0.0
H768 H 0.77598 0.95269 0.10761 0.0
C769 C 0.71137 0.02718 0.1361 0.0
C770 C 0.70152 0.03248 0.11763 0.0
C771 C 0.72738 0.00275 0.14002 0.0
C772 C 0.76535 0.94097 0.11878 0.0
H773 H 0.75073 0.80826 0.16587 0.0
H774 H 0.75548 0.86004 0.16598 0.0
H775 H 0.78725 0.90226 0.11203 0.0
H776 H 0.70293 0.01799 0.08852 0.0
H777 H 0.73103 0.97542 0.0953 0.0
H778 H 0.71529 0.9481 0.1534 0.0
C779 C 0.75675 0.8489 0.15257 0.0
C780 C 0.77165 0.91204 0.12126 0.0
C781 C 0.75419 0.81918 0.15254 0.0
C782 C 0.7102 0.01433 0.10288 0.0
C783 C 0.7264 0.99004 0.10677 0.0
C784 C 0.73162 0.93856 0.14461 0.0
C785 C 0.75973 0.86404 0.13546 0.0
C786 C 0.75713 0.89574 0.13496 0.0
C787 C 0.73401 0.98331 0.12551 0.0
C788 C 0.74472 0.95434 0.13012 0.0
H789 H 0.76073 0.80767 0.10504 0.0
H790 H 0.76413 0.85924 0.10497 0.0
H791 H 0.72563 0.89789 0.15745 0.0
H792 H 0.70483 0.04066 0.14778 0.0
H793 H 0.73321 0.99823 0.15456 0.0
C794 C 0.15892 0.77082 0.10409 0.0
C795 C 0.16764 0.78485 0.12069 0.0
C796 C 0.13028 0.77029 0.09892 0.0
C797 C 0.06018 0.77246 0.12106 0.0
H798 H 0.03488 0.7655 0.06895 0.0
C799 C 0.95038 0.72617 0.10399 0.0
C800 C 0.95253 0.7026 0.0918 0.0
C801 C 0.9728 0.74569 0.10535 0.0
C802 C 0.04155 0.76765 0.08357 0.0
H803 H 0.15336 0.81083 0.14428 0.0
H804 H 0.1032 0.81 0.13515 0.0
H805 H 0.08264 0.78335 0.07569 0.0
H806 H 0.97842 0.68214 0.07038 0.0
H807 H 0.01746 0.71609 0.07268 0.0
H808 H 0.01965 0.75556 0.12893 0.0
C809 C 0.11854 0.79908 0.12629 0.0
C810 C 0.06891 0.77778 0.08744 0.0
C811 C 0.14728 0.79963 0.13148 0.0
C812 C 0.97639 0.70007 0.07997 0.0
C813 C 0.99862 0.71967 0.08119 0.0
C814 C 0.03281 0.76245 0.11719 0.0
C815 C 0.10964 0.78381 0.11019 0.0
C816 C 0.07894 0.77915 0.10619 0.0
C817 C 0.99753 0.74209 0.09439 0.0
C818 C 0.02364 0.75883 0.09839 0.0
H819 H 0.17406 0.75934 0.0954 0.0
H820 H 0.1242 0.75798 0.08658 0.0
H821 H 0.06725 0.77298 0.13566 0.0
H822 H 0.93221 0.72849 0.11331 0.0
H823 H 0.97131 0.76289 0.11555 0.0
C824 C 0.2691 0.03039 0.37584 0.0
C825 C 0.28951 0.03261 0.3903 0.0
C826 C 0.25451 0.00466 0.37296 0.0
C827 C 0.24213 0.93251 0.3942 0.0
H828 H 0.24682 0.90623 0.34217 0.0
C829 C 0.26541 0.81738 0.37411 0.0
C830 C 0.24813 0.8037 0.36065 0.0
C831 C 0.2624 0.84644 0.37767 0.0
C832 C 0.2448 0.91343 0.35669 0.0
H833 H 0.3094 0.01075 0.4138 0.0
H834 H 0.2842 0.96617 0.40895 0.0
H835 H 0.25456 0.95661 0.34936 0.0
H836 H 0.21429 0.80987 0.34017 0.0
H837 H 0.20977 0.86146 0.34598 0.0
H838 H 0.2345 0.88889 0.4016 0.0
C839 C 0.27903 0.98402 0.39985 0.0
C840 C 0.24913 0.94231 0.36084 0.0
C841 C 0.29361 0.00955 0.40264 0.0
C842 C 0.22788 0.81987 0.35064 0.0
C843 C 0.22528 0.84928 0.35394 0.0
C844 C 0.23816 0.90367 0.39006 0.0
C845 C 0.26002 0.98087 0.38458 0.0
C846 C 0.249 0.95198 0.37975 0.0
C847 C 0.24236 0.86269 0.36766 0.0
C848 C 0.2405 0.89372 0.37137 0.0
H849 H 0.26582 0.04787 0.36605 0.0
H850 H 0.23981 0.00305 0.3612 0.0
H851 H 0.24121 0.9393 0.40885 0.0
H852 H 0.2811 0.80556 0.38216 0.0
H853 H 0.2761 0.85633 0.38813 0.0
C854 C 0.16321 0.24278 0.3697 0.0
C855 C 0.18153 0.25308 0.35553 0.0
C856 C 0.13375 0.24293 0.36698 0.0
C857 C 0.08077 0.28357 0.34005 0.0
H858 H 0.02734 0.23245 0.3645 0.0
C859 C 0.96417 0.31447 0.3433 0.0
C860 C 0.95263 0.31342 0.36161 0.0
C861 C 0.98877 0.29914 0.33894 0.0
C862 C 0.04199 0.24687 0.35755 0.0
H863 H 0.18352 0.26915 0.32676 0.0
H864 H 0.13216 0.26883 0.32184 0.0
H865 H 0.07783 0.21985 0.36318 0.0
H866 H 0.95628 0.29423 0.38935 0.0
H867 H 0.99968 0.26773 0.38194 0.0
H868 H 0.0455 0.31111 0.33505 0.0
C869 C 0.14047 0.26144 0.33528 0.0
C870 C 0.07092 0.23968 0.35681 0.0
C871 C 0.16993 0.26152 0.33807 0.0
C872 C 0.96469 0.29504 0.37507 0.0
C873 C 0.98955 0.2799 0.37078 0.0
C874 C 0.05199 0.29069 0.34076 0.0
C875 C 0.12196 0.25316 0.34996 0.0
C876 C 0.09076 0.2583 0.34843 0.0
C877 C 0.00261 0.28287 0.35293 0.0
C878 C 0.03229 0.27277 0.34987 0.0
H879 H 0.17148 0.23604 0.38331 0.0
H880 H 0.12022 0.2366 0.37866 0.0
H881 H 0.09539 0.29875 0.33382 0.0
H882 H 0.95516 0.32859 0.33273 0.0
H883 H 0.99789 0.30139 0.32493 0.0
C884 C 0.71446 0.98092 0.32345 0.0
C885 C 0.70542 0.97419 0.34186 0.0
C886 C 0.73146 0.00493 0.32027 0.0
C887 C 0.77455 0.06141 0.34325 0.0
H888 H 0.73255 0.11244 0.31035 0.0
C889 C 0.77292 0.18218 0.35431 0.0
C890 C 0.76521 0.20034 0.33936 0.0
C891 C 0.77501 0.1528 0.3514 0.0
C892 C 0.74525 0.0985 0.31917 0.0
H893 H 0.70874 0.9855 0.3715 0.0
H894 H 0.73888 0.02711 0.36606 0.0
H895 H 0.72054 0.06227 0.31102 0.0
H896 H 0.75649 0.20248 0.30924 0.0
H897 H 0.76139 0.15135 0.30392 0.0
H898 H 0.79891 0.09776 0.35173 0.0
C899 C 0.73288 0.01401 0.35406 0.0
C900 C 0.73824 0.0696 0.31957 0.0
C901 C 0.71555 0.99032 0.35719 0.0
C902 C 0.76202 0.18889 0.3211 0.0
C903 C 0.76464 0.15954 0.3181 0.0
C904 C 0.78192 0.0903 0.34263 0.0
C905 C 0.73999 0.02225 0.33551 0.0
C906 C 0.75205 0.051 0.33213 0.0
C907 C 0.76992 0.14094 0.33338 0.0
C908 C 0.76654 0.10947 0.33117 0.0
H909 H 0.70669 0.96887 0.31141 0.0
H910 H 0.73673 0.01079 0.30585 0.0
H911 H 0.78571 0.04742 0.35295 0.0
H912 H 0.7755 0.19037 0.36856 0.0
H913 H 0.7788 0.13936 0.3636 0.0
C914 C 0.03143 0.74267 0.38389 0.0
C915 C 0.03914 0.72367 0.39835 0.0
C916 C 0.00675 0.75912 0.38553 0.0
C917 C 0.93733 0.75446 0.40935 0.0
H918 H 0.92306 0.8239 0.38114 0.0
C919 C 0.82316 0.79062 0.39378 0.0
C920 C 0.81862 0.7933 0.37419 0.0
C921 C 0.85088 0.79063 0.40108 0.0
C922 C 0.92677 0.80466 0.38926 0.0
H923 H 0.02882 0.7088 0.42656 0.0
H924 H 0.98627 0.73828 0.42979 0.0
H925 H 0.97201 0.80848 0.38673 0.0
H926 H 0.83912 0.80053 0.3471 0.0
H927 H 0.88723 0.80082 0.3598 0.0
H928 H 0.89215 0.75012 0.41131 0.0
C929 C 0.99864 0.73985 0.41689 0.0
C930 C 0.95479 0.79572 0.39238 0.0
C931 C 0.0231 0.72311 0.41513 0.0
C932 C 0.84201 0.79821 0.36226 0.0
C933 C 0.86959 0.79861 0.36956 0.0
C934 C 0.90939 0.76353 0.40639 0.0
C935 C 0.98945 0.75712 0.40178 0.0
C936 C 0.96039 0.76988 0.40181 0.0
C937 C 0.8744 0.79379 0.38894 0.0
C938 C 0.90378 0.78812 0.39568 0.0
H939 H 0.04332 0.74329 0.37075 0.0
H940 H 1.0003 0.77187 0.37349 0.0
H941 H 0.94061 0.73426 0.41645 0.0
H942 H 0.80549 0.7868 0.4033 0.0
H943 H 0.85399 0.78702 0.4161 0.0
C944 C 0.79367 0.83605 0.85838 0.0
C945 C 0.77464 0.81742 0.86744 0.0
C946 C 0.79054 0.86572 0.86027 0.0
C947 C 0.75834 0.92051 0.89143 0.0
H948 H 0.76359 0.97004 0.84759 0.0
C949 C 0.7568 0.04322 0.8983 0.0
C950 C 0.74015 0.05863 0.88528 0.0
C951 C 0.76174 0.01405 0.8958 0.0
C952 C 0.76193 0.95647 0.85996 0.0
H953 H 0.73759 0.81519 0.88566 0.0
H954 H 0.73232 0.86656 0.8891 0.0
H955 H 0.77148 0.91871 0.84397 0.0
H956 H 0.71577 0.0553 0.85929 0.0
H957 H 0.72444 0.00424 0.85491 0.0
H958 H 0.7485 0.95803 0.90741 0.0
C959 C 0.74973 0.85846 0.8806 0.0
C960 C 0.76677 0.9271 0.85792 0.0
C961 C 0.75269 0.82898 0.87856 0.0
C962 C 0.72866 0.0441 0.8696 0.0
C963 C 0.73379 0.01487 0.86702 0.0
C964 C 0.75375 0.94982 0.8935 0.0
C965 C 0.76852 0.87727 0.87145 0.0
C966 C 0.76482 0.90872 0.87362 0.0
C967 C 0.75031 0.99945 0.88015 0.0
C968 C 0.75535 0.9682 0.87779 0.0
H969 H 0.81073 0.82773 0.84966 0.0
H970 H 0.8055 0.87961 0.85314 0.0
H971 H 0.75689 0.90704 0.90386 0.0
H972 H 0.76607 0.05366 0.91051 0.0
H973 H 0.77483 0.00297 0.90606 0.0
C974 C 0.95261 0.73817 0.85069 0.0
C975 C 0.94068 0.72085 0.86487 0.0
C976 C 0.98139 0.74593 0.85141 0.0
C977 C 0.05024 0.72513 0.87335 0.0
H978 H 0.07319 0.80189 0.8599 0.0
C979 C 0.16316 0.76714 0.88895 0.0
C980 C 0.17657 0.7834 0.87485 0.0
C981 C 0.13436 0.76003 0.8874 0.0
C982 C 0.06718 0.78028 0.86351 0.0
H983 H 0.94973 0.69816 0.89097 0.0
H984 H 0.99961 0.71192 0.89235 0.0
H985 H 0.02316 0.78828 0.85768 0.0
H986 H 0.17035 0.80527 0.84814 0.0
H987 H 0.1199 0.79286 0.84538 0.0
H988 H 0.09419 0.71716 0.8793 0.0
C989 C 0.98692 0.71921 0.88049 0.0
C990 C 0.03848 0.77245 0.86222 0.0
C991 C 0.9582 0.71144 0.87976 0.0
C992 C 0.1605 0.7928 0.85927 0.0
C993 C 0.1316 0.78577 0.85773 0.0
C994 C 0.07889 0.73297 0.87468 0.0
C995 C 0.99893 0.73655 0.86633 0.0
C996 C 0.0296 0.7448 0.86722 0.0
C997 C 0.11823 0.76906 0.87171 0.0
C998 C 0.08773 0.76069 0.86989 0.0
H999 H 0.93975 0.74574 0.83899 0.0
H1000 H 0.98996 0.75901 0.84013 0.0
H1001 H 0.04433 0.70349 0.87696 0.0
H1002 H 0.17501 0.75964 0.90114 0.0
H1003 H 0.12467 0.74753 0.89857 0.0
C1004 C 0.26426 0.17544 0.84778 0.0
C1005 C 0.24276 0.18758 0.859 0.0
C1006 C 0.26805 0.14585 0.84731 0.0
C1007 C 0.23405 0.0766 0.85788 0.0
H1008 H 0.31135 0.05117 0.86703 0.0
C1009 C 0.25968 0.95903 0.87593 0.0
C1010 C 0.28498 0.94725 0.86874 0.0
C1011 C 0.25417 0.98825 0.87423 0.0
C1012 C 0.28969 0.05776 0.86416 0.0
H1013 H 0.20741 0.17832 0.8777 0.0
H1014 H 0.21372 0.12659 0.87665 0.0
H1015 H 0.3015 0.10183 0.86351 0.0
H1016 H 0.32433 0.95703 0.85409 0.0
H1017 H 0.31449 0.00768 0.85069 0.0
H1018 H 0.2222 0.03256 0.85831 0.0
C1019 C 0.22773 0.13991 0.86828 0.0
C1020 C 0.28406 0.08688 0.86216 0.0
C1021 C 0.22412 0.16952 0.8689 0.0
C1022 C 0.30473 0.96541 0.85993 0.0
C1023 C 0.2991 0.99457 0.85805 0.0
C1024 C 0.23971 0.04741 0.85968 0.0
C1025 C 0.25023 0.12779 0.8579 0.0
C1026 C 0.25617 0.09667 0.85909 0.0
C1027 C 0.2737 0.00643 0.86512 0.0
C1028 C 0.26761 0.03756 0.86296 0.0
H1029 H 0.27893 0.18885 0.84 0.0
H1030 H 0.28533 0.13712 0.83897 0.0
H1031 H 0.21236 0.08347 0.85537 0.0
H1032 H 0.24406 0.94566 0.88288 0.0
H1033 H 0.23465 0.99658 0.88019 0.0
C1034 C 0.08758 0.28349 0.8761 0.0
C1035 C 0.09881 0.29469 0.89301 0.0
C1036 C 0.06 0.27235 0.87557 0.0
C1037 C 0.99147 0.27745 0.90083 0.0
H1038 H 0.9706 0.21317 0.86918 0.0
C1039 C 0.87675 0.23479 0.89916 0.0
C1040 C 0.86524 0.22891 0.88123 0.0
C1041 C 0.90589 0.2397 0.90132 0.0
C1042 C 0.97607 0.23127 0.87798 0.0
H1043 H 0.09026 0.30176 0.92283 0.0
H1044 H 0.04229 0.28192 0.92198 0.0
H1045 H 0.02056 0.22691 0.87201 0.0
H1046 H 0.87517 0.22272 0.85155 0.0
H1047 H 0.92622 0.23148 0.85526 0.0
H1048 H 0.94706 0.28204 0.90665 0.0
C1049 C 0.05462 0.28228 0.90902 0.0
C1050 C 0.00471 0.23915 0.87962 0.0
C1051 C 0.08221 0.29349 0.90954 0.0
C1052 C 0.88353 0.22714 0.86555 0.0
C1053 C 0.91276 0.23205 0.8677 0.0
C1054 C 0.96291 0.26953 0.89923 0.0
C1055 C 0.04297 0.27204 0.89195 0.0
C1056 C 0.01275 0.26248 0.89097 0.0
C1057 C 0.9242 0.23889 0.88558 0.0
C1058 C 0.95481 0.24646 0.88771 0.0
H1059 H 0.09976 0.28406 0.86308 0.0
H1060 H 0.05168 0.26494 0.86213 0.0
H1061 H 0.99675 0.29586 0.90939 0.0
H1062 H 0.86314 0.23616 0.91152 0.0
H1063 H 0.91404 0.24442 0.91533 0.0
C1064 C 0.752 0.13641 0.60495 0.0
C1065 C 0.75579 0.14655 0.6235 0.0
C1066 C 0.74543 0.10777 0.60163 0.0
C1067 C 0.71463 0.04425 0.62485 0.0
H1068 H 0.74848 0.00397 0.5825 0.0
C1069 C 0.67777 0.93105 0.60263 0.0
C1070 C 0.69954 0.91145 0.59852 0.0
C1071 C 0.68397 0.9601 0.60484 0.0
C1072 C 0.73889 0.01486 0.59443 0.0
H1073 H 0.75609 0.13466 0.65314 0.0
H1074 H 0.74488 0.08442 0.64738 0.0
H1075 H 0.76196 0.05325 0.58874 0.0
H1076 H 0.74475 0.90718 0.59293 0.0
H1077 H 0.75547 0.95753 0.59679 0.0
H1078 H 0.69197 0.00563 0.63074 0.0
C1079 C 0.74667 0.09869 0.63538 0.0
C1080 C 0.74644 0.04322 0.59791 0.0
C1081 C 0.75334 0.12739 0.63869 0.0
C1082 C 0.72744 0.92166 0.5961 0.0
C1083 C 0.73359 0.95062 0.59822 0.0
C1084 C 0.707 0.01589 0.62133 0.0
C1085 C 0.74242 0.08857 0.6168 0.0
C1086 C 0.73449 0.05827 0.61321 0.0
C1087 C 0.71204 0.97019 0.60286 0.0
C1088 C 0.71914 1.00078 0.60612 0.0
H1089 H 0.75361 0.15074 0.59296 0.0
H1090 H 0.74201 0.10084 0.58717 0.0
H1091 H 0.70475 0.05529 0.63661 0.0
H1092 H 0.65606 0.92389 0.60459 0.0
H1093 H 0.6668 0.97466 0.60817 0.0
C1094 C 0.05295 0.70643 0.63083 0.0
C1095 C 0.07355 0.72205 0.62082 0.0
C1096 C 0.0246 0.71538 0.63102 0.0
C1097 C 0.9719 0.75494 0.60423 0.0
H1098 H 0.93304 0.76408 0.65232 0.0
C1099 C 0.85702 0.79609 0.60655 0.0
C1100 C 0.83859 0.78284 0.61944 0.0
C1101 C 0.88636 0.79185 0.60783 0.0
C1102 C 0.94341 0.76132 0.63875 0.0
H1103 H 0.08058 0.75878 0.60276 0.0
H1104 H 0.03077 0.77393 0.60268 0.0
H1105 H 0.98268 0.74878 0.6518 0.0
H1106 H 0.83612 0.75565 0.64417 0.0
H1107 H 0.88718 0.74725 0.64604 0.0
H1108 H 0.93264 0.76617 0.59102 0.0
C1109 C 0.03671 0.755 0.61054 0.0
C1110 C 0.97186 0.75266 0.63849 0.0
C1111 C 0.06516 0.74636 0.61062 0.0
C1112 C 0.84997 0.76621 0.63411 0.0
C1113 C 0.87929 0.76153 0.6352 0.0
C1114 C 0.94335 0.76313 0.60445 0.0
C1115 C 0.01627 0.73978 0.62092 0.0
C1116 C 0.9863 0.74933 0.62122 0.0
C1117 C 0.89784 0.77378 0.62181 0.0
C1118 C 0.92867 0.76639 0.62172 0.0
H1119 H 0.05883 0.68767 0.63888 0.0
H1120 H 0.00913 0.70315 0.63898 0.0
H1121 H 0.98255 0.75226 0.59073 0.0
H1122 H 0.8487 0.80921 0.59519 0.0
H1123 H 0.89998 0.80229 0.59759 0.0
C1124 C 0.27575 0.0393 0.62942 0.0
C1125 C 0.29479 0.05137 0.61633 0.0
C1126 C 0.26767 0.01078 0.62788 0.0
C1127 C 0.28963 0.94169 0.60874 0.0
H1128 H 0.20962 0.92282 0.61368 0.0
C1129 C 0.24852 0.82693 0.59783 0.0
C1130 C 0.2273 0.81731 0.61027 0.0
C1131 C 0.2563 0.85567 0.59752 0.0
C1132 C 0.23208 0.92764 0.61249 0.0
H1133 H 0.32076 0.04279 0.59157 0.0
H1134 H 0.3068 0.99267 0.58902 0.0
H1135 H 0.22466 0.97247 0.61537 0.0
H1136 H 0.19743 0.82997 0.63205 0.0
H1137 H 0.21136 0.88007 0.63186 0.0
H1138 H 0.29721 0.89689 0.60631 0.0
C1139 C 0.29811 0.00543 0.60043 0.0
C1140 C 0.24067 0.95611 0.6134 0.0
C1141 C 0.306 0.03412 0.60185 0.0
C1142 C 0.21375 0.83691 0.62225 0.0
C1143 C 0.22166 0.86564 0.62204 0.0
C1144 C 0.28107 0.91317 0.60798 0.0
C1145 C 0.27863 0.99358 0.61332 0.0
C1146 C 0.26954 0.96341 0.61166 0.0
C1147 C 0.24316 0.87536 0.60975 0.0
C1148 C 0.25219 0.90577 0.60996 0.0
H1149 H 0.26672 0.05197 0.64075 0.0
H1150 H 0.25293 0.00211 0.63818 0.0
H1151 H 0.31206 0.94669 0.60754 0.0
H1152 H 0.25924 0.81221 0.5884 0.0
H1153 H 0.27258 0.86245 0.58764 0.0
C1154 C 0.94943 0.28863 0.60765 0.0
C1155 C 0.93003 0.28956 0.62279 0.0
C1156 C 0.97817 0.28273 0.61089 0.0
C1157 C 0.02714 0.24902 0.64506 0.0
H1158 H 0.08438 0.29078 0.61693 0.0
C1159 C 0.14952 0.23466 0.65633 0.0
C1160 C 0.16621 0.23511 0.63983 0.0
C1161 C 0.12034 0.24093 0.65541 0.0
C1162 C 0.06867 0.27871 0.62477 0.0
H1163 H 0.92572 0.28519 0.65326 0.0
H1164 H 0.97603 0.27498 0.6589 0.0
H1165 H 0.03443 0.30323 0.61325 0.0
H1166 H 0.16542 0.24125 0.6094 0.0
H1167 H 0.11482 0.25161 0.60773 0.0
H1168 H 0.06156 0.22432 0.65645 0.0
C1169 C 0.96889 0.27859 0.6445 0.0
C1170 C 0.04001 0.28588 0.62267 0.0
C1171 C 0.9401 0.28463 0.64127 0.0
C1172 C 0.15313 0.24096 0.62238 0.0
C1173 C 0.12414 0.24713 0.62145 0.0
C1174 C 0.05591 0.2418 0.64716 0.0
C1175 C 0.98825 0.27755 0.62933 0.0
C1176 C 0.01885 0.27089 0.63257 0.0
C1177 C 0.10746 0.24777 0.63797 0.0
C1178 C 0.07697 0.25628 0.63679 0.0
H1179 H 0.94241 0.29225 0.59323 0.0
H1180 H 0.99242 0.28172 0.59885 0.0
H1181 H 0.01133 0.23692 0.65279 0.0
H1182 H 0.15915 0.2303 0.66998 0.0
H1183 H 0.1081 0.24131 0.6684 0.0
C1184 C 0.73964 0.67288 0.60545 0.0
C1185 C 0.73523 0.68728 0.62266 0.0
C1186 C 0.74047 0.6431 0.60489 0.0
C1187 C 0.75434 0.58153 0.63641 0.0
H1188 H 0.7348 0.53837 0.59138 0.0
C1189 C 0.77918 0.46175 0.631 0.0
C1190 C 0.79582 0.45519 0.61509 0.0
C1191 C 0.76449 0.48769 0.63193 0.0
C1192 C 0.7402 0.55014 0.60409 0.0
H1193 H 0.7265 0.68169 0.65259 0.0
H1194 H 0.72701 0.62974 0.65153 0.0
H1195 H 0.72201 0.58874 0.5934 0.0
H1196 H 0.80928 0.46948 0.58739 0.0
H1197 H 0.78309 0.5145 0.58874 0.0
H1198 H 0.77279 0.54296 0.64696 0.0
C1199 C 0.73072 0.64141 0.63853 0.0
C1200 C 0.73305 0.57905 0.60523 0.0
C1201 C 0.73023 0.67123 0.63913 0.0
C1202 C 0.7962 0.47402 0.59967 0.0
C1203 C 0.78122 0.49973 0.60047 0.0
C1204 C 0.76115 0.55257 0.63535 0.0
C1205 C 0.73656 0.62692 0.62149 0.0
C1206 C 0.7407 0.59535 0.6212 0.0
C1207 C 0.76602 0.50729 0.61688 0.0
C1208 C 0.75479 0.53673 0.619 0.0
H1209 H 0.74365 0.68459 0.5925 0.0
H1210 H 0.74543 0.63288 0.59154 0.0
H1211 H 0.76105 0.59332 0.64882 0.0
H1212 H 0.77899 0.44765 0.64316 0.0
H1213 H 0.75283 0.49291 0.64471 0.0
C1214 C 0.30004 0.6988 0.58566 0.0
C1215 C 0.29485 0.69298 0.6049 0.0
C1216 C 0.32791 0.70055 0.57885 0.0
C1217 C 0.40433 0.68924 0.5911 0.0
H1218 H 0.41386 0.76213 0.56606 0.0
C1219 C 0.50755 0.75513 0.59492 0.0
C1220 C 0.5136 0.77466 0.58041 0.0
C1221 C 0.4831 0.73818 0.59403 0.0
C1222 C 0.41179 0.74134 0.57258 0.0
H1223 H 0.31476 0.68155 0.63158 0.0
H1224 H 0.36325 0.68486 0.61976 0.0
H1225 H 0.3665 0.74352 0.57113 0.0
H1226 H 0.50044 0.79017 0.5529 0.0
H1227 H 0.45834 0.75986 0.55092 0.0
H1228 H 0.44981 0.68762 0.59304 0.0
C1229 C 0.34587 0.68806 0.60991 0.0
C1230 C 0.38447 0.73065 0.57551 0.0
C1231 C 0.318 0.68633 0.61673 0.0
C1232 C 0.49602 0.77544 0.56435 0.0
C1233 C 0.47183 0.75822 0.56331 0.0
C1234 C 0.43179 0.69988 0.58804 0.0
C1235 C 0.35115 0.69646 0.59112 0.0
C1236 C 0.38034 0.70486 0.58525 0.0
C1237 C 0.46439 0.74024 0.57849 0.0
C1238 C 0.43583 0.72647 0.57919 0.0
H1239 H 0.28269 0.70371 0.5761 0.0
H1240 H 0.33131 0.70653 0.5642 0.0
H1241 H 0.40183 0.66916 0.59848 0.0
H1242 H 0.52067 0.75432 0.60753 0.0
H1243 H 0.47802 0.72486 0.60608 0.0
C1244 C 0.23458 0.53408 0.64416 0.0
C1245 C 0.21055 0.53614 0.65586 0.0
C1246 C 0.25471 0.51259 0.64732 0.0
C1247 C 0.27467 0.4538 0.68061 0.0
H1248 H 0.27871 0.4088 0.63463 0.0
C1249 C 0.25713 0.3345 0.6786 0.0
C1250 C 0.26962 0.31769 0.6644 0.0
C1251 C 0.26308 0.36357 0.67973 0.0
C1252 C 0.27866 0.42124 0.64757 0.0
H1253 H 0.18952 0.51939 0.68071 0.0
H1254 H 0.22439 0.48204 0.68632 0.0
H1255 H 0.26586 0.45877 0.63275 0.0
H1256 H 0.29987 0.31766 0.64118 0.0
H1257 H 0.31006 0.36866 0.64307 0.0
H1258 H 0.28538 0.4155 0.69551 0.0
C1259 C 0.22813 0.49687 0.67483 0.0
C1260 C 0.2713 0.45001 0.64648 0.0
C1261 C 0.208 0.51809 0.67157 0.0
C1262 C 0.28972 0.33012 0.65219 0.0
C1263 C 0.29555 0.35932 0.65324 0.0
C1264 C 0.28198 0.42498 0.6817 0.0
C1265 C 0.25109 0.49309 0.66229 0.0
C1266 C 0.2676 0.46615 0.66308 0.0
C1267 C 0.28157 0.37651 0.66664 0.0
C1268 C 0.28245 0.40805 0.66527 0.0
H1269 H 0.23678 0.54785 0.63192 0.0
H1270 H 0.27226 0.51029 0.63749 0.0
H1271 H 0.27255 0.46588 0.69362 0.0
H1272 H 0.24176 0.32548 0.68834 0.0
H1273 H 0.25167 0.37622 0.69009 0.0
C1274 C 0.45714 0.20861 0.63701 0.0
C1275 C 0.45209 0.1827 0.64638 0.0
C1276 C 0.48132 0.22479 0.64135 0.0
C1277 C 0.54141 0.23192 0.67561 0.0
H1278 H 0.58605 0.24704 0.63056 0.0
C1279 C 0.66312 0.2268 0.67409 0.0
C1280 C 0.67834 0.24303 0.66079 0.0
C1281 C 0.63348 0.22858 0.67503 0.0
C1282 C 0.57376 0.24372 0.64335 0.0
H1283 H 0.46686 0.15448 0.66858 0.0
H1284 H 0.50892 0.18252 0.67616 0.0
H1285 H 0.53627 0.23409 0.62744 0.0
H1286 H 0.67459 0.27573 0.63919 0.0
H1287 H 0.62287 0.27908 0.64101 0.0
H1288 H 0.57936 0.24035 0.69147 0.0
C1289 C 0.49438 0.19052 0.6655 0.0
C1290 C 0.54511 0.23626 0.64154 0.0
C1291 C 0.47043 0.1743 0.66106 0.0
C1292 C 0.66347 0.26267 0.64945 0.0
C1293 C 0.6338 0.26449 0.65042 0.0
C1294 C 0.57007 0.23946 0.67743 0.0
C1295 C 0.50064 0.21545 0.65528 0.0
C1296 C 0.5289 0.22924 0.6576 0.0
C1297 C 0.61837 0.24672 0.66274 0.0
C1298 C 0.58686 0.2444 0.66127 0.0
H1299 H 0.44332 0.21549 0.6256 0.0
H1300 H 0.48546 0.24404 0.63334 0.0
H1301 H 0.52933 0.22707 0.68827 0.0
H1302 H 0.67391 0.21158 0.68313 0.0
H1303 H 0.62235 0.21438 0.68459 0.0
C1304 C 0.75608 0.3305 0.86278 0.0
C1305 C 0.77272 0.31512 0.84975 0.0
C1306 C 0.75517 0.36033 0.86216 0.0
C1307 C 0.77195 0.42369 0.83256 0.0
H1308 H 0.78783 0.45969 0.88085 0.0
C1309 C 0.81979 0.53677 0.83893 0.0
C1310 C 0.81436 0.55289 0.85526 0.0
C1311 C 0.80833 0.50938 0.83696 0.0
C1312 C 0.78272 0.45026 0.86727 0.0
H1313 H 0.8 0.319 0.8251 0.0
H1314 H 0.79827 0.37093 0.82396 0.0
H1315 H 0.77897 0.40875 0.87958 0.0
H1316 H 0.79194 0.55389 0.88198 0.0
H1317 H 0.77076 0.50657 0.87828 0.0
H1318 H 0.77603 0.46519 0.8202 0.0
C1319 C 0.78596 0.35998 0.83469 0.0
C1320 C 0.77771 0.42089 0.86655 0.0
C1321 C 0.78707 0.33018 0.83541 0.0
C1322 C 0.79608 0.5419 0.86915 0.0
C1323 C 0.78434 0.51463 0.86711 0.0
C1324 C 0.77671 0.45317 0.83329 0.0
C1325 C 0.77064 0.37546 0.84837 0.0
C1326 C 0.77279 0.40714 0.84917 0.0
C1327 C 0.79114 0.49755 0.85131 0.0
C1328 C 0.78272 0.46681 0.85062 0.0
H1329 H 0.7447 0.31961 0.87399 0.0
H1330 H 0.74287 0.37161 0.87275 0.0
H1331 H 0.76789 0.41379 0.81896 0.0
H1332 H 0.83434 0.54466 0.82825 0.0
H1333 H 0.81444 0.49691 0.82471 0.0
C1334 C 0.47679 0.77867 0.8707 0.0
C1335 C 0.46109 0.78983 0.85548 0.0
C1336 C 0.49967 0.76035 0.86741 0.0
C1337 C 0.55349 0.75288 0.83116 0.0
H1338 H 0.58461 0.69585 0.86509 0.0
C1339 C 0.67103 0.72237 0.82586 0.0
C1340 C 0.68575 0.72077 0.84314 0.0
C1341 C 0.64132 0.72204 0.82547 0.0
C1342 C 0.57626 0.71181 0.8555 0.0
H1343 H 0.45509 0.78861 0.8251 0.0
H1344 H 0.49506 0.75626 0.81926 0.0
H1345 H 0.53453 0.70945 0.86773 0.0
H1346 H 0.68099 0.71614 0.87351 0.0
H1347 H 0.62912 0.71665 0.87298 0.0
H1348 H 0.59522 0.75675 0.81966 0.0
C1349 C 0.48985 0.76189 0.83374 0.0
C1350 C 0.54753 0.71945 0.85695 0.0
C1351 C 0.4668 0.78013 0.83707 0.0
C1352 C 0.6702 0.71737 0.85997 0.0
C1353 C 0.64041 0.7175 0.85963 0.0
C1354 C 0.58216 0.74543 0.82981 0.0
C1355 C 0.50741 0.75301 0.8488 0.0
C1356 C 0.536 0.74061 0.84509 0.0
C1357 C 0.62557 0.72063 0.8424 0.0
C1358 C 0.59416 0.72532 0.84227 0.0
H1359 H 0.47277 0.78595 0.88502 0.0
H1360 H 0.51277 0.75406 0.87932 0.0
H1361 H 0.54552 0.76966 0.82205 0.0
H1362 H 0.68248 0.72457 0.81261 0.0
H1363 H 0.6307 0.72372 0.8119 0.0
C1364 C 0.23719 0.48616 0.87541 0.0
C1365 C 0.22155 0.48211 0.89213 0.0
C1366 C 0.25588 0.5093 0.87377 0.0
C1367 C 0.2872 0.57154 0.90022 0.0
H1368 H 0.26924 0.61155 0.8537 0.0
C1369 C 0.2864 0.69453 0.89267 0.0
C1370 C 0.29241 0.70638 0.87483 0.0
C1371 C 0.28678 0.66489 0.89522 0.0
C1372 C 0.27511 0.60059 0.86663 0.0
H1373 H 0.21562 0.49685 0.92093 0.0
H1374 H 0.24766 0.53723 0.91808 0.0
H1375 H 0.25532 0.56222 0.85724 0.0
H1376 H 0.30609 0.6967 0.8462 0.0
H1377 H 0.30736 0.6453 0.85075 0.0
H1378 H 0.30576 0.61075 0.90987 0.0
C1379 C 0.24581 0.52278 0.90618 0.0
C1380 C 0.26716 0.57209 0.86865 0.0
C1381 C 0.22729 0.49964 0.90782 0.0
C1382 C 0.30095 0.6882 0.86006 0.0
C1383 C 0.30154 0.6587 0.86264 0.0
C1384 C 0.29509 0.60021 0.89821 0.0
C1385 C 0.25916 0.52882 0.8888 0.0
C1386 C 0.27244 0.55733 0.88564 0.0
C1387 C 0.29336 0.64658 0.88001 0.0
C1388 C 0.28855 0.61526 0.88154 0.0
H1389 H 0.23317 0.473 0.86308 0.0
H1390 H 0.26636 0.5129 0.86032 0.0
H1391 H 0.29196 0.56076 0.91341 0.0
H1392 H 0.27971 0.70798 0.90433 0.0
H1393 H 0.28022 0.6563 0.90878 0.0
C1394 C 0.53997 0.19701 0.91142 0.0
C1395 C 0.56188 0.19664 0.89789 0.0
C1396 C 0.51645 0.21484 0.90914 0.0
C1397 C 0.47481 0.24743 0.87127 0.0
H1398 H 0.43336 0.28151 0.91304 0.0
C1399 C 0.36304 0.29533 0.86025 0.0
C1400 C 0.34263 0.28718 0.87377 0.0
C1401 C 0.39204 0.29083 0.8636 0.0
C1402 C 0.44463 0.27205 0.90122 0.0
H1403 H 0.5771 0.21567 0.87185 0.0
H1404 H 0.53582 0.24707 0.86781 0.0
H1405 H 0.48103 0.2624 0.91835 0.0
H1406 H 0.33684 0.26906 0.90178 0.0
H1407 H 0.3872 0.26085 0.90751 0.0
H1408 H 0.4381 0.25595 0.8543 0.0
C1409 C 0.53683 0.23338 0.88014 0.0
C1410 C 0.47198 0.26118 0.90426 0.0
C1411 C 0.56055 0.21563 0.88253 0.0
C1412 C 0.35196 0.27559 0.89105 0.0
C1413 C 0.38093 0.27104 0.89439 0.0
C1414 C 0.44745 0.25822 0.86824 0.0
C1415 C 0.51418 0.23265 0.89319 0.0
C1416 C 0.48711 0.24811 0.88943 0.0
C1417 C 0.40131 0.27805 0.88055 0.0
C1418 C 0.43173 0.27004 0.88328 0.0
H1419 H 0.54056 0.18267 0.92345 0.0
H1420 H 0.49932 0.21352 0.91937 0.0
H1421 H 0.48569 0.23717 0.85959 0.0
H1422 H 0.3566 0.30449 0.84683 0.0
H1423 H 0.40718 0.29689 0.85277 0.0
C1424 C 0.26612 0.36596 0.37106 0.0
C1425 C 0.26622 0.34989 0.38784 0.0
C1426 C 0.26172 0.39542 0.37164 0.0
C1427 C 0.26352 0.45834 0.40322 0.0
H1428 H 0.21181 0.49035 0.36603 0.0
C1429 C 0.25022 0.57974 0.39101 0.0
C1430 C 0.22273 0.59009 0.38716 0.0
C1431 C 0.25527 0.55045 0.39248 0.0
C1432 C 0.2261 0.48173 0.37663 0.0
H1433 H 0.26254 0.35199 0.4184 0.0
H1434 H 0.25488 0.40353 0.41946 0.0
H1435 H 0.22193 0.43941 0.36567 0.0
H1436 H 0.1788 0.57777 0.38248 0.0
H1437 H 0.18761 0.52665 0.38514 0.0
H1438 H 0.26748 0.50072 0.41426 0.0
C1439 C 0.25835 0.39342 0.40586 0.0
C1440 C 0.23219 0.45258 0.37626 0.0
C1441 C 0.26265 0.36391 0.40526 0.0
C1442 C 0.20025 0.57052 0.38538 0.0
C1443 C 0.20533 0.54121 0.38678 0.0
C1444 C 0.25752 0.48757 0.40353 0.0
C1445 C 0.25739 0.40946 0.38903 0.0
C1446 C 0.25104 0.44053 0.38951 0.0
C1447 C 0.23297 0.5308 0.39007 0.0
C1448 C 0.23876 0.49961 0.39021 0.0
H1449 H 0.26886 0.35569 0.35743 0.0
H1450 H 0.26155 0.40721 0.35845 0.0
H1451 H 0.27824 0.44975 0.41356 0.0
H1452 H 0.26802 0.59423 0.39249 0.0
H1453 H 0.27684 0.54316 0.39488 0.0
C1454 C 0.43678 0.20158 0.37325 0.0
C1455 C 0.42501 0.20345 0.39152 0.0
C1456 C 0.46545 0.20829 0.37018 0.0
C1457 C 0.53433 0.21599 0.39494 0.0
H1458 H 0.55415 0.2657 0.35309 0.0
C1459 C 0.64437 0.26878 0.3904 0.0
C1460 C 0.65756 0.26999 0.3726 0.0
C1461 C 0.61589 0.2606 0.39199 0.0
C1462 C 0.54905 0.25152 0.3647 0.0
H1463 H 0.43426 0.21323 0.42094 0.0
H1464 H 0.48404 0.22483 0.41559 0.0
H1465 H 0.50496 0.24994 0.35697 0.0
H1466 H 0.65136 0.26418 0.34243 0.0
H1467 H 0.6016 0.24951 0.34516 0.0
H1468 H 0.57826 0.21745 0.40272 0.0
C1469 C 0.47124 0.21806 0.40364 0.0
C1470 C 0.52086 0.24247 0.36691 0.0
C1471 C 0.44263 0.21155 0.40669 0.0
C1472 C 0.64161 0.26353 0.35633 0.0
C1473 C 0.61311 0.25521 0.35791 0.0
C1474 C 0.56247 0.22492 0.3927 0.0
C1475 C 0.48295 0.21676 0.38535 0.0
C1476 C 0.51315 0.22487 0.3822 0.0
C1477 C 0.60001 0.25327 0.3758 0.0
C1478 C 0.57014 0.24309 0.3777 0.0
H1479 H 0.42377 0.19541 0.36127 0.0
H1480 H 0.47395 0.20682 0.35595 0.0
H1481 H 0.52916 0.20204 0.40668 0.0
H1482 H 0.65616 0.27378 0.40317 0.0
H1483 H 0.60634 0.25994 0.40594 0.0
C1484 C 0.71777 0.6676 0.35323 0.0
C1485 C 0.73361 0.68547 0.36522 0.0
C1486 C 0.72095 0.63789 0.35428 0.0
C1487 C 0.74472 0.58107 0.38687 0.0
H1488 H 0.75322 0.5352 0.34152 0.0
C1489 C 0.74972 0.45832 0.38988 0.0
C1490 C 0.77069 0.44496 0.37878 0.0
C1491 C 0.74375 0.48731 0.3876 0.0
C1492 C 0.75096 0.54775 0.35431 0.0
H1493 H 0.76518 0.68643 0.38761 0.0
H1494 H 0.77062 0.63493 0.38949 0.0
H1495 H 0.74525 0.58661 0.33871 0.0
H1496 H 0.80161 0.45161 0.35641 0.0
H1497 H 0.79124 0.50233 0.35249 0.0
H1498 H 0.75089 0.54251 0.40251 0.0
C1499 C 0.75561 0.64365 0.37938 0.0
C1500 C 0.7461 0.57713 0.35269 0.0
C1501 C 0.75259 0.67319 0.37823 0.0
C1502 C 0.78535 0.46124 0.3652 0.0
C1503 C 0.77927 0.49026 0.36286 0.0
C1504 C 0.74938 0.55176 0.38848 0.0
C1505 C 0.73981 0.62561 0.36747 0.0
C1506 C 0.74324 0.59416 0.36898 0.0
C1507 C 0.75852 0.50367 0.37413 0.0
C1508 C 0.75277 0.53476 0.37224 0.0
H1509 H 0.70301 0.67656 0.34305 0.0
H1510 H 0.70837 0.62453 0.34498 0.0
H1511 H 0.74232 0.59355 0.39969 0.0
H1512 H 0.73792 0.44642 0.40042 0.0
H1513 H 0.72741 0.49689 0.39635 0.0
C1514 C 0.5814 0.77225 0.35111 0.0
C1515 C 0.59357 0.78382 0.36759 0.0
C1516 C 0.5552 0.7582 0.35186 0.0
C1517 C 0.49075 0.75261 0.38196 0.0
H1518 H 0.47159 0.69155 0.34715 0.0
C1519 C 0.38068 0.69996 0.38341 0.0
C1520 C 0.36656 0.70013 0.36587 0.0
C1521 C 0.40995 0.70498 0.38437 0.0
C1522 C 0.47669 0.70857 0.35695 0.0
H1523 H 0.58841 0.78866 0.39793 0.0
H1524 H 0.54317 0.76334 0.3994 0.0
H1525 H 0.52015 0.71012 0.34797 0.0
H1526 H 0.37213 0.70374 0.3355 0.0
H1527 H 0.42349 0.71215 0.33715 0.0
H1528 H 0.44732 0.75098 0.39094 0.0
C1529 C 0.55338 0.76584 0.38575 0.0
C1530 C 0.50446 0.71935 0.35738 0.0
C1531 C 0.57943 0.78023 0.38495 0.0
C1532 C 0.38253 0.70346 0.3492 0.0
C1533 C 0.4119 0.70823 0.35015 0.0
C1534 C 0.46316 0.7416 0.38169 0.0
C1535 C 0.54066 0.75504 0.36916 0.0
C1536 C 0.51177 0.74184 0.36969 0.0
C1537 C 0.42571 0.71001 0.3678 0.0
C1538 C 0.45572 0.71974 0.36902 0.0
H1539 H 0.59169 0.77475 0.33748 0.0
H1540 H 0.54598 0.75065 0.33873 0.0
H1541 H 0.49527 0.77028 0.39136 0.0
H1542 H 0.36891 0.69739 0.39649 0.0
H1543 H 0.42011 0.70586 0.39814 0.0
C1544 C 0.23115 0.66502 0.15828 0.0
C1545 C 0.25685 0.676 0.15123 0.0
C1546 C 0.227 0.63556 0.15963 0.0
C1547 C 0.26335 0.56537 0.15892 0.0
H1548 H 0.19221 0.53908 0.13723 0.0
C1549 C 0.24478 0.44705 0.1397 0.0
C1550 C 0.21765 0.43545 0.14301 0.0
C1551 C 0.24957 0.47634 0.14163 0.0
C1552 C 0.21201 0.54597 0.14361 0.0
H1553 H 0.29897 0.66494 0.14117 0.0
H1554 H 0.29184 0.61347 0.14365 0.0
H1555 H 0.20094 0.58997 0.14051 0.0
H1556 H 0.17422 0.44564 0.15087 0.0
H1557 H 0.18263 0.49659 0.15454 0.0
H1558 H 0.27443 0.52136 0.16202 0.0
C1559 C 0.27487 0.62757 0.14813 0.0
C1560 C 0.21701 0.57521 0.1455 0.0
C1561 C 0.27897 0.65705 0.1467 0.0
C1562 C 0.19535 0.45388 0.14811 0.0
C1563 C 0.20017 0.48316 0.15015 0.0
C1564 C 0.25828 0.53608 0.15714 0.0
C1565 C 0.24851 0.61648 0.15405 0.0
C1566 C 0.24279 0.58529 0.15308 0.0
C1567 C 0.22738 0.49478 0.14702 0.0
C1568 C 0.2326 0.52598 0.14933 0.0
H1569 H 0.21375 0.67913 0.16191 0.0
H1570 H 0.20664 0.62771 0.16456 0.0
H1571 H 0.28332 0.57244 0.16498 0.0
H1572 H 0.26243 0.43348 0.13567 0.0
H1573 H 0.27067 0.48453 0.13876 0.0
C1574 C 0.54868 0.21805 0.13727 0.0
C1575 C 0.55896 0.2015 0.12213 0.0
C1576 C 0.52061 0.22801 0.13733 0.0
C1577 C 0.44981 0.21366 0.11664 0.0
H1578 H 0.43244 0.29032 0.13367 0.0
C1579 C 0.33711 0.26087 0.10934 0.0
C1580 C 0.32656 0.27713 0.1245 0.0
C1581 C 0.3657 0.25271 0.10879 0.0
C1582 C 0.43687 0.26874 0.12907 0.0
H1583 H 0.54773 0.18262 0.09508 0.0
H1584 H 0.49882 0.20008 0.09515 0.0
H1585 H 0.48175 0.27396 0.13317 0.0
H1586 H 0.33768 0.29795 0.15086 0.0
H1587 H 0.3877 0.28345 0.15006 0.0
H1588 H 0.40502 0.20828 0.11267 0.0
C1589 C 0.51241 0.20513 0.10709 0.0
C1590 C 0.46516 0.25937 0.12877 0.0
C1591 C 0.54052 0.19525 0.107 0.0
C1592 C 0.34529 0.2855 0.13897 0.0
C1593 C 0.37396 0.27727 0.13845 0.0
C1594 C 0.42155 0.223 0.11698 0.0
C1595 C 0.50207 0.22159 0.12227 0.0
C1596 C 0.47199 0.23171 0.12252 0.0
C1597 C 0.38447 0.26051 0.12343 0.0
C1598 C 0.41468 0.25068 0.12316 0.0
H1599 H 0.56228 0.22326 0.14917 0.0
H1600 H 0.51328 0.24034 0.14935 0.0
H1601 H 0.45423 0.19207 0.11206 0.0
H1602 H 0.32317 0.2542 0.09794 0.0
H1603 H 0.37311 0.24029 0.09683 0.0
C1604 C 0.78938 0.54457 0.12115 0.0
C1605 C 0.79842 0.55428 0.10331 0.0
C1606 C 0.7822 0.51594 0.12385 0.0
C1607 C 0.79158 0.44393 0.10391 0.0
H1608 H 0.72132 0.42729 0.1305 0.0
C1609 C 0.74558 0.33005 0.10702 0.0
C1610 C 0.73436 0.32118 0.12446 0.0
C1611 C 0.75263 0.35866 0.10406 0.0
C1612 C 0.74116 0.43153 0.12323 0.0
H1613 H 0.80786 0.54139 0.07445 0.0
H1614 H 0.79544 0.49145 0.07921 0.0
H1615 H 0.73657 0.47663 0.12671 0.0
H1616 H 0.72125 0.33509 0.1524 0.0
H1617 H 0.7339 0.3849 0.14741 0.0
H1618 H 0.7964 0.39887 0.10058 0.0
C1619 C 0.79393 0.50596 0.09111 0.0
C1620 C 0.74989 0.4598 0.12107 0.0
C1621 C 0.80093 0.5346 0.08837 0.0
C1622 C 0.72972 0.34143 0.13877 0.0
C1623 C 0.73688 0.36999 0.13586 0.0
C1624 C 0.78294 0.41563 0.10616 0.0
C1625 C 0.78412 0.4964 0.1088 0.0
C1626 C 0.77519 0.46631 0.11139 0.0
C1627 C 0.74871 0.37892 0.11855 0.0
C1628 C 0.7576 0.40908 0.11583 0.0
H1629 H 0.78726 0.55918 0.13296 0.0
H1630 H 0.77506 0.5091 0.13772 0.0
H1631 H 0.81134 0.44828 0.09656 0.0
H1632 H 0.74931 0.31481 0.09575 0.0
H1633 H 0.76124 0.36488 0.09045 0.0
C1634 C 0.42177 0.76852 0.09628 0.0
C1635 C 0.41219 0.79251 0.10632 0.0
C1636 C 0.45051 0.76086 0.09657 0.0
C1637 C 0.52283 0.78711 0.11042 0.0
H1638 H 0.54031 0.70628 0.11098 0.0
C1639 C 0.63349 0.74241 0.13047 0.0
C1640 C 0.64553 0.72395 0.11701 0.0
C1641 C 0.60486 0.75029 0.12915 0.0
C1642 C 0.5357 0.72891 0.11075 0.0
H1643 H 0.42524 0.82766 0.12424 0.0
H1644 H 0.47513 0.8138 0.12539 0.0
H1645 H 0.49098 0.72182 0.10825 0.0
H1646 H 0.63705 0.69844 0.09206 0.0
H1647 H 0.58663 0.71153 0.09012 0.0
H1648 H 0.56769 0.79392 0.11365 0.0
C1649 C 0.46073 0.80121 0.11683 0.0
C1650 C 0.50745 0.7379 0.10903 0.0
C1651 C 0.43204 0.80915 0.11624 0.0
C1652 C 0.62823 0.71265 0.10263 0.0
C1653 C 0.59945 0.72012 0.10153 0.0
C1654 C 0.55102 0.77807 0.11248 0.0
C1655 C 0.47033 0.77669 0.10721 0.0
C1656 C 0.50058 0.76716 0.10878 0.0
C1657 C 0.58765 0.73943 0.11457 0.0
C1658 C 0.55771 0.7489 0.11263 0.0
H1659 H 0.40698 0.75543 0.08835 0.0
H1660 H 0.45709 0.74232 0.08855 0.0
H1661 H 0.51859 0.80978 0.10992 0.0
H1662 H 0.64641 0.75152 0.14165 0.0
H1663 H 0.59619 0.76503 0.13947 0.0
C1664 C 0.26729 0.21376 0.32988 0.0
C1665 C 0.28378 0.23326 0.34014 0.0
C1666 C 0.25467 0.22192 0.31278 0.0
C1667 C 0.24182 0.2855 0.2815 0.0
H1668 H 0.24198 0.22801 0.24211 0.0
C1669 C 0.21246 0.31332 0.20414 0.0
C1670 C 0.22709 0.29871 0.18979 0.0
C1671 C 0.21514 0.30478 0.22303 0.0
C1672 C 0.24213 0.24448 0.25285 0.0
H1673 H 0.30031 0.27627 0.34088 0.0
H1674 H 0.27995 0.29012 0.31064 0.0
H1675 H 0.25416 0.21469 0.27418 0.0
H1676 H 0.25645 0.2643 0.18379 0.0
H1677 H 0.2626 0.25048 0.21669 0.0
H1678 H 0.23218 0.31573 0.25986 0.0
C1679 C 0.27537 0.26898 0.31597 0.0
C1680 C 0.24853 0.23668 0.27145 0.0
C1681 C 0.28727 0.26104 0.33328 0.0
C1682 C 0.24475 0.27575 0.19461 0.0
C1683 C 0.24799 0.26766 0.2135 0.0
C1684 C 0.23611 0.29344 0.26281 0.0
C1685 C 0.25916 0.24944 0.30533 0.0
C1686 C 0.24902 0.25717 0.28599 0.0
C1687 C 0.23303 0.28186 0.22799 0.0
C1688 C 0.23672 0.27312 0.24815 0.0
H1689 H 0.26432 0.19221 0.33504 0.0
H1690 H 0.24184 0.20645 0.30526 0.0
H1691 H 0.24123 0.30181 0.29235 0.0
H1692 H 0.19842 0.3309 0.20071 0.0
H1693 H 0.20287 0.31597 0.23367 0.0
C1694 C 0.74282 0.30417 0.31984 0.0
C1695 C 0.77091 0.30981 0.32539 0.0
C1696 C 0.73714 0.29111 0.30246 0.0
C1697 C 0.76621 0.27969 0.25495 0.0
H1698 H 0.70815 0.22108 0.25228 0.0
C1699 C 0.70729 0.24922 0.18603 0.0
C1700 C 0.70013 0.22056 0.18307 0.0
C1701 C 0.72039 0.25779 0.20289 0.0
C1702 C 0.7247 0.23713 0.25277 0.0
H1703 H 0.81513 0.30716 0.31694 0.0
H1704 H 0.80524 0.28393 0.28649 0.0
H1705 H 0.72235 0.24009 0.28302 0.0
H1706 H 0.70103 0.17825 0.19531 0.0
H1707 H 0.72405 0.19312 0.22481 0.0
H1708 H 0.76824 0.27698 0.22465 0.0
C1709 C 0.78761 0.28952 0.29565 0.0
C1710 C 0.73259 0.24824 0.27038 0.0
C1711 C 0.79328 0.30267 0.31308 0.0
C1712 C 0.70659 0.20048 0.19718 0.0
C1713 C 0.71964 0.20902 0.21408 0.0
C1714 C 0.75818 0.26869 0.2373 0.0
C1715 C 0.75946 0.2835 0.29021 0.0
C1716 C 0.75306 0.26999 0.27164 0.0
C1717 C 0.72627 0.23787 0.21725 0.0
C1718 C 0.737 0.24759 0.236 0.0
H1719 H 0.72517 0.31038 0.32879 0.0
H1720 H 0.71519 0.28736 0.29849 0.0
H1721 H 0.78198 0.29651 0.25547 0.0
H1722 H 0.70136 0.26526 0.17579 0.0
H1723 H 0.72464 0.28025 0.20503 0.0
C1724 C 0.71883 0.8066 0.28753 0.0
C1725 C 0.73028 0.79032 0.30234 0.0
C1726 C 0.72781 0.80218 0.26893 0.0
C1727 C 0.78081 0.76191 0.23951 0.0
H1728 H 0.71978 0.76452 0.20261 0.0
C1729 C 0.79523 0.71694 0.16399 0.0
C1730 C 0.77199 0.70151 0.15693 0.0
C1731 C 0.79219 0.73368 0.18025 0.0
C1732 C 0.73706 0.7635 0.21275 0.0
H1733 H 0.76055 0.75733 0.30966 0.0
H1734 H 0.77499 0.74818 0.27712 0.0
H1735 H 0.71156 0.78238 0.23425 0.0
H1736 H 0.72766 0.6908 0.16116 0.0
H1737 H 0.72261 0.71857 0.19002 0.0
H1738 H 0.80544 0.74063 0.21837 0.0
C1739 C 0.75991 0.76517 0.27974 0.0
C1740 C 0.73252 0.77429 0.23089 0.0
C1741 C 0.75148 0.77017 0.29841 0.0
C1742 C 0.74576 0.70287 0.16627 0.0
C1743 C 0.74287 0.71899 0.18273 0.0
C1744 C 0.78515 0.75053 0.22146 0.0
C1745 C 0.74781 0.78076 0.2647 0.0
C1746 C 0.75409 0.77296 0.2447 0.0
C1747 C 0.76602 0.73465 0.18993 0.0
C1748 C 0.76301 0.75043 0.20805 0.0
H1749 H 0.7028 0.82266 0.29032 0.0
H1750 H 0.7186 0.8152 0.25786 0.0
H1751 H 0.79819 0.7612 0.24957 0.0
H1752 H 0.81566 0.71615 0.1569 0.0
H1753 H 0.81035 0.74569 0.18527 0.0
C1754 C 0.2243 0.69553 0.30454 0.0
C1755 C 0.24101 0.70048 0.32071 0.0
C1756 C 0.23351 0.70438 0.28672 0.0
C1757 C 0.2828 0.75375 0.2626 0.0
H1758 H 0.26582 0.70548 0.2194 0.0
C1759 C 0.31595 0.78248 0.18588 0.0
C1760 C 0.29334 0.78168 0.17283 0.0
C1761 C 0.3129 0.77045 0.20389 0.0
C1762 C 0.27072 0.71914 0.23134 0.0
H1763 H 0.27942 0.7203 0.33097 0.0
H1764 H 0.29641 0.7349 0.29972 0.0
H1765 H 0.25452 0.68896 0.25126 0.0
H1766 H 0.24986 0.76772 0.16849 0.0
H1767 H 0.24491 0.74585 0.19959 0.0
H1768 H 0.29899 0.78391 0.2425 0.0
C1769 C 0.27616 0.72402 0.30083 0.0
C1770 C 0.26413 0.70979 0.24959 0.0
C1771 C 0.26676 0.71524 0.31873 0.0
C1772 C 0.26791 0.76804 0.178 0.0
C1773 C 0.26503 0.75564 0.19586 0.0
C1774 C 0.28966 0.76298 0.24432 0.0
C1775 C 0.25975 0.71837 0.28457 0.0
C1776 C 0.26943 0.72727 0.26541 0.0
C1777 C 0.28732 0.7571 0.20908 0.0
C1778 C 0.2831 0.746 0.22851 0.0
H1779 H 0.20417 0.6844 0.30556 0.0
H1780 H 0.2199 0.70037 0.27463 0.0
H1781 H 0.28696 0.76786 0.27442 0.0
H1782 H 0.33579 0.79294 0.18235 0.0
H1783 H 0.33044 0.77174 0.21381 0.0
C1784 C 0.74575 0.79742 0.65829 0.0
C1785 C 0.71763 0.7921 0.65269 0.0
C1786 C 0.75596 0.78692 0.67546 0.0
C1787 C 0.73028 0.76388 0.72211 0.0
H1788 H 0.80813 0.73813 0.72871 0.0
C1789 C 0.76972 0.71923 0.79271 0.0
C1790 C 0.7952 0.73083 0.79975 0.0
C1791 C 0.76144 0.72415 0.77407 0.0
C1792 C 0.7864 0.74542 0.72704 0.0
H1793 H 0.67804 0.77151 0.66035 0.0
H1794 H 0.69597 0.75258 0.69034 0.0
H1795 H 0.79084 0.75023 0.69703 0.0
H1796 H 0.83257 0.75567 0.79255 0.0
H1797 H 0.81795 0.76429 0.75973 0.0
H1798 H 0.72581 0.75908 0.75206 0.0
C1799 C 0.71009 0.76517 0.68157 0.0
C1800 C 0.77649 0.75235 0.70895 0.0
C1801 C 0.69984 0.77587 0.66442 0.0
C1802 C 0.81279 0.74656 0.78753 0.0
C1803 C 0.8045 0.75139 0.76876 0.0
C1804 C 0.74011 0.75678 0.74012 0.0
C1805 C 0.73816 0.77092 0.6874 0.0
C1806 C 0.74835 0.76183 0.70632 0.0
C1807 C 0.77848 0.74064 0.76201 0.0
C1808 C 0.76827 0.74762 0.74277 0.0
H1809 H 0.75957 0.81061 0.6497 0.0
H1810 H 0.77747 0.79226 0.67968 0.0
H1811 H 0.7087 0.77171 0.72066 0.0
H1812 H 0.75588 0.70658 0.80163 0.0
H1813 H 0.74152 0.71521 0.76912 0.0
C1814 C 0.26635 0.8321 0.80461 0.0
C1815 C 0.26189 0.8152 0.82073 0.0
C1816 C 0.25512 0.82387 0.78713 0.0
C1817 C 0.228 0.75924 0.76272 0.0
H1818 H 0.2098 0.81347 0.72304 0.0
C1819 C 0.17992 0.72873 0.69006 0.0
C1820 C 0.19796 0.73578 0.67491 0.0
C1821 C 0.18508 0.73969 0.70811 0.0
C1822 C 0.21477 0.79821 0.73408 0.0
H1823 H 0.24087 0.77747 0.83157 0.0
H1824 H 0.21979 0.76405 0.80145 0.0
H1825 H 0.22171 0.83078 0.75473 0.0
H1826 H 0.23489 0.76039 0.66645 0.0
H1827 H 0.24342 0.78022 0.69809 0.0
H1828 H 0.22023 0.72676 0.74203 0.0
C1829 C 0.23301 0.78293 0.80197 0.0
C1830 C 0.22179 0.80803 0.75217 0.0
C1831 C 0.24486 0.79075 0.81931 0.0
C1832 C 0.22083 0.75448 0.67797 0.0
C1833 C 0.22558 0.76595 0.69594 0.0
C1834 C 0.22037 0.74948 0.74478 0.0
C1835 C 0.23866 0.79891 0.78552 0.0
C1836 C 0.22893 0.78866 0.76666 0.0
C1837 C 0.2079 0.75838 0.71113 0.0
C1838 C 0.21412 0.7689 0.73031 0.0
H1839 H 0.27956 0.85099 0.8053 0.0
H1840 H 0.26034 0.83654 0.7748 0.0
H1841 H 0.23399 0.74364 0.77329 0.0
H1842 H 0.16218 0.7143 0.68805 0.0
H1843 H 0.17127 0.73362 0.71972 0.0
C1844 C 0.19057 0.2785 0.81672 0.0
C1845 C 0.21414 0.28564 0.82801 0.0
C1846 C 0.19416 0.26287 0.80007 0.0
C1847 C 0.21193 0.25169 0.75947 0.0
H1848 H 0.26469 0.18864 0.75411 0.0
C1849 C 0.2595 0.21723 0.68787 0.0
C1850 C 0.26246 0.18803 0.68428 0.0
C1851 C 0.25023 0.22684 0.70554 0.0
C1852 C 0.24963 0.20601 0.75543 0.0
H1853 H 0.25979 0.28182 0.83087 0.0
H1854 H 0.26616 0.25413 0.80185 0.0
H1855 H 0.25499 0.20825 0.78556 0.0
H1856 H 0.25801 0.14573 0.69629 0.0
H1857 H 0.24186 0.16247 0.72731 0.0
H1858 H 0.20688 0.24977 0.72934 0.0
C1859 C 0.24485 0.26029 0.80602 0.0
C1860 C 0.2443 0.21738 0.77339 0.0
C1861 C 0.24124 0.27607 0.82266 0.0
C1862 C 0.25573 0.16843 0.69865 0.0
C1863 C 0.24664 0.178 0.71641 0.0
C1864 C 0.21741 0.24046 0.74152 0.0
C1865 C 0.2214 0.25411 0.79433 0.0
C1866 C 0.22561 0.24053 0.77556 0.0
C1867 C 0.2441 0.20733 0.72009 0.0
C1868 C 0.23656 0.21773 0.73928 0.0
H1869 H 0.16938 0.28558 0.82052 0.0
H1870 H 0.17565 0.25812 0.79147 0.0
H1871 H 0.19765 0.26973 0.76065 0.0
H1872 H 0.26553 0.23265 0.67727 0.0
H1873 H 0.249 0.24959 0.70805 0.0
C1874 C 0.7176 0.20608 0.81921 0.0
C1875 C 0.74126 0.20427 0.83133 0.0
C1876 C 0.72038 0.21725 0.80093 0.0
C1877 C 0.76931 0.25749 0.76901 0.0
H1878 H 0.73032 0.21506 0.72962 0.0
C1879 C 0.78235 0.28756 0.69031 0.0
C1880 C 0.78654 0.26486 0.67762 0.0
C1881 C 0.77285 0.28249 0.70878 0.0
C1882 C 0.74145 0.2271 0.74042 0.0
H1883 H 0.78619 0.21345 0.83395 0.0
H1884 H 0.79123 0.23284 0.80208 0.0
H1885 H 0.72235 0.20293 0.76272 0.0
H1886 H 0.78345 0.21911 0.67422 0.0
H1887 H 0.76707 0.21012 0.70644 0.0
H1888 H 0.78945 0.28075 0.74667 0.0
C1889 C 0.77034 0.22608 0.80674 0.0
C1890 C 0.73658 0.2204 0.75946 0.0
C1891 C 0.7675 0.21501 0.82508 0.0
C1892 C 0.77998 0.23708 0.68356 0.0
C1893 C 0.77061 0.23196 0.70209 0.0
C1894 C 0.77426 0.26412 0.74996 0.0
C1895 C 0.74696 0.22668 0.79425 0.0
C1896 C 0.75068 0.2353 0.77403 0.0
C1897 C 0.76756 0.25455 0.71509 0.0
C1898 C 0.76064 0.24879 0.73538 0.0
H1899 H 0.69704 0.19808 0.82365 0.0
H1900 H 0.70176 0.21795 0.7919 0.0
H1901 H 0.78031 0.26965 0.77981 0.0
H1902 H 0.78715 0.30925 0.68612 0.0
H1903 H 0.7702 0.30047 0.71825 0.0
C1904 C 0.02872 0.39032 0.12241 0.0
C1905 C 0.05096 0.39117 0.13573 0.0
C1906 C 0.0153 0.41539 0.11654 0.0
C1907 C 0.02255 0.49417 0.11618 0.0
H1908 H 0.94004 0.49298 0.11414 0.0
C1909 C 0.95741 0.59721 0.1167 0.0
C1910 C 0.93495 0.5997 0.10365 0.0
C1911 C 0.97078 0.57108 0.11968 0.0
C1912 C 0.96307 0.49357 0.11442 0.0
H1913 H 0.07709 0.41909 0.15293 0.0
H1914 H 0.0537 0.46285 0.14275 0.0
H1915 H 0.96612 0.44887 0.12016 0.0
H1916 H 0.90801 0.57641 0.08412 0.0
H1917 H 0.93138 0.53034 0.08947 0.0
H1918 H 0.01948 0.53893 0.11079 0.0
C1919 C 0.04681 0.44284 0.13664 0.0
C1920 C 0.97805 0.4683 0.11783 0.0
C1921 C 0.06027 0.41775 0.14247 0.0
C1922 C 0.92522 0.5751 0.09429 0.0
C1923 C 0.93864 0.5488 0.09732 0.0
C1924 C 0.00759 0.5194 0.11284 0.0
C1925 C 0.0238 0.44191 0.12388 0.0
C1926 C 0.00797 0.46837 0.11897 0.0
C1927 C 0.96198 0.54669 0.10974 0.0
C1928 C 0.97768 0.51946 0.11219 0.0
H1929 H 0.02134 0.37015 0.11676 0.0
H1930 H 0.99804 0.41397 0.10642 0.0
H1931 H 0.04557 0.49491 0.11661 0.0
H1932 H 0.96493 0.61564 0.12448 0.0
H1933 H 0.98819 0.57001 0.12972 0.0
C1934 C 0.38847 0.96514 0.07646 0.0
C1935 C 0.38103 0.94668 0.0914 0.0
C1936 C 0.41618 0.97557 0.0748 0.0
C1937 C 0.49042 0.96431 0.08865 0.0
H1938 H 0.49567 0.04684 0.08908 0.0
C1939 C 0.59329 0.02105 0.11015 0.0
C1940 C 0.60052 0.04723 0.10181 0.0
C1941 C 0.5672 0.0082 0.10632 0.0
C1942 C 0.49474 0.0238 0.08854 0.0
H1943 H 0.39757 0.92344 0.11562 0.0
H1944 H 0.44619 0.94094 0.11225 0.0
H1945 H 0.44927 0.02403 0.08625 0.0
H1946 H 0.58617 0.08065 0.08298 0.0
H1947 H 0.54053 0.05775 0.07572 0.0
H1948 H 0.53575 0.96386 0.09075 0.0
C1949 C 0.43036 0.9475 0.10198 0.0
C1950 C 0.4681 0.01074 0.08699 0.0
C1951 C 0.40251 0.93738 0.10384 0.0
C1952 C 0.58105 0.06042 0.08955 0.0
C1953 C 0.55493 0.04733 0.08549 0.0
C1954 C 0.51709 0.97733 0.08989 0.0
C1955 C 0.43722 0.96734 0.08779 0.0
C1956 C 0.46566 0.9809 0.08743 0.0
C1957 C 0.54767 0.02102 0.09386 0.0
C1958 C 0.51957 0.00727 0.09034 0.0
H1959 H 0.37267 0.97219 0.06632 0.0
H1960 H 0.42107 0.99052 0.06356 0.0
H1961 H 0.48911 0.94126 0.08879 0.0
H1962 H 0.60765 0.01071 0.12001 0.0
H1963 H 0.56216 0.98845 0.11351 0.0
C1964 C 0.06633 0.60382 0.37599 0.0
C1965 C 0.06325 0.62121 0.39206 0.0
C1966 C 0.05255 0.57744 0.37502 0.0
C1967 C 0.98982 0.54105 0.39483 0.0
H1968 H 0.02143 0.47461 0.36988 0.0
C1969 C 0.93341 0.43103 0.39262 0.0
C1970 C 0.93589 0.41526 0.37577 0.0
C1971 C 0.94832 0.45663 0.39485 0.0
C1972 C 0.01219 0.49311 0.37671 0.0
H1973 H 0.04517 0.62378 0.42026 0.0
H1974 H 0.02147 0.57757 0.4187 0.0
H1975 H 0.05087 0.51691 0.37421 0.0
H1976 H 0.95426 0.41484 0.34761 0.0
H1977 H 0.98 0.45958 0.3514 0.0
H1978 H 0.9511 0.51725 0.39727 0.0
C1979 C 0.03388 0.58459 0.40665 0.0
C1980 C 0.0291 0.51731 0.37922 0.0
C1981 C 0.04759 0.61095 0.40759 0.0
C1982 C 0.95231 0.42634 0.36086 0.0
C1983 C 0.96717 0.45186 0.36307 0.0
C1984 C 0.97292 0.51683 0.39234 0.0
C1985 C 0.03549 0.56792 0.39013 0.0
C1986 C 0.01807 0.54162 0.38823 0.0
C1987 C 0.96594 0.46693 0.38026 0.0
C1988 C 0.98385 0.49266 0.38313 0.0
H1989 H 0.07801 0.61131 0.36373 0.0
H1990 H 0.05409 0.56522 0.36204 0.0
H1991 H 0.98048 0.5596 0.40153 0.0
H1992 H 0.92113 0.42286 0.40441 0.0
H1993 H 0.94701 0.4677 0.40829 0.0
C1994 C 0.57987 0.95097 0.35034 0.0
C1995 C 0.60485 0.95768 0.36032 0.0
C1996 C 0.55409 0.96383 0.35511 0.0
C1997 C 0.52443 0.0278 0.37779 0.0
H1998 H 0.45435 0.98435 0.37557 0.0
C1999 C 0.41152 0.07267 0.39605 0.0
C2000 C 0.38959 0.06376 0.38387 0.0
C2001 C 0.43899 0.0614 0.39409 0.0
C2002 C 0.47374 0.99682 0.37612 0.0
H2003 H 0.62217 0.98254 0.38354 0.0
H2004 H 0.57694 0.00508 0.39188 0.0
H2005 H 0.49971 0.96006 0.37156 0.0
H2006 H 0.37956 0.03808 0.35923 0.0
H2007 H 0.42728 0.01864 0.35576 0.0
H2008 H 0.49815 0.06464 0.38225 0.0
C2009 C 0.57748 0.9901 0.38021 0.0
C2010 C 0.49971 0.9829 0.37384 0.0
C2011 C 0.60332 0.97716 0.37545 0.0
C2012 C 0.39596 0.04486 0.36904 0.0
C2013 C 0.42323 0.03365 0.36711 0.0
C2014 C 0.49834 0.04177 0.38014 0.0
C2015 C 0.55263 0.98373 0.36997 0.0
C2016 C 0.52532 0.99828 0.37426 0.0
C2017 C 0.44481 0.04109 0.37994 0.0
C2018 C 0.47272 0.02646 0.37891 0.0
H2019 H 0.58038 0.93652 0.33838 0.0
H2020 H 0.53544 0.95882 0.34673 0.0
H2021 H 0.54381 0.04028 0.37805 0.0
H2022 H 0.4071 0.08719 0.40762 0.0
H2023 H 0.45528 0.06755 0.40415 0.0
C2024 C 0.11324 0.50673 0.88903 0.0
C2025 C 0.11655 0.4798 0.89745 0.0
C2026 C 0.08763 0.52158 0.89064 0.0
C2027 C 0.01118 0.51005 0.90012 0.0
H2028 H 0.00973 0.59275 0.90056 0.0
C2029 C 0.90559 0.57103 0.89757 0.0
C2030 C 0.90392 0.5904 0.88239 0.0
C2031 C 0.93187 0.56044 0.90356 0.0
C2032 C 0.00983 0.56966 0.9005 0.0
H2033 H 0.09584 0.44749 0.91445 0.0
H2034 H 0.05109 0.47372 0.91767 0.0
H2035 H 0.05508 0.56772 0.90349 0.0
H2036 H 0.92886 0.61553 0.86264 0.0
H2037 H 0.97474 0.59748 0.87337 0.0
H2038 H 0.96595 0.51206 0.89699 0.0
C2039 C 0.06816 0.48317 0.90951 0.0
C2040 C 0.0358 0.55528 0.90208 0.0
C2041 C 0.09378 0.46815 0.90773 0.0
C2042 C 0.92932 0.6008 0.87444 0.0
C2043 C 0.95565 0.59038 0.88056 0.0
C2044 C 0.98523 0.52443 0.89877 0.0
C2045 C 0.06468 0.51 0.90083 0.0
C2046 C 0.03688 0.52528 0.90144 0.0
C2047 C 0.95709 0.56926 0.89466 0.0
C2048 C 0.98433 0.55438 0.89854 0.0
H2049 H 0.13024 0.51602 0.88071 0.0
H2050 H 0.08562 0.54179 0.88336 0.0
H2051 H 0.01111 0.48701 0.89927 0.0
H2052 H 0.88645 0.56308 0.90429 0.0
H2053 H 0.93241 0.54456 0.9147 0.0
C2054 C 0.59548 0.07281 0.89022 0.0
C2055 C 0.58576 0.09377 0.90287 0.0
C2056 C 0.58208 0.0462 0.88941 0.0
C2057 C 0.51187 0.01545 0.89761 0.0
H2058 H 0.54974 0.94309 0.88949 0.0
C2059 C 0.44895 0.9106 0.88679 0.0
C2060 C 0.45967 0.89177 0.87308 0.0
C2061 C 0.46498 0.93423 0.89253 0.0
C2062 C 0.53883 0.96318 0.89158 0.0
H2063 H 0.55619 0.1025 0.92573 0.0
H2064 H 0.53279 0.05616 0.92425 0.0
H2065 H 0.57798 0.98557 0.89625 0.0
H2066 H 0.49497 0.88337 0.85412 0.0
H2067 H 0.52257 0.92469 0.86375 0.0
H2068 H 0.47282 0.99348 0.89231 0.0
C2069 C 0.55033 0.06045 0.91472 0.0
C2070 C 0.55503 0.98745 0.89552 0.0
C2071 C 0.56376 0.08693 0.91558 0.0
C2072 C 0.48642 0.89725 0.86499 0.0
C2073 C 0.5023 0.92088 0.87059 0.0
C2074 C 0.49568 0.99126 0.89352 0.0
C2075 C 0.55874 0.04015 0.90122 0.0
C2076 C 0.54172 0.01388 0.8984 0.0
C2077 C 0.49192 0.93958 0.88452 0.0
C2078 C 0.50898 0.96488 0.89022 0.0
H2079 H 0.61227 0.07754 0.88019 0.0
H2080 H 0.58896 0.03098 0.8788 0.0
H2081 H 0.50103 0.03563 0.89947 0.0
H2082 H 0.42845 0.90675 0.89332 0.0
H2083 H 0.45644 0.94808 0.90341 0.0
C2084 C 0.10795 0.51827 0.62491 0.0
C2085 C 0.10891 0.54199 0.63708 0.0
C2086 C 0.08249 0.50342 0.62209 0.0
C2087 C 0.00439 0.51045 0.62795 0.0
H2088 H 0.00497 0.42774 0.62697 0.0
C2089 C 0.90193 0.44737 0.63718 0.0
C2090 C 0.89617 0.42615 0.62367 0.0
C2091 C 0.92898 0.45926 0.6386 0.0
C2092 C 0.00456 0.45083 0.62705 0.0
H2093 H 0.08399 0.56856 0.65594 0.0
H2094 H 0.03973 0.54269 0.65115 0.0
H2095 H 0.04995 0.45387 0.62914 0.0
H2096 H 0.91465 0.39932 0.60193 0.0
H2097 H 0.96248 0.42013 0.60454 0.0
H2098 H 0.95909 0.50747 0.62622 0.0
C2099 C 0.05845 0.53584 0.64344 0.0
C2100 C 0.03028 0.46582 0.62823 0.0
C2101 C 0.08383 0.55072 0.6462 0.0
C2102 C 0.91856 0.41565 0.61246 0.0
C2103 C 0.94584 0.42759 0.61393 0.0
C2104 C 0.9788 0.49552 0.6269 0.0
C2105 C 0.05746 0.51193 0.63142 0.0
C2106 C 0.03044 0.49583 0.62896 0.0
C2107 C 0.951 0.45017 0.6266 0.0
C2108 C 0.97855 0.46557 0.62672 0.0
H2109 H 0.12691 0.51119 0.61756 0.0
H2110 H 0.08239 0.48536 0.61253 0.0
H2111 H 0.00373 0.53353 0.628 0.0
H2112 H 0.8852 0.45544 0.64628 0.0
H2113 H 0.93252 0.47613 0.64883 0.0
C2114 C 0.54511 0.89378 0.6034 0.0
C2115 C 0.53824 0.87705 0.58754 0.0
C2116 C 0.53263 0.92053 0.60591 0.0
C2117 C 0.46837 0.96065 0.59269 0.0
H2118 H 0.50879 0.0236 0.61595 0.0
C2119 C 0.41937 0.07303 0.60657 0.0
C2120 C 0.4266 0.08563 0.62398 0.0
C2121 C 0.43196 0.04726 0.60106 0.0
C2122 C 0.49717 0.00612 0.60957 0.0
H2123 H 0.51424 0.87592 0.56131 0.0
H2124 H 0.49259 0.92282 0.56562 0.0
H2125 H 0.53471 0.98062 0.60718 0.0
H2126 H 0.45076 0.08015 0.6499 0.0
H2127 H 0.47257 0.03533 0.64034 0.0
H2128 H 0.43077 0.98631 0.59521 0.0
C2129 C 0.50717 0.91499 0.5763 0.0
C2130 C 0.51202 0.98152 0.60453 0.0
C2131 C 0.51965 0.8882 0.5738 0.0
C2132 C 0.44525 0.0712 0.63623 0.0
C2133 C 0.45782 0.04562 0.63073 0.0
C2134 C 0.4535 0.98537 0.59768 0.0
C2135 C 0.51305 0.93118 0.5926 0.0
C2136 C 0.49774 0.9583 0.59632 0.0
C2137 C 0.45196 0.03379 0.61288 0.0
C2138 C 0.46768 0.00813 0.60649 0.0
H2139 H 0.559 0.88563 0.61438 0.0
H2140 H 0.53738 0.93227 0.61874 0.0
H2141 H 0.45665 0.94301 0.58659 0.0
H2142 H 0.40514 0.08377 0.59683 0.0
H2143 H 0.42702 0.03857 0.58722 0.0
loop_
_geom_bond_atom_site_label_1
_geom_bond_atom_site_label_2
_geom_bond_distance
_geom_bond_site_symmetry_2
_ccdc_geom_bond_type
O0 Tb1 2.292 . S
O0 C3 1.255 . S
Tb1 O0 2.292 . S
Tb1 O17 2.326 . S
Tb1 O19 2.500 . S
Tb1 O20 2.473 . S
Tb1 O23 2.324 . S
Eu2 O6 2.292 . S
Eu2 C7 2.852 . S
Eu2 O18 2.324 . S
Eu2 O22 2.326 . S
Eu2 O24 2.500 . S
Eu2 O25 2.473 . S
C3 O0 1.255 . S
C3 O4 1.247 . S
O4 C3 1.247 . S
C5 O17 1.242 . S
C5 O18 1.258 . S
O6 Eu2 2.292 . S
O6 C8 1.255 . S
C7 Eu2 2.852 . S
C7 C11 1.503 . S
C7 O24 1.273 . S
C7 O25 1.257 . S
C8 O6 1.255 . S
C8 O9 1.247 . S
O9 C8 1.247 . S
C10 O22 1.242 . S
C10 O23 1.258 . S
C11 C7 1.503 . S
C11 C12 1.379 . S
C11 C16 1.392 . S
C12 C11 1.379 . S
C12 C13 1.404 . S
C12 H26 0.929 . S
C13 C12 1.404 . S
C13 C14 1.389 . S
C14 C13 1.389 . S
C14 C15 1.399 . S
C14 H27 0.931 . S
C15 C14 1.399 . S
C15 C16 1.390 . S
C16 C11 1.392 . S
C16 C15 1.390 . S
C16 H28 0.929 . S
O17 Tb1 2.326 . S
O17 C5 1.242 . S
O18 Eu2 2.324 . S
O18 C5 1.258 . S
O19 Tb1 2.500 . S
O19 C21 1.273 . S
O20 Tb1 2.473 . S
O20 C21 1.257 . S
C21 O19 1.273 . S
C21 O20 1.257 . S
O22 Eu2 2.326 . S
O22 C10 1.242 . S
O23 Tb1 2.324 . S
O23 C10 1.258 . S
O24 Eu2 2.500 . S
O24 C7 1.273 . S
O25 Eu2 2.473 . S
O25 C7 1.257 . S
H26 C12 0.929 . S
H27 C14 0.931 . S
H28 C16 0.929 . S
O29 Tb30 2.292 . S
O29 C32 1.255 . S
Tb30 O29 2.292 . S
Tb30 O46 2.326 . S
Tb30 O48 2.500 . S
Tb30 O49 2.473 . S
Tb30 O52 2.324 . S
Eu31 O35 2.292 . S
Eu31 C36 2.852 . S
Eu31 O47 2.324 . S
Eu31 O51 2.326 . S
Eu31 O53 2.500 . S
Eu31 O54 2.473 . S
C32 O29 1.255 . S
C32 O33 1.247 . S
O33 C32 1.247 . S
C34 O46 1.242 . S
C34 O47 1.258 . S
O35 Eu31 2.292 . S
O35 C37 1.255 . S
C36 Eu31 2.852 . S
C36 C40 1.503 . S
C36 O53 1.273 . S
C36 O54 1.257 . S
C37 O35 1.255 . S
C37 O38 1.247 . S
O38 C37 1.247 . S
C39 O51 1.242 . S
C39 O52 1.258 . S
C40 C36 1.503 . S
C40 C41 1.379 . S
C40 C45 1.392 . S
C41 C40 1.379 . S
C41 C42 1.404 . S
C41 H55 0.929 . S
C42 C41 1.404 . S
C42 C43 1.389 . S
C43 C42 1.389 . S
C43 C44 1.399 . S
C43 H56 0.931 . S
C44 C43 1.399 . S
C44 C45 1.390 . S
C45 C40 1.392 . S
C45 C44 1.390 . S
C45 H57 0.929 . S
O46 Tb30 2.326 . S
O46 C34 1.242 . S
O47 Eu31 2.324 . S
O47 C34 1.258 . S
O48 Tb30 2.500 . S
O48 C50 1.273 . S
O49 Tb30 2.473 . S
O49 C50 1.257 . S
C50 O48 1.273 . S
C50 O49 1.257 . S
O51 Eu31 2.326 . S
O51 C39 1.242 . S
O52 Tb30 2.324 . S
O52 C39 1.258 . S
O53 Eu31 2.500 . S
O53 C36 1.273 . S
O54 Eu31 2.473 . S
O54 C36 1.257 . S
H55 C41 0.929 . S
H56 C43 0.931 . S
H57 C45 0.929 . S
O58 Tb59 2.292 . S
O58 C61 1.255 . S
Tb59 O58 2.292 . S
Tb59 O75 2.326 . S
Tb59 O77 2.500 . S
Tb59 O78 2.473 . S
Tb59 O81 2.324 . S
Eu60 O64 2.292 . S
Eu60 C65 2.852 . S
Eu60 O76 2.324 . S
Eu60 O80 2.326 . S
Eu60 O82 2.500 . S
Eu60 O83 2.473 . S
C61 O58 1.255 . S
C61 O62 1.247 . S
O62 C61 1.247 . S
C63 O75 1.242 . S
C63 O76 1.258 . S
O64 Eu60 2.292 . S
O64 C66 1.255 . S
C65 Eu60 2.852 . S
C65 C69 1.503 . S
C65 O82 1.273 . S
C65 O83 1.257 . S
C66 O64 1.255 . S
C66 O67 1.247 . S
O67 C66 1.247 . S
C68 O80 1.242 . S
C68 O81 1.258 . S
C69 C65 1.503 . S
C69 C70 1.379 . S
C69 C74 1.392 . S
C70 C69 1.379 . S
C70 C71 1.404 . S
C70 H84 0.929 . S
C71 C70 1.404 . S
C71 C72 1.389 . S
C72 C71 1.389 . S
C72 C73 1.399 . S
C72 H85 0.931 . S
C73 C72 1.399 . S
C73 C74 1.390 . S
C74 C69 1.392 . S
C74 C73 1.390 . S
C74 H86 0.929 . S
O75 Tb59 2.326 . S
O75 C63 1.242 . S
O76 Eu60 2.324 . S
O76 C63 1.258 . S
O77 Tb59 2.500 . S
O77 C79 1.273 . S
O78 Tb59 2.473 . S
O78 C79 1.257 . S
C79 O77 1.273 . S
C79 O78 1.257 . S
O80 Eu60 2.326 . S
O80 C68 1.242 . S
O81 Tb59 2.324 . S
O81 C68 1.258 . S
O82 Eu60 2.500 . S
O82 C65 1.273 . S
O83 Eu60 2.473 . S
O83 C65 1.257 . S
H84 C70 0.929 . S
H85 C72 0.931 . S
H86 C74 0.929 . S
O87 Tb88 2.292 . S
O87 C90 1.255 . S
Tb88 O87 2.292 . S
Tb88 O104 2.326 . S
Tb88 O106 2.500 . S
Tb88 O107 2.473 . S
Tb88 O110 2.324 . S
Eu89 O93 2.292 . S
Eu89 C94 2.852 . S
Eu89 O105 2.324 . S
Eu89 O109 2.326 . S
Eu89 O111 2.500 . S
Eu89 O112 2.473 . S
C90 O87 1.255 . S
C90 O91 1.247 . S
O91 C90 1.247 . S
C92 O104 1.242 . S
C92 O105 1.258 . S
O93 Eu89 2.292 . S
O93 C95 1.255 . S
C94 Eu89 2.852 . S
C94 C98 1.503 . S
C94 O111 1.273 . S
C94 O112 1.257 . S
C95 O93 1.255 . S
C95 O96 1.247 . S
O96 C95 1.247 . S
C97 O109 1.242 . S
C97 O110 1.258 . S
C98 C94 1.503 . S
C98 C99 1.379 . S
C98 C103 1.392 . S
C99 C98 1.379 . S
C99 C100 1.404 . S
C99 H113 0.929 . S
C100 C99 1.404 . S
C100 C101 1.389 . S
C101 C100 1.389 . S
C101 C102 1.399 . S
C101 H114 0.931 . S
C102 C101 1.399 . S
C102 C103 1.390 . S
C103 C98 1.392 . S
C103 C102 1.390 . S
C103 H115 0.929 . S
O104 Tb88 2.326 . S
O104 C92 1.242 . S
O105 Eu89 2.324 . S
O105 C92 1.258 . S
O106 Tb88 2.500 . S
O106 C108 1.273 . S
O107 Tb88 2.473 . S
O107 C108 1.257 . S
C108 O106 1.273 . S
C108 O107 1.257 . S
O109 Eu89 2.326 . S
O109 C97 1.242 . S
O110 Tb88 2.324 . S
O110 C97 1.258 . S
O111 Eu89 2.500 . S
O111 C94 1.273 . S
O112 Eu89 2.473 . S
O112 C94 1.257 . S
H113 C99 0.929 . S
H114 C101 0.931 . S
H115 C103 0.929 . S
O116 Tb117 2.292 . S
O116 C119 1.255 . S
Tb117 O116 2.292 . S
Tb117 O133 2.326 . S
Tb117 O135 2.500 . S
Tb117 O136 2.473 . S
Tb117 O139 2.324 . S
Eu118 O122 2.292 . S
Eu118 C123 2.852 . S
Eu118 O134 2.324 . S
Eu118 O138 2.326 . S
Eu118 O140 2.500 . S
Eu118 O141 2.473 . S
C119 O116 1.255 . S
C119 O120 1.247 . S
O120 C119 1.247 . S
C121 O133 1.242 . S
C121 O134 1.258 . S
O122 Eu118 2.292 . S
O122 C124 1.255 . S
C123 Eu118 2.852 . S
C123 C127 1.503 . S
C123 O140 1.273 . S
C123 O141 1.257 . S
C124 O122 1.255 . S
C124 O125 1.247 . S
O125 C124 1.247 . S
C126 O138 1.242 . S
C126 O139 1.258 . S
C127 C123 1.503 . S
C127 C128 1.379 . S
C127 C132 1.392 . S
C128 C127 1.379 . S
C128 C129 1.404 . S
C128 H142 0.929 . S
C129 C128 1.404 . S
C129 C130 1.389 . S
C130 C129 1.389 . S
C130 C131 1.399 . S
C130 H143 0.931 . S
C131 C130 1.399 . S
C131 C132 1.390 . S
C132 C127 1.392 . S
C132 C131 1.390 . S
C132 H144 0.929 . S
O133 Tb117 2.326 . S
O133 C121 1.242 . S
O134 Eu118 2.324 . S
O134 C121 1.258 . S
O135 Tb117 2.500 . S
O135 C137 1.273 . S
O136 Tb117 2.473 . S
O136 C137 1.257 . S
C137 O135 1.273 . S
C137 O136 1.257 . S
O138 Eu118 2.326 . S
O138 C126 1.242 . S
O139 Tb117 2.324 . S
O139 C126 1.258 . S
O140 Eu118 2.500 . S
O140 C123 1.273 . S
O141 Eu118 2.473 . S
O141 C123 1.257 . S
H142 C128 0.929 . S
H143 C130 0.931 . S
H144 C132 0.929 . S
O145 Tb146 2.292 . S
O145 C148 1.255 . S
Tb146 O145 2.292 . S
Tb146 O162 2.326 . S
Tb146 O164 2.500 . S
Tb146 O165 2.473 . S
Tb146 O168 2.324 . S
Eu147 O151 2.292 . S
Eu147 C152 2.852 . S
Eu147 O163 2.324 . S
Eu147 O167 2.326 . S
Eu147 O169 2.500 . S
Eu147 O170 2.473 . S
C148 O145 1.255 . S
C148 O149 1.247 . S
O149 C148 1.247 . S
C150 O162 1.242 . S
C150 O163 1.258 . S
O151 Eu147 2.292 . S
O151 C153 1.255 . S
C152 Eu147 2.852 . S
C152 C156 1.503 . S
C152 O169 1.273 . S
C152 O170 1.257 . S
C153 O151 1.255 . S
C153 O154 1.247 . S
O154 C153 1.247 . S
C155 O167 1.242 . S
C155 O168 1.258 . S
C156 C152 1.503 . S
C156 C157 1.379 . S
C156 C161 1.392 . S
C157 C156 1.379 . S
C157 C158 1.404 . S
C157 H171 0.929 . S
C158 C157 1.404 . S
C158 C159 1.389 . S
C159 C158 1.389 . S
C159 C160 1.399 . S
C159 H172 0.931 . S
C160 C159 1.399 . S
C160 C161 1.390 . S
C161 C156 1.392 . S
C161 C160 1.390 . S
C161 H173 0.929 . S
O162 Tb146 2.326 . S
O162 C150 1.242 . S
O163 Eu147 2.324 . S
O163 C150 1.258 . S
O164 Tb146 2.500 . S
O164 C166 1.273 . S
O165 Tb146 2.473 . S
O165 C166 1.257 . S
C166 O164 1.273 . S
C166 O165 1.257 . S
O167 Eu147 2.326 . S
O167 C155 1.242 . S
O168 Tb146 2.324 . S
O168 C155 1.258 . S
O169 Eu147 2.500 . S
O169 C152 1.273 . S
O170 Eu147 2.473 . S
O170 C152 1.257 . S
H171 C157 0.929 . S
H172 C159 0.931 . S
H173 C161 0.929 . S
O174 Tb175 2.292 . S
O174 C177 1.255 . S
Tb175 O174 2.292 . S
Tb175 O191 2.326 . S
Tb175 O193 2.500 . S
Tb175 O194 2.473 . S
Tb175 O197 2.324 . S
Eu176 O180 2.292 . S
Eu176 C181 2.852 . S
Eu176 O192 2.324 . S
Eu176 O196 2.326 . S
Eu176 O198 2.500 . S
Eu176 O199 2.473 . S
C177 O174 1.255 . S
C177 O178 1.247 . S
O178 C177 1.247 . S
C179 O191 1.242 . S
C179 O192 1.258 . S
O180 Eu176 2.292 . S
O180 C182 1.255 . S
C181 Eu176 2.852 . S
C181 C185 1.503 . S
C181 O198 1.273 . S
C181 O199 1.257 . S
C182 O180 1.255 . S
C182 O183 1.247 . S
O183 C182 1.247 . S
C184 O196 1.242 . S
C184 O197 1.258 . S
C185 C181 1.503 . S
C185 C186 1.379 . S
C185 C190 1.392 . S
C186 C185 1.379 . S
C186 C187 1.404 . S
C186 H200 0.929 . S
C187 C186 1.404 . S
C187 C188 1.389 . S
C188 C187 1.389 . S
C188 C189 1.399 . S
C188 H201 0.931 . S
C189 C188 1.399 . S
C189 C190 1.390 . S
C190 C185 1.392 . S
C190 C189 1.390 . S
C190 H202 0.929 . S
O191 Tb175 2.326 . S
O191 C179 1.242 . S
O192 Eu176 2.324 . S
O192 C179 1.258 . S
O193 Tb175 2.500 . S
O193 C195 1.273 . S
O194 Tb175 2.473 . S
O194 C195 1.257 . S
C195 O193 1.273 . S
C195 O194 1.257 . S
O196 Eu176 2.326 . S
O196 C184 1.242 . S
O197 Tb175 2.324 . S
O197 C184 1.258 . S
O198 Eu176 2.500 . S
O198 C181 1.273 . S
O199 Eu176 2.473 . S
O199 C181 1.257 . S
H200 C186 0.929 . S
H201 C188 0.931 . S
H202 C190 0.929 . S
O203 Tb204 2.292 . S
O203 C206 1.255 . S
Tb204 O203 2.292 . S
Tb204 O220 2.326 . S
Tb204 O222 2.500 . S
Tb204 O223 2.473 . S
Tb204 O226 2.324 . S
Eu205 O209 2.292 . S
Eu205 C210 2.852 . S
Eu205 O221 2.324 . S
Eu205 O225 2.326 . S
Eu205 O227 2.500 . S
Eu205 O228 2.473 . S
C206 O203 1.255 . S
C206 O207 1.247 . S
O207 C206 1.247 . S
C208 O220 1.242 . S
C208 O221 1.258 . S
O209 Eu205 2.292 . S
O209 C211 1.255 . S
C210 Eu205 2.852 . S
C210 C214 1.503 . S
C210 O227 1.273 . S
C210 O228 1.257 . S
C211 O209 1.255 . S
C211 O212 1.247 . S
O212 C211 1.247 . S
C213 O225 1.242 . S
C213 O226 1.258 . S
C214 C210 1.503 . S
C214 C215 1.379 . S
C214 C219 1.392 . S
C215 C214 1.379 . S
C215 C216 1.404 . S
C215 H229 0.929 . S
C216 C215 1.404 . S
C216 C217 1.389 . S
C217 C216 1.389 . S
C217 C218 1.399 . S
C217 H230 0.931 . S
C218 C217 1.399 . S
C218 C219 1.390 . S
C219 C214 1.392 . S
C219 C218 1.390 . S
C219 H231 0.929 . S
O220 Tb204 2.326 . S
O220 C208 1.242 . S
O221 Eu205 2.324 . S
O221 C208 1.258 . S
O222 Tb204 2.500 . S
O222 C224 1.273 . S
O223 Tb204 2.473 . S
O223 C224 1.257 . S
C224 O222 1.273 . S
C224 O223 1.257 . S
O225 Eu205 2.326 . S
O225 C213 1.242 . S
O226 Tb204 2.324 . S
O226 C213 1.258 . S
O227 Eu205 2.500 . S
O227 C210 1.273 . S
O228 Eu205 2.473 . S
O228 C210 1.257 . S
H229 C215 0.929 . S
H230 C217 0.931 . S
H231 C219 0.929 . S
O232 Tb233 2.292 . S
O232 C235 1.255 . S
Tb233 O232 2.292 . S
Tb233 O249 2.326 . S
Tb233 O251 2.500 . S
Tb233 O252 2.473 . S
Tb233 O255 2.324 . S
Eu234 O238 2.292 . S
Eu234 C239 2.852 . S
Eu234 O250 2.324 . S
Eu234 O254 2.326 . S
Eu234 O256 2.500 . S
Eu234 O257 2.473 . S
C235 O232 1.255 . S
C235 O236 1.247 . S
O236 C235 1.247 . S
C237 O249 1.242 . S
C237 O250 1.258 . S
O238 Eu234 2.292 . S
O238 C240 1.255 . S
C239 Eu234 2.852 . S
C239 C243 1.503 . S
C239 O256 1.273 . S
C239 O257 1.257 . S
C240 O238 1.255 . S
C240 O241 1.247 . S
O241 C240 1.247 . S
C242 O254 1.242 . S
C242 O255 1.258 . S
C243 C239 1.503 . S
C243 C244 1.379 . S
C243 C248 1.392 . S
C244 C243 1.379 . S
C244 C245 1.404 . S
C244 H258 0.929 . S
C245 C244 1.404 . S
C245 C246 1.389 . S
C246 C245 1.389 . S
C246 C247 1.399 . S
C246 H259 0.931 . S
C247 C246 1.399 . S
C247 C248 1.390 . S
C248 C243 1.392 . S
C248 C247 1.390 . S
C248 H260 0.929 . S
O249 Tb233 2.326 . S
O249 C237 1.242 . S
O250 Eu234 2.324 . S
O250 C237 1.258 . S
O251 Tb233 2.500 . S
O251 C253 1.273 . S
O252 Tb233 2.473 . S
O252 C253 1.257 . S
C253 O251 1.273 . S
C253 O252 1.257 . S
O254 Eu234 2.326 . S
O254 C242 1.242 . S
O255 Tb233 2.324 . S
O255 C242 1.258 . S
O256 Eu234 2.500 . S
O256 C239 1.273 . S
O257 Eu234 2.473 . S
O257 C239 1.257 . S
H258 C244 0.929 . S
H259 C246 0.931 . S
H260 C248 0.929 . S
O261 Tb262 2.292 . S
O261 C264 1.255 . S
Tb262 O261 2.292 . S
Tb262 O278 2.326 . S
Tb262 O280 2.500 . S
Tb262 O281 2.473 . S
Tb262 O284 2.324 . S
Eu263 O267 2.292 . S
Eu263 C268 2.852 . S
Eu263 O279 2.324 . S
Eu263 O283 2.326 . S
Eu263 O285 2.500 . S
Eu263 O286 2.473 . S
C264 O261 1.255 . S
C264 O265 1.247 . S
O265 C264 1.247 . S
C266 O278 1.242 . S
C266 O279 1.258 . S
O267 Eu263 2.292 . S
O267 C269 1.255 . S
C268 Eu263 2.852 . S
C268 C272 1.503 . S
C268 O285 1.273 . S
C268 O286 1.257 . S
C269 O267 1.255 . S
C269 O270 1.247 . S
O270 C269 1.247 . S
C271 O283 1.242 . S
C271 O284 1.258 . S
C272 C268 1.503 . S
C272 C273 1.379 . S
C272 C277 1.392 . S
C273 C272 1.379 . S
C273 C274 1.404 . S
C273 H287 0.929 . S
C274 C273 1.404 . S
C274 C275 1.389 . S
C275 C274 1.389 . S
C275 C276 1.399 . S
C275 H288 0.931 . S
C276 C275 1.399 . S
C276 C277 1.390 . S
C277 C272 1.392 . S
C277 C276 1.390 . S
C277 H289 0.929 . S
O278 Tb262 2.326 . S
O278 C266 1.242 . S
O279 Eu263 2.324 . S
O279 C266 1.258 . S
O280 Tb262 2.500 . S
O280 C282 1.273 . S
O281 Tb262 2.473 . S
O281 C282 1.257 . S
C282 O280 1.273 . S
C282 O281 1.257 . S
O283 Eu263 2.326 . S
O283 C271 1.242 . S
O284 Tb262 2.324 . S
O284 C271 1.258 . S
O285 Eu263 2.500 . S
O285 C268 1.273 . S
O286 Eu263 2.473 . S
O286 C268 1.257 . S
H287 C273 0.929 . S
H288 C275 0.931 . S
H289 C277 0.929 . S
O290 Tb291 2.292 . S
O290 C293 1.255 . S
Tb291 O290 2.292 . S
Tb291 O307 2.326 . S
Tb291 O309 2.500 . S
Tb291 O310 2.473 . S
Tb291 O313 2.324 . S
Eu292 O296 2.292 . S
Eu292 C297 2.852 . S
Eu292 O308 2.324 . S
Eu292 O312 2.326 . S
Eu292 O314 2.500 . S
Eu292 O315 2.473 . S
C293 O290 1.255 . S
C293 O294 1.247 . S
O294 C293 1.247 . S
C295 O307 1.242 . S
C295 O308 1.258 . S
O296 Eu292 2.292 . S
O296 C298 1.255 . S
C297 Eu292 2.852 . S
C297 C301 1.503 . S
C297 O314 1.273 . S
C297 O315 1.257 . S
C298 O296 1.255 . S
C298 O299 1.247 . S
O299 C298 1.247 . S
C300 O312 1.242 . S
C300 O313 1.258 . S
C301 C297 1.503 . S
C301 C302 1.379 . S
C301 C306 1.392 . S
C302 C301 1.379 . S
C302 C303 1.404 . S
C302 H316 0.929 . S
C303 C302 1.404 . S
C303 C304 1.389 . S
C304 C303 1.389 . S
C304 C305 1.399 . S
C304 H317 0.931 . S
C305 C304 1.399 . S
C305 C306 1.390 . S
C306 C301 1.392 . S
C306 C305 1.390 . S
C306 H318 0.929 . S
O307 Tb291 2.326 . S
O307 C295 1.242 . S
O308 Eu292 2.324 . S
O308 C295 1.258 . S
O309 Tb291 2.500 . S
O309 C311 1.273 . S
O310 Tb291 2.473 . S
O310 C311 1.257 . S
C311 O309 1.273 . S
C311 O310 1.257 . S
O312 Eu292 2.326 . S
O312 C300 1.242 . S
O313 Tb291 2.324 . S
O313 C300 1.258 . S
O314 Eu292 2.500 . S
O314 C297 1.273 . S
O315 Eu292 2.473 . S
O315 C297 1.257 . S
H316 C302 0.929 . S
H317 C304 0.931 . S
H318 C306 0.929 . S
O319 Tb320 2.292 . S
O319 C322 1.255 . S
Tb320 O319 2.292 . S
Tb320 O336 2.326 . S
Tb320 O338 2.500 . S
Tb320 O339 2.473 . S
Tb320 O342 2.324 . S
Eu321 O325 2.292 . S
Eu321 C326 2.852 . S
Eu321 O337 2.324 . S
Eu321 O341 2.326 . S
Eu321 O343 2.500 . S
Eu321 O344 2.473 . S
C322 O319 1.255 . S
C322 O323 1.247 . S
O323 C322 1.247 . S
C324 O336 1.242 . S
C324 O337 1.258 . S
O325 Eu321 2.292 . S
O325 C327 1.255 . S
C326 Eu321 2.852 . S
C326 C330 1.503 . S
C326 O343 1.273 . S
C326 O344 1.257 . S
C327 O325 1.255 . S
C327 O328 1.247 . S
O328 C327 1.247 . S
C329 O341 1.242 . S
C329 O342 1.258 . S
C330 C326 1.503 . S
C330 C331 1.379 . S
C330 C335 1.392 . S
C331 C330 1.379 . S
C331 C332 1.404 . S
C331 H345 0.929 . S
C332 C331 1.404 . S
C332 C333 1.389 . S
C333 C332 1.389 . S
C333 C334 1.399 . S
C333 H346 0.931 . S
C334 C333 1.399 . S
C334 C335 1.390 . S
C335 C330 1.392 . S
C335 C334 1.390 . S
C335 H347 0.929 . S
O336 Tb320 2.326 . S
O336 C324 1.242 . S
O337 Eu321 2.324 . S
O337 C324 1.258 . S
O338 Tb320 2.500 . S
O338 C340 1.273 . S
O339 Tb320 2.473 . S
O339 C340 1.257 . S
C340 O338 1.273 . S
C340 O339 1.257 . S
O341 Eu321 2.326 . S
O341 C329 1.242 . S
O342 Tb320 2.324 . S
O342 C329 1.258 . S
O343 Eu321 2.500 . S
O343 C326 1.273 . S
O344 Eu321 2.473 . S
O344 C326 1.257 . S
H345 C331 0.929 . S
H346 C333 0.931 . S
H347 C335 0.929 . S
O348 Tb349 2.292 . S
O348 C351 1.255 . S
Tb349 O348 2.292 . S
Tb349 O365 2.326 . S
Tb349 O367 2.500 . S
Tb349 O368 2.473 . S
Tb349 O371 2.324 . S
Eu350 O354 2.292 . S
Eu350 C355 2.852 . S
Eu350 O366 2.324 . S
Eu350 O370 2.326 . S
Eu350 O372 2.500 . S
Eu350 O373 2.473 . S
C351 O348 1.255 . S
C351 O352 1.247 . S
O352 C351 1.247 . S
C353 O365 1.242 . S
C353 O366 1.258 . S
O354 Eu350 2.292 . S
O354 C356 1.255 . S
C355 Eu350 2.852 . S
C355 C359 1.503 . S
C355 O372 1.273 . S
C355 O373 1.257 . S
C356 O354 1.255 . S
C356 O357 1.247 . S
O357 C356 1.247 . S
C358 O370 1.242 . S
C358 O371 1.258 . S
C359 C355 1.503 . S
C359 C360 1.379 . S
C359 C364 1.392 . S
C360 C359 1.379 . S
C360 C361 1.404 . S
C360 H374 0.929 . S
C361 C360 1.404 . S
C361 C362 1.389 . S
C362 C361 1.389 . S
C362 C363 1.399 . S
C362 H375 0.931 . S
C363 C362 1.399 . S
C363 C364 1.390 . S
C364 C359 1.392 . S
C364 C363 1.390 . S
C364 H376 0.929 . S
O365 Tb349 2.326 . S
O365 C353 1.242 . S
O366 Eu350 2.324 . S
O366 C353 1.258 . S
O367 Tb349 2.500 . S
O367 C369 1.273 . S
O368 Tb349 2.473 . S
O368 C369 1.257 . S
C369 O367 1.273 . S
C369 O368 1.257 . S
O370 Eu350 2.326 . S
O370 C358 1.242 . S
O371 Tb349 2.324 . S
O371 C358 1.258 . S
O372 Eu350 2.500 . S
O372 C355 1.273 . S
O373 Eu350 2.473 . S
O373 C355 1.257 . S
H374 C360 0.929 . S
H375 C362 0.931 . S
H376 C364 0.929 . S
O377 Tb378 2.292 . S
O377 C380 1.255 . S
Tb378 O377 2.292 . S
Tb378 O394 2.326 . S
Tb378 O396 2.500 . S
Tb378 O397 2.473 . S
Tb378 O400 2.324 . S
Eu379 O383 2.292 . S
Eu379 C384 2.852 . S
Eu379 O395 2.324 . S
Eu379 O399 2.326 . S
Eu379 O401 2.500 . S
Eu379 O402 2.473 . S
C380 O377 1.255 . S
C380 O381 1.247 . S
O381 C380 1.247 . S
C382 O394 1.242 . S
C382 O395 1.258 . S
O383 Eu379 2.292 . S
O383 C385 1.255 . S
C384 Eu379 2.852 . S
C384 C388 1.503 . S
C384 O401 1.273 . S
C384 O402 1.257 . S
C385 O383 1.255 . S
C385 O386 1.247 . S
O386 C385 1.247 . S
C387 O399 1.242 . S
C387 O400 1.258 . S
C388 C384 1.503 . S
C388 C389 1.379 . S
C388 C393 1.392 . S
C389 C388 1.379 . S
C389 C390 1.404 . S
C389 H403 0.929 . S
C390 C389 1.404 . S
C390 C391 1.389 . S
C391 C390 1.389 . S
C391 C392 1.399 . S
C391 H404 0.931 . S
C392 C391 1.399 . S
C392 C393 1.390 . S
C393 C388 1.392 . S
C393 C392 1.390 . S
C393 H405 0.929 . S
O394 Tb378 2.326 . S
O394 C382 1.242 . S
O395 Eu379 2.324 . S
O395 C382 1.258 . S
O396 Tb378 2.500 . S
O396 C398 1.273 . S
O397 Tb378 2.473 . S
O397 C398 1.257 . S
C398 O396 1.273 . S
C398 O397 1.257 . S
O399 Eu379 2.326 . S
O399 C387 1.242 . S
O400 Tb378 2.324 . S
O400 C387 1.258 . S
O401 Eu379 2.500 . S
O401 C384 1.273 . S
O402 Eu379 2.473 . S
O402 C384 1.257 . S
H403 C389 0.929 . S
H404 C391 0.931 . S
H405 C393 0.929 . S
O406 Tb407 2.292 . S
O406 C409 1.255 . S
Tb407 O406 2.292 . S
Tb407 O423 2.326 . S
Tb407 O425 2.500 . S
Tb407 O426 2.473 . S
Tb407 O429 2.324 . S
Eu408 O412 2.292 . S
Eu408 C413 2.852 . S
Eu408 O424 2.324 . S
Eu408 O428 2.326 . S
Eu408 O430 2.500 . S
Eu408 O431 2.473 . S
C409 O406 1.255 . S
C409 O410 1.247 . S
O410 C409 1.247 . S
C411 O423 1.242 . S
C411 O424 1.258 . S
O412 Eu408 2.292 . S
O412 C414 1.255 . S
C413 Eu408 2.852 . S
C413 C417 1.503 . S
C413 O430 1.273 . S
C413 O431 1.257 . S
C414 O412 1.255 . S
C414 O415 1.247 . S
O415 C414 1.247 . S
C416 O428 1.242 . S
C416 O429 1.258 . S
C417 C413 1.503 . S
C417 C418 1.379 . S
C417 C422 1.392 . S
C418 C417 1.379 . S
C418 C419 1.404 . S
C418 H432 0.929 . S
C419 C418 1.404 . S
C419 C420 1.389 . S
C420 C419 1.389 . S
C420 C421 1.399 . S
C420 H433 0.931 . S
C421 C420 1.399 . S
C421 C422 1.390 . S
C422 C417 1.392 . S
C422 C421 1.390 . S
C422 H434 0.929 . S
O423 Tb407 2.326 . S
O423 C411 1.242 . S
O424 Eu408 2.324 . S
O424 C411 1.258 . S
O425 Tb407 2.500 . S
O425 C427 1.273 . S
O426 Tb407 2.473 . S
O426 C427 1.257 . S
C427 O425 1.273 . S
C427 O426 1.257 . S
O428 Eu408 2.326 . S
O428 C416 1.242 . S
O429 Tb407 2.324 . S
O429 C416 1.258 . S
O430 Eu408 2.500 . S
O430 C413 1.273 . S
O431 Eu408 2.473 . S
O431 C413 1.257 . S
H432 C418 0.929 . S
H433 C420 0.931 . S
H434 C422 0.929 . S
O435 Tb436 2.292 . S
O435 C438 1.255 . S
Tb436 O435 2.292 . S
Tb436 O452 2.326 . S
Tb436 O454 2.500 . S
Tb436 O455 2.473 . S
Tb436 O458 2.324 . S
Eu437 O441 2.292 . S
Eu437 C442 2.852 . S
Eu437 O453 2.324 . S
Eu437 O457 2.326 . S
Eu437 O459 2.500 . S
Eu437 O460 2.473 . S
C438 O435 1.255 . S
C438 O439 1.247 . S
O439 C438 1.247 . S
C440 O452 1.242 . S
C440 O453 1.258 . S
O441 Eu437 2.292 . S
O441 C443 1.255 . S
C442 Eu437 2.852 . S
C442 C446 1.503 . S
C442 O459 1.273 . S
C442 O460 1.257 . S
C443 O441 1.255 . S
C443 O444 1.247 . S
O444 C443 1.247 . S
C445 O457 1.242 . S
C445 O458 1.258 . S
C446 C442 1.503 . S
C446 C447 1.379 . S
C446 C451 1.392 . S
C447 C446 1.379 . S
C447 C448 1.404 . S
C447 H461 0.929 . S
C448 C447 1.404 . S
C448 C449 1.389 . S
C449 C448 1.389 . S
C449 C450 1.399 . S
C449 H462 0.931 . S
C450 C449 1.399 . S
C450 C451 1.390 . S
C451 C446 1.392 . S
C451 C450 1.390 . S
C451 H463 0.929 . S
O452 Tb436 2.326 . S
O452 C440 1.242 . S
O453 Eu437 2.324 . S
O453 C440 1.258 . S
O454 Tb436 2.500 . S
O454 C456 1.273 . S
O455 Tb436 2.473 . S
O455 C456 1.257 . S
C456 O454 1.273 . S
C456 O455 1.257 . S
O457 Eu437 2.326 . S
O457 C445 1.242 . S
O458 Tb436 2.324 . S
O458 C445 1.258 . S
O459 Eu437 2.500 . S
O459 C442 1.273 . S
O460 Eu437 2.473 . S
O460 C442 1.257 . S
H461 C447 0.929 . S
H462 C449 0.931 . S
H463 C451 0.929 . S
C464 C465 1.349 . S
C464 C466 1.327 . S
C464 H489 0.950 . S
C465 C464 1.349 . S
C465 C481 1.349 . S
C466 C464 1.327 . S
C466 C485 1.429 . S
C466 H490 0.950 . S
C467 C484 1.574 1_554 S
C467 C486 1.368 . S
C467 H491 0.949 . S
H468 C472 0.949 . S
C469 C470 1.349 . S
C469 C471 1.327 . S
C469 H492 0.950 . S
C470 C469 1.349 . S
C470 C482 1.349 . S
C471 C469 1.327 . S
C471 C487 1.429 . S
C471 H493 0.950 . S
C472 H468 0.949 . S
C472 C480 1.574 1_556 S
C472 C488 1.368 . S
H473 C481 0.950 . S
H474 C479 0.950 . S
H475 C480 0.949 . S
H476 C482 0.950 . S
H477 C483 0.950 . S
H478 C484 0.949 . S
C479 H474 0.950 . S
C479 C481 1.327 . S
C479 C485 1.429 . S
C480 C472 1.574 1_554 S
C480 H475 0.949 . S
C480 C486 1.368 . S
C481 C465 1.349 . S
C481 H473 0.950 . S
C481 C479 1.327 . S
C482 C470 1.349 . S
C482 H476 0.950 . S
C482 C483 1.327 . S
C483 H477 0.950 . S
C483 C482 1.327 . S
C483 C487 1.429 . S
C484 C467 1.574 1_556 S
C484 H478 0.949 . S
C484 C488 1.368 . S
C485 C466 1.429 . S
C485 C479 1.429 . S
C485 C486 1.523 . S
C486 C467 1.368 . S
C486 C480 1.368 . S
C486 C485 1.523 . S
C487 C471 1.429 . S
C487 C483 1.429 . S
C487 C488 1.523 . S
C488 C472 1.368 . S
C488 C484 1.368 . S
C488 C487 1.523 . S
H489 C464 0.950 . S
H490 C466 0.950 . S
H491 C467 0.949 . S
H492 C469 0.950 . S
H493 C471 0.950 . S
C494 C495 1.349 . S
C494 C496 1.327 . S
C494 H519 0.950 . S
C495 C494 1.349 . S
C495 C511 1.349 . S
C496 C494 1.327 . S
C496 C515 1.429 . S
C496 H520 0.950 . S
C497 C514 1.574 1_554 S
C497 C516 1.368 . S
C497 H521 0.949 . S
H498 C502 0.949 . S
C499 C500 1.349 . S
C499 C501 1.327 . S
C499 H522 0.950 . S
C500 C499 1.349 . S
C500 C512 1.349 . S
C501 C499 1.327 . S
C501 C517 1.429 . S
C501 H523 0.950 . S
C502 H498 0.949 . S
C502 C510 1.574 1_556 S
C502 C518 1.368 . S
H503 C511 0.950 . S
H504 C509 0.950 . S
H505 C510 0.949 . S
H506 C512 0.950 . S
H507 C513 0.950 . S
H508 C514 0.949 . S
C509 H504 0.950 . S
C509 C511 1.327 . S
C509 C515 1.429 . S
C510 C502 1.574 1_554 S
C510 H505 0.949 . S
C510 C516 1.368 . S
C511 C495 1.349 . S
C511 H503 0.950 . S
C511 C509 1.327 . S
C512 C500 1.349 . S
C512 H506 0.950 . S
C512 C513 1.327 . S
C513 H507 0.950 . S
C513 C512 1.327 . S
C513 C517 1.429 . S
C514 C497 1.574 1_556 S
C514 H508 0.949 . S
C514 C518 1.368 . S
C515 C496 1.429 . S
C515 C509 1.429 . S
C515 C516 1.523 . S
C516 C497 1.368 . S
C516 C510 1.368 . S
C516 C515 1.523 . S
C517 C501 1.429 . S
C517 C513 1.429 . S
C517 C518 1.523 . S
C518 C502 1.368 . S
C518 C514 1.368 . S
C518 C517 1.523 . S
H519 C494 0.950 . S
H520 C496 0.950 . S
H521 C497 0.949 . S
H522 C499 0.950 . S
H523 C501 0.950 . S
C524 C525 1.349 . S
C524 C526 1.327 . S
C524 H549 0.950 . S
C525 C524 1.349 . S
C525 C541 1.349 . S
C526 C524 1.327 . S
C526 C545 1.429 . S
C526 H550 0.950 . S
C527 C544 1.574 1_556 S
C527 C546 1.368 . S
C527 H551 0.949 . S
H528 C532 0.949 . S
C529 C530 1.349 . S
C529 C531 1.327 . S
C529 H552 0.950 . S
C530 C529 1.349 . S
C530 C542 1.349 . S
C531 C529 1.327 . S
C531 C547 1.429 . S
C531 H553 0.950 . S
C532 H528 0.949 . S
C532 C540 1.574 1_554 S
C532 C548 1.368 . S
H533 C541 0.950 . S
H534 C539 0.950 . S
H535 C540 0.949 . S
H536 C542 0.950 . S
H537 C543 0.950 . S
H538 C544 0.949 . S
C539 H534 0.950 . S
C539 C541 1.327 . S
C539 C545 1.429 . S
C540 C532 1.574 1_556 S
C540 H535 0.949 . S
C540 C546 1.368 . S
C541 C525 1.349 . S
C541 H533 0.950 . S
C541 C539 1.327 . S
C542 C530 1.349 . S
C542 H536 0.950 . S
C542 C543 1.327 . S
C543 H537 0.950 . S
C543 C542 1.327 . S
C543 C547 1.429 . S
C544 C527 1.574 1_554 S
C544 H538 0.949 . S
C544 C548 1.368 . S
C545 C526 1.429 . S
C545 C539 1.429 . S
C545 C546 1.523 . S
C546 C527 1.368 . S
C546 C540 1.368 . S
C546 C545 1.523 . S
C547 C531 1.429 . S
C547 C543 1.429 . S
C547 C548 1.523 . S
C548 C532 1.368 . S
C548 C544 1.368 . S
C548 C547 1.523 . S
H549 C524 0.950 . S
H550 C526 0.950 . S
H551 C527 0.949 . S
H552 C529 0.950 . S
H553 C531 0.950 . S
C554 C555 1.349 . S
C554 C556 1.327 . S
C554 H579 0.950 . S
C555 C554 1.349 . S
C555 C571 1.349 . S
C556 C554 1.327 . S
C556 C575 1.429 . S
C556 H580 0.950 . S
C557 C574 1.574 1_556 S
C557 C576 1.368 . S
C557 H581 0.949 . S
H558 C562 0.949 . S
C559 C560 1.349 . S
C559 C561 1.327 . S
C559 H582 0.950 . S
C560 C559 1.349 . S
C560 C572 1.349 . S
C561 C559 1.327 . S
C561 C577 1.429 . S
C561 H583 0.950 . S
C562 H558 0.949 . S
C562 C570 1.574 1_554 S
C562 C578 1.368 . S
H563 C571 0.950 . S
H564 C569 0.950 . S
H565 C570 0.949 . S
H566 C572 0.950 . S
H567 C573 0.950 . S
H568 C574 0.949 . S
C569 H564 0.950 . S
C569 C571 1.327 . S
C569 C575 1.429 . S
C570 C562 1.574 1_556 S
C570 H565 0.949 . S
C570 C576 1.368 . S
C571 C555 1.349 . S
C571 H563 0.950 . S
C571 C569 1.327 . S
C572 C560 1.349 . S
C572 H566 0.950 . S
C572 C573 1.327 . S
C573 H567 0.950 . S
C573 C572 1.327 . S
C573 C577 1.429 . S
C574 C557 1.574 1_554 S
C574 H568 0.949 . S
C574 C578 1.368 . S
C575 C556 1.429 . S
C575 C569 1.429 . S
C575 C576 1.523 . S
C576 C557 1.368 . S
C576 C570 1.368 . S
C576 C575 1.523 . S
C577 C561 1.429 . S
C577 C573 1.429 . S
C577 C578 1.523 . S
C578 C562 1.368 . S
C578 C574 1.368 . S
C578 C577 1.523 . S
H579 C554 0.950 . S
H580 C556 0.950 . S
H581 C557 0.949 . S
H582 C559 0.950 . S
H583 C561 0.950 . S
C584 C585 1.349 . S
C584 C586 1.327 . S
C584 H609 0.950 . S
C585 C584 1.349 . S
C585 C601 1.349 . S
C586 C584 1.327 . S
C586 C605 1.429 . S
C586 H610 0.950 . S
C587 C604 1.574 . S
C587 C606 1.368 . S
C587 H611 0.949 . S
H588 C592 0.949 . S
C589 C590 1.349 . S
C589 C591 1.327 . S
C589 H612 0.950 . S
C590 C589 1.349 . S
C590 C602 1.349 . S
C591 C589 1.327 . S
C591 C607 1.429 . S
C591 H613 0.950 . S
C592 H588 0.949 . S
C592 C600 1.574 . S
C592 C608 1.368 . S
H593 C601 0.950 . S
H594 C599 0.950 . S
H595 C600 0.949 . S
H596 C602 0.950 . S
H597 C603 0.950 . S
H598 C604 0.949 . S
C599 H594 0.950 . S
C599 C601 1.327 . S
C599 C605 1.429 . S
C600 C592 1.574 . S
C600 H595 0.949 . S
C600 C606 1.368 . S
C601 C585 1.349 . S
C601 H593 0.950 . S
C601 C599 1.327 . S
C602 C590 1.349 . S
C602 H596 0.950 . S
C602 C603 1.327 . S
C603 H597 0.950 . S
C603 C602 1.327 . S
C603 C607 1.429 . S
C604 C587 1.574 . S
C604 H598 0.949 . S
C604 C608 1.368 . S
C605 C586 1.429 . S
C605 C599 1.429 . S
C605 C606 1.523 . S
C606 C587 1.368 . S
C606 C600 1.368 . S
C606 C605 1.523 . S
C607 C591 1.429 . S
C607 C603 1.429 . S
C607 C608 1.523 . S
C608 C592 1.368 . S
C608 C604 1.368 . S
C608 C607 1.523 . S
H609 C584 0.950 . S
H610 C586 0.950 . S
H611 C587 0.949 . S
H612 C589 0.950 . S
H613 C591 0.950 . S
C614 C615 1.349 . S
C614 C616 1.327 . S
C614 H639 0.950 . S
C615 C614 1.349 . S
C615 C631 1.349 . S
C616 C614 1.327 . S
C616 C635 1.429 . S
C616 H640 0.950 . S
C617 C634 1.574 . S
C617 C636 1.368 . S
C617 H641 0.949 . S
H618 C622 0.949 . S
C619 C620 1.349 . S
C619 C621 1.327 . S
C619 H642 0.950 . S
C620 C619 1.349 . S
C620 C632 1.349 . S
C621 C619 1.327 . S
C621 C637 1.429 . S
C621 H643 0.950 . S
C622 H618 0.949 . S
C622 C630 1.574 . S
C622 C638 1.368 . S
H623 C631 0.950 . S
H624 C629 0.950 . S
H625 C630 0.949 . S
H626 C632 0.950 . S
H627 C633 0.950 . S
H628 C634 0.949 . S
C629 H624 0.950 . S
C629 C631 1.327 . S
C629 C635 1.429 . S
C630 C622 1.574 . S
C630 H625 0.949 . S
C630 C636 1.368 . S
C631 C615 1.349 . S
C631 H623 0.950 . S
C631 C629 1.327 . S
C632 C620 1.349 . S
C632 H626 0.950 . S
C632 C633 1.327 . S
C633 H627 0.950 . S
C633 C632 1.327 . S
C633 C637 1.429 . S
C634 C617 1.574 . S
C634 H628 0.949 . S
C634 C638 1.368 . S
C635 C616 1.429 . S
C635 C629 1.429 . S
C635 C636 1.523 . S
C636 C617 1.368 . S
C636 C630 1.368 . S
C636 C635 1.523 . S
C637 C621 1.429 . S
C637 C633 1.429 . S
C637 C638 1.523 . S
C638 C622 1.368 . S
C638 C634 1.368 . S
C638 C637 1.523 . S
H639 C614 0.950 . S
H640 C616 0.950 . S
H641 C617 0.949 . S
H642 C619 0.950 . S
H643 C621 0.950 . S
C644 C645 1.349 . S
C644 C646 1.327 . S
C644 H669 0.950 . S
C645 C644 1.349 . S
C645 C661 1.349 . S
C646 C644 1.327 . S
C646 C665 1.429 . S
C646 H670 0.950 . S
C647 C664 1.574 . S
C647 C666 1.368 . S
C647 H671 0.949 . S
H648 C652 0.949 . S
C649 C650 1.349 . S
C649 C651 1.327 . S
C649 H672 0.950 . S
C650 C649 1.349 . S
C650 C662 1.349 . S
C651 C649 1.327 . S
C651 C667 1.429 . S
C651 H673 0.950 . S
C652 H648 0.949 . S
C652 C660 1.574 . S
C652 C668 1.368 . S
H653 C661 0.950 . S
H654 C659 0.950 . S
H655 C660 0.949 . S
H656 C662 0.950 . S
H657 C663 0.950 . S
H658 C664 0.949 . S
C659 H654 0.950 . S
C659 C661 1.327 . S
C659 C665 1.429 . S
C660 C652 1.574 . S
C660 H655 0.949 . S
C660 C666 1.368 . S
C661 C645 1.349 . S
C661 H653 0.950 . S
C661 C659 1.327 . S
C662 C650 1.349 . S
C662 H656 0.950 . S
C662 C663 1.327 . S
C663 H657 0.950 . S
C663 C662 1.327 . S
C663 C667 1.429 . S
C664 C647 1.574 . S
C664 H658 0.949 . S
C664 C668 1.368 . S
C665 C646 1.429 . S
C665 C659 1.429 . S
C665 C666 1.523 . S
C666 C647 1.368 . S
C666 C660 1.368 . S
C666 C665 1.523 . S
C667 C651 1.429 . S
C667 C663 1.429 . S
C667 C668 1.523 . S
C668 C652 1.368 . S
C668 C664 1.368 . S
C668 C667 1.523 . S
H669 C644 0.950 . S
H670 C646 0.950 . S
H671 C647 0.949 . S
H672 C649 0.950 . S
H673 C651 0.950 . S
C674 C675 1.349 . S
C674 C676 1.327 . S
C674 H699 0.950 . S
C675 C674 1.349 . S
C675 C691 1.349 . S
C676 C674 1.327 . S
C676 C695 1.429 . S
C676 H700 0.950 . S
C677 C694 1.574 . S
C677 C696 1.368 . S
C677 H701 0.949 . S
H678 C682 0.949 . S
C679 C680 1.349 . S
C679 C681 1.327 . S
C679 H702 0.950 . S
C680 C679 1.349 . S
C680 C692 1.349 . S
C681 C679 1.327 . S
C681 C697 1.429 . S
C681 H703 0.950 . S
C682 H678 0.949 . S
C682 C690 1.574 . S
C682 C698 1.368 . S
H683 C691 0.950 . S
H684 C689 0.950 . S
H685 C690 0.949 . S
H686 C692 0.950 . S
H687 C693 0.950 . S
H688 C694 0.949 . S
C689 H684 0.950 . S
C689 C691 1.327 . S
C689 C695 1.429 . S
C690 C682 1.574 . S
C690 H685 0.949 . S
C690 C696 1.368 . S
C691 C675 1.349 . S
C691 H683 0.950 . S
C691 C689 1.327 . S
C692 C680 1.349 . S
C692 H686 0.950 . S
C692 C693 1.327 . S
C693 H687 0.950 . S
C693 C692 1.327 . S
C693 C697 1.429 . S
C694 C677 1.574 . S
C694 H688 0.949 . S
C694 C698 1.368 . S
C695 C676 1.429 . S
C695 C689 1.429 . S
C695 C696 1.523 . S
C696 C677 1.368 . S
C696 C690 1.368 . S
C696 C695 1.523 . S
C697 C681 1.429 . S
C697 C693 1.429 . S
C697 C698 1.523 . S
C698 C682 1.368 . S
C698 C694 1.368 . S
C698 C697 1.523 . S
H699 C674 0.950 . S
H700 C676 0.950 . S
H701 C677 0.949 . S
H702 C679 0.950 . S
H703 C681 0.950 . S
C704 C705 1.349 . S
C704 C706 1.327 . S
C704 H729 0.950 . S
C705 C704 1.349 . S
C705 C721 1.349 . S
C706 C704 1.327 . S
C706 C725 1.429 1_565 S
C706 H730 0.950 . S
C707 C724 1.574 . S
C707 C726 1.368 . S
C707 H731 0.949 . S
H708 C712 0.949 . S
C709 C710 1.349 . S
C709 C711 1.327 . S
C709 H732 0.950 . S
C710 C709 1.349 . S
C710 C722 1.349 . S
C711 C709 1.327 . S
C711 C727 1.429 . S
C711 H733 0.950 . S
C712 H708 0.949 . S
C712 C720 1.574 . S
C712 C728 1.368 . S
H713 C721 0.950 . S
H714 C719 0.950 . S
H715 C720 0.949 . S
H716 C722 0.950 . S
H717 C723 0.950 . S
H718 C724 0.949 . S
C719 H714 0.950 . S
C719 C721 1.327 1_545 S
C719 C725 1.429 . S
C720 C712 1.574 . S
C720 H715 0.949 . S
C720 C726 1.368 . S
C721 C705 1.349 . S
C721 H713 0.950 . S
C721 C719 1.327 1_565 S
C722 C710 1.349 . S
C722 H716 0.950 . S
C722 C723 1.327 . S
C723 H717 0.950 . S
C723 C722 1.327 . S
C723 C727 1.429 . S
C724 C707 1.574 . S
C724 H718 0.949 . S
C724 C728 1.368 . S
C725 C706 1.429 1_545 S
C725 C719 1.429 . S
C725 C726 1.523 . S
C726 C707 1.368 . S
C726 C720 1.368 . S
C726 C725 1.523 . S
C727 C711 1.429 . S
C727 C723 1.429 . S
C727 C728 1.523 . S
C728 C712 1.368 . S
C728 C724 1.368 . S
C728 C727 1.523 . S
H729 C704 0.950 . S
H730 C706 0.950 . S
H731 C707 0.949 . S
H732 C709 0.950 . S
H733 C711 0.950 . S
C734 C735 1.349 . S
C734 C736 1.327 . S
C734 H759 0.950 . S
C735 C734 1.349 . S
C735 C751 1.349 . S
C736 C734 1.327 . S
C736 C755 1.429 1_455 S
C736 H760 0.950 . S
C737 C754 1.574 . S
C737 C756 1.368 . S
C737 H761 0.949 . S
H738 C742 0.949 . S
C739 C740 1.349 . S
C739 C741 1.327 . S
C739 H762 0.950 . S
C740 C739 1.349 . S
C740 C752 1.349 . S
C741 C739 1.327 . S
C741 C757 1.429 . S
C741 H763 0.950 . S
C742 H738 0.949 . S
C742 C750 1.574 . S
C742 C758 1.368 . S
H743 C751 0.950 . S
H744 C749 0.950 . S
H745 C750 0.949 . S
H746 C752 0.950 . S
H747 C753 0.950 . S
H748 C754 0.949 . S
C749 H744 0.950 . S
C749 C751 1.327 1_655 S
C749 C755 1.429 . S
C750 C742 1.574 . S
C750 H745 0.949 . S
C750 C756 1.368 . S
C751 C735 1.349 . S
C751 H743 0.950 . S
C751 C749 1.327 1_455 S
C752 C740 1.349 . S
C752 H746 0.950 . S
C752 C753 1.327 . S
C753 H747 0.950 . S
C753 C752 1.327 . S
C753 C757 1.429 . S
C754 C737 1.574 . S
C754 H748 0.949 . S
C754 C758 1.368 . S
C755 C736 1.429 1_655 S
C755 C749 1.429 . S
C755 C756 1.523 . S
C756 C737 1.368 . S
C756 C750 1.368 . S
C756 C755 1.523 . S
C757 C741 1.429 . S
C757 C753 1.429 . S
C757 C758 1.523 . S
C758 C742 1.368 . S
C758 C754 1.368 . S
C758 C757 1.523 . S
H759 C734 0.950 . S
H760 C736 0.950 . S
H761 C737 0.949 . S
H762 C739 0.950 . S
H763 C741 0.950 . S
C764 C765 1.349 . S
C764 C766 1.327 . S
C764 H789 0.950 . S
C765 C764 1.349 . S
C765 C781 1.349 . S
C766 C764 1.327 . S
C766 C785 1.429 . S
C766 H790 0.950 . S
C767 C784 1.574 . S
C767 C786 1.368 . S
C767 H791 0.949 . S
H768 C772 0.949 . S
C769 C770 1.349 . S
C769 C771 1.327 1_545 S
C769 H792 0.950 . S
C770 C769 1.349 . S
C770 C782 1.349 . S
C771 C769 1.327 1_565 S
C771 C787 1.429 . S
C771 H793 0.950 . S
C772 H768 0.949 . S
C772 C780 1.574 . S
C772 C788 1.368 . S
H773 C781 0.950 . S
H774 C779 0.950 . S
H775 C780 0.949 . S
H776 C782 0.950 . S
H777 C783 0.950 . S
H778 C784 0.949 . S
C779 H774 0.950 . S
C779 C781 1.327 . S
C779 C785 1.429 . S
C780 C772 1.574 . S
C780 H775 0.949 . S
C780 C786 1.368 . S
C781 C765 1.349 . S
C781 H773 0.950 . S
C781 C779 1.327 . S
C782 C770 1.349 . S
C782 H776 0.950 . S
C782 C783 1.327 . S
C783 H777 0.950 . S
C783 C782 1.327 . S
C783 C787 1.429 1_545 S
C784 C767 1.574 . S
C784 H778 0.949 . S
C784 C788 1.368 . S
C785 C766 1.429 . S
C785 C779 1.429 . S
C785 C786 1.523 . S
C786 C767 1.368 . S
C786 C780 1.368 . S
C786 C785 1.523 . S
C787 C771 1.429 . S
C787 C783 1.429 1_565 S
C787 C788 1.523 . S
C788 C772 1.368 . S
C788 C784 1.368 . S
C788 C787 1.523 . S
H789 C764 0.950 . S
H790 C766 0.950 . S
H791 C767 0.949 . S
H792 C769 0.950 . S
H793 C771 0.950 . S
C794 C795 1.349 . S
C794 C796 1.327 . S
C794 H819 0.950 . S
C795 C794 1.349 . S
C795 C811 1.349 . S
C796 C794 1.327 . S
C796 C815 1.429 . S
C796 H820 0.950 . S
C797 C814 1.574 . S
C797 C816 1.368 . S
C797 H821 0.949 . S
H798 C802 0.949 . S
C799 C800 1.349 . S
C799 C801 1.327 1_655 S
C799 H822 0.950 . S
C800 C799 1.349 . S
C800 C812 1.349 . S
C801 C799 1.327 1_455 S
C801 C817 1.429 . S
C801 H823 0.950 . S
C802 H798 0.949 . S
C802 C810 1.574 . S
C802 C818 1.368 . S
H803 C811 0.950 . S
H804 C809 0.950 . S
H805 C810 0.949 . S
H806 C812 0.950 . S
H807 C813 0.950 . S
H808 C814 0.949 . S
C809 H804 0.950 . S
C809 C811 1.327 . S
C809 C815 1.429 . S
C810 C802 1.574 . S
C810 H805 0.949 . S
C810 C816 1.368 . S
C811 C795 1.349 . S
C811 H803 0.950 . S
C811 C809 1.327 . S
C812 C800 1.349 . S
C812 H806 0.950 . S
C812 C813 1.327 . S
C813 H807 0.950 . S
C813 C812 1.327 . S
C813 C817 1.429 1_655 S
C814 C797 1.574 . S
C814 H808 0.949 . S
C814 C818 1.368 . S
C815 C796 1.429 . S
C815 C809 1.429 . S
C815 C816 1.523 . S
C816 C797 1.368 . S
C816 C810 1.368 . S
C816 C815 1.523 . S
C817 C801 1.429 . S
C817 C813 1.429 1_455 S
C817 C818 1.523 . S
C818 C802 1.368 . S
C818 C814 1.368 . S
C818 C817 1.523 . S
H819 C794 0.950 . S
H820 C796 0.950 . S
H821 C797 0.949 . S
H822 C799 0.950 . S
H823 C801 0.950 . S
C824 C825 1.349 . S
C824 C826 1.327 1_545 S
C824 H849 0.950 . S
C825 C824 1.349 . S
C825 C841 1.349 . S
C826 C824 1.327 1_565 S
C826 C845 1.429 . S
C826 H850 0.950 . S
C827 C844 1.574 . S
C827 C846 1.368 . S
C827 H851 0.949 . S
H828 C832 0.949 . S
C829 C830 1.349 . S
C829 C831 1.327 . S
C829 H852 0.950 . S
C830 C829 1.349 . S
C830 C842 1.349 . S
C831 C829 1.327 . S
C831 C847 1.429 . S
C831 H853 0.950 . S
C832 H828 0.949 . S
C832 C840 1.574 . S
C832 C848 1.368 . S
H833 C841 0.950 . S
H834 C839 0.950 1_565 S
H835 C840 0.949 . S
H836 C842 0.950 . S
H837 C843 0.950 . S
H838 C844 0.949 . S
C839 H834 0.950 1_545 S
C839 C841 1.327 . S
C839 C845 1.429 1_545 S
C840 C832 1.574 . S
C840 H835 0.949 . S
C840 C846 1.368 . S
C841 C825 1.349 . S
C841 H833 0.950 . S
C841 C839 1.327 . S
C842 C830 1.349 . S
C842 H836 0.950 . S
C842 C843 1.327 . S
C843 H837 0.950 . S
C843 C842 1.327 . S
C843 C847 1.429 . S
C844 C827 1.574 . S
C844 H838 0.949 . S
C844 C848 1.368 . S
C845 C826 1.429 . S
C845 C839 1.429 1_565 S
C845 C846 1.523 . S
C846 C827 1.368 . S
C846 C840 1.368 . S
C846 C845 1.523 . S
C847 C831 1.429 . S
C847 C843 1.429 . S
C847 C848 1.523 . S
C848 C832 1.368 . S
C848 C844 1.368 . S
C848 C847 1.523 . S
H849 C824 0.950 . S
H850 C826 0.950 . S
H851 C827 0.949 . S
H852 C829 0.950 . S
H853 C831 0.950 . S
C854 C855 1.349 . S
C854 C856 1.327 . S
C854 H879 0.950 . S
C855 C854 1.349 . S
C855 C871 1.349 . S
C856 C854 1.327 . S
C856 C875 1.429 . S
C856 H880 0.950 . S
C857 C874 1.574 . S
C857 C876 1.368 . S
C857 H881 0.949 . S
H858 C862 0.949 . S
C859 C860 1.349 . S
C859 C861 1.327 1_655 S
C859 H882 0.950 . S
C860 C859 1.349 . S
C860 C872 1.349 . S
C861 C859 1.327 1_455 S
C861 C877 1.429 . S
C861 H883 0.950 . S
C862 H858 0.949 . S
C862 C870 1.574 . S
C862 C878 1.368 . S
H863 C871 0.950 . S
H864 C869 0.950 . S
H865 C870 0.949 . S
H866 C872 0.950 . S
H867 C873 0.950 . S
H868 C874 0.949 . S
C869 H864 0.950 . S
C869 C871 1.327 . S
C869 C875 1.429 . S
C870 C862 1.574 . S
C870 H865 0.949 . S
C870 C876 1.368 . S
C871 C855 1.349 . S
C871 H863 0.950 . S
C871 C869 1.327 . S
C872 C860 1.349 . S
C872 H866 0.950 . S
C872 C873 1.327 . S
C873 H867 0.950 . S
C873 C872 1.327 . S
C873 C877 1.429 1_655 S
C874 C857 1.574 . S
C874 H868 0.949 . S
C874 C878 1.368 . S
C875 C856 1.429 . S
C875 C869 1.429 . S
C875 C876 1.523 . S
C876 C857 1.368 . S
C876 C870 1.368 . S
C876 C875 1.523 . S
C877 C861 1.429 . S
C877 C873 1.429 1_455 S
C877 C878 1.523 . S
C878 C862 1.368 . S
C878 C874 1.368 . S
C878 C877 1.523 . S
H879 C854 0.950 . S
H880 C856 0.950 . S
H881 C857 0.949 . S
H882 C859 0.950 . S
H883 C861 0.950 . S
C884 C885 1.349 . S
C884 C886 1.327 1_565 S
C884 H909 0.950 . S
C885 C884 1.349 . S
C885 C901 1.349 . S
C886 C884 1.327 1_545 S
C886 C905 1.429 . S
C886 H910 0.950 . S
C887 C904 1.574 . S
C887 C906 1.368 . S
C887 H911 0.949 . S
H888 C892 0.949 . S
C889 C890 1.349 . S
C889 C891 1.327 . S
C889 H912 0.950 . S
C890 C889 1.349 . S
C890 C902 1.349 . S
C891 C889 1.327 . S
C891 C907 1.429 . S
C891 H913 0.950 . S
C892 H888 0.949 . S
C892 C900 1.574 . S
C892 C908 1.368 . S
H893 C901 0.950 . S
H894 C899 0.950 1_545 S
H895 C900 0.949 . S
H896 C902 0.950 . S
H897 C903 0.950 . S
H898 C904 0.949 . S
C899 H894 0.950 1_565 S
C899 C901 1.327 . S
C899 C905 1.429 1_565 S
C900 C892 1.574 . S
C900 H895 0.949 . S
C900 C906 1.368 . S
C901 C885 1.349 . S
C901 H893 0.950 . S
C901 C899 1.327 . S
C902 C890 1.349 . S
C902 H896 0.950 . S
C902 C903 1.327 . S
C903 H897 0.950 . S
C903 C902 1.327 . S
C903 C907 1.429 . S
C904 C887 1.574 . S
C904 H898 0.949 . S
C904 C908 1.368 . S
C905 C886 1.429 . S
C905 C899 1.429 1_545 S
C905 C906 1.523 . S
C906 C887 1.368 . S
C906 C900 1.368 . S
C906 C905 1.523 . S
C907 C891 1.429 . S
C907 C903 1.429 . S
C907 C908 1.523 . S
C908 C892 1.368 . S
C908 C904 1.368 . S
C908 C907 1.523 . S
H909 C884 0.950 . S
H910 C886 0.950 . S
H911 C887 0.949 . S
H912 C889 0.950 . S
H913 C891 0.950 . S
C914 C915 1.349 . S
C914 C916 1.327 . S
C914 H939 0.950 . S
C915 C914 1.349 . S
C915 C931 1.349 . S
C916 C914 1.327 . S
C916 C935 1.429 1_455 S
C916 H940 0.950 . S
C917 C934 1.574 . S
C917 C936 1.368 . S
C917 H941 0.949 . S
H918 C922 0.949 . S
C919 C920 1.349 . S
C919 C921 1.327 . S
C919 H942 0.950 . S
C920 C919 1.349 . S
C920 C932 1.349 . S
C921 C919 1.327 . S
C921 C937 1.429 . S
C921 H943 0.950 . S
C922 H918 0.949 . S
C922 C930 1.574 . S
C922 C938 1.368 . S
H923 C931 0.950 . S
H924 C929 0.950 . S
H925 C930 0.949 . S
H926 C932 0.950 . S
H927 C933 0.950 . S
H928 C934 0.949 . S
C929 H924 0.950 . S
C929 C931 1.327 1_655 S
C929 C935 1.429 . S
C930 C922 1.574 . S
C930 H925 0.949 . S
C930 C936 1.368 . S
C931 C915 1.349 . S
C931 H923 0.950 . S
C931 C929 1.327 1_455 S
C932 C920 1.349 . S
C932 H926 0.950 . S
C932 C933 1.327 . S
C933 H927 0.950 . S
C933 C932 1.327 . S
C933 C937 1.429 . S
C934 C917 1.574 . S
C934 H928 0.949 . S
C934 C938 1.368 . S
C935 C916 1.429 1_655 S
C935 C929 1.429 . S
C935 C936 1.523 . S
C936 C917 1.368 . S
C936 C930 1.368 . S
C936 C935 1.523 . S
C937 C921 1.429 . S
C937 C933 1.429 . S
C937 C938 1.523 . S
C938 C922 1.368 . S
C938 C934 1.368 . S
C938 C937 1.523 . S
H939 C914 0.950 . S
H940 C916 0.950 . S
H941 C917 0.949 . S
H942 C919 0.950 . S
H943 C921 0.950 . S
C944 C945 1.349 . S
C944 C946 1.327 . S
C944 H969 0.950 . S
C945 C944 1.349 . S
C945 C961 1.349 . S
C946 C944 1.327 . S
C946 C965 1.429 . S
C946 H970 0.950 . S
C947 C964 1.574 . S
C947 C966 1.368 . S
C947 H971 0.949 . S
H948 C952 0.949 . S
C949 C950 1.349 . S
C949 C951 1.327 . S
C949 H972 0.950 . S
C950 C949 1.349 . S
C950 C962 1.349 . S
C951 C949 1.327 . S
C951 C967 1.429 1_545 S
C951 H973 0.948 1_545 S
C952 H948 0.949 . S
C952 C960 1.574 . S
C952 C968 1.368 . S
H953 C961 0.950 . S
H954 C959 0.950 . S
H955 C960 0.949 . S
H956 C962 0.950 . S
H957 C963 0.950 1_565 S
H958 C964 0.949 . S
C959 H954 0.950 . S
C959 C961 1.327 . S
C959 C965 1.429 . S
C960 C952 1.574 . S
C960 H955 0.949 . S
C960 C966 1.368 . S
C961 C945 1.349 . S
C961 H953 0.950 . S
C961 C959 1.327 . S
C962 C950 1.349 . S
C962 H956 0.950 . S
C962 C963 1.327 . S
C963 H957 0.950 1_545 S
C963 C962 1.327 . S
C963 C967 1.429 1_545 S
C964 C947 1.574 . S
C964 H958 0.949 . S
C964 C968 1.368 . S
C965 C946 1.429 . S
C965 C959 1.429 . S
C965 C966 1.523 . S
C966 C947 1.368 . S
C966 C960 1.368 . S
C966 C965 1.523 . S
C967 C951 1.429 1_565 S
C967 C963 1.429 1_565 S
C967 C968 1.523 . S
C968 C952 1.368 . S
C968 C964 1.368 . S
C968 C967 1.523 . S
H969 C944 0.950 . S
H970 C946 0.950 . S
H971 C947 0.949 . S
H972 C949 0.950 . S
H973 C951 0.948 1_565 S
C974 C975 1.349 . S
C974 C976 1.327 . S
C974 H999 0.950 . S
C975 C974 1.349 . S
C975 C991 1.349 . S
C976 C974 1.327 . S
C976 C995 1.429 1_655 S
C976 H1000 0.950 . S
C977 C994 1.574 . S
C977 C996 1.368 . S
C977 H1001 0.949 . S
H978 C982 0.949 . S
C979 C980 1.349 . S
C979 C981 1.327 . S
C979 H1002 0.950 . S
C980 C979 1.349 . S
C980 C992 1.349 . S
C981 C979 1.327 . S
C981 C997 1.429 . S
C981 H1003 0.950 . S
C982 H978 0.949 . S
C982 C990 1.574 . S
C982 C998 1.368 . S
H983 C991 0.950 . S
H984 C989 0.950 1_455 S
H985 C990 0.949 . S
H986 C992 0.950 . S
H987 C993 0.950 . S
H988 C994 0.949 . S
C989 H984 0.950 1_655 S
C989 C991 1.327 . S
C989 C995 1.429 1_655 S
C990 C982 1.574 . S
C990 H985 0.949 . S
C990 C996 1.368 . S
C991 C975 1.349 . S
C991 H983 0.950 . S
C991 C989 1.327 . S
C992 C980 1.349 . S
C992 H986 0.950 . S
C992 C993 1.327 . S
C993 H987 0.950 . S
C993 C992 1.327 . S
C993 C997 1.429 . S
C994 C977 1.574 . S
C994 H988 0.949 . S
C994 C998 1.368 . S
C995 C976 1.429 1_455 S
C995 C989 1.429 1_455 S
C995 C996 1.523 . S
C996 C977 1.368 . S
C996 C990 1.368 . S
C996 C995 1.523 . S
C997 C981 1.429 . S
C997 C993 1.429 . S
C997 C998 1.523 . S
C998 C982 1.368 . S
C998 C994 1.368 . S
C998 C997 1.523 . S
H999 C974 0.950 . S
H1000 C976 0.950 . S
H1001 C977 0.949 . S
H1002 C979 0.950 . S
H1003 C981 0.950 . S
C1004 C1005 1.349 . S
C1004 C1006 1.327 . S
C1004 H1029 0.950 . S
C1005 C1004 1.349 . S
C1005 C1021 1.349 . S
C1006 C1004 1.327 . S
C1006 C1025 1.429 . S
C1006 H1030 0.950 . S
C1007 C1024 1.574 . S
C1007 C1026 1.368 . S
C1007 H1031 0.949 . S
H1008 C1012 0.949 . S
C1009 C1010 1.349 . S
C1009 C1011 1.327 . S
C1009 H1032 0.950 . S
C1010 C1009 1.349 . S
C1010 C1022 1.349 . S
C1011 C1009 1.327 . S
C1011 C1027 1.429 1_565 S
C1011 H1033 0.950 . S
C1012 H1008 0.949 . S
C1012 C1020 1.574 . S
C1012 C1028 1.368 . S
H1013 C1021 0.950 . S
H1014 C1019 0.950 . S
H1015 C1020 0.949 . S
H1016 C1022 0.950 . S
H1017 C1023 0.946 1_545 S
H1018 C1024 0.949 . S
C1019 H1014 0.950 . S
C1019 C1021 1.327 . S
C1019 C1025 1.429 . S
C1020 C1012 1.574 . S
C1020 H1015 0.949 . S
C1020 C1026 1.368 . S
C1021 C1005 1.349 . S
C1021 H1013 0.950 . S
C1021 C1019 1.327 . S
C1022 C1010 1.349 . S
C1022 H1016 0.950 . S
C1022 C1023 1.332 . S
C1023 H1017 0.946 1_565 S
C1023 C1022 1.332 . S
C1023 C1027 1.427 1_565 S
C1024 C1007 1.574 . S
C1024 H1018 0.949 . S
C1024 C1028 1.368 . S
C1025 C1006 1.429 . S
C1025 C1019 1.429 . S
C1025 C1026 1.523 . S
C1026 C1007 1.368 . S
C1026 C1020 1.368 . S
C1026 C1025 1.523 . S
C1027 C1011 1.429 1_545 S
C1027 C1023 1.427 1_545 S
C1027 C1028 1.523 . S
C1028 C1012 1.368 . S
C1028 C1024 1.368 . S
C1028 C1027 1.523 . S
H1029 C1004 0.950 . S
H1030 C1006 0.950 . S
H1031 C1007 0.949 . S
H1032 C1009 0.950 . S
H1033 C1011 0.950 . S
C1034 C1035 1.349 . S
C1034 C1036 1.327 . S
C1034 H1059 0.950 . S
C1035 C1034 1.349 . S
C1035 C1051 1.349 . S
C1036 C1034 1.327 . S
C1036 C1055 1.429 1_455 S
C1036 H1060 0.950 . S
C1037 C1054 1.574 . S
C1037 C1056 1.368 . S
C1037 H1061 0.949 . S
H1038 C1042 0.949 . S
C1039 C1040 1.349 . S
C1039 C1041 1.327 . S
C1039 H1062 0.950 . S
C1040 C1039 1.349 . S
C1040 C1052 1.349 . S
C1041 C1039 1.327 . S
C1041 C1057 1.429 . S
C1041 H1063 0.950 . S
C1042 H1038 0.949 . S
C1042 C1050 1.574 . S
C1042 C1058 1.368 . S
H1043 C1051 0.950 . S
H1044 C1049 0.950 1_655 S
H1045 C1050 0.949 . S
H1046 C1052 0.950 . S
H1047 C1053 0.950 . S
H1048 C1054 0.949 . S
C1049 H1044 0.950 1_455 S
C1049 C1051 1.327 . S
C1049 C1055 1.429 1_455 S
C1050 C1042 1.574 . S
C1050 H1045 0.949 . S
C1050 C1056 1.368 . S
C1051 C1035 1.349 . S
C1051 H1043 0.950 . S
C1051 C1049 1.327 . S
C1052 C1040 1.349 . S
C1052 H1046 0.950 . S
C1052 C1053 1.327 . S
C1053 H1047 0.950 . S
C1053 C1052 1.327 . S
C1053 C1057 1.429 . S
C1054 C1037 1.574 . S
C1054 H1048 0.949 . S
C1054 C1058 1.368 . S
C1055 C1036 1.429 1_655 S
C1055 C1049 1.429 1_655 S
C1055 C1056 1.523 . S
C1056 C1037 1.368 . S
C1056 C1050 1.368 . S
C1056 C1055 1.523 . S
C1057 C1041 1.429 . S
C1057 C1053 1.429 . S
C1057 C1058 1.523 . S
C1058 C1042 1.368 . S
C1058 C1054 1.368 . S
C1058 C1057 1.523 . S
H1059 C1034 0.950 . S
H1060 C1036 0.950 . S
H1061 C1037 0.949 . S
H1062 C1039 0.950 . S
H1063 C1041 0.950 . S
C1064 C1065 1.349 . S
C1064 C1066 1.327 . S
C1064 H1089 0.950 . S
C1065 C1064 1.349 . S
C1065 C1081 1.349 . S
C1066 C1064 1.327 . S
C1066 C1085 1.429 . S
C1066 H1090 0.950 . S
C1067 C1084 1.574 . S
C1067 C1086 1.368 . S
C1067 H1091 0.949 . S
H1068 C1072 0.949 . S
C1069 C1070 1.349 . S
C1069 C1071 1.327 . S
C1069 H1092 0.950 . S
C1070 C1069 1.349 . S
C1070 C1082 1.349 . S
C1071 C1069 1.327 . S
C1071 C1087 1.429 1_565 S
C1071 H1093 0.950 1_565 S
C1072 H1068 0.949 . S
C1072 C1080 1.574 . S
C1072 C1088 1.368 . S
H1073 C1081 0.950 . S
H1074 C1079 0.950 . S
H1075 C1080 0.949 . S
H1076 C1082 0.950 . S
H1077 C1083 0.960 . S
H1078 C1084 0.949 . S
C1079 H1074 0.950 . S
C1079 C1081 1.327 . S
C1079 C1085 1.429 . S
C1080 C1072 1.574 . S
C1080 H1075 0.949 . S
C1080 C1086 1.368 . S
C1081 C1065 1.349 . S
C1081 H1073 0.950 . S
C1081 C1079 1.327 . S
C1082 C1070 1.349 . S
C1082 H1076 0.950 . S
C1082 C1083 1.327 . S
C1083 H1077 0.960 . S
C1083 C1082 1.327 . S
C1083 C1087 1.429 1_565 S
C1084 C1067 1.574 . S
C1084 H1078 0.949 . S
C1084 C1088 1.368 . S
C1085 C1066 1.429 . S
C1085 C1079 1.429 . S
C1085 C1086 1.523 . S
C1086 C1067 1.368 . S
C1086 C1080 1.368 . S
C1086 C1085 1.523 . S
C1087 C1071 1.429 1_545 S
C1087 C1083 1.429 1_545 S
C1087 C1088 1.523 . S
C1088 C1072 1.368 . S
C1088 C1084 1.368 . S
C1088 C1087 1.523 . S
H1089 C1064 0.950 . S
H1090 C1066 0.950 . S
H1091 C1067 0.949 . S
H1092 C1069 0.950 . S
H1093 C1071 0.950 1_545 S
C1094 C1095 1.349 . S
C1094 C1096 1.327 . S
C1094 H1119 0.950 . S
C1095 C1094 1.349 . S
C1095 C1111 1.349 . S
C1096 C1094 1.327 . S
C1096 C1115 1.429 1_455 S
C1096 H1120 0.950 . S
C1097 C1114 1.574 . S
C1097 C1116 1.368 . S
C1097 H1121 0.949 . S
H1098 C1102 0.949 . S
C1099 C1100 1.349 . S
C1099 C1101 1.327 . S
C1099 H1122 0.950 . S
C1100 C1099 1.349 . S
C1100 C1112 1.349 . S
C1101 C1099 1.327 . S
C1101 C1117 1.429 . S
C1101 H1123 0.950 . S
C1102 H1098 0.949 . S
C1102 C1110 1.574 . S
C1102 C1118 1.368 . S
H1103 C1111 0.950 . S
H1104 C1109 0.950 1_655 S
H1105 C1110 0.949 . S
H1106 C1112 0.950 . S
H1107 C1113 0.950 . S
H1108 C1114 0.949 . S
C1109 H1104 0.950 1_455 S
C1109 C1111 1.327 . S
C1109 C1115 1.429 1_455 S
C1110 C1102 1.574 . S
C1110 H1105 0.949 . S
C1110 C1116 1.368 . S
C1111 C1095 1.349 . S
C1111 H1103 0.950 . S
C1111 C1109 1.327 . S
C1112 C1100 1.349 . S
C1112 H1106 0.950 . S
C1112 C1113 1.327 . S
C1113 H1107 0.950 . S
C1113 C1112 1.327 . S
C1113 C1117 1.429 . S
C1114 C1097 1.574 . S
C1114 H1108 0.949 . S
C1114 C1118 1.368 . S
C1115 C1096 1.429 1_655 S
C1115 C1109 1.429 1_655 S
C1115 C1116 1.523 . S
C1116 C1097 1.368 . S
C1116 C1110 1.368 . S
C1116 C1115 1.523 . S
C1117 C1101 1.429 . S
C1117 C1113 1.429 . S
C1117 C1118 1.523 . S
C1118 C1102 1.368 . S
C1118 C1114 1.368 . S
C1118 C1117 1.523 . S
H1119 C1094 0.950 . S
H1120 C1096 0.950 . S
H1121 C1097 0.949 . S
H1122 C1099 0.950 . S
H1123 C1101 0.950 . S
C1124 C1125 1.349 . S
C1124 C1126 1.327 . S
C1124 H1149 0.950 . S
C1125 C1124 1.349 . S
C1125 C1141 1.349 . S
C1126 C1124 1.327 . S
C1126 C1145 1.429 1_545 S
C1126 H1150 0.950 . S
C1127 C1144 1.574 . S
C1127 C1146 1.368 . S
C1127 H1151 0.949 . S
H1128 C1132 0.949 . S
C1129 C1130 1.349 . S
C1129 C1131 1.327 . S
C1129 H1152 0.950 . S
C1130 C1129 1.349 . S
C1130 C1142 1.349 . S
C1131 C1129 1.327 . S
C1131 C1147 1.429 . S
C1131 H1153 0.950 . S
C1132 H1128 0.949 . S
C1132 C1140 1.574 . S
C1132 C1148 1.368 . S
H1133 C1141 0.950 . S
H1134 C1139 0.950 1_565 S
H1135 C1140 0.949 . S
H1136 C1142 0.950 . S
H1137 C1143 0.950 . S
H1138 C1144 0.949 . S
C1139 H1134 0.950 1_545 S
C1139 C1141 1.327 . S
C1139 C1145 1.429 1_545 S
C1140 C1132 1.574 . S
C1140 H1135 0.949 . S
C1140 C1146 1.368 . S
C1141 C1125 1.349 . S
C1141 H1133 0.950 . S
C1141 C1139 1.327 . S
C1142 C1130 1.349 . S
C1142 H1136 0.950 . S
C1142 C1143 1.327 . S
C1143 H1137 0.950 . S
C1143 C1142 1.327 . S
C1143 C1147 1.429 . S
C1144 C1127 1.574 . S
C1144 H1138 0.949 . S
C1144 C1148 1.368 . S
C1145 C1126 1.429 1_565 S
C1145 C1139 1.429 1_565 S
C1145 C1146 1.523 . S
C1146 C1127 1.368 . S
C1146 C1140 1.368 . S
C1146 C1145 1.523 . S
C1147 C1131 1.429 . S
C1147 C1143 1.429 . S
C1147 C1148 1.523 . S
C1148 C1132 1.368 . S
C1148 C1144 1.368 . S
C1148 C1147 1.523 . S
H1149 C1124 0.950 . S
H1150 C1126 0.950 . S
H1151 C1127 0.949 . S
H1152 C1129 0.950 . S
H1153 C1131 0.950 . S
C1154 C1155 1.349 . S
C1154 C1156 1.327 . S
C1154 H1179 0.950 . S
C1155 C1154 1.349 . S
C1155 C1171 1.349 . S
C1156 C1154 1.327 . S
C1156 C1175 1.429 1_655 S
C1156 H1180 0.950 1_655 S
C1157 C1174 1.574 . S
C1157 C1176 1.368 . S
C1157 H1181 0.949 . S
H1158 C1162 0.949 . S
C1159 C1160 1.349 . S
C1159 C1161 1.327 . S
C1159 H1182 0.950 . S
C1160 C1159 1.349 . S
C1160 C1172 1.349 . S
C1161 C1159 1.327 . S
C1161 C1177 1.429 . S
C1161 H1183 0.950 . S
C1162 H1158 0.949 . S
C1162 C1170 1.574 . S
C1162 C1178 1.368 . S
H1163 C1171 0.950 . S
H1164 C1169 0.950 . S
H1165 C1170 0.949 . S
H1166 C1172 0.950 . S
H1167 C1173 0.950 . S
H1168 C1174 0.949 . S
C1169 H1164 0.950 . S
C1169 C1171 1.327 . S
C1169 C1175 1.429 1_655 S
C1170 C1162 1.574 . S
C1170 H1165 0.949 . S
C1170 C1176 1.368 . S
C1171 C1155 1.349 . S
C1171 H1163 0.950 . S
C1171 C1169 1.327 . S
C1172 C1160 1.349 . S
C1172 H1166 0.950 . S
C1172 C1173 1.327 . S
C1173 H1167 0.950 . S
C1173 C1172 1.327 . S
C1173 C1177 1.429 . S
C1174 C1157 1.574 . S
C1174 H1168 0.949 . S
C1174 C1178 1.368 . S
C1175 C1156 1.429 1_455 S
C1175 C1169 1.429 1_455 S
C1175 C1176 1.523 . S
C1176 C1157 1.368 . S
C1176 C1170 1.368 . S
C1176 C1175 1.523 . S
C1177 C1161 1.429 . S
C1177 C1173 1.429 . S
C1177 C1178 1.523 . S
C1178 C1162 1.368 . S
C1178 C1174 1.368 . S
C1178 C1177 1.523 . S
H1179 C1154 0.950 . S
H1180 C1156 0.950 1_455 S
H1181 C1157 0.949 . S
H1182 C1159 0.950 . S
H1183 C1161 0.950 . S
C1184 C1185 1.349 . S
C1184 C1186 1.327 . S
C1184 H1209 0.950 . S
C1185 C1184 1.349 . S
C1185 C1201 1.349 . S
C1186 C1184 1.327 . S
C1186 C1205 1.429 . S
C1186 H1210 0.950 . S
C1187 C1204 1.574 . S
C1187 C1206 1.368 . S
C1187 H1211 0.949 . S
H1188 C1192 0.949 . S
C1189 C1190 1.349 . S
C1189 C1191 1.327 . S
C1189 H1212 0.950 . S
C1190 C1189 1.349 . S
C1190 C1202 1.349 . S
C1191 C1189 1.327 . S
C1191 C1207 1.429 . S
C1191 H1213 0.950 . S
C1192 H1188 0.949 . S
C1192 C1200 1.574 . S
C1192 C1208 1.368 . S
H1193 C1201 0.950 . S
H1194 C1199 0.950 . S
H1195 C1200 0.949 . S
H1196 C1202 0.950 . S
H1197 C1203 0.950 . S
H1198 C1204 0.949 . S
C1199 H1194 0.950 . S
C1199 C1201 1.327 . S
C1199 C1205 1.429 . S
C1200 C1192 1.574 . S
C1200 H1195 0.949 . S
C1200 C1206 1.368 . S
C1201 C1185 1.349 . S
C1201 H1193 0.950 . S
C1201 C1199 1.327 . S
C1202 C1190 1.349 . S
C1202 H1196 0.950 . S
C1202 C1203 1.327 . S
C1203 H1197 0.950 . S
C1203 C1202 1.327 . S
C1203 C1207 1.429 . S
C1204 C1187 1.574 . S
C1204 H1198 0.949 . S
C1204 C1208 1.368 . S
C1205 C1186 1.429 . S
C1205 C1199 1.429 . S
C1205 C1206 1.523 . S
C1206 C1187 1.368 . S
C1206 C1200 1.368 . S
C1206 C1205 1.523 . S
C1207 C1191 1.429 . S
C1207 C1203 1.429 . S
C1207 C1208 1.523 . S
C1208 C1192 1.368 . S
C1208 C1204 1.368 . S
C1208 C1207 1.523 . S
H1209 C1184 0.950 . S
H1210 C1186 0.950 . S
H1211 C1187 0.949 . S
H1212 C1189 0.950 . S
H1213 C1191 0.950 . S
C1214 C1215 1.349 . S
C1214 C1216 1.327 . S
C1214 H1239 0.950 . S
C1215 C1214 1.349 . S
C1215 C1231 1.349 . S
C1216 C1214 1.327 . S
C1216 C1235 1.429 . S
C1216 H1240 0.950 . S
C1217 C1234 1.574 . S
C1217 C1236 1.368 . S
C1217 H1241 0.949 . S
H1218 C1222 0.949 . S
C1219 C1220 1.349 . S
C1219 C1221 1.327 . S
C1219 H1242 0.950 . S
C1220 C1219 1.349 . S
C1220 C1232 1.349 . S
C1221 C1219 1.327 . S
C1221 C1237 1.429 . S
C1221 H1243 0.950 . S
C1222 H1218 0.949 . S
C1222 C1230 1.574 . S
C1222 C1238 1.368 . S
H1223 C1231 0.950 . S
H1224 C1229 0.950 . S
H1225 C1230 0.949 . S
H1226 C1232 0.950 . S
H1227 C1233 0.950 . S
H1228 C1234 0.949 . S
C1229 H1224 0.950 . S
C1229 C1231 1.327 . S
C1229 C1235 1.429 . S
C1230 C1222 1.574 . S
C1230 H1225 0.949 . S
C1230 C1236 1.368 . S
C1231 C1215 1.349 . S
C1231 H1223 0.950 . S
C1231 C1229 1.327 . S
C1232 C1220 1.349 . S
C1232 H1226 0.950 . S
C1232 C1233 1.327 . S
C1233 H1227 0.950 . S
C1233 C1232 1.327 . S
C1233 C1237 1.429 . S
C1234 C1217 1.574 . S
C1234 H1228 0.949 . S
C1234 C1238 1.368 . S
C1235 C1216 1.429 . S
C1235 C1229 1.429 . S
C1235 C1236 1.523 . S
C1236 C1217 1.368 . S
C1236 C1230 1.368 . S
C1236 C1235 1.523 . S
C1237 C1221 1.429 . S
C1237 C1233 1.429 . S
C1237 C1238 1.523 . S
C1238 C1222 1.368 . S
C1238 C1234 1.368 . S
C1238 C1237 1.523 . S
H1239 C1214 0.950 . S
H1240 C1216 0.950 . S
H1241 C1217 0.949 . S
H1242 C1219 0.950 . S
H1243 C1221 0.950 . S
C1244 C1245 1.349 . S
C1244 C1246 1.327 . S
C1244 H1269 0.950 . S
C1245 C1244 1.349 . S
C1245 C1261 1.349 . S
C1246 C1244 1.327 . S
C1246 C1265 1.429 . S
C1246 H1270 0.950 . S
C1247 C1264 1.574 . S
C1247 C1266 1.368 . S
C1247 H1271 0.949 . S
H1248 C1252 0.949 . S
C1249 C1250 1.349 . S
C1249 C1251 1.327 . S
C1249 H1272 0.950 . S
C1250 C1249 1.349 . S
C1250 C1262 1.349 . S
C1251 C1249 1.327 . S
C1251 C1267 1.429 . S
C1251 H1273 0.950 . S
C1252 H1248 0.949 . S
C1252 C1260 1.574 . S
C1252 C1268 1.368 . S
H1253 C1261 0.950 . S
H1254 C1259 0.950 . S
H1255 C1260 0.949 . S
H1256 C1262 0.950 . S
H1257 C1263 0.950 . S
H1258 C1264 0.949 . S
C1259 H1254 0.950 . S
C1259 C1261 1.327 . S
C1259 C1265 1.429 . S
C1260 C1252 1.574 . S
C1260 H1255 0.949 . S
C1260 C1266 1.368 . S
C1261 C1245 1.349 . S
C1261 H1253 0.950 . S
C1261 C1259 1.327 . S
C1262 C1250 1.349 . S
C1262 H1256 0.950 . S
C1262 C1263 1.327 . S
C1263 H1257 0.950 . S
C1263 C1262 1.327 . S
C1263 C1267 1.429 . S
C1264 C1247 1.574 . S
C1264 H1258 0.949 . S
C1264 C1268 1.368 . S
C1265 C1246 1.429 . S
C1265 C1259 1.429 . S
C1265 C1266 1.523 . S
C1266 C1247 1.368 . S
C1266 C1260 1.368 . S
C1266 C1265 1.523 . S
C1267 C1251 1.429 . S
C1267 C1263 1.429 . S
C1267 C1268 1.523 . S
C1268 C1252 1.368 . S
C1268 C1264 1.368 . S
C1268 C1267 1.523 . S
H1269 C1244 0.950 . S
H1270 C1246 0.950 . S
H1271 C1247 0.949 . S
H1272 C1249 0.950 . S
H1273 C1251 0.950 . S
C1274 C1275 1.349 . S
C1274 C1276 1.327 . S
C1274 H1299 0.950 . S
C1275 C1274 1.349 . S
C1275 C1291 1.349 . S
C1276 C1274 1.327 . S
C1276 C1295 1.429 . S
C1276 H1300 0.950 . S
C1277 C1294 1.574 . S
C1277 C1296 1.368 . S
C1277 H1301 0.949 . S
H1278 C1282 0.949 . S
C1279 C1280 1.349 . S
C1279 C1281 1.327 . S
C1279 H1302 0.950 . S
C1280 C1279 1.349 . S
C1280 C1292 1.349 . S
C1281 C1279 1.327 . S
C1281 C1297 1.429 . S
C1281 H1303 0.950 . S
C1282 H1278 0.949 . S
C1282 C1290 1.574 . S
C1282 C1298 1.368 . S
H1283 C1291 0.950 . S
H1284 C1289 0.950 . S
H1285 C1290 0.949 . S
H1286 C1292 0.950 . S
H1287 C1293 0.950 . S
H1288 C1294 0.949 . S
C1289 H1284 0.950 . S
C1289 C1291 1.327 . S
C1289 C1295 1.429 . S
C1290 C1282 1.574 . S
C1290 H1285 0.949 . S
C1290 C1296 1.368 . S
C1291 C1275 1.349 . S
C1291 H1283 0.950 . S
C1291 C1289 1.327 . S
C1292 C1280 1.349 . S
C1292 H1286 0.950 . S
C1292 C1293 1.327 . S
C1293 H1287 0.950 . S
C1293 C1292 1.327 . S
C1293 C1297 1.429 . S
C1294 C1277 1.574 . S
C1294 H1288 0.949 . S
C1294 C1298 1.368 . S
C1295 C1276 1.429 . S
C1295 C1289 1.429 . S
C1295 C1296 1.523 . S
C1296 C1277 1.368 . S
C1296 C1290 1.368 . S
C1296 C1295 1.523 . S
C1297 C1281 1.429 . S
C1297 C1293 1.429 . S
C1297 C1298 1.523 . S
C1298 C1282 1.368 . S
C1298 C1294 1.368 . S
C1298 C1297 1.523 . S
H1299 C1274 0.950 . S
H1300 C1276 0.950 . S
H1301 C1277 0.949 . S
H1302 C1279 0.950 . S
H1303 C1281 0.950 . S
C1304 C1305 1.349 . S
C1304 C1306 1.327 . S
C1304 H1329 0.950 . S
C1305 C1304 1.349 . S
C1305 C1321 1.349 . S
C1306 C1304 1.327 . S
C1306 C1325 1.429 . S
C1306 H1330 0.950 . S
C1307 C1324 1.574 . S
C1307 C1326 1.368 . S
C1307 H1331 0.949 . S
H1308 C1312 0.949 . S
C1309 C1310 1.349 . S
C1309 C1311 1.327 . S
C1309 H1332 0.950 . S
C1310 C1309 1.349 . S
C1310 C1322 1.349 . S
C1311 C1309 1.327 . S
C1311 C1327 1.429 . S
C1311 H1333 0.950 . S
C1312 H1308 0.949 . S
C1312 C1320 1.574 . S
C1312 C1328 1.368 . S
H1313 C1321 0.950 . S
H1314 C1319 0.950 . S
H1315 C1320 0.949 . S
H1316 C1322 0.950 . S
H1317 C1323 0.950 . S
H1318 C1324 0.949 . S
C1319 H1314 0.950 . S
C1319 C1321 1.327 . S
C1319 C1325 1.429 . S
C1320 C1312 1.574 . S
C1320 H1315 0.949 . S
C1320 C1326 1.368 . S
C1321 C1305 1.349 . S
C1321 H1313 0.950 . S
C1321 C1319 1.327 . S
C1322 C1310 1.349 . S
C1322 H1316 0.950 . S
C1322 C1323 1.327 . S
C1323 H1317 0.950 . S
C1323 C1322 1.327 . S
C1323 C1327 1.429 . S
C1324 C1307 1.574 . S
C1324 H1318 0.949 . S
C1324 C1328 1.368 . S
C1325 C1306 1.429 . S
C1325 C1319 1.429 . S
C1325 C1326 1.523 . S
C1326 C1307 1.368 . S
C1326 C1320 1.368 . S
C1326 C1325 1.523 . S
C1327 C1311 1.429 . S
C1327 C1323 1.429 . S
C1327 C1328 1.523 . S
C1328 C1312 1.368 . S
C1328 C1324 1.368 . S
C1328 C1327 1.523 . S
H1329 C1304 0.950 . S
H1330 C1306 0.950 . S
H1331 C1307 0.949 . S
H1332 C1309 0.950 . S
H1333 C1311 0.950 . S
C1334 C1335 1.349 . S
C1334 C1336 1.327 . S
C1334 H1359 0.950 . S
C1335 C1334 1.349 . S
C1335 C1351 1.349 . S
C1336 C1334 1.327 . S
C1336 C1355 1.429 . S
C1336 H1360 0.950 . S
C1337 C1354 1.574 . S
C1337 C1356 1.368 . S
C1337 H1361 0.949 . S
H1338 C1342 0.949 . S
C1339 C1340 1.349 . S
C1339 C1341 1.327 . S
C1339 H1362 0.950 . S
C1340 C1339 1.349 . S
C1340 C1352 1.349 . S
C1341 C1339 1.327 . S
C1341 C1357 1.429 . S
C1341 H1363 0.950 . S
C1342 H1338 0.949 . S
C1342 C1350 1.574 . S
C1342 C1358 1.368 . S
H1343 C1351 0.950 . S
H1344 C1349 0.950 . S
H1345 C1350 0.949 . S
H1346 C1352 0.950 . S
H1347 C1353 0.950 . S
H1348 C1354 0.949 . S
C1349 H1344 0.950 . S
C1349 C1351 1.327 . S
C1349 C1355 1.429 . S
C1350 C1342 1.574 . S
C1350 H1345 0.949 . S
C1350 C1356 1.368 . S
C1351 C1335 1.349 . S
C1351 H1343 0.950 . S
C1351 C1349 1.327 . S
C1352 C1340 1.349 . S
C1352 H1346 0.950 . S
C1352 C1353 1.327 . S
C1353 H1347 0.950 . S
C1353 C1352 1.327 . S
C1353 C1357 1.429 . S
C1354 C1337 1.574 . S
C1354 H1348 0.949 . S
C1354 C1358 1.368 . S
C1355 C1336 1.429 . S
C1355 C1349 1.429 . S
C1355 C1356 1.523 . S
C1356 C1337 1.368 . S
C1356 C1350 1.368 . S
C1356 C1355 1.523 . S
C1357 C1341 1.429 . S
C1357 C1353 1.429 . S
C1357 C1358 1.523 . S
C1358 C1342 1.368 . S
C1358 C1354 1.368 . S
C1358 C1357 1.523 . S
H1359 C1334 0.950 . S
H1360 C1336 0.950 . S
H1361 C1337 0.949 . S
H1362 C1339 0.950 . S
H1363 C1341 0.950 . S
C1364 C1365 1.349 . S
C1364 C1366 1.327 . S
C1364 H1389 0.950 . S
C1365 C1364 1.349 . S
C1365 C1381 1.349 . S
C1366 C1364 1.327 . S
C1366 C1385 1.429 . S
C1366 H1390 0.950 . S
C1367 C1384 1.574 . S
C1367 C1386 1.368 . S
C1367 H1391 0.949 . S
H1368 C1372 0.949 . S
C1369 C1370 1.349 . S
C1369 C1371 1.327 . S
C1369 H1392 0.950 . S
C1370 C1369 1.349 . S
C1370 C1382 1.349 . S
C1371 C1369 1.327 . S
C1371 C1387 1.429 . S
C1371 H1393 0.950 . S
C1372 H1368 0.949 . S
C1372 C1380 1.574 . S
C1372 C1388 1.368 . S
H1373 C1381 0.950 . S
H1374 C1379 0.950 . S
H1375 C1380 0.949 . S
H1376 C1382 0.950 . S
H1377 C1383 0.950 . S
H1378 C1384 0.949 . S
C1379 H1374 0.950 . S
C1379 C1381 1.327 . S
C1379 C1385 1.429 . S
C1380 C1372 1.574 . S
C1380 H1375 0.949 . S
C1380 C1386 1.368 . S
C1381 C1365 1.349 . S
C1381 H1373 0.950 . S
C1381 C1379 1.327 . S
C1382 C1370 1.349 . S
C1382 H1376 0.950 . S
C1382 C1383 1.327 . S
C1383 H1377 0.950 . S
C1383 C1382 1.327 . S
C1383 C1387 1.429 . S
C1384 C1367 1.574 . S
C1384 H1378 0.949 . S
C1384 C1388 1.368 . S
C1385 C1366 1.429 . S
C1385 C1379 1.429 . S
C1385 C1386 1.523 . S
C1386 C1367 1.368 . S
C1386 C1380 1.368 . S
C1386 C1385 1.523 . S
C1387 C1371 1.429 . S
C1387 C1383 1.429 . S
C1387 C1388 1.523 . S
C1388 C1372 1.368 . S
C1388 C1384 1.368 . S
C1388 C1387 1.523 . S
H1389 C1364 0.950 . S
H1390 C1366 0.950 . S
H1391 C1367 0.949 . S
H1392 C1369 0.950 . S
H1393 C1371 0.950 . S
C1394 C1395 1.349 . S
C1394 C1396 1.327 . S
C1394 H1419 0.950 . S
C1395 C1394 1.349 . S
C1395 C1411 1.349 . S
C1396 C1394 1.327 . S
C1396 C1415 1.429 . S
C1396 H1420 0.950 . S
C1397 C1414 1.574 . S
C1397 C1416 1.368 . S
C1397 H1421 0.949 . S
H1398 C1402 0.949 . S
C1399 C1400 1.349 . S
C1399 C1401 1.327 . S
C1399 H1422 0.950 . S
C1400 C1399 1.349 . S
C1400 C1412 1.349 . S
C1401 C1399 1.327 . S
C1401 C1417 1.429 . S
C1401 H1423 0.950 . S
C1402 H1398 0.949 . S
C1402 C1410 1.574 . S
C1402 C1418 1.368 . S
H1403 C1411 0.950 . S
H1404 C1409 0.950 . S
H1405 C1410 0.949 . S
H1406 C1412 0.950 . S
H1407 C1413 0.950 . S
H1408 C1414 0.949 . S
C1409 H1404 0.950 . S
C1409 C1411 1.327 . S
C1409 C1415 1.429 . S
C1410 C1402 1.574 . S
C1410 H1405 0.949 . S
C1410 C1416 1.368 . S
C1411 C1395 1.349 . S
C1411 H1403 0.950 . S
C1411 C1409 1.327 . S
C1412 C1400 1.349 . S
C1412 H1406 0.950 . S
C1412 C1413 1.327 . S
C1413 H1407 0.950 . S
C1413 C1412 1.327 . S
C1413 C1417 1.429 . S
C1414 C1397 1.574 . S
C1414 H1408 0.949 . S
C1414 C1418 1.368 . S
C1415 C1396 1.429 . S
C1415 C1409 1.429 . S
C1415 C1416 1.523 . S
C1416 C1397 1.368 . S
C1416 C1410 1.368 . S
C1416 C1415 1.523 . S
C1417 C1401 1.429 . S
C1417 C1413 1.429 . S
C1417 C1418 1.523 . S
C1418 C1402 1.368 . S
C1418 C1414 1.368 . S
C1418 C1417 1.523 . S
H1419 C1394 0.950 . S
H1420 C1396 0.950 . S
H1421 C1397 0.949 . S
H1422 C1399 0.950 . S
H1423 C1401 0.950 . S
C1424 C1425 1.349 . S
C1424 C1426 1.327 . S
C1424 H1449 0.950 . S
C1425 C1424 1.349 . S
C1425 C1441 1.349 . S
C1426 C1424 1.327 . S
C1426 C1445 1.429 . S
C1426 H1450 0.950 . S
C1427 C1444 1.574 . S
C1427 C1446 1.368 . S
C1427 H1451 0.949 . S
H1428 C1432 0.949 . S
C1429 C1430 1.349 . S
C1429 C1431 1.327 . S
C1429 H1452 0.950 . S
C1430 C1429 1.349 . S
C1430 C1442 1.349 . S
C1431 C1429 1.327 . S
C1431 C1447 1.429 . S
C1431 H1453 0.950 . S
C1432 H1428 0.949 . S
C1432 C1440 1.574 . S
C1432 C1448 1.368 . S
H1433 C1441 0.950 . S
H1434 C1439 0.950 . S
H1435 C1440 0.949 . S
H1436 C1442 0.950 . S
H1437 C1443 0.950 . S
H1438 C1444 0.949 . S
C1439 H1434 0.950 . S
C1439 C1441 1.327 . S
C1439 C1445 1.429 . S
C1440 C1432 1.574 . S
C1440 H1435 0.949 . S
C1440 C1446 1.368 . S
C1441 C1425 1.349 . S
C1441 H1433 0.950 . S
C1441 C1439 1.327 . S
C1442 C1430 1.349 . S
C1442 H1436 0.950 . S
C1442 C1443 1.327 . S
C1443 H1437 0.950 . S
C1443 C1442 1.327 . S
C1443 C1447 1.429 . S
C1444 C1427 1.574 . S
C1444 H1438 0.949 . S
C1444 C1448 1.368 . S
C1445 C1426 1.429 . S
C1445 C1439 1.429 . S
C1445 C1446 1.523 . S
C1446 C1427 1.368 . S
C1446 C1440 1.368 . S
C1446 C1445 1.523 . S
C1447 C1431 1.429 . S
C1447 C1443 1.429 . S
C1447 C1448 1.523 . S
C1448 C1432 1.368 . S
C1448 C1444 1.368 . S
C1448 C1447 1.523 . S
H1449 C1424 0.950 . S
H1450 C1426 0.950 . S
H1451 C1427 0.949 . S
H1452 C1429 0.950 . S
H1453 C1431 0.950 . S
C1454 C1455 1.349 . S
C1454 C1456 1.327 . S
C1454 H1479 0.950 . S
C1455 C1454 1.349 . S
C1455 C1471 1.349 . S
C1456 C1454 1.327 . S
C1456 C1475 1.429 . S
C1456 H1480 0.950 . S
C1457 C1474 1.574 . S
C1457 C1476 1.368 . S
C1457 H1481 0.949 . S
H1458 C1462 0.949 . S
C1459 C1460 1.349 . S
C1459 C1461 1.327 . S
C1459 H1482 0.950 . S
C1460 C1459 1.349 . S
C1460 C1472 1.349 . S
C1461 C1459 1.327 . S
C1461 C1477 1.429 . S
C1461 H1483 0.950 . S
C1462 H1458 0.949 . S
C1462 C1470 1.574 . S
C1462 C1478 1.368 . S
H1463 C1471 0.950 . S
H1464 C1469 0.950 . S
H1465 C1470 0.949 . S
H1466 C1472 0.950 . S
H1467 C1473 0.950 . S
H1468 C1474 0.949 . S
C1469 H1464 0.950 . S
C1469 C1471 1.327 . S
C1469 C1475 1.429 . S
C1470 C1462 1.574 . S
C1470 H1465 0.949 . S
C1470 C1476 1.368 . S
C1471 C1455 1.349 . S
C1471 H1463 0.950 . S
C1471 C1469 1.327 . S
C1472 C1460 1.349 . S
C1472 H1466 0.950 . S
C1472 C1473 1.327 . S
C1473 H1467 0.950 . S
C1473 C1472 1.327 . S
C1473 C1477 1.429 . S
C1474 C1457 1.574 . S
C1474 H1468 0.949 . S
C1474 C1478 1.368 . S
C1475 C1456 1.429 . S
C1475 C1469 1.429 . S
C1475 C1476 1.523 . S
C1476 C1457 1.368 . S
C1476 C1470 1.368 . S
C1476 C1475 1.523 . S
C1477 C1461 1.429 . S
C1477 C1473 1.429 . S
C1477 C1478 1.523 . S
C1478 C1462 1.368 . S
C1478 C1474 1.368 . S
C1478 C1477 1.523 . S
H1479 C1454 0.950 . S
H1480 C1456 0.950 . S
H1481 C1457 0.949 . S
H1482 C1459 0.950 . S
H1483 C1461 0.950 . S
C1484 C1485 1.349 . S
C1484 C1486 1.327 . S
C1484 H1509 0.950 . S
C1485 C1484 1.349 . S
C1485 C1501 1.349 . S
C1486 C1484 1.327 . S
C1486 C1505 1.429 . S
C1486 H1510 0.950 . S
C1487 C1504 1.574 . S
C1487 C1506 1.368 . S
C1487 H1511 0.949 . S
H1488 C1492 0.949 . S
C1489 C1490 1.349 . S
C1489 C1491 1.327 . S
C1489 H1512 0.950 . S
C1490 C1489 1.349 . S
C1490 C1502 1.349 . S
C1491 C1489 1.327 . S
C1491 C1507 1.429 . S
C1491 H1513 0.950 . S
C1492 H1488 0.949 . S
C1492 C1500 1.574 . S
C1492 C1508 1.368 . S
H1493 C1501 0.950 . S
H1494 C1499 0.950 . S
H1495 C1500 0.949 . S
H1496 C1502 0.950 . S
H1497 C1503 0.950 . S
H1498 C1504 0.949 . S
C1499 H1494 0.950 . S
C1499 C1501 1.327 . S
C1499 C1505 1.429 . S
C1500 C1492 1.574 . S
C1500 H1495 0.949 . S
C1500 C1506 1.368 . S
C1501 C1485 1.349 . S
C1501 H1493 0.950 . S
C1501 C1499 1.327 . S
C1502 C1490 1.349 . S
C1502 H1496 0.950 . S
C1502 C1503 1.327 . S
C1503 H1497 0.950 . S
C1503 C1502 1.327 . S
C1503 C1507 1.429 . S
C1504 C1487 1.574 . S
C1504 H1498 0.949 . S
C1504 C1508 1.368 . S
C1505 C1486 1.429 . S
C1505 C1499 1.429 . S
C1505 C1506 1.523 . S
C1506 C1487 1.368 . S
C1506 C1500 1.368 . S
C1506 C1505 1.523 . S
C1507 C1491 1.429 . S
C1507 C1503 1.429 . S
C1507 C1508 1.523 . S
C1508 C1492 1.368 . S
C1508 C1504 1.368 . S
C1508 C1507 1.523 . S
H1509 C1484 0.950 . S
H1510 C1486 0.950 . S
H1511 C1487 0.949 . S
H1512 C1489 0.950 . S
H1513 C1491 0.950 . S
C1514 C1515 1.349 . S
C1514 C1516 1.327 . S
C1514 H1539 0.950 . S
C1515 C1514 1.349 . S
C1515 C1531 1.349 . S
C1516 C1514 1.327 . S
C1516 C1535 1.429 . S
C1516 H1540 0.950 . S
C1517 C1534 1.574 . S
C1517 C1536 1.368 . S
C1517 H1541 0.949 . S
H1518 C1522 0.949 . S
C1519 C1520 1.349 . S
C1519 C1521 1.327 . S
C1519 H1542 0.950 . S
C1520 C1519 1.349 . S
C1520 C1532 1.349 . S
C1521 C1519 1.327 . S
C1521 C1537 1.429 . S
C1521 H1543 0.950 . S
C1522 H1518 0.949 . S
C1522 C1530 1.574 . S
C1522 C1538 1.368 . S
H1523 C1531 0.950 . S
H1524 C1529 0.950 . S
H1525 C1530 0.949 . S
H1526 C1532 0.950 . S
H1527 C1533 0.950 . S
H1528 C1534 0.949 . S
C1529 H1524 0.950 . S
C1529 C1531 1.327 . S
C1529 C1535 1.429 . S
C1530 C1522 1.574 . S
C1530 H1525 0.949 . S
C1530 C1536 1.368 . S
C1531 C1515 1.349 . S
C1531 H1523 0.950 . S
C1531 C1529 1.327 . S
C1532 C1520 1.349 . S
C1532 H1526 0.950 . S
C1532 C1533 1.327 . S
C1533 H1527 0.950 . S
C1533 C1532 1.327 . S
C1533 C1537 1.429 . S
C1534 C1517 1.574 . S
C1534 H1528 0.949 . S
C1534 C1538 1.368 . S
C1535 C1516 1.429 . S
C1535 C1529 1.429 . S
C1535 C1536 1.523 . S
C1536 C1517 1.368 . S
C1536 C1530 1.368 . S
C1536 C1535 1.523 . S
C1537 C1521 1.429 . S
C1537 C1533 1.429 . S
C1537 C1538 1.523 . S
C1538 C1522 1.368 . S
C1538 C1534 1.368 . S
C1538 C1537 1.523 . S
H1539 C1514 0.950 . S
H1540 C1516 0.950 . S
H1541 C1517 0.949 . S
H1542 C1519 0.950 . S
H1543 C1521 0.950 . S
C1544 C1545 1.349 . S
C1544 C1546 1.327 . S
C1544 H1569 0.950 . S
C1545 C1544 1.349 . S
C1545 C1561 1.349 . S
C1546 C1544 1.327 . S
C1546 C1565 1.429 . S
C1546 H1570 0.950 . S
C1547 C1564 1.574 . S
C1547 C1566 1.368 . S
C1547 H1571 0.949 . S
H1548 C1552 0.949 . S
C1549 C1550 1.349 . S
C1549 C1551 1.327 . S
C1549 H1572 0.950 . S
C1550 C1549 1.349 . S
C1550 C1562 1.349 . S
C1551 C1549 1.327 . S
C1551 C1567 1.429 . S
C1551 H1573 0.950 . S
C1552 H1548 0.949 . S
C1552 C1560 1.574 . S
C1552 C1568 1.368 . S
H1553 C1561 0.950 . S
H1554 C1559 0.950 . S
H1555 C1560 0.949 . S
H1556 C1562 0.950 . S
H1557 C1563 0.950 . S
H1558 C1564 0.949 . S
C1559 H1554 0.950 . S
C1559 C1561 1.327 . S
C1559 C1565 1.429 . S
C1560 C1552 1.574 . S
C1560 H1555 0.949 . S
C1560 C1566 1.368 . S
C1561 C1545 1.349 . S
C1561 H1553 0.950 . S
C1561 C1559 1.327 . S
C1562 C1550 1.349 . S
C1562 H1556 0.950 . S
C1562 C1563 1.327 . S
C1563 H1557 0.950 . S
C1563 C1562 1.327 . S
C1563 C1567 1.429 . S
C1564 C1547 1.574 . S
C1564 H1558 0.949 . S
C1564 C1568 1.368 . S
C1565 C1546 1.429 . S
C1565 C1559 1.429 . S
C1565 C1566 1.523 . S
C1566 C1547 1.368 . S
C1566 C1560 1.368 . S
C1566 C1565 1.523 . S
C1567 C1551 1.429 . S
C1567 C1563 1.429 . S
C1567 C1568 1.523 . S
C1568 C1552 1.368 . S
C1568 C1564 1.368 . S
C1568 C1567 1.523 . S
H1569 C1544 0.950 . S
H1570 C1546 0.950 . S
H1571 C1547 0.949 . S
H1572 C1549 0.950 . S
H1573 C1551 0.950 . S
C1574 C1575 1.349 . S
C1574 C1576 1.327 . S
C1574 H1599 0.950 . S
C1575 C1574 1.349 . S
C1575 C1591 1.349 . S
C1576 C1574 1.327 . S
C1576 C1595 1.429 . S
C1576 H1600 0.950 . S
C1577 C1594 1.574 . S
C1577 C1596 1.368 . S
C1577 H1601 0.949 . S
H1578 C1582 0.949 . S
C1579 C1580 1.349 . S
C1579 C1581 1.327 . S
C1579 H1602 0.950 . S
C1580 C1579 1.349 . S
C1580 C1592 1.349 . S
C1581 C1579 1.327 . S
C1581 C1597 1.429 . S
C1581 H1603 0.950 . S
C1582 H1578 0.949 . S
C1582 C1590 1.574 . S
C1582 C1598 1.368 . S
H1583 C1591 0.950 . S
H1584 C1589 0.950 . S
H1585 C1590 0.949 . S
H1586 C1592 0.950 . S
H1587 C1593 0.950 . S
H1588 C1594 0.949 . S
C1589 H1584 0.950 . S
C1589 C1591 1.327 . S
C1589 C1595 1.429 . S
C1590 C1582 1.574 . S
C1590 H1585 0.949 . S
C1590 C1596 1.368 . S
C1591 C1575 1.349 . S
C1591 H1583 0.950 . S
C1591 C1589 1.327 . S
C1592 C1580 1.349 . S
C1592 H1586 0.950 . S
C1592 C1593 1.327 . S
C1593 H1587 0.950 . S
C1593 C1592 1.327 . S
C1593 C1597 1.429 . S
C1594 C1577 1.574 . S
C1594 H1588 0.949 . S
C1594 C1598 1.368 . S
C1595 C1576 1.429 . S
C1595 C1589 1.429 . S
C1595 C1596 1.523 . S
C1596 C1577 1.368 . S
C1596 C1590 1.368 . S
C1596 C1595 1.523 . S
C1597 C1581 1.429 . S
C1597 C1593 1.429 . S
C1597 C1598 1.523 . S
C1598 C1582 1.368 . S
C1598 C1594 1.368 . S
C1598 C1597 1.523 . S
H1599 C1574 0.950 . S
H1600 C1576 0.950 . S
H1601 C1577 0.949 . S
H1602 C1579 0.950 . S
H1603 C1581 0.950 . S
C1604 C1605 1.349 . S
C1604 C1606 1.327 . S
C1604 H1629 0.950 . S
C1605 C1604 1.349 . S
C1605 C1621 1.349 . S
C1606 C1604 1.327 . S
C1606 C1625 1.429 . S
C1606 H1630 0.950 . S
C1607 C1624 1.574 . S
C1607 C1626 1.368 . S
C1607 H1631 0.949 . S
H1608 C1612 0.949 . S
C1609 C1610 1.349 . S
C1609 C1611 1.327 . S
C1609 H1632 0.950 . S
C1610 C1609 1.349 . S
C1610 C1622 1.349 . S
C1611 C1609 1.327 . S
C1611 C1627 1.429 . S
C1611 H1633 0.950 . S
C1612 H1608 0.949 . S
C1612 C1620 1.574 . S
C1612 C1628 1.368 . S
H1613 C1621 0.950 . S
H1614 C1619 0.950 . S
H1615 C1620 0.949 . S
H1616 C1622 0.950 . S
H1617 C1623 0.950 . S
H1618 C1624 0.949 . S
C1619 H1614 0.950 . S
C1619 C1621 1.327 . S
C1619 C1625 1.429 . S
C1620 C1612 1.574 . S
C1620 H1615 0.949 . S
C1620 C1626 1.368 . S
C1621 C1605 1.349 . S
C1621 H1613 0.950 . S
C1621 C1619 1.327 . S
C1622 C1610 1.349 . S
C1622 H1616 0.950 . S
C1622 C1623 1.327 . S
C1623 H1617 0.950 . S
C1623 C1622 1.327 . S
C1623 C1627 1.429 . S
C1624 C1607 1.574 . S
C1624 H1618 0.949 . S
C1624 C1628 1.368 . S
C1625 C1606 1.429 . S
C1625 C1619 1.429 . S
C1625 C1626 1.523 . S
C1626 C1607 1.368 . S
C1626 C1620 1.368 . S
C1626 C1625 1.523 . S
C1627 C1611 1.429 . S
C1627 C1623 1.429 . S
C1627 C1628 1.523 . S
C1628 C1612 1.368 . S
C1628 C1624 1.368 . S
C1628 C1627 1.523 . S
H1629 C1604 0.950 . S
H1630 C1606 0.950 . S
H1631 C1607 0.949 . S
H1632 C1609 0.950 . S
H1633 C1611 0.950 . S
C1634 C1635 1.349 . S
C1634 C1636 1.327 . S
C1634 H1659 0.950 . S
C1635 C1634 1.349 . S
C1635 C1651 1.349 . S
C1636 C1634 1.327 . S
C1636 C1655 1.429 . S
C1636 H1660 0.950 . S
C1637 C1654 1.574 . S
C1637 C1656 1.368 . S
C1637 H1661 0.949 . S
H1638 C1642 0.949 . S
C1639 C1640 1.349 . S
C1639 C1641 1.327 . S
C1639 H1662 0.950 . S
C1640 C1639 1.349 . S
C1640 C1652 1.349 . S
C1641 C1639 1.327 . S
C1641 C1657 1.429 . S
C1641 H1663 0.950 . S
C1642 H1638 0.949 . S
C1642 C1650 1.574 . S
C1642 C1658 1.368 . S
H1643 C1651 0.950 . S
H1644 C1649 0.950 . S
H1645 C1650 0.949 . S
H1646 C1652 0.950 . S
H1647 C1653 0.950 . S
H1648 C1654 0.949 . S
C1649 H1644 0.950 . S
C1649 C1651 1.327 . S
C1649 C1655 1.429 . S
C1650 C1642 1.574 . S
C1650 H1645 0.949 . S
C1650 C1656 1.368 . S
C1651 C1635 1.349 . S
C1651 H1643 0.950 . S
C1651 C1649 1.327 . S
C1652 C1640 1.349 . S
C1652 H1646 0.950 . S
C1652 C1653 1.327 . S
C1653 H1647 0.950 . S
C1653 C1652 1.327 . S
C1653 C1657 1.429 . S
C1654 C1637 1.574 . S
C1654 H1648 0.949 . S
C1654 C1658 1.368 . S
C1655 C1636 1.429 . S
C1655 C1649 1.429 . S
C1655 C1656 1.523 . S
C1656 C1637 1.368 . S
C1656 C1650 1.368 . S
C1656 C1655 1.523 . S
C1657 C1641 1.429 . S
C1657 C1653 1.429 . S
C1657 C1658 1.523 . S
C1658 C1642 1.368 . S
C1658 C1654 1.368 . S
C1658 C1657 1.523 . S
H1659 C1634 0.950 . S
H1660 C1636 0.950 . S
H1661 C1637 0.949 . S
H1662 C1639 0.950 . S
H1663 C1641 0.950 . S
C1664 C1665 1.349 . S
C1664 C1666 1.327 . S
C1664 H1689 0.950 . S
C1665 C1664 1.349 . S
C1665 C1681 1.349 . S
C1666 C1664 1.327 . S
C1666 C1685 1.429 . S
C1666 H1690 0.950 . S
C1667 C1684 1.574 . S
C1667 C1686 1.368 . S
C1667 H1691 0.949 . S
H1668 C1672 0.949 . S
C1669 C1670 1.349 . S
C1669 C1671 1.327 . S
C1669 H1692 0.950 . S
C1670 C1669 1.349 . S
C1670 C1682 1.349 . S
C1671 C1669 1.327 . S
C1671 C1687 1.429 . S
C1671 H1693 0.950 . S
C1672 H1668 0.949 . S
C1672 C1680 1.574 . S
C1672 C1688 1.368 . S
H1673 C1681 0.950 . S
H1674 C1679 0.950 . S
H1675 C1680 0.949 . S
H1676 C1682 0.950 . S
H1677 C1683 0.950 . S
H1678 C1684 0.949 . S
C1679 H1674 0.950 . S
C1679 C1681 1.327 . S
C1679 C1685 1.429 . S
C1680 C1672 1.574 . S
C1680 H1675 0.949 . S
C1680 C1686 1.368 . S
C1681 C1665 1.349 . S
C1681 H1673 0.950 . S
C1681 C1679 1.327 . S
C1682 C1670 1.349 . S
C1682 H1676 0.950 . S
C1682 C1683 1.327 . S
C1683 H1677 0.950 . S
C1683 C1682 1.327 . S
C1683 C1687 1.429 . S
C1684 C1667 1.574 . S
C1684 H1678 0.949 . S
C1684 C1688 1.368 . S
C1685 C1666 1.429 . S
C1685 C1679 1.429 . S
C1685 C1686 1.523 . S
C1686 C1667 1.368 . S
C1686 C1680 1.368 . S
C1686 C1685 1.523 . S
C1687 C1671 1.429 . S
C1687 C1683 1.429 . S
C1687 C1688 1.523 . S
C1688 C1672 1.368 . S
C1688 C1684 1.368 . S
C1688 C1687 1.523 . S
H1689 C1664 0.950 . S
H1690 C1666 0.950 . S
H1691 C1667 0.949 . S
H1692 C1669 0.950 . S
H1693 C1671 0.950 . S
C1694 C1695 1.349 . S
C1694 C1696 1.327 . S
C1694 H1719 0.950 . S
C1695 C1694 1.349 . S
C1695 C1711 1.349 . S
C1696 C1694 1.327 . S
C1696 C1715 1.429 . S
C1696 H1720 0.950 . S
C1697 C1714 1.574 . S
C1697 C1716 1.368 . S
C1697 H1721 0.949 . S
H1698 C1702 0.949 . S
C1699 C1700 1.349 . S
C1699 C1701 1.327 . S
C1699 H1722 0.950 . S
C1700 C1699 1.349 . S
C1700 C1712 1.349 . S
C1701 C1699 1.327 . S
C1701 C1717 1.429 . S
C1701 H1723 0.950 . S
C1702 H1698 0.949 . S
C1702 C1710 1.574 . S
C1702 C1718 1.368 . S
H1703 C1711 0.950 . S
H1704 C1709 0.950 . S
H1705 C1710 0.949 . S
H1706 C1712 0.950 . S
H1707 C1713 0.950 . S
H1708 C1714 0.949 . S
C1709 H1704 0.950 . S
C1709 C1711 1.327 . S
C1709 C1715 1.429 . S
C1710 C1702 1.574 . S
C1710 H1705 0.949 . S
C1710 C1716 1.368 . S
C1711 C1695 1.349 . S
C1711 H1703 0.950 . S
C1711 C1709 1.327 . S
C1712 C1700 1.349 . S
C1712 H1706 0.950 . S
C1712 C1713 1.327 . S
C1713 H1707 0.950 . S
C1713 C1712 1.327 . S
C1713 C1717 1.429 . S
C1714 C1697 1.574 . S
C1714 H1708 0.949 . S
C1714 C1718 1.368 . S
C1715 C1696 1.429 . S
C1715 C1709 1.429 . S
C1715 C1716 1.523 . S
C1716 C1697 1.368 . S
C1716 C1710 1.368 . S
C1716 C1715 1.523 . S
C1717 C1701 1.429 . S
C1717 C1713 1.429 . S
C1717 C1718 1.523 . S
C1718 C1702 1.368 . S
C1718 C1714 1.368 . S
C1718 C1717 1.523 . S
H1719 C1694 0.950 . S
H1720 C1696 0.950 . S
H1721 C1697 0.949 . S
H1722 C1699 0.950 . S
H1723 C1701 0.950 . S
C1724 C1725 1.349 . S
C1724 C1726 1.327 . S
C1724 H1749 0.950 . S
C1725 C1724 1.349 . S
C1725 C1741 1.349 . S
C1726 C1724 1.327 . S
C1726 C1745 1.429 . S
C1726 H1750 0.950 . S
C1727 C1744 1.574 . S
C1727 C1746 1.368 . S
C1727 H1751 0.949 . S
H1728 C1732 0.949 . S
C1729 C1730 1.349 . S
C1729 C1731 1.327 . S
C1729 H1752 0.950 . S
C1730 C1729 1.349 . S
C1730 C1742 1.349 . S
C1731 C1729 1.327 . S
C1731 C1747 1.429 . S
C1731 H1753 0.950 . S
C1732 H1728 0.949 . S
C1732 C1740 1.574 . S
C1732 C1748 1.368 . S
H1733 C1741 0.950 . S
H1734 C1739 0.950 . S
H1735 C1740 0.949 . S
H1736 C1742 0.950 . S
H1737 C1743 0.950 . S
H1738 C1744 0.949 . S
C1739 H1734 0.950 . S
C1739 C1741 1.327 . S
C1739 C1745 1.429 . S
C1740 C1732 1.574 . S
C1740 H1735 0.949 . S
C1740 C1746 1.368 . S
C1741 C1725 1.349 . S
C1741 H1733 0.950 . S
C1741 C1739 1.327 . S
C1742 C1730 1.349 . S
C1742 H1736 0.950 . S
C1742 C1743 1.327 . S
C1743 H1737 0.950 . S
C1743 C1742 1.327 . S
C1743 C1747 1.429 . S
C1744 C1727 1.574 . S
C1744 H1738 0.949 . S
C1744 C1748 1.368 . S
C1745 C1726 1.429 . S
C1745 C1739 1.429 . S
C1745 C1746 1.523 . S
C1746 C1727 1.368 . S
C1746 C1740 1.368 . S
C1746 C1745 1.523 . S
C1747 C1731 1.429 . S
C1747 C1743 1.429 . S
C1747 C1748 1.523 . S
C1748 C1732 1.368 . S
C1748 C1744 1.368 . S
C1748 C1747 1.523 . S
H1749 C1724 0.950 . S
H1750 C1726 0.950 . S
H1751 C1727 0.949 . S
H1752 C1729 0.950 . S
H1753 C1731 0.950 . S
C1754 C1755 1.349 . S
C1754 C1756 1.327 . S
C1754 H1779 0.950 . S
C1755 C1754 1.349 . S
C1755 C1771 1.349 . S
C1756 C1754 1.327 . S
C1756 C1775 1.429 . S
C1756 H1780 0.950 . S
C1757 C1774 1.574 . S
C1757 C1776 1.368 . S
C1757 H1781 0.949 . S
H1758 C1762 0.949 . S
C1759 C1760 1.349 . S
C1759 C1761 1.327 . S
C1759 H1782 0.950 . S
C1760 C1759 1.349 . S
C1760 C1772 1.349 . S
C1761 C1759 1.327 . S
C1761 C1777 1.429 . S
C1761 H1783 0.950 . S
C1762 H1758 0.949 . S
C1762 C1770 1.574 . S
C1762 C1778 1.368 . S
H1763 C1771 0.950 . S
H1764 C1769 0.950 . S
H1765 C1770 0.949 . S
H1766 C1772 0.950 . S
H1767 C1773 0.950 . S
H1768 C1774 0.949 . S
C1769 H1764 0.950 . S
C1769 C1771 1.327 . S
C1769 C1775 1.429 . S
C1770 C1762 1.574 . S
C1770 H1765 0.949 . S
C1770 C1776 1.368 . S
C1771 C1755 1.349 . S
C1771 H1763 0.950 . S
C1771 C1769 1.327 . S
C1772 C1760 1.349 . S
C1772 H1766 0.950 . S
C1772 C1773 1.327 . S
C1773 H1767 0.950 . S
C1773 C1772 1.327 . S
C1773 C1777 1.429 . S
C1774 C1757 1.574 . S
C1774 H1768 0.949 . S
C1774 C1778 1.368 . S
C1775 C1756 1.429 . S
C1775 C1769 1.429 . S
C1775 C1776 1.523 . S
C1776 C1757 1.368 . S
C1776 C1770 1.368 . S
C1776 C1775 1.523 . S
C1777 C1761 1.429 . S
C1777 C1773 1.429 . S
C1777 C1778 1.523 . S
C1778 C1762 1.368 . S
C1778 C1774 1.368 . S
C1778 C1777 1.523 . S
H1779 C1754 0.950 . S
H1780 C1756 0.950 . S
H1781 C1757 0.949 . S
H1782 C1759 0.950 . S
H1783 C1761 0.950 . S
C1784 C1785 1.349 . S
C1784 C1786 1.327 . S
C1784 H1809 0.950 . S
C1785 C1784 1.349 . S
C1785 C1801 1.349 . S
C1786 C1784 1.327 . S
C1786 C1805 1.429 . S
C1786 H1810 0.950 . S
C1787 C1804 1.574 . S
C1787 C1806 1.368 . S
C1787 H1811 0.949 . S
H1788 C1792 0.949 . S
C1789 C1790 1.349 . S
C1789 C1791 1.327 . S
C1789 H1812 0.950 . S
C1790 C1789 1.349 . S
C1790 C1802 1.349 . S
C1791 C1789 1.327 . S
C1791 C1807 1.429 . S
C1791 H1813 0.950 . S
C1792 H1788 0.949 . S
C1792 C1800 1.574 . S
C1792 C1808 1.368 . S
H1793 C1801 0.950 . S
H1794 C1799 0.950 . S
H1795 C1800 0.949 . S
H1796 C1802 0.950 . S
H1797 C1803 0.950 . S
H1798 C1804 0.949 . S
C1799 H1794 0.950 . S
C1799 C1801 1.327 . S
C1799 C1805 1.429 . S
C1800 C1792 1.574 . S
C1800 H1795 0.949 . S
C1800 C1806 1.368 . S
C1801 C1785 1.349 . S
C1801 H1793 0.950 . S
C1801 C1799 1.327 . S
C1802 C1790 1.349 . S
C1802 H1796 0.950 . S
C1802 C1803 1.327 . S
C1803 H1797 0.950 . S
C1803 C1802 1.327 . S
C1803 C1807 1.429 . S
C1804 C1787 1.574 . S
C1804 H1798 0.949 . S
C1804 C1808 1.368 . S
C1805 C1786 1.429 . S
C1805 C1799 1.429 . S
C1805 C1806 1.523 . S
C1806 C1787 1.368 . S
C1806 C1800 1.368 . S
C1806 C1805 1.523 . S
C1807 C1791 1.429 . S
C1807 C1803 1.429 . S
C1807 C1808 1.523 . S
C1808 C1792 1.368 . S
C1808 C1804 1.368 . S
C1808 C1807 1.523 . S
H1809 C1784 0.950 . S
H1810 C1786 0.950 . S
H1811 C1787 0.949 . S
H1812 C1789 0.950 . S
H1813 C1791 0.950 . S
C1814 C1815 1.349 . S
C1814 C1816 1.327 . S
C1814 H1839 0.950 . S
C1815 C1814 1.349 . S
C1815 C1831 1.349 . S
C1816 C1814 1.327 . S
C1816 C1835 1.429 . S
C1816 H1840 0.950 . S
C1817 C1834 1.574 . S
C1817 C1836 1.368 . S
C1817 H1841 0.949 . S
H1818 C1822 0.949 . S
C1819 C1820 1.349 . S
C1819 C1821 1.327 . S
C1819 H1842 0.950 . S
C1820 C1819 1.349 . S
C1820 C1832 1.349 . S
C1821 C1819 1.327 . S
C1821 C1837 1.429 . S
C1821 H1843 0.950 . S
C1822 H1818 0.949 . S
C1822 C1830 1.574 . S
C1822 C1838 1.368 . S
H1823 C1831 0.950 . S
H1824 C1829 0.950 . S
H1825 C1830 0.949 . S
H1826 C1832 0.950 . S
H1827 C1833 0.950 . S
H1828 C1834 0.949 . S
C1829 H1824 0.950 . S
C1829 C1831 1.327 . S
C1829 C1835 1.429 . S
C1830 C1822 1.574 . S
C1830 H1825 0.949 . S
C1830 C1836 1.368 . S
C1831 C1815 1.349 . S
C1831 H1823 0.950 . S
C1831 C1829 1.327 . S
C1832 C1820 1.349 . S
C1832 H1826 0.950 . S
C1832 C1833 1.327 . S
C1833 H1827 0.950 . S
C1833 C1832 1.327 . S
C1833 C1837 1.429 . S
C1834 C1817 1.574 . S
C1834 H1828 0.949 . S
C1834 C1838 1.368 . S
C1835 C1816 1.429 . S
C1835 C1829 1.429 . S
C1835 C1836 1.523 . S
C1836 C1817 1.368 . S
C1836 C1830 1.368 . S
C1836 C1835 1.523 . S
C1837 C1821 1.429 . S
C1837 C1833 1.429 . S
C1837 C1838 1.523 . S
C1838 C1822 1.368 . S
C1838 C1834 1.368 . S
C1838 C1837 1.523 . S
H1839 C1814 0.950 . S
H1840 C1816 0.950 . S
H1841 C1817 0.949 . S
H1842 C1819 0.950 . S
H1843 C1821 0.950 . S
C1844 C1845 1.349 . S
C1844 C1846 1.327 . S
C1844 H1869 0.950 . S
C1845 C1844 1.349 . S
C1845 C1861 1.349 . S
C1846 C1844 1.327 . S
C1846 C1865 1.429 . S
C1846 H1870 0.950 . S
C1847 C1864 1.574 . S
C1847 C1866 1.368 . S
C1847 H1871 0.949 . S
H1848 C1852 0.949 . S
C1849 C1850 1.349 . S
C1849 C1851 1.327 . S
C1849 H1872 0.950 . S
C1850 C1849 1.349 . S
C1850 C1862 1.349 . S
C1851 C1849 1.327 . S
C1851 C1867 1.429 . S
C1851 H1873 0.950 . S
C1852 H1848 0.949 . S
C1852 C1860 1.574 . S
C1852 C1868 1.368 . S
H1853 C1861 0.950 . S
H1854 C1859 0.950 . S
H1855 C1860 0.949 . S
H1856 C1862 0.950 . S
H1857 C1863 0.950 . S
H1858 C1864 0.949 . S
C1859 H1854 0.950 . S
C1859 C1861 1.327 . S
C1859 C1865 1.429 . S
C1860 C1852 1.574 . S
C1860 H1855 0.949 . S
C1860 C1866 1.368 . S
C1861 C1845 1.349 . S
C1861 H1853 0.950 . S
C1861 C1859 1.327 . S
C1862 C1850 1.349 . S
C1862 H1856 0.950 . S
C1862 C1863 1.327 . S
C1863 H1857 0.950 . S
C1863 C1862 1.327 . S
C1863 C1867 1.429 . S
C1864 C1847 1.574 . S
C1864 H1858 0.949 . S
C1864 C1868 1.368 . S
C1865 C1846 1.429 . S
C1865 C1859 1.429 . S
C1865 C1866 1.523 . S
C1866 C1847 1.368 . S
C1866 C1860 1.368 . S
C1866 C1865 1.523 . S
C1867 C1851 1.429 . S
C1867 C1863 1.429 . S
C1867 C1868 1.523 . S
C1868 C1852 1.368 . S
C1868 C1864 1.368 . S
C1868 C1867 1.523 . S
H1869 C1844 0.950 . S
H1870 C1846 0.950 . S
H1871 C1847 0.949 . S
H1872 C1849 0.950 . S
H1873 C1851 0.950 . S
C1874 C1875 1.349 . S
C1874 C1876 1.327 . S
C1874 H1899 0.950 . S
C1875 C1874 1.349 . S
C1875 C1891 1.349 . S
C1876 C1874 1.327 . S
C1876 C1895 1.429 . S
C1876 H1900 0.950 . S
C1877 C1894 1.574 . S
C1877 C1896 1.368 . S
C1877 H1901 0.949 . S
H1878 C1882 0.949 . S
C1879 C1880 1.349 . S
C1879 C1881 1.327 . S
C1879 H1902 0.950 . S
C1880 C1879 1.349 . S
C1880 C1892 1.349 . S
C1881 C1879 1.327 . S
C1881 C1897 1.429 . S
C1881 H1903 0.950 . S
C1882 H1878 0.949 . S
C1882 C1890 1.574 . S
C1882 C1898 1.368 . S
H1883 C1891 0.950 . S
H1884 C1889 0.950 . S
H1885 C1890 0.949 . S
H1886 C1892 0.950 . S
H1887 C1893 0.950 . S
H1888 C1894 0.949 . S
C1889 H1884 0.950 . S
C1889 C1891 1.327 . S
C1889 C1895 1.429 . S
C1890 C1882 1.574 . S
C1890 H1885 0.949 . S
C1890 C1896 1.368 . S
C1891 C1875 1.349 . S
C1891 H1883 0.950 . S
C1891 C1889 1.327 . S
C1892 C1880 1.349 . S
C1892 H1886 0.950 . S
C1892 C1893 1.327 . S
C1893 H1887 0.950 . S
C1893 C1892 1.327 . S
C1893 C1897 1.429 . S
C1894 C1877 1.574 . S
C1894 H1888 0.949 . S
C1894 C1898 1.368 . S
C1895 C1876 1.429 . S
C1895 C1889 1.429 . S
C1895 C1896 1.523 . S
C1896 C1877 1.368 . S
C1896 C1890 1.368 . S
C1896 C1895 1.523 . S
C1897 C1881 1.429 . S
C1897 C1893 1.429 . S
C1897 C1898 1.523 . S
C1898 C1882 1.368 . S
C1898 C1894 1.368 . S
C1898 C1897 1.523 . S
H1899 C1874 0.950 . S
H1900 C1876 0.950 . S
H1901 C1877 0.949 . S
H1902 C1879 0.950 . S
H1903 C1881 0.950 . S
C1904 C1905 1.349 . S
C1904 C1906 1.327 . S
C1904 H1929 0.950 . S
C1905 C1904 1.349 . S
C1905 C1921 1.349 . S
C1906 C1904 1.327 . S
C1906 C1925 1.429 . S
C1906 H1930 0.950 . S
C1907 C1924 1.574 . S
C1907 C1926 1.368 . S
C1907 H1931 0.949 . S
H1908 C1912 0.949 . S
C1909 C1910 1.349 . S
C1909 C1911 1.327 . S
C1909 H1932 0.950 . S
C1910 C1909 1.349 . S
C1910 C1922 1.349 . S
C1911 C1909 1.327 . S
C1911 C1927 1.429 . S
C1911 H1933 0.950 . S
C1912 H1908 0.949 . S
C1912 C1920 1.574 . S
C1912 C1928 1.368 . S
H1913 C1921 0.950 . S
H1914 C1919 0.950 . S
H1915 C1920 0.949 . S
H1916 C1922 0.950 . S
H1917 C1923 0.950 . S
H1918 C1924 0.949 . S
C1919 H1914 0.950 . S
C1919 C1921 1.327 . S
C1919 C1925 1.429 . S
C1920 C1912 1.574 . S
C1920 H1915 0.949 . S
C1920 C1926 1.368 1_655 S
C1921 C1905 1.349 . S
C1921 H1913 0.950 . S
C1921 C1919 1.327 . S
C1922 C1910 1.349 . S
C1922 H1916 0.950 . S
C1922 C1923 1.327 . S
C1923 H1917 0.950 . S
C1923 C1922 1.327 . S
C1923 C1927 1.429 . S
C1924 C1907 1.574 . S
C1924 H1918 0.949 . S
C1924 C1928 1.368 1_455 S
C1925 C1906 1.429 . S
C1925 C1919 1.429 . S
C1925 C1926 1.523 . S
C1926 C1907 1.368 . S
C1926 C1920 1.368 1_455 S
C1926 C1925 1.523 . S
C1927 C1911 1.429 . S
C1927 C1923 1.429 . S
C1927 C1928 1.523 . S
C1928 C1912 1.368 . S
C1928 C1924 1.368 1_655 S
C1928 C1927 1.523 . S
H1929 C1904 0.950 . S
H1930 C1906 0.950 . S
H1931 C1907 0.949 . S
H1932 C1909 0.950 . S
H1933 C1911 0.950 . S
C1934 C1935 1.349 . S
C1934 C1936 1.327 . S
C1934 H1959 0.950 . S
C1935 C1934 1.349 . S
C1935 C1951 1.349 . S
C1936 C1934 1.327 . S
C1936 C1955 1.429 . S
C1936 H1960 0.950 . S
C1937 C1954 1.574 . S
C1937 C1956 1.368 . S
C1937 H1961 0.949 . S
H1938 C1942 0.949 . S
C1939 C1940 1.349 . S
C1939 C1941 1.327 . S
C1939 H1962 0.950 . S
C1940 C1939 1.349 . S
C1940 C1952 1.349 . S
C1941 C1939 1.327 . S
C1941 C1957 1.429 . S
C1941 H1963 0.950 . S
C1942 H1938 0.949 . S
C1942 C1950 1.574 . S
C1942 C1958 1.368 . S
H1943 C1951 0.950 . S
H1944 C1949 0.950 . S
H1945 C1950 0.949 . S
H1946 C1952 0.950 . S
H1947 C1953 0.950 . S
H1948 C1954 0.949 . S
C1949 H1944 0.950 . S
C1949 C1951 1.327 . S
C1949 C1955 1.429 . S
C1950 C1942 1.574 . S
C1950 H1945 0.949 . S
C1950 C1956 1.368 1_545 S
C1951 C1935 1.349 . S
C1951 H1943 0.950 . S
C1951 C1949 1.327 . S
C1952 C1940 1.349 . S
C1952 H1946 0.950 . S
C1952 C1953 1.327 . S
C1953 H1947 0.950 . S
C1953 C1952 1.327 . S
C1953 C1957 1.429 . S
C1954 C1937 1.574 . S
C1954 H1948 0.949 . S
C1954 C1958 1.368 1_565 S
C1955 C1936 1.429 . S
C1955 C1949 1.429 . S
C1955 C1956 1.523 . S
C1956 C1937 1.368 . S
C1956 C1950 1.368 1_565 S
C1956 C1955 1.523 . S
C1957 C1941 1.429 . S
C1957 C1953 1.429 . S
C1957 C1958 1.523 . S
C1958 C1942 1.368 . S
C1958 C1954 1.368 1_545 S
C1958 C1957 1.523 . S
H1959 C1934 0.950 . S
H1960 C1936 0.950 . S
H1961 C1937 0.949 . S
H1962 C1939 0.950 . S
H1963 C1941 0.950 . S
C1964 C1965 1.349 . S
C1964 C1966 1.327 . S
C1964 H1989 0.950 . S
C1965 C1964 1.349 . S
C1965 C1981 1.349 . S
C1966 C1964 1.327 . S
C1966 C1985 1.429 . S
C1966 H1990 0.950 . S
C1967 C1984 1.574 . S
C1967 C1986 1.368 1_655 S
C1967 H1991 0.949 . S
H1968 C1972 0.949 . S
C1969 C1970 1.349 . S
C1969 C1971 1.327 . S
C1969 H1992 0.950 . S
C1970 C1969 1.349 . S
C1970 C1982 1.349 . S
C1971 C1969 1.327 . S
C1971 C1987 1.429 . S
C1971 H1993 0.950 . S
C1972 H1968 0.949 . S
C1972 C1980 1.574 . S
C1972 C1988 1.368 1_455 S
H1973 C1981 0.950 . S
H1974 C1979 0.950 . S
H1975 C1980 0.949 . S
H1976 C1982 0.950 . S
H1977 C1983 0.950 . S
H1978 C1984 0.949 . S
C1979 H1974 0.950 . S
C1979 C1981 1.327 . S
C1979 C1985 1.429 . S
C1980 C1972 1.574 . S
C1980 H1975 0.949 . S
C1980 C1986 1.368 . S
C1981 C1965 1.349 . S
C1981 H1973 0.950 . S
C1981 C1979 1.327 . S
C1982 C1970 1.349 . S
C1982 H1976 0.950 . S
C1982 C1983 1.327 . S
C1983 H1977 0.950 . S
C1983 C1982 1.327 . S
C1983 C1987 1.429 . S
C1984 C1967 1.574 . S
C1984 H1978 0.949 . S
C1984 C1988 1.368 . S
C1985 C1966 1.429 . S
C1985 C1979 1.429 . S
C1985 C1986 1.523 . S
C1986 C1967 1.368 1_455 S
C1986 C1980 1.368 . S
C1986 C1985 1.523 . S
C1987 C1971 1.429 . S
C1987 C1983 1.429 . S
C1987 C1988 1.523 . S
C1988 C1972 1.368 1_655 S
C1988 C1984 1.368 . S
C1988 C1987 1.523 . S
H1989 C1964 0.950 . S
H1990 C1966 0.950 . S
H1991 C1967 0.949 . S
H1992 C1969 0.950 . S
H1993 C1971 0.950 . S
C1994 C1995 1.349 . S
C1994 C1996 1.327 . S
C1994 H2019 0.950 . S
C1995 C1994 1.349 . S
C1995 C2011 1.349 . S
C1996 C1994 1.327 . S
C1996 C2015 1.429 . S
C1996 H2020 0.950 . S
C1997 C2014 1.574 . S
C1997 C2016 1.368 1_545 S
C1997 H2021 0.949 . S
H1998 C2002 0.949 . S
C1999 C2000 1.349 . S
C1999 C2001 1.327 . S
C1999 H2022 0.950 . S
C2000 C1999 1.349 . S
C2000 C2012 1.349 . S
C2001 C1999 1.327 . S
C2001 C2017 1.429 . S
C2001 H2023 0.950 . S
C2002 H1998 0.949 . S
C2002 C2010 1.574 . S
C2002 C2018 1.368 1_565 S
H2003 C2011 0.950 . S
H2004 C2009 0.950 . S
H2005 C2010 0.949 . S
H2006 C2012 0.950 . S
H2007 C2013 0.950 . S
H2008 C2014 0.949 . S
C2009 H2004 0.950 . S
C2009 C2011 1.327 . S
C2009 C2015 1.429 . S
C2010 C2002 1.574 . S
C2010 H2005 0.949 . S
C2010 C2016 1.368 . S
C2011 C1995 1.349 . S
C2011 H2003 0.950 . S
C2011 C2009 1.327 . S
C2012 C2000 1.349 . S
C2012 H2006 0.950 . S
C2012 C2013 1.327 . S
C2013 H2007 0.950 . S
C2013 C2012 1.327 . S
C2013 C2017 1.429 . S
C2014 C1997 1.574 . S
C2014 H2008 0.949 . S
C2014 C2018 1.368 . S
C2015 C1996 1.429 . S
C2015 C2009 1.429 . S
C2015 C2016 1.523 . S
C2016 C1997 1.368 1_565 S
C2016 C2010 1.368 . S
C2016 C2015 1.523 . S
C2017 C2001 1.429 . S
C2017 C2013 1.429 . S
C2017 C2018 1.523 . S
C2018 C2002 1.368 1_545 S
C2018 C2014 1.368 . S
C2018 C2017 1.523 . S
H2019 C1994 0.950 . S
H2020 C1996 0.950 . S
H2021 C1997 0.949 . S
H2022 C1999 0.950 . S
H2023 C2001 0.950 . S
C2024 C2025 1.349 . S
C2024 C2026 1.327 . S
C2024 H2049 0.950 . S
C2025 C2024 1.349 . S
C2025 C2041 1.349 . S
C2026 C2024 1.327 . S
C2026 C2045 1.429 . S
C2026 H2050 0.950 . S
C2027 C2044 1.574 1_455 S
C2027 C2046 1.368 . S
C2027 H2051 0.949 . S
H2028 C2032 0.949 . S
C2029 C2030 1.349 . S
C2029 C2031 1.327 . S
C2029 H2052 0.950 . S
C2030 C2029 1.349 . S
C2030 C2042 1.349 . S
C2031 C2029 1.327 . S
C2031 C2047 1.429 . S
C2031 H2053 0.950 . S
C2032 H2028 0.949 . S
C2032 C2040 1.574 1_655 S
C2032 C2048 1.368 . S
H2033 C2041 0.950 . S
H2034 C2039 0.950 . S
H2035 C2040 0.949 . S
H2036 C2042 0.950 . S
H2037 C2043 0.950 . S
H2038 C2044 0.949 . S
C2039 H2034 0.950 . S
C2039 C2041 1.327 . S
C2039 C2045 1.429 . S
C2040 C2032 1.574 1_455 S
C2040 H2035 0.949 . S
C2040 C2046 1.368 . S
C2041 C2025 1.349 . S
C2041 H2033 0.950 . S
C2041 C2039 1.327 . S
C2042 C2030 1.349 . S
C2042 H2036 0.950 . S
C2042 C2043 1.327 . S
C2043 H2037 0.950 . S
C2043 C2042 1.327 . S
C2043 C2047 1.429 . S
C2044 C2027 1.574 1_655 S
C2044 H2038 0.949 . S
C2044 C2048 1.368 . S
C2045 C2026 1.429 . S
C2045 C2039 1.429 . S
C2045 C2046 1.523 . S
C2046 C2027 1.368 . S
C2046 C2040 1.368 . S
C2046 C2045 1.523 . S
C2047 C2031 1.429 . S
C2047 C2043 1.429 . S
C2047 C2048 1.523 . S
C2048 C2032 1.368 . S
C2048 C2044 1.368 . S
C2048 C2047 1.523 . S
H2049 C2024 0.950 . S
H2050 C2026 0.950 . S
H2051 C2027 0.949 . S
H2052 C2029 0.950 . S
H2053 C2031 0.950 . S
C2054 C2055 1.349 . S
C2054 C2056 1.327 . S
C2054 H2079 0.950 . S
C2055 C2054 1.349 . S
C2055 C2071 1.349 . S
C2056 C2054 1.327 . S
C2056 C2075 1.429 . S
C2056 H2080 0.950 . S
C2057 C2074 1.574 1_545 S
C2057 C2076 1.368 . S
C2057 H2081 0.949 . S
H2058 C2062 0.949 . S
C2059 C2060 1.349 . S
C2059 C2061 1.327 . S
C2059 H2082 0.950 . S
C2060 C2059 1.349 . S
C2060 C2072 1.349 . S
C2061 C2059 1.327 . S
C2061 C2077 1.429 . S
C2061 H2083 0.950 . S
C2062 H2058 0.949 . S
C2062 C2070 1.574 1_565 S
C2062 C2078 1.368 . S
H2063 C2071 0.950 . S
H2064 C2069 0.950 . S
H2065 C2070 0.949 . S
H2066 C2072 0.950 . S
H2067 C2073 0.950 . S
H2068 C2074 0.949 . S
C2069 H2064 0.950 . S
C2069 C2071 1.327 . S
C2069 C2075 1.429 . S
C2070 C2062 1.574 1_545 S
C2070 H2065 0.949 . S
C2070 C2076 1.368 . S
C2071 C2055 1.349 . S
C2071 H2063 0.950 . S
C2071 C2069 1.327 . S
C2072 C2060 1.349 . S
C2072 H2066 0.950 . S
C2072 C2073 1.327 . S
C2073 H2067 0.950 . S
C2073 C2072 1.327 . S
C2073 C2077 1.429 . S
C2074 C2057 1.574 1_565 S
C2074 H2068 0.949 . S
C2074 C2078 1.368 . S
C2075 C2056 1.429 . S
C2075 C2069 1.429 . S
C2075 C2076 1.523 . S
C2076 C2057 1.368 . S
C2076 C2070 1.368 . S
C2076 C2075 1.523 . S
C2077 C2061 1.429 . S
C2077 C2073 1.429 . S
C2077 C2078 1.523 . S
C2078 C2062 1.368 . S
C2078 C2074 1.368 . S
C2078 C2077 1.523 . S
H2079 C2054 0.950 . S
H2080 C2056 0.950 . S
H2081 C2057 0.949 . S
H2082 C2059 0.950 . S
H2083 C2061 0.950 . S
C2084 C2085 1.349 . S
C2084 C2086 1.327 . S
C2084 H2109 0.950 . S
C2085 C2084 1.349 . S
C2085 C2101 1.349 . S
C2086 C2084 1.327 . S
C2086 C2105 1.429 . S
C2086 H2110 0.950 . S
C2087 C2104 1.574 1_455 S
C2087 C2106 1.368 . S
C2087 H2111 0.949 . S
H2088 C2092 0.949 . S
C2089 C2090 1.349 . S
C2089 C2091 1.327 . S
C2089 H2112 0.950 . S
C2090 C2089 1.349 . S
C2090 C2102 1.349 . S
C2091 C2089 1.327 . S
C2091 C2107 1.429 . S
C2091 H2113 0.950 . S
C2092 H2088 0.949 . S
C2092 C2100 1.574 1_655 S
C2092 C2108 1.368 . S
H2093 C2101 0.950 . S
H2094 C2099 0.950 . S
H2095 C2100 0.949 . S
H2096 C2102 0.950 . S
H2097 C2103 0.950 . S
H2098 C2104 0.949 . S
C2099 H2094 0.950 . S
C2099 C2101 1.327 . S
C2099 C2105 1.429 . S
C2100 C2092 1.574 1_455 S
C2100 H2095 0.949 . S
C2100 C2106 1.368 . S
C2101 C2085 1.349 . S
C2101 H2093 0.950 . S
C2101 C2099 1.327 . S
C2102 C2090 1.349 . S
C2102 H2096 0.950 . S
C2102 C2103 1.327 . S
C2103 H2097 0.950 . S
C2103 C2102 1.327 . S
C2103 C2107 1.429 . S
C2104 C2087 1.574 1_655 S
C2104 H2098 0.949 . S
C2104 C2108 1.368 . S
C2105 C2086 1.429 . S
C2105 C2099 1.429 . S
C2105 C2106 1.523 . S
C2106 C2087 1.368 . S
C2106 C2100 1.368 . S
C2106 C2105 1.523 . S
C2107 C2091 1.429 . S
C2107 C2103 1.429 . S
C2107 C2108 1.523 . S
C2108 C2092 1.368 . S
C2108 C2104 1.368 . S
C2108 C2107 1.523 . S
H2109 C2084 0.950 . S
H2110 C2086 0.950 . S
H2111 C2087 0.949 . S
H2112 C2089 0.950 . S
H2113 C2091 0.950 . S
C2114 C2115 1.349 . S
C2114 C2116 1.327 . S
C2114 H2139 0.950 . S
C2115 C2114 1.349 . S
C2115 C2131 1.349 . S
C2116 C2114 1.327 . S
C2116 C2135 1.429 . S
C2116 H2140 0.950 . S
C2117 C2134 1.574 1_565 S
C2117 C2136 1.368 . S
C2117 H2141 0.949 . S
H2118 C2122 0.949 . S
C2119 C2120 1.349 . S
C2119 C2121 1.327 . S
C2119 H2142 0.950 . S
C2120 C2119 1.349 . S
C2120 C2132 1.349 . S
C2121 C2119 1.327 . S
C2121 C2137 1.429 . S
C2121 H2143 0.950 . S
C2122 H2118 0.949 . S
C2122 C2130 1.574 1_545 S
C2122 C2138 1.368 . S
H2123 C2131 0.950 . S
H2124 C2129 0.950 . S
H2125 C2130 0.949 . S
H2126 C2132 0.950 . S
H2127 C2133 0.950 . S
H2128 C2134 0.949 . S
C2129 H2124 0.950 . S
C2129 C2131 1.327 . S
C2129 C2135 1.429 . S
C2130 C2122 1.574 1_565 S
C2130 H2125 0.949 . S
C2130 C2136 1.368 . S
C2131 C2115 1.349 . S
C2131 H2123 0.950 . S
C2131 C2129 1.327 . S
C2132 C2120 1.349 . S
C2132 H2126 0.950 . S
C2132 C2133 1.327 . S
C2133 H2127 0.950 . S
C2133 C2132 1.327 . S
C2133 C2137 1.429 . S
C2134 C2117 1.574 1_545 S
C2134 H2128 0.949 . S
C2134 C2138 1.368 . S
C2135 C2116 1.429 . S
C2135 C2129 1.429 . S
C2135 C2136 1.523 . S
C2136 C2117 1.368 . S
C2136 C2130 1.368 . S
C2136 C2135 1.523 . S
C2137 C2121 1.429 . S
C2137 C2133 1.429 . S
C2137 C2138 1.523 . S
C2138 C2122 1.368 . S
C2138 C2134 1.368 . S
C2138 C2137 1.523 . S
H2139 C2114 0.950 . S
H2140 C2116 0.950 . S
H2141 C2117 0.949 . S
H2142 C2119 0.950 . S
H2143 C2121 0.950 . S
C465 C10 1.481 . S
C470 C300 1.481 . S
C495 C39 1.481 . S
C500 C329 1.481 . S
C525 C242 1.481 . S
C530 C68 1.481 . S
C555 C271 1.481 . S
C560 C97 1.481 . S
C585 C126 1.481 . S
C590 C416 1.481 . S
C615 C445 1.481 . S
C620 C155 1.481 . S
C645 C358 1.481 . S
C650 C184 1.481 . S
C675 C213 1.481 . S
C680 C387 1.481 . S
C705 C100 1.940 . S
C710 C3 2.054 . S
C735 C13 1.940 . S
C740 C32 2.054 . S
C765 C61 2.054 . S
C770 C42 1.940 . S
C795 C90 2.054 . S
C800 C71 1.940 . S
C825 C158 1.940 . S
C830 C119 2.054 . S
C855 C148 2.054 . S
C860 C187 1.940 . S
C885 C216 1.940 . S
C890 C177 2.054 . S
C915 C129 1.940 . S
C920 C206 2.054 . S
C945 C253 1.618 . S
C950 C327 1.602 . S
C975 C240 1.602 . S
C980 C282 1.618 . S
C1005 C311 1.618 . S
C1010 C269 1.602 . S
C1035 C298 1.602 . S
C1040 C340 1.618 . S
C1065 C369 1.618 . S
C1070 C385 1.602 . S
C1095 C414 1.602 . S
C1100 C398 1.618 . S
C1125 C443 1.602 . S
C1130 C427 1.618 . S
C1155 C356 1.602 . S
C1160 C456 1.618 . S
C1185 C380 2.054 . S
C1190 C361 1.940 . S
C1215 C409 2.054 . S
C1220 C390 1.940 . S
C1245 C419 1.940 . S
C1250 C438 2.054 . S
C1275 C448 1.940 . S
C1280 C351 2.054 . S
C1305 C322 2.054 . S
C1310 C245 1.940 . S
C1335 C274 1.940 . S
C1340 C235 2.054 . S
C1365 C303 1.940 . S
C1370 C264 2.054 . S
C1395 C332 1.940 . S
C1400 C293 2.054 . S
C1425 C166 1.618 . S
C1430 C124 1.602 . S
C1455 C153 1.602 . S
C1460 C195 1.618 . S
C1485 C224 1.618 . S
C1490 C182 1.602 . S
C1515 C211 1.602 . S
C1520 C137 1.618 . S
C1545 C108 1.618 . S
C1550 C8 1.602 . S
C1575 C37 1.602 . S
C1580 C21 1.618 . S
C1605 C66 1.602 . S
C1610 C50 1.618 . S
C1635 C95 1.602 . S
C1640 C79 1.618 . S
C1665 C150 1.293 . S
C1670 C5 1.293 . S
C1695 C179 1.293 . S
C1700 C34 1.293 . S
C1725 C208 1.293 . S
C1730 C63 1.293 . S
C1755 C121 1.293 . S
C1760 C92 1.293 . S
C1785 C382 1.293 . S
C1790 C237 1.293 . S
C1815 C266 1.293 . S
C1820 C411 1.293 . S
C1845 C295 1.293 . S
C1850 C440 1.293 . S
C1875 C324 1.293 . S
C1880 C353 1.293 . S
C1905 C15 1.271 . S
C1910 C73 1.271 . S
C1935 C102 1.271 . S
C1940 C44 1.271 . S
C1965 C131 1.271 . S
C1970 C189 1.271 . S
C1995 C218 1.271 . S
C2000 C160 1.271 . S
C2025 C305 1.271 . S
C2030 C247 1.271 . S
C2055 C334 1.271 . S
C2060 C276 1.271 . S
C2085 C421 1.271 . S
C2090 C363 1.271 . S
C2115 C392 1.271 . S
C2120 C450 1.271 . S
