# Generated by pormake.
# Topology uoz, (4)-cn, num edge types: 1
# Building blocks:
#     Node 0, Type 0, BuildingBlock: QUQFOY_clean_sbu_3, # of connection points: 4
#     Node 1, Type 0, BuildingBlock: QUQFOY_clean_sbu_3, # of connection points: 4
#     Node 2, Type 0, BuildingBlock: QUQFOY_clean_sbu_3, # of connection points: 4
#     Node 3, Type 0, BuildingBlock: QUQFOY_clean_sbu_3, # of connection points: 4
#     Node 4, Type 0, BuildingBlock: QUQFOY_clean_sbu_3, # of connection points: 4
#     Node 5, Type 0, BuildingBlock: QUQFOY_clean_sbu_3, # of connection points: 4
#     Node 6, Type 0, BuildingBlock: QUQFOY_clean_sbu_3, # of connection points: 4
#     Node 7, Type 0, BuildingBlock: QUQFOY_clean_sbu_3, # of connection points: 4
#     Node 8, Type 0, BuildingBlock: QUQFOY_clean_sbu_3, # of connection points: 4
#     Node 9, Type 0, BuildingBlock: QUQFOY_clean_sbu_3, # of connection points: 4
#     Node 10, Type 0, BuildingBlock: QUQFOY_clean_sbu_3, # of connection points: 4
#     Node 11, Type 0, BuildingBlock: QUQFOY_clean_sbu_3, # of connection points: 4
#     Node 12, Type 0, BuildingBlock: QUQFOY_clean_sbu_3, # of connection points: 4
#     Node 13, Type 0, BuildingBlock: QUQFOY_clean_sbu_3, # of connection points: 4
#     Node 14, Type 0, BuildingBlock: QUQFOY_clean_sbu_3, # of connection points: 4
#     Node 15, Type 0, BuildingBlock: QUQFOY_clean_sbu_3, # of connection points: 4
#     Edge 16, Type (0, 0), BuildingBlock: KIFKEQ_clean_linker_1, # of connection points: 2
#     Edge 17, Type (0, 0), BuildingBlock: KIFKEQ_clean_linker_1, # of connection points: 2
#     Edge 18, Type (0, 0), BuildingBlock: KIFKEQ_clean_linker_1, # of connection points: 2
#     Edge 19, Type (0, 0), BuildingBlock: KIFKEQ_clean_linker_1, # of connection points: 2
#     Edge 20, Type (0, 0), BuildingBlock: KIFKEQ_clean_linker_1, # of connection points: 2
#     Edge 21, Type (0, 0), BuildingBlock: KIFKEQ_clean_linker_1, # of connection points: 2
#     Edge 22, Type (0, 0), BuildingBlock: KIFKEQ_clean_linker_1, # of connection points: 2
#     Edge 23, Type (0, 0), BuildingBlock: KIFKEQ_clean_linker_1, # of connection points: 2
#     Edge 24, Type (0, 0), BuildingBlock: KIFKEQ_clean_linker_1, # of connection points: 2
#     Edge 25, Type (0, 0), BuildingBlock: KIFKEQ_clean_linker_1, # of connection points: 2
#     Edge 26, Type (0, 0), BuildingBlock: KIFKEQ_clean_linker_1, # of connection points: 2
#     Edge 27, Type (0, 0), BuildingBlock: KIFKEQ_clean_linker_1, # of connection points: 2
#     Edge 28, Type (0, 0), BuildingBlock: KIFKEQ_clean_linker_1, # of connection points: 2
#     Edge 29, Type (0, 0), BuildingBlock: KIFKEQ_clean_linker_1, # of connection points: 2
#     Edge 30, Type (0, 0), BuildingBlock: KIFKEQ_clean_linker_1, # of connection points: 2
#     Edge 31, Type (0, 0), BuildingBlock: KIFKEQ_clean_linker_1, # of connection points: 2
#     Edge 32, Type (0, 0), BuildingBlock: KIFKEQ_clean_linker_1, # of connection points: 2
#     Edge 33, Type (0, 0), BuildingBlock: KIFKEQ_clean_linker_1, # of connection points: 2
#     Edge 34, Type (0, 0), BuildingBlock: KIFKEQ_clean_linker_1, # of connection points: 2
#     Edge 35, Type (0, 0), BuildingBlock: KIFKEQ_clean_linker_1, # of connection points: 2
#     Edge 36, Type (0, 0), BuildingBlock: KIFKEQ_clean_linker_1, # of connection points: 2
#     Edge 37, Type (0, 0), BuildingBlock: KIFKEQ_clean_linker_1, # of connection points: 2
#     Edge 38, Type (0, 0), BuildingBlock: KIFKEQ_clean_linker_1, # of connection points: 2
#     Edge 39, Type (0, 0), BuildingBlock: KIFKEQ_clean_linker_1, # of connection points: 2
#     Edge 40, Type (0, 0), BuildingBlock: KIFKEQ_clean_linker_1, # of connection points: 2
#     Edge 41, Type (0, 0), BuildingBlock: KIFKEQ_clean_linker_1, # of connection points: 2
#     Edge 42, Type (0, 0), BuildingBlock: KIFKEQ_clean_linker_1, # of connection points: 2
#     Edge 43, Type (0, 0), BuildingBlock: KIFKEQ_clean_linker_1, # of connection points: 2
#     Edge 44, Type (0, 0), BuildingBlock: KIFKEQ_clean_linker_1, # of connection points: 2
#     Edge 45, Type (0, 0), BuildingBlock: KIFKEQ_clean_linker_1, # of connection points: 2
#     Edge 46, Type (0, 0), BuildingBlock: KIFKEQ_clean_linker_1, # of connection points: 2
#     Edge 47, Type (0, 0), BuildingBlock: KIFKEQ_clean_linker_1, # of connection points: 2
# Relax obj value: 0.180
# Max RMSD: 0.165
# Mean RMSD: 0.165
data_MOF--net-uoz--node1-QUQFOY_clean_sbu_3--edge1-KIFKEQ_clean_linker_1
_symmetry_space_group_name_H-M    P1
_symmetry_Int_Tables_number       1
_symmetry_cell_setting            triclinic
loop_
_symmetry_equiv_pos_as_xyz
'x, y, z'
_cell_length_a     62.738443
_cell_length_b     62.807695
_cell_length_c     22.497412
_cell_angle_alpha  89.997363
_cell_angle_beta   90.105679
_cell_angle_gamma 89.919802
loop_
_atom_site_label
_atom_site_type_symbol
_atom_site_fract_x
_atom_site_fract_y
_atom_site_fract_z
_atom_type_partial_charge
C0 C 0.95219 0.59573 0.20967 0.0
O1 O 0.95816 0.59037 0.15791 0.0
Cd2 Cd 0.99185 0.57634 0.13083 0.0
O3 O 0.96383 0.59185 0.25513 0.0
Cd4 Cd -0.00204 0.57202 0.27705 0.0
C5 C 0.02468 0.61167 0.20918 0.0
O6 O -0.00197 0.54785 0.1952 0.0
O7 O 0.02858 0.5517 0.23777 0.0
O8 O 0.97828 0.54847 0.34201 0.0
C9 C 0.01744 0.54251 0.19848 0.0
O10 O 0.01721 0.6034 0.16175 0.0
C11 C 0.99159 0.54857 0.38452 0.0
O12 O 0.0194 0.60457 0.26041 0.0
O13 O 0.00735 0.56122 0.37967 0.0
C14 C 0.66113 0.69724 0.4598 0.0
O15 O 0.66935 0.70503 0.41312 0.0
Cd16 Cd 0.68208 0.74069 0.40626 0.0
O17 O 0.66156 0.70761 0.50859 0.0
Cd18 Cd 0.67707 0.74159 0.54708 0.0
C19 C 0.63896 0.76689 0.47118 0.0
O20 O 0.70709 0.74765 0.48258 0.0
O21 O 0.69302 0.77575 0.52159 0.0
O22 O 0.69811 0.72188 0.6185 0.0
C23 C 0.70804 0.76755 0.49177 0.0
O24 O 0.65078 0.76261 0.42669 0.0
C25 C 0.69451 0.73411 0.66221 0.0
O26 O 0.64355 0.75991 0.52302 0.0
O27 O 0.681 0.74899 0.65406 0.0
C28 C 0.55163 0.40167 0.69605 0.0
O29 O 0.54422 0.40943 0.64822 0.0
Cd30 Cd 0.50873 0.42243 0.63832 0.0
O31 O 0.54094 0.40274 0.7442 0.0
Cd32 Cd 0.50686 0.41932 0.77919 0.0
C33 C 0.48163 0.38053 0.70641 0.0
O34 O 0.50232 0.44865 0.71145 0.0
O35 O 0.47331 0.43607 0.74894 0.0
O36 O 0.52708 0.4405 0.84891 0.0
C37 C 0.48239 0.45051 0.71898 0.0
O38 O 0.48633 0.3917 0.66096 0.0
C39 C 0.51446 0.43826 0.89243 0.0
O40 O 0.48828 0.38573 0.75813 0.0
O41 O 0.49898 0.42541 0.88532 0.0
C42 C 0.83753 0.27933 0.91988 0.0
O43 O 0.82966 0.27106 0.87334 0.0
Cd44 Cd 0.81864 0.23495 0.87118 0.0
O45 O 0.83673 0.26947 0.9695 0.0
Cd46 Cd 0.8209 0.23608 0.01189 0.0
C47 C 0.86213 0.21269 0.94583 0.0
O48 O 0.79219 0.22911 0.94448 0.0
O49 O 0.80534 0.20125 0.98682 0.0
O50 O 0.79927 0.25752 0.07792 0.0
C51 C 0.7908 0.20935 0.95484 0.0
O52 O 0.85139 0.21629 0.89871 0.0
C53 C 0.80186 0.24597 0.12362 0.0
O54 O 0.8554 0.21875 -0.00337 0.0
O55 O 0.81493 0.23053 0.11906 0.0
C56 C 0.94962 0.39108 0.8816 0.0
O57 O 0.95605 0.39863 0.93074 0.0
Cd58 Cd 0.98998 0.41385 0.94601 0.0
O59 O 0.9608 0.39319 0.8345 0.0
Cd60 Cd 0.99462 0.41256 0.80644 0.0
C61 C 0.02225 0.37537 0.88031 0.0
O62 O 0.99313 0.44165 0.87566 0.0
O63 O 0.02464 0.43381 0.84433 0.0
O64 O 0.97488 0.4321 0.73122 0.0
C65 C 0.01257 0.44672 0.87144 0.0
O66 O 0.01517 0.38505 0.926 0.0
C67 C 0.98927 0.43158 0.69174 0.0
O68 O 0.0168 0.3812 0.82806 0.0
O69 O 0.00558 0.4202 0.70301 0.0
C70 C 0.84098 0.70916 0.19294 0.0
O71 O 0.83365 0.71749 0.24005 0.0
Cd72 Cd 0.81965 0.75276 0.24277 0.0
O73 O 0.83899 0.71867 0.14306 0.0
Cd74 Cd 0.82191 0.75152 0.10181 0.0
C75 C 0.86092 0.77848 0.16849 0.0
O76 O 0.79287 0.75684 0.16928 0.0
O77 O 0.80435 0.78534 0.12684 0.0
O78 O 0.80129 0.72946 0.03486 0.0
C79 C 0.79033 0.77649 0.15886 0.0
O80 O 0.85003 0.77482 0.21518 0.0
C81 C 0.80339 0.74129 0.98955 0.0
O82 O 0.85543 0.77066 0.11834 0.0
O83 O 0.81581 0.7572 0.99471 0.0
C84 C 0.54997 0.58518 0.41352 0.0
O85 O 0.54237 0.5772 0.46076 0.0
Cd86 Cd 0.50693 0.56405 0.46852 0.0
O87 O 0.5395 0.58428 0.36485 0.0
Cd88 Cd 0.50562 0.56787 0.3276 0.0
C89 C 0.48006 0.60634 0.40084 0.0
O90 O 0.50116 0.53821 0.39396 0.0
O91 O 0.47212 0.55075 0.35612 0.0
O92 O 0.5263 0.54726 0.25765 0.0
C93 C 0.48127 0.53622 0.38575 0.0
O94 O 0.48458 0.59491 0.44602 0.0
C95 C 0.51372 0.54954 0.21391 0.0
O96 O 0.48694 0.6014 0.3492 0.0
O97 O 0.49806 0.5622 0.22106 0.0
C98 C 0.66239 0.28881 0.65586 0.0
O99 O 0.67079 0.28115 0.70255 0.0
Cd100 Cd 0.68308 0.24528 0.70958 0.0
O101 O 0.66246 0.2782 0.60747 0.0
Cd102 Cd 0.67732 0.24393 0.56907 0.0
C103 C 0.63905 0.21985 0.64687 0.0
O104 O 0.70764 0.23768 0.63269 0.0
O105 O 0.69315 0.20964 0.59451 0.0
O106 O 0.69789 0.26367 0.49702 0.0
C107 C 0.70839 0.21774 0.62372 0.0
O108 O 0.65121 0.22403 0.69083 0.0
C109 C 0.6942 0.2514 0.45345 0.0
O110 O 0.64353 0.22647 0.59464 0.0
O111 O 0.68087 0.23643 0.46199 0.0
C112 C 0.34753 0.19832 0.6608 0.0
O113 O 0.33973 0.20595 0.70824 0.0
Cd114 Cd 0.32681 0.24146 0.71685 0.0
O115 O 0.34662 0.20885 0.61229 0.0
Cd116 Cd 0.33044 0.24301 0.57621 0.0
C117 C 0.36912 0.26822 0.64985 0.0
O118 O 0.30081 0.24779 0.64276 0.0
O119 O 0.31379 0.27665 0.60548 0.0
O120 O 0.3093 0.22314 0.50545 0.0
C121 C 0.29911 0.2677 0.6348 0.0
O122 O 0.35773 0.2637 0.69502 0.0
C123 C 0.31188 0.2358 0.46214 0.0
O124 O 0.36408 0.26144 0.59814 0.0
O125 O 0.32493 0.25107 0.46988 0.0
C126 C 0.1604 0.7913 0.14847 0.0
O127 O 0.16824 0.78454 0.19696 0.0
Cd128 Cd 0.18254 0.7499 0.21103 0.0
O129 O 0.16157 0.78008 0.10122 0.0
Cd130 Cd 0.17846 0.74541 0.07139 0.0
C131 C 0.141 0.72039 0.15015 0.0
O132 O 0.20872 0.74422 0.13732 0.0
O133 O 0.19694 0.71372 0.10843 0.0
O134 O 0.19654 0.76395 0.99078 0.0
C135 C 0.21148 0.72428 0.13403 0.0
O136 O 0.15251 0.72576 0.19444 0.0
C137 C 0.19579 0.74849 0.95457 0.0
O138 O 0.14549 0.72671 0.09766 0.0
O139 O 0.18495 0.73235 0.97018 0.0
C140 C 0.16388 0.20156 0.94488 0.0
O141 O 0.1717 0.20855 0.89673 0.0
Cd142 Cd 0.18351 0.24424 0.88573 0.0
O143 O 0.16474 0.21271 0.9923 0.0
Cd144 Cd 0.18117 0.24701 0.02681 0.0
C145 C 0.14105 0.27056 0.95447 0.0
O146 O 0.21008 0.25118 0.95799 0.0
O147 O 0.19796 0.28039 -0.00431 0.0
O148 O 0.20252 0.22651 0.09569 0.0
C149 C 0.21215 0.27107 0.96531 0.0
O150 O 0.15169 0.26518 0.9086 0.0
C151 C 0.20062 0.23908 0.13947 0.0
O152 O 0.14735 0.26544 0.00661 0.0
O153 O 0.18796 0.25478 0.1329 0.0
C154 C 0.35171 0.79378 0.4635 0.0
O155 O 0.34437 0.78725 0.41422 0.0
Cd156 Cd 0.33073 0.75256 0.39763 0.0
O157 O 0.35022 0.78229 0.51017 0.0
Cd158 Cd 0.33308 0.74742 0.53704 0.0
C159 C 0.37147 0.72255 0.46196 0.0
O160 O 0.30361 0.7461 0.468 0.0
O161 O 0.31571 0.71569 0.49692 0.0
O162 O 0.31354 0.76538 0.61617 0.0
C163 C 0.30128 0.72609 0.47031 0.0
O164 O 0.36058 0.72842 0.41691 0.0
C165 C 0.31408 0.7498 0.65201 0.0
O166 O 0.36632 0.72852 0.5143 0.0
O167 O 0.3254 0.73387 0.63708 0.0
C168 C 0.45843 0.08549 0.70319 0.0
O169 O 0.46591 0.07719 0.65622 0.0
Cd170 Cd 0.50159 0.06447 0.64847 0.0
O171 O 0.46909 0.08498 0.75158 0.0
Cd172 Cd 0.50314 0.06913 0.78932 0.0
C173 C 0.52764 0.10765 0.71388 0.0
O174 O 0.50866 0.03928 0.72404 0.0
O175 O 0.53716 0.05293 0.76203 0.0
O176 O 0.48298 0.04829 0.85973 0.0
C177 C 0.52862 0.03805 0.73246 0.0
O178 O 0.52321 0.0959 0.66931 0.0
C179 C 0.49539 0.05117 0.90357 0.0
O180 O 0.52109 0.10285 0.76594 0.0
O181 O 0.51066 0.06423 0.89613 0.0
C182 C 0.04938 0.90442 0.18862 0.0
O183 O 0.04123 0.91249 0.14214 0.0
Cd184 Cd 0.00632 0.9274 0.13854 0.0
O185 O 0.03982 0.90587 0.23852 0.0
Cd186 Cd 0.007 0.92314 0.27937 0.0
C187 C 0.97875 0.8862 0.20762 0.0
O188 O 0.00265 0.95324 0.21446 0.0
O189 O 0.97378 0.94164 0.25506 0.0
O190 O 0.02851 0.94264 0.35018 0.0
C191 C 0.98299 0.95595 0.22493 0.0
O192 O 0.9829 0.89754 0.16209 0.0
C193 C 0.0162 0.93992 0.3942 0.0
O194 O 0.98674 0.89068 0.25836 0.0
O195 O 0.00038 0.92755 0.38646 0.0
C196 C 0.46299 0.90633 0.4317 0.0
O197 O 0.47096 0.91421 0.47867 0.0
Cd198 Cd 0.50658 0.92714 0.48398 0.0
O199 O 0.47307 0.90735 0.38252 0.0
Cd200 Cd 0.50666 0.92336 0.34268 0.0
C201 C 0.53179 0.88425 0.41457 0.0
O202 O 0.51224 0.95283 0.40886 0.0
O203 O 0.54073 0.93988 0.36917 0.0
O204 O 0.48559 0.94415 0.27377 0.0
C205 C 0.53209 0.95449 0.39958 0.0
O206 O 0.52794 0.89576 0.46003 0.0
C207 C 0.49772 0.9416 0.2293 0.0
O208 O 0.52471 0.88944 0.36328 0.0
O209 O 0.5133 0.92878 0.23573 0.0
C210 C 0.05282 0.08879 0.91404 0.0
O211 O 0.04514 0.08168 0.96223 0.0
Cd212 Cd 0.0095 0.06936 0.97134 0.0
O213 O 0.04241 0.08708 0.86543 0.0
Cd214 Cd 0.00866 0.06992 0.82969 0.0
C215 C 0.98307 0.11005 0.89541 0.0
O216 O 0.00331 0.04198 0.90112 0.0
O217 O 0.97479 0.0538 0.85851 0.0
O218 O 0.02895 0.0474 0.76333 0.0
C219 C 0.98348 0.04004 0.8918 0.0
O220 O 0.98794 0.10019 0.9431 0.0
C221 C 0.0169 0.0498 0.71849 0.0
O222 O 0.98931 0.10333 0.84476 0.0
O223 O 0.00173 0.06316 0.72354 0.0
H224 H 0.13287 0.6964 0.2485 0.0
H225 H 0.10732 0.71238 0.07568 0.0
H226 H 0.1037 0.67169 0.26455 0.0
H227 H 0.0775 0.68832 0.09277 0.0
H228 H 0.04456 0.62428 0.10802 0.0
H229 H 0.07123 0.65159 0.09579 0.0
H230 H 0.06684 0.66687 0.28277 0.0
H231 H 0.04044 0.63859 0.29558 0.0
C232 C 0.12084 0.69486 0.21419 0.0
C233 C 0.12253 0.70623 0.16052 0.0
C234 C 0.10397 0.68078 0.22366 0.0
C235 C 0.08821 0.67788 0.17996 0.0
C236 C 0.08957 0.68978 0.12698 0.0
C237 C 0.10662 0.70366 0.11718 0.0
C238 C 0.04912 0.6335 0.1467 0.0
C239 C 0.04032 0.62919 0.20292 0.0
C240 C 0.06437 0.64936 0.13949 0.0
C241 C 0.07117 0.66163 0.18811 0.0
C242 C 0.06218 0.65757 0.24439 0.0
C243 C 0.04697 0.64144 0.25177 0.0
H244 H 0.55369 0.87232 0.51375 0.0
H245 H 0.53999 0.85243 0.33376 0.0
H246 H 0.577 0.84194 0.52673 0.0
H247 H 0.56293 0.82134 0.34758 0.0
H248 H 0.62784 0.78774 0.36949 0.0
H249 H 0.59994 0.81396 0.3558 0.0
H250 H 0.57953 0.80442 0.53727 0.0
H251 H 0.60818 0.77857 0.55177 0.0
C252 C 0.55541 0.86128 0.47708 0.0
C253 C 0.54506 0.86492 0.42248 0.0
C254 C 0.56868 0.84368 0.4848 0.0
C255 C 0.57186 0.8291 0.43832 0.0
C256 C 0.56107 0.83241 0.3841 0.0
C257 C 0.54788 0.85019 0.37618 0.0
C258 C 0.61732 0.79103 0.40649 0.0
C259 C 0.62042 0.78118 0.46202 0.0
C260 C 0.60114 0.80601 0.39839 0.0
C261 C 0.5875 0.81143 0.44544 0.0
C262 C 0.59001 0.80091 0.50033 0.0
C263 C 0.60635 0.786 0.50862 0.0
H264 H 0.4603 0.36906 0.60585 0.0
H265 H 0.47103 0.34963 0.78779 0.0
H266 H 0.43529 0.34013 0.5926 0.0
H267 H 0.44643 0.31994 0.77375 0.0
H268 H 0.38026 0.28983 0.75015 0.0
H269 H 0.40923 0.31479 0.76361 0.0
H270 H 0.43015 0.30296 0.5836 0.0
H271 H 0.40042 0.2784 0.56931 0.0
C272 C 0.45758 0.3584 0.6429 0.0
C273 C 0.46758 0.3618 0.69812 0.0
C274 C 0.44331 0.34163 0.63506 0.0
C275 C 0.43876 0.32764 0.68204 0.0
C276 C 0.44928 0.33061 0.73682 0.0
C277 C 0.46346 0.34757 0.74487 0.0
C278 C 0.39109 0.29238 0.7134 0.0
C279 C 0.38788 0.28221 0.6584 0.0
C280 C 0.40789 0.30663 0.72138 0.0
C281 C 0.42209 0.31097 0.67475 0.0
C282 C 0.41931 0.30027 0.62023 0.0
C283 C 0.40233 0.28611 0.61205 0.0
H284 H 0.8876 0.21004 0.84856 0.0
H285 H 0.88233 0.18863 0.03032 0.0
H286 H 0.91941 0.18841 0.83559 0.0
H287 H 0.9136 0.16608 0.01673 0.0
H288 H 0.97741 0.13611 0.99071 0.0
H289 H 0.9506 0.16377 0.00318 0.0
H290 H 0.92841 0.1525 0.82377 0.0
H291 H 0.95595 0.12557 0.81065 0.0
C292 C 0.89328 0.20067 0.8858 0.0
C293 C 0.88241 0.2009 0.94037 0.0
C294 C 0.91145 0.18814 0.87825 0.0
C295 C 0.91902 0.17525 0.92479 0.0
C296 C 0.90847 0.176 0.98004 0.0
C297 C 0.89045 0.18884 0.98787 0.0
C298 C 0.96699 0.13981 0.95365 0.0
C299 C 0.96868 0.12862 0.89977 0.0
C300 C 0.95149 0.15555 0.96096 0.0
C301 C 0.93707 0.16024 0.91487 0.0
C302 C 0.93936 0.14957 0.86011 0.0
C303 C 0.95512 0.13405 0.85251 0.0
H304 H 0.05125 0.35936 0.80104 0.0
H305 H 0.02798 0.3516 0.98026 0.0
H306 H 0.07877 0.33277 0.82014 0.0
H307 H 0.05477 0.32439 -0.0013 0.0
H308 H 0.12142 0.29703 0.03436 0.0
H309 H 0.0916 0.32106 0.01548 0.0
H310 H 0.08644 0.29665 0.83628 0.0
H311 H 0.11677 0.27344 0.85452 0.0
C312 C 0.05176 0.35167 0.84413 0.0
C313 C 0.03755 0.35769 0.88921 0.0
C314 C 0.0675 0.33634 0.85514 0.0
C315 C 0.06916 0.32645 0.91124 0.0
C316 C 0.05436 0.33197 0.95549 0.0
C317 C 0.03886 0.34748 0.94474 0.0
C318 C 0.11376 0.29669 0.99119 0.0
C319 C 0.12155 0.28348 0.94585 0.0
C320 C 0.09658 0.31041 0.9803 0.0
C321 C 0.08662 0.31098 0.92406 0.0
C322 C 0.09397 0.29708 0.8796 0.0
C323 C 0.11129 0.28363 0.89023 0.0
H324 H 0.96781 0.85605 0.29055 0.0
H325 H 0.95561 0.87556 0.10935 0.0
H326 H 0.94144 0.82775 0.28004 0.0
H327 H 0.9289 0.84792 0.09962 0.0
H328 H 0.89131 0.78698 0.08385 0.0
H329 H 0.92203 0.81061 0.09323 0.0
H330 H 0.90362 0.82533 0.27369 0.0
H331 H 0.87356 0.80137 0.26507 0.0
C332 C 0.95956 0.85429 0.2485 0.0
C333 C 0.96375 0.86816 0.20098 0.0
C334 C 0.94437 0.83814 0.24252 0.0
C335 C 0.93294 0.83562 0.18905 0.0
C336 C 0.93758 0.84916 0.14113 0.0
C337 C 0.95283 0.86516 0.14695 0.0
C338 C 0.89393 0.79517 0.12558 0.0
C339 C 0.87994 0.79231 0.17357 0.0
C340 C 0.91149 0.80877 0.13094 0.0
C341 C 0.91532 0.81989 0.18427 0.0
C342 C 0.90144 0.81676 0.23237 0.0
C343 C 0.88404 0.80311 0.22717 0.0
H344 H 0.38228 0.70201 0.35963 0.0
H345 H 0.40177 0.70968 0.54274 0.0
H346 H 0.41009 0.67575 0.3449 0.0
H347 H 0.43032 0.68385 0.5273 0.0
H348 H 0.4578 0.617 0.50025 0.0
H349 H 0.43364 0.64664 0.51449 0.0
H350 H 0.44707 0.66872 0.33645 0.0
H351 H 0.47083 0.63835 0.32134 0.0
C352 C 0.39273 0.69835 0.39662 0.0
C353 C 0.38965 0.70785 0.45259 0.0
C354 C 0.40885 0.68335 0.38795 0.0
C355 C 0.42248 0.67756 0.43488 0.0
C356 C 0.41988 0.68762 0.49039 0.0
C357 C 0.40358 0.70252 0.49924 0.0
C358 C 0.45575 0.62821 0.46409 0.0
C359 C 0.4662 0.62521 0.40945 0.0
C360 C 0.44197 0.64538 0.47252 0.0
C361 C 0.43838 0.66017 0.42675 0.0
C362 C 0.44921 0.65747 0.37244 0.0
C363 C 0.4629 0.64011 0.36378 0.0
H364 H 0.60689 0.20965 0.56869 0.0
H365 H 0.62835 0.19925 0.74908 0.0
H366 H 0.57715 0.18536 0.58565 0.0
H367 H 0.59935 0.17455 0.76518 0.0
H368 H 0.53814 0.13927 0.79335 0.0
H369 H 0.5622 0.16925 0.77698 0.0
H370 H 0.5725 0.14814 0.59638 0.0
H371 H 0.54806 0.11892 0.61193 0.0
C372 C 0.60525 0.20225 0.61193 0.0
C373 C 0.6201 0.2063 0.6573 0.0
C374 C 0.58826 0.18825 0.62163 0.0
C375 C 0.58588 0.17786 0.67674 0.0
C376 C 0.60041 0.18246 0.72252 0.0
C377 C 0.61722 0.19654 0.71301 0.0
C378 C 0.5454 0.1412 0.75004 0.0
C379 C 0.54125 0.12661 0.70415 0.0
C380 C 0.55926 0.15832 0.74066 0.0
C381 C 0.56939 0.16112 0.68535 0.0
C382 C 0.56476 0.14679 0.63919 0.0
C383 C 0.55083 0.12984 0.64838 0.0
H384 H 0.93559 0.3628 0.79713 0.0
H385 H 0.91859 0.39085 0.96594 0.0
H386 H 0.90546 0.33839 0.80543 0.0
H387 H 0.88834 0.36689 0.97353 0.0
H388 H 0.86064 0.29963 0.00615 0.0
H389 H 0.88512 0.32926 0.99318 0.0
H390 H 0.86685 0.33411 0.8084 0.0
H391 H 0.84261 0.30419 0.821 0.0
C392 C 0.92517 0.36407 0.83531 0.0
C393 C 0.92966 0.37854 0.88122 0.0
C394 C 0.90786 0.35013 0.84004 0.0
C395 C 0.89465 0.35051 0.8906 0.0
C396 C 0.89846 0.36586 0.93469 0.0
C397 C 0.91577 0.37966 0.93014 0.0
C398 C 0.86155 0.30722 0.963 0.0
C399 C 0.84978 0.29939 0.91457 0.0
C400 C 0.87555 0.32429 0.95555 0.0
C401 C 0.87806 0.33396 0.89956 0.0
C402 C 0.86554 0.32679 0.85182 0.0
C403 C 0.85154 0.30972 0.85925 0.0
H404 H 0.44059 0.11095 0.78849 0.0
H405 H 0.43074 0.088 0.6094 0.0
H406 H 0.41067 0.13528 0.7767 0.0
H407 H 0.40048 0.112 0.59816 0.0
H408 H 0.37302 0.18048 0.57548 0.0
H409 H 0.39681 0.15008 0.58677 0.0
H410 H 0.37273 0.13954 0.76416 0.0
H411 H 0.34931 0.17023 0.75345 0.0
C412 C 0.43176 0.11074 0.74707 0.0
C413 C 0.43824 0.0977 0.69969 0.0
C414 C 0.41451 0.12465 0.74035 0.0
C415 C 0.40329 0.12575 0.68621 0.0
C416 C 0.40904 0.11184 0.64002 0.0
C417 C 0.42632 0.09799 0.64665 0.0
C418 C 0.37253 0.17147 0.61651 0.0
C419 C 0.35945 0.17797 0.66378 0.0
C420 C 0.38612 0.15396 0.62294 0.0
C421 C 0.38684 0.14249 0.67666 0.0
C422 C 0.37287 0.14827 0.72265 0.0
C423 C 0.35936 0.16582 0.71633 0.0
H424 H 0.56747 0.61116 0.32893 0.0
H425 H 0.57803 0.58694 0.50642 0.0
H426 H 0.59751 0.63528 0.34105 0.0
H427 H 0.60839 0.6107 0.51795 0.0
H428 H 0.63587 0.67873 0.54431 0.0
H429 H 0.61202 0.64857 0.5315 0.0
H430 H 0.63552 0.6395 0.35284 0.0
H431 H 0.65904 0.67 0.36511 0.0
C432 C 0.57648 0.61063 0.37003 0.0
C433 C 0.57017 0.59731 0.41694 0.0
C434 C 0.59379 0.62441 0.37693 0.0
C435 C 0.60524 0.62509 0.43077 0.0
C436 C 0.59966 0.61088 0.47637 0.0
C437 C 0.58231 0.59718 0.46958 0.0
C438 C 0.63623 0.67011 0.50264 0.0
C439 C 0.64919 0.67696 0.45555 0.0
C440 C 0.6226 0.65272 0.49534 0.0
C441 C 0.6217 0.64172 0.44088 0.0
C442 C 0.63553 0.64786 0.39494 0.0
C443 C 0.6491 0.66529 0.40216 0.0
H444 H 0.13292 0.80655 0.06364 0.0
H445 H 0.16 0.82159 0.23533 0.0
H446 H 0.10871 0.83677 0.07284 0.0
H447 H 0.13619 0.85203 0.24384 0.0
H448 H 0.06887 0.88031 0.27434 0.0
H449 H 0.09848 0.8557 0.26154 0.0
H450 H 0.10448 0.87507 0.07804 0.0
H451 H 0.07453 0.89937 0.0904 0.0
C452 C 0.13405 0.81657 0.10269 0.0
C453 C 0.14819 0.81149 0.14906 0.0
C454 C 0.12021 0.83396 0.10794 0.0
C455 C 0.12033 0.84667 0.15949 0.0
C456 C 0.13537 0.84229 0.20417 0.0
C457 C 0.1491 0.82489 0.19908 0.0
C458 C 0.07668 0.87956 0.23149 0.0
C459 C 0.06917 0.89167 0.1833 0.0
C460 C 0.09376 0.86551 0.22418 0.0
C461 C 0.10378 0.8633 0.16859 0.0
C462 C 0.09688 0.87613 0.12114 0.0
C463 C 0.07978 0.89015 0.1284 0.0
H464 H 0.91883 0.59636 0.13251 0.0
H465 H 0.94055 0.62324 0.29859 0.0
H466 H 0.88875 0.6208 0.13169 0.0
H467 H 0.91069 0.64825 0.29695 0.0
H468 H 0.84867 0.68492 0.29194 0.0
H469 H 0.87251 0.65439 0.30077 0.0
H470 H 0.88609 0.65827 0.11285 0.0
H471 H 0.86198 0.68839 0.1037 0.0
C472 C 0.91705 0.60737 0.16922 0.0
C473 C 0.93221 0.60808 0.21525 0.0
C474 C 0.89986 0.62147 0.16855 0.0
C475 C 0.89752 0.63677 0.21359 0.0
C476 C 0.91195 0.6366 0.26166 0.0
C477 C 0.9291 0.6223 0.26261 0.0
C478 C 0.85651 0.67907 0.2523 0.0
C479 C 0.85349 0.68919 0.19709 0.0
C480 C 0.87028 0.66164 0.25752 0.0
C481 C 0.8813 0.65392 0.20766 0.0
C482 C 0.87765 0.66358 0.15209 0.0
C483 C 0.86388 0.68097 0.14685 0.0
H484 H 0.07062 0.11303 0.826 0.0
H485 H 0.08059 0.09237 0.00722 0.0
H486 H 0.10062 0.13736 0.83516 0.0
H487 H 0.1109 0.11633 0.01586 0.0
H488 H 0.1384 0.18488 0.03188 0.0
H489 H 0.11456 0.15448 0.02352 0.0
H490 H 0.1386 0.14165 0.84723 0.0
H491 H 0.16208 0.17235 0.85499 0.0
C492 C 0.07949 0.11332 0.86734 0.0
C493 C 0.07302 0.10094 0.91607 0.0
C494 C 0.09678 0.12722 0.87256 0.0
C495 C 0.10804 0.12896 0.92652 0.0
C496 C 0.10231 0.11568 0.9741 0.0
C497 C 0.08499 0.10186 0.96897 0.0
C498 C 0.13887 0.17538 0.99174 0.0
C499 C 0.15196 0.18122 0.94387 0.0
C500 C 0.12525 0.15786 0.98699 0.0
C501 C 0.1245 0.14574 0.93439 0.0
C502 C 0.13848 0.15089 0.88787 0.0
C503 C 0.15203 0.16844 0.89252 0.0
H504 H 0.66015 0.31614 0.7504 0.0
H505 H 0.63763 0.30756 0.57029 0.0
H506 H 0.63683 0.34693 0.76153 0.0
H507 H 0.614 0.33799 0.58194 0.0
H508 H 0.58026 0.39979 0.60482 0.0
H509 H 0.61064 0.37591 0.5951 0.0
H510 H 0.59877 0.35155 0.77159 0.0
H511 H 0.5687 0.37581 0.78192 0.0
C512 C 0.65041 0.32095 0.71291 0.0
C513 C 0.65061 0.30924 0.65959 0.0
C514 C 0.63695 0.33854 0.71948 0.0
C515 C 0.62337 0.34481 0.67292 0.0
C516 C 0.62439 0.33376 0.61857 0.0
C517 C 0.63789 0.31621 0.61194 0.0
C518 C 0.58433 0.38958 0.64197 0.0
C519 C 0.57188 0.38953 0.69393 0.0
C520 C 0.60169 0.37581 0.63623 0.0
C521 C 0.60699 0.3616 0.68219 0.0
C522 C 0.59527 0.3624 0.73545 0.0
C523 C 0.57794 0.37626 0.74132 0.0
H524 H 0.35209 0.82473 0.37855 0.0
H525 H 0.37875 0.80856 0.55 0.0
H526 H 0.37576 0.85529 0.37222 0.0
H527 H 0.40283 0.83892 0.54299 0.0
H528 H 0.43728 0.90135 0.52886 0.0
H529 H 0.40709 0.87732 0.5395 0.0
H530 H 0.41354 0.85882 0.35541 0.0
H531 H 0.4434 0.88314 0.34436 0.0
C532 C 0.36286 0.82782 0.41523 0.0
C533 C 0.36372 0.81405 0.46451 0.0
C534 C 0.3765 0.84529 0.4114 0.0
C535 C 0.39141 0.84938 0.45661 0.0
C536 C 0.39143 0.83633 0.50751 0.0
C537 C 0.37768 0.81887 0.5115 0.0
C538 C 0.43206 0.89241 0.49035 0.0
C539 C 0.4429 0.89405 0.43582 0.0
C540 C 0.41481 0.87854 0.49663 0.0
C541 C 0.408 0.866 0.44853 0.0
C542 C 0.4182 0.8684 0.39327 0.0
C543 C 0.43542 0.88229 0.38695 0.0
H544 H 0.0242 0.5584 0.08904 0.0
H545 H 0.03234 0.50201 0.19608 0.0
H546 H 0.03136 0.53774 -0.00075 0.0
H547 H 0.0395 0.48117 0.10619 0.0
H548 H 0.05043 0.44824 0.93145 0.0
H549 H 0.06047 0.4746 0.00717 0.0
H550 H 0.00338 0.51046 0.96732 0.0
H551 H 0.99326 0.48411 0.89336 0.0
C552 C 0.02818 0.54169 0.09324 0.0
C553 C 0.02741 0.53153 0.14863 0.0
C554 C 0.03238 0.52994 0.04212 0.0
C555 C 0.03572 0.50788 0.04595 0.0
C556 C 0.03715 0.4982 0.10219 0.0
C557 C 0.03294 0.51001 0.15346 0.0
C558 C 0.04043 0.46212 0.93796 0.0
C559 C 0.02101 0.46422 0.90737 0.0
C560 C 0.04614 0.47709 0.98114 0.0
C561 C 0.03273 0.49451 0.99278 0.0
C562 C 0.01417 0.49734 0.95864 0.0
C563 C 0.00827 0.48221 0.9167 0.0
H564 H 0.74757 0.77496 0.16839 0.0
H565 H 0.80378 0.80446 0.24179 0.0
H566 H 0.72729 0.78545 0.25613 0.0
H567 H 0.7837 0.81424 0.33107 0.0
H568 H 0.69575 0.80106 0.42381 0.0
H569 H 0.71579 0.81579 0.33984 0.0
H570 H 0.77048 0.77816 0.39093 0.0
H571 H 0.7502 0.76281 0.47282 0.0
C572 C 0.75523 0.78462 0.20213 0.0
C573 C 0.77705 0.78898 0.19897 0.0
C574 C 0.74367 0.79073 0.2521 0.0
C575 C 0.75405 0.80057 0.30013 0.0
C576 C 0.77539 0.80687 0.2942 0.0
C577 C 0.78682 0.80126 0.24336 0.0
C578 C 0.71234 0.79667 0.41831 0.0
C579 C 0.72155 0.78076 0.45395 0.0
C580 C 0.72375 0.80513 0.3706 0.0
C581 C 0.74461 0.79816 0.35947 0.0
C582 C 0.7545 0.78402 0.39931 0.0
C583 C 0.74292 0.77511 0.44574 0.0
H584 H 0.45094 0.5479 0.46465 0.0
H585 H 0.48568 0.49374 0.39733 0.0
H586 H 0.43977 0.52691 0.55109 0.0
H587 H 0.47381 0.47254 0.48197 0.0
H588 H 0.48667 0.49292 0.70588 0.0
H589 H 0.47417 0.5139 0.62131 0.0
H590 H 0.44015 0.45925 0.55412 0.0
H591 H 0.45194 0.43848 0.64055 0.0
C592 C 0.45516 0.53118 0.46684 0.0
C593 C 0.46916 0.52228 0.42505 0.0
C594 C 0.44877 0.51924 0.51602 0.0
C595 C 0.45589 0.49819 0.52269 0.0
C596 C 0.46786 0.48866 0.47718 0.0
C597 C 0.47476 0.50076 0.42907 0.0
C598 C 0.47565 0.48579 0.67454 0.0
C599 C 0.4702 0.46426 0.67914 0.0
C600 C 0.46839 0.49776 0.6265 0.0
C601 C 0.45618 0.4881 0.58161 0.0
C602 C 0.4493 0.46702 0.58875 0.0
C603 C 0.45606 0.4552 0.6379 0.0
H604 H 0.74799 0.20867 0.94619 0.0
H605 H 0.80543 0.18219 0.87134 0.0
H606 H 0.72807 0.19777 0.85815 0.0
H607 H 0.78565 0.17197 0.78177 0.0
H608 H 0.7505 0.22302 0.64273 0.0
H609 H 0.77124 0.20744 0.72356 0.0
H610 H 0.71746 0.16843 0.77262 0.0
H611 H 0.69694 0.18345 0.6897 0.0
C612 C 0.75604 0.19953 0.91208 0.0
C613 C 0.77806 0.19621 0.9149 0.0
C614 C 0.74468 0.19319 0.86188 0.0
C615 C 0.75544 0.18415 0.81331 0.0
C616 C 0.77706 0.17874 0.819 0.0
C617 C 0.78831 0.18459 0.87003 0.0
C618 C 0.74352 0.2104 0.66911 0.0
C619 C 0.72224 0.20447 0.66071 0.0
C620 C 0.75539 0.20134 0.71493 0.0
C621 C 0.74587 0.18673 0.75401 0.0
C622 C 0.72514 0.17947 0.74249 0.0
C623 C 0.71345 0.1881 0.69537 0.0
H624 H 0.25475 0.26721 0.95559 0.0
H625 H 0.20027 0.30028 0.88331 0.0
H626 H 0.27613 0.27846 0.87066 0.0
H627 H 0.22145 0.31082 0.7966 0.0
H628 H 0.25668 0.26294 0.64719 0.0
H629 H 0.23522 0.27599 0.72998 0.0
H630 H 0.28923 0.3114 0.79594 0.0
H631 H 0.31049 0.29902 0.71122 0.0
C632 C 0.24769 0.27766 0.92263 0.0
C633 C 0.22605 0.28295 0.92539 0.0
C634 C 0.25988 0.28421 0.87434 0.0
C635 C 0.25034 0.29551 0.82745 0.0
C636 C 0.22912 0.30235 0.83273 0.0
C637 C 0.21707 0.29631 0.88205 0.0
C638 C 0.26357 0.27434 0.67782 0.0
C639 C 0.28506 0.28002 0.67343 0.0
C640 C 0.25132 0.28193 0.72482 0.0
C641 C 0.26066 0.29471 0.76893 0.0
C642 C 0.28171 0.30179 0.76189 0.0
C643 C 0.2938 0.29469 0.71372 0.0
H644 H 0.31163 0.69584 0.38945 0.0
H645 H 0.25937 0.7339 0.45488 0.0
H646 H 0.29017 0.6857 0.3026 0.0
H647 H 0.23766 0.72297 0.3698 0.0
H648 H 0.25336 0.73275 0.14643 0.0
H649 H 0.27573 0.72283 0.23118 0.0
H650 H 0.22456 0.68467 0.30178 0.0
H651 H 0.20245 0.6938 0.21533 0.0
C652 C 0.29523 0.70117 0.38656 0.0
C653 C 0.28699 0.71564 0.4282 0.0
C654 C 0.28304 0.69535 0.33719 0.0
C655 C 0.26234 0.70343 0.33039 0.0
C656 C 0.25349 0.7163 0.37499 0.0
C657 C 0.26588 0.72264 0.42324 0.0
C658 C 0.24733 0.72144 0.17867 0.0
C659 C 0.22636 0.71398 0.17488 0.0
C660 C 0.26009 0.71569 0.22676 0.0
C661 C 0.25175 0.70295 0.27232 0.0
C662 C 0.2313 0.69424 0.26646 0.0
C663 C 0.21874 0.69948 0.21729 0.0
H664 H 0.56158 0.94149 0.47954 0.0
H665 H 0.52969 -0.00285 0.41046 0.0
H666 H 0.57272 0.96182 0.56729 0.0
H667 H 0.54154 0.01766 0.49647 0.0
H668 H 0.52426 -0.00427 0.71699 0.0
H669 H 0.53805 0.97508 0.6336 0.0
H670 H 0.57378 0.02972 0.5739 0.0
H671 H 0.56064 0.05015 0.65927 0.0
C672 C 0.55805 0.95839 0.48162 0.0
C673 C 0.54476 0.96792 0.439 0.0
C674 C 0.56444 0.96995 0.53157 0.0
C675 C 0.55799 0.99121 0.53825 0.0
C676 C 0.54696 0.00135 0.49179 0.0
C677 C 0.54007 0.98965 0.44284 0.0
C678 C 0.53588 0.00292 0.68766 0.0
C679 C 0.5414 0.02438 0.6939 0.0
C680 C 0.54391 0.99113 0.64031 0.0
C681 C 0.55697 0.0009 0.59766 0.0
C682 C 0.56394 0.02186 0.60678 0.0
C683 C 0.5564 0.03349 0.65531 0.0
H684 H 0.95529 0.05462 0.97279 0.0
H685 H 0.98445 -0.0026 0.9047 0.0
H686 H 0.94326 0.03503 0.06089 0.0
H687 H 0.97171 0.97764 0.99105 0.0
H688 H 0.98943 -0.00192 0.21174 0.0
H689 H 0.97692 0.01975 0.12865 0.0
H690 H 0.93835 0.96736 0.06668 0.0
H691 H 0.95022 0.94594 0.15171 0.0
C692 C 0.95807 0.03761 0.97531 0.0
C693 C 0.97076 0.02734 0.93275 0.0
C694 C 0.95116 0.02646 0.02539 0.0
C695 C 0.9565 0.0049 0.03226 0.0
C696 C 0.96711 0.99419 0.98615 0.0
C697 C 0.97453 0.00545 0.93707 0.0
C698 C 0.97743 0.99166 0.18205 0.0
C699 C 0.97076 0.97051 0.18747 0.0
C700 C 0.97015 0.00404 0.13485 0.0
C701 C 0.9567 -0.00488 0.09158 0.0
C702 C 0.94852 0.97457 0.10003 0.0
C703 C 0.95533 0.96237 0.1484 0.0
H704 H 0.02118 0.44145 0.61336 0.0
H705 H 0.95549 0.45559 0.65501 0.0
H706 H 0.02123 0.47018 0.53998 0.0
H707 H 0.95563 0.48438 0.58261 0.0
H708 H 0.95853 0.52169 0.40725 0.0
H709 H 0.95761 0.49216 0.47722 0.0
H710 H 0.02018 0.50946 0.54125 0.0
H711 H 0.02125 0.53894 0.47027 0.0
C712 C 0.00665 0.45042 0.60613 0.0
C713 C 0.98833 0.4462 0.64001 0.0
C714 C 0.00676 0.46708 0.5647 0.0
C715 C 0.98852 0.47979 0.55598 0.0
C716 C 0.96993 0.47489 0.58795 0.0
C717 C 0.96985 0.45833 0.62949 0.0
C718 C 0.972 0.5194 0.43675 0.0
C719 C 0.98995 0.53273 0.43321 0.0
C720 C 0.97147 0.50243 0.47691 0.0
C721 C 0.9889 0.49828 0.51448 0.0
C722 C 0.00663 0.51198 0.51217 0.0
C723 C 0.00713 0.52905 0.47208 0.0
H724 H 0.7951 0.76964 0.90016 0.0
H725 H 0.77969 0.70632 0.96143 0.0
H726 H 0.76754 0.76679 0.82363 0.0
H727 H 0.75219 0.70352 0.88497 0.0
H728 H 0.72044 0.70148 0.69668 0.0
H729 H 0.74773 0.70223 0.77412 0.0
H730 H 0.72719 0.76523 0.82541 0.0
H731 H 0.69984 0.76451 0.74789 0.0
C732 C 0.78613 0.75497 0.89658 0.0
C733 C 0.78958 0.73821 0.93685 0.0
C734 C 0.77016 0.75345 0.8533 0.0
C735 C 0.75749 0.73506 0.84897 0.0
C736 C 0.76168 0.71789 0.88728 0.0
C737 C 0.77746 0.7195 0.93096 0.0
C738 C 0.72146 0.71533 0.72525 0.0
C739 C 0.70799 0.73295 0.71615 0.0
C740 C 0.73713 0.71576 0.76949 0.0
C741 C 0.73981 0.73392 0.80514 0.0
C742 C 0.72573 0.75117 0.79782 0.0
C743 C 0.70989 0.75064 0.75399 0.0
H744 H 0.54767 0.5249 0.18258 0.0
H745 H 0.48381 0.54179 0.12788 0.0
H746 H 0.54861 0.49699 0.10734 0.0
H747 H 0.48483 0.51387 0.05217 0.0
H748 H 0.4844 0.44592 0.9779 0.0
H749 H 0.48506 0.47395 0.05333 0.0
H750 H 0.54863 0.49139 -0.00137 0.0
H751 H 0.54804 0.46338 0.92367 0.0
C752 C 0.53398 0.52293 0.1537 0.0
C753 C 0.51566 0.53557 0.1612 0.0
C754 C 0.53452 0.5069 0.11065 0.0
C755 C 0.51668 0.50302 0.07442 0.0
C756 C 0.49867 0.51623 0.08022 0.0
C757 C 0.4982 0.53242 0.12299 0.0
C758 C 0.49867 0.45545 0.98281 0.0
C759 C 0.51617 0.45241 0.94485 0.0
C760 C 0.49894 0.4717 0.02541 0.0
C761 C 0.51678 0.48509 0.0313 0.0
C762 C 0.53465 0.48135 -0.00475 0.0
C763 C 0.53432 0.46526 0.95237 0.0
H764 H 0.77704 0.28027 0.15091 0.0
H765 H 0.79466 0.21767 0.21372 0.0
H766 H 0.74975 0.28259 0.22785 0.0
H767 H 0.76729 0.22001 0.29068 0.0
H768 H 0.69986 0.22087 0.3683 0.0
H769 H 0.7268 0.22055 0.28989 0.0
H770 H 0.74597 0.28416 0.3391 0.0
H771 H 0.71912 0.28449 0.41747 0.0
C772 C 0.77533 0.26715 0.18177 0.0
C773 C 0.78802 0.24878 0.17625 0.0
C774 C 0.75966 0.26848 0.22574 0.0
C775 C 0.75618 0.25135 0.26466 0.0
C776 C 0.76938 0.2333 0.26056 0.0
C777 C 0.78524 0.23208 0.21702 0.0
C778 C 0.70951 0.23495 0.36155 0.0
C779 C 0.70737 0.2527 0.39907 0.0
C780 C 0.72512 0.23466 0.31721 0.0
C781 C 0.7387 0.25221 0.30903 0.0
C782 C 0.73576 0.2704 0.34439 0.0
C783 C 0.72034 0.27059 0.38917 0.0
H784 H 0.30496 0.26616 0.37692 0.0
H785 H 0.28629 0.20274 0.42962 0.0
H786 H 0.27707 0.26619 0.30083 0.0
H787 H 0.25842 0.20285 0.35398 0.0
H788 H 0.22504 0.20485 0.1699 0.0
H789 H 0.253 0.2033 0.24514 0.0
H790 H 0.2371 0.26712 0.30123 0.0
H791 H 0.20911 0.26874 0.22551 0.0
C792 C 0.2952 0.25208 0.37152 0.0
C793 C 0.29785 0.23444 0.40927 0.0
C794 C 0.27903 0.25222 0.32853 0.0
C795 C 0.26534 0.23464 0.32202 0.0
C796 C 0.2687 0.21662 0.35783 0.0
C797 C 0.28471 0.21655 0.40111 0.0
C798 C 0.22725 0.21844 0.19892 0.0
C799 C 0.21484 0.23693 0.19175 0.0
C800 C 0.24331 0.21754 0.24198 0.0
C801 C 0.24746 0.23519 0.27857 0.0
C802 C 0.23453 0.2534 0.27293 0.0
C803 C 0.21831 0.25423 0.23015 0.0
H804 H 0.30097 0.78216 0.72434 0.0
H805 H 0.29214 0.71529 0.68934 0.0
H806 H 0.272 0.7813 0.79616 0.0
H807 H 0.26191 0.71458 0.75604 0.0
H808 H 0.21764 0.7143 0.91421 0.0
H809 H 0.24752 0.71422 0.84631 0.0
H810 H 0.23651 0.78106 0.80948 0.0
H811 H 0.2079 0.78128 0.88247 0.0
C812 C 0.29284 0.76723 0.73248 0.0
C813 C 0.29898 0.74873 0.70211 0.0
C814 C 0.27587 0.76676 0.77279 0.0
C815 C 0.26403 0.74793 0.78193 0.0
C816 C 0.27062 0.72935 0.75186 0.0
C817 C 0.28806 0.72969 0.7133 0.0
C818 C 0.22141 0.72886 0.89065 0.0
C819 C 0.21039 0.74776 0.90324 0.0
C820 C 0.23866 0.72888 0.8514 0.0
C821 C 0.24493 0.7477 0.82205 0.0
C822 C 0.23289 0.76636 0.83231 0.0
C823 C 0.21612 0.76646 0.87329 0.0
H824 H 0.52703 0.94898 0.14184 0.0
H825 H 0.46359 0.96622 0.19881 0.0
H826 H 0.52555 0.97661 0.06534 0.0
H827 H 0.46217 0.99381 0.12257 0.0
H828 H 0.46193 0.02617 0.93633 0.0
H829 H 0.46163 -0.00136 0.01277 0.0
H830 H 0.52521 0.01674 0.06617 0.0
H831 H 0.52556 0.04432 0.98945 0.0
C832 C 0.51262 0.95837 0.13729 0.0
C833 C 0.49543 0.95541 0.17635 0.0
C834 C 0.51189 0.97438 0.09405 0.0
C835 C 0.49386 0.98758 0.08858 0.0
C836 C 0.47627 0.9839 0.12568 0.0
C837 C 0.47708 0.96806 0.16927 0.0
C838 C 0.4757 0.02455 0.9651 0.0
C839 C 0.49377 0.03744 0.95685 0.0
C840 C 0.47554 0.00874 0.00879 0.0
C841 C 0.49352 0.00531 0.04485 0.0
C842 C 0.51127 0.01877 0.03827 0.0
C843 C 0.51135 0.03475 -0.00508 0.0
H844 H 0.98761 0.04275 0.63058 0.0
H845 H 0.05028 0.02382 0.69062 0.0
H846 H 0.98851 0.01476 0.55511 0.0
H847 H 0.05114 -0.00411 0.61523 0.0
H848 H 0.05053 0.96374 0.42743 0.0
H849 H 0.05172 0.99107 0.50449 0.0
H850 H 0.98781 0.97447 0.55799 0.0
H851 H 0.98658 0.94709 0.48087 0.0
C852 C 0.00173 0.03289 0.62697 0.0
C853 C 0.01887 0.0355 0.66655 0.0
C854 C 0.00213 0.01669 0.5843 0.0
C855 C 0.01977 0.00294 0.57992 0.0
C856 C 0.03733 0.00622 0.61759 0.0
C857 C 0.03684 0.02225 0.66066 0.0
C858 C 0.03689 0.96562 0.45642 0.0
C859 C 0.01845 0.95327 0.44802 0.0
C860 C 0.03756 0.98131 0.50044 0.0
C861 C 0.01973 0.98513 0.53656 0.0
C862 C 0.00165 0.97212 0.53002 0.0
C863 C 0.00106 0.95626 0.4864 0.0
loop_
_geom_bond_atom_site_label_1
_geom_bond_atom_site_label_2
_geom_bond_distance
_geom_bond_site_symmetry_2
_ccdc_geom_bond_type
C0 O1 1.306 . S
C0 O3 1.160 . S
O1 C0 1.306 . S
O1 Cd2 2.228 . S
Cd2 O1 2.228 . S
Cd2 O6 2.273 . S
Cd2 O10 2.277 1_655 S
O3 C0 1.160 . S
O3 Cd4 2.203 1_655 S
Cd4 O3 2.203 1_455 S
Cd4 O6 2.411 1_455 S
Cd4 O7 2.333 . S
Cd4 O8 2.352 1_455 S
Cd4 O12 2.277 . S
Cd4 O13 2.356 . S
C5 O10 1.209 . S
C5 O12 1.226 . S
O6 Cd2 2.273 . S
O6 Cd4 2.411 1_655 S
O6 C9 1.320 1_655 S
O7 Cd4 2.333 . S
O7 C9 1.214 . S
O8 Cd4 2.352 1_655 S
O8 C11 1.258 1_655 S
C9 O6 1.320 1_455 S
C9 O7 1.214 . S
O10 Cd2 2.277 1_455 S
O10 C5 1.209 . S
C11 O8 1.258 1_455 S
C11 O13 1.282 . S
O12 Cd4 2.277 . S
O12 C5 1.226 . S
O13 Cd4 2.356 . S
O13 C11 1.282 . S
C14 O15 1.306 . S
C14 O17 1.160 . S
O15 C14 1.306 . S
O15 Cd16 2.228 . S
Cd16 O15 2.228 . S
Cd16 O20 2.273 . S
Cd16 O24 2.277 . S
O17 C14 1.160 . S
O17 Cd18 2.203 . S
Cd18 O17 2.203 . S
Cd18 O20 2.411 . S
Cd18 O21 2.333 . S
Cd18 O22 2.352 . S
Cd18 O26 2.277 . S
Cd18 O27 2.356 . S
C19 O24 1.209 . S
C19 O26 1.226 . S
O20 Cd16 2.273 . S
O20 Cd18 2.411 . S
O20 C23 1.320 . S
O21 Cd18 2.333 . S
O21 C23 1.214 . S
O22 Cd18 2.352 . S
O22 C25 1.258 . S
C23 O20 1.320 . S
C23 O21 1.214 . S
O24 Cd16 2.277 . S
O24 C19 1.209 . S
C25 O22 1.258 . S
C25 O27 1.282 . S
O26 Cd18 2.277 . S
O26 C19 1.226 . S
O27 Cd18 2.356 . S
O27 C25 1.282 . S
C28 O29 1.306 . S
C28 O31 1.160 . S
O29 C28 1.306 . S
O29 Cd30 2.228 . S
Cd30 O29 2.228 . S
Cd30 O34 2.273 . S
Cd30 O38 2.277 . S
O31 C28 1.160 . S
O31 Cd32 2.203 . S
Cd32 O31 2.203 . S
Cd32 O34 2.411 . S
Cd32 O35 2.333 . S
Cd32 O36 2.352 . S
Cd32 O40 2.277 . S
Cd32 O41 2.356 . S
C33 O38 1.209 . S
C33 O40 1.226 . S
O34 Cd30 2.273 . S
O34 Cd32 2.411 . S
O34 C37 1.320 . S
O35 Cd32 2.333 . S
O35 C37 1.214 . S
O36 Cd32 2.352 . S
O36 C39 1.258 . S
C37 O34 1.320 . S
C37 O35 1.214 . S
O38 Cd30 2.277 . S
O38 C33 1.209 . S
C39 O36 1.258 . S
C39 O41 1.282 . S
O40 Cd32 2.277 . S
O40 C33 1.226 . S
O41 Cd32 2.356 . S
O41 C39 1.282 . S
C42 O43 1.306 1_554 S
C42 O45 1.160 . S
O43 C42 1.306 1_556 S
O43 Cd44 2.228 . S
Cd44 O43 2.228 . S
Cd44 O48 2.273 . S
Cd44 O52 2.277 . S
O45 C42 1.160 . S
O45 Cd46 2.203 . S
Cd46 O45 2.203 . S
Cd46 O48 2.411 1_554 S
Cd46 O49 2.333 1_554 S
Cd46 O50 2.352 . S
Cd46 O54 2.277 . S
Cd46 O55 2.356 . S
C47 O52 1.209 . S
C47 O54 1.226 1_556 S
O48 Cd44 2.273 . S
O48 Cd46 2.411 1_556 S
O48 C51 1.320 . S
O49 Cd46 2.333 1_556 S
O49 C51 1.214 . S
O50 Cd46 2.352 . S
O50 C53 1.258 . S
C51 O48 1.320 . S
C51 O49 1.214 . S
O52 Cd44 2.277 . S
O52 C47 1.209 . S
C53 O50 1.258 . S
C53 O55 1.282 . S
O54 Cd46 2.277 . S
O54 C47 1.226 1_554 S
O55 Cd46 2.356 . S
O55 C53 1.282 . S
C56 O57 1.306 . S
C56 O59 1.160 . S
O57 C56 1.306 . S
O57 Cd58 2.228 . S
Cd58 O57 2.228 . S
Cd58 O62 2.273 . S
Cd58 O66 2.277 1_655 S
O59 C56 1.160 . S
O59 Cd60 2.203 1_655 S
Cd60 O59 2.203 1_455 S
Cd60 O62 2.411 1_455 S
Cd60 O63 2.333 . S
Cd60 O64 2.352 1_455 S
Cd60 O68 2.277 . S
Cd60 O69 2.356 . S
C61 O66 1.209 . S
C61 O68 1.226 . S
O62 Cd58 2.273 . S
O62 Cd60 2.411 1_655 S
O62 C65 1.320 1_655 S
O63 Cd60 2.333 . S
O63 C65 1.214 . S
O64 Cd60 2.352 1_655 S
O64 C67 1.258 1_655 S
C65 O62 1.320 1_455 S
C65 O63 1.214 . S
O66 Cd58 2.277 1_455 S
O66 C61 1.209 . S
C67 O64 1.258 1_455 S
C67 O69 1.282 . S
O68 Cd60 2.277 . S
O68 C61 1.226 . S
O69 Cd60 2.356 . S
O69 C67 1.282 . S
C70 O71 1.306 . S
C70 O73 1.160 . S
O71 C70 1.306 . S
O71 Cd72 2.228 . S
Cd72 O71 2.228 . S
Cd72 O76 2.273 . S
Cd72 O80 2.277 . S
O73 C70 1.160 . S
O73 Cd74 2.203 . S
Cd74 O73 2.203 . S
Cd74 O76 2.411 . S
Cd74 O77 2.333 . S
Cd74 O78 2.352 . S
Cd74 O82 2.277 . S
Cd74 O83 2.356 1_554 S
C75 O80 1.209 . S
C75 O82 1.226 . S
O76 Cd72 2.273 . S
O76 Cd74 2.411 . S
O76 C79 1.320 . S
O77 Cd74 2.333 . S
O77 C79 1.214 . S
O78 Cd74 2.352 . S
O78 C81 1.258 1_554 S
C79 O76 1.320 . S
C79 O77 1.214 . S
O80 Cd72 2.277 . S
O80 C75 1.209 . S
C81 O78 1.258 1_556 S
C81 O83 1.282 . S
O82 Cd74 2.277 . S
O82 C75 1.226 . S
O83 Cd74 2.356 1_556 S
O83 C81 1.282 . S
C84 O85 1.306 . S
C84 O87 1.160 . S
O85 C84 1.306 . S
O85 Cd86 2.228 . S
Cd86 O85 2.228 . S
Cd86 O90 2.273 . S
Cd86 O94 2.277 . S
O87 C84 1.160 . S
O87 Cd88 2.203 . S
Cd88 O87 2.203 . S
Cd88 O90 2.411 . S
Cd88 O91 2.333 . S
Cd88 O92 2.352 . S
Cd88 O96 2.277 . S
Cd88 O97 2.356 . S
C89 O94 1.209 . S
C89 O96 1.226 . S
O90 Cd86 2.273 . S
O90 Cd88 2.411 . S
O90 C93 1.320 . S
O91 Cd88 2.333 . S
O91 C93 1.214 . S
O92 Cd88 2.352 . S
O92 C95 1.258 . S
C93 O90 1.320 . S
C93 O91 1.214 . S
O94 Cd86 2.277 . S
O94 C89 1.209 . S
C95 O92 1.258 . S
C95 O97 1.282 . S
O96 Cd88 2.277 . S
O96 C89 1.226 . S
O97 Cd88 2.356 . S
O97 C95 1.282 . S
C98 O99 1.306 . S
C98 O101 1.160 . S
O99 C98 1.306 . S
O99 Cd100 2.228 . S
Cd100 O99 2.228 . S
Cd100 O104 2.273 . S
Cd100 O108 2.277 . S
O101 C98 1.160 . S
O101 Cd102 2.203 . S
Cd102 O101 2.203 . S
Cd102 O104 2.411 . S
Cd102 O105 2.333 . S
Cd102 O106 2.352 . S
Cd102 O110 2.277 . S
Cd102 O111 2.356 . S
C103 O108 1.209 . S
C103 O110 1.226 . S
O104 Cd100 2.273 . S
O104 Cd102 2.411 . S
O104 C107 1.320 . S
O105 Cd102 2.333 . S
O105 C107 1.214 . S
O106 Cd102 2.352 . S
O106 C109 1.258 . S
C107 O104 1.320 . S
C107 O105 1.214 . S
O108 Cd100 2.277 . S
O108 C103 1.209 . S
C109 O106 1.258 . S
C109 O111 1.282 . S
O110 Cd102 2.277 . S
O110 C103 1.226 . S
O111 Cd102 2.356 . S
O111 C109 1.282 . S
C112 O113 1.306 . S
C112 O115 1.160 . S
O113 C112 1.306 . S
O113 Cd114 2.228 . S
Cd114 O113 2.228 . S
Cd114 O118 2.273 . S
Cd114 O122 2.277 . S
O115 C112 1.160 . S
O115 Cd116 2.203 . S
Cd116 O115 2.203 . S
Cd116 O118 2.411 . S
Cd116 O119 2.333 . S
Cd116 O120 2.352 . S
Cd116 O124 2.277 . S
Cd116 O125 2.356 . S
C117 O122 1.209 . S
C117 O124 1.226 . S
O118 Cd114 2.273 . S
O118 Cd116 2.411 . S
O118 C121 1.320 . S
O119 Cd116 2.333 . S
O119 C121 1.214 . S
O120 Cd116 2.352 . S
O120 C123 1.258 . S
C121 O118 1.320 . S
C121 O119 1.214 . S
O122 Cd114 2.277 . S
O122 C117 1.209 . S
C123 O120 1.258 . S
C123 O125 1.282 . S
O124 Cd116 2.277 . S
O124 C117 1.226 . S
O125 Cd116 2.356 . S
O125 C123 1.282 . S
C126 O127 1.306 . S
C126 O129 1.160 . S
O127 C126 1.306 . S
O127 Cd128 2.228 . S
Cd128 O127 2.228 . S
Cd128 O132 2.273 . S
Cd128 O136 2.277 . S
O129 C126 1.160 . S
O129 Cd130 2.203 . S
Cd130 O129 2.203 . S
Cd130 O132 2.411 . S
Cd130 O133 2.333 . S
Cd130 O134 2.352 . S
Cd130 O138 2.277 . S
Cd130 O139 2.356 1_554 S
C131 O136 1.209 . S
C131 O138 1.226 . S
O132 Cd128 2.273 . S
O132 Cd130 2.411 . S
O132 C135 1.320 . S
O133 Cd130 2.333 . S
O133 C135 1.214 . S
O134 Cd130 2.352 . S
O134 C137 1.258 1_554 S
C135 O132 1.320 . S
C135 O133 1.214 . S
O136 Cd128 2.277 . S
O136 C131 1.209 . S
C137 O134 1.258 1_556 S
C137 O139 1.282 . S
O138 Cd130 2.277 . S
O138 C131 1.226 . S
O139 Cd130 2.356 1_556 S
O139 C137 1.282 . S
C140 O141 1.306 1_554 S
C140 O143 1.160 . S
O141 C140 1.306 1_556 S
O141 Cd142 2.228 . S
Cd142 O141 2.228 . S
Cd142 O146 2.273 . S
Cd142 O150 2.277 . S
O143 C140 1.160 . S
O143 Cd144 2.203 . S
Cd144 O143 2.203 . S
Cd144 O146 2.411 1_554 S
Cd144 O147 2.333 1_554 S
Cd144 O148 2.352 . S
Cd144 O152 2.277 . S
Cd144 O153 2.356 . S
C145 O150 1.209 . S
C145 O152 1.226 1_556 S
O146 Cd142 2.273 . S
O146 Cd144 2.411 1_556 S
O146 C149 1.320 . S
O147 Cd144 2.333 1_556 S
O147 C149 1.214 . S
O148 Cd144 2.352 . S
O148 C151 1.258 . S
C149 O146 1.320 . S
C149 O147 1.214 . S
O150 Cd142 2.277 . S
O150 C145 1.209 . S
C151 O148 1.258 . S
C151 O153 1.282 . S
O152 Cd144 2.277 . S
O152 C145 1.226 1_554 S
O153 Cd144 2.356 . S
O153 C151 1.282 . S
C154 O155 1.306 . S
C154 O157 1.160 . S
O155 C154 1.306 . S
O155 Cd156 2.228 . S
Cd156 O155 2.228 . S
Cd156 O160 2.273 . S
Cd156 O164 2.277 . S
O157 C154 1.160 . S
O157 Cd158 2.203 . S
Cd158 O157 2.203 . S
Cd158 O160 2.411 . S
Cd158 O161 2.333 . S
Cd158 O162 2.352 . S
Cd158 O166 2.277 . S
Cd158 O167 2.356 . S
C159 O164 1.209 . S
C159 O166 1.226 . S
O160 Cd156 2.273 . S
O160 Cd158 2.411 . S
O160 C163 1.320 . S
O161 Cd158 2.333 . S
O161 C163 1.214 . S
O162 Cd158 2.352 . S
O162 C165 1.258 . S
C163 O160 1.320 . S
C163 O161 1.214 . S
O164 Cd156 2.277 . S
O164 C159 1.209 . S
C165 O162 1.258 . S
C165 O167 1.282 . S
O166 Cd158 2.277 . S
O166 C159 1.226 . S
O167 Cd158 2.356 . S
O167 C165 1.282 . S
C168 O169 1.306 . S
C168 O171 1.160 . S
O169 C168 1.306 . S
O169 Cd170 2.228 . S
Cd170 O169 2.228 . S
Cd170 O174 2.273 . S
Cd170 O178 2.277 . S
O171 C168 1.160 . S
O171 Cd172 2.203 . S
Cd172 O171 2.203 . S
Cd172 O174 2.411 . S
Cd172 O175 2.333 . S
Cd172 O176 2.352 . S
Cd172 O180 2.277 . S
Cd172 O181 2.356 . S
C173 O178 1.209 . S
C173 O180 1.226 . S
O174 Cd170 2.273 . S
O174 Cd172 2.411 . S
O174 C177 1.320 . S
O175 Cd172 2.333 . S
O175 C177 1.214 . S
O176 Cd172 2.352 . S
O176 C179 1.258 . S
C177 O174 1.320 . S
C177 O175 1.214 . S
O178 Cd170 2.277 . S
O178 C173 1.209 . S
C179 O176 1.258 . S
C179 O181 1.282 . S
O180 Cd172 2.277 . S
O180 C173 1.226 . S
O181 Cd172 2.356 . S
O181 C179 1.282 . S
C182 O183 1.306 . S
C182 O185 1.160 . S
O183 C182 1.306 . S
O183 Cd184 2.228 . S
Cd184 O183 2.228 . S
Cd184 O188 2.273 . S
Cd184 O192 2.277 1_455 S
O185 C182 1.160 . S
O185 Cd186 2.203 . S
Cd186 O185 2.203 . S
Cd186 O188 2.411 . S
Cd186 O189 2.333 1_455 S
Cd186 O190 2.352 . S
Cd186 O194 2.277 1_455 S
Cd186 O195 2.356 1_455 S
C187 O192 1.209 . S
C187 O194 1.226 . S
O188 Cd184 2.273 . S
O188 Cd186 2.411 . S
O188 C191 1.320 . S
O189 Cd186 2.333 1_655 S
O189 C191 1.214 1_655 S
O190 Cd186 2.352 . S
O190 C193 1.258 . S
C191 O188 1.320 . S
C191 O189 1.214 1_455 S
O192 Cd184 2.277 1_655 S
O192 C187 1.209 . S
C193 O190 1.258 . S
C193 O195 1.282 1_455 S
O194 Cd186 2.277 1_655 S
O194 C187 1.226 . S
O195 Cd186 2.356 1_655 S
O195 C193 1.282 1_655 S
C196 O197 1.306 . S
C196 O199 1.160 . S
O197 C196 1.306 . S
O197 Cd198 2.228 . S
Cd198 O197 2.228 . S
Cd198 O202 2.273 . S
Cd198 O206 2.277 . S
O199 C196 1.160 . S
O199 Cd200 2.203 . S
Cd200 O199 2.203 . S
Cd200 O202 2.411 . S
Cd200 O203 2.333 . S
Cd200 O204 2.352 . S
Cd200 O208 2.277 . S
Cd200 O209 2.356 . S
C201 O206 1.209 . S
C201 O208 1.226 . S
O202 Cd198 2.273 . S
O202 Cd200 2.411 . S
O202 C205 1.320 . S
O203 Cd200 2.333 . S
O203 C205 1.214 . S
O204 Cd200 2.352 . S
O204 C207 1.258 . S
C205 O202 1.320 . S
C205 O203 1.214 . S
O206 Cd198 2.277 . S
O206 C201 1.209 . S
C207 O204 1.258 . S
C207 O209 1.282 . S
O208 Cd200 2.277 . S
O208 C201 1.226 . S
O209 Cd200 2.356 . S
O209 C207 1.282 . S
C210 O211 1.306 . S
C210 O213 1.160 . S
O211 C210 1.306 . S
O211 Cd212 2.228 . S
Cd212 O211 2.228 . S
Cd212 O216 2.273 . S
Cd212 O220 2.277 1_455 S
O213 C210 1.160 . S
O213 Cd214 2.203 . S
Cd214 O213 2.203 . S
Cd214 O216 2.411 . S
Cd214 O217 2.333 1_455 S
Cd214 O218 2.352 . S
Cd214 O222 2.277 1_455 S
Cd214 O223 2.356 1_455 S
C215 O220 1.209 . S
C215 O222 1.226 . S
O216 Cd212 2.273 . S
O216 Cd214 2.411 . S
O216 C219 1.320 . S
O217 Cd214 2.333 1_655 S
O217 C219 1.214 1_655 S
O218 Cd214 2.352 . S
O218 C221 1.258 . S
C219 O216 1.320 . S
C219 O217 1.214 1_455 S
O220 Cd212 2.277 1_655 S
O220 C215 1.209 . S
C221 O218 1.258 . S
C221 O223 1.282 1_455 S
O222 Cd214 2.277 1_655 S
O222 C215 1.226 . S
O223 Cd214 2.356 1_655 S
O223 C221 1.282 1_655 S
H224 C232 0.950 . S
H225 C237 0.950 . S
H226 C234 0.950 . S
H227 C236 0.950 . S
H228 C238 0.950 . S
H229 C240 0.950 . S
H230 C242 0.950 . S
H231 C243 0.950 . S
C232 H224 0.950 . S
C232 C233 1.386 . S
C232 C234 1.391 . S
C233 C232 1.386 . S
C233 C237 1.393 . S
C234 H226 0.950 . S
C234 C232 1.391 . S
C234 C235 1.400 . S
C235 C234 1.400 . S
C235 C236 1.398 . S
C235 C241 1.491 . S
C236 H227 0.950 . S
C236 C235 1.398 . S
C236 C237 1.391 . S
C237 H225 0.950 . S
C237 C233 1.393 . S
C237 C236 1.391 . S
C238 H228 0.950 . S
C238 C239 1.386 . S
C238 C240 1.391 . S
C239 C238 1.386 . S
C239 C243 1.393 . S
C240 H229 0.950 . S
C240 C238 1.391 . S
C240 C241 1.400 . S
C241 C235 1.491 . S
C241 C240 1.400 . S
C241 C242 1.398 . S
C242 H230 0.950 . S
C242 C241 1.398 . S
C242 C243 1.391 . S
C243 H231 0.950 . S
C243 C239 1.393 . S
C243 C242 1.391 . S
H244 C252 0.950 . S
H245 C257 0.950 . S
H246 C254 0.950 . S
H247 C256 0.950 . S
H248 C258 0.950 . S
H249 C260 0.950 . S
H250 C262 0.950 . S
H251 C263 0.950 . S
C252 H244 0.950 . S
C252 C253 1.386 . S
C252 C254 1.391 . S
C253 C252 1.386 . S
C253 C257 1.393 . S
C254 H246 0.950 . S
C254 C252 1.391 . S
C254 C255 1.400 . S
C255 C254 1.400 . S
C255 C256 1.398 . S
C255 C261 1.491 . S
C256 H247 0.950 . S
C256 C255 1.398 . S
C256 C257 1.391 . S
C257 H245 0.950 . S
C257 C253 1.393 . S
C257 C256 1.391 . S
C258 H248 0.950 . S
C258 C259 1.386 . S
C258 C260 1.391 . S
C259 C258 1.386 . S
C259 C263 1.393 . S
C260 H249 0.950 . S
C260 C258 1.391 . S
C260 C261 1.400 . S
C261 C255 1.491 . S
C261 C260 1.400 . S
C261 C262 1.398 . S
C262 H250 0.950 . S
C262 C261 1.398 . S
C262 C263 1.391 . S
C263 H251 0.950 . S
C263 C259 1.393 . S
C263 C262 1.391 . S
H264 C272 0.950 . S
H265 C277 0.950 . S
H266 C274 0.950 . S
H267 C276 0.950 . S
H268 C278 0.950 . S
H269 C280 0.950 . S
H270 C282 0.950 . S
H271 C283 0.950 . S
C272 H264 0.950 . S
C272 C273 1.386 . S
C272 C274 1.391 . S
C273 C272 1.386 . S
C273 C277 1.393 . S
C274 H266 0.950 . S
C274 C272 1.391 . S
C274 C275 1.400 . S
C275 C274 1.400 . S
C275 C276 1.398 . S
C275 C281 1.491 . S
C276 H267 0.950 . S
C276 C275 1.398 . S
C276 C277 1.391 . S
C277 H265 0.950 . S
C277 C273 1.393 . S
C277 C276 1.391 . S
C278 H268 0.950 . S
C278 C279 1.386 . S
C278 C280 1.391 . S
C279 C278 1.386 . S
C279 C283 1.393 . S
C280 H269 0.950 . S
C280 C278 1.391 . S
C280 C281 1.400 . S
C281 C275 1.491 . S
C281 C280 1.400 . S
C281 C282 1.398 . S
C282 H270 0.950 . S
C282 C281 1.398 . S
C282 C283 1.391 . S
C283 H271 0.950 . S
C283 C279 1.393 . S
C283 C282 1.391 . S
H284 C292 0.950 . S
H285 C297 0.950 . S
H286 C294 0.950 . S
H287 C296 0.950 1_554 S
H288 C298 0.950 . S
H289 C300 0.950 1_554 S
H290 C302 0.950 . S
H291 C303 0.950 . S
C292 H284 0.950 . S
C292 C293 1.386 . S
C292 C294 1.391 . S
C293 C292 1.386 . S
C293 C297 1.393 1_556 S
C294 H286 0.950 . S
C294 C292 1.391 . S
C294 C295 1.400 . S
C295 C294 1.400 . S
C295 C296 1.398 . S
C295 C301 1.491 . S
C296 H287 0.950 1_556 S
C296 C295 1.398 . S
C296 C297 1.391 1_556 S
C297 H285 0.950 . S
C297 C293 1.393 1_554 S
C297 C296 1.391 1_554 S
C298 H288 0.950 . S
C298 C299 1.386 . S
C298 C300 1.391 . S
C299 C298 1.386 . S
C299 C303 1.393 . S
C300 H289 0.950 1_556 S
C300 C298 1.391 . S
C300 C301 1.400 . S
C301 C295 1.491 . S
C301 C300 1.400 . S
C301 C302 1.398 . S
C302 H290 0.950 . S
C302 C301 1.398 . S
C302 C303 1.391 . S
C303 H291 0.950 . S
C303 C299 1.393 . S
C303 C302 1.391 . S
H304 C312 0.950 . S
H305 C317 0.950 . S
H306 C314 0.950 . S
H307 C316 0.950 . S
H308 C318 0.950 1_554 S
H309 C320 0.950 . S
H310 C322 0.950 . S
H311 C323 0.950 . S
C312 H304 0.950 . S
C312 C313 1.386 . S
C312 C314 1.391 . S
C313 C312 1.386 . S
C313 C317 1.393 . S
C314 H306 0.950 . S
C314 C312 1.391 . S
C314 C315 1.400 . S
C315 C314 1.400 . S
C315 C316 1.398 . S
C315 C321 1.491 . S
C316 H307 0.950 . S
C316 C315 1.398 . S
C316 C317 1.391 . S
C317 H305 0.950 . S
C317 C313 1.393 . S
C317 C316 1.391 . S
C318 H308 0.950 1_556 S
C318 C319 1.386 . S
C318 C320 1.391 . S
C319 C318 1.386 . S
C319 C323 1.393 . S
C320 H309 0.950 . S
C320 C318 1.391 . S
C320 C321 1.400 . S
C321 C315 1.491 . S
C321 C320 1.400 . S
C321 C322 1.398 . S
C322 H310 0.950 . S
C322 C321 1.398 . S
C322 C323 1.391 . S
C323 H311 0.950 . S
C323 C319 1.393 . S
C323 C322 1.391 . S
H324 C332 0.950 . S
H325 C337 0.950 . S
H326 C334 0.950 . S
H327 C336 0.950 . S
H328 C338 0.950 . S
H329 C340 0.950 . S
H330 C342 0.950 . S
H331 C343 0.950 . S
C332 H324 0.950 . S
C332 C333 1.386 . S
C332 C334 1.391 . S
C333 C332 1.386 . S
C333 C337 1.393 . S
C334 H326 0.950 . S
C334 C332 1.391 . S
C334 C335 1.400 . S
C335 C334 1.400 . S
C335 C336 1.398 . S
C335 C341 1.491 . S
C336 H327 0.950 . S
C336 C335 1.398 . S
C336 C337 1.391 . S
C337 H325 0.950 . S
C337 C333 1.393 . S
C337 C336 1.391 . S
C338 H328 0.950 . S
C338 C339 1.386 . S
C338 C340 1.391 . S
C339 C338 1.386 . S
C339 C343 1.393 . S
C340 H329 0.950 . S
C340 C338 1.391 . S
C340 C341 1.400 . S
C341 C335 1.491 . S
C341 C340 1.400 . S
C341 C342 1.398 . S
C342 H330 0.950 . S
C342 C341 1.398 . S
C342 C343 1.391 . S
C343 H331 0.950 . S
C343 C339 1.393 . S
C343 C342 1.391 . S
H344 C352 0.950 . S
H345 C357 0.950 . S
H346 C354 0.950 . S
H347 C356 0.950 . S
H348 C358 0.950 . S
H349 C360 0.950 . S
H350 C362 0.950 . S
H351 C363 0.950 . S
C352 H344 0.950 . S
C352 C353 1.386 . S
C352 C354 1.391 . S
C353 C352 1.386 . S
C353 C357 1.393 . S
C354 H346 0.950 . S
C354 C352 1.391 . S
C354 C355 1.400 . S
C355 C354 1.400 . S
C355 C356 1.398 . S
C355 C361 1.491 . S
C356 H347 0.950 . S
C356 C355 1.398 . S
C356 C357 1.391 . S
C357 H345 0.950 . S
C357 C353 1.393 . S
C357 C356 1.391 . S
C358 H348 0.950 . S
C358 C359 1.386 . S
C358 C360 1.391 . S
C359 C358 1.386 . S
C359 C363 1.393 . S
C360 H349 0.950 . S
C360 C358 1.391 . S
C360 C361 1.400 . S
C361 C355 1.491 . S
C361 C360 1.400 . S
C361 C362 1.398 . S
C362 H350 0.950 . S
C362 C361 1.398 . S
C362 C363 1.391 . S
C363 H351 0.950 . S
C363 C359 1.393 . S
C363 C362 1.391 . S
H364 C372 0.950 . S
H365 C377 0.950 . S
H366 C374 0.950 . S
H367 C376 0.950 . S
H368 C378 0.950 . S
H369 C380 0.950 . S
H370 C382 0.950 . S
H371 C383 0.950 . S
C372 H364 0.950 . S
C372 C373 1.386 . S
C372 C374 1.391 . S
C373 C372 1.386 . S
C373 C377 1.393 . S
C374 H366 0.950 . S
C374 C372 1.391 . S
C374 C375 1.400 . S
C375 C374 1.400 . S
C375 C376 1.398 . S
C375 C381 1.491 . S
C376 H367 0.950 . S
C376 C375 1.398 . S
C376 C377 1.391 . S
C377 H365 0.950 . S
C377 C373 1.393 . S
C377 C376 1.391 . S
C378 H368 0.950 . S
C378 C379 1.386 . S
C378 C380 1.391 . S
C379 C378 1.386 . S
C379 C383 1.393 . S
C380 H369 0.950 . S
C380 C378 1.391 . S
C380 C381 1.400 . S
C381 C375 1.491 . S
C381 C380 1.400 . S
C381 C382 1.398 . S
C382 H370 0.950 . S
C382 C381 1.398 . S
C382 C383 1.391 . S
C383 H371 0.950 . S
C383 C379 1.393 . S
C383 C382 1.391 . S
H384 C392 0.950 . S
H385 C397 0.950 . S
H386 C394 0.950 . S
H387 C396 0.950 . S
H388 C398 0.950 . S
H389 C400 0.950 . S
H390 C402 0.950 . S
H391 C403 0.950 . S
C392 H384 0.950 . S
C392 C393 1.386 . S
C392 C394 1.391 . S
C393 C392 1.386 . S
C393 C397 1.393 . S
C394 H386 0.950 . S
C394 C392 1.391 . S
C394 C395 1.400 . S
C395 C394 1.400 . S
C395 C396 1.398 . S
C395 C401 1.491 . S
C396 H387 0.950 . S
C396 C395 1.398 . S
C396 C397 1.391 . S
C397 H385 0.950 . S
C397 C393 1.393 . S
C397 C396 1.391 . S
C398 H388 0.950 . S
C398 C399 1.386 1_554 S
C398 C400 1.391 . S
C399 C398 1.386 1_556 S
C399 C403 1.393 . S
C400 H389 0.950 . S
C400 C398 1.391 . S
C400 C401 1.400 1_554 S
C401 C395 1.491 . S
C401 C400 1.400 1_556 S
C401 C402 1.398 . S
C402 H390 0.950 . S
C402 C401 1.398 . S
C402 C403 1.391 . S
C403 H391 0.950 . S
C403 C399 1.393 . S
C403 C402 1.391 . S
H404 C412 0.950 . S
H405 C417 0.950 . S
H406 C414 0.950 . S
H407 C416 0.950 . S
H408 C418 0.950 . S
H409 C420 0.950 . S
H410 C422 0.950 . S
H411 C423 0.950 . S
C412 H404 0.950 . S
C412 C413 1.386 . S
C412 C414 1.391 . S
C413 C412 1.386 . S
C413 C417 1.393 . S
C414 H406 0.950 . S
C414 C412 1.391 . S
C414 C415 1.400 . S
C415 C414 1.400 . S
C415 C416 1.398 . S
C415 C421 1.491 . S
C416 H407 0.950 . S
C416 C415 1.398 . S
C416 C417 1.391 . S
C417 H405 0.950 . S
C417 C413 1.393 . S
C417 C416 1.391 . S
C418 H408 0.950 . S
C418 C419 1.386 . S
C418 C420 1.391 . S
C419 C418 1.386 . S
C419 C423 1.393 . S
C420 H409 0.950 . S
C420 C418 1.391 . S
C420 C421 1.400 . S
C421 C415 1.491 . S
C421 C420 1.400 . S
C421 C422 1.398 . S
C422 H410 0.950 . S
C422 C421 1.398 . S
C422 C423 1.391 . S
C423 H411 0.950 . S
C423 C419 1.393 . S
C423 C422 1.391 . S
H424 C432 0.950 . S
H425 C437 0.950 . S
H426 C434 0.950 . S
H427 C436 0.950 . S
H428 C438 0.950 . S
H429 C440 0.950 . S
H430 C442 0.950 . S
H431 C443 0.950 . S
C432 H424 0.950 . S
C432 C433 1.386 . S
C432 C434 1.391 . S
C433 C432 1.386 . S
C433 C437 1.393 . S
C434 H426 0.950 . S
C434 C432 1.391 . S
C434 C435 1.400 . S
C435 C434 1.400 . S
C435 C436 1.398 . S
C435 C441 1.491 . S
C436 H427 0.950 . S
C436 C435 1.398 . S
C436 C437 1.391 . S
C437 H425 0.950 . S
C437 C433 1.393 . S
C437 C436 1.391 . S
C438 H428 0.950 . S
C438 C439 1.386 . S
C438 C440 1.391 . S
C439 C438 1.386 . S
C439 C443 1.393 . S
C440 H429 0.950 . S
C440 C438 1.391 . S
C440 C441 1.400 . S
C441 C435 1.491 . S
C441 C440 1.400 . S
C441 C442 1.398 . S
C442 H430 0.950 . S
C442 C441 1.398 . S
C442 C443 1.391 . S
C443 H431 0.950 . S
C443 C439 1.393 . S
C443 C442 1.391 . S
H444 C452 0.950 . S
H445 C457 0.950 . S
H446 C454 0.950 . S
H447 C456 0.950 . S
H448 C458 0.950 . S
H449 C460 0.950 . S
H450 C462 0.950 . S
H451 C463 0.950 . S
C452 H444 0.950 . S
C452 C453 1.386 . S
C452 C454 1.391 . S
C453 C452 1.386 . S
C453 C457 1.393 . S
C454 H446 0.950 . S
C454 C452 1.391 . S
C454 C455 1.400 . S
C455 C454 1.400 . S
C455 C456 1.398 . S
C455 C461 1.491 . S
C456 H447 0.950 . S
C456 C455 1.398 . S
C456 C457 1.391 . S
C457 H445 0.950 . S
C457 C453 1.393 . S
C457 C456 1.391 . S
C458 H448 0.950 . S
C458 C459 1.386 . S
C458 C460 1.391 . S
C459 C458 1.386 . S
C459 C463 1.393 . S
C460 H449 0.950 . S
C460 C458 1.391 . S
C460 C461 1.400 . S
C461 C455 1.491 . S
C461 C460 1.400 . S
C461 C462 1.398 . S
C462 H450 0.950 . S
C462 C461 1.398 . S
C462 C463 1.391 . S
C463 H451 0.950 . S
C463 C459 1.393 . S
C463 C462 1.391 . S
H464 C472 0.950 . S
H465 C477 0.950 . S
H466 C474 0.950 . S
H467 C476 0.950 . S
H468 C478 0.950 . S
H469 C480 0.950 . S
H470 C482 0.950 . S
H471 C483 0.950 . S
C472 H464 0.950 . S
C472 C473 1.386 . S
C472 C474 1.391 . S
C473 C472 1.386 . S
C473 C477 1.393 . S
C474 H466 0.950 . S
C474 C472 1.391 . S
C474 C475 1.400 . S
C475 C474 1.400 . S
C475 C476 1.398 . S
C475 C481 1.491 . S
C476 H467 0.950 . S
C476 C475 1.398 . S
C476 C477 1.391 . S
C477 H465 0.950 . S
C477 C473 1.393 . S
C477 C476 1.391 . S
C478 H468 0.950 . S
C478 C479 1.386 . S
C478 C480 1.391 . S
C479 C478 1.386 . S
C479 C483 1.393 . S
C480 H469 0.950 . S
C480 C478 1.391 . S
C480 C481 1.400 . S
C481 C475 1.491 . S
C481 C480 1.400 . S
C481 C482 1.398 . S
C482 H470 0.950 . S
C482 C481 1.398 . S
C482 C483 1.391 . S
C483 H471 0.950 . S
C483 C479 1.393 . S
C483 C482 1.391 . S
H484 C492 0.950 . S
H485 C497 0.950 . S
H486 C494 0.950 . S
H487 C496 0.950 . S
H488 C498 0.950 . S
H489 C500 0.950 . S
H490 C502 0.950 . S
H491 C503 0.947 1_554 S
C492 H484 0.950 . S
C492 C493 1.386 . S
C492 C494 1.391 . S
C493 C492 1.386 . S
C493 C497 1.393 . S
C494 H486 0.950 . S
C494 C492 1.391 . S
C494 C495 1.400 . S
C495 C494 1.400 . S
C495 C496 1.398 . S
C495 C501 1.491 . S
C496 H487 0.950 . S
C496 C495 1.398 . S
C496 C497 1.391 . S
C497 H485 0.950 . S
C497 C493 1.393 . S
C497 C496 1.391 . S
C498 H488 0.950 . S
C498 C499 1.384 1_556 S
C498 C500 1.391 . S
C499 C498 1.384 1_554 S
C499 C503 1.392 1_554 S
C500 H489 0.950 . S
C500 C498 1.391 . S
C500 C501 1.400 . S
C501 C495 1.491 . S
C501 C500 1.400 . S
C501 C502 1.398 . S
C502 H490 0.950 . S
C502 C501 1.398 . S
C502 C503 1.391 . S
C503 H491 0.947 1_556 S
C503 C499 1.392 1_556 S
C503 C502 1.391 . S
H504 C512 0.950 . S
H505 C517 0.950 . S
H506 C514 0.950 . S
H507 C516 0.950 . S
H508 C518 0.950 . S
H509 C520 0.950 . S
H510 C522 0.950 . S
H511 C523 0.950 . S
C512 H504 0.950 . S
C512 C513 1.386 . S
C512 C514 1.391 . S
C513 C512 1.386 . S
C513 C517 1.393 . S
C514 H506 0.950 . S
C514 C512 1.391 . S
C514 C515 1.400 . S
C515 C514 1.400 . S
C515 C516 1.398 . S
C515 C521 1.491 . S
C516 H507 0.950 . S
C516 C515 1.398 . S
C516 C517 1.391 . S
C517 H505 0.950 . S
C517 C513 1.393 . S
C517 C516 1.391 . S
C518 H508 0.950 . S
C518 C519 1.386 . S
C518 C520 1.391 . S
C519 C518 1.386 . S
C519 C523 1.393 . S
C520 H509 0.950 . S
C520 C518 1.391 . S
C520 C521 1.400 . S
C521 C515 1.491 . S
C521 C520 1.400 . S
C521 C522 1.398 . S
C522 H510 0.950 . S
C522 C521 1.398 . S
C522 C523 1.391 . S
C523 H511 0.950 . S
C523 C519 1.393 . S
C523 C522 1.391 . S
H524 C532 0.950 . S
H525 C537 0.950 . S
H526 C534 0.950 . S
H527 C536 0.950 . S
H528 C538 0.950 . S
H529 C540 0.950 . S
H530 C542 0.950 . S
H531 C543 0.950 . S
C532 H524 0.950 . S
C532 C533 1.386 . S
C532 C534 1.391 . S
C533 C532 1.386 . S
C533 C537 1.393 . S
C534 H526 0.950 . S
C534 C532 1.391 . S
C534 C535 1.400 . S
C535 C534 1.400 . S
C535 C536 1.398 . S
C535 C541 1.491 . S
C536 H527 0.950 . S
C536 C535 1.398 . S
C536 C537 1.391 . S
C537 H525 0.950 . S
C537 C533 1.393 . S
C537 C536 1.391 . S
C538 H528 0.950 . S
C538 C539 1.386 . S
C538 C540 1.391 . S
C539 C538 1.386 . S
C539 C543 1.393 . S
C540 H529 0.950 . S
C540 C538 1.391 . S
C540 C541 1.400 . S
C541 C535 1.491 . S
C541 C540 1.400 . S
C541 C542 1.398 . S
C542 H530 0.950 . S
C542 C541 1.398 . S
C542 C543 1.391 . S
C543 H531 0.950 . S
C543 C539 1.393 . S
C543 C542 1.391 . S
H544 C552 0.950 . S
H545 C557 0.950 . S
H546 C554 0.950 . S
H547 C556 0.950 . S
H548 C558 0.950 . S
H549 C560 0.950 . S
H550 C562 0.950 . S
H551 C563 0.950 . S
C552 H544 0.950 . S
C552 C553 1.386 1_655 S
C552 C554 1.391 . S
C553 C552 1.386 1_455 S
C553 C557 1.393 . S
C554 H546 0.950 . S
C554 C552 1.391 . S
C554 C555 1.400 1_655 S
C555 C554 1.400 1_455 S
C555 C556 1.398 . S
C555 C561 1.491 . S
C556 H547 0.950 . S
C556 C555 1.398 . S
C556 C557 1.391 . S
C557 H545 0.950 . S
C557 C553 1.393 . S
C557 C556 1.391 . S
C558 H548 0.950 . S
C558 C559 1.386 . S
C558 C560 1.391 1_556 S
C559 C558 1.386 . S
C559 C563 1.393 1_455 S
C560 H549 0.950 . S
C560 C558 1.391 1_554 S
C560 C561 1.400 . S
C561 C555 1.491 . S
C561 C560 1.400 . S
C561 C562 1.398 1_455 S
C562 H550 0.950 . S
C562 C561 1.398 1_655 S
C562 C563 1.391 1_554 S
C563 H551 0.950 . S
C563 C559 1.393 1_655 S
C563 C562 1.391 1_556 S
H564 C572 0.950 . S
H565 C577 0.950 . S
H566 C574 0.950 . S
H567 C576 0.950 . S
H568 C578 0.950 . S
H569 C580 0.950 . S
H570 C582 0.950 . S
H571 C583 0.950 . S
C572 H564 0.950 . S
C572 C573 1.386 . S
C572 C574 1.391 . S
C573 C572 1.386 . S
C573 C577 1.393 . S
C574 H566 0.950 . S
C574 C572 1.391 . S
C574 C575 1.400 . S
C575 C574 1.400 . S
C575 C576 1.398 . S
C575 C581 1.491 . S
C576 H567 0.950 . S
C576 C575 1.398 . S
C576 C577 1.391 . S
C577 H565 0.950 . S
C577 C573 1.393 . S
C577 C576 1.391 . S
C578 H568 0.950 . S
C578 C579 1.386 . S
C578 C580 1.391 . S
C579 C578 1.386 . S
C579 C583 1.393 . S
C580 H569 0.950 . S
C580 C578 1.391 . S
C580 C581 1.400 . S
C581 C575 1.491 . S
C581 C580 1.400 . S
C581 C582 1.398 . S
C582 H570 0.950 . S
C582 C581 1.398 . S
C582 C583 1.391 . S
C583 H571 0.950 . S
C583 C579 1.393 . S
C583 C582 1.391 . S
H584 C592 0.950 . S
H585 C597 0.950 . S
H586 C594 0.950 . S
H587 C596 0.950 . S
H588 C598 0.950 . S
H589 C600 0.950 . S
H590 C602 0.950 . S
H591 C603 0.950 . S
C592 H584 0.950 . S
C592 C593 1.386 . S
C592 C594 1.391 . S
C593 C592 1.386 . S
C593 C597 1.393 . S
C594 H586 0.950 . S
C594 C592 1.391 . S
C594 C595 1.400 . S
C595 C594 1.400 . S
C595 C596 1.398 . S
C595 C601 1.491 . S
C596 H587 0.950 . S
C596 C595 1.398 . S
C596 C597 1.391 . S
C597 H585 0.950 . S
C597 C593 1.393 . S
C597 C596 1.391 . S
C598 H588 0.950 . S
C598 C599 1.386 . S
C598 C600 1.391 . S
C599 C598 1.386 . S
C599 C603 1.393 . S
C600 H589 0.950 . S
C600 C598 1.391 . S
C600 C601 1.400 . S
C601 C595 1.491 . S
C601 C600 1.400 . S
C601 C602 1.398 . S
C602 H590 0.950 . S
C602 C601 1.398 . S
C602 C603 1.391 . S
C603 H591 0.950 . S
C603 C599 1.393 . S
C603 C602 1.391 . S
H604 C612 0.950 . S
H605 C617 0.950 . S
H606 C614 0.950 . S
H607 C616 0.950 . S
H608 C618 0.950 . S
H609 C620 0.950 . S
H610 C622 0.950 . S
H611 C623 0.950 . S
C612 H604 0.950 . S
C612 C613 1.386 . S
C612 C614 1.391 . S
C613 C612 1.386 . S
C613 C617 1.393 . S
C614 H606 0.950 . S
C614 C612 1.391 . S
C614 C615 1.400 . S
C615 C614 1.400 . S
C615 C616 1.398 . S
C615 C621 1.491 . S
C616 H607 0.950 . S
C616 C615 1.398 . S
C616 C617 1.391 . S
C617 H605 0.950 . S
C617 C613 1.393 . S
C617 C616 1.391 . S
C618 H608 0.950 . S
C618 C619 1.386 . S
C618 C620 1.391 . S
C619 C618 1.386 . S
C619 C623 1.393 . S
C620 H609 0.950 . S
C620 C618 1.391 . S
C620 C621 1.400 . S
C621 C615 1.491 . S
C621 C620 1.400 . S
C621 C622 1.398 . S
C622 H610 0.950 . S
C622 C621 1.398 . S
C622 C623 1.391 . S
C623 H611 0.950 . S
C623 C619 1.393 . S
C623 C622 1.391 . S
H624 C632 0.950 . S
H625 C637 0.950 . S
H626 C634 0.950 . S
H627 C636 0.950 . S
H628 C638 0.950 . S
H629 C640 0.950 . S
H630 C642 0.950 . S
H631 C643 0.950 . S
C632 H624 0.950 . S
C632 C633 1.386 . S
C632 C634 1.391 . S
C633 C632 1.386 . S
C633 C637 1.393 . S
C634 H626 0.950 . S
C634 C632 1.391 . S
C634 C635 1.400 . S
C635 C634 1.400 . S
C635 C636 1.398 . S
C635 C641 1.491 . S
C636 H627 0.950 . S
C636 C635 1.398 . S
C636 C637 1.391 . S
C637 H625 0.950 . S
C637 C633 1.393 . S
C637 C636 1.391 . S
C638 H628 0.950 . S
C638 C639 1.386 . S
C638 C640 1.391 . S
C639 C638 1.386 . S
C639 C643 1.393 . S
C640 H629 0.950 . S
C640 C638 1.391 . S
C640 C641 1.400 . S
C641 C635 1.491 . S
C641 C640 1.400 . S
C641 C642 1.398 . S
C642 H630 0.950 . S
C642 C641 1.398 . S
C642 C643 1.391 . S
C643 H631 0.950 . S
C643 C639 1.393 . S
C643 C642 1.391 . S
H644 C652 0.950 . S
H645 C657 0.950 . S
H646 C654 0.950 . S
H647 C656 0.950 . S
H648 C658 0.950 . S
H649 C660 0.950 . S
H650 C662 0.950 . S
H651 C663 0.950 . S
C652 H644 0.950 . S
C652 C653 1.386 . S
C652 C654 1.391 . S
C653 C652 1.386 . S
C653 C657 1.393 . S
C654 H646 0.950 . S
C654 C652 1.391 . S
C654 C655 1.400 . S
C655 C654 1.400 . S
C655 C656 1.398 . S
C655 C661 1.491 . S
C656 H647 0.950 . S
C656 C655 1.398 . S
C656 C657 1.391 . S
C657 H645 0.950 . S
C657 C653 1.393 . S
C657 C656 1.391 . S
C658 H648 0.950 . S
C658 C659 1.386 . S
C658 C660 1.391 . S
C659 C658 1.386 . S
C659 C663 1.393 . S
C660 H649 0.950 . S
C660 C658 1.391 . S
C660 C661 1.400 . S
C661 C655 1.491 . S
C661 C660 1.400 . S
C661 C662 1.398 . S
C662 H650 0.950 . S
C662 C661 1.398 . S
C662 C663 1.391 . S
C663 H651 0.950 . S
C663 C659 1.393 . S
C663 C662 1.391 . S
H664 C672 0.950 . S
H665 C677 0.950 . S
H666 C674 0.950 1_545 S
H667 C676 0.950 . S
H668 C678 0.950 . S
H669 C680 0.950 1_565 S
H670 C682 0.950 . S
H671 C683 0.950 . S
C672 H664 0.950 . S
C672 C673 1.386 . S
C672 C674 1.391 . S
C673 C672 1.386 . S
C673 C677 1.393 . S
C674 H666 0.950 1_565 S
C674 C672 1.391 . S
C674 C675 1.400 . S
C675 C674 1.400 . S
C675 C676 1.398 . S
C675 C681 1.491 1_565 S
C676 H667 0.950 . S
C676 C675 1.398 . S
C676 C677 1.391 . S
C677 H665 0.950 . S
C677 C673 1.393 . S
C677 C676 1.391 . S
C678 H668 0.950 . S
C678 C679 1.386 . S
C678 C680 1.391 . S
C679 C678 1.386 . S
C679 C683 1.393 . S
C680 H669 0.950 1_545 S
C680 C678 1.391 . S
C680 C681 1.400 . S
C681 C675 1.491 1_545 S
C681 C680 1.400 . S
C681 C682 1.398 . S
C682 H670 0.950 . S
C682 C681 1.398 . S
C682 C683 1.391 . S
C683 H671 0.950 . S
C683 C679 1.393 . S
C683 C682 1.391 . S
H684 C692 0.950 . S
H685 C697 0.950 . S
H686 C694 0.950 . S
H687 C696 0.950 . S
H688 C698 0.950 . S
H689 C700 0.950 . S
H690 C702 0.950 . S
H691 C703 0.950 . S
C692 H684 0.950 . S
C692 C693 1.386 . S
C692 C694 1.391 1_556 S
C693 C692 1.386 . S
C693 C697 1.392 1_655 S
C694 H686 0.950 . S
C694 C692 1.391 1_554 S
C694 C695 1.396 . S
C695 C694 1.396 . S
C695 C696 1.403 1_654 S
C695 C701 1.491 1_645 S
C696 H687 0.950 . S
C696 C695 1.403 1_456 S
C696 C697 1.391 . S
C697 H685 0.950 . S
C697 C693 1.392 1_455 S
C697 C696 1.391 . S
C698 H688 0.950 . S
C698 C699 1.398 . S
C698 C700 1.391 . S
C699 C698 1.398 . S
C699 C703 1.380 1_455 S
C700 H689 0.950 . S
C700 C698 1.391 . S
C700 C701 1.408 . S
C701 C695 1.491 1_465 S
C701 C700 1.408 . S
C701 C702 1.391 1_455 S
C702 H690 0.950 . S
C702 C701 1.391 1_655 S
C702 C703 1.391 . S
C703 H691 0.950 . S
C703 C699 1.380 1_655 S
C703 C702 1.391 . S
H704 C712 0.950 . S
H705 C717 0.950 . S
H706 C714 0.950 . S
H707 C716 0.950 . S
H708 C718 0.950 . S
H709 C720 0.950 . S
H710 C722 0.950 . S
H711 C723 0.950 . S
C712 H704 0.950 . S
C712 C713 1.386 1_455 S
C712 C714 1.391 . S
C713 C712 1.386 1_655 S
C713 C717 1.393 . S
C714 H706 0.950 . S
C714 C712 1.391 . S
C714 C715 1.400 1_455 S
C715 C714 1.400 1_655 S
C715 C716 1.398 . S
C715 C721 1.491 . S
C716 H707 0.950 . S
C716 C715 1.398 . S
C716 C717 1.391 . S
C717 H705 0.950 . S
C717 C713 1.393 . S
C717 C716 1.391 . S
C718 H708 0.950 . S
C718 C719 1.386 . S
C718 C720 1.391 . S
C719 C718 1.386 . S
C719 C723 1.393 1_655 S
C720 H709 0.950 . S
C720 C718 1.391 . S
C720 C721 1.400 . S
C721 C715 1.491 . S
C721 C720 1.400 . S
C721 C722 1.398 1_655 S
C722 H710 0.950 . S
C722 C721 1.398 1_455 S
C722 C723 1.391 . S
C723 H711 0.950 . S
C723 C719 1.393 1_455 S
C723 C722 1.391 . S
H724 C732 0.950 . S
H725 C737 0.950 . S
H726 C734 0.950 . S
H727 C736 0.950 . S
H728 C738 0.950 . S
H729 C740 0.950 . S
H730 C742 0.950 . S
H731 C743 0.950 . S
C732 H724 0.950 . S
C732 C733 1.386 . S
C732 C734 1.391 . S
C733 C732 1.386 . S
C733 C737 1.393 . S
C734 H726 0.950 . S
C734 C732 1.391 . S
C734 C735 1.400 . S
C735 C734 1.400 . S
C735 C736 1.398 . S
C735 C741 1.491 . S
C736 H727 0.950 . S
C736 C735 1.398 . S
C736 C737 1.391 . S
C737 H725 0.950 . S
C737 C733 1.393 . S
C737 C736 1.391 . S
C738 H728 0.950 . S
C738 C739 1.386 . S
C738 C740 1.391 . S
C739 C738 1.386 . S
C739 C743 1.393 . S
C740 H729 0.950 . S
C740 C738 1.391 . S
C740 C741 1.400 . S
C741 C735 1.491 . S
C741 C740 1.400 . S
C741 C742 1.398 . S
C742 H730 0.950 . S
C742 C741 1.398 . S
C742 C743 1.391 . S
C743 H731 0.950 . S
C743 C739 1.393 . S
C743 C742 1.391 . S
H744 C752 0.950 . S
H745 C757 0.950 . S
H746 C754 0.950 . S
H747 C756 0.950 . S
H748 C758 0.950 . S
H749 C760 0.950 . S
H750 C762 0.950 . S
H751 C763 0.950 . S
C752 H744 0.950 . S
C752 C753 1.386 . S
C752 C754 1.391 . S
C753 C752 1.386 . S
C753 C757 1.393 . S
C754 H746 0.950 . S
C754 C752 1.391 . S
C754 C755 1.400 . S
C755 C754 1.400 . S
C755 C756 1.398 . S
C755 C761 1.491 . S
C756 H747 0.950 . S
C756 C755 1.398 . S
C756 C757 1.391 . S
C757 H745 0.950 . S
C757 C753 1.393 . S
C757 C756 1.391 . S
C758 H748 0.950 . S
C758 C759 1.386 . S
C758 C760 1.391 . S
C759 C758 1.386 . S
C759 C763 1.393 . S
C760 H749 0.950 . S
C760 C758 1.391 . S
C760 C761 1.400 1_556 S
C761 C755 1.491 . S
C761 C760 1.400 1_554 S
C761 C762 1.398 . S
C762 H750 0.950 . S
C762 C761 1.398 . S
C762 C763 1.391 1_554 S
C763 H751 0.950 . S
C763 C759 1.393 . S
C763 C762 1.391 1_556 S
H764 C772 0.950 . S
H765 C777 0.950 . S
H766 C774 0.950 . S
H767 C776 0.950 . S
H768 C778 0.950 . S
H769 C780 0.950 . S
H770 C782 0.950 . S
H771 C783 0.950 . S
C772 H764 0.950 . S
C772 C773 1.386 . S
C772 C774 1.391 . S
C773 C772 1.386 . S
C773 C777 1.393 . S
C774 H766 0.950 . S
C774 C772 1.391 . S
C774 C775 1.400 . S
C775 C774 1.400 . S
C775 C776 1.398 . S
C775 C781 1.491 . S
C776 H767 0.950 . S
C776 C775 1.398 . S
C776 C777 1.391 . S
C777 H765 0.950 . S
C777 C773 1.393 . S
C777 C776 1.391 . S
C778 H768 0.950 . S
C778 C779 1.386 . S
C778 C780 1.391 . S
C779 C778 1.386 . S
C779 C783 1.393 . S
C780 H769 0.950 . S
C780 C778 1.391 . S
C780 C781 1.400 . S
C781 C775 1.491 . S
C781 C780 1.400 . S
C781 C782 1.398 . S
C782 H770 0.950 . S
C782 C781 1.398 . S
C782 C783 1.391 . S
C783 H771 0.950 . S
C783 C779 1.393 . S
C783 C782 1.391 . S
H784 C792 0.950 . S
H785 C797 0.950 . S
H786 C794 0.950 . S
H787 C796 0.950 . S
H788 C798 0.950 . S
H789 C800 0.950 . S
H790 C802 0.950 . S
H791 C803 0.950 . S
C792 H784 0.950 . S
C792 C793 1.386 . S
C792 C794 1.391 . S
C793 C792 1.386 . S
C793 C797 1.393 . S
C794 H786 0.950 . S
C794 C792 1.391 . S
C794 C795 1.400 . S
C795 C794 1.400 . S
C795 C796 1.398 . S
C795 C801 1.491 . S
C796 H787 0.950 . S
C796 C795 1.398 . S
C796 C797 1.391 . S
C797 H785 0.950 . S
C797 C793 1.393 . S
C797 C796 1.391 . S
C798 H788 0.950 . S
C798 C799 1.386 . S
C798 C800 1.391 . S
C799 C798 1.386 . S
C799 C803 1.393 . S
C800 H789 0.950 . S
C800 C798 1.391 . S
C800 C801 1.400 . S
C801 C795 1.491 . S
C801 C800 1.400 . S
C801 C802 1.398 . S
C802 H790 0.950 . S
C802 C801 1.398 . S
C802 C803 1.391 . S
C803 H791 0.950 . S
C803 C799 1.393 . S
C803 C802 1.391 . S
H804 C812 0.950 . S
H805 C817 0.950 . S
H806 C814 0.950 . S
H807 C816 0.950 . S
H808 C818 0.950 . S
H809 C820 0.950 . S
H810 C822 0.950 . S
H811 C823 0.950 . S
C812 H804 0.950 . S
C812 C813 1.386 . S
C812 C814 1.391 . S
C813 C812 1.386 . S
C813 C817 1.393 . S
C814 H806 0.950 . S
C814 C812 1.391 . S
C814 C815 1.400 . S
C815 C814 1.400 . S
C815 C816 1.398 . S
C815 C821 1.491 . S
C816 H807 0.950 . S
C816 C815 1.398 . S
C816 C817 1.391 . S
C817 H805 0.950 . S
C817 C813 1.393 . S
C817 C816 1.391 . S
C818 H808 0.950 . S
C818 C819 1.386 . S
C818 C820 1.391 . S
C819 C818 1.386 . S
C819 C823 1.393 . S
C820 H809 0.950 . S
C820 C818 1.391 . S
C820 C821 1.400 . S
C821 C815 1.491 . S
C821 C820 1.400 . S
C821 C822 1.398 . S
C822 H810 0.950 . S
C822 C821 1.398 . S
C822 C823 1.391 . S
C823 H811 0.950 . S
C823 C819 1.393 . S
C823 C822 1.391 . S
H824 C832 0.950 . S
H825 C837 0.950 . S
H826 C834 0.950 1_545 S
H827 C836 0.950 . S
H828 C838 0.950 . S
H829 C840 0.950 1_565 S
H830 C842 0.950 . S
H831 C843 0.950 . S
C832 H824 0.950 . S
C832 C833 1.386 . S
C832 C834 1.391 . S
C833 C832 1.386 . S
C833 C837 1.393 . S
C834 H826 0.950 1_565 S
C834 C832 1.391 . S
C834 C835 1.400 . S
C835 C834 1.400 . S
C835 C836 1.398 . S
C835 C841 1.491 1_565 S
C836 H827 0.950 . S
C836 C835 1.398 . S
C836 C837 1.391 . S
C837 H825 0.950 . S
C837 C833 1.393 . S
C837 C836 1.391 . S
C838 H828 0.950 . S
C838 C839 1.386 . S
C838 C840 1.391 . S
C839 C838 1.386 . S
C839 C843 1.393 . S
C840 H829 0.950 1_545 S
C840 C838 1.391 . S
C840 C841 1.400 1_556 S
C841 C835 1.491 1_545 S
C841 C840 1.400 1_554 S
C841 C842 1.398 . S
C842 H830 0.950 . S
C842 C841 1.398 . S
C842 C843 1.391 1_554 S
C843 H831 0.950 . S
C843 C839 1.393 . S
C843 C842 1.391 1_556 S
H844 C852 0.950 . S
H845 C857 0.950 . S
H846 C854 0.950 . S
H847 C856 0.950 . S
H848 C858 0.950 . S
H849 C860 0.950 . S
H850 C862 0.950 . S
H851 C863 0.950 . S
C852 H844 0.950 . S
C852 C853 1.386 1_655 S
C852 C854 1.391 . S
C853 C852 1.386 1_455 S
C853 C857 1.393 . S
C854 H846 0.950 . S
C854 C852 1.391 . S
C854 C855 1.400 1_655 S
C855 C854 1.400 1_455 S
C855 C856 1.398 . S
C855 C861 1.491 1_545 S
C856 H847 0.950 . S
C856 C855 1.398 . S
C856 C857 1.391 . S
C857 H845 0.950 . S
C857 C853 1.393 . S
C857 C856 1.391 . S
C858 H848 0.950 . S
C858 C859 1.386 . S
C858 C860 1.391 . S
C859 C858 1.386 . S
C859 C863 1.393 1_455 S
C860 H849 0.950 . S
C860 C858 1.391 . S
C860 C861 1.400 . S
C861 C855 1.491 1_565 S
C861 C860 1.400 . S
C861 C862 1.398 1_455 S
C862 H850 0.950 . S
C862 C861 1.398 1_655 S
C862 C863 1.391 . S
C863 H851 0.950 . S
C863 C859 1.393 1_655 S
C863 C862 1.391 . S
C233 C131 1.452 . S
C239 C5 1.455 . S
C253 C201 1.451 . S
C259 C19 1.455 . S
C273 C33 1.451 . S
C279 C117 1.455 . S
C293 C47 1.449 . S
C299 C215 1.454 . S
C313 C61 1.452 . S
C319 C145 1.449 . S
C333 C187 1.455 . S
C339 C75 1.450 . S
C353 C159 1.451 . S
C359 C89 1.455 . S
C373 C103 1.455 . S
C379 C173 1.453 . S
C393 C56 1.523 . S
C399 C42 1.527 1_556 S
C413 C168 1.527 . S
C419 C112 1.532 . S
C433 C84 1.530 . S
C439 C14 1.536 . S
C453 C126 1.520 . S
C459 C182 1.520 . S
C473 C0 1.545 . S
C479 C70 1.541 . S
C493 C210 1.547 . S
C499 C140 1.548 . S
C513 C98 1.544 . S
C519 C28 1.540 . S
C533 C154 1.524 . S
C539 C196 1.521 . S
C553 C9 0.583 . S
C559 C65 0.578 . S
C573 C79 0.583 . S
C579 C23 0.575 . S
C593 C93 0.573 . S
C599 C37 0.567 . S
C613 C51 0.570 . S
C619 C107 0.581 . S
C633 C149 0.574 . S
C639 C121 0.583 . S
C653 C163 0.568 . S
C659 C135 0.578 . S
C673 C205 0.567 . S
C679 C177 0.575 . S
C693 C219 0.571 1_655 S
C699 C191 0.569 . S
C713 C67 1.741 1_655 S
C719 C11 1.746 1_655 S
C733 C81 1.738 . S
C739 C25 1.747 . S
C753 C95 1.734 . S
C759 C39 1.744 . S
C773 C53 1.735 . S
C779 C109 1.741 . S
C793 C123 1.744 . S
C799 C151 1.744 . S
C813 C165 1.743 . S
C819 C137 1.734 . S
C833 C207 1.741 . S
C839 C179 1.746 . S
C853 C221 1.744 . S
C859 C193 1.744 . S
