# Generated by pormake.
# Topology bcu-l, (5)-cn, num edge types: 1
# Building blocks:
#     Node 0, Type 0, BuildingBlock: BEQFEK_clean_sbu_0, # of connection points: 5
#     Node 1, Type 0, BuildingBlock: BEQFEK_clean_sbu_0, # of connection points: 5
#     Node 2, Type 0, BuildingBlock: BEQFEK_clean_sbu_0, # of connection points: 5
#     Node 3, Type 0, BuildingBlock: BEQFEK_clean_sbu_0, # of connection points: 5
#     Node 4, Type 0, BuildingBlock: BEQFEK_clean_sbu_0, # of connection points: 5
#     Node 5, Type 0, BuildingBlock: BEQFEK_clean_sbu_0, # of connection points: 5
#     Node 6, Type 0, BuildingBlock: BEQFEK_clean_sbu_0, # of connection points: 5
#     Node 7, Type 0, BuildingBlock: BEQFEK_clean_sbu_0, # of connection points: 5
#     Node 8, Type 0, BuildingBlock: BEQFEK_clean_sbu_0, # of connection points: 5
#     Node 9, Type 0, BuildingBlock: BEQFEK_clean_sbu_0, # of connection points: 5
#     Node 10, Type 0, BuildingBlock: BEQFEK_clean_sbu_0, # of connection points: 5
#     Node 11, Type 0, BuildingBlock: BEQFEK_clean_sbu_0, # of connection points: 5
#     Node 12, Type 0, BuildingBlock: BEQFEK_clean_sbu_0, # of connection points: 5
#     Node 13, Type 0, BuildingBlock: BEQFEK_clean_sbu_0, # of connection points: 5
#     Node 14, Type 0, BuildingBlock: BEQFEK_clean_sbu_0, # of connection points: 5
#     Node 15, Type 0, BuildingBlock: BEQFEK_clean_sbu_0, # of connection points: 5
#     Node 16, Type 0, BuildingBlock: BEQFEK_clean_sbu_0, # of connection points: 5
#     Node 17, Type 0, BuildingBlock: BEQFEK_clean_sbu_0, # of connection points: 5
#     Node 18, Type 0, BuildingBlock: BEQFEK_clean_sbu_0, # of connection points: 5
#     Node 19, Type 0, BuildingBlock: BEQFEK_clean_sbu_0, # of connection points: 5
#     Node 20, Type 0, BuildingBlock: BEQFEK_clean_sbu_0, # of connection points: 5
#     Node 21, Type 0, BuildingBlock: BEQFEK_clean_sbu_0, # of connection points: 5
#     Node 22, Type 0, BuildingBlock: BEQFEK_clean_sbu_0, # of connection points: 5
#     Node 23, Type 0, BuildingBlock: BEQFEK_clean_sbu_0, # of connection points: 5
#     Node 24, Type 0, BuildingBlock: BEQFEK_clean_sbu_0, # of connection points: 5
#     Node 25, Type 0, BuildingBlock: BEQFEK_clean_sbu_0, # of connection points: 5
#     Node 26, Type 0, BuildingBlock: BEQFEK_clean_sbu_0, # of connection points: 5
#     Node 27, Type 0, BuildingBlock: BEQFEK_clean_sbu_0, # of connection points: 5
#     Node 28, Type 0, BuildingBlock: BEQFEK_clean_sbu_0, # of connection points: 5
#     Node 29, Type 0, BuildingBlock: BEQFEK_clean_sbu_0, # of connection points: 5
#     Node 30, Type 0, BuildingBlock: BEQFEK_clean_sbu_0, # of connection points: 5
#     Node 31, Type 0, BuildingBlock: BEQFEK_clean_sbu_0, # of connection points: 5
#     Node 32, Type 0, BuildingBlock: BEQFEK_clean_sbu_0, # of connection points: 5
#     Node 33, Type 0, BuildingBlock: BEQFEK_clean_sbu_0, # of connection points: 5
#     Node 34, Type 0, BuildingBlock: BEQFEK_clean_sbu_0, # of connection points: 5
#     Node 35, Type 0, BuildingBlock: BEQFEK_clean_sbu_0, # of connection points: 5
#     Node 36, Type 0, BuildingBlock: BEQFEK_clean_sbu_0, # of connection points: 5
#     Node 37, Type 0, BuildingBlock: BEQFEK_clean_sbu_0, # of connection points: 5
#     Node 38, Type 0, BuildingBlock: BEQFEK_clean_sbu_0, # of connection points: 5
#     Node 39, Type 0, BuildingBlock: BEQFEK_clean_sbu_0, # of connection points: 5
#     Node 40, Type 0, BuildingBlock: BEQFEK_clean_sbu_0, # of connection points: 5
#     Node 41, Type 0, BuildingBlock: BEQFEK_clean_sbu_0, # of connection points: 5
#     Node 42, Type 0, BuildingBlock: BEQFEK_clean_sbu_0, # of connection points: 5
#     Node 43, Type 0, BuildingBlock: BEQFEK_clean_sbu_0, # of connection points: 5
#     Node 44, Type 0, BuildingBlock: BEQFEK_clean_sbu_0, # of connection points: 5
#     Node 45, Type 0, BuildingBlock: BEQFEK_clean_sbu_0, # of connection points: 5
#     Node 46, Type 0, BuildingBlock: BEQFEK_clean_sbu_0, # of connection points: 5
#     Node 47, Type 0, BuildingBlock: BEQFEK_clean_sbu_0, # of connection points: 5
#     Edge 48, Type (0, 0), BuildingBlock: KIFKEQ_clean_linker_1, # of connection points: 2
#     Edge 49, Type (0, 0), BuildingBlock: KIFKEQ_clean_linker_1, # of connection points: 2
#     Edge 50, Type (0, 0), BuildingBlock: KIFKEQ_clean_linker_1, # of connection points: 2
#     Edge 51, Type (0, 0), BuildingBlock: KIFKEQ_clean_linker_1, # of connection points: 2
#     Edge 52, Type (0, 0), BuildingBlock: KIFKEQ_clean_linker_1, # of connection points: 2
#     Edge 53, Type (0, 0), BuildingBlock: KIFKEQ_clean_linker_1, # of connection points: 2
#     Edge 54, Type (0, 0), BuildingBlock: KIFKEQ_clean_linker_1, # of connection points: 2
#     Edge 55, Type (0, 0), BuildingBlock: KIFKEQ_clean_linker_1, # of connection points: 2
#     Edge 56, Type (0, 0), BuildingBlock: KIFKEQ_clean_linker_1, # of connection points: 2
#     Edge 57, Type (0, 0), BuildingBlock: KIFKEQ_clean_linker_1, # of connection points: 2
#     Edge 58, Type (0, 0), BuildingBlock: KIFKEQ_clean_linker_1, # of connection points: 2
#     Edge 59, Type (0, 0), BuildingBlock: KIFKEQ_clean_linker_1, # of connection points: 2
#     Edge 60, Type (0, 0), BuildingBlock: KIFKEQ_clean_linker_1, # of connection points: 2
#     Edge 61, Type (0, 0), BuildingBlock: KIFKEQ_clean_linker_1, # of connection points: 2
#     Edge 62, Type (0, 0), BuildingBlock: KIFKEQ_clean_linker_1, # of connection points: 2
#     Edge 63, Type (0, 0), BuildingBlock: KIFKEQ_clean_linker_1, # of connection points: 2
#     Edge 64, Type (0, 0), BuildingBlock: KIFKEQ_clean_linker_1, # of connection points: 2
#     Edge 65, Type (0, 0), BuildingBlock: KIFKEQ_clean_linker_1, # of connection points: 2
#     Edge 66, Type (0, 0), BuildingBlock: KIFKEQ_clean_linker_1, # of connection points: 2
#     Edge 67, Type (0, 0), BuildingBlock: KIFKEQ_clean_linker_1, # of connection points: 2
#     Edge 68, Type (0, 0), BuildingBlock: KIFKEQ_clean_linker_1, # of connection points: 2
#     Edge 69, Type (0, 0), BuildingBlock: KIFKEQ_clean_linker_1, # of connection points: 2
#     Edge 70, Type (0, 0), BuildingBlock: KIFKEQ_clean_linker_1, # of connection points: 2
#     Edge 71, Type (0, 0), BuildingBlock: KIFKEQ_clean_linker_1, # of connection points: 2
#     Edge 72, Type (0, 0), BuildingBlock: KIFKEQ_clean_linker_1, # of connection points: 2
#     Edge 73, Type (0, 0), BuildingBlock: KIFKEQ_clean_linker_1, # of connection points: 2
#     Edge 74, Type (0, 0), BuildingBlock: KIFKEQ_clean_linker_1, # of connection points: 2
#     Edge 75, Type (0, 0), BuildingBlock: KIFKEQ_clean_linker_1, # of connection points: 2
#     Edge 76, Type (0, 0), BuildingBlock: KIFKEQ_clean_linker_1, # of connection points: 2
#     Edge 77, Type (0, 0), BuildingBlock: KIFKEQ_clean_linker_1, # of connection points: 2
#     Edge 78, Type (0, 0), BuildingBlock: KIFKEQ_clean_linker_1, # of connection points: 2
#     Edge 79, Type (0, 0), BuildingBlock: KIFKEQ_clean_linker_1, # of connection points: 2
#     Edge 80, Type (0, 0), BuildingBlock: KIFKEQ_clean_linker_1, # of connection points: 2
#     Edge 81, Type (0, 0), BuildingBlock: KIFKEQ_clean_linker_1, # of connection points: 2
#     Edge 82, Type (0, 0), BuildingBlock: KIFKEQ_clean_linker_1, # of connection points: 2
#     Edge 83, Type (0, 0), BuildingBlock: KIFKEQ_clean_linker_1, # of connection points: 2
#     Edge 84, Type (0, 0), BuildingBlock: KIFKEQ_clean_linker_1, # of connection points: 2
#     Edge 85, Type (0, 0), BuildingBlock: KIFKEQ_clean_linker_1, # of connection points: 2
#     Edge 86, Type (0, 0), BuildingBlock: KIFKEQ_clean_linker_1, # of connection points: 2
#     Edge 87, Type (0, 0), BuildingBlock: KIFKEQ_clean_linker_1, # of connection points: 2
#     Edge 88, Type (0, 0), BuildingBlock: KIFKEQ_clean_linker_1, # of connection points: 2
#     Edge 89, Type (0, 0), BuildingBlock: KIFKEQ_clean_linker_1, # of connection points: 2
#     Edge 90, Type (0, 0), BuildingBlock: KIFKEQ_clean_linker_1, # of connection points: 2
#     Edge 91, Type (0, 0), BuildingBlock: KIFKEQ_clean_linker_1, # of connection points: 2
#     Edge 92, Type (0, 0), BuildingBlock: KIFKEQ_clean_linker_1, # of connection points: 2
#     Edge 93, Type (0, 0), BuildingBlock: KIFKEQ_clean_linker_1, # of connection points: 2
#     Edge 94, Type (0, 0), BuildingBlock: KIFKEQ_clean_linker_1, # of connection points: 2
#     Edge 95, Type (0, 0), BuildingBlock: KIFKEQ_clean_linker_1, # of connection points: 2
#     Edge 96, Type (0, 0), BuildingBlock: KIFKEQ_clean_linker_1, # of connection points: 2
#     Edge 97, Type (0, 0), BuildingBlock: KIFKEQ_clean_linker_1, # of connection points: 2
#     Edge 98, Type (0, 0), BuildingBlock: KIFKEQ_clean_linker_1, # of connection points: 2
#     Edge 99, Type (0, 0), BuildingBlock: KIFKEQ_clean_linker_1, # of connection points: 2
#     Edge 100, Type (0, 0), BuildingBlock: KIFKEQ_clean_linker_1, # of connection points: 2
#     Edge 101, Type (0, 0), BuildingBlock: KIFKEQ_clean_linker_1, # of connection points: 2
#     Edge 102, Type (0, 0), BuildingBlock: KIFKEQ_clean_linker_1, # of connection points: 2
#     Edge 103, Type (0, 0), BuildingBlock: KIFKEQ_clean_linker_1, # of connection points: 2
#     Edge 104, Type (0, 0), BuildingBlock: KIFKEQ_clean_linker_1, # of connection points: 2
#     Edge 105, Type (0, 0), BuildingBlock: KIFKEQ_clean_linker_1, # of connection points: 2
#     Edge 106, Type (0, 0), BuildingBlock: KIFKEQ_clean_linker_1, # of connection points: 2
#     Edge 107, Type (0, 0), BuildingBlock: KIFKEQ_clean_linker_1, # of connection points: 2
#     Edge 108, Type (0, 0), BuildingBlock: KIFKEQ_clean_linker_1, # of connection points: 2
#     Edge 109, Type (0, 0), BuildingBlock: KIFKEQ_clean_linker_1, # of connection points: 2
#     Edge 110, Type (0, 0), BuildingBlock: KIFKEQ_clean_linker_1, # of connection points: 2
#     Edge 111, Type (0, 0), BuildingBlock: KIFKEQ_clean_linker_1, # of connection points: 2
#     Edge 112, Type (0, 0), BuildingBlock: KIFKEQ_clean_linker_1, # of connection points: 2
#     Edge 113, Type (0, 0), BuildingBlock: KIFKEQ_clean_linker_1, # of connection points: 2
#     Edge 114, Type (0, 0), BuildingBlock: KIFKEQ_clean_linker_1, # of connection points: 2
#     Edge 115, Type (0, 0), BuildingBlock: KIFKEQ_clean_linker_1, # of connection points: 2
#     Edge 116, Type (0, 0), BuildingBlock: KIFKEQ_clean_linker_1, # of connection points: 2
#     Edge 117, Type (0, 0), BuildingBlock: KIFKEQ_clean_linker_1, # of connection points: 2
#     Edge 118, Type (0, 0), BuildingBlock: KIFKEQ_clean_linker_1, # of connection points: 2
#     Edge 119, Type (0, 0), BuildingBlock: KIFKEQ_clean_linker_1, # of connection points: 2
#     Edge 120, Type (0, 0), BuildingBlock: KIFKEQ_clean_linker_1, # of connection points: 2
#     Edge 121, Type (0, 0), BuildingBlock: KIFKEQ_clean_linker_1, # of connection points: 2
#     Edge 122, Type (0, 0), BuildingBlock: KIFKEQ_clean_linker_1, # of connection points: 2
#     Edge 123, Type (0, 0), BuildingBlock: KIFKEQ_clean_linker_1, # of connection points: 2
#     Edge 124, Type (0, 0), BuildingBlock: KIFKEQ_clean_linker_1, # of connection points: 2
#     Edge 125, Type (0, 0), BuildingBlock: KIFKEQ_clean_linker_1, # of connection points: 2
#     Edge 126, Type (0, 0), BuildingBlock: KIFKEQ_clean_linker_1, # of connection points: 2
#     Edge 127, Type (0, 0), BuildingBlock: KIFKEQ_clean_linker_1, # of connection points: 2
#     Edge 128, Type (0, 0), BuildingBlock: KIFKEQ_clean_linker_1, # of connection points: 2
#     Edge 129, Type (0, 0), BuildingBlock: KIFKEQ_clean_linker_1, # of connection points: 2
#     Edge 130, Type (0, 0), BuildingBlock: KIFKEQ_clean_linker_1, # of connection points: 2
#     Edge 131, Type (0, 0), BuildingBlock: KIFKEQ_clean_linker_1, # of connection points: 2
#     Edge 132, Type (0, 0), BuildingBlock: KIFKEQ_clean_linker_1, # of connection points: 2
#     Edge 133, Type (0, 0), BuildingBlock: KIFKEQ_clean_linker_1, # of connection points: 2
#     Edge 134, Type (0, 0), BuildingBlock: KIFKEQ_clean_linker_1, # of connection points: 2
#     Edge 135, Type (0, 0), BuildingBlock: KIFKEQ_clean_linker_1, # of connection points: 2
#     Edge 136, Type (0, 0), BuildingBlock: KIFKEQ_clean_linker_1, # of connection points: 2
#     Edge 137, Type (0, 0), BuildingBlock: KIFKEQ_clean_linker_1, # of connection points: 2
#     Edge 138, Type (0, 0), BuildingBlock: KIFKEQ_clean_linker_1, # of connection points: 2
#     Edge 139, Type (0, 0), BuildingBlock: KIFKEQ_clean_linker_1, # of connection points: 2
#     Edge 140, Type (0, 0), BuildingBlock: KIFKEQ_clean_linker_1, # of connection points: 2
#     Edge 141, Type (0, 0), BuildingBlock: KIFKEQ_clean_linker_1, # of connection points: 2
#     Edge 142, Type (0, 0), BuildingBlock: KIFKEQ_clean_linker_1, # of connection points: 2
#     Edge 143, Type (0, 0), BuildingBlock: KIFKEQ_clean_linker_1, # of connection points: 2
#     Edge 144, Type (0, 0), BuildingBlock: KIFKEQ_clean_linker_1, # of connection points: 2
#     Edge 145, Type (0, 0), BuildingBlock: KIFKEQ_clean_linker_1, # of connection points: 2
#     Edge 146, Type (0, 0), BuildingBlock: KIFKEQ_clean_linker_1, # of connection points: 2
#     Edge 147, Type (0, 0), BuildingBlock: KIFKEQ_clean_linker_1, # of connection points: 2
#     Edge 148, Type (0, 0), BuildingBlock: KIFKEQ_clean_linker_1, # of connection points: 2
#     Edge 149, Type (0, 0), BuildingBlock: KIFKEQ_clean_linker_1, # of connection points: 2
#     Edge 150, Type (0, 0), BuildingBlock: KIFKEQ_clean_linker_1, # of connection points: 2
#     Edge 151, Type (0, 0), BuildingBlock: KIFKEQ_clean_linker_1, # of connection points: 2
#     Edge 152, Type (0, 0), BuildingBlock: KIFKEQ_clean_linker_1, # of connection points: 2
#     Edge 153, Type (0, 0), BuildingBlock: KIFKEQ_clean_linker_1, # of connection points: 2
#     Edge 154, Type (0, 0), BuildingBlock: KIFKEQ_clean_linker_1, # of connection points: 2
#     Edge 155, Type (0, 0), BuildingBlock: KIFKEQ_clean_linker_1, # of connection points: 2
#     Edge 156, Type (0, 0), BuildingBlock: KIFKEQ_clean_linker_1, # of connection points: 2
#     Edge 157, Type (0, 0), BuildingBlock: KIFKEQ_clean_linker_1, # of connection points: 2
#     Edge 158, Type (0, 0), BuildingBlock: KIFKEQ_clean_linker_1, # of connection points: 2
#     Edge 159, Type (0, 0), BuildingBlock: KIFKEQ_clean_linker_1, # of connection points: 2
#     Edge 160, Type (0, 0), BuildingBlock: KIFKEQ_clean_linker_1, # of connection points: 2
#     Edge 161, Type (0, 0), BuildingBlock: KIFKEQ_clean_linker_1, # of connection points: 2
#     Edge 162, Type (0, 0), BuildingBlock: KIFKEQ_clean_linker_1, # of connection points: 2
#     Edge 163, Type (0, 0), BuildingBlock: KIFKEQ_clean_linker_1, # of connection points: 2
#     Edge 164, Type (0, 0), BuildingBlock: KIFKEQ_clean_linker_1, # of connection points: 2
#     Edge 165, Type (0, 0), BuildingBlock: KIFKEQ_clean_linker_1, # of connection points: 2
#     Edge 166, Type (0, 0), BuildingBlock: KIFKEQ_clean_linker_1, # of connection points: 2
#     Edge 167, Type (0, 0), BuildingBlock: KIFKEQ_clean_linker_1, # of connection points: 2
# Relax obj value: 0.105
# Max RMSD: 0.099
# Mean RMSD: 0.099
data_MOF--net-bcu-l--node1-BEQFEK_clean_sbu_0--edge1-KIFKEQ_clean_linker_1
_symmetry_space_group_name_H-M    P1
_symmetry_Int_Tables_number       1
_symmetry_cell_setting            triclinic
loop_
_symmetry_equiv_pos_as_xyz
'x, y, z'
_cell_length_a     69.175288
_cell_length_b     69.142805
_cell_length_c     69.155169
_cell_angle_alpha  90.093734
_cell_angle_beta   90.004974
_cell_angle_gamma 90.00375
loop_
_atom_site_label
_atom_site_type_symbol
_atom_site_fract_x
_atom_site_fract_y
_atom_site_fract_z
_atom_type_partial_charge
Co0 Co 0.02385 0.23412 0.38187 0.0
Co1 Co 0.99279 0.20693 0.36298 0.0
C2 C 0.98167 0.23614 0.39354 0.0
O3 O 0.99919 0.24156 0.39423 0.0
O4 O 0.97665 0.22212 0.38259 0.0
C5 C 0.04729 0.24217 0.41407 0.0
O6 O 0.03871 0.22657 0.42067 0.0
C7 C 0.96523 0.17403 0.36275 0.0
C8 C 0.96665 0.16411 0.33245 0.0
C9 C 0.9586 0.15964 0.35026 0.0
N10 N 0.97674 0.18625 0.3528 0.0
N11 N 0.97726 0.18033 0.33462 0.0
C12 C 0.96258 0.17495 0.38419 0.0
H13 H 0.97475 0.1829 0.391 0.0
H14 H 0.96154 0.16019 0.3904 0.0
H15 H 0.94897 0.18279 0.38745 0.0
C16 C 0.04608 0.19769 0.38314 0.0
N17 N 0.02913 0.20721 0.38117 0.0
N18 N 0.01616 0.19549 0.37359 0.0
C19 C 0.02451 0.17792 0.37097 0.0
C20 C 0.04372 0.17872 0.37704 0.0
C21 C 0.06511 0.20743 0.38673 0.0
H22 H 0.06473 0.22258 0.38158 0.0
H23 H 0.06823 0.20727 0.40245 0.0
H24 H 0.07707 0.19978 0.37924 0.0
O25 O 0.02381 0.24328 0.35512 0.0
O26 O 1.001 0.22527 0.34106 0.0
H27 H 0.01201 0.16477 0.34595 0.0
H28 H 0.02405 0.14794 0.36189 0.0
C29 C 0.01493 0.16112 0.36128 0.0
H30 H 1.00101 0.15802 0.36854 0.0
H31 H 0.98549 0.18693 0.32384 0.0
O32 O 0.04353 0.24813 0.39712 0.0
C33 C 0.01391 0.23861 0.34029 0.0
Co34 Co 0.81803 0.0233 0.38375 0.0
Co35 Co 0.84302 0.99241 0.36186 0.0
C36 C 0.81599 0.98173 0.39532 0.0
O37 O 0.81173 0.99944 0.39749 0.0
O38 O 0.82794 0.97655 0.38217 0.0
C39 C 0.80718 0.044 0.41671 0.0
O40 O 0.81838 0.03089 0.42467 0.0
C41 C 0.87686 0.96647 0.36267 0.0
C42 C 0.88331 0.96176 0.3318 0.0
C43 C 0.88994 0.95743 0.35025 0.0
N44 N 0.86329 0.97562 0.35207 0.0
N45 N 0.86717 0.97257 0.3336 0.0
C46 C 0.87813 0.96801 0.3842 0.0
H47 H 0.8699 0.98077 0.38943 0.0
H48 H 0.89344 0.96908 0.38889 0.0
H49 H 0.87171 0.95486 0.39076 0.0
C50 C 0.85479 0.04467 0.38415 0.0
N51 N 0.84483 0.02809 0.38162 0.0
N52 N 0.85529 0.01586 0.37146 0.0
C53 C 0.87219 0.02464 0.36678 0.0
C54 C 0.87243 0.0433 0.3746 0.0
C55 C 0.84703 0.06194 0.3947 0.0
H56 H 0.84277 0.05759 0.40949 0.0
H57 H 0.85791 0.07362 0.39612 0.0
H58 H 0.83406 0.06751 0.3871 0.0
O59 O 0.80687 0.02201 0.35747 0.0
O60 O 0.82413 1.00055 0.34068 0.0
H61 H 0.87833 0.01052 0.3399 0.0
H62 H 0.89656 0.0277 0.34727 0.0
C63 C 0.88627 0.01657 0.35246 0.0
H64 H 0.89453 1.00468 0.35934 0.0
H65 H 0.85913 0.97834 0.32221 0.0
O66 O 0.80499 0.04403 0.39847 0.0
C67 C 0.81028 0.01286 0.34179 0.0
Co68 Co 0.02744 0.81892 0.38225 0.0
Co69 Co 0.05913 0.84525 0.36345 0.0
C70 C 0.06925 0.81624 0.39466 0.0
O71 O 0.05166 0.81101 0.39521 0.0
O72 O 0.07455 0.83002 0.38358 0.0
C73 C 1.00506 0.81004 0.41455 0.0
O74 O 0.01623 0.82353 0.42195 0.0
C75 C 0.08634 0.87832 0.36429 0.0
C76 C 0.08872 0.88615 0.33349 0.0
C77 C 0.09466 0.89181 0.35182 0.0
N78 N 0.07597 0.86551 0.35381 0.0
N79 N 0.07768 0.87019 0.33537 0.0
C80 C 0.08639 0.87867 0.38592 0.0
H81 H 0.0738 0.87054 0.39167 0.0
H82 H 0.08605 0.89379 0.39134 0.0
H83 H 0.09979 0.87166 0.39124 0.0
C84 C 1.00605 0.85584 0.38376 0.0
N85 N 0.02276 0.84595 0.38157 0.0
N86 N 0.03574 0.8572 0.37338 0.0
C87 C 0.02754 0.87473 0.37018 0.0
C88 C 1.00848 0.8745 0.37679 0.0
C89 C 0.98712 0.8466 0.38882 0.0
H90 H 0.98618 0.832 0.38224 0.0
H91 H 0.98607 0.84519 0.40476 0.0
H92 H 0.97466 0.85532 0.38373 0.0
O93 O 0.02783 0.80955 0.35547 0.0
O94 O 0.05119 0.82684 0.34149 0.0
H95 H 0.04132 0.88562 0.34475 0.0
H96 H 0.02746 0.90356 0.35788 0.0
C97 C 0.03708 0.89081 0.35932 0.0
H98 H 0.05031 0.89533 0.36712 0.0
H99 H 0.07078 0.86287 0.32411 0.0
O100 O 1.00694 0.80554 0.39684 0.0
C101 C 0.03804 0.81374 0.34071 0.0
Co102 Co 0.23452 0.02916 0.38385 0.0
Co103 Co 0.20858 0.06016 0.36348 0.0
C104 C 0.23653 0.0709 0.3958 0.0
O105 O 0.24147 0.05329 0.39727 0.0
O106 O 0.22349 0.07597 0.38373 0.0
C107 C 0.24315 1.00657 0.41613 0.0
O108 O 0.22944 0.01746 0.42352 0.0
C109 C 0.17566 0.08736 0.36379 0.0
C110 C 0.16744 0.08886 0.33301 0.0
C111 C 0.162 0.09526 0.35125 0.0
N112 N 0.18839 0.07678 0.35344 0.0
N113 N 0.1835 0.07797 0.33501 0.0
C114 C 0.17546 0.08791 0.38541 0.0
H115 H 0.18353 0.07539 0.39138 0.0
H116 H 0.1604 0.08782 0.39093 0.0
H117 H 0.18262 0.10138 0.3904 0.0
C118 C 0.19781 1.0073 0.38428 0.0
N119 N 0.20768 0.02401 0.38202 0.0
N120 N 0.19655 0.03681 0.3734 0.0
C121 C 0.1791 0.02851 0.37004 0.0
C122 C 0.17927 1.00956 0.37694 0.0
C123 C 0.20699 0.9885 0.38993 0.0
H124 H 0.2218 0.98756 0.38391 0.0
H125 H 0.20783 0.98768 0.40592 0.0
H126 H 0.19854 0.97591 0.38468 0.0
O127 O 0.24526 0.03039 0.35771 0.0
O128 O 0.2275 0.05218 0.34197 0.0
H129 H 0.1682 0.04174 0.34433 0.0
H130 H 0.15019 0.02845 0.3579 0.0
C131 C 0.16306 0.03795 0.35904 0.0
H132 H 0.15874 0.05143 0.36653 0.0
H133 H 0.19069 0.07077 0.32386 0.0
O134 O 0.24782 1.00873 0.39852 0.0
C135 C 0.24145 0.03993 0.34243 0.0
Co136 Co 0.02423 0.8189 0.6703 0.0
Co137 Co 0.99265 0.84465 0.69006 0.0
C138 C 0.9827 0.81624 0.65781 0.0
O139 O 1.00041 0.81165 0.65666 0.0
O140 O 0.97717 0.82902 0.66999 0.0
C141 C 0.04511 0.80813 0.63772 0.0
O142 O 0.03229 0.81976 0.62989 0.0
C143 C 0.96731 0.87913 0.68911 0.0
C144 C 0.96015 0.88349 0.71986 0.0
C145 C 0.95725 0.89144 0.70165 0.0
N146 N 0.9758 0.86498 0.69951 0.0
N147 N 0.97137 0.86768 0.71789 0.0
C148 C 0.9686 0.88025 0.66755 0.0
H149 H 0.97311 0.86613 0.66141 0.0
H150 H 0.97963 0.89115 0.66348 0.0
H151 H 0.95447 0.8846 0.66131 0.0
C152 C 0.0454 0.85569 0.66901 0.0
N153 N 0.02872 0.84584 0.67123 0.0
N154 N 0.01608 0.85675 0.68037 0.0
C155 C 0.02465 0.8739 0.6846 0.0
C156 C 0.04357 0.8738 0.67755 0.0
C157 C 0.06341 0.8472 0.66045 0.0
H158 H 0.0676 0.83406 0.66861 0.0
H159 H 0.06053 0.84304 0.64526 0.0
H160 H 0.0756 0.8576 0.66036 0.0
O161 O 0.02352 0.80917 0.69713 0.0
O162 O 1.00066 0.82652 0.71188 0.0
H163 H 1.00967 0.8812 0.71074 0.0
H164 H 0.02734 0.89896 0.70332 0.0
C165 C 0.01625 0.88858 0.69813 0.0
H166 H 1.00477 0.89677 0.69054 0.0
H167 H 0.97617 0.85884 0.72913 0.0
O168 O 0.04494 0.8056 0.65591 0.0
C169 C 0.01366 0.81329 0.71218 0.0
Co170 Co 0.23449 0.0246 0.66948 0.0
Co171 Co 0.20857 0.99319 0.68929 0.0
C172 C 0.23657 0.983 0.65682 0.0
O173 O 0.24132 1.00068 0.6557 0.0
O174 O 0.22383 0.97757 0.66905 0.0
C175 C 0.24505 0.0456 0.6369 0.0
O176 O 0.2332 0.03296 0.62908 0.0
C177 C 0.17394 0.96793 0.68904 0.0
C178 C 0.16985 0.96156 0.71999 0.0
C179 C 0.16169 0.95827 0.70192 0.0
N180 N 0.18824 0.97659 0.69913 0.0
N181 N 0.18571 0.97263 0.71763 0.0
C182 C 0.1726 0.96873 0.66747 0.0
H183 H 0.18664 0.97312 0.66111 0.0
H184 H 0.16165 0.97966 0.66326 0.0
H185 H 0.1682 0.95445 0.66157 0.0
C186 C 0.19795 0.04623 0.66874 0.0
N187 N 0.20762 0.02941 0.67074 0.0
N188 N 0.19662 0.01681 0.67981 0.0
C189 C 0.17958 0.02553 0.68414 0.0
C190 C 0.17986 0.04451 0.67728 0.0
C191 C 0.2066 0.06424 0.66038 0.0
H192 H 0.21993 0.06808 0.66843 0.0
H193 H 0.21049 0.06154 0.64509 0.0
H194 H 0.19642 0.0766 0.66065 0.0
O195 O 0.24453 0.02368 0.6962 0.0
O196 O 0.22708 1.0009 0.71089 0.0
H197 H 0.17212 0.0107 0.71028 0.0
H198 H 0.15433 0.02821 0.70254 0.0
C199 C 0.16482 0.01714 0.69755 0.0
H200 H 0.1568 1.00553 0.68994 0.0
H201 H 0.19468 0.97766 0.72867 0.0
O202 O 0.24783 0.04525 0.65506 0.0
C203 C 0.24047 0.01374 0.71119 0.0
Co204 Co 0.02776 0.23441 0.67021 0.0
Co205 Co 0.06 0.20919 0.68971 0.0
C206 C 0.06934 0.2376 0.65751 0.0
O207 O 0.05152 0.24182 0.65638 0.0
O208 O 0.07515 0.22499 0.66968 0.0
C209 C 1.0052 0.24202 0.63784 0.0
O210 O 0.01653 0.22841 0.63093 0.0
C211 C 0.08683 0.17563 0.68929 0.0
C212 C 0.0914 0.1702 0.72036 0.0
C213 C 0.09597 0.16299 0.70216 0.0
N214 N 0.07714 0.18921 0.69948 0.0
N215 N 0.0801 0.18591 0.71805 0.0
C216 C 0.08736 0.17516 0.66766 0.0
H217 H 0.08358 0.1895 0.66163 0.0
H218 H 0.07659 0.16456 0.66228 0.0
H219 H 0.10191 0.17077 0.6625 0.0
C220 C 1.00704 0.19717 0.66948 0.0
N221 N 0.02353 0.20743 0.67159 0.0
N222 N 0.03672 0.19662 0.68002 0.0
C223 C 0.02882 0.17901 0.68358 0.0
C224 C 1.00983 0.17872 0.67679 0.0
C225 C 0.98794 0.2059 0.66415 0.0
H226 H 0.98671 0.22066 0.67028 0.0
H227 H 0.98684 0.20678 0.64818 0.0
H228 H 0.97565 0.19711 0.66951 0.0
O229 O 0.0285 0.24458 0.69684 0.0
O230 O 0.05172 0.22757 0.7114 0.0
H231 H 0.04358 0.16939 0.70902 0.0
H232 H 0.02871 0.15102 0.69773 0.0
C233 C 0.0385 0.16342 0.69503 0.0
H234 H 0.05119 0.15802 0.68691 0.0
H235 H 0.0741 0.19416 0.72918 0.0
O236 O 1.007 0.24715 0.65539 0.0
C237 C 0.0386 0.2407 0.71178 0.0
Co238 Co 0.81845 0.02914 0.66956 0.0
Co239 Co 0.84473 0.06024 0.68957 0.0
C240 C 0.81539 0.07133 0.65894 0.0
O241 O 0.81006 0.05379 0.65796 0.0
O242 O 0.82944 0.07625 0.66989 0.0
C243 C 0.80623 0.01091 0.636 0.0
O244 O 0.81566 0.0258 0.62891 0.0
C245 C 0.87856 0.08627 0.68902 0.0
C246 C 0.88527 0.09004 0.71997 0.0
C247 C 0.89175 0.09494 0.70161 0.0
N248 N 0.86511 0.07677 0.69945 0.0
N249 N 0.86914 0.07927 0.71797 0.0
C250 C 0.87963 0.08536 0.66743 0.0
H251 H 0.87132 0.07278 0.66191 0.0
H252 H 0.8949 0.08438 0.66258 0.0
H253 H 0.87319 0.09871 0.66132 0.0
C254 C 0.85518 1.00822 0.66678 0.0
N255 N 0.84549 0.02491 0.6696 0.0
N256 N 0.85658 0.03716 0.67904 0.0
C257 C 0.87368 0.02835 0.68284 0.0
C258 C 0.87335 1.00962 0.67526 0.0
C259 C 0.84644 0.99053 0.65781 0.0
H260 H 0.83414 0.9855 0.66678 0.0
H261 H 0.8409 0.99419 0.64324 0.0
H262 H 0.85712 0.97868 0.65617 0.0
O263 O 0.80946 0.02843 0.69656 0.0
O264 O 0.82647 0.05166 0.71121 0.0
H265 H 0.88129 0.04174 0.70971 0.0
H266 H 0.89943 0.02535 0.70052 0.0
C267 C 0.8885 0.03634 0.69644 0.0
H268 H 0.89596 0.04867 0.68944 0.0
H269 H 0.8612 0.07314 0.72924 0.0
O270 O 0.80545 1.0088 0.65423 0.0
C271 C 0.81358 0.0383 0.71161 0.0
Co272 Co 0.38433 0.02424 0.23211 0.0
Co273 Co 0.36218 0.99303 0.20781 0.0
C274 C 0.39536 0.98262 0.23536 0.0
O275 O 0.39763 1.00041 0.23919 0.0
O276 O 0.3823 0.97725 0.22339 0.0
C277 C 0.41729 0.04492 0.24332 0.0
O278 O 0.42554 0.03146 0.23273 0.0
C279 C 0.36219 0.96797 0.17316 0.0
C280 C 0.33147 0.96019 0.16987 0.0
C281 C 0.34944 0.95774 0.16119 0.0
N282 N 0.35213 0.97609 0.18779 0.0
N283 N 0.33377 0.97131 0.18574 0.0
C284 C 0.38365 0.96977 0.1713 0.0
H285 H 0.39013 0.97444 0.18522 0.0
H286 H 0.38708 0.9809 0.16029 0.0
H287 H 0.39008 0.95579 0.16672 0.0
C288 C 0.3852 0.04466 0.195 0.0
N289 N 0.38256 0.02828 0.20521 0.0
N290 N 0.37196 0.01612 0.19511 0.0
C291 C 0.36694 0.02484 0.17828 0.0
C292 C 0.37511 0.04333 0.17765 0.0
C293 C 0.39626 0.06179 0.20233 0.0
H294 H 0.4108 0.05706 0.20702 0.0
H295 H 0.39824 0.07298 0.19104 0.0
H296 H 0.38864 0.06815 0.21495 0.0
O297 O 0.35792 0.02372 0.24293 0.0
O298 O 0.34103 1.00181 0.2264 0.0
H299 H 0.34016 1.01004 0.17318 0.0
H300 H 0.34552 0.02868 0.15572 0.0
C301 C 0.35186 0.01709 0.1648 0.0
H302 H 0.35853 1.00611 0.15519 0.0
H303 H 0.32277 0.97581 0.19503 0.0
O304 O 0.39899 0.04514 0.24489 0.0
C305 C 0.34217 0.01465 0.23976 0.0
Co306 Co 0.028 0.38156 0.23439 0.0
Co307 Co 0.06006 0.36246 0.20861 0.0
C308 C 0.06956 0.39456 0.237 0.0
O309 O 0.05181 0.39546 0.24158 0.0
O310 O 0.07528 0.38253 0.22418 0.0
C311 C 1.00518 0.41372 0.24291 0.0
O312 O 0.01626 0.42106 0.22935 0.0
C313 C 0.08762 0.36345 0.17596 0.0
C314 C 0.08972 0.33274 0.16758 0.0
C315 C 0.09585 0.3511 0.16228 0.0
N316 N 0.0771 0.35289 0.18853 0.0
N317 N 0.07866 0.33449 0.18355 0.0
C318 C 0.08781 0.38509 0.1759 0.0
H319 H 0.07524 0.39083 0.18407 0.0
H320 H 0.08754 0.39067 0.16086 0.0
H321 H 0.10123 0.39025 0.183 0.0
C322 C 1.00695 0.38252 0.1974 0.0
N323 N 0.02353 0.38039 0.20747 0.0
N324 N 0.03675 0.37237 0.19636 0.0
C325 C 0.02885 0.3693 0.17866 0.0
C326 C 1.00973 0.37577 0.1787 0.0
C327 C 0.98786 0.38733 0.20645 0.0
H328 H 0.98699 0.38108 0.22117 0.0
H329 H 0.98639 0.40327 0.20751 0.0
H330 H 0.97558 0.3817 0.1978 0.0
O331 O 0.02887 0.35489 0.24417 0.0
O332 O 0.05193 0.34055 0.22675 0.0
H333 H 0.04289 0.34418 0.16731 0.0
H334 H 0.02951 0.35785 0.14946 0.0
C335 C 0.03879 0.35891 0.16249 0.0
H336 H 0.05212 0.36683 0.15855 0.0
H337 H 0.07158 0.3232 0.19061 0.0
O338 O 1.00726 0.39608 0.24757 0.0
C339 C 0.03889 0.33999 0.23995 0.0
Co340 Co 0.66677 0.02812 0.23242 0.0
Co341 Co 0.68798 0.05982 0.20779 0.0
C342 C 0.65569 0.06983 0.23632 0.0
O343 O 0.65374 0.0521 0.24061 0.0
O344 O 0.66793 0.07507 0.22351 0.0
C345 C 0.63364 1.00718 0.24171 0.0
O346 O 0.62597 0.02157 0.23196 0.0
C347 C 0.68708 0.08627 0.1742 0.0
C348 C 0.71781 0.09343 0.16979 0.0
C349 C 0.69952 0.09659 0.1621 0.0
N350 N 0.69757 0.07728 0.18799 0.0
N351 N 0.71594 0.08174 0.18528 0.0
C352 C 0.6655 0.08523 0.17312 0.0
H353 H 0.65933 0.08111 0.18733 0.0
H354 H 0.66123 0.07401 0.16247 0.0
H355 H 0.65942 0.09932 0.16843 0.0
C356 C 0.66601 1.00786 0.19499 0.0
N357 N 0.66848 0.02424 0.20537 0.0
N358 N 0.67805 0.03695 0.19496 0.0
C359 C 0.68218 0.02882 0.17759 0.0
C360 C 0.6745 1.01015 0.17694 0.0
C361 C 0.65903 0.98919 0.20347 0.0
H362 H 0.66647 0.98649 0.21741 0.0
H363 H 0.64328 0.99022 0.20621 0.0
H364 H 0.66172 0.9767 0.19377 0.0
O365 O 0.69312 0.02862 0.24306 0.0
O366 O 0.70935 0.05097 0.22644 0.0
H367 H 0.70843 0.04322 0.16967 0.0
H368 H 0.69872 0.02767 0.15092 0.0
C369 C 0.695 0.03789 0.16271 0.0
H370 H 0.68745 0.0504 0.15619 0.0
H371 H 0.72724 0.07664 0.19387 0.0
O372 O 0.65184 1.00682 0.24415 0.0
C373 C 0.70861 0.03809 0.2398 0.0
Co374 Co 0.02444 0.67028 0.23399 0.0
Co375 Co 0.99228 0.68953 0.20855 0.0
C376 C 0.9829 0.65719 0.23671 0.0
O377 O 1.00068 0.65627 0.24118 0.0
O378 O 0.97713 0.66929 0.22401 0.0
C379 C 0.04732 0.63811 0.2423 0.0
O380 O 0.03612 0.63072 0.22884 0.0
C381 C 0.96498 0.68874 0.17562 0.0
C382 C 0.96213 0.71962 0.16821 0.0
C383 C 0.95651 0.70127 0.16227 0.0
N384 N 0.97515 0.69922 0.1886 0.0
N385 N 0.97314 0.7177 0.18418 0.0
C386 C 0.96535 0.66712 0.17493 0.0
H387 H 0.97789 0.66147 0.1832 0.0
H388 H 0.96606 0.66195 0.15975 0.0
H389 H 0.95192 0.66144 0.18161 0.0
C390 C 0.04539 0.66957 0.19687 0.0
N391 N 0.02885 0.67164 0.20704 0.0
N392 N 0.01563 0.67985 0.19609 0.0
C393 C 0.02352 0.68317 0.17844 0.0
C394 C 0.0426 0.67661 0.1783 0.0
C395 C 0.06448 0.66446 0.20576 0.0
H396 H 0.06556 0.67072 0.22048 0.0
H397 H 0.06568 0.6485 0.2068 0.0
H398 H 0.07678 0.66986 0.19701 0.0
O399 O 0.02354 0.6969 0.24409 0.0
O400 O 1.00038 0.71133 0.22691 0.0
H401 H 1.0091 0.70838 0.16783 0.0
H402 H 0.02306 0.69565 0.14969 0.0
C403 C 0.01361 0.69393 0.16252 0.0
H404 H 1.00053 0.68586 0.15805 0.0
H405 H 0.97987 0.72896 0.19166 0.0
O406 O 0.04528 0.65577 0.24698 0.0
C407 C 0.01344 0.71181 0.24009 0.0
Co408 Co 0.38276 0.02729 0.81841 0.0
Co409 Co 0.3634 0.05903 0.84443 0.0
C410 C 0.39453 0.06915 0.81515 0.0
O411 O 0.39547 0.0515 0.81006 0.0
O412 O 0.38331 0.07442 0.82888 0.0
C413 C 0.40211 1.00663 0.78838 0.0
O414 O 0.39686 0.02149 0.7778 0.0
C415 C 0.36357 0.08681 0.87707 0.0
C416 C 0.33309 0.08653 0.88646 0.0
C417 C 0.35111 0.09394 0.89121 0.0
N418 N 0.3534 0.07565 0.86469 0.0
N419 N 0.33513 0.0758 0.87028 0.0
C420 C 0.3851 0.08867 0.87655 0.0
H421 H 0.39158 0.07634 0.86854 0.0
H422 H 0.39109 0.08932 0.89143 0.0
H423 H 0.38898 0.10226 0.86897 0.0
C424 C 0.38581 1.00694 0.8554 0.0
N425 N 0.38263 0.02338 0.8454 0.0
N426 N 0.37377 0.03602 0.85652 0.0
C427 C 0.37083 0.02777 0.87404 0.0
C428 C 0.37839 1.00906 0.87395 0.0
C429 C 0.3926 0.98853 0.84621 0.0
H430 H 0.38267 0.98458 0.83424 0.0
H431 H 0.40719 0.99084 0.83996 0.0
H432 H 0.39323 0.97639 0.85663 0.0
O433 O 0.35586 0.02726 0.80919 0.0
O434 O 0.34164 0.0507 0.82621 0.0
H435 H 0.34444 0.03975 0.88477 0.0
H436 H 0.35864 0.02736 0.90291 0.0
C437 C 0.35931 0.0368 0.88997 0.0
H438 H 0.36606 0.0507 0.89419 0.0
H439 H 0.32417 0.06791 0.86353 0.0
O440 O 0.3971 1.00599 0.80602 0.0
C441 C 0.34101 0.0374 0.81326 0.0
Co442 Co 0.02447 0.38352 0.81971 0.0
Co443 Co 0.9925 0.36363 0.84502 0.0
C444 C 0.98295 0.39594 0.81672 0.0
O445 O 1.0007 0.39697 0.81226 0.0
O446 O 0.97726 0.38391 0.82954 0.0
C447 C 0.04524 0.41627 0.80923 0.0
O448 O 0.03211 0.42401 0.82059 0.0
C449 C 0.96635 0.36499 0.87882 0.0
C450 C 0.96047 0.3342 0.88458 0.0
C451 C 0.95669 0.35267 0.89155 0.0
N452 N 0.97531 0.3543 0.86516 0.0
N453 N 0.97158 0.33589 0.86863 0.0
C454 C 0.96857 0.38645 0.88046 0.0
H455 H 0.9815 0.39137 0.87234 0.0
H456 H 0.96978 0.39085 0.89586 0.0
H457 H 0.95566 0.39355 0.87414 0.0
C458 C 0.04519 0.38469 0.85672 0.0
N459 N 0.02862 0.38246 0.84669 0.0
N460 N 0.01599 0.37301 0.85732 0.0
C461 C 0.0245 0.36848 0.8744 0.0
C462 C 0.0434 0.37565 0.87456 0.0
C463 C 0.06295 0.39421 0.84875 0.0
H464 H 0.05937 0.40919 0.84445 0.0
H465 H 0.07477 0.39509 0.85952 0.0
H466 H 0.068 0.38622 0.83578 0.0
O467 O 0.02374 0.35671 0.8098 0.0
O468 O 1.00044 0.34197 0.82656 0.0
H469 H 0.02687 0.3495 0.89924 0.0
H470 H 1.00421 0.36217 0.89677 0.0
C471 C 0.01595 0.35474 0.88874 0.0
H472 H 1.00961 0.34217 0.88105 0.0
H473 H 0.97701 0.32445 0.86042 0.0
O474 O 0.04532 0.39807 0.80671 0.0
C475 C 0.01365 0.34171 0.81352 0.0
Co476 Co 0.6707 0.02388 0.81803 0.0
Co477 Co 0.68982 0.99186 0.84373 0.0
C478 C 0.65753 0.98233 0.81562 0.0
O479 O 0.65671 1.00007 0.81101 0.0
O480 O 0.66959 0.97659 0.82838 0.0
C481 C 0.63844 0.04645 0.80978 0.0
O482 O 0.63134 0.03532 0.82342 0.0
C483 C 0.68898 0.96452 0.87653 0.0
C484 C 0.71977 0.9621 0.88445 0.0
C485 C 0.70143 0.9562 0.89005 0.0
N486 N 0.69949 0.97486 0.86378 0.0
N487 N 0.71792 0.97313 0.86848 0.0
C488 C 0.66736 0.96458 0.8769 0.0
H489 H 0.66166 0.97716 0.86873 0.0
H490 H 0.66197 0.96503 0.89201 0.0
H491 H 0.66196 0.95116 0.86995 0.0
C492 C 0.67001 0.04512 0.85496 0.0
N493 N 0.67207 0.02849 0.84492 0.0
N494 N 0.68013 0.0153 0.85602 0.0
C495 C 0.68332 0.02329 0.87366 0.0
C496 C 0.67688 0.04243 0.87362 0.0
C497 C 0.66512 0.06418 0.84588 0.0
H498 H 0.67127 0.06497 0.83111 0.0
H499 H 0.64918 0.06562 0.84495 0.0
H500 H 0.6708 0.07651 0.85445 0.0
O501 O 0.69728 0.0229 0.80801 0.0
O502 O 0.71161 0.99979 0.82534 0.0
H503 H 0.7084 1.0091 0.88485 0.0
H504 H 0.69502 0.02275 0.90276 0.0
C505 C 0.69376 0.01338 0.88979 0.0
H506 H 0.68576 1.00015 0.8939 0.0
H507 H 0.72919 0.98003 0.86122 0.0
O508 O 0.65605 0.04454 0.80493 0.0
C509 C 0.71214 0.01278 0.8121 0.0
Co510 Co 0.02828 0.67147 0.81799 0.0
Co511 Co 0.05947 0.69001 0.84529 0.0
C512 C 0.07033 0.65961 0.81575 0.0
O513 O 0.05282 0.65902 0.81026 0.0
O514 O 0.07537 0.67043 0.82987 0.0
C515 C 1.00639 0.63896 0.8086 0.0
O516 O 0.01739 0.63175 0.82231 0.0
C517 C 0.08701 0.68939 0.87816 0.0
C518 C 0.08612 0.71957 0.8885 0.0
C519 C 0.09388 0.70157 0.89272 0.0
N520 N 0.07567 0.6997 0.8661 0.0
N521 N 0.07546 0.71781 0.87226 0.0
C522 C 0.08928 0.66791 0.87695 0.0
H523 H 0.07697 0.66143 0.86893 0.0
H524 H 0.09021 0.66149 0.89162 0.0
H525 H 0.10282 0.66451 0.86905 0.0
C526 C 1.00639 0.66915 0.85447 0.0
N527 N 0.02323 0.67164 0.84491 0.0
N528 N 0.03609 0.67937 0.85663 0.0
C529 C 0.02774 0.68175 0.87422 0.0
C530 C 1.00864 0.6753 0.87345 0.0
C531 C 0.98754 0.6647 0.84473 0.0
H532 H 0.98716 0.67129 0.83015 0.0
H533 H 0.986 0.6488 0.84327 0.0
H534 H 0.97506 0.67022 0.85316 0.0
O535 O 0.02845 0.69836 0.8092 0.0
O536 O 0.05145 0.71218 0.82717 0.0
H537 H 0.0402 0.70681 0.88736 0.0
H538 H 0.02807 0.69091 0.90419 0.0
C539 C 0.03724 0.69149 0.89104 0.0
H540 H 0.05113 0.68423 0.89423 0.0
H541 H 0.0674 0.72882 0.86583 0.0
O542 O 1.0082 0.65667 0.8041 0.0
C543 C 0.03848 0.7131 0.81389 0.0
Co544 Co 0.2346 0.38232 0.02438 0.0
Co545 Co 0.20751 0.36329 0.99336 0.0
C546 C 0.23663 0.39386 0.98217 0.0
O547 O 0.24213 0.3946 0.99968 0.0
O548 O 0.22259 0.38291 0.97722 0.0
C549 C 0.2429 0.41514 0.04613 0.0
O550 O 0.22876 0.42172 0.03529 0.0
C551 C 0.17454 0.36292 0.96601 0.0
C552 C 0.16471 0.3326 0.96754 0.0
C553 C 0.16013 0.3504 0.95954 0.0
N554 N 0.18688 0.353 0.97739 0.0
N555 N 0.18104 0.33481 0.97797 0.0
C556 C 0.17533 0.38437 0.96337 0.0
H557 H 0.18337 0.39121 0.97548 0.0
H558 H 0.16054 0.39053 0.96248 0.0
H559 H 0.18303 0.38764 0.94968 0.0
C560 C 0.19816 0.38414 0.04643 0.0
N561 N 0.2077 0.3818 0.02954 0.0
N562 N 0.19605 0.3739 0.01671 0.0
C563 C 0.17854 0.37128 0.02513 0.0
C564 C 0.17927 0.37774 0.04423 0.0
C565 C 0.20786 0.38868 0.06529 0.0
H566 H 0.22262 0.38247 0.06555 0.0
H567 H 0.20887 0.4046 0.06701 0.0
H568 H 0.19963 0.38284 0.07774 0.0
O569 O 0.24383 0.35553 0.0244 0.0
O570 O 0.22596 0.34151 1.00144 0.0
H571 H 0.16577 0.34593 0.01288 0.0
H572 H 0.14873 0.36167 0.02496 0.0
C573 C 0.16186 0.36121 0.01574 0.0
H574 H 0.1585 0.36832 1.00181 0.0
H575 H 0.18773 0.32406 0.98617 0.0
O576 O 0.24819 0.39765 0.04428 0.0
C577 C 0.23927 0.34073 0.01437 0.0
Co578 Co 0.23421 0.66945 0.02901 0.0
Co579 Co 0.20799 0.68979 0.05996 0.0
C580 C 0.2375 0.65921 0.07119 0.0
O581 O 0.24276 0.658 0.05366 0.0
O582 O 0.22348 0.67023 0.07601 0.0
C583 C 0.24679 0.63585 0.01116 0.0
O584 O 0.23774 0.62889 0.02634 0.0
C585 C 0.17305 0.68897 0.08451 0.0
C586 C 0.16928 0.71952 0.09282 0.0
C587 C 0.16094 0.70136 0.09494 0.0
N588 N 0.18751 0.69938 0.07656 0.0
N589 N 0.18515 0.71765 0.08164 0.0
C590 C 0.17159 0.66747 0.08256 0.0
H591 H 0.18572 0.66123 0.07826 0.0
H592 H 0.16095 0.66389 0.0711 0.0
H593 H 0.16671 0.66091 0.09635 0.0
C594 C 0.19739 0.66628 1.00823 0.0
N595 N 0.20711 0.66939 0.02486 0.0
N596 N 0.1962 0.67941 0.03679 0.0
C597 C 0.17933 0.68361 0.02771 0.0
C598 C 0.17951 0.67547 1.00919 0.0
C599 C 0.20567 0.65576 0.9912 0.0
H600 H 0.21147 0.64165 0.996 0.0
H601 H 0.19463 0.65292 0.97992 0.0
H602 H 0.2177 0.66434 0.98494 0.0
O603 O 0.24319 0.69657 0.02832 0.0
O604 O 0.22624 0.71139 0.0515 0.0
H605 H 0.1561 0.7042 0.02334 0.0
H606 H 0.15536 0.69095 0.04573 0.0
C607 C 0.16505 0.69809 0.03515 0.0
H608 H 0.17272 0.71005 0.0426 0.0
H609 H 0.19432 0.72886 0.07741 0.0
O610 O 0.2472 0.65406 1.00869 0.0
C611 C 0.23916 0.71167 0.03817 0.0
Co612 Co 0.38243 0.23392 0.02863 0.0
Co613 Co 0.36173 0.20768 0.05924 0.0
C614 C 0.39381 0.23566 0.07058 0.0
O615 O 0.39537 0.24061 0.05299 0.0
O616 O 0.38152 0.22279 0.07557 0.0
C617 C 0.41556 0.24571 1.00897 0.0
O618 O 0.42334 0.23446 0.02214 0.0
C619 C 0.36201 0.17387 0.08525 0.0
C620 C 0.33118 0.16593 0.08701 0.0
C621 C 0.34944 0.16013 0.09291 0.0
N622 N 0.35167 0.18705 0.07529 0.0
N623 N 0.33321 0.1823 0.0766 0.0
C624 C 0.38361 0.17353 0.08576 0.0
H625 H 0.38963 0.18177 0.07337 0.0
H626 H 0.38903 0.15842 0.08544 0.0
H627 H 0.38863 0.18045 0.09935 0.0
C628 C 0.38448 0.19739 1.00692 0.0
N629 N 0.38159 0.20705 0.02364 0.0
N630 N 0.37194 0.19602 0.03574 0.0
C631 C 0.36795 0.17902 0.02674 0.0
C632 C 0.37569 0.17934 1.00807 0.0
C633 C 0.39447 0.20586 0.98968 0.0
H634 H 0.40916 0.21055 0.99393 0.0
H635 H 0.39608 0.19527 0.97775 0.0
H636 H 0.38634 0.21868 0.9845 0.0
O637 O 0.35557 0.24374 0.02893 0.0
O638 O 0.34031 0.22614 0.05121 0.0
H639 H 0.34083 0.17165 0.03959 0.0
H640 H 0.35018 0.1533 0.0236 0.0
C641 C 0.35416 0.16431 0.03457 0.0
H642 H 0.36088 0.15696 0.04712 0.0
H643 H 0.32204 0.18986 0.06984 0.0
O644 O 0.3973 0.24759 1.00846 0.0
C645 C 0.34033 0.23958 0.03845 0.0
Co646 Co 0.81799 0.38197 0.029 0.0
Co647 Co 0.84449 0.36268 0.06038 0.0
C648 C 0.81434 0.39249 0.07137 0.0
O649 O 0.80907 0.3932 0.05381 0.0
O650 O 0.82865 0.38195 0.07636 0.0
C651 C 0.80121 0.41463 0.01189 0.0
O652 O 0.80614 0.42203 0.02868 0.0
C653 C 0.87862 0.36366 0.08616 0.0
C654 C 0.88418 0.33275 0.09163 0.0
C655 C 0.89135 0.35111 0.09554 0.0
N656 N 0.86497 0.35316 0.07696 0.0
N657 N 0.86835 0.33468 0.08041 0.0
C658 C 0.87898 0.3853 0.08617 0.0
H659 H 0.86449 0.39118 0.0827 0.0
H660 H 0.88918 0.39044 0.07493 0.0
H661 H 0.88382 0.39086 0.10044 0.0
C662 C 0.85488 0.38592 1.00854 0.0
N663 N 0.84505 0.3826 0.02507 0.0
N664 N 0.85626 0.37347 0.03741 0.0
C665 C 0.87359 0.37031 0.02879 0.0
C666 C 0.87337 0.37823 1.01023 0.0
C667 C 0.84553 0.39297 0.99034 0.0
H668 H 0.83343 0.38318 0.98644 0.0
H669 H 0.83945 0.4076 0.99287 0.0
H670 H 0.85584 0.39362 0.97808 0.0
O671 O 0.80962 0.35474 0.0282 0.0
O672 O 0.82671 0.34068 0.05169 0.0
H673 H 0.88298 0.34404 0.04224 0.0
H674 H 0.90094 0.35505 0.02666 0.0
C675 C 0.88921 0.35793 0.03721 0.0
H676 H 0.89563 0.36542 0.04983 0.0
H677 H 0.86001 0.32337 0.07491 0.0
O678 O 0.80497 0.39699 1.00832 0.0
C679 C 0.81393 0.33987 0.03823 0.0
Co680 Co 0.67062 0.81758 0.02748 0.0
Co681 Co 0.68936 0.84441 0.05897 0.0
C682 C 0.65882 0.81492 0.06947 0.0
O683 O 0.65812 0.80958 0.0519 0.0
O684 O 0.66969 0.82894 0.07458 0.0
C685 C 0.63812 0.80839 1.00545 0.0
O686 O 0.63084 0.82188 0.01669 0.0
C687 C 0.68828 0.87783 0.08574 0.0
C688 C 0.71909 0.88547 0.08868 0.0
C689 C 0.7007 0.89134 0.09421 0.0
N690 N 0.69886 0.86485 0.0757 0.0
N691 N 0.7173 0.86941 0.07774 0.0
C692 C 0.66666 0.87825 0.08535 0.0
H693 H 0.66112 0.86974 0.07291 0.0
H694 H 0.66133 0.89336 0.08443 0.0
H695 H 0.66104 0.87168 0.09885 0.0
C696 C 0.66856 0.85433 1.00601 0.0
N697 N 0.67093 0.84459 0.02276 0.0
N698 N 0.67904 0.85604 0.03565 0.0
C699 C 0.68198 0.87355 0.02735 0.0
C700 C 0.6753 0.8731 1.00833 0.0
C701 C 0.66364 0.84486 0.98712 0.0
H702 H 0.67031 0.83031 0.98632 0.0
H703 H 0.64772 0.84332 0.98601 0.0
H704 H 0.66873 0.85349 0.97461 0.0
O705 O 0.69753 0.80862 0.02769 0.0
O706 O 0.71141 0.82629 0.0509 0.0
H707 H 0.70723 0.88481 0.04127 0.0
H708 H 0.69418 0.90246 0.02701 0.0
C709 C 0.69269 0.88984 0.03677 0.0
H710 H 0.68472 0.89456 0.04983 0.0
H711 H 0.72863 0.86192 0.07115 0.0
O712 O 0.65585 0.80395 1.00715 0.0
C713 C 0.71228 0.81312 0.03782 0.0
Co714 Co 0.81808 0.66977 0.02523 0.0
Co715 Co 0.84388 0.68873 0.99313 0.0
C716 C 0.81479 0.65716 0.98362 0.0
O717 O 0.81044 0.65609 1.00142 0.0
O718 O 0.82771 0.66906 0.97794 0.0
C719 C 0.80933 0.63756 0.04765 0.0
O720 O 0.82258 0.63022 0.03617 0.0
C721 C 0.87742 0.68719 0.96648 0.0
C722 C 0.88323 0.71802 0.96085 0.0
C723 C 0.89012 0.69958 0.95682 0.0
N724 N 0.86407 0.69786 0.97593 0.0
N725 N 0.8676 0.71629 0.97236 0.0
C726 C 0.87755 0.66555 0.96655 0.0
H727 H 0.86311 0.65982 0.97042 0.0
H728 H 0.888 0.66034 0.97754 0.0
H729 H 0.88196 0.65988 0.95218 0.0
C730 C 0.85513 0.66842 0.04616 0.0
N731 N 0.84506 0.67058 0.02958 0.0
N732 N 0.8561 0.67887 0.01647 0.0
C733 C 0.87365 0.6823 0.02454 0.0
C734 C 0.87368 0.67558 0.04356 0.0
C735 C 0.84612 0.66324 0.06518 0.0
H736 H 0.83158 0.66985 0.06636 0.0
H737 H 0.84466 0.6473 0.06611 0.0
H738 H 0.855 0.66822 0.07758 0.0
O739 O 0.80859 0.69663 0.02441 0.0
O740 O 0.82605 0.71083 1.0013 0.0
H741 H 0.88355 0.70763 1.00978 0.0
H742 H 0.9017 0.69636 0.02491 0.0
C743 C 0.8894 0.69365 0.01499 0.0
H744 H 0.89488 0.68546 1.00237 0.0
H745 H 0.85952 0.72771 0.97803 0.0
O746 O 0.8049 0.65531 0.04599 0.0
C747 C 0.81288 0.71148 0.01436 0.0
Co748 Co 0.38237 0.81878 0.02367 0.0
Co749 Co 0.36244 0.84408 0.99184 0.0
C750 C 0.39452 0.81578 0.98188 0.0
O751 O 0.39547 0.81118 0.9996 0.0
O752 O 0.38261 0.82875 0.9763 0.0
C753 C 0.41577 0.8081 0.04262 0.0
O754 O 0.42261 0.81848 0.02826 0.0
C755 C 0.36359 0.87763 0.96569 0.0
C756 C 0.33277 0.88407 0.9607 0.0
C757 C 0.35126 0.89063 0.95646 0.0
N758 N 0.35289 0.86417 0.97487 0.0
N759 N 0.33446 0.86803 0.97166 0.0
C760 C 0.38511 0.87888 0.96743 0.0
H761 H 0.39019 0.87067 0.98024 0.0
H762 H 0.38979 0.8942 0.96856 0.0
H763 H 0.39181 0.87244 0.95435 0.0
C764 C 0.38355 0.85568 0.04448 0.0
N765 N 0.38134 0.84574 0.02784 0.0
N766 N 0.37205 0.85648 0.01521 0.0
C767 C 0.36773 0.87364 0.02374 0.0
C768 C 0.37482 0.87369 0.04267 0.0
C769 C 0.39232 0.84734 0.06243 0.0
H770 H 0.38372 0.83468 0.06721 0.0
H771 H 0.4072 0.84241 0.05921 0.0
H772 H 0.3932 0.85809 0.07432 0.0
O773 O 0.35559 0.80883 0.02333 0.0
O774 O 0.34094 0.82559 0.99997 0.0
H775 H 0.34124 0.88076 1.00944 0.0
H776 H 0.34965 0.89918 0.02599 0.0
C777 C 0.35421 0.88821 0.0152 0.0
H778 H 0.36152 0.89565 1.00305 0.0
H779 H 0.32302 0.86006 0.97741 0.0
O780 O 0.39757 0.80621 0.04432 0.0
C781 C 0.34063 0.81259 0.0132 0.0
Co782 Co 0.67121 0.23451 0.02402 0.0
Co783 Co 0.69005 0.20789 0.99238 0.0
C784 C 0.66007 0.23806 0.98185 0.0
O785 O 0.65957 0.24339 0.99941 0.0
O786 O 0.67055 0.22373 0.97673 0.0
C787 C 0.63823 0.24918 0.04187 0.0
O788 O 0.63081 0.24267 0.02564 0.0
C789 C 0.6889 0.17382 0.96632 0.0
C790 C 0.71978 0.16806 0.96097 0.0
C791 C 0.70141 0.16102 0.95693 0.0
N792 N 0.69942 0.18738 0.97564 0.0
N793 N 0.71789 0.18387 0.97225 0.0
C794 C 0.66726 0.17359 0.96621 0.0
H795 H 0.66144 0.1881 0.96972 0.0
H796 H 0.66199 0.16336 0.97737 0.0
H797 H 0.66176 0.16881 0.9519 0.0
C798 C 0.66775 0.1977 0.04467 0.0
N799 N 0.67076 0.20745 0.02804 0.0
N800 N 0.67954 0.19614 0.01552 0.0
C801 C 0.68268 0.17877 0.02405 0.0
C802 C 0.67518 0.17912 0.04281 0.0
C803 C 0.66134 0.20722 0.06306 0.0
H804 H 0.67073 0.21987 0.06609 0.0
H805 H 0.64631 0.2125 0.06129 0.0
H806 H 0.66192 0.19728 0.0756 0.0
O807 O 0.69836 0.24296 0.02446 0.0
O808 O 0.71214 0.22577 1.00082 0.0
H809 H 0.70857 0.16877 1.01031 0.0
H810 H 0.69699 0.15086 0.02553 0.0
C811 C 0.69449 0.1629 0.01525 0.0
H812 H 0.68678 0.157 1.00252 0.0
H813 H 0.72922 0.19211 0.97786 0.0
O814 O 0.65627 0.24736 0.04485 0.0
C815 C 0.71309 0.23861 0.01424 0.0
Co816 Co 0.52426 0.73338 0.88178 0.0
Co817 Co 0.49242 0.7073 0.86255 0.0
C818 C 0.48257 0.73567 0.89459 0.0
O819 O 0.5003 0.74033 0.89553 0.0
O820 O 0.47695 0.72276 0.8826 0.0
C821 C 0.5469 0.74193 0.91409 0.0
O822 O 0.53584 0.72826 0.9213 0.0
C823 C 0.46474 0.67458 0.86314 0.0
C824 C 0.46457 0.66504 0.83269 0.0
C825 C 0.45742 0.66036 0.85083 0.0
N826 N 0.47575 0.6869 0.85277 0.0
N827 N 0.47533 0.68122 0.83451 0.0
C828 C 0.46322 0.67521 0.8847 0.0
H829 H 0.47565 0.6832 0.89096 0.0
H830 H 0.46265 0.66036 0.89075 0.0
H831 H 0.44972 0.68286 0.88877 0.0
C832 C 0.5457 0.69662 0.88261 0.0
N833 N 0.52901 0.70652 0.8805 0.0
N834 N 0.51592 0.69529 0.87244 0.0
C835 C 0.52403 0.67769 0.86932 0.0
C836 C 0.54314 0.67792 0.87576 0.0
C837 C 0.56469 0.70585 0.88751 0.0
H838 H 0.56545 0.72057 0.88126 0.0
H839 H 0.56607 0.70692 0.90345 0.0
H840 H 0.57707 0.69729 0.88195 0.0
O841 O 0.5233 0.74329 0.85516 0.0
O842 O 0.50031 0.72576 0.84078 0.0
H843 H 0.51092 0.66601 0.84388 0.0
H844 H 0.52354 0.64831 0.85838 0.0
C845 C 0.51433 0.66143 0.85885 0.0
H846 H 0.50064 0.65776 0.86629 0.0
H847 H 0.48304 0.68791 0.82341 0.0
O848 O 0.54485 0.74669 0.89647 0.0
C849 C 0.51321 0.73911 0.84029 0.0
Co850 Co 0.31777 0.52355 0.88316 0.0
Co851 Co 0.344 0.49253 0.86294 0.0
C852 C 0.31451 0.48142 0.89361 0.0
O853 O 0.30924 0.49895 0.89473 0.0
O854 O 0.32853 0.47656 0.88259 0.0
C855 C 0.30526 0.54148 0.91672 0.0
O856 O 0.31437 0.52633 0.92368 0.0
C857 C 0.37888 0.46788 0.86394 0.0
C858 C 0.38259 0.45927 0.83347 0.0
C859 C 0.39092 0.45723 0.85165 0.0
N860 N 0.36449 0.47585 0.85346 0.0
N861 N 0.36682 0.47059 0.83524 0.0
C862 C 0.38035 0.46999 0.88542 0.0
H863 H 0.36626 0.47451 0.89162 0.0
H864 H 0.39113 0.48134 0.88891 0.0
H865 H 0.38505 0.45618 0.8921 0.0
C866 C 0.35458 0.54437 0.88623 0.0
N867 N 0.34487 0.52772 0.8832 0.0
N868 N 0.35578 0.51577 0.87321 0.0
C869 C 0.37262 0.52486 0.86894 0.0
C870 C 0.37244 0.54342 0.877 0.0
C871 C 0.3463 0.56141 0.89676 0.0
H872 H 0.34054 0.55662 0.91088 0.0
H873 H 0.35734 0.57269 0.89958 0.0
H874 H 0.33426 0.56766 0.88821 0.0
O875 O 0.30879 0.52416 0.85603 0.0
O876 O 0.32575 0.50094 0.84128 0.0
H877 H 0.37922 0.50983 0.84258 0.0
H878 H 0.39582 0.52915 0.84829 0.0
C879 C 0.3869 0.51735 0.85448 0.0
H880 H 0.39661 0.50682 0.86167 0.0
H881 H 0.35767 0.47477 0.824 0.0
O882 O 0.30477 0.54391 0.89851 0.0
C883 C 0.31283 0.51427 0.84095 0.0
Co884 Co 0.52826 0.3181 0.88326 0.0
Co885 Co 0.55964 0.34414 0.86361 0.0
C886 C 0.57025 0.31567 0.89513 0.0
O887 O 0.55266 0.31048 0.89609 0.0
O888 O 0.57534 0.32922 0.88369 0.0
C889 C 0.50595 0.3104 0.91595 0.0
O890 O 0.5168 0.32448 0.92268 0.0
C891 C 0.58646 0.37735 0.8639 0.0
C892 C 0.58927 0.38445 0.83296 0.0
C893 C 0.59486 0.39063 0.85124 0.0
N894 N 0.57639 0.36421 0.85356 0.0
N895 N 0.57835 0.36844 0.83504 0.0
C896 C 0.58609 0.37819 0.88552 0.0
H897 H 0.57362 0.36987 0.89123 0.0
H898 H 0.58525 0.39341 0.89059 0.0
H899 H 0.59957 0.37165 0.89125 0.0
C900 C 0.50675 0.35502 0.88413 0.0
N901 N 0.52346 0.34511 0.88203 0.0
N902 N 0.53638 0.35626 0.87362 0.0
C903 C 0.52817 0.37374 0.87023 0.0
C904 C 0.50915 0.3736 0.87693 0.0
C905 C 0.48781 0.34583 0.88928 0.0
H906 H 0.48709 0.33095 0.88337 0.0
H907 H 0.48646 0.34519 0.90525 0.0
H908 H 0.47539 0.3542 0.88356 0.0
O909 O 0.52842 0.30814 0.85663 0.0
O910 O 0.55141 0.32544 0.84206 0.0
H911 H 0.54211 0.38434 0.84475 0.0
H912 H 0.52804 0.4024 0.85748 0.0
C913 C 0.5377 0.38972 0.8592 0.0
H914 H 0.5508 0.39448 0.86706 0.0
H915 H 0.5717 0.36078 0.82386 0.0
O916 O 0.50799 0.30503 0.8985 0.0
C917 C 0.53839 0.3122 0.84166 0.0
Co918 Co 0.73204 0.52787 0.88389 0.0
Co919 Co 0.70769 0.55949 0.86228 0.0
C920 C 0.73523 0.56988 0.89506 0.0
O921 O 0.73937 0.5521 0.89681 0.0
O922 O 0.72293 0.57533 0.88239 0.0
C923 C 0.74436 0.50936 0.91751 0.0
O924 O 0.7368 0.52512 0.92497 0.0
C925 C 0.67499 0.58677 0.86222 0.0
C926 C 0.66759 0.58916 0.8313 0.0
C927 C 0.66167 0.59506 0.84957 0.0
N928 N 0.68797 0.57647 0.85192 0.0
N929 N 0.68357 0.57818 0.83341 0.0
C930 C 0.67421 0.58664 0.88384 0.0
H931 H 0.68234 0.57409 0.88966 0.0
H932 H 0.659 0.58612 0.88893 0.0
H933 H 0.68098 0.60008 0.88943 0.0
C934 C 0.69486 0.50778 0.88498 0.0
N935 N 0.7052 0.52406 0.88212 0.0
N936 N 0.69477 0.53669 0.87248 0.0
C937 C 0.67733 0.52856 0.86871 0.0
C938 C 0.67676 0.50998 0.8766 0.0
C939 C 0.70348 0.48935 0.8924 0.0
H940 H 0.71676 0.48594 0.88408 0.0
H941 H 0.7076 0.4913 0.90778 0.0
H942 H 0.69339 0.47696 0.89123 0.0
O943 O 0.74289 0.52801 0.85761 0.0
O944 O 0.72648 0.55038 0.84124 0.0
H945 H 0.66848 0.54143 0.84202 0.0
H946 H 0.64958 0.5279 0.8541 0.0
C947 C 0.66215 0.53762 0.85625 0.0
H948 H 0.65697 0.55108 0.86323 0.0
H949 H 0.69104 0.57126 0.82226 0.0
O950 O 0.74388 0.50688 0.89931 0.0
C951 C 0.73971 0.53738 0.84206 0.0
Co952 Co 0.52396 0.31782 0.16983 0.0
Co953 Co 0.49257 0.34376 0.19004 0.0
C954 C 0.48178 0.31416 0.15923 0.0
O955 O 0.49948 0.30952 0.15804 0.0
O956 O 0.4765 0.3277 0.17069 0.0
C957 C 0.54176 0.30115 0.13734 0.0
O958 O 0.52515 0.30613 0.12965 0.0
C959 C 0.4676 0.37845 0.18914 0.0
C960 C 0.46047 0.38293 0.21987 0.0
C961 C 0.4576 0.39086 0.20163 0.0
N962 N 0.47598 0.36426 0.19958 0.0
N963 N 0.4716 0.36705 0.21795 0.0
C964 C 0.46891 0.37943 0.16757 0.0
H965 H 0.47359 0.36531 0.16154 0.0
H966 H 0.47984 0.39042 0.16345 0.0
H967 H 0.45475 0.38357 0.16128 0.0
C968 C 0.54412 0.35465 0.16616 0.0
N969 N 0.52766 0.34482 0.16953 0.0
N970 N 0.51568 0.3557 0.17953 0.0
C971 C 0.52467 0.37268 0.18354 0.0
C972 C 0.54314 0.37258 0.17526 0.0
C973 C 0.56103 0.34637 0.15547 0.0
H974 H 0.5559 0.33908 0.14214 0.0
H975 H 0.57153 0.35776 0.15131 0.0
H976 H 0.56835 0.33547 0.16467 0.0
O977 O 0.52442 0.30904 0.19705 0.0
O978 O 0.50125 0.32599 0.21181 0.0
H979 H 0.52892 0.39631 0.20377 0.0
H980 H 0.50631 0.39642 0.19081 0.0
C981 C 0.51719 0.38705 0.19793 0.0
H982 H 0.51008 0.37941 0.21008 0.0
H983 H 0.47633 0.3582 0.22921 0.0
O984 O 0.54496 0.3049 0.15505 0.0
C985 C 0.51463 0.31315 0.21216 0.0
Co986 Co 0.73404 0.52362 0.17071 0.0
Co987 Co 0.70717 0.49236 0.18959 0.0
C988 C 0.73638 0.48155 0.15879 0.0
O989 O 0.74176 0.49911 0.15807 0.0
O990 O 0.72247 0.47651 0.16984 0.0
C991 C 0.74303 0.54585 0.13828 0.0
O992 O 0.72932 0.53488 0.13101 0.0
C993 C 0.67434 0.46487 0.18897 0.0
C994 C 0.66443 0.46528 0.21929 0.0
C995 C 0.65994 0.45783 0.2012 0.0
N996 N 0.68656 0.47602 0.19934 0.0
N997 N 0.68066 0.47594 0.21752 0.0
C998 C 0.67523 0.46298 0.16745 0.0
H999 H 0.68325 0.47534 0.1611 0.0
H1000 H 0.66047 0.46225 0.16119 0.0
H1001 H 0.68299 0.44944 0.16369 0.0
C1002 C 0.69739 0.54539 0.16888 0.0
N1003 N 0.70709 0.52859 0.1712 0.0
N1004 N 0.69557 0.51569 0.17915 0.0
C1005 C 0.67801 0.52398 0.18188 0.0
C1006 C 0.67855 0.54306 0.1754 0.0
C1007 C 0.7069 0.56429 0.1642 0.0
H1008 H 0.72154 0.56486 0.17068 0.0
H1009 H 0.70822 0.56568 0.14828 0.0
H1010 H 0.69841 0.57676 0.16966 0.0
O1011 O 0.74318 0.52346 0.19754 0.0
O1012 O 0.72545 0.50047 0.2116 0.0
H1013 H 0.66568 0.51133 0.20721 0.0
H1014 H 0.64838 0.52374 0.19204 0.0
C1015 C 0.66148 0.51449 0.19206 0.0
H1016 H 0.65795 0.50069 0.18474 0.0
H1017 H 0.68726 0.48382 0.22859 0.0
O1018 O 0.74767 0.54387 0.15594 0.0
C1019 C 0.7387 0.51348 0.21236 0.0
Co1020 Co 0.52923 0.73337 0.16703 0.0
Co1021 Co 0.55976 0.7081 0.18904 0.0
C1022 C 0.57122 0.73659 0.15725 0.0
O1023 O 0.55366 0.74136 0.15511 0.0
O1024 O 0.57594 0.72342 0.16932 0.0
C1025 C 0.5109 0.74606 0.13354 0.0
O1026 O 0.52613 0.73746 0.12611 0.0
C1027 C 0.58439 0.67335 0.18838 0.0
C1028 C 0.59291 0.66975 0.21887 0.0
C1029 C 0.59498 0.66134 0.20071 0.0
N1030 N 0.57644 0.68781 0.19881 0.0
N1031 N 0.58163 0.68556 0.21705 0.0
C1032 C 0.58226 0.6718 0.1669 0.0
H1033 H 0.57771 0.68585 0.16068 0.0
H1034 H 0.57092 0.66099 0.16347 0.0
H1035 H 0.59607 0.6671 0.1602 0.0
C1036 C 0.50862 0.6964 0.1648 0.0
N1037 N 0.52508 0.70635 0.16799 0.0
N1038 N 0.5368 0.6959 0.17868 0.0
C1039 C 0.52773 0.67913 0.18325 0.0
C1040 C 0.50943 0.67888 0.17465 0.0
C1041 C 0.4919 0.70415 0.15345 0.0
H1042 H 0.49719 0.70991 0.1395 0.0
H1043 H 0.48103 0.69278 0.1503 0.0
H1044 H 0.48497 0.71612 0.16161 0.0
O1045 O 0.52907 0.74359 0.19366 0.0
O1046 O 0.55096 0.72673 0.21027 0.0
H1047 H 0.54235 0.67348 0.21003 0.0
H1048 H 0.52302 0.65678 0.20468 0.0
C1049 C 0.53495 0.66539 0.19832 0.0
H1050 H 0.54552 0.65535 0.19163 0.0
H1051 H 0.57742 0.69475 0.22826 0.0
O1052 O 0.50867 0.74603 0.15178 0.0
C1053 C 0.53818 0.74016 0.20935 0.0
Co1054 Co 0.31821 0.5289 0.16959 0.0
Co1055 Co 0.34512 0.5597 0.18922 0.0
C1056 C 0.31576 0.57103 0.15865 0.0
O1057 O 0.31033 0.55352 0.15759 0.0
O1058 O 0.32978 0.57584 0.16969 0.0
C1059 C 0.30682 0.50899 0.13653 0.0
O1060 O 0.3185 0.52188 0.12891 0.0
C1061 C 0.37863 0.5862 0.18842 0.0
C1062 C 0.3874 0.58757 0.21906 0.0
C1063 C 0.39264 0.59384 0.20074 0.0
N1064 N 0.36586 0.57589 0.19894 0.0
N1065 N 0.3711 0.57699 0.21729 0.0
C1066 C 0.37839 0.587 0.16681 0.0
H1067 H 0.3702 0.57454 0.16083 0.0
H1068 H 0.39334 0.58703 0.16099 0.0
H1069 H 0.37112 0.60052 0.16219 0.0
C1070 C 0.35467 0.50717 0.16705 0.0
N1071 N 0.34518 0.52403 0.16966 0.0
N1072 N 0.35657 0.53637 0.17864 0.0
C1073 C 0.3737 0.52751 0.18219 0.0
C1074 C 0.37306 0.50863 0.17504 0.0
C1075 C 0.34559 0.48933 0.15873 0.0
H1076 H 0.33251 0.4855 0.16717 0.0
H1077 H 0.3412 0.49223 0.14362 0.0
H1078 H 0.35568 0.47689 0.15847 0.0
O1079 O 0.30932 0.52869 0.1966 0.0
O1080 O 0.32697 0.55151 0.21111 0.0
H1081 H 0.3823 0.54005 0.20912 0.0
H1082 H 0.40064 0.5251 0.19813 0.0
C1083 C 0.38895 0.53567 0.1952 0.0
H1084 H 0.39533 0.54867 0.18837 0.0
H1085 H 0.36394 0.56996 0.22855 0.0
O1086 O 0.30442 0.50879 0.15474 0.0
C1087 C 0.31377 0.53846 0.21161 0.0
Co1088 Co 0.88353 0.52463 0.73334 0.0
Co1089 Co 0.86297 0.49291 0.70817 0.0
C1090 C 0.89612 0.48328 0.73573 0.0
O1091 O 0.89793 0.5011 0.73972 0.0
O1092 O 0.88316 0.47765 0.7238 0.0
C1093 C 0.91569 0.54762 0.74148 0.0
O1094 O 0.92298 0.53651 0.72788 0.0
C1095 C 0.86362 0.46616 0.67454 0.0
C1096 C 0.83264 0.46118 0.66901 0.0
C1097 C 0.8509 0.45679 0.66188 0.0
N1098 N 0.85329 0.47577 0.68806 0.0
N1099 N 0.83477 0.47259 0.68469 0.0
C1100 C 0.88524 0.46592 0.67413 0.0
H1101 H 0.89123 0.47001 0.68841 0.0
H1102 H 0.89047 0.47662 0.6634 0.0
H1103 H 0.89062 0.45138 0.66995 0.0
C1104 C 0.8832 0.54592 0.69649 0.0
N1105 N 0.88121 0.52934 0.70657 0.0
N1106 N 0.8725 0.5163 0.69575 0.0
C1107 C 0.86868 0.52437 0.6783 0.0
C1108 C 0.87553 0.54336 0.67813 0.0
C1109 C 0.88891 0.56487 0.70537 0.0
H1110 H 0.88302 0.56601 0.72022 0.0
H1111 H 0.9049 0.56576 0.70605 0.0
H1112 H 0.88353 0.57733 0.69683 0.0
O1113 O 0.85748 0.52274 0.74452 0.0
O1114 O 0.84148 0.50098 0.72687 0.0
H1115 H 0.84315 0.50977 0.66865 0.0
H1116 H 0.85456 0.52451 0.65027 0.0
C1117 C 0.85717 0.51475 0.66269 0.0
H1118 H 0.86518 0.50196 0.65733 0.0
H1119 H 0.82356 0.47847 0.69291 0.0
O1120 O 0.8981 0.54549 0.74629 0.0
C1121 C 0.84212 0.51321 0.74085 0.0
Co1122 Co 0.52687 0.8826 0.73354 0.0
Co1123 Co 0.55898 0.86284 0.70819 0.0
C1124 C 0.56871 0.89485 0.73662 0.0
O1125 O 0.55094 0.89595 0.74111 0.0
O1126 O 0.57436 0.88283 0.72376 0.0
C1127 C 0.50613 0.91587 0.74238 0.0
O1128 O 0.52036 0.92313 0.73212 0.0
C1129 C 0.58698 0.86284 0.67587 0.0
C1130 C 0.58683 0.83232 0.66651 0.0
C1131 C 0.59418 0.85037 0.66176 0.0
N1132 N 0.57582 0.85266 0.6882 0.0
N1133 N 0.57607 0.83436 0.68265 0.0
C1134 C 0.58866 0.8844 0.67629 0.0
H1135 H 0.57631 0.89083 0.68429 0.0
H1136 H 0.5892 0.89031 0.66139 0.0
H1137 H 0.60224 0.88844 0.68383 0.0
C1138 C 0.50643 0.88385 0.69639 0.0
N1139 N 0.52287 0.88138 0.70659 0.0
N1140 N 0.53598 0.873 0.69564 0.0
C1141 C 0.52812 0.86996 0.67792 0.0
C1142 C 0.50915 0.87683 0.67778 0.0
C1143 C 0.48745 0.88934 0.70531 0.0
H1144 H 0.48573 0.88198 0.71943 0.0
H1145 H 0.48716 0.9052 0.70774 0.0
H1146 H 0.47502 0.88539 0.69599 0.0
O1147 O 0.52711 0.85594 0.74359 0.0
O1148 O 0.55034 0.84134 0.72658 0.0
H1149 H 0.54104 0.84423 0.66667 0.0
H1150 H 0.52881 0.8587 0.64866 0.0
C1151 C 0.53787 0.85919 0.66189 0.0
H1152 H 0.55168 0.86643 0.65829 0.0
H1153 H 0.56818 0.8234 0.68936 0.0
O1154 O 0.50576 0.89775 0.74545 0.0
C1155 C 0.53716 0.84097 0.73964 0.0
Co1156 Co 0.16957 0.52932 0.735 0.0
Co1157 Co 0.18928 0.56043 0.70856 0.0
C1158 C 0.15819 0.57116 0.73786 0.0
O1159 O 0.15714 0.55362 0.74312 0.0
O1160 O 0.16941 0.57611 0.72406 0.0
C1161 C 0.13681 0.50919 0.7467 0.0
O1162 O 0.1289 0.52249 0.7357 0.0
C1163 C 0.18793 0.58515 0.67367 0.0
C1164 C 0.21837 0.59374 0.66983 0.0
C1165 C 0.20016 0.59579 0.66159 0.0
N1166 N 0.19848 0.57717 0.68801 0.0
N1167 N 0.21668 0.58242 0.68561 0.0
C1168 C 0.16646 0.58305 0.67228 0.0
H1169 H 0.16032 0.57851 0.68638 0.0
H1170 H 0.16294 0.57171 0.66147 0.0
H1171 H 0.15975 0.59686 0.66763 0.0
C1172 C 0.16706 0.50803 0.6982 0.0
N1173 N 0.16976 0.52477 0.70791 0.0
N1174 N 0.17937 0.53694 0.69691 0.0
C1175 C 0.18362 0.52797 0.67998 0.0
C1176 C 0.176 0.50925 0.68022 0.0
C1177 C 0.1571 0.4907 0.70653 0.0
H1178 H 0.14241 0.49489 0.71128 0.0
H1179 H 0.15544 0.47888 0.69582 0.0
H1180 H 0.16528 0.48539 0.71925 0.0
O1181 O 0.19665 0.5295 0.74405 0.0
O1182 O 0.21117 0.55255 0.72677 0.0
H1183 H 0.2037 0.52421 0.65619 0.0
H1184 H 0.19015 0.54645 0.65615 0.0
C1185 C 0.19765 0.53581 0.66549 0.0
H1186 H 0.20967 0.54328 0.67302 0.0
H1187 H 0.22797 0.57823 0.69469 0.0
O1188 O 0.15507 0.5088 0.74857 0.0
C1189 C 0.21162 0.53944 0.73989 0.0
Co1190 Co 0.52441 0.16957 0.73483 0.0
Co1191 Co 0.49284 0.18863 0.7085 0.0
C1192 C 0.48248 0.15749 0.73739 0.0
O1193 O 0.50006 0.15683 0.74265 0.0
O1194 O 0.47727 0.16861 0.72361 0.0
C1195 C 0.54651 0.13698 0.74355 0.0
O1196 O 0.53527 0.12974 0.73003 0.0
C1197 C 0.46558 0.18824 0.67551 0.0
C1198 C 0.46385 0.21907 0.66757 0.0
C1199 C 0.45755 0.20083 0.66197 0.0
N1200 N 0.47615 0.19855 0.68829 0.0
N1201 N 0.47482 0.21701 0.68355 0.0
C1202 C 0.46513 0.16661 0.67519 0.0
H1203 H 0.4776 0.16064 0.68333 0.0
H1204 H 0.46536 0.16115 0.66009 0.0
H1205 H 0.45162 0.16155 0.68221 0.0
C1206 C 0.54575 0.16793 0.69792 0.0
N1207 N 0.52907 0.17026 0.70782 0.0
N1208 N 0.51612 0.17848 0.69655 0.0
C1209 C 0.52429 0.18151 0.67899 0.0
C1210 C 0.54331 0.1748 0.67923 0.0
C1211 C 0.56466 0.16282 0.70718 0.0
H1212 H 0.56556 0.16929 0.72182 0.0
H1213 H 0.56573 0.14687 0.70846 0.0
H1214 H 0.57713 0.168 0.69853 0.0
O1215 O 0.52425 0.19635 0.74428 0.0
O1216 O 0.50096 0.21044 0.72698 0.0
H1217 H 0.51079 0.20696 0.6678 0.0
H1218 H 0.52424 0.1933 0.64995 0.0
C1219 C 0.51475 0.19223 0.66282 0.0
H1220 H 0.50136 0.18455 0.65856 0.0
H1221 H 0.48195 0.22815 0.69083 0.0
O1222 O 0.54476 0.15469 0.74813 0.0
C1223 C 0.5141 0.21115 0.74009 0.0
Co1224 Co 0.88209 0.52748 0.31867 0.0
Co1225 Co 0.86278 0.55955 0.34427 0.0
C1226 C 0.89503 0.56908 0.31602 0.0
O1227 O 0.89597 0.55131 0.31148 0.0
O1228 O 0.88295 0.57481 0.32879 0.0
C1229 C 0.91433 0.50481 0.31003 0.0
O1230 O 0.92175 0.51613 0.32339 0.0
C1231 C 0.86341 0.58682 0.37732 0.0
C1232 C 0.8325 0.58964 0.38462 0.0
C1233 C 0.85081 0.59529 0.39064 0.0
N1234 N 0.85302 0.57663 0.3643 0.0
N1235 N 0.83453 0.57861 0.36865 0.0
C1236 C 0.88502 0.58651 0.37806 0.0
H1237 H 0.89073 0.57398 0.36979 0.0
H1238 H 0.89013 0.58582 0.39326 0.0
H1239 H 0.89068 0.59996 0.37141 0.0
C1240 C 0.88316 0.50654 0.35576 0.0
N1241 N 0.88087 0.52305 0.34561 0.0
N1242 N 0.87258 0.53621 0.35662 0.0
C1243 C 0.86937 0.52829 0.37426 0.0
C1244 C 0.87614 0.50927 0.37436 0.0
C1245 C 0.88851 0.4875 0.34687 0.0
H1246 H 0.88212 0.48625 0.33222 0.0
H1247 H 0.90446 0.48657 0.34564 0.0
H1248 H 0.88343 0.47514 0.35572 0.0
O1249 O 0.85543 0.52828 0.3087 0.0
O1250 O 0.84099 0.5514 0.32596 0.0
H1251 H 0.84407 0.54261 0.38485 0.0
H1252 H 0.85666 0.5285 0.40294 0.0
C1253 C 0.85848 0.53806 0.39021 0.0
H1254 H 0.86649 0.55113 0.39485 0.0
H1255 H 0.82331 0.57188 0.36111 0.0
O1256 O 0.89662 0.50669 0.30555 0.0
C1257 C 0.84052 0.53833 0.31276 0.0
Co1258 Co 0.52405 0.88375 0.31938 0.0
Co1259 Co 0.49274 0.86214 0.34385 0.0
C1260 C 0.4828 0.89564 0.31634 0.0
O1261 O 0.50059 0.89776 0.31242 0.0
O1262 O 0.47737 0.88261 0.32832 0.0
C1263 C 0.54483 0.90258 0.28962 0.0
O1264 O 0.52986 0.89718 0.27924 0.0
C1265 C 0.4669 0.86285 0.37781 0.0
C1266 C 0.46127 0.83195 0.38323 0.0
C1267 C 0.4575 0.8503 0.39049 0.0
N1268 N 0.47569 0.8524 0.36386 0.0
N1269 N 0.47211 0.83392 0.36714 0.0
C1270 C 0.46904 0.88429 0.37975 0.0
H1271 H 0.48183 0.88942 0.37152 0.0
H1272 H 0.47043 0.88846 0.3952 0.0
H1273 H 0.45601 0.89142 0.37372 0.0
C1274 C 0.54437 0.88519 0.35627 0.0
N1275 N 0.52803 0.88208 0.34616 0.0
N1276 N 0.51601 0.87159 0.35645 0.0
C1277 C 0.52482 0.86702 0.37337 0.0
C1278 C 0.54326 0.87541 0.37381 0.0
C1279 C 0.56112 0.89659 0.34868 0.0
H1280 H 0.55575 0.90968 0.34113 0.0
H1281 H 0.57097 0.90114 0.36051 0.0
H1282 H 0.56926 0.88767 0.3381 0.0
O1283 O 0.52277 0.85743 0.30829 0.0
O1284 O 0.50092 0.84086 0.32516 0.0
H1285 H 0.52854 0.84639 0.39665 0.0
H1286 H 0.50589 0.85934 0.39648 0.0
C1287 C 0.51703 0.85239 0.38725 0.0
H1288 H 0.5101 0.84039 0.37918 0.0
H1289 H 0.47752 0.82262 0.35871 0.0
O1290 O 0.54564 0.89779 0.30731 0.0
C1291 C 0.51344 0.84185 0.31151 0.0
Co1292 Co 0.17075 0.52467 0.3177 0.0
Co1293 Co 0.18986 0.49283 0.34369 0.0
C1294 C 0.15777 0.48304 0.31547 0.0
O1295 O 0.15691 0.50075 0.31074 0.0
O1296 O 0.16978 0.47741 0.32832 0.0
C1297 C 0.13853 0.54731 0.30909 0.0
O1298 O 0.13124 0.53626 0.32271 0.0
C1299 C 0.18924 0.46552 0.37657 0.0
C1300 C 0.21998 0.46398 0.3849 0.0
C1301 C 0.20172 0.45765 0.39031 0.0
N1302 N 0.19963 0.47605 0.36387 0.0
N1303 N 0.21804 0.47482 0.36882 0.0
C1304 C 0.16762 0.46503 0.37671 0.0
H1305 H 0.16168 0.47743 0.36844 0.0
H1306 H 0.16206 0.46538 0.39176 0.0
H1307 H 0.16264 0.45145 0.36974 0.0
C1308 C 0.16968 0.54602 0.35455 0.0
N1309 N 0.17193 0.52938 0.34457 0.0
N1310 N 0.17992 0.51625 0.35579 0.0
C1311 C 0.18284 0.52428 0.37346 0.0
C1312 C 0.17632 0.54339 0.37329 0.0
C1313 C 0.16483 0.56505 0.34538 0.0
H1314 H 0.17108 0.56581 0.33065 0.0
H1315 H 0.1489 0.56647 0.34435 0.0
H1316 H 0.17044 0.5774 0.35396 0.0
O1317 O 0.19739 0.52375 0.30783 0.0
O1318 O 0.21169 0.50079 0.32537 0.0
H1319 H 0.20787 0.5104 0.38511 0.0
H1320 H 0.19394 0.5238 0.40278 0.0
C1321 C 0.19308 0.51445 0.38976 0.0
H1322 H 0.18517 0.5011 0.39367 0.0
H1323 H 0.22922 0.48199 0.36167 0.0
O1324 O 0.15616 0.54527 0.30441 0.0
C1325 C 0.21225 0.51371 0.31208 0.0
Co1326 Co 0.52774 0.17121 0.31828 0.0
Co1327 Co 0.55946 0.18948 0.34502 0.0
C1328 C 0.56956 0.15872 0.31564 0.0
O1329 O 0.552 0.15841 0.31031 0.0
O1330 O 0.57489 0.16947 0.32969 0.0
C1331 C 0.50541 0.13891 0.30972 0.0
O1332 O 0.51621 0.13197 0.32372 0.0
C1333 C 0.58667 0.18853 0.37804 0.0
C1334 C 0.58855 0.21926 0.38644 0.0
C1335 C 0.59475 0.20094 0.39178 0.0
N1336 N 0.57617 0.19905 0.36541 0.0
N1337 N 0.57759 0.21744 0.37041 0.0
C1338 C 0.58702 0.1669 0.37804 0.0
H1339 H 0.57452 0.16108 0.36981 0.0
H1340 H 0.58674 0.16127 0.39306 0.0
H1341 H 0.6005 0.16186 0.37096 0.0
C1342 C 0.50619 0.16951 0.35505 0.0
N1343 N 0.52295 0.17169 0.34527 0.0
N1344 N 0.536 0.17947 0.35675 0.0
C1345 C 0.52783 0.18231 0.37435 0.0
C1346 C 0.50868 0.17597 0.3739 0.0
C1347 C 0.48719 0.16505 0.34562 0.0
H1348 H 0.48669 0.17137 0.33091 0.0
H1349 H 0.48547 0.14914 0.34449 0.0
H1350 H 0.47486 0.17084 0.3541 0.0
O1351 O 0.52821 0.19804 0.30922 0.0
O1352 O 0.5517 0.21156 0.32677 0.0
H1353 H 0.54167 0.20729 0.38626 0.0
H1354 H 0.52807 0.19334 0.40372 0.0
C1355 C 0.53753 0.19248 0.39081 0.0
H1356 H 0.55083 0.18453 0.39482 0.0
H1357 H 0.57053 0.2287 0.36328 0.0
O1358 O 0.50745 0.15646 0.30471 0.0
C1359 C 0.5386 0.21262 0.31365 0.0
Co1360 Co 0.73295 0.88306 0.52496 0.0
Co1361 Co 0.70723 0.86264 0.49358 0.0
C1362 C 0.73601 0.89405 0.48285 0.0
O1363 O 0.74067 0.8952 0.50055 0.0
O1364 O 0.72271 0.88237 0.47748 0.0
C1365 C 0.74515 0.91672 0.54305 0.0
O1366 O 0.73567 0.92372 0.52815 0.0
C1367 C 0.67364 0.86311 0.46725 0.0
C1368 C 0.66576 0.83229 0.46501 0.0
C1369 C 0.65996 0.85062 0.45931 0.0
N1370 N 0.68678 0.85267 0.47717 0.0
N1371 N 0.68206 0.83421 0.47557 0.0
C1372 C 0.67327 0.88473 0.46707 0.0
H1373 H 0.68151 0.8906 0.47954 0.0
H1374 H 0.65816 0.89012 0.46745 0.0
H1375 H 0.68016 0.88994 0.45356 0.0
C1376 C 0.6962 0.88552 0.54568 0.0
N1377 N 0.70601 0.88264 0.52908 0.0
N1378 N 0.69519 0.87285 0.51687 0.0
C1379 C 0.67819 0.86867 0.52574 0.0
C1380 C 0.67829 0.87647 0.54442 0.0
C1381 C 0.70448 0.8956 0.56299 0.0
H1382 H 0.7101 0.90991 0.55859 0.0
H1383 H 0.69348 0.89798 0.57441 0.0
H1384 H 0.71664 0.88697 0.5689 0.0
O1385 O 0.74246 0.85611 0.52522 0.0
O1386 O 0.72561 0.8412 0.50204 0.0
H1387 H 0.67139 0.84141 0.51279 0.0
H1388 H 0.65285 0.85038 0.52877 0.0
C1389 C 0.66378 0.85458 0.51784 0.0
H1390 H 0.65631 0.86117 0.50528 0.0
H1391 H 0.68957 0.82296 0.48224 0.0
O1392 O 0.74588 0.89849 0.54532 0.0
C1393 C 0.73858 0.841 0.51531 0.0
Co1394 Co 0.73443 0.17052 0.5286 0.0
Co1395 Co 0.70782 0.18945 0.56007 0.0
C1396 C 0.73716 0.15877 0.5706 0.0
O1397 O 0.7424 0.15801 0.55302 0.0
O1398 O 0.72324 0.16977 0.57575 0.0
C1399 C 0.74277 0.13793 0.50651 0.0
O1400 O 0.72887 0.13109 0.5175 0.0
C1401 C 0.67483 0.18859 0.58724 0.0
C1402 C 0.66651 0.21932 0.58921 0.0
C1403 C 0.66112 0.20099 0.59536 0.0
N1404 N 0.68748 0.19911 0.57678 0.0
N1405 N 0.68253 0.21751 0.57825 0.0
C1406 C 0.67479 0.16696 0.58751 0.0
H1407 H 0.68307 0.16116 0.57503 0.0
H1408 H 0.65976 0.16133 0.58713 0.0
H1409 H 0.68179 0.16188 0.60101 0.0
C1410 C 0.69761 0.16865 0.50713 0.0
N1411 N 0.70742 0.17099 0.52387 0.0
N1412 N 0.69602 0.17903 0.53683 0.0
C1413 C 0.67844 0.18188 0.52863 0.0
C1414 C 0.67882 0.17527 0.50956 0.0
C1415 C 0.70699 0.16392 0.48816 0.0
H1416 H 0.72169 0.17024 0.48755 0.0
H1417 H 0.70809 0.148 0.48663 0.0
H1418 H 0.6985 0.16954 0.47577 0.0
O1419 O 0.74354 0.19738 0.52867 0.0
O1420 O 0.72597 0.21144 0.55183 0.0
H1421 H 0.66687 0.20714 0.54225 0.0
H1422 H 0.64925 0.19333 0.52867 0.0
C1423 C 0.66211 0.19237 0.53819 0.0
H1424 H 0.65792 0.18458 0.55152 0.0
H1425 H 0.68968 0.22877 0.57122 0.0
O1426 O 0.74784 0.15549 0.50838 0.0
C1427 C 0.73909 0.21221 0.53871 0.0
Co1428 Co 0.88184 0.73436 0.52783 0.0
Co1429 Co 0.86272 0.70871 0.55987 0.0
C1430 C 0.89486 0.73721 0.5693 0.0
O1431 O 0.89587 0.74166 0.55153 0.0
O1432 O 0.88278 0.72446 0.575 0.0
C1433 C 0.91392 0.74307 0.50519 0.0
O1434 O 0.92134 0.72976 0.51652 0.0
C1435 C 0.86383 0.67488 0.58611 0.0
C1436 C 0.83297 0.66982 0.59227 0.0
C1437 C 0.85128 0.66243 0.59586 0.0
N1438 N 0.85336 0.68859 0.577 0.0
N1439 N 0.83492 0.6855 0.58087 0.0
C1440 C 0.88545 0.67421 0.58574 0.0
H1441 H 0.89148 0.6886 0.58212 0.0
H1442 H 0.89028 0.66386 0.57446 0.0
H1443 H 0.89117 0.66934 0.59992 0.0
C1444 C 0.88276 0.69733 0.50668 0.0
N1445 N 0.88064 0.70741 0.52329 0.0
N1446 N 0.87222 0.69644 0.53635 0.0
C1447 C 0.86861 0.67893 0.52823 0.0
C1448 C 0.87541 0.67884 0.50922 0.0
C1449 C 0.8882 0.70628 0.48771 0.0
H1450 H 0.88173 0.72088 0.48649 0.0
H1451 H 0.90415 0.70759 0.48691 0.0
H1452 H 0.88324 0.69742 0.47527 0.0
O1453 O 0.85515 0.74427 0.52897 0.0
O1454 O 0.84085 0.72695 0.55211 0.0
H1455 H 0.84333 0.66933 0.5433 0.0
H1456 H 0.85395 0.65117 0.52766 0.0
C1457 C 0.85709 0.66327 0.53772 0.0
H1458 H 0.86536 0.6574 0.55008 0.0
H1459 H 0.82362 0.69394 0.57551 0.0
O1460 O 0.8962 0.74752 0.50702 0.0
C1461 C 0.84032 0.7402 0.53915 0.0
Co1462 Co 0.31889 0.88177 0.52726 0.0
Co1463 Co 0.34411 0.86244 0.55942 0.0
C1464 C 0.31555 0.8946 0.56874 0.0
O1465 O 0.31131 0.8957 0.55093 0.0
O1466 O 0.3282 0.88246 0.57452 0.0
C1467 C 0.31032 0.91402 0.50507 0.0
O1468 O 0.32345 0.92129 0.51674 0.0
C1469 C 0.3778 0.86383 0.58569 0.0
C1470 C 0.38292 0.83306 0.59223 0.0
C1471 C 0.3903 0.85145 0.59558 0.0
N1472 N 0.3641 0.85321 0.57672 0.0
N1473 N 0.36721 0.83482 0.58083 0.0
C1474 C 0.37844 0.88546 0.58499 0.0
H1475 H 0.36404 0.89141 0.58129 0.0
H1476 H 0.38873 0.89011 0.5736 0.0
H1477 H 0.38334 0.89143 0.59907 0.0
C1478 C 0.35612 0.88284 0.50656 0.0
N1479 N 0.34587 0.88064 0.52303 0.0
N1480 N 0.35664 0.87201 0.53612 0.0
C1481 C 0.37417 0.86826 0.52813 0.0
C1482 C 0.3745 0.87525 0.50921 0.0
C1483 C 0.34742 0.8886 0.48757 0.0
H1484 H 0.33291 0.88201 0.48596 0.0
H1485 H 0.34592 0.90456 0.48713 0.0
H1486 H 0.35652 0.88404 0.47517 0.0
O1487 O 0.30899 0.85504 0.52807 0.0
O1488 O 0.32604 0.84055 0.55129 0.0
H1489 H 0.38311 0.84278 0.54326 0.0
H1490 H 0.40142 0.85273 0.52742 0.0
C1491 C 0.38954 0.85631 0.53756 0.0
H1492 H 0.39578 0.86449 0.54983 0.0
H1493 H 0.35879 0.82343 0.57561 0.0
O1494 O 0.30595 0.89624 0.50646 0.0
C1495 C 0.31295 0.84011 0.53814 0.0
Co1496 Co 0.16984 0.31934 0.52803 0.0
Co1497 Co 0.18892 0.34574 0.55963 0.0
C1498 C 0.15694 0.31759 0.56978 0.0
O1499 O 0.15609 0.31281 0.55208 0.0
O1500 O 0.16895 0.33049 0.57538 0.0
C1501 C 0.13801 0.31172 0.50405 0.0
O1502 O 0.13138 0.32728 0.51272 0.0
C1503 C 0.18884 0.37845 0.5874 0.0
C1504 C 0.21921 0.38814 0.58669 0.0
C1505 C 0.20127 0.39272 0.59437 0.0
N1506 N 0.19895 0.36619 0.57606 0.0
N1507 N 0.21717 0.37195 0.57596 0.0
C1508 C 0.16734 0.37773 0.58956 0.0
H1509 H 0.16075 0.36984 0.57722 0.0
H1510 H 0.16123 0.39254 0.59048 0.0
H1511 H 0.16372 0.36992 0.60309 0.0
C1512 C 0.16953 0.35586 0.50605 0.0
N1513 N 0.17129 0.34614 0.52288 0.0
N1514 N 0.1789 0.35759 0.53609 0.0
C1515 C 0.18182 0.3752 0.52796 0.0
C1516 C 0.17584 0.37471 0.5087 0.0
C1517 C 0.16577 0.34641 0.48689 0.0
H1518 H 0.17074 0.33118 0.48705 0.0
H1519 H 0.15005 0.34682 0.48382 0.0
H1520 H 0.17332 0.3541 0.47502 0.0
O1521 O 0.1964 0.30935 0.52896 0.0
O1522 O 0.21073 0.32729 0.55165 0.0
H1523 H 0.20681 0.3878 0.54103 0.0
H1524 H 0.19143 0.405 0.52877 0.0
C1525 C 0.19162 0.39177 0.53783 0.0
H1526 H 0.18415 0.39495 0.55162 0.0
H1527 H 0.22808 0.36531 0.56791 0.0
O1528 O 0.15488 0.30563 0.50793 0.0
C1529 C 0.21129 0.31379 0.53889 0.0
Co1530 Co 0.31766 0.17176 0.52504 0.0
Co1531 Co 0.34426 0.19038 0.49345 0.0
C1532 C 0.31481 0.15973 0.48308 0.0
O1533 O 0.30956 0.15918 0.50066 0.0
O1534 O 0.3288 0.17057 0.47785 0.0
C1535 C 0.30929 0.13925 0.54702 0.0
O1536 O 0.32306 0.13238 0.53587 0.0
C1537 C 0.37721 0.18948 0.46615 0.0
C1538 C 0.3857 0.22017 0.4645 0.0
C1539 C 0.39098 0.20186 0.45815 0.0
N1540 N 0.36461 0.19999 0.47673 0.0
N1541 N 0.36967 0.21837 0.47545 0.0
C1542 C 0.37716 0.16785 0.46565 0.0
H1543 H 0.3689 0.16199 0.4781 0.0
H1544 H 0.39216 0.16215 0.46589 0.0
H1545 H 0.37007 0.16291 0.45212 0.0
C1546 C 0.35451 0.1698 0.54641 0.0
N1547 N 0.34467 0.17215 0.52971 0.0
N1548 N 0.35609 0.18009 0.51671 0.0
C1549 C 0.37371 0.18285 0.52487 0.0
C1550 C 0.37333 0.1763 0.54394 0.0
C1551 C 0.34517 0.16515 0.5654 0.0
H1552 H 0.3305 0.17156 0.56607 0.0
H1553 H 0.34397 0.14923 0.5669 0.0
H1554 H 0.35373 0.17073 0.57778 0.0
O1555 O 0.30861 0.19862 0.52497 0.0
O1556 O 0.3261 0.21244 0.50165 0.0
H1557 H 0.38544 0.208 0.51127 0.0
H1558 H 0.403 0.19403 0.52473 0.0
C1559 C 0.39009 0.19319 0.51526 0.0
H1560 H 0.39414 0.18536 0.50189 0.0
H1561 H 0.36259 0.22962 0.48261 0.0
O1562 O 0.30429 0.15684 0.54529 0.0
C1563 C 0.31303 0.21335 0.51482 0.0
Co1564 Co 0.8823 0.31708 0.52372 0.0
Co1565 Co 0.86307 0.34391 0.4927 0.0
C1566 C 0.8938 0.31449 0.48175 0.0
O1567 O 0.89461 0.30909 0.49926 0.0
O1568 O 0.88283 0.32851 0.47681 0.0
C1569 C 0.91506 0.30575 0.54403 0.0
O1570 O 0.92285 0.31745 0.53125 0.0
C1571 C 0.86407 0.37789 0.46676 0.0
C1572 C 0.83319 0.38492 0.46317 0.0
C1573 C 0.85158 0.39123 0.45822 0.0
N1574 N 0.85353 0.36451 0.47626 0.0
N1575 N 0.83505 0.36873 0.47386 0.0
C1576 C 0.88566 0.37874 0.46755 0.0
H1577 H 0.89114 0.37037 0.48009 0.0
H1578 H 0.89067 0.39396 0.46853 0.0
H1579 H 0.89165 0.37224 0.45415 0.0
C1580 C 0.88454 0.35361 0.54546 0.0
N1581 N 0.88217 0.3441 0.52856 0.0
N1582 N 0.87332 0.35545 0.51614 0.0
C1583 C 0.86959 0.37258 0.52498 0.0
C1584 C 0.87652 0.37198 0.54393 0.0
C1585 C 0.89265 0.34456 0.56339 0.0
H1586 H 0.88419 0.33146 0.56711 0.0
H1587 H 0.9078 0.34022 0.56065 0.0
H1588 H 0.89272 0.35467 0.57584 0.0
O1589 O 0.85529 0.30822 0.52369 0.0
O1590 O 0.84106 0.32584 0.50073 0.0
H1591 H 0.84317 0.38099 0.51127 0.0
H1592 H 0.85286 0.39902 0.52753 0.0
C1593 C 0.85664 0.3878 0.5167 0.0
H1594 H 0.86402 0.39483 0.50434 0.0
H1595 H 0.82372 0.36089 0.48 0.0
O1596 O 0.89686 0.30333 0.54401 0.0
C1597 C 0.84038 0.31269 0.5138 0.0
Co1598 Co 0.16968 0.73478 0.52448 0.0
Co1599 Co 0.18825 0.70847 0.49261 0.0
C1600 C 0.15731 0.73798 0.48275 0.0
O1601 O 0.15666 0.74302 0.5004 0.0
O1602 O 0.1684 0.72422 0.47737 0.0
C1603 C 0.13752 0.74322 0.54697 0.0
O1604 O 0.13039 0.72959 0.53578 0.0
C1605 C 0.18718 0.67477 0.46603 0.0
C1606 C 0.21812 0.66902 0.46094 0.0
C1607 C 0.19978 0.66204 0.45667 0.0
N1608 N 0.19763 0.68822 0.4756 0.0
N1609 N 0.21612 0.68473 0.47234 0.0
C1610 C 0.16554 0.67453 0.4657 0.0
H1611 H 0.15968 0.68904 0.46914 0.0
H1612 H 0.16015 0.66431 0.4768 0.0
H1613 H 0.16019 0.66976 0.45133 0.0
C1614 C 0.16812 0.69778 0.5457 0.0
N1615 N 0.17022 0.7077 0.529 0.0
N1616 N 0.17835 0.69646 0.51595 0.0
C1617 C 0.18165 0.67893 0.52409 0.0
C1618 C 0.17508 0.67912 0.54317 0.0
C1619 C 0.1633 0.70701 0.56473 0.0
H1620 H 0.16977 0.72164 0.56558 0.0
H1621 H 0.14738 0.70828 0.56607 0.0
H1622 H 0.16869 0.69834 0.57709 0.0
O1623 O 0.19654 0.74394 0.52407 0.0
O1624 O 0.21037 0.7265 0.50067 0.0
H1625 H 0.20688 0.66854 0.50945 0.0
H1626 H 0.1951 0.65056 0.5244 0.0
C1627 C 0.19274 0.66297 0.51454 0.0
H1628 H 0.18454 0.65769 0.50184 0.0
H1629 H 0.22741 0.69289 0.47815 0.0
O1630 O 0.15512 0.74806 0.54506 0.0
C1631 C 0.21126 0.73958 0.51385 0.0
H1632 H 0.11968 0.32699 0.47304 0.0
H1633 H 0.12927 0.27364 0.50366 0.0
H1634 H 0.09943 0.31014 0.4497 0.0
H1635 H 0.10745 0.2569 0.48176 0.0
H1636 H 0.07795 0.22672 0.43283 0.0
H1637 H 0.1015 0.24353 0.45284 0.0
H1638 H 0.0703 0.29717 0.44387 0.0
H1639 H 0.0482 0.28041 0.42226 0.0
C1640 C 0.11719 0.31162 0.4748 0.0
C1641 C 0.12596 0.3015 0.48995 0.0
C1642 C 0.10539 0.30193 0.46158 0.0
C1643 C 0.10148 0.28202 0.46372 0.0
C1644 C 0.11034 0.27204 0.47913 0.0
C1645 C 0.12273 0.28162 0.49188 0.0
C1646 C 0.0764 0.24215 0.43507 0.0
C1647 C 0.06144 0.25237 0.42608 0.0
C1648 C 0.08975 0.25184 0.44673 0.0
C1649 C 0.08792 0.27184 0.4503 0.0
C1650 C 0.07268 0.28193 0.44124 0.0
C1651 C 0.05982 0.27234 0.42897 0.0
H1652 H 0.72755 0.10604 0.4892 0.0
H1653 H 0.77887 0.14162 0.49112 0.0
H1654 H 0.74335 0.08448 0.46597 0.0
H1655 H 0.79479 0.1197 0.46822 0.0
H1656 H 0.81912 0.0569 0.45189 0.0
H1657 H 0.80355 0.08118 0.47241 0.0
H1658 H 0.75886 0.08881 0.42957 0.0
H1659 H 0.77468 0.06484 0.40872 0.0
C1660 C 0.74218 0.10924 0.48464 0.0
C1661 C 0.75205 0.12542 0.49197 0.0
C1662 C 0.75113 0.097 0.4713 0.0
C1663 C 0.77021 0.10052 0.46542 0.0
C1664 C 0.78006 0.11675 0.47263 0.0
C1665 C 0.77095 0.12926 0.48564 0.0
C1666 C 0.80603 0.06383 0.44682 0.0
C1667 C 0.79804 0.05899 0.42878 0.0
C1668 C 0.79723 0.07776 0.45848 0.0
C1669 C 0.78008 0.08676 0.45248 0.0
C1670 C 0.77208 0.08198 0.43444 0.0
C1671 C 0.78113 0.06836 0.42256 0.0
H1672 H 0.94727 0.72953 0.48932 0.0
H1673 H 0.90791 0.77804 0.48801 0.0
H1674 H 0.96816 0.74585 0.46594 0.0
H1675 H 0.92908 0.79449 0.46488 0.0
H1676 H 0.98899 0.82355 0.44786 0.0
H1677 H 0.96548 0.8072 0.46857 0.0
H1678 H 0.96482 0.75847 0.4295 0.0
H1679 H 0.98808 0.77494 0.40851 0.0
C1680 C 0.94309 0.74365 0.484 0.0
C1681 C 0.92604 0.75257 0.4905 0.0
C1682 C 0.95496 0.7529 0.47058 0.0
C1683 C 0.95016 0.77137 0.46371 0.0
C1684 C 0.93305 0.78025 0.47006 0.0
C1685 C 0.92096 0.77083 0.4832 0.0
C1686 C 0.98375 0.8094 0.44364 0.0
C1687 C 0.99038 0.80046 0.42664 0.0
C1688 C 0.97024 0.80013 0.45541 0.0
C1689 C 0.96343 0.78163 0.45056 0.0
C1690 C 0.96995 0.77272 0.43352 0.0
C1691 C 0.98317 0.78216 0.42153 0.0
H1692 H 0.2784 0.99005 0.41007 0.0
H1693 H 0.22959 0.98988 0.44909 0.0
H1694 H 0.29492 0.96651 0.43069 0.0
H1695 H 0.24601 0.96609 0.46944 0.0
H1696 H 0.27552 0.90814 0.4875 0.0
H1697 H 0.259 0.92978 0.46487 0.0
H1698 H 0.30729 0.96923 0.4673 0.0
H1699 H 0.32368 0.94787 0.49019 0.0
C1700 C 0.27115 0.98485 0.42295 0.0
C1701 C 0.25278 0.99183 0.42807 0.0
C1702 C 0.28061 0.97148 0.43472 0.0
C1703 C 0.27167 0.96457 0.45155 0.0
C1704 C 0.25311 0.97116 0.45643 0.0
C1705 C 0.24381 0.98482 0.44488 0.0
C1706 C 0.28264 0.92138 0.4831 0.0
C1707 C 0.30082 0.92641 0.49063 0.0
C1708 C 0.27317 0.93374 0.47025 0.0
C1709 C 0.28194 0.95108 0.46444 0.0
C1710 C 0.30033 0.95585 0.47154 0.0
C1711 C 0.30963 0.9437 0.48467 0.0
H1712 H 0.06515 0.77502 0.64523 0.0
H1713 H 0.05846 0.82044 0.6029 0.0
H1714 H 0.08882 0.75901 0.6242 0.0
H1715 H 0.08243 0.80466 0.58221 0.0
H1716 H 0.14208 0.77893 0.56307 0.0
H1717 H 0.12061 0.79493 0.5863 0.0
H1718 H 0.08425 0.74423 0.58759 0.0
H1719 H 0.10539 0.72836 0.56403 0.0
C1720 C 0.06889 0.78165 0.63155 0.0
C1721 C 0.05995 0.79888 0.6256 0.0
C1722 C 0.08234 0.77249 0.61956 0.0
C1723 C 0.08736 0.7807 0.60172 0.0
C1724 C 0.07882 0.79817 0.596 0.0
C1725 C 0.06506 0.8071 0.60776 0.0
C1726 C 0.12957 0.77119 0.56841 0.0
C1727 C 0.12529 0.75248 0.56171 0.0
C1728 C 0.11732 0.78034 0.58161 0.0
C1729 C 0.1009 0.77073 0.58864 0.0
C1730 C 0.09693 0.75183 0.5824 0.0
C1731 C 0.10893 0.74284 0.56888 0.0
H1732 H 0.27825 0.06554 0.64436 0.0
H1733 H 0.23249 0.05925 0.60228 0.0
H1734 H 0.29407 0.08943 0.6235 0.0
H1735 H 0.24809 0.08343 0.58175 0.0
H1736 H 0.27352 0.14332 0.56306 0.0
H1737 H 0.25769 0.12147 0.58601 0.0
H1738 H 0.30866 0.0855 0.58697 0.0
H1739 H 0.32436 0.10702 0.56372 0.0
C1740 C 0.27152 0.0694 0.63076 0.0
C1741 C 0.25423 0.06052 0.62484 0.0
C1742 C 0.28056 0.08298 0.61887 0.0
C1743 C 0.2722 0.08819 0.60114 0.0
C1744 C 0.25469 0.07968 0.59544 0.0
C1745 C 0.24588 0.0658 0.60711 0.0
C1746 C 0.28136 0.1308 0.56827 0.0
C1747 C 0.30009 0.12675 0.56157 0.0
C1748 C 0.27231 0.11834 0.58131 0.0
C1749 C 0.28204 0.10192 0.58817 0.0
C1750 C 0.30096 0.09817 0.58192 0.0
C1751 C 0.30985 0.11039 0.56857 0.0
H1752 H 0.98893 0.27772 0.64179 0.0
H1753 H 0.98844 0.22662 0.60573 0.0
H1754 H 0.96595 0.29334 0.61983 0.0
H1755 H 0.96512 0.24212 0.58411 0.0
H1756 H 0.90755 0.27267 0.56412 0.0
H1757 H 0.92844 0.2569 0.58804 0.0
H1758 H 0.97046 0.30255 0.58156 0.0
H1759 H 0.94992 0.31808 0.55734 0.0
C1760 C 0.98374 0.26977 0.62932 0.0
C1761 C 0.99051 0.25103 0.62536 0.0
C1762 C 0.97068 0.27871 0.61678 0.0
C1763 C 0.96386 0.26886 0.60039 0.0
C1764 C 0.97015 0.24991 0.59675 0.0
C1765 C 0.98353 0.24113 0.60903 0.0
C1766 C 0.92123 0.27934 0.56787 0.0
C1767 C 0.92721 0.29651 0.55885 0.0
C1768 C 0.93313 0.27031 0.58146 0.0
C1769 C 0.95093 0.27861 0.58656 0.0
C1770 C 0.95671 0.296 0.57789 0.0
C1771 C 0.94504 0.30477 0.56399 0.0
H1772 H 0.74526 0.95603 0.54203 0.0
H1773 H 0.76496 0.90753 0.57614 0.0
H1774 H 0.75985 0.97822 0.56504 0.0
H1775 H 0.77997 0.9299 0.59908 0.0
H1776 H 0.78622 0.97806 0.64553 0.0
H1777 H 0.77139 0.95476 0.62342 0.0
H1778 H 0.79224 0.98781 0.57473 0.0
H1779 H 0.80665 0.01119 0.59667 0.0
C1780 C 0.75277 0.95008 0.55442 0.0
C1781 C 0.75403 0.93001 0.55722 0.0
C1782 C 0.76123 0.96283 0.56755 0.0
C1783 C 0.77118 0.95581 0.58379 0.0
C1784 C 0.77227 0.93573 0.58677 0.0
C1785 C 0.76378 0.92293 0.57358 0.0
C1786 C 0.78761 0.98033 0.6301 0.0
C1787 C 0.79749 0.99653 0.62284 0.0
C1788 C 0.77923 0.96693 0.61746 0.0
C1789 C 0.78056 0.96953 0.59735 0.0
C1790 C 0.79068 0.98559 0.59015 0.0
C1791 C 0.79902 0.99895 0.60274 0.0
H1792 H 0.49092 0.1426 0.27326 0.0
H1793 H 0.48762 0.10719 0.32458 0.0
H1794 H 0.46844 0.12067 0.25675 0.0
H1795 H 0.46479 0.08563 0.30819 0.0
H1796 H 0.40828 0.06632 0.27521 0.0
H1797 H 0.4287 0.09034 0.29148 0.0
H1798 H 0.47305 0.08175 0.24844 0.0
H1799 H 0.45294 0.05738 0.23244 0.0
C1800 C 0.48521 0.13027 0.28105 0.0
C1801 C 0.49104 0.12648 0.30013 0.0
C1802 C 0.47245 0.11776 0.27161 0.0
C1803 C 0.46499 0.10158 0.28129 0.0
C1804 C 0.47034 0.09811 0.30054 0.0
C1805 C 0.48344 0.11035 0.30982 0.0
C1806 C 0.42235 0.06964 0.26921 0.0
C1807 C 0.42911 0.05997 0.25266 0.0
C1808 C 0.43399 0.0833 0.27851 0.0
C1809 C 0.45232 0.08781 0.27111 0.0
C1810 C 0.45888 0.07852 0.2543 0.0
C1811 C 0.44745 0.06455 0.24525 0.0
H1812 H 0.98837 0.40793 0.27811 0.0
H1813 H 0.98889 0.44683 0.22927 0.0
H1814 H 0.9652 0.42904 0.29462 0.0
H1815 H 0.96547 0.46767 0.24566 0.0
H1816 H 0.90819 0.48749 0.2751 0.0
H1817 H 0.92924 0.46424 0.25861 0.0
H1818 H 0.96853 0.46549 0.30707 0.0
H1819 H 0.94775 0.48898 0.32344 0.0
C1820 C 0.98339 0.42087 0.27085 0.0
C1821 C 0.99047 0.42582 0.25247 0.0
C1822 C 0.97022 0.43293 0.2803 0.0
C1823 C 0.96362 0.4499 0.27135 0.0
C1824 C 0.97029 0.45457 0.25277 0.0
C1825 C 0.98374 0.44273 0.24348 0.0
C1826 C 0.92126 0.4827 0.28226 0.0
C1827 C 0.92641 0.49008 0.30049 0.0
C1828 C 0.93329 0.46949 0.27281 0.0
C1829 C 0.95042 0.46315 0.28163 0.0
C1830 C 0.95531 0.47011 0.30007 0.0
C1831 C 0.94349 0.4836 0.30934 0.0
H1832 H 0.64495 0.97447 0.26087 0.0
H1833 H 0.59465 1.00334 0.23762 0.0
H1834 H 0.6246 0.9476 0.27136 0.0
H1835 H 0.57437 0.97668 0.24833 0.0
H1836 H 0.5458 0.91826 0.25339 0.0
H1837 H 0.56826 0.94249 0.24113 0.0
H1838 H 0.59917 0.94144 0.29541 0.0
H1839 H 0.57695 0.91699 0.30757 0.0
C1840 C 0.62956 0.97512 0.25807 0.0
C1841 C 0.6214 0.99105 0.24846 0.0
C1842 C 0.61792 0.95975 0.2641 0.0
C1843 C 0.59791 0.95999 0.26059 0.0
C1844 C 0.58979 0.97592 0.25097 0.0
C1845 C 0.6014 0.99128 0.24498 0.0
C1846 C 0.55751 0.92303 0.26263 0.0
C1847 C 0.5595 0.91581 0.2815 0.0
C1848 C 0.5703 0.937 0.25565 0.0
C1849 C 0.58536 0.944 0.26738 0.0
C1850 C 0.58779 0.93624 0.28598 0.0
C1851 C 0.57499 0.92229 0.29297 0.0
H1852 H 0.1443 0.56413 0.2739 0.0
H1853 H 0.10535 0.56347 0.32275 0.0
H1854 H 0.12316 0.58729 0.25746 0.0
H1855 H 0.08448 0.58686 0.30643 0.0
H1856 H 0.06452 0.64414 0.2773 0.0
H1857 H 0.08778 0.62307 0.29367 0.0
H1858 H 0.08683 0.58402 0.24494 0.0
H1859 H 0.06333 0.60481 0.22868 0.0
C1860 C 0.13134 0.56908 0.28118 0.0
C1861 C 0.12638 0.56196 0.29954 0.0
C1862 C 0.11926 0.58223 0.27176 0.0
C1863 C 0.10227 0.58879 0.28074 0.0
C1864 C 0.09759 0.58208 0.2993 0.0
C1865 C 0.10945 0.56864 0.30855 0.0
C1866 C 0.06938 0.63111 0.27005 0.0
C1867 C 0.06208 0.62603 0.25178 0.0
C1868 C 0.08259 0.61908 0.27944 0.0
C1869 C 0.08902 0.602 0.27051 0.0
C1870 C 0.08215 0.59719 0.25203 0.0
C1871 C 0.06865 0.60901 0.24281 0.0
H1872 H 0.41853 1.00533 0.75243 0.0
H1873 H 0.41575 0.97439 0.80664 0.0
H1874 H 0.44263 0.98242 0.74065 0.0
H1875 H 0.44009 0.95179 0.795 0.0
H1876 H 0.47309 0.90526 0.76144 0.0
H1877 H 0.4464 0.92613 0.77141 0.0
H1878 H 0.47647 0.97568 0.74815 0.0
H1879 H 0.50292 0.95487 0.73792 0.0
C1880 C 0.42295 0.99358 0.76179 0.0
C1881 C 0.41534 0.99178 0.78053 0.0
C1882 C 0.43685 0.98054 0.75508 0.0
C1883 C 0.4434 0.96541 0.76697 0.0
C1884 C 0.43525 0.9632 0.78544 0.0
C1885 C 0.42137 0.97624 0.79215 0.0
C1886 C 0.474 0.92062 0.75849 0.0
C1887 C 0.49013 0.92843 0.74893 0.0
C1888 C 0.45873 0.93256 0.76422 0.0
C1889 C 0.45929 0.95254 0.76049 0.0
C1890 C 0.47544 0.9603 0.75094 0.0
C1891 C 0.49068 0.94839 0.74523 0.0
H1892 H 0.06513 0.40969 0.7758 0.0
H1893 H 0.05898 0.4505 0.82278 0.0
H1894 H 0.08872 0.43124 0.76033 0.0
H1895 H 0.08296 0.47163 0.80758 0.0
H1896 H 0.14419 0.48865 0.77954 0.0
H1897 H 0.12304 0.46472 0.79505 0.0
H1898 H 0.08138 0.47164 0.74918 0.0
H1899 H 0.1021 0.49595 0.73396 0.0
C1900 C 0.06901 0.42312 0.78291 0.0
C1901 C 0.0602 0.42854 0.80039 0.0
C1902 C 0.08242 0.43538 0.77408 0.0
C1903 C 0.08755 0.45292 0.7829 0.0
C1904 C 0.07922 0.45807 0.80065 0.0
C1905 C 0.06547 0.44606 0.80923 0.0
C1906 C 0.13055 0.48497 0.77276 0.0
C1907 C 0.12467 0.49419 0.75565 0.0
C1908 C 0.11853 0.47136 0.78161 0.0
C1909 C 0.10076 0.46643 0.77317 0.0
C1910 C 0.09512 0.47522 0.75581 0.0
C1911 C 0.10689 0.48916 0.74723 0.0
H1912 H 0.56388 0.14291 0.77846 0.0
H1913 H 0.5621 0.10345 0.72997 0.0
H1914 H 0.5872 0.1218 0.79469 0.0
H1915 H 0.58566 0.08261 0.74608 0.0
H1916 H 0.6437 0.06318 0.77447 0.0
H1917 H 0.6222 0.08609 0.75817 0.0
H1918 H 0.58407 0.08556 0.80756 0.0
H1919 H 0.6053 0.0624 0.82374 0.0
C1920 C 0.5686 0.12983 0.77122 0.0
C1921 C 0.56114 0.12474 0.75301 0.0
C1922 C 0.58185 0.11777 0.78052 0.0
C1923 C 0.58815 0.10067 0.77157 0.0
C1924 C 0.58107 0.09581 0.75318 0.0
C1925 C 0.56754 0.10766 0.74405 0.0
C1926 C 0.63078 0.06805 0.78186 0.0
C1927 C 0.62609 0.06098 0.80031 0.0
C1928 C 0.61849 0.08106 0.77252 0.0
C1929 C 0.60156 0.08752 0.78167 0.0
C1930 C 0.59713 0.08085 0.8003 0.0
C1931 C 0.6092 0.06755 0.80948 0.0
H1932 H 0.98964 0.6447 0.77335 0.0
H1933 H 0.99051 0.60557 0.822 0.0
H1934 H 0.96657 0.6235 0.75678 0.0
H1935 H 0.96721 0.58465 0.80556 0.0
H1936 H 0.90987 0.56472 0.77657 0.0
H1937 H 0.931 0.58796 0.79296 0.0
H1938 H 0.96974 0.58722 0.74405 0.0
H1939 H 0.94887 0.56374 0.72776 0.0
C1940 C 0.98477 0.63168 0.78055 0.0
C1941 C 0.99191 0.6267 0.7989 0.0
C1942 C 0.97166 0.61957 0.77106 0.0
C1943 C 0.96518 0.60253 0.77996 0.0
C1944 C 0.97194 0.59779 0.79849 0.0
C1945 C 0.98533 0.60969 0.80781 0.0
C1946 C 0.92284 0.56961 0.76929 0.0
C1947 C 0.92781 0.56238 0.75096 0.0
C1948 C 0.93491 0.58282 0.77868 0.0
C1949 C 0.95192 0.5893 0.76971 0.0
C1950 C 0.95662 0.58249 0.75117 0.0
C1951 C 0.94475 0.56901 0.74194 0.0
H1952 H 0.22746 0.44702 0.06326 0.0
H1953 H 0.27905 0.41183 0.06151 0.0
H1954 H 0.24305 0.46875 0.08647 0.0
H1955 H 0.29476 0.4339 0.0844 0.0
H1956 H 0.31899 0.49629 0.10136 0.0
H1957 H 0.30351 0.47221 0.08055 0.0
H1958 H 0.25822 0.46472 0.12278 0.0
H1959 H 0.27394 0.48851 0.14392 0.0
C1960 C 0.24212 0.44395 0.06785 0.0
C1961 C 0.25211 0.42782 0.06057 0.0
C1962 C 0.25095 0.45629 0.08117 0.0
C1963 C 0.27004 0.45291 0.08711 0.0
C1964 C 0.28002 0.43675 0.07994 0.0
C1965 C 0.27103 0.42415 0.06693 0.0
C1966 C 0.30577 0.48946 0.10623 0.0
C1967 C 0.2976 0.49427 0.12419 0.0
C1968 C 0.29702 0.47563 0.09439 0.0
C1969 C 0.27975 0.46671 0.10016 0.0
C1970 C 0.27154 0.47149 0.11809 0.0
C1971 C 0.28053 0.48502 0.13014 0.0
H1972 H 0.30588 0.5408 0.95602 0.0
H1973 H 0.28564 0.57471 0.90761 0.0
H1974 H 0.29208 0.56421 0.97828 0.0
H1975 H 0.27137 0.59806 0.93007 0.0
H1976 H 0.2662 0.64499 0.97782 0.0
H1977 H 0.28046 0.62255 0.95446 0.0
H1978 H 0.26018 0.5743 0.98852 0.0
H1979 H 0.24639 0.59654 0.01194 0.0
C1980 C 0.29839 0.55322 0.95011 0.0
C1981 C 0.29676 0.55585 0.93004 0.0
C1982 C 0.2904 0.5666 0.96289 0.0
C1983 C 0.28051 0.5829 0.95593 0.0
C1984 C 0.27904 0.5857 0.93585 0.0
C1985 C 0.28709 0.57228 0.92301 0.0
C1986 C 0.26484 0.62958 0.9803 0.0
C1987 C 0.25529 0.62253 0.99679 0.0
C1988 C 0.27288 0.61675 0.96687 0.0
C1989 C 0.27154 0.59667 0.96971 0.0
C1990 C 0.26177 0.58969 0.98609 0.0
C1991 C 0.25377 0.60247 0.99947 0.0
H1992 H 0.4884 0.32587 0.94761 0.0
H1993 H 0.4908 0.27417 0.91251 0.0
H1994 H 0.46513 0.31015 0.96915 0.0
H1995 H 0.46788 0.25834 0.93439 0.0
H1996 H 0.45113 0.23424 0.99686 0.0
H1997 H 0.4719 0.24999 0.97299 0.0
H1998 H 0.42879 0.29429 0.96459 0.0
H1999 H 0.40768 0.27827 0.98815 0.0
C2000 C 0.48394 0.31118 0.94451 0.0
C2001 C 0.49141 0.30119 0.92847 0.0
C2002 C 0.47058 0.30227 0.95674 0.0
C2003 C 0.46484 0.28311 0.95333 0.0
C2004 C 0.47219 0.27314 0.93725 0.0
C2005 C 0.48521 0.2822 0.92476 0.0
C2006 C 0.44606 0.24729 0.98987 0.0
C2007 C 0.42785 0.25509 0.99435 0.0
C2008 C 0.45787 0.2562 0.97617 0.0
C2009 C 0.45185 0.27327 0.96705 0.0
C2010 C 0.43368 0.28112 0.97151 0.0
C2011 C 0.42165 0.27196 0.9849 0.0
H2012 H 0.77874 0.44584 0.0188 0.0
H2013 H 0.8025 0.41132 0.97248 0.0
H2014 H 0.76442 0.46766 0.99541 0.0
H2015 H 0.78908 0.43388 0.94881 0.0
H2016 H 0.74819 0.47048 0.91122 0.0
H2017 H 0.76108 0.44643 0.93369 0.0
H2018 H 0.77412 0.49206 0.97456 0.0
H2019 H 0.76031 0.51566 0.95264 0.0
C2020 C 0.78098 0.44302 1.00355 0.0
C2021 C 0.7918 0.42701 0.99741 0.0
C2022 C 0.77292 0.45562 0.9901 0.0
C2023 C 0.77588 0.4528 0.97017 0.0
C2024 C 0.78636 0.43645 0.96402 0.0
C2025 C 0.79412 0.42356 0.97754 0.0
C2026 C 0.75386 0.47525 0.92503 0.0
C2027 C 0.75312 0.49484 0.93033 0.0
C2028 C 0.76132 0.46152 0.93787 0.0
C2029 C 0.76844 0.46722 0.95608 0.0
C2030 C 0.76823 0.48699 0.96096 0.0
C2031 C 0.76045 0.50058 0.94834 0.0
H2032 H 0.5631 0.72805 0.94714 0.0
H2033 H 0.56377 0.77716 0.90859 0.0
H2034 H 0.58655 0.74422 0.96811 0.0
H2035 H 0.58699 0.79346 0.92983 0.0
H2036 H 0.60469 0.82193 0.98976 0.0
H2037 H 0.58378 0.80573 0.96627 0.0
H2038 H 0.62279 0.75704 0.96488 0.0
H2039 H 0.64397 0.77337 0.98814 0.0
C2040 C 0.56828 0.74227 0.94314 0.0
C2041 C 0.56159 0.7514 0.92629 0.0
C2042 C 0.58176 0.75145 0.95507 0.0
C2043 C 0.58849 0.77004 0.95053 0.0
C2044 C 0.58192 0.77913 0.93362 0.0
C2045 C 0.56872 0.7698 0.92148 0.0
C2046 C 0.60885 0.80781 0.98437 0.0
C2047 C 0.62589 0.79886 0.9908 0.0
C2048 C 0.59696 0.79863 0.97087 0.0
C2049 C 0.60173 0.78019 0.96385 0.0
C2050 C 0.61882 0.77125 0.97018 0.0
C2051 C 0.63092 0.78061 0.9834 0.0
H2052 H 0.82297 0.60409 0.06311 0.0
H2053 H 0.77451 0.64346 0.06523 0.0
H2054 H 0.80685 0.58303 0.08647 0.0
H2055 H 0.75825 0.62212 0.08834 0.0
H2056 H 0.72925 0.56221 0.10527 0.0
H2057 H 0.74544 0.58583 0.08457 0.0
H2058 H 0.79461 0.58598 0.12299 0.0
H2059 H 0.77829 0.5626 0.14398 0.0
C2060 C 0.8089 0.60824 0.0686 0.0
C2061 C 0.79993 0.62534 0.06234 0.0
C2062 C 0.79976 0.59627 0.08202 0.0
C2063 C 0.78136 0.60102 0.08911 0.0
C2064 C 0.77243 0.61818 0.08298 0.0
C2065 C 0.78175 0.63037 0.06985 0.0
C2066 C 0.74347 0.56735 0.10935 0.0
C2067 C 0.75257 0.56054 0.12617 0.0
C2068 C 0.75265 0.58093 0.09759 0.0
C2069 C 0.77122 0.58764 0.10226 0.0
C2070 C 0.78029 0.58093 0.11911 0.0
C2071 C 0.77095 0.56764 0.1311 0.0
H2072 H 0.51171 0.74792 0.09427 0.0
H2073 H 0.47716 0.76414 0.14379 0.0
H2074 H 0.48811 0.76272 0.0729 0.0
H2075 H 0.4536 0.77934 0.12228 0.0
H2076 H 0.40687 0.78621 0.07443 0.0
H2077 H 0.42949 0.77101 0.09696 0.0
H2078 H 0.47741 0.79544 0.06525 0.0
H2079 H 0.45501 0.81025 0.04265 0.0
C2080 C 0.4991 0.7547 0.10061 0.0
C2081 C 0.49635 0.75495 0.12073 0.0
C2082 C 0.48562 0.76327 0.08836 0.0
C2083 C 0.46908 0.77232 0.09593 0.0
C2084 C 0.46615 0.77235 0.11604 0.0
C2085 C 0.47969 0.76376 0.12834 0.0
C2086 C 0.42224 0.78832 0.07231 0.0
C2087 C 0.42917 0.79931 0.0567 0.0
C2088 C 0.43516 0.77972 0.08526 0.0
C2089 C 0.45521 0.78194 0.08277 0.0
C2090 C 0.46206 0.79319 0.06734 0.0
C2091 C 0.44919 0.80177 0.05445 0.0
H2092 H 0.60356 0.26617 0.03584 0.0
H2093 H 0.64402 0.25134 0.08099 0.0
H2094 H 0.58121 0.27869 0.05981 0.0
H2095 H 0.62115 0.26307 0.10532 0.0
H2096 H 0.58107 0.30273 0.14167 0.0
H2097 H 0.60545 0.29064 0.11903 0.0
H2098 H 0.56004 0.2667 0.08325 0.0
H2099 H 0.53593 0.2796 0.10525 0.0
C2100 C 0.6076 0.2655 0.05096 0.0
C2101 C 0.62543 0.2577 0.05659 0.0
C2102 C 0.59473 0.27253 0.06475 0.0
C2103 C 0.59919 0.27156 0.08457 0.0
C2104 C 0.61729 0.26415 0.09019 0.0
C2105 C 0.63036 0.25739 0.07629 0.0
C2106 C 0.57642 0.29476 0.129 0.0
C2107 C 0.55667 0.29226 0.12504 0.0
C2108 C 0.59035 0.28779 0.11606 0.0
C2109 C 0.58472 0.27797 0.09912 0.0
C2110 C 0.56492 0.27473 0.09579 0.0
C2111 C 0.55107 0.28198 0.10848 0.0
H2112 H 0.99124 0.79431 0.62625 0.0
H2113 H 0.94264 0.81352 0.66044 0.0
H2114 H 0.96989 0.77496 0.60635 0.0
H2115 H 0.92091 0.79399 0.64003 0.0
H2116 H 0.89272 0.73928 0.6094 0.0
H2117 H 0.91284 0.759 0.63121 0.0
H2118 H 0.94518 0.77988 0.58213 0.0
H2119 H 0.92554 0.76033 0.56066 0.0
C2120 C 0.97592 0.79455 0.6295 0.0
C2121 C 0.96875 0.80565 0.64502 0.0
C2122 C 0.9636 0.78341 0.61795 0.0
C2123 C 0.94359 0.78286 0.62145 0.0
C2124 C 0.93627 0.79393 0.63698 0.0
C2125 C 0.94869 0.8053 0.64856 0.0
C2126 C 0.90424 0.74796 0.60333 0.0
C2127 C 0.9075 0.74804 0.58321 0.0
C2128 C 0.91564 0.75944 0.61581 0.0
C2129 C 0.93072 0.77107 0.60849 0.0
C2130 C 0.93392 0.77099 0.5884 0.0
C2131 C 0.92254 0.75973 0.57602 0.0
H2132 H 0.3133 0.8926 0.60886 0.0
H2133 H 0.29239 0.92522 0.55992 0.0
H2134 H 0.29353 0.91284 0.63051 0.0
H2135 H 0.2728 0.94495 0.58124 0.0
H2136 H 0.25831 0.99131 0.62512 0.0
H2137 H 0.2776 0.9698 0.60531 0.0
H2138 H 0.25865 0.92105 0.63927 0.0
H2139 H 0.23919 0.94293 0.65959 0.0
C2140 C 0.30463 0.90409 0.60271 0.0
C2141 C 0.30462 0.90726 0.58258 0.0
C2142 C 0.29313 0.91557 0.6151 0.0
C2143 C 0.28153 0.93062 0.60769 0.0
C2144 C 0.28166 0.93372 0.58759 0.0
C2145 C 0.29295 0.92228 0.57529 0.0
C2146 C 0.25807 0.97601 0.62844 0.0
C2147 C 0.24702 0.96894 0.64402 0.0
C2148 C 0.26917 0.96359 0.61694 0.0
C2149 C 0.26974 0.9436 0.62056 0.0
C2150 C 0.2587 0.93638 0.63613 0.0
C2151 C 0.24737 0.9489 0.64765 0.0
H2152 H 0.06048 0.26019 0.62651 0.0
H2153 H 0.10939 0.24048 0.65993 0.0
H2154 H 0.08166 0.27999 0.6069 0.0
H2155 H 0.13091 0.26046 0.63982 0.0
H2156 H 0.15924 0.31525 0.60989 0.0
H2157 H 0.13907 0.29547 0.63156 0.0
H2158 H 0.10614 0.27553 0.58241 0.0
H2159 H 0.12581 0.29512 0.5611 0.0
C2160 C 0.07583 0.25993 0.62965 0.0
C2161 C 0.08314 0.24854 0.64486 0.0
C2162 C 0.08804 0.27134 0.61827 0.0
C2163 C 0.10809 0.27188 0.62165 0.0
C2164 C 0.11554 0.26054 0.63687 0.0
C2165 C 0.10322 0.24892 0.64828 0.0
C2166 C 0.14756 0.30678 0.60379 0.0
C2167 C 0.14418 0.30694 0.58369 0.0
C2168 C 0.13612 0.29527 0.61618 0.0
C2169 C 0.12089 0.28386 0.6088 0.0
C2170 C 0.11751 0.28425 0.58875 0.0
C2171 C 0.12893 0.29552 0.57645 0.0
H2172 H 0.72593 0.14576 0.60676 0.0
H2173 H 0.77429 0.14605 0.56731 0.0
H2174 H 0.74493 0.12615 0.62954 0.0
H2175 H 0.79322 0.127 0.59011 0.0
H2176 H 0.82711 0.10691 0.64472 0.0
H2177 H 0.80817 0.12943 0.62469 0.0
H2178 H 0.75898 0.09126 0.6282 0.0
H2179 H 0.77782 0.06873 0.64764 0.0
C2180 C 0.74061 0.1418 0.603 0.0
C2181 C 0.74847 0.14738 0.5851 0.0
C2182 C 0.7515 0.13056 0.61603 0.0
C2183 C 0.77066 0.12507 0.61169 0.0
C2184 C 0.77863 0.13111 0.59403 0.0
C2185 C 0.76765 0.14191 0.58087 0.0
C2186 C 0.81223 0.10341 0.64129 0.0
C2187 C 0.80408 0.08592 0.6477 0.0
C2188 C 0.80139 0.11627 0.62979 0.0
C2189 C 0.782 0.11217 0.62488 0.0
C2190 C 0.77376 0.09498 0.63182 0.0
C2191 C 0.78467 0.08198 0.64287 0.0
H2192 H 0.90755 0.32602 0.4459 0.0
H2193 H 0.90566 0.27707 0.48451 0.0
H2194 H 0.92735 0.30702 0.42319 0.0
H2195 H 0.92488 0.25817 0.4618 0.0
H2196 H 0.94581 0.22465 0.40727 0.0
H2197 H 0.92316 0.24366 0.42714 0.0
H2198 H 0.96195 0.29243 0.4249 0.0
H2199 H 0.9846 0.27353 0.40561 0.0
C2200 C 0.91118 0.31122 0.44947 0.0
C2201 C 0.90511 0.30319 0.46714 0.0
C2202 C 0.92254 0.30033 0.43649 0.0
C2203 C 0.92765 0.28101 0.44064 0.0
C2204 C 0.92109 0.27289 0.45803 0.0
C2205 C 0.91017 0.28384 0.47114 0.0
C2206 C 0.94944 0.23944 0.41097 0.0
C2207 C 0.96714 0.24744 0.40494 0.0
C2208 C 0.93649 0.25033 0.42237 0.0
C2209 C 0.94071 0.26963 0.42756 0.0
C2210 C 0.95813 0.27773 0.42104 0.0
C2211 C 0.97121 0.26677 0.41009 0.0
H2212 H 0.81144 0.94194 0.39056 0.0
H2213 H 0.79624 0.98929 0.42841 0.0
H2214 H 0.79168 0.91998 0.41051 0.0
H2215 H 0.77661 0.96782 0.44774 0.0
H2216 H 0.76146 0.92275 0.49152 0.0
H2217 H 0.78134 0.94185 0.47018 0.0
H2218 H 0.75669 0.91285 0.42069 0.0
H2219 H 0.73661 0.89302 0.44247 0.0
C2220 C 0.80409 0.94764 0.40316 0.0
C2221 C 0.80563 0.96743 0.40787 0.0
C2222 C 0.79257 0.93511 0.41446 0.0
C2223 C 0.78252 0.94205 0.43083 0.0
C2224 C 0.78427 0.96178 0.43547 0.0
C2225 C 0.79558 0.97419 0.42426 0.0
C2226 C 0.76007 0.92031 0.47611 0.0
C2227 C 0.74718 0.90628 0.46884 0.0
C2228 C 0.77155 0.93142 0.46379 0.0
C2229 C 0.77064 0.92909 0.44362 0.0
C2230 C 0.75789 0.91498 0.43615 0.0
C2231 C 0.74621 0.90375 0.44863 0.0
H2232 H 0.14359 0.72676 0.44681 0.0
H2233 H 0.14468 0.77516 0.48631 0.0
H2234 H 0.12354 0.74577 0.4244 0.0
H2235 H 0.12523 0.79412 0.46383 0.0
H2236 H 0.10495 0.82776 0.40878 0.0
H2237 H 0.12739 0.80885 0.42891 0.0
H2238 H 0.08852 0.76014 0.4265 0.0
H2239 H 0.06603 0.77899 0.40699 0.0
C2240 C 0.13972 0.74145 0.45065 0.0
C2241 C 0.14567 0.74932 0.46846 0.0
C2242 C 0.12822 0.75234 0.43784 0.0
C2243 C 0.12284 0.77153 0.44229 0.0
C2244 C 0.12923 0.7795 0.45985 0.0
C2245 C 0.14028 0.76851 0.47281 0.0
C2246 C 0.10124 0.81301 0.41252 0.0
C2247 C 0.08358 0.805 0.40635 0.0
C2248 C 0.11407 0.80218 0.42407 0.0
C2249 C 0.10979 0.78291 0.42926 0.0
C2250 C 0.09238 0.77482 0.42265 0.0
C2251 C 0.07941 0.78574 0.41157 0.0
H2252 H 0.27723 0.14835 0.48602 0.0
H2253 H 0.32628 0.14514 0.44757 0.0
H2254 H 0.25819 0.12887 0.46357 0.0
H2255 H 0.30718 0.12507 0.42518 0.0
H2256 H 0.27331 0.06751 0.40921 0.0
H2257 H 0.29213 0.09038 0.42832 0.0
H2258 H 0.24417 0.13022 0.42813 0.0
H2259 H 0.22526 0.10735 0.40835 0.0
C2260 C 0.28399 0.14349 0.47274 0.0
C2261 C 0.3034 0.14825 0.4687 0.0
C2262 C 0.27297 0.13244 0.45979 0.0
C2263 C 0.2811 0.12543 0.44256 0.0
C2264 C 0.30048 0.13025 0.43837 0.0
C2265 C 0.31143 0.14175 0.45116 0.0
C2266 C 0.2667 0.08117 0.41314 0.0
C2267 C 0.24765 0.08549 0.40731 0.0
C2268 C 0.27762 0.09436 0.42398 0.0
C2269 C 0.26973 0.11217 0.42972 0.0
C2270 C 0.25067 0.1166 0.42393 0.0
C2271 C 0.23984 0.10353 0.4126 0.0
H2272 H 0.60877 0.89244 0.73881 0.0
H2273 H 0.56017 0.92574 0.75957 0.0
H2274 H 0.63061 0.91254 0.75849 0.0
H2275 H 0.5817 0.94538 0.77907 0.0
H2276 H 0.62625 0.99118 0.79345 0.0
H2277 H 0.60622 0.96991 0.77408 0.0
H2278 H 0.63917 0.92065 0.79355 0.0
H2279 H 0.65966 0.94225 0.81311 0.0
C2280 C 0.60274 0.90406 0.74743 0.0
C2281 C 0.58265 0.90745 0.74745 0.0
C2282 C 0.61524 0.91546 0.75887 0.0
C2283 C 0.60797 0.93066 0.7704 0.0
C2284 C 0.58792 0.93402 0.77025 0.0
C2285 C 0.57551 0.92263 0.75904 0.0
C2286 C 0.62929 0.97582 0.79378 0.0
C2287 C 0.64463 0.96852 0.80501 0.0
C2288 C 0.61768 0.96355 0.78263 0.0
C2289 C 0.62097 0.94349 0.7822 0.0
C2290 C 0.6363 0.93604 0.7934 0.0
C2291 C 0.64792 0.9484 0.80478 0.0
H2292 H 0.06757 0.64776 0.77828 0.0
H2293 H 0.10598 0.64561 0.82744 0.0
H2294 H 0.09024 0.62839 0.75947 0.0
H2295 H 0.12863 0.62568 0.80854 0.0
H2296 H 0.14581 0.56824 0.77509 0.0
H2297 H 0.12657 0.59103 0.79388 0.0
H2298 H 0.12511 0.62998 0.74525 0.0
H2299 H 0.14493 0.60718 0.72637 0.0
C2300 C 0.08088 0.64316 0.78512 0.0
C2301 C 0.08485 0.64819 0.80449 0.0
C2302 C 0.09397 0.63217 0.77422 0.0
C2303 C 0.11128 0.6255 0.78243 0.0
C2304 C 0.11539 0.63057 0.80178 0.0
C2305 C 0.10244 0.64201 0.81261 0.0
C2306 C 0.14151 0.5817 0.76834 0.0
C2307 C 0.14687 0.58578 0.7491 0.0
C2308 C 0.13059 0.59485 0.77924 0.0
C2309 C 0.12431 0.61236 0.77114 0.0
C2310 C 0.12971 0.61658 0.75192 0.0
C2311 C 0.14108 0.60356 0.7411 0.0
H2312 H 0.48563 0.14498 0.77456 0.0
H2313 H 0.44671 0.14369 0.72578 0.0
H2314 H 0.46303 0.12549 0.79329 0.0
H2315 H 0.42414 0.1236 0.74458 0.0
H2316 H 0.40694 0.0659 0.77791 0.0
H2317 H 0.42629 0.08855 0.75905 0.0
H2318 H 0.428 0.12768 0.80765 0.0
H2319 H 0.40806 0.10509 0.82656 0.0
C2320 C 0.47223 0.14052 0.76779 0.0
C2321 C 0.46808 0.14586 0.74856 0.0
C2322 C 0.4592 0.12946 0.77864 0.0
C2323 C 0.44175 0.12301 0.7705 0.0
C2324 C 0.43749 0.12833 0.75128 0.0
C2325 C 0.45038 0.13985 0.74051 0.0
C2326 C 0.41132 0.07937 0.78462 0.0
C2327 C 0.406 0.08358 0.80386 0.0
C2328 C 0.4223 0.09243 0.7737 0.0
C2329 C 0.42868 0.10994 0.78179 0.0
C2330 C 0.42333 0.11427 0.801 0.0
C2331 C 0.41189 0.10136 0.81183 0.0
H2332 H 0.94275 0.39421 0.81469 0.0
H2333 H 0.99195 0.42604 0.79312 0.0
H2334 H 0.92129 0.41419 0.7945 0.0
H2335 H 0.9709 0.44536 0.77305 0.0
H2336 H 0.92815 0.49165 0.75695 0.0
H2337 H 0.94744 0.47047 0.77696 0.0
H2338 H 0.9124 0.42176 0.75967 0.0
H2339 H 0.89251 0.44337 0.73956 0.0
C2340 C 0.949 0.40548 0.80581 0.0
C2341 C 0.96914 0.4085 0.80573 0.0
C2342 C 0.93672 0.41679 0.79406 0.0
C2343 C 0.94429 0.4315 0.78212 0.0
C2344 C 0.9644 0.43444 0.78219 0.0
C2345 C 0.97656 0.42321 0.79376 0.0
C2346 C 0.92449 0.47642 0.75721 0.0
C2347 C 0.90872 0.4693 0.74644 0.0
C2348 C 0.93568 0.46419 0.76873 0.0
C2349 C 0.93162 0.4443 0.76998 0.0
C2350 C 0.91588 0.43702 0.7592 0.0
C2351 C 0.90461 0.44937 0.74749 0.0
H2352 H 0.56676 0.14796 0.27788 0.0
H2353 H 0.60464 0.14329 0.32726 0.0
H2354 H 0.589 0.12836 0.25873 0.0
H2355 H 0.62679 0.12307 0.30804 0.0
H2356 H 0.64172 0.06571 0.27285 0.0
H2357 H 0.62294 0.08854 0.29209 0.0
H2358 H 0.62475 0.1296 0.24526 0.0
H2359 H 0.64419 0.10679 0.22598 0.0
C2360 C 0.57986 0.14274 0.28469 0.0
C2361 C 0.58382 0.14714 0.30421 0.0
C2362 C 0.59269 0.13162 0.27361 0.0
C2363 C 0.60969 0.12417 0.2818 0.0
C2364 C 0.61378 0.1286 0.3013 0.0
C2365 C 0.60112 0.14018 0.31231 0.0
C2366 C 0.63823 0.07963 0.2666 0.0
C2367 C 0.64441 0.08433 0.24775 0.0
C2368 C 0.62757 0.09278 0.27775 0.0
C2369 C 0.62238 0.11092 0.27028 0.0
C2370 C 0.62853 0.11572 0.25144 0.0
C2371 C 0.63967 0.10268 0.24039 0.0
H2372 H 0.89272 0.60916 0.31356 0.0
H2373 H 0.92617 0.56034 0.29354 0.0
H2374 H 0.91297 0.63082 0.29388 0.0
H2375 H 0.94595 0.58167 0.27404 0.0
H2376 H 0.99171 0.62605 0.25913 0.0
H2377 H 0.97044 0.60621 0.27864 0.0
H2378 H 0.92124 0.63912 0.25895 0.0
H2379 H 0.94284 0.65941 0.23926 0.0
C2380 C 0.90442 0.60305 0.30512 0.0
C2381 C 0.90779 0.58294 0.3053 0.0
C2382 C 0.9159 0.61544 0.29367 0.0
C2383 C 0.93118 0.60806 0.28232 0.0
C2384 C 0.93454 0.588 0.2827 0.0
C2385 C 0.92306 0.5757 0.29392 0.0
C2386 C 0.97636 0.62912 0.25878 0.0
C2387 C 0.96908 0.64439 0.24744 0.0
C2388 C 0.96409 0.61762 0.27001 0.0
C2389 C 0.94403 0.62094 0.27044 0.0
C2390 C 0.93662 0.63621 0.25913 0.0
C2391 C 0.94898 0.64772 0.24766 0.0
H2392 H 0.44259 0.89288 0.31391 0.0
H2393 H 0.49112 0.92624 0.29315 0.0
H2394 H 0.42078 0.91259 0.29376 0.0
H2395 H 0.46981 0.94518 0.2731 0.0
H2396 H 0.42694 0.99084 0.25722 0.0
H2397 H 0.44605 0.96966 0.27725 0.0
H2398 H 0.41166 0.92083 0.25902 0.0
H2399 H 0.39178 0.94254 0.23891 0.0
C2400 C 0.44862 0.90441 0.30522 0.0
C2401 C 0.46869 0.90798 0.30542 0.0
C2402 C 0.43615 0.91557 0.29349 0.0
C2403 C 0.44345 0.93062 0.2818 0.0
C2404 C 0.46349 0.93402 0.28208 0.0
C2405 C 0.47581 0.923 0.29366 0.0
C2406 C 0.42333 0.9756 0.25727 0.0
C2407 C 0.40775 0.96851 0.24621 0.0
C2408 C 0.43446 0.96335 0.26882 0.0
C2409 C 0.4306 0.94341 0.26977 0.0
C2410 C 0.41501 0.93613 0.25877 0.0
C2411 C 0.40375 0.94853 0.24705 0.0
H2412 H 0.12657 0.49164 0.29308 0.0
H2413 H 0.16003 0.44296 0.31327 0.0
H2414 H 0.10667 0.47015 0.2738 0.0
H2415 H 0.13968 0.42115 0.2938 0.0
H2416 H 0.10961 0.39242 0.23919 0.0
H2417 H 0.13132 0.4128 0.25873 0.0
H2418 H 0.0822 0.44555 0.27898 0.0
H2419 H 0.06081 0.42562 0.25963 0.0
C2420 C 0.12965 0.47629 0.29354 0.0
C2421 C 0.14496 0.46912 0.30489 0.0
C2422 C 0.11813 0.4639 0.28245 0.0
C2423 C 0.12147 0.44385 0.2822 0.0
C2424 C 0.13677 0.43654 0.29352 0.0
C2425 C 0.14831 0.44901 0.30484 0.0
C2426 C 0.10351 0.40409 0.2477 0.0
C2427 C 0.0834 0.40736 0.24768 0.0
C2428 C 0.11593 0.41564 0.25906 0.0
C2429 C 0.10856 0.43089 0.27047 0.0
C2430 C 0.0885 0.43414 0.27027 0.0
C2431 C 0.07617 0.4226 0.25913 0.0
H2432 H 0.73874 0.60989 0.89176 0.0
H2433 H 0.7564 0.56159 0.92713 0.0
H2434 H 0.7583 0.63164 0.91217 0.0
H2435 H 0.77572 0.58293 0.94699 0.0
H2436 H 0.79043 0.62744 0.99224 0.0
H2437 H 0.77066 0.60814 0.97069 0.0
H2438 H 0.79337 0.63914 0.92158 0.0
H2439 H 0.81331 0.65896 0.94346 0.0
C2440 C 0.74661 0.60391 0.90389 0.0
C2441 C 0.74581 0.58392 0.90776 0.0
C2442 C 0.75799 0.61634 0.91547 0.0
C2443 C 0.7686 0.6091 0.93132 0.0
C2444 C 0.76761 0.58916 0.93514 0.0
C2445 C 0.75647 0.57684 0.92361 0.0
C2446 C 0.79138 0.63023 0.97686 0.0
C2447 C 0.80368 0.64479 0.96968 0.0
C2448 C 0.77999 0.61904 0.96443 0.0
C2449 C 0.78039 0.62195 0.94431 0.0
C2450 C 0.79257 0.63658 0.937 0.0
C2451 C 0.80416 0.64781 0.94953 0.0
H2452 H 0.82581 0.40671 0.10704 0.0
H2453 H 0.77679 0.40401 0.06849 0.0
H2454 H 0.80686 0.42692 0.12942 0.0
H2455 H 0.75792 0.42366 0.09091 0.0
H2456 H 0.7248 0.44554 0.14551 0.0
H2457 H 0.7436 0.42261 0.12578 0.0
H2458 H 0.79228 0.46156 0.12696 0.0
H2459 H 0.77355 0.48451 0.14611 0.0
C2460 C 0.81098 0.41021 0.10343 0.0
C2461 C 0.80292 0.40379 0.08588 0.0
C2462 C 0.80013 0.42183 0.11622 0.0
C2463 C 0.78082 0.42687 0.11199 0.0
C2464 C 0.77264 0.41993 0.09473 0.0
C2465 C 0.78357 0.40875 0.08181 0.0
C2466 C 0.73952 0.44916 0.14159 0.0
C2467 C 0.74755 0.46697 0.14731 0.0
C2468 C 0.75029 0.43605 0.13027 0.0
C2469 C 0.76952 0.44021 0.12485 0.0
C2470 C 0.77763 0.45779 0.131 0.0
C2471 C 0.76678 0.47102 0.14188 0.0
H2472 H 0.64677 0.77752 0.06642 0.0
H2473 H 0.64548 0.82628 0.10548 0.0
H2474 H 0.62787 0.75851 0.08929 0.0
H2475 H 0.62602 0.80719 0.12831 0.0
H2476 H 0.5685 0.77389 0.14546 0.0
H2477 H 0.59122 0.79274 0.12629 0.0
H2478 H 0.6301 0.74401 0.12433 0.0
H2479 H 0.60735 0.72506 0.14415 0.0
C2480 C 0.64245 0.78423 0.07991 0.0
C2481 C 0.64757 0.80355 0.084 0.0
C2482 C 0.63174 0.77321 0.09311 0.0
C2483 C 0.62547 0.78126 0.11066 0.0
C2484 C 0.63064 0.80055 0.11489 0.0
C2485 C 0.64178 0.81149 0.10183 0.0
C2486 C 0.58195 0.76715 0.14111 0.0
C2487 C 0.58602 0.74786 0.14629 0.0
C2488 C 0.59505 0.77807 0.13022 0.0
C2489 C 0.61249 0.76994 0.12378 0.0
C2490 C 0.61675 0.75069 0.12906 0.0
C2491 C 0.60377 0.73985 0.14043 0.0
H2492 H 0.27834 0.5684 0.14678 0.0
H2493 H 0.32736 0.60702 0.14535 0.0
H2494 H 0.2595 0.59132 0.12782 0.0
H2495 H 0.30842 0.62995 0.12581 0.0
H2496 H 0.275 0.64765 0.06849 0.0
H2497 H 0.29391 0.62848 0.09117 0.0
H2498 H 0.24504 0.62593 0.12981 0.0
H2499 H 0.22603 0.64568 0.10712 0.0
C2500 C 0.28514 0.58182 0.14243 0.0
C2501 C 0.30449 0.58576 0.14754 0.0
C2502 C 0.27422 0.59505 0.13167 0.0
C2503 C 0.28238 0.6125 0.12531 0.0
C2504 C 0.30169 0.6166 0.13048 0.0
C2505 C 0.31255 0.60349 0.14169 0.0
C2506 C 0.26824 0.64316 0.08188 0.0
C2507 C 0.24888 0.64816 0.08588 0.0
C2508 C 0.2792 0.63227 0.09497 0.0
C2509 C 0.27106 0.62567 0.11234 0.0
C2510 C 0.25175 0.63077 0.11652 0.0
C2511 C 0.24085 0.64211 0.10356 0.0
H2512 H 0.42654 0.25606 0.06327 0.0
H2513 H 0.38922 0.23935 0.11043 0.0
H2514 H 0.44604 0.27517 0.08524 0.0
H2515 H 0.40918 0.25875 0.13279 0.0
H2516 H 0.44141 0.31447 0.15977 0.0
H2517 H 0.41938 0.29475 0.13976 0.0
H2518 H 0.46853 0.26836 0.11185 0.0
H2519 H 0.49016 0.28765 0.13134 0.0
C2520 C 0.42251 0.25633 0.0784 0.0
C2521 C 0.40627 0.24598 0.085 0.0
C2522 C 0.43379 0.26734 0.09107 0.0
C2523 C 0.42927 0.26854 0.11085 0.0
C2524 C 0.41301 0.25826 0.11761 0.0
C2525 C 0.40171 0.24697 0.10485 0.0
C2526 C 0.44746 0.3045 0.1493 0.0
C2527 C 0.46767 0.30292 0.14715 0.0
C2528 C 0.43483 0.29307 0.13796 0.0
C2529 C 0.44215 0.28 0.12407 0.0
C2530 C 0.4623 0.2784 0.12214 0.0
C2531 C 0.47477 0.28958 0.13344 0.0
H2532 H 0.32614 0.44565 0.90746 0.0
H2533 H 0.27702 0.48407 0.90517 0.0
H2534 H 0.30725 0.42307 0.92744 0.0
H2535 H 0.25821 0.46148 0.92457 0.0
H2536 H 0.22503 0.40714 0.9462 0.0
H2537 H 0.24389 0.42676 0.92329 0.0
H2538 H 0.2927 0.42523 0.96207 0.0
H2539 H 0.27393 0.40618 0.98498 0.0
C2540 C 0.31131 0.44919 0.91101 0.0
C2541 C 0.3032 0.46677 0.90479 0.0
C2542 C 0.30048 0.43629 0.92249 0.0
C2543 C 0.28116 0.44044 0.92757 0.0
C2544 C 0.27294 0.45772 0.92081 0.0
C2545 C 0.28384 0.47075 0.90978 0.0
C2546 C 0.23979 0.41095 0.94978 0.0
C2547 C 0.24784 0.40518 0.96754 0.0
C2548 C 0.2506 0.4222 0.93668 0.0
C2549 C 0.26987 0.42751 0.9408 0.0
C2550 C 0.27802 0.42127 0.95831 0.0
C2551 C 0.26713 0.41046 0.97154 0.0
H2552 H 0.64909 0.2758 0.98454 0.0
H2553 H 0.64497 0.22629 0.94667 0.0
H2554 H 0.62918 0.29462 0.96234 0.0
H2555 H 0.62449 0.24517 0.92455 0.0
H2556 H 0.5669 0.27893 0.90894 0.0
H2557 H 0.58997 0.26028 0.92793 0.0
H2558 H 0.62972 0.30832 0.92702 0.0
H2559 H 0.60666 0.32703 0.90742 0.0
C2560 C 0.64397 0.26891 0.97142 0.0
C2561 C 0.64861 0.24944 0.96747 0.0
C2562 C 0.63265 0.2798 0.95862 0.0
C2563 C 0.62523 0.27146 0.94165 0.0
C2564 C 0.62995 0.25202 0.93754 0.0
C2565 C 0.64172 0.24121 0.95017 0.0
C2566 C 0.58057 0.28559 0.91269 0.0
C2567 C 0.58482 0.30461 0.90668 0.0
C2568 C 0.59388 0.27477 0.92347 0.0
C2569 C 0.61174 0.28273 0.92897 0.0
C2570 C 0.61607 0.30176 0.92303 0.0
C2571 C 0.60288 0.31248 0.91179 0.0
H2572 H 0.49116 0.75851 0.92552 0.0
H2573 H 0.4425 0.73802 0.89216 0.0
H2574 H 0.46977 0.77827 0.945 0.0
H2575 H 0.42075 0.75796 0.91213 0.0
H2576 H 0.39216 0.81307 0.94177 0.0
H2577 H 0.41239 0.79316 0.92019 0.0
H2578 H 0.44526 0.77359 0.96946 0.0
H2579 H 0.42556 0.79329 0.99066 0.0
C2580 C 0.47583 0.75807 0.92237 0.0
C2581 C 0.46864 0.74648 0.90722 0.0
C2582 C 0.46349 0.76945 0.93366 0.0
C2583 C 0.44345 0.76977 0.93026 0.0
C2584 C 0.43612 0.75822 0.91509 0.0
C2585 C 0.44856 0.74661 0.90378 0.0
C2586 C 0.40383 0.80464 0.94791 0.0
C2587 C 0.4072 0.80496 0.96801 0.0
C2588 C 0.4153 0.79306 0.93558 0.0
C2589 C 0.43054 0.78174 0.94303 0.0
C2590 C 0.43388 0.78224 0.96308 0.0
C2591 C 0.42244 0.79358 0.97531 0.0
H2592 H 0.1571 0.12406 0.37841 0.0
H2593 H 0.12674 0.09257 0.33391 0.0
H2594 H 0.12812 0.14304 0.38487 0.0
H2595 H 0.09752 0.11104 0.34069 0.0
H2596 H 0.05457 0.16149 0.34307 0.0
H2597 H 0.08278 0.14112 0.33718 0.0
H2598 H 0.09702 0.14362 0.39803 0.0
H2599 H 0.06915 0.16464 0.40355 0.0
C2600 C 0.14411 0.1209 0.37027 0.0
C2601 C 0.14422 0.10662 0.35579 0.0
C2602 C 0.12739 0.13181 0.37397 0.0
C2603 C 0.11023 0.12867 0.36339 0.0
C2604 C 0.11041 0.11424 0.34897 0.0
C2605 C 0.12718 0.10351 0.34514 0.0
C2606 C 0.06358 0.15737 0.3552 0.0
C2607 C 0.05954 0.16443 0.37381 0.0
C2608 C 0.07981 0.14566 0.35187 0.0
C2609 C 0.09241 0.14059 0.3671 0.0
C2610 C 0.088 0.1474 0.38582 0.0
C2611 C 0.07188 0.15928 0.38908 0.0
H2612 H 0.92613 0.15687 0.37296 0.0
H2613 H 0.96415 0.1229 0.33698 0.0
H2614 H 0.90607 0.12822 0.37866 0.0
H2615 H 0.94424 0.09417 0.34292 0.0
H2616 H 0.91207 0.04428 0.37793 0.0
H2617 H 0.93369 0.072 0.37228 0.0
H2618 H 0.88461 0.10684 0.356 0.0
H2619 H 0.8633 0.0791 0.36076 0.0
C2620 C 0.93037 0.14324 0.36651 0.0
C2621 C 0.94681 0.14214 0.35462 0.0
C2622 C 0.9188 0.12686 0.36966 0.0
C2623 C 0.92358 0.10891 0.36126 0.0
C2624 C 0.94025 0.10773 0.3497 0.0
C2625 C 0.95158 0.1242 0.34622 0.0
C2626 C 0.90599 0.05781 0.37294 0.0
C2627 C 0.88593 0.05959 0.37017 0.0
C2628 C 0.91832 0.07368 0.36976 0.0
C2629 C 0.9108 0.09172 0.36401 0.0
C2630 C 0.89081 0.09329 0.36081 0.0
C2631 C 0.8786 0.07739 0.36359 0.0
H2632 H 0.99588 0.88873 0.34214 0.0
H2633 H 0.985 0.89165 0.40339 0.0
H2634 H 0.96772 0.90911 0.33606 0.0
H2635 H 0.95722 0.91272 0.39761 0.0
H2636 H 0.8963 0.93153 0.37985 0.0
H2637 H 0.92539 0.91282 0.38641 0.0
H2638 H 0.95355 0.93961 0.33749 0.0
H2639 H 0.92417 0.95782 0.3307 0.0
C2640 C 0.9877 0.89418 0.35434 0.0
C2641 C 0.99276 0.88882 0.37325 0.0
C2642 C 0.9715 0.90592 0.3509 0.0
C2643 C 0.95994 0.91271 0.36631 0.0
C2644 C 0.9654 0.9076 0.38529 0.0
C2645 C 0.98149 0.8957 0.38867 0.0
C2646 C 0.90879 0.93366 0.37068 0.0
C2647 C 0.90793 0.94641 0.35489 0.0
C2648 C 0.92558 0.92288 0.37443 0.0
C2649 C 0.94209 0.9246 0.36257 0.0
C2650 C 0.94117 0.93751 0.34684 0.0
C2651 C 0.92431 0.9481 0.34298 0.0
H2652 H 0.16415 0.99703 0.34258 0.0
H2653 H 0.16288 0.98593 0.40384 0.0
H2654 H 0.14342 0.969 0.33692 0.0
H2655 H 0.14162 0.95816 0.39845 0.0
H2656 H 0.12218 0.8973 0.38025 0.0
H2657 H 0.14138 0.92619 0.38656 0.0
H2658 H 0.11243 0.95552 0.33964 0.0
H2659 H 0.09361 0.92646 0.33315 0.0
C2660 C 0.15901 0.98883 0.35488 0.0
C2661 C 0.16491 0.9938 0.37367 0.0
C2662 C 0.1471 0.9727 0.35168 0.0
C2663 C 0.14071 0.96111 0.3672 0.0
C2664 C 0.14641 0.96642 0.38605 0.0
C2665 C 0.15843 0.98247 0.38921 0.0
C2666 C 0.11967 0.91 0.37149 0.0
C2667 C 0.10612 0.90957 0.35635 0.0
C2668 C 0.13074 0.92666 0.37509 0.0
C2669 C 0.12855 0.94341 0.36368 0.0
C2670 C 0.11487 0.94293 0.34859 0.0
C2671 C 0.10394 0.92624 0.34491 0.0
H2672 H 0.13491 0.96071 0.67178 0.0
H2673 H 0.1467 0.93001 0.72481 0.0
H2674 H 0.1064 0.94092 0.66659 0.0
H2675 H 0.11743 0.9112 0.72037 0.0
H2676 H 0.0768 0.86525 0.69671 0.0
H2677 H 0.10471 0.88587 0.70231 0.0
H2678 H 0.07433 0.9339 0.67629 0.0
H2679 H 0.04665 0.91263 0.66982 0.0
C2680 C 0.13172 0.9496 0.68223 0.0
C2681 C 0.14375 0.94661 0.69839 0.0
C2682 C 0.11495 0.93846 0.67947 0.0
C2683 C 0.1095 0.92419 0.69294 0.0
C2684 C 0.12125 0.92164 0.70937 0.0
C2685 C 0.13806 0.93261 0.71201 0.0
C2686 C 0.07613 0.88021 0.69213 0.0
C2687 C 0.05969 0.88724 0.68252 0.0
C2688 C 0.09209 0.89217 0.69553 0.0
C2689 C 0.092 0.91169 0.68973 0.0
C2690 C 0.07519 0.9189 0.68066 0.0
C2691 C 0.05921 0.9068 0.67712 0.0
H2692 H 0.1412 0.04816 0.66907 0.0
H2693 H 0.18856 0.07739 0.69708 0.0
H2694 H 0.1202 0.07604 0.67558 0.0
H2695 H 0.16818 0.10549 0.70282 0.0
H2696 H 0.12378 0.14757 0.72534 0.0
H2697 H 0.14257 0.11824 0.72071 0.0
H2698 H 0.11395 0.1084 0.66606 0.0
H2699 H 0.09425 0.137 0.67135 0.0
C2700 C 0.14707 0.06056 0.67664 0.0
C2701 C 0.16655 0.06072 0.68234 0.0
C2702 C 0.13514 0.07665 0.68021 0.0
C2703 C 0.14242 0.09327 0.68963 0.0
C2704 C 0.16184 0.09304 0.69575 0.0
C2705 C 0.17365 0.07696 0.69229 0.0
C2706 C 0.12146 0.13919 0.7123 0.0
C2707 C 0.1078 0.1452 0.69847 0.0
C2708 C 0.1324 0.12235 0.70956 0.0
C2709 C 0.13009 0.11089 0.69285 0.0
C2710 C 0.11619 0.11671 0.67915 0.0
C2711 C 0.10513 0.13352 0.68198 0.0
H2712 H 0.99671 0.16471 0.71136 0.0
H2713 H 0.9874 0.16076 0.6499 0.0
H2714 H 0.96869 0.14397 0.71702 0.0
H2715 H 0.95969 0.13948 0.6553 0.0
H2716 H 0.89829 0.12118 0.67231 0.0
H2717 H 0.92744 0.13994 0.66617 0.0
H2718 H 0.95515 0.11287 0.71517 0.0
H2719 H 0.92577 0.09446 0.72147 0.0
C2720 C 0.98893 0.15894 0.69904 0.0
C2721 C 0.99439 0.16409 0.68019 0.0
C2722 C 0.97281 0.14703 0.70224 0.0
C2723 C 0.96171 0.13994 0.68664 0.0
C2724 C 0.96756 0.14483 0.66774 0.0
C2725 C 0.98359 0.15685 0.66458 0.0
C2726 C 0.9107 0.11896 0.68157 0.0
C2727 C 0.90972 0.10605 0.69722 0.0
C2728 C 0.92751 0.12978 0.67806 0.0
C2729 C 0.94389 0.12798 0.69009 0.0
C2730 C 0.94286 0.11496 0.70571 0.0
C2731 C 0.926 0.10428 0.70929 0.0
H2732 H 0.92793 0.9062 0.72337 0.0
H2733 H 0.96067 0.91811 0.67158 0.0
H2734 H 0.90903 0.9353 0.71812 0.0
H2735 H 0.94087 0.94648 0.66557 0.0
H2736 H 0.91235 1.00636 0.66841 0.0
H2737 H 0.93334 0.97856 0.67519 0.0
H2738 H 0.88438 0.94781 0.69892 0.0
H2739 H 0.86399 0.97582 0.69304 0.0
C2740 C 0.93097 0.91484 0.71067 0.0
C2741 C 0.94557 0.90925 0.69763 0.0
C2742 C 0.91995 0.93154 0.70755 0.0
C2743 C 0.92309 0.94328 0.69122 0.0
C2744 C 0.93795 0.93792 0.67834 0.0
C2745 C 0.9491 0.92125 0.68157 0.0
C2746 C 0.90623 0.99367 0.67523 0.0
C2747 C 0.8865 0.99317 0.67998 0.0
C2748 C 0.91818 0.97764 0.67896 0.0
C2749 C 0.91065 0.96072 0.68755 0.0
C2750 C 0.89091 0.96052 0.69254 0.0
C2751 C 0.87909 0.97654 0.68895 0.0
H2752 H 0.37475 0.15614 0.12316 0.0
H2753 H 0.3339 0.12412 0.08852 0.0
H2754 H 0.38071 0.12726 0.14276 0.0
H2755 H 0.34014 0.09509 0.10794 0.0
H2756 H 0.37625 0.04385 0.13785 0.0
H2757 H 0.37016 0.07158 0.11635 0.0
H2758 H 0.35766 0.10728 0.166 0.0
H2759 H 0.36274 0.07958 0.18723 0.0
C2760 C 0.3673 0.14286 0.11952 0.0
C2761 C 0.35397 0.14238 0.1042 0.0
C2762 C 0.3706 0.12636 0.13083 0.0
C2763 C 0.36091 0.10889 0.12686 0.0
C2764 C 0.34791 0.10828 0.11125 0.0
C2765 C 0.34428 0.12492 0.10022 0.0
C2766 C 0.372 0.05759 0.14409 0.0
C2767 C 0.37043 0.05962 0.16427 0.0
C2768 C 0.36857 0.07344 0.13183 0.0
C2769 C 0.36378 0.09169 0.13954 0.0
C2770 C 0.36173 0.09353 0.15966 0.0
C2771 C 0.36473 0.07766 0.17181 0.0
H2772 H 0.90615 0.33012 0.12538 0.0
H2773 H 0.91775 0.38099 0.09118 0.0
H2774 H 0.93552 0.33602 0.14399 0.0
H2775 H 0.94689 0.38705 0.10996 0.0
H2776 H 0.98539 0.40245 0.16315 0.0
H2777 H 0.95725 0.39674 0.14244 0.0
H2778 H 0.97062 0.33573 0.14122 0.0
H2779 H 0.99853 0.34153 0.16222 0.0
C2780 C 0.91488 0.34264 0.12186 0.0
C2781 C 0.90915 0.35535 0.10706 0.0
C2782 C 0.93183 0.34596 0.13248 0.0
C2783 C 0.94362 0.36207 0.12857 0.0
C2784 C 0.938 0.37471 0.11366 0.0
C2785 C 0.92108 0.37133 0.10297 0.0
C2786 C 0.98244 0.38788 0.15816 0.0
C2787 C 0.99427 0.37248 0.16407 0.0
C2788 C 0.96634 0.38459 0.14628 0.0
C2789 C 0.96155 0.36575 0.14017 0.0
C2790 C 0.9737 0.35039 0.14579 0.0
C2791 C 0.98987 0.35373 0.1576 0.0
H2792 H 0.67084 0.89807 0.12002 0.0
H2793 H 0.7208 0.92524 0.09441 0.0
H2794 H 0.66435 0.9274 0.13849 0.0
H2795 H 0.71431 0.95462 0.1128 0.0
H2796 H 0.70938 0.99558 0.16533 0.0
H2797 H 0.71537 0.96736 0.14486 0.0
H2798 H 0.65384 0.96041 0.13656 0.0
H2799 H 0.64802 0.98853 0.15734 0.0
C2800 C 0.68022 0.9104 0.11797 0.0
C2801 C 0.69617 0.90931 0.1054 0.0
C2802 C 0.67653 0.92729 0.12866 0.0
C2803 C 0.68873 0.94356 0.12717 0.0
C2804 C 0.70469 0.9424 0.11459 0.0
C2805 C 0.70838 0.92552 0.10395 0.0
C2806 C 0.69719 0.98824 0.15876 0.0
C2807 C 0.67825 0.99442 0.16266 0.0
C2808 C 0.70059 0.972 0.14705 0.0
C2809 C 0.6851 0.96145 0.13898 0.0
C2810 C 0.66614 0.96792 0.14268 0.0
C2811 C 0.66278 0.98416 0.15441 0.0
H2812 H 0.05441 0.71109 0.1629 0.0
H2813 H 0.0663 0.64993 0.16164 0.0
H2814 H 0.08225 0.71696 0.14182 0.0
H2815 H 0.09431 0.65568 0.14074 0.0
H2816 H 0.13341 0.67254 0.08933 0.0
H2817 H 0.10434 0.66646 0.10821 0.0
H2818 H 0.11754 0.71559 0.14444 0.0
H2819 H 0.14689 0.72143 0.12585 0.0
C2820 C 0.06278 0.69887 0.15778 0.0
C2821 C 0.05804 0.68002 0.16366 0.0
C2822 C 0.07889 0.70223 0.14592 0.0
C2823 C 0.09065 0.68681 0.1396 0.0
C2824 C 0.08553 0.6679 0.14512 0.0
C2825 C 0.0695 0.66457 0.1571 0.0
C2826 C 0.13052 0.68177 0.1016 0.0
C2827 C 0.14299 0.69718 0.10631 0.0
C2828 C 0.11363 0.67838 0.11235 0.0
C2829 C 0.10853 0.69049 0.12793 0.0
C2830 C 0.12083 0.70607 0.13244 0.0
C2831 C 0.13776 0.70936 0.12179 0.0
H2832 H 0.33122 0.92455 0.95601 0.0
H2833 H 0.38157 0.8972 0.93137 0.0
H2834 H 0.33812 0.95387 0.93778 0.0
H2835 H 0.38835 0.92633 0.9128 0.0
H2836 H 0.40494 0.98674 0.89275 0.0
H2837 H 0.39896 0.95885 0.91368 0.0
H2838 H 0.33741 0.96697 0.90646 0.0
H2839 H 0.3436 0.99512 0.88611 0.0
C2840 C 0.34379 0.92479 0.94668 0.0
C2841 C 0.356 0.90857 0.94544 0.0
C2842 C 0.34772 0.94162 0.93611 0.0
C2843 C 0.36386 0.94267 0.92372 0.0
C2844 C 0.37604 0.92636 0.92246 0.0
C2845 C 0.37217 0.90957 0.93318 0.0
C2846 C 0.39016 0.98264 0.89593 0.0
C2847 C 0.37474 0.99317 0.888 0.0
C2848 C 0.38668 0.96653 0.90776 0.0
C2849 C 0.36766 0.96044 0.91183 0.0
C2850 C 0.35225 0.97128 0.90403 0.0
C2851 C 0.35576 0.98744 0.89232 0.0
H2852 H 0.04494 0.38032 0.91407 0.0
H2853 H 0.0782 0.35949 0.86558 0.0
H2854 H 0.07274 0.37433 0.93554 0.0
H2855 H 0.10604 0.35441 0.88669 0.0
H2856 H 0.15709 0.37258 0.92683 0.0
H2857 H 0.12819 0.37831 0.90713 0.0
H2858 H 0.09437 0.34374 0.94646 0.0
H2859 H 0.12337 0.33769 0.96597 0.0
C2860 C 0.05814 0.37444 0.90803 0.0
C2861 C 0.05952 0.37077 0.88808 0.0
C2862 C 0.07404 0.37107 0.92027 0.0
C2863 C 0.09168 0.36424 0.91271 0.0
C2864 C 0.0928 0.36006 0.89287 0.0
C2865 C 0.07686 0.36301 0.88079 0.0
C2866 C 0.14346 0.36639 0.93138 0.0
C2867 C 0.14249 0.35478 0.94801 0.0
C2868 C 0.12694 0.36956 0.92004 0.0
C2869 C 0.109 0.3615 0.92527 0.0
C2870 C 0.10795 0.35024 0.94214 0.0
C2871 C 0.12456 0.34671 0.95323 0.0
H2872 H 0.65019 0.06686 0.88913 0.0
H2873 H 0.71108 0.05372 0.89011 0.0
H2874 H 0.65584 0.09507 0.9098 0.0
H2875 H 0.71682 0.08168 0.91111 0.0
H2876 H 0.72253 0.1461 0.92718 0.0
H2877 H 0.71666 0.11673 0.90851 0.0
H2878 H 0.66532 0.10561 0.94218 0.0
H2879 H 0.67134 0.13477 0.96102 0.0
C2880 C 0.66474 0.06982 0.89412 0.0
C2881 C 0.68015 0.05796 0.88823 0.0
C2882 C 0.668 0.08597 0.90599 0.0
C2883 C 0.68682 0.09078 0.91212 0.0
C2884 C 0.70218 0.0786 0.90651 0.0
C2885 C 0.69888 0.0624 0.89471 0.0
C2886 C 0.70995 0.13743 0.9306 0.0
C2887 C 0.69715 0.14324 0.94533 0.0
C2888 C 0.70664 0.12048 0.91994 0.0
C2889 C 0.69046 0.10874 0.92374 0.0
C2890 C 0.67772 0.11445 0.93857 0.0
C2891 C 0.68109 0.13139 0.94929 0.0
H2892 H 0.91601 0.66902 0.96021 0.0
H2893 H 0.9051 0.72089 0.92729 0.0
H2894 H 0.94489 0.66289 0.94107 0.0
H2895 H 0.93428 0.71495 0.90842 0.0
H2896 H 0.99764 0.70911 0.8909 0.0
H2897 H 0.96954 0.71465 0.91169 0.0
H2898 H 0.95502 0.65401 0.90799 0.0
H2899 H 0.98333 0.64854 0.8874 0.0
C2900 C 0.9194 0.6789 0.94863 0.0
C2901 C 0.90773 0.69519 0.94501 0.0
C2902 C 0.93619 0.67547 0.93774 0.0
C2903 C 0.94198 0.68839 0.92313 0.0
C2904 C 0.93044 0.70478 0.91967 0.0
C2905 C 0.9136 0.70813 0.93045 0.0
C2906 C 0.98865 0.69692 0.89488 0.0
C2907 C 0.9928 0.67834 0.88775 0.0
C2908 C 0.97239 0.70012 0.90658 0.0
C2909 C 0.95989 0.6848 0.91149 0.0
C2910 C 0.96438 0.66612 0.90469 0.0
C2911 C 0.98057 0.66297 0.89288 0.0
H2912 H 0.16435 0.4043 0.06929 0.0
H2913 H 0.16313 0.34351 0.05559 0.0
H2914 H 0.14336 0.3986 0.09716 0.0
H2915 H 0.14276 0.33749 0.08375 0.0
H2916 H 0.09382 0.33355 0.12706 0.0
H2917 H 0.11232 0.34055 0.09796 0.0
H2918 H 0.14296 0.3857 0.12854 0.0
H2919 H 0.12397 0.37896 0.15744 0.0
C2920 C 0.15942 0.38972 0.07221 0.0
C2921 C 0.16511 0.3744 0.06012 0.0
C2922 C 0.14756 0.38637 0.08832 0.0
C2923 C 0.14127 0.36753 0.09294 0.0
C2924 C 0.14689 0.35225 0.0806 0.0
C2925 C 0.1586 0.35566 0.06441 0.0
C2926 C 0.10446 0.34503 0.12754 0.0
C2927 C 0.10719 0.35585 0.14455 0.0
C2928 C 0.11521 0.349 0.11082 0.0
C2929 C 0.12928 0.36374 0.11068 0.0
C2930 C 0.13202 0.37453 0.1278 0.0
C2931 C 0.1211 0.37067 0.14447 0.0
H2932 H 0.12581 0.67806 0.89522 0.0
H2933 H 0.08875 0.71466 0.92958 0.0
H2934 H 0.14578 0.67158 0.92376 0.0
H2935 H 0.10857 0.70799 0.95819 0.0
H2936 H 0.13982 0.67282 1.00804 0.0
H2937 H 0.11839 0.67871 0.98025 0.0
H2938 H 0.16791 0.69308 0.94521 0.0
H2939 H 0.18906 0.68811 0.97299 0.0
C2940 C 0.12175 0.68448 0.90891 0.0
C2941 C 0.10561 0.69676 0.91015 0.0
C2942 C 0.13327 0.6809 0.92524 0.0
C2943 C 0.12874 0.68924 0.94327 0.0
C2944 C 0.11237 0.70122 0.94457 0.0
C2945 C 0.10109 0.70511 0.92816 0.0
C2946 C 0.14606 0.67737 0.99442 0.0
C2947 C 0.16619 0.67957 0.99264 0.0
C2948 C 0.13382 0.68071 0.97852 0.0
C2949 C 0.14149 0.68606 0.96043 0.0
C2950 C 0.16157 0.68857 0.9588 0.0
C2951 C 0.1737 0.68563 0.97473 0.0
H2952 H 0.36102 0.18846 0.9726 0.0
H2953 H 0.38059 0.13988 1.00639 0.0
H2954 H 0.35641 0.1673 0.94466 0.0
H2955 H 0.37497 0.11838 0.97852 0.0
H2956 H 0.33784 0.08834 0.92788 0.0
H2957 H 0.34414 0.10805 0.95674 0.0
H2958 H 0.38024 0.14596 0.92291 0.0
H2959 H 0.37428 0.12602 0.89414 0.0
C2960 C 0.36442 0.17324 0.97403 0.0
C2961 C 0.37159 0.16592 0.9916 0.0
C2962 C 0.36171 0.16113 0.95803 0.0
C2963 C 0.36554 0.14123 0.95932 0.0
C2964 C 0.37197 0.13369 0.9771 0.0
C2965 C 0.37512 0.14595 0.99304 0.0
C2966 C 0.34725 0.1008 0.92666 0.0
C2967 C 0.35568 0.10555 0.90877 0.0
C2968 C 0.35092 0.112 0.94319 0.0
C2969 C 0.36269 0.12853 0.94209 0.0
C2970 C 0.3711 0.1333 0.92419 0.0
C2971 C 0.3678 0.12183 0.90776 0.0
H2972 H 0.95478 0.33151 0.9247 0.0
H2973 H 0.93264 0.38377 0.89892 0.0
H2974 H 0.93613 0.33796 0.95388 0.0
H2975 H 0.91368 0.39014 0.92793 0.0
H2976 H 0.89302 0.40499 0.98891 0.0
H2977 H 0.914 0.39942 0.96091 0.0
H2978 H 0.90453 0.33786 0.96633 0.0
H2979 H 0.88411 0.34362 0.99456 0.0
C2980 C 0.94592 0.34442 0.92525 0.0
C2981 C 0.94552 0.35726 0.9095 0.0
C2982 C 0.93509 0.34809 0.94201 0.0
C2983 C 0.92326 0.36462 0.94347 0.0
C2984 C 0.92287 0.37748 0.92765 0.0
C2985 C 0.93384 0.37385 0.91093 0.0
C2986 C 0.8957 0.39028 0.98418 0.0
C2987 C 0.88719 0.37473 0.99405 0.0
C2988 C 0.90756 0.38705 0.96801 0.0
C2989 C 0.91109 0.36815 0.96116 0.0
C2990 C 0.90257 0.3526 0.97124 0.0
C2991 C 0.89081 0.35586 0.98746 0.0
H2992 H 0.6486 0.8893 0.98436 0.0
H2993 H 0.70976 0.88798 0.99599 0.0
H2994 H 0.65425 0.91023 0.95643 0.0
H2995 H 0.71569 0.90836 0.96781 0.0
H2996 H 0.71987 0.95766 0.92481 0.0
H2997 H 0.71311 0.93924 0.95403 0.0
H2998 H 0.66642 0.90992 0.92456 0.0
H2999 H 0.673 0.92874 0.89552 0.0
C3000 C 0.66326 0.89369 0.98099 0.0
C3001 C 0.6787 0.88731 0.99251 0.0
C3002 C 0.66656 0.9055 0.96485 0.0
C3003 C 0.68547 0.91107 0.95965 0.0
C3004 C 0.70089 0.90478 0.97142 0.0
C3005 C 0.69754 0.89308 0.98764 0.0
C3006 C 0.70811 0.94732 0.9246 0.0
C3007 C 0.69681 0.94493 0.90786 0.0
C3008 C 0.70427 0.93664 0.94138 0.0
C3009 C 0.68916 0.92298 0.94186 0.0
C3010 C 0.6779 0.92056 0.92502 0.0
C3011 C 0.68165 0.93139 0.90828 0.0
H3012 H 0.95748 0.72057 0.12797 0.0
H3013 H 0.92976 0.67228 0.15599 0.0
H3014 H 0.93922 0.71404 0.09854 0.0
H3015 H 0.91117 0.66588 0.12673 0.0
H3016 H 0.89111 0.64884 0.06653 0.0
H3017 H 0.91202 0.65445 0.09452 0.0
H3018 H 0.90816 0.71608 0.08479 0.0
H3019 H 0.88775 0.71022 0.05655 0.0
C3020 C 0.94745 0.70854 0.12786 0.0
C3021 C 0.94536 0.69678 0.14431 0.0
C3022 C 0.93687 0.70483 0.11096 0.0
C3023 C 0.92363 0.68937 0.11005 0.0
C3024 C 0.9215 0.67765 0.1266 0.0
C3025 C 0.93221 0.68129 0.14347 0.0
C3026 C 0.89508 0.66354 0.07025 0.0
C3027 C 0.88811 0.67906 0.05918 0.0
C3028 C 0.90687 0.66682 0.08643 0.0
C3029 C 0.91184 0.68576 0.09214 0.0
C3030 C 0.90503 0.70127 0.08078 0.0
C3031 C 0.89332 0.69795 0.06453 0.0
H3032 H 0.37893 0.96133 0.13379 0.0
H3033 H 0.32732 0.92861 0.14653 0.0
H3034 H 0.38438 0.94164 0.10523 0.0
H3035 H 0.33196 0.90989 0.1172 0.0
H3036 H 0.35638 0.86472 0.07621 0.0
H3037 H 0.35054 0.88524 0.10415 0.0
H3038 H 0.37474 0.93395 0.07336 0.0
H3039 H 0.38152 0.91279 0.04565 0.0
C3040 C 0.36886 0.9498 0.1308 0.0
C3041 C 0.35304 0.94623 0.14312 0.0
C3042 C 0.37176 0.93871 0.11399 0.0
C3043 C 0.35876 0.92389 0.10878 0.0
C3044 C 0.34263 0.92076 0.12081 0.0
C3045 C 0.33986 0.93169 0.13767 0.0
C3046 C 0.36053 0.8798 0.07545 0.0
C3047 C 0.3697 0.88706 0.05885 0.0
C3048 C 0.35697 0.89171 0.09144 0.0
C3049 C 0.36216 0.91141 0.09125 0.0
C3050 C 0.37083 0.91882 0.07431 0.0
C3051 C 0.37454 0.90678 0.05831 0.0
H3052 H 0.70978 0.16615 0.05686 0.0
H3053 H 0.6483 0.16145 0.06562 0.0
H3054 H 0.71547 0.14561 0.08507 0.0
H3055 H 0.65383 0.14128 0.09417 0.0
H3056 H 0.671 0.09109 0.13442 0.0
H3057 H 0.66504 0.11004 0.10539 0.0
H3058 H 0.71326 0.14703 0.11973 0.0
H3059 H 0.71911 0.12812 0.14888 0.0
C3060 C 0.69748 0.16046 0.0647 0.0
C3061 C 0.67859 0.16518 0.0589 0.0
C3062 C 0.70071 0.1489 0.08104 0.0
C3063 C 0.68513 0.14178 0.09209 0.0
C3064 C 0.66621 0.14626 0.08599 0.0
C3065 C 0.663 0.15785 0.06965 0.0
C3066 C 0.68004 0.10353 0.13174 0.0
C3067 C 0.69525 0.10831 0.14442 0.0
C3068 C 0.67672 0.11436 0.1149 0.0
C3069 C 0.68862 0.13017 0.11009 0.0
C3070 C 0.70391 0.13484 0.12272 0.0
C3071 C 0.7072 0.12404 0.13955 0.0
H3072 H 0.55486 0.66238 0.84131 0.0
H3073 H 0.5673 0.66184 0.90234 0.0
H3074 H 0.58307 0.64203 0.83523 0.0
H3075 H 0.59519 0.6409 0.89656 0.0
H3076 H 0.65597 0.62273 0.87773 0.0
H3077 H 0.6268 0.64136 0.88424 0.0
H3078 H 0.59755 0.61152 0.8377 0.0
H3079 H 0.62696 0.59331 0.83098 0.0
C3080 C 0.56339 0.65745 0.85348 0.0
C3081 C 0.55877 0.66349 0.87231 0.0
C3082 C 0.57962 0.64576 0.85004 0.0
C3083 C 0.59165 0.63973 0.86537 0.0
C3084 C 0.58661 0.64546 0.8843 0.0
C3085 C 0.57048 0.65728 0.88768 0.0
C3086 C 0.64324 0.61993 0.86909 0.0
C3087 C 0.64378 0.6063 0.854 0.0
C3088 C 0.62641 0.63065 0.87281 0.0
C3089 C 0.60957 0.628 0.8616 0.0
C3090 C 0.61019 0.61429 0.84652 0.0
C3091 C 0.62707 0.60372 0.84269 0.0
H3092 H 0.41216 0.54465 0.87936 0.0
H3093 H 0.36274 0.57963 0.86443 0.0
H3094 H 0.43349 0.57252 0.8734 0.0
H3095 H 0.38379 0.60749 0.85946 0.0
H3096 H 0.42609 0.65739 0.87505 0.0
H3097 H 0.40629 0.6287 0.88147 0.0
H3098 H 0.44269 0.59495 0.84365 0.0
H3099 H 0.46231 0.62372 0.83698 0.0
C3100 C 0.40586 0.55826 0.87487 0.0
C3101 C 0.3857 0.56 0.87281 0.0
C3102 C 0.41804 0.57421 0.8715 0.0
C3103 C 0.41028 0.59231 0.86627 0.0
C3104 C 0.39019 0.59389 0.86388 0.0
C3105 C 0.37812 0.57792 0.86683 0.0
C3106 C 0.43001 0.64381 0.86829 0.0
C3107 C 0.44585 0.64282 0.85561 0.0
C3108 C 0.41859 0.6274 0.87185 0.0
C3109 C 0.42295 0.60952 0.8631 0.0
C3110 C 0.43905 0.60845 0.85073 0.0
C3111 C 0.4502 0.62495 0.84684 0.0
H3112 H 0.40467 0.42603 0.83181 0.0
H3113 H 0.41846 0.46268 0.88051 0.0
H3114 H 0.43381 0.40716 0.8378 0.0
H3115 H 0.44731 0.44352 0.88674 0.0
H3116 H 0.48523 0.39014 0.90352 0.0
H3117 H 0.45716 0.41096 0.89768 0.0
H3118 H 0.4691 0.4095 0.83639 0.0
H3119 H 0.49699 0.38851 0.84235 0.0
C3120 C 0.41382 0.43006 0.84387 0.0
C3121 C 0.40874 0.44567 0.85595 0.0
C3122 C 0.43063 0.41924 0.84726 0.0
C3123 C 0.44296 0.42371 0.86282 0.0
C3124 C 0.438 0.43941 0.87484 0.0
C3125 C 0.42123 0.45032 0.87136 0.0
C3126 C 0.48197 0.39455 0.88885 0.0
C3127 C 0.49344 0.38795 0.87343 0.0
C3128 C 0.46591 0.40649 0.88548 0.0
C3129 C 0.46077 0.41192 0.86654 0.0
C3130 C 0.47248 0.40549 0.85114 0.0
C3131 C 0.48861 0.39367 0.85455 0.0
H3132 H 0.62094 0.39764 0.88074 0.0
H3133 H 0.59456 0.4244 0.83097 0.0
H3134 H 0.63915 0.42715 0.88701 0.0
H3135 H 0.61266 0.45399 0.83726 0.0
H3136 H 0.66472 0.49554 0.84182 0.0
H3137 H 0.64445 0.46718 0.83595 0.0
H3138 H 0.6369 0.46008 0.89757 0.0
H3139 H 0.65751 0.4883 0.90326 0.0
C3140 C 0.61868 0.40993 0.87136 0.0
C3141 C 0.60596 0.40867 0.85554 0.0
C3142 C 0.62921 0.42692 0.87492 0.0
C3143 C 0.62739 0.44314 0.86273 0.0
C3144 C 0.61469 0.44181 0.84687 0.0
C3145 C 0.60422 0.42481 0.84329 0.0
C3146 C 0.65839 0.48811 0.85406 0.0
C3147 C 0.66251 0.49422 0.87299 0.0
C3148 C 0.64677 0.4718 0.85073 0.0
C3149 C 0.63899 0.46115 0.86627 0.0
C3150 C 0.64282 0.46764 0.88522 0.0
C3151 C 0.65446 0.48393 0.88852 0.0
H3152 H 0.57954 0.36299 0.18723 0.0
H3153 H 0.54419 0.41235 0.173 0.0
H3154 H 0.60734 0.38412 0.19207 0.0
H3155 H 0.57203 0.43377 0.17881 0.0
H3156 H 0.62327 0.46284 0.21479 0.0
H3157 H 0.59453 0.44319 0.20806 0.0
H3158 H 0.6284 0.40654 0.17058 0.0
H3159 H 0.65706 0.42632 0.17712 0.0
C3160 C 0.57773 0.37837 0.18493 0.0
C3161 C 0.55971 0.38592 0.17925 0.0
C3162 C 0.59368 0.39049 0.18782 0.0
C3163 C 0.59198 0.4106 0.1856 0.0
C3164 C 0.57381 0.41831 0.18058 0.0
C3165 C 0.55787 0.40608 0.1773 0.0
C3166 C 0.62453 0.45066 0.205 0.0
C3167 C 0.64242 0.44623 0.19637 0.0
C3168 C 0.60805 0.43949 0.20106 0.0
C3169 C 0.60916 0.42332 0.18877 0.0
C3170 C 0.62707 0.41889 0.18014 0.0
C3171 C 0.64346 0.4303 0.18376 0.0
H3172 H 0.66253 0.55453 0.20972 0.0
H3173 H 0.66316 0.56777 0.14885 0.0
H3174 H 0.6416 0.58248 0.21569 0.0
H3175 H 0.6423 0.59584 0.15472 0.0
H3176 H 0.58979 0.63392 0.1716 0.0
H3177 H 0.60903 0.60515 0.16526 0.0
H3178 H 0.64466 0.61811 0.21482 0.0
H3179 H 0.62579 0.64729 0.22086 0.0
C3180 C 0.65789 0.56325 0.19758 0.0
C3181 C 0.66425 0.55885 0.17879 0.0
C3182 C 0.64609 0.5794 0.201 0.0
C3183 C 0.64027 0.5915 0.1857 0.0
C3184 C 0.64631 0.58677 0.16683 0.0
C3185 C 0.65828 0.57072 0.16345 0.0
C3186 C 0.60202 0.63109 0.18086 0.0
C3187 C 0.60649 0.64347 0.19644 0.0
C3188 C 0.61297 0.61435 0.17733 0.0
C3189 C 0.62848 0.60928 0.18947 0.0
C3190 C 0.63273 0.62143 0.20524 0.0
C3191 C 0.62192 0.63825 0.20866 0.0
H3192 H 0.47272 0.68866 0.18554 0.0
H3193 H 0.50873 0.63907 0.17383 0.0
H3194 H 0.44497 0.66748 0.19052 0.0
H3195 H 0.48093 0.61766 0.17979 0.0
H3196 H 0.42889 0.58977 0.21572 0.0
H3197 H 0.45768 0.60937 0.20907 0.0
H3198 H 0.42476 0.64392 0.16896 0.0
H3199 H 0.39607 0.62417 0.1754 0.0
C3200 C 0.47468 0.67322 0.18384 0.0
C3201 C 0.49286 0.6656 0.17878 0.0
C3202 C 0.45877 0.66108 0.1868 0.0
C3203 C 0.46067 0.64091 0.18531 0.0
C3204 C 0.479 0.63316 0.18098 0.0
C3205 C 0.49491 0.64539 0.17761 0.0
C3206 C 0.42786 0.60145 0.20535 0.0
C3207 C 0.41024 0.6053 0.19595 0.0
C3208 C 0.44437 0.6126 0.20148 0.0
C3209 C 0.44352 0.62818 0.18848 0.0
C3210 C 0.42588 0.63202 0.17907 0.0
C3211 C 0.40948 0.62062 0.18264 0.0
H3212 H 0.42896 0.40622 0.22387 0.0
H3213 H 0.46022 0.41698 0.17093 0.0
H3214 H 0.40997 0.43521 0.21856 0.0
H3215 H 0.44023 0.44514 0.16484 0.0
H3216 H 0.41168 0.5049 0.1666 0.0
H3217 H 0.43285 0.47728 0.17345 0.0
H3218 H 0.38482 0.44758 0.20026 0.0
H3219 H 0.36432 0.4755 0.19435 0.0
C3220 C 0.43165 0.41455 0.21091 0.0
C3221 C 0.44587 0.40866 0.19758 0.0
C3222 C 0.42056 0.4312 0.20774 0.0
C3223 C 0.4232 0.44257 0.19106 0.0
C3224 C 0.43768 0.4369 0.17789 0.0
C3225 C 0.44894 0.42031 0.18117 0.0
C3226 C 0.40582 0.49248 0.17411 0.0
C3227 C 0.38631 0.49225 0.17973 0.0
C3228 C 0.41786 0.47653 0.17789 0.0
C3229 C 0.41065 0.45995 0.18736 0.0
C3230 C 0.39114 0.46003 0.1932 0.0
C3231 C 0.37924 0.47599 0.1896 0.0
H3232 H 0.83094 0.6483 0.62646 0.0
H3233 H 0.88037 0.63534 0.59064 0.0
H3234 H 0.83665 0.61883 0.64493 0.0
H3235 H 0.88622 0.60603 0.60919 0.0
H3236 H 0.90229 0.5667 0.66127 0.0
H3237 H 0.89669 0.59506 0.64089 0.0
H3238 H 0.83525 0.58396 0.64263 0.0
H3239 H 0.84098 0.55589 0.66339 0.0
C3240 C 0.8431 0.63923 0.62256 0.0
C3241 C 0.85547 0.6446 0.60733 0.0
C3242 C 0.84632 0.62223 0.63309 0.0
C3243 C 0.86195 0.60997 0.62865 0.0
C3244 C 0.87425 0.61526 0.61331 0.0
C3245 C 0.871 0.63226 0.60274 0.0
C3246 C 0.88763 0.5702 0.657 0.0
C3247 C 0.8721 0.55895 0.66367 0.0
C3248 C 0.88439 0.58643 0.6453 0.0
C3249 C 0.86549 0.59193 0.6401 0.0
C3250 C 0.84998 0.58035 0.64649 0.0
C3251 C 0.85325 0.56408 0.65815 0.0
H3252 H 0.41714 0.88075 0.59016 0.0
H3253 H 0.40476 0.83134 0.62618 0.0
H3254 H 0.44642 0.88699 0.60867 0.0
H3255 H 0.43426 0.83741 0.64453 0.0
H3256 H 0.49736 0.84235 0.66238 0.0
H3257 H 0.46932 0.83636 0.64161 0.0
H3258 H 0.45712 0.89763 0.64075 0.0
H3259 H 0.4854 0.9035 0.66123 0.0
C3260 C 0.42033 0.87146 0.60229 0.0
C3261 C 0.40815 0.85584 0.60697 0.0
C3262 C 0.43732 0.87494 0.61283 0.0
C3263 C 0.44277 0.86275 0.62817 0.0
C3264 C 0.43071 0.847 0.63268 0.0
C3265 C 0.41369 0.84358 0.62221 0.0
C3266 C 0.48892 0.85454 0.65736 0.0
C3267 C 0.49367 0.87341 0.66321 0.0
C3268 C 0.47268 0.85112 0.64569 0.0
C3269 C 0.46081 0.8665 0.63957 0.0
C3270 C 0.46598 0.88544 0.64499 0.0
C3271 C 0.48216 0.88883 0.65674 0.0
H3272 H 0.17215 0.50792 0.64063 0.0
H3273 H 0.19031 0.47359 0.68939 0.0
H3274 H 0.17798 0.48014 0.61907 0.0
H3275 H 0.19518 0.44578 0.66814 0.0
H3276 H 0.17821 0.39547 0.62657 0.0
H3277 H 0.17218 0.42415 0.64659 0.0
H3278 H 0.20813 0.45823 0.60876 0.0
H3279 H 0.21446 0.42947 0.58893 0.0
C3280 C 0.17734 0.49447 0.64673 0.0
C3281 C 0.18032 0.49284 0.66678 0.0
C3282 C 0.18063 0.47858 0.63443 0.0
C3283 C 0.18672 0.46067 0.64197 0.0
C3284 C 0.1901 0.45923 0.66194 0.0
C3285 C 0.18723 0.47517 0.67411 0.0
C3286 C 0.18465 0.40912 0.6224 0.0
C3287 C 0.19671 0.41023 0.6061 0.0
C3288 C 0.18131 0.42551 0.63394 0.0
C3289 C 0.18966 0.44347 0.62922 0.0
C3290 C 0.20139 0.44466 0.61268 0.0
C3291 C 0.20508 0.42817 0.6014 0.0
H3292 H 0.62625 0.21923 0.59393 0.0
H3293 H 0.65586 0.17272 0.62304 0.0
H3294 H 0.59713 0.21246 0.61253 0.0
H3295 H 0.6269 0.16611 0.64198 0.0
H3296 H 0.56726 0.1481 0.6629 0.0
H3297 H 0.59506 0.15376 0.64178 0.0
H3298 H 0.58346 0.21518 0.64352 0.0
H3299 H 0.55542 0.20925 0.66411 0.0
C3300 C 0.62656 0.20753 0.60434 0.0
C3301 C 0.64336 0.19634 0.60673 0.0
C3302 C 0.60983 0.20369 0.61512 0.0
C3303 C 0.60946 0.18867 0.62886 0.0
C3304 C 0.62635 0.17751 0.63128 0.0
C3305 C 0.64305 0.18128 0.62036 0.0
C3306 C 0.57055 0.16275 0.65845 0.0
C3307 C 0.55902 0.17819 0.66487 0.0
C3308 C 0.58662 0.16607 0.64652 0.0
C3309 C 0.59172 0.18498 0.64087 0.0
C3310 C 0.57992 0.20039 0.64718 0.0
C3311 C 0.56378 0.19703 0.659 0.0
H3312 H 0.90318 0.48643 0.39152 0.0
H3313 H 0.8418 0.49655 0.38923 0.0
H3314 H 0.89796 0.45876 0.41286 0.0
H3315 H 0.83629 0.46854 0.40998 0.0
H3316 H 0.83218 0.4255 0.45919 0.0
H3317 H 0.83854 0.45485 0.44081 0.0
H3318 H 0.88684 0.42667 0.41287 0.0
H3319 H 0.88068 0.39756 0.43168 0.0
C3320 C 0.88856 0.48279 0.3958 0.0
C3321 C 0.87293 0.4938 0.38899 0.0
C3322 C 0.8855 0.46678 0.40785 0.0
C3323 C 0.86665 0.46116 0.41322 0.0
C3324 C 0.85104 0.47247 0.40655 0.0
C3325 C 0.85415 0.48859 0.39464 0.0
C3326 C 0.84423 0.42562 0.44919 0.0
C3327 C 0.85609 0.40922 0.44717 0.0
C3328 C 0.84783 0.44247 0.43851 0.0
C3329 C 0.86325 0.44336 0.42523 0.0
C3330 C 0.8751 0.42686 0.42322 0.0
C3331 C 0.87159 0.41006 0.43406 0.0
H3332 H 0.62405 0.83471 0.46301 0.0
H3333 H 0.65594 0.87655 0.42958 0.0
H3334 H 0.59514 0.84106 0.44345 0.0
H3335 H 0.62717 0.88268 0.40987 0.0
H3336 H 0.58018 0.86495 0.36446 0.0
H3337 H 0.60777 0.86038 0.38587 0.0
H3338 H 0.57119 0.87043 0.43536 0.0
H3339 H 0.54351 0.87609 0.41369 0.0
C3340 C 0.62484 0.84535 0.45156 0.0
C3341 C 0.64224 0.85526 0.44796 0.0
C3342 C 0.60827 0.84905 0.44044 0.0
C3343 C 0.60885 0.86238 0.42513 0.0
C3344 C 0.62626 0.87231 0.42156 0.0
C3345 C 0.64271 0.86892 0.43295 0.0
C3346 C 0.57801 0.86661 0.37987 0.0
C3347 C 0.55967 0.87136 0.38731 0.0
C3348 C 0.59385 0.86387 0.39215 0.0
C3349 C 0.59174 0.86527 0.41229 0.0
C3350 C 0.57327 0.86931 0.41988 0.0
C3351 C 0.55743 0.87248 0.4075 0.0
H3352 H 0.16976 0.63573 0.46054 0.0
H3353 H 0.22111 0.64725 0.42702 0.0
H3354 H 0.16395 0.60656 0.44166 0.0
H3355 H 0.21546 0.61786 0.40831 0.0
H3356 H 0.21029 0.55474 0.39015 0.0
H3357 H 0.21575 0.58277 0.41114 0.0
H3358 H 0.15476 0.59605 0.4091 0.0
H3359 H 0.1494 0.56779 0.38842 0.0
C3360 C 0.17958 0.63239 0.44887 0.0
C3361 C 0.19562 0.6443 0.445 0.0
C3362 C 0.17634 0.61545 0.43813 0.0
C3363 C 0.1892 0.60979 0.42339 0.0
C3364 C 0.20536 0.62158 0.41968 0.0
C3365 C 0.20853 0.63854 0.43035 0.0
C3366 C 0.19802 0.56342 0.39459 0.0
C3367 C 0.17938 0.55895 0.38789 0.0
C3368 C 0.20116 0.57965 0.40639 0.0
C3369 C 0.18572 0.59181 0.41178 0.0
C3370 C 0.16698 0.58696 0.40545 0.0
C3371 C 0.16388 0.57079 0.39358 0.0
H3372 H 0.49717 0.21018 0.39014 0.0
H3373 H 0.48417 0.14926 0.38925 0.0
H3374 H 0.46914 0.21602 0.41078 0.0
H3375 H 0.45641 0.15479 0.41045 0.0
H3376 H 0.39597 0.17405 0.42991 0.0
H3377 H 0.42486 0.1675 0.41082 0.0
H3378 H 0.45517 0.21283 0.44144 0.0
H3379 H 0.42609 0.2196 0.46011 0.0
C3380 C 0.48855 0.19796 0.3948 0.0
C3381 C 0.493 0.17923 0.38832 0.0
C3382 C 0.47242 0.20127 0.40666 0.0
C3383 C 0.4603 0.1859 0.41242 0.0
C3384 C 0.46508 0.16708 0.40615 0.0
C3385 C 0.48114 0.16383 0.39417 0.0
C3386 C 0.40888 0.1824 0.43278 0.0
C3387 C 0.40872 0.1972 0.44675 0.0
C3388 C 0.42554 0.17866 0.42178 0.0
C3389 C 0.44258 0.18956 0.42449 0.0
C3390 C 0.44236 0.20429 0.4386 0.0
C3391 C 0.42566 0.20813 0.44943 0.0
H3392 H 0.58853 0.8369 0.6251 0.0
H3393 H 0.62595 0.87392 0.65863 0.0
H3394 H 0.60788 0.84348 0.59612 0.0
H3395 H 0.64552 0.88019 0.62974 0.0
H3396 H 0.68794 0.86213 0.57987 0.0
H3397 H 0.66708 0.85706 0.60788 0.0
H3398 H 0.61752 0.87419 0.57418 0.0
H3399 H 0.63869 0.88026 0.5462 0.0
C3400 C 0.60086 0.84649 0.62625 0.0
C3401 C 0.60565 0.855 0.64413 0.0
C3402 C 0.61186 0.85033 0.60964 0.0
C3403 C 0.6282 0.86236 0.61064 0.0
C3404 C 0.63301 0.87084 0.62853 0.0
C3405 C 0.62174 0.86736 0.64504 0.0
C3406 C 0.67264 0.86512 0.57847 0.0
C3407 C 0.66504 0.87202 0.56091 0.0
C3408 C 0.66069 0.86214 0.59452 0.0
C3409 C 0.6407 0.86544 0.59332 0.0
C3410 C 0.6329 0.87158 0.57555 0.0
C3411 C 0.64498 0.87499 0.55954 0.0
H3412 H 0.6631 0.14847 0.4853 0.0
H3413 H 0.66312 0.20954 0.49769 0.0
H3414 H 0.64194 0.15396 0.4575 0.0
H3415 H 0.6425 0.21532 0.46964 0.0
H3416 H 0.59301 0.21894 0.42679 0.0
H3417 H 0.61168 0.21224 0.45588 0.0
H3418 H 0.64178 0.16644 0.42579 0.0
H3419 H 0.62273 0.17294 0.39687 0.0
C3420 C 0.65838 0.16307 0.48213 0.0
C3421 C 0.66446 0.17853 0.49383 0.0
C3422 C 0.64643 0.16629 0.46606 0.0
C3423 C 0.64042 0.18513 0.46111 0.0
C3424 C 0.64642 0.20056 0.47306 0.0
C3425 C 0.65826 0.19729 0.48921 0.0
C3426 C 0.60358 0.20738 0.42641 0.0
C3427 C 0.60613 0.19631 0.40952 0.0
C3428 C 0.6144 0.20358 0.44312 0.0
C3429 C 0.62836 0.18875 0.44339 0.0
C3430 C 0.63093 0.1777 0.42641 0.0
C3431 C 0.61995 0.18141 0.40974 0.0
H3432 H 0.90233 0.66122 0.48656 0.0
H3433 H 0.84088 0.66484 0.49589 0.0
H3434 H 0.89698 0.64016 0.45861 0.0
H3435 H 0.83528 0.64426 0.46769 0.0
H3436 H 0.83119 0.59456 0.42479 0.0
H3437 H 0.83743 0.61303 0.45417 0.0
H3438 H 0.8859 0.64083 0.42626 0.0
H3439 H 0.87978 0.62206 0.39704 0.0
C3440 C 0.88767 0.65728 0.48271 0.0
C3441 C 0.87205 0.66436 0.49359 0.0
C3442 C 0.88454 0.64539 0.46654 0.0
C3443 C 0.86566 0.64043 0.46067 0.0
C3444 C 0.85005 0.64738 0.47184 0.0
C3445 C 0.85321 0.65918 0.48807 0.0
C3446 C 0.84323 0.60458 0.42495 0.0
C3447 C 0.85516 0.60654 0.40858 0.0
C3448 C 0.84678 0.61529 0.44182 0.0
C3449 C 0.86223 0.62852 0.44279 0.0
C3450 C 0.87412 0.63052 0.42634 0.0
C3451 C 0.87064 0.61969 0.4095 0.0
H3452 H 0.38703 0.84054 0.49499 0.0
H3453 H 0.39363 0.90202 0.48769 0.0
H3454 H 0.4076 0.83482 0.46683 0.0
H3455 H 0.4148 0.89654 0.45989 0.0
H3456 H 0.43284 0.88074 0.39806 0.0
H3457 H 0.41426 0.88684 0.42735 0.0
H3458 H 0.43864 0.83553 0.45334 0.0
H3459 H 0.45682 0.82928 0.4238 0.0
C3460 C 0.39335 0.85282 0.48762 0.0
C3461 C 0.389 0.87171 0.49368 0.0
C3462 C 0.40517 0.84959 0.47143 0.0
C3463 C 0.41299 0.8652 0.46087 0.0
C3464 C 0.40888 0.88412 0.46732 0.0
C3465 C 0.39694 0.88731 0.48341 0.0
C3466 C 0.43452 0.87095 0.41013 0.0
C3467 C 0.44659 0.85466 0.40862 0.0
C3468 C 0.42379 0.87443 0.42703 0.0
C3469 C 0.42487 0.86175 0.44296 0.0
C3470 C 0.43709 0.84552 0.4414 0.0
C3471 C 0.44765 0.84196 0.42445 0.0
H3472 H 0.20986 0.3918 0.4979 0.0
H3473 H 0.1493 0.38928 0.48362 0.0
H3474 H 0.21577 0.41216 0.46969 0.0
H3475 H 0.15485 0.41025 0.45576 0.0
H3476 H 0.17441 0.4291 0.39545 0.0
H3477 H 0.16791 0.41038 0.42456 0.0
H3478 H 0.21237 0.44226 0.45486 0.0
H3479 H 0.21915 0.46048 0.42552 0.0
C3480 C 0.19772 0.39607 0.48897 0.0
C3481 C 0.17909 0.38917 0.49307 0.0
C3482 C 0.20106 0.40776 0.47274 0.0
C3483 C 0.18582 0.41295 0.4602 0.0
C3484 C 0.16707 0.40635 0.46472 0.0
C3485 C 0.1638 0.39452 0.48084 0.0
C3486 C 0.18259 0.43229 0.4084 0.0
C3487 C 0.19715 0.44647 0.40817 0.0
C3488 C 0.17887 0.42153 0.4252 0.0
C3489 C 0.18953 0.42473 0.44231 0.0
C3490 C 0.20402 0.43904 0.44202 0.0
C3491 C 0.20787 0.44962 0.42517 0.0
H3492 H 0.38892 0.14934 0.56799 0.0
H3493 H 0.38937 0.21043 0.55593 0.0
H3494 H 0.41011 0.1546 0.59582 0.0
H3495 H 0.41001 0.216 0.58404 0.0
H3496 H 0.45937 0.21914 0.62717 0.0
H3497 H 0.4407 0.21275 0.59798 0.0
H3498 H 0.41031 0.1669 0.62757 0.0
H3499 H 0.42938 0.17308 0.65656 0.0
C3500 C 0.39375 0.16389 0.57124 0.0
C3501 C 0.38778 0.17943 0.55963 0.0
C3502 C 0.40572 0.16699 0.58734 0.0
C3503 C 0.41185 0.18577 0.59241 0.0
C3504 C 0.40598 0.20128 0.58053 0.0
C3505 C 0.39414 0.19813 0.56435 0.0
C3506 C 0.44874 0.20764 0.62741 0.0
C3507 C 0.44612 0.19644 0.64417 0.0
C3508 C 0.43791 0.20401 0.61065 0.0
C3509 C 0.42388 0.18925 0.6102 0.0
C3510 C 0.42123 0.1781 0.62707 0.0
C3511 C 0.43221 0.18163 0.64379 0.0
H3512 H 0.82801 0.42868 0.64643 0.0
H3513 H 0.88189 0.45842 0.63613 0.0
H3514 H 0.83301 0.40957 0.61735 0.0
H3515 H 0.88759 0.4384 0.60785 0.0
H3516 H 0.88526 0.41053 0.5478 0.0
H3517 H 0.87863 0.43168 0.57554 0.0
H3518 H 0.85093 0.38395 0.60485 0.0
H3519 H 0.85673 0.36343 0.57684 0.0
C3520 C 0.8411 0.43099 0.63817 0.0
C3521 C 0.85479 0.44481 0.6442 0.0
C3522 C 0.84407 0.41985 0.62148 0.0
C3523 C 0.86087 0.42211 0.61019 0.0
C3524 C 0.87443 0.43617 0.61602 0.0
C3525 C 0.87136 0.44744 0.63267 0.0
C3526 C 0.87759 0.40473 0.56015 0.0
C3527 C 0.87174 0.38529 0.56027 0.0
C3528 C 0.87394 0.41676 0.57617 0.0
C3529 C 0.86432 0.40961 0.59269 0.0
C3530 C 0.85815 0.39019 0.59246 0.0
C3531 C 0.86166 0.37829 0.57645 0.0
H3532 H 0.17122 0.59036 0.63412 0.0
H3533 H 0.21997 0.62692 0.64778 0.0
H3534 H 0.16503 0.60939 0.60518 0.0
H3535 H 0.214 0.64568 0.61859 0.0
H3536 H 0.20962 0.66422 0.55548 0.0
H3537 H 0.21549 0.64328 0.58339 0.0
H3538 H 0.15417 0.64179 0.59503 0.0
H3539 H 0.14842 0.66253 0.56691 0.0
C3540 C 0.18039 0.60267 0.6313 0.0
C3541 C 0.19582 0.60732 0.64377 0.0
C3542 C 0.17694 0.61351 0.61449 0.0
C3543 C 0.18898 0.62914 0.60947 0.0
C3544 C 0.20453 0.63363 0.6218 0.0
C3545 C 0.2079 0.62289 0.63865 0.0
C3546 C 0.1974 0.65905 0.56378 0.0
C3547 C 0.17854 0.66472 0.55884 0.0
C3548 C 0.20075 0.64726 0.57994 0.0
C3549 C 0.18531 0.64084 0.59159 0.0
C3550 C 0.1664 0.64624 0.58633 0.0
C3551 C 0.16308 0.65813 0.57024 0.0
H3552 H 0.04744 0.25615 0.3299 0.0
H3553 H 0.9893 0.24582 0.30966 0.0
H3554 H 0.05333 0.27754 0.30269 0.0
H3555 H 0.99525 0.26746 0.28215 0.0
H3556 H 1.00589 0.33063 0.25915 0.0
H3557 H 0.99987 0.3031 0.28009 0.0
H3558 H 0.05663 0.28066 0.26702 0.0
H3559 H 0.06274 0.30848 0.24585 0.0
C3560 C 0.03596 0.25825 0.31946 0.0
C3561 C 0.0178 0.24941 0.3221 0.0
C3562 C 0.03942 0.27042 0.30372 0.0
C3563 C 0.02477 0.27432 0.29024 0.0
C3564 C 1.00682 0.26486 0.29238 0.0
C3565 C 1.00342 0.2524 0.30806 0.0
C3566 C 0.01708 0.31975 0.26053 0.0
C3567 C 0.03492 0.32192 0.25096 0.0
C3568 C 0.01351 0.30382 0.27243 0.0
C3569 C 0.02775 0.28965 0.27531 0.0
C3570 C 0.04538 0.2914 0.26521 0.0
C3571 C 0.04888 0.30729 0.25303 0.0
H3572 H 0.7087 0.01635 0.2725 0.0
H3573 H 0.74681 0.05051 0.23663 0.0
H3574 H 0.73491 1.01037 0.29489 0.0
H3575 H 0.77349 0.04409 0.25947 0.0
H3576 H 0.81476 1.00267 0.30311 0.0
H3577 H 0.79208 1.00922 0.27633 0.0
H3578 H 0.75378 0.03825 0.31605 0.0
H3579 H 0.77603 0.0321 0.34241 0.0
C3580 C 0.72272 0.02249 0.2692 0.0
C3581 C 0.72549 0.03408 0.25268 0.0
C3582 C 0.73778 0.01898 0.28212 0.0
C3583 C 0.75622 0.02672 0.27892 0.0
C3584 C 0.7594 0.03783 0.26218 0.0
C3585 C 0.74411 0.04161 0.24921 0.0
C3586 C 0.80155 0.01054 0.30606 0.0
C3587 C 0.79725 0.01673 0.32501 0.0
C3588 C 0.78869 0.01442 0.29072 0.0
C3589 C 0.77122 0.02429 0.29416 0.0
C3590 C 0.76713 0.03064 0.31298 0.0
C3591 C 0.77996 0.02704 0.32811 0.0
H3592 H 0.98961 0.74333 0.24614 0.0
H3593 H 0.04631 0.721 0.25969 0.0
H3594 H 0.99564 0.77107 0.26753 0.0
H3595 H 0.05226 0.74846 0.28084 0.0
H3596 H 0.06283 0.80602 0.31033 0.0
H3597 H 0.05699 0.78409 0.28295 0.0
H3598 H 0.99878 0.77435 0.3032 0.0
H3599 H 1.00455 0.79603 0.33029 0.0
C3600 C 1.00342 0.74445 0.25344 0.0
C3601 C 0.01736 0.7298 0.25134 0.0
C3602 C 1.00687 0.7603 0.26574 0.0
C3603 C 0.02445 0.762 0.27596 0.0
C3604 C 0.03866 0.74778 0.2731 0.0
C3605 C 0.03514 0.73189 0.26107 0.0
C3606 C 0.04871 0.79944 0.30871 0.0
C3607 C 0.03425 0.80264 0.32263 0.0
C3608 C 0.04538 0.7868 0.29309 0.0
C3609 C 0.02741 0.77738 0.2909 0.0
C3610 C 0.0127 0.78145 0.30428 0.0
C3611 C 0.0161 0.79379 0.31995 0.0
H3612 H 0.34171 0.03914 0.27059 0.0
H3613 H 0.3044 1.00087 0.23806 0.0
H3614 H 0.31564 0.04576 0.29301 0.0
H3615 H 0.27791 1.00789 0.26091 0.0
H3616 H 0.23536 0.04866 0.30359 0.0
H3617 H 0.25782 0.04262 0.27644 0.0
H3618 H 0.29908 0.01809 0.31616 0.0
H3619 H 0.27711 0.02374 0.34284 0.0
C3620 C 0.3279 0.03223 0.26803 0.0
C3621 C 0.32533 0.01924 0.2525 0.0
C3622 C 0.31291 0.03613 0.28093 0.0
C3623 C 0.29478 0.02738 0.27869 0.0
C3624 C 0.29176 0.01495 0.26284 0.0
C3625 C 0.30695 0.01084 0.24988 0.0
C3626 C 0.24921 0.04194 0.30645 0.0
C3627 C 0.25438 0.03674 0.32545 0.0
C3628 C 0.26195 0.03835 0.29092 0.0
C3629 C 0.28014 0.02985 0.29425 0.0
C3630 C 0.28516 0.02464 0.31317 0.0
C3631 C 0.27249 0.02792 0.32848 0.0
H3632 H 0.99042 0.80808 0.74423 0.0
H3633 H 0.04631 0.79305 0.7208 0.0
H3634 H 0.99662 0.78696 0.77205 0.0
H3635 H 0.05242 0.77215 0.74835 0.0
H3636 H 0.06361 0.74308 0.80587 0.0
H3637 H 0.05785 0.77045 0.78397 0.0
H3638 H 0.99907 0.75123 0.7755 0.0
H3639 H 1.00478 0.72415 0.79713 0.0
C3640 C 1.00409 0.80051 0.74512 0.0
C3641 C 0.01774 0.80212 0.73014 0.0
C3642 C 1.00764 0.78836 0.76102 0.0
C3643 C 0.02503 0.77781 0.76244 0.0
C3644 C 0.03898 0.78017 0.74788 0.0
C3645 C 0.03536 0.79205 0.73194 0.0
C3646 C 0.04938 0.74496 0.79961 0.0
C3647 C 0.03473 0.73133 0.8031 0.0
C3648 C 0.04609 0.76055 0.78698 0.0
C3649 C 0.02799 0.763 0.77789 0.0
C3650 C 0.0131 0.74995 0.78232 0.0
C3651 C 0.01646 0.7343 0.79464 0.0
H3652 H 0.31062 0.06212 0.80578 0.0
H3653 H 0.3309 1.00403 0.79499 0.0
H3654 H 0.28339 0.05647 0.78369 0.0
H3655 H 0.30388 0.99843 0.77317 0.0
H3656 H 0.24635 0.98977 0.74253 0.0
H3657 H 0.26788 0.99548 0.7702 0.0
H3658 H 0.28183 0.052 0.74774 0.0
H3659 H 0.26058 0.04634 0.7203 0.0
C3660 C 0.30909 0.04807 0.79899 0.0
C3661 C 0.32305 0.03361 0.80202 0.0
C3662 C 0.29357 0.04485 0.78627 0.0
C3663 C 0.29149 0.027 0.77659 0.0
C3664 C 0.3049 0.01227 0.78047 0.0
C3665 C 0.32051 0.01556 0.7929 0.0
C3666 C 0.25383 1.00349 0.74366 0.0
C3667 C 0.25188 0.01749 0.72907 0.0
C3668 C 0.2662 1.00675 0.75946 0.0
C3669 C 0.2766 0.02421 0.76118 0.0
C3670 C 0.27392 0.03849 0.74702 0.0
C3671 C 0.26184 0.03514 0.73116 0.0
H3672 H 1.00544 0.25964 0.72124 0.0
H3673 H 0.06283 0.24779 0.74273 0.0
H3674 H 0.99952 0.28117 0.74843 0.0
H3675 H 0.05686 0.26959 0.77017 0.0
H3676 H 0.04681 0.33252 0.79442 0.0
H3677 H 0.05278 0.30547 0.7727 0.0
H3678 H 0.99558 0.28341 0.78432 0.0
H3679 H 0.98955 0.31069 0.8063 0.0
C3680 C 0.01677 0.26147 0.7319 0.0
C3681 C 0.03471 0.2521 0.72966 0.0
C3682 C 0.01328 0.27372 0.74762 0.0
C3683 C 0.0277 0.27718 0.76149 0.0
C3684 C 0.04547 0.26733 0.75965 0.0
C3685 C 0.04888 0.25479 0.744 0.0
C3686 C 0.03552 0.32181 0.79255 0.0
C3687 C 0.01759 0.32392 0.80199 0.0
C3688 C 0.03904 0.30618 0.7802 0.0
C3689 C 0.02467 0.29227 0.7767 0.0
C3690 C 1.00693 0.29397 0.78661 0.0
C3691 C 1.00348 0.30953 0.79925 0.0
H3692 H 0.79512 1.00482 0.72089 0.0
H3693 H 0.80672 0.06212 0.74293 0.0
H3694 H 0.77362 0.9986 0.748 0.0
H3695 H 0.785 0.05583 0.77028 0.0
H3696 H 0.72187 0.04595 0.79346 0.0
H3697 H 0.74924 0.05188 0.77227 0.0
H3698 H 0.77074 0.99443 0.78378 0.0
H3699 H 0.74308 0.98844 0.80525 0.0
C3700 C 0.79327 0.01604 0.73168 0.0
C3701 C 0.80251 0.03408 0.72959 0.0
C3702 C 0.78104 0.01238 0.74735 0.0
C3703 C 0.77749 0.02671 0.76131 0.0
C3704 C 0.78731 0.04452 0.75968 0.0
C3705 C 0.79982 0.04811 0.74408 0.0
C3706 C 0.73251 0.0346 0.79169 0.0
C3707 C 0.73014 0.01661 0.80093 0.0
C3708 C 0.74834 0.0381 0.77964 0.0
C3709 C 0.76221 0.02365 0.77626 0.0
C3710 C 0.76024 1.00584 0.78599 0.0
C3711 C 0.74445 1.00241 0.79834 0.0
H3712 H 0.33207 0.26017 1.00595 0.0
H3713 H 0.30833 0.24498 0.06165 0.0
H3714 H 0.30473 0.28147 0.99998 0.0
H3715 H 0.2808 0.26654 0.05563 0.0
H3716 H 0.25667 0.32989 0.04784 0.0
H3717 H 0.2782 0.30263 0.05334 0.0
H3718 H 0.26879 0.28321 0.99473 0.0
H3719 H 0.24696 0.31069 0.9892 0.0
C3720 C 0.3209 0.26122 0.01688 0.0
C3721 C 0.32253 0.25099 0.0344 0.0
C3722 C 0.3051 0.27333 0.01334 0.0
C3723 C 0.29057 0.27576 0.02731 0.0
C3724 C 0.29183 0.26506 0.0446 0.0
C3725 C 0.30755 0.25267 0.04804 0.0
C3726 C 0.25894 0.31967 0.03616 0.0
C3727 C 0.25022 0.32258 0.018 0.0
C3728 C 0.27119 0.30393 0.03939 0.0
C3729 C 0.2753 0.29075 0.02448 0.0
C3730 C 0.26601 0.29319 1.00649 0.0
C3731 C 0.25344 0.30886 1.00334 0.0
H3732 H 0.3313 0.79344 0.04628 0.0
H3733 H 0.30965 0.80565 0.98902 0.0
H3734 H 0.30408 0.77197 0.05213 0.0
H3735 H 0.28221 0.78391 0.99492 0.0
H3736 H 0.25794 0.72091 1.00484 0.0
H3737 H 0.27963 0.74795 0.99884 0.0
H3738 H 0.26813 0.77004 0.05611 0.0
H3739 H 0.24619 0.7428 0.06216 0.0
C3740 C 0.32061 0.7917 0.03497 0.0
C3741 C 0.32279 0.80116 0.01708 0.0
C3742 C 0.30487 0.77948 0.03842 0.0
C3743 C 0.29095 0.77616 0.02401 0.0
C3744 C 0.29276 0.78607 1.0063 0.0
C3745 C 0.30842 0.79858 1.00293 0.0
C3746 C 0.2598 0.73164 0.01611 0.0
C3747 C 0.25043 0.72956 0.03407 0.0
C3748 C 0.27215 0.74726 0.01259 0.0
C3749 C 0.2757 0.76115 0.02699 0.0
C3750 C 0.26581 0.7595 0.04474 0.0
C3751 C 0.25317 0.74396 0.04819 0.0
H3752 H 0.72358 0.25668 0.0476 0.0
H3753 H 0.74372 0.24536 0.98958 0.0
H3754 H 0.75094 0.27803 0.05317 0.0
H3755 H 0.77136 0.26693 0.99522 0.0
H3756 H 0.80796 0.3086 0.06225 0.0
H3757 H 0.78659 0.28087 0.05642 0.0
H3758 H 0.77392 0.30257 0.99931 0.0
H3759 H 0.79511 0.33005 1.00506 0.0
C3760 C 0.73402 0.25854 0.03608 0.0
C3761 C 0.73132 0.24943 0.01805 0.0
C3762 C 0.74984 0.27069 0.03936 0.0
C3763 C 0.76335 0.27429 0.02464 0.0
C3764 C 0.76113 0.26458 1.00682 0.0
C3765 C 0.74536 0.25215 1.00361 0.0
C3766 C 0.80087 0.30725 0.04835 0.0
C3767 C 0.80311 0.32167 0.03422 0.0
C3768 C 0.78855 0.29142 0.04503 0.0
C3769 C 0.77846 0.28951 0.0274 0.0
C3770 C 0.78156 0.30343 0.01296 0.0
C3771 C 0.79362 0.31931 0.01635 0.0
H3772 H 0.80714 0.74279 0.99029 0.0
H3773 H 0.79347 0.72112 0.04721 0.0
H3774 H 0.78584 0.77062 0.99602 0.0
H3775 H 0.77239 0.74868 0.05285 0.0
H3776 H 0.74272 0.80614 0.06266 0.0
H3777 H 0.77027 0.78442 0.05711 0.0
H3778 H 0.7501 0.77363 0.99901 0.0
H3779 H 0.72283 0.79511 1.0045 0.0
C3780 C 0.79985 0.7441 1.0041 0.0
C3781 C 0.80186 0.7296 0.01818 0.0
C3782 C 0.7876 0.75999 1.00736 0.0
C3783 C 0.77735 0.76188 0.0249 0.0
C3784 C 0.78017 0.74785 0.03928 0.0
C3785 C 0.79215 0.73191 0.03594 0.0
C3786 C 0.7444 0.79939 0.04862 0.0
C3787 C 0.73046 0.80221 0.03412 0.0
C3788 C 0.76011 0.78687 0.04546 0.0
C3789 C 0.76237 0.7772 0.02762 0.0
C3790 C 0.74897 0.78092 0.01284 0.0
C3791 C 0.7332 0.79315 0.01607 0.0
H3792 H 0.54638 0.75763 0.83028 0.0
H3793 H 0.48844 0.74655 0.80986 0.0
H3794 H 0.55195 0.77937 0.80325 0.0
H3795 H 0.49405 0.76857 0.78258 0.0
H3796 H 0.50424 0.8318 0.7592 0.0
H3797 H 0.49842 0.80446 0.78051 0.0
H3798 H 0.55517 0.78206 0.7674 0.0
H3799 H 0.56107 0.80962 0.74586 0.0
C3800 C 0.53486 0.75967 0.81987 0.0
C3801 C 0.51687 0.75046 0.82237 0.0
C3802 C 0.53814 0.77204 0.80424 0.0
C3803 C 0.52346 0.77579 0.79074 0.0
C3804 C 0.50564 0.76608 0.79281 0.0
C3805 C 0.50243 0.7534 0.80837 0.0
C3806 C 0.51546 0.82096 0.76065 0.0
C3807 C 0.53324 0.82305 0.75093 0.0
C3808 C 0.51201 0.80516 0.77277 0.0
C3809 C 0.52631 0.79106 0.77573 0.0
C3810 C 0.54389 0.79275 0.76553 0.0
C3811 C 0.54725 0.80849 0.75313 0.0
H3812 H 0.29389 0.54755 0.83177 0.0
H3813 H 0.3061 0.49041 0.80963 0.0
H3814 H 0.27239 0.5536 0.8046 0.0
H3815 H 0.28436 0.49652 0.78226 0.0
H3816 H 0.22129 0.50617 0.75847 0.0
H3817 H 0.24849 0.50028 0.77996 0.0
H3818 H 0.26995 0.5578 0.76871 0.0
H3819 H 0.24252 0.56373 0.74696 0.0
C3820 C 0.29217 0.53632 0.82096 0.0
C3821 C 0.30162 0.5184 0.82302 0.0
C3822 C 0.27993 0.53989 0.80526 0.0
C3823 C 0.27657 0.52555 0.79125 0.0
C3824 C 0.28654 0.50784 0.79289 0.0
C3825 C 0.29906 0.50436 0.80851 0.0
C3826 C 0.23191 0.51753 0.76035 0.0
C3827 C 0.22959 0.53551 0.75109 0.0
C3828 C 0.24763 0.51407 0.77258 0.0
C3829 C 0.26141 0.52856 0.77613 0.0
C3830 C 0.25951 0.54636 0.76638 0.0
C3831 C 0.24386 0.54974 0.75385 0.0
H3832 H 0.54754 0.22153 0.75795 0.0
H3833 H 0.4893 0.24151 0.74772 0.0
H3834 H 0.55325 0.24872 0.77957 0.0
H3835 H 0.49506 0.26892 0.76963 0.0
H3836 H 0.56197 0.30654 0.80988 0.0
H3837 H 0.55605 0.2849 0.78229 0.0
H3838 H 0.49998 0.27056 0.8056 0.0
H3839 H 0.50582 0.2919 0.83293 0.0
C3840 C 0.53599 0.23189 0.76013 0.0
C3841 C 0.51787 0.22921 0.75122 0.0
C3842 C 0.53936 0.2476 0.77243 0.0
C3843 C 0.52463 0.26099 0.77641 0.0
C3844 C 0.50669 0.25877 0.76696 0.0
C3845 C 0.5034 0.24314 0.75434 0.0
C3846 C 0.5483 0.29896 0.80894 0.0
C3847 C 0.53448 0.30084 0.82374 0.0
C3848 C 0.54492 0.28652 0.79319 0.0
C3849 C 0.52752 0.27598 0.79173 0.0
C3850 C 0.51342 0.27859 0.8061 0.0
C3851 C 0.51689 0.29074 0.8219 0.0
H3852 H 0.84249 0.5303 0.77619 0.0
H3853 H 0.80344 0.50374 0.73519 0.0
H3854 H 0.81584 0.53582 0.79826 0.0
H3855 H 0.77634 0.50967 0.75772 0.0
H3856 H 0.73777 0.55153 0.80445 0.0
H3857 H 0.7606 0.545 0.77781 0.0
H3858 H 0.79311 0.50708 0.815 0.0
H3859 H 0.7707 0.51317 0.84121 0.0
C3860 C 0.82818 0.52574 0.77174 0.0
C3861 C 0.8252 0.51647 0.75383 0.0
C3862 C 0.81289 0.52897 0.78447 0.0
C3863 C 0.79406 0.52327 0.77967 0.0
C3864 C 0.79076 0.51434 0.76166 0.0
C3865 C 0.80626 0.51082 0.74888 0.0
C3866 C 0.74967 0.54165 0.80684 0.0
C3867 C 0.7524 0.53306 0.82511 0.0
C3868 C 0.76262 0.53782 0.79157 0.0
C3869 C 0.77857 0.52551 0.7944 0.0
C3870 C 0.78094 0.5166 0.81242 0.0
C3871 C 0.76804 0.52021 0.82748 0.0
H3872 H 0.50514 0.22398 0.29659 0.0
H3873 H 0.56412 0.24227 0.30569 0.0
H3874 H 0.49982 0.25119 0.27504 0.0
H3875 H 0.55876 0.26977 0.28386 0.0
H3876 H 0.54738 0.29296 0.22073 0.0
H3877 H 0.55343 0.2719 0.2482 0.0
H3878 H 0.49773 0.28692 0.27203 0.0
H3879 H 0.4916 0.30815 0.24433 0.0
C3880 C 0.51694 0.234 0.29419 0.0
C3881 C 0.53513 0.23083 0.30274 0.0
C3882 C 0.51381 0.24973 0.28192 0.0
C3883 C 0.52886 0.26266 0.27763 0.0
C3884 C 0.54689 0.25998 0.28676 0.0
C3885 C 0.54995 0.24431 0.29934 0.0
C3886 C 0.53646 0.29199 0.23191 0.0
C3887 C 0.51888 0.30212 0.23017 0.0
C3888 C 0.54004 0.28002 0.24779 0.0
C3889 C 0.52607 0.27764 0.26233 0.0
C3890 C 0.50875 0.28832 0.261 0.0
C3891 C 0.50526 0.30054 0.24517 0.0
H3892 H 0.75622 0.54705 0.22284 0.0
H3893 H 0.74633 0.48875 0.24276 0.0
H3894 H 0.77785 0.55289 0.24993 0.0
H3895 H 0.76821 0.49464 0.27013 0.0
H3896 H 0.83136 0.50544 0.29312 0.0
H3897 H 0.80386 0.49944 0.27208 0.0
H3898 H 0.78116 0.55601 0.28563 0.0
H3899 H 0.80893 0.5621 0.30691 0.0
C3900 C 0.75847 0.53552 0.23318 0.0
C3901 C 0.74967 0.51734 0.23049 0.0
C3902 C 0.77078 0.53895 0.24885 0.0
C3903 C 0.77488 0.52424 0.26221 0.0
C3904 C 0.76548 0.50625 0.26001 0.0
C3905 C 0.75286 0.50289 0.2444 0.0
C3906 C 0.82044 0.51659 0.29182 0.0
C3907 C 0.82251 0.53438 0.30158 0.0
C3908 C 0.80453 0.51304 0.27986 0.0
C3909 C 0.79027 0.52722 0.2771 0.0
C3910 C 0.79196 0.54481 0.28734 0.0
C3911 C 0.80783 0.54828 0.29959 0.0
H3912 H 0.51643 0.77292 0.20945 0.0
H3913 H 0.55022 0.73672 0.24758 0.0
H3914 H 0.51046 0.7953 0.23577 0.0
H3915 H 0.5438 0.75952 0.27433 0.0
H3916 H 0.50285 0.8033 0.31575 0.0
H3917 H 0.50908 0.77658 0.29286 0.0
H3918 H 0.53856 0.81614 0.25484 0.0
H3919 H 0.53275 0.84245 0.27731 0.0
C3920 C 0.52246 0.76955 0.2235 0.0
C3921 C 0.53397 0.75296 0.22626 0.0
C3922 C 0.51897 0.78245 0.2386 0.0
C3923 C 0.52663 0.77914 0.25706 0.0
C3924 C 0.53762 0.7623 0.26022 0.0
C3925 C 0.54138 0.74936 0.2449 0.0
C3926 C 0.51076 0.80622 0.30256 0.0
C3927 C 0.51719 0.8251 0.2984 0.0
C3928 C 0.51444 0.79092 0.28957 0.0
C3929 C 0.52432 0.79434 0.27212 0.0
C3930 C 0.53092 0.81309 0.26817 0.0
C3931 C 0.52753 0.82819 0.28112 0.0
H3932 H 0.30699 0.5626 0.24272 0.0
H3933 H 0.29541 0.50507 0.22126 0.0
H3934 H 0.28526 0.55657 0.27014 0.0
H3935 H 0.27393 0.49911 0.24843 0.0
H3936 H 0.24332 0.48943 0.30563 0.0
H3937 H 0.27106 0.49531 0.28426 0.0
H3938 H 0.24945 0.55258 0.2721 0.0
H3939 H 0.22198 0.54676 0.2932 0.0
C3940 C 0.30011 0.54859 0.24402 0.0
C3941 C 0.30278 0.53442 0.22967 0.0
C3942 C 0.28759 0.54515 0.25966 0.0
C3943 C 0.27778 0.52736 0.26146 0.0
C3944 C 0.28134 0.51288 0.24765 0.0
C3945 C 0.29356 0.5164 0.23194 0.0
C3946 C 0.24468 0.50335 0.29861 0.0
C3947 C 0.2303 0.51752 0.30098 0.0
C3948 C 0.26052 0.5067 0.28631 0.0
C3949 C 0.26247 0.52443 0.27642 0.0
C3950 C 0.24856 0.53887 0.27959 0.0
C3951 C 0.23267 0.53543 0.29159 0.0
H3952 H 0.74511 0.80967 0.49147 0.0
H3953 H 0.7581 0.83209 0.54833 0.0
H3954 H 0.76702 0.7824 0.49736 0.0
H3955 H 0.77978 0.805 0.55417 0.0
H3956 H 0.80981 0.74726 0.5639 0.0
H3957 H 0.78228 0.76901 0.55837 0.0
H3958 H 0.80301 0.78044 0.50063 0.0
H3959 H 0.8303 0.75898 0.50612 0.0
C3960 C 0.75238 0.80864 0.50531 0.0
C3961 C 0.74998 0.82319 0.51933 0.0
C3962 C 0.76499 0.79307 0.50866 0.0
C3963 C 0.77521 0.79154 0.52624 0.0
C3964 C 0.77203 0.8056 0.54057 0.0
C3965 C 0.7597 0.82124 0.53712 0.0
C3966 C 0.80829 0.75421 0.54996 0.0
C3967 C 0.82237 0.75151 0.53554 0.0
C3968 C 0.79259 0.76673 0.5468 0.0
C3969 C 0.79045 0.7765 0.52905 0.0
C3970 C 0.80406 0.77303 0.51439 0.0
C3971 C 0.81984 0.76082 0.51762 0.0
H3972 H 0.74603 0.24305 0.5632 0.0
H3973 H 0.757 0.2224 0.50527 0.0
H3974 H 0.76757 0.27066 0.55727 0.0
H3975 H 0.77831 0.24971 0.49942 0.0
H3976 H 0.809 0.30662 0.48985 0.0
H3977 H 0.7812 0.28538 0.49591 0.0
H3978 H 0.8032 0.273 0.55298 0.0
H3979 H 0.83071 0.29402 0.547 0.0
C3980 C 0.75273 0.24456 0.54913 0.0
C3981 C 0.74995 0.23039 0.53481 0.0
C3982 C 0.76514 0.26031 0.54575 0.0
C3983 C 0.77474 0.26238 0.52787 0.0
C3984 C 0.77106 0.24874 0.51327 0.0
C3985 C 0.75894 0.23294 0.51672 0.0
C3986 C 0.8077 0.2996 0.50378 0.0
C3987 C 0.82221 0.30186 0.51783 0.0
C3988 C 0.79183 0.28737 0.50724 0.0
C3989 C 0.78998 0.27742 0.52493 0.0
C3990 C 0.804 0.28054 0.53929 0.0
C3991 C 0.81991 0.29249 0.53575 0.0
H3992 H 0.30659 0.80883 0.56208 0.0
H3993 H 0.29356 0.83087 0.50516 0.0
H3994 H 0.28492 0.78132 0.55614 0.0
H3995 H 0.27212 0.80364 0.49929 0.0
H3996 H 0.24183 0.74648 0.48913 0.0
H3997 H 0.26954 0.76795 0.49488 0.0
H3998 H 0.24917 0.77878 0.55291 0.0
H3999 H 0.22175 0.75755 0.54722 0.0
C4000 C 0.29936 0.80767 0.54823 0.0
C4001 C 0.30166 0.82219 0.53421 0.0
C4002 C 0.28689 0.79197 0.54484 0.0
C4003 C 0.27673 0.79028 0.52723 0.0
C4004 C 0.27983 0.80432 0.51291 0.0
C4005 C 0.29202 0.82007 0.51638 0.0
C4006 C 0.24349 0.7532 0.50319 0.0
C4007 C 0.22945 0.75045 0.51762 0.0
C4008 C 0.2593 0.76557 0.50648 0.0
C4009 C 0.26156 0.77516 0.52436 0.0
C4010 C 0.24804 0.77154 0.53905 0.0
C4011 C 0.23218 0.75946 0.5357 0.0
H4012 H 0.24276 0.30817 0.56287 0.0
H4013 H 0.22072 0.29416 0.50612 0.0
H4014 H 0.27062 0.28693 0.55702 0.0
H4015 H 0.24829 0.27317 0.50035 0.0
H4016 H 0.30566 0.24374 0.49002 0.0
H4017 H 0.28391 0.27123 0.49577 0.0
H4018 H 0.27395 0.2512 0.55402 0.0
H4019 H 0.29548 0.22399 0.54833 0.0
C4020 C 0.24398 0.30081 0.54909 0.0
C4021 C 0.22937 0.30271 0.53509 0.0
C4022 C 0.25989 0.2886 0.54574 0.0
C4023 C 0.2617 0.2783 0.5282 0.0
C4024 C 0.24753 0.28099 0.51392 0.0
C4025 C 0.23158 0.29292 0.51734 0.0
C4026 C 0.29909 0.24544 0.50413 0.0
C4027 C 0.30215 0.23154 0.51862 0.0
C4028 C 0.28655 0.26112 0.50742 0.0
C4029 C 0.27709 0.26339 0.52536 0.0
C4030 C 0.28108 0.25006 0.54012 0.0
C4031 C 0.29332 0.23432 0.53677 0.0
loop_
_geom_bond_atom_site_label_1
_geom_bond_atom_site_label_2
_geom_bond_distance
_geom_bond_site_symmetry_2
_ccdc_geom_bond_type
Co0 O3 2.000 . S
Co0 N17 1.989 . S
Co0 O25 1.967 . S
Co0 O32 1.920 . S
Co1 O4 1.966 . S
Co1 N10 2.022 . S
Co1 N18 1.993 1_655 S
Co1 O26 1.941 . S
C2 O3 1.223 1_655 S
C2 O4 1.263 . S
O3 Co0 2.000 . S
O3 C2 1.223 1_455 S
O4 Co1 1.966 . S
O4 C2 1.263 . S
C5 O6 1.235 . S
C5 O32 1.289 . S
O6 C5 1.235 . S
C7 C9 1.400 . S
C7 N10 1.351 . S
C7 C12 1.501 . S
C8 C9 1.387 . S
C8 N11 1.341 . S
C9 C7 1.400 . S
C9 C8 1.387 . S
N10 Co1 2.022 . S
N10 C7 1.351 . S
N10 N11 1.365 . S
N11 C8 1.341 . S
N11 N10 1.365 . S
N11 H31 0.862 . S
C12 C7 1.501 . S
C12 H13 0.961 . S
C12 H14 0.961 . S
C12 H15 0.960 . S
H13 C12 0.961 . S
H14 C12 0.961 . S
H15 C12 0.960 . S
C16 N17 1.342 . S
C16 C20 1.401 . S
C16 C21 1.499 . S
N17 Co0 1.989 . S
N17 C16 1.342 . S
N17 N18 1.388 . S
N18 Co1 1.993 1_455 S
N18 N17 1.388 . S
N18 C19 1.346 . S
C19 N18 1.346 . S
C19 C20 1.396 . S
C19 C29 1.510 . S
C20 C16 1.401 . S
C20 C19 1.396 . S
C21 C16 1.499 . S
C21 H22 0.959 . S
C21 H23 0.960 . S
C21 H24 0.961 . S
H22 C21 0.959 . S
H23 C21 0.960 . S
H24 C21 0.961 . S
O25 Co0 1.967 . S
O25 C33 1.258 . S
O26 Co1 1.941 . S
O26 C33 1.266 1_655 S
H27 C29 0.959 . S
H28 C29 0.961 . S
C29 C19 1.510 . S
C29 H27 0.959 . S
C29 H28 0.961 . S
C29 H30 0.960 1_455 S
H30 C29 0.960 1_655 S
H31 N11 0.862 . S
O32 Co0 1.920 . S
O32 C5 1.289 . S
C33 O25 1.258 . S
C33 O26 1.266 1_455 S
Co34 O37 2.000 . S
Co34 N51 1.989 . S
Co34 O59 1.967 . S
Co34 O66 1.920 . S
Co35 O38 1.966 . S
Co35 N44 2.022 . S
Co35 N52 1.993 1_565 S
Co35 O60 1.941 . S
C36 O37 1.223 1_565 S
C36 O38 1.263 . S
O37 Co34 2.000 . S
O37 C36 1.223 1_545 S
O38 Co35 1.966 . S
O38 C36 1.263 . S
C39 O40 1.235 . S
C39 O66 1.289 . S
O40 C39 1.235 . S
C41 C43 1.400 . S
C41 N44 1.351 . S
C41 C46 1.501 . S
C42 C43 1.387 . S
C42 N45 1.341 . S
C43 C41 1.400 . S
C43 C42 1.387 . S
N44 Co35 2.022 . S
N44 C41 1.351 . S
N44 N45 1.365 . S
N45 C42 1.341 . S
N45 N44 1.365 . S
N45 H65 0.862 . S
C46 C41 1.501 . S
C46 H47 0.961 . S
C46 H48 0.961 . S
C46 H49 0.960 . S
H47 C46 0.961 . S
H48 C46 0.961 . S
H49 C46 0.960 . S
C50 N51 1.342 . S
C50 C54 1.401 . S
C50 C55 1.499 . S
N51 Co34 1.989 . S
N51 C50 1.342 . S
N51 N52 1.388 . S
N52 Co35 1.993 1_545 S
N52 N51 1.388 . S
N52 C53 1.346 . S
C53 N52 1.346 . S
C53 C54 1.396 . S
C53 C63 1.510 . S
C54 C50 1.401 . S
C54 C53 1.396 . S
C55 C50 1.499 . S
C55 H56 0.959 . S
C55 H57 0.960 . S
C55 H58 0.961 . S
H56 C55 0.959 . S
H57 C55 0.960 . S
H58 C55 0.961 . S
O59 Co34 1.967 . S
O59 C67 1.258 . S
O60 Co35 1.941 . S
O60 C67 1.266 1_565 S
H61 C63 0.959 . S
H62 C63 0.961 . S
C63 C53 1.510 . S
C63 H61 0.959 . S
C63 H62 0.961 . S
C63 H64 0.960 1_545 S
H64 C63 0.960 1_565 S
H65 N45 0.862 . S
O66 Co34 1.920 . S
O66 C39 1.289 . S
C67 O59 1.258 . S
C67 O60 1.266 1_545 S
Co68 O71 1.970 . S
Co68 N85 1.989 . S
Co68 O93 1.967 . S
Co68 O100 1.920 1_455 S
Co69 O72 1.966 . S
Co69 N78 2.022 . S
Co69 N86 1.993 . S
Co69 O94 1.941 . S
C70 O71 1.258 . S
C70 O72 1.263 . S
O71 Co68 1.970 . S
O71 C70 1.258 . S
O72 Co69 1.966 . S
O72 C70 1.263 . S
C73 O74 1.235 . S
C73 O100 1.289 . S
O74 C73 1.235 . S
C75 C77 1.400 . S
C75 N78 1.351 . S
C75 C80 1.501 . S
C76 C77 1.387 . S
C76 N79 1.341 . S
C77 C75 1.400 . S
C77 C76 1.387 . S
N78 Co69 2.022 . S
N78 C75 1.351 . S
N78 N79 1.365 . S
N79 C76 1.341 . S
N79 N78 1.365 . S
N79 H99 0.862 . S
C80 C75 1.501 . S
C80 H81 0.961 . S
C80 H82 0.961 . S
C80 H83 0.960 . S
H81 C80 0.961 . S
H82 C80 0.961 . S
H83 C80 0.960 . S
C84 N85 1.342 1_655 S
C84 C88 1.401 . S
C84 C89 1.499 . S
N85 Co68 1.989 . S
N85 C84 1.342 1_455 S
N85 N86 1.388 . S
N86 Co69 1.993 . S
N86 N85 1.388 . S
N86 C87 1.346 . S
C87 N86 1.346 . S
C87 C88 1.396 1_455 S
C87 C97 1.510 . S
C88 C84 1.401 . S
C88 C87 1.396 1_655 S
C89 C84 1.499 . S
C89 H90 0.959 . S
C89 H91 0.960 . S
C89 H92 0.961 . S
H90 C89 0.959 . S
H91 C89 0.960 . S
H92 C89 0.961 . S
O93 Co68 1.967 . S
O93 C101 1.258 . S
O94 Co69 1.941 . S
O94 C101 1.266 . S
H95 C97 0.959 . S
H96 C97 0.961 . S
C97 C87 1.510 . S
C97 H95 0.959 . S
C97 H96 0.961 . S
C97 H98 0.960 . S
H98 C97 0.960 . S
H99 N79 0.862 . S
O100 Co68 1.920 1_655 S
O100 C73 1.289 . S
C101 O93 1.258 . S
C101 O94 1.266 . S
Co102 O105 1.970 . S
Co102 N119 1.989 . S
Co102 O127 1.967 . S
Co102 O134 1.920 1_545 S
Co103 O106 1.966 . S
Co103 N112 2.022 . S
Co103 N120 1.993 . S
Co103 O128 1.941 . S
C104 O105 1.258 . S
C104 O106 1.263 . S
O105 Co102 1.970 . S
O105 C104 1.258 . S
O106 Co103 1.966 . S
O106 C104 1.263 . S
C107 O108 1.235 . S
C107 O134 1.289 . S
O108 C107 1.235 . S
C109 C111 1.400 . S
C109 N112 1.351 . S
C109 C114 1.501 . S
C110 C111 1.387 . S
C110 N113 1.341 . S
C111 C109 1.400 . S
C111 C110 1.387 . S
N112 Co103 2.022 . S
N112 C109 1.351 . S
N112 N113 1.365 . S
N113 C110 1.341 . S
N113 N112 1.365 . S
N113 H133 0.862 . S
C114 C109 1.501 . S
C114 H115 0.961 . S
C114 H116 0.961 . S
C114 H117 0.960 . S
H115 C114 0.961 . S
H116 C114 0.961 . S
H117 C114 0.960 . S
C118 N119 1.342 1_565 S
C118 C122 1.401 . S
C118 C123 1.499 . S
N119 Co102 1.989 . S
N119 C118 1.342 1_545 S
N119 N120 1.388 . S
N120 Co103 1.993 . S
N120 N119 1.388 . S
N120 C121 1.346 . S
C121 N120 1.346 . S
C121 C122 1.396 1_545 S
C121 C131 1.510 . S
C122 C118 1.401 . S
C122 C121 1.396 1_565 S
C123 C118 1.499 . S
C123 H124 0.959 . S
C123 H125 0.960 . S
C123 H126 0.961 . S
H124 C123 0.959 . S
H125 C123 0.960 . S
H126 C123 0.961 . S
O127 Co102 1.967 . S
O127 C135 1.258 . S
O128 Co103 1.941 . S
O128 C135 1.266 . S
H129 C131 0.959 . S
H130 C131 0.961 . S
C131 C121 1.510 . S
C131 H129 0.959 . S
C131 H130 0.961 . S
C131 H132 0.960 . S
H132 C131 0.960 . S
H133 N113 0.862 . S
O134 Co102 1.920 1_565 S
O134 C107 1.289 . S
C135 O127 1.258 . S
C135 O128 1.266 . S
Co136 O139 2.001 . S
Co136 N153 1.989 . S
Co136 O161 1.967 . S
Co136 O168 1.920 . S
Co137 O140 1.966 . S
Co137 N146 2.022 . S
Co137 N154 1.993 1_655 S
Co137 O162 1.941 . S
C138 O139 1.223 1_655 S
C138 O140 1.263 . S
O139 Co136 2.001 . S
O139 C138 1.223 1_455 S
O140 Co137 1.966 . S
O140 C138 1.263 . S
C141 O142 1.235 . S
C141 O168 1.289 . S
O142 C141 1.235 . S
C143 C145 1.400 . S
C143 N146 1.351 . S
C143 C148 1.501 . S
C144 C145 1.387 . S
C144 N147 1.341 . S
C145 C143 1.400 . S
C145 C144 1.387 . S
N146 Co137 2.022 . S
N146 C143 1.351 . S
N146 N147 1.365 . S
N147 C144 1.341 . S
N147 N146 1.365 . S
N147 H167 0.862 . S
C148 C143 1.501 . S
C148 H149 0.961 . S
C148 H150 0.961 . S
C148 H151 0.960 . S
H149 C148 0.961 . S
H150 C148 0.961 . S
H151 C148 0.960 . S
C152 N153 1.342 . S
C152 C156 1.401 . S
C152 C157 1.499 . S
N153 Co136 1.989 . S
N153 C152 1.342 . S
N153 N154 1.388 . S
N154 Co137 1.993 1_455 S
N154 N153 1.388 . S
N154 C155 1.346 . S
C155 N154 1.346 . S
C155 C156 1.396 . S
C155 C165 1.510 . S
C156 C152 1.401 . S
C156 C155 1.396 . S
C157 C152 1.499 . S
C157 H158 0.959 . S
C157 H159 0.960 . S
C157 H160 0.961 . S
H158 C157 0.959 . S
H159 C157 0.960 . S
H160 C157 0.961 . S
O161 Co136 1.967 . S
O161 C169 1.258 . S
O162 Co137 1.941 . S
O162 C169 1.266 1_655 S
H163 C165 0.959 . S
H164 C165 0.961 . S
C165 C155 1.510 . S
C165 H163 0.959 . S
C165 H164 0.961 . S
C165 H166 0.960 1_455 S
H166 C165 0.960 1_655 S
H167 N147 0.862 . S
O168 Co136 1.920 . S
O168 C141 1.289 . S
C169 O161 1.258 . S
C169 O162 1.266 1_455 S
Co170 O173 2.001 . S
Co170 N187 1.989 . S
Co170 O195 1.967 . S
Co170 O202 1.920 . S
Co171 O174 1.966 . S
Co171 N180 2.022 . S
Co171 N188 1.993 1_565 S
Co171 O196 1.941 . S
C172 O173 1.223 1_565 S
C172 O174 1.263 . S
O173 Co170 2.001 . S
O173 C172 1.223 1_545 S
O174 Co171 1.966 . S
O174 C172 1.263 . S
C175 O176 1.235 . S
C175 O202 1.289 . S
O176 C175 1.235 . S
C177 C179 1.400 . S
C177 N180 1.351 . S
C177 C182 1.501 . S
C178 C179 1.387 . S
C178 N181 1.341 . S
C179 C177 1.400 . S
C179 C178 1.387 . S
N180 Co171 2.022 . S
N180 C177 1.351 . S
N180 N181 1.365 . S
N181 C178 1.341 . S
N181 N180 1.365 . S
N181 H201 0.862 . S
C182 C177 1.501 . S
C182 H183 0.961 . S
C182 H184 0.961 . S
C182 H185 0.960 . S
H183 C182 0.961 . S
H184 C182 0.961 . S
H185 C182 0.960 . S
C186 N187 1.342 . S
C186 C190 1.401 . S
C186 C191 1.499 . S
N187 Co170 1.989 . S
N187 C186 1.342 . S
N187 N188 1.388 . S
N188 Co171 1.993 1_545 S
N188 N187 1.388 . S
N188 C189 1.346 . S
C189 N188 1.346 . S
C189 C190 1.396 . S
C189 C199 1.510 . S
C190 C186 1.401 . S
C190 C189 1.396 . S
C191 C186 1.499 . S
C191 H192 0.959 . S
C191 H193 0.960 . S
C191 H194 0.961 . S
H192 C191 0.959 . S
H193 C191 0.960 . S
H194 C191 0.961 . S
O195 Co170 1.967 . S
O195 C203 1.258 . S
O196 Co171 1.941 . S
O196 C203 1.266 1_565 S
H197 C199 0.959 . S
H198 C199 0.961 . S
C199 C189 1.510 . S
C199 H197 0.959 . S
C199 H198 0.961 . S
C199 H200 0.960 1_545 S
H200 C199 0.960 1_565 S
H201 N181 0.862 . S
O202 Co170 1.920 . S
O202 C175 1.289 . S
C203 O195 1.258 . S
C203 O196 1.266 1_545 S
Co204 O207 1.970 . S
Co204 N221 1.989 . S
Co204 O229 1.967 . S
Co204 O236 1.920 1_455 S
Co205 O208 1.966 . S
Co205 N214 2.022 . S
Co205 N222 1.993 . S
Co205 O230 1.941 . S
C206 O207 1.258 . S
C206 O208 1.263 . S
O207 Co204 1.970 . S
O207 C206 1.258 . S
O208 Co205 1.966 . S
O208 C206 1.263 . S
C209 O210 1.235 . S
C209 O236 1.289 . S
O210 C209 1.235 . S
C211 C213 1.400 . S
C211 N214 1.351 . S
C211 C216 1.501 . S
C212 C213 1.387 . S
C212 N215 1.341 . S
C213 C211 1.400 . S
C213 C212 1.387 . S
N214 Co205 2.022 . S
N214 C211 1.351 . S
N214 N215 1.365 . S
N215 C212 1.341 . S
N215 N214 1.365 . S
N215 H235 0.862 . S
C216 C211 1.501 . S
C216 H217 0.961 . S
C216 H218 0.961 . S
C216 H219 0.960 . S
H217 C216 0.961 . S
H218 C216 0.961 . S
H219 C216 0.960 . S
C220 N221 1.342 1_655 S
C220 C224 1.401 . S
C220 C225 1.499 . S
N221 Co204 1.989 . S
N221 C220 1.342 1_455 S
N221 N222 1.388 . S
N222 Co205 1.993 . S
N222 N221 1.388 . S
N222 C223 1.346 . S
C223 N222 1.346 . S
C223 C224 1.396 1_455 S
C223 C233 1.510 . S
C224 C220 1.401 . S
C224 C223 1.396 1_655 S
C225 C220 1.499 . S
C225 H226 0.959 . S
C225 H227 0.960 . S
C225 H228 0.961 . S
H226 C225 0.959 . S
H227 C225 0.960 . S
H228 C225 0.961 . S
O229 Co204 1.967 . S
O229 C237 1.258 . S
O230 Co205 1.941 . S
O230 C237 1.266 . S
H231 C233 0.959 . S
H232 C233 0.961 . S
C233 C223 1.510 . S
C233 H231 0.959 . S
C233 H232 0.961 . S
C233 H234 0.960 . S
H234 C233 0.960 . S
H235 N215 0.862 . S
O236 Co204 1.920 1_655 S
O236 C209 1.289 . S
C237 O229 1.258 . S
C237 O230 1.266 . S
Co238 O241 1.970 . S
Co238 N255 1.989 . S
Co238 O263 1.967 . S
Co238 O270 1.920 1_545 S
Co239 O242 1.966 . S
Co239 N248 2.022 . S
Co239 N256 1.993 . S
Co239 O264 1.941 . S
C240 O241 1.258 . S
C240 O242 1.263 . S
O241 Co238 1.970 . S
O241 C240 1.258 . S
O242 Co239 1.966 . S
O242 C240 1.263 . S
C243 O244 1.235 . S
C243 O270 1.289 . S
O244 C243 1.235 . S
C245 C247 1.400 . S
C245 N248 1.351 . S
C245 C250 1.501 . S
C246 C247 1.387 . S
C246 N249 1.341 . S
C247 C245 1.400 . S
C247 C246 1.387 . S
N248 Co239 2.022 . S
N248 C245 1.351 . S
N248 N249 1.365 . S
N249 C246 1.341 . S
N249 N248 1.365 . S
N249 H269 0.862 . S
C250 C245 1.501 . S
C250 H251 0.961 . S
C250 H252 0.961 . S
C250 H253 0.960 . S
H251 C250 0.961 . S
H252 C250 0.961 . S
H253 C250 0.960 . S
C254 N255 1.342 1_565 S
C254 C258 1.401 . S
C254 C259 1.499 . S
N255 Co238 1.989 . S
N255 C254 1.342 1_545 S
N255 N256 1.388 . S
N256 Co239 1.993 . S
N256 N255 1.388 . S
N256 C257 1.346 . S
C257 N256 1.346 . S
C257 C258 1.396 1_545 S
C257 C267 1.510 . S
C258 C254 1.401 . S
C258 C257 1.396 1_565 S
C259 C254 1.499 . S
C259 H260 0.959 . S
C259 H261 0.960 . S
C259 H262 0.961 . S
H260 C259 0.959 . S
H261 C259 0.960 . S
H262 C259 0.961 . S
O263 Co238 1.967 . S
O263 C271 1.258 . S
O264 Co239 1.941 . S
O264 C271 1.266 . S
H265 C267 0.959 . S
H266 C267 0.961 . S
C267 C257 1.510 . S
C267 H265 0.959 . S
C267 H266 0.961 . S
C267 H268 0.960 . S
H268 C267 0.960 . S
H269 N249 0.862 . S
O270 Co238 1.920 1_565 S
O270 C243 1.289 . S
C271 O263 1.258 . S
C271 O264 1.266 . S
Co272 O275 2.000 . S
Co272 N289 1.989 . S
Co272 O297 1.967 . S
Co272 O304 1.920 . S
Co273 O276 1.966 . S
Co273 N282 2.022 . S
Co273 N290 1.993 1_565 S
Co273 O298 1.941 . S
C274 O275 1.223 1_565 S
C274 O276 1.263 . S
O275 Co272 2.000 . S
O275 C274 1.223 1_545 S
O276 Co273 1.966 . S
O276 C274 1.263 . S
C277 O278 1.235 . S
C277 O304 1.289 . S
O278 C277 1.235 . S
C279 C281 1.400 . S
C279 N282 1.351 . S
C279 C284 1.501 . S
C280 C281 1.387 . S
C280 N283 1.341 . S
C281 C279 1.400 . S
C281 C280 1.387 . S
N282 Co273 2.022 . S
N282 C279 1.351 . S
N282 N283 1.365 . S
N283 C280 1.341 . S
N283 N282 1.365 . S
N283 H303 0.862 . S
C284 C279 1.501 . S
C284 H285 0.961 . S
C284 H286 0.961 . S
C284 H287 0.960 . S
H285 C284 0.961 . S
H286 C284 0.961 . S
H287 C284 0.960 . S
C288 N289 1.342 . S
C288 C292 1.401 . S
C288 C293 1.499 . S
N289 Co272 1.989 . S
N289 C288 1.342 . S
N289 N290 1.388 . S
N290 Co273 1.993 1_545 S
N290 N289 1.388 . S
N290 C291 1.346 . S
C291 N290 1.346 . S
C291 C292 1.396 . S
C291 C301 1.510 . S
C292 C288 1.401 . S
C292 C291 1.396 . S
C293 C288 1.499 . S
C293 H294 0.959 . S
C293 H295 0.960 . S
C293 H296 0.961 . S
H294 C293 0.959 . S
H295 C293 0.960 . S
H296 C293 0.961 . S
O297 Co272 1.967 . S
O297 C305 1.258 . S
O298 Co273 1.941 . S
O298 C305 1.266 1_565 S
H299 C301 0.959 . S
H300 C301 0.961 . S
C301 C291 1.510 . S
C301 H299 0.959 . S
C301 H300 0.961 . S
C301 H302 0.960 1_545 S
H302 C301 0.960 1_565 S
H303 N283 0.862 . S
O304 Co272 1.920 . S
O304 C277 1.289 . S
C305 O297 1.258 . S
C305 O298 1.266 1_545 S
Co306 O309 1.970 . S
Co306 N323 1.989 . S
Co306 O331 1.967 . S
Co306 O338 1.920 1_455 S
Co307 O310 1.966 . S
Co307 N316 2.022 . S
Co307 N324 1.993 . S
Co307 O332 1.941 . S
C308 O309 1.258 . S
C308 O310 1.263 . S
O309 Co306 1.970 . S
O309 C308 1.258 . S
O310 Co307 1.966 . S
O310 C308 1.263 . S
C311 O312 1.235 . S
C311 O338 1.289 . S
O312 C311 1.235 . S
C313 C315 1.400 . S
C313 N316 1.351 . S
C313 C318 1.501 . S
C314 C315 1.387 . S
C314 N317 1.341 . S
C315 C313 1.400 . S
C315 C314 1.387 . S
N316 Co307 2.022 . S
N316 C313 1.351 . S
N316 N317 1.365 . S
N317 C314 1.341 . S
N317 N316 1.365 . S
N317 H337 0.862 . S
C318 C313 1.501 . S
C318 H319 0.961 . S
C318 H320 0.961 . S
C318 H321 0.960 . S
H319 C318 0.961 . S
H320 C318 0.961 . S
H321 C318 0.960 . S
C322 N323 1.342 1_655 S
C322 C326 1.401 . S
C322 C327 1.499 . S
N323 Co306 1.989 . S
N323 C322 1.342 1_455 S
N323 N324 1.388 . S
N324 Co307 1.993 . S
N324 N323 1.388 . S
N324 C325 1.346 . S
C325 N324 1.346 . S
C325 C326 1.396 1_455 S
C325 C335 1.510 . S
C326 C322 1.401 . S
C326 C325 1.396 1_655 S
C327 C322 1.499 . S
C327 H328 0.959 . S
C327 H329 0.960 . S
C327 H330 0.961 . S
H328 C327 0.959 . S
H329 C327 0.960 . S
H330 C327 0.961 . S
O331 Co306 1.967 . S
O331 C339 1.258 . S
O332 Co307 1.941 . S
O332 C339 1.266 . S
H333 C335 0.959 . S
H334 C335 0.961 . S
C335 C325 1.510 . S
C335 H333 0.959 . S
C335 H334 0.961 . S
C335 H336 0.960 . S
H336 C335 0.960 . S
H337 N317 0.862 . S
O338 Co306 1.920 1_655 S
O338 C311 1.289 . S
C339 O331 1.258 . S
C339 O332 1.266 . S
Co340 O343 1.970 . S
Co340 N357 1.989 . S
Co340 O365 1.967 . S
Co340 O372 1.920 1_545 S
Co341 O344 1.966 . S
Co341 N350 2.022 . S
Co341 N358 1.993 . S
Co341 O366 1.941 . S
C342 O343 1.258 . S
C342 O344 1.263 . S
O343 Co340 1.970 . S
O343 C342 1.258 . S
O344 Co341 1.966 . S
O344 C342 1.263 . S
C345 O346 1.235 . S
C345 O372 1.289 . S
O346 C345 1.235 . S
C347 C349 1.400 . S
C347 N350 1.351 . S
C347 C352 1.501 . S
C348 C349 1.387 . S
C348 N351 1.341 . S
C349 C347 1.400 . S
C349 C348 1.387 . S
N350 Co341 2.022 . S
N350 C347 1.351 . S
N350 N351 1.365 . S
N351 C348 1.341 . S
N351 N350 1.365 . S
N351 H371 0.862 . S
C352 C347 1.501 . S
C352 H353 0.961 . S
C352 H354 0.961 . S
C352 H355 0.960 . S
H353 C352 0.961 . S
H354 C352 0.961 . S
H355 C352 0.960 . S
C356 N357 1.342 1_565 S
C356 C360 1.401 . S
C356 C361 1.499 . S
N357 Co340 1.989 . S
N357 C356 1.342 1_545 S
N357 N358 1.388 . S
N358 Co341 1.993 . S
N358 N357 1.388 . S
N358 C359 1.346 . S
C359 N358 1.346 . S
C359 C360 1.396 1_545 S
C359 C369 1.510 . S
C360 C356 1.401 . S
C360 C359 1.396 1_565 S
C361 C356 1.499 . S
C361 H362 0.959 . S
C361 H363 0.960 . S
C361 H364 0.961 . S
H362 C361 0.959 . S
H363 C361 0.960 . S
H364 C361 0.961 . S
O365 Co340 1.967 . S
O365 C373 1.258 . S
O366 Co341 1.941 . S
O366 C373 1.266 . S
H367 C369 0.959 . S
H368 C369 0.961 . S
C369 C359 1.510 . S
C369 H367 0.959 . S
C369 H368 0.961 . S
C369 H370 0.960 . S
H370 C369 0.960 . S
H371 N351 0.862 . S
O372 Co340 1.920 1_565 S
O372 C345 1.289 . S
C373 O365 1.258 . S
C373 O366 1.266 . S
Co374 O377 2.001 . S
Co374 N391 1.989 . S
Co374 O399 1.967 . S
Co374 O406 1.920 . S
Co375 O378 1.966 . S
Co375 N384 2.022 . S
Co375 N392 1.993 1_655 S
Co375 O400 1.941 . S
C376 O377 1.223 1_655 S
C376 O378 1.263 . S
O377 Co374 2.001 . S
O377 C376 1.223 1_455 S
O378 Co375 1.966 . S
O378 C376 1.263 . S
C379 O380 1.235 . S
C379 O406 1.289 . S
O380 C379 1.235 . S
C381 C383 1.400 . S
C381 N384 1.351 . S
C381 C386 1.501 . S
C382 C383 1.387 . S
C382 N385 1.341 . S
C383 C381 1.400 . S
C383 C382 1.387 . S
N384 Co375 2.022 . S
N384 C381 1.351 . S
N384 N385 1.365 . S
N385 C382 1.341 . S
N385 N384 1.365 . S
N385 H405 0.862 . S
C386 C381 1.501 . S
C386 H387 0.961 . S
C386 H388 0.961 . S
C386 H389 0.960 . S
H387 C386 0.961 . S
H388 C386 0.961 . S
H389 C386 0.960 . S
C390 N391 1.342 . S
C390 C394 1.401 . S
C390 C395 1.499 . S
N391 Co374 1.989 . S
N391 C390 1.342 . S
N391 N392 1.388 . S
N392 Co375 1.993 1_455 S
N392 N391 1.388 . S
N392 C393 1.346 . S
C393 N392 1.346 . S
C393 C394 1.396 . S
C393 C403 1.510 . S
C394 C390 1.401 . S
C394 C393 1.396 . S
C395 C390 1.499 . S
C395 H396 0.959 . S
C395 H397 0.960 . S
C395 H398 0.961 . S
H396 C395 0.959 . S
H397 C395 0.960 . S
H398 C395 0.961 . S
O399 Co374 1.967 . S
O399 C407 1.258 . S
O400 Co375 1.941 . S
O400 C407 1.266 1_655 S
H401 C403 0.959 . S
H402 C403 0.961 . S
C403 C393 1.510 . S
C403 H401 0.959 . S
C403 H402 0.961 . S
C403 H404 0.960 1_455 S
H404 C403 0.960 1_655 S
H405 N385 0.862 . S
O406 Co374 1.920 . S
O406 C379 1.289 . S
C407 O399 1.258 . S
C407 O400 1.266 1_455 S
Co408 O411 1.970 . S
Co408 N425 1.989 . S
Co408 O433 1.967 . S
Co408 O440 1.920 1_545 S
Co409 O412 1.966 . S
Co409 N418 2.022 . S
Co409 N426 1.993 . S
Co409 O434 1.941 . S
C410 O411 1.258 . S
C410 O412 1.263 . S
O411 Co408 1.970 . S
O411 C410 1.258 . S
O412 Co409 1.966 . S
O412 C410 1.263 . S
C413 O414 1.235 . S
C413 O440 1.289 . S
O414 C413 1.235 . S
C415 C417 1.400 . S
C415 N418 1.351 . S
C415 C420 1.501 . S
C416 C417 1.387 . S
C416 N419 1.341 . S
C417 C415 1.400 . S
C417 C416 1.387 . S
N418 Co409 2.022 . S
N418 C415 1.351 . S
N418 N419 1.365 . S
N419 C416 1.341 . S
N419 N418 1.365 . S
N419 H439 0.862 . S
C420 C415 1.501 . S
C420 H421 0.961 . S
C420 H422 0.961 . S
C420 H423 0.960 . S
H421 C420 0.961 . S
H422 C420 0.961 . S
H423 C420 0.960 . S
C424 N425 1.342 1_565 S
C424 C428 1.401 . S
C424 C429 1.499 . S
N425 Co408 1.989 . S
N425 C424 1.342 1_545 S
N425 N426 1.388 . S
N426 Co409 1.993 . S
N426 N425 1.388 . S
N426 C427 1.346 . S
C427 N426 1.346 . S
C427 C428 1.396 1_545 S
C427 C437 1.510 . S
C428 C424 1.401 . S
C428 C427 1.396 1_565 S
C429 C424 1.499 . S
C429 H430 0.959 . S
C429 H431 0.960 . S
C429 H432 0.961 . S
H430 C429 0.959 . S
H431 C429 0.960 . S
H432 C429 0.961 . S
O433 Co408 1.967 . S
O433 C441 1.258 . S
O434 Co409 1.941 . S
O434 C441 1.266 . S
H435 C437 0.959 . S
H436 C437 0.961 . S
C437 C427 1.510 . S
C437 H435 0.959 . S
C437 H436 0.961 . S
C437 H438 0.960 . S
H438 C437 0.960 . S
H439 N419 0.862 . S
O440 Co408 1.920 1_565 S
O440 C413 1.289 . S
C441 O433 1.258 . S
C441 O434 1.266 . S
Co442 O445 2.000 . S
Co442 N459 1.989 . S
Co442 O467 1.967 . S
Co442 O474 1.920 . S
Co443 O446 1.966 . S
Co443 N452 2.022 . S
Co443 N460 1.993 1_655 S
Co443 O468 1.941 . S
C444 O445 1.223 1_655 S
C444 O446 1.263 . S
O445 Co442 2.000 . S
O445 C444 1.223 1_455 S
O446 Co443 1.966 . S
O446 C444 1.263 . S
C447 O448 1.235 . S
C447 O474 1.289 . S
O448 C447 1.235 . S
C449 C451 1.400 . S
C449 N452 1.351 . S
C449 C454 1.501 . S
C450 C451 1.387 . S
C450 N453 1.341 . S
C451 C449 1.400 . S
C451 C450 1.387 . S
N452 Co443 2.022 . S
N452 C449 1.351 . S
N452 N453 1.365 . S
N453 C450 1.341 . S
N453 N452 1.365 . S
N453 H473 0.862 . S
C454 C449 1.501 . S
C454 H455 0.961 . S
C454 H456 0.961 . S
C454 H457 0.960 . S
H455 C454 0.961 . S
H456 C454 0.961 . S
H457 C454 0.960 . S
C458 N459 1.342 . S
C458 C462 1.401 . S
C458 C463 1.499 . S
N459 Co442 1.989 . S
N459 C458 1.342 . S
N459 N460 1.388 . S
N460 Co443 1.993 1_455 S
N460 N459 1.388 . S
N460 C461 1.346 . S
C461 N460 1.346 . S
C461 C462 1.396 . S
C461 C471 1.510 . S
C462 C458 1.401 . S
C462 C461 1.396 . S
C463 C458 1.499 . S
C463 H464 0.959 . S
C463 H465 0.960 . S
C463 H466 0.961 . S
H464 C463 0.959 . S
H465 C463 0.960 . S
H466 C463 0.961 . S
O467 Co442 1.967 . S
O467 C475 1.258 . S
O468 Co443 1.941 . S
O468 C475 1.266 1_655 S
H469 C471 0.959 . S
H470 C471 0.961 . S
C471 C461 1.510 . S
C471 H469 0.959 . S
C471 H470 0.961 . S
C471 H472 0.960 1_455 S
H472 C471 0.960 1_655 S
H473 N453 0.862 . S
O474 Co442 1.920 . S
O474 C447 1.289 . S
C475 O467 1.258 . S
C475 O468 1.266 1_455 S
Co476 O479 2.001 . S
Co476 N493 1.989 . S
Co476 O501 1.967 . S
Co476 O508 1.920 . S
Co477 O480 1.966 . S
Co477 N486 2.022 . S
Co477 N494 1.993 1_565 S
Co477 O502 1.941 . S
C478 O479 1.223 1_565 S
C478 O480 1.263 . S
O479 Co476 2.001 . S
O479 C478 1.223 1_545 S
O480 Co477 1.966 . S
O480 C478 1.263 . S
C481 O482 1.235 . S
C481 O508 1.289 . S
O482 C481 1.235 . S
C483 C485 1.400 . S
C483 N486 1.351 . S
C483 C488 1.501 . S
C484 C485 1.387 . S
C484 N487 1.341 . S
C485 C483 1.400 . S
C485 C484 1.387 . S
N486 Co477 2.022 . S
N486 C483 1.351 . S
N486 N487 1.365 . S
N487 C484 1.341 . S
N487 N486 1.365 . S
N487 H507 0.862 . S
C488 C483 1.501 . S
C488 H489 0.961 . S
C488 H490 0.961 . S
C488 H491 0.960 . S
H489 C488 0.961 . S
H490 C488 0.961 . S
H491 C488 0.960 . S
C492 N493 1.342 . S
C492 C496 1.401 . S
C492 C497 1.499 . S
N493 Co476 1.989 . S
N493 C492 1.342 . S
N493 N494 1.388 . S
N494 Co477 1.993 1_545 S
N494 N493 1.388 . S
N494 C495 1.346 . S
C495 N494 1.346 . S
C495 C496 1.396 . S
C495 C505 1.510 . S
C496 C492 1.401 . S
C496 C495 1.396 . S
C497 C492 1.499 . S
C497 H498 0.959 . S
C497 H499 0.960 . S
C497 H500 0.961 . S
H498 C497 0.959 . S
H499 C497 0.960 . S
H500 C497 0.961 . S
O501 Co476 1.967 . S
O501 C509 1.258 . S
O502 Co477 1.941 . S
O502 C509 1.266 1_565 S
H503 C505 0.959 . S
H504 C505 0.961 . S
C505 C495 1.510 . S
C505 H503 0.959 . S
C505 H504 0.961 . S
C505 H506 0.960 1_545 S
H506 C505 0.960 1_565 S
H507 N487 0.862 . S
O508 Co476 1.920 . S
O508 C481 1.289 . S
C509 O501 1.258 . S
C509 O502 1.266 1_545 S
Co510 O513 1.970 . S
Co510 N527 1.989 . S
Co510 O535 1.967 . S
Co510 O542 1.920 1_455 S
Co511 O514 1.966 . S
Co511 N520 2.022 . S
Co511 N528 1.993 . S
Co511 O536 1.941 . S
C512 O513 1.258 . S
C512 O514 1.263 . S
O513 Co510 1.970 . S
O513 C512 1.258 . S
O514 Co511 1.966 . S
O514 C512 1.263 . S
C515 O516 1.235 . S
C515 O542 1.289 . S
O516 C515 1.235 . S
C517 C519 1.400 . S
C517 N520 1.351 . S
C517 C522 1.501 . S
C518 C519 1.387 . S
C518 N521 1.341 . S
C519 C517 1.400 . S
C519 C518 1.387 . S
N520 Co511 2.022 . S
N520 C517 1.351 . S
N520 N521 1.365 . S
N521 C518 1.341 . S
N521 N520 1.365 . S
N521 H541 0.862 . S
C522 C517 1.501 . S
C522 H523 0.961 . S
C522 H524 0.961 . S
C522 H525 0.960 . S
H523 C522 0.961 . S
H524 C522 0.961 . S
H525 C522 0.960 . S
C526 N527 1.342 1_655 S
C526 C530 1.401 . S
C526 C531 1.499 . S
N527 Co510 1.989 . S
N527 C526 1.342 1_455 S
N527 N528 1.388 . S
N528 Co511 1.993 . S
N528 N527 1.388 . S
N528 C529 1.346 . S
C529 N528 1.346 . S
C529 C530 1.396 1_455 S
C529 C539 1.510 . S
C530 C526 1.401 . S
C530 C529 1.396 1_655 S
C531 C526 1.499 . S
C531 H532 0.959 . S
C531 H533 0.960 . S
C531 H534 0.961 . S
H532 C531 0.959 . S
H533 C531 0.960 . S
H534 C531 0.961 . S
O535 Co510 1.967 . S
O535 C543 1.258 . S
O536 Co511 1.941 . S
O536 C543 1.266 . S
H537 C539 0.959 . S
H538 C539 0.961 . S
C539 C529 1.510 . S
C539 H537 0.959 . S
C539 H538 0.961 . S
C539 H540 0.960 . S
H540 C539 0.960 . S
H541 N521 0.862 . S
O542 Co510 1.920 1_655 S
O542 C515 1.289 . S
C543 O535 1.258 . S
C543 O536 1.266 . S
Co544 O547 2.000 . S
Co544 N561 1.989 . S
Co544 O569 1.967 . S
Co544 O576 1.920 . S
Co545 O548 1.966 . S
Co545 N554 2.022 . S
Co545 N562 1.993 1_556 S
Co545 O570 1.941 . S
C546 O547 1.223 1_556 S
C546 O548 1.263 . S
O547 Co544 2.000 . S
O547 C546 1.223 1_554 S
O548 Co545 1.966 . S
O548 C546 1.263 . S
C549 O550 1.235 . S
C549 O576 1.289 . S
O550 C549 1.235 . S
C551 C553 1.400 . S
C551 N554 1.351 . S
C551 C556 1.501 . S
C552 C553 1.387 . S
C552 N555 1.341 . S
C553 C551 1.400 . S
C553 C552 1.387 . S
N554 Co545 2.022 . S
N554 C551 1.351 . S
N554 N555 1.365 . S
N555 C552 1.341 . S
N555 N554 1.365 . S
N555 H575 0.862 . S
C556 C551 1.501 . S
C556 H557 0.961 . S
C556 H558 0.961 . S
C556 H559 0.960 . S
H557 C556 0.961 . S
H558 C556 0.961 . S
H559 C556 0.960 . S
C560 N561 1.342 . S
C560 C564 1.401 . S
C560 C565 1.499 . S
N561 Co544 1.989 . S
N561 C560 1.342 . S
N561 N562 1.388 . S
N562 Co545 1.993 1_554 S
N562 N561 1.388 . S
N562 C563 1.346 . S
C563 N562 1.346 . S
C563 C564 1.396 . S
C563 C573 1.510 . S
C564 C560 1.401 . S
C564 C563 1.396 . S
C565 C560 1.499 . S
C565 H566 0.959 . S
C565 H567 0.960 . S
C565 H568 0.961 . S
H566 C565 0.959 . S
H567 C565 0.960 . S
H568 C565 0.961 . S
O569 Co544 1.967 . S
O569 C577 1.258 . S
O570 Co545 1.941 . S
O570 C577 1.266 1_556 S
H571 C573 0.959 . S
H572 C573 0.961 . S
C573 C563 1.510 . S
C573 H571 0.959 . S
C573 H572 0.961 . S
C573 H574 0.960 1_554 S
H574 C573 0.960 1_556 S
H575 N555 0.862 . S
O576 Co544 1.920 . S
O576 C549 1.289 . S
C577 O569 1.258 . S
C577 O570 1.266 1_554 S
Co578 O581 1.970 . S
Co578 N595 1.989 . S
Co578 O603 1.967 . S
Co578 O610 1.920 1_554 S
Co579 O582 1.966 . S
Co579 N588 2.022 . S
Co579 N596 1.993 . S
Co579 O604 1.941 . S
C580 O581 1.258 . S
C580 O582 1.263 . S
O581 Co578 1.970 . S
O581 C580 1.258 . S
O582 Co579 1.966 . S
O582 C580 1.263 . S
C583 O584 1.235 . S
C583 O610 1.289 . S
O584 C583 1.235 . S
C585 C587 1.400 . S
C585 N588 1.351 . S
C585 C590 1.501 . S
C586 C587 1.387 . S
C586 N589 1.341 . S
C587 C585 1.400 . S
C587 C586 1.387 . S
N588 Co579 2.022 . S
N588 C585 1.351 . S
N588 N589 1.365 . S
N589 C586 1.341 . S
N589 N588 1.365 . S
N589 H609 0.862 . S
C590 C585 1.501 . S
C590 H591 0.961 . S
C590 H592 0.961 . S
C590 H593 0.960 . S
H591 C590 0.961 . S
H592 C590 0.961 . S
H593 C590 0.960 . S
C594 N595 1.342 1_556 S
C594 C598 1.401 . S
C594 C599 1.499 . S
N595 Co578 1.989 . S
N595 C594 1.342 1_554 S
N595 N596 1.388 . S
N596 Co579 1.993 . S
N596 N595 1.388 . S
N596 C597 1.346 . S
C597 N596 1.346 . S
C597 C598 1.396 1_554 S
C597 C607 1.510 . S
C598 C594 1.401 . S
C598 C597 1.396 1_556 S
C599 C594 1.499 . S
C599 H600 0.959 . S
C599 H601 0.960 . S
C599 H602 0.961 . S
H600 C599 0.959 . S
H601 C599 0.960 . S
H602 C599 0.961 . S
O603 Co578 1.967 . S
O603 C611 1.258 . S
O604 Co579 1.941 . S
O604 C611 1.266 . S
H605 C607 0.959 . S
H606 C607 0.961 . S
C607 C597 1.510 . S
C607 H605 0.959 . S
C607 H606 0.961 . S
C607 H608 0.960 . S
H608 C607 0.960 . S
H609 N589 0.862 . S
O610 Co578 1.920 1_556 S
O610 C583 1.289 . S
C611 O603 1.258 . S
C611 O604 1.266 . S
Co612 O615 1.970 . S
Co612 N629 1.989 . S
Co612 O637 1.967 . S
Co612 O644 1.920 1_554 S
Co613 O616 1.966 . S
Co613 N622 2.022 . S
Co613 N630 1.993 . S
Co613 O638 1.941 . S
C614 O615 1.258 . S
C614 O616 1.263 . S
O615 Co612 1.970 . S
O615 C614 1.258 . S
O616 Co613 1.966 . S
O616 C614 1.263 . S
C617 O618 1.235 . S
C617 O644 1.289 . S
O618 C617 1.235 . S
C619 C621 1.400 . S
C619 N622 1.351 . S
C619 C624 1.501 . S
C620 C621 1.387 . S
C620 N623 1.341 . S
C621 C619 1.400 . S
C621 C620 1.387 . S
N622 Co613 2.022 . S
N622 C619 1.351 . S
N622 N623 1.365 . S
N623 C620 1.341 . S
N623 N622 1.365 . S
N623 H643 0.862 . S
C624 C619 1.501 . S
C624 H625 0.961 . S
C624 H626 0.961 . S
C624 H627 0.960 . S
H625 C624 0.961 . S
H626 C624 0.961 . S
H627 C624 0.960 . S
C628 N629 1.342 1_556 S
C628 C632 1.401 . S
C628 C633 1.499 . S
N629 Co612 1.989 . S
N629 C628 1.342 1_554 S
N629 N630 1.388 . S
N630 Co613 1.993 . S
N630 N629 1.388 . S
N630 C631 1.346 . S
C631 N630 1.346 . S
C631 C632 1.396 1_554 S
C631 C641 1.510 . S
C632 C628 1.401 . S
C632 C631 1.396 1_556 S
C633 C628 1.499 . S
C633 H634 0.959 . S
C633 H635 0.960 . S
C633 H636 0.961 . S
H634 C633 0.959 . S
H635 C633 0.960 . S
H636 C633 0.961 . S
O637 Co612 1.967 . S
O637 C645 1.258 . S
O638 Co613 1.941 . S
O638 C645 1.266 . S
H639 C641 0.959 . S
H640 C641 0.961 . S
C641 C631 1.510 . S
C641 H639 0.959 . S
C641 H640 0.961 . S
C641 H642 0.960 . S
H642 C641 0.960 . S
H643 N623 0.862 . S
O644 Co612 1.920 1_556 S
O644 C617 1.289 . S
C645 O637 1.258 . S
C645 O638 1.266 . S
Co646 O649 1.970 . S
Co646 N663 1.989 . S
Co646 O671 1.967 . S
Co646 O678 1.920 1_554 S
Co647 O650 1.966 . S
Co647 N656 2.022 . S
Co647 N664 1.993 . S
Co647 O672 1.941 . S
C648 O649 1.258 . S
C648 O650 1.263 . S
O649 Co646 1.970 . S
O649 C648 1.258 . S
O650 Co647 1.966 . S
O650 C648 1.263 . S
C651 O652 1.235 . S
C651 O678 1.289 . S
O652 C651 1.235 . S
C653 C655 1.400 . S
C653 N656 1.351 . S
C653 C658 1.501 . S
C654 C655 1.387 . S
C654 N657 1.341 . S
C655 C653 1.400 . S
C655 C654 1.387 . S
N656 Co647 2.022 . S
N656 C653 1.351 . S
N656 N657 1.365 . S
N657 C654 1.341 . S
N657 N656 1.365 . S
N657 H677 0.862 . S
C658 C653 1.501 . S
C658 H659 0.961 . S
C658 H660 0.961 . S
C658 H661 0.960 . S
H659 C658 0.961 . S
H660 C658 0.961 . S
H661 C658 0.960 . S
C662 N663 1.342 1_556 S
C662 C666 1.401 . S
C662 C667 1.499 . S
N663 Co646 1.989 . S
N663 C662 1.342 1_554 S
N663 N664 1.388 . S
N664 Co647 1.993 . S
N664 N663 1.388 . S
N664 C665 1.346 . S
C665 N664 1.346 . S
C665 C666 1.396 1_554 S
C665 C675 1.510 . S
C666 C662 1.401 . S
C666 C665 1.396 1_556 S
C667 C662 1.499 . S
C667 H668 0.959 . S
C667 H669 0.960 . S
C667 H670 0.961 . S
H668 C667 0.959 . S
H669 C667 0.960 . S
H670 C667 0.961 . S
O671 Co646 1.967 . S
O671 C679 1.258 . S
O672 Co647 1.941 . S
O672 C679 1.266 . S
H673 C675 0.959 . S
H674 C675 0.961 . S
C675 C665 1.510 . S
C675 H673 0.959 . S
C675 H674 0.961 . S
C675 H676 0.960 . S
H676 C675 0.960 . S
H677 N657 0.862 . S
O678 Co646 1.920 1_556 S
O678 C651 1.289 . S
C679 O671 1.258 . S
C679 O672 1.266 . S
Co680 O683 1.970 . S
Co680 N697 1.989 . S
Co680 O705 1.967 . S
Co680 O712 1.920 1_554 S
Co681 O684 1.966 . S
Co681 N690 2.022 . S
Co681 N698 1.993 . S
Co681 O706 1.941 . S
C682 O683 1.258 . S
C682 O684 1.263 . S
O683 Co680 1.970 . S
O683 C682 1.258 . S
O684 Co681 1.966 . S
O684 C682 1.263 . S
C685 O686 1.235 . S
C685 O712 1.289 . S
O686 C685 1.235 . S
C687 C689 1.400 . S
C687 N690 1.351 . S
C687 C692 1.501 . S
C688 C689 1.387 . S
C688 N691 1.341 . S
C689 C687 1.400 . S
C689 C688 1.387 . S
N690 Co681 2.022 . S
N690 C687 1.351 . S
N690 N691 1.365 . S
N691 C688 1.341 . S
N691 N690 1.365 . S
N691 H711 0.862 . S
C692 C687 1.501 . S
C692 H693 0.961 . S
C692 H694 0.961 . S
C692 H695 0.960 . S
H693 C692 0.961 . S
H694 C692 0.961 . S
H695 C692 0.960 . S
C696 N697 1.342 1_556 S
C696 C700 1.401 . S
C696 C701 1.499 . S
N697 Co680 1.989 . S
N697 C696 1.342 1_554 S
N697 N698 1.388 . S
N698 Co681 1.993 . S
N698 N697 1.388 . S
N698 C699 1.346 . S
C699 N698 1.346 . S
C699 C700 1.396 1_554 S
C699 C709 1.510 . S
C700 C696 1.401 . S
C700 C699 1.396 1_556 S
C701 C696 1.499 . S
C701 H702 0.959 . S
C701 H703 0.960 . S
C701 H704 0.961 . S
H702 C701 0.959 . S
H703 C701 0.960 . S
H704 C701 0.961 . S
O705 Co680 1.967 . S
O705 C713 1.258 . S
O706 Co681 1.941 . S
O706 C713 1.266 . S
H707 C709 0.959 . S
H708 C709 0.961 . S
C709 C699 1.510 . S
C709 H707 0.959 . S
C709 H708 0.961 . S
C709 H710 0.960 . S
H710 C709 0.960 . S
H711 N691 0.862 . S
O712 Co680 1.920 1_556 S
O712 C685 1.289 . S
C713 O705 1.258 . S
C713 O706 1.266 . S
Co714 O717 2.001 . S
Co714 N731 1.989 . S
Co714 O739 1.967 . S
Co714 O746 1.920 . S
Co715 O718 1.966 . S
Co715 N724 2.022 . S
Co715 N732 1.993 1_556 S
Co715 O740 1.941 . S
C716 O717 1.223 1_556 S
C716 O718 1.263 . S
O717 Co714 2.001 . S
O717 C716 1.223 1_554 S
O718 Co715 1.966 . S
O718 C716 1.263 . S
C719 O720 1.235 . S
C719 O746 1.289 . S
O720 C719 1.235 . S
C721 C723 1.400 . S
C721 N724 1.351 . S
C721 C726 1.501 . S
C722 C723 1.387 . S
C722 N725 1.341 . S
C723 C721 1.400 . S
C723 C722 1.387 . S
N724 Co715 2.022 . S
N724 C721 1.351 . S
N724 N725 1.365 . S
N725 C722 1.341 . S
N725 N724 1.365 . S
N725 H745 0.862 . S
C726 C721 1.501 . S
C726 H727 0.961 . S
C726 H728 0.961 . S
C726 H729 0.960 . S
H727 C726 0.961 . S
H728 C726 0.961 . S
H729 C726 0.960 . S
C730 N731 1.342 . S
C730 C734 1.401 . S
C730 C735 1.499 . S
N731 Co714 1.989 . S
N731 C730 1.342 . S
N731 N732 1.388 . S
N732 Co715 1.993 1_554 S
N732 N731 1.388 . S
N732 C733 1.346 . S
C733 N732 1.346 . S
C733 C734 1.396 . S
C733 C743 1.510 . S
C734 C730 1.401 . S
C734 C733 1.396 . S
C735 C730 1.499 . S
C735 H736 0.959 . S
C735 H737 0.960 . S
C735 H738 0.961 . S
H736 C735 0.959 . S
H737 C735 0.960 . S
H738 C735 0.961 . S
O739 Co714 1.967 . S
O739 C747 1.258 . S
O740 Co715 1.941 . S
O740 C747 1.266 1_556 S
H741 C743 0.959 . S
H742 C743 0.961 . S
C743 C733 1.510 . S
C743 H741 0.959 . S
C743 H742 0.961 . S
C743 H744 0.960 1_554 S
H744 C743 0.960 1_556 S
H745 N725 0.862 . S
O746 Co714 1.920 . S
O746 C719 1.289 . S
C747 O739 1.258 . S
C747 O740 1.266 1_554 S
Co748 O751 2.000 . S
Co748 N765 1.989 . S
Co748 O773 1.967 . S
Co748 O780 1.920 . S
Co749 O752 1.966 . S
Co749 N758 2.022 . S
Co749 N766 1.993 1_556 S
Co749 O774 1.941 . S
C750 O751 1.223 1_556 S
C750 O752 1.263 . S
O751 Co748 2.000 . S
O751 C750 1.223 1_554 S
O752 Co749 1.966 . S
O752 C750 1.263 . S
C753 O754 1.235 . S
C753 O780 1.289 . S
O754 C753 1.235 . S
C755 C757 1.400 . S
C755 N758 1.351 . S
C755 C760 1.501 . S
C756 C757 1.387 . S
C756 N759 1.341 . S
C757 C755 1.400 . S
C757 C756 1.387 . S
N758 Co749 2.022 . S
N758 C755 1.351 . S
N758 N759 1.365 . S
N759 C756 1.341 . S
N759 N758 1.365 . S
N759 H779 0.862 . S
C760 C755 1.501 . S
C760 H761 0.961 . S
C760 H762 0.961 . S
C760 H763 0.960 . S
H761 C760 0.961 . S
H762 C760 0.961 . S
H763 C760 0.960 . S
C764 N765 1.342 . S
C764 C768 1.401 . S
C764 C769 1.499 . S
N765 Co748 1.989 . S
N765 C764 1.342 . S
N765 N766 1.388 . S
N766 Co749 1.993 1_554 S
N766 N765 1.388 . S
N766 C767 1.346 . S
C767 N766 1.346 . S
C767 C768 1.396 . S
C767 C777 1.510 . S
C768 C764 1.401 . S
C768 C767 1.396 . S
C769 C764 1.499 . S
C769 H770 0.959 . S
C769 H771 0.960 . S
C769 H772 0.961 . S
H770 C769 0.959 . S
H771 C769 0.960 . S
H772 C769 0.961 . S
O773 Co748 1.967 . S
O773 C781 1.258 . S
O774 Co749 1.941 . S
O774 C781 1.266 1_556 S
H775 C777 0.959 . S
H776 C777 0.961 . S
C777 C767 1.510 . S
C777 H775 0.959 . S
C777 H776 0.961 . S
C777 H778 0.960 1_554 S
H778 C777 0.960 1_556 S
H779 N759 0.862 . S
O780 Co748 1.920 . S
O780 C753 1.289 . S
C781 O773 1.258 . S
C781 O774 1.266 1_554 S
Co782 O785 2.001 . S
Co782 N799 1.989 . S
Co782 O807 1.967 . S
Co782 O814 1.920 . S
Co783 O786 1.966 . S
Co783 N792 2.022 . S
Co783 N800 1.993 1_556 S
Co783 O808 1.941 . S
C784 O785 1.223 1_556 S
C784 O786 1.263 . S
O785 Co782 2.001 . S
O785 C784 1.223 1_554 S
O786 Co783 1.966 . S
O786 C784 1.263 . S
C787 O788 1.235 . S
C787 O814 1.289 . S
O788 C787 1.235 . S
C789 C791 1.400 . S
C789 N792 1.351 . S
C789 C794 1.501 . S
C790 C791 1.387 . S
C790 N793 1.341 . S
C791 C789 1.400 . S
C791 C790 1.387 . S
N792 Co783 2.022 . S
N792 C789 1.351 . S
N792 N793 1.365 . S
N793 C790 1.341 . S
N793 N792 1.365 . S
N793 H813 0.862 . S
C794 C789 1.501 . S
C794 H795 0.961 . S
C794 H796 0.961 . S
C794 H797 0.960 . S
H795 C794 0.961 . S
H796 C794 0.961 . S
H797 C794 0.960 . S
C798 N799 1.342 . S
C798 C802 1.401 . S
C798 C803 1.499 . S
N799 Co782 1.989 . S
N799 C798 1.342 . S
N799 N800 1.388 . S
N800 Co783 1.993 1_554 S
N800 N799 1.388 . S
N800 C801 1.346 . S
C801 N800 1.346 . S
C801 C802 1.396 . S
C801 C811 1.510 . S
C802 C798 1.401 . S
C802 C801 1.396 . S
C803 C798 1.499 . S
C803 H804 0.959 . S
C803 H805 0.960 . S
C803 H806 0.961 . S
H804 C803 0.959 . S
H805 C803 0.960 . S
H806 C803 0.961 . S
O807 Co782 1.967 . S
O807 C815 1.258 . S
O808 Co783 1.941 . S
O808 C815 1.266 1_556 S
H809 C811 0.959 . S
H810 C811 0.961 . S
C811 C801 1.510 . S
C811 H809 0.959 . S
C811 H810 0.961 . S
C811 H812 0.960 1_554 S
H812 C811 0.960 1_556 S
H813 N793 0.862 . S
O814 Co782 1.920 . S
O814 C787 1.289 . S
C815 O807 1.258 . S
C815 O808 1.266 1_554 S
Co816 O819 1.970 . S
Co816 N833 1.989 . S
Co816 O841 1.967 . S
Co816 O848 1.920 . S
Co817 O820 1.966 . S
Co817 N826 2.022 . S
Co817 N834 1.993 . S
Co817 O842 1.941 . S
C818 O819 1.258 . S
C818 O820 1.263 . S
O819 Co816 1.970 . S
O819 C818 1.258 . S
O820 Co817 1.966 . S
O820 C818 1.263 . S
C821 O822 1.235 . S
C821 O848 1.289 . S
O822 C821 1.235 . S
C823 C825 1.400 . S
C823 N826 1.351 . S
C823 C828 1.501 . S
C824 C825 1.387 . S
C824 N827 1.341 . S
C825 C823 1.400 . S
C825 C824 1.387 . S
N826 Co817 2.022 . S
N826 C823 1.351 . S
N826 N827 1.365 . S
N827 C824 1.341 . S
N827 N826 1.365 . S
N827 H847 0.862 . S
C828 C823 1.501 . S
C828 H829 0.961 . S
C828 H830 0.961 . S
C828 H831 0.960 . S
H829 C828 0.961 . S
H830 C828 0.961 . S
H831 C828 0.960 . S
C832 N833 1.342 . S
C832 C836 1.401 . S
C832 C837 1.499 . S
N833 Co816 1.989 . S
N833 C832 1.342 . S
N833 N834 1.388 . S
N834 Co817 1.993 . S
N834 N833 1.388 . S
N834 C835 1.346 . S
C835 N834 1.346 . S
C835 C836 1.396 . S
C835 C845 1.510 . S
C836 C832 1.401 . S
C836 C835 1.396 . S
C837 C832 1.499 . S
C837 H838 0.959 . S
C837 H839 0.960 . S
C837 H840 0.961 . S
H838 C837 0.959 . S
H839 C837 0.960 . S
H840 C837 0.961 . S
O841 Co816 1.967 . S
O841 C849 1.258 . S
O842 Co817 1.941 . S
O842 C849 1.266 . S
H843 C845 0.959 . S
H844 C845 0.961 . S
C845 C835 1.510 . S
C845 H843 0.959 . S
C845 H844 0.961 . S
C845 H846 0.960 . S
H846 C845 0.960 . S
H847 N827 0.862 . S
O848 Co816 1.920 . S
O848 C821 1.289 . S
C849 O841 1.258 . S
C849 O842 1.266 . S
Co850 O853 1.970 . S
Co850 N867 1.989 . S
Co850 O875 1.967 . S
Co850 O882 1.920 . S
Co851 O854 1.966 . S
Co851 N860 2.022 . S
Co851 N868 1.993 . S
Co851 O876 1.941 . S
C852 O853 1.258 . S
C852 O854 1.263 . S
O853 Co850 1.970 . S
O853 C852 1.258 . S
O854 Co851 1.966 . S
O854 C852 1.263 . S
C855 O856 1.235 . S
C855 O882 1.289 . S
O856 C855 1.235 . S
C857 C859 1.400 . S
C857 N860 1.351 . S
C857 C862 1.501 . S
C858 C859 1.387 . S
C858 N861 1.341 . S
C859 C857 1.400 . S
C859 C858 1.387 . S
N860 Co851 2.022 . S
N860 C857 1.351 . S
N860 N861 1.365 . S
N861 C858 1.341 . S
N861 N860 1.365 . S
N861 H881 0.862 . S
C862 C857 1.501 . S
C862 H863 0.961 . S
C862 H864 0.961 . S
C862 H865 0.960 . S
H863 C862 0.961 . S
H864 C862 0.961 . S
H865 C862 0.960 . S
C866 N867 1.342 . S
C866 C870 1.401 . S
C866 C871 1.499 . S
N867 Co850 1.989 . S
N867 C866 1.342 . S
N867 N868 1.388 . S
N868 Co851 1.993 . S
N868 N867 1.388 . S
N868 C869 1.346 . S
C869 N868 1.346 . S
C869 C870 1.396 . S
C869 C879 1.510 . S
C870 C866 1.401 . S
C870 C869 1.396 . S
C871 C866 1.499 . S
C871 H872 0.959 . S
C871 H873 0.960 . S
C871 H874 0.961 . S
H872 C871 0.959 . S
H873 C871 0.960 . S
H874 C871 0.961 . S
O875 Co850 1.967 . S
O875 C883 1.258 . S
O876 Co851 1.941 . S
O876 C883 1.266 . S
H877 C879 0.959 . S
H878 C879 0.961 . S
C879 C869 1.510 . S
C879 H877 0.959 . S
C879 H878 0.961 . S
C879 H880 0.960 . S
H880 C879 0.960 . S
H881 N861 0.862 . S
O882 Co850 1.920 . S
O882 C855 1.289 . S
C883 O875 1.258 . S
C883 O876 1.266 . S
Co884 O887 1.970 . S
Co884 N901 1.989 . S
Co884 O909 1.967 . S
Co884 O916 1.920 . S
Co885 O888 1.966 . S
Co885 N894 2.022 . S
Co885 N902 1.993 . S
Co885 O910 1.941 . S
C886 O887 1.258 . S
C886 O888 1.263 . S
O887 Co884 1.970 . S
O887 C886 1.258 . S
O888 Co885 1.966 . S
O888 C886 1.263 . S
C889 O890 1.235 . S
C889 O916 1.289 . S
O890 C889 1.235 . S
C891 C893 1.400 . S
C891 N894 1.351 . S
C891 C896 1.501 . S
C892 C893 1.387 . S
C892 N895 1.341 . S
C893 C891 1.400 . S
C893 C892 1.387 . S
N894 Co885 2.022 . S
N894 C891 1.351 . S
N894 N895 1.365 . S
N895 C892 1.341 . S
N895 N894 1.365 . S
N895 H915 0.862 . S
C896 C891 1.501 . S
C896 H897 0.961 . S
C896 H898 0.961 . S
C896 H899 0.960 . S
H897 C896 0.961 . S
H898 C896 0.961 . S
H899 C896 0.960 . S
C900 N901 1.342 . S
C900 C904 1.401 . S
C900 C905 1.499 . S
N901 Co884 1.989 . S
N901 C900 1.342 . S
N901 N902 1.388 . S
N902 Co885 1.993 . S
N902 N901 1.388 . S
N902 C903 1.346 . S
C903 N902 1.346 . S
C903 C904 1.396 . S
C903 C913 1.510 . S
C904 C900 1.401 . S
C904 C903 1.396 . S
C905 C900 1.499 . S
C905 H906 0.959 . S
C905 H907 0.960 . S
C905 H908 0.961 . S
H906 C905 0.959 . S
H907 C905 0.960 . S
H908 C905 0.961 . S
O909 Co884 1.967 . S
O909 C917 1.258 . S
O910 Co885 1.941 . S
O910 C917 1.266 . S
H911 C913 0.959 . S
H912 C913 0.961 . S
C913 C903 1.510 . S
C913 H911 0.959 . S
C913 H912 0.961 . S
C913 H914 0.960 . S
H914 C913 0.960 . S
H915 N895 0.862 . S
O916 Co884 1.920 . S
O916 C889 1.289 . S
C917 O909 1.258 . S
C917 O910 1.266 . S
Co918 O921 1.970 . S
Co918 N935 1.989 . S
Co918 O943 1.967 . S
Co918 O950 1.920 . S
Co919 O922 1.966 . S
Co919 N928 2.022 . S
Co919 N936 1.993 . S
Co919 O944 1.941 . S
C920 O921 1.258 . S
C920 O922 1.263 . S
O921 Co918 1.970 . S
O921 C920 1.258 . S
O922 Co919 1.966 . S
O922 C920 1.263 . S
C923 O924 1.235 . S
C923 O950 1.289 . S
O924 C923 1.235 . S
C925 C927 1.400 . S
C925 N928 1.351 . S
C925 C930 1.501 . S
C926 C927 1.387 . S
C926 N929 1.341 . S
C927 C925 1.400 . S
C927 C926 1.387 . S
N928 Co919 2.022 . S
N928 C925 1.351 . S
N928 N929 1.365 . S
N929 C926 1.341 . S
N929 N928 1.365 . S
N929 H949 0.862 . S
C930 C925 1.501 . S
C930 H931 0.961 . S
C930 H932 0.961 . S
C930 H933 0.960 . S
H931 C930 0.961 . S
H932 C930 0.961 . S
H933 C930 0.960 . S
C934 N935 1.342 . S
C934 C938 1.401 . S
C934 C939 1.499 . S
N935 Co918 1.989 . S
N935 C934 1.342 . S
N935 N936 1.388 . S
N936 Co919 1.993 . S
N936 N935 1.388 . S
N936 C937 1.346 . S
C937 N936 1.346 . S
C937 C938 1.396 . S
C937 C947 1.510 . S
C938 C934 1.401 . S
C938 C937 1.396 . S
C939 C934 1.499 . S
C939 H940 0.959 . S
C939 H941 0.960 . S
C939 H942 0.961 . S
H940 C939 0.959 . S
H941 C939 0.960 . S
H942 C939 0.961 . S
O943 Co918 1.967 . S
O943 C951 1.258 . S
O944 Co919 1.941 . S
O944 C951 1.266 . S
H945 C947 0.959 . S
H946 C947 0.961 . S
C947 C937 1.510 . S
C947 H945 0.959 . S
C947 H946 0.961 . S
C947 H948 0.960 . S
H948 C947 0.960 . S
H949 N929 0.862 . S
O950 Co918 1.920 . S
O950 C923 1.289 . S
C951 O943 1.258 . S
C951 O944 1.266 . S
Co952 O955 1.970 . S
Co952 N969 1.989 . S
Co952 O977 1.967 . S
Co952 O984 1.920 . S
Co953 O956 1.966 . S
Co953 N962 2.022 . S
Co953 N970 1.993 . S
Co953 O978 1.941 . S
C954 O955 1.258 . S
C954 O956 1.263 . S
O955 Co952 1.970 . S
O955 C954 1.258 . S
O956 Co953 1.966 . S
O956 C954 1.263 . S
C957 O958 1.235 . S
C957 O984 1.289 . S
O958 C957 1.235 . S
C959 C961 1.400 . S
C959 N962 1.351 . S
C959 C964 1.501 . S
C960 C961 1.387 . S
C960 N963 1.341 . S
C961 C959 1.400 . S
C961 C960 1.387 . S
N962 Co953 2.022 . S
N962 C959 1.351 . S
N962 N963 1.365 . S
N963 C960 1.341 . S
N963 N962 1.365 . S
N963 H983 0.862 . S
C964 C959 1.501 . S
C964 H965 0.961 . S
C964 H966 0.961 . S
C964 H967 0.960 . S
H965 C964 0.961 . S
H966 C964 0.961 . S
H967 C964 0.960 . S
C968 N969 1.342 . S
C968 C972 1.401 . S
C968 C973 1.499 . S
N969 Co952 1.989 . S
N969 C968 1.342 . S
N969 N970 1.388 . S
N970 Co953 1.993 . S
N970 N969 1.388 . S
N970 C971 1.346 . S
C971 N970 1.346 . S
C971 C972 1.396 . S
C971 C981 1.510 . S
C972 C968 1.401 . S
C972 C971 1.396 . S
C973 C968 1.499 . S
C973 H974 0.959 . S
C973 H975 0.960 . S
C973 H976 0.961 . S
H974 C973 0.959 . S
H975 C973 0.960 . S
H976 C973 0.961 . S
O977 Co952 1.967 . S
O977 C985 1.258 . S
O978 Co953 1.941 . S
O978 C985 1.266 . S
H979 C981 0.959 . S
H980 C981 0.961 . S
C981 C971 1.510 . S
C981 H979 0.959 . S
C981 H980 0.961 . S
C981 H982 0.960 . S
H982 C981 0.960 . S
H983 N963 0.862 . S
O984 Co952 1.920 . S
O984 C957 1.289 . S
C985 O977 1.258 . S
C985 O978 1.266 . S
Co986 O989 1.970 . S
Co986 N1003 1.989 . S
Co986 O1011 1.967 . S
Co986 O1018 1.920 . S
Co987 O990 1.966 . S
Co987 N996 2.022 . S
Co987 N1004 1.993 . S
Co987 O1012 1.941 . S
C988 O989 1.258 . S
C988 O990 1.263 . S
O989 Co986 1.970 . S
O989 C988 1.258 . S
O990 Co987 1.966 . S
O990 C988 1.263 . S
C991 O992 1.235 . S
C991 O1018 1.289 . S
O992 C991 1.235 . S
C993 C995 1.400 . S
C993 N996 1.351 . S
C993 C998 1.501 . S
C994 C995 1.387 . S
C994 N997 1.341 . S
C995 C993 1.400 . S
C995 C994 1.387 . S
N996 Co987 2.022 . S
N996 C993 1.351 . S
N996 N997 1.365 . S
N997 C994 1.341 . S
N997 N996 1.365 . S
N997 H1017 0.862 . S
C998 C993 1.501 . S
C998 H999 0.961 . S
C998 H1000 0.961 . S
C998 H1001 0.960 . S
H999 C998 0.961 . S
H1000 C998 0.961 . S
H1001 C998 0.960 . S
C1002 N1003 1.342 . S
C1002 C1006 1.401 . S
C1002 C1007 1.499 . S
N1003 Co986 1.989 . S
N1003 C1002 1.342 . S
N1003 N1004 1.388 . S
N1004 Co987 1.993 . S
N1004 N1003 1.388 . S
N1004 C1005 1.346 . S
C1005 N1004 1.346 . S
C1005 C1006 1.396 . S
C1005 C1015 1.510 . S
C1006 C1002 1.401 . S
C1006 C1005 1.396 . S
C1007 C1002 1.499 . S
C1007 H1008 0.959 . S
C1007 H1009 0.960 . S
C1007 H1010 0.961 . S
H1008 C1007 0.959 . S
H1009 C1007 0.960 . S
H1010 C1007 0.961 . S
O1011 Co986 1.967 . S
O1011 C1019 1.258 . S
O1012 Co987 1.941 . S
O1012 C1019 1.266 . S
H1013 C1015 0.959 . S
H1014 C1015 0.961 . S
C1015 C1005 1.510 . S
C1015 H1013 0.959 . S
C1015 H1014 0.961 . S
C1015 H1016 0.960 . S
H1016 C1015 0.960 . S
H1017 N997 0.862 . S
O1018 Co986 1.920 . S
O1018 C991 1.289 . S
C1019 O1011 1.258 . S
C1019 O1012 1.266 . S
Co1020 O1023 1.970 . S
Co1020 N1037 1.989 . S
Co1020 O1045 1.967 . S
Co1020 O1052 1.920 . S
Co1021 O1024 1.966 . S
Co1021 N1030 2.022 . S
Co1021 N1038 1.993 . S
Co1021 O1046 1.941 . S
C1022 O1023 1.258 . S
C1022 O1024 1.263 . S
O1023 Co1020 1.970 . S
O1023 C1022 1.258 . S
O1024 Co1021 1.966 . S
O1024 C1022 1.263 . S
C1025 O1026 1.235 . S
C1025 O1052 1.289 . S
O1026 C1025 1.235 . S
C1027 C1029 1.400 . S
C1027 N1030 1.351 . S
C1027 C1032 1.501 . S
C1028 C1029 1.387 . S
C1028 N1031 1.341 . S
C1029 C1027 1.400 . S
C1029 C1028 1.387 . S
N1030 Co1021 2.022 . S
N1030 C1027 1.351 . S
N1030 N1031 1.365 . S
N1031 C1028 1.341 . S
N1031 N1030 1.365 . S
N1031 H1051 0.862 . S
C1032 C1027 1.501 . S
C1032 H1033 0.961 . S
C1032 H1034 0.961 . S
C1032 H1035 0.960 . S
H1033 C1032 0.961 . S
H1034 C1032 0.961 . S
H1035 C1032 0.960 . S
C1036 N1037 1.342 . S
C1036 C1040 1.401 . S
C1036 C1041 1.499 . S
N1037 Co1020 1.989 . S
N1037 C1036 1.342 . S
N1037 N1038 1.388 . S
N1038 Co1021 1.993 . S
N1038 N1037 1.388 . S
N1038 C1039 1.346 . S
C1039 N1038 1.346 . S
C1039 C1040 1.396 . S
C1039 C1049 1.510 . S
C1040 C1036 1.401 . S
C1040 C1039 1.396 . S
C1041 C1036 1.499 . S
C1041 H1042 0.959 . S
C1041 H1043 0.960 . S
C1041 H1044 0.961 . S
H1042 C1041 0.959 . S
H1043 C1041 0.960 . S
H1044 C1041 0.961 . S
O1045 Co1020 1.967 . S
O1045 C1053 1.258 . S
O1046 Co1021 1.941 . S
O1046 C1053 1.266 . S
H1047 C1049 0.959 . S
H1048 C1049 0.961 . S
C1049 C1039 1.510 . S
C1049 H1047 0.959 . S
C1049 H1048 0.961 . S
C1049 H1050 0.960 . S
H1050 C1049 0.960 . S
H1051 N1031 0.862 . S
O1052 Co1020 1.920 . S
O1052 C1025 1.289 . S
C1053 O1045 1.258 . S
C1053 O1046 1.266 . S
Co1054 O1057 1.970 . S
Co1054 N1071 1.989 . S
Co1054 O1079 1.967 . S
Co1054 O1086 1.920 . S
Co1055 O1058 1.966 . S
Co1055 N1064 2.022 . S
Co1055 N1072 1.993 . S
Co1055 O1080 1.941 . S
C1056 O1057 1.258 . S
C1056 O1058 1.263 . S
O1057 Co1054 1.970 . S
O1057 C1056 1.258 . S
O1058 Co1055 1.966 . S
O1058 C1056 1.263 . S
C1059 O1060 1.235 . S
C1059 O1086 1.289 . S
O1060 C1059 1.235 . S
C1061 C1063 1.400 . S
C1061 N1064 1.351 . S
C1061 C1066 1.501 . S
C1062 C1063 1.387 . S
C1062 N1065 1.341 . S
C1063 C1061 1.400 . S
C1063 C1062 1.387 . S
N1064 Co1055 2.022 . S
N1064 C1061 1.351 . S
N1064 N1065 1.365 . S
N1065 C1062 1.341 . S
N1065 N1064 1.365 . S
N1065 H1085 0.862 . S
C1066 C1061 1.501 . S
C1066 H1067 0.961 . S
C1066 H1068 0.961 . S
C1066 H1069 0.960 . S
H1067 C1066 0.961 . S
H1068 C1066 0.961 . S
H1069 C1066 0.960 . S
C1070 N1071 1.342 . S
C1070 C1074 1.401 . S
C1070 C1075 1.499 . S
N1071 Co1054 1.989 . S
N1071 C1070 1.342 . S
N1071 N1072 1.388 . S
N1072 Co1055 1.993 . S
N1072 N1071 1.388 . S
N1072 C1073 1.346 . S
C1073 N1072 1.346 . S
C1073 C1074 1.396 . S
C1073 C1083 1.510 . S
C1074 C1070 1.401 . S
C1074 C1073 1.396 . S
C1075 C1070 1.499 . S
C1075 H1076 0.959 . S
C1075 H1077 0.960 . S
C1075 H1078 0.961 . S
H1076 C1075 0.959 . S
H1077 C1075 0.960 . S
H1078 C1075 0.961 . S
O1079 Co1054 1.967 . S
O1079 C1087 1.258 . S
O1080 Co1055 1.941 . S
O1080 C1087 1.266 . S
H1081 C1083 0.959 . S
H1082 C1083 0.961 . S
C1083 C1073 1.510 . S
C1083 H1081 0.959 . S
C1083 H1082 0.961 . S
C1083 H1084 0.960 . S
H1084 C1083 0.960 . S
H1085 N1065 0.862 . S
O1086 Co1054 1.920 . S
O1086 C1059 1.289 . S
C1087 O1079 1.258 . S
C1087 O1080 1.266 . S
Co1088 O1091 1.970 . S
Co1088 N1105 1.989 . S
Co1088 O1113 1.967 . S
Co1088 O1120 1.920 . S
Co1089 O1092 1.966 . S
Co1089 N1098 2.022 . S
Co1089 N1106 1.993 . S
Co1089 O1114 1.941 . S
C1090 O1091 1.258 . S
C1090 O1092 1.263 . S
O1091 Co1088 1.970 . S
O1091 C1090 1.258 . S
O1092 Co1089 1.966 . S
O1092 C1090 1.263 . S
C1093 O1094 1.235 . S
C1093 O1120 1.289 . S
O1094 C1093 1.235 . S
C1095 C1097 1.400 . S
C1095 N1098 1.351 . S
C1095 C1100 1.501 . S
C1096 C1097 1.387 . S
C1096 N1099 1.341 . S
C1097 C1095 1.400 . S
C1097 C1096 1.387 . S
N1098 Co1089 2.022 . S
N1098 C1095 1.351 . S
N1098 N1099 1.365 . S
N1099 C1096 1.341 . S
N1099 N1098 1.365 . S
N1099 H1119 0.862 . S
C1100 C1095 1.501 . S
C1100 H1101 0.961 . S
C1100 H1102 0.961 . S
C1100 H1103 0.960 . S
H1101 C1100 0.961 . S
H1102 C1100 0.961 . S
H1103 C1100 0.960 . S
C1104 N1105 1.342 . S
C1104 C1108 1.401 . S
C1104 C1109 1.499 . S
N1105 Co1088 1.989 . S
N1105 C1104 1.342 . S
N1105 N1106 1.388 . S
N1106 Co1089 1.993 . S
N1106 N1105 1.388 . S
N1106 C1107 1.346 . S
C1107 N1106 1.346 . S
C1107 C1108 1.396 . S
C1107 C1117 1.510 . S
C1108 C1104 1.401 . S
C1108 C1107 1.396 . S
C1109 C1104 1.499 . S
C1109 H1110 0.959 . S
C1109 H1111 0.960 . S
C1109 H1112 0.961 . S
H1110 C1109 0.959 . S
H1111 C1109 0.960 . S
H1112 C1109 0.961 . S
O1113 Co1088 1.967 . S
O1113 C1121 1.258 . S
O1114 Co1089 1.941 . S
O1114 C1121 1.266 . S
H1115 C1117 0.959 . S
H1116 C1117 0.961 . S
C1117 C1107 1.510 . S
C1117 H1115 0.959 . S
C1117 H1116 0.961 . S
C1117 H1118 0.960 . S
H1118 C1117 0.960 . S
H1119 N1099 0.862 . S
O1120 Co1088 1.920 . S
O1120 C1093 1.289 . S
C1121 O1113 1.258 . S
C1121 O1114 1.266 . S
Co1122 O1125 1.970 . S
Co1122 N1139 1.989 . S
Co1122 O1147 1.967 . S
Co1122 O1154 1.920 . S
Co1123 O1126 1.966 . S
Co1123 N1132 2.022 . S
Co1123 N1140 1.993 . S
Co1123 O1148 1.941 . S
C1124 O1125 1.258 . S
C1124 O1126 1.263 . S
O1125 Co1122 1.970 . S
O1125 C1124 1.258 . S
O1126 Co1123 1.966 . S
O1126 C1124 1.263 . S
C1127 O1128 1.235 . S
C1127 O1154 1.289 . S
O1128 C1127 1.235 . S
C1129 C1131 1.400 . S
C1129 N1132 1.351 . S
C1129 C1134 1.501 . S
C1130 C1131 1.387 . S
C1130 N1133 1.341 . S
C1131 C1129 1.400 . S
C1131 C1130 1.387 . S
N1132 Co1123 2.022 . S
N1132 C1129 1.351 . S
N1132 N1133 1.365 . S
N1133 C1130 1.341 . S
N1133 N1132 1.365 . S
N1133 H1153 0.862 . S
C1134 C1129 1.501 . S
C1134 H1135 0.961 . S
C1134 H1136 0.961 . S
C1134 H1137 0.960 . S
H1135 C1134 0.961 . S
H1136 C1134 0.961 . S
H1137 C1134 0.960 . S
C1138 N1139 1.342 . S
C1138 C1142 1.401 . S
C1138 C1143 1.499 . S
N1139 Co1122 1.989 . S
N1139 C1138 1.342 . S
N1139 N1140 1.388 . S
N1140 Co1123 1.993 . S
N1140 N1139 1.388 . S
N1140 C1141 1.346 . S
C1141 N1140 1.346 . S
C1141 C1142 1.396 . S
C1141 C1151 1.510 . S
C1142 C1138 1.401 . S
C1142 C1141 1.396 . S
C1143 C1138 1.499 . S
C1143 H1144 0.959 . S
C1143 H1145 0.960 . S
C1143 H1146 0.961 . S
H1144 C1143 0.959 . S
H1145 C1143 0.960 . S
H1146 C1143 0.961 . S
O1147 Co1122 1.967 . S
O1147 C1155 1.258 . S
O1148 Co1123 1.941 . S
O1148 C1155 1.266 . S
H1149 C1151 0.959 . S
H1150 C1151 0.961 . S
C1151 C1141 1.510 . S
C1151 H1149 0.959 . S
C1151 H1150 0.961 . S
C1151 H1152 0.960 . S
H1152 C1151 0.960 . S
H1153 N1133 0.862 . S
O1154 Co1122 1.920 . S
O1154 C1127 1.289 . S
C1155 O1147 1.258 . S
C1155 O1148 1.266 . S
Co1156 O1159 1.970 . S
Co1156 N1173 1.989 . S
Co1156 O1181 1.967 . S
Co1156 O1188 1.920 . S
Co1157 O1160 1.966 . S
Co1157 N1166 2.022 . S
Co1157 N1174 1.993 . S
Co1157 O1182 1.941 . S
C1158 O1159 1.258 . S
C1158 O1160 1.263 . S
O1159 Co1156 1.970 . S
O1159 C1158 1.258 . S
O1160 Co1157 1.966 . S
O1160 C1158 1.263 . S
C1161 O1162 1.235 . S
C1161 O1188 1.289 . S
O1162 C1161 1.235 . S
C1163 C1165 1.400 . S
C1163 N1166 1.351 . S
C1163 C1168 1.501 . S
C1164 C1165 1.387 . S
C1164 N1167 1.341 . S
C1165 C1163 1.400 . S
C1165 C1164 1.387 . S
N1166 Co1157 2.022 . S
N1166 C1163 1.351 . S
N1166 N1167 1.365 . S
N1167 C1164 1.341 . S
N1167 N1166 1.365 . S
N1167 H1187 0.862 . S
C1168 C1163 1.501 . S
C1168 H1169 0.961 . S
C1168 H1170 0.961 . S
C1168 H1171 0.960 . S
H1169 C1168 0.961 . S
H1170 C1168 0.961 . S
H1171 C1168 0.960 . S
C1172 N1173 1.342 . S
C1172 C1176 1.401 . S
C1172 C1177 1.499 . S
N1173 Co1156 1.989 . S
N1173 C1172 1.342 . S
N1173 N1174 1.388 . S
N1174 Co1157 1.993 . S
N1174 N1173 1.388 . S
N1174 C1175 1.346 . S
C1175 N1174 1.346 . S
C1175 C1176 1.396 . S
C1175 C1185 1.510 . S
C1176 C1172 1.401 . S
C1176 C1175 1.396 . S
C1177 C1172 1.499 . S
C1177 H1178 0.959 . S
C1177 H1179 0.960 . S
C1177 H1180 0.961 . S
H1178 C1177 0.959 . S
H1179 C1177 0.960 . S
H1180 C1177 0.961 . S
O1181 Co1156 1.967 . S
O1181 C1189 1.258 . S
O1182 Co1157 1.941 . S
O1182 C1189 1.266 . S
H1183 C1185 0.959 . S
H1184 C1185 0.961 . S
C1185 C1175 1.510 . S
C1185 H1183 0.959 . S
C1185 H1184 0.961 . S
C1185 H1186 0.960 . S
H1186 C1185 0.960 . S
H1187 N1167 0.862 . S
O1188 Co1156 1.920 . S
O1188 C1161 1.289 . S
C1189 O1181 1.258 . S
C1189 O1182 1.266 . S
Co1190 O1193 1.970 . S
Co1190 N1207 1.989 . S
Co1190 O1215 1.967 . S
Co1190 O1222 1.920 . S
Co1191 O1194 1.966 . S
Co1191 N1200 2.022 . S
Co1191 N1208 1.993 . S
Co1191 O1216 1.941 . S
C1192 O1193 1.258 . S
C1192 O1194 1.263 . S
O1193 Co1190 1.970 . S
O1193 C1192 1.258 . S
O1194 Co1191 1.966 . S
O1194 C1192 1.263 . S
C1195 O1196 1.235 . S
C1195 O1222 1.289 . S
O1196 C1195 1.235 . S
C1197 C1199 1.400 . S
C1197 N1200 1.351 . S
C1197 C1202 1.501 . S
C1198 C1199 1.387 . S
C1198 N1201 1.341 . S
C1199 C1197 1.400 . S
C1199 C1198 1.387 . S
N1200 Co1191 2.022 . S
N1200 C1197 1.351 . S
N1200 N1201 1.365 . S
N1201 C1198 1.341 . S
N1201 N1200 1.365 . S
N1201 H1221 0.862 . S
C1202 C1197 1.501 . S
C1202 H1203 0.961 . S
C1202 H1204 0.961 . S
C1202 H1205 0.960 . S
H1203 C1202 0.961 . S
H1204 C1202 0.961 . S
H1205 C1202 0.960 . S
C1206 N1207 1.342 . S
C1206 C1210 1.401 . S
C1206 C1211 1.499 . S
N1207 Co1190 1.989 . S
N1207 C1206 1.342 . S
N1207 N1208 1.388 . S
N1208 Co1191 1.993 . S
N1208 N1207 1.388 . S
N1208 C1209 1.346 . S
C1209 N1208 1.346 . S
C1209 C1210 1.396 . S
C1209 C1219 1.510 . S
C1210 C1206 1.401 . S
C1210 C1209 1.396 . S
C1211 C1206 1.499 . S
C1211 H1212 0.959 . S
C1211 H1213 0.960 . S
C1211 H1214 0.961 . S
H1212 C1211 0.959 . S
H1213 C1211 0.960 . S
H1214 C1211 0.961 . S
O1215 Co1190 1.967 . S
O1215 C1223 1.258 . S
O1216 Co1191 1.941 . S
O1216 C1223 1.266 . S
H1217 C1219 0.959 . S
H1218 C1219 0.961 . S
C1219 C1209 1.510 . S
C1219 H1217 0.959 . S
C1219 H1218 0.961 . S
C1219 H1220 0.960 . S
H1220 C1219 0.960 . S
H1221 N1201 0.862 . S
O1222 Co1190 1.920 . S
O1222 C1195 1.289 . S
C1223 O1215 1.258 . S
C1223 O1216 1.266 . S
Co1224 O1227 1.970 . S
Co1224 N1241 1.989 . S
Co1224 O1249 1.967 . S
Co1224 O1256 1.920 . S
Co1225 O1228 1.966 . S
Co1225 N1234 2.022 . S
Co1225 N1242 1.993 . S
Co1225 O1250 1.941 . S
C1226 O1227 1.258 . S
C1226 O1228 1.263 . S
O1227 Co1224 1.970 . S
O1227 C1226 1.258 . S
O1228 Co1225 1.966 . S
O1228 C1226 1.263 . S
C1229 O1230 1.235 . S
C1229 O1256 1.289 . S
O1230 C1229 1.235 . S
C1231 C1233 1.400 . S
C1231 N1234 1.351 . S
C1231 C1236 1.501 . S
C1232 C1233 1.387 . S
C1232 N1235 1.341 . S
C1233 C1231 1.400 . S
C1233 C1232 1.387 . S
N1234 Co1225 2.022 . S
N1234 C1231 1.351 . S
N1234 N1235 1.365 . S
N1235 C1232 1.341 . S
N1235 N1234 1.365 . S
N1235 H1255 0.862 . S
C1236 C1231 1.501 . S
C1236 H1237 0.961 . S
C1236 H1238 0.961 . S
C1236 H1239 0.960 . S
H1237 C1236 0.961 . S
H1238 C1236 0.961 . S
H1239 C1236 0.960 . S
C1240 N1241 1.342 . S
C1240 C1244 1.401 . S
C1240 C1245 1.499 . S
N1241 Co1224 1.989 . S
N1241 C1240 1.342 . S
N1241 N1242 1.388 . S
N1242 Co1225 1.993 . S
N1242 N1241 1.388 . S
N1242 C1243 1.346 . S
C1243 N1242 1.346 . S
C1243 C1244 1.396 . S
C1243 C1253 1.510 . S
C1244 C1240 1.401 . S
C1244 C1243 1.396 . S
C1245 C1240 1.499 . S
C1245 H1246 0.959 . S
C1245 H1247 0.960 . S
C1245 H1248 0.961 . S
H1246 C1245 0.959 . S
H1247 C1245 0.960 . S
H1248 C1245 0.961 . S
O1249 Co1224 1.967 . S
O1249 C1257 1.258 . S
O1250 Co1225 1.941 . S
O1250 C1257 1.266 . S
H1251 C1253 0.959 . S
H1252 C1253 0.961 . S
C1253 C1243 1.510 . S
C1253 H1251 0.959 . S
C1253 H1252 0.961 . S
C1253 H1254 0.960 . S
H1254 C1253 0.960 . S
H1255 N1235 0.862 . S
O1256 Co1224 1.920 . S
O1256 C1229 1.289 . S
C1257 O1249 1.258 . S
C1257 O1250 1.266 . S
Co1258 O1261 1.970 . S
Co1258 N1275 1.989 . S
Co1258 O1283 1.967 . S
Co1258 O1290 1.920 . S
Co1259 O1262 1.966 . S
Co1259 N1268 2.022 . S
Co1259 N1276 1.993 . S
Co1259 O1284 1.941 . S
C1260 O1261 1.258 . S
C1260 O1262 1.263 . S
O1261 Co1258 1.970 . S
O1261 C1260 1.258 . S
O1262 Co1259 1.966 . S
O1262 C1260 1.263 . S
C1263 O1264 1.235 . S
C1263 O1290 1.289 . S
O1264 C1263 1.235 . S
C1265 C1267 1.400 . S
C1265 N1268 1.351 . S
C1265 C1270 1.501 . S
C1266 C1267 1.387 . S
C1266 N1269 1.341 . S
C1267 C1265 1.400 . S
C1267 C1266 1.387 . S
N1268 Co1259 2.022 . S
N1268 C1265 1.351 . S
N1268 N1269 1.365 . S
N1269 C1266 1.341 . S
N1269 N1268 1.365 . S
N1269 H1289 0.862 . S
C1270 C1265 1.501 . S
C1270 H1271 0.961 . S
C1270 H1272 0.961 . S
C1270 H1273 0.960 . S
H1271 C1270 0.961 . S
H1272 C1270 0.961 . S
H1273 C1270 0.960 . S
C1274 N1275 1.342 . S
C1274 C1278 1.401 . S
C1274 C1279 1.499 . S
N1275 Co1258 1.989 . S
N1275 C1274 1.342 . S
N1275 N1276 1.388 . S
N1276 Co1259 1.993 . S
N1276 N1275 1.388 . S
N1276 C1277 1.346 . S
C1277 N1276 1.346 . S
C1277 C1278 1.396 . S
C1277 C1287 1.510 . S
C1278 C1274 1.401 . S
C1278 C1277 1.396 . S
C1279 C1274 1.499 . S
C1279 H1280 0.959 . S
C1279 H1281 0.960 . S
C1279 H1282 0.961 . S
H1280 C1279 0.959 . S
H1281 C1279 0.960 . S
H1282 C1279 0.961 . S
O1283 Co1258 1.967 . S
O1283 C1291 1.258 . S
O1284 Co1259 1.941 . S
O1284 C1291 1.266 . S
H1285 C1287 0.959 . S
H1286 C1287 0.961 . S
C1287 C1277 1.510 . S
C1287 H1285 0.959 . S
C1287 H1286 0.961 . S
C1287 H1288 0.960 . S
H1288 C1287 0.960 . S
H1289 N1269 0.862 . S
O1290 Co1258 1.920 . S
O1290 C1263 1.289 . S
C1291 O1283 1.258 . S
C1291 O1284 1.266 . S
Co1292 O1295 1.970 . S
Co1292 N1309 1.989 . S
Co1292 O1317 1.967 . S
Co1292 O1324 1.920 . S
Co1293 O1296 1.966 . S
Co1293 N1302 2.022 . S
Co1293 N1310 1.993 . S
Co1293 O1318 1.941 . S
C1294 O1295 1.258 . S
C1294 O1296 1.263 . S
O1295 Co1292 1.970 . S
O1295 C1294 1.258 . S
O1296 Co1293 1.966 . S
O1296 C1294 1.263 . S
C1297 O1298 1.235 . S
C1297 O1324 1.289 . S
O1298 C1297 1.235 . S
C1299 C1301 1.400 . S
C1299 N1302 1.351 . S
C1299 C1304 1.501 . S
C1300 C1301 1.387 . S
C1300 N1303 1.341 . S
C1301 C1299 1.400 . S
C1301 C1300 1.387 . S
N1302 Co1293 2.022 . S
N1302 C1299 1.351 . S
N1302 N1303 1.365 . S
N1303 C1300 1.341 . S
N1303 N1302 1.365 . S
N1303 H1323 0.862 . S
C1304 C1299 1.501 . S
C1304 H1305 0.961 . S
C1304 H1306 0.961 . S
C1304 H1307 0.960 . S
H1305 C1304 0.961 . S
H1306 C1304 0.961 . S
H1307 C1304 0.960 . S
C1308 N1309 1.342 . S
C1308 C1312 1.401 . S
C1308 C1313 1.499 . S
N1309 Co1292 1.989 . S
N1309 C1308 1.342 . S
N1309 N1310 1.388 . S
N1310 Co1293 1.993 . S
N1310 N1309 1.388 . S
N1310 C1311 1.346 . S
C1311 N1310 1.346 . S
C1311 C1312 1.396 . S
C1311 C1321 1.510 . S
C1312 C1308 1.401 . S
C1312 C1311 1.396 . S
C1313 C1308 1.499 . S
C1313 H1314 0.959 . S
C1313 H1315 0.960 . S
C1313 H1316 0.961 . S
H1314 C1313 0.959 . S
H1315 C1313 0.960 . S
H1316 C1313 0.961 . S
O1317 Co1292 1.967 . S
O1317 C1325 1.258 . S
O1318 Co1293 1.941 . S
O1318 C1325 1.266 . S
H1319 C1321 0.959 . S
H1320 C1321 0.961 . S
C1321 C1311 1.510 . S
C1321 H1319 0.959 . S
C1321 H1320 0.961 . S
C1321 H1322 0.960 . S
H1322 C1321 0.960 . S
H1323 N1303 0.862 . S
O1324 Co1292 1.920 . S
O1324 C1297 1.289 . S
C1325 O1317 1.258 . S
C1325 O1318 1.266 . S
Co1326 O1329 1.970 . S
Co1326 N1343 1.989 . S
Co1326 O1351 1.967 . S
Co1326 O1358 1.920 . S
Co1327 O1330 1.966 . S
Co1327 N1336 2.022 . S
Co1327 N1344 1.993 . S
Co1327 O1352 1.941 . S
C1328 O1329 1.258 . S
C1328 O1330 1.263 . S
O1329 Co1326 1.970 . S
O1329 C1328 1.258 . S
O1330 Co1327 1.966 . S
O1330 C1328 1.263 . S
C1331 O1332 1.235 . S
C1331 O1358 1.289 . S
O1332 C1331 1.235 . S
C1333 C1335 1.400 . S
C1333 N1336 1.351 . S
C1333 C1338 1.501 . S
C1334 C1335 1.387 . S
C1334 N1337 1.341 . S
C1335 C1333 1.400 . S
C1335 C1334 1.387 . S
N1336 Co1327 2.022 . S
N1336 C1333 1.351 . S
N1336 N1337 1.365 . S
N1337 C1334 1.341 . S
N1337 N1336 1.365 . S
N1337 H1357 0.862 . S
C1338 C1333 1.501 . S
C1338 H1339 0.961 . S
C1338 H1340 0.961 . S
C1338 H1341 0.960 . S
H1339 C1338 0.961 . S
H1340 C1338 0.961 . S
H1341 C1338 0.960 . S
C1342 N1343 1.342 . S
C1342 C1346 1.401 . S
C1342 C1347 1.499 . S
N1343 Co1326 1.989 . S
N1343 C1342 1.342 . S
N1343 N1344 1.388 . S
N1344 Co1327 1.993 . S
N1344 N1343 1.388 . S
N1344 C1345 1.346 . S
C1345 N1344 1.346 . S
C1345 C1346 1.396 . S
C1345 C1355 1.510 . S
C1346 C1342 1.401 . S
C1346 C1345 1.396 . S
C1347 C1342 1.499 . S
C1347 H1348 0.959 . S
C1347 H1349 0.960 . S
C1347 H1350 0.961 . S
H1348 C1347 0.959 . S
H1349 C1347 0.960 . S
H1350 C1347 0.961 . S
O1351 Co1326 1.967 . S
O1351 C1359 1.258 . S
O1352 Co1327 1.941 . S
O1352 C1359 1.266 . S
H1353 C1355 0.959 . S
H1354 C1355 0.961 . S
C1355 C1345 1.510 . S
C1355 H1353 0.959 . S
C1355 H1354 0.961 . S
C1355 H1356 0.960 . S
H1356 C1355 0.960 . S
H1357 N1337 0.862 . S
O1358 Co1326 1.920 . S
O1358 C1331 1.289 . S
C1359 O1351 1.258 . S
C1359 O1352 1.266 . S
Co1360 O1363 1.970 . S
Co1360 N1377 1.989 . S
Co1360 O1385 1.967 . S
Co1360 O1392 1.920 . S
Co1361 O1364 1.966 . S
Co1361 N1370 2.022 . S
Co1361 N1378 1.993 . S
Co1361 O1386 1.941 . S
C1362 O1363 1.258 . S
C1362 O1364 1.263 . S
O1363 Co1360 1.970 . S
O1363 C1362 1.258 . S
O1364 Co1361 1.966 . S
O1364 C1362 1.263 . S
C1365 O1366 1.235 . S
C1365 O1392 1.289 . S
O1366 C1365 1.235 . S
C1367 C1369 1.400 . S
C1367 N1370 1.351 . S
C1367 C1372 1.501 . S
C1368 C1369 1.387 . S
C1368 N1371 1.341 . S
C1369 C1367 1.400 . S
C1369 C1368 1.387 . S
N1370 Co1361 2.022 . S
N1370 C1367 1.351 . S
N1370 N1371 1.365 . S
N1371 C1368 1.341 . S
N1371 N1370 1.365 . S
N1371 H1391 0.862 . S
C1372 C1367 1.501 . S
C1372 H1373 0.961 . S
C1372 H1374 0.961 . S
C1372 H1375 0.960 . S
H1373 C1372 0.961 . S
H1374 C1372 0.961 . S
H1375 C1372 0.960 . S
C1376 N1377 1.342 . S
C1376 C1380 1.401 . S
C1376 C1381 1.499 . S
N1377 Co1360 1.989 . S
N1377 C1376 1.342 . S
N1377 N1378 1.388 . S
N1378 Co1361 1.993 . S
N1378 N1377 1.388 . S
N1378 C1379 1.346 . S
C1379 N1378 1.346 . S
C1379 C1380 1.396 . S
C1379 C1389 1.510 . S
C1380 C1376 1.401 . S
C1380 C1379 1.396 . S
C1381 C1376 1.499 . S
C1381 H1382 0.959 . S
C1381 H1383 0.960 . S
C1381 H1384 0.961 . S
H1382 C1381 0.959 . S
H1383 C1381 0.960 . S
H1384 C1381 0.961 . S
O1385 Co1360 1.967 . S
O1385 C1393 1.258 . S
O1386 Co1361 1.941 . S
O1386 C1393 1.266 . S
H1387 C1389 0.959 . S
H1388 C1389 0.961 . S
C1389 C1379 1.510 . S
C1389 H1387 0.959 . S
C1389 H1388 0.961 . S
C1389 H1390 0.960 . S
H1390 C1389 0.960 . S
H1391 N1371 0.862 . S
O1392 Co1360 1.920 . S
O1392 C1365 1.289 . S
C1393 O1385 1.258 . S
C1393 O1386 1.266 . S
Co1394 O1397 1.970 . S
Co1394 N1411 1.989 . S
Co1394 O1419 1.967 . S
Co1394 O1426 1.920 . S
Co1395 O1398 1.966 . S
Co1395 N1404 2.022 . S
Co1395 N1412 1.993 . S
Co1395 O1420 1.941 . S
C1396 O1397 1.258 . S
C1396 O1398 1.263 . S
O1397 Co1394 1.970 . S
O1397 C1396 1.258 . S
O1398 Co1395 1.966 . S
O1398 C1396 1.263 . S
C1399 O1400 1.235 . S
C1399 O1426 1.289 . S
O1400 C1399 1.235 . S
C1401 C1403 1.400 . S
C1401 N1404 1.351 . S
C1401 C1406 1.501 . S
C1402 C1403 1.387 . S
C1402 N1405 1.341 . S
C1403 C1401 1.400 . S
C1403 C1402 1.387 . S
N1404 Co1395 2.022 . S
N1404 C1401 1.351 . S
N1404 N1405 1.365 . S
N1405 C1402 1.341 . S
N1405 N1404 1.365 . S
N1405 H1425 0.862 . S
C1406 C1401 1.501 . S
C1406 H1407 0.961 . S
C1406 H1408 0.961 . S
C1406 H1409 0.960 . S
H1407 C1406 0.961 . S
H1408 C1406 0.961 . S
H1409 C1406 0.960 . S
C1410 N1411 1.342 . S
C1410 C1414 1.401 . S
C1410 C1415 1.499 . S
N1411 Co1394 1.989 . S
N1411 C1410 1.342 . S
N1411 N1412 1.388 . S
N1412 Co1395 1.993 . S
N1412 N1411 1.388 . S
N1412 C1413 1.346 . S
C1413 N1412 1.346 . S
C1413 C1414 1.396 . S
C1413 C1423 1.510 . S
C1414 C1410 1.401 . S
C1414 C1413 1.396 . S
C1415 C1410 1.499 . S
C1415 H1416 0.959 . S
C1415 H1417 0.960 . S
C1415 H1418 0.961 . S
H1416 C1415 0.959 . S
H1417 C1415 0.960 . S
H1418 C1415 0.961 . S
O1419 Co1394 1.967 . S
O1419 C1427 1.258 . S
O1420 Co1395 1.941 . S
O1420 C1427 1.266 . S
H1421 C1423 0.959 . S
H1422 C1423 0.961 . S
C1423 C1413 1.510 . S
C1423 H1421 0.959 . S
C1423 H1422 0.961 . S
C1423 H1424 0.960 . S
H1424 C1423 0.960 . S
H1425 N1405 0.862 . S
O1426 Co1394 1.920 . S
O1426 C1399 1.289 . S
C1427 O1419 1.258 . S
C1427 O1420 1.266 . S
Co1428 O1431 1.970 . S
Co1428 N1445 1.989 . S
Co1428 O1453 1.967 . S
Co1428 O1460 1.920 . S
Co1429 O1432 1.966 . S
Co1429 N1438 2.022 . S
Co1429 N1446 1.993 . S
Co1429 O1454 1.941 . S
C1430 O1431 1.258 . S
C1430 O1432 1.263 . S
O1431 Co1428 1.970 . S
O1431 C1430 1.258 . S
O1432 Co1429 1.966 . S
O1432 C1430 1.263 . S
C1433 O1434 1.235 . S
C1433 O1460 1.289 . S
O1434 C1433 1.235 . S
C1435 C1437 1.400 . S
C1435 N1438 1.351 . S
C1435 C1440 1.501 . S
C1436 C1437 1.387 . S
C1436 N1439 1.341 . S
C1437 C1435 1.400 . S
C1437 C1436 1.387 . S
N1438 Co1429 2.022 . S
N1438 C1435 1.351 . S
N1438 N1439 1.365 . S
N1439 C1436 1.341 . S
N1439 N1438 1.365 . S
N1439 H1459 0.862 . S
C1440 C1435 1.501 . S
C1440 H1441 0.961 . S
C1440 H1442 0.961 . S
C1440 H1443 0.960 . S
H1441 C1440 0.961 . S
H1442 C1440 0.961 . S
H1443 C1440 0.960 . S
C1444 N1445 1.342 . S
C1444 C1448 1.401 . S
C1444 C1449 1.499 . S
N1445 Co1428 1.989 . S
N1445 C1444 1.342 . S
N1445 N1446 1.388 . S
N1446 Co1429 1.993 . S
N1446 N1445 1.388 . S
N1446 C1447 1.346 . S
C1447 N1446 1.346 . S
C1447 C1448 1.396 . S
C1447 C1457 1.510 . S
C1448 C1444 1.401 . S
C1448 C1447 1.396 . S
C1449 C1444 1.499 . S
C1449 H1450 0.959 . S
C1449 H1451 0.960 . S
C1449 H1452 0.961 . S
H1450 C1449 0.959 . S
H1451 C1449 0.960 . S
H1452 C1449 0.961 . S
O1453 Co1428 1.967 . S
O1453 C1461 1.258 . S
O1454 Co1429 1.941 . S
O1454 C1461 1.266 . S
H1455 C1457 0.959 . S
H1456 C1457 0.961 . S
C1457 C1447 1.510 . S
C1457 H1455 0.959 . S
C1457 H1456 0.961 . S
C1457 H1458 0.960 . S
H1458 C1457 0.960 . S
H1459 N1439 0.862 . S
O1460 Co1428 1.920 . S
O1460 C1433 1.289 . S
C1461 O1453 1.258 . S
C1461 O1454 1.266 . S
Co1462 O1465 1.970 . S
Co1462 N1479 1.989 . S
Co1462 O1487 1.967 . S
Co1462 O1494 1.920 . S
Co1463 O1466 1.966 . S
Co1463 N1472 2.022 . S
Co1463 N1480 1.993 . S
Co1463 O1488 1.941 . S
C1464 O1465 1.258 . S
C1464 O1466 1.263 . S
O1465 Co1462 1.970 . S
O1465 C1464 1.258 . S
O1466 Co1463 1.966 . S
O1466 C1464 1.263 . S
C1467 O1468 1.235 . S
C1467 O1494 1.289 . S
O1468 C1467 1.235 . S
C1469 C1471 1.400 . S
C1469 N1472 1.351 . S
C1469 C1474 1.501 . S
C1470 C1471 1.387 . S
C1470 N1473 1.341 . S
C1471 C1469 1.400 . S
C1471 C1470 1.387 . S
N1472 Co1463 2.022 . S
N1472 C1469 1.351 . S
N1472 N1473 1.365 . S
N1473 C1470 1.341 . S
N1473 N1472 1.365 . S
N1473 H1493 0.862 . S
C1474 C1469 1.501 . S
C1474 H1475 0.961 . S
C1474 H1476 0.961 . S
C1474 H1477 0.960 . S
H1475 C1474 0.961 . S
H1476 C1474 0.961 . S
H1477 C1474 0.960 . S
C1478 N1479 1.342 . S
C1478 C1482 1.401 . S
C1478 C1483 1.499 . S
N1479 Co1462 1.989 . S
N1479 C1478 1.342 . S
N1479 N1480 1.388 . S
N1480 Co1463 1.993 . S
N1480 N1479 1.388 . S
N1480 C1481 1.346 . S
C1481 N1480 1.346 . S
C1481 C1482 1.396 . S
C1481 C1491 1.510 . S
C1482 C1478 1.401 . S
C1482 C1481 1.396 . S
C1483 C1478 1.499 . S
C1483 H1484 0.959 . S
C1483 H1485 0.960 . S
C1483 H1486 0.961 . S
H1484 C1483 0.959 . S
H1485 C1483 0.960 . S
H1486 C1483 0.961 . S
O1487 Co1462 1.967 . S
O1487 C1495 1.258 . S
O1488 Co1463 1.941 . S
O1488 C1495 1.266 . S
H1489 C1491 0.959 . S
H1490 C1491 0.961 . S
C1491 C1481 1.510 . S
C1491 H1489 0.959 . S
C1491 H1490 0.961 . S
C1491 H1492 0.960 . S
H1492 C1491 0.960 . S
H1493 N1473 0.862 . S
O1494 Co1462 1.920 . S
O1494 C1467 1.289 . S
C1495 O1487 1.258 . S
C1495 O1488 1.266 . S
Co1496 O1499 1.970 . S
Co1496 N1513 1.989 . S
Co1496 O1521 1.967 . S
Co1496 O1528 1.920 . S
Co1497 O1500 1.966 . S
Co1497 N1506 2.022 . S
Co1497 N1514 1.993 . S
Co1497 O1522 1.941 . S
C1498 O1499 1.258 . S
C1498 O1500 1.263 . S
O1499 Co1496 1.970 . S
O1499 C1498 1.258 . S
O1500 Co1497 1.966 . S
O1500 C1498 1.263 . S
C1501 O1502 1.235 . S
C1501 O1528 1.289 . S
O1502 C1501 1.235 . S
C1503 C1505 1.400 . S
C1503 N1506 1.351 . S
C1503 C1508 1.501 . S
C1504 C1505 1.387 . S
C1504 N1507 1.341 . S
C1505 C1503 1.400 . S
C1505 C1504 1.387 . S
N1506 Co1497 2.022 . S
N1506 C1503 1.351 . S
N1506 N1507 1.365 . S
N1507 C1504 1.341 . S
N1507 N1506 1.365 . S
N1507 H1527 0.862 . S
C1508 C1503 1.501 . S
C1508 H1509 0.961 . S
C1508 H1510 0.961 . S
C1508 H1511 0.960 . S
H1509 C1508 0.961 . S
H1510 C1508 0.961 . S
H1511 C1508 0.960 . S
C1512 N1513 1.342 . S
C1512 C1516 1.401 . S
C1512 C1517 1.499 . S
N1513 Co1496 1.989 . S
N1513 C1512 1.342 . S
N1513 N1514 1.388 . S
N1514 Co1497 1.993 . S
N1514 N1513 1.388 . S
N1514 C1515 1.346 . S
C1515 N1514 1.346 . S
C1515 C1516 1.396 . S
C1515 C1525 1.510 . S
C1516 C1512 1.401 . S
C1516 C1515 1.396 . S
C1517 C1512 1.499 . S
C1517 H1518 0.959 . S
C1517 H1519 0.960 . S
C1517 H1520 0.961 . S
H1518 C1517 0.959 . S
H1519 C1517 0.960 . S
H1520 C1517 0.961 . S
O1521 Co1496 1.967 . S
O1521 C1529 1.258 . S
O1522 Co1497 1.941 . S
O1522 C1529 1.266 . S
H1523 C1525 0.959 . S
H1524 C1525 0.961 . S
C1525 C1515 1.510 . S
C1525 H1523 0.959 . S
C1525 H1524 0.961 . S
C1525 H1526 0.960 . S
H1526 C1525 0.960 . S
H1527 N1507 0.862 . S
O1528 Co1496 1.920 . S
O1528 C1501 1.289 . S
C1529 O1521 1.258 . S
C1529 O1522 1.266 . S
Co1530 O1533 1.970 . S
Co1530 N1547 1.989 . S
Co1530 O1555 1.967 . S
Co1530 O1562 1.920 . S
Co1531 O1534 1.966 . S
Co1531 N1540 2.022 . S
Co1531 N1548 1.993 . S
Co1531 O1556 1.941 . S
C1532 O1533 1.258 . S
C1532 O1534 1.263 . S
O1533 Co1530 1.970 . S
O1533 C1532 1.258 . S
O1534 Co1531 1.966 . S
O1534 C1532 1.263 . S
C1535 O1536 1.235 . S
C1535 O1562 1.289 . S
O1536 C1535 1.235 . S
C1537 C1539 1.400 . S
C1537 N1540 1.351 . S
C1537 C1542 1.501 . S
C1538 C1539 1.387 . S
C1538 N1541 1.341 . S
C1539 C1537 1.400 . S
C1539 C1538 1.387 . S
N1540 Co1531 2.022 . S
N1540 C1537 1.351 . S
N1540 N1541 1.365 . S
N1541 C1538 1.341 . S
N1541 N1540 1.365 . S
N1541 H1561 0.862 . S
C1542 C1537 1.501 . S
C1542 H1543 0.961 . S
C1542 H1544 0.961 . S
C1542 H1545 0.960 . S
H1543 C1542 0.961 . S
H1544 C1542 0.961 . S
H1545 C1542 0.960 . S
C1546 N1547 1.342 . S
C1546 C1550 1.401 . S
C1546 C1551 1.499 . S
N1547 Co1530 1.989 . S
N1547 C1546 1.342 . S
N1547 N1548 1.388 . S
N1548 Co1531 1.993 . S
N1548 N1547 1.388 . S
N1548 C1549 1.346 . S
C1549 N1548 1.346 . S
C1549 C1550 1.396 . S
C1549 C1559 1.510 . S
C1550 C1546 1.401 . S
C1550 C1549 1.396 . S
C1551 C1546 1.499 . S
C1551 H1552 0.959 . S
C1551 H1553 0.960 . S
C1551 H1554 0.961 . S
H1552 C1551 0.959 . S
H1553 C1551 0.960 . S
H1554 C1551 0.961 . S
O1555 Co1530 1.967 . S
O1555 C1563 1.258 . S
O1556 Co1531 1.941 . S
O1556 C1563 1.266 . S
H1557 C1559 0.959 . S
H1558 C1559 0.961 . S
C1559 C1549 1.510 . S
C1559 H1557 0.959 . S
C1559 H1558 0.961 . S
C1559 H1560 0.960 . S
H1560 C1559 0.960 . S
H1561 N1541 0.862 . S
O1562 Co1530 1.920 . S
O1562 C1535 1.289 . S
C1563 O1555 1.258 . S
C1563 O1556 1.266 . S
Co1564 O1567 1.970 . S
Co1564 N1581 1.989 . S
Co1564 O1589 1.967 . S
Co1564 O1596 1.920 . S
Co1565 O1568 1.966 . S
Co1565 N1574 2.022 . S
Co1565 N1582 1.993 . S
Co1565 O1590 1.941 . S
C1566 O1567 1.258 . S
C1566 O1568 1.263 . S
O1567 Co1564 1.970 . S
O1567 C1566 1.258 . S
O1568 Co1565 1.966 . S
O1568 C1566 1.263 . S
C1569 O1570 1.235 . S
C1569 O1596 1.289 . S
O1570 C1569 1.235 . S
C1571 C1573 1.400 . S
C1571 N1574 1.351 . S
C1571 C1576 1.501 . S
C1572 C1573 1.387 . S
C1572 N1575 1.341 . S
C1573 C1571 1.400 . S
C1573 C1572 1.387 . S
N1574 Co1565 2.022 . S
N1574 C1571 1.351 . S
N1574 N1575 1.365 . S
N1575 C1572 1.341 . S
N1575 N1574 1.365 . S
N1575 H1595 0.862 . S
C1576 C1571 1.501 . S
C1576 H1577 0.961 . S
C1576 H1578 0.961 . S
C1576 H1579 0.960 . S
H1577 C1576 0.961 . S
H1578 C1576 0.961 . S
H1579 C1576 0.960 . S
C1580 N1581 1.342 . S
C1580 C1584 1.401 . S
C1580 C1585 1.499 . S
N1581 Co1564 1.989 . S
N1581 C1580 1.342 . S
N1581 N1582 1.388 . S
N1582 Co1565 1.993 . S
N1582 N1581 1.388 . S
N1582 C1583 1.346 . S
C1583 N1582 1.346 . S
C1583 C1584 1.396 . S
C1583 C1593 1.510 . S
C1584 C1580 1.401 . S
C1584 C1583 1.396 . S
C1585 C1580 1.499 . S
C1585 H1586 0.959 . S
C1585 H1587 0.960 . S
C1585 H1588 0.961 . S
H1586 C1585 0.959 . S
H1587 C1585 0.960 . S
H1588 C1585 0.961 . S
O1589 Co1564 1.967 . S
O1589 C1597 1.258 . S
O1590 Co1565 1.941 . S
O1590 C1597 1.266 . S
H1591 C1593 0.959 . S
H1592 C1593 0.961 . S
C1593 C1583 1.510 . S
C1593 H1591 0.959 . S
C1593 H1592 0.961 . S
C1593 H1594 0.960 . S
H1594 C1593 0.960 . S
H1595 N1575 0.862 . S
O1596 Co1564 1.920 . S
O1596 C1569 1.289 . S
C1597 O1589 1.258 . S
C1597 O1590 1.266 . S
Co1598 O1601 1.970 . S
Co1598 N1615 1.989 . S
Co1598 O1623 1.967 . S
Co1598 O1630 1.920 . S
Co1599 O1602 1.966 . S
Co1599 N1608 2.022 . S
Co1599 N1616 1.993 . S
Co1599 O1624 1.941 . S
C1600 O1601 1.258 . S
C1600 O1602 1.263 . S
O1601 Co1598 1.970 . S
O1601 C1600 1.258 . S
O1602 Co1599 1.966 . S
O1602 C1600 1.263 . S
C1603 O1604 1.235 . S
C1603 O1630 1.289 . S
O1604 C1603 1.235 . S
C1605 C1607 1.400 . S
C1605 N1608 1.351 . S
C1605 C1610 1.501 . S
C1606 C1607 1.387 . S
C1606 N1609 1.341 . S
C1607 C1605 1.400 . S
C1607 C1606 1.387 . S
N1608 Co1599 2.022 . S
N1608 C1605 1.351 . S
N1608 N1609 1.365 . S
N1609 C1606 1.341 . S
N1609 N1608 1.365 . S
N1609 H1629 0.862 . S
C1610 C1605 1.501 . S
C1610 H1611 0.961 . S
C1610 H1612 0.961 . S
C1610 H1613 0.960 . S
H1611 C1610 0.961 . S
H1612 C1610 0.961 . S
H1613 C1610 0.960 . S
C1614 N1615 1.342 . S
C1614 C1618 1.401 . S
C1614 C1619 1.499 . S
N1615 Co1598 1.989 . S
N1615 C1614 1.342 . S
N1615 N1616 1.388 . S
N1616 Co1599 1.993 . S
N1616 N1615 1.388 . S
N1616 C1617 1.346 . S
C1617 N1616 1.346 . S
C1617 C1618 1.396 . S
C1617 C1627 1.510 . S
C1618 C1614 1.401 . S
C1618 C1617 1.396 . S
C1619 C1614 1.499 . S
C1619 H1620 0.959 . S
C1619 H1621 0.960 . S
C1619 H1622 0.961 . S
H1620 C1619 0.959 . S
H1621 C1619 0.960 . S
H1622 C1619 0.961 . S
O1623 Co1598 1.967 . S
O1623 C1631 1.258 . S
O1624 Co1599 1.941 . S
O1624 C1631 1.266 . S
H1625 C1627 0.959 . S
H1626 C1627 0.961 . S
C1627 C1617 1.510 . S
C1627 H1625 0.959 . S
C1627 H1626 0.961 . S
C1627 H1628 0.960 . S
H1628 C1627 0.960 . S
H1629 N1609 0.862 . S
O1630 Co1598 1.920 . S
O1630 C1603 1.289 . S
C1631 O1623 1.258 . S
C1631 O1624 1.266 . S
H1632 C1640 0.950 . S
H1633 C1645 0.950 . S
H1634 C1642 0.950 . S
H1635 C1644 0.950 . S
H1636 C1646 0.950 . S
H1637 C1648 0.950 . S
H1638 C1650 0.950 . S
H1639 C1651 0.950 . S
C1640 H1632 0.950 . S
C1640 C1641 1.386 . S
C1640 C1642 1.391 . S
C1641 C1640 1.386 . S
C1641 C1645 1.393 . S
C1642 H1634 0.950 . S
C1642 C1640 1.391 . S
C1642 C1643 1.400 . S
C1643 C1642 1.400 . S
C1643 C1644 1.398 . S
C1643 C1649 1.491 . S
C1644 H1635 0.950 . S
C1644 C1643 1.398 . S
C1644 C1645 1.391 . S
C1645 H1633 0.950 . S
C1645 C1641 1.393 . S
C1645 C1644 1.391 . S
C1646 H1636 0.950 . S
C1646 C1647 1.386 . S
C1646 C1648 1.391 . S
C1647 C1646 1.386 . S
C1647 C1651 1.393 . S
C1648 H1637 0.950 . S
C1648 C1646 1.391 . S
C1648 C1649 1.400 . S
C1649 C1643 1.491 . S
C1649 C1648 1.400 . S
C1649 C1650 1.398 . S
C1650 H1638 0.950 . S
C1650 C1649 1.398 . S
C1650 C1651 1.391 . S
C1651 H1639 0.950 . S
C1651 C1647 1.393 . S
C1651 C1650 1.391 . S
H1652 C1660 0.950 . S
H1653 C1665 0.950 . S
H1654 C1662 0.950 . S
H1655 C1664 0.950 . S
H1656 C1666 0.950 . S
H1657 C1668 0.950 . S
H1658 C1670 0.950 . S
H1659 C1671 0.950 . S
C1660 H1652 0.950 . S
C1660 C1661 1.386 . S
C1660 C1662 1.391 . S
C1661 C1660 1.386 . S
C1661 C1665 1.393 . S
C1662 H1654 0.950 . S
C1662 C1660 1.391 . S
C1662 C1663 1.400 . S
C1663 C1662 1.400 . S
C1663 C1664 1.398 . S
C1663 C1669 1.491 . S
C1664 H1655 0.950 . S
C1664 C1663 1.398 . S
C1664 C1665 1.391 . S
C1665 H1653 0.950 . S
C1665 C1661 1.393 . S
C1665 C1664 1.391 . S
C1666 H1656 0.950 . S
C1666 C1667 1.386 . S
C1666 C1668 1.391 . S
C1667 C1666 1.386 . S
C1667 C1671 1.393 . S
C1668 H1657 0.950 . S
C1668 C1666 1.391 . S
C1668 C1669 1.400 . S
C1669 C1663 1.491 . S
C1669 C1668 1.400 . S
C1669 C1670 1.398 . S
C1670 H1658 0.950 . S
C1670 C1669 1.398 . S
C1670 C1671 1.391 . S
C1671 H1659 0.950 . S
C1671 C1667 1.393 . S
C1671 C1670 1.391 . S
H1672 C1680 0.950 . S
H1673 C1685 0.950 . S
H1674 C1682 0.950 . S
H1675 C1684 0.950 . S
H1676 C1686 0.950 . S
H1677 C1688 0.950 . S
H1678 C1690 0.950 . S
H1679 C1691 0.950 . S
C1680 H1672 0.950 . S
C1680 C1681 1.386 . S
C1680 C1682 1.391 . S
C1681 C1680 1.386 . S
C1681 C1685 1.393 . S
C1682 H1674 0.950 . S
C1682 C1680 1.391 . S
C1682 C1683 1.400 . S
C1683 C1682 1.400 . S
C1683 C1684 1.398 . S
C1683 C1689 1.491 . S
C1684 H1675 0.950 . S
C1684 C1683 1.398 . S
C1684 C1685 1.391 . S
C1685 H1673 0.950 . S
C1685 C1681 1.393 . S
C1685 C1684 1.391 . S
C1686 H1676 0.950 . S
C1686 C1687 1.386 . S
C1686 C1688 1.391 . S
C1687 C1686 1.386 . S
C1687 C1691 1.393 . S
C1688 H1677 0.950 . S
C1688 C1686 1.391 . S
C1688 C1689 1.400 . S
C1689 C1683 1.491 . S
C1689 C1688 1.400 . S
C1689 C1690 1.398 . S
C1690 H1678 0.950 . S
C1690 C1689 1.398 . S
C1690 C1691 1.391 . S
C1691 H1679 0.950 . S
C1691 C1687 1.393 . S
C1691 C1690 1.391 . S
H1692 C1700 0.950 . S
H1693 C1705 0.950 . S
H1694 C1702 0.950 . S
H1695 C1704 0.950 . S
H1696 C1706 0.950 . S
H1697 C1708 0.950 . S
H1698 C1710 0.950 . S
H1699 C1711 0.950 . S
C1700 H1692 0.950 . S
C1700 C1701 1.386 . S
C1700 C1702 1.391 . S
C1701 C1700 1.386 . S
C1701 C1705 1.393 . S
C1702 H1694 0.950 . S
C1702 C1700 1.391 . S
C1702 C1703 1.400 . S
C1703 C1702 1.400 . S
C1703 C1704 1.398 . S
C1703 C1709 1.491 . S
C1704 H1695 0.950 . S
C1704 C1703 1.398 . S
C1704 C1705 1.391 . S
C1705 H1693 0.950 . S
C1705 C1701 1.393 . S
C1705 C1704 1.391 . S
C1706 H1696 0.950 . S
C1706 C1707 1.386 . S
C1706 C1708 1.391 . S
C1707 C1706 1.386 . S
C1707 C1711 1.393 . S
C1708 H1697 0.950 . S
C1708 C1706 1.391 . S
C1708 C1709 1.400 . S
C1709 C1703 1.491 . S
C1709 C1708 1.400 . S
C1709 C1710 1.398 . S
C1710 H1698 0.950 . S
C1710 C1709 1.398 . S
C1710 C1711 1.391 . S
C1711 H1699 0.950 . S
C1711 C1707 1.393 . S
C1711 C1710 1.391 . S
H1712 C1720 0.950 . S
H1713 C1725 0.950 . S
H1714 C1722 0.950 . S
H1715 C1724 0.950 . S
H1716 C1726 0.950 . S
H1717 C1728 0.950 . S
H1718 C1730 0.950 . S
H1719 C1731 0.950 . S
C1720 H1712 0.950 . S
C1720 C1721 1.386 . S
C1720 C1722 1.391 . S
C1721 C1720 1.386 . S
C1721 C1725 1.393 . S
C1722 H1714 0.950 . S
C1722 C1720 1.391 . S
C1722 C1723 1.400 . S
C1723 C1722 1.400 . S
C1723 C1724 1.398 . S
C1723 C1729 1.491 . S
C1724 H1715 0.950 . S
C1724 C1723 1.398 . S
C1724 C1725 1.391 . S
C1725 H1713 0.950 . S
C1725 C1721 1.393 . S
C1725 C1724 1.391 . S
C1726 H1716 0.950 . S
C1726 C1727 1.386 . S
C1726 C1728 1.391 . S
C1727 C1726 1.386 . S
C1727 C1731 1.393 . S
C1728 H1717 0.950 . S
C1728 C1726 1.391 . S
C1728 C1729 1.400 . S
C1729 C1723 1.491 . S
C1729 C1728 1.400 . S
C1729 C1730 1.398 . S
C1730 H1718 0.950 . S
C1730 C1729 1.398 . S
C1730 C1731 1.391 . S
C1731 H1719 0.950 . S
C1731 C1727 1.393 . S
C1731 C1730 1.391 . S
H1732 C1740 0.950 . S
H1733 C1745 0.950 . S
H1734 C1742 0.950 . S
H1735 C1744 0.950 . S
H1736 C1746 0.950 . S
H1737 C1748 0.950 . S
H1738 C1750 0.950 . S
H1739 C1751 0.950 . S
C1740 H1732 0.950 . S
C1740 C1741 1.386 . S
C1740 C1742 1.391 . S
C1741 C1740 1.386 . S
C1741 C1745 1.393 . S
C1742 H1734 0.950 . S
C1742 C1740 1.391 . S
C1742 C1743 1.400 . S
C1743 C1742 1.400 . S
C1743 C1744 1.398 . S
C1743 C1749 1.491 . S
C1744 H1735 0.950 . S
C1744 C1743 1.398 . S
C1744 C1745 1.391 . S
C1745 H1733 0.950 . S
C1745 C1741 1.393 . S
C1745 C1744 1.391 . S
C1746 H1736 0.950 . S
C1746 C1747 1.386 . S
C1746 C1748 1.391 . S
C1747 C1746 1.386 . S
C1747 C1751 1.393 . S
C1748 H1737 0.950 . S
C1748 C1746 1.391 . S
C1748 C1749 1.400 . S
C1749 C1743 1.491 . S
C1749 C1748 1.400 . S
C1749 C1750 1.398 . S
C1750 H1738 0.950 . S
C1750 C1749 1.398 . S
C1750 C1751 1.391 . S
C1751 H1739 0.950 . S
C1751 C1747 1.393 . S
C1751 C1750 1.391 . S
H1752 C1760 0.950 . S
H1753 C1765 0.950 . S
H1754 C1762 0.950 . S
H1755 C1764 0.950 . S
H1756 C1766 0.950 . S
H1757 C1768 0.950 . S
H1758 C1770 0.950 . S
H1759 C1771 0.950 . S
C1760 H1752 0.950 . S
C1760 C1761 1.386 . S
C1760 C1762 1.391 . S
C1761 C1760 1.386 . S
C1761 C1765 1.393 . S
C1762 H1754 0.950 . S
C1762 C1760 1.391 . S
C1762 C1763 1.400 . S
C1763 C1762 1.400 . S
C1763 C1764 1.398 . S
C1763 C1769 1.491 . S
C1764 H1755 0.950 . S
C1764 C1763 1.398 . S
C1764 C1765 1.391 . S
C1765 H1753 0.950 . S
C1765 C1761 1.393 . S
C1765 C1764 1.391 . S
C1766 H1756 0.950 . S
C1766 C1767 1.386 . S
C1766 C1768 1.391 . S
C1767 C1766 1.386 . S
C1767 C1771 1.393 . S
C1768 H1757 0.950 . S
C1768 C1766 1.391 . S
C1768 C1769 1.400 . S
C1769 C1763 1.491 . S
C1769 C1768 1.400 . S
C1769 C1770 1.398 . S
C1770 H1758 0.950 . S
C1770 C1769 1.398 . S
C1770 C1771 1.391 . S
C1771 H1759 0.950 . S
C1771 C1767 1.393 . S
C1771 C1770 1.391 . S
H1772 C1780 0.950 . S
H1773 C1785 0.950 . S
H1774 C1782 0.950 . S
H1775 C1784 0.950 . S
H1776 C1786 0.950 . S
H1777 C1788 0.950 . S
H1778 C1790 0.950 . S
H1779 C1791 0.950 . S
C1780 H1772 0.950 . S
C1780 C1781 1.386 . S
C1780 C1782 1.391 . S
C1781 C1780 1.386 . S
C1781 C1785 1.393 . S
C1782 H1774 0.950 . S
C1782 C1780 1.391 . S
C1782 C1783 1.400 . S
C1783 C1782 1.400 . S
C1783 C1784 1.398 . S
C1783 C1789 1.491 . S
C1784 H1775 0.950 . S
C1784 C1783 1.398 . S
C1784 C1785 1.391 . S
C1785 H1773 0.950 . S
C1785 C1781 1.393 . S
C1785 C1784 1.391 . S
C1786 H1776 0.950 . S
C1786 C1787 1.386 . S
C1786 C1788 1.391 . S
C1787 C1786 1.386 . S
C1787 C1791 1.393 . S
C1788 H1777 0.950 . S
C1788 C1786 1.391 . S
C1788 C1789 1.400 . S
C1789 C1783 1.491 . S
C1789 C1788 1.400 . S
C1789 C1790 1.398 . S
C1790 H1778 0.950 . S
C1790 C1789 1.398 . S
C1790 C1791 1.391 . S
C1791 H1779 0.950 . S
C1791 C1787 1.393 . S
C1791 C1790 1.391 . S
H1792 C1800 0.950 . S
H1793 C1805 0.950 . S
H1794 C1802 0.950 . S
H1795 C1804 0.950 . S
H1796 C1806 0.950 . S
H1797 C1808 0.950 . S
H1798 C1810 0.950 . S
H1799 C1811 0.950 . S
C1800 H1792 0.950 . S
C1800 C1801 1.386 . S
C1800 C1802 1.391 . S
C1801 C1800 1.386 . S
C1801 C1805 1.393 . S
C1802 H1794 0.950 . S
C1802 C1800 1.391 . S
C1802 C1803 1.400 . S
C1803 C1802 1.400 . S
C1803 C1804 1.398 . S
C1803 C1809 1.491 . S
C1804 H1795 0.950 . S
C1804 C1803 1.398 . S
C1804 C1805 1.391 . S
C1805 H1793 0.950 . S
C1805 C1801 1.393 . S
C1805 C1804 1.391 . S
C1806 H1796 0.950 . S
C1806 C1807 1.386 . S
C1806 C1808 1.391 . S
C1807 C1806 1.386 . S
C1807 C1811 1.393 . S
C1808 H1797 0.950 . S
C1808 C1806 1.391 . S
C1808 C1809 1.400 . S
C1809 C1803 1.491 . S
C1809 C1808 1.400 . S
C1809 C1810 1.398 . S
C1810 H1798 0.950 . S
C1810 C1809 1.398 . S
C1810 C1811 1.391 . S
C1811 H1799 0.950 . S
C1811 C1807 1.393 . S
C1811 C1810 1.391 . S
H1812 C1820 0.950 . S
H1813 C1825 0.950 . S
H1814 C1822 0.950 . S
H1815 C1824 0.950 . S
H1816 C1826 0.950 . S
H1817 C1828 0.950 . S
H1818 C1830 0.950 . S
H1819 C1831 0.950 . S
C1820 H1812 0.950 . S
C1820 C1821 1.386 . S
C1820 C1822 1.391 . S
C1821 C1820 1.386 . S
C1821 C1825 1.393 . S
C1822 H1814 0.950 . S
C1822 C1820 1.391 . S
C1822 C1823 1.400 . S
C1823 C1822 1.400 . S
C1823 C1824 1.398 . S
C1823 C1829 1.491 . S
C1824 H1815 0.950 . S
C1824 C1823 1.398 . S
C1824 C1825 1.391 . S
C1825 H1813 0.950 . S
C1825 C1821 1.393 . S
C1825 C1824 1.391 . S
C1826 H1816 0.950 . S
C1826 C1827 1.386 . S
C1826 C1828 1.391 . S
C1827 C1826 1.386 . S
C1827 C1831 1.393 . S
C1828 H1817 0.950 . S
C1828 C1826 1.391 . S
C1828 C1829 1.400 . S
C1829 C1823 1.491 . S
C1829 C1828 1.400 . S
C1829 C1830 1.398 . S
C1830 H1818 0.950 . S
C1830 C1829 1.398 . S
C1830 C1831 1.391 . S
C1831 H1819 0.950 . S
C1831 C1827 1.393 . S
C1831 C1830 1.391 . S
H1832 C1840 0.950 . S
H1833 C1845 0.950 . S
H1834 C1842 0.950 . S
H1835 C1844 0.950 . S
H1836 C1846 0.950 . S
H1837 C1848 0.950 . S
H1838 C1850 0.950 . S
H1839 C1851 0.950 . S
C1840 H1832 0.950 . S
C1840 C1841 1.386 . S
C1840 C1842 1.391 . S
C1841 C1840 1.386 . S
C1841 C1845 1.393 . S
C1842 H1834 0.950 . S
C1842 C1840 1.391 . S
C1842 C1843 1.400 . S
C1843 C1842 1.400 . S
C1843 C1844 1.398 . S
C1843 C1849 1.491 . S
C1844 H1835 0.950 . S
C1844 C1843 1.398 . S
C1844 C1845 1.391 . S
C1845 H1833 0.950 . S
C1845 C1841 1.393 . S
C1845 C1844 1.391 . S
C1846 H1836 0.950 . S
C1846 C1847 1.386 . S
C1846 C1848 1.391 . S
C1847 C1846 1.386 . S
C1847 C1851 1.393 . S
C1848 H1837 0.950 . S
C1848 C1846 1.391 . S
C1848 C1849 1.400 . S
C1849 C1843 1.491 . S
C1849 C1848 1.400 . S
C1849 C1850 1.398 . S
C1850 H1838 0.950 . S
C1850 C1849 1.398 . S
C1850 C1851 1.391 . S
C1851 H1839 0.950 . S
C1851 C1847 1.393 . S
C1851 C1850 1.391 . S
H1852 C1860 0.950 . S
H1853 C1865 0.950 . S
H1854 C1862 0.950 . S
H1855 C1864 0.950 . S
H1856 C1866 0.950 . S
H1857 C1868 0.950 . S
H1858 C1870 0.950 . S
H1859 C1871 0.950 . S
C1860 H1852 0.950 . S
C1860 C1861 1.386 . S
C1860 C1862 1.391 . S
C1861 C1860 1.386 . S
C1861 C1865 1.393 . S
C1862 H1854 0.950 . S
C1862 C1860 1.391 . S
C1862 C1863 1.400 . S
C1863 C1862 1.400 . S
C1863 C1864 1.398 . S
C1863 C1869 1.491 . S
C1864 H1855 0.950 . S
C1864 C1863 1.398 . S
C1864 C1865 1.391 . S
C1865 H1853 0.950 . S
C1865 C1861 1.393 . S
C1865 C1864 1.391 . S
C1866 H1856 0.950 . S
C1866 C1867 1.386 . S
C1866 C1868 1.391 . S
C1867 C1866 1.386 . S
C1867 C1871 1.393 . S
C1868 H1857 0.950 . S
C1868 C1866 1.391 . S
C1868 C1869 1.400 . S
C1869 C1863 1.491 . S
C1869 C1868 1.400 . S
C1869 C1870 1.398 . S
C1870 H1858 0.950 . S
C1870 C1869 1.398 . S
C1870 C1871 1.391 . S
C1871 H1859 0.950 . S
C1871 C1867 1.393 . S
C1871 C1870 1.391 . S
H1872 C1880 0.950 . S
H1873 C1885 0.950 . S
H1874 C1882 0.950 . S
H1875 C1884 0.950 . S
H1876 C1886 0.950 . S
H1877 C1888 0.950 . S
H1878 C1890 0.950 . S
H1879 C1891 0.950 . S
C1880 H1872 0.950 . S
C1880 C1881 1.386 . S
C1880 C1882 1.391 . S
C1881 C1880 1.386 . S
C1881 C1885 1.393 . S
C1882 H1874 0.950 . S
C1882 C1880 1.391 . S
C1882 C1883 1.400 . S
C1883 C1882 1.400 . S
C1883 C1884 1.398 . S
C1883 C1889 1.491 . S
C1884 H1875 0.950 . S
C1884 C1883 1.398 . S
C1884 C1885 1.391 . S
C1885 H1873 0.950 . S
C1885 C1881 1.393 . S
C1885 C1884 1.391 . S
C1886 H1876 0.950 . S
C1886 C1887 1.386 . S
C1886 C1888 1.391 . S
C1887 C1886 1.386 . S
C1887 C1891 1.393 . S
C1888 H1877 0.950 . S
C1888 C1886 1.391 . S
C1888 C1889 1.400 . S
C1889 C1883 1.491 . S
C1889 C1888 1.400 . S
C1889 C1890 1.398 . S
C1890 H1878 0.950 . S
C1890 C1889 1.398 . S
C1890 C1891 1.391 . S
C1891 H1879 0.950 . S
C1891 C1887 1.393 . S
C1891 C1890 1.391 . S
H1892 C1900 0.950 . S
H1893 C1905 0.950 . S
H1894 C1902 0.950 . S
H1895 C1904 0.950 . S
H1896 C1906 0.950 . S
H1897 C1908 0.950 . S
H1898 C1910 0.950 . S
H1899 C1911 0.950 . S
C1900 H1892 0.950 . S
C1900 C1901 1.386 . S
C1900 C1902 1.391 . S
C1901 C1900 1.386 . S
C1901 C1905 1.393 . S
C1902 H1894 0.950 . S
C1902 C1900 1.391 . S
C1902 C1903 1.400 . S
C1903 C1902 1.400 . S
C1903 C1904 1.398 . S
C1903 C1909 1.491 . S
C1904 H1895 0.950 . S
C1904 C1903 1.398 . S
C1904 C1905 1.391 . S
C1905 H1893 0.950 . S
C1905 C1901 1.393 . S
C1905 C1904 1.391 . S
C1906 H1896 0.950 . S
C1906 C1907 1.386 . S
C1906 C1908 1.391 . S
C1907 C1906 1.386 . S
C1907 C1911 1.393 . S
C1908 H1897 0.950 . S
C1908 C1906 1.391 . S
C1908 C1909 1.400 . S
C1909 C1903 1.491 . S
C1909 C1908 1.400 . S
C1909 C1910 1.398 . S
C1910 H1898 0.950 . S
C1910 C1909 1.398 . S
C1910 C1911 1.391 . S
C1911 H1899 0.950 . S
C1911 C1907 1.393 . S
C1911 C1910 1.391 . S
H1912 C1920 0.950 . S
H1913 C1925 0.950 . S
H1914 C1922 0.950 . S
H1915 C1924 0.950 . S
H1916 C1926 0.950 . S
H1917 C1928 0.950 . S
H1918 C1930 0.950 . S
H1919 C1931 0.950 . S
C1920 H1912 0.950 . S
C1920 C1921 1.386 . S
C1920 C1922 1.391 . S
C1921 C1920 1.386 . S
C1921 C1925 1.393 . S
C1922 H1914 0.950 . S
C1922 C1920 1.391 . S
C1922 C1923 1.400 . S
C1923 C1922 1.400 . S
C1923 C1924 1.398 . S
C1923 C1929 1.491 . S
C1924 H1915 0.950 . S
C1924 C1923 1.398 . S
C1924 C1925 1.391 . S
C1925 H1913 0.950 . S
C1925 C1921 1.393 . S
C1925 C1924 1.391 . S
C1926 H1916 0.950 . S
C1926 C1927 1.386 . S
C1926 C1928 1.391 . S
C1927 C1926 1.386 . S
C1927 C1931 1.393 . S
C1928 H1917 0.950 . S
C1928 C1926 1.391 . S
C1928 C1929 1.400 . S
C1929 C1923 1.491 . S
C1929 C1928 1.400 . S
C1929 C1930 1.398 . S
C1930 H1918 0.950 . S
C1930 C1929 1.398 . S
C1930 C1931 1.391 . S
C1931 H1919 0.950 . S
C1931 C1927 1.393 . S
C1931 C1930 1.391 . S
H1932 C1940 0.950 . S
H1933 C1945 0.950 . S
H1934 C1942 0.950 . S
H1935 C1944 0.950 . S
H1936 C1946 0.950 . S
H1937 C1948 0.950 . S
H1938 C1950 0.950 . S
H1939 C1951 0.950 . S
C1940 H1932 0.950 . S
C1940 C1941 1.386 . S
C1940 C1942 1.391 . S
C1941 C1940 1.386 . S
C1941 C1945 1.393 . S
C1942 H1934 0.950 . S
C1942 C1940 1.391 . S
C1942 C1943 1.400 . S
C1943 C1942 1.400 . S
C1943 C1944 1.398 . S
C1943 C1949 1.491 . S
C1944 H1935 0.950 . S
C1944 C1943 1.398 . S
C1944 C1945 1.391 . S
C1945 H1933 0.950 . S
C1945 C1941 1.393 . S
C1945 C1944 1.391 . S
C1946 H1936 0.950 . S
C1946 C1947 1.386 . S
C1946 C1948 1.391 . S
C1947 C1946 1.386 . S
C1947 C1951 1.393 . S
C1948 H1937 0.950 . S
C1948 C1946 1.391 . S
C1948 C1949 1.400 . S
C1949 C1943 1.491 . S
C1949 C1948 1.400 . S
C1949 C1950 1.398 . S
C1950 H1938 0.950 . S
C1950 C1949 1.398 . S
C1950 C1951 1.391 . S
C1951 H1939 0.950 . S
C1951 C1947 1.393 . S
C1951 C1950 1.391 . S
H1952 C1960 0.950 . S
H1953 C1965 0.950 . S
H1954 C1962 0.950 . S
H1955 C1964 0.950 . S
H1956 C1966 0.950 . S
H1957 C1968 0.950 . S
H1958 C1970 0.950 . S
H1959 C1971 0.950 . S
C1960 H1952 0.950 . S
C1960 C1961 1.386 . S
C1960 C1962 1.391 . S
C1961 C1960 1.386 . S
C1961 C1965 1.393 . S
C1962 H1954 0.950 . S
C1962 C1960 1.391 . S
C1962 C1963 1.400 . S
C1963 C1962 1.400 . S
C1963 C1964 1.398 . S
C1963 C1969 1.491 . S
C1964 H1955 0.950 . S
C1964 C1963 1.398 . S
C1964 C1965 1.391 . S
C1965 H1953 0.950 . S
C1965 C1961 1.393 . S
C1965 C1964 1.391 . S
C1966 H1956 0.950 . S
C1966 C1967 1.386 . S
C1966 C1968 1.391 . S
C1967 C1966 1.386 . S
C1967 C1971 1.393 . S
C1968 H1957 0.950 . S
C1968 C1966 1.391 . S
C1968 C1969 1.400 . S
C1969 C1963 1.491 . S
C1969 C1968 1.400 . S
C1969 C1970 1.398 . S
C1970 H1958 0.950 . S
C1970 C1969 1.398 . S
C1970 C1971 1.391 . S
C1971 H1959 0.950 . S
C1971 C1967 1.393 . S
C1971 C1970 1.391 . S
H1972 C1980 0.950 . S
H1973 C1985 0.950 . S
H1974 C1982 0.950 . S
H1975 C1984 0.950 . S
H1976 C1986 0.950 . S
H1977 C1988 0.950 . S
H1978 C1990 0.950 . S
H1979 C1991 0.950 . S
C1980 H1972 0.950 . S
C1980 C1981 1.386 . S
C1980 C1982 1.391 . S
C1981 C1980 1.386 . S
C1981 C1985 1.393 . S
C1982 H1974 0.950 . S
C1982 C1980 1.391 . S
C1982 C1983 1.400 . S
C1983 C1982 1.400 . S
C1983 C1984 1.398 . S
C1983 C1989 1.491 . S
C1984 H1975 0.950 . S
C1984 C1983 1.398 . S
C1984 C1985 1.391 . S
C1985 H1973 0.950 . S
C1985 C1981 1.393 . S
C1985 C1984 1.391 . S
C1986 H1976 0.950 . S
C1986 C1987 1.386 . S
C1986 C1988 1.391 . S
C1987 C1986 1.386 . S
C1987 C1991 1.393 . S
C1988 H1977 0.950 . S
C1988 C1986 1.391 . S
C1988 C1989 1.400 . S
C1989 C1983 1.491 . S
C1989 C1988 1.400 . S
C1989 C1990 1.398 . S
C1990 H1978 0.950 . S
C1990 C1989 1.398 . S
C1990 C1991 1.391 . S
C1991 H1979 0.950 . S
C1991 C1987 1.393 . S
C1991 C1990 1.391 . S
H1992 C2000 0.950 . S
H1993 C2005 0.950 . S
H1994 C2002 0.950 . S
H1995 C2004 0.950 . S
H1996 C2006 0.950 . S
H1997 C2008 0.950 . S
H1998 C2010 0.950 . S
H1999 C2011 0.950 . S
C2000 H1992 0.950 . S
C2000 C2001 1.386 . S
C2000 C2002 1.391 . S
C2001 C2000 1.386 . S
C2001 C2005 1.393 . S
C2002 H1994 0.950 . S
C2002 C2000 1.391 . S
C2002 C2003 1.400 . S
C2003 C2002 1.400 . S
C2003 C2004 1.398 . S
C2003 C2009 1.491 . S
C2004 H1995 0.950 . S
C2004 C2003 1.398 . S
C2004 C2005 1.391 . S
C2005 H1993 0.950 . S
C2005 C2001 1.393 . S
C2005 C2004 1.391 . S
C2006 H1996 0.950 . S
C2006 C2007 1.386 . S
C2006 C2008 1.391 . S
C2007 C2006 1.386 . S
C2007 C2011 1.393 . S
C2008 H1997 0.950 . S
C2008 C2006 1.391 . S
C2008 C2009 1.400 . S
C2009 C2003 1.491 . S
C2009 C2008 1.400 . S
C2009 C2010 1.398 . S
C2010 H1998 0.950 . S
C2010 C2009 1.398 . S
C2010 C2011 1.391 . S
C2011 H1999 0.950 . S
C2011 C2007 1.393 . S
C2011 C2010 1.391 . S
H2012 C2020 0.950 . S
H2013 C2025 0.950 . S
H2014 C2022 0.950 . S
H2015 C2024 0.950 . S
H2016 C2026 0.950 . S
H2017 C2028 0.950 . S
H2018 C2030 0.950 . S
H2019 C2031 0.950 . S
C2020 H2012 0.950 . S
C2020 C2021 1.386 . S
C2020 C2022 1.391 . S
C2021 C2020 1.386 . S
C2021 C2025 1.393 . S
C2022 H2014 0.950 . S
C2022 C2020 1.391 . S
C2022 C2023 1.400 . S
C2023 C2022 1.400 . S
C2023 C2024 1.398 . S
C2023 C2029 1.491 . S
C2024 H2015 0.950 . S
C2024 C2023 1.398 . S
C2024 C2025 1.391 . S
C2025 H2013 0.950 . S
C2025 C2021 1.393 . S
C2025 C2024 1.391 . S
C2026 H2016 0.950 . S
C2026 C2027 1.386 . S
C2026 C2028 1.391 . S
C2027 C2026 1.386 . S
C2027 C2031 1.393 . S
C2028 H2017 0.950 . S
C2028 C2026 1.391 . S
C2028 C2029 1.400 . S
C2029 C2023 1.491 . S
C2029 C2028 1.400 . S
C2029 C2030 1.398 . S
C2030 H2018 0.950 . S
C2030 C2029 1.398 . S
C2030 C2031 1.391 . S
C2031 H2019 0.950 . S
C2031 C2027 1.393 . S
C2031 C2030 1.391 . S
H2032 C2040 0.950 . S
H2033 C2045 0.950 . S
H2034 C2042 0.950 . S
H2035 C2044 0.950 . S
H2036 C2046 0.950 . S
H2037 C2048 0.950 . S
H2038 C2050 0.950 . S
H2039 C2051 0.950 . S
C2040 H2032 0.950 . S
C2040 C2041 1.386 . S
C2040 C2042 1.391 . S
C2041 C2040 1.386 . S
C2041 C2045 1.393 . S
C2042 H2034 0.950 . S
C2042 C2040 1.391 . S
C2042 C2043 1.400 . S
C2043 C2042 1.400 . S
C2043 C2044 1.398 . S
C2043 C2049 1.491 . S
C2044 H2035 0.950 . S
C2044 C2043 1.398 . S
C2044 C2045 1.391 . S
C2045 H2033 0.950 . S
C2045 C2041 1.393 . S
C2045 C2044 1.391 . S
C2046 H2036 0.950 . S
C2046 C2047 1.386 . S
C2046 C2048 1.391 . S
C2047 C2046 1.386 . S
C2047 C2051 1.393 . S
C2048 H2037 0.950 . S
C2048 C2046 1.391 . S
C2048 C2049 1.400 . S
C2049 C2043 1.491 . S
C2049 C2048 1.400 . S
C2049 C2050 1.398 . S
C2050 H2038 0.950 . S
C2050 C2049 1.398 . S
C2050 C2051 1.391 . S
C2051 H2039 0.950 . S
C2051 C2047 1.393 . S
C2051 C2050 1.391 . S
H2052 C2060 0.950 . S
H2053 C2065 0.950 . S
H2054 C2062 0.950 . S
H2055 C2064 0.950 . S
H2056 C2066 0.950 . S
H2057 C2068 0.950 . S
H2058 C2070 0.950 . S
H2059 C2071 0.950 . S
C2060 H2052 0.950 . S
C2060 C2061 1.386 . S
C2060 C2062 1.391 . S
C2061 C2060 1.386 . S
C2061 C2065 1.393 . S
C2062 H2054 0.950 . S
C2062 C2060 1.391 . S
C2062 C2063 1.400 . S
C2063 C2062 1.400 . S
C2063 C2064 1.398 . S
C2063 C2069 1.491 . S
C2064 H2055 0.950 . S
C2064 C2063 1.398 . S
C2064 C2065 1.391 . S
C2065 H2053 0.950 . S
C2065 C2061 1.393 . S
C2065 C2064 1.391 . S
C2066 H2056 0.950 . S
C2066 C2067 1.386 . S
C2066 C2068 1.391 . S
C2067 C2066 1.386 . S
C2067 C2071 1.393 . S
C2068 H2057 0.950 . S
C2068 C2066 1.391 . S
C2068 C2069 1.400 . S
C2069 C2063 1.491 . S
C2069 C2068 1.400 . S
C2069 C2070 1.398 . S
C2070 H2058 0.950 . S
C2070 C2069 1.398 . S
C2070 C2071 1.391 . S
C2071 H2059 0.950 . S
C2071 C2067 1.393 . S
C2071 C2070 1.391 . S
H2072 C2080 0.950 . S
H2073 C2085 0.950 . S
H2074 C2082 0.950 . S
H2075 C2084 0.950 . S
H2076 C2086 0.950 . S
H2077 C2088 0.950 . S
H2078 C2090 0.950 . S
H2079 C2091 0.950 . S
C2080 H2072 0.950 . S
C2080 C2081 1.386 . S
C2080 C2082 1.391 . S
C2081 C2080 1.386 . S
C2081 C2085 1.393 . S
C2082 H2074 0.950 . S
C2082 C2080 1.391 . S
C2082 C2083 1.400 . S
C2083 C2082 1.400 . S
C2083 C2084 1.398 . S
C2083 C2089 1.491 . S
C2084 H2075 0.950 . S
C2084 C2083 1.398 . S
C2084 C2085 1.391 . S
C2085 H2073 0.950 . S
C2085 C2081 1.393 . S
C2085 C2084 1.391 . S
C2086 H2076 0.950 . S
C2086 C2087 1.386 . S
C2086 C2088 1.391 . S
C2087 C2086 1.386 . S
C2087 C2091 1.393 . S
C2088 H2077 0.950 . S
C2088 C2086 1.391 . S
C2088 C2089 1.400 . S
C2089 C2083 1.491 . S
C2089 C2088 1.400 . S
C2089 C2090 1.398 . S
C2090 H2078 0.950 . S
C2090 C2089 1.398 . S
C2090 C2091 1.391 . S
C2091 H2079 0.950 . S
C2091 C2087 1.393 . S
C2091 C2090 1.391 . S
H2092 C2100 0.950 . S
H2093 C2105 0.950 . S
H2094 C2102 0.950 . S
H2095 C2104 0.950 . S
H2096 C2106 0.950 . S
H2097 C2108 0.950 . S
H2098 C2110 0.950 . S
H2099 C2111 0.950 . S
C2100 H2092 0.950 . S
C2100 C2101 1.386 . S
C2100 C2102 1.391 . S
C2101 C2100 1.386 . S
C2101 C2105 1.393 . S
C2102 H2094 0.950 . S
C2102 C2100 1.391 . S
C2102 C2103 1.400 . S
C2103 C2102 1.400 . S
C2103 C2104 1.398 . S
C2103 C2109 1.491 . S
C2104 H2095 0.950 . S
C2104 C2103 1.398 . S
C2104 C2105 1.391 . S
C2105 H2093 0.950 . S
C2105 C2101 1.393 . S
C2105 C2104 1.391 . S
C2106 H2096 0.950 . S
C2106 C2107 1.386 . S
C2106 C2108 1.391 . S
C2107 C2106 1.386 . S
C2107 C2111 1.393 . S
C2108 H2097 0.950 . S
C2108 C2106 1.391 . S
C2108 C2109 1.400 . S
C2109 C2103 1.491 . S
C2109 C2108 1.400 . S
C2109 C2110 1.398 . S
C2110 H2098 0.950 . S
C2110 C2109 1.398 . S
C2110 C2111 1.391 . S
C2111 H2099 0.950 . S
C2111 C2107 1.393 . S
C2111 C2110 1.391 . S
H2112 C2120 0.950 . S
H2113 C2125 0.950 . S
H2114 C2122 0.950 . S
H2115 C2124 0.950 . S
H2116 C2126 0.950 . S
H2117 C2128 0.950 . S
H2118 C2130 0.950 . S
H2119 C2131 0.950 . S
C2120 H2112 0.950 . S
C2120 C2121 1.386 . S
C2120 C2122 1.391 . S
C2121 C2120 1.386 . S
C2121 C2125 1.393 . S
C2122 H2114 0.950 . S
C2122 C2120 1.391 . S
C2122 C2123 1.400 . S
C2123 C2122 1.400 . S
C2123 C2124 1.398 . S
C2123 C2129 1.491 . S
C2124 H2115 0.950 . S
C2124 C2123 1.398 . S
C2124 C2125 1.391 . S
C2125 H2113 0.950 . S
C2125 C2121 1.393 . S
C2125 C2124 1.391 . S
C2126 H2116 0.950 . S
C2126 C2127 1.386 . S
C2126 C2128 1.391 . S
C2127 C2126 1.386 . S
C2127 C2131 1.393 . S
C2128 H2117 0.950 . S
C2128 C2126 1.391 . S
C2128 C2129 1.400 . S
C2129 C2123 1.491 . S
C2129 C2128 1.400 . S
C2129 C2130 1.398 . S
C2130 H2118 0.950 . S
C2130 C2129 1.398 . S
C2130 C2131 1.391 . S
C2131 H2119 0.950 . S
C2131 C2127 1.393 . S
C2131 C2130 1.391 . S
H2132 C2140 0.950 . S
H2133 C2145 0.950 . S
H2134 C2142 0.950 . S
H2135 C2144 0.950 . S
H2136 C2146 0.950 . S
H2137 C2148 0.950 . S
H2138 C2150 0.950 . S
H2139 C2151 0.950 . S
C2140 H2132 0.950 . S
C2140 C2141 1.386 . S
C2140 C2142 1.391 . S
C2141 C2140 1.386 . S
C2141 C2145 1.393 . S
C2142 H2134 0.950 . S
C2142 C2140 1.391 . S
C2142 C2143 1.400 . S
C2143 C2142 1.400 . S
C2143 C2144 1.398 . S
C2143 C2149 1.491 . S
C2144 H2135 0.950 . S
C2144 C2143 1.398 . S
C2144 C2145 1.391 . S
C2145 H2133 0.950 . S
C2145 C2141 1.393 . S
C2145 C2144 1.391 . S
C2146 H2136 0.950 . S
C2146 C2147 1.386 . S
C2146 C2148 1.391 . S
C2147 C2146 1.386 . S
C2147 C2151 1.393 . S
C2148 H2137 0.950 . S
C2148 C2146 1.391 . S
C2148 C2149 1.400 . S
C2149 C2143 1.491 . S
C2149 C2148 1.400 . S
C2149 C2150 1.398 . S
C2150 H2138 0.950 . S
C2150 C2149 1.398 . S
C2150 C2151 1.391 . S
C2151 H2139 0.950 . S
C2151 C2147 1.393 . S
C2151 C2150 1.391 . S
H2152 C2160 0.950 . S
H2153 C2165 0.950 . S
H2154 C2162 0.950 . S
H2155 C2164 0.950 . S
H2156 C2166 0.950 . S
H2157 C2168 0.950 . S
H2158 C2170 0.950 . S
H2159 C2171 0.950 . S
C2160 H2152 0.950 . S
C2160 C2161 1.386 . S
C2160 C2162 1.391 . S
C2161 C2160 1.386 . S
C2161 C2165 1.393 . S
C2162 H2154 0.950 . S
C2162 C2160 1.391 . S
C2162 C2163 1.400 . S
C2163 C2162 1.400 . S
C2163 C2164 1.398 . S
C2163 C2169 1.491 . S
C2164 H2155 0.950 . S
C2164 C2163 1.398 . S
C2164 C2165 1.391 . S
C2165 H2153 0.950 . S
C2165 C2161 1.393 . S
C2165 C2164 1.391 . S
C2166 H2156 0.950 . S
C2166 C2167 1.386 . S
C2166 C2168 1.391 . S
C2167 C2166 1.386 . S
C2167 C2171 1.393 . S
C2168 H2157 0.950 . S
C2168 C2166 1.391 . S
C2168 C2169 1.400 . S
C2169 C2163 1.491 . S
C2169 C2168 1.400 . S
C2169 C2170 1.398 . S
C2170 H2158 0.950 . S
C2170 C2169 1.398 . S
C2170 C2171 1.391 . S
C2171 H2159 0.950 . S
C2171 C2167 1.393 . S
C2171 C2170 1.391 . S
H2172 C2180 0.950 . S
H2173 C2185 0.950 . S
H2174 C2182 0.950 . S
H2175 C2184 0.950 . S
H2176 C2186 0.950 . S
H2177 C2188 0.950 . S
H2178 C2190 0.950 . S
H2179 C2191 0.950 . S
C2180 H2172 0.950 . S
C2180 C2181 1.386 . S
C2180 C2182 1.391 . S
C2181 C2180 1.386 . S
C2181 C2185 1.393 . S
C2182 H2174 0.950 . S
C2182 C2180 1.391 . S
C2182 C2183 1.400 . S
C2183 C2182 1.400 . S
C2183 C2184 1.398 . S
C2183 C2189 1.491 . S
C2184 H2175 0.950 . S
C2184 C2183 1.398 . S
C2184 C2185 1.391 . S
C2185 H2173 0.950 . S
C2185 C2181 1.393 . S
C2185 C2184 1.391 . S
C2186 H2176 0.950 . S
C2186 C2187 1.386 . S
C2186 C2188 1.391 . S
C2187 C2186 1.386 . S
C2187 C2191 1.393 . S
C2188 H2177 0.950 . S
C2188 C2186 1.391 . S
C2188 C2189 1.400 . S
C2189 C2183 1.491 . S
C2189 C2188 1.400 . S
C2189 C2190 1.398 . S
C2190 H2178 0.950 . S
C2190 C2189 1.398 . S
C2190 C2191 1.391 . S
C2191 H2179 0.950 . S
C2191 C2187 1.393 . S
C2191 C2190 1.391 . S
H2192 C2200 0.950 . S
H2193 C2205 0.950 . S
H2194 C2202 0.950 . S
H2195 C2204 0.950 . S
H2196 C2206 0.950 . S
H2197 C2208 0.950 . S
H2198 C2210 0.950 . S
H2199 C2211 0.950 . S
C2200 H2192 0.950 . S
C2200 C2201 1.386 . S
C2200 C2202 1.391 . S
C2201 C2200 1.386 . S
C2201 C2205 1.393 . S
C2202 H2194 0.950 . S
C2202 C2200 1.391 . S
C2202 C2203 1.400 . S
C2203 C2202 1.400 . S
C2203 C2204 1.398 . S
C2203 C2209 1.491 . S
C2204 H2195 0.950 . S
C2204 C2203 1.398 . S
C2204 C2205 1.391 . S
C2205 H2193 0.950 . S
C2205 C2201 1.393 . S
C2205 C2204 1.391 . S
C2206 H2196 0.950 . S
C2206 C2207 1.386 . S
C2206 C2208 1.391 . S
C2207 C2206 1.386 . S
C2207 C2211 1.393 . S
C2208 H2197 0.950 . S
C2208 C2206 1.391 . S
C2208 C2209 1.400 . S
C2209 C2203 1.491 . S
C2209 C2208 1.400 . S
C2209 C2210 1.398 . S
C2210 H2198 0.950 . S
C2210 C2209 1.398 . S
C2210 C2211 1.391 . S
C2211 H2199 0.950 . S
C2211 C2207 1.393 . S
C2211 C2210 1.391 . S
H2212 C2220 0.950 . S
H2213 C2225 0.950 . S
H2214 C2222 0.950 . S
H2215 C2224 0.950 . S
H2216 C2226 0.950 . S
H2217 C2228 0.950 . S
H2218 C2230 0.950 . S
H2219 C2231 0.950 . S
C2220 H2212 0.950 . S
C2220 C2221 1.386 . S
C2220 C2222 1.391 . S
C2221 C2220 1.386 . S
C2221 C2225 1.393 . S
C2222 H2214 0.950 . S
C2222 C2220 1.391 . S
C2222 C2223 1.400 . S
C2223 C2222 1.400 . S
C2223 C2224 1.398 . S
C2223 C2229 1.491 . S
C2224 H2215 0.950 . S
C2224 C2223 1.398 . S
C2224 C2225 1.391 . S
C2225 H2213 0.950 . S
C2225 C2221 1.393 . S
C2225 C2224 1.391 . S
C2226 H2216 0.950 . S
C2226 C2227 1.386 . S
C2226 C2228 1.391 . S
C2227 C2226 1.386 . S
C2227 C2231 1.393 . S
C2228 H2217 0.950 . S
C2228 C2226 1.391 . S
C2228 C2229 1.400 . S
C2229 C2223 1.491 . S
C2229 C2228 1.400 . S
C2229 C2230 1.398 . S
C2230 H2218 0.950 . S
C2230 C2229 1.398 . S
C2230 C2231 1.391 . S
C2231 H2219 0.950 . S
C2231 C2227 1.393 . S
C2231 C2230 1.391 . S
H2232 C2240 0.950 . S
H2233 C2245 0.950 . S
H2234 C2242 0.950 . S
H2235 C2244 0.950 . S
H2236 C2246 0.950 . S
H2237 C2248 0.950 . S
H2238 C2250 0.950 . S
H2239 C2251 0.950 . S
C2240 H2232 0.950 . S
C2240 C2241 1.386 . S
C2240 C2242 1.391 . S
C2241 C2240 1.386 . S
C2241 C2245 1.393 . S
C2242 H2234 0.950 . S
C2242 C2240 1.391 . S
C2242 C2243 1.400 . S
C2243 C2242 1.400 . S
C2243 C2244 1.398 . S
C2243 C2249 1.491 . S
C2244 H2235 0.950 . S
C2244 C2243 1.398 . S
C2244 C2245 1.391 . S
C2245 H2233 0.950 . S
C2245 C2241 1.393 . S
C2245 C2244 1.391 . S
C2246 H2236 0.950 . S
C2246 C2247 1.386 . S
C2246 C2248 1.391 . S
C2247 C2246 1.386 . S
C2247 C2251 1.393 . S
C2248 H2237 0.950 . S
C2248 C2246 1.391 . S
C2248 C2249 1.400 . S
C2249 C2243 1.491 . S
C2249 C2248 1.400 . S
C2249 C2250 1.398 . S
C2250 H2238 0.950 . S
C2250 C2249 1.398 . S
C2250 C2251 1.391 . S
C2251 H2239 0.950 . S
C2251 C2247 1.393 . S
C2251 C2250 1.391 . S
H2252 C2260 0.950 . S
H2253 C2265 0.950 . S
H2254 C2262 0.950 . S
H2255 C2264 0.950 . S
H2256 C2266 0.950 . S
H2257 C2268 0.950 . S
H2258 C2270 0.950 . S
H2259 C2271 0.950 . S
C2260 H2252 0.950 . S
C2260 C2261 1.386 . S
C2260 C2262 1.391 . S
C2261 C2260 1.386 . S
C2261 C2265 1.393 . S
C2262 H2254 0.950 . S
C2262 C2260 1.391 . S
C2262 C2263 1.400 . S
C2263 C2262 1.400 . S
C2263 C2264 1.398 . S
C2263 C2269 1.491 . S
C2264 H2255 0.950 . S
C2264 C2263 1.398 . S
C2264 C2265 1.391 . S
C2265 H2253 0.950 . S
C2265 C2261 1.393 . S
C2265 C2264 1.391 . S
C2266 H2256 0.950 . S
C2266 C2267 1.386 . S
C2266 C2268 1.391 . S
C2267 C2266 1.386 . S
C2267 C2271 1.393 . S
C2268 H2257 0.950 . S
C2268 C2266 1.391 . S
C2268 C2269 1.400 . S
C2269 C2263 1.491 . S
C2269 C2268 1.400 . S
C2269 C2270 1.398 . S
C2270 H2258 0.950 . S
C2270 C2269 1.398 . S
C2270 C2271 1.391 . S
C2271 H2259 0.950 . S
C2271 C2267 1.393 . S
C2271 C2270 1.391 . S
H2272 C2280 0.950 . S
H2273 C2285 0.950 . S
H2274 C2282 0.950 . S
H2275 C2284 0.950 . S
H2276 C2286 0.950 . S
H2277 C2288 0.950 . S
H2278 C2290 0.950 . S
H2279 C2291 0.950 . S
C2280 H2272 0.950 . S
C2280 C2281 1.386 . S
C2280 C2282 1.391 . S
C2281 C2280 1.386 . S
C2281 C2285 1.393 . S
C2282 H2274 0.950 . S
C2282 C2280 1.391 . S
C2282 C2283 1.400 . S
C2283 C2282 1.400 . S
C2283 C2284 1.398 . S
C2283 C2289 1.491 . S
C2284 H2275 0.950 . S
C2284 C2283 1.398 . S
C2284 C2285 1.391 . S
C2285 H2273 0.950 . S
C2285 C2281 1.393 . S
C2285 C2284 1.391 . S
C2286 H2276 0.950 . S
C2286 C2287 1.386 . S
C2286 C2288 1.391 . S
C2287 C2286 1.386 . S
C2287 C2291 1.393 . S
C2288 H2277 0.950 . S
C2288 C2286 1.391 . S
C2288 C2289 1.400 . S
C2289 C2283 1.491 . S
C2289 C2288 1.400 . S
C2289 C2290 1.398 . S
C2290 H2278 0.950 . S
C2290 C2289 1.398 . S
C2290 C2291 1.391 . S
C2291 H2279 0.950 . S
C2291 C2287 1.393 . S
C2291 C2290 1.391 . S
H2292 C2300 0.950 . S
H2293 C2305 0.950 . S
H2294 C2302 0.950 . S
H2295 C2304 0.950 . S
H2296 C2306 0.950 . S
H2297 C2308 0.950 . S
H2298 C2310 0.950 . S
H2299 C2311 0.950 . S
C2300 H2292 0.950 . S
C2300 C2301 1.386 . S
C2300 C2302 1.391 . S
C2301 C2300 1.386 . S
C2301 C2305 1.393 . S
C2302 H2294 0.950 . S
C2302 C2300 1.391 . S
C2302 C2303 1.400 . S
C2303 C2302 1.400 . S
C2303 C2304 1.398 . S
C2303 C2309 1.491 . S
C2304 H2295 0.950 . S
C2304 C2303 1.398 . S
C2304 C2305 1.391 . S
C2305 H2293 0.950 . S
C2305 C2301 1.393 . S
C2305 C2304 1.391 . S
C2306 H2296 0.950 . S
C2306 C2307 1.386 . S
C2306 C2308 1.391 . S
C2307 C2306 1.386 . S
C2307 C2311 1.393 . S
C2308 H2297 0.950 . S
C2308 C2306 1.391 . S
C2308 C2309 1.400 . S
C2309 C2303 1.491 . S
C2309 C2308 1.400 . S
C2309 C2310 1.398 . S
C2310 H2298 0.950 . S
C2310 C2309 1.398 . S
C2310 C2311 1.391 . S
C2311 H2299 0.950 . S
C2311 C2307 1.393 . S
C2311 C2310 1.391 . S
H2312 C2320 0.950 . S
H2313 C2325 0.950 . S
H2314 C2322 0.950 . S
H2315 C2324 0.950 . S
H2316 C2326 0.950 . S
H2317 C2328 0.950 . S
H2318 C2330 0.950 . S
H2319 C2331 0.950 . S
C2320 H2312 0.950 . S
C2320 C2321 1.386 . S
C2320 C2322 1.391 . S
C2321 C2320 1.386 . S
C2321 C2325 1.393 . S
C2322 H2314 0.950 . S
C2322 C2320 1.391 . S
C2322 C2323 1.400 . S
C2323 C2322 1.400 . S
C2323 C2324 1.398 . S
C2323 C2329 1.491 . S
C2324 H2315 0.950 . S
C2324 C2323 1.398 . S
C2324 C2325 1.391 . S
C2325 H2313 0.950 . S
C2325 C2321 1.393 . S
C2325 C2324 1.391 . S
C2326 H2316 0.950 . S
C2326 C2327 1.386 . S
C2326 C2328 1.391 . S
C2327 C2326 1.386 . S
C2327 C2331 1.393 . S
C2328 H2317 0.950 . S
C2328 C2326 1.391 . S
C2328 C2329 1.400 . S
C2329 C2323 1.491 . S
C2329 C2328 1.400 . S
C2329 C2330 1.398 . S
C2330 H2318 0.950 . S
C2330 C2329 1.398 . S
C2330 C2331 1.391 . S
C2331 H2319 0.950 . S
C2331 C2327 1.393 . S
C2331 C2330 1.391 . S
H2332 C2340 0.950 . S
H2333 C2345 0.950 . S
H2334 C2342 0.950 . S
H2335 C2344 0.950 . S
H2336 C2346 0.950 . S
H2337 C2348 0.950 . S
H2338 C2350 0.950 . S
H2339 C2351 0.950 . S
C2340 H2332 0.950 . S
C2340 C2341 1.386 . S
C2340 C2342 1.391 . S
C2341 C2340 1.386 . S
C2341 C2345 1.393 . S
C2342 H2334 0.950 . S
C2342 C2340 1.391 . S
C2342 C2343 1.400 . S
C2343 C2342 1.400 . S
C2343 C2344 1.398 . S
C2343 C2349 1.491 . S
C2344 H2335 0.950 . S
C2344 C2343 1.398 . S
C2344 C2345 1.391 . S
C2345 H2333 0.950 . S
C2345 C2341 1.393 . S
C2345 C2344 1.391 . S
C2346 H2336 0.950 . S
C2346 C2347 1.386 . S
C2346 C2348 1.391 . S
C2347 C2346 1.386 . S
C2347 C2351 1.393 . S
C2348 H2337 0.950 . S
C2348 C2346 1.391 . S
C2348 C2349 1.400 . S
C2349 C2343 1.491 . S
C2349 C2348 1.400 . S
C2349 C2350 1.398 . S
C2350 H2338 0.950 . S
C2350 C2349 1.398 . S
C2350 C2351 1.391 . S
C2351 H2339 0.950 . S
C2351 C2347 1.393 . S
C2351 C2350 1.391 . S
H2352 C2360 0.950 . S
H2353 C2365 0.950 . S
H2354 C2362 0.950 . S
H2355 C2364 0.950 . S
H2356 C2366 0.950 . S
H2357 C2368 0.950 . S
H2358 C2370 0.950 . S
H2359 C2371 0.950 . S
C2360 H2352 0.950 . S
C2360 C2361 1.386 . S
C2360 C2362 1.391 . S
C2361 C2360 1.386 . S
C2361 C2365 1.393 . S
C2362 H2354 0.950 . S
C2362 C2360 1.391 . S
C2362 C2363 1.400 . S
C2363 C2362 1.400 . S
C2363 C2364 1.398 . S
C2363 C2369 1.491 . S
C2364 H2355 0.950 . S
C2364 C2363 1.398 . S
C2364 C2365 1.391 . S
C2365 H2353 0.950 . S
C2365 C2361 1.393 . S
C2365 C2364 1.391 . S
C2366 H2356 0.950 . S
C2366 C2367 1.386 . S
C2366 C2368 1.391 . S
C2367 C2366 1.386 . S
C2367 C2371 1.393 . S
C2368 H2357 0.950 . S
C2368 C2366 1.391 . S
C2368 C2369 1.400 . S
C2369 C2363 1.491 . S
C2369 C2368 1.400 . S
C2369 C2370 1.398 . S
C2370 H2358 0.950 . S
C2370 C2369 1.398 . S
C2370 C2371 1.391 . S
C2371 H2359 0.950 . S
C2371 C2367 1.393 . S
C2371 C2370 1.391 . S
H2372 C2380 0.950 . S
H2373 C2385 0.950 . S
H2374 C2382 0.950 . S
H2375 C2384 0.950 . S
H2376 C2386 0.950 . S
H2377 C2388 0.950 . S
H2378 C2390 0.950 . S
H2379 C2391 0.950 . S
C2380 H2372 0.950 . S
C2380 C2381 1.386 . S
C2380 C2382 1.391 . S
C2381 C2380 1.386 . S
C2381 C2385 1.393 . S
C2382 H2374 0.950 . S
C2382 C2380 1.391 . S
C2382 C2383 1.400 . S
C2383 C2382 1.400 . S
C2383 C2384 1.398 . S
C2383 C2389 1.491 . S
C2384 H2375 0.950 . S
C2384 C2383 1.398 . S
C2384 C2385 1.391 . S
C2385 H2373 0.950 . S
C2385 C2381 1.393 . S
C2385 C2384 1.391 . S
C2386 H2376 0.950 . S
C2386 C2387 1.386 . S
C2386 C2388 1.391 . S
C2387 C2386 1.386 . S
C2387 C2391 1.393 . S
C2388 H2377 0.950 . S
C2388 C2386 1.391 . S
C2388 C2389 1.400 . S
C2389 C2383 1.491 . S
C2389 C2388 1.400 . S
C2389 C2390 1.398 . S
C2390 H2378 0.950 . S
C2390 C2389 1.398 . S
C2390 C2391 1.391 . S
C2391 H2379 0.950 . S
C2391 C2387 1.393 . S
C2391 C2390 1.391 . S
H2392 C2400 0.950 . S
H2393 C2405 0.950 . S
H2394 C2402 0.950 . S
H2395 C2404 0.950 . S
H2396 C2406 0.950 . S
H2397 C2408 0.950 . S
H2398 C2410 0.950 . S
H2399 C2411 0.950 . S
C2400 H2392 0.950 . S
C2400 C2401 1.386 . S
C2400 C2402 1.391 . S
C2401 C2400 1.386 . S
C2401 C2405 1.393 . S
C2402 H2394 0.950 . S
C2402 C2400 1.391 . S
C2402 C2403 1.400 . S
C2403 C2402 1.400 . S
C2403 C2404 1.398 . S
C2403 C2409 1.491 . S
C2404 H2395 0.950 . S
C2404 C2403 1.398 . S
C2404 C2405 1.391 . S
C2405 H2393 0.950 . S
C2405 C2401 1.393 . S
C2405 C2404 1.391 . S
C2406 H2396 0.950 . S
C2406 C2407 1.386 . S
C2406 C2408 1.391 . S
C2407 C2406 1.386 . S
C2407 C2411 1.393 . S
C2408 H2397 0.950 . S
C2408 C2406 1.391 . S
C2408 C2409 1.400 . S
C2409 C2403 1.491 . S
C2409 C2408 1.400 . S
C2409 C2410 1.398 . S
C2410 H2398 0.950 . S
C2410 C2409 1.398 . S
C2410 C2411 1.391 . S
C2411 H2399 0.950 . S
C2411 C2407 1.393 . S
C2411 C2410 1.391 . S
H2412 C2420 0.950 . S
H2413 C2425 0.950 . S
H2414 C2422 0.950 . S
H2415 C2424 0.950 . S
H2416 C2426 0.950 . S
H2417 C2428 0.950 . S
H2418 C2430 0.950 . S
H2419 C2431 0.950 . S
C2420 H2412 0.950 . S
C2420 C2421 1.386 . S
C2420 C2422 1.391 . S
C2421 C2420 1.386 . S
C2421 C2425 1.393 . S
C2422 H2414 0.950 . S
C2422 C2420 1.391 . S
C2422 C2423 1.400 . S
C2423 C2422 1.400 . S
C2423 C2424 1.398 . S
C2423 C2429 1.491 . S
C2424 H2415 0.950 . S
C2424 C2423 1.398 . S
C2424 C2425 1.391 . S
C2425 H2413 0.950 . S
C2425 C2421 1.393 . S
C2425 C2424 1.391 . S
C2426 H2416 0.950 . S
C2426 C2427 1.386 . S
C2426 C2428 1.391 . S
C2427 C2426 1.386 . S
C2427 C2431 1.393 . S
C2428 H2417 0.950 . S
C2428 C2426 1.391 . S
C2428 C2429 1.400 . S
C2429 C2423 1.491 . S
C2429 C2428 1.400 . S
C2429 C2430 1.398 . S
C2430 H2418 0.950 . S
C2430 C2429 1.398 . S
C2430 C2431 1.391 . S
C2431 H2419 0.950 . S
C2431 C2427 1.393 . S
C2431 C2430 1.391 . S
H2432 C2440 0.950 . S
H2433 C2445 0.950 . S
H2434 C2442 0.950 . S
H2435 C2444 0.950 . S
H2436 C2446 0.950 . S
H2437 C2448 0.950 . S
H2438 C2450 0.950 . S
H2439 C2451 0.950 . S
C2440 H2432 0.950 . S
C2440 C2441 1.386 . S
C2440 C2442 1.391 . S
C2441 C2440 1.386 . S
C2441 C2445 1.393 . S
C2442 H2434 0.950 . S
C2442 C2440 1.391 . S
C2442 C2443 1.400 . S
C2443 C2442 1.400 . S
C2443 C2444 1.398 . S
C2443 C2449 1.491 . S
C2444 H2435 0.950 . S
C2444 C2443 1.398 . S
C2444 C2445 1.391 . S
C2445 H2433 0.950 . S
C2445 C2441 1.393 . S
C2445 C2444 1.391 . S
C2446 H2436 0.950 . S
C2446 C2447 1.386 . S
C2446 C2448 1.391 . S
C2447 C2446 1.386 . S
C2447 C2451 1.393 . S
C2448 H2437 0.950 . S
C2448 C2446 1.391 . S
C2448 C2449 1.400 . S
C2449 C2443 1.491 . S
C2449 C2448 1.400 . S
C2449 C2450 1.398 . S
C2450 H2438 0.950 . S
C2450 C2449 1.398 . S
C2450 C2451 1.391 . S
C2451 H2439 0.950 . S
C2451 C2447 1.393 . S
C2451 C2450 1.391 . S
H2452 C2460 0.950 . S
H2453 C2465 0.950 . S
H2454 C2462 0.950 . S
H2455 C2464 0.950 . S
H2456 C2466 0.950 . S
H2457 C2468 0.950 . S
H2458 C2470 0.950 . S
H2459 C2471 0.950 . S
C2460 H2452 0.950 . S
C2460 C2461 1.386 . S
C2460 C2462 1.391 . S
C2461 C2460 1.386 . S
C2461 C2465 1.393 . S
C2462 H2454 0.950 . S
C2462 C2460 1.391 . S
C2462 C2463 1.400 . S
C2463 C2462 1.400 . S
C2463 C2464 1.398 . S
C2463 C2469 1.491 . S
C2464 H2455 0.950 . S
C2464 C2463 1.398 . S
C2464 C2465 1.391 . S
C2465 H2453 0.950 . S
C2465 C2461 1.393 . S
C2465 C2464 1.391 . S
C2466 H2456 0.950 . S
C2466 C2467 1.386 . S
C2466 C2468 1.391 . S
C2467 C2466 1.386 . S
C2467 C2471 1.393 . S
C2468 H2457 0.950 . S
C2468 C2466 1.391 . S
C2468 C2469 1.400 . S
C2469 C2463 1.491 . S
C2469 C2468 1.400 . S
C2469 C2470 1.398 . S
C2470 H2458 0.950 . S
C2470 C2469 1.398 . S
C2470 C2471 1.391 . S
C2471 H2459 0.950 . S
C2471 C2467 1.393 . S
C2471 C2470 1.391 . S
H2472 C2480 0.950 . S
H2473 C2485 0.950 . S
H2474 C2482 0.950 . S
H2475 C2484 0.950 . S
H2476 C2486 0.950 . S
H2477 C2488 0.950 . S
H2478 C2490 0.950 . S
H2479 C2491 0.950 . S
C2480 H2472 0.950 . S
C2480 C2481 1.386 . S
C2480 C2482 1.391 . S
C2481 C2480 1.386 . S
C2481 C2485 1.393 . S
C2482 H2474 0.950 . S
C2482 C2480 1.391 . S
C2482 C2483 1.400 . S
C2483 C2482 1.400 . S
C2483 C2484 1.398 . S
C2483 C2489 1.491 . S
C2484 H2475 0.950 . S
C2484 C2483 1.398 . S
C2484 C2485 1.391 . S
C2485 H2473 0.950 . S
C2485 C2481 1.393 . S
C2485 C2484 1.391 . S
C2486 H2476 0.950 . S
C2486 C2487 1.386 . S
C2486 C2488 1.391 . S
C2487 C2486 1.386 . S
C2487 C2491 1.393 . S
C2488 H2477 0.950 . S
C2488 C2486 1.391 . S
C2488 C2489 1.400 . S
C2489 C2483 1.491 . S
C2489 C2488 1.400 . S
C2489 C2490 1.398 . S
C2490 H2478 0.950 . S
C2490 C2489 1.398 . S
C2490 C2491 1.391 . S
C2491 H2479 0.950 . S
C2491 C2487 1.393 . S
C2491 C2490 1.391 . S
H2492 C2500 0.950 . S
H2493 C2505 0.950 . S
H2494 C2502 0.950 . S
H2495 C2504 0.950 . S
H2496 C2506 0.950 . S
H2497 C2508 0.950 . S
H2498 C2510 0.950 . S
H2499 C2511 0.950 . S
C2500 H2492 0.950 . S
C2500 C2501 1.386 . S
C2500 C2502 1.391 . S
C2501 C2500 1.386 . S
C2501 C2505 1.393 . S
C2502 H2494 0.950 . S
C2502 C2500 1.391 . S
C2502 C2503 1.400 . S
C2503 C2502 1.400 . S
C2503 C2504 1.398 . S
C2503 C2509 1.491 . S
C2504 H2495 0.950 . S
C2504 C2503 1.398 . S
C2504 C2505 1.391 . S
C2505 H2493 0.950 . S
C2505 C2501 1.393 . S
C2505 C2504 1.391 . S
C2506 H2496 0.950 . S
C2506 C2507 1.386 . S
C2506 C2508 1.391 . S
C2507 C2506 1.386 . S
C2507 C2511 1.393 . S
C2508 H2497 0.950 . S
C2508 C2506 1.391 . S
C2508 C2509 1.400 . S
C2509 C2503 1.491 . S
C2509 C2508 1.400 . S
C2509 C2510 1.398 . S
C2510 H2498 0.950 . S
C2510 C2509 1.398 . S
C2510 C2511 1.391 . S
C2511 H2499 0.950 . S
C2511 C2507 1.393 . S
C2511 C2510 1.391 . S
H2512 C2520 0.950 . S
H2513 C2525 0.950 . S
H2514 C2522 0.950 . S
H2515 C2524 0.950 . S
H2516 C2526 0.950 . S
H2517 C2528 0.950 . S
H2518 C2530 0.950 . S
H2519 C2531 0.950 . S
C2520 H2512 0.950 . S
C2520 C2521 1.386 . S
C2520 C2522 1.391 . S
C2521 C2520 1.386 . S
C2521 C2525 1.393 . S
C2522 H2514 0.950 . S
C2522 C2520 1.391 . S
C2522 C2523 1.400 . S
C2523 C2522 1.400 . S
C2523 C2524 1.398 . S
C2523 C2529 1.491 . S
C2524 H2515 0.950 . S
C2524 C2523 1.398 . S
C2524 C2525 1.391 . S
C2525 H2513 0.950 . S
C2525 C2521 1.393 . S
C2525 C2524 1.391 . S
C2526 H2516 0.950 . S
C2526 C2527 1.386 . S
C2526 C2528 1.391 . S
C2527 C2526 1.386 . S
C2527 C2531 1.393 . S
C2528 H2517 0.950 . S
C2528 C2526 1.391 . S
C2528 C2529 1.400 . S
C2529 C2523 1.491 . S
C2529 C2528 1.400 . S
C2529 C2530 1.398 . S
C2530 H2518 0.950 . S
C2530 C2529 1.398 . S
C2530 C2531 1.391 . S
C2531 H2519 0.950 . S
C2531 C2527 1.393 . S
C2531 C2530 1.391 . S
H2532 C2540 0.950 . S
H2533 C2545 0.950 . S
H2534 C2542 0.950 . S
H2535 C2544 0.950 . S
H2536 C2546 0.950 . S
H2537 C2548 0.950 . S
H2538 C2550 0.950 . S
H2539 C2551 0.950 . S
C2540 H2532 0.950 . S
C2540 C2541 1.386 . S
C2540 C2542 1.391 . S
C2541 C2540 1.386 . S
C2541 C2545 1.393 . S
C2542 H2534 0.950 . S
C2542 C2540 1.391 . S
C2542 C2543 1.400 . S
C2543 C2542 1.400 . S
C2543 C2544 1.398 . S
C2543 C2549 1.491 . S
C2544 H2535 0.950 . S
C2544 C2543 1.398 . S
C2544 C2545 1.391 . S
C2545 H2533 0.950 . S
C2545 C2541 1.393 . S
C2545 C2544 1.391 . S
C2546 H2536 0.950 . S
C2546 C2547 1.386 . S
C2546 C2548 1.391 . S
C2547 C2546 1.386 . S
C2547 C2551 1.393 . S
C2548 H2537 0.950 . S
C2548 C2546 1.391 . S
C2548 C2549 1.400 . S
C2549 C2543 1.491 . S
C2549 C2548 1.400 . S
C2549 C2550 1.398 . S
C2550 H2538 0.950 . S
C2550 C2549 1.398 . S
C2550 C2551 1.391 . S
C2551 H2539 0.950 . S
C2551 C2547 1.393 . S
C2551 C2550 1.391 . S
H2552 C2560 0.950 . S
H2553 C2565 0.950 . S
H2554 C2562 0.950 . S
H2555 C2564 0.950 . S
H2556 C2566 0.950 . S
H2557 C2568 0.950 . S
H2558 C2570 0.950 . S
H2559 C2571 0.950 . S
C2560 H2552 0.950 . S
C2560 C2561 1.386 . S
C2560 C2562 1.391 . S
C2561 C2560 1.386 . S
C2561 C2565 1.393 . S
C2562 H2554 0.950 . S
C2562 C2560 1.391 . S
C2562 C2563 1.400 . S
C2563 C2562 1.400 . S
C2563 C2564 1.398 . S
C2563 C2569 1.491 . S
C2564 H2555 0.950 . S
C2564 C2563 1.398 . S
C2564 C2565 1.391 . S
C2565 H2553 0.950 . S
C2565 C2561 1.393 . S
C2565 C2564 1.391 . S
C2566 H2556 0.950 . S
C2566 C2567 1.386 . S
C2566 C2568 1.391 . S
C2567 C2566 1.386 . S
C2567 C2571 1.393 . S
C2568 H2557 0.950 . S
C2568 C2566 1.391 . S
C2568 C2569 1.400 . S
C2569 C2563 1.491 . S
C2569 C2568 1.400 . S
C2569 C2570 1.398 . S
C2570 H2558 0.950 . S
C2570 C2569 1.398 . S
C2570 C2571 1.391 . S
C2571 H2559 0.950 . S
C2571 C2567 1.393 . S
C2571 C2570 1.391 . S
H2572 C2580 0.950 . S
H2573 C2585 0.950 . S
H2574 C2582 0.950 . S
H2575 C2584 0.950 . S
H2576 C2586 0.950 . S
H2577 C2588 0.950 . S
H2578 C2590 0.950 . S
H2579 C2591 0.950 . S
C2580 H2572 0.950 . S
C2580 C2581 1.386 . S
C2580 C2582 1.391 . S
C2581 C2580 1.386 . S
C2581 C2585 1.393 . S
C2582 H2574 0.950 . S
C2582 C2580 1.391 . S
C2582 C2583 1.400 . S
C2583 C2582 1.400 . S
C2583 C2584 1.398 . S
C2583 C2589 1.491 . S
C2584 H2575 0.950 . S
C2584 C2583 1.398 . S
C2584 C2585 1.391 . S
C2585 H2573 0.950 . S
C2585 C2581 1.393 . S
C2585 C2584 1.391 . S
C2586 H2576 0.950 . S
C2586 C2587 1.386 . S
C2586 C2588 1.391 . S
C2587 C2586 1.386 . S
C2587 C2591 1.393 . S
C2588 H2577 0.950 . S
C2588 C2586 1.391 . S
C2588 C2589 1.400 . S
C2589 C2583 1.491 . S
C2589 C2588 1.400 . S
C2589 C2590 1.398 . S
C2590 H2578 0.950 . S
C2590 C2589 1.398 . S
C2590 C2591 1.391 . S
C2591 H2579 0.950 . S
C2591 C2587 1.393 . S
C2591 C2590 1.391 . S
H2592 C2600 0.950 . S
H2593 C2605 0.950 . S
H2594 C2602 0.950 . S
H2595 C2604 0.950 . S
H2596 C2606 0.950 . S
H2597 C2608 0.950 . S
H2598 C2610 0.950 . S
H2599 C2611 0.950 . S
C2600 H2592 0.950 . S
C2600 C2601 1.386 . S
C2600 C2602 1.391 . S
C2601 C2600 1.386 . S
C2601 C2605 1.393 . S
C2602 H2594 0.950 . S
C2602 C2600 1.391 . S
C2602 C2603 1.400 . S
C2603 C2602 1.400 . S
C2603 C2604 1.398 . S
C2603 C2609 1.491 . S
C2604 H2595 0.950 . S
C2604 C2603 1.398 . S
C2604 C2605 1.391 . S
C2605 H2593 0.950 . S
C2605 C2601 1.393 . S
C2605 C2604 1.391 . S
C2606 H2596 0.950 . S
C2606 C2607 1.386 . S
C2606 C2608 1.391 . S
C2607 C2606 1.386 . S
C2607 C2611 1.393 . S
C2608 H2597 0.950 . S
C2608 C2606 1.391 . S
C2608 C2609 1.400 . S
C2609 C2603 1.491 . S
C2609 C2608 1.400 . S
C2609 C2610 1.398 . S
C2610 H2598 0.950 . S
C2610 C2609 1.398 . S
C2610 C2611 1.391 . S
C2611 H2599 0.950 . S
C2611 C2607 1.393 . S
C2611 C2610 1.391 . S
H2612 C2620 0.950 . S
H2613 C2625 0.950 . S
H2614 C2622 0.950 . S
H2615 C2624 0.950 . S
H2616 C2626 0.950 . S
H2617 C2628 0.950 . S
H2618 C2630 0.950 . S
H2619 C2631 0.950 . S
C2620 H2612 0.950 . S
C2620 C2621 1.386 . S
C2620 C2622 1.391 . S
C2621 C2620 1.386 . S
C2621 C2625 1.393 . S
C2622 H2614 0.950 . S
C2622 C2620 1.391 . S
C2622 C2623 1.400 . S
C2623 C2622 1.400 . S
C2623 C2624 1.398 . S
C2623 C2629 1.491 . S
C2624 H2615 0.950 . S
C2624 C2623 1.398 . S
C2624 C2625 1.391 . S
C2625 H2613 0.950 . S
C2625 C2621 1.393 . S
C2625 C2624 1.391 . S
C2626 H2616 0.950 . S
C2626 C2627 1.386 . S
C2626 C2628 1.391 . S
C2627 C2626 1.386 . S
C2627 C2631 1.393 . S
C2628 H2617 0.950 . S
C2628 C2626 1.391 . S
C2628 C2629 1.400 . S
C2629 C2623 1.491 . S
C2629 C2628 1.400 . S
C2629 C2630 1.398 . S
C2630 H2618 0.950 . S
C2630 C2629 1.398 . S
C2630 C2631 1.391 . S
C2631 H2619 0.950 . S
C2631 C2627 1.393 . S
C2631 C2630 1.391 . S
H2632 C2640 0.950 . S
H2633 C2645 0.950 . S
H2634 C2642 0.950 . S
H2635 C2644 0.950 . S
H2636 C2646 0.950 . S
H2637 C2648 0.950 . S
H2638 C2650 0.950 . S
H2639 C2651 0.950 . S
C2640 H2632 0.950 . S
C2640 C2641 1.386 . S
C2640 C2642 1.391 . S
C2641 C2640 1.386 . S
C2641 C2645 1.393 . S
C2642 H2634 0.950 . S
C2642 C2640 1.391 . S
C2642 C2643 1.400 . S
C2643 C2642 1.400 . S
C2643 C2644 1.398 . S
C2643 C2649 1.491 . S
C2644 H2635 0.950 . S
C2644 C2643 1.398 . S
C2644 C2645 1.391 . S
C2645 H2633 0.950 . S
C2645 C2641 1.393 . S
C2645 C2644 1.391 . S
C2646 H2636 0.950 . S
C2646 C2647 1.386 . S
C2646 C2648 1.391 . S
C2647 C2646 1.386 . S
C2647 C2651 1.393 . S
C2648 H2637 0.950 . S
C2648 C2646 1.391 . S
C2648 C2649 1.400 . S
C2649 C2643 1.491 . S
C2649 C2648 1.400 . S
C2649 C2650 1.398 . S
C2650 H2638 0.950 . S
C2650 C2649 1.398 . S
C2650 C2651 1.391 . S
C2651 H2639 0.950 . S
C2651 C2647 1.393 . S
C2651 C2650 1.391 . S
H2652 C2660 0.950 . S
H2653 C2665 0.950 . S
H2654 C2662 0.950 . S
H2655 C2664 0.950 . S
H2656 C2666 0.950 . S
H2657 C2668 0.950 . S
H2658 C2670 0.950 . S
H2659 C2671 0.950 . S
C2660 H2652 0.950 . S
C2660 C2661 1.386 . S
C2660 C2662 1.391 . S
C2661 C2660 1.386 . S
C2661 C2665 1.393 . S
C2662 H2654 0.950 . S
C2662 C2660 1.391 . S
C2662 C2663 1.400 . S
C2663 C2662 1.400 . S
C2663 C2664 1.398 . S
C2663 C2669 1.491 . S
C2664 H2655 0.950 . S
C2664 C2663 1.398 . S
C2664 C2665 1.391 . S
C2665 H2653 0.950 . S
C2665 C2661 1.393 . S
C2665 C2664 1.391 . S
C2666 H2656 0.950 . S
C2666 C2667 1.386 . S
C2666 C2668 1.391 . S
C2667 C2666 1.386 . S
C2667 C2671 1.393 . S
C2668 H2657 0.950 . S
C2668 C2666 1.391 . S
C2668 C2669 1.400 . S
C2669 C2663 1.491 . S
C2669 C2668 1.400 . S
C2669 C2670 1.398 . S
C2670 H2658 0.950 . S
C2670 C2669 1.398 . S
C2670 C2671 1.391 . S
C2671 H2659 0.950 . S
C2671 C2667 1.393 . S
C2671 C2670 1.391 . S
H2672 C2680 0.950 . S
H2673 C2685 0.950 . S
H2674 C2682 0.950 . S
H2675 C2684 0.950 . S
H2676 C2686 0.950 . S
H2677 C2688 0.950 . S
H2678 C2690 0.950 . S
H2679 C2691 0.950 . S
C2680 H2672 0.950 . S
C2680 C2681 1.386 . S
C2680 C2682 1.391 . S
C2681 C2680 1.386 . S
C2681 C2685 1.393 . S
C2682 H2674 0.950 . S
C2682 C2680 1.391 . S
C2682 C2683 1.400 . S
C2683 C2682 1.400 . S
C2683 C2684 1.398 . S
C2683 C2689 1.491 . S
C2684 H2675 0.950 . S
C2684 C2683 1.398 . S
C2684 C2685 1.391 . S
C2685 H2673 0.950 . S
C2685 C2681 1.393 . S
C2685 C2684 1.391 . S
C2686 H2676 0.950 . S
C2686 C2687 1.386 . S
C2686 C2688 1.391 . S
C2687 C2686 1.386 . S
C2687 C2691 1.393 . S
C2688 H2677 0.950 . S
C2688 C2686 1.391 . S
C2688 C2689 1.400 . S
C2689 C2683 1.491 . S
C2689 C2688 1.400 . S
C2689 C2690 1.398 . S
C2690 H2678 0.950 . S
C2690 C2689 1.398 . S
C2690 C2691 1.391 . S
C2691 H2679 0.950 . S
C2691 C2687 1.393 . S
C2691 C2690 1.391 . S
H2692 C2700 0.950 . S
H2693 C2705 0.950 . S
H2694 C2702 0.950 . S
H2695 C2704 0.950 . S
H2696 C2706 0.950 . S
H2697 C2708 0.950 . S
H2698 C2710 0.950 . S
H2699 C2711 0.950 . S
C2700 H2692 0.950 . S
C2700 C2701 1.386 . S
C2700 C2702 1.391 . S
C2701 C2700 1.386 . S
C2701 C2705 1.393 . S
C2702 H2694 0.950 . S
C2702 C2700 1.391 . S
C2702 C2703 1.400 . S
C2703 C2702 1.400 . S
C2703 C2704 1.398 . S
C2703 C2709 1.491 . S
C2704 H2695 0.950 . S
C2704 C2703 1.398 . S
C2704 C2705 1.391 . S
C2705 H2693 0.950 . S
C2705 C2701 1.393 . S
C2705 C2704 1.391 . S
C2706 H2696 0.950 . S
C2706 C2707 1.386 . S
C2706 C2708 1.391 . S
C2707 C2706 1.386 . S
C2707 C2711 1.393 . S
C2708 H2697 0.950 . S
C2708 C2706 1.391 . S
C2708 C2709 1.400 . S
C2709 C2703 1.491 . S
C2709 C2708 1.400 . S
C2709 C2710 1.398 . S
C2710 H2698 0.950 . S
C2710 C2709 1.398 . S
C2710 C2711 1.391 . S
C2711 H2699 0.950 . S
C2711 C2707 1.393 . S
C2711 C2710 1.391 . S
H2712 C2720 0.950 . S
H2713 C2725 0.950 . S
H2714 C2722 0.950 . S
H2715 C2724 0.950 . S
H2716 C2726 0.950 . S
H2717 C2728 0.950 . S
H2718 C2730 0.950 . S
H2719 C2731 0.950 . S
C2720 H2712 0.950 . S
C2720 C2721 1.386 . S
C2720 C2722 1.391 . S
C2721 C2720 1.386 . S
C2721 C2725 1.393 . S
C2722 H2714 0.950 . S
C2722 C2720 1.391 . S
C2722 C2723 1.400 . S
C2723 C2722 1.400 . S
C2723 C2724 1.398 . S
C2723 C2729 1.491 . S
C2724 H2715 0.950 . S
C2724 C2723 1.398 . S
C2724 C2725 1.391 . S
C2725 H2713 0.950 . S
C2725 C2721 1.393 . S
C2725 C2724 1.391 . S
C2726 H2716 0.950 . S
C2726 C2727 1.386 . S
C2726 C2728 1.391 . S
C2727 C2726 1.386 . S
C2727 C2731 1.393 . S
C2728 H2717 0.950 . S
C2728 C2726 1.391 . S
C2728 C2729 1.400 . S
C2729 C2723 1.491 . S
C2729 C2728 1.400 . S
C2729 C2730 1.398 . S
C2730 H2718 0.950 . S
C2730 C2729 1.398 . S
C2730 C2731 1.391 . S
C2731 H2719 0.950 . S
C2731 C2727 1.393 . S
C2731 C2730 1.391 . S
H2732 C2740 0.950 . S
H2733 C2745 0.950 . S
H2734 C2742 0.950 . S
H2735 C2744 0.950 . S
H2736 C2746 0.950 . S
H2737 C2748 0.950 . S
H2738 C2750 0.950 . S
H2739 C2751 0.950 . S
C2740 H2732 0.950 . S
C2740 C2741 1.386 . S
C2740 C2742 1.391 . S
C2741 C2740 1.386 . S
C2741 C2745 1.393 . S
C2742 H2734 0.950 . S
C2742 C2740 1.391 . S
C2742 C2743 1.400 . S
C2743 C2742 1.400 . S
C2743 C2744 1.398 . S
C2743 C2749 1.491 . S
C2744 H2735 0.950 . S
C2744 C2743 1.398 . S
C2744 C2745 1.391 . S
C2745 H2733 0.950 . S
C2745 C2741 1.393 . S
C2745 C2744 1.391 . S
C2746 H2736 0.950 . S
C2746 C2747 1.386 . S
C2746 C2748 1.391 . S
C2747 C2746 1.386 . S
C2747 C2751 1.393 . S
C2748 H2737 0.950 . S
C2748 C2746 1.391 . S
C2748 C2749 1.400 . S
C2749 C2743 1.491 . S
C2749 C2748 1.400 . S
C2749 C2750 1.398 . S
C2750 H2738 0.950 . S
C2750 C2749 1.398 . S
C2750 C2751 1.391 . S
C2751 H2739 0.950 . S
C2751 C2747 1.393 . S
C2751 C2750 1.391 . S
H2752 C2760 0.950 . S
H2753 C2765 0.950 . S
H2754 C2762 0.950 . S
H2755 C2764 0.950 . S
H2756 C2766 0.950 . S
H2757 C2768 0.950 . S
H2758 C2770 0.950 . S
H2759 C2771 0.950 . S
C2760 H2752 0.950 . S
C2760 C2761 1.386 . S
C2760 C2762 1.391 . S
C2761 C2760 1.386 . S
C2761 C2765 1.393 . S
C2762 H2754 0.950 . S
C2762 C2760 1.391 . S
C2762 C2763 1.400 . S
C2763 C2762 1.400 . S
C2763 C2764 1.398 . S
C2763 C2769 1.491 . S
C2764 H2755 0.950 . S
C2764 C2763 1.398 . S
C2764 C2765 1.391 . S
C2765 H2753 0.950 . S
C2765 C2761 1.393 . S
C2765 C2764 1.391 . S
C2766 H2756 0.950 . S
C2766 C2767 1.386 . S
C2766 C2768 1.391 . S
C2767 C2766 1.386 . S
C2767 C2771 1.393 . S
C2768 H2757 0.950 . S
C2768 C2766 1.391 . S
C2768 C2769 1.400 . S
C2769 C2763 1.491 . S
C2769 C2768 1.400 . S
C2769 C2770 1.398 . S
C2770 H2758 0.950 . S
C2770 C2769 1.398 . S
C2770 C2771 1.391 . S
C2771 H2759 0.950 . S
C2771 C2767 1.393 . S
C2771 C2770 1.391 . S
H2772 C2780 0.950 . S
H2773 C2785 0.950 . S
H2774 C2782 0.950 . S
H2775 C2784 0.950 . S
H2776 C2786 0.950 . S
H2777 C2788 0.950 . S
H2778 C2790 0.950 . S
H2779 C2791 0.950 . S
C2780 H2772 0.950 . S
C2780 C2781 1.386 . S
C2780 C2782 1.391 . S
C2781 C2780 1.386 . S
C2781 C2785 1.393 . S
C2782 H2774 0.950 . S
C2782 C2780 1.391 . S
C2782 C2783 1.400 . S
C2783 C2782 1.400 . S
C2783 C2784 1.398 . S
C2783 C2789 1.491 . S
C2784 H2775 0.950 . S
C2784 C2783 1.398 . S
C2784 C2785 1.391 . S
C2785 H2773 0.950 . S
C2785 C2781 1.393 . S
C2785 C2784 1.391 . S
C2786 H2776 0.950 . S
C2786 C2787 1.386 . S
C2786 C2788 1.391 . S
C2787 C2786 1.386 . S
C2787 C2791 1.393 . S
C2788 H2777 0.950 . S
C2788 C2786 1.391 . S
C2788 C2789 1.400 . S
C2789 C2783 1.491 . S
C2789 C2788 1.400 . S
C2789 C2790 1.398 . S
C2790 H2778 0.950 . S
C2790 C2789 1.398 . S
C2790 C2791 1.391 . S
C2791 H2779 0.950 . S
C2791 C2787 1.393 . S
C2791 C2790 1.391 . S
H2792 C2800 0.950 . S
H2793 C2805 0.950 . S
H2794 C2802 0.950 . S
H2795 C2804 0.950 . S
H2796 C2806 0.950 . S
H2797 C2808 0.950 . S
H2798 C2810 0.950 . S
H2799 C2811 0.950 . S
C2800 H2792 0.950 . S
C2800 C2801 1.386 . S
C2800 C2802 1.391 . S
C2801 C2800 1.386 . S
C2801 C2805 1.393 . S
C2802 H2794 0.950 . S
C2802 C2800 1.391 . S
C2802 C2803 1.400 . S
C2803 C2802 1.400 . S
C2803 C2804 1.398 . S
C2803 C2809 1.491 . S
C2804 H2795 0.950 . S
C2804 C2803 1.398 . S
C2804 C2805 1.391 . S
C2805 H2793 0.950 . S
C2805 C2801 1.393 . S
C2805 C2804 1.391 . S
C2806 H2796 0.950 . S
C2806 C2807 1.386 . S
C2806 C2808 1.391 . S
C2807 C2806 1.386 . S
C2807 C2811 1.393 . S
C2808 H2797 0.950 . S
C2808 C2806 1.391 . S
C2808 C2809 1.400 . S
C2809 C2803 1.491 . S
C2809 C2808 1.400 . S
C2809 C2810 1.398 . S
C2810 H2798 0.950 . S
C2810 C2809 1.398 . S
C2810 C2811 1.391 . S
C2811 H2799 0.950 . S
C2811 C2807 1.393 . S
C2811 C2810 1.391 . S
H2812 C2820 0.950 . S
H2813 C2825 0.950 . S
H2814 C2822 0.950 . S
H2815 C2824 0.950 . S
H2816 C2826 0.950 . S
H2817 C2828 0.950 . S
H2818 C2830 0.950 . S
H2819 C2831 0.950 . S
C2820 H2812 0.950 . S
C2820 C2821 1.386 . S
C2820 C2822 1.391 . S
C2821 C2820 1.386 . S
C2821 C2825 1.393 . S
C2822 H2814 0.950 . S
C2822 C2820 1.391 . S
C2822 C2823 1.400 . S
C2823 C2822 1.400 . S
C2823 C2824 1.398 . S
C2823 C2829 1.491 . S
C2824 H2815 0.950 . S
C2824 C2823 1.398 . S
C2824 C2825 1.391 . S
C2825 H2813 0.950 . S
C2825 C2821 1.393 . S
C2825 C2824 1.391 . S
C2826 H2816 0.950 . S
C2826 C2827 1.386 . S
C2826 C2828 1.391 . S
C2827 C2826 1.386 . S
C2827 C2831 1.393 . S
C2828 H2817 0.950 . S
C2828 C2826 1.391 . S
C2828 C2829 1.400 . S
C2829 C2823 1.491 . S
C2829 C2828 1.400 . S
C2829 C2830 1.398 . S
C2830 H2818 0.950 . S
C2830 C2829 1.398 . S
C2830 C2831 1.391 . S
C2831 H2819 0.950 . S
C2831 C2827 1.393 . S
C2831 C2830 1.391 . S
H2832 C2840 0.950 . S
H2833 C2845 0.950 . S
H2834 C2842 0.950 . S
H2835 C2844 0.950 . S
H2836 C2846 0.950 . S
H2837 C2848 0.950 . S
H2838 C2850 0.950 . S
H2839 C2851 0.950 . S
C2840 H2832 0.950 . S
C2840 C2841 1.386 . S
C2840 C2842 1.391 . S
C2841 C2840 1.386 . S
C2841 C2845 1.393 . S
C2842 H2834 0.950 . S
C2842 C2840 1.391 . S
C2842 C2843 1.400 . S
C2843 C2842 1.400 . S
C2843 C2844 1.398 . S
C2843 C2849 1.491 . S
C2844 H2835 0.950 . S
C2844 C2843 1.398 . S
C2844 C2845 1.391 . S
C2845 H2833 0.950 . S
C2845 C2841 1.393 . S
C2845 C2844 1.391 . S
C2846 H2836 0.950 . S
C2846 C2847 1.386 . S
C2846 C2848 1.391 . S
C2847 C2846 1.386 . S
C2847 C2851 1.393 . S
C2848 H2837 0.950 . S
C2848 C2846 1.391 . S
C2848 C2849 1.400 . S
C2849 C2843 1.491 . S
C2849 C2848 1.400 . S
C2849 C2850 1.398 . S
C2850 H2838 0.950 . S
C2850 C2849 1.398 . S
C2850 C2851 1.391 . S
C2851 H2839 0.950 . S
C2851 C2847 1.393 . S
C2851 C2850 1.391 . S
H2852 C2860 0.950 . S
H2853 C2865 0.950 . S
H2854 C2862 0.950 . S
H2855 C2864 0.950 . S
H2856 C2866 0.950 . S
H2857 C2868 0.950 . S
H2858 C2870 0.950 . S
H2859 C2871 0.950 . S
C2860 H2852 0.950 . S
C2860 C2861 1.386 . S
C2860 C2862 1.391 . S
C2861 C2860 1.386 . S
C2861 C2865 1.393 . S
C2862 H2854 0.950 . S
C2862 C2860 1.391 . S
C2862 C2863 1.400 . S
C2863 C2862 1.400 . S
C2863 C2864 1.398 . S
C2863 C2869 1.491 . S
C2864 H2855 0.950 . S
C2864 C2863 1.398 . S
C2864 C2865 1.391 . S
C2865 H2853 0.950 . S
C2865 C2861 1.393 . S
C2865 C2864 1.391 . S
C2866 H2856 0.950 . S
C2866 C2867 1.386 . S
C2866 C2868 1.391 . S
C2867 C2866 1.386 . S
C2867 C2871 1.393 . S
C2868 H2857 0.950 . S
C2868 C2866 1.391 . S
C2868 C2869 1.400 . S
C2869 C2863 1.491 . S
C2869 C2868 1.400 . S
C2869 C2870 1.398 . S
C2870 H2858 0.950 . S
C2870 C2869 1.398 . S
C2870 C2871 1.391 . S
C2871 H2859 0.950 . S
C2871 C2867 1.393 . S
C2871 C2870 1.391 . S
H2872 C2880 0.950 . S
H2873 C2885 0.950 . S
H2874 C2882 0.950 . S
H2875 C2884 0.950 . S
H2876 C2886 0.950 . S
H2877 C2888 0.950 . S
H2878 C2890 0.950 . S
H2879 C2891 0.950 . S
C2880 H2872 0.950 . S
C2880 C2881 1.386 . S
C2880 C2882 1.391 . S
C2881 C2880 1.386 . S
C2881 C2885 1.393 . S
C2882 H2874 0.950 . S
C2882 C2880 1.391 . S
C2882 C2883 1.400 . S
C2883 C2882 1.400 . S
C2883 C2884 1.398 . S
C2883 C2889 1.491 . S
C2884 H2875 0.950 . S
C2884 C2883 1.398 . S
C2884 C2885 1.391 . S
C2885 H2873 0.950 . S
C2885 C2881 1.393 . S
C2885 C2884 1.391 . S
C2886 H2876 0.950 . S
C2886 C2887 1.386 . S
C2886 C2888 1.391 . S
C2887 C2886 1.386 . S
C2887 C2891 1.393 . S
C2888 H2877 0.950 . S
C2888 C2886 1.391 . S
C2888 C2889 1.400 . S
C2889 C2883 1.491 . S
C2889 C2888 1.400 . S
C2889 C2890 1.398 . S
C2890 H2878 0.950 . S
C2890 C2889 1.398 . S
C2890 C2891 1.391 . S
C2891 H2879 0.950 . S
C2891 C2887 1.393 . S
C2891 C2890 1.391 . S
H2892 C2900 0.950 . S
H2893 C2905 0.950 . S
H2894 C2902 0.950 . S
H2895 C2904 0.950 . S
H2896 C2906 0.950 . S
H2897 C2908 0.950 . S
H2898 C2910 0.950 . S
H2899 C2911 0.950 . S
C2900 H2892 0.950 . S
C2900 C2901 1.386 . S
C2900 C2902 1.391 . S
C2901 C2900 1.386 . S
C2901 C2905 1.393 . S
C2902 H2894 0.950 . S
C2902 C2900 1.391 . S
C2902 C2903 1.400 . S
C2903 C2902 1.400 . S
C2903 C2904 1.398 . S
C2903 C2909 1.491 . S
C2904 H2895 0.950 . S
C2904 C2903 1.398 . S
C2904 C2905 1.391 . S
C2905 H2893 0.950 . S
C2905 C2901 1.393 . S
C2905 C2904 1.391 . S
C2906 H2896 0.950 . S
C2906 C2907 1.386 . S
C2906 C2908 1.391 . S
C2907 C2906 1.386 . S
C2907 C2911 1.393 . S
C2908 H2897 0.950 . S
C2908 C2906 1.391 . S
C2908 C2909 1.400 . S
C2909 C2903 1.491 . S
C2909 C2908 1.400 . S
C2909 C2910 1.398 . S
C2910 H2898 0.950 . S
C2910 C2909 1.398 . S
C2910 C2911 1.391 . S
C2911 H2899 0.950 . S
C2911 C2907 1.393 . S
C2911 C2910 1.391 . S
H2912 C2920 0.950 . S
H2913 C2925 0.950 . S
H2914 C2922 0.950 . S
H2915 C2924 0.950 . S
H2916 C2926 0.950 . S
H2917 C2928 0.950 . S
H2918 C2930 0.950 . S
H2919 C2931 0.950 . S
C2920 H2912 0.950 . S
C2920 C2921 1.386 . S
C2920 C2922 1.391 . S
C2921 C2920 1.386 . S
C2921 C2925 1.393 . S
C2922 H2914 0.950 . S
C2922 C2920 1.391 . S
C2922 C2923 1.400 . S
C2923 C2922 1.400 . S
C2923 C2924 1.398 . S
C2923 C2929 1.491 . S
C2924 H2915 0.950 . S
C2924 C2923 1.398 . S
C2924 C2925 1.391 . S
C2925 H2913 0.950 . S
C2925 C2921 1.393 . S
C2925 C2924 1.391 . S
C2926 H2916 0.950 . S
C2926 C2927 1.386 . S
C2926 C2928 1.391 . S
C2927 C2926 1.386 . S
C2927 C2931 1.393 . S
C2928 H2917 0.950 . S
C2928 C2926 1.391 . S
C2928 C2929 1.400 . S
C2929 C2923 1.491 . S
C2929 C2928 1.400 . S
C2929 C2930 1.398 . S
C2930 H2918 0.950 . S
C2930 C2929 1.398 . S
C2930 C2931 1.391 . S
C2931 H2919 0.950 . S
C2931 C2927 1.393 . S
C2931 C2930 1.391 . S
H2932 C2940 0.950 . S
H2933 C2945 0.950 . S
H2934 C2942 0.950 . S
H2935 C2944 0.950 . S
H2936 C2946 0.950 . S
H2937 C2948 0.950 . S
H2938 C2950 0.950 . S
H2939 C2951 0.950 . S
C2940 H2932 0.950 . S
C2940 C2941 1.386 . S
C2940 C2942 1.391 . S
C2941 C2940 1.386 . S
C2941 C2945 1.393 . S
C2942 H2934 0.950 . S
C2942 C2940 1.391 . S
C2942 C2943 1.400 . S
C2943 C2942 1.400 . S
C2943 C2944 1.398 . S
C2943 C2949 1.491 . S
C2944 H2935 0.950 . S
C2944 C2943 1.398 . S
C2944 C2945 1.391 . S
C2945 H2933 0.950 . S
C2945 C2941 1.393 . S
C2945 C2944 1.391 . S
C2946 H2936 0.950 . S
C2946 C2947 1.386 . S
C2946 C2948 1.391 . S
C2947 C2946 1.386 . S
C2947 C2951 1.393 . S
C2948 H2937 0.950 . S
C2948 C2946 1.391 . S
C2948 C2949 1.400 . S
C2949 C2943 1.491 . S
C2949 C2948 1.400 . S
C2949 C2950 1.398 . S
C2950 H2938 0.950 . S
C2950 C2949 1.398 . S
C2950 C2951 1.391 . S
C2951 H2939 0.950 . S
C2951 C2947 1.393 . S
C2951 C2950 1.391 . S
H2952 C2960 0.950 . S
H2953 C2965 0.950 . S
H2954 C2962 0.950 . S
H2955 C2964 0.950 . S
H2956 C2966 0.950 . S
H2957 C2968 0.950 . S
H2958 C2970 0.950 . S
H2959 C2971 0.950 . S
C2960 H2952 0.950 . S
C2960 C2961 1.386 . S
C2960 C2962 1.391 . S
C2961 C2960 1.386 . S
C2961 C2965 1.393 . S
C2962 H2954 0.950 . S
C2962 C2960 1.391 . S
C2962 C2963 1.400 . S
C2963 C2962 1.400 . S
C2963 C2964 1.398 . S
C2963 C2969 1.491 . S
C2964 H2955 0.950 . S
C2964 C2963 1.398 . S
C2964 C2965 1.391 . S
C2965 H2953 0.950 . S
C2965 C2961 1.393 . S
C2965 C2964 1.391 . S
C2966 H2956 0.950 . S
C2966 C2967 1.386 . S
C2966 C2968 1.391 . S
C2967 C2966 1.386 . S
C2967 C2971 1.393 . S
C2968 H2957 0.950 . S
C2968 C2966 1.391 . S
C2968 C2969 1.400 . S
C2969 C2963 1.491 . S
C2969 C2968 1.400 . S
C2969 C2970 1.398 . S
C2970 H2958 0.950 . S
C2970 C2969 1.398 . S
C2970 C2971 1.391 . S
C2971 H2959 0.950 . S
C2971 C2967 1.393 . S
C2971 C2970 1.391 . S
H2972 C2980 0.950 . S
H2973 C2985 0.950 . S
H2974 C2982 0.950 . S
H2975 C2984 0.950 . S
H2976 C2986 0.950 . S
H2977 C2988 0.950 . S
H2978 C2990 0.950 . S
H2979 C2991 0.950 . S
C2980 H2972 0.950 . S
C2980 C2981 1.386 . S
C2980 C2982 1.391 . S
C2981 C2980 1.386 . S
C2981 C2985 1.393 . S
C2982 H2974 0.950 . S
C2982 C2980 1.391 . S
C2982 C2983 1.400 . S
C2983 C2982 1.400 . S
C2983 C2984 1.398 . S
C2983 C2989 1.491 . S
C2984 H2975 0.950 . S
C2984 C2983 1.398 . S
C2984 C2985 1.391 . S
C2985 H2973 0.950 . S
C2985 C2981 1.393 . S
C2985 C2984 1.391 . S
C2986 H2976 0.950 . S
C2986 C2987 1.386 . S
C2986 C2988 1.391 . S
C2987 C2986 1.386 . S
C2987 C2991 1.393 . S
C2988 H2977 0.950 . S
C2988 C2986 1.391 . S
C2988 C2989 1.400 . S
C2989 C2983 1.491 . S
C2989 C2988 1.400 . S
C2989 C2990 1.398 . S
C2990 H2978 0.950 . S
C2990 C2989 1.398 . S
C2990 C2991 1.391 . S
C2991 H2979 0.950 . S
C2991 C2987 1.393 . S
C2991 C2990 1.391 . S
H2992 C3000 0.950 . S
H2993 C3005 0.950 . S
H2994 C3002 0.950 . S
H2995 C3004 0.950 . S
H2996 C3006 0.950 . S
H2997 C3008 0.950 . S
H2998 C3010 0.950 . S
H2999 C3011 0.950 . S
C3000 H2992 0.950 . S
C3000 C3001 1.386 . S
C3000 C3002 1.391 . S
C3001 C3000 1.386 . S
C3001 C3005 1.393 . S
C3002 H2994 0.950 . S
C3002 C3000 1.391 . S
C3002 C3003 1.400 . S
C3003 C3002 1.400 . S
C3003 C3004 1.398 . S
C3003 C3009 1.491 . S
C3004 H2995 0.950 . S
C3004 C3003 1.398 . S
C3004 C3005 1.391 . S
C3005 H2993 0.950 . S
C3005 C3001 1.393 . S
C3005 C3004 1.391 . S
C3006 H2996 0.950 . S
C3006 C3007 1.386 . S
C3006 C3008 1.391 . S
C3007 C3006 1.386 . S
C3007 C3011 1.393 . S
C3008 H2997 0.950 . S
C3008 C3006 1.391 . S
C3008 C3009 1.400 . S
C3009 C3003 1.491 . S
C3009 C3008 1.400 . S
C3009 C3010 1.398 . S
C3010 H2998 0.950 . S
C3010 C3009 1.398 . S
C3010 C3011 1.391 . S
C3011 H2999 0.950 . S
C3011 C3007 1.393 . S
C3011 C3010 1.391 . S
H3012 C3020 0.950 . S
H3013 C3025 0.950 . S
H3014 C3022 0.950 . S
H3015 C3024 0.950 . S
H3016 C3026 0.950 . S
H3017 C3028 0.950 . S
H3018 C3030 0.950 . S
H3019 C3031 0.950 . S
C3020 H3012 0.950 . S
C3020 C3021 1.386 . S
C3020 C3022 1.391 . S
C3021 C3020 1.386 . S
C3021 C3025 1.393 . S
C3022 H3014 0.950 . S
C3022 C3020 1.391 . S
C3022 C3023 1.400 . S
C3023 C3022 1.400 . S
C3023 C3024 1.398 . S
C3023 C3029 1.491 . S
C3024 H3015 0.950 . S
C3024 C3023 1.398 . S
C3024 C3025 1.391 . S
C3025 H3013 0.950 . S
C3025 C3021 1.393 . S
C3025 C3024 1.391 . S
C3026 H3016 0.950 . S
C3026 C3027 1.386 . S
C3026 C3028 1.391 . S
C3027 C3026 1.386 . S
C3027 C3031 1.393 . S
C3028 H3017 0.950 . S
C3028 C3026 1.391 . S
C3028 C3029 1.400 . S
C3029 C3023 1.491 . S
C3029 C3028 1.400 . S
C3029 C3030 1.398 . S
C3030 H3018 0.950 . S
C3030 C3029 1.398 . S
C3030 C3031 1.391 . S
C3031 H3019 0.950 . S
C3031 C3027 1.393 . S
C3031 C3030 1.391 . S
H3032 C3040 0.950 . S
H3033 C3045 0.950 . S
H3034 C3042 0.950 . S
H3035 C3044 0.950 . S
H3036 C3046 0.950 . S
H3037 C3048 0.950 . S
H3038 C3050 0.950 . S
H3039 C3051 0.950 . S
C3040 H3032 0.950 . S
C3040 C3041 1.386 . S
C3040 C3042 1.391 . S
C3041 C3040 1.386 . S
C3041 C3045 1.393 . S
C3042 H3034 0.950 . S
C3042 C3040 1.391 . S
C3042 C3043 1.400 . S
C3043 C3042 1.400 . S
C3043 C3044 1.398 . S
C3043 C3049 1.491 . S
C3044 H3035 0.950 . S
C3044 C3043 1.398 . S
C3044 C3045 1.391 . S
C3045 H3033 0.950 . S
C3045 C3041 1.393 . S
C3045 C3044 1.391 . S
C3046 H3036 0.950 . S
C3046 C3047 1.386 . S
C3046 C3048 1.391 . S
C3047 C3046 1.386 . S
C3047 C3051 1.393 . S
C3048 H3037 0.950 . S
C3048 C3046 1.391 . S
C3048 C3049 1.400 . S
C3049 C3043 1.491 . S
C3049 C3048 1.400 . S
C3049 C3050 1.398 . S
C3050 H3038 0.950 . S
C3050 C3049 1.398 . S
C3050 C3051 1.391 . S
C3051 H3039 0.950 . S
C3051 C3047 1.393 . S
C3051 C3050 1.391 . S
H3052 C3060 0.950 . S
H3053 C3065 0.950 . S
H3054 C3062 0.950 . S
H3055 C3064 0.950 . S
H3056 C3066 0.950 . S
H3057 C3068 0.950 . S
H3058 C3070 0.950 . S
H3059 C3071 0.950 . S
C3060 H3052 0.950 . S
C3060 C3061 1.386 . S
C3060 C3062 1.391 . S
C3061 C3060 1.386 . S
C3061 C3065 1.393 . S
C3062 H3054 0.950 . S
C3062 C3060 1.391 . S
C3062 C3063 1.400 . S
C3063 C3062 1.400 . S
C3063 C3064 1.398 . S
C3063 C3069 1.491 . S
C3064 H3055 0.950 . S
C3064 C3063 1.398 . S
C3064 C3065 1.391 . S
C3065 H3053 0.950 . S
C3065 C3061 1.393 . S
C3065 C3064 1.391 . S
C3066 H3056 0.950 . S
C3066 C3067 1.386 . S
C3066 C3068 1.391 . S
C3067 C3066 1.386 . S
C3067 C3071 1.393 . S
C3068 H3057 0.950 . S
C3068 C3066 1.391 . S
C3068 C3069 1.400 . S
C3069 C3063 1.491 . S
C3069 C3068 1.400 . S
C3069 C3070 1.398 . S
C3070 H3058 0.950 . S
C3070 C3069 1.398 . S
C3070 C3071 1.391 . S
C3071 H3059 0.950 . S
C3071 C3067 1.393 . S
C3071 C3070 1.391 . S
H3072 C3080 0.950 . S
H3073 C3085 0.950 . S
H3074 C3082 0.950 . S
H3075 C3084 0.950 . S
H3076 C3086 0.950 . S
H3077 C3088 0.950 . S
H3078 C3090 0.950 . S
H3079 C3091 0.950 . S
C3080 H3072 0.950 . S
C3080 C3081 1.386 . S
C3080 C3082 1.391 . S
C3081 C3080 1.386 . S
C3081 C3085 1.393 . S
C3082 H3074 0.950 . S
C3082 C3080 1.391 . S
C3082 C3083 1.400 . S
C3083 C3082 1.400 . S
C3083 C3084 1.398 . S
C3083 C3089 1.491 . S
C3084 H3075 0.950 . S
C3084 C3083 1.398 . S
C3084 C3085 1.391 . S
C3085 H3073 0.950 . S
C3085 C3081 1.393 . S
C3085 C3084 1.391 . S
C3086 H3076 0.950 . S
C3086 C3087 1.386 . S
C3086 C3088 1.391 . S
C3087 C3086 1.386 . S
C3087 C3091 1.393 . S
C3088 H3077 0.950 . S
C3088 C3086 1.391 . S
C3088 C3089 1.400 . S
C3089 C3083 1.491 . S
C3089 C3088 1.400 . S
C3089 C3090 1.398 . S
C3090 H3078 0.950 . S
C3090 C3089 1.398 . S
C3090 C3091 1.391 . S
C3091 H3079 0.950 . S
C3091 C3087 1.393 . S
C3091 C3090 1.391 . S
H3092 C3100 0.950 . S
H3093 C3105 0.950 . S
H3094 C3102 0.950 . S
H3095 C3104 0.950 . S
H3096 C3106 0.950 . S
H3097 C3108 0.950 . S
H3098 C3110 0.950 . S
H3099 C3111 0.950 . S
C3100 H3092 0.950 . S
C3100 C3101 1.386 . S
C3100 C3102 1.391 . S
C3101 C3100 1.386 . S
C3101 C3105 1.393 . S
C3102 H3094 0.950 . S
C3102 C3100 1.391 . S
C3102 C3103 1.400 . S
C3103 C3102 1.400 . S
C3103 C3104 1.398 . S
C3103 C3109 1.491 . S
C3104 H3095 0.950 . S
C3104 C3103 1.398 . S
C3104 C3105 1.391 . S
C3105 H3093 0.950 . S
C3105 C3101 1.393 . S
C3105 C3104 1.391 . S
C3106 H3096 0.950 . S
C3106 C3107 1.386 . S
C3106 C3108 1.391 . S
C3107 C3106 1.386 . S
C3107 C3111 1.393 . S
C3108 H3097 0.950 . S
C3108 C3106 1.391 . S
C3108 C3109 1.400 . S
C3109 C3103 1.491 . S
C3109 C3108 1.400 . S
C3109 C3110 1.398 . S
C3110 H3098 0.950 . S
C3110 C3109 1.398 . S
C3110 C3111 1.391 . S
C3111 H3099 0.950 . S
C3111 C3107 1.393 . S
C3111 C3110 1.391 . S
H3112 C3120 0.950 . S
H3113 C3125 0.950 . S
H3114 C3122 0.950 . S
H3115 C3124 0.950 . S
H3116 C3126 0.950 . S
H3117 C3128 0.950 . S
H3118 C3130 0.950 . S
H3119 C3131 0.950 . S
C3120 H3112 0.950 . S
C3120 C3121 1.386 . S
C3120 C3122 1.391 . S
C3121 C3120 1.386 . S
C3121 C3125 1.393 . S
C3122 H3114 0.950 . S
C3122 C3120 1.391 . S
C3122 C3123 1.400 . S
C3123 C3122 1.400 . S
C3123 C3124 1.398 . S
C3123 C3129 1.491 . S
C3124 H3115 0.950 . S
C3124 C3123 1.398 . S
C3124 C3125 1.391 . S
C3125 H3113 0.950 . S
C3125 C3121 1.393 . S
C3125 C3124 1.391 . S
C3126 H3116 0.950 . S
C3126 C3127 1.386 . S
C3126 C3128 1.391 . S
C3127 C3126 1.386 . S
C3127 C3131 1.393 . S
C3128 H3117 0.950 . S
C3128 C3126 1.391 . S
C3128 C3129 1.400 . S
C3129 C3123 1.491 . S
C3129 C3128 1.400 . S
C3129 C3130 1.398 . S
C3130 H3118 0.950 . S
C3130 C3129 1.398 . S
C3130 C3131 1.391 . S
C3131 H3119 0.950 . S
C3131 C3127 1.393 . S
C3131 C3130 1.391 . S
H3132 C3140 0.950 . S
H3133 C3145 0.950 . S
H3134 C3142 0.950 . S
H3135 C3144 0.950 . S
H3136 C3146 0.950 . S
H3137 C3148 0.950 . S
H3138 C3150 0.950 . S
H3139 C3151 0.950 . S
C3140 H3132 0.950 . S
C3140 C3141 1.386 . S
C3140 C3142 1.391 . S
C3141 C3140 1.386 . S
C3141 C3145 1.393 . S
C3142 H3134 0.950 . S
C3142 C3140 1.391 . S
C3142 C3143 1.400 . S
C3143 C3142 1.400 . S
C3143 C3144 1.398 . S
C3143 C3149 1.491 . S
C3144 H3135 0.950 . S
C3144 C3143 1.398 . S
C3144 C3145 1.391 . S
C3145 H3133 0.950 . S
C3145 C3141 1.393 . S
C3145 C3144 1.391 . S
C3146 H3136 0.950 . S
C3146 C3147 1.386 . S
C3146 C3148 1.391 . S
C3147 C3146 1.386 . S
C3147 C3151 1.393 . S
C3148 H3137 0.950 . S
C3148 C3146 1.391 . S
C3148 C3149 1.400 . S
C3149 C3143 1.491 . S
C3149 C3148 1.400 . S
C3149 C3150 1.398 . S
C3150 H3138 0.950 . S
C3150 C3149 1.398 . S
C3150 C3151 1.391 . S
C3151 H3139 0.950 . S
C3151 C3147 1.393 . S
C3151 C3150 1.391 . S
H3152 C3160 0.950 . S
H3153 C3165 0.950 . S
H3154 C3162 0.950 . S
H3155 C3164 0.950 . S
H3156 C3166 0.950 . S
H3157 C3168 0.950 . S
H3158 C3170 0.950 . S
H3159 C3171 0.950 . S
C3160 H3152 0.950 . S
C3160 C3161 1.386 . S
C3160 C3162 1.391 . S
C3161 C3160 1.386 . S
C3161 C3165 1.393 . S
C3162 H3154 0.950 . S
C3162 C3160 1.391 . S
C3162 C3163 1.400 . S
C3163 C3162 1.400 . S
C3163 C3164 1.398 . S
C3163 C3169 1.491 . S
C3164 H3155 0.950 . S
C3164 C3163 1.398 . S
C3164 C3165 1.391 . S
C3165 H3153 0.950 . S
C3165 C3161 1.393 . S
C3165 C3164 1.391 . S
C3166 H3156 0.950 . S
C3166 C3167 1.386 . S
C3166 C3168 1.391 . S
C3167 C3166 1.386 . S
C3167 C3171 1.393 . S
C3168 H3157 0.950 . S
C3168 C3166 1.391 . S
C3168 C3169 1.400 . S
C3169 C3163 1.491 . S
C3169 C3168 1.400 . S
C3169 C3170 1.398 . S
C3170 H3158 0.950 . S
C3170 C3169 1.398 . S
C3170 C3171 1.391 . S
C3171 H3159 0.950 . S
C3171 C3167 1.393 . S
C3171 C3170 1.391 . S
H3172 C3180 0.950 . S
H3173 C3185 0.950 . S
H3174 C3182 0.950 . S
H3175 C3184 0.950 . S
H3176 C3186 0.950 . S
H3177 C3188 0.950 . S
H3178 C3190 0.950 . S
H3179 C3191 0.950 . S
C3180 H3172 0.950 . S
C3180 C3181 1.386 . S
C3180 C3182 1.391 . S
C3181 C3180 1.386 . S
C3181 C3185 1.393 . S
C3182 H3174 0.950 . S
C3182 C3180 1.391 . S
C3182 C3183 1.400 . S
C3183 C3182 1.400 . S
C3183 C3184 1.398 . S
C3183 C3189 1.491 . S
C3184 H3175 0.950 . S
C3184 C3183 1.398 . S
C3184 C3185 1.391 . S
C3185 H3173 0.950 . S
C3185 C3181 1.393 . S
C3185 C3184 1.391 . S
C3186 H3176 0.950 . S
C3186 C3187 1.386 . S
C3186 C3188 1.391 . S
C3187 C3186 1.386 . S
C3187 C3191 1.393 . S
C3188 H3177 0.950 . S
C3188 C3186 1.391 . S
C3188 C3189 1.400 . S
C3189 C3183 1.491 . S
C3189 C3188 1.400 . S
C3189 C3190 1.398 . S
C3190 H3178 0.950 . S
C3190 C3189 1.398 . S
C3190 C3191 1.391 . S
C3191 H3179 0.950 . S
C3191 C3187 1.393 . S
C3191 C3190 1.391 . S
H3192 C3200 0.950 . S
H3193 C3205 0.950 . S
H3194 C3202 0.950 . S
H3195 C3204 0.950 . S
H3196 C3206 0.950 . S
H3197 C3208 0.950 . S
H3198 C3210 0.950 . S
H3199 C3211 0.950 . S
C3200 H3192 0.950 . S
C3200 C3201 1.386 . S
C3200 C3202 1.391 . S
C3201 C3200 1.386 . S
C3201 C3205 1.393 . S
C3202 H3194 0.950 . S
C3202 C3200 1.391 . S
C3202 C3203 1.400 . S
C3203 C3202 1.400 . S
C3203 C3204 1.398 . S
C3203 C3209 1.491 . S
C3204 H3195 0.950 . S
C3204 C3203 1.398 . S
C3204 C3205 1.391 . S
C3205 H3193 0.950 . S
C3205 C3201 1.393 . S
C3205 C3204 1.391 . S
C3206 H3196 0.950 . S
C3206 C3207 1.386 . S
C3206 C3208 1.391 . S
C3207 C3206 1.386 . S
C3207 C3211 1.393 . S
C3208 H3197 0.950 . S
C3208 C3206 1.391 . S
C3208 C3209 1.400 . S
C3209 C3203 1.491 . S
C3209 C3208 1.400 . S
C3209 C3210 1.398 . S
C3210 H3198 0.950 . S
C3210 C3209 1.398 . S
C3210 C3211 1.391 . S
C3211 H3199 0.950 . S
C3211 C3207 1.393 . S
C3211 C3210 1.391 . S
H3212 C3220 0.950 . S
H3213 C3225 0.950 . S
H3214 C3222 0.950 . S
H3215 C3224 0.950 . S
H3216 C3226 0.950 . S
H3217 C3228 0.950 . S
H3218 C3230 0.950 . S
H3219 C3231 0.950 . S
C3220 H3212 0.950 . S
C3220 C3221 1.386 . S
C3220 C3222 1.391 . S
C3221 C3220 1.386 . S
C3221 C3225 1.393 . S
C3222 H3214 0.950 . S
C3222 C3220 1.391 . S
C3222 C3223 1.400 . S
C3223 C3222 1.400 . S
C3223 C3224 1.398 . S
C3223 C3229 1.491 . S
C3224 H3215 0.950 . S
C3224 C3223 1.398 . S
C3224 C3225 1.391 . S
C3225 H3213 0.950 . S
C3225 C3221 1.393 . S
C3225 C3224 1.391 . S
C3226 H3216 0.950 . S
C3226 C3227 1.386 . S
C3226 C3228 1.391 . S
C3227 C3226 1.386 . S
C3227 C3231 1.393 . S
C3228 H3217 0.950 . S
C3228 C3226 1.391 . S
C3228 C3229 1.400 . S
C3229 C3223 1.491 . S
C3229 C3228 1.400 . S
C3229 C3230 1.398 . S
C3230 H3218 0.950 . S
C3230 C3229 1.398 . S
C3230 C3231 1.391 . S
C3231 H3219 0.950 . S
C3231 C3227 1.393 . S
C3231 C3230 1.391 . S
H3232 C3240 0.950 . S
H3233 C3245 0.950 . S
H3234 C3242 0.950 . S
H3235 C3244 0.950 . S
H3236 C3246 0.950 . S
H3237 C3248 0.950 . S
H3238 C3250 0.950 . S
H3239 C3251 0.950 . S
C3240 H3232 0.950 . S
C3240 C3241 1.386 . S
C3240 C3242 1.391 . S
C3241 C3240 1.386 . S
C3241 C3245 1.393 . S
C3242 H3234 0.950 . S
C3242 C3240 1.391 . S
C3242 C3243 1.400 . S
C3243 C3242 1.400 . S
C3243 C3244 1.398 . S
C3243 C3249 1.491 . S
C3244 H3235 0.950 . S
C3244 C3243 1.398 . S
C3244 C3245 1.391 . S
C3245 H3233 0.950 . S
C3245 C3241 1.393 . S
C3245 C3244 1.391 . S
C3246 H3236 0.950 . S
C3246 C3247 1.386 . S
C3246 C3248 1.391 . S
C3247 C3246 1.386 . S
C3247 C3251 1.393 . S
C3248 H3237 0.950 . S
C3248 C3246 1.391 . S
C3248 C3249 1.400 . S
C3249 C3243 1.491 . S
C3249 C3248 1.400 . S
C3249 C3250 1.398 . S
C3250 H3238 0.950 . S
C3250 C3249 1.398 . S
C3250 C3251 1.391 . S
C3251 H3239 0.950 . S
C3251 C3247 1.393 . S
C3251 C3250 1.391 . S
H3252 C3260 0.950 . S
H3253 C3265 0.950 . S
H3254 C3262 0.950 . S
H3255 C3264 0.950 . S
H3256 C3266 0.950 . S
H3257 C3268 0.950 . S
H3258 C3270 0.950 . S
H3259 C3271 0.950 . S
C3260 H3252 0.950 . S
C3260 C3261 1.386 . S
C3260 C3262 1.391 . S
C3261 C3260 1.386 . S
C3261 C3265 1.393 . S
C3262 H3254 0.950 . S
C3262 C3260 1.391 . S
C3262 C3263 1.400 . S
C3263 C3262 1.400 . S
C3263 C3264 1.398 . S
C3263 C3269 1.491 . S
C3264 H3255 0.950 . S
C3264 C3263 1.398 . S
C3264 C3265 1.391 . S
C3265 H3253 0.950 . S
C3265 C3261 1.393 . S
C3265 C3264 1.391 . S
C3266 H3256 0.950 . S
C3266 C3267 1.386 . S
C3266 C3268 1.391 . S
C3267 C3266 1.386 . S
C3267 C3271 1.393 . S
C3268 H3257 0.950 . S
C3268 C3266 1.391 . S
C3268 C3269 1.400 . S
C3269 C3263 1.491 . S
C3269 C3268 1.400 . S
C3269 C3270 1.398 . S
C3270 H3258 0.950 . S
C3270 C3269 1.398 . S
C3270 C3271 1.391 . S
C3271 H3259 0.950 . S
C3271 C3267 1.393 . S
C3271 C3270 1.391 . S
H3272 C3280 0.950 . S
H3273 C3285 0.950 . S
H3274 C3282 0.950 . S
H3275 C3284 0.950 . S
H3276 C3286 0.950 . S
H3277 C3288 0.950 . S
H3278 C3290 0.950 . S
H3279 C3291 0.950 . S
C3280 H3272 0.950 . S
C3280 C3281 1.386 . S
C3280 C3282 1.391 . S
C3281 C3280 1.386 . S
C3281 C3285 1.393 . S
C3282 H3274 0.950 . S
C3282 C3280 1.391 . S
C3282 C3283 1.400 . S
C3283 C3282 1.400 . S
C3283 C3284 1.398 . S
C3283 C3289 1.491 . S
C3284 H3275 0.950 . S
C3284 C3283 1.398 . S
C3284 C3285 1.391 . S
C3285 H3273 0.950 . S
C3285 C3281 1.393 . S
C3285 C3284 1.391 . S
C3286 H3276 0.950 . S
C3286 C3287 1.386 . S
C3286 C3288 1.391 . S
C3287 C3286 1.386 . S
C3287 C3291 1.393 . S
C3288 H3277 0.950 . S
C3288 C3286 1.391 . S
C3288 C3289 1.400 . S
C3289 C3283 1.491 . S
C3289 C3288 1.400 . S
C3289 C3290 1.398 . S
C3290 H3278 0.950 . S
C3290 C3289 1.398 . S
C3290 C3291 1.391 . S
C3291 H3279 0.950 . S
C3291 C3287 1.393 . S
C3291 C3290 1.391 . S
H3292 C3300 0.950 . S
H3293 C3305 0.950 . S
H3294 C3302 0.950 . S
H3295 C3304 0.950 . S
H3296 C3306 0.950 . S
H3297 C3308 0.950 . S
H3298 C3310 0.950 . S
H3299 C3311 0.950 . S
C3300 H3292 0.950 . S
C3300 C3301 1.386 . S
C3300 C3302 1.391 . S
C3301 C3300 1.386 . S
C3301 C3305 1.393 . S
C3302 H3294 0.950 . S
C3302 C3300 1.391 . S
C3302 C3303 1.400 . S
C3303 C3302 1.400 . S
C3303 C3304 1.398 . S
C3303 C3309 1.491 . S
C3304 H3295 0.950 . S
C3304 C3303 1.398 . S
C3304 C3305 1.391 . S
C3305 H3293 0.950 . S
C3305 C3301 1.393 . S
C3305 C3304 1.391 . S
C3306 H3296 0.950 . S
C3306 C3307 1.386 . S
C3306 C3308 1.391 . S
C3307 C3306 1.386 . S
C3307 C3311 1.393 . S
C3308 H3297 0.950 . S
C3308 C3306 1.391 . S
C3308 C3309 1.400 . S
C3309 C3303 1.491 . S
C3309 C3308 1.400 . S
C3309 C3310 1.398 . S
C3310 H3298 0.950 . S
C3310 C3309 1.398 . S
C3310 C3311 1.391 . S
C3311 H3299 0.950 . S
C3311 C3307 1.393 . S
C3311 C3310 1.391 . S
H3312 C3320 0.950 . S
H3313 C3325 0.950 . S
H3314 C3322 0.950 . S
H3315 C3324 0.950 . S
H3316 C3326 0.950 . S
H3317 C3328 0.950 . S
H3318 C3330 0.950 . S
H3319 C3331 0.950 . S
C3320 H3312 0.950 . S
C3320 C3321 1.386 . S
C3320 C3322 1.391 . S
C3321 C3320 1.386 . S
C3321 C3325 1.393 . S
C3322 H3314 0.950 . S
C3322 C3320 1.391 . S
C3322 C3323 1.400 . S
C3323 C3322 1.400 . S
C3323 C3324 1.398 . S
C3323 C3329 1.491 . S
C3324 H3315 0.950 . S
C3324 C3323 1.398 . S
C3324 C3325 1.391 . S
C3325 H3313 0.950 . S
C3325 C3321 1.393 . S
C3325 C3324 1.391 . S
C3326 H3316 0.950 . S
C3326 C3327 1.386 . S
C3326 C3328 1.391 . S
C3327 C3326 1.386 . S
C3327 C3331 1.393 . S
C3328 H3317 0.950 . S
C3328 C3326 1.391 . S
C3328 C3329 1.400 . S
C3329 C3323 1.491 . S
C3329 C3328 1.400 . S
C3329 C3330 1.398 . S
C3330 H3318 0.950 . S
C3330 C3329 1.398 . S
C3330 C3331 1.391 . S
C3331 H3319 0.950 . S
C3331 C3327 1.393 . S
C3331 C3330 1.391 . S
H3332 C3340 0.950 . S
H3333 C3345 0.950 . S
H3334 C3342 0.950 . S
H3335 C3344 0.950 . S
H3336 C3346 0.950 . S
H3337 C3348 0.950 . S
H3338 C3350 0.950 . S
H3339 C3351 0.950 . S
C3340 H3332 0.950 . S
C3340 C3341 1.386 . S
C3340 C3342 1.391 . S
C3341 C3340 1.386 . S
C3341 C3345 1.393 . S
C3342 H3334 0.950 . S
C3342 C3340 1.391 . S
C3342 C3343 1.400 . S
C3343 C3342 1.400 . S
C3343 C3344 1.398 . S
C3343 C3349 1.491 . S
C3344 H3335 0.950 . S
C3344 C3343 1.398 . S
C3344 C3345 1.391 . S
C3345 H3333 0.950 . S
C3345 C3341 1.393 . S
C3345 C3344 1.391 . S
C3346 H3336 0.950 . S
C3346 C3347 1.386 . S
C3346 C3348 1.391 . S
C3347 C3346 1.386 . S
C3347 C3351 1.393 . S
C3348 H3337 0.950 . S
C3348 C3346 1.391 . S
C3348 C3349 1.400 . S
C3349 C3343 1.491 . S
C3349 C3348 1.400 . S
C3349 C3350 1.398 . S
C3350 H3338 0.950 . S
C3350 C3349 1.398 . S
C3350 C3351 1.391 . S
C3351 H3339 0.950 . S
C3351 C3347 1.393 . S
C3351 C3350 1.391 . S
H3352 C3360 0.950 . S
H3353 C3365 0.950 . S
H3354 C3362 0.950 . S
H3355 C3364 0.950 . S
H3356 C3366 0.950 . S
H3357 C3368 0.950 . S
H3358 C3370 0.950 . S
H3359 C3371 0.950 . S
C3360 H3352 0.950 . S
C3360 C3361 1.386 . S
C3360 C3362 1.391 . S
C3361 C3360 1.386 . S
C3361 C3365 1.393 . S
C3362 H3354 0.950 . S
C3362 C3360 1.391 . S
C3362 C3363 1.400 . S
C3363 C3362 1.400 . S
C3363 C3364 1.398 . S
C3363 C3369 1.491 . S
C3364 H3355 0.950 . S
C3364 C3363 1.398 . S
C3364 C3365 1.391 . S
C3365 H3353 0.950 . S
C3365 C3361 1.393 . S
C3365 C3364 1.391 . S
C3366 H3356 0.950 . S
C3366 C3367 1.386 . S
C3366 C3368 1.391 . S
C3367 C3366 1.386 . S
C3367 C3371 1.393 . S
C3368 H3357 0.950 . S
C3368 C3366 1.391 . S
C3368 C3369 1.400 . S
C3369 C3363 1.491 . S
C3369 C3368 1.400 . S
C3369 C3370 1.398 . S
C3370 H3358 0.950 . S
C3370 C3369 1.398 . S
C3370 C3371 1.391 . S
C3371 H3359 0.950 . S
C3371 C3367 1.393 . S
C3371 C3370 1.391 . S
H3372 C3380 0.950 . S
H3373 C3385 0.950 . S
H3374 C3382 0.950 . S
H3375 C3384 0.950 . S
H3376 C3386 0.950 . S
H3377 C3388 0.950 . S
H3378 C3390 0.950 . S
H3379 C3391 0.950 . S
C3380 H3372 0.950 . S
C3380 C3381 1.386 . S
C3380 C3382 1.391 . S
C3381 C3380 1.386 . S
C3381 C3385 1.393 . S
C3382 H3374 0.950 . S
C3382 C3380 1.391 . S
C3382 C3383 1.400 . S
C3383 C3382 1.400 . S
C3383 C3384 1.398 . S
C3383 C3389 1.491 . S
C3384 H3375 0.950 . S
C3384 C3383 1.398 . S
C3384 C3385 1.391 . S
C3385 H3373 0.950 . S
C3385 C3381 1.393 . S
C3385 C3384 1.391 . S
C3386 H3376 0.950 . S
C3386 C3387 1.386 . S
C3386 C3388 1.391 . S
C3387 C3386 1.386 . S
C3387 C3391 1.393 . S
C3388 H3377 0.950 . S
C3388 C3386 1.391 . S
C3388 C3389 1.400 . S
C3389 C3383 1.491 . S
C3389 C3388 1.400 . S
C3389 C3390 1.398 . S
C3390 H3378 0.950 . S
C3390 C3389 1.398 . S
C3390 C3391 1.391 . S
C3391 H3379 0.950 . S
C3391 C3387 1.393 . S
C3391 C3390 1.391 . S
H3392 C3400 0.950 . S
H3393 C3405 0.950 . S
H3394 C3402 0.950 . S
H3395 C3404 0.950 . S
H3396 C3406 0.950 . S
H3397 C3408 0.950 . S
H3398 C3410 0.950 . S
H3399 C3411 0.950 . S
C3400 H3392 0.950 . S
C3400 C3401 1.386 . S
C3400 C3402 1.391 . S
C3401 C3400 1.386 . S
C3401 C3405 1.393 . S
C3402 H3394 0.950 . S
C3402 C3400 1.391 . S
C3402 C3403 1.400 . S
C3403 C3402 1.400 . S
C3403 C3404 1.398 . S
C3403 C3409 1.491 . S
C3404 H3395 0.950 . S
C3404 C3403 1.398 . S
C3404 C3405 1.391 . S
C3405 H3393 0.950 . S
C3405 C3401 1.393 . S
C3405 C3404 1.391 . S
C3406 H3396 0.950 . S
C3406 C3407 1.386 . S
C3406 C3408 1.391 . S
C3407 C3406 1.386 . S
C3407 C3411 1.393 . S
C3408 H3397 0.950 . S
C3408 C3406 1.391 . S
C3408 C3409 1.400 . S
C3409 C3403 1.491 . S
C3409 C3408 1.400 . S
C3409 C3410 1.398 . S
C3410 H3398 0.950 . S
C3410 C3409 1.398 . S
C3410 C3411 1.391 . S
C3411 H3399 0.950 . S
C3411 C3407 1.393 . S
C3411 C3410 1.391 . S
H3412 C3420 0.950 . S
H3413 C3425 0.950 . S
H3414 C3422 0.950 . S
H3415 C3424 0.950 . S
H3416 C3426 0.950 . S
H3417 C3428 0.950 . S
H3418 C3430 0.950 . S
H3419 C3431 0.950 . S
C3420 H3412 0.950 . S
C3420 C3421 1.386 . S
C3420 C3422 1.391 . S
C3421 C3420 1.386 . S
C3421 C3425 1.393 . S
C3422 H3414 0.950 . S
C3422 C3420 1.391 . S
C3422 C3423 1.400 . S
C3423 C3422 1.400 . S
C3423 C3424 1.398 . S
C3423 C3429 1.491 . S
C3424 H3415 0.950 . S
C3424 C3423 1.398 . S
C3424 C3425 1.391 . S
C3425 H3413 0.950 . S
C3425 C3421 1.393 . S
C3425 C3424 1.391 . S
C3426 H3416 0.950 . S
C3426 C3427 1.386 . S
C3426 C3428 1.391 . S
C3427 C3426 1.386 . S
C3427 C3431 1.393 . S
C3428 H3417 0.950 . S
C3428 C3426 1.391 . S
C3428 C3429 1.400 . S
C3429 C3423 1.491 . S
C3429 C3428 1.400 . S
C3429 C3430 1.398 . S
C3430 H3418 0.950 . S
C3430 C3429 1.398 . S
C3430 C3431 1.391 . S
C3431 H3419 0.950 . S
C3431 C3427 1.393 . S
C3431 C3430 1.391 . S
H3432 C3440 0.950 . S
H3433 C3445 0.950 . S
H3434 C3442 0.950 . S
H3435 C3444 0.950 . S
H3436 C3446 0.950 . S
H3437 C3448 0.950 . S
H3438 C3450 0.950 . S
H3439 C3451 0.950 . S
C3440 H3432 0.950 . S
C3440 C3441 1.386 . S
C3440 C3442 1.391 . S
C3441 C3440 1.386 . S
C3441 C3445 1.393 . S
C3442 H3434 0.950 . S
C3442 C3440 1.391 . S
C3442 C3443 1.400 . S
C3443 C3442 1.400 . S
C3443 C3444 1.398 . S
C3443 C3449 1.491 . S
C3444 H3435 0.950 . S
C3444 C3443 1.398 . S
C3444 C3445 1.391 . S
C3445 H3433 0.950 . S
C3445 C3441 1.393 . S
C3445 C3444 1.391 . S
C3446 H3436 0.950 . S
C3446 C3447 1.386 . S
C3446 C3448 1.391 . S
C3447 C3446 1.386 . S
C3447 C3451 1.393 . S
C3448 H3437 0.950 . S
C3448 C3446 1.391 . S
C3448 C3449 1.400 . S
C3449 C3443 1.491 . S
C3449 C3448 1.400 . S
C3449 C3450 1.398 . S
C3450 H3438 0.950 . S
C3450 C3449 1.398 . S
C3450 C3451 1.391 . S
C3451 H3439 0.950 . S
C3451 C3447 1.393 . S
C3451 C3450 1.391 . S
H3452 C3460 0.950 . S
H3453 C3465 0.950 . S
H3454 C3462 0.950 . S
H3455 C3464 0.950 . S
H3456 C3466 0.950 . S
H3457 C3468 0.950 . S
H3458 C3470 0.950 . S
H3459 C3471 0.950 . S
C3460 H3452 0.950 . S
C3460 C3461 1.386 . S
C3460 C3462 1.391 . S
C3461 C3460 1.386 . S
C3461 C3465 1.393 . S
C3462 H3454 0.950 . S
C3462 C3460 1.391 . S
C3462 C3463 1.400 . S
C3463 C3462 1.400 . S
C3463 C3464 1.398 . S
C3463 C3469 1.491 . S
C3464 H3455 0.950 . S
C3464 C3463 1.398 . S
C3464 C3465 1.391 . S
C3465 H3453 0.950 . S
C3465 C3461 1.393 . S
C3465 C3464 1.391 . S
C3466 H3456 0.950 . S
C3466 C3467 1.386 . S
C3466 C3468 1.391 . S
C3467 C3466 1.386 . S
C3467 C3471 1.393 . S
C3468 H3457 0.950 . S
C3468 C3466 1.391 . S
C3468 C3469 1.400 . S
C3469 C3463 1.491 . S
C3469 C3468 1.400 . S
C3469 C3470 1.398 . S
C3470 H3458 0.950 . S
C3470 C3469 1.398 . S
C3470 C3471 1.391 . S
C3471 H3459 0.950 . S
C3471 C3467 1.393 . S
C3471 C3470 1.391 . S
H3472 C3480 0.950 . S
H3473 C3485 0.950 . S
H3474 C3482 0.950 . S
H3475 C3484 0.950 . S
H3476 C3486 0.950 . S
H3477 C3488 0.950 . S
H3478 C3490 0.950 . S
H3479 C3491 0.950 . S
C3480 H3472 0.950 . S
C3480 C3481 1.386 . S
C3480 C3482 1.391 . S
C3481 C3480 1.386 . S
C3481 C3485 1.393 . S
C3482 H3474 0.950 . S
C3482 C3480 1.391 . S
C3482 C3483 1.400 . S
C3483 C3482 1.400 . S
C3483 C3484 1.398 . S
C3483 C3489 1.491 . S
C3484 H3475 0.950 . S
C3484 C3483 1.398 . S
C3484 C3485 1.391 . S
C3485 H3473 0.950 . S
C3485 C3481 1.393 . S
C3485 C3484 1.391 . S
C3486 H3476 0.950 . S
C3486 C3487 1.386 . S
C3486 C3488 1.391 . S
C3487 C3486 1.386 . S
C3487 C3491 1.393 . S
C3488 H3477 0.950 . S
C3488 C3486 1.391 . S
C3488 C3489 1.400 . S
C3489 C3483 1.491 . S
C3489 C3488 1.400 . S
C3489 C3490 1.398 . S
C3490 H3478 0.950 . S
C3490 C3489 1.398 . S
C3490 C3491 1.391 . S
C3491 H3479 0.950 . S
C3491 C3487 1.393 . S
C3491 C3490 1.391 . S
H3492 C3500 0.950 . S
H3493 C3505 0.950 . S
H3494 C3502 0.950 . S
H3495 C3504 0.950 . S
H3496 C3506 0.950 . S
H3497 C3508 0.950 . S
H3498 C3510 0.950 . S
H3499 C3511 0.950 . S
C3500 H3492 0.950 . S
C3500 C3501 1.386 . S
C3500 C3502 1.391 . S
C3501 C3500 1.386 . S
C3501 C3505 1.393 . S
C3502 H3494 0.950 . S
C3502 C3500 1.391 . S
C3502 C3503 1.400 . S
C3503 C3502 1.400 . S
C3503 C3504 1.398 . S
C3503 C3509 1.491 . S
C3504 H3495 0.950 . S
C3504 C3503 1.398 . S
C3504 C3505 1.391 . S
C3505 H3493 0.950 . S
C3505 C3501 1.393 . S
C3505 C3504 1.391 . S
C3506 H3496 0.950 . S
C3506 C3507 1.386 . S
C3506 C3508 1.391 . S
C3507 C3506 1.386 . S
C3507 C3511 1.393 . S
C3508 H3497 0.950 . S
C3508 C3506 1.391 . S
C3508 C3509 1.400 . S
C3509 C3503 1.491 . S
C3509 C3508 1.400 . S
C3509 C3510 1.398 . S
C3510 H3498 0.950 . S
C3510 C3509 1.398 . S
C3510 C3511 1.391 . S
C3511 H3499 0.950 . S
C3511 C3507 1.393 . S
C3511 C3510 1.391 . S
H3512 C3520 0.950 . S
H3513 C3525 0.950 . S
H3514 C3522 0.950 . S
H3515 C3524 0.950 . S
H3516 C3526 0.950 . S
H3517 C3528 0.950 . S
H3518 C3530 0.950 . S
H3519 C3531 0.950 . S
C3520 H3512 0.950 . S
C3520 C3521 1.386 . S
C3520 C3522 1.391 . S
C3521 C3520 1.386 . S
C3521 C3525 1.393 . S
C3522 H3514 0.950 . S
C3522 C3520 1.391 . S
C3522 C3523 1.400 . S
C3523 C3522 1.400 . S
C3523 C3524 1.398 . S
C3523 C3529 1.491 . S
C3524 H3515 0.950 . S
C3524 C3523 1.398 . S
C3524 C3525 1.391 . S
C3525 H3513 0.950 . S
C3525 C3521 1.393 . S
C3525 C3524 1.391 . S
C3526 H3516 0.950 . S
C3526 C3527 1.386 . S
C3526 C3528 1.391 . S
C3527 C3526 1.386 . S
C3527 C3531 1.393 . S
C3528 H3517 0.950 . S
C3528 C3526 1.391 . S
C3528 C3529 1.400 . S
C3529 C3523 1.491 . S
C3529 C3528 1.400 . S
C3529 C3530 1.398 . S
C3530 H3518 0.950 . S
C3530 C3529 1.398 . S
C3530 C3531 1.391 . S
C3531 H3519 0.950 . S
C3531 C3527 1.393 . S
C3531 C3530 1.391 . S
H3532 C3540 0.950 . S
H3533 C3545 0.950 . S
H3534 C3542 0.950 . S
H3535 C3544 0.950 . S
H3536 C3546 0.950 . S
H3537 C3548 0.950 . S
H3538 C3550 0.950 . S
H3539 C3551 0.950 . S
C3540 H3532 0.950 . S
C3540 C3541 1.386 . S
C3540 C3542 1.391 . S
C3541 C3540 1.386 . S
C3541 C3545 1.393 . S
C3542 H3534 0.950 . S
C3542 C3540 1.391 . S
C3542 C3543 1.400 . S
C3543 C3542 1.400 . S
C3543 C3544 1.398 . S
C3543 C3549 1.491 . S
C3544 H3535 0.950 . S
C3544 C3543 1.398 . S
C3544 C3545 1.391 . S
C3545 H3533 0.950 . S
C3545 C3541 1.393 . S
C3545 C3544 1.391 . S
C3546 H3536 0.950 . S
C3546 C3547 1.386 . S
C3546 C3548 1.391 . S
C3547 C3546 1.386 . S
C3547 C3551 1.393 . S
C3548 H3537 0.950 . S
C3548 C3546 1.391 . S
C3548 C3549 1.400 . S
C3549 C3543 1.491 . S
C3549 C3548 1.400 . S
C3549 C3550 1.398 . S
C3550 H3538 0.950 . S
C3550 C3549 1.398 . S
C3550 C3551 1.391 . S
C3551 H3539 0.950 . S
C3551 C3547 1.393 . S
C3551 C3550 1.391 . S
H3552 C3560 0.950 . S
H3553 C3565 0.950 . S
H3554 C3562 0.950 . S
H3555 C3564 0.950 . S
H3556 C3566 0.950 1_655 S
H3557 C3568 0.950 1_655 S
H3558 C3570 0.950 . S
H3559 C3571 0.950 . S
C3560 H3552 0.950 . S
C3560 C3561 1.386 . S
C3560 C3562 1.391 . S
C3561 C3560 1.386 . S
C3561 C3565 1.393 1_455 S
C3562 H3554 0.950 . S
C3562 C3560 1.391 . S
C3562 C3563 1.400 . S
C3563 C3562 1.400 . S
C3563 C3564 1.398 1_455 S
C3563 C3569 1.491 . S
C3564 H3555 0.950 . S
C3564 C3563 1.398 1_655 S
C3564 C3565 1.391 . S
C3565 H3553 0.950 . S
C3565 C3561 1.393 1_655 S
C3565 C3564 1.391 . S
C3566 H3556 0.950 1_455 S
C3566 C3567 1.386 . S
C3566 C3568 1.391 . S
C3567 C3566 1.386 . S
C3567 C3571 1.393 . S
C3568 H3557 0.950 1_455 S
C3568 C3566 1.391 . S
C3568 C3569 1.400 . S
C3569 C3563 1.491 . S
C3569 C3568 1.400 . S
C3569 C3570 1.398 . S
C3570 H3558 0.950 . S
C3570 C3569 1.398 . S
C3570 C3571 1.391 . S
C3571 H3559 0.950 . S
C3571 C3567 1.393 . S
C3571 C3570 1.391 . S
H3572 C3580 0.950 . S
H3573 C3585 0.950 . S
H3574 C3582 0.950 . S
H3575 C3584 0.950 . S
H3576 C3586 0.958 . S
H3577 C3588 0.950 . S
H3578 C3590 0.950 . S
H3579 C3591 0.950 . S
C3580 H3572 0.950 . S
C3580 C3581 1.386 . S
C3580 C3582 1.391 . S
C3581 C3580 1.386 . S
C3581 C3585 1.393 . S
C3582 H3574 0.950 . S
C3582 C3580 1.391 . S
C3582 C3583 1.400 . S
C3583 C3582 1.400 . S
C3583 C3584 1.398 . S
C3583 C3589 1.491 . S
C3584 H3575 0.950 . S
C3584 C3583 1.398 . S
C3584 C3585 1.391 . S
C3585 H3573 0.950 . S
C3585 C3581 1.393 . S
C3585 C3584 1.391 . S
C3586 H3576 0.958 . S
C3586 C3587 1.386 . S
C3586 C3588 1.391 . S
C3587 C3586 1.386 . S
C3587 C3591 1.393 . S
C3588 H3577 0.950 . S
C3588 C3586 1.391 . S
C3588 C3589 1.400 . S
C3589 C3583 1.491 . S
C3589 C3588 1.400 . S
C3589 C3590 1.398 . S
C3590 H3578 0.950 . S
C3590 C3589 1.398 . S
C3590 C3591 1.391 . S
C3591 H3579 0.950 . S
C3591 C3587 1.393 . S
C3591 C3590 1.391 . S
H3592 C3600 0.950 . S
H3593 C3605 0.950 . S
H3594 C3602 0.950 . S
H3595 C3604 0.950 . S
H3596 C3606 0.950 . S
H3597 C3608 0.950 . S
H3598 C3610 0.950 1_655 S
H3599 C3611 0.950 1_655 S
C3600 H3592 0.950 . S
C3600 C3601 1.386 1_655 S
C3600 C3602 1.391 . S
C3601 C3600 1.386 1_455 S
C3601 C3605 1.393 . S
C3602 H3594 0.950 . S
C3602 C3600 1.391 . S
C3602 C3603 1.400 1_655 S
C3603 C3602 1.400 1_455 S
C3603 C3604 1.398 . S
C3603 C3609 1.491 . S
C3604 H3595 0.950 . S
C3604 C3603 1.398 . S
C3604 C3605 1.391 . S
C3605 H3593 0.950 . S
C3605 C3601 1.393 . S
C3605 C3604 1.391 . S
C3606 H3596 0.950 . S
C3606 C3607 1.386 . S
C3606 C3608 1.391 . S
C3607 C3606 1.386 . S
C3607 C3611 1.393 . S
C3608 H3597 0.950 . S
C3608 C3606 1.391 . S
C3608 C3609 1.400 . S
C3609 C3603 1.491 . S
C3609 C3608 1.400 . S
C3609 C3610 1.398 . S
C3610 H3598 0.950 1_455 S
C3610 C3609 1.398 . S
C3610 C3611 1.391 . S
C3611 H3599 0.950 1_455 S
C3611 C3607 1.393 . S
C3611 C3610 1.391 . S
H3612 C3620 0.950 . S
H3613 C3625 0.958 . S
H3614 C3622 0.950 . S
H3615 C3624 0.950 . S
H3616 C3626 0.950 . S
H3617 C3628 0.950 . S
H3618 C3630 0.950 . S
H3619 C3631 0.950 . S
C3620 H3612 0.950 . S
C3620 C3621 1.386 . S
C3620 C3622 1.391 . S
C3621 C3620 1.386 . S
C3621 C3625 1.393 . S
C3622 H3614 0.950 . S
C3622 C3620 1.391 . S
C3622 C3623 1.400 . S
C3623 C3622 1.400 . S
C3623 C3624 1.398 . S
C3623 C3629 1.491 . S
C3624 H3615 0.950 . S
C3624 C3623 1.398 . S
C3624 C3625 1.391 . S
C3625 H3613 0.958 . S
C3625 C3621 1.393 . S
C3625 C3624 1.391 . S
C3626 H3616 0.950 . S
C3626 C3627 1.386 . S
C3626 C3628 1.391 . S
C3627 C3626 1.386 . S
C3627 C3631 1.393 . S
C3628 H3617 0.950 . S
C3628 C3626 1.391 . S
C3628 C3629 1.400 . S
C3629 C3623 1.491 . S
C3629 C3628 1.400 . S
C3629 C3630 1.398 . S
C3630 H3618 0.950 . S
C3630 C3629 1.398 . S
C3630 C3631 1.391 . S
C3631 H3619 0.950 . S
C3631 C3627 1.393 . S
C3631 C3630 1.391 . S
H3632 C3640 0.988 . S
H3633 C3645 0.950 . S
H3634 C3642 0.950 1_655 S
H3635 C3644 0.950 . S
H3636 C3646 0.950 . S
H3637 C3648 0.950 . S
H3638 C3650 0.950 . S
H3639 C3651 0.950 . S
C3640 H3632 0.988 . S
C3640 C3641 1.361 1_655 S
C3640 C3642 1.382 1_655 S
C3641 C3640 1.361 1_455 S
C3641 C3645 1.393 . S
C3642 H3634 0.950 1_455 S
C3642 C3640 1.382 1_455 S
C3642 C3643 1.400 . S
C3643 C3642 1.400 . S
C3643 C3644 1.398 . S
C3643 C3649 1.491 . S
C3644 H3635 0.950 . S
C3644 C3643 1.398 . S
C3644 C3645 1.391 . S
C3645 H3633 0.950 . S
C3645 C3641 1.393 . S
C3645 C3644 1.391 . S
C3646 H3636 0.950 . S
C3646 C3647 1.386 . S
C3646 C3648 1.391 . S
C3647 C3646 1.386 . S
C3647 C3651 1.393 . S
C3648 H3637 0.950 . S
C3648 C3646 1.391 . S
C3648 C3649 1.400 . S
C3649 C3643 1.491 . S
C3649 C3648 1.400 . S
C3649 C3650 1.398 . S
C3650 H3638 0.950 . S
C3650 C3649 1.398 . S
C3650 C3651 1.391 . S
C3651 H3639 0.950 . S
C3651 C3647 1.393 . S
C3651 C3650 1.391 . S
H3652 C3660 0.950 . S
H3653 C3665 0.950 . S
H3654 C3662 0.950 . S
H3655 C3664 0.950 1_565 S
H3656 C3666 0.950 . S
H3657 C3668 0.946 1_565 S
H3658 C3670 0.950 . S
H3659 C3671 0.950 . S
C3660 H3652 0.950 . S
C3660 C3661 1.386 . S
C3660 C3662 1.391 . S
C3661 C3660 1.386 . S
C3661 C3665 1.393 . S
C3662 H3654 0.950 . S
C3662 C3660 1.391 . S
C3662 C3663 1.400 . S
C3663 C3662 1.400 . S
C3663 C3664 1.398 . S
C3663 C3669 1.491 . S
C3664 H3655 0.950 1_545 S
C3664 C3663 1.398 . S
C3664 C3665 1.391 . S
C3665 H3653 0.950 . S
C3665 C3661 1.393 . S
C3665 C3664 1.391 . S
C3666 H3656 0.950 . S
C3666 C3667 1.386 1_565 S
C3666 C3668 1.390 1_565 S
C3667 C3666 1.386 1_545 S
C3667 C3671 1.393 . S
C3668 H3657 0.946 1_545 S
C3668 C3666 1.390 1_545 S
C3668 C3669 1.405 . S
C3669 C3663 1.491 . S
C3669 C3668 1.405 . S
C3669 C3670 1.398 . S
C3670 H3658 0.950 . S
C3670 C3669 1.398 . S
C3670 C3671 1.391 . S
C3671 H3659 0.950 . S
C3671 C3667 1.393 . S
C3671 C3670 1.391 . S
H3672 C3680 0.961 . S
H3673 C3685 0.950 . S
H3674 C3682 0.950 1_655 S
H3675 C3684 0.950 . S
H3676 C3686 0.950 . S
H3677 C3688 0.950 . S
H3678 C3690 0.951 . S
H3679 C3691 0.950 . S
C3680 H3672 0.961 . S
C3680 C3681 1.386 . S
C3680 C3682 1.391 . S
C3681 C3680 1.386 . S
C3681 C3685 1.393 . S
C3682 H3674 0.950 1_455 S
C3682 C3680 1.391 . S
C3682 C3683 1.400 . S
C3683 C3682 1.400 . S
C3683 C3684 1.398 . S
C3683 C3689 1.491 . S
C3684 H3675 0.950 . S
C3684 C3683 1.398 . S
C3684 C3685 1.391 . S
C3685 H3673 0.950 . S
C3685 C3681 1.393 . S
C3685 C3684 1.391 . S
C3686 H3676 0.950 . S
C3686 C3687 1.386 . S
C3686 C3688 1.391 . S
C3687 C3686 1.386 . S
C3687 C3691 1.393 1_455 S
C3688 H3677 0.950 . S
C3688 C3686 1.391 . S
C3688 C3689 1.400 . S
C3689 C3683 1.491 . S
C3689 C3688 1.400 . S
C3689 C3690 1.397 1_455 S
C3690 H3678 0.951 . S
C3690 C3689 1.397 1_655 S
C3690 C3691 1.391 . S
C3691 H3679 0.950 . S
C3691 C3687 1.393 1_655 S
C3691 C3690 1.391 . S
H3692 C3700 0.950 . S
H3693 C3705 0.950 . S
H3694 C3702 0.950 . S
H3695 C3704 0.950 . S
H3696 C3706 0.950 . S
H3697 C3708 0.950 . S
H3698 C3710 0.950 . S
H3699 C3711 0.950 . S
C3700 H3692 0.950 . S
C3700 C3701 1.386 . S
C3700 C3702 1.391 . S
C3701 C3700 1.386 . S
C3701 C3705 1.393 . S
C3702 H3694 0.950 . S
C3702 C3700 1.391 . S
C3702 C3703 1.400 . S
C3703 C3702 1.400 . S
C3703 C3704 1.398 . S
C3703 C3709 1.491 . S
C3704 H3695 0.950 . S
C3704 C3703 1.398 . S
C3704 C3705 1.391 . S
C3705 H3693 0.950 . S
C3705 C3701 1.393 . S
C3705 C3704 1.391 . S
C3706 H3696 0.950 . S
C3706 C3707 1.386 . S
C3706 C3708 1.391 . S
C3707 C3706 1.386 . S
C3707 C3711 1.393 . S
C3708 H3697 0.950 . S
C3708 C3706 1.391 . S
C3708 C3709 1.400 . S
C3709 C3703 1.491 . S
C3709 C3708 1.400 . S
C3709 C3710 1.398 . S
C3710 H3698 0.950 . S
C3710 C3709 1.398 . S
C3710 C3711 1.391 . S
C3711 H3699 0.950 . S
C3711 C3707 1.393 . S
C3711 C3710 1.391 . S
H3712 C3720 0.950 1_556 S
H3713 C3725 0.950 . S
H3714 C3722 0.950 1_556 S
H3715 C3724 0.950 . S
H3716 C3726 0.950 . S
H3717 C3728 0.950 . S
H3718 C3730 0.950 . S
H3719 C3731 0.950 . S
C3720 H3712 0.950 1_554 S
C3720 C3721 1.386 . S
C3720 C3722 1.391 . S
C3721 C3720 1.386 . S
C3721 C3725 1.393 . S
C3722 H3714 0.950 1_554 S
C3722 C3720 1.391 . S
C3722 C3723 1.400 . S
C3723 C3722 1.400 . S
C3723 C3724 1.398 . S
C3723 C3729 1.491 . S
C3724 H3715 0.950 . S
C3724 C3723 1.398 . S
C3724 C3725 1.391 . S
C3725 H3713 0.950 . S
C3725 C3721 1.393 . S
C3725 C3724 1.391 . S
C3726 H3716 0.950 . S
C3726 C3727 1.386 . S
C3726 C3728 1.391 . S
C3727 C3726 1.386 . S
C3727 C3731 1.393 1_554 S
C3728 H3717 0.950 . S
C3728 C3726 1.391 . S
C3728 C3729 1.400 . S
C3729 C3723 1.491 . S
C3729 C3728 1.400 . S
C3729 C3730 1.398 1_554 S
C3730 H3718 0.950 . S
C3730 C3729 1.398 1_556 S
C3730 C3731 1.391 . S
C3731 H3719 0.950 . S
C3731 C3727 1.393 1_556 S
C3731 C3730 1.391 . S
H3732 C3740 0.950 . S
H3733 C3745 0.950 . S
H3734 C3742 0.950 . S
H3735 C3744 0.950 1_556 S
H3736 C3746 0.950 . S
H3737 C3748 0.962 . S
H3738 C3750 0.950 . S
H3739 C3751 0.950 . S
C3740 H3732 0.950 . S
C3740 C3741 1.386 . S
C3740 C3742 1.391 . S
C3741 C3740 1.386 . S
C3741 C3745 1.393 1_554 S
C3742 H3734 0.950 . S
C3742 C3740 1.391 . S
C3742 C3743 1.400 . S
C3743 C3742 1.400 . S
C3743 C3744 1.398 . S
C3743 C3749 1.491 . S
C3744 H3735 0.950 1_554 S
C3744 C3743 1.398 . S
C3744 C3745 1.391 1_554 S
C3745 H3733 0.950 . S
C3745 C3741 1.393 1_556 S
C3745 C3744 1.391 1_556 S
C3746 H3736 0.950 . S
C3746 C3747 1.386 . S
C3746 C3748 1.391 . S
C3747 C3746 1.386 . S
C3747 C3751 1.393 . S
C3748 H3737 0.962 . S
C3748 C3746 1.391 . S
C3748 C3749 1.400 . S
C3749 C3743 1.491 . S
C3749 C3748 1.400 . S
C3749 C3750 1.398 . S
C3750 H3738 0.950 . S
C3750 C3749 1.398 . S
C3750 C3751 1.391 . S
C3751 H3739 0.950 . S
C3751 C3747 1.393 . S
C3751 C3750 1.391 . S
H3752 C3760 0.950 . S
H3753 C3765 0.950 1_556 S
H3754 C3762 0.950 . S
H3755 C3764 0.952 . S
H3756 C3766 0.950 . S
H3757 C3768 0.950 . S
H3758 C3770 0.950 . S
H3759 C3771 0.950 . S
C3760 H3752 0.950 . S
C3760 C3761 1.386 . S
C3760 C3762 1.391 . S
C3761 C3760 1.386 . S
C3761 C3765 1.393 . S
C3762 H3754 0.950 . S
C3762 C3760 1.391 . S
C3762 C3763 1.400 . S
C3763 C3762 1.400 . S
C3763 C3764 1.398 . S
C3763 C3769 1.491 . S
C3764 H3755 0.952 . S
C3764 C3763 1.398 . S
C3764 C3765 1.391 . S
C3765 H3753 0.950 1_554 S
C3765 C3761 1.393 . S
C3765 C3764 1.391 . S
C3766 H3756 0.950 . S
C3766 C3767 1.386 . S
C3766 C3768 1.391 . S
C3767 C3766 1.386 . S
C3767 C3771 1.393 . S
C3768 H3757 0.950 . S
C3768 C3766 1.391 . S
C3768 C3769 1.400 . S
C3769 C3763 1.491 . S
C3769 C3768 1.400 . S
C3769 C3770 1.398 . S
C3770 H3758 0.950 . S
C3770 C3769 1.398 . S
C3770 C3771 1.391 . S
C3771 H3759 0.950 . S
C3771 C3767 1.393 . S
C3771 C3770 1.391 . S
H3772 C3780 0.950 . S
H3773 C3785 0.950 . S
H3774 C3782 0.950 . S
H3775 C3784 0.950 . S
H3776 C3786 0.950 . S
H3777 C3788 0.950 . S
H3778 C3790 0.950 1_556 S
H3779 C3791 0.950 1_556 S
C3780 H3772 0.950 . S
C3780 C3781 1.386 1_556 S
C3780 C3782 1.391 . S
C3781 C3780 1.386 1_554 S
C3781 C3785 1.393 . S
C3782 H3774 0.950 . S
C3782 C3780 1.391 . S
C3782 C3783 1.400 1_556 S
C3783 C3782 1.400 1_554 S
C3783 C3784 1.398 . S
C3783 C3789 1.491 . S
C3784 H3775 0.950 . S
C3784 C3783 1.398 . S
C3784 C3785 1.391 . S
C3785 H3773 0.950 . S
C3785 C3781 1.393 . S
C3785 C3784 1.391 . S
C3786 H3776 0.950 . S
C3786 C3787 1.386 . S
C3786 C3788 1.391 . S
C3787 C3786 1.386 . S
C3787 C3791 1.393 . S
C3788 H3777 0.950 . S
C3788 C3786 1.391 . S
C3788 C3789 1.400 . S
C3789 C3783 1.491 . S
C3789 C3788 1.400 . S
C3789 C3790 1.398 . S
C3790 H3778 0.950 1_554 S
C3790 C3789 1.398 . S
C3790 C3791 1.391 . S
C3791 H3779 0.950 1_554 S
C3791 C3787 1.393 . S
C3791 C3790 1.391 . S
H3792 C3800 0.950 . S
H3793 C3805 0.950 . S
H3794 C3802 0.950 . S
H3795 C3804 0.950 . S
H3796 C3806 0.950 . S
H3797 C3808 0.950 . S
H3798 C3810 0.950 . S
H3799 C3811 0.950 . S
C3800 H3792 0.950 . S
C3800 C3801 1.386 . S
C3800 C3802 1.391 . S
C3801 C3800 1.386 . S
C3801 C3805 1.393 . S
C3802 H3794 0.950 . S
C3802 C3800 1.391 . S
C3802 C3803 1.400 . S
C3803 C3802 1.400 . S
C3803 C3804 1.398 . S
C3803 C3809 1.491 . S
C3804 H3795 0.950 . S
C3804 C3803 1.398 . S
C3804 C3805 1.391 . S
C3805 H3793 0.950 . S
C3805 C3801 1.393 . S
C3805 C3804 1.391 . S
C3806 H3796 0.950 . S
C3806 C3807 1.386 . S
C3806 C3808 1.391 . S
C3807 C3806 1.386 . S
C3807 C3811 1.393 . S
C3808 H3797 0.950 . S
C3808 C3806 1.391 . S
C3808 C3809 1.400 . S
C3809 C3803 1.491 . S
C3809 C3808 1.400 . S
C3809 C3810 1.398 . S
C3810 H3798 0.950 . S
C3810 C3809 1.398 . S
C3810 C3811 1.391 . S
C3811 H3799 0.950 . S
C3811 C3807 1.393 . S
C3811 C3810 1.391 . S
H3812 C3820 0.950 . S
H3813 C3825 0.950 . S
H3814 C3822 0.950 . S
H3815 C3824 0.950 . S
H3816 C3826 0.950 . S
H3817 C3828 0.950 . S
H3818 C3830 0.950 . S
H3819 C3831 0.950 . S
C3820 H3812 0.950 . S
C3820 C3821 1.386 . S
C3820 C3822 1.391 . S
C3821 C3820 1.386 . S
C3821 C3825 1.393 . S
C3822 H3814 0.950 . S
C3822 C3820 1.391 . S
C3822 C3823 1.400 . S
C3823 C3822 1.400 . S
C3823 C3824 1.398 . S
C3823 C3829 1.491 . S
C3824 H3815 0.950 . S
C3824 C3823 1.398 . S
C3824 C3825 1.391 . S
C3825 H3813 0.950 . S
C3825 C3821 1.393 . S
C3825 C3824 1.391 . S
C3826 H3816 0.950 . S
C3826 C3827 1.386 . S
C3826 C3828 1.391 . S
C3827 C3826 1.386 . S
C3827 C3831 1.393 . S
C3828 H3817 0.950 . S
C3828 C3826 1.391 . S
C3828 C3829 1.400 . S
C3829 C3823 1.491 . S
C3829 C3828 1.400 . S
C3829 C3830 1.398 . S
C3830 H3818 0.950 . S
C3830 C3829 1.398 . S
C3830 C3831 1.391 . S
C3831 H3819 0.950 . S
C3831 C3827 1.393 . S
C3831 C3830 1.391 . S
H3832 C3840 0.950 . S
H3833 C3845 0.950 . S
H3834 C3842 0.950 . S
H3835 C3844 0.950 . S
H3836 C3846 0.950 . S
H3837 C3848 0.950 . S
H3838 C3850 0.950 . S
H3839 C3851 0.950 . S
C3840 H3832 0.950 . S
C3840 C3841 1.386 . S
C3840 C3842 1.391 . S
C3841 C3840 1.386 . S
C3841 C3845 1.393 . S
C3842 H3834 0.950 . S
C3842 C3840 1.391 . S
C3842 C3843 1.400 . S
C3843 C3842 1.400 . S
C3843 C3844 1.398 . S
C3843 C3849 1.491 . S
C3844 H3835 0.950 . S
C3844 C3843 1.398 . S
C3844 C3845 1.391 . S
C3845 H3833 0.950 . S
C3845 C3841 1.393 . S
C3845 C3844 1.391 . S
C3846 H3836 0.950 . S
C3846 C3847 1.386 . S
C3846 C3848 1.391 . S
C3847 C3846 1.386 . S
C3847 C3851 1.393 . S
C3848 H3837 0.950 . S
C3848 C3846 1.391 . S
C3848 C3849 1.400 . S
C3849 C3843 1.491 . S
C3849 C3848 1.400 . S
C3849 C3850 1.398 . S
C3850 H3838 0.950 . S
C3850 C3849 1.398 . S
C3850 C3851 1.391 . S
C3851 H3839 0.950 . S
C3851 C3847 1.393 . S
C3851 C3850 1.391 . S
H3852 C3860 0.950 . S
H3853 C3865 0.950 . S
H3854 C3862 0.950 . S
H3855 C3864 0.950 . S
H3856 C3866 0.950 . S
H3857 C3868 0.950 . S
H3858 C3870 0.950 . S
H3859 C3871 0.950 . S
C3860 H3852 0.950 . S
C3860 C3861 1.386 . S
C3860 C3862 1.391 . S
C3861 C3860 1.386 . S
C3861 C3865 1.393 . S
C3862 H3854 0.950 . S
C3862 C3860 1.391 . S
C3862 C3863 1.400 . S
C3863 C3862 1.400 . S
C3863 C3864 1.398 . S
C3863 C3869 1.491 . S
C3864 H3855 0.950 . S
C3864 C3863 1.398 . S
C3864 C3865 1.391 . S
C3865 H3853 0.950 . S
C3865 C3861 1.393 . S
C3865 C3864 1.391 . S
C3866 H3856 0.950 . S
C3866 C3867 1.386 . S
C3866 C3868 1.391 . S
C3867 C3866 1.386 . S
C3867 C3871 1.393 . S
C3868 H3857 0.950 . S
C3868 C3866 1.391 . S
C3868 C3869 1.400 . S
C3869 C3863 1.491 . S
C3869 C3868 1.400 . S
C3869 C3870 1.398 . S
C3870 H3858 0.950 . S
C3870 C3869 1.398 . S
C3870 C3871 1.391 . S
C3871 H3859 0.950 . S
C3871 C3867 1.393 . S
C3871 C3870 1.391 . S
H3872 C3880 0.950 . S
H3873 C3885 0.950 . S
H3874 C3882 0.950 . S
H3875 C3884 0.950 . S
H3876 C3886 0.950 . S
H3877 C3888 0.950 . S
H3878 C3890 0.950 . S
H3879 C3891 0.950 . S
C3880 H3872 0.950 . S
C3880 C3881 1.386 . S
C3880 C3882 1.391 . S
C3881 C3880 1.386 . S
C3881 C3885 1.393 . S
C3882 H3874 0.950 . S
C3882 C3880 1.391 . S
C3882 C3883 1.400 . S
C3883 C3882 1.400 . S
C3883 C3884 1.398 . S
C3883 C3889 1.491 . S
C3884 H3875 0.950 . S
C3884 C3883 1.398 . S
C3884 C3885 1.391 . S
C3885 H3873 0.950 . S
C3885 C3881 1.393 . S
C3885 C3884 1.391 . S
C3886 H3876 0.950 . S
C3886 C3887 1.386 . S
C3886 C3888 1.391 . S
C3887 C3886 1.386 . S
C3887 C3891 1.393 . S
C3888 H3877 0.950 . S
C3888 C3886 1.391 . S
C3888 C3889 1.400 . S
C3889 C3883 1.491 . S
C3889 C3888 1.400 . S
C3889 C3890 1.398 . S
C3890 H3878 0.950 . S
C3890 C3889 1.398 . S
C3890 C3891 1.391 . S
C3891 H3879 0.950 . S
C3891 C3887 1.393 . S
C3891 C3890 1.391 . S
H3892 C3900 0.950 . S
H3893 C3905 0.950 . S
H3894 C3902 0.950 . S
H3895 C3904 0.950 . S
H3896 C3906 0.950 . S
H3897 C3908 0.950 . S
H3898 C3910 0.950 . S
H3899 C3911 0.950 . S
C3900 H3892 0.950 . S
C3900 C3901 1.386 . S
C3900 C3902 1.391 . S
C3901 C3900 1.386 . S
C3901 C3905 1.393 . S
C3902 H3894 0.950 . S
C3902 C3900 1.391 . S
C3902 C3903 1.400 . S
C3903 C3902 1.400 . S
C3903 C3904 1.398 . S
C3903 C3909 1.491 . S
C3904 H3895 0.950 . S
C3904 C3903 1.398 . S
C3904 C3905 1.391 . S
C3905 H3893 0.950 . S
C3905 C3901 1.393 . S
C3905 C3904 1.391 . S
C3906 H3896 0.950 . S
C3906 C3907 1.386 . S
C3906 C3908 1.391 . S
C3907 C3906 1.386 . S
C3907 C3911 1.393 . S
C3908 H3897 0.950 . S
C3908 C3906 1.391 . S
C3908 C3909 1.400 . S
C3909 C3903 1.491 . S
C3909 C3908 1.400 . S
C3909 C3910 1.398 . S
C3910 H3898 0.950 . S
C3910 C3909 1.398 . S
C3910 C3911 1.391 . S
C3911 H3899 0.950 . S
C3911 C3907 1.393 . S
C3911 C3910 1.391 . S
H3912 C3920 0.950 . S
H3913 C3925 0.950 . S
H3914 C3922 0.950 . S
H3915 C3924 0.950 . S
H3916 C3926 0.950 . S
H3917 C3928 0.950 . S
H3918 C3930 0.950 . S
H3919 C3931 0.950 . S
C3920 H3912 0.950 . S
C3920 C3921 1.386 . S
C3920 C3922 1.391 . S
C3921 C3920 1.386 . S
C3921 C3925 1.393 . S
C3922 H3914 0.950 . S
C3922 C3920 1.391 . S
C3922 C3923 1.400 . S
C3923 C3922 1.400 . S
C3923 C3924 1.398 . S
C3923 C3929 1.491 . S
C3924 H3915 0.950 . S
C3924 C3923 1.398 . S
C3924 C3925 1.391 . S
C3925 H3913 0.950 . S
C3925 C3921 1.393 . S
C3925 C3924 1.391 . S
C3926 H3916 0.950 . S
C3926 C3927 1.386 . S
C3926 C3928 1.391 . S
C3927 C3926 1.386 . S
C3927 C3931 1.393 . S
C3928 H3917 0.950 . S
C3928 C3926 1.391 . S
C3928 C3929 1.400 . S
C3929 C3923 1.491 . S
C3929 C3928 1.400 . S
C3929 C3930 1.398 . S
C3930 H3918 0.950 . S
C3930 C3929 1.398 . S
C3930 C3931 1.391 . S
C3931 H3919 0.950 . S
C3931 C3927 1.393 . S
C3931 C3930 1.391 . S
H3932 C3940 0.950 . S
H3933 C3945 0.950 . S
H3934 C3942 0.950 . S
H3935 C3944 0.950 . S
H3936 C3946 0.950 . S
H3937 C3948 0.950 . S
H3938 C3950 0.950 . S
H3939 C3951 0.950 . S
C3940 H3932 0.950 . S
C3940 C3941 1.386 . S
C3940 C3942 1.391 . S
C3941 C3940 1.386 . S
C3941 C3945 1.393 . S
C3942 H3934 0.950 . S
C3942 C3940 1.391 . S
C3942 C3943 1.400 . S
C3943 C3942 1.400 . S
C3943 C3944 1.398 . S
C3943 C3949 1.491 . S
C3944 H3935 0.950 . S
C3944 C3943 1.398 . S
C3944 C3945 1.391 . S
C3945 H3933 0.950 . S
C3945 C3941 1.393 . S
C3945 C3944 1.391 . S
C3946 H3936 0.950 . S
C3946 C3947 1.386 . S
C3946 C3948 1.391 . S
C3947 C3946 1.386 . S
C3947 C3951 1.393 . S
C3948 H3937 0.950 . S
C3948 C3946 1.391 . S
C3948 C3949 1.400 . S
C3949 C3943 1.491 . S
C3949 C3948 1.400 . S
C3949 C3950 1.398 . S
C3950 H3938 0.950 . S
C3950 C3949 1.398 . S
C3950 C3951 1.391 . S
C3951 H3939 0.950 . S
C3951 C3947 1.393 . S
C3951 C3950 1.391 . S
H3952 C3960 0.950 . S
H3953 C3965 0.950 . S
H3954 C3962 0.950 . S
H3955 C3964 0.950 . S
H3956 C3966 0.950 . S
H3957 C3968 0.950 . S
H3958 C3970 0.950 . S
H3959 C3971 0.950 . S
C3960 H3952 0.950 . S
C3960 C3961 1.386 . S
C3960 C3962 1.391 . S
C3961 C3960 1.386 . S
C3961 C3965 1.393 . S
C3962 H3954 0.950 . S
C3962 C3960 1.391 . S
C3962 C3963 1.400 . S
C3963 C3962 1.400 . S
C3963 C3964 1.398 . S
C3963 C3969 1.491 . S
C3964 H3955 0.950 . S
C3964 C3963 1.398 . S
C3964 C3965 1.391 . S
C3965 H3953 0.950 . S
C3965 C3961 1.393 . S
C3965 C3964 1.391 . S
C3966 H3956 0.950 . S
C3966 C3967 1.386 . S
C3966 C3968 1.391 . S
C3967 C3966 1.386 . S
C3967 C3971 1.393 . S
C3968 H3957 0.950 . S
C3968 C3966 1.391 . S
C3968 C3969 1.400 . S
C3969 C3963 1.491 . S
C3969 C3968 1.400 . S
C3969 C3970 1.398 . S
C3970 H3958 0.950 . S
C3970 C3969 1.398 . S
C3970 C3971 1.391 . S
C3971 H3959 0.950 . S
C3971 C3967 1.393 . S
C3971 C3970 1.391 . S
H3972 C3980 0.950 . S
H3973 C3985 0.950 . S
H3974 C3982 0.950 . S
H3975 C3984 0.950 . S
H3976 C3986 0.950 . S
H3977 C3988 0.950 . S
H3978 C3990 0.950 . S
H3979 C3991 0.950 . S
C3980 H3972 0.950 . S
C3980 C3981 1.386 . S
C3980 C3982 1.391 . S
C3981 C3980 1.386 . S
C3981 C3985 1.393 . S
C3982 H3974 0.950 . S
C3982 C3980 1.391 . S
C3982 C3983 1.400 . S
C3983 C3982 1.400 . S
C3983 C3984 1.398 . S
C3983 C3989 1.491 . S
C3984 H3975 0.950 . S
C3984 C3983 1.398 . S
C3984 C3985 1.391 . S
C3985 H3973 0.950 . S
C3985 C3981 1.393 . S
C3985 C3984 1.391 . S
C3986 H3976 0.950 . S
C3986 C3987 1.386 . S
C3986 C3988 1.391 . S
C3987 C3986 1.386 . S
C3987 C3991 1.393 . S
C3988 H3977 0.950 . S
C3988 C3986 1.391 . S
C3988 C3989 1.400 . S
C3989 C3983 1.491 . S
C3989 C3988 1.400 . S
C3989 C3990 1.398 . S
C3990 H3978 0.950 . S
C3990 C3989 1.398 . S
C3990 C3991 1.391 . S
C3991 H3979 0.950 . S
C3991 C3987 1.393 . S
C3991 C3990 1.391 . S
H3992 C4000 0.950 . S
H3993 C4005 0.950 . S
H3994 C4002 0.950 . S
H3995 C4004 0.950 . S
H3996 C4006 0.950 . S
H3997 C4008 0.950 . S
H3998 C4010 0.950 . S
H3999 C4011 0.950 . S
C4000 H3992 0.950 . S
C4000 C4001 1.386 . S
C4000 C4002 1.391 . S
C4001 C4000 1.386 . S
C4001 C4005 1.393 . S
C4002 H3994 0.950 . S
C4002 C4000 1.391 . S
C4002 C4003 1.400 . S
C4003 C4002 1.400 . S
C4003 C4004 1.398 . S
C4003 C4009 1.491 . S
C4004 H3995 0.950 . S
C4004 C4003 1.398 . S
C4004 C4005 1.391 . S
C4005 H3993 0.950 . S
C4005 C4001 1.393 . S
C4005 C4004 1.391 . S
C4006 H3996 0.950 . S
C4006 C4007 1.386 . S
C4006 C4008 1.391 . S
C4007 C4006 1.386 . S
C4007 C4011 1.393 . S
C4008 H3997 0.950 . S
C4008 C4006 1.391 . S
C4008 C4009 1.400 . S
C4009 C4003 1.491 . S
C4009 C4008 1.400 . S
C4009 C4010 1.398 . S
C4010 H3998 0.950 . S
C4010 C4009 1.398 . S
C4010 C4011 1.391 . S
C4011 H3999 0.950 . S
C4011 C4007 1.393 . S
C4011 C4010 1.391 . S
H4012 C4020 0.950 . S
H4013 C4025 0.950 . S
H4014 C4022 0.950 . S
H4015 C4024 0.950 . S
H4016 C4026 0.950 . S
H4017 C4028 0.950 . S
H4018 C4030 0.950 . S
H4019 C4031 0.950 . S
C4020 H4012 0.950 . S
C4020 C4021 1.386 . S
C4020 C4022 1.391 . S
C4021 C4020 1.386 . S
C4021 C4025 1.393 . S
C4022 H4014 0.950 . S
C4022 C4020 1.391 . S
C4022 C4023 1.400 . S
C4023 C4022 1.400 . S
C4023 C4024 1.398 . S
C4023 C4029 1.491 . S
C4024 H4015 0.950 . S
C4024 C4023 1.398 . S
C4024 C4025 1.391 . S
C4025 H4013 0.950 . S
C4025 C4021 1.393 . S
C4025 C4024 1.391 . S
C4026 H4016 0.950 . S
C4026 C4027 1.386 . S
C4026 C4028 1.391 . S
C4027 C4026 1.386 . S
C4027 C4031 1.393 . S
C4028 H4017 0.950 . S
C4028 C4026 1.391 . S
C4028 C4029 1.400 . S
C4029 C4023 1.491 . S
C4029 C4028 1.400 . S
C4029 C4030 1.398 . S
C4030 H4018 0.950 . S
C4030 C4029 1.398 . S
C4030 C4031 1.391 . S
C4031 H4019 0.950 . S
C4031 C4027 1.393 . S
C4031 C4030 1.391 . S
C1641 C1501 1.206 . S
C1647 C5 1.185 . S
C1661 C1399 1.215 . S
C1667 C39 1.196 . S
C1681 C1433 1.216 . S
C1687 C73 1.202 . S
C1701 C107 1.189 . S
C1707 C1467 1.211 . S
C1721 C141 1.185 . S
C1727 C1603 1.190 . S
C1741 C175 1.188 . S
C1747 C1535 1.211 . S
C1761 C209 1.194 . S
C1767 C1569 1.214 . S
C1781 C1365 1.183 . S
C1787 C243 1.197 . S
C1801 C1331 1.188 . S
C1807 C277 1.210 . S
C1821 C311 1.196 . S
C1827 C1229 1.215 . S
C1841 C345 1.204 . S
C1847 C1263 1.215 . S
C1861 C1297 1.200 . S
C1867 C379 1.216 . S
C1881 C413 1.186 . S
C1887 C1127 1.188 . S
C1901 C447 1.186 . S
C1907 C1161 1.208 . S
C1921 C1195 1.183 . S
C1927 C481 1.197 . S
C1941 C515 1.205 . S
C1947 C1093 1.215 . S
C1961 C549 1.195 . S
C1967 C1059 1.183 . S
C1981 C855 1.199 . S
C1987 C583 1.183 . S
C2001 C889 1.214 . S
C2007 C617 1.208 . S
C2021 C651 1.190 . S
C2027 C923 1.185 . S
C2041 C821 1.215 . S
C2047 C685 1.198 . S
C2061 C719 1.213 . S
C2067 C991 1.191 . S
C2081 C1025 1.202 . S
C2087 C753 1.183 . S
C2101 C787 1.190 . S
C2107 C957 1.184 . S
C2121 C138 2.309 . S
C2127 C1430 2.306 . S
C2141 C1464 2.308 . S
C2147 C172 2.312 . S
C2161 C206 2.308 . S
C2167 C1498 2.307 . S
C2181 C1396 2.308 . S
C2187 C240 2.312 . S
C2201 C1566 2.306 . S
C2207 C2 2.310 . S
C2221 C36 2.310 . S
C2227 C1362 2.312 . S
C2241 C1600 2.306 . S
C2247 C70 2.311 . S
C2261 C1532 2.310 . S
C2267 C104 2.306 . S
C2281 C1124 2.311 . S
C2287 C478 2.310 . S
C2301 C512 2.312 . S
C2307 C1158 2.307 . S
C2321 C1192 2.311 . S
C2327 C410 2.307 . S
C2341 C444 2.309 . S
C2347 C1090 2.312 . S
C2361 C1328 2.311 . S
C2367 C342 2.306 . S
C2381 C1226 2.311 . S
C2387 C376 2.311 . S
C2401 C1260 2.312 . S
C2407 C274 2.309 . S
C2421 C1294 2.309 . S
C2427 C308 2.306 . S
C2441 C920 2.312 . S
C2447 C716 2.310 . S
C2461 C648 2.308 . S
C2467 C988 2.312 . S
C2481 C682 2.312 . S
C2487 C1022 2.309 . S
C2501 C1056 2.312 . S
C2507 C580 2.308 . S
C2521 C614 2.306 . S
C2527 C954 2.309 . S
C2541 C852 2.307 . S
C2547 C546 2.312 . S
C2561 C784 2.311 . S
C2567 C886 2.306 . S
C2581 C818 2.308 . S
C2587 C750 2.307 . S
C2601 C111 1.590 . S
C2607 C20 1.596 . S
C2621 C9 1.588 . S
C2627 C54 1.592 . S
C2641 C88 1.589 . S
C2647 C43 1.594 . S
C2661 C122 1.590 . S
C2667 C77 1.595 . S
C2681 C179 1.596 . S
C2687 C156 1.596 . S
C2701 C190 1.595 . S
C2707 C213 1.597 . S
C2721 C224 1.590 . S
C2727 C247 1.595 . S
C2741 C145 1.589 . S
C2747 C258 1.589 . S
C2761 C621 1.588 . S
C2767 C292 1.593 . S
C2781 C655 1.590 . S
C2787 C326 1.589 . S
C2801 C689 1.592 . S
C2807 C360 1.597 . S
C2821 C394 1.589 . S
C2827 C587 1.591 . S
C2841 C757 1.596 . S
C2847 C428 1.591 . S
C2861 C462 1.590 . S
C2867 C553 1.595 . S
C2881 C496 1.596 . S
C2887 C791 1.596 . S
C2901 C723 1.597 . S
C2907 C530 1.594 . S
C2921 C564 1.597 . S
C2927 C315 1.592 . S
C2941 C519 1.589 . S
C2947 C598 1.594 . S
C2961 C632 1.593 . S
C2967 C417 1.588 . S
C2981 C451 1.593 . S
C2987 C666 1.589 . S
C3001 C700 1.595 . S
C3007 C485 1.590 . S
C3021 C383 1.596 . S
C3027 C734 1.591 . S
C3041 C281 1.596 . S
C3047 C768 1.597 . S
C3061 C802 1.589 . S
C3067 C349 1.590 . S
C3081 C836 1.590 . S
C3087 C927 1.595 . S
C3101 C870 1.592 . S
C3107 C825 1.596 . S
C3121 C859 1.591 . S
C3127 C904 1.589 . S
C3141 C893 1.592 . S
C3147 C938 1.597 . S
C3161 C972 1.595 . S
C3167 C995 1.589 . S
C3181 C1006 1.589 . S
C3187 C1029 1.591 . S
C3201 C1040 1.594 . S
C3207 C1063 1.589 . S
C3221 C961 1.589 . S
C3227 C1074 1.590 . S
C3241 C1437 1.592 . S
C3247 C1108 1.589 . S
C3261 C1471 1.597 . S
C3267 C1142 1.595 . S
C3281 C1176 1.591 . S
C3287 C1505 1.596 . S
C3301 C1403 1.594 . S
C3307 C1210 1.590 . S
C3321 C1244 1.595 . S
C3327 C1573 1.590 . S
C3341 C1369 1.596 . S
C3347 C1278 1.592 . S
C3361 C1607 1.594 . S
C3367 C1312 1.597 . S
C3381 C1346 1.589 . S
C3387 C1539 1.591 . S
C3401 C1131 1.597 . S
C3407 C1380 1.593 . S
C3421 C1414 1.597 . S
C3427 C1335 1.593 . S
C3441 C1448 1.597 . S
C3447 C1233 1.593 . S
C3461 C1482 1.589 . S
C3467 C1267 1.591 . S
C3481 C1516 1.589 . S
C3487 C1301 1.592 . S
C3501 C1550 1.596 . S
C3507 C1199 1.590 . S
C3521 C1097 1.589 . S
C3527 C1584 1.590 . S
C3541 C1165 1.597 . S
C3547 C1618 1.594 . S
C3561 C33 1.475 . S
C3567 C339 1.472 . S
C3581 C373 1.469 . S
C3587 C67 1.470 . S
C3601 C407 1.471 . S
C3607 C101 1.475 . S
C3621 C305 1.471 . S
C3627 C135 1.469 . S
C3641 C169 1.473 . S
C3647 C543 1.476 . S
C3661 C441 1.472 . S
C3667 C203 1.476 . S
C3681 C237 1.473 . S
C3687 C475 1.469 . S
C3701 C271 1.475 . S
C3707 C509 1.475 . S
C3721 C645 1.474 . S
C3727 C577 1.470 . S
C3741 C781 1.476 . S
C3747 C611 1.473 . S
C3761 C815 1.471 . S
C3767 C679 1.469 . S
C3781 C747 1.471 . S
C3787 C713 1.475 . S
C3801 C849 1.476 . S
C3807 C1155 1.474 . S
C3821 C883 1.473 . S
C3827 C1189 1.469 . S
C3841 C1223 1.472 . S
C3847 C917 1.469 . S
C3861 C1121 1.469 . S
C3867 C951 1.470 . S
C3881 C1359 1.473 . S
C3887 C985 1.469 . S
C3901 C1019 1.473 . S
C3907 C1257 1.469 . S
C3921 C1053 1.469 . S
C3927 C1291 1.471 . S
C3941 C1087 1.469 . S
C3947 C1325 1.471 . S
C3961 C1393 1.471 . S
C3967 C1461 1.475 . S
C3981 C1427 1.473 . S
C3987 C1597 1.476 . S
C4001 C1495 1.471 . S
C4007 C1631 1.475 . S
C4021 C1529 1.473 . S
C4027 C1563 1.476 . S
