# Generated by pormake.
# Topology umo, (4)-cn, num edge types: 1
# Building blocks:
#     Node 0, Type 0, BuildingBlock: MUDLON_clean_sbu_0, # of connection points: 4
#     Node 1, Type 0, BuildingBlock: MUDLON_clean_sbu_0, # of connection points: 4
#     Node 2, Type 0, BuildingBlock: MUDLON_clean_sbu_0, # of connection points: 4
#     Node 3, Type 0, BuildingBlock: MUDLON_clean_sbu_0, # of connection points: 4
#     Node 4, Type 0, BuildingBlock: MUDLON_clean_sbu_0, # of connection points: 4
#     Node 5, Type 0, BuildingBlock: MUDLON_clean_sbu_0, # of connection points: 4
#     Node 6, Type 0, BuildingBlock: MUDLON_clean_sbu_0, # of connection points: 4
#     Node 7, Type 0, BuildingBlock: MUDLON_clean_sbu_0, # of connection points: 4
#     Node 8, Type 0, BuildingBlock: MUDLON_clean_sbu_0, # of connection points: 4
#     Node 9, Type 0, BuildingBlock: MUDLON_clean_sbu_0, # of connection points: 4
#     Node 10, Type 0, BuildingBlock: MUDLON_clean_sbu_0, # of connection points: 4
#     Node 11, Type 0, BuildingBlock: MUDLON_clean_sbu_0, # of connection points: 4
#     Edge 12, Type (0, 0), BuildingBlock: EZIPEK_clean_linker_0, # of connection points: 2
#     Edge 13, Type (0, 0), BuildingBlock: EZIPEK_clean_linker_0, # of connection points: 2
#     Edge 14, Type (0, 0), BuildingBlock: EZIPEK_clean_linker_0, # of connection points: 2
#     Edge 15, Type (0, 0), BuildingBlock: EZIPEK_clean_linker_0, # of connection points: 2
#     Edge 16, Type (0, 0), BuildingBlock: EZIPEK_clean_linker_0, # of connection points: 2
#     Edge 17, Type (0, 0), BuildingBlock: EZIPEK_clean_linker_0, # of connection points: 2
#     Edge 18, Type (0, 0), BuildingBlock: EZIPEK_clean_linker_0, # of connection points: 2
#     Edge 19, Type (0, 0), BuildingBlock: EZIPEK_clean_linker_0, # of connection points: 2
#     Edge 20, Type (0, 0), BuildingBlock: EZIPEK_clean_linker_0, # of connection points: 2
#     Edge 21, Type (0, 0), BuildingBlock: EZIPEK_clean_linker_0, # of connection points: 2
#     Edge 22, Type (0, 0), BuildingBlock: EZIPEK_clean_linker_0, # of connection points: 2
#     Edge 23, Type (0, 0), BuildingBlock: EZIPEK_clean_linker_0, # of connection points: 2
#     Edge 24, Type (0, 0), BuildingBlock: EZIPEK_clean_linker_0, # of connection points: 2
#     Edge 25, Type (0, 0), BuildingBlock: EZIPEK_clean_linker_0, # of connection points: 2
#     Edge 26, Type (0, 0), BuildingBlock: EZIPEK_clean_linker_0, # of connection points: 2
#     Edge 27, Type (0, 0), BuildingBlock: EZIPEK_clean_linker_0, # of connection points: 2
#     Edge 28, Type (0, 0), BuildingBlock: EZIPEK_clean_linker_0, # of connection points: 2
#     Edge 29, Type (0, 0), BuildingBlock: EZIPEK_clean_linker_0, # of connection points: 2
#     Edge 30, Type (0, 0), BuildingBlock: EZIPEK_clean_linker_0, # of connection points: 2
#     Edge 31, Type (0, 0), BuildingBlock: EZIPEK_clean_linker_0, # of connection points: 2
#     Edge 32, Type (0, 0), BuildingBlock: EZIPEK_clean_linker_0, # of connection points: 2
#     Edge 33, Type (0, 0), BuildingBlock: EZIPEK_clean_linker_0, # of connection points: 2
#     Edge 34, Type (0, 0), BuildingBlock: EZIPEK_clean_linker_0, # of connection points: 2
#     Edge 35, Type (0, 0), BuildingBlock: EZIPEK_clean_linker_0, # of connection points: 2
# Relax obj value: 0.142
# Max RMSD: 0.180
# Mean RMSD: 0.180
data_MOF--net-umo--node1-MUDLON_clean_sbu_0--edge1-EZIPEK_clean_linker_0
_symmetry_space_group_name_H-M    P1
_symmetry_Int_Tables_number       1
_symmetry_cell_setting            triclinic
loop_
_symmetry_equiv_pos_as_xyz
'x, y, z'
_cell_length_a     37.326717
_cell_length_b     37.31058
_cell_length_c     29.038586
_cell_angle_alpha  89.957301
_cell_angle_beta   89.876485
_cell_angle_gamma 119.56382
loop_
_atom_site_label
_atom_site_type_symbol
_atom_site_fract_x
_atom_site_fract_y
_atom_site_fract_z
_atom_type_partial_charge
Mg0 Mg 0.16634 0.5417 0.41641 0.0
C1 C 0.14551 0.55329 0.50934 0.0
O2 O 0.13233 0.57292 0.48293 0.0
C3 C 0.21328 0.53838 0.33662 0.0
O4 O 0.20175 0.56515 0.32475 0.0
C5 C 0.07548 0.49574 0.41022 0.0
O6 O 0.08184 0.47865 0.44654 0.0
O7 O 0.10613 0.52375 0.3885 0.0
O8 O 0.16077 0.53283 0.49072 0.0
O9 O 0.20615 0.60695 0.41688 0.0
C10 C 0.1991 0.63645 0.40998 0.0
O11 O 0.1627 0.62924 0.39599 0.0
O12 O 0.20049 0.51941 0.37489 0.0
Mg13 Mg 0.60564 0.16842 0.5777 0.0
C14 C 0.57969 0.13945 0.67101 0.0
O15 O 0.54723 0.11652 0.64568 0.0
C16 C 0.65816 0.2221 0.5013 0.0
O17 O 0.62217 0.21866 0.49193 0.0
C18 C 0.55212 0.09231 0.51843 0.0
O19 O 0.54718 0.11783 0.49149 0.0
O20 O 0.57385 0.1055 0.55448 0.0
O21 O 0.61335 0.16453 0.65114 0.0
O22 O 0.56939 0.19918 0.57682 0.0
C23 C 0.53066 0.18227 0.58245 0.0
O24 O 0.50781 0.14197 0.58297 0.0
O25 O 0.66153 0.20389 0.53676 0.0
Mg26 Mg 0.46193 0.6185 0.74845 0.0
C27 C 0.44924 0.59316 0.84494 0.0
O28 O 0.41837 0.56289 0.82311 0.0
C29 C 0.46926 0.67261 0.66953 0.0
O30 O 0.44183 0.63572 0.65547 0.0
C31 C 0.46877 0.55418 0.6866 0.0
O32 O 0.43846 0.55247 0.66208 0.0
O33 O 0.48202 0.57745 0.72155 0.0
O34 O 0.47633 0.62352 0.82163 0.0
O35 O 0.39682 0.59682 0.75371 0.0
C36 C 0.36559 0.58016 0.72766 0.0
O37 O 0.36842 0.5681 0.68602 0.0
O38 O 0.48677 0.67594 0.7082 0.0
Mg39 Mg 0.82558 0.44401 0.90983 0.0
C40 C 0.84556 0.43369 1.00359 0.0
O41 O 0.85976 0.41439 0.97808 0.0
C42 C 0.79291 0.46611 0.82553 0.0
O43 O 0.82741 0.47053 0.80822 0.0
C44 C 0.91648 0.49376 0.90486 0.0
O45 O 0.90866 0.50896 0.94186 0.0
O46 O 0.88673 0.46604 0.882 0.0
O47 O 0.82954 0.45302 0.98404 0.0
O48 O 0.79018 0.37836 0.90971 0.0
C49 C 0.79774 0.34959 0.90024 0.0
O50 O 0.83398 0.35784 0.8843 0.0
O51 O 0.78628 0.45989 0.86863 0.0
Mg52 Mg 0.37281 0.82807 0.08748 0.0
C53 C 0.4037 0.85084 0.18041 0.0
O54 O 0.43631 0.86936 0.15379 0.0
C55 C 0.32356 0.78155 1.00694 0.0
O56 O 0.36165 0.7944 0.9937 0.0
C57 C 0.429 0.90335 0.02898 0.0
O58 O 0.43385 0.87708 1.00334 0.0
O59 O 0.40593 0.89101 0.06424 0.0
O60 O 0.36827 0.8307 0.16187 0.0
O61 O 0.40722 0.79603 0.08233 0.0
C62 C 0.44586 0.80997 0.08192 0.0
O63 O 0.47154 0.84971 0.07854 0.0
O64 O 0.31704 0.7914 0.04685 0.0
Mg65 Mg 0.53257 0.36879 0.24761 0.0
C66 C 0.53824 0.3903 0.34412 0.0
O67 O 0.55931 0.42561 0.32244 0.0
C68 C 0.5229 0.31848 0.16251 0.0
O69 O 0.53505 0.35488 0.14404 0.0
C70 C 0.52668 0.43942 0.20474 0.0
O71 O 0.5664 0.45437 0.1986 0.0
O72 O 0.50516 0.40432 0.22328 0.0
O73 O 0.51906 0.35733 0.32067 0.0
O74 O 0.59899 0.40524 0.25186 0.0
C75 C 0.62387 0.40068 0.22605 0.0
O76 O 0.61034 0.37844 0.1886 0.0
O77 O 0.51587 0.31397 0.20567 0.0
Mg78 Mg 0.43436 0.82858 0.47514 0.0
C79 C 0.43152 0.85543 0.37726 0.0
O80 O 0.42421 0.88141 0.40023 0.0
C81 C 0.45083 0.78491 0.55084 0.0
O82 O 0.4185 0.78672 0.5657 0.0
C83 C 0.48553 0.91911 0.47941 0.0
O84 O 0.50421 0.9095 0.44732 0.0
O85 O 0.45426 0.89045 0.49963 0.0
O86 O 0.43957 0.83065 0.39937 0.0
O87 O 0.36957 0.786 0.48721 0.0
C88 C 0.34262 0.78749 0.46197 0.0
O89 O 0.35278 0.82035 0.43687 0.0
O90 O 0.46682 0.80176 0.51233 0.0
Mg91 Mg 0.59127 0.41234 0.63536 0.0
C92 C 0.55912 0.4063 0.54143 0.0
O93 O 0.52626 0.39467 0.56711 0.0
C94 C 0.65143 0.43295 0.71309 0.0
O95 O 0.61631 0.41298 0.73538 0.0
C96 C 0.55869 0.46995 0.63951 0.0
O97 O 0.58498 0.48481 0.60512 0.0
O98 O 0.55471 0.43859 0.66123 0.0
O99 O 0.5939 0.41863 0.56066 0.0
O100 O 0.56153 0.3461 0.64162 0.0
C101 C 0.52305 0.32154 0.63845 0.0
O102 O 0.4971 0.33572 0.63879 0.0
O103 O 0.65107 0.43885 0.66991 0.0
Mg104 Mg 0.16401 0.61443 0.79908 0.0
C105 C 0.14599 0.58307 0.70498 0.0
O106 O 0.12867 0.55 0.73109 0.0
C107 C 0.19923 0.66393 0.88351 0.0
O108 O 0.17418 0.62693 0.8997 0.0
C109 C 0.08633 0.55411 0.85273 0.0
O110 O 0.11007 0.54169 0.87215 0.0
O111 O 0.10096 0.58227 0.82239 0.0
O112 O 0.16304 0.61847 0.72398 0.0
O113 O 0.19869 0.58253 0.80563 0.0
C114 C 0.2325 0.60593 0.78521 0.0
O115 O 0.23905 0.64191 0.77011 0.0
O116 O 0.20029 0.67011 0.84022 0.0
Mg117 Mg 0.55965 0.16252 0.96596 0.0
C118 C 0.55488 0.13262 0.86907 0.0
O119 O 0.56149 0.10611 0.89206 0.0
C120 C 0.55138 0.2145 0.03853 0.0
O121 O 0.58924 0.2217 0.04432 0.0
C122 C 0.50074 0.07702 0.99147 0.0
O123 O 0.47605 0.09176 0.98213 0.0
O124 O 0.53944 0.10075 0.98956 0.0
O125 O 0.5491 0.15878 0.89143 0.0
O126 O 0.62556 0.20273 0.97305 0.0
C127 C 0.65074 0.2 0.94583 0.0
O128 O 0.63799 0.16764 0.91921 0.0
O129 O 0.52959 0.18982 1.0068 0.0
Mg130 Mg 0.40199 0.57549 0.13745 0.0
C131 C 0.43743 0.58014 0.04385 0.0
O132 O 0.4701 0.59239 0.06985 0.0
C133 C 0.3427 0.56011 0.21284 0.0
O134 O 0.37669 0.59274 0.22645 0.0
C135 C 0.43605 0.5208 0.15157 0.0
O136 O 0.40483 0.49966 0.12386 0.0
O137 O 0.44352 0.55622 0.16509 0.0
O138 O 0.40233 0.56786 0.06265 0.0
O139 O 0.42193 0.64041 0.14338 0.0
C140 C 0.45742 0.66875 0.13134 0.0
O141 O 0.48679 0.65997 0.12309 0.0
O142 O 0.34306 0.54352 0.17458 0.0
Mg143 Mg 0.83204 0.38333 0.29568 0.0
C144 C 0.84845 0.41171 0.20048 0.0
O145 O 0.86611 0.44568 0.22495 0.0
C146 C 0.78274 0.33376 0.37498 0.0
O147 O 0.79476 0.37188 0.38738 0.0
C148 C 0.9077 0.43849 0.35327 0.0
O149 O 0.88228 0.44688 0.376 0.0
O150 O 0.89492 0.41431 0.31903 0.0
O151 O 0.83186 0.37703 0.2211 0.0
O152 O 0.80009 0.41797 0.30199 0.0
C153 C 0.76463 0.39484 0.28517 0.0
O154 O 0.75494 0.35749 0.27193 0.0
O155 O 0.79525 0.32746 0.33655 0.0
C156 C 0.27273 0.68767 0.40166 0.0
C157 C 0.23347 0.67859 0.41815 0.0
C158 C 0.26552 0.74374 0.4608 0.0
C159 C 0.30489 0.74892 0.45 0.0
N160 N 0.34505 0.71964 0.41809 0.0
N161 N 0.19277 0.69521 0.46977 0.0
C162 C 0.30829 0.71897 0.42307 0.0
C163 C 0.22968 0.70603 0.44914 0.0
N164 N 0.27605 0.66698 0.36454 0.0
N165 N 0.26233 0.77443 0.48273 0.0
H166 H 0.1659 0.66768 0.46306 0.0
H167 H 0.18956 0.71209 0.49642 0.0
H168 H 0.28794 0.80146 0.49402 0.0
H169 H 0.23446 0.77412 0.48697 0.0
H170 H 0.30407 0.67492 0.34864 0.0
H171 H 0.25038 0.64527 0.34641 0.0
H172 H 0.34737 0.69549 0.40304 0.0
H173 H 0.37281 0.74253 0.43142 0.0
C174 C 0.50737 0.23293 0.56428 0.0
C175 C 0.51365 0.20868 0.59729 0.0
C176 C 0.51287 0.25236 0.65968 0.0
C177 C 0.50939 0.27822 0.62643 0.0
N178 N 0.49095 0.28718 0.54943 0.0
N179 N 0.5102 0.18732 0.67626 0.0
C180 C 0.50212 0.26626 0.57946 0.0
C181 C 0.51199 0.2156 0.64508 0.0
N182 N 0.50849 0.2252 0.51845 0.0
N183 N 0.5189 0.26408 0.70487 0.0
H184 H 0.50938 0.16009 0.66637 0.0
H185 H 0.5059 0.1889 0.71146 0.0
H186 H 0.51734 0.28969 0.7167 0.0
H187 H 0.52696 0.24959 0.73018 0.0
H188 H 0.50939 0.24472 0.49229 0.0
H189 H 0.51025 0.19969 0.50662 0.0
H190 H 0.48215 0.27811 0.51554 0.0
H191 H 0.48696 0.31176 0.5595 0.0
C192 C 0.25588 0.55711 0.75423 0.0
C193 C 0.26468 0.59451 0.7767 0.0
C194 C 0.33741 0.62329 0.75858 0.0
C195 C 0.32978 0.58458 0.74142 0.0
N196 N 0.28229 0.5122 0.73033 0.0
N197 N 0.31549 0.65803 0.81187 0.0
C198 C 0.28913 0.55062 0.74143 0.0
C199 C 0.30604 0.62579 0.78281 0.0
N200 N 0.21641 0.52889 0.74261 0.0
N201 N 0.37383 0.65829 0.74947 0.0
H202 H 0.29325 0.66038 0.83138 0.0
H203 H 0.34571 0.67974 0.82025 0.0
H204 H 0.39644 0.65855 0.72812 0.0
H205 H 0.3792 0.68764 0.75816 0.0
H206 H 0.20921 0.5036 0.72162 0.0
H207 H 0.19109 0.53232 0.75058 0.0
H208 H 0.25373 0.48572 0.73437 0.0
H209 H 0.30591 0.5064 0.72082 0.0
C210 C 0.72452 0.30001 0.8881 0.0
C211 C 0.76301 0.30706 0.90468 0.0
C212 C 0.72818 0.24021 0.94406 0.0
C213 C 0.68968 0.23747 0.93414 0.0
N214 N 0.65261 0.27109 0.90524 0.0
N215 N 0.8017 0.28562 0.95298 0.0
C216 C 0.68816 0.26919 0.90874 0.0
C217 C 0.76517 0.27741 0.9335 0.0
N218 N 0.72281 0.32275 0.85216 0.0
N219 N 0.72943 0.20775 0.96418 0.0
H220 H 0.82937 0.31238 0.94614 0.0
H221 H 0.80403 0.26713 0.97835 0.0
H222 H 0.70294 0.18094 0.97443 0.0
H223 H 0.75652 0.20644 0.9679 0.0
H224 H 0.69532 0.31649 0.8362 0.0
H225 H 0.74927 0.34457 0.83509 0.0
H226 H 0.65181 0.29633 0.89096 0.0
H227 H 0.62462 0.24949 0.91963 0.0
C228 C 0.44369 0.74556 0.05848 0.0
C229 C 0.46037 0.77998 0.08812 0.0
C230 C 0.48541 0.74491 0.13947 0.0
C231 C 0.46161 0.70801 0.11452 0.0
N232 N 0.41487 0.67209 0.05168 0.0
N233 N 0.49545 0.81238 0.15884 0.0
C234 C 0.4401 0.70804 0.07415 0.0
C235 C 0.48163 0.78014 0.12876 0.0
N236 N 0.43118 0.74895 1.01528 0.0
N237 N 0.51076 0.74601 0.17396 0.0
H238 H 0.49383 0.83898 0.15227 0.0
H239 H 0.50626 0.81174 0.19169 0.0
H240 H 0.51301 0.72027 0.1837 0.0
H241 H 0.5319 0.77309 0.19032 0.0
H242 H 0.42215 0.72603 0.99037 0.0
H243 H 0.43407 0.77655 1.00289 0.0
H244 H 0.39464 0.66982 0.02572 0.0
H245 H 0.41217 0.64384 0.06061 0.0
C246 C 0.73684 0.43572 0.24566 0.0
C247 C 0.73323 0.40752 0.28063 0.0
C248 C 0.65875 0.37777 0.28221 0.0
C249 C 0.66192 0.40577 0.24716 0.0
N250 N 0.70344 0.46673 0.20217 0.0
N251 N 0.69374 0.3617 0.34196 0.0
C252 C 0.70092 0.4367 0.23116 0.0
C253 C 0.69507 0.38216 0.30237 0.0
N254 N 0.77394 0.45962 0.22456 0.0
N255 N 0.62133 0.34508 0.29388 0.0
H256 H 0.72035 0.36481 0.3574 0.0
H257 H 0.66715 0.34541 0.36174 0.0
H258 H 0.59359 0.33986 0.27955 0.0
H259 H 0.61802 0.32109 0.31509 0.0
H260 H 0.77761 0.47685 0.19494 0.0
H261 H 0.801 0.46076 0.23568 0.0
H262 H 0.73115 0.49228 0.19244 0.0
H263 H 0.67743 0.46764 0.19067 0.0
C264 C 0.18408 0.58772 0.63148 0.0
C265 C 0.14665 0.57799 0.65432 0.0
C266 C 0.10822 0.54628 0.5835 0.0
C267 C 0.14595 0.55908 0.55984 0.0
N268 N 0.22021 0.59936 0.55888 0.0
N269 N 0.07378 0.55381 0.65075 0.0
C270 C 0.18403 0.58177 0.58315 0.0
C271 C 0.10887 0.55885 0.62991 0.0
N272 N 0.21949 0.60107 0.65616 0.0
N273 N 0.07176 0.52107 0.56194 0.0
H274 H 0.07326 0.56299 0.68457 0.0
H275 H 0.04609 0.54402 0.63348 0.0
H276 H 0.07017 0.5111 0.52808 0.0
H277 H 0.04335 0.50713 0.57866 0.0
H278 H 0.24648 0.60367 0.6424 0.0
H279 H 0.22096 0.60629 0.69141 0.0
H280 H 0.24845 0.62026 0.57326 0.0
H281 H 0.22173 0.596 0.52341 0.0
C282 C 0.55446 0.09974 0.74485 0.0
C283 C 0.57502 0.1383 0.7218 0.0
C284 C 0.5854 0.17337 0.79566 0.0
C285 C 0.55993 0.135 0.81793 0.0
N286 N 0.51276 0.06201 0.8103 0.0
N287 N 0.6 0.21175 0.72468 0.0
C288 C 0.54227 0.09822 0.79151 0.0
C289 C 0.58755 0.17516 0.74693 0.0
N290 N 0.54779 0.06463 0.7228 0.0
N291 N 0.60982 0.20776 0.82071 0.0
H292 H 0.60036 0.21451 0.68895 0.0
H293 H 0.60548 0.23848 0.74194 0.0
H294 H 0.61211 0.20692 0.85622 0.0
H295 H 0.63163 0.2355 0.8058 0.0
H296 H 0.53643 0.03634 0.7395 0.0
H297 H 0.55778 0.06464 0.68922 0.0
H298 H 0.49617 0.03516 0.79117 0.0
H299 H 0.50165 0.05999 0.84366 0.0
C300 C 0.43231 0.54868 0.96598 0.0
C301 C 0.44255 0.58392 0.99312 0.0
C302 C 0.45745 0.62588 0.92329 0.0
C303 C 0.45056 0.59146 0.89609 0.0
N304 N 0.44252 0.52313 0.89334 0.0
N305 N 0.47718 0.65827 0.99781 0.0
C306 C 0.44113 0.55363 0.91796 0.0
C307 C 0.45915 0.62324 0.97189 0.0
N308 N 0.41434 0.51053 0.98594 0.0
N309 N 0.45968 0.66016 0.90346 0.0
H310 H 0.47979 0.65786 0.03343 0.0
H311 H 0.49311 0.68769 0.98343 0.0
H312 H 0.45621 0.66291 0.86828 0.0
H313 H 0.46037 0.68409 0.92266 0.0
H314 H 0.40224 0.48333 0.96702 0.0
H315 H 0.40878 0.50592 0.02126 0.0
H316 H 0.43952 0.49642 0.90835 0.0
H317 H 0.45143 0.52658 0.85882 0.0
C318 C 0.88441 0.43397 0.12441 0.0
C319 C 0.84697 0.41487 0.14968 0.0
C320 C 0.8082 0.40713 0.07869 0.0
C321 C 0.84587 0.42972 0.05432 0.0
N322 N 0.92002 0.46966 0.05467 0.0
N323 N 0.77364 0.38917 0.15259 0.0
C324 C 0.88407 0.4445 0.07739 0.0
C325 C 0.80893 0.40297 0.1273 0.0
N326 N 0.92014 0.4408 0.14505 0.0
N327 N 0.77175 0.38795 0.05524 0.0
H328 H 0.77266 0.38494 0.18806 0.0
H329 H 0.74606 0.38507 0.13899 0.0
H330 H 0.76971 0.39005 1.01963 0.0
H331 H 0.74385 0.3671 0.07054 0.0
H332 H 0.94771 0.45061 0.12733 0.0
H333 H 0.92141 0.43305 0.17931 0.0
H334 H 0.94858 0.48507 0.07079 0.0
H335 H 0.92097 0.47809 0.02026 0.0
C336 C 0.43449 0.88973 0.25345 0.0
C337 C 0.40955 0.85153 0.23098 0.0
C338 C 0.39761 0.81569 0.30479 0.0
C339 C 0.42627 0.85317 0.32635 0.0
N340 N 0.47835 0.92461 0.31861 0.0
N341 N 0.3762 0.77714 0.23381 0.0
C342 C 0.44662 0.88987 0.29986 0.0
C343 C 0.39363 0.81416 0.25616 0.0
N344 N 0.44531 0.92594 0.2311 0.0
N345 N 0.37227 0.78211 0.33072 0.0
H346 H 0.37388 0.77443 0.19807 0.0
H347 H 0.36798 0.74942 0.25058 0.0
H348 H 0.3725 0.78291 0.36643 0.0
H349 H 0.34804 0.75536 0.31689 0.0
H350 H 0.46003 0.95453 0.24732 0.0
H351 H 0.43582 0.92716 0.19765 0.0
H352 H 0.49692 0.95108 0.29951 0.0
H353 H 0.48885 0.92555 0.35209 0.0
C354 C 0.52675 0.41467 0.41981 0.0
C355 C 0.5394 0.39001 0.39515 0.0
C356 C 0.56251 0.37357 0.46724 0.0
C357 C 0.55431 0.40208 0.49082 0.0
N358 N 0.53355 0.45389 0.48891 0.0
N359 N 0.57417 0.34994 0.39415 0.0
C360 C 0.53761 0.42367 0.46695 0.0
C361 C 0.55837 0.37028 0.41854 0.0
N362 N 0.50331 0.42854 0.39834 0.0
N363 N 0.57268 0.34842 0.49147 0.0
H364 H 0.57085 0.34577 0.35869 0.0
H365 H 0.59306 0.3397 0.40857 0.0
H366 H 0.57611 0.34976 0.52716 0.0
H367 H 0.57415 0.32374 0.47674 0.0
H368 H 0.48962 0.4432 0.4155 0.0
H369 H 0.49413 0.42178 0.36405 0.0
H370 H 0.52578 0.47376 0.47211 0.0
H371 H 0.54155 0.46166 0.52331 0.0
C372 C 0.9782 0.49671 0.37254 0.0
C373 C 0.95026 0.45379 0.36964 0.0
C374 C 0.00586 0.43922 0.38729 0.0
C375 C 0.03286 0.48182 0.39484 0.0
N376 N 0.04251 0.55046 0.40363 0.0
N377 N 0.93519 0.3841 0.38512 0.0
C378 C 0.01849 0.5105 0.38991 0.0
C379 C 0.96341 0.42497 0.38016 0.0
N380 N 0.96688 0.52431 0.35714 0.0
N381 N 0.02094 0.4125 0.38497 0.0
H382 H 0.90353 0.37251 0.38183 0.0
H383 H 0.94279 0.36243 0.39733 0.0
H384 H 0.05216 0.42188 0.38825 0.0
H385 H 0.00315 0.38185 0.37492 0.0
H386 H 0.98749 0.55572 0.35374 0.0
H387 H 0.93773 0.51543 0.34391 0.0
H388 H 0.03184 0.57148 0.40536 0.0
H389 H 0.07186 0.5617 0.41746 0.0
C390 C 0.54399 0.98819 0.50052 0.0
C391 C 0.50137 0.963 0.49135 0.0
C392 C 0.4912 0.02259 0.50256 0.0
C393 C 0.53444 0.04834 0.50633 0.0
N394 N 0.60269 0.05699 0.49892 0.0
N395 N 0.4352 0.9577 0.47592 0.0
C396 C 0.56106 0.03152 0.50241 0.0
C397 C 0.47507 0.98052 0.49034 0.0
N398 N 0.56792 0.97066 0.50946 0.0
N399 N 0.46541 0.03779 0.51246 0.0
H400 H 0.42181 0.92681 0.46671 0.0
H401 H 0.41634 0.97039 0.46936 0.0
H402 H 0.47595 0.06838 0.52169 0.0
H403 H 0.43359 0.01924 0.51545 0.0
H404 H 0.59826 0.98747 0.52081 0.0
H405 H 0.55622 0.93886 0.51056 0.0
H406 H 0.62315 0.04638 0.49135 0.0
H407 H 0.6164 0.08905 0.49873 0.0
C408 C 0.53367 0.55481 0.66441 0.0
C409 C 0.49053 0.532 0.67195 0.0
C410 C 0.49116 0.46799 0.65486 0.0
C411 C 0.53492 0.49051 0.65281 0.0
N412 N 0.59808 0.55425 0.66607 0.0
N413 N 0.42883 0.46627 0.68181 0.0
C414 C 0.55627 0.53365 0.66048 0.0
C415 C 0.46933 0.48837 0.66914 0.0
N416 N 0.55291 0.59669 0.65941 0.0
N417 N 0.47028 0.42769 0.64139 0.0
H418 H 0.41177 0.48002 0.69254 0.0
H419 H 0.41314 0.43432 0.68542 0.0
H420 H 0.48487 0.41159 0.63031 0.0
H421 H 0.43842 0.41126 0.63731 0.0
H422 H 0.5836 0.61434 0.64932 0.0
H423 H 0.53718 0.6133 0.66045 0.0
H424 H 0.61461 0.58496 0.6763 0.0
H425 H 0.61573 0.5396 0.6655 0.0
C426 C 0.01489 0.49494 0.86698 0.0
C427 C 0.0432 0.53786 0.86805 0.0
C428 C 0.98716 0.55153 0.88693 0.0
C429 C 0.9597 0.50858 0.89083 0.0
N430 N 0.94985 0.43951 0.89464 0.0
N431 N 0.05794 0.60616 0.89049 0.0
C432 C 0.97416 0.4802 0.88365 0.0
C433 C 0.02983 0.56596 0.88137 0.0
N434 N 0.02621 0.46834 0.8484 0.0
N435 N 0.97241 0.57857 0.88658 0.0
H436 H 0.08969 0.61767 0.88884 0.0
H437 H 0.04986 0.62686 0.90462 0.0
H438 H 0.94111 0.5692 0.88861 0.0
H439 H 0.99083 0.60983 0.87925 0.0
H440 H 0.00537 0.43736 0.84233 0.0
H441 H 0.0555 0.4779 0.835 0.0
H442 H 0.96055 0.41847 0.89449 0.0
H443 H 0.92032 0.42752 0.90841 0.0
C444 C 0.45813 0.00355 0.96659 0.0
C445 C 0.48362 0.03251 1.00025 0.0
C446 C 0.47899 0.97646 0.04834 0.0
C447 C 0.4499 0.94753 1.01718 0.0
N448 N 0.40698 0.9329 0.95001 0.0
N449 N 0.51351 0.04674 0.07624 0.0
C450 C 0.43828 0.96084 0.97705 0.0
C451 C 0.49298 0.01907 0.04192 0.0
N452 N 0.45395 0.01674 0.92405 0.0
N453 N 0.49399 0.9632 0.08341 0.0
H454 H 0.52369 0.07818 0.07319 0.0
H455 H 0.51723 0.03815 0.10924 0.0
H456 H 0.48473 0.93219 0.08879 0.0
H457 H 0.51829 0.98302 0.10445 0.0
H458 H 0.4397 -0.00306 0.89647 0.0
H459 H 0.46788 0.04776 0.91491 0.0
H460 H 0.39384 0.9413 0.9235 0.0
H461 H 0.39172 0.90125 0.95631 0.0
C462 C 0.46569 0.4957 0.21291 0.0
C463 C 0.46243 0.50345 0.16567 0.0
C464 C 0.50172 0.46928 0.14392 0.0
C465 C 0.50683 0.46358 0.19118 0.0
N466 N 0.50121 0.47821 0.27089 0.0
N467 N 0.48397 0.50519 0.08684 0.0
C468 C 0.4911 0.47892 0.22578 0.0
C469 C 0.48242 0.49245 0.13132 0.0
N470 N 0.44282 0.50224 0.24522 0.0
N471 N 0.5137 0.45104 0.11108 0.0
H472 H 0.47038 0.52237 0.07624 0.0
H473 H 0.5018 0.50199 0.06128 0.0
H474 H 0.52837 0.43418 0.11891 0.0
H475 H 0.50629 0.44988 0.07636 0.0
H476 H 0.44031 0.49274 0.27937 0.0
H477 H 0.42343 0.51405 0.23727 0.0
H478 H 0.4943 0.4928 0.29719 0.0
H479 H 0.51982 0.46619 0.28153 0.0
C480 C 0.23443 0.52837 0.25783 0.0
C481 C 0.24248 0.53307 0.30589 0.0
C482 C 0.31003 0.53925 0.29081 0.0
C483 C 0.30541 0.54379 0.24299 0.0
N484 N 0.26323 0.5458 0.18101 0.0
N485 N 0.29092 0.5475 0.36799 0.0
C486 C 0.26735 0.53848 0.22626 0.0
C487 C 0.28081 0.53902 0.32256 0.0
N488 N 0.19513 0.51397 0.2424 0.0
N489 N 0.34232 0.53488 0.30587 0.0
H490 H 0.27132 0.54881 0.39262 0.0
H491 H 0.32036 0.55684 0.38054 0.0
H492 H 0.36355 0.53374 0.28331 0.0
H493 H 0.34525 0.52777 0.33987 0.0
H494 H 0.18666 0.50637 0.20811 0.0
H495 H 0.17026 0.50535 0.26477 0.0
H496 H 0.23779 0.54711 0.16839 0.0
H497 H 0.28647 0.55392 0.15662 0.0
C498 C 0.76342 0.302 0.45349 0.0
C499 C 0.75413 0.2995 0.4058 0.0
C500 C 0.68737 0.23814 0.42134 0.0
C501 C 0.69342 0.24587 0.46935 0.0
N502 N 0.73645 0.28873 0.53123 0.0
N503 N 0.70429 0.26716 0.34475 0.0
C504 C 0.73147 0.27842 0.48563 0.0
C505 C 0.71551 0.26777 0.38962 0.0
N506 N 0.80299 0.32659 0.46801 0.0
N507 N 0.65509 0.20201 0.40598 0.0
H508 H 0.72339 0.28821 0.32013 0.0
H509 H 0.67454 0.24772 0.33284 0.0
H510 H 0.6347 0.17897 0.42828 0.0
H511 H 0.65138 0.19305 0.37155 0.0
H512 H 0.81234 0.32679 0.50184 0.0
H513 H 0.82729 0.34333 0.4452 0.0
H514 H 0.76189 0.31512 0.5439 0.0
H515 H 0.71369 0.27317 0.55597 0.0
C516 C 0.48135 0.70611 0.59213 0.0
C517 C 0.47707 0.70885 0.64041 0.0
C518 C 0.47274 0.77167 0.6275 0.0
C519 C 0.46722 0.76303 0.57962 0.0
N520 N 0.46362 0.71924 0.51631 0.0
N521 N 0.4662 0.74416 0.70434 0.0
C522 C 0.4716 0.72997 0.56165 0.0
C523 C 0.4729 0.74207 0.65839 0.0
N524 N 0.49486 0.68062 0.57545 0.0
N525 N 0.47815 0.80846 0.64341 0.0
H526 H 0.4662 0.72372 0.72869 0.0
H527 H 0.45759 0.76463 0.71797 0.0
H528 H 0.47925 0.83115 0.62145 0.0
H529 H 0.48608 0.81818 0.67734 0.0
H530 H 0.50206 0.67993 0.54089 0.0
H531 H 0.50322 0.66361 0.59708 0.0
H532 H 0.46161 0.69241 0.50292 0.0
H533 H 0.45567 0.7351 0.49267 0.0
C534 C 0.74047 0.48553 0.79844 0.0
C535 C 0.75878 0.46017 0.79418 0.0
C536 C 0.71167 0.4227 0.7304 0.0
C537 C 0.69058 0.44506 0.73802 0.0
N538 N 0.68267 0.49602 0.78089 0.0
N539 N 0.7574 0.40003 0.76107 0.0
C540 C 0.70438 0.47601 0.77255 0.0
C541 C 0.74354 0.42782 0.76112 0.0
N542 N 0.75848 0.51956 0.82607 0.0
N543 N 0.70097 0.39603 0.69411 0.0
H544 H 0.78003 0.40172 0.78329 0.0
H545 H 0.74383 0.3729 0.742 0.0
H546 H 0.6762 0.38921 0.67246 0.0
H547 H 0.71854 0.38292 0.68325 0.0
H548 H 0.74933 0.54176 0.82728 0.0
H549 H 0.78503 0.52754 0.84513 0.0
H550 H 0.68786 0.51515 0.80911 0.0
H551 H 0.6578 0.49184 0.76072 0.0
C552 C 0.26302 0.76195 0.9541 0.0
C553 C 0.28936 0.75096 0.978 0.0
C554 C 0.25951 0.68544 0.93612 0.0
C555 C 0.23106 0.69496 0.91457 0.0
N556 N 0.20157 0.73938 0.90745 0.0
N557 N 0.30764 0.69943 0.99853 0.0
C558 C 0.23169 0.7325 0.92471 0.0
C559 C 0.2861 0.71185 0.97093 0.0
N560 N 0.2689 0.80097 0.95827 0.0
N561 N 0.26236 0.65196 0.92195 0.0
H562 H 0.32717 0.71775 0.02473 0.0
H563 H 0.30328 0.66963 0.99848 0.0
H564 H 0.24388 0.63198 0.89618 0.0
H565 H 0.28565 0.64613 0.93246 0.0
H566 H 0.25396 0.81252 0.93792 0.0
H567 H 0.2909 0.8229 0.98018 0.0
H568 H 0.19755 0.76396 0.91743 0.0
H569 H 0.17857 0.71873 0.88546 0.0
C570 C 0.54174 0.26248 0.14853 0.0
C571 C 0.52236 0.28511 0.13353 0.0
C572 C 0.51692 0.25733 0.05542 0.0
C573 C 0.53478 0.23364 0.07113 0.0
N574 N 0.54976 0.20274 0.13582 0.0
N575 N 0.48006 0.29324 0.07636 0.0
C576 C 0.54228 0.23257 0.1188 0.0
C577 C 0.5062 0.27896 0.0881 0.0
N578 N 0.56259 0.27137 0.18932 0.0
N579 N 0.51237 0.26137 1.00937 0.0
H580 H 0.47032 0.30778 0.09994 0.0
H581 H 0.46455 0.28653 0.04501 0.0
H582 H 0.52026 0.24668 0.98411 0.0
H583 H 0.5039 0.28208 0.99612 0.0
H584 H 0.58074 0.25851 0.19882 0.0
H585 H 0.56577 0.29457 0.21151 0.0
H586 H 0.55182 0.19836 0.17097 0.0
H587 H 0.54903 0.17951 0.11515 0.0
loop_
_geom_bond_atom_site_label_1
_geom_bond_atom_site_label_2
_geom_bond_distance
_geom_bond_site_symmetry_2
_ccdc_geom_bond_type
Mg0 O7 2.141 . S
Mg0 O8 2.048 . S
Mg0 O9 2.048 . S
Mg0 O12 2.141 . S
C1 O2 1.313 . S
C1 O8 1.195 . S
O2 C1 1.313 . S
C3 O4 1.245 . S
C3 O12 1.289 . S
O4 C3 1.245 . S
C5 O6 1.245 . S
C5 O7 1.289 . S
O6 C5 1.245 . S
O7 Mg0 2.141 . S
O7 C5 1.289 . S
O8 Mg0 2.048 . S
O8 C1 1.195 . S
O9 Mg0 2.048 . S
O9 C10 1.195 . S
C10 O9 1.195 . S
C10 O11 1.313 . S
O11 C10 1.313 . S
O12 Mg0 2.141 . S
O12 C3 1.289 . S
Mg13 O20 2.141 . S
Mg13 O21 2.048 . S
Mg13 O22 2.048 . S
Mg13 O25 2.141 . S
C14 O15 1.313 . S
C14 O21 1.195 . S
O15 C14 1.313 . S
C16 O17 1.245 . S
C16 O25 1.289 . S
O17 C16 1.245 . S
C18 O19 1.245 . S
C18 O20 1.289 . S
O19 C18 1.245 . S
O20 Mg13 2.141 . S
O20 C18 1.289 . S
O21 Mg13 2.048 . S
O21 C14 1.195 . S
O22 Mg13 2.048 . S
O22 C23 1.195 . S
C23 O22 1.195 . S
C23 O24 1.313 . S
O24 C23 1.313 . S
O25 Mg13 2.141 . S
O25 C16 1.289 . S
Mg26 O33 2.141 . S
Mg26 O34 2.048 . S
Mg26 O35 2.048 . S
Mg26 O38 2.141 . S
C27 O28 1.313 . S
C27 O34 1.195 . S
O28 C27 1.313 . S
C29 O30 1.245 . S
C29 O38 1.289 . S
O30 C29 1.245 . S
C31 O32 1.245 . S
C31 O33 1.289 . S
O32 C31 1.245 . S
O33 Mg26 2.141 . S
O33 C31 1.289 . S
O34 Mg26 2.048 . S
O34 C27 1.195 . S
O35 Mg26 2.048 . S
O35 C36 1.195 . S
C36 O35 1.195 . S
C36 O37 1.313 . S
O37 C36 1.313 . S
O38 Mg26 2.141 . S
O38 C29 1.289 . S
Mg39 O46 2.141 . S
Mg39 O47 2.048 . S
Mg39 O48 2.048 . S
Mg39 O51 2.141 . S
C40 O41 1.313 . S
C40 O47 1.195 . S
O41 C40 1.313 . S
C42 O43 1.245 . S
C42 O51 1.289 . S
O43 C42 1.245 . S
C44 O45 1.245 . S
C44 O46 1.289 . S
O45 C44 1.245 . S
O46 Mg39 2.141 . S
O46 C44 1.289 . S
O47 Mg39 2.048 . S
O47 C40 1.195 . S
O48 Mg39 2.048 . S
O48 C49 1.195 . S
C49 O48 1.195 . S
C49 O50 1.313 . S
O50 C49 1.313 . S
O51 Mg39 2.141 . S
O51 C42 1.289 . S
Mg52 O59 2.141 . S
Mg52 O60 2.048 . S
Mg52 O61 2.048 . S
Mg52 O64 2.141 . S
C53 O54 1.313 . S
C53 O60 1.195 . S
O54 C53 1.313 . S
C55 O56 1.245 . S
C55 O64 1.289 1_556 S
O56 C55 1.245 . S
C57 O58 1.245 . S
C57 O59 1.289 . S
O58 C57 1.245 . S
O59 Mg52 2.141 . S
O59 C57 1.289 . S
O60 Mg52 2.048 . S
O60 C53 1.195 . S
O61 Mg52 2.048 . S
O61 C62 1.195 . S
C62 O61 1.195 . S
C62 O63 1.313 . S
O63 C62 1.313 . S
O64 Mg52 2.141 . S
O64 C55 1.289 1_554 S
Mg65 O72 2.141 . S
Mg65 O73 2.048 . S
Mg65 O74 2.048 . S
Mg65 O77 2.141 . S
C66 O67 1.313 . S
C66 O73 1.195 . S
O67 C66 1.313 . S
C68 O69 1.245 . S
C68 O77 1.289 . S
O69 C68 1.245 . S
C70 O71 1.245 . S
C70 O72 1.289 . S
O71 C70 1.245 . S
O72 Mg65 2.141 . S
O72 C70 1.289 . S
O73 Mg65 2.048 . S
O73 C66 1.195 . S
O74 Mg65 2.048 . S
O74 C75 1.195 . S
C75 O74 1.195 . S
C75 O76 1.313 . S
O76 C75 1.313 . S
O77 Mg65 2.141 . S
O77 C68 1.289 . S
Mg78 O85 2.141 . S
Mg78 O86 2.048 . S
Mg78 O87 2.048 . S
Mg78 O90 2.141 . S
C79 O80 1.313 . S
C79 O86 1.195 . S
O80 C79 1.313 . S
C81 O82 1.245 . S
C81 O90 1.289 . S
O82 C81 1.245 . S
C83 O84 1.245 . S
C83 O85 1.289 . S
O84 C83 1.245 . S
O85 Mg78 2.141 . S
O85 C83 1.289 . S
O86 Mg78 2.048 . S
O86 C79 1.195 . S
O87 Mg78 2.048 . S
O87 C88 1.195 . S
C88 O87 1.195 . S
C88 O89 1.313 . S
O89 C88 1.313 . S
O90 Mg78 2.141 . S
O90 C81 1.289 . S
Mg91 O98 2.141 . S
Mg91 O99 2.048 . S
Mg91 O100 2.048 . S
Mg91 O103 2.141 . S
C92 O93 1.313 . S
C92 O99 1.195 . S
O93 C92 1.313 . S
C94 O95 1.245 . S
C94 O103 1.289 . S
O95 C94 1.245 . S
C96 O97 1.245 . S
C96 O98 1.289 . S
O97 C96 1.245 . S
O98 Mg91 2.141 . S
O98 C96 1.289 . S
O99 Mg91 2.048 . S
O99 C92 1.195 . S
O100 Mg91 2.048 . S
O100 C101 1.195 . S
C101 O100 1.195 . S
C101 O102 1.313 . S
O102 C101 1.313 . S
O103 Mg91 2.141 . S
O103 C94 1.289 . S
Mg104 O111 2.141 . S
Mg104 O112 2.048 . S
Mg104 O113 2.048 . S
Mg104 O116 2.141 . S
C105 O106 1.313 . S
C105 O112 1.195 . S
O106 C105 1.313 . S
C107 O108 1.245 . S
C107 O116 1.289 . S
O108 C107 1.245 . S
C109 O110 1.245 . S
C109 O111 1.289 . S
O110 C109 1.245 . S
O111 Mg104 2.141 . S
O111 C109 1.289 . S
O112 Mg104 2.048 . S
O112 C105 1.195 . S
O113 Mg104 2.048 . S
O113 C114 1.195 . S
C114 O113 1.195 . S
C114 O115 1.313 . S
O115 C114 1.313 . S
O116 Mg104 2.141 . S
O116 C107 1.289 . S
Mg117 O124 2.141 . S
Mg117 O125 2.048 . S
Mg117 O126 2.048 . S
Mg117 O129 2.141 . S
C118 O119 1.313 . S
C118 O125 1.195 . S
O119 C118 1.313 . S
C120 O121 1.245 . S
C120 O129 1.289 1_554 S
O121 C120 1.245 . S
C122 O123 1.245 . S
C122 O124 1.289 . S
O123 C122 1.245 . S
O124 Mg117 2.141 . S
O124 C122 1.289 . S
O125 Mg117 2.048 . S
O125 C118 1.195 . S
O126 Mg117 2.048 . S
O126 C127 1.195 . S
C127 O126 1.195 . S
C127 O128 1.313 . S
O128 C127 1.313 . S
O129 Mg117 2.141 . S
O129 C120 1.289 1_556 S
Mg130 O137 2.141 . S
Mg130 O138 2.048 . S
Mg130 O139 2.048 . S
Mg130 O142 2.141 . S
C131 O132 1.313 . S
C131 O138 1.195 . S
O132 C131 1.313 . S
C133 O134 1.245 . S
C133 O142 1.289 . S
O134 C133 1.245 . S
C135 O136 1.245 . S
C135 O137 1.289 . S
O136 C135 1.245 . S
O137 Mg130 2.141 . S
O137 C135 1.289 . S
O138 Mg130 2.048 . S
O138 C131 1.195 . S
O139 Mg130 2.048 . S
O139 C140 1.195 . S
C140 O139 1.195 . S
C140 O141 1.313 . S
O141 C140 1.313 . S
O142 Mg130 2.141 . S
O142 C133 1.289 . S
Mg143 O150 2.141 . S
Mg143 O151 2.048 . S
Mg143 O152 2.048 . S
Mg143 O155 2.141 . S
C144 O145 1.313 . S
C144 O151 1.195 . S
O145 C144 1.313 . S
C146 O147 1.245 . S
C146 O155 1.289 . S
O147 C146 1.245 . S
C148 O149 1.245 . S
C148 O150 1.289 . S
O149 C148 1.245 . S
O150 Mg143 2.141 . S
O150 C148 1.289 . S
O151 Mg143 2.048 . S
O151 C144 1.195 . S
O152 Mg143 2.048 . S
O152 C153 1.195 . S
C153 O152 1.195 . S
C153 O154 1.313 . S
O154 C153 1.313 . S
O155 Mg143 2.141 . S
O155 C146 1.289 . S
C156 C157 1.363 . S
C156 C162 1.379 . S
C156 N164 1.356 . S
C157 C156 1.363 . S
C157 C163 1.363 . S
C158 C159 1.363 . S
C158 C163 1.379 . S
C158 N165 1.356 . S
C159 C158 1.363 . S
C159 C162 1.363 . S
N160 C162 1.356 . S
N160 H172 0.984 . S
N160 H173 0.985 . S
N161 C163 1.356 . S
N161 H166 0.984 . S
N161 H167 0.985 . S
C162 C156 1.379 . S
C162 C159 1.363 . S
C162 N160 1.356 . S
C163 C157 1.363 . S
C163 C158 1.379 . S
C163 N161 1.356 . S
N164 C156 1.356 . S
N164 H170 0.984 . S
N164 H171 0.984 . S
N165 C158 1.356 . S
N165 H168 0.984 . S
N165 H169 0.985 . S
H166 N161 0.984 . S
H167 N161 0.985 . S
H168 N165 0.984 . S
H169 N165 0.985 . S
H170 N164 0.984 . S
H171 N164 0.984 . S
H172 N160 0.984 . S
H173 N160 0.985 . S
C174 C175 1.363 . S
C174 C180 1.379 . S
C174 N182 1.356 . S
C175 C174 1.363 . S
C175 C181 1.363 . S
C176 C177 1.363 . S
C176 C181 1.379 . S
C176 N183 1.356 . S
C177 C176 1.363 . S
C177 C180 1.363 . S
N178 C180 1.356 . S
N178 H190 0.984 . S
N178 H191 0.985 . S
N179 C181 1.356 . S
N179 H184 0.984 . S
N179 H185 0.985 . S
C180 C174 1.379 . S
C180 C177 1.363 . S
C180 N178 1.356 . S
C181 C175 1.363 . S
C181 C176 1.379 . S
C181 N179 1.356 . S
N182 C174 1.356 . S
N182 H188 0.984 . S
N182 H189 0.984 . S
N183 C176 1.356 . S
N183 H186 0.984 . S
N183 H187 0.985 . S
H184 N179 0.984 . S
H185 N179 0.985 . S
H186 N183 0.984 . S
H187 N183 0.985 . S
H188 N182 0.984 . S
H189 N182 0.984 . S
H190 N178 0.984 . S
H191 N178 0.985 . S
C192 C193 1.363 . S
C192 C198 1.379 . S
C192 N200 1.356 . S
C193 C192 1.363 . S
C193 C199 1.363 . S
C194 C195 1.363 . S
C194 C199 1.379 . S
C194 N201 1.356 . S
C195 C194 1.363 . S
C195 C198 1.363 . S
N196 C198 1.356 . S
N196 H208 0.984 . S
N196 H209 0.985 . S
N197 C199 1.356 . S
N197 H202 0.984 . S
N197 H203 0.985 . S
C198 C192 1.379 . S
C198 C195 1.363 . S
C198 N196 1.356 . S
C199 C193 1.363 . S
C199 C194 1.379 . S
C199 N197 1.356 . S
N200 C192 1.356 . S
N200 H206 0.984 . S
N200 H207 0.984 . S
N201 C194 1.356 . S
N201 H204 0.984 . S
N201 H205 0.985 . S
H202 N197 0.984 . S
H203 N197 0.985 . S
H204 N201 0.984 . S
H205 N201 0.985 . S
H206 N200 0.984 . S
H207 N200 0.984 . S
H208 N196 0.984 . S
H209 N196 0.985 . S
C210 C211 1.363 . S
C210 C216 1.379 . S
C210 N218 1.356 . S
C211 C210 1.363 . S
C211 C217 1.363 . S
C212 C213 1.363 . S
C212 C217 1.379 . S
C212 N219 1.356 . S
C213 C212 1.363 . S
C213 C216 1.363 . S
N214 C216 1.356 . S
N214 H226 0.984 . S
N214 H227 0.985 . S
N215 C217 1.356 . S
N215 H220 0.984 . S
N215 H221 0.985 1_556 S
C216 C210 1.379 . S
C216 C213 1.363 . S
C216 N214 1.356 . S
C217 C211 1.363 . S
C217 C212 1.379 . S
C217 N215 1.356 . S
N218 C210 1.356 . S
N218 H224 0.984 . S
N218 H225 0.984 . S
N219 C212 1.356 . S
N219 H222 0.984 . S
N219 H223 0.985 . S
H220 N215 0.984 . S
H221 N215 0.985 1_554 S
H222 N219 0.984 . S
H223 N219 0.985 . S
H224 N218 0.984 . S
H225 N218 0.984 . S
H226 N214 0.984 . S
H227 N214 0.985 . S
C228 C229 1.363 . S
C228 C234 1.379 . S
C228 N236 1.356 . S
C229 C228 1.363 . S
C229 C235 1.363 . S
C230 C231 1.363 . S
C230 C235 1.379 . S
C230 N237 1.356 . S
C231 C230 1.363 . S
C231 C234 1.363 . S
N232 C234 1.356 . S
N232 H244 0.984 1_554 S
N232 H245 0.985 . S
N233 C235 1.356 . S
N233 H238 0.984 . S
N233 H239 0.985 . S
C234 C228 1.379 . S
C234 C231 1.363 . S
C234 N232 1.356 . S
C235 C229 1.363 . S
C235 C230 1.379 . S
C235 N233 1.356 . S
N236 C228 1.356 . S
N236 H242 0.984 . S
N236 H243 0.984 . S
N237 C230 1.356 . S
N237 H240 0.984 . S
N237 H241 0.985 . S
H238 N233 0.984 . S
H239 N233 0.985 . S
H240 N237 0.984 . S
H241 N237 0.985 . S
H242 N236 0.984 . S
H243 N236 0.984 . S
H244 N232 0.984 1_556 S
H245 N232 0.985 . S
C246 C247 1.363 . S
C246 C252 1.379 . S
C246 N254 1.356 . S
C247 C246 1.363 . S
C247 C253 1.363 . S
C248 C249 1.363 . S
C248 C253 1.379 . S
C248 N255 1.356 . S
C249 C248 1.363 . S
C249 C252 1.363 . S
N250 C252 1.356 . S
N250 H262 0.984 . S
N250 H263 0.985 . S
N251 C253 1.356 . S
N251 H256 0.984 . S
N251 H257 0.985 . S
C252 C246 1.379 . S
C252 C249 1.363 . S
C252 N250 1.356 . S
C253 C247 1.363 . S
C253 C248 1.379 . S
C253 N251 1.356 . S
N254 C246 1.356 . S
N254 H260 0.984 . S
N254 H261 0.984 . S
N255 C248 1.356 . S
N255 H258 0.984 . S
N255 H259 0.985 . S
H256 N251 0.984 . S
H257 N251 0.985 . S
H258 N255 0.984 . S
H259 N255 0.985 . S
H260 N254 0.984 . S
H261 N254 0.984 . S
H262 N250 0.984 . S
H263 N250 0.985 . S
C264 C265 1.363 . S
C264 C270 1.379 . S
C264 N272 1.356 . S
C265 C264 1.363 . S
C265 C271 1.363 . S
C266 C267 1.363 . S
C266 C271 1.379 . S
C266 N273 1.356 . S
C267 C266 1.363 . S
C267 C270 1.363 . S
N268 C270 1.356 . S
N268 H280 0.984 . S
N268 H281 0.985 . S
N269 C271 1.356 . S
N269 H274 0.984 . S
N269 H275 0.985 . S
C270 C264 1.379 . S
C270 C267 1.363 . S
C270 N268 1.356 . S
C271 C265 1.363 . S
C271 C266 1.379 . S
C271 N269 1.356 . S
N272 C264 1.356 . S
N272 H278 0.984 . S
N272 H279 0.984 . S
N273 C266 1.356 . S
N273 H276 0.984 . S
N273 H277 0.985 . S
H274 N269 0.984 . S
H275 N269 0.985 . S
H276 N273 0.984 . S
H277 N273 0.985 . S
H278 N272 0.984 . S
H279 N272 0.984 . S
H280 N268 0.984 . S
H281 N268 0.985 . S
C282 C283 1.363 . S
C282 C288 1.379 . S
C282 N290 1.356 . S
C283 C282 1.363 . S
C283 C289 1.363 . S
C284 C285 1.363 . S
C284 C289 1.379 . S
C284 N291 1.356 . S
C285 C284 1.363 . S
C285 C288 1.363 . S
N286 C288 1.356 . S
N286 H298 0.984 . S
N286 H299 0.985 . S
N287 C289 1.356 . S
N287 H292 0.984 . S
N287 H293 0.985 . S
C288 C282 1.379 . S
C288 C285 1.363 . S
C288 N286 1.356 . S
C289 C283 1.363 . S
C289 C284 1.379 . S
C289 N287 1.356 . S
N290 C282 1.356 . S
N290 H296 0.984 . S
N290 H297 0.984 . S
N291 C284 1.356 . S
N291 H294 0.984 . S
N291 H295 0.985 . S
H292 N287 0.984 . S
H293 N287 0.985 . S
H294 N291 0.984 . S
H295 N291 0.985 . S
H296 N290 0.984 . S
H297 N290 0.984 . S
H298 N286 0.984 . S
H299 N286 0.985 . S
C300 C301 1.363 . S
C300 C306 1.379 . S
C300 N308 1.356 . S
C301 C300 1.363 . S
C301 C307 1.363 . S
C302 C303 1.363 . S
C302 C307 1.379 . S
C302 N309 1.356 . S
C303 C302 1.363 . S
C303 C306 1.363 . S
N304 C306 1.356 . S
N304 H316 0.984 . S
N304 H317 0.985 . S
N305 C307 1.356 . S
N305 H310 0.984 1_556 S
N305 H311 0.985 . S
C306 C300 1.379 . S
C306 C303 1.363 . S
C306 N304 1.356 . S
C307 C301 1.363 . S
C307 C302 1.379 . S
C307 N305 1.356 . S
N308 C300 1.356 . S
N308 H314 0.984 . S
N308 H315 0.984 . S
N309 C302 1.356 . S
N309 H312 0.984 . S
N309 H313 0.985 . S
H310 N305 0.984 1_554 S
H311 N305 0.985 . S
H312 N309 0.984 . S
H313 N309 0.985 . S
H314 N308 0.984 . S
H315 N308 0.984 . S
H316 N304 0.984 . S
H317 N304 0.985 . S
C318 C319 1.363 . S
C318 C324 1.379 . S
C318 N326 1.356 . S
C319 C318 1.363 . S
C319 C325 1.363 . S
C320 C321 1.363 . S
C320 C325 1.379 . S
C320 N327 1.356 . S
C321 C320 1.363 . S
C321 C324 1.363 . S
N322 C324 1.356 . S
N322 H334 0.984 . S
N322 H335 0.985 1_554 S
N323 C325 1.356 . S
N323 H328 0.984 . S
N323 H329 0.985 . S
C324 C318 1.379 . S
C324 C321 1.363 . S
C324 N322 1.356 . S
C325 C319 1.363 . S
C325 C320 1.379 . S
C325 N323 1.356 . S
N326 C318 1.356 . S
N326 H332 0.984 . S
N326 H333 0.984 . S
N327 C320 1.356 . S
N327 H330 0.984 . S
N327 H331 0.985 . S
H328 N323 0.984 . S
H329 N323 0.985 . S
H330 N327 0.984 . S
H331 N327 0.985 . S
H332 N326 0.984 . S
H333 N326 0.984 . S
H334 N322 0.984 . S
H335 N322 0.985 1_556 S
C336 C337 1.363 . S
C336 C342 1.379 . S
C336 N344 1.356 . S
C337 C336 1.363 . S
C337 C343 1.363 . S
C338 C339 1.363 . S
C338 C343 1.379 . S
C338 N345 1.356 . S
C339 C338 1.363 . S
C339 C342 1.363 . S
N340 C342 1.356 . S
N340 H352 0.984 . S
N340 H353 0.985 . S
N341 C343 1.356 . S
N341 H346 0.984 . S
N341 H347 0.985 . S
C342 C336 1.379 . S
C342 C339 1.363 . S
C342 N340 1.356 . S
C343 C337 1.363 . S
C343 C338 1.379 . S
C343 N341 1.356 . S
N344 C336 1.356 . S
N344 H350 0.984 . S
N344 H351 0.984 . S
N345 C338 1.356 . S
N345 H348 0.984 . S
N345 H349 0.985 . S
H346 N341 0.984 . S
H347 N341 0.985 . S
H348 N345 0.984 . S
H349 N345 0.985 . S
H350 N344 0.984 . S
H351 N344 0.984 . S
H352 N340 0.984 . S
H353 N340 0.985 . S
C354 C355 1.363 . S
C354 C360 1.379 . S
C354 N362 1.356 . S
C355 C354 1.363 . S
C355 C361 1.363 . S
C356 C357 1.363 . S
C356 C361 1.379 . S
C356 N363 1.356 . S
C357 C356 1.363 . S
C357 C360 1.363 . S
N358 C360 1.356 . S
N358 H370 0.984 . S
N358 H371 0.985 . S
N359 C361 1.356 . S
N359 H364 0.984 . S
N359 H365 0.985 . S
C360 C354 1.379 . S
C360 C357 1.363 . S
C360 N358 1.356 . S
C361 C355 1.363 . S
C361 C356 1.379 . S
C361 N359 1.356 . S
N362 C354 1.356 . S
N362 H368 0.984 . S
N362 H369 0.984 . S
N363 C356 1.356 . S
N363 H366 0.984 . S
N363 H367 0.985 . S
H364 N359 0.984 . S
H365 N359 0.985 . S
H366 N363 0.984 . S
H367 N363 0.985 . S
H368 N362 0.984 . S
H369 N362 0.984 . S
H370 N358 0.984 . S
H371 N358 0.985 . S
C372 C373 1.363 1_455 S
C372 C378 1.379 . S
C372 N380 1.356 1_455 S
C373 C372 1.363 1_655 S
C373 C379 1.363 . S
C374 C375 1.363 1_655 S
C374 C379 1.379 . S
C374 N381 1.356 1_655 S
C375 C374 1.363 1_455 S
C375 C378 1.363 . S
N376 C378 1.356 . S
N376 H388 0.984 . S
N376 H389 0.985 . S
N377 C379 1.356 . S
N377 H382 0.984 . S
N377 H383 0.985 . S
C378 C372 1.379 . S
C378 C375 1.363 . S
C378 N376 1.356 . S
C379 C373 1.363 . S
C379 C374 1.379 . S
C379 N377 1.356 . S
N380 C372 1.356 1_655 S
N380 H386 0.984 1_655 S
N380 H387 0.984 . S
N381 C374 1.356 1_455 S
N381 H384 0.984 . S
N381 H385 0.985 1_455 S
H382 N377 0.984 . S
H383 N377 0.985 . S
H384 N381 0.984 . S
H385 N381 0.985 1_655 S
H386 N380 0.984 1_455 S
H387 N380 0.984 . S
H388 N376 0.984 . S
H389 N376 0.985 . S
C390 C391 1.361 1_545 S
C390 C396 1.382 . S
C390 N398 1.354 1_545 S
C391 C390 1.361 1_565 S
C391 C397 1.363 . S
C392 C393 1.361 1_565 S
C392 C397 1.382 . S
C392 N399 1.354 1_565 S
C393 C392 1.361 1_545 S
C393 C396 1.363 . S
N394 C396 1.356 . S
N394 H406 0.984 . S
N394 H407 0.985 . S
N395 C397 1.356 . S
N395 H400 0.984 . S
N395 H401 0.985 . S
C396 C390 1.382 . S
C396 C393 1.363 . S
C396 N394 1.356 . S
C397 C391 1.363 . S
C397 C392 1.382 . S
C397 N395 1.356 . S
N398 C390 1.354 1_565 S
N398 H404 0.984 1_565 S
N398 H405 0.984 . S
N399 C392 1.354 1_545 S
N399 H402 0.984 . S
N399 H403 0.985 1_545 S
H400 N395 0.984 . S
H401 N395 0.985 . S
H402 N399 0.984 . S
H403 N399 0.985 1_565 S
H404 N398 0.984 1_545 S
H405 N398 0.984 . S
H406 N394 0.984 . S
H407 N394 0.985 . S
C408 C409 1.363 . S
C408 C414 1.379 . S
C408 N416 1.356 . S
C409 C408 1.363 . S
C409 C415 1.363 . S
C410 C411 1.363 . S
C410 C415 1.379 . S
C410 N417 1.356 . S
C411 C410 1.363 . S
C411 C414 1.363 . S
N412 C414 1.356 . S
N412 H424 0.984 . S
N412 H425 0.985 . S
N413 C415 1.356 . S
N413 H418 0.984 . S
N413 H419 0.985 . S
C414 C408 1.379 . S
C414 C411 1.363 . S
C414 N412 1.356 . S
C415 C409 1.363 . S
C415 C410 1.379 . S
C415 N413 1.356 . S
N416 C408 1.356 . S
N416 H422 0.984 . S
N416 H423 0.984 . S
N417 C410 1.356 . S
N417 H420 0.984 . S
N417 H421 0.985 . S
H418 N413 0.984 . S
H419 N413 0.985 . S
H420 N417 0.984 . S
H421 N417 0.985 . S
H422 N416 0.984 . S
H423 N416 0.984 . S
H424 N412 0.984 . S
H425 N412 0.985 . S
C426 C427 1.363 1_655 S
C426 C432 1.379 . S
C426 N434 1.356 1_655 S
C427 C426 1.363 1_455 S
C427 C433 1.363 . S
C428 C429 1.363 1_455 S
C428 C433 1.379 . S
C428 N435 1.356 1_455 S
C429 C428 1.363 1_655 S
C429 C432 1.363 . S
N430 C432 1.356 . S
N430 H442 0.984 . S
N430 H443 0.985 . S
N431 C433 1.356 . S
N431 H436 0.984 . S
N431 H437 0.985 . S
C432 C426 1.379 . S
C432 C429 1.363 . S
C432 N430 1.356 . S
C433 C427 1.363 . S
C433 C428 1.379 . S
C433 N431 1.356 . S
N434 C426 1.356 1_455 S
N434 H440 0.984 1_455 S
N434 H441 0.984 . S
N435 C428 1.356 1_655 S
N435 H438 0.984 . S
N435 H439 0.985 1_655 S
H436 N431 0.984 . S
H437 N431 0.985 . S
H438 N435 0.984 . S
H439 N435 0.985 1_455 S
H440 N434 0.984 1_655 S
H441 N434 0.984 . S
H442 N430 0.984 . S
H443 N430 0.985 . S
C444 C445 1.363 . S
C444 C450 1.379 1_546 S
C444 N452 1.356 . S
C445 C444 1.363 . S
C445 C451 1.363 . S
C446 C447 1.363 . S
C446 C451 1.379 1_564 S
C446 N453 1.356 . S
C447 C446 1.363 . S
C447 C450 1.363 . S
N448 C450 1.356 . S
N448 H460 0.984 . S
N448 H461 0.985 . S
N449 C451 1.356 . S
N449 H454 0.984 . S
N449 H455 0.985 . S
C450 C444 1.379 1_564 S
C450 C447 1.363 . S
C450 N448 1.356 . S
C451 C445 1.363 . S
C451 C446 1.379 1_546 S
C451 N449 1.356 . S
N452 C444 1.356 . S
N452 H458 0.984 . S
N452 H459 0.984 . S
N453 C446 1.356 . S
N453 H456 0.984 . S
N453 H457 0.985 . S
H454 N449 0.984 . S
H455 N449 0.985 . S
H456 N453 0.984 . S
H457 N453 0.985 . S
H458 N452 0.984 . S
H459 N452 0.984 . S
H460 N448 0.984 . S
H461 N448 0.985 . S
C462 C463 1.363 . S
C462 C468 1.379 . S
C462 N470 1.356 . S
C463 C462 1.363 . S
C463 C469 1.363 . S
C464 C465 1.363 . S
C464 C469 1.379 . S
C464 N471 1.356 . S
C465 C464 1.363 . S
C465 C468 1.363 . S
N466 C468 1.356 . S
N466 H478 0.984 . S
N466 H479 0.985 . S
N467 C469 1.356 . S
N467 H472 0.984 . S
N467 H473 0.985 . S
C468 C462 1.379 . S
C468 C465 1.363 . S
C468 N466 1.356 . S
C469 C463 1.363 . S
C469 C464 1.379 . S
C469 N467 1.356 . S
N470 C462 1.356 . S
N470 H476 0.984 . S
N470 H477 0.984 . S
N471 C464 1.356 . S
N471 H474 0.984 . S
N471 H475 0.985 . S
H472 N467 0.984 . S
H473 N467 0.985 . S
H474 N471 0.984 . S
H475 N471 0.985 . S
H476 N470 0.984 . S
H477 N470 0.984 . S
H478 N466 0.984 . S
H479 N466 0.985 . S
C480 C481 1.363 . S
C480 C486 1.379 . S
C480 N488 1.356 . S
C481 C480 1.363 . S
C481 C487 1.363 . S
C482 C483 1.363 . S
C482 C487 1.379 . S
C482 N489 1.356 . S
C483 C482 1.363 . S
C483 C486 1.363 . S
N484 C486 1.356 . S
N484 H496 0.984 . S
N484 H497 0.985 . S
N485 C487 1.356 . S
N485 H490 0.984 . S
N485 H491 0.985 . S
C486 C480 1.379 . S
C486 C483 1.363 . S
C486 N484 1.356 . S
C487 C481 1.363 . S
C487 C482 1.379 . S
C487 N485 1.356 . S
N488 C480 1.356 . S
N488 H494 0.984 . S
N488 H495 0.984 . S
N489 C482 1.356 . S
N489 H492 0.984 . S
N489 H493 0.985 . S
H490 N485 0.984 . S
H491 N485 0.985 . S
H492 N489 0.984 . S
H493 N489 0.985 . S
H494 N488 0.984 . S
H495 N488 0.984 . S
H496 N484 0.984 . S
H497 N484 0.985 . S
C498 C499 1.363 . S
C498 C504 1.379 . S
C498 N506 1.356 . S
C499 C498 1.363 . S
C499 C505 1.363 . S
C500 C501 1.363 . S
C500 C505 1.379 . S
C500 N507 1.356 . S
C501 C500 1.363 . S
C501 C504 1.363 . S
N502 C504 1.356 . S
N502 H514 0.984 . S
N502 H515 0.985 . S
N503 C505 1.356 . S
N503 H508 0.984 . S
N503 H509 0.985 . S
C504 C498 1.379 . S
C504 C501 1.363 . S
C504 N502 1.356 . S
C505 C499 1.363 . S
C505 C500 1.379 . S
C505 N503 1.356 . S
N506 C498 1.356 . S
N506 H512 0.984 . S
N506 H513 0.984 . S
N507 C500 1.356 . S
N507 H510 0.984 . S
N507 H511 0.985 . S
H508 N503 0.984 . S
H509 N503 0.985 . S
H510 N507 0.984 . S
H511 N507 0.985 . S
H512 N506 0.984 . S
H513 N506 0.984 . S
H514 N502 0.984 . S
H515 N502 0.985 . S
C516 C517 1.363 . S
C516 C522 1.379 . S
C516 N524 1.356 . S
C517 C516 1.363 . S
C517 C523 1.363 . S
C518 C519 1.363 . S
C518 C523 1.379 . S
C518 N525 1.356 . S
C519 C518 1.363 . S
C519 C522 1.363 . S
N520 C522 1.356 . S
N520 H532 0.984 . S
N520 H533 0.985 . S
N521 C523 1.356 . S
N521 H526 0.984 . S
N521 H527 0.985 . S
C522 C516 1.379 . S
C522 C519 1.363 . S
C522 N520 1.356 . S
C523 C517 1.363 . S
C523 C518 1.379 . S
C523 N521 1.356 . S
N524 C516 1.356 . S
N524 H530 0.984 . S
N524 H531 0.984 . S
N525 C518 1.356 . S
N525 H528 0.984 . S
N525 H529 0.985 . S
H526 N521 0.984 . S
H527 N521 0.985 . S
H528 N525 0.984 . S
H529 N525 0.985 . S
H530 N524 0.984 . S
H531 N524 0.984 . S
H532 N520 0.984 . S
H533 N520 0.985 . S
C534 C535 1.363 . S
C534 C540 1.379 . S
C534 N542 1.356 . S
C535 C534 1.363 . S
C535 C541 1.363 . S
C536 C537 1.363 . S
C536 C541 1.379 . S
C536 N543 1.356 . S
C537 C536 1.363 . S
C537 C540 1.363 . S
N538 C540 1.356 . S
N538 H550 0.984 . S
N538 H551 0.985 . S
N539 C541 1.356 . S
N539 H544 0.984 . S
N539 H545 0.985 . S
C540 C534 1.379 . S
C540 C537 1.363 . S
C540 N538 1.356 . S
C541 C535 1.363 . S
C541 C536 1.379 . S
C541 N539 1.356 . S
N542 C534 1.356 . S
N542 H548 0.984 . S
N542 H549 0.984 . S
N543 C536 1.356 . S
N543 H546 0.984 . S
N543 H547 0.985 . S
H544 N539 0.984 . S
H545 N539 0.985 . S
H546 N543 0.984 . S
H547 N543 0.985 . S
H548 N542 0.984 . S
H549 N542 0.984 . S
H550 N538 0.984 . S
H551 N538 0.985 . S
C552 C553 1.363 . S
C552 C558 1.379 . S
C552 N560 1.356 . S
C553 C552 1.363 . S
C553 C559 1.363 . S
C554 C555 1.363 . S
C554 C559 1.379 . S
C554 N561 1.356 . S
C555 C554 1.363 . S
C555 C558 1.363 . S
N556 C558 1.356 . S
N556 H568 0.984 . S
N556 H569 0.985 . S
N557 C559 1.356 . S
N557 H562 0.984 . S
N557 H563 0.985 . S
C558 C552 1.379 . S
C558 C555 1.363 . S
C558 N556 1.356 . S
C559 C553 1.363 . S
C559 C554 1.379 . S
C559 N557 1.356 . S
N560 C552 1.356 . S
N560 H566 0.984 . S
N560 H567 0.984 . S
N561 C554 1.356 . S
N561 H564 0.984 . S
N561 H565 0.985 . S
H562 N557 0.984 . S
H563 N557 0.985 . S
H564 N561 0.984 . S
H565 N561 0.985 . S
H566 N560 0.984 . S
H567 N560 0.984 . S
H568 N556 0.984 . S
H569 N556 0.985 . S
C570 C571 1.363 . S
C570 C576 1.379 . S
C570 N578 1.356 . S
C571 C570 1.363 . S
C571 C577 1.363 . S
C572 C573 1.363 . S
C572 C577 1.379 . S
C572 N579 1.356 1_554 S
C573 C572 1.363 . S
C573 C576 1.363 . S
N574 C576 1.356 . S
N574 H586 0.984 . S
N574 H587 0.985 . S
N575 C577 1.356 . S
N575 H580 0.984 . S
N575 H581 0.985 . S
C576 C570 1.379 . S
C576 C573 1.363 . S
C576 N574 1.356 . S
C577 C571 1.363 . S
C577 C572 1.379 . S
C577 N575 1.356 . S
N578 C570 1.356 . S
N578 H584 0.984 . S
N578 H585 0.984 . S
N579 C572 1.356 1_556 S
N579 H582 0.984 . S
N579 H583 0.985 . S
H580 N575 0.984 . S
H581 N575 0.985 . S
H582 N579 0.984 . S
H583 N579 0.985 . S
H584 N578 0.984 . S
H585 N578 0.984 . S
H586 N574 0.984 . S
H587 N574 0.985 . S
C157 C10 1.556 . S
C159 C88 1.556 . S
C175 C23 1.556 . S
C177 C101 1.556 . S
C193 C114 1.556 . S
C195 C36 1.556 . S
C211 C49 1.556 . S
C213 C127 1.556 . S
C229 C62 1.556 . S
C231 C140 1.556 . S
C247 C153 1.556 . S
C249 C75 1.556 . S
C265 C105 1.683 . S
C267 C1 1.683 . S
C283 C14 1.683 . S
C285 C118 1.683 . S
C301 C131 1.683 1_556 S
C303 C27 1.683 . S
C319 C144 1.683 . S
C321 C40 1.683 1_554 S
C337 C53 1.683 . S
C339 C79 1.683 . S
C355 C66 1.683 . S
C357 C92 1.683 . S
C373 C148 1.827 . S
C375 C5 1.827 . S
C391 C83 1.827 . S
C393 C18 1.827 . S
C409 C31 1.827 . S
C411 C96 1.827 . S
C427 C109 1.827 . S
C429 C44 1.827 . S
C445 C122 1.827 . S
C447 C57 1.827 . S
C463 C135 1.827 . S
C465 C70 1.827 . S
C481 C3 1.479 . S
C483 C133 1.479 . S
C499 C146 1.479 . S
C501 C16 1.479 . S
C517 C29 1.479 . S
C519 C81 1.479 . S
C535 C42 1.479 . S
C537 C94 1.479 . S
C553 C55 1.479 . S
C555 C107 1.479 . S
C571 C68 1.479 . S
C573 C120 1.479 . S
