# Generated by pormake.
# Topology npo, (4)-cn, num edge types: 1
# Building blocks:
#     Node 0, Type 0, BuildingBlock: ICAMEG_clean_sbu_1, # of connection points: 4
#     Node 1, Type 0, BuildingBlock: ICAMEG_clean_sbu_1, # of connection points: 4
#     Node 2, Type 0, BuildingBlock: ICAMEG_clean_sbu_1, # of connection points: 4
#     Node 3, Type 0, BuildingBlock: ICAMEG_clean_sbu_1, # of connection points: 4
#     Node 4, Type 0, BuildingBlock: ICAMEG_clean_sbu_1, # of connection points: 4
#     Node 5, Type 0, BuildingBlock: ICAMEG_clean_sbu_1, # of connection points: 4
#     Edge 6, Type (0, 0), BuildingBlock: KIFKEQ_clean_linker_1, # of connection points: 2
#     Edge 7, Type (0, 0), BuildingBlock: KIFKEQ_clean_linker_1, # of connection points: 2
#     Edge 8, Type (0, 0), BuildingBlock: KIFKEQ_clean_linker_1, # of connection points: 2
#     Edge 9, Type (0, 0), BuildingBlock: KIFKEQ_clean_linker_1, # of connection points: 2
#     Edge 10, Type (0, 0), BuildingBlock: KIFKEQ_clean_linker_1, # of connection points: 2
#     Edge 11, Type (0, 0), BuildingBlock: KIFKEQ_clean_linker_1, # of connection points: 2
#     Edge 12, Type (0, 0), BuildingBlock: KIFKEQ_clean_linker_1, # of connection points: 2
#     Edge 13, Type (0, 0), BuildingBlock: KIFKEQ_clean_linker_1, # of connection points: 2
#     Edge 14, Type (0, 0), BuildingBlock: KIFKEQ_clean_linker_1, # of connection points: 2
#     Edge 15, Type (0, 0), BuildingBlock: KIFKEQ_clean_linker_1, # of connection points: 2
#     Edge 16, Type (0, 0), BuildingBlock: KIFKEQ_clean_linker_1, # of connection points: 2
#     Edge 17, Type (0, 0), BuildingBlock: KIFKEQ_clean_linker_1, # of connection points: 2
# Relax obj value: 0.242
# Max RMSD: 0.245
# Mean RMSD: 0.244
data_MOF--net-npo--node1-ICAMEG_clean_sbu_1--edge1-KIFKEQ_clean_linker_1
_symmetry_space_group_name_H-M    P1
_symmetry_Int_Tables_number       1
_symmetry_cell_setting            triclinic
loop_
_symmetry_equiv_pos_as_xyz
'x, y, z'
_cell_length_a     46.898217
_cell_length_b     46.849668
_cell_length_c     26.521009
_cell_angle_alpha  90.026195
_cell_angle_beta   90.08869
_cell_angle_gamma 119.99384
loop_
_atom_site_label
_atom_site_type_symbol
_atom_site_fract_x
_atom_site_fract_y
_atom_site_fract_z
_atom_type_partial_charge
Co0 Co 0.58004 0.13482 0.19244 0.0
Co1 Co 0.5583 0.12426 0.31951 0.0
O2 O 0.55749 0.10706 0.25133 0.0
C3 C 0.51099 0.08881 0.15369 0.0
O4 O 0.49829 0.08581 0.19876 0.0
C5 C 0.58456 0.09058 0.38354 0.0
O6 O 0.60949 0.11985 0.39428 0.0
O7 O 0.60734 0.15419 0.31681 0.0
O8 O 0.61909 0.1628 0.23418 0.0
H9 H 0.59141 0.21316 0.45018 0.0
H10 H 0.55166 0.06236 0.18627 0.0
O11 O 0.54178 0.10727 0.14672 0.0
H12 H 0.67015 0.10971 0.15208 0.0
H13 H 0.61532 0.1563 0.01044 0.0
H14 H 0.62234 0.20679 0.17651 0.0
H15 H 0.64707 0.14587 0.16906 0.0
H16 H 0.58694 0.12162 0.08408 0.0
O17 O 0.56347 0.08767 0.35031 0.0
H18 H 0.59027 0.19088 0.36549 0.0
H19 H 0.52646 0.0936 0.41795 0.0
H20 H 0.65134 0.24238 0.10396 0.0
H21 H 0.57365 0.0253 0.16887 0.0
H22 H 0.6479 0.21715 0.02013 0.0
H23 H 0.63331 0.04895 0.15167 0.0
O24 O 0.56218 0.16499 0.20734 0.0
H25 H 0.45249 0.01687 0.29917 0.0
H26 H 0.50189 0.1339 0.34671 0.0
H27 H 0.44152 0.09822 0.34812 0.0
H28 H 0.41644 0.03919 0.32444 0.0
H29 H 0.51272 0.05362 0.2974 0.0
H30 H 0.52707 0.11481 0.50324 0.0
H31 H 0.55969 0.17501 0.51981 0.0
O32 O 0.55258 0.16034 0.29098 0.0
C33 C 0.62731 0.16788 0.28028 0.0
C34 C 0.57714 0.18687 0.44346 0.0
C35 C 0.54104 0.13169 0.47324 0.0
N36 N 0.55846 0.14096 0.38674 0.0
C37 C 0.57641 0.17411 0.39557 0.0
C38 C 0.54085 0.11982 0.42487 0.0
C39 C 0.55934 0.16546 0.4825 0.0
C40 C 0.57759 0.07285 0.1784 0.0
N41 N 0.59797 0.10624 0.17825 0.0
C42 C 0.58993 0.05173 0.16876 0.0
C43 C 0.62341 0.06502 0.15917 0.0
C44 C 0.6441 0.0991 0.15941 0.0
C45 C 0.63089 0.11945 0.16918 0.0
C46 C 0.61692 0.1676 0.04673 0.0
C47 C 0.62066 0.19561 0.14018 0.0
C48 C 0.60075 0.14809 0.08854 0.0
N49 N 0.60274 0.16216 0.13456 0.0
C50 C 0.63716 0.2159 0.09921 0.0
C51 C 0.63522 0.20173 0.0522 0.0
C52 C 0.55411 0.17354 0.24835 0.0
C53 C 0.46312 0.04254 0.30962 0.0
C54 C 0.49115 0.10838 0.33571 0.0
C55 C 0.45695 0.08822 0.33691 0.0
C56 C 0.44291 0.05509 0.32371 0.0
N57 N 0.51082 0.09591 0.32182 0.0
C58 C 0.49722 0.06344 0.30889 0.0
Co59 Co 0.44396 0.56949 0.68919 0.0
Co60 Co 0.44231 0.56597 0.81909 0.0
O61 O 0.45449 0.55514 0.75335 0.0
C62 C 0.43714 0.50261 0.66319 0.0
O63 O 0.44057 0.49617 0.71022 0.0
C64 C 0.50703 0.56729 0.84095 0.0
O65 O 0.50992 0.55946 0.79447 0.0
O66 O 0.46598 0.61392 0.80149 0.0
O67 O 0.45054 0.61089 0.72101 0.0
H68 H 0.39914 0.62298 0.92978 0.0
H69 H 0.49685 0.5518 0.69229 0.0
O70 O 0.43698 0.52897 0.65192 0.0
H71 H 0.55051 0.66571 0.62854 0.0
H72 H 0.44773 0.58685 0.50116 0.0
H73 H 0.40323 0.59954 0.66263 0.0
H74 H 0.49151 0.63635 0.64967 0.0
H75 H 0.46171 0.56961 0.58082 0.0
O76 O 0.48333 0.57178 0.85341 0.0
H77 H 0.41413 0.60771 0.84923 0.0
H78 H 0.44531 0.54874 0.92697 0.0
H79 H 0.38887 0.61735 0.58386 0.0
H80 H 0.55573 0.58004 0.67099 0.0
H81 H 0.41117 0.61105 0.50234 0.0
H82 H 0.58306 0.63749 0.6389 0.0
O83 O 0.3963 0.5469 0.70774 0.0
H84 H 0.42624 0.45122 0.83026 0.0
H85 H 0.37723 0.52069 0.86567 0.0
H86 H 0.34634 0.46175 0.88692 0.0
H87 H 0.37091 0.42651 0.86957 0.0
H88 H 0.45585 0.50997 0.80877 0.0
H89 H 0.43098 0.56368 0.00835 0.0
H90 H 0.40755 0.60092 0.01012 0.0
O91 O 0.40054 0.56049 0.78961 0.0
C92 C 0.46248 0.62707 0.76156 0.0
C93 C 0.40925 0.60666 0.9295 0.0
C94 C 0.42717 0.57343 0.9736 0.0
N95 N 0.43042 0.57721 0.88325 0.0
C96 C 0.41771 0.59785 0.88397 0.0
C97 C 0.43536 0.56516 0.92737 0.0
C98 C 0.41401 0.5943 0.97456 0.0
C99 C 0.50829 0.57656 0.67779 0.0
N100 N 0.49046 0.59212 0.6717 0.0
C101 C 0.54178 0.59255 0.66603 0.0
C102 C 0.55711 0.62479 0.64812 0.0
C103 C 0.53888 0.64064 0.64233 0.0
C104 C 0.50544 0.62387 0.6545 0.0
C105 C 0.43785 0.58972 0.53643 0.0
C106 C 0.4131 0.59675 0.62736 0.0
C107 C 0.44557 0.57988 0.58169 0.0
N108 N 0.43332 0.58356 0.62646 0.0
C109 C 0.40485 0.60687 0.58285 0.0
C110 C 0.41735 0.60331 0.53713 0.0
C111 C 0.38393 0.54995 0.74892 0.0
C112 C 0.41533 0.46634 0.83832 0.0
C113 C 0.38809 0.50564 0.85759 0.0
C114 C 0.37048 0.47221 0.86994 0.0
C115 C 0.38427 0.45247 0.86025 0.0
N116 N 0.41871 0.51925 0.83643 0.0
C117 C 0.43219 0.49988 0.82652 0.0
Co118 Co 0.87968 0.43428 0.30504 0.0
Co119 Co 0.87212 0.44095 0.17521 0.0
O120 O 0.89845 0.44996 0.23736 0.0
C121 C 0.90764 0.49455 0.36831 0.0
O122 O 0.87723 0.4871 0.37801 0.0
C123 C 0.92906 0.43078 0.14487 0.0
O124 O 0.94057 0.43561 0.19106 0.0
O125 O 0.84448 0.39303 0.19263 0.0
O126 O 0.84696 0.39072 0.2772 0.0
H127 H 0.76634 0.39457 0.07713 0.0
H128 H 0.95185 0.46412 0.29165 0.0
O129 O 0.91304 0.47798 0.33521 0.0
H130 H 0.91315 0.35045 0.34892 0.0
H131 H 0.8848 0.41721 0.49208 0.0
H132 H 0.81197 0.39669 0.34582 0.0
H133 H 0.8741 0.37073 0.3382 0.0
H134 H 0.90813 0.43727 0.40766 0.0
O135 O 0.90265 0.43112 0.13486 0.0
H136 H 0.80046 0.40642 0.15355 0.0
H137 H 0.88749 0.45703 0.06589 0.0
H138 H 0.78761 0.37613 0.42959 0.0
H139 H 0.99188 0.44511 0.303 0.0
H140 H 0.82412 0.3864 0.50348 0.0
H141 H 0.97257 0.38783 0.33157 0.0
O142 O 0.84712 0.44992 0.29541 0.0
H143 H 0.97689 0.55015 0.15638 0.0
H144 H 0.85612 0.49129 0.13829 0.0
H145 H 0.88815 0.55032 0.11727 0.0
H146 H 0.94904 0.58014 0.1259 0.0
H147 H 0.94396 0.49139 0.1777 0.0
H148 H 0.85431 0.44547 0.98851 0.0
H149 H 0.79327 0.41412 0.99382 0.0
O150 O 0.8409 0.45045 0.21133 0.0
C151 C 0.83596 0.37742 0.23445 0.0
C152 C 0.79292 0.40823 0.07432 0.0
C153 C 0.84228 0.43675 0.02457 0.0
N154 N 0.84593 0.43228 0.11429 0.0
C155 C 0.81237 0.41502 0.11748 0.0
C156 C 0.86095 0.44308 0.06854 0.0
C157 C 0.80804 0.41919 0.02759 0.0
C158 C 0.94328 0.43926 0.30459 0.0
N159 N 0.91062 0.41854 0.31405 0.0
C160 C 0.96605 0.42859 0.31072 0.0
C161 C 0.9552 0.39643 0.32665 0.0
C162 C 0.92186 0.37543 0.33629 0.0
C163 C 0.8998 0.38697 0.32975 0.0
C164 C 0.86863 0.41264 0.4602 0.0
C165 C 0.82803 0.40135 0.37778 0.0
C166 C 0.88169 0.42397 0.41228 0.0
N167 N 0.86143 0.4184 0.3718 0.0
C168 C 0.81409 0.3896 0.42513 0.0
C169 C 0.83459 0.39536 0.46657 0.0
C170 C 0.83361 0.45389 0.25617 0.0
C171 C 0.9504 0.53736 0.152 0.0
C172 C 0.8826 0.50401 0.14214 0.0
C173 C 0.90061 0.53748 0.13015 0.0
C174 C 0.93476 0.55419 0.13501 0.0
N175 N 0.89811 0.48748 0.15813 0.0
C176 C 0.93157 0.50389 0.16366 0.0
Co177 Co 0.43269 0.8726 0.83923 0.0
Co178 Co 0.43936 0.88282 0.71094 0.0
O179 O 0.44812 0.90138 0.77958 0.0
C180 C 0.42323 0.93035 0.86692 0.0
O181 O 0.42341 0.93834 0.8195 0.0
C182 C 0.50338 0.92046 0.65803 0.0
O183 O 0.50255 0.89236 0.65013 0.0
O184 O 0.46148 0.8568 0.72794 0.0
O185 O 0.43992 0.83902 0.80453 0.0
H186 H 0.40453 0.79167 0.58385 0.0
H187 H 0.48668 0.94208 0.8483 0.0
O188 O 0.42539 0.90513 0.87856 0.0
H189 H 0.53324 0.87517 0.91218 0.0
H190 H 0.42318 0.84666 0.025 0.0
H191 H 0.38845 0.80079 0.85399 0.0
H192 H 0.47588 0.84857 0.882 0.0
H193 H 0.44349 0.88285 0.95054 0.0
O194 O 0.48217 0.92131 0.68723 0.0
H195 H 0.4156 0.81604 0.66901 0.0
H196 H 0.44424 0.91014 0.60688 0.0
H197 H 0.36776 0.76371 0.92739 0.0
H198 H 0.54402 0.96972 0.87875 0.0
H199 H 0.38512 0.7866 0.01369 0.0
H200 H 0.5677 0.93621 0.91095 0.0
O201 O 0.38653 0.85054 0.81301 0.0
H202 H 0.4304 0.98531 0.70571 0.0
H203 H 0.37493 0.86702 0.66394 0.0
H204 H 0.34713 0.89862 0.64535 0.0
H205 H 0.37498 0.95831 0.66599 0.0
H206 H 0.457 0.95256 0.72466 0.0
H207 H 0.43356 0.88679 0.5211 0.0
H208 H 0.41355 0.82713 0.50913 0.0
O209 O 0.39608 0.84465 0.73193 0.0
C210 C 0.45497 0.83749 0.76561 0.0
C211 C 0.41331 0.81771 0.58857 0.0
C212 C 0.42958 0.87108 0.55335 0.0
N213 N 0.43075 0.86453 0.64305 0.0
C214 C 0.41966 0.83167 0.63672 0.0
C215 C 0.43563 0.88417 0.60206 0.0
C216 C 0.41836 0.83761 0.54666 0.0
C217 C 0.49664 0.92731 0.86271 0.0
N218 N 0.47774 0.89374 0.86386 0.0
C219 C 0.5292 0.94311 0.8797 0.0
C220 C 0.54249 0.9243 0.8977 0.0
C221 C 0.52318 0.89006 0.89838 0.0
C222 C 0.49071 0.87512 0.88111 0.0
C223 C 0.41542 0.83639 0.9876 0.0
C224 C 0.39618 0.81097 0.89137 0.0
C225 C 0.42673 0.85679 0.94526 0.0
N226 N 0.41716 0.84398 0.89786 0.0
C227 C 0.38435 0.78983 0.93282 0.0
C228 C 0.39408 0.8027 0.98122 0.0
C229 C 0.37681 0.83711 0.76968 0.0
C230 C 0.41801 0.95932 0.6965 0.0
C231 C 0.387 0.8928 0.6738 0.0
C232 C 0.37124 0.91066 0.66281 0.0
C233 C 0.3869 0.94415 0.6743 0.0
N234 N 0.41754 0.90782 0.69559 0.0
C235 C 0.43301 0.94066 0.70695 0.0
Co236 Co 0.55036 0.42588 0.19889 0.0
Co237 Co 0.58255 0.45794 0.31577 0.0
O238 O 0.5543 0.45321 0.2578 0.0
C239 C 0.57122 0.49336 0.1543 0.0
O240 O 0.57453 0.50652 0.19916 0.0
C241 C 0.51484 0.43225 0.36271 0.0
O242 O 0.5001 0.42358 0.31866 0.0
O243 O 0.5721 0.41054 0.31041 0.0
O244 O 0.53758 0.38832 0.2449 0.0
H245 H 0.67098 0.44623 0.40432 0.0
H246 H 0.51327 0.46257 0.20334 0.0
O247 O 0.56302 0.46312 0.14953 0.0
H248 H 0.42902 0.34583 0.18118 0.0
H249 H 0.51668 0.38191 0.02223 0.0
H250 H 0.56933 0.3752 0.17938 0.0
H251 H 0.48775 0.36241 0.18651 0.0
H252 H 0.52195 0.41685 0.09521 0.0
O253 O 0.54594 0.44471 0.36604 0.0
H254 H 0.63414 0.44008 0.33366 0.0
H255 H 0.59265 0.48701 0.41916 0.0
H256 H 0.56418 0.33953 0.10754 0.0
H257 H 0.45501 0.44715 0.19752 0.0
H258 H 0.53774 0.34279 0.02819 0.0
H259 H 0.4123 0.38836 0.18638 0.0
O260 O 0.598 0.43734 0.20364 0.0
H261 H 0.55663 0.54995 0.3224 0.0
H262 H 0.64505 0.52211 0.32564 0.0
H263 H 0.65932 0.58028 0.3317 0.0
H264 H 0.61492 0.59452 0.33037 0.0
H265 H 0.5435 0.4922 0.3158 0.0
H266 H 0.62876 0.49327 0.49101 0.0
H267 H 0.66839 0.47293 0.48379 0.0
O268 O 0.61984 0.47183 0.26904 0.0
C269 C 0.5523 0.38582 0.28338 0.0
C270 C 0.65387 0.45526 0.40791 0.0
C271 C 0.63014 0.48161 0.45658 0.0
N272 N 0.61135 0.46331 0.3721 0.0
C273 C 0.633 0.45193 0.36793 0.0
C274 C 0.60967 0.47789 0.4158 0.0
C275 C 0.65238 0.47021 0.45249 0.0
C276 C 0.49512 0.43708 0.19746 0.0
N277 N 0.50422 0.41362 0.19389 0.0
C278 C 0.46201 0.42842 0.19467 0.0
C279 C 0.43805 0.39543 0.18855 0.0
C280 C 0.44742 0.37156 0.18563 0.0
C281 C 0.48076 0.38114 0.18863 0.0
C282 C 0.52822 0.38024 0.05661 0.0
C283 C 0.55758 0.37662 0.14515 0.0
C284 C 0.53138 0.40006 0.09803 0.0
N285 N 0.54579 0.39797 0.14169 0.0
C286 C 0.55483 0.35642 0.10451 0.0
C287 C 0.54002 0.35828 0.05999 0.0
C288 C 0.62261 0.45739 0.23052 0.0
C289 C 0.57618 0.54405 0.3234 0.0
C290 C 0.62557 0.52808 0.32497 0.0
C291 C 0.63381 0.56108 0.32848 0.0
C292 C 0.60889 0.56904 0.32775 0.0
N293 N 0.59339 0.50364 0.32123 0.0
C294 C 0.56886 0.51131 0.32003 0.0
Co295 Co 0.12517 0.55771 0.68044 0.0
Co296 Co 0.1249 0.56934 0.81067 0.0
O297 O 0.10203 0.5516 0.74551 0.0
C298 C 0.06832 0.56936 0.65399 0.0
O299 O 0.05935 0.56779 0.70119 0.0
C300 C 0.06936 0.50028 0.83685 0.0
O301 O 0.05896 0.49367 0.79006 0.0
O302 O 0.15574 0.55218 0.79789 0.0
O303 O 0.15798 0.54891 0.7137 0.0
H304 H 0.2251 0.63223 0.91993 0.0
H305 H 0.05324 0.50931 0.68884 0.0
O306 O 0.09326 0.56672 0.64248 0.0
H307 H 0.10361 0.44513 0.62889 0.0
H308 H 0.13327 0.54523 0.49298 0.0
H309 H 0.1955 0.59104 0.65071 0.0
H310 H 0.1378 0.50473 0.64475 0.0
H311 H 0.10418 0.53709 0.57363 0.0
O312 O 0.09467 0.52765 0.84834 0.0
H313 H 0.19512 0.60956 0.84015 0.0
H314 H 0.10379 0.56724 0.91778 0.0
H315 H 0.22555 0.59947 0.5709 0.0
H316 H 0.01805 0.45 0.67249 0.0
H317 H 0.1944 0.57651 0.49126 0.0
H318 H 0.04319 0.41736 0.64245 0.0
O319 O 0.15407 0.60614 0.69311 0.0
H320 H 0.01521 0.56492 0.81814 0.0
H321 H 0.1345 0.6334 0.84825 0.0
H322 H 0.09841 0.65646 0.86502 0.0
H323 H 0.0382 0.62206 0.85033 0.0
H324 H 0.0522 0.54321 0.8008 0.0
H325 H 0.13282 0.58917 0.99841 0.0
H326 H 0.19391 0.62205 0.99983 0.0
O327 O 0.15589 0.6116 0.77743 0.0
C328 C 0.16739 0.54678 0.75782 0.0
C329 C 0.19847 0.61798 0.9198 0.0
C330 C 0.14669 0.59377 0.96385 0.0
N331 N 0.14773 0.58714 0.87417 0.0
C332 C 0.18135 0.60514 0.8747 0.0
C333 C 0.13039 0.58129 0.91805 0.0
C334 C 0.18096 0.61224 0.96462 0.0
C335 C 0.06442 0.49556 0.67513 0.0
N336 N 0.09763 0.51072 0.66752 0.0
C337 C 0.04433 0.46183 0.66623 0.0
C338 C 0.05845 0.44351 0.6495 0.0
C339 C 0.09234 0.45907 0.64196 0.0
C340 C 0.11163 0.49283 0.65129 0.0
C341 C 0.14712 0.55537 0.52742 0.0
C342 C 0.18174 0.58087 0.61627 0.0
C343 C 0.13078 0.55096 0.57323 0.0
N344 N 0.14811 0.56358 0.61696 0.0
C345 C 0.19891 0.58577 0.57116 0.0
C346 C 0.18142 0.5729 0.52649 0.0
C347 C 0.16476 0.62335 0.73332 0.0
C348 C 0.04137 0.5801 0.82501 0.0
C349 C 0.10841 0.61832 0.84129 0.0
C350 C 0.08805 0.63149 0.85111 0.0
C351 C 0.05429 0.61218 0.84293 0.0
N352 N 0.0956 0.58673 0.82401 0.0
C353 C 0.06251 0.56777 0.81564 0.0
H354 H 0.58896 0.23157 0.19691 0.0
H355 H 0.50964 0.18157 0.30334 0.0
H356 H 0.58809 0.28283 0.21141 0.0
H357 H 0.50837 0.23248 0.31705 0.0
H358 H 0.49801 0.32528 0.27363 0.0
H359 H 0.49666 0.27268 0.2638 0.0
H360 H 0.60121 0.32129 0.29224 0.0
H361 H 0.60243 0.37391 0.30325 0.0
C362 C 0.57085 0.2313 0.22243 0.0
C363 C 0.54932 0.20249 0.24889 0.0
C364 C 0.57067 0.26072 0.23127 0.0
C365 C 0.54846 0.26168 0.2659 0.0
C366 C 0.52583 0.23248 0.29034 0.0
C367 C 0.5265 0.20332 0.28234 0.0
C368 C 0.52048 0.32448 0.27944 0.0
C369 C 0.5502 0.35353 0.29012 0.0
C370 C 0.51975 0.29448 0.27339 0.0
C371 C 0.54889 0.29303 0.27663 0.0
C372 C 0.57845 0.32183 0.28907 0.0
C373 C 0.57905 0.35178 0.29626 0.0
H374 H 0.34607 0.5412 0.83187 0.0
H375 H 0.34374 0.54481 0.66926 0.0
H376 H 0.29179 0.53479 0.83613 0.0
H377 H 0.2899 0.54079 0.67355 0.0
H378 H 0.18404 0.51319 0.69108 0.0
H379 H 0.23376 0.50937 0.68967 0.0
H380 H 0.2655 0.56499 0.82877 0.0
H381 H 0.21474 0.56709 0.8313 0.0
C382 C 0.33393 0.54043 0.79681 0.0
C383 C 0.34943 0.54333 0.75014 0.0
C384 C 0.30276 0.53724 0.79934 0.0
C385 C 0.28628 0.53768 0.75534 0.0
C386 C 0.30144 0.53987 0.7084 0.0
C387 C 0.3325 0.54236 0.70583 0.0
C388 C 0.20136 0.5241 0.72183 0.0
C389 C 0.19534 0.54046 0.76131 0.0
C390 C 0.23018 0.52224 0.72073 0.0
C391 C 0.25417 0.5372 0.75867 0.0
C392 C 0.24758 0.55267 0.7991 0.0
C393 C 0.2184 0.55399 0.80064 0.0
H394 H 0.68374 0.16887 0.2552 0.0
H395 H 0.6459 0.2277 0.31995 0.0
H396 H 0.73758 0.21865 0.24325 0.0
H397 H 0.69935 0.27756 0.30654 0.0
H398 H 0.77625 0.35144 0.18851 0.0
H399 H 0.72719 0.29854 0.20797 0.0
H400 H 0.78517 0.27307 0.30449 0.0
H401 H 0.83414 0.32636 0.28607 0.0
C402 C 0.68745 0.1923 0.26882 0.0
C403 C 0.6611 0.19451 0.2897 0.0
C404 C 0.71801 0.22071 0.26142 0.0
C405 C 0.72226 0.25177 0.27343 0.0
C406 C 0.69647 0.25379 0.29684 0.0
C407 C 0.66617 0.22531 0.30533 0.0
C408 C 0.77871 0.33419 0.2127 0.0
C409 C 0.80898 0.34287 0.23557 0.0
C410 C 0.75061 0.3042 0.22439 0.0
C411 C 0.75252 0.28215 0.25826 0.0
C412 C 0.78316 0.28983 0.27853 0.0
C413 C 0.8111 0.32016 0.26778 0.0
H414 H 0.44334 0.79279 0.83976 0.0
H415 H 0.48478 0.82065 0.69023 0.0
H416 H 0.45194 0.74632 0.83861 0.0
H417 H 0.49457 0.77392 0.68983 0.0
H418 H 0.45848 0.66211 0.68236 0.0
H419 H 0.46299 0.71572 0.68341 0.0
H420 H 0.48876 0.72599 0.84154 0.0
H421 H 0.48287 0.67112 0.84103 0.0
C422 C 0.45483 0.7894 0.8067 0.0
C423 C 0.46314 0.8106 0.76481 0.0
C424 C 0.46012 0.76268 0.80638 0.0
C425 C 0.47408 0.7562 0.76428 0.0
C426 C 0.4834 0.77791 0.72279 0.0
C427 C 0.47794 0.80481 0.72301 0.0
C428 C 0.46545 0.67576 0.71746 0.0
C429 C 0.46986 0.66188 0.7619 0.0
C430 C 0.46837 0.70689 0.71783 0.0
C431 C 0.47599 0.72531 0.76257 0.0
C432 C 0.48221 0.71226 0.80651 0.0
C433 C 0.47907 0.68086 0.80623 0.0
H434 H 0.68276 0.51167 0.24397 0.0
H435 H 0.63531 0.4082 0.20679 0.0
H436 H 0.73533 0.51316 0.25385 0.0
H437 H 0.68794 0.40957 0.21751 0.0
H438 H 0.77639 0.41741 0.30768 0.0
H439 H 0.72533 0.41924 0.29669 0.0
H440 H 0.77663 0.50453 0.20085 0.0
H441 H 0.82734 0.50233 0.2113 0.0
C442 C 0.68382 0.48948 0.23653 0.0
C443 C 0.65508 0.45996 0.22377 0.0
C444 C 0.71382 0.49027 0.24262 0.0
C445 C 0.7156 0.46139 0.23717 0.0
C446 C 0.68714 0.4321 0.22254 0.0
C447 C 0.6572 0.43146 0.21546 0.0
C448 C 0.7769 0.43713 0.28565 0.0
C449 C 0.80583 0.46004 0.26096 0.0
C450 C 0.74762 0.43783 0.27859 0.0
C451 C 0.74696 0.46178 0.24736 0.0
C452 C 0.7764 0.48581 0.22507 0.0
C453 C 0.80544 0.4847 0.23133 0.0
H454 H 0.34541 0.81017 0.68073 0.0
H455 H 0.33062 0.80093 0.84202 0.0
H456 H 0.29156 0.7625 0.66769 0.0
H457 H 0.27718 0.75164 0.82905 0.0
H458 H 0.17389 0.67381 0.79472 0.0
H459 H 0.22249 0.72817 0.8013 0.0
H460 H 0.26543 0.70536 0.67433 0.0
H461 H 0.216 0.65148 0.66671 0.0
C462 C 0.33059 0.79816 0.71359 0.0
C463 C 0.34249 0.80964 0.76256 0.0
C464 C 0.29969 0.77038 0.70601 0.0
C465 C 0.27991 0.75276 0.74717 0.0
C466 C 0.2914 0.76473 0.79623 0.0
C467 C 0.32221 0.79297 0.80381 0.0
C468 C 0.19348 0.68067 0.76766 0.0
C469 C 0.19118 0.65826 0.73038 0.0
C470 C 0.22156 0.71178 0.77173 0.0
C471 C 0.24836 0.72118 0.73904 0.0
C472 C 0.24528 0.69931 0.70001 0.0
C473 C 0.21689 0.6683 0.6955 0.0
H474 H 0.41632 0.91803 0.96808 0.0
H475 H 0.4379 0.99488 0.85951 0.0
H476 H 0.43142 0.95758 0.03636 0.0
H477 H 0.45229 0.03455 0.92833 0.0
H478 H 0.52674 0.09775 0.054 0.0
H479 H 0.4988 0.06014 0.98473 0.0
H480 H 0.42122 0.99502 0.08576 0.0
H481 H 0.44987 0.0327 0.15597 0.0
C482 C 0.42367 0.94328 0.95876 0.0
C483 C 0.42637 0.95333 0.90812 0.0
C484 C 0.43208 0.96599 0.99813 0.0
C485 C 0.44345 0.99943 0.98803 0.0
C486 C 0.44415 0.00909 0.9375 0.0
C487 C 0.43565 0.9863 0.89799 0.0
C488 C 0.50352 0.07562 0.06152 0.0
C489 C 0.49079 0.06808 0.11079 0.0
C490 C 0.48726 0.05412 0.0215 0.0
C491 C 0.45777 0.02436 0.02948 0.0
C492 C 0.44411 0.01754 0.07833 0.0
C493 C 0.46039 0.03923 0.11854 0.0
H494 H 0.53626 0.44146 0.46023 0.0
H495 H 0.45283 0.42481 0.36929 0.0
H496 H 0.51147 0.4513 0.53353 0.0
H497 H 0.42743 0.43393 0.44349 0.0
H498 H 0.42457 0.50549 0.56332 0.0
H499 H 0.43799 0.48145 0.49262 0.0
H500 H 0.46866 0.43064 0.59595 0.0
H501 H 0.45599 0.4556 0.66716 0.0
C502 C 0.51228 0.43929 0.45601 0.0
C503 C 0.49676 0.43271 0.40854 0.0
C504 C 0.49787 0.44468 0.49837 0.0
C505 C 0.46747 0.44366 0.49464 0.0
C506 C 0.45109 0.43538 0.44769 0.0
C507 C 0.46553 0.42989 0.40517 0.0
C508 C 0.43375 0.48883 0.57117 0.0
C509 C 0.43961 0.48288 0.62111 0.0
C510 C 0.44121 0.47477 0.53041 0.0
C511 C 0.45475 0.45428 0.5383 0.0
C512 C 0.45879 0.44674 0.58835 0.0
C513 C 0.45125 0.46083 0.62927 0.0
H514 H 1.00241 0.46873 0.84193 0.0
H515 H 0.08852 0.48798 0.9273 0.0
H516 H 0.96864 0.44661 0.91682 0.0
H517 H 0.05464 0.46343 1.00172 0.0
H518 H 0.99605 0.46487 0.1387 0.0
H519 H 0.02934 0.47578 0.06351 0.0
H520 H 0.9421 0.4092 0.97858 0.0
H521 H 0.90875 0.4006 0.05342 0.0
C522 C 0.01388 0.46698 0.8764 0.0
C523 C 0.04806 0.48006 0.87879 0.0
C524 C 0.99448 0.45418 0.91969 0.0
C525 C 0.00866 0.4534 0.96632 0.0
C526 C 0.04269 0.46442 0.96738 0.0
C527 C 0.06217 0.47807 0.92444 0.0
C528 C 0.98414 0.45212 0.10413 0.0
C529 C 0.9498 0.43195 0.10194 0.0
C530 C 0.00328 0.45825 0.06067 0.0
C531 C 0.98868 0.44371 0.014 0.0
C532 C 0.95441 0.42176 0.01299 0.0
C533 C 0.93521 0.41638 0.05615 0.0
H534 H 0.62565 0.08335 0.4495 0.0
H535 H 0.52451 0.03568 0.39889 0.0
H536 H 0.60978 0.04252 0.51733 0.0
H537 H 0.50883 0.99579 0.46735 0.0
H538 H 0.49416 0.97279 0.64046 0.0
H539 H 0.51619 0.01211 0.57128 0.0
H540 H 0.57601 0.97091 0.52426 0.0
H541 H 0.55319 0.93045 0.59297 0.0
C542 C 0.6002 0.06389 0.45225 0.0
C543 C 0.57637 0.06284 0.41872 0.0
C544 C 0.59118 0.04062 0.49109 0.0
C545 C 0.55808 0.01632 0.49771 0.0
C546 C 0.5345 0.01445 0.46313 0.0
C547 C 0.54357 0.03719 0.42372 0.0
C548 C 0.51243 0.97231 0.61613 0.0
C549 C 0.52179 0.94826 0.62236 0.0
C550 C 0.52483 0.99473 0.57624 0.0
C551 C 0.54747 0.99424 0.54225 0.0
C552 C 0.55849 0.97167 0.54998 0.0
C553 C 0.5455 0.94864 0.58938 0.0
H554 H 0.52921 0.60341 0.92732 0.0
H555 H 0.52596 0.52117 0.84922 0.0
H556 H 0.55217 0.59152 1.0014 0.0
H557 H 0.54616 0.5072 0.92418 0.0
H558 H 0.59116 0.48933 0.05938 0.0
H559 H 0.58372 0.51297 0.98221 0.0
H560 H 0.53827 0.558 0.06867 0.0
H561 H 0.54851 0.53655 0.14569 0.0
C562 C 0.53379 0.58293 0.92596 0.0
C563 C 0.52611 0.56342 0.88234 0.0
C564 C 0.54647 0.57565 0.96884 0.0
C565 C 0.55072 0.54789 0.97001 0.0
C566 C 0.54401 0.52912 0.92533 0.0
C567 C 0.53228 0.53705 0.88196 0.0
C568 C 0.58031 0.50499 0.06174 0.0
C569 C 0.57062 0.51127 0.10858 0.0
C570 C 0.57553 0.51824 0.01729 0.0
C571 C 0.55982 0.53724 0.01815 0.0
C572 C 0.55101 0.54418 0.06564 0.0
C573 C 0.55674 0.53173 0.11021 0.0
H574 H 1.00218 0.54835 0.65731 0.0
H575 H 0.08503 0.58654 0.55579 0.0
H576 H 0.96518 0.5367 0.58571 0.0
H577 H 0.04842 0.57619 0.48448 0.0
H578 H 0.97071 0.50551 0.37112 0.0
H579 H 0.01018 0.52945 0.43937 0.0
H580 H 0.94476 0.55439 0.51755 0.0
H581 H 0.90456 0.52924 0.44962 0.0
C582 C 0.0126 0.55513 0.61985 0.0
C583 C 0.04652 0.56808 0.61227 0.0
C584 C 0.99138 0.54851 0.57863 0.0
C585 C 0.00362 0.55501 0.5289 0.0
C586 C 0.03787 0.57 0.52191 0.0
C587 C 0.05896 0.57623 0.56294 0.0
C588 C 0.9649 0.51664 0.40231 0.0
C589 C 0.93424 0.51518 0.40481 0.0
C590 C 0.98772 0.53057 0.44164 0.0
C591 C 0.98073 0.54375 0.48454 0.0
C592 C 0.95082 0.54395 0.48571 0.0
C593 C 0.92786 0.52981 0.4464 0.0
loop_
_geom_bond_atom_site_label_1
_geom_bond_atom_site_label_2
_geom_bond_distance
_geom_bond_site_symmetry_2
_ccdc_geom_bond_type
Co0 O2 2.143 . S
Co0 O8 2.074 . S
Co0 O11 2.093 . S
Co0 O24 2.097 . S
Co0 N41 2.151 . S
Co0 N49 2.214 . S
Co1 O2 2.160 . S
Co1 O7 2.058 . S
Co1 O17 2.057 . S
Co1 O32 2.037 . S
Co1 N36 2.145 . S
Co1 N57 2.257 . S
O2 Co0 2.143 . S
O2 Co1 2.160 . S
C3 O4 1.278 . S
C3 O11 1.224 . S
O4 C3 1.278 . S
C5 O6 1.245 . S
C5 O17 1.232 . S
O6 C5 1.245 . S
O7 Co1 2.058 . S
O7 C33 1.269 . S
O8 Co0 2.074 . S
O8 C33 1.257 . S
H9 C34 0.930 . S
H10 C40 0.930 . S
O11 Co0 2.093 . S
O11 C3 1.224 . S
H12 C44 0.929 . S
H13 C46 0.930 . S
H14 C47 0.930 . S
H15 C45 0.929 . S
H16 C48 0.928 . S
O17 Co1 2.057 . S
O17 C5 1.232 . S
H18 C37 0.929 . S
H19 C38 0.929 . S
H20 C50 0.931 . S
H21 C42 0.929 . S
H22 C51 0.930 . S
H23 C43 0.931 . S
O24 Co0 2.097 . S
O24 C52 1.214 . S
H25 C53 0.929 . S
H26 C54 0.929 . S
H27 C55 0.930 . S
H28 C56 0.929 . S
H29 C58 0.930 . S
H30 C35 0.930 . S
H31 C39 0.930 . S
O32 Co1 2.037 . S
O32 C52 1.234 . S
C33 O7 1.269 . S
C33 O8 1.257 . S
C34 H9 0.930 . S
C34 C37 1.388 . S
C34 C39 1.418 . S
C35 H30 0.930 . S
C35 C38 1.404 . S
C35 C39 1.353 . S
N36 Co1 2.145 . S
N36 C37 1.397 . S
N36 C38 1.334 . S
C37 H18 0.929 . S
C37 C34 1.388 . S
C37 N36 1.397 . S
C38 H19 0.929 . S
C38 C35 1.404 . S
C38 N36 1.334 . S
C39 H31 0.930 . S
C39 C34 1.418 . S
C39 C35 1.353 . S
C40 H10 0.930 . S
C40 N41 1.330 . S
C40 C42 1.446 . S
N41 Co0 2.151 . S
N41 C40 1.330 . S
N41 C45 1.418 . S
C42 H21 0.929 . S
C42 C40 1.446 . S
C42 C43 1.332 . S
C43 H23 0.931 . S
C43 C42 1.332 . S
C43 C44 1.267 . S
C44 H12 0.929 . S
C44 C43 1.267 . S
C44 C45 1.251 . S
C45 H15 0.929 . S
C45 N41 1.418 . S
C45 C44 1.251 . S
C46 H13 0.930 . S
C46 C48 1.406 . S
C46 C51 1.261 . S
C47 H14 0.930 . S
C47 N49 1.325 . S
C47 C50 1.357 . S
C48 H16 0.928 . S
C48 C46 1.406 . S
C48 N49 1.261 . S
N49 Co0 2.214 . S
N49 C47 1.325 . S
N49 C48 1.261 . S
C50 H20 0.931 . S
C50 C47 1.357 . S
C50 C51 1.312 . S
C51 H22 0.930 . S
C51 C46 1.261 . S
C51 C50 1.312 . S
C52 O24 1.214 . S
C52 O32 1.234 . S
C53 H25 0.929 . S
C53 C56 1.391 . S
C53 C58 1.391 . S
C54 H26 0.929 . S
C54 C55 1.390 . S
C54 N57 1.391 . S
C55 H27 0.930 . S
C55 C54 1.390 . S
C55 C56 1.392 . S
C56 H28 0.929 . S
C56 C53 1.391 . S
C56 C55 1.392 . S
N57 Co1 2.257 . S
N57 C54 1.391 . S
N57 C58 1.388 . S
C58 H29 0.930 . S
C58 C53 1.391 . S
C58 N57 1.388 . S
Co59 O61 2.143 . S
Co59 O67 2.074 . S
Co59 O70 2.093 . S
Co59 O83 2.097 . S
Co59 N100 2.151 . S
Co59 N108 2.214 . S
Co60 O61 2.160 . S
Co60 O66 2.058 . S
Co60 O76 2.057 . S
Co60 O91 2.037 . S
Co60 N95 2.145 . S
Co60 N116 2.257 . S
O61 Co59 2.143 . S
O61 Co60 2.160 . S
C62 O63 1.278 . S
C62 O70 1.224 . S
O63 C62 1.278 . S
C64 O65 1.245 . S
C64 O76 1.232 . S
O65 C64 1.245 . S
O66 Co60 2.058 . S
O66 C92 1.269 . S
O67 Co59 2.074 . S
O67 C92 1.257 . S
H68 C93 0.930 . S
H69 C99 0.930 . S
O70 Co59 2.093 . S
O70 C62 1.224 . S
H71 C103 0.929 . S
H72 C105 0.930 . S
H73 C106 0.930 . S
H74 C104 0.929 . S
H75 C107 0.928 . S
O76 Co60 2.057 . S
O76 C64 1.232 . S
H77 C96 0.929 . S
H78 C97 0.929 . S
H79 C109 0.931 . S
H80 C101 0.929 . S
H81 C110 0.930 . S
H82 C102 0.931 . S
O83 Co59 2.097 . S
O83 C111 1.214 . S
H84 C112 0.929 . S
H85 C113 0.929 . S
H86 C114 0.930 . S
H87 C115 0.929 . S
H88 C117 0.930 . S
H89 C94 0.930 . S
H90 C98 0.930 . S
O91 Co60 2.037 . S
O91 C111 1.234 . S
C92 O66 1.269 . S
C92 O67 1.257 . S
C93 H68 0.930 . S
C93 C96 1.388 . S
C93 C98 1.418 . S
C94 H89 0.930 . S
C94 C97 1.404 . S
C94 C98 1.353 . S
N95 Co60 2.145 . S
N95 C96 1.397 . S
N95 C97 1.334 . S
C96 H77 0.929 . S
C96 C93 1.388 . S
C96 N95 1.397 . S
C97 H78 0.929 . S
C97 C94 1.404 . S
C97 N95 1.334 . S
C98 H90 0.930 . S
C98 C93 1.418 . S
C98 C94 1.353 . S
C99 H69 0.930 . S
C99 N100 1.330 . S
C99 C101 1.446 . S
N100 Co59 2.151 . S
N100 C99 1.330 . S
N100 C104 1.418 . S
C101 H80 0.929 . S
C101 C99 1.446 . S
C101 C102 1.332 . S
C102 H82 0.931 . S
C102 C101 1.332 . S
C102 C103 1.267 . S
C103 H71 0.929 . S
C103 C102 1.267 . S
C103 C104 1.251 . S
C104 H74 0.929 . S
C104 N100 1.418 . S
C104 C103 1.251 . S
C105 H72 0.930 . S
C105 C107 1.406 . S
C105 C110 1.261 . S
C106 H73 0.930 . S
C106 N108 1.325 . S
C106 C109 1.357 . S
C107 H75 0.928 . S
C107 C105 1.406 . S
C107 N108 1.261 . S
N108 Co59 2.214 . S
N108 C106 1.325 . S
N108 C107 1.261 . S
C109 H79 0.931 . S
C109 C106 1.357 . S
C109 C110 1.312 . S
C110 H81 0.930 . S
C110 C105 1.261 . S
C110 C109 1.312 . S
C111 O83 1.214 . S
C111 O91 1.234 . S
C112 H84 0.929 . S
C112 C115 1.391 . S
C112 C117 1.391 . S
C113 H85 0.929 . S
C113 C114 1.390 . S
C113 N116 1.391 . S
C114 H86 0.930 . S
C114 C113 1.390 . S
C114 C115 1.392 . S
C115 H87 0.929 . S
C115 C112 1.391 . S
C115 C114 1.392 . S
N116 Co60 2.257 . S
N116 C113 1.391 . S
N116 C117 1.388 . S
C117 H88 0.930 . S
C117 C112 1.391 . S
C117 N116 1.388 . S
Co118 O120 2.143 . S
Co118 O126 2.074 . S
Co118 O129 2.093 . S
Co118 O142 2.097 . S
Co118 N159 2.151 . S
Co118 N167 2.214 . S
Co119 O120 2.160 . S
Co119 O125 2.058 . S
Co119 O135 2.057 . S
Co119 O150 2.037 . S
Co119 N154 2.145 . S
Co119 N175 2.257 . S
O120 Co118 2.143 . S
O120 Co119 2.160 . S
C121 O122 1.278 . S
C121 O129 1.224 . S
O122 C121 1.278 . S
C123 O124 1.245 . S
C123 O135 1.232 . S
O124 C123 1.245 . S
O125 Co119 2.058 . S
O125 C151 1.269 . S
O126 Co118 2.074 . S
O126 C151 1.257 . S
H127 C152 0.930 . S
H128 C158 0.930 . S
O129 Co118 2.093 . S
O129 C121 1.224 . S
H130 C162 0.929 . S
H131 C164 0.930 . S
H132 C165 0.930 . S
H133 C163 0.929 . S
H134 C166 0.928 . S
O135 Co119 2.057 . S
O135 C123 1.232 . S
H136 C155 0.929 . S
H137 C156 0.929 . S
H138 C168 0.931 . S
H139 C160 0.929 . S
H140 C169 0.930 . S
H141 C161 0.931 . S
O142 Co118 2.097 . S
O142 C170 1.214 . S
H143 C171 0.929 . S
H144 C172 0.929 . S
H145 C173 0.930 . S
H146 C174 0.929 . S
H147 C176 0.930 . S
H148 C153 0.930 . S
H149 C157 0.930 . S
O150 Co119 2.037 . S
O150 C170 1.234 . S
C151 O125 1.269 . S
C151 O126 1.257 . S
C152 H127 0.930 . S
C152 C155 1.388 . S
C152 C157 1.418 . S
C153 H148 0.930 . S
C153 C156 1.404 . S
C153 C157 1.353 . S
N154 Co119 2.145 . S
N154 C155 1.397 . S
N154 C156 1.334 . S
C155 H136 0.929 . S
C155 C152 1.388 . S
C155 N154 1.397 . S
C156 H137 0.929 . S
C156 C153 1.404 . S
C156 N154 1.334 . S
C157 H149 0.930 . S
C157 C152 1.418 . S
C157 C153 1.353 . S
C158 H128 0.930 . S
C158 N159 1.330 . S
C158 C160 1.446 . S
N159 Co118 2.151 . S
N159 C158 1.330 . S
N159 C163 1.418 . S
C160 H139 0.929 . S
C160 C158 1.446 . S
C160 C161 1.332 . S
C161 H141 0.931 . S
C161 C160 1.332 . S
C161 C162 1.267 . S
C162 H130 0.929 . S
C162 C161 1.267 . S
C162 C163 1.251 . S
C163 H133 0.929 . S
C163 N159 1.418 . S
C163 C162 1.251 . S
C164 H131 0.930 . S
C164 C166 1.406 . S
C164 C169 1.261 . S
C165 H132 0.930 . S
C165 N167 1.325 . S
C165 C168 1.357 . S
C166 H134 0.928 . S
C166 C164 1.406 . S
C166 N167 1.261 . S
N167 Co118 2.214 . S
N167 C165 1.325 . S
N167 C166 1.261 . S
C168 H138 0.931 . S
C168 C165 1.357 . S
C168 C169 1.312 . S
C169 H140 0.930 . S
C169 C164 1.261 . S
C169 C168 1.312 . S
C170 O142 1.214 . S
C170 O150 1.234 . S
C171 H143 0.929 . S
C171 C174 1.391 . S
C171 C176 1.391 . S
C172 H144 0.929 . S
C172 C173 1.390 . S
C172 N175 1.391 . S
C173 H145 0.930 . S
C173 C172 1.390 . S
C173 C174 1.392 . S
C174 H146 0.929 . S
C174 C171 1.391 . S
C174 C173 1.392 . S
N175 Co119 2.257 . S
N175 C172 1.391 . S
N175 C176 1.388 . S
C176 H147 0.930 . S
C176 C171 1.391 . S
C176 N175 1.388 . S
Co177 O179 2.143 . S
Co177 O185 2.074 . S
Co177 O188 2.093 . S
Co177 O201 2.097 . S
Co177 N218 2.151 . S
Co177 N226 2.214 . S
Co178 O179 2.160 . S
Co178 O184 2.058 . S
Co178 O194 2.057 . S
Co178 O209 2.037 . S
Co178 N213 2.145 . S
Co178 N234 2.257 . S
O179 Co177 2.143 . S
O179 Co178 2.160 . S
C180 O181 1.278 . S
C180 O188 1.224 . S
O181 C180 1.278 . S
C182 O183 1.245 . S
C182 O194 1.232 . S
O183 C182 1.245 . S
O184 Co178 2.058 . S
O184 C210 1.269 . S
O185 Co177 2.074 . S
O185 C210 1.257 . S
H186 C211 0.930 . S
H187 C217 0.930 . S
O188 Co177 2.093 . S
O188 C180 1.224 . S
H189 C221 0.929 . S
H190 C223 0.930 . S
H191 C224 0.930 . S
H192 C222 0.929 . S
H193 C225 0.928 . S
O194 Co178 2.057 . S
O194 C182 1.232 . S
H195 C214 0.929 . S
H196 C215 0.929 . S
H197 C227 0.931 . S
H198 C219 0.929 . S
H199 C228 0.930 . S
H200 C220 0.931 . S
O201 Co177 2.097 . S
O201 C229 1.214 . S
H202 C230 0.929 . S
H203 C231 0.929 . S
H204 C232 0.930 . S
H205 C233 0.929 . S
H206 C235 0.930 . S
H207 C212 0.930 . S
H208 C216 0.930 . S
O209 Co178 2.037 . S
O209 C229 1.234 . S
C210 O184 1.269 . S
C210 O185 1.257 . S
C211 H186 0.930 . S
C211 C214 1.388 . S
C211 C216 1.418 . S
C212 H207 0.930 . S
C212 C215 1.404 . S
C212 C216 1.353 . S
N213 Co178 2.145 . S
N213 C214 1.397 . S
N213 C215 1.334 . S
C214 H195 0.929 . S
C214 C211 1.388 . S
C214 N213 1.397 . S
C215 H196 0.929 . S
C215 C212 1.404 . S
C215 N213 1.334 . S
C216 H208 0.930 . S
C216 C211 1.418 . S
C216 C212 1.353 . S
C217 H187 0.930 . S
C217 N218 1.330 . S
C217 C219 1.446 . S
N218 Co177 2.151 . S
N218 C217 1.330 . S
N218 C222 1.418 . S
C219 H198 0.929 . S
C219 C217 1.446 . S
C219 C220 1.332 . S
C220 H200 0.931 . S
C220 C219 1.332 . S
C220 C221 1.267 . S
C221 H189 0.929 . S
C221 C220 1.267 . S
C221 C222 1.251 . S
C222 H192 0.929 . S
C222 N218 1.418 . S
C222 C221 1.251 . S
C223 H190 0.930 . S
C223 C225 1.406 . S
C223 C228 1.261 . S
C224 H191 0.930 . S
C224 N226 1.325 . S
C224 C227 1.357 . S
C225 H193 0.928 . S
C225 C223 1.406 . S
C225 N226 1.261 . S
N226 Co177 2.214 . S
N226 C224 1.325 . S
N226 C225 1.261 . S
C227 H197 0.931 . S
C227 C224 1.357 . S
C227 C228 1.312 . S
C228 H199 0.930 . S
C228 C223 1.261 . S
C228 C227 1.312 . S
C229 O201 1.214 . S
C229 O209 1.234 . S
C230 H202 0.929 . S
C230 C233 1.391 . S
C230 C235 1.391 . S
C231 H203 0.929 . S
C231 C232 1.390 . S
C231 N234 1.391 . S
C232 H204 0.930 . S
C232 C231 1.390 . S
C232 C233 1.392 . S
C233 H205 0.929 . S
C233 C230 1.391 . S
C233 C232 1.392 . S
N234 Co178 2.257 . S
N234 C231 1.391 . S
N234 C235 1.388 . S
C235 H206 0.930 . S
C235 C230 1.391 . S
C235 N234 1.388 . S
Co236 O238 2.143 . S
Co236 O244 2.074 . S
Co236 O247 2.093 . S
Co236 O260 2.097 . S
Co236 N277 2.151 . S
Co236 N285 2.214 . S
Co237 O238 2.160 . S
Co237 O243 2.058 . S
Co237 O253 2.057 . S
Co237 O268 2.037 . S
Co237 N272 2.145 . S
Co237 N293 2.257 . S
O238 Co236 2.143 . S
O238 Co237 2.160 . S
C239 O240 1.278 . S
C239 O247 1.224 . S
O240 C239 1.278 . S
C241 O242 1.245 . S
C241 O253 1.232 . S
O242 C241 1.245 . S
O243 Co237 2.058 . S
O243 C269 1.269 . S
O244 Co236 2.074 . S
O244 C269 1.257 . S
H245 C270 0.930 . S
H246 C276 0.930 . S
O247 Co236 2.093 . S
O247 C239 1.224 . S
H248 C280 0.929 . S
H249 C282 0.930 . S
H250 C283 0.930 . S
H251 C281 0.929 . S
H252 C284 0.928 . S
O253 Co237 2.057 . S
O253 C241 1.232 . S
H254 C273 0.929 . S
H255 C274 0.929 . S
H256 C286 0.931 . S
H257 C278 0.929 . S
H258 C287 0.930 . S
H259 C279 0.931 . S
O260 Co236 2.097 . S
O260 C288 1.214 . S
H261 C289 0.929 . S
H262 C290 0.929 . S
H263 C291 0.930 . S
H264 C292 0.929 . S
H265 C294 0.930 . S
H266 C271 0.930 . S
H267 C275 0.930 . S
O268 Co237 2.037 . S
O268 C288 1.234 . S
C269 O243 1.269 . S
C269 O244 1.257 . S
C270 H245 0.930 . S
C270 C273 1.388 . S
C270 C275 1.418 . S
C271 H266 0.930 . S
C271 C274 1.404 . S
C271 C275 1.353 . S
N272 Co237 2.145 . S
N272 C273 1.397 . S
N272 C274 1.334 . S
C273 H254 0.929 . S
C273 C270 1.388 . S
C273 N272 1.397 . S
C274 H255 0.929 . S
C274 C271 1.404 . S
C274 N272 1.334 . S
C275 H267 0.930 . S
C275 C270 1.418 . S
C275 C271 1.353 . S
C276 H246 0.930 . S
C276 N277 1.330 . S
C276 C278 1.446 . S
N277 Co236 2.151 . S
N277 C276 1.330 . S
N277 C281 1.418 . S
C278 H257 0.929 . S
C278 C276 1.446 . S
C278 C279 1.332 . S
C279 H259 0.931 . S
C279 C278 1.332 . S
C279 C280 1.267 . S
C280 H248 0.929 . S
C280 C279 1.267 . S
C280 C281 1.251 . S
C281 H251 0.929 . S
C281 N277 1.418 . S
C281 C280 1.251 . S
C282 H249 0.930 . S
C282 C284 1.406 . S
C282 C287 1.261 . S
C283 H250 0.930 . S
C283 N285 1.325 . S
C283 C286 1.357 . S
C284 H252 0.928 . S
C284 C282 1.406 . S
C284 N285 1.261 . S
N285 Co236 2.214 . S
N285 C283 1.325 . S
N285 C284 1.261 . S
C286 H256 0.931 . S
C286 C283 1.357 . S
C286 C287 1.312 . S
C287 H258 0.930 . S
C287 C282 1.261 . S
C287 C286 1.312 . S
C288 O260 1.214 . S
C288 O268 1.234 . S
C289 H261 0.929 . S
C289 C292 1.391 . S
C289 C294 1.391 . S
C290 H262 0.929 . S
C290 C291 1.390 . S
C290 N293 1.391 . S
C291 H263 0.930 . S
C291 C290 1.390 . S
C291 C292 1.392 . S
C292 H264 0.929 . S
C292 C289 1.391 . S
C292 C291 1.392 . S
N293 Co237 2.257 . S
N293 C290 1.391 . S
N293 C294 1.388 . S
C294 H265 0.930 . S
C294 C289 1.391 . S
C294 N293 1.388 . S
Co295 O297 2.143 . S
Co295 O303 2.074 . S
Co295 O306 2.093 . S
Co295 O319 2.097 . S
Co295 N336 2.151 . S
Co295 N344 2.214 . S
Co296 O297 2.160 . S
Co296 O302 2.058 . S
Co296 O312 2.057 . S
Co296 O327 2.037 . S
Co296 N331 2.145 . S
Co296 N352 2.257 . S
O297 Co295 2.143 . S
O297 Co296 2.160 . S
C298 O299 1.278 . S
C298 O306 1.224 . S
O299 C298 1.278 . S
C300 O301 1.245 . S
C300 O312 1.232 . S
O301 C300 1.245 . S
O302 Co296 2.058 . S
O302 C328 1.269 . S
O303 Co295 2.074 . S
O303 C328 1.257 . S
H304 C329 0.930 . S
H305 C335 0.930 . S
O306 Co295 2.093 . S
O306 C298 1.224 . S
H307 C339 0.929 . S
H308 C341 0.930 . S
H309 C342 0.930 . S
H310 C340 0.929 . S
H311 C343 0.928 . S
O312 Co296 2.057 . S
O312 C300 1.232 . S
H313 C332 0.929 . S
H314 C333 0.929 . S
H315 C345 0.931 . S
H316 C337 0.929 . S
H317 C346 0.930 . S
H318 C338 0.931 . S
O319 Co295 2.097 . S
O319 C347 1.214 . S
H320 C348 0.929 . S
H321 C349 0.929 . S
H322 C350 0.930 . S
H323 C351 0.929 . S
H324 C353 0.930 . S
H325 C330 0.930 . S
H326 C334 0.930 . S
O327 Co296 2.037 . S
O327 C347 1.234 . S
C328 O302 1.269 . S
C328 O303 1.257 . S
C329 H304 0.930 . S
C329 C332 1.388 . S
C329 C334 1.418 . S
C330 H325 0.930 . S
C330 C333 1.404 . S
C330 C334 1.353 . S
N331 Co296 2.145 . S
N331 C332 1.397 . S
N331 C333 1.334 . S
C332 H313 0.929 . S
C332 C329 1.388 . S
C332 N331 1.397 . S
C333 H314 0.929 . S
C333 C330 1.404 . S
C333 N331 1.334 . S
C334 H326 0.930 . S
C334 C329 1.418 . S
C334 C330 1.353 . S
C335 H305 0.930 . S
C335 N336 1.330 . S
C335 C337 1.446 . S
N336 Co295 2.151 . S
N336 C335 1.330 . S
N336 C340 1.418 . S
C337 H316 0.929 . S
C337 C335 1.446 . S
C337 C338 1.332 . S
C338 H318 0.931 . S
C338 C337 1.332 . S
C338 C339 1.267 . S
C339 H307 0.929 . S
C339 C338 1.267 . S
C339 C340 1.251 . S
C340 H310 0.929 . S
C340 N336 1.418 . S
C340 C339 1.251 . S
C341 H308 0.930 . S
C341 C343 1.406 . S
C341 C346 1.261 . S
C342 H309 0.930 . S
C342 N344 1.325 . S
C342 C345 1.357 . S
C343 H311 0.928 . S
C343 C341 1.406 . S
C343 N344 1.261 . S
N344 Co295 2.214 . S
N344 C342 1.325 . S
N344 C343 1.261 . S
C345 H315 0.931 . S
C345 C342 1.357 . S
C345 C346 1.312 . S
C346 H317 0.930 . S
C346 C341 1.261 . S
C346 C345 1.312 . S
C347 O319 1.214 . S
C347 O327 1.234 . S
C348 H320 0.929 . S
C348 C351 1.391 . S
C348 C353 1.391 . S
C349 H321 0.929 . S
C349 C350 1.390 . S
C349 N352 1.391 . S
C350 H322 0.930 . S
C350 C349 1.390 . S
C350 C351 1.392 . S
C351 H323 0.929 . S
C351 C348 1.391 . S
C351 C350 1.392 . S
N352 Co296 2.257 . S
N352 C349 1.391 . S
N352 C353 1.388 . S
C353 H324 0.930 . S
C353 C348 1.391 . S
C353 N352 1.388 . S
H354 C362 0.950 . S
H355 C367 0.950 . S
H356 C364 0.950 . S
H357 C366 0.950 . S
H358 C368 0.950 . S
H359 C370 0.950 . S
H360 C372 0.950 . S
H361 C373 0.950 . S
C362 H354 0.950 . S
C362 C363 1.386 . S
C362 C364 1.391 . S
C363 C362 1.386 . S
C363 C367 1.393 . S
C364 H356 0.950 . S
C364 C362 1.391 . S
C364 C365 1.400 . S
C365 C364 1.400 . S
C365 C366 1.398 . S
C365 C371 1.491 . S
C366 H357 0.950 . S
C366 C365 1.398 . S
C366 C367 1.391 . S
C367 H355 0.950 . S
C367 C363 1.393 . S
C367 C366 1.391 . S
C368 H358 0.950 . S
C368 C369 1.386 . S
C368 C370 1.391 . S
C369 C368 1.386 . S
C369 C373 1.393 . S
C370 H359 0.950 . S
C370 C368 1.391 . S
C370 C371 1.400 . S
C371 C365 1.491 . S
C371 C370 1.400 . S
C371 C372 1.398 . S
C372 H360 0.950 . S
C372 C371 1.398 . S
C372 C373 1.391 . S
C373 H361 0.950 . S
C373 C369 1.393 . S
C373 C372 1.391 . S
H374 C382 0.950 . S
H375 C387 0.950 . S
H376 C384 0.950 . S
H377 C386 0.950 . S
H378 C388 0.950 . S
H379 C390 0.950 . S
H380 C392 0.950 . S
H381 C393 0.950 . S
C382 H374 0.950 . S
C382 C383 1.386 . S
C382 C384 1.391 . S
C383 C382 1.386 . S
C383 C387 1.393 . S
C384 H376 0.950 . S
C384 C382 1.391 . S
C384 C385 1.400 . S
C385 C384 1.400 . S
C385 C386 1.398 . S
C385 C391 1.491 . S
C386 H377 0.950 . S
C386 C385 1.398 . S
C386 C387 1.391 . S
C387 H375 0.950 . S
C387 C383 1.393 . S
C387 C386 1.391 . S
C388 H378 0.950 . S
C388 C389 1.386 . S
C388 C390 1.391 . S
C389 C388 1.386 . S
C389 C393 1.393 . S
C390 H379 0.950 . S
C390 C388 1.391 . S
C390 C391 1.400 . S
C391 C385 1.491 . S
C391 C390 1.400 . S
C391 C392 1.398 . S
C392 H380 0.950 . S
C392 C391 1.398 . S
C392 C393 1.391 . S
C393 H381 0.950 . S
C393 C389 1.393 . S
C393 C392 1.391 . S
H394 C402 0.950 . S
H395 C407 0.950 . S
H396 C404 0.950 . S
H397 C406 0.950 . S
H398 C408 0.950 . S
H399 C410 0.950 . S
H400 C412 0.950 . S
H401 C413 0.950 . S
C402 H394 0.950 . S
C402 C403 1.386 . S
C402 C404 1.391 . S
C403 C402 1.386 . S
C403 C407 1.393 . S
C404 H396 0.950 . S
C404 C402 1.391 . S
C404 C405 1.400 . S
C405 C404 1.400 . S
C405 C406 1.398 . S
C405 C411 1.491 . S
C406 H397 0.950 . S
C406 C405 1.398 . S
C406 C407 1.391 . S
C407 H395 0.950 . S
C407 C403 1.393 . S
C407 C406 1.391 . S
C408 H398 0.950 . S
C408 C409 1.386 . S
C408 C410 1.391 . S
C409 C408 1.386 . S
C409 C413 1.393 . S
C410 H399 0.950 . S
C410 C408 1.391 . S
C410 C411 1.400 . S
C411 C405 1.491 . S
C411 C410 1.400 . S
C411 C412 1.398 . S
C412 H400 0.950 . S
C412 C411 1.398 . S
C412 C413 1.391 . S
C413 H401 0.950 . S
C413 C409 1.393 . S
C413 C412 1.391 . S
H414 C422 0.950 . S
H415 C427 0.950 . S
H416 C424 0.950 . S
H417 C426 0.950 . S
H418 C428 0.950 . S
H419 C430 0.950 . S
H420 C432 0.950 . S
H421 C433 0.950 . S
C422 H414 0.950 . S
C422 C423 1.386 . S
C422 C424 1.391 . S
C423 C422 1.386 . S
C423 C427 1.393 . S
C424 H416 0.950 . S
C424 C422 1.391 . S
C424 C425 1.400 . S
C425 C424 1.400 . S
C425 C426 1.398 . S
C425 C431 1.491 . S
C426 H417 0.950 . S
C426 C425 1.398 . S
C426 C427 1.391 . S
C427 H415 0.950 . S
C427 C423 1.393 . S
C427 C426 1.391 . S
C428 H418 0.950 . S
C428 C429 1.386 . S
C428 C430 1.391 . S
C429 C428 1.386 . S
C429 C433 1.393 . S
C430 H419 0.950 . S
C430 C428 1.391 . S
C430 C431 1.400 . S
C431 C425 1.491 . S
C431 C430 1.400 . S
C431 C432 1.398 . S
C432 H420 0.950 . S
C432 C431 1.398 . S
C432 C433 1.391 . S
C433 H421 0.950 . S
C433 C429 1.393 . S
C433 C432 1.391 . S
H434 C442 0.950 . S
H435 C447 0.950 . S
H436 C444 0.950 . S
H437 C446 0.950 . S
H438 C448 0.950 . S
H439 C450 0.950 . S
H440 C452 0.950 . S
H441 C453 0.950 . S
C442 H434 0.950 . S
C442 C443 1.386 . S
C442 C444 1.391 . S
C443 C442 1.386 . S
C443 C447 1.393 . S
C444 H436 0.950 . S
C444 C442 1.391 . S
C444 C445 1.400 . S
C445 C444 1.400 . S
C445 C446 1.398 . S
C445 C451 1.491 . S
C446 H437 0.950 . S
C446 C445 1.398 . S
C446 C447 1.391 . S
C447 H435 0.950 . S
C447 C443 1.393 . S
C447 C446 1.391 . S
C448 H438 0.950 . S
C448 C449 1.386 . S
C448 C450 1.391 . S
C449 C448 1.386 . S
C449 C453 1.393 . S
C450 H439 0.950 . S
C450 C448 1.391 . S
C450 C451 1.400 . S
C451 C445 1.491 . S
C451 C450 1.400 . S
C451 C452 1.398 . S
C452 H440 0.950 . S
C452 C451 1.398 . S
C452 C453 1.391 . S
C453 H441 0.950 . S
C453 C449 1.393 . S
C453 C452 1.391 . S
H454 C462 0.950 . S
H455 C467 0.950 . S
H456 C464 0.950 . S
H457 C466 0.950 . S
H458 C468 0.950 . S
H459 C470 0.950 . S
H460 C472 0.950 . S
H461 C473 0.950 . S
C462 H454 0.950 . S
C462 C463 1.386 . S
C462 C464 1.391 . S
C463 C462 1.386 . S
C463 C467 1.393 . S
C464 H456 0.950 . S
C464 C462 1.391 . S
C464 C465 1.400 . S
C465 C464 1.400 . S
C465 C466 1.398 . S
C465 C471 1.491 . S
C466 H457 0.950 . S
C466 C465 1.398 . S
C466 C467 1.391 . S
C467 H455 0.950 . S
C467 C463 1.393 . S
C467 C466 1.391 . S
C468 H458 0.950 . S
C468 C469 1.386 . S
C468 C470 1.391 . S
C469 C468 1.386 . S
C469 C473 1.393 . S
C470 H459 0.950 . S
C470 C468 1.391 . S
C470 C471 1.400 . S
C471 C465 1.491 . S
C471 C470 1.400 . S
C471 C472 1.398 . S
C472 H460 0.950 . S
C472 C471 1.398 . S
C472 C473 1.391 . S
C473 H461 0.950 . S
C473 C469 1.393 . S
C473 C472 1.391 . S
H474 C482 0.950 . S
H475 C487 0.950 . S
H476 C484 0.950 1_554 S
H477 C486 0.950 . S
H478 C488 0.950 . S
H479 C490 0.950 1_556 S
H480 C492 0.950 . S
H481 C493 0.950 . S
C482 H474 0.950 . S
C482 C483 1.386 . S
C482 C484 1.391 . S
C483 C482 1.386 . S
C483 C487 1.393 . S
C484 H476 0.950 1_556 S
C484 C482 1.391 . S
C484 C485 1.400 . S
C485 C484 1.400 . S
C485 C486 1.398 1_565 S
C485 C491 1.491 1_566 S
C486 H477 0.950 . S
C486 C485 1.398 1_545 S
C486 C487 1.391 1_545 S
C487 H475 0.950 . S
C487 C483 1.393 . S
C487 C486 1.391 1_565 S
C488 H478 0.950 . S
C488 C489 1.386 . S
C488 C490 1.391 . S
C489 C488 1.386 . S
C489 C493 1.393 . S
C490 H479 0.950 1_554 S
C490 C488 1.391 . S
C490 C491 1.400 . S
C491 C485 1.491 1_544 S
C491 C490 1.400 . S
C491 C492 1.398 1_545 S
C492 H480 0.950 . S
C492 C491 1.398 1_565 S
C492 C493 1.391 1_565 S
C493 H481 0.950 . S
C493 C489 1.393 . S
C493 C492 1.391 1_545 S
H494 C502 0.950 . S
H495 C507 0.950 . S
H496 C504 0.950 . S
H497 C506 0.950 . S
H498 C508 0.950 . S
H499 C510 0.950 . S
H500 C512 0.950 . S
H501 C513 0.950 . S
C502 H494 0.950 . S
C502 C503 1.386 . S
C502 C504 1.391 . S
C503 C502 1.386 . S
C503 C507 1.393 . S
C504 H496 0.950 . S
C504 C502 1.391 . S
C504 C505 1.400 . S
C505 C504 1.400 . S
C505 C506 1.398 . S
C505 C511 1.491 . S
C506 H497 0.950 . S
C506 C505 1.398 . S
C506 C507 1.391 . S
C507 H495 0.950 . S
C507 C503 1.393 . S
C507 C506 1.391 . S
C508 H498 0.950 . S
C508 C509 1.386 . S
C508 C510 1.391 . S
C509 C508 1.386 . S
C509 C513 1.393 . S
C510 H499 0.950 . S
C510 C508 1.391 . S
C510 C511 1.400 . S
C511 C505 1.491 . S
C511 C510 1.400 . S
C511 C512 1.398 . S
C512 H500 0.950 . S
C512 C511 1.398 . S
C512 C513 1.391 . S
C513 H501 0.950 . S
C513 C509 1.393 . S
C513 C512 1.391 . S
H514 C522 0.950 . S
H515 C527 0.950 . S
H516 C524 0.950 1_655 S
H517 C526 0.950 1_554 S
H518 C528 0.950 . S
H519 C530 0.950 1_455 S
H520 C532 0.950 1_556 S
H521 C533 0.950 . S
C522 H514 0.950 . S
C522 C523 1.386 . S
C522 C524 1.391 . S
C523 C522 1.386 . S
C523 C527 1.393 . S
C524 H516 0.950 1_455 S
C524 C522 1.391 . S
C524 C525 1.400 . S
C525 C524 1.400 . S
C525 C526 1.398 . S
C525 C531 1.491 1_456 S
C526 H517 0.950 1_556 S
C526 C525 1.398 . S
C526 C527 1.391 . S
C527 H515 0.950 . S
C527 C523 1.393 . S
C527 C526 1.391 . S
C528 H518 0.950 . S
C528 C529 1.386 . S
C528 C530 1.391 . S
C529 C528 1.386 . S
C529 C533 1.393 . S
C530 H519 0.950 1_655 S
C530 C528 1.391 . S
C530 C531 1.400 . S
C531 C525 1.491 1_654 S
C531 C530 1.400 . S
C531 C532 1.398 . S
C532 H520 0.950 1_554 S
C532 C531 1.398 . S
C532 C533 1.391 . S
C533 H521 0.950 . S
C533 C529 1.393 . S
C533 C532 1.391 . S
H534 C542 0.950 . S
H535 C547 0.950 . S
H536 C544 0.950 . S
H537 C546 0.950 . S
H538 C548 0.950 . S
H539 C550 0.950 . S
H540 C552 0.950 . S
H541 C553 0.950 . S
C542 H534 0.950 . S
C542 C543 1.386 . S
C542 C544 1.391 . S
C543 C542 1.386 . S
C543 C547 1.393 . S
C544 H536 0.950 . S
C544 C542 1.391 . S
C544 C545 1.400 . S
C545 C544 1.400 . S
C545 C546 1.398 . S
C545 C551 1.491 1_545 S
C546 H537 0.950 . S
C546 C545 1.398 . S
C546 C547 1.391 . S
C547 H535 0.950 . S
C547 C543 1.393 . S
C547 C546 1.391 . S
C548 H538 0.950 . S
C548 C549 1.386 . S
C548 C550 1.391 . S
C549 C548 1.386 . S
C549 C553 1.393 . S
C550 H539 0.950 . S
C550 C548 1.391 . S
C550 C551 1.400 . S
C551 C545 1.491 1_565 S
C551 C550 1.400 . S
C551 C552 1.398 . S
C552 H540 0.950 . S
C552 C551 1.398 . S
C552 C553 1.391 . S
C553 H541 0.950 . S
C553 C549 1.393 . S
C553 C552 1.391 . S
H554 C562 0.950 . S
H555 C567 0.950 . S
H556 C564 0.950 1_554 S
H557 C566 0.950 . S
H558 C568 0.950 . S
H559 C570 0.950 1_556 S
H560 C572 0.950 . S
H561 C573 0.950 . S
C562 H554 0.950 . S
C562 C563 1.386 . S
C562 C564 1.391 . S
C563 C562 1.386 . S
C563 C567 1.393 . S
C564 H556 0.950 1_556 S
C564 C562 1.391 . S
C564 C565 1.400 . S
C565 C564 1.400 . S
C565 C566 1.398 . S
C565 C571 1.491 1_556 S
C566 H557 0.950 . S
C566 C565 1.398 . S
C566 C567 1.391 . S
C567 H555 0.950 . S
C567 C563 1.393 . S
C567 C566 1.391 . S
C568 H558 0.950 . S
C568 C569 1.386 . S
C568 C570 1.391 . S
C569 C568 1.386 . S
C569 C573 1.393 . S
C570 H559 0.950 1_554 S
C570 C568 1.391 . S
C570 C571 1.400 . S
C571 C565 1.491 1_554 S
C571 C570 1.400 . S
C571 C572 1.398 . S
C572 H560 0.950 . S
C572 C571 1.398 . S
C572 C573 1.391 . S
C573 H561 0.950 . S
C573 C569 1.393 . S
C573 C572 1.391 . S
H574 C582 0.950 . S
H575 C587 0.950 . S
H576 C584 0.950 . S
H577 C586 0.950 . S
H578 C588 0.950 . S
H579 C590 0.950 . S
H580 C592 0.950 . S
H581 C593 0.950 . S
C582 H574 0.950 . S
C582 C583 1.386 . S
C582 C584 1.391 . S
C583 C582 1.386 . S
C583 C587 1.393 . S
C584 H576 0.950 . S
C584 C582 1.391 . S
C584 C585 1.400 . S
C585 C584 1.400 . S
C585 C586 1.398 . S
C585 C591 1.491 1_455 S
C586 H577 0.950 . S
C586 C585 1.398 . S
C586 C587 1.391 . S
C587 H575 0.950 . S
C587 C583 1.393 . S
C587 C586 1.391 . S
C588 H578 0.950 . S
C588 C589 1.386 . S
C588 C590 1.391 . S
C589 C588 1.386 . S
C589 C593 1.393 . S
C590 H579 0.950 . S
C590 C588 1.391 . S
C590 C591 1.400 . S
C591 C585 1.491 1_655 S
C591 C590 1.400 . S
C591 C592 1.398 . S
C592 H580 0.950 . S
C592 C591 1.398 . S
C592 C593 1.391 . S
C593 H581 0.950 . S
C593 C589 1.393 . S
C593 C592 1.391 . S
C363 C52 1.310 . S
C369 C269 1.298 . S
C383 C111 1.294 . S
C389 C328 1.297 . S
C403 C33 1.275 . S
C409 C151 1.281 . S
C423 C210 1.303 . S
C429 C92 1.299 . S
C443 C288 1.284 . S
C449 C170 1.287 . S
C463 C229 1.292 . S
C469 C347 1.300 . S
C483 C180 1.484 . S
C489 C3 1.487 . S
C503 C241 1.494 . S
C509 C62 1.491 . S
C523 C300 1.497 . S
C529 C123 1.492 . S
C543 C5 1.491 . S
C549 C182 1.490 . S
C563 C64 1.492 . S
C569 C239 1.488 . S
C583 C298 1.477 . S
C589 C121 1.477 . S
