# Generated by pormake.
# Topology vbb, (4)-cn, num edge types: 1
# Building blocks:
#     Node 0, Type 0, BuildingBlock: NAWXER_clean_sbu_0, # of connection points: 4
#     Node 1, Type 0, BuildingBlock: NAWXER_clean_sbu_0, # of connection points: 4
#     Node 2, Type 0, BuildingBlock: NAWXER_clean_sbu_0, # of connection points: 4
#     Node 3, Type 0, BuildingBlock: NAWXER_clean_sbu_0, # of connection points: 4
#     Node 4, Type 0, BuildingBlock: NAWXER_clean_sbu_0, # of connection points: 4
#     Node 5, Type 0, BuildingBlock: NAWXER_clean_sbu_0, # of connection points: 4
#     Node 6, Type 0, BuildingBlock: NAWXER_clean_sbu_0, # of connection points: 4
#     Node 7, Type 0, BuildingBlock: NAWXER_clean_sbu_0, # of connection points: 4
#     Node 8, Type 0, BuildingBlock: NAWXER_clean_sbu_0, # of connection points: 4
#     Node 9, Type 0, BuildingBlock: NAWXER_clean_sbu_0, # of connection points: 4
#     Node 10, Type 0, BuildingBlock: NAWXER_clean_sbu_0, # of connection points: 4
#     Node 11, Type 0, BuildingBlock: NAWXER_clean_sbu_0, # of connection points: 4
#     Node 12, Type 0, BuildingBlock: NAWXER_clean_sbu_0, # of connection points: 4
#     Node 13, Type 0, BuildingBlock: NAWXER_clean_sbu_0, # of connection points: 4
#     Node 14, Type 0, BuildingBlock: NAWXER_clean_sbu_0, # of connection points: 4
#     Node 15, Type 0, BuildingBlock: NAWXER_clean_sbu_0, # of connection points: 4
#     Node 16, Type 0, BuildingBlock: NAWXER_clean_sbu_0, # of connection points: 4
#     Node 17, Type 0, BuildingBlock: NAWXER_clean_sbu_0, # of connection points: 4
#     Node 18, Type 0, BuildingBlock: NAWXER_clean_sbu_0, # of connection points: 4
#     Node 19, Type 0, BuildingBlock: NAWXER_clean_sbu_0, # of connection points: 4
#     Node 20, Type 0, BuildingBlock: NAWXER_clean_sbu_0, # of connection points: 4
#     Node 21, Type 0, BuildingBlock: NAWXER_clean_sbu_0, # of connection points: 4
#     Node 22, Type 0, BuildingBlock: NAWXER_clean_sbu_0, # of connection points: 4
#     Node 23, Type 0, BuildingBlock: NAWXER_clean_sbu_0, # of connection points: 4
#     Node 24, Type 0, BuildingBlock: NAWXER_clean_sbu_0, # of connection points: 4
#     Node 25, Type 0, BuildingBlock: NAWXER_clean_sbu_0, # of connection points: 4
#     Node 26, Type 0, BuildingBlock: NAWXER_clean_sbu_0, # of connection points: 4
#     Node 27, Type 0, BuildingBlock: NAWXER_clean_sbu_0, # of connection points: 4
#     Node 28, Type 0, BuildingBlock: NAWXER_clean_sbu_0, # of connection points: 4
#     Node 29, Type 0, BuildingBlock: NAWXER_clean_sbu_0, # of connection points: 4
#     Node 30, Type 0, BuildingBlock: NAWXER_clean_sbu_0, # of connection points: 4
#     Node 31, Type 0, BuildingBlock: NAWXER_clean_sbu_0, # of connection points: 4
#     Edge 32, Type (0, 0), BuildingBlock: UVAHIK_clean_linker_0, # of connection points: 2
#     Edge 33, Type (0, 0), BuildingBlock: UVAHIK_clean_linker_0, # of connection points: 2
#     Edge 34, Type (0, 0), BuildingBlock: UVAHIK_clean_linker_0, # of connection points: 2
#     Edge 35, Type (0, 0), BuildingBlock: UVAHIK_clean_linker_0, # of connection points: 2
#     Edge 36, Type (0, 0), BuildingBlock: UVAHIK_clean_linker_0, # of connection points: 2
#     Edge 37, Type (0, 0), BuildingBlock: UVAHIK_clean_linker_0, # of connection points: 2
#     Edge 38, Type (0, 0), BuildingBlock: UVAHIK_clean_linker_0, # of connection points: 2
#     Edge 39, Type (0, 0), BuildingBlock: UVAHIK_clean_linker_0, # of connection points: 2
#     Edge 40, Type (0, 0), BuildingBlock: UVAHIK_clean_linker_0, # of connection points: 2
#     Edge 41, Type (0, 0), BuildingBlock: UVAHIK_clean_linker_0, # of connection points: 2
#     Edge 42, Type (0, 0), BuildingBlock: UVAHIK_clean_linker_0, # of connection points: 2
#     Edge 43, Type (0, 0), BuildingBlock: UVAHIK_clean_linker_0, # of connection points: 2
#     Edge 44, Type (0, 0), BuildingBlock: UVAHIK_clean_linker_0, # of connection points: 2
#     Edge 45, Type (0, 0), BuildingBlock: UVAHIK_clean_linker_0, # of connection points: 2
#     Edge 46, Type (0, 0), BuildingBlock: UVAHIK_clean_linker_0, # of connection points: 2
#     Edge 47, Type (0, 0), BuildingBlock: UVAHIK_clean_linker_0, # of connection points: 2
#     Edge 48, Type (0, 0), BuildingBlock: UVAHIK_clean_linker_0, # of connection points: 2
#     Edge 49, Type (0, 0), BuildingBlock: UVAHIK_clean_linker_0, # of connection points: 2
#     Edge 50, Type (0, 0), BuildingBlock: UVAHIK_clean_linker_0, # of connection points: 2
#     Edge 51, Type (0, 0), BuildingBlock: UVAHIK_clean_linker_0, # of connection points: 2
#     Edge 52, Type (0, 0), BuildingBlock: UVAHIK_clean_linker_0, # of connection points: 2
#     Edge 53, Type (0, 0), BuildingBlock: UVAHIK_clean_linker_0, # of connection points: 2
#     Edge 54, Type (0, 0), BuildingBlock: UVAHIK_clean_linker_0, # of connection points: 2
#     Edge 55, Type (0, 0), BuildingBlock: UVAHIK_clean_linker_0, # of connection points: 2
#     Edge 56, Type (0, 0), BuildingBlock: UVAHIK_clean_linker_0, # of connection points: 2
#     Edge 57, Type (0, 0), BuildingBlock: UVAHIK_clean_linker_0, # of connection points: 2
#     Edge 58, Type (0, 0), BuildingBlock: UVAHIK_clean_linker_0, # of connection points: 2
#     Edge 59, Type (0, 0), BuildingBlock: UVAHIK_clean_linker_0, # of connection points: 2
#     Edge 60, Type (0, 0), BuildingBlock: UVAHIK_clean_linker_0, # of connection points: 2
#     Edge 61, Type (0, 0), BuildingBlock: UVAHIK_clean_linker_0, # of connection points: 2
#     Edge 62, Type (0, 0), BuildingBlock: UVAHIK_clean_linker_0, # of connection points: 2
#     Edge 63, Type (0, 0), BuildingBlock: UVAHIK_clean_linker_0, # of connection points: 2
#     Edge 64, Type (0, 0), BuildingBlock: UVAHIK_clean_linker_0, # of connection points: 2
#     Edge 65, Type (0, 0), BuildingBlock: UVAHIK_clean_linker_0, # of connection points: 2
#     Edge 66, Type (0, 0), BuildingBlock: UVAHIK_clean_linker_0, # of connection points: 2
#     Edge 67, Type (0, 0), BuildingBlock: UVAHIK_clean_linker_0, # of connection points: 2
#     Edge 68, Type (0, 0), BuildingBlock: UVAHIK_clean_linker_0, # of connection points: 2
#     Edge 69, Type (0, 0), BuildingBlock: UVAHIK_clean_linker_0, # of connection points: 2
#     Edge 70, Type (0, 0), BuildingBlock: UVAHIK_clean_linker_0, # of connection points: 2
#     Edge 71, Type (0, 0), BuildingBlock: UVAHIK_clean_linker_0, # of connection points: 2
#     Edge 72, Type (0, 0), BuildingBlock: UVAHIK_clean_linker_0, # of connection points: 2
#     Edge 73, Type (0, 0), BuildingBlock: UVAHIK_clean_linker_0, # of connection points: 2
#     Edge 74, Type (0, 0), BuildingBlock: UVAHIK_clean_linker_0, # of connection points: 2
#     Edge 75, Type (0, 0), BuildingBlock: UVAHIK_clean_linker_0, # of connection points: 2
#     Edge 76, Type (0, 0), BuildingBlock: UVAHIK_clean_linker_0, # of connection points: 2
#     Edge 77, Type (0, 0), BuildingBlock: UVAHIK_clean_linker_0, # of connection points: 2
#     Edge 78, Type (0, 0), BuildingBlock: UVAHIK_clean_linker_0, # of connection points: 2
#     Edge 79, Type (0, 0), BuildingBlock: UVAHIK_clean_linker_0, # of connection points: 2
#     Edge 80, Type (0, 0), BuildingBlock: UVAHIK_clean_linker_0, # of connection points: 2
#     Edge 81, Type (0, 0), BuildingBlock: UVAHIK_clean_linker_0, # of connection points: 2
#     Edge 82, Type (0, 0), BuildingBlock: UVAHIK_clean_linker_0, # of connection points: 2
#     Edge 83, Type (0, 0), BuildingBlock: UVAHIK_clean_linker_0, # of connection points: 2
#     Edge 84, Type (0, 0), BuildingBlock: UVAHIK_clean_linker_0, # of connection points: 2
#     Edge 85, Type (0, 0), BuildingBlock: UVAHIK_clean_linker_0, # of connection points: 2
#     Edge 86, Type (0, 0), BuildingBlock: UVAHIK_clean_linker_0, # of connection points: 2
#     Edge 87, Type (0, 0), BuildingBlock: UVAHIK_clean_linker_0, # of connection points: 2
#     Edge 88, Type (0, 0), BuildingBlock: UVAHIK_clean_linker_0, # of connection points: 2
#     Edge 89, Type (0, 0), BuildingBlock: UVAHIK_clean_linker_0, # of connection points: 2
#     Edge 90, Type (0, 0), BuildingBlock: UVAHIK_clean_linker_0, # of connection points: 2
#     Edge 91, Type (0, 0), BuildingBlock: UVAHIK_clean_linker_0, # of connection points: 2
#     Edge 92, Type (0, 0), BuildingBlock: UVAHIK_clean_linker_0, # of connection points: 2
#     Edge 93, Type (0, 0), BuildingBlock: UVAHIK_clean_linker_0, # of connection points: 2
#     Edge 94, Type (0, 0), BuildingBlock: UVAHIK_clean_linker_0, # of connection points: 2
#     Edge 95, Type (0, 0), BuildingBlock: UVAHIK_clean_linker_0, # of connection points: 2
# Relax obj value: 0.012
# Max RMSD: 0.099
# Mean RMSD: 0.097
data_MOF--net-vbb--node1-NAWXER_clean_sbu_0--edge1-UVAHIK_clean_linker_0
_symmetry_space_group_name_H-M    P1
_symmetry_Int_Tables_number       1
_symmetry_cell_setting            triclinic
loop_
_symmetry_equiv_pos_as_xyz
'x, y, z'
_cell_length_a     69.444384
_cell_length_b     29.488342
_cell_length_c     147.73251
_cell_angle_alpha  89.737846
_cell_angle_beta   90.101317
_cell_angle_gamma 90.040436
loop_
_atom_site_label
_atom_site_type_symbol
_atom_site_fract_x
_atom_site_fract_y
_atom_site_fract_z
_atom_type_partial_charge
C0 C 0.53944 0.0702 0.074 0.0
C1 C 0.47278 0.01105 0.07665 0.0
O2 O 0.52452 0.09354 0.07204 0.0
Zn3 Zn 0.50528 0.046 0.07509 0.0
O4 O 0.53757 0.02905 0.0766 0.0
Zn5 Zn 0.51668 0.97897 0.07917 0.0
O6 O 0.52218 0.93541 0.0694 0.0
O7 O 0.50994 1.00023 0.06445 0.0
O8 O 0.48646 0.98341 0.07844 0.0
O9 O 0.47682 0.05197 0.07452 0.0
O10 O 0.51043 0.03726 0.08912 0.0
O11 O 0.52093 0.96815 0.09219 0.0
C12 C 0.51622 0.96033 0.0629 0.0
C13 C 0.5163 0.00773 0.09488 0.0
C14 C 0.7392 0.16952 0.07136 0.0
C15 C 0.79771 0.25895 0.07813 0.0
O16 O 0.75617 0.15292 0.07129 0.0
Zn17 Zn 0.76948 0.20888 0.07516 0.0
O18 O 0.73651 0.21064 0.07372 0.0
Zn19 Zn 0.75167 0.26894 0.07791 0.0
O20 O 0.74492 0.30891 0.06765 0.0
O21 O 0.76371 0.25133 0.0639 0.0
O22 O 0.78167 0.27992 0.07888 0.0
O23 O 0.79763 0.21669 0.07632 0.0
O24 O 0.75928 0.21326 0.08855 0.0
O25 O 0.74259 0.27612 0.0905 0.0
C26 C 0.75449 0.28723 0.0617 0.0
C27 C 0.74931 0.23905 0.09366 0.0
C28 C 0.51178 0.19625 0.21881 0.0
C29 C 0.51645 0.1773 0.18643 0.0
O30 O 0.51682 0.23428 0.21519 0.0
Zn31 Zn 0.52273 0.25682 0.20114 0.0
O32 O 0.50889 0.16224 0.21379 0.0
Zn33 Zn 0.51421 0.19084 0.2026 0.0
O34 O 0.54546 0.20222 0.2035 0.0
O35 O 0.54903 0.2757 0.20145 0.0
O36 O 0.51148 0.15051 0.19271 0.0
O37 O 0.52093 0.21843 0.18842 0.0
O38 O 0.5053 0.30582 0.19947 0.0
O39 O 0.4905 0.24025 0.20099 0.0
C40 C 0.5565 0.23715 0.20286 0.0
C41 C 0.48973 0.28358 0.19989 0.0
C42 C 0.75543 0.14071 0.20581 0.0
C43 C 0.81177 0.0435 0.19929 0.0
O44 O 0.77267 0.15569 0.20544 0.0
Zn45 Zn 0.78461 0.09704 0.20209 0.0
O46 O 0.75193 0.09923 0.20397 0.0
Zn47 Zn 0.7656 0.03838 0.20017 0.0
O48 O 0.75844 1.0022 0.21089 0.0
O49 O 0.77863 0.05832 0.21391 0.0
O50 O 0.79537 0.02366 0.19896 0.0
O51 O 0.81242 0.08616 0.20064 0.0
O52 O 0.77339 0.09048 0.1889 0.0
O53 O 0.75512 0.0296 0.18784 0.0
C54 C 0.76868 0.02424 0.21655 0.0
C55 C 0.76236 0.06498 0.1842 0.0
C56 C 0.50762 0.00931 0.96783 0.0
C57 C 0.50168 0.96574 0.93575 0.0
O58 O 0.51716 0.97428 0.96544 0.0
Zn59 Zn 0.52298 0.93404 0.95393 0.0
O60 O 0.49775 0.03142 0.962 0.0
Zn61 Zn 0.50468 0.99365 0.95155 0.0
O62 O 0.49015 0.9338 0.95549 0.0
O63 O 0.51039 0.87664 0.9575 0.0
O64 O 0.49492 1.00224 0.93906 0.0
O65 O 0.51209 0.93975 0.94067 0.0
O66 O 0.55095 0.94295 0.95255 0.0
O67 O 0.53459 0.00617 0.95043 0.0
C68 C 0.49327 0.89238 0.95759 0.0
C69 C 0.55075 0.98548 0.95096 0.0
C70 C 0.23078 0.71153 0.94598 0.0
C71 C 0.29609 0.77747 0.94902 0.0
O72 O 0.24494 0.68547 0.94413 0.0
Zn73 Zn 0.27526 0.68441 0.94343 0.0
O74 O 0.23408 0.75264 0.94818 0.0
Zn75 Zn 0.26253 0.74991 0.94759 0.0
O76 O 0.26795 0.74349 0.93357 0.0
O77 O 0.27957 0.67576 0.93032 0.0
O78 O 0.28068 0.79893 0.95094 0.0
O79 O 0.2951 0.73652 0.94626 0.0
O80 O 0.28162 0.64066 0.95329 0.0
O81 O 0.26788 0.70362 0.9581 0.0
C82 C 0.27428 0.71522 0.92774 0.0
C83 C 0.27486 0.6644 0.95975 0.0
C84 C 0.50886 0.73321 0.81427 0.0
C85 C 0.50833 0.77908 0.84641 0.0
O86 O 0.51867 0.76847 0.81632 0.0
Zn87 Zn 0.52703 0.80874 0.82751 0.0
O88 O 0.50096 0.70987 0.82055 0.0
Zn89 Zn 0.50925 0.74931 0.83063 0.0
O90 O 0.49422 0.80902 0.82668 0.0
O91 O 0.51423 0.86603 0.82405 0.0
O92 O 0.50094 0.7426 0.84337 0.0
O93 O 0.51823 0.80426 0.8411 0.0
O94 O 0.55508 0.7997 0.82784 0.0
O95 O 0.53927 0.73661 0.83084 0.0
C96 C 0.49712 0.85025 0.82432 0.0
C97 C 0.55526 0.7574 0.82964 0.0
C98 C 0.25877 0.91563 0.83866 0.0
C99 C 0.25555 0.94838 0.80645 0.0
O100 O 0.25229 0.89259 0.83211 0.0
Zn101 Zn 0.25639 0.93591 0.82264 0.0
O102 O 0.26466 0.95633 0.83714 0.0
Zn103 Zn 0.26719 0.99955 0.82509 0.0
O104 O 0.25083 0.05041 0.82721 0.0
O105 O 0.23435 0.98819 0.8246 0.0
O106 O 0.26218 0.98294 0.81075 0.0
O107 O 0.25031 0.91361 0.81088 0.0
O108 O 0.2881 0.94259 0.82212 0.0
O109 O 0.29381 0.01443 0.8252 0.0
C110 C 0.23471 0.03099 0.82624 0.0
C111 C 0.30013 0.9753 0.82331 0.0
C112 C 0.51117 0.50703 0.56061 0.0
C113 C 0.5163 0.53061 0.59354 0.0
O114 O 0.52105 0.4822 0.56598 0.0
Zn115 Zn 0.51379 0.51341 0.57718 0.0
O116 O 0.50126 0.53993 0.56378 0.0
Zn117 Zn 0.49479 0.57241 0.57622 0.0
O118 O 0.50647 0.63268 0.57416 0.0
O119 O 0.52753 0.57651 0.57472 0.0
O120 O 0.50559 0.55886 0.5893 0.0
O121 O 0.52365 0.49731 0.58931 0.0
O122 O 0.48407 0.49803 0.57799 0.0
O123 O 0.46693 0.56082 0.5773 0.0
C124 C 0.52383 0.61871 0.57369 0.0
C125 C 0.46766 0.51773 0.57794 0.0
C126 C 0.76028 0.74679 0.56147 0.0
C127 C 0.7589 0.71582 0.59382 0.0
O128 O 0.75426 0.78165 0.56584 0.0
Zn129 Zn 0.74976 0.79879 0.58013 0.0
O130 O 0.76528 0.71155 0.56584 0.0
Zn131 Zn 0.76006 0.73403 0.57767 0.0
O132 O 0.72874 0.74127 0.57732 0.0
O133 O 0.72275 0.81291 0.58043 0.0
O134 O 0.76438 0.69137 0.58728 0.0
O135 O 0.75328 0.7566 0.5922 0.0
O136 O 0.76693 0.84925 0.5819 0.0
O137 O 0.78236 0.78549 0.57932 0.0
C138 C 0.71659 0.77356 0.57853 0.0
C139 C 0.78271 0.82838 0.58083 0.0
C140 C 0.51001 0.71194 0.7176 0.0
C141 C 0.51534 0.68604 0.68531 0.0
O142 O 0.51584 0.74825 0.71358 0.0
Zn143 Zn 0.5217 0.76793 0.69945 0.0
O144 O 0.50631 0.67704 0.71294 0.0
Zn145 Zn 0.51235 0.70235 0.70141 0.0
O146 O 0.54365 0.71248 0.70239 0.0
O147 O 0.54821 0.78529 0.69976 0.0
O148 O 0.50962 0.66053 0.69168 0.0
O149 O 0.52014 0.72716 0.68712 0.0
O150 O 0.50432 0.81719 0.69741 0.0
O151 O 0.48927 0.75223 0.69936 0.0
C152 C 0.55514 0.74649 0.70153 0.0
C153 C 0.48867 0.79533 0.69799 0.0
C154 C 0.75288 0.63049 0.70585 0.0
C155 C 0.81119 0.53827 0.70046 0.0
O156 O 0.76981 0.64718 0.70528 0.0
Zn157 Zn 0.78305 0.58918 0.70274 0.0
O158 O 0.75026 0.58806 0.7046 0.0
Zn159 Zn 0.76526 0.52768 0.70167 0.0
O160 O 0.75942 0.4939 0.71286 0.0
O161 O 0.7783 0.5534 0.71503 0.0
O162 O 0.79519 0.51674 0.70048 0.0
O163 O 0.81111 0.5813 0.7013 0.0
O164 O 0.77205 0.57625 0.68972 0.0
O165 O 0.75536 0.51252 0.68948 0.0
C166 C 0.76935 0.5188 0.71816 0.0
C167 C 0.76188 0.54741 0.68539 0.0
C168 C 0.51631 0.49969 0.46378 0.0
C169 C 0.51009 0.45062 0.43204 0.0
O170 O 0.52275 0.46017 0.46198 0.0
Zn171 Zn 0.52575 0.41424 0.45121 0.0
O172 O 0.50872 0.52378 0.45753 0.0
Zn173 Zn 0.51303 0.48026 0.44762 0.0
O174 O 0.49308 0.42913 0.45121 0.0
O175 O 0.5079 0.36557 0.45511 0.0
O176 O 0.506 0.49032 0.43483 0.0
O177 O 0.51738 0.42159 0.43752 0.0
O178 O 0.55414 0.40933 0.45046 0.0
O179 O 0.54347 0.47772 0.44706 0.0
C180 C 0.49237 0.38798 0.45393 0.0
C181 C 0.55758 0.4504 0.44824 0.0
C182 C 0.27828 0.20735 0.46307 0.0
C183 C 0.27481 0.26124 0.43136 0.0
O184 O 0.26853 0.24334 0.46164 0.0
Zn185 Zn 0.25998 0.28767 0.45123 0.0
O186 O 0.28645 0.187 0.45651 0.0
Zn187 Zn 0.27735 0.22896 0.44692 0.0
O188 O 0.29322 0.28708 0.45043 0.0
O189 O 0.27424 0.34282 0.45492 0.0
O190 O 0.28341 0.22506 0.43385 0.0
O191 O 0.26598 0.28507 0.43726 0.0
O192 O 0.23176 0.27923 0.45158 0.0
O193 O 0.2472 0.21747 0.44738 0.0
C194 C 0.29108 0.32739 0.45337 0.0
C195 C 0.23138 0.23763 0.44924 0.0
C196 C 0.49148 0.18205 0.31354 0.0
C197 C 0.50303 0.24718 0.34373 0.0
O198 O 0.49964 0.22085 0.31371 0.0
Zn199 Zn 0.51035 0.26982 0.32272 0.0
O200 O 0.48788 0.16099 0.3209 0.0
Zn201 Zn 0.49791 0.2088 0.32899 0.0
O202 O 0.4783 0.26188 0.32598 0.0
O203 O 0.49284 0.31977 0.31927 0.0
O204 O 0.49633 0.20759 0.34227 0.0
O205 O 0.50858 0.27155 0.33703 0.0
O206 O 0.53826 0.26806 0.32024 0.0
O207 O 0.52769 0.20451 0.32637 0.0
C208 C 0.47754 0.30129 0.32234 0.0
C209 C 0.54152 0.22783 0.32303 0.0
C210 C 0.27917 0.38917 0.31898 0.0
C211 C 0.22303 0.48664 0.32497 0.0
O212 O 0.283 0.42916 0.32172 0.0
Zn213 Zn 0.2694 0.48934 0.32588 0.0
O214 O 0.26174 0.37601 0.31827 0.0
Zn215 Zn 0.24999 0.43342 0.32227 0.0
O216 O 0.25805 0.47665 0.31152 0.0
O217 O 0.27846 0.52962 0.31603 0.0
O218 O 0.22226 0.44495 0.32274 0.0
O219 O 0.23946 0.50526 0.32633 0.0
O220 O 0.2778 0.49226 0.33868 0.0
O221 O 0.25822 0.43501 0.336 0.0
C222 C 0.26864 0.51099 0.30975 0.0
C223 C 0.26868 0.45748 0.34153 0.0
C224 C 1.01299 0.04167 0.59299 0.0
C225 C 1.0109 0.99462 0.56091 0.0
O226 O 0.01853 0.003 0.59016 0.0
Zn227 Zn 1.01291 0.01345 0.57721 0.0
O228 O 1.00647 0.07092 0.58733 0.0
Zn229 Zn 1.00107 0.08027 0.57334 0.0
O230 O 0.97274 0.08691 0.57325 0.0
O231 O 0.9824 0.01809 0.57706 0.0
O232 O 1.00463 0.03437 0.56263 0.0
O233 O 0.01778 0.97013 0.56728 0.0
O234 O 0.03355 0.06332 0.57437 0.0
O235 O 0.02018 0.12782 0.57006 0.0
C236 C 0.9687 0.04614 0.57549 0.0
C237 C 0.03521 0.10442 0.57175 0.0
C238 C 0.2485 0.22384 0.58881 0.0
C239 C 0.25464 0.2681 0.55665 0.0
O240 O 0.2423 0.26122 0.58555 0.0
Zn241 Zn 0.25126 0.25202 0.57297 0.0
O242 O 0.25798 0.19676 0.58377 0.0
Zn243 Zn 0.26804 0.18976 0.57041 0.0
O244 O 0.29636 0.1951 0.57171 0.0
O245 O 0.28128 0.25957 0.5742 0.0
O246 O 0.26306 0.23137 0.55899 0.0
O247 O 0.24565 0.29166 0.5625 0.0
O248 O 0.23504 0.19487 0.56915 0.0
O249 O 0.25351 0.13487 0.56684 0.0
C250 C 0.297 0.23725 0.57361 0.0
C251 C 0.23687 0.15326 0.56698 0.0
C252 C 0.03971 0.16293 0.70575 0.0
C253 C 0.98139 0.25562 0.70091 0.0
O254 O 0.02265 0.1486 0.7072 0.0
Zn255 Zn 1.00934 0.20441 0.70318 0.0
O256 O 0.04246 0.20269 0.70256 0.0
Zn257 Zn 0.0274 0.26112 0.69844 0.0
O258 O 0.03718 0.30399 0.7076 0.0
O259 O 0.01858 0.24986 0.71326 0.0
O260 O 0.99739 0.27468 0.69886 0.0
O261 O 0.98136 0.21439 0.70357 0.0
O262 O 0.01514 0.20473 0.68917 0.0
O263 O 0.03346 0.26284 0.68537 0.0
C264 C 0.02883 0.28538 0.71435 0.0
C265 C 0.02425 0.2272 0.68311 0.0
C266 C 0.23954 0.08936 0.70068 0.0
C267 C 0.30448 0.02412 0.69626 0.0
O268 O 0.25512 0.10999 0.70269 0.0
Zn269 Zn 0.27279 0.06163 0.69857 0.0
O270 O 0.24018 0.04934 0.69742 0.0
Zn271 Zn 0.25976 0.99798 0.69377 0.0
O272 O 0.25342 0.95136 0.70304 0.0
O273 O 0.26752 0.01236 0.70859 0.0
O274 O 0.29029 0.99833 0.69421 0.0
O275 O 0.30117 0.06448 0.69891 0.0
O276 O 0.26649 0.05987 0.68454 0.0
O277 O 0.25413 0.99376 0.68069 0.0
C278 C 0.26035 0.97288 0.70978 0.0
C279 C 0.25943 0.03375 0.67848 0.0
C280 C 1.01278 0.93215 0.43148 0.0
C281 C 0.01775 0.96864 0.46403 0.0
O282 O 0.02359 0.90603 0.43618 0.0
Zn283 Zn 0.03432 0.89783 0.44944 0.0
O284 O 1.00546 0.96718 0.43513 0.0
Zn285 Zn 0.01536 0.9565 0.44755 0.0
O286 O 0.04516 0.9716 0.44663 0.0
O287 O 0.0622 0.90911 0.44832 0.0
O288 O 1.00794 0.9916 0.45831 0.0
O289 O 0.02767 0.93471 0.46134 0.0
O290 O 0.02246 0.83851 0.45235 0.0
O291 O 1.00155 0.89465 0.45092 0.0
C292 C 0.06156 0.9519 0.44708 0.0
C293 C 1.00513 0.8529 0.45257 0.0
C294 C 0.76614 0.75015 0.46373 0.0
C295 C 0.76684 0.78986 0.43181 0.0
O296 O 0.76128 0.78648 0.45971 0.0
Zn297 Zn 0.76612 0.76671 0.44771 0.0
O298 O 0.77182 0.71608 0.45901 0.0
Zn299 Zn 0.77577 0.70268 0.44447 0.0
O300 O 0.80259 0.68723 0.44383 0.0
O301 O 0.79746 0.75798 0.4479 0.0
O302 O 0.77214 0.74835 0.43284 0.0
O303 O 0.76193 0.81234 0.43871 0.0
O304 O 0.74329 0.71663 0.44567 0.0
O305 O 0.75832 0.65334 0.44228 0.0
C306 C 0.80923 0.7254 0.44624 0.0
C307 C 0.74268 0.67422 0.4437 0.0
C308 C 0.99365 0.85681 0.31771 0.0
C309 C 0.05292 0.76933 0.32398 0.0
O310 O 0.99135 0.81488 0.31961 0.0
Zn311 Zn 1.00702 0.75645 0.3233 0.0
O312 O 1.01044 0.87443 0.3179 0.0
Zn313 Zn 0.02428 0.8182 0.32122 0.0
O314 O 0.01933 0.77855 0.30953 0.0
O315 O 1.00111 0.71884 0.31266 0.0
O316 O 0.05248 0.81199 0.32252 0.0
O317 O 0.03708 0.74724 0.32441 0.0
O318 O 0.99772 0.74505 0.33574 0.0
O319 O 1.01401 0.80903 0.33452 0.0
C320 C 1.01059 0.74265 0.30697 0.0
C321 C 1.00417 0.78128 0.33932 0.0
C322 C 0.72682 0.00563 0.32294 0.0
C323 C 0.79332 0.94524 0.322 0.0
O324 O 0.74019 0.03222 0.32563 0.0
Zn325 Zn 0.77016 0.03466 0.32782 0.0
O326 O 0.73095 0.9649 0.3208 0.0
Zn327 Zn 0.7592 0.96963 0.32254 0.0
O328 O 0.76221 0.97254 0.33678 0.0
O329 O 0.7723 0.04004 0.34111 0.0
O330 O 0.77857 0.923 0.31937 0.0
O331 O 0.79126 0.98526 0.32514 0.0
O332 O 0.77743 0.08174 0.31889 0.0
O333 O 0.76583 0.01913 0.31271 0.0
C334 C 0.76723 0.99965 0.34311 0.0
C335 C 0.77247 0.05931 0.31189 0.0
C336 C 0.96706 0.54481 0.07596 0.0
C337 C 0.02332 0.6403 0.06828 0.0
O338 O 0.9664 0.58727 0.07431 0.0
Zn339 Zn 0.99418 0.59752 0.07252 0.0
O340 O 0.98343 0.52489 0.07626 0.0
Zn341 Zn 1.01313 0.53877 0.07462 0.0
O342 O 0.02401 0.53098 0.08691 0.0
O343 O 1.00591 0.59209 0.08563 0.0
O344 O 0.02679 0.59899 0.07034 0.0
O345 O 1.00615 0.65555 0.0687 0.0
O346 O 0.99944 0.55726 0.06092 0.0
O347 O 0.01955 0.50113 0.06407 0.0
C348 C 0.01701 0.56684 0.09038 0.0
C349 C 1.00909 0.52264 0.05839 0.0
C350 C 0.28865 0.78321 0.0747 0.0
C351 C 0.22242 0.73371 0.07149 0.0
O352 O 0.2882 0.73977 0.0739 0.0
Zn353 Zn 0.26516 0.68923 0.07227 0.0
O354 O 0.27294 0.80487 0.07479 0.0
Zn355 Zn 0.25584 0.75485 0.07333 0.0
O356 O 0.25734 0.71758 0.08623 0.0
O357 O 0.26772 0.64984 0.08247 0.0
O358 O 0.22958 0.7726 0.07283 0.0
O359 O 0.2337 0.69914 0.07101 0.0
O360 O 0.27188 0.66098 0.06117 0.0
O361 O 0.26169 0.73121 0.05943 0.0
C362 C 0.2621 0.67696 0.08853 0.0
C363 C 0.26798 0.69401 0.05598 0.0
C364 C 0.04378 0.67751 0.202 0.0
C365 C 0.98319 0.76383 0.1976 0.0
O366 O 0.02708 0.66088 0.20346 0.0
Zn367 Zn 1.01238 0.71561 0.19984 0.0
O368 O 0.04554 0.71851 0.19931 0.0
Zn369 Zn 0.02904 0.77644 0.19606 0.0
O370 O 0.03709 0.81723 0.20595 0.0
O371 O 0.01956 0.75892 0.21059 0.0
O372 O 0.99886 0.78547 0.19612 0.0
O373 O 0.98398 0.72184 0.19969 0.0
O374 O 0.02006 0.72005 0.18602 0.0
O375 O 0.03564 0.78382 0.18313 0.0
C376 C 0.02873 0.79543 0.21231 0.0
C377 C 0.02881 0.74608 0.18042 0.0
C378 C 0.30781 0.52251 0.1977 0.0
C379 C 0.24433 0.59475 0.20251 0.0
O380 O 0.3053 0.56456 0.19931 0.0
Zn381 Zn 0.2769 0.56341 0.2 0.0
O382 O 0.2931 0.49663 0.1969 0.0
Zn383 Zn 0.26261 0.49825 0.19746 0.0
O384 O 0.25533 0.48478 0.18481 0.0
O385 O 0.26853 0.55241 0.18642 0.0
O386 O 0.24392 0.55272 0.20047 0.0
O387 O 0.26039 0.61557 0.20309 0.0
O388 O 0.27293 0.52181 0.2115 0.0
O389 O 0.25747 0.45866 0.20799 0.0
C390 C 0.26057 0.52257 0.18138 0.0
C391 C 0.2656 0.48384 0.21387 0.0
C392 C 1.00314 0.48017 0.93133 0.0
C393 C 1.00163 0.53893 0.96258 0.0
O394 O 1.00919 0.45306 0.9375 0.0
Zn395 Zn 1.01412 0.45007 0.95163 0.0
O396 O 0.9981 0.52032 0.93346 0.0
Zn397 Zn 1.00201 0.51461 0.94664 0.0
O398 O 0.03226 0.51353 0.94794 0.0
O399 O 0.0425 0.4463 0.95248 0.0
O400 O 0.99538 0.561 0.95573 0.0
O401 O 1.00855 0.49915 0.9616 0.0
O402 O 0.99566 0.40239 0.95539 0.0
O403 O 0.98172 0.46401 0.94988 0.0
C404 C 0.0461 0.48724 0.95022 0.0
C405 C 0.98045 0.42384 0.9531 0.0
C406 C 0.77055 0.28625 0.93498 0.0
C407 C 0.76535 0.23621 0.96682 0.0
O408 O 0.76034 0.31133 0.94013 0.0
Zn409 Zn 0.75011 0.31488 0.95353 0.0
O410 O 0.77743 0.24922 0.93808 0.0
Zn411 Zn 0.76808 0.25534 0.95064 0.0
O412 O 0.73805 0.24403 0.94956 0.0
O413 O 0.72206 0.30705 0.95233 0.0
O414 O 0.77501 0.21508 0.96083 0.0
O415 O 0.75598 0.27199 0.96469 0.0
O416 O 0.76316 0.37091 0.95753 0.0
O417 O 0.78303 0.31384 0.95486 0.0
C418 C 0.722 0.26498 0.95037 0.0
C419 C 0.78019 0.35474 0.95731 0.0
C420 C 0.0577 0.28914 0.82438 0.0
C421 C 0.99534 0.36537 0.81873 0.0
O422 O 0.0426 0.26504 0.82563 0.0
Zn423 Zn 1.01223 0.26931 0.82519 0.0
O424 O 0.05587 0.33084 0.82222 0.0
Zn425 Zn 0.02742 0.33237 0.82166 0.0
O426 O 0.0191 0.32676 0.83537 0.0
O427 O 1.00476 0.26123 0.83799 0.0
O428 O 1.01163 0.38493 0.81787 0.0
O429 O 0.99442 0.32413 0.82136 0.0
O430 O 1.00613 0.22685 0.81534 0.0
O431 O 0.02207 0.28786 0.81078 0.0
C432 C 1.01063 0.29959 0.84084 0.0
C433 C 1.01409 0.24983 0.80904 0.0
C434 C 0.73163 0.49616 0.82818 0.0
C435 C 0.79437 0.42067 0.82313 0.0
O436 O 0.74668 0.51953 0.82998 0.0
Zn437 Zn 0.77704 0.51491 0.83018 0.0
O438 O 0.73351 0.45498 0.82572 0.0
Zn439 Zn 0.762 0.45307 0.82567 0.0
O440 O 0.76933 0.45429 0.83958 0.0
O441 O 0.78323 0.51913 0.84319 0.0
O442 O 0.77816 0.40216 0.82139 0.0
O443 O 0.795 0.46077 0.82634 0.0
O444 O 0.78407 0.55995 0.82076 0.0
O445 O 0.76787 0.50108 0.81548 0.0
C446 C 0.77728 0.47981 0.8455 0.0
C447 C 0.77606 0.53931 0.81418 0.0
C448 C 0.5193 0.06856 0.10639 0.0
C449 C 0.51816 0.02197 0.10446 0.0
C450 C 0.51996 0.08389 0.11529 0.0
C451 C 0.52908 0.0488 0.13904 0.0
H452 H 0.50065 0.15896 0.14419 0.0
C453 C 0.51525 0.11333 0.17538 0.0
C454 C 0.51736 0.16009 0.17701 0.0
C455 C 0.51604 0.09617 0.16659 0.0
C456 C 0.50884 0.12849 0.14284 0.0
H457 H 0.51738 0.95477 0.11041 0.0
H458 H 0.51811 0.98172 0.12613 0.0
H459 H 0.50029 0.12797 0.12895 0.0
H460 H 0.52204 0.22545 0.17062 0.0
H461 H 0.52325 0.1954 0.15518 0.0
H462 H 0.53727 0.04913 0.15304 0.0
C463 C 0.51871 0.00636 0.12068 0.0
C464 C 0.50867 0.11062 0.1341 0.0
C465 C 0.51823 0.99085 0.11169 0.0
C466 C 0.52033 0.18932 0.1696 0.0
C467 C 0.52094 0.17211 0.16076 0.0
C468 C 0.52912 0.06654 0.14783 0.0
C469 C 0.51928 0.05322 0.12257 0.0
C470 C 0.51892 0.07075 0.13204 0.0
C471 C 0.51882 0.12529 0.15917 0.0
C472 C 0.51908 0.10674 0.14981 0.0
H473 H 0.51965 0.09354 0.10099 0.0
H474 H 0.52101 0.12006 0.11643 0.0
H475 H 0.53731 0.0184 0.1377 0.0
H476 H 0.51298 0.0897 0.18091 0.0
H477 H 0.51412 0.06007 0.1656 0.0
C478 C 0.75025 0.05014 0.16827 0.0
C479 C 0.75738 0.08 0.17487 0.0
C480 C 0.74636 0.06588 0.15945 0.0
C481 C 0.73657 0.17077 0.14624 0.0
H482 H 0.7592 0.10623 0.12613 0.0
C483 C 0.74557 0.25188 0.11046 0.0
C484 C 0.74522 0.22287 0.10296 0.0
C485 C 0.74445 0.23391 0.11928 0.0
C486 C 0.7524 0.12442 0.13161 0.0
H487 H 0.7653 0.15009 0.17744 0.0
H488 H 0.75839 0.17708 0.16226 0.0
H489 H 0.7612 0.07414 0.1413 0.0
H490 H 0.74199 0.15301 0.09873 0.0
H491 H 0.73913 0.12216 0.11391 0.0
H492 H 0.72775 0.2211 0.13659 0.0
C493 C 0.75586 0.14165 0.16382 0.0
C494 C 0.7536 0.10587 0.14033 0.0
C495 C 0.76001 0.12592 0.17252 0.0
C496 C 0.7426 0.17615 0.1044 0.0
C497 C 0.74114 0.15838 0.11314 0.0
C498 C 0.73518 0.18913 0.1375 0.0
C499 C 0.74914 0.1119 0.15715 0.0
C500 C 0.74596 0.12912 0.14777 0.0
C501 C 0.74266 0.18669 0.12074 0.0
C502 C 0.74327 0.16648 0.13005 0.0
H503 H 0.74804 0.01464 0.16988 0.0
H504 H 0.74114 0.04216 0.15444 0.0
H505 H 0.73039 0.18935 0.15183 0.0
H506 H 0.74768 0.28799 0.10953 0.0
H507 H 0.74578 0.25688 0.12494 0.0
C508 C 0.49719 0.76768 0.86261 0.0
C509 C 0.50471 0.79565 0.85574 0.0
C510 C 0.49402 0.7851 0.87134 0.0
C511 C 0.48695 0.89315 0.88367 0.0
H512 H 0.50757 0.8284 0.90438 0.0
C513 C 0.49799 0.97754 0.9189 0.0
C514 C 0.49668 0.94961 0.92658 0.0
C515 C 0.49634 0.9587 0.9102 0.0
C516 C 0.50135 0.84673 0.89872 0.0
H517 H 0.51437 0.86416 0.85265 0.0
H518 H 0.50877 0.89395 0.86766 0.0
H519 H 0.50896 0.79392 0.88946 0.0
H520 H 0.49119 0.88113 0.93129 0.0
H521 H 0.48741 0.84892 0.9163 0.0
H522 H 0.47935 0.94604 0.8929 0.0
C523 C 0.5053 0.85874 0.86637 0.0
C524 C 0.50219 0.82681 0.89015 0.0
C525 C 0.50868 0.84136 0.85776 0.0
C526 C 0.49252 0.90335 0.92546 0.0
C527 C 0.49055 0.88478 0.91684 0.0
C528 C 0.48593 0.91294 0.89227 0.0
C529 C 0.49798 0.83095 0.87328 0.0
C530 C 0.49525 0.85003 0.88251 0.0
C531 C 0.49308 0.91175 0.90907 0.0
C532 C 0.4933 0.89022 0.89991 0.0
H533 H 0.49392 0.73242 0.86127 0.0
H534 H 0.48834 0.76286 0.87654 0.0
H535 H 0.4813 0.91175 0.87791 0.0
H536 H 0.50134 0.01324 0.9196 0.0
H537 H 0.49847 0.9806 0.90439 0.0
C538 C 0.25607 0.84811 0.84899 0.0
C539 C 0.26031 0.89447 0.84779 0.0
C540 C 0.25822 0.8272 0.85745 0.0
C541 C 0.26022 0.8515 0.88186 0.0
H542 H 0.28413 0.73294 0.88378 0.0
C543 C 0.27909 0.77722 0.91657 0.0
C544 C 0.27575 0.73092 0.91822 0.0
C545 C 0.27821 0.79497 0.90782 0.0
C546 C 0.2772 0.76577 0.88336 0.0
H547 H 0.27006 0.95516 0.85465 0.0
H548 H 0.27364 0.9187 0.86947 0.0
H549 H 0.28034 0.76884 0.86892 0.0
H550 H 0.26961 0.66641 0.91191 0.0
H551 H 0.26763 0.69769 0.89647 0.0
H552 H 0.25673 0.84847 0.89621 0.0
C553 C 0.2686 0.89859 0.86382 0.0
C554 C 0.27507 0.78643 0.87484 0.0
C555 C 0.26659 0.91949 0.85532 0.0
C556 C 0.2723 0.7022 0.91083 0.0
C557 C 0.27117 0.72021 0.902 0.0
C558 C 0.26222 0.8308 0.89034 0.0
C559 C 0.26453 0.8521 0.86498 0.0
C560 C 0.26669 0.82974 0.874 0.0
C561 C 0.27366 0.76713 0.90042 0.0
C562 C 0.27094 0.78786 0.89125 0.0
H563 H 0.25122 0.82768 0.84335 0.0
H564 H 0.25472 0.79154 0.85812 0.0
H565 H 0.25334 0.88441 0.88145 0.0
H566 H 0.28211 0.80015 0.92211 0.0
H567 H 0.28087 0.83088 0.90688 0.0
C568 C 0.52233 0.58578 0.60582 0.0
C569 C 0.52078 0.54026 0.60313 0.0
C570 C 0.52458 0.59707 0.6149 0.0
C571 C 0.51221 0.55823 0.63745 0.0
H572 H 0.54667 0.65441 0.64508 0.0
C573 C 0.5145 0.62076 0.67452 0.0
C574 C 0.51705 0.66748 0.67602 0.0
C575 C 0.51654 0.60248 0.66586 0.0
C576 C 0.5368 0.62787 0.64306 0.0
H577 H 0.52081 0.47065 0.60784 0.0
H578 H 0.52434 0.49057 0.62396 0.0
H579 H 0.5485 0.62563 0.62966 0.0
H580 H 0.52359 0.73167 0.66952 0.0
H581 H 0.52663 0.70005 0.65434 0.0
H582 H 0.49995 0.56155 0.6507 0.0
C583 C 0.52395 0.5174 0.61893 0.0
C584 C 0.53797 0.61111 0.63423 0.0
C585 C 0.52206 0.50597 0.60973 0.0
C586 C 0.52159 0.69554 0.66861 0.0
C587 C 0.52348 0.67727 0.65991 0.0
C588 C 0.51091 0.57527 0.64626 0.0
C589 C 0.52506 0.56318 0.62159 0.0
C590 C 0.52551 0.57658 0.63129 0.0
C591 C 0.52104 0.63042 0.65842 0.0
C592 C 0.523 0.6108 0.64915 0.0
H593 H 0.52149 0.61295 0.60087 0.0
H594 H 0.52518 0.6326 0.61672 0.0
H595 H 0.50223 0.53208 0.63534 0.0
H596 H 0.51115 0.59799 0.68007 0.0
H597 H 0.51486 0.56622 0.66504 0.0
C598 C 0.75905 0.52656 0.66887 0.0
C599 C 0.75711 0.55826 0.67587 0.0
C600 C 0.75795 0.5408 0.65977 0.0
C601 C 0.7644 0.64625 0.6462 0.0
H602 H 0.74207 0.5774 0.62653 0.0
C603 C 0.75369 0.72383 0.6106 0.0
C604 C 0.75849 0.69665 0.60315 0.0
C605 C 0.75308 0.70529 0.61934 0.0
C606 C 0.7485 0.59686 0.63195 0.0
H607 H 0.75103 0.62855 0.67894 0.0
H608 H 0.74833 0.65282 0.66328 0.0
H609 H 0.74108 0.54681 0.64197 0.0
H610 H 0.76628 0.62843 0.59908 0.0
H611 H 0.76523 0.59632 0.61431 0.0
H612 H 0.77172 0.69633 0.63627 0.0
C613 C 0.75147 0.61749 0.66467 0.0
C614 C 0.74795 0.57928 0.6408 0.0
C615 C 0.75282 0.60349 0.67366 0.0
C616 C 0.76257 0.65045 0.60466 0.0
C617 C 0.76183 0.63188 0.61339 0.0
C618 C 0.76484 0.66384 0.63741 0.0
C619 C 0.75473 0.58684 0.65758 0.0
C620 C 0.75572 0.60402 0.64806 0.0
C621 C 0.75713 0.65907 0.62085 0.0
C622 C 0.75678 0.63961 0.63018 0.0
H623 H 0.76251 0.49155 0.6704 0.0
H624 H 0.76051 0.51624 0.65448 0.0
H625 H 0.77103 0.66579 0.65156 0.0
H626 H 0.75039 0.75945 0.60969 0.0
H627 H 0.74921 0.72711 0.62493 0.0
C628 C 0.50081 0.38957 0.4214 0.0
C629 C 0.50575 0.43531 0.42273 0.0
C630 C 0.49862 0.37212 0.41271 0.0
C631 C 0.51595 0.38812 0.3897 0.0
H632 H 0.47574 0.30212 0.38355 0.0
C633 C 0.50946 0.31283 0.35392 0.0
C634 C 0.50349 0.26748 0.35292 0.0
C635 C 0.50905 0.33397 0.36234 0.0
C636 C 0.48723 0.32556 0.38519 0.0
H637 H 0.51169 0.49911 0.416 0.0
H638 H 0.50815 0.46823 0.40062 0.0
H639 H 0.47499 0.34053 0.39815 0.0
H640 H 0.49261 0.20866 0.36012 0.0
H641 H 0.49235 0.24535 0.37497 0.0
H642 H 0.52855 0.37236 0.37691 0.0
C643 C 0.50593 0.44602 0.40638 0.0
C644 C 0.4867 0.34787 0.39353 0.0
C645 C 0.50783 0.46379 0.41516 0.0
C646 C 0.49732 0.24357 0.36064 0.0
C647 C 0.49702 0.26479 0.36914 0.0
C648 C 0.51657 0.36555 0.3814 0.0
C649 C 0.50154 0.3998 0.40509 0.0
C650 C 0.50111 0.37925 0.3959 0.0
C651 C 0.50282 0.31041 0.37008 0.0
C652 C 0.50225 0.33385 0.37903 0.0
H653 H 0.49897 0.36683 0.42712 0.0
H654 H 0.4954 0.33638 0.41197 0.0
H655 H 0.52746 0.41142 0.39139 0.0
H656 H 0.51418 0.33262 0.34814 0.0
H657 H 0.51327 0.36927 0.36272 0.0
C658 C 0.25771 0.40566 0.35386 0.0
C659 C 0.2702 0.4405 0.35101 0.0
C660 C 0.25931 0.38655 0.36246 0.0
C661 C 0.29221 0.36881 0.38177 0.0
H662 H 0.24448 0.34195 0.39429 0.0
C663 C 0.28754 0.26081 0.41524 0.0
C664 C 0.27502 0.27816 0.42185 0.0
C665 C 0.288 0.28003 0.40649 0.0
C666 C 0.25798 0.34932 0.39093 0.0
H667 H 0.29427 0.48254 0.3551 0.0
H668 H 0.29694 0.44916 0.37036 0.0
H669 H 0.24352 0.37998 0.37971 0.0
H670 H 0.25311 0.32918 0.42437 0.0
H671 H 0.25401 0.36208 0.40939 0.0
H672 H 0.3066 0.33859 0.39321 0.0
C673 C 0.28598 0.43658 0.36579 0.0
C674 C 0.25743 0.37088 0.38251 0.0
C675 C 0.28434 0.456 0.35709 0.0
C676 C 0.26294 0.31465 0.41949 0.0
C677 C 0.26336 0.33355 0.41084 0.0
C678 C 0.29277 0.34705 0.39026 0.0
C679 C 0.27341 0.40163 0.36857 0.0
C680 C 0.27448 0.3808 0.37778 0.0
C681 C 0.27583 0.3166 0.4042 0.0
C682 C 0.27562 0.33725 0.39495 0.0
H683 H 0.24666 0.39257 0.34939 0.0
H684 H 0.24958 0.35927 0.36428 0.0
H685 H 0.3056 0.37558 0.37827 0.0
H686 H 0.29712 0.23295 0.41685 0.0
H687 H 0.29771 0.26601 0.4015 0.0
C688 C 1.00255 0.09112 0.60565 0.0
C689 C 1.01412 0.05508 0.60265 0.0
C690 C 1.00437 0.10796 0.6144 0.0
C691 C 0.03773 0.11845 0.63357 0.0
H692 H 0.99109 0.14959 0.64653 0.0
C693 C 0.03635 0.22612 0.6669 0.0
C694 C 0.02394 0.2097 0.67368 0.0
C695 C 0.03611 0.20687 0.65819 0.0
C696 C 1.00429 0.14098 0.64304 0.0
H697 H 0.03662 0.00811 0.60658 0.0
H698 H 0.0398 0.03775 0.62208 0.0
H699 H 0.98881 0.11304 0.63186 0.0
H700 H 1.00152 0.16021 0.67656 0.0
H701 H 1.00118 0.12731 0.66162 0.0
H702 H 0.05315 0.1463 0.6449 0.0
C703 C 0.02936 0.05294 0.61754 0.0
C704 C 1.00297 0.12022 0.63459 0.0
C705 C 0.02741 0.03565 0.60872 0.0
C706 C 1.01128 0.174 0.67154 0.0
C707 C 1.01099 0.15511 0.66292 0.0
C708 C 0.03906 0.13951 0.64206 0.0
C709 C 0.01786 0.08944 0.62045 0.0
C710 C 0.01964 0.10883 0.62972 0.0
C711 C 0.02332 0.17123 0.65612 0.0
C712 C 0.02231 0.15088 0.6469 0.0
H713 H 0.99215 0.10695 0.60116 0.0
H714 H 0.99543 0.13637 0.61635 0.0
H715 H 0.05084 0.1105 0.62995 0.0
H716 H 0.04634 0.25338 0.66834 0.0
H717 H 0.04572 0.22022 0.65307 0.0
C718 C 0.24538 0.23878 0.60557 0.0
C719 C 0.24453 0.20893 0.59821 0.0
C720 C 0.24465 0.22179 0.61448 0.0
C721 C 0.23172 0.12004 0.62825 0.0
H722 H 0.27262 0.16053 0.64414 0.0
C723 C 0.25094 0.02563 0.66184 0.0
C724 C 0.25666 0.05257 0.6692 0.0
C725 C 0.24831 0.04514 0.65322 0.0
C726 C 0.2609 0.14918 0.63987 0.0
H727 H 0.24104 0.13855 0.59434 0.0
H728 H 0.23944 0.10933 0.60973 0.0
H729 H 0.26843 0.19655 0.62942 0.0
H730 H 0.26357 0.1215 0.67325 0.0
H731 H 0.25859 0.15502 0.6585 0.0
H732 H 0.22416 0.07266 0.6387 0.0
C733 C 0.2408 0.1456 0.60872 0.0
C734 C 0.25849 0.17002 0.63142 0.0
C735 C 0.24183 0.16238 0.59989 0.0
C736 C 0.25943 0.09934 0.66774 0.0
C737 C 0.25667 0.11873 0.65922 0.0
C738 C 0.23403 0.0994 0.63675 0.0
C739 C 0.24268 0.17484 0.61614 0.0
C740 C 0.24397 0.15553 0.62547 0.0
C741 C 0.25122 0.09204 0.6518 0.0
C742 C 0.24872 0.11353 0.64267 0.0
H743 H 0.24756 0.27475 0.60446 0.0
H744 H 0.24599 0.24523 0.62007 0.0
H745 H 0.22032 0.10822 0.62383 0.0
H746 H 0.24864 0.98956 0.66273 0.0
H747 H 0.24427 0.02336 0.64765 0.0
C748 C 0.99979 0.84005 0.35117 0.0
C749 C 1.00017 0.79382 0.34885 0.0
C750 C 0.99796 0.85354 0.36016 0.0
C751 C 1.00934 0.81546 0.38301 0.0
H752 H 0.97839 0.91827 0.39043 0.0
C753 C 1.00828 0.87124 0.42012 0.0
C754 C 1.00799 0.9178 0.42212 0.0
C755 C 1.00507 0.85588 0.41134 0.0
C756 C 0.98729 0.88986 0.38846 0.0
H757 H 0.99831 0.72543 0.35415 0.0
H758 H 0.99543 0.74908 0.37005 0.0
H759 H 0.97608 0.89022 0.37492 0.0
H760 H 1.00345 0.98482 0.4165 0.0
H761 H 0.99844 0.95809 0.40093 0.0
H762 H 0.02118 0.81587 0.39635 0.0
C763 C 0.99651 0.77482 0.36482 0.0
C764 C 0.98586 0.87357 0.37958 0.0
C765 C 0.99804 0.76124 0.35573 0.0
C766 C 1.0038 0.94877 0.41515 0.0
C767 C 1.00086 0.93332 0.40624 0.0
C768 C 1.01093 0.83199 0.39184 0.0
C769 C 0.9967 0.82119 0.36713 0.0
C770 C 0.99691 0.83624 0.37675 0.0
C771 C 1.00178 0.88659 0.4042 0.0
C772 C 0.99994 0.86943 0.39472 0.0
H773 H 1.00125 0.86606 0.34601 0.0
H774 H 0.99834 0.88942 0.36169 0.0
H775 H 0.01836 0.78731 0.381 0.0
H776 H 1.01104 0.84632 0.42537 0.0
H777 H 1.00526 0.81967 0.41016 0.0
C778 C 0.7693 0.78718 0.41479 0.0
C779 C 0.7669 0.81227 0.42278 0.0
C780 C 0.7693 0.80898 0.40633 0.0
C781 C 0.7774 0.91997 0.39526 0.0
H782 H 0.74724 0.86874 0.37573 0.0
C783 C 0.76835 0.0101 0.36015 0.0
C784 C 0.76775 0.98173 0.35253 0.0
C785 C 0.76813 0.99138 0.36893 0.0
C786 C 0.75598 0.88331 0.38105 0.0
H787 H 0.76286 0.88012 0.4281 0.0
H788 H 0.76304 0.91785 0.4134 0.0
H789 H 0.74768 0.83129 0.39044 0.0
H790 H 0.76734 0.91142 0.34821 0.0
H791 H 0.76754 0.87937 0.36327 0.0
H792 H 0.78604 0.97154 0.38582 0.0
C793 C 0.76492 0.88141 0.41366 0.0
C794 C 0.75618 0.86176 0.3895 0.0
C795 C 0.76469 0.85963 0.42209 0.0
C796 C 0.76745 0.93449 0.3539 0.0
C797 C 0.76744 0.91595 0.36259 0.0
C798 C 0.77738 0.94134 0.38675 0.0
C799 C 0.76715 0.85638 0.40567 0.0
C800 C 0.76697 0.87963 0.39669 0.0
C801 C 0.76748 0.94395 0.37025 0.0
C802 C 0.7668 0.92305 0.3795 0.0
H803 H 0.77108 0.75072 0.41507 0.0
H804 H 0.7712 0.78877 0.40029 0.0
H805 H 0.78595 0.93448 0.40066 0.0
H806 H 0.76861 0.0466 0.35933 0.0
H807 H 0.76811 0.01409 0.37467 0.0
C808 C 0.03239 0.75788 0.16352 0.0
C809 C 0.03177 0.72906 0.1711 0.0
C810 C 0.03334 0.73958 0.15475 0.0
C811 C 0.02353 0.63106 0.14257 0.0
H812 H 0.04965 0.69087 0.12268 0.0
C813 C 0.02781 0.55252 0.10654 0.0
C814 C 0.02219 0.5825 0.0996 0.0
C815 C 0.03132 0.56885 0.11532 0.0
C816 C 0.04231 0.67374 0.12818 0.0
H817 H 0.03304 0.65883 0.1755 0.0
H818 H 0.03542 0.6274 0.16043 0.0
H819 H 0.05128 0.72358 0.13783 0.0
H820 H 0.01674 0.65326 0.09635 0.0
H821 H 0.02301 0.6813 0.11148 0.0
H822 H 0.01458 0.58127 0.1329 0.0
C823 C 0.03432 0.66386 0.1611 0.0
C824 C 0.04312 0.69267 0.13686 0.0
C825 C 0.03308 0.68198 0.16978 0.0
C826 C 0.02085 0.62908 0.10155 0.0
C827 C 0.02463 0.64534 0.11022 0.0
C828 C 0.02289 0.61194 0.13392 0.0
C829 C 0.03396 0.69217 0.15343 0.0
C830 C 0.0336 0.6718 0.14417 0.0
C831 C 0.02966 0.61549 0.11725 0.0
C832 C 0.03207 0.6333 0.1266 0.0
H833 H 0.0314 0.79428 0.16434 0.0
H834 H 0.03294 0.76255 0.14901 0.0
H835 H 0.01564 0.61434 0.14795 0.0
H836 H 0.02898 0.51652 0.10524 0.0
H837 H 0.03525 0.54504 0.12061 0.0
C838 C 0.25809 0.50226 0.16479 0.0
C839 C 0.25725 0.5345 0.17175 0.0
C840 C 0.25733 0.5162 0.15567 0.0
C841 C 0.2656 0.61976 0.14158 0.0
H842 H 0.2411 0.55054 0.12254 0.0
C843 C 0.25639 0.6907 0.10517 0.0
C844 C 0.26073 0.66086 0.09807 0.0
C845 C 0.25519 0.67474 0.11412 0.0
C846 C 0.24811 0.57013 0.12779 0.0
H847 H 0.25354 0.60598 0.17465 0.0
H848 H 0.25153 0.62982 0.15896 0.0
H849 H 0.24007 0.52256 0.13814 0.0
H850 H 0.26701 0.59062 0.09484 0.0
H851 H 0.2649 0.5631 0.11036 0.0
H852 H 0.27353 0.66742 0.13126 0.0
C853 C 0.25359 0.59412 0.16041 0.0
C854 C 0.24757 0.554 0.13673 0.0
C855 C 0.2546 0.58036 0.16944 0.0
C856 C 0.26367 0.61469 0.10013 0.0
C857 C 0.26232 0.59873 0.10903 0.0
C858 C 0.26601 0.63599 0.13268 0.0
C859 C 0.25551 0.56255 0.15338 0.0
C860 C 0.25624 0.57873 0.14377 0.0
C861 C 0.25813 0.62852 0.11615 0.0
C862 C 0.25727 0.61146 0.12566 0.0
H863 H 0.26018 0.46671 0.16638 0.0
H864 H 0.25887 0.49088 0.15044 0.0
H865 H 0.27289 0.63929 0.14675 0.0
H866 H 0.25399 0.72639 0.10383 0.0
H867 H 0.25178 0.69854 0.11944 0.0
C868 C 1.00795 0.36217 0.85204 0.0
C869 C 1.00714 0.31537 0.85023 0.0
C870 C 1.00542 0.37856 0.86079 0.0
C871 C 1.01102 0.34673 0.88453 0.0
H872 H 0.98092 0.45518 0.88897 0.0
C873 C 1.00136 0.4154 0.92058 0.0
C874 C 1.0015 0.4626 0.92195 0.0
C875 C 1.00054 0.39727 0.91189 0.0
C876 C 0.98959 0.42523 0.88784 0.0
H877 H 1.00269 0.24908 0.85624 0.0
H878 H 0.99855 0.27789 0.87173 0.0
H879 H 0.9816 0.42231 0.87383 0.0
H880 H 1.00049 0.52782 0.91518 0.0
H881 H 0.9996 0.49612 0.89986 0.0
H882 H 0.01955 0.35018 0.89841 0.0
C883 C 1.00114 0.30176 0.86627 0.0
C884 C 0.98987 0.4062 0.87917 0.0
C885 C 1.00342 0.28527 0.85742 0.0
C886 C 1.00042 0.49135 0.91436 0.0
C887 C 0.99982 0.47308 0.90558 0.0
C888 C 1.01089 0.36594 0.89317 0.0
C889 C 1.00217 0.34866 0.86804 0.0
C890 C 1.00066 0.36683 0.8774 0.0
C891 C 1.00008 0.42569 0.90424 0.0
C892 C 1.00019 0.40553 0.89497 0.0
H893 H 1.01062 0.38647 0.84666 0.0
H894 H 1.00652 0.41474 0.86192 0.0
H895 H 0.01975 0.31691 0.88336 0.0
H896 H 1.00183 0.39211 0.92627 0.0
H897 H 1.00021 0.36074 0.9112 0.0
C898 C 0.77368 0.35022 0.92403 0.0
C899 C 0.77487 0.30329 0.92573 0.0
C900 C 0.77671 0.36779 0.91538 0.0
C901 C 0.77267 0.3384 0.89155 0.0
H902 H 0.80148 0.4496 0.88769 0.0
C903 C 0.78105 0.41364 0.85585 0.0
C904 C 0.78015 0.46098 0.85473 0.0
C905 C 0.78252 0.39411 0.86443 0.0
C906 C 0.79319 0.41886 0.88865 0.0
H907 H 0.78061 0.23804 0.91965 0.0
H908 H 0.78559 0.2689 0.90431 0.0
H909 H 0.80082 0.41457 0.9027 0.0
H910 H 0.78064 0.5251 0.86179 0.0
H911 H 0.78261 0.49092 0.87695 0.0
H912 H 0.76438 0.34325 0.87765 0.0
C913 C 0.78233 0.29195 0.90978 0.0
C914 C 0.79293 0.39859 0.89725 0.0
C915 C 0.77957 0.27429 0.91855 0.0
C916 C 0.7813 0.48854 0.86244 0.0
C917 C 0.78251 0.46884 0.87112 0.0
C918 C 0.77277 0.35885 0.88298 0.0
C919 C 0.78084 0.33896 0.90811 0.0
C920 C 0.78256 0.35826 0.89881 0.0
C921 C 0.78284 0.42123 0.87222 0.0
C922 C 0.78298 0.39947 0.8814 0.0
H923 H 0.77027 0.37367 0.92942 0.0
H924 H 0.77524 0.404 0.91432 0.0
H925 H 0.76426 0.30784 0.89256 0.0
H926 H 0.78059 0.39137 0.85004 0.0
H927 H 0.78335 0.35752 0.86493 0.0
C928 C 0.30714 0.85629 0.07476 0.0
C929 C 0.30713 0.80857 0.07526 0.0
C930 C 0.32437 0.88079 0.07514 0.0
C931 C 0.37451 0.87313 0.08304 0.0
H932 H 0.384 0.97173 0.06613 0.0
C933 C 0.45002 0.94622 0.07832 0.0
C934 C 0.45275 0.99297 0.07681 0.0
C935 C 0.43168 0.92722 0.07843 0.0
C936 C 0.38146 0.94485 0.07101 0.0
H937 H 0.32538 0.74931 0.07657 0.0
H938 H 0.35554 0.79222 0.07732 0.0
H939 H 0.35336 0.93082 0.06564 0.0
H940 H 0.43799 0.05636 0.07415 0.0
H941 H 0.4055 0.02294 0.07448 0.0
H942 H 0.40241 0.88708 0.08847 0.0
C943 C 0.34211 0.81059 0.07665 0.0
C944 C 0.36393 0.92123 0.0707 0.0
C945 C 0.32484 0.78597 0.07618 0.0
C946 C 0.43643 0.0203 0.07536 0.0
C947 C 0.41784 1.00108 0.07551 0.0
C948 C 0.39191 0.8969 0.0834 0.0
C949 C 0.34207 0.85832 0.07611 0.0
C950 C 0.36039 0.8846 0.07662 0.0
C951 C 0.41528 0.95421 0.07711 0.0
C952 C 0.39582 0.9325 0.07727 0.0
H953 H 0.29379 0.87493 0.07403 0.0
H954 H 0.32379 0.91747 0.0748 0.0
H955 H 0.37208 0.8458 0.08782 0.0
H956 H 0.46215 0.92369 0.07936 0.0
H957 H 0.43043 0.89093 0.07943 0.0
C958 C 0.81458 0.33324 0.0799 0.0
C959 C 0.8158 0.28591 0.07877 0.0
C960 C 0.83105 0.36028 0.07989 0.0
C961 C 0.8832 0.36024 0.0836 0.0
H962 H 0.88185 0.47035 0.06913 0.0
C963 C 0.9511 0.46931 0.07781 0.0
C964 C 0.94937 0.51675 0.07703 0.0
C965 C 0.93484 0.44159 0.07832 0.0
C966 C 0.88241 0.44021 0.07334 0.0
H967 H 0.83562 0.22995 0.07697 0.0
H968 H 0.86471 0.2776 0.07709 0.0
H969 H 0.85402 0.42001 0.06935 0.0
H970 H 0.92895 0.57216 0.07634 0.0
H971 H 0.90038 0.5237 0.07748 0.0
H972 H 0.91141 0.38071 0.08776 0.0
C973 C 0.85077 0.29348 0.07794 0.0
C974 C 0.86647 0.41113 0.07341 0.0
C975 C 0.83414 0.26621 0.07786 0.0
C976 C 0.93083 0.53581 0.07692 0.0
C977 C 0.91445 0.5079 0.07751 0.0
C978 C 0.89909 0.38955 0.08361 0.0
C979 C 0.84934 0.34095 0.07882 0.0
C980 C 0.86666 0.3708 0.07854 0.0
C981 C 0.91625 0.4603 0.07816 0.0
C982 C 0.89897 0.42993 0.07845 0.0
H983 H 0.80077 0.34987 0.08065 0.0
H984 H 0.82945 0.39656 0.08073 0.0
H985 H 0.88369 0.32978 0.08772 0.0
H986 H 0.9651 0.45317 0.07785 0.0
H987 H 0.93693 0.40523 0.07863 0.0
C988 C 0.45339 0.28538 0.19872 0.0
C989 C 0.47109 0.30836 0.19933 0.0
C990 C 0.43604 0.3097 0.19821 0.0
C991 C 0.41458 0.42145 0.20353 0.0
H992 H 0.37528 0.38624 0.18629 0.0
C993 C 0.34431 0.52667 0.19836 0.0
C994 C 0.32728 0.50155 0.19715 0.0
C995 C 0.36235 0.50499 0.19821 0.0
C996 C 0.38598 0.39635 0.19122 0.0
H997 H 0.4843 0.3751 0.19992 0.0
H998 H 0.45423 0.417 0.19909 0.0
H999 H 0.40518 0.3433 0.18718 0.0
H1000 H 0.31606 0.43376 0.1948 0.0
H1001 H 0.34699 0.39657 0.19474 0.0
H1002 H 0.39526 0.47396 0.2077 0.0
C1003 C 0.45369 0.38029 0.19904 0.0
C1004 C 0.40315 0.37161 0.19173 0.0
C1005 C 0.47097 0.35612 0.19945 0.0
C1006 C 0.32879 0.45451 0.19571 0.0
C1007 C 0.34666 0.433 0.1956 0.0
C1008 C 0.39732 0.446 0.20308 0.0
C1009 C 0.43599 0.35749 0.1984 0.0
C1010 C 0.41764 0.3837 0.19791 0.0
C1011 C 0.36374 0.45774 0.19686 0.0
C1012 C 0.3827 0.4336 0.19697 0.0
H1013 H 0.45295 0.24867 0.19861 0.0
H1014 H 0.42262 0.29108 0.1978 0.0
H1015 H 0.42538 0.43148 0.20842 0.0
H1016 H 0.34369 0.5629 0.19948 0.0
H1017 H 0.3752 0.52528 0.19912 0.0
C1018 C 0.82786 0.96768 0.19844 0.0
C1019 C 0.8295 0.01531 0.1986 0.0
C1020 C 0.84418 0.94008 0.19815 0.0
C1021 C 0.89533 0.93866 0.1918 0.0
H1022 H 0.89784 0.83285 0.20747 0.0
C1023 C 0.96543 0.83711 0.19607 0.0
C1024 C 0.96477 0.78973 0.19728 0.0
C1025 C 0.94865 0.86306 0.19601 0.0
C1026 C 0.89728 0.86177 0.20294 0.0
H1027 H 0.84983 0.07107 0.19849 0.0
H1028 H 0.87853 0.02259 0.19787 0.0
H1029 H 0.86961 0.88207 0.20789 0.0
H1030 H 0.94564 0.73261 0.19937 0.0
H1031 H 0.91603 0.77806 0.19907 0.0
H1032 H 0.92277 0.91824 0.18672 0.0
C1033 C 0.86444 0.00681 0.19797 0.0
C1034 C 0.88112 0.89019 0.20322 0.0
C1035 C 0.84802 0.0346 0.19835 0.0
C1036 C 0.94669 0.76895 0.19841 0.0
C1037 C 0.92974 0.79513 0.19829 0.0
C1038 C 0.91141 0.91007 0.19146 0.0
C1039 C 0.86269 0.95916 0.19795 0.0
C1040 C 0.87999 0.92916 0.19769 0.0
C1041 C 0.93051 0.84264 0.19709 0.0
C1042 C 0.91274 0.87141 0.19709 0.0
H1043 H 0.81388 0.95139 0.19862 0.0
H1044 H 0.84227 0.90363 0.19801 0.0
H1045 H 0.89479 0.96789 0.18734 0.0
H1046 H 0.97903 0.85465 0.19527 0.0
H1047 H 0.95001 0.89948 0.1953 0.0
C1048 C 0.70493 0.19115 0.94823 0.0
C1049 C 0.70387 0.23836 0.94954 0.0
C1050 C 0.68832 0.16454 0.94798 0.0
C1051 C 0.6369 0.16423 0.95476 0.0
H1052 H 0.63477 0.05828 0.9393 0.0
C1053 C 0.56744 0.06038 0.94977 0.0
C1054 C 0.56873 0.01275 0.95022 0.0
C1055 C 0.58395 0.0873 0.94952 0.0
C1056 C 0.63524 0.08746 0.94372 0.0
H1057 H 0.68426 0.29459 0.95145 0.0
H1058 H 0.65503 0.24811 0.95078 0.0
H1059 H 0.66278 0.10815 0.93873 0.0
H1060 H 0.58863 0.95619 0.95061 0.0
H1061 H 0.61772 0.00361 0.95002 0.0
H1062 H 0.60914 0.14379 0.9596 0.0
C1063 C 0.66887 0.2316 0.95012 0.0
C1064 C 0.65131 0.11617 0.94341 0.0
C1065 C 0.68561 0.25838 0.95044 0.0
C1066 C 0.5871 0.9927 0.95025 0.0
C1067 C 0.60374 0.01985 0.9499 0.0
C1068 C 0.62076 0.13576 0.955 0.0
C1069 C 0.67003 0.1842 0.94895 0.0
C1070 C 0.65243 0.15487 0.94896 0.0
C1071 C 0.60231 0.06752 0.94963 0.0
C1072 C 0.61975 0.09698 0.9495 0.0
H1073 H 0.7187 0.17426 0.94757 0.0
H1074 H 0.68994 0.12823 0.94725 0.0
H1075 H 0.63733 0.19308 0.95926 0.0
H1076 H 0.55359 0.07724 0.94973 0.0
H1077 H 0.58233 0.12381 0.94917 0.0
C1078 C 0.19478 0.71536 0.94885 0.0
C1079 C 0.21114 0.69129 0.94601 0.0
C1080 C 0.17677 0.69363 0.94937 0.0
C1081 C 0.15081 0.58914 0.94164 0.0
H1082 H 0.11679 0.61521 0.96171 0.0
C1083 C 0.08245 0.48133 0.94941 0.0
C1084 C 0.06569 0.50715 0.95069 0.0
C1085 C 0.10058 0.50264 0.94921 0.0
C1086 C 0.12615 0.6076 0.95605 0.0
H1087 H 0.22118 0.62549 0.94139 0.0
H1088 H 0.19041 0.58818 0.9425 0.0
H1089 H 0.14697 0.65705 0.96017 0.0
H1090 H 0.05489 0.57503 0.95319 0.0
H1091 H 0.08618 0.61153 0.95295 0.0
H1092 H 0.13003 0.53931 0.93761 0.0
C1093 C 0.19116 0.62387 0.94415 0.0
C1094 C 0.14338 0.63189 0.95513 0.0
C1095 C 0.20897 0.64544 0.94358 0.0
C1096 C 0.06749 0.55414 0.9521 0.0
C1097 C 0.08547 0.57513 0.95204 0.0
C1098 C 0.13368 0.56459 0.94262 0.0
C1099 C 0.17478 0.64742 0.94708 0.0
C1100 C 0.15597 0.62302 0.9479 0.0
C1101 C 0.10223 0.54988 0.95048 0.0
C1102 C 0.12111 0.57363 0.94982 0.0
H1103 H 0.19593 0.75064 0.95078 0.0
H1104 H 0.16441 0.71304 0.95157 0.0
H1105 H 0.15991 0.58182 0.93589 0.0
H1106 H 0.0815 0.44511 0.94831 0.0
H1107 H 0.1133 0.48226 0.94805 0.0
C1108 C 0.57257 0.68306 0.83054 0.0
C1109 C 0.57344 0.73067 0.82986 0.0
C1110 C 0.58929 0.65679 0.83034 0.0
C1111 C 0.64086 0.66109 0.8236 0.0
H1112 H 0.64419 0.5508 0.83795 0.0
C1113 C 0.71223 0.56707 0.82937 0.0
C1114 C 0.71264 0.51955 0.82844 0.0
C1115 C 0.69488 0.59078 0.82933 0.0
C1116 C 0.64337 0.58118 0.83382 0.0
H1117 H 0.59282 0.78791 0.82857 0.0
H1118 H 0.62219 0.7421 0.82848 0.0
H1119 H 0.61526 0.59761 0.83872 0.0
H1120 H 0.69483 0.45974 0.82686 0.0
H1121 H 0.66414 0.50159 0.82696 0.0
H1122 H 0.66922 0.64511 0.8189 0.0
C1123 C 0.60844 0.72498 0.82897 0.0
C1124 C 0.62678 0.60814 0.83425 0.0
C1125 C 0.5916 0.75138 0.82909 0.0
C1126 C 0.69504 0.49626 0.82759 0.0
C1127 C 0.6775 0.5202 0.82767 0.0
C1128 C 0.65749 0.63438 0.82324 0.0
C1129 C 0.6075 0.67722 0.82954 0.0
C1130 C 0.62529 0.64862 0.82916 0.0
C1131 C 0.6773 0.56784 0.82844 0.0
C1132 C 0.659 0.59425 0.82839 0.0
H1133 H 0.55886 0.66572 0.83106 0.0
H1134 H 0.58783 0.62026 0.83062 0.0
H1135 H 0.64017 0.69131 0.81942 0.0
H1136 H 0.72542 0.58642 0.83002 0.0
H1137 H 0.69524 0.62731 0.83008 0.0
C1138 C 0.07744 0.21906 0.82631 0.0
C1139 C 0.0768 0.26642 0.8251 0.0
C1140 C 0.09494 0.19606 0.82681 0.0
C1141 C 0.1468 0.20564 0.8212 0.0
H1142 H 0.15037 0.10024 0.83694 0.0
C1143 C 0.21785 0.10608 0.8269 0.0
C1144 C 0.21675 0.05841 0.82661 0.0
C1145 C 0.20116 0.13258 0.82694 0.0
C1146 C 0.14956 0.12934 0.83246 0.0
H1147 H 0.09433 0.32668 0.82347 0.0
H1148 H 0.12519 0.28637 0.82454 0.0
H1149 H 0.12122 0.14606 0.83695 0.0
H1150 H 0.19709 1.00134 0.82624 0.0
H1151 H 0.16784 0.04775 0.82644 0.0
H1152 H 0.17537 0.18895 0.81683 0.0
C1153 C 0.11196 0.26704 0.82498 0.0
C1154 C 0.13282 0.1557 0.83244 0.0
C1155 C 0.09429 0.29025 0.82442 0.0
C1156 C 0.19847 0.0379 0.82647 0.0
C1157 C 0.18172 0.0645 0.82662 0.0
C1158 C 0.16366 0.17946 0.82129 0.0
C1159 C 0.11249 0.21955 0.82621 0.0
C1160 C 0.13105 0.19385 0.82671 0.0
C1161 C 0.18288 0.11219 0.8268 0.0
C1162 C 0.16514 0.14067 0.82684 0.0
H1163 H 0.06434 0.19924 0.82677 0.0
H1164 H 0.09462 0.1595 0.82751 0.0
H1165 H 0.14595 0.23434 0.81662 0.0
H1166 H 0.23166 0.12316 0.827 0.0
H1167 H 0.20257 0.16914 0.82719 0.0
C1168 C 0.45184 0.44152 0.57776 0.0
C1169 C 0.45001 0.48906 0.57817 0.0
C1170 C 0.43563 0.41355 0.5776 0.0
C1171 C 0.38428 0.40871 0.58347 0.0
H1172 H 0.38283 0.30897 0.56644 0.0
C1173 C 0.31468 0.30932 0.57664 0.0
C1174 C 0.3154 0.2625 0.57482 0.0
C1175 C 0.33145 0.33494 0.57743 0.0
C1176 C 0.3831 0.33612 0.57135 0.0
H1177 H 0.42949 0.54425 0.57882 0.0
H1178 H 0.40096 0.49502 0.57863 0.0
H1179 H 0.41089 0.35877 0.56693 0.0
H1180 H 0.33464 0.20595 0.57251 0.0
H1181 H 0.36426 0.25088 0.57406 0.0
H1182 H 0.35667 0.38596 0.58798 0.0
C1183 C 0.41511 0.47963 0.57844 0.0
C1184 C 0.39917 0.36488 0.5716 0.0
C1185 C 0.43143 0.50785 0.57852 0.0
C1186 C 0.33354 0.24186 0.57392 0.0
C1187 C 0.35049 0.26773 0.57475 0.0
C1188 C 0.3683 0.37977 0.58328 0.0
C1189 C 0.41705 0.43213 0.5779 0.0
C1190 C 0.39989 0.40173 0.57762 0.0
C1191 C 0.34963 0.31472 0.5765 0.0
C1192 C 0.36737 0.34334 0.57715 0.0
H1193 H 0.46588 0.42562 0.57748 0.0
H1194 H 0.43767 0.37716 0.57732 0.0
H1195 H 0.38453 0.43623 0.58831 0.0
H1196 H 0.30104 0.32674 0.57733 0.0
H1197 H 0.33008 0.37104 0.57857 0.0
C1198 C 0.80138 0.90153 0.58105 0.0
C1199 C 0.80123 0.85377 0.58095 0.0
C1200 C 0.81877 0.92562 0.58081 0.0
C1201 C 0.87063 0.91392 0.58571 0.0
H1202 H 0.87703 0.01583 0.56929 0.0
C1203 C 0.94549 0.98215 0.57724 0.0
C1204 C 0.94856 0.02907 0.57619 0.0
C1205 C 0.92699 0.96444 0.57811 0.0
C1206 C 0.87541 0.98795 0.57402 0.0
H1207 H 0.81939 0.79403 0.5806 0.0
H1208 H 0.84971 0.83602 0.58029 0.0
H1209 H 0.84582 0.97751 0.57033 0.0
H1210 H 0.93426 0.09413 0.57508 0.0
H1211 H 0.90157 0.06297 0.57674 0.0
H1212 H 0.90003 0.92413 0.58947 0.0
C1213 C 0.83633 0.85483 0.58057 0.0
C1214 C 0.85752 0.96588 0.5746 0.0
C1215 C 0.81894 0.83074 0.58071 0.0
C1216 C 0.93242 0.05787 0.5759 0.0
C1217 C 0.91371 0.03996 0.57682 0.0
C1218 C 0.88839 0.9361 0.58519 0.0
C1219 C 0.83647 0.90258 0.58058 0.0
C1220 C 0.85504 0.92804 0.58033 0.0
C1221 C 0.91081 0.99295 0.57804 0.0
C1222 C 0.89119 0.97279 0.5792 0.0
H1223 H 0.78802 0.92044 0.58121 0.0
H1224 H 0.81836 0.96233 0.58091 0.0
H1225 H 0.86911 0.88557 0.59035 0.0
H1226 H 0.95746 0.95861 0.57736 0.0
H1227 H 0.9254 0.92803 0.57876 0.0
C1228 C 0.46977 0.86783 0.69766 0.0
C1229 C 0.47004 0.82009 0.69738 0.0
C1230 C 0.45238 0.89168 0.69732 0.0
C1231 C 0.40206 0.88243 0.68982 0.0
H1232 H 0.39262 0.98048 0.70665 0.0
C1233 C 0.32655 0.95829 0.69404 0.0
C1234 C 0.32427 0.00475 0.6959 0.0
C1235 C 0.34473 0.9383 0.69394 0.0
C1236 C 0.39511 0.95376 0.70179 0.0
H1237 H 0.4521 0.76013 0.69647 0.0
H1238 H 0.42166 0.80191 0.69573 0.0
H1239 H 0.42332 0.9401 0.70708 0.0
H1240 H 0.33961 0.06668 0.69907 0.0
H1241 H 0.37169 0.03182 0.69868 0.0
H1242 H 0.37412 0.89625 0.6844 0.0
C1243 C 0.435 0.82079 0.69623 0.0
C1244 C 0.4127 0.93043 0.70207 0.0
C1245 C 0.45243 0.79683 0.69668 0.0
C1246 C 0.34083 0.03084 0.6976 0.0
C1247 C 0.3592 0.01073 0.69743 0.0
C1248 C 0.38459 0.90601 0.68947 0.0
C1249 C 0.43477 0.86851 0.69658 0.0
C1250 C 0.41628 0.89411 0.69616 0.0
C1251 C 0.36138 0.96407 0.69559 0.0
C1252 C 0.38071 0.94158 0.69554 0.0
H1253 H 0.48304 0.88695 0.69822 0.0
H1254 H 0.45273 0.92839 0.69751 0.0
H1255 H 0.4045 0.85524 0.68505 0.0
H1256 H 0.31419 0.93678 0.69278 0.0
H1257 H 0.34564 0.90218 0.69272 0.0
C1258 C 0.84759 0.53183 0.69968 0.0
C1259 C 0.82929 0.51141 0.7 0.0
C1260 C 0.86432 0.50497 0.69963 0.0
C1261 C 0.88165 0.39086 0.70618 0.0
H1262 H 0.92306 0.41328 0.68921 0.0
C1263 C 0.9452 0.26462 0.70199 0.0
C1264 C 0.96354 0.28341 0.70053 0.0
C1265 C 0.92872 0.29228 0.70178 0.0
C1266 C 0.91177 0.40678 0.69409 0.0
H1267 H 0.81439 0.44651 0.70042 0.0
H1268 H 0.84323 0.40056 0.70036 0.0
H1269 H 0.89525 0.46378 0.68941 0.0
H1270 H 0.97885 0.3463 0.6978 0.0
H1271 H 0.95056 0.39392 0.69765 0.0
H1272 H 0.89816 0.33435 0.71097 0.0
C1273 C 0.84475 0.43713 0.70022 0.0
C1274 C 0.89582 0.43584 0.69419 0.0
C1275 C 0.82817 0.4637 0.70019 0.0
C1276 C 0.96498 0.33034 0.69887 0.0
C1277 C 0.94865 0.35785 0.69872 0.0
C1278 C 0.89766 0.36205 0.70614 0.0
C1279 C 0.86304 0.45728 0.70001 0.0
C1280 C 0.88052 0.42806 0.7002 0.0
C1281 C 0.93026 0.33935 0.70015 0.0
C1282 C 0.91294 0.36949 0.70007 0.0
H1283 H 0.84898 0.56841 0.69954 0.0
H1284 H 0.87825 0.52147 0.69948 0.0
H1285 H 0.87019 0.38424 0.71097 0.0
H1286 H 0.94356 0.22864 0.70328 0.0
H1287 H 0.91478 0.27666 0.70281 0.0
C1288 C 0.59396 0.44102 0.44765 0.0
C1289 C 0.57749 0.46872 0.4473 0.0
C1290 C 0.61247 0.46012 0.44676 0.0
C1291 C 0.63699 0.56635 0.43881 0.0
H1292 H 0.67961 0.52444 0.45358 0.0
C1293 C 0.70639 0.6722 0.44392 0.0
C1294 C 0.72407 0.64913 0.44348 0.0
C1295 C 0.68896 0.64814 0.44395 0.0
C1296 C 0.66788 0.53628 0.44935 0.0
H1297 H 0.56777 0.53848 0.44593 0.0
H1298 H 0.59947 0.57115 0.44462 0.0
H1299 H 0.64864 0.48509 0.45436 0.0
H1300 H 0.7372 0.58246 0.44274 0.0
H1301 H 0.70685 0.54071 0.44287 0.0
H1302 H 0.65606 0.6182 0.43398 0.0
C1303 C 0.59833 0.53467 0.4453 0.0
C1304 C 0.65013 0.51358 0.44976 0.0
C1305 C 0.58001 0.51575 0.44613 0.0
C1306 C 0.72387 0.60142 0.44306 0.0
C1307 C 0.70647 0.57738 0.4432 0.0
C1308 C 0.65462 0.58923 0.43846 0.0
C1309 C 0.61486 0.50729 0.44553 0.0
C1310 C 0.63433 0.52872 0.44459 0.0
C1311 C 0.68879 0.60041 0.44364 0.0
C1312 C 0.67024 0.57484 0.4438 0.0
H1313 H 0.59256 0.40471 0.44856 0.0
H1314 H 0.62486 0.43787 0.44693 0.0
H1315 H 0.62537 0.57841 0.43454 0.0
H1316 H 0.70599 0.70886 0.44427 0.0
H1317 H 0.67559 0.66691 0.44438 0.0
C1318 C 0.07756 0.02789 0.44613 0.0
C1319 C 0.07929 0.98037 0.44668 0.0
C1320 C 0.09381 0.05584 0.44629 0.0
C1321 C 0.1455 0.05685 0.4529 0.0
H1322 H 0.14623 0.16873 0.43897 0.0
C1323 C 0.2144 0.16308 0.4482 0.0
C1324 C 0.21325 0.2106 0.449 0.0
C1325 C 0.19784 0.1363 0.44807 0.0
C1326 C 0.14614 0.1379 0.44298 0.0
H1327 H 0.09973 0.92511 0.44768 0.0
H1328 H 0.12827 0.97395 0.44773 0.0
H1329 H 0.11848 0.11821 0.43795 0.0
H1330 H 0.19351 0.26706 0.45025 0.0
H1331 H 0.16428 0.21989 0.44989 0.0
H1332 H 0.17337 0.07628 0.45777 0.0
C1333 C 0.1142 0.98963 0.44735 0.0
C1334 C 0.13022 0.10879 0.44241 0.0
C1335 C 0.09784 0.96151 0.44725 0.0
C1336 C 0.19493 0.23064 0.44962 0.0
C1337 C 0.17821 0.20364 0.44939 0.0
C1338 C 0.16147 0.08577 0.45341 0.0
C1339 C 0.11239 0.03729 0.44694 0.0
C1340 C 0.12964 0.06779 0.44736 0.0
C1341 C 0.17952 0.15606 0.44866 0.0
C1342 C 0.16203 0.12661 0.44844 0.0
H1343 H 0.06355 0.04389 0.44575 0.0
H1344 H 0.09168 0.0922 0.44613 0.0
H1345 H 0.1455 0.02621 0.45696 0.0
H1346 H 0.22821 0.1462 0.44773 0.0
H1347 H 0.19941 0.09993 0.44738 0.0
C1348 C 0.70558 0.07227 0.32048 0.0
C1349 C 0.70726 0.02518 0.32182 0.0
C1350 C 0.68761 0.09306 0.31997 0.0
C1351 C 0.63535 0.07219 0.31673 0.0
H1352 H 0.6311 0.18955 0.32836 0.0
C1353 C 0.56241 0.15896 0.32376 0.0
C1354 C 0.56076 0.20602 0.32225 0.0
C1355 C 0.58018 0.13716 0.32314 0.0
C1356 C 0.63209 0.15713 0.32497 0.0
H1357 H 0.69123 0.96267 0.32337 0.0
H1358 H 0.65944 0.99936 0.3227 0.0
H1359 H 0.6617 0.14943 0.32859 0.0
H1360 H 0.57667 0.26693 0.31885 0.0
H1361 H 0.60801 0.22867 0.31787 0.0
H1362 H 0.6055 0.07975 0.31331 0.0
C1363 C 0.67221 0.0201 0.32195 0.0
C1364 C 0.64966 0.13398 0.3251 0.0
C1365 C 0.69039 0.99901 0.32235 0.0
C1366 C 0.57744 0.23073 0.32006 0.0
C1367 C 0.59537 0.20882 0.31953 0.0
C1368 C 0.6177 0.09527 0.31666 0.0
C1369 C 0.67064 0.0676 0.32091 0.0
C1370 C 0.6516 0.09127 0.32095 0.0
C1371 C 0.59691 0.16171 0.32106 0.0
C1372 C 0.61587 0.13806 0.32077 0.0
H1373 H 0.71827 0.09344 0.31982 0.0
H1374 H 0.68708 0.12937 0.31887 0.0
H1375 H 0.63631 0.03974 0.31336 0.0
H1376 H 0.5499 0.13863 0.32542 0.0
H1377 H 0.58085 0.10105 0.32448 0.0
C1378 C 0.1869 0.49693 0.32438 0.0
C1379 C 0.20543 0.51523 0.32552 0.0
C1380 C 0.17063 0.52518 0.32449 0.0
C1381 C 0.1544 0.64165 0.33107 0.0
H1382 H 0.11234 0.61577 0.31461 0.0
C1383 C 0.08941 0.76439 0.32455 0.0
C1384 C 0.07124 0.7433 0.32463 0.0
C1385 C 0.10632 0.73812 0.32478 0.0
C1386 C 0.12395 0.62337 0.31928 0.0
H1387 H 0.22128 0.57781 0.32769 0.0
H1388 H 0.19325 0.62658 0.32767 0.0
H1389 H 0.1403 0.56598 0.31497 0.0
H1390 H 0.05675 0.6779 0.32512 0.0
H1391 H 0.08587 0.63302 0.32546 0.0
H1392 H 0.13798 0.69955 0.33526 0.0
C1393 C 0.19109 0.59044 0.3269 0.0
C1394 C 0.13995 0.5946 0.31953 0.0
C1395 C 0.20725 0.5623 0.32685 0.0
C1396 C 0.07042 0.69559 0.32503 0.0
C1397 C 0.08716 0.66961 0.32516 0.0
C1398 C 0.13844 0.67069 0.33075 0.0
C1399 C 0.17253 0.57243 0.32568 0.0
C1400 C 0.15537 0.60309 0.32547 0.0
C1401 C 0.10532 0.69038 0.32497 0.0
C1402 C 0.12295 0.66162 0.32491 0.0
H1403 H 0.18496 0.46087 0.32336 0.0
H1404 H 0.15656 0.50989 0.32367 0.0
H1405 H 0.16584 0.64908 0.33583 0.0
H1406 H 0.09057 0.80098 0.32424 0.0
H1407 H 0.12016 0.75507 0.32462 0.0
C1408 C 0.53285 0.94883 0.04824 0.0
C1409 C 0.51601 0.94557 0.05342 0.0
C1410 C 0.53172 0.9528 0.03879 0.0
C1411 C 0.49778 0.99697 0.02167 0.0
H1412 H 0.53457 0.94962 1.00448 0.0
C1413 C 0.49048 0.01744 0.98255 0.0
C1414 C 0.5076 0.02001 0.97755 0.0
C1415 C 0.49117 0.01159 0.99199 0.0
C1416 C 0.52433 0.96374 1.00921 0.0
H1417 H 0.48494 0.94146 0.05288 0.0
H1418 H 0.48292 0.94644 0.03641 0.0
H1419 H 0.53649 0.92633 0.02029 0.0
H1420 H 0.53869 0.02188 0.97841 0.0
H1421 H 0.53993 0.01399 0.99483 0.0
H1422 H 0.48569 0.03461 1.01059 0.0
C1423 C 0.497 0.94671 0.03958 0.0
C1424 C 0.52539 0.95011 0.01828 0.0
C1425 C 0.49815 0.94292 0.049 0.0
C1426 C 0.52529 0.0204 0.98216 0.0
C1427 C 0.52598 0.01504 0.99154 0.0
C1428 C 0.49674 0.01067 0.0126 0.0
C1429 C 0.51369 0.95386 0.03439 0.0
C1430 C 0.51214 0.96657 0.02464 0.0
C1431 C 0.50899 0.00833 0.99653 0.0
C1432 C 0.51007 0.99444 1.00625 0.0
H1433 H 0.54672 0.95245 0.05153 0.0
H1434 H 0.54486 0.95848 0.03502 0.0
H1435 H 0.48756 0.01109 0.02642 0.0
H1436 H 0.4767 0.01592 0.97912 0.0
H1437 H 0.47779 0.00646 0.9956 0.0
C1438 C 0.73776 0.29543 0.04687 0.0
C1439 C 0.75461 0.29965 0.05205 0.0
C1440 C 0.73892 0.29019 0.03745 0.0
C1441 C 0.77346 0.24606 0.02062 0.0
H1442 H 0.73633 0.28975 1.00305 0.0
C1443 C 0.78224 0.22772 0.98161 0.0
C1444 C 0.76536 0.22341 0.97645 0.0
C1445 C 0.78115 0.23278 0.99104 0.0
C1446 C 0.74668 0.27665 1.00789 0.0
H1447 H 0.78565 0.30483 0.05151 0.0
H1448 H 0.78768 0.29793 0.0351 0.0
H1449 H 0.7338 0.31357 0.01878 0.0
H1450 H 0.73433 0.21776 0.97705 0.0
H1451 H 0.73243 0.22436 0.99347 0.0
H1452 H 0.78635 0.20918 1.00972 0.0
C1453 C 0.77361 0.29742 0.03825 0.0
C1454 C 0.74526 0.29055 0.01691 0.0
C1455 C 0.77244 0.30227 0.04762 0.0
C1456 C 0.74757 0.22042 0.98091 0.0
C1457 C 0.74647 0.22509 0.9903 0.0
C1458 C 0.77489 0.23218 1.01159 0.0
C1459 C 0.75697 0.28909 0.03308 0.0
C1460 C 0.75865 0.27552 0.0234 0.0
C1461 C 0.76314 0.23359 0.99543 0.0
C1462 C 0.76148 0.24718 1.00511 0.0
H1463 H 0.7239 0.29202 0.05016 0.0
H1464 H 0.72581 0.28371 0.03369 0.0
H1465 H 0.78381 0.23295 0.02546 0.0
H1466 H 0.79606 0.23141 0.97829 0.0
H1467 H 0.79428 0.23938 0.99477 0.0
C1468 C 0.51189 0.14813 0.23272 0.0
C1469 C 0.50921 0.191 0.2287 0.0
C1470 C 0.50833 0.14141 0.24193 0.0
C1471 C 0.47901 0.18104 0.26046 0.0
H1472 H 0.51797 0.12947 0.27626 0.0
C1473 C 0.47522 0.19549 0.29902 0.0
C1474 C 0.4856 0.16549 0.30457 0.0
C1475 C 0.47516 0.19037 0.28965 0.0
C1476 C 0.50668 0.14276 0.27194 0.0
H1477 H 0.50077 0.26053 0.23116 0.0
H1478 H 0.49399 0.2484 0.24733 0.0
H1479 H 0.52476 0.13957 0.2602 0.0
H1480 H 0.50288 0.10458 0.30482 0.0
H1481 H 0.50207 0.09393 0.28836 0.0
H1482 H 0.46068 0.18334 0.27205 0.0
C1483 C 0.49905 0.22022 0.24331 0.0
C1484 C 0.51072 0.14906 0.26275 0.0
C1485 C 0.50305 0.22724 0.2341 0.0
C1486 C 0.4945 0.12769 0.30067 0.0
C1487 C 0.49434 0.12228 0.29123 0.0
C1488 C 0.47481 0.17389 0.26962 0.0
C1489 C 0.5016 0.17716 0.24728 0.0
C1490 C 0.49707 0.16915 0.25697 0.0
C1491 C 0.48546 0.1549 0.28557 0.0
C1492 C 0.48875 0.15567 0.27556 0.0
H1493 H 0.51669 0.11958 0.22873 0.0
H1494 H 0.51037 0.10792 0.24482 0.0
H1495 H 0.4681 0.19574 0.2561 0.0
H1496 H 0.46851 0.22535 0.30188 0.0
H1497 H 0.46832 0.21658 0.28563 0.0
C1498 C 0.75119 0.01649 0.23124 0.0
C1499 C 0.76847 0.01479 0.22635 0.0
C1500 C 0.75153 0.02212 0.24068 0.0
C1501 C 0.78417 0.06799 0.25843 0.0
H1502 H 0.74606 0.01978 0.27499 0.0
C1503 C 0.79055 0.07314 0.29769 0.0
C1504 C 0.77344 0.0776 0.30264 0.0
C1505 C 0.79002 0.07162 0.2882 0.0
C1506 C 0.75667 0.03408 0.27043 0.0
H1507 H 0.79954 0.01445 0.22744 0.0
H1508 H 0.8002 0.02164 0.24386 0.0
H1509 H 0.74489 0.99863 0.25907 0.0
H1510 H 0.74259 0.08628 0.30166 0.0
H1511 H 0.74167 0.08515 0.28513 0.0
H1512 H 0.79614 0.10276 0.26986 0.0
C1513 C 0.78636 0.02033 0.24048 0.0
C1514 C 0.75601 0.02182 0.26129 0.0
C1515 C 0.78601 0.01535 0.23109 0.0
C1516 C 0.75604 0.08399 0.29797 0.0
C1517 C 0.75548 0.08239 0.28852 0.0
C1518 C 0.7849 0.07999 0.26759 0.0
C1519 C 0.76917 0.02586 0.24537 0.0
C1520 C 0.76982 0.03842 0.25516 0.0
C1521 C 0.77233 0.07402 0.28354 0.0
C1522 C 0.77116 0.0632 0.2737 0.0
H1523 H 0.7375 0.01723 0.22772 0.0
H1524 H 0.73798 0.0264 0.24419 0.0
H1525 H 0.79479 0.08245 0.2539 0.0
H1526 H 0.80404 0.06657 0.30115 0.0
H1527 H 0.80325 0.06492 0.28458 0.0
C1528 C 0.25863 0.66253 0.97458 0.0
C1529 C 0.27446 0.64925 0.9693 0.0
C1530 C 0.25953 0.66108 0.98398 0.0
C1531 C 0.2786 0.61584 1.00427 0.0
H1532 H 0.27624 0.73876 0.01349 0.0
C1533 C 0.28197 0.65309 0.04271 0.0
C1534 C 0.27064 0.68879 0.04607 0.0
C1535 C 0.28412 0.64661 0.0334 0.0
C1536 C 0.27667 0.70417 1.01108 0.0
H1537 H 0.30319 0.62084 0.96972 0.0
H1538 H 0.3046 0.61718 0.98643 0.0
H1539 H 0.27672 0.72584 0.99722 0.0
H1540 H 0.25268 0.74572 0.04224 0.0
H1541 H 0.25582 0.73368 0.02598 0.0
H1542 H 0.27751 0.59377 0.01808 0.0
C1543 C 0.29157 0.629 0.98316 0.0
C1544 C 0.27718 0.69687 1.00175 0.0
C1545 C 0.29071 0.63072 0.97363 0.0
C1546 C 0.26161 0.71812 0.03988 0.0
C1547 C 0.26354 0.71126 0.03054 0.0
C1548 C 0.2778 0.62307 0.01364 0.0
C1549 C 0.27623 0.64594 0.98837 0.0
C1550 C 0.27795 0.6527 0.99826 0.0
C1551 C 0.27479 0.67529 0.02716 0.0
C1552 C 0.27658 0.66739 0.01719 0.0
H1553 H 0.24589 0.67681 0.97141 0.0
H1554 H 0.24748 0.67388 0.98786 0.0
H1555 H 0.27897 0.58148 1.00172 0.0
H1556 H 0.28929 0.63007 0.0473 0.0
H1557 H 0.29322 0.61918 0.03112 0.0
C1558 C 0.50236 0.66941 0.7319 0.0
C1559 C 0.50759 0.71026 0.72758 0.0
C1560 C 0.5 0.66745 0.74129 0.0
C1561 C 0.49104 0.74017 0.76114 0.0
H1562 H 0.51344 0.6413 0.77502 0.0
C1563 C 0.51003 0.75872 0.79826 0.0
C1564 C 0.50585 0.7239 0.80451 0.0
C1565 C 0.50744 0.75238 0.78903 0.0
C1566 C 0.50676 0.6686 0.77122 0.0
H1567 H 0.51446 0.78106 0.72979 0.0
H1568 H 0.51043 0.77765 0.74618 0.0
H1569 H 0.51483 0.64004 0.75845 0.0
H1570 H 0.49561 0.6548 0.80586 0.0
H1571 H 0.49133 0.64326 0.78943 0.0
H1572 H 0.48347 0.76938 0.77386 0.0
C1573 C 0.50795 0.74719 0.74228 0.0
C1574 C 0.50762 0.66803 0.76174 0.0
C1575 C 0.51039 0.74912 0.73288 0.0
C1576 C 0.49895 0.68222 0.80123 0.0
C1577 C 0.49656 0.67563 0.79185 0.0
C1578 C 0.49019 0.7407 0.77057 0.0
C1579 C 0.5027 0.70634 0.7466 0.0
C1580 C 0.50023 0.70447 0.7566 0.0
C1581 C 0.50065 0.71096 0.78568 0.0
C1582 C 0.49853 0.70564 0.77573 0.0
H1583 H 0.50007 0.63877 0.72803 0.0
H1584 H 0.49581 0.63558 0.74439 0.0
H1585 H 0.48478 0.76817 0.75739 0.0
H1586 H 0.51525 0.79146 0.80048 0.0
H1587 H 0.51105 0.77999 0.78447 0.0
C1588 C 0.27413 0.97141 0.72523 0.0
C1589 C 0.26007 0.95525 0.71918 0.0
C1590 C 0.27224 0.96484 0.73451 0.0
C1591 C 0.25241 0.90116 0.75296 0.0
H1592 H 0.25153 0.0171 0.76529 0.0
C1593 C 0.24369 0.91431 0.79194 0.0
C1594 C 0.25425 0.94827 0.79641 0.0
C1595 C 0.24279 0.91314 0.78248 0.0
C1596 C 0.25199 0.98437 0.762 0.0
H1597 H 0.23369 0.91638 0.71811 0.0
H1598 H 0.23056 0.90388 0.73459 0.0
H1599 H 0.25324 0.0149 0.74884 0.0
H1600 H 0.27223 0.00751 0.79443 0.0
H1601 H 0.27118 0.00484 0.77796 0.0
H1602 H 0.25207 0.87046 0.76612 0.0
C1603 C 0.24295 0.92211 0.73201 0.0
C1604 C 0.25276 0.98317 0.75257 0.0
C1605 C 0.24479 0.929 0.72261 0.0
C1606 C 0.26384 0.98113 0.7912 0.0
C1607 C 0.26313 0.97968 0.78173 0.0
C1608 C 0.25189 0.9023 0.76245 0.0
C1609 C 0.25632 0.94159 0.73803 0.0
C1610 C 0.25327 0.94165 0.74796 0.0
C1611 C 0.25258 0.94565 0.77723 0.0
C1612 C 0.25198 0.944 0.76711 0.0
H1613 H 0.28623 0.99126 0.7228 0.0
H1614 H 0.2829 0.97952 0.739 0.0
H1615 H 0.25292 0.86875 0.74954 0.0
H1616 H 0.23601 0.88858 0.79575 0.0
H1617 H 0.23426 0.8869 0.7793 0.0
C1618 C 0.50197 0.53425 0.47776 0.0
C1619 C 0.51767 0.5146 0.47328 0.0
C1620 C 0.50191 0.537 0.48726 0.0
C1621 C 0.52339 0.47713 0.50682 0.0
H1622 H 0.50227 0.57549 0.52094 0.0
C1623 C 0.52724 0.48205 0.54617 0.0
C1624 C 0.51137 0.50093 0.55067 0.0
C1625 C 0.52822 0.48335 0.53668 0.0
C1626 C 0.50802 0.54744 0.51709 0.0
H1627 H 0.54619 0.48607 0.47505 0.0
H1628 H 0.54632 0.49207 0.49146 0.0
H1629 H 0.5038 0.58252 0.50449 0.0
H1630 H 0.48358 0.53322 0.54876 0.0
H1631 H 0.48505 0.53431 0.53236 0.0
H1632 H 0.52743 0.44179 0.51937 0.0
C1633 C 0.53383 0.50406 0.48776 0.0
C1634 C 0.50892 0.5516 0.50766 0.0
C1635 C 0.53383 0.50109 0.47835 0.0
C1636 C 0.49614 0.5189 0.5455 0.0
C1637 C 0.49705 0.51992 0.53608 0.0
C1638 C 0.52244 0.47291 0.51624 0.0
C1639 C 0.51758 0.52025 0.49236 0.0
C1640 C 0.51665 0.51652 0.50241 0.0
C1641 C 0.5133 0.50331 0.53154 0.0
C1642 C 0.51469 0.50794 0.5215 0.0
H1643 H 0.48926 0.54439 0.47401 0.0
H1644 H 0.48917 0.54971 0.49061 0.0
H1645 H 0.5291 0.44904 0.50296 0.0
H1646 H 0.53924 0.46827 0.54998 0.0
H1647 H 0.54098 0.4703 0.5334 0.0
C1648 C 0.75547 0.78545 0.54643 0.0
C1649 C 0.76124 0.74714 0.55144 0.0
C1650 C 0.75622 0.78522 0.53695 0.0
C1651 C 0.75798 0.70743 0.51733 0.0
H1652 H 0.77549 0.8144 0.5044 0.0
C1653 C 0.77149 0.70906 0.47852 0.0
C1654 C 0.76548 0.74799 0.47376 0.0
C1655 C 0.77117 0.7081 0.48801 0.0
C1656 C 0.77038 0.78437 0.5079 0.0
H1657 H 0.77245 0.67864 0.55039 0.0
H1658 H 0.77392 0.67854 0.53394 0.0
H1659 H 0.77442 0.81488 0.52088 0.0
H1660 H 0.75416 0.81618 0.47529 0.0
H1661 H 0.75344 0.81419 0.49171 0.0
H1662 H 0.7539 0.67698 0.50432 0.0
C1663 C 0.76856 0.70851 0.5373 0.0
C1664 C 0.76975 0.78468 0.51736 0.0
C1665 C 0.76782 0.70874 0.54676 0.0
C1666 C 0.759 0.78565 0.47871 0.0
C1667 C 0.7587 0.78468 0.48816 0.0
C1668 C 0.75861 0.70713 0.50786 0.0
C1669 C 0.76274 0.74671 0.53227 0.0
C1670 C 0.76348 0.74628 0.5222 0.0
C1671 C 0.76488 0.74604 0.49294 0.0
C1672 C 0.76472 0.74568 0.50302 0.0
H1673 H 0.75028 0.81552 0.54981 0.0
H1674 H 0.75142 0.81506 0.53329 0.0
H1675 H 0.75284 0.67746 0.52083 0.0
H1676 H 0.77659 0.67953 0.47492 0.0
H1677 H 0.77618 0.67789 0.49148 0.0
C1678 C 0.79294 0.56038 0.79984 0.0
C1679 C 0.77583 0.55684 0.80483 0.0
C1680 C 0.79234 0.56028 0.79034 0.0
C1681 C 0.76163 0.51348 0.77239 0.0
H1682 H 0.79373 0.58266 0.75597 0.0
C1683 C 0.7538 0.50397 0.73321 0.0
C1684 C 0.77045 0.51085 0.72802 0.0
C1685 C 0.75456 0.50805 0.74267 0.0
C1686 C 0.78486 0.56245 0.76046 0.0
H1687 H 0.74475 0.55375 0.80394 0.0
H1688 H 0.74364 0.55497 0.78745 0.0
H1689 H 0.795 0.59824 0.77216 0.0
H1690 H 0.80109 0.52411 0.72859 0.0
H1691 H 0.80265 0.52889 0.745 0.0
H1692 H 0.75172 0.47704 0.76078 0.0
C1693 C 0.75752 0.55697 0.79078 0.0
C1694 C 0.78554 0.57168 0.76975 0.0
C1695 C 0.75813 0.55703 0.80022 0.0
C1696 C 0.78802 0.51874 0.73245 0.0
C1697 C 0.78885 0.52217 0.74186 0.0
C1698 C 0.76106 0.50398 0.76312 0.0
C1699 C 0.77462 0.55639 0.78573 0.0
C1700 C 0.77387 0.54744 0.77582 0.0
C1701 C 0.77202 0.51866 0.74709 0.0
C1702 C 0.77268 0.52829 0.75702 0.0
H1703 H 0.80676 0.55912 0.80325 0.0
H1704 H 0.80577 0.55984 0.78662 0.0
H1705 H 0.75271 0.49353 0.77691 0.0
H1706 H 0.74002 0.49862 0.72993 0.0
H1707 H 0.74127 0.50529 0.74646 0.0
C1708 C 0.29522 0.20874 0.4778 0.0
C1709 C 0.27982 0.1926 0.47256 0.0
C1710 C 0.29312 0.21421 0.48717 0.0
C1711 C 0.2541 0.23972 0.50313 0.0
H1712 H 0.29324 0.22435 0.52159 0.0
C1713 C 0.23965 0.2655 0.54145 0.0
C1714 C 0.25501 0.27942 0.54695 0.0
C1715 C 0.24244 0.25862 0.53216 0.0
C1716 C 0.28224 0.22966 0.51649 0.0
H1717 H 0.25066 0.16698 0.47299 0.0
H1718 H 0.24719 0.17473 0.48936 0.0
H1719 H 0.29939 0.19801 0.50624 0.0
H1720 H 0.28499 0.29914 0.54709 0.0
H1721 H 0.28968 0.28967 0.53083 0.0
H1722 H 0.23702 0.27185 0.5133 0.0
C1723 C 0.2608 0.18378 0.48627 0.0
C1724 C 0.28575 0.21416 0.5077 0.0
C1725 C 0.26293 0.17836 0.47693 0.0
C1726 C 0.27279 0.28949 0.54293 0.0
C1727 C 0.27557 0.28302 0.53365 0.0
C1728 C 0.25063 0.25544 0.5119 0.0
C1729 C 0.2755 0.20399 0.49143 0.0
C1730 C 0.27169 0.21879 0.50091 0.0
C1731 C 0.26069 0.26543 0.52821 0.0
C1732 C 0.26464 0.25062 0.51872 0.0
H1733 H 0.30813 0.22147 0.47455 0.0
H1734 H 0.3047 0.23002 0.49093 0.0
H1735 H 0.2431 0.24484 0.49802 0.0
H1736 H 0.226 0.25595 0.54445 0.0
H1737 H 0.23066 0.24473 0.52823 0.0
C1738 C 0.25239 0.5263 0.29521 0.0
C1739 C 0.26963 0.52515 0.30018 0.0
C1740 C 0.2526 0.52395 0.28578 0.0
C1741 C 0.28259 0.5308 0.26522 0.0
H1742 H 0.24686 0.43997 0.25631 0.0
C1743 C 0.28441 0.47639 0.228 0.0
C1744 C 0.26663 0.47198 0.22355 0.0
C1745 C 0.28533 0.47885 0.23742 0.0
C1746 C 0.25679 0.46575 0.25864 0.0
H1747 H 0.30069 0.52347 0.29921 0.0
H1748 H 0.30117 0.52001 0.28259 0.0
H1749 H 0.24747 0.45833 0.27236 0.0
H1750 H 0.23591 0.46511 0.22542 0.0
H1751 H 0.23734 0.46983 0.24196 0.0
H1752 H 0.2917 0.53887 0.25149 0.0
C1753 C 0.28745 0.52292 0.28602 0.0
C1754 C 0.25713 0.47634 0.26786 0.0
C1755 C 0.28722 0.52539 0.29552 0.0
C1756 C 0.24983 0.4674 0.22872 0.0
C1757 C 0.2507 0.47046 0.23819 0.0
C1758 C 0.28215 0.52045 0.25598 0.0
C1759 C 0.27009 0.52004 0.28109 0.0
C1760 C 0.26996 0.50917 0.27126 0.0
C1761 C 0.26843 0.47791 0.24264 0.0
C1762 C 0.26923 0.48777 0.25255 0.0
H1763 H 0.23862 0.5258 0.29866 0.0
H1764 H 0.239 0.52293 0.28219 0.0
H1765 H 0.29254 0.5564 0.26761 0.0
H1766 H 0.29756 0.48042 0.22413 0.0
H1767 H 0.29928 0.48327 0.24059 0.0
C1768 C 0.03275 0.9619 0.47927 0.0
C1769 C 0.01746 0.97796 0.47388 0.0
C1770 C 0.03173 0.96331 0.48868 0.0
C1771 C 1.00604 0.01432 0.50802 0.0
H1772 H 0.02443 0.90717 0.52072 0.0
C1773 C 0.99412 0.99385 0.54613 0.0
C1774 C 1.00989 0.97964 0.55139 0.0
C1775 C 0.99438 0.98983 0.53674 0.0
C1776 C 0.0194 0.93748 0.51729 0.0
H1777 H 0.98943 0.00996 0.47416 0.0
H1778 H 0.98755 0.01239 0.49075 0.0
H1779 H 0.0262 0.91078 0.50424 0.0
H1780 H 0.03794 0.94787 0.551 0.0
H1781 H 0.03853 0.94084 0.53443 0.0
H1782 H 0.9993 0.0411 0.52106 0.0
C1783 C 1.0004 0.99884 0.48763 0.0
C1784 C 0.02042 0.93964 0.50784 0.0
C1785 C 1.00147 0.99762 0.47814 0.0
C1786 C 0.02551 0.95859 0.5471 0.0
C1787 C 0.02585 0.95484 0.53762 0.0
C1788 C 1.00501 0.01215 0.51747 0.0
C1789 C 0.01535 0.98059 0.49301 0.0
C1790 C 1.01383 0.97817 0.50308 0.0
C1791 C 1.01053 0.97192 0.53232 0.0
C1792 C 1.01166 0.97369 0.52224 0.0
H1793 H 0.0454 0.94705 0.47619 0.0
H1794 H 0.04374 0.95019 0.49258 0.0
H1795 H 1.00109 0.04473 0.5046 0.0
H1796 H 0.98181 0.00992 0.54928 0.0
H1797 H 0.9821 1.0021 0.53291 0.0
C1798 C 1.01415 0.31503 0.72825 0.0
C1799 C 0.03089 0.30152 0.72369 0.0
C1800 C 1.01302 0.31182 0.73767 0.0
C1801 C 0.04042 0.29027 0.75886 0.0
H1802 H 0.99332 0.22964 0.76622 0.0
C1803 C 0.03156 0.22592 0.79534 0.0
C1804 C 1.01393 0.23578 0.79951 0.0
C1805 C 0.03351 0.22939 0.78595 0.0
C1806 C 1.00649 0.2469 0.76432 0.0
H1807 H 0.05989 0.27622 0.72537 0.0
H1808 H 0.05815 0.27139 0.7419 0.0
H1809 H 0.99765 0.25216 0.75048 0.0
H1810 H 0.98439 0.25578 0.7972 0.0
H1811 H 0.98763 0.26178 0.78078 0.0
H1812 H 0.0492 0.28547 0.77272 0.0
C1813 C 0.04594 0.28498 0.73822 0.0
C1814 C 1.00895 0.26003 0.75528 0.0
C1815 C 0.04706 0.28829 0.72876 0.0
C1816 C 0.99795 0.24646 0.7941 0.0
C1817 C 0.99991 0.25033 0.78469 0.0
C1818 C 0.03792 0.27736 0.76792 0.0
C1819 C 0.02856 0.29452 0.74273 0.0
C1820 C 0.02591 0.28205 0.75244 0.0
C1821 C 0.01795 0.24371 0.78053 0.0
C1822 C 0.02091 0.25548 0.77078 0.0
H1823 H 1.00135 0.32427 0.72446 0.0
H1824 H 0.99956 0.32032 0.74094 0.0
H1825 H 0.0536 0.30733 0.75691 0.0
H1826 H 0.0442 0.21874 0.79942 0.0
H1827 H 0.04749 0.22302 0.78298 0.0
C1828 C 0.04553 0.80039 0.22713 0.0
C1829 C 0.02919 0.80957 0.22183 0.0
C1830 C 0.04387 0.7958 0.23655 0.0
C1831 C 1.00714 0.7601 0.25305 0.0
H1832 H 0.04483 0.79531 0.27105 0.0
C1833 C 0.99512 0.73909 0.29179 0.0
C1834 C 1.01138 0.73212 0.29726 0.0
C1835 C 0.99719 0.74517 0.28241 0.0
C1836 C 0.0343 0.78449 0.26609 0.0
H1837 H 0.99866 0.82378 0.22217 0.0
H1838 H 0.99585 0.8176 0.23859 0.0
H1839 H 0.04911 0.81895 0.25534 0.0
H1840 H 0.0423 0.72347 0.29729 0.0
H1841 H 0.04587 0.73153 0.28094 0.0
H1842 H 0.99242 0.72524 0.26375 0.0
C1843 C 1.00988 0.81318 0.23553 0.0
C1844 C 0.03672 0.79838 0.25709 0.0
C1845 C 1.01154 0.81764 0.22614 0.0
C1846 C 0.02951 0.72806 0.29317 0.0
C1847 C 0.03157 0.73361 0.28382 0.0
C1848 C 1.00476 0.74603 0.26204 0.0
C1849 C 0.02581 0.80001 0.2408 0.0
C1850 C 0.02313 0.78653 0.25046 0.0
C1851 C 0.01557 0.74433 0.27837 0.0
C1852 C 0.01831 0.75799 0.2687 0.0
H1853 H 0.05915 0.7926 0.22392 0.0
H1854 H 0.05642 0.78549 0.2404 0.0
H1855 H 0.99659 0.74948 0.24809 0.0
H1856 H 0.98108 0.74373 0.29483 0.0
H1857 H 0.98454 0.75362 0.27846 0.0
C1858 C 0.98475 0.5577 0.97692 0.0
C1859 C 1.00176 0.5572 0.97181 0.0
C1860 C 0.98563 0.5576 0.98641 0.0
C1861 C 0.01823 0.51658 1.00432 0.0
H1862 H 0.98322 0.57728 0.02063 0.0
C1863 C 0.02554 0.50886 0.04359 0.0
C1864 C 1.00853 0.51159 0.04867 0.0
C1865 C 0.02486 0.51215 0.03411 0.0
C1866 C 0.99294 0.55945 0.01617 0.0
H1867 H 0.03286 0.55881 0.97249 0.0
H1868 H 0.03444 0.56026 0.98899 0.0
H1869 H 0.98165 0.59358 1.00445 0.0
H1870 H 0.97748 0.51652 0.04789 0.0
H1871 H 0.97615 0.51989 0.03144 0.0
H1872 H 0.02935 0.48193 0.01598 0.0
C1873 C 0.02044 0.56004 0.98574 0.0
C1874 C 0.99209 0.56908 1.00689 0.0
C1875 C 0.01955 0.56009 0.9763 0.0
C1876 C 0.9908 0.51419 0.04411 0.0
C1877 C 0.99009 0.51689 0.03469 0.0
C1878 C 0.01901 0.50674 0.01359 0.0
C1879 C 1.00354 0.55664 0.99092 0.0
C1880 C 1.00473 0.54782 1.00085 0.0
C1881 C 1.00713 0.51793 0.02957 0.0
C1882 C 1.00633 0.5279 0.01965 0.0
H1883 H 0.9709 0.55406 0.97361 0.0
H1884 H 0.97234 0.55482 0.9902 0.0
H1885 H 0.02795 0.49888 0.99983 0.0
H1886 H 0.0394 0.50782 0.04696 0.0
H1887 H 0.03829 0.51294 0.0304 0.0
C1888 C 0.57262 0.07231 0.08008 0.0
C1889 C 0.55928 0.08856 0.07369 0.0
C1890 C 0.59218 0.08173 0.07924 0.0
C1891 C 0.62908 0.11012 0.06227 0.0
H1892 H 0.66078 0.12702 0.08363 0.0
C1893 C 0.71008 0.16025 0.06198 0.0
C1894 C 0.7219 0.14341 0.06895 0.0
C1895 C 0.69054 0.14882 0.06161 0.0
C1896 C 0.6522 0.12155 0.07761 0.0
H1897 H 0.55591 0.12889 0.06152 0.0
H1898 H 0.59051 0.14615 0.06004 0.0
H1899 H 0.62596 0.12404 0.08512 0.0
H1900 H 0.72292 0.09978 0.08073 0.0
H1901 H 0.68878 0.07886 0.08002 0.0
H1902 H 0.65552 0.10839 0.05476 0.0
C1903 C 0.58567 0.12562 0.06569 0.0
C1904 C 0.63217 0.12015 0.07845 0.0
C1905 C 0.56586 0.11633 0.06659 0.0
C1906 C 0.71422 0.11222 0.07516 0.0
C1907 C 0.6946 0.10103 0.07484 0.0
C1908 C 0.6492 0.11183 0.06142 0.0
C1909 C 0.59909 0.10773 0.07195 0.0
C1910 C 0.62031 0.11384 0.07082 0.0
C1911 C 0.68236 0.12087 0.06831 0.0
C1912 C 0.66101 0.11704 0.0691 0.0
H1913 H 0.56798 0.05077 0.08563 0.0
H1914 H 0.60198 0.06681 0.08412 0.0
H1915 H 0.62044 0.10465 0.05627 0.0
H1916 H 0.7156 0.1853 0.05726 0.0
H1917 H 0.68158 0.16493 0.05652 0.0
C1918 C 0.58625 0.19559 0.20802 0.0
C1919 C 0.57773 0.23323 0.20375 0.0
C1920 C 0.60629 0.19331 0.20912 0.0
C1921 C 0.65175 0.23323 0.19948 0.0
H1922 H 0.67344 0.20233 0.22289 0.0
C1923 C 0.73376 0.20792 0.20348 0.0
C1924 C 0.73875 0.16876 0.20837 0.0
C1925 C 0.71495 0.22535 0.204 0.0
C1926 C 0.66768 0.21069 0.21627 0.0
H1927 H 0.58363 0.29754 0.1971 0.0
H1928 H 0.61855 0.29287 0.19882 0.0
H1929 H 0.63864 0.20992 0.22121 0.0
H1930 H 0.72865 0.119 0.21807 0.0
H1931 H 0.69627 0.14866 0.21898 0.0
H1932 H 0.68055 0.23176 0.19438 0.0
C1933 C 0.60973 0.26543 0.2014 0.0
C1934 C 0.64771 0.21505 0.21533 0.0
C1935 C 0.58971 0.26811 0.20046 0.0
C1936 C 0.7252 0.14958 0.2143 0.0
C1937 C 0.70655 0.16677 0.21482 0.0
C1938 C 0.67172 0.22813 0.20037 0.0
C1939 C 0.61823 0.22821 0.20581 0.0
C1940 C 0.6395 0.22569 0.2069 0.0
C1941 C 0.70086 0.20378 0.20941 0.0
C1942 C 0.67997 0.21593 0.20876 0.0
H1943 H 0.57742 0.16825 0.21065 0.0
H1944 H 0.61248 0.16401 0.21248 0.0
H1945 H 0.64581 0.24138 0.19288 0.0
H1946 H 0.74387 0.22288 0.19875 0.0
H1947 H 0.71122 0.25442 0.19985 0.0
C1948 C 0.46993 0.83254 0.95319 0.0
C1949 C 0.4762 0.86452 0.95954 0.0
C1950 C 0.45051 0.81957 0.95291 0.0
C1951 C 0.40323 0.82638 0.96479 0.0
H1952 H 0.38317 0.83821 0.94039 0.0
C1953 C 0.32087 0.82543 0.95709 0.0
C1954 C 0.31554 0.79754 0.94982 0.0
C1955 C 0.34038 0.83618 0.95855 0.0
C1956 C 0.3885 0.8344 0.94725 0.0
H1957 H 0.46765 0.90566 0.97093 0.0
H1958 H 0.43398 0.88213 0.97064 0.0
H1959 H 0.41767 0.84343 0.943 0.0
H1960 H 0.32618 0.76122 0.93813 0.0
H1961 H 0.3597 0.77974 0.94061 0.0
H1962 H 0.37394 0.81702 0.96901 0.0
C1963 C 0.44388 0.86688 0.96588 0.0
C1964 C 0.40834 0.83708 0.94873 0.0
C1965 C 0.46321 0.88012 0.9661 0.0
C1966 C 0.32984 0.78279 0.9438 0.0
C1967 C 0.34912 0.79363 0.9452 0.0
C1968 C 0.38332 0.82336 0.9633 0.0
C1969 C 0.4371 0.83829 0.959 0.0
C1970 C 0.416 0.83278 0.95751 0.0
C1971 C 0.35477 0.81961 0.9527 0.0
C1972 C 0.37571 0.82696 0.95448 0.0
H1973 H 0.47957 0.82096 0.94793 0.0
H1974 H 0.44577 0.79695 0.9476 0.0
H1975 H 0.40867 0.82308 0.97164 0.0
H1976 H 0.31016 0.83689 0.96188 0.0
H1977 H 0.34423 0.85671 0.96433 0.0
C1978 C 0.46568 0.85448 0.81657 0.0
C1979 C 0.48005 0.87675 0.82156 0.0
C1980 C 0.44753 0.87374 0.81547 0.0
C1981 C 0.41468 0.95107 0.82717 0.0
H1982 H 0.38202 0.92528 0.80649 0.0
C1983 C 0.33408 1.00196 0.82549 0.0
C1984 C 0.32122 0.96814 0.82254 0.0
C1985 C 0.35398 0.99596 0.82477 0.0
C1986 C 0.39095 0.93256 0.81232 0.0
H1987 H 0.48714 0.93781 0.8289 0.0
H1988 H 0.45514 0.97236 0.82689 0.0
H1989 H 0.41651 0.91038 0.80562 0.0
H1990 H 0.31928 0.90153 0.81647 0.0
H1991 H 0.35414 0.89116 0.81514 0.0
H1992 H 0.38898 0.97306 0.83387 0.0
C1993 C 0.45795 0.93958 0.8239 0.0
C1994 C 0.41073 0.92413 0.81183 0.0
C1995 C 0.47633 0.9202 0.82496 0.0
C1996 C 0.32877 0.92818 0.81881 0.0
C1997 C 0.34873 0.9224 0.81799 0.0
C1998 C 0.39489 0.95994 0.82762 0.0
C1999 C 0.44316 0.91589 0.81935 0.0
C2000 C 0.4228 0.93212 0.81934 0.0
C2001 C 0.36155 0.95621 0.82098 0.0
C2002 C 0.38274 0.94979 0.82028 0.0
H2003 H 0.4682 0.82085 0.81389 0.0
H2004 H 0.43658 0.85407 0.81203 0.0
H2005 H 0.42341 0.95707 0.83313 0.0
H2006 H 0.32879 0.03318 0.82841 0.0
H2007 H 0.36346 0.02273 0.82707 0.0
C2008 C 0.68211 0.79713 0.58065 0.0
C2009 C 0.69561 0.76527 0.57752 0.0
C2010 C 0.66231 0.78954 0.57958 0.0
C2011 C 0.62752 0.72696 0.56562 0.0
H2012 H 0.59304 0.73629 0.58615 0.0
C2013 C 0.55604 0.63209 0.56709 0.0
C2014 C 0.54035 0.64922 0.57198 0.0
C2015 C 0.57347 0.65537 0.56679 0.0
C2016 C 0.60233 0.73455 0.58028 0.0
H2017 H 0.69886 0.70053 0.5708 0.0
H2018 H 0.66437 0.68762 0.56883 0.0
H2019 H 0.62681 0.7584 0.58778 0.0
H2020 H 0.5303 0.70537 0.58007 0.0
H2021 H 0.56104 0.74693 0.5795 0.0
H2022 H 0.60327 0.70289 0.55812 0.0
C2023 C 0.66911 0.71847 0.57211 0.0
C2024 C 0.62172 0.74697 0.58124 0.0
C2025 C 0.68887 0.72572 0.57329 0.0
C2026 C 0.54212 0.69164 0.57618 0.0
C2027 C 0.55979 0.71505 0.57594 0.0
C2028 C 0.60815 0.71507 0.56463 0.0
C2029 C 0.65561 0.75029 0.57523 0.0
C2030 C 0.63463 0.74201 0.57399 0.0
C2031 C 0.57582 0.69657 0.5714 0.0
C2032 C 0.59541 0.71725 0.57203 0.0
H2033 H 0.68682 0.82793 0.58395 0.0
H2034 H 0.65225 0.81469 0.58203 0.0
H2035 H 0.63704 0.72369 0.55986 0.0
H2036 H 0.55509 0.59942 0.56378 0.0
H2037 H 0.58545 0.63957 0.56333 0.0
C2038 C 0.58889 0.77515 0.69954 0.0
C2039 C 0.57627 0.74104 0.70261 0.0
C2040 C 0.60882 0.7706 0.7006 0.0
C2041 C 0.6455 0.71369 0.71445 0.0
H2042 H 0.67933 0.73144 0.69387 0.0
C2043 C 0.72107 0.63777 0.71314 0.0
C2044 C 0.73563 0.65787 0.70789 0.0
C2045 C 0.70274 0.65673 0.71354 0.0
C2046 C 0.67021 0.72741 0.69976 0.0
H2047 H 0.57476 0.67547 0.70926 0.0
H2048 H 0.60961 0.66786 0.71125 0.0
H2049 H 0.64486 0.74577 0.69227 0.0
H2050 H 0.74276 0.71513 0.69933 0.0
H2051 H 0.71051 0.74933 0.70013 0.0
H2052 H 0.67068 0.69549 0.72197 0.0
C2053 C 0.60401 0.69809 0.708 0.0
C2054 C 0.6504 0.7353 0.69881 0.0
C2055 C 0.58407 0.7023 0.7068 0.0
C2056 C 0.73184 0.69922 0.7035 0.0
C2057 C 0.7133 0.71834 0.70387 0.0
C2058 C 0.66529 0.70642 0.71544 0.0
C2059 C 0.6166 0.73218 0.7049 0.0
C2060 C 0.63779 0.7274 0.70608 0.0
C2061 C 0.69835 0.6965 0.70868 0.0
C2062 C 0.67788 0.71187 0.70804 0.0
H2063 H 0.58338 0.8054 0.69625 0.0
H2064 H 0.61815 0.79749 0.69818 0.0
H2065 H 0.63618 0.70823 0.72022 0.0
H2066 H 0.72359 0.60576 0.71658 0.0
H2067 H 0.69171 0.6384 0.71721 0.0
C2068 C 0.46438 0.36506 0.46352 0.0
C2069 C 0.47307 0.36793 0.45495 0.0
C2070 C 0.44425 0.36151 0.46427 0.0
C2071 C 0.40131 0.39629 0.45145 0.0
H2072 H 0.37242 0.31909 0.4678 0.0
C2073 C 0.3201 0.36458 0.44729 0.0
C2074 C 0.30881 0.35368 0.45485 0.0
C2075 C 0.33981 0.373 0.44822 0.0
C2076 C 0.38025 0.34163 0.46333 0.0
H2077 H 0.46783 0.36768 0.44052 0.0
H2078 H 0.43293 0.36031 0.4418 0.0
H2079 H 0.4076 0.31497 0.46763 0.0
H2080 H 0.30909 0.34429 0.46937 0.0
H2081 H 0.34352 0.36071 0.47111 0.0
H2082 H 0.3742 0.42322 0.44714 0.0
C2083 C 0.44149 0.36111 0.44794 0.0
C2084 C 0.40044 0.33896 0.46319 0.0
C2085 C 0.46149 0.36451 0.4472 0.0
C2086 C 0.31737 0.35409 0.46347 0.0
C2087 C 0.33718 0.36248 0.46442 0.0
C2088 C 0.38122 0.39927 0.45164 0.0
C2089 C 0.43255 0.36147 0.45647 0.0
C2090 C 0.41117 0.36554 0.4571 0.0
C2091 C 0.34881 0.37029 0.45675 0.0
C2092 C 0.37033 0.37131 0.45743 0.0
H2093 H 0.47297 0.36907 0.46959 0.0
H2094 H 0.4378 0.36196 0.47094 0.0
H2095 H 0.40916 0.41815 0.44684 0.0
H2096 H 0.31396 0.3629 0.44054 0.0
H2097 H 0.3482 0.37822 0.44213 0.0
C2098 C 0.45153 0.33833 0.31306 0.0
C2099 C 0.45826 0.32186 0.32142 0.0
C2100 C 0.43168 0.34465 0.31163 0.0
C2101 C 0.38597 0.29773 0.32008 0.0
H2102 H 0.36131 0.39976 0.30824 0.0
C2103 C 0.30514 0.33694 0.32362 0.0
C2104 C 0.2957 0.36057 0.31666 0.0
C2105 C 0.32465 0.3258 0.3228 0.0
C2106 C 0.36797 0.37048 0.31139 0.0
H2107 H 0.44989 0.3026 0.33502 0.0
H2108 H 0.41561 0.31464 0.33263 0.0
H2109 H 0.39636 0.39828 0.30973 0.0
H2110 H 0.29881 0.38933 0.30325 0.0
H2111 H 0.33266 0.36821 0.30162 0.0
H2112 H 0.35774 0.26991 0.32182 0.0
C2113 C 0.42542 0.32161 0.32709 0.0
C2114 C 0.38807 0.36986 0.31228 0.0
C2115 C 0.44507 0.31529 0.3285 0.0
C2116 C 0.30566 0.36989 0.3086 0.0
C2117 C 0.32516 0.35868 0.30777 0.0
C2118 C 0.36594 0.29819 0.31914 0.0
C2119 C 0.41839 0.33442 0.31854 0.0
C2120 C 0.39724 0.33399 0.31684 0.0
C2121 C 0.33514 0.33842 0.31503 0.0
C2122 C 0.3566 0.33501 0.31496 0.0
H2123 H 0.46138 0.34289 0.30745 0.0
H2124 H 0.42668 0.35475 0.30497 0.0
H2125 H 0.39265 0.26903 0.32344 0.0
H2126 H 0.29795 0.3309 0.33001 0.0
H2127 H 0.33183 0.31066 0.32859 0.0
C2128 C 0.06769 0.11291 0.57827 0.0
C2129 C 0.05498 0.12259 0.57113 0.0
C2130 C 0.08752 0.11774 0.57719 0.0
C2131 C 0.12478 0.11604 0.55939 0.0
H2132 H 0.15812 0.14711 0.57951 0.0
C2133 C 0.20803 0.14172 0.55751 0.0
C2134 C 0.21892 0.12857 0.5651 0.0
C2135 C 0.18801 0.13592 0.5574 0.0
C2136 C 0.14902 0.13767 0.57386 0.0
H2137 H 0.05295 0.14653 0.5573 0.0
H2138 H 0.08793 0.1562 0.55539 0.0
H2139 H 0.12347 0.15579 0.58102 0.0
H2140 H 0.21766 0.09699 0.57832 0.0
H2141 H 0.18273 0.08583 0.57808 0.0
H2142 H 0.15062 0.09884 0.55219 0.0
C2143 C 0.08247 0.14441 0.56185 0.0
C2144 C 0.1291 0.14288 0.5747 0.0
C2145 C 0.06244 0.13971 0.56297 0.0
C2146 C 0.20967 0.10614 0.57227 0.0
C2147 C 0.18963 0.10067 0.5722 0.0
C2148 C 0.14481 0.11127 0.55851 0.0
C2149 C 0.09529 0.13226 0.56888 0.0
C2150 C 0.11664 0.13148 0.56754 0.0
C2151 C 0.17848 0.11757 0.56496 0.0
C2152 C 0.15714 0.12136 0.5658 0.0
H2153 H 0.06231 0.09899 0.58459 0.0
H2154 H 0.09678 0.10741 0.58273 0.0
H2155 H 0.11567 0.10636 0.55376 0.0
H2156 H 0.21476 0.16043 0.55203 0.0
H2157 H 0.17988 0.14948 0.55174 0.0
C2158 C 0.21357 0.12556 0.71005 0.0
C2159 C 0.22028 0.10979 0.70168 0.0
C2160 C 0.19377 0.13317 0.71136 0.0
C2161 C 0.14711 0.1441 0.6988 0.0
H2162 H 0.12436 0.09461 0.72068 0.0
C2163 C 0.06622 0.11471 0.70038 0.0
C2164 C 0.05704 0.13602 0.70765 0.0
C2165 C 0.08611 0.10714 0.7006 0.0
C2166 C 0.13054 0.10863 0.71455 0.0
H2167 H 0.21195 0.09164 0.68805 0.0
H2168 H 0.17788 0.10513 0.69024 0.0
H2169 H 0.1595 0.09766 0.71916 0.0
H2170 H 0.06108 0.16384 0.72104 0.0
H2171 H 0.09578 0.14933 0.72157 0.0
H2172 H 0.1183 0.15421 0.69409 0.0
C2173 C 0.18757 0.11214 0.69581 0.0
C2174 C 0.15067 0.11083 0.71371 0.0
C2175 C 0.20716 0.10436 0.69454 0.0
C2176 C 0.06775 0.14594 0.71548 0.0
C2177 C 0.08765 0.13815 0.71573 0.0
C2178 C 0.12712 0.14145 0.6996 0.0
C2179 C 0.18047 0.12543 0.7043 0.0
C2180 C 0.15921 0.12797 0.70575 0.0
C2181 C 0.09718 0.12097 0.70809 0.0
C2182 C 0.11856 0.12307 0.70741 0.0
H2183 H 0.22339 0.12916 0.71571 0.0
H2184 H 0.18882 0.14384 0.71797 0.0
H2185 H 0.15311 0.15848 0.69266 0.0
H2186 H 0.05839 0.10801 0.69418 0.0
H2187 H 0.09301 0.09325 0.69466 0.0
C2188 C 0.98538 0.7826 0.44991 0.0
C2189 C 0.98845 0.82342 0.45455 0.0
C2190 C 0.96711 0.76196 0.45003 0.0
C2191 C 0.91854 0.76775 0.46121 0.0
H2192 H 0.89949 0.73303 0.43755 0.0
C2193 C 0.83769 0.76918 0.45208 0.0
C2194 C 0.83033 0.73168 0.44736 0.0
C2195 C 0.85755 0.77403 0.45344 0.0
C2196 C 0.90464 0.7421 0.44423 0.0
H2197 H 0.97543 0.87301 0.46339 0.0
H2198 H 0.944 0.83754 0.46366 0.0
H2199 H 0.93371 0.74915 0.4396 0.0
H2200 H 0.83816 0.67022 0.44023 0.0
H2201 H 0.87284 0.67925 0.44247 0.0
H2202 H 0.88929 0.76268 0.46571 0.0
C2203 C 0.9554 0.82082 0.45997 0.0
C2204 C 0.92431 0.75106 0.44543 0.0
C2205 C 0.97347 0.84135 0.4598 0.0
C2206 C 0.84333 0.69951 0.44391 0.0
C2207 C 0.86321 0.7047 0.44516 0.0
C2208 C 0.89889 0.75932 0.45998 0.0
C2209 C 0.95171 0.78171 0.45484 0.0
C2210 C 0.93147 0.76503 0.45389 0.0
C2211 C 0.87054 0.74182 0.45 0.0
C2212 C 0.89165 0.7473 0.45144 0.0
H2213 H 0.99662 0.76846 0.44571 0.0
H2214 H 0.96485 0.73154 0.44609 0.0
H2215 H 0.92354 0.77745 0.46787 0.0
H2216 H 0.8281 0.79453 0.45484 0.0
H2217 H 0.86277 0.80331 0.4571 0.0
C2218 C 0.96425 0.86731 0.30856 0.0
C2219 C 0.9761 0.88273 0.31562 0.0
C2220 C 0.94462 0.87782 0.3084 0.0
C2221 C 0.90648 0.89797 0.32482 0.0
H2222 H 0.87408 0.92018 0.30386 0.0
C2223 C 0.82643 0.94157 0.32816 0.0
C2224 C 0.81319 0.92731 0.32156 0.0
C2225 C 0.84605 0.93331 0.32719 0.0
C2226 C 0.8829 0.91319 0.30976 0.0
H2227 H 0.97706 0.92302 0.3278 0.0
H2228 H 0.94273 0.94226 0.32747 0.0
H2229 H 0.90914 0.91889 0.30216 0.0
H2230 H 0.81007 0.8915 0.30889 0.0
H2231 H 0.84474 0.87618 0.30719 0.0
H2232 H 0.88045 0.89143 0.33241 0.0
C2233 C 0.94861 0.92195 0.32205 0.0
C2234 C 0.903 0.9129 0.30879 0.0
C2235 C 0.96833 0.91173 0.32216 0.0
C2236 C 0.81994 0.90246 0.31412 0.0
C2237 C 0.8398 0.89432 0.31311 0.0
C2238 C 0.88646 0.89792 0.32577 0.0
C2239 C 0.93638 0.90336 0.3154 0.0
C2240 C 0.91503 0.90579 0.31634 0.0
C2241 C 0.85312 0.91049 0.31956 0.0
C2242 C 0.87437 0.90608 0.31829 0.0
H2243 H 0.96986 0.84392 0.30358 0.0
H2244 H 0.93566 0.86274 0.30321 0.0
H2245 H 0.91526 0.89101 0.33073 0.0
H2246 H 0.82166 0.96088 0.33397 0.0
H2247 H 0.85577 0.94682 0.33225 0.0
C2248 C 0.18912 0.76381 0.07373 0.0
C2249 C 0.20124 0.72917 0.07053 0.0
C2250 C 0.16916 0.76092 0.0727 0.0
C2251 C 0.13146 0.7106 0.05869 0.0
H2252 H 0.09832 0.72863 0.07945 0.0
C2253 C 0.05339 0.64828 0.05963 0.0
C2254 C 0.04 0.668 0.06552 0.0
C2255 C 0.07216 0.6648 0.05906 0.0
C2256 C 0.10724 0.72463 0.07351 0.0
H2257 H 0.20183 0.66434 0.0637 0.0
H2258 H 0.16677 0.65967 0.06173 0.0
H2259 H 0.13306 0.73706 0.08109 0.0
H2260 H 0.03524 0.72251 0.07499 0.0
H2261 H 0.06807 0.75292 0.0738 0.0
H2262 H 0.10579 0.69871 0.05104 0.0
C2263 C 0.17286 0.68897 0.06508 0.0
C2264 C 0.12721 0.72903 0.07449 0.0
C2265 C 0.19289 0.69147 0.06626 0.0
C2266 C 0.04523 0.70715 0.07029 0.0
C2267 C 0.06415 0.72392 0.06972 0.0
C2268 C 0.11148 0.70692 0.05767 0.0
C2269 C 0.1608 0.72369 0.0683 0.0
C2270 C 0.13955 0.72113 0.06714 0.0
C2271 C 0.0781 0.70165 0.0644 0.0
C2272 C 0.09908 0.71278 0.06511 0.0
H2273 H 0.19507 0.79328 0.07708 0.0
H2274 H 0.16025 0.78824 0.07521 0.0
H2275 H 0.14061 0.7052 0.05286 0.0
H2276 H 0.04975 0.61769 0.05595 0.0
H2277 H 0.08233 0.64623 0.05496 0.0
C2278 C 0.07308 0.64646 0.19504 0.0
C2279 C 0.06168 0.65103 0.20281 0.0
C2280 C 0.09265 0.63621 0.19575 0.0
C2281 C 0.13315 0.64934 0.21186 0.0
H2282 H 0.16119 0.58674 0.19301 0.0
C2283 C 0.21613 0.61337 0.21212 0.0
C2284 C 0.22565 0.61732 0.20377 0.0
C2285 C 0.19614 0.61976 0.21267 0.0
C2286 C 0.15359 0.60476 0.19829 0.0
H2287 H 0.06157 0.64714 0.21742 0.0
H2288 H 0.09582 0.62743 0.21873 0.0
H2289 H 0.12617 0.5853 0.19298 0.0
H2290 H 0.222 0.63188 0.18952 0.0
H2291 H 0.18721 0.64399 0.19046 0.0
H2292 H 0.16082 0.66817 0.2172 0.0
C2293 C 0.08966 0.63221 0.21205 0.0
C2294 C 0.13346 0.60384 0.19828 0.0
C2295 C 0.06995 0.64252 0.21132 0.0
C2296 C 0.21506 0.62998 0.19608 0.0
C2297 C 0.1951 0.63606 0.1966 0.0
C2298 C 0.15337 0.64982 0.21191 0.0
C2299 C 0.10142 0.63051 0.20428 0.0
C2300 C 0.12289 0.62684 0.20496 0.0
C2301 C 0.1853 0.62931 0.20483 0.0
C2302 C 0.16382 0.62827 0.20502 0.0
H2303 H 0.06713 0.65418 0.18842 0.0
H2304 H 0.10112 0.63595 0.18961 0.0
H2305 H 0.1256 0.668 0.21705 0.0
H2306 H 0.22391 0.60208 0.21808 0.0
H2307 H 0.18903 0.61405 0.21909 0.0
C2308 C 0.80833 0.3689 0.96709 0.0
C2309 C 0.79748 0.38138 0.95944 0.0
C2310 C 0.82821 0.37685 0.96737 0.0
C2311 C 0.86743 0.37874 0.95117 0.0
H2312 H 0.9 0.41445 0.97125 0.0
C2313 C 0.94797 0.41272 0.94673 0.0
C2314 C 0.96091 0.40449 0.95385 0.0
C2315 C 0.92829 0.40572 0.94785 0.0
C2316 C 0.89111 0.40355 0.96564 0.0
H2317 H 0.79856 0.41407 0.94633 0.0
H2318 H 0.83322 0.42886 0.94686 0.0
H2319 H 0.8649 0.41843 0.97275 0.0
H2320 H 0.96355 0.38073 0.96767 0.0
H2321 H 0.92879 0.36739 0.96966 0.0
H2322 H 0.89334 0.36286 0.94409 0.0
C2323 C 0.8264 0.41297 0.95265 0.0
C2324 C 0.87101 0.40632 0.96647 0.0
C2325 C 0.8065 0.40537 0.95241 0.0
C2326 C 0.95388 0.38661 0.96203 0.0
C2327 C 0.93397 0.37975 0.96319 0.0
C2328 C 0.88741 0.37549 0.95037 0.0
C2329 C 0.8376 0.39667 0.95992 0.0
C2330 C 0.85897 0.39472 0.95917 0.0
C2331 C 0.92089 0.39037 0.95617 0.0
C2332 C 0.89958 0.38862 0.95752 0.0
H2333 H 0.80178 0.34905 0.97245 0.0
H2334 H 0.83642 0.36373 0.97305 0.0
H2335 H 0.85856 0.36817 0.94552 0.0
H2336 H 0.95302 0.42696 0.94038 0.0
H2337 H 0.91879 0.41493 0.94232 0.0
C2338 C 0.96679 0.3807 0.80911 0.0
C2339 C 0.97687 0.38852 0.81721 0.0
C2340 C 0.94669 0.38526 0.80878 0.0
C2341 C 0.90639 0.36751 0.82403 0.0
H2342 H 0.87427 0.4233 0.80563 0.0
C2343 C 0.82558 0.39581 0.82928 0.0
C2344 C 0.81299 0.39768 0.82186 0.0
C2345 C 0.84525 0.38878 0.82803 0.0
C2346 C 0.88301 0.40666 0.81073 0.0
H2347 H 0.97407 0.40868 0.8312 0.0
H2348 H 0.93907 0.41736 0.83062 0.0
H2349 H 0.90937 0.42949 0.80458 0.0
H2350 H 0.8109 0.39205 0.8073 0.0
H2351 H 0.84545 0.37809 0.80507 0.0
H2352 H 0.88037 0.34377 0.83012 0.0
C2353 C 0.94664 0.40797 0.82451 0.0
C2354 C 0.90312 0.41066 0.81016 0.0
C2355 C 0.9667 0.40386 0.8248 0.0
C2356 C 0.82026 0.38958 0.81316 0.0
C2357 C 0.8401 0.38255 0.81188 0.0
C2358 C 0.88639 0.36295 0.82454 0.0
C2359 C 0.93634 0.39675 0.81662 0.0
C2360 C 0.915 0.39199 0.81693 0.0
C2361 C 0.85295 0.38361 0.81929 0.0
C2362 C 0.87434 0.38332 0.81802 0.0
H2363 H 0.97425 0.36726 0.80327 0.0
H2364 H 0.93915 0.37618 0.80263 0.0
H2365 H 0.91518 0.35161 0.82922 0.0
H2366 H 0.82036 0.40307 0.83604 0.0
H2367 H 0.85454 0.39058 0.83391 0.0
loop_
_geom_bond_atom_site_label_1
_geom_bond_atom_site_label_2
_geom_bond_distance
_geom_bond_site_symmetry_2
_ccdc_geom_bond_type
C0 O2 1.247 . S
C0 O4 1.258 . S
C1 O8 1.247 . S
C1 O9 1.258 1_565 S
O2 C0 1.247 . S
O2 Zn3 2.028 . S
Zn3 O2 2.028 . S
Zn3 O7 2.035 . S
Zn3 O9 2.035 . S
Zn3 O10 2.028 . S
O4 C0 1.258 . S
O4 Zn5 2.035 1_545 S
Zn5 O4 2.035 1_565 S
Zn5 O6 2.028 . S
Zn5 O8 2.028 . S
Zn5 O11 2.035 . S
O6 Zn5 2.028 . S
O6 C12 1.233 1_565 S
O7 Zn3 2.035 . S
O7 C12 1.276 . S
O8 C1 1.247 . S
O8 Zn5 2.028 . S
O9 C1 1.258 1_545 S
O9 Zn3 2.035 . S
O10 Zn3 2.028 . S
O10 C13 1.247 . S
O11 Zn5 2.035 . S
O11 C13 1.258 1_565 S
C12 O6 1.233 1_545 S
C12 O7 1.276 . S
C13 O10 1.247 . S
C13 O11 1.258 1_545 S
C14 O16 1.247 . S
C14 O18 1.258 . S
C15 O22 1.247 . S
C15 O23 1.258 . S
O16 C14 1.247 . S
O16 Zn17 2.028 . S
Zn17 O16 2.028 . S
Zn17 O21 2.035 . S
Zn17 O23 2.035 . S
Zn17 O24 2.028 . S
O18 C14 1.258 . S
O18 Zn19 2.035 . S
Zn19 O18 2.035 . S
Zn19 O20 2.028 . S
Zn19 O22 2.028 . S
Zn19 O25 2.035 . S
O20 Zn19 2.028 . S
O20 C26 1.247 . S
O21 Zn17 2.035 . S
O21 C26 1.258 . S
O22 C15 1.247 . S
O22 Zn19 2.028 . S
O23 C15 1.258 . S
O23 Zn17 2.035 . S
O24 Zn17 2.028 . S
O24 C27 1.247 . S
O25 Zn19 2.035 . S
O25 C27 1.258 . S
C26 O20 1.247 . S
C26 O21 1.258 . S
C27 O24 1.247 . S
C27 O25 1.258 . S
C28 O30 1.247 . S
C28 O32 1.258 . S
C29 O36 1.247 . S
C29 O37 1.258 . S
O30 C28 1.247 . S
O30 Zn31 2.028 . S
Zn31 O30 2.028 . S
Zn31 O35 2.035 . S
Zn31 O37 2.035 . S
Zn31 O38 2.028 . S
O32 C28 1.258 . S
O32 Zn33 2.035 . S
Zn33 O32 2.035 . S
Zn33 O34 2.028 . S
Zn33 O36 2.028 . S
Zn33 O39 2.035 . S
O34 Zn33 2.028 . S
O34 C40 1.247 . S
O35 Zn31 2.035 . S
O35 C40 1.258 . S
O36 C29 1.247 . S
O36 Zn33 2.028 . S
O37 C29 1.258 . S
O37 Zn31 2.035 . S
O38 Zn31 2.028 . S
O38 C41 1.247 . S
O39 Zn33 2.035 . S
O39 C41 1.258 . S
C40 O34 1.247 . S
C40 O35 1.258 . S
C41 O38 1.247 . S
C41 O39 1.258 . S
C42 O44 1.247 . S
C42 O46 1.258 . S
C43 O50 1.247 . S
C43 O51 1.258 1_565 S
O44 C42 1.247 . S
O44 Zn45 2.028 . S
Zn45 O44 2.028 . S
Zn45 O49 2.035 . S
Zn45 O51 2.035 . S
Zn45 O52 2.028 . S
O46 C42 1.258 . S
O46 Zn47 2.035 1_545 S
Zn47 O46 2.035 1_565 S
Zn47 O48 2.028 . S
Zn47 O50 2.028 . S
Zn47 O53 2.035 . S
O48 Zn47 2.028 . S
O48 C54 1.247 1_565 S
O49 Zn45 2.035 . S
O49 C54 1.258 . S
O50 C43 1.247 . S
O50 Zn47 2.028 . S
O51 C43 1.258 1_545 S
O51 Zn45 2.035 . S
O52 Zn45 2.028 . S
O52 C55 1.247 . S
O53 Zn47 2.035 . S
O53 C55 1.258 1_565 S
C54 O48 1.247 1_545 S
C54 O49 1.258 . S
C55 O52 1.247 . S
C55 O53 1.258 1_545 S
C56 O58 1.247 . S
C56 O60 1.258 1_565 S
C57 O64 1.247 1_565 S
C57 O65 1.258 . S
O58 C56 1.247 . S
O58 Zn59 2.028 . S
Zn59 O58 2.028 . S
Zn59 O63 2.035 . S
Zn59 O65 2.035 . S
Zn59 O66 2.028 . S
O60 C56 1.258 1_545 S
O60 Zn61 2.035 . S
Zn61 O60 2.035 . S
Zn61 O62 2.028 1_545 S
Zn61 O64 2.028 . S
Zn61 O67 2.035 . S
O62 Zn61 2.028 1_565 S
O62 C68 1.247 . S
O63 Zn59 2.035 . S
O63 C68 1.258 . S
O64 C57 1.247 1_545 S
O64 Zn61 2.028 . S
O65 C57 1.258 . S
O65 Zn59 2.035 . S
O66 Zn59 2.028 . S
O66 C69 1.247 1_565 S
O67 Zn61 2.035 . S
O67 C69 1.258 . S
C68 O62 1.247 . S
C68 O63 1.258 . S
C69 O66 1.247 1_545 S
C69 O67 1.258 . S
C70 O72 1.247 . S
C70 O74 1.258 . S
C71 O78 1.247 . S
C71 O79 1.258 . S
O72 C70 1.247 . S
O72 Zn73 2.028 . S
Zn73 O72 2.028 . S
Zn73 O77 2.035 . S
Zn73 O79 2.035 . S
Zn73 O80 2.028 . S
O74 C70 1.258 . S
O74 Zn75 2.035 . S
Zn75 O74 2.035 . S
Zn75 O76 2.028 . S
Zn75 O78 2.028 . S
Zn75 O81 2.035 . S
O76 Zn75 2.028 . S
O76 C82 1.247 . S
O77 Zn73 2.035 . S
O77 C82 1.258 . S
O78 C71 1.247 . S
O78 Zn75 2.028 . S
O79 C71 1.258 . S
O79 Zn73 2.035 . S
O80 Zn73 2.028 . S
O80 C83 1.247 . S
O81 Zn75 2.035 . S
O81 C83 1.258 . S
C82 O76 1.247 . S
C82 O77 1.258 . S
C83 O80 1.247 . S
C83 O81 1.258 . S
C84 O86 1.247 . S
C84 O88 1.258 . S
C85 O92 1.247 . S
C85 O93 1.258 . S
O86 C84 1.247 . S
O86 Zn87 2.028 . S
Zn87 O86 2.028 . S
Zn87 O91 2.035 . S
Zn87 O93 2.035 . S
Zn87 O94 2.028 . S
O88 C84 1.258 . S
O88 Zn89 2.035 . S
Zn89 O88 2.035 . S
Zn89 O90 2.028 . S
Zn89 O92 2.028 . S
Zn89 O95 2.035 . S
O90 Zn89 2.028 . S
O90 C96 1.247 . S
O91 Zn87 2.035 . S
O91 C96 1.258 . S
O92 C85 1.247 . S
O92 Zn89 2.028 . S
O93 C85 1.258 . S
O93 Zn87 2.035 . S
O94 Zn87 2.028 . S
O94 C97 1.247 . S
O95 Zn89 2.035 . S
O95 C97 1.258 . S
C96 O90 1.247 . S
C96 O91 1.258 . S
C97 O94 1.247 . S
C97 O95 1.258 . S
C98 O100 1.247 . S
C98 O102 1.258 1_565 S
C99 O106 1.247 1_565 S
C99 O107 1.258 . S
O100 C98 1.247 . S
O100 Zn101 2.028 . S
Zn101 O100 2.028 . S
Zn101 O105 2.035 . S
Zn101 O107 2.035 . S
Zn101 O108 2.028 . S
O102 C98 1.258 1_545 S
O102 Zn103 2.035 . S
Zn103 O102 2.035 . S
Zn103 O104 2.028 . S
Zn103 O106 2.028 . S
Zn103 O109 2.035 1_545 S
O104 Zn103 2.028 . S
O104 C110 1.247 . S
O105 Zn101 2.035 . S
O105 C110 1.258 1_565 S
O106 C99 1.247 1_545 S
O106 Zn103 2.028 . S
O107 C99 1.258 . S
O107 Zn101 2.035 . S
O108 Zn101 2.028 . S
O108 C111 1.247 . S
O109 Zn103 2.035 1_565 S
O109 C111 1.258 . S
C110 O104 1.247 . S
C110 O105 1.258 1_545 S
C111 O108 1.247 . S
C111 O109 1.258 . S
C112 O114 1.247 . S
C112 O116 1.258 . S
C113 O120 1.247 . S
C113 O121 1.258 . S
O114 C112 1.247 . S
O114 Zn115 2.028 . S
Zn115 O114 2.028 . S
Zn115 O119 2.035 . S
Zn115 O121 2.035 . S
Zn115 O122 2.028 . S
O116 C112 1.258 . S
O116 Zn117 2.035 . S
Zn117 O116 2.035 . S
Zn117 O118 2.028 . S
Zn117 O120 2.028 . S
Zn117 O123 2.035 . S
O118 Zn117 2.028 . S
O118 C124 1.247 . S
O119 Zn115 2.035 . S
O119 C124 1.258 . S
O120 C113 1.247 . S
O120 Zn117 2.028 . S
O121 C113 1.258 . S
O121 Zn115 2.035 . S
O122 Zn115 2.028 . S
O122 C125 1.247 . S
O123 Zn117 2.035 . S
O123 C125 1.258 . S
C124 O118 1.247 . S
C124 O119 1.258 . S
C125 O122 1.247 . S
C125 O123 1.258 . S
C126 O128 1.247 . S
C126 O130 1.258 . S
C127 O134 1.247 . S
C127 O135 1.258 . S
O128 C126 1.247 . S
O128 Zn129 2.028 . S
Zn129 O128 2.028 . S
Zn129 O133 2.035 . S
Zn129 O135 2.035 . S
Zn129 O136 2.028 . S
O130 C126 1.258 . S
O130 Zn131 2.035 . S
Zn131 O130 2.035 . S
Zn131 O132 2.028 . S
Zn131 O134 2.028 . S
Zn131 O137 2.035 . S
O132 Zn131 2.028 . S
O132 C138 1.247 . S
O133 Zn129 2.035 . S
O133 C138 1.258 . S
O134 C127 1.247 . S
O134 Zn131 2.028 . S
O135 C127 1.258 . S
O135 Zn129 2.035 . S
O136 Zn129 2.028 . S
O136 C139 1.247 . S
O137 Zn131 2.035 . S
O137 C139 1.258 . S
C138 O132 1.247 . S
C138 O133 1.258 . S
C139 O136 1.247 . S
C139 O137 1.258 . S
C140 O142 1.247 . S
C140 O144 1.258 . S
C141 O148 1.247 . S
C141 O149 1.258 . S
O142 C140 1.247 . S
O142 Zn143 2.028 . S
Zn143 O142 2.028 . S
Zn143 O147 2.035 . S
Zn143 O149 2.035 . S
Zn143 O150 2.028 . S
O144 C140 1.258 . S
O144 Zn145 2.035 . S
Zn145 O144 2.035 . S
Zn145 O146 2.028 . S
Zn145 O148 2.028 . S
Zn145 O151 2.035 . S
O146 Zn145 2.028 . S
O146 C152 1.247 . S
O147 Zn143 2.035 . S
O147 C152 1.258 . S
O148 C141 1.247 . S
O148 Zn145 2.028 . S
O149 C141 1.258 . S
O149 Zn143 2.035 . S
O150 Zn143 2.028 . S
O150 C153 1.247 . S
O151 Zn145 2.035 . S
O151 C153 1.258 . S
C152 O146 1.247 . S
C152 O147 1.258 . S
C153 O150 1.247 . S
C153 O151 1.258 . S
C154 O156 1.247 . S
C154 O158 1.258 . S
C155 O162 1.247 . S
C155 O163 1.258 . S
O156 C154 1.247 . S
O156 Zn157 2.028 . S
Zn157 O156 2.028 . S
Zn157 O161 2.035 . S
Zn157 O163 2.035 . S
Zn157 O164 2.028 . S
O158 C154 1.258 . S
O158 Zn159 2.035 . S
Zn159 O158 2.035 . S
Zn159 O160 2.028 . S
Zn159 O162 2.028 . S
Zn159 O165 2.035 . S
O160 Zn159 2.028 . S
O160 C166 1.247 . S
O161 Zn157 2.035 . S
O161 C166 1.258 . S
O162 C155 1.247 . S
O162 Zn159 2.028 . S
O163 C155 1.258 . S
O163 Zn157 2.035 . S
O164 Zn157 2.028 . S
O164 C167 1.247 . S
O165 Zn159 2.035 . S
O165 C167 1.258 . S
C166 O160 1.247 . S
C166 O161 1.258 . S
C167 O164 1.247 . S
C167 O165 1.258 . S
C168 O170 1.247 . S
C168 O172 1.258 . S
C169 O176 1.247 . S
C169 O177 1.258 . S
O170 C168 1.247 . S
O170 Zn171 2.028 . S
Zn171 O170 2.028 . S
Zn171 O175 2.035 . S
Zn171 O177 2.035 . S
Zn171 O178 2.028 . S
O172 C168 1.258 . S
O172 Zn173 2.035 . S
Zn173 O172 2.035 . S
Zn173 O174 2.028 . S
Zn173 O176 2.028 . S
Zn173 O179 2.035 . S
O174 Zn173 2.028 . S
O174 C180 1.247 . S
O175 Zn171 2.035 . S
O175 C180 1.258 . S
O176 C169 1.247 . S
O176 Zn173 2.028 . S
O177 C169 1.258 . S
O177 Zn171 2.035 . S
O178 Zn171 2.028 . S
O178 C181 1.247 . S
O179 Zn173 2.035 . S
O179 C181 1.258 . S
C180 O174 1.247 . S
C180 O175 1.258 . S
C181 O178 1.247 . S
C181 O179 1.258 . S
C182 O184 1.247 . S
C182 O186 1.258 . S
C183 O190 1.247 . S
C183 O191 1.258 . S
O184 C182 1.247 . S
O184 Zn185 2.028 . S
Zn185 O184 2.028 . S
Zn185 O189 2.035 . S
Zn185 O191 2.035 . S
Zn185 O192 2.028 . S
O186 C182 1.258 . S
O186 Zn187 2.035 . S
Zn187 O186 2.035 . S
Zn187 O188 2.028 . S
Zn187 O190 2.028 . S
Zn187 O193 2.035 . S
O188 Zn187 2.028 . S
O188 C194 1.247 . S
O189 Zn185 2.035 . S
O189 C194 1.258 . S
O190 C183 1.247 . S
O190 Zn187 2.028 . S
O191 C183 1.258 . S
O191 Zn185 2.035 . S
O192 Zn185 2.028 . S
O192 C195 1.247 . S
O193 Zn187 2.035 . S
O193 C195 1.258 . S
C194 O188 1.247 . S
C194 O189 1.258 . S
C195 O192 1.247 . S
C195 O193 1.258 . S
C196 O198 1.247 . S
C196 O200 1.258 . S
C197 O204 1.247 . S
C197 O205 1.258 . S
O198 C196 1.247 . S
O198 Zn199 2.028 . S
Zn199 O198 2.028 . S
Zn199 O203 2.035 . S
Zn199 O205 2.035 . S
Zn199 O206 2.028 . S
O200 C196 1.258 . S
O200 Zn201 2.035 . S
Zn201 O200 2.035 . S
Zn201 O202 2.028 . S
Zn201 O204 2.028 . S
Zn201 O207 2.035 . S
O202 Zn201 2.028 . S
O202 C208 1.247 . S
O203 Zn199 2.035 . S
O203 C208 1.258 . S
O204 C197 1.247 . S
O204 Zn201 2.028 . S
O205 C197 1.258 . S
O205 Zn199 2.035 . S
O206 Zn199 2.028 . S
O206 C209 1.247 . S
O207 Zn201 2.035 . S
O207 C209 1.258 . S
C208 O202 1.247 . S
C208 O203 1.258 . S
C209 O206 1.247 . S
C209 O207 1.258 . S
C210 O212 1.247 . S
C210 O214 1.258 . S
C211 O218 1.247 . S
C211 O219 1.258 . S
O212 C210 1.247 . S
O212 Zn213 2.028 . S
Zn213 O212 2.028 . S
Zn213 O217 2.035 . S
Zn213 O219 2.035 . S
Zn213 O220 2.028 . S
O214 C210 1.258 . S
O214 Zn215 2.035 . S
Zn215 O214 2.035 . S
Zn215 O216 2.028 . S
Zn215 O218 2.028 . S
Zn215 O221 2.035 . S
O216 Zn215 2.028 . S
O216 C222 1.247 . S
O217 Zn213 2.035 . S
O217 C222 1.258 . S
O218 C211 1.247 . S
O218 Zn215 2.028 . S
O219 C211 1.258 . S
O219 Zn213 2.035 . S
O220 Zn213 2.028 . S
O220 C223 1.247 . S
O221 Zn215 2.035 . S
O221 C223 1.258 . S
C222 O216 1.247 . S
C222 O217 1.258 . S
C223 O220 1.247 . S
C223 O221 1.258 . S
C224 O226 1.245 1_545 S
C224 O228 1.261 1_455 S
C225 O232 1.249 . S
C225 O233 1.255 1_645 S
O226 C224 1.245 1_565 S
O226 Zn227 2.028 . S
Zn227 O226 2.028 . S
Zn227 O231 2.035 1_455 S
Zn227 O233 2.035 . S
Zn227 O234 2.028 1_565 S
O228 C224 1.261 1_655 S
O228 Zn229 2.035 . S
Zn229 O228 2.035 . S
Zn229 O230 2.028 . S
Zn229 O232 2.028 . S
Zn229 O235 2.035 1_655 S
O230 Zn229 2.028 . S
O230 C236 1.247 1_545 S
O231 Zn227 2.035 1_655 S
O231 C236 1.258 . S
O232 C225 1.249 . S
O232 Zn229 2.028 . S
O233 C225 1.255 1_465 S
O233 Zn227 2.035 . S
O234 Zn227 2.028 1_545 S
O234 C237 1.247 . S
O235 Zn229 2.035 1_455 S
O235 C237 1.258 . S
C236 O230 1.247 1_565 S
C236 O231 1.258 . S
C237 O234 1.247 . S
C237 O235 1.258 . S
C238 O240 1.247 . S
C238 O242 1.258 . S
C239 O246 1.247 . S
C239 O247 1.258 . S
O240 C238 1.247 . S
O240 Zn241 2.028 . S
Zn241 O240 2.028 . S
Zn241 O245 2.035 . S
Zn241 O247 2.035 . S
Zn241 O248 2.028 . S
O242 C238 1.258 . S
O242 Zn243 2.035 . S
Zn243 O242 2.035 . S
Zn243 O244 2.028 . S
Zn243 O246 2.028 . S
Zn243 O249 2.035 . S
O244 Zn243 2.028 . S
O244 C250 1.247 . S
O245 Zn241 2.035 . S
O245 C250 1.258 . S
O246 C239 1.247 . S
O246 Zn243 2.028 . S
O247 C239 1.258 . S
O247 Zn241 2.035 . S
O248 Zn241 2.028 . S
O248 C251 1.247 . S
O249 Zn243 2.035 . S
O249 C251 1.258 . S
C250 O244 1.247 . S
C250 O245 1.258 . S
C251 O248 1.247 . S
C251 O249 1.258 . S
C252 O254 1.247 . S
C252 O256 1.258 . S
C253 O260 1.247 . S
C253 O261 1.258 . S
O254 C252 1.247 . S
O254 Zn255 2.028 1_455 S
Zn255 O254 2.028 1_655 S
Zn255 O259 2.035 . S
Zn255 O261 2.035 . S
Zn255 O262 2.028 . S
O256 C252 1.258 . S
O256 Zn257 2.035 . S
Zn257 O256 2.035 . S
Zn257 O258 2.028 . S
Zn257 O260 2.028 1_455 S
Zn257 O263 2.035 . S
O258 Zn257 2.028 . S
O258 C264 1.245 1_455 S
O259 Zn255 2.035 . S
O259 C264 1.260 . S
O260 C253 1.247 . S
O260 Zn257 2.028 1_655 S
O261 C253 1.258 . S
O261 Zn255 2.035 . S
O262 Zn255 2.028 . S
O262 C265 1.245 . S
O263 Zn257 2.035 . S
O263 C265 1.260 1_455 S
C264 O258 1.245 1_655 S
C264 O259 1.260 . S
C265 O262 1.245 . S
C265 O263 1.260 1_655 S
C266 O268 1.247 . S
C266 O270 1.258 . S
C267 O274 1.247 . S
C267 O275 1.258 1_565 S
O268 C266 1.247 . S
O268 Zn269 2.028 . S
Zn269 O268 2.028 . S
Zn269 O273 2.035 . S
Zn269 O275 2.035 . S
Zn269 O276 2.028 . S
O270 C266 1.258 . S
O270 Zn271 2.035 1_545 S
Zn271 O270 2.035 1_565 S
Zn271 O272 2.028 . S
Zn271 O274 2.028 . S
Zn271 O277 2.035 . S
O272 Zn271 2.028 . S
O272 C278 1.247 . S
O273 Zn269 2.035 . S
O273 C278 1.258 1_545 S
O274 C267 1.247 . S
O274 Zn271 2.028 . S
O275 C267 1.258 1_545 S
O275 Zn269 2.035 . S
O276 Zn269 2.028 . S
O276 C279 1.247 . S
O277 Zn271 2.035 . S
O277 C279 1.258 1_565 S
C278 O272 1.247 . S
C278 O273 1.258 1_565 S
C279 O276 1.247 . S
C279 O277 1.258 1_545 S
C280 O282 1.245 . S
C280 O284 1.260 1_465 S
C281 O288 1.245 1_465 S
C281 O289 1.260 . S
O282 C280 1.245 . S
O282 Zn283 2.028 . S
Zn283 O282 2.028 . S
Zn283 O287 2.035 . S
Zn283 O289 2.035 . S
Zn283 O290 2.028 1_455 S
O284 C280 1.260 1_645 S
O284 Zn285 2.035 . S
Zn285 O284 2.035 . S
Zn285 O286 2.028 1_655 S
Zn285 O288 2.028 . S
Zn285 O291 2.035 1_545 S
O286 Zn285 2.028 1_455 S
O286 C292 1.247 . S
O287 Zn283 2.035 . S
O287 C292 1.258 1_565 S
O288 C281 1.245 1_645 S
O288 Zn285 2.028 . S
O289 C281 1.260 . S
O289 Zn283 2.035 . S
O290 Zn283 2.028 1_655 S
O290 C293 1.247 . S
O291 Zn285 2.035 1_565 S
O291 C293 1.258 . S
C292 O286 1.247 . S
C292 O287 1.258 1_545 S
C293 O290 1.247 . S
C293 O291 1.258 . S
C294 O296 1.247 . S
C294 O298 1.258 . S
C295 O302 1.247 . S
C295 O303 1.258 . S
O296 C294 1.247 . S
O296 Zn297 2.028 . S
Zn297 O296 2.028 . S
Zn297 O301 2.035 . S
Zn297 O303 2.035 . S
Zn297 O304 2.028 . S
O298 C294 1.258 . S
O298 Zn299 2.035 . S
Zn299 O298 2.035 . S
Zn299 O300 2.028 . S
Zn299 O302 2.028 . S
Zn299 O305 2.035 . S
O300 Zn299 2.028 . S
O300 C306 1.247 . S
O301 Zn297 2.035 . S
O301 C306 1.258 . S
O302 C295 1.247 . S
O302 Zn299 2.028 . S
O303 C295 1.258 . S
O303 Zn297 2.035 . S
O304 Zn297 2.028 . S
O304 C307 1.247 . S
O305 Zn299 2.035 . S
O305 C307 1.258 . S
C306 O300 1.247 . S
C306 O301 1.258 . S
C307 O304 1.247 . S
C307 O305 1.258 . S
C308 O310 1.247 . S
C308 O312 1.258 . S
C309 O316 1.247 . S
C309 O317 1.258 . S
O310 C308 1.247 . S
O310 Zn311 2.028 . S
Zn311 O310 2.028 . S
Zn311 O315 2.035 . S
Zn311 O317 2.035 1_655 S
Zn311 O318 2.028 . S
O312 C308 1.258 . S
O312 Zn313 2.035 1_655 S
Zn313 O312 2.035 1_455 S
Zn313 O314 2.028 . S
Zn313 O316 2.028 . S
Zn313 O319 2.035 . S
O314 Zn313 2.028 . S
O314 C320 1.249 . S
O315 Zn311 2.035 . S
O315 C320 1.255 1_655 S
O316 C309 1.247 . S
O316 Zn313 2.028 . S
O317 C309 1.258 . S
O317 Zn311 2.035 1_455 S
O318 Zn311 2.028 . S
O318 C321 1.245 . S
O319 Zn313 2.035 . S
O319 C321 1.261 1_455 S
C320 O314 1.249 . S
C320 O315 1.255 1_455 S
C321 O318 1.245 . S
C321 O319 1.261 1_655 S
C322 O324 1.247 . S
C322 O326 1.258 1_545 S
C323 O330 1.247 . S
C323 O331 1.258 . S
O324 C322 1.247 . S
O324 Zn325 2.028 . S
Zn325 O324 2.028 . S
Zn325 O329 2.035 . S
Zn325 O331 2.035 1_545 S
Zn325 O332 2.028 . S
O326 C322 1.258 1_565 S
O326 Zn327 2.035 . S
Zn327 O326 2.035 . S
Zn327 O328 2.028 . S
Zn327 O330 2.028 . S
Zn327 O333 2.035 . S
O328 Zn327 2.028 . S
O328 C334 1.247 . S
O329 Zn325 2.035 . S
O329 C334 1.258 1_545 S
O330 C323 1.247 . S
O330 Zn327 2.028 . S
O331 C323 1.258 . S
O331 Zn325 2.035 1_565 S
O332 Zn325 2.028 . S
O332 C335 1.247 . S
O333 Zn327 2.035 . S
O333 C335 1.258 1_565 S
C334 O328 1.247 . S
C334 O329 1.258 1_565 S
C335 O332 1.247 . S
C335 O333 1.258 1_545 S
C336 O338 1.247 . S
C336 O340 1.258 . S
C337 O344 1.247 . S
C337 O345 1.258 . S
O338 C336 1.247 . S
O338 Zn339 2.028 . S
Zn339 O338 2.028 . S
Zn339 O343 2.035 . S
Zn339 O345 2.035 1_655 S
Zn339 O346 2.028 . S
O340 C336 1.258 . S
O340 Zn341 2.035 1_655 S
Zn341 O340 2.035 1_455 S
Zn341 O342 2.028 . S
Zn341 O344 2.028 . S
Zn341 O347 2.035 . S
O342 Zn341 2.028 . S
O342 C348 1.245 . S
O343 Zn339 2.035 . S
O343 C348 1.261 1_655 S
O344 C337 1.247 . S
O344 Zn341 2.028 . S
O345 C337 1.258 . S
O345 Zn339 2.035 1_455 S
O346 Zn339 2.028 . S
O346 C349 1.249 . S
O347 Zn341 2.035 . S
O347 C349 1.255 1_455 S
C348 O342 1.245 . S
C348 O343 1.261 1_455 S
C349 O346 1.249 . S
C349 O347 1.255 1_655 S
C350 O352 1.247 . S
C350 O354 1.258 . S
C351 O358 1.247 . S
C351 O359 1.258 . S
O352 C350 1.247 . S
O352 Zn353 2.028 . S
Zn353 O352 2.028 . S
Zn353 O357 2.035 . S
Zn353 O359 2.035 . S
Zn353 O360 2.028 . S
O354 C350 1.258 . S
O354 Zn355 2.035 . S
Zn355 O354 2.035 . S
Zn355 O356 2.028 . S
Zn355 O358 2.028 . S
Zn355 O361 2.035 . S
O356 Zn355 2.028 . S
O356 C362 1.247 . S
O357 Zn353 2.035 . S
O357 C362 1.258 . S
O358 C351 1.247 . S
O358 Zn355 2.028 . S
O359 C351 1.258 . S
O359 Zn353 2.035 . S
O360 Zn353 2.028 . S
O360 C363 1.247 . S
O361 Zn355 2.035 . S
O361 C363 1.258 . S
C362 O356 1.247 . S
C362 O357 1.258 . S
C363 O360 1.247 . S
C363 O361 1.258 . S
C364 O366 1.247 . S
C364 O368 1.258 . S
C365 O372 1.247 . S
C365 O373 1.258 . S
O366 C364 1.247 . S
O366 Zn367 2.028 1_455 S
Zn367 O366 2.028 1_655 S
Zn367 O371 2.035 . S
Zn367 O373 2.035 . S
Zn367 O374 2.028 . S
O368 C364 1.258 . S
O368 Zn369 2.035 . S
Zn369 O368 2.035 . S
Zn369 O370 2.028 . S
Zn369 O372 2.028 1_455 S
Zn369 O375 2.035 . S
O370 Zn369 2.028 . S
O370 C376 1.245 1_455 S
O371 Zn367 2.035 . S
O371 C376 1.259 . S
O372 C365 1.247 . S
O372 Zn369 2.028 1_655 S
O373 C365 1.258 . S
O373 Zn367 2.035 . S
O374 Zn367 2.028 . S
O374 C377 1.245 . S
O375 Zn369 2.035 . S
O375 C377 1.259 1_455 S
C376 O370 1.245 1_655 S
C376 O371 1.259 . S
C377 O374 1.245 . S
C377 O375 1.259 1_655 S
C378 O380 1.247 . S
C378 O382 1.258 . S
C379 O386 1.247 . S
C379 O387 1.258 . S
O380 C378 1.247 . S
O380 Zn381 2.028 . S
Zn381 O380 2.028 . S
Zn381 O385 2.035 . S
Zn381 O387 2.035 . S
Zn381 O388 2.028 . S
O382 C378 1.258 . S
O382 Zn383 2.035 . S
Zn383 O382 2.035 . S
Zn383 O384 2.028 . S
Zn383 O386 2.028 . S
Zn383 O389 2.035 . S
O384 Zn383 2.028 . S
O384 C390 1.247 . S
O385 Zn381 2.035 . S
O385 C390 1.258 . S
O386 C379 1.247 . S
O386 Zn383 2.028 . S
O387 C379 1.258 . S
O387 Zn381 2.035 . S
O388 Zn381 2.028 . S
O388 C391 1.247 . S
O389 Zn383 2.035 . S
O389 C391 1.258 . S
C390 O384 1.247 . S
C390 O385 1.258 . S
C391 O388 1.247 . S
C391 O389 1.258 . S
C392 O394 1.245 . S
C392 O396 1.259 1_455 S
C393 O400 1.245 1_455 S
C393 O401 1.259 . S
O394 C392 1.245 . S
O394 Zn395 2.028 . S
Zn395 O394 2.028 . S
Zn395 O399 2.035 . S
Zn395 O401 2.035 . S
Zn395 O402 2.028 1_455 S
O396 C392 1.259 1_655 S
O396 Zn397 2.035 . S
Zn397 O396 2.035 . S
Zn397 O398 2.028 1_655 S
Zn397 O400 2.028 . S
Zn397 O403 2.035 . S
O398 Zn397 2.028 1_455 S
O398 C404 1.247 . S
O399 Zn395 2.035 . S
O399 C404 1.258 . S
O400 C393 1.245 1_655 S
O400 Zn397 2.028 . S
O401 C393 1.259 . S
O401 Zn395 2.035 . S
O402 Zn395 2.028 1_655 S
O402 C405 1.247 . S
O403 Zn397 2.035 . S
O403 C405 1.258 . S
C404 O398 1.247 . S
C404 O399 1.258 . S
C405 O402 1.247 . S
C405 O403 1.258 . S
C406 O408 1.247 . S
C406 O410 1.258 . S
C407 O414 1.247 . S
C407 O415 1.258 . S
O408 C406 1.247 . S
O408 Zn409 2.028 . S
Zn409 O408 2.028 . S
Zn409 O413 2.035 . S
Zn409 O415 2.035 . S
Zn409 O416 2.028 . S
O410 C406 1.258 . S
O410 Zn411 2.035 . S
Zn411 O410 2.035 . S
Zn411 O412 2.028 . S
Zn411 O414 2.028 . S
Zn411 O417 2.035 . S
O412 Zn411 2.028 . S
O412 C418 1.247 . S
O413 Zn409 2.035 . S
O413 C418 1.258 . S
O414 C407 1.247 . S
O414 Zn411 2.028 . S
O415 C407 1.258 . S
O415 Zn409 2.035 . S
O416 Zn409 2.028 . S
O416 C419 1.247 . S
O417 Zn411 2.035 . S
O417 C419 1.258 . S
C418 O412 1.247 . S
C418 O413 1.258 . S
C419 O416 1.247 . S
C419 O417 1.258 . S
C420 O422 1.247 . S
C420 O424 1.258 . S
C421 O428 1.247 . S
C421 O429 1.258 . S
O422 C420 1.247 . S
O422 Zn423 2.028 1_455 S
Zn423 O422 2.028 1_655 S
Zn423 O427 2.035 . S
Zn423 O429 2.035 . S
Zn423 O430 2.028 . S
O424 C420 1.258 . S
O424 Zn425 2.035 . S
Zn425 O424 2.035 . S
Zn425 O426 2.028 . S
Zn425 O428 2.028 1_455 S
Zn425 O431 2.035 . S
O426 Zn425 2.028 . S
O426 C432 1.245 . S
O427 Zn423 2.035 . S
O427 C432 1.259 1_655 S
O428 C421 1.247 . S
O428 Zn425 2.028 1_655 S
O429 C421 1.258 . S
O429 Zn423 2.035 . S
O430 Zn423 2.028 . S
O430 C433 1.245 1_655 S
O431 Zn425 2.035 . S
O431 C433 1.259 . S
C432 O426 1.245 . S
C432 O427 1.259 1_455 S
C433 O430 1.245 1_455 S
C433 O431 1.259 . S
C434 O436 1.247 . S
C434 O438 1.258 . S
C435 O442 1.247 . S
C435 O443 1.258 . S
O436 C434 1.247 . S
O436 Zn437 2.028 . S
Zn437 O436 2.028 . S
Zn437 O441 2.035 . S
Zn437 O443 2.035 . S
Zn437 O444 2.028 . S
O438 C434 1.258 . S
O438 Zn439 2.035 . S
Zn439 O438 2.035 . S
Zn439 O440 2.028 . S
Zn439 O442 2.028 . S
Zn439 O445 2.035 . S
O440 Zn439 2.028 . S
O440 C446 1.247 . S
O441 Zn437 2.035 . S
O441 C446 1.258 . S
O442 C435 1.247 . S
O442 Zn439 2.028 . S
O443 C435 1.258 . S
O443 Zn437 2.035 . S
O444 Zn437 2.028 . S
O444 C447 1.247 . S
O445 Zn439 2.035 . S
O445 C447 1.258 . S
C446 O440 1.247 . S
C446 O441 1.258 . S
C447 O444 1.247 . S
C447 O445 1.258 . S
C448 C449 1.349 . S
C448 C450 1.327 . S
C448 H473 0.950 . S
C449 C448 1.349 . S
C449 C465 1.349 . S
C450 C448 1.327 . S
C450 C469 1.429 . S
C450 H474 0.950 . S
C451 C468 1.574 . S
C451 C470 1.368 . S
C451 H475 0.949 . S
H452 C456 0.949 . S
C453 C454 1.349 . S
C453 C455 1.327 . S
C453 H476 0.950 . S
C454 C453 1.349 . S
C454 C466 1.349 . S
C455 C453 1.327 . S
C455 C471 1.429 . S
C455 H477 0.950 . S
C456 H452 0.949 . S
C456 C464 1.574 . S
C456 C472 1.368 . S
H457 C465 0.950 . S
H458 C463 0.950 . S
H459 C464 0.949 . S
H460 C466 0.950 . S
H461 C467 0.950 . S
H462 C468 0.949 . S
C463 H458 0.950 . S
C463 C465 1.327 . S
C463 C469 1.429 . S
C464 C456 1.574 . S
C464 H459 0.949 . S
C464 C470 1.368 . S
C465 C449 1.349 . S
C465 H457 0.950 . S
C465 C463 1.327 . S
C466 C454 1.349 . S
C466 H460 0.950 . S
C466 C467 1.327 . S
C467 H461 0.950 . S
C467 C466 1.327 . S
C467 C471 1.429 . S
C468 C451 1.574 . S
C468 H462 0.949 . S
C468 C472 1.368 . S
C469 C450 1.429 . S
C469 C463 1.429 . S
C469 C470 1.523 . S
C470 C451 1.368 . S
C470 C464 1.368 . S
C470 C469 1.523 . S
C471 C455 1.429 . S
C471 C467 1.429 . S
C471 C472 1.523 . S
C472 C456 1.368 . S
C472 C468 1.368 . S
C472 C471 1.523 . S
H473 C448 0.950 . S
H474 C450 0.950 . S
H475 C451 0.949 . S
H476 C453 0.950 . S
H477 C455 0.950 . S
C478 C479 1.349 . S
C478 C480 1.327 . S
C478 H503 0.950 1_545 S
C479 C478 1.349 . S
C479 C495 1.349 . S
C480 C478 1.327 . S
C480 C499 1.429 . S
C480 H504 0.950 . S
C481 C498 1.574 . S
C481 C500 1.368 . S
C481 H505 0.949 . S
H482 C486 0.949 . S
C483 C484 1.349 . S
C483 C485 1.327 . S
C483 H506 0.950 . S
C484 C483 1.349 . S
C484 C496 1.349 . S
C485 C483 1.327 . S
C485 C501 1.429 . S
C485 H507 0.950 . S
C486 H482 0.949 . S
C486 C494 1.574 . S
C486 C502 1.368 . S
H487 C495 0.950 . S
H488 C493 0.950 . S
H489 C494 0.949 . S
H490 C496 0.950 . S
H491 C497 0.950 . S
H492 C498 0.949 . S
C493 H488 0.950 . S
C493 C495 1.327 . S
C493 C499 1.429 . S
C494 C486 1.574 . S
C494 H489 0.949 . S
C494 C500 1.368 . S
C495 C479 1.349 . S
C495 H487 0.950 . S
C495 C493 1.327 . S
C496 C484 1.349 . S
C496 H490 0.950 . S
C496 C497 1.327 . S
C497 H491 0.950 . S
C497 C496 1.327 . S
C497 C501 1.429 . S
C498 C481 1.574 . S
C498 H492 0.949 . S
C498 C502 1.368 . S
C499 C480 1.429 . S
C499 C493 1.429 . S
C499 C500 1.523 . S
C500 C481 1.368 . S
C500 C494 1.368 . S
C500 C499 1.523 . S
C501 C485 1.429 . S
C501 C497 1.429 . S
C501 C502 1.523 . S
C502 C486 1.368 . S
C502 C498 1.368 . S
C502 C501 1.523 . S
H503 C478 0.950 1_565 S
H504 C480 0.950 . S
H505 C481 0.949 . S
H506 C483 0.950 . S
H507 C485 0.950 . S
C508 C509 1.349 . S
C508 C510 1.327 . S
C508 H533 0.950 . S
C509 C508 1.349 . S
C509 C525 1.349 . S
C510 C508 1.327 . S
C510 C529 1.429 . S
C510 H534 0.950 . S
C511 C528 1.574 . S
C511 C530 1.368 . S
C511 H535 0.949 . S
H512 C516 0.949 . S
C513 C514 1.349 . S
C513 C515 1.327 . S
C513 H536 0.950 . S
C514 C513 1.349 . S
C514 C526 1.349 . S
C515 C513 1.327 . S
C515 C531 1.429 . S
C515 H537 0.950 . S
C516 H512 0.949 . S
C516 C524 1.574 . S
C516 C532 1.368 . S
H517 C525 0.950 . S
H518 C523 0.950 . S
H519 C524 0.949 . S
H520 C526 0.950 . S
H521 C527 0.950 . S
H522 C528 0.949 . S
C523 H518 0.950 . S
C523 C525 1.327 . S
C523 C529 1.429 . S
C524 C516 1.574 . S
C524 H519 0.949 . S
C524 C530 1.368 . S
C525 C509 1.349 . S
C525 H517 0.950 . S
C525 C523 1.327 . S
C526 C514 1.349 . S
C526 H520 0.950 . S
C526 C527 1.327 . S
C527 H521 0.950 . S
C527 C526 1.327 . S
C527 C531 1.429 . S
C528 C511 1.574 . S
C528 H522 0.949 . S
C528 C532 1.368 . S
C529 C510 1.429 . S
C529 C523 1.429 . S
C529 C530 1.523 . S
C530 C511 1.368 . S
C530 C524 1.368 . S
C530 C529 1.523 . S
C531 C515 1.429 . S
C531 C527 1.429 . S
C531 C532 1.523 . S
C532 C516 1.368 . S
C532 C528 1.368 . S
C532 C531 1.523 . S
H533 C508 0.950 . S
H534 C510 0.950 . S
H535 C511 0.949 . S
H536 C513 0.950 . S
H537 C515 0.950 . S
C538 C539 1.349 . S
C538 C540 1.327 . S
C538 H563 0.950 . S
C539 C538 1.349 . S
C539 C555 1.349 . S
C540 C538 1.327 . S
C540 C559 1.429 . S
C540 H564 0.950 . S
C541 C558 1.574 . S
C541 C560 1.368 . S
C541 H565 0.949 . S
H542 C546 0.949 . S
C543 C544 1.349 . S
C543 C545 1.327 . S
C543 H566 0.950 . S
C544 C543 1.349 . S
C544 C556 1.349 . S
C545 C543 1.327 . S
C545 C561 1.429 . S
C545 H567 0.950 . S
C546 H542 0.949 . S
C546 C554 1.574 . S
C546 C562 1.368 . S
H547 C555 0.950 . S
H548 C553 0.950 . S
H549 C554 0.949 . S
H550 C556 0.950 . S
H551 C557 0.950 . S
H552 C558 0.949 . S
C553 H548 0.950 . S
C553 C555 1.327 . S
C553 C559 1.429 . S
C554 C546 1.574 . S
C554 H549 0.949 . S
C554 C560 1.368 . S
C555 C539 1.349 . S
C555 H547 0.950 . S
C555 C553 1.327 . S
C556 C544 1.349 . S
C556 H550 0.950 . S
C556 C557 1.327 . S
C557 H551 0.950 . S
C557 C556 1.327 . S
C557 C561 1.429 . S
C558 C541 1.574 . S
C558 H552 0.949 . S
C558 C562 1.368 . S
C559 C540 1.429 . S
C559 C553 1.429 . S
C559 C560 1.523 . S
C560 C541 1.368 . S
C560 C554 1.368 . S
C560 C559 1.523 . S
C561 C545 1.429 . S
C561 C557 1.429 . S
C561 C562 1.523 . S
C562 C546 1.368 . S
C562 C558 1.368 . S
C562 C561 1.523 . S
H563 C538 0.950 . S
H564 C540 0.950 . S
H565 C541 0.949 . S
H566 C543 0.950 . S
H567 C545 0.950 . S
C568 C569 1.349 . S
C568 C570 1.327 . S
C568 H593 0.950 . S
C569 C568 1.349 . S
C569 C585 1.349 . S
C570 C568 1.327 . S
C570 C589 1.429 . S
C570 H594 0.950 . S
C571 C588 1.574 . S
C571 C590 1.368 . S
C571 H595 0.949 . S
H572 C576 0.949 . S
C573 C574 1.349 . S
C573 C575 1.327 . S
C573 H596 0.950 . S
C574 C573 1.349 . S
C574 C586 1.349 . S
C575 C573 1.327 . S
C575 C591 1.429 . S
C575 H597 0.950 . S
C576 H572 0.949 . S
C576 C584 1.574 . S
C576 C592 1.368 . S
H577 C585 0.950 . S
H578 C583 0.950 . S
H579 C584 0.949 . S
H580 C586 0.950 . S
H581 C587 0.950 . S
H582 C588 0.949 . S
C583 H578 0.950 . S
C583 C585 1.327 . S
C583 C589 1.429 . S
C584 C576 1.574 . S
C584 H579 0.949 . S
C584 C590 1.368 . S
C585 C569 1.349 . S
C585 H577 0.950 . S
C585 C583 1.327 . S
C586 C574 1.349 . S
C586 H580 0.950 . S
C586 C587 1.327 . S
C587 H581 0.950 . S
C587 C586 1.327 . S
C587 C591 1.429 . S
C588 C571 1.574 . S
C588 H582 0.949 . S
C588 C592 1.368 . S
C589 C570 1.429 . S
C589 C583 1.429 . S
C589 C590 1.523 . S
C590 C571 1.368 . S
C590 C584 1.368 . S
C590 C589 1.523 . S
C591 C575 1.429 . S
C591 C587 1.429 . S
C591 C592 1.523 . S
C592 C576 1.368 . S
C592 C588 1.368 . S
C592 C591 1.523 . S
H593 C568 0.950 . S
H594 C570 0.950 . S
H595 C571 0.949 . S
H596 C573 0.950 . S
H597 C575 0.950 . S
C598 C599 1.349 . S
C598 C600 1.327 . S
C598 H623 0.950 . S
C599 C598 1.349 . S
C599 C615 1.349 . S
C600 C598 1.327 . S
C600 C619 1.429 . S
C600 H624 0.950 . S
C601 C618 1.574 . S
C601 C620 1.368 . S
C601 H625 0.949 . S
H602 C606 0.949 . S
C603 C604 1.349 . S
C603 C605 1.327 . S
C603 H626 0.950 . S
C604 C603 1.349 . S
C604 C616 1.349 . S
C605 C603 1.327 . S
C605 C621 1.429 . S
C605 H627 0.950 . S
C606 H602 0.949 . S
C606 C614 1.574 . S
C606 C622 1.368 . S
H607 C615 0.950 . S
H608 C613 0.950 . S
H609 C614 0.949 . S
H610 C616 0.950 . S
H611 C617 0.950 . S
H612 C618 0.949 . S
C613 H608 0.950 . S
C613 C615 1.327 . S
C613 C619 1.429 . S
C614 C606 1.574 . S
C614 H609 0.949 . S
C614 C620 1.368 . S
C615 C599 1.349 . S
C615 H607 0.950 . S
C615 C613 1.327 . S
C616 C604 1.349 . S
C616 H610 0.950 . S
C616 C617 1.327 . S
C617 H611 0.950 . S
C617 C616 1.327 . S
C617 C621 1.429 . S
C618 C601 1.574 . S
C618 H612 0.949 . S
C618 C622 1.368 . S
C619 C600 1.429 . S
C619 C613 1.429 . S
C619 C620 1.523 . S
C620 C601 1.368 . S
C620 C614 1.368 . S
C620 C619 1.523 . S
C621 C605 1.429 . S
C621 C617 1.429 . S
C621 C622 1.523 . S
C622 C606 1.368 . S
C622 C618 1.368 . S
C622 C621 1.523 . S
H623 C598 0.950 . S
H624 C600 0.950 . S
H625 C601 0.949 . S
H626 C603 0.950 . S
H627 C605 0.950 . S
C628 C629 1.349 . S
C628 C630 1.327 . S
C628 H653 0.950 . S
C629 C628 1.349 . S
C629 C645 1.349 . S
C630 C628 1.327 . S
C630 C649 1.429 . S
C630 H654 0.950 . S
C631 C648 1.574 . S
C631 C650 1.368 . S
C631 H655 0.949 . S
H632 C636 0.949 . S
C633 C634 1.349 . S
C633 C635 1.327 . S
C633 H656 0.950 . S
C634 C633 1.349 . S
C634 C646 1.349 . S
C635 C633 1.327 . S
C635 C651 1.429 . S
C635 H657 0.950 . S
C636 H632 0.949 . S
C636 C644 1.574 . S
C636 C652 1.368 . S
H637 C645 0.950 . S
H638 C643 0.950 . S
H639 C644 0.949 . S
H640 C646 0.950 . S
H641 C647 0.950 . S
H642 C648 0.949 . S
C643 H638 0.950 . S
C643 C645 1.327 . S
C643 C649 1.429 . S
C644 C636 1.574 . S
C644 H639 0.949 . S
C644 C650 1.368 . S
C645 C629 1.349 . S
C645 H637 0.950 . S
C645 C643 1.327 . S
C646 C634 1.349 . S
C646 H640 0.950 . S
C646 C647 1.327 . S
C647 H641 0.950 . S
C647 C646 1.327 . S
C647 C651 1.429 . S
C648 C631 1.574 . S
C648 H642 0.949 . S
C648 C652 1.368 . S
C649 C630 1.429 . S
C649 C643 1.429 . S
C649 C650 1.523 . S
C650 C631 1.368 . S
C650 C644 1.368 . S
C650 C649 1.523 . S
C651 C635 1.429 . S
C651 C647 1.429 . S
C651 C652 1.523 . S
C652 C636 1.368 . S
C652 C648 1.368 . S
C652 C651 1.523 . S
H653 C628 0.950 . S
H654 C630 0.950 . S
H655 C631 0.949 . S
H656 C633 0.950 . S
H657 C635 0.950 . S
C658 C659 1.349 . S
C658 C660 1.327 . S
C658 H683 0.950 . S
C659 C658 1.349 . S
C659 C675 1.349 . S
C660 C658 1.327 . S
C660 C679 1.429 . S
C660 H684 0.950 . S
C661 C678 1.574 . S
C661 C680 1.368 . S
C661 H685 0.949 . S
H662 C666 0.949 . S
C663 C664 1.349 . S
C663 C665 1.327 . S
C663 H686 0.950 . S
C664 C663 1.349 . S
C664 C676 1.349 . S
C665 C663 1.327 . S
C665 C681 1.429 . S
C665 H687 0.950 . S
C666 H662 0.949 . S
C666 C674 1.574 . S
C666 C682 1.368 . S
H667 C675 0.950 . S
H668 C673 0.950 . S
H669 C674 0.949 . S
H670 C676 0.950 . S
H671 C677 0.950 . S
H672 C678 0.949 . S
C673 H668 0.950 . S
C673 C675 1.327 . S
C673 C679 1.429 . S
C674 C666 1.574 . S
C674 H669 0.949 . S
C674 C680 1.368 . S
C675 C659 1.349 . S
C675 H667 0.950 . S
C675 C673 1.327 . S
C676 C664 1.349 . S
C676 H670 0.950 . S
C676 C677 1.327 . S
C677 H671 0.950 . S
C677 C676 1.327 . S
C677 C681 1.429 . S
C678 C661 1.574 . S
C678 H672 0.949 . S
C678 C682 1.368 . S
C679 C660 1.429 . S
C679 C673 1.429 . S
C679 C680 1.523 . S
C680 C661 1.368 . S
C680 C674 1.368 . S
C680 C679 1.523 . S
C681 C665 1.429 . S
C681 C677 1.429 . S
C681 C682 1.523 . S
C682 C666 1.368 . S
C682 C678 1.368 . S
C682 C681 1.523 . S
H683 C658 0.950 . S
H684 C660 0.950 . S
H685 C661 0.949 . S
H686 C663 0.950 . S
H687 C665 0.950 . S
C688 C689 1.349 1_655 S
C688 C690 1.327 . S
C688 H713 0.950 . S
C689 C688 1.349 1_455 S
C689 C705 1.349 . S
C690 C688 1.327 . S
C690 C709 1.429 1_655 S
C690 H714 0.950 . S
C691 C708 1.574 . S
C691 C710 1.368 . S
C691 H715 0.949 . S
H692 C696 0.949 . S
C693 C694 1.349 . S
C693 C695 1.327 . S
C693 H716 0.950 . S
C694 C693 1.349 . S
C694 C706 1.349 1_455 S
C695 C693 1.327 . S
C695 C711 1.429 . S
C695 H717 0.950 . S
C696 H692 0.949 . S
C696 C704 1.574 . S
C696 C712 1.368 1_655 S
H697 C705 0.950 . S
H698 C703 0.950 . S
H699 C704 0.949 . S
H700 C706 0.950 . S
H701 C707 0.950 . S
H702 C708 0.949 . S
C703 H698 0.950 . S
C703 C705 1.327 . S
C703 C709 1.429 . S
C704 C696 1.574 . S
C704 H699 0.949 . S
C704 C710 1.368 1_655 S
C705 C689 1.349 . S
C705 H697 0.950 . S
C705 C703 1.327 . S
C706 C694 1.349 1_655 S
C706 H700 0.950 . S
C706 C707 1.327 . S
C707 H701 0.950 . S
C707 C706 1.327 . S
C707 C711 1.429 1_655 S
C708 C691 1.574 . S
C708 H702 0.949 . S
C708 C712 1.368 . S
C709 C690 1.429 1_455 S
C709 C703 1.429 . S
C709 C710 1.523 . S
C710 C691 1.368 . S
C710 C704 1.368 1_455 S
C710 C709 1.523 . S
C711 C695 1.429 . S
C711 C707 1.429 1_455 S
C711 C712 1.523 . S
C712 C696 1.368 1_455 S
C712 C708 1.368 . S
C712 C711 1.523 . S
H713 C688 0.950 . S
H714 C690 0.950 . S
H715 C691 0.949 . S
H716 C693 0.950 . S
H717 C695 0.950 . S
C718 C719 1.349 . S
C718 C720 1.327 . S
C718 H743 0.950 . S
C719 C718 1.349 . S
C719 C735 1.349 . S
C720 C718 1.327 . S
C720 C739 1.429 . S
C720 H744 0.950 . S
C721 C738 1.574 . S
C721 C740 1.368 . S
C721 H745 0.949 . S
H722 C726 0.949 . S
C723 C724 1.349 . S
C723 C725 1.327 . S
C723 H746 0.950 1_545 S
C724 C723 1.349 . S
C724 C736 1.349 . S
C725 C723 1.327 . S
C725 C741 1.429 . S
C725 H747 0.950 . S
C726 H722 0.949 . S
C726 C734 1.574 . S
C726 C742 1.368 . S
H727 C735 0.950 . S
H728 C733 0.950 . S
H729 C734 0.949 . S
H730 C736 0.950 . S
H731 C737 0.950 . S
H732 C738 0.949 . S
C733 H728 0.950 . S
C733 C735 1.327 . S
C733 C739 1.429 . S
C734 C726 1.574 . S
C734 H729 0.949 . S
C734 C740 1.368 . S
C735 C719 1.349 . S
C735 H727 0.950 . S
C735 C733 1.327 . S
C736 C724 1.349 . S
C736 H730 0.950 . S
C736 C737 1.327 . S
C737 H731 0.950 . S
C737 C736 1.327 . S
C737 C741 1.429 . S
C738 C721 1.574 . S
C738 H732 0.949 . S
C738 C742 1.368 . S
C739 C720 1.429 . S
C739 C733 1.429 . S
C739 C740 1.523 . S
C740 C721 1.368 . S
C740 C734 1.368 . S
C740 C739 1.523 . S
C741 C725 1.429 . S
C741 C737 1.429 . S
C741 C742 1.523 . S
C742 C726 1.368 . S
C742 C738 1.368 . S
C742 C741 1.523 . S
H743 C718 0.950 . S
H744 C720 0.950 . S
H745 C721 0.949 . S
H746 C723 0.950 1_565 S
H747 C725 0.950 . S
C748 C749 1.349 . S
C748 C750 1.327 . S
C748 H773 0.950 . S
C749 C748 1.349 . S
C749 C765 1.349 1_655 S
C750 C748 1.327 . S
C750 C769 1.429 . S
C750 H774 0.950 . S
C751 C768 1.574 . S
C751 C770 1.368 1_455 S
C751 H775 0.949 . S
H752 C756 0.949 . S
C753 C754 1.349 1_455 S
C753 C755 1.327 . S
C753 H776 0.950 . S
C754 C753 1.349 1_655 S
C754 C766 1.349 . S
C755 C753 1.327 . S
C755 C771 1.429 1_455 S
C755 H777 0.950 . S
C756 H752 0.949 . S
C756 C764 1.574 . S
C756 C772 1.368 . S
H757 C765 0.950 . S
H758 C763 0.950 . S
H759 C764 0.949 . S
H760 C766 0.947 1_545 S
H761 C767 0.950 . S
H762 C768 0.949 . S
C763 H758 0.950 . S
C763 C765 1.327 . S
C763 C769 1.429 1_455 S
C764 C756 1.574 . S
C764 H759 0.949 . S
C764 C770 1.368 . S
C765 C749 1.349 1_455 S
C765 H757 0.950 . S
C765 C763 1.327 . S
C766 C754 1.349 . S
C766 H760 0.947 1_565 S
C766 C767 1.327 . S
C767 H761 0.950 . S
C767 C766 1.327 . S
C767 C771 1.429 . S
C768 C751 1.574 . S
C768 H762 0.949 . S
C768 C772 1.368 1_455 S
C769 C750 1.429 . S
C769 C763 1.429 1_655 S
C769 C770 1.523 . S
C770 C751 1.368 1_655 S
C770 C764 1.368 . S
C770 C769 1.523 . S
C771 C755 1.429 1_655 S
C771 C767 1.429 . S
C771 C772 1.523 . S
C772 C756 1.368 . S
C772 C768 1.368 1_655 S
C772 C771 1.523 . S
H773 C748 0.950 . S
H774 C750 0.950 . S
H775 C751 0.949 . S
H776 C753 0.950 . S
H777 C755 0.950 . S
C778 C779 1.349 . S
C778 C780 1.327 . S
C778 H803 0.950 . S
C779 C778 1.349 . S
C779 C795 1.349 . S
C780 C778 1.327 . S
C780 C799 1.429 . S
C780 H804 0.950 . S
C781 C798 1.574 . S
C781 C800 1.368 . S
C781 H805 0.949 . S
H782 C786 0.949 . S
C783 C784 1.349 . S
C783 C785 1.327 . S
C783 H806 0.950 . S
C784 C783 1.349 . S
C784 C796 1.349 . S
C785 C783 1.327 . S
C785 C801 1.429 . S
C785 H807 0.950 . S
C786 H782 0.949 . S
C786 C794 1.574 . S
C786 C802 1.368 . S
H787 C795 0.950 . S
H788 C793 0.950 . S
H789 C794 0.949 . S
H790 C796 0.950 . S
H791 C797 0.950 . S
H792 C798 0.949 . S
C793 H788 0.950 . S
C793 C795 1.327 . S
C793 C799 1.429 . S
C794 C786 1.574 . S
C794 H789 0.949 . S
C794 C800 1.368 . S
C795 C779 1.349 . S
C795 H787 0.950 . S
C795 C793 1.327 . S
C796 C784 1.349 . S
C796 H790 0.950 . S
C796 C797 1.327 . S
C797 H791 0.950 . S
C797 C796 1.327 . S
C797 C801 1.429 . S
C798 C781 1.574 . S
C798 H792 0.949 . S
C798 C802 1.368 . S
C799 C780 1.429 . S
C799 C793 1.429 . S
C799 C800 1.523 . S
C800 C781 1.368 . S
C800 C794 1.368 . S
C800 C799 1.523 . S
C801 C785 1.429 . S
C801 C797 1.429 . S
C801 C802 1.523 . S
C802 C786 1.368 . S
C802 C798 1.368 . S
C802 C801 1.523 . S
H803 C778 0.950 . S
H804 C780 0.950 . S
H805 C781 0.949 . S
H806 C783 0.950 . S
H807 C785 0.950 . S
C808 C809 1.349 . S
C808 C810 1.327 . S
C808 H833 0.950 . S
C809 C808 1.349 . S
C809 C825 1.349 1_455 S
C810 C808 1.327 . S
C810 C829 1.429 . S
C810 H834 0.950 . S
C811 C828 1.574 . S
C811 C830 1.368 1_655 S
C811 H835 0.949 . S
H812 C816 0.949 . S
C813 C814 1.349 1_655 S
C813 C815 1.327 . S
C813 H836 0.950 . S
C814 C813 1.349 1_455 S
C814 C826 1.349 . S
C815 C813 1.327 . S
C815 C831 1.429 1_655 S
C815 H837 0.950 . S
C816 H812 0.949 . S
C816 C824 1.574 . S
C816 C832 1.368 . S
H817 C825 0.950 . S
H818 C823 0.950 . S
H819 C824 0.949 . S
H820 C826 0.950 . S
H821 C827 0.950 . S
H822 C828 0.949 . S
C823 H818 0.950 . S
C823 C825 1.327 . S
C823 C829 1.429 1_655 S
C824 C816 1.574 . S
C824 H819 0.949 . S
C824 C830 1.368 . S
C825 C809 1.349 1_655 S
C825 H817 0.950 . S
C825 C823 1.327 . S
C826 C814 1.349 . S
C826 H820 0.950 . S
C826 C827 1.327 . S
C827 H821 0.950 . S
C827 C826 1.327 . S
C827 C831 1.429 . S
C828 C811 1.574 . S
C828 H822 0.949 . S
C828 C832 1.368 1_655 S
C829 C810 1.429 . S
C829 C823 1.429 1_455 S
C829 C830 1.523 . S
C830 C811 1.368 1_455 S
C830 C824 1.368 . S
C830 C829 1.523 . S
C831 C815 1.429 1_455 S
C831 C827 1.429 . S
C831 C832 1.523 . S
C832 C816 1.368 . S
C832 C828 1.368 1_455 S
C832 C831 1.523 . S
H833 C808 0.950 . S
H834 C810 0.950 . S
H835 C811 0.949 . S
H836 C813 0.950 . S
H837 C815 0.950 . S
C838 C839 1.349 . S
C838 C840 1.327 . S
C838 H863 0.950 . S
C839 C838 1.349 . S
C839 C855 1.349 . S
C840 C838 1.327 . S
C840 C859 1.429 . S
C840 H864 0.950 . S
C841 C858 1.574 . S
C841 C860 1.368 . S
C841 H865 0.949 . S
H842 C846 0.949 . S
C843 C844 1.349 . S
C843 C845 1.327 . S
C843 H866 0.950 . S
C844 C843 1.349 . S
C844 C856 1.349 . S
C845 C843 1.327 . S
C845 C861 1.429 . S
C845 H867 0.950 . S
C846 H842 0.949 . S
C846 C854 1.574 . S
C846 C862 1.368 . S
H847 C855 0.950 . S
H848 C853 0.950 . S
H849 C854 0.949 . S
H850 C856 0.950 . S
H851 C857 0.950 . S
H852 C858 0.949 . S
C853 H848 0.950 . S
C853 C855 1.327 . S
C853 C859 1.429 . S
C854 C846 1.574 . S
C854 H849 0.949 . S
C854 C860 1.368 . S
C855 C839 1.349 . S
C855 H847 0.950 . S
C855 C853 1.327 . S
C856 C844 1.349 . S
C856 H850 0.950 . S
C856 C857 1.327 . S
C857 H851 0.950 . S
C857 C856 1.327 . S
C857 C861 1.429 . S
C858 C841 1.574 . S
C858 H852 0.949 . S
C858 C862 1.368 . S
C859 C840 1.429 . S
C859 C853 1.429 . S
C859 C860 1.523 . S
C860 C841 1.368 . S
C860 C854 1.368 . S
C860 C859 1.523 . S
C861 C845 1.429 . S
C861 C857 1.429 . S
C861 C862 1.523 . S
C862 C846 1.368 . S
C862 C858 1.368 . S
C862 C861 1.523 . S
H863 C838 0.950 . S
H864 C840 0.950 . S
H865 C841 0.949 . S
H866 C843 0.950 . S
H867 C845 0.950 . S
C868 C869 1.349 . S
C868 C870 1.327 . S
C868 H893 0.950 . S
C869 C868 1.349 . S
C869 C885 1.349 1_655 S
C870 C868 1.327 . S
C870 C889 1.429 . S
C870 H894 0.950 . S
C871 C888 1.574 . S
C871 C890 1.368 1_455 S
C871 H895 0.949 . S
H872 C876 0.949 . S
C873 C874 1.349 1_455 S
C873 C875 1.327 . S
C873 H896 0.950 . S
C874 C873 1.349 1_655 S
C874 C886 1.349 . S
C875 C873 1.327 . S
C875 C891 1.429 1_455 S
C875 H897 0.950 . S
C876 H872 0.949 . S
C876 C884 1.574 . S
C876 C892 1.368 . S
H877 C885 0.950 . S
H878 C883 0.950 . S
H879 C884 0.949 . S
H880 C886 0.950 . S
H881 C887 0.950 . S
H882 C888 0.949 . S
C883 H878 0.950 . S
C883 C885 1.327 . S
C883 C889 1.429 1_455 S
C884 C876 1.574 . S
C884 H879 0.949 . S
C884 C890 1.368 . S
C885 C869 1.349 1_455 S
C885 H877 0.950 . S
C885 C883 1.327 . S
C886 C874 1.349 . S
C886 H880 0.950 . S
C886 C887 1.327 . S
C887 H881 0.950 . S
C887 C886 1.327 . S
C887 C891 1.429 . S
C888 C871 1.574 . S
C888 H882 0.949 . S
C888 C892 1.368 1_455 S
C889 C870 1.429 . S
C889 C883 1.429 1_655 S
C889 C890 1.523 . S
C890 C871 1.368 1_655 S
C890 C884 1.368 . S
C890 C889 1.523 . S
C891 C875 1.429 1_655 S
C891 C887 1.429 . S
C891 C892 1.523 . S
C892 C876 1.368 . S
C892 C888 1.368 1_655 S
C892 C891 1.523 . S
H893 C868 0.950 . S
H894 C870 0.950 . S
H895 C871 0.949 . S
H896 C873 0.950 . S
H897 C875 0.950 . S
C898 C899 1.349 . S
C898 C900 1.327 . S
C898 H923 0.950 . S
C899 C898 1.349 . S
C899 C915 1.349 . S
C900 C898 1.327 . S
C900 C919 1.429 . S
C900 H924 0.950 . S
C901 C918 1.574 . S
C901 C920 1.368 . S
C901 H925 0.949 . S
H902 C906 0.949 . S
C903 C904 1.349 . S
C903 C905 1.327 . S
C903 H926 0.950 . S
C904 C903 1.349 . S
C904 C916 1.349 . S
C905 C903 1.327 . S
C905 C921 1.429 . S
C905 H927 0.950 . S
C906 H902 0.949 . S
C906 C914 1.574 . S
C906 C922 1.368 . S
H907 C915 0.950 . S
H908 C913 0.950 . S
H909 C914 0.949 . S
H910 C916 0.950 . S
H911 C917 0.950 . S
H912 C918 0.949 . S
C913 H908 0.950 . S
C913 C915 1.327 . S
C913 C919 1.429 . S
C914 C906 1.574 . S
C914 H909 0.949 . S
C914 C920 1.368 . S
C915 C899 1.349 . S
C915 H907 0.950 . S
C915 C913 1.327 . S
C916 C904 1.349 . S
C916 H910 0.950 . S
C916 C917 1.327 . S
C917 H911 0.950 . S
C917 C916 1.327 . S
C917 C921 1.429 . S
C918 C901 1.574 . S
C918 H912 0.949 . S
C918 C922 1.368 . S
C919 C900 1.429 . S
C919 C913 1.429 . S
C919 C920 1.523 . S
C920 C901 1.368 . S
C920 C914 1.368 . S
C920 C919 1.523 . S
C921 C905 1.429 . S
C921 C917 1.429 . S
C921 C922 1.523 . S
C922 C906 1.368 . S
C922 C918 1.368 . S
C922 C921 1.523 . S
H923 C898 0.950 . S
H924 C900 0.950 . S
H925 C901 0.949 . S
H926 C903 0.950 . S
H927 C905 0.950 . S
C928 C929 1.349 . S
C928 C930 1.327 . S
C928 H953 0.950 . S
C929 C928 1.349 . S
C929 C945 1.349 . S
C930 C928 1.327 . S
C930 C949 1.429 . S
C930 H954 0.950 . S
C931 C948 1.574 . S
C931 C950 1.368 . S
C931 H955 0.949 . S
H932 C936 0.949 . S
C933 C934 1.349 . S
C933 C935 1.327 . S
C933 H956 0.950 . S
C934 C933 1.349 . S
C934 C946 1.349 . S
C935 C933 1.327 . S
C935 C951 1.429 . S
C935 H957 0.950 . S
C936 H932 0.949 . S
C936 C944 1.574 . S
C936 C952 1.368 . S
H937 C945 0.950 . S
H938 C943 0.950 . S
H939 C944 0.949 . S
H940 C946 0.950 . S
H941 C947 0.950 . S
H942 C948 0.949 . S
C943 H938 0.950 . S
C943 C945 1.327 . S
C943 C949 1.429 . S
C944 C936 1.574 . S
C944 H939 0.949 . S
C944 C950 1.368 . S
C945 C929 1.349 . S
C945 H937 0.950 . S
C945 C943 1.327 . S
C946 C934 1.349 . S
C946 H940 0.950 . S
C946 C947 1.327 . S
C947 H941 0.950 . S
C947 C946 1.327 . S
C947 C951 1.429 . S
C948 C931 1.574 . S
C948 H942 0.949 . S
C948 C952 1.368 . S
C949 C930 1.429 . S
C949 C943 1.429 . S
C949 C950 1.523 . S
C950 C931 1.368 . S
C950 C944 1.368 . S
C950 C949 1.523 . S
C951 C935 1.429 . S
C951 C947 1.429 . S
C951 C952 1.523 . S
C952 C936 1.368 . S
C952 C948 1.368 . S
C952 C951 1.523 . S
H953 C928 0.950 . S
H954 C930 0.950 . S
H955 C931 0.949 . S
H956 C933 0.950 . S
H957 C935 0.950 . S
C958 C959 1.349 . S
C958 C960 1.327 . S
C958 H983 0.950 . S
C959 C958 1.349 . S
C959 C975 1.349 . S
C960 C958 1.327 . S
C960 C979 1.429 . S
C960 H984 0.950 . S
C961 C978 1.574 . S
C961 C980 1.368 . S
C961 H985 0.949 . S
H962 C966 0.949 . S
C963 C964 1.349 . S
C963 C965 1.327 . S
C963 H986 0.950 . S
C964 C963 1.349 . S
C964 C976 1.349 . S
C965 C963 1.327 . S
C965 C981 1.429 . S
C965 H987 0.950 . S
C966 H962 0.949 . S
C966 C974 1.574 . S
C966 C982 1.368 . S
H967 C975 0.950 . S
H968 C973 0.950 . S
H969 C974 0.949 . S
H970 C976 0.950 . S
H971 C977 0.950 . S
H972 C978 0.949 . S
C973 H968 0.950 . S
C973 C975 1.327 . S
C973 C979 1.429 . S
C974 C966 1.574 . S
C974 H969 0.949 . S
C974 C980 1.368 . S
C975 C959 1.349 . S
C975 H967 0.950 . S
C975 C973 1.327 . S
C976 C964 1.349 . S
C976 H970 0.950 . S
C976 C977 1.327 . S
C977 H971 0.950 . S
C977 C976 1.327 . S
C977 C981 1.429 . S
C978 C961 1.574 . S
C978 H972 0.949 . S
C978 C982 1.368 . S
C979 C960 1.429 . S
C979 C973 1.429 . S
C979 C980 1.523 . S
C980 C961 1.368 . S
C980 C974 1.368 . S
C980 C979 1.523 . S
C981 C965 1.429 . S
C981 C977 1.429 . S
C981 C982 1.523 . S
C982 C966 1.368 . S
C982 C978 1.368 . S
C982 C981 1.523 . S
H983 C958 0.950 . S
H984 C960 0.950 . S
H985 C961 0.949 . S
H986 C963 0.950 . S
H987 C965 0.950 . S
C988 C989 1.349 . S
C988 C990 1.327 . S
C988 H1013 0.950 . S
C989 C988 1.349 . S
C989 C1005 1.349 . S
C990 C988 1.327 . S
C990 C1009 1.429 . S
C990 H1014 0.950 . S
C991 C1008 1.574 . S
C991 C1010 1.368 . S
C991 H1015 0.949 . S
H992 C996 0.949 . S
C993 C994 1.349 . S
C993 C995 1.327 . S
C993 H1016 0.950 . S
C994 C993 1.349 . S
C994 C1006 1.349 . S
C995 C993 1.327 . S
C995 C1011 1.429 . S
C995 H1017 0.950 . S
C996 H992 0.949 . S
C996 C1004 1.574 . S
C996 C1012 1.368 . S
H997 C1005 0.950 . S
H998 C1003 0.950 . S
H999 C1004 0.949 . S
H1000 C1006 0.950 . S
H1001 C1007 0.950 . S
H1002 C1008 0.949 . S
C1003 H998 0.950 . S
C1003 C1005 1.327 . S
C1003 C1009 1.429 . S
C1004 C996 1.574 . S
C1004 H999 0.949 . S
C1004 C1010 1.368 . S
C1005 C989 1.349 . S
C1005 H997 0.950 . S
C1005 C1003 1.327 . S
C1006 C994 1.349 . S
C1006 H1000 0.950 . S
C1006 C1007 1.327 . S
C1007 H1001 0.950 . S
C1007 C1006 1.327 . S
C1007 C1011 1.429 . S
C1008 C991 1.574 . S
C1008 H1002 0.949 . S
C1008 C1012 1.368 . S
C1009 C990 1.429 . S
C1009 C1003 1.429 . S
C1009 C1010 1.523 . S
C1010 C991 1.368 . S
C1010 C1004 1.368 . S
C1010 C1009 1.523 . S
C1011 C995 1.429 . S
C1011 C1007 1.429 . S
C1011 C1012 1.523 . S
C1012 C996 1.368 . S
C1012 C1008 1.368 . S
C1012 C1011 1.523 . S
H1013 C988 0.950 . S
H1014 C990 0.950 . S
H1015 C991 0.949 . S
H1016 C993 0.950 . S
H1017 C995 0.950 . S
C1018 C1019 1.349 . S
C1018 C1020 1.327 . S
C1018 H1043 0.950 . S
C1019 C1018 1.349 . S
C1019 C1035 1.349 . S
C1020 C1018 1.327 . S
C1020 C1039 1.429 . S
C1020 H1044 0.950 . S
C1021 C1038 1.574 . S
C1021 C1040 1.368 . S
C1021 H1045 0.949 . S
H1022 C1026 0.949 . S
C1023 C1024 1.349 . S
C1023 C1025 1.327 . S
C1023 H1046 0.950 . S
C1024 C1023 1.349 . S
C1024 C1036 1.349 . S
C1025 C1023 1.327 . S
C1025 C1041 1.429 . S
C1025 H1047 0.950 . S
C1026 H1022 0.949 . S
C1026 C1034 1.574 . S
C1026 C1042 1.368 . S
H1027 C1035 0.950 . S
H1028 C1033 0.950 . S
H1029 C1034 0.949 . S
H1030 C1036 0.950 . S
H1031 C1037 0.950 . S
H1032 C1038 0.949 . S
C1033 H1028 0.950 . S
C1033 C1035 1.327 . S
C1033 C1039 1.429 . S
C1034 C1026 1.574 . S
C1034 H1029 0.949 . S
C1034 C1040 1.368 . S
C1035 C1019 1.349 . S
C1035 H1027 0.950 . S
C1035 C1033 1.327 . S
C1036 C1024 1.349 . S
C1036 H1030 0.950 . S
C1036 C1037 1.327 . S
C1037 H1031 0.950 . S
C1037 C1036 1.327 . S
C1037 C1041 1.429 . S
C1038 C1021 1.574 . S
C1038 H1032 0.949 . S
C1038 C1042 1.368 . S
C1039 C1020 1.429 . S
C1039 C1033 1.429 . S
C1039 C1040 1.523 . S
C1040 C1021 1.368 . S
C1040 C1034 1.368 . S
C1040 C1039 1.523 . S
C1041 C1025 1.429 . S
C1041 C1037 1.429 . S
C1041 C1042 1.523 . S
C1042 C1026 1.368 . S
C1042 C1038 1.368 . S
C1042 C1041 1.523 . S
H1043 C1018 0.950 . S
H1044 C1020 0.950 . S
H1045 C1021 0.949 . S
H1046 C1023 0.950 . S
H1047 C1025 0.950 . S
C1048 C1049 1.349 . S
C1048 C1050 1.327 . S
C1048 H1073 0.950 . S
C1049 C1048 1.349 . S
C1049 C1065 1.349 . S
C1050 C1048 1.327 . S
C1050 C1069 1.429 . S
C1050 H1074 0.950 . S
C1051 C1068 1.574 . S
C1051 C1070 1.368 . S
C1051 H1075 0.949 . S
H1052 C1056 0.949 . S
C1053 C1054 1.349 . S
C1053 C1055 1.327 . S
C1053 H1076 0.950 . S
C1054 C1053 1.349 . S
C1054 C1066 1.349 . S
C1055 C1053 1.327 . S
C1055 C1071 1.429 . S
C1055 H1077 0.950 . S
C1056 H1052 0.949 . S
C1056 C1064 1.574 . S
C1056 C1072 1.368 . S
H1057 C1065 0.950 . S
H1058 C1063 0.950 . S
H1059 C1064 0.949 . S
H1060 C1066 0.950 . S
H1061 C1067 0.950 . S
H1062 C1068 0.949 . S
C1063 H1058 0.950 . S
C1063 C1065 1.327 . S
C1063 C1069 1.429 . S
C1064 C1056 1.574 . S
C1064 H1059 0.949 . S
C1064 C1070 1.368 . S
C1065 C1049 1.349 . S
C1065 H1057 0.950 . S
C1065 C1063 1.327 . S
C1066 C1054 1.349 . S
C1066 H1060 0.950 . S
C1066 C1067 1.327 . S
C1067 H1061 0.950 . S
C1067 C1066 1.327 . S
C1067 C1071 1.429 . S
C1068 C1051 1.574 . S
C1068 H1062 0.949 . S
C1068 C1072 1.368 . S
C1069 C1050 1.429 . S
C1069 C1063 1.429 . S
C1069 C1070 1.523 . S
C1070 C1051 1.368 . S
C1070 C1064 1.368 . S
C1070 C1069 1.523 . S
C1071 C1055 1.429 . S
C1071 C1067 1.429 . S
C1071 C1072 1.523 . S
C1072 C1056 1.368 . S
C1072 C1068 1.368 . S
C1072 C1071 1.523 . S
H1073 C1048 0.950 . S
H1074 C1050 0.950 . S
H1075 C1051 0.949 . S
H1076 C1053 0.950 . S
H1077 C1055 0.950 . S
C1078 C1079 1.349 . S
C1078 C1080 1.327 . S
C1078 H1103 0.950 . S
C1079 C1078 1.349 . S
C1079 C1095 1.349 . S
C1080 C1078 1.327 . S
C1080 C1099 1.429 . S
C1080 H1104 0.950 . S
C1081 C1098 1.574 . S
C1081 C1100 1.368 . S
C1081 H1105 0.949 . S
H1082 C1086 0.949 . S
C1083 C1084 1.349 . S
C1083 C1085 1.327 . S
C1083 H1106 0.950 . S
C1084 C1083 1.349 . S
C1084 C1096 1.349 . S
C1085 C1083 1.327 . S
C1085 C1101 1.429 . S
C1085 H1107 0.950 . S
C1086 H1082 0.949 . S
C1086 C1094 1.574 . S
C1086 C1102 1.368 . S
H1087 C1095 0.950 . S
H1088 C1093 0.950 . S
H1089 C1094 0.949 . S
H1090 C1096 0.950 . S
H1091 C1097 0.950 . S
H1092 C1098 0.949 . S
C1093 H1088 0.950 . S
C1093 C1095 1.327 . S
C1093 C1099 1.429 . S
C1094 C1086 1.574 . S
C1094 H1089 0.949 . S
C1094 C1100 1.368 . S
C1095 C1079 1.349 . S
C1095 H1087 0.950 . S
C1095 C1093 1.327 . S
C1096 C1084 1.349 . S
C1096 H1090 0.950 . S
C1096 C1097 1.327 . S
C1097 H1091 0.950 . S
C1097 C1096 1.327 . S
C1097 C1101 1.429 . S
C1098 C1081 1.574 . S
C1098 H1092 0.949 . S
C1098 C1102 1.368 . S
C1099 C1080 1.429 . S
C1099 C1093 1.429 . S
C1099 C1100 1.523 . S
C1100 C1081 1.368 . S
C1100 C1094 1.368 . S
C1100 C1099 1.523 . S
C1101 C1085 1.429 . S
C1101 C1097 1.429 . S
C1101 C1102 1.523 . S
C1102 C1086 1.368 . S
C1102 C1098 1.368 . S
C1102 C1101 1.523 . S
H1103 C1078 0.950 . S
H1104 C1080 0.950 . S
H1105 C1081 0.949 . S
H1106 C1083 0.950 . S
H1107 C1085 0.950 . S
C1108 C1109 1.349 . S
C1108 C1110 1.327 . S
C1108 H1133 0.950 . S
C1109 C1108 1.349 . S
C1109 C1125 1.349 . S
C1110 C1108 1.327 . S
C1110 C1129 1.429 . S
C1110 H1134 0.950 . S
C1111 C1128 1.574 . S
C1111 C1130 1.368 . S
C1111 H1135 0.949 . S
H1112 C1116 0.949 . S
C1113 C1114 1.349 . S
C1113 C1115 1.327 . S
C1113 H1136 0.950 . S
C1114 C1113 1.349 . S
C1114 C1126 1.349 . S
C1115 C1113 1.327 . S
C1115 C1131 1.429 . S
C1115 H1137 0.950 . S
C1116 H1112 0.949 . S
C1116 C1124 1.574 . S
C1116 C1132 1.368 . S
H1117 C1125 0.950 . S
H1118 C1123 0.950 . S
H1119 C1124 0.949 . S
H1120 C1126 0.950 . S
H1121 C1127 0.950 . S
H1122 C1128 0.949 . S
C1123 H1118 0.950 . S
C1123 C1125 1.327 . S
C1123 C1129 1.429 . S
C1124 C1116 1.574 . S
C1124 H1119 0.949 . S
C1124 C1130 1.368 . S
C1125 C1109 1.349 . S
C1125 H1117 0.950 . S
C1125 C1123 1.327 . S
C1126 C1114 1.349 . S
C1126 H1120 0.950 . S
C1126 C1127 1.327 . S
C1127 H1121 0.950 . S
C1127 C1126 1.327 . S
C1127 C1131 1.429 . S
C1128 C1111 1.574 . S
C1128 H1122 0.949 . S
C1128 C1132 1.368 . S
C1129 C1110 1.429 . S
C1129 C1123 1.429 . S
C1129 C1130 1.523 . S
C1130 C1111 1.368 . S
C1130 C1124 1.368 . S
C1130 C1129 1.523 . S
C1131 C1115 1.429 . S
C1131 C1127 1.429 . S
C1131 C1132 1.523 . S
C1132 C1116 1.368 . S
C1132 C1128 1.368 . S
C1132 C1131 1.523 . S
H1133 C1108 0.950 . S
H1134 C1110 0.950 . S
H1135 C1111 0.949 . S
H1136 C1113 0.950 . S
H1137 C1115 0.950 . S
C1138 C1139 1.349 . S
C1138 C1140 1.327 . S
C1138 H1163 0.950 . S
C1139 C1138 1.349 . S
C1139 C1155 1.349 . S
C1140 C1138 1.327 . S
C1140 C1159 1.429 . S
C1140 H1164 0.950 . S
C1141 C1158 1.574 . S
C1141 C1160 1.368 . S
C1141 H1165 0.949 . S
H1142 C1146 0.949 . S
C1143 C1144 1.349 . S
C1143 C1145 1.327 . S
C1143 H1166 0.950 . S
C1144 C1143 1.349 . S
C1144 C1156 1.349 . S
C1145 C1143 1.327 . S
C1145 C1161 1.429 . S
C1145 H1167 0.950 . S
C1146 H1142 0.949 . S
C1146 C1154 1.574 . S
C1146 C1162 1.368 . S
H1147 C1155 0.950 . S
H1148 C1153 0.950 . S
H1149 C1154 0.949 . S
H1150 C1156 0.950 . S
H1151 C1157 0.950 . S
H1152 C1158 0.949 . S
C1153 H1148 0.950 . S
C1153 C1155 1.327 . S
C1153 C1159 1.429 . S
C1154 C1146 1.574 . S
C1154 H1149 0.949 . S
C1154 C1160 1.368 . S
C1155 C1139 1.349 . S
C1155 H1147 0.950 . S
C1155 C1153 1.327 . S
C1156 C1144 1.349 . S
C1156 H1150 0.950 . S
C1156 C1157 1.327 . S
C1157 H1151 0.950 . S
C1157 C1156 1.327 . S
C1157 C1161 1.429 . S
C1158 C1141 1.574 . S
C1158 H1152 0.949 . S
C1158 C1162 1.368 . S
C1159 C1140 1.429 . S
C1159 C1153 1.429 . S
C1159 C1160 1.523 . S
C1160 C1141 1.368 . S
C1160 C1154 1.368 . S
C1160 C1159 1.523 . S
C1161 C1145 1.429 . S
C1161 C1157 1.429 . S
C1161 C1162 1.523 . S
C1162 C1146 1.368 . S
C1162 C1158 1.368 . S
C1162 C1161 1.523 . S
H1163 C1138 0.950 . S
H1164 C1140 0.950 . S
H1165 C1141 0.949 . S
H1166 C1143 0.950 . S
H1167 C1145 0.950 . S
C1168 C1169 1.349 . S
C1168 C1170 1.327 . S
C1168 H1193 0.950 . S
C1169 C1168 1.349 . S
C1169 C1185 1.349 . S
C1170 C1168 1.327 . S
C1170 C1189 1.429 . S
C1170 H1194 0.950 . S
C1171 C1188 1.574 . S
C1171 C1190 1.368 . S
C1171 H1195 0.949 . S
H1172 C1176 0.949 . S
C1173 C1174 1.349 . S
C1173 C1175 1.327 . S
C1173 H1196 0.950 . S
C1174 C1173 1.349 . S
C1174 C1186 1.349 . S
C1175 C1173 1.327 . S
C1175 C1191 1.429 . S
C1175 H1197 0.950 . S
C1176 H1172 0.949 . S
C1176 C1184 1.574 . S
C1176 C1192 1.368 . S
H1177 C1185 0.950 . S
H1178 C1183 0.950 . S
H1179 C1184 0.949 . S
H1180 C1186 0.950 . S
H1181 C1187 0.950 . S
H1182 C1188 0.949 . S
C1183 H1178 0.950 . S
C1183 C1185 1.327 . S
C1183 C1189 1.429 . S
C1184 C1176 1.574 . S
C1184 H1179 0.949 . S
C1184 C1190 1.368 . S
C1185 C1169 1.349 . S
C1185 H1177 0.950 . S
C1185 C1183 1.327 . S
C1186 C1174 1.349 . S
C1186 H1180 0.950 . S
C1186 C1187 1.327 . S
C1187 H1181 0.950 . S
C1187 C1186 1.327 . S
C1187 C1191 1.429 . S
C1188 C1171 1.574 . S
C1188 H1182 0.949 . S
C1188 C1192 1.368 . S
C1189 C1170 1.429 . S
C1189 C1183 1.429 . S
C1189 C1190 1.523 . S
C1190 C1171 1.368 . S
C1190 C1184 1.368 . S
C1190 C1189 1.523 . S
C1191 C1175 1.429 . S
C1191 C1187 1.429 . S
C1191 C1192 1.523 . S
C1192 C1176 1.368 . S
C1192 C1188 1.368 . S
C1192 C1191 1.523 . S
H1193 C1168 0.950 . S
H1194 C1170 0.950 . S
H1195 C1171 0.949 . S
H1196 C1173 0.950 . S
H1197 C1175 0.950 . S
C1198 C1199 1.349 . S
C1198 C1200 1.327 . S
C1198 H1223 0.950 . S
C1199 C1198 1.349 . S
C1199 C1215 1.349 . S
C1200 C1198 1.327 . S
C1200 C1219 1.429 . S
C1200 H1224 0.950 . S
C1201 C1218 1.574 . S
C1201 C1220 1.368 . S
C1201 H1225 0.949 . S
H1202 C1206 0.949 . S
C1203 C1204 1.349 . S
C1203 C1205 1.327 . S
C1203 H1226 0.950 . S
C1204 C1203 1.349 . S
C1204 C1216 1.349 . S
C1205 C1203 1.327 . S
C1205 C1221 1.429 . S
C1205 H1227 0.950 . S
C1206 H1202 0.949 . S
C1206 C1214 1.574 . S
C1206 C1222 1.368 . S
H1207 C1215 0.950 . S
H1208 C1213 0.950 . S
H1209 C1214 0.949 . S
H1210 C1216 0.950 . S
H1211 C1217 0.950 . S
H1212 C1218 0.949 . S
C1213 H1208 0.950 . S
C1213 C1215 1.327 . S
C1213 C1219 1.429 . S
C1214 C1206 1.574 . S
C1214 H1209 0.949 . S
C1214 C1220 1.368 . S
C1215 C1199 1.349 . S
C1215 H1207 0.950 . S
C1215 C1213 1.327 . S
C1216 C1204 1.349 . S
C1216 H1210 0.950 . S
C1216 C1217 1.327 . S
C1217 H1211 0.950 . S
C1217 C1216 1.327 . S
C1217 C1221 1.429 . S
C1218 C1201 1.574 . S
C1218 H1212 0.949 . S
C1218 C1222 1.368 . S
C1219 C1200 1.429 . S
C1219 C1213 1.429 . S
C1219 C1220 1.523 . S
C1220 C1201 1.368 . S
C1220 C1214 1.368 . S
C1220 C1219 1.523 . S
C1221 C1205 1.429 . S
C1221 C1217 1.429 . S
C1221 C1222 1.523 . S
C1222 C1206 1.368 . S
C1222 C1218 1.368 . S
C1222 C1221 1.523 . S
H1223 C1198 0.950 . S
H1224 C1200 0.950 . S
H1225 C1201 0.949 . S
H1226 C1203 0.950 . S
H1227 C1205 0.950 . S
C1228 C1229 1.349 . S
C1228 C1230 1.327 . S
C1228 H1253 0.950 . S
C1229 C1228 1.349 . S
C1229 C1245 1.349 . S
C1230 C1228 1.327 . S
C1230 C1249 1.429 . S
C1230 H1254 0.950 . S
C1231 C1248 1.574 . S
C1231 C1250 1.368 . S
C1231 H1255 0.949 . S
H1232 C1236 0.949 . S
C1233 C1234 1.349 . S
C1233 C1235 1.327 . S
C1233 H1256 0.950 . S
C1234 C1233 1.349 . S
C1234 C1246 1.349 . S
C1235 C1233 1.327 . S
C1235 C1251 1.429 . S
C1235 H1257 0.950 . S
C1236 H1232 0.949 . S
C1236 C1244 1.574 . S
C1236 C1252 1.368 . S
H1237 C1245 0.950 . S
H1238 C1243 0.950 . S
H1239 C1244 0.949 . S
H1240 C1246 0.950 . S
H1241 C1247 0.950 . S
H1242 C1248 0.949 . S
C1243 H1238 0.950 . S
C1243 C1245 1.327 . S
C1243 C1249 1.429 . S
C1244 C1236 1.574 . S
C1244 H1239 0.949 . S
C1244 C1250 1.368 . S
C1245 C1229 1.349 . S
C1245 H1237 0.950 . S
C1245 C1243 1.327 . S
C1246 C1234 1.349 . S
C1246 H1240 0.950 . S
C1246 C1247 1.327 . S
C1247 H1241 0.950 . S
C1247 C1246 1.327 . S
C1247 C1251 1.429 . S
C1248 C1231 1.574 . S
C1248 H1242 0.949 . S
C1248 C1252 1.368 . S
C1249 C1230 1.429 . S
C1249 C1243 1.429 . S
C1249 C1250 1.523 . S
C1250 C1231 1.368 . S
C1250 C1244 1.368 . S
C1250 C1249 1.523 . S
C1251 C1235 1.429 . S
C1251 C1247 1.429 . S
C1251 C1252 1.523 . S
C1252 C1236 1.368 . S
C1252 C1248 1.368 . S
C1252 C1251 1.523 . S
H1253 C1228 0.950 . S
H1254 C1230 0.950 . S
H1255 C1231 0.949 . S
H1256 C1233 0.950 . S
H1257 C1235 0.950 . S
C1258 C1259 1.349 . S
C1258 C1260 1.327 . S
C1258 H1283 0.950 . S
C1259 C1258 1.349 . S
C1259 C1275 1.349 . S
C1260 C1258 1.327 . S
C1260 C1279 1.429 . S
C1260 H1284 0.950 . S
C1261 C1278 1.574 . S
C1261 C1280 1.368 . S
C1261 H1285 0.949 . S
H1262 C1266 0.949 . S
C1263 C1264 1.349 . S
C1263 C1265 1.327 . S
C1263 H1286 0.950 . S
C1264 C1263 1.349 . S
C1264 C1276 1.349 . S
C1265 C1263 1.327 . S
C1265 C1281 1.429 . S
C1265 H1287 0.950 . S
C1266 H1262 0.949 . S
C1266 C1274 1.574 . S
C1266 C1282 1.368 . S
H1267 C1275 0.950 . S
H1268 C1273 0.950 . S
H1269 C1274 0.949 . S
H1270 C1276 0.950 . S
H1271 C1277 0.950 . S
H1272 C1278 0.949 . S
C1273 H1268 0.950 . S
C1273 C1275 1.327 . S
C1273 C1279 1.429 . S
C1274 C1266 1.574 . S
C1274 H1269 0.949 . S
C1274 C1280 1.368 . S
C1275 C1259 1.349 . S
C1275 H1267 0.950 . S
C1275 C1273 1.327 . S
C1276 C1264 1.349 . S
C1276 H1270 0.950 . S
C1276 C1277 1.327 . S
C1277 H1271 0.950 . S
C1277 C1276 1.327 . S
C1277 C1281 1.429 . S
C1278 C1261 1.574 . S
C1278 H1272 0.949 . S
C1278 C1282 1.368 . S
C1279 C1260 1.429 . S
C1279 C1273 1.429 . S
C1279 C1280 1.523 . S
C1280 C1261 1.368 . S
C1280 C1274 1.368 . S
C1280 C1279 1.523 . S
C1281 C1265 1.429 . S
C1281 C1277 1.429 . S
C1281 C1282 1.523 . S
C1282 C1266 1.368 . S
C1282 C1278 1.368 . S
C1282 C1281 1.523 . S
H1283 C1258 0.950 . S
H1284 C1260 0.950 . S
H1285 C1261 0.949 . S
H1286 C1263 0.950 . S
H1287 C1265 0.950 . S
C1288 C1289 1.349 . S
C1288 C1290 1.327 . S
C1288 H1313 0.950 . S
C1289 C1288 1.349 . S
C1289 C1305 1.349 . S
C1290 C1288 1.327 . S
C1290 C1309 1.429 . S
C1290 H1314 0.950 . S
C1291 C1308 1.574 . S
C1291 C1310 1.368 . S
C1291 H1315 0.949 . S
H1292 C1296 0.949 . S
C1293 C1294 1.349 . S
C1293 C1295 1.327 . S
C1293 H1316 0.950 . S
C1294 C1293 1.349 . S
C1294 C1306 1.349 . S
C1295 C1293 1.327 . S
C1295 C1311 1.429 . S
C1295 H1317 0.950 . S
C1296 H1292 0.949 . S
C1296 C1304 1.574 . S
C1296 C1312 1.368 . S
H1297 C1305 0.950 . S
H1298 C1303 0.950 . S
H1299 C1304 0.949 . S
H1300 C1306 0.950 . S
H1301 C1307 0.950 . S
H1302 C1308 0.949 . S
C1303 H1298 0.950 . S
C1303 C1305 1.327 . S
C1303 C1309 1.429 . S
C1304 C1296 1.574 . S
C1304 H1299 0.949 . S
C1304 C1310 1.368 . S
C1305 C1289 1.349 . S
C1305 H1297 0.950 . S
C1305 C1303 1.327 . S
C1306 C1294 1.349 . S
C1306 H1300 0.950 . S
C1306 C1307 1.327 . S
C1307 H1301 0.950 . S
C1307 C1306 1.327 . S
C1307 C1311 1.429 . S
C1308 C1291 1.574 . S
C1308 H1302 0.949 . S
C1308 C1312 1.368 . S
C1309 C1290 1.429 . S
C1309 C1303 1.429 . S
C1309 C1310 1.523 . S
C1310 C1291 1.368 . S
C1310 C1304 1.368 . S
C1310 C1309 1.523 . S
C1311 C1295 1.429 . S
C1311 C1307 1.429 . S
C1311 C1312 1.523 . S
C1312 C1296 1.368 . S
C1312 C1308 1.368 . S
C1312 C1311 1.523 . S
H1313 C1288 0.950 . S
H1314 C1290 0.950 . S
H1315 C1291 0.949 . S
H1316 C1293 0.950 . S
H1317 C1295 0.950 . S
C1318 C1319 1.349 . S
C1318 C1320 1.327 . S
C1318 H1343 0.950 . S
C1319 C1318 1.349 . S
C1319 C1335 1.349 . S
C1320 C1318 1.327 . S
C1320 C1339 1.429 . S
C1320 H1344 0.950 . S
C1321 C1338 1.574 . S
C1321 C1340 1.368 . S
C1321 H1345 0.949 . S
H1322 C1326 0.949 . S
C1323 C1324 1.349 . S
C1323 C1325 1.327 . S
C1323 H1346 0.950 . S
C1324 C1323 1.349 . S
C1324 C1336 1.349 . S
C1325 C1323 1.327 . S
C1325 C1341 1.429 . S
C1325 H1347 0.950 . S
C1326 H1322 0.949 . S
C1326 C1334 1.574 . S
C1326 C1342 1.368 . S
H1327 C1335 0.950 . S
H1328 C1333 0.950 . S
H1329 C1334 0.949 . S
H1330 C1336 0.950 . S
H1331 C1337 0.950 . S
H1332 C1338 0.949 . S
C1333 H1328 0.950 . S
C1333 C1335 1.327 . S
C1333 C1339 1.429 . S
C1334 C1326 1.574 . S
C1334 H1329 0.949 . S
C1334 C1340 1.368 . S
C1335 C1319 1.349 . S
C1335 H1327 0.950 . S
C1335 C1333 1.327 . S
C1336 C1324 1.349 . S
C1336 H1330 0.950 . S
C1336 C1337 1.327 . S
C1337 H1331 0.950 . S
C1337 C1336 1.327 . S
C1337 C1341 1.429 . S
C1338 C1321 1.574 . S
C1338 H1332 0.949 . S
C1338 C1342 1.368 . S
C1339 C1320 1.429 . S
C1339 C1333 1.429 . S
C1339 C1340 1.523 . S
C1340 C1321 1.368 . S
C1340 C1334 1.368 . S
C1340 C1339 1.523 . S
C1341 C1325 1.429 . S
C1341 C1337 1.429 . S
C1341 C1342 1.523 . S
C1342 C1326 1.368 . S
C1342 C1338 1.368 . S
C1342 C1341 1.523 . S
H1343 C1318 0.950 . S
H1344 C1320 0.950 . S
H1345 C1321 0.949 . S
H1346 C1323 0.950 . S
H1347 C1325 0.950 . S
C1348 C1349 1.349 . S
C1348 C1350 1.327 . S
C1348 H1373 0.950 . S
C1349 C1348 1.349 . S
C1349 C1365 1.349 . S
C1350 C1348 1.327 . S
C1350 C1369 1.429 . S
C1350 H1374 0.950 . S
C1351 C1368 1.574 . S
C1351 C1370 1.368 . S
C1351 H1375 0.949 . S
H1352 C1356 0.949 . S
C1353 C1354 1.349 . S
C1353 C1355 1.327 . S
C1353 H1376 0.950 . S
C1354 C1353 1.349 . S
C1354 C1366 1.349 . S
C1355 C1353 1.327 . S
C1355 C1371 1.429 . S
C1355 H1377 0.950 . S
C1356 H1352 0.949 . S
C1356 C1364 1.574 . S
C1356 C1372 1.368 . S
H1357 C1365 0.950 . S
H1358 C1363 0.950 . S
H1359 C1364 0.949 . S
H1360 C1366 0.950 . S
H1361 C1367 0.950 . S
H1362 C1368 0.949 . S
C1363 H1358 0.950 . S
C1363 C1365 1.327 . S
C1363 C1369 1.429 . S
C1364 C1356 1.574 . S
C1364 H1359 0.949 . S
C1364 C1370 1.368 . S
C1365 C1349 1.349 . S
C1365 H1357 0.950 . S
C1365 C1363 1.327 . S
C1366 C1354 1.349 . S
C1366 H1360 0.950 . S
C1366 C1367 1.327 . S
C1367 H1361 0.950 . S
C1367 C1366 1.327 . S
C1367 C1371 1.429 . S
C1368 C1351 1.574 . S
C1368 H1362 0.949 . S
C1368 C1372 1.368 . S
C1369 C1350 1.429 . S
C1369 C1363 1.429 . S
C1369 C1370 1.523 . S
C1370 C1351 1.368 . S
C1370 C1364 1.368 . S
C1370 C1369 1.523 . S
C1371 C1355 1.429 . S
C1371 C1367 1.429 . S
C1371 C1372 1.523 . S
C1372 C1356 1.368 . S
C1372 C1368 1.368 . S
C1372 C1371 1.523 . S
H1373 C1348 0.950 . S
H1374 C1350 0.950 . S
H1375 C1351 0.949 . S
H1376 C1353 0.950 . S
H1377 C1355 0.950 . S
C1378 C1379 1.349 . S
C1378 C1380 1.327 . S
C1378 H1403 0.950 . S
C1379 C1378 1.349 . S
C1379 C1395 1.349 . S
C1380 C1378 1.327 . S
C1380 C1399 1.429 . S
C1380 H1404 0.950 . S
C1381 C1398 1.574 . S
C1381 C1400 1.368 . S
C1381 H1405 0.949 . S
H1382 C1386 0.949 . S
C1383 C1384 1.349 . S
C1383 C1385 1.327 . S
C1383 H1406 0.950 . S
C1384 C1383 1.349 . S
C1384 C1396 1.349 . S
C1385 C1383 1.327 . S
C1385 C1401 1.429 . S
C1385 H1407 0.950 . S
C1386 H1382 0.949 . S
C1386 C1394 1.574 . S
C1386 C1402 1.368 . S
H1387 C1395 0.950 . S
H1388 C1393 0.950 . S
H1389 C1394 0.949 . S
H1390 C1396 0.950 . S
H1391 C1397 0.950 . S
H1392 C1398 0.949 . S
C1393 H1388 0.950 . S
C1393 C1395 1.327 . S
C1393 C1399 1.429 . S
C1394 C1386 1.574 . S
C1394 H1389 0.949 . S
C1394 C1400 1.368 . S
C1395 C1379 1.349 . S
C1395 H1387 0.950 . S
C1395 C1393 1.327 . S
C1396 C1384 1.349 . S
C1396 H1390 0.950 . S
C1396 C1397 1.327 . S
C1397 H1391 0.950 . S
C1397 C1396 1.327 . S
C1397 C1401 1.429 . S
C1398 C1381 1.574 . S
C1398 H1392 0.949 . S
C1398 C1402 1.368 . S
C1399 C1380 1.429 . S
C1399 C1393 1.429 . S
C1399 C1400 1.523 . S
C1400 C1381 1.368 . S
C1400 C1394 1.368 . S
C1400 C1399 1.523 . S
C1401 C1385 1.429 . S
C1401 C1397 1.429 . S
C1401 C1402 1.523 . S
C1402 C1386 1.368 . S
C1402 C1398 1.368 . S
C1402 C1401 1.523 . S
H1403 C1378 0.950 . S
H1404 C1380 0.950 . S
H1405 C1381 0.949 . S
H1406 C1383 0.950 . S
H1407 C1385 0.950 . S
C1408 C1409 1.349 1_545 S
C1408 C1410 1.327 . S
C1408 H1433 0.950 . S
C1409 C1408 1.349 1_565 S
C1409 C1425 1.349 . S
C1410 C1408 1.327 . S
C1410 C1429 1.429 1_545 S
C1410 H1434 0.950 . S
C1411 C1428 1.574 1_554 S
C1411 C1430 1.368 . S
C1411 H1435 0.949 . S
H1412 C1416 0.949 . S
C1413 C1414 1.349 1_565 S
C1413 C1415 1.327 . S
C1413 H1436 0.950 . S
C1414 C1413 1.349 1_545 S
C1414 C1426 1.349 . S
C1415 C1413 1.327 . S
C1415 C1431 1.429 1_565 S
C1415 H1437 0.950 . S
C1416 H1412 0.949 . S
C1416 C1424 1.574 1_556 S
C1416 C1432 1.368 . S
H1417 C1425 0.950 . S
H1418 C1423 0.950 . S
H1419 C1424 0.949 . S
H1420 C1426 0.950 . S
H1421 C1427 0.950 . S
H1422 C1428 0.949 . S
C1423 H1418 0.950 . S
C1423 C1425 1.327 . S
C1423 C1429 1.429 . S
C1424 C1416 1.574 1_554 S
C1424 H1419 0.949 . S
C1424 C1430 1.368 1_545 S
C1425 C1409 1.349 . S
C1425 H1417 0.950 . S
C1425 C1423 1.327 . S
C1426 C1414 1.349 . S
C1426 H1420 0.950 . S
C1426 C1427 1.327 . S
C1427 H1421 0.950 . S
C1427 C1426 1.327 . S
C1427 C1431 1.429 . S
C1428 C1411 1.574 1_556 S
C1428 H1422 0.949 . S
C1428 C1432 1.368 1_565 S
C1429 C1410 1.429 1_565 S
C1429 C1423 1.429 . S
C1429 C1430 1.523 . S
C1430 C1411 1.368 . S
C1430 C1424 1.368 1_565 S
C1430 C1429 1.523 . S
C1431 C1415 1.429 1_545 S
C1431 C1427 1.429 . S
C1431 C1432 1.523 . S
C1432 C1416 1.368 . S
C1432 C1428 1.368 1_545 S
C1432 C1431 1.523 . S
H1433 C1408 0.950 . S
H1434 C1410 0.950 . S
H1435 C1411 0.949 . S
H1436 C1413 0.950 . S
H1437 C1415 0.950 . S
C1438 C1439 1.349 . S
C1438 C1440 1.327 . S
C1438 H1463 0.950 . S
C1439 C1438 1.349 . S
C1439 C1455 1.349 . S
C1440 C1438 1.327 . S
C1440 C1459 1.429 . S
C1440 H1464 0.950 . S
C1441 C1458 1.574 1_554 S
C1441 C1460 1.368 . S
C1441 H1465 0.949 . S
H1442 C1446 0.949 . S
C1443 C1444 1.349 . S
C1443 C1445 1.327 . S
C1443 H1466 0.950 . S
C1444 C1443 1.349 . S
C1444 C1456 1.349 . S
C1445 C1443 1.327 . S
C1445 C1461 1.429 . S
C1445 H1467 0.950 . S
C1446 H1442 0.949 . S
C1446 C1454 1.574 1_556 S
C1446 C1462 1.368 . S
H1447 C1455 0.950 . S
H1448 C1453 0.950 . S
H1449 C1454 0.949 . S
H1450 C1456 0.950 . S
H1451 C1457 0.950 . S
H1452 C1458 0.949 . S
C1453 H1448 0.950 . S
C1453 C1455 1.327 . S
C1453 C1459 1.429 . S
C1454 C1446 1.574 1_554 S
C1454 H1449 0.949 . S
C1454 C1460 1.368 . S
C1455 C1439 1.349 . S
C1455 H1447 0.950 . S
C1455 C1453 1.327 . S
C1456 C1444 1.349 . S
C1456 H1450 0.950 . S
C1456 C1457 1.327 . S
C1457 H1451 0.950 . S
C1457 C1456 1.327 . S
C1457 C1461 1.429 . S
C1458 C1441 1.574 1_556 S
C1458 H1452 0.949 . S
C1458 C1462 1.368 . S
C1459 C1440 1.429 . S
C1459 C1453 1.429 . S
C1459 C1460 1.523 . S
C1460 C1441 1.368 . S
C1460 C1454 1.368 . S
C1460 C1459 1.523 . S
C1461 C1445 1.429 . S
C1461 C1457 1.429 . S
C1461 C1462 1.523 . S
C1462 C1446 1.368 . S
C1462 C1458 1.368 . S
C1462 C1461 1.523 . S
H1463 C1438 0.950 . S
H1464 C1440 0.950 . S
H1465 C1441 0.949 . S
H1466 C1443 0.950 . S
H1467 C1445 0.950 . S
C1468 C1469 1.349 . S
C1468 C1470 1.327 . S
C1468 H1493 0.950 . S
C1469 C1468 1.349 . S
C1469 C1485 1.349 . S
C1470 C1468 1.327 . S
C1470 C1489 1.429 . S
C1470 H1494 0.950 . S
C1471 C1488 1.574 . S
C1471 C1490 1.368 . S
C1471 H1495 0.949 . S
H1472 C1476 0.949 . S
C1473 C1474 1.349 . S
C1473 C1475 1.327 . S
C1473 H1496 0.950 . S
C1474 C1473 1.349 . S
C1474 C1486 1.349 . S
C1475 C1473 1.327 . S
C1475 C1491 1.429 . S
C1475 H1497 0.950 . S
C1476 H1472 0.949 . S
C1476 C1484 1.574 . S
C1476 C1492 1.368 . S
H1477 C1485 0.950 . S
H1478 C1483 0.950 . S
H1479 C1484 0.949 . S
H1480 C1486 0.950 . S
H1481 C1487 0.950 . S
H1482 C1488 0.949 . S
C1483 H1478 0.950 . S
C1483 C1485 1.327 . S
C1483 C1489 1.429 . S
C1484 C1476 1.574 . S
C1484 H1479 0.949 . S
C1484 C1490 1.368 . S
C1485 C1469 1.349 . S
C1485 H1477 0.950 . S
C1485 C1483 1.327 . S
C1486 C1474 1.349 . S
C1486 H1480 0.950 . S
C1486 C1487 1.327 . S
C1487 H1481 0.950 . S
C1487 C1486 1.327 . S
C1487 C1491 1.429 . S
C1488 C1471 1.574 . S
C1488 H1482 0.949 . S
C1488 C1492 1.368 . S
C1489 C1470 1.429 . S
C1489 C1483 1.429 . S
C1489 C1490 1.523 . S
C1490 C1471 1.368 . S
C1490 C1484 1.368 . S
C1490 C1489 1.523 . S
C1491 C1475 1.429 . S
C1491 C1487 1.429 . S
C1491 C1492 1.523 . S
C1492 C1476 1.368 . S
C1492 C1488 1.368 . S
C1492 C1491 1.523 . S
H1493 C1468 0.950 . S
H1494 C1470 0.950 . S
H1495 C1471 0.949 . S
H1496 C1473 0.950 . S
H1497 C1475 0.950 . S
C1498 C1499 1.349 1_545 S
C1498 C1500 1.327 . S
C1498 H1523 0.950 . S
C1499 C1498 1.349 1_565 S
C1499 C1515 1.349 . S
C1500 C1498 1.327 . S
C1500 C1519 1.429 1_545 S
C1500 H1524 0.950 . S
C1501 C1518 1.574 . S
C1501 C1520 1.363 1_565 S
C1501 H1525 0.949 . S
H1502 C1506 0.949 . S
C1503 C1504 1.349 1_565 S
C1503 C1505 1.327 . S
C1503 H1526 0.950 . S
C1504 C1503 1.349 1_545 S
C1504 C1516 1.349 . S
C1505 C1503 1.327 . S
C1505 C1521 1.429 1_565 S
C1505 H1527 0.950 . S
C1506 H1502 0.949 . S
C1506 C1514 1.574 . S
C1506 C1522 1.368 . S
H1507 C1515 0.950 . S
H1508 C1513 0.950 . S
H1509 C1514 0.949 . S
H1510 C1516 0.950 . S
H1511 C1517 0.950 . S
H1512 C1518 0.949 . S
C1513 H1508 0.950 . S
C1513 C1515 1.327 . S
C1513 C1519 1.429 . S
C1514 C1506 1.574 . S
C1514 H1509 0.949 . S
C1514 C1520 1.374 . S
C1515 C1499 1.349 . S
C1515 H1507 0.950 . S
C1515 C1513 1.327 . S
C1516 C1504 1.349 . S
C1516 H1510 0.950 . S
C1516 C1517 1.327 . S
C1517 H1511 0.950 . S
C1517 C1516 1.327 . S
C1517 C1521 1.429 . S
C1518 C1501 1.574 . S
C1518 H1512 0.949 . S
C1518 C1522 1.368 1_565 S
C1519 C1500 1.429 1_565 S
C1519 C1513 1.429 . S
C1519 C1520 1.523 1_565 S
C1520 C1501 1.363 1_545 S
C1520 C1514 1.374 . S
C1520 C1519 1.523 1_545 S
C1521 C1505 1.429 1_545 S
C1521 C1517 1.429 . S
C1521 C1522 1.523 . S
C1522 C1506 1.368 . S
C1522 C1518 1.368 1_545 S
C1522 C1521 1.523 . S
H1523 C1498 0.950 . S
H1524 C1500 0.950 . S
H1525 C1501 0.949 . S
H1526 C1503 0.950 . S
H1527 C1505 0.950 . S
C1528 C1529 1.349 . S
C1528 C1530 1.327 . S
C1528 H1553 0.950 . S
C1529 C1528 1.349 . S
C1529 C1545 1.349 . S
C1530 C1528 1.327 . S
C1530 C1549 1.429 . S
C1530 H1554 0.950 . S
C1531 C1548 1.574 1_556 S
C1531 C1550 1.368 . S
C1531 H1555 0.949 . S
H1532 C1536 0.949 . S
C1533 C1534 1.349 . S
C1533 C1535 1.327 . S
C1533 H1556 0.950 . S
C1534 C1533 1.349 . S
C1534 C1546 1.349 . S
C1535 C1533 1.327 . S
C1535 C1551 1.429 . S
C1535 H1557 0.950 . S
C1536 H1532 0.949 . S
C1536 C1544 1.574 1_554 S
C1536 C1552 1.368 . S
H1537 C1545 0.950 . S
H1538 C1543 0.950 . S
H1539 C1544 0.949 . S
H1540 C1546 0.950 . S
H1541 C1547 0.950 . S
H1542 C1548 0.949 . S
C1543 H1538 0.950 . S
C1543 C1545 1.327 . S
C1543 C1549 1.429 . S
C1544 C1536 1.574 1_556 S
C1544 H1539 0.949 . S
C1544 C1550 1.368 . S
C1545 C1529 1.349 . S
C1545 H1537 0.950 . S
C1545 C1543 1.327 . S
C1546 C1534 1.349 . S
C1546 H1540 0.950 . S
C1546 C1547 1.327 . S
C1547 H1541 0.950 . S
C1547 C1546 1.327 . S
C1547 C1551 1.429 . S
C1548 C1531 1.574 1_554 S
C1548 H1542 0.949 . S
C1548 C1552 1.368 . S
C1549 C1530 1.429 . S
C1549 C1543 1.429 . S
C1549 C1550 1.523 . S
C1550 C1531 1.368 . S
C1550 C1544 1.368 . S
C1550 C1549 1.523 . S
C1551 C1535 1.429 . S
C1551 C1547 1.429 . S
C1551 C1552 1.523 . S
C1552 C1536 1.368 . S
C1552 C1548 1.368 . S
C1552 C1551 1.523 . S
H1553 C1528 0.950 . S
H1554 C1530 0.950 . S
H1555 C1531 0.949 . S
H1556 C1533 0.950 . S
H1557 C1535 0.950 . S
C1558 C1559 1.349 . S
C1558 C1560 1.327 . S
C1558 H1583 0.950 . S
C1559 C1558 1.349 . S
C1559 C1575 1.349 . S
C1560 C1558 1.327 . S
C1560 C1579 1.429 . S
C1560 H1584 0.950 . S
C1561 C1578 1.574 . S
C1561 C1580 1.368 . S
C1561 H1585 0.949 . S
H1562 C1566 0.949 . S
C1563 C1564 1.349 . S
C1563 C1565 1.327 . S
C1563 H1586 0.950 . S
C1564 C1563 1.349 . S
C1564 C1576 1.349 . S
C1565 C1563 1.327 . S
C1565 C1581 1.429 . S
C1565 H1587 0.950 . S
C1566 H1562 0.949 . S
C1566 C1574 1.574 . S
C1566 C1582 1.368 . S
H1567 C1575 0.950 . S
H1568 C1573 0.950 . S
H1569 C1574 0.949 . S
H1570 C1576 0.950 . S
H1571 C1577 0.950 . S
H1572 C1578 0.949 . S
C1573 H1568 0.950 . S
C1573 C1575 1.327 . S
C1573 C1579 1.429 . S
C1574 C1566 1.574 . S
C1574 H1569 0.949 . S
C1574 C1580 1.368 . S
C1575 C1559 1.349 . S
C1575 H1567 0.950 . S
C1575 C1573 1.327 . S
C1576 C1564 1.349 . S
C1576 H1570 0.950 . S
C1576 C1577 1.327 . S
C1577 H1571 0.950 . S
C1577 C1576 1.327 . S
C1577 C1581 1.429 . S
C1578 C1561 1.574 . S
C1578 H1572 0.949 . S
C1578 C1582 1.368 . S
C1579 C1560 1.429 . S
C1579 C1573 1.429 . S
C1579 C1580 1.523 . S
C1580 C1561 1.368 . S
C1580 C1574 1.368 . S
C1580 C1579 1.523 . S
C1581 C1565 1.429 . S
C1581 C1577 1.429 . S
C1581 C1582 1.523 . S
C1582 C1566 1.368 . S
C1582 C1578 1.368 . S
C1582 C1581 1.523 . S
H1583 C1558 0.950 . S
H1584 C1560 0.950 . S
H1585 C1561 0.949 . S
H1586 C1563 0.950 . S
H1587 C1565 0.950 . S
C1588 C1589 1.349 1_545 S
C1588 C1590 1.327 . S
C1588 H1613 0.950 . S
C1589 C1588 1.349 1_565 S
C1589 C1605 1.349 . S
C1590 C1588 1.327 . S
C1590 C1609 1.429 1_545 S
C1590 H1614 0.950 . S
C1591 C1608 1.574 . S
C1591 C1610 1.368 . S
C1591 H1615 0.949 . S
H1592 C1596 0.949 . S
C1593 C1594 1.349 1_565 S
C1593 C1595 1.327 . S
C1593 H1616 0.950 . S
C1594 C1593 1.349 1_545 S
C1594 C1606 1.349 . S
C1595 C1593 1.327 . S
C1595 C1611 1.429 1_565 S
C1595 H1617 0.950 . S
C1596 H1592 0.949 . S
C1596 C1604 1.574 . S
C1596 C1612 1.364 1_545 S
H1597 C1605 0.950 . S
H1598 C1603 0.950 . S
H1599 C1604 0.949 . S
H1600 C1606 0.950 . S
H1601 C1607 0.950 . S
H1602 C1608 0.949 . S
C1603 H1598 0.950 . S
C1603 C1605 1.327 . S
C1603 C1609 1.429 . S
C1604 C1596 1.574 . S
C1604 H1599 0.949 . S
C1604 C1610 1.368 1_545 S
C1605 C1589 1.349 . S
C1605 H1597 0.950 . S
C1605 C1603 1.327 . S
C1606 C1594 1.349 . S
C1606 H1600 0.950 . S
C1606 C1607 1.327 . S
C1607 H1601 0.950 . S
C1607 C1606 1.327 . S
C1607 C1611 1.429 . S
C1608 C1591 1.574 . S
C1608 H1602 0.949 . S
C1608 C1612 1.373 . S
C1609 C1590 1.429 1_565 S
C1609 C1603 1.429 . S
C1609 C1610 1.523 . S
C1610 C1591 1.368 . S
C1610 C1604 1.368 1_565 S
C1610 C1609 1.523 . S
C1611 C1595 1.429 1_545 S
C1611 C1607 1.429 . S
C1611 C1612 1.523 1_545 S
C1612 C1596 1.364 1_565 S
C1612 C1608 1.373 . S
C1612 C1611 1.523 1_565 S
H1613 C1588 0.950 . S
H1614 C1590 0.950 . S
H1615 C1591 0.949 . S
H1616 C1593 0.950 . S
H1617 C1595 0.950 . S
C1618 C1619 1.349 . S
C1618 C1620 1.327 . S
C1618 H1643 0.950 . S
C1619 C1618 1.349 . S
C1619 C1635 1.349 . S
C1620 C1618 1.327 . S
C1620 C1639 1.429 . S
C1620 H1644 0.950 . S
C1621 C1638 1.574 . S
C1621 C1640 1.368 . S
C1621 H1645 0.949 . S
H1622 C1626 0.949 . S
C1623 C1624 1.349 . S
C1623 C1625 1.327 . S
C1623 H1646 0.950 . S
C1624 C1623 1.349 . S
C1624 C1636 1.349 . S
C1625 C1623 1.327 . S
C1625 C1641 1.429 . S
C1625 H1647 0.950 . S
C1626 H1622 0.949 . S
C1626 C1634 1.574 . S
C1626 C1642 1.368 . S
H1627 C1635 0.950 . S
H1628 C1633 0.950 . S
H1629 C1634 0.949 . S
H1630 C1636 0.950 . S
H1631 C1637 0.950 . S
H1632 C1638 0.949 . S
C1633 H1628 0.950 . S
C1633 C1635 1.327 . S
C1633 C1639 1.429 . S
C1634 C1626 1.574 . S
C1634 H1629 0.949 . S
C1634 C1640 1.368 . S
C1635 C1619 1.349 . S
C1635 H1627 0.950 . S
C1635 C1633 1.327 . S
C1636 C1624 1.349 . S
C1636 H1630 0.950 . S
C1636 C1637 1.327 . S
C1637 H1631 0.950 . S
C1637 C1636 1.327 . S
C1637 C1641 1.429 . S
C1638 C1621 1.574 . S
C1638 H1632 0.949 . S
C1638 C1642 1.368 . S
C1639 C1620 1.429 . S
C1639 C1633 1.429 . S
C1639 C1640 1.523 . S
C1640 C1621 1.368 . S
C1640 C1634 1.368 . S
C1640 C1639 1.523 . S
C1641 C1625 1.429 . S
C1641 C1637 1.429 . S
C1641 C1642 1.523 . S
C1642 C1626 1.368 . S
C1642 C1638 1.368 . S
C1642 C1641 1.523 . S
H1643 C1618 0.950 . S
H1644 C1620 0.950 . S
H1645 C1621 0.949 . S
H1646 C1623 0.950 . S
H1647 C1625 0.950 . S
C1648 C1649 1.349 . S
C1648 C1650 1.327 . S
C1648 H1673 0.950 . S
C1649 C1648 1.349 . S
C1649 C1665 1.349 . S
C1650 C1648 1.327 . S
C1650 C1669 1.429 . S
C1650 H1674 0.950 . S
C1651 C1668 1.574 . S
C1651 C1670 1.368 . S
C1651 H1675 0.949 . S
H1652 C1656 0.949 . S
C1653 C1654 1.349 . S
C1653 C1655 1.327 . S
C1653 H1676 0.950 . S
C1654 C1653 1.349 . S
C1654 C1666 1.349 . S
C1655 C1653 1.327 . S
C1655 C1671 1.429 . S
C1655 H1677 0.950 . S
C1656 H1652 0.949 . S
C1656 C1664 1.574 . S
C1656 C1672 1.368 . S
H1657 C1665 0.950 . S
H1658 C1663 0.950 . S
H1659 C1664 0.949 . S
H1660 C1666 0.950 . S
H1661 C1667 0.950 . S
H1662 C1668 0.949 . S
C1663 H1658 0.950 . S
C1663 C1665 1.327 . S
C1663 C1669 1.429 . S
C1664 C1656 1.574 . S
C1664 H1659 0.949 . S
C1664 C1670 1.368 . S
C1665 C1649 1.349 . S
C1665 H1657 0.950 . S
C1665 C1663 1.327 . S
C1666 C1654 1.349 . S
C1666 H1660 0.950 . S
C1666 C1667 1.327 . S
C1667 H1661 0.950 . S
C1667 C1666 1.327 . S
C1667 C1671 1.429 . S
C1668 C1651 1.574 . S
C1668 H1662 0.949 . S
C1668 C1672 1.368 . S
C1669 C1650 1.429 . S
C1669 C1663 1.429 . S
C1669 C1670 1.523 . S
C1670 C1651 1.368 . S
C1670 C1664 1.368 . S
C1670 C1669 1.523 . S
C1671 C1655 1.429 . S
C1671 C1667 1.429 . S
C1671 C1672 1.523 . S
C1672 C1656 1.368 . S
C1672 C1668 1.368 . S
C1672 C1671 1.523 . S
H1673 C1648 0.950 . S
H1674 C1650 0.950 . S
H1675 C1651 0.949 . S
H1676 C1653 0.950 . S
H1677 C1655 0.950 . S
C1678 C1679 1.349 . S
C1678 C1680 1.327 . S
C1678 H1703 0.950 . S
C1679 C1678 1.349 . S
C1679 C1695 1.349 . S
C1680 C1678 1.327 . S
C1680 C1699 1.429 . S
C1680 H1704 0.950 . S
C1681 C1698 1.574 . S
C1681 C1700 1.368 . S
C1681 H1705 0.949 . S
H1682 C1686 0.949 . S
C1683 C1684 1.349 . S
C1683 C1685 1.327 . S
C1683 H1706 0.950 . S
C1684 C1683 1.349 . S
C1684 C1696 1.349 . S
C1685 C1683 1.327 . S
C1685 C1701 1.429 . S
C1685 H1707 0.950 . S
C1686 H1682 0.949 . S
C1686 C1694 1.574 . S
C1686 C1702 1.368 . S
H1687 C1695 0.950 . S
H1688 C1693 0.950 . S
H1689 C1694 0.949 . S
H1690 C1696 0.950 . S
H1691 C1697 0.950 . S
H1692 C1698 0.949 . S
C1693 H1688 0.950 . S
C1693 C1695 1.327 . S
C1693 C1699 1.429 . S
C1694 C1686 1.574 . S
C1694 H1689 0.949 . S
C1694 C1700 1.368 . S
C1695 C1679 1.349 . S
C1695 H1687 0.950 . S
C1695 C1693 1.327 . S
C1696 C1684 1.349 . S
C1696 H1690 0.950 . S
C1696 C1697 1.327 . S
C1697 H1691 0.950 . S
C1697 C1696 1.327 . S
C1697 C1701 1.429 . S
C1698 C1681 1.574 . S
C1698 H1692 0.949 . S
C1698 C1702 1.368 . S
C1699 C1680 1.429 . S
C1699 C1693 1.429 . S
C1699 C1700 1.523 . S
C1700 C1681 1.368 . S
C1700 C1694 1.368 . S
C1700 C1699 1.523 . S
C1701 C1685 1.429 . S
C1701 C1697 1.429 . S
C1701 C1702 1.523 . S
C1702 C1686 1.368 . S
C1702 C1698 1.368 . S
C1702 C1701 1.523 . S
H1703 C1678 0.950 . S
H1704 C1680 0.950 . S
H1705 C1681 0.949 . S
H1706 C1683 0.950 . S
H1707 C1685 0.950 . S
C1708 C1709 1.349 . S
C1708 C1710 1.327 . S
C1708 H1733 0.950 . S
C1709 C1708 1.349 . S
C1709 C1725 1.349 . S
C1710 C1708 1.327 . S
C1710 C1729 1.429 . S
C1710 H1734 0.950 . S
C1711 C1728 1.574 . S
C1711 C1730 1.368 . S
C1711 H1735 0.949 . S
H1712 C1716 0.949 . S
C1713 C1714 1.349 . S
C1713 C1715 1.327 . S
C1713 H1736 0.950 . S
C1714 C1713 1.349 . S
C1714 C1726 1.349 . S
C1715 C1713 1.327 . S
C1715 C1731 1.429 . S
C1715 H1737 0.950 . S
C1716 H1712 0.949 . S
C1716 C1724 1.574 . S
C1716 C1732 1.368 . S
H1717 C1725 0.950 . S
H1718 C1723 0.950 . S
H1719 C1724 0.949 . S
H1720 C1726 0.950 . S
H1721 C1727 0.950 . S
H1722 C1728 0.949 . S
C1723 H1718 0.950 . S
C1723 C1725 1.327 . S
C1723 C1729 1.429 . S
C1724 C1716 1.574 . S
C1724 H1719 0.949 . S
C1724 C1730 1.368 . S
C1725 C1709 1.349 . S
C1725 H1717 0.950 . S
C1725 C1723 1.327 . S
C1726 C1714 1.349 . S
C1726 H1720 0.950 . S
C1726 C1727 1.327 . S
C1727 H1721 0.950 . S
C1727 C1726 1.327 . S
C1727 C1731 1.429 . S
C1728 C1711 1.574 . S
C1728 H1722 0.949 . S
C1728 C1732 1.368 . S
C1729 C1710 1.429 . S
C1729 C1723 1.429 . S
C1729 C1730 1.523 . S
C1730 C1711 1.368 . S
C1730 C1724 1.368 . S
C1730 C1729 1.523 . S
C1731 C1715 1.429 . S
C1731 C1727 1.429 . S
C1731 C1732 1.523 . S
C1732 C1716 1.368 . S
C1732 C1728 1.368 . S
C1732 C1731 1.523 . S
H1733 C1708 0.950 . S
H1734 C1710 0.950 . S
H1735 C1711 0.949 . S
H1736 C1713 0.950 . S
H1737 C1715 0.950 . S
C1738 C1739 1.349 . S
C1738 C1740 1.327 . S
C1738 H1763 0.950 . S
C1739 C1738 1.349 . S
C1739 C1755 1.349 . S
C1740 C1738 1.327 . S
C1740 C1759 1.429 . S
C1740 H1764 0.950 . S
C1741 C1758 1.574 . S
C1741 C1760 1.368 . S
C1741 H1765 0.949 . S
H1742 C1746 0.949 . S
C1743 C1744 1.349 . S
C1743 C1745 1.327 . S
C1743 H1766 0.950 . S
C1744 C1743 1.349 . S
C1744 C1756 1.349 . S
C1745 C1743 1.327 . S
C1745 C1761 1.429 . S
C1745 H1767 0.950 . S
C1746 H1742 0.949 . S
C1746 C1754 1.574 . S
C1746 C1762 1.368 . S
H1747 C1755 0.950 . S
H1748 C1753 0.950 . S
H1749 C1754 0.949 . S
H1750 C1756 0.950 . S
H1751 C1757 0.950 . S
H1752 C1758 0.949 . S
C1753 H1748 0.950 . S
C1753 C1755 1.327 . S
C1753 C1759 1.429 . S
C1754 C1746 1.574 . S
C1754 H1749 0.949 . S
C1754 C1760 1.368 . S
C1755 C1739 1.349 . S
C1755 H1747 0.950 . S
C1755 C1753 1.327 . S
C1756 C1744 1.349 . S
C1756 H1750 0.950 . S
C1756 C1757 1.327 . S
C1757 H1751 0.950 . S
C1757 C1756 1.327 . S
C1757 C1761 1.429 . S
C1758 C1741 1.574 . S
C1758 H1752 0.949 . S
C1758 C1762 1.368 . S
C1759 C1740 1.429 . S
C1759 C1753 1.429 . S
C1759 C1760 1.523 . S
C1760 C1741 1.368 . S
C1760 C1754 1.368 . S
C1760 C1759 1.523 . S
C1761 C1745 1.429 . S
C1761 C1757 1.429 . S
C1761 C1762 1.523 . S
C1762 C1746 1.368 . S
C1762 C1758 1.368 . S
C1762 C1761 1.523 . S
H1763 C1738 0.950 . S
H1764 C1740 0.950 . S
H1765 C1741 0.949 . S
H1766 C1743 0.950 . S
H1767 C1745 0.950 . S
C1768 C1769 1.349 1_565 S
C1768 C1770 1.327 . S
C1768 H1793 0.950 . S
C1769 C1768 1.349 1_545 S
C1769 C1785 1.349 1_455 S
C1770 C1768 1.327 . S
C1770 C1789 1.448 1_565 S
C1770 H1794 0.950 . S
C1771 C1788 1.574 . S
C1771 C1790 1.370 1_655 S
C1771 H1795 0.949 . S
H1772 C1776 0.949 . S
C1773 C1774 1.381 1_545 S
C1773 C1775 1.327 . S
C1773 H1796 0.950 . S
C1774 C1773 1.381 1_565 S
C1774 C1786 1.318 1_655 S
C1775 C1773 1.327 . S
C1775 C1791 1.441 1_545 S
C1775 H1797 0.950 . S
C1776 H1772 0.949 . S
C1776 C1784 1.574 . S
C1776 C1792 1.377 1_455 S
H1777 C1785 0.950 . S
H1778 C1783 0.950 . S
H1779 C1784 0.949 . S
H1780 C1786 0.950 . S
H1781 C1787 0.950 . S
H1782 C1788 0.949 . S
C1783 H1778 0.950 . S
C1783 C1785 1.327 . S
C1783 C1789 1.410 1_655 S
C1784 C1776 1.574 . S
C1784 H1779 0.949 . S
C1784 C1790 1.367 1_565 S
C1785 C1769 1.349 1_655 S
C1785 H1777 0.950 . S
C1785 C1783 1.327 . S
C1786 C1774 1.318 1_455 S
C1786 H1780 0.950 . S
C1786 C1787 1.327 . S
C1787 H1781 0.950 . S
C1787 C1786 1.327 . S
C1787 C1791 1.417 1_455 S
C1788 C1771 1.574 . S
C1788 H1782 0.949 . S
C1788 C1792 1.359 1_545 S
C1789 C1770 1.448 1_545 S
C1789 C1783 1.410 1_455 S
C1789 C1790 1.523 . S
C1790 C1771 1.370 1_455 S
C1790 C1784 1.367 1_545 S
C1790 C1789 1.523 . S
C1791 C1775 1.441 1_565 S
C1791 C1787 1.417 1_655 S
C1791 C1792 1.523 . S
C1792 C1776 1.377 1_655 S
C1792 C1788 1.359 1_565 S
C1792 C1791 1.523 . S
H1793 C1768 0.950 . S
H1794 C1770 0.950 . S
H1795 C1771 0.949 . S
H1796 C1773 0.950 . S
H1797 C1775 0.950 . S
C1798 C1799 1.349 . S
C1798 C1800 1.327 . S
C1798 H1823 0.950 . S
C1799 C1798 1.349 . S
C1799 C1815 1.349 1_655 S
C1800 C1798 1.327 . S
C1800 C1819 1.448 . S
C1800 H1824 0.950 . S
C1801 C1818 1.574 . S
C1801 C1820 1.359 1_455 S
C1801 H1825 0.949 . S
H1802 C1806 0.949 . S
C1803 C1804 1.381 . S
C1803 C1805 1.327 . S
C1803 H1826 0.950 . S
C1804 C1803 1.381 . S
C1804 C1816 1.318 1_455 S
C1805 C1803 1.327 . S
C1805 C1821 1.441 . S
C1805 H1827 0.950 . S
C1806 H1802 0.949 . S
C1806 C1814 1.574 . S
C1806 C1822 1.366 1_655 S
H1807 C1815 0.950 . S
H1808 C1813 0.950 . S
H1809 C1814 0.949 . S
H1810 C1816 0.950 . S
H1811 C1817 0.950 . S
H1812 C1818 0.949 . S
C1813 H1808 0.950 . S
C1813 C1815 1.327 . S
C1813 C1819 1.410 1_455 S
C1814 C1806 1.574 . S
C1814 H1809 0.949 . S
C1814 C1820 1.378 . S
C1815 C1799 1.349 1_455 S
C1815 H1807 0.950 . S
C1815 C1813 1.327 . S
C1816 C1804 1.318 1_655 S
C1816 H1810 0.950 . S
C1816 C1817 1.327 . S
C1817 H1811 0.950 . S
C1817 C1816 1.327 . S
C1817 C1821 1.417 1_655 S
C1818 C1801 1.574 . S
C1818 H1812 0.949 . S
C1818 C1822 1.370 . S
C1819 C1800 1.448 . S
C1819 C1813 1.410 1_655 S
C1819 C1820 1.523 . S
C1820 C1801 1.359 1_655 S
C1820 C1814 1.378 . S
C1820 C1819 1.523 . S
C1821 C1805 1.441 . S
C1821 C1817 1.417 1_455 S
C1821 C1822 1.523 . S
C1822 C1806 1.366 1_455 S
C1822 C1818 1.370 . S
C1822 C1821 1.523 . S
H1823 C1798 0.950 . S
H1824 C1800 0.950 . S
H1825 C1801 0.949 . S
H1826 C1803 0.950 . S
H1827 C1805 0.950 . S
C1828 C1829 1.349 1_455 S
C1828 C1830 1.327 . S
C1828 H1853 0.950 . S
C1829 C1828 1.349 1_655 S
C1829 C1845 1.349 . S
C1830 C1828 1.327 . S
C1830 C1849 1.410 1_455 S
C1830 H1854 0.950 . S
C1831 C1848 1.574 . S
C1831 C1850 1.378 . S
C1831 H1855 0.949 . S
H1832 C1836 0.949 . S
C1833 C1834 1.318 1_655 S
C1833 C1835 1.327 . S
C1833 H1856 0.950 . S
C1834 C1833 1.318 1_455 S
C1834 C1846 1.381 . S
C1835 C1833 1.327 . S
C1835 C1851 1.417 1_655 S
C1835 H1857 0.950 . S
C1836 H1832 0.949 . S
C1836 C1844 1.574 . S
C1836 C1852 1.370 . S
H1837 C1845 0.950 . S
H1838 C1843 0.950 . S
H1839 C1844 0.949 . S
H1840 C1846 0.950 . S
H1841 C1847 0.950 . S
H1842 C1848 0.949 . S
C1843 H1838 0.950 . S
C1843 C1845 1.327 . S
C1843 C1849 1.448 . S
C1844 C1836 1.574 . S
C1844 H1839 0.949 . S
C1844 C1850 1.359 1_455 S
C1845 C1829 1.349 . S
C1845 H1837 0.950 . S
C1845 C1843 1.327 . S
C1846 C1834 1.381 . S
C1846 H1840 0.950 . S
C1846 C1847 1.327 . S
C1847 H1841 0.950 . S
C1847 C1846 1.327 . S
C1847 C1851 1.441 . S
C1848 C1831 1.574 . S
C1848 H1842 0.949 . S
C1848 C1852 1.366 1_655 S
C1849 C1830 1.410 1_655 S
C1849 C1843 1.448 . S
C1849 C1850 1.523 . S
C1850 C1831 1.378 . S
C1850 C1844 1.359 1_655 S
C1850 C1849 1.523 . S
C1851 C1835 1.417 1_455 S
C1851 C1847 1.441 . S
C1851 C1852 1.523 . S
C1852 C1836 1.370 . S
C1852 C1848 1.366 1_455 S
C1852 C1851 1.523 . S
H1853 C1828 0.950 . S
H1854 C1830 0.950 . S
H1855 C1831 0.949 . S
H1856 C1833 0.950 . S
H1857 C1835 0.950 . S
C1858 C1859 1.349 1_655 S
C1858 C1860 1.327 . S
C1858 H1883 0.950 . S
C1859 C1858 1.349 1_455 S
C1859 C1875 1.349 . S
C1860 C1858 1.327 . S
C1860 C1879 1.411 1_655 S
C1860 H1884 0.950 . S
C1861 C1878 1.574 1_556 S
C1861 C1880 1.378 . S
C1861 H1885 0.949 . S
H1862 C1866 0.949 . S
C1863 C1864 1.319 1_455 S
C1863 C1865 1.327 . S
C1863 H1886 0.950 . S
C1864 C1863 1.319 1_655 S
C1864 C1876 1.381 . S
C1865 C1863 1.327 . S
C1865 C1881 1.417 1_455 S
C1865 H1887 0.950 . S
C1866 H1862 0.949 . S
C1866 C1874 1.574 1_554 S
C1866 C1882 1.370 . S
H1867 C1875 0.950 . S
H1868 C1873 0.950 . S
H1869 C1874 0.949 . S
H1870 C1876 0.950 . S
H1871 C1877 0.950 . S
H1872 C1878 0.949 . S
C1873 H1868 0.950 . S
C1873 C1875 1.327 . S
C1873 C1879 1.448 . S
C1874 C1866 1.574 1_556 S
C1874 H1869 0.949 . S
C1874 C1880 1.359 1_655 S
C1875 C1859 1.349 . S
C1875 H1867 0.950 . S
C1875 C1873 1.327 . S
C1876 C1864 1.381 . S
C1876 H1870 0.950 . S
C1876 C1877 1.327 . S
C1877 H1871 0.950 . S
C1877 C1876 1.327 . S
C1877 C1881 1.441 . S
C1878 C1861 1.574 1_554 S
C1878 H1872 0.949 . S
C1878 C1882 1.366 1_455 S
C1879 C1860 1.411 1_455 S
C1879 C1873 1.448 . S
C1879 C1880 1.523 . S
C1880 C1861 1.378 . S
C1880 C1874 1.359 1_455 S
C1880 C1879 1.523 . S
C1881 C1865 1.417 1_655 S
C1881 C1877 1.441 . S
C1881 C1882 1.523 . S
C1882 C1866 1.370 . S
C1882 C1878 1.366 1_655 S
C1882 C1881 1.523 . S
H1883 C1858 0.950 . S
H1884 C1860 0.950 . S
H1885 C1861 0.949 . S
H1886 C1863 0.950 . S
H1887 C1865 0.950 . S
C1888 C1889 1.349 . S
C1888 C1890 1.327 . S
C1888 H1913 0.950 . S
C1889 C1888 1.349 . S
C1889 C1905 1.349 . S
C1890 C1888 1.327 . S
C1890 C1909 1.429 . S
C1890 H1914 0.950 . S
C1891 C1908 1.574 . S
C1891 C1910 1.368 . S
C1891 H1915 0.949 . S
H1892 C1896 0.949 . S
C1893 C1894 1.349 . S
C1893 C1895 1.327 . S
C1893 H1916 0.950 . S
C1894 C1893 1.349 . S
C1894 C1906 1.349 . S
C1895 C1893 1.327 . S
C1895 C1911 1.429 . S
C1895 H1917 0.950 . S
C1896 H1892 0.949 . S
C1896 C1904 1.574 . S
C1896 C1912 1.368 . S
H1897 C1905 0.950 . S
H1898 C1903 0.950 . S
H1899 C1904 0.949 . S
H1900 C1906 0.950 . S
H1901 C1907 0.950 . S
H1902 C1908 0.949 . S
C1903 H1898 0.950 . S
C1903 C1905 1.327 . S
C1903 C1909 1.429 . S
C1904 C1896 1.574 . S
C1904 H1899 0.949 . S
C1904 C1910 1.368 . S
C1905 C1889 1.349 . S
C1905 H1897 0.950 . S
C1905 C1903 1.327 . S
C1906 C1894 1.349 . S
C1906 H1900 0.950 . S
C1906 C1907 1.327 . S
C1907 H1901 0.950 . S
C1907 C1906 1.327 . S
C1907 C1911 1.429 . S
C1908 C1891 1.574 . S
C1908 H1902 0.949 . S
C1908 C1912 1.368 . S
C1909 C1890 1.429 . S
C1909 C1903 1.429 . S
C1909 C1910 1.523 . S
C1910 C1891 1.368 . S
C1910 C1904 1.368 . S
C1910 C1909 1.523 . S
C1911 C1895 1.429 . S
C1911 C1907 1.429 . S
C1911 C1912 1.523 . S
C1912 C1896 1.368 . S
C1912 C1908 1.368 . S
C1912 C1911 1.523 . S
H1913 C1888 0.950 . S
H1914 C1890 0.950 . S
H1915 C1891 0.949 . S
H1916 C1893 0.950 . S
H1917 C1895 0.950 . S
C1918 C1919 1.349 . S
C1918 C1920 1.327 . S
C1918 H1943 0.950 . S
C1919 C1918 1.349 . S
C1919 C1935 1.349 . S
C1920 C1918 1.327 . S
C1920 C1939 1.429 . S
C1920 H1944 0.950 . S
C1921 C1938 1.574 . S
C1921 C1940 1.368 . S
C1921 H1945 0.949 . S
H1922 C1926 0.949 . S
C1923 C1924 1.349 . S
C1923 C1925 1.327 . S
C1923 H1946 0.950 . S
C1924 C1923 1.349 . S
C1924 C1936 1.349 . S
C1925 C1923 1.327 . S
C1925 C1941 1.429 . S
C1925 H1947 0.950 . S
C1926 H1922 0.949 . S
C1926 C1934 1.574 . S
C1926 C1942 1.368 . S
H1927 C1935 0.950 . S
H1928 C1933 0.950 . S
H1929 C1934 0.949 . S
H1930 C1936 0.950 . S
H1931 C1937 0.950 . S
H1932 C1938 0.949 . S
C1933 H1928 0.950 . S
C1933 C1935 1.327 . S
C1933 C1939 1.429 . S
C1934 C1926 1.574 . S
C1934 H1929 0.949 . S
C1934 C1940 1.368 . S
C1935 C1919 1.349 . S
C1935 H1927 0.950 . S
C1935 C1933 1.327 . S
C1936 C1924 1.349 . S
C1936 H1930 0.950 . S
C1936 C1937 1.327 . S
C1937 H1931 0.950 . S
C1937 C1936 1.327 . S
C1937 C1941 1.429 . S
C1938 C1921 1.574 . S
C1938 H1932 0.949 . S
C1938 C1942 1.368 . S
C1939 C1920 1.429 . S
C1939 C1933 1.429 . S
C1939 C1940 1.523 . S
C1940 C1921 1.368 . S
C1940 C1934 1.368 . S
C1940 C1939 1.523 . S
C1941 C1925 1.429 . S
C1941 C1937 1.429 . S
C1941 C1942 1.523 . S
C1942 C1926 1.368 . S
C1942 C1938 1.368 . S
C1942 C1941 1.523 . S
H1943 C1918 0.950 . S
H1944 C1920 0.950 . S
H1945 C1921 0.949 . S
H1946 C1923 0.950 . S
H1947 C1925 0.950 . S
C1948 C1949 1.349 . S
C1948 C1950 1.327 . S
C1948 H1973 0.950 . S
C1949 C1948 1.349 . S
C1949 C1965 1.349 . S
C1950 C1948 1.327 . S
C1950 C1969 1.429 . S
C1950 H1974 0.950 . S
C1951 C1968 1.574 . S
C1951 C1970 1.368 . S
C1951 H1975 0.949 . S
H1952 C1956 0.949 . S
C1953 C1954 1.349 . S
C1953 C1955 1.327 . S
C1953 H1976 0.950 . S
C1954 C1953 1.349 . S
C1954 C1966 1.349 . S
C1955 C1953 1.327 . S
C1955 C1971 1.429 . S
C1955 H1977 0.950 . S
C1956 H1952 0.949 . S
C1956 C1964 1.574 . S
C1956 C1972 1.368 . S
H1957 C1965 0.950 . S
H1958 C1963 0.950 . S
H1959 C1964 0.949 . S
H1960 C1966 0.950 . S
H1961 C1967 0.950 . S
H1962 C1968 0.949 . S
C1963 H1958 0.950 . S
C1963 C1965 1.327 . S
C1963 C1969 1.429 . S
C1964 C1956 1.574 . S
C1964 H1959 0.949 . S
C1964 C1970 1.368 . S
C1965 C1949 1.349 . S
C1965 H1957 0.950 . S
C1965 C1963 1.327 . S
C1966 C1954 1.349 . S
C1966 H1960 0.950 . S
C1966 C1967 1.327 . S
C1967 H1961 0.950 . S
C1967 C1966 1.327 . S
C1967 C1971 1.429 . S
C1968 C1951 1.574 . S
C1968 H1962 0.949 . S
C1968 C1972 1.368 . S
C1969 C1950 1.429 . S
C1969 C1963 1.429 . S
C1969 C1970 1.523 . S
C1970 C1951 1.368 . S
C1970 C1964 1.368 . S
C1970 C1969 1.523 . S
C1971 C1955 1.429 . S
C1971 C1967 1.429 . S
C1971 C1972 1.523 . S
C1972 C1956 1.368 . S
C1972 C1968 1.368 . S
C1972 C1971 1.523 . S
H1973 C1948 0.950 . S
H1974 C1950 0.950 . S
H1975 C1951 0.949 . S
H1976 C1953 0.950 . S
H1977 C1955 0.950 . S
C1978 C1979 1.349 . S
C1978 C1980 1.327 . S
C1978 H2003 0.950 . S
C1979 C1978 1.349 . S
C1979 C1995 1.349 . S
C1980 C1978 1.327 . S
C1980 C1999 1.429 . S
C1980 H2004 0.950 . S
C1981 C1998 1.574 . S
C1981 C2000 1.368 . S
C1981 H2005 0.949 . S
H1982 C1986 0.949 . S
C1983 C1984 1.349 . S
C1983 C1985 1.327 . S
C1983 H2006 0.950 . S
C1984 C1983 1.349 . S
C1984 C1996 1.349 . S
C1985 C1983 1.327 . S
C1985 C2001 1.429 . S
C1985 H2007 0.950 . S
C1986 H1982 0.949 . S
C1986 C1994 1.574 . S
C1986 C2002 1.368 . S
H1987 C1995 0.950 . S
H1988 C1993 0.950 . S
H1989 C1994 0.949 . S
H1990 C1996 0.950 . S
H1991 C1997 0.950 . S
H1992 C1998 0.949 . S
C1993 H1988 0.950 . S
C1993 C1995 1.327 . S
C1993 C1999 1.429 . S
C1994 C1986 1.574 . S
C1994 H1989 0.949 . S
C1994 C2000 1.368 . S
C1995 C1979 1.349 . S
C1995 H1987 0.950 . S
C1995 C1993 1.327 . S
C1996 C1984 1.349 . S
C1996 H1990 0.950 . S
C1996 C1997 1.327 . S
C1997 H1991 0.950 . S
C1997 C1996 1.327 . S
C1997 C2001 1.429 . S
C1998 C1981 1.574 . S
C1998 H1992 0.949 . S
C1998 C2002 1.368 . S
C1999 C1980 1.429 . S
C1999 C1993 1.429 . S
C1999 C2000 1.523 . S
C2000 C1981 1.368 . S
C2000 C1994 1.368 . S
C2000 C1999 1.523 . S
C2001 C1985 1.429 . S
C2001 C1997 1.429 . S
C2001 C2002 1.523 . S
C2002 C1986 1.368 . S
C2002 C1998 1.368 . S
C2002 C2001 1.523 . S
H2003 C1978 0.950 . S
H2004 C1980 0.950 . S
H2005 C1981 0.949 . S
H2006 C1983 0.950 . S
H2007 C1985 0.950 . S
C2008 C2009 1.349 . S
C2008 C2010 1.327 . S
C2008 H2033 0.950 . S
C2009 C2008 1.349 . S
C2009 C2025 1.349 . S
C2010 C2008 1.327 . S
C2010 C2029 1.429 . S
C2010 H2034 0.950 . S
C2011 C2028 1.574 . S
C2011 C2030 1.368 . S
C2011 H2035 0.949 . S
H2012 C2016 0.949 . S
C2013 C2014 1.349 . S
C2013 C2015 1.327 . S
C2013 H2036 0.950 . S
C2014 C2013 1.349 . S
C2014 C2026 1.349 . S
C2015 C2013 1.327 . S
C2015 C2031 1.429 . S
C2015 H2037 0.950 . S
C2016 H2012 0.949 . S
C2016 C2024 1.574 . S
C2016 C2032 1.368 . S
H2017 C2025 0.950 . S
H2018 C2023 0.950 . S
H2019 C2024 0.949 . S
H2020 C2026 0.950 . S
H2021 C2027 0.950 . S
H2022 C2028 0.949 . S
C2023 H2018 0.950 . S
C2023 C2025 1.327 . S
C2023 C2029 1.429 . S
C2024 C2016 1.574 . S
C2024 H2019 0.949 . S
C2024 C2030 1.368 . S
C2025 C2009 1.349 . S
C2025 H2017 0.950 . S
C2025 C2023 1.327 . S
C2026 C2014 1.349 . S
C2026 H2020 0.950 . S
C2026 C2027 1.327 . S
C2027 H2021 0.950 . S
C2027 C2026 1.327 . S
C2027 C2031 1.429 . S
C2028 C2011 1.574 . S
C2028 H2022 0.949 . S
C2028 C2032 1.368 . S
C2029 C2010 1.429 . S
C2029 C2023 1.429 . S
C2029 C2030 1.523 . S
C2030 C2011 1.368 . S
C2030 C2024 1.368 . S
C2030 C2029 1.523 . S
C2031 C2015 1.429 . S
C2031 C2027 1.429 . S
C2031 C2032 1.523 . S
C2032 C2016 1.368 . S
C2032 C2028 1.368 . S
C2032 C2031 1.523 . S
H2033 C2008 0.950 . S
H2034 C2010 0.950 . S
H2035 C2011 0.949 . S
H2036 C2013 0.950 . S
H2037 C2015 0.950 . S
C2038 C2039 1.349 . S
C2038 C2040 1.327 . S
C2038 H2063 0.950 . S
C2039 C2038 1.349 . S
C2039 C2055 1.349 . S
C2040 C2038 1.327 . S
C2040 C2059 1.429 . S
C2040 H2064 0.950 . S
C2041 C2058 1.574 . S
C2041 C2060 1.368 . S
C2041 H2065 0.949 . S
H2042 C2046 0.949 . S
C2043 C2044 1.349 . S
C2043 C2045 1.327 . S
C2043 H2066 0.950 . S
C2044 C2043 1.349 . S
C2044 C2056 1.349 . S
C2045 C2043 1.327 . S
C2045 C2061 1.429 . S
C2045 H2067 0.950 . S
C2046 H2042 0.949 . S
C2046 C2054 1.574 . S
C2046 C2062 1.368 . S
H2047 C2055 0.950 . S
H2048 C2053 0.950 . S
H2049 C2054 0.949 . S
H2050 C2056 0.950 . S
H2051 C2057 0.950 . S
H2052 C2058 0.949 . S
C2053 H2048 0.950 . S
C2053 C2055 1.327 . S
C2053 C2059 1.429 . S
C2054 C2046 1.574 . S
C2054 H2049 0.949 . S
C2054 C2060 1.368 . S
C2055 C2039 1.349 . S
C2055 H2047 0.950 . S
C2055 C2053 1.327 . S
C2056 C2044 1.349 . S
C2056 H2050 0.950 . S
C2056 C2057 1.327 . S
C2057 H2051 0.950 . S
C2057 C2056 1.327 . S
C2057 C2061 1.429 . S
C2058 C2041 1.574 . S
C2058 H2052 0.949 . S
C2058 C2062 1.368 . S
C2059 C2040 1.429 . S
C2059 C2053 1.429 . S
C2059 C2060 1.523 . S
C2060 C2041 1.368 . S
C2060 C2054 1.368 . S
C2060 C2059 1.523 . S
C2061 C2045 1.429 . S
C2061 C2057 1.429 . S
C2061 C2062 1.523 . S
C2062 C2046 1.368 . S
C2062 C2058 1.368 . S
C2062 C2061 1.523 . S
H2063 C2038 0.950 . S
H2064 C2040 0.950 . S
H2065 C2041 0.949 . S
H2066 C2043 0.950 . S
H2067 C2045 0.950 . S
C2068 C2069 1.349 . S
C2068 C2070 1.327 . S
C2068 H2093 0.950 . S
C2069 C2068 1.349 . S
C2069 C2085 1.349 . S
C2070 C2068 1.327 . S
C2070 C2089 1.429 . S
C2070 H2094 0.950 . S
C2071 C2088 1.574 . S
C2071 C2090 1.368 . S
C2071 H2095 0.949 . S
H2072 C2076 0.949 . S
C2073 C2074 1.349 . S
C2073 C2075 1.327 . S
C2073 H2096 0.950 . S
C2074 C2073 1.349 . S
C2074 C2086 1.349 . S
C2075 C2073 1.327 . S
C2075 C2091 1.429 . S
C2075 H2097 0.950 . S
C2076 H2072 0.949 . S
C2076 C2084 1.574 . S
C2076 C2092 1.368 . S
H2077 C2085 0.950 . S
H2078 C2083 0.950 . S
H2079 C2084 0.949 . S
H2080 C2086 0.950 . S
H2081 C2087 0.950 . S
H2082 C2088 0.949 . S
C2083 H2078 0.950 . S
C2083 C2085 1.327 . S
C2083 C2089 1.429 . S
C2084 C2076 1.574 . S
C2084 H2079 0.949 . S
C2084 C2090 1.368 . S
C2085 C2069 1.349 . S
C2085 H2077 0.950 . S
C2085 C2083 1.327 . S
C2086 C2074 1.349 . S
C2086 H2080 0.950 . S
C2086 C2087 1.327 . S
C2087 H2081 0.950 . S
C2087 C2086 1.327 . S
C2087 C2091 1.429 . S
C2088 C2071 1.574 . S
C2088 H2082 0.949 . S
C2088 C2092 1.368 . S
C2089 C2070 1.429 . S
C2089 C2083 1.429 . S
C2089 C2090 1.523 . S
C2090 C2071 1.368 . S
C2090 C2084 1.368 . S
C2090 C2089 1.523 . S
C2091 C2075 1.429 . S
C2091 C2087 1.429 . S
C2091 C2092 1.523 . S
C2092 C2076 1.368 . S
C2092 C2088 1.368 . S
C2092 C2091 1.523 . S
H2093 C2068 0.950 . S
H2094 C2070 0.950 . S
H2095 C2071 0.949 . S
H2096 C2073 0.950 . S
H2097 C2075 0.950 . S
C2098 C2099 1.349 . S
C2098 C2100 1.327 . S
C2098 H2123 0.950 . S
C2099 C2098 1.349 . S
C2099 C2115 1.349 . S
C2100 C2098 1.327 . S
C2100 C2119 1.429 . S
C2100 H2124 0.950 . S
C2101 C2118 1.574 . S
C2101 C2120 1.368 . S
C2101 H2125 0.949 . S
H2102 C2106 0.949 . S
C2103 C2104 1.349 . S
C2103 C2105 1.327 . S
C2103 H2126 0.950 . S
C2104 C2103 1.349 . S
C2104 C2116 1.349 . S
C2105 C2103 1.327 . S
C2105 C2121 1.429 . S
C2105 H2127 0.950 . S
C2106 H2102 0.949 . S
C2106 C2114 1.574 . S
C2106 C2122 1.368 . S
H2107 C2115 0.950 . S
H2108 C2113 0.950 . S
H2109 C2114 0.949 . S
H2110 C2116 0.950 . S
H2111 C2117 0.950 . S
H2112 C2118 0.949 . S
C2113 H2108 0.950 . S
C2113 C2115 1.327 . S
C2113 C2119 1.429 . S
C2114 C2106 1.574 . S
C2114 H2109 0.949 . S
C2114 C2120 1.368 . S
C2115 C2099 1.349 . S
C2115 H2107 0.950 . S
C2115 C2113 1.327 . S
C2116 C2104 1.349 . S
C2116 H2110 0.950 . S
C2116 C2117 1.327 . S
C2117 H2111 0.950 . S
C2117 C2116 1.327 . S
C2117 C2121 1.429 . S
C2118 C2101 1.574 . S
C2118 H2112 0.949 . S
C2118 C2122 1.368 . S
C2119 C2100 1.429 . S
C2119 C2113 1.429 . S
C2119 C2120 1.523 . S
C2120 C2101 1.368 . S
C2120 C2114 1.368 . S
C2120 C2119 1.523 . S
C2121 C2105 1.429 . S
C2121 C2117 1.429 . S
C2121 C2122 1.523 . S
C2122 C2106 1.368 . S
C2122 C2118 1.368 . S
C2122 C2121 1.523 . S
H2123 C2098 0.950 . S
H2124 C2100 0.950 . S
H2125 C2101 0.949 . S
H2126 C2103 0.950 . S
H2127 C2105 0.950 . S
C2128 C2129 1.349 . S
C2128 C2130 1.327 . S
C2128 H2153 0.950 . S
C2129 C2128 1.349 . S
C2129 C2145 1.349 . S
C2130 C2128 1.327 . S
C2130 C2149 1.429 . S
C2130 H2154 0.950 . S
C2131 C2148 1.574 . S
C2131 C2150 1.368 . S
C2131 H2155 0.949 . S
H2132 C2136 0.949 . S
C2133 C2134 1.349 . S
C2133 C2135 1.327 . S
C2133 H2156 0.950 . S
C2134 C2133 1.349 . S
C2134 C2146 1.349 . S
C2135 C2133 1.327 . S
C2135 C2151 1.429 . S
C2135 H2157 0.950 . S
C2136 H2132 0.949 . S
C2136 C2144 1.574 . S
C2136 C2152 1.368 . S
H2137 C2145 0.950 . S
H2138 C2143 0.950 . S
H2139 C2144 0.949 . S
H2140 C2146 0.950 . S
H2141 C2147 0.950 . S
H2142 C2148 0.949 . S
C2143 H2138 0.950 . S
C2143 C2145 1.327 . S
C2143 C2149 1.429 . S
C2144 C2136 1.574 . S
C2144 H2139 0.949 . S
C2144 C2150 1.368 . S
C2145 C2129 1.349 . S
C2145 H2137 0.950 . S
C2145 C2143 1.327 . S
C2146 C2134 1.349 . S
C2146 H2140 0.950 . S
C2146 C2147 1.327 . S
C2147 H2141 0.950 . S
C2147 C2146 1.327 . S
C2147 C2151 1.429 . S
C2148 C2131 1.574 . S
C2148 H2142 0.949 . S
C2148 C2152 1.368 . S
C2149 C2130 1.429 . S
C2149 C2143 1.429 . S
C2149 C2150 1.523 . S
C2150 C2131 1.368 . S
C2150 C2144 1.368 . S
C2150 C2149 1.523 . S
C2151 C2135 1.429 . S
C2151 C2147 1.429 . S
C2151 C2152 1.523 . S
C2152 C2136 1.368 . S
C2152 C2148 1.368 . S
C2152 C2151 1.523 . S
H2153 C2128 0.950 . S
H2154 C2130 0.950 . S
H2155 C2131 0.949 . S
H2156 C2133 0.950 . S
H2157 C2135 0.950 . S
C2158 C2159 1.349 . S
C2158 C2160 1.327 . S
C2158 H2183 0.950 . S
C2159 C2158 1.349 . S
C2159 C2175 1.349 . S
C2160 C2158 1.327 . S
C2160 C2179 1.429 . S
C2160 H2184 0.950 . S
C2161 C2178 1.574 . S
C2161 C2180 1.368 . S
C2161 H2185 0.949 . S
H2162 C2166 0.949 . S
C2163 C2164 1.349 . S
C2163 C2165 1.327 . S
C2163 H2186 0.950 . S
C2164 C2163 1.349 . S
C2164 C2176 1.349 . S
C2165 C2163 1.327 . S
C2165 C2181 1.429 . S
C2165 H2187 0.950 . S
C2166 H2162 0.949 . S
C2166 C2174 1.574 . S
C2166 C2182 1.368 . S
H2167 C2175 0.950 . S
H2168 C2173 0.950 . S
H2169 C2174 0.949 . S
H2170 C2176 0.950 . S
H2171 C2177 0.950 . S
H2172 C2178 0.949 . S
C2173 H2168 0.950 . S
C2173 C2175 1.327 . S
C2173 C2179 1.429 . S
C2174 C2166 1.574 . S
C2174 H2169 0.949 . S
C2174 C2180 1.368 . S
C2175 C2159 1.349 . S
C2175 H2167 0.950 . S
C2175 C2173 1.327 . S
C2176 C2164 1.349 . S
C2176 H2170 0.950 . S
C2176 C2177 1.327 . S
C2177 H2171 0.950 . S
C2177 C2176 1.327 . S
C2177 C2181 1.429 . S
C2178 C2161 1.574 . S
C2178 H2172 0.949 . S
C2178 C2182 1.368 . S
C2179 C2160 1.429 . S
C2179 C2173 1.429 . S
C2179 C2180 1.523 . S
C2180 C2161 1.368 . S
C2180 C2174 1.368 . S
C2180 C2179 1.523 . S
C2181 C2165 1.429 . S
C2181 C2177 1.429 . S
C2181 C2182 1.523 . S
C2182 C2166 1.368 . S
C2182 C2178 1.368 . S
C2182 C2181 1.523 . S
H2183 C2158 0.950 . S
H2184 C2160 0.950 . S
H2185 C2161 0.949 . S
H2186 C2163 0.950 . S
H2187 C2165 0.950 . S
C2188 C2189 1.349 . S
C2188 C2190 1.327 . S
C2188 H2213 0.950 . S
C2189 C2188 1.349 . S
C2189 C2205 1.349 . S
C2190 C2188 1.327 . S
C2190 C2209 1.429 . S
C2190 H2214 0.950 . S
C2191 C2208 1.574 . S
C2191 C2210 1.368 . S
C2191 H2215 0.949 . S
H2192 C2196 0.949 . S
C2193 C2194 1.349 . S
C2193 C2195 1.327 . S
C2193 H2216 0.950 . S
C2194 C2193 1.349 . S
C2194 C2206 1.349 . S
C2195 C2193 1.327 . S
C2195 C2211 1.429 . S
C2195 H2217 0.950 . S
C2196 H2192 0.949 . S
C2196 C2204 1.574 . S
C2196 C2212 1.368 . S
H2197 C2205 0.950 . S
H2198 C2203 0.950 . S
H2199 C2204 0.949 . S
H2200 C2206 0.950 . S
H2201 C2207 0.950 . S
H2202 C2208 0.949 . S
C2203 H2198 0.950 . S
C2203 C2205 1.327 . S
C2203 C2209 1.429 . S
C2204 C2196 1.574 . S
C2204 H2199 0.949 . S
C2204 C2210 1.368 . S
C2205 C2189 1.349 . S
C2205 H2197 0.950 . S
C2205 C2203 1.327 . S
C2206 C2194 1.349 . S
C2206 H2200 0.950 . S
C2206 C2207 1.327 . S
C2207 H2201 0.950 . S
C2207 C2206 1.327 . S
C2207 C2211 1.429 . S
C2208 C2191 1.574 . S
C2208 H2202 0.949 . S
C2208 C2212 1.368 . S
C2209 C2190 1.429 . S
C2209 C2203 1.429 . S
C2209 C2210 1.523 . S
C2210 C2191 1.368 . S
C2210 C2204 1.368 . S
C2210 C2209 1.523 . S
C2211 C2195 1.429 . S
C2211 C2207 1.429 . S
C2211 C2212 1.523 . S
C2212 C2196 1.368 . S
C2212 C2208 1.368 . S
C2212 C2211 1.523 . S
H2213 C2188 0.950 . S
H2214 C2190 0.950 . S
H2215 C2191 0.949 . S
H2216 C2193 0.950 . S
H2217 C2195 0.950 . S
C2218 C2219 1.349 . S
C2218 C2220 1.327 . S
C2218 H2243 0.950 . S
C2219 C2218 1.349 . S
C2219 C2235 1.349 . S
C2220 C2218 1.327 . S
C2220 C2239 1.429 . S
C2220 H2244 0.950 . S
C2221 C2238 1.574 . S
C2221 C2240 1.368 . S
C2221 H2245 0.949 . S
H2222 C2226 0.949 . S
C2223 C2224 1.349 . S
C2223 C2225 1.327 . S
C2223 H2246 0.950 . S
C2224 C2223 1.349 . S
C2224 C2236 1.349 . S
C2225 C2223 1.327 . S
C2225 C2241 1.429 . S
C2225 H2247 0.950 . S
C2226 H2222 0.949 . S
C2226 C2234 1.574 . S
C2226 C2242 1.368 . S
H2227 C2235 0.950 . S
H2228 C2233 0.950 . S
H2229 C2234 0.949 . S
H2230 C2236 0.950 . S
H2231 C2237 0.950 . S
H2232 C2238 0.949 . S
C2233 H2228 0.950 . S
C2233 C2235 1.327 . S
C2233 C2239 1.429 . S
C2234 C2226 1.574 . S
C2234 H2229 0.949 . S
C2234 C2240 1.368 . S
C2235 C2219 1.349 . S
C2235 H2227 0.950 . S
C2235 C2233 1.327 . S
C2236 C2224 1.349 . S
C2236 H2230 0.950 . S
C2236 C2237 1.327 . S
C2237 H2231 0.950 . S
C2237 C2236 1.327 . S
C2237 C2241 1.429 . S
C2238 C2221 1.574 . S
C2238 H2232 0.949 . S
C2238 C2242 1.368 . S
C2239 C2220 1.429 . S
C2239 C2233 1.429 . S
C2239 C2240 1.523 . S
C2240 C2221 1.368 . S
C2240 C2234 1.368 . S
C2240 C2239 1.523 . S
C2241 C2225 1.429 . S
C2241 C2237 1.429 . S
C2241 C2242 1.523 . S
C2242 C2226 1.368 . S
C2242 C2238 1.368 . S
C2242 C2241 1.523 . S
H2243 C2218 0.950 . S
H2244 C2220 0.950 . S
H2245 C2221 0.949 . S
H2246 C2223 0.950 . S
H2247 C2225 0.950 . S
C2248 C2249 1.349 . S
C2248 C2250 1.327 . S
C2248 H2273 0.950 . S
C2249 C2248 1.349 . S
C2249 C2265 1.349 . S
C2250 C2248 1.327 . S
C2250 C2269 1.429 . S
C2250 H2274 0.950 . S
C2251 C2268 1.574 . S
C2251 C2270 1.368 . S
C2251 H2275 0.949 . S
H2252 C2256 0.949 . S
C2253 C2254 1.349 . S
C2253 C2255 1.327 . S
C2253 H2276 0.950 . S
C2254 C2253 1.349 . S
C2254 C2266 1.349 . S
C2255 C2253 1.327 . S
C2255 C2271 1.429 . S
C2255 H2277 0.950 . S
C2256 H2252 0.949 . S
C2256 C2264 1.574 . S
C2256 C2272 1.368 . S
H2257 C2265 0.950 . S
H2258 C2263 0.950 . S
H2259 C2264 0.949 . S
H2260 C2266 0.950 . S
H2261 C2267 0.950 . S
H2262 C2268 0.949 . S
C2263 H2258 0.950 . S
C2263 C2265 1.327 . S
C2263 C2269 1.429 . S
C2264 C2256 1.574 . S
C2264 H2259 0.949 . S
C2264 C2270 1.368 . S
C2265 C2249 1.349 . S
C2265 H2257 0.950 . S
C2265 C2263 1.327 . S
C2266 C2254 1.349 . S
C2266 H2260 0.950 . S
C2266 C2267 1.327 . S
C2267 H2261 0.950 . S
C2267 C2266 1.327 . S
C2267 C2271 1.429 . S
C2268 C2251 1.574 . S
C2268 H2262 0.949 . S
C2268 C2272 1.368 . S
C2269 C2250 1.429 . S
C2269 C2263 1.429 . S
C2269 C2270 1.523 . S
C2270 C2251 1.368 . S
C2270 C2264 1.368 . S
C2270 C2269 1.523 . S
C2271 C2255 1.429 . S
C2271 C2267 1.429 . S
C2271 C2272 1.523 . S
C2272 C2256 1.368 . S
C2272 C2268 1.368 . S
C2272 C2271 1.523 . S
H2273 C2248 0.950 . S
H2274 C2250 0.950 . S
H2275 C2251 0.949 . S
H2276 C2253 0.950 . S
H2277 C2255 0.950 . S
C2278 C2279 1.349 . S
C2278 C2280 1.327 . S
C2278 H2303 0.950 . S
C2279 C2278 1.349 . S
C2279 C2295 1.349 . S
C2280 C2278 1.327 . S
C2280 C2299 1.429 . S
C2280 H2304 0.950 . S
C2281 C2298 1.574 . S
C2281 C2300 1.368 . S
C2281 H2305 0.949 . S
H2282 C2286 0.949 . S
C2283 C2284 1.349 . S
C2283 C2285 1.327 . S
C2283 H2306 0.950 . S
C2284 C2283 1.349 . S
C2284 C2296 1.349 . S
C2285 C2283 1.327 . S
C2285 C2301 1.429 . S
C2285 H2307 0.950 . S
C2286 H2282 0.949 . S
C2286 C2294 1.574 . S
C2286 C2302 1.368 . S
H2287 C2295 0.950 . S
H2288 C2293 0.950 . S
H2289 C2294 0.949 . S
H2290 C2296 0.950 . S
H2291 C2297 0.950 . S
H2292 C2298 0.949 . S
C2293 H2288 0.950 . S
C2293 C2295 1.327 . S
C2293 C2299 1.429 . S
C2294 C2286 1.574 . S
C2294 H2289 0.949 . S
C2294 C2300 1.368 . S
C2295 C2279 1.349 . S
C2295 H2287 0.950 . S
C2295 C2293 1.327 . S
C2296 C2284 1.349 . S
C2296 H2290 0.950 . S
C2296 C2297 1.327 . S
C2297 H2291 0.950 . S
C2297 C2296 1.327 . S
C2297 C2301 1.429 . S
C2298 C2281 1.574 . S
C2298 H2292 0.949 . S
C2298 C2302 1.368 . S
C2299 C2280 1.429 . S
C2299 C2293 1.429 . S
C2299 C2300 1.523 . S
C2300 C2281 1.368 . S
C2300 C2294 1.368 . S
C2300 C2299 1.523 . S
C2301 C2285 1.429 . S
C2301 C2297 1.429 . S
C2301 C2302 1.523 . S
C2302 C2286 1.368 . S
C2302 C2298 1.368 . S
C2302 C2301 1.523 . S
H2303 C2278 0.950 . S
H2304 C2280 0.950 . S
H2305 C2281 0.949 . S
H2306 C2283 0.950 . S
H2307 C2285 0.950 . S
C2308 C2309 1.349 . S
C2308 C2310 1.327 . S
C2308 H2333 0.950 . S
C2309 C2308 1.349 . S
C2309 C2325 1.349 . S
C2310 C2308 1.327 . S
C2310 C2329 1.429 . S
C2310 H2334 0.950 . S
C2311 C2328 1.574 . S
C2311 C2330 1.368 . S
C2311 H2335 0.949 . S
H2312 C2316 0.949 . S
C2313 C2314 1.349 . S
C2313 C2315 1.327 . S
C2313 H2336 0.950 . S
C2314 C2313 1.349 . S
C2314 C2326 1.349 . S
C2315 C2313 1.327 . S
C2315 C2331 1.429 . S
C2315 H2337 0.950 . S
C2316 H2312 0.949 . S
C2316 C2324 1.574 . S
C2316 C2332 1.368 . S
H2317 C2325 0.950 . S
H2318 C2323 0.950 . S
H2319 C2324 0.949 . S
H2320 C2326 0.950 . S
H2321 C2327 0.950 . S
H2322 C2328 0.949 . S
C2323 H2318 0.950 . S
C2323 C2325 1.327 . S
C2323 C2329 1.429 . S
C2324 C2316 1.574 . S
C2324 H2319 0.949 . S
C2324 C2330 1.368 . S
C2325 C2309 1.349 . S
C2325 H2317 0.950 . S
C2325 C2323 1.327 . S
C2326 C2314 1.349 . S
C2326 H2320 0.950 . S
C2326 C2327 1.327 . S
C2327 H2321 0.950 . S
C2327 C2326 1.327 . S
C2327 C2331 1.429 . S
C2328 C2311 1.574 . S
C2328 H2322 0.949 . S
C2328 C2332 1.368 . S
C2329 C2310 1.429 . S
C2329 C2323 1.429 . S
C2329 C2330 1.523 . S
C2330 C2311 1.368 . S
C2330 C2324 1.368 . S
C2330 C2329 1.523 . S
C2331 C2315 1.429 . S
C2331 C2327 1.429 . S
C2331 C2332 1.523 . S
C2332 C2316 1.368 . S
C2332 C2328 1.368 . S
C2332 C2331 1.523 . S
H2333 C2308 0.950 . S
H2334 C2310 0.950 . S
H2335 C2311 0.949 . S
H2336 C2313 0.950 . S
H2337 C2315 0.950 . S
C2338 C2339 1.349 . S
C2338 C2340 1.327 . S
C2338 H2363 0.950 . S
C2339 C2338 1.349 . S
C2339 C2355 1.349 . S
C2340 C2338 1.327 . S
C2340 C2359 1.429 . S
C2340 H2364 0.950 . S
C2341 C2358 1.574 . S
C2341 C2360 1.368 . S
C2341 H2365 0.949 . S
H2342 C2346 0.949 . S
C2343 C2344 1.349 . S
C2343 C2345 1.327 . S
C2343 H2366 0.950 . S
C2344 C2343 1.349 . S
C2344 C2356 1.349 . S
C2345 C2343 1.327 . S
C2345 C2361 1.429 . S
C2345 H2367 0.950 . S
C2346 H2342 0.949 . S
C2346 C2354 1.574 . S
C2346 C2362 1.368 . S
H2347 C2355 0.950 . S
H2348 C2353 0.950 . S
H2349 C2354 0.949 . S
H2350 C2356 0.950 . S
H2351 C2357 0.950 . S
H2352 C2358 0.949 . S
C2353 H2348 0.950 . S
C2353 C2355 1.327 . S
C2353 C2359 1.429 . S
C2354 C2346 1.574 . S
C2354 H2349 0.949 . S
C2354 C2360 1.368 . S
C2355 C2339 1.349 . S
C2355 H2347 0.950 . S
C2355 C2353 1.327 . S
C2356 C2344 1.349 . S
C2356 H2350 0.950 . S
C2356 C2357 1.327 . S
C2357 H2351 0.950 . S
C2357 C2356 1.327 . S
C2357 C2361 1.429 . S
C2358 C2341 1.574 . S
C2358 H2352 0.949 . S
C2358 C2362 1.368 . S
C2359 C2340 1.429 . S
C2359 C2353 1.429 . S
C2359 C2360 1.523 . S
C2360 C2341 1.368 . S
C2360 C2354 1.368 . S
C2360 C2359 1.523 . S
C2361 C2345 1.429 . S
C2361 C2357 1.429 . S
C2361 C2362 1.523 . S
C2362 C2346 1.368 . S
C2362 C2358 1.368 . S
C2362 C2361 1.523 . S
H2363 C2338 0.950 . S
H2364 C2340 0.950 . S
H2365 C2341 0.949 . S
H2366 C2343 0.950 . S
H2367 C2345 0.950 . S
C449 C13 1.610 . S
C454 C29 1.610 . S
C479 C55 1.603 . S
C484 C27 1.603 . S
C509 C85 1.611 . S
C514 C57 1.611 . S
C539 C98 1.603 . S
C544 C82 1.603 . S
C569 C113 1.611 . S
C574 C141 1.611 . S
C599 C167 1.602 . S
C604 C127 1.602 . S
C629 C169 1.612 . S
C634 C197 1.612 . S
C659 C223 1.603 . S
C664 C183 1.603 . S
C689 C224 1.594 . S
C694 C265 1.593 1_455 S
C719 C238 1.608 . S
C724 C279 1.607 . S
C749 C321 1.594 . S
C754 C280 1.593 1_655 S
C779 C295 1.608 . S
C784 C334 1.607 . S
C809 C377 1.595 1_455 S
C814 C348 1.596 . S
C839 C390 1.607 . S
C844 C362 1.607 . S
C869 C432 1.595 1_655 S
C874 C392 1.595 1_655 S
C899 C406 1.606 . S
C904 C446 1.606 . S
C929 C350 1.766 . S
C934 C1 1.766 . S
C959 C15 1.761 . S
C964 C336 1.755 . S
C989 C41 1.766 . S
C994 C378 1.766 . S
C1019 C43 1.760 . S
C1024 C365 1.754 . S
C1049 C418 1.766 . S
C1054 C69 1.766 . S
C1079 C70 1.761 . S
C1084 C404 1.754 . S
C1109 C97 1.766 . S
C1114 C434 1.766 . S
C1139 C420 1.761 . S
C1144 C110 1.754 . S
C1169 C125 1.766 . S
C1174 C250 1.767 . S
C1199 C139 1.760 . S
C1204 C236 1.754 . S
C1229 C153 1.766 . S
C1234 C267 1.766 . S
C1259 C155 1.760 . S
C1264 C253 1.754 . S
C1289 C181 1.766 . S
C1294 C307 1.766 . S
C1319 C292 1.761 . S
C1324 C195 1.755 . S
C1349 C322 1.766 . S
C1354 C209 1.766 . S
C1379 C211 1.761 . S
C1384 C309 1.754 . S
C1409 C12 1.607 1_565 S
C1414 C56 1.608 1_545 S
C1439 C26 1.604 . S
C1444 C407 1.604 . S
C1469 C28 1.610 . S
C1474 C196 1.609 . S
C1499 C54 1.604 1_565 S
C1504 C335 1.603 . S
C1529 C83 1.604 . S
C1534 C363 1.603 . S
C1559 C140 1.610 . S
C1564 C84 1.609 . S
C1589 C278 1.603 . S
C1594 C99 1.604 1_545 S
C1619 C168 1.609 . S
C1624 C112 1.610 . S
C1649 C126 1.603 . S
C1654 C294 1.602 . S
C1679 C447 1.602 . S
C1684 C166 1.603 . S
C1709 C182 1.602 . S
C1714 C239 1.602 . S
C1739 C222 1.601 . S
C1744 C391 1.601 . S
C1769 C281 1.595 1_545 S
C1774 C225 1.592 1_565 S
C1799 C264 1.596 . S
C1804 C433 1.594 . S
C1829 C376 1.596 . S
C1834 C320 1.593 . S
C1859 C393 1.596 . S
C1864 C349 1.593 . S
C1889 C0 1.252 . S
C1894 C14 1.252 . S
C1919 C40 1.251 . S
C1924 C42 1.251 . S
C1949 C68 1.251 . S
C1954 C71 1.252 . S
C1979 C96 1.251 . S
C1984 C111 1.251 . S
C2009 C138 1.251 . S
C2014 C124 1.251 . S
C2039 C152 1.251 . S
C2044 C154 1.251 . S
C2069 C180 1.251 . S
C2074 C194 1.251 . S
C2099 C208 1.251 . S
C2104 C210 1.251 . S
C2129 C237 1.260 . S
C2134 C251 1.267 . S
C2159 C266 1.260 . S
C2164 C252 1.266 . S
C2189 C293 1.260 . S
C2194 C306 1.266 . S
C2219 C308 1.259 . S
C2224 C323 1.266 . S
C2249 C351 1.259 . S
C2254 C337 1.265 . S
C2279 C364 1.260 . S
C2284 C379 1.266 . S
C2309 C419 1.259 . S
C2314 C405 1.265 . S
C2339 C421 1.259 . S
C2344 C435 1.266 . S
