# Generated by pormake.
# Topology lcv, (4)-cn, num edge types: 1
# Building blocks:
#     Node 0, Type 0, BuildingBlock: ESEHIV_clean_sbu_0, # of connection points: 4
#     Node 1, Type 0, BuildingBlock: ESEHIV_clean_sbu_0, # of connection points: 4
#     Node 2, Type 0, BuildingBlock: ESEHIV_clean_sbu_0, # of connection points: 4
#     Node 3, Type 0, BuildingBlock: ESEHIV_clean_sbu_0, # of connection points: 4
#     Node 4, Type 0, BuildingBlock: ESEHIV_clean_sbu_0, # of connection points: 4
#     Node 5, Type 0, BuildingBlock: ESEHIV_clean_sbu_0, # of connection points: 4
#     Node 6, Type 0, BuildingBlock: ESEHIV_clean_sbu_0, # of connection points: 4
#     Node 7, Type 0, BuildingBlock: ESEHIV_clean_sbu_0, # of connection points: 4
#     Node 8, Type 0, BuildingBlock: ESEHIV_clean_sbu_0, # of connection points: 4
#     Node 9, Type 0, BuildingBlock: ESEHIV_clean_sbu_0, # of connection points: 4
#     Node 10, Type 0, BuildingBlock: ESEHIV_clean_sbu_0, # of connection points: 4
#     Node 11, Type 0, BuildingBlock: ESEHIV_clean_sbu_0, # of connection points: 4
#     Edge 12, Type (0, 0), BuildingBlock: EZIPEK_clean_linker_0, # of connection points: 2
#     Edge 13, Type (0, 0), BuildingBlock: EZIPEK_clean_linker_0, # of connection points: 2
#     Edge 14, Type (0, 0), BuildingBlock: EZIPEK_clean_linker_0, # of connection points: 2
#     Edge 15, Type (0, 0), BuildingBlock: EZIPEK_clean_linker_0, # of connection points: 2
#     Edge 16, Type (0, 0), BuildingBlock: EZIPEK_clean_linker_0, # of connection points: 2
#     Edge 17, Type (0, 0), BuildingBlock: EZIPEK_clean_linker_0, # of connection points: 2
#     Edge 18, Type (0, 0), BuildingBlock: EZIPEK_clean_linker_0, # of connection points: 2
#     Edge 19, Type (0, 0), BuildingBlock: EZIPEK_clean_linker_0, # of connection points: 2
#     Edge 20, Type (0, 0), BuildingBlock: EZIPEK_clean_linker_0, # of connection points: 2
#     Edge 21, Type (0, 0), BuildingBlock: EZIPEK_clean_linker_0, # of connection points: 2
#     Edge 22, Type (0, 0), BuildingBlock: EZIPEK_clean_linker_0, # of connection points: 2
#     Edge 23, Type (0, 0), BuildingBlock: EZIPEK_clean_linker_0, # of connection points: 2
#     Edge 24, Type (0, 0), BuildingBlock: EZIPEK_clean_linker_0, # of connection points: 2
#     Edge 25, Type (0, 0), BuildingBlock: EZIPEK_clean_linker_0, # of connection points: 2
#     Edge 26, Type (0, 0), BuildingBlock: EZIPEK_clean_linker_0, # of connection points: 2
#     Edge 27, Type (0, 0), BuildingBlock: EZIPEK_clean_linker_0, # of connection points: 2
#     Edge 28, Type (0, 0), BuildingBlock: EZIPEK_clean_linker_0, # of connection points: 2
#     Edge 29, Type (0, 0), BuildingBlock: EZIPEK_clean_linker_0, # of connection points: 2
#     Edge 30, Type (0, 0), BuildingBlock: EZIPEK_clean_linker_0, # of connection points: 2
#     Edge 31, Type (0, 0), BuildingBlock: EZIPEK_clean_linker_0, # of connection points: 2
#     Edge 32, Type (0, 0), BuildingBlock: EZIPEK_clean_linker_0, # of connection points: 2
#     Edge 33, Type (0, 0), BuildingBlock: EZIPEK_clean_linker_0, # of connection points: 2
#     Edge 34, Type (0, 0), BuildingBlock: EZIPEK_clean_linker_0, # of connection points: 2
#     Edge 35, Type (0, 0), BuildingBlock: EZIPEK_clean_linker_0, # of connection points: 2
# Relax obj value: 0.164
# Max RMSD: 0.315
# Mean RMSD: 0.279
data_MOF--net-lcv--node1-ESEHIV_clean_sbu_0--edge1-EZIPEK_clean_linker_0
_symmetry_space_group_name_H-M    P1
_symmetry_Int_Tables_number       1
_symmetry_cell_setting            triclinic
loop_
_symmetry_equiv_pos_as_xyz
'x, y, z'
_cell_length_a     37.670116
_cell_length_b     36.516395
_cell_length_c     37.037974
_cell_angle_alpha  97.718485
_cell_angle_beta   89.798111
_cell_angle_gamma 104.37365
loop_
_atom_site_label
_atom_site_type_symbol
_atom_site_fract_x
_atom_site_fract_y
_atom_site_fract_z
_atom_type_partial_charge
Cu0 Cu 0.07794 0.2626 0.21159 0.0
N1 N 0.07615 0.2143 0.22412 0.0
N2 N 0.0942 0.16122 0.22803 0.0
C3 C 0.10494 0.1988 0.22557 0.0
C4 C 0.05731 0.15256 0.22857 0.0
C5 C 0.04621 0.18551 0.22622 0.0
O6 O 0.12501 0.28127 0.19045 0.0
C7 C 0.0802 0.33379 0.2524 0.0
O8 O 0.09791 0.34654 0.22419 0.0
H9 H 0.13309 0.2141 0.22269 0.0
H10 H 0.01826 0.18786 0.22401 0.0
N11 N 0.04191 0.25831 0.17599 0.0
N12 N 0.00476 0.27532 0.13859 0.0
C13 C 0.02832 0.28687 0.16746 0.0
C14 C 0.0264 0.22769 0.15158 0.0
C15 C 0.00336 0.23818 0.12828 0.0
C16 C 0.13409 0.26021 0.16365 0.0
O17 O 0.11095 0.22783 0.15078 0.0
H18 H 0.0362 0.31581 0.18139 0.0
H19 H 0.03221 0.19999 0.15022 0.0
O20 O 0.07007 0.29796 0.25331 0.0
H21 H 0.03979 0.12424 0.2291 0.0
H22 H 0.98743 0.22037 0.10524 0.0
Cu23 Cu 0.15089 0.83667 0.4685 0.0
N24 N 0.13952 0.87253 0.44262 0.0
N25 N 0.15001 0.92304 0.41302 0.0
C26 C 0.16353 0.89504 0.42311 0.0
C27 C 0.11618 0.91823 0.4266 0.0
C28 C 0.10974 0.88682 0.445 0.0
O29 O 0.20376 0.84967 0.4718 0.0
C30 C 0.14387 0.7588 0.43456 0.0
O31 O 0.1795 0.76522 0.43949 0.0
H32 H 0.19104 0.89209 0.4178 0.0
H33 H 0.0859 0.87633 0.46056 0.0
N34 N 0.13238 0.84421 0.51459 0.0
N35 N 0.09562 0.8327 0.56098 0.0
C36 C 0.11048 0.81733 0.53149 0.0
C37 C 0.13204 0.87781 0.5345 0.0
C38 C 0.10912 0.87075 0.56324 0.0
C39 C 0.22179 0.85404 0.50164 0.0
O40 O 0.20517 0.84223 0.53073 0.0
H41 H 0.10249 0.78754 0.52046 0.0
H42 H 0.14532 0.90548 0.52706 0.0
O43 O 0.12785 0.78514 0.44485 0.0
H44 H 0.09806 0.93667 0.42418 0.0
H45 H 0.10085 0.89182 0.5826 0.0
Cu46 Cu 0.66362 0.85381 0.71765 0.0
N47 N 0.64374 0.8124 0.74166 0.0
N48 N 0.64175 0.77346 0.78333 0.0
C49 C 0.66339 0.79805 0.76372 0.0
C50 C 0.607 0.77206 0.77337 0.0
C51 C 0.60833 0.79627 0.74742 0.0
O52 O 0.71602 0.85954 0.72059 0.0
C53 C 0.64772 0.92698 0.73199 0.0
O54 O 0.66107 0.93314 0.69995 0.0
H55 H 0.69291 0.80754 0.76738 0.0
H56 H 0.58526 0.80351 0.73544 0.0
N57 N 0.64624 0.84368 0.66914 0.0
N58 N 0.61604 0.84773 0.61871 0.0
C59 C 0.61885 0.85571 0.65535 0.0
C60 C 0.66045 0.82638 0.64018 0.0
C61 C 0.64234 0.82953 0.60892 0.0
C62 C 0.73803 0.86683 0.69494 0.0
O63 O 0.72807 0.88074 0.66682 0.0
H64 H 0.60221 0.87145 0.67152 0.0
H65 H 0.68333 0.81363 0.64148 0.0
O66 O 0.64855 0.89644 0.74439 0.0
H67 H 0.58269 0.75642 0.78545 0.0
H68 H 0.64829 0.8198 0.58118 0.0
Cu69 Cu 0.62687 0.37916 0.95471 0.0
N70 N 0.632 0.41401 0.9217 0.0
N71 N 0.65701 0.45412 0.8823 0.0
C72 C 0.66313 0.43217 0.9073 0.0
C73 C 0.62031 0.45074 0.88324 0.0
C74 C 0.60505 0.42552 0.90677 0.0
O75 O 0.67419 0.38273 0.97734 0.0
C76 C 0.61142 0.3195 0.89567 0.0
O77 O 0.63563 0.34337 0.87891 0.0
H78 H 0.68964 0.43025 0.91657 0.0
H79 H 0.57644 0.41691 0.91334 0.0
N80 N 0.59624 0.39181 0.99116 0.0
N81 N 0.55128 0.38684 0.03063 0.0
C82 C 0.56448 0.36974 1.00092 0.0
C83 C 0.60318 0.42387 0.01544 0.0
C84 C 0.57541 0.42081 0.04007 0.0
C85 C 0.6764 0.3711 0.00794 0.0
O86 O 0.64648 0.35356 0.023 0.0
H87 H 0.55187 0.34136 0.98727 0.0
H88 H 0.62732 0.4473 0.01575 0.0
O89 O 0.60485 0.32863 0.92897 0.0
H90 H 0.6052 0.46679 0.86971 0.0
H91 H 0.57327 0.44145 0.06333 0.0
Cu92 Cu 0.28521 0.07109 0.28706 0.0
N93 N 0.25016 0.06318 0.24961 0.0
N94 N 0.19984 0.07406 0.22632 0.0
C95 C 0.22965 0.08832 0.24842 0.0
C96 C 0.20156 0.03843 0.21256 0.0
C97 C 0.2329 0.03174 0.22704 0.0
O98 O 0.31076 0.12451 0.2898 0.0
C99 C 0.24348 0.01978 0.32593 0.0
O100 O 0.2516 0.99782 0.29769 0.0
H101 H 0.23459 0.11526 0.26618 0.0
H102 H 0.24066 0.00492 0.22382 0.0
N103 N 0.31992 0.0423 0.28081 0.0
N104 N 0.36337 0.01611 0.29822 0.0
C105 C 0.34119 0.03902 0.30864 0.0
C106 C 0.329 0.02069 0.25155 0.0
C107 C 0.35608 0.0044 0.26231 0.0
C108 C 0.32675 0.13188 0.2603 0.0
O109 O 0.32682 0.10343 0.23453 0.0
H110 H 0.34002 0.05275 0.33626 0.0
H111 H 0.3166 0.01676 0.22456 0.0
O112 O 0.25682 0.05577 0.32872 0.0
H113 H 0.18049 0.01798 0.19546 0.0
H114 H 0.36901 0.98519 0.24539 0.0
Cu115 Cu 0.44623 0.95796 0.51153 0.0
N116 N 0.45845 0.97261 0.46574 0.0
N117 N 0.45019 0.98556 0.40963 0.0
C118 C 0.43558 0.98171 0.44256 0.0
C119 C 0.48358 0.97867 0.41188 0.0
C120 C 0.48864 0.97071 0.4467 0.0
O121 O 0.39417 0.9355 0.51098 0.0
C122 C 0.44563 0.9986 0.58145 0.0
O123 O 0.41514 0.97221 0.58352 0.0
H124 H 0.40805 0.98368 0.44896 0.0
H125 H 0.51195 0.9624 0.45687 0.0
N126 N 0.46659 0.91852 0.52024 0.0
N127 N 0.50473 0.88827 0.54188 0.0
C128 C 0.50187 0.91946 0.52731 0.0
C129 C 0.44678 0.88544 0.52988 0.0
C130 C 0.47019 0.86678 0.54331 0.0
C131 C 0.36851 0.95228 0.51067 0.0
O132 O 0.376 0.98954 0.51192 0.0
H133 H 0.52459 0.94367 0.52458 0.0
H134 H 0.41715 0.87679 0.52963 0.0
O135 O 0.46268 0.99911 0.5517 0.0
H136 H 0.50222 0.97809 0.38963 0.0
H137 H 0.46244 0.8404 0.555 0.0
Cu138 Cu 0.50245 0.09832 0.79805 0.0
N139 N 0.52984 0.06614 0.81139 0.0
N140 N 0.56719 0.02726 0.80632 0.0
C141 C 0.55564 0.05406 0.79141 0.0
C142 C 0.54855 0.02269 0.83721 0.0
C143 C 0.52553 0.04697 0.84037 0.0
O144 O 0.48584 0.08062 0.74739 0.0
C145 C 0.5215 0.17879 0.81845 0.0
O146 O 0.48602 0.17571 0.81765 0.0
H147 H 0.56424 0.06299 0.76538 0.0
H148 H 0.50566 0.04902 0.86122 0.0
N149 N 0.46113 0.09372 0.82679 0.0
N150 N 0.42394 0.10206 0.87238 0.0
C151 C 0.45872 0.11042 0.86114 0.0
C152 C 0.42675 0.07393 0.8163 0.0
C153 C 0.40364 0.07911 0.84443 0.0
C154 C 0.5047 0.08769 0.71943 0.0
O155 O 0.53769 0.11075 0.72324 0.0
H156 H 0.48165 0.12915 0.87722 0.0
H157 H 0.41897 0.05753 0.78972 0.0
O158 O 0.5337 0.14983 0.80764 0.0
H159 H 0.54978 0.00159 0.85477 0.0
H160 H 0.37421 0.06776 0.8442 0.0
Cu161 Cu 0.36523 0.23967 0.0904 0.0
N162 N 0.35863 0.19761 0.05439 0.0
N163 N 0.367 0.15946 0.00465 0.0
C164 C 0.3799 0.19335 0.02561 0.0
C165 C 0.33658 0.14167 0.02062 0.0
C166 C 0.33147 0.16537 0.05145 0.0
O167 O 0.41128 0.27474 0.08206 0.0
C168 C 0.3625 0.24239 0.16791 0.0
O169 O 0.36249 0.27845 0.1688 0.0
H170 H 0.40412 0.21466 0.01995 0.0
H171 H 0.30944 0.15967 0.07033 0.0
N172 N 0.32649 0.26228 0.08669 0.0
N173 N 0.27335 0.27737 0.09742 0.0
C174 C 0.29537 0.25537 0.10528 0.0
C175 C 0.32373 0.28906 0.0659 0.0
C176 C 0.29098 0.29881 0.0728 0.0
C177 C 0.41952 0.31037 0.09321 0.0
O178 O 0.3971 0.32559 0.11391 0.0
H179 H 0.28904 0.23482 0.12433 0.0
H180 H 0.3441 0.30063 0.04711 0.0
O181 O 0.36504 0.22217 0.13767 0.0
H182 H 0.31932 0.11374 0.01055 0.0
H183 H 0.28083 0.31981 0.06076 0.0
Cu184 Cu 0.88497 0.46296 0.1083 0.0
N185 N 0.90548 0.50886 0.09141 0.0
N186 N 0.90955 0.56299 0.06874 0.0
C187 C 0.88733 0.52947 0.07467 0.0
C188 C 0.94293 0.56378 0.08222 0.0
C189 C 0.94033 0.53004 0.09619 0.0
O190 O 0.8338 0.44605 0.09218 0.0
C191 C 0.88717 0.50117 0.17973 0.0
O192 O 0.87391 0.52531 0.16398 0.0
H193 H 0.85825 0.52062 0.06787 0.0
H194 H 0.96197 0.52195 0.10983 0.0
N195 N 0.90947 0.42717 0.08837 0.0
N196 N 0.93775 0.38021 0.08386 0.0
C197 C 0.92447 0.40513 0.1067 0.0
C198 C 0.9135 0.41587 0.05278 0.0
C199 C 0.93095 0.3866 0.04988 0.0
C200 C 0.81734 0.4109 0.08466 0.0
O201 O 0.83397 0.38462 0.09084 0.0
H202 H 0.92483 0.40661 0.1361 0.0
H203 H 0.9036 0.42751 0.03058 0.0
O204 O 0.89192 0.47108 0.16087 0.0
H205 H 0.96706 0.58724 0.08244 0.0
H206 H 0.93765 0.37086 0.02499 0.0
Cu207 Cu 0.00059 0.53923 0.38164 0.0
N208 N 0.02298 0.49878 0.37964 0.0
N209 N 0.04404 0.44845 0.35792 0.0
C210 C 0.02809 0.47562 0.3496 0.0
C211 C 0.04913 0.45452 0.39443 0.0
C212 C 0.03607 0.4857 0.4078 0.0
O213 O 0.97767 0.53622 0.33387 0.0
C214 C 0.04843 0.61255 0.37395 0.0
O215 O 0.03614 0.60622 0.33998 0.0
H216 H 0.02001 0.47834 0.32226 0.0
H217 H 0.03576 0.49778 0.43608 0.0
N218 N 0.96529 0.53435 0.41753 0.0
N219 N 0.93156 0.54976 0.46403 0.0
C220 C 0.9616 0.56153 0.44465 0.0
C221 C 0.93686 0.50416 0.42027 0.0
C222 C 0.9158 0.51371 0.44891 0.0
C223 C 0.94459 0.53724 0.32846 0.0
O224 O 0.92386 0.54301 0.35612 0.0
H225 H 0.98004 0.58963 0.44975 0.0
H226 H 0.93128 0.47754 0.40199 0.0
O227 O 0.03701 0.58752 0.39502 0.0
H228 H 0.06119 0.43749 0.41016 0.0
H229 H 0.89061 0.49596 0.45758 0.0
Cu230 Cu 0.91614 0.71949 0.67124 0.0
N231 N 0.89187 0.68583 0.63147 0.0
N232 N 0.8853 0.64313 0.58138 0.0
C233 C 0.909 0.66666 0.60645 0.0
C234 C 0.85179 0.64721 0.59089 0.0
C235 C 0.85592 0.67363 0.62207 0.0
O236 O 0.96615 0.73723 0.65722 0.0
C237 C 0.93094 0.70554 0.74216 0.0
O238 O 0.9619 0.73152 0.74083 0.0
H239 H 0.9383 0.66951 0.60685 0.0
H240 H 0.83423 0.68268 0.63711 0.0
N241 N 0.89855 0.76291 0.68312 0.0
N242 N 0.86401 0.80458 0.69117 0.0
C243 C 0.86669 0.7703 0.67417 0.0
C244 C 0.91656 0.79369 0.70605 0.0
C245 C 0.89519 0.81936 0.7113 0.0
C246 C 0.96902 0.75926 0.63294 0.0
O247 O 0.93935 0.76717 0.62098 0.0
H248 H 0.84536 0.75062 0.65678 0.0
H249 H 0.94313 0.79676 0.71874 0.0
O250 O 0.91002 0.69409 0.71397 0.0
H251 H 0.82631 0.63186 0.57661 0.0
H252 H 0.9015 0.8463 0.72917 0.0
Cu253 Cu 0.78849 0.66249 0.9095 0.0
N254 N 0.75351 0.69047 0.91073 0.0
N255 N 0.71171 0.71732 0.89095 0.0
C256 C 0.74026 0.70224 0.88192 0.0
C257 C 0.70658 0.7149 0.92666 0.0
C258 C 0.73258 0.69826 0.93886 0.0
O259 O 0.82274 0.67536 0.87161 0.0
C260 C 0.75382 0.59317 0.86768 0.0
O261 O 0.76335 0.61226 0.84007 0.0
H262 H 0.75037 0.69852 0.85462 0.0
H263 H 0.73522 0.69101 0.96592 0.0
N264 N 0.81444 0.672 0.95353 0.0
N265 N 0.84825 0.66164 0.99825 0.0
C266 C 0.82516 0.64559 0.96966 0.0
C267 C 0.83128 0.70594 0.97256 0.0
C268 C 0.85239 0.69959 1.00037 0.0
C269 C 0.84917 0.65953 0.86639 0.0
O270 O 0.85359 0.63449 0.88722 0.0
H271 H 0.8179 0.6154 0.95942 0.0
H272 H 0.82976 0.73334 0.96555 0.0
O273 O 0.76308 0.60928 0.9 0.0
H274 H 0.68512 0.72371 0.94238 0.0
H275 H 0.87051 0.721 0.01957 0.0
C276 C 0.13502 0.12694 0.19328 0.0
C277 C 0.1175 0.13524 0.2262 0.0
C278 C 0.14836 0.09538 0.25614 0.0
C279 C 0.16937 0.09114 0.2247 0.0
N280 N 0.18536 0.10492 0.16432 0.0
N281 N 0.10921 0.13063 0.28987 0.0
C282 C 0.16317 0.10718 0.19333 0.0
C283 C 0.12434 0.11999 0.25783 0.0
N284 N 0.12409 0.13744 0.16196 0.0
N285 N 0.1513 0.07547 0.28416 0.0
H286 H 0.09159 0.14874 0.29181 0.0
H287 H 0.11607 0.12386 0.31492 0.0
H288 H 0.1688 0.05738 0.28348 0.0
H289 H 0.13438 0.07431 0.30648 0.0
H290 H 0.13353 0.12966 0.13633 0.0
H291 H 0.10297 0.1512 0.16128 0.0
H292 H 0.18501 0.11945 0.14205 0.0
H293 H 0.20592 0.09027 0.16371 0.0
C294 C 0.30478 0.93523 0.53438 0.0
C295 C 0.33028 0.92875 0.50757 0.0
C296 C 0.28615 0.87043 0.48006 0.0
C297 C 0.25953 0.87886 0.50474 0.0
N298 N 0.24092 0.92498 0.54916 0.0
N299 N 0.34234 0.89519 0.44989 0.0
C300 C 0.26806 0.91284 0.53024 0.0
C301 C 0.32014 0.89774 0.47893 0.0
N302 N 0.31579 0.96169 0.56456 0.0
N303 N 0.27944 0.83586 0.45848 0.0
H304 H 0.36689 0.91537 0.4474 0.0
H305 H 0.33458 0.87537 0.42654 0.0
H306 H 0.25508 0.8148 0.45907 0.0
H307 H 0.29933 0.82669 0.44266 0.0
H308 H 0.29916 0.96439 0.58681 0.0
H309 H 0.34252 0.97853 0.56896 0.0
H310 H 0.24531 0.95158 0.5651 0.0
H311 H 0.21333 0.91054 0.54601 0.0
C312 C 0.56858 0.96593 0.77041 0.0
C313 C 0.58761 0.0022 0.78812 0.0
C314 C 0.64607 0.99061 0.7668 0.0
C315 C 0.62725 0.95296 0.7516 0.0
N316 N 0.57099 0.90269 0.74331 0.0
N317 N 0.64372 0.04865 0.80668 0.0
C318 C 0.58863 0.93995 0.7548 0.0
C319 C 0.62622 0.01449 0.78718 0.0
N320 N 0.53118 0.95706 0.76713 0.0
N321 N 0.68281 0.00342 0.76176 0.0
H322 H 0.62948 0.06654 0.82144 0.0
H323 H 0.67206 0.05819 0.81028 0.0
H324 H 0.69855 0.98608 0.74872 0.0
H325 H 0.69747 0.03166 0.76879 0.0
H326 H 0.51572 0.93299 0.75077 0.0
H327 H 0.51563 0.97559 0.7781 0.0
H328 H 0.54387 0.89066 0.74913 0.0
H329 H 0.5839 0.88272 0.73028 0.0
C330 C 0.52027 0.34437 0.07367 0.0
C331 C 0.51895 0.37092 0.0495 0.0
C332 C 0.45284 0.36132 0.05715 0.0
C333 C 0.45403 0.33448 0.08133 0.0
N334 N 0.48905 0.30591 0.11848 0.0
N335 N 0.48673 0.40964 0.0221 0.0
C336 C 0.48789 0.3276 0.09133 0.0
C337 C 0.48602 0.38108 0.04266 0.0
N338 N 0.55252 0.33486 0.07904 0.0
N339 N 0.41986 0.36636 0.04648 0.0
H340 H 0.5104 0.42322 0.00977 0.0
H341 H 0.46475 0.4216 0.01907 0.0
H342 H 0.39507 0.35342 0.05721 0.0
H343 H 0.41659 0.3818 0.02562 0.0
H344 H 0.55489 0.31266 0.09302 0.0
H345 H 0.57698 0.34826 0.06784 0.0
H346 H 0.51317 0.3023 0.12938 0.0
H347 H 0.46585 0.29387 0.13238 0.0
C348 C 0.18185 0.97865 0.33584 0.0
C349 C 0.21587 0.00202 0.35107 0.0
C350 C 0.20003 0.98047 0.41022 0.0
C351 C 0.16931 0.95285 0.39334 0.0
N352 N 0.13176 0.92318 0.33998 0.0
N353 N 0.25869 0.02416 0.40235 0.0
C354 C 0.16004 0.95168 0.35624 0.0
C355 C 0.22512 0.00327 0.3884 0.0
N356 N 0.17044 0.98236 0.30184 0.0
N357 N 0.20498 0.98457 0.44718 0.0
H358 H 0.27773 0.0413 0.38727 0.0
H359 H 0.26868 0.0227 0.42815 0.0
H360 H 0.18673 0.96806 0.46349 0.0
H361 H 0.225 0.00628 0.46188 0.0
H362 H 0.14433 0.96904 0.29075 0.0
H363 H 0.18598 0.00152 0.28591 0.0
H364 H 0.12624 0.9179 0.31197 0.0
H365 H 0.1153 0.90291 0.35425 0.0
C366 C 0.54384 0.84427 0.54726 0.0
C367 C 0.53672 0.88052 0.5573 0.0
C368 C 0.58941 0.8977 0.59988 0.0
C369 C 0.59153 0.85919 0.59528 0.0
N370 N 0.56616 0.79396 0.56814 0.0
N371 N 0.54896 0.93939 0.59928 0.0
C372 C 0.56776 0.83188 0.56961 0.0
C373 C 0.55866 0.90692 0.58507 0.0
N374 N 0.52778 0.82184 0.51626 0.0
N375 N 0.61709 0.9255 0.6179 0.0
H376 H 0.5252 0.94613 0.59125 0.0
H377 H 0.56245 0.95747 0.62196 0.0
H378 H 0.64104 0.91972 0.62701 0.0
H379 H 0.61808 0.95448 0.61973 0.0
H380 H 0.53426 0.79635 0.50607 0.0
H381 H 0.51107 0.83094 0.49879 0.0
H382 H 0.54676 0.77273 0.55211 0.0
H383 H 0.58153 0.78345 0.58568 0.0
C384 C 0.56625 0.28441 0.84539 0.0
C385 C 0.58972 0.28336 0.87497 0.0
C386 C 0.56795 0.21368 0.86811 0.0
C387 C 0.54664 0.21448 0.83667 0.0
N388 N 0.53104 0.24984 0.79127 0.0
N389 N 0.61841 0.24704 0.9101 0.0
C390 C 0.54741 0.24967 0.82411 0.0
C391 C 0.59219 0.24798 0.88504 0.0
N392 N 0.56062 0.31848 0.83863 0.0
N393 N 0.56372 0.18067 0.8831 0.0
H394 H 0.63666 0.2716 0.92311 0.0
H395 H 0.6243 0.22188 0.91552 0.0
H396 H 0.54619 0.15479 0.87211 0.0
H397 H 0.5752 0.17959 0.90835 0.0
H398 H 0.54077 0.32062 0.82007 0.0
H399 H 0.57341 0.34456 0.85387 0.0
H400 H 0.53392 0.27432 0.77885 0.0
H401 H 0.51742 0.2249 0.77472 0.0
C402 C 0.23752 0.28938 0.1514 0.0
C403 C 0.23872 0.27832 0.11345 0.0
C404 C 0.17212 0.26682 0.10838 0.0
C405 C 0.17043 0.27093 0.14699 0.0
N406 N 0.20242 0.28136 0.20566 0.0
N407 N 0.20705 0.25189 0.05592 0.0
C408 C 0.20336 0.2814 0.16878 0.0
C409 C 0.20599 0.26606 0.09183 0.0
N410 N 0.26911 0.30805 0.17065 0.0
N411 N 0.14157 0.26461 0.08756 0.0
H412 H 0.23139 0.25007 0.04317 0.0
H413 H 0.18358 0.23883 0.03976 0.0
H414 H 0.11665 0.26682 0.09886 0.0
H415 H 0.14208 0.26488 0.05947 0.0
H416 H 0.26962 0.31998 0.19789 0.0
H417 H 0.29441 0.3148 0.15827 0.0
H418 H 0.22583 0.28453 0.22187 0.0
H419 H 0.17829 0.27476 0.21985 0.0
C420 C 0.37705 0.17966 0.2366 0.0
C421 C 0.34179 0.17118 0.25168 0.0
C422 C 0.32395 0.21861 0.21976 0.0
C423 C 0.35782 0.22411 0.20163 0.0
N424 N 0.42043 0.21963 0.20045 0.0
N425 N 0.28786 0.19256 0.26906 0.0
C426 C 0.38576 0.20791 0.21279 0.0
C427 C 0.3174 0.19429 0.24732 0.0
N428 N 0.40139 0.15924 0.24398 0.0
N429 N 0.29709 0.23434 0.20894 0.0
H430 H 0.28317 0.17597 0.29018 0.0
H431 H 0.27049 0.21073 0.26905 0.0
H432 H 0.30102 0.25298 0.18956 0.0
H433 H 0.27023 0.22728 0.21761 0.0
H434 H 0.42599 0.16036 0.23079 0.0
H435 H 0.3962 0.14023 0.2632 0.0
H436 H 0.44288 0.21107 0.20935 0.0
H437 H 0.42734 0.24065 0.18331 0.0
C438 C 0.44143 0.02701 0.36458 0.0
C439 C 0.43158 0.9913 0.37775 0.0
C440 C 0.37817 0.97043 0.33559 0.0
C441 C 0.38841 0.00583 0.32191 0.0
N442 N 0.43234 0.06507 0.31794 0.0
N443 N 0.39591 0.92629 0.37122 0.0
C444 C 0.42106 0.03321 0.33468 0.0
C445 C 0.40156 0.96209 0.36169 0.0
N446 N 0.46905 0.05546 0.38194 0.0
N447 N 0.34518 0.94573 0.32495 0.0
H448 H 0.4131 0.91952 0.38992 0.0
H449 H 0.37639 0.90273 0.35845 0.0
H450 H 0.3276 0.95113 0.30578 0.0
H451 H 0.33412 0.92127 0.33682 0.0
H452 H 0.47539 0.08344 0.37621 0.0
H453 H 0.48426 0.05156 0.40395 0.0
H454 H 0.45743 0.0849 0.32366 0.0
H455 H 0.41758 0.07 0.29607 0.0
C456 C 0.47991 0.08391 0.65548 0.0
C457 C 0.49132 0.0656 0.68322 0.0
C458 C 0.47438 0.00395 0.64345 0.0
C459 C 0.46337 0.0223 0.61549 0.0
N460 N 0.46003 0.07994 0.5923 0.0
N461 N 0.50533 0.00987 0.70195 0.0
C462 C 0.46769 0.06244 0.62067 0.0
C463 C 0.49009 0.02604 0.67675 0.0
N464 N 0.47928 0.12144 0.66305 0.0
N465 N 0.46959 0.96517 0.63823 0.0
H466 H 0.51607 0.02466 0.72707 0.0
H467 H 0.50985 0.98268 0.69722 0.0
H468 H 0.46186 0.94826 0.61316 0.0
H469 H 0.47189 0.94926 0.659 0.0
H470 H 0.4677 0.13574 0.64568 0.0
H471 H 0.48838 0.13799 0.68804 0.0
H472 H 0.46615 0.1094 0.59277 0.0
H473 H 0.44948 0.06493 0.56709 0.0
C474 C 0.39331 0.14763 0.90647 0.0
C475 C 0.41057 0.11729 0.90605 0.0
C476 C 0.40196 0.11732 0.97164 0.0
C477 C 0.38209 0.1455 0.97141 0.0
N478 N 0.35469 0.18459 0.93879 0.0
N479 N 0.42873 0.0704 0.93628 0.0
C480 C 0.37671 0.15998 0.93883 0.0
C481 C 0.41428 0.10138 0.9382 0.0
N482 N 0.39374 0.16512 0.87605 0.0
N483 N 0.40972 0.10669 0.0041 0.0
H484 H 0.43823 0.0586 0.91206 0.0
H485 H 0.42919 0.05493 0.95783 0.0
H486 H 0.40089 0.11807 0.02887 0.0
H487 H 0.4269 0.08884 0.00691 0.0
H488 H 0.38477 0.18978 0.87535 0.0
H489 H 0.4058 0.15651 0.85205 0.0
H490 H 0.34661 0.1935 0.91529 0.0
H491 H 0.34221 0.19397 0.96221 0.0
C492 C 0.77697 0.37929 0.0297 0.0
C493 C 0.78097 0.39971 0.06553 0.0
C494 C 0.71708 0.40372 0.06246 0.0
C495 C 0.71219 0.38033 0.02803 0.0
N496 N 0.73543 0.34015 0.98172 0.0
N497 N 0.75351 0.42571 0.11862 0.0
C498 C 0.74158 0.36649 0.01242 0.0
C499 C 0.75063 0.41034 0.08267 0.0
N500 N 0.8072 0.37364 0.01144 0.0
N501 N 0.69038 0.42112 0.07515 0.0
H502 H 0.77762 0.43087 0.13434 0.0
H503 H 0.73121 0.43016 0.13372 0.0
H504 H 0.66562 0.41761 0.06104 0.0
H505 H 0.69406 0.4418 0.09804 0.0
H506 H 0.80644 0.36275 0.98391 0.0
H507 H 0.83373 0.38307 0.02277 0.0
H508 H 0.75481 0.32589 0.97134 0.0
H509 H 0.70982 0.32989 0.96841 0.0
C510 C 0.02494 0.38732 0.31703 0.0
C511 C 0.05315 0.4186 0.3329 0.0
C512 C 0.09922 0.39056 0.30083 0.0
C513 C 0.07074 0.36135 0.28186 0.0
N514 N 0.00603 0.33484 0.26804 0.0
N515 N 0.11644 0.45317 0.33712 0.0
C516 C 0.0334 0.36028 0.28909 0.0
C517 C 0.09016 0.42102 0.32412 0.0
N518 N 0.99015 0.38319 0.32935 0.0
N519 N 0.13486 0.38852 0.29747 0.0
H520 H 0.11045 0.47587 0.35418 0.0
H521 H 0.14344 0.45871 0.32875 0.0
H522 H 0.14243 0.36624 0.2812 0.0
H523 H 0.15653 0.40685 0.31326 0.0
H524 H 0.9689 0.359 0.32172 0.0
H525 H 0.98332 0.40271 0.34972 0.0
H526 H 0.9786 0.33559 0.26932 0.0
H527 H 0.01088 0.31476 0.2471 0.0
C528 C 0.0037 0.77017 0.57684 0.0
C529 C 0.004 0.77371 0.61542 0.0
C530 C 0.06753 0.81198 0.61758 0.0
C531 C 0.06472 0.81319 0.5797 0.0
N532 N 0.02687 0.80088 0.52488 0.0
N533 N 0.03493 0.80208 0.67334 0.0
C534 C 0.03192 0.79424 0.55969 0.0
C535 C 0.03571 0.79544 0.63619 0.0
N536 N 0.97679 0.74333 0.55651 0.0
N537 N 0.10072 0.82608 0.63548 0.0
H538 H 0.01208 0.791 0.68806 0.0
H539 H 0.05602 0.82107 0.6894 0.0
H540 H 0.12437 0.83824 0.62228 0.0
H541 H 0.10533 0.82276 0.66243 0.0
H542 H 0.97732 0.73746 0.52821 0.0
H543 H 0.9563 0.72404 0.56815 0.0
H544 H 0.00202 0.79023 0.51028 0.0
H545 H 0.04593 0.82063 0.51222 0.0
C546 C 0.0647 0.6705 0.42137 0.0
C547 C 0.07348 0.64999 0.38871 0.0
C548 C 0.12832 0.7022 0.3844 0.0
C549 C 0.1215 0.72012 0.4193 0.0
N550 N 0.08943 0.71382 0.47542 0.0
N551 N 0.11789 0.64311 0.34272 0.0
C552 C 0.09148 0.70205 0.4391 0.0
C553 C 0.10653 0.66491 0.37113 0.0
N554 N 0.03022 0.66119 0.4346 0.0
N555 N 0.15456 0.72115 0.36332 0.0
H556 H 0.10328 0.61539 0.33283 0.0
H557 H 0.14352 0.65114 0.33132 0.0
H558 H 0.17076 0.74855 0.37184 0.0
H559 H 0.158 0.71101 0.3362 0.0
H560 H 0.02187 0.67732 0.4569 0.0
H561 H 0.00885 0.6405 0.4205 0.0
H562 H 0.0693 0.6998 0.49168 0.0
H563 H 0.11082 0.73407 0.48992 0.0
C564 C 0.69568 0.5445 0.84558 0.0
C565 C 0.73157 0.5533 0.86158 0.0
C566 C 0.72217 0.48667 0.87147 0.0
C567 C 0.68421 0.48133 0.86458 0.0
N568 N 0.64428 0.49365 0.81992 0.0
N569 N 0.78114 0.53157 0.88556 0.0
C570 C 0.67345 0.50678 0.8439 0.0
C571 C 0.74567 0.52389 0.87294 0.0
N572 N 0.68185 0.57233 0.83409 0.0
N573 N 0.73603 0.45562 0.87191 0.0
H574 H 0.79987 0.55779 0.88464 0.0
H575 H 0.79142 0.51238 0.89823 0.0
H576 H 0.71959 0.42798 0.8648 0.0
H577 H 0.76395 0.4572 0.87404 0.0
H578 H 0.65442 0.56786 0.82616 0.0
H579 H 0.69698 0.6005 0.83489 0.0
H580 H 0.63682 0.51018 0.80184 0.0
H581 H 0.63111 0.46463 0.81483 0.0
C582 C 0.65291 0.71874 0.80992 0.0
C583 C 0.65405 0.75804 0.81329 0.0
C584 C 0.6917 0.77025 0.86938 0.0
C585 C 0.68987 0.7308 0.86652 0.0
N586 N 0.66219 0.6664 0.83971 0.0
N587 N 0.66635 0.81956 0.84989 0.0
C588 C 0.66832 0.70464 0.83846 0.0
C589 C 0.67084 0.78328 0.84436 0.0
N590 N 0.63862 0.69539 0.77873 0.0
N591 N 0.71486 0.79535 0.8948 0.0
H592 H 0.65052 0.82939 0.83214 0.0
H593 H 0.67524 0.83851 0.87357 0.0
H594 H 0.73091 0.7866 0.91317 0.0
H595 H 0.72032 0.82486 0.89585 0.0
H596 H 0.64041 0.66722 0.77289 0.0
H597 H 0.62705 0.70512 0.75751 0.0
H598 H 0.64431 0.64568 0.82173 0.0
H599 H 0.67249 0.65565 0.86102 0.0
C600 C 0.0082 0.32734 0.1019 0.0
C601 C 0.98695 0.29904 0.12118 0.0
C602 C 0.93199 0.32023 0.10931 0.0
C603 C 0.95407 0.35139 0.0941 0.0
N604 N 0.01337 0.38752 0.0789 0.0
N605 N 0.92981 0.27015 0.14679 0.0
C606 C 0.99226 0.35559 0.09088 0.0
C607 C 0.94902 0.29567 0.12561 0.0
N608 N 0.04343 0.3266 0.09379 0.0
N609 N 0.89472 0.31396 0.10745 0.0
H610 H 0.94178 0.25193 0.15916 0.0
H611 H 0.90292 0.26892 0.15426 0.0
H612 H 0.88173 0.3314 0.09512 0.0
H613 H 0.87677 0.28985 0.11514 0.0
H614 H 0.05953 0.34434 0.07702 0.0
H615 H 0.05546 0.30581 0.10134 0.0
H616 H 0.0419 0.39428 0.07937 0.0
H617 H 0.00234 0.40882 0.07094 0.0
C618 C 0.83544 0.85621 0.67968 0.0
C619 C 0.8326 0.82032 0.69156 0.0
C620 C 0.76718 0.8129 0.69996 0.0
C621 C 0.77079 0.85108 0.69308 0.0
N622 N 0.81014 0.91131 0.68177 0.0
N623 N 0.79793 0.76922 0.72194 0.0
C624 C 0.80545 0.87344 0.68432 0.0
C625 C 0.79909 0.80003 0.70435 0.0
N626 N 0.86637 0.87317 0.66299 0.0
N627 N 0.73342 0.78808 0.70028 0.0
H628 H 0.82125 0.76004 0.72723 0.0
H629 H 0.77466 0.75562 0.73481 0.0
H630 H 0.70909 0.79496 0.69421 0.0
H631 H 0.72993 0.75917 0.70212 0.0
H632 H 0.86875 0.89765 0.65066 0.0
H633 H 0.88833 0.86064 0.65845 0.0
H634 H 0.83568 0.9297 0.67892 0.0
H635 H 0.78906 0.92514 0.6859 0.0
C636 C 0.89365 0.70929 0.83791 0.0
C637 C 0.87533 0.67036 0.83749 0.0
C638 C 0.90392 0.65439 0.77999 0.0
C639 C 0.9167 0.69385 0.7773 0.0
N640 N 0.91888 0.75938 0.80189 0.0
N641 N 0.85998 0.60564 0.80646 0.0
C642 C 0.91077 0.72156 0.80597 0.0
C643 C 0.87999 0.64266 0.80833 0.0
N644 N 0.8951 0.73449 0.86903 0.0
N645 N 0.91493 0.62821 0.75555 0.0
H646 H 0.8417 0.5959 0.82632 0.0
H647 H 0.85921 0.58525 0.78374 0.0
H648 H 0.93285 0.63607 0.73477 0.0
H649 H 0.90931 0.59927 0.75806 0.0
H650 H 0.91118 0.76246 0.87196 0.0
H651 H 0.88334 0.7263 0.89319 0.0
H652 H 0.91089 0.77988 0.82023 0.0
H653 H 0.93054 0.77009 0.77877 0.0
C654 C 0.89523 0.62585 1.00069 0.0
C655 C 0.8682 0.64195 0.01843 0.0
C656 C 0.87571 0.61283 0.07264 0.0
C657 C 0.89867 0.59246 0.05296 0.0
N658 N 0.92858 0.57668 0.99774 0.0
N659 N 0.83066 0.64984 0.06998 0.0
C660 C 0.90839 0.59852 0.01693 0.0
C661 C 0.85817 0.6356 0.05431 0.0
N662 N 0.90831 0.63713 0.96846 0.0
N663 N 0.87113 0.61045 0.10891 0.0
H664 H 0.81755 0.66676 0.05704 0.0
H665 H 0.81928 0.64303 0.09462 0.0
H666 H 0.88413 0.59412 0.12281 0.0
H667 H 0.85718 0.62696 0.12578 0.0
H668 H 0.93021 0.62896 0.95543 0.0
H669 H 0.89923 0.65756 0.95641 0.0
H670 H 0.93342 0.57681 0.97006 0.0
H671 H 0.93844 0.55631 0.00902 0.0
C672 C 0.88605 0.48655 0.24414 0.0
C673 C 0.9007 0.51112 0.21823 0.0
C674 C 0.94047 0.55525 0.266 0.0
C675 C 0.92862 0.5288 0.2909 0.0
N676 N 0.89413 0.46673 0.30283 0.0
N677 N 0.94655 0.5655 0.20284 0.0
C678 C 0.90239 0.49376 0.2798 0.0
C679 C 0.9291 0.54469 0.2287 0.0
N680 N 0.85579 0.45705 0.23502 0.0
N681 N 0.96178 0.5909 0.27819 0.0
H682 H 0.93971 0.55849 0.1751 0.0
H683 H 0.97007 0.5877 0.20841 0.0
H684 H 0.9703 0.59969 0.30543 0.0
H685 H 0.96809 0.61283 0.26213 0.0
H686 H 0.84147 0.44062 0.25381 0.0
H687 H 0.84294 0.45108 0.20924 0.0
H688 H 0.87844 0.43902 0.29486 0.0
H689 H 0.90543 0.47091 0.32919 0.0
C690 C 0.91893 0.5632 0.52939 0.0
C691 C 0.918 0.57215 0.49341 0.0
C692 C 0.89571 0.62847 0.51576 0.0
C693 C 0.89449 0.61816 0.55131 0.0
N694 N 0.89927 0.57331 0.59169 0.0
N695 N 0.89959 0.60876 0.45093 0.0
C696 C 0.9044 0.58469 0.55801 0.0
C697 C 0.90467 0.60356 0.48619 0.0
N698 N 0.93518 0.53523 0.53627 0.0
N699 N 0.8896 0.66276 0.51066 0.0
H700 H 0.90526 0.59043 0.42879 0.0
H701 H 0.88686 0.62903 0.44357 0.0
H702 H 0.88289 0.68142 0.53194 0.0
H703 H 0.89383 0.67396 0.48614 0.0
H704 H 0.94003 0.52963 0.56238 0.0
H705 H 0.94649 0.51948 0.51583 0.0
H706 H 0.90269 0.54733 0.5977 0.0
H707 H 0.88864 0.5887 0.613 0.0
loop_
_geom_bond_atom_site_label_1
_geom_bond_atom_site_label_2
_geom_bond_distance
_geom_bond_site_symmetry_2
_ccdc_geom_bond_type
Cu0 N1 1.999 . S
Cu0 O6 1.974 . S
Cu0 N11 1.985 1_455 S
Cu0 O20 1.959 1_455 S
N1 Cu0 1.999 . S
N1 C3 1.263 . S
N1 C5 1.389 . S
N2 C3 1.358 . S
N2 C4 1.400 . S
C3 N1 1.263 . S
C3 N2 1.358 . S
C3 H9 0.930 . S
C4 N2 1.400 . S
C4 C5 1.351 . S
C4 H21 0.930 . S
C5 N1 1.389 . S
C5 C4 1.351 . S
C5 H10 0.918 1_455 S
O6 Cu0 1.974 . S
O6 C16 1.282 . S
C7 O8 1.261 . S
C7 O20 1.251 1_455 S
O8 C7 1.261 . S
H9 C3 0.930 . S
H10 C5 0.918 1_655 S
N11 Cu0 1.985 1_655 S
N11 C13 1.335 . S
N11 C14 1.390 1_655 S
N12 C13 1.345 . S
N12 C15 1.336 . S
C13 N11 1.335 . S
C13 N12 1.345 . S
C13 H18 0.930 . S
C14 N11 1.390 1_455 S
C14 C15 1.346 1_455 S
C14 H19 0.930 . S
C15 N12 1.336 . S
C15 C14 1.346 1_655 S
C15 H22 0.929 . S
C16 O6 1.282 . S
C16 O17 1.216 . S
O17 C16 1.216 . S
H18 C13 0.930 . S
H19 C14 0.930 . S
O20 Cu0 1.959 1_655 S
O20 C7 1.251 1_655 S
H21 C4 0.930 . S
H22 C15 0.929 . S
Cu23 N24 1.999 . S
Cu23 O29 1.974 . S
Cu23 N34 1.985 . S
Cu23 O43 1.959 . S
N24 Cu23 1.999 . S
N24 C26 1.263 . S
N24 C28 1.389 . S
N25 C26 1.358 . S
N25 C27 1.400 . S
C26 N24 1.263 . S
C26 N25 1.358 . S
C26 H32 0.930 . S
C27 N25 1.400 . S
C27 C28 1.351 . S
C27 H44 0.930 . S
C28 N24 1.389 . S
C28 C27 1.351 . S
C28 H33 0.930 . S
O29 Cu23 1.974 . S
O29 C39 1.282 . S
C30 O31 1.261 . S
C30 O43 1.251 . S
O31 C30 1.261 . S
H32 C26 0.930 . S
H33 C28 0.930 . S
N34 Cu23 1.985 . S
N34 C36 1.335 . S
N34 C37 1.390 . S
N35 C36 1.345 . S
N35 C38 1.336 . S
C36 N34 1.335 . S
C36 N35 1.345 . S
C36 H41 0.930 . S
C37 N34 1.390 . S
C37 C38 1.346 . S
C37 H42 0.930 . S
C38 N35 1.336 . S
C38 C37 1.346 . S
C38 H45 0.929 . S
C39 O29 1.282 . S
C39 O40 1.216 . S
O40 C39 1.216 . S
H41 C36 0.930 . S
H42 C37 0.930 . S
O43 Cu23 1.959 . S
O43 C30 1.251 . S
H44 C27 0.930 . S
H45 C38 0.929 . S
Cu46 N47 1.999 . S
Cu46 O52 1.974 . S
Cu46 N57 1.985 . S
Cu46 O66 1.959 . S
N47 Cu46 1.999 . S
N47 C49 1.263 . S
N47 C51 1.389 . S
N48 C49 1.358 . S
N48 C50 1.400 . S
C49 N47 1.263 . S
C49 N48 1.358 . S
C49 H55 0.930 . S
C50 N48 1.400 . S
C50 C51 1.351 . S
C50 H67 0.930 . S
C51 N47 1.389 . S
C51 C50 1.351 . S
C51 H56 0.930 . S
O52 Cu46 1.974 . S
O52 C62 1.282 . S
C53 O54 1.261 . S
C53 O66 1.251 1_545 S
O54 C53 1.261 . S
H55 C49 0.930 . S
H56 C51 0.930 . S
N57 Cu46 1.985 . S
N57 C59 1.335 . S
N57 C60 1.390 . S
N58 C59 1.345 . S
N58 C61 1.336 . S
C59 N57 1.335 . S
C59 N58 1.345 . S
C59 H64 0.930 . S
C60 N57 1.390 . S
C60 C61 1.346 . S
C60 H65 0.930 . S
C61 N58 1.336 . S
C61 C60 1.346 . S
C61 H68 0.929 . S
C62 O52 1.282 . S
C62 O63 1.216 . S
O63 C62 1.216 . S
H64 C59 0.930 . S
H65 C60 0.930 . S
O66 Cu46 1.959 . S
O66 C53 1.251 1_565 S
H67 C50 0.930 . S
H68 C61 0.929 . S
Cu69 N70 1.999 . S
Cu69 O75 1.974 1_556 S
Cu69 N80 1.985 . S
Cu69 O89 1.959 . S
N70 Cu69 1.999 . S
N70 C72 1.263 . S
N70 C74 1.389 . S
N71 C72 1.358 . S
N71 C73 1.400 . S
C72 N70 1.263 . S
C72 N71 1.358 . S
C72 H78 0.930 . S
C73 N71 1.400 . S
C73 C74 1.351 . S
C73 H90 0.930 . S
C74 N70 1.389 . S
C74 C73 1.351 . S
C74 H79 0.930 . S
O75 Cu69 1.974 1_554 S
O75 C85 1.282 . S
C76 O77 1.261 . S
C76 O89 1.251 . S
O77 C76 1.261 . S
H78 C72 0.930 . S
H79 C74 0.930 . S
N80 Cu69 1.985 . S
N80 C82 1.335 . S
N80 C83 1.390 1_556 S
N81 C82 1.345 1_554 S
N81 C84 1.336 . S
C82 N80 1.335 . S
C82 N81 1.345 1_556 S
C82 H87 0.930 . S
C83 N80 1.390 1_554 S
C83 C84 1.346 . S
C83 H88 0.930 . S
C84 N81 1.336 . S
C84 C83 1.346 . S
C84 H91 0.929 . S
C85 O75 1.282 . S
C85 O86 1.216 . S
O86 C85 1.216 . S
H87 C82 0.930 . S
H88 C83 0.930 . S
O89 Cu69 1.959 . S
O89 C76 1.251 . S
H90 C73 0.930 . S
H91 C84 0.929 . S
Cu92 N93 1.999 . S
Cu92 O98 1.974 . S
Cu92 N103 1.985 . S
Cu92 O112 1.959 1_545 S
N93 Cu92 1.999 . S
N93 C95 1.263 . S
N93 C97 1.389 . S
N94 C95 1.358 . S
N94 C96 1.400 . S
C95 N93 1.263 . S
C95 N94 1.358 . S
C95 H101 0.930 . S
C96 N94 1.400 . S
C96 C97 1.351 . S
C96 H113 0.930 . S
C97 N93 1.389 . S
C97 C96 1.351 . S
C97 H102 0.930 . S
O98 Cu92 1.974 . S
O98 C108 1.282 . S
C99 O100 1.261 . S
C99 O112 1.251 . S
O100 C99 1.261 . S
H101 C95 0.930 . S
H102 C97 0.930 . S
N103 Cu92 1.985 . S
N103 C105 1.335 1_545 S
N103 C106 1.390 . S
N104 C105 1.345 . S
N104 C107 1.336 . S
C105 N103 1.335 1_565 S
C105 N104 1.345 . S
C105 H110 0.930 . S
C106 N103 1.390 . S
C106 C107 1.346 1_545 S
C106 H111 0.930 . S
C107 N104 1.336 . S
C107 C106 1.346 1_565 S
C107 H114 0.929 . S
C108 O98 1.282 . S
C108 O109 1.216 . S
O109 C108 1.216 . S
H110 C105 0.930 . S
H111 C106 0.930 . S
O112 Cu92 1.959 1_565 S
O112 C99 1.251 . S
H113 C96 0.930 . S
H114 C107 0.929 . S
Cu115 N116 1.999 1_565 S
Cu115 O121 1.974 . S
Cu115 N126 1.985 . S
Cu115 O135 1.959 1_565 S
N116 Cu115 1.999 1_545 S
N116 C118 1.263 1_545 S
N116 C120 1.389 . S
N117 C118 1.358 1_545 S
N117 C119 1.400 . S
C118 N116 1.263 1_565 S
C118 N117 1.358 1_565 S
C118 H124 0.930 . S
C119 N117 1.400 . S
C119 C120 1.351 . S
C119 H136 0.930 . S
C120 N116 1.389 . S
C120 C119 1.351 . S
C120 H125 0.930 . S
O121 Cu115 1.974 . S
O121 C131 1.282 . S
C122 O123 1.261 . S
C122 O135 1.251 . S
O123 C122 1.261 . S
H124 C118 0.930 . S
H125 C120 0.930 . S
N126 Cu115 1.985 . S
N126 C128 1.335 . S
N126 C129 1.390 . S
N127 C128 1.345 . S
N127 C130 1.336 . S
C128 N126 1.335 . S
C128 N127 1.345 . S
C128 H133 0.930 . S
C129 N126 1.390 . S
C129 C130 1.346 . S
C129 H134 0.930 . S
C130 N127 1.336 . S
C130 C129 1.346 . S
C130 H137 0.929 . S
C131 O121 1.282 . S
C131 O132 1.216 . S
O132 C131 1.216 . S
H133 C128 0.930 . S
H134 C129 0.930 . S
O135 Cu115 1.959 1_545 S
O135 C122 1.251 . S
H136 C119 0.930 . S
H137 C130 0.929 . S
Cu138 N139 1.999 . S
Cu138 O144 1.974 . S
Cu138 N149 1.985 . S
Cu138 O158 1.959 . S
N139 Cu138 1.999 . S
N139 C141 1.263 . S
N139 C143 1.389 . S
N140 C141 1.358 . S
N140 C142 1.400 . S
C141 N139 1.263 . S
C141 N140 1.358 . S
C141 H147 0.930 . S
C142 N140 1.400 . S
C142 C143 1.351 . S
C142 H159 0.930 . S
C143 N139 1.389 . S
C143 C142 1.351 . S
C143 H148 0.930 . S
O144 Cu138 1.974 . S
O144 C154 1.282 . S
C145 O146 1.261 . S
C145 O158 1.251 . S
O146 C145 1.261 . S
H147 C141 0.930 . S
H148 C143 0.930 . S
N149 Cu138 1.985 . S
N149 C151 1.335 . S
N149 C152 1.390 . S
N150 C151 1.345 . S
N150 C153 1.336 . S
C151 N149 1.335 . S
C151 N150 1.345 . S
C151 H156 0.930 . S
C152 N149 1.390 . S
C152 C153 1.346 . S
C152 H157 0.930 . S
C153 N150 1.336 . S
C153 C152 1.346 . S
C153 H160 0.929 . S
C154 O144 1.282 . S
C154 O155 1.216 . S
O155 C154 1.216 . S
H156 C151 0.930 . S
H157 C152 0.930 . S
O158 Cu138 1.959 . S
O158 C145 1.251 . S
H159 C142 0.930 . S
H160 C153 0.929 . S
Cu161 N162 1.999 1_554 S
Cu161 O167 1.974 1_554 S
Cu161 N172 1.985 . S
Cu161 O181 1.959 . S
N162 Cu161 1.999 1_556 S
N162 C164 1.263 . S
N162 C166 1.389 . S
N163 C164 1.358 . S
N163 C165 1.400 . S
C164 N162 1.263 . S
C164 N163 1.358 . S
C164 H170 0.930 . S
C165 N163 1.400 . S
C165 C166 1.351 . S
C165 H182 0.930 . S
C166 N162 1.389 . S
C166 C165 1.351 . S
C166 H171 0.930 . S
O167 Cu161 1.974 1_556 S
O167 C177 1.282 . S
C168 O169 1.261 . S
C168 O181 1.251 . S
O169 C168 1.261 . S
H170 C164 0.930 . S
H171 C166 0.930 . S
N172 Cu161 1.985 . S
N172 C174 1.335 . S
N172 C175 1.390 . S
N173 C174 1.345 . S
N173 C176 1.336 . S
C174 N172 1.335 . S
C174 N173 1.345 . S
C174 H179 0.930 . S
C175 N172 1.390 . S
C175 C176 1.346 . S
C175 H180 0.930 . S
C176 N173 1.336 . S
C176 C175 1.346 . S
C176 H183 0.929 . S
C177 O167 1.282 . S
C177 O178 1.216 1_556 S
O178 C177 1.216 1_554 S
H179 C174 0.930 . S
H180 C175 0.930 . S
O181 Cu161 1.959 . S
O181 C168 1.251 . S
H182 C165 0.930 . S
H183 C176 0.929 . S
Cu184 N185 1.999 . S
Cu184 O190 1.974 . S
Cu184 N195 1.985 . S
Cu184 O204 1.959 . S
N185 Cu184 1.999 . S
N185 C187 1.263 . S
N185 C189 1.389 . S
N186 C187 1.358 . S
N186 C188 1.400 . S
C187 N185 1.263 . S
C187 N186 1.358 . S
C187 H193 0.930 . S
C188 N186 1.400 . S
C188 C189 1.351 . S
C188 H205 0.930 . S
C189 N185 1.389 . S
C189 C188 1.351 . S
C189 H194 0.930 . S
O190 Cu184 1.974 . S
O190 C200 1.282 . S
C191 O192 1.261 . S
C191 O204 1.251 . S
O192 C191 1.261 . S
H193 C187 0.930 . S
H194 C189 0.930 . S
N195 Cu184 1.985 . S
N195 C197 1.335 . S
N195 C198 1.390 . S
N196 C197 1.345 . S
N196 C199 1.336 . S
C197 N195 1.335 . S
C197 N196 1.345 . S
C197 H202 0.930 . S
C198 N195 1.390 . S
C198 C199 1.346 . S
C198 H203 0.930 . S
C199 N196 1.336 . S
C199 C198 1.346 . S
C199 H206 0.929 . S
C200 O190 1.282 . S
C200 O201 1.216 . S
O201 C200 1.216 . S
H202 C197 0.930 . S
H203 C198 0.930 . S
O204 Cu184 1.959 . S
O204 C191 1.251 . S
H205 C188 0.930 . S
H206 C199 0.929 . S
Cu207 N208 1.999 1_655 S
Cu207 O213 1.974 . S
Cu207 N218 1.985 . S
Cu207 O227 1.959 1_655 S
N208 Cu207 1.999 1_455 S
N208 C210 1.263 . S
N208 C212 1.389 . S
N209 C210 1.358 . S
N209 C211 1.400 . S
C210 N208 1.263 . S
C210 N209 1.358 . S
C210 H216 0.930 1_455 S
C211 N209 1.400 . S
C211 C212 1.351 . S
C211 H228 0.930 . S
C212 N208 1.389 . S
C212 C211 1.351 . S
C212 H217 0.930 . S
O213 Cu207 1.974 . S
O213 C223 1.282 . S
C214 O215 1.261 . S
C214 O227 1.251 . S
O215 C214 1.261 . S
H216 C210 0.930 1_655 S
H217 C212 0.930 . S
N218 Cu207 1.985 . S
N218 C220 1.335 . S
N218 C221 1.390 . S
N219 C220 1.345 . S
N219 C222 1.336 . S
C220 N218 1.335 . S
C220 N219 1.345 . S
C220 H225 0.947 . S
C221 N218 1.390 . S
C221 C222 1.346 . S
C221 H226 0.930 . S
C222 N219 1.336 . S
C222 C221 1.346 . S
C222 H229 0.929 . S
C223 O213 1.282 . S
C223 O224 1.216 . S
O224 C223 1.216 . S
H225 C220 0.947 . S
H226 C221 0.930 . S
O227 Cu207 1.959 1_455 S
O227 C214 1.251 . S
H228 C211 0.930 . S
H229 C222 0.929 . S
Cu230 N231 1.999 . S
Cu230 O236 1.974 . S
Cu230 N241 1.985 . S
Cu230 O250 1.959 . S
N231 Cu230 1.999 . S
N231 C233 1.263 . S
N231 C235 1.389 . S
N232 C233 1.358 . S
N232 C234 1.400 . S
C233 N231 1.263 . S
C233 N232 1.358 . S
C233 H239 0.930 1_655 S
C234 N232 1.400 . S
C234 C235 1.351 . S
C234 H251 0.930 . S
C235 N231 1.389 . S
C235 C234 1.351 . S
C235 H240 0.930 . S
O236 Cu230 1.974 . S
O236 C246 1.282 1_655 S
C237 O238 1.261 . S
C237 O250 1.251 . S
O238 C237 1.261 . S
H239 C233 0.930 1_455 S
H240 C235 0.930 . S
N241 Cu230 1.985 . S
N241 C243 1.335 . S
N241 C244 1.390 . S
N242 C243 1.345 . S
N242 C245 1.336 . S
C243 N241 1.335 . S
C243 N242 1.345 . S
C243 H248 0.930 . S
C244 N241 1.390 . S
C244 C245 1.346 . S
C244 H249 0.930 . S
C245 N242 1.336 . S
C245 C244 1.346 . S
C245 H252 0.929 . S
C246 O236 1.282 1_455 S
C246 O247 1.216 . S
O247 C246 1.216 . S
H248 C243 0.930 . S
H249 C244 0.930 . S
O250 Cu230 1.959 . S
O250 C237 1.251 . S
H251 C234 0.930 . S
H252 C245 0.929 . S
Cu253 N254 1.999 . S
Cu253 O259 1.974 . S
Cu253 N264 1.985 . S
Cu253 O273 1.959 . S
N254 Cu253 1.999 . S
N254 C256 1.263 . S
N254 C258 1.389 . S
N255 C256 1.358 . S
N255 C257 1.400 . S
C256 N254 1.263 . S
C256 N255 1.358 . S
C256 H262 0.930 . S
C257 N255 1.400 . S
C257 C258 1.351 . S
C257 H274 0.930 . S
C258 N254 1.389 . S
C258 C257 1.351 . S
C258 H263 0.930 . S
O259 Cu253 1.974 . S
O259 C269 1.282 . S
C260 O261 1.261 . S
C260 O273 1.251 . S
O261 C260 1.261 . S
H262 C256 0.930 . S
H263 C258 0.930 . S
N264 Cu253 1.985 . S
N264 C266 1.335 . S
N264 C267 1.390 . S
N265 C266 1.345 . S
N265 C268 1.336 . S
C266 N264 1.335 . S
C266 N265 1.345 . S
C266 H271 0.930 1_556 S
C267 N264 1.390 . S
C267 C268 1.346 . S
C267 H272 0.930 . S
C268 N265 1.336 . S
C268 C267 1.346 . S
C268 H275 0.929 . S
C269 O259 1.282 . S
C269 O270 1.216 . S
O270 C269 1.216 . S
H271 C266 0.930 1_554 S
H272 C267 0.930 . S
O273 Cu253 1.959 . S
O273 C260 1.251 . S
H274 C257 0.930 . S
H275 C268 0.929 . S
C276 C277 1.363 . S
C276 C282 1.379 . S
C276 N284 1.356 . S
C277 C276 1.363 . S
C277 C283 1.363 . S
C278 C279 1.363 . S
C278 C283 1.379 . S
C278 N285 1.356 . S
C279 C278 1.363 . S
C279 C282 1.363 . S
N280 C282 1.356 . S
N280 H292 0.984 . S
N280 H293 0.985 . S
N281 C283 1.356 . S
N281 H286 0.984 . S
N281 H287 0.985 . S
C282 C276 1.379 . S
C282 C279 1.363 . S
C282 N280 1.356 . S
C283 C277 1.363 . S
C283 C278 1.379 . S
C283 N281 1.356 . S
N284 C276 1.356 . S
N284 H290 0.984 . S
N284 H291 0.984 . S
N285 C278 1.356 . S
N285 H288 0.984 . S
N285 H289 0.985 . S
H286 N281 0.984 . S
H287 N281 0.985 . S
H288 N285 0.984 . S
H289 N285 0.985 . S
H290 N284 0.984 . S
H291 N284 0.984 . S
H292 N280 0.984 . S
H293 N280 0.985 . S
C294 C295 1.363 . S
C294 C300 1.379 . S
C294 N302 1.356 . S
C295 C294 1.363 . S
C295 C301 1.363 . S
C296 C297 1.363 . S
C296 C301 1.379 . S
C296 N303 1.356 . S
C297 C296 1.363 . S
C297 C300 1.363 . S
N298 C300 1.356 . S
N298 H310 0.984 . S
N298 H311 0.985 . S
N299 C301 1.356 . S
N299 H304 0.984 . S
N299 H305 0.985 . S
C300 C294 1.379 . S
C300 C297 1.363 . S
C300 N298 1.356 . S
C301 C295 1.363 . S
C301 C296 1.379 . S
C301 N299 1.356 . S
N302 C294 1.356 . S
N302 H308 0.984 . S
N302 H309 0.984 . S
N303 C296 1.356 . S
N303 H306 0.984 . S
N303 H307 0.985 . S
H304 N299 0.984 . S
H305 N299 0.985 . S
H306 N303 0.984 . S
H307 N303 0.985 . S
H308 N302 0.984 . S
H309 N302 0.984 . S
H310 N298 0.984 . S
H311 N298 0.985 . S
C312 C313 1.363 . S
C312 C318 1.379 . S
C312 N320 1.356 . S
C313 C312 1.363 . S
C313 C319 1.363 . S
C314 C315 1.363 . S
C314 C319 1.379 . S
C314 N321 1.356 . S
C315 C314 1.363 . S
C315 C318 1.363 . S
N316 C318 1.356 1_565 S
N316 H328 0.984 . S
N316 H329 0.985 . S
N317 C319 1.356 . S
N317 H322 0.984 . S
N317 H323 0.985 . S
C318 C312 1.379 . S
C318 C315 1.363 . S
C318 N316 1.356 1_545 S
C319 C313 1.363 . S
C319 C314 1.379 . S
C319 N317 1.356 . S
N320 C312 1.356 . S
N320 H326 0.984 . S
N320 H327 0.984 . S
N321 C314 1.356 . S
N321 H324 0.984 . S
N321 H325 0.985 . S
H322 N317 0.984 . S
H323 N317 0.985 . S
H324 N321 0.984 . S
H325 N321 0.985 . S
H326 N320 0.984 . S
H327 N320 0.984 . S
H328 N316 0.984 . S
H329 N316 0.985 . S
C330 C331 1.363 . S
C330 C336 1.379 . S
C330 N338 1.356 . S
C331 C330 1.363 . S
C331 C337 1.363 1_554 S
C332 C333 1.363 . S
C332 C337 1.379 . S
C332 N339 1.356 . S
C333 C332 1.363 . S
C333 C336 1.363 1_556 S
N334 C336 1.356 . S
N334 H346 0.984 . S
N334 H347 0.985 . S
N335 C337 1.356 . S
N335 H340 0.984 . S
N335 H341 0.985 . S
C336 C330 1.379 . S
C336 C333 1.363 1_554 S
C336 N334 1.356 . S
C337 C331 1.363 1_556 S
C337 C332 1.379 . S
C337 N335 1.356 . S
N338 C330 1.356 . S
N338 H344 0.984 . S
N338 H345 0.984 . S
N339 C332 1.356 . S
N339 H342 0.984 . S
N339 H343 0.985 . S
H340 N335 0.984 . S
H341 N335 0.985 . S
H342 N339 0.984 . S
H343 N339 0.985 . S
H344 N338 0.984 . S
H345 N338 0.984 . S
H346 N334 0.984 . S
H347 N334 0.985 . S
C348 C349 1.363 . S
C348 C354 1.379 . S
C348 N356 1.356 . S
C349 C348 1.363 . S
C349 C355 1.363 . S
C350 C351 1.363 . S
C350 C355 1.379 . S
C350 N357 1.356 . S
C351 C350 1.363 . S
C351 C354 1.363 . S
N352 C354 1.356 . S
N352 H364 0.984 . S
N352 H365 0.985 . S
N353 C355 1.356 . S
N353 H358 0.984 . S
N353 H359 0.985 . S
C354 C348 1.379 . S
C354 C351 1.363 . S
C354 N352 1.356 . S
C355 C349 1.363 . S
C355 C350 1.379 . S
C355 N353 1.356 . S
N356 C348 1.356 . S
N356 H362 0.984 . S
N356 H363 0.984 . S
N357 C350 1.356 . S
N357 H360 0.984 . S
N357 H361 0.985 . S
H358 N353 0.984 . S
H359 N353 0.985 . S
H360 N357 0.984 . S
H361 N357 0.985 . S
H362 N356 0.984 . S
H363 N356 0.984 . S
H364 N352 0.984 . S
H365 N352 0.985 . S
C366 C367 1.363 . S
C366 C372 1.379 . S
C366 N374 1.356 . S
C367 C366 1.363 . S
C367 C373 1.363 . S
C368 C369 1.363 . S
C368 C373 1.379 . S
C368 N375 1.356 1_565 S
C369 C368 1.363 . S
C369 C372 1.363 . S
N370 C372 1.356 . S
N370 H382 0.984 . S
N370 H383 0.985 . S
N371 C373 1.356 . S
N371 H376 0.984 . S
N371 H377 0.985 1_565 S
C372 C366 1.379 . S
C372 C369 1.363 . S
C372 N370 1.356 . S
C373 C367 1.363 . S
C373 C368 1.379 . S
C373 N371 1.356 . S
N374 C366 1.356 . S
N374 H380 0.984 . S
N374 H381 0.984 . S
N375 C368 1.356 1_545 S
N375 H378 0.984 . S
N375 H379 0.985 . S
H376 N371 0.984 . S
H377 N371 0.985 1_545 S
H378 N375 0.984 . S
H379 N375 0.985 . S
H380 N374 0.984 . S
H381 N374 0.984 . S
H382 N370 0.984 . S
H383 N370 0.985 . S
C384 C385 1.363 . S
C384 C390 1.379 . S
C384 N392 1.356 . S
C385 C384 1.363 . S
C385 C391 1.363 . S
C386 C387 1.363 . S
C386 C391 1.379 . S
C386 N393 1.356 . S
C387 C386 1.363 . S
C387 C390 1.363 . S
N388 C390 1.356 . S
N388 H400 0.984 . S
N388 H401 0.985 . S
N389 C391 1.356 . S
N389 H394 0.984 . S
N389 H395 0.985 . S
C390 C384 1.379 . S
C390 C387 1.363 . S
C390 N388 1.356 . S
C391 C385 1.363 . S
C391 C386 1.379 . S
C391 N389 1.356 . S
N392 C384 1.356 . S
N392 H398 0.984 . S
N392 H399 0.984 . S
N393 C386 1.356 . S
N393 H396 0.984 . S
N393 H397 0.985 . S
H394 N389 0.984 . S
H395 N389 0.985 . S
H396 N393 0.984 . S
H397 N393 0.985 . S
H398 N392 0.984 . S
H399 N392 0.984 . S
H400 N388 0.984 . S
H401 N388 0.985 . S
C402 C403 1.363 . S
C402 C408 1.379 . S
C402 N410 1.356 . S
C403 C402 1.363 . S
C403 C409 1.363 . S
C404 C405 1.363 . S
C404 C409 1.379 . S
C404 N411 1.356 . S
C405 C404 1.363 . S
C405 C408 1.363 . S
N406 C408 1.356 . S
N406 H418 0.984 . S
N406 H419 0.985 . S
N407 C409 1.356 . S
N407 H412 0.984 . S
N407 H413 0.985 . S
C408 C402 1.379 . S
C408 C405 1.363 . S
C408 N406 1.356 . S
C409 C403 1.363 . S
C409 C404 1.379 . S
C409 N407 1.356 . S
N410 C402 1.356 . S
N410 H416 0.984 . S
N410 H417 0.984 . S
N411 C404 1.356 . S
N411 H414 0.984 . S
N411 H415 0.985 . S
H412 N407 0.984 . S
H413 N407 0.985 . S
H414 N411 0.984 . S
H415 N411 0.985 . S
H416 N410 0.984 . S
H417 N410 0.984 . S
H418 N406 0.984 . S
H419 N406 0.985 . S
C420 C421 1.363 . S
C420 C426 1.379 . S
C420 N428 1.356 . S
C421 C420 1.363 . S
C421 C427 1.363 . S
C422 C423 1.363 . S
C422 C427 1.379 . S
C422 N429 1.356 . S
C423 C422 1.363 . S
C423 C426 1.363 . S
N424 C426 1.356 . S
N424 H436 0.984 . S
N424 H437 0.985 . S
N425 C427 1.356 . S
N425 H430 0.984 . S
N425 H431 0.985 . S
C426 C420 1.379 . S
C426 C423 1.363 . S
C426 N424 1.356 . S
C427 C421 1.363 . S
C427 C422 1.379 . S
C427 N425 1.356 . S
N428 C420 1.356 . S
N428 H434 0.984 . S
N428 H435 0.984 . S
N429 C422 1.356 . S
N429 H432 0.984 . S
N429 H433 0.985 . S
H430 N425 0.984 . S
H431 N425 0.985 . S
H432 N429 0.984 . S
H433 N429 0.985 . S
H434 N428 0.984 . S
H435 N428 0.984 . S
H436 N424 0.984 . S
H437 N424 0.985 . S
C438 C439 1.363 . S
C438 C444 1.379 . S
C438 N446 1.356 . S
C439 C438 1.363 . S
C439 C445 1.363 1_545 S
C440 C441 1.363 . S
C440 C445 1.379 . S
C440 N447 1.356 . S
C441 C440 1.363 . S
C441 C444 1.363 1_565 S
N442 C444 1.356 . S
N442 H454 0.984 . S
N442 H455 0.985 . S
N443 C445 1.356 . S
N443 H448 0.984 . S
N443 H449 0.985 . S
C444 C438 1.379 . S
C444 C441 1.363 1_545 S
C444 N442 1.356 . S
C445 C439 1.363 1_565 S
C445 C440 1.379 . S
C445 N443 1.356 . S
N446 C438 1.356 . S
N446 H452 0.984 . S
N446 H453 0.984 . S
N447 C440 1.356 . S
N447 H450 0.984 . S
N447 H451 0.985 . S
H448 N443 0.984 . S
H449 N443 0.985 . S
H450 N447 0.984 . S
H451 N447 0.985 . S
H452 N446 0.984 . S
H453 N446 0.984 . S
H454 N442 0.984 . S
H455 N442 0.985 . S
C456 C457 1.363 . S
C456 C462 1.379 . S
C456 N464 1.356 . S
C457 C456 1.363 . S
C457 C463 1.363 . S
C458 C459 1.363 . S
C458 C463 1.379 . S
C458 N465 1.356 . S
C459 C458 1.363 . S
C459 C462 1.363 . S
N460 C462 1.356 . S
N460 H472 0.984 . S
N460 H473 0.985 . S
N461 C463 1.356 . S
N461 H466 0.984 . S
N461 H467 0.985 . S
C462 C456 1.379 . S
C462 C459 1.363 . S
C462 N460 1.356 . S
C463 C457 1.363 . S
C463 C458 1.379 . S
C463 N461 1.356 . S
N464 C456 1.356 . S
N464 H470 0.984 . S
N464 H471 0.984 . S
N465 C458 1.356 . S
N465 H468 0.984 . S
N465 H469 0.985 . S
H466 N461 0.984 . S
H467 N461 0.985 . S
H468 N465 0.984 . S
H469 N465 0.985 . S
H470 N464 0.984 . S
H471 N464 0.984 . S
H472 N460 0.984 . S
H473 N460 0.985 . S
C474 C475 1.363 . S
C474 C480 1.379 . S
C474 N482 1.356 . S
C475 C474 1.363 . S
C475 C481 1.363 . S
C476 C477 1.363 . S
C476 C481 1.379 . S
C476 N483 1.356 . S
C477 C476 1.363 . S
C477 C480 1.363 . S
N478 C480 1.356 . S
N478 H490 0.984 . S
N478 H491 0.985 . S
N479 C481 1.356 . S
N479 H484 0.984 . S
N479 H485 0.985 . S
C480 C474 1.379 . S
C480 C477 1.363 . S
C480 N478 1.356 . S
C481 C475 1.363 . S
C481 C476 1.379 . S
C481 N479 1.356 . S
N482 C474 1.356 . S
N482 H488 0.984 . S
N482 H489 0.984 . S
N483 C476 1.356 . S
N483 H486 0.984 . S
N483 H487 0.985 . S
H484 N479 0.984 . S
H485 N479 0.985 . S
H486 N483 0.984 . S
H487 N483 0.985 . S
H488 N482 0.984 . S
H489 N482 0.984 . S
H490 N478 0.984 . S
H491 N478 0.985 . S
C492 C493 1.363 . S
C492 C498 1.379 . S
C492 N500 1.356 . S
C493 C492 1.363 . S
C493 C499 1.363 . S
C494 C495 1.363 . S
C494 C499 1.379 . S
C494 N501 1.356 . S
C495 C494 1.363 . S
C495 C498 1.363 . S
N496 C498 1.356 . S
N496 H508 0.984 1_554 S
N496 H509 0.985 . S
N497 C499 1.356 . S
N497 H502 0.984 . S
N497 H503 0.985 . S
C498 C492 1.379 . S
C498 C495 1.363 . S
C498 N496 1.356 . S
C499 C493 1.363 . S
C499 C494 1.379 . S
C499 N497 1.356 . S
N500 C492 1.356 . S
N500 H506 0.984 . S
N500 H507 0.984 . S
N501 C494 1.356 . S
N501 H504 0.984 . S
N501 H505 0.985 . S
H502 N497 0.984 . S
H503 N497 0.985 . S
H504 N501 0.984 . S
H505 N501 0.985 . S
H506 N500 0.984 . S
H507 N500 0.984 . S
H508 N496 0.984 1_556 S
H509 N496 0.985 . S
C510 C511 1.375 . S
C510 C516 1.379 1_455 S
C510 N518 1.347 1_455 S
C511 C510 1.375 . S
C511 C517 1.363 . S
C512 C513 1.363 . S
C512 C517 1.379 . S
C512 N519 1.356 . S
C513 C512 1.363 . S
C513 C516 1.363 1_455 S
N514 C516 1.356 . S
N514 H526 0.984 . S
N514 H527 0.985 . S
N515 C517 1.356 . S
N515 H520 0.984 . S
N515 H521 0.985 . S
C516 C510 1.379 1_655 S
C516 C513 1.363 1_655 S
C516 N514 1.356 . S
C517 C511 1.363 . S
C517 C512 1.379 . S
C517 N515 1.356 . S
N518 C510 1.347 1_655 S
N518 H524 0.984 . S
N518 H525 0.984 1_655 S
N519 C512 1.356 . S
N519 H522 0.984 . S
N519 H523 0.985 . S
H520 N515 0.984 . S
H521 N515 0.985 . S
H522 N519 0.984 . S
H523 N519 0.985 . S
H524 N518 0.984 . S
H525 N518 0.984 1_455 S
H526 N514 0.984 . S
H527 N514 0.985 . S
C528 C529 1.363 . S
C528 C534 1.379 . S
C528 N536 1.356 . S
C529 C528 1.363 . S
C529 C535 1.363 . S
C530 C531 1.363 . S
C530 C535 1.379 . S
C530 N537 1.356 . S
C531 C530 1.363 . S
C531 C534 1.363 . S
N532 C534 1.356 . S
N532 H544 0.984 . S
N532 H545 0.985 . S
N533 C535 1.356 . S
N533 H538 0.984 . S
N533 H539 0.985 . S
C534 C528 1.379 . S
C534 C531 1.363 . S
C534 N532 1.356 . S
C535 C529 1.363 . S
C535 C530 1.379 . S
C535 N533 1.356 . S
N536 C528 1.356 . S
N536 H542 0.984 . S
N536 H543 0.984 . S
N537 C530 1.356 . S
N537 H540 0.984 . S
N537 H541 0.985 . S
H538 N533 0.984 . S
H539 N533 0.985 . S
H540 N537 0.984 . S
H541 N537 0.985 . S
H542 N536 0.984 . S
H543 N536 0.984 . S
H544 N532 0.984 . S
H545 N532 0.985 . S
C546 C547 1.363 . S
C546 C552 1.379 . S
C546 N554 1.356 . S
C547 C546 1.363 . S
C547 C553 1.363 . S
C548 C549 1.363 . S
C548 C553 1.379 . S
C548 N555 1.356 . S
C549 C548 1.363 . S
C549 C552 1.363 . S
N550 C552 1.356 . S
N550 H562 0.984 . S
N550 H563 0.985 . S
N551 C553 1.356 . S
N551 H556 0.984 . S
N551 H557 0.985 . S
C552 C546 1.379 . S
C552 C549 1.363 . S
C552 N550 1.356 . S
C553 C547 1.363 . S
C553 C548 1.379 . S
C553 N551 1.356 . S
N554 C546 1.356 . S
N554 H560 0.984 . S
N554 H561 0.984 . S
N555 C548 1.356 . S
N555 H558 0.984 . S
N555 H559 0.985 . S
H556 N551 0.984 . S
H557 N551 0.985 . S
H558 N555 0.984 . S
H559 N555 0.985 . S
H560 N554 0.984 . S
H561 N554 0.984 . S
H562 N550 0.984 . S
H563 N550 0.985 . S
C564 C565 1.363 . S
C564 C570 1.379 . S
C564 N572 1.356 . S
C565 C564 1.363 . S
C565 C571 1.363 . S
C566 C567 1.363 . S
C566 C571 1.379 . S
C566 N573 1.356 . S
C567 C566 1.363 . S
C567 C570 1.363 . S
N568 C570 1.356 . S
N568 H580 0.984 . S
N568 H581 0.985 . S
N569 C571 1.338 1_554 S
N569 H574 0.981 . S
N569 H575 1.008 . S
C570 C564 1.379 . S
C570 C567 1.363 . S
C570 N568 1.356 . S
C571 C565 1.363 . S
C571 C566 1.379 . S
C571 N569 1.338 1_556 S
N572 C564 1.356 . S
N572 H578 0.984 . S
N572 H579 0.984 . S
N573 C566 1.356 . S
N573 H576 0.984 . S
N573 H577 0.985 1_556 S
H574 N569 0.981 . S
H575 N569 1.008 . S
H576 N573 0.984 . S
H577 N573 0.985 1_554 S
H578 N572 0.984 . S
H579 N572 0.984 . S
H580 N568 0.984 . S
H581 N568 0.985 . S
C582 C583 1.363 . S
C582 C588 1.379 . S
C582 N590 1.356 . S
C583 C582 1.363 . S
C583 C589 1.363 . S
C584 C585 1.363 . S
C584 C589 1.379 . S
C584 N591 1.356 . S
C585 C584 1.363 . S
C585 C588 1.363 . S
N586 C588 1.356 . S
N586 H598 0.984 . S
N586 H599 0.985 . S
N587 C589 1.356 . S
N587 H592 0.984 . S
N587 H593 0.985 . S
C588 C582 1.379 . S
C588 C585 1.363 . S
C588 N586 1.356 . S
C589 C583 1.363 . S
C589 C584 1.379 . S
C589 N587 1.356 . S
N590 C582 1.356 . S
N590 H596 0.984 . S
N590 H597 0.984 . S
N591 C584 1.356 . S
N591 H594 0.984 . S
N591 H595 0.985 . S
H592 N587 0.984 . S
H593 N587 0.985 . S
H594 N591 0.984 . S
H595 N591 0.985 . S
H596 N590 0.984 . S
H597 N590 0.984 . S
H598 N586 0.984 . S
H599 N586 0.985 . S
C600 C601 1.363 . S
C600 C606 1.379 . S
C600 N608 1.356 . S
C601 C600 1.363 . S
C601 C607 1.363 . S
C602 C603 1.363 . S
C602 C607 1.379 . S
C602 N609 1.356 . S
C603 C602 1.363 . S
C603 C606 1.363 . S
N604 C606 1.356 . S
N604 H616 0.984 . S
N604 H617 0.985 . S
N605 C607 1.356 . S
N605 H610 0.984 . S
N605 H611 0.985 . S
C606 C600 1.379 . S
C606 C603 1.363 . S
C606 N604 1.356 . S
C607 C601 1.363 . S
C607 C602 1.379 . S
C607 N605 1.356 . S
N608 C600 1.356 . S
N608 H614 0.984 . S
N608 H615 0.984 . S
N609 C602 1.356 . S
N609 H612 0.984 . S
N609 H613 0.985 . S
H610 N605 0.984 . S
H611 N605 0.985 . S
H612 N609 0.984 . S
H613 N609 0.985 . S
H614 N608 0.984 . S
H615 N608 0.984 . S
H616 N604 0.984 . S
H617 N604 0.985 . S
C618 C619 1.363 . S
C618 C624 1.379 . S
C618 N626 1.356 . S
C619 C618 1.363 . S
C619 C625 1.363 . S
C620 C621 1.363 . S
C620 C625 1.379 . S
C620 N627 1.356 . S
C621 C620 1.363 . S
C621 C624 1.363 . S
N622 C624 1.356 . S
N622 H634 0.984 . S
N622 H635 0.985 . S
N623 C625 1.356 . S
N623 H628 0.984 . S
N623 H629 0.985 . S
C624 C618 1.379 . S
C624 C621 1.363 . S
C624 N622 1.356 . S
C625 C619 1.363 . S
C625 C620 1.379 . S
C625 N623 1.356 . S
N626 C618 1.356 . S
N626 H632 0.984 . S
N626 H633 0.984 . S
N627 C620 1.356 . S
N627 H630 0.984 . S
N627 H631 0.985 . S
H628 N623 0.984 . S
H629 N623 0.985 . S
H630 N627 0.984 . S
H631 N627 0.985 . S
H632 N626 0.984 . S
H633 N626 0.984 . S
H634 N622 0.984 . S
H635 N622 0.985 . S
C636 C637 1.363 . S
C636 C642 1.379 . S
C636 N644 1.356 . S
C637 C636 1.363 . S
C637 C643 1.363 . S
C638 C639 1.363 . S
C638 C643 1.379 . S
C638 N645 1.356 . S
C639 C638 1.363 . S
C639 C642 1.363 . S
N640 C642 1.356 . S
N640 H652 0.984 . S
N640 H653 0.985 . S
N641 C643 1.356 . S
N641 H646 0.984 . S
N641 H647 0.985 . S
C642 C636 1.379 . S
C642 C639 1.363 . S
C642 N640 1.356 . S
C643 C637 1.363 . S
C643 C638 1.379 . S
C643 N641 1.356 . S
N644 C636 1.356 . S
N644 H650 0.984 . S
N644 H651 0.984 . S
N645 C638 1.356 . S
N645 H648 0.984 . S
N645 H649 0.985 . S
H646 N641 0.984 . S
H647 N641 0.985 . S
H648 N645 0.984 . S
H649 N645 0.985 . S
H650 N644 0.984 . S
H651 N644 0.984 . S
H652 N640 0.984 . S
H653 N640 0.985 . S
C654 C655 1.363 . S
C654 C660 1.379 . S
C654 N662 1.356 1_554 S
C655 C654 1.363 . S
C655 C661 1.363 . S
C656 C657 1.363 . S
C656 C661 1.379 . S
C656 N663 1.356 . S
C657 C656 1.363 . S
C657 C660 1.363 . S
N658 C660 1.356 . S
N658 H670 0.984 . S
N658 H671 0.985 . S
N659 C661 1.356 . S
N659 H664 0.984 . S
N659 H665 0.985 . S
C660 C654 1.379 . S
C660 C657 1.363 . S
C660 N658 1.356 . S
C661 C655 1.363 . S
C661 C656 1.379 . S
C661 N659 1.356 . S
N662 C654 1.356 1_556 S
N662 H668 0.984 . S
N662 H669 0.984 . S
N663 C656 1.356 . S
N663 H666 0.984 . S
N663 H667 0.985 . S
H664 N659 0.984 . S
H665 N659 0.985 . S
H666 N663 0.984 . S
H667 N663 0.985 . S
H668 N662 0.984 . S
H669 N662 0.984 . S
H670 N658 0.984 . S
H671 N658 0.985 . S
C672 C673 1.363 . S
C672 C678 1.379 . S
C672 N680 1.356 . S
C673 C672 1.363 . S
C673 C679 1.363 . S
C674 C675 1.363 . S
C674 C679 1.379 . S
C674 N681 1.356 . S
C675 C674 1.363 . S
C675 C678 1.363 . S
N676 C678 1.356 . S
N676 H688 0.984 . S
N676 H689 0.985 . S
N677 C679 1.356 . S
N677 H682 0.984 . S
N677 H683 0.985 . S
C678 C672 1.379 . S
C678 C675 1.363 . S
C678 N676 1.356 . S
C679 C673 1.363 . S
C679 C674 1.379 . S
C679 N677 1.356 . S
N680 C672 1.356 . S
N680 H686 0.984 . S
N680 H687 0.984 . S
N681 C674 1.356 . S
N681 H684 0.984 . S
N681 H685 0.985 . S
H682 N677 0.984 . S
H683 N677 0.985 . S
H684 N681 0.984 . S
H685 N681 0.985 . S
H686 N680 0.984 . S
H687 N680 0.984 . S
H688 N676 0.984 . S
H689 N676 0.985 . S
C690 C691 1.363 . S
C690 C696 1.379 . S
C690 N698 1.356 . S
C691 C690 1.363 . S
C691 C697 1.363 . S
C692 C693 1.363 1_455 S
C692 C697 1.379 1_455 S
C692 N699 1.356 . S
C693 C692 1.363 1_655 S
C693 C696 1.363 . S
N694 C696 1.356 . S
N694 H706 0.984 . S
N694 H707 0.985 . S
N695 C697 1.356 1_455 S
N695 H700 0.984 1_455 S
N695 H701 0.985 . S
C696 C690 1.379 . S
C696 C693 1.363 . S
C696 N694 1.356 . S
C697 C691 1.363 . S
C697 C692 1.379 1_655 S
C697 N695 1.356 1_655 S
N698 C690 1.356 . S
N698 H704 0.984 . S
N698 H705 0.984 . S
N699 C692 1.356 . S
N699 H702 0.984 . S
N699 H703 0.985 . S
H700 N695 0.984 1_655 S
H701 N695 0.985 . S
H702 N699 0.984 . S
H703 N699 0.985 . S
H704 N698 0.984 . S
H705 N698 0.984 . S
H706 N694 0.984 . S
H707 N694 0.985 . S
C277 N2 1.512 . S
C279 N94 1.315 . S
C295 C131 1.710 . S
C297 C39 1.884 . S
C313 N140 1.411 . S
C315 C53 1.645 . S
C331 N81 1.769 . S
C333 C177 1.534 . S
C349 C99 1.743 . S
C351 N25 1.471 . S
C367 N127 1.705 . S
C369 N58 1.608 . S
C385 C76 1.764 . S
C387 C145 1.901 . S
C403 N173 1.669 . S
C405 C16 1.467 . S
C421 C108 1.733 . S
C423 C168 1.648 . S
C439 N117 1.559 . S
C441 N104 1.584 . S
C457 C154 1.833 . S
C459 C122 1.743 . S
C475 N150 1.603 . S
C477 N163 1.610 . S
C493 C200 1.784 . S
C495 C85 1.600 . S
C511 N209 1.667 . S
C513 C7 1.624 . S
C529 C246 1.762 . S
C531 N35 1.743 . S
C547 C214 1.777 . S
C549 C30 1.909 . S
C565 C260 1.655 . S
C567 N71 1.704 . S
C583 N48 1.370 . S
C585 N255 1.533 . S
C601 N12 1.525 . S
C603 N196 1.434 . S
C619 N242 1.584 . S
C621 C62 1.641 . S
C637 C269 1.621 . S
C639 C237 1.816 . S
C655 N265 1.630 1_554 S
C657 N186 1.362 . S
C673 C191 1.852 . S
C675 C223 1.636 . S
C691 N219 1.743 . S
C693 N232 1.469 . S
