# Generated by pormake.
# Topology und, (4)-cn, num edge types: 1
# Building blocks:
#     Node 0, Type 0, BuildingBlock: UXUYUI_clean_sbu_0, # of connection points: 4
#     Node 1, Type 0, BuildingBlock: UXUYUI_clean_sbu_0, # of connection points: 4
#     Node 2, Type 0, BuildingBlock: UXUYUI_clean_sbu_0, # of connection points: 4
#     Node 3, Type 0, BuildingBlock: UXUYUI_clean_sbu_0, # of connection points: 4
#     Node 4, Type 0, BuildingBlock: UXUYUI_clean_sbu_0, # of connection points: 4
#     Node 5, Type 0, BuildingBlock: UXUYUI_clean_sbu_0, # of connection points: 4
#     Node 6, Type 0, BuildingBlock: UXUYUI_clean_sbu_0, # of connection points: 4
#     Node 7, Type 0, BuildingBlock: UXUYUI_clean_sbu_0, # of connection points: 4
#     Node 8, Type 0, BuildingBlock: UXUYUI_clean_sbu_0, # of connection points: 4
#     Node 9, Type 0, BuildingBlock: UXUYUI_clean_sbu_0, # of connection points: 4
#     Node 10, Type 0, BuildingBlock: UXUYUI_clean_sbu_0, # of connection points: 4
#     Node 11, Type 0, BuildingBlock: UXUYUI_clean_sbu_0, # of connection points: 4
#     Node 12, Type 0, BuildingBlock: UXUYUI_clean_sbu_0, # of connection points: 4
#     Node 13, Type 0, BuildingBlock: UXUYUI_clean_sbu_0, # of connection points: 4
#     Node 14, Type 0, BuildingBlock: UXUYUI_clean_sbu_0, # of connection points: 4
#     Node 15, Type 0, BuildingBlock: UXUYUI_clean_sbu_0, # of connection points: 4
#     Edge 16, Type (0, 0), BuildingBlock: TEMPAE_clean_linker_10, # of connection points: 2
#     Edge 17, Type (0, 0), BuildingBlock: TEMPAE_clean_linker_10, # of connection points: 2
#     Edge 18, Type (0, 0), BuildingBlock: TEMPAE_clean_linker_10, # of connection points: 2
#     Edge 19, Type (0, 0), BuildingBlock: TEMPAE_clean_linker_10, # of connection points: 2
#     Edge 20, Type (0, 0), BuildingBlock: TEMPAE_clean_linker_10, # of connection points: 2
#     Edge 21, Type (0, 0), BuildingBlock: TEMPAE_clean_linker_10, # of connection points: 2
#     Edge 22, Type (0, 0), BuildingBlock: TEMPAE_clean_linker_10, # of connection points: 2
#     Edge 23, Type (0, 0), BuildingBlock: TEMPAE_clean_linker_10, # of connection points: 2
#     Edge 24, Type (0, 0), BuildingBlock: TEMPAE_clean_linker_10, # of connection points: 2
#     Edge 25, Type (0, 0), BuildingBlock: TEMPAE_clean_linker_10, # of connection points: 2
#     Edge 26, Type (0, 0), BuildingBlock: TEMPAE_clean_linker_10, # of connection points: 2
#     Edge 27, Type (0, 0), BuildingBlock: TEMPAE_clean_linker_10, # of connection points: 2
#     Edge 28, Type (0, 0), BuildingBlock: TEMPAE_clean_linker_10, # of connection points: 2
#     Edge 29, Type (0, 0), BuildingBlock: TEMPAE_clean_linker_10, # of connection points: 2
#     Edge 30, Type (0, 0), BuildingBlock: TEMPAE_clean_linker_10, # of connection points: 2
#     Edge 31, Type (0, 0), BuildingBlock: TEMPAE_clean_linker_10, # of connection points: 2
#     Edge 32, Type (0, 0), BuildingBlock: TEMPAE_clean_linker_10, # of connection points: 2
#     Edge 33, Type (0, 0), BuildingBlock: TEMPAE_clean_linker_10, # of connection points: 2
#     Edge 34, Type (0, 0), BuildingBlock: TEMPAE_clean_linker_10, # of connection points: 2
#     Edge 35, Type (0, 0), BuildingBlock: TEMPAE_clean_linker_10, # of connection points: 2
#     Edge 36, Type (0, 0), BuildingBlock: TEMPAE_clean_linker_10, # of connection points: 2
#     Edge 37, Type (0, 0), BuildingBlock: TEMPAE_clean_linker_10, # of connection points: 2
#     Edge 38, Type (0, 0), BuildingBlock: TEMPAE_clean_linker_10, # of connection points: 2
#     Edge 39, Type (0, 0), BuildingBlock: TEMPAE_clean_linker_10, # of connection points: 2
#     Edge 40, Type (0, 0), BuildingBlock: TEMPAE_clean_linker_10, # of connection points: 2
#     Edge 41, Type (0, 0), BuildingBlock: TEMPAE_clean_linker_10, # of connection points: 2
#     Edge 42, Type (0, 0), BuildingBlock: TEMPAE_clean_linker_10, # of connection points: 2
#     Edge 43, Type (0, 0), BuildingBlock: TEMPAE_clean_linker_10, # of connection points: 2
#     Edge 44, Type (0, 0), BuildingBlock: TEMPAE_clean_linker_10, # of connection points: 2
#     Edge 45, Type (0, 0), BuildingBlock: TEMPAE_clean_linker_10, # of connection points: 2
#     Edge 46, Type (0, 0), BuildingBlock: TEMPAE_clean_linker_10, # of connection points: 2
#     Edge 47, Type (0, 0), BuildingBlock: TEMPAE_clean_linker_10, # of connection points: 2
# Relax obj value: 0.184
# Max RMSD: 0.213
# Mean RMSD: 0.213
data_MOF--net-und--node1-UXUYUI_clean_sbu_0--edge1-TEMPAE_clean_linker_10
_symmetry_space_group_name_H-M    P1
_symmetry_Int_Tables_number       1
_symmetry_cell_setting            triclinic
loop_
_symmetry_equiv_pos_as_xyz
'x, y, z'
_cell_length_a     87.07472
_cell_length_b     87.079463
_cell_length_c     32.963005
_cell_angle_alpha  89.997656
_cell_angle_beta   90.000343
_cell_angle_gamma 89.997065
loop_
_atom_site_label
_atom_site_type_symbol
_atom_site_fract_x
_atom_site_fract_y
_atom_site_fract_z
_atom_type_partial_charge
Li0 Li 0.23655 0.34148 -0.00087 0.0
Li1 Li 0.2633 0.34279 0.9875 0.0
Li2 Li 0.24862 0.3203 0.96785 0.0
Li3 Li 0.25295 0.32543 0.04124 0.0
C4 C 0.23864 0.35114 0.92327 0.0
N5 N 0.22122 0.37129 0.87775 0.0
C6 C 0.24412 0.36591 0.91503 0.0
C7 C 0.22437 0.34658 0.90807 0.0
C8 C 0.23513 0.37593 0.89199 0.0
C9 C 0.21571 0.35696 0.88525 0.0
C10 C 0.24768 0.36211 0.05193 0.0
C11 C 0.232 0.37706 0.09757 0.0
N12 N 0.23623 0.39007 0.07768 0.0
C13 C 0.2519 0.37564 0.03201 0.0
C14 C 0.23771 0.36282 0.08513 0.0
C15 C 0.246 0.38966 0.04551 0.0
C16 C 0.2065 0.34567 0.02593 0.0
N17 N 0.21792 0.35287 0.00521 0.0
C18 C 0.20456 0.37677 0.00925 0.0
C19 C 0.21696 0.36804 0.99568 0.0
C20 C 0.19306 0.36979 0.03266 0.0
C21 C 0.19383 0.35393 0.0398 0.0
H22 H 0.20765 0.33369 0.03389 0.0
H23 H 0.22627 0.37364 0.98001 0.0
C24 C 0.28366 0.35394 0.93043 0.0
N25 N 0.2805 0.35443 0.97075 0.0
C26 C 0.29585 0.36236 0.91462 0.0
C27 C 0.30162 0.37134 0.98238 0.0
C28 C 0.28928 0.36268 0.99694 0.0
C29 C 0.30492 0.37134 0.94061 0.0
H30 H 0.27653 0.34713 0.91047 0.0
H31 H 0.28659 0.36265 0.02898 0.0
C32 C 0.22613 0.30647 0.0057 0.0
N33 N 0.21141 0.27912 0.98862 0.0
C34 C 0.23042 0.29301 0.02583 0.0
C35 C 0.21427 0.30606 0.97716 0.0
C36 C 0.22285 0.27929 0.01671 0.0
C37 C 0.207 0.29211 0.96886 0.0
C38 C 0.28334 0.31999 0.99023 0.0
C39 C 0.28838 0.31616 0.95127 0.0
C40 C 0.29403 0.32391 0.02011 0.0
C41 C 0.3041 0.31639 0.94279 0.0
C42 C 0.30964 0.324 0.01041 0.0
N43 N 0.31431 0.32028 0.97228 0.0
C44 C 0.24397 0.30652 0.89108 0.0
C45 C 0.254 0.29036 0.94259 0.0
C46 C 0.24571 0.29489 0.86234 0.0
N47 N 0.24824 0.30407 0.93016 0.0
C48 C 0.2559 0.2784 0.91496 0.0
C49 C 0.25199 0.28069 0.87408 0.0
H50 H 0.23977 0.31767 0.88193 0.0
H51 H 0.25758 0.28889 0.97378 0.0
C52 C 0.24294 0.31773 0.11798 0.0
N53 N 0.25477 0.31565 0.09175 0.0
C54 C 0.24166 0.30854 0.15239 0.0
C55 C 0.26499 0.29545 0.13249 0.0
C56 C 0.26587 0.30499 0.09852 0.0
C57 C 0.25251 0.2969 0.15934 0.0
H58 H 0.234 0.32591 0.11091 0.0
H59 H 0.27485 0.30327 0.07633 0.0
O60 O 0.24733 0.34111 0.94549 0.0
O61 O 0.25317 0.34824 0.03878 0.0
O62 O 0.23357 0.31997 0.01362 0.0
O63 O 0.26799 0.32031 -0.00121 0.0
H64 H 0.2551 0.36967 0.92665 0.0
H65 H 0.22001 0.33518 0.91399 0.0
H66 H 0.23918 0.38742 0.88557 0.0
H67 H 0.20461 0.35361 0.87347 0.0
H68 H 0.22415 0.37776 0.12296 0.0
H69 H 0.25942 0.37532 0.00594 0.0
H70 H 0.23427 0.3525 0.10084 0.0
H71 H 0.2491 0.4002 0.0302 0.0
H72 H 0.20431 0.38899 0.00305 0.0
H73 H 0.18526 0.34818 0.05812 0.0
H74 H 0.29786 0.36218 0.88219 0.0
H75 H 0.30845 0.378 0.00346 0.0
H76 H 0.23959 0.29309 0.04792 0.0
H77 H 0.21075 0.31639 0.96155 0.0
H78 H 0.22611 0.26876 0.03188 0.0
H79 H 0.19784 0.29161 0.94671 0.0
H80 H 0.28024 0.31324 0.92771 0.0
H81 H 0.29027 0.32705 0.0503 0.0
H82 H 0.30818 0.31353 0.91273 0.0
H83 H 0.31805 0.3271 0.03315 0.0
H84 H 0.24277 0.2972 0.83101 0.0
H85 H 0.26063 0.26759 0.92532 0.0
H86 H 0.23195 0.31013 0.17247 0.0
H87 H 0.27346 0.28646 0.13633 0.0
Li88 Li 0.92697 0.99506 0.2199 0.0
Li89 Li 0.92497 0.00449 0.28974 0.0
Li90 Li 0.90646 0.98577 0.26334 0.0
Li91 Li 0.90586 0.01201 0.23995 0.0
C92 C 0.93328 0.96831 0.26365 0.0
N93 N 0.94173 0.93821 0.24956 0.0
C94 C 0.9432 0.96082 0.29042 0.0
C95 C 0.92764 0.96051 0.22974 0.0
C96 C 0.94735 0.94559 0.28276 0.0
C97 C 0.93204 0.94529 0.22314 0.0
C98 C 0.9311 0.03172 0.24823 0.0
C99 C 0.92564 0.05463 0.28668 0.0
N100 N 0.93673 0.06223 0.26566 0.0
C101 C 0.94243 0.03974 0.22698 0.0
C102 C 0.92263 0.0392 0.27831 0.0
C103 C 0.94511 0.05516 0.23625 0.0
C104 C 0.93598 0.99324 0.13909 0.0
N105 N 0.9409 0.99113 0.17776 0.0
C106 C 0.96671 0.98763 0.15536 0.0
C107 C 0.95585 0.98816 0.18648 0.0
C108 C 0.96207 0.99029 0.11512 0.0
C109 C 0.94641 0.99275 0.10707 0.0
H110 H 0.92404 0.99588 0.13332 0.0
H111 H 0.95941 0.98684 0.21773 0.0
C112 C 0.93094 0.00478 0.37255 0.0
N113 N 0.93662 0.00917 0.33598 0.0
C114 C 0.94038 0.00487 0.40672 0.0
C115 C 0.96108 0.01464 0.36511 0.0
C116 C 0.95125 0.01434 0.3317 0.0
C117 C 0.95579 0.00939 0.40294 0.0
H118 H 0.91933 0.00043 0.37467 0.0
H119 H 0.95551 0.01737 0.30194 0.0
C120 C 0.8927 0.98813 0.1847 0.0
N121 N 0.86778 0.97811 0.14003 0.0
C122 C 0.87803 0.9939 0.19271 0.0
C123 C 0.89472 0.97743 0.15353 0.0
C124 C 0.86557 0.98865 0.16991 0.0
C125 C 0.88196 0.97246 0.13142 0.0
C126 C 0.88926 0.00853 0.31504 0.0
C127 C 0.87536 0.00159 0.30444 0.0
C128 C 0.88955 0.01946 0.34611 0.0
C129 C 0.86191 0.00597 0.32441 0.0
C130 C 0.87585 0.02354 0.36534 0.0
N131 N 0.86242 0.01678 0.35415 0.0
C132 C 0.89497 0.96689 0.32205 0.0
C133 C 0.88685 0.95904 0.2566 0.0
C134 C 0.88619 0.95542 0.34015 0.0
N135 N 0.89493 0.96864 0.28112 0.0
C136 C 0.87785 0.94739 0.27345 0.0
C137 C 0.87727 0.94565 0.31583 0.0
H138 H 0.90165 0.97464 0.34067 0.0
H139 H 0.88715 0.96053 0.22413 0.0
C140 C 0.8955 0.02957 0.17734 0.0
N141 N 0.89368 0.02795 0.21803 0.0
C142 C 0.88651 0.03997 0.15581 0.0
C143 C 0.87427 0.04732 0.21876 0.0
C144 C 0.88351 0.0367 0.23914 0.0
C145 C 0.87556 0.04885 0.17643 0.0
H146 H 0.90376 0.02249 0.16151 0.0
H147 H 0.88235 0.03528 0.27151 0.0
O148 O 0.92907 0.98318 0.27095 0.0
O149 O 0.92837 0.01662 0.23942 0.0
O150 O 0.90513 0.99318 0.2064 0.0
O151 O 0.90263 0.00435 0.29617 0.0
H152 H 0.94764 0.96672 0.31686 0.0
H153 H 0.91994 0.96612 0.2088 0.0
H154 H 0.95502 0.93964 0.30323 0.0
H155 H 0.92776 0.93911 0.19702 0.0
H156 H 0.91916 0.06057 0.30987 0.0
H157 H 0.94908 0.03408 0.20359 0.0
H158 H 0.91382 0.03318 0.29493 0.0
H159 H 0.95385 0.06152 0.22007 0.0
H160 H 0.97869 0.98589 0.16294 0.0
H161 H 0.94233 0.99467 0.07645 0.0
H162 H 0.93585 0.00085 0.43543 0.0
H163 H 0.97294 0.01801 0.36079 0.0
H164 H 0.87626 0.00244 0.21597 0.0
H165 H 0.906 0.97295 0.14655 0.0
H166 H 0.85416 0.99301 0.17588 0.0
H167 H 0.88335 0.96411 0.10739 0.0
H168 H 0.87493 0.99279 0.28139 0.0
H169 H 0.90025 0.02474 0.35529 0.0
H170 H 0.85106 0.00072 0.3164 0.0
H171 H 0.8759 0.03205 0.38925 0.0
H172 H 0.88629 0.95429 0.37287 0.0
H173 H 0.87108 0.94015 0.25362 0.0
H174 H 0.88803 0.04098 0.1233 0.0
H175 H 0.8659 0.0539 0.23572 0.0
Li176 Li 0.24455 0.67526 0.47462 0.0
Li177 Li 0.23881 0.66945 0.5445 0.0
Li178 Li 0.25673 0.65405 0.50513 0.0
Li179 Li 0.22989 0.65191 0.48948 0.0
C180 C 0.26695 0.68834 0.51236 0.0
N181 N 0.28322 0.71442 0.49165 0.0
C182 C 0.26217 0.70272 0.52635 0.0
C183 C 0.28009 0.6872 0.48822 0.0
C184 C 0.27053 0.71578 0.51544 0.0
C185 C 0.28814 0.70053 0.47799 0.0
C186 C 0.20921 0.67427 0.51342 0.0
C187 C 0.18922 0.66549 0.55844 0.0
N188 N 0.17908 0.67499 0.53959 0.0
C189 C 0.1986 0.68393 0.49447 0.0
C190 C 0.20451 0.66495 0.54566 0.0
C191 C 0.18342 0.68414 0.50816 0.0
C192 C 0.25324 0.69089 0.40267 0.0
N193 N 0.24549 0.69196 0.43829 0.0
C194 C 0.23638 0.71698 0.4212 0.0
C195 C 0.23725 0.70467 0.44814 0.0
C196 C 0.24401 0.7161 0.38374 0.0
C197 C 0.2527 0.70293 0.37481 0.0
H198 H 0.25951 0.68055 0.39544 0.0
H199 H 0.23115 0.70512 0.47671 0.0
C200 C 0.24309 0.67453 0.62779 0.0
N201 N 0.23524 0.67937 0.59458 0.0
C202 C 0.2436 0.68362 0.66259 0.0
C203 C 0.22748 0.70226 0.62876 0.0
C204 C 0.22724 0.69277 0.59467 0.0
C205 C 0.23615 0.69793 0.66284 0.0
H206 H 0.24971 0.66409 0.62645 0.0
H207 H 0.22155 0.69662 0.56734 0.0
C208 C 0.25541 0.64509 0.42674 0.0
N209 N 0.27248 0.62567 0.37811 0.0
C210 C 0.24935 0.63096 0.41446 0.0
C211 C 0.2701 0.64939 0.41397 0.0
C212 C 0.25818 0.6213 0.38994 0.0
C213 C 0.27857 0.6394 0.38951 0.0
C214 C 0.24536 0.63227 0.55212 0.0
C215 C 0.24315 0.61969 0.52639 0.0
C216 C 0.25395 0.6304 0.58764 0.0
C217 C 0.24944 0.60546 0.53674 0.0
C218 C 0.26014 0.616 0.59682 0.0
N219 N 0.25776 0.60393 0.57142 0.0
C220 C 0.28495 0.64924 0.54159 0.0
C221 C 0.27823 0.62888 0.49731 0.0
C222 C 0.29745 0.64092 0.55626 0.0
N223 N 0.27547 0.64303 0.51323 0.0
C224 C 0.29066 0.62019 0.51095 0.0
C225 C 0.3002 0.62603 0.54166 0.0
H226 H 0.28229 0.66031 0.5546 0.0
H227 H 0.27033 0.62389 0.47586 0.0
C228 C 0.20915 0.64336 0.43082 0.0
N229 N 0.21337 0.64013 0.46953 0.0
C230 C 0.19785 0.63466 0.41172 0.0
C231 C 0.195 0.61985 0.47336 0.0
C232 C 0.20628 0.62897 0.49142 0.0
C233 C 0.19088 0.62246 0.43266 0.0
H234 H 0.21486 0.65251 0.41452 0.0
H235 H 0.20971 0.62687 0.52247 0.0
O236 O 0.25871 0.67547 0.52181 0.0
O237 O 0.22407 0.67387 0.49998 0.0
O238 O 0.24685 0.65478 0.45034 0.0
O239 O 0.23958 0.64639 0.54189 0.0
H240 H 0.25202 0.7038 0.54501 0.0
H241 H 0.28402 0.67614 0.47748 0.0
H242 H 0.26689 0.72699 0.5258 0.0
H243 H 0.29829 0.69983 0.45917 0.0
H244 H 0.18542 0.65834 0.58333 0.0
H245 H 0.20207 0.69118 0.46939 0.0
H246 H 0.21254 0.65738 0.56067 0.0
H247 H 0.17508 0.69157 0.49378 0.0
H248 H 0.22969 0.727 0.42939 0.0
H249 H 0.25856 0.7017 0.34601 0.0
H250 H 0.25031 0.6798 0.68834 0.0
H251 H 0.22179 0.71331 0.62737 0.0
H252 H 0.23799 0.62744 0.42383 0.0
H253 H 0.27498 0.66026 0.42315 0.0
H254 H 0.25365 0.61031 0.38035 0.0
H255 H 0.28999 0.64255 0.37962 0.0
H256 H 0.23695 0.62094 0.49823 0.0
H257 H 0.25604 0.63997 0.60766 0.0
H258 H 0.24786 0.59568 0.51696 0.0
H259 H 0.26689 0.61445 0.62406 0.0
H260 H 0.30433 0.64578 0.58043 0.0
H261 H 0.29243 0.6088 0.49865 0.0
H262 H 0.19477 0.63733 0.38068 0.0
H263 H 0.18999 0.61054 0.49061 0.0
Li264 Li 0.5914 0.98721 0.73467 0.0
Li265 Li 0.59048 0.01385 0.76454 0.0
Li266 Li 0.5702 0.99568 0.77724 0.0
Li267 Li 0.57251 0.00579 0.71065 0.0
C268 C 0.59503 0.98126 0.81723 0.0
N269 N 0.60116 0.95606 0.8655 0.0
C270 C 0.60646 0.98204 0.84691 0.0
C271 C 0.58668 0.96769 0.81221 0.0
C272 C 0.6094 0.96916 0.87099 0.0
C273 C 0.58996 0.95507 0.83688 0.0
C274 C 0.59713 0.01321 0.66984 0.0
C275 C 0.59327 0.03394 0.62239 0.0
N276 N 0.59899 0.02498 0.59216 0.0
C277 C 0.60303 0.00423 0.63835 0.0
C278 C 0.59227 0.02821 0.66189 0.0
C279 C 0.60387 0.01039 0.59927 0.0
C280 C 0.59984 0.96405 0.68169 0.0
N281 N 0.60384 0.97072 0.71737 0.0
C282 C 0.62547 0.95407 0.72389 0.0
C283 C 0.61637 0.96604 0.73858 0.0
C284 C 0.62178 0.94708 0.68664 0.0
C285 C 0.60872 0.95221 0.66557 0.0
H286 H 0.58988 0.96817 0.66534 0.0
H287 H 0.6194 0.97167 0.76667 0.0
C288 C 0.60433 0.02856 0.82956 0.0
N289 N 0.60229 0.02953 0.78877 0.0
C290 C 0.61294 0.03963 0.84995 0.0
C291 C 0.61714 0.05254 0.78593 0.0
C292 C 0.60848 0.04117 0.76674 0.0
C293 C 0.61949 0.05181 0.82807 0.0
H294 H 0.5992 0.01918 0.84624 0.0
H295 H 0.60681 0.04158 0.73431 0.0
C296 C 0.558 0.97446 0.71527 0.0
N297 N 0.53509 0.95434 0.69181 0.0
C298 C 0.54379 0.98006 0.7021 0.0
C299 C 0.56058 0.95861 0.71612 0.0
C300 C 0.53236 0.96971 0.69048 0.0
C301 C 0.54885 0.94864 0.70428 0.0
C302 C 0.55657 0.02263 0.78426 0.0
C303 C 0.54131 0.02085 0.77193 0.0
C304 C 0.55978 0.02908 0.82214 0.0
C305 C 0.5295 0.02537 0.79801 0.0
C306 C 0.54764 0.03344 0.84737 0.0
N307 N 0.53288 0.03149 0.8349 0.0
C308 C 0.56066 0.99314 0.8579 0.0
C309 C 0.54132 0.98655 0.81036 0.0
C310 C 0.55001 0.99288 0.88947 0.0
N311 N 0.55609 0.99035 0.81914 0.0
C312 C 0.53026 0.98634 0.84089 0.0
C313 C 0.53452 0.98997 0.88076 0.0
H314 H 0.57236 0.9966 0.86395 0.0
H315 H 0.53783 0.9848 0.77941 0.0
C316 C 0.56187 0.00103 0.63219 0.0
N317 N 0.56139 0.01116 0.6635 0.0
C318 C 0.55182 0.00263 0.5996 0.0
C319 C 0.54161 0.02557 0.63106 0.0
C320 C 0.55191 0.02354 0.66306 0.0
C321 C 0.54118 0.01476 0.59942 0.0
H322 H 0.56947 0.99122 0.63373 0.0
H323 H 0.55187 0.03143 0.68839 0.0
O324 O 0.59208 0.99377 0.79335 0.0
O325 O 0.59592 0.00727 0.70813 0.0
O326 O 0.56956 0.98438 0.72566 0.0
O327 O 0.56831 0.01785 0.75967 0.0
H328 H 0.61304 0.99246 0.85117 0.0
H329 H 0.57771 0.96693 0.7897 0.0
H330 H 0.61824 0.96959 0.89402 0.0
H331 H 0.58358 0.94449 0.8333 0.0
H332 H 0.58942 0.04548 0.61574 0.0
H333 H 0.60692 0.99264 0.644 0.0
H334 H 0.58743 0.03523 0.68578 0.0
H335 H 0.60837 0.00355 0.57459 0.0
H336 H 0.6353 0.95038 0.74147 0.0
H337 H 0.60557 0.94743 0.63641 0.0
H338 H 0.61436 0.03873 0.88251 0.0
H339 H 0.6222 0.06163 0.76791 0.0
H340 H 0.54153 0.99225 0.70132 0.0
H341 H 0.57156 0.95405 0.72569 0.0
H342 H 0.5213 0.9739 0.68043 0.0
H343 H 0.55069 0.93635 0.70488 0.0
H344 H 0.5386 0.01578 0.74286 0.0
H345 H 0.5715 0.03053 0.8322 0.0
H346 H 0.51764 0.02392 0.78904 0.0
H347 H 0.54996 0.03832 0.87692 0.0
H348 H 0.55365 0.99593 0.91985 0.0
H349 H 0.51839 0.98405 0.83317 0.0
H350 H 0.55176 0.99395 0.57609 0.0
H351 H 0.53371 0.03518 0.63173 0.0
Li352 Li 0.74712 0.67098 0.03498 0.0
Li353 Li 0.73098 0.6526 8e-05 0.0
Li354 Li 0.75866 0.65275 0.99021 0.0
Li355 Li 0.74271 0.67293 0.9624 0.0
C356 C 0.7482 0.64677 0.08139 0.0
N357 N 0.74957 0.64498 0.16501 0.0
C358 C 0.7351 0.64289 0.10368 0.0
C359 C 0.76201 0.64966 0.10162 0.0
C360 C 0.73603 0.64205 0.14593 0.0
C361 C 0.76246 0.64873 0.14391 0.0
C362 C 0.71963 0.68736 0.99429 0.0
C363 C 0.70144 0.69959 0.94956 0.0
N364 N 0.70483 0.7134 0.96663 0.0
C365 C 0.72291 0.70167 0.01146 0.0
C366 C 0.70877 0.68629 0.96318 0.0
C367 C 0.7153 0.7147 0.99705 0.0
C368 C 0.75993 0.69285 0.08917 0.0
N369 N 0.7482 0.68287 0.08264 0.0
C370 C 0.73433 0.69278 0.13924 0.0
C371 C 0.73564 0.68253 0.10704 0.0
C372 C 0.74596 0.70366 0.1459 0.0
C373 C 0.75907 0.70339 0.121 0.0
H374 H 0.76957 0.69314 0.06853 0.0
H375 H 0.72632 0.67473 0.10031 0.0
C376 C 0.71609 0.62475 0.01491 0.0
N377 N 0.71362 0.63991 0.00772 0.0
C378 C 0.70397 0.61531 0.02678 0.0
C379 C 0.68694 0.6372 0.02267 0.0
C380 C 0.6994 0.64622 0.01081 0.0
C381 C 0.68923 0.62159 0.03165 0.0
H382 H 0.72761 0.62017 0.01332 0.0
H383 H 0.69784 0.65838 0.00571 0.0
C384 C 0.77729 0.67592 0.98202 0.0
N385 N 0.80787 0.6758 0.95966 0.0
C386 C 0.78143 0.67841 0.94158 0.0
C387 C 0.7887 0.67345 0.01112 0.0
C388 C 0.79696 0.6783 0.93088 0.0
C389 C 0.8041 0.6734 -0.0008 0.0
C390 C 0.73472 0.63923 0.93058 0.0
C391 C 0.74065 0.62433 0.93267 0.0
C392 C 0.72054 0.64176 0.91184 0.0
C393 C 0.73227 0.6122 0.91601 0.0
C394 C 0.7125 0.62932 0.89562 0.0
N395 N 0.71847 0.61492 0.89802 0.0
C396 C 0.78441 0.63286 0.00524 0.0
C397 C 0.77934 0.63994 0.93705 0.0
C398 C 0.79677 0.62374 0.99286 0.0
N399 N 0.77599 0.64063 0.97724 0.0
C400 C 0.79148 0.63097 0.92337 0.0
C401 C 0.80027 0.62259 0.95135 0.0
H402 H 0.78141 0.63356 0.03699 0.0
H403 H 0.77241 0.64628 0.91557 0.0
C404 C 0.74634 0.70167 0.92762 0.0
N405 N 0.7414 0.6872 0.91949 0.0
C406 C 0.74706 0.71259 0.89682 0.0
C407 C 0.73752 0.6935 0.84982 0.0
C408 C 0.73696 0.68293 0.88164 0.0
C409 C 0.74277 0.7085 0.85721 0.0
H410 H 0.75011 0.70459 0.95792 0.0
H411 H 0.73333 0.67126 0.87599 0.0
O412 O 0.74748 0.64787 0.04004 0.0
O413 O 0.7272 0.6745 0.00732 0.0
O414 O 0.76214 0.67557 0.99292 0.0
O415 O 0.74261 0.65123 0.94734 0.0
H416 H 0.72428 0.64073 0.08862 0.0
H417 H 0.77222 0.65278 0.0849 0.0
H418 H 0.72597 0.63913 0.16357 0.0
H419 H 0.77304 0.65102 0.15997 0.0
H420 H 0.69309 0.69895 0.92533 0.0
H421 H 0.73136 0.70276 0.03532 0.0
H422 H 0.70618 0.67533 0.94934 0.0
H423 H 0.71778 0.72585 0.00994 0.0
H424 H 0.72412 0.6925 0.15796 0.0
H425 H 0.76818 0.71174 0.12475 0.0
H426 H 0.7063 0.60341 0.03411 0.0
H427 H 0.67573 0.64246 0.02586 0.0
H428 H 0.77276 0.68019 0.91856 0.0
H429 H 0.7857 0.67144 0.0425 0.0
H430 H 0.80033 0.68012 0.89967 0.0
H431 H 0.81304 0.67142 0.02136 0.0
H432 H 0.75152 0.62212 0.94745 0.0
H433 H 0.71572 0.65319 0.91024 0.0
H434 H 0.73669 0.6006 0.91756 0.0
H435 H 0.70148 0.6311 0.88121 0.0
H436 H 0.80325 0.61735 0.01527 0.0
H437 H 0.79394 0.63053 0.89117 0.0
H438 H 0.75141 0.72395 0.90367 0.0
H439 H 0.73401 0.68994 0.81973 0.0
Li440 Li 0.09429 0.98388 0.75642 0.0
Li441 Li 0.07402 0.00021 0.78199 0.0
Li442 Li 0.0757 0.99331 0.71018 0.0
Li443 Li 0.09416 0.01115 0.73648 0.0
C444 C 0.07094 0.96503 0.76885 0.0
N445 N 0.06966 0.93475 0.79356 0.0
C446 C 0.0697 0.96146 0.81005 0.0
C447 C 0.07128 0.95322 0.74016 0.0
C448 C 0.06914 0.94607 0.82195 0.0
C449 C 0.07068 0.93798 0.75327 0.0
C450 C 0.09989 0.01364 0.8189 0.0
C451 C 0.09467 0.0386 0.84742 0.0
N452 N 0.10699 0.03699 0.87243 0.0
C453 C 0.1125 0.01223 0.84484 0.0
C454 C 0.09089 0.02693 0.82014 0.0
C455 C 0.1159 0.02416 0.87171 0.0
C456 C 0.11589 0.9592 0.74827 0.0
N457 N 0.10708 0.96764 0.774 0.0
C458 C 0.11692 0.95405 0.83125 0.0
C459 C 0.10748 0.96535 0.81475 0.0
C460 C 0.12622 0.94519 0.80556 0.0
C461 C 0.12563 0.94783 0.76354 0.0
H462 H 0.11555 0.96144 0.71607 0.0
H463 H 0.10055 0.97247 0.83447 0.0
C464 C 0.04533 0.00313 0.81828 0.0
N465 N 0.06059 0.0026 0.82654 0.0
C466 C 0.03463 0.00275 0.84972 0.0
C467 C 0.05559 0.00123 0.89769 0.0
C468 C 0.06589 0.0017 0.86527 0.0
C469 C 0.03972 0.00151 0.89003 0.0
H470 H 0.04146 0.00321 0.78718 0.0
H471 H 0.07807 0.00065 0.87095 0.0
C472 C 0.10092 0.98877 0.66323 0.0
N473 N 0.10596 0.98041 0.58347 0.0
C474 C 0.10682 -0.00056 0.63562 0.0
C475 C 0.09769 0.97383 0.65034 0.0
C476 C 0.10927 0.99499 0.59541 0.0
C477 C 0.10027 0.96984 0.60987 0.0
C478 C 0.06401 0.0216 0.70385 0.0
C479 C 0.07199 0.02712 0.67004 0.0
C480 C 0.04805 0.02322 0.70557 0.0
C481 C 0.06388 0.03419 0.63859 0.0
C482 C 0.04034 0.03027 0.6734 0.0
N483 N 0.04835 0.03557 0.64087 0.0
C484 C 0.04819 0.98381 0.67633 0.0
C485 C 0.06509 0.99443 0.62743 0.0
C486 C 0.03618 0.98378 0.64836 0.0
N487 N 0.06221 0.98939 0.66574 0.0
C488 C 0.05345 0.9945 0.59842 0.0
C489 C 0.03866 0.98956 0.60915 0.0
H490 H 0.0461 0.98023 0.70726 0.0
H491 H 0.07603 -0.00054 0.61999 0.0
C492 C 0.1215 0.02545 0.71512 0.0
N493 N 0.10671 0.02833 0.72564 0.0
C494 C 0.13094 0.03737 0.70198 0.0
C495 C 0.10995 0.05512 0.71282 0.0
C496 C 0.10091 0.04283 0.72582 0.0
C497 C 0.12507 0.05237 0.69975 0.0
H498 H 0.12577 0.01379 0.71565 0.0
H499 H 0.0891 0.04475 0.7346 0.0
O500 O 0.07177 0.98001 0.75663 0.0
O501 O 0.09653 0.00206 0.79229 0.0
O502 O 0.09854 0.99289 0.70277 0.0
O503 O 0.07174 0.01426 0.73444 0.0
H504 H 0.06937 0.97046 0.83263 0.0
H505 H 0.07193 0.95581 0.70812 0.0
H506 H 0.06832 0.94313 0.85376 0.0
H507 H 0.071 0.92872 0.73142 0.0
H508 H 0.08781 0.04895 0.84872 0.0
H509 H 0.11958 0.00201 0.84418 0.0
H510 H 0.08107 0.02823 0.80037 0.0
H511 H 0.12563 0.02322 0.89198 0.0
H512 H 0.11724 0.95255 0.86386 0.0
H513 H 0.13264 0.94121 0.74278 0.0
H514 H 0.02251 0.00309 0.84247 0.0
H515 H 0.06 -3e-05 0.92823 0.0
H516 H 0.10936 0.01106 0.64497 0.0
H517 H 0.09319 0.96543 0.67131 0.0
H518 H 0.11376 0.00314 0.57368 0.0
H519 H 0.09776 0.95833 0.59944 0.0
H520 H 0.08428 0.02563 0.66755 0.0
H521 H 0.04164 0.019 0.73129 0.0
H522 H 0.06992 0.03841 0.61217 0.0
H523 H 0.02798 0.0315 0.67426 0.0
H524 H 0.02493 0.97981 0.65769 0.0
H525 H 0.05575 -0.00068 0.56874 0.0
H526 H 0.14262 0.03482 0.69295 0.0
H527 H 0.10498 0.0665 0.71145 0.0
Li528 Li 0.7606 0.34165 0.51521 0.0
Li529 Li 0.74151 0.32293 0.53805 0.0
Li530 Li 0.75334 0.31988 0.47091 0.0
Li531 Li 0.73499 0.33962 0.48417 0.0
C532 C 0.77206 0.30693 0.53272 0.0
N533 N 0.78945 0.2811 0.54908 0.0
C534 C 0.76492 0.29277 0.53915 0.0
C535 C 0.78807 0.30797 0.53495 0.0
C536 C 0.7739 0.27984 0.54729 0.0
C537 C 0.79665 0.29477 0.54314 0.0
C538 C 0.73456 0.34818 0.57822 0.0
C539 C 0.71421 0.34563 0.62741 0.0
N540 N 0.72331 0.35239 0.65581 0.0
C541 C 0.74366 0.35522 0.60778 0.0
C542 C 0.71967 0.34347 0.58797 0.0
C543 C 0.73778 0.3572 0.64687 0.0
C544 C 0.77989 0.36792 0.51536 0.0
N545 N 0.77652 0.35443 0.5341 0.0
C546 C 0.79511 0.35928 0.58568 0.0
C547 C 0.78392 0.34991 0.56834 0.0
C548 C 0.79875 0.37334 0.56726 0.0
C549 C 0.79116 0.37757 0.53137 0.0
H550 H 0.77365 0.37127 0.48839 0.0
H551 H 0.78084 0.33917 0.58268 0.0
C552 C 0.72596 0.29955 0.58082 0.0
N553 N 0.73588 0.31152 0.58444 0.0
C554 C 0.72449 0.28896 0.61236 0.0
C555 C 0.74261 0.3039 0.65164 0.0
C556 C 0.744 0.31399 0.61904 0.0
C557 C 0.73314 0.29097 0.64786 0.0
H558 H 0.72001 0.29765 0.55247 0.0
H559 H 0.75221 0.32328 0.62041 0.0
C560 C 0.76804 0.34482 0.43327 0.0
N561 N 0.79409 0.35093 0.38819 0.0
C562 C 0.76702 0.35355 0.3978 0.0
C563 C 0.78232 0.33925 0.4459 0.0
C564 C 0.78032 0.35649 0.37538 0.0
C565 C 0.79535 0.34246 0.4227 0.0
C566 C 0.71836 0.31591 0.46551 0.0
C567 C 0.71879 0.31358 0.42357 0.0
C568 C 0.70421 0.31737 0.48516 0.0
C569 C 0.70502 0.31289 0.40188 0.0
C570 C 0.6907 0.31663 0.46239 0.0
N571 N 0.69138 0.31444 0.42157 0.0
C572 C 0.7532 0.29037 0.44106 0.0
C573 C 0.76711 0.30714 0.398 0.0
C574 C 0.75486 0.27836 0.41352 0.0
N575 N 0.75924 0.30443 0.43295 0.0
C576 C 0.76901 0.29544 0.36948 0.0
C577 C 0.76262 0.2809 0.37686 0.0
H578 H 0.74642 0.28867 0.46812 0.0
H579 H 0.77141 0.31844 0.39119 0.0
C580 C 0.7085 0.35866 0.48058 0.0
N581 N 0.71935 0.35115 0.45861 0.0
C582 C 0.69736 0.36747 0.46097 0.0
C583 C 0.7087 0.36046 0.3966 0.0
C584 C 0.71965 0.35186 0.41745 0.0
C585 C 0.69744 0.36853 0.41841 0.0
H586 H 0.70865 0.35801 0.5133 0.0
H587 H 0.72846 0.34575 0.40086 0.0
O588 O 0.76349 0.31981 0.52521 0.0
O589 O 0.74018 0.34602 0.53987 0.0
O590 O 0.75513 0.3421 0.45579 0.0
O591 O 0.73172 0.31698 0.48713 0.0
H592 H 0.75258 0.29172 0.53772 0.0
H593 H 0.79381 0.31886 0.53058 0.0
H594 H 0.7685 0.26881 0.55222 0.0
H595 H 0.80904 0.29542 0.54487 0.0
H596 H 0.70276 0.34192 0.63545 0.0
H597 H 0.75513 0.35912 0.60067 0.0
H598 H 0.71248 0.33801 0.56547 0.0
H599 H 0.74472 0.36258 0.6701 0.0
H600 H 0.80079 0.35564 0.61329 0.0
H601 H 0.79358 0.38842 0.5166 0.0
H602 H 0.71721 0.27898 0.60849 0.0
H603 H 0.74964 0.3056 0.67838 0.0
H604 H 0.75607 0.35802 0.38773 0.0
H605 H 0.78333 0.33249 0.47318 0.0
H606 H 0.7797 0.36321 0.34782 0.0
H607 H 0.80647 0.3382 0.4321 0.0
H608 H 0.72964 0.31254 0.4078 0.0
H609 H 0.70367 0.31913 0.5176 0.0
H610 H 0.70519 0.31119 0.36938 0.0
H611 H 0.67967 0.31782 0.47716 0.0
H612 H 0.74945 0.26743 0.41997 0.0
H613 H 0.77506 0.29785 0.34149 0.0
H614 H 0.68903 0.3737 0.479 0.0
H615 H 0.70907 0.36081 0.36377 0.0
Li616 Li 0.40267 0.01142 0.25112 0.0
Li617 Li 0.42378 -0.00174 0.28404 0.0
Li618 Li 0.4247 0.00434 0.21194 0.0
Li619 Li 0.40773 0.98438 0.23759 0.0
C620 C 0.43453 0.02938 0.24731 0.0
N621 N 0.45673 0.05013 0.2231 0.0
C622 C 0.44902 0.02928 0.2656 0.0
C623 C 0.43132 0.04008 0.21686 0.0
C624 C 0.46009 0.03986 0.25292 0.0
C625 C 0.4427 0.05045 0.20498 0.0
C626 C 0.40002 0.99205 0.32987 0.0
C627 C 0.40255 0.97667 0.39033 0.0
N628 N 0.39818 0.98893 0.41312 0.0
C629 C 0.39547 0.00448 0.35384 0.0
C630 C 0.40351 0.978 0.34817 0.0
C631 C 0.39463 0.00268 0.3959 0.0
C632 C 0.37256 0.02042 0.26764 0.0
N633 N 0.38693 0.02586 0.26051 0.0
C634 C 0.37916 0.05133 0.27744 0.0
C635 C 0.39038 0.04099 0.2646 0.0
C636 C 0.36432 0.04597 0.2864 0.0
C637 C 0.36098 0.03035 0.28046 0.0
H638 H 0.37026 0.00826 0.26488 0.0
H639 H 0.402 0.0449 0.25965 0.0
C640 C 0.44694 0.98737 0.33725 0.0
N641 N 0.43581 -0.0019 0.33167 0.0
C642 C 0.45736 0.98889 0.36919 0.0
C643 C 0.44435 0.01221 0.38945 0.0
C644 C 0.43421 0.01024 0.35718 0.0
C645 C 0.45633 0.00164 0.39519 0.0
H646 H 0.44816 0.97804 0.31589 0.0
H647 H 0.42546 0.01878 0.35132 0.0
C648 C 0.39014 0.00643 0.1805 0.0
N649 N 0.36342 0.01827 0.14788 0.0
C650 C 0.37657 -0.00213 0.18166 0.0
C651 C 0.39015 0.02096 0.16252 0.0
C652 C 0.36318 0.00406 0.16503 0.0
C653 C 0.37652 0.02677 0.14629 0.0
C654 C 0.43456 0.97045 0.2288 0.0
C655 C 0.44055 0.96749 0.19023 0.0
C656 C 0.43238 0.95834 0.256 0.0
C657 C 0.44412 0.9524 0.1794 0.0
C658 C 0.43608 0.94341 0.244 0.0
N659 N 0.44181 0.94077 0.20626 0.0
C660 C 0.45327 0.00877 0.17488 0.0
C661 C 0.43196 0.00929 0.13002 0.0
C662 C 0.46346 0.00919 0.14231 0.0
N663 N 0.43788 0.00868 0.16811 0.0
C664 C 0.44174 0.00951 0.09653 0.0
C665 C 0.45769 0.00915 0.10259 0.0
H666 H 0.45762 0.00765 0.20544 0.0
H667 H 0.41967 0.00879 0.1256 0.0
C668 C 0.3875 0.95881 0.24511 0.0
N669 N 0.39827 0.96582 0.22177 0.0
C670 C 0.37878 0.94675 0.22916 0.0
C671 C 0.393 0.949 0.16641 0.0
C672 C 0.40122 0.96112 0.18328 0.0
C673 C 0.38125 0.94195 0.18891 0.0
H674 H 0.38512 0.96309 0.27526 0.0
H675 H 0.40953 0.96724 0.16506 0.0
O676 O 0.42358 0.01902 0.25899 0.0
O677 O 0.40115 0.99364 0.28872 0.0
O678 O 0.40331 0.0007 0.19726 0.0
O679 O 0.43083 0.98513 0.23985 0.0
H680 H 0.45178 0.02103 0.28899 0.0
H681 H 0.42019 0.04028 0.20229 0.0
H682 H 0.47136 0.03987 0.26668 0.0
H683 H 0.44039 0.05874 0.18131 0.0
H684 H 0.40529 0.96588 0.40493 0.0
H685 H 0.39279 0.01546 0.34021 0.0
H686 H 0.40698 0.96825 0.33001 0.0
H687 H 0.39122 0.01223 0.41486 0.0
H688 H 0.38228 0.06323 0.28225 0.0
H689 H 0.34966 0.02579 0.28672 0.0
H690 H 0.46656 0.9806 0.37225 0.0
H691 H 0.44308 0.02212 0.40903 0.0
H692 H 0.37632 0.98663 0.19559 0.0
H693 H 0.40056 0.02773 0.16135 0.0
H694 H 0.35257 0.9976 0.16588 0.0
H695 H 0.37634 0.03803 0.13245 0.0
H696 H 0.44229 0.9767 0.16873 0.0
H697 H 0.42777 0.96044 0.28596 0.0
H698 H 0.44869 0.94992 0.14959 0.0
H699 H 0.43437 0.93391 0.26468 0.0
H700 H 0.4757 0.00862 0.14807 0.0
H701 H 0.43691 0.00945 0.06624 0.0
H702 H 0.3697 0.94181 0.24743 0.0
H703 H 0.39548 0.94555 0.13554 0.0
Li704 Li 0.73426 0.8414 0.50543 0.0
Li705 Li 0.76096 0.84124 0.48429 0.0
Li706 Li 0.74283 0.82287 0.4569 0.0
Li707 Li 0.75155 0.82104 0.52667 0.0
C708 C 0.73948 0.84668 0.41054 0.0
N709 N 0.73377 0.84761 0.32811 0.0
C710 C 0.75126 0.85043 0.38346 0.0
C711 C 0.7248 0.84343 0.39568 0.0
C712 C 0.74813 0.85085 0.3419 0.0
C713 C 0.72215 0.84394 0.35391 0.0
C714 C 0.76181 0.85439 0.55489 0.0
C715 C 0.78598 0.86329 0.58178 0.0
N716 N 0.78064 0.87796 0.58081 0.0
C717 C 0.75654 0.86955 0.55425 0.0
C718 C 0.77663 0.85121 0.56888 0.0
C719 C 0.76624 0.88131 0.56747 0.0
C720 C 0.71741 0.85604 0.56531 0.0
N721 N 0.71787 0.85372 0.5246 0.0
C722 C 0.69512 0.86862 0.51545 0.0
C723 C 0.70707 0.85977 0.49953 0.0
C724 C 0.69445 0.87139 0.55747 0.0
C725 C 0.70583 0.86494 0.58244 0.0
H726 H 0.72617 0.85103 0.58447 0.0
H727 H 0.70768 0.85769 0.46729 0.0
C728 C 0.79189 0.84801 0.46347 0.0
N729 N 0.77769 0.85399 0.47009 0.0
C730 C 0.80368 0.85735 0.44878 0.0
C731 C 0.78601 0.87879 0.44863 0.0
C732 C 0.77459 0.86906 0.4633 0.0
C733 C 0.80071 0.8729 0.44055 0.0
H734 H 0.79392 0.83592 0.46831 0.0
H735 H 0.7631 0.8734 0.46815 0.0
C736 C 0.71634 0.81859 0.52302 0.0
N737 N 0.68789 0.8194 0.56005 0.0
C738 C 0.71514 0.81686 0.56506 0.0
C739 C 0.70308 0.8207 0.4998 0.0
C740 C 0.70064 0.8173 0.5832 0.0
C741 C 0.6888 0.82109 0.5191 0.0
C742 C 0.77252 0.80649 0.48546 0.0
C743 C 0.76854 0.7922 0.4692 0.0
C744 C 0.78496 0.8076 0.51209 0.0
C745 C 0.77705 0.77924 0.48006 0.0
C746 C 0.79317 0.79436 0.52224 0.0
N747 N 0.78908 0.78057 0.50615 0.0
C748 C 0.74942 0.81045 0.38137 0.0
C749 C 0.72621 0.80119 0.41004 0.0
C750 C 0.74831 0.79998 0.34957 0.0
N751 N 0.73855 0.81072 0.41091 0.0
C752 C 0.72464 0.79051 0.37875 0.0
C753 C 0.73597 0.78961 0.34848 0.0
H754 H 0.75934 0.81786 0.38364 0.0
H755 H 0.71795 0.80143 0.43449 0.0
C756 C 0.76071 0.81047 0.60521 0.0
N757 N 0.755 0.80657 0.56826 0.0
C758 C 0.76092 0.79966 0.63656 0.0
C759 C 0.74975 0.78108 0.59068 0.0
C760 C 0.74971 0.7922 0.56041 0.0
C761 C 0.75507 0.78485 0.62961 0.0
H762 H 0.7645 0.8221 0.61079 0.0
H763 H 0.74493 0.78958 0.53093 0.0
O764 O 0.74236 0.84597 0.45131 0.0
O765 O 0.75261 0.84275 0.5413 0.0
O766 O 0.73046 0.81866 0.50481 0.0
O767 O 0.76417 0.81929 0.4758 0.0
H768 H 0.76272 0.85284 0.39428 0.0
H769 H 0.71562 0.84026 0.41611 0.0
H770 H 0.75715 0.85369 0.32059 0.0
H771 H 0.71087 0.84134 0.34199 0.0
H772 H 0.7975 0.861 0.59248 0.0
H773 H 0.74518 0.87225 0.5431 0.0
H774 H 0.7809 0.83955 0.56944 0.0
H775 H 0.76235 0.8931 0.56694 0.0
H776 H 0.68649 0.87318 0.49509 0.0
H777 H 0.70599 0.86697 0.61484 0.0
H778 H 0.81481 0.85233 0.44249 0.0
H779 H 0.7833 0.89075 0.4431 0.0
H780 H 0.72528 0.81542 0.58361 0.0
H781 H 0.70381 0.82225 0.4673 0.0
H782 H 0.69955 0.81606 0.61573 0.0
H783 H 0.67845 0.82281 0.50154 0.0
H784 H 0.75888 0.79107 0.44883 0.0
H785 H 0.78815 0.81853 0.52514 0.0
H786 H 0.77406 0.7681 0.46786 0.0
H787 H 0.80277 0.79504 0.54299 0.0
H788 H 0.75745 0.79948 0.32733 0.0
H789 H 0.71491 0.78276 0.37885 0.0
H790 H 0.76495 0.80307 0.66631 0.0
H791 H 0.74531 0.76974 0.58393 0.0
Li792 Li 0.40249 0.51583 0.73789 0.0
Li793 Li 0.40175 0.48951 0.7548 0.0
Li794 Li 0.42343 0.50546 0.77443 0.0
Li795 Li 0.4199 0.49887 0.7015 0.0
C796 C 0.39167 0.51548 0.81369 0.0
N797 N 0.37055 0.53318 0.85524 0.0
C798 C 0.377 0.50971 0.82181 0.0
C799 C 0.39564 0.53018 0.82703 0.0
C800 C 0.36648 0.51885 0.84281 0.0
C801 C 0.38478 0.53898 0.84785 0.0
C802 C 0.38352 0.50295 0.68476 0.0
C803 C 0.36951 0.51713 0.63396 0.0
N804 N 0.35614 0.51371 0.65331 0.0
C805 C 0.36965 0.49952 0.70407 0.0
C806 C 0.38346 0.51173 0.64927 0.0
C807 C 0.35592 0.50506 0.68768 0.0
C808 C 0.39773 0.54408 0.70124 0.0
N809 N 0.39073 0.53384 0.72628 0.0
C810 C 0.36691 0.54727 0.72017 0.0
C811 C 0.37567 0.53536 0.73649 0.0
C812 C 0.37369 0.55753 0.69267 0.0
C813 C 0.38939 0.55608 0.68402 0.0
H814 H 0.40961 0.54246 0.69281 0.0
H815 H 0.37015 0.52681 0.75511 0.0
C816 C 0.39057 0.47011 0.81407 0.0
N817 N 0.39038 0.47242 0.77334 0.0
C818 C 0.38282 0.45769 0.83095 0.0
C819 C 0.37491 0.4501 0.7635 0.0
C820 C 0.38288 0.46271 0.74786 0.0
C821 C 0.3748 0.44751 0.80561 0.0
H822 H 0.39677 0.47799 0.83345 0.0
H823 H 0.38313 0.46476 0.7155 0.0
C824 C 0.43703 0.52759 0.73373 0.0
N825 N 0.4631 0.5445 0.75054 0.0
C826 C 0.45113 0.52342 0.71668 0.0
C827 C 0.43616 0.54044 0.759 0.0
C828 C 0.46418 0.5321 0.72563 0.0
C829 C 0.44948 0.54882 0.76723 0.0
C830 C 0.42523 0.47024 0.75933 0.0
C831 C 0.42873 0.4665 0.79951 0.0
C832 C 0.42198 0.45858 0.73152 0.0
C833 C 0.42886 0.45108 0.81126 0.0
C834 C 0.42221 0.4433 0.74447 0.0
N835 N 0.42561 0.4399 0.78374 0.0
C836 C 0.43579 0.512 0.85216 0.0
C837 C 0.45297 0.50176 0.80329 0.0
C838 C 0.44698 0.51076 0.88234 0.0
N839 N 0.43895 0.50732 0.81376 0.0
C840 C 0.46447 0.50035 0.83237 0.0
C841 C 0.46142 0.50453 0.8727 0.0
H842 H 0.42441 0.51602 0.85976 0.0
H843 H 0.45498 0.4978 0.77265 0.0
C844 C 0.42975 0.50741 0.62528 0.0
N845 N 0.43091 0.49599 0.65315 0.0
C846 C 0.43986 0.50798 0.59259 0.0
C847 C 0.45188 0.48474 0.61731 0.0
C848 C 0.4415 0.48462 0.64961 0.0
C849 C 0.45138 0.49678 0.58895 0.0
H850 H 0.42154 0.51657 0.62979 0.0
H851 H 0.44248 0.47599 0.67305 0.0
O852 O 0.40218 0.50665 0.79359 0.0
O853 O 0.39709 0.49789 0.70083 0.0
O854 O 0.42415 0.51913 0.72586 0.0
O855 O 0.42457 0.48528 0.74754 0.0
H856 H 0.37371 0.49837 0.81166 0.0
H857 H 0.40697 0.53476 0.82128 0.0
H858 H 0.35506 0.51457 0.84912 0.0
H859 H 0.38767 0.55041 0.85817 0.0
H860 H 0.3693 0.52408 0.60675 0.0
H861 H 0.36948 0.49287 0.73177 0.0
H862 H 0.39409 0.51452 0.63399 0.0
H863 H 0.34511 0.50258 0.70245 0.0
H864 H 0.35476 0.54786 0.72702 0.0
H865 H 0.39503 0.56383 0.66305 0.0
H866 H 0.38286 0.45624 0.86359 0.0
H867 H 0.36898 0.44243 0.74292 0.0
H868 H 0.45202 0.51348 0.69713 0.0
H869 H 0.42531 0.5439 0.77211 0.0
H870 H 0.47518 0.52895 0.71285 0.0
H871 H 0.44899 0.55876 0.78687 0.0
H872 H 0.43112 0.4754 0.82152 0.0
H873 H 0.41908 0.46132 0.70041 0.0
H874 H 0.43147 0.44801 0.8423 0.0
H875 H 0.41962 0.43415 0.72335 0.0
H876 H 0.44411 0.51393 0.91319 0.0
H877 H 0.4755 0.49564 0.82363 0.0
H878 H 0.43904 0.5174 0.57122 0.0
H879 H 0.46074 0.47603 0.61591 0.0
Li880 Li 0.75278 0.17563 0.96628 0.0
Li881 Li 0.74874 0.17254 0.03918 0.0
Li882 Li 0.7629 0.15343 0.00074 0.0
Li883 Li 0.73519 0.15641 0.99274 0.0
C884 C 0.77828 0.18649 -0.0001 0.0
N885 N 0.79763 0.21022 0.97801 0.0
C886 C 0.77802 0.20032 0.02142 0.0
C887 C 0.78845 0.18469 0.96745 0.0
C888 C 0.78789 0.21219 0.00984 0.0
C889 C 0.79811 0.19684 0.95677 0.0
C890 C 0.71872 0.18144 0.98912 0.0
C891 C 0.69195 0.18009 0.0075 0.0
N892 N 0.68806 0.18495 0.96966 0.0
C893 C 0.71447 0.1865 0.95048 0.0
C894 C 0.70739 0.17829 0.01797 0.0
C895 C 0.6989 0.18818 0.94121 0.0
C896 C 0.75308 0.18487 0.88498 0.0
N897 N 0.75481 0.18998 0.92367 0.0
C898 C 0.75448 0.21607 0.90145 0.0
C899 C 0.75554 0.20522 0.93244 0.0
C900 C 0.75213 0.21111 0.8615 0.0
C901 C 0.75161 0.19533 0.85317 0.0
H902 H 0.75206 0.1727 0.8791 0.0
H903 H 0.75619 0.20896 0.96363 0.0
C904 C 0.76146 0.18139 0.11281 0.0
N905 N 0.74887 0.18321 0.08896 0.0
C906 C 0.76322 0.19017 0.14782 0.0
C907 C 0.73891 0.20245 0.13324 0.0
C908 C 0.73759 0.19335 0.09854 0.0
C909 C 0.752 0.20109 0.158 0.0
H910 H 0.77039 0.17344 0.10385 0.0
H911 H 0.72787 0.19477 0.0785 0.0
C912 C 0.75711 0.14235 0.92814 0.0
N913 N 0.77019 0.11815 0.88643 0.0
C914 C 0.75004 0.12794 0.92825 0.0
C915 C 0.77076 0.14449 0.9066 0.0
C916 C 0.75685 0.11584 0.90702 0.0
C917 C 0.77721 0.13209 0.88578 0.0
C918 C 0.74588 0.14735 0.08199 0.0
C919 C 0.75896 0.14229 0.10263 0.0
C920 C 0.7324 0.15033 0.1036 0.0
C921 C 0.75835 0.1404 0.14469 0.0
C922 C 0.73226 0.14833 0.14565 0.0
N923 N 0.74514 0.14345 0.16515 0.0
C924 C 0.79354 0.14404 0.01248 0.0
C925 C 0.7752 0.12394 0.00906 0.0
C926 C 0.80492 0.13373 0.02459 0.0
N927 N 0.77899 0.13902 0.00576 0.0
C928 C 0.78622 0.11323 0.02085 0.0
C929 C 0.80119 0.11816 0.03003 0.0
H930 H 0.7961 0.15616 0.01077 0.0
H931 H 0.76342 0.12038 0.00473 0.0
C932 C 0.71252 0.14727 0.93969 0.0
N933 N 0.71703 0.14579 0.97892 0.0
C934 C 0.70035 0.13858 0.92482 0.0
C935 C 0.69742 0.12722 0.99136 0.0
C936 C 0.7097 0.13618 0.005 0.0
C937 C 0.69285 0.12815 0.95052 0.0
H938 H 0.71874 0.15488 0.9196 0.0
H939 H 0.71373 0.13506 0.03587 0.0
O940 O 0.76865 0.17476 0.01059 0.0
O941 O 0.73389 0.17942 -0.00144 0.0
O942 O 0.75073 0.1543 0.9491 0.0
O943 O 0.7463 0.14951 0.0409 0.0
H944 H 0.7702 0.20195 0.04653 0.0
H945 H 0.78881 0.17404 0.95058 0.0
H946 H 0.78777 0.22298 0.0261 0.0
H947 H 0.80599 0.19563 0.9316 0.0
H948 H 0.68305 0.1776 0.02945 0.0
H949 H 0.72306 0.18899 0.92775 0.0
H950 H 0.71048 0.17436 0.048 0.0
H951 H 0.69544 0.19201 0.91136 0.0
H952 H 0.75466 0.22819 0.90884 0.0
H953 H 0.74968 0.19119 0.8226 0.0
H954 H 0.7734 0.18864 0.16625 0.0
H955 H 0.73011 0.2109 0.13962 0.0
H956 H 0.7395 0.12606 0.94492 0.0
H957 H 0.77632 0.15559 0.90605 0.0
H958 H 0.75155 0.1046 0.907 0.0
H959 H 0.78781 0.13357 0.86909 0.0
H960 H 0.76952 0.14 0.08648 0.0
H961 H 0.72218 0.15427 0.08812 0.0
H962 H 0.76841 0.13656 0.16107 0.0
H963 H 0.72193 0.15067 0.16278 0.0
H964 H 0.81623 0.13806 0.03193 0.0
H965 H 0.78291 0.10131 0.02428 0.0
H966 H 0.69708 0.13975 0.89327 0.0
H967 H 0.69203 0.11918 0.01198 0.0
Li968 Li 0.09187 0.50435 0.25163 0.0
Li969 Li 0.09087 0.47737 0.23747 0.0
Li970 Li 0.07141 0.49523 0.21182 0.0
Li971 Li 0.07151 0.48972 0.28366 0.0
C972 C 0.10568 0.5008 0.17958 0.0
N973 N 0.13073 0.51416 0.14218 0.0
C974 C 0.11934 0.49254 0.17509 0.0
C975 C 0.10471 0.5158 0.16472 0.0
C976 C 0.13189 0.49951 0.15615 0.0
C977 C 0.11753 0.52237 0.14604 0.0
C978 C 0.10699 0.4911 0.31237 0.0
C979 C 0.11892 0.50367 0.36948 0.0
N980 N 0.13299 0.50044 0.3537 0.0
C981 C 0.12157 0.48787 0.2968 0.0
C982 C 0.10564 0.49899 0.34912 0.0
C983 C 0.13457 0.49268 0.31815 0.0
C984 C 0.09806 0.53322 0.28381 0.0
N985 N 0.10488 0.52147 0.26349 0.0
C986 C 0.12949 0.53322 0.27117 0.0
C987 C 0.12027 0.5214 0.25639 0.0
C988 C 0.12279 0.54526 0.29325 0.0
C989 C 0.10682 0.54535 0.29881 0.0
H990 H 0.08586 0.5329 0.2898 0.0
H991 H 0.12554 0.51186 0.24084 0.0
C992 C 0.09679 0.45466 0.18363 0.0
N993 N 0.10109 0.45931 0.22125 0.0
C994 C 0.10468 0.44289 0.16416 0.0
C995 C 0.12093 0.44042 0.22332 0.0
C996 C 0.11253 0.45215 0.24195 0.0
C997 C 0.11731 0.43599 0.18336 0.0
H998 H 0.08754 0.46055 0.16817 0.0
H999 H 0.11553 0.45592 0.27216 0.0
C1000 C 0.05869 0.51906 0.2437 0.0
N1001 N 0.03521 0.53725 0.21433 0.0
C1002 C 0.0435 0.51611 0.25501 0.0
C1003 C 0.06196 0.53131 0.21773 0.0
C1004 C 0.03179 0.52543 0.23977 0.0
C1005 C 0.04992 0.54035 0.20312 0.0
C1006 C 0.06395 0.4608 0.25166 0.0
C1007 C 0.05213 0.45265 0.23273 0.0
C1008 C 0.07188 0.45414 0.2841 0.0
C1009 C 0.04835 0.43799 0.24676 0.0
C1010 C 0.06776 0.43945 0.29721 0.0
N1011 N 0.05618 0.43175 0.27844 0.0
C1012 C 0.06316 0.50381 0.13187 0.0
C1013 C 0.04342 0.49284 0.17215 0.0
C1014 C 0.05348 0.50413 0.09817 0.0
N1015 N 0.05801 0.49809 0.1677 0.0
C1016 C 0.03334 0.49299 0.13934 0.0
C1017 C 0.03843 0.49845 0.10158 0.0
H1018 H 0.07489 0.50769 0.12915 0.0
H1019 H 0.03978 0.48814 0.20095 0.0
C1020 C 0.06017 0.50177 0.35409 0.0
N1021 N 0.05848 0.48935 0.32956 0.0
C1022 C 0.04954 0.50471 0.38469 0.0
C1023 C 0.03569 0.48187 0.36469 0.0
C1024 C 0.04662 0.47936 0.33439 0.0
C1025 C 0.03691 0.49489 0.38969 0.0
H1026 H 0.06932 0.50987 0.34841 0.0
H1027 H 0.0451 0.46994 0.31354 0.0
O1028 O 0.09323 0.49412 0.19769 0.0
O1029 O 0.09412 0.48665 0.2916 0.0
O1030 O 0.07029 0.50987 0.25756 0.0
O1031 O 0.06783 0.47509 0.23787 0.0
H1032 H 0.12029 0.48089 0.18623 0.0
H1033 H 0.09423 0.52236 0.16793 0.0
H1034 H 0.14255 0.49327 0.15261 0.0
H1035 H 0.11698 0.53401 0.13463 0.0
H1036 H 0.11804 0.50985 0.39784 0.0
H1037 H 0.12285 0.48211 0.26796 0.0
H1038 H 0.09449 0.50151 0.3618 0.0
H1039 H 0.14591 0.49038 0.30622 0.0
H1040 H 0.14178 0.5328 0.26614 0.0
H1041 H 0.10127 0.55435 0.31613 0.0
H1042 H 0.10122 0.43958 0.13384 0.0
H1043 H 0.13059 0.43544 0.23927 0.0
H1044 H 0.04076 0.50663 0.27492 0.0
H1045 H 0.07367 0.53375 0.20884 0.0
H1046 H 0.01997 0.52324 0.24806 0.0
H1047 H 0.05227 0.54983 0.18285 0.0
H1048 H 0.04594 0.45761 0.20744 0.0
H1049 H 0.0811 0.46022 0.29908 0.0
H1050 H 0.0392 0.43156 0.23244 0.0
H1051 H 0.07378 0.43417 0.3223 0.0
H1052 H 0.05777 0.50855 0.06962 0.0
H1053 H 0.0219 0.48831 0.14308 0.0
H1054 H 0.05095 0.51483 0.40344 0.0
H1055 H 0.02597 0.47416 0.36709 0.0
Li1056 Li 0.25627 0.17548 0.53662 0.0
Li1057 Li 0.23519 0.15884 0.51726 0.0
Li1058 Li 0.26073 0.15524 0.48913 0.0
Li1059 Li 0.24501 0.1769 0.46929 0.0
C1060 C 0.26129 0.14001 0.55691 0.0
N1061 N 0.27577 0.11255 0.57418 0.0
C1062 C 0.25301 0.12626 0.5561 0.0
C1063 C 0.2769 0.13981 0.56669 0.0
C1064 C 0.26054 0.11249 0.56492 0.0
C1065 C 0.28402 0.1258 0.57524 0.0
C1066 C 0.22172 0.18399 0.54119 0.0
C1067 C 0.19404 0.18508 0.5419 0.0
N1068 N 0.19436 0.18758 0.58262 0.0
C1069 C 0.22178 0.18661 0.58304 0.0
C1070 C 0.20775 0.18327 0.5204 0.0
C1071 C 0.20783 0.18839 0.60343 0.0
C1072 C 0.26084 0.20294 0.5768 0.0
N1073 N 0.26357 0.18763 0.5798 0.0
C1074 C 0.2721 0.19045 0.64818 0.0
C1075 C 0.26932 0.18126 0.61423 0.0
C1076 C 0.26884 0.20624 0.64644 0.0
C1077 C 0.26349 0.21252 0.60983 0.0
H1078 H 0.25583 0.20755 0.54937 0.0
H1079 H 0.27106 0.16899 0.61593 0.0
C1080 C 0.2074 0.14135 0.51578 0.0
N1081 N 0.21802 0.14854 0.53924 0.0
C1082 C 0.19571 0.13276 0.5339 0.0
C1083 C 0.20602 0.13947 0.5997 0.0
C1084 C 0.21748 0.14787 0.58038 0.0
C1085 C 0.19511 0.13154 0.57641 0.0
H1086 H 0.20827 0.14191 0.48311 0.0
H1087 H 0.22622 0.15358 0.59813 0.0
C1088 C 0.27779 0.18764 0.49262 0.0
N1089 N 0.29887 0.21004 0.51326 0.0
C1090 C 0.27567 0.20278 0.47967 0.0
C1091 C 0.29066 0.18388 0.51596 0.0
C1092 C 0.28646 0.21393 0.49043 0.0
C1093 C 0.30117 0.19537 0.52613 0.0
C1094 C 0.23622 0.15499 0.42101 0.0
C1095 C 0.24663 0.15103 0.39045 0.0
C1096 C 0.22141 0.15977 0.41063 0.0
C1097 C 0.24205 0.15203 0.34991 0.0
C1098 C 0.21729 0.16064 0.36974 0.0
N1099 N 0.22761 0.15678 0.34048 0.0
C1100 C 0.26915 0.12618 0.46075 0.0
C1101 C 0.28925 0.14454 0.45957 0.0
C1102 C 0.27856 0.11528 0.44224 0.0
N1103 N 0.27461 0.14046 0.46882 0.0
C1104 C 0.29907 0.13402 0.44102 0.0
C1105 C 0.29368 0.11922 0.4317 0.0
H1106 H 0.25735 0.12338 0.46782 0.0
H1107 H 0.29316 0.1561 0.46548 0.0
C1108 C 0.23001 0.20135 0.42786 0.0
N1109 N 0.24121 0.19051 0.42592 0.0
C1110 C 0.22896 0.21258 0.39775 0.0
C1111 C 0.25078 0.20101 0.36408 0.0
C1112 C 0.2514 0.19004 0.39476 0.0
C1113 C 0.23962 0.21264 0.36572 0.0
H1114 H 0.22227 0.20161 0.45346 0.0
H1115 H 0.26043 0.18152 0.39474 0.0
O1116 O 0.2542 0.15357 0.54756 0.0
O1117 O 0.23524 0.1819 0.52078 0.0
O1118 O 0.26723 0.17658 0.48301 0.0
O1119 O 0.24057 0.15437 0.46085 0.0
H1120 H 0.24095 0.12618 0.54827 0.0
H1121 H 0.28348 0.15034 0.56728 0.0
H1122 H 0.2543 0.10176 0.56423 0.0
H1123 H 0.29612 0.12547 0.58264 0.0
H1124 H 0.18314 0.18446 0.52622 0.0
H1125 H 0.23246 0.18707 0.59974 0.0
H1126 H 0.20748 0.18115 0.48808 0.0
H1127 H 0.2077 0.19035 0.63583 0.0
H1128 H 0.27626 0.18519 0.67585 0.0
H1129 H 0.26051 0.22456 0.60741 0.0
H1130 H 0.18763 0.12664 0.51486 0.0
H1131 H 0.20587 0.13896 0.63253 0.0
H1132 H 0.26572 0.20595 0.46194 0.0
H1133 H 0.29242 0.17226 0.52653 0.0
H1134 H 0.28492 0.22571 0.48076 0.0
H1135 H 0.31113 0.19264 0.54436 0.0
H1136 H 0.25817 0.14742 0.39786 0.0
H1137 H 0.21325 0.16294 0.43388 0.0
H1138 H 0.25 0.14908 0.32594 0.0
H1139 H 0.20589 0.16441 0.36127 0.0
H1140 H 0.27401 0.10396 0.43589 0.0
H1141 H 0.31058 0.13758 0.43283 0.0
H1142 H 0.22014 0.2213 0.39996 0.0
H1143 H 0.2594 0.20079 0.34041 0.0
Li1144 Li 0.57096 0.49952 0.27735 0.0
Li1145 Li 0.59038 0.48243 0.25033 0.0
Li1146 Li 0.58894 0.50906 0.2286 0.0
Li1147 Li 0.56974 0.49049 0.20771 0.0
C1148 C 0.59469 0.50448 0.32346 0.0
N1149 N 0.59559 0.51063 0.40565 0.0
C1150 C 0.59846 0.49286 0.35097 0.0
C1151 C 0.59145 0.51924 0.33773 0.0
C1152 C 0.59885 0.4962 0.39242 0.0
C1153 C 0.59194 0.52212 0.3794 0.0
C1154 C 0.55623 0.46902 0.24887 0.0
C1155 C 0.54507 0.44806 0.21117 0.0
N1156 N 0.53112 0.45138 0.22753 0.0
C1157 C 0.54178 0.4722 0.26536 0.0
C1158 C 0.55791 0.45683 0.22164 0.0
C1159 C 0.52923 0.46315 0.25418 0.0
C1160 C 0.54842 0.51527 0.32311 0.0
N1161 N 0.55857 0.50343 0.32322 0.0
C1162 C 0.54817 0.49374 0.38509 0.0
C1163 C 0.55876 0.49285 0.35351 0.0
C1164 C 0.53717 0.50552 0.38511 0.0
C1165 C 0.53757 0.51658 0.35407 0.0
H1166 H 0.5483 0.52329 0.29812 0.0
H1167 H 0.56667 0.48328 0.35201 0.0
C1168 C 0.6189 0.47038 0.27217 0.0
N1169 N 0.60411 0.46645 0.26424 0.0
C1170 C 0.6293 0.45932 0.2855 0.0
C1171 C 0.60909 0.44031 0.2816 0.0
C1172 C 0.59906 0.45178 0.26844 0.0
C1173 C 0.62437 0.4441 0.29086 0.0
H1174 H 0.62251 0.4822 0.26895 0.0
H1175 H 0.58717 0.44905 0.26255 0.0
C1176 C 0.56483 0.52567 0.21186 0.0
N1177 N 0.5633 0.55444 0.17675 0.0
C1178 C 0.56161 0.52717 0.1705 0.0
C1179 C 0.5672 0.53881 0.23539 0.0
C1180 C 0.56089 0.54182 0.15332 0.0
C1181 C 0.5664 0.55325 0.21706 0.0
C1182 C 0.60403 0.48271 0.18034 0.0
C1183 C 0.61857 0.4895 0.18116 0.0
C1184 C 0.60243 0.46758 0.16686 0.0
C1185 C 0.63131 0.48099 0.1686 0.0
C1186 C 0.61546 0.45944 0.15463 0.0
N1187 N 0.62951 0.46625 0.15575 0.0
C1188 C 0.60811 0.5358 0.2328 0.0
C1189 C 0.60021 0.52751 0.16751 0.0
C1190 C 0.61648 0.54787 0.21569 0.0
N1191 N 0.60023 0.52596 0.20851 0.0
C1192 C 0.60832 0.5394 0.14919 0.0
C1193 C 0.61666 0.54973 0.17331 0.0
H1194 H 0.60801 0.5342 0.26531 0.0
H1195 H 0.59396 0.51937 0.14904 0.0
C1196 C 0.54111 0.4901 0.1711 0.0
N1197 N 0.55599 0.486 0.16522 0.0
C1198 C 0.53069 0.48945 0.13913 0.0
C1199 C 0.55106 0.48002 0.09583 0.0
C1200 C 0.5611 0.48082 0.12877 0.0
C1201 C 0.53571 0.48469 0.10066 0.0
H1202 H 0.53753 0.49459 0.2002 0.0
H1203 H 0.57308 0.47795 0.12484 0.0
O1204 O 0.59401 0.50139 0.28282 0.0
O1205 O 0.56863 0.47791 0.25887 0.0
O1206 O 0.56598 0.51141 0.22908 0.0
O1207 O 0.59146 0.49073 0.19339 0.0
H1208 H 0.60088 0.48134 0.34055 0.0
H1209 H 0.58843 0.52835 0.31689 0.0
H1210 H 0.60168 0.48731 0.41407 0.0
H1211 H 0.58938 0.53347 0.39088 0.0
H1212 H 0.54619 0.43866 0.18994 0.0
H1213 H 0.54021 0.48165 0.28621 0.0
H1214 H 0.56896 0.4543 0.20825 0.0
H1215 H 0.51798 0.46552 0.26659 0.0
H1216 H 0.54808 0.48483 0.40803 0.0
H1217 H 0.52931 0.52588 0.35315 0.0
H1218 H 0.64103 0.46266 0.29197 0.0
H1219 H 0.60481 0.42874 0.28584 0.0
H1220 H 0.5599 0.51714 0.15168 0.0
H1221 H 0.56981 0.53786 0.26737 0.0
H1222 H 0.55848 0.54314 0.12131 0.0
H1223 H 0.56831 0.56351 0.23487 0.0
H1224 H 0.62005 0.50115 0.19184 0.0
H1225 H 0.59128 0.46212 0.1663 0.0
H1226 H 0.64265 0.48607 0.16924 0.0
H1227 H 0.6144 0.44769 0.14436 0.0
H1228 H 0.62273 0.55564 0.23531 0.0
H1229 H 0.60839 0.54025 0.11641 0.0
H1230 H 0.51905 0.49342 0.14397 0.0
H1231 H 0.55534 0.47622 0.06666 0.0
Li1232 Li 0.24703 0.82094 0.03899 0.0
Li1233 Li 0.26546 0.83844 0.01428 0.0
Li1234 Li 0.23816 0.8404 0.99357 0.0
Li1235 Li 0.25436 0.81839 0.97008 0.0
C1236 C 0.25199 0.84719 0.08642 0.0
N1237 N 0.26214 0.85508 0.16306 0.0
C1238 C 0.26303 0.8382 0.10602 0.0
C1239 C 0.24612 0.8602 0.1058 0.0
C1240 C 0.26801 0.84238 0.14475 0.0
C1241 C 0.25139 0.864 0.14455 0.0
C1242 C 0.28215 0.81144 0.00649 0.0
C1243 C 0.30338 0.81319 0.95973 0.0
N1244 N 0.31135 0.80291 0.98259 0.0
C1245 C 0.29054 0.80087 0.02948 0.0
C1246 C 0.28861 0.81764 0.97129 0.0
C1247 C 0.30528 0.79672 0.01691 0.0
C1248 C 0.24825 0.79453 0.08498 0.0
N1249 N 0.24191 0.80877 0.08455 0.0
C1250 C 0.23052 0.80464 0.14951 0.0
C1251 C 0.23302 0.81393 0.1156 0.0
C1252 C 0.23716 0.78995 0.15104 0.0
C1253 C 0.24599 0.78487 0.11803 0.0
H1254 H 0.25525 0.79078 0.05975 0.0
H1255 H 0.22807 0.82531 0.11424 0.0
C1256 C 0.28195 0.86593 0.0197 0.0
N1257 N 0.28274 0.85066 0.02791 0.0
C1258 C 0.29331 0.87585 0.03407 0.0
C1259 C 0.30625 0.85407 0.06411 0.0
C1260 C 0.29459 0.84461 0.04951 0.0
C1261 C 0.30554 0.86993 0.057 0.0
H1262 H 0.27222 0.87044 0.00313 0.0
H1263 H 0.29469 0.83256 0.05708 0.0
C1264 C 0.22331 0.80781 0.00691 0.0
N1265 N 0.20385 0.7864 0.04123 0.0
C1266 C 0.22565 0.79216 -5e-05 0.0
C1267 C 0.21103 0.8126 0.0311 0.0
C1268 C 0.21569 0.78151 0.01763 0.0
C1269 C 0.20133 0.80159 0.04823 0.0
C1270 C 0.25855 0.84778 0.92277 0.0
C1271 C 0.24603 0.84876 0.89637 0.0
C1272 C 0.27258 0.85436 0.91173 0.0
C1273 C 0.2478 0.8562 0.85911 0.0
C1274 C 0.2739 0.86169 0.87418 0.0
N1275 N 0.26159 0.86244 0.84887 0.0
C1276 C 0.22585 0.8692 0.97316 0.0
C1277 C 0.20905 0.84808 0.96342 0.0
C1278 C 0.21514 0.87919 0.95588 0.0
N1279 N 0.22265 0.85398 0.97621 0.0
C1280 C 0.198 0.85765 0.94617 0.0
C1281 C 0.20106 0.8734 0.94165 0.0
H1282 H 0.23692 0.87347 0.98295 0.0
H1283 H 0.20696 0.83588 0.96555 0.0
C1284 C 0.26357 0.79034 0.93485 0.0
N1285 N 0.25682 0.80412 0.92707 0.0
C1286 C 0.26321 0.77867 0.90593 0.0
C1287 C 0.24907 0.79558 0.86135 0.0
C1288 C 0.24975 0.80694 0.89111 0.0
C1289 C 0.25559 0.7811 0.86894 0.0
H1290 H 0.26857 0.78811 0.96424 0.0
H1291 H 0.24393 0.81771 0.88629 0.0
O1292 O 0.24699 0.84348 0.0483 0.0
O1293 O 0.26773 0.81561 0.01882 0.0
O1294 O 0.23317 0.81839 0.99075 0.0
O1295 O 0.25702 0.84084 0.9598 0.0
H1296 H 0.26774 0.8281 0.09156 0.0
H1297 H 0.23759 0.8673 0.09097 0.0
H1298 H 0.27656 0.83553 0.16024 0.0
H1299 H 0.24695 0.87404 0.1599 0.0
H1300 H 0.30851 0.8179 0.93255 0.0
H1301 H 0.28571 0.79598 0.05685 0.0
H1302 H 0.28231 0.82573 0.95295 0.0
H1303 H 0.31191 0.78857 0.03446 0.0
H1304 H 0.22355 0.80891 0.17428 0.0
H1305 H 0.25149 0.77371 0.11826 0.0
H1306 H 0.29241 0.88804 0.02792 0.0
H1307 H 0.31535 0.84913 0.08231 0.0
H1308 H 0.23513 0.78826 0.98142 0.0
H1309 H 0.20916 0.82468 0.03708 0.0
H1310 H 0.21741 0.76934 0.01269 0.0
H1311 H 0.19184 0.80511 0.06725 0.0
H1312 H 0.23507 0.84379 0.90445 0.0
H1313 H 0.28236 0.85383 0.93197 0.0
H1314 H 0.23822 0.857 0.83834 0.0
H1315 H 0.2847 0.8668 0.8652 0.0
H1316 H 0.21808 0.89121 0.95247 0.0
H1317 H 0.18723 0.85272 0.93607 0.0
H1318 H 0.26844 0.7677 0.91294 0.0
H1319 H 0.24281 0.79785 0.83359 0.0
Li1320 Li 0.92723 0.49639 0.77084 0.0
Li1321 Li 0.90658 0.5146 0.76002 0.0
Li1322 Li 0.90501 0.4886 0.73332 0.0
Li1323 Li 0.92245 0.50736 0.70419 0.0
C1324 C 0.89524 0.48608 0.80857 0.0
N1325 N 0.87278 0.46747 0.84157 0.0
C1326 C 0.88079 0.49212 0.81782 0.0
C1327 C 0.8983 0.4706 0.81632 0.0
C1328 C 0.86959 0.48252 0.83447 0.0
C1329 C 0.88678 0.46137 0.83292 0.0
C1330 C 0.93058 0.53173 0.77282 0.0
C1331 C 0.92811 0.55932 0.77401 0.0
N1332 N 0.93254 0.55939 0.81357 0.0
C1333 C 0.93515 0.53208 0.81347 0.0
C1334 C 0.92708 0.54545 0.75285 0.0
C1335 C 0.93607 0.54618 0.83354 0.0
C1336 C 0.95734 0.49627 0.79804 0.0
N1337 N 0.94302 0.49118 0.80734 0.0
C1338 C 0.95128 0.48322 0.87302 0.0
C1339 C 0.93982 0.48453 0.84362 0.0
C1340 C 0.96605 0.48897 0.86487 0.0
C1341 C 0.96913 0.49517 0.82642 0.0
H1342 H 0.9594 0.50185 0.76923 0.0
H1343 H 0.92823 0.48095 0.85049 0.0
C1344 C 0.88682 0.54057 0.76511 0.0
N1345 N 0.89558 0.53045 0.78625 0.0
C1346 C 0.87838 0.55177 0.78564 0.0
C1347 C 0.8883 0.54193 0.8491 0.0
C1348 C 0.89657 0.53098 0.82736 0.0
C1349 C 0.87894 0.55241 0.82822 0.0
H1350 H 0.88618 0.53977 0.73244 0.0
H1351 H 0.90363 0.52273 0.84326 0.0
C1352 C 0.93925 0.47658 0.72088 0.0
N1353 N 0.96537 0.45884 0.72916 0.0
C1354 C 0.95298 0.48113 0.70247 0.0
C1355 C 0.93879 0.46297 0.74333 0.0
C1356 C 0.96606 0.47201 0.70704 0.0
C1357 C 0.95213 0.45418 0.74723 0.0
C1358 C 0.8966 0.51214 0.66671 0.0
C1359 C 0.8913 0.50111 0.63926 0.0
C1360 C 0.89928 0.52715 0.65345 0.0
C1361 C 0.88887 0.50528 0.59884 0.0
C1362 C 0.89674 0.53085 0.61277 0.0
N1363 N 0.89163 0.51993 0.58653 0.0
C1364 C 0.87625 0.47429 0.72448 0.0
C1365 C 0.89747 0.45945 0.70224 0.0
C1366 C 0.86604 0.46297 0.71155 0.0
N1367 N 0.89162 0.4723 0.71974 0.0
C1368 C 0.88767 0.44792 0.68836 0.0
C1369 C 0.8717 0.44966 0.6926 0.0
H1370 H 0.87191 0.48483 0.73745 0.0
H1371 H 0.90972 0.45838 0.69784 0.0
C1372 C 0.94286 0.5245 0.655 0.0
N1373 N 0.93265 0.51272 0.65577 0.0
C1374 C 0.95287 0.52613 0.62219 0.0
C1375 C 0.9411 0.50389 0.59106 0.0
C1376 C 0.93137 0.50268 0.62442 0.0
C1377 C 0.95237 0.51543 0.5903 0.0
H1378 H 0.94387 0.53206 0.68086 0.0
H1379 H 0.92348 0.49313 0.62661 0.0
O1380 O 0.90632 0.49524 0.79184 0.0
O1381 O 0.92925 0.51802 0.75289 0.0
O1382 O 0.92636 0.48547 0.71735 0.0
O1383 O 0.89926 0.50824 0.70628 0.0
H1384 H 0.87817 0.50404 0.81176 0.0
H1385 H 0.90941 0.46573 0.80927 0.0
H1386 H 0.85833 0.48703 0.8416 0.0
H1387 H 0.88897 0.44935 0.83887 0.0
H1388 H 0.92534 0.57001 0.759 0.0
H1389 H 0.93776 0.52158 0.82955 0.0
H1390 H 0.92343 0.54538 0.72148 0.0
H1391 H 0.93951 0.54661 0.86504 0.0
H1392 H 0.94839 0.47857 0.90252 0.0
H1393 H 0.98039 0.49961 0.81886 0.0
H1394 H 0.87114 0.55952 0.76849 0.0
H1395 H 0.88913 0.54214 0.88188 0.0
H1396 H 0.95361 0.49168 0.68525 0.0
H1397 H 0.92827 0.45929 0.75781 0.0
H1398 H 0.97678 0.47543 0.69312 0.0
H1399 H 0.95195 0.44366 0.76466 0.0
H1400 H 0.8892 0.48944 0.64893 0.0
H1401 H 0.90347 0.5358 0.67423 0.0
H1402 H 0.88483 0.49685 0.57722 0.0
H1403 H 0.89886 0.5424 0.60204 0.0
H1404 H 0.85384 0.46474 0.71587 0.0
H1405 H 0.89256 0.43803 0.6732 0.0
H1406 H 0.96135 0.53523 0.62262 0.0
H1407 H 0.94051 0.49523 0.56753 0.0
C1408 C 0.26244 0.28 0.21511 0.0
C1409 C 0.25006 0.28549 0.19211 0.0
C1410 C 0.2603 0.26847 0.24429 0.0
C1411 C 0.24543 0.26234 0.25062 0.0
C1412 C 0.23284 0.26804 0.22811 0.0
C1413 C 0.23532 0.2795 0.19902 0.0
C1414 C 0.274 0.26264 0.2678 0.0
C1415 C 0.21682 0.26179 0.23408 0.0
C1416 C 0.24284 0.22223 0.29465 0.0
C1417 C 0.23991 0.22531 0.33567 0.0
C1418 C 0.24451 0.23419 0.26655 0.0
C1419 C 0.24313 0.24958 0.27981 0.0
C1420 C 0.23977 0.25277 0.32094 0.0
C1421 C 0.23823 0.24058 0.34844 0.0
C1422 C 0.24804 0.23036 0.22284 0.0
C1423 C 0.23814 0.26906 0.33607 0.0
H1424 H 0.27382 0.28469 0.21015 0.0
H1425 H 0.22573 0.28346 0.18083 0.0
H1426 H 0.27188 0.26377 0.30086 0.0
H1427 H 0.27577 0.25026 0.26136 0.0
H1428 H 0.28471 0.26893 0.2601 0.0
H1429 H 0.20815 0.26802 0.21561 0.0
H1430 H 0.21652 0.24947 0.2256 0.0
H1431 H 0.21348 0.26258 0.2665 0.0
H1432 H 0.24396 0.21043 0.28457 0.0
H1433 H 0.23619 0.24305 0.38021 0.0
H1434 H 0.25926 0.2354 0.21412 0.0
H1435 H 0.23921 0.23545 0.20265 0.0
H1436 H 0.24846 0.21778 0.21734 0.0
H1437 H 0.24914 0.27529 0.33195 0.0
H1438 H 0.23489 0.26956 0.36863 0.0
H1439 H 0.22931 0.27523 0.31811 0.0
C1440 C 0.9779 0.01821 0.44569 0.0
C1441 C 0.96671 0.00714 0.43693 0.0
C1442 C 0.98914 0.0155 0.47533 0.0
C1443 C 0.98921 0.00134 0.49644 0.0
C1444 C 0.97771 0.99027 0.48845 0.0
C1445 C 0.96659 0.99331 0.45879 0.0
C1446 C 0.00117 0.02762 0.48335 0.0
C1447 C 0.97745 0.97502 0.51025 0.0
C1448 C 0.02727 0.98786 0.53964 0.0
C1449 C 0.02568 0.9917 0.5807 0.0
C1450 C 0.0154 0.9908 0.51195 0.0
C1451 C 0.00169 -0.00217 0.52569 0.0
C1452 C -5e-05 0.00157 0.5672 0.0
C1453 C 0.01198 -0.00156 0.59425 0.0
C1454 C 0.0176 0.98654 0.46792 0.0
C1455 C 0.98552 0.00913 0.58289 0.0
H1456 H 0.97795 0.02895 0.42905 0.0
H1457 H 0.95812 0.9846 0.45167 0.0
H1458 H 0.00147 0.03049 0.51613 0.0
H1459 H 0.01268 0.02314 0.47507 0.0
H1460 H -0.00096 0.03832 0.46586 0.0
H1461 H 0.96727 0.96799 0.50199 0.0
H1462 H 0.98797 0.96842 0.5027 0.0
H1463 H 0.97744 0.97683 0.54356 0.0
H1464 H 0.03782 0.98258 0.52918 0.0
H1465 H 0.01083 0.00168 0.62586 0.0
H1466 H 0.01688 0.99697 0.44872 0.0
H1467 H 0.00831 0.97866 0.45803 0.0
H1468 H 0.02884 0.98088 0.46234 0.0
H1469 H 0.98386 0.02038 0.5677 0.0
H1470 H 0.98587 0.01101 0.61621 0.0
H1471 H 0.97537 0.00195 0.57557 0.0
C1472 C 0.25358 0.711 0.71215 0.0
C1473 C 0.23875 0.70897 0.69641 0.0
C1474 C 0.25661 0.72228 0.74138 0.0
C1475 C 0.24451 0.7318 0.75505 0.0
C1476 C 0.22945 0.72961 0.73998 0.0
C1477 C 0.22674 0.7182 0.71081 0.0
C1478 C 0.27282 0.72428 0.7568 0.0
C1479 C 0.21626 0.73954 0.75403 0.0
C1480 C 0.24949 0.75363 0.85369 0.0
C1481 C 0.25345 0.76833 0.83972 0.0
C1482 C 0.24666 0.74159 0.82648 0.0
C1483 C 0.24773 0.74435 0.7843 0.0
C1484 C 0.25185 0.75911 0.76996 0.0
C1485 C 0.25468 0.77093 0.79787 0.0
C1486 C 0.24233 0.72598 0.84284 0.0
C1487 C 0.25314 0.76245 0.72513 0.0
H1488 H 0.26298 0.70411 0.70061 0.0
H1489 H 0.21524 0.71659 0.69898 0.0
H1490 H 0.27719 0.73579 0.74814 0.0
H1491 H 0.27302 0.72364 0.79041 0.0
H1492 H 0.28077 0.71545 0.74452 0.0
H1493 H 0.20515 0.73602 0.74034 0.0
H1494 H 0.2152 0.739 0.78753 0.0
H1495 H 0.21851 0.7517 0.74587 0.0
H1496 H 0.24825 0.7516 0.88597 0.0
H1497 H 0.25788 0.78222 0.78694 0.0
H1498 H 0.25047 0.71717 0.8315 0.0
H1499 H 0.23073 0.72274 0.83186 0.0
H1500 H 0.24232 0.72565 0.87653 0.0
H1501 H 0.26176 0.75471 0.71109 0.0
H1502 H 0.25653 0.77453 0.71899 0.0
H1503 H 0.24199 0.76019 0.71001 0.0
C1504 C 0.46557 0.99544 0.03969 0.0
C1505 C 0.46824 0.00717 0.06792 0.0
C1506 C 0.47609 0.99247 0.00851 0.0
C1507 C 0.48947 0.0016 0.0053 0.0
C1508 C 0.49205 0.01371 0.03316 0.0
C1509 C 0.48144 0.01626 0.06444 0.0
C1510 C 0.47307 0.97935 0.97965 0.0
C1511 C 0.50609 0.02383 0.0302 0.0
C1512 C 0.52418 0.98547 0.95041 0.0
C1513 C 0.5227 0.99231 0.9122 0.0
C1514 C 0.51332 0.98825 0.98094 0.0
C1515 C 0.50089 -0.00167 0.97309 0.0
C1516 C 0.49939 0.00529 0.93452 0.0
C1517 C 0.51028 0.00211 0.9044 0.0
C1518 C 0.51514 0.98046 0.02158 0.0
C1519 C 0.48643 0.01627 0.92528 0.0
H1520 H 0.45547 0.98824 0.04282 0.0
H1521 H 0.48345 0.02536 0.08628 0.0
H1522 H 0.47289 0.98359 0.94793 0.0
H1523 H 0.48248 0.97079 0.98187 0.0
H1524 H 0.462 0.97348 0.98601 0.0
H1525 H 0.50605 0.03313 0.05325 0.0
H1526 H 0.5166 0.01682 0.03439 0.0
H1527 H 0.50676 0.02909 -0.0004 0.0
H1528 H 0.53381 0.97789 0.95629 0.0
H1529 H 0.50931 0.00761 0.87499 0.0
H1530 H 0.50468 0.97372 0.02879 0.0
H1531 H 0.5165 0.98921 0.04578 0.0
H1532 H 0.52523 0.97265 0.0224 0.0
H1533 H 0.47521 0.01045 0.92966 0.0
H1534 H 0.48696 0.02076 0.89376 0.0
H1535 H 0.4868 0.02612 0.94661 0.0
C1536 C 0.23794 0.78634 0.22629 0.0
C1537 C 0.23565 0.78013 0.18751 0.0
C1538 C 0.23837 0.77683 0.26064 0.0
C1539 C 0.23648 0.76079 0.25591 0.0
C1540 C 0.2335 0.75456 0.21705 0.0
C1541 C 0.2331 0.76432 0.18331 0.0
C1542 C 0.2415 0.78387 0.30167 0.0
C1543 C 0.23132 0.73751 0.21087 0.0
C1544 C 0.25498 0.73334 0.33042 0.0
C1545 C 0.2423 0.72848 0.35322 0.0
C1546 C 0.2533 0.74421 0.29938 0.0
C1547 C 0.23858 0.75035 0.29102 0.0
C1548 C 0.22581 0.74586 0.31474 0.0
C1549 C 0.22782 0.73494 0.34556 0.0
C1550 C 0.2672 0.74878 0.27477 0.0
C1551 C 0.20996 0.75218 0.30668 0.0
H1552 H 0.24005 0.79854 0.22961 0.0
H1553 H 0.23108 0.75954 0.15342 0.0
H1554 H 0.23287 0.7799 0.3241 0.0
H1555 H 0.25293 0.78009 0.31269 0.0
H1556 H 0.24132 0.79662 0.30072 0.0
H1557 H 0.22817 0.73464 0.1791 0.0
H1558 H 0.2421 0.73138 0.21862 0.0
H1559 H 0.22223 0.73311 0.23136 0.0
H1560 H 0.26622 0.72854 0.33665 0.0
H1561 H 0.21794 0.73109 0.36279 0.0
H1562 H 0.26856 0.76145 0.27497 0.0
H1563 H 0.26561 0.74521 0.24273 0.0
H1564 H 0.27794 0.74349 0.28641 0.0
H1565 H 0.21024 0.76492 0.30615 0.0
H1566 H 0.20148 0.74841 0.32983 0.0
H1567 H 0.20593 0.74831 0.27643 0.0
C1568 C 0.47451 0.01922 0.43112 0.0
C1569 C 0.46829 0.00447 0.42632 0.0
C1570 C 0.4863 0.02201 0.45911 0.0
C1571 C 0.49202 0.00973 0.48278 0.0
C1572 C 0.48569 0.99484 0.4784 0.0
C1573 C 0.4739 0.99238 0.45016 0.0
C1574 C 0.4928 0.03802 0.46292 0.0
C1575 C 0.49147 0.98148 0.50333 0.0
C1576 C 0.53203 0.01176 0.52784 0.0
C1577 C 0.52882 0.01516 0.56853 0.0
C1578 C 0.52017 0.01035 0.49931 0.0
C1579 C 0.50475 0.01237 0.51187 0.0
C1580 C 0.50148 0.01632 0.5526 0.0
C1581 C 0.51356 0.01766 0.58046 0.0
C1582 C 0.52409 0.00624 0.45603 0.0
C1583 C 0.48518 0.01858 0.56707 0.0
H1584 H 0.47039 0.02856 0.41227 0.0
H1585 H 0.46903 0.981 0.44678 0.0
H1586 H 0.49189 0.04204 0.49477 0.0
H1587 H 0.50517 0.03795 0.45492 0.0
H1588 H 0.48681 0.04638 0.44298 0.0
H1589 H 0.48517 0.97068 0.49666 0.0
H1590 H 0.50386 0.97959 0.49725 0.0
H1591 H 0.49028 0.98408 0.53613 0.0
H1592 H 0.54383 0.00996 0.51845 0.0
H1593 H 0.51099 0.02006 0.61201 0.0
H1594 H 0.51894 0.0147 0.43487 0.0
H1595 H 0.51917 0.99484 0.44847 0.0
H1596 H 0.53669 0.00585 0.45072 0.0
H1597 H 0.4792 0.02711 0.5477 0.0
H1598 H 0.48465 0.02253 0.59909 0.0
H1599 H 0.47877 0.00761 0.5645 0.0
C1600 C 0.26297 0.21052 0.71976 0.0
C1601 C 0.26934 0.21592 0.68338 0.0
C1602 C 0.26114 0.22029 0.75321 0.0
C1603 C 0.26575 0.23583 0.75004 0.0
C1604 C 0.27292 0.24114 0.71415 0.0
C1605 C 0.27466 0.2311 0.68125 0.0
C1606 C 0.25354 0.21421 0.79111 0.0
C1607 C 0.27806 0.25762 0.70976 0.0
C1608 C 0.24459 0.26561 0.81247 0.0
C1609 C 0.25519 0.26865 0.84344 0.0
C1610 C 0.24784 0.2548 0.78216 0.0
C1611 C 0.262 0.24682 0.78294 0.0
C1612 C 0.27264 0.24962 0.8145 0.0
C1613 C 0.26912 0.26054 0.84434 0.0
C1614 C 0.23619 0.25208 0.74897 0.0
C1615 C 0.28784 0.24129 0.8163 0.0
H1616 H 0.25867 0.19885 0.72146 0.0
H1617 H 0.27977 0.23525 0.65334 0.0
H1618 H 0.26037 0.21728 0.81833 0.0
H1619 H 0.24205 0.21956 0.79462 0.0
H1620 H 0.25209 0.20154 0.79026 0.0
H1621 H 0.28453 0.25959 0.68118 0.0
H1622 H 0.26788 0.26529 0.70998 0.0
H1623 H 0.28542 0.26098 0.73574 0.0
H1624 H 0.23374 0.2717 0.81194 0.0
H1625 H 0.27747 0.263 0.86786 0.0
H1626 H 0.23293 0.23977 0.74808 0.0
H1627 H 0.24129 0.25497 0.71907 0.0
H1628 H 0.22562 0.25905 0.75316 0.0
H1629 H 0.28595 0.22869 0.81587 0.0
H1630 H 0.29454 0.24429 0.84387 0.0
H1631 H 0.2948 0.24419 0.78918 0.0
C1632 C 0.03077 0.00729 0.96072 0.0
C1633 C 0.02853 -0.00028 0.92363 0.0
C1634 C 0.02029 0.00553 0.9927 0.0
C1635 C 0.00725 0.99603 0.98735 0.0
C1636 C 0.00497 0.9883 0.9501 0.0
C1637 C 0.01566 0.9902 0.91875 0.0
C1638 C 0.02308 0.01395 0.03207 0.0
C1639 C 0.99118 0.97809 0.94329 0.0
C1640 C 0.98599 0.98128 0.08003 0.0
C1641 C 0.97357 0.9915 0.0821 0.0
C1642 C 0.99711 0.98265 0.04943 0.0
C1643 C 0.99574 0.99451 0.02028 0.0
C1644 C 0.98323 0.00485 0.0222 0.0
C1645 C 0.97233 0.00325 0.05315 0.0
C1646 C 0.01032 0.97142 0.04825 0.0
C1647 C 0.98138 0.01764 0.99161 0.0
H1648 H 0.04062 0.01475 0.96455 0.0
H1649 H 0.01402 0.98406 0.89047 0.0
H1650 H 0.0135 0.02205 0.03801 0.0
H1651 H 0.02338 0.00568 0.05767 0.0
H1652 H 0.03402 0.02051 0.03177 0.0
H1653 H 0.9912 0.97274 0.91269 0.0
H1654 H 0.99091 0.96884 0.96642 0.0
H1655 H 0.98047 0.98487 0.94678 0.0
H1656 H 0.98694 0.97212 0.10214 0.0
H1657 H 0.96294 0.01138 0.05506 0.0
H1658 H 0.02139 0.9777 0.05001 0.0
H1659 H 0.01024 0.96507 0.01907 0.0
H1660 H 0.00983 0.96298 0.07349 0.0
H1661 H 0.99158 0.02527 0.99237 0.0
H1662 H 0.97097 0.02469 0.99733 0.0
H1663 H 0.98062 0.01278 0.96056 0.0
C1664 C 0.74004 0.73505 0.82906 0.0
C1665 C 0.74441 0.71969 0.82362 0.0
C1666 C 0.74201 0.74587 0.79799 0.0
C1667 C 0.7485 0.74118 0.76062 0.0
C1668 C 0.75291 0.72569 0.7549 0.0
C1669 C 0.75081 0.71512 0.7865 0.0
C1670 C 0.7371 0.76228 0.80507 0.0
C1671 C 0.75986 0.72029 0.71541 0.0
C1672 C 0.74 0.76509 0.66737 0.0
C1673 C 0.75356 0.77364 0.66321 0.0
C1674 C 0.73823 0.75447 0.69892 0.0
C1675 C 0.75029 0.7524 0.7271 0.0
C1676 C 0.764 0.76103 0.72326 0.0
C1677 C 0.76547 0.77159 0.69131 0.0
C1678 C 0.72342 0.74552 0.70215 0.0
C1679 C 0.7771 0.75908 0.75282 0.0
H1680 H 0.73495 0.7386 0.85757 0.0
H1681 H 0.75444 0.70332 0.78239 0.0
H1682 H 0.74698 0.77013 0.80038 0.0
H1683 H 0.72812 0.76555 0.78281 0.0
H1684 H 0.73251 0.76411 0.83613 0.0
H1685 H 0.76281 0.70788 0.71601 0.0
H1686 H 0.7517 0.72235 0.69013 0.0
H1687 H 0.77042 0.72694 0.70871 0.0
H1688 H 0.73064 0.76686 0.6462 0.0
H1689 H 0.776 0.77811 0.68803 0.0
H1690 H 0.71786 0.74783 0.7318 0.0
H1691 H 0.72584 0.73302 0.70079 0.0
H1692 H 0.71519 0.74845 0.67759 0.0
H1693 H 0.77312 0.76162 0.78408 0.0
H1694 H 0.78696 0.76671 0.74566 0.0
H1695 H 0.78114 0.747 0.75252 0.0
C1696 C 0.76572 0.25346 0.35561 0.0
C1697 C 0.76285 0.26881 0.34525 0.0
C1698 C 0.76469 0.24177 0.32644 0.0
C1699 C 0.76062 0.24557 0.28611 0.0
C1700 C 0.75803 0.26108 0.2753 0.0
C1701 C 0.75919 0.27252 0.30501 0.0
C1702 C 0.76767 0.22536 0.33891 0.0
C1703 C 0.75362 0.26556 0.23258 0.0
C1704 C 0.76889 0.21827 0.19933 0.0
C1705 C 0.7544 0.21168 0.19267 0.0
C1706 C 0.77119 0.229 0.23042 0.0
C1707 C 0.75868 0.23332 0.25524 0.0
C1708 C 0.7441 0.22649 0.24929 0.0
C1709 C 0.74214 0.21572 0.21808 0.0
C1710 C 0.78691 0.23604 0.23592 0.0
C1711 C 0.73048 0.23082 0.27526 0.0
H1712 H 0.76867 0.25058 0.38664 0.0
H1713 H 0.75673 0.28434 0.29701 0.0
H1714 H 0.75712 0.21841 0.33456 0.0
H1715 H 0.77673 0.22026 0.31944 0.0
H1716 H 0.77131 0.22441 0.37112 0.0
H1717 H 0.75248 0.27819 0.22888 0.0
H1718 H 0.76234 0.26132 0.21076 0.0
H1719 H 0.74252 0.26012 0.22441 0.0
H1720 H 0.77837 0.21539 0.17942 0.0
H1721 H 0.73097 0.21051 0.21341 0.0
H1722 H 0.79071 0.23484 0.26789 0.0
H1723 H 0.7864 0.2485 0.22908 0.0
H1724 H 0.79566 0.23067 0.2159 0.0
H1725 H 0.73324 0.2291 0.30779 0.0
H1726 H 0.72008 0.22401 0.26773 0.0
H1727 H 0.72779 0.24318 0.27107 0.0
C1728 C 0.73479 0.22213 0.80921 0.0
C1729 C 0.74896 0.22237 0.82926 0.0
C1730 C 0.73122 0.2332 0.77983 0.0
C1731 C 0.74225 0.2445 0.76974 0.0
C1732 C 0.75669 0.24463 0.7896 0.0
C1733 C 0.75979 0.23365 0.81964 0.0
C1734 C 0.71559 0.23293 0.75997 0.0
C1735 C 0.76886 0.2563 0.77897 0.0
C1736 C 0.73936 0.2642 0.66755 0.0
C1737 C 0.73393 0.27874 0.67863 0.0
C1738 C 0.742 0.25288 0.69692 0.0
C1739 C 0.73879 0.25612 0.73813 0.0
C1740 C 0.73275 0.27064 0.74923 0.0
C1741 C 0.7306 0.28189 0.7193 0.0
C1742 C 0.74877 0.23767 0.68404 0.0
C1743 C 0.72884 0.27436 0.79275 0.0
H1744 H 0.72638 0.21346 0.81724 0.0
H1745 H 0.77073 0.23376 0.83534 0.0
H1746 H 0.70969 0.24407 0.76489 0.0
H1747 H 0.71682 0.23137 0.72674 0.0
H1748 H 0.70819 0.22358 0.77199 0.0
H1749 H 0.77963 0.25454 0.79644 0.0
H1750 H 0.77156 0.25565 0.74611 0.0
H1751 H 0.76455 0.26806 0.7851 0.0
H1752 H 0.74215 0.26193 0.63605 0.0
H1753 H 0.72644 0.29319 0.72764 0.0
H1754 H 0.74125 0.2281 0.69398 0.0
H1755 H 0.76009 0.23602 0.69887 0.0
H1756 H 0.75034 0.23689 0.65066 0.0
H1757 H 0.72111 0.26544 0.80542 0.0
H1758 H 0.72319 0.28574 0.79583 0.0
H1759 H 0.73945 0.27436 0.81138 0.0
C1760 C 0.72964 0.72332 0.18043 0.0
C1761 C 0.74388 0.71589 0.17667 0.0
C1762 C 0.72754 0.73528 0.20829 0.0
C1763 C 0.74001 0.73998 0.2328 0.0
C1764 C 0.75439 0.7325 0.22936 0.0
C1765 C 0.75616 0.72053 0.20129 0.0
C1766 C 0.71205 0.743 0.21115 0.0
C1767 C 0.76793 0.73723 0.25511 0.0
C1768 C 0.73994 0.78006 0.27762 0.0
C1769 C 0.73573 0.77713 0.31793 0.0
C1770 C 0.74117 0.76809 0.24939 0.0
C1771 C 0.73806 0.75284 0.26182 0.0
C1772 C 0.7334 0.74985 0.30216 0.0
C1773 C 0.73231 0.76204 0.32978 0.0
C1774 C 0.7461 0.7717 0.20651 0.0
C1775 C 0.72994 0.73373 0.31641 0.0
H1776 H 0.72019 0.71999 0.16093 0.0
H1777 H 0.76713 0.71474 0.19871 0.0
H1778 H 0.70767 0.74234 0.24271 0.0
H1779 H 0.71315 0.75534 0.20337 0.0
H1780 H 0.70344 0.73771 0.19057 0.0
H1781 H 0.77829 0.73016 0.24894 0.0
H1782 H 0.77078 0.74945 0.24936 0.0
H1783 H 0.76498 0.73617 0.28773 0.0
H1784 H 0.74243 0.79173 0.26825 0.0
H1785 H 0.72929 0.75966 0.36105 0.0
H1786 H 0.73745 0.76734 0.18464 0.0
H1787 H 0.7571 0.76581 0.19972 0.0
H1788 H 0.74765 0.78422 0.20143 0.0
H1789 H 0.7211 0.72841 0.29669 0.0
H1790 H 0.72581 0.73345 0.34829 0.0
H1791 H 0.74044 0.72656 0.31413 0.0
C1792 C 0.50986 0.48156 0.06854 0.0
C1793 C 0.5253 0.48594 0.06528 0.0
C1794 C 0.49955 0.48413 0.0366 0.0
C1795 C 0.50484 0.49125 0.00062 0.0
C1796 C 0.5205 0.49531 0.9967 0.0
C1797 C 0.53055 0.49262 0.02913 0.0
C1798 C 0.48293 0.47955 0.04171 0.0
C1799 C 0.52654 0.50291 0.95872 0.0
C1800 C 0.48072 0.48733 0.90554 0.0
C1801 C 0.47285 0.50139 0.90493 0.0
C1802 C 0.49124 0.4839 0.9364 0.0
C1803 C 0.4939 0.49479 0.96743 0.0
C1804 C 0.48605 0.50903 0.96695 0.0
C1805 C 0.4756 0.51216 0.93567 0.0
C1806 C 0.49937 0.46858 0.93602 0.0
C1807 C 0.48866 0.52093 -0.00044 0.0
H1808 H 0.50581 0.47626 0.09632 0.0
H1809 H 0.54242 0.49625 0.02669 0.0
H1810 H 0.47552 0.48991 0.04019 0.0
H1811 H 0.47938 0.47183 0.01664 0.0
H1812 H 0.48079 0.47364 0.07103 0.0
H1813 H 0.53916 0.50473 0.95984 0.0
H1814 H 0.52379 0.4958 0.93176 0.0
H1815 H 0.52085 0.5142 0.95446 0.0
H1816 H 0.47843 0.47884 0.88226 0.0
H1817 H 0.46962 0.52308 0.93511 0.0
H1818 H 0.49654 0.46208 0.96397 0.0
H1819 H 0.51199 0.47034 0.93582 0.0
H1820 H 0.49619 0.46149 0.9093 0.0
H1821 H 0.48568 0.51607 0.02967 0.0
H1822 H 0.48172 0.53147 0.99461 0.0
H1823 H 0.50098 0.52417 0.00056 0.0
C1824 C 0.01925 0.51395 0.42199 0.0
C1825 C 0.02457 0.49878 0.41893 0.0
C1826 C 0.00741 0.51783 0.44889 0.0
C1827 C 0.00071 0.50626 0.4732 0.0
C1828 C 0.00599 0.49092 0.47023 0.0
C1829 C 0.01787 0.48736 0.44309 0.0
C1830 C 0.00203 0.5343 0.45121 0.0
C1831 C -0.00087 0.47827 0.49582 0.0
C1832 C 0.98002 0.51658 0.57053 0.0
C1833 C 0.96459 0.51503 0.55901 0.0
C1834 C 0.9919 0.51421 0.54255 0.0
C1835 C 0.98825 0.51017 0.50212 0.0
C1836 C 0.9727 0.50917 0.48988 0.0
C1837 C 0.96104 0.51162 0.51852 0.0
C1838 C 0.00836 0.51542 0.55668 0.0
C1839 C 0.96838 0.50498 0.44691 0.0
H1840 H 0.02418 0.52278 0.40282 0.0
H1841 H 0.02203 0.47565 0.44102 0.0
H1842 H 0.98964 0.53499 0.44364 0.0
H1843 H 0.0034 0.53869 0.48259 0.0
H1844 H 0.00848 0.54194 0.43025 0.0
H1845 H 0.00447 0.46692 0.48964 0.0
H1846 H 0.00061 0.48099 0.52847 0.0
H1847 H 0.98661 0.47741 0.48997 0.0
H1848 H 0.98286 0.51897 0.60192 0.0
H1849 H 0.94912 0.51055 0.50943 0.0
H1850 H 0.01491 0.52326 0.53658 0.0
H1851 H 0.01392 0.50397 0.55494 0.0
H1852 H 0.00925 0.51968 0.58836 0.0
H1853 H 0.97422 0.51273 0.42512 0.0
H1854 H 0.9558 0.50562 0.44168 0.0
H1855 H 0.97228 0.49312 0.4402 0.0
C1856 C 0.03409 0.49188 0.02869 0.0
C1857 C 0.02832 0.49745 0.06558 0.0
C1858 C 0.02451 0.49016 0.99484 0.0
C1859 C 0.0088 0.49413 -0.00194 0.0
C1860 C 0.00293 0.49988 0.03511 0.0
C1861 C 0.01278 0.50147 0.06847 0.0
C1862 C 0.03114 0.48398 0.95579 0.0
C1863 C 0.98624 0.50432 0.03953 0.0
C1864 C 0.98617 0.50334 0.90309 0.0
C1865 C 0.97773 0.48978 0.89744 0.0
C1866 C 0.99655 0.50479 0.93531 0.0
C1867 C -0.00151 0.49241 0.96258 0.0
C1868 C 0.99023 0.47858 0.95665 0.0
C1869 C 0.97991 0.47744 0.92412 0.0
C1870 C 0.00513 0.51973 0.94077 0.0
C1871 C 0.99209 0.46512 0.98509 0.0
H1872 H 0.04606 0.48854 0.02653 0.0
H1873 H 0.00832 0.50591 0.09685 0.0
H1874 H 0.02512 0.47324 0.9471 0.0
H1875 H 0.02933 0.49235 0.93088 0.0
H1876 H 0.04362 0.48153 0.95826 0.0
H1877 H 0.98352 0.50862 0.07043 0.0
H1878 H 0.98329 0.51338 0.01719 0.0
H1879 H 0.97881 0.49427 0.03299 0.0
H1880 H 0.98433 0.51301 0.88299 0.0
H1881 H 0.97348 0.46692 0.91962 0.0
H1882 H 0.01768 0.51755 0.94201 0.0
H1883 H 0.00181 0.52511 0.97 0.0
H1884 H 0.00278 0.52801 0.91591 0.0
H1885 H 0.00436 0.46173 0.98691 0.0
H1886 H 0.98526 0.45499 0.97537 0.0
H1887 H 0.98842 0.46845 0.0161 0.0
C1888 C 0.46879 0.48561 0.53607 0.0
C1889 C 0.46357 0.49841 0.55786 0.0
C1890 C 0.48073 0.48702 0.50775 0.0
C1891 C 0.48762 0.50154 0.50129 0.0
C1892 C 0.48236 0.51451 0.52306 0.0
C1893 C 0.4704 0.51278 0.55111 0.0
C1894 C 0.48603 0.47296 0.48488 0.0
C1895 C 0.48948 0.53016 0.51709 0.0
C1896 C 0.52772 0.50226 0.45633 0.0
C1897 C 0.52462 0.50549 0.41548 0.0
C1898 C 0.51578 0.50109 0.48473 0.0
C1899 C 0.50041 0.50318 0.47185 0.0
C1900 C 0.49723 0.50669 0.4308 0.0
C1901 C 0.50939 0.50781 0.40309 0.0
C1902 C 0.51959 0.49744 0.52837 0.0
C1903 C 0.48098 0.50897 0.41599 0.0
H1904 H 0.46347 0.47452 0.54105 0.0
H1905 H 0.4666 0.52265 0.56846 0.0
H1906 H 0.48491 0.47489 0.45175 0.0
H1907 H 0.49835 0.47078 0.49123 0.0
H1908 H 0.47937 0.46254 0.49316 0.0
H1909 H 0.48389 0.53911 0.53604 0.0
H1910 H 0.50187 0.52975 0.52483 0.0
H1911 H 0.4886 0.53362 0.48478 0.0
H1912 H 0.53949 0.50059 0.46605 0.0
H1913 H 0.50692 0.51006 0.37141 0.0
H1914 H 0.5141 0.48646 0.53729 0.0
H1915 H 0.51494 0.5065 0.54859 0.0
H1916 H 0.53216 0.49649 0.53359 0.0
H1917 H 0.47425 0.49831 0.42085 0.0
H1918 H 0.4805 0.512 0.38328 0.0
H1919 H 0.4753 0.51822 0.43364 0.0
C1920 C 0.13072 0.42803 0.11964 0.0
C1921 C 0.12729 0.42515 0.16057 0.0
C1922 C 0.14067 0.41846 0.09788 0.0
C1923 C 0.14758 0.40582 0.11765 0.0
C1924 C 0.14404 0.40268 0.15876 0.0
C1925 C 0.13388 0.41237 0.17972 0.0
C1926 C 0.14413 0.42214 0.05403 0.0
C1927 C 0.15128 0.38933 0.18084 0.0
C1928 C 0.16577 0.37471 0.05275 0.0
C1929 C 0.18122 0.37919 0.05307 0.0
C1930 C 0.15464 0.38325 0.07371 0.0
C1931 C 0.15917 0.39644 0.09583 0.0
C1932 C 0.17478 0.40095 0.09638 0.0
C1933 C 0.18561 0.3923 0.07485 0.0
C1934 C 0.13805 0.37824 0.07206 0.0
C1935 C 0.18007 0.41486 0.11993 0.0
H1936 H 0.12596 0.43805 0.10475 0.0
H1937 H 0.13117 0.40997 0.21118 0.0
H1938 H 0.15639 0.42536 0.05081 0.0
H1939 H 0.14215 0.41189 0.03476 0.0
H1940 H 0.13697 0.43173 0.04234 0.0
H1941 H 0.14686 0.38809 0.21228 0.0
H1942 H 0.14909 0.37849 0.16414 0.0
H1943 H 0.16392 0.39092 0.18217 0.0
H1944 H 0.16239 0.36457 0.03587 0.0
H1945 H 0.19762 0.39559 0.07579 0.0
H1946 H 0.13091 0.38753 0.05883 0.0
H1947 H 0.13371 0.37608 0.10317 0.0
H1948 H 0.13645 0.36766 0.05369 0.0
H1949 H 0.17424 0.4253 0.10833 0.0
H1950 H 0.19268 0.41662 0.11786 0.0
H1951 H 0.17689 0.41362 0.15236 0.0
C1952 C 0.82783 0.88241 0.43586 0.0
C1953 C 0.81262 0.8828 0.42192 0.0
C1954 C 0.83908 0.89195 0.41868 0.0
C1955 C 0.83498 0.90205 0.38681 0.0
C1956 C 0.81971 0.90229 0.37217 0.0
C1957 C 0.80872 0.89266 0.3899 0.0
C1958 C 0.85525 0.89143 0.4351 0.0
C1959 C 0.81493 0.91287 0.33811 0.0
C1960 C 0.85819 0.93819 0.3689 0.0
C1961 C 0.86693 0.93417 0.33478 0.0
C1962 C 0.848 0.92772 0.38665 0.0
C1963 C 0.84646 0.91286 0.36976 0.0
C1964 C 0.85538 0.90863 0.33563 0.0
C1965 C 0.86552 0.91936 0.3185 0.0
C1966 C 0.83863 0.93267 0.42294 0.0
C1967 C 0.85404 0.89287 0.31688 0.0
H1968 H 0.83086 0.87486 0.46076 0.0
H1969 H 0.79704 0.89277 0.37849 0.0
H1970 H 0.86351 0.88919 0.41016 0.0
H1971 H 0.85828 0.90273 0.44845 0.0
H1972 H 0.85672 0.88245 0.45872 0.0
H1973 H 0.80269 0.91132 0.32948 0.0
H1974 H 0.81668 0.925 0.34732 0.0
H1975 H 0.82217 0.9108 0.31098 0.0
H1976 H 0.85904 0.9497 0.38123 0.0
H1977 H 0.87238 0.91614 0.29242 0.0
H1978 H 0.84032 0.92451 0.44839 0.0
H1979 H 0.82624 0.93252 0.41512 0.0
H1980 H 0.84171 0.94439 0.4335 0.0
H1981 H 0.85623 0.88391 0.3401 0.0
H1982 H 0.86219 0.8912 0.29135 0.0
H1983 H 0.84219 0.89109 0.30544 0.0
C1984 C 0.32626 0.62237 0.57268 0.0
C1985 C 0.31205 0.61621 0.56099 0.0
C1986 C 0.33703 0.61344 0.59381 0.0
C1987 C 0.33353 0.59798 0.60318 0.0
C1988 C 0.31935 0.5916 0.59073 0.0
C1989 C 0.30875 0.60081 0.56998 0.0
C1990 C 0.35205 0.62062 0.60667 0.0
C1991 C 0.31523 0.57511 0.60001 0.0
C1992 C 0.3654 0.56988 0.62802 0.0
C1993 C 0.36414 0.56876 0.67033 0.0
C1994 C 0.35571 0.5796 0.60582 0.0
C1995 C 0.34457 0.58845 0.6265 0.0
C1996 C 0.34349 0.58765 0.66932 0.0
C1997 C 0.35325 0.57773 0.69074 0.0
C1998 C 0.35708 0.58002 0.56015 0.0
C1999 C 0.33182 0.59704 0.6924 0.0
H2000 H 0.32893 0.63422 0.56549 0.0
H2001 H 0.29767 0.59604 0.56181 0.0
H2002 H 0.35308 0.62027 0.64021 0.0
H2003 H 0.36182 0.61397 0.59409 0.0
H2004 H 0.3531 0.63274 0.59651 0.0
H2005 H 0.30398 0.57175 0.58684 0.0
H2006 H 0.3242 0.5673 0.58796 0.0
H2007 H 0.31476 0.57337 0.63333 0.0
H2008 H 0.37364 0.56275 0.6121 0.0
H2009 H 0.35234 0.57692 0.72348 0.0
H2010 H 0.35861 0.59201 0.54955 0.0
H2011 H 0.34634 0.57561 0.54627 0.0
H2012 H 0.36685 0.57301 0.54891 0.0
H2013 H 0.33303 0.60938 0.68462 0.0
H2014 H 0.33301 0.59571 0.72577 0.0
H2015 H 0.32005 0.59349 0.68354 0.0
C2016 C 0.66746 0.11463 0.95497 0.0
C2017 C 0.68113 0.11754 0.93389 0.0
C2018 C 0.65651 0.10434 0.93949 0.0
C2019 C 0.65942 0.09674 0.90229 0.0
C2020 C 0.67319 0.09967 0.8809 0.0
C2021 C 0.68387 0.11004 0.89696 0.0
C2022 C 0.64189 0.10153 0.96295 0.0
C2023 C 0.67677 0.0917 0.8413 0.0
C2024 C 0.64008 0.05891 0.87748 0.0
C2025 C 0.62905 0.06347 0.84893 0.0
C2026 C 0.64974 0.0697 0.89606 0.0
C2027 C 0.64828 0.08542 0.88588 0.0
C2028 C 0.63689 0.09016 0.85793 0.0
C2029 C 0.62743 0.0791 0.83967 0.0
C2030 C 0.66183 0.06421 0.92552 0.0
C2031 C 0.63496 0.10684 0.84655 0.0
H2032 H 0.66528 0.1205 0.98341 0.0
H2033 H 0.69455 0.11205 0.88092 0.0
H2034 H 0.63178 0.10411 0.94362 0.0
H2035 H 0.64112 0.08925 0.97165 0.0
H2036 H 0.64121 0.10864 0.99088 0.0
H2037 H 0.68791 0.09545 0.82819 0.0
H2038 H 0.67717 0.07909 0.84605 0.0
H2039 H 0.66756 0.09403 0.81888 0.0
H2040 H 0.64148 0.04682 0.88442 0.0
H2041 H 0.61876 0.08268 0.81803 0.0
H2042 H 0.66095 0.07062 0.95452 0.0
H2043 H 0.67342 0.06648 0.91288 0.0
H2044 H 0.66084 0.05173 0.93203 0.0
H2045 H 0.63358 0.11396 0.87422 0.0
H2046 H 0.62488 0.10874 0.82648 0.0
H2047 H 0.6454 0.11096 0.83063 0.0
C2048 C 0.14541 0.55275 0.33513 0.0
C2049 C 0.13247 0.55712 0.31263 0.0
C2050 C 0.15446 0.56374 0.35491 0.0
C2051 C 0.15053 0.57947 0.35179 0.0
C2052 C 0.13751 0.58396 0.32899 0.0
C2053 C 0.12857 0.57269 0.30981 0.0
C2054 C 0.16819 0.5585 0.37928 0.0
C2055 C 0.1331 0.60065 0.32465 0.0
C2056 C 0.16703 0.60624 0.43149 0.0
C2057 C 0.17999 0.61207 0.41145 0.0
C2058 C 0.15717 0.5958 0.4122 0.0
C2059 C 0.16028 0.5912 0.37185 0.0
C2060 C 0.17313 0.5973 0.35114 0.0
C2061 C 0.18288 0.60758 0.37127 0.0
C2062 C 0.14359 0.58945 0.43525 0.0
C2063 C 0.17678 0.5927 0.30802 0.0
H2064 H 0.14828 0.54068 0.33788 0.0
H2065 H 0.11859 0.57606 0.29225 0.0
H2066 H 0.17882 0.5637 0.36684 0.0
H2067 H 0.16707 0.56245 0.41116 0.0
H2068 H 0.16951 0.54581 0.37919 0.0
H2069 H 0.12257 0.6022 0.30606 0.0
H2070 H 0.13113 0.60578 0.35499 0.0
H2071 H 0.14263 0.60712 0.31027 0.0
H2072 H 0.16461 0.60981 0.46233 0.0
H2073 H 0.19301 0.61179 0.35576 0.0
H2074 H 0.14475 0.57682 0.43836 0.0
H2075 H 0.13282 0.59167 0.41825 0.0
H2076 H 0.1425 0.59454 0.46602 0.0
H2077 H 0.17953 0.58027 0.30681 0.0
H2078 H 0.18666 0.59921 0.29541 0.0
H2079 H 0.16665 0.59462 0.28826 0.0
C2080 C 0.6478 0.9359 0.67285 0.0
C2081 C 0.63178 0.93494 0.66905 0.0
C2082 C 0.65742 0.92489 0.6551 0.0
C2083 C 0.65089 0.91275 0.63235 0.0
C2084 C 0.63475 0.91161 0.62857 0.0
C2085 C 0.62538 0.92264 0.64728 0.0
C2086 C 0.6746 0.92637 0.66019 0.0
C2087 C 0.6274 0.8989 0.60421 0.0
C2088 C 0.67744 0.89462 0.55485 0.0
C2089 C 0.68231 0.88134 0.57523 0.0
C2090 C 0.66678 0.90467 0.57252 0.0
C2091 C 0.66104 0.90149 0.6118 0.0
C2092 C 0.6656 0.88794 0.63218 0.0
C2093 C 0.67607 0.87796 0.61349 0.0
C2094 C 0.66201 0.91892 0.54963 0.0
C2095 C 0.65981 0.88424 0.67424 0.0
H2096 H 0.6529 0.94548 0.68896 0.0
H2097 H 0.61302 0.92163 0.64474 0.0
H2098 H 0.67942 0.91559 0.67285 0.0
H2099 H 0.68007 0.92825 0.6302 0.0
H2100 H 0.6778 0.93604 0.68051 0.0
H2101 H 0.61466 0.89954 0.60459 0.0
H2102 H 0.63137 0.8995 0.57225 0.0
H2103 H 0.63096 0.88755 0.61627 0.0
H2104 H 0.68231 0.89746 0.52554 0.0
H2105 H 0.67949 0.86756 0.62911 0.0
H2106 H 0.66622 0.92927 0.56577 0.0
H2107 H 0.6493 0.91971 0.54831 0.0
H2108 H 0.66658 0.9191 0.51818 0.0
H2109 H 0.66364 0.89325 0.69578 0.0
H2110 H 0.664 0.87293 0.68527 0.0
H2111 H 0.64708 0.88418 0.67466 0.0
C2112 C 0.3721 0.42603 0.85563 0.0
C2113 C 0.36595 0.43464 0.82351 0.0
C2114 C 0.36332 0.41478 0.87533 0.0
C2115 C 0.34805 0.41208 0.86252 0.0
C2116 C 0.34196 0.42035 0.82921 0.0
C2117 C 0.35099 0.43154 0.8101 0.0
C2118 C 0.37021 0.40611 0.91057 0.0
C2119 C 0.32572 0.41775 0.81464 0.0
C2120 C 0.32671 0.37585 0.89243 0.0
C2121 C 0.31716 0.38128 0.92357 0.0
C2122 C 0.33718 0.38563 0.87302 0.0
C2123 C 0.33812 0.40118 0.88513 0.0
C2124 C 0.32894 0.40658 0.9176 0.0
C2125 C 0.31856 0.39655 0.93643 0.0
C2126 C 0.34686 0.37945 0.8387 0.0
C2127 C 0.32966 0.4231 0.93143 0.0
H2128 H 0.38374 0.42823 0.86568 0.0
H2129 H 0.34614 0.43827 0.78557 0.0
H2130 H 0.36391 0.40898 0.93882 0.0
H2131 H 0.36905 0.39355 0.90577 0.0
H2132 H 0.38255 0.40887 0.91506 0.0
H2133 H 0.32302 0.42452 0.78699 0.0
H2134 H 0.32387 0.40541 0.80793 0.0
H2135 H 0.3175 0.42101 0.83887 0.0
H2136 H 0.32581 0.36398 0.8828 0.0
H2137 H 0.31109 0.40086 0.96016 0.0
H2138 H 0.35917 0.38208 0.84403 0.0
H2139 H 0.34352 0.38514 0.8099 0.0
H2140 H 0.34555 0.36684 0.8349 0.0
H2141 H 0.34168 0.42635 0.93854 0.0
H2142 H 0.32245 0.42523 0.95866 0.0
H2143 H 0.32568 0.43075 0.90664 0.0
C2144 C 0.80757 0.09725 0.07915 0.0
C2145 C 0.8124 0.10746 0.0488 0.0
C2146 C 0.81806 0.08767 0.09909 0.0
C2147 C 0.8338 0.08839 0.08864 0.0
C2148 C 0.83877 0.09855 0.0578 0.0
C2149 C 0.82799 0.10797 0.03818 0.0
C2150 C 0.81233 0.07696 0.1318 0.0
C2151 C 0.85548 0.09958 0.04584 0.0
C2152 C 0.862 0.07402 0.1678 0.0
C2153 C 0.86519 0.0592 0.15353 0.0
C2154 C 0.85202 0.08378 0.14653 0.0
C2155 C 0.84503 0.07853 0.1103 0.0
C2156 C 0.84831 0.06362 0.09559 0.0
C2157 C 0.85835 0.05414 0.11739 0.0
C2158 C 0.84882 0.09964 0.16302 0.0
C2159 C 0.84097 0.05759 0.05725 0.0
H2160 H 0.7956 0.09701 0.08814 0.0
H2161 H 0.83177 0.11576 0.01455 0.0
H2162 H 0.81559 0.06495 0.12452 0.0
H2163 H 0.81779 0.0799 0.1612 0.0
H2164 H 0.79966 0.07751 0.13554 0.0
H2165 H 0.85744 0.10798 0.02101 0.0
H2166 H 0.86248 0.10303 0.07245 0.0
H2167 H 0.85968 0.08817 0.03584 0.0
H2168 H 0.8674 0.07802 0.19549 0.0
H2169 H 0.86061 0.04261 0.10655 0.0
H2170 H 0.83643 0.10079 0.17023 0.0
H2171 H 0.85159 0.10843 0.13978 0.0
H2172 H 0.85556 0.10214 0.19087 0.0
H2173 H 0.82832 0.05707 0.0611 0.0
H2174 H 0.84519 0.04594 0.04911 0.0
H2175 H 0.84334 0.06548 0.03158 0.0
C2176 C 0.82715 0.6124 0.95502 0.0
C2177 C 0.81262 0.61232 0.93675 0.0
C2178 C 0.83902 0.60304 0.94014 0.0
C2179 C 0.83616 0.59333 0.90651 0.0
C2180 C 0.82142 0.59304 0.88845 0.0
C2181 C 0.80985 0.60255 0.90376 0.0
C2182 C 0.85463 0.60366 0.95998 0.0
C2183 C 0.81789 0.58272 0.8528 0.0
C2184 C 0.86781 0.57865 0.83786 0.0
C2185 C 0.86915 0.56338 0.85079 0.0
C2186 C 0.85762 0.58878 0.85707 0.0
C2187 C 0.84851 0.58345 0.88974 0.0
C2188 C 0.85023 0.5682 0.90386 0.0
C2189 C 0.86056 0.55835 0.88423 0.0
C2190 C 0.85617 0.60501 0.8414 0.0
C2191 C 0.84064 0.56208 0.93844 0.0
H2192 H 0.82932 0.62002 0.98038 0.0
H2193 H 0.79854 0.6023 0.89001 0.0
H2194 H 0.85803 0.59205 0.97051 0.0
H2195 H 0.86335 0.60743 0.93756 0.0
H2196 H 0.85489 0.61164 0.98627 0.0
H2197 H 0.80576 0.58372 0.84267 0.0
H2198 H 0.82548 0.58564 0.82691 0.0
H2199 H 0.82017 0.57057 0.86096 0.0
H2200 H 0.8746 0.58262 0.81237 0.0
H2201 H 0.86145 0.5465 0.89406 0.0
H2202 H 0.85716 0.61334 0.86676 0.0
H2203 H 0.84468 0.60663 0.82751 0.0
H2204 H 0.86505 0.60777 0.81831 0.0
H2205 H 0.84128 0.56991 0.96493 0.0
H2206 H 0.84436 0.55043 0.94812 0.0
H2207 H 0.82843 0.56149 0.92899 0.0
C2208 C 0.16854 0.12071 0.58339 0.0
C2209 C 0.18387 0.12122 0.59634 0.0
C2210 C 0.15809 0.11038 0.60091 0.0
C2211 C 0.16314 0.10032 0.63189 0.0
C2212 C 0.17852 0.10101 0.64563 0.0
C2213 C 0.18869 0.11144 0.62766 0.0
C2214 C 0.14174 0.10999 0.58567 0.0
C2215 C 0.18437 0.09039 0.67842 0.0
C2216 C 0.13473 0.07952 0.69983 0.0
C2217 C 0.13446 0.06489 0.68205 0.0
C2218 C 0.14377 0.09132 0.68333 0.0
C2219 C 0.1527 0.08838 0.6483 0.0
C2220 C 0.15224 0.07372 0.62984 0.0
C2221 C 0.14311 0.06217 0.6469 0.0
C2222 C 0.144 0.10683 0.70379 0.0
C2223 C 0.16159 0.07015 0.59238 0.0
H2224 H 0.16474 0.12837 0.55948 0.0
H2225 H 0.20059 0.11161 0.63735 0.0
H2226 H 0.13938 0.09872 0.57127 0.0
H2227 H 0.13361 0.11126 0.61138 0.0
H2228 H 0.1394 0.1192 0.56316 0.0
H2229 H 0.1964 0.093 0.68723 0.0
H2230 H 0.177 0.09125 0.70579 0.0
H2231 H 0.18381 0.07833 0.6677 0.0
H2232 H 0.12812 0.08165 0.72712 0.0
H2233 H 0.14267 0.05098 0.63253 0.0
H2234 H 0.14118 0.11598 0.68159 0.0
H2235 H 0.1557 0.10925 0.71548 0.0
H2236 H 0.13576 0.10751 0.72946 0.0
H2237 H 0.15875 0.07838 0.56781 0.0
H2238 H 0.15957 0.0583 0.58106 0.0
H2239 H 0.174 0.07147 0.59917 0.0
C2240 C 0.69102 0.38782 0.36473 0.0
C2241 C 0.68622 0.37849 0.39702 0.0
C2242 C 0.68077 0.39788 0.34552 0.0
C2243 C 0.66538 0.3987 0.35911 0.0
C2244 C 0.66036 0.38907 0.39107 0.0
C2245 C 0.67084 0.37906 0.40961 0.0
C2246 C 0.68653 0.40797 0.31149 0.0
C2247 C 0.64402 0.38963 0.40633 0.0
C2248 C 0.64414 0.43606 0.34141 0.0
C2249 C 0.63494 0.43242 0.30787 0.0
C2250 C 0.65405 0.42515 0.35844 0.0
C2251 C 0.65479 0.41025 0.34143 0.0
C2252 C 0.64553 0.40648 0.30755 0.0
C2253 C 0.63566 0.41762 0.29121 0.0
C2254 C 0.66367 0.42956 0.39474 0.0
C2255 C 0.64612 0.39073 0.2885 0.0
H2256 H 0.70293 0.3876 0.35518 0.0
H2257 H 0.66701 0.3717 0.43413 0.0
H2258 H 0.67908 0.4067 0.28439 0.0
H2259 H 0.68602 0.42019 0.3209 0.0
H2260 H 0.69854 0.40521 0.30275 0.0
H2261 H 0.64177 0.38089 0.43016 0.0
H2262 H 0.64156 0.40117 0.41907 0.0
H2263 H 0.63589 0.38775 0.3809 0.0
H2264 H 0.64341 0.44741 0.35479 0.0
H2265 H 0.62864 0.41482 0.26509 0.0
H2266 H 0.67604 0.42813 0.38757 0.0
H2267 H 0.66104 0.42185 0.42063 0.0
H2268 H 0.66168 0.44162 0.4044 0.0
H2269 H 0.65795 0.38826 0.27778 0.0
H2270 H 0.63811 0.38961 0.26244 0.0
H2271 H 0.64319 0.38186 0.31138 0.0
C2272 C 0.36615 0.93277 0.12904 0.0
C2273 C 0.37091 0.93057 0.16933 0.0
C2274 C 0.35598 0.92254 0.11025 0.0
C2275 C 0.35021 0.9099 0.13244 0.0
C2276 C 0.35498 0.90752 0.17302 0.0
C2277 C 0.36534 0.91785 0.19094 0.0
C2278 C 0.35121 0.92542 0.06684 0.0
C2279 C 0.34896 0.8942 0.19766 0.0
C2280 C 0.31226 0.89341 0.09668 0.0
C2281 C 0.31705 0.8803 0.07553 0.0
C2282 C 0.32293 0.90302 0.11585 0.0
C2283 C 0.33878 0.8995 0.11344 0.0
C2284 C 0.34369 0.88631 0.09196 0.0
C2285 C 0.33274 0.8768 0.07342 0.0
C2286 C 0.31725 0.91692 0.13879 0.0
C2287 C 0.36051 0.88232 0.0883 0.0
H2288 H 0.37008 0.94273 0.11231 0.0
H2289 H 0.36907 0.91598 0.22191 0.0
H2290 H 0.35343 0.91507 0.04811 0.0
H2291 H 0.33869 0.92775 0.06549 0.0
H2292 H 0.35738 0.93531 0.05315 0.0
H2293 H 0.35401 0.89382 0.2286 0.0
H2294 H 0.33629 0.89506 0.20044 0.0
H2295 H 0.35153 0.88322 0.18204 0.0
H2296 H 0.3001 0.89598 0.09889 0.0
H2297 H 0.33646 0.8667 0.05689 0.0
H2298 H 0.32212 0.92752 0.12528 0.0
H2299 H 0.32121 0.9164 0.17076 0.0
H2300 H 0.30453 0.91783 0.13854 0.0
H2301 H 0.36674 0.8918 0.07295 0.0
H2302 H 0.36242 0.87156 0.07092 0.0
H2303 H 0.36565 0.88098 0.11889 0.0
C2304 C 0.8217 0.39049 0.56321 0.0
C2305 C 0.80996 0.38384 0.58633 0.0
C2306 C 0.83217 0.40075 0.58087 0.0
C2307 C 0.83064 0.40459 0.62242 0.0
C2308 C 0.81884 0.39784 0.64593 0.0
C2309 C 0.80869 0.38745 0.62762 0.0
C2310 C 0.84476 0.40757 0.55504 0.0
C2311 C 0.81672 0.40185 0.69015 0.0
C2312 C 0.86455 0.4223 0.6776 0.0
C2313 C 0.86101 0.43801 0.67563 0.0
C2314 C 0.85481 0.41128 0.66025 0.0
C2315 C 0.84109 0.41607 0.641 0.0
C2316 C 0.83733 0.43186 0.63937 0.0
C2317 C 0.84739 0.44264 0.65639 0.0
C2318 C 0.85922 0.39452 0.66227 0.0
C2319 C 0.82273 0.43738 0.61939 0.0
H2320 H 0.82275 0.38758 0.53135 0.0
H2321 H 0.79948 0.38243 0.64537 0.0
H2322 H 0.84338 0.42021 0.55337 0.0
H2323 H 0.85612 0.40526 0.56902 0.0
H2324 H 0.84475 0.40288 0.52369 0.0
H2325 H 0.80716 0.39533 0.70435 0.0
H2326 H 0.82742 0.39946 0.70725 0.0
H2327 H 0.8143 0.41431 0.69323 0.0
H2328 H 0.87493 0.41859 0.69287 0.0
H2329 H 0.84469 0.45475 0.65395 0.0
H2330 H 0.86 0.38971 0.63117 0.0
H2331 H 0.85025 0.38793 0.67861 0.0
H2332 H 0.87039 0.39272 0.67784 0.0
H2333 H 0.82277 0.4342 0.5868 0.0
H2334 H 0.82126 0.45002 0.62185 0.0
H2335 H 0.81264 0.43171 0.63349 0.0
C2336 C 0.3191 0.10653 0.42032 0.0
C2337 C 0.3036 0.10817 0.40973 0.0
C2338 C 0.32867 0.09634 0.3992 0.0
C2339 C 0.32257 0.08762 0.36675 0.0
C2340 C 0.30693 0.0892 0.35594 0.0
C2341 C 0.29762 0.09948 0.37757 0.0
C2342 C 0.3453 0.0949 0.41167 0.0
C2343 C 0.30005 0.08009 0.32147 0.0
C2344 C 0.35109 0.07148 0.29093 0.0
C2345 C 0.35281 0.05637 0.30494 0.0
C2346 C 0.34105 0.08172 0.3103 0.0
C2347 C 0.33256 0.0767 0.34445 0.0
C2348 C 0.33399 0.06137 0.35816 0.0
C2349 C 0.34412 0.0514 0.33827 0.0
C2350 C 0.33975 0.09798 0.29476 0.0
C2351 C 0.32512 0.05563 0.39451 0.0
H2352 H 0.32372 0.11311 0.44543 0.0
H2353 H 0.2857 0.10089 0.36886 0.0
H2354 H 0.34781 0.08288 0.42069 0.0
H2355 H 0.35288 0.09769 0.38563 0.0
H2356 H 0.34827 0.1026 0.43737 0.0
H2357 H 0.28767 0.08266 0.31693 0.0
H2358 H 0.30627 0.08262 0.29287 0.0
H2359 H 0.30134 0.06761 0.32743 0.0
H2360 H 0.35768 0.07531 0.26494 0.0
H2361 H 0.34558 0.03981 0.34966 0.0
H2362 H 0.34367 0.10613 0.31847 0.0
H2363 H 0.32758 0.10075 0.28799 0.0
H2364 H 0.34669 0.09988 0.26693 0.0
H2365 H 0.32863 0.06211 0.42196 0.0
H2366 H 0.32702 0.04319 0.40015 0.0
H2367 H 0.31265 0.05762 0.3901 0.0
C2368 C 0.64117 0.56446 0.16675 0.0
C2369 C 0.62605 0.56188 0.15391 0.0
C2370 C 0.65065 0.57495 0.14642 0.0
C2371 C 0.64483 0.58306 0.1125 0.0
C2372 C 0.62943 0.58086 0.10015 0.0
C2373 C 0.62021 0.57027 0.12101 0.0
C2374 C 0.66703 0.577 0.16046 0.0
C2375 C 0.62281 0.5894 0.06433 0.0
C2376 C 0.66744 0.6182 0.08026 0.0
C2377 C 0.67671 0.61218 0.04929 0.0
C2378 C 0.65663 0.60898 0.10028 0.0
C2379 C 0.65511 0.59337 0.0891 0.0
C2380 C 0.66404 0.58737 0.0569 0.0
C2381 C 0.67474 0.59686 0.03736 0.0
C2382 C 0.64728 0.61578 0.13443 0.0
C2383 C 0.66266 0.57078 0.04399 0.0
H2384 H 0.64578 0.55787 0.19186 0.0
H2385 H 0.60845 0.56845 0.11135 0.0
H2386 H 0.67503 0.57321 0.13623 0.0
H2387 H 0.66941 0.58931 0.16642 0.0
H2388 H 0.66956 0.57035 0.18843 0.0
H2389 H 0.61039 0.58697 0.05993 0.0
H2390 H 0.62434 0.60195 0.0684 0.0
H2391 H 0.62904 0.58612 0.03629 0.0
H2392 H 0.66905 0.62998 0.09 0.0
H2393 H 0.68175 0.59222 0.0131 0.0
H2394 H 0.65064 0.61034 0.16355 0.0
H2395 H 0.63489 0.6134 0.12976 0.0
H2396 H 0.64893 0.62839 0.13717 0.0
H2397 H 0.66626 0.56318 0.06927 0.0
H2398 H 0.66985 0.56813 0.01703 0.0
H2399 H 0.65053 0.56799 0.03682 0.0
C2400 C 0.18705 0.89846 0.93564 0.0
C2401 C 0.18985 0.8836 0.921 0.0
C2402 C 0.17664 0.90825 0.91602 0.0
C2403 C 0.16878 0.90302 0.88106 0.0
C2404 C 0.1715 0.88803 0.86617 0.0
C2405 C 0.18205 0.87852 0.88623 0.0
C2406 C 0.17403 0.92419 0.93273 0.0
C2407 C 0.16331 0.88206 0.82899 0.0
C2408 C 0.13188 0.9237 0.8536 0.0
C2409 C 0.13688 0.93369 0.82298 0.0
C2410 C 0.14208 0.91344 0.87224 0.0
C2411 C 0.15767 0.91326 0.86013 0.0
C2412 C 0.16273 0.92312 0.8287 0.0
C2413 C 0.15225 0.93319 0.81038 0.0
C2414 C 0.13623 0.90296 0.90532 0.0
C2415 C 0.1793 0.9233 0.81514 0.0
H2416 H 0.1929 0.90239 0.96274 0.0
H2417 H 0.18434 0.86715 0.8743 0.0
H2418 H 0.1767 0.93289 0.90917 0.0
H2419 H 0.16178 0.92565 0.94109 0.0
H2420 H 0.1812 0.92656 0.95989 0.0
H2421 H 0.16656 0.87004 0.82168 0.0
H2422 H 0.1507 0.88256 0.83364 0.0
H2423 H 0.16601 0.88942 0.80246 0.0
H2424 H 0.11995 0.92395 0.86305 0.0
H2425 H 0.15618 0.94103 0.78703 0.0
H2426 H 0.14219 0.90558 0.93425 0.0
H2427 H 0.13881 0.89082 0.89766 0.0
H2428 H 0.12366 0.90414 0.91016 0.0
H2429 H 0.18677 0.92681 0.84078 0.0
H2430 H 0.18126 0.93129 0.78939 0.0
H2431 H 0.18293 0.9116 0.80583 0.0
loop_
_geom_bond_atom_site_label_1
_geom_bond_atom_site_label_2
_geom_bond_distance
_geom_bond_site_symmetry_2
_ccdc_geom_bond_type
Li0 N17 1.990 . S
Li0 O60 1.956 1_554 S
Li0 O61 1.970 . S
Li0 O62 1.961 . S
Li1 N25 1.990 . S
Li1 O60 1.970 . S
Li1 O61 1.956 1_556 S
Li1 O63 1.961 . S
Li2 N47 1.990 . S
Li2 O60 1.961 . S
Li2 O62 1.956 1_556 S
Li2 O63 1.970 . S
Li3 N53 1.990 . S
Li3 O61 1.961 . S
Li3 O62 1.970 . S
Li3 O63 1.956 1_554 S
C4 C6 1.348 . S
C4 C7 1.356 . S
C4 O60 1.325 . S
N5 C8 1.314 . S
N5 C9 1.279 . S
C6 C4 1.348 . S
C6 C8 1.353 . S
C6 H64 0.929 . S
C7 C4 1.356 . S
C7 C9 1.358 . S
C7 H65 0.930 . S
C8 N5 1.314 . S
C8 C6 1.353 . S
C8 H66 0.930 . S
C9 N5 1.279 . S
C9 C7 1.358 . S
C9 H67 0.930 . S
C10 C13 1.348 . S
C10 C14 1.356 . S
C10 O61 1.325 . S
C11 N12 1.279 . S
C11 C14 1.358 . S
C11 H68 0.930 . S
N12 C11 1.279 . S
N12 C15 1.314 . S
C13 C10 1.348 . S
C13 C15 1.353 . S
C13 H69 0.929 . S
C14 C10 1.356 . S
C14 C11 1.358 . S
C14 H70 0.930 . S
C15 N12 1.314 . S
C15 C13 1.353 . S
C15 H71 0.930 . S
C16 N17 1.314 . S
C16 C21 1.353 . S
C16 H22 0.930 . S
N17 Li0 1.990 . S
N17 C16 1.314 . S
N17 C19 1.279 1_554 S
C18 C19 1.358 1_554 S
C18 C20 1.356 . S
C18 H72 0.930 1_554 S
C19 N17 1.279 1_556 S
C19 C18 1.358 1_556 S
C19 H23 0.930 . S
C20 C18 1.356 . S
C20 C21 1.348 . S
C21 C16 1.353 . S
C21 C20 1.348 . S
C21 H73 0.929 . S
H22 C16 0.930 . S
H23 C19 0.930 . S
C24 N25 1.314 . S
C24 C26 1.353 . S
C24 H30 0.930 . S
N25 Li1 1.990 . S
N25 C24 1.314 . S
N25 C28 1.279 1_556 S
C26 C24 1.353 . S
C26 C29 1.348 . S
C26 H74 0.929 . S
C27 C28 1.358 1_556 S
C27 C29 1.356 . S
C27 H75 0.930 1_556 S
C28 N25 1.279 1_554 S
C28 C27 1.358 1_554 S
C28 H31 0.930 . S
C29 C26 1.348 . S
C29 C27 1.356 . S
H30 C24 0.930 . S
H31 C28 0.930 . S
C32 C34 1.348 . S
C32 C35 1.356 . S
C32 O62 1.325 . S
N33 C36 1.314 . S
N33 C37 1.279 . S
C34 C32 1.348 . S
C34 C36 1.353 . S
C34 H76 0.929 . S
C35 C32 1.356 . S
C35 C37 1.358 . S
C35 H77 0.930 1_554 S
C36 N33 1.314 . S
C36 C34 1.353 . S
C36 H78 0.930 . S
C37 N33 1.279 . S
C37 C35 1.358 . S
C37 H79 0.930 1_554 S
C38 C39 1.348 . S
C38 C40 1.356 . S
C38 O63 1.325 . S
C39 C38 1.348 . S
C39 C41 1.353 . S
C39 H80 0.929 . S
C40 C38 1.356 . S
C40 C42 1.358 . S
C40 H81 0.930 1_556 S
C41 C39 1.353 . S
C41 N43 1.314 . S
C41 H82 0.930 . S
C42 C40 1.358 . S
C42 N43 1.279 . S
C42 H83 0.930 1_556 S
N43 C41 1.314 . S
N43 C42 1.279 . S
C44 C46 1.353 . S
C44 N47 1.314 . S
C44 H50 0.930 . S
C45 N47 1.279 . S
C45 C48 1.358 . S
C45 H51 0.930 . S
C46 C44 1.353 . S
C46 C49 1.348 . S
C46 H84 0.929 . S
N47 Li2 1.990 . S
N47 C44 1.314 . S
N47 C45 1.279 . S
C48 C45 1.358 . S
C48 C49 1.356 . S
C48 H85 0.930 . S
C49 C46 1.348 . S
C49 C48 1.356 . S
H50 C44 0.930 . S
H51 C45 0.930 . S
C52 N53 1.314 . S
C52 C54 1.353 . S
C52 H58 0.930 . S
N53 Li3 1.990 . S
N53 C52 1.314 . S
N53 C56 1.279 . S
C54 C52 1.353 . S
C54 C57 1.348 . S
C54 H86 0.929 . S
C55 C56 1.358 . S
C55 C57 1.356 . S
C55 H87 0.930 . S
C56 N53 1.279 . S
C56 C55 1.358 . S
C56 H59 0.930 . S
C57 C54 1.348 . S
C57 C55 1.356 . S
H58 C52 0.930 . S
H59 C56 0.930 . S
O60 Li0 1.956 1_556 S
O60 Li1 1.970 . S
O60 Li2 1.961 . S
O60 C4 1.325 . S
O61 Li0 1.970 . S
O61 Li1 1.956 1_554 S
O61 Li3 1.961 . S
O61 C10 1.325 . S
O62 Li0 1.961 . S
O62 Li2 1.956 1_554 S
O62 Li3 1.970 . S
O62 C32 1.325 . S
O63 Li1 1.961 . S
O63 Li2 1.970 . S
O63 Li3 1.956 1_556 S
O63 C38 1.325 . S
H64 C6 0.929 . S
H65 C7 0.930 . S
H66 C8 0.930 . S
H67 C9 0.930 . S
H68 C11 0.930 . S
H69 C13 0.929 . S
H70 C14 0.930 . S
H71 C15 0.930 . S
H72 C18 0.930 1_556 S
H73 C21 0.929 . S
H74 C26 0.929 . S
H75 C27 0.930 1_554 S
H76 C34 0.929 . S
H77 C35 0.930 1_556 S
H78 C36 0.930 . S
H79 C37 0.930 1_556 S
H80 C39 0.929 . S
H81 C40 0.930 1_554 S
H82 C41 0.930 . S
H83 C42 0.930 1_554 S
H84 C46 0.929 . S
H85 C48 0.930 . S
H86 C54 0.929 . S
H87 C55 0.930 . S
Li88 N105 1.990 . S
Li88 O148 1.956 . S
Li88 O149 1.970 1_565 S
Li88 O150 1.961 . S
Li89 N113 1.990 . S
Li89 O148 1.970 1_545 S
Li89 O149 1.956 . S
Li89 O151 1.961 . S
Li90 N135 1.990 . S
Li90 O148 1.961 . S
Li90 O150 1.956 . S
Li90 O151 1.970 1_565 S
Li91 N141 1.990 . S
Li91 O149 1.961 . S
Li91 O150 1.970 1_545 S
Li91 O151 1.956 . S
C92 C94 1.348 . S
C92 C95 1.356 . S
C92 O148 1.325 . S
N93 C96 1.314 . S
N93 C97 1.279 . S
C94 C92 1.348 . S
C94 C96 1.353 . S
C94 H152 0.929 . S
C95 C92 1.356 . S
C95 C97 1.358 . S
C95 H153 0.930 . S
C96 N93 1.314 . S
C96 C94 1.353 . S
C96 H154 0.930 . S
C97 N93 1.279 . S
C97 C95 1.358 . S
C97 H155 0.930 . S
C98 C101 1.348 . S
C98 C102 1.356 . S
C98 O149 1.325 . S
C99 N100 1.279 . S
C99 C102 1.358 . S
C99 H156 0.930 . S
N100 C99 1.279 . S
N100 C103 1.314 . S
C101 C98 1.348 . S
C101 C103 1.353 . S
C101 H157 0.929 . S
C102 C98 1.356 . S
C102 C99 1.358 . S
C102 H158 0.930 . S
C103 N100 1.314 . S
C103 C101 1.353 . S
C103 H159 0.930 . S
C104 N105 1.314 . S
C104 C109 1.353 . S
C104 H110 0.930 1_565 S
N105 Li88 1.990 . S
N105 C104 1.314 . S
N105 C107 1.279 . S
C106 C107 1.358 . S
C106 C108 1.356 . S
C106 H160 0.930 . S
C107 N105 1.279 . S
C107 C106 1.358 . S
C107 H111 0.930 . S
C108 C106 1.356 . S
C108 C109 1.348 . S
C109 C104 1.353 . S
C109 C108 1.348 . S
C109 H161 0.929 . S
H110 C104 0.930 1_545 S
H111 C107 0.930 . S
C112 N113 1.314 . S
C112 C114 1.353 . S
C112 H118 0.930 1_545 S
N113 Li89 1.990 . S
N113 C112 1.314 . S
N113 C116 1.279 . S
C114 C112 1.353 . S
C114 C117 1.348 . S
C114 H162 0.929 . S
C115 C116 1.358 . S
C115 C117 1.356 . S
C115 H163 0.930 . S
C116 N113 1.279 . S
C116 C115 1.358 . S
C116 H119 0.930 . S
C117 C114 1.348 . S
C117 C115 1.356 . S
H118 C112 0.930 1_565 S
H119 C116 0.930 . S
C120 C122 1.332 1_565 S
C120 C123 1.356 . S
C120 O150 1.325 . S
N121 C124 1.314 . S
N121 C125 1.279 . S
C122 C120 1.332 1_545 S
C122 C124 1.344 1_545 S
C122 H164 0.955 . S
C123 C120 1.356 . S
C123 C125 1.358 . S
C123 H165 0.930 . S
C124 N121 1.314 . S
C124 C122 1.344 1_565 S
C124 H166 0.930 1_565 S
C125 N121 1.279 . S
C125 C123 1.358 . S
C125 H167 0.930 . S
C126 C127 1.340 1_545 S
C126 C128 1.356 . S
C126 O151 1.325 . S
C127 C126 1.340 1_565 S
C127 C129 1.349 1_565 S
C127 H168 0.941 . S
C128 C126 1.356 . S
C128 C130 1.358 . S
C128 H169 0.930 . S
C129 C127 1.349 1_545 S
C129 N131 1.314 . S
C129 H170 0.930 1_545 S
C130 C128 1.358 . S
C130 N131 1.279 . S
C130 H171 0.930 . S
N131 C129 1.314 . S
N131 C130 1.279 . S
C132 C134 1.353 . S
C132 N135 1.314 . S
C132 H138 0.930 . S
C133 N135 1.279 . S
C133 C136 1.358 . S
C133 H139 0.930 . S
C134 C132 1.353 . S
C134 C137 1.348 . S
C134 H172 0.929 . S
N135 Li90 1.990 . S
N135 C132 1.314 . S
N135 C133 1.279 . S
C136 C133 1.358 . S
C136 C137 1.356 . S
C136 H173 0.930 . S
C137 C134 1.348 . S
C137 C136 1.356 . S
H138 C132 0.930 . S
H139 C133 0.930 . S
C140 N141 1.314 . S
C140 C142 1.353 . S
C140 H146 0.930 . S
N141 Li91 1.990 . S
N141 C140 1.314 . S
N141 C144 1.279 . S
C142 C140 1.353 . S
C142 C145 1.348 . S
C142 H174 0.929 . S
C143 C144 1.358 . S
C143 C145 1.356 . S
C143 H175 0.930 . S
C144 N141 1.279 . S
C144 C143 1.358 . S
C144 H147 0.930 . S
C145 C142 1.348 . S
C145 C143 1.356 . S
H146 C140 0.930 . S
H147 C144 0.930 . S
O148 Li88 1.956 . S
O148 Li89 1.970 1_565 S
O148 Li90 1.961 . S
O148 C92 1.325 . S
O149 Li88 1.970 1_545 S
O149 Li89 1.956 . S
O149 Li91 1.961 . S
O149 C98 1.325 . S
O150 Li88 1.961 . S
O150 Li90 1.956 . S
O150 Li91 1.970 1_565 S
O150 C120 1.325 . S
O151 Li89 1.961 . S
O151 Li90 1.970 1_545 S
O151 Li91 1.956 . S
O151 C126 1.325 . S
H152 C94 0.929 . S
H153 C95 0.930 . S
H154 C96 0.930 . S
H155 C97 0.930 . S
H156 C99 0.930 . S
H157 C101 0.929 . S
H158 C102 0.930 . S
H159 C103 0.930 . S
H160 C106 0.930 . S
H161 C109 0.929 . S
H162 C114 0.929 . S
H163 C115 0.930 . S
H164 C122 0.955 . S
H165 C123 0.930 . S
H166 C124 0.930 1_545 S
H167 C125 0.930 . S
H168 C127 0.941 . S
H169 C128 0.930 . S
H170 C129 0.930 1_565 S
H171 C130 0.930 . S
H172 C134 0.929 . S
H173 C136 0.930 . S
H174 C142 0.929 . S
H175 C143 0.930 . S
Li176 N193 1.990 . S
Li176 O236 1.956 . S
Li176 O237 1.970 . S
Li176 O238 1.961 . S
Li177 N201 1.990 . S
Li177 O236 1.970 . S
Li177 O237 1.956 . S
Li177 O239 1.961 . S
Li178 N223 1.990 . S
Li178 O236 1.961 . S
Li178 O238 1.956 . S
Li178 O239 1.970 . S
Li179 N229 1.990 . S
Li179 O237 1.961 . S
Li179 O238 1.970 . S
Li179 O239 1.956 . S
C180 C182 1.348 . S
C180 C183 1.356 . S
C180 O236 1.325 . S
N181 C184 1.314 . S
N181 C185 1.279 . S
C182 C180 1.348 . S
C182 C184 1.353 . S
C182 H240 0.929 . S
C183 C180 1.356 . S
C183 C185 1.358 . S
C183 H241 0.930 . S
C184 N181 1.314 . S
C184 C182 1.353 . S
C184 H242 0.930 . S
C185 N181 1.279 . S
C185 C183 1.358 . S
C185 H243 0.930 . S
C186 C189 1.348 . S
C186 C190 1.356 . S
C186 O237 1.325 . S
C187 N188 1.279 . S
C187 C190 1.358 . S
C187 H244 0.930 . S
N188 C187 1.279 . S
N188 C191 1.314 . S
C189 C186 1.348 . S
C189 C191 1.353 . S
C189 H245 0.929 . S
C190 C186 1.356 . S
C190 C187 1.358 . S
C190 H246 0.930 . S
C191 N188 1.314 . S
C191 C189 1.353 . S
C191 H247 0.930 . S
C192 N193 1.314 . S
C192 C197 1.353 . S
C192 H198 0.930 . S
N193 Li176 1.990 . S
N193 C192 1.314 . S
N193 C195 1.279 . S
C194 C195 1.358 . S
C194 C196 1.356 . S
C194 H248 0.930 . S
C195 N193 1.279 . S
C195 C194 1.358 . S
C195 H199 0.930 . S
C196 C194 1.356 . S
C196 C197 1.348 . S
C197 C192 1.353 . S
C197 C196 1.348 . S
C197 H249 0.929 . S
H198 C192 0.930 . S
H199 C195 0.930 . S
C200 N201 1.314 . S
C200 C202 1.353 . S
C200 H206 0.930 . S
N201 Li177 1.990 . S
N201 C200 1.314 . S
N201 C204 1.279 . S
C202 C200 1.353 . S
C202 C205 1.348 . S
C202 H250 0.929 . S
C203 C204 1.358 . S
C203 C205 1.356 . S
C203 H251 0.930 . S
C204 N201 1.279 . S
C204 C203 1.358 . S
C204 H207 0.930 . S
C205 C202 1.348 . S
C205 C203 1.356 . S
H206 C200 0.930 . S
H207 C204 0.930 . S
C208 C210 1.348 . S
C208 C211 1.356 . S
C208 O238 1.325 . S
N209 C212 1.314 . S
N209 C213 1.279 . S
C210 C208 1.348 . S
C210 C212 1.353 . S
C210 H252 0.929 . S
C211 C208 1.356 . S
C211 C213 1.358 . S
C211 H253 0.930 . S
C212 N209 1.314 . S
C212 C210 1.353 . S
C212 H254 0.930 . S
C213 N209 1.279 . S
C213 C211 1.358 . S
C213 H255 0.930 . S
C214 C215 1.348 . S
C214 C216 1.356 . S
C214 O239 1.325 . S
C215 C214 1.348 . S
C215 C217 1.353 . S
C215 H256 0.929 . S
C216 C214 1.356 . S
C216 C218 1.358 . S
C216 H257 0.930 . S
C217 C215 1.353 . S
C217 N219 1.314 . S
C217 H258 0.930 . S
C218 C216 1.358 . S
C218 N219 1.279 . S
C218 H259 0.930 . S
N219 C217 1.314 . S
N219 C218 1.279 . S
C220 C222 1.353 . S
C220 N223 1.314 . S
C220 H226 0.930 . S
C221 N223 1.279 . S
C221 C224 1.358 . S
C221 H227 0.930 . S
C222 C220 1.353 . S
C222 C225 1.348 . S
C222 H260 0.929 . S
N223 Li178 1.990 . S
N223 C220 1.314 . S
N223 C221 1.279 . S
C224 C221 1.358 . S
C224 C225 1.356 . S
C224 H261 0.930 . S
C225 C222 1.348 . S
C225 C224 1.356 . S
H226 C220 0.930 . S
H227 C221 0.930 . S
C228 N229 1.314 . S
C228 C230 1.353 . S
C228 H234 0.930 . S
N229 Li179 1.990 . S
N229 C228 1.314 . S
N229 C232 1.279 . S
C230 C228 1.353 . S
C230 C233 1.348 . S
C230 H262 0.929 . S
C231 C232 1.358 . S
C231 C233 1.356 . S
C231 H263 0.930 . S
C232 N229 1.279 . S
C232 C231 1.358 . S
C232 H235 0.930 . S
C233 C230 1.348 . S
C233 C231 1.356 . S
H234 C228 0.930 . S
H235 C232 0.930 . S
O236 Li176 1.956 . S
O236 Li177 1.970 . S
O236 Li178 1.961 . S
O236 C180 1.325 . S
O237 Li176 1.970 . S
O237 Li177 1.956 . S
O237 Li179 1.961 . S
O237 C186 1.325 . S
O238 Li176 1.961 . S
O238 Li178 1.956 . S
O238 Li179 1.970 . S
O238 C208 1.325 . S
O239 Li177 1.961 . S
O239 Li178 1.970 . S
O239 Li179 1.956 . S
O239 C214 1.325 . S
H240 C182 0.929 . S
H241 C183 0.930 . S
H242 C184 0.930 . S
H243 C185 0.930 . S
H244 C187 0.930 . S
H245 C189 0.929 . S
H246 C190 0.930 . S
H247 C191 0.930 . S
H248 C194 0.930 . S
H249 C197 0.929 . S
H250 C202 0.929 . S
H251 C203 0.930 . S
H252 C210 0.929 . S
H253 C211 0.930 . S
H254 C212 0.930 . S
H255 C213 0.930 . S
H256 C215 0.929 . S
H257 C216 0.930 . S
H258 C217 0.930 . S
H259 C218 0.930 . S
H260 C222 0.929 . S
H261 C224 0.930 . S
H262 C230 0.929 . S
H263 C231 0.930 . S
Li264 N281 1.990 . S
Li264 O324 1.956 . S
Li264 O325 1.970 1_565 S
Li264 O326 1.961 . S
Li265 N289 1.990 . S
Li265 O324 1.970 1_545 S
Li265 O325 1.956 . S
Li265 O327 1.961 . S
Li266 N311 1.990 . S
Li266 O324 1.961 . S
Li266 O326 1.956 . S
Li266 O327 1.970 1_565 S
Li267 N317 1.990 . S
Li267 O325 1.961 . S
Li267 O326 1.970 1_545 S
Li267 O327 1.956 . S
C268 C270 1.332 1_565 S
C268 C271 1.356 . S
C268 O324 1.325 . S
N269 C272 1.314 . S
N269 C273 1.279 . S
C270 C268 1.332 1_545 S
C270 C272 1.344 1_545 S
C270 H328 0.955 . S
C271 C268 1.356 . S
C271 C273 1.358 . S
C271 H329 0.930 . S
C272 N269 1.314 . S
C272 C270 1.344 1_565 S
C272 H330 0.930 1_565 S
C273 N269 1.279 . S
C273 C271 1.358 . S
C273 H331 0.930 . S
C274 C277 1.340 1_545 S
C274 C278 1.356 . S
C274 O325 1.325 . S
C275 N276 1.279 . S
C275 C278 1.358 . S
C275 H332 0.930 . S
N276 C275 1.279 . S
N276 C279 1.314 . S
C277 C274 1.340 1_565 S
C277 C279 1.349 1_565 S
C277 H333 0.941 . S
C278 C274 1.356 . S
C278 C275 1.358 . S
C278 H334 0.930 . S
C279 N276 1.314 . S
C279 C277 1.349 1_545 S
C279 H335 0.930 1_545 S
C280 N281 1.314 . S
C280 C285 1.353 . S
C280 H286 0.930 . S
N281 Li264 1.990 . S
N281 C280 1.314 . S
N281 C283 1.279 . S
C282 C283 1.358 . S
C282 C284 1.356 . S
C282 H336 0.930 . S
C283 N281 1.279 . S
C283 C282 1.358 . S
C283 H287 0.930 . S
C284 C282 1.356 . S
C284 C285 1.348 . S
C285 C280 1.353 . S
C285 C284 1.348 . S
C285 H337 0.929 . S
H286 C280 0.930 . S
H287 C283 0.930 . S
C288 N289 1.314 . S
C288 C290 1.353 . S
C288 H294 0.930 . S
N289 Li265 1.990 . S
N289 C288 1.314 . S
N289 C292 1.279 . S
C290 C288 1.353 . S
C290 C293 1.348 . S
C290 H338 0.929 . S
C291 C292 1.358 . S
C291 C293 1.356 . S
C291 H339 0.930 . S
C292 N289 1.279 . S
C292 C291 1.358 . S
C292 H295 0.930 . S
C293 C290 1.348 . S
C293 C291 1.356 . S
H294 C288 0.930 . S
H295 C292 0.930 . S
C296 C298 1.348 . S
C296 C299 1.356 . S
C296 O326 1.325 . S
N297 C300 1.314 . S
N297 C301 1.279 . S
C298 C296 1.348 . S
C298 C300 1.353 . S
C298 H340 0.929 . S
C299 C296 1.356 . S
C299 C301 1.358 . S
C299 H341 0.930 . S
C300 N297 1.314 . S
C300 C298 1.353 . S
C300 H342 0.930 . S
C301 N297 1.279 . S
C301 C299 1.358 . S
C301 H343 0.930 . S
C302 C303 1.348 . S
C302 C304 1.356 . S
C302 O327 1.325 . S
C303 C302 1.348 . S
C303 C305 1.353 . S
C303 H344 0.929 . S
C304 C302 1.356 . S
C304 C306 1.358 . S
C304 H345 0.930 . S
C305 C303 1.353 . S
C305 N307 1.314 . S
C305 H346 0.930 . S
C306 C304 1.358 . S
C306 N307 1.279 . S
C306 H347 0.930 . S
N307 C305 1.314 . S
N307 C306 1.279 . S
C308 C310 1.353 . S
C308 N311 1.314 . S
C308 H314 0.930 1_565 S
C309 N311 1.279 . S
C309 C312 1.358 . S
C309 H315 0.930 . S
C310 C308 1.353 . S
C310 C313 1.348 . S
C310 H348 0.929 . S
N311 Li266 1.990 . S
N311 C308 1.314 . S
N311 C309 1.279 . S
C312 C309 1.358 . S
C312 C313 1.356 . S
C312 H349 0.930 . S
C313 C310 1.348 . S
C313 C312 1.356 . S
H314 C308 0.930 1_545 S
H315 C309 0.930 . S
C316 N317 1.314 . S
C316 C318 1.353 . S
C316 H322 0.930 1_545 S
N317 Li267 1.990 . S
N317 C316 1.314 . S
N317 C320 1.279 . S
C318 C316 1.353 . S
C318 C321 1.348 . S
C318 H350 0.929 . S
C319 C320 1.358 . S
C319 C321 1.356 . S
C319 H351 0.930 . S
C320 N317 1.279 . S
C320 C319 1.358 . S
C320 H323 0.930 . S
C321 C318 1.348 . S
C321 C319 1.356 . S
H322 C316 0.930 1_565 S
H323 C320 0.930 . S
O324 Li264 1.956 . S
O324 Li265 1.970 1_565 S
O324 Li266 1.961 . S
O324 C268 1.325 . S
O325 Li264 1.970 1_545 S
O325 Li265 1.956 . S
O325 Li267 1.961 . S
O325 C274 1.325 . S
O326 Li264 1.961 . S
O326 Li266 1.956 . S
O326 Li267 1.970 1_565 S
O326 C296 1.325 . S
O327 Li265 1.961 . S
O327 Li266 1.970 1_545 S
O327 Li267 1.956 . S
O327 C302 1.325 . S
H328 C270 0.955 . S
H329 C271 0.930 . S
H330 C272 0.930 1_545 S
H331 C273 0.930 . S
H332 C275 0.930 . S
H333 C277 0.941 . S
H334 C278 0.930 . S
H335 C279 0.930 1_565 S
H336 C282 0.930 . S
H337 C285 0.929 . S
H338 C290 0.929 . S
H339 C291 0.930 . S
H340 C298 0.929 . S
H341 C299 0.930 . S
H342 C300 0.930 . S
H343 C301 0.930 . S
H344 C303 0.929 . S
H345 C304 0.930 . S
H346 C305 0.930 . S
H347 C306 0.930 . S
H348 C310 0.929 . S
H349 C312 0.930 . S
H350 C318 0.929 . S
H351 C319 0.930 . S
Li352 N369 1.990 . S
Li352 O412 1.956 . S
Li352 O413 1.970 . S
Li352 O414 1.961 1_554 S
Li353 N377 1.990 . S
Li353 O412 1.970 . S
Li353 O413 1.956 . S
Li353 O415 1.961 1_554 S
Li354 N399 1.990 . S
Li354 O412 1.961 1_556 S
Li354 O414 1.956 . S
Li354 O415 1.970 . S
Li355 N405 1.990 . S
Li355 O413 1.961 1_556 S
Li355 O414 1.970 . S
Li355 O415 1.956 . S
C356 C358 1.348 . S
C356 C359 1.356 . S
C356 O412 1.325 . S
N357 C360 1.314 . S
N357 C361 1.279 . S
C358 C356 1.348 . S
C358 C360 1.353 . S
C358 H416 0.929 . S
C359 C356 1.356 . S
C359 C361 1.358 . S
C359 H417 0.930 . S
C360 N357 1.314 . S
C360 C358 1.353 . S
C360 H418 0.930 . S
C361 N357 1.279 . S
C361 C359 1.358 . S
C361 H419 0.930 . S
C362 C365 1.348 . S
C362 C366 1.356 1_554 S
C362 O413 1.325 . S
C363 N364 1.279 . S
C363 C366 1.358 1_554 S
C363 H420 0.930 1_554 S
N364 C363 1.279 . S
N364 C367 1.314 . S
C365 C362 1.348 . S
C365 C367 1.353 . S
C365 H421 0.929 . S
C366 C362 1.356 1_556 S
C366 C363 1.358 1_556 S
C366 H422 0.930 . S
C367 N364 1.314 . S
C367 C365 1.353 . S
C367 H423 0.930 . S
C368 N369 1.314 . S
C368 C373 1.353 . S
C368 H374 0.930 . S
N369 Li352 1.990 . S
N369 C368 1.314 . S
N369 C371 1.279 . S
C370 C371 1.358 . S
C370 C372 1.356 . S
C370 H424 0.930 . S
C371 N369 1.279 . S
C371 C370 1.358 . S
C371 H375 0.930 . S
C372 C370 1.356 . S
C372 C373 1.348 . S
C373 C368 1.353 . S
C373 C372 1.348 . S
C373 H425 0.929 . S
H374 C368 0.930 . S
H375 C371 0.930 . S
C376 N377 1.314 . S
C376 C378 1.353 . S
C376 H382 0.930 1_554 S
N377 Li353 1.990 . S
N377 C376 1.314 . S
N377 C380 1.279 . S
C378 C376 1.353 . S
C378 C381 1.348 . S
C378 H426 0.929 . S
C379 C380 1.358 . S
C379 C381 1.356 . S
C379 H427 0.930 . S
C380 N377 1.279 . S
C380 C379 1.358 . S
C380 H383 0.930 . S
C381 C378 1.348 . S
C381 C379 1.356 . S
H382 C376 0.930 1_556 S
H383 C380 0.930 . S
C384 C386 1.348 . S
C384 C387 1.356 1_556 S
C384 O414 1.325 . S
N385 C388 1.314 . S
N385 C389 1.279 . S
C386 C384 1.348 . S
C386 C388 1.353 . S
C386 H428 0.929 . S
C387 C384 1.356 1_554 S
C387 C389 1.358 1_554 S
C387 H429 0.930 . S
C388 N385 1.314 . S
C388 C386 1.353 . S
C388 H430 0.930 . S
C389 N385 1.279 . S
C389 C387 1.358 1_556 S
C389 H431 0.930 1_556 S
C390 C391 1.348 . S
C390 C392 1.356 . S
C390 O415 1.325 . S
C391 C390 1.348 . S
C391 C393 1.353 . S
C391 H432 0.929 . S
C392 C390 1.356 . S
C392 C394 1.358 . S
C392 H433 0.930 . S
C393 C391 1.353 . S
C393 N395 1.314 . S
C393 H434 0.930 . S
C394 C392 1.358 . S
C394 N395 1.279 . S
C394 H435 0.930 . S
N395 C393 1.314 . S
N395 C394 1.279 . S
C396 C398 1.353 . S
C396 N399 1.314 . S
C396 H402 0.930 1_556 S
C397 N399 1.279 . S
C397 C400 1.358 . S
C397 H403 0.930 . S
C398 C396 1.353 . S
C398 C401 1.348 . S
C398 H436 0.929 . S
N399 Li354 1.990 . S
N399 C396 1.314 . S
N399 C397 1.279 . S
C400 C397 1.358 . S
C400 C401 1.356 . S
C400 H437 0.930 . S
C401 C398 1.348 . S
C401 C400 1.356 . S
H402 C396 0.930 1_554 S
H403 C397 0.930 . S
C404 N405 1.314 . S
C404 C406 1.353 . S
C404 H410 0.930 . S
N405 Li355 1.990 . S
N405 C404 1.314 . S
N405 C408 1.279 . S
C406 C404 1.353 . S
C406 C409 1.348 . S
C406 H438 0.929 . S
C407 C408 1.358 . S
C407 C409 1.356 . S
C407 H439 0.930 . S
C408 N405 1.279 . S
C408 C407 1.358 . S
C408 H411 0.930 . S
C409 C406 1.348 . S
C409 C407 1.356 . S
H410 C404 0.930 . S
H411 C408 0.930 . S
O412 Li352 1.956 . S
O412 Li353 1.970 . S
O412 Li354 1.961 1_554 S
O412 C356 1.325 . S
O413 Li352 1.970 . S
O413 Li353 1.956 . S
O413 Li355 1.961 1_554 S
O413 C362 1.325 . S
O414 Li352 1.961 1_556 S
O414 Li354 1.956 . S
O414 Li355 1.970 . S
O414 C384 1.325 . S
O415 Li353 1.961 1_556 S
O415 Li354 1.970 . S
O415 Li355 1.956 . S
O415 C390 1.325 . S
H416 C358 0.929 . S
H417 C359 0.930 . S
H418 C360 0.930 . S
H419 C361 0.930 . S
H420 C363 0.930 1_556 S
H421 C365 0.929 . S
H422 C366 0.930 . S
H423 C367 0.930 . S
H424 C370 0.930 . S
H425 C373 0.929 . S
H426 C378 0.929 . S
H427 C379 0.930 . S
H428 C386 0.929 . S
H429 C387 0.930 . S
H430 C388 0.930 . S
H431 C389 0.930 1_554 S
H432 C391 0.929 . S
H433 C392 0.930 . S
H434 C393 0.930 . S
H435 C394 0.930 . S
H436 C398 0.929 . S
H437 C400 0.930 . S
H438 C406 0.929 . S
H439 C407 0.930 . S
Li440 N457 1.990 . S
Li440 O500 1.956 . S
Li440 O501 1.970 1_565 S
Li440 O502 1.961 . S
Li441 N465 1.990 . S
Li441 O500 1.970 1_545 S
Li441 O501 1.956 . S
Li441 O503 1.961 . S
Li442 N487 1.990 . S
Li442 O500 1.961 . S
Li442 O502 1.956 . S
Li442 O503 1.970 1_565 S
Li443 N493 1.990 . S
Li443 O501 1.961 . S
Li443 O502 1.970 1_545 S
Li443 O503 1.956 . S
C444 C446 1.348 . S
C444 C447 1.356 . S
C444 O500 1.325 . S
N445 C448 1.314 . S
N445 C449 1.279 . S
C446 C444 1.348 . S
C446 C448 1.353 . S
C446 H504 0.929 . S
C447 C444 1.356 . S
C447 C449 1.358 . S
C447 H505 0.930 . S
C448 N445 1.314 . S
C448 C446 1.353 . S
C448 H506 0.930 . S
C449 N445 1.279 . S
C449 C447 1.358 . S
C449 H507 0.930 . S
C450 C453 1.348 1_545 S
C450 C454 1.356 . S
C450 O501 1.325 . S
C451 N452 1.279 . S
C451 C454 1.358 . S
C451 H508 0.930 . S
N452 C451 1.279 . S
N452 C455 1.378 . S
C453 C450 1.348 1_565 S
C453 C455 1.336 1_565 S
C453 H509 0.929 . S
C454 C450 1.356 . S
C454 C451 1.358 . S
C454 H510 0.930 . S
C455 N452 1.378 . S
C455 C453 1.336 1_545 S
C455 H511 0.881 1_545 S
C456 N457 1.314 . S
C456 C461 1.353 . S
C456 H462 0.930 . S
N457 Li440 1.990 . S
N457 C456 1.314 . S
N457 C459 1.279 . S
C458 C459 1.358 . S
C458 C460 1.356 . S
C458 H512 0.930 . S
C459 N457 1.279 . S
C459 C458 1.358 . S
C459 H463 0.930 . S
C460 C458 1.356 . S
C460 C461 1.348 . S
C461 C456 1.353 . S
C461 C460 1.348 . S
C461 H513 0.929 . S
H462 C456 0.930 . S
H463 C459 0.930 . S
C464 N465 1.314 . S
C464 C466 1.353 . S
C464 H470 0.930 . S
N465 Li441 1.990 . S
N465 C464 1.314 . S
N465 C468 1.279 . S
C466 C464 1.353 . S
C466 C469 1.348 . S
C466 H514 0.929 . S
C467 C468 1.358 . S
C467 C469 1.356 . S
C467 H515 0.930 . S
C468 N465 1.279 . S
C468 C467 1.358 . S
C468 H471 0.930 . S
C469 C466 1.348 . S
C469 C467 1.356 . S
H470 C464 0.930 . S
H471 C468 0.930 . S
C472 C474 1.348 1_565 S
C472 C475 1.356 . S
C472 O502 1.325 . S
N473 C476 1.362 . S
N473 C477 1.279 . S
C474 C472 1.348 1_545 S
C474 C476 1.340 1_545 S
C474 H516 0.929 . S
C475 C472 1.356 . S
C475 C477 1.358 . S
C475 H517 0.930 . S
C476 N473 1.362 . S
C476 C474 1.340 1_565 S
C476 H518 0.893 1_565 S
C477 N473 1.279 . S
C477 C475 1.358 . S
C477 H519 0.930 . S
C478 C479 1.348 . S
C478 C480 1.356 . S
C478 O503 1.325 . S
C479 C478 1.348 . S
C479 C481 1.353 . S
C479 H520 0.929 . S
C480 C478 1.356 . S
C480 C482 1.358 . S
C480 H521 0.930 . S
C481 C479 1.353 . S
C481 N483 1.314 . S
C481 H522 0.930 . S
C482 C480 1.358 . S
C482 N483 1.279 . S
C482 H523 0.930 . S
N483 C481 1.314 . S
N483 C482 1.279 . S
C484 C486 1.353 . S
C484 N487 1.314 . S
C484 H490 0.930 . S
C485 N487 1.279 . S
C485 C488 1.358 . S
C485 H491 0.930 . S
C486 C484 1.353 . S
C486 C489 1.348 . S
C486 H524 0.929 . S
N487 Li442 1.990 . S
N487 C484 1.314 . S
N487 C485 1.279 . S
C488 C485 1.358 . S
C488 C489 1.356 . S
C488 H525 0.930 . S
C489 C486 1.348 . S
C489 C488 1.356 . S
H490 C484 0.930 . S
H491 C485 0.930 . S
C492 N493 1.314 . S
C492 C494 1.353 . S
C492 H498 0.930 . S
N493 Li443 1.990 . S
N493 C492 1.314 . S
N493 C496 1.279 . S
C494 C492 1.353 . S
C494 C497 1.348 . S
C494 H526 0.929 . S
C495 C496 1.358 . S
C495 C497 1.356 . S
C495 H527 0.930 . S
C496 N493 1.279 . S
C496 C495 1.358 . S
C496 H499 0.930 . S
C497 C494 1.348 . S
C497 C495 1.356 . S
H498 C492 0.930 . S
H499 C496 0.930 . S
O500 Li440 1.956 . S
O500 Li441 1.970 1_565 S
O500 Li442 1.961 . S
O500 C444 1.325 . S
O501 Li440 1.970 1_545 S
O501 Li441 1.956 . S
O501 Li443 1.961 . S
O501 C450 1.325 . S
O502 Li440 1.961 . S
O502 Li442 1.956 . S
O502 Li443 1.970 1_565 S
O502 C472 1.325 . S
O503 Li441 1.961 . S
O503 Li442 1.970 1_545 S
O503 Li443 1.956 . S
O503 C478 1.325 . S
H504 C446 0.929 . S
H505 C447 0.930 . S
H506 C448 0.930 . S
H507 C449 0.930 . S
H508 C451 0.930 . S
H509 C453 0.929 . S
H510 C454 0.930 . S
H511 C455 0.881 1_565 S
H512 C458 0.930 . S
H513 C461 0.929 . S
H514 C466 0.929 . S
H515 C467 0.930 . S
H516 C474 0.929 . S
H517 C475 0.930 . S
H518 C476 0.893 1_545 S
H519 C477 0.930 . S
H520 C479 0.929 . S
H521 C480 0.930 . S
H522 C481 0.930 . S
H523 C482 0.930 . S
H524 C486 0.929 . S
H525 C488 0.930 . S
H526 C494 0.929 . S
H527 C495 0.930 . S
Li528 N545 1.990 . S
Li528 O588 1.956 . S
Li528 O589 1.970 . S
Li528 O590 1.961 . S
Li529 N553 1.990 . S
Li529 O588 1.970 . S
Li529 O589 1.956 . S
Li529 O591 1.961 . S
Li530 N575 1.990 . S
Li530 O588 1.961 . S
Li530 O590 1.956 . S
Li530 O591 1.970 . S
Li531 N581 1.990 . S
Li531 O589 1.961 . S
Li531 O590 1.970 . S
Li531 O591 1.956 . S
C532 C534 1.348 . S
C532 C535 1.356 . S
C532 O588 1.325 . S
N533 C536 1.314 . S
N533 C537 1.279 . S
C534 C532 1.348 . S
C534 C536 1.353 . S
C534 H592 0.929 . S
C535 C532 1.356 . S
C535 C537 1.358 . S
C535 H593 0.930 . S
C536 N533 1.314 . S
C536 C534 1.353 . S
C536 H594 0.930 . S
C537 N533 1.279 . S
C537 C535 1.358 . S
C537 H595 0.930 . S
C538 C541 1.348 . S
C538 C542 1.356 . S
C538 O589 1.325 . S
C539 N540 1.279 . S
C539 C542 1.358 . S
C539 H596 0.930 . S
N540 C539 1.279 . S
N540 C543 1.314 . S
C541 C538 1.348 . S
C541 C543 1.353 . S
C541 H597 0.929 . S
C542 C538 1.356 . S
C542 C539 1.358 . S
C542 H598 0.930 . S
C543 N540 1.314 . S
C543 C541 1.353 . S
C543 H599 0.930 . S
C544 N545 1.314 . S
C544 C549 1.353 . S
C544 H550 0.930 . S
N545 Li528 1.990 . S
N545 C544 1.314 . S
N545 C547 1.279 . S
C546 C547 1.358 . S
C546 C548 1.356 . S
C546 H600 0.930 . S
C547 N545 1.279 . S
C547 C546 1.358 . S
C547 H551 0.930 . S
C548 C546 1.356 . S
C548 C549 1.348 . S
C549 C544 1.353 . S
C549 C548 1.348 . S
C549 H601 0.929 . S
H550 C544 0.930 . S
H551 C547 0.930 . S
C552 N553 1.314 . S
C552 C554 1.353 . S
C552 H558 0.930 . S
N553 Li529 1.990 . S
N553 C552 1.314 . S
N553 C556 1.279 . S
C554 C552 1.353 . S
C554 C557 1.348 . S
C554 H602 0.929 . S
C555 C556 1.358 . S
C555 C557 1.356 . S
C555 H603 0.930 . S
C556 N553 1.279 . S
C556 C555 1.358 . S
C556 H559 0.930 . S
C557 C554 1.348 . S
C557 C555 1.356 . S
H558 C552 0.930 . S
H559 C556 0.930 . S
C560 C562 1.348 . S
C560 C563 1.356 . S
C560 O590 1.325 . S
N561 C564 1.314 . S
N561 C565 1.279 . S
C562 C560 1.348 . S
C562 C564 1.353 . S
C562 H604 0.929 . S
C563 C560 1.356 . S
C563 C565 1.358 . S
C563 H605 0.930 . S
C564 N561 1.314 . S
C564 C562 1.353 . S
C564 H606 0.930 . S
C565 N561 1.279 . S
C565 C563 1.358 . S
C565 H607 0.930 . S
C566 C567 1.348 . S
C566 C568 1.356 . S
C566 O591 1.325 . S
C567 C566 1.348 . S
C567 C569 1.353 . S
C567 H608 0.929 . S
C568 C566 1.356 . S
C568 C570 1.358 . S
C568 H609 0.930 . S
C569 C567 1.353 . S
C569 N571 1.314 . S
C569 H610 0.930 . S
C570 C568 1.358 . S
C570 N571 1.279 . S
C570 H611 0.930 . S
N571 C569 1.314 . S
N571 C570 1.279 . S
C572 C574 1.353 . S
C572 N575 1.314 . S
C572 H578 0.930 . S
C573 N575 1.279 . S
C573 C576 1.358 . S
C573 H579 0.930 . S
C574 C572 1.353 . S
C574 C577 1.348 . S
C574 H612 0.929 . S
N575 Li530 1.990 . S
N575 C572 1.314 . S
N575 C573 1.279 . S
C576 C573 1.358 . S
C576 C577 1.356 . S
C576 H613 0.930 . S
C577 C574 1.348 . S
C577 C576 1.356 . S
H578 C572 0.930 . S
H579 C573 0.930 . S
C580 N581 1.314 . S
C580 C582 1.353 . S
C580 H586 0.930 . S
N581 Li531 1.990 . S
N581 C580 1.314 . S
N581 C584 1.279 . S
C582 C580 1.353 . S
C582 C585 1.348 . S
C582 H614 0.929 . S
C583 C584 1.358 . S
C583 C585 1.356 . S
C583 H615 0.930 . S
C584 N581 1.279 . S
C584 C583 1.358 . S
C584 H587 0.930 . S
C585 C582 1.348 . S
C585 C583 1.356 . S
H586 C580 0.930 . S
H587 C584 0.930 . S
O588 Li528 1.956 . S
O588 Li529 1.970 . S
O588 Li530 1.961 . S
O588 C532 1.325 . S
O589 Li528 1.970 . S
O589 Li529 1.956 . S
O589 Li531 1.961 . S
O589 C538 1.325 . S
O590 Li528 1.961 . S
O590 Li530 1.956 . S
O590 Li531 1.970 . S
O590 C560 1.325 . S
O591 Li529 1.961 . S
O591 Li530 1.970 . S
O591 Li531 1.956 . S
O591 C566 1.325 . S
H592 C534 0.929 . S
H593 C535 0.930 . S
H594 C536 0.930 . S
H595 C537 0.930 . S
H596 C539 0.930 . S
H597 C541 0.929 . S
H598 C542 0.930 . S
H599 C543 0.930 . S
H600 C546 0.930 . S
H601 C549 0.929 . S
H602 C554 0.929 . S
H603 C555 0.930 . S
H604 C562 0.929 . S
H605 C563 0.930 . S
H606 C564 0.930 . S
H607 C565 0.930 . S
H608 C567 0.929 . S
H609 C568 0.930 . S
H610 C569 0.930 . S
H611 C570 0.930 . S
H612 C574 0.929 . S
H613 C576 0.930 . S
H614 C582 0.929 . S
H615 C583 0.930 . S
Li616 N633 1.990 . S
Li616 O676 1.956 . S
Li616 O677 1.970 1_545 S
Li616 O678 1.961 . S
Li617 N641 1.990 . S
Li617 O676 1.970 1_565 S
Li617 O677 1.956 . S
Li617 O679 1.961 . S
Li618 N663 1.990 . S
Li618 O676 1.961 . S
Li618 O678 1.956 . S
Li618 O679 1.970 1_545 S
Li619 N669 1.990 . S
Li619 O677 1.961 . S
Li619 O678 1.970 1_565 S
Li619 O679 1.956 . S
C620 C622 1.348 . S
C620 C623 1.356 . S
C620 O676 1.325 . S
N621 C624 1.314 . S
N621 C625 1.279 . S
C622 C620 1.348 . S
C622 C624 1.353 . S
C622 H680 0.929 . S
C623 C620 1.356 . S
C623 C625 1.358 . S
C623 H681 0.930 . S
C624 N621 1.314 . S
C624 C622 1.353 . S
C624 H682 0.930 . S
C625 N621 1.279 . S
C625 C623 1.358 . S
C625 H683 0.930 . S
C626 C629 1.348 1_565 S
C626 C630 1.356 . S
C626 O677 1.325 . S
C627 N628 1.279 . S
C627 C630 1.358 . S
C627 H684 0.930 . S
N628 C627 1.279 . S
N628 C631 1.362 . S
C629 C626 1.348 1_545 S
C629 C631 1.340 1_545 S
C629 H685 0.929 . S
C630 C626 1.356 . S
C630 C627 1.358 . S
C630 H686 0.930 . S
C631 N628 1.362 . S
C631 C629 1.340 1_565 S
C631 H687 0.893 1_565 S
C632 N633 1.314 . S
C632 C637 1.353 . S
C632 H638 0.930 . S
N633 Li616 1.990 . S
N633 C632 1.314 . S
N633 C635 1.279 . S
C634 C635 1.358 . S
C634 C636 1.356 . S
C634 H688 0.930 . S
C635 N633 1.279 . S
C635 C634 1.358 . S
C635 H639 0.930 . S
C636 C634 1.356 . S
C636 C637 1.348 . S
C637 C632 1.353 . S
C637 C636 1.348 . S
C637 H689 0.929 . S
H638 C632 0.930 . S
H639 C635 0.930 . S
C640 N641 1.314 . S
C640 C642 1.353 . S
C640 H646 0.930 . S
N641 Li617 1.990 . S
N641 C640 1.314 . S
N641 C644 1.279 . S
C642 C640 1.353 . S
C642 C645 1.348 . S
C642 H690 0.929 . S
C643 C644 1.358 . S
C643 C645 1.356 . S
C643 H691 0.930 . S
C644 N641 1.279 . S
C644 C643 1.358 . S
C644 H647 0.930 . S
C645 C642 1.348 . S
C645 C643 1.356 . S
H646 C640 0.930 . S
H647 C644 0.930 . S
C648 C650 1.348 1_545 S
C648 C651 1.356 . S
C648 O678 1.325 . S
N649 C652 1.378 . S
N649 C653 1.279 . S
C650 C648 1.348 1_565 S
C650 C652 1.336 1_565 S
C650 H692 0.929 . S
C651 C648 1.356 . S
C651 C653 1.358 . S
C651 H693 0.930 . S
C652 N649 1.378 . S
C652 C650 1.336 1_545 S
C652 H694 0.881 1_545 S
C653 N649 1.279 . S
C653 C651 1.358 . S
C653 H695 0.930 . S
C654 C655 1.348 . S
C654 C656 1.356 . S
C654 O679 1.325 . S
C655 C654 1.348 . S
C655 C657 1.353 . S
C655 H696 0.929 . S
C656 C654 1.356 . S
C656 C658 1.358 . S
C656 H697 0.930 . S
C657 C655 1.353 . S
C657 N659 1.314 . S
C657 H698 0.930 . S
C658 C656 1.358 . S
C658 N659 1.279 . S
C658 H699 0.930 . S
N659 C657 1.314 . S
N659 C658 1.279 . S
C660 C662 1.353 . S
C660 N663 1.314 . S
C660 H666 0.930 . S
C661 N663 1.279 . S
C661 C664 1.358 . S
C661 H667 0.930 . S
C662 C660 1.353 . S
C662 C665 1.348 . S
C662 H700 0.929 . S
N663 Li618 1.990 . S
N663 C660 1.314 . S
N663 C661 1.279 . S
C664 C661 1.358 . S
C664 C665 1.356 . S
C664 H701 0.930 . S
C665 C662 1.348 . S
C665 C664 1.356 . S
H666 C660 0.930 . S
H667 C661 0.930 . S
C668 N669 1.314 . S
C668 C670 1.353 . S
C668 H674 0.930 . S
N669 Li619 1.990 . S
N669 C668 1.314 . S
N669 C672 1.279 . S
C670 C668 1.353 . S
C670 C673 1.348 . S
C670 H702 0.929 . S
C671 C672 1.358 . S
C671 C673 1.356 . S
C671 H703 0.930 . S
C672 N669 1.279 . S
C672 C671 1.358 . S
C672 H675 0.930 . S
C673 C670 1.348 . S
C673 C671 1.356 . S
H674 C668 0.930 . S
H675 C672 0.930 . S
O676 Li616 1.956 . S
O676 Li617 1.970 1_545 S
O676 Li618 1.961 . S
O676 C620 1.325 . S
O677 Li616 1.970 1_565 S
O677 Li617 1.956 . S
O677 Li619 1.961 . S
O677 C626 1.325 . S
O678 Li616 1.961 . S
O678 Li618 1.956 . S
O678 Li619 1.970 1_545 S
O678 C648 1.325 . S
O679 Li617 1.961 . S
O679 Li618 1.970 1_565 S
O679 Li619 1.956 . S
O679 C654 1.325 . S
H680 C622 0.929 . S
H681 C623 0.930 . S
H682 C624 0.930 . S
H683 C625 0.930 . S
H684 C627 0.930 . S
H685 C629 0.929 . S
H686 C630 0.930 . S
H687 C631 0.893 1_545 S
H688 C634 0.930 . S
H689 C637 0.929 . S
H690 C642 0.929 . S
H691 C643 0.930 . S
H692 C650 0.929 . S
H693 C651 0.930 . S
H694 C652 0.881 1_565 S
H695 C653 0.930 . S
H696 C655 0.929 . S
H697 C656 0.930 . S
H698 C657 0.930 . S
H699 C658 0.930 . S
H700 C662 0.929 . S
H701 C664 0.930 . S
H702 C670 0.929 . S
H703 C671 0.930 . S
Li704 N721 1.990 . S
Li704 O764 1.956 . S
Li704 O765 1.970 . S
Li704 O766 1.961 . S
Li705 N729 1.990 . S
Li705 O764 1.970 . S
Li705 O765 1.956 . S
Li705 O767 1.961 . S
Li706 N751 1.990 . S
Li706 O764 1.961 . S
Li706 O766 1.956 . S
Li706 O767 1.970 . S
Li707 N757 1.990 . S
Li707 O765 1.961 . S
Li707 O766 1.970 . S
Li707 O767 1.956 . S
C708 C710 1.348 . S
C708 C711 1.356 . S
C708 O764 1.325 . S
N709 C712 1.314 . S
N709 C713 1.279 . S
C710 C708 1.348 . S
C710 C712 1.353 . S
C710 H768 0.929 . S
C711 C708 1.356 . S
C711 C713 1.358 . S
C711 H769 0.930 . S
C712 N709 1.314 . S
C712 C710 1.353 . S
C712 H770 0.930 . S
C713 N709 1.279 . S
C713 C711 1.358 . S
C713 H771 0.930 . S
C714 C717 1.348 . S
C714 C718 1.356 . S
C714 O765 1.325 . S
C715 N716 1.279 . S
C715 C718 1.358 . S
C715 H772 0.930 . S
N716 C715 1.279 . S
N716 C719 1.314 . S
C717 C714 1.348 . S
C717 C719 1.353 . S
C717 H773 0.929 . S
C718 C714 1.356 . S
C718 C715 1.358 . S
C718 H774 0.930 . S
C719 N716 1.314 . S
C719 C717 1.353 . S
C719 H775 0.930 . S
C720 N721 1.314 . S
C720 C725 1.353 . S
C720 H726 0.930 . S
N721 Li704 1.990 . S
N721 C720 1.314 . S
N721 C723 1.279 . S
C722 C723 1.358 . S
C722 C724 1.356 . S
C722 H776 0.930 . S
C723 N721 1.279 . S
C723 C722 1.358 . S
C723 H727 0.930 . S
C724 C722 1.356 . S
C724 C725 1.348 . S
C725 C720 1.353 . S
C725 C724 1.348 . S
C725 H777 0.929 . S
H726 C720 0.930 . S
H727 C723 0.930 . S
C728 N729 1.314 . S
C728 C730 1.353 . S
C728 H734 0.930 . S
N729 Li705 1.990 . S
N729 C728 1.314 . S
N729 C732 1.279 . S
C730 C728 1.353 . S
C730 C733 1.348 . S
C730 H778 0.929 . S
C731 C732 1.358 . S
C731 C733 1.356 . S
C731 H779 0.930 . S
C732 N729 1.279 . S
C732 C731 1.358 . S
C732 H735 0.930 . S
C733 C730 1.348 . S
C733 C731 1.356 . S
H734 C728 0.930 . S
H735 C732 0.930 . S
C736 C738 1.348 . S
C736 C739 1.356 . S
C736 O766 1.325 . S
N737 C740 1.314 . S
N737 C741 1.279 . S
C738 C736 1.348 . S
C738 C740 1.353 . S
C738 H780 0.929 . S
C739 C736 1.356 . S
C739 C741 1.358 . S
C739 H781 0.930 . S
C740 N737 1.314 . S
C740 C738 1.353 . S
C740 H782 0.930 . S
C741 N737 1.279 . S
C741 C739 1.358 . S
C741 H783 0.930 . S
C742 C743 1.348 . S
C742 C744 1.356 . S
C742 O767 1.325 . S
C743 C742 1.348 . S
C743 C745 1.353 . S
C743 H784 0.929 . S
C744 C742 1.356 . S
C744 C746 1.358 . S
C744 H785 0.930 . S
C745 C743 1.353 . S
C745 N747 1.314 . S
C745 H786 0.930 . S
C746 C744 1.358 . S
C746 N747 1.279 . S
C746 H787 0.930 . S
N747 C745 1.314 . S
N747 C746 1.279 . S
C748 C750 1.353 . S
C748 N751 1.314 . S
C748 H754 0.930 . S
C749 N751 1.279 . S
C749 C752 1.358 . S
C749 H755 0.930 . S
C750 C748 1.353 . S
C750 C753 1.348 . S
C750 H788 0.929 . S
N751 Li706 1.990 . S
N751 C748 1.314 . S
N751 C749 1.279 . S
C752 C749 1.358 . S
C752 C753 1.356 . S
C752 H789 0.930 . S
C753 C750 1.348 . S
C753 C752 1.356 . S
H754 C748 0.930 . S
H755 C749 0.930 . S
C756 N757 1.314 . S
C756 C758 1.353 . S
C756 H762 0.930 . S
N757 Li707 1.990 . S
N757 C756 1.314 . S
N757 C760 1.279 . S
C758 C756 1.353 . S
C758 C761 1.348 . S
C758 H790 0.929 . S
C759 C760 1.358 . S
C759 C761 1.356 . S
C759 H791 0.930 . S
C760 N757 1.279 . S
C760 C759 1.358 . S
C760 H763 0.930 . S
C761 C758 1.348 . S
C761 C759 1.356 . S
H762 C756 0.930 . S
H763 C760 0.930 . S
O764 Li704 1.956 . S
O764 Li705 1.970 . S
O764 Li706 1.961 . S
O764 C708 1.325 . S
O765 Li704 1.970 . S
O765 Li705 1.956 . S
O765 Li707 1.961 . S
O765 C714 1.325 . S
O766 Li704 1.961 . S
O766 Li706 1.956 . S
O766 Li707 1.970 . S
O766 C736 1.325 . S
O767 Li705 1.961 . S
O767 Li706 1.970 . S
O767 Li707 1.956 . S
O767 C742 1.325 . S
H768 C710 0.929 . S
H769 C711 0.930 . S
H770 C712 0.930 . S
H771 C713 0.930 . S
H772 C715 0.930 . S
H773 C717 0.929 . S
H774 C718 0.930 . S
H775 C719 0.930 . S
H776 C722 0.930 . S
H777 C725 0.929 . S
H778 C730 0.929 . S
H779 C731 0.930 . S
H780 C738 0.929 . S
H781 C739 0.930 . S
H782 C740 0.930 . S
H783 C741 0.930 . S
H784 C743 0.929 . S
H785 C744 0.930 . S
H786 C745 0.930 . S
H787 C746 0.930 . S
H788 C750 0.929 . S
H789 C752 0.930 . S
H790 C758 0.929 . S
H791 C759 0.930 . S
Li792 N809 1.990 . S
Li792 O852 1.956 . S
Li792 O853 1.970 . S
Li792 O854 1.961 . S
Li793 N817 1.990 . S
Li793 O852 1.970 . S
Li793 O853 1.956 . S
Li793 O855 1.961 . S
Li794 N839 1.990 . S
Li794 O852 1.961 . S
Li794 O854 1.956 . S
Li794 O855 1.970 . S
Li795 N845 1.990 . S
Li795 O853 1.961 . S
Li795 O854 1.970 . S
Li795 O855 1.956 . S
C796 C798 1.348 . S
C796 C799 1.356 . S
C796 O852 1.325 . S
N797 C800 1.314 . S
N797 C801 1.279 . S
C798 C796 1.348 . S
C798 C800 1.353 . S
C798 H856 0.929 . S
C799 C796 1.356 . S
C799 C801 1.358 . S
C799 H857 0.930 . S
C800 N797 1.314 . S
C800 C798 1.353 . S
C800 H858 0.930 . S
C801 N797 1.279 . S
C801 C799 1.358 . S
C801 H859 0.930 . S
C802 C805 1.348 . S
C802 C806 1.356 . S
C802 O853 1.325 . S
C803 N804 1.279 . S
C803 C806 1.358 . S
C803 H860 0.930 . S
N804 C803 1.279 . S
N804 C807 1.314 . S
C805 C802 1.348 . S
C805 C807 1.353 . S
C805 H861 0.929 . S
C806 C802 1.356 . S
C806 C803 1.358 . S
C806 H862 0.930 . S
C807 N804 1.314 . S
C807 C805 1.353 . S
C807 H863 0.930 . S
C808 N809 1.314 . S
C808 C813 1.353 . S
C808 H814 0.930 . S
N809 Li792 1.990 . S
N809 C808 1.314 . S
N809 C811 1.279 . S
C810 C811 1.358 . S
C810 C812 1.356 . S
C810 H864 0.930 . S
C811 N809 1.279 . S
C811 C810 1.358 . S
C811 H815 0.930 . S
C812 C810 1.356 . S
C812 C813 1.348 . S
C813 C808 1.353 . S
C813 C812 1.348 . S
C813 H865 0.929 . S
H814 C808 0.930 . S
H815 C811 0.930 . S
C816 N817 1.314 . S
C816 C818 1.353 . S
C816 H822 0.930 . S
N817 Li793 1.990 . S
N817 C816 1.314 . S
N817 C820 1.279 . S
C818 C816 1.353 . S
C818 C821 1.348 . S
C818 H866 0.929 . S
C819 C820 1.358 . S
C819 C821 1.356 . S
C819 H867 0.930 . S
C820 N817 1.279 . S
C820 C819 1.358 . S
C820 H823 0.930 . S
C821 C818 1.348 . S
C821 C819 1.356 . S
H822 C816 0.930 . S
H823 C820 0.930 . S
C824 C826 1.348 . S
C824 C827 1.356 . S
C824 O854 1.325 . S
N825 C828 1.314 . S
N825 C829 1.279 . S
C826 C824 1.348 . S
C826 C828 1.353 . S
C826 H868 0.929 . S
C827 C824 1.356 . S
C827 C829 1.358 . S
C827 H869 0.930 . S
C828 N825 1.314 . S
C828 C826 1.353 . S
C828 H870 0.930 . S
C829 N825 1.279 . S
C829 C827 1.358 . S
C829 H871 0.930 . S
C830 C831 1.348 . S
C830 C832 1.356 . S
C830 O855 1.325 . S
C831 C830 1.348 . S
C831 C833 1.353 . S
C831 H872 0.929 . S
C832 C830 1.356 . S
C832 C834 1.358 . S
C832 H873 0.930 . S
C833 C831 1.353 . S
C833 N835 1.314 . S
C833 H874 0.930 . S
C834 C832 1.358 . S
C834 N835 1.279 . S
C834 H875 0.930 . S
N835 C833 1.314 . S
N835 C834 1.279 . S
C836 C838 1.353 . S
C836 N839 1.314 . S
C836 H842 0.930 . S
C837 N839 1.279 . S
C837 C840 1.358 . S
C837 H843 0.930 . S
C838 C836 1.353 . S
C838 C841 1.348 . S
C838 H876 0.929 . S
N839 Li794 1.990 . S
N839 C836 1.314 . S
N839 C837 1.279 . S
C840 C837 1.358 . S
C840 C841 1.356 . S
C840 H877 0.930 . S
C841 C838 1.348 . S
C841 C840 1.356 . S
H842 C836 0.930 . S
H843 C837 0.930 . S
C844 N845 1.314 . S
C844 C846 1.353 . S
C844 H850 0.930 . S
N845 Li795 1.990 . S
N845 C844 1.314 . S
N845 C848 1.279 . S
C846 C844 1.353 . S
C846 C849 1.348 . S
C846 H878 0.929 . S
C847 C848 1.358 . S
C847 C849 1.356 . S
C847 H879 0.930 . S
C848 N845 1.279 . S
C848 C847 1.358 . S
C848 H851 0.930 . S
C849 C846 1.348 . S
C849 C847 1.356 . S
H850 C844 0.930 . S
H851 C848 0.930 . S
O852 Li792 1.956 . S
O852 Li793 1.970 . S
O852 Li794 1.961 . S
O852 C796 1.325 . S
O853 Li792 1.970 . S
O853 Li793 1.956 . S
O853 Li795 1.961 . S
O853 C802 1.325 . S
O854 Li792 1.961 . S
O854 Li794 1.956 . S
O854 Li795 1.970 . S
O854 C824 1.325 . S
O855 Li793 1.961 . S
O855 Li794 1.970 . S
O855 Li795 1.956 . S
O855 C830 1.325 . S
H856 C798 0.929 . S
H857 C799 0.930 . S
H858 C800 0.930 . S
H859 C801 0.930 . S
H860 C803 0.930 . S
H861 C805 0.929 . S
H862 C806 0.930 . S
H863 C807 0.930 . S
H864 C810 0.930 . S
H865 C813 0.929 . S
H866 C818 0.929 . S
H867 C819 0.930 . S
H868 C826 0.929 . S
H869 C827 0.930 . S
H870 C828 0.930 . S
H871 C829 0.930 . S
H872 C831 0.929 . S
H873 C832 0.930 . S
H874 C833 0.930 . S
H875 C834 0.930 . S
H876 C838 0.929 . S
H877 C840 0.930 . S
H878 C846 0.929 . S
H879 C847 0.930 . S
Li880 N897 1.990 . S
Li880 O940 1.956 1_556 S
Li880 O941 1.970 . S
Li880 O942 1.961 . S
Li881 N905 1.990 . S
Li881 O940 1.970 . S
Li881 O941 1.956 1_554 S
Li881 O943 1.961 . S
Li882 N927 1.990 . S
Li882 O940 1.961 . S
Li882 O942 1.956 1_554 S
Li882 O943 1.970 . S
Li883 N933 1.990 . S
Li883 O941 1.961 . S
Li883 O942 1.970 . S
Li883 O943 1.956 1_556 S
C884 C886 1.348 . S
C884 C887 1.356 . S
C884 O940 1.325 . S
N885 C888 1.314 . S
N885 C889 1.279 . S
C886 C884 1.348 . S
C886 C888 1.353 . S
C886 H944 0.929 . S
C887 C884 1.356 . S
C887 C889 1.358 . S
C887 H945 0.930 1_554 S
C888 N885 1.314 . S
C888 C886 1.353 . S
C888 H946 0.930 . S
C889 N885 1.279 . S
C889 C887 1.358 . S
C889 H947 0.930 1_554 S
C890 C893 1.348 . S
C890 C894 1.356 . S
C890 O941 1.325 . S
C891 N892 1.279 . S
C891 C894 1.358 . S
C891 H948 0.930 1_556 S
N892 C891 1.279 . S
N892 C895 1.314 . S
C893 C890 1.348 . S
C893 C895 1.353 . S
C893 H949 0.929 . S
C894 C890 1.356 . S
C894 C891 1.358 . S
C894 H950 0.930 1_556 S
C895 N892 1.314 . S
C895 C893 1.353 . S
C895 H951 0.930 . S
C896 N897 1.314 . S
C896 C901 1.353 . S
C896 H902 0.930 . S
N897 Li880 1.990 . S
N897 C896 1.314 . S
N897 C899 1.279 . S
C898 C899 1.358 . S
C898 C900 1.356 . S
C898 H952 0.930 . S
C899 N897 1.279 . S
C899 C898 1.358 . S
C899 H903 0.930 . S
C900 C898 1.356 . S
C900 C901 1.348 . S
C901 C896 1.353 . S
C901 C900 1.348 . S
C901 H953 0.929 . S
H902 C896 0.930 . S
H903 C899 0.930 . S
C904 N905 1.314 . S
C904 C906 1.353 . S
C904 H910 0.930 . S
N905 Li881 1.990 . S
N905 C904 1.314 . S
N905 C908 1.279 . S
C906 C904 1.353 . S
C906 C909 1.348 . S
C906 H954 0.929 . S
C907 C908 1.358 . S
C907 C909 1.356 . S
C907 H955 0.930 . S
C908 N905 1.279 . S
C908 C907 1.358 . S
C908 H911 0.930 . S
C909 C906 1.348 . S
C909 C907 1.356 . S
H910 C904 0.930 . S
H911 C908 0.930 . S
C912 C914 1.348 . S
C912 C915 1.356 . S
C912 O942 1.325 . S
N913 C916 1.314 . S
N913 C917 1.279 . S
C914 C912 1.348 . S
C914 C916 1.353 . S
C914 H956 0.929 . S
C915 C912 1.356 . S
C915 C917 1.358 . S
C915 H957 0.930 . S
C916 N913 1.314 . S
C916 C914 1.353 . S
C916 H958 0.930 . S
C917 N913 1.279 . S
C917 C915 1.358 . S
C917 H959 0.930 . S
C918 C919 1.348 . S
C918 C920 1.356 . S
C918 O943 1.325 . S
C919 C918 1.348 . S
C919 C921 1.353 . S
C919 H960 0.929 . S
C920 C918 1.356 . S
C920 C922 1.358 . S
C920 H961 0.930 . S
C921 C919 1.353 . S
C921 N923 1.314 . S
C921 H962 0.930 . S
C922 C920 1.358 . S
C922 N923 1.279 . S
C922 H963 0.930 . S
N923 C921 1.314 . S
N923 C922 1.279 . S
C924 C926 1.353 . S
C924 N927 1.314 . S
C924 H930 0.930 . S
C925 N927 1.279 1_556 S
C925 C928 1.358 1_556 S
C925 H931 0.930 . S
C926 C924 1.353 . S
C926 C929 1.348 . S
C926 H964 0.929 . S
N927 Li882 1.990 . S
N927 C924 1.314 . S
N927 C925 1.279 1_554 S
C928 C925 1.358 1_554 S
C928 C929 1.356 . S
C928 H965 0.930 1_554 S
C929 C926 1.348 . S
C929 C928 1.356 . S
H930 C924 0.930 . S
H931 C925 0.930 . S
C932 N933 1.314 . S
C932 C934 1.353 . S
C932 H938 0.930 . S
N933 Li883 1.990 . S
N933 C932 1.314 . S
N933 C936 1.279 1_556 S
C934 C932 1.353 . S
C934 C937 1.348 . S
C934 H966 0.929 . S
C935 C936 1.358 1_556 S
C935 C937 1.356 . S
C935 H967 0.930 1_556 S
C936 N933 1.279 1_554 S
C936 C935 1.358 1_554 S
C936 H939 0.930 . S
C937 C934 1.348 . S
C937 C935 1.356 . S
H938 C932 0.930 . S
H939 C936 0.930 . S
O940 Li880 1.956 1_554 S
O940 Li881 1.970 . S
O940 Li882 1.961 . S
O940 C884 1.325 . S
O941 Li880 1.970 . S
O941 Li881 1.956 1_556 S
O941 Li883 1.961 . S
O941 C890 1.325 . S
O942 Li880 1.961 . S
O942 Li882 1.956 1_556 S
O942 Li883 1.970 . S
O942 C912 1.325 . S
O943 Li881 1.961 . S
O943 Li882 1.970 . S
O943 Li883 1.956 1_554 S
O943 C918 1.325 . S
H944 C886 0.929 . S
H945 C887 0.930 1_556 S
H946 C888 0.930 . S
H947 C889 0.930 1_556 S
H948 C891 0.930 1_554 S
H949 C893 0.929 . S
H950 C894 0.930 1_554 S
H951 C895 0.930 . S
H952 C898 0.930 . S
H953 C901 0.929 . S
H954 C906 0.929 . S
H955 C907 0.930 . S
H956 C914 0.929 . S
H957 C915 0.930 . S
H958 C916 0.930 . S
H959 C917 0.930 . S
H960 C919 0.929 . S
H961 C920 0.930 . S
H962 C921 0.930 . S
H963 C922 0.930 . S
H964 C926 0.929 . S
H965 C928 0.930 1_556 S
H966 C934 0.929 . S
H967 C935 0.930 1_554 S
Li968 N985 1.990 . S
Li968 O1028 1.956 . S
Li968 O1029 1.970 . S
Li968 O1030 1.961 . S
Li969 N993 1.990 . S
Li969 O1028 1.970 . S
Li969 O1029 1.956 . S
Li969 O1031 1.961 . S
Li970 N1015 1.990 . S
Li970 O1028 1.961 . S
Li970 O1030 1.956 . S
Li970 O1031 1.970 . S
Li971 N1021 1.990 . S
Li971 O1029 1.961 . S
Li971 O1030 1.970 . S
Li971 O1031 1.956 . S
C972 C974 1.348 . S
C972 C975 1.356 . S
C972 O1028 1.325 . S
N973 C976 1.314 . S
N973 C977 1.279 . S
C974 C972 1.348 . S
C974 C976 1.353 . S
C974 H1032 0.929 . S
C975 C972 1.356 . S
C975 C977 1.358 . S
C975 H1033 0.930 . S
C976 N973 1.314 . S
C976 C974 1.353 . S
C976 H1034 0.930 . S
C977 N973 1.279 . S
C977 C975 1.358 . S
C977 H1035 0.930 . S
C978 C981 1.348 . S
C978 C982 1.356 . S
C978 O1029 1.325 . S
C979 N980 1.279 . S
C979 C982 1.358 . S
C979 H1036 0.930 . S
N980 C979 1.279 . S
N980 C983 1.314 . S
C981 C978 1.348 . S
C981 C983 1.353 . S
C981 H1037 0.929 . S
C982 C978 1.356 . S
C982 C979 1.358 . S
C982 H1038 0.930 . S
C983 N980 1.314 . S
C983 C981 1.353 . S
C983 H1039 0.930 . S
C984 N985 1.314 . S
C984 C989 1.353 . S
C984 H990 0.930 . S
N985 Li968 1.990 . S
N985 C984 1.314 . S
N985 C987 1.279 . S
C986 C987 1.358 . S
C986 C988 1.356 . S
C986 H1040 0.930 . S
C987 N985 1.279 . S
C987 C986 1.358 . S
C987 H991 0.930 . S
C988 C986 1.356 . S
C988 C989 1.348 . S
C989 C984 1.353 . S
C989 C988 1.348 . S
C989 H1041 0.929 . S
H990 C984 0.930 . S
H991 C987 0.930 . S
C992 N993 1.314 . S
C992 C994 1.353 . S
C992 H998 0.930 . S
N993 Li969 1.990 . S
N993 C992 1.314 . S
N993 C996 1.279 . S
C994 C992 1.353 . S
C994 C997 1.348 . S
C994 H1042 0.929 . S
C995 C996 1.358 . S
C995 C997 1.356 . S
C995 H1043 0.930 . S
C996 N993 1.279 . S
C996 C995 1.358 . S
C996 H999 0.930 . S
C997 C994 1.348 . S
C997 C995 1.356 . S
H998 C992 0.930 . S
H999 C996 0.930 . S
C1000 C1002 1.348 . S
C1000 C1003 1.356 . S
C1000 O1030 1.325 . S
N1001 C1004 1.314 . S
N1001 C1005 1.279 . S
C1002 C1000 1.348 . S
C1002 C1004 1.353 . S
C1002 H1044 0.929 . S
C1003 C1000 1.356 . S
C1003 C1005 1.358 . S
C1003 H1045 0.930 . S
C1004 N1001 1.314 . S
C1004 C1002 1.353 . S
C1004 H1046 0.930 . S
C1005 N1001 1.279 . S
C1005 C1003 1.358 . S
C1005 H1047 0.930 . S
C1006 C1007 1.348 . S
C1006 C1008 1.356 . S
C1006 O1031 1.325 . S
C1007 C1006 1.348 . S
C1007 C1009 1.353 . S
C1007 H1048 0.929 . S
C1008 C1006 1.356 . S
C1008 C1010 1.358 . S
C1008 H1049 0.930 . S
C1009 C1007 1.353 . S
C1009 N1011 1.314 . S
C1009 H1050 0.930 . S
C1010 C1008 1.358 . S
C1010 N1011 1.279 . S
C1010 H1051 0.930 . S
N1011 C1009 1.314 . S
N1011 C1010 1.279 . S
C1012 C1014 1.353 . S
C1012 N1015 1.314 . S
C1012 H1018 0.930 . S
C1013 N1015 1.279 . S
C1013 C1016 1.358 . S
C1013 H1019 0.930 . S
C1014 C1012 1.353 . S
C1014 C1017 1.348 . S
C1014 H1052 0.929 . S
N1015 Li970 1.990 . S
N1015 C1012 1.314 . S
N1015 C1013 1.279 . S
C1016 C1013 1.358 . S
C1016 C1017 1.356 . S
C1016 H1053 0.930 . S
C1017 C1014 1.348 . S
C1017 C1016 1.356 . S
H1018 C1012 0.930 . S
H1019 C1013 0.930 . S
C1020 N1021 1.314 . S
C1020 C1022 1.353 . S
C1020 H1026 0.930 . S
N1021 Li971 1.990 . S
N1021 C1020 1.314 . S
N1021 C1024 1.279 . S
C1022 C1020 1.353 . S
C1022 C1025 1.348 . S
C1022 H1054 0.929 . S
C1023 C1024 1.358 . S
C1023 C1025 1.356 . S
C1023 H1055 0.930 . S
C1024 N1021 1.279 . S
C1024 C1023 1.358 . S
C1024 H1027 0.930 . S
C1025 C1022 1.348 . S
C1025 C1023 1.356 . S
H1026 C1020 0.930 . S
H1027 C1024 0.930 . S
O1028 Li968 1.956 . S
O1028 Li969 1.970 . S
O1028 Li970 1.961 . S
O1028 C972 1.325 . S
O1029 Li968 1.970 . S
O1029 Li969 1.956 . S
O1029 Li971 1.961 . S
O1029 C978 1.325 . S
O1030 Li968 1.961 . S
O1030 Li970 1.956 . S
O1030 Li971 1.970 . S
O1030 C1000 1.325 . S
O1031 Li969 1.961 . S
O1031 Li970 1.970 . S
O1031 Li971 1.956 . S
O1031 C1006 1.325 . S
H1032 C974 0.929 . S
H1033 C975 0.930 . S
H1034 C976 0.930 . S
H1035 C977 0.930 . S
H1036 C979 0.930 . S
H1037 C981 0.929 . S
H1038 C982 0.930 . S
H1039 C983 0.930 . S
H1040 C986 0.930 . S
H1041 C989 0.929 . S
H1042 C994 0.929 . S
H1043 C995 0.930 . S
H1044 C1002 0.929 . S
H1045 C1003 0.930 . S
H1046 C1004 0.930 . S
H1047 C1005 0.930 . S
H1048 C1007 0.929 . S
H1049 C1008 0.930 . S
H1050 C1009 0.930 . S
H1051 C1010 0.930 . S
H1052 C1014 0.929 . S
H1053 C1016 0.930 . S
H1054 C1022 0.929 . S
H1055 C1023 0.930 . S
Li1056 N1073 1.990 . S
Li1056 O1116 1.956 . S
Li1056 O1117 1.970 . S
Li1056 O1118 1.961 . S
Li1057 N1081 1.990 . S
Li1057 O1116 1.970 . S
Li1057 O1117 1.956 . S
Li1057 O1119 1.961 . S
Li1058 N1103 1.990 . S
Li1058 O1116 1.961 . S
Li1058 O1118 1.956 . S
Li1058 O1119 1.970 . S
Li1059 N1109 1.990 . S
Li1059 O1117 1.961 . S
Li1059 O1118 1.970 . S
Li1059 O1119 1.956 . S
C1060 C1062 1.348 . S
C1060 C1063 1.356 . S
C1060 O1116 1.325 . S
N1061 C1064 1.314 . S
N1061 C1065 1.279 . S
C1062 C1060 1.348 . S
C1062 C1064 1.353 . S
C1062 H1120 0.929 . S
C1063 C1060 1.356 . S
C1063 C1065 1.358 . S
C1063 H1121 0.930 . S
C1064 N1061 1.314 . S
C1064 C1062 1.353 . S
C1064 H1122 0.930 . S
C1065 N1061 1.279 . S
C1065 C1063 1.358 . S
C1065 H1123 0.930 . S
C1066 C1069 1.348 . S
C1066 C1070 1.356 . S
C1066 O1117 1.325 . S
C1067 N1068 1.279 . S
C1067 C1070 1.358 . S
C1067 H1124 0.930 . S
N1068 C1067 1.279 . S
N1068 C1071 1.314 . S
C1069 C1066 1.348 . S
C1069 C1071 1.353 . S
C1069 H1125 0.929 . S
C1070 C1066 1.356 . S
C1070 C1067 1.358 . S
C1070 H1126 0.930 . S
C1071 N1068 1.314 . S
C1071 C1069 1.353 . S
C1071 H1127 0.930 . S
C1072 N1073 1.314 . S
C1072 C1077 1.353 . S
C1072 H1078 0.930 . S
N1073 Li1056 1.990 . S
N1073 C1072 1.314 . S
N1073 C1075 1.279 . S
C1074 C1075 1.358 . S
C1074 C1076 1.356 . S
C1074 H1128 0.930 . S
C1075 N1073 1.279 . S
C1075 C1074 1.358 . S
C1075 H1079 0.930 . S
C1076 C1074 1.356 . S
C1076 C1077 1.348 . S
C1077 C1072 1.353 . S
C1077 C1076 1.348 . S
C1077 H1129 0.929 . S
H1078 C1072 0.930 . S
H1079 C1075 0.930 . S
C1080 N1081 1.314 . S
C1080 C1082 1.353 . S
C1080 H1086 0.930 . S
N1081 Li1057 1.990 . S
N1081 C1080 1.314 . S
N1081 C1084 1.279 . S
C1082 C1080 1.353 . S
C1082 C1085 1.348 . S
C1082 H1130 0.929 . S
C1083 C1084 1.358 . S
C1083 C1085 1.356 . S
C1083 H1131 0.930 . S
C1084 N1081 1.279 . S
C1084 C1083 1.358 . S
C1084 H1087 0.930 . S
C1085 C1082 1.348 . S
C1085 C1083 1.356 . S
H1086 C1080 0.930 . S
H1087 C1084 0.930 . S
C1088 C1090 1.348 . S
C1088 C1091 1.356 . S
C1088 O1118 1.325 . S
N1089 C1092 1.314 . S
N1089 C1093 1.279 . S
C1090 C1088 1.348 . S
C1090 C1092 1.353 . S
C1090 H1132 0.929 . S
C1091 C1088 1.356 . S
C1091 C1093 1.358 . S
C1091 H1133 0.930 . S
C1092 N1089 1.314 . S
C1092 C1090 1.353 . S
C1092 H1134 0.930 . S
C1093 N1089 1.279 . S
C1093 C1091 1.358 . S
C1093 H1135 0.930 . S
C1094 C1095 1.348 . S
C1094 C1096 1.356 . S
C1094 O1119 1.325 . S
C1095 C1094 1.348 . S
C1095 C1097 1.353 . S
C1095 H1136 0.929 . S
C1096 C1094 1.356 . S
C1096 C1098 1.358 . S
C1096 H1137 0.930 . S
C1097 C1095 1.353 . S
C1097 N1099 1.314 . S
C1097 H1138 0.930 . S
C1098 C1096 1.358 . S
C1098 N1099 1.279 . S
C1098 H1139 0.930 . S
N1099 C1097 1.314 . S
N1099 C1098 1.279 . S
C1100 C1102 1.353 . S
C1100 N1103 1.314 . S
C1100 H1106 0.930 . S
C1101 N1103 1.279 . S
C1101 C1104 1.358 . S
C1101 H1107 0.930 . S
C1102 C1100 1.353 . S
C1102 C1105 1.348 . S
C1102 H1140 0.929 . S
N1103 Li1058 1.990 . S
N1103 C1100 1.314 . S
N1103 C1101 1.279 . S
C1104 C1101 1.358 . S
C1104 C1105 1.356 . S
C1104 H1141 0.930 . S
C1105 C1102 1.348 . S
C1105 C1104 1.356 . S
H1106 C1100 0.930 . S
H1107 C1101 0.930 . S
C1108 N1109 1.314 . S
C1108 C1110 1.353 . S
C1108 H1114 0.930 . S
N1109 Li1059 1.990 . S
N1109 C1108 1.314 . S
N1109 C1112 1.279 . S
C1110 C1108 1.353 . S
C1110 C1113 1.348 . S
C1110 H1142 0.929 . S
C1111 C1112 1.358 . S
C1111 C1113 1.356 . S
C1111 H1143 0.930 . S
C1112 N1109 1.279 . S
C1112 C1111 1.358 . S
C1112 H1115 0.930 . S
C1113 C1110 1.348 . S
C1113 C1111 1.356 . S
H1114 C1108 0.930 . S
H1115 C1112 0.930 . S
O1116 Li1056 1.956 . S
O1116 Li1057 1.970 . S
O1116 Li1058 1.961 . S
O1116 C1060 1.325 . S
O1117 Li1056 1.970 . S
O1117 Li1057 1.956 . S
O1117 Li1059 1.961 . S
O1117 C1066 1.325 . S
O1118 Li1056 1.961 . S
O1118 Li1058 1.956 . S
O1118 Li1059 1.970 . S
O1118 C1088 1.325 . S
O1119 Li1057 1.961 . S
O1119 Li1058 1.970 . S
O1119 Li1059 1.956 . S
O1119 C1094 1.325 . S
H1120 C1062 0.929 . S
H1121 C1063 0.930 . S
H1122 C1064 0.930 . S
H1123 C1065 0.930 . S
H1124 C1067 0.930 . S
H1125 C1069 0.929 . S
H1126 C1070 0.930 . S
H1127 C1071 0.930 . S
H1128 C1074 0.930 . S
H1129 C1077 0.929 . S
H1130 C1082 0.929 . S
H1131 C1083 0.930 . S
H1132 C1090 0.929 . S
H1133 C1091 0.930 . S
H1134 C1092 0.930 . S
H1135 C1093 0.930 . S
H1136 C1095 0.929 . S
H1137 C1096 0.930 . S
H1138 C1097 0.930 . S
H1139 C1098 0.930 . S
H1140 C1102 0.929 . S
H1141 C1104 0.930 . S
H1142 C1110 0.929 . S
H1143 C1111 0.930 . S
Li1144 N1161 1.990 . S
Li1144 O1204 1.956 . S
Li1144 O1205 1.970 . S
Li1144 O1206 1.961 . S
Li1145 N1169 1.990 . S
Li1145 O1204 1.970 . S
Li1145 O1205 1.956 . S
Li1145 O1207 1.961 . S
Li1146 N1191 1.990 . S
Li1146 O1204 1.961 . S
Li1146 O1206 1.956 . S
Li1146 O1207 1.970 . S
Li1147 N1197 1.990 . S
Li1147 O1205 1.961 . S
Li1147 O1206 1.970 . S
Li1147 O1207 1.956 . S
C1148 C1150 1.348 . S
C1148 C1151 1.356 . S
C1148 O1204 1.325 . S
N1149 C1152 1.314 . S
N1149 C1153 1.279 . S
C1150 C1148 1.348 . S
C1150 C1152 1.353 . S
C1150 H1208 0.929 . S
C1151 C1148 1.356 . S
C1151 C1153 1.358 . S
C1151 H1209 0.930 . S
C1152 N1149 1.314 . S
C1152 C1150 1.353 . S
C1152 H1210 0.930 . S
C1153 N1149 1.279 . S
C1153 C1151 1.358 . S
C1153 H1211 0.930 . S
C1154 C1157 1.348 . S
C1154 C1158 1.356 . S
C1154 O1205 1.325 . S
C1155 N1156 1.279 . S
C1155 C1158 1.358 . S
C1155 H1212 0.930 . S
N1156 C1155 1.279 . S
N1156 C1159 1.314 . S
C1157 C1154 1.348 . S
C1157 C1159 1.353 . S
C1157 H1213 0.929 . S
C1158 C1154 1.356 . S
C1158 C1155 1.358 . S
C1158 H1214 0.930 . S
C1159 N1156 1.314 . S
C1159 C1157 1.353 . S
C1159 H1215 0.930 . S
C1160 N1161 1.314 . S
C1160 C1165 1.353 . S
C1160 H1166 0.930 . S
N1161 Li1144 1.990 . S
N1161 C1160 1.314 . S
N1161 C1163 1.279 . S
C1162 C1163 1.358 . S
C1162 C1164 1.356 . S
C1162 H1216 0.930 . S
C1163 N1161 1.279 . S
C1163 C1162 1.358 . S
C1163 H1167 0.930 . S
C1164 C1162 1.356 . S
C1164 C1165 1.348 . S
C1165 C1160 1.353 . S
C1165 C1164 1.348 . S
C1165 H1217 0.929 . S
H1166 C1160 0.930 . S
H1167 C1163 0.930 . S
C1168 N1169 1.314 . S
C1168 C1170 1.353 . S
C1168 H1174 0.930 . S
N1169 Li1145 1.990 . S
N1169 C1168 1.314 . S
N1169 C1172 1.279 . S
C1170 C1168 1.353 . S
C1170 C1173 1.348 . S
C1170 H1218 0.929 . S
C1171 C1172 1.358 . S
C1171 C1173 1.356 . S
C1171 H1219 0.930 . S
C1172 N1169 1.279 . S
C1172 C1171 1.358 . S
C1172 H1175 0.930 . S
C1173 C1170 1.348 . S
C1173 C1171 1.356 . S
H1174 C1168 0.930 . S
H1175 C1172 0.930 . S
C1176 C1178 1.348 . S
C1176 C1179 1.356 . S
C1176 O1206 1.325 . S
N1177 C1180 1.314 . S
N1177 C1181 1.279 . S
C1178 C1176 1.348 . S
C1178 C1180 1.353 . S
C1178 H1220 0.929 . S
C1179 C1176 1.356 . S
C1179 C1181 1.358 . S
C1179 H1221 0.930 . S
C1180 N1177 1.314 . S
C1180 C1178 1.353 . S
C1180 H1222 0.930 . S
C1181 N1177 1.279 . S
C1181 C1179 1.358 . S
C1181 H1223 0.930 . S
C1182 C1183 1.348 . S
C1182 C1184 1.356 . S
C1182 O1207 1.325 . S
C1183 C1182 1.348 . S
C1183 C1185 1.353 . S
C1183 H1224 0.929 . S
C1184 C1182 1.356 . S
C1184 C1186 1.358 . S
C1184 H1225 0.930 . S
C1185 C1183 1.353 . S
C1185 N1187 1.314 . S
C1185 H1226 0.930 . S
C1186 C1184 1.358 . S
C1186 N1187 1.279 . S
C1186 H1227 0.930 . S
N1187 C1185 1.314 . S
N1187 C1186 1.279 . S
C1188 C1190 1.353 . S
C1188 N1191 1.314 . S
C1188 H1194 0.930 . S
C1189 N1191 1.279 . S
C1189 C1192 1.358 . S
C1189 H1195 0.930 . S
C1190 C1188 1.353 . S
C1190 C1193 1.348 . S
C1190 H1228 0.929 . S
N1191 Li1146 1.990 . S
N1191 C1188 1.314 . S
N1191 C1189 1.279 . S
C1192 C1189 1.358 . S
C1192 C1193 1.356 . S
C1192 H1229 0.930 . S
C1193 C1190 1.348 . S
C1193 C1192 1.356 . S
H1194 C1188 0.930 . S
H1195 C1189 0.930 . S
C1196 N1197 1.314 . S
C1196 C1198 1.353 . S
C1196 H1202 0.930 . S
N1197 Li1147 1.990 . S
N1197 C1196 1.314 . S
N1197 C1200 1.279 . S
C1198 C1196 1.353 . S
C1198 C1201 1.348 . S
C1198 H1230 0.929 . S
C1199 C1200 1.358 . S
C1199 C1201 1.356 . S
C1199 H1231 0.930 . S
C1200 N1197 1.279 . S
C1200 C1199 1.358 . S
C1200 H1203 0.930 . S
C1201 C1198 1.348 . S
C1201 C1199 1.356 . S
H1202 C1196 0.930 . S
H1203 C1200 0.930 . S
O1204 Li1144 1.956 . S
O1204 Li1145 1.970 . S
O1204 Li1146 1.961 . S
O1204 C1148 1.325 . S
O1205 Li1144 1.970 . S
O1205 Li1145 1.956 . S
O1205 Li1147 1.961 . S
O1205 C1154 1.325 . S
O1206 Li1144 1.961 . S
O1206 Li1146 1.956 . S
O1206 Li1147 1.970 . S
O1206 C1176 1.325 . S
O1207 Li1145 1.961 . S
O1207 Li1146 1.970 . S
O1207 Li1147 1.956 . S
O1207 C1182 1.325 . S
H1208 C1150 0.929 . S
H1209 C1151 0.930 . S
H1210 C1152 0.930 . S
H1211 C1153 0.930 . S
H1212 C1155 0.930 . S
H1213 C1157 0.929 . S
H1214 C1158 0.930 . S
H1215 C1159 0.930 . S
H1216 C1162 0.930 . S
H1217 C1165 0.929 . S
H1218 C1170 0.929 . S
H1219 C1171 0.930 . S
H1220 C1178 0.929 . S
H1221 C1179 0.930 . S
H1222 C1180 0.930 . S
H1223 C1181 0.930 . S
H1224 C1183 0.929 . S
H1225 C1184 0.930 . S
H1226 C1185 0.930 . S
H1227 C1186 0.930 . S
H1228 C1190 0.929 . S
H1229 C1192 0.930 . S
H1230 C1198 0.929 . S
H1231 C1199 0.930 . S
Li1232 N1249 1.990 . S
Li1232 O1292 1.956 . S
Li1232 O1293 1.970 . S
Li1232 O1294 1.961 1_554 S
Li1233 N1257 1.990 . S
Li1233 O1292 1.970 . S
Li1233 O1293 1.956 . S
Li1233 O1295 1.961 1_554 S
Li1234 N1279 1.990 . S
Li1234 O1292 1.961 1_556 S
Li1234 O1294 1.956 . S
Li1234 O1295 1.970 . S
Li1235 N1285 1.990 . S
Li1235 O1293 1.961 1_556 S
Li1235 O1294 1.970 . S
Li1235 O1295 1.956 . S
C1236 C1238 1.348 . S
C1236 C1239 1.356 . S
C1236 O1292 1.325 . S
N1237 C1240 1.314 . S
N1237 C1241 1.279 . S
C1238 C1236 1.348 . S
C1238 C1240 1.353 . S
C1238 H1296 0.929 . S
C1239 C1236 1.356 . S
C1239 C1241 1.358 . S
C1239 H1297 0.930 . S
C1240 N1237 1.314 . S
C1240 C1238 1.353 . S
C1240 H1298 0.930 . S
C1241 N1237 1.279 . S
C1241 C1239 1.358 . S
C1241 H1299 0.930 . S
C1242 C1245 1.348 . S
C1242 C1246 1.356 1_554 S
C1242 O1293 1.325 . S
C1243 N1244 1.279 . S
C1243 C1246 1.358 1_554 S
C1243 H1300 0.930 1_554 S
N1244 C1243 1.279 . S
N1244 C1247 1.314 . S
C1245 C1242 1.348 . S
C1245 C1247 1.353 . S
C1245 H1301 0.929 . S
C1246 C1242 1.356 1_556 S
C1246 C1243 1.358 1_556 S
C1246 H1302 0.930 . S
C1247 N1244 1.314 . S
C1247 C1245 1.353 . S
C1247 H1303 0.930 . S
C1248 N1249 1.314 . S
C1248 C1253 1.353 . S
C1248 H1254 0.930 . S
N1249 Li1232 1.990 . S
N1249 C1248 1.314 . S
N1249 C1251 1.279 . S
C1250 C1251 1.358 . S
C1250 C1252 1.356 . S
C1250 H1304 0.930 . S
C1251 N1249 1.279 . S
C1251 C1250 1.358 . S
C1251 H1255 0.930 . S
C1252 C1250 1.356 . S
C1252 C1253 1.348 . S
C1253 C1248 1.353 . S
C1253 C1252 1.348 . S
C1253 H1305 0.929 . S
H1254 C1248 0.930 . S
H1255 C1251 0.930 . S
C1256 N1257 1.314 . S
C1256 C1258 1.353 . S
C1256 H1262 0.930 1_554 S
N1257 Li1233 1.990 . S
N1257 C1256 1.314 . S
N1257 C1260 1.279 . S
C1258 C1256 1.353 . S
C1258 C1261 1.348 . S
C1258 H1306 0.929 . S
C1259 C1260 1.358 . S
C1259 C1261 1.356 . S
C1259 H1307 0.930 . S
C1260 N1257 1.279 . S
C1260 C1259 1.358 . S
C1260 H1263 0.930 . S
C1261 C1258 1.348 . S
C1261 C1259 1.356 . S
H1262 C1256 0.930 1_556 S
H1263 C1260 0.930 . S
C1264 C1266 1.348 . S
C1264 C1267 1.356 1_556 S
C1264 O1294 1.325 . S
N1265 C1268 1.314 . S
N1265 C1269 1.279 . S
C1266 C1264 1.348 . S
C1266 C1268 1.353 . S
C1266 H1308 0.929 . S
C1267 C1264 1.356 1_554 S
C1267 C1269 1.358 1_554 S
C1267 H1309 0.930 . S
C1268 N1265 1.314 . S
C1268 C1266 1.353 . S
C1268 H1310 0.930 . S
C1269 N1265 1.279 . S
C1269 C1267 1.358 1_556 S
C1269 H1311 0.930 1_556 S
C1270 C1271 1.348 . S
C1270 C1272 1.356 . S
C1270 O1295 1.325 . S
C1271 C1270 1.348 . S
C1271 C1273 1.353 . S
C1271 H1312 0.929 . S
C1272 C1270 1.356 . S
C1272 C1274 1.358 . S
C1272 H1313 0.930 . S
C1273 C1271 1.353 . S
C1273 N1275 1.314 . S
C1273 H1314 0.930 . S
C1274 C1272 1.358 . S
C1274 N1275 1.279 . S
C1274 H1315 0.930 . S
N1275 C1273 1.314 . S
N1275 C1274 1.279 . S
C1276 C1278 1.353 . S
C1276 N1279 1.314 . S
C1276 H1282 0.930 1_556 S
C1277 N1279 1.279 . S
C1277 C1280 1.358 . S
C1277 H1283 0.930 . S
C1278 C1276 1.353 . S
C1278 C1281 1.348 . S
C1278 H1316 0.929 . S
N1279 Li1234 1.990 . S
N1279 C1276 1.314 . S
N1279 C1277 1.279 . S
C1280 C1277 1.358 . S
C1280 C1281 1.356 . S
C1280 H1317 0.930 . S
C1281 C1278 1.348 . S
C1281 C1280 1.356 . S
H1282 C1276 0.930 1_554 S
H1283 C1277 0.930 . S
C1284 N1285 1.314 . S
C1284 C1286 1.353 . S
C1284 H1290 0.930 . S
N1285 Li1235 1.990 . S
N1285 C1284 1.314 . S
N1285 C1288 1.279 . S
C1286 C1284 1.353 . S
C1286 C1289 1.348 . S
C1286 H1318 0.929 . S
C1287 C1288 1.358 . S
C1287 C1289 1.356 . S
C1287 H1319 0.930 . S
C1288 N1285 1.279 . S
C1288 C1287 1.358 . S
C1288 H1291 0.930 . S
C1289 C1286 1.348 . S
C1289 C1287 1.356 . S
H1290 C1284 0.930 . S
H1291 C1288 0.930 . S
O1292 Li1232 1.956 . S
O1292 Li1233 1.970 . S
O1292 Li1234 1.961 1_554 S
O1292 C1236 1.325 . S
O1293 Li1232 1.970 . S
O1293 Li1233 1.956 . S
O1293 Li1235 1.961 1_554 S
O1293 C1242 1.325 . S
O1294 Li1232 1.961 1_556 S
O1294 Li1234 1.956 . S
O1294 Li1235 1.970 . S
O1294 C1264 1.325 . S
O1295 Li1233 1.961 1_556 S
O1295 Li1234 1.970 . S
O1295 Li1235 1.956 . S
O1295 C1270 1.325 . S
H1296 C1238 0.929 . S
H1297 C1239 0.930 . S
H1298 C1240 0.930 . S
H1299 C1241 0.930 . S
H1300 C1243 0.930 1_556 S
H1301 C1245 0.929 . S
H1302 C1246 0.930 . S
H1303 C1247 0.930 . S
H1304 C1250 0.930 . S
H1305 C1253 0.929 . S
H1306 C1258 0.929 . S
H1307 C1259 0.930 . S
H1308 C1266 0.929 . S
H1309 C1267 0.930 . S
H1310 C1268 0.930 . S
H1311 C1269 0.930 1_554 S
H1312 C1271 0.929 . S
H1313 C1272 0.930 . S
H1314 C1273 0.930 . S
H1315 C1274 0.930 . S
H1316 C1278 0.929 . S
H1317 C1280 0.930 . S
H1318 C1286 0.929 . S
H1319 C1287 0.930 . S
Li1320 N1337 1.990 . S
Li1320 O1380 1.956 . S
Li1320 O1381 1.970 . S
Li1320 O1382 1.961 . S
Li1321 N1345 1.990 . S
Li1321 O1380 1.970 . S
Li1321 O1381 1.956 . S
Li1321 O1383 1.961 . S
Li1322 N1367 1.990 . S
Li1322 O1380 1.961 . S
Li1322 O1382 1.956 . S
Li1322 O1383 1.970 . S
Li1323 N1373 1.990 . S
Li1323 O1381 1.961 . S
Li1323 O1382 1.970 . S
Li1323 O1383 1.956 . S
C1324 C1326 1.348 . S
C1324 C1327 1.356 . S
C1324 O1380 1.325 . S
N1325 C1328 1.314 . S
N1325 C1329 1.279 . S
C1326 C1324 1.348 . S
C1326 C1328 1.353 . S
C1326 H1384 0.929 . S
C1327 C1324 1.356 . S
C1327 C1329 1.358 . S
C1327 H1385 0.930 . S
C1328 N1325 1.314 . S
C1328 C1326 1.353 . S
C1328 H1386 0.930 . S
C1329 N1325 1.279 . S
C1329 C1327 1.358 . S
C1329 H1387 0.930 . S
C1330 C1333 1.348 . S
C1330 C1334 1.356 . S
C1330 O1381 1.325 . S
C1331 N1332 1.279 . S
C1331 C1334 1.358 . S
C1331 H1388 0.930 . S
N1332 C1331 1.279 . S
N1332 C1335 1.314 . S
C1333 C1330 1.348 . S
C1333 C1335 1.353 . S
C1333 H1389 0.929 . S
C1334 C1330 1.356 . S
C1334 C1331 1.358 . S
C1334 H1390 0.930 . S
C1335 N1332 1.314 . S
C1335 C1333 1.353 . S
C1335 H1391 0.930 . S
C1336 N1337 1.314 . S
C1336 C1341 1.353 . S
C1336 H1342 0.930 . S
N1337 Li1320 1.990 . S
N1337 C1336 1.314 . S
N1337 C1339 1.279 . S
C1338 C1339 1.358 . S
C1338 C1340 1.356 . S
C1338 H1392 0.930 . S
C1339 N1337 1.279 . S
C1339 C1338 1.358 . S
C1339 H1343 0.930 . S
C1340 C1338 1.356 . S
C1340 C1341 1.348 . S
C1341 C1336 1.353 . S
C1341 C1340 1.348 . S
C1341 H1393 0.929 . S
H1342 C1336 0.930 . S
H1343 C1339 0.930 . S
C1344 N1345 1.314 . S
C1344 C1346 1.353 . S
C1344 H1350 0.930 . S
N1345 Li1321 1.990 . S
N1345 C1344 1.314 . S
N1345 C1348 1.279 . S
C1346 C1344 1.353 . S
C1346 C1349 1.348 . S
C1346 H1394 0.929 . S
C1347 C1348 1.358 . S
C1347 C1349 1.356 . S
C1347 H1395 0.930 . S
C1348 N1345 1.279 . S
C1348 C1347 1.358 . S
C1348 H1351 0.930 . S
C1349 C1346 1.348 . S
C1349 C1347 1.356 . S
H1350 C1344 0.930 . S
H1351 C1348 0.930 . S
C1352 C1354 1.348 . S
C1352 C1355 1.356 . S
C1352 O1382 1.325 . S
N1353 C1356 1.314 . S
N1353 C1357 1.279 . S
C1354 C1352 1.348 . S
C1354 C1356 1.353 . S
C1354 H1396 0.929 . S
C1355 C1352 1.356 . S
C1355 C1357 1.358 . S
C1355 H1397 0.930 . S
C1356 N1353 1.314 . S
C1356 C1354 1.353 . S
C1356 H1398 0.930 . S
C1357 N1353 1.279 . S
C1357 C1355 1.358 . S
C1357 H1399 0.930 . S
C1358 C1359 1.348 . S
C1358 C1360 1.356 . S
C1358 O1383 1.325 . S
C1359 C1358 1.348 . S
C1359 C1361 1.353 . S
C1359 H1400 0.929 . S
C1360 C1358 1.356 . S
C1360 C1362 1.358 . S
C1360 H1401 0.930 . S
C1361 C1359 1.353 . S
C1361 N1363 1.314 . S
C1361 H1402 0.930 . S
C1362 C1360 1.358 . S
C1362 N1363 1.279 . S
C1362 H1403 0.930 . S
N1363 C1361 1.314 . S
N1363 C1362 1.279 . S
C1364 C1366 1.353 . S
C1364 N1367 1.314 . S
C1364 H1370 0.930 . S
C1365 N1367 1.279 . S
C1365 C1368 1.358 . S
C1365 H1371 0.930 . S
C1366 C1364 1.353 . S
C1366 C1369 1.348 . S
C1366 H1404 0.929 . S
N1367 Li1322 1.990 . S
N1367 C1364 1.314 . S
N1367 C1365 1.279 . S
C1368 C1365 1.358 . S
C1368 C1369 1.356 . S
C1368 H1405 0.930 . S
C1369 C1366 1.348 . S
C1369 C1368 1.356 . S
H1370 C1364 0.930 . S
H1371 C1365 0.930 . S
C1372 N1373 1.314 . S
C1372 C1374 1.353 . S
C1372 H1378 0.930 . S
N1373 Li1323 1.990 . S
N1373 C1372 1.314 . S
N1373 C1376 1.279 . S
C1374 C1372 1.353 . S
C1374 C1377 1.348 . S
C1374 H1406 0.929 . S
C1375 C1376 1.358 . S
C1375 C1377 1.356 . S
C1375 H1407 0.930 . S
C1376 N1373 1.279 . S
C1376 C1375 1.358 . S
C1376 H1379 0.930 . S
C1377 C1374 1.348 . S
C1377 C1375 1.356 . S
H1378 C1372 0.930 . S
H1379 C1376 0.930 . S
O1380 Li1320 1.956 . S
O1380 Li1321 1.970 . S
O1380 Li1322 1.961 . S
O1380 C1324 1.325 . S
O1381 Li1320 1.970 . S
O1381 Li1321 1.956 . S
O1381 Li1323 1.961 . S
O1381 C1330 1.325 . S
O1382 Li1320 1.961 . S
O1382 Li1322 1.956 . S
O1382 Li1323 1.970 . S
O1382 C1352 1.325 . S
O1383 Li1321 1.961 . S
O1383 Li1322 1.970 . S
O1383 Li1323 1.956 . S
O1383 C1358 1.325 . S
H1384 C1326 0.929 . S
H1385 C1327 0.930 . S
H1386 C1328 0.930 . S
H1387 C1329 0.930 . S
H1388 C1331 0.930 . S
H1389 C1333 0.929 . S
H1390 C1334 0.930 . S
H1391 C1335 0.930 . S
H1392 C1338 0.930 . S
H1393 C1341 0.929 . S
H1394 C1346 0.929 . S
H1395 C1347 0.930 . S
H1396 C1354 0.929 . S
H1397 C1355 0.930 . S
H1398 C1356 0.930 . S
H1399 C1357 0.930 . S
H1400 C1359 0.929 . S
H1401 C1360 0.930 . S
H1402 C1361 0.930 . S
H1403 C1362 0.930 . S
H1404 C1366 0.929 . S
H1405 C1368 0.930 . S
H1406 C1374 0.929 . S
H1407 C1375 0.930 . S
C1408 C1409 1.391 . S
C1408 C1410 1.394 . S
C1408 H1424 0.931 . S
C1409 C1408 1.391 . S
C1409 C1413 1.376 . S
C1410 C1408 1.394 . S
C1410 C1411 1.369 . S
C1410 C1414 1.531 . S
C1411 C1410 1.369 . S
C1411 C1412 1.410 . S
C1411 C1419 1.503 . S
C1412 C1411 1.410 . S
C1412 C1413 1.392 . S
C1412 C1415 1.511 . S
C1413 C1409 1.376 . S
C1413 C1412 1.392 . S
C1413 H1425 0.929 . S
C1414 C1410 1.531 . S
C1414 H1426 0.960 . S
C1414 H1427 0.962 . S
C1414 H1428 0.960 . S
C1415 C1412 1.511 . S
C1415 H1429 0.961 . S
C1415 H1430 0.961 . S
C1415 H1431 0.961 . S
C1416 C1417 1.370 . S
C1416 C1418 1.363 . S
C1416 H1432 0.931 . S
C1417 C1416 1.370 . S
C1417 C1421 1.408 . S
C1418 C1416 1.363 . S
C1418 C1419 1.370 . S
C1418 C1422 1.524 . S
C1419 C1411 1.503 . S
C1419 C1418 1.370 . S
C1419 C1420 1.403 . S
C1420 C1419 1.403 . S
C1420 C1421 1.404 . S
C1420 C1423 1.539 . S
C1421 C1417 1.408 . S
C1421 C1420 1.404 . S
C1421 H1433 0.930 . S
C1422 C1418 1.524 . S
C1422 H1434 0.956 . S
C1422 H1435 0.961 . S
C1422 H1436 0.961 . S
C1423 C1420 1.539 . S
C1423 H1437 0.958 . S
C1423 H1438 0.961 . S
C1423 H1439 0.960 . S
H1424 C1408 0.931 . S
H1425 C1413 0.929 . S
H1426 C1414 0.960 . S
H1427 C1414 0.962 . S
H1428 C1414 0.960 . S
H1429 C1415 0.961 . S
H1430 C1415 0.961 . S
H1431 C1415 0.961 . S
H1432 C1416 0.931 . S
H1433 C1421 0.930 . S
H1434 C1422 0.956 . S
H1435 C1422 0.961 . S
H1436 C1422 0.961 . S
H1437 C1423 0.958 . S
H1438 C1423 0.961 . S
H1439 C1423 0.960 . S
C1440 C1441 1.391 . S
C1440 C1442 1.394 . S
C1440 H1456 0.931 . S
C1441 C1440 1.391 . S
C1441 C1445 1.386 . S
C1442 C1440 1.394 . S
C1442 C1443 1.369 . S
C1442 C1446 1.531 1_655 S
C1443 C1442 1.369 . S
C1443 C1444 1.410 1_545 S
C1443 C1451 1.503 1_645 S
C1444 C1443 1.410 1_565 S
C1444 C1445 1.389 1_565 S
C1444 C1447 1.511 . S
C1445 C1441 1.386 . S
C1445 C1444 1.389 1_545 S
C1445 H1457 0.923 1_545 S
C1446 C1442 1.531 1_455 S
C1446 H1458 0.960 . S
C1446 H1459 0.962 . S
C1446 H1460 0.969 . S
C1447 C1444 1.511 . S
C1447 H1461 0.961 . S
C1447 H1462 0.961 . S
C1447 H1463 0.961 . S
C1448 C1449 1.370 . S
C1448 C1450 1.363 . S
C1448 H1464 0.931 . S
C1449 C1448 1.370 . S
C1449 C1453 1.408 . S
C1450 C1448 1.363 . S
C1450 C1451 1.370 . S
C1450 C1454 1.524 . S
C1451 C1443 1.503 1_465 S
C1451 C1450 1.370 . S
C1451 C1452 1.403 . S
C1452 C1451 1.403 . S
C1452 C1453 1.404 . S
C1452 C1455 1.539 1_465 S
C1453 C1449 1.408 . S
C1453 C1452 1.404 . S
C1453 H1465 0.930 . S
C1454 C1450 1.524 . S
C1454 H1466 0.956 1_565 S
C1454 H1467 0.961 . S
C1454 H1468 0.961 . S
C1455 C1452 1.539 1_645 S
C1455 H1469 0.958 . S
C1455 H1470 0.961 1_545 S
C1455 H1471 0.960 . S
H1456 C1440 0.931 . S
H1457 C1445 0.923 1_565 S
H1458 C1446 0.960 . S
H1459 C1446 0.962 . S
H1460 C1446 0.969 . S
H1461 C1447 0.961 . S
H1462 C1447 0.961 . S
H1463 C1447 0.961 . S
H1464 C1448 0.931 . S
H1465 C1453 0.930 . S
H1466 C1454 0.956 1_545 S
H1467 C1454 0.961 . S
H1468 C1454 0.961 . S
H1469 C1455 0.958 . S
H1470 C1455 0.961 1_565 S
H1471 C1455 0.960 . S
C1472 C1473 1.391 . S
C1472 C1474 1.394 . S
C1472 H1488 0.931 . S
C1473 C1472 1.391 . S
C1473 C1477 1.376 . S
C1474 C1472 1.394 . S
C1474 C1475 1.369 . S
C1474 C1478 1.531 . S
C1475 C1474 1.369 . S
C1475 C1476 1.410 . S
C1475 C1483 1.503 . S
C1476 C1475 1.410 . S
C1476 C1477 1.392 . S
C1476 C1479 1.511 . S
C1477 C1473 1.376 . S
C1477 C1476 1.392 . S
C1477 H1489 0.929 . S
C1478 C1474 1.531 . S
C1478 H1490 0.960 . S
C1478 H1491 0.962 . S
C1478 H1492 0.960 . S
C1479 C1476 1.511 . S
C1479 H1493 0.961 . S
C1479 H1494 0.961 . S
C1479 H1495 0.961 . S
C1480 C1481 1.370 . S
C1480 C1482 1.363 . S
C1480 H1496 0.931 . S
C1481 C1480 1.370 . S
C1481 C1485 1.408 . S
C1482 C1480 1.363 . S
C1482 C1483 1.370 . S
C1482 C1486 1.524 . S
C1483 C1475 1.503 . S
C1483 C1482 1.370 . S
C1483 C1484 1.403 . S
C1484 C1483 1.403 . S
C1484 C1485 1.404 . S
C1484 C1487 1.539 . S
C1485 C1481 1.408 . S
C1485 C1484 1.404 . S
C1485 H1497 0.930 . S
C1486 C1482 1.524 . S
C1486 H1498 0.956 . S
C1486 H1499 0.961 . S
C1486 H1500 0.961 . S
C1487 C1484 1.539 . S
C1487 H1501 0.958 . S
C1487 H1502 0.961 . S
C1487 H1503 0.960 . S
H1488 C1472 0.931 . S
H1489 C1477 0.929 . S
H1490 C1478 0.960 . S
H1491 C1478 0.962 . S
H1492 C1478 0.960 . S
H1493 C1479 0.961 . S
H1494 C1479 0.961 . S
H1495 C1479 0.961 . S
H1496 C1480 0.931 . S
H1497 C1485 0.930 . S
H1498 C1486 0.956 . S
H1499 C1486 0.961 . S
H1500 C1486 0.961 . S
H1501 C1487 0.958 . S
H1502 C1487 0.961 . S
H1503 C1487 0.960 . S
C1504 C1505 1.354 1_565 S
C1504 C1506 1.407 . S
C1504 H1520 0.954 . S
C1505 C1504 1.354 1_545 S
C1505 C1509 1.376 . S
C1506 C1504 1.407 . S
C1506 C1507 1.369 1_565 S
C1506 C1510 1.531 . S
C1507 C1506 1.369 1_545 S
C1507 C1508 1.410 . S
C1507 C1515 1.503 1_544 S
C1508 C1507 1.410 . S
C1508 C1509 1.392 . S
C1508 C1511 1.511 1_554 S
C1509 C1505 1.376 . S
C1509 C1508 1.392 . S
C1509 H1521 0.929 . S
C1510 C1506 1.531 . S
C1510 H1522 0.960 1_554 S
C1510 H1523 0.962 . S
C1510 H1524 0.960 . S
C1511 C1508 1.511 1_556 S
C1511 H1525 0.961 1_556 S
C1511 H1526 0.961 . S
C1511 H1527 0.961 . S
C1512 C1513 1.370 . S
C1512 C1514 1.363 . S
C1512 H1528 0.931 . S
C1513 C1512 1.370 . S
C1513 C1517 1.408 . S
C1514 C1512 1.363 . S
C1514 C1515 1.370 . S
C1514 C1518 1.524 1_556 S
C1515 C1507 1.503 1_566 S
C1515 C1514 1.370 . S
C1515 C1516 1.403 . S
C1516 C1515 1.403 . S
C1516 C1517 1.404 . S
C1516 C1519 1.549 . S
C1517 C1513 1.408 . S
C1517 C1516 1.404 . S
C1517 H1529 0.930 . S
C1518 C1514 1.524 1_554 S
C1518 H1530 0.956 . S
C1518 H1531 0.961 1_565 S
C1518 H1532 0.961 . S
C1519 C1516 1.549 . S
C1519 H1533 0.985 . S
C1519 H1534 0.951 1_565 S
C1519 H1535 0.935 1_565 S
H1520 C1504 0.954 . S
H1521 C1509 0.929 . S
H1522 C1510 0.960 1_556 S
H1523 C1510 0.962 . S
H1524 C1510 0.960 . S
H1525 C1511 0.961 1_554 S
H1526 C1511 0.961 . S
H1527 C1511 0.961 . S
H1528 C1512 0.931 . S
H1529 C1517 0.930 . S
H1530 C1518 0.956 . S
H1531 C1518 0.961 1_545 S
H1532 C1518 0.961 . S
H1533 C1519 0.985 . S
H1534 C1519 0.951 1_545 S
H1535 C1519 0.935 1_545 S
C1536 C1537 1.391 . S
C1536 C1538 1.394 . S
C1536 H1552 0.931 . S
C1537 C1536 1.391 . S
C1537 C1541 1.376 . S
C1538 C1536 1.394 . S
C1538 C1539 1.369 . S
C1538 C1542 1.531 . S
C1539 C1538 1.369 . S
C1539 C1540 1.410 . S
C1539 C1547 1.503 . S
C1540 C1539 1.410 . S
C1540 C1541 1.392 . S
C1540 C1543 1.511 . S
C1541 C1537 1.376 . S
C1541 C1540 1.392 . S
C1541 H1553 0.929 . S
C1542 C1538 1.531 . S
C1542 H1554 0.960 . S
C1542 H1555 0.962 . S
C1542 H1556 0.960 . S
C1543 C1540 1.511 . S
C1543 H1557 0.961 . S
C1543 H1558 0.961 . S
C1543 H1559 0.961 . S
C1544 C1545 1.370 . S
C1544 C1546 1.363 . S
C1544 H1560 0.931 . S
C1545 C1544 1.370 . S
C1545 C1549 1.408 . S
C1546 C1544 1.363 . S
C1546 C1547 1.370 . S
C1546 C1550 1.524 . S
C1547 C1539 1.503 . S
C1547 C1546 1.370 . S
C1547 C1548 1.403 . S
C1548 C1547 1.403 . S
C1548 C1549 1.404 . S
C1548 C1551 1.539 . S
C1549 C1545 1.408 . S
C1549 C1548 1.404 . S
C1549 H1561 0.930 . S
C1550 C1546 1.524 . S
C1550 H1562 0.956 . S
C1550 H1563 0.961 . S
C1550 H1564 0.961 . S
C1551 C1548 1.539 . S
C1551 H1565 0.958 . S
C1551 H1566 0.961 . S
C1551 H1567 0.960 . S
H1552 C1536 0.931 . S
H1553 C1541 0.929 . S
H1554 C1542 0.960 . S
H1555 C1542 0.962 . S
H1556 C1542 0.960 . S
H1557 C1543 0.961 . S
H1558 C1543 0.961 . S
H1559 C1543 0.961 . S
H1560 C1544 0.931 . S
H1561 C1549 0.930 . S
H1562 C1550 0.956 . S
H1563 C1550 0.961 . S
H1564 C1550 0.961 . S
H1565 C1551 0.958 . S
H1566 C1551 0.961 . S
H1567 C1551 0.960 . S
C1568 C1569 1.391 1_545 S
C1568 C1570 1.394 . S
C1568 H1584 0.931 . S
C1569 C1568 1.391 1_565 S
C1569 C1573 1.376 . S
C1570 C1568 1.394 . S
C1570 C1571 1.369 1_545 S
C1570 C1574 1.531 . S
C1571 C1570 1.369 1_565 S
C1571 C1572 1.410 . S
C1571 C1579 1.503 1_565 S
C1572 C1571 1.410 . S
C1572 C1573 1.392 . S
C1572 C1575 1.511 . S
C1573 C1569 1.376 . S
C1573 C1572 1.392 . S
C1573 H1585 0.929 . S
C1574 C1570 1.531 . S
C1574 H1586 0.960 . S
C1574 H1587 0.962 . S
C1574 H1588 0.960 . S
C1575 C1572 1.511 . S
C1575 H1589 0.961 . S
C1575 H1590 0.961 . S
C1575 H1591 0.961 . S
C1576 C1577 1.370 . S
C1576 C1578 1.363 . S
C1576 H1592 0.931 . S
C1577 C1576 1.370 . S
C1577 C1581 1.408 . S
C1578 C1576 1.363 . S
C1578 C1579 1.370 . S
C1578 C1582 1.524 1_545 S
C1579 C1571 1.503 1_545 S
C1579 C1578 1.370 . S
C1579 C1580 1.403 . S
C1580 C1579 1.403 . S
C1580 C1581 1.404 . S
C1580 C1583 1.539 . S
C1581 C1577 1.408 . S
C1581 C1580 1.404 . S
C1581 H1593 0.930 . S
C1582 C1578 1.524 1_565 S
C1582 H1594 0.956 1_565 S
C1582 H1595 0.961 . S
C1582 H1596 0.961 . S
C1583 C1580 1.539 . S
C1583 H1597 0.958 . S
C1583 H1598 0.961 . S
C1583 H1599 0.960 . S
H1584 C1568 0.931 . S
H1585 C1573 0.929 . S
H1586 C1574 0.960 . S
H1587 C1574 0.962 . S
H1588 C1574 0.960 . S
H1589 C1575 0.961 . S
H1590 C1575 0.961 . S
H1591 C1575 0.961 . S
H1592 C1576 0.931 . S
H1593 C1581 0.930 . S
H1594 C1582 0.956 1_545 S
H1595 C1582 0.961 . S
H1596 C1582 0.961 . S
H1597 C1583 0.958 . S
H1598 C1583 0.961 . S
H1599 C1583 0.960 . S
C1600 C1601 1.391 . S
C1600 C1602 1.394 . S
C1600 H1616 0.931 . S
C1601 C1600 1.391 . S
C1601 C1605 1.376 . S
C1602 C1600 1.394 . S
C1602 C1603 1.369 . S
C1602 C1606 1.531 . S
C1603 C1602 1.369 . S
C1603 C1604 1.410 . S
C1603 C1611 1.503 . S
C1604 C1603 1.410 . S
C1604 C1605 1.392 . S
C1604 C1607 1.511 . S
C1605 C1601 1.376 . S
C1605 C1604 1.392 . S
C1605 H1617 0.929 . S
C1606 C1602 1.531 . S
C1606 H1618 0.960 . S
C1606 H1619 0.962 . S
C1606 H1620 0.960 . S
C1607 C1604 1.511 . S
C1607 H1621 0.961 . S
C1607 H1622 0.961 . S
C1607 H1623 0.961 . S
C1608 C1609 1.370 . S
C1608 C1610 1.363 . S
C1608 H1624 0.931 . S
C1609 C1608 1.370 . S
C1609 C1613 1.408 . S
C1610 C1608 1.363 . S
C1610 C1611 1.370 . S
C1610 C1614 1.524 . S
C1611 C1603 1.503 . S
C1611 C1610 1.370 . S
C1611 C1612 1.403 . S
C1612 C1611 1.403 . S
C1612 C1613 1.404 . S
C1612 C1615 1.539 . S
C1613 C1609 1.408 . S
C1613 C1612 1.404 . S
C1613 H1625 0.930 . S
C1614 C1610 1.524 . S
C1614 H1626 0.956 . S
C1614 H1627 0.961 . S
C1614 H1628 0.961 . S
C1615 C1612 1.539 . S
C1615 H1629 0.958 . S
C1615 H1630 0.961 . S
C1615 H1631 0.960 . S
H1616 C1600 0.931 . S
H1617 C1605 0.929 . S
H1618 C1606 0.960 . S
H1619 C1606 0.962 . S
H1620 C1606 0.960 . S
H1621 C1607 0.961 . S
H1622 C1607 0.961 . S
H1623 C1607 0.961 . S
H1624 C1608 0.931 . S
H1625 C1613 0.930 . S
H1626 C1614 0.956 . S
H1627 C1614 0.961 . S
H1628 C1614 0.961 . S
H1629 C1615 0.958 . S
H1630 C1615 0.961 . S
H1631 C1615 0.960 . S
C1632 C1633 1.391 . S
C1632 C1634 1.407 . S
C1632 H1648 0.931 . S
C1633 C1632 1.391 . S
C1633 C1637 1.376 . S
C1634 C1632 1.407 . S
C1634 C1635 1.374 . S
C1634 C1638 1.512 1_556 S
C1635 C1634 1.374 . S
C1635 C1636 1.414 . S
C1635 C1643 1.484 1_446 S
C1636 C1635 1.414 . S
C1636 C1637 1.402 . S
C1636 C1639 1.498 1_455 S
C1637 C1633 1.376 . S
C1637 C1636 1.402 . S
C1637 H1649 0.929 . S
C1638 C1634 1.512 1_554 S
C1638 H1650 0.960 . S
C1638 H1651 0.962 1_545 S
C1638 H1652 0.960 . S
C1639 C1636 1.498 1_655 S
C1639 H1653 0.961 . S
C1639 H1654 0.961 . S
C1639 H1655 0.961 . S
C1640 C1641 1.370 . S
C1640 C1642 1.363 . S
C1640 H1656 0.931 . S
C1641 C1640 1.370 . S
C1641 C1645 1.408 1_565 S
C1642 C1640 1.363 . S
C1642 C1643 1.418 . S
C1642 C1646 1.493 1_654 S
C1643 C1635 1.484 1_664 S
C1643 C1642 1.418 . S
C1643 C1644 1.376 1_565 S
C1644 C1643 1.376 1_545 S
C1644 C1645 1.404 . S
C1644 C1647 1.539 . S
C1645 C1641 1.408 1_545 S
C1645 C1644 1.404 . S
C1645 H1657 0.930 . S
C1646 C1642 1.493 1_456 S
C1646 H1658 1.016 . S
C1646 H1659 0.953 1_455 S
C1646 H1660 0.942 1_455 S
C1647 C1644 1.539 . S
C1647 H1661 0.958 . S
C1647 H1662 0.961 . S
C1647 H1663 0.960 . S
H1648 C1632 0.931 . S
H1649 C1637 0.929 . S
H1650 C1638 0.960 . S
H1651 C1638 0.962 1_565 S
H1652 C1638 0.960 . S
H1653 C1639 0.961 . S
H1654 C1639 0.961 . S
H1655 C1639 0.961 . S
H1656 C1640 0.931 . S
H1657 C1645 0.930 . S
H1658 C1646 1.016 . S
H1659 C1646 0.953 1_655 S
H1660 C1646 0.942 1_655 S
H1661 C1647 0.958 . S
H1662 C1647 0.961 . S
H1663 C1647 0.960 . S
C1664 C1665 1.391 . S
C1664 C1666 1.394 . S
C1664 H1680 0.931 . S
C1665 C1664 1.391 . S
C1665 C1669 1.376 . S
C1666 C1664 1.394 . S
C1666 C1667 1.369 . S
C1666 C1670 1.531 . S
C1667 C1666 1.369 . S
C1667 C1668 1.410 . S
C1667 C1675 1.503 . S
C1668 C1667 1.410 . S
C1668 C1669 1.392 . S
C1668 C1671 1.511 . S
C1669 C1665 1.376 . S
C1669 C1668 1.392 . S
C1669 H1681 0.929 . S
C1670 C1666 1.531 . S
C1670 H1682 0.960 . S
C1670 H1683 0.962 . S
C1670 H1684 0.960 . S
C1671 C1668 1.511 . S
C1671 H1685 0.961 . S
C1671 H1686 0.961 . S
C1671 H1687 0.961 . S
C1672 C1673 1.370 . S
C1672 C1674 1.363 . S
C1672 H1688 0.931 . S
C1673 C1672 1.370 . S
C1673 C1677 1.408 . S
C1674 C1672 1.363 . S
C1674 C1675 1.370 . S
C1674 C1678 1.524 . S
C1675 C1667 1.503 . S
C1675 C1674 1.370 . S
C1675 C1676 1.403 . S
C1676 C1675 1.403 . S
C1676 C1677 1.404 . S
C1676 C1679 1.539 . S
C1677 C1673 1.408 . S
C1677 C1676 1.404 . S
C1677 H1689 0.930 . S
C1678 C1674 1.524 . S
C1678 H1690 0.956 . S
C1678 H1691 0.961 . S
C1678 H1692 0.961 . S
C1679 C1676 1.539 . S
C1679 H1693 0.958 . S
C1679 H1694 0.961 . S
C1679 H1695 0.960 . S
H1680 C1664 0.931 . S
H1681 C1669 0.929 . S
H1682 C1670 0.960 . S
H1683 C1670 0.962 . S
H1684 C1670 0.960 . S
H1685 C1671 0.961 . S
H1686 C1671 0.961 . S
H1687 C1671 0.961 . S
H1688 C1672 0.931 . S
H1689 C1677 0.930 . S
H1690 C1678 0.956 . S
H1691 C1678 0.961 . S
H1692 C1678 0.961 . S
H1693 C1679 0.958 . S
H1694 C1679 0.961 . S
H1695 C1679 0.960 . S
C1696 C1697 1.391 . S
C1696 C1698 1.394 . S
C1696 H1712 0.931 . S
C1697 C1696 1.391 . S
C1697 C1701 1.376 . S
C1698 C1696 1.394 . S
C1698 C1699 1.369 . S
C1698 C1702 1.531 . S
C1699 C1698 1.369 . S
C1699 C1700 1.410 . S
C1699 C1707 1.503 . S
C1700 C1699 1.410 . S
C1700 C1701 1.392 . S
C1700 C1703 1.511 . S
C1701 C1697 1.376 . S
C1701 C1700 1.392 . S
C1701 H1713 0.929 . S
C1702 C1698 1.531 . S
C1702 H1714 0.960 . S
C1702 H1715 0.962 . S
C1702 H1716 0.960 . S
C1703 C1700 1.511 . S
C1703 H1717 0.961 . S
C1703 H1718 0.961 . S
C1703 H1719 0.961 . S
C1704 C1705 1.370 . S
C1704 C1706 1.363 . S
C1704 H1720 0.931 . S
C1705 C1704 1.370 . S
C1705 C1709 1.408 . S
C1706 C1704 1.363 . S
C1706 C1707 1.370 . S
C1706 C1710 1.524 . S
C1707 C1699 1.503 . S
C1707 C1706 1.370 . S
C1707 C1708 1.403 . S
C1708 C1707 1.403 . S
C1708 C1709 1.404 . S
C1708 C1711 1.539 . S
C1709 C1705 1.408 . S
C1709 C1708 1.404 . S
C1709 H1721 0.930 . S
C1710 C1706 1.524 . S
C1710 H1722 0.956 . S
C1710 H1723 0.961 . S
C1710 H1724 0.961 . S
C1711 C1708 1.539 . S
C1711 H1725 0.958 . S
C1711 H1726 0.961 . S
C1711 H1727 0.960 . S
H1712 C1696 0.931 . S
H1713 C1701 0.929 . S
H1714 C1702 0.960 . S
H1715 C1702 0.962 . S
H1716 C1702 0.960 . S
H1717 C1703 0.961 . S
H1718 C1703 0.961 . S
H1719 C1703 0.961 . S
H1720 C1704 0.931 . S
H1721 C1709 0.930 . S
H1722 C1710 0.956 . S
H1723 C1710 0.961 . S
H1724 C1710 0.961 . S
H1725 C1711 0.958 . S
H1726 C1711 0.961 . S
H1727 C1711 0.960 . S
C1728 C1729 1.391 . S
C1728 C1730 1.394 . S
C1728 H1744 0.931 . S
C1729 C1728 1.391 . S
C1729 C1733 1.376 . S
C1730 C1728 1.394 . S
C1730 C1731 1.369 . S
C1730 C1734 1.531 . S
C1731 C1730 1.369 . S
C1731 C1732 1.410 . S
C1731 C1739 1.503 . S
C1732 C1731 1.410 . S
C1732 C1733 1.392 . S
C1732 C1735 1.511 . S
C1733 C1729 1.376 . S
C1733 C1732 1.392 . S
C1733 H1745 0.929 . S
C1734 C1730 1.531 . S
C1734 H1746 0.960 . S
C1734 H1747 0.962 . S
C1734 H1748 0.960 . S
C1735 C1732 1.511 . S
C1735 H1749 0.961 . S
C1735 H1750 0.961 . S
C1735 H1751 0.961 . S
C1736 C1737 1.370 . S
C1736 C1738 1.363 . S
C1736 H1752 0.931 . S
C1737 C1736 1.370 . S
C1737 C1741 1.408 . S
C1738 C1736 1.363 . S
C1738 C1739 1.370 . S
C1738 C1742 1.524 . S
C1739 C1731 1.503 . S
C1739 C1738 1.370 . S
C1739 C1740 1.403 . S
C1740 C1739 1.403 . S
C1740 C1741 1.404 . S
C1740 C1743 1.539 . S
C1741 C1737 1.408 . S
C1741 C1740 1.404 . S
C1741 H1753 0.930 . S
C1742 C1738 1.524 . S
C1742 H1754 0.956 . S
C1742 H1755 0.961 . S
C1742 H1756 0.961 . S
C1743 C1740 1.539 . S
C1743 H1757 0.958 . S
C1743 H1758 0.961 . S
C1743 H1759 0.960 . S
H1744 C1728 0.931 . S
H1745 C1733 0.929 . S
H1746 C1734 0.960 . S
H1747 C1734 0.962 . S
H1748 C1734 0.960 . S
H1749 C1735 0.961 . S
H1750 C1735 0.961 . S
H1751 C1735 0.961 . S
H1752 C1736 0.931 . S
H1753 C1741 0.930 . S
H1754 C1742 0.956 . S
H1755 C1742 0.961 . S
H1756 C1742 0.961 . S
H1757 C1743 0.958 . S
H1758 C1743 0.961 . S
H1759 C1743 0.960 . S
C1760 C1761 1.391 . S
C1760 C1762 1.394 . S
C1760 H1776 0.931 . S
C1761 C1760 1.391 . S
C1761 C1765 1.376 . S
C1762 C1760 1.394 . S
C1762 C1763 1.369 . S
C1762 C1766 1.531 . S
C1763 C1762 1.369 . S
C1763 C1764 1.410 . S
C1763 C1771 1.503 . S
C1764 C1763 1.410 . S
C1764 C1765 1.392 . S
C1764 C1767 1.511 . S
C1765 C1761 1.376 . S
C1765 C1764 1.392 . S
C1765 H1777 0.929 . S
C1766 C1762 1.531 . S
C1766 H1778 0.960 . S
C1766 H1779 0.962 . S
C1766 H1780 0.960 . S
C1767 C1764 1.511 . S
C1767 H1781 0.961 . S
C1767 H1782 0.961 . S
C1767 H1783 0.961 . S
C1768 C1769 1.370 . S
C1768 C1770 1.363 . S
C1768 H1784 0.931 . S
C1769 C1768 1.370 . S
C1769 C1773 1.408 . S
C1770 C1768 1.363 . S
C1770 C1771 1.370 . S
C1770 C1774 1.524 . S
C1771 C1763 1.503 . S
C1771 C1770 1.370 . S
C1771 C1772 1.403 . S
C1772 C1771 1.403 . S
C1772 C1773 1.404 . S
C1772 C1775 1.539 . S
C1773 C1769 1.408 . S
C1773 C1772 1.404 . S
C1773 H1785 0.930 . S
C1774 C1770 1.524 . S
C1774 H1786 0.956 . S
C1774 H1787 0.961 . S
C1774 H1788 0.961 . S
C1775 C1772 1.539 . S
C1775 H1789 0.958 . S
C1775 H1790 0.961 . S
C1775 H1791 0.960 . S
H1776 C1760 0.931 . S
H1777 C1765 0.929 . S
H1778 C1766 0.960 . S
H1779 C1766 0.962 . S
H1780 C1766 0.960 . S
H1781 C1767 0.961 . S
H1782 C1767 0.961 . S
H1783 C1767 0.961 . S
H1784 C1768 0.931 . S
H1785 C1773 0.930 . S
H1786 C1774 0.956 . S
H1787 C1774 0.961 . S
H1788 C1774 0.961 . S
H1789 C1775 0.958 . S
H1790 C1775 0.961 . S
H1791 C1775 0.960 . S
C1792 C1793 1.391 . S
C1792 C1794 1.394 . S
C1792 H1808 0.931 . S
C1793 C1792 1.391 . S
C1793 C1797 1.376 . S
C1794 C1792 1.394 . S
C1794 C1795 1.369 . S
C1794 C1798 1.531 . S
C1795 C1794 1.369 . S
C1795 C1796 1.410 . S
C1795 C1803 1.503 1_554 S
C1796 C1795 1.410 . S
C1796 C1797 1.392 . S
C1796 C1799 1.511 . S
C1797 C1793 1.376 . S
C1797 C1796 1.392 . S
C1797 H1809 0.929 . S
C1798 C1794 1.531 . S
C1798 H1810 0.960 . S
C1798 H1811 0.962 1_554 S
C1798 H1812 0.960 . S
C1799 C1796 1.511 . S
C1799 H1813 0.961 . S
C1799 H1814 0.961 . S
C1799 H1815 0.961 . S
C1800 C1801 1.370 . S
C1800 C1802 1.363 . S
C1800 H1816 0.931 . S
C1801 C1800 1.370 . S
C1801 C1805 1.408 . S
C1802 C1800 1.363 . S
C1802 C1803 1.370 . S
C1802 C1806 1.524 . S
C1803 C1795 1.503 1_556 S
C1803 C1802 1.370 . S
C1803 C1804 1.403 1_556 S
C1804 C1803 1.403 1_554 S
C1804 C1805 1.404 1_554 S
C1804 C1807 1.539 . S
C1805 C1801 1.408 . S
C1805 C1804 1.404 1_556 S
C1805 H1817 0.930 . S
C1806 C1802 1.524 . S
C1806 H1818 0.956 . S
C1806 H1819 0.961 . S
C1806 H1820 0.961 . S
C1807 C1804 1.539 . S
C1807 H1821 0.958 . S
C1807 H1822 0.961 . S
C1807 H1823 0.960 . S
H1808 C1792 0.931 . S
H1809 C1797 0.929 . S
H1810 C1798 0.960 . S
H1811 C1798 0.962 1_556 S
H1812 C1798 0.960 . S
H1813 C1799 0.961 . S
H1814 C1799 0.961 . S
H1815 C1799 0.961 . S
H1816 C1800 0.931 . S
H1817 C1805 0.930 . S
H1818 C1806 0.956 . S
H1819 C1806 0.961 . S
H1820 C1806 0.961 . S
H1821 C1807 0.958 . S
H1822 C1807 0.961 . S
H1823 C1807 0.960 . S
C1824 C1825 1.391 . S
C1824 C1826 1.394 . S
C1824 H1840 0.931 . S
C1825 C1824 1.391 . S
C1825 C1829 1.376 . S
C1826 C1824 1.394 . S
C1826 C1827 1.369 . S
C1826 C1830 1.531 . S
C1827 C1826 1.369 . S
C1827 C1828 1.410 . S
C1827 C1835 1.503 1_455 S
C1828 C1827 1.410 . S
C1828 C1829 1.392 . S
C1828 C1831 1.511 1_455 S
C1829 C1825 1.376 . S
C1829 C1828 1.392 . S
C1829 H1841 0.929 . S
C1830 C1826 1.531 . S
C1830 H1842 0.960 . S
C1830 H1843 0.962 . S
C1830 H1844 0.960 . S
C1831 C1828 1.511 1_655 S
C1831 H1845 0.961 . S
C1831 H1846 0.961 . S
C1831 H1847 0.961 . S
C1832 C1833 1.370 . S
C1832 C1834 1.363 . S
C1832 H1848 0.931 . S
C1833 C1832 1.370 . S
C1833 C1837 1.408 . S
C1834 C1832 1.363 . S
C1834 C1835 1.370 . S
C1834 C1838 1.524 1_655 S
C1835 C1827 1.503 1_655 S
C1835 C1834 1.370 . S
C1835 C1836 1.403 . S
C1836 C1835 1.403 . S
C1836 C1837 1.404 . S
C1836 C1839 1.539 . S
C1837 C1833 1.408 . S
C1837 C1836 1.404 . S
C1837 H1849 0.930 . S
C1838 C1834 1.524 1_455 S
C1838 H1850 0.956 . S
C1838 H1851 0.961 . S
C1838 H1852 0.961 . S
C1839 C1836 1.539 . S
C1839 H1853 0.958 . S
C1839 H1854 0.961 . S
C1839 H1855 0.960 . S
H1840 C1824 0.931 . S
H1841 C1829 0.929 . S
H1842 C1830 0.960 . S
H1843 C1830 0.962 . S
H1844 C1830 0.960 . S
H1845 C1831 0.961 . S
H1846 C1831 0.961 . S
H1847 C1831 0.961 . S
H1848 C1832 0.931 . S
H1849 C1837 0.930 . S
H1850 C1838 0.956 . S
H1851 C1838 0.961 . S
H1852 C1838 0.961 . S
H1853 C1839 0.958 . S
H1854 C1839 0.961 . S
H1855 C1839 0.960 . S
C1856 C1857 1.391 . S
C1856 C1858 1.394 . S
C1856 H1872 0.931 . S
C1857 C1856 1.391 . S
C1857 C1861 1.376 . S
C1858 C1856 1.394 . S
C1858 C1859 1.369 . S
C1858 C1862 1.531 1_554 S
C1859 C1858 1.369 . S
C1859 C1860 1.424 . S
C1859 C1867 1.503 1_454 S
C1860 C1859 1.424 . S
C1860 C1861 1.431 . S
C1860 C1863 1.461 1_455 S
C1861 C1857 1.376 . S
C1861 C1860 1.431 . S
C1861 H1873 0.929 . S
C1862 C1858 1.531 1_556 S
C1862 H1874 0.960 . S
C1862 H1875 0.962 . S
C1862 H1876 0.960 1_556 S
C1863 C1860 1.461 1_655 S
C1863 H1877 0.961 . S
C1863 H1878 0.961 . S
C1863 H1879 0.961 . S
C1864 C1865 1.370 . S
C1864 C1866 1.363 . S
C1864 H1880 0.931 . S
C1865 C1864 1.370 . S
C1865 C1869 1.408 . S
C1866 C1864 1.363 . S
C1866 C1867 1.370 . S
C1866 C1870 1.524 1_655 S
C1867 C1859 1.503 1_656 S
C1867 C1866 1.370 . S
C1867 C1868 1.402 . S
C1868 C1867 1.402 . S
C1868 C1869 1.403 . S
C1868 C1871 1.541 1_556 S
C1869 C1865 1.408 . S
C1869 C1868 1.403 . S
C1869 H1881 0.930 . S
C1870 C1866 1.524 1_455 S
C1870 H1882 0.956 . S
C1870 H1883 0.961 . S
C1870 H1884 0.961 . S
C1871 C1868 1.541 1_554 S
C1871 H1885 0.958 . S
C1871 H1886 0.961 . S
C1871 H1887 0.960 . S
H1872 C1856 0.931 . S
H1873 C1861 0.929 . S
H1874 C1862 0.960 . S
H1875 C1862 0.962 . S
H1876 C1862 0.960 1_554 S
H1877 C1863 0.961 . S
H1878 C1863 0.961 . S
H1879 C1863 0.961 . S
H1880 C1864 0.931 . S
H1881 C1869 0.930 . S
H1882 C1870 0.956 . S
H1883 C1870 0.961 . S
H1884 C1870 0.961 . S
H1885 C1871 0.958 . S
H1886 C1871 0.961 . S
H1887 C1871 0.960 . S
C1888 C1889 1.391 . S
C1888 C1890 1.394 . S
C1888 H1904 0.931 . S
C1889 C1888 1.391 . S
C1889 C1893 1.376 . S
C1890 C1888 1.394 . S
C1890 C1891 1.369 . S
C1890 C1894 1.531 . S
C1891 C1890 1.369 . S
C1891 C1892 1.410 . S
C1891 C1899 1.503 . S
C1892 C1891 1.410 . S
C1892 C1893 1.392 . S
C1892 C1895 1.511 . S
C1893 C1889 1.376 . S
C1893 C1892 1.392 . S
C1893 H1905 0.929 . S
C1894 C1890 1.531 . S
C1894 H1906 0.960 . S
C1894 H1907 0.962 . S
C1894 H1908 0.960 . S
C1895 C1892 1.511 . S
C1895 H1909 0.961 . S
C1895 H1910 0.961 . S
C1895 H1911 0.961 . S
C1896 C1897 1.370 . S
C1896 C1898 1.363 . S
C1896 H1912 0.931 . S
C1897 C1896 1.370 . S
C1897 C1901 1.408 . S
C1898 C1896 1.363 . S
C1898 C1899 1.370 . S
C1898 C1902 1.524 . S
C1899 C1891 1.503 . S
C1899 C1898 1.370 . S
C1899 C1900 1.403 . S
C1900 C1899 1.403 . S
C1900 C1901 1.404 . S
C1900 C1903 1.539 . S
C1901 C1897 1.408 . S
C1901 C1900 1.404 . S
C1901 H1913 0.930 . S
C1902 C1898 1.524 . S
C1902 H1914 0.956 . S
C1902 H1915 0.961 . S
C1902 H1916 0.961 . S
C1903 C1900 1.539 . S
C1903 H1917 0.958 . S
C1903 H1918 0.961 . S
C1903 H1919 0.960 . S
H1904 C1888 0.931 . S
H1905 C1893 0.929 . S
H1906 C1894 0.960 . S
H1907 C1894 0.962 . S
H1908 C1894 0.960 . S
H1909 C1895 0.961 . S
H1910 C1895 0.961 . S
H1911 C1895 0.961 . S
H1912 C1896 0.931 . S
H1913 C1901 0.930 . S
H1914 C1902 0.956 . S
H1915 C1902 0.961 . S
H1916 C1902 0.961 . S
H1917 C1903 0.958 . S
H1918 C1903 0.961 . S
H1919 C1903 0.960 . S
C1920 C1921 1.391 . S
C1920 C1922 1.394 . S
C1920 H1936 0.931 . S
C1921 C1920 1.391 . S
C1921 C1925 1.376 . S
C1922 C1920 1.394 . S
C1922 C1923 1.369 . S
C1922 C1926 1.531 . S
C1923 C1922 1.369 . S
C1923 C1924 1.410 . S
C1923 C1931 1.503 . S
C1924 C1923 1.410 . S
C1924 C1925 1.392 . S
C1924 C1927 1.511 . S
C1925 C1921 1.376 . S
C1925 C1924 1.392 . S
C1925 H1937 0.929 . S
C1926 C1922 1.531 . S
C1926 H1938 0.960 . S
C1926 H1939 0.962 . S
C1926 H1940 0.960 . S
C1927 C1924 1.511 . S
C1927 H1941 0.961 . S
C1927 H1942 0.961 . S
C1927 H1943 0.961 . S
C1928 C1929 1.370 . S
C1928 C1930 1.363 . S
C1928 H1944 0.931 . S
C1929 C1928 1.370 . S
C1929 C1933 1.408 . S
C1930 C1928 1.363 . S
C1930 C1931 1.370 . S
C1930 C1934 1.524 . S
C1931 C1923 1.503 . S
C1931 C1930 1.370 . S
C1931 C1932 1.403 . S
C1932 C1931 1.403 . S
C1932 C1933 1.404 . S
C1932 C1935 1.539 . S
C1933 C1929 1.408 . S
C1933 C1932 1.404 . S
C1933 H1945 0.930 . S
C1934 C1930 1.524 . S
C1934 H1946 0.956 . S
C1934 H1947 0.961 . S
C1934 H1948 0.961 . S
C1935 C1932 1.539 . S
C1935 H1949 0.958 . S
C1935 H1950 0.961 . S
C1935 H1951 0.960 . S
H1936 C1920 0.931 . S
H1937 C1925 0.929 . S
H1938 C1926 0.960 . S
H1939 C1926 0.962 . S
H1940 C1926 0.960 . S
H1941 C1927 0.961 . S
H1942 C1927 0.961 . S
H1943 C1927 0.961 . S
H1944 C1928 0.931 . S
H1945 C1933 0.930 . S
H1946 C1934 0.956 . S
H1947 C1934 0.961 . S
H1948 C1934 0.961 . S
H1949 C1935 0.958 . S
H1950 C1935 0.961 . S
H1951 C1935 0.960 . S
C1952 C1953 1.391 . S
C1952 C1954 1.394 . S
C1952 H1968 0.931 . S
C1953 C1952 1.391 . S
C1953 C1957 1.376 . S
C1954 C1952 1.394 . S
C1954 C1955 1.369 . S
C1954 C1958 1.531 . S
C1955 C1954 1.369 . S
C1955 C1956 1.410 . S
C1955 C1963 1.503 . S
C1956 C1955 1.410 . S
C1956 C1957 1.392 . S
C1956 C1959 1.511 . S
C1957 C1953 1.376 . S
C1957 C1956 1.392 . S
C1957 H1969 0.929 . S
C1958 C1954 1.531 . S
C1958 H1970 0.960 . S
C1958 H1971 0.962 . S
C1958 H1972 0.960 . S
C1959 C1956 1.511 . S
C1959 H1973 0.961 . S
C1959 H1974 0.961 . S
C1959 H1975 0.961 . S
C1960 C1961 1.370 . S
C1960 C1962 1.363 . S
C1960 H1976 0.931 . S
C1961 C1960 1.370 . S
C1961 C1965 1.408 . S
C1962 C1960 1.363 . S
C1962 C1963 1.370 . S
C1962 C1966 1.524 . S
C1963 C1955 1.503 . S
C1963 C1962 1.370 . S
C1963 C1964 1.403 . S
C1964 C1963 1.403 . S
C1964 C1965 1.404 . S
C1964 C1967 1.539 . S
C1965 C1961 1.408 . S
C1965 C1964 1.404 . S
C1965 H1977 0.930 . S
C1966 C1962 1.524 . S
C1966 H1978 0.956 . S
C1966 H1979 0.961 . S
C1966 H1980 0.961 . S
C1967 C1964 1.539 . S
C1967 H1981 0.958 . S
C1967 H1982 0.961 . S
C1967 H1983 0.960 . S
H1968 C1952 0.931 . S
H1969 C1957 0.929 . S
H1970 C1958 0.960 . S
H1971 C1958 0.962 . S
H1972 C1958 0.960 . S
H1973 C1959 0.961 . S
H1974 C1959 0.961 . S
H1975 C1959 0.961 . S
H1976 C1960 0.931 . S
H1977 C1965 0.930 . S
H1978 C1966 0.956 . S
H1979 C1966 0.961 . S
H1980 C1966 0.961 . S
H1981 C1967 0.958 . S
H1982 C1967 0.961 . S
H1983 C1967 0.960 . S
C1984 C1985 1.391 . S
C1984 C1986 1.394 . S
C1984 H2000 0.931 . S
C1985 C1984 1.391 . S
C1985 C1989 1.376 . S
C1986 C1984 1.394 . S
C1986 C1987 1.369 . S
C1986 C1990 1.531 . S
C1987 C1986 1.369 . S
C1987 C1988 1.410 . S
C1987 C1995 1.503 . S
C1988 C1987 1.410 . S
C1988 C1989 1.392 . S
C1988 C1991 1.511 . S
C1989 C1985 1.376 . S
C1989 C1988 1.392 . S
C1989 H2001 0.929 . S
C1990 C1986 1.531 . S
C1990 H2002 0.960 . S
C1990 H2003 0.962 . S
C1990 H2004 0.960 . S
C1991 C1988 1.511 . S
C1991 H2005 0.961 . S
C1991 H2006 0.961 . S
C1991 H2007 0.961 . S
C1992 C1993 1.370 . S
C1992 C1994 1.363 . S
C1992 H2008 0.931 . S
C1993 C1992 1.370 . S
C1993 C1997 1.408 . S
C1994 C1992 1.363 . S
C1994 C1995 1.370 . S
C1994 C1998 1.524 . S
C1995 C1987 1.503 . S
C1995 C1994 1.370 . S
C1995 C1996 1.403 . S
C1996 C1995 1.403 . S
C1996 C1997 1.404 . S
C1996 C1999 1.539 . S
C1997 C1993 1.408 . S
C1997 C1996 1.404 . S
C1997 H2009 0.930 . S
C1998 C1994 1.524 . S
C1998 H2010 0.956 . S
C1998 H2011 0.961 . S
C1998 H2012 0.961 . S
C1999 C1996 1.539 . S
C1999 H2013 0.958 . S
C1999 H2014 0.961 . S
C1999 H2015 0.960 . S
H2000 C1984 0.931 . S
H2001 C1989 0.929 . S
H2002 C1990 0.960 . S
H2003 C1990 0.962 . S
H2004 C1990 0.960 . S
H2005 C1991 0.961 . S
H2006 C1991 0.961 . S
H2007 C1991 0.961 . S
H2008 C1992 0.931 . S
H2009 C1997 0.930 . S
H2010 C1998 0.956 . S
H2011 C1998 0.961 . S
H2012 C1998 0.961 . S
H2013 C1999 0.958 . S
H2014 C1999 0.961 . S
H2015 C1999 0.960 . S
C2016 C2017 1.391 . S
C2016 C2018 1.394 . S
C2016 H2032 0.931 . S
C2017 C2016 1.391 . S
C2017 C2021 1.376 . S
C2018 C2016 1.394 . S
C2018 C2019 1.369 . S
C2018 C2022 1.531 . S
C2019 C2018 1.369 . S
C2019 C2020 1.410 . S
C2019 C2027 1.503 . S
C2020 C2019 1.410 . S
C2020 C2021 1.392 . S
C2020 C2023 1.511 . S
C2021 C2017 1.376 . S
C2021 C2020 1.392 . S
C2021 H2033 0.929 . S
C2022 C2018 1.531 . S
C2022 H2034 0.960 . S
C2022 H2035 0.962 . S
C2022 H2036 0.960 . S
C2023 C2020 1.511 . S
C2023 H2037 0.961 . S
C2023 H2038 0.961 . S
C2023 H2039 0.961 . S
C2024 C2025 1.370 . S
C2024 C2026 1.363 . S
C2024 H2040 0.931 . S
C2025 C2024 1.370 . S
C2025 C2029 1.408 . S
C2026 C2024 1.363 . S
C2026 C2027 1.370 . S
C2026 C2030 1.524 . S
C2027 C2019 1.503 . S
C2027 C2026 1.370 . S
C2027 C2028 1.403 . S
C2028 C2027 1.403 . S
C2028 C2029 1.404 . S
C2028 C2031 1.539 . S
C2029 C2025 1.408 . S
C2029 C2028 1.404 . S
C2029 H2041 0.930 . S
C2030 C2026 1.524 . S
C2030 H2042 0.956 . S
C2030 H2043 0.961 . S
C2030 H2044 0.961 . S
C2031 C2028 1.539 . S
C2031 H2045 0.958 . S
C2031 H2046 0.961 . S
C2031 H2047 0.960 . S
H2032 C2016 0.931 . S
H2033 C2021 0.929 . S
H2034 C2022 0.960 . S
H2035 C2022 0.962 . S
H2036 C2022 0.960 . S
H2037 C2023 0.961 . S
H2038 C2023 0.961 . S
H2039 C2023 0.961 . S
H2040 C2024 0.931 . S
H2041 C2029 0.930 . S
H2042 C2030 0.956 . S
H2043 C2030 0.961 . S
H2044 C2030 0.961 . S
H2045 C2031 0.958 . S
H2046 C2031 0.961 . S
H2047 C2031 0.960 . S
C2048 C2049 1.391 . S
C2048 C2050 1.394 . S
C2048 H2064 0.931 . S
C2049 C2048 1.391 . S
C2049 C2053 1.376 . S
C2050 C2048 1.394 . S
C2050 C2051 1.369 . S
C2050 C2054 1.531 . S
C2051 C2050 1.369 . S
C2051 C2052 1.410 . S
C2051 C2059 1.503 . S
C2052 C2051 1.410 . S
C2052 C2053 1.392 . S
C2052 C2055 1.511 . S
C2053 C2049 1.376 . S
C2053 C2052 1.392 . S
C2053 H2065 0.929 . S
C2054 C2050 1.531 . S
C2054 H2066 0.960 . S
C2054 H2067 0.962 . S
C2054 H2068 0.960 . S
C2055 C2052 1.511 . S
C2055 H2069 0.961 . S
C2055 H2070 0.961 . S
C2055 H2071 0.961 . S
C2056 C2057 1.370 . S
C2056 C2058 1.363 . S
C2056 H2072 0.931 . S
C2057 C2056 1.370 . S
C2057 C2061 1.408 . S
C2058 C2056 1.363 . S
C2058 C2059 1.370 . S
C2058 C2062 1.524 . S
C2059 C2051 1.503 . S
C2059 C2058 1.370 . S
C2059 C2060 1.403 . S
C2060 C2059 1.403 . S
C2060 C2061 1.404 . S
C2060 C2063 1.539 . S
C2061 C2057 1.408 . S
C2061 C2060 1.404 . S
C2061 H2073 0.930 . S
C2062 C2058 1.524 . S
C2062 H2074 0.956 . S
C2062 H2075 0.961 . S
C2062 H2076 0.961 . S
C2063 C2060 1.539 . S
C2063 H2077 0.958 . S
C2063 H2078 0.961 . S
C2063 H2079 0.960 . S
H2064 C2048 0.931 . S
H2065 C2053 0.929 . S
H2066 C2054 0.960 . S
H2067 C2054 0.962 . S
H2068 C2054 0.960 . S
H2069 C2055 0.961 . S
H2070 C2055 0.961 . S
H2071 C2055 0.961 . S
H2072 C2056 0.931 . S
H2073 C2061 0.930 . S
H2074 C2062 0.956 . S
H2075 C2062 0.961 . S
H2076 C2062 0.961 . S
H2077 C2063 0.958 . S
H2078 C2063 0.961 . S
H2079 C2063 0.960 . S
C2080 C2081 1.391 . S
C2080 C2082 1.394 . S
C2080 H2096 0.931 . S
C2081 C2080 1.391 . S
C2081 C2085 1.376 . S
C2082 C2080 1.394 . S
C2082 C2083 1.369 . S
C2082 C2086 1.531 . S
C2083 C2082 1.369 . S
C2083 C2084 1.410 . S
C2083 C2091 1.503 . S
C2084 C2083 1.410 . S
C2084 C2085 1.392 . S
C2084 C2087 1.511 . S
C2085 C2081 1.376 . S
C2085 C2084 1.392 . S
C2085 H2097 0.929 . S
C2086 C2082 1.531 . S
C2086 H2098 0.960 . S
C2086 H2099 0.962 . S
C2086 H2100 0.960 . S
C2087 C2084 1.511 . S
C2087 H2101 0.961 . S
C2087 H2102 0.961 . S
C2087 H2103 0.961 . S
C2088 C2089 1.370 . S
C2088 C2090 1.363 . S
C2088 H2104 0.931 . S
C2089 C2088 1.370 . S
C2089 C2093 1.408 . S
C2090 C2088 1.363 . S
C2090 C2091 1.370 . S
C2090 C2094 1.524 . S
C2091 C2083 1.503 . S
C2091 C2090 1.370 . S
C2091 C2092 1.403 . S
C2092 C2091 1.403 . S
C2092 C2093 1.404 . S
C2092 C2095 1.539 . S
C2093 C2089 1.408 . S
C2093 C2092 1.404 . S
C2093 H2105 0.930 . S
C2094 C2090 1.524 . S
C2094 H2106 0.956 . S
C2094 H2107 0.961 . S
C2094 H2108 0.961 . S
C2095 C2092 1.539 . S
C2095 H2109 0.958 . S
C2095 H2110 0.961 . S
C2095 H2111 0.960 . S
H2096 C2080 0.931 . S
H2097 C2085 0.929 . S
H2098 C2086 0.960 . S
H2099 C2086 0.962 . S
H2100 C2086 0.960 . S
H2101 C2087 0.961 . S
H2102 C2087 0.961 . S
H2103 C2087 0.961 . S
H2104 C2088 0.931 . S
H2105 C2093 0.930 . S
H2106 C2094 0.956 . S
H2107 C2094 0.961 . S
H2108 C2094 0.961 . S
H2109 C2095 0.958 . S
H2110 C2095 0.961 . S
H2111 C2095 0.960 . S
C2112 C2113 1.391 . S
C2112 C2114 1.394 . S
C2112 H2128 0.931 . S
C2113 C2112 1.391 . S
C2113 C2117 1.376 . S
C2114 C2112 1.394 . S
C2114 C2115 1.369 . S
C2114 C2118 1.531 . S
C2115 C2114 1.369 . S
C2115 C2116 1.410 . S
C2115 C2123 1.503 . S
C2116 C2115 1.410 . S
C2116 C2117 1.392 . S
C2116 C2119 1.511 . S
C2117 C2113 1.376 . S
C2117 C2116 1.392 . S
C2117 H2129 0.929 . S
C2118 C2114 1.531 . S
C2118 H2130 0.960 . S
C2118 H2131 0.962 . S
C2118 H2132 0.960 . S
C2119 C2116 1.511 . S
C2119 H2133 0.961 . S
C2119 H2134 0.961 . S
C2119 H2135 0.961 . S
C2120 C2121 1.370 . S
C2120 C2122 1.363 . S
C2120 H2136 0.931 . S
C2121 C2120 1.370 . S
C2121 C2125 1.408 . S
C2122 C2120 1.363 . S
C2122 C2123 1.370 . S
C2122 C2126 1.524 . S
C2123 C2115 1.503 . S
C2123 C2122 1.370 . S
C2123 C2124 1.403 . S
C2124 C2123 1.403 . S
C2124 C2125 1.404 . S
C2124 C2127 1.539 . S
C2125 C2121 1.408 . S
C2125 C2124 1.404 . S
C2125 H2137 0.930 . S
C2126 C2122 1.524 . S
C2126 H2138 0.956 . S
C2126 H2139 0.961 . S
C2126 H2140 0.961 . S
C2127 C2124 1.539 . S
C2127 H2141 0.958 . S
C2127 H2142 0.961 . S
C2127 H2143 0.960 . S
H2128 C2112 0.931 . S
H2129 C2117 0.929 . S
H2130 C2118 0.960 . S
H2131 C2118 0.962 . S
H2132 C2118 0.960 . S
H2133 C2119 0.961 . S
H2134 C2119 0.961 . S
H2135 C2119 0.961 . S
H2136 C2120 0.931 . S
H2137 C2125 0.930 . S
H2138 C2126 0.956 . S
H2139 C2126 0.961 . S
H2140 C2126 0.961 . S
H2141 C2127 0.958 . S
H2142 C2127 0.961 . S
H2143 C2127 0.960 . S
C2144 C2145 1.391 . S
C2144 C2146 1.394 . S
C2144 H2160 0.931 . S
C2145 C2144 1.391 . S
C2145 C2149 1.376 . S
C2146 C2144 1.394 . S
C2146 C2147 1.369 . S
C2146 C2150 1.531 . S
C2147 C2146 1.369 . S
C2147 C2148 1.410 . S
C2147 C2155 1.503 . S
C2148 C2147 1.410 . S
C2148 C2149 1.392 . S
C2148 C2151 1.511 . S
C2149 C2145 1.376 . S
C2149 C2148 1.392 . S
C2149 H2161 0.929 . S
C2150 C2146 1.531 . S
C2150 H2162 0.960 . S
C2150 H2163 0.962 . S
C2150 H2164 0.960 . S
C2151 C2148 1.511 . S
C2151 H2165 0.961 . S
C2151 H2166 0.961 . S
C2151 H2167 0.961 . S
C2152 C2153 1.370 . S
C2152 C2154 1.363 . S
C2152 H2168 0.931 . S
C2153 C2152 1.370 . S
C2153 C2157 1.408 . S
C2154 C2152 1.363 . S
C2154 C2155 1.370 . S
C2154 C2158 1.524 . S
C2155 C2147 1.503 . S
C2155 C2154 1.370 . S
C2155 C2156 1.403 . S
C2156 C2155 1.403 . S
C2156 C2157 1.404 . S
C2156 C2159 1.539 . S
C2157 C2153 1.408 . S
C2157 C2156 1.404 . S
C2157 H2169 0.930 . S
C2158 C2154 1.524 . S
C2158 H2170 0.956 . S
C2158 H2171 0.961 . S
C2158 H2172 0.961 . S
C2159 C2156 1.539 . S
C2159 H2173 0.958 . S
C2159 H2174 0.961 . S
C2159 H2175 0.960 . S
H2160 C2144 0.931 . S
H2161 C2149 0.929 . S
H2162 C2150 0.960 . S
H2163 C2150 0.962 . S
H2164 C2150 0.960 . S
H2165 C2151 0.961 . S
H2166 C2151 0.961 . S
H2167 C2151 0.961 . S
H2168 C2152 0.931 . S
H2169 C2157 0.930 . S
H2170 C2158 0.956 . S
H2171 C2158 0.961 . S
H2172 C2158 0.961 . S
H2173 C2159 0.958 . S
H2174 C2159 0.961 . S
H2175 C2159 0.960 . S
C2176 C2177 1.391 . S
C2176 C2178 1.394 . S
C2176 H2192 0.931 . S
C2177 C2176 1.391 . S
C2177 C2181 1.376 . S
C2178 C2176 1.394 . S
C2178 C2179 1.369 . S
C2178 C2182 1.531 . S
C2179 C2178 1.369 . S
C2179 C2180 1.410 . S
C2179 C2187 1.503 . S
C2180 C2179 1.410 . S
C2180 C2181 1.392 . S
C2180 C2183 1.511 . S
C2181 C2177 1.376 . S
C2181 C2180 1.392 . S
C2181 H2193 0.929 . S
C2182 C2178 1.531 . S
C2182 H2194 0.960 . S
C2182 H2195 0.962 . S
C2182 H2196 0.960 . S
C2183 C2180 1.511 . S
C2183 H2197 0.961 . S
C2183 H2198 0.961 . S
C2183 H2199 0.961 . S
C2184 C2185 1.370 . S
C2184 C2186 1.363 . S
C2184 H2200 0.931 . S
C2185 C2184 1.370 . S
C2185 C2189 1.408 . S
C2186 C2184 1.363 . S
C2186 C2187 1.370 . S
C2186 C2190 1.524 . S
C2187 C2179 1.503 . S
C2187 C2186 1.370 . S
C2187 C2188 1.403 . S
C2188 C2187 1.403 . S
C2188 C2189 1.404 . S
C2188 C2191 1.539 . S
C2189 C2185 1.408 . S
C2189 C2188 1.404 . S
C2189 H2201 0.930 . S
C2190 C2186 1.524 . S
C2190 H2202 0.956 . S
C2190 H2203 0.961 . S
C2190 H2204 0.961 . S
C2191 C2188 1.539 . S
C2191 H2205 0.958 . S
C2191 H2206 0.961 . S
C2191 H2207 0.960 . S
H2192 C2176 0.931 . S
H2193 C2181 0.929 . S
H2194 C2182 0.960 . S
H2195 C2182 0.962 . S
H2196 C2182 0.960 . S
H2197 C2183 0.961 . S
H2198 C2183 0.961 . S
H2199 C2183 0.961 . S
H2200 C2184 0.931 . S
H2201 C2189 0.930 . S
H2202 C2190 0.956 . S
H2203 C2190 0.961 . S
H2204 C2190 0.961 . S
H2205 C2191 0.958 . S
H2206 C2191 0.961 . S
H2207 C2191 0.960 . S
C2208 C2209 1.391 . S
C2208 C2210 1.394 . S
C2208 H2224 0.931 . S
C2209 C2208 1.391 . S
C2209 C2213 1.376 . S
C2210 C2208 1.394 . S
C2210 C2211 1.369 . S
C2210 C2214 1.531 . S
C2211 C2210 1.369 . S
C2211 C2212 1.410 . S
C2211 C2219 1.503 . S
C2212 C2211 1.410 . S
C2212 C2213 1.392 . S
C2212 C2215 1.511 . S
C2213 C2209 1.376 . S
C2213 C2212 1.392 . S
C2213 H2225 0.929 . S
C2214 C2210 1.531 . S
C2214 H2226 0.960 . S
C2214 H2227 0.962 . S
C2214 H2228 0.960 . S
C2215 C2212 1.511 . S
C2215 H2229 0.961 . S
C2215 H2230 0.961 . S
C2215 H2231 0.961 . S
C2216 C2217 1.370 . S
C2216 C2218 1.363 . S
C2216 H2232 0.931 . S
C2217 C2216 1.370 . S
C2217 C2221 1.408 . S
C2218 C2216 1.363 . S
C2218 C2219 1.370 . S
C2218 C2222 1.524 . S
C2219 C2211 1.503 . S
C2219 C2218 1.370 . S
C2219 C2220 1.403 . S
C2220 C2219 1.403 . S
C2220 C2221 1.404 . S
C2220 C2223 1.539 . S
C2221 C2217 1.408 . S
C2221 C2220 1.404 . S
C2221 H2233 0.930 . S
C2222 C2218 1.524 . S
C2222 H2234 0.956 . S
C2222 H2235 0.961 . S
C2222 H2236 0.961 . S
C2223 C2220 1.539 . S
C2223 H2237 0.958 . S
C2223 H2238 0.961 . S
C2223 H2239 0.960 . S
H2224 C2208 0.931 . S
H2225 C2213 0.929 . S
H2226 C2214 0.960 . S
H2227 C2214 0.962 . S
H2228 C2214 0.960 . S
H2229 C2215 0.961 . S
H2230 C2215 0.961 . S
H2231 C2215 0.961 . S
H2232 C2216 0.931 . S
H2233 C2221 0.930 . S
H2234 C2222 0.956 . S
H2235 C2222 0.961 . S
H2236 C2222 0.961 . S
H2237 C2223 0.958 . S
H2238 C2223 0.961 . S
H2239 C2223 0.960 . S
C2240 C2241 1.391 . S
C2240 C2242 1.394 . S
C2240 H2256 0.931 . S
C2241 C2240 1.391 . S
C2241 C2245 1.376 . S
C2242 C2240 1.394 . S
C2242 C2243 1.369 . S
C2242 C2246 1.531 . S
C2243 C2242 1.369 . S
C2243 C2244 1.410 . S
C2243 C2251 1.503 . S
C2244 C2243 1.410 . S
C2244 C2245 1.392 . S
C2244 C2247 1.511 . S
C2245 C2241 1.376 . S
C2245 C2244 1.392 . S
C2245 H2257 0.929 . S
C2246 C2242 1.531 . S
C2246 H2258 0.960 . S
C2246 H2259 0.962 . S
C2246 H2260 0.960 . S
C2247 C2244 1.511 . S
C2247 H2261 0.961 . S
C2247 H2262 0.961 . S
C2247 H2263 0.961 . S
C2248 C2249 1.370 . S
C2248 C2250 1.363 . S
C2248 H2264 0.931 . S
C2249 C2248 1.370 . S
C2249 C2253 1.408 . S
C2250 C2248 1.363 . S
C2250 C2251 1.370 . S
C2250 C2254 1.524 . S
C2251 C2243 1.503 . S
C2251 C2250 1.370 . S
C2251 C2252 1.403 . S
C2252 C2251 1.403 . S
C2252 C2253 1.404 . S
C2252 C2255 1.539 . S
C2253 C2249 1.408 . S
C2253 C2252 1.404 . S
C2253 H2265 0.930 . S
C2254 C2250 1.524 . S
C2254 H2266 0.956 . S
C2254 H2267 0.961 . S
C2254 H2268 0.961 . S
C2255 C2252 1.539 . S
C2255 H2269 0.958 . S
C2255 H2270 0.961 . S
C2255 H2271 0.960 . S
H2256 C2240 0.931 . S
H2257 C2245 0.929 . S
H2258 C2246 0.960 . S
H2259 C2246 0.962 . S
H2260 C2246 0.960 . S
H2261 C2247 0.961 . S
H2262 C2247 0.961 . S
H2263 C2247 0.961 . S
H2264 C2248 0.931 . S
H2265 C2253 0.930 . S
H2266 C2254 0.956 . S
H2267 C2254 0.961 . S
H2268 C2254 0.961 . S
H2269 C2255 0.958 . S
H2270 C2255 0.961 . S
H2271 C2255 0.960 . S
C2272 C2273 1.391 . S
C2272 C2274 1.394 . S
C2272 H2288 0.931 . S
C2273 C2272 1.391 . S
C2273 C2277 1.376 . S
C2274 C2272 1.394 . S
C2274 C2275 1.369 . S
C2274 C2278 1.531 . S
C2275 C2274 1.369 . S
C2275 C2276 1.410 . S
C2275 C2283 1.503 . S
C2276 C2275 1.410 . S
C2276 C2277 1.392 . S
C2276 C2279 1.511 . S
C2277 C2273 1.376 . S
C2277 C2276 1.392 . S
C2277 H2289 0.929 . S
C2278 C2274 1.531 . S
C2278 H2290 0.960 . S
C2278 H2291 0.962 . S
C2278 H2292 0.960 . S
C2279 C2276 1.511 . S
C2279 H2293 0.961 . S
C2279 H2294 0.961 . S
C2279 H2295 0.961 . S
C2280 C2281 1.370 . S
C2280 C2282 1.363 . S
C2280 H2296 0.931 . S
C2281 C2280 1.370 . S
C2281 C2285 1.408 . S
C2282 C2280 1.363 . S
C2282 C2283 1.370 . S
C2282 C2286 1.524 . S
C2283 C2275 1.503 . S
C2283 C2282 1.370 . S
C2283 C2284 1.403 . S
C2284 C2283 1.403 . S
C2284 C2285 1.404 . S
C2284 C2287 1.539 . S
C2285 C2281 1.408 . S
C2285 C2284 1.404 . S
C2285 H2297 0.930 . S
C2286 C2282 1.524 . S
C2286 H2298 0.956 . S
C2286 H2299 0.961 . S
C2286 H2300 0.961 . S
C2287 C2284 1.539 . S
C2287 H2301 0.958 . S
C2287 H2302 0.961 . S
C2287 H2303 0.960 . S
H2288 C2272 0.931 . S
H2289 C2277 0.929 . S
H2290 C2278 0.960 . S
H2291 C2278 0.962 . S
H2292 C2278 0.960 . S
H2293 C2279 0.961 . S
H2294 C2279 0.961 . S
H2295 C2279 0.961 . S
H2296 C2280 0.931 . S
H2297 C2285 0.930 . S
H2298 C2286 0.956 . S
H2299 C2286 0.961 . S
H2300 C2286 0.961 . S
H2301 C2287 0.958 . S
H2302 C2287 0.961 . S
H2303 C2287 0.960 . S
C2304 C2305 1.391 . S
C2304 C2306 1.394 . S
C2304 H2320 0.931 . S
C2305 C2304 1.391 . S
C2305 C2309 1.376 . S
C2306 C2304 1.394 . S
C2306 C2307 1.369 . S
C2306 C2310 1.531 . S
C2307 C2306 1.369 . S
C2307 C2308 1.410 . S
C2307 C2315 1.503 . S
C2308 C2307 1.410 . S
C2308 C2309 1.392 . S
C2308 C2311 1.511 . S
C2309 C2305 1.376 . S
C2309 C2308 1.392 . S
C2309 H2321 0.929 . S
C2310 C2306 1.531 . S
C2310 H2322 0.960 . S
C2310 H2323 0.962 . S
C2310 H2324 0.960 . S
C2311 C2308 1.511 . S
C2311 H2325 0.961 . S
C2311 H2326 0.961 . S
C2311 H2327 0.961 . S
C2312 C2313 1.370 . S
C2312 C2314 1.363 . S
C2312 H2328 0.931 . S
C2313 C2312 1.370 . S
C2313 C2317 1.408 . S
C2314 C2312 1.363 . S
C2314 C2315 1.370 . S
C2314 C2318 1.524 . S
C2315 C2307 1.503 . S
C2315 C2314 1.370 . S
C2315 C2316 1.403 . S
C2316 C2315 1.403 . S
C2316 C2317 1.404 . S
C2316 C2319 1.539 . S
C2317 C2313 1.408 . S
C2317 C2316 1.404 . S
C2317 H2329 0.930 . S
C2318 C2314 1.524 . S
C2318 H2330 0.956 . S
C2318 H2331 0.961 . S
C2318 H2332 0.961 . S
C2319 C2316 1.539 . S
C2319 H2333 0.958 . S
C2319 H2334 0.961 . S
C2319 H2335 0.960 . S
H2320 C2304 0.931 . S
H2321 C2309 0.929 . S
H2322 C2310 0.960 . S
H2323 C2310 0.962 . S
H2324 C2310 0.960 . S
H2325 C2311 0.961 . S
H2326 C2311 0.961 . S
H2327 C2311 0.961 . S
H2328 C2312 0.931 . S
H2329 C2317 0.930 . S
H2330 C2318 0.956 . S
H2331 C2318 0.961 . S
H2332 C2318 0.961 . S
H2333 C2319 0.958 . S
H2334 C2319 0.961 . S
H2335 C2319 0.960 . S
C2336 C2337 1.391 . S
C2336 C2338 1.394 . S
C2336 H2352 0.931 . S
C2337 C2336 1.391 . S
C2337 C2341 1.376 . S
C2338 C2336 1.394 . S
C2338 C2339 1.369 . S
C2338 C2342 1.531 . S
C2339 C2338 1.369 . S
C2339 C2340 1.410 . S
C2339 C2347 1.503 . S
C2340 C2339 1.410 . S
C2340 C2341 1.392 . S
C2340 C2343 1.511 . S
C2341 C2337 1.376 . S
C2341 C2340 1.392 . S
C2341 H2353 0.929 . S
C2342 C2338 1.531 . S
C2342 H2354 0.960 . S
C2342 H2355 0.962 . S
C2342 H2356 0.960 . S
C2343 C2340 1.511 . S
C2343 H2357 0.961 . S
C2343 H2358 0.961 . S
C2343 H2359 0.961 . S
C2344 C2345 1.370 . S
C2344 C2346 1.363 . S
C2344 H2360 0.931 . S
C2345 C2344 1.370 . S
C2345 C2349 1.408 . S
C2346 C2344 1.363 . S
C2346 C2347 1.370 . S
C2346 C2350 1.524 . S
C2347 C2339 1.503 . S
C2347 C2346 1.370 . S
C2347 C2348 1.403 . S
C2348 C2347 1.403 . S
C2348 C2349 1.404 . S
C2348 C2351 1.539 . S
C2349 C2345 1.408 . S
C2349 C2348 1.404 . S
C2349 H2361 0.930 . S
C2350 C2346 1.524 . S
C2350 H2362 0.956 . S
C2350 H2363 0.961 . S
C2350 H2364 0.961 . S
C2351 C2348 1.539 . S
C2351 H2365 0.958 . S
C2351 H2366 0.961 . S
C2351 H2367 0.960 . S
H2352 C2336 0.931 . S
H2353 C2341 0.929 . S
H2354 C2342 0.960 . S
H2355 C2342 0.962 . S
H2356 C2342 0.960 . S
H2357 C2343 0.961 . S
H2358 C2343 0.961 . S
H2359 C2343 0.961 . S
H2360 C2344 0.931 . S
H2361 C2349 0.930 . S
H2362 C2350 0.956 . S
H2363 C2350 0.961 . S
H2364 C2350 0.961 . S
H2365 C2351 0.958 . S
H2366 C2351 0.961 . S
H2367 C2351 0.960 . S
C2368 C2369 1.391 . S
C2368 C2370 1.394 . S
C2368 H2384 0.931 . S
C2369 C2368 1.391 . S
C2369 C2373 1.376 . S
C2370 C2368 1.394 . S
C2370 C2371 1.369 . S
C2370 C2374 1.531 . S
C2371 C2370 1.369 . S
C2371 C2372 1.410 . S
C2371 C2379 1.503 . S
C2372 C2371 1.410 . S
C2372 C2373 1.392 . S
C2372 C2375 1.511 . S
C2373 C2369 1.376 . S
C2373 C2372 1.392 . S
C2373 H2385 0.929 . S
C2374 C2370 1.531 . S
C2374 H2386 0.960 . S
C2374 H2387 0.962 . S
C2374 H2388 0.960 . S
C2375 C2372 1.511 . S
C2375 H2389 0.961 . S
C2375 H2390 0.961 . S
C2375 H2391 0.961 . S
C2376 C2377 1.370 . S
C2376 C2378 1.363 . S
C2376 H2392 0.931 . S
C2377 C2376 1.370 . S
C2377 C2381 1.408 . S
C2378 C2376 1.363 . S
C2378 C2379 1.370 . S
C2378 C2382 1.524 . S
C2379 C2371 1.503 . S
C2379 C2378 1.370 . S
C2379 C2380 1.403 . S
C2380 C2379 1.403 . S
C2380 C2381 1.404 . S
C2380 C2383 1.539 . S
C2381 C2377 1.408 . S
C2381 C2380 1.404 . S
C2381 H2393 0.930 . S
C2382 C2378 1.524 . S
C2382 H2394 0.956 . S
C2382 H2395 0.961 . S
C2382 H2396 0.961 . S
C2383 C2380 1.539 . S
C2383 H2397 0.958 . S
C2383 H2398 0.961 . S
C2383 H2399 0.960 . S
H2384 C2368 0.931 . S
H2385 C2373 0.929 . S
H2386 C2374 0.960 . S
H2387 C2374 0.962 . S
H2388 C2374 0.960 . S
H2389 C2375 0.961 . S
H2390 C2375 0.961 . S
H2391 C2375 0.961 . S
H2392 C2376 0.931 . S
H2393 C2381 0.930 . S
H2394 C2382 0.956 . S
H2395 C2382 0.961 . S
H2396 C2382 0.961 . S
H2397 C2383 0.958 . S
H2398 C2383 0.961 . S
H2399 C2383 0.960 . S
C2400 C2401 1.391 . S
C2400 C2402 1.394 . S
C2400 H2416 0.931 . S
C2401 C2400 1.391 . S
C2401 C2405 1.376 . S
C2402 C2400 1.394 . S
C2402 C2403 1.369 . S
C2402 C2406 1.531 . S
C2403 C2402 1.369 . S
C2403 C2404 1.410 . S
C2403 C2411 1.503 . S
C2404 C2403 1.410 . S
C2404 C2405 1.392 . S
C2404 C2407 1.511 . S
C2405 C2401 1.376 . S
C2405 C2404 1.392 . S
C2405 H2417 0.929 . S
C2406 C2402 1.531 . S
C2406 H2418 0.960 . S
C2406 H2419 0.962 . S
C2406 H2420 0.960 . S
C2407 C2404 1.511 . S
C2407 H2421 0.961 . S
C2407 H2422 0.961 . S
C2407 H2423 0.961 . S
C2408 C2409 1.370 . S
C2408 C2410 1.363 . S
C2408 H2424 0.931 . S
C2409 C2408 1.370 . S
C2409 C2413 1.408 . S
C2410 C2408 1.363 . S
C2410 C2411 1.370 . S
C2410 C2414 1.524 . S
C2411 C2403 1.503 . S
C2411 C2410 1.370 . S
C2411 C2412 1.403 . S
C2412 C2411 1.403 . S
C2412 C2413 1.404 . S
C2412 C2415 1.539 . S
C2413 C2409 1.408 . S
C2413 C2412 1.404 . S
C2413 H2425 0.930 . S
C2414 C2410 1.524 . S
C2414 H2426 0.956 . S
C2414 H2427 0.961 . S
C2414 H2428 0.961 . S
C2415 C2412 1.539 . S
C2415 H2429 0.958 . S
C2415 H2430 0.961 . S
C2415 H2431 0.960 . S
H2416 C2400 0.931 . S
H2417 C2405 0.929 . S
H2418 C2406 0.960 . S
H2419 C2406 0.962 . S
H2420 C2406 0.960 . S
H2421 C2407 0.961 . S
H2422 C2407 0.961 . S
H2423 C2407 0.961 . S
H2424 C2408 0.931 . S
H2425 C2413 0.930 . S
H2426 C2414 0.956 . S
H2427 C2414 0.961 . S
H2428 C2414 0.961 . S
H2429 C2415 0.958 . S
H2430 C2415 0.961 . S
H2431 C2415 0.960 . S
C1409 C57 1.125 . S
C1417 C1113 1.089 . S
C1441 C117 1.121 . S
C1449 C489 1.094 . S
C1473 C205 1.066 . S
C1481 C1289 1.113 . S
C1505 C665 1.113 . S
C1513 C313 1.090 . S
C1537 C1252 1.137 . S
C1545 C196 1.080 . S
C1569 C645 1.100 . S
C1577 C321 1.095 . S
C1601 C1076 1.133 . S
C1609 C49 1.086 . S
C1633 C469 1.140 . S
C1641 C108 1.083 . S
C1665 C409 1.069 . S
C1673 C761 1.117 . S
C1697 C577 1.057 . S
C1705 C909 1.115 . S
C1729 C900 1.071 . S
C1737 C557 1.111 . S
C1761 C372 1.098 . S
C1769 C753 1.094 . S
C1793 C1201 1.081 . S
C1801 C841 1.111 . S
C1825 C1025 1.073 . S
C1833 C1377 1.107 . S
C1857 C1017 1.060 . S
C1865 C1340 1.113 . S
C1889 C849 1.137 . S
C1897 C1164 1.085 . S
C1921 C997 1.626 . S
C1929 C20 1.645 . S
C1953 C733 1.621 . S
C1961 C137 1.659 . S
C1985 C225 1.630 . S
C1993 C812 1.655 . S
C2017 C937 1.632 . S
C2025 C293 1.651 . S
C2049 C988 1.663 . S
C2057 C233 1.642 . S
C2081 C284 1.662 . S
C2089 C724 1.649 . S
C2113 C821 1.624 . S
C2121 C29 1.649 . S
C2145 C929 1.662 . S
C2153 C145 1.631 . S
C2177 C401 1.665 . S
C2185 C1349 1.643 . S
C2209 C1085 1.650 . S
C2217 C497 1.640 . S
C2241 C585 1.636 . S
C2249 C1173 1.657 . S
C2273 C673 1.652 . S
C2281 C1261 1.655 . S
C2305 C548 1.641 . S
C2313 C1369 1.649 . S
C2337 C1105 1.655 . S
C2345 C636 1.638 . S
C2369 C1193 1.624 . S
C2377 C381 1.657 . S
C2401 C1281 1.651 . S
C2409 C460 1.652 . S
