# Generated by pormake.
# Topology zfo, (5)-cn, num edge types: 1
# Building blocks:
#     Node 0, Type 0, BuildingBlock: BEQFEK_clean_sbu_0, # of connection points: 5
#     Node 1, Type 0, BuildingBlock: BEQFEK_clean_sbu_0, # of connection points: 5
#     Node 2, Type 0, BuildingBlock: BEQFEK_clean_sbu_0, # of connection points: 5
#     Node 3, Type 0, BuildingBlock: BEQFEK_clean_sbu_0, # of connection points: 5
#     Node 4, Type 0, BuildingBlock: BEQFEK_clean_sbu_0, # of connection points: 5
#     Node 5, Type 0, BuildingBlock: BEQFEK_clean_sbu_0, # of connection points: 5
#     Node 6, Type 0, BuildingBlock: BEQFEK_clean_sbu_0, # of connection points: 5
#     Node 7, Type 0, BuildingBlock: BEQFEK_clean_sbu_0, # of connection points: 5
#     Node 8, Type 0, BuildingBlock: BEQFEK_clean_sbu_0, # of connection points: 5
#     Node 9, Type 0, BuildingBlock: BEQFEK_clean_sbu_0, # of connection points: 5
#     Node 10, Type 0, BuildingBlock: BEQFEK_clean_sbu_0, # of connection points: 5
#     Node 11, Type 0, BuildingBlock: BEQFEK_clean_sbu_0, # of connection points: 5
#     Node 12, Type 0, BuildingBlock: BEQFEK_clean_sbu_0, # of connection points: 5
#     Node 13, Type 0, BuildingBlock: BEQFEK_clean_sbu_0, # of connection points: 5
#     Node 14, Type 0, BuildingBlock: BEQFEK_clean_sbu_0, # of connection points: 5
#     Node 15, Type 0, BuildingBlock: BEQFEK_clean_sbu_0, # of connection points: 5
#     Edge 16, Type (0, 0), BuildingBlock: AJUNOK_clean_linker_0, # of connection points: 2
#     Edge 17, Type (0, 0), BuildingBlock: AJUNOK_clean_linker_0, # of connection points: 2
#     Edge 18, Type (0, 0), BuildingBlock: AJUNOK_clean_linker_0, # of connection points: 2
#     Edge 19, Type (0, 0), BuildingBlock: AJUNOK_clean_linker_0, # of connection points: 2
#     Edge 20, Type (0, 0), BuildingBlock: AJUNOK_clean_linker_0, # of connection points: 2
#     Edge 21, Type (0, 0), BuildingBlock: AJUNOK_clean_linker_0, # of connection points: 2
#     Edge 22, Type (0, 0), BuildingBlock: AJUNOK_clean_linker_0, # of connection points: 2
#     Edge 23, Type (0, 0), BuildingBlock: AJUNOK_clean_linker_0, # of connection points: 2
#     Edge 24, Type (0, 0), BuildingBlock: AJUNOK_clean_linker_0, # of connection points: 2
#     Edge 25, Type (0, 0), BuildingBlock: AJUNOK_clean_linker_0, # of connection points: 2
#     Edge 26, Type (0, 0), BuildingBlock: AJUNOK_clean_linker_0, # of connection points: 2
#     Edge 27, Type (0, 0), BuildingBlock: AJUNOK_clean_linker_0, # of connection points: 2
#     Edge 28, Type (0, 0), BuildingBlock: AJUNOK_clean_linker_0, # of connection points: 2
#     Edge 29, Type (0, 0), BuildingBlock: AJUNOK_clean_linker_0, # of connection points: 2
#     Edge 30, Type (0, 0), BuildingBlock: AJUNOK_clean_linker_0, # of connection points: 2
#     Edge 31, Type (0, 0), BuildingBlock: AJUNOK_clean_linker_0, # of connection points: 2
#     Edge 32, Type (0, 0), BuildingBlock: AJUNOK_clean_linker_0, # of connection points: 2
#     Edge 33, Type (0, 0), BuildingBlock: AJUNOK_clean_linker_0, # of connection points: 2
#     Edge 34, Type (0, 0), BuildingBlock: AJUNOK_clean_linker_0, # of connection points: 2
#     Edge 35, Type (0, 0), BuildingBlock: AJUNOK_clean_linker_0, # of connection points: 2
#     Edge 36, Type (0, 0), BuildingBlock: AJUNOK_clean_linker_0, # of connection points: 2
#     Edge 37, Type (0, 0), BuildingBlock: AJUNOK_clean_linker_0, # of connection points: 2
#     Edge 38, Type (0, 0), BuildingBlock: AJUNOK_clean_linker_0, # of connection points: 2
#     Edge 39, Type (0, 0), BuildingBlock: AJUNOK_clean_linker_0, # of connection points: 2
#     Edge 40, Type (0, 0), BuildingBlock: AJUNOK_clean_linker_0, # of connection points: 2
#     Edge 41, Type (0, 0), BuildingBlock: AJUNOK_clean_linker_0, # of connection points: 2
#     Edge 42, Type (0, 0), BuildingBlock: AJUNOK_clean_linker_0, # of connection points: 2
#     Edge 43, Type (0, 0), BuildingBlock: AJUNOK_clean_linker_0, # of connection points: 2
#     Edge 44, Type (0, 0), BuildingBlock: AJUNOK_clean_linker_0, # of connection points: 2
#     Edge 45, Type (0, 0), BuildingBlock: AJUNOK_clean_linker_0, # of connection points: 2
#     Edge 46, Type (0, 0), BuildingBlock: AJUNOK_clean_linker_0, # of connection points: 2
#     Edge 47, Type (0, 0), BuildingBlock: AJUNOK_clean_linker_0, # of connection points: 2
#     Edge 48, Type (0, 0), BuildingBlock: AJUNOK_clean_linker_0, # of connection points: 2
#     Edge 49, Type (0, 0), BuildingBlock: AJUNOK_clean_linker_0, # of connection points: 2
#     Edge 50, Type (0, 0), BuildingBlock: AJUNOK_clean_linker_0, # of connection points: 2
#     Edge 51, Type (0, 0), BuildingBlock: AJUNOK_clean_linker_0, # of connection points: 2
#     Edge 52, Type (0, 0), BuildingBlock: AJUNOK_clean_linker_0, # of connection points: 2
#     Edge 53, Type (0, 0), BuildingBlock: AJUNOK_clean_linker_0, # of connection points: 2
#     Edge 54, Type (0, 0), BuildingBlock: AJUNOK_clean_linker_0, # of connection points: 2
#     Edge 55, Type (0, 0), BuildingBlock: AJUNOK_clean_linker_0, # of connection points: 2
# Relax obj value: 0.187
# Max RMSD: 0.173
# Mean RMSD: 0.165
data_MOF--net-zfo--node1-BEQFEK_clean_sbu_0--edge1-AJUNOK_clean_linker_0
_symmetry_space_group_name_H-M    P1
_symmetry_Int_Tables_number       1
_symmetry_cell_setting            triclinic
loop_
_symmetry_equiv_pos_as_xyz
'x, y, z'
_cell_length_a     25.189625
_cell_length_b     25.197701
_cell_length_c     50.786406
_cell_angle_alpha  90.002447
_cell_angle_beta   89.920097
_cell_angle_gamma 89.976719
loop_
_atom_site_label
_atom_site_type_symbol
_atom_site_fract_x
_atom_site_fract_y
_atom_site_fract_z
_atom_type_partial_charge
Co0 Co 0.08644 0.20206 0.09365 0.0
Co1 Co 0.08854 0.19655 0.15564 0.0
C2 C 0.01872 0.27359 0.1259 0.0
O3 O 0.03514 0.25967 0.10318 0.0
O4 O 0.03637 0.25143 0.14655 0.0
C5 C 0.10834 0.23985 0.04008 0.0
O6 O 0.1218 0.28508 0.05102 0.0
C7 C 0.12289 0.2478 0.2039 0.0
C8 C 0.12365 0.18203 0.23252 0.0
C9 C 0.13798 0.23499 0.22956 0.0
N10 N 0.10264 0.20422 0.19238 0.0
N11 N 0.10211 0.16529 0.20976 0.0
C12 C 0.12892 0.29969 0.18981 0.0
H13 H 0.10061 0.30261 0.17329 0.0
H14 H 0.16933 0.30244 0.18123 0.0
H15 H 0.12243 0.33339 0.20351 0.0
C16 C 0.20479 0.21022 0.103 0.0
N17 N 0.15361 0.20839 0.1112 0.0
N18 N 0.15316 0.2031 0.13702 0.0
C19 C 0.20339 0.19981 0.14585 0.0
C20 C 0.23758 0.2054 0.12486 0.0
C21 C 0.22199 0.21536 0.07493 0.0
H22 H 0.19955 0.18699 0.06252 0.0
H23 H 0.21334 0.25615 0.06802 0.0
H24 H 0.26517 0.20823 0.07261 0.0
O25 O 0.05405 0.13223 0.10385 0.0
O26 O 0.05716 0.12716 0.14756 0.0
H27 H 0.19011 0.15492 0.18124 0.0
H28 H 0.25883 0.16428 0.17317 0.0
C29 C 0.21917 0.18349 0.17313 0.0
H30 H 0.2215 0.21898 0.18594 0.0
H31 H 0.08963 0.12668 0.20566 0.0
O32 O 0.09364 0.2011 0.0544 0.0
C33 C 0.04507 0.1072 0.12529 0.0
Co34 Co 0.80438 0.08978 0.5932 0.0
Co35 Co 0.79992 0.09041 0.65502 0.0
C36 C 0.72764 0.02212 0.62288 0.0
O37 O 0.74801 0.03713 0.60121 0.0
O38 O 0.74378 0.04026 0.64476 0.0
C39 C 0.76514 0.10875 0.54081 0.0
O40 O 0.72005 0.11935 0.55269 0.0
C41 C 0.74574 0.1204 0.7029 0.0
C42 C 0.81124 0.13135 0.7312 0.0
C43 C 0.75726 0.13987 0.72778 0.0
N44 N 0.79112 0.10391 0.69167 0.0
N45 N 0.82997 0.10899 0.70895 0.0
C46 C 0.69272 0.11645 0.68979 0.0
H47 H 0.69136 0.14386 0.6727 0.0
H48 H 0.65973 0.1251 0.70362 0.0
H49 H 0.68736 0.07562 0.68225 0.0
C50 C 0.79282 0.20742 0.60258 0.0
N51 N 0.79432 0.15626 0.61069 0.0
N52 N 0.7961 0.1555 0.63661 0.0
C53 C 0.79783 0.20562 0.64565 0.0
C54 C 0.79443 0.24001 0.62464 0.0
C55 C 0.79094 0.22464 0.57442 0.0
H56 H 0.75147 0.21475 0.56616 0.0
H57 H 0.79712 0.26801 0.57239 0.0
H58 H 0.8215 0.20298 0.56291 0.0
O59 O 0.87391 0.05889 0.60448 0.0
O60 O 0.86942 0.05808 0.6482 0.0
H61 H 0.82644 0.26234 0.67443 0.0
H62 H 0.77526 0.21853 0.68567 0.0
C63 C 0.81124 0.22107 0.67332 0.0
H64 H 0.84222 0.19428 0.68115 0.0
H65 H 0.86972 0.10048 0.70495 0.0
O66 O 0.80598 0.09703 0.55428 0.0
C67 C 0.89425 0.04817 0.62689 0.0
Co68 Co 0.91135 0.79923 0.09487 0.0
Co69 Co 0.90579 0.80736 0.1569 0.0
C70 C 0.98014 0.73179 0.1286 0.0
O71 O 0.96436 0.74429 0.1056 0.0
O72 O 0.96051 0.75397 0.14884 0.0
C73 C 0.92403 0.7635 0.04102 0.0
O74 O 0.95405 0.72703 0.05192 0.0
C75 C 0.86904 0.75385 0.20381 0.0
C76 C 0.86366 0.81771 0.23343 0.0
C77 C 0.8513 0.76471 0.22915 0.0
N78 N 0.88878 0.79871 0.19333 0.0
N79 N 0.88641 0.83659 0.21128 0.0
C80 C 0.86711 0.70203 0.18937 0.0
H81 H 0.90326 0.6968 0.17734 0.0
H82 H 0.833 0.70209 0.17558 0.0
H83 H 0.86353 0.66812 0.2032 0.0
C84 C 0.79469 0.78501 0.1027 0.0
N85 N 0.84475 0.79022 0.11185 0.0
N86 N 0.84284 0.79811 0.13745 0.0
C87 C 0.79178 0.80059 0.14514 0.0
C88 C 0.75984 0.79142 0.12364 0.0
C89 C 0.7807 0.77697 0.0744 0.0
H90 H 0.78948 0.81391 0.06332 0.0
H91 H 0.80565 0.74485 0.06598 0.0
H92 H 0.73803 0.76702 0.07208 0.0
O93 O 0.94032 0.87077 0.1048 0.0
O94 O 0.93526 0.87756 0.1485 0.0
H95 H 0.80057 0.84737 0.18024 0.0
H96 H 0.73274 0.83549 0.17081 0.0
C97 C 0.77301 0.81772 0.17181 0.0
H98 H 0.77068 0.78278 0.18492 0.0
H99 H 0.89803 0.8758 0.20802 0.0
O100 O 0.90151 0.79775 0.05569 0.0
C101 C 0.94748 0.89699 0.12607 0.0
Co102 Co 0.20114 0.9157 0.5975 0.0
Co103 Co 0.19879 0.91639 0.65955 0.0
C104 C 0.27156 0.98747 0.62811 0.0
O105 O 0.25643 0.96979 0.60587 0.0
O106 O 0.25202 0.96952 0.64937 0.0
C107 C 0.23308 0.92289 0.5426 0.0
O108 O 0.26909 0.95596 0.55153 0.0
C109 C 0.25463 0.88492 0.70628 0.0
C110 C 0.19136 0.87636 0.73609 0.0
C111 C 0.24472 0.86607 0.73146 0.0
N112 N 0.20891 0.903 0.6961 0.0
N113 N 0.1714 0.89911 0.7142 0.0
C114 C 0.30641 0.88598 0.69175 0.0
H115 H 0.30569 0.85599 0.67575 0.0
H116 H 0.34044 0.87845 0.70507 0.0
H117 H 0.31203 0.92529 0.68247 0.0
C118 C 0.21524 0.79971 0.60783 0.0
N119 N 0.21191 0.85074 0.61584 0.0
N120 N 0.20628 0.85156 0.64158 0.0
C121 C 0.20318 0.80148 0.65059 0.0
C122 C 0.21 0.767 0.62974 0.0
C123 C 0.22151 0.78292 0.57977 0.0
H124 H 0.18242 0.78562 0.56983 0.0
H125 H 0.24945 0.80995 0.5695 0.0
H126 H 0.23617 0.74146 0.57841 0.0
O127 O 0.12987 0.94528 0.60795 0.0
O128 O 0.12848 0.94498 0.6518 0.0
H129 H 0.15428 0.81561 0.6845 0.0
H130 H 0.16534 0.74661 0.67754 0.0
C131 C 0.18403 0.78648 0.67752 0.0
H132 H 0.21798 0.78551 0.69127 0.0
H133 H 0.13162 0.90884 0.71108 0.0
O134 O 0.20051 0.9019 0.55871 0.0
C135 C 0.10623 0.9546 0.62979 0.0
Co136 Co 0.59078 0.30206 0.93769 0.0
Co137 Co 0.58935 0.30417 0.87576 0.0
C138 C 0.51924 0.23106 0.90705 0.0
O139 O 0.53672 0.24662 0.92926 0.0
O140 O 0.53692 0.25057 0.88575 0.0
C141 C 0.58723 0.26589 0.99179 0.0
O142 O 0.55851 0.22708 0.98208 0.0
C143 C 0.61685 0.25272 0.82685 0.0
C144 C 0.62188 0.31937 0.79877 0.0
C145 C 0.63223 0.26547 0.80135 0.0
N146 N 0.60032 0.29718 0.83891 0.0
N147 N 0.60206 0.33672 0.82186 0.0
C148 C 0.61914 0.19964 0.84012 0.0
H149 H 0.58537 0.19493 0.85381 0.0
H150 H 0.65616 0.19674 0.85184 0.0
H151 H 0.61791 0.1669 0.82552 0.0
C152 C 0.70671 0.28781 0.92692 0.0
N153 N 0.65569 0.29167 0.919 0.0
N154 N 0.65472 0.29571 0.89317 0.0
C155 C 0.70482 0.29654 0.88395 0.0
C156 C 0.73936 0.2907 0.90486 0.0
C157 C 0.72352 0.28245 0.95501 0.0
H158 H 0.7193 0.32148 0.96491 0.0
H159 H 0.69733 0.25373 0.96528 0.0
H160 H 0.76541 0.26911 0.95651 0.0
O161 O 0.56035 0.37333 0.92817 0.0
O162 O 0.56045 0.37381 0.88438 0.0
H163 H 0.69236 0.34093 0.84841 0.0
H164 H 0.76082 0.32763 0.85544 0.0
C165 C 0.72012 0.3109 0.85632 0.0
H166 H 0.71915 0.27491 0.84381 0.0
H167 H 0.59275 0.37602 0.82643 0.0
O168 O 0.60473 0.30168 0.97638 0.0
C169 C 0.55049 0.39634 0.90627 0.0
Co170 Co 0.70332 0.58481 0.44051 0.0
Co171 Co 0.69756 0.5873 0.37866 0.0
C172 C 0.77373 0.51637 0.40798 0.0
O173 O 0.76008 0.53306 0.43067 0.0
O174 O 0.75195 0.53453 0.38734 0.0
C175 C 0.74297 0.60409 0.49377 0.0
O176 O 0.78829 0.61658 0.48258 0.0
C177 C 0.74723 0.61864 0.32942 0.0
C178 C 0.679 0.62453 0.3024 0.0
C179 C 0.73292 0.63543 0.30432 0.0
N180 N 0.70356 0.60087 0.34186 0.0
N181 N 0.66313 0.60315 0.32538 0.0
C182 C 0.801 0.62053 0.34196 0.0
H183 H 0.80482 0.65758 0.3536 0.0
H184 H 0.83288 0.61905 0.32688 0.0
H185 H 0.80617 0.58677 0.35562 0.0
C186 C 0.71317 0.70291 0.43141 0.0
N187 N 0.71058 0.65193 0.42307 0.0
N188 N 0.70585 0.65182 0.39722 0.0
C189 C 0.70399 0.7022 0.38848 0.0
C190 C 0.70961 0.73605 0.4096 0.0
C191 C 0.71781 0.71952 0.45957 0.0
H192 H 0.68859 0.69746 0.47171 0.0
H193 H 0.75817 0.70976 0.46675 0.0
H194 H 0.71158 0.76281 0.46199 0.0
O195 O 0.63286 0.55361 0.43082 0.0
O196 O 0.62788 0.55706 0.38716 0.0
H197 H 0.65896 0.69132 0.35304 0.0
H198 H 0.67277 0.75937 0.36063 0.0
C199 C 0.6893 0.71855 0.36106 0.0
H200 H 0.72512 0.71801 0.3484 0.0
H201 H 0.62419 0.59309 0.33033 0.0
O202 O 0.70333 0.59127 0.47966 0.0
C203 C 0.60769 0.54521 0.40941 0.0
Co204 Co 0.41783 0.70254 0.93895 0.0
Co205 Co 0.42018 0.70193 0.8769 0.0
C206 C 0.49069 0.77343 0.9088 0.0
O207 O 0.47278 0.75764 0.93091 0.0
O208 O 0.47294 0.75457 0.88738 0.0
C209 C 0.42283 0.73578 0.99365 0.0
O210 O 0.45504 0.77253 0.98466 0.0
C211 C 0.39303 0.75439 0.82815 0.0
C212 C 0.38609 0.68784 0.80014 0.0
C213 C 0.37618 0.74181 0.80285 0.0
N214 N 0.40965 0.70973 0.84 0.0
N215 N 0.40695 0.67029 0.82293 0.0
C216 C 0.39187 0.80737 0.84154 0.0
H217 H 0.42638 0.81158 0.85479 0.0
H218 H 0.35547 0.81051 0.85377 0.0
H219 H 0.39275 0.84019 0.82698 0.0
C220 C 0.30202 0.71732 0.92787 0.0
N221 N 0.35325 0.7139 0.92011 0.0
N222 N 0.35473 0.71072 0.89425 0.0
C223 C 0.30482 0.7102 0.88485 0.0
C224 C 0.26991 0.71536 0.90566 0.0
C225 C 0.28437 0.72041 0.95593 0.0
H226 H 0.28918 0.68081 0.96518 0.0
H227 H 0.30969 0.74896 0.96681 0.0
H228 H 0.24215 0.73269 0.95742 0.0
O229 O 0.44736 0.63102 0.92904 0.0
O230 O 0.44793 0.63173 0.88524 0.0
H231 H 0.31751 0.6661 0.84924 0.0
H232 H 0.24912 0.67986 0.85605 0.0
C233 C 0.28991 0.69631 0.85714 0.0
H234 H 0.29127 0.73246 0.84475 0.0
H235 H 0.41586 0.63086 0.82739 0.0
O236 O 0.40303 0.70235 0.97764 0.0
C237 C 0.45697 0.60836 0.90701 0.0
Co238 Co 0.29981 0.40963 0.43936 0.0
Co239 Co 0.30733 0.4091 0.37728 0.0
C240 C 0.23075 0.47979 0.4073 0.0
O241 O 0.24387 0.46287 0.43003 0.0
O242 O 0.25301 0.46188 0.38668 0.0
C243 C 0.25928 0.40565 0.49268 0.0
O244 O 0.21525 0.42188 0.48144 0.0
C245 C 0.25389 0.37278 0.33042 0.0
C246 C 0.3169 0.37159 0.3002 0.0
C247 C 0.2647 0.35649 0.30484 0.0
N248 N 0.29812 0.39425 0.34067 0.0
N249 N 0.33545 0.39441 0.32237 0.0
C250 C 0.20278 0.36779 0.34534 0.0
H251 H 0.19673 0.4028 0.35807 0.0
H252 H 0.20473 0.33275 0.35852 0.0
H253 H 0.16849 0.36383 0.33179 0.0
C254 C 0.28653 0.29326 0.42908 0.0
N255 N 0.29128 0.34422 0.42112 0.0
N256 N 0.29977 0.34479 0.39557 0.0
C257 C 0.30349 0.29468 0.38672 0.0
C258 C 0.29377 0.26042 0.40733 0.0
C259 C 0.27639 0.27676 0.4569 0.0
H260 H 0.24514 0.30236 0.46563 0.0
H261 H 0.264 0.23456 0.45804 0.0
H262 H 0.3132 0.28234 0.46856 0.0
O263 O 0.37092 0.44026 0.42953 0.0
O264 O 0.37703 0.43894 0.38574 0.0
H265 H 0.34592 0.24049 0.36129 0.0
H266 H 0.29186 0.2749 0.34615 0.0
C267 C 0.32496 0.2792 0.36027 0.0
H268 H 0.35323 0.30953 0.35306 0.0
H269 H 0.37421 0.40763 0.32541 0.0
O270 O 0.29988 0.39714 0.47834 0.0
C271 C 0.39669 0.4495 0.40829 0.0
Co272 Co 0.95857 0.78302 0.87394 0.0
Co273 Co 0.84919 0.83748 0.88149 0.0
C274 C 0.90397 0.78552 0.92683 0.0
O275 O 0.94131 0.77046 0.91173 0.0
O276 O 0.86539 0.81228 0.91772 0.0
C277 C 0.04428 0.71279 0.88373 0.0
O278 O 0.01034 0.68825 0.89911 0.0
C279 C 0.73827 0.84335 0.89697 0.0
C280 C 0.70835 0.91236 0.87468 0.0
C281 C 0.69295 0.87326 0.89234 0.0
N282 N 0.77847 0.86412 0.88297 0.0
N283 N 0.76063 0.90591 0.87 0.0
C284 C 0.74237 0.79217 0.91187 0.0
H285 H 0.77527 0.76755 0.90397 0.0
H286 H 0.70472 0.76944 0.91077 0.0
H287 H 0.75102 0.80092 0.93284 0.0
C288 C 0.90384 0.73718 0.82725 0.0
N289 N 0.90361 0.76368 0.85032 0.0
N290 N 0.85576 0.78217 0.85499 0.0
C291 C 0.82274 0.76409 0.83605 0.0
C292 C 0.85192 0.73519 0.81726 0.0
C293 C 0.9545 0.72358 0.81333 0.0
H294 H 0.98611 0.752 0.81903 0.0
H295 H 0.9677 0.68343 0.81946 0.0
H296 H 0.9495 0.72488 0.79164 0.0
O297 O 0.97491 0.85788 0.86944 0.0
O298 O 0.8979 0.89929 0.87342 0.0
H299 H 0.75526 0.81357 0.82871 0.0
H300 H 0.74247 0.7431 0.82487 0.0
C301 C 0.76402 0.77339 0.83653 0.0
H302 H 0.74924 0.77134 0.85698 0.0
H303 H 0.78376 0.92908 0.8574 0.0
O304 O 0.02724 0.74784 0.86786 0.0
C305 C 0.94799 0.90039 0.86943 0.0
Co306 Co 0.21559 0.94922 0.37633 0.0
Co307 Co 0.161 0.83937 0.38364 0.0
C308 C 0.21079 0.8931 0.42916 0.0
O309 O 0.22631 0.9306 0.41429 0.0
O310 O 0.18458 0.85462 0.41975 0.0
C311 C 0.28617 0.03357 0.38852 0.0
O312 O 0.30555 0.99965 0.40561 0.0
C313 C 0.15575 0.72695 0.39742 0.0
C314 C 0.0886 0.69806 0.37355 0.0
C315 C 0.12758 0.68143 0.391 0.0
N316 N 0.13471 0.76825 0.38428 0.0
N317 N 0.09391 0.75091 0.37042 0.0
C318 C 0.20523 0.73033 0.4137 0.0
H319 H 0.2277 0.76701 0.40918 0.0
H320 H 0.23111 0.69543 0.41009 0.0
H321 H 0.19422 0.73067 0.43485 0.0
C322 C 0.26 0.89279 0.32882 0.0
N323 N 0.2343 0.89407 0.35219 0.0
N324 N 0.21691 0.84622 0.35774 0.0
C325 C 0.23508 0.81205 0.33935 0.0
C326 C 0.26127 0.84041 0.31939 0.0
C327 C 0.27778 0.94191 0.31481 0.0
H328 H 0.2561 0.97707 0.32239 0.0
H329 H 0.3208 0.94795 0.31837 0.0
H330 H 0.27107 0.93826 0.29329 0.0
O331 O 0.14068 0.96708 0.37175 0.0
O332 O 0.1001 0.88939 0.37557 0.0
H333 H 0.19411 0.73735 0.33958 0.0
H334 H 0.26397 0.73283 0.33053 0.0
C335 C 0.23451 0.75311 0.3433 0.0
H336 H 0.24501 0.744 0.36392 0.0
H337 H 0.07087 0.77479 0.35813 0.0
O338 O 0.25328 0.01722 0.37133 0.0
C339 C 0.09844 0.93958 0.37183 0.0
Co340 Co 0.05405 0.22015 0.87521 0.0
Co341 Co 0.16274 0.16171 0.87953 0.0
C342 C 0.11256 0.21376 0.92644 0.0
O343 O 0.07317 0.22834 0.91271 0.0
O344 O 0.15104 0.18868 0.91609 0.0
C345 C 0.96737 0.2874 0.88884 0.0
O346 O 0.99956 0.30443 0.90731 0.0
C347 C 0.27432 0.16081 0.89119 0.0
C348 C 0.30303 0.08403 0.87579 0.0
C349 C 0.31906 0.12921 0.88919 0.0
N350 N 0.23341 0.13524 0.88011 0.0
N351 N 0.25053 0.08908 0.87109 0.0
C352 C 0.27092 0.21635 0.90156 0.0
H353 H 0.23776 0.23801 0.89201 0.0
H354 H 0.30873 0.23795 0.89822 0.0
H355 H 0.26308 0.21501 0.92305 0.0
C356 C 0.11072 0.27403 0.8304 0.0
N357 N 0.10928 0.2413 0.85146 0.0
N358 N 0.15471 0.21562 0.85301 0.0
C359 C 0.18615 0.23066 0.83278 0.0
C360 C 0.1597 0.26876 0.81776 0.0
C361 C 0.06522 0.30827 0.82214 0.0
H362 H 0.04372 0.32313 0.83974 0.0
H363 H 0.07913 0.34222 0.81003 0.0
H364 H 0.03716 0.28416 0.81031 0.0
O365 O 0.03598 0.14458 0.86961 0.0
O366 O 0.1127 0.10192 0.87284 0.0
H367 H 0.24956 0.21159 0.8054 0.0
H368 H 0.26899 0.21838 0.83947 0.0
C369 C 0.23748 0.20383 0.82606 0.0
H370 H 0.23349 0.1604 0.82888 0.0
H371 H 0.22658 0.06131 0.86155 0.0
O372 O 0.98548 0.25728 0.87081 0.0
C373 C 0.06255 0.10163 0.86935 0.0
Co374 Co 0.78049 0.04782 0.37585 0.0
Co375 Co 0.83603 0.15801 0.38089 0.0
C376 C 0.78532 0.10797 0.42725 0.0
O377 O 0.77117 0.06859 0.41335 0.0
O378 O 0.81066 0.14645 0.41722 0.0
C379 C 0.71226 0.96242 0.39004 0.0
O380 O 0.69393 0.99586 0.40766 0.0
C381 C 0.84415 0.26994 0.39457 0.0
C382 C 0.90986 0.29873 0.3696 0.0
C383 C 0.87322 0.31499 0.38836 0.0
N384 N 0.86315 0.22892 0.3805 0.0
N385 N 0.90298 0.24618 0.36586 0.0
C386 C 0.79496 0.26702 0.41118 0.0
H387 H 0.7686 0.23469 0.40425 0.0
H388 H 0.77278 0.30506 0.41071 0.0
H389 H 0.80641 0.25849 0.43183 0.0
C390 C 0.73473 0.10039 0.32825 0.0
N391 N 0.76138 0.10157 0.35126 0.0
N392 N 0.77964 0.14966 0.35533 0.0
C393 C 0.76061 0.18204 0.33639 0.0
C394 C 0.73198 0.1521 0.31784 0.0
C395 C 0.72187 0.04905 0.31486 0.0
H396 H 0.74971 0.01763 0.32149 0.0
H397 H 0.68126 0.03633 0.32052 0.0
H398 H 0.72478 0.05288 0.29314 0.0
O399 O 0.85453 0.02971 0.37093 0.0
O400 O 0.897 0.10637 0.37391 0.0
H401 H 0.80703 0.25163 0.32882 0.0
H402 H 0.73583 0.26174 0.32608 0.0
C403 C 0.76765 0.24106 0.33712 0.0
H404 H 0.76609 0.25518 0.35768 0.0
H405 H 0.92446 0.22245 0.3528 0.0
O406 O 0.74313 0.9793 0.37202 0.0
C407 C 0.89743 0.05595 0.37068 0.0
Co408 Co 0.45046 0.7157 0.15959 0.0
Co409 Co 0.34038 0.66156 0.15257 0.0
C410 C 0.39367 0.71236 0.10706 0.0
O411 O 0.43128 0.72789 0.12185 0.0
O412 O 0.35551 0.68564 0.11649 0.0
C413 C 0.53607 0.78433 0.14705 0.0
O414 O 0.50188 0.80771 0.13138 0.0
C415 C 0.22773 0.65687 0.13914 0.0
C416 C 0.19861 0.59055 0.16358 0.0
C417 C 0.18209 0.62926 0.14596 0.0
N418 N 0.26907 0.63576 0.15221 0.0
N419 N 0.25157 0.59545 0.16641 0.0
C420 C 0.23117 0.70605 0.12262 0.0
H421 H 0.26786 0.72857 0.12702 0.0
H422 H 0.19626 0.73201 0.12611 0.0
H423 H 0.23152 0.69467 0.10152 0.0
C424 C 0.39467 0.75951 0.20759 0.0
N425 N 0.39581 0.7342 0.18412 0.0
N426 N 0.34787 0.71704 0.1786 0.0
C427 C 0.3138 0.73501 0.19709 0.0
C428 C 0.34229 0.76069 0.21711 0.0
C429 C 0.44386 0.77716 0.22153 0.0
H430 H 0.4791 0.75603 0.21363 0.0
H431 H 0.44953 0.82034 0.21829 0.0
H432 H 0.44052 0.76972 0.24301 0.0
O433 O 0.46766 0.64058 0.1636 0.0
O434 O 0.38989 0.60012 0.16026 0.0
H435 H 0.23863 0.69484 0.19672 0.0
H436 H 0.2348 0.76456 0.20595 0.0
C437 C 0.25485 0.7351 0.1931 0.0
H438 H 0.24594 0.74595 0.1725 0.0
H439 H 0.27544 0.57254 0.17876 0.0
O440 O 0.51952 0.75143 0.16419 0.0
C441 C 0.44018 0.59837 0.16362 0.0
Co442 Co 0.27914 0.45235 0.65749 0.0
Co443 Co 0.34072 0.34552 0.65371 0.0
C444 C 0.28411 0.39277 0.60677 0.0
O445 O 0.26606 0.43089 0.62048 0.0
O446 O 0.31408 0.35789 0.61709 0.0
C447 C 0.21038 0.5391 0.64589 0.0
O448 O 0.19078 0.50689 0.62811 0.0
C449 C 0.34245 0.23393 0.64173 0.0
C450 C 0.41716 0.20476 0.65921 0.0
C451 C 0.37318 0.18881 0.64483 0.0
N452 N 0.36738 0.27485 0.65319 0.0
N453 N 0.41237 0.25744 0.66342 0.0
C454 C 0.28775 0.23762 0.63034 0.0
H455 H 0.26543 0.27061 0.63971 0.0
H456 H 0.26576 0.19985 0.63304 0.0
H457 H 0.29081 0.24603 0.60895 0.0
C458 C 0.22893 0.39689 0.7035 0.0
N459 N 0.26058 0.39803 0.68201 0.0
N460 N 0.28704 0.35303 0.6805 0.0
C461 C 0.27346 0.32221 0.70121 0.0
C462 C 0.23591 0.3487 0.71644 0.0
C463 C 0.19661 0.44307 0.7127 0.0
H464 H 0.22367 0.47428 0.72026 0.0
H465 H 0.1744 0.46013 0.69584 0.0
H466 H 0.16861 0.43131 0.72855 0.0
O467 O 0.3553 0.47173 0.66139 0.0
O468 O 0.39981 0.39584 0.66052 0.0
H469 H 0.34257 0.2745 0.70748 0.0
H470 H 0.28539 0.25413 0.72665 0.0
C471 C 0.29878 0.26994 0.70736 0.0
H472 H 0.28838 0.24098 0.69176 0.0
H473 H 0.43927 0.28125 0.67363 0.0
O474 O 0.24246 0.5208 0.66295 0.0
C475 C 0.39886 0.44625 0.66265 0.0
Co476 Co 0.54937 0.28047 0.15706 0.0
Co477 Co 0.6587 0.33741 0.15251 0.0
C478 C 0.60851 0.28725 0.10561 0.0
O479 O 0.57045 0.26988 0.11961 0.0
O480 O 0.64522 0.31463 0.11593 0.0
C481 C 0.46421 0.21088 0.14393 0.0
O482 O 0.49777 0.19159 0.12661 0.0
C483 C 0.77105 0.34315 0.13904 0.0
C484 C 0.79957 0.41168 0.16205 0.0
C485 C 0.81632 0.37239 0.14476 0.0
N486 N 0.72982 0.36398 0.15235 0.0
N487 N 0.74693 0.4055 0.16576 0.0
C488 C 0.76782 0.29273 0.12345 0.0
H489 H 0.73209 0.26961 0.12903 0.0
H490 H 0.80364 0.26794 0.12672 0.0
H491 H 0.76545 0.30249 0.10219 0.0
C492 C 0.60152 0.23458 0.20464 0.0
N493 N 0.60288 0.26146 0.18169 0.0
N494 N 0.6509 0.28011 0.17776 0.0
C495 C 0.6831 0.2612 0.19683 0.0
C496 C 0.65306 0.23213 0.21521 0.0
C497 C 0.55007 0.22128 0.21788 0.0
H498 H 0.51865 0.24924 0.21138 0.0
H499 H 0.53747 0.18081 0.21198 0.0
H500 H 0.55369 0.22364 0.23962 0.0
O501 O 0.5312 0.35491 0.16185 0.0
O502 O 0.60778 0.39793 0.16055 0.0
H503 H 0.75191 0.30874 0.20444 0.0
H504 H 0.76285 0.23776 0.2079 0.0
C505 C 0.74206 0.26894 0.19647 0.0
H506 H 0.75681 0.26672 0.17604 0.0
H507 H 0.72297 0.42879 0.17792 0.0
O508 O 0.4809 0.24322 0.1613 0.0
C509 C 0.55722 0.3979 0.16313 0.0
Co510 Co 0.71546 0.54982 0.65918 0.0
Co511 Co 0.66414 0.66193 0.65276 0.0
C512 C 0.71444 0.60844 0.60715 0.0
O513 O 0.72547 0.56861 0.62143 0.0
O514 O 0.6915 0.64883 0.61678 0.0
C515 C 0.78547 0.46536 0.64636 0.0
O516 O 0.80615 0.50003 0.63001 0.0
C517 C 0.64373 0.77089 0.63505 0.0
C518 C 0.61902 0.81022 0.67182 0.0
C519 C 0.63319 0.82049 0.64589 0.0
N520 N 0.63872 0.73381 0.65395 0.0
N521 N 0.62179 0.75738 0.67562 0.0
C522 C 0.65517 0.75839 0.60679 0.0
H523 H 0.63284 0.72245 0.6008 0.0
H524 H 0.69822 0.75051 0.60432 0.0
H525 H 0.64323 0.79159 0.59371 0.0
C526 C 0.7637 0.60274 0.70602 0.0
N527 N 0.73635 0.60375 0.68321 0.0
N528 N 0.72041 0.6524 0.67844 0.0
C529 C 0.74239 0.68506 0.69648 0.0
C530 C 0.76971 0.65493 0.71542 0.0
C531 C 0.77493 0.55172 0.72005 0.0
H532 H 0.74572 0.52105 0.71405 0.0
H533 H 0.81486 0.53709 0.71434 0.0
H534 H 0.77279 0.55694 0.74172 0.0
O535 O 0.64108 0.53444 0.66442 0.0
O536 O 0.60147 0.61236 0.65979 0.0
H537 H 0.70845 0.7613 0.70483 0.0
H538 H 0.77959 0.76137 0.70172 0.0
C539 C 0.74231 0.74426 0.69377 0.0
H540 H 0.73835 0.75565 0.67276 0.0
H541 H 0.6155 0.73786 0.69348 0.0
O542 O 0.75176 0.48093 0.66339 0.0
C543 C 0.59922 0.56234 0.66409 0.0
C544 C 0.00889 0.02714 0.14829 0.0
C545 C 0.01985 0.05384 0.12454 0.0
C546 C 0.98526 0.97691 0.14848 0.0
C547 C 0.97155 0.95084 0.12494 0.0
H548 H 0.01865 0.04503 0.16706 0.0
H549 H 0.97807 0.95833 0.16739 0.0
S550 S 0.99088 0.00361 0.05725 0.0
N551 N 0.01449 0.05046 0.07668 0.0
N552 N 0.9701 0.95601 0.07705 0.0
C553 C 0.982 0.97707 0.10097 0.0
C554 C 0.00608 0.02847 0.10077 0.0
C555 C 0.02731 0.99078 0.60561 0.0
C556 C 0.05189 0.97767 0.62963 0.0
C557 C 0.97646 0.01334 0.60492 0.0
C558 C 0.94794 0.02379 0.62822 0.0
H559 H 0.04749 0.98383 0.58708 0.0
H560 H 0.95957 0.02277 0.58589 0.0
S561 S 0.99391 0.9961 0.69642 0.0
N562 N 0.04323 0.97629 0.67744 0.0
N563 N 0.94806 0.01859 0.67614 0.0
C564 C 0.97189 0.01057 0.65242 0.0
C565 C 0.02367 0.98758 0.65313 0.0
C566 C 0.49517 0.52872 0.92999 0.0
C567 C 0.47986 0.55398 0.90646 0.0
C568 C 0.51791 0.47787 0.9298 0.0
C569 C 0.52631 0.45017 0.90607 0.0
H570 H 0.48992 0.54842 0.94877 0.0
H571 H 0.52916 0.46034 0.94845 0.0
S572 S 0.4917 0.49791 0.83891 0.0
N573 N 0.47376 0.5466 0.85869 0.0
N574 N 0.51632 0.45167 0.85833 0.0
C575 C 0.51075 0.47483 0.88238 0.0
C576 C 0.4876 0.52647 0.88258 0.0
C577 C 0.5269 0.51125 0.38637 0.0
C578 C 0.55395 0.52085 0.41014 0.0
C579 C 0.47645 0.48815 0.3861 0.0
C580 C 0.45048 0.47362 0.40958 0.0
H581 H 0.54473 0.52158 0.36764 0.0
H582 H 0.4577 0.48188 0.36717 0.0
S583 S 0.50393 0.48981 0.47729 0.0
N584 N 0.55089 0.5137 0.45795 0.0
N585 N 0.45594 0.47029 0.45743 0.0
C586 C 0.47696 0.48292 0.43357 0.0
C587 C 0.52861 0.50648 0.43386 0.0
C588 C 0.9783 0.04847 0.87097 0.0
C589 C 0.03364 0.05042 0.86671 0.0
C590 C 0.95052 1.00018 0.87093 0.0
C591 C 0.97683 0.95173 0.86651 0.0
H592 H 0.95629 0.08442 0.87522 0.0
H593 H 0.90837 1.00082 0.87516 0.0
S594 S 0.12064 0.93561 0.85124 0.0
N595 N 0.11296 0.99997 0.85585 0.0
N596 N 0.06121 0.90946 0.85548 0.0
C597 C 0.03185 0.95342 0.86097 0.0
C598 C 0.0601 0.00258 0.86117 0.0
C599 C 0.04537 0.02402 0.37075 0.0
C600 C 0.04676 0.96803 0.36922 0.0
C601 C 0.99731 0.05225 0.37042 0.0
C602 C 0.94835 0.02585 0.36841 0.0
H603 H 0.08172 0.04653 0.37293 0.0
H604 H 0.99864 0.09503 0.37237 0.0
S605 S 0.93001 0.87969 0.36145 0.0
N606 N 0.99482 0.88753 0.36398 0.0
N607 N 0.90464 0.93997 0.36308 0.0
C608 C 0.94925 0.96986 0.3658 0.0
C609 C 0.99827 0.94117 0.3663 0.0
C610 C 0.55313 0.49765 0.16398 0.0
C611 C 0.52693 0.44857 0.1659 0.0
C612 C 0.52475 0.54558 0.16402 0.0
C613 C 0.46877 0.54673 0.16587 0.0
H614 H 0.59589 0.4992 0.16177 0.0
H615 H 0.54712 0.58203 0.16187 0.0
S616 S 0.38102 0.42955 0.17378 0.0
N617 N 0.44138 0.40442 0.17164 0.0
N618 N 0.38854 0.49442 0.17143 0.0
C619 C 0.44213 0.49811 0.16876 0.0
C620 C 0.47101 0.44919 0.16886 0.0
C621 C 0.45154 0.53073 0.65896 0.0
C622 C 0.44934 0.47635 0.66553 0.0
C623 C 0.49961 0.55907 0.65954 0.0
C624 C 0.5474 0.53423 0.66686 0.0
H625 H 0.41614 0.55132 0.65247 0.0
H626 H 0.49951 0.60021 0.65336 0.0
S627 S 0.56178 0.39425 0.68934 0.0
N628 N 0.49834 0.40013 0.68188 0.0
N629 N 0.5882 0.45293 0.68339 0.0
C630 C 0.5451 0.48049 0.67483 0.0
C631 C 0.49631 0.45169 0.67403 0.0
C632 C 0.15548 0.24427 0.9967 0.0
C633 C 0.10891 0.2342 1.01117 0.0
C634 C 0.15678 0.23728 0.9692 0.0
C635 C 0.111 0.2219 0.9553 0.0
H636 H 0.19136 0.25647 1.00676 0.0
H637 H 0.19359 0.24449 0.95875 0.0
S638 S 0.97899 0.19206 0.98426 0.0
N639 N 0.01631 0.20795 1.00979 0.0
N640 N 0.01783 0.19719 0.95816 0.0
C641 C 0.06402 0.21275 0.96962 0.0
C642 C 0.06321 0.21827 0.99757 0.0
C643 C 0.7623 0.15338 0.46962 0.0
C644 C 0.77656 0.10684 0.456 0.0
C645 C 0.75716 0.15351 0.49717 0.0
C646 C 0.76788 0.10758 0.5119 0.0
H647 H 0.75501 0.18982 0.45891 0.0
H648 H 0.74616 0.19002 0.50705 0.0
S649 S 0.80646 0.97582 0.48581 0.0
N650 N 0.80013 0.01347 0.45937 0.0
N651 N 0.79264 0.01452 0.51116 0.0
C652 C 0.78203 0.06093 0.49858 0.0
C653 C 0.78577 0.06033 0.47058 0.0
C654 C 0.87115 0.79993 0.97311 0.0
C655 C 0.90758 0.77562 0.95578 0.0
C656 C 0.87641 0.79539 1.00056 0.0
C657 C 0.91797 0.76586 1.01189 0.0
H658 H 0.83885 0.82379 0.96551 0.0
H659 H 0.84777 0.8155 1.01298 0.0
S660 S 0.02317 0.69283 0.97551 0.0
N661 N 0.98619 0.71976 0.9523 0.0
N662 N 0.99561 0.71085 1.00361 0.0
C663 C 0.95388 0.74019 0.99486 0.0
C664 C 0.94882 0.74516 0.96693 0.0
C665 C 0.25 0.93857 0.46859 0.0
C666 C 0.21951 0.89676 0.45813 0.0
C667 C 0.255 0.94591 0.49585 0.0
C668 C 0.22932 0.9121 0.51388 0.0
H669 H 0.26956 0.96663 0.45567 0.0
H670 H 0.27822 0.97927 0.50278 0.0
S671 S 0.14752 0.79436 0.497 0.0
N672 N 0.16536 0.81924 0.46827 0.0
N673 N 0.17448 0.83345 0.51935 0.0
C674 C 0.19984 0.86927 0.50378 0.0
C675 C 0.19508 0.86147 0.47599 0.0
C676 C 0.56897 0.2454 0.06535 0.0
C677 C 0.60751 0.27894 0.07658 0.0
C678 C 0.56372 0.24049 0.03798 0.0
C679 C 0.5964 0.2693 0.02062 0.0
H680 H 0.54183 0.22332 0.07774 0.0
H681 H 0.53272 0.21491 0.03043 0.0
S682 S 0.70624 0.35965 0.03965 0.0
N683 N 0.6811 0.33927 0.06792 0.0
N684 N 0.67081 0.33021 1.01658 0.0
C685 C 0.63617 0.30177 0.03149 0.0
C686 C 0.64188 0.30647 0.0594 0.0
C687 C 0.74248 0.65112 0.56473 0.0
C688 C 0.72459 0.606 0.57847 0.0
C689 C 0.74992 0.64988 0.5373 0.0
C690 C 0.73796 0.60406 0.52269 0.0
H691 H 0.751 0.6875 0.57527 0.0
H692 H 0.76371 0.68536 0.52737 0.0
S693 S 0.68996 0.4757 0.54912 0.0
N694 N 0.69618 0.51398 0.57534 0.0
N695 N 0.70794 0.51259 0.52374 0.0
C696 C 0.72003 0.55884 0.53612 0.0
C697 C 0.71396 0.55955 0.56405 0.0
C698 C 0.43828 0.75274 0.06763 0.0
C699 C 0.39695 0.72156 0.07811 0.0
C700 C 0.44546 0.75804 0.04037 0.0
C701 C 0.41198 0.73197 0.02236 0.0
H702 H 0.46612 0.77257 0.08054 0.0
H703 H 0.47851 0.78173 0.03341 0.0
S704 S 0.29535 0.64855 0.0393 0.0
N705 N 0.32008 0.66649 0.06802 0.0
N706 N 0.33401 0.6762 0.01692 0.0
C707 C 0.36955 0.7019 0.03248 0.0
C708 C 0.3619 0.69683 0.06027 0.0
C709 C 0.31085 0.36805 0.56073 0.0
C710 C 0.27388 0.39178 0.57791 0.0
C711 C 0.30541 0.37202 0.53326 0.0
C712 C 0.26237 0.39927 0.52181 0.0
H713 H 0.34538 0.3478 0.56852 0.0
H714 H 0.33561 0.3541 0.52093 0.0
S715 S 0.15189 0.46423 0.55815 0.0
N716 N 0.19081 0.44036 0.58142 0.0
N717 N 0.18041 0.44781 0.53002 0.0
C718 C 0.22394 0.42127 0.53879 0.0
C719 C 0.22975 0.41757 0.56674 0.0
C720 C 0.20282 0.30816 0.24122 0.0
C721 C 0.16857 0.26687 0.2492 0.0
C722 C 0.23271 0.33724 0.25944 0.0
C723 C 0.231 0.32551 0.28642 0.0
H724 H 0.20868 0.31755 0.22075 0.0
H725 H 0.25794 0.3689 0.25223 0.0
S726 S 0.15667 0.21434 0.31734 0.0
N727 N 0.13889 0.21275 0.2861 0.0
N728 N 0.19899 0.26399 0.31978 0.0
C729 C 0.19971 0.28224 0.29463 0.0
C730 C 0.16783 0.25369 0.27618 0.0
C731 C 0.72816 0.16363 0.77304 0.0
C732 C 0.72303 0.17097 0.74579 0.0
C733 C 0.69869 0.1941 0.79085 0.0
C734 C 0.66184 0.23234 0.78214 0.0
H735 H 0.75581 0.13454 0.78071 0.0
H736 H 0.70654 0.18852 0.81156 0.0
S737 S 0.63981 0.2731 0.71284 0.0
N738 N 0.68408 0.22499 0.71101 0.0
N739 N 0.62559 0.27926 0.74442 0.0
C740 C 0.65756 0.24128 0.75492 0.0
C741 C 0.68866 0.21118 0.73676 0.0
C742 C 0.80419 0.70191 0.29288 0.0
C743 C 0.76446 0.66612 0.28474 0.0
C744 C 0.83245 0.73274 0.27468 0.0
C745 C 0.82141 0.7301 0.24762 0.0
H746 H 0.81268 0.70792 0.31349 0.0
H747 H 0.8629 0.75935 0.28192 0.0
S748 S 0.71455 0.65013 0.21655 0.0
N749 N 0.71265 0.63322 0.24789 0.0
N750 N 0.7624 0.6945 0.21405 0.0
C751 C 0.77978 0.69676 0.23931 0.0
C752 C 0.75205 0.6642 0.25778 0.0
C753 C 0.30943 0.81378 0.79344 0.0
C754 C 0.34491 0.7747 0.78414 0.0
C755 C 0.27817 0.84365 0.77616 0.0
C756 C 0.27997 0.83484 0.74891 0.0
H757 H 0.30394 0.8205 0.81425 0.0
H758 H 0.25184 0.87352 0.78426 0.0
S759 S 0.35781 0.72986 0.71484 0.0
N760 N 0.37593 0.72538 0.74597 0.0
N761 N 0.31384 0.77834 0.71376 0.0
C762 C 0.3127 0.79369 0.7394 0.0
C763 C 0.34573 0.76429 0.75695 0.0
C764 C 0.79191 0.73944 0.77736 0.0
C765 C 0.83263 0.71331 0.79123 0.0
C766 C 0.77119 0.71924 0.75376 0.0
C767 C 0.79321 0.67452 0.74109 0.0
H768 H 0.77529 0.77613 0.78465 0.0
H769 H 0.73702 0.73921 0.74571 0.0
S770 S 0.90435 0.59341 0.76759 0.0
N771 N 0.89252 0.63753 0.79086 0.0
N772 N 0.86293 0.60779 0.74349 0.0
C773 C 0.83628 0.64964 0.75392 0.0
C774 C 0.85399 0.66726 0.77941 0.0
C775 C 0.32589 0.8428 0.28071 0.0
C776 C 0.28111 0.82014 0.2931 0.0
C777 C 0.34466 0.82438 0.25614 0.0
C778 C 0.32198 0.77996 0.2435 0.0
H779 H 0.34701 0.87511 0.28995 0.0
H780 H 0.3772 0.84553 0.24707 0.0
S781 S 0.20534 0.70406 0.26802 0.0
N782 N 0.21121 0.75402 0.28874 0.0
N783 N 0.25565 0.71014 0.24747 0.0
C784 C 0.27901 0.75518 0.25648 0.0
C785 C 0.25646 0.77741 0.27994 0.0
C786 C 0.14589 0.29115 0.76975 0.0
C787 C 0.17788 0.29336 0.79248 0.0
C788 C 0.16424 0.31045 0.74531 0.0
C789 C 0.21526 0.3325 0.74273 0.0
H790 H 0.107 0.27293 0.77065 0.0
H791 H 0.1389 0.30691 0.72819 0.0
S792 S 0.31308 0.35126 0.79631 0.0
N793 N 0.26185 0.32276 0.81092 0.0
N794 N 0.29651 0.35763 0.765 0.0
C795 C 0.24704 0.33618 0.76533 0.0
C796 C 0.22832 0.31697 0.79018 0.0
C797 C 0.73416 0.21372 0.27844 0.0
C798 C 0.70992 0.17098 0.29171 0.0
C799 C 0.71361 0.2345 0.25496 0.0
C800 C 0.67158 0.20989 0.24135 0.0
H801 H 0.76973 0.23196 0.28603 0.0
H802 H 0.73148 0.2705 0.24762 0.0
S803 S 0.59527 0.09379 0.26608 0.0
N804 N 0.63722 0.10745 0.29005 0.0
N805 N 0.60893 0.1364 0.24238 0.0
C806 C 0.64857 0.16503 0.25355 0.0
C807 C 0.66561 0.14766 0.2792 0.0
C808 C 0.37227 0.24545 0.14979 0.0
C809 C 0.40637 0.20667 0.13916 0.0
C810 C 0.31818 0.24595 0.14381 0.0
C811 C 0.29589 0.20768 0.12707 0.0
H812 H 0.38743 0.27633 0.16258 0.0
H813 H 0.29328 0.27614 0.15271 0.0
S814 S 0.36647 0.0958 0.09528 0.0
N815 N 0.41332 0.12809 0.11143 0.0
N816 N 0.31073 0.12847 0.10091 0.0
C817 C 0.32896 0.16836 0.11645 0.0
C818 C 0.38442 0.16798 0.12235 0.0
C819 C 0.75066 0.31954 0.64294 0.0
C820 C 0.79099 0.2982 0.62704 0.0
C821 C 0.75028 0.37324 0.6497 0.0
C822 C 0.79014 0.40792 0.64066 0.0
H823 H 0.71972 0.2941 0.65075 0.0
H824 H 0.718 0.38763 0.66188 0.0
S825 S 0.90583 0.37072 0.59919 0.0
N826 N 0.87286 0.31462 0.60319 0.0
N827 N 0.87157 0.41659 0.6151 0.0
C828 C 0.83065 0.38703 0.62453 0.0
C829 C 0.8312 0.33192 0.61788 0.0
C830 C 0.61579 0.83074 0.12858 0.0
C831 C 0.59308 0.78529 0.14014 0.0
C832 C 0.66961 0.8316 0.12129 0.0
C833 C 0.70176 0.78662 0.12475 0.0
H834 H 0.59218 0.86624 0.12579 0.0
H835 H 0.68667 0.86814 0.1139 0.0
S836 S 0.66046 0.65591 0.15082 0.0
N837 N 0.60634 0.69274 0.15246 0.0
N838 N 0.70715 0.69484 0.13866 0.0
C839 C 0.67916 0.74042 0.13514 0.0
C840 C 0.62484 0.73959 0.14285 0.0
C841 C 0.24198 0.63072 0.65578 0.0
C842 C 0.2067 0.59733 0.64209 0.0
C843 C 0.24396 0.68513 0.65068 0.0
C844 C 0.21056 0.70858 0.63187 0.0
H845 H 0.26914 0.61476 0.67028 0.0
H846 H 0.27163 0.70929 0.66177 0.0
S847 S 0.10895 0.6402 0.59165 0.0
N848 N 0.13645 0.59239 0.60923 0.0
N849 N 0.13955 0.69546 0.60031 0.0
C850 C 0.17465 0.67626 0.61822 0.0
C851 C 0.17276 0.62048 0.62324 0.0
C852 C 0.87567 0.25527 0.87967 0.0
C853 C 0.90919 0.29147 0.89266 0.0
C854 C 0.82117 0.2541 0.88474 0.0
C855 C 0.79781 0.28931 0.90278 0.0
H856 H 0.89162 0.22676 0.86579 0.0
H857 H 0.79688 0.22566 0.87421 0.0
S858 S 0.86677 0.39361 0.94104 0.0
N859 N 0.91452 0.36424 0.92411 0.0
N860 N 0.8113 0.36277 0.93294 0.0
C861 C 0.83036 0.32603 0.91578 0.0
C862 C 0.88621 0.32702 0.91082 0.0
C863 C 0.7502 0.81717 0.39112 0.0
C864 C 0.7117 0.7944 0.40762 0.0
C865 C 0.74894 0.87117 0.38494 0.0
C866 C 0.70919 0.90466 0.39515 0.0
H867 H 0.78099 0.79267 0.38245 0.0
H868 H 0.77991 0.88675 0.3723 0.0
S869 S 0.5979 0.86352 0.43857 0.0
N870 N 0.6316 0.80826 0.43331 0.0
N871 N 0.62988 0.91069 0.42245 0.0
C872 C 0.67053 0.88232 0.41188 0.0
C873 C 0.67163 0.82696 0.41795 0.0
C874 C 0.13526 0.75049 0.87904 0.0
C875 C 0.1019 0.71098 0.88961 0.0
C876 C 0.18889 0.7532 0.88577 0.0
C877 C 0.2116 0.7164 0.90316 0.0
H878 H 0.11993 0.78009 0.86558 0.0
H879 H 0.21323 0.78369 0.87676 0.0
S880 S 0.14284 0.60472 0.93606 0.0
N881 N 0.09599 0.63413 0.9186 0.0
N882 N 0.19776 0.63884 0.93062 0.0
C883 C 0.17918 0.67688 0.91408 0.0
C884 C 0.12414 0.67417 0.90737 0.0
C885 C 0.25771 0.18088 0.38523 0.0
C886 C 0.29067 0.20219 0.40482 0.0
C887 C 0.25814 0.12671 0.37948 0.0
C888 C 0.29141 0.09143 0.39324 0.0
H889 H 0.23169 0.20656 0.37398 0.0
H890 H 0.23146 0.11247 0.36433 0.0
S891 S 0.38702 0.12839 0.44583 0.0
N892 N 0.35886 0.1851 0.43739 0.0
N893 N 0.3592 0.08244 0.42719 0.0
C894 C 0.32482 0.11244 0.41294 0.0
C895 C 0.32444 0.16799 0.41867 0.0
C896 C 0.55105 0.83124 0.88254 0.0
C897 C 0.53714 0.80949 0.90719 0.0
C898 C 0.60032 0.85537 0.87848 0.0
C899 C 0.63768 0.8586 0.89886 0.0
H900 H 0.52489 0.82712 0.86576 0.0
H901 H 0.61047 0.86839 0.85877 0.0
S902 S 0.61715 0.81854 0.96835 0.0
N903 N 0.56211 0.8001 0.95327 0.0
N904 N 0.65458 0.84666 0.94556 0.0
C905 C 0.62258 0.84192 0.92419 0.0
C906 C 0.57226 0.81714 0.92839 0.0
C907 C 0.18679 0.56146 0.42541 0.0
C908 C 0.19404 0.52561 0.40445 0.0
C909 C 0.16202 0.61074 0.4214 0.0
C910 C 0.14357 0.62583 0.39634 0.0
H911 H 0.20311 0.55288 0.44467 0.0
H912 H 0.15924 0.63806 0.4378 0.0
S913 S 0.14468 0.54291 0.33602 0.0
N914 N 0.1742 0.50608 0.35852 0.0
N915 N 0.1283 0.59856 0.35111 0.0
C916 C 0.14635 0.58858 0.37584 0.0
C917 C 0.17158 0.53856 0.37985 0.0
C918 C 0.46173 0.17004 0.881 0.0
C919 C 0.47328 0.19454 0.90531 0.0
C920 C 0.4129 0.14516 0.87657 0.0
C921 C 0.37378 0.14427 0.8962 0.0
H922 H 0.48949 0.17249 0.86474 0.0
H923 H 0.40443 0.12974 0.8571 0.0
S924 S 0.38697 0.19369 0.9646 0.0
N925 N 0.44369 0.20984 0.95034 0.0
N926 N 0.35188 0.16266 0.94187 0.0
C927 C 0.38625 0.1643 0.92124 0.0
C928 C 0.43613 0.18946 0.92586 0.0
C929 C 0.85192 0.40718 0.37468 0.0
C930 C 0.8595 0.37045 0.39507 0.0
C931 C 0.82776 0.45624 0.37952 0.0
C932 C 0.81032 0.4705 0.40497 0.0
H933 H 0.86138 0.3966 0.35453 0.0
H934 H 0.82009 0.48186 0.36282 0.0
S935 S 0.83199 0.39226 0.46597 0.0
N936 N 0.8564 0.35466 0.44223 0.0
N937 N 0.81 0.44664 0.45145 0.0
C938 C 0.82254 0.43609 0.42595 0.0
C939 C 0.84731 0.38605 0.42095 0.0
C940 C 0.06202 0.68708 0.11116 0.0
C941 C 0.02643 0.69587 0.13212 0.0
C942 C 0.11127 0.66243 0.11539 0.0
C943 C 0.12659 0.64554 0.14066 0.0
H944 H 0.0532 0.70193 0.09163 0.0
H945 H 0.13836 0.65843 0.09893 0.0
S946 S 0.04488 0.65164 0.20137 0.0
N947 N 0.00774 0.67968 0.17853 0.0
N948 N 0.10015 0.63383 0.1863 0.0
C949 C 0.08976 0.6501 0.1613 0.0
C950 C 0.03978 0.67529 0.15709 0.0
C951 C 0.35549 0.09583 0.65847 0.0
C952 C 0.3577 0.13387 0.63836 0.0
C953 C 0.33067 0.04684 0.65434 0.0
C954 C 0.30757 0.03394 0.62987 0.0
H955 H 0.36992 0.10526 0.67801 0.0
H956 H 0.32729 0.02002 0.67092 0.0
S957 S 0.31197 0.11709 0.56955 0.0
N958 N 0.34184 0.1533 0.59222 0.0
N959 N 0.29484 0.06124 0.5843 0.0
C960 C 0.31384 0.07005 0.60895 0.0
C961 C 0.33892 0.1201 0.61326 0.0
C962 C 0.88543 0.33815 0.11331 0.0
C963 C 0.87205 0.35817 0.13834 0.0
C964 C 0.93508 0.3146 0.10859 0.0
C965 C 0.97308 0.31042 0.12876 0.0
H966 H 0.85654 0.33855 0.09755 0.0
H967 H 0.94224 0.29654 0.08956 0.0
S968 S 0.96137 0.36641 0.1962 0.0
N969 N 0.90355 0.37922 0.18233 0.0
N970 N 0.99686 0.33581 0.17347 0.0
C971 C 0.96199 0.33508 0.15306 0.0
C972 C 0.91153 0.35893 0.15783 0.0
C973 C 0.71407 0.92785 0.61208 0.0
C974 C 0.69412 0.9744 0.62348 0.0
C975 C 0.69249 0.87837 0.61837 0.0
C976 C 0.64862 0.87353 0.6355 0.0
H977 H 0.74971 0.92912 0.6001 0.0
H978 H 0.71351 0.84392 0.61124 0.0
S979 S 0.57744 0.98523 0.66758 0.0
N980 N 0.62598 0.01398 0.65097 0.0
N981 N 0.58308 0.92095 0.66176 0.0
C982 C 0.62593 0.92052 0.64548 0.0
C983 C 0.64905 0.97093 0.63964 0.0
loop_
_geom_bond_atom_site_label_1
_geom_bond_atom_site_label_2
_geom_bond_distance
_geom_bond_site_symmetry_2
_ccdc_geom_bond_type
Co0 O3 1.970 . S
Co0 N17 1.989 . S
Co0 O25 1.967 . S
Co0 O32 1.920 . S
Co1 O4 1.966 . S
Co1 N10 2.022 . S
Co1 N18 1.993 . S
Co1 O26 1.941 . S
C2 O3 1.258 1_655 S
C2 O4 1.263 1_655 S
O3 Co0 1.970 . S
O3 C2 1.258 1_455 S
O4 Co1 1.966 . S
O4 C2 1.263 1_455 S
C5 O6 1.235 . S
C5 O32 1.289 . S
O6 C5 1.235 . S
C7 C9 1.400 . S
C7 N10 1.351 . S
C7 C12 1.501 . S
C8 C9 1.387 . S
C8 N11 1.341 . S
C9 C7 1.400 . S
C9 C8 1.387 . S
N10 Co1 2.022 . S
N10 C7 1.351 . S
N10 N11 1.365 . S
N11 C8 1.341 . S
N11 N10 1.365 . S
N11 H31 0.862 . S
C12 C7 1.501 . S
C12 H13 0.961 . S
C12 H14 0.961 . S
C12 H15 0.960 . S
H13 C12 0.961 . S
H14 C12 0.961 . S
H15 C12 0.960 . S
C16 N17 1.342 . S
C16 C20 1.401 . S
C16 C21 1.499 . S
N17 Co0 1.989 . S
N17 C16 1.342 . S
N17 N18 1.388 . S
N18 Co1 1.993 . S
N18 N17 1.388 . S
N18 C19 1.346 . S
C19 N18 1.346 . S
C19 C20 1.396 . S
C19 C29 1.510 . S
C20 C16 1.401 . S
C20 C19 1.396 . S
C21 C16 1.499 . S
C21 H22 0.959 . S
C21 H23 0.960 . S
C21 H24 0.961 . S
H22 C21 0.959 . S
H23 C21 0.960 . S
H24 C21 0.961 . S
O25 Co0 1.967 . S
O25 C33 1.258 . S
O26 Co1 1.941 . S
O26 C33 1.266 . S
H27 C29 0.959 . S
H28 C29 0.961 . S
C29 C19 1.510 . S
C29 H27 0.959 . S
C29 H28 0.961 . S
C29 H30 0.960 . S
H30 C29 0.960 . S
H31 N11 0.862 . S
O32 Co0 1.920 . S
O32 C5 1.289 . S
C33 O25 1.258 . S
C33 O26 1.266 . S
Co34 O37 1.970 . S
Co34 N51 1.989 . S
Co34 O59 1.967 . S
Co34 O66 1.920 . S
Co35 O38 1.966 . S
Co35 N44 2.022 . S
Co35 N52 1.993 . S
Co35 O60 1.941 . S
C36 O37 1.258 1_565 S
C36 O38 1.263 1_565 S
O37 Co34 1.970 . S
O37 C36 1.258 1_545 S
O38 Co35 1.966 . S
O38 C36 1.263 1_545 S
C39 O40 1.235 . S
C39 O66 1.289 . S
O40 C39 1.235 . S
C41 C43 1.400 . S
C41 N44 1.351 . S
C41 C46 1.501 . S
C42 C43 1.387 . S
C42 N45 1.341 . S
C43 C41 1.400 . S
C43 C42 1.387 . S
N44 Co35 2.022 . S
N44 C41 1.351 . S
N44 N45 1.365 . S
N45 C42 1.341 . S
N45 N44 1.365 . S
N45 H65 0.862 . S
C46 C41 1.501 . S
C46 H47 0.961 . S
C46 H48 0.961 . S
C46 H49 0.960 . S
H47 C46 0.961 . S
H48 C46 0.961 . S
H49 C46 0.960 . S
C50 N51 1.342 . S
C50 C54 1.401 . S
C50 C55 1.499 . S
N51 Co34 1.989 . S
N51 C50 1.342 . S
N51 N52 1.388 . S
N52 Co35 1.993 . S
N52 N51 1.388 . S
N52 C53 1.346 . S
C53 N52 1.346 . S
C53 C54 1.396 . S
C53 C63 1.510 . S
C54 C50 1.401 . S
C54 C53 1.396 . S
C55 C50 1.499 . S
C55 H56 0.959 . S
C55 H57 0.960 . S
C55 H58 0.961 . S
H56 C55 0.959 . S
H57 C55 0.960 . S
H58 C55 0.961 . S
O59 Co34 1.967 . S
O59 C67 1.258 . S
O60 Co35 1.941 . S
O60 C67 1.266 . S
H61 C63 0.959 . S
H62 C63 0.961 . S
C63 C53 1.510 . S
C63 H61 0.959 . S
C63 H62 0.961 . S
C63 H64 0.960 . S
H64 C63 0.960 . S
H65 N45 0.862 . S
O66 Co34 1.920 . S
O66 C39 1.289 . S
C67 O59 1.258 . S
C67 O60 1.266 . S
Co68 O71 1.970 . S
Co68 N85 1.989 . S
Co68 O93 1.967 . S
Co68 O100 1.920 . S
Co69 O72 1.966 . S
Co69 N78 2.022 . S
Co69 N86 1.993 . S
Co69 O94 1.941 . S
C70 O71 1.258 1_455 S
C70 O72 1.263 1_455 S
O71 Co68 1.970 . S
O71 C70 1.258 1_655 S
O72 Co69 1.966 . S
O72 C70 1.263 1_655 S
C73 O74 1.235 . S
C73 O100 1.289 . S
O74 C73 1.235 . S
C75 C77 1.400 . S
C75 N78 1.351 . S
C75 C80 1.501 . S
C76 C77 1.387 . S
C76 N79 1.341 . S
C77 C75 1.400 . S
C77 C76 1.387 . S
N78 Co69 2.022 . S
N78 C75 1.351 . S
N78 N79 1.365 . S
N79 C76 1.341 . S
N79 N78 1.365 . S
N79 H99 0.862 . S
C80 C75 1.501 . S
C80 H81 0.961 . S
C80 H82 0.961 . S
C80 H83 0.960 . S
H81 C80 0.961 . S
H82 C80 0.961 . S
H83 C80 0.960 . S
C84 N85 1.342 . S
C84 C88 1.401 . S
C84 C89 1.499 . S
N85 Co68 1.989 . S
N85 C84 1.342 . S
N85 N86 1.388 . S
N86 Co69 1.993 . S
N86 N85 1.388 . S
N86 C87 1.346 . S
C87 N86 1.346 . S
C87 C88 1.396 . S
C87 C97 1.510 . S
C88 C84 1.401 . S
C88 C87 1.396 . S
C89 C84 1.499 . S
C89 H90 0.959 . S
C89 H91 0.960 . S
C89 H92 0.961 . S
H90 C89 0.959 . S
H91 C89 0.960 . S
H92 C89 0.961 . S
O93 Co68 1.967 . S
O93 C101 1.258 . S
O94 Co69 1.941 . S
O94 C101 1.266 . S
H95 C97 0.959 . S
H96 C97 0.961 . S
C97 C87 1.510 . S
C97 H95 0.959 . S
C97 H96 0.961 . S
C97 H98 0.960 . S
H98 C97 0.960 . S
H99 N79 0.862 . S
O100 Co68 1.920 . S
O100 C73 1.289 . S
C101 O93 1.258 . S
C101 O94 1.266 . S
Co102 O105 1.970 . S
Co102 N119 1.989 . S
Co102 O127 1.967 . S
Co102 O134 1.920 . S
Co103 O106 1.966 . S
Co103 N112 2.022 . S
Co103 N120 1.993 . S
Co103 O128 1.941 . S
C104 O105 1.258 1_545 S
C104 O106 1.263 1_545 S
O105 Co102 1.970 . S
O105 C104 1.258 1_565 S
O106 Co103 1.966 . S
O106 C104 1.263 1_565 S
C107 O108 1.235 . S
C107 O134 1.289 . S
O108 C107 1.235 . S
C109 C111 1.400 . S
C109 N112 1.351 . S
C109 C114 1.501 . S
C110 C111 1.387 . S
C110 N113 1.341 . S
C111 C109 1.400 . S
C111 C110 1.387 . S
N112 Co103 2.022 . S
N112 C109 1.351 . S
N112 N113 1.365 . S
N113 C110 1.341 . S
N113 N112 1.365 . S
N113 H133 0.862 . S
C114 C109 1.501 . S
C114 H115 0.961 . S
C114 H116 0.961 . S
C114 H117 0.960 . S
H115 C114 0.961 . S
H116 C114 0.961 . S
H117 C114 0.960 . S
C118 N119 1.342 . S
C118 C122 1.401 . S
C118 C123 1.499 . S
N119 Co102 1.989 . S
N119 C118 1.342 . S
N119 N120 1.388 . S
N120 Co103 1.993 . S
N120 N119 1.388 . S
N120 C121 1.346 . S
C121 N120 1.346 . S
C121 C122 1.396 . S
C121 C131 1.510 . S
C122 C118 1.401 . S
C122 C121 1.396 . S
C123 C118 1.499 . S
C123 H124 0.959 . S
C123 H125 0.960 . S
C123 H126 0.961 . S
H124 C123 0.959 . S
H125 C123 0.960 . S
H126 C123 0.961 . S
O127 Co102 1.967 . S
O127 C135 1.258 . S
O128 Co103 1.941 . S
O128 C135 1.266 . S
H129 C131 0.959 . S
H130 C131 0.961 . S
C131 C121 1.510 . S
C131 H129 0.959 . S
C131 H130 0.961 . S
C131 H132 0.960 . S
H132 C131 0.960 . S
H133 N113 0.862 . S
O134 Co102 1.920 . S
O134 C107 1.289 . S
C135 O127 1.258 . S
C135 O128 1.266 . S
Co136 O139 1.970 . S
Co136 N153 1.989 . S
Co136 O161 1.967 . S
Co136 O168 1.920 . S
Co137 O140 1.966 . S
Co137 N146 2.022 . S
Co137 N154 1.993 . S
Co137 O162 1.941 . S
C138 O139 1.258 . S
C138 O140 1.263 . S
O139 Co136 1.970 . S
O139 C138 1.258 . S
O140 Co137 1.966 . S
O140 C138 1.263 . S
C141 O142 1.235 . S
C141 O168 1.289 . S
O142 C141 1.235 . S
C143 C145 1.400 . S
C143 N146 1.351 . S
C143 C148 1.501 . S
C144 C145 1.387 . S
C144 N147 1.341 . S
C145 C143 1.400 . S
C145 C144 1.387 . S
N146 Co137 2.022 . S
N146 C143 1.351 . S
N146 N147 1.365 . S
N147 C144 1.341 . S
N147 N146 1.365 . S
N147 H167 0.862 . S
C148 C143 1.501 . S
C148 H149 0.961 . S
C148 H150 0.961 . S
C148 H151 0.960 . S
H149 C148 0.961 . S
H150 C148 0.961 . S
H151 C148 0.960 . S
C152 N153 1.342 . S
C152 C156 1.401 . S
C152 C157 1.499 . S
N153 Co136 1.989 . S
N153 C152 1.342 . S
N153 N154 1.388 . S
N154 Co137 1.993 . S
N154 N153 1.388 . S
N154 C155 1.346 . S
C155 N154 1.346 . S
C155 C156 1.396 . S
C155 C165 1.510 . S
C156 C152 1.401 . S
C156 C155 1.396 . S
C157 C152 1.499 . S
C157 H158 0.959 . S
C157 H159 0.960 . S
C157 H160 0.961 . S
H158 C157 0.959 . S
H159 C157 0.960 . S
H160 C157 0.961 . S
O161 Co136 1.967 . S
O161 C169 1.258 . S
O162 Co137 1.941 . S
O162 C169 1.266 . S
H163 C165 0.959 . S
H164 C165 0.961 . S
C165 C155 1.510 . S
C165 H163 0.959 . S
C165 H164 0.961 . S
C165 H166 0.960 . S
H166 C165 0.960 . S
H167 N147 0.862 . S
O168 Co136 1.920 . S
O168 C141 1.289 . S
C169 O161 1.258 . S
C169 O162 1.266 . S
Co170 O173 1.970 . S
Co170 N187 1.989 . S
Co170 O195 1.967 . S
Co170 O202 1.920 . S
Co171 O174 1.966 . S
Co171 N180 2.022 . S
Co171 N188 1.993 . S
Co171 O196 1.941 . S
C172 O173 1.258 . S
C172 O174 1.263 . S
O173 Co170 1.970 . S
O173 C172 1.258 . S
O174 Co171 1.966 . S
O174 C172 1.263 . S
C175 O176 1.235 . S
C175 O202 1.289 . S
O176 C175 1.235 . S
C177 C179 1.400 . S
C177 N180 1.351 . S
C177 C182 1.501 . S
C178 C179 1.387 . S
C178 N181 1.341 . S
C179 C177 1.400 . S
C179 C178 1.387 . S
N180 Co171 2.022 . S
N180 C177 1.351 . S
N180 N181 1.365 . S
N181 C178 1.341 . S
N181 N180 1.365 . S
N181 H201 0.862 . S
C182 C177 1.501 . S
C182 H183 0.961 . S
C182 H184 0.961 . S
C182 H185 0.960 . S
H183 C182 0.961 . S
H184 C182 0.961 . S
H185 C182 0.960 . S
C186 N187 1.342 . S
C186 C190 1.401 . S
C186 C191 1.499 . S
N187 Co170 1.989 . S
N187 C186 1.342 . S
N187 N188 1.388 . S
N188 Co171 1.993 . S
N188 N187 1.388 . S
N188 C189 1.346 . S
C189 N188 1.346 . S
C189 C190 1.396 . S
C189 C199 1.510 . S
C190 C186 1.401 . S
C190 C189 1.396 . S
C191 C186 1.499 . S
C191 H192 0.959 . S
C191 H193 0.960 . S
C191 H194 0.961 . S
H192 C191 0.959 . S
H193 C191 0.960 . S
H194 C191 0.961 . S
O195 Co170 1.967 . S
O195 C203 1.258 . S
O196 Co171 1.941 . S
O196 C203 1.266 . S
H197 C199 0.959 . S
H198 C199 0.961 . S
C199 C189 1.510 . S
C199 H197 0.959 . S
C199 H198 0.961 . S
C199 H200 0.960 . S
H200 C199 0.960 . S
H201 N181 0.862 . S
O202 Co170 1.920 . S
O202 C175 1.289 . S
C203 O195 1.258 . S
C203 O196 1.266 . S
Co204 O207 1.970 . S
Co204 N221 1.989 . S
Co204 O229 1.967 . S
Co204 O236 1.920 . S
Co205 O208 1.966 . S
Co205 N214 2.022 . S
Co205 N222 1.993 . S
Co205 O230 1.941 . S
C206 O207 1.258 . S
C206 O208 1.263 . S
O207 Co204 1.970 . S
O207 C206 1.258 . S
O208 Co205 1.966 . S
O208 C206 1.263 . S
C209 O210 1.235 . S
C209 O236 1.289 . S
O210 C209 1.235 . S
C211 C213 1.400 . S
C211 N214 1.351 . S
C211 C216 1.501 . S
C212 C213 1.387 . S
C212 N215 1.341 . S
C213 C211 1.400 . S
C213 C212 1.387 . S
N214 Co205 2.022 . S
N214 C211 1.351 . S
N214 N215 1.365 . S
N215 C212 1.341 . S
N215 N214 1.365 . S
N215 H235 0.862 . S
C216 C211 1.501 . S
C216 H217 0.961 . S
C216 H218 0.961 . S
C216 H219 0.960 . S
H217 C216 0.961 . S
H218 C216 0.961 . S
H219 C216 0.960 . S
C220 N221 1.342 . S
C220 C224 1.401 . S
C220 C225 1.499 . S
N221 Co204 1.989 . S
N221 C220 1.342 . S
N221 N222 1.388 . S
N222 Co205 1.993 . S
N222 N221 1.388 . S
N222 C223 1.346 . S
C223 N222 1.346 . S
C223 C224 1.396 . S
C223 C233 1.510 . S
C224 C220 1.401 . S
C224 C223 1.396 . S
C225 C220 1.499 . S
C225 H226 0.959 . S
C225 H227 0.960 . S
C225 H228 0.961 . S
H226 C225 0.959 . S
H227 C225 0.960 . S
H228 C225 0.961 . S
O229 Co204 1.967 . S
O229 C237 1.258 . S
O230 Co205 1.941 . S
O230 C237 1.266 . S
H231 C233 0.959 . S
H232 C233 0.961 . S
C233 C223 1.510 . S
C233 H231 0.959 . S
C233 H232 0.961 . S
C233 H234 0.960 . S
H234 C233 0.960 . S
H235 N215 0.862 . S
O236 Co204 1.920 . S
O236 C209 1.289 . S
C237 O229 1.258 . S
C237 O230 1.266 . S
Co238 O241 1.970 . S
Co238 N255 1.989 . S
Co238 O263 1.967 . S
Co238 O270 1.920 . S
Co239 O242 1.966 . S
Co239 N248 2.022 . S
Co239 N256 1.993 . S
Co239 O264 1.941 . S
C240 O241 1.258 . S
C240 O242 1.263 . S
O241 Co238 1.970 . S
O241 C240 1.258 . S
O242 Co239 1.966 . S
O242 C240 1.263 . S
C243 O244 1.235 . S
C243 O270 1.289 . S
O244 C243 1.235 . S
C245 C247 1.400 . S
C245 N248 1.351 . S
C245 C250 1.501 . S
C246 C247 1.387 . S
C246 N249 1.341 . S
C247 C245 1.400 . S
C247 C246 1.387 . S
N248 Co239 2.022 . S
N248 C245 1.351 . S
N248 N249 1.365 . S
N249 C246 1.341 . S
N249 N248 1.365 . S
N249 H269 0.862 . S
C250 C245 1.501 . S
C250 H251 0.961 . S
C250 H252 0.961 . S
C250 H253 0.960 . S
H251 C250 0.961 . S
H252 C250 0.961 . S
H253 C250 0.960 . S
C254 N255 1.342 . S
C254 C258 1.401 . S
C254 C259 1.499 . S
N255 Co238 1.989 . S
N255 C254 1.342 . S
N255 N256 1.388 . S
N256 Co239 1.993 . S
N256 N255 1.388 . S
N256 C257 1.346 . S
C257 N256 1.346 . S
C257 C258 1.396 . S
C257 C267 1.510 . S
C258 C254 1.401 . S
C258 C257 1.396 . S
C259 C254 1.499 . S
C259 H260 0.959 . S
C259 H261 0.960 . S
C259 H262 0.961 . S
H260 C259 0.959 . S
H261 C259 0.960 . S
H262 C259 0.961 . S
O263 Co238 1.967 . S
O263 C271 1.258 . S
O264 Co239 1.941 . S
O264 C271 1.266 . S
H265 C267 0.959 . S
H266 C267 0.961 . S
C267 C257 1.510 . S
C267 H265 0.959 . S
C267 H266 0.961 . S
C267 H268 0.960 . S
H268 C267 0.960 . S
H269 N249 0.862 . S
O270 Co238 1.920 . S
O270 C243 1.289 . S
C271 O263 1.258 . S
C271 O264 1.266 . S
Co272 O275 1.970 . S
Co272 N289 1.989 . S
Co272 O297 1.967 . S
Co272 O304 1.920 1_655 S
Co273 O276 1.966 . S
Co273 N282 2.022 . S
Co273 N290 1.993 . S
Co273 O298 1.941 . S
C274 O275 1.258 . S
C274 O276 1.263 . S
O275 Co272 1.970 . S
O275 C274 1.258 . S
O276 Co273 1.966 . S
O276 C274 1.263 . S
C277 O278 1.235 . S
C277 O304 1.289 . S
O278 C277 1.235 . S
C279 C281 1.400 . S
C279 N282 1.351 . S
C279 C284 1.501 . S
C280 C281 1.387 . S
C280 N283 1.341 . S
C281 C279 1.400 . S
C281 C280 1.387 . S
N282 Co273 2.022 . S
N282 C279 1.351 . S
N282 N283 1.365 . S
N283 C280 1.341 . S
N283 N282 1.365 . S
N283 H303 0.862 . S
C284 C279 1.501 . S
C284 H285 0.961 . S
C284 H286 0.961 . S
C284 H287 0.960 . S
H285 C284 0.961 . S
H286 C284 0.961 . S
H287 C284 0.960 . S
C288 N289 1.342 . S
C288 C292 1.401 . S
C288 C293 1.499 1_655 S
N289 Co272 1.989 . S
N289 C288 1.342 . S
N289 N290 1.388 . S
N290 Co273 1.993 . S
N290 N289 1.388 . S
N290 C291 1.346 . S
C291 N290 1.346 . S
C291 C292 1.396 . S
C291 C301 1.510 . S
C292 C288 1.401 . S
C292 C291 1.396 . S
C293 C288 1.499 1_455 S
C293 H294 0.959 . S
C293 H295 0.960 . S
C293 H296 0.961 . S
H294 C293 0.959 . S
H295 C293 0.960 . S
H296 C293 0.961 . S
O297 Co272 1.967 . S
O297 C305 1.258 . S
O298 Co273 1.941 . S
O298 C305 1.266 . S
H299 C301 0.959 . S
H300 C301 0.961 . S
C301 C291 1.510 . S
C301 H299 0.959 . S
C301 H300 0.961 . S
C301 H302 0.960 . S
H302 C301 0.960 . S
H303 N283 0.862 . S
O304 Co272 1.920 1_455 S
O304 C277 1.289 . S
C305 O297 1.258 . S
C305 O298 1.266 . S
Co306 O309 1.970 . S
Co306 N323 1.989 . S
Co306 O331 1.967 . S
Co306 O338 1.920 1_565 S
Co307 O310 1.966 . S
Co307 N316 2.022 . S
Co307 N324 1.993 . S
Co307 O332 1.941 . S
C308 O309 1.258 . S
C308 O310 1.263 . S
O309 Co306 1.970 . S
O309 C308 1.258 . S
O310 Co307 1.966 . S
O310 C308 1.263 . S
C311 O312 1.235 . S
C311 O338 1.289 . S
O312 C311 1.235 . S
C313 C315 1.400 . S
C313 N316 1.351 . S
C313 C318 1.501 . S
C314 C315 1.387 . S
C314 N317 1.341 . S
C315 C313 1.400 . S
C315 C314 1.387 . S
N316 Co307 2.022 . S
N316 C313 1.351 . S
N316 N317 1.365 . S
N317 C314 1.341 . S
N317 N316 1.365 . S
N317 H337 0.862 . S
C318 C313 1.501 . S
C318 H319 0.961 . S
C318 H320 0.961 . S
C318 H321 0.960 . S
H319 C318 0.961 . S
H320 C318 0.961 . S
H321 C318 0.960 . S
C322 N323 1.342 . S
C322 C326 1.401 . S
C322 C327 1.499 1_565 S
N323 Co306 1.989 . S
N323 C322 1.342 . S
N323 N324 1.388 . S
N324 Co307 1.993 . S
N324 N323 1.388 . S
N324 C325 1.346 . S
C325 N324 1.346 . S
C325 C326 1.396 . S
C325 C335 1.510 . S
C326 C322 1.401 . S
C326 C325 1.396 . S
C327 C322 1.499 1_545 S
C327 H328 0.959 . S
C327 H329 0.960 . S
C327 H330 0.961 . S
H328 C327 0.959 . S
H329 C327 0.960 . S
H330 C327 0.961 . S
O331 Co306 1.967 . S
O331 C339 1.258 . S
O332 Co307 1.941 . S
O332 C339 1.266 . S
H333 C335 0.959 . S
H334 C335 0.961 . S
C335 C325 1.510 . S
C335 H333 0.959 . S
C335 H334 0.961 . S
C335 H336 0.960 . S
H336 C335 0.960 . S
H337 N317 0.862 . S
O338 Co306 1.920 1_545 S
O338 C311 1.289 . S
C339 O331 1.258 . S
C339 O332 1.266 . S
Co340 O343 1.970 . S
Co340 N357 1.989 . S
Co340 O365 1.967 . S
Co340 O372 1.920 1_455 S
Co341 O344 1.966 . S
Co341 N350 2.022 . S
Co341 N358 1.993 . S
Co341 O366 1.941 . S
C342 O343 1.258 . S
C342 O344 1.263 . S
O343 Co340 1.970 . S
O343 C342 1.258 . S
O344 Co341 1.966 . S
O344 C342 1.263 . S
C345 O346 1.235 . S
C345 O372 1.289 . S
O346 C345 1.235 . S
C347 C349 1.400 . S
C347 N350 1.351 . S
C347 C352 1.501 . S
C348 C349 1.387 . S
C348 N351 1.341 . S
C349 C347 1.400 . S
C349 C348 1.387 . S
N350 Co341 2.022 . S
N350 C347 1.351 . S
N350 N351 1.365 . S
N351 C348 1.341 . S
N351 N350 1.365 . S
N351 H371 0.862 . S
C352 C347 1.501 . S
C352 H353 0.961 . S
C352 H354 0.961 . S
C352 H355 0.960 . S
H353 C352 0.961 . S
H354 C352 0.961 . S
H355 C352 0.960 . S
C356 N357 1.342 . S
C356 C360 1.401 . S
C356 C361 1.499 1_455 S
N357 Co340 1.989 . S
N357 C356 1.342 . S
N357 N358 1.388 . S
N358 Co341 1.993 . S
N358 N357 1.388 . S
N358 C359 1.346 . S
C359 N358 1.346 . S
C359 C360 1.396 . S
C359 C369 1.510 . S
C360 C356 1.401 . S
C360 C359 1.396 . S
C361 C356 1.499 1_655 S
C361 H362 0.959 . S
C361 H363 0.960 . S
C361 H364 0.961 . S
H362 C361 0.959 . S
H363 C361 0.960 . S
H364 C361 0.961 . S
O365 Co340 1.967 . S
O365 C373 1.258 . S
O366 Co341 1.941 . S
O366 C373 1.266 . S
H367 C369 0.959 . S
H368 C369 0.961 . S
C369 C359 1.510 . S
C369 H367 0.959 . S
C369 H368 0.961 . S
C369 H370 0.960 . S
H370 C369 0.960 . S
H371 N351 0.862 . S
O372 Co340 1.920 1_655 S
O372 C345 1.289 . S
C373 O365 1.258 . S
C373 O366 1.266 . S
Co374 O377 1.970 . S
Co374 N391 1.989 . S
Co374 O399 1.967 . S
Co374 O406 1.920 1_545 S
Co375 O378 1.966 . S
Co375 N384 2.022 . S
Co375 N392 1.993 . S
Co375 O400 1.941 . S
C376 O377 1.258 . S
C376 O378 1.263 . S
O377 Co374 1.970 . S
O377 C376 1.258 . S
O378 Co375 1.966 . S
O378 C376 1.263 . S
C379 O380 1.235 . S
C379 O406 1.289 . S
O380 C379 1.235 . S
C381 C383 1.400 . S
C381 N384 1.351 . S
C381 C386 1.501 . S
C382 C383 1.387 . S
C382 N385 1.341 . S
C383 C381 1.400 . S
C383 C382 1.387 . S
N384 Co375 2.022 . S
N384 C381 1.351 . S
N384 N385 1.365 . S
N385 C382 1.341 . S
N385 N384 1.365 . S
N385 H405 0.862 . S
C386 C381 1.501 . S
C386 H387 0.961 . S
C386 H388 0.961 . S
C386 H389 0.960 . S
H387 C386 0.961 . S
H388 C386 0.961 . S
H389 C386 0.960 . S
C390 N391 1.342 . S
C390 C394 1.401 . S
C390 C395 1.499 1_545 S
N391 Co374 1.989 . S
N391 C390 1.342 . S
N391 N392 1.388 . S
N392 Co375 1.993 . S
N392 N391 1.388 . S
N392 C393 1.346 . S
C393 N392 1.346 . S
C393 C394 1.396 . S
C393 C403 1.510 . S
C394 C390 1.401 . S
C394 C393 1.396 . S
C395 C390 1.499 1_565 S
C395 H396 0.959 . S
C395 H397 0.960 . S
C395 H398 0.961 . S
H396 C395 0.959 . S
H397 C395 0.960 . S
H398 C395 0.961 . S
O399 Co374 1.967 . S
O399 C407 1.258 . S
O400 Co375 1.941 . S
O400 C407 1.266 . S
H401 C403 0.959 . S
H402 C403 0.961 . S
C403 C393 1.510 . S
C403 H401 0.959 . S
C403 H402 0.961 . S
C403 H404 0.960 . S
H404 C403 0.960 . S
H405 N385 0.862 . S
O406 Co374 1.920 1_565 S
O406 C379 1.289 . S
C407 O399 1.258 . S
C407 O400 1.266 . S
Co408 O411 1.970 . S
Co408 N425 1.989 . S
Co408 O433 1.967 . S
Co408 O440 1.920 . S
Co409 O412 1.966 . S
Co409 N418 2.022 . S
Co409 N426 1.993 . S
Co409 O434 1.941 . S
C410 O411 1.258 . S
C410 O412 1.263 . S
O411 Co408 1.970 . S
O411 C410 1.258 . S
O412 Co409 1.966 . S
O412 C410 1.263 . S
C413 O414 1.235 . S
C413 O440 1.289 . S
O414 C413 1.235 . S
C415 C417 1.400 . S
C415 N418 1.351 . S
C415 C420 1.501 . S
C416 C417 1.387 . S
C416 N419 1.341 . S
C417 C415 1.400 . S
C417 C416 1.387 . S
N418 Co409 2.022 . S
N418 C415 1.351 . S
N418 N419 1.365 . S
N419 C416 1.341 . S
N419 N418 1.365 . S
N419 H439 0.862 . S
C420 C415 1.501 . S
C420 H421 0.961 . S
C420 H422 0.961 . S
C420 H423 0.960 . S
H421 C420 0.961 . S
H422 C420 0.961 . S
H423 C420 0.960 . S
C424 N425 1.342 . S
C424 C428 1.401 . S
C424 C429 1.499 . S
N425 Co408 1.989 . S
N425 C424 1.342 . S
N425 N426 1.388 . S
N426 Co409 1.993 . S
N426 N425 1.388 . S
N426 C427 1.346 . S
C427 N426 1.346 . S
C427 C428 1.396 . S
C427 C437 1.510 . S
C428 C424 1.401 . S
C428 C427 1.396 . S
C429 C424 1.499 . S
C429 H430 0.959 . S
C429 H431 0.960 . S
C429 H432 0.961 . S
H430 C429 0.959 . S
H431 C429 0.960 . S
H432 C429 0.961 . S
O433 Co408 1.967 . S
O433 C441 1.258 . S
O434 Co409 1.941 . S
O434 C441 1.266 . S
H435 C437 0.959 . S
H436 C437 0.961 . S
C437 C427 1.510 . S
C437 H435 0.959 . S
C437 H436 0.961 . S
C437 H438 0.960 . S
H438 C437 0.960 . S
H439 N419 0.862 . S
O440 Co408 1.920 . S
O440 C413 1.289 . S
C441 O433 1.258 . S
C441 O434 1.266 . S
Co442 O445 1.970 . S
Co442 N459 1.989 . S
Co442 O467 1.967 . S
Co442 O474 1.920 . S
Co443 O446 1.966 . S
Co443 N452 2.022 . S
Co443 N460 1.993 . S
Co443 O468 1.941 . S
C444 O445 1.258 . S
C444 O446 1.263 . S
O445 Co442 1.970 . S
O445 C444 1.258 . S
O446 Co443 1.966 . S
O446 C444 1.263 . S
C447 O448 1.235 . S
C447 O474 1.289 . S
O448 C447 1.235 . S
C449 C451 1.400 . S
C449 N452 1.351 . S
C449 C454 1.501 . S
C450 C451 1.387 . S
C450 N453 1.341 . S
C451 C449 1.400 . S
C451 C450 1.387 . S
N452 Co443 2.022 . S
N452 C449 1.351 . S
N452 N453 1.365 . S
N453 C450 1.341 . S
N453 N452 1.365 . S
N453 H473 0.862 . S
C454 C449 1.501 . S
C454 H455 0.961 . S
C454 H456 0.961 . S
C454 H457 0.960 . S
H455 C454 0.961 . S
H456 C454 0.961 . S
H457 C454 0.960 . S
C458 N459 1.342 . S
C458 C462 1.401 . S
C458 C463 1.499 . S
N459 Co442 1.989 . S
N459 C458 1.342 . S
N459 N460 1.388 . S
N460 Co443 1.993 . S
N460 N459 1.388 . S
N460 C461 1.346 . S
C461 N460 1.346 . S
C461 C462 1.396 . S
C461 C471 1.510 . S
C462 C458 1.401 . S
C462 C461 1.396 . S
C463 C458 1.499 . S
C463 H464 0.959 . S
C463 H465 0.960 . S
C463 H466 0.961 . S
H464 C463 0.959 . S
H465 C463 0.960 . S
H466 C463 0.961 . S
O467 Co442 1.967 . S
O467 C475 1.258 . S
O468 Co443 1.941 . S
O468 C475 1.266 . S
H469 C471 0.959 . S
H470 C471 0.961 . S
C471 C461 1.510 . S
C471 H469 0.959 . S
C471 H470 0.961 . S
C471 H472 0.960 . S
H472 C471 0.960 . S
H473 N453 0.862 . S
O474 Co442 1.920 . S
O474 C447 1.289 . S
C475 O467 1.258 . S
C475 O468 1.266 . S
Co476 O479 1.970 . S
Co476 N493 1.989 . S
Co476 O501 1.967 . S
Co476 O508 1.920 . S
Co477 O480 1.966 . S
Co477 N486 2.022 . S
Co477 N494 1.993 . S
Co477 O502 1.941 . S
C478 O479 1.258 . S
C478 O480 1.263 . S
O479 Co476 1.970 . S
O479 C478 1.258 . S
O480 Co477 1.966 . S
O480 C478 1.263 . S
C481 O482 1.235 . S
C481 O508 1.289 . S
O482 C481 1.235 . S
C483 C485 1.400 . S
C483 N486 1.351 . S
C483 C488 1.501 . S
C484 C485 1.387 . S
C484 N487 1.341 . S
C485 C483 1.400 . S
C485 C484 1.387 . S
N486 Co477 2.022 . S
N486 C483 1.351 . S
N486 N487 1.365 . S
N487 C484 1.341 . S
N487 N486 1.365 . S
N487 H507 0.862 . S
C488 C483 1.501 . S
C488 H489 0.961 . S
C488 H490 0.961 . S
C488 H491 0.960 . S
H489 C488 0.961 . S
H490 C488 0.961 . S
H491 C488 0.960 . S
C492 N493 1.342 . S
C492 C496 1.401 . S
C492 C497 1.499 . S
N493 Co476 1.989 . S
N493 C492 1.342 . S
N493 N494 1.388 . S
N494 Co477 1.993 . S
N494 N493 1.388 . S
N494 C495 1.346 . S
C495 N494 1.346 . S
C495 C496 1.396 . S
C495 C505 1.510 . S
C496 C492 1.401 . S
C496 C495 1.396 . S
C497 C492 1.499 . S
C497 H498 0.959 . S
C497 H499 0.960 . S
C497 H500 0.961 . S
H498 C497 0.959 . S
H499 C497 0.960 . S
H500 C497 0.961 . S
O501 Co476 1.967 . S
O501 C509 1.258 . S
O502 Co477 1.941 . S
O502 C509 1.266 . S
H503 C505 0.959 . S
H504 C505 0.961 . S
C505 C495 1.510 . S
C505 H503 0.959 . S
C505 H504 0.961 . S
C505 H506 0.960 . S
H506 C505 0.960 . S
H507 N487 0.862 . S
O508 Co476 1.920 . S
O508 C481 1.289 . S
C509 O501 1.258 . S
C509 O502 1.266 . S
Co510 O513 1.970 . S
Co510 N527 1.989 . S
Co510 O535 1.967 . S
Co510 O542 1.920 . S
Co511 O514 1.966 . S
Co511 N520 2.022 . S
Co511 N528 1.993 . S
Co511 O536 1.941 . S
C512 O513 1.258 . S
C512 O514 1.263 . S
O513 Co510 1.970 . S
O513 C512 1.258 . S
O514 Co511 1.966 . S
O514 C512 1.263 . S
C515 O516 1.235 . S
C515 O542 1.289 . S
O516 C515 1.235 . S
C517 C519 1.400 . S
C517 N520 1.351 . S
C517 C522 1.501 . S
C518 C519 1.387 . S
C518 N521 1.341 . S
C519 C517 1.400 . S
C519 C518 1.387 . S
N520 Co511 2.022 . S
N520 C517 1.351 . S
N520 N521 1.365 . S
N521 C518 1.341 . S
N521 N520 1.365 . S
N521 H541 0.862 . S
C522 C517 1.501 . S
C522 H523 0.961 . S
C522 H524 0.961 . S
C522 H525 0.960 . S
H523 C522 0.961 . S
H524 C522 0.961 . S
H525 C522 0.960 . S
C526 N527 1.342 . S
C526 C530 1.401 . S
C526 C531 1.499 . S
N527 Co510 1.989 . S
N527 C526 1.342 . S
N527 N528 1.388 . S
N528 Co511 1.993 . S
N528 N527 1.388 . S
N528 C529 1.346 . S
C529 N528 1.346 . S
C529 C530 1.396 . S
C529 C539 1.510 . S
C530 C526 1.401 . S
C530 C529 1.396 . S
C531 C526 1.499 . S
C531 H532 0.959 . S
C531 H533 0.960 . S
C531 H534 0.961 . S
H532 C531 0.959 . S
H533 C531 0.960 . S
H534 C531 0.961 . S
O535 Co510 1.967 . S
O535 C543 1.258 . S
O536 Co511 1.941 . S
O536 C543 1.266 . S
H537 C539 0.959 . S
H538 C539 0.961 . S
C539 C529 1.510 . S
C539 H537 0.959 . S
C539 H538 0.961 . S
C539 H540 0.960 . S
H540 C539 0.960 . S
H541 N521 0.862 . S
O542 Co510 1.920 . S
O542 C515 1.289 . S
C543 O535 1.258 . S
C543 O536 1.266 . S
C544 C545 1.369 . S
C544 C546 1.419 1_545 S
C544 H548 0.930 . S
C545 C544 1.369 . S
C545 C554 1.429 1_455 S
C546 C544 1.419 1_565 S
C546 C547 1.363 1_455 S
C546 H549 0.929 . S
C547 C546 1.363 1_655 S
C547 C553 1.428 . S
H548 C544 0.930 . S
H549 C546 0.929 . S
S550 N551 1.613 . S
S550 N552 1.610 1_545 S
N551 S550 1.613 . S
N551 C554 1.350 . S
N552 S550 1.610 1_565 S
N552 C553 1.351 . S
C553 C547 1.428 . S
C553 N552 1.351 . S
C553 C554 1.434 1_565 S
C554 C545 1.429 1_655 S
C554 N551 1.350 . S
C554 C553 1.434 1_545 S
C555 C556 1.369 . S
C555 C557 1.419 1_455 S
C555 H559 0.930 . S
C556 C555 1.369 . S
C556 C565 1.429 1_565 S
C557 C555 1.419 1_655 S
C557 C558 1.363 1_565 S
C557 H560 0.929 . S
C558 C557 1.363 1_545 S
C558 C564 1.428 . S
H559 C555 0.930 . S
H560 C557 0.929 . S
S561 N562 1.613 . S
S561 N563 1.610 1_455 S
N562 S561 1.613 . S
N562 C565 1.350 . S
N563 S561 1.610 1_655 S
N563 C564 1.351 . S
C564 C558 1.428 . S
C564 N563 1.351 . S
C564 C565 1.434 1_655 S
C565 C556 1.429 1_545 S
C565 N562 1.350 . S
C565 C564 1.434 1_455 S
C566 C567 1.369 . S
C566 C568 1.419 . S
C566 H570 0.930 . S
C567 C566 1.369 . S
C567 C576 1.429 . S
C568 C566 1.419 . S
C568 C569 1.363 . S
C568 H571 0.929 . S
C569 C568 1.363 . S
C569 C575 1.428 . S
H570 C566 0.930 . S
H571 C568 0.929 . S
S572 N573 1.613 . S
S572 N574 1.610 . S
N573 S572 1.613 . S
N573 C576 1.350 . S
N574 S572 1.610 . S
N574 C575 1.351 . S
C575 C569 1.428 . S
C575 N574 1.351 . S
C575 C576 1.434 . S
C576 C567 1.429 . S
C576 N573 1.350 . S
C576 C575 1.434 . S
C577 C578 1.369 . S
C577 C579 1.419 . S
C577 H581 0.930 . S
C578 C577 1.369 . S
C578 C587 1.429 . S
C579 C577 1.419 . S
C579 C580 1.363 . S
C579 H582 0.929 . S
C580 C579 1.363 . S
C580 C586 1.428 . S
H581 C577 0.930 . S
H582 C579 0.929 . S
S583 N584 1.613 . S
S583 N585 1.610 . S
N584 S583 1.613 . S
N584 C587 1.350 . S
N585 S583 1.610 . S
N585 C586 1.351 . S
C586 C580 1.428 . S
C586 N585 1.351 . S
C586 C587 1.434 . S
C587 C578 1.429 . S
C587 N584 1.350 . S
C587 C586 1.434 . S
C588 C589 1.369 1_655 S
C588 C590 1.419 1_545 S
C588 H592 0.930 . S
C589 C588 1.369 1_455 S
C589 C598 1.429 . S
C590 C588 1.419 1_565 S
C590 C591 1.363 . S
C590 H593 0.929 . S
C591 C590 1.363 . S
C591 C597 1.428 1_655 S
H592 C588 0.930 . S
H593 C590 0.929 . S
S594 N595 1.613 . S
S594 N596 1.610 . S
N595 S594 1.613 . S
N595 C598 1.350 1_565 S
N596 S594 1.610 . S
N596 C597 1.351 . S
C597 C591 1.428 1_455 S
C597 N596 1.351 . S
C597 C598 1.434 1_565 S
C598 C589 1.429 . S
C598 N595 1.350 1_545 S
C598 C597 1.434 1_545 S
C599 C600 1.369 . S
C599 C601 1.419 1_465 S
C599 H603 0.930 . S
C600 C599 1.369 . S
C600 C609 1.429 . S
C601 C599 1.419 1_645 S
C601 C602 1.363 . S
C601 H604 0.929 . S
C602 C601 1.363 . S
C602 C608 1.428 . S
H603 C599 0.930 . S
H604 C601 0.929 . S
S605 N606 1.613 1_655 S
S605 N607 1.610 1_565 S
N606 S605 1.613 1_455 S
N606 C609 1.350 . S
N607 S605 1.610 1_545 S
N607 C608 1.351 . S
C608 C602 1.428 . S
C608 N607 1.351 . S
C608 C609 1.434 1_645 S
C609 C600 1.429 . S
C609 N606 1.350 . S
C609 C608 1.434 1_465 S
C610 C611 1.369 . S
C610 C612 1.419 . S
C610 H614 0.930 . S
C611 C610 1.369 . S
C611 C620 1.429 . S
C612 C610 1.419 . S
C612 C613 1.363 . S
C612 H615 0.929 . S
C613 C612 1.363 . S
C613 C619 1.428 . S
H614 C610 0.930 . S
H615 C612 0.929 . S
S616 N617 1.613 . S
S616 N618 1.610 . S
N617 S616 1.613 . S
N617 C620 1.350 . S
N618 S616 1.610 . S
N618 C619 1.351 . S
C619 C613 1.428 . S
C619 N618 1.351 . S
C619 C620 1.434 . S
C620 C611 1.429 . S
C620 N617 1.350 . S
C620 C619 1.434 . S
C621 C622 1.369 . S
C621 C623 1.419 . S
C621 H625 0.930 . S
C622 C621 1.369 . S
C622 C631 1.429 . S
C623 C621 1.419 . S
C623 C624 1.363 . S
C623 H626 0.929 . S
C624 C623 1.363 . S
C624 C630 1.428 . S
H625 C621 0.930 . S
H626 C623 0.929 . S
S627 N628 1.613 . S
S627 N629 1.610 . S
N628 S627 1.613 . S
N628 C631 1.350 . S
N629 S627 1.610 . S
N629 C630 1.351 . S
C630 C624 1.428 . S
C630 N629 1.351 . S
C630 C631 1.434 . S
C631 C622 1.429 . S
C631 N628 1.350 . S
C631 C630 1.434 . S
C632 C633 1.369 . S
C632 C634 1.419 . S
C632 H636 0.930 . S
C633 C632 1.369 . S
C633 C642 1.429 . S
C634 C632 1.419 . S
C634 C635 1.363 . S
C634 H637 0.929 . S
C635 C634 1.363 . S
C635 C641 1.428 . S
H636 C632 0.930 . S
H637 C634 0.929 . S
S638 N639 1.613 . S
S638 N640 1.610 . S
N639 S638 1.613 . S
N639 C642 1.350 1_655 S
N640 S638 1.610 . S
N640 C641 1.351 1_655 S
C641 C635 1.428 . S
C641 N640 1.351 1_455 S
C641 C642 1.434 . S
C642 C633 1.429 . S
C642 N639 1.350 1_455 S
C642 C641 1.434 . S
C643 C644 1.369 . S
C643 C645 1.419 . S
C643 H647 0.930 . S
C644 C643 1.369 . S
C644 C653 1.429 . S
C645 C643 1.419 . S
C645 C646 1.363 . S
C645 H648 0.929 . S
C646 C645 1.363 . S
C646 C652 1.428 . S
H647 C643 0.930 . S
H648 C645 0.929 . S
S649 N650 1.613 . S
S649 N651 1.610 . S
N650 S649 1.613 . S
N650 C653 1.350 1_565 S
N651 S649 1.610 . S
N651 C652 1.351 1_565 S
C652 C646 1.428 . S
C652 N651 1.351 1_545 S
C652 C653 1.434 . S
C653 C644 1.429 . S
C653 N650 1.350 1_545 S
C653 C652 1.434 . S
C654 C655 1.369 . S
C654 C656 1.419 . S
C654 H658 0.930 . S
C655 C654 1.369 . S
C655 C664 1.429 . S
C656 C654 1.419 . S
C656 C657 1.363 . S
C656 H659 0.929 . S
C657 C656 1.363 . S
C657 C663 1.428 . S
H658 C654 0.930 . S
H659 C656 0.929 . S
S660 N661 1.613 1_455 S
S660 N662 1.610 1_455 S
N661 S660 1.613 1_655 S
N661 C664 1.350 . S
N662 S660 1.610 1_655 S
N662 C663 1.351 . S
C663 C657 1.428 . S
C663 N662 1.351 . S
C663 C664 1.434 . S
C664 C655 1.429 . S
C664 N661 1.350 . S
C664 C663 1.434 . S
C665 C666 1.369 . S
C665 C667 1.419 . S
C665 H669 0.930 1_565 S
C666 C665 1.369 . S
C666 C675 1.429 . S
C667 C665 1.419 . S
C667 C668 1.363 . S
C667 H670 0.929 1_565 S
C668 C667 1.363 . S
C668 C674 1.428 . S
H669 C665 0.930 1_545 S
H670 C667 0.929 1_545 S
S671 N672 1.613 . S
S671 N673 1.610 . S
N672 S671 1.613 . S
N672 C675 1.350 . S
N673 S671 1.610 . S
N673 C674 1.351 . S
C674 C668 1.428 . S
C674 N673 1.351 . S
C674 C675 1.434 . S
C675 C666 1.429 . S
C675 N672 1.350 . S
C675 C674 1.434 . S
C676 C677 1.369 . S
C676 C678 1.419 . S
C676 H680 0.930 . S
C677 C676 1.369 . S
C677 C686 1.429 . S
C678 C676 1.419 . S
C678 C679 1.363 . S
C678 H681 0.929 . S
C679 C678 1.363 . S
C679 C685 1.428 . S
H680 C676 0.930 . S
H681 C678 0.929 . S
S682 N683 1.613 . S
S682 N684 1.610 . S
N683 S682 1.613 . S
N683 C686 1.350 . S
N684 S682 1.610 . S
N684 C685 1.351 . S
C685 C679 1.428 . S
C685 N684 1.351 . S
C685 C686 1.434 . S
C686 C677 1.429 . S
C686 N683 1.350 . S
C686 C685 1.434 . S
C687 C688 1.369 . S
C687 C689 1.419 . S
C687 H691 0.930 . S
C688 C687 1.369 . S
C688 C697 1.429 . S
C689 C687 1.419 . S
C689 C690 1.363 . S
C689 H692 0.929 . S
C690 C689 1.363 . S
C690 C696 1.428 . S
H691 C687 0.930 . S
H692 C689 0.929 . S
S693 N694 1.613 . S
S693 N695 1.610 . S
N694 S693 1.613 . S
N694 C697 1.350 . S
N695 S693 1.610 . S
N695 C696 1.351 . S
C696 C690 1.428 . S
C696 N695 1.351 . S
C696 C697 1.434 . S
C697 C688 1.429 . S
C697 N694 1.350 . S
C697 C696 1.434 . S
C698 C699 1.369 . S
C698 C700 1.419 . S
C698 H702 0.930 . S
C699 C698 1.369 . S
C699 C708 1.429 . S
C700 C698 1.419 . S
C700 C701 1.363 . S
C700 H703 0.929 . S
C701 C700 1.363 . S
C701 C707 1.428 . S
H702 C698 0.930 . S
H703 C700 0.929 . S
S704 N705 1.613 . S
S704 N706 1.610 . S
N705 S704 1.613 . S
N705 C708 1.350 . S
N706 S704 1.610 . S
N706 C707 1.351 . S
C707 C701 1.428 . S
C707 N706 1.351 . S
C707 C708 1.434 . S
C708 C699 1.429 . S
C708 N705 1.350 . S
C708 C707 1.434 . S
C709 C710 1.369 . S
C709 C711 1.419 . S
C709 H713 0.930 . S
C710 C709 1.369 . S
C710 C719 1.429 . S
C711 C709 1.419 . S
C711 C712 1.363 . S
C711 H714 0.929 . S
C712 C711 1.363 . S
C712 C718 1.428 . S
H713 C709 0.930 . S
H714 C711 0.929 . S
S715 N716 1.613 . S
S715 N717 1.610 . S
N716 S715 1.613 . S
N716 C719 1.350 . S
N717 S715 1.610 . S
N717 C718 1.351 . S
C718 C712 1.428 . S
C718 N717 1.351 . S
C718 C719 1.434 . S
C719 C710 1.429 . S
C719 N716 1.350 . S
C719 C718 1.434 . S
C720 C721 1.369 . S
C720 C722 1.419 . S
C720 H724 0.930 . S
C721 C720 1.369 . S
C721 C730 1.429 . S
C722 C720 1.419 . S
C722 C723 1.363 . S
C722 H725 0.929 . S
C723 C722 1.363 . S
C723 C729 1.428 . S
H724 C720 0.930 . S
H725 C722 0.929 . S
S726 N727 1.613 . S
S726 N728 1.610 . S
N727 S726 1.613 . S
N727 C730 1.350 . S
N728 S726 1.610 . S
N728 C729 1.351 . S
C729 C723 1.428 . S
C729 N728 1.351 . S
C729 C730 1.434 . S
C730 C721 1.429 . S
C730 N727 1.350 . S
C730 C729 1.434 . S
C731 C732 1.369 . S
C731 C733 1.419 . S
C731 H735 0.930 . S
C732 C731 1.369 . S
C732 C741 1.429 . S
C733 C731 1.419 . S
C733 C734 1.363 . S
C733 H736 0.929 . S
C734 C733 1.363 . S
C734 C740 1.428 . S
H735 C731 0.930 . S
H736 C733 0.929 . S
S737 N738 1.613 . S
S737 N739 1.610 . S
N738 S737 1.613 . S
N738 C741 1.350 . S
N739 S737 1.610 . S
N739 C740 1.351 . S
C740 C734 1.428 . S
C740 N739 1.351 . S
C740 C741 1.434 . S
C741 C732 1.429 . S
C741 N738 1.350 . S
C741 C740 1.434 . S
C742 C743 1.369 . S
C742 C744 1.419 . S
C742 H746 0.930 . S
C743 C742 1.369 . S
C743 C752 1.429 . S
C744 C742 1.419 . S
C744 C745 1.363 . S
C744 H747 0.929 . S
C745 C744 1.363 . S
C745 C751 1.428 . S
H746 C742 0.930 . S
H747 C744 0.929 . S
S748 N749 1.613 . S
S748 N750 1.610 . S
N749 S748 1.613 . S
N749 C752 1.350 . S
N750 S748 1.610 . S
N750 C751 1.351 . S
C751 C745 1.428 . S
C751 N750 1.351 . S
C751 C752 1.434 . S
C752 C743 1.429 . S
C752 N749 1.350 . S
C752 C751 1.434 . S
C753 C754 1.369 . S
C753 C755 1.419 . S
C753 H757 0.930 . S
C754 C753 1.369 . S
C754 C763 1.429 . S
C755 C753 1.419 . S
C755 C756 1.363 . S
C755 H758 0.929 . S
C756 C755 1.363 . S
C756 C762 1.428 . S
H757 C753 0.930 . S
H758 C755 0.929 . S
S759 N760 1.613 . S
S759 N761 1.610 . S
N760 S759 1.613 . S
N760 C763 1.350 . S
N761 S759 1.610 . S
N761 C762 1.351 . S
C762 C756 1.428 . S
C762 N761 1.351 . S
C762 C763 1.434 . S
C763 C754 1.429 . S
C763 N760 1.350 . S
C763 C762 1.434 . S
C764 C765 1.369 . S
C764 C766 1.419 . S
C764 H768 0.930 . S
C765 C764 1.369 . S
C765 C774 1.429 . S
C766 C764 1.419 . S
C766 C767 1.363 . S
C766 H769 0.929 . S
C767 C766 1.363 . S
C767 C773 1.428 . S
H768 C764 0.930 . S
H769 C766 0.929 . S
S770 N771 1.613 . S
S770 N772 1.610 . S
N771 S770 1.613 . S
N771 C774 1.350 . S
N772 S770 1.610 . S
N772 C773 1.351 . S
C773 C767 1.428 . S
C773 N772 1.351 . S
C773 C774 1.434 . S
C774 C765 1.429 . S
C774 N771 1.350 . S
C774 C773 1.434 . S
C775 C776 1.369 . S
C775 C777 1.419 . S
C775 H779 0.930 . S
C776 C775 1.369 . S
C776 C785 1.429 . S
C777 C775 1.419 . S
C777 C778 1.363 . S
C777 H780 0.929 . S
C778 C777 1.363 . S
C778 C784 1.428 . S
H779 C775 0.930 . S
H780 C777 0.929 . S
S781 N782 1.613 . S
S781 N783 1.610 . S
N782 S781 1.613 . S
N782 C785 1.350 . S
N783 S781 1.610 . S
N783 C784 1.351 . S
C784 C778 1.428 . S
C784 N783 1.351 . S
C784 C785 1.434 . S
C785 C776 1.429 . S
C785 N782 1.350 . S
C785 C784 1.434 . S
C786 C787 1.369 . S
C786 C788 1.419 . S
C786 H790 0.930 . S
C787 C786 1.369 . S
C787 C796 1.429 . S
C788 C786 1.419 . S
C788 C789 1.363 . S
C788 H791 0.929 . S
C789 C788 1.363 . S
C789 C795 1.428 . S
H790 C786 0.930 . S
H791 C788 0.929 . S
S792 N793 1.613 . S
S792 N794 1.610 . S
N793 S792 1.613 . S
N793 C796 1.350 . S
N794 S792 1.610 . S
N794 C795 1.351 . S
C795 C789 1.428 . S
C795 N794 1.351 . S
C795 C796 1.434 . S
C796 C787 1.429 . S
C796 N793 1.350 . S
C796 C795 1.434 . S
C797 C798 1.369 . S
C797 C799 1.419 . S
C797 H801 0.930 . S
C798 C797 1.369 . S
C798 C807 1.429 . S
C799 C797 1.419 . S
C799 C800 1.363 . S
C799 H802 0.929 . S
C800 C799 1.363 . S
C800 C806 1.428 . S
H801 C797 0.930 . S
H802 C799 0.929 . S
S803 N804 1.613 . S
S803 N805 1.610 . S
N804 S803 1.613 . S
N804 C807 1.350 . S
N805 S803 1.610 . S
N805 C806 1.351 . S
C806 C800 1.428 . S
C806 N805 1.351 . S
C806 C807 1.434 . S
C807 C798 1.429 . S
C807 N804 1.350 . S
C807 C806 1.434 . S
C808 C809 1.369 . S
C808 C810 1.419 . S
C808 H812 0.930 . S
C809 C808 1.369 . S
C809 C818 1.429 . S
C810 C808 1.419 . S
C810 C811 1.363 . S
C810 H813 0.929 . S
C811 C810 1.363 . S
C811 C817 1.428 . S
H812 C808 0.930 . S
H813 C810 0.929 . S
S814 N815 1.613 . S
S814 N816 1.610 . S
N815 S814 1.613 . S
N815 C818 1.350 . S
N816 S814 1.610 . S
N816 C817 1.351 . S
C817 C811 1.428 . S
C817 N816 1.351 . S
C817 C818 1.434 . S
C818 C809 1.429 . S
C818 N815 1.350 . S
C818 C817 1.434 . S
C819 C820 1.369 . S
C819 C821 1.419 . S
C819 H823 0.930 . S
C820 C819 1.369 . S
C820 C829 1.429 . S
C821 C819 1.419 . S
C821 C822 1.363 . S
C821 H824 0.929 . S
C822 C821 1.363 . S
C822 C828 1.428 . S
H823 C819 0.930 . S
H824 C821 0.929 . S
S825 N826 1.613 . S
S825 N827 1.610 . S
N826 S825 1.613 . S
N826 C829 1.350 . S
N827 S825 1.610 . S
N827 C828 1.351 . S
C828 C822 1.428 . S
C828 N827 1.351 . S
C828 C829 1.434 . S
C829 C820 1.429 . S
C829 N826 1.350 . S
C829 C828 1.434 . S
C830 C831 1.369 . S
C830 C832 1.419 . S
C830 H834 0.930 . S
C831 C830 1.369 . S
C831 C840 1.429 . S
C832 C830 1.419 . S
C832 C833 1.363 . S
C832 H835 0.929 . S
C833 C832 1.363 . S
C833 C839 1.428 . S
H834 C830 0.930 . S
H835 C832 0.929 . S
S836 N837 1.613 . S
S836 N838 1.610 . S
N837 S836 1.613 . S
N837 C840 1.350 . S
N838 S836 1.610 . S
N838 C839 1.351 . S
C839 C833 1.428 . S
C839 N838 1.351 . S
C839 C840 1.434 . S
C840 C831 1.429 . S
C840 N837 1.350 . S
C840 C839 1.434 . S
C841 C842 1.369 . S
C841 C843 1.419 . S
C841 H845 0.930 . S
C842 C841 1.369 . S
C842 C851 1.429 . S
C843 C841 1.419 . S
C843 C844 1.363 . S
C843 H846 0.929 . S
C844 C843 1.363 . S
C844 C850 1.428 . S
H845 C841 0.930 . S
H846 C843 0.929 . S
S847 N848 1.613 . S
S847 N849 1.610 . S
N848 S847 1.613 . S
N848 C851 1.350 . S
N849 S847 1.610 . S
N849 C850 1.351 . S
C850 C844 1.428 . S
C850 N849 1.351 . S
C850 C851 1.434 . S
C851 C842 1.429 . S
C851 N848 1.350 . S
C851 C850 1.434 . S
C852 C853 1.369 . S
C852 C854 1.419 . S
C852 H856 0.930 . S
C853 C852 1.369 . S
C853 C862 1.429 . S
C854 C852 1.419 . S
C854 C855 1.363 . S
C854 H857 0.929 . S
C855 C854 1.363 . S
C855 C861 1.428 . S
H856 C852 0.930 . S
H857 C854 0.929 . S
S858 N859 1.613 . S
S858 N860 1.610 . S
N859 S858 1.613 . S
N859 C862 1.350 . S
N860 S858 1.610 . S
N860 C861 1.351 . S
C861 C855 1.428 . S
C861 N860 1.351 . S
C861 C862 1.434 . S
C862 C853 1.429 . S
C862 N859 1.350 . S
C862 C861 1.434 . S
C863 C864 1.369 . S
C863 C865 1.419 . S
C863 H867 0.930 . S
C864 C863 1.369 . S
C864 C873 1.429 . S
C865 C863 1.419 . S
C865 C866 1.363 . S
C865 H868 0.929 . S
C866 C865 1.363 . S
C866 C872 1.428 . S
H867 C863 0.930 . S
H868 C865 0.929 . S
S869 N870 1.613 . S
S869 N871 1.610 . S
N870 S869 1.613 . S
N870 C873 1.350 . S
N871 S869 1.610 . S
N871 C872 1.351 . S
C872 C866 1.428 . S
C872 N871 1.351 . S
C872 C873 1.434 . S
C873 C864 1.429 . S
C873 N870 1.350 . S
C873 C872 1.434 . S
C874 C875 1.369 . S
C874 C876 1.419 . S
C874 H878 0.930 . S
C875 C874 1.369 . S
C875 C884 1.429 . S
C876 C874 1.419 . S
C876 C877 1.363 . S
C876 H879 0.929 . S
C877 C876 1.363 . S
C877 C883 1.428 . S
H878 C874 0.930 . S
H879 C876 0.929 . S
S880 N881 1.613 . S
S880 N882 1.610 . S
N881 S880 1.613 . S
N881 C884 1.350 . S
N882 S880 1.610 . S
N882 C883 1.351 . S
C883 C877 1.428 . S
C883 N882 1.351 . S
C883 C884 1.434 . S
C884 C875 1.429 . S
C884 N881 1.350 . S
C884 C883 1.434 . S
C885 C886 1.369 . S
C885 C887 1.419 . S
C885 H889 0.930 . S
C886 C885 1.369 . S
C886 C895 1.429 . S
C887 C885 1.419 . S
C887 C888 1.363 . S
C887 H890 0.929 . S
C888 C887 1.363 . S
C888 C894 1.428 . S
H889 C885 0.930 . S
H890 C887 0.929 . S
S891 N892 1.613 . S
S891 N893 1.610 . S
N892 S891 1.613 . S
N892 C895 1.350 . S
N893 S891 1.610 . S
N893 C894 1.351 . S
C894 C888 1.428 . S
C894 N893 1.351 . S
C894 C895 1.434 . S
C895 C886 1.429 . S
C895 N892 1.350 . S
C895 C894 1.434 . S
C896 C897 1.369 . S
C896 C898 1.419 . S
C896 H900 0.930 . S
C897 C896 1.369 . S
C897 C906 1.429 . S
C898 C896 1.419 . S
C898 C899 1.363 . S
C898 H901 0.929 . S
C899 C898 1.363 . S
C899 C905 1.428 . S
H900 C896 0.930 . S
H901 C898 0.929 . S
S902 N903 1.613 . S
S902 N904 1.610 . S
N903 S902 1.613 . S
N903 C906 1.350 . S
N904 S902 1.610 . S
N904 C905 1.351 . S
C905 C899 1.428 . S
C905 N904 1.351 . S
C905 C906 1.434 . S
C906 C897 1.429 . S
C906 N903 1.350 . S
C906 C905 1.434 . S
C907 C908 1.369 . S
C907 C909 1.419 . S
C907 H911 0.930 . S
C908 C907 1.369 . S
C908 C917 1.429 . S
C909 C907 1.419 . S
C909 C910 1.363 . S
C909 H912 0.929 . S
C910 C909 1.363 . S
C910 C916 1.428 . S
H911 C907 0.930 . S
H912 C909 0.929 . S
S913 N914 1.613 . S
S913 N915 1.610 . S
N914 S913 1.613 . S
N914 C917 1.350 . S
N915 S913 1.610 . S
N915 C916 1.351 . S
C916 C910 1.428 . S
C916 N915 1.351 . S
C916 C917 1.434 . S
C917 C908 1.429 . S
C917 N914 1.350 . S
C917 C916 1.434 . S
C918 C919 1.369 . S
C918 C920 1.419 . S
C918 H922 0.930 . S
C919 C918 1.369 . S
C919 C928 1.429 . S
C920 C918 1.419 . S
C920 C921 1.363 . S
C920 H923 0.929 . S
C921 C920 1.363 . S
C921 C927 1.428 . S
H922 C918 0.930 . S
H923 C920 0.929 . S
S924 N925 1.613 . S
S924 N926 1.610 . S
N925 S924 1.613 . S
N925 C928 1.350 . S
N926 S924 1.610 . S
N926 C927 1.351 . S
C927 C921 1.428 . S
C927 N926 1.351 . S
C927 C928 1.434 . S
C928 C919 1.429 . S
C928 N925 1.350 . S
C928 C927 1.434 . S
C929 C930 1.369 . S
C929 C931 1.419 . S
C929 H933 0.930 . S
C930 C929 1.369 . S
C930 C939 1.429 . S
C931 C929 1.419 . S
C931 C932 1.363 . S
C931 H934 0.929 . S
C932 C931 1.363 . S
C932 C938 1.428 . S
H933 C929 0.930 . S
H934 C931 0.929 . S
S935 N936 1.613 . S
S935 N937 1.610 . S
N936 S935 1.613 . S
N936 C939 1.350 . S
N937 S935 1.610 . S
N937 C938 1.351 . S
C938 C932 1.428 . S
C938 N937 1.351 . S
C938 C939 1.434 . S
C939 C930 1.429 . S
C939 N936 1.350 . S
C939 C938 1.434 . S
C940 C941 1.369 . S
C940 C942 1.419 . S
C940 H944 0.930 . S
C941 C940 1.369 . S
C941 C950 1.429 . S
C942 C940 1.419 . S
C942 C943 1.363 . S
C942 H945 0.929 . S
C943 C942 1.363 . S
C943 C949 1.428 . S
H944 C940 0.930 . S
H945 C942 0.929 . S
S946 N947 1.613 . S
S946 N948 1.610 . S
N947 S946 1.613 . S
N947 C950 1.350 . S
N948 S946 1.610 . S
N948 C949 1.351 . S
C949 C943 1.428 . S
C949 N948 1.351 . S
C949 C950 1.434 . S
C950 C941 1.429 . S
C950 N947 1.350 . S
C950 C949 1.434 . S
C951 C952 1.369 . S
C951 C953 1.419 . S
C951 H955 0.930 . S
C952 C951 1.369 . S
C952 C961 1.429 . S
C953 C951 1.419 . S
C953 C954 1.363 . S
C953 H956 0.929 . S
C954 C953 1.363 . S
C954 C960 1.428 . S
H955 C951 0.930 . S
H956 C953 0.929 . S
S957 N958 1.613 . S
S957 N959 1.610 . S
N958 S957 1.613 . S
N958 C961 1.350 . S
N959 S957 1.610 . S
N959 C960 1.351 . S
C960 C954 1.428 . S
C960 N959 1.351 . S
C960 C961 1.434 . S
C961 C952 1.429 . S
C961 N958 1.350 . S
C961 C960 1.434 . S
C962 C963 1.369 . S
C962 C964 1.419 . S
C962 H966 0.930 . S
C963 C962 1.369 . S
C963 C972 1.429 . S
C964 C962 1.419 . S
C964 C965 1.363 . S
C964 H967 0.929 . S
C965 C964 1.363 . S
C965 C971 1.428 . S
H966 C962 0.930 . S
H967 C964 0.929 . S
S968 N969 1.613 . S
S968 N970 1.610 . S
N969 S968 1.613 . S
N969 C972 1.350 . S
N970 S968 1.610 . S
N970 C971 1.351 . S
C971 C965 1.428 . S
C971 N970 1.351 . S
C971 C972 1.434 . S
C972 C963 1.429 . S
C972 N969 1.350 . S
C972 C971 1.434 . S
C973 C974 1.369 . S
C973 C975 1.419 . S
C973 H977 0.930 . S
C974 C973 1.369 . S
C974 C983 1.429 . S
C975 C973 1.419 . S
C975 C976 1.363 . S
C975 H978 0.929 . S
C976 C975 1.363 . S
C976 C982 1.428 . S
H977 C973 0.930 . S
H978 C975 0.929 . S
S979 N980 1.613 . S
S979 N981 1.610 . S
N980 S979 1.613 . S
N980 C983 1.350 . S
N981 S979 1.610 . S
N981 C982 1.351 . S
C982 C976 1.428 . S
C982 N981 1.351 . S
C982 C983 1.434 . S
C983 C974 1.429 . S
C983 N980 1.350 . S
C983 C982 1.434 . S
C545 C33 1.747 . S
C547 C101 1.750 . S
C556 C135 1.748 . S
C558 C67 1.749 . S
C567 C237 1.750 . S
C569 C169 1.748 . S
C578 C203 1.747 . S
C580 C271 1.750 . S
C589 C373 1.852 . S
C591 C305 1.850 . S
C600 C339 1.851 . S
C602 C407 1.850 . S
C611 C509 1.850 . S
C613 C441 1.852 . S
C622 C475 1.852 . S
C624 C543 1.850 . S
C633 C5 1.517 1_556 S
C635 C342 1.527 . S
C644 C376 1.527 . S
C646 C39 1.516 . S
C655 C274 1.529 . S
C657 C73 1.513 1_556 S
C666 C308 1.527 . S
C668 C107 1.515 . S
C677 C478 1.527 . S
C679 C141 1.516 1_554 S
C688 C512 1.527 . S
C690 C175 1.516 . S
C699 C410 1.527 . S
C701 C209 1.516 1_554 S
C710 C444 1.529 . S
C712 C243 1.513 . S
C721 C9 1.541 . S
C723 C247 1.537 . S
C732 C43 1.537 . S
C734 C145 1.538 . S
C743 C179 1.545 . S
C745 C77 1.540 . S
C754 C213 1.539 . S
C756 C111 1.537 . S
C765 C292 2.102 . S
C767 C530 2.101 . S
C776 C326 2.099 . S
C778 C428 2.099 . S
C787 C360 2.099 . S
C789 C462 2.100 . S
C798 C394 2.102 . S
C800 C496 2.100 . S
C809 C481 1.224 . S
C811 C20 1.213 . S
C820 C54 1.216 . S
C822 C515 1.219 . S
C831 C413 1.213 . S
C833 C88 1.223 . S
C842 C447 1.225 . S
C844 C122 1.213 . S
C853 C345 1.225 . S
C855 C156 1.213 . S
C864 C190 1.213 . S
C866 C379 1.224 . S
C875 C277 1.226 . S
C877 C224 1.213 . S
C886 C258 1.219 . S
C888 C311 1.217 . S
C897 C206 1.045 . S
C899 C281 1.037 . S
C908 C240 1.043 . S
C910 C315 1.034 . S
C919 C138 1.047 . S
C921 C349 1.036 . S
C930 C383 1.037 . S
C932 C172 1.046 . S
C941 C70 1.040 . S
C943 C417 1.038 . S
C952 C451 1.036 . S
C954 C104 1.047 . S
C963 C485 1.029 . S
C965 C2 1.049 . S
C974 C36 1.048 . S
C976 C519 1.030 . S
