# Generated by pormake.
# Topology som, (6)-cn, num edge types: 1
# Building blocks:
#     Node 0, Type 0, BuildingBlock: BETDAH_clean_sbu_0, # of connection points: 6
#     Node 1, Type 0, BuildingBlock: BETDAH_clean_sbu_0, # of connection points: 6
#     Node 2, Type 0, BuildingBlock: BETDAH_clean_sbu_0, # of connection points: 6
#     Node 3, Type 0, BuildingBlock: BETDAH_clean_sbu_0, # of connection points: 6
#     Node 4, Type 0, BuildingBlock: BETDAH_clean_sbu_0, # of connection points: 6
#     Node 5, Type 0, BuildingBlock: BETDAH_clean_sbu_0, # of connection points: 6
#     Node 6, Type 0, BuildingBlock: BETDAH_clean_sbu_0, # of connection points: 6
#     Node 7, Type 0, BuildingBlock: BETDAH_clean_sbu_0, # of connection points: 6
#     Node 8, Type 0, BuildingBlock: BETDAH_clean_sbu_0, # of connection points: 6
#     Node 9, Type 0, BuildingBlock: BETDAH_clean_sbu_0, # of connection points: 6
#     Node 10, Type 0, BuildingBlock: BETDAH_clean_sbu_0, # of connection points: 6
#     Node 11, Type 0, BuildingBlock: BETDAH_clean_sbu_0, # of connection points: 6
#     Node 12, Type 0, BuildingBlock: BETDAH_clean_sbu_0, # of connection points: 6
#     Node 13, Type 0, BuildingBlock: BETDAH_clean_sbu_0, # of connection points: 6
#     Node 14, Type 0, BuildingBlock: BETDAH_clean_sbu_0, # of connection points: 6
#     Node 15, Type 0, BuildingBlock: BETDAH_clean_sbu_0, # of connection points: 6
#     Node 16, Type 0, BuildingBlock: BETDAH_clean_sbu_0, # of connection points: 6
#     Node 17, Type 0, BuildingBlock: BETDAH_clean_sbu_0, # of connection points: 6
#     Node 18, Type 0, BuildingBlock: BETDAH_clean_sbu_0, # of connection points: 6
#     Node 19, Type 0, BuildingBlock: BETDAH_clean_sbu_0, # of connection points: 6
#     Node 20, Type 0, BuildingBlock: BETDAH_clean_sbu_0, # of connection points: 6
#     Node 21, Type 0, BuildingBlock: BETDAH_clean_sbu_0, # of connection points: 6
#     Node 22, Type 0, BuildingBlock: BETDAH_clean_sbu_0, # of connection points: 6
#     Node 23, Type 0, BuildingBlock: BETDAH_clean_sbu_0, # of connection points: 6
#     Node 24, Type 0, BuildingBlock: BETDAH_clean_sbu_0, # of connection points: 6
#     Node 25, Type 0, BuildingBlock: BETDAH_clean_sbu_0, # of connection points: 6
#     Node 26, Type 0, BuildingBlock: BETDAH_clean_sbu_0, # of connection points: 6
#     Node 27, Type 0, BuildingBlock: BETDAH_clean_sbu_0, # of connection points: 6
#     Node 28, Type 0, BuildingBlock: BETDAH_clean_sbu_0, # of connection points: 6
#     Node 29, Type 0, BuildingBlock: BETDAH_clean_sbu_0, # of connection points: 6
#     Node 30, Type 0, BuildingBlock: BETDAH_clean_sbu_0, # of connection points: 6
#     Node 31, Type 0, BuildingBlock: BETDAH_clean_sbu_0, # of connection points: 6
#     Edge 32, Type (0, 0), None
#     Edge 33, Type (0, 0), None
#     Edge 34, Type (0, 0), None
#     Edge 35, Type (0, 0), None
#     Edge 36, Type (0, 0), None
#     Edge 37, Type (0, 0), None
#     Edge 38, Type (0, 0), None
#     Edge 39, Type (0, 0), None
#     Edge 40, Type (0, 0), None
#     Edge 41, Type (0, 0), None
#     Edge 42, Type (0, 0), None
#     Edge 43, Type (0, 0), None
#     Edge 44, Type (0, 0), None
#     Edge 45, Type (0, 0), None
#     Edge 46, Type (0, 0), None
#     Edge 47, Type (0, 0), None
#     Edge 48, Type (0, 0), None
#     Edge 49, Type (0, 0), None
#     Edge 50, Type (0, 0), None
#     Edge 51, Type (0, 0), None
#     Edge 52, Type (0, 0), None
#     Edge 53, Type (0, 0), None
#     Edge 54, Type (0, 0), None
#     Edge 55, Type (0, 0), None
#     Edge 56, Type (0, 0), None
#     Edge 57, Type (0, 0), None
#     Edge 58, Type (0, 0), None
#     Edge 59, Type (0, 0), None
#     Edge 60, Type (0, 0), None
#     Edge 61, Type (0, 0), None
#     Edge 62, Type (0, 0), None
#     Edge 63, Type (0, 0), None
#     Edge 64, Type (0, 0), None
#     Edge 65, Type (0, 0), None
#     Edge 66, Type (0, 0), None
#     Edge 67, Type (0, 0), None
#     Edge 68, Type (0, 0), None
#     Edge 69, Type (0, 0), None
#     Edge 70, Type (0, 0), None
#     Edge 71, Type (0, 0), None
#     Edge 72, Type (0, 0), None
#     Edge 73, Type (0, 0), None
#     Edge 74, Type (0, 0), None
#     Edge 75, Type (0, 0), None
#     Edge 76, Type (0, 0), None
#     Edge 77, Type (0, 0), None
#     Edge 78, Type (0, 0), None
#     Edge 79, Type (0, 0), None
#     Edge 80, Type (0, 0), None
#     Edge 81, Type (0, 0), None
#     Edge 82, Type (0, 0), None
#     Edge 83, Type (0, 0), None
#     Edge 84, Type (0, 0), None
#     Edge 85, Type (0, 0), None
#     Edge 86, Type (0, 0), None
#     Edge 87, Type (0, 0), None
#     Edge 88, Type (0, 0), None
#     Edge 89, Type (0, 0), None
#     Edge 90, Type (0, 0), None
#     Edge 91, Type (0, 0), None
#     Edge 92, Type (0, 0), None
#     Edge 93, Type (0, 0), None
#     Edge 94, Type (0, 0), None
#     Edge 95, Type (0, 0), None
#     Edge 96, Type (0, 0), None
#     Edge 97, Type (0, 0), None
#     Edge 98, Type (0, 0), None
#     Edge 99, Type (0, 0), None
#     Edge 100, Type (0, 0), None
#     Edge 101, Type (0, 0), None
#     Edge 102, Type (0, 0), None
#     Edge 103, Type (0, 0), None
#     Edge 104, Type (0, 0), None
#     Edge 105, Type (0, 0), None
#     Edge 106, Type (0, 0), None
#     Edge 107, Type (0, 0), None
#     Edge 108, Type (0, 0), None
#     Edge 109, Type (0, 0), None
#     Edge 110, Type (0, 0), None
#     Edge 111, Type (0, 0), None
#     Edge 112, Type (0, 0), None
#     Edge 113, Type (0, 0), None
#     Edge 114, Type (0, 0), None
#     Edge 115, Type (0, 0), None
#     Edge 116, Type (0, 0), None
#     Edge 117, Type (0, 0), None
#     Edge 118, Type (0, 0), None
#     Edge 119, Type (0, 0), None
#     Edge 120, Type (0, 0), None
#     Edge 121, Type (0, 0), None
#     Edge 122, Type (0, 0), None
#     Edge 123, Type (0, 0), None
#     Edge 124, Type (0, 0), None
#     Edge 125, Type (0, 0), None
#     Edge 126, Type (0, 0), None
#     Edge 127, Type (0, 0), None
# Relax obj value: 0.097
# Max RMSD: 0.183
# Mean RMSD: 0.183
data_MOF--net-som--node1-BETDAH_clean_sbu_0--edge1-none
_symmetry_space_group_name_H-M    P1
_symmetry_Int_Tables_number       1
_symmetry_cell_setting            triclinic
loop_
_symmetry_equiv_pos_as_xyz
'x, y, z'
_cell_length_a     16.127519
_cell_length_b     23.386401
_cell_length_c     45.128988
_cell_angle_alpha  90.000559
_cell_angle_beta   89.998898
_cell_angle_gamma 89.997957
loop_
_atom_site_label
_atom_site_type_symbol
_atom_site_fract_x
_atom_site_fract_y
_atom_site_fract_z
_atom_type_partial_charge
Ho0 Ho 1.0193 0.4622 0.1043 0.0
Ho1 Ho 0.16479 0.38025 0.08704 0.0
C2 C 0.97707 0.326 0.09807 0.0
C3 C 0.87575 0.50589 0.10356 0.0
C4 C 0.79518 0.47982 0.09634 0.0
C5 C 0.781 0.44135 0.07279 0.0
C6 C 0.70188 0.41636 0.06918 0.0
C7 C 0.63696 0.4307 0.08882 0.0
C8 C 0.65224 0.471 0.11087 0.0
C9 C 0.73099 0.49268 0.11515 0.0
C10 C 0.15011 0.45147 0.14419 0.0
C11 C 0.17167 0.5249 0.08034 0.0
C12 C 0.3078 0.33399 0.09086 0.0
C13 C 0.39137 0.35921 0.08966 0.0
C14 C 0.43362 0.37035 0.11613 0.0
C15 C 0.51392 0.39159 0.11553 0.0
C16 C 0.55382 0.4035 0.08841 0.0
C17 C 0.51207 0.39137 0.06189 0.0
C18 C 0.43112 0.37007 0.06246 0.0
C19 C 0.08743 0.414 0.03815 0.0
O20 O 0.95031 0.37853 0.10213 0.0
O21 O 1.05826 0.31466 0.09405 0.0
O22 O 0.91046 0.48834 0.1284 0.0
O23 O 0.92764 0.51246 0.08149 0.0
O24 O 0.10539 0.49736 0.14048 0.0
O25 O 0.11627 0.4127 0.12861 0.0
O26 O 0.21202 0.47487 0.08452 0.0
O27 O 0.09097 0.5287 0.08186 0.0
O28 O 0.26499 0.33409 0.06628 0.0
O29 O 0.26322 0.34644 0.1142 0.0
O30 O 0.14926 0.37881 0.03722 0.0
O31 O 0.07065 0.42552 0.06462 0.0
H32 H 0.83079 0.42969 0.05786 0.0
H33 H 0.69223 0.38532 0.05172 0.0
H34 H 0.60261 0.48535 0.12509 0.0
H35 H 0.74335 0.52066 0.13318 0.0
H36 H 0.40541 0.3612 0.13737 0.0
H37 H 0.54526 0.39788 0.13651 0.0
H38 H 0.54156 0.39792 0.0408 0.0
H39 H 0.40055 0.36088 0.04163 0.0
Ho40 Ho 0.36968 0.64266 0.1043 0.0
Ho41 Ho 0.2242 0.72462 0.08705 0.0
C42 C 0.41193 0.77886 0.09808 0.0
C43 C 0.51324 0.59898 0.10356 0.0
C44 C 0.5938 0.62506 0.09635 0.0
C45 C 0.60803 0.66348 0.07279 0.0
C46 C 0.68715 0.68848 0.06919 0.0
C47 C 0.75203 0.67419 0.08886 0.0
C48 C 0.73669 0.63396 0.11093 0.0
C49 C 0.65795 0.61227 0.11521 0.0
C50 C 0.23887 0.65338 0.14418 0.0
C51 C 0.21732 0.57998 0.08032 0.0
C52 C 0.0812 0.77088 0.09088 0.0
C53 C 0.99763 0.74567 0.08969 0.0
C54 C 0.95537 0.73457 0.11616 0.0
C55 C 0.87506 0.71333 0.11557 0.0
C56 C 0.83517 0.70138 0.08845 0.0
C57 C 0.87694 0.71347 0.06193 0.0
C58 C 0.9579 0.73477 0.06249 0.0
C59 C 0.30155 0.69089 0.03815 0.0
O60 O 0.43868 0.72632 0.10213 0.0
O61 O 0.33073 0.7902 0.09406 0.0
O62 O 0.4785 0.6165 0.1284 0.0
O63 O 0.46136 0.59242 0.08148 0.0
O64 O 0.28358 0.60749 0.14047 0.0
O65 O 0.27272 0.69216 0.12861 0.0
O66 O 0.17696 0.63 0.08452 0.0
O67 O 0.29801 0.57617 0.08185 0.0
O68 O 0.124 0.77078 0.0663 0.0
O69 O 0.12579 0.75844 0.11421 0.0
O70 O 0.23972 0.72608 0.03723 0.0
O71 O 0.31834 0.67936 0.06462 0.0
H72 H 0.55828 0.6751 0.05784 0.0
H73 H 0.69683 0.71948 0.05172 0.0
H74 H 0.78628 0.61964 0.12518 0.0
H75 H 0.64556 0.58431 0.13324 0.0
H76 H 0.98357 0.74374 0.1374 0.0
H77 H 0.84372 0.70708 0.13655 0.0
H78 H 0.84746 0.70689 0.04083 0.0
H79 H 0.98847 0.74392 0.04165 0.0
Ho80 Ho 1.01937 0.64268 0.1964 0.0
Ho81 Ho 0.16482 0.72463 0.21369 0.0
C82 C 0.97708 0.77888 0.20266 0.0
C83 C 0.87581 0.599 0.19711 0.0
C84 C 0.79524 0.62505 0.20434 0.0
C85 C 0.78108 0.66354 0.22788 0.0
C86 C 0.70195 0.68853 0.2315 0.0
C87 C 0.63701 0.67417 0.21187 0.0
C88 C 0.65228 0.63385 0.18983 0.0
C89 C 0.73102 0.61217 0.18554 0.0
C90 C 0.15028 0.65337 0.15657 0.0
C91 C 0.17167 0.57998 0.22041 0.0
C92 C 0.30784 0.77087 0.20988 0.0
C93 C 0.39141 0.74565 0.21106 0.0
C94 C 0.43363 0.73451 0.18459 0.0
C95 C 0.51394 0.71327 0.18517 0.0
C96 C 0.55387 0.70136 0.21228 0.0
C97 C 0.51214 0.7135 0.23881 0.0
C98 C 0.43118 0.73479 0.23826 0.0
C99 C 0.08743 0.6909 0.26257 0.0
O100 O 0.95035 0.72634 0.19859 0.0
O101 O 1.05828 0.79022 0.20668 0.0
O102 O 0.91055 0.61661 0.17228 0.0
O103 O 0.92769 0.59238 0.21917 0.0
O104 O 0.10551 0.6075 0.16024 0.0
O105 O 0.11639 0.69217 0.17212 0.0
O106 O 0.21203 0.63 0.21623 0.0
O107 O 0.09098 0.57619 0.21887 0.0
O108 O 0.26504 0.77074 0.23446 0.0
O109 O 0.26324 0.75848 0.18654 0.0
O110 O 0.14924 0.7261 0.2635 0.0
O111 O 0.07066 0.67936 0.2361 0.0
H112 H 0.83088 0.67522 0.24279 0.0
H113 H 0.69232 0.71958 0.24895 0.0
H114 H 0.60264 0.61949 0.17562 0.0
H115 H 0.74338 0.58416 0.16752 0.0
H116 H 0.4054 0.74366 0.16335 0.0
H117 H 0.54525 0.70697 0.16419 0.0
H118 H 0.54167 0.70697 0.2599 0.0
H119 H 0.40064 0.74398 0.25909 0.0
Ho120 Ho 0.36961 0.46219 0.1964 0.0
Ho121 Ho 0.22417 0.38023 0.21369 0.0
C122 C 0.41191 0.326 0.20266 0.0
C123 C 0.51317 0.50587 0.19711 0.0
C124 C 0.59373 0.47979 0.20433 0.0
C125 C 0.60793 0.44137 0.22789 0.0
C126 C 0.68706 0.41638 0.2315 0.0
C127 C 0.75196 0.43066 0.21184 0.0
C128 C 0.73664 0.4709 0.18977 0.0
C129 C 0.6579 0.49259 0.18549 0.0
C130 C 0.23869 0.45149 0.15658 0.0
C131 C 0.21731 0.52489 0.22042 0.0
C132 C 0.08116 0.33398 0.2099 0.0
C133 C 0.99758 0.35921 0.21106 0.0
C134 C 0.95538 0.37032 0.18459 0.0
C135 C 0.87507 0.39155 0.18516 0.0
C136 C 0.83512 0.40348 0.21227 0.0
C137 C 0.87683 0.39138 0.2388 0.0
C138 C 0.95779 0.37009 0.23826 0.0
C139 C 0.30156 0.41399 0.26258 0.0
O140 O 0.43863 0.37854 0.19858 0.0
O141 O 0.33072 0.31466 0.20669 0.0
O142 O 0.47842 0.48829 0.17228 0.0
O143 O 0.4613 0.51247 0.21918 0.0
O144 O 0.28347 0.49737 0.16024 0.0
O145 O 0.27259 0.41269 0.17212 0.0
O146 O 0.17694 0.47487 0.21623 0.0
O147 O 0.298 0.52869 0.21887 0.0
O148 O 0.12394 0.33415 0.23448 0.0
O149 O 0.12576 0.34636 0.18655 0.0
O150 O 0.23976 0.37879 0.26351 0.0
O151 O 0.31832 0.42551 0.2361 0.0
H152 H 0.55816 0.42975 0.24283 0.0
H153 H 0.69672 0.38538 0.24898 0.0
H154 H 0.78624 0.48522 0.17553 0.0
H155 H 0.64553 0.52056 0.16745 0.0
H156 H 0.98362 0.36115 0.16335 0.0
H157 H 0.84377 0.39782 0.16417 0.0
H158 H 0.8473 0.39794 0.25989 0.0
H159 H 0.98832 0.36092 0.2591 0.0
Ho160 Ho 0.97411 0.47465 0.96355 0.0
Ho161 Ho 0.11986 0.39264 0.94641 0.0
C162 C 0.9673 0.33001 0.97034 0.0
C163 C 0.8312 0.52096 0.95966 0.0
C164 C 0.74764 0.49574 0.96092 0.0
C165 C 0.70529 0.48457 0.93448 0.0
C166 C 0.62501 0.46331 0.93513 0.0
C167 C 0.58525 0.45138 0.96227 0.0
C168 C 0.62711 0.46353 0.98877 0.0
C169 C 0.70805 0.48485 0.98815 0.0
C170 C 1.05133 0.44086 1.01248 0.0
C171 C 0.16194 0.52889 0.95255 0.0
C172 C 0.26336 0.34891 0.94725 0.0
C173 C 0.34392 0.37499 0.95445 0.0
C174 C 0.35816 0.41344 0.978 0.0
C175 C 0.43728 0.43845 0.98158 0.0
C176 C 0.50214 0.42415 0.96191 0.0
C177 C 0.4868 0.38387 0.93986 0.0
C178 C 0.40805 0.36219 0.93559 0.0
C179 C 0.98895 0.40339 0.90649 0.0
O180 O 0.92693 0.38002 0.96612 0.0
O181 O 1.04802 0.32622 0.96886 0.0
O182 O 0.87404 0.52107 0.98423 0.0
O183 O 0.87574 0.50832 0.93634 0.0
O184 O 0.98939 0.47595 1.0134 0.0
O185 O 1.06838 0.42959 0.986 0.0
O186 O 0.18876 0.47635 0.94853 0.0
O187 O 0.08072 0.5402 0.95655 0.0
O188 O 0.2287 0.36634 0.92237 0.0
O189 O 0.21143 0.34247 0.96932 0.0
O190 O 1.03365 0.35749 0.91022 0.0
O191 O 1.02299 0.44205 0.92208 0.0
H192 H 0.7334 0.49373 0.91322 0.0
H193 H 0.59359 0.45701 0.91416 0.0
H194 H 0.59773 0.45696 1.00988 0.0
H195 H 0.73872 0.49404 1.00896 0.0
H196 H 0.30842 0.42507 0.99295 0.0
H197 H 0.44697 0.46948 0.99905 0.0
H198 H 0.53639 0.36954 0.92561 0.0
H199 H 0.39564 0.33424 0.91755 0.0
Ho200 Ho 0.91488 0.13029 0.96355 0.0
Ho201 Ho 0.76914 0.2123 0.94641 0.0
C202 C 0.92168 0.27491 0.97035 0.0
C203 C 1.05778 0.08396 0.95965 0.0
C204 C 0.14133 0.10919 0.9609 0.0
C205 C 0.18369 0.12031 0.93446 0.0
C206 C 0.26397 0.14158 0.93509 0.0
C207 C 0.30373 0.15353 0.96223 0.0
C208 C 0.26186 0.14143 0.98873 0.0
C209 C 0.18093 0.12011 0.98812 0.0
C210 C 0.83759 0.164 1.01248 0.0
C211 C 0.72705 0.07605 0.95255 0.0
C212 C 0.62563 0.25602 0.94724 0.0
C213 C 0.54507 0.22992 0.95442 0.0
C214 C 0.53079 0.19152 0.97799 0.0
C215 C 0.45167 0.16651 0.98156 0.0
C216 C 0.38686 0.18075 0.96186 0.0
C217 C 0.40225 0.22097 0.93978 0.0
C218 C 0.48099 0.24265 0.93553 0.0
C219 C 0.90006 0.20155 0.9065 0.0
O220 O 0.96206 0.22491 0.96612 0.0
O221 O 0.84097 0.27871 0.96887 0.0
O222 O 1.01496 0.08387 0.98423 0.0
O223 O 1.01323 0.09658 0.93633 0.0
O224 O 0.89958 0.12895 1.01339 0.0
O225 O 0.82058 0.17531 0.98599 0.0
O226 O 0.70023 0.12859 0.94853 0.0
O227 O 0.80827 0.06473 0.95654 0.0
O228 O 0.66032 0.23861 0.92237 0.0
O229 O 0.67754 0.26245 0.96932 0.0
O230 O 0.85537 0.24746 0.91023 0.0
O231 O 0.86601 0.16289 0.92208 0.0
H232 H 0.15558 0.11113 0.9132 0.0
H233 H 0.29539 0.14783 0.91413 0.0
H234 H 0.29124 0.14803 1.00984 0.0
H235 H 0.15026 0.11095 1.00894 0.0
H236 H 0.5805 0.17994 0.99297 0.0
H237 H 0.44195 0.13552 0.99904 0.0
H238 H 0.3527 0.23526 0.92551 0.0
H239 H 0.49343 0.27058 0.91749 0.0
Ho240 Ho 0.97409 0.13028 0.83716 0.0
Ho241 Ho 0.11979 0.21228 0.85433 0.0
C242 C 0.96731 0.27492 0.83035 0.0
C243 C 0.83116 0.08398 0.84103 0.0
C244 C 0.74761 0.10921 0.8398 0.0
C245 C 0.70529 0.12037 0.86624 0.0
C246 C 0.62501 0.14164 0.86561 0.0
C247 C 0.5852 0.15356 0.83848 0.0
C248 C 0.62703 0.14141 0.81197 0.0
C249 C 0.70797 0.12009 0.81258 0.0
C250 C 1.05141 0.16399 0.78824 0.0
C251 C 0.16193 0.07604 0.84816 0.0
C252 C 0.26329 0.256 0.85354 0.0
C253 C 0.34386 0.22993 0.84633 0.0
C254 C 0.35808 0.19146 0.82278 0.0
C255 C 0.4372 0.16646 0.81919 0.0
C256 C 0.50208 0.18078 0.83885 0.0
C257 C 0.48676 0.22108 0.8609 0.0
C258 C 0.40802 0.24276 0.86517 0.0
C259 C 0.98875 0.20157 0.89418 0.0
O260 O 0.92692 0.22491 0.83457 0.0
O261 O 1.04802 0.27869 0.83185 0.0
O262 O 0.87399 0.08392 0.81646 0.0
O263 O 0.87572 0.09654 0.86436 0.0
O264 O 0.98944 0.12892 0.78732 0.0
O265 O 1.0684 0.17531 0.81473 0.0
O266 O 0.18872 0.12858 0.85219 0.0
O267 O 0.0807 0.06472 0.84417 0.0
O268 O 0.22861 0.23851 0.8784 0.0
O269 O 0.21138 0.2625 0.83147 0.0
O270 O 1.03351 0.24745 0.89051 0.0
O271 O 1.02286 0.16288 0.87863 0.0
H272 H 0.73343 0.11121 0.8875 0.0
H273 H 0.59362 0.14795 0.88658 0.0
H274 H 0.59761 0.14796 0.79087 0.0
H275 H 0.73861 0.1109 0.79176 0.0
H276 H 0.30832 0.17982 0.80784 0.0
H277 H 0.44688 0.13542 0.80173 0.0
H278 H 0.53637 0.23542 0.87513 0.0
H279 H 0.39562 0.27073 0.8832 0.0
Ho280 Ho 0.91491 0.47466 0.83715 0.0
Ho281 Ho 0.76922 0.39265 0.85433 0.0
C282 C 0.92169 0.33002 0.83034 0.0
C283 C 1.05783 0.52097 0.84101 0.0
C284 C 0.14138 0.49574 0.83979 0.0
C285 C 0.18368 0.4846 0.86624 0.0
C286 C 0.26397 0.46334 0.86562 0.0
C287 C 0.3038 0.4514 0.8385 0.0
C288 C 0.26198 0.46352 0.81198 0.0
C289 C 0.18104 0.48483 0.81257 0.0
C290 C 0.83758 0.44092 0.78824 0.0
C291 C 0.72707 0.52889 0.84816 0.0
C292 C 0.62571 0.34894 0.85354 0.0
C293 C 0.54515 0.37503 0.84634 0.0
C294 C 0.53089 0.41343 0.82277 0.0
C295 C 0.45177 0.43844 0.81919 0.0
C296 C 0.38693 0.42419 0.83888 0.0
C297 C 0.4023 0.38398 0.86096 0.0
C298 C 0.48104 0.36229 0.86522 0.0
C299 C 0.90026 0.40338 0.89418 0.0
O300 O 0.96209 0.38002 0.83457 0.0
O301 O 0.84098 0.32624 0.83185 0.0
O302 O 1.01502 0.52099 0.81644 0.0
O303 O 1.01326 0.50843 0.86434 0.0
O304 O 0.89955 0.47599 0.78731 0.0
O305 O 0.82059 0.42962 0.81473 0.0
O306 O 0.70028 0.47635 0.8522 0.0
O307 O 0.80829 0.54021 0.84416 0.0
O308 O 0.66041 0.3664 0.8784 0.0
O309 O 0.67761 0.34245 0.83146 0.0
O310 O 0.8555 0.35749 0.89051 0.0
O311 O 0.86615 0.44206 0.87863 0.0
H312 H 0.15553 0.49378 0.88749 0.0
H313 H 0.29534 0.45707 0.8866 0.0
H314 H 0.29141 0.45694 0.79088 0.0
H315 H 0.15042 0.494 0.79175 0.0
H316 H 0.58061 0.42501 0.8078 0.0
H317 H 0.44206 0.46942 0.8017 0.0
H318 H 0.35274 0.36968 0.87523 0.0
H319 H 0.49346 0.33435 0.88326 0.0
Ho320 Ho 1.01931 -0.0378 0.6043 0.0
Ho321 Ho 0.1648 0.88025 0.58704 0.0
C322 C 0.97707 0.826 0.59807 0.0
C323 C 0.87575 0.00588 0.60356 0.0
C324 C 0.79519 -0.02018 0.59634 0.0
C325 C 0.78101 -0.05865 0.57279 0.0
C326 C 0.70189 0.91636 0.56918 0.0
C327 C 0.63696 -0.0693 0.58882 0.0
C328 C 0.65225 -0.02899 0.61087 0.0
C329 C 0.73099 -0.00732 0.61515 0.0
C330 C 0.15012 -0.04853 0.64418 0.0
C331 C 0.17167 0.0249 0.58033 0.0
C332 C 0.30781 0.83399 0.59085 0.0
C333 C 0.39138 0.85921 0.58966 0.0
C334 C 0.43363 0.87035 0.61613 0.0
C335 C 0.51393 0.89159 0.61553 0.0
C336 C 0.55383 0.9035 0.58841 0.0
C337 C 0.51208 0.89137 0.56189 0.0
C338 C 0.43112 0.87007 0.56246 0.0
C339 C 0.08743 0.914 0.53815 0.0
O340 O 0.95032 0.87853 0.60214 0.0
O341 O 1.05827 0.81466 0.59405 0.0
O342 O 0.91047 -0.01167 0.6284 0.0
O343 O 0.92765 0.01246 0.58149 0.0
O344 O 0.1054 -0.00264 0.64048 0.0
O345 O 0.11628 0.9127 0.62861 0.0
O346 O 0.21202 -0.02513 0.58452 0.0
O347 O 0.09097 0.0287 0.58186 0.0
O348 O 0.265 0.83409 0.56628 0.0
O349 O 0.26323 0.84644 0.6142 0.0
O350 O 0.14926 0.87881 0.53722 0.0
O351 O 0.07065 0.92552 0.56462 0.0
H352 H 0.8308 -0.07031 0.55787 0.0
H353 H 0.69225 0.88532 0.55172 0.0
H354 H 0.60261 -0.01464 0.62508 0.0
H355 H 0.74335 0.02067 0.63318 0.0
H356 H 0.40541 0.8612 0.63737 0.0
H357 H 0.54526 0.89789 0.63651 0.0
H358 H 0.54157 0.89791 0.5408 0.0
H359 H 0.40056 0.86088 0.54163 0.0
Ho360 Ho 0.36967 0.14266 0.6043 0.0
Ho361 Ho 0.22419 0.22462 0.58705 0.0
C362 C 0.41193 0.27886 0.59808 0.0
C363 C 0.51323 0.09898 0.60356 0.0
C364 C 0.59379 0.12506 0.59636 0.0
C365 C 0.60802 0.16348 0.57279 0.0
C366 C 0.68714 0.18848 0.56919 0.0
C367 C 0.75202 0.1742 0.58886 0.0
C368 C 0.73668 0.13396 0.61094 0.0
C369 C 0.65794 0.11228 0.61521 0.0
C370 C 0.23886 0.15339 0.64418 0.0
C371 C 0.21732 0.07998 0.58032 0.0
C372 C 0.08119 0.27088 0.59087 0.0
C373 C 0.99762 0.24567 0.58969 0.0
C374 C 0.95537 0.23456 0.61615 0.0
C375 C 0.87506 0.21333 0.61556 0.0
C376 C 0.83517 0.20138 0.58845 0.0
C377 C 0.87693 0.21347 0.56192 0.0
C378 C 0.95789 0.23477 0.56249 0.0
C379 C 0.30155 0.1909 0.53815 0.0
O380 O 0.43867 0.22632 0.60213 0.0
O381 O 0.33073 0.2902 0.59406 0.0
O382 O 0.47849 0.11651 0.6284 0.0
O383 O 0.46136 0.09242 0.58149 0.0
O384 O 0.28357 0.10749 0.64047 0.0
O385 O 0.27271 0.19216 0.62861 0.0
O386 O 0.17696 0.13 0.58452 0.0
O387 O 0.29801 0.07617 0.58185 0.0
O388 O 0.12399 0.27078 0.56629 0.0
O389 O 0.12578 0.25844 0.61421 0.0
O390 O 0.23973 0.22609 0.53723 0.0
O391 O 0.31833 0.17936 0.56462 0.0
H392 H 0.55827 0.1751 0.55784 0.0
H393 H 0.69682 0.21948 0.55171 0.0
H394 H 0.78627 0.11965 0.62518 0.0
H395 H 0.64555 0.08431 0.63324 0.0
H396 H 0.98357 0.24374 0.6374 0.0
H397 H 0.84373 0.20708 0.63655 0.0
H398 H 0.84745 0.20689 0.54083 0.0
H399 H 0.98846 0.24392 0.54165 0.0
Ho400 Ho 1.01936 0.14268 0.69641 0.0
Ho401 Ho 0.16481 0.22464 0.71368 0.0
C402 C 0.97707 0.27887 0.70266 0.0
C403 C 0.87581 0.099 0.69711 0.0
C404 C 0.79524 0.12505 0.70434 0.0
C405 C 0.78107 0.16354 0.72788 0.0
C406 C 0.70194 0.18852 0.7315 0.0
C407 C 0.63701 0.17416 0.71187 0.0
C408 C 0.65228 0.13385 0.68983 0.0
C409 C 0.73102 0.11217 0.68554 0.0
C410 C 0.15027 0.15338 0.65657 0.0
C411 C 0.17167 0.07997 0.7204 0.0
C412 C 0.30783 0.27087 0.70988 0.0
C413 C 0.3914 0.24564 0.71106 0.0
C414 C 0.43364 0.23451 0.68459 0.0
C415 C 0.51394 0.21327 0.68517 0.0
C416 C 0.55386 0.20136 0.71228 0.0
C417 C 0.51213 0.21349 0.73881 0.0
C418 C 0.43117 0.23478 0.73825 0.0
C419 C 0.0875 0.19084 0.76257 0.0
O420 O 0.95034 0.22633 0.69859 0.0
O421 O 1.05826 0.29022 0.70668 0.0
O422 O 0.91054 0.11659 0.67229 0.0
O423 O 0.92769 0.09238 0.71918 0.0
O424 O 0.10549 0.1075 0.66024 0.0
O425 O 0.11637 0.19218 0.67212 0.0
O426 O 0.21203 0.13 0.71622 0.0
O427 O 0.09098 0.07618 0.71886 0.0
O428 O 0.26504 0.27075 0.73446 0.0
O429 O 0.26324 0.25846 0.68654 0.0
O430 O 0.14925 0.22609 0.7635 0.0
O431 O 0.07069 0.17933 0.7361 0.0
H432 H 0.83087 0.17521 0.7428 0.0
H433 H 0.69231 0.21957 0.74896 0.0
H434 H 0.60264 0.11949 0.67562 0.0
H435 H 0.74338 0.08417 0.66752 0.0
H436 H 0.40541 0.24366 0.66334 0.0
H437 H 0.54526 0.20697 0.66419 0.0
H438 H 0.54165 0.20695 0.7599 0.0
H439 H 0.40062 0.24396 0.75909 0.0
Ho440 Ho 0.36962 -0.03781 0.6964 0.0
Ho441 Ho 0.22418 0.88024 0.71369 0.0
C442 C 0.41192 0.826 0.70265 0.0
C443 C 0.51318 0.00587 0.69711 0.0
C444 C 0.59374 -0.02021 0.70433 0.0
C445 C 0.60794 -0.05863 0.72789 0.0
C446 C 0.68707 0.91638 0.7315 0.0
C447 C 0.75197 -0.06934 0.71184 0.0
C448 C 0.73665 -0.0291 0.68977 0.0
C449 C 0.65791 -0.00741 0.68549 0.0
C450 C 0.23871 -0.04851 0.65658 0.0
C451 C 0.21732 0.02489 0.72041 0.0
C452 C 0.08117 0.83398 0.70989 0.0
C453 C 0.99759 0.85921 0.71106 0.0
C454 C 0.95538 0.87032 0.68459 0.0
C455 C 0.87507 0.89155 0.68516 0.0
C456 C 0.83513 0.90349 0.71227 0.0
C457 C 0.87685 0.89139 0.7388 0.0
C458 C 0.95781 0.8701 0.73825 0.0
C459 C 0.30156 0.91399 0.76258 0.0
O460 O 0.43864 0.87854 0.69858 0.0
O461 O 0.33073 0.81466 0.70669 0.0
O462 O 0.47843 -0.0117 0.67228 0.0
O463 O 0.46131 0.01247 0.71918 0.0
O464 O 0.28348 -0.00263 0.66024 0.0
O465 O 0.2726 0.91269 0.67212 0.0
O466 O 0.17695 -0.02513 0.71623 0.0
O467 O 0.29801 0.02869 0.71887 0.0
O468 O 0.12395 0.83415 0.73448 0.0
O469 O 0.12577 0.84636 0.68655 0.0
O470 O 0.23976 0.87878 0.76351 0.0
O471 O 0.31833 0.92552 0.7361 0.0
H472 H 0.55818 -0.07025 0.74283 0.0
H473 H 0.69673 0.88538 0.74898 0.0
H474 H 0.78625 -0.01479 0.67552 0.0
H475 H 0.64553 0.02056 0.66745 0.0
H476 H 0.98363 0.86115 0.66335 0.0
H477 H 0.84377 0.89781 0.66417 0.0
H478 H 0.84732 0.89795 0.75989 0.0
H479 H 0.98834 0.86093 0.7591 0.0
Ho480 Ho 0.97411 -0.02535 0.46355 0.0
Ho481 Ho 0.11985 0.89264 0.44641 0.0
C482 C 0.9673 0.83001 0.47034 0.0
C483 C 0.83119 0.02096 0.45967 0.0
C484 C 0.74764 -0.00427 0.46092 0.0
C485 C 0.70528 -0.01543 0.43448 0.0
C486 C 0.62501 -0.0367 0.43513 0.0
C487 C 0.58524 -0.04862 0.46227 0.0
C488 C 0.6271 -0.03647 0.48877 0.0
C489 C 0.70804 -0.01514 0.48815 0.0
C490 C 1.05133 -0.05914 0.51248 0.0
C491 C 0.16194 0.02889 0.45255 0.0
C492 C 0.26336 0.84891 0.44725 0.0
C493 C 0.34392 0.87499 0.45445 0.0
C494 C 0.35815 0.91345 0.478 0.0
C495 C 0.43727 -0.06155 0.48158 0.0
C496 C 0.50213 0.92415 0.46191 0.0
C497 C 0.4868 0.88386 0.43986 0.0
C498 C 0.40806 0.86219 0.43559 0.0
C499 C 0.98893 0.90339 0.4065 0.0
O500 O 0.92692 0.88002 0.46612 0.0
O501 O 1.04802 0.82622 0.46886 0.0
O502 O 0.87403 0.02106 0.48424 0.0
O503 O 0.87573 0.00833 0.43634 0.0
O504 O 0.98939 -0.02405 0.5134 0.0
O505 O 1.06838 -0.07041 0.486 0.0
O506 O 0.18875 -0.02365 0.44853 0.0
O507 O 0.08071 0.0402 0.45655 0.0
O508 O 0.2287 0.86634 0.42237 0.0
O509 O 0.21142 0.84247 0.46932 0.0
O510 O 1.03364 0.85749 0.41022 0.0
O511 O 1.02298 -0.05795 0.42209 0.0
H512 H 0.7334 -0.00628 0.41322 0.0
H513 H 0.59359 -0.043 0.41416 0.0
H514 H 0.59772 -0.04303 0.50988 0.0
H515 H 0.73871 -0.00596 0.50896 0.0
H516 H 0.30841 0.92508 0.49295 0.0
H517 H 0.44696 -0.03051 0.49904 0.0
H518 H 0.53639 0.86953 0.42562 0.0
H519 H 0.39565 0.83423 0.41756 0.0
Ho520 Ho 0.91488 0.63029 0.46355 0.0
Ho521 Ho 0.76915 0.71229 0.44641 0.0
C522 C 0.92168 0.77491 0.47035 0.0
C523 C 1.05779 0.58396 0.45965 0.0
C524 C 0.14134 0.60919 0.4609 0.0
C525 C 0.18369 0.62031 0.43446 0.0
C526 C 0.26397 0.64158 0.43509 0.0
C527 C 0.30374 0.65353 0.46223 0.0
C528 C 0.26187 0.64143 0.48873 0.0
C529 C 0.18093 0.62011 0.48812 0.0
C530 C 0.83759 0.664 0.51248 0.0
C531 C 0.72705 0.57605 0.45255 0.0
C532 C 0.62564 0.75602 0.44724 0.0
C533 C 0.54508 0.72992 0.45442 0.0
C534 C 0.5308 0.69152 0.47799 0.0
C535 C 0.45168 0.66651 0.48156 0.0
C536 C 0.38686 0.68075 0.46186 0.0
C537 C 0.40226 0.72096 0.43978 0.0
C538 C 0.481 0.74264 0.43553 0.0
C539 C 0.90008 0.70155 0.4065 0.0
O540 O 0.96207 0.72491 0.46612 0.0
O541 O 0.84097 0.77871 0.46887 0.0
O542 O 1.01496 0.58388 0.48423 0.0
O543 O 1.01323 0.59657 0.43633 0.0
O544 O 0.89958 0.62894 0.51339 0.0
O545 O 0.82058 0.67531 0.486 0.0
O546 O 0.70023 0.62859 0.44853 0.0
O547 O 0.80828 0.56473 0.45654 0.0
O548 O 0.66033 0.7386 0.42236 0.0
O549 O 0.67755 0.76245 0.46931 0.0
O550 O 0.85538 0.74745 0.41023 0.0
O551 O 0.86602 0.66289 0.42208 0.0
H552 H 0.15558 0.61113 0.4132 0.0
H553 H 0.29539 0.64783 0.41412 0.0
H554 H 0.29125 0.64803 0.50984 0.0
H555 H 0.15027 0.61095 0.50894 0.0
H556 H 0.5805 0.67995 0.49297 0.0
H557 H 0.44195 0.63553 0.49905 0.0
H558 H 0.35271 0.73525 0.4255 0.0
H559 H 0.49343 0.77057 0.41748 0.0
Ho560 Ho 0.9741 0.63027 0.33716 0.0
Ho561 Ho 0.11979 0.71228 0.35433 0.0
C562 C 0.9673 0.77492 0.33036 0.0
C563 C 0.83116 0.58398 0.34104 0.0
C564 C 0.74761 0.60921 0.3398 0.0
C565 C 0.70528 0.62037 0.36624 0.0
C566 C 0.625 0.64164 0.36561 0.0
C567 C 0.58521 0.65356 0.33848 0.0
C568 C 0.62704 0.64141 0.31197 0.0
C569 C 0.70798 0.62009 0.31258 0.0
C570 C 1.05134 0.66405 0.28824 0.0
C571 C 0.16194 0.57604 0.34816 0.0
C572 C 0.2633 0.756 0.35353 0.0
C573 C 0.34387 0.72993 0.34632 0.0
C574 C 0.35809 0.69147 0.32278 0.0
C575 C 0.43721 0.66646 0.31919 0.0
C576 C 0.50209 0.68079 0.33885 0.0
C577 C 0.48677 0.72109 0.36089 0.0
C578 C 0.40802 0.74277 0.36516 0.0
C579 C 0.98877 0.70156 0.39419 0.0
O580 O 0.92692 0.72491 0.33458 0.0
O581 O 1.04802 0.7787 0.33185 0.0
O582 O 0.87399 0.58391 0.31646 0.0
O583 O 0.87572 0.59656 0.36436 0.0
O584 O 0.98942 0.62893 0.28732 0.0
O585 O 1.06837 0.67534 0.31472 0.0
O586 O 0.18873 0.62858 0.35219 0.0
O587 O 0.08071 0.56472 0.34416 0.0
O588 O 0.22862 0.73852 0.37839 0.0
O589 O 0.21138 0.7625 0.33146 0.0
O590 O 1.03353 0.74745 0.39051 0.0
O591 O 1.02287 0.66287 0.37863 0.0
H592 H 0.73341 0.61121 0.3875 0.0
H593 H 0.5936 0.64794 0.38658 0.0
H594 H 0.59763 0.64797 0.29087 0.0
H595 H 0.73863 0.61091 0.29176 0.0
H596 H 0.30833 0.67983 0.30784 0.0
H597 H 0.44689 0.63543 0.30173 0.0
H598 H 0.53637 0.73543 0.37512 0.0
H599 H 0.39562 0.77074 0.38319 0.0
Ho600 Ho 0.9149 -0.02534 0.33715 0.0
Ho601 Ho 0.76921 0.89265 0.35433 0.0
C602 C 0.92169 0.83002 0.33035 0.0
C603 C 1.05782 0.02097 0.34102 0.0
C604 C 0.14137 -0.00426 0.33979 0.0
C605 C 0.18368 -0.01539 0.36624 0.0
C606 C 0.26396 -0.03665 0.36563 0.0
C607 C 0.30378 -0.0486 0.3385 0.0
C608 C 0.26196 -0.03649 0.31199 0.0
C609 C 0.18102 -0.01517 0.31258 0.0
C610 C 0.83758 -0.05908 0.28824 0.0
C611 C 0.72706 0.02889 0.34817 0.0
C612 C 0.6257 0.84894 0.35354 0.0
C613 C 0.54514 0.87503 0.34634 0.0
C614 C 0.53088 0.91342 0.32277 0.0
C615 C 0.45175 -0.06156 0.31919 0.0
C616 C 0.38692 0.92419 0.33889 0.0
C617 C 0.4023 0.88398 0.36097 0.0
C618 C 0.48104 0.8623 0.36523 0.0
C619 C 0.90024 0.90338 0.39418 0.0
O620 O 0.96208 0.88002 0.33457 0.0
O621 O 0.84098 0.82623 0.33185 0.0
O622 O 1.015 0.02099 0.31644 0.0
O623 O 1.01325 0.00843 0.36435 0.0
O624 O 0.89954 -0.02401 0.28731 0.0
O625 O 0.82058 -0.07039 0.31473 0.0
O626 O 0.70027 -0.02365 0.3522 0.0
O627 O 0.80828 0.04021 0.34416 0.0
O628 O 0.6604 0.86639 0.3784 0.0
O629 O 0.6776 0.84245 0.33146 0.0
O630 O 0.85549 0.85749 0.39051 0.0
O631 O 0.86614 -0.05794 0.37863 0.0
H632 H 0.15553 -0.00621 0.3875 0.0
H633 H 0.29534 -0.04292 0.3866 0.0
H634 H 0.29139 -0.04307 0.29088 0.0
H635 H 0.1504 -0.00601 0.29175 0.0
H636 H 0.5806 0.925 0.3078 0.0
H637 H 0.44205 -0.03059 0.3017 0.0
H638 H 0.35274 0.86969 0.37523 0.0
H639 H 0.49346 0.83436 0.38327 0.0
Ho640 Ho 0.5193 0.4622 0.6043 0.0
Ho641 Ho 0.66479 0.38025 0.58705 0.0
C642 C 0.47706 0.326 0.59808 0.0
C643 C 0.37574 0.50588 0.60356 0.0
C644 C 0.29518 0.47982 0.59634 0.0
C645 C 0.281 0.44135 0.57279 0.0
C646 C 0.20188 0.41636 0.56918 0.0
C647 C 0.13695 0.4307 0.58882 0.0
C648 C 0.15224 0.471 0.61087 0.0
C649 C 0.23098 0.49267 0.61516 0.0
C650 C 0.65011 0.45147 0.64419 0.0
C651 C 0.67166 0.5249 0.58034 0.0
C652 C 0.8078 0.33399 0.59086 0.0
C653 C 0.89137 0.35921 0.58966 0.0
C654 C 0.93362 0.37035 0.61613 0.0
C655 C 1.01392 0.39159 0.61553 0.0
C656 C 1.05382 0.4035 0.58842 0.0
C657 C 1.01206 0.39137 0.56189 0.0
C658 C 0.93111 0.37007 0.56246 0.0
C659 C 0.58743 0.414 0.53815 0.0
O660 O 0.45031 0.37853 0.60214 0.0
O661 O 0.55826 0.31466 0.59405 0.0
O662 O 0.41046 0.48833 0.6284 0.0
O663 O 0.42764 0.51245 0.58149 0.0
O664 O 0.60539 0.49736 0.64048 0.0
O665 O 0.61627 0.41269 0.62861 0.0
O666 O 0.71202 0.47487 0.58452 0.0
O667 O 0.59097 0.5287 0.58186 0.0
O668 O 0.76499 0.33409 0.56628 0.0
O669 O 0.76322 0.34644 0.6142 0.0
O670 O 0.64926 0.37881 0.53722 0.0
O671 O 0.57065 0.42552 0.56462 0.0
H672 H 0.33079 0.42969 0.55786 0.0
H673 H 0.19223 0.38532 0.55172 0.0
H674 H 0.10261 0.48535 0.62509 0.0
H675 H 0.24335 0.52065 0.63318 0.0
H676 H 0.90541 0.3612 0.63737 0.0
H677 H 1.04525 0.39788 0.63651 0.0
H678 H 1.04156 0.39792 0.5408 0.0
H679 H 0.90054 0.36089 0.54163 0.0
Ho680 Ho 0.86968 0.64266 0.6043 0.0
Ho681 Ho 0.7242 0.72462 0.58705 0.0
C682 C 0.91194 0.77886 0.59807 0.0
C683 C 1.01324 0.59897 0.60355 0.0
C684 C 0.0938 0.62506 0.59635 0.0
C685 C 0.10803 0.66348 0.57279 0.0
C686 C 0.18715 0.68848 0.56919 0.0
C687 C 0.25203 0.67419 0.58886 0.0
C688 C 0.23669 0.63395 0.61093 0.0
C689 C 0.15795 0.61227 0.6152 0.0
C690 C 0.73888 0.65339 0.64419 0.0
C691 C 0.71731 0.57998 0.58033 0.0
C692 C 0.5812 0.77088 0.59088 0.0
C693 C 0.49763 0.74566 0.58969 0.0
C694 C 0.45536 0.73456 0.61616 0.0
C695 C 0.37506 0.71333 0.61556 0.0
C696 C 0.33517 0.70138 0.58845 0.0
C697 C 0.37695 0.71346 0.56192 0.0
C698 C 0.4579 0.73476 0.56249 0.0
C699 C 0.80148 0.69084 0.53815 0.0
O700 O 0.93868 0.72632 0.60213 0.0
O701 O 0.83074 0.7902 0.59405 0.0
O702 O 0.9785 0.61649 0.6284 0.0
O703 O 0.96136 0.59243 0.58148 0.0
O704 O 0.78359 0.60749 0.64047 0.0
O705 O 0.77272 0.69216 0.62861 0.0
O706 O 0.67696 0.63 0.58452 0.0
O707 O 0.79801 0.57616 0.58186 0.0
O708 O 0.624 0.77079 0.5663 0.0
O709 O 0.62579 0.75843 0.61421 0.0
O710 O 0.73971 0.72608 0.53723 0.0
O711 O 0.8183 0.67933 0.56462 0.0
H712 H 1.05828 0.6751 0.55784 0.0
H713 H 0.19683 0.71948 0.55171 0.0
H714 H 0.28628 0.61964 0.62518 0.0
H715 H 0.14555 0.5843 0.63324 0.0
H716 H 0.48357 0.74374 0.6374 0.0
H717 H 0.34372 0.70708 0.63655 0.0
H718 H 0.34747 0.70688 0.54083 0.0
H719 H 0.48848 0.74391 0.54165 0.0
Ho720 Ho 0.51937 0.64268 0.6964 0.0
Ho721 Ho 0.66481 0.72463 0.71368 0.0
C722 C 0.47708 0.77888 0.70265 0.0
C723 C 0.37581 0.599 0.6971 0.0
C724 C 0.29524 0.62506 0.70433 0.0
C725 C 0.28108 0.66354 0.72787 0.0
C726 C 0.20195 0.68853 0.73149 0.0
C727 C 0.13701 0.67417 0.71187 0.0
C728 C 0.15228 0.63385 0.68982 0.0
C729 C 0.23102 0.61217 0.68553 0.0
C730 C 0.65028 0.65337 0.65657 0.0
C731 C 0.67166 0.57997 0.7204 0.0
C732 C 0.80783 0.77087 0.70988 0.0
C733 C 0.8914 0.74565 0.71106 0.0
C734 C 0.93363 0.73451 0.68459 0.0
C735 C 1.01393 0.71327 0.68517 0.0
C736 C 1.05387 0.70136 0.71228 0.0
C737 C 1.01214 0.71349 0.73881 0.0
C738 C 0.93118 0.73478 0.73825 0.0
C739 C 0.58743 0.6909 0.76257 0.0
O740 O 0.45035 0.72634 0.69859 0.0
O741 O 0.55827 0.79022 0.70668 0.0
O742 O 0.41054 0.61661 0.67228 0.0
O743 O 0.42769 0.59238 0.71917 0.0
O744 O 0.60551 0.6075 0.66024 0.0
O745 O 0.61639 0.69218 0.67212 0.0
O746 O 0.71203 0.63 0.71623 0.0
O747 O 0.59097 0.57618 0.71887 0.0
O748 O 0.76504 0.77073 0.73446 0.0
O749 O 0.76323 0.75848 0.68654 0.0
O750 O 0.64923 0.72611 0.7635 0.0
O751 O 0.57066 0.67936 0.7361 0.0
H752 H 0.33088 0.67522 0.74279 0.0
H753 H 0.19231 0.71958 0.74895 0.0
H754 H 0.10264 0.61949 0.67561 0.0
H755 H 0.24337 0.58417 0.66751 0.0
H756 H 0.90539 0.74366 0.66335 0.0
H757 H 1.04524 0.70697 0.66418 0.0
H758 H 1.04167 0.70696 0.7599 0.0
H759 H 0.90064 0.74397 0.75909 0.0
Ho760 Ho 0.86961 0.46219 0.6964 0.0
Ho761 Ho 0.72417 0.38023 0.7137 0.0
C762 C 0.91191 0.326 0.70266 0.0
C763 C 1.01317 0.50587 0.69711 0.0
C764 C 0.09373 0.47979 0.70433 0.0
C765 C 0.10793 0.44137 0.72789 0.0
C766 C 0.18706 0.41638 0.73151 0.0
C767 C 0.25196 0.43067 0.71185 0.0
C768 C 0.23664 0.47091 0.68977 0.0
C769 C 0.1579 0.49259 0.68549 0.0
C770 C 0.7387 0.45148 0.65658 0.0
C771 C 0.7173 0.52489 0.72041 0.0
C772 C 0.58115 0.33398 0.7099 0.0
C773 C 0.49758 0.35921 0.71106 0.0
C774 C 0.45537 0.37032 0.68459 0.0
C775 C 0.37506 0.39156 0.68516 0.0
C776 C 0.33512 0.40349 0.71227 0.0
C777 C 0.37683 0.39138 0.73881 0.0
C778 C 0.45779 0.3701 0.73826 0.0
C779 C 0.80149 0.41404 0.76258 0.0
O780 O 0.93863 0.37854 0.69858 0.0
O781 O 0.83072 0.31465 0.70669 0.0
O782 O 0.97842 0.4883 0.67228 0.0
O783 O 0.9613 0.51247 0.71919 0.0
O784 O 0.78347 0.49736 0.66024 0.0
O785 O 0.77259 0.41269 0.67213 0.0
O786 O 0.67694 0.47487 0.71623 0.0
O787 O 0.79799 0.52869 0.71887 0.0
O788 O 0.62394 0.33414 0.73448 0.0
O789 O 0.62576 0.34637 0.68655 0.0
O790 O 0.73974 0.37879 0.76351 0.0
O791 O 0.81829 0.42554 0.7361 0.0
H792 H 1.05817 0.42975 0.74284 0.0
H793 H 0.19672 0.38538 0.74898 0.0
H794 H 0.28624 0.48522 0.67553 0.0
H795 H 0.14553 0.52056 0.66746 0.0
H796 H 0.48361 0.36115 0.66335 0.0
H797 H 0.34376 0.39782 0.66418 0.0
H798 H 0.3473 0.39794 0.75989 0.0
H799 H 0.48833 0.36093 0.7591 0.0
Ho800 Ho 0.47412 0.47465 0.46355 0.0
Ho801 Ho 0.61986 0.39264 0.44641 0.0
C802 C 0.46731 0.33001 0.47033 0.0
C803 C 0.3312 0.52096 0.45966 0.0
C804 C 0.24765 0.49573 0.46092 0.0
C805 C 0.2053 0.48457 0.43448 0.0
C806 C 0.12502 0.46331 0.43512 0.0
C807 C 0.08525 0.45138 0.46226 0.0
C808 C 0.12712 0.46352 0.48876 0.0
C809 C 0.20805 0.48485 0.48815 0.0
C810 C 0.55133 0.44086 0.51248 0.0
C811 C 0.66195 0.52889 0.45255 0.0
C812 C 0.76336 0.34891 0.44725 0.0
C813 C 0.84393 0.375 0.45444 0.0
C814 C 0.85817 0.41344 0.478 0.0
C815 C 0.93729 0.43845 0.48158 0.0
C816 C 1.00214 0.42415 0.4619 0.0
C817 C 0.9868 0.38388 0.43985 0.0
C818 C 0.90805 0.36221 0.43558 0.0
C819 C 0.48894 0.4034 0.40649 0.0
O820 O 0.42693 0.38002 0.46612 0.0
O821 O 0.54802 0.32622 0.46886 0.0
O822 O 0.37404 0.52106 0.48424 0.0
O823 O 0.37574 0.50833 0.43634 0.0
O824 O 0.48939 0.47595 0.5134 0.0
O825 O 0.56838 0.42959 0.486 0.0
O826 O 0.68876 0.47635 0.44852 0.0
O827 O 0.58072 0.5402 0.45655 0.0
O828 O 0.7287 0.36634 0.42237 0.0
O829 O 0.71143 0.34248 0.46932 0.0
O830 O 0.53365 0.3575 0.41021 0.0
O831 O 0.52299 0.44206 0.42208 0.0
H832 H 0.23341 0.49373 0.41322 0.0
H833 H 0.0936 0.45702 0.41416 0.0
H834 H 0.09773 0.45695 0.50988 0.0
H835 H 0.23872 0.49403 0.50896 0.0
H836 H 0.80843 0.42506 0.49295 0.0
H837 H 0.94698 0.46947 0.49905 0.0
H838 H 1.03638 0.36955 0.4256 0.0
H839 H 0.89564 0.33426 0.41754 0.0
Ho840 Ho 0.41487 0.13028 0.46355 0.0
Ho841 Ho 0.26914 0.2123 0.44642 0.0
C842 C 0.42168 0.27491 0.47035 0.0
C843 C 0.55779 0.08397 0.45965 0.0
C844 C 0.64133 0.10919 0.4609 0.0
C845 C 0.6837 0.12032 0.43446 0.0
C846 C 0.76398 0.14158 0.43509 0.0
C847 C 0.80373 0.15354 0.46223 0.0
C848 C 0.76186 0.14144 0.48873 0.0
C849 C 0.68092 0.12011 0.48812 0.0
C850 C 0.33766 0.16406 0.51248 0.0
C851 C 0.22704 0.07605 0.45255 0.0
C852 C 0.12563 0.25602 0.44725 0.0
C853 C 1.04507 0.22993 0.45443 0.0
C854 C 1.03079 0.19152 0.47799 0.0
C855 C 0.95167 0.16651 0.48157 0.0
C856 C 0.88685 0.18076 0.46186 0.0
C857 C 0.90224 0.22098 0.43979 0.0
C858 C 0.98099 0.24266 0.43554 0.0
C859 C 0.40006 0.20155 0.4065 0.0
O860 O 0.46206 0.22491 0.46611 0.0
O861 O 0.34097 0.27871 0.46887 0.0
O862 O 0.51496 0.08387 0.48422 0.0
O863 O 0.51323 0.09659 0.43633 0.0
O864 O 0.3996 0.12896 0.51339 0.0
O865 O 0.32061 0.17534 0.486 0.0
O866 O 0.20023 0.12859 0.44853 0.0
O867 O 0.30827 0.06473 0.45654 0.0
O868 O 0.16032 0.23862 0.42237 0.0
O869 O 0.17755 0.26245 0.46932 0.0
O870 O 0.35536 0.24745 0.41022 0.0
O871 O 0.366 0.16289 0.42208 0.0
H872 H 0.65559 0.11113 0.4132 0.0
H873 H 0.7954 0.14784 0.41413 0.0
H874 H 0.79123 0.14803 0.50984 0.0
H875 H 0.65025 0.11095 0.50894 0.0
H876 H 0.0805 0.17994 0.49297 0.0
H877 H 0.94195 0.13552 0.49905 0.0
H878 H 0.85269 0.23527 0.42552 0.0
H879 H 0.99342 0.2706 0.4175 0.0
Ho880 Ho 0.47409 0.13027 0.33716 0.0
Ho881 Ho 0.61979 0.21227 0.35433 0.0
C882 C 0.46732 0.27492 0.33036 0.0
C883 C 0.33117 0.08398 0.34103 0.0
C884 C 0.24761 0.10921 0.3398 0.0
C885 C 0.20529 0.12037 0.36624 0.0
C886 C 0.12501 0.14164 0.36562 0.0
C887 C 0.0852 0.15356 0.33848 0.0
C888 C 0.12703 0.14141 0.31198 0.0
C889 C 0.20797 0.12009 0.31258 0.0
C890 C 0.55141 0.164 0.28824 0.0
C891 C 0.66193 0.07604 0.34817 0.0
C892 C 0.7633 0.256 0.35354 0.0
C893 C 0.84386 0.22993 0.34633 0.0
C894 C 0.85808 0.19147 0.32279 0.0
C895 C 0.93721 0.16646 0.31919 0.0
C896 C 1.00208 0.18078 0.33886 0.0
C897 C 0.98676 0.22107 0.36091 0.0
C898 C 0.90801 0.24275 0.36518 0.0
C899 C 0.48875 0.20156 0.39419 0.0
O900 O 0.42693 0.22491 0.33458 0.0
O901 O 0.54803 0.27869 0.33185 0.0
O902 O 0.37399 0.08393 0.31646 0.0
O903 O 0.37573 0.09654 0.36436 0.0
O904 O 0.48945 0.12892 0.28732 0.0
O905 O 0.56841 0.17531 0.31473 0.0
O906 O 0.68873 0.12858 0.3522 0.0
O907 O 0.58071 0.06472 0.34417 0.0
O908 O 0.72861 0.23851 0.3784 0.0
O909 O 0.71138 0.2625 0.33147 0.0
O910 O 0.53351 0.24745 0.39051 0.0
O911 O 0.52286 0.16287 0.37863 0.0
H912 H 0.23344 0.11121 0.3875 0.0
H913 H 0.09362 0.14794 0.38659 0.0
H914 H 0.09761 0.14797 0.29087 0.0
H915 H 0.23861 0.11091 0.29176 0.0
H916 H 0.80833 0.17983 0.30784 0.0
H917 H 0.94689 0.13543 0.30173 0.0
H918 H 1.03636 0.23541 0.37514 0.0
H919 H 0.89562 0.27072 0.38321 0.0
Ho920 Ho 0.41491 0.47466 0.33715 0.0
Ho921 Ho 0.26922 0.39265 0.35433 0.0
C922 C 0.4217 0.33002 0.33035 0.0
C923 C 0.55783 0.52097 0.34102 0.0
C924 C 0.64138 0.49574 0.33979 0.0
C925 C 0.68369 0.4846 0.36624 0.0
C926 C 0.76397 0.46333 0.36562 0.0
C927 C 0.8038 0.45139 0.33849 0.0
C928 C 0.76198 0.46351 0.31198 0.0
C929 C 0.68103 0.48483 0.31257 0.0
C930 C 0.33765 0.44087 0.28824 0.0
C931 C 0.22707 0.52889 0.34816 0.0
C932 C 0.12571 0.34893 0.35353 0.0
C933 C 1.04515 0.37502 0.34634 0.0
C934 C 1.03089 0.41343 0.32277 0.0
C935 C 0.95177 0.43844 0.31918 0.0
C936 C 0.88693 0.42419 0.33888 0.0
C937 C 0.9023 0.38396 0.36095 0.0
C938 C 0.98104 0.36228 0.36521 0.0
C939 C 0.40025 0.40338 0.39418 0.0
O940 O 0.46209 0.38002 0.33457 0.0
O941 O 0.34099 0.32623 0.33185 0.0
O942 O 0.51502 0.521 0.31644 0.0
O943 O 0.51326 0.50842 0.36435 0.0
O944 O 0.39956 0.47598 0.28731 0.0
O945 O 0.32062 0.42959 0.31472 0.0
O946 O 0.20028 0.47635 0.3522 0.0
O947 O 0.30829 0.54021 0.34415 0.0
O948 O 0.16041 0.36639 0.3784 0.0
O949 O 0.17762 0.34245 0.33146 0.0
O950 O 0.3555 0.35749 0.39051 0.0
O951 O 0.36614 0.44207 0.37863 0.0
H952 H 0.65554 0.49377 0.38749 0.0
H953 H 0.79535 0.45706 0.38659 0.0
H954 H 0.79141 0.45694 0.29088 0.0
H955 H 0.65041 0.494 0.29175 0.0
H956 H 0.08062 0.42501 0.3078 0.0
H957 H 0.94206 0.46942 0.3017 0.0
H958 H 0.85273 0.36967 0.37522 0.0
H959 H 0.99346 0.33434 0.38326 0.0
Ho960 Ho 0.5193 -0.0378 0.1043 0.0
Ho961 Ho 0.66479 0.88025 0.08704 0.0
C962 C 0.47707 0.826 0.09808 0.0
C963 C 0.37575 0.00588 0.10356 0.0
C964 C 0.29519 -0.02018 0.09634 0.0
C965 C 0.28101 -0.05866 0.0728 0.0
C966 C 0.20189 0.91636 0.06918 0.0
C967 C 0.13696 -0.0693 0.08882 0.0
C968 C 0.15224 -0.02899 0.11087 0.0
C969 C 0.23098 -0.00732 0.11515 0.0
C970 C 0.65012 -0.04853 0.14419 0.0
C971 C 0.67166 0.0249 0.08034 0.0
C972 C 0.8078 0.83399 0.09085 0.0
C973 C 0.89137 0.85921 0.08966 0.0
C974 C 0.93362 0.87035 0.11613 0.0
C975 C 1.01392 0.89159 0.11553 0.0
C976 C 1.05382 0.9035 0.08842 0.0
C977 C 1.01207 0.89137 0.06189 0.0
C978 C 0.93112 0.87007 0.06246 0.0
C979 C 0.58743 0.914 0.03815 0.0
O980 O 0.45032 0.87853 0.10214 0.0
O981 O 0.55826 0.81466 0.09405 0.0
O982 O 0.41046 -0.01167 0.1284 0.0
O983 O 0.42764 0.01246 0.0815 0.0
O984 O 0.6054 -0.00264 0.14048 0.0
O985 O 0.61628 0.91269 0.12861 0.0
O986 O 0.71202 -0.02513 0.08452 0.0
O987 O 0.59097 0.0287 0.08186 0.0
O988 O 0.76499 0.83409 0.06628 0.0
O989 O 0.76322 0.84644 0.1142 0.0
O990 O 0.64926 0.87881 0.03722 0.0
O991 O 0.57065 0.92552 0.06462 0.0
H992 H 0.3308 -0.07032 0.05787 0.0
H993 H 0.19224 0.88531 0.05172 0.0
H994 H 0.10261 -0.01464 0.12509 0.0
H995 H 0.24335 0.02067 0.13318 0.0
H996 H 0.90541 0.86121 0.13737 0.0
H997 H 1.04525 0.89789 0.13651 0.0
H998 H 1.04157 0.89791 0.0408 0.0
H999 H 0.90055 0.86088 0.04163 0.0
Ho1000 Ho 0.86967 0.14266 0.1043 0.0
Ho1001 Ho 0.7242 0.22463 0.08705 0.0
C1002 C 0.91193 0.27886 0.09807 0.0
C1003 C 1.01323 0.09898 0.10356 0.0
C1004 C 0.09379 0.12506 0.09635 0.0
C1005 C 0.10802 0.16348 0.07279 0.0
C1006 C 0.18714 0.18847 0.06919 0.0
C1007 C 0.25202 0.17419 0.08886 0.0
C1008 C 0.23668 0.13396 0.11094 0.0
C1009 C 0.15794 0.11227 0.11521 0.0
C1010 C 0.73886 0.15339 0.14418 0.0
C1011 C 0.71731 0.07998 0.08033 0.0
C1012 C 0.58119 0.27088 0.09087 0.0
C1013 C 0.49762 0.24566 0.08969 0.0
C1014 C 0.45536 0.23456 0.11615 0.0
C1015 C 0.37506 0.21333 0.11556 0.0
C1016 C 0.33517 0.20138 0.08845 0.0
C1017 C 0.37694 0.21346 0.06192 0.0
C1018 C 0.45789 0.23476 0.06249 0.0
C1019 C 0.80148 0.19084 0.03815 0.0
O1020 O 0.93868 0.22632 0.10213 0.0
O1021 O 0.83073 0.2902 0.09405 0.0
O1022 O 0.97849 0.1165 0.1284 0.0
O1023 O 0.96135 0.09243 0.08148 0.0
O1024 O 0.78357 0.1075 0.14047 0.0
O1025 O 0.77271 0.19217 0.12861 0.0
O1026 O 0.67696 0.13 0.08452 0.0
O1027 O 0.79801 0.07617 0.08186 0.0
O1028 O 0.62399 0.27079 0.06629 0.0
O1029 O 0.62578 0.25843 0.11421 0.0
O1030 O 0.73971 0.22608 0.03723 0.0
O1031 O 0.8183 0.17933 0.06462 0.0
H1032 H 1.05827 0.17509 0.05784 0.0
H1033 H 0.19683 0.21947 0.05171 0.0
H1034 H 0.28627 0.11965 0.12518 0.0
H1035 H 0.14555 0.08431 0.13324 0.0
H1036 H 0.48357 0.24374 0.1374 0.0
H1037 H 0.34372 0.20708 0.13655 0.0
H1038 H 0.34746 0.20688 0.04083 0.0
H1039 H 0.48847 0.24391 0.04165 0.0
Ho1040 Ho 0.51936 0.14268 0.1964 0.0
Ho1041 Ho 0.6648 0.22464 0.21368 0.0
C1042 C 0.47706 0.27887 0.20266 0.0
C1043 C 0.3758 0.099 0.19711 0.0
C1044 C 0.29524 0.12505 0.20434 0.0
C1045 C 0.28107 0.16354 0.22788 0.0
C1046 C 0.20194 0.18852 0.2315 0.0
C1047 C 0.137 0.17416 0.21187 0.0
C1048 C 0.15228 0.13385 0.18983 0.0
C1049 C 0.23102 0.11217 0.18554 0.0
C1050 C 0.65027 0.15338 0.15657 0.0
C1051 C 0.67167 0.07997 0.2204 0.0
C1052 C 0.80783 0.27087 0.20988 0.0
C1053 C 0.8914 0.24564 0.21106 0.0
C1054 C 0.93363 0.23451 0.18459 0.0
C1055 C 1.01394 0.21327 0.18517 0.0
C1056 C 1.05386 0.20136 0.21228 0.0
C1057 C 1.01213 0.21349 0.23881 0.0
C1058 C 0.93117 0.23478 0.23825 0.0
C1059 C 0.5875 0.19084 0.26257 0.0
O1060 O 0.45034 0.22633 0.19859 0.0
O1061 O 0.55826 0.29022 0.20668 0.0
O1062 O 0.41054 0.11659 0.17228 0.0
O1063 O 0.42769 0.09239 0.21918 0.0
O1064 O 0.60549 0.10751 0.16023 0.0
O1065 O 0.61637 0.19218 0.17212 0.0
O1066 O 0.71202 0.13 0.21622 0.0
O1067 O 0.59098 0.07618 0.21886 0.0
O1068 O 0.76503 0.27075 0.23446 0.0
O1069 O 0.76323 0.25846 0.18654 0.0
O1070 O 0.64925 0.2261 0.2635 0.0
O1071 O 0.57069 0.17933 0.2361 0.0
H1072 H 0.33087 0.17521 0.2428 0.0
H1073 H 0.1923 0.21957 0.24896 0.0
H1074 H 0.10264 0.11949 0.17562 0.0
H1075 H 0.24337 0.08417 0.16752 0.0
H1076 H 0.9054 0.24366 0.16334 0.0
H1077 H 1.04525 0.20697 0.16419 0.0
H1078 H 1.04165 0.20695 0.2599 0.0
H1079 H 0.90062 0.24396 0.25909 0.0
Ho1080 Ho 0.86962 -0.03781 0.1964 0.0
Ho1081 Ho 0.72418 0.88023 0.21369 0.0
C1082 C 0.91192 0.826 0.20266 0.0
C1083 C 1.01318 0.00587 0.19711 0.0
C1084 C 0.09374 -0.02021 0.20433 0.0
C1085 C 0.10795 -0.05863 0.22789 0.0
C1086 C 0.18707 0.91638 0.23151 0.0
C1087 C 0.25197 -0.06933 0.21184 0.0
C1088 C 0.23665 -0.0291 0.18977 0.0
C1089 C 0.1579 -0.00741 0.18549 0.0
C1090 C 0.73871 -0.04852 0.15658 0.0
C1091 C 0.71731 0.02489 0.22041 0.0
C1092 C 0.58117 0.83399 0.20989 0.0
C1093 C 0.49759 0.85921 0.21106 0.0
C1094 C 0.45538 0.87032 0.18459 0.0
C1095 C 0.37507 0.89155 0.18516 0.0
C1096 C 0.33513 0.90349 0.21227 0.0
C1097 C 0.37685 0.89139 0.2388 0.0
C1098 C 0.45781 0.8701 0.23825 0.0
C1099 C 0.80149 0.91404 0.26258 0.0
O1100 O 0.93864 0.87854 0.19858 0.0
O1101 O 0.83073 0.81466 0.20669 0.0
O1102 O 0.97843 -0.01169 0.17228 0.0
O1103 O 0.96131 0.01247 0.21919 0.0
O1104 O 0.78348 -0.00264 0.16024 0.0
O1105 O 0.77261 0.91269 0.17212 0.0
O1106 O 0.67695 -0.02513 0.21622 0.0
O1107 O 0.798 0.0287 0.21886 0.0
O1108 O 0.62395 0.83414 0.23447 0.0
O1109 O 0.62577 0.84637 0.18655 0.0
O1110 O 0.73975 0.87879 0.26351 0.0
O1111 O 0.8183 0.92555 0.2361 0.0
H1112 H 1.05818 -0.07024 0.24284 0.0
H1113 H 0.19674 0.88538 0.24899 0.0
H1114 H 0.28625 -0.01479 0.17552 0.0
H1115 H 0.14553 0.02056 0.16746 0.0
H1116 H 0.48362 0.86115 0.16335 0.0
H1117 H 0.34376 0.89781 0.16417 0.0
H1118 H 0.34732 0.89796 0.25989 0.0
H1119 H 0.48835 0.86094 0.25909 0.0
Ho1120 Ho 0.47411 -0.02535 0.96355 0.0
Ho1121 Ho 0.61985 0.89264 0.94641 0.0
C1122 C 0.46731 0.83001 0.97034 0.0
C1123 C 0.33119 0.02096 0.95967 0.0
C1124 C 0.24764 -0.00427 0.96092 0.0
C1125 C 0.20529 -0.01543 0.93448 0.0
C1126 C 0.12502 -0.0367 0.93512 0.0
C1127 C 0.08525 -0.04862 0.96226 0.0
C1128 C 0.12711 -0.03648 0.98876 0.0
C1129 C 0.20804 -0.01515 0.98815 0.0
C1130 C 0.55133 -0.05914 1.01248 0.0
C1131 C 0.66194 0.02889 0.95255 0.0
C1132 C 0.76336 0.84892 0.94724 0.0
C1133 C 0.84392 0.875 0.95444 0.0
C1134 C 0.85816 0.91344 0.97799 0.0
C1135 C 0.93728 -0.06155 0.98158 0.0
C1136 C 1.00214 0.92415 0.9619 0.0
C1137 C 0.98679 0.88387 0.93985 0.0
C1138 C 0.90805 0.8622 0.93558 0.0
C1139 C 0.48893 0.9034 0.90649 0.0
O1140 O 0.42693 0.88002 0.96612 0.0
O1141 O 0.54802 0.82622 0.96886 0.0
O1142 O 0.37403 0.02106 0.98424 0.0
O1143 O 0.37574 0.00833 0.93634 0.0
O1144 O 0.48939 -0.02405 1.0134 0.0
O1145 O 0.56838 -0.07041 0.986 0.0
O1146 O 0.68876 -0.02365 0.94852 0.0
O1147 O 0.58071 0.0402 0.95655 0.0
O1148 O 0.7287 0.86634 0.92237 0.0
O1149 O 0.71142 0.84247 0.96931 0.0
O1150 O 0.53363 0.8575 0.91022 0.0
O1151 O 0.52298 -0.05794 0.92208 0.0
H1152 H 0.23341 -0.00627 0.91322 0.0
H1153 H 0.0936 -0.04299 0.91416 0.0
H1154 H 0.09772 -0.04304 1.00988 0.0
H1155 H 0.23871 -0.00596 1.00896 0.0
H1156 H 0.80842 0.92507 0.99295 0.0
H1157 H 0.94697 -0.03052 0.99904 0.0
H1158 H 1.03638 0.86954 0.9256 0.0
H1159 H 0.89564 0.83425 0.91755 0.0
Ho1160 Ho 0.41488 0.63028 0.96355 0.0
Ho1161 Ho 0.26914 0.71229 0.94641 0.0
C1162 C 0.42168 0.77491 0.97035 0.0
C1163 C 0.55779 0.58397 0.95965 0.0
C1164 C 0.64134 0.60919 0.9609 0.0
C1165 C 0.6837 0.62032 0.93446 0.0
C1166 C 0.76398 0.64158 0.9351 0.0
C1167 C 0.80374 0.65354 0.96223 0.0
C1168 C 0.76187 0.64144 0.98874 0.0
C1169 C 0.68093 0.62011 0.98813 0.0
C1170 C 0.33766 0.66405 1.01248 0.0
C1171 C 0.22705 0.57605 0.95255 0.0
C1172 C 0.12564 0.75602 0.94724 0.0
C1173 C 1.04508 0.72992 0.95442 0.0
C1174 C 1.0308 0.69152 0.97799 0.0
C1175 C 0.95168 0.66651 0.98157 0.0
C1176 C 0.88686 0.68076 0.96186 0.0
C1177 C 0.90225 0.72098 0.93979 0.0
C1178 C 0.98099 0.74266 0.93554 0.0
C1179 C 0.40007 0.70154 0.9065 0.0
O1180 O 0.46207 0.72491 0.96612 0.0
O1181 O 0.34097 0.77871 0.96887 0.0
O1182 O 0.51496 0.58387 0.98423 0.0
O1183 O 0.51324 0.59659 0.93633 0.0
O1184 O 0.3996 0.62895 1.01339 0.0
O1185 O 0.32061 0.67534 0.986 0.0
O1186 O 0.20023 0.62859 0.94853 0.0
O1187 O 0.30827 0.56473 0.95654 0.0
O1188 O 0.16033 0.73861 0.92237 0.0
O1189 O 0.17755 0.76245 0.96932 0.0
O1190 O 0.35538 0.74745 0.91022 0.0
O1191 O 0.36602 0.66288 0.92208 0.0
H1192 H 0.65559 0.61113 0.9132 0.0
H1193 H 0.7954 0.64784 0.91413 0.0
H1194 H 0.79124 0.64803 1.00984 0.0
H1195 H 0.65026 0.61095 1.00894 0.0
H1196 H 0.0805 0.67994 0.99297 0.0
H1197 H 0.94196 0.63552 0.99905 0.0
H1198 H 0.8527 0.73527 0.92552 0.0
H1199 H 0.99343 0.77059 0.91749 0.0
Ho1200 Ho 0.4741 0.63027 0.83716 0.0
Ho1201 Ho 0.61979 0.71228 0.85433 0.0
C1202 C 0.46731 0.77492 0.83037 0.0
C1203 C 0.33117 0.58398 0.84104 0.0
C1204 C 0.24762 0.60921 0.8398 0.0
C1205 C 0.20529 0.62037 0.86625 0.0
C1206 C 0.12501 0.64164 0.86562 0.0
C1207 C 0.08521 0.65356 0.83848 0.0
C1208 C 0.12705 0.64142 0.81198 0.0
C1209 C 0.20799 0.6201 0.81258 0.0
C1210 C 0.55134 0.66405 0.78824 0.0
C1211 C 0.66194 0.57604 0.84816 0.0
C1212 C 0.7633 0.756 0.85353 0.0
C1213 C 0.84387 0.72993 0.84633 0.0
C1214 C 0.85809 0.69147 0.82278 0.0
C1215 C 0.93722 0.66647 0.81919 0.0
C1216 C 1.00209 0.68078 0.83885 0.0
C1217 C 0.98676 0.72107 0.8609 0.0
C1218 C 0.90802 0.74275 0.86517 0.0
C1219 C 0.48877 0.70156 0.89419 0.0
O1220 O 0.42693 0.72491 0.83458 0.0
O1221 O 0.54802 0.7787 0.83186 0.0
O1222 O 0.37399 0.58391 0.81646 0.0
O1223 O 0.37573 0.59656 0.86436 0.0
O1224 O 0.48943 0.62893 0.78732 0.0
O1225 O 0.56838 0.67534 0.81472 0.0
O1226 O 0.68873 0.62858 0.85219 0.0
O1227 O 0.58072 0.56472 0.84417 0.0
O1228 O 0.72862 0.73852 0.8784 0.0
O1229 O 0.71138 0.76249 0.83146 0.0
O1230 O 0.53352 0.74744 0.89051 0.0
O1231 O 0.52287 0.66287 0.87863 0.0
H1232 H 0.23342 0.61121 0.8875 0.0
H1233 H 0.09361 0.64794 0.88658 0.0
H1234 H 0.09763 0.64798 0.79087 0.0
H1235 H 0.23863 0.61092 0.79176 0.0
H1236 H 0.80834 0.67983 0.80783 0.0
H1237 H 0.9469 0.63543 0.80173 0.0
H1238 H 1.03636 0.73541 0.87514 0.0
H1239 H 0.89562 0.77072 0.8832 0.0
Ho1240 Ho 0.4149 -0.02534 0.83715 0.0
Ho1241 Ho 0.26921 0.89265 0.85433 0.0
C1242 C 0.42169 0.83002 0.83036 0.0
C1243 C 0.55782 0.02097 0.84102 0.0
C1244 C 0.64137 -0.00427 0.83979 0.0
C1245 C 0.68368 -0.0154 0.86624 0.0
C1246 C 0.76397 -0.03666 0.86562 0.0
C1247 C 0.80379 -0.04861 0.83849 0.0
C1248 C 0.76196 -0.03649 0.81198 0.0
C1249 C 0.68102 -0.01517 0.81258 0.0
C1250 C 0.33765 -0.05914 0.78824 0.0
C1251 C 0.22705 0.02889 0.84816 0.0
C1252 C 0.1257 0.84893 0.85353 0.0
C1253 C 1.04514 0.87502 0.84634 0.0
C1254 C 1.03088 0.91343 0.82277 0.0
C1255 C 0.95176 -0.06156 0.81918 0.0
C1256 C 0.88692 0.92419 0.83888 0.0
C1257 C 0.90229 0.88397 0.86096 0.0
C1258 C 0.98103 0.86228 0.86522 0.0
C1259 C 0.40024 0.90338 0.89418 0.0
O1260 O 0.46208 0.88002 0.83458 0.0
O1261 O 0.34098 0.82623 0.83186 0.0
O1262 O 0.515 0.021 0.81644 0.0
O1263 O 0.51325 0.00841 0.86435 0.0
O1264 O 0.39956 -0.02402 0.78731 0.0
O1265 O 0.32062 -0.07041 0.81472 0.0
O1266 O 0.20027 -0.02365 0.8522 0.0
O1267 O 0.30827 0.04021 0.84416 0.0
O1268 O 0.1604 0.86639 0.8784 0.0
O1269 O 0.17761 0.84245 0.83146 0.0
O1270 O 0.35548 0.85749 0.89051 0.0
O1271 O 0.36613 -0.05794 0.87863 0.0
H1272 H 0.65554 -0.00622 0.88749 0.0
H1273 H 0.79535 -0.04293 0.8866 0.0
H1274 H 0.79139 -0.04307 0.79088 0.0
H1275 H 0.65039 -0.00601 0.79175 0.0
H1276 H 0.0806 0.92501 0.8078 0.0
H1277 H 0.94205 -0.03058 0.8017 0.0
H1278 H 0.85273 0.86967 0.87522 0.0
H1279 H 0.99345 0.83434 0.88326 0.0
loop_
_geom_bond_atom_site_label_1
_geom_bond_atom_site_label_2
_geom_bond_distance
_geom_bond_site_symmetry_2
_ccdc_geom_bond_type
Ho0 C3 2.811 . S
Ho0 O20 2.322 . S
Ho0 O22 2.378 . S
Ho0 O23 2.524 . S
Ho0 O24 2.381 . S
Ho0 O25 2.669 1_655 S
Ho0 O27 2.346 1_655 S
Ho0 O31 2.305 . S
Ho1 C12 2.811 . S
Ho1 O21 2.346 . S
Ho1 O25 2.305 . S
Ho1 O26 2.322 . S
Ho1 O28 2.378 . S
Ho1 O29 2.524 . S
Ho1 O30 2.381 . S
Ho1 O31 2.669 1_455 S
C2 O20 1.259 . S
C2 O21 1.268 1_655 S
C3 Ho0 2.811 . S
C3 C4 1.488 . S
C3 O22 1.215 . S
C3 O23 1.289 . S
C4 C3 1.488 . S
C4 C5 1.348 . S
C4 C9 1.413 . S
C5 C4 1.348 . S
C5 C6 1.442 . S
C5 H32 0.930 . S
C6 C5 1.442 . S
C6 C7 1.381 . S
C6 H33 0.931 . S
C7 C6 1.381 . S
C7 C8 1.321 . S
C8 C7 1.321 . S
C8 C9 1.403 . S
C8 H34 0.934 . S
C9 C4 1.413 . S
C9 C8 1.403 . S
C9 H35 0.930 . S
C10 O24 1.275 1_455 S
C10 O25 1.256 . S
C11 O26 1.259 . S
C11 O27 1.268 . S
C12 Ho1 2.811 . S
C12 C13 1.488 . S
C12 O28 1.215 . S
C12 O29 1.289 . S
C13 C12 1.488 . S
C13 C14 1.348 . S
C13 C18 1.413 . S
C14 C13 1.348 . S
C14 C15 1.442 . S
C14 H36 0.930 . S
C15 C14 1.442 . S
C15 C16 1.381 . S
C15 H37 0.931 . S
C16 C15 1.381 . S
C16 C17 1.321 . S
C17 C16 1.321 . S
C17 C18 1.403 . S
C17 H38 0.934 . S
C18 C13 1.413 . S
C18 C17 1.403 . S
C18 H39 0.930 . S
C19 O30 1.275 . S
C19 O31 1.256 1_455 S
O20 Ho0 2.322 . S
O20 C2 1.259 . S
O21 Ho1 2.346 . S
O21 C2 1.268 1_455 S
O22 Ho0 2.378 . S
O22 C3 1.215 . S
O23 Ho0 2.524 . S
O23 C3 1.289 . S
O24 Ho0 2.381 . S
O24 C10 1.275 1_655 S
O25 Ho0 2.669 1_455 S
O25 Ho1 2.305 . S
O25 C10 1.256 . S
O26 Ho1 2.322 . S
O26 C11 1.259 . S
O27 Ho0 2.346 1_455 S
O27 C11 1.268 . S
O28 Ho1 2.378 . S
O28 C12 1.215 . S
O29 Ho1 2.524 . S
O29 C12 1.289 . S
O30 Ho1 2.381 . S
O30 C19 1.275 . S
O31 Ho0 2.305 . S
O31 Ho1 2.669 1_655 S
O31 C19 1.256 1_655 S
H32 C5 0.930 . S
H33 C6 0.931 . S
H34 C8 0.934 . S
H35 C9 0.930 . S
H36 C14 0.930 . S
H37 C15 0.931 . S
H38 C17 0.934 . S
H39 C18 0.930 . S
Ho40 C43 2.811 . S
Ho40 O60 2.322 . S
Ho40 O62 2.378 . S
Ho40 O63 2.524 . S
Ho40 O64 2.381 . S
Ho40 O65 2.669 . S
Ho40 O67 2.346 . S
Ho40 O71 2.305 . S
Ho41 C52 2.811 1_455 S
Ho41 O61 2.346 . S
Ho41 O65 2.305 . S
Ho41 O66 2.322 . S
Ho41 O68 2.378 . S
Ho41 O69 2.524 . S
Ho41 O70 2.381 . S
Ho41 O71 2.669 . S
C42 O60 1.259 . S
C42 O61 1.268 . S
C43 Ho40 2.811 . S
C43 C44 1.488 . S
C43 O62 1.215 . S
C43 O63 1.289 . S
C44 C43 1.488 . S
C44 C45 1.348 . S
C44 C49 1.413 . S
C45 C44 1.348 . S
C45 C46 1.442 . S
C45 H72 0.930 . S
C46 C45 1.442 . S
C46 C47 1.381 . S
C46 H73 0.931 . S
C47 C46 1.381 . S
C47 C48 1.321 . S
C48 C47 1.321 . S
C48 C49 1.403 . S
C48 H74 0.934 . S
C49 C44 1.413 . S
C49 C48 1.403 . S
C49 H75 0.930 . S
C50 O64 1.275 . S
C50 O65 1.256 . S
C51 O66 1.259 . S
C51 O67 1.268 . S
C52 Ho41 2.811 1_655 S
C52 C53 1.488 . S
C52 O68 1.215 1_655 S
C52 O69 1.289 1_655 S
C53 C52 1.488 . S
C53 C54 1.348 . S
C53 C58 1.413 . S
C54 C53 1.348 . S
C54 C55 1.442 . S
C54 H76 0.930 . S
C55 C54 1.442 . S
C55 C56 1.381 . S
C55 H77 0.931 . S
C56 C55 1.381 . S
C56 C57 1.321 . S
C57 C56 1.321 . S
C57 C58 1.403 . S
C57 H78 0.934 . S
C58 C53 1.413 . S
C58 C57 1.403 . S
C58 H79 0.930 . S
C59 O70 1.275 . S
C59 O71 1.256 . S
O60 Ho40 2.322 . S
O60 C42 1.259 . S
O61 Ho41 2.346 . S
O61 C42 1.268 . S
O62 Ho40 2.378 . S
O62 C43 1.215 . S
O63 Ho40 2.524 . S
O63 C43 1.289 . S
O64 Ho40 2.381 . S
O64 C50 1.275 . S
O65 Ho40 2.669 . S
O65 Ho41 2.305 . S
O65 C50 1.256 . S
O66 Ho41 2.322 . S
O66 C51 1.259 . S
O67 Ho40 2.346 . S
O67 C51 1.268 . S
O68 Ho41 2.378 . S
O68 C52 1.215 1_455 S
O69 Ho41 2.524 . S
O69 C52 1.289 1_455 S
O70 Ho41 2.381 . S
O70 C59 1.275 . S
O71 Ho40 2.305 . S
O71 Ho41 2.669 . S
O71 C59 1.256 . S
H72 C45 0.930 . S
H73 C46 0.931 . S
H74 C48 0.934 . S
H75 C49 0.930 . S
H76 C54 0.930 . S
H77 C55 0.931 . S
H78 C57 0.934 . S
H79 C58 0.930 . S
Ho80 C83 2.811 . S
Ho80 O100 2.322 . S
Ho80 O102 2.378 . S
Ho80 O103 2.524 . S
Ho80 O104 2.381 . S
Ho80 O105 2.669 1_655 S
Ho80 O107 2.346 1_655 S
Ho80 O111 2.305 . S
Ho81 C92 2.811 . S
Ho81 O101 2.346 . S
Ho81 O105 2.305 . S
Ho81 O106 2.322 . S
Ho81 O108 2.378 . S
Ho81 O109 2.524 . S
Ho81 O110 2.381 . S
Ho81 O111 2.669 1_455 S
C82 O100 1.259 . S
C82 O101 1.268 1_655 S
C83 Ho80 2.811 . S
C83 C84 1.488 . S
C83 O102 1.215 . S
C83 O103 1.289 . S
C84 C83 1.488 . S
C84 C85 1.348 . S
C84 C89 1.413 . S
C85 C84 1.348 . S
C85 C86 1.442 . S
C85 H112 0.930 . S
C86 C85 1.442 . S
C86 C87 1.381 . S
C86 H113 0.931 . S
C87 C86 1.381 . S
C87 C88 1.321 . S
C88 C87 1.321 . S
C88 C89 1.403 . S
C88 H114 0.934 . S
C89 C84 1.413 . S
C89 C88 1.403 . S
C89 H115 0.930 . S
C90 O104 1.275 1_455 S
C90 O105 1.256 . S
C91 O106 1.259 . S
C91 O107 1.268 . S
C92 Ho81 2.811 . S
C92 C93 1.488 . S
C92 O108 1.215 . S
C92 O109 1.289 . S
C93 C92 1.488 . S
C93 C94 1.348 . S
C93 C98 1.413 . S
C94 C93 1.348 . S
C94 C95 1.442 . S
C94 H116 0.930 . S
C95 C94 1.442 . S
C95 C96 1.381 . S
C95 H117 0.931 . S
C96 C95 1.381 . S
C96 C97 1.321 . S
C97 C96 1.321 . S
C97 C98 1.403 . S
C97 H118 0.934 . S
C98 C93 1.413 . S
C98 C97 1.403 . S
C98 H119 0.930 . S
C99 O110 1.275 . S
C99 O111 1.256 1_455 S
O100 Ho80 2.322 . S
O100 C82 1.259 . S
O101 Ho81 2.346 . S
O101 C82 1.268 1_455 S
O102 Ho80 2.378 . S
O102 C83 1.215 . S
O103 Ho80 2.524 . S
O103 C83 1.289 . S
O104 Ho80 2.381 . S
O104 C90 1.275 1_655 S
O105 Ho80 2.669 1_455 S
O105 Ho81 2.305 . S
O105 C90 1.256 . S
O106 Ho81 2.322 . S
O106 C91 1.259 . S
O107 Ho80 2.346 1_455 S
O107 C91 1.268 . S
O108 Ho81 2.378 . S
O108 C92 1.215 . S
O109 Ho81 2.524 . S
O109 C92 1.289 . S
O110 Ho81 2.381 . S
O110 C99 1.275 . S
O111 Ho80 2.305 . S
O111 Ho81 2.669 1_655 S
O111 C99 1.256 1_655 S
H112 C85 0.930 . S
H113 C86 0.931 . S
H114 C88 0.934 . S
H115 C89 0.930 . S
H116 C94 0.930 . S
H117 C95 0.931 . S
H118 C97 0.934 . S
H119 C98 0.930 . S
Ho120 C123 2.811 . S
Ho120 O140 2.322 . S
Ho120 O142 2.378 . S
Ho120 O143 2.524 . S
Ho120 O144 2.381 . S
Ho120 O145 2.669 . S
Ho120 O147 2.346 . S
Ho120 O151 2.305 . S
Ho121 C132 2.811 1_455 S
Ho121 O141 2.346 . S
Ho121 O145 2.305 . S
Ho121 O146 2.322 . S
Ho121 O148 2.378 . S
Ho121 O149 2.524 . S
Ho121 O150 2.381 . S
Ho121 O151 2.669 . S
C122 O140 1.259 . S
C122 O141 1.268 . S
C123 Ho120 2.811 . S
C123 C124 1.488 . S
C123 O142 1.215 . S
C123 O143 1.289 . S
C124 C123 1.488 . S
C124 C125 1.348 . S
C124 C129 1.413 . S
C125 C124 1.348 . S
C125 C126 1.442 . S
C125 H152 0.930 . S
C126 C125 1.442 . S
C126 C127 1.381 . S
C126 H153 0.931 . S
C127 C126 1.381 . S
C127 C128 1.321 . S
C128 C127 1.321 . S
C128 C129 1.403 . S
C128 H154 0.934 . S
C129 C124 1.413 . S
C129 C128 1.403 . S
C129 H155 0.930 . S
C130 O144 1.275 . S
C130 O145 1.256 . S
C131 O146 1.259 . S
C131 O147 1.268 . S
C132 Ho121 2.811 1_655 S
C132 C133 1.488 . S
C132 O148 1.215 1_655 S
C132 O149 1.289 1_655 S
C133 C132 1.488 . S
C133 C134 1.348 . S
C133 C138 1.413 . S
C134 C133 1.348 . S
C134 C135 1.442 . S
C134 H156 0.930 . S
C135 C134 1.442 . S
C135 C136 1.381 . S
C135 H157 0.931 . S
C136 C135 1.381 . S
C136 C137 1.321 . S
C137 C136 1.321 . S
C137 C138 1.403 . S
C137 H158 0.934 . S
C138 C133 1.413 . S
C138 C137 1.403 . S
C138 H159 0.930 . S
C139 O150 1.275 . S
C139 O151 1.256 . S
O140 Ho120 2.322 . S
O140 C122 1.259 . S
O141 Ho121 2.346 . S
O141 C122 1.268 . S
O142 Ho120 2.378 . S
O142 C123 1.215 . S
O143 Ho120 2.524 . S
O143 C123 1.289 . S
O144 Ho120 2.381 . S
O144 C130 1.275 . S
O145 Ho120 2.669 . S
O145 Ho121 2.305 . S
O145 C130 1.256 . S
O146 Ho121 2.322 . S
O146 C131 1.259 . S
O147 Ho120 2.346 . S
O147 C131 1.268 . S
O148 Ho121 2.378 . S
O148 C132 1.215 1_455 S
O149 Ho121 2.524 . S
O149 C132 1.289 1_455 S
O150 Ho121 2.381 . S
O150 C139 1.275 . S
O151 Ho120 2.305 . S
O151 Ho121 2.669 . S
O151 C139 1.256 . S
H152 C125 0.930 . S
H153 C126 0.931 . S
H154 C128 0.934 . S
H155 C129 0.930 . S
H156 C134 0.930 . S
H157 C135 0.931 . S
H158 C137 0.934 . S
H159 C138 0.930 . S
Ho160 C163 2.811 . S
Ho160 O180 2.322 . S
Ho160 O182 2.378 . S
Ho160 O183 2.524 . S
Ho160 O184 2.381 . S
Ho160 O185 2.669 1_655 S
Ho160 O187 2.346 . S
Ho160 O191 2.305 . S
Ho161 C172 2.811 . S
Ho161 O181 2.346 1_455 S
Ho161 O185 2.305 . S
Ho161 O186 2.322 . S
Ho161 O188 2.378 . S
Ho161 O189 2.524 . S
Ho161 O190 2.381 . S
Ho161 O191 2.669 1_455 S
C162 O180 1.259 . S
C162 O181 1.268 . S
C163 Ho160 2.811 . S
C163 C164 1.488 . S
C163 O182 1.215 . S
C163 O183 1.289 . S
C164 C163 1.488 . S
C164 C165 1.348 . S
C164 C169 1.413 . S
C165 C164 1.348 . S
C165 C166 1.442 . S
C165 H192 0.930 . S
C166 C165 1.442 . S
C166 C167 1.381 . S
C166 H193 0.931 . S
C167 C166 1.381 . S
C167 C168 1.321 . S
C168 C167 1.321 . S
C168 C169 1.403 . S
C168 H194 0.934 . S
C169 C164 1.413 . S
C169 C168 1.403 . S
C169 H195 0.930 . S
C170 O184 1.275 . S
C170 O185 1.256 1_655 S
C171 O186 1.259 . S
C171 O187 1.268 1_455 S
C172 Ho161 2.811 . S
C172 C173 1.488 . S
C172 O188 1.215 . S
C172 O189 1.289 . S
C173 C172 1.488 . S
C173 C174 1.348 . S
C173 C178 1.413 . S
C174 C173 1.348 . S
C174 C175 1.442 . S
C174 H196 0.930 . S
C175 C174 1.442 . S
C175 C176 1.381 . S
C175 H197 0.931 . S
C176 C175 1.381 . S
C176 C177 1.321 . S
C177 C176 1.321 . S
C177 C178 1.403 . S
C177 H198 0.934 . S
C178 C173 1.413 . S
C178 C177 1.403 . S
C178 H199 0.930 . S
C179 O190 1.275 1_655 S
C179 O191 1.256 . S
O180 Ho160 2.322 . S
O180 C162 1.259 . S
O181 Ho161 2.346 1_655 S
O181 C162 1.268 . S
O182 Ho160 2.378 . S
O182 C163 1.215 . S
O183 Ho160 2.524 . S
O183 C163 1.289 . S
O184 Ho160 2.381 . S
O184 C170 1.275 . S
O185 Ho160 2.669 1_455 S
O185 Ho161 2.305 . S
O185 C170 1.256 1_455 S
O186 Ho161 2.322 . S
O186 C171 1.259 . S
O187 Ho160 2.346 . S
O187 C171 1.268 1_655 S
O188 Ho161 2.378 . S
O188 C172 1.215 . S
O189 Ho161 2.524 . S
O189 C172 1.289 . S
O190 Ho161 2.381 . S
O190 C179 1.275 1_455 S
O191 Ho160 2.305 . S
O191 Ho161 2.669 1_655 S
O191 C179 1.256 . S
H192 C165 0.930 . S
H193 C166 0.931 . S
H194 C168 0.934 . S
H195 C169 0.930 . S
H196 C174 0.930 . S
H197 C175 0.931 . S
H198 C177 0.934 . S
H199 C178 0.930 . S
Ho200 C203 2.811 1_655 S
Ho200 O220 2.322 . S
Ho200 O222 2.378 . S
Ho200 O223 2.524 . S
Ho200 O224 2.381 . S
Ho200 O225 2.669 . S
Ho200 O227 2.346 . S
Ho200 O231 2.305 . S
Ho201 C212 2.811 . S
Ho201 O221 2.346 . S
Ho201 O225 2.305 . S
Ho201 O226 2.322 . S
Ho201 O228 2.378 . S
Ho201 O229 2.524 . S
Ho201 O230 2.381 . S
Ho201 O231 2.669 . S
C202 O220 1.259 . S
C202 O221 1.268 . S
C203 Ho200 2.811 1_455 S
C203 C204 1.488 . S
C203 O222 1.215 1_455 S
C203 O223 1.289 1_455 S
C204 C203 1.488 . S
C204 C205 1.348 . S
C204 C209 1.413 . S
C205 C204 1.348 . S
C205 C206 1.442 . S
C205 H232 0.930 . S
C206 C205 1.442 . S
C206 C207 1.381 . S
C206 H233 0.931 . S
C207 C206 1.381 . S
C207 C208 1.321 . S
C208 C207 1.321 . S
C208 C209 1.403 . S
C208 H234 0.934 . S
C209 C204 1.413 . S
C209 C208 1.403 . S
C209 H235 0.930 . S
C210 O224 1.275 . S
C210 O225 1.256 . S
C211 O226 1.259 . S
C211 O227 1.268 . S
C212 Ho201 2.811 . S
C212 C213 1.488 . S
C212 O228 1.215 . S
C212 O229 1.289 . S
C213 C212 1.488 . S
C213 C214 1.348 . S
C213 C218 1.413 . S
C214 C213 1.348 . S
C214 C215 1.442 . S
C214 H236 0.930 . S
C215 C214 1.442 . S
C215 C216 1.381 . S
C215 H237 0.931 . S
C216 C215 1.381 . S
C216 C217 1.321 . S
C217 C216 1.321 . S
C217 C218 1.403 . S
C217 H238 0.934 . S
C218 C213 1.413 . S
C218 C217 1.403 . S
C218 H239 0.930 . S
C219 O230 1.275 . S
C219 O231 1.256 . S
O220 Ho200 2.322 . S
O220 C202 1.259 . S
O221 Ho201 2.346 . S
O221 C202 1.268 . S
O222 Ho200 2.378 . S
O222 C203 1.215 1_655 S
O223 Ho200 2.524 . S
O223 C203 1.289 1_655 S
O224 Ho200 2.381 . S
O224 C210 1.275 . S
O225 Ho200 2.669 . S
O225 Ho201 2.305 . S
O225 C210 1.256 . S
O226 Ho201 2.322 . S
O226 C211 1.259 . S
O227 Ho200 2.346 . S
O227 C211 1.268 . S
O228 Ho201 2.378 . S
O228 C212 1.215 . S
O229 Ho201 2.524 . S
O229 C212 1.289 . S
O230 Ho201 2.381 . S
O230 C219 1.275 . S
O231 Ho200 2.305 . S
O231 Ho201 2.669 . S
O231 C219 1.256 . S
H232 C205 0.930 . S
H233 C206 0.931 . S
H234 C208 0.934 . S
H235 C209 0.930 . S
H236 C214 0.930 . S
H237 C215 0.931 . S
H238 C217 0.934 . S
H239 C218 0.930 . S
Ho240 C243 2.811 . S
Ho240 O260 2.322 . S
Ho240 O262 2.378 . S
Ho240 O263 2.524 . S
Ho240 O264 2.381 . S
Ho240 O265 2.669 1_655 S
Ho240 O267 2.346 . S
Ho240 O271 2.305 . S
Ho241 C252 2.811 . S
Ho241 O261 2.346 1_455 S
Ho241 O265 2.305 . S
Ho241 O266 2.322 . S
Ho241 O268 2.378 . S
Ho241 O269 2.524 . S
Ho241 O270 2.381 . S
Ho241 O271 2.669 1_455 S
C242 O260 1.259 . S
C242 O261 1.268 . S
C243 Ho240 2.811 . S
C243 C244 1.488 . S
C243 O262 1.215 . S
C243 O263 1.289 . S
C244 C243 1.488 . S
C244 C245 1.348 . S
C244 C249 1.413 . S
C245 C244 1.348 . S
C245 C246 1.442 . S
C245 H272 0.930 . S
C246 C245 1.442 . S
C246 C247 1.381 . S
C246 H273 0.931 . S
C247 C246 1.381 . S
C247 C248 1.321 . S
C248 C247 1.321 . S
C248 C249 1.403 . S
C248 H274 0.934 . S
C249 C244 1.413 . S
C249 C248 1.403 . S
C249 H275 0.930 . S
C250 O264 1.275 . S
C250 O265 1.256 1_655 S
C251 O266 1.259 . S
C251 O267 1.268 1_455 S
C252 Ho241 2.811 . S
C252 C253 1.488 . S
C252 O268 1.215 . S
C252 O269 1.289 . S
C253 C252 1.488 . S
C253 C254 1.348 . S
C253 C258 1.413 . S
C254 C253 1.348 . S
C254 C255 1.442 . S
C254 H276 0.930 . S
C255 C254 1.442 . S
C255 C256 1.381 . S
C255 H277 0.931 . S
C256 C255 1.381 . S
C256 C257 1.321 . S
C257 C256 1.321 . S
C257 C258 1.403 . S
C257 H278 0.934 . S
C258 C253 1.413 . S
C258 C257 1.403 . S
C258 H279 0.930 . S
C259 O270 1.275 1_655 S
C259 O271 1.256 . S
O260 Ho240 2.322 . S
O260 C242 1.259 . S
O261 Ho241 2.346 1_655 S
O261 C242 1.268 . S
O262 Ho240 2.378 . S
O262 C243 1.215 . S
O263 Ho240 2.524 . S
O263 C243 1.289 . S
O264 Ho240 2.381 . S
O264 C250 1.275 . S
O265 Ho240 2.669 1_455 S
O265 Ho241 2.305 . S
O265 C250 1.256 1_455 S
O266 Ho241 2.322 . S
O266 C251 1.259 . S
O267 Ho240 2.346 . S
O267 C251 1.268 1_655 S
O268 Ho241 2.378 . S
O268 C252 1.215 . S
O269 Ho241 2.524 . S
O269 C252 1.289 . S
O270 Ho241 2.381 . S
O270 C259 1.275 1_455 S
O271 Ho240 2.305 . S
O271 Ho241 2.669 1_655 S
O271 C259 1.256 . S
H272 C245 0.930 . S
H273 C246 0.931 . S
H274 C248 0.934 . S
H275 C249 0.930 . S
H276 C254 0.930 . S
H277 C255 0.931 . S
H278 C257 0.934 . S
H279 C258 0.930 . S
Ho280 C283 2.811 1_655 S
Ho280 O300 2.322 . S
Ho280 O302 2.378 . S
Ho280 O303 2.524 . S
Ho280 O304 2.381 . S
Ho280 O305 2.669 . S
Ho280 O307 2.346 . S
Ho280 O311 2.305 . S
Ho281 C292 2.811 . S
Ho281 O301 2.346 . S
Ho281 O305 2.305 . S
Ho281 O306 2.322 . S
Ho281 O308 2.378 . S
Ho281 O309 2.524 . S
Ho281 O310 2.381 . S
Ho281 O311 2.669 . S
C282 O300 1.259 . S
C282 O301 1.268 . S
C283 Ho280 2.811 1_455 S
C283 C284 1.488 . S
C283 O302 1.215 1_455 S
C283 O303 1.289 1_455 S
C284 C283 1.488 . S
C284 C285 1.348 . S
C284 C289 1.413 . S
C285 C284 1.348 . S
C285 C286 1.442 . S
C285 H312 0.930 . S
C286 C285 1.442 . S
C286 C287 1.381 . S
C286 H313 0.931 . S
C287 C286 1.381 . S
C287 C288 1.321 . S
C288 C287 1.321 . S
C288 C289 1.403 . S
C288 H314 0.934 . S
C289 C284 1.413 . S
C289 C288 1.403 . S
C289 H315 0.930 . S
C290 O304 1.275 . S
C290 O305 1.256 . S
C291 O306 1.259 . S
C291 O307 1.268 . S
C292 Ho281 2.811 . S
C292 C293 1.488 . S
C292 O308 1.215 . S
C292 O309 1.289 . S
C293 C292 1.488 . S
C293 C294 1.348 . S
C293 C298 1.413 . S
C294 C293 1.348 . S
C294 C295 1.442 . S
C294 H316 0.930 . S
C295 C294 1.442 . S
C295 C296 1.381 . S
C295 H317 0.931 . S
C296 C295 1.381 . S
C296 C297 1.321 . S
C297 C296 1.321 . S
C297 C298 1.403 . S
C297 H318 0.934 . S
C298 C293 1.413 . S
C298 C297 1.403 . S
C298 H319 0.930 . S
C299 O310 1.275 . S
C299 O311 1.256 . S
O300 Ho280 2.322 . S
O300 C282 1.259 . S
O301 Ho281 2.346 . S
O301 C282 1.268 . S
O302 Ho280 2.378 . S
O302 C283 1.215 1_655 S
O303 Ho280 2.524 . S
O303 C283 1.289 1_655 S
O304 Ho280 2.381 . S
O304 C290 1.275 . S
O305 Ho280 2.669 . S
O305 Ho281 2.305 . S
O305 C290 1.256 . S
O306 Ho281 2.322 . S
O306 C291 1.259 . S
O307 Ho280 2.346 . S
O307 C291 1.268 . S
O308 Ho281 2.378 . S
O308 C292 1.215 . S
O309 Ho281 2.524 . S
O309 C292 1.289 . S
O310 Ho281 2.381 . S
O310 C299 1.275 . S
O311 Ho280 2.305 . S
O311 Ho281 2.669 . S
O311 C299 1.256 . S
H312 C285 0.930 . S
H313 C286 0.931 . S
H314 C288 0.934 . S
H315 C289 0.930 . S
H316 C294 0.930 . S
H317 C295 0.931 . S
H318 C297 0.934 . S
H319 C298 0.930 . S
Ho320 C323 2.811 . S
Ho320 O340 2.322 1_545 S
Ho320 O342 2.378 . S
Ho320 O343 2.524 . S
Ho320 O344 2.381 . S
Ho320 O345 2.669 1_645 S
Ho320 O347 2.346 1_655 S
Ho320 O351 2.305 1_545 S
Ho321 C332 2.811 . S
Ho321 O341 2.346 . S
Ho321 O345 2.305 . S
Ho321 O346 2.322 1_565 S
Ho321 O348 2.378 . S
Ho321 O349 2.524 . S
Ho321 O350 2.381 . S
Ho321 O351 2.669 1_455 S
C322 O340 1.259 . S
C322 O341 1.268 1_655 S
C323 Ho320 2.811 . S
C323 C324 1.488 . S
C323 O342 1.215 . S
C323 O343 1.289 . S
C324 C323 1.488 . S
C324 C325 1.348 1_545 S
C324 C329 1.413 . S
C325 C324 1.348 1_565 S
C325 C326 1.442 . S
C325 H352 0.930 . S
C326 C325 1.442 . S
C326 C327 1.381 . S
C326 H353 0.931 . S
C327 C326 1.381 . S
C327 C328 1.321 1_565 S
C328 C327 1.321 1_545 S
C328 C329 1.403 . S
C328 H354 0.934 . S
C329 C324 1.413 . S
C329 C328 1.403 . S
C329 H355 0.930 . S
C330 O344 1.275 1_465 S
C330 O345 1.256 . S
C331 O346 1.259 . S
C331 O347 1.268 . S
C332 Ho321 2.811 . S
C332 C333 1.488 . S
C332 O348 1.215 . S
C332 O349 1.289 . S
C333 C332 1.488 . S
C333 C334 1.348 . S
C333 C338 1.413 . S
C334 C333 1.348 . S
C334 C335 1.442 . S
C334 H356 0.930 . S
C335 C334 1.442 . S
C335 C336 1.381 . S
C335 H357 0.931 . S
C336 C335 1.381 . S
C336 C337 1.321 . S
C337 C336 1.321 . S
C337 C338 1.403 . S
C337 H358 0.934 . S
C338 C333 1.413 . S
C338 C337 1.403 . S
C338 H359 0.930 . S
C339 O350 1.275 . S
C339 O351 1.256 1_455 S
O340 Ho320 2.322 1_565 S
O340 C322 1.259 . S
O341 Ho321 2.346 . S
O341 C322 1.268 1_455 S
O342 Ho320 2.378 . S
O342 C323 1.215 . S
O343 Ho320 2.524 . S
O343 C323 1.289 . S
O344 Ho320 2.381 . S
O344 C330 1.275 1_645 S
O345 Ho320 2.669 1_465 S
O345 Ho321 2.305 . S
O345 C330 1.256 . S
O346 Ho321 2.322 1_545 S
O346 C331 1.259 . S
O347 Ho320 2.346 1_455 S
O347 C331 1.268 . S
O348 Ho321 2.378 . S
O348 C332 1.215 . S
O349 Ho321 2.524 . S
O349 C332 1.289 . S
O350 Ho321 2.381 . S
O350 C339 1.275 . S
O351 Ho320 2.305 1_565 S
O351 Ho321 2.669 1_655 S
O351 C339 1.256 1_655 S
H352 C325 0.930 . S
H353 C326 0.931 . S
H354 C328 0.934 . S
H355 C329 0.930 . S
H356 C334 0.930 . S
H357 C335 0.931 . S
H358 C337 0.934 . S
H359 C338 0.930 . S
Ho360 C363 2.811 . S
Ho360 O380 2.322 . S
Ho360 O382 2.378 . S
Ho360 O383 2.524 . S
Ho360 O384 2.381 . S
Ho360 O385 2.669 . S
Ho360 O387 2.346 . S
Ho360 O391 2.305 . S
Ho361 C372 2.811 1_455 S
Ho361 O381 2.346 . S
Ho361 O385 2.305 . S
Ho361 O386 2.322 . S
Ho361 O388 2.378 . S
Ho361 O389 2.524 . S
Ho361 O390 2.381 . S
Ho361 O391 2.669 . S
C362 O380 1.259 . S
C362 O381 1.268 . S
C363 Ho360 2.811 . S
C363 C364 1.488 . S
C363 O382 1.215 . S
C363 O383 1.289 . S
C364 C363 1.488 . S
C364 C365 1.348 . S
C364 C369 1.413 . S
C365 C364 1.348 . S
C365 C366 1.442 . S
C365 H392 0.930 . S
C366 C365 1.442 . S
C366 C367 1.381 . S
C366 H393 0.931 . S
C367 C366 1.381 . S
C367 C368 1.321 . S
C368 C367 1.321 . S
C368 C369 1.403 . S
C368 H394 0.934 . S
C369 C364 1.413 . S
C369 C368 1.403 . S
C369 H395 0.930 . S
C370 O384 1.275 . S
C370 O385 1.256 . S
C371 O386 1.259 . S
C371 O387 1.268 . S
C372 Ho361 2.811 1_655 S
C372 C373 1.488 . S
C372 O388 1.215 1_655 S
C372 O389 1.289 1_655 S
C373 C372 1.488 . S
C373 C374 1.348 . S
C373 C378 1.413 . S
C374 C373 1.348 . S
C374 C375 1.442 . S
C374 H396 0.930 . S
C375 C374 1.442 . S
C375 C376 1.381 . S
C375 H397 0.931 . S
C376 C375 1.381 . S
C376 C377 1.321 . S
C377 C376 1.321 . S
C377 C378 1.403 . S
C377 H398 0.934 . S
C378 C373 1.413 . S
C378 C377 1.403 . S
C378 H399 0.930 . S
C379 O390 1.275 . S
C379 O391 1.256 . S
O380 Ho360 2.322 . S
O380 C362 1.259 . S
O381 Ho361 2.346 . S
O381 C362 1.268 . S
O382 Ho360 2.378 . S
O382 C363 1.215 . S
O383 Ho360 2.524 . S
O383 C363 1.289 . S
O384 Ho360 2.381 . S
O384 C370 1.275 . S
O385 Ho360 2.669 . S
O385 Ho361 2.305 . S
O385 C370 1.256 . S
O386 Ho361 2.322 . S
O386 C371 1.259 . S
O387 Ho360 2.346 . S
O387 C371 1.268 . S
O388 Ho361 2.378 . S
O388 C372 1.215 1_455 S
O389 Ho361 2.524 . S
O389 C372 1.289 1_455 S
O390 Ho361 2.381 . S
O390 C379 1.275 . S
O391 Ho360 2.305 . S
O391 Ho361 2.669 . S
O391 C379 1.256 . S
H392 C365 0.930 . S
H393 C366 0.931 . S
H394 C368 0.934 . S
H395 C369 0.930 . S
H396 C374 0.930 . S
H397 C375 0.931 . S
H398 C377 0.934 . S
H399 C378 0.930 . S
Ho400 C403 2.811 . S
Ho400 O420 2.322 . S
Ho400 O422 2.378 . S
Ho400 O423 2.524 . S
Ho400 O424 2.381 . S
Ho400 O425 2.669 1_655 S
Ho400 O427 2.346 1_655 S
Ho400 O431 2.305 . S
Ho401 C412 2.811 . S
Ho401 O421 2.346 . S
Ho401 O425 2.305 . S
Ho401 O426 2.322 . S
Ho401 O428 2.378 . S
Ho401 O429 2.524 . S
Ho401 O430 2.381 . S
Ho401 O431 2.669 1_455 S
C402 O420 1.259 . S
C402 O421 1.268 1_655 S
C403 Ho400 2.811 . S
C403 C404 1.488 . S
C403 O422 1.215 . S
C403 O423 1.289 . S
C404 C403 1.488 . S
C404 C405 1.348 . S
C404 C409 1.413 . S
C405 C404 1.348 . S
C405 C406 1.442 . S
C405 H432 0.930 . S
C406 C405 1.442 . S
C406 C407 1.381 . S
C406 H433 0.931 . S
C407 C406 1.381 . S
C407 C408 1.321 . S
C408 C407 1.321 . S
C408 C409 1.403 . S
C408 H434 0.934 . S
C409 C404 1.413 . S
C409 C408 1.403 . S
C409 H435 0.930 . S
C410 O424 1.275 1_455 S
C410 O425 1.256 . S
C411 O426 1.259 . S
C411 O427 1.268 . S
C412 Ho401 2.811 . S
C412 C413 1.488 . S
C412 O428 1.215 . S
C412 O429 1.289 . S
C413 C412 1.488 . S
C413 C414 1.348 . S
C413 C418 1.413 . S
C414 C413 1.348 . S
C414 C415 1.442 . S
C414 H436 0.930 . S
C415 C414 1.442 . S
C415 C416 1.381 . S
C415 H437 0.931 . S
C416 C415 1.381 . S
C416 C417 1.321 . S
C417 C416 1.321 . S
C417 C418 1.403 . S
C417 H438 0.934 . S
C418 C413 1.413 . S
C418 C417 1.403 . S
C418 H439 0.930 . S
C419 O430 1.275 . S
C419 O431 1.256 1_455 S
O420 Ho400 2.322 . S
O420 C402 1.259 . S
O421 Ho401 2.346 . S
O421 C402 1.268 1_455 S
O422 Ho400 2.378 . S
O422 C403 1.215 . S
O423 Ho400 2.524 . S
O423 C403 1.289 . S
O424 Ho400 2.381 . S
O424 C410 1.275 1_655 S
O425 Ho400 2.669 1_455 S
O425 Ho401 2.305 . S
O425 C410 1.256 . S
O426 Ho401 2.322 . S
O426 C411 1.259 . S
O427 Ho400 2.346 1_455 S
O427 C411 1.268 . S
O428 Ho401 2.378 . S
O428 C412 1.215 . S
O429 Ho401 2.524 . S
O429 C412 1.289 . S
O430 Ho401 2.381 . S
O430 C419 1.275 . S
O431 Ho400 2.305 . S
O431 Ho401 2.669 1_655 S
O431 C419 1.256 1_655 S
H432 C405 0.930 . S
H433 C406 0.931 . S
H434 C408 0.934 . S
H435 C409 0.930 . S
H436 C414 0.930 . S
H437 C415 0.931 . S
H438 C417 0.934 . S
H439 C418 0.930 . S
Ho440 C443 2.811 . S
Ho440 O460 2.322 1_545 S
Ho440 O462 2.378 . S
Ho440 O463 2.524 . S
Ho440 O464 2.381 . S
Ho440 O465 2.669 1_545 S
Ho440 O467 2.346 . S
Ho440 O471 2.305 1_545 S
Ho441 C452 2.811 1_455 S
Ho441 O461 2.346 . S
Ho441 O465 2.305 . S
Ho441 O466 2.322 1_565 S
Ho441 O468 2.378 . S
Ho441 O469 2.524 . S
Ho441 O470 2.381 . S
Ho441 O471 2.669 . S
C442 O460 1.259 . S
C442 O461 1.268 . S
C443 Ho440 2.811 . S
C443 C444 1.488 . S
C443 O462 1.215 . S
C443 O463 1.289 . S
C444 C443 1.488 . S
C444 C445 1.348 1_545 S
C444 C449 1.413 . S
C445 C444 1.348 1_565 S
C445 C446 1.442 . S
C445 H472 0.930 . S
C446 C445 1.442 . S
C446 C447 1.381 . S
C446 H473 0.931 . S
C447 C446 1.381 . S
C447 C448 1.321 1_565 S
C448 C447 1.321 1_545 S
C448 C449 1.403 . S
C448 H474 0.934 . S
C449 C444 1.413 . S
C449 C448 1.403 . S
C449 H475 0.930 . S
C450 O464 1.275 1_565 S
C450 O465 1.256 . S
C451 O466 1.259 . S
C451 O467 1.268 . S
C452 Ho441 2.811 1_655 S
C452 C453 1.488 . S
C452 O468 1.215 1_655 S
C452 O469 1.289 1_655 S
C453 C452 1.488 . S
C453 C454 1.348 . S
C453 C458 1.413 . S
C454 C453 1.348 . S
C454 C455 1.442 . S
C454 H476 0.930 . S
C455 C454 1.442 . S
C455 C456 1.381 . S
C455 H477 0.931 . S
C456 C455 1.381 . S
C456 C457 1.321 . S
C457 C456 1.321 . S
C457 C458 1.403 . S
C457 H478 0.934 . S
C458 C453 1.413 . S
C458 C457 1.403 . S
C458 H479 0.930 . S
C459 O470 1.275 . S
C459 O471 1.256 . S
O460 Ho440 2.322 1_565 S
O460 C442 1.259 . S
O461 Ho441 2.346 . S
O461 C442 1.268 . S
O462 Ho440 2.378 . S
O462 C443 1.215 . S
O463 Ho440 2.524 . S
O463 C443 1.289 . S
O464 Ho440 2.381 . S
O464 C450 1.275 1_545 S
O465 Ho440 2.669 1_565 S
O465 Ho441 2.305 . S
O465 C450 1.256 . S
O466 Ho441 2.322 1_545 S
O466 C451 1.259 . S
O467 Ho440 2.346 . S
O467 C451 1.268 . S
O468 Ho441 2.378 . S
O468 C452 1.215 1_455 S
O469 Ho441 2.524 . S
O469 C452 1.289 1_455 S
O470 Ho441 2.381 . S
O470 C459 1.275 . S
O471 Ho440 2.305 1_565 S
O471 Ho441 2.669 . S
O471 C459 1.256 . S
H472 C445 0.930 . S
H473 C446 0.931 . S
H474 C448 0.934 . S
H475 C449 0.930 . S
H476 C454 0.930 . S
H477 C455 0.931 . S
H478 C457 0.934 . S
H479 C458 0.930 . S
Ho480 C483 2.811 . S
Ho480 O500 2.322 1_545 S
Ho480 O502 2.378 . S
Ho480 O503 2.524 . S
Ho480 O504 2.381 . S
Ho480 O505 2.669 1_655 S
Ho480 O507 2.346 . S
Ho480 O511 2.305 . S
Ho481 C492 2.811 . S
Ho481 O501 2.346 1_455 S
Ho481 O505 2.305 1_565 S
Ho481 O506 2.322 1_565 S
Ho481 O508 2.378 . S
Ho481 O509 2.524 . S
Ho481 O510 2.381 . S
Ho481 O511 2.669 1_465 S
C482 O500 1.259 . S
C482 O501 1.268 . S
C483 Ho480 2.811 . S
C483 C484 1.488 . S
C483 O502 1.215 . S
C483 O503 1.289 . S
C484 C483 1.488 . S
C484 C485 1.348 . S
C484 C489 1.413 . S
C485 C484 1.348 . S
C485 C486 1.442 . S
C485 H512 0.930 . S
C486 C485 1.442 . S
C486 C487 1.381 . S
C486 H513 0.931 . S
C487 C486 1.381 . S
C487 C488 1.321 . S
C488 C487 1.321 . S
C488 C489 1.403 . S
C488 H514 0.934 . S
C489 C484 1.413 . S
C489 C488 1.403 . S
C489 H515 0.930 . S
C490 O504 1.275 . S
C490 O505 1.256 1_655 S
C491 O506 1.259 . S
C491 O507 1.268 1_455 S
C492 Ho481 2.811 . S
C492 C493 1.488 . S
C492 O508 1.215 . S
C492 O509 1.289 . S
C493 C492 1.488 . S
C493 C494 1.348 1_565 S
C493 C498 1.413 . S
C494 C493 1.348 1_545 S
C494 C495 1.442 . S
C494 H516 0.930 . S
C495 C494 1.442 . S
C495 C496 1.381 . S
C495 H517 0.931 . S
C496 C495 1.381 . S
C496 C497 1.321 1_545 S
C497 C496 1.321 1_565 S
C497 C498 1.403 . S
C497 H518 0.934 . S
C498 C493 1.413 . S
C498 C497 1.403 . S
C498 H519 0.930 . S
C499 O510 1.275 1_645 S
C499 O511 1.256 . S
O500 Ho480 2.322 1_565 S
O500 C482 1.259 . S
O501 Ho481 2.346 1_655 S
O501 C482 1.268 . S
O502 Ho480 2.378 . S
O502 C483 1.215 . S
O503 Ho480 2.524 . S
O503 C483 1.289 . S
O504 Ho480 2.381 . S
O504 C490 1.275 . S
O505 Ho480 2.669 1_455 S
O505 Ho481 2.305 1_545 S
O505 C490 1.256 1_455 S
O506 Ho481 2.322 1_545 S
O506 C491 1.259 . S
O507 Ho480 2.346 . S
O507 C491 1.268 1_655 S
O508 Ho481 2.378 . S
O508 C492 1.215 . S
O509 Ho481 2.524 . S
O509 C492 1.289 . S
O510 Ho481 2.381 . S
O510 C499 1.275 1_465 S
O511 Ho480 2.305 . S
O511 Ho481 2.669 1_645 S
O511 C499 1.256 . S
H512 C485 0.930 . S
H513 C486 0.931 . S
H514 C488 0.934 . S
H515 C489 0.930 . S
H516 C494 0.930 . S
H517 C495 0.931 . S
H518 C497 0.934 . S
H519 C498 0.930 . S
Ho520 C523 2.811 1_655 S
Ho520 O540 2.322 . S
Ho520 O542 2.378 . S
Ho520 O543 2.524 . S
Ho520 O544 2.381 . S
Ho520 O545 2.669 . S
Ho520 O547 2.346 . S
Ho520 O551 2.305 . S
Ho521 C532 2.811 . S
Ho521 O541 2.346 . S
Ho521 O545 2.305 . S
Ho521 O546 2.322 . S
Ho521 O548 2.378 . S
Ho521 O549 2.524 . S
Ho521 O550 2.381 . S
Ho521 O551 2.669 . S
C522 O540 1.259 . S
C522 O541 1.268 . S
C523 Ho520 2.811 1_455 S
C523 C524 1.488 . S
C523 O542 1.215 1_455 S
C523 O543 1.289 1_455 S
C524 C523 1.488 . S
C524 C525 1.348 . S
C524 C529 1.413 . S
C525 C524 1.348 . S
C525 C526 1.442 . S
C525 H552 0.930 . S
C526 C525 1.442 . S
C526 C527 1.381 . S
C526 H553 0.931 . S
C527 C526 1.381 . S
C527 C528 1.321 . S
C528 C527 1.321 . S
C528 C529 1.403 . S
C528 H554 0.934 . S
C529 C524 1.413 . S
C529 C528 1.403 . S
C529 H555 0.930 . S
C530 O544 1.275 . S
C530 O545 1.256 . S
C531 O546 1.259 . S
C531 O547 1.268 . S
C532 Ho521 2.811 . S
C532 C533 1.488 . S
C532 O548 1.215 . S
C532 O549 1.289 . S
C533 C532 1.488 . S
C533 C534 1.348 . S
C533 C538 1.413 . S
C534 C533 1.348 . S
C534 C535 1.442 . S
C534 H556 0.930 . S
C535 C534 1.442 . S
C535 C536 1.381 . S
C535 H557 0.931 . S
C536 C535 1.381 . S
C536 C537 1.321 . S
C537 C536 1.321 . S
C537 C538 1.403 . S
C537 H558 0.934 . S
C538 C533 1.413 . S
C538 C537 1.403 . S
C538 H559 0.930 . S
C539 O550 1.275 . S
C539 O551 1.256 . S
O540 Ho520 2.322 . S
O540 C522 1.259 . S
O541 Ho521 2.346 . S
O541 C522 1.268 . S
O542 Ho520 2.378 . S
O542 C523 1.215 1_655 S
O543 Ho520 2.524 . S
O543 C523 1.289 1_655 S
O544 Ho520 2.381 . S
O544 C530 1.275 . S
O545 Ho520 2.669 . S
O545 Ho521 2.305 . S
O545 C530 1.256 . S
O546 Ho521 2.322 . S
O546 C531 1.259 . S
O547 Ho520 2.346 . S
O547 C531 1.268 . S
O548 Ho521 2.378 . S
O548 C532 1.215 . S
O549 Ho521 2.524 . S
O549 C532 1.289 . S
O550 Ho521 2.381 . S
O550 C539 1.275 . S
O551 Ho520 2.305 . S
O551 Ho521 2.669 . S
O551 C539 1.256 . S
H552 C525 0.930 . S
H553 C526 0.931 . S
H554 C528 0.934 . S
H555 C529 0.930 . S
H556 C534 0.930 . S
H557 C535 0.931 . S
H558 C537 0.934 . S
H559 C538 0.930 . S
Ho560 C563 2.811 . S
Ho560 O580 2.322 . S
Ho560 O582 2.378 . S
Ho560 O583 2.524 . S
Ho560 O584 2.381 . S
Ho560 O585 2.669 1_655 S
Ho560 O587 2.346 . S
Ho560 O591 2.305 . S
Ho561 C572 2.811 . S
Ho561 O581 2.346 1_455 S
Ho561 O585 2.305 . S
Ho561 O586 2.322 . S
Ho561 O588 2.378 . S
Ho561 O589 2.524 . S
Ho561 O590 2.381 . S
Ho561 O591 2.669 1_455 S
C562 O580 1.259 . S
C562 O581 1.268 . S
C563 Ho560 2.811 . S
C563 C564 1.488 . S
C563 O582 1.215 . S
C563 O583 1.289 . S
C564 C563 1.488 . S
C564 C565 1.348 . S
C564 C569 1.413 . S
C565 C564 1.348 . S
C565 C566 1.442 . S
C565 H592 0.930 . S
C566 C565 1.442 . S
C566 C567 1.381 . S
C566 H593 0.931 . S
C567 C566 1.381 . S
C567 C568 1.321 . S
C568 C567 1.321 . S
C568 C569 1.403 . S
C568 H594 0.934 . S
C569 C564 1.413 . S
C569 C568 1.403 . S
C569 H595 0.930 . S
C570 O584 1.275 . S
C570 O585 1.256 1_655 S
C571 O586 1.259 . S
C571 O587 1.268 1_455 S
C572 Ho561 2.811 . S
C572 C573 1.488 . S
C572 O588 1.215 . S
C572 O589 1.289 . S
C573 C572 1.488 . S
C573 C574 1.348 . S
C573 C578 1.413 . S
C574 C573 1.348 . S
C574 C575 1.442 . S
C574 H596 0.930 . S
C575 C574 1.442 . S
C575 C576 1.381 . S
C575 H597 0.931 . S
C576 C575 1.381 . S
C576 C577 1.321 . S
C577 C576 1.321 . S
C577 C578 1.403 . S
C577 H598 0.934 . S
C578 C573 1.413 . S
C578 C577 1.403 . S
C578 H599 0.930 . S
C579 O590 1.275 1_655 S
C579 O591 1.256 . S
O580 Ho560 2.322 . S
O580 C562 1.259 . S
O581 Ho561 2.346 1_655 S
O581 C562 1.268 . S
O582 Ho560 2.378 . S
O582 C563 1.215 . S
O583 Ho560 2.524 . S
O583 C563 1.289 . S
O584 Ho560 2.381 . S
O584 C570 1.275 . S
O585 Ho560 2.669 1_455 S
O585 Ho561 2.305 . S
O585 C570 1.256 1_455 S
O586 Ho561 2.322 . S
O586 C571 1.259 . S
O587 Ho560 2.346 . S
O587 C571 1.268 1_655 S
O588 Ho561 2.378 . S
O588 C572 1.215 . S
O589 Ho561 2.524 . S
O589 C572 1.289 . S
O590 Ho561 2.381 . S
O590 C579 1.275 1_455 S
O591 Ho560 2.305 . S
O591 Ho561 2.669 1_655 S
O591 C579 1.256 . S
H592 C565 0.930 . S
H593 C566 0.931 . S
H594 C568 0.934 . S
H595 C569 0.930 . S
H596 C574 0.930 . S
H597 C575 0.931 . S
H598 C577 0.934 . S
H599 C578 0.930 . S
Ho600 C603 2.811 1_655 S
Ho600 O620 2.322 1_545 S
Ho600 O622 2.378 . S
Ho600 O623 2.524 . S
Ho600 O624 2.381 . S
Ho600 O625 2.669 . S
Ho600 O627 2.346 . S
Ho600 O631 2.305 . S
Ho601 C612 2.811 . S
Ho601 O621 2.346 . S
Ho601 O625 2.305 1_565 S
Ho601 O626 2.322 1_565 S
Ho601 O628 2.378 . S
Ho601 O629 2.524 . S
Ho601 O630 2.381 . S
Ho601 O631 2.669 1_565 S
C602 O620 1.259 . S
C602 O621 1.268 . S
C603 Ho600 2.811 1_455 S
C603 C604 1.488 . S
C603 O622 1.215 1_455 S
C603 O623 1.289 1_455 S
C604 C603 1.488 . S
C604 C605 1.348 . S
C604 C609 1.413 . S
C605 C604 1.348 . S
C605 C606 1.442 . S
C605 H632 0.930 . S
C606 C605 1.442 . S
C606 C607 1.381 . S
C606 H633 0.931 . S
C607 C606 1.381 . S
C607 C608 1.321 . S
C608 C607 1.321 . S
C608 C609 1.403 . S
C608 H634 0.934 . S
C609 C604 1.413 . S
C609 C608 1.403 . S
C609 H635 0.930 . S
C610 O624 1.275 . S
C610 O625 1.256 . S
C611 O626 1.259 . S
C611 O627 1.268 . S
C612 Ho601 2.811 . S
C612 C613 1.488 . S
C612 O628 1.215 . S
C612 O629 1.289 . S
C613 C612 1.488 . S
C613 C614 1.348 1_565 S
C613 C618 1.413 . S
C614 C613 1.348 1_545 S
C614 C615 1.442 . S
C614 H636 0.930 . S
C615 C614 1.442 . S
C615 C616 1.381 . S
C615 H637 0.931 . S
C616 C615 1.381 . S
C616 C617 1.321 1_545 S
C617 C616 1.321 1_565 S
C617 C618 1.403 . S
C617 H638 0.934 . S
C618 C613 1.413 . S
C618 C617 1.403 . S
C618 H639 0.930 . S
C619 O630 1.275 1_545 S
C619 O631 1.256 . S
O620 Ho600 2.322 1_565 S
O620 C602 1.259 . S
O621 Ho601 2.346 . S
O621 C602 1.268 . S
O622 Ho600 2.378 . S
O622 C603 1.215 1_655 S
O623 Ho600 2.524 . S
O623 C603 1.289 1_655 S
O624 Ho600 2.381 . S
O624 C610 1.275 . S
O625 Ho600 2.669 . S
O625 Ho601 2.305 1_545 S
O625 C610 1.256 . S
O626 Ho601 2.322 1_545 S
O626 C611 1.259 . S
O627 Ho600 2.346 . S
O627 C611 1.268 . S
O628 Ho601 2.378 . S
O628 C612 1.215 . S
O629 Ho601 2.524 . S
O629 C612 1.289 . S
O630 Ho601 2.381 . S
O630 C619 1.275 1_565 S
O631 Ho600 2.305 . S
O631 Ho601 2.669 1_545 S
O631 C619 1.256 . S
H632 C605 0.930 . S
H633 C606 0.931 . S
H634 C608 0.934 . S
H635 C609 0.930 . S
H636 C614 0.930 . S
H637 C615 0.931 . S
H638 C617 0.934 . S
H639 C618 0.930 . S
Ho640 C643 2.811 . S
Ho640 O660 2.322 . S
Ho640 O662 2.378 . S
Ho640 O663 2.524 . S
Ho640 O664 2.381 . S
Ho640 O665 2.669 . S
Ho640 O667 2.346 . S
Ho640 O671 2.305 . S
Ho641 C652 2.811 . S
Ho641 O661 2.346 . S
Ho641 O665 2.305 . S
Ho641 O666 2.322 . S
Ho641 O668 2.378 . S
Ho641 O669 2.524 . S
Ho641 O670 2.381 . S
Ho641 O671 2.669 . S
C642 O660 1.259 . S
C642 O661 1.268 . S
C643 Ho640 2.811 . S
C643 C644 1.488 . S
C643 O662 1.215 . S
C643 O663 1.289 . S
C644 C643 1.488 . S
C644 C645 1.348 . S
C644 C649 1.413 . S
C645 C644 1.348 . S
C645 C646 1.442 . S
C645 H672 0.930 . S
C646 C645 1.442 . S
C646 C647 1.381 . S
C646 H673 0.931 . S
C647 C646 1.381 . S
C647 C648 1.321 . S
C648 C647 1.321 . S
C648 C649 1.403 . S
C648 H674 0.934 . S
C649 C644 1.413 . S
C649 C648 1.403 . S
C649 H675 0.930 . S
C650 O664 1.275 . S
C650 O665 1.256 . S
C651 O666 1.259 . S
C651 O667 1.268 . S
C652 Ho641 2.811 . S
C652 C653 1.488 . S
C652 O668 1.215 . S
C652 O669 1.289 . S
C653 C652 1.488 . S
C653 C654 1.348 . S
C653 C658 1.413 . S
C654 C653 1.348 . S
C654 C655 1.442 . S
C654 H676 0.930 . S
C655 C654 1.442 . S
C655 C656 1.381 . S
C655 H677 0.931 . S
C656 C655 1.381 . S
C656 C657 1.321 . S
C657 C656 1.321 . S
C657 C658 1.403 . S
C657 H678 0.934 . S
C658 C653 1.413 . S
C658 C657 1.403 . S
C658 H679 0.930 . S
C659 O670 1.275 . S
C659 O671 1.256 . S
O660 Ho640 2.322 . S
O660 C642 1.259 . S
O661 Ho641 2.346 . S
O661 C642 1.268 . S
O662 Ho640 2.378 . S
O662 C643 1.215 . S
O663 Ho640 2.524 . S
O663 C643 1.289 . S
O664 Ho640 2.381 . S
O664 C650 1.275 . S
O665 Ho640 2.669 . S
O665 Ho641 2.305 . S
O665 C650 1.256 . S
O666 Ho641 2.322 . S
O666 C651 1.259 . S
O667 Ho640 2.346 . S
O667 C651 1.268 . S
O668 Ho641 2.378 . S
O668 C652 1.215 . S
O669 Ho641 2.524 . S
O669 C652 1.289 . S
O670 Ho641 2.381 . S
O670 C659 1.275 . S
O671 Ho640 2.305 . S
O671 Ho641 2.669 . S
O671 C659 1.256 . S
H672 C645 0.930 . S
H673 C646 0.931 . S
H674 C648 0.934 . S
H675 C649 0.930 . S
H676 C654 0.930 . S
H677 C655 0.931 . S
H678 C657 0.934 . S
H679 C658 0.930 . S
Ho680 C683 2.811 . S
Ho680 O700 2.322 . S
Ho680 O702 2.378 . S
Ho680 O703 2.524 . S
Ho680 O704 2.381 . S
Ho680 O705 2.669 . S
Ho680 O707 2.346 . S
Ho680 O711 2.305 . S
Ho681 C692 2.811 . S
Ho681 O701 2.346 . S
Ho681 O705 2.305 . S
Ho681 O706 2.322 . S
Ho681 O708 2.378 . S
Ho681 O709 2.524 . S
Ho681 O710 2.381 . S
Ho681 O711 2.669 . S
C682 O700 1.259 . S
C682 O701 1.268 . S
C683 Ho680 2.811 . S
C683 C684 1.488 1_655 S
C683 O702 1.215 . S
C683 O703 1.289 . S
C684 C683 1.488 1_455 S
C684 C685 1.348 . S
C684 C689 1.413 . S
C685 C684 1.348 . S
C685 C686 1.442 . S
C685 H712 0.930 . S
C686 C685 1.442 . S
C686 C687 1.381 . S
C686 H713 0.931 . S
C687 C686 1.381 . S
C687 C688 1.321 . S
C688 C687 1.321 . S
C688 C689 1.403 . S
C688 H714 0.934 . S
C689 C684 1.413 . S
C689 C688 1.403 . S
C689 H715 0.930 . S
C690 O704 1.275 . S
C690 O705 1.256 . S
C691 O706 1.259 . S
C691 O707 1.268 . S
C692 Ho681 2.811 . S
C692 C693 1.488 . S
C692 O708 1.215 . S
C692 O709 1.289 . S
C693 C692 1.488 . S
C693 C694 1.348 . S
C693 C698 1.413 . S
C694 C693 1.348 . S
C694 C695 1.442 . S
C694 H716 0.930 . S
C695 C694 1.442 . S
C695 C696 1.381 . S
C695 H717 0.931 . S
C696 C695 1.381 . S
C696 C697 1.321 . S
C697 C696 1.321 . S
C697 C698 1.403 . S
C697 H718 0.934 . S
C698 C693 1.413 . S
C698 C697 1.403 . S
C698 H719 0.930 . S
C699 O710 1.275 . S
C699 O711 1.256 . S
O700 Ho680 2.322 . S
O700 C682 1.259 . S
O701 Ho681 2.346 . S
O701 C682 1.268 . S
O702 Ho680 2.378 . S
O702 C683 1.215 . S
O703 Ho680 2.524 . S
O703 C683 1.289 . S
O704 Ho680 2.381 . S
O704 C690 1.275 . S
O705 Ho680 2.669 . S
O705 Ho681 2.305 . S
O705 C690 1.256 . S
O706 Ho681 2.322 . S
O706 C691 1.259 . S
O707 Ho680 2.346 . S
O707 C691 1.268 . S
O708 Ho681 2.378 . S
O708 C692 1.215 . S
O709 Ho681 2.524 . S
O709 C692 1.289 . S
O710 Ho681 2.381 . S
O710 C699 1.275 . S
O711 Ho680 2.305 . S
O711 Ho681 2.669 . S
O711 C699 1.256 . S
H712 C685 0.930 . S
H713 C686 0.931 . S
H714 C688 0.934 . S
H715 C689 0.930 . S
H716 C694 0.930 . S
H717 C695 0.931 . S
H718 C697 0.934 . S
H719 C698 0.930 . S
Ho720 C723 2.811 . S
Ho720 O740 2.322 . S
Ho720 O742 2.378 . S
Ho720 O743 2.524 . S
Ho720 O744 2.381 . S
Ho720 O745 2.669 . S
Ho720 O747 2.346 . S
Ho720 O751 2.305 . S
Ho721 C732 2.811 . S
Ho721 O741 2.346 . S
Ho721 O745 2.305 . S
Ho721 O746 2.322 . S
Ho721 O748 2.378 . S
Ho721 O749 2.524 . S
Ho721 O750 2.381 . S
Ho721 O751 2.669 . S
C722 O740 1.259 . S
C722 O741 1.268 . S
C723 Ho720 2.811 . S
C723 C724 1.488 . S
C723 O742 1.215 . S
C723 O743 1.289 . S
C724 C723 1.488 . S
C724 C725 1.348 . S
C724 C729 1.413 . S
C725 C724 1.348 . S
C725 C726 1.442 . S
C725 H752 0.930 . S
C726 C725 1.442 . S
C726 C727 1.381 . S
C726 H753 0.931 . S
C727 C726 1.381 . S
C727 C728 1.321 . S
C728 C727 1.321 . S
C728 C729 1.403 . S
C728 H754 0.934 . S
C729 C724 1.413 . S
C729 C728 1.403 . S
C729 H755 0.930 . S
C730 O744 1.275 . S
C730 O745 1.256 . S
C731 O746 1.259 . S
C731 O747 1.268 . S
C732 Ho721 2.811 . S
C732 C733 1.488 . S
C732 O748 1.215 . S
C732 O749 1.289 . S
C733 C732 1.488 . S
C733 C734 1.348 . S
C733 C738 1.413 . S
C734 C733 1.348 . S
C734 C735 1.442 . S
C734 H756 0.930 . S
C735 C734 1.442 . S
C735 C736 1.381 . S
C735 H757 0.931 . S
C736 C735 1.381 . S
C736 C737 1.321 . S
C737 C736 1.321 . S
C737 C738 1.403 . S
C737 H758 0.934 . S
C738 C733 1.413 . S
C738 C737 1.403 . S
C738 H759 0.930 . S
C739 O750 1.275 . S
C739 O751 1.256 . S
O740 Ho720 2.322 . S
O740 C722 1.259 . S
O741 Ho721 2.346 . S
O741 C722 1.268 . S
O742 Ho720 2.378 . S
O742 C723 1.215 . S
O743 Ho720 2.524 . S
O743 C723 1.289 . S
O744 Ho720 2.381 . S
O744 C730 1.275 . S
O745 Ho720 2.669 . S
O745 Ho721 2.305 . S
O745 C730 1.256 . S
O746 Ho721 2.322 . S
O746 C731 1.259 . S
O747 Ho720 2.346 . S
O747 C731 1.268 . S
O748 Ho721 2.378 . S
O748 C732 1.215 . S
O749 Ho721 2.524 . S
O749 C732 1.289 . S
O750 Ho721 2.381 . S
O750 C739 1.275 . S
O751 Ho720 2.305 . S
O751 Ho721 2.669 . S
O751 C739 1.256 . S
H752 C725 0.930 . S
H753 C726 0.931 . S
H754 C728 0.934 . S
H755 C729 0.930 . S
H756 C734 0.930 . S
H757 C735 0.931 . S
H758 C737 0.934 . S
H759 C738 0.930 . S
Ho760 C763 2.811 . S
Ho760 O780 2.322 . S
Ho760 O782 2.378 . S
Ho760 O783 2.524 . S
Ho760 O784 2.381 . S
Ho760 O785 2.669 . S
Ho760 O787 2.346 . S
Ho760 O791 2.305 . S
Ho761 C772 2.811 . S
Ho761 O781 2.346 . S
Ho761 O785 2.305 . S
Ho761 O786 2.322 . S
Ho761 O788 2.378 . S
Ho761 O789 2.524 . S
Ho761 O790 2.381 . S
Ho761 O791 2.669 . S
C762 O780 1.259 . S
C762 O781 1.268 . S
C763 Ho760 2.811 . S
C763 C764 1.488 1_655 S
C763 O782 1.215 . S
C763 O783 1.289 . S
C764 C763 1.488 1_455 S
C764 C765 1.348 . S
C764 C769 1.413 . S
C765 C764 1.348 . S
C765 C766 1.442 . S
C765 H792 0.930 . S
C766 C765 1.442 . S
C766 C767 1.381 . S
C766 H793 0.931 . S
C767 C766 1.381 . S
C767 C768 1.321 . S
C768 C767 1.321 . S
C768 C769 1.403 . S
C768 H794 0.934 . S
C769 C764 1.413 . S
C769 C768 1.403 . S
C769 H795 0.930 . S
C770 O784 1.275 . S
C770 O785 1.256 . S
C771 O786 1.259 . S
C771 O787 1.268 . S
C772 Ho761 2.811 . S
C772 C773 1.488 . S
C772 O788 1.215 . S
C772 O789 1.289 . S
C773 C772 1.488 . S
C773 C774 1.348 . S
C773 C778 1.413 . S
C774 C773 1.348 . S
C774 C775 1.442 . S
C774 H796 0.930 . S
C775 C774 1.442 . S
C775 C776 1.381 . S
C775 H797 0.931 . S
C776 C775 1.381 . S
C776 C777 1.321 . S
C777 C776 1.321 . S
C777 C778 1.403 . S
C777 H798 0.934 . S
C778 C773 1.413 . S
C778 C777 1.403 . S
C778 H799 0.930 . S
C779 O790 1.275 . S
C779 O791 1.256 . S
O780 Ho760 2.322 . S
O780 C762 1.259 . S
O781 Ho761 2.346 . S
O781 C762 1.268 . S
O782 Ho760 2.378 . S
O782 C763 1.215 . S
O783 Ho760 2.524 . S
O783 C763 1.289 . S
O784 Ho760 2.381 . S
O784 C770 1.275 . S
O785 Ho760 2.669 . S
O785 Ho761 2.305 . S
O785 C770 1.256 . S
O786 Ho761 2.322 . S
O786 C771 1.259 . S
O787 Ho760 2.346 . S
O787 C771 1.268 . S
O788 Ho761 2.378 . S
O788 C772 1.215 . S
O789 Ho761 2.524 . S
O789 C772 1.289 . S
O790 Ho761 2.381 . S
O790 C779 1.275 . S
O791 Ho760 2.305 . S
O791 Ho761 2.669 . S
O791 C779 1.256 . S
H792 C765 0.930 . S
H793 C766 0.931 . S
H794 C768 0.934 . S
H795 C769 0.930 . S
H796 C774 0.930 . S
H797 C775 0.931 . S
H798 C777 0.934 . S
H799 C778 0.930 . S
Ho800 C803 2.811 . S
Ho800 O820 2.322 . S
Ho800 O822 2.378 . S
Ho800 O823 2.524 . S
Ho800 O824 2.381 . S
Ho800 O825 2.669 . S
Ho800 O827 2.346 . S
Ho800 O831 2.305 . S
Ho801 C812 2.811 . S
Ho801 O821 2.346 . S
Ho801 O825 2.305 . S
Ho801 O826 2.322 . S
Ho801 O828 2.378 . S
Ho801 O829 2.524 . S
Ho801 O830 2.381 . S
Ho801 O831 2.669 . S
C802 O820 1.259 . S
C802 O821 1.268 . S
C803 Ho800 2.811 . S
C803 C804 1.488 . S
C803 O822 1.215 . S
C803 O823 1.289 . S
C804 C803 1.488 . S
C804 C805 1.348 . S
C804 C809 1.413 . S
C805 C804 1.348 . S
C805 C806 1.442 . S
C805 H832 0.930 . S
C806 C805 1.442 . S
C806 C807 1.381 . S
C806 H833 0.931 . S
C807 C806 1.381 . S
C807 C808 1.321 . S
C808 C807 1.321 . S
C808 C809 1.403 . S
C808 H834 0.934 . S
C809 C804 1.413 . S
C809 C808 1.403 . S
C809 H835 0.930 . S
C810 O824 1.275 . S
C810 O825 1.256 . S
C811 O826 1.259 . S
C811 O827 1.268 . S
C812 Ho801 2.811 . S
C812 C813 1.488 . S
C812 O828 1.215 . S
C812 O829 1.289 . S
C813 C812 1.488 . S
C813 C814 1.348 . S
C813 C818 1.413 . S
C814 C813 1.348 . S
C814 C815 1.442 . S
C814 H836 0.930 . S
C815 C814 1.442 . S
C815 C816 1.381 . S
C815 H837 0.931 . S
C816 C815 1.381 . S
C816 C817 1.321 . S
C817 C816 1.321 . S
C817 C818 1.403 . S
C817 H838 0.934 . S
C818 C813 1.413 . S
C818 C817 1.403 . S
C818 H839 0.930 . S
C819 O830 1.275 . S
C819 O831 1.256 . S
O820 Ho800 2.322 . S
O820 C802 1.259 . S
O821 Ho801 2.346 . S
O821 C802 1.268 . S
O822 Ho800 2.378 . S
O822 C803 1.215 . S
O823 Ho800 2.524 . S
O823 C803 1.289 . S
O824 Ho800 2.381 . S
O824 C810 1.275 . S
O825 Ho800 2.669 . S
O825 Ho801 2.305 . S
O825 C810 1.256 . S
O826 Ho801 2.322 . S
O826 C811 1.259 . S
O827 Ho800 2.346 . S
O827 C811 1.268 . S
O828 Ho801 2.378 . S
O828 C812 1.215 . S
O829 Ho801 2.524 . S
O829 C812 1.289 . S
O830 Ho801 2.381 . S
O830 C819 1.275 . S
O831 Ho800 2.305 . S
O831 Ho801 2.669 . S
O831 C819 1.256 . S
H832 C805 0.930 . S
H833 C806 0.931 . S
H834 C808 0.934 . S
H835 C809 0.930 . S
H836 C814 0.930 . S
H837 C815 0.931 . S
H838 C817 0.934 . S
H839 C818 0.930 . S
Ho840 C843 2.811 . S
Ho840 O860 2.322 . S
Ho840 O862 2.378 . S
Ho840 O863 2.524 . S
Ho840 O864 2.381 . S
Ho840 O865 2.669 . S
Ho840 O867 2.346 . S
Ho840 O871 2.305 . S
Ho841 C852 2.811 . S
Ho841 O861 2.346 . S
Ho841 O865 2.305 . S
Ho841 O866 2.322 . S
Ho841 O868 2.378 . S
Ho841 O869 2.524 . S
Ho841 O870 2.381 . S
Ho841 O871 2.669 . S
C842 O860 1.259 . S
C842 O861 1.268 . S
C843 Ho840 2.811 . S
C843 C844 1.488 . S
C843 O862 1.215 . S
C843 O863 1.289 . S
C844 C843 1.488 . S
C844 C845 1.348 . S
C844 C849 1.413 . S
C845 C844 1.348 . S
C845 C846 1.442 . S
C845 H872 0.930 . S
C846 C845 1.442 . S
C846 C847 1.381 . S
C846 H873 0.931 . S
C847 C846 1.381 . S
C847 C848 1.321 . S
C848 C847 1.321 . S
C848 C849 1.403 . S
C848 H874 0.934 . S
C849 C844 1.413 . S
C849 C848 1.403 . S
C849 H875 0.930 . S
C850 O864 1.275 . S
C850 O865 1.256 . S
C851 O866 1.259 . S
C851 O867 1.268 . S
C852 Ho841 2.811 . S
C852 C853 1.488 1_455 S
C852 O868 1.215 . S
C852 O869 1.289 . S
C853 C852 1.488 1_655 S
C853 C854 1.348 . S
C853 C858 1.413 . S
C854 C853 1.348 . S
C854 C855 1.442 . S
C854 H876 0.930 . S
C855 C854 1.442 . S
C855 C856 1.381 . S
C855 H877 0.931 . S
C856 C855 1.381 . S
C856 C857 1.321 . S
C857 C856 1.321 . S
C857 C858 1.403 . S
C857 H878 0.934 . S
C858 C853 1.413 . S
C858 C857 1.403 . S
C858 H879 0.930 . S
C859 O870 1.275 . S
C859 O871 1.256 . S
O860 Ho840 2.322 . S
O860 C842 1.259 . S
O861 Ho841 2.346 . S
O861 C842 1.268 . S
O862 Ho840 2.378 . S
O862 C843 1.215 . S
O863 Ho840 2.524 . S
O863 C843 1.289 . S
O864 Ho840 2.381 . S
O864 C850 1.275 . S
O865 Ho840 2.669 . S
O865 Ho841 2.305 . S
O865 C850 1.256 . S
O866 Ho841 2.322 . S
O866 C851 1.259 . S
O867 Ho840 2.346 . S
O867 C851 1.268 . S
O868 Ho841 2.378 . S
O868 C852 1.215 . S
O869 Ho841 2.524 . S
O869 C852 1.289 . S
O870 Ho841 2.381 . S
O870 C859 1.275 . S
O871 Ho840 2.305 . S
O871 Ho841 2.669 . S
O871 C859 1.256 . S
H872 C845 0.930 . S
H873 C846 0.931 . S
H874 C848 0.934 . S
H875 C849 0.930 . S
H876 C854 0.930 . S
H877 C855 0.931 . S
H878 C857 0.934 . S
H879 C858 0.930 . S
Ho880 C883 2.811 . S
Ho880 O900 2.322 . S
Ho880 O902 2.378 . S
Ho880 O903 2.524 . S
Ho880 O904 2.381 . S
Ho880 O905 2.669 . S
Ho880 O907 2.346 . S
Ho880 O911 2.305 . S
Ho881 C892 2.811 . S
Ho881 O901 2.346 . S
Ho881 O905 2.305 . S
Ho881 O906 2.322 . S
Ho881 O908 2.378 . S
Ho881 O909 2.524 . S
Ho881 O910 2.381 . S
Ho881 O911 2.669 . S
C882 O900 1.259 . S
C882 O901 1.268 . S
C883 Ho880 2.811 . S
C883 C884 1.488 . S
C883 O902 1.215 . S
C883 O903 1.289 . S
C884 C883 1.488 . S
C884 C885 1.348 . S
C884 C889 1.413 . S
C885 C884 1.348 . S
C885 C886 1.442 . S
C885 H912 0.930 . S
C886 C885 1.442 . S
C886 C887 1.381 . S
C886 H913 0.931 . S
C887 C886 1.381 . S
C887 C888 1.321 . S
C888 C887 1.321 . S
C888 C889 1.403 . S
C888 H914 0.934 . S
C889 C884 1.413 . S
C889 C888 1.403 . S
C889 H915 0.930 . S
C890 O904 1.275 . S
C890 O905 1.256 . S
C891 O906 1.259 . S
C891 O907 1.268 . S
C892 Ho881 2.811 . S
C892 C893 1.488 . S
C892 O908 1.215 . S
C892 O909 1.289 . S
C893 C892 1.488 . S
C893 C894 1.348 . S
C893 C898 1.413 . S
C894 C893 1.348 . S
C894 C895 1.442 . S
C894 H916 0.930 . S
C895 C894 1.442 . S
C895 C896 1.381 . S
C895 H917 0.931 . S
C896 C895 1.381 . S
C896 C897 1.321 . S
C897 C896 1.321 . S
C897 C898 1.403 . S
C897 H918 0.934 . S
C898 C893 1.413 . S
C898 C897 1.403 . S
C898 H919 0.930 . S
C899 O910 1.275 . S
C899 O911 1.256 . S
O900 Ho880 2.322 . S
O900 C882 1.259 . S
O901 Ho881 2.346 . S
O901 C882 1.268 . S
O902 Ho880 2.378 . S
O902 C883 1.215 . S
O903 Ho880 2.524 . S
O903 C883 1.289 . S
O904 Ho880 2.381 . S
O904 C890 1.275 . S
O905 Ho880 2.669 . S
O905 Ho881 2.305 . S
O905 C890 1.256 . S
O906 Ho881 2.322 . S
O906 C891 1.259 . S
O907 Ho880 2.346 . S
O907 C891 1.268 . S
O908 Ho881 2.378 . S
O908 C892 1.215 . S
O909 Ho881 2.524 . S
O909 C892 1.289 . S
O910 Ho881 2.381 . S
O910 C899 1.275 . S
O911 Ho880 2.305 . S
O911 Ho881 2.669 . S
O911 C899 1.256 . S
H912 C885 0.930 . S
H913 C886 0.931 . S
H914 C888 0.934 . S
H915 C889 0.930 . S
H916 C894 0.930 . S
H917 C895 0.931 . S
H918 C897 0.934 . S
H919 C898 0.930 . S
Ho920 C923 2.811 . S
Ho920 O940 2.322 . S
Ho920 O942 2.378 . S
Ho920 O943 2.524 . S
Ho920 O944 2.381 . S
Ho920 O945 2.669 . S
Ho920 O947 2.346 . S
Ho920 O951 2.305 . S
Ho921 C932 2.811 . S
Ho921 O941 2.346 . S
Ho921 O945 2.305 . S
Ho921 O946 2.322 . S
Ho921 O948 2.378 . S
Ho921 O949 2.524 . S
Ho921 O950 2.381 . S
Ho921 O951 2.669 . S
C922 O940 1.259 . S
C922 O941 1.268 . S
C923 Ho920 2.811 . S
C923 C924 1.488 . S
C923 O942 1.215 . S
C923 O943 1.289 . S
C924 C923 1.488 . S
C924 C925 1.348 . S
C924 C929 1.413 . S
C925 C924 1.348 . S
C925 C926 1.442 . S
C925 H952 0.930 . S
C926 C925 1.442 . S
C926 C927 1.381 . S
C926 H953 0.931 . S
C927 C926 1.381 . S
C927 C928 1.321 . S
C928 C927 1.321 . S
C928 C929 1.403 . S
C928 H954 0.934 . S
C929 C924 1.413 . S
C929 C928 1.403 . S
C929 H955 0.930 . S
C930 O944 1.275 . S
C930 O945 1.256 . S
C931 O946 1.259 . S
C931 O947 1.268 . S
C932 Ho921 2.811 . S
C932 C933 1.488 1_455 S
C932 O948 1.215 . S
C932 O949 1.289 . S
C933 C932 1.488 1_655 S
C933 C934 1.348 . S
C933 C938 1.413 . S
C934 C933 1.348 . S
C934 C935 1.442 . S
C934 H956 0.930 . S
C935 C934 1.442 . S
C935 C936 1.381 . S
C935 H957 0.931 . S
C936 C935 1.381 . S
C936 C937 1.321 . S
C937 C936 1.321 . S
C937 C938 1.403 . S
C937 H958 0.934 . S
C938 C933 1.413 . S
C938 C937 1.403 . S
C938 H959 0.930 . S
C939 O950 1.275 . S
C939 O951 1.256 . S
O940 Ho920 2.322 . S
O940 C922 1.259 . S
O941 Ho921 2.346 . S
O941 C922 1.268 . S
O942 Ho920 2.378 . S
O942 C923 1.215 . S
O943 Ho920 2.524 . S
O943 C923 1.289 . S
O944 Ho920 2.381 . S
O944 C930 1.275 . S
O945 Ho920 2.669 . S
O945 Ho921 2.305 . S
O945 C930 1.256 . S
O946 Ho921 2.322 . S
O946 C931 1.259 . S
O947 Ho920 2.346 . S
O947 C931 1.268 . S
O948 Ho921 2.378 . S
O948 C932 1.215 . S
O949 Ho921 2.524 . S
O949 C932 1.289 . S
O950 Ho921 2.381 . S
O950 C939 1.275 . S
O951 Ho920 2.305 . S
O951 Ho921 2.669 . S
O951 C939 1.256 . S
H952 C925 0.930 . S
H953 C926 0.931 . S
H954 C928 0.934 . S
H955 C929 0.930 . S
H956 C934 0.930 . S
H957 C935 0.931 . S
H958 C937 0.934 . S
H959 C938 0.930 . S
Ho960 C963 2.811 . S
Ho960 O980 2.322 1_545 S
Ho960 O982 2.378 . S
Ho960 O983 2.524 . S
Ho960 O984 2.381 . S
Ho960 O985 2.669 1_545 S
Ho960 O987 2.346 . S
Ho960 O991 2.305 1_545 S
Ho961 C972 2.811 . S
Ho961 O981 2.346 . S
Ho961 O985 2.305 . S
Ho961 O986 2.322 1_565 S
Ho961 O988 2.378 . S
Ho961 O989 2.524 . S
Ho961 O990 2.381 . S
Ho961 O991 2.669 . S
C962 O980 1.259 . S
C962 O981 1.268 . S
C963 Ho960 2.811 . S
C963 C964 1.488 . S
C963 O982 1.215 . S
C963 O983 1.289 . S
C964 C963 1.488 . S
C964 C965 1.348 1_545 S
C964 C969 1.413 . S
C965 C964 1.348 1_565 S
C965 C966 1.442 . S
C965 H992 0.930 . S
C966 C965 1.442 . S
C966 C967 1.381 . S
C966 H993 0.931 . S
C967 C966 1.381 . S
C967 C968 1.321 1_565 S
C968 C967 1.321 1_545 S
C968 C969 1.403 . S
C968 H994 0.934 . S
C969 C964 1.413 . S
C969 C968 1.403 . S
C969 H995 0.930 . S
C970 O984 1.275 1_565 S
C970 O985 1.256 . S
C971 O986 1.259 . S
C971 O987 1.268 . S
C972 Ho961 2.811 . S
C972 C973 1.488 . S
C972 O988 1.215 . S
C972 O989 1.289 . S
C973 C972 1.488 . S
C973 C974 1.348 . S
C973 C978 1.413 . S
C974 C973 1.348 . S
C974 C975 1.442 . S
C974 H996 0.930 . S
C975 C974 1.442 . S
C975 C976 1.381 . S
C975 H997 0.931 . S
C976 C975 1.381 . S
C976 C977 1.321 . S
C977 C976 1.321 . S
C977 C978 1.403 . S
C977 H998 0.934 . S
C978 C973 1.413 . S
C978 C977 1.403 . S
C978 H999 0.930 . S
C979 O990 1.275 . S
C979 O991 1.256 . S
O980 Ho960 2.322 1_565 S
O980 C962 1.259 . S
O981 Ho961 2.346 . S
O981 C962 1.268 . S
O982 Ho960 2.378 . S
O982 C963 1.215 . S
O983 Ho960 2.524 . S
O983 C963 1.289 . S
O984 Ho960 2.381 . S
O984 C970 1.275 1_545 S
O985 Ho960 2.669 1_565 S
O985 Ho961 2.305 . S
O985 C970 1.256 . S
O986 Ho961 2.322 1_545 S
O986 C971 1.259 . S
O987 Ho960 2.346 . S
O987 C971 1.268 . S
O988 Ho961 2.378 . S
O988 C972 1.215 . S
O989 Ho961 2.524 . S
O989 C972 1.289 . S
O990 Ho961 2.381 . S
O990 C979 1.275 . S
O991 Ho960 2.305 1_565 S
O991 Ho961 2.669 . S
O991 C979 1.256 . S
H992 C965 0.930 . S
H993 C966 0.931 . S
H994 C968 0.934 . S
H995 C969 0.930 . S
H996 C974 0.930 . S
H997 C975 0.931 . S
H998 C977 0.934 . S
H999 C978 0.930 . S
Ho1000 C1003 2.811 . S
Ho1000 O1020 2.322 . S
Ho1000 O1022 2.378 . S
Ho1000 O1023 2.524 . S
Ho1000 O1024 2.381 . S
Ho1000 O1025 2.669 . S
Ho1000 O1027 2.346 . S
Ho1000 O1031 2.305 . S
Ho1001 C1012 2.811 . S
Ho1001 O1021 2.346 . S
Ho1001 O1025 2.305 . S
Ho1001 O1026 2.322 . S
Ho1001 O1028 2.378 . S
Ho1001 O1029 2.524 . S
Ho1001 O1030 2.381 . S
Ho1001 O1031 2.669 . S
C1002 O1020 1.259 . S
C1002 O1021 1.268 . S
C1003 Ho1000 2.811 . S
C1003 C1004 1.488 1_655 S
C1003 O1022 1.215 . S
C1003 O1023 1.289 . S
C1004 C1003 1.488 1_455 S
C1004 C1005 1.348 . S
C1004 C1009 1.413 . S
C1005 C1004 1.348 . S
C1005 C1006 1.442 . S
C1005 H1032 0.930 . S
C1006 C1005 1.442 . S
C1006 C1007 1.381 . S
C1006 H1033 0.931 . S
C1007 C1006 1.381 . S
C1007 C1008 1.321 . S
C1008 C1007 1.321 . S
C1008 C1009 1.403 . S
C1008 H1034 0.934 . S
C1009 C1004 1.413 . S
C1009 C1008 1.403 . S
C1009 H1035 0.930 . S
C1010 O1024 1.275 . S
C1010 O1025 1.256 . S
C1011 O1026 1.259 . S
C1011 O1027 1.268 . S
C1012 Ho1001 2.811 . S
C1012 C1013 1.488 . S
C1012 O1028 1.215 . S
C1012 O1029 1.289 . S
C1013 C1012 1.488 . S
C1013 C1014 1.348 . S
C1013 C1018 1.413 . S
C1014 C1013 1.348 . S
C1014 C1015 1.442 . S
C1014 H1036 0.930 . S
C1015 C1014 1.442 . S
C1015 C1016 1.381 . S
C1015 H1037 0.931 . S
C1016 C1015 1.381 . S
C1016 C1017 1.321 . S
C1017 C1016 1.321 . S
C1017 C1018 1.403 . S
C1017 H1038 0.934 . S
C1018 C1013 1.413 . S
C1018 C1017 1.403 . S
C1018 H1039 0.930 . S
C1019 O1030 1.275 . S
C1019 O1031 1.256 . S
O1020 Ho1000 2.322 . S
O1020 C1002 1.259 . S
O1021 Ho1001 2.346 . S
O1021 C1002 1.268 . S
O1022 Ho1000 2.378 . S
O1022 C1003 1.215 . S
O1023 Ho1000 2.524 . S
O1023 C1003 1.289 . S
O1024 Ho1000 2.381 . S
O1024 C1010 1.275 . S
O1025 Ho1000 2.669 . S
O1025 Ho1001 2.305 . S
O1025 C1010 1.256 . S
O1026 Ho1001 2.322 . S
O1026 C1011 1.259 . S
O1027 Ho1000 2.346 . S
O1027 C1011 1.268 . S
O1028 Ho1001 2.378 . S
O1028 C1012 1.215 . S
O1029 Ho1001 2.524 . S
O1029 C1012 1.289 . S
O1030 Ho1001 2.381 . S
O1030 C1019 1.275 . S
O1031 Ho1000 2.305 . S
O1031 Ho1001 2.669 . S
O1031 C1019 1.256 . S
H1032 C1005 0.930 . S
H1033 C1006 0.931 . S
H1034 C1008 0.934 . S
H1035 C1009 0.930 . S
H1036 C1014 0.930 . S
H1037 C1015 0.931 . S
H1038 C1017 0.934 . S
H1039 C1018 0.930 . S
Ho1040 C1043 2.811 . S
Ho1040 O1060 2.322 . S
Ho1040 O1062 2.378 . S
Ho1040 O1063 2.524 . S
Ho1040 O1064 2.381 . S
Ho1040 O1065 2.669 . S
Ho1040 O1067 2.346 . S
Ho1040 O1071 2.305 . S
Ho1041 C1052 2.811 . S
Ho1041 O1061 2.346 . S
Ho1041 O1065 2.305 . S
Ho1041 O1066 2.322 . S
Ho1041 O1068 2.378 . S
Ho1041 O1069 2.524 . S
Ho1041 O1070 2.381 . S
Ho1041 O1071 2.669 . S
C1042 O1060 1.259 . S
C1042 O1061 1.268 . S
C1043 Ho1040 2.811 . S
C1043 C1044 1.488 . S
C1043 O1062 1.215 . S
C1043 O1063 1.289 . S
C1044 C1043 1.488 . S
C1044 C1045 1.348 . S
C1044 C1049 1.413 . S
C1045 C1044 1.348 . S
C1045 C1046 1.442 . S
C1045 H1072 0.930 . S
C1046 C1045 1.442 . S
C1046 C1047 1.381 . S
C1046 H1073 0.931 . S
C1047 C1046 1.381 . S
C1047 C1048 1.321 . S
C1048 C1047 1.321 . S
C1048 C1049 1.403 . S
C1048 H1074 0.934 . S
C1049 C1044 1.413 . S
C1049 C1048 1.403 . S
C1049 H1075 0.930 . S
C1050 O1064 1.275 . S
C1050 O1065 1.256 . S
C1051 O1066 1.259 . S
C1051 O1067 1.268 . S
C1052 Ho1041 2.811 . S
C1052 C1053 1.488 . S
C1052 O1068 1.215 . S
C1052 O1069 1.289 . S
C1053 C1052 1.488 . S
C1053 C1054 1.348 . S
C1053 C1058 1.413 . S
C1054 C1053 1.348 . S
C1054 C1055 1.442 . S
C1054 H1076 0.930 . S
C1055 C1054 1.442 . S
C1055 C1056 1.381 . S
C1055 H1077 0.931 . S
C1056 C1055 1.381 . S
C1056 C1057 1.321 . S
C1057 C1056 1.321 . S
C1057 C1058 1.403 . S
C1057 H1078 0.934 . S
C1058 C1053 1.413 . S
C1058 C1057 1.403 . S
C1058 H1079 0.930 . S
C1059 O1070 1.275 . S
C1059 O1071 1.256 . S
O1060 Ho1040 2.322 . S
O1060 C1042 1.259 . S
O1061 Ho1041 2.346 . S
O1061 C1042 1.268 . S
O1062 Ho1040 2.378 . S
O1062 C1043 1.215 . S
O1063 Ho1040 2.524 . S
O1063 C1043 1.289 . S
O1064 Ho1040 2.381 . S
O1064 C1050 1.275 . S
O1065 Ho1040 2.669 . S
O1065 Ho1041 2.305 . S
O1065 C1050 1.256 . S
O1066 Ho1041 2.322 . S
O1066 C1051 1.259 . S
O1067 Ho1040 2.346 . S
O1067 C1051 1.268 . S
O1068 Ho1041 2.378 . S
O1068 C1052 1.215 . S
O1069 Ho1041 2.524 . S
O1069 C1052 1.289 . S
O1070 Ho1041 2.381 . S
O1070 C1059 1.275 . S
O1071 Ho1040 2.305 . S
O1071 Ho1041 2.669 . S
O1071 C1059 1.256 . S
H1072 C1045 0.930 . S
H1073 C1046 0.931 . S
H1074 C1048 0.934 . S
H1075 C1049 0.930 . S
H1076 C1054 0.930 . S
H1077 C1055 0.931 . S
H1078 C1057 0.934 . S
H1079 C1058 0.930 . S
Ho1080 C1083 2.811 . S
Ho1080 O1100 2.322 1_545 S
Ho1080 O1102 2.378 . S
Ho1080 O1103 2.524 . S
Ho1080 O1104 2.381 . S
Ho1080 O1105 2.669 1_545 S
Ho1080 O1107 2.346 . S
Ho1080 O1111 2.305 1_545 S
Ho1081 C1092 2.811 . S
Ho1081 O1101 2.346 . S
Ho1081 O1105 2.305 . S
Ho1081 O1106 2.322 1_565 S
Ho1081 O1108 2.378 . S
Ho1081 O1109 2.524 . S
Ho1081 O1110 2.381 . S
Ho1081 O1111 2.669 . S
C1082 O1100 1.259 . S
C1082 O1101 1.268 . S
C1083 Ho1080 2.811 . S
C1083 C1084 1.488 1_655 S
C1083 O1102 1.215 . S
C1083 O1103 1.289 . S
C1084 C1083 1.488 1_455 S
C1084 C1085 1.348 1_545 S
C1084 C1089 1.413 . S
C1085 C1084 1.348 1_565 S
C1085 C1086 1.442 . S
C1085 H1112 0.930 . S
C1086 C1085 1.442 . S
C1086 C1087 1.381 . S
C1086 H1113 0.931 . S
C1087 C1086 1.381 . S
C1087 C1088 1.321 1_565 S
C1088 C1087 1.321 1_545 S
C1088 C1089 1.403 . S
C1088 H1114 0.934 . S
C1089 C1084 1.413 . S
C1089 C1088 1.403 . S
C1089 H1115 0.930 . S
C1090 O1104 1.275 1_565 S
C1090 O1105 1.256 . S
C1091 O1106 1.259 . S
C1091 O1107 1.268 . S
C1092 Ho1081 2.811 . S
C1092 C1093 1.488 . S
C1092 O1108 1.215 . S
C1092 O1109 1.289 . S
C1093 C1092 1.488 . S
C1093 C1094 1.348 . S
C1093 C1098 1.413 . S
C1094 C1093 1.348 . S
C1094 C1095 1.442 . S
C1094 H1116 0.930 . S
C1095 C1094 1.442 . S
C1095 C1096 1.381 . S
C1095 H1117 0.931 . S
C1096 C1095 1.381 . S
C1096 C1097 1.321 . S
C1097 C1096 1.321 . S
C1097 C1098 1.403 . S
C1097 H1118 0.934 . S
C1098 C1093 1.413 . S
C1098 C1097 1.403 . S
C1098 H1119 0.930 . S
C1099 O1110 1.275 . S
C1099 O1111 1.256 . S
O1100 Ho1080 2.322 1_565 S
O1100 C1082 1.259 . S
O1101 Ho1081 2.346 . S
O1101 C1082 1.268 . S
O1102 Ho1080 2.378 . S
O1102 C1083 1.215 . S
O1103 Ho1080 2.524 . S
O1103 C1083 1.289 . S
O1104 Ho1080 2.381 . S
O1104 C1090 1.275 1_545 S
O1105 Ho1080 2.669 1_565 S
O1105 Ho1081 2.305 . S
O1105 C1090 1.256 . S
O1106 Ho1081 2.322 1_545 S
O1106 C1091 1.259 . S
O1107 Ho1080 2.346 . S
O1107 C1091 1.268 . S
O1108 Ho1081 2.378 . S
O1108 C1092 1.215 . S
O1109 Ho1081 2.524 . S
O1109 C1092 1.289 . S
O1110 Ho1081 2.381 . S
O1110 C1099 1.275 . S
O1111 Ho1080 2.305 1_565 S
O1111 Ho1081 2.669 . S
O1111 C1099 1.256 . S
H1112 C1085 0.930 . S
H1113 C1086 0.931 . S
H1114 C1088 0.934 . S
H1115 C1089 0.930 . S
H1116 C1094 0.930 . S
H1117 C1095 0.931 . S
H1118 C1097 0.934 . S
H1119 C1098 0.930 . S
Ho1120 C1123 2.811 . S
Ho1120 O1140 2.322 1_545 S
Ho1120 O1142 2.378 . S
Ho1120 O1143 2.524 . S
Ho1120 O1144 2.381 . S
Ho1120 O1145 2.669 . S
Ho1120 O1147 2.346 . S
Ho1120 O1151 2.305 . S
Ho1121 C1132 2.811 . S
Ho1121 O1141 2.346 . S
Ho1121 O1145 2.305 1_565 S
Ho1121 O1146 2.322 1_565 S
Ho1121 O1148 2.378 . S
Ho1121 O1149 2.524 . S
Ho1121 O1150 2.381 . S
Ho1121 O1151 2.669 1_565 S
C1122 O1140 1.259 . S
C1122 O1141 1.268 . S
C1123 Ho1120 2.811 . S
C1123 C1124 1.488 . S
C1123 O1142 1.215 . S
C1123 O1143 1.289 . S
C1124 C1123 1.488 . S
C1124 C1125 1.348 . S
C1124 C1129 1.413 . S
C1125 C1124 1.348 . S
C1125 C1126 1.442 . S
C1125 H1152 0.930 . S
C1126 C1125 1.442 . S
C1126 C1127 1.381 . S
C1126 H1153 0.931 . S
C1127 C1126 1.381 . S
C1127 C1128 1.321 . S
C1128 C1127 1.321 . S
C1128 C1129 1.403 . S
C1128 H1154 0.934 . S
C1129 C1124 1.413 . S
C1129 C1128 1.403 . S
C1129 H1155 0.930 . S
C1130 O1144 1.275 . S
C1130 O1145 1.256 . S
C1131 O1146 1.259 . S
C1131 O1147 1.268 . S
C1132 Ho1121 2.811 . S
C1132 C1133 1.488 . S
C1132 O1148 1.215 . S
C1132 O1149 1.289 . S
C1133 C1132 1.488 . S
C1133 C1134 1.348 1_565 S
C1133 C1138 1.413 . S
C1134 C1133 1.348 1_545 S
C1134 C1135 1.442 . S
C1134 H1156 0.930 . S
C1135 C1134 1.442 . S
C1135 C1136 1.381 . S
C1135 H1157 0.931 . S
C1136 C1135 1.381 . S
C1136 C1137 1.321 1_545 S
C1137 C1136 1.321 1_565 S
C1137 C1138 1.403 . S
C1137 H1158 0.934 . S
C1138 C1133 1.413 . S
C1138 C1137 1.403 . S
C1138 H1159 0.930 . S
C1139 O1150 1.275 1_545 S
C1139 O1151 1.256 . S
O1140 Ho1120 2.322 1_565 S
O1140 C1122 1.259 . S
O1141 Ho1121 2.346 . S
O1141 C1122 1.268 . S
O1142 Ho1120 2.378 . S
O1142 C1123 1.215 . S
O1143 Ho1120 2.524 . S
O1143 C1123 1.289 . S
O1144 Ho1120 2.381 . S
O1144 C1130 1.275 . S
O1145 Ho1120 2.669 . S
O1145 Ho1121 2.305 1_545 S
O1145 C1130 1.256 . S
O1146 Ho1121 2.322 1_545 S
O1146 C1131 1.259 . S
O1147 Ho1120 2.346 . S
O1147 C1131 1.268 . S
O1148 Ho1121 2.378 . S
O1148 C1132 1.215 . S
O1149 Ho1121 2.524 . S
O1149 C1132 1.289 . S
O1150 Ho1121 2.381 . S
O1150 C1139 1.275 1_565 S
O1151 Ho1120 2.305 . S
O1151 Ho1121 2.669 1_545 S
O1151 C1139 1.256 . S
H1152 C1125 0.930 . S
H1153 C1126 0.931 . S
H1154 C1128 0.934 . S
H1155 C1129 0.930 . S
H1156 C1134 0.930 . S
H1157 C1135 0.931 . S
H1158 C1137 0.934 . S
H1159 C1138 0.930 . S
Ho1160 C1163 2.811 . S
Ho1160 O1180 2.322 . S
Ho1160 O1182 2.378 . S
Ho1160 O1183 2.524 . S
Ho1160 O1184 2.381 . S
Ho1160 O1185 2.669 . S
Ho1160 O1187 2.346 . S
Ho1160 O1191 2.305 . S
Ho1161 C1172 2.811 . S
Ho1161 O1181 2.346 . S
Ho1161 O1185 2.305 . S
Ho1161 O1186 2.322 . S
Ho1161 O1188 2.378 . S
Ho1161 O1189 2.524 . S
Ho1161 O1190 2.381 . S
Ho1161 O1191 2.669 . S
C1162 O1180 1.259 . S
C1162 O1181 1.268 . S
C1163 Ho1160 2.811 . S
C1163 C1164 1.488 . S
C1163 O1182 1.215 . S
C1163 O1183 1.289 . S
C1164 C1163 1.488 . S
C1164 C1165 1.348 . S
C1164 C1169 1.413 . S
C1165 C1164 1.348 . S
C1165 C1166 1.442 . S
C1165 H1192 0.930 . S
C1166 C1165 1.442 . S
C1166 C1167 1.381 . S
C1166 H1193 0.931 . S
C1167 C1166 1.381 . S
C1167 C1168 1.321 . S
C1168 C1167 1.321 . S
C1168 C1169 1.403 . S
C1168 H1194 0.934 . S
C1169 C1164 1.413 . S
C1169 C1168 1.403 . S
C1169 H1195 0.930 . S
C1170 O1184 1.275 . S
C1170 O1185 1.256 . S
C1171 O1186 1.259 . S
C1171 O1187 1.268 . S
C1172 Ho1161 2.811 . S
C1172 C1173 1.488 1_455 S
C1172 O1188 1.215 . S
C1172 O1189 1.289 . S
C1173 C1172 1.488 1_655 S
C1173 C1174 1.348 . S
C1173 C1178 1.413 . S
C1174 C1173 1.348 . S
C1174 C1175 1.442 . S
C1174 H1196 0.930 . S
C1175 C1174 1.442 . S
C1175 C1176 1.381 . S
C1175 H1197 0.931 . S
C1176 C1175 1.381 . S
C1176 C1177 1.321 . S
C1177 C1176 1.321 . S
C1177 C1178 1.403 . S
C1177 H1198 0.934 . S
C1178 C1173 1.413 . S
C1178 C1177 1.403 . S
C1178 H1199 0.930 . S
C1179 O1190 1.275 . S
C1179 O1191 1.256 . S
O1180 Ho1160 2.322 . S
O1180 C1162 1.259 . S
O1181 Ho1161 2.346 . S
O1181 C1162 1.268 . S
O1182 Ho1160 2.378 . S
O1182 C1163 1.215 . S
O1183 Ho1160 2.524 . S
O1183 C1163 1.289 . S
O1184 Ho1160 2.381 . S
O1184 C1170 1.275 . S
O1185 Ho1160 2.669 . S
O1185 Ho1161 2.305 . S
O1185 C1170 1.256 . S
O1186 Ho1161 2.322 . S
O1186 C1171 1.259 . S
O1187 Ho1160 2.346 . S
O1187 C1171 1.268 . S
O1188 Ho1161 2.378 . S
O1188 C1172 1.215 . S
O1189 Ho1161 2.524 . S
O1189 C1172 1.289 . S
O1190 Ho1161 2.381 . S
O1190 C1179 1.275 . S
O1191 Ho1160 2.305 . S
O1191 Ho1161 2.669 . S
O1191 C1179 1.256 . S
H1192 C1165 0.930 . S
H1193 C1166 0.931 . S
H1194 C1168 0.934 . S
H1195 C1169 0.930 . S
H1196 C1174 0.930 . S
H1197 C1175 0.931 . S
H1198 C1177 0.934 . S
H1199 C1178 0.930 . S
Ho1200 C1203 2.811 . S
Ho1200 O1220 2.322 . S
Ho1200 O1222 2.378 . S
Ho1200 O1223 2.524 . S
Ho1200 O1224 2.381 . S
Ho1200 O1225 2.669 . S
Ho1200 O1227 2.346 . S
Ho1200 O1231 2.305 . S
Ho1201 C1212 2.811 . S
Ho1201 O1221 2.346 . S
Ho1201 O1225 2.305 . S
Ho1201 O1226 2.322 . S
Ho1201 O1228 2.378 . S
Ho1201 O1229 2.524 . S
Ho1201 O1230 2.381 . S
Ho1201 O1231 2.669 . S
C1202 O1220 1.259 . S
C1202 O1221 1.268 . S
C1203 Ho1200 2.811 . S
C1203 C1204 1.488 . S
C1203 O1222 1.215 . S
C1203 O1223 1.289 . S
C1204 C1203 1.488 . S
C1204 C1205 1.348 . S
C1204 C1209 1.413 . S
C1205 C1204 1.348 . S
C1205 C1206 1.442 . S
C1205 H1232 0.930 . S
C1206 C1205 1.442 . S
C1206 C1207 1.381 . S
C1206 H1233 0.931 . S
C1207 C1206 1.381 . S
C1207 C1208 1.321 . S
C1208 C1207 1.321 . S
C1208 C1209 1.403 . S
C1208 H1234 0.934 . S
C1209 C1204 1.413 . S
C1209 C1208 1.403 . S
C1209 H1235 0.930 . S
C1210 O1224 1.275 . S
C1210 O1225 1.256 . S
C1211 O1226 1.259 . S
C1211 O1227 1.268 . S
C1212 Ho1201 2.811 . S
C1212 C1213 1.488 . S
C1212 O1228 1.215 . S
C1212 O1229 1.289 . S
C1213 C1212 1.488 . S
C1213 C1214 1.348 . S
C1213 C1218 1.413 . S
C1214 C1213 1.348 . S
C1214 C1215 1.442 . S
C1214 H1236 0.930 . S
C1215 C1214 1.442 . S
C1215 C1216 1.381 . S
C1215 H1237 0.931 . S
C1216 C1215 1.381 . S
C1216 C1217 1.321 . S
C1217 C1216 1.321 . S
C1217 C1218 1.403 . S
C1217 H1238 0.934 . S
C1218 C1213 1.413 . S
C1218 C1217 1.403 . S
C1218 H1239 0.930 . S
C1219 O1230 1.275 . S
C1219 O1231 1.256 . S
O1220 Ho1200 2.322 . S
O1220 C1202 1.259 . S
O1221 Ho1201 2.346 . S
O1221 C1202 1.268 . S
O1222 Ho1200 2.378 . S
O1222 C1203 1.215 . S
O1223 Ho1200 2.524 . S
O1223 C1203 1.289 . S
O1224 Ho1200 2.381 . S
O1224 C1210 1.275 . S
O1225 Ho1200 2.669 . S
O1225 Ho1201 2.305 . S
O1225 C1210 1.256 . S
O1226 Ho1201 2.322 . S
O1226 C1211 1.259 . S
O1227 Ho1200 2.346 . S
O1227 C1211 1.268 . S
O1228 Ho1201 2.378 . S
O1228 C1212 1.215 . S
O1229 Ho1201 2.524 . S
O1229 C1212 1.289 . S
O1230 Ho1201 2.381 . S
O1230 C1219 1.275 . S
O1231 Ho1200 2.305 . S
O1231 Ho1201 2.669 . S
O1231 C1219 1.256 . S
H1232 C1205 0.930 . S
H1233 C1206 0.931 . S
H1234 C1208 0.934 . S
H1235 C1209 0.930 . S
H1236 C1214 0.930 . S
H1237 C1215 0.931 . S
H1238 C1217 0.934 . S
H1239 C1218 0.930 . S
Ho1240 C1243 2.811 . S
Ho1240 O1260 2.322 1_545 S
Ho1240 O1262 2.378 . S
Ho1240 O1263 2.524 . S
Ho1240 O1264 2.381 . S
Ho1240 O1265 2.669 . S
Ho1240 O1267 2.346 . S
Ho1240 O1271 2.305 . S
Ho1241 C1252 2.811 . S
Ho1241 O1261 2.346 . S
Ho1241 O1265 2.305 1_565 S
Ho1241 O1266 2.322 1_565 S
Ho1241 O1268 2.378 . S
Ho1241 O1269 2.524 . S
Ho1241 O1270 2.381 . S
Ho1241 O1271 2.669 1_565 S
C1242 O1260 1.259 . S
C1242 O1261 1.268 . S
C1243 Ho1240 2.811 . S
C1243 C1244 1.488 . S
C1243 O1262 1.215 . S
C1243 O1263 1.289 . S
C1244 C1243 1.488 . S
C1244 C1245 1.348 . S
C1244 C1249 1.413 . S
C1245 C1244 1.348 . S
C1245 C1246 1.442 . S
C1245 H1272 0.930 . S
C1246 C1245 1.442 . S
C1246 C1247 1.381 . S
C1246 H1273 0.931 . S
C1247 C1246 1.381 . S
C1247 C1248 1.321 . S
C1248 C1247 1.321 . S
C1248 C1249 1.403 . S
C1248 H1274 0.934 . S
C1249 C1244 1.413 . S
C1249 C1248 1.403 . S
C1249 H1275 0.930 . S
C1250 O1264 1.275 . S
C1250 O1265 1.256 . S
C1251 O1266 1.259 . S
C1251 O1267 1.268 . S
C1252 Ho1241 2.811 . S
C1252 C1253 1.488 1_455 S
C1252 O1268 1.215 . S
C1252 O1269 1.289 . S
C1253 C1252 1.488 1_655 S
C1253 C1254 1.348 1_565 S
C1253 C1258 1.413 . S
C1254 C1253 1.348 1_545 S
C1254 C1255 1.442 . S
C1254 H1276 0.930 . S
C1255 C1254 1.442 . S
C1255 C1256 1.381 . S
C1255 H1277 0.931 . S
C1256 C1255 1.381 . S
C1256 C1257 1.321 1_545 S
C1257 C1256 1.321 1_565 S
C1257 C1258 1.403 . S
C1257 H1278 0.934 . S
C1258 C1253 1.413 . S
C1258 C1257 1.403 . S
C1258 H1279 0.930 . S
C1259 O1270 1.275 1_545 S
C1259 O1271 1.256 . S
O1260 Ho1240 2.322 1_565 S
O1260 C1242 1.259 . S
O1261 Ho1241 2.346 . S
O1261 C1242 1.268 . S
O1262 Ho1240 2.378 . S
O1262 C1243 1.215 . S
O1263 Ho1240 2.524 . S
O1263 C1243 1.289 . S
O1264 Ho1240 2.381 . S
O1264 C1250 1.275 . S
O1265 Ho1240 2.669 . S
O1265 Ho1241 2.305 1_545 S
O1265 C1250 1.256 . S
O1266 Ho1241 2.322 1_545 S
O1266 C1251 1.259 . S
O1267 Ho1240 2.346 . S
O1267 C1251 1.268 . S
O1268 Ho1241 2.378 . S
O1268 C1252 1.215 . S
O1269 Ho1241 2.524 . S
O1269 C1252 1.289 . S
O1270 Ho1241 2.381 . S
O1270 C1259 1.275 1_565 S
O1271 Ho1240 2.305 . S
O1271 Ho1241 2.669 1_545 S
O1271 C1259 1.256 . S
H1272 C1245 0.930 . S
H1273 C1246 0.931 . S
H1274 C1248 0.934 . S
H1275 C1249 0.930 . S
H1276 C1254 0.930 . S
H1277 C1255 0.931 . S
H1278 C1257 0.934 . S
H1279 C1258 0.930 . S
C2 C1002 2.543 . S
C962 C42 2.543 . S
C1082 C82 2.543 . S
C122 C1042 2.543 . S
C171 C1171 2.543 . S
C211 C1131 2.543 . S
C251 C1251 2.543 . S
C1211 C291 2.543 . S
C322 C682 2.543 . S
C362 C642 2.543 . S
C402 C762 2.543 . S
C722 C442 2.543 . S
C491 C851 2.543 . S
C531 C811 2.543 . S
C931 C571 2.543 . S
C611 C891 2.543 . S
C10 C130 2.839 . S
C50 C90 2.840 . S
C299 C179 2.839 . S
C259 C219 2.840 . S
C330 C450 2.840 . S
C370 C410 2.839 . S
C499 C619 2.840 . S
C579 C539 2.839 . S
C650 C770 2.839 . S
C690 C730 2.840 . S
C939 C819 2.839 . S
C859 C899 2.840 . S
C1090 C970 2.840 . S
C1010 C1050 2.839 . S
C1259 C1139 2.840 . S
C1219 C1179 2.839 . S
C51 C11 1.586 . S
C91 C131 1.586 . S
C202 C162 1.586 . S
C282 C242 1.586 . S
C331 C371 1.588 . S
C411 C451 1.588 . S
C522 C482 1.588 . S
C562 C602 1.588 . S
C651 C691 1.586 . S
C771 C731 1.586 . S
C802 C842 1.586 . S
C882 C922 1.586 . S
C971 C1011 1.588 . S
C1051 C1091 1.588 . S
C1162 C1122 1.588 . S
C1202 C1242 1.588 . S
C7 C16 2.731 . S
C47 C56 2.729 . S
C87 C96 2.729 . S
C136 C127 2.731 . S
C167 C176 2.731 . S
C216 C207 2.729 . S
C247 C256 2.729 . S
C287 C296 2.731 . S
C336 C327 2.730 . S
C367 C376 2.729 . S
C407 C416 2.729 . S
C456 C447 2.730 . S
C487 C496 2.730 . S
C536 C527 2.729 . S
C576 C567 2.729 . S
C607 C616 2.730 . S
C647 C656 2.731 1_455 S
C696 C687 2.729 . S
C736 C727 2.729 1_655 S
C767 C776 2.731 . S
C816 C807 2.731 1_655 S
C856 C847 2.729 . S
C887 C896 2.729 1_455 S
C936 C927 2.731 . S
C976 C967 2.730 1_655 S
C1007 C1016 2.729 . S
C1056 C1047 2.729 1_655 S
C1096 C1087 2.730 . S
C1136 C1127 2.730 1_655 S
C1176 C1167 2.729 . S
C1207 C1216 2.729 1_455 S
C1247 C1256 2.730 . S
C19 C170 1.610 1_454 S
C1170 C59 1.608 1_556 S
C570 C99 1.608 1_655 S
C139 C930 1.610 . S
C210 C1019 1.608 1_556 S
C250 C419 1.608 1_655 S
C290 C779 1.610 . S
C339 C490 1.609 1_465 S
C850 C379 1.608 . S
C1250 C459 1.609 1_545 S
C530 C699 1.608 . S
C1099 C610 1.609 1_565 S
C659 C810 1.610 . S
C1210 C739 1.608 . S
C890 C1059 1.608 . S
C979 C1130 1.609 1_564 S
