# Generated by pormake.
# Topology ghw, (5)-cn, num edge types: 1
# Building blocks:
#     Node 0, Type 0, BuildingBlock: XOMCOT_clean_sbu_1, # of connection points: 5
#     Node 1, Type 0, BuildingBlock: XOMCOT_clean_sbu_1, # of connection points: 5
#     Node 2, Type 0, BuildingBlock: XOMCOT_clean_sbu_1, # of connection points: 5
#     Node 3, Type 0, BuildingBlock: XOMCOT_clean_sbu_1, # of connection points: 5
#     Node 4, Type 0, BuildingBlock: XOMCOT_clean_sbu_1, # of connection points: 5
#     Node 5, Type 0, BuildingBlock: XOMCOT_clean_sbu_1, # of connection points: 5
#     Node 6, Type 0, BuildingBlock: XOMCOT_clean_sbu_1, # of connection points: 5
#     Node 7, Type 0, BuildingBlock: XOMCOT_clean_sbu_1, # of connection points: 5
#     Node 8, Type 0, BuildingBlock: XOMCOT_clean_sbu_1, # of connection points: 5
#     Node 9, Type 0, BuildingBlock: XOMCOT_clean_sbu_1, # of connection points: 5
#     Node 10, Type 0, BuildingBlock: XOMCOT_clean_sbu_1, # of connection points: 5
#     Node 11, Type 0, BuildingBlock: XOMCOT_clean_sbu_1, # of connection points: 5
#     Node 12, Type 0, BuildingBlock: XOMCOT_clean_sbu_1, # of connection points: 5
#     Node 13, Type 0, BuildingBlock: XOMCOT_clean_sbu_1, # of connection points: 5
#     Node 14, Type 0, BuildingBlock: XOMCOT_clean_sbu_1, # of connection points: 5
#     Node 15, Type 0, BuildingBlock: XOMCOT_clean_sbu_1, # of connection points: 5
#     Edge 16, Type (0, 0), BuildingBlock: UVAHIK_clean_linker_0, # of connection points: 2
#     Edge 17, Type (0, 0), BuildingBlock: UVAHIK_clean_linker_0, # of connection points: 2
#     Edge 18, Type (0, 0), BuildingBlock: UVAHIK_clean_linker_0, # of connection points: 2
#     Edge 19, Type (0, 0), BuildingBlock: UVAHIK_clean_linker_0, # of connection points: 2
#     Edge 20, Type (0, 0), BuildingBlock: UVAHIK_clean_linker_0, # of connection points: 2
#     Edge 21, Type (0, 0), BuildingBlock: UVAHIK_clean_linker_0, # of connection points: 2
#     Edge 22, Type (0, 0), BuildingBlock: UVAHIK_clean_linker_0, # of connection points: 2
#     Edge 23, Type (0, 0), BuildingBlock: UVAHIK_clean_linker_0, # of connection points: 2
#     Edge 24, Type (0, 0), BuildingBlock: UVAHIK_clean_linker_0, # of connection points: 2
#     Edge 25, Type (0, 0), BuildingBlock: UVAHIK_clean_linker_0, # of connection points: 2
#     Edge 26, Type (0, 0), BuildingBlock: UVAHIK_clean_linker_0, # of connection points: 2
#     Edge 27, Type (0, 0), BuildingBlock: UVAHIK_clean_linker_0, # of connection points: 2
#     Edge 28, Type (0, 0), BuildingBlock: UVAHIK_clean_linker_0, # of connection points: 2
#     Edge 29, Type (0, 0), BuildingBlock: UVAHIK_clean_linker_0, # of connection points: 2
#     Edge 30, Type (0, 0), BuildingBlock: UVAHIK_clean_linker_0, # of connection points: 2
#     Edge 31, Type (0, 0), BuildingBlock: UVAHIK_clean_linker_0, # of connection points: 2
#     Edge 32, Type (0, 0), BuildingBlock: UVAHIK_clean_linker_0, # of connection points: 2
#     Edge 33, Type (0, 0), BuildingBlock: UVAHIK_clean_linker_0, # of connection points: 2
#     Edge 34, Type (0, 0), BuildingBlock: UVAHIK_clean_linker_0, # of connection points: 2
#     Edge 35, Type (0, 0), BuildingBlock: UVAHIK_clean_linker_0, # of connection points: 2
#     Edge 36, Type (0, 0), BuildingBlock: UVAHIK_clean_linker_0, # of connection points: 2
#     Edge 37, Type (0, 0), BuildingBlock: UVAHIK_clean_linker_0, # of connection points: 2
#     Edge 38, Type (0, 0), BuildingBlock: UVAHIK_clean_linker_0, # of connection points: 2
#     Edge 39, Type (0, 0), BuildingBlock: UVAHIK_clean_linker_0, # of connection points: 2
#     Edge 40, Type (0, 0), BuildingBlock: UVAHIK_clean_linker_0, # of connection points: 2
#     Edge 41, Type (0, 0), BuildingBlock: UVAHIK_clean_linker_0, # of connection points: 2
#     Edge 42, Type (0, 0), BuildingBlock: UVAHIK_clean_linker_0, # of connection points: 2
#     Edge 43, Type (0, 0), BuildingBlock: UVAHIK_clean_linker_0, # of connection points: 2
#     Edge 44, Type (0, 0), BuildingBlock: UVAHIK_clean_linker_0, # of connection points: 2
#     Edge 45, Type (0, 0), BuildingBlock: UVAHIK_clean_linker_0, # of connection points: 2
#     Edge 46, Type (0, 0), BuildingBlock: UVAHIK_clean_linker_0, # of connection points: 2
#     Edge 47, Type (0, 0), BuildingBlock: UVAHIK_clean_linker_0, # of connection points: 2
#     Edge 48, Type (0, 0), BuildingBlock: UVAHIK_clean_linker_0, # of connection points: 2
#     Edge 49, Type (0, 0), BuildingBlock: UVAHIK_clean_linker_0, # of connection points: 2
#     Edge 50, Type (0, 0), BuildingBlock: UVAHIK_clean_linker_0, # of connection points: 2
#     Edge 51, Type (0, 0), BuildingBlock: UVAHIK_clean_linker_0, # of connection points: 2
#     Edge 52, Type (0, 0), BuildingBlock: UVAHIK_clean_linker_0, # of connection points: 2
#     Edge 53, Type (0, 0), BuildingBlock: UVAHIK_clean_linker_0, # of connection points: 2
#     Edge 54, Type (0, 0), BuildingBlock: UVAHIK_clean_linker_0, # of connection points: 2
#     Edge 55, Type (0, 0), BuildingBlock: UVAHIK_clean_linker_0, # of connection points: 2
# Relax obj value: 0.197
# Max RMSD: 0.207
# Mean RMSD: 0.207
data_MOF--net-ghw--node1-XOMCOT_clean_sbu_1--edge1-UVAHIK_clean_linker_0
_symmetry_space_group_name_H-M    P1
_symmetry_Int_Tables_number       1
_symmetry_cell_setting            triclinic
loop_
_symmetry_equiv_pos_as_xyz
'x, y, z'
_cell_length_a     41.492687
_cell_length_b     53.591661
_cell_length_c     43.518663
_cell_angle_alpha  89.906014
_cell_angle_beta   92.530623
_cell_angle_gamma 90.147893
loop_
_atom_site_label
_atom_site_type_symbol
_atom_site_fract_x
_atom_site_fract_y
_atom_site_fract_z
_atom_type_partial_charge
C0 C 0.16264 0.09492 0.37649 0.0
C1 C 0.19428 0.08882 0.37233 0.0
N2 N 0.21306 0.1035 0.39075 0.0
N3 N 0.16144 0.11342 0.39736 0.0
C4 C 0.19258 0.11816 0.40583 0.0
H5 H 0.14184 0.08702 0.36419 0.0
Co6 Co 0.12368 0.12968 0.40676 0.0
C7 C 0.14277 0.17984 0.4293 0.0
O8 O 0.11821 0.18862 0.41254 0.0
N9 N 0.08509 0.14555 0.41671 0.0
C10 C 0.04889 0.16463 0.44485 0.0
C11 C 0.07824 0.15276 0.4455 0.0
C12 C 0.05895 0.15254 0.39921 0.0
N13 N 0.03695 0.16436 0.41568 0.0
O14 O 0.1202 0.10955 0.44332 0.0
H15 H 0.09403 0.15009 0.46568 0.0
H16 H 0.05586 0.14964 0.37479 0.0
O17 O 0.14859 0.1563 0.4292 0.0
C18 C 0.10408 0.09016 0.43497 0.0
O19 O 0.09629 0.08746 0.40557 0.0
N20 N 0.12515 0.14645 0.36875 0.0
C21 C 0.12234 0.16247 0.30745 0.0
C22 C 0.14481 0.17293 0.32892 0.0
C23 C 0.14638 0.16419 0.35941 0.0
C24 C 0.10499 0.135 0.34765 0.0
C25 C 0.10244 0.14313 0.31732 0.0
H26 H 0.16519 0.17124 0.375 0.0
H27 H 0.09028 0.11949 0.35468 0.0
H28 H 0.20026 0.13282 0.42156 0.0
H29 H 0.20283 0.07497 0.35657 0.0
H30 H 0.03715 0.17264 0.46424 0.0
H31 H 0.16163 0.18715 0.32205 0.0
H32 H 0.08478 0.13429 0.30182 0.0
C33 C 0.08835 0.12047 0.89247 0.0
C34 C 0.05727 0.11147 0.89189 0.0
N35 N 0.03721 0.13048 0.88471 0.0
N36 N 0.08779 0.14506 0.88586 0.0
C37 C 0.05621 0.15063 0.8811 0.0
H38 H 0.10978 0.11002 0.89912 0.0
Co39 Co 0.12298 0.16632 0.89076 0.0
C40 C 0.10406 0.21463 0.85992 0.0
O41 O 0.12447 0.22704 0.87808 0.0
N42 N 0.15918 0.18737 0.89626 0.0
C43 C 0.19797 0.21202 0.91608 0.0
C44 C 0.17076 0.19865 0.92227 0.0
C45 C 0.18019 0.19395 0.87474 0.0
N46 N 0.20384 0.209 0.88618 0.0
O47 O 0.14268 0.15048 0.85646 0.0
H48 H 0.16065 0.19713 0.94463 0.0
H49 H 0.17827 0.18787 0.85103 0.0
O50 O 0.10103 0.19096 0.86314 0.0
C51 C 0.16282 0.13416 0.86675 0.0
O52 O 0.16673 0.13154 0.89672 0.0
N53 N 0.10517 0.1789 0.92636 0.0
C54 C 0.08887 0.18926 0.98645 0.0
C55 C 0.0797 0.20558 0.96234 0.0
C56 C 0.08763 0.19981 0.93211 0.0
C57 C 0.11336 0.16267 0.94948 0.0
C58 C 0.10548 0.16743 0.97956 0.0
H59 H 0.0798 0.21223 0.91384 0.0
H60 H 0.12707 0.14614 0.9445 0.0
H61 H 0.04715 0.16936 0.87732 0.0
H62 H 0.04988 0.09266 0.89739 0.0
H63 H 0.21315 0.22221 0.93262 0.0
H64 H 0.06644 0.22247 0.96683 0.0
H65 H 0.11326 0.15445 0.99749 0.0
C66 C 0.85632 0.9248 0.67511 0.0
C67 C 0.82829 0.93751 0.68014 0.0
N68 N 0.80621 0.93111 0.65792 0.0
N69 N 0.85178 0.91023 0.65003 0.0
C70 C 0.82118 0.91484 0.63973 0.0
H71 H 0.87814 0.92515 0.68966 0.0
Co72 Co 0.88124 0.88681 0.63638 0.0
C73 C 0.83065 0.84806 0.61853 0.0
O74 O 0.83785 0.83481 0.64324 0.0
N75 N 0.91119 0.86393 0.62187 0.0
C76 C 0.93822 0.83075 0.60632 0.0
C77 C 0.90887 0.83934 0.61509 0.0
C78 C 0.94213 0.86979 0.61672 0.0
N79 N 0.95904 0.84999 0.60732 0.0
O80 O 0.88875 0.90776 0.60104 0.0
H81 H 0.88783 0.82784 0.617 0.0
H82 H 0.95254 0.888 0.6213 0.0
O83 O 0.84606 0.86835 0.6134 0.0
C84 C 0.90712 0.92586 0.60974 0.0
O85 O 0.91614 0.92733 0.63901 0.0
N86 N 0.87722 0.86825 0.67372 0.0
C87 C 0.87852 0.85082 0.73471 0.0
C88 C 0.84949 0.85845 0.71981 0.0
C89 C 0.84939 0.86723 0.68952 0.0
C90 C 0.90556 0.86076 0.68801 0.0
C91 C 0.90659 0.85141 0.71795 0.0
H92 H 0.82688 0.87378 0.67903 0.0
H93 H 0.92817 0.86316 0.67706 0.0
H94 H 0.80941 0.90531 0.62041 0.0
H95 H 0.82417 0.94989 0.69919 0.0
H96 H 0.94395 0.81175 0.60023 0.0
H97 H 0.82722 0.85889 0.73184 0.0
H98 H 0.92962 0.84563 0.72821 0.0
C99 C 0.91409 0.95319 0.12731 0.0
C100 C 0.94608 0.95884 0.12411 0.0
N101 N 0.96389 0.94178 0.13988 0.0
N102 N 0.91174 0.93263 0.14496 0.0
C103 C 0.94256 0.92614 0.15245 0.0
H104 H 0.89386 0.96269 0.11608 0.0
Co105 Co 0.87314 0.91597 0.1499 0.0
C106 C 0.88937 0.86744 0.17948 0.0
O107 O 0.86691 0.8574 0.16116 0.0
N108 N 0.83324 0.89987 0.15481 0.0
C109 C 0.79119 0.88318 0.17755 0.0
C110 C 0.82107 0.89399 0.18224 0.0
C111 C 0.8098 0.89304 0.13392 0.0
N112 N 0.78422 0.88266 0.14708 0.0
O113 O 0.86345 0.93758 0.18381 0.0
H114 H 0.83325 0.89733 0.20434 0.0
H115 H 0.81096 0.8955 0.10947 0.0
O116 O 0.89495 0.89099 0.17775 0.0
C117 C 0.84589 0.95538 0.17294 0.0
O118 O 0.8394 0.95591 0.14312 0.0
N119 N 0.88133 0.89738 0.11435 0.0
C120 C 0.88666 0.87548 0.05683 0.0
C121 C 0.90646 0.86756 0.08188 0.0
C122 C 0.90376 0.87908 0.11056 0.0
C123 C 0.86495 0.90709 0.08931 0.0
C124 C 0.86634 0.89591 0.06058 0.0
H125 H 0.92001 0.87346 0.1293 0.0
H126 H 0.84977 0.92325 0.09198 0.0
H127 H 0.94937 0.90941 0.16505 0.0
H128 H 0.95554 0.97386 0.11046 0.0
H129 H 0.77552 0.87676 0.19518 0.0
H130 H 0.92354 0.85253 0.07937 0.0
H131 H 0.85181 0.90328 0.04137 0.0
C132 C 0.13417 0.61097 0.85019 0.0
C133 C 0.16501 0.60368 0.84418 0.0
N134 N 0.18564 0.61573 0.8638 0.0
N135 N 0.13535 0.62765 0.87339 0.0
C136 C 0.16706 0.63 0.8814 0.0
H137 H 0.11238 0.60544 0.83743 0.0
Co138 Co 0.10015 0.64606 0.88553 0.0
C139 C 0.12727 0.69274 0.91168 0.0
O140 O 0.10458 0.70469 0.89563 0.0
N141 N 0.06436 0.66445 0.89839 0.0
C142 C 0.03201 0.68348 0.93051 0.0
C143 C 0.05933 0.66933 0.92829 0.0
C144 C 0.03934 0.67567 0.88296 0.0
N145 N 0.0195 0.68746 0.90191 0.0
O146 O 0.09496 0.6239 0.92003 0.0
H147 H 0.07488 0.66322 0.94743 0.0
H148 H 0.03559 0.6757 0.85834 0.0
O149 O 0.12888 0.66888 0.90993 0.0
C150 C 0.07685 0.60593 0.91043 0.0
O151 O 0.06793 0.60539 0.88109 0.0
N152 N 0.10308 0.66496 0.84927 0.0
C153 C 0.10329 0.6831 0.78907 0.0
C154 C 0.12813 0.68956 0.8106 0.0
C155 C 0.12787 0.67992 0.84061 0.0
C156 C 0.08031 0.65717 0.82791 0.0
C157 C 0.07937 0.6665 0.79807 0.0
H158 H 0.14818 0.68372 0.85627 0.0
H159 H 0.06279 0.64327 0.83413 0.0
H160 H 0.17662 0.64301 0.89847 0.0
H161 H 0.17181 0.59104 0.82621 0.0
H162 H 0.02183 0.68988 0.95156 0.0
H163 H 0.14778 0.70155 0.80417 0.0
H164 H 0.0607 0.65997 0.78182 0.0
C165 C 0.07331 0.59948 0.38241 0.0
C166 C 0.04136 0.59299 0.3838 0.0
N167 N 0.02356 0.61113 0.37007 0.0
N168 N 0.07564 0.62163 0.36794 0.0
C169 C 0.04486 0.62826 0.36055 0.0
H170 H 0.09348 0.58924 0.39262 0.0
Co171 Co 0.11404 0.63917 0.36588 0.0
C172 C 0.09746 0.6895 0.34079 0.0
O173 O 0.11959 0.69892 0.35999 0.0
N174 N 0.15353 0.65611 0.36388 0.0
C175 C 0.19592 0.67484 0.34429 0.0
C176 C 0.16633 0.66419 0.3376 0.0
C177 C 0.17626 0.66148 0.3861 0.0
N178 N 0.20207 0.67308 0.37483 0.0
O179 O 0.12478 0.62068 0.32963 0.0
H180 H 0.15484 0.66239 0.31492 0.0
H181 H 0.17437 0.65692 0.41008 0.0
O182 O 0.0922 0.66587 0.34078 0.0
C183 C 0.14254 0.60234 0.33847 0.0
O184 O 0.14849 0.59937 0.36816 0.0
N185 N 0.10499 0.65442 0.40347 0.0
C186 C 0.096 0.66809 0.46435 0.0
C187 C 0.08001 0.6809 0.44005 0.0
C188 C 0.08407 0.67326 0.40965 0.0
C189 C 0.11926 0.64109 0.42699 0.0
C190 C 0.11547 0.64774 0.4575 0.0
H191 H 0.06965 0.68209 0.39156 0.0
H192 H 0.13405 0.62516 0.42188 0.0
H193 H 0.03798 0.64589 0.35011 0.0
H194 H 0.03188 0.57652 0.39471 0.0
H195 H 0.21208 0.68257 0.32787 0.0
H196 H 0.06374 0.6961 0.44458 0.0
H197 H 0.12788 0.63712 0.47559 0.0
C198 C 0.83108 0.4335 0.14901 0.0
C199 C 0.80212 0.44527 0.1527 0.0
N200 N 0.78162 0.43839 0.12936 0.0
N201 N 0.82866 0.41907 0.12366 0.0
C202 C 0.79839 0.42264 0.11196 0.0
H203 H 0.8524 0.43492 0.16413 0.0
Co204 Co 0.86111 0.39872 0.10992 0.0
C205 C 0.8261 0.35221 0.09393 0.0
O206 O 0.84743 0.34092 0.11232 0.0
N207 N 0.89466 0.37933 0.09499 0.0
C208 C 0.92601 0.35547 0.06682 0.0
C209 C 0.8948 0.36205 0.07226 0.0
C210 C 0.92615 0.38437 0.10087 0.0
N211 N 0.94557 0.36967 0.08488 0.0
O212 O 0.86447 0.41938 0.07381 0.0
H213 H 0.87399 0.35551 0.05887 0.0
H214 H 0.93482 0.39909 0.1161 0.0
O215 O 0.82846 0.37589 0.08967 0.0
C216 C 0.88224 0.43793 0.08216 0.0
O217 O 0.89162 0.43961 0.11133 0.0
N218 N 0.86036 0.38057 0.14794 0.0
C219 C 0.86097 0.3634 0.20907 0.0
C220 C 0.83194 0.36499 0.19129 0.0
C221 C 0.83214 0.37369 0.16088 0.0
C222 C 0.8886 0.37905 0.1651 0.0
C223 C 0.88958 0.36985 0.19504 0.0
H224 H 0.80935 0.37596 0.14818 0.0
H225 H 0.91059 0.38631 0.1567 0.0
H226 H 0.78851 0.41327 0.09162 0.0
H227 H 0.79654 0.45781 0.17119 0.0
H228 H 0.93377 0.34212 0.05005 0.0
H229 H 0.80904 0.36077 0.20112 0.0
H230 H 0.91274 0.36878 0.20743 0.0
C231 C 0.8937 0.4366 0.59205 0.0
C232 C 0.92437 0.44487 0.58682 0.0
N233 N 0.94482 0.43433 0.60791 0.0
N234 N 0.89481 0.42083 0.61623 0.0
C235 C 0.92627 0.41997 0.62559 0.0
H236 H 0.87211 0.44096 0.57828 0.0
Co237 Co 0.8599 0.40213 0.62863 0.0
C238 C 0.88736 0.357 0.65828 0.0
O239 O 0.86531 0.34419 0.64239 0.0
N240 N 0.82422 0.3836 0.64174 0.0
C241 C 0.79123 0.36538 0.67413 0.0
C242 C 0.81888 0.37922 0.67172 0.0
C243 C 0.79901 0.37245 0.62646 0.0
N244 N 0.77878 0.36115 0.64558 0.0
O245 O 0.85334 0.42526 0.66166 0.0
H246 H 0.83428 0.38568 0.6908 0.0
H247 H 0.79515 0.37239 0.60185 0.0
O248 O 0.88871 0.38077 0.65499 0.0
C249 C 0.83504 0.44266 0.65095 0.0
O250 O 0.82657 0.44223 0.6215 0.0
N251 N 0.86436 0.38198 0.59366 0.0
C252 C 0.86775 0.36158 0.5349 0.0
C253 C 0.89223 0.35696 0.55747 0.0
C254 C 0.89028 0.36762 0.58676 0.0
C255 C 0.84185 0.38802 0.57116 0.0
C256 C 0.84242 0.3774 0.54204 0.0
H257 H 0.91027 0.36522 0.60322 0.0
H258 H 0.82355 0.40169 0.57575 0.0
H259 H 0.93576 0.40806 0.6439 0.0
H260 H 0.93119 0.45724 0.56851 0.0
H261 H 0.78062 0.35955 0.69527 0.0
H262 H 0.91291 0.34567 0.55232 0.0
H263 H 0.82395 0.38246 0.52478 0.0
C264 C 0.64386 0.10115 0.85717 0.0
C265 C 0.67594 0.09568 0.85421 0.0
N266 N 0.69332 0.10953 0.87474 0.0
N267 N 0.64113 0.11855 0.87922 0.0
C268 C 0.67169 0.12309 0.88978 0.0
H269 H 0.62389 0.09398 0.84297 0.0
Co270 Co 0.60308 0.13515 0.88641 0.0
C271 C 0.62211 0.1839 0.91299 0.0
O272 O 0.60014 0.19374 0.89399 0.0
N273 N 0.56402 0.15156 0.89416 0.0
C274 C 0.52763 0.17125 0.92142 0.0
C275 C 0.55568 0.15771 0.9229 0.0
C276 C 0.53976 0.16083 0.8757 0.0
N277 N 0.51783 0.17316 0.89171 0.0
O278 O 0.59578 0.11342 0.92094 0.0
H279 H 0.56983 0.15341 0.94369 0.0
H280 H 0.53818 0.15949 0.851 0.0
O281 O 0.62655 0.16018 0.91285 0.0
C282 C 0.57845 0.09513 0.91106 0.0
O283 O 0.57073 0.09426 0.88146 0.0
N284 N 0.60912 0.15377 0.85024 0.0
C285 C 0.61517 0.1744 0.79184 0.0
C286 C 0.63734 0.1805 0.81594 0.0
C287 C 0.63421 0.16962 0.84495 0.0
C288 C 0.58952 0.14591 0.82623 0.0
C289 C 0.59134 0.15658 0.79715 0.0
H290 H 0.65246 0.17349 0.86276 0.0
H291 H 0.57223 0.13116 0.82976 0.0
H292 H 0.67829 0.13726 0.90661 0.0
H293 H 0.68584 0.08317 0.83756 0.0
H294 H 0.51542 0.17916 0.9406 0.0
H295 H 0.65695 0.1934 0.81233 0.0
H296 H 0.5748 0.15042 0.77872 0.0
C297 C 0.60806 0.13029 0.40836 0.0
C298 C 0.57965 0.11841 0.41456 0.0
N299 N 0.557 0.12552 0.39322 0.0
N300 N 0.60323 0.14502 0.38344 0.0
C301 C 0.57202 0.14135 0.37437 0.0
H302 H 0.63038 0.12937 0.42213 0.0
Co303 Co 0.6332 0.16795 0.36948 0.0
C304 C 0.58955 0.21008 0.35241 0.0
O305 O 0.60586 0.22382 0.3727 0.0
N306 N 0.66416 0.19025 0.35454 0.0
C307 C 0.69166 0.21866 0.32863 0.0
C308 C 0.66157 0.20958 0.33441 0.0
C309 C 0.69631 0.18703 0.3588 0.0
N310 N 0.71334 0.20433 0.34397 0.0
O311 O 0.63962 0.14717 0.33402 0.0
H312 H 0.63976 0.21606 0.32276 0.0
H313 H 0.70712 0.17211 0.37248 0.0
O314 O 0.59815 0.18742 0.34789 0.0
C315 C 0.65944 0.13014 0.34306 0.0
O316 O 0.66971 0.13019 0.37206 0.0
N317 N 0.62966 0.18625 0.40697 0.0
C318 C 0.62799 0.20198 0.46848 0.0
C319 C 0.59934 0.19751 0.45092 0.0
C320 C 0.60069 0.18965 0.42035 0.0
C321 C 0.6576 0.19099 0.42369 0.0
C322 C 0.65729 0.19948 0.45394 0.0
H323 H 0.57834 0.18522 0.40786 0.0
H324 H 0.68059 0.18679 0.41465 0.0
H325 H 0.55989 0.15141 0.35566 0.0
H326 H 0.57567 0.10623 0.43389 0.0
H327 H 0.69729 0.23379 0.31323 0.0
H328 H 0.57604 0.19867 0.46105 0.0
H329 H 0.68013 0.20296 0.46618 0.0
C330 C 0.35887 0.92255 0.1564 0.0
C331 C 0.32956 0.93397 0.15931 0.0
N332 N 0.30795 0.92288 0.13977 0.0
N333 N 0.35572 0.90423 0.13527 0.0
C334 C 0.32447 0.90513 0.12517 0.0
H335 H 0.38054 0.92612 0.17045 0.0
Co336 Co 0.38722 0.88016 0.12977 0.0
C337 C 0.34712 0.83638 0.10844 0.0
O338 O 0.35705 0.82394 0.13296 0.0
N339 N 0.42001 0.85563 0.12433 0.0
C340 C 0.45143 0.82196 0.12898 0.0
C341 C 0.42413 0.83327 0.13852 0.0
C342 C 0.44587 0.85735 0.10646 0.0
N343 N 0.46542 0.83723 0.10897 0.0
O344 O 0.39997 0.89781 0.09331 0.0
H345 H 0.40953 0.82581 0.15626 0.0
H346 H 0.45139 0.87358 0.09299 0.0
O347 O 0.35623 0.85905 0.10481 0.0
C348 C 0.41932 0.91526 0.10225 0.0
O349 O 0.42727 0.91661 0.13177 0.0
N350 N 0.37673 0.86616 0.16783 0.0
C351 C 0.36658 0.85663 0.2297 0.0
C352 C 0.34072 0.85599 0.20784 0.0
C353 C 0.34628 0.86094 0.1769 0.0
C354 C 0.40175 0.86774 0.18915 0.0
C355 C 0.39743 0.86231 0.21998 0.0
H356 H 0.32597 0.86156 0.1605 0.0
H357 H 0.4252 0.87391 0.18224 0.0
H358 H 0.31326 0.89166 0.10957 0.0
H359 H 0.32413 0.94836 0.1757 0.0
H360 H 0.4608 0.80427 0.13729 0.0
H361 H 0.31639 0.85235 0.21474 0.0
H362 H 0.41775 0.86392 0.23638 0.0
C363 C 0.41387 0.96979 0.62098 0.0
C364 C 0.44582 0.97582 0.61816 0.0
N365 N 0.46354 0.9617 0.63814 0.0
N366 N 0.41147 0.95186 0.64252 0.0
C367 C 0.44213 0.94745 0.65278 0.0
H368 H 0.3937 0.97737 0.60746 0.0
Co369 Co 0.37321 0.93591 0.65121 0.0
C370 C 0.39093 0.88542 0.67293 0.0
O371 O 0.3668 0.87719 0.65512 0.0
N372 N 0.33404 0.92027 0.66064 0.0
C373 C 0.29785 0.90135 0.68915 0.0
C374 C 0.32733 0.91302 0.6895 0.0
C375 C 0.30758 0.91344 0.64337 0.0
N376 N 0.28559 0.90169 0.66009 0.0
O377 O 0.3698 0.95581 0.68773 0.0
H378 H 0.34334 0.91553 0.70955 0.0
H379 H 0.30426 0.91633 0.61895 0.0
O380 O 0.39711 0.90892 0.67382 0.0
C381 C 0.35402 0.9753 0.67942 0.0
O382 O 0.34636 0.97812 0.64999 0.0
N383 N 0.3751 0.91925 0.61326 0.0
C384 C 0.3752 0.90301 0.55214 0.0
C385 C 0.39816 0.89406 0.5742 0.0
C386 C 0.39811 0.90279 0.60455 0.0
C387 C 0.35446 0.92951 0.59164 0.0
C388 C 0.35323 0.92109 0.5614 0.0
H389 H 0.41721 0.89694 0.62058 0.0
H390 H 0.33867 0.94448 0.59803 0.0
H391 H 0.44885 0.9333 0.6696 0.0
H392 H 0.45531 0.98926 0.60229 0.0
H393 H 0.28624 0.89334 0.70867 0.0
H394 H 0.41667 0.88106 0.56793 0.0
H395 H 0.33512 0.92885 0.54551 0.0
C396 C 0.62875 0.62757 0.3359 0.0
C397 C 0.65808 0.61631 0.33239 0.0
N398 N 0.67877 0.62467 0.35478 0.0
N399 N 0.63106 0.64316 0.3602 0.0
C400 C 0.6617 0.64064 0.37159 0.0
H401 H 0.60769 0.62585 0.32048 0.0
Co402 Co 0.59963 0.66644 0.36959 0.0
C403 C 0.64399 0.70807 0.39173 0.0
O404 O 0.63621 0.72163 0.36747 0.0
N405 N 0.56745 0.68994 0.37942 0.0
C406 C 0.53768 0.72428 0.38343 0.0
C407 C 0.56481 0.71432 0.37152 0.0
C408 C 0.54112 0.68566 0.39596 0.0
N409 N 0.52271 0.70619 0.39882 0.0
O410 O 0.58924 0.64647 0.40502 0.0
H411 H 0.58031 0.72425 0.35651 0.0
H412 H 0.53462 0.66759 0.40475 0.0
O413 O 0.6316 0.68629 0.39491 0.0
C414 C 0.57156 0.62817 0.39563 0.0
O415 O 0.56383 0.62677 0.36607 0.0
N416 N 0.60761 0.68324 0.3323 0.0
C417 C 0.61424 0.69798 0.27125 0.0
C418 C 0.64147 0.69488 0.29113 0.0
C419 C 0.63767 0.68721 0.32148 0.0
C420 C 0.58102 0.68553 0.31289 0.0
C421 C 0.5837 0.69349 0.28259 0.0
H422 H 0.65898 0.68381 0.33604 0.0
H423 H 0.55753 0.68027 0.32061 0.0
H424 H 0.67215 0.6518 0.3902 0.0
H425 H 0.66419 0.60391 0.31392 0.0
H426 H 0.52923 0.74322 0.3802 0.0
H427 H 0.66553 0.69772 0.28305 0.0
H428 H 0.56216 0.69474 0.26767 0.0
C429 C 0.58206 0.61527 0.87686 0.0
C430 C 0.55091 0.60793 0.88155 0.0
N431 N 0.53102 0.62139 0.86275 0.0
N432 N 0.58185 0.63336 0.8553 0.0
C433 C 0.55037 0.63657 0.8469 0.0
H434 H 0.60344 0.60861 0.88936 0.0
Co435 Co 0.6184 0.6513 0.8454 0.0
C436 C 0.59607 0.70044 0.82366 0.0
O437 O 0.61958 0.70966 0.84146 0.0
N438 N 0.65584 0.66905 0.83475 0.0
C439 C 0.68987 0.68876 0.80466 0.0
C440 C 0.66175 0.67529 0.80538 0.0
C441 C 0.68124 0.6787 0.85137 0.0
N442 N 0.70204 0.6909 0.83367 0.0
O443 O 0.62294 0.63095 0.80929 0.0
H444 H 0.64617 0.67071 0.78559 0.0
H445 H 0.6845 0.67749 0.876 0.0
O446 O 0.59167 0.67671 0.82272 0.0
C447 C 0.64052 0.61256 0.81834 0.0
O448 O 0.64922 0.61123 0.8477 0.0
N449 N 0.61578 0.66811 0.88311 0.0
C450 C 0.61345 0.68188 0.94498 0.0
C451 C 0.58973 0.69013 0.92323 0.0
C452 C 0.59098 0.68263 0.89244 0.0
C453 C 0.63785 0.65897 0.90424 0.0
C454 C 0.6379 0.66628 0.93486 0.0
H455 H 0.57121 0.68751 0.87663 0.0
H456 H 0.65542 0.64548 0.89725 0.0
H457 H 0.54159 0.65062 0.83077 0.0
H458 H 0.54341 0.59414 0.898 0.0
H459 H 0.70075 0.69605 0.78435 0.0
H460 H 0.5696 0.70131 0.93012 0.0
H461 H 0.65679 0.65929 0.95051 0.0
C462 C 0.3413 0.4432 0.6371 0.0
C463 C 0.31007 0.4502 0.64183 0.0
N464 N 0.29052 0.43828 0.6211 0.0
N465 N 0.34144 0.42685 0.61361 0.0
C466 C 0.31016 0.42437 0.60412 0.0
H467 H 0.36251 0.44896 0.65062 0.0
Co468 Co 0.37793 0.41001 0.60185 0.0
C469 C 0.35575 0.3617 0.57673 0.0
O470 O 0.37978 0.35186 0.59324 0.0
N471 N 0.4153 0.39341 0.58925 0.0
C472 C 0.4484 0.37522 0.55708 0.0
C473 C 0.42063 0.38882 0.55931 0.0
C474 C 0.44075 0.38272 0.60467 0.0
N475 N 0.46091 0.37137 0.58568 0.0
O476 O 0.38129 0.43218 0.56708 0.0
H477 H 0.40475 0.39442 0.54018 0.0
H478 H 0.44435 0.38238 0.62931 0.0
O479 O 0.35106 0.38537 0.57777 0.0
C480 C 0.39813 0.45093 0.57638 0.0
O481 O 0.40738 0.45186 0.60564 0.0
N482 N 0.37622 0.39114 0.63834 0.0
C483 C 0.3747 0.3729 0.69843 0.0
C484 C 0.35045 0.36637 0.67639 0.0
C485 C 0.35138 0.376 0.64649 0.0
C486 C 0.39859 0.39889 0.66015 0.0
C487 C 0.39894 0.38942 0.68998 0.0
H488 H 0.33136 0.37218 0.63048 0.0
H489 H 0.41602 0.41301 0.65441 0.0
H490 H 0.30171 0.41176 0.58611 0.0
H491 H 0.30229 0.46277 0.65947 0.0
H492 H 0.45866 0.36881 0.53607 0.0
H493 H 0.3306 0.35441 0.68241 0.0
H494 H 0.4172 0.39589 0.70669 0.0
C495 C 0.39041 0.44761 0.08724 0.0
C496 C 0.41879 0.46014 0.08277 0.0
N497 N 0.44077 0.45261 0.10451 0.0
N498 N 0.39464 0.43209 0.11149 0.0
C499 C 0.42539 0.43583 0.12185 0.0
H500 H 0.36849 0.44885 0.07293 0.0
Co501 Co 0.36442 0.40901 0.12408 0.0
C502 C 0.40652 0.36593 0.14048 0.0
O503 O 0.38976 0.35279 0.11989 0.0
N504 N 0.3331 0.3867 0.13771 0.0
C505 C 0.30429 0.35914 0.16354 0.0
C506 C 0.33476 0.36778 0.15844 0.0
C507 C 0.30119 0.3902 0.13241 0.0
N508 N 0.28331 0.37339 0.14715 0.0
O509 O 0.35771 0.4287 0.16032 0.0
H510 H 0.35615 0.36142 0.17099 0.0
H511 H 0.29116 0.40513 0.11824 0.0
O512 O 0.39885 0.38876 0.14531 0.0
C513 C 0.33817 0.44622 0.15243 0.0
O514 O 0.32849 0.44787 0.12333 0.0
N515 N 0.36844 0.3916 0.08598 0.0
C516 C 0.37117 0.37502 0.02487 0.0
C517 C 0.39954 0.37951 0.04285 0.0
C518 C 0.39766 0.38786 0.07322 0.0
C519 C 0.34079 0.38729 0.06865 0.0
C520 C 0.34158 0.37837 0.03865 0.0
H521 H 0.41982 0.3921 0.08615 0.0
H522 H 0.31768 0.39194 0.07705 0.0
H523 H 0.43692 0.42536 0.14052 0.0
H524 H 0.42318 0.47317 0.06438 0.0
H525 H 0.29793 0.34437 0.17919 0.0
H526 H 0.42304 0.37775 0.03324 0.0
H527 H 0.31891 0.37497 0.02608 0.0
C528 C 0.26501 0.11056 0.41941 0.0
C529 C 0.24774 0.10475 0.39188 0.0
C530 C 0.29874 0.1116 0.42039 0.0
C531 C 0.36972 0.09248 0.37625 0.0
H532 H 0.41429 0.14203 0.42726 0.0
C533 C 0.50428 0.11917 0.36575 0.0
C534 C 0.52288 0.12067 0.39344 0.0
C535 C 0.47085 0.11584 0.36607 0.0
C536 C 0.40214 0.12797 0.4131 0.0
H537 H 0.25208 0.09625 0.34361 0.0
H538 H 0.31062 0.09877 0.34495 0.0
H539 H 0.35561 0.13938 0.42683 0.0
H540 H 0.52113 0.12002 0.44314 0.0
H541 H 0.4627 0.11442 0.4437 0.0
H542 H 0.41643 0.08171 0.36184 0.0
C543 C 0.29841 0.10167 0.36613 0.0
C544 C 0.36851 0.12635 0.41294 0.0
C545 C 0.26479 0.1003 0.36529 0.0
C546 C 0.50746 0.1186 0.42145 0.0
C547 C 0.47403 0.11566 0.42178 0.0
C548 C 0.40331 0.09435 0.37611 0.0
C549 C 0.3159 0.1072 0.39372 0.0
C550 C 0.35181 0.10861 0.39446 0.0
C551 C 0.45539 0.11437 0.39411 0.0
C552 C 0.41982 0.11212 0.39452 0.0
H553 H 0.25243 0.11386 0.44029 0.0
H554 H 0.31133 0.11554 0.44217 0.0
H555 H 0.35784 0.07823 0.36221 0.0
H556 H 0.51562 0.12064 0.34389 0.0
H557 H 0.45699 0.11504 0.34441 0.0
C558 C 0.98884 0.16201 0.38101 0.0
C559 C 0.007 0.17462 0.40403 0.0
C560 C 0.95951 0.17166 0.3698 0.0
C561 C 0.89481 0.21396 0.39194 0.0
H562 H 0.86168 0.19759 0.30964 0.0
C563 C 0.76241 0.23003 0.34833 0.0
C564 C 0.74766 0.20662 0.34404 0.0
C565 C 0.79599 0.23195 0.35092 0.0
C566 C 0.87088 0.20264 0.33249 0.0
H567 H 0.00972 0.20756 0.43271 0.0
H568 H 0.95862 0.225 0.41254 0.0
H569 H 0.91881 0.19137 0.32328 0.0
H570 H 0.75568 0.16717 0.3375 0.0
H571 H 0.81463 0.17055 0.34112 0.0
H572 H 0.84655 0.22499 0.40097 0.0
C573 C 0.96658 0.2073 0.40366 0.0
C574 C 0.90341 0.19886 0.34046 0.0
C575 C -0.00425 0.19737 0.41525 0.0
C576 C 0.76676 0.18532 0.34101 0.0
C577 C 0.80025 0.18731 0.34281 0.0
C578 C 0.86243 0.21822 0.38372 0.0
C579 C 0.94793 0.1944 0.38102 0.0
C580 C 0.9154 0.20334 0.37072 0.0
C581 C 0.81502 0.21055 0.34833 0.0
C582 C 0.85007 0.21162 0.35437 0.0
H583 H -0.00307 0.14429 0.37229 0.0
H584 H 0.94549 0.1608 0.35302 0.0
H585 H 0.90304 0.21745 0.41549 0.0
H586 H 0.7479 0.2466 0.35086 0.0
H587 H 0.80709 0.24998 0.35541 0.0
C588 C 0.4824 0.20979 0.89125 0.0
C589 C 0.49003 0.18628 0.87961 0.0
C590 C 0.45375 0.22157 0.8817 0.0
C591 C 0.38042 0.21562 0.82842 0.0
H592 H 0.33802 0.23977 0.90011 0.0
C593 C 0.2476 0.20067 0.85122 0.0
C594 C 0.23245 0.21682 0.87142 0.0
C595 C 0.27896 0.20562 0.84249 0.0
C596 C 0.34951 0.23381 0.8795 0.0
H597 H 0.47508 0.1571 0.84783 0.0
H598 H 0.42398 0.17684 0.83229 0.0
H599 H 0.39515 0.2321 0.90348 0.0
H600 H 0.23617 0.25226 0.89505 0.0
H601 H 0.29084 0.26121 0.87943 0.0
H602 H 0.33368 0.21568 0.80531 0.0
C603 C 0.4404 0.18674 0.84802 0.0
C604 C 0.38254 0.22938 0.88143 0.0
C605 C 0.46948 0.17525 0.85708 0.0
C606 C 0.24774 0.23928 0.88002 0.0
C607 C 0.27893 0.24439 0.87104 0.0
C608 C 0.34714 0.21991 0.82656 0.0
C609 C 0.43171 0.2097 0.86096 0.0
C610 C 0.39825 0.21929 0.85633 0.0
C611 C 0.29555 0.2269 0.85367 0.0
C612 C 0.33118 0.22814 0.8525 0.0
H613 H 0.49841 0.2188 0.90816 0.0
H614 H 0.44832 0.23955 0.89151 0.0
H615 H 0.39188 0.20839 0.80842 0.0
H616 H 0.23634 0.1832 0.84428 0.0
H617 H 0.29109 0.19167 0.82926 0.0
C618 C 0.98391 0.14135 0.86138 0.0
C619 C 0.00264 0.12999 0.88502 0.0
C620 C 0.95022 0.13994 0.86116 0.0
C621 C 0.88359 0.10455 0.89725 0.0
H622 H 0.83068 0.15672 0.85949 0.0
C623 C 0.74414 0.11437 0.90577 0.0
C624 C 0.72781 0.11215 0.87695 0.0
C625 C 0.77772 0.11706 0.90779 0.0
C626 C 0.8453 0.14209 0.87014 0.0
H627 H 0.00137 0.10939 0.92768 0.0
H628 H 0.94277 0.10808 0.9285 0.0
H629 H 0.88929 0.16124 0.86194 0.0
H630 H 0.73334 0.11172 0.82771 0.0
H631 H 0.79208 0.1172 0.83123 0.0
H632 H 0.8391 0.08602 0.90639 0.0
C633 C 0.95366 0.11703 0.9092 0.0
C634 C 0.87889 0.14449 0.87132 0.0
C635 C 0.98728 0.11789 0.90893 0.0
C636 C 0.74549 0.11308 0.85018 0.0
C637 C 0.77892 0.11639 0.85216 0.0
C638 C 0.85 0.10249 0.89671 0.0
C639 C 0.93456 0.12769 0.88506 0.0
C640 C 0.89861 0.12562 0.88463 0.0
C641 C 0.79526 0.11826 0.88097 0.0
C642 C 0.83066 0.12111 0.8829 0.0
H643 H -0.00457 0.15068 0.84268 0.0
H644 H 0.9366 0.14802 0.84185 0.0
H645 H 0.89769 0.08931 0.90706 0.0
H646 H 0.73091 0.11369 0.92666 0.0
H647 H 0.78997 0.11849 0.93022 0.0
C648 C 0.75533 0.93917 0.62799 0.0
C649 C 0.77243 0.93726 0.65647 0.0
C650 C 0.72212 0.94373 0.62669 0.0
C651 C 0.65035 0.9344 0.67065 0.0
H652 H 0.61135 0.98446 0.61653 0.0
C653 C 0.51377 0.95505 0.66966 0.0
C654 C 0.49818 0.96047 0.64116 0.0
C655 C 0.54742 0.95356 0.67241 0.0
C656 C 0.62175 0.97015 0.63148 0.0
H657 H 0.7682 0.93857 0.70591 0.0
H658 H 0.71015 0.94632 0.70365 0.0
H659 H 0.66982 0.97935 0.61912 0.0
H660 H 0.50548 0.96806 0.59307 0.0
H661 H 0.56394 0.9648 0.59751 0.0
H662 H 0.6025 0.92452 0.68234 0.0
C663 C 0.72249 0.94443 0.68235 0.0
C664 C 0.65527 0.96734 0.63302 0.0
C665 C 0.75574 0.94025 0.68363 0.0
C666 C 0.51687 0.96429 0.61544 0.0
C667 C 0.55044 0.96248 0.61806 0.0
C668 C 0.61682 0.93697 0.66882 0.0
C669 C 0.70534 0.94606 0.65388 0.0
C670 C 0.66987 0.94943 0.6526 0.0
C671 C 0.56622 0.95712 0.64658 0.0
C672 C 0.60203 0.95484 0.64915 0.0
H673 H 0.76766 0.93705 0.60674 0.0
H674 H 0.70942 0.94477 0.60444 0.0
H675 H 0.661 0.92023 0.68567 0.0
H676 H 0.49993 0.95227 0.68991 0.0
H677 H 0.55868 0.94983 0.69486 0.0
C678 C 0.00926 0.87007 0.592 0.0
C679 C -0.00686 0.84914 0.60327 0.0
C680 C 0.04285 0.87042 0.59162 0.0
C681 C 0.11036 0.84704 0.63688 0.0
H682 H 0.16184 0.87465 0.57278 0.0
C683 C 0.24441 0.86864 0.66076 0.0
C684 C 0.25542 0.89132 0.64897 0.0
C685 C 0.21462 0.8589 0.65059 0.0
C686 C 0.14778 0.86704 0.59097 0.0
H687 H -0.0008 0.81175 0.62165 0.0
H688 H 0.05808 0.81248 0.62135 0.0
H689 H 0.10468 0.86572 0.56192 0.0
H690 H 0.24452 0.92152 0.6172 0.0
H691 H 0.19182 0.90525 0.60032 0.0
H692 H 0.15237 0.84979 0.66662 0.0
C693 C 0.04466 0.82851 0.61268 0.0
C694 C 0.11518 0.86178 0.58464 0.0
C695 C 0.01106 0.82806 0.61271 0.0
C696 C 0.23652 0.9039 0.62643 0.0
C697 C 0.20647 0.89443 0.61663 0.0
C698 C 0.14274 0.85262 0.64335 0.0
C699 C 0.06083 0.84992 0.60283 0.0
C700 C 0.09611 0.85218 0.60774 0.0
C701 C 0.19497 0.87193 0.62885 0.0
C702 C 0.16171 0.86319 0.62068 0.0
H703 H -0.00412 0.88642 0.58429 0.0
H704 H 0.0548 0.88722 0.58413 0.0
H705 H 0.09601 0.83998 0.65522 0.0
H706 H 0.25895 0.85842 0.67777 0.0
H707 H 0.20687 0.84127 0.66001 0.0
C708 C 0.74366 0.88462 0.10389 0.0
C709 C 0.75512 0.87368 0.13165 0.0
C710 C 0.71459 0.87673 0.08971 0.0
C711 C 0.65285 0.82669 0.08929 0.0
H712 H 0.59246 0.881 0.07505 0.0
C713 C 0.5203 0.81941 0.11293 0.0
C714 C 0.4974 0.83483 0.09758 0.0
C715 C 0.55251 0.82004 0.10532 0.0
C716 C 0.60907 0.86553 0.07792 0.0
H717 H 0.74596 0.84515 0.1655 0.0
H718 H 0.69487 0.83162 0.14104 0.0
H719 H 0.64935 0.89016 0.08427 0.0
H720 H 0.49008 0.86104 0.05986 0.0
H721 H 0.54667 0.86239 0.04683 0.0
H722 H 0.61222 0.80212 0.08438 0.0
C723 C 0.70851 0.84614 0.13009 0.0
C724 C 0.64174 0.87081 0.08334 0.0
C725 C 0.73748 0.85413 0.14437 0.0
C726 C 0.50718 0.84945 0.07276 0.0
C727 C 0.53956 0.85012 0.06516 0.0
C728 C 0.62017 0.82138 0.08367 0.0
C729 C 0.69651 0.85765 0.1029 0.0
C730 C 0.66368 0.85153 0.09048 0.0
C731 C 0.56275 0.8361 0.08214 0.0
C732 C 0.59773 0.84084 0.07945 0.0
H733 H 0.75659 0.89985 0.09364 0.0
H734 H 0.7059 0.8859 0.06875 0.0
H735 H 0.66941 0.81145 0.09416 0.0
H736 H 0.51402 0.80796 0.13224 0.0
H737 H 0.56972 0.80923 0.1192 0.0
C738 C 0.01582 0.93178 0.16688 0.0
C739 C -0.00165 0.93914 0.14004 0.0
C740 C 0.04946 0.92985 0.16707 0.0
C741 C 0.11647 0.91823 0.11834 0.0
H742 H 0.16837 0.95671 0.17749 0.0
C743 C 0.25503 0.92409 0.11166 0.0
C744 C 0.27349 0.92566 0.13936 0.0
C745 C 0.2214 0.92606 0.11153 0.0
C746 C 0.15437 0.94545 0.16113 0.0
H747 H 0.00197 0.94941 0.09216 0.0
H748 H 0.06071 0.94544 0.09226 0.0
H749 H 0.10973 0.95812 0.17858 0.0
H750 H 0.27148 0.92973 0.18871 0.0
H751 H 0.21301 0.93217 0.18884 0.0
H752 H 0.16073 0.90477 0.10143 0.0
C753 C 0.04845 0.94155 0.11322 0.0
C754 C 0.12076 0.9464 0.16173 0.0
C755 C 0.01497 0.94399 0.11323 0.0
C756 C 0.2578 0.92901 0.16696 0.0
C757 C 0.22422 0.93048 0.16695 0.0
C758 C 0.1501 0.91686 0.1181 0.0
C759 C 0.066 0.93467 0.14019 0.0
C760 C 0.10155 0.93291 0.14024 0.0
C761 C 0.20548 0.9291 0.13924 0.0
C762 C 0.16957 0.93055 0.1394 0.0
H763 H 0.00347 0.92799 0.1878 0.0
H764 H 0.06255 0.92442 0.1881 0.0
H765 H 0.10208 0.90753 0.10165 0.0
H766 H 0.2667 0.92158 0.09012 0.0
H767 H 0.20798 0.92537 0.08965 0.0
C768 C 0.23904 0.61847 0.89098 0.0
C769 C 0.22032 0.61579 0.86353 0.0
C770 C 0.27273 0.61902 0.89059 0.0
C771 C 0.34112 0.60434 0.84061 0.0
H772 H 0.38912 0.64631 0.89902 0.0
C773 C 0.47823 0.6252 0.83453 0.0
C774 C 0.49631 0.6213 0.86216 0.0
C775 C 0.44446 0.62474 0.83408 0.0
C776 C 0.37599 0.63445 0.88265 0.0
H777 H 0.22207 0.61215 0.81408 0.0
H778 H 0.28063 0.61388 0.81314 0.0
H779 H 0.33042 0.64515 0.89939 0.0
H780 H 0.49335 0.6146 0.91107 0.0
H781 H 0.43446 0.61418 0.91038 0.0
H782 H 0.38698 0.59425 0.82347 0.0
C783 C 0.26956 0.61471 0.83518 0.0
C784 C 0.34234 0.63362 0.88296 0.0
C785 C 0.23593 0.61378 0.83566 0.0
C786 C 0.48002 0.61735 0.88939 0.0
C787 C 0.44636 0.61732 0.88905 0.0
C788 C 0.37477 0.60549 0.84002 0.0
C789 C 0.28848 0.61731 0.86264 0.0
C790 C 0.3244 0.61841 0.86208 0.0
C791 C 0.42825 0.62089 0.86139 0.0
C792 C 0.39252 0.62041 0.86118 0.0
H793 H 0.22758 0.61983 0.91278 0.0
H794 H 0.28638 0.62053 0.91229 0.0
H795 H 0.32832 0.59206 0.82453 0.0
H796 H 0.49023 0.6282 0.81324 0.0
H797 H 0.43102 0.62766 0.81248 0.0
C798 C 0.74963 0.69375 0.86939 0.0
C799 C 0.73184 0.70277 0.84356 0.0
C800 C 0.77991 0.70364 0.87741 0.0
C801 C 0.84761 0.73259 0.84044 0.0
H802 H 0.88475 0.72801 0.92355 0.0
C803 C 0.97813 0.71914 0.91234 0.0
C804 C 0.99001 0.70032 0.89344 0.0
C805 C 0.94802 0.72993 0.9055 0.0
C806 C 0.87487 0.73008 0.90024 0.0
H807 H 0.73079 0.73044 0.80715 0.0
H808 H 0.7839 0.74785 0.8212 0.0
H809 H 0.82647 0.72908 0.91517 0.0
H810 H 0.98007 0.67874 0.85198 0.0
H811 H 0.92777 0.69711 0.84031 0.0
H812 H 0.89601 0.73295 0.82548 0.0
C813 C 0.7746 0.73281 0.83493 0.0
C814 C 0.8414 0.73036 0.89542 0.0
C815 C 0.74429 0.72278 0.82681 0.0
C816 C 0.97187 0.69337 0.86683 0.0
C817 C 0.94184 0.70406 0.86004 0.0
C818 C 0.88107 0.73255 0.84528 0.0
C819 C 0.7931 0.72291 0.85988 0.0
C820 C 0.82746 0.73004 0.86539 0.0
C821 C 0.9292 0.72205 0.87966 0.0
C822 C 0.89499 0.72971 0.8751 0.0
H823 H 0.74089 0.67818 0.88256 0.0
H824 H 0.7937 0.69516 0.89636 0.0
H825 H 0.83775 0.73249 0.81698 0.0
H826 H 0.99188 0.72524 0.93268 0.0
H827 H 0.93909 0.74394 0.92086 0.0
C828 C 0.48257 0.69038 0.43451 0.0
C829 C 0.49146 0.70751 0.41186 0.0
C830 C 0.45093 0.6897 0.44425 0.0
C831 C 0.37196 0.72306 0.43791 0.0
H832 H 0.33697 0.65615 0.42955 0.0
C833 C 0.24904 0.70099 0.38143 0.0
C834 C 0.23118 0.68052 0.39148 0.0
C835 C 0.27888 0.7068 0.39561 0.0
C836 C 0.34629 0.6749 0.4328 0.0
H837 H 0.47439 0.73821 0.38295 0.0
H838 H 0.41963 0.7369 0.39958 0.0
H839 H 0.39496 0.66207 0.43442 0.0
H840 H 0.22978 0.65072 0.42516 0.0
H841 H 0.2822 0.6608 0.44993 0.0
H842 H 0.32309 0.73588 0.43403 0.0
C843 C 0.43705 0.72423 0.41029 0.0
C844 C 0.37961 0.67832 0.43565 0.0
C845 C 0.46858 0.72491 0.40059 0.0
C846 C 0.243 0.66667 0.417 0.0
C847 C 0.27302 0.67236 0.43108 0.0
C848 C 0.3386 0.71964 0.43489 0.0
C849 C 0.4276 0.70615 0.43154 0.0
C850 C 0.39284 0.70249 0.43675 0.0
C851 C 0.29156 0.69214 0.42005 0.0
C852 C 0.32558 0.69559 0.4309 0.0
H853 H 0.49983 0.6771 0.44417 0.0
H854 H 0.44446 0.67577 0.46098 0.0
H855 H 0.38145 0.74188 0.43939 0.0
H856 H 0.24024 0.71218 0.36211 0.0
H857 H 0.29278 0.72197 0.38634 0.0
C858 C 0.72996 0.61988 0.38522 0.0
C859 C 0.71318 0.62141 0.35659 0.0
C860 C 0.76361 0.61797 0.38691 0.0
C861 C 0.83419 0.60502 0.33864 0.0
H862 H 0.88185 0.63725 0.40626 0.0
C863 C 0.97251 0.62244 0.34231 0.0
C864 C 0.98897 0.61287 0.36862 0.0
C865 C 0.93878 0.62343 0.34072 0.0
C866 C 0.86876 0.62813 0.38731 0.0
H867 H 0.71826 0.62269 0.30733 0.0
H868 H 0.7768 0.62035 0.31008 0.0
H869 H 0.82307 0.63881 0.40374 0.0
H870 H 0.98338 0.59762 0.4142 0.0
H871 H 0.92442 0.59993 0.41173 0.0
H872 H 0.88029 0.59523 0.3218 0.0
C873 C 0.76422 0.61961 0.33133 0.0
C874 C 0.83506 0.6288 0.38594 0.0
C875 C 0.7306 0.62102 0.32968 0.0
C876 C 0.9712 0.60481 0.39355 0.0
C877 C 0.93758 0.60629 0.39222 0.0
C878 C 0.8679 0.60479 0.33973 0.0
C879 C 0.78127 0.6181 0.35997 0.0
C880 C 0.81725 0.61717 0.36163 0.0
C881 C 0.92108 0.6154 0.36571 0.0
C882 C 0.88543 0.61625 0.36413 0.0
H883 H 0.71696 0.62005 0.40625 0.0
H884 H 0.7757 0.61634 0.40937 0.0
H885 H 0.82148 0.59538 0.31991 0.0
H886 H 0.98575 0.62869 0.32282 0.0
H887 H 0.92652 0.63063 0.32009 0.0
C888 C 0.49242 0.45725 0.13429 0.0
C889 C 0.4748 0.45794 0.10599 0.0
C890 C 0.52595 0.45983 0.13539 0.0
C891 C 0.5945 0.44736 0.08868 0.0
H892 H 0.64296 0.48584 0.15041 0.0
C893 C 0.73337 0.44638 0.09561 0.0
C894 C 0.74811 0.44492 0.12521 0.0
C895 C 0.70047 0.45162 0.0917 0.0
C896 C 0.62979 0.47484 0.13318 0.0
H897 H 0.47839 0.4625 0.05674 0.0
H898 H 0.53698 0.46699 0.05867 0.0
H899 H 0.58418 0.48876 0.1468 0.0
H900 H 0.74007 0.44781 0.17392 0.0
H901 H 0.68266 0.45636 0.16728 0.0
H902 H 0.63968 0.43259 0.07577 0.0
C903 C 0.52481 0.46445 0.07997 0.0
C904 C 0.59617 0.47661 0.13107 0.0
C905 C 0.49126 0.46212 0.07891 0.0
C906 C 0.72945 0.44917 0.15082 0.0
C907 C 0.69653 0.45416 0.14696 0.0
C908 C 0.62805 0.4454 0.09096 0.0
C909 C 0.54251 0.46291 0.10816 0.0
C910 C 0.57821 0.46269 0.109 0.0
C911 C 0.68155 0.45524 0.11737 0.0
C912 C 0.6461 0.45888 0.11348 0.0
H913 H 0.48028 0.45426 0.1555 0.0
H914 H 0.53903 0.45841 0.15742 0.0
H915 H 0.58122 0.43613 0.07173 0.0
H916 H 0.74731 0.44353 0.07546 0.0
H917 H 0.68986 0.45275 0.06856 0.0
C918 C 0.22981 0.39277 0.14256 0.0
C919 C 0.24891 0.37128 0.14545 0.0
C920 C 0.19647 0.39071 0.13845 0.0
C921 C 0.13504 0.34952 0.10606 0.0
H922 H 0.07666 0.392 0.14931 0.0
C923 C -0.00387 0.34587 0.08738 0.0
C924 C 0.98001 0.36883 0.08793 0.0
C925 C 0.02919 0.3447 0.09456 0.0
C926 C 0.09271 0.38021 0.13682 0.0
H927 H 0.24854 0.3309 0.14705 0.0
H928 H 0.18983 0.32722 0.13956 0.0
H929 H 0.13398 0.39217 0.16415 0.0
H930 H 0.98571 0.4087 0.09408 0.0
H931 H 0.04359 0.40684 0.10594 0.0
H932 H 0.09394 0.33808 0.07811 0.0
C933 C 0.20077 0.3456 0.14054 0.0
C934 C 0.1254 0.38021 0.14546 0.0
C935 C 0.23415 0.34769 0.14503 0.0
C936 C -0.00239 0.39074 0.09412 0.0
C937 C 0.03062 0.38963 0.10103 0.0
C938 C 0.10232 0.34964 0.09724 0.0
C939 C 0.18177 0.36711 0.13689 0.0
C940 C 0.14685 0.36515 0.12985 0.0
C941 C 0.04657 0.36653 0.10215 0.0
C942 C 0.08096 0.36532 0.11223 0.0
H943 H 0.24072 0.41115 0.14318 0.0
H944 H 0.18229 0.40756 0.13547 0.0
H945 H 0.15128 0.33794 0.0935 0.0
H946 H 0.98289 0.32873 0.08289 0.0
H947 H 0.04084 0.32663 0.09537 0.0
C948 C 0.50905 0.3657 0.62004 0.0
C949 C 0.49009 0.3582 0.5942 0.0
C950 C 0.53871 0.3544 0.62691 0.0
C951 C 0.59848 0.32494 0.64238 0.0
H952 H 0.65077 0.32089 0.57094 0.0
C953 C 0.73585 0.33071 0.6564 0.0
C954 C 0.74859 0.34914 0.63734 0.0
C955 C 0.70497 0.32101 0.65001 0.0
C956 C 0.63647 0.32171 0.59115 0.0
H957 H 0.48609 0.33183 0.55654 0.0
H958 H 0.53797 0.31182 0.56866 0.0
H959 H 0.59259 0.32426 0.56393 0.0
H960 H 0.73943 0.37108 0.59598 0.0
H961 H 0.68583 0.35469 0.58514 0.0
H962 H 0.6426 0.32492 0.66947 0.0
C963 C 0.53021 0.32681 0.58325 0.0
C964 C 0.603 0.32333 0.58716 0.0
C965 C 0.5006 0.3383 0.57623 0.0
C966 C 0.73055 0.35672 0.61094 0.0
C967 C 0.69975 0.34715 0.60463 0.0
C968 C 0.63198 0.32365 0.64635 0.0
C969 C 0.54999 0.33516 0.60823 0.0
C970 C 0.5838 0.32642 0.6127 0.0
C971 C 0.68623 0.32966 0.6245 0.0
C972 C 0.6514 0.3235 0.62068 0.0
H973 H 0.50171 0.38112 0.63412 0.0
H974 H 0.55351 0.36174 0.64593 0.0
H975 H 0.58426 0.32653 0.66256 0.0
H976 H 0.7495 0.32416 0.67658 0.0
H977 H 0.6954 0.30733 0.66555 0.0
C978 C -0.00299 0.43425 0.63753 0.0
C979 C 0.9795 0.43588 0.60923 0.0
C980 C 0.03074 0.43526 0.63868 0.0
C981 C 0.10051 0.42297 0.59259 0.0
H982 H 0.14666 0.46654 0.65043 0.0
C983 C 0.23874 0.43588 0.59094 0.0
C984 C 0.25579 0.43864 0.61932 0.0
C985 C 0.20499 0.43613 0.58934 0.0
C986 C 0.13423 0.45398 0.63443 0.0
H987 H 0.98356 0.43946 0.55993 0.0
H988 H 0.04244 0.44104 0.56192 0.0
H989 H 0.08786 0.46551 0.6489 0.0
H990 H 0.25095 0.44314 0.66835 0.0
H991 H 0.19228 0.44294 0.6658 0.0
H992 H 0.14665 0.41087 0.57857 0.0
C993 C 0.03007 0.43913 0.5832 0.0
C994 C 0.10052 0.45349 0.63351 0.0
C995 C -0.00362 0.43847 0.5821 0.0
C996 C 0.23845 0.44145 0.64608 0.0
C997 C 0.20477 0.44139 0.64457 0.0
C998 C 0.13423 0.42321 0.59375 0.0
C999 C 0.04758 0.43753 0.61149 0.0
C1000 C 0.08334 0.43801 0.61255 0.0
C1001 C 0.18754 0.43882 0.61617 0.0
C1002 C 0.15157 0.43873 0.61467 0.0
H1003 H 0.9846 0.43237 0.65878 0.0
H1004 H 0.04367 0.43385 0.66079 0.0
H1005 H 0.08784 0.41065 0.57643 0.0
H1006 H 0.25152 0.43392 0.56993 0.0
H1007 H 0.19263 0.43452 0.567 0.0
C1008 C 0.1127 0.15357 0.25122 0.0
C1009 C 0.11961 0.17098 0.27479 0.0
C1010 C 0.10632 0.16142 0.22104 0.0
C1011 C 0.12058 0.20769 0.16384 0.0
H1012 H 0.04027 0.18318 0.12589 0.0
C1013 C 0.09277 0.21719 0.0328 0.0
C1014 C 0.08247 0.19469 0.01901 0.0
C1015 C 0.09259 0.22004 0.06484 0.0
C1016 C 0.0628 0.1902 0.13606 0.0
H1017 H 0.12706 0.21034 0.28448 0.0
H1018 H 0.11702 0.22397 0.23096 0.0
H1019 H 0.05174 0.17674 0.18075 0.0
H1020 H 0.06185 0.1583 0.02741 0.0
H1021 H 0.06168 0.16304 0.08282 0.0
H1022 H 0.13268 0.2197 0.11879 0.0
C1023 C 0.11595 0.20427 0.23641 0.0
C1024 C 0.06926 0.18659 0.16749 0.0
C1025 C 0.12187 0.19642 0.26693 0.0
C1026 C 0.07003 0.17581 0.03749 0.0
C1027 C 0.06974 0.17864 0.0693 0.0
C1028 C 0.11431 0.21104 0.13218 0.0
C1029 C 0.1073 0.18683 0.21342 0.0
C1030 C 0.09861 0.19459 0.18146 0.0
C1031 C 0.08185 0.2005 0.08354 0.0
C1032 C 0.0858 0.20152 0.11773 0.0
H1033 H 0.11179 0.13377 0.2561 0.0
H1034 H 0.10043 0.14757 0.20355 0.0
H1035 H 0.14341 0.21399 0.17415 0.0
H1036 H 0.10265 0.23199 0.01905 0.0
H1037 H 0.10174 0.23722 0.07503 0.0
C1038 C 0.91537 0.86272 0.00998 0.0
C1039 C 0.88714 0.86316 0.02652 0.0
C1040 C 0.91435 0.85451 0.97942 0.0
C1041 C 0.85537 0.84798 0.91346 0.0
H1042 H 0.92882 0.82024 0.87347 0.0
C1043 C 0.85424 0.83269 0.78214 0.0
C1044 C 0.88015 0.84456 0.76817 0.0
C1045 C 0.85485 0.82904 0.81403 0.0
C1046 C 0.90806 0.82785 0.88441 0.0
H1047 H 0.83633 0.85389 0.02528 0.0
H1048 H 0.83468 0.83848 0.97254 0.0
H1049 H 0.93031 0.82396 0.92949 0.0
H1050 H 0.92729 0.86151 0.77726 0.0
H1051 H 0.92858 0.85447 0.83234 0.0
H1052 H 0.83333 0.85208 0.86834 0.0
C1053 C 0.85741 0.84529 0.98249 0.0
C1054 C 0.90896 0.83014 0.91647 0.0
C1055 C 0.85834 0.8539 0.01277 0.0
C1056 C 0.90715 0.85179 0.78685 0.0
C1057 C 0.90792 0.84783 0.81857 0.0
C1058 C 0.85434 0.84539 0.88151 0.0
C1059 C 0.88513 0.84627 0.96502 0.0
C1060 C 0.88292 0.84083 0.93137 0.0
C1061 C 0.88156 0.83687 0.83258 0.0
C1062 C 0.88097 0.8359 0.8666 0.0
H1063 H 0.93779 0.86997 0.02013 0.0
H1064 H 0.93613 0.85584 0.96671 0.0
H1065 H 0.83505 0.85672 0.92387 0.0
H1066 H 0.83327 0.82649 0.76852 0.0
H1067 H 0.83427 0.82039 0.82427 0.0
C1068 C 0.09731 0.69979 0.50688 0.0
C1069 C 0.09203 0.67514 0.49688 0.0
C1070 C 0.09665 0.70569 0.53822 0.0
C1071 C 0.11665 0.706 0.60755 0.0
H1072 H 0.05048 0.67745 0.65716 0.0
C1073 C 0.1307 0.68968 0.73932 0.0
C1074 C 0.10301 0.69168 0.75659 0.0
C1075 C 0.12868 0.69326 0.70739 0.0
C1076 C 0.06892 0.68591 0.64367 0.0
H1077 H 0.08067 0.63758 0.51145 0.0
H1078 H 0.07909 0.64786 0.5659 0.0
H1079 H 0.04641 0.67285 0.60151 0.0
H1080 H 0.05223 0.70118 0.75451 0.0
H1081 H 0.04875 0.70764 0.69898 0.0
H1082 H 0.13954 0.71855 0.64997 0.0
C1083 C 0.08389 0.66264 0.5497 0.0
C1084 C 0.06672 0.68305 0.61178 0.0
C1085 C 0.08497 0.65671 0.51857 0.0
C1086 C 0.07385 0.69911 0.74168 0.0
C1087 C 0.07184 0.70273 0.70989 0.0
C1088 C 0.119 0.70871 0.6396 0.0
C1089 C 0.09012 0.6871 0.55996 0.0
C1090 C 0.09082 0.69267 0.5934 0.0
C1091 C 0.09894 0.69896 0.69221 0.0
C1092 C 0.09536 0.69839 0.65804 0.0
H1093 H 0.10299 0.71429 0.4906 0.0
H1094 H 0.10136 0.72472 0.54549 0.0
H1095 H 0.13569 0.71348 0.59396 0.0
H1096 H 0.15345 0.68381 0.75015 0.0
H1097 H 0.14997 0.69008 0.69442 0.0
C1098 C 0.89661 0.35739 0.4859 0.0
C1099 C 0.86956 0.35215 0.50304 0.0
C1100 C 0.89603 0.35245 0.45432 0.0
C1101 C 0.8369 0.34414 0.38846 0.0
H1102 H 0.91449 0.3329 0.34405 0.0
C1103 C 0.83939 0.34001 0.25456 0.0
C1104 C 0.86156 0.35701 0.24256 0.0
C1105 C 0.83999 0.33471 0.28617 0.0
C1106 C 0.89259 0.33588 0.35621 0.0
H1107 H 0.82156 0.33618 0.50129 0.0
H1108 H 0.82097 0.32645 0.4465 0.0
H1109 H 0.91683 0.33062 0.40011 0.0
H1110 H 0.90106 0.38232 0.25517 0.0
H1111 H 0.90281 0.37223 0.30948 0.0
H1112 H 0.81283 0.3494 0.34429 0.0
C1113 C 0.84225 0.3352 0.45701 0.0
C1114 C 0.89393 0.33477 0.38834 0.0
C1115 C 0.84266 0.34053 0.48846 0.0
C1116 C 0.88428 0.36847 0.26307 0.0
C1117 C 0.88523 0.36283 0.29438 0.0
C1118 C 0.8355 0.34485 0.35629 0.0
C1119 C 0.86851 0.34183 0.43925 0.0
C1120 C 0.86631 0.3396 0.405 0.0
C1121 C 0.86309 0.34599 0.30629 0.0
C1122 C 0.8635 0.34142 0.33992 0.0
H1123 H 0.91748 0.36665 0.49655 0.0
H1124 H 0.91658 0.3582 0.44153 0.0
H1125 H 0.81517 0.34835 0.40028 0.0
H1126 H 0.82171 0.33065 0.23958 0.0
H1127 H 0.82259 0.32167 0.29487 0.0
C1128 C 0.60206 0.21985 0.51521 0.0
C1129 C 0.62759 0.20679 0.50228 0.0
C1130 C 0.60066 0.22234 0.54717 0.0
C1131 C 0.64907 0.21914 0.62008 0.0
H1132 H 0.57136 0.19326 0.65486 0.0
C1133 C 0.64655 0.18434 0.74545 0.0
C1134 C 0.61753 0.18535 0.76075 0.0
C1135 C 0.64764 0.192 0.71475 0.0
C1136 C 0.59301 0.20113 0.64575 0.0
H1137 H 0.67175 0.18626 0.5135 0.0
H1138 H 0.66977 0.1915 0.56866 0.0
H1139 H 0.57337 0.19865 0.59949 0.0
H1140 H 0.56742 0.1965 0.75681 0.0
H1141 H 0.56948 0.21084 0.70372 0.0
H1142 H 0.66887 0.22161 0.6662 0.0
C1143 C 0.65098 0.1999 0.55401 0.0
C1144 C 0.59413 0.20414 0.61391 0.0
C1145 C 0.65212 0.19703 0.52222 0.0
C1146 C 0.59001 0.19528 0.74534 0.0
C1147 C 0.59119 0.20332 0.71485 0.0
C1148 C 0.64783 0.21648 0.65199 0.0
C1149 C 0.62501 0.21221 0.56685 0.0
C1150 C 0.62241 0.21259 0.60072 0.0
C1151 C 0.6198 0.20118 0.69883 0.0
C1152 C 0.62005 0.20683 0.66523 0.0
H1153 H 0.58297 0.22796 0.5007 0.0
H1154 H 0.58043 0.23202 0.55654 0.0
H1155 H 0.67109 0.22592 0.61046 0.0
H1156 H 0.66803 0.17654 0.75676 0.0
H1157 H 0.67001 0.18969 0.70319 0.0
C1158 C 0.38049 0.83781 0.28121 0.0
C1159 C 0.36146 0.85419 0.26298 0.0
C1160 C 0.37919 0.83824 0.31326 0.0
C1161 C 0.33388 0.866 0.37777 0.0
H1162 H 0.4161 0.8585 0.4228 0.0
C1163 C 0.36501 0.91069 0.49545 0.0
C1164 C 0.37445 0.8943 0.51953 0.0
C1165 C 0.36216 0.90234 0.46512 0.0
C1166 C 0.39294 0.86033 0.41052 0.0
H1167 H 0.32574 0.88348 0.26364 0.0
H1168 H 0.32425 0.88507 0.31941 0.0
H1169 H 0.41224 0.84982 0.36778 0.0
H1170 H 0.3893 0.85626 0.52994 0.0
H1171 H 0.38585 0.8421 0.47638 0.0
H1172 H 0.31538 0.87819 0.42047 0.0
C1173 C 0.33943 0.87121 0.30928 0.0
C1174 C 0.39056 0.85522 0.37898 0.0
C1175 C 0.34028 0.8704 0.27723 0.0
C1176 C 0.38222 0.86951 0.51211 0.0
C1177 C 0.38003 0.8613 0.48153 0.0
C1178 C 0.33647 0.87161 0.40913 0.0
C1179 C 0.35937 0.85548 0.32783 0.0
C1180 C 0.36109 0.85839 0.36201 0.0
C1181 C 0.36945 0.87759 0.45792 0.0
C1182 C 0.36611 0.86915 0.42562 0.0
H1183 H 0.39694 0.82508 0.27066 0.0
H1184 H 0.39431 0.8254 0.32659 0.0
H1185 H 0.3106 0.86807 0.36583 0.0
H1186 H 0.35986 0.93011 0.49988 0.0
H1187 H 0.35455 0.91535 0.44715 0.0
C1188 C 0.62247 0.67073 1.00077 0.0
C1189 C 0.6122 0.68825 0.97827 0.0
C1190 C 0.6235 0.67689 0.03188 0.0
C1191 C 0.58766 0.71217 0.09021 0.0
H1192 H 0.66984 0.70472 0.1353 0.0
C1193 C 0.59752 0.72084 0.22271 0.0
C1194 C 0.61755 0.70331 0.2381 0.0
C1195 C 0.59856 0.72396 0.19083 0.0
C1196 C 0.64663 0.7067 0.12319 0.0
H1197 H 0.59359 0.72578 0.97138 0.0
H1198 H 0.59409 0.73608 0.02636 0.0
H1199 H 0.667 0.70031 0.0795 0.0
H1200 H 0.65445 0.67541 0.23229 0.0
H1201 H 0.6557 0.68021 0.17688 0.0
H1202 H 0.56673 0.71688 0.13384 0.0
C1203 C 0.60199 0.71778 0.01937 0.0
C1204 C 0.64513 0.7044 0.09122 0.0
C1205 C 0.60154 0.71179 0.98799 0.0
C1206 C 0.63913 0.68937 0.22112 0.0
C1207 C 0.63987 0.69223 0.18928 0.0
C1208 C 0.58902 0.71404 0.12233 0.0
C1209 C 0.61356 0.70049 0.04144 0.0
C1210 C 0.61555 0.70658 0.07456 0.0
C1211 C 0.61934 0.70935 0.17359 0.0
C1212 C 0.61843 0.71069 0.13931 0.0
H1213 H 0.62975 0.65212 0.99446 0.0
H1214 H 0.6319 0.66309 0.04859 0.0
H1215 H 0.56456 0.71376 0.07777 0.0
H1216 H 0.5808 0.73194 0.23533 0.0
H1217 H 0.58279 0.73762 0.1797 0.0
C1218 C 0.3454 0.36771 0.74714 0.0
C1219 C 0.37355 0.36456 0.73087 0.0
C1220 C 0.34562 0.36317 0.77881 0.0
C1221 C 0.40299 0.36012 0.84661 0.0
H1222 H 0.326 0.34105 0.88829 0.0
C1223 C 0.39714 0.35432 0.9799 0.0
C1224 C 0.37205 0.36874 0.99146 0.0
C1225 C 0.39815 0.34937 0.94833 0.0
C1226 C 0.34773 0.34627 0.87691 0.0
H1227 H 0.42344 0.35276 0.73444 0.0
H1228 H 0.42362 0.34389 0.78947 0.0
H1229 H 0.32608 0.33916 0.83227 0.0
H1230 H 0.32874 0.38964 0.97816 0.0
H1231 H 0.32995 0.38011 0.92382 0.0
H1232 H 0.42448 0.36721 0.89148 0.0
C1233 C 0.4016 0.35067 0.77812 0.0
C1234 C 0.34775 0.34536 0.8448 0.0
C1235 C 0.40148 0.35556 0.74655 0.0
C1236 C 0.34792 0.37782 0.97057 0.0
C1237 C 0.34864 0.37249 0.93925 0.0
C1238 C 0.40309 0.36066 0.87874 0.0
C1239 C 0.37392 0.35505 0.79488 0.0
C1240 C 0.3751 0.35293 0.82913 0.0
C1241 C 0.37382 0.35838 0.92776 0.0
C1242 C 0.37519 0.35436 0.89414 0.0
H1243 H 0.32365 0.37492 0.73569 0.0
H1244 H 0.32394 0.36716 0.79084 0.0
H1245 H 0.42438 0.36645 0.83552 0.0
H1246 H 0.41597 0.34676 0.99519 0.0
H1247 H 0.41784 0.33841 0.93999 0.0
C1248 C 0.34261 0.31943 0.55576 0.0
C1249 C 0.33373 0.34459 0.55898 0.0
C1250 C 0.32187 0.30236 0.54092 0.0
C1251 C 0.23608 0.29114 0.5195 0.0
H1252 H 0.27081 0.23915 0.46867 0.0
C1253 C 0.15482 0.223 0.44822 0.0
C1254 C 0.16429 0.19787 0.44615 0.0
C1255 C 0.17517 0.24075 0.46235 0.0
C1256 C 0.26076 0.25333 0.48312 0.0
H1257 H 0.29602 0.37157 0.54853 0.0
H1258 H 0.25953 0.34157 0.52216 0.0
H1259 H 0.30652 0.27137 0.49039 0.0
H1260 H 0.20259 0.1717 0.45793 0.0
H1261 H 0.23833 0.20283 0.48288 0.0
H1262 H 0.19029 0.27307 0.51216 0.0
C1263 C 0.28265 0.33511 0.53152 0.0
C1264 C 0.28123 0.2719 0.49551 0.0
C1265 C 0.30361 0.35235 0.5464 0.0
C1266 C 0.19455 0.19086 0.45911 0.0
C1267 C 0.2151 0.20876 0.4732 0.0
C1268 C 0.21559 0.27258 0.50705 0.0
C1269 C 0.29152 0.30984 0.52874 0.0
C1270 C 0.26922 0.29099 0.51403 0.0
C1271 C 0.20569 0.23397 0.47483 0.0
C1272 C 0.22768 0.25338 0.48876 0.0
H1273 H 0.36563 0.3127 0.56508 0.0
H1274 H 0.3294 0.28306 0.53972 0.0
H1275 H 0.22606 0.30527 0.53403 0.0
H1276 H 0.13167 0.22914 0.43857 0.0
H1277 H 0.16723 0.25998 0.46279 0.0
C1278 C 0.92998 0.96775 0.5995 0.0
C1279 C 0.92139 0.94393 0.58835 0.0
C1280 C 0.94908 0.98374 0.58262 0.0
C1281 C 0.98193 0.99511 0.50576 0.0
H1282 H 0.04835 0.03098 0.5534 0.0
C1283 C 0.08226 0.04809 0.4462 0.0
C1284 C 0.0902 0.07221 0.45677 0.0
C1285 C 0.06319 0.0322 0.46324 0.0
C1286 C 0.02977 1.02133 0.53976 0.0
H1287 H 0.92518 0.91851 0.55012 0.0
H1288 H 0.95893 0.94652 0.52033 0.0
H1289 H 0.01069 1.00411 0.57947 0.0
H1290 H 0.08547 0.09818 0.49432 0.0
H1291 H 0.05196 0.07026 0.52447 0.0
H1292 H 0.00111 1.01227 0.46604 0.0
C1293 C 0.95052 0.95293 0.54215 0.0
C1294 C 0.00806 1.0059 0.5547 0.0
C1295 C 0.93105 0.93689 0.55908 0.0
C1296 C 0.08009 0.0796 0.48576 0.0
C1297 C 0.06074 0.06362 0.50291 0.0
C1298 C 0.00367 1.01051 0.49081 0.0
C1299 C 0.96053 0.97631 0.55415 0.0
C1300 C 0.98376 0.9926 0.53794 0.0
C1301 C 0.05124 0.03999 0.49135 0.0
C1302 C 0.02797 1.02379 0.50759 0.0
H1303 H 0.92273 0.97377 0.62192 0.0
H1304 H 0.95543 1.0018 0.59227 0.0
H1305 H 0.96334 0.98549 0.4921 0.0
H1306 H 0.08987 0.04177 0.42402 0.0
H1307 H 0.0572 1.01394 0.45398 0.0
C1308 C 0.33615 0.98706 0.73231 0.0
C1309 C 0.34069 0.99328 0.70141 0.0
C1310 C 0.31869 1.00305 0.75102 0.0
C1311 C 0.25591 0.05192 0.74399 0.0
H1312 H 0.27983 0.06651 0.82909 0.0
C1313 C 0.18593 0.12404 0.81537 0.0
C1314 C 0.18214 0.11833 0.84652 0.0
C1315 C 0.2059 0.10929 0.79752 0.0
C1316 C 0.27252 0.06242 0.80544 0.0
H1317 H 0.33222 1.02182 0.66655 0.0
H1318 H 0.30239 0.04946 0.69896 0.0
H1319 H 0.31418 0.03955 0.79951 0.0
H1320 H 0.19555 0.09219 0.88302 0.0
H1321 H 0.22925 0.06644 0.85205 0.0
H1322 H 0.21405 0.0744 0.7499 0.0
C1323 C 0.31152 0.0321 0.70868 0.0
C1324 C 0.29231 0.04695 0.7885 0.0
C1325 C 0.32887 1.01627 0.69015 0.0
C1326 C 0.19816 0.09735 0.85918 0.0
C1327 C 0.21779 0.08261 0.84142 0.0
C1328 C 0.23602 0.06725 0.76096 0.0
C1329 C 0.30543 1.02546 0.73908 0.0
C1330 C 0.2843 0.04156 0.75753 0.0
C1331 C 0.22231 0.08846 0.81043 0.0
C1332 C 0.24399 0.0727 0.79196 0.0
H1333 H 0.34477 0.96941 0.74159 0.0
H1334 H 0.3144 0.99738 0.77438 0.0
H1335 H 0.24872 0.04784 0.7203 0.0
H1336 H 0.17406 0.14016 0.80501 0.0
H1337 H 0.20896 0.11451 0.77378 0.0
C1338 C 0.90779 0.31729 0.6821 0.0
C1339 C 0.91075 0.34331 0.67888 0.0
C1340 C 0.92953 0.30384 0.70102 0.0
C1341 C 0.98868 0.31033 0.76649 0.0
H1342 H 0.01697 0.24525 0.7397 0.0
C1343 C 0.08728 0.25469 0.83432 0.0
C1344 C 0.08286 0.2288 0.83772 0.0
C1345 C 0.06694 0.26861 0.81448 0.0
C1346 C 0.00904 0.26325 0.7477 0.0
H1347 H 0.9391 0.3756 0.69326 0.0
H1348 H 0.97742 0.35198 0.72638 0.0
H1349 H 0.98123 0.27013 0.70597 0.0
H1350 H 0.05356 0.19723 0.82253 0.0
H1351 H 0.0178 0.22163 0.78785 0.0
H1352 H 0.01644 0.30341 0.80826 0.0
C1353 C 0.95794 0.34205 0.71433 0.0
C1354 C 0.98856 0.27757 0.72833 0.0
C1355 C 0.93607 0.35559 0.69526 0.0
C1356 C 0.05773 0.21711 0.8204 0.0
C1357 C 0.0373 0.2311 0.80045 0.0
C1358 C 0.00919 0.29601 0.78586 0.0
C1359 C 0.95498 0.31595 0.71733 0.0
C1360 C 0.97795 0.30124 0.73752 0.0
C1361 C 0.04154 0.25708 0.79742 0.0
C1362 C 0.01957 0.27225 0.77676 0.0
H1363 H 0.88852 0.30714 0.67002 0.0
H1364 H 0.92606 0.28388 0.70318 0.0
H1365 H 0.98063 0.32828 0.77454 0.0
H1366 H 0.10649 0.26436 0.8471 0.0
H1367 H 0.07133 0.28845 0.81236 0.0
C1368 C 0.78718 0.81765 0.60391 0.0
C1369 C 0.80786 0.83698 0.59515 0.0
C1370 C 0.76875 0.80429 0.58195 0.0
C1371 C 0.76799 0.78661 0.50027 0.0
H1372 H 0.68192 0.76246 0.51548 0.0
C1373 C 0.68638 0.73907 0.40712 0.0
C1374 C 0.66632 0.71921 0.41544 0.0
C1375 C 0.70475 0.75219 0.42933 0.0
C1376 C 0.70613 0.76873 0.51111 0.0
H1377 H 0.8243 0.85819 0.5564 0.0
H1378 H 0.79167 0.83491 0.51774 0.0
H1379 H 0.70945 0.79011 0.55264 0.0
H1380 H 0.65074 0.69691 0.4536 0.0
H1381 H 0.68312 0.71996 0.49281 0.0
H1382 H 0.7646 0.7653 0.45868 0.0
C1383 C 0.79014 0.82991 0.54176 0.0
C1384 C 0.72187 0.78471 0.53233 0.0
C1385 C 0.80857 0.84343 0.56388 0.0
C1386 C 0.66602 0.71209 0.4465 0.0
C1387 C 0.68431 0.72544 0.46892 0.0
C1388 C 0.75223 0.77066 0.47904 0.0
C1389 C 0.77047 0.80985 0.55053 0.0
C1390 C 0.75301 0.79387 0.52719 0.0
C1391 C 0.70351 0.74591 0.46057 0.0
C1392 C 0.72107 0.76156 0.48415 0.0
H1393 H 0.78591 0.81226 0.62784 0.0
H1394 H 0.75416 0.78889 0.5896 0.0
H1395 H 0.7922 0.79285 0.49586 0.0
H1396 H 0.68734 0.74497 0.38335 0.0
H1397 H 0.71897 0.76792 0.42205 0.0
C1398 C 0.67737 0.11542 0.29126 0.0
C1399 C 0.67257 0.11093 0.32253 0.0
C1400 C 0.69485 0.0983 0.27403 0.0
C1401 C 0.72645 0.03287 0.27507 0.0
H1402 H 0.79164 0.0598 0.22318 0.0
C1403 C 0.82452 0.96993 0.2235 0.0
C1404 C 0.8304 0.97428 0.19239 0.0
C1405 C 0.80588 0.98685 0.23987 0.0
C1406 C 0.7734 0.05191 0.23738 0.0
H1407 H 0.68084 0.08446 0.35978 0.0
H1408 H 0.7108 0.05496 0.33013 0.0
H1409 H 0.75502 0.08805 0.24818 0.0
H1410 H 0.82248 1.00027 0.15454 0.0
H1411 H 0.79044 0.02939 0.18277 0.0
H1412 H 0.74491 0.99673 0.26436 0.0
C1413 C 0.70125 0.07147 0.31862 0.0
C1414 C 0.75223 0.06815 0.2516 0.0
C1415 C 0.68415 0.08853 0.33573 0.0
C1416 C 0.81839 0.99628 0.17848 0.0
C1417 C 0.80009 1.01314 0.19476 0.0
C1418 C 0.74762 1.01663 0.26087 0.0
C1419 C 0.70749 0.07628 0.28771 0.0
C1420 C 0.72852 0.05888 0.27074 0.0
C1421 C 0.79307 1.00853 0.22553 0.0
C1422 C 0.77143 1.02591 0.24184 0.0
H1423 H 0.66894 0.1326 0.28053 0.0
H1424 H 0.69891 0.10248 0.25016 0.0
H1425 H 0.70827 1.02498 0.28934 0.0
H1426 H 0.83326 0.95309 0.23481 0.0
H1427 H 0.80126 0.98283 0.26367 0.0
C1428 C 0.90147 0.82521 0.20143 0.0
C1429 C 0.91019 0.8505 0.1988 0.0
C1430 C 0.92179 0.80823 0.21699 0.0
C1431 C 0.99067 0.80282 0.27352 0.0
H1432 H 8e-05 0.73757 0.23648 0.0
C1433 C 0.08547 0.73238 0.32069 0.0
C1434 C 0.07683 0.707 0.32209 0.0
C1435 C 0.06549 0.74966 0.30521 0.0
C1436 C -0.00254 0.75556 0.24738 0.0
H1437 H 0.947 0.87783 0.21139 0.0
H1438 H 0.98275 0.84802 0.23873 0.0
H1439 H 0.96509 0.76855 0.21119 0.0
H1440 H 0.04048 0.67988 0.30759 0.0
H1441 H 0.00524 0.71018 0.28069 0.0
H1442 H 0.02291 0.78981 0.30979 0.0
C1443 C 0.95994 0.84142 0.22872 0.0
C1444 C 0.97739 0.77339 0.23283 0.0
C1445 C 0.93948 0.85853 0.21303 0.0
C1446 C 0.04792 0.69925 0.30691 0.0
C1447 C 0.02776 0.71665 0.29143 0.0
C1448 C 0.0107 0.78497 0.2881 0.0
C1449 C 0.95154 0.81595 0.23044 0.0
C1450 C 0.97363 0.79725 0.24574 0.0
C1451 C 0.03613 0.74218 0.29071 0.0
C1452 C 0.0144 0.76107 0.27524 0.0
H1453 H 0.87896 0.81833 0.19107 0.0
H1454 H 0.91412 0.78895 0.21843 0.0
H1455 H 0.98804 0.82083 0.28435 0.0
H1456 H 0.1077 0.73906 0.33182 0.0
H1457 H 0.07318 0.76898 0.30459 0.0
C1458 C 0.30679 0.83586 0.06289 0.0
C1459 C 0.32569 0.8232 0.08551 0.0
C1460 C 0.28552 0.82252 0.04284 0.0
C1461 C 0.24326 0.76107 0.03689 0.0
H1462 H 0.23072 0.77761 0.95051 0.0
C1463 C 0.17372 0.69586 0.95095 0.0
C1464 C 0.15129 0.70743 0.93045 0.0
C1465 C 0.19552 0.71025 0.96905 0.0
C1466 C 0.23383 0.77285 0.97466 0.0
H1467 H 0.33813 0.78653 0.10373 0.0
H1468 H 0.30215 0.76367 0.06887 0.0
H1469 H 0.26701 0.80305 0.98342 0.0
H1470 H 0.13475 0.74324 0.91248 0.0
H1471 H 0.17259 0.76808 0.94381 0.0
H1472 H 0.21037 0.73079 0.02815 0.0
C1473 C 0.30269 0.78382 0.06702 0.0
C1474 C 0.25452 0.78752 0.99354 0.0
C1475 C 0.32357 0.79703 0.08699 0.0
C1476 C 0.15158 0.73363 0.92808 0.0
C1477 C 0.17348 0.74795 0.94591 0.0
C1478 C 0.22279 0.74637 0.01802 0.0
C1479 C 0.28293 0.79631 0.045 0.0
C1480 C 0.25971 0.78169 0.02489 0.0
C1481 C 0.19557 0.73649 0.96678 0.0
C1482 C 0.2179 0.75199 0.98664 0.0
H1483 H 0.30787 0.856 0.06117 0.0
H1484 H 0.27059 0.83277 0.02617 0.0
H1485 H 0.24602 0.75631 0.06106 0.0
H1486 H 0.1742 0.67573 0.95326 0.0
H1487 H 0.21247 0.70084 0.98473 0.0
C1488 C 0.0527 0.56406 0.91861 0.0
C1489 C 0.06265 0.58718 0.93103 0.0
C1490 C 0.03396 0.54762 0.93525 0.0
C1491 C 0.97546 0.54746 0.99638 0.0
H1492 H 0.98509 0.47559 0.99234 0.0
C1493 C 0.90458 0.47998 0.07186 0.0
C1494 C 0.89552 0.45631 0.06053 0.0
C1495 C 0.923 0.4962 0.05462 0.0
C1496 C 0.98168 0.49559 0.99328 0.0
H1497 H 0.06163 0.61082 0.97124 0.0
H1498 H 0.0288 0.58187 1.00073 0.0
H1499 H 0.02393 0.50261 0.96798 0.0
H1500 H 0.89769 0.43145 0.02155 0.0
H1501 H 0.92973 0.46011 0.99085 0.0
H1502 H 0.93314 0.5405 0.02151 0.0
C1503 C 0.03545 0.57659 0.97786 0.0
C1504 C 0.00413 0.51113 0.97948 0.0
C1505 C 0.05461 0.59304 0.96119 0.0
C1506 C 0.904 0.44968 0.03074 0.0
C1507 C 0.92275 0.46597 0.01341 0.0
C1508 C 0.95295 0.53194 0.0101 0.0
C1509 C 0.02434 0.55387 0.96481 0.0
C1510 C 0.00139 0.5373 0.98089 0.0
C1511 C 0.9331 0.48925 0.02546 0.0
C1512 C 0.95579 0.50576 0.00888 0.0
H1513 H 0.05846 0.55901 0.89538 0.0
H1514 H 0.02573 0.53048 0.92429 0.0
H1515 H 0.97212 0.56748 0.99738 0.0
H1516 H 0.8985 0.48564 0.09478 0.0
H1517 H 0.93065 0.51374 0.06493 0.0
C1518 C 0.16505 0.59255 0.28672 0.0
C1519 C 0.15887 0.58551 0.31702 0.0
C1520 C 0.18446 0.5775 0.26862 0.0
C1521 C 0.21915 0.51334 0.26367 0.0
H1522 H 0.28414 0.54583 0.2163 0.0
C1523 C 0.31885 0.45684 0.20512 0.0
C1524 C 0.32399 0.46365 0.17454 0.0
C1525 C 0.30035 0.47218 0.22373 0.0
C1526 C 0.26601 0.53642 0.22926 0.0
H1527 H 0.16708 0.55667 0.35153 0.0
H1528 H 0.2005 0.5308 0.32036 0.0
H1529 H 0.24602 0.57106 0.24386 0.0
H1530 H 0.31523 0.49238 0.14005 0.0
H1531 H 0.28351 0.51887 0.17217 0.0
H1532 H 0.23911 0.47871 0.24905 0.0
C1533 C 0.19047 0.54773 0.3103 0.0
C1534 C 0.24399 0.55093 0.24493 0.0
C1535 C 0.17138 0.56273 0.3283 0.0
C1536 C 0.31169 0.48657 0.16352 0.0
C1537 C 0.29357 0.50188 0.18204 0.0
C1538 C 0.24118 0.49884 0.24802 0.0
C1539 C 0.19778 0.55503 0.28039 0.0
C1540 C 0.22024 0.5396 0.26237 0.0
C1541 C 0.28699 0.4947 0.21218 0.0
C1542 C 0.26488 0.51017 0.23053 0.0
H1543 H 0.15593 0.61005 0.27744 0.0
H1544 H 0.18929 0.58357 0.24553 0.0
H1545 H 0.20097 0.50391 0.27655 0.0
H1546 H 0.32779 0.43921 0.21417 0.0
H1547 H 0.29605 0.46621 0.24698 0.0
C1548 C 0.80149 0.31064 0.08199 0.0
C1549 C 0.80212 0.33651 0.07639 0.0
C1550 C 0.78065 0.29497 0.06498 0.0
C1551 C 0.73285 0.29091 0.99141 0.0
H1552 H 0.69561 0.23314 0.03055 0.0
C1553 C 0.63914 0.2269 0.92889 0.0
C1554 C 0.64255 0.20091 0.93253 0.0
C1555 C 0.65815 0.24346 0.94658 0.0
C1556 C 0.70611 0.24903 0.01922 0.0
H1557 H 0.78057 0.36622 0.04871 0.0
H1558 H 0.74345 0.33873 0.01904 0.0
H1559 H 0.72735 0.263 0.06145 0.0
H1560 H 0.66875 0.17202 0.95789 0.0
H1561 H 0.70203 0.20115 0.98921 0.0
H1562 H 0.71121 0.27697 0.94922 0.0
C1563 C 0.75966 0.33059 0.03646 0.0
C1564 C 0.72431 0.26621 0.03693 0.0
C1565 C 0.78076 0.34639 0.05357 0.0
C1566 C 0.66547 0.1919 0.95455 0.0
C1567 C 0.68442 0.20859 0.97253 0.0
C1568 C 0.71445 0.2738 0.97375 0.0
C1569 C 0.75949 0.30461 0.04188 0.0
C1570 C 0.7382 0.28729 0.02324 0.0
C1571 C 0.68104 0.23458 0.96861 0.0
C1572 C 0.701 0.25257 0.98741 0.0
H1573 H 0.81755 0.30222 0.09933 0.0
H1574 H 0.78178 0.27512 0.06953 0.0
H1575 H 0.74355 0.30663 0.97995 0.0
H1576 H 0.62176 0.23462 0.91221 0.0
H1577 H 0.65457 0.26331 0.94324 0.0
C1578 C 0.81323 0.45693 0.70121 0.0
C1579 C 0.82029 0.46177 0.6705 0.0
C1580 C 0.79402 0.47361 0.71729 0.0
C1581 C 0.76122 0.53841 0.71586 0.0
H1582 H 0.6921 0.50939 0.76124 0.0
C1583 C 0.66164 0.59994 0.76702 0.0
C1584 C 0.65417 0.59398 0.79733 0.0
C1585 C 0.6802 0.58347 0.74992 0.0
C1586 C 0.7114 0.51787 0.74887 0.0
H1587 H 0.81426 0.4884 0.63314 0.0
H1588 H 0.78141 0.51734 0.66104 0.0
H1589 H 0.73088 0.48223 0.73749 0.0
H1590 H 0.65872 0.56561 0.83283 0.0
H1591 H 0.69064 0.53727 0.80344 0.0
H1592 H 0.74192 0.57406 0.72745 0.0
C1593 C 0.79045 0.50082 0.67286 0.0
C1594 C 0.73377 0.50224 0.73537 0.0
C1595 C 0.80924 0.48413 0.65681 0.0
C1596 C 0.66408 0.57078 0.80952 0.0
C1597 C 0.68233 0.5544 0.79254 0.0
C1598 C 0.73892 0.55406 0.72948 0.0
C1599 C 0.78189 0.49554 0.70306 0.0
C1600 C 0.75903 0.51229 0.71872 0.0
C1601 C 0.69135 0.56069 0.76276 0.0
C1602 C 0.71374 0.54402 0.74629 0.0
H1603 H 0.82116 0.43976 0.71227 0.0
H1604 H 0.78818 0.46912 0.74067 0.0
H1605 H 0.7805 0.54682 0.70339 0.0
H1606 H 0.65459 0.61777 0.75713 0.0
H1607 H 0.68634 0.5888 0.72689 0.0
C1608 C 0.45227 0.9534 0.0936 0.0
C1609 C 0.43438 0.93322 0.081 0.0
C1610 C 0.46802 0.97018 0.07483 0.0
C1611 C 0.47038 0.99427 0.99523 0.0
H1612 H 0.55466 1.01869 0.02361 0.0
C1613 C 0.54838 0.05526 0.91826 0.0
C1614 C 0.56499 0.0758 0.93155 0.0
C1615 C 0.53332 0.03763 0.93647 0.0
C1616 C 0.531 1.01231 0.0155 0.0
H1617 H 0.41874 0.91519 0.0384 0.0
H1618 H 0.44665 0.94467 0.00523 0.0
H1619 H 0.52671 0.9879 0.05408 0.0
H1620 H 0.57926 0.09349 0.97475 0.0
H1621 H 0.55279 0.0625 0.00686 0.0
H1622 H 0.47472 1.01869 0.95662 0.0
C1623 C 0.4482 0.94747 0.02988 0.0
C1624 C 0.51492 0.99458 0.03295 0.0
C1625 C 0.43224 0.93054 0.04884 0.0
C1626 C 0.56679 0.07788 0.96378 0.0
C1627 C 0.55163 0.06009 0.98214 0.0
C1628 C 0.48649 1.01198 0.97774 0.0
C1629 C 0.4666 0.96739 0.04273 0.0
C1630 C 0.48428 0.9854 0.02318 0.0
C1631 C 0.53431 0.0399 0.96863 0.0
C1632 C 0.51702 1.02129 0.98764 0.0
H1633 H 0.45424 0.95633 0.11823 0.0
H1634 H 0.48119 0.98555 0.08561 0.0
H1635 H 0.44668 0.98797 0.98717 0.0
H1636 H 0.54665 0.05283 0.89354 0.0
H1637 H 0.52091 1.02212 0.92523 0.0
C1638 C 0.43739 0.36066 0.19126 0.0
C1639 C 0.42982 0.35241 0.16117 0.0
C1640 C 0.45524 0.3454 0.21195 0.0
C1641 C 0.50855 0.28958 0.21656 0.0
H1642 H 0.47606 0.28255 0.29828 0.0
C1643 C 0.55849 0.21435 0.30156 0.0
C1644 C 0.56569 0.22289 0.33159 0.0
C1645 C 0.54016 0.22915 0.2807 0.0
C1646 C 0.4856 0.2844 0.27562 0.0
H1647 H 0.43658 0.32242 0.12868 0.0
H1648 H 0.46755 0.29607 0.16445 0.0
H1649 H 0.45076 0.31223 0.26225 0.0
H1650 H 0.55773 0.25284 0.36383 0.0
H1651 H 0.52607 0.2784 0.3278 0.0
H1652 H 0.54347 0.26182 0.22995 0.0
C1653 C 0.45982 0.31419 0.17226 0.0
C1654 C 0.47119 0.30154 0.25502 0.0
C1655 C 0.44189 0.32929 0.15176 0.0
C1656 C 0.55274 0.24577 0.3408 0.0
C1657 C 0.53438 0.26041 0.32014 0.0
C1658 C 0.52299 0.27246 0.23717 0.0
C1659 C 0.46611 0.32175 0.20282 0.0
C1660 C 0.48249 0.30437 0.22523 0.0
C1661 C 0.52847 0.25262 0.28961 0.0
C1662 C 0.51176 0.26968 0.26701 0.0
H1663 H 0.42834 0.37834 0.19921 0.0
H1664 H 0.46007 0.35192 0.23524 0.0
H1665 H 0.51807 0.29145 0.19389 0.0
H1666 H 0.56822 0.19685 0.29377 0.0
H1667 H 0.53564 0.22243 0.25745 0.0
C1668 C 0.44043 0.87376 0.70576 0.0
C1669 C 0.41149 0.86691 0.68995 0.0
C1670 C 0.45999 0.85556 0.72042 0.0
C1671 C 0.47587 0.78724 0.72015 0.0
H1672 H 0.51824 0.80002 0.79968 0.0
C1673 C 0.54541 0.71055 0.79149 0.0
C1674 C 0.57442 0.71818 0.80659 0.0
C1675 C 0.52483 0.72821 0.77699 0.0
C1676 C 0.50682 0.7962 0.77732 0.0
H1677 H 0.38013 0.83556 0.67788 0.0
H1678 H 0.41376 0.80427 0.70352 0.0
H1679 H 0.48456 0.83222 0.77522 0.0
H1680 H 0.60491 0.75031 0.81737 0.0
H1681 H 0.5696 0.78058 0.79212 0.0
H1682 H 0.49822 0.75121 0.72226 0.0
C1683 C 0.42181 0.82351 0.70416 0.0
C1684 C 0.48754 0.81472 0.76327 0.0
C1685 C 0.40238 0.84158 0.68958 0.0
C1686 C 0.58262 0.74368 0.80631 0.0
C1687 C 0.56221 0.76118 0.79194 0.0
C1688 C 0.49516 0.7687 0.73421 0.0
C1689 C 0.45102 0.83016 0.71955 0.0
C1690 C 0.47187 0.81053 0.73446 0.0
C1691 C 0.53287 0.7538 0.7774 0.0
C1692 C 0.51105 0.77299 0.7629 0.0
H1693 H 0.44819 0.89306 0.70643 0.0
H1694 H 0.48246 0.86134 0.7319 0.0
H1695 H 0.46451 0.78346 0.69775 0.0
H1696 H 0.53837 0.69108 0.79132 0.0
H1697 H 0.50232 0.72189 0.76607 0.0
C1698 C 0.55232 0.61466 0.44759 0.0
C1699 C 0.55729 0.60959 0.41649 0.0
C1700 C 0.53511 0.59768 0.46542 0.0
C1701 C 0.50628 0.53152 0.46694 0.0
H1702 H 0.44155 0.55721 0.51996 0.0
C1703 C 0.41479 0.46586 0.52423 0.0
C1704 C 0.41024 0.47045 0.55551 0.0
C1705 C 0.43115 0.48336 0.50644 0.0
C1706 C 0.45966 0.54968 0.50541 0.0
H1707 H 0.54916 0.58234 0.38012 0.0
H1708 H 0.5196 0.55315 0.4108 0.0
H1709 H 0.47582 0.5862 0.49286 0.0
H1710 H 0.41783 0.49748 0.59218 0.0
H1711 H 0.44594 0.52766 0.56149 0.0
H1712 H 0.49018 0.49502 0.47947 0.0
C1713 C 0.52889 0.57 0.42171 0.0
C1714 C 0.47946 0.56635 0.48999 0.0
C1715 C 0.54575 0.58691 0.404 0.0
C1716 C 0.42097 0.49331 0.56815 0.0
C1717 C 0.437 0.51075 0.55045 0.0
C1718 C 0.48648 0.51487 0.48233 0.0
C1719 C 0.5229 0.57521 0.45255 0.0
C1720 C 0.50301 0.55751 0.47046 0.0
C1721 C 0.44298 0.50586 0.51952 0.0
C1722 C 0.46288 0.52369 0.5018 0.0
H1723 H 0.56071 0.63205 0.4578 0.0
H1724 H 0.5312 0.60221 0.4892 0.0
H1725 H 0.52442 0.52397 0.45244 0.0
H1726 H 0.407 0.44836 0.51389 0.0
H1727 H 0.43498 0.4791 0.48256 0.0
loop_
_geom_bond_atom_site_label_1
_geom_bond_atom_site_label_2
_geom_bond_distance
_geom_bond_site_symmetry_2
_ccdc_geom_bond_type
C0 C1 1.351 . S
C0 N3 1.368 . S
C0 H5 0.931 . S
C1 C0 1.351 . S
C1 N2 1.373 . S
C1 H29 0.930 . S
N2 C1 1.373 . S
N2 C4 1.340 . S
N3 C0 1.368 . S
N3 C4 1.321 . S
N3 Co6 2.135 . S
C4 N2 1.340 . S
C4 N3 1.321 . S
C4 H28 0.930 . S
H5 C0 0.931 . S
Co6 N3 2.135 . S
Co6 N9 2.121 . S
Co6 O14 2.055 . S
Co6 O17 2.039 . S
Co6 N20 2.140 . S
C7 O8 1.227 . S
C7 O17 1.265 . S
O8 C7 1.227 . S
N9 Co6 2.121 . S
N9 C11 1.375 . S
N9 C12 1.313 . S
C10 C11 1.338 . S
C10 N13 1.377 . S
C10 H30 0.930 . S
C11 N9 1.375 . S
C11 C10 1.338 . S
C11 H15 0.931 . S
C12 N9 1.313 . S
C12 N13 1.344 . S
C12 H16 0.930 . S
N13 C10 1.377 . S
N13 C12 1.344 . S
O14 Co6 2.055 . S
O14 C18 1.253 . S
H15 C11 0.931 . S
H16 C12 0.930 . S
O17 Co6 2.039 . S
O17 C7 1.265 . S
C18 O14 1.253 . S
C18 O19 1.227 . S
O19 C18 1.227 . S
N20 Co6 2.140 . S
N20 C23 1.346 . S
N20 C24 1.345 . S
C21 C22 1.387 . S
C21 C25 1.391 . S
C22 C21 1.387 . S
C22 C23 1.369 . S
C22 H31 0.929 . S
C23 N20 1.346 . S
C23 C22 1.369 . S
C23 H26 0.928 . S
C24 N20 1.345 . S
C24 C25 1.371 . S
C24 H27 0.931 . S
C25 C21 1.391 . S
C25 C24 1.371 . S
C25 H32 0.930 . S
H26 C23 0.928 . S
H27 C24 0.931 . S
H28 C4 0.930 . S
H29 C1 0.930 . S
H30 C10 0.930 . S
H31 C22 0.929 . S
H32 C25 0.930 . S
C33 C34 1.351 . S
C33 N36 1.368 . S
C33 H38 0.931 . S
C34 C33 1.351 . S
C34 N35 1.373 . S
C34 H62 0.930 . S
N35 C34 1.373 . S
N35 C37 1.340 . S
N36 C33 1.368 . S
N36 C37 1.321 . S
N36 Co39 2.135 . S
C37 N35 1.340 . S
C37 N36 1.321 . S
C37 H61 0.930 . S
H38 C33 0.931 . S
Co39 N36 2.135 . S
Co39 N42 2.121 . S
Co39 O47 2.055 . S
Co39 O50 2.039 . S
Co39 N53 2.140 . S
C40 O41 1.227 . S
C40 O50 1.265 . S
O41 C40 1.227 . S
N42 Co39 2.121 . S
N42 C44 1.375 . S
N42 C45 1.313 . S
C43 C44 1.338 . S
C43 N46 1.377 . S
C43 H63 0.930 . S
C44 N42 1.375 . S
C44 C43 1.338 . S
C44 H48 0.931 . S
C45 N42 1.313 . S
C45 N46 1.344 . S
C45 H49 0.930 . S
N46 C43 1.377 . S
N46 C45 1.344 . S
O47 Co39 2.055 . S
O47 C51 1.253 . S
H48 C44 0.931 . S
H49 C45 0.930 . S
O50 Co39 2.039 . S
O50 C40 1.265 . S
C51 O47 1.253 . S
C51 O52 1.227 . S
O52 C51 1.227 . S
N53 Co39 2.140 . S
N53 C56 1.346 . S
N53 C57 1.345 . S
C54 C55 1.387 . S
C54 C58 1.391 . S
C55 C54 1.387 . S
C55 C56 1.369 . S
C55 H64 0.929 . S
C56 N53 1.346 . S
C56 C55 1.369 . S
C56 H59 0.928 . S
C57 N53 1.345 . S
C57 C58 1.371 . S
C57 H60 0.931 . S
C58 C54 1.391 . S
C58 C57 1.371 . S
C58 H65 0.930 . S
H59 C56 0.928 . S
H60 C57 0.931 . S
H61 C37 0.930 . S
H62 C34 0.930 . S
H63 C43 0.930 . S
H64 C55 0.929 . S
H65 C58 0.930 . S
C66 C67 1.351 . S
C66 N69 1.368 . S
C66 H71 0.931 . S
C67 C66 1.351 . S
C67 N68 1.373 . S
C67 H95 0.930 . S
N68 C67 1.373 . S
N68 C70 1.340 . S
N69 C66 1.368 . S
N69 C70 1.321 . S
N69 Co72 2.135 . S
C70 N68 1.340 . S
C70 N69 1.321 . S
C70 H94 0.930 . S
H71 C66 0.931 . S
Co72 N69 2.135 . S
Co72 N75 2.121 . S
Co72 O80 2.055 . S
Co72 O83 2.039 . S
Co72 N86 2.140 . S
C73 O74 1.227 . S
C73 O83 1.265 . S
O74 C73 1.227 . S
N75 Co72 2.121 . S
N75 C77 1.375 . S
N75 C78 1.313 . S
C76 C77 1.338 . S
C76 N79 1.377 . S
C76 H96 0.930 . S
C77 N75 1.375 . S
C77 C76 1.338 . S
C77 H81 0.931 . S
C78 N75 1.313 . S
C78 N79 1.344 . S
C78 H82 0.930 . S
N79 C76 1.377 . S
N79 C78 1.344 . S
O80 Co72 2.055 . S
O80 C84 1.253 . S
H81 C77 0.931 . S
H82 C78 0.930 . S
O83 Co72 2.039 . S
O83 C73 1.265 . S
C84 O80 1.253 . S
C84 O85 1.227 . S
O85 C84 1.227 . S
N86 Co72 2.140 . S
N86 C89 1.346 . S
N86 C90 1.345 . S
C87 C88 1.387 . S
C87 C91 1.391 . S
C88 C87 1.387 . S
C88 C89 1.369 . S
C88 H97 0.929 . S
C89 N86 1.346 . S
C89 C88 1.369 . S
C89 H92 0.928 . S
C90 N86 1.345 . S
C90 C91 1.371 . S
C90 H93 0.931 . S
C91 C87 1.391 . S
C91 C90 1.371 . S
C91 H98 0.930 . S
H92 C89 0.928 . S
H93 C90 0.931 . S
H94 C70 0.930 . S
H95 C67 0.930 . S
H96 C76 0.930 . S
H97 C88 0.929 . S
H98 C91 0.930 . S
C99 C100 1.351 . S
C99 N102 1.368 . S
C99 H104 0.931 . S
C100 C99 1.351 . S
C100 N101 1.373 . S
C100 H128 0.930 . S
N101 C100 1.373 . S
N101 C103 1.340 . S
N102 C99 1.368 . S
N102 C103 1.321 . S
N102 Co105 2.135 . S
C103 N101 1.340 . S
C103 N102 1.321 . S
C103 H127 0.930 . S
H104 C99 0.931 . S
Co105 N102 2.135 . S
Co105 N108 2.121 . S
Co105 O113 2.055 . S
Co105 O116 2.039 . S
Co105 N119 2.140 . S
C106 O107 1.227 . S
C106 O116 1.265 . S
O107 C106 1.227 . S
N108 Co105 2.121 . S
N108 C110 1.375 . S
N108 C111 1.313 . S
C109 C110 1.338 . S
C109 N112 1.377 . S
C109 H129 0.930 . S
C110 N108 1.375 . S
C110 C109 1.338 . S
C110 H114 0.931 . S
C111 N108 1.313 . S
C111 N112 1.344 . S
C111 H115 0.930 . S
N112 C109 1.377 . S
N112 C111 1.344 . S
O113 Co105 2.055 . S
O113 C117 1.253 . S
H114 C110 0.931 . S
H115 C111 0.930 . S
O116 Co105 2.039 . S
O116 C106 1.265 . S
C117 O113 1.253 . S
C117 O118 1.227 . S
O118 C117 1.227 . S
N119 Co105 2.140 . S
N119 C122 1.346 . S
N119 C123 1.345 . S
C120 C121 1.387 . S
C120 C124 1.391 . S
C121 C120 1.387 . S
C121 C122 1.369 . S
C121 H130 0.929 . S
C122 N119 1.346 . S
C122 C121 1.369 . S
C122 H125 0.928 . S
C123 N119 1.345 . S
C123 C124 1.371 . S
C123 H126 0.931 . S
C124 C120 1.391 . S
C124 C123 1.371 . S
C124 H131 0.930 . S
H125 C122 0.928 . S
H126 C123 0.931 . S
H127 C103 0.930 . S
H128 C100 0.930 . S
H129 C109 0.930 . S
H130 C121 0.929 . S
H131 C124 0.930 . S
C132 C133 1.351 . S
C132 N135 1.368 . S
C132 H137 0.931 . S
C133 C132 1.351 . S
C133 N134 1.373 . S
C133 H161 0.930 . S
N134 C133 1.373 . S
N134 C136 1.340 . S
N135 C132 1.368 . S
N135 C136 1.321 . S
N135 Co138 2.135 . S
C136 N134 1.340 . S
C136 N135 1.321 . S
C136 H160 0.930 . S
H137 C132 0.931 . S
Co138 N135 2.135 . S
Co138 N141 2.121 . S
Co138 O146 2.055 . S
Co138 O149 2.039 . S
Co138 N152 2.140 . S
C139 O140 1.227 . S
C139 O149 1.265 . S
O140 C139 1.227 . S
N141 Co138 2.121 . S
N141 C143 1.375 . S
N141 C144 1.313 . S
C142 C143 1.338 . S
C142 N145 1.377 . S
C142 H162 0.930 . S
C143 N141 1.375 . S
C143 C142 1.338 . S
C143 H147 0.931 . S
C144 N141 1.313 . S
C144 N145 1.344 . S
C144 H148 0.930 . S
N145 C142 1.377 . S
N145 C144 1.344 . S
O146 Co138 2.055 . S
O146 C150 1.253 . S
H147 C143 0.931 . S
H148 C144 0.930 . S
O149 Co138 2.039 . S
O149 C139 1.265 . S
C150 O146 1.253 . S
C150 O151 1.227 . S
O151 C150 1.227 . S
N152 Co138 2.140 . S
N152 C155 1.346 . S
N152 C156 1.345 . S
C153 C154 1.387 . S
C153 C157 1.391 . S
C154 C153 1.387 . S
C154 C155 1.369 . S
C154 H163 0.929 . S
C155 N152 1.346 . S
C155 C154 1.369 . S
C155 H158 0.928 . S
C156 N152 1.345 . S
C156 C157 1.371 . S
C156 H159 0.931 . S
C157 C153 1.391 . S
C157 C156 1.371 . S
C157 H164 0.930 . S
H158 C155 0.928 . S
H159 C156 0.931 . S
H160 C136 0.930 . S
H161 C133 0.930 . S
H162 C142 0.930 . S
H163 C154 0.929 . S
H164 C157 0.930 . S
C165 C166 1.351 . S
C165 N168 1.368 . S
C165 H170 0.931 . S
C166 C165 1.351 . S
C166 N167 1.373 . S
C166 H194 0.930 . S
N167 C166 1.373 . S
N167 C169 1.340 . S
N168 C165 1.368 . S
N168 C169 1.321 . S
N168 Co171 2.135 . S
C169 N167 1.340 . S
C169 N168 1.321 . S
C169 H193 0.930 . S
H170 C165 0.931 . S
Co171 N168 2.135 . S
Co171 N174 2.121 . S
Co171 O179 2.055 . S
Co171 O182 2.039 . S
Co171 N185 2.140 . S
C172 O173 1.227 . S
C172 O182 1.265 . S
O173 C172 1.227 . S
N174 Co171 2.121 . S
N174 C176 1.375 . S
N174 C177 1.313 . S
C175 C176 1.338 . S
C175 N178 1.377 . S
C175 H195 0.930 . S
C176 N174 1.375 . S
C176 C175 1.338 . S
C176 H180 0.931 . S
C177 N174 1.313 . S
C177 N178 1.344 . S
C177 H181 0.930 . S
N178 C175 1.377 . S
N178 C177 1.344 . S
O179 Co171 2.055 . S
O179 C183 1.253 . S
H180 C176 0.931 . S
H181 C177 0.930 . S
O182 Co171 2.039 . S
O182 C172 1.265 . S
C183 O179 1.253 . S
C183 O184 1.227 . S
O184 C183 1.227 . S
N185 Co171 2.140 . S
N185 C188 1.346 . S
N185 C189 1.345 . S
C186 C187 1.387 . S
C186 C190 1.391 . S
C187 C186 1.387 . S
C187 C188 1.369 . S
C187 H196 0.929 . S
C188 N185 1.346 . S
C188 C187 1.369 . S
C188 H191 0.928 . S
C189 N185 1.345 . S
C189 C190 1.371 . S
C189 H192 0.931 . S
C190 C186 1.391 . S
C190 C189 1.371 . S
C190 H197 0.930 . S
H191 C188 0.928 . S
H192 C189 0.931 . S
H193 C169 0.930 . S
H194 C166 0.930 . S
H195 C175 0.930 . S
H196 C187 0.929 . S
H197 C190 0.930 . S
C198 C199 1.351 . S
C198 N201 1.368 . S
C198 H203 0.931 . S
C199 C198 1.351 . S
C199 N200 1.373 . S
C199 H227 0.930 . S
N200 C199 1.373 . S
N200 C202 1.340 . S
N201 C198 1.368 . S
N201 C202 1.321 . S
N201 Co204 2.135 . S
C202 N200 1.340 . S
C202 N201 1.321 . S
C202 H226 0.930 . S
H203 C198 0.931 . S
Co204 N201 2.135 . S
Co204 N207 2.121 . S
Co204 O212 2.055 . S
Co204 O215 2.039 . S
Co204 N218 2.140 . S
C205 O206 1.227 . S
C205 O215 1.265 . S
O206 C205 1.227 . S
N207 Co204 2.121 . S
N207 C209 1.375 . S
N207 C210 1.313 . S
C208 C209 1.338 . S
C208 N211 1.377 . S
C208 H228 0.930 . S
C209 N207 1.375 . S
C209 C208 1.338 . S
C209 H213 0.931 . S
C210 N207 1.313 . S
C210 N211 1.344 . S
C210 H214 0.930 . S
N211 C208 1.377 . S
N211 C210 1.344 . S
O212 Co204 2.055 . S
O212 C216 1.253 . S
H213 C209 0.931 . S
H214 C210 0.930 . S
O215 Co204 2.039 . S
O215 C205 1.265 . S
C216 O212 1.253 . S
C216 O217 1.227 . S
O217 C216 1.227 . S
N218 Co204 2.140 . S
N218 C221 1.346 . S
N218 C222 1.345 . S
C219 C220 1.387 . S
C219 C223 1.391 . S
C220 C219 1.387 . S
C220 C221 1.369 . S
C220 H229 0.929 . S
C221 N218 1.346 . S
C221 C220 1.369 . S
C221 H224 0.928 . S
C222 N218 1.345 . S
C222 C223 1.371 . S
C222 H225 0.931 . S
C223 C219 1.391 . S
C223 C222 1.371 . S
C223 H230 0.930 . S
H224 C221 0.928 . S
H225 C222 0.931 . S
H226 C202 0.930 . S
H227 C199 0.930 . S
H228 C208 0.930 . S
H229 C220 0.929 . S
H230 C223 0.930 . S
C231 C232 1.351 . S
C231 N234 1.368 . S
C231 H236 0.931 . S
C232 C231 1.351 . S
C232 N233 1.373 . S
C232 H260 0.930 . S
N233 C232 1.373 . S
N233 C235 1.340 . S
N234 C231 1.368 . S
N234 C235 1.321 . S
N234 Co237 2.135 . S
C235 N233 1.340 . S
C235 N234 1.321 . S
C235 H259 0.930 . S
H236 C231 0.931 . S
Co237 N234 2.135 . S
Co237 N240 2.121 . S
Co237 O245 2.055 . S
Co237 O248 2.039 . S
Co237 N251 2.140 . S
C238 O239 1.227 . S
C238 O248 1.265 . S
O239 C238 1.227 . S
N240 Co237 2.121 . S
N240 C242 1.375 . S
N240 C243 1.313 . S
C241 C242 1.338 . S
C241 N244 1.377 . S
C241 H261 0.930 . S
C242 N240 1.375 . S
C242 C241 1.338 . S
C242 H246 0.931 . S
C243 N240 1.313 . S
C243 N244 1.344 . S
C243 H247 0.930 . S
N244 C241 1.377 . S
N244 C243 1.344 . S
O245 Co237 2.055 . S
O245 C249 1.253 . S
H246 C242 0.931 . S
H247 C243 0.930 . S
O248 Co237 2.039 . S
O248 C238 1.265 . S
C249 O245 1.253 . S
C249 O250 1.227 . S
O250 C249 1.227 . S
N251 Co237 2.140 . S
N251 C254 1.346 . S
N251 C255 1.345 . S
C252 C253 1.387 . S
C252 C256 1.391 . S
C253 C252 1.387 . S
C253 C254 1.369 . S
C253 H262 0.929 . S
C254 N251 1.346 . S
C254 C253 1.369 . S
C254 H257 0.928 . S
C255 N251 1.345 . S
C255 C256 1.371 . S
C255 H258 0.931 . S
C256 C252 1.391 . S
C256 C255 1.371 . S
C256 H263 0.930 . S
H257 C254 0.928 . S
H258 C255 0.931 . S
H259 C235 0.930 . S
H260 C232 0.930 . S
H261 C241 0.930 . S
H262 C253 0.929 . S
H263 C256 0.930 . S
C264 C265 1.351 . S
C264 N267 1.368 . S
C264 H269 0.931 . S
C265 C264 1.351 . S
C265 N266 1.373 . S
C265 H293 0.930 . S
N266 C265 1.373 . S
N266 C268 1.340 . S
N267 C264 1.368 . S
N267 C268 1.321 . S
N267 Co270 2.135 . S
C268 N266 1.340 . S
C268 N267 1.321 . S
C268 H292 0.930 . S
H269 C264 0.931 . S
Co270 N267 2.135 . S
Co270 N273 2.121 . S
Co270 O278 2.055 . S
Co270 O281 2.039 . S
Co270 N284 2.140 . S
C271 O272 1.227 . S
C271 O281 1.265 . S
O272 C271 1.227 . S
N273 Co270 2.121 . S
N273 C275 1.375 . S
N273 C276 1.313 . S
C274 C275 1.338 . S
C274 N277 1.377 . S
C274 H294 0.930 . S
C275 N273 1.375 . S
C275 C274 1.338 . S
C275 H279 0.931 . S
C276 N273 1.313 . S
C276 N277 1.344 . S
C276 H280 0.930 . S
N277 C274 1.377 . S
N277 C276 1.344 . S
O278 Co270 2.055 . S
O278 C282 1.253 . S
H279 C275 0.931 . S
H280 C276 0.930 . S
O281 Co270 2.039 . S
O281 C271 1.265 . S
C282 O278 1.253 . S
C282 O283 1.227 . S
O283 C282 1.227 . S
N284 Co270 2.140 . S
N284 C287 1.346 . S
N284 C288 1.345 . S
C285 C286 1.387 . S
C285 C289 1.391 . S
C286 C285 1.387 . S
C286 C287 1.369 . S
C286 H295 0.929 . S
C287 N284 1.346 . S
C287 C286 1.369 . S
C287 H290 0.928 . S
C288 N284 1.345 . S
C288 C289 1.371 . S
C288 H291 0.931 . S
C289 C285 1.391 . S
C289 C288 1.371 . S
C289 H296 0.930 . S
H290 C287 0.928 . S
H291 C288 0.931 . S
H292 C268 0.930 . S
H293 C265 0.930 . S
H294 C274 0.930 . S
H295 C286 0.929 . S
H296 C289 0.930 . S
C297 C298 1.351 . S
C297 N300 1.368 . S
C297 H302 0.931 . S
C298 C297 1.351 . S
C298 N299 1.373 . S
C298 H326 0.930 . S
N299 C298 1.373 . S
N299 C301 1.340 . S
N300 C297 1.368 . S
N300 C301 1.321 . S
N300 Co303 2.135 . S
C301 N299 1.340 . S
C301 N300 1.321 . S
C301 H325 0.930 . S
H302 C297 0.931 . S
Co303 N300 2.135 . S
Co303 N306 2.121 . S
Co303 O311 2.055 . S
Co303 O314 2.039 . S
Co303 N317 2.140 . S
C304 O305 1.227 . S
C304 O314 1.265 . S
O305 C304 1.227 . S
N306 Co303 2.121 . S
N306 C308 1.375 . S
N306 C309 1.313 . S
C307 C308 1.338 . S
C307 N310 1.377 . S
C307 H327 0.930 . S
C308 N306 1.375 . S
C308 C307 1.338 . S
C308 H312 0.931 . S
C309 N306 1.313 . S
C309 N310 1.344 . S
C309 H313 0.930 . S
N310 C307 1.377 . S
N310 C309 1.344 . S
O311 Co303 2.055 . S
O311 C315 1.253 . S
H312 C308 0.931 . S
H313 C309 0.930 . S
O314 Co303 2.039 . S
O314 C304 1.265 . S
C315 O311 1.253 . S
C315 O316 1.227 . S
O316 C315 1.227 . S
N317 Co303 2.140 . S
N317 C320 1.346 . S
N317 C321 1.345 . S
C318 C319 1.387 . S
C318 C322 1.391 . S
C319 C318 1.387 . S
C319 C320 1.369 . S
C319 H328 0.929 . S
C320 N317 1.346 . S
C320 C319 1.369 . S
C320 H323 0.928 . S
C321 N317 1.345 . S
C321 C322 1.371 . S
C321 H324 0.931 . S
C322 C318 1.391 . S
C322 C321 1.371 . S
C322 H329 0.930 . S
H323 C320 0.928 . S
H324 C321 0.931 . S
H325 C301 0.930 . S
H326 C298 0.930 . S
H327 C307 0.930 . S
H328 C319 0.929 . S
H329 C322 0.930 . S
C330 C331 1.351 . S
C330 N333 1.368 . S
C330 H335 0.931 . S
C331 C330 1.351 . S
C331 N332 1.373 . S
C331 H359 0.930 . S
N332 C331 1.373 . S
N332 C334 1.340 . S
N333 C330 1.368 . S
N333 C334 1.321 . S
N333 Co336 2.135 . S
C334 N332 1.340 . S
C334 N333 1.321 . S
C334 H358 0.930 . S
H335 C330 0.931 . S
Co336 N333 2.135 . S
Co336 N339 2.121 . S
Co336 O344 2.055 . S
Co336 O347 2.039 . S
Co336 N350 2.140 . S
C337 O338 1.227 . S
C337 O347 1.265 . S
O338 C337 1.227 . S
N339 Co336 2.121 . S
N339 C341 1.375 . S
N339 C342 1.313 . S
C340 C341 1.338 . S
C340 N343 1.377 . S
C340 H360 0.930 . S
C341 N339 1.375 . S
C341 C340 1.338 . S
C341 H345 0.931 . S
C342 N339 1.313 . S
C342 N343 1.344 . S
C342 H346 0.930 . S
N343 C340 1.377 . S
N343 C342 1.344 . S
O344 Co336 2.055 . S
O344 C348 1.253 . S
H345 C341 0.931 . S
H346 C342 0.930 . S
O347 Co336 2.039 . S
O347 C337 1.265 . S
C348 O344 1.253 . S
C348 O349 1.227 . S
O349 C348 1.227 . S
N350 Co336 2.140 . S
N350 C353 1.346 . S
N350 C354 1.345 . S
C351 C352 1.387 . S
C351 C355 1.391 . S
C352 C351 1.387 . S
C352 C353 1.369 . S
C352 H361 0.929 . S
C353 N350 1.346 . S
C353 C352 1.369 . S
C353 H356 0.928 . S
C354 N350 1.345 . S
C354 C355 1.371 . S
C354 H357 0.931 . S
C355 C351 1.391 . S
C355 C354 1.371 . S
C355 H362 0.930 . S
H356 C353 0.928 . S
H357 C354 0.931 . S
H358 C334 0.930 . S
H359 C331 0.930 . S
H360 C340 0.930 . S
H361 C352 0.929 . S
H362 C355 0.930 . S
C363 C364 1.351 . S
C363 N366 1.368 . S
C363 H368 0.931 . S
C364 C363 1.351 . S
C364 N365 1.373 . S
C364 H392 0.930 . S
N365 C364 1.373 . S
N365 C367 1.340 . S
N366 C363 1.368 . S
N366 C367 1.321 . S
N366 Co369 2.135 . S
C367 N365 1.340 . S
C367 N366 1.321 . S
C367 H391 0.930 . S
H368 C363 0.931 . S
Co369 N366 2.135 . S
Co369 N372 2.121 . S
Co369 O377 2.055 . S
Co369 O380 2.039 . S
Co369 N383 2.140 . S
C370 O371 1.227 . S
C370 O380 1.265 . S
O371 C370 1.227 . S
N372 Co369 2.121 . S
N372 C374 1.375 . S
N372 C375 1.313 . S
C373 C374 1.338 . S
C373 N376 1.377 . S
C373 H393 0.930 . S
C374 N372 1.375 . S
C374 C373 1.338 . S
C374 H378 0.931 . S
C375 N372 1.313 . S
C375 N376 1.344 . S
C375 H379 0.930 . S
N376 C373 1.377 . S
N376 C375 1.344 . S
O377 Co369 2.055 . S
O377 C381 1.253 . S
H378 C374 0.931 . S
H379 C375 0.930 . S
O380 Co369 2.039 . S
O380 C370 1.265 . S
C381 O377 1.253 . S
C381 O382 1.227 . S
O382 C381 1.227 . S
N383 Co369 2.140 . S
N383 C386 1.346 . S
N383 C387 1.345 . S
C384 C385 1.387 . S
C384 C388 1.391 . S
C385 C384 1.387 . S
C385 C386 1.369 . S
C385 H394 0.929 . S
C386 N383 1.346 . S
C386 C385 1.369 . S
C386 H389 0.928 . S
C387 N383 1.345 . S
C387 C388 1.371 . S
C387 H390 0.931 . S
C388 C384 1.391 . S
C388 C387 1.371 . S
C388 H395 0.930 . S
H389 C386 0.928 . S
H390 C387 0.931 . S
H391 C367 0.930 . S
H392 C364 0.930 . S
H393 C373 0.930 . S
H394 C385 0.929 . S
H395 C388 0.930 . S
C396 C397 1.351 . S
C396 N399 1.368 . S
C396 H401 0.931 . S
C397 C396 1.351 . S
C397 N398 1.373 . S
C397 H425 0.930 . S
N398 C397 1.373 . S
N398 C400 1.340 . S
N399 C396 1.368 . S
N399 C400 1.321 . S
N399 Co402 2.135 . S
C400 N398 1.340 . S
C400 N399 1.321 . S
C400 H424 0.930 . S
H401 C396 0.931 . S
Co402 N399 2.135 . S
Co402 N405 2.121 . S
Co402 O410 2.055 . S
Co402 O413 2.039 . S
Co402 N416 2.140 . S
C403 O404 1.227 . S
C403 O413 1.265 . S
O404 C403 1.227 . S
N405 Co402 2.121 . S
N405 C407 1.375 . S
N405 C408 1.313 . S
C406 C407 1.338 . S
C406 N409 1.377 . S
C406 H426 0.930 . S
C407 N405 1.375 . S
C407 C406 1.338 . S
C407 H411 0.931 . S
C408 N405 1.313 . S
C408 N409 1.344 . S
C408 H412 0.930 . S
N409 C406 1.377 . S
N409 C408 1.344 . S
O410 Co402 2.055 . S
O410 C414 1.253 . S
H411 C407 0.931 . S
H412 C408 0.930 . S
O413 Co402 2.039 . S
O413 C403 1.265 . S
C414 O410 1.253 . S
C414 O415 1.227 . S
O415 C414 1.227 . S
N416 Co402 2.140 . S
N416 C419 1.346 . S
N416 C420 1.345 . S
C417 C418 1.387 . S
C417 C421 1.391 . S
C418 C417 1.387 . S
C418 C419 1.369 . S
C418 H427 0.929 . S
C419 N416 1.346 . S
C419 C418 1.369 . S
C419 H422 0.928 . S
C420 N416 1.345 . S
C420 C421 1.371 . S
C420 H423 0.931 . S
C421 C417 1.391 . S
C421 C420 1.371 . S
C421 H428 0.930 . S
H422 C419 0.928 . S
H423 C420 0.931 . S
H424 C400 0.930 . S
H425 C397 0.930 . S
H426 C406 0.930 . S
H427 C418 0.929 . S
H428 C421 0.930 . S
C429 C430 1.351 . S
C429 N432 1.368 . S
C429 H434 0.931 . S
C430 C429 1.351 . S
C430 N431 1.373 . S
C430 H458 0.930 . S
N431 C430 1.373 . S
N431 C433 1.340 . S
N432 C429 1.368 . S
N432 C433 1.321 . S
N432 Co435 2.135 . S
C433 N431 1.340 . S
C433 N432 1.321 . S
C433 H457 0.930 . S
H434 C429 0.931 . S
Co435 N432 2.135 . S
Co435 N438 2.121 . S
Co435 O443 2.055 . S
Co435 O446 2.039 . S
Co435 N449 2.140 . S
C436 O437 1.227 . S
C436 O446 1.265 . S
O437 C436 1.227 . S
N438 Co435 2.121 . S
N438 C440 1.375 . S
N438 C441 1.313 . S
C439 C440 1.338 . S
C439 N442 1.377 . S
C439 H459 0.930 . S
C440 N438 1.375 . S
C440 C439 1.338 . S
C440 H444 0.931 . S
C441 N438 1.313 . S
C441 N442 1.344 . S
C441 H445 0.930 . S
N442 C439 1.377 . S
N442 C441 1.344 . S
O443 Co435 2.055 . S
O443 C447 1.253 . S
H444 C440 0.931 . S
H445 C441 0.930 . S
O446 Co435 2.039 . S
O446 C436 1.265 . S
C447 O443 1.253 . S
C447 O448 1.227 . S
O448 C447 1.227 . S
N449 Co435 2.140 . S
N449 C452 1.346 . S
N449 C453 1.345 . S
C450 C451 1.387 . S
C450 C454 1.391 . S
C451 C450 1.387 . S
C451 C452 1.369 . S
C451 H460 0.929 . S
C452 N449 1.346 . S
C452 C451 1.369 . S
C452 H455 0.928 . S
C453 N449 1.345 . S
C453 C454 1.371 . S
C453 H456 0.931 . S
C454 C450 1.391 . S
C454 C453 1.371 . S
C454 H461 0.930 . S
H455 C452 0.928 . S
H456 C453 0.931 . S
H457 C433 0.930 . S
H458 C430 0.930 . S
H459 C439 0.930 . S
H460 C451 0.929 . S
H461 C454 0.930 . S
C462 C463 1.351 . S
C462 N465 1.368 . S
C462 H467 0.931 . S
C463 C462 1.351 . S
C463 N464 1.373 . S
C463 H491 0.930 . S
N464 C463 1.373 . S
N464 C466 1.340 . S
N465 C462 1.368 . S
N465 C466 1.321 . S
N465 Co468 2.135 . S
C466 N464 1.340 . S
C466 N465 1.321 . S
C466 H490 0.930 . S
H467 C462 0.931 . S
Co468 N465 2.135 . S
Co468 N471 2.121 . S
Co468 O476 2.055 . S
Co468 O479 2.039 . S
Co468 N482 2.140 . S
C469 O470 1.227 . S
C469 O479 1.265 . S
O470 C469 1.227 . S
N471 Co468 2.121 . S
N471 C473 1.375 . S
N471 C474 1.313 . S
C472 C473 1.338 . S
C472 N475 1.377 . S
C472 H492 0.930 . S
C473 N471 1.375 . S
C473 C472 1.338 . S
C473 H477 0.931 . S
C474 N471 1.313 . S
C474 N475 1.344 . S
C474 H478 0.930 . S
N475 C472 1.377 . S
N475 C474 1.344 . S
O476 Co468 2.055 . S
O476 C480 1.253 . S
H477 C473 0.931 . S
H478 C474 0.930 . S
O479 Co468 2.039 . S
O479 C469 1.265 . S
C480 O476 1.253 . S
C480 O481 1.227 . S
O481 C480 1.227 . S
N482 Co468 2.140 . S
N482 C485 1.346 . S
N482 C486 1.345 . S
C483 C484 1.387 . S
C483 C487 1.391 . S
C484 C483 1.387 . S
C484 C485 1.369 . S
C484 H493 0.929 . S
C485 N482 1.346 . S
C485 C484 1.369 . S
C485 H488 0.928 . S
C486 N482 1.345 . S
C486 C487 1.371 . S
C486 H489 0.931 . S
C487 C483 1.391 . S
C487 C486 1.371 . S
C487 H494 0.930 . S
H488 C485 0.928 . S
H489 C486 0.931 . S
H490 C466 0.930 . S
H491 C463 0.930 . S
H492 C472 0.930 . S
H493 C484 0.929 . S
H494 C487 0.930 . S
C495 C496 1.351 . S
C495 N498 1.368 . S
C495 H500 0.931 . S
C496 C495 1.351 . S
C496 N497 1.373 . S
C496 H524 0.930 . S
N497 C496 1.373 . S
N497 C499 1.340 . S
N498 C495 1.368 . S
N498 C499 1.321 . S
N498 Co501 2.135 . S
C499 N497 1.340 . S
C499 N498 1.321 . S
C499 H523 0.930 . S
H500 C495 0.931 . S
Co501 N498 2.135 . S
Co501 N504 2.121 . S
Co501 O509 2.055 . S
Co501 O512 2.039 . S
Co501 N515 2.140 . S
C502 O503 1.227 . S
C502 O512 1.265 . S
O503 C502 1.227 . S
N504 Co501 2.121 . S
N504 C506 1.375 . S
N504 C507 1.313 . S
C505 C506 1.338 . S
C505 N508 1.377 . S
C505 H525 0.930 . S
C506 N504 1.375 . S
C506 C505 1.338 . S
C506 H510 0.931 . S
C507 N504 1.313 . S
C507 N508 1.344 . S
C507 H511 0.930 . S
N508 C505 1.377 . S
N508 C507 1.344 . S
O509 Co501 2.055 . S
O509 C513 1.253 . S
H510 C506 0.931 . S
H511 C507 0.930 . S
O512 Co501 2.039 . S
O512 C502 1.265 . S
C513 O509 1.253 . S
C513 O514 1.227 . S
O514 C513 1.227 . S
N515 Co501 2.140 . S
N515 C518 1.346 . S
N515 C519 1.345 . S
C516 C517 1.387 . S
C516 C520 1.391 . S
C517 C516 1.387 . S
C517 C518 1.369 . S
C517 H526 0.929 . S
C518 N515 1.346 . S
C518 C517 1.369 . S
C518 H521 0.928 . S
C519 N515 1.345 . S
C519 C520 1.371 . S
C519 H522 0.931 . S
C520 C516 1.391 . S
C520 C519 1.371 . S
C520 H527 0.930 . S
H521 C518 0.928 . S
H522 C519 0.931 . S
H523 C499 0.930 . S
H524 C496 0.930 . S
H525 C505 0.930 . S
H526 C517 0.929 . S
H527 C520 0.930 . S
C528 C529 1.349 . S
C528 C530 1.327 . S
C528 H553 0.950 . S
C529 C528 1.349 . S
C529 C545 1.349 . S
C530 C528 1.327 . S
C530 C549 1.429 . S
C530 H554 0.950 . S
C531 C548 1.574 . S
C531 C550 1.368 . S
C531 H555 0.949 . S
H532 C536 0.949 . S
C533 C534 1.349 . S
C533 C535 1.327 . S
C533 H556 0.950 . S
C534 C533 1.349 . S
C534 C546 1.349 . S
C535 C533 1.327 . S
C535 C551 1.429 . S
C535 H557 0.950 . S
C536 H532 0.949 . S
C536 C544 1.574 . S
C536 C552 1.368 . S
H537 C545 0.950 . S
H538 C543 0.950 . S
H539 C544 0.949 . S
H540 C546 0.950 . S
H541 C547 0.950 . S
H542 C548 0.949 . S
C543 H538 0.950 . S
C543 C545 1.327 . S
C543 C549 1.429 . S
C544 C536 1.574 . S
C544 H539 0.949 . S
C544 C550 1.368 . S
C545 C529 1.349 . S
C545 H537 0.950 . S
C545 C543 1.327 . S
C546 C534 1.349 . S
C546 H540 0.950 . S
C546 C547 1.327 . S
C547 H541 0.950 . S
C547 C546 1.327 . S
C547 C551 1.429 . S
C548 C531 1.574 . S
C548 H542 0.949 . S
C548 C552 1.368 . S
C549 C530 1.429 . S
C549 C543 1.429 . S
C549 C550 1.523 . S
C550 C531 1.368 . S
C550 C544 1.368 . S
C550 C549 1.523 . S
C551 C535 1.429 . S
C551 C547 1.429 . S
C551 C552 1.523 . S
C552 C536 1.368 . S
C552 C548 1.368 . S
C552 C551 1.523 . S
H553 C528 0.950 . S
H554 C530 0.950 . S
H555 C531 0.949 . S
H556 C533 0.950 . S
H557 C535 0.950 . S
C558 C559 1.349 1_655 S
C558 C560 1.327 . S
C558 H583 0.950 1_655 S
C559 C558 1.349 1_455 S
C559 C575 1.349 1_455 S
C560 C558 1.327 . S
C560 C579 1.429 . S
C560 H584 0.950 . S
C561 C578 1.574 . S
C561 C580 1.368 . S
C561 H585 0.949 . S
H562 C566 0.949 . S
C563 C564 1.349 . S
C563 C565 1.327 . S
C563 H586 0.950 . S
C564 C563 1.349 . S
C564 C576 1.349 . S
C565 C563 1.327 . S
C565 C581 1.429 . S
C565 H587 0.950 . S
C566 H562 0.949 . S
C566 C574 1.574 . S
C566 C582 1.368 . S
H567 C575 0.950 1_455 S
H568 C573 0.950 . S
H569 C574 0.949 . S
H570 C576 0.950 . S
H571 C577 0.950 . S
H572 C578 0.949 . S
C573 H568 0.950 . S
C573 C575 1.327 . S
C573 C579 1.429 . S
C574 C566 1.574 . S
C574 H569 0.949 . S
C574 C580 1.368 . S
C575 C559 1.349 1_655 S
C575 H567 0.950 1_655 S
C575 C573 1.327 . S
C576 C564 1.349 . S
C576 H570 0.950 . S
C576 C577 1.327 . S
C577 H571 0.950 . S
C577 C576 1.327 . S
C577 C581 1.429 . S
C578 C561 1.574 . S
C578 H572 0.949 . S
C578 C582 1.368 . S
C579 C560 1.429 . S
C579 C573 1.429 . S
C579 C580 1.523 . S
C580 C561 1.368 . S
C580 C574 1.368 . S
C580 C579 1.523 . S
C581 C565 1.429 . S
C581 C577 1.429 . S
C581 C582 1.523 . S
C582 C566 1.368 . S
C582 C578 1.368 . S
C582 C581 1.523 . S
H583 C558 0.950 1_455 S
H584 C560 0.950 . S
H585 C561 0.949 . S
H586 C563 0.950 . S
H587 C565 0.950 . S
C588 C589 1.349 . S
C588 C590 1.327 . S
C588 H613 0.950 . S
C589 C588 1.349 . S
C589 C605 1.349 . S
C590 C588 1.327 . S
C590 C609 1.429 . S
C590 H614 0.950 . S
C591 C608 1.574 . S
C591 C610 1.368 . S
C591 H615 0.949 . S
H592 C596 0.949 . S
C593 C594 1.349 . S
C593 C595 1.327 . S
C593 H616 0.950 . S
C594 C593 1.349 . S
C594 C606 1.349 . S
C595 C593 1.327 . S
C595 C611 1.429 . S
C595 H617 0.950 . S
C596 H592 0.949 . S
C596 C604 1.574 . S
C596 C612 1.368 . S
H597 C605 0.950 . S
H598 C603 0.950 . S
H599 C604 0.949 . S
H600 C606 0.950 . S
H601 C607 0.950 . S
H602 C608 0.949 . S
C603 H598 0.950 . S
C603 C605 1.327 . S
C603 C609 1.429 . S
C604 C596 1.574 . S
C604 H599 0.949 . S
C604 C610 1.368 . S
C605 C589 1.349 . S
C605 H597 0.950 . S
C605 C603 1.327 . S
C606 C594 1.349 . S
C606 H600 0.950 . S
C606 C607 1.327 . S
C607 H601 0.950 . S
C607 C606 1.327 . S
C607 C611 1.429 . S
C608 C591 1.574 . S
C608 H602 0.949 . S
C608 C612 1.368 . S
C609 C590 1.429 . S
C609 C603 1.429 . S
C609 C610 1.523 . S
C610 C591 1.368 . S
C610 C604 1.368 . S
C610 C609 1.523 . S
C611 C595 1.429 . S
C611 C607 1.429 . S
C611 C612 1.523 . S
C612 C596 1.368 . S
C612 C608 1.368 . S
C612 C611 1.523 . S
H613 C588 0.950 . S
H614 C590 0.950 . S
H615 C591 0.949 . S
H616 C593 0.950 . S
H617 C595 0.950 . S
C618 C619 1.349 1_655 S
C618 C620 1.327 . S
C618 H643 0.950 1_655 S
C619 C618 1.349 1_455 S
C619 C635 1.349 1_455 S
C620 C618 1.327 . S
C620 C639 1.429 . S
C620 H644 0.950 . S
C621 C638 1.574 . S
C621 C640 1.368 . S
C621 H645 0.949 . S
H622 C626 0.949 . S
C623 C624 1.349 . S
C623 C625 1.327 . S
C623 H646 0.950 . S
C624 C623 1.349 . S
C624 C636 1.349 . S
C625 C623 1.327 . S
C625 C641 1.429 . S
C625 H647 0.950 . S
C626 H622 0.949 . S
C626 C634 1.574 . S
C626 C642 1.368 . S
H627 C635 0.950 1_455 S
H628 C633 0.950 . S
H629 C634 0.949 . S
H630 C636 0.950 . S
H631 C637 0.950 . S
H632 C638 0.949 . S
C633 H628 0.950 . S
C633 C635 1.327 . S
C633 C639 1.429 . S
C634 C626 1.574 . S
C634 H629 0.949 . S
C634 C640 1.368 . S
C635 C619 1.349 1_655 S
C635 H627 0.950 1_655 S
C635 C633 1.327 . S
C636 C624 1.349 . S
C636 H630 0.950 . S
C636 C637 1.327 . S
C637 H631 0.950 . S
C637 C636 1.327 . S
C637 C641 1.429 . S
C638 C621 1.574 . S
C638 H632 0.949 . S
C638 C642 1.368 . S
C639 C620 1.429 . S
C639 C633 1.429 . S
C639 C640 1.523 . S
C640 C621 1.368 . S
C640 C634 1.368 . S
C640 C639 1.523 . S
C641 C625 1.429 . S
C641 C637 1.429 . S
C641 C642 1.523 . S
C642 C626 1.368 . S
C642 C638 1.368 . S
C642 C641 1.523 . S
H643 C618 0.950 1_455 S
H644 C620 0.950 . S
H645 C621 0.949 . S
H646 C623 0.950 . S
H647 C625 0.950 . S
C648 C649 1.349 . S
C648 C650 1.327 . S
C648 H673 0.950 . S
C649 C648 1.349 . S
C649 C665 1.349 . S
C650 C648 1.327 . S
C650 C669 1.429 . S
C650 H674 0.950 . S
C651 C668 1.574 . S
C651 C670 1.368 . S
C651 H675 0.949 . S
H652 C656 0.949 . S
C653 C654 1.349 . S
C653 C655 1.327 . S
C653 H676 0.950 . S
C654 C653 1.349 . S
C654 C666 1.349 . S
C655 C653 1.327 . S
C655 C671 1.429 . S
C655 H677 0.950 . S
C656 H652 0.949 . S
C656 C664 1.574 . S
C656 C672 1.368 . S
H657 C665 0.950 . S
H658 C663 0.950 . S
H659 C664 0.949 . S
H660 C666 0.950 . S
H661 C667 0.950 . S
H662 C668 0.949 . S
C663 H658 0.950 . S
C663 C665 1.327 . S
C663 C669 1.429 . S
C664 C656 1.574 . S
C664 H659 0.949 . S
C664 C670 1.368 . S
C665 C649 1.349 . S
C665 H657 0.950 . S
C665 C663 1.327 . S
C666 C654 1.349 . S
C666 H660 0.950 . S
C666 C667 1.327 . S
C667 H661 0.950 . S
C667 C666 1.327 . S
C667 C671 1.429 . S
C668 C651 1.574 . S
C668 H662 0.949 . S
C668 C672 1.368 . S
C669 C650 1.429 . S
C669 C663 1.429 . S
C669 C670 1.523 . S
C670 C651 1.368 . S
C670 C664 1.368 . S
C670 C669 1.523 . S
C671 C655 1.429 . S
C671 C667 1.429 . S
C671 C672 1.523 . S
C672 C656 1.368 . S
C672 C668 1.368 . S
C672 C671 1.523 . S
H673 C648 0.950 . S
H674 C650 0.950 . S
H675 C651 0.949 . S
H676 C653 0.950 . S
H677 C655 0.950 . S
C678 C679 1.349 1_455 S
C678 C680 1.327 . S
C678 H703 0.950 1_455 S
C679 C678 1.349 1_655 S
C679 C695 1.349 1_655 S
C680 C678 1.327 . S
C680 C699 1.429 . S
C680 H704 0.950 . S
C681 C698 1.574 . S
C681 C700 1.368 . S
C681 H705 0.949 . S
H682 C686 0.949 . S
C683 C684 1.349 . S
C683 C685 1.327 . S
C683 H706 0.950 . S
C684 C683 1.349 . S
C684 C696 1.349 . S
C685 C683 1.327 . S
C685 C701 1.429 . S
C685 H707 0.950 . S
C686 H682 0.949 . S
C686 C694 1.574 . S
C686 C702 1.368 . S
H687 C695 0.950 1_655 S
H688 C693 0.950 . S
H689 C694 0.949 . S
H690 C696 0.950 . S
H691 C697 0.950 . S
H692 C698 0.949 . S
C693 H688 0.950 . S
C693 C695 1.327 . S
C693 C699 1.429 . S
C694 C686 1.574 . S
C694 H689 0.949 . S
C694 C700 1.368 . S
C695 C679 1.349 1_455 S
C695 H687 0.950 1_455 S
C695 C693 1.327 . S
C696 C684 1.349 . S
C696 H690 0.950 . S
C696 C697 1.327 . S
C697 H691 0.950 . S
C697 C696 1.327 . S
C697 C701 1.429 . S
C698 C681 1.574 . S
C698 H692 0.949 . S
C698 C702 1.368 . S
C699 C680 1.429 . S
C699 C693 1.429 . S
C699 C700 1.523 . S
C700 C681 1.368 . S
C700 C694 1.368 . S
C700 C699 1.523 . S
C701 C685 1.429 . S
C701 C697 1.429 . S
C701 C702 1.523 . S
C702 C686 1.368 . S
C702 C698 1.368 . S
C702 C701 1.523 . S
H703 C678 0.950 1_655 S
H704 C680 0.950 . S
H705 C681 0.949 . S
H706 C683 0.950 . S
H707 C685 0.950 . S
C708 C709 1.349 . S
C708 C710 1.327 . S
C708 H733 0.950 . S
C709 C708 1.349 . S
C709 C725 1.349 . S
C710 C708 1.327 . S
C710 C729 1.429 . S
C710 H734 0.950 . S
C711 C728 1.574 . S
C711 C730 1.368 . S
C711 H735 0.949 . S
H712 C716 0.949 . S
C713 C714 1.349 . S
C713 C715 1.327 . S
C713 H736 0.950 . S
C714 C713 1.349 . S
C714 C726 1.349 . S
C715 C713 1.327 . S
C715 C731 1.429 . S
C715 H737 0.950 . S
C716 H712 0.949 . S
C716 C724 1.574 . S
C716 C732 1.368 . S
H717 C725 0.950 . S
H718 C723 0.950 . S
H719 C724 0.949 . S
H720 C726 0.950 . S
H721 C727 0.950 . S
H722 C728 0.949 . S
C723 H718 0.950 . S
C723 C725 1.327 . S
C723 C729 1.429 . S
C724 C716 1.574 . S
C724 H719 0.949 . S
C724 C730 1.368 . S
C725 C709 1.349 . S
C725 H717 0.950 . S
C725 C723 1.327 . S
C726 C714 1.349 . S
C726 H720 0.950 . S
C726 C727 1.327 . S
C727 H721 0.950 . S
C727 C726 1.327 . S
C727 C731 1.429 . S
C728 C711 1.574 . S
C728 H722 0.949 . S
C728 C732 1.368 . S
C729 C710 1.429 . S
C729 C723 1.429 . S
C729 C730 1.523 . S
C730 C711 1.368 . S
C730 C724 1.368 . S
C730 C729 1.523 . S
C731 C715 1.429 . S
C731 C727 1.429 . S
C731 C732 1.523 . S
C732 C716 1.368 . S
C732 C728 1.368 . S
C732 C731 1.523 . S
H733 C708 0.950 . S
H734 C710 0.950 . S
H735 C711 0.949 . S
H736 C713 0.950 . S
H737 C715 0.950 . S
C738 C739 1.349 1_455 S
C738 C740 1.327 . S
C738 H763 0.950 1_455 S
C739 C738 1.349 1_655 S
C739 C755 1.349 1_655 S
C740 C738 1.327 . S
C740 C759 1.429 . S
C740 H764 0.950 . S
C741 C758 1.574 . S
C741 C760 1.368 . S
C741 H765 0.949 . S
H742 C746 0.949 . S
C743 C744 1.349 . S
C743 C745 1.327 . S
C743 H766 0.950 . S
C744 C743 1.349 . S
C744 C756 1.349 . S
C745 C743 1.327 . S
C745 C761 1.429 . S
C745 H767 0.950 . S
C746 H742 0.949 . S
C746 C754 1.574 . S
C746 C762 1.368 . S
H747 C755 0.950 1_655 S
H748 C753 0.950 . S
H749 C754 0.949 . S
H750 C756 0.950 . S
H751 C757 0.950 . S
H752 C758 0.949 . S
C753 H748 0.950 . S
C753 C755 1.327 . S
C753 C759 1.429 . S
C754 C746 1.574 . S
C754 H749 0.949 . S
C754 C760 1.368 . S
C755 C739 1.349 1_455 S
C755 H747 0.950 1_455 S
C755 C753 1.327 . S
C756 C744 1.349 . S
C756 H750 0.950 . S
C756 C757 1.327 . S
C757 H751 0.950 . S
C757 C756 1.327 . S
C757 C761 1.429 . S
C758 C741 1.574 . S
C758 H752 0.949 . S
C758 C762 1.368 . S
C759 C740 1.429 . S
C759 C753 1.429 . S
C759 C760 1.523 . S
C760 C741 1.368 . S
C760 C754 1.368 . S
C760 C759 1.523 . S
C761 C745 1.429 . S
C761 C757 1.429 . S
C761 C762 1.523 . S
C762 C746 1.368 . S
C762 C758 1.368 . S
C762 C761 1.523 . S
H763 C738 0.950 1_655 S
H764 C740 0.950 . S
H765 C741 0.949 . S
H766 C743 0.950 . S
H767 C745 0.950 . S
C768 C769 1.349 . S
C768 C770 1.327 . S
C768 H793 0.950 . S
C769 C768 1.349 . S
C769 C785 1.349 . S
C770 C768 1.327 . S
C770 C789 1.429 . S
C770 H794 0.950 . S
C771 C788 1.574 . S
C771 C790 1.368 . S
C771 H795 0.949 . S
H772 C776 0.949 . S
C773 C774 1.349 . S
C773 C775 1.327 . S
C773 H796 0.950 . S
C774 C773 1.349 . S
C774 C786 1.349 . S
C775 C773 1.327 . S
C775 C791 1.429 . S
C775 H797 0.950 . S
C776 H772 0.949 . S
C776 C784 1.574 . S
C776 C792 1.368 . S
H777 C785 0.950 . S
H778 C783 0.950 . S
H779 C784 0.949 . S
H780 C786 0.950 . S
H781 C787 0.950 . S
H782 C788 0.949 . S
C783 H778 0.950 . S
C783 C785 1.327 . S
C783 C789 1.429 . S
C784 C776 1.574 . S
C784 H779 0.949 . S
C784 C790 1.368 . S
C785 C769 1.349 . S
C785 H777 0.950 . S
C785 C783 1.327 . S
C786 C774 1.349 . S
C786 H780 0.950 . S
C786 C787 1.327 . S
C787 H781 0.950 . S
C787 C786 1.327 . S
C787 C791 1.429 . S
C788 C771 1.574 . S
C788 H782 0.949 . S
C788 C792 1.368 . S
C789 C770 1.429 . S
C789 C783 1.429 . S
C789 C790 1.523 . S
C790 C771 1.368 . S
C790 C784 1.368 . S
C790 C789 1.523 . S
C791 C775 1.429 . S
C791 C787 1.429 . S
C791 C792 1.523 . S
C792 C776 1.368 . S
C792 C788 1.368 . S
C792 C791 1.523 . S
H793 C768 0.950 . S
H794 C770 0.950 . S
H795 C771 0.949 . S
H796 C773 0.950 . S
H797 C775 0.950 . S
C798 C799 1.349 . S
C798 C800 1.327 . S
C798 H823 0.950 . S
C799 C798 1.349 . S
C799 C815 1.349 . S
C800 C798 1.327 . S
C800 C819 1.429 . S
C800 H824 0.950 . S
C801 C818 1.574 . S
C801 C820 1.368 . S
C801 H825 0.949 . S
H802 C806 0.949 . S
C803 C804 1.349 1_655 S
C803 C805 1.327 . S
C803 H826 0.950 1_655 S
C804 C803 1.349 1_455 S
C804 C816 1.349 1_455 S
C805 C803 1.327 . S
C805 C821 1.429 . S
C805 H827 0.950 . S
C806 H802 0.949 . S
C806 C814 1.574 . S
C806 C822 1.368 . S
H807 C815 0.950 . S
H808 C813 0.950 . S
H809 C814 0.949 . S
H810 C816 0.950 1_455 S
H811 C817 0.950 . S
H812 C818 0.949 . S
C813 H808 0.950 . S
C813 C815 1.327 . S
C813 C819 1.429 . S
C814 C806 1.574 . S
C814 H809 0.949 . S
C814 C820 1.368 . S
C815 C799 1.349 . S
C815 H807 0.950 . S
C815 C813 1.327 . S
C816 C804 1.349 1_655 S
C816 H810 0.950 1_655 S
C816 C817 1.327 . S
C817 H811 0.950 . S
C817 C816 1.327 . S
C817 C821 1.429 . S
C818 C801 1.574 . S
C818 H812 0.949 . S
C818 C822 1.368 . S
C819 C800 1.429 . S
C819 C813 1.429 . S
C819 C820 1.523 . S
C820 C801 1.368 . S
C820 C814 1.368 . S
C820 C819 1.523 . S
C821 C805 1.429 . S
C821 C817 1.429 . S
C821 C822 1.523 . S
C822 C806 1.368 . S
C822 C818 1.368 . S
C822 C821 1.523 . S
H823 C798 0.950 . S
H824 C800 0.950 . S
H825 C801 0.949 . S
H826 C803 0.950 1_455 S
H827 C805 0.950 . S
C828 C829 1.349 . S
C828 C830 1.327 . S
C828 H853 0.950 . S
C829 C828 1.349 . S
C829 C845 1.349 . S
C830 C828 1.327 . S
C830 C849 1.429 . S
C830 H854 0.950 . S
C831 C848 1.574 . S
C831 C850 1.368 . S
C831 H855 0.949 . S
H832 C836 0.949 . S
C833 C834 1.349 . S
C833 C835 1.327 . S
C833 H856 0.950 . S
C834 C833 1.349 . S
C834 C846 1.349 . S
C835 C833 1.327 . S
C835 C851 1.429 . S
C835 H857 0.950 . S
C836 H832 0.949 . S
C836 C844 1.574 . S
C836 C852 1.368 . S
H837 C845 0.950 . S
H838 C843 0.950 . S
H839 C844 0.949 . S
H840 C846 0.950 . S
H841 C847 0.950 . S
H842 C848 0.949 . S
C843 H838 0.950 . S
C843 C845 1.327 . S
C843 C849 1.429 . S
C844 C836 1.574 . S
C844 H839 0.949 . S
C844 C850 1.368 . S
C845 C829 1.349 . S
C845 H837 0.950 . S
C845 C843 1.327 . S
C846 C834 1.349 . S
C846 H840 0.950 . S
C846 C847 1.327 . S
C847 H841 0.950 . S
C847 C846 1.327 . S
C847 C851 1.429 . S
C848 C831 1.574 . S
C848 H842 0.949 . S
C848 C852 1.368 . S
C849 C830 1.429 . S
C849 C843 1.429 . S
C849 C850 1.523 . S
C850 C831 1.368 . S
C850 C844 1.368 . S
C850 C849 1.523 . S
C851 C835 1.429 . S
C851 C847 1.429 . S
C851 C852 1.523 . S
C852 C836 1.368 . S
C852 C848 1.368 . S
C852 C851 1.523 . S
H853 C828 0.950 . S
H854 C830 0.950 . S
H855 C831 0.949 . S
H856 C833 0.950 . S
H857 C835 0.950 . S
C858 C859 1.349 . S
C858 C860 1.327 . S
C858 H883 0.950 . S
C859 C858 1.349 . S
C859 C875 1.349 . S
C860 C858 1.327 . S
C860 C879 1.429 . S
C860 H884 0.950 . S
C861 C878 1.574 . S
C861 C880 1.368 . S
C861 H885 0.949 . S
H862 C866 0.949 . S
C863 C864 1.349 1_655 S
C863 C865 1.327 . S
C863 H886 0.950 1_655 S
C864 C863 1.349 1_455 S
C864 C876 1.349 1_455 S
C865 C863 1.327 . S
C865 C881 1.429 . S
C865 H887 0.950 . S
C866 H862 0.949 . S
C866 C874 1.574 . S
C866 C882 1.368 . S
H867 C875 0.950 . S
H868 C873 0.950 . S
H869 C874 0.949 . S
H870 C876 0.950 1_455 S
H871 C877 0.950 . S
H872 C878 0.949 . S
C873 H868 0.950 . S
C873 C875 1.327 . S
C873 C879 1.429 . S
C874 C866 1.574 . S
C874 H869 0.949 . S
C874 C880 1.368 . S
C875 C859 1.349 . S
C875 H867 0.950 . S
C875 C873 1.327 . S
C876 C864 1.349 1_655 S
C876 H870 0.950 1_655 S
C876 C877 1.327 . S
C877 H871 0.950 . S
C877 C876 1.327 . S
C877 C881 1.429 . S
C878 C861 1.574 . S
C878 H872 0.949 . S
C878 C882 1.368 . S
C879 C860 1.429 . S
C879 C873 1.429 . S
C879 C880 1.523 . S
C880 C861 1.368 . S
C880 C874 1.368 . S
C880 C879 1.523 . S
C881 C865 1.429 . S
C881 C877 1.429 . S
C881 C882 1.523 . S
C882 C866 1.368 . S
C882 C878 1.368 . S
C882 C881 1.523 . S
H883 C858 0.950 . S
H884 C860 0.950 . S
H885 C861 0.949 . S
H886 C863 0.950 1_455 S
H887 C865 0.950 . S
C888 C889 1.349 . S
C888 C890 1.327 . S
C888 H913 0.950 . S
C889 C888 1.349 . S
C889 C905 1.349 . S
C890 C888 1.327 . S
C890 C909 1.429 . S
C890 H914 0.950 . S
C891 C908 1.574 . S
C891 C910 1.368 . S
C891 H915 0.949 . S
H892 C896 0.949 . S
C893 C894 1.349 . S
C893 C895 1.327 . S
C893 H916 0.950 . S
C894 C893 1.349 . S
C894 C906 1.349 . S
C895 C893 1.327 . S
C895 C911 1.429 . S
C895 H917 0.950 . S
C896 H892 0.949 . S
C896 C904 1.574 . S
C896 C912 1.368 . S
H897 C905 0.950 . S
H898 C903 0.950 . S
H899 C904 0.949 . S
H900 C906 0.950 . S
H901 C907 0.950 . S
H902 C908 0.949 . S
C903 H898 0.950 . S
C903 C905 1.327 . S
C903 C909 1.429 . S
C904 C896 1.574 . S
C904 H899 0.949 . S
C904 C910 1.368 . S
C905 C889 1.349 . S
C905 H897 0.950 . S
C905 C903 1.327 . S
C906 C894 1.349 . S
C906 H900 0.950 . S
C906 C907 1.327 . S
C907 H901 0.950 . S
C907 C906 1.327 . S
C907 C911 1.429 . S
C908 C891 1.574 . S
C908 H902 0.949 . S
C908 C912 1.368 . S
C909 C890 1.429 . S
C909 C903 1.429 . S
C909 C910 1.523 . S
C910 C891 1.368 . S
C910 C904 1.368 . S
C910 C909 1.523 . S
C911 C895 1.429 . S
C911 C907 1.429 . S
C911 C912 1.523 . S
C912 C896 1.368 . S
C912 C908 1.368 . S
C912 C911 1.523 . S
H913 C888 0.950 . S
H914 C890 0.950 . S
H915 C891 0.949 . S
H916 C893 0.950 . S
H917 C895 0.950 . S
C918 C919 1.349 . S
C918 C920 1.327 . S
C918 H943 0.950 . S
C919 C918 1.349 . S
C919 C935 1.349 . S
C920 C918 1.327 . S
C920 C939 1.429 . S
C920 H944 0.950 . S
C921 C938 1.574 . S
C921 C940 1.368 . S
C921 H945 0.949 . S
H922 C926 0.949 . S
C923 C924 1.349 1_455 S
C923 C925 1.327 . S
C923 H946 0.950 1_455 S
C924 C923 1.349 1_655 S
C924 C936 1.349 1_655 S
C925 C923 1.327 . S
C925 C941 1.429 . S
C925 H947 0.950 . S
C926 H922 0.949 . S
C926 C934 1.574 . S
C926 C942 1.368 . S
H927 C935 0.950 . S
H928 C933 0.950 . S
H929 C934 0.949 . S
H930 C936 0.950 1_655 S
H931 C937 0.950 . S
H932 C938 0.949 . S
C933 H928 0.950 . S
C933 C935 1.327 . S
C933 C939 1.429 . S
C934 C926 1.574 . S
C934 H929 0.949 . S
C934 C940 1.368 . S
C935 C919 1.349 . S
C935 H927 0.950 . S
C935 C933 1.327 . S
C936 C924 1.349 1_455 S
C936 H930 0.950 1_455 S
C936 C937 1.327 . S
C937 H931 0.950 . S
C937 C936 1.327 . S
C937 C941 1.429 . S
C938 C921 1.574 . S
C938 H932 0.949 . S
C938 C942 1.368 . S
C939 C920 1.429 . S
C939 C933 1.429 . S
C939 C940 1.523 . S
C940 C921 1.368 . S
C940 C934 1.368 . S
C940 C939 1.523 . S
C941 C925 1.429 . S
C941 C937 1.429 . S
C941 C942 1.523 . S
C942 C926 1.368 . S
C942 C938 1.368 . S
C942 C941 1.523 . S
H943 C918 0.950 . S
H944 C920 0.950 . S
H945 C921 0.949 . S
H946 C923 0.950 1_655 S
H947 C925 0.950 . S
C948 C949 1.349 . S
C948 C950 1.327 . S
C948 H973 0.950 . S
C949 C948 1.349 . S
C949 C965 1.349 . S
C950 C948 1.327 . S
C950 C969 1.429 . S
C950 H974 0.950 . S
C951 C968 1.574 . S
C951 C970 1.368 . S
C951 H975 0.949 . S
H952 C956 0.949 . S
C953 C954 1.349 . S
C953 C955 1.327 . S
C953 H976 0.950 . S
C954 C953 1.349 . S
C954 C966 1.349 . S
C955 C953 1.327 . S
C955 C971 1.429 . S
C955 H977 0.950 . S
C956 H952 0.949 . S
C956 C964 1.574 . S
C956 C972 1.368 . S
H957 C965 0.950 . S
H958 C963 0.950 . S
H959 C964 0.949 . S
H960 C966 0.950 . S
H961 C967 0.950 . S
H962 C968 0.949 . S
C963 H958 0.950 . S
C963 C965 1.327 . S
C963 C969 1.429 . S
C964 C956 1.574 . S
C964 H959 0.949 . S
C964 C970 1.368 . S
C965 C949 1.349 . S
C965 H957 0.950 . S
C965 C963 1.327 . S
C966 C954 1.349 . S
C966 H960 0.950 . S
C966 C967 1.327 . S
C967 H961 0.950 . S
C967 C966 1.327 . S
C967 C971 1.429 . S
C968 C951 1.574 . S
C968 H962 0.949 . S
C968 C972 1.368 . S
C969 C950 1.429 . S
C969 C963 1.429 . S
C969 C970 1.523 . S
C970 C951 1.368 . S
C970 C964 1.368 . S
C970 C969 1.523 . S
C971 C955 1.429 . S
C971 C967 1.429 . S
C971 C972 1.523 . S
C972 C956 1.368 . S
C972 C968 1.368 . S
C972 C971 1.523 . S
H973 C948 0.950 . S
H974 C950 0.950 . S
H975 C951 0.949 . S
H976 C953 0.950 . S
H977 C955 0.950 . S
C978 C979 1.349 1_455 S
C978 C980 1.327 . S
C978 H1003 0.950 1_455 S
C979 C978 1.349 1_655 S
C979 C995 1.349 1_655 S
C980 C978 1.327 . S
C980 C999 1.429 . S
C980 H1004 0.950 . S
C981 C998 1.574 . S
C981 C1000 1.368 . S
C981 H1005 0.949 . S
H982 C986 0.949 . S
C983 C984 1.349 . S
C983 C985 1.327 . S
C983 H1006 0.950 . S
C984 C983 1.349 . S
C984 C996 1.349 . S
C985 C983 1.327 . S
C985 C1001 1.429 . S
C985 H1007 0.950 . S
C986 H982 0.949 . S
C986 C994 1.574 . S
C986 C1002 1.368 . S
H987 C995 0.950 1_655 S
H988 C993 0.950 . S
H989 C994 0.949 . S
H990 C996 0.950 . S
H991 C997 0.950 . S
H992 C998 0.949 . S
C993 H988 0.950 . S
C993 C995 1.327 . S
C993 C999 1.429 . S
C994 C986 1.574 . S
C994 H989 0.949 . S
C994 C1000 1.368 . S
C995 C979 1.349 1_455 S
C995 H987 0.950 1_455 S
C995 C993 1.327 . S
C996 C984 1.349 . S
C996 H990 0.950 . S
C996 C997 1.327 . S
C997 H991 0.950 . S
C997 C996 1.327 . S
C997 C1001 1.429 . S
C998 C981 1.574 . S
C998 H992 0.949 . S
C998 C1002 1.368 . S
C999 C980 1.429 . S
C999 C993 1.429 . S
C999 C1000 1.523 . S
C1000 C981 1.368 . S
C1000 C994 1.368 . S
C1000 C999 1.523 . S
C1001 C985 1.429 . S
C1001 C997 1.429 . S
C1001 C1002 1.523 . S
C1002 C986 1.368 . S
C1002 C998 1.368 . S
C1002 C1001 1.523 . S
H1003 C978 0.950 1_655 S
H1004 C980 0.950 . S
H1005 C981 0.949 . S
H1006 C983 0.950 . S
H1007 C985 0.950 . S
C1008 C1009 1.349 . S
C1008 C1010 1.327 . S
C1008 H1033 0.950 . S
C1009 C1008 1.349 . S
C1009 C1025 1.349 . S
C1010 C1008 1.327 . S
C1010 C1029 1.429 . S
C1010 H1034 0.950 . S
C1011 C1028 1.574 . S
C1011 C1030 1.368 . S
C1011 H1035 0.949 . S
H1012 C1016 0.949 . S
C1013 C1014 1.349 1_554 S
C1013 C1015 1.327 . S
C1013 H1036 0.950 . S
C1014 C1013 1.349 1_556 S
C1014 C1026 1.349 1_556 S
C1015 C1013 1.327 . S
C1015 C1031 1.429 . S
C1015 H1037 0.950 . S
C1016 H1012 0.949 . S
C1016 C1024 1.574 . S
C1016 C1032 1.368 . S
H1017 C1025 0.950 . S
H1018 C1023 0.950 . S
H1019 C1024 0.949 . S
H1020 C1026 0.946 1_556 S
H1021 C1027 0.950 . S
H1022 C1028 0.949 . S
C1023 H1018 0.950 . S
C1023 C1025 1.327 . S
C1023 C1029 1.429 . S
C1024 C1016 1.574 . S
C1024 H1019 0.949 . S
C1024 C1030 1.368 . S
C1025 C1009 1.349 . S
C1025 H1017 0.950 . S
C1025 C1023 1.327 . S
C1026 C1014 1.349 1_554 S
C1026 H1020 0.946 1_554 S
C1026 C1027 1.327 . S
C1027 H1021 0.950 . S
C1027 C1026 1.327 . S
C1027 C1031 1.429 . S
C1028 C1011 1.574 . S
C1028 H1022 0.949 . S
C1028 C1032 1.368 . S
C1029 C1010 1.429 . S
C1029 C1023 1.429 . S
C1029 C1030 1.523 . S
C1030 C1011 1.368 . S
C1030 C1024 1.368 . S
C1030 C1029 1.523 . S
C1031 C1015 1.429 . S
C1031 C1027 1.429 . S
C1031 C1032 1.523 . S
C1032 C1016 1.368 . S
C1032 C1028 1.368 . S
C1032 C1031 1.523 . S
H1033 C1008 0.950 . S
H1034 C1010 0.950 . S
H1035 C1011 0.949 . S
H1036 C1013 0.950 . S
H1037 C1015 0.950 . S
C1038 C1039 1.349 1_556 S
C1038 C1040 1.327 . S
C1038 H1063 0.946 1_556 S
C1039 C1038 1.349 1_554 S
C1039 C1055 1.349 1_554 S
C1040 C1038 1.327 . S
C1040 C1059 1.429 . S
C1040 H1064 0.950 . S
C1041 C1058 1.574 . S
C1041 C1060 1.368 . S
C1041 H1065 0.949 . S
H1042 C1046 0.949 . S
C1043 C1044 1.349 . S
C1043 C1045 1.327 . S
C1043 H1066 0.950 . S
C1044 C1043 1.349 . S
C1044 C1056 1.349 . S
C1045 C1043 1.327 . S
C1045 C1061 1.429 . S
C1045 H1067 0.950 . S
C1046 H1042 0.949 . S
C1046 C1054 1.574 . S
C1046 C1062 1.368 . S
H1047 C1055 0.950 . S
H1048 C1053 0.950 . S
H1049 C1054 0.949 . S
H1050 C1056 0.950 . S
H1051 C1057 0.950 . S
H1052 C1058 0.949 . S
C1053 H1048 0.950 . S
C1053 C1055 1.327 . S
C1053 C1059 1.429 . S
C1054 C1046 1.574 . S
C1054 H1049 0.949 . S
C1054 C1060 1.368 . S
C1055 C1039 1.349 1_556 S
C1055 H1047 0.950 . S
C1055 C1053 1.327 . S
C1056 C1044 1.349 . S
C1056 H1050 0.950 . S
C1056 C1057 1.327 . S
C1057 H1051 0.950 . S
C1057 C1056 1.327 . S
C1057 C1061 1.429 . S
C1058 C1041 1.574 . S
C1058 H1052 0.949 . S
C1058 C1062 1.368 . S
C1059 C1040 1.429 . S
C1059 C1053 1.429 . S
C1059 C1060 1.523 . S
C1060 C1041 1.368 . S
C1060 C1054 1.368 . S
C1060 C1059 1.523 . S
C1061 C1045 1.429 . S
C1061 C1057 1.429 . S
C1061 C1062 1.523 . S
C1062 C1046 1.368 . S
C1062 C1058 1.368 . S
C1062 C1061 1.523 . S
H1063 C1038 0.946 1_554 S
H1064 C1040 0.950 . S
H1065 C1041 0.949 . S
H1066 C1043 0.950 . S
H1067 C1045 0.950 . S
C1068 C1069 1.349 . S
C1068 C1070 1.327 . S
C1068 H1093 0.950 . S
C1069 C1068 1.349 . S
C1069 C1085 1.349 . S
C1070 C1068 1.327 . S
C1070 C1089 1.429 . S
C1070 H1094 0.950 . S
C1071 C1088 1.574 . S
C1071 C1090 1.368 . S
C1071 H1095 0.949 . S
H1072 C1076 0.949 . S
C1073 C1074 1.349 . S
C1073 C1075 1.327 . S
C1073 H1096 0.950 . S
C1074 C1073 1.349 . S
C1074 C1086 1.349 . S
C1075 C1073 1.327 . S
C1075 C1091 1.429 . S
C1075 H1097 0.950 . S
C1076 H1072 0.949 . S
C1076 C1084 1.574 . S
C1076 C1092 1.368 . S
H1077 C1085 0.950 . S
H1078 C1083 0.950 . S
H1079 C1084 0.949 . S
H1080 C1086 0.950 . S
H1081 C1087 0.950 . S
H1082 C1088 0.949 . S
C1083 H1078 0.950 . S
C1083 C1085 1.327 . S
C1083 C1089 1.429 . S
C1084 C1076 1.574 . S
C1084 H1079 0.949 . S
C1084 C1090 1.368 . S
C1085 C1069 1.349 . S
C1085 H1077 0.950 . S
C1085 C1083 1.327 . S
C1086 C1074 1.349 . S
C1086 H1080 0.950 . S
C1086 C1087 1.327 . S
C1087 H1081 0.950 . S
C1087 C1086 1.327 . S
C1087 C1091 1.429 . S
C1088 C1071 1.574 . S
C1088 H1082 0.949 . S
C1088 C1092 1.368 . S
C1089 C1070 1.429 . S
C1089 C1083 1.429 . S
C1089 C1090 1.523 . S
C1090 C1071 1.368 . S
C1090 C1084 1.368 . S
C1090 C1089 1.523 . S
C1091 C1075 1.429 . S
C1091 C1087 1.429 . S
C1091 C1092 1.523 . S
C1092 C1076 1.368 . S
C1092 C1088 1.368 . S
C1092 C1091 1.523 . S
H1093 C1068 0.950 . S
H1094 C1070 0.950 . S
H1095 C1071 0.949 . S
H1096 C1073 0.950 . S
H1097 C1075 0.950 . S
C1098 C1099 1.349 . S
C1098 C1100 1.327 . S
C1098 H1123 0.950 . S
C1099 C1098 1.349 . S
C1099 C1115 1.349 . S
C1100 C1098 1.327 . S
C1100 C1119 1.429 . S
C1100 H1124 0.950 . S
C1101 C1118 1.574 . S
C1101 C1120 1.368 . S
C1101 H1125 0.949 . S
H1102 C1106 0.949 . S
C1103 C1104 1.349 . S
C1103 C1105 1.327 . S
C1103 H1126 0.950 . S
C1104 C1103 1.349 . S
C1104 C1116 1.349 . S
C1105 C1103 1.327 . S
C1105 C1121 1.429 . S
C1105 H1127 0.950 . S
C1106 H1102 0.949 . S
C1106 C1114 1.574 . S
C1106 C1122 1.368 . S
H1107 C1115 0.950 . S
H1108 C1113 0.950 . S
H1109 C1114 0.949 . S
H1110 C1116 0.950 . S
H1111 C1117 0.950 . S
H1112 C1118 0.949 . S
C1113 H1108 0.950 . S
C1113 C1115 1.327 . S
C1113 C1119 1.429 . S
C1114 C1106 1.574 . S
C1114 H1109 0.949 . S
C1114 C1120 1.368 . S
C1115 C1099 1.349 . S
C1115 H1107 0.950 . S
C1115 C1113 1.327 . S
C1116 C1104 1.349 . S
C1116 H1110 0.950 . S
C1116 C1117 1.327 . S
C1117 H1111 0.950 . S
C1117 C1116 1.327 . S
C1117 C1121 1.429 . S
C1118 C1101 1.574 . S
C1118 H1112 0.949 . S
C1118 C1122 1.368 . S
C1119 C1100 1.429 . S
C1119 C1113 1.429 . S
C1119 C1120 1.523 . S
C1120 C1101 1.368 . S
C1120 C1114 1.368 . S
C1120 C1119 1.523 . S
C1121 C1105 1.429 . S
C1121 C1117 1.429 . S
C1121 C1122 1.523 . S
C1122 C1106 1.368 . S
C1122 C1118 1.368 . S
C1122 C1121 1.523 . S
H1123 C1098 0.950 . S
H1124 C1100 0.950 . S
H1125 C1101 0.949 . S
H1126 C1103 0.950 . S
H1127 C1105 0.950 . S
C1128 C1129 1.349 . S
C1128 C1130 1.327 . S
C1128 H1153 0.950 . S
C1129 C1128 1.349 . S
C1129 C1145 1.349 . S
C1130 C1128 1.327 . S
C1130 C1149 1.429 . S
C1130 H1154 0.950 . S
C1131 C1148 1.574 . S
C1131 C1150 1.368 . S
C1131 H1155 0.949 . S
H1132 C1136 0.949 . S
C1133 C1134 1.349 . S
C1133 C1135 1.327 . S
C1133 H1156 0.950 . S
C1134 C1133 1.349 . S
C1134 C1146 1.349 . S
C1135 C1133 1.327 . S
C1135 C1151 1.429 . S
C1135 H1157 0.950 . S
C1136 H1132 0.949 . S
C1136 C1144 1.574 . S
C1136 C1152 1.368 . S
H1137 C1145 0.950 . S
H1138 C1143 0.950 . S
H1139 C1144 0.949 . S
H1140 C1146 0.950 . S
H1141 C1147 0.950 . S
H1142 C1148 0.949 . S
C1143 H1138 0.950 . S
C1143 C1145 1.327 . S
C1143 C1149 1.429 . S
C1144 C1136 1.574 . S
C1144 H1139 0.949 . S
C1144 C1150 1.368 . S
C1145 C1129 1.349 . S
C1145 H1137 0.950 . S
C1145 C1143 1.327 . S
C1146 C1134 1.349 . S
C1146 H1140 0.950 . S
C1146 C1147 1.327 . S
C1147 H1141 0.950 . S
C1147 C1146 1.327 . S
C1147 C1151 1.429 . S
C1148 C1131 1.574 . S
C1148 H1142 0.949 . S
C1148 C1152 1.368 . S
C1149 C1130 1.429 . S
C1149 C1143 1.429 . S
C1149 C1150 1.523 . S
C1150 C1131 1.368 . S
C1150 C1144 1.368 . S
C1150 C1149 1.523 . S
C1151 C1135 1.429 . S
C1151 C1147 1.429 . S
C1151 C1152 1.523 . S
C1152 C1136 1.368 . S
C1152 C1148 1.368 . S
C1152 C1151 1.523 . S
H1153 C1128 0.950 . S
H1154 C1130 0.950 . S
H1155 C1131 0.949 . S
H1156 C1133 0.950 . S
H1157 C1135 0.950 . S
C1158 C1159 1.349 . S
C1158 C1160 1.327 . S
C1158 H1183 0.950 . S
C1159 C1158 1.349 . S
C1159 C1175 1.349 . S
C1160 C1158 1.327 . S
C1160 C1179 1.429 . S
C1160 H1184 0.950 . S
C1161 C1178 1.574 . S
C1161 C1180 1.368 . S
C1161 H1185 0.949 . S
H1162 C1166 0.949 . S
C1163 C1164 1.349 . S
C1163 C1165 1.327 . S
C1163 H1186 0.950 . S
C1164 C1163 1.349 . S
C1164 C1176 1.349 . S
C1165 C1163 1.327 . S
C1165 C1181 1.429 . S
C1165 H1187 0.950 . S
C1166 H1162 0.949 . S
C1166 C1174 1.574 . S
C1166 C1182 1.368 . S
H1167 C1175 0.950 . S
H1168 C1173 0.950 . S
H1169 C1174 0.949 . S
H1170 C1176 0.950 . S
H1171 C1177 0.950 . S
H1172 C1178 0.949 . S
C1173 H1168 0.950 . S
C1173 C1175 1.327 . S
C1173 C1179 1.429 . S
C1174 C1166 1.574 . S
C1174 H1169 0.949 . S
C1174 C1180 1.368 . S
C1175 C1159 1.349 . S
C1175 H1167 0.950 . S
C1175 C1173 1.327 . S
C1176 C1164 1.349 . S
C1176 H1170 0.950 . S
C1176 C1177 1.327 . S
C1177 H1171 0.950 . S
C1177 C1176 1.327 . S
C1177 C1181 1.429 . S
C1178 C1161 1.574 . S
C1178 H1172 0.949 . S
C1178 C1182 1.368 . S
C1179 C1160 1.429 . S
C1179 C1173 1.429 . S
C1179 C1180 1.523 . S
C1180 C1161 1.368 . S
C1180 C1174 1.368 . S
C1180 C1179 1.523 . S
C1181 C1165 1.429 . S
C1181 C1177 1.429 . S
C1181 C1182 1.523 . S
C1182 C1166 1.368 . S
C1182 C1178 1.368 . S
C1182 C1181 1.523 . S
H1183 C1158 0.950 . S
H1184 C1160 0.950 . S
H1185 C1161 0.949 . S
H1186 C1163 0.950 . S
H1187 C1165 0.950 . S
C1188 C1189 1.349 1_554 S
C1188 C1190 1.327 . S
C1188 H1213 0.950 . S
C1189 C1188 1.349 1_556 S
C1189 C1205 1.349 1_556 S
C1190 C1188 1.327 . S
C1190 C1209 1.429 . S
C1190 H1214 0.950 . S
C1191 C1208 1.574 . S
C1191 C1210 1.368 . S
C1191 H1215 0.949 . S
H1192 C1196 0.949 . S
C1193 C1194 1.349 . S
C1193 C1195 1.327 . S
C1193 H1216 0.950 . S
C1194 C1193 1.349 . S
C1194 C1206 1.349 . S
C1195 C1193 1.327 . S
C1195 C1211 1.429 . S
C1195 H1217 0.950 . S
C1196 H1192 0.949 . S
C1196 C1204 1.574 . S
C1196 C1212 1.368 . S
H1197 C1205 0.947 1_556 S
H1198 C1203 0.950 . S
H1199 C1204 0.949 . S
H1200 C1206 0.950 . S
H1201 C1207 0.950 . S
H1202 C1208 0.949 . S
C1203 H1198 0.950 . S
C1203 C1205 1.327 . S
C1203 C1209 1.429 . S
C1204 C1196 1.574 . S
C1204 H1199 0.949 . S
C1204 C1210 1.368 . S
C1205 C1189 1.349 1_554 S
C1205 H1197 0.947 1_554 S
C1205 C1203 1.327 . S
C1206 C1194 1.349 . S
C1206 H1200 0.950 . S
C1206 C1207 1.327 . S
C1207 H1201 0.950 . S
C1207 C1206 1.327 . S
C1207 C1211 1.429 . S
C1208 C1191 1.574 . S
C1208 H1202 0.949 . S
C1208 C1212 1.368 . S
C1209 C1190 1.429 . S
C1209 C1203 1.429 . S
C1209 C1210 1.523 . S
C1210 C1191 1.368 . S
C1210 C1204 1.368 . S
C1210 C1209 1.523 . S
C1211 C1195 1.429 . S
C1211 C1207 1.429 . S
C1211 C1212 1.523 . S
C1212 C1196 1.368 . S
C1212 C1208 1.368 . S
C1212 C1211 1.523 . S
H1213 C1188 0.950 . S
H1214 C1190 0.950 . S
H1215 C1191 0.949 . S
H1216 C1193 0.950 . S
H1217 C1195 0.950 . S
C1218 C1219 1.349 . S
C1218 C1220 1.327 . S
C1218 H1243 0.950 . S
C1219 C1218 1.349 . S
C1219 C1235 1.349 . S
C1220 C1218 1.327 . S
C1220 C1239 1.429 . S
C1220 H1244 0.950 . S
C1221 C1238 1.574 . S
C1221 C1240 1.368 . S
C1221 H1245 0.949 . S
H1222 C1226 0.949 . S
C1223 C1224 1.349 1_556 S
C1223 C1225 1.327 . S
C1223 H1246 0.947 1_556 S
C1224 C1223 1.349 1_554 S
C1224 C1236 1.349 1_554 S
C1225 C1223 1.327 . S
C1225 C1241 1.429 . S
C1225 H1247 0.950 . S
C1226 H1222 0.949 . S
C1226 C1234 1.574 . S
C1226 C1242 1.368 . S
H1227 C1235 0.950 . S
H1228 C1233 0.950 . S
H1229 C1234 0.949 . S
H1230 C1236 0.950 . S
H1231 C1237 0.950 . S
H1232 C1238 0.949 . S
C1233 H1228 0.950 . S
C1233 C1235 1.327 . S
C1233 C1239 1.429 . S
C1234 C1226 1.574 . S
C1234 H1229 0.949 . S
C1234 C1240 1.368 . S
C1235 C1219 1.349 . S
C1235 H1227 0.950 . S
C1235 C1233 1.327 . S
C1236 C1224 1.349 1_556 S
C1236 H1230 0.950 . S
C1236 C1237 1.327 . S
C1237 H1231 0.950 . S
C1237 C1236 1.327 . S
C1237 C1241 1.429 . S
C1238 C1221 1.574 . S
C1238 H1232 0.949 . S
C1238 C1242 1.368 . S
C1239 C1220 1.429 . S
C1239 C1233 1.429 . S
C1239 C1240 1.523 . S
C1240 C1221 1.368 . S
C1240 C1234 1.368 . S
C1240 C1239 1.523 . S
C1241 C1225 1.429 . S
C1241 C1237 1.429 . S
C1241 C1242 1.523 . S
C1242 C1226 1.368 . S
C1242 C1238 1.368 . S
C1242 C1241 1.523 . S
H1243 C1218 0.950 . S
H1244 C1220 0.950 . S
H1245 C1221 0.949 . S
H1246 C1223 0.947 1_554 S
H1247 C1225 0.950 . S
C1248 C1249 1.349 . S
C1248 C1250 1.327 . S
C1248 H1273 0.950 . S
C1249 C1248 1.349 . S
C1249 C1265 1.349 . S
C1250 C1248 1.327 . S
C1250 C1269 1.429 . S
C1250 H1274 0.950 . S
C1251 C1268 1.574 . S
C1251 C1270 1.368 . S
C1251 H1275 0.949 . S
H1252 C1256 0.949 . S
C1253 C1254 1.349 . S
C1253 C1255 1.327 . S
C1253 H1276 0.950 . S
C1254 C1253 1.349 . S
C1254 C1266 1.349 . S
C1255 C1253 1.327 . S
C1255 C1271 1.429 . S
C1255 H1277 0.950 . S
C1256 H1252 0.949 . S
C1256 C1264 1.574 . S
C1256 C1272 1.368 . S
H1257 C1265 0.950 . S
H1258 C1263 0.950 . S
H1259 C1264 0.949 . S
H1260 C1266 0.950 . S
H1261 C1267 0.950 . S
H1262 C1268 0.949 . S
C1263 H1258 0.950 . S
C1263 C1265 1.327 . S
C1263 C1269 1.429 . S
C1264 C1256 1.574 . S
C1264 H1259 0.949 . S
C1264 C1270 1.368 . S
C1265 C1249 1.349 . S
C1265 H1257 0.950 . S
C1265 C1263 1.327 . S
C1266 C1254 1.349 . S
C1266 H1260 0.950 . S
C1266 C1267 1.327 . S
C1267 H1261 0.950 . S
C1267 C1266 1.327 . S
C1267 C1271 1.429 . S
C1268 C1251 1.574 . S
C1268 H1262 0.949 . S
C1268 C1272 1.368 . S
C1269 C1250 1.429 . S
C1269 C1263 1.429 . S
C1269 C1270 1.523 . S
C1270 C1251 1.368 . S
C1270 C1264 1.368 . S
C1270 C1269 1.523 . S
C1271 C1255 1.429 . S
C1271 C1267 1.429 . S
C1271 C1272 1.523 . S
C1272 C1256 1.368 . S
C1272 C1268 1.368 . S
C1272 C1271 1.523 . S
H1273 C1248 0.950 . S
H1274 C1250 0.950 . S
H1275 C1251 0.949 . S
H1276 C1253 0.950 . S
H1277 C1255 0.950 . S
C1278 C1279 1.349 . S
C1278 C1280 1.327 . S
C1278 H1303 0.950 . S
C1279 C1278 1.349 . S
C1279 C1295 1.349 . S
C1280 C1278 1.327 . S
C1280 C1299 1.429 . S
C1280 H1304 0.950 . S
C1281 C1298 1.574 1_565 S
C1281 C1300 1.368 . S
C1281 H1305 0.949 . S
H1282 C1286 0.949 . S
C1283 C1284 1.349 . S
C1283 C1285 1.327 . S
C1283 H1306 0.950 . S
C1284 C1283 1.349 . S
C1284 C1296 1.349 . S
C1285 C1283 1.327 . S
C1285 C1301 1.429 . S
C1285 H1307 0.950 . S
C1286 H1282 0.949 . S
C1286 C1294 1.574 1_545 S
C1286 C1302 1.368 . S
H1287 C1295 0.950 . S
H1288 C1293 0.950 . S
H1289 C1294 0.949 . S
H1290 C1296 0.950 . S
H1291 C1297 0.950 . S
H1292 C1298 0.949 . S
C1293 H1288 0.950 . S
C1293 C1295 1.327 . S
C1293 C1299 1.429 . S
C1294 C1286 1.574 1_565 S
C1294 H1289 0.949 . S
C1294 C1300 1.368 1_455 S
C1295 C1279 1.349 . S
C1295 H1287 0.950 . S
C1295 C1293 1.327 . S
C1296 C1284 1.349 . S
C1296 H1290 0.950 . S
C1296 C1297 1.327 . S
C1297 H1291 0.950 . S
C1297 C1296 1.327 . S
C1297 C1301 1.429 . S
C1298 C1281 1.574 1_545 S
C1298 H1292 0.949 . S
C1298 C1302 1.368 1_655 S
C1299 C1280 1.429 . S
C1299 C1293 1.429 . S
C1299 C1300 1.523 . S
C1300 C1281 1.368 . S
C1300 C1294 1.368 1_655 S
C1300 C1299 1.523 . S
C1301 C1285 1.429 . S
C1301 C1297 1.429 . S
C1301 C1302 1.523 . S
C1302 C1286 1.368 . S
C1302 C1298 1.368 1_455 S
C1302 C1301 1.523 . S
H1303 C1278 0.950 . S
H1304 C1280 0.950 . S
H1305 C1281 0.949 . S
H1306 C1283 0.950 . S
H1307 C1285 0.950 . S
C1308 C1309 1.349 . S
C1308 C1310 1.327 . S
C1308 H1333 0.950 . S
C1309 C1308 1.349 . S
C1309 C1325 1.349 . S
C1310 C1308 1.327 . S
C1310 C1329 1.429 . S
C1310 H1334 0.950 . S
C1311 C1328 1.576 1_565 S
C1311 C1330 1.366 . S
C1311 H1335 0.949 . S
H1312 C1316 0.949 . S
C1313 C1314 1.349 . S
C1313 C1315 1.327 . S
C1313 H1336 0.950 . S
C1314 C1313 1.349 . S
C1314 C1326 1.349 . S
C1315 C1313 1.327 . S
C1315 C1331 1.429 . S
C1315 H1337 0.950 . S
C1316 H1312 0.949 . S
C1316 C1324 1.576 1_545 S
C1316 C1332 1.366 . S
H1317 C1325 0.950 . S
H1318 C1323 0.950 . S
H1319 C1324 0.949 . S
H1320 C1326 0.950 . S
H1321 C1327 0.950 . S
H1322 C1328 0.949 . S
C1323 H1318 0.950 . S
C1323 C1325 1.327 . S
C1323 C1329 1.429 . S
C1324 C1316 1.576 1_565 S
C1324 H1319 0.949 . S
C1324 C1330 1.368 . S
C1325 C1309 1.349 . S
C1325 H1317 0.950 . S
C1325 C1323 1.327 . S
C1326 C1314 1.349 . S
C1326 H1320 0.950 . S
C1326 C1327 1.327 . S
C1327 H1321 0.950 . S
C1327 C1326 1.327 . S
C1327 C1331 1.429 . S
C1328 C1311 1.576 1_545 S
C1328 H1322 0.949 . S
C1328 C1332 1.368 . S
C1329 C1310 1.429 . S
C1329 C1323 1.429 . S
C1329 C1330 1.523 . S
C1330 C1311 1.366 . S
C1330 C1324 1.368 . S
C1330 C1329 1.523 . S
C1331 C1315 1.429 . S
C1331 C1327 1.429 . S
C1331 C1332 1.523 . S
C1332 C1316 1.366 . S
C1332 C1328 1.368 . S
C1332 C1331 1.523 . S
H1333 C1308 0.950 . S
H1334 C1310 0.950 . S
H1335 C1311 0.949 . S
H1336 C1313 0.950 . S
H1337 C1315 0.950 . S
C1338 C1339 1.349 . S
C1338 C1340 1.327 . S
C1338 H1363 0.950 . S
C1339 C1338 1.349 . S
C1339 C1355 1.349 . S
C1340 C1338 1.327 . S
C1340 C1359 1.429 . S
C1340 H1364 0.950 . S
C1341 C1358 1.585 . S
C1341 C1360 1.368 . S
C1341 H1365 0.949 . S
H1342 C1346 0.949 . S
C1343 C1344 1.349 . S
C1343 C1345 1.327 . S
C1343 H1366 0.950 . S
C1344 C1343 1.349 . S
C1344 C1356 1.349 . S
C1345 C1343 1.327 . S
C1345 C1361 1.429 . S
C1345 H1367 0.950 . S
C1346 H1342 0.949 . S
C1346 C1354 1.585 . S
C1346 C1362 1.368 . S
H1347 C1355 0.950 . S
H1348 C1353 0.950 . S
H1349 C1354 0.949 . S
H1350 C1356 0.950 . S
H1351 C1357 0.950 . S
H1352 C1358 0.949 . S
C1353 H1348 0.950 . S
C1353 C1355 1.327 . S
C1353 C1359 1.429 . S
C1354 C1346 1.585 . S
C1354 H1349 0.949 . S
C1354 C1360 1.356 1_455 S
C1355 C1339 1.349 . S
C1355 H1347 0.950 . S
C1355 C1353 1.327 . S
C1356 C1344 1.349 . S
C1356 H1350 0.950 . S
C1356 C1357 1.327 . S
C1357 H1351 0.950 . S
C1357 C1356 1.327 . S
C1357 C1361 1.429 . S
C1358 C1341 1.585 . S
C1358 H1352 0.949 . S
C1358 C1362 1.356 1_655 S
C1359 C1340 1.429 . S
C1359 C1353 1.429 . S
C1359 C1360 1.523 . S
C1360 C1341 1.368 . S
C1360 C1354 1.356 1_655 S
C1360 C1359 1.523 . S
C1361 C1345 1.429 . S
C1361 C1357 1.429 . S
C1361 C1362 1.523 . S
C1362 C1346 1.368 . S
C1362 C1358 1.356 1_455 S
C1362 C1361 1.523 . S
H1363 C1338 0.950 . S
H1364 C1340 0.950 . S
H1365 C1341 0.949 . S
H1366 C1343 0.950 . S
H1367 C1345 0.950 . S
C1368 C1369 1.349 . S
C1368 C1370 1.327 . S
C1368 H1393 0.950 . S
C1369 C1368 1.349 . S
C1369 C1385 1.349 . S
C1370 C1368 1.327 . S
C1370 C1389 1.429 . S
C1370 H1394 0.950 . S
C1371 C1388 1.574 . S
C1371 C1390 1.368 . S
C1371 H1395 0.949 . S
H1372 C1376 0.949 . S
C1373 C1374 1.349 . S
C1373 C1375 1.327 . S
C1373 H1396 0.950 . S
C1374 C1373 1.349 . S
C1374 C1386 1.349 . S
C1375 C1373 1.327 . S
C1375 C1391 1.429 . S
C1375 H1397 0.950 . S
C1376 H1372 0.949 . S
C1376 C1384 1.574 . S
C1376 C1392 1.368 . S
H1377 C1385 0.950 . S
H1378 C1383 0.950 . S
H1379 C1384 0.949 . S
H1380 C1386 0.950 . S
H1381 C1387 0.950 . S
H1382 C1388 0.949 . S
C1383 H1378 0.950 . S
C1383 C1385 1.327 . S
C1383 C1389 1.429 . S
C1384 C1376 1.574 . S
C1384 H1379 0.949 . S
C1384 C1390 1.368 . S
C1385 C1369 1.349 . S
C1385 H1377 0.950 . S
C1385 C1383 1.327 . S
C1386 C1374 1.349 . S
C1386 H1380 0.950 . S
C1386 C1387 1.327 . S
C1387 H1381 0.950 . S
C1387 C1386 1.327 . S
C1387 C1391 1.429 . S
C1388 C1371 1.574 . S
C1388 H1382 0.949 . S
C1388 C1392 1.368 . S
C1389 C1370 1.429 . S
C1389 C1383 1.429 . S
C1389 C1390 1.523 . S
C1390 C1371 1.368 . S
C1390 C1384 1.368 . S
C1390 C1389 1.523 . S
C1391 C1375 1.429 . S
C1391 C1387 1.429 . S
C1391 C1392 1.523 . S
C1392 C1376 1.368 . S
C1392 C1388 1.368 . S
C1392 C1391 1.523 . S
H1393 C1368 0.950 . S
H1394 C1370 0.950 . S
H1395 C1371 0.949 . S
H1396 C1373 0.950 . S
H1397 C1375 0.950 . S
C1398 C1399 1.349 . S
C1398 C1400 1.327 . S
C1398 H1423 0.950 . S
C1399 C1398 1.349 . S
C1399 C1415 1.349 . S
C1400 C1398 1.327 . S
C1400 C1419 1.429 . S
C1400 H1424 0.950 . S
C1401 C1418 1.574 . S
C1401 C1420 1.368 1_565 S
C1401 H1425 0.949 . S
H1402 C1406 0.949 . S
C1403 C1404 1.349 . S
C1403 C1405 1.327 . S
C1403 H1426 0.950 . S
C1404 C1403 1.349 . S
C1404 C1416 1.349 . S
C1405 C1403 1.327 . S
C1405 C1421 1.429 . S
C1405 H1427 0.950 . S
C1406 H1402 0.949 . S
C1406 C1414 1.574 . S
C1406 C1422 1.368 1_545 S
H1407 C1415 0.950 . S
H1408 C1413 0.950 . S
H1409 C1414 0.949 . S
H1410 C1416 0.950 . S
H1411 C1417 0.950 . S
H1412 C1418 0.949 . S
C1413 H1408 0.950 . S
C1413 C1415 1.327 . S
C1413 C1419 1.429 . S
C1414 C1406 1.574 . S
C1414 H1409 0.949 . S
C1414 C1420 1.368 . S
C1415 C1399 1.349 . S
C1415 H1407 0.950 . S
C1415 C1413 1.327 . S
C1416 C1404 1.349 . S
C1416 H1410 0.950 . S
C1416 C1417 1.327 . S
C1417 H1411 0.950 . S
C1417 C1416 1.327 . S
C1417 C1421 1.429 . S
C1418 C1401 1.574 . S
C1418 H1412 0.949 . S
C1418 C1422 1.368 . S
C1419 C1400 1.429 . S
C1419 C1413 1.429 . S
C1419 C1420 1.523 . S
C1420 C1401 1.368 1_545 S
C1420 C1414 1.368 . S
C1420 C1419 1.523 . S
C1421 C1405 1.429 . S
C1421 C1417 1.429 . S
C1421 C1422 1.523 . S
C1422 C1406 1.368 1_565 S
C1422 C1418 1.368 . S
C1422 C1421 1.523 . S
H1423 C1398 0.950 . S
H1424 C1400 0.950 . S
H1425 C1401 0.949 . S
H1426 C1403 0.950 . S
H1427 C1405 0.950 . S
C1428 C1429 1.349 . S
C1428 C1430 1.327 . S
C1428 H1453 0.950 . S
C1429 C1428 1.349 . S
C1429 C1445 1.349 . S
C1430 C1428 1.327 . S
C1430 C1449 1.429 . S
C1430 H1454 0.950 . S
C1431 C1448 1.574 . S
C1431 C1450 1.368 . S
C1431 H1455 0.949 . S
H1432 C1436 0.949 . S
C1433 C1434 1.349 . S
C1433 C1435 1.327 . S
C1433 H1456 0.950 . S
C1434 C1433 1.349 . S
C1434 C1446 1.349 . S
C1435 C1433 1.327 . S
C1435 C1451 1.429 . S
C1435 H1457 0.950 . S
C1436 H1432 0.949 . S
C1436 C1444 1.574 . S
C1436 C1452 1.368 . S
H1437 C1445 0.950 . S
H1438 C1443 0.950 . S
H1439 C1444 0.949 . S
H1440 C1446 0.950 . S
H1441 C1447 0.950 . S
H1442 C1448 0.949 . S
C1443 H1438 0.950 . S
C1443 C1445 1.327 . S
C1443 C1449 1.429 . S
C1444 C1436 1.574 . S
C1444 H1439 0.949 . S
C1444 C1450 1.368 1_455 S
C1445 C1429 1.349 . S
C1445 H1437 0.950 . S
C1445 C1443 1.327 . S
C1446 C1434 1.349 . S
C1446 H1440 0.950 . S
C1446 C1447 1.327 . S
C1447 H1441 0.950 . S
C1447 C1446 1.327 . S
C1447 C1451 1.429 . S
C1448 C1431 1.574 . S
C1448 H1442 0.949 . S
C1448 C1452 1.368 1_655 S
C1449 C1430 1.429 . S
C1449 C1443 1.429 . S
C1449 C1450 1.523 . S
C1450 C1431 1.368 . S
C1450 C1444 1.368 1_655 S
C1450 C1449 1.523 . S
C1451 C1435 1.429 . S
C1451 C1447 1.429 . S
C1451 C1452 1.523 . S
C1452 C1436 1.368 . S
C1452 C1448 1.368 1_455 S
C1452 C1451 1.523 . S
H1453 C1428 0.950 . S
H1454 C1430 0.950 . S
H1455 C1431 0.949 . S
H1456 C1433 0.950 . S
H1457 C1435 0.950 . S
C1458 C1459 1.349 . S
C1458 C1460 1.327 . S
C1458 H1483 0.950 . S
C1459 C1458 1.349 . S
C1459 C1475 1.349 . S
C1460 C1458 1.327 . S
C1460 C1479 1.429 . S
C1460 H1484 0.950 . S
C1461 C1478 1.574 . S
C1461 C1480 1.368 . S
C1461 H1485 0.949 . S
H1462 C1466 0.949 . S
C1463 C1464 1.349 . S
C1463 C1465 1.327 . S
C1463 H1486 0.950 . S
C1464 C1463 1.349 . S
C1464 C1476 1.349 . S
C1465 C1463 1.327 . S
C1465 C1481 1.429 . S
C1465 H1487 0.950 . S
C1466 H1462 0.949 . S
C1466 C1474 1.574 . S
C1466 C1482 1.368 . S
H1467 C1475 0.950 . S
H1468 C1473 0.950 . S
H1469 C1474 0.949 . S
H1470 C1476 0.950 . S
H1471 C1477 0.950 . S
H1472 C1478 0.949 . S
C1473 H1468 0.950 . S
C1473 C1475 1.327 . S
C1473 C1479 1.429 . S
C1474 C1466 1.574 . S
C1474 H1469 0.949 . S
C1474 C1480 1.368 1_556 S
C1475 C1459 1.349 . S
C1475 H1467 0.950 . S
C1475 C1473 1.327 . S
C1476 C1464 1.349 . S
C1476 H1470 0.950 . S
C1476 C1477 1.327 . S
C1477 H1471 0.950 . S
C1477 C1476 1.327 . S
C1477 C1481 1.429 . S
C1478 C1461 1.574 . S
C1478 H1472 0.949 . S
C1478 C1482 1.368 1_554 S
C1479 C1460 1.429 . S
C1479 C1473 1.429 . S
C1479 C1480 1.523 . S
C1480 C1461 1.368 . S
C1480 C1474 1.368 1_554 S
C1480 C1479 1.523 . S
C1481 C1465 1.429 . S
C1481 C1477 1.429 . S
C1481 C1482 1.523 . S
C1482 C1466 1.368 . S
C1482 C1478 1.368 1_556 S
C1482 C1481 1.523 . S
H1483 C1458 0.950 . S
H1484 C1460 0.950 . S
H1485 C1461 0.949 . S
H1486 C1463 0.950 . S
H1487 C1465 0.950 . S
C1488 C1489 1.349 . S
C1488 C1490 1.327 . S
C1488 H1513 0.950 . S
C1489 C1488 1.349 . S
C1489 C1505 1.349 . S
C1490 C1488 1.327 . S
C1490 C1509 1.429 . S
C1490 H1514 0.950 . S
C1491 C1508 1.575 . S
C1491 C1510 1.367 1_654 S
C1491 H1515 0.949 1_554 S
H1492 C1496 0.949 1_554 S
C1493 C1494 1.349 . S
C1493 C1495 1.327 . S
C1493 H1516 0.950 . S
C1494 C1493 1.349 . S
C1494 C1506 1.349 . S
C1495 C1493 1.327 . S
C1495 C1511 1.429 . S
C1495 H1517 0.950 . S
C1496 H1492 0.949 1_556 S
C1496 C1504 1.575 . S
C1496 C1512 1.367 1_456 S
H1497 C1505 0.950 . S
H1498 C1503 0.950 . S
H1499 C1504 0.949 . S
H1500 C1506 0.950 . S
H1501 C1507 0.950 . S
H1502 C1508 0.949 . S
C1503 H1498 0.950 . S
C1503 C1505 1.327 . S
C1503 C1509 1.429 . S
C1504 C1496 1.575 . S
C1504 H1499 0.949 . S
C1504 C1510 1.368 . S
C1505 C1489 1.349 . S
C1505 H1497 0.950 . S
C1505 C1503 1.327 . S
C1506 C1494 1.349 . S
C1506 H1500 0.950 . S
C1506 C1507 1.327 . S
C1507 H1501 0.950 . S
C1507 C1506 1.327 . S
C1507 C1511 1.429 . S
C1508 C1491 1.575 . S
C1508 H1502 0.949 . S
C1508 C1512 1.368 . S
C1509 C1490 1.429 . S
C1509 C1503 1.429 . S
C1509 C1510 1.523 . S
C1510 C1491 1.367 1_456 S
C1510 C1504 1.368 . S
C1510 C1509 1.523 . S
C1511 C1495 1.429 . S
C1511 C1507 1.429 . S
C1511 C1512 1.523 . S
C1512 C1496 1.367 1_654 S
C1512 C1508 1.368 . S
C1512 C1511 1.523 . S
H1513 C1488 0.950 . S
H1514 C1490 0.950 . S
H1515 C1491 0.949 1_556 S
H1516 C1493 0.950 . S
H1517 C1495 0.950 . S
C1518 C1519 1.349 . S
C1518 C1520 1.327 . S
C1518 H1543 0.950 . S
C1519 C1518 1.349 . S
C1519 C1535 1.349 . S
C1520 C1518 1.327 . S
C1520 C1539 1.429 . S
C1520 H1544 0.950 . S
C1521 C1538 1.574 . S
C1521 C1540 1.368 . S
C1521 H1545 0.949 . S
H1522 C1526 0.949 . S
C1523 C1524 1.349 . S
C1523 C1525 1.327 . S
C1523 H1546 0.950 . S
C1524 C1523 1.349 . S
C1524 C1536 1.349 . S
C1525 C1523 1.327 . S
C1525 C1541 1.429 . S
C1525 H1547 0.950 . S
C1526 H1522 0.949 . S
C1526 C1534 1.574 . S
C1526 C1542 1.368 . S
H1527 C1535 0.950 . S
H1528 C1533 0.950 . S
H1529 C1534 0.949 . S
H1530 C1536 0.950 . S
H1531 C1537 0.950 . S
H1532 C1538 0.949 . S
C1533 H1528 0.950 . S
C1533 C1535 1.327 . S
C1533 C1539 1.429 . S
C1534 C1526 1.574 . S
C1534 H1529 0.949 . S
C1534 C1540 1.368 . S
C1535 C1519 1.349 . S
C1535 H1527 0.950 . S
C1535 C1533 1.327 . S
C1536 C1524 1.349 . S
C1536 H1530 0.950 . S
C1536 C1537 1.327 . S
C1537 H1531 0.950 . S
C1537 C1536 1.327 . S
C1537 C1541 1.429 . S
C1538 C1521 1.574 . S
C1538 H1532 0.949 . S
C1538 C1542 1.368 . S
C1539 C1520 1.429 . S
C1539 C1533 1.429 . S
C1539 C1540 1.523 . S
C1540 C1521 1.368 . S
C1540 C1534 1.368 . S
C1540 C1539 1.523 . S
C1541 C1525 1.429 . S
C1541 C1537 1.429 . S
C1541 C1542 1.523 . S
C1542 C1526 1.368 . S
C1542 C1538 1.368 . S
C1542 C1541 1.523 . S
H1543 C1518 0.950 . S
H1544 C1520 0.950 . S
H1545 C1521 0.949 . S
H1546 C1523 0.950 . S
H1547 C1525 0.950 . S
C1548 C1549 1.349 . S
C1548 C1550 1.327 . S
C1548 H1573 0.950 . S
C1549 C1548 1.349 . S
C1549 C1565 1.349 . S
C1550 C1548 1.327 . S
C1550 C1569 1.429 . S
C1550 H1574 0.950 . S
C1551 C1568 1.574 . S
C1551 C1570 1.368 1_556 S
C1551 H1575 0.949 . S
H1552 C1556 0.949 . S
C1553 C1554 1.349 . S
C1553 C1555 1.327 . S
C1553 H1576 0.950 . S
C1554 C1553 1.349 . S
C1554 C1566 1.349 . S
C1555 C1553 1.327 . S
C1555 C1571 1.429 . S
C1555 H1577 0.950 . S
C1556 H1552 0.949 . S
C1556 C1564 1.574 . S
C1556 C1572 1.368 1_554 S
H1557 C1565 0.950 . S
H1558 C1563 0.950 . S
H1559 C1564 0.949 . S
H1560 C1566 0.950 . S
H1561 C1567 0.950 . S
H1562 C1568 0.949 . S
C1563 H1558 0.950 . S
C1563 C1565 1.327 . S
C1563 C1569 1.429 . S
C1564 C1556 1.574 . S
C1564 H1559 0.949 . S
C1564 C1570 1.368 . S
C1565 C1549 1.349 . S
C1565 H1557 0.950 . S
C1565 C1563 1.327 . S
C1566 C1554 1.349 . S
C1566 H1560 0.950 . S
C1566 C1567 1.327 . S
C1567 H1561 0.950 . S
C1567 C1566 1.327 . S
C1567 C1571 1.429 . S
C1568 C1551 1.574 . S
C1568 H1562 0.949 . S
C1568 C1572 1.368 . S
C1569 C1550 1.429 . S
C1569 C1563 1.429 . S
C1569 C1570 1.523 . S
C1570 C1551 1.368 1_554 S
C1570 C1564 1.368 . S
C1570 C1569 1.523 . S
C1571 C1555 1.429 . S
C1571 C1567 1.429 . S
C1571 C1572 1.523 . S
C1572 C1556 1.368 1_556 S
C1572 C1568 1.368 . S
C1572 C1571 1.523 . S
H1573 C1548 0.950 . S
H1574 C1550 0.950 . S
H1575 C1551 0.949 . S
H1576 C1553 0.950 . S
H1577 C1555 0.950 . S
C1578 C1579 1.349 . S
C1578 C1580 1.327 . S
C1578 H1603 0.950 . S
C1579 C1578 1.349 . S
C1579 C1595 1.349 . S
C1580 C1578 1.327 . S
C1580 C1599 1.429 . S
C1580 H1604 0.950 . S
C1581 C1598 1.574 . S
C1581 C1600 1.368 . S
C1581 H1605 0.949 . S
H1582 C1586 0.949 . S
C1583 C1584 1.349 . S
C1583 C1585 1.327 . S
C1583 H1606 0.950 . S
C1584 C1583 1.349 . S
C1584 C1596 1.349 . S
C1585 C1583 1.327 . S
C1585 C1601 1.429 . S
C1585 H1607 0.950 . S
C1586 H1582 0.949 . S
C1586 C1594 1.574 . S
C1586 C1602 1.368 . S
H1587 C1595 0.950 . S
H1588 C1593 0.950 . S
H1589 C1594 0.949 . S
H1590 C1596 0.950 . S
H1591 C1597 0.950 . S
H1592 C1598 0.949 . S
C1593 H1588 0.950 . S
C1593 C1595 1.327 . S
C1593 C1599 1.429 . S
C1594 C1586 1.574 . S
C1594 H1589 0.949 . S
C1594 C1600 1.368 . S
C1595 C1579 1.349 . S
C1595 H1587 0.950 . S
C1595 C1593 1.327 . S
C1596 C1584 1.349 . S
C1596 H1590 0.950 . S
C1596 C1597 1.327 . S
C1597 H1591 0.950 . S
C1597 C1596 1.327 . S
C1597 C1601 1.429 . S
C1598 C1581 1.574 . S
C1598 H1592 0.949 . S
C1598 C1602 1.368 . S
C1599 C1580 1.429 . S
C1599 C1593 1.429 . S
C1599 C1600 1.523 . S
C1600 C1581 1.368 . S
C1600 C1594 1.368 . S
C1600 C1599 1.523 . S
C1601 C1585 1.429 . S
C1601 C1597 1.429 . S
C1601 C1602 1.523 . S
C1602 C1586 1.368 . S
C1602 C1598 1.368 . S
C1602 C1601 1.523 . S
H1603 C1578 0.950 . S
H1604 C1580 0.950 . S
H1605 C1581 0.949 . S
H1606 C1583 0.950 . S
H1607 C1585 0.950 . S
C1608 C1609 1.349 . S
C1608 C1610 1.327 . S
C1608 H1633 0.950 . S
C1609 C1608 1.349 . S
C1609 C1625 1.349 . S
C1610 C1608 1.327 . S
C1610 C1629 1.429 . S
C1610 H1634 0.950 . S
C1611 C1628 1.574 1_554 S
C1611 C1630 1.368 1_545 S
C1611 H1635 0.949 . S
H1612 C1616 0.949 . S
C1613 C1614 1.349 . S
C1613 C1615 1.327 . S
C1613 H1636 0.950 . S
C1614 C1613 1.349 . S
C1614 C1626 1.349 . S
C1615 C1613 1.327 . S
C1615 C1631 1.429 . S
C1615 H1637 0.950 . S
C1616 H1612 0.949 . S
C1616 C1624 1.574 1_556 S
C1616 C1632 1.368 1_565 S
H1617 C1625 0.950 . S
H1618 C1623 0.950 . S
H1619 C1624 0.949 . S
H1620 C1626 0.950 . S
H1621 C1627 0.950 . S
H1622 C1628 0.949 . S
C1623 H1618 0.950 . S
C1623 C1625 1.327 . S
C1623 C1629 1.429 . S
C1624 C1616 1.574 1_554 S
C1624 H1619 0.949 . S
C1624 C1630 1.368 . S
C1625 C1609 1.349 . S
C1625 H1617 0.950 . S
C1625 C1623 1.327 . S
C1626 C1614 1.349 . S
C1626 H1620 0.950 . S
C1626 C1627 1.327 . S
C1627 H1621 0.950 . S
C1627 C1626 1.327 . S
C1627 C1631 1.429 . S
C1628 C1611 1.574 1_556 S
C1628 H1622 0.949 . S
C1628 C1632 1.368 . S
C1629 C1610 1.429 . S
C1629 C1623 1.429 . S
C1629 C1630 1.523 . S
C1630 C1611 1.368 1_565 S
C1630 C1624 1.368 . S
C1630 C1629 1.523 . S
C1631 C1615 1.429 . S
C1631 C1627 1.429 . S
C1631 C1632 1.523 . S
C1632 C1616 1.368 1_545 S
C1632 C1628 1.368 . S
C1632 C1631 1.523 . S
H1633 C1608 0.950 . S
H1634 C1610 0.950 . S
H1635 C1611 0.949 . S
H1636 C1613 0.950 . S
H1637 C1615 0.950 . S
C1638 C1639 1.349 . S
C1638 C1640 1.327 . S
C1638 H1663 0.950 . S
C1639 C1638 1.349 . S
C1639 C1655 1.349 . S
C1640 C1638 1.327 . S
C1640 C1659 1.429 . S
C1640 H1664 0.950 . S
C1641 C1658 1.574 . S
C1641 C1660 1.368 . S
C1641 H1665 0.949 . S
H1642 C1646 0.949 . S
C1643 C1644 1.349 . S
C1643 C1645 1.327 . S
C1643 H1666 0.950 . S
C1644 C1643 1.349 . S
C1644 C1656 1.349 . S
C1645 C1643 1.327 . S
C1645 C1661 1.429 . S
C1645 H1667 0.950 . S
C1646 H1642 0.949 . S
C1646 C1654 1.574 . S
C1646 C1662 1.368 . S
H1647 C1655 0.950 . S
H1648 C1653 0.950 . S
H1649 C1654 0.949 . S
H1650 C1656 0.950 . S
H1651 C1657 0.950 . S
H1652 C1658 0.949 . S
C1653 H1648 0.950 . S
C1653 C1655 1.327 . S
C1653 C1659 1.429 . S
C1654 C1646 1.574 . S
C1654 H1649 0.949 . S
C1654 C1660 1.368 . S
C1655 C1639 1.349 . S
C1655 H1647 0.950 . S
C1655 C1653 1.327 . S
C1656 C1644 1.349 . S
C1656 H1650 0.950 . S
C1656 C1657 1.327 . S
C1657 H1651 0.950 . S
C1657 C1656 1.327 . S
C1657 C1661 1.429 . S
C1658 C1641 1.574 . S
C1658 H1652 0.949 . S
C1658 C1662 1.368 . S
C1659 C1640 1.429 . S
C1659 C1653 1.429 . S
C1659 C1660 1.523 . S
C1660 C1641 1.368 . S
C1660 C1654 1.368 . S
C1660 C1659 1.523 . S
C1661 C1645 1.429 . S
C1661 C1657 1.429 . S
C1661 C1662 1.523 . S
C1662 C1646 1.368 . S
C1662 C1658 1.368 . S
C1662 C1661 1.523 . S
H1663 C1638 0.950 . S
H1664 C1640 0.950 . S
H1665 C1641 0.949 . S
H1666 C1643 0.950 . S
H1667 C1645 0.950 . S
C1668 C1669 1.349 . S
C1668 C1670 1.327 . S
C1668 H1693 0.950 . S
C1669 C1668 1.349 . S
C1669 C1685 1.349 . S
C1670 C1668 1.327 . S
C1670 C1689 1.429 . S
C1670 H1694 0.950 . S
C1671 C1688 1.574 . S
C1671 C1690 1.368 . S
C1671 H1695 0.949 . S
H1672 C1676 0.949 . S
C1673 C1674 1.349 . S
C1673 C1675 1.327 . S
C1673 H1696 0.950 . S
C1674 C1673 1.349 . S
C1674 C1686 1.349 . S
C1675 C1673 1.327 . S
C1675 C1691 1.429 . S
C1675 H1697 0.950 . S
C1676 H1672 0.949 . S
C1676 C1684 1.574 . S
C1676 C1692 1.368 . S
H1677 C1685 0.950 . S
H1678 C1683 0.950 . S
H1679 C1684 0.949 . S
H1680 C1686 0.950 . S
H1681 C1687 0.950 . S
H1682 C1688 0.949 . S
C1683 H1678 0.950 . S
C1683 C1685 1.327 . S
C1683 C1689 1.429 . S
C1684 C1676 1.574 . S
C1684 H1679 0.949 . S
C1684 C1690 1.368 . S
C1685 C1669 1.349 . S
C1685 H1677 0.950 . S
C1685 C1683 1.327 . S
C1686 C1674 1.349 . S
C1686 H1680 0.950 . S
C1686 C1687 1.327 . S
C1687 H1681 0.950 . S
C1687 C1686 1.327 . S
C1687 C1691 1.429 . S
C1688 C1671 1.574 . S
C1688 H1682 0.949 . S
C1688 C1692 1.368 . S
C1689 C1670 1.429 . S
C1689 C1683 1.429 . S
C1689 C1690 1.523 . S
C1690 C1671 1.368 . S
C1690 C1684 1.368 . S
C1690 C1689 1.523 . S
C1691 C1675 1.429 . S
C1691 C1687 1.429 . S
C1691 C1692 1.523 . S
C1692 C1676 1.368 . S
C1692 C1688 1.368 . S
C1692 C1691 1.523 . S
H1693 C1668 0.950 . S
H1694 C1670 0.950 . S
H1695 C1671 0.949 . S
H1696 C1673 0.950 . S
H1697 C1675 0.950 . S
C1698 C1699 1.349 . S
C1698 C1700 1.327 . S
C1698 H1723 0.950 . S
C1699 C1698 1.349 . S
C1699 C1715 1.349 . S
C1700 C1698 1.327 . S
C1700 C1719 1.429 . S
C1700 H1724 0.950 . S
C1701 C1718 1.574 . S
C1701 C1720 1.368 . S
C1701 H1725 0.949 . S
H1702 C1706 0.949 . S
C1703 C1704 1.349 . S
C1703 C1705 1.327 . S
C1703 H1726 0.950 . S
C1704 C1703 1.349 . S
C1704 C1716 1.349 . S
C1705 C1703 1.327 . S
C1705 C1721 1.429 . S
C1705 H1727 0.950 . S
C1706 H1702 0.949 . S
C1706 C1714 1.574 . S
C1706 C1722 1.368 . S
H1707 C1715 0.950 . S
H1708 C1713 0.950 . S
H1709 C1714 0.949 . S
H1710 C1716 0.950 . S
H1711 C1717 0.950 . S
H1712 C1718 0.949 . S
C1713 H1708 0.950 . S
C1713 C1715 1.327 . S
C1713 C1719 1.429 . S
C1714 C1706 1.574 . S
C1714 H1709 0.949 . S
C1714 C1720 1.368 . S
C1715 C1699 1.349 . S
C1715 H1707 0.950 . S
C1715 C1713 1.327 . S
C1716 C1704 1.349 . S
C1716 H1710 0.950 . S
C1716 C1717 1.327 . S
C1717 H1711 0.950 . S
C1717 C1716 1.327 . S
C1717 C1721 1.429 . S
C1718 C1701 1.574 . S
C1718 H1712 0.949 . S
C1718 C1722 1.368 . S
C1719 C1700 1.429 . S
C1719 C1713 1.429 . S
C1719 C1720 1.523 . S
C1720 C1701 1.368 . S
C1720 C1714 1.368 . S
C1720 C1719 1.523 . S
C1721 C1705 1.429 . S
C1721 C1717 1.429 . S
C1721 C1722 1.523 . S
C1722 C1706 1.368 . S
C1722 C1718 1.368 . S
C1722 C1721 1.523 . S
H1723 C1698 0.950 . S
H1724 C1700 0.950 . S
H1725 C1701 0.949 . S
H1726 C1703 0.950 . S
H1727 C1705 0.950 . S
C529 N2 0.557 . S
C534 N299 0.557 . S
C559 N13 0.506 . S
C564 N310 0.506 . S
C589 N277 0.506 . S
C594 N46 0.506 . S
C619 N35 0.557 . S
C624 N266 0.557 . S
C649 N68 0.557 . S
C654 N365 0.557 . S
C679 N79 0.506 . S
C684 N376 0.506 . S
C709 N112 0.506 . S
C714 N343 0.506 . S
C739 N101 0.557 . S
C744 N332 0.557 . S
C769 N134 0.557 . S
C774 N431 0.557 . S
C799 N442 0.506 . S
C804 N145 0.506 . S
C829 N409 0.506 . S
C834 N178 0.506 . S
C859 N398 0.557 . S
C864 N167 0.557 . S
C889 N497 0.557 . S
C894 N200 0.557 . S
C919 N508 0.506 . S
C924 N211 0.506 . S
C949 N475 0.506 . S
C954 N244 0.506 . S
C979 N233 0.557 . S
C984 N464 0.557 . S
C1009 C21 1.034 . S
C1014 C54 1.034 . S
C1039 C120 1.034 . S
C1044 C87 1.034 . S
C1069 C186 1.034 . S
C1074 C153 1.034 . S
C1099 C252 1.034 . S
C1104 C219 1.034 . S
C1129 C318 1.034 . S
C1134 C285 1.034 . S
C1159 C351 1.034 . S
C1164 C384 1.034 . S
C1189 C450 1.034 . S
C1194 C417 1.034 . S
C1219 C483 1.034 . S
C1224 C516 1.034 . S
C1249 C469 1.833 . S
C1254 C7 1.833 . S
C1279 C84 1.866 . S
C1284 C18 1.866 . S
C1309 C381 1.866 . S
C1314 C51 1.866 . S
C1339 C238 1.833 . S
C1344 C40 1.833 . S
C1369 C73 1.833 . S
C1374 C403 1.833 . S
C1399 C315 1.866 . S
C1404 C117 1.866 . S
C1429 C106 1.833 . S
C1434 C172 1.833 . S
C1459 C337 1.833 . S
C1464 C139 1.833 . S
C1489 C150 1.866 . S
C1494 C216 1.866 . S
C1519 C183 1.866 . S
C1524 C513 1.866 . S
C1549 C205 1.833 . S
C1554 C271 1.833 . S
C1579 C249 1.866 . S
C1584 C447 1.866 . S
C1609 C348 1.866 . S
C1614 C282 1.866 . S
C1639 C502 1.833 . S
C1644 C304 1.833 . S
C1669 C370 1.833 . S
C1674 C436 1.833 . S
C1699 C414 1.866 . S
C1704 C480 1.866 . S
