# Generated by pormake.
# Topology sxc, (6)-cn, num edge types: 1
# Building blocks:
#     Node 0, Type 0, BuildingBlock: CUKXOW_clean_sbu_0, # of connection points: 6
#     Node 1, Type 0, BuildingBlock: CUKXOW_clean_sbu_0, # of connection points: 6
#     Node 2, Type 0, BuildingBlock: CUKXOW_clean_sbu_0, # of connection points: 6
#     Edge 3, Type (0, 0), BuildingBlock: MIFKUJ_clean_linker_0, # of connection points: 2
#     Edge 4, Type (0, 0), BuildingBlock: MIFKUJ_clean_linker_0, # of connection points: 2
#     Edge 5, Type (0, 0), BuildingBlock: MIFKUJ_clean_linker_0, # of connection points: 2
#     Edge 6, Type (0, 0), BuildingBlock: MIFKUJ_clean_linker_0, # of connection points: 2
#     Edge 7, Type (0, 0), BuildingBlock: MIFKUJ_clean_linker_0, # of connection points: 2
#     Edge 8, Type (0, 0), BuildingBlock: MIFKUJ_clean_linker_0, # of connection points: 2
#     Edge 9, Type (0, 0), BuildingBlock: MIFKUJ_clean_linker_0, # of connection points: 2
#     Edge 10, Type (0, 0), BuildingBlock: MIFKUJ_clean_linker_0, # of connection points: 2
#     Edge 11, Type (0, 0), BuildingBlock: MIFKUJ_clean_linker_0, # of connection points: 2
# Relax obj value: 0.028
# Max RMSD: 0.090
# Mean RMSD: 0.059
data_MOF--net-sxc--node1-CUKXOW_clean_sbu_0--edge1-MIFKUJ_clean_linker_0
_symmetry_space_group_name_H-M    P1
_symmetry_Int_Tables_number       1
_symmetry_cell_setting            triclinic
loop_
_symmetry_equiv_pos_as_xyz
'x, y, z'
_cell_length_a     19.079507
_cell_length_b     22.103259
_cell_length_c     59.273614
_cell_angle_alpha  88.940429
_cell_angle_beta   102.63927
_cell_angle_gamma 123.15338
loop_
_atom_site_label
_atom_site_type_symbol
_atom_site_fract_x
_atom_site_fract_y
_atom_site_fract_z
_atom_type_partial_charge
Tb0 Tb 1.02979 0.07217 0.00842 0.0
C1 C 0.09011 0.03754 0.0581 0.0
Tb2 Tb 0.12894 0.99558 0.01389 0.0
O3 O 0.89682 0.97354 0.00529 0.0
O4 O 0.99941 0.96428 0.01011 0.0
O5 O 0.0715 0.08045 0.04617 0.0
C6 C 0.15292 0.88771 0.01323 0.0
O7 O 0.1042 0.99287 0.04832 0.0
C8 C 0.24075 0.14178 0.01441 0.0
C9 C 0.06128 0.02403 0.96395 0.0
O10 O 0.17865 0.9333 0.03146 0.0
O11 O 0.11559 0.90397 0.99552 0.0
O12 O 0.26186 0.0946 0.01708 0.0
O13 O 0.15932 0.10356 0.01217 0.0
O14 O 0.08088 0.98215 0.97619 0.0
O15 O 0.05033 0.07103 0.97363 0.0
C16 C 1.01022 0.18249 0.00962 0.0
O17 O 0.97884 0.13451 0.99159 0.0
O18 O 0.05079 0.16732 0.02682 0.0
C19 C 0.91797 0.92632 0.00791 0.0
Tb20 Tb 0.12639 0.17044 0.34563 0.0
C21 C 0.07568 0.06807 0.30022 0.0
Tb22 Tb 0.05075 1.00319 0.34866 0.0
O23 O 0.26242 0.2082 0.34868 0.0
O24 O 0.16972 0.10085 0.34916 0.0
O25 O 0.09014 0.12996 0.30898 0.0
C26 C 1.0353 0.87791 0.3526 0.0
O27 O 0.06689 1.01515 0.31297 0.0
C28 C 0.92881 0.03057 0.34462 0.0
C29 C 0.10348 0.10657 0.39414 0.0
O30 O 0.98752 0.88921 0.33628 0.0
O31 O 0.09259 0.9374 0.36666 0.0
O32 O 0.91512 0.96639 0.34604 0.0
O33 O 1.00788 0.07295 0.34521 0.0
O34 O 0.08914 0.04444 0.38552 0.0
O35 O 0.11085 0.15864 0.38119 0.0
C36 C 0.1313 0.29097 0.34028 0.0
O37 O 0.18226 0.28399 0.35699 0.0
O38 O 0.07786 0.23021 0.32656 0.0
C39 C 0.24901 0.14399 0.35001 0.0
Tb40 Tb 0.13007 0.16943 0.6882 0.0
C41 C 0.06287 0.05227 0.72152 0.0
Tb42 Tb 1.01138 0.02237 0.66666 0.0
O43 O 1.03522 0.1653 0.704 0.0
O44 O 0.9948 0.10823 0.67125 0.0
O45 O 0.12841 0.11685 0.71922 0.0
C46 C 0.88513 0.88787 0.64793 0.0
O47 O 1.00319 1.00622 0.70306 0.0
C48 C 0.17264 0.07175 0.6676 0.0
C49 C 0.07662 0.13985 0.63341 0.0
O50 O 0.9621 0.90814 0.65936 0.0
O51 O 0.87783 0.9427 0.64817 0.0
O52 O 0.10683 0.02827 0.6507 0.0
O53 O 0.14633 0.08321 0.6838 0.0
O54 O 1.01011 0.07596 0.63587 0.0
O55 O 0.13896 0.1843 0.65181 0.0
C56 C 0.25692 0.30192 0.70832 0.0
O57 O 0.1833 0.28478 0.69512 0.0
O58 O 0.26154 0.24565 0.7087 0.0
C59 C 0.96903 0.1204 0.68744 0.0
H60 H 0.06614 0.27929 0.04725 0.0
H61 H 0.08621 0.39824 0.04767 0.0
H62 H 0.98097 0.35793 0.9732 0.0
H63 H 0.96043 0.23811 0.97272 0.0
H64 H 0.13407 0.48807 0.98627 0.0
H65 H 0.86788 0.36333 0.00917 0.0
H66 H 0.7644 0.28492 0.03204 0.0
H67 H 0.93954 0.43001 0.09443 0.0
H68 H 0.04455 0.50889 0.07197 0.0
H69 H 0.10127 0.79199 0.97569 0.0
H70 H 0.0821 0.67342 0.97553 0.0
H71 H 0.18225 0.71311 0.05022 0.0
H72 H 0.20122 0.83229 0.05045 0.0
H73 H 1.03229 0.5834 0.03719 0.0
H74 H 0.29844 0.70809 0.01492 0.0
H75 H 0.40397 0.78687 0.99261 0.0
H76 H 0.23213 0.64277 0.92978 0.0
H77 H 0.12506 0.56352 0.95168 0.0
C78 C 0.04584 0.29525 0.03102 0.0
C79 C 1.01161 0.24968 0.00995 0.0
C80 C 0.05719 0.36317 0.03129 0.0
C81 C 1.03484 0.38685 0.01048 0.0
C82 C 0.99854 0.34056 0.98945 0.0
C83 C 0.98646 0.27216 0.9892 0.0
C84 C 0.05531 0.46189 0.01058 0.0
C85 C 0.11049 0.50861 0.99705 0.0
C86 C 1.02701 0.48922 0.0253 0.0
C87 C 0.96447 0.44156 0.03892 0.0
C88 C 0.8847 0.37812 0.02781 0.0
C89 C 0.82566 0.33371 0.04068 0.0
C90 C 0.84549 0.35235 0.06468 0.0
C91 C 0.92432 0.41557 0.07585 0.0
C92 C 0.98357 0.4602 0.06305 0.0
C93 C 0.12069 0.776 0.99203 0.0
C94 C 0.15281 0.82112 0.01309 0.0
C95 C 0.10992 0.70832 0.99191 0.0
C96 C 0.1311 0.68454 0.01285 0.0
C97 C 0.16558 0.73051 0.03387 0.0
C98 C 0.17678 0.79856 0.03398 0.0
C99 C 0.11101 0.60961 0.01285 0.0
C100 C 0.05587 0.56289 0.02639 0.0
C101 C 0.13966 0.58237 0.99822 0.0
C102 C 0.20331 0.63032 0.9849 0.0
C103 C 0.28276 0.6936 0.9963 0.0
C104 C 0.34296 0.73823 0.98375 0.0
C105 C 0.32466 0.71996 0.95979 0.0
C106 C 0.24617 0.65691 0.94834 0.0
C107 C 0.18574 0.61207 0.96082 0.0
H108 H 0.37137 0.75456 0.9501 0.0
H109 H 0.79969 0.3179 0.07462 0.0
H110 H 0.4213 0.24274 0.35853 0.0
H111 H 0.53517 0.22371 0.35793 0.0
H112 H 0.34587 0.99212 0.34221 0.0
H113 H 0.2307 1.01123 0.34337 0.0
H114 H 0.48947 0.01914 0.37266 0.0
H115 H 0.4363 0.10562 0.30035 0.0
H116 H 0.42079 0.18979 0.27508 0.0
H117 H 0.68439 0.36174 0.30608 0.0
H118 H 0.70097 0.27923 0.33187 0.0
H119 H 0.7568 0.9326 0.33722 0.0
H120 H 0.64414 0.95273 0.33827 0.0
H121 H 0.83455 0.18438 0.35252 0.0
H122 H 0.94852 0.16409 0.35099 0.0
H123 H 0.69126 0.15822 0.32299 0.0
H124 H 0.74575 0.07765 0.39596 0.0
H125 H 0.76475 0.99773 0.42252 0.0
H126 H 0.50404 0.81969 0.39176 0.0
H127 H 0.48383 0.8983 0.36478 0.0
C128 C 0.40358 0.18753 0.35505 0.0
C129 C 0.3166 0.12853 0.35094 0.0
C130 C 0.46909 0.17675 0.35455 0.0
C131 C 0.44979 0.10661 0.34947 0.0
C132 C 0.36297 0.04698 0.34601 0.0
C133 C 0.29698 0.05781 0.34671 0.0
C134 C 0.52048 0.0964 0.34777 0.0
C135 C 0.53256 0.04873 0.36148 0.0
C136 C 0.57937 0.13671 0.33382 0.0
C137 C 0.5696 0.18628 0.31817 0.0
C138 C 0.49076 0.1615 0.30187 0.0
C139 C 0.48179 0.20889 0.28746 0.0
C140 C 0.55152 0.28098 0.28898 0.0
C141 C 0.6304 0.30588 0.30492 0.0
C142 C 0.6396 0.25882 0.31945 0.0
C143 C 0.77503 0.98805 0.34049 0.0
C144 C 0.86197 0.04672 0.34405 0.0
C145 C 0.71023 0.99948 0.34126 0.0
C146 C 0.73019 0.07 0.34601 0.0
C147 C 0.81694 0.12926 0.34896 0.0
C148 C 0.88224 0.11775 0.34804 0.0
C149 C 0.66009 0.08087 0.34783 0.0
C150 C 0.64812 0.12862 0.33415 0.0
C151 C 0.60176 0.04117 0.36195 0.0
C152 C 0.61356 0.99373 0.37819 0.0
C153 C 0.69267 0.02131 0.39474 0.0
C154 C 0.70362 0.97627 0.40989 0.0
C155 C 0.63571 0.90363 0.40879 0.0
C156 C 0.55662 0.87594 0.39257 0.0
C157 C 0.54535 0.92074 0.37736 0.0
H158 H 0.64432 0.86884 0.42054 0.0
H159 H 0.54445 0.31755 0.27779 0.0
H160 H 0.71662 0.83737 0.62961 0.0
H161 H 0.59897 0.72431 0.63897 0.0
H162 H 0.77368 0.65737 0.66375 0.0
H163 H 0.8905 0.76886 0.65378 0.0
H164 H 0.60375 0.54256 0.65265 0.0
H165 H 0.78743 0.78159 0.70107 0.0
H166 H 0.85066 0.91332 0.70795 0.0
H167 H 0.59722 0.8733 0.68898 0.0
H168 H 0.53224 0.74095 0.68235 0.0
H169 H 0.41866 0.34555 0.73244 0.0
H170 H 0.54697 0.46255 0.72963 0.0
H171 H 0.38674 0.54069 0.70083 0.0
H172 H 0.25892 0.42477 0.704 0.0
H173 H 0.55884 0.6521 0.71608 0.0
H174 H 0.3754 0.41486 0.66618 0.0
H175 H 0.31027 0.28303 0.65841 0.0
H176 H 0.56207 0.31977 0.67784 0.0
H177 H 0.62867 0.45186 0.68637 0.0
C178 C 0.72845 0.7965 0.63575 0.0
C179 C 0.81251 0.81237 0.64219 0.0
C180 C 0.66144 0.73221 0.64111 0.0
C181 C 0.67981 0.68532 0.65311 0.0
C182 C 0.75946 0.69429 0.65498 0.0
C183 C 0.82614 0.75806 0.64935 0.0
C184 C 0.62749 0.64053 0.66878 0.0
C185 C 0.59428 0.56635 0.66661 0.0
C186 C 0.61644 0.67246 0.68707 0.0
C187 C 0.65518 0.75172 0.69107 0.0
C188 C 0.7453 0.80099 0.69831 0.0
C189 C 0.78142 0.87569 0.70217 0.0
C190 C 0.72814 0.90175 0.69874 0.0
C191 C 0.63843 0.85304 0.69159 0.0
C192 C 0.60188 0.77818 0.68789 0.0
C193 C 0.41158 0.38926 0.72681 0.0
C194 C 0.32977 0.37598 0.71711 0.0
C195 C 0.48485 0.4561 0.72538 0.0
C196 C 0.4748 0.50787 0.7139 0.0
C197 C 0.39493 0.50019 0.70922 0.0
C198 C 0.32183 0.4337 0.71081 0.0
C199 C 0.53448 0.55383 0.69988 0.0
C200 C 0.56919 0.6284 0.70232 0.0
C201 C 0.54676 0.52219 0.68176 0.0
C202 C 0.50677 0.44286 0.67719 0.0
C203 C 0.41673 0.39468 0.66901 0.0
C204 C 0.3796 0.32001 0.66443 0.0
C205 C 0.43198 0.29311 0.66752 0.0
C206 C 0.52162 0.34074 0.67547 0.0
C207 C 0.55907 0.41545 0.68025 0.0
H208 H 0.40319 0.23548 0.6636 0.0
H209 H 0.75631 0.9596 0.70175 0.0
H210 H 0.82587 0.05141 0.65014 0.0
H211 H 0.68779 0.03929 0.6468 0.0
H212 H 0.78111 0.14759 0.71687 0.0
H213 H 0.91706 0.15798 0.72044 0.0
H214 H 0.61785 0.04056 0.70992 0.0
H215 H 0.78534 0.23859 0.66783 0.0
H216 H 0.86662 0.29414 0.63796 0.0
H217 H 0.64097 0.14469 0.58417 0.0
H218 H 0.55865 0.08763 0.61377 0.0
H219 H 0.3129 0.13483 0.70572 0.0
H220 H 0.44992 0.14491 0.70937 0.0
H221 H 0.36018 0.04335 0.63846 0.0
H222 H 0.22571 0.03566 0.63457 0.0
H223 H 0.52171 0.14658 0.64585 0.0
H224 H 0.35391 0.9481 0.68764 0.0
H225 H 0.27204 0.89184 0.71735 0.0
H226 H 0.49696 0.04069 0.77142 0.0
H227 H 0.57988 0.09839 0.74199 0.0
C228 C 0.8163 0.07192 0.66485 0.0
C229 C 0.88258 0.10652 0.68542 0.0
C230 C 0.73767 0.06535 0.66291 0.0
C231 C 0.72451 0.09384 0.68145 0.0
C232 C 0.78955 0.12548 0.70229 0.0
C233 C 0.86754 0.1317 0.70426 0.0
C234 C 0.64487 0.09354 0.67912 0.0
C235 C 0.5973 0.06432 0.69601 0.0
C236 C 0.61698 0.12356 0.66083 0.0
C237 C 0.66613 0.15841 0.64302 0.0
C238 C 0.75323 0.21731 0.64964 0.0
C239 C 0.79946 0.24909 0.63276 0.0
C240 C 0.75906 0.22283 0.60919 0.0
C241 C 0.67223 0.1649 0.60244 0.0
C242 C 0.62574 0.13286 0.61926 0.0
C243 C 0.32303 0.11529 0.69092 0.0
C244 C 0.25833 0.08376 0.66995 0.0
C245 C 0.40102 0.12058 0.69303 0.0
C246 C 0.41497 0.0935 0.67432 0.0
C247 C 0.35126 0.06441 0.65318 0.0
C248 C 0.27407 0.05974 0.65102 0.0
C249 C 0.49441 0.09341 0.67662 0.0
C250 C 0.54207 0.12266 0.65975 0.0
C251 C 0.52224 0.06325 0.6949 0.0
C252 C 0.47281 0.02797 0.71261 0.0
C253 C 0.38575 0.96905 0.70586 0.0
C254 C 0.33918 0.9369 0.72265 0.0
C255 C 0.37921 0.9628 0.74626 0.0
C256 C 0.466 0.02075 0.75313 0.0
C257 C 0.51284 0.05315 0.73641 0.0
H258 H 0.34303 0.93789 0.75922 0.0
H259 H 0.79497 0.24745 0.59615 0.0
H260 H 0.94415 0.81646 0.02354 0.0
H261 H 0.83415 0.68773 0.0256 0.0
H262 H 0.63291 0.72002 0.99383 0.0
H263 H 0.74182 0.84811 0.99305 0.0
H264 H 0.57004 0.63681 0.02171 0.0
H265 H 0.71778 0.61796 0.96827 0.0
H266 H 0.84098 0.63327 0.95565 0.0
H267 H 0.8761 0.51403 0.00995 0.0
H268 H 0.75529 0.50013 0.02338 0.0
H269 H 0.21506 0.25247 -0.0007 0.0
H270 H 0.32542 0.38133 0.99749 0.0
H271 H 0.52613 0.34773 0.02854 0.0
H272 H 0.41691 0.21963 0.02911 0.0
H273 H 0.58987 0.43177 0.00115 0.0
H274 H 0.44308 0.44971 0.05463 0.0
H275 H 0.3228 0.4366 0.06832 0.0
H276 H 0.28833 0.55904 0.01512 0.0
H277 H 0.40578 0.57044 0.00053 0.0
C278 C 0.8765 0.79605 0.01683 0.0
C279 C 0.85332 0.84428 0.00797 0.0
C280 C 0.81246 0.72123 0.01786 0.0
C281 C 0.72223 0.69061 0.00954 0.0
C282 C 0.70022 0.73944 0.00058 0.0
C283 C 0.76367 0.81387 -4e-05 0.0
C284 C 0.65046 0.60972 0.0104 0.0
C285 C 0.57466 0.59234 0.01681 0.0
C286 C 0.6542 0.54906 0.00487 0.0
C287 C 0.72805 0.55881 0.99701 0.0
C288 C 0.7525 0.59582 0.9777 0.0
C289 C 0.82207 0.60435 0.97042 0.0
C290 C 0.86681 0.5751 0.98209 0.0
C291 C 0.84212 0.53733 0.00106 0.0
C292 C 0.77319 0.52923 0.00854 0.0
C293 C 0.28267 0.27259 0.0059 0.0
C294 C 0.30557 0.22395 0.01449 0.0
C295 C 0.34693 0.3475 0.00501 0.0
C296 C 0.43715 0.37781 0.01317 0.0
C297 C 0.45887 0.3286 0.02188 0.0
C298 C 0.39522 0.25412 0.02239 0.0
C299 C 0.50915 0.45874 0.0124 0.0
C300 C 0.58505 0.47616 0.00601 0.0
C301 C 0.50562 0.51947 0.01802 0.0
C302 C 0.43259 0.51003 0.02628 0.0
C303 C 0.40889 0.4728 0.04561 0.0
C304 C 0.34104 0.46559 0.05351 0.0
C305 C 0.29741 0.49646 0.04248 0.0
C306 C 0.32131 0.53436 0.02348 0.0
C307 C 0.38836 0.54104 0.01535 0.0
H308 H 0.2456 0.49158 0.04876 0.0
H309 H 0.92017 0.58122 0.97634 0.0
H310 H 1.01518 0.30494 0.30926 0.0
H311 H 0.99329 0.40375 0.31085 0.0
H312 H 0.2124 0.51695 0.37047 0.0
H313 H 0.23396 0.4178 0.36914 0.0
H314 H 0.06603 0.50006 0.3777 0.0
H315 H 0.2283 0.58054 0.31926 0.0
H316 H 0.26145 0.56735 0.28243 0.0
H317 H 1.01495 0.52 0.24387 0.0
H318 H 0.97982 0.53194 0.28052 0.0
H319 H 0.13997 0.85093 0.38343 0.0
H320 H 0.14305 0.74201 0.38163 0.0
H321 H 0.92282 0.64346 0.32207 0.0
H322 H 0.92003 0.75257 0.32365 0.0
H323 H 0.05902 0.64673 0.31394 0.0
H324 H 0.89969 0.57302 0.37213 0.0
H325 H 0.86584 0.58573 0.40888 0.0
H326 H 0.10499 0.61961 0.44788 0.0
H327 H 0.1409 0.60813 0.41135 0.0
C328 C 0.0595 0.35159 0.32242 0.0
C329 C 0.12601 0.35426 0.33913 0.0
C330 C 0.047 0.40776 0.3233 0.0
C331 C 0.10136 0.46715 0.34077 0.0
C332 C 0.16986 0.47113 0.35693 0.0
C333 C 0.18228 0.41492 0.35609 0.0
C334 C 0.08348 0.52296 0.34311 0.0
C335 C 0.06554 0.53295 0.36392 0.0
C336 C 0.07996 0.56341 0.32471 0.0
C337 C 0.10109 0.55641 0.30265 0.0
C338 C 0.18086 0.56671 0.30294 0.0
C339 C 0.20007 0.55958 0.28209 0.0
C340 C 0.14025 0.54265 0.26083 0.0
C341 C 0.06118 0.53301 0.26036 0.0
C342 C 0.04162 0.54003 0.28116 0.0
C343 C 0.09136 0.80541 0.37026 0.0
C344 C 1.03026 0.80977 0.35356 0.0
C345 C 0.09287 0.74331 0.36932 0.0
C346 C 1.03293 0.68508 0.35176 0.0
C347 C 0.96942 0.68815 0.33571 0.0
C348 C 0.96794 0.75023 0.33664 0.0
C349 C 0.04264 0.62462 0.34868 0.0
C350 C 0.05892 0.61359 0.3277 0.0
C351 C 0.04456 0.58321 0.36692 0.0
C352 C 1.02332 0.59033 0.38896 0.0
C353 C 0.94545 0.58383 0.38853 0.0
C354 C 0.9258 0.59067 0.40933 0.0
C355 C 0.98332 0.60363 0.4307 0.0
C356 C 0.06053 0.60963 0.43131 0.0
C357 C 0.08051 0.60287 0.41056 0.0
H358 H 0.96797 0.60889 0.44678 0.0
H359 H 0.15524 0.53715 0.24471 0.0
H360 H 1.03221 0.94617 0.27358 0.0
H361 H 1.03004 0.93354 0.23245 0.0
H362 H 0.11242 0.15749 0.22905 0.0
H363 H 0.11264 0.17006 0.26981 0.0
H364 H 0.98797 0.07478 0.19189 0.0
H365 H 0.25192 0.09601 0.23378 0.0
H366 H 0.33396 0.05742 0.26099 0.0
H367 H 0.18917 0.84831 0.22003 0.0
H368 H 0.1051 0.88502 0.19274 0.0
H369 H 0.1202 0.14695 0.08766 0.0
H370 H 0.11632 0.14612 0.12854 0.0
H371 H 0.05541 0.92697 0.12613 0.0
H372 H 0.06347 0.92902 0.08541 0.0
H373 H 0.15895 0.99606 0.16572 0.0
H374 H 0.89819 0.96915 0.12363 0.0
H375 H 0.80764 0.99898 0.09591 0.0
H376 H 0.93355 0.2066 0.1365 0.0
H377 H 1.0257 0.17841 0.1643 0.0
C378 C 0.04976 0.99275 0.26408 0.0
C379 C 0.07269 0.05919 0.27512 0.0
C380 C 0.04892 0.98552 0.24055 0.0
C381 C 0.07222 0.04486 0.22763 0.0
C382 C 0.09421 0.11087 0.23858 0.0
C383 C 0.0944 0.11797 0.26198 0.0
C384 C 0.07335 0.03883 0.20269 0.0
C385 C 1.02618 0.05833 0.18623 0.0
C386 C 0.12032 1.01457 0.19503 0.0
C387 C 0.17165 0.99303 0.21134 0.0
C388 C 0.23718 0.04164 0.23065 0.0
C389 C 0.2841 0.02014 0.24608 0.0
C390 C 0.26675 0.95052 0.24228 0.0
C391 C 0.2025 0.90221 0.22298 0.0
C392 C 0.15519 0.92331 0.20752 0.0
C393 C 0.10631 0.09865 0.09585 0.0
C394 C 0.09163 0.03788 0.08324 0.0
C395 C 0.10349 0.098 0.11924 0.0
C396 C 0.08328 0.03575 0.13041 0.0
C397 C 0.0707 0.97559 0.11798 0.0
C398 C 0.07528 0.97678 0.09467 0.0
C399 C 0.07505 0.0336 0.15497 0.0
C400 C 0.1205 1.0123 0.17133 0.0
C401 C 1.02525 0.055 0.16251 0.0
C402 C 0.96933 0.07187 0.14595 0.0
C403 C 0.90691 0.02134 0.12657 0.0
C404 C 0.85527 0.03794 0.11085 0.0
C405 C 0.86497 0.10471 0.11442 0.0
C406 C 0.92616 0.15492 0.13375 0.0
C407 C 0.97804 0.13863 0.14951 0.0
H408 H 0.82497 0.11748 0.10222 0.0
H409 H 0.30321 0.93407 0.25427 0.0
H410 H 0.13188 0.22578 0.41815 0.0
H411 H 0.13732 0.24432 0.45906 0.0
H412 H 0.09039 0.03226 0.46824 0.0
H413 H 0.08601 1.01346 0.42726 0.0
H414 H 1.0187 0.1747 0.4827 0.0
H415 H 0.18932 0.03449 0.52411 0.0
H416 H 0.29556 1.01079 0.51717 0.0
H417 H 0.4047 0.19882 0.48075 0.0
H418 H 0.29994 0.22422 0.48775 0.0
H419 H 0.94881 0.07428 0.59342 0.0
H420 H 0.96332 0.08356 0.55354 0.0
H421 H 0.23572 0.24886 0.57826 0.0
H422 H 0.22184 0.23879 0.61858 0.0
H423 H 0.20862 0.14609 0.5475 0.0
H424 H 0.09411 0.29119 0.54895 0.0
H425 H 0.99281 0.32032 0.5563 0.0
H426 H 0.78341 0.13676 0.50751 0.0
H427 H 0.8832 0.10586 0.50011 0.0
C428 C 0.12313 0.18301 0.42881 0.0
C429 C 0.10873 0.11808 0.41929 0.0
C430 C 0.12602 0.19373 0.45226 0.0
C431 C 0.11498 0.14006 0.46686 0.0
C432 C 0.10046 0.07506 0.45746 0.0
C433 C 0.09766 0.06426 0.43395 0.0
C434 C 0.11677 0.15169 0.49175 0.0
C435 C 0.06041 0.16859 0.49685 0.0
C436 C 0.17216 0.14502 0.51033 0.0
C437 C 0.23622 0.13082 0.50628 0.0
C438 C 0.23623 0.07095 0.5147 0.0
C439 C 0.29615 0.05719 0.51075 0.0
C440 C 0.35667 0.10314 0.49847 0.0
C441 C 0.35759 0.16311 0.49019 0.0
C442 C 0.29788 0.17717 0.49412 0.0
C443 C 1.01175 0.11359 0.59046 0.0
C444 C 0.08426 0.15584 0.60929 0.0
C445 C 1.01984 0.11897 0.56754 0.0
C446 C 0.10051 0.16715 0.56278 0.0
C447 C 0.17274 0.21127 0.58148 0.0
C448 C 0.16462 0.20599 0.60453 0.0
C449 C 0.10942 0.16779 0.5384 0.0
C450 C 0.16746 0.15284 0.53336 0.0
C451 C 0.05622 0.17704 0.51988 0.0
C452 C 0.99613 0.19595 0.52409 0.0
C453 C 1.02637 0.25676 0.53989 0.0
C454 C 0.96921 0.27362 0.54406 0.0
C455 C 0.88171 0.23035 0.53242 0.0
C456 C 0.85121 0.17023 0.51652 0.0
C457 C 0.90807 0.15307 0.51231 0.0
H458 H 0.83755 0.24345 0.53568 0.0
H459 H 0.40295 0.09236 0.4954 0.0
H460 H 0.11299 0.15161 0.75736 0.0
H461 H 0.10419 0.13393 0.79735 0.0
H462 H 0.98307 0.90314 0.78084 0.0
H463 H 0.98807 0.92053 0.7398 0.0
H464 H 0.91249 0.92478 0.81078 0.0
H465 H 0.20271 0.01959 0.80998 0.0
H466 H 0.34289 0.10145 0.80043 0.0
H467 H 0.37962 0.28318 0.83909 0.0
H468 H 0.23905 0.20262 0.8486 0.0
H469 H 1.02755 0.91043 0.93542 0.0
H470 H 1.01927 0.90364 0.89359 0.0
H471 H 0.07113 0.11944 0.89308 0.0
H472 H 0.0777 0.12617 0.9348 0.0
H473 H 0.17937 0.09186 0.87221 0.0
H474 H 0.87916 0.99062 0.87032 0.0
H475 H 0.74107 0.90352 0.88022 0.0
H476 H 0.72934 0.72549 0.84744 0.0
H477 H 0.86814 0.81157 0.83764 0.0
C478 C 0.08466 0.0969 0.76214 0.0
C479 C 0.05302 0.0376 0.74551 0.0
C480 C 0.07993 0.08691 0.78514 0.0
C481 C 0.04586 0.0176 0.79246 0.0
C482 C 1.01086 0.95739 0.77572 0.0
C483 C 1.01389 0.96727 0.75232 0.0
C484 C 0.04818 1.00983 0.81765 0.0
C485 C 0.9713 0.96035 0.82418 0.0
C486 C 0.12476 0.05637 0.83533 0.0
C487 C 0.21 0.10503 0.8299 0.0
C488 C 0.24044 0.07707 0.81635 0.0
C489 C 0.32001 0.12325 0.81095 0.0
C490 C 0.37006 0.19748 0.81912 0.0
C491 C 0.34077 0.22566 0.83277 0.0
C492 C 0.2612 0.17973 0.8382 0.0
C493 C 1.03674 0.95634 0.92639 0.0
C494 C 0.05332 0.01891 0.93846 0.0
C495 C 1.03169 0.95221 0.90248 0.0
C496 C 0.04443 1.01095 0.89025 0.0
C497 C 0.06097 0.07345 0.90221 0.0
C498 C 0.06441 0.0771 0.92603 0.0
C499 C 0.04352 1.00847 0.86514 0.0
C500 C 0.12095 0.05587 0.85873 0.0
C501 C 0.96807 0.95909 0.84771 0.0
C502 C 0.88452 0.90745 0.8535 0.0
C503 C 0.84758 0.93286 0.86543 0.0
C504 C 0.76908 0.88369 0.87098 0.0
C505 C 0.72659 0.809 0.86453 0.0
C506 C 0.7624 0.78335 0.85246 0.0
C507 C 0.84094 0.8323 0.84689 0.0
H508 H 0.66581 0.77102 0.86884 0.0
H509 H 0.43161 0.23316 0.81491 0.0
loop_
_geom_bond_atom_site_label_1
_geom_bond_atom_site_label_2
_geom_bond_distance
_geom_bond_site_symmetry_2
_ccdc_geom_bond_type
Tb0 O3 2.453 1_545 S
Tb0 O4 2.596 1_645 S
Tb0 O5 2.374 1_655 S
Tb0 O13 2.343 1_655 S
Tb0 O15 2.353 1_654 S
Tb0 O17 2.427 1_654 S
Tb0 O18 2.513 1_655 S
C1 O5 1.251 . S
C1 O7 1.263 . S
Tb2 O4 2.343 1_545 S
Tb2 O7 2.353 . S
Tb2 O10 2.427 1_545 S
Tb2 O11 2.504 1_544 S
Tb2 O12 2.453 . S
Tb2 O13 2.596 . S
Tb2 O14 2.374 1_554 S
O3 Tb0 2.453 1_565 S
O3 C19 1.245 . S
O4 Tb0 2.596 1_465 S
O4 Tb2 2.343 1_565 S
O4 C19 1.259 1_455 S
O5 Tb0 2.374 1_455 S
O5 C1 1.251 . S
C6 O10 1.275 . S
C6 O11 1.229 1_554 S
O7 C1 1.263 . S
O7 Tb2 2.353 . S
C8 O12 1.245 . S
C8 O13 1.259 . S
C9 O14 1.250 . S
C9 O15 1.263 . S
O10 Tb2 2.427 1_565 S
O10 C6 1.275 . S
O11 Tb2 2.504 1_566 S
O11 C6 1.229 1_556 S
O12 Tb2 2.453 . S
O12 C8 1.245 . S
O13 Tb0 2.343 1_455 S
O13 Tb2 2.596 . S
O13 C8 1.259 . S
O14 Tb2 2.374 1_556 S
O14 C9 1.250 . S
O15 Tb0 2.353 1_456 S
O15 C9 1.263 . S
C16 O17 1.275 1_554 S
C16 O18 1.246 . S
O17 Tb0 2.427 1_456 S
O17 C16 1.275 1_556 S
O18 Tb0 2.513 1_455 S
O18 C16 1.246 . S
C19 O3 1.245 . S
C19 O4 1.259 1_655 S
Tb20 O23 2.453 . S
Tb20 O24 2.596 1_545 S
Tb20 O25 2.374 . S
Tb20 O33 2.343 1_455 S
Tb20 O35 2.353 . S
Tb20 O37 2.427 . S
Tb20 O38 2.513 . S
C21 O25 1.251 . S
C21 O27 1.263 1_445 S
Tb22 O24 2.343 1_655 S
Tb22 O27 2.353 . S
Tb22 O30 2.427 . S
Tb22 O31 2.513 1_655 S
Tb22 O32 2.453 . S
Tb22 O33 2.596 1_565 S
Tb22 O34 2.374 . S
O23 Tb20 2.453 . S
O23 C39 1.245 . S
O24 Tb20 2.596 1_565 S
O24 Tb22 2.343 1_455 S
O24 C39 1.259 1_565 S
O25 Tb20 2.374 . S
O25 C21 1.251 . S
C26 O30 1.275 1_455 S
C26 O31 1.246 . S
O27 C21 1.263 1_665 S
O27 Tb22 2.353 . S
C28 O32 1.245 . S
C28 O33 1.259 1_565 S
C29 O34 1.250 1_445 S
C29 O35 1.263 . S
O30 Tb22 2.427 . S
O30 C26 1.275 1_655 S
O31 Tb22 2.513 1_455 S
O31 C26 1.246 . S
O32 Tb22 2.453 . S
O32 C28 1.245 . S
O33 Tb20 2.343 1_655 S
O33 Tb22 2.596 1_545 S
O33 C28 1.259 1_545 S
O34 Tb22 2.374 . S
O34 C29 1.250 1_665 S
O35 Tb20 2.353 . S
O35 C29 1.263 . S
C36 O37 1.275 . S
C36 O38 1.246 . S
O37 Tb20 2.427 . S
O37 C36 1.275 . S
O38 Tb20 2.513 . S
O38 C36 1.246 . S
C39 O23 1.245 . S
C39 O24 1.259 1_545 S
Tb40 O43 2.453 1_455 S
Tb40 O44 2.596 1_455 S
Tb40 O45 2.374 . S
Tb40 O53 2.343 . S
Tb40 O55 2.353 . S
Tb40 O57 2.427 . S
Tb40 O58 2.513 . S
C41 O45 1.251 . S
C41 O47 1.263 . S
Tb42 O44 2.343 1_465 S
Tb42 O47 2.353 1_565 S
Tb42 O50 2.427 1_455 S
Tb42 O51 2.513 1_455 S
Tb42 O52 2.453 1_565 S
Tb42 O53 2.596 1_565 S
Tb42 O54 2.374 1_565 S
O43 Tb40 2.453 1_655 S
O43 C59 1.245 . S
O44 Tb40 2.596 1_655 S
O44 Tb42 2.343 1_645 S
O44 C59 1.259 . S
O45 Tb40 2.374 . S
O45 C41 1.251 . S
C46 O50 1.275 . S
C46 O51 1.246 . S
O47 C41 1.263 . S
O47 Tb42 2.353 1_545 S
C48 O52 1.245 . S
C48 O53 1.259 . S
C49 O54 1.251 . S
C49 O55 1.263 . S
O50 Tb42 2.427 1_655 S
O50 C46 1.275 . S
O51 Tb42 2.513 1_655 S
O51 C46 1.246 . S
O52 Tb42 2.453 1_545 S
O52 C48 1.245 . S
O53 Tb40 2.343 . S
O53 Tb42 2.596 1_545 S
O53 C48 1.259 . S
O54 Tb42 2.374 1_545 S
O54 C49 1.251 . S
O55 Tb40 2.353 . S
O55 C49 1.263 . S
C56 O57 1.275 . S
C56 O58 1.246 . S
O57 Tb40 2.427 . S
O57 C56 1.275 . S
O58 Tb40 2.513 . S
O58 C56 1.246 . S
C59 O43 1.245 . S
C59 O44 1.259 . S
H60 C78 0.951 . S
H61 C80 0.951 . S
H62 C82 0.950 . S
H63 C83 0.950 . S
H64 C85 0.950 1_556 S
H65 C88 0.950 . S
H66 C89 0.950 . S
H67 C91 0.950 . S
H68 C92 0.950 . S
H69 C93 0.951 . S
H70 C95 0.951 . S
H71 C97 0.950 . S
H72 C98 0.950 . S
H73 C100 0.950 1_655 S
H74 C103 0.950 . S
H75 C104 0.950 . S
H76 C106 0.950 . S
H77 C107 0.950 . S
C78 H60 0.951 . S
C78 C79 1.366 . S
C78 C80 1.388 . S
C79 C78 1.366 . S
C79 C83 1.385 1_554 S
C80 H61 0.951 . S
C80 C78 1.388 . S
C80 C81 1.366 . S
C81 C80 1.366 . S
C81 C82 1.414 1_554 S
C81 C84 1.499 . S
C82 H62 0.950 . S
C82 C81 1.414 1_556 S
C82 C83 1.374 . S
C83 H63 0.950 . S
C83 C79 1.385 1_556 S
C83 C82 1.374 . S
C84 C81 1.499 . S
C84 C85 1.373 . S
C84 C86 1.389 . S
C85 H64 0.950 1_554 S
C85 C84 1.373 . S
C85 C101 1.377 . S
C86 C84 1.389 . S
C86 C87 1.524 1_455 S
C86 C100 1.377 . S
C87 C86 1.524 1_655 S
C87 C88 1.397 . S
C87 C92 1.363 . S
C88 H65 0.950 . S
C88 C87 1.397 . S
C88 C89 1.334 . S
C89 H66 0.950 . S
C89 C88 1.334 . S
C89 C90 1.287 . S
C90 C89 1.287 . S
C90 C91 1.524 . S
C90 H109 0.913 . S
C91 H67 0.950 . S
C91 C90 1.524 . S
C91 C92 1.415 . S
C92 H68 0.950 . S
C92 C87 1.363 . S
C92 C91 1.415 . S
C93 H69 0.951 . S
C93 C94 1.366 1_556 S
C93 C95 1.388 . S
C94 C93 1.366 1_554 S
C94 C98 1.385 . S
C95 H70 0.951 . S
C95 C93 1.388 . S
C95 C96 1.366 1_556 S
C96 C95 1.366 1_554 S
C96 C97 1.414 . S
C96 C99 1.499 . S
C97 H71 0.950 . S
C97 C96 1.414 . S
C97 C98 1.374 . S
C98 H72 0.950 . S
C98 C94 1.385 . S
C98 C97 1.374 . S
C99 C96 1.499 . S
C99 C100 1.373 . S
C99 C101 1.389 . S
C100 H73 0.950 1_455 S
C100 C86 1.377 . S
C100 C99 1.373 . S
C101 C85 1.377 . S
C101 C99 1.389 . S
C101 C102 1.524 1_554 S
C102 C101 1.524 1_556 S
C102 C103 1.397 1_556 S
C102 C107 1.363 . S
C103 H74 0.950 . S
C103 C102 1.397 1_554 S
C103 C104 1.334 . S
C104 H75 0.950 . S
C104 C103 1.334 . S
C104 C105 1.287 1_554 S
C105 C104 1.287 1_556 S
C105 C106 1.524 . S
C105 H108 0.999 . S
C106 H76 0.950 . S
C106 C105 1.524 . S
C106 C107 1.415 . S
C107 H77 0.950 . S
C107 C102 1.363 . S
C107 C106 1.415 . S
H108 C105 0.999 . S
H109 C90 0.913 . S
H110 C128 0.951 . S
H111 C130 0.951 . S
H112 C132 0.950 . S
H113 C133 0.950 . S
H114 C135 0.950 . S
H115 C138 0.950 . S
H116 C139 0.950 . S
H117 C141 0.950 . S
H118 C142 0.950 . S
H119 C143 0.951 . S
H120 C145 0.951 . S
H121 C147 0.950 . S
H122 C148 0.950 . S
H123 C150 0.950 . S
H124 C153 0.950 . S
H125 C154 0.950 . S
H126 C156 0.950 . S
H127 C157 0.950 . S
C128 H110 0.951 . S
C128 C129 1.368 . S
C128 C130 1.388 . S
C129 C128 1.368 . S
C129 C133 1.380 1_545 S
C130 H111 0.951 . S
C130 C128 1.388 . S
C130 C131 1.366 . S
C131 C130 1.366 . S
C131 C132 1.414 1_545 S
C131 C134 1.499 . S
C132 H112 0.950 . S
C132 C131 1.414 1_565 S
C132 C133 1.374 . S
C133 H113 0.950 . S
C133 C129 1.380 1_565 S
C133 C132 1.374 . S
C134 C131 1.499 . S
C134 C135 1.373 1_545 S
C134 C136 1.389 . S
C135 H114 0.950 . S
C135 C134 1.373 1_565 S
C135 C151 1.377 . S
C136 C134 1.389 . S
C136 C137 1.524 . S
C136 C150 1.377 . S
C137 C136 1.524 . S
C137 C138 1.397 . S
C137 C142 1.363 . S
C138 H115 0.950 . S
C138 C137 1.397 . S
C138 C139 1.334 . S
C139 H116 0.950 . S
C139 C138 1.334 . S
C139 C140 1.287 . S
C140 C139 1.287 . S
C140 C141 1.524 . S
C140 H159 0.913 . S
C141 H117 0.950 . S
C141 C140 1.524 . S
C141 C142 1.415 . S
C142 H118 0.950 . S
C142 C137 1.363 . S
C142 C141 1.415 . S
C143 H119 0.951 . S
C143 C144 1.366 1_565 S
C143 C145 1.388 . S
C144 C143 1.366 1_545 S
C144 C148 1.385 . S
C145 H120 0.951 . S
C145 C143 1.388 . S
C145 C146 1.366 1_565 S
C146 C145 1.366 1_545 S
C146 C147 1.414 . S
C146 C149 1.499 . S
C147 H121 0.950 . S
C147 C146 1.414 . S
C147 C148 1.374 . S
C148 H122 0.950 . S
C148 C144 1.385 . S
C148 C147 1.374 . S
C149 C146 1.499 . S
C149 C150 1.373 . S
C149 C151 1.389 1_545 S
C150 H123 0.950 . S
C150 C136 1.377 . S
C150 C149 1.373 . S
C151 C135 1.377 . S
C151 C149 1.389 1_565 S
C151 C152 1.524 . S
C152 C151 1.524 . S
C152 C153 1.397 . S
C152 C157 1.363 . S
C153 H124 0.950 . S
C153 C152 1.397 . S
C153 C154 1.334 . S
C154 H125 0.950 . S
C154 C153 1.334 . S
C154 C155 1.287 . S
C155 C154 1.287 . S
C155 C156 1.524 . S
C155 H158 0.999 . S
C156 H126 0.950 . S
C156 C155 1.524 . S
C156 C157 1.415 . S
C157 H127 0.950 . S
C157 C152 1.363 . S
C157 C156 1.415 . S
H158 C155 0.999 . S
H159 C140 0.913 . S
H160 C178 0.951 . S
H161 C180 0.951 . S
H162 C182 0.950 . S
H163 C183 0.950 . S
H164 C185 0.950 . S
H165 C188 0.950 . S
H166 C189 0.950 . S
H167 C191 0.950 . S
H168 C192 0.950 . S
H169 C193 0.951 . S
H170 C195 0.951 . S
H171 C197 0.950 . S
H172 C198 0.950 . S
H173 C200 0.950 . S
H174 C203 0.950 . S
H175 C204 0.950 . S
H176 C206 0.950 . S
H177 C207 0.950 . S
C178 H160 0.951 . S
C178 C179 1.366 . S
C178 C180 1.388 . S
C179 C178 1.366 . S
C179 C183 1.385 . S
C180 H161 0.951 . S
C180 C178 1.388 . S
C180 C181 1.366 . S
C181 C180 1.366 . S
C181 C182 1.414 . S
C181 C184 1.499 . S
C182 H162 0.950 . S
C182 C181 1.414 . S
C182 C183 1.374 . S
C183 H163 0.950 . S
C183 C179 1.385 . S
C183 C182 1.374 . S
C184 C181 1.499 . S
C184 C185 1.373 . S
C184 C186 1.389 . S
C185 H164 0.950 . S
C185 C184 1.373 . S
C185 C201 1.377 . S
C186 C184 1.389 . S
C186 C187 1.524 . S
C186 C200 1.377 . S
C187 C186 1.524 . S
C187 C188 1.397 . S
C187 C192 1.363 . S
C188 H165 0.950 . S
C188 C187 1.397 . S
C188 C189 1.334 . S
C189 H166 0.950 . S
C189 C188 1.334 . S
C189 C190 1.287 . S
C190 C189 1.287 . S
C190 C191 1.524 . S
C190 H209 0.913 . S
C191 H167 0.950 . S
C191 C190 1.524 . S
C191 C192 1.415 . S
C192 H168 0.950 . S
C192 C187 1.363 . S
C192 C191 1.415 . S
C193 H169 0.951 . S
C193 C194 1.366 . S
C193 C195 1.388 . S
C194 C193 1.366 . S
C194 C198 1.385 . S
C195 H170 0.951 . S
C195 C193 1.388 . S
C195 C196 1.366 . S
C196 C195 1.366 . S
C196 C197 1.414 . S
C196 C199 1.499 . S
C197 H171 0.950 . S
C197 C196 1.414 . S
C197 C198 1.374 . S
C198 H172 0.950 . S
C198 C194 1.385 . S
C198 C197 1.374 . S
C199 C196 1.499 . S
C199 C200 1.373 . S
C199 C201 1.389 . S
C200 H173 0.950 . S
C200 C186 1.377 . S
C200 C199 1.373 . S
C201 C185 1.377 . S
C201 C199 1.389 . S
C201 C202 1.524 . S
C202 C201 1.524 . S
C202 C203 1.397 . S
C202 C207 1.363 . S
C203 H174 0.950 . S
C203 C202 1.397 . S
C203 C204 1.334 . S
C204 H175 0.950 . S
C204 C203 1.334 . S
C204 C205 1.287 . S
C205 C204 1.287 . S
C205 C206 1.524 . S
C205 H208 0.999 . S
C206 H176 0.950 . S
C206 C205 1.524 . S
C206 C207 1.415 . S
C207 H177 0.950 . S
C207 C202 1.363 . S
C207 C206 1.415 . S
H208 C205 0.999 . S
H209 C190 0.913 . S
H210 C228 0.951 . S
H211 C230 0.951 . S
H212 C232 0.950 . S
H213 C233 0.950 . S
H214 C235 0.950 . S
H215 C238 0.950 . S
H216 C239 0.950 . S
H217 C241 0.950 . S
H218 C242 0.950 . S
H219 C243 0.951 . S
H220 C245 0.951 . S
H221 C247 0.950 . S
H222 C248 0.950 . S
H223 C250 0.950 . S
H224 C253 0.950 1_565 S
H225 C254 0.950 1_565 S
H226 C256 0.950 . S
H227 C257 0.950 . S
C228 H210 0.951 . S
C228 C229 1.366 . S
C228 C230 1.388 . S
C229 C228 1.366 . S
C229 C233 1.385 . S
C230 H211 0.951 . S
C230 C228 1.388 . S
C230 C231 1.366 . S
C231 C230 1.366 . S
C231 C232 1.414 . S
C231 C234 1.499 . S
C232 H212 0.950 . S
C232 C231 1.414 . S
C232 C233 1.374 . S
C233 H213 0.950 . S
C233 C229 1.385 . S
C233 C232 1.374 . S
C234 C231 1.499 . S
C234 C235 1.373 . S
C234 C236 1.389 . S
C235 H214 0.950 . S
C235 C234 1.373 . S
C235 C251 1.377 . S
C236 C234 1.389 . S
C236 C237 1.524 . S
C236 C250 1.377 . S
C237 C236 1.524 . S
C237 C238 1.397 . S
C237 C242 1.363 . S
C238 H215 0.950 . S
C238 C237 1.397 . S
C238 C239 1.334 . S
C239 H216 0.950 . S
C239 C238 1.334 . S
C239 C240 1.287 . S
C240 C239 1.287 . S
C240 C241 1.524 . S
C240 H259 0.913 . S
C241 H217 0.950 . S
C241 C240 1.524 . S
C241 C242 1.415 . S
C242 H218 0.950 . S
C242 C237 1.363 . S
C242 C241 1.415 . S
C243 H219 0.951 . S
C243 C244 1.366 . S
C243 C245 1.388 . S
C244 C243 1.366 . S
C244 C248 1.385 . S
C245 H220 0.951 . S
C245 C243 1.388 . S
C245 C246 1.366 . S
C246 C245 1.366 . S
C246 C247 1.414 . S
C246 C249 1.499 . S
C247 H221 0.950 . S
C247 C246 1.414 . S
C247 C248 1.374 . S
C248 H222 0.950 . S
C248 C244 1.385 . S
C248 C247 1.374 . S
C249 C246 1.499 . S
C249 C250 1.373 . S
C249 C251 1.389 . S
C250 H223 0.950 . S
C250 C236 1.377 . S
C250 C249 1.373 . S
C251 C235 1.377 . S
C251 C249 1.389 . S
C251 C252 1.524 . S
C252 C251 1.524 . S
C252 C253 1.397 . S
C252 C257 1.363 . S
C253 H224 0.950 1_545 S
C253 C252 1.397 . S
C253 C254 1.334 . S
C254 H225 0.950 1_545 S
C254 C253 1.334 . S
C254 C255 1.287 . S
C255 C254 1.287 . S
C255 C256 1.524 . S
C255 H258 0.999 . S
C256 H226 0.950 . S
C256 C255 1.524 . S
C256 C257 1.415 . S
C257 H227 0.950 . S
C257 C252 1.363 . S
C257 C256 1.415 . S
H258 C255 0.999 . S
H259 C240 0.913 . S
H260 C278 0.951 . S
H261 C280 0.951 . S
H262 C282 0.950 . S
H263 C283 0.950 . S
H264 C285 0.950 . S
H265 C288 0.950 . S
H266 C289 0.950 . S
H267 C291 0.950 . S
H268 C292 0.950 . S
H269 C293 0.951 . S
H270 C295 0.951 . S
H271 C297 0.950 . S
H272 C298 0.950 . S
H273 C300 0.950 . S
H274 C303 0.950 . S
H275 C304 0.950 . S
H276 C306 0.950 . S
H277 C307 0.950 . S
C278 H260 0.951 . S
C278 C279 1.366 . S
C278 C280 1.388 . S
C279 C278 1.366 . S
C279 C283 1.385 . S
C280 H261 0.951 . S
C280 C278 1.388 . S
C280 C281 1.366 . S
C281 C280 1.366 . S
C281 C282 1.414 . S
C281 C284 1.499 . S
C282 H262 0.950 . S
C282 C281 1.414 . S
C282 C283 1.374 . S
C283 H263 0.950 . S
C283 C279 1.385 . S
C283 C282 1.374 . S
C284 C281 1.499 . S
C284 C285 1.373 . S
C284 C286 1.389 1_554 S
C285 H264 0.950 . S
C285 C284 1.373 . S
C285 C301 1.377 . S
C286 C284 1.389 1_556 S
C286 C287 1.524 . S
C286 C300 1.377 . S
C287 C286 1.524 . S
C287 C288 1.397 . S
C287 C292 1.363 . S
C288 H265 0.950 . S
C288 C287 1.397 . S
C288 C289 1.334 . S
C289 H266 0.950 . S
C289 C288 1.334 . S
C289 C290 1.287 . S
C290 C289 1.287 . S
C290 C291 1.524 . S
C290 H309 0.913 . S
C291 H267 0.950 . S
C291 C290 1.524 . S
C291 C292 1.415 . S
C292 H268 0.950 . S
C292 C287 1.363 . S
C292 C291 1.415 . S
C293 H269 0.951 . S
C293 C294 1.366 . S
C293 C295 1.388 . S
C294 C293 1.366 . S
C294 C298 1.385 . S
C295 H270 0.951 . S
C295 C293 1.388 . S
C295 C296 1.366 . S
C296 C295 1.366 . S
C296 C297 1.414 . S
C296 C299 1.499 . S
C297 H271 0.950 . S
C297 C296 1.414 . S
C297 C298 1.374 . S
C298 H272 0.950 . S
C298 C294 1.385 . S
C298 C297 1.374 . S
C299 C296 1.499 . S
C299 C300 1.373 1_554 S
C299 C301 1.389 . S
C300 H273 0.950 . S
C300 C286 1.377 . S
C300 C299 1.373 1_556 S
C301 C285 1.377 . S
C301 C299 1.389 . S
C301 C302 1.524 . S
C302 C301 1.524 . S
C302 C303 1.397 . S
C302 C307 1.363 . S
C303 H274 0.950 . S
C303 C302 1.397 . S
C303 C304 1.334 . S
C304 H275 0.950 . S
C304 C303 1.334 . S
C304 C305 1.287 . S
C305 C304 1.287 . S
C305 C306 1.524 . S
C305 H308 0.999 . S
C306 H276 0.950 . S
C306 C305 1.524 . S
C306 C307 1.415 . S
C307 H277 0.950 . S
C307 C302 1.363 . S
C307 C306 1.415 . S
H308 C305 0.999 . S
H309 C290 0.913 . S
H310 C328 0.951 . S
H311 C330 0.951 . S
H312 C332 0.950 . S
H313 C333 0.950 . S
H314 C335 0.950 . S
H315 C338 0.950 . S
H316 C339 0.950 . S
H317 C341 0.950 . S
H318 C342 0.950 . S
H319 C343 0.951 . S
H320 C345 0.951 . S
H321 C347 0.950 . S
H322 C348 0.950 . S
H323 C350 0.950 . S
H324 C353 0.950 . S
H325 C354 0.950 . S
H326 C356 0.950 . S
H327 C357 0.950 . S
C328 H310 0.951 . S
C328 C329 1.371 . S
C328 C330 1.388 . S
C329 C328 1.371 . S
C329 C333 1.382 1_655 S
C330 H311 0.951 . S
C330 C328 1.388 . S
C330 C331 1.366 1_655 S
C331 C330 1.366 1_455 S
C331 C332 1.414 . S
C331 C334 1.499 . S
C332 H312 0.950 . S
C332 C331 1.414 . S
C332 C333 1.374 . S
C333 H313 0.950 . S
C333 C329 1.382 1_455 S
C333 C332 1.374 . S
C334 C331 1.499 . S
C334 C335 1.373 . S
C334 C336 1.389 1_455 S
C335 H314 0.950 . S
C335 C334 1.373 . S
C335 C351 1.377 . S
C336 C334 1.389 1_655 S
C336 C337 1.524 . S
C336 C350 1.377 . S
C337 C336 1.524 . S
C337 C338 1.397 1_655 S
C337 C342 1.363 . S
C338 H315 0.950 . S
C338 C337 1.397 1_455 S
C338 C339 1.334 . S
C339 H316 0.950 . S
C339 C338 1.334 . S
C339 C340 1.287 1_455 S
C340 C339 1.287 1_655 S
C340 C341 1.524 . S
C340 H359 0.913 . S
C341 H317 0.950 . S
C341 C340 1.524 . S
C341 C342 1.415 . S
C342 H318 0.950 . S
C342 C337 1.363 . S
C342 C341 1.415 . S
C343 H319 0.951 . S
C343 C344 1.366 . S
C343 C345 1.388 . S
C344 C343 1.366 . S
C344 C348 1.385 1_455 S
C345 H320 0.951 . S
C345 C343 1.388 . S
C345 C346 1.366 . S
C346 C345 1.366 . S
C346 C347 1.414 1_455 S
C346 C349 1.499 . S
C347 H321 0.950 . S
C347 C346 1.414 1_655 S
C347 C348 1.374 . S
C348 H322 0.950 . S
C348 C344 1.385 1_655 S
C348 C347 1.374 . S
C349 C346 1.499 . S
C349 C350 1.373 1_455 S
C349 C351 1.389 . S
C350 H323 0.950 . S
C350 C336 1.377 . S
C350 C349 1.373 1_655 S
C351 C335 1.377 . S
C351 C349 1.389 . S
C351 C352 1.524 . S
C352 C351 1.524 . S
C352 C353 1.397 1_455 S
C352 C357 1.363 . S
C353 H324 0.950 . S
C353 C352 1.397 1_655 S
C353 C354 1.334 . S
C354 H325 0.950 . S
C354 C353 1.334 . S
C354 C355 1.287 1_655 S
C355 C354 1.287 1_455 S
C355 C356 1.524 . S
C355 H358 0.999 . S
C356 H326 0.950 . S
C356 C355 1.524 . S
C356 C357 1.415 . S
C357 H327 0.950 . S
C357 C352 1.363 . S
C357 C356 1.415 . S
H358 C355 0.999 . S
H359 C340 0.913 . S
H360 C378 0.951 . S
H361 C380 0.951 . S
H362 C382 0.950 . S
H363 C383 0.950 . S
H364 C385 0.950 . S
H365 C388 0.950 . S
H366 C389 0.950 . S
H367 C391 0.949 1_655 S
H368 C392 0.950 . S
H369 C393 0.951 . S
H370 C395 0.951 . S
H371 C397 0.950 . S
H372 C398 0.950 1_655 S
H373 C400 0.950 . S
H374 C403 0.950 . S
H375 C404 0.950 . S
H376 C406 0.950 . S
H377 C407 0.950 . S
C378 H360 0.951 . S
C378 C379 1.366 1_665 S
C378 C380 1.388 . S
C379 C378 1.366 1_445 S
C379 C383 1.385 . S
C380 H361 0.951 . S
C380 C378 1.388 . S
C380 C381 1.366 1_665 S
C381 C380 1.366 1_445 S
C381 C382 1.414 . S
C381 C384 1.499 . S
C382 H362 0.950 . S
C382 C381 1.414 . S
C382 C383 1.374 . S
C383 H363 0.950 . S
C383 C379 1.385 . S
C383 C382 1.374 . S
C384 C381 1.499 . S
C384 C385 1.373 . S
C384 C386 1.389 1_545 S
C385 H364 0.950 . S
C385 C384 1.373 . S
C385 C401 1.377 . S
C386 C384 1.389 1_565 S
C386 C387 1.524 . S
C386 C400 1.377 . S
C387 C386 1.524 . S
C387 C388 1.397 . S
C387 C392 1.363 1_455 S
C388 H365 0.950 . S
C388 C387 1.397 . S
C388 C389 1.334 . S
C389 H366 0.950 . S
C389 C388 1.334 . S
C389 C390 1.287 . S
C390 C389 1.287 . S
C390 C391 1.531 . S
C390 H409 0.913 . S
C391 H367 0.949 1_455 S
C391 C390 1.531 . S
C391 C392 1.409 1_455 S
C392 H368 0.950 . S
C392 C387 1.363 1_655 S
C392 C391 1.409 1_655 S
C393 H369 0.951 . S
C393 C394 1.366 . S
C393 C395 1.388 . S
C394 C393 1.366 . S
C394 C398 1.385 1_545 S
C395 H370 0.951 . S
C395 C393 1.388 . S
C395 C396 1.366 . S
C396 C395 1.366 . S
C396 C397 1.414 1_445 S
C396 C399 1.499 . S
C397 H371 0.950 . S
C397 C396 1.414 1_665 S
C397 C398 1.374 1_655 S
C398 H372 0.950 1_455 S
C398 C394 1.385 1_565 S
C398 C397 1.374 1_455 S
C399 C396 1.499 . S
C399 C400 1.373 1_545 S
C399 C401 1.389 . S
C400 H373 0.950 . S
C400 C386 1.377 . S
C400 C399 1.373 1_565 S
C401 C385 1.377 . S
C401 C399 1.389 . S
C401 C402 1.524 . S
C402 C401 1.524 . S
C402 C403 1.397 1_455 S
C402 C407 1.363 . S
C403 H374 0.950 . S
C403 C402 1.397 1_655 S
C403 C404 1.334 . S
C404 H375 0.950 . S
C404 C403 1.334 . S
C404 C405 1.287 1_655 S
C405 C404 1.287 1_455 S
C405 C406 1.524 . S
C405 H408 0.999 1_455 S
C406 H376 0.950 . S
C406 C405 1.524 . S
C406 C407 1.415 . S
C407 H377 0.950 . S
C407 C402 1.363 . S
C407 C406 1.415 . S
H408 C405 0.999 1_655 S
H409 C390 0.913 . S
H410 C428 0.951 . S
H411 C430 0.951 . S
H412 C432 0.950 1_565 S
H413 C433 0.950 . S
H414 C435 0.950 . S
H415 C438 0.950 1_655 S
H416 C439 0.950 . S
H417 C441 0.950 . S
H418 C442 0.950 1_545 S
H419 C443 0.951 . S
H420 C445 0.951 . S
H421 C447 0.950 . S
H422 C448 0.950 . S
H423 C450 0.950 . S
H424 C453 0.950 . S
H425 C454 0.950 1_455 S
H426 C456 0.950 . S
H427 C457 0.950 . S
C428 H410 0.951 . S
C428 C429 1.366 . S
C428 C430 1.388 . S
C429 C428 1.366 . S
C429 C433 1.385 1_445 S
C430 H411 0.951 . S
C430 C428 1.388 . S
C430 C431 1.366 . S
C431 C430 1.366 . S
C431 C432 1.414 1_455 S
C431 C434 1.499 . S
C432 H412 0.950 1_545 S
C432 C431 1.414 1_655 S
C432 C433 1.374 1_545 S
C433 H413 0.950 . S
C433 C429 1.385 1_665 S
C433 C432 1.374 1_565 S
C434 C431 1.499 . S
C434 C435 1.373 1_455 S
C434 C436 1.389 . S
C435 H414 0.950 . S
C435 C434 1.373 1_655 S
C435 C451 1.377 . S
C436 C434 1.389 . S
C436 C437 1.524 1_545 S
C436 C450 1.377 . S
C437 C436 1.524 1_565 S
C437 C438 1.397 . S
C437 C442 1.363 . S
C438 H415 0.950 1_455 S
C438 C437 1.397 . S
C438 C439 1.334 . S
C439 H416 0.950 . S
C439 C438 1.334 . S
C439 C440 1.287 . S
C440 C439 1.287 . S
C440 C441 1.524 . S
C440 H459 0.913 . S
C441 H417 0.950 . S
C441 C440 1.524 . S
C441 C442 1.415 . S
C442 H418 0.950 1_565 S
C442 C437 1.363 . S
C442 C441 1.415 . S
C443 H419 0.951 . S
C443 C444 1.366 1_655 S
C443 C445 1.388 . S
C444 C443 1.366 1_455 S
C444 C448 1.385 . S
C445 H420 0.951 . S
C445 C443 1.388 . S
C445 C446 1.366 1_655 S
C446 C445 1.366 1_455 S
C446 C447 1.414 . S
C446 C449 1.499 . S
C447 H421 0.950 . S
C447 C446 1.414 . S
C447 C448 1.374 . S
C448 H422 0.950 . S
C448 C444 1.385 . S
C448 C447 1.374 . S
C449 C446 1.499 . S
C449 C450 1.373 . S
C449 C451 1.389 1_455 S
C450 H423 0.950 . S
C450 C436 1.377 . S
C450 C449 1.373 . S
C451 C435 1.377 . S
C451 C449 1.389 1_655 S
C451 C452 1.524 . S
C452 C451 1.524 . S
C452 C453 1.397 1_655 S
C452 C457 1.363 . S
C453 H424 0.950 . S
C453 C452 1.397 1_455 S
C453 C454 1.334 1_455 S
C454 H425 0.950 1_655 S
C454 C453 1.334 1_655 S
C454 C455 1.287 . S
C455 C454 1.287 . S
C455 C456 1.524 . S
C455 H458 0.999 . S
C456 H426 0.950 . S
C456 C455 1.524 . S
C456 C457 1.415 . S
C457 H427 0.950 . S
C457 C452 1.363 . S
C457 C456 1.415 . S
H458 C455 0.999 . S
H459 C440 0.913 . S
H460 C478 0.951 . S
H461 C480 0.951 . S
H462 C482 0.950 . S
H463 C483 0.950 . S
H464 C485 0.950 1_665 S
H465 C488 0.950 . S
H466 C489 0.950 . S
H467 C491 0.950 . S
H468 C492 0.950 . S
H469 C493 0.951 1_565 S
H470 C495 0.951 1_565 S
H471 C497 0.950 . S
H472 C498 0.950 . S
H473 C500 0.950 . S
H474 C503 0.950 1_545 S
H475 C504 0.950 . S
H476 C506 0.950 . S
H477 C507 0.950 . S
C478 H460 0.951 . S
C478 C479 1.366 . S
C478 C480 1.388 . S
C479 C478 1.366 . S
C479 C483 1.385 . S
C480 H461 0.951 . S
C480 C478 1.388 . S
C480 C481 1.366 . S
C481 C480 1.366 . S
C481 C482 1.414 . S
C481 C484 1.499 . S
C482 H462 0.950 . S
C482 C481 1.414 . S
C482 C483 1.374 . S
C483 H463 0.950 . S
C483 C479 1.385 . S
C483 C482 1.374 . S
C484 C481 1.499 . S
C484 C485 1.373 . S
C484 C486 1.389 . S
C485 H464 0.950 1_445 S
C485 C484 1.373 . S
C485 C501 1.377 . S
C486 C484 1.389 . S
C486 C487 1.524 . S
C486 C500 1.377 . S
C487 C486 1.524 . S
C487 C488 1.397 . S
C487 C492 1.363 . S
C488 H465 0.950 . S
C488 C487 1.397 . S
C488 C489 1.334 . S
C489 H466 0.950 . S
C489 C488 1.334 . S
C489 C490 1.287 . S
C490 C489 1.287 . S
C490 C491 1.524 . S
C490 H509 0.913 . S
C491 H467 0.950 . S
C491 C490 1.524 . S
C491 C492 1.415 . S
C492 H468 0.950 . S
C492 C487 1.363 . S
C492 C491 1.415 . S
C493 H469 0.951 1_545 S
C493 C494 1.366 . S
C493 C495 1.388 . S
C494 C493 1.366 . S
C494 C498 1.385 . S
C495 H470 0.951 1_545 S
C495 C493 1.388 . S
C495 C496 1.366 . S
C496 C495 1.366 . S
C496 C497 1.414 . S
C496 C499 1.499 . S
C497 H471 0.950 . S
C497 C496 1.414 . S
C497 C498 1.374 . S
C498 H472 0.950 . S
C498 C494 1.385 . S
C498 C497 1.374 . S
C499 C496 1.499 . S
C499 C500 1.373 . S
C499 C501 1.389 . S
C500 H473 0.950 . S
C500 C486 1.377 . S
C500 C499 1.373 . S
C501 C485 1.377 . S
C501 C499 1.389 . S
C501 C502 1.524 1_445 S
C502 C501 1.524 1_665 S
C502 C503 1.397 . S
C502 C507 1.363 . S
C503 H474 0.950 1_565 S
C503 C502 1.397 . S
C503 C504 1.334 . S
C504 H475 0.950 . S
C504 C503 1.334 . S
C504 C505 1.287 . S
C505 C504 1.287 . S
C505 C506 1.524 . S
C505 H508 0.999 . S
C506 H476 0.950 . S
C506 C505 1.524 . S
C506 C507 1.415 . S
C507 H477 0.950 . S
C507 C502 1.363 . S
C507 C506 1.415 . S
H508 C505 0.999 . S
H509 C490 0.913 . S
C79 C16 1.263 . S
C94 C6 1.263 . S
C129 C39 1.889 . S
C144 C28 1.886 1_545 S
C179 C46 0.819 . S
C194 C56 0.819 . S
C229 C59 1.879 . S
C244 C48 1.879 . S
C279 C19 2.401 . S
C294 C8 2.401 . S
C329 C36 1.253 1_655 S
C344 C26 1.258 . S
C379 C21 1.503 . S
C394 C1 1.505 . S
C429 C29 1.509 . S
C444 C49 1.510 . S
C479 C41 1.508 . S
C494 C9 1.511 . S
