# Generated by pormake.
# Topology sml, (6)-cn, num edge types: 1
# Building blocks:
#     Node 0, Type 0, BuildingBlock: BETDAH_clean_sbu_0, # of connection points: 6
#     Node 1, Type 0, BuildingBlock: BETDAH_clean_sbu_0, # of connection points: 6
#     Node 2, Type 0, BuildingBlock: BETDAH_clean_sbu_0, # of connection points: 6
#     Node 3, Type 0, BuildingBlock: BETDAH_clean_sbu_0, # of connection points: 6
#     Node 4, Type 0, BuildingBlock: BETDAH_clean_sbu_0, # of connection points: 6
#     Node 5, Type 0, BuildingBlock: BETDAH_clean_sbu_0, # of connection points: 6
#     Edge 6, Type (0, 0), BuildingBlock: UVAHIK_clean_linker_0, # of connection points: 2
#     Edge 7, Type (0, 0), BuildingBlock: UVAHIK_clean_linker_0, # of connection points: 2
#     Edge 8, Type (0, 0), BuildingBlock: UVAHIK_clean_linker_0, # of connection points: 2
#     Edge 9, Type (0, 0), BuildingBlock: UVAHIK_clean_linker_0, # of connection points: 2
#     Edge 10, Type (0, 0), BuildingBlock: UVAHIK_clean_linker_0, # of connection points: 2
#     Edge 11, Type (0, 0), BuildingBlock: UVAHIK_clean_linker_0, # of connection points: 2
#     Edge 12, Type (0, 0), BuildingBlock: UVAHIK_clean_linker_0, # of connection points: 2
#     Edge 13, Type (0, 0), BuildingBlock: UVAHIK_clean_linker_0, # of connection points: 2
#     Edge 14, Type (0, 0), BuildingBlock: UVAHIK_clean_linker_0, # of connection points: 2
#     Edge 15, Type (0, 0), BuildingBlock: UVAHIK_clean_linker_0, # of connection points: 2
#     Edge 16, Type (0, 0), BuildingBlock: UVAHIK_clean_linker_0, # of connection points: 2
#     Edge 17, Type (0, 0), BuildingBlock: UVAHIK_clean_linker_0, # of connection points: 2
#     Edge 18, Type (0, 0), BuildingBlock: UVAHIK_clean_linker_0, # of connection points: 2
#     Edge 19, Type (0, 0), BuildingBlock: UVAHIK_clean_linker_0, # of connection points: 2
#     Edge 20, Type (0, 0), BuildingBlock: UVAHIK_clean_linker_0, # of connection points: 2
#     Edge 21, Type (0, 0), BuildingBlock: UVAHIK_clean_linker_0, # of connection points: 2
#     Edge 22, Type (0, 0), BuildingBlock: UVAHIK_clean_linker_0, # of connection points: 2
#     Edge 23, Type (0, 0), BuildingBlock: UVAHIK_clean_linker_0, # of connection points: 2
# Relax obj value: 0.145
# Max RMSD: 0.195
# Mean RMSD: 0.195
data_MOF--net-sml--node1-BETDAH_clean_sbu_0--edge1-UVAHIK_clean_linker_0
_symmetry_space_group_name_H-M    P1
_symmetry_Int_Tables_number       1
_symmetry_cell_setting            triclinic
loop_
_symmetry_equiv_pos_as_xyz
'x, y, z'
_cell_length_a     43.219093
_cell_length_b     43.194705
_cell_length_c     29.565976
_cell_angle_alpha  90.035692
_cell_angle_beta   89.982141
_cell_angle_gamma 119.99575
loop_
_atom_site_label
_atom_site_type_symbol
_atom_site_fract_x
_atom_site_fract_y
_atom_site_fract_z
_atom_type_partial_charge
Ho0 Ho 0.20183 0.42347 0.12135 0.0
Ho1 Ho 0.22354 0.39836 0.20867 0.0
C2 C 0.22607 0.36494 0.11395 0.0
C3 C 0.19785 0.45503 0.04926 0.0
C4 C 0.19353 0.44616 1.00063 0.0
C5 C 0.20636 0.42478 0.98213 0.0
C6 C 0.2037 0.41776 0.9357 0.0
C7 C 0.18792 0.43179 0.90668 0.0
C8 C 0.17454 0.45273 0.92556 0.0
C9 C 0.17737 0.45986 0.97208 0.0
C10 C 0.15224 0.35949 0.15486 0.0
C11 C 0.19435 0.45454 0.21729 0.0
C12 C 0.23018 0.37581 0.28715 0.0
C13 C 0.21915 0.37522 0.33436 0.0
C14 C 0.19632 0.38817 0.34657 0.0
C15 C 0.18882 0.39022 0.39226 0.0
C16 C 0.20378 0.379 0.42638 0.0
C17 C 0.22594 0.36525 0.41366 0.0
C18 C 0.2336 0.36349 0.36813 0.0
C19 C 0.27719 0.4486 0.15823 0.0
O20 O 0.22742 0.39319 0.09458 0.0
O21 O 0.21937 0.35801 0.15761 0.0
O22 O 0.17022 0.43552 0.07521 0.0
O23 O 0.22805 0.46095 0.06719 0.0
O24 O 0.15631 0.36712 0.11206 0.0
O25 O 0.17294 0.3868 0.17743 0.0
O26 O 0.20405 0.43354 0.23804 0.0
O27 O 0.19268 0.4562 0.17271 0.0
O28 O 0.25278 0.4074 0.27098 0.0
O29 O 0.20518 0.35573 0.25809 0.0
O30 O 0.27912 0.42308 0.17866 0.0
O31 O 0.24781 0.44658 0.16678 0.0
H32 H 0.21901 0.41397 1.00351 0.0
H33 H 0.21478 0.40198 0.92247 0.0
H34 H 0.16175 0.46354 0.90443 0.0
H35 H 0.16718 0.47631 0.98572 0.0
H36 H 0.18474 0.3971 0.32085 0.0
H37 H 0.17136 0.4006 0.40089 0.0
H38 H 0.23827 0.35682 0.43901 0.0
H39 H 0.25147 0.35362 0.35932 0.0
Ho40 Ho 0.79139 0.22638 0.4447 0.0
Ho41 Ho 0.77157 0.17495 0.36241 0.0
C42 C 0.77016 0.14296 0.45909 0.0
C43 C 0.79316 0.25663 0.52099 0.0
C44 C 0.79026 0.24781 0.56951 0.0
C45 C 0.76869 0.21265 0.58509 0.0
C46 C 0.76646 0.20509 0.63143 0.0
C47 C 0.78571 0.23257 0.663 0.0
C48 C 0.8074 0.26768 0.64702 0.0
C49 C 0.80962 0.27517 0.60077 0.0
C50 C 0.84615 0.22839 0.39948 0.0
C51 C 0.79267 0.25853 0.34805 0.0
C52 C 0.76987 0.14455 0.28625 0.0
C53 C 0.77189 0.15274 0.23759 0.0
C54 C 0.79324 0.18767 0.22115 0.0
C55 C 0.79465 0.19459 0.1747 0.0
C56 C 0.77479 0.1667 0.14386 0.0
C57 C 0.75334 0.13183 0.16069 0.0
C58 C 0.75193 0.12497 0.20706 0.0
C59 C 0.71686 0.17404 0.40697 0.0
O60 O 0.77248 0.17232 0.47653 0.0
O61 O 0.77369 0.13931 0.4153 0.0
O62 O 0.82176 0.26071 0.50043 0.0
O63 O 0.76417 0.23886 0.49667 0.0
O64 O 0.84729 0.2564 0.41733 0.0
O65 O 0.817 0.20073 0.40856 0.0
O66 O 0.79029 0.22915 0.33036 0.0
O67 O 0.78906 0.26193 0.39191 0.0
O68 O 0.7412 0.13979 0.3073 0.0
O69 O 0.79903 0.1632 0.30998 0.0
O70 O 0.71507 0.14566 0.38933 0.0
O71 O 0.74642 0.2011 0.39793 0.0
H72 H 0.75344 0.1911 0.56152 0.0
H73 H 0.74926 0.17782 0.64256 0.0
H74 H 0.82305 0.28939 0.67023 0.0
H75 H 0.82656 0.30243 0.58937 0.0
H76 H 0.80894 0.20953 0.24414 0.0
H77 H 0.81171 0.22169 0.1629 0.0
H78 H 0.73727 0.10983 0.13806 0.0
H79 H 0.73516 0.09787 0.21912 0.0
Ho80 Ho 0.55854 0.76314 0.77387 0.0
Ho81 Ho 0.5934 0.8112 0.85813 0.0
C82 C 0.62083 0.84658 0.76167 0.0
C83 C 0.52607 0.7367 0.69811 0.0
C84 C 0.53296 0.74555 0.64976 0.0
C85 C 0.55112 0.78117 0.6348 0.0
C86 C 0.55717 0.78889 0.58863 0.0
C87 C 0.54512 0.76111 0.55661 0.0
C88 C 0.52713 0.7255 0.57191 0.0
C89 C 0.52112 0.71783 0.61804 0.0
C90 C 0.61492 0.76112 0.80855 0.0
C91 C 0.53144 0.72708 0.87006 0.0
C92 C 0.62499 0.83911 0.934 0.0
C93 C 0.61739 0.8329 0.98275 0.0
C94 C 0.59967 0.79823 1.00091 0.0
C95 C 0.59323 0.79309 0.04742 0.0
C96 C 0.60449 0.82254 0.07663 0.0
C97 C 0.62204 0.85719 0.05817 0.0
C98 C 0.6284 0.86228 0.01168 0.0
C99 C 0.53643 0.81213 0.82277 0.0
O100 O 0.5931 0.81796 0.74408 0.0
O101 O 0.62956 0.84863 0.8049 0.0
O102 O 0.54651 0.72645 0.71792 0.0
O103 O 0.52065 0.75856 0.72307 0.0
O104 O 0.58801 0.73393 0.78949 0.0
O105 O 0.61177 0.78849 0.80544 0.0
O106 O 0.55883 0.75591 0.88819 0.0
O107 O 0.52296 0.7255 0.82682 0.0
O108 O 0.60628 0.85016 0.91153 0.0
O109 O 0.629 0.81512 0.91184 0.0
O110 O 0.56327 0.83994 0.84084 0.0
O111 O 0.54037 0.7854 0.82702 0.0
H112 H 0.56043 0.80303 0.6587 0.0
H113 H 0.57079 0.81659 0.57799 0.0
H114 H 0.518 0.70349 0.54825 0.0
H115 H 0.5072 0.69019 0.62898 0.0
H116 H 0.59112 0.77516 0.97925 0.0
H117 H 0.58002 0.76608 0.06059 0.0
H118 H 0.63061 0.88041 0.07961 0.0
H119 H 0.64203 0.88924 0.99828 0.0
Ho120 Ho 0.76194 0.56409 0.12931 0.0
Ho121 Ho 0.81067 0.60115 0.04636 0.0
C122 C 0.84427 0.62861 0.1434 0.0
C123 C 0.73595 0.5309 0.20481 0.0
C124 C 0.74473 0.53769 0.25335 0.0
C125 C 0.77998 0.55227 0.26909 0.0
C126 C 0.78751 0.55835 0.31535 0.0
C127 C 0.75993 0.54992 0.34679 0.0
C128 C 0.72472 0.5355 0.33073 0.0
C129 C 0.71724 0.52944 0.28453 0.0
C130 C 0.75833 0.61987 0.09537 0.0
C131 C 0.72728 0.53822 0.03244 0.0
C132 C 0.83825 0.63279 0.97035 0.0
C133 C 0.83179 0.62479 0.92154 0.0
C134 C 0.79749 0.61054 0.9027 0.0
C135 C 0.79222 0.60377 0.85622 0.0
C136 C 0.82115 0.61122 0.82758 0.0
C137 C 0.85541 0.62531 0.84668 0.0
C138 C 0.86063 0.63202 0.89315 0.0
C139 C 0.81327 0.54489 0.08122 0.0
O140 O 0.81631 0.59962 0.15997 0.0
O141 O 0.84622 0.63796 0.10042 0.0
O142 O 0.72505 0.5509 0.18525 0.0
O143 O 0.75796 0.52595 0.17949 0.0
O144 O 0.73138 0.59224 0.11366 0.0
O145 O 0.78619 0.61766 0.09888 0.0
O146 O 0.75592 0.56646 0.01555 0.0
O147 O 0.72526 0.5287 0.07533 0.0
O148 O 0.84978 0.61457 0.993 0.0
O149 O 0.81433 0.63675 0.99271 0.0
O150 O 0.84087 0.5727 0.06441 0.0
O151 O 0.78587 0.54761 0.07629 0.0
H152 H 0.8017 0.5588 0.24573 0.0
H153 H 0.81485 0.56913 0.32653 0.0
H154 H 0.70292 0.52924 0.35382 0.0
H155 H 0.6899 0.51832 0.27309 0.0
H156 H 0.77478 0.60494 0.92376 0.0
H157 H 0.76556 0.59333 0.84261 0.0
H158 H 0.8782 0.6309 0.82577 0.0
H159 H 0.88731 0.64297 0.90694 0.0
Ho160 Ho 0.21198 0.78765 0.46123 0.0
Ho161 Ho 0.16249 0.76007 0.54684 0.0
C162 C 0.13025 0.76687 0.45318 0.0
C163 C 0.2478 0.79402 0.38841 0.0
C164 C 0.2425 0.79855 0.34011 0.0
C165 C 0.20831 0.78864 0.32361 0.0
C166 C 0.2026 0.78973 0.27724 0.0
C167 C 0.23099 0.80092 0.24637 0.0
C168 C 0.26545 0.81196 0.26319 0.0
C169 C 0.2711 0.81065 0.30967 0.0
C170 C 0.19912 0.8358 0.5029 0.0
C171 C 0.24775 0.78758 0.55657 0.0
C172 C 0.13163 0.74786 0.62505 0.0
C173 C 0.14107 0.75767 0.67281 0.0
C174 C 0.17671 0.77885 0.68661 0.0
C175 C 0.18518 0.7852 0.7327 0.0
C176 C 0.15807 0.77063 0.76578 0.0
C177 C 0.12229 0.75046 0.75136 0.0
C178 C 0.11395 0.74394 0.7054 0.0
C179 C 0.15893 0.7101 0.48895 0.0
O180 O 0.15721 0.76629 0.43293 0.0
O181 O 0.12845 0.76947 0.49763 0.0
O182 O 0.25518 0.82103 0.41526 0.0
O183 O 0.22418 0.76326 0.40575 0.0
O184 O 0.20467 0.83588 0.45972 0.0
O185 O 0.20355 0.8122 0.52167 0.0
O186 O 0.21672 0.77733 0.5769 0.0
O187 O 0.25219 0.79223 0.51229 0.0
O188 O 0.14322 0.72781 0.60713 0.0
O189 O 0.13471 0.77313 0.59771 0.0
O190 O 0.13143 0.70697 0.51055 0.0
O191 O 0.18641 0.73833 0.50074 0.0
H192 H 0.18585 0.77925 0.3465 0.0
H193 H 0.17584 0.78155 0.26552 0.0
H194 H 0.28783 0.82048 0.24029 0.0
H195 H 0.29765 0.81828 0.32172 0.0
H196 H 0.19796 0.78989 0.66181 0.0
H197 H 0.21302 0.80065 0.74239 0.0
H198 H 0.10061 0.73951 0.77561 0.0
H199 H 0.08625 0.72768 0.69535 0.0
Ho200 Ho 0.43768 0.20896 0.7902 0.0
Ho201 Ho 0.39905 0.22048 0.7086 0.0
C202 C 0.36869 0.2199 0.80624 0.0
C203 C 0.4697 0.21518 0.86642 0.0
C204 C 0.46136 0.2151 0.91488 0.0
C205 C 0.44197 0.23112 0.93059 0.0
C206 C 0.43447 0.23069 0.97676 0.0
C207 C 0.44609 0.21413 0.00809 0.0
C208 C 0.46534 0.19799 0.99207 0.0
C209 C 0.47289 0.19852 0.94597 0.0
C210 C 0.38674 0.14943 0.75051 0.0
C211 C 0.46681 0.2072 0.69293 0.0
C212 C 0.36737 0.2164 0.63262 0.0
C213 C 0.37436 0.21571 0.58384 0.0
C214 C 0.39094 0.1972 0.56698 0.0
C215 C 0.39739 0.19717 0.52054 0.0
C216 C 0.38734 0.21562 0.49002 0.0
C217 C 0.37069 0.23405 0.50721 0.0
C218 C 0.36432 0.23409 0.55359 0.0
C219 C 0.45113 0.27968 0.74847 0.0
O220 O 0.3978 0.22115 0.82266 0.0
O221 O 0.3607 0.21564 0.76265 0.0
O222 O 0.45135 0.18476 0.84508 0.0
O223 O 0.4739 0.24251 0.84247 0.0
O224 O 0.41534 0.15201 0.7685 0.0
O225 O 0.3853 0.17745 0.75741 0.0
O226 O 0.43747 0.20558 0.6764 0.0
O227 O 0.47564 0.21364 0.73615 0.0
O228 O 0.38781 0.24653 0.65362 0.0
O229 O 0.3615 0.18845 0.65649 0.0
O230 O 0.42228 0.27764 0.73221 0.0
O231 O 0.45145 0.25128 0.74065 0.0
H232 H 0.43261 0.24396 0.90725 0.0
H233 H 0.41923 0.24299 0.98785 0.0
H234 H 0.47508 0.18541 0.01527 0.0
H235 H 0.4879 0.18604 0.93459 0.0
H236 H 0.3989 0.18276 0.58967 0.0
H237 H 0.41063 0.18304 0.50863 0.0
H238 H 0.36208 0.24808 0.48475 0.0
H239 H 0.3514 0.24845 0.56587 0.0
C240 C 0.34549 0.21528 0.88443 0.0
C241 C 0.34465 0.22332 0.83858 0.0
C242 C 0.32571 0.22184 0.91629 0.0
C243 C 0.25489 0.24625 0.92982 0.0
H244 H 0.30796 0.29233 0.03889 0.0
C245 C 0.23028 0.34212 0.03812 0.0
C246 C 0.23242 0.34065 0.08542 0.0
C247 C 0.23789 0.3206 0.01059 0.0
C248 C 0.29248 0.27888 0.00907 0.0
H249 H 0.32135 0.24307 0.78969 0.0
H250 H 0.28756 0.25571 0.84559 0.0
H251 H 0.3324 0.26769 0.98514 0.0
H252 H 0.24312 0.31466 0.14108 0.0
H253 H 0.25702 0.27724 0.09264 0.0
H254 H 0.21581 0.25926 0.95315 0.0
C255 C 0.30293 0.24363 0.85688 0.0
C256 C 0.30644 0.26468 0.97819 0.0
C257 C 0.32242 0.23659 0.82484 0.0
C258 C 0.24137 0.31645 0.10472 0.0
C259 C 0.24938 0.29512 0.07707 0.0
C260 C 0.24106 0.26076 0.9606 0.0
C261 C 0.30502 0.23708 0.90313 0.0
C262 C 0.28814 0.24875 0.9378 0.0
C263 C 0.24808 0.29732 0.02974 0.0
C264 C 0.26008 0.27778 1.00009 0.0
H265 H 0.36191 0.20439 0.89589 0.0
H266 H 0.32726 0.21566 0.95142 0.0
H267 H 0.23983 0.23362 0.89944 0.0
H268 H 0.22307 0.36019 0.0222 0.0
H269 H 0.23707 0.32315 0.97422 0.0
C270 C 0.09268 0.30442 0.14618 0.0
C271 C 0.12051 0.32857 0.17429 0.0
C272 C 0.05987 0.27934 0.16484 0.0
C273 C 0.99096 0.26278 0.2122 0.0
H274 H 0.97652 0.21687 0.32916 0.0
C275 C 0.89601 0.26171 0.34574 0.0
C276 C 0.87294 0.22964 0.3679 0.0
C277 C 0.92162 0.26335 0.31571 0.0
C278 C 0.97993 0.22888 0.29604 0.0
H279 H 0.13721 0.34358 0.2438 0.0
H280 H 0.08017 0.29983 0.27637 0.0
H281 H 0.03233 0.23584 0.28784 0.0
H282 H 0.85809 0.17408 0.37639 0.0
H283 H 0.90424 0.17737 0.32463 0.0
H284 H 0.9397 0.25811 0.22184 0.0
C285 C 0.08351 0.30005 0.24004 0.0
C286 C 0.01183 0.23987 0.27256 0.0
C287 C 0.11614 0.32528 0.22139 0.0
C288 C 0.87573 0.1991 0.35956 0.0
C289 C 0.90194 0.20094 0.33009 0.0
C290 C 0.95933 0.25219 0.23586 0.0
C291 C 0.0546 0.27786 0.21188 0.0
C292 C 0.01818 0.25819 0.23126 0.0
C293 C 0.925 0.23311 0.30791 0.0
C294 C 0.95421 0.23647 0.27873 0.0
H295 H 0.09553 0.30626 0.10972 0.0
H296 H 0.03807 0.26236 0.14243 0.0
H297 H -0.00482 0.2771 0.18065 0.0
H298 H 0.89419 0.28553 0.35148 0.0
H299 H 0.93945 0.28859 0.29943 0.0
C300 C 0.76375 0.11771 0.53691 0.0
C301 C 0.76245 0.11296 0.48975 0.0
C302 C 0.75377 0.08875 0.56593 0.0
C303 C 0.69515 0.99244 0.56861 0.0
H304 H 0.74502 -0.00334 0.67953 0.0
C305 C 0.64263 0.87051 0.68446 0.0
C306 C 0.643 0.87658 0.73116 0.0
C307 C 0.66148 0.89894 0.65482 0.0
C308 C 0.73064 -0.00481 0.64887 0.0
H309 H 0.75095 0.07436 0.4361 0.0
H310 H 0.73336 0.02378 0.48689 0.0
H311 H 0.77079 0.04759 0.62769 0.0
H312 H 0.66421 0.91693 0.78374 0.0
H313 H 0.69638 0.96697 0.73174 0.0
H314 H 0.65441 0.94086 0.59005 0.0
C315 C 0.74192 0.04991 0.50128 0.0
C316 C 0.74547 0.02427 0.61918 0.0
C317 C 0.75214 0.07891 0.47225 0.0
C318 C 0.66353 0.91153 0.74786 0.0
C319 C 0.68209 0.94013 0.71806 0.0
C320 C 0.6802 0.96359 0.59837 0.0
C321 C 0.74208 0.05446 0.54835 0.0
C322 C 0.72776 0.02316 0.57885 0.0
C323 C 0.68075 0.93419 0.6711 0.0
C324 C 0.69768 0.96461 0.63894 0.0
H325 H 0.77188 0.14367 0.55151 0.0
H326 H 0.75392 0.09297 0.60207 0.0
H327 H 0.68058 0.99114 0.53818 0.0
H328 H 0.62761 0.84375 0.67068 0.0
H329 H 0.6606 0.89326 0.619 0.0
C330 C 0.6711 0.78947 0.85451 0.0
C331 C 0.64385 0.75935 0.83243 0.0
C332 C 0.69573 0.7862 0.88185 0.0
C333 C 0.73571 0.73102 0.90659 0.0
H334 H 0.72044 0.74153 0.03368 0.0
C335 C 0.72284 0.64706 0.0685 0.0
C336 C 0.75593 0.64855 0.07173 0.0
C337 C 0.71938 0.67204 0.04248 0.0
C338 C 0.72568 0.73933 0.99832 0.0
H339 H 0.62278 0.70311 0.81803 0.0
H340 H 0.66651 0.69773 0.86436 0.0
H341 H 0.69729 0.7654 0.97605 0.0
H342 H 0.81197 0.67883 0.05355 0.0
H343 H 0.80531 0.72142 1.0053 0.0
H344 H 0.76244 0.70326 0.92884 0.0
C345 C 0.6684 0.72363 0.86135 0.0
C346 C 0.71261 0.75305 0.96547 0.0
C347 C 0.64329 0.72667 0.8351 0.0
C348 C 0.78594 0.67653 0.05042 0.0
C349 C 0.78228 0.70104 0.02333 0.0
C350 C 0.7494 0.71794 0.93946 0.0
C351 C 0.69416 0.75309 0.88591 0.0
C352 C 0.71615 0.74753 0.91942 0.0
C353 C 0.74882 0.6986 0.01873 0.0
C354 C 0.74305 0.7206 0.98546 0.0
H355 H 0.6727 0.81523 0.8518 0.0
H356 H 0.71549 0.80925 0.90049 0.0
H357 H 0.73858 0.72642 0.8712 0.0
H358 H 0.69935 0.62595 0.08495 0.0
H359 H 0.69323 0.66948 0.03903 0.0
C360 C 0.10917 0.77729 0.37989 0.0
C361 C 0.10129 0.764 0.42423 0.0
C362 C 0.08184 0.77101 0.34989 0.0
C363 C 0.98428 0.73683 0.34012 0.0
H364 H -0.00251 0.705 0.22266 0.0
C365 C 0.86875 0.64568 0.2216 0.0
C366 C 0.87343 0.65156 0.17471 0.0
C367 C 0.89667 0.66597 0.25138 0.0
C368 C -0.00639 0.71447 0.25493 0.0
H369 H 0.05901 0.73552 0.47301 0.0
H370 H 0.01076 0.72336 0.41998 0.0
H371 H 0.04608 0.72892 0.27691 0.0
H372 H 0.91067 0.68422 0.12237 0.0
H373 H 0.95966 0.71968 0.17461 0.0
H374 H 0.93107 0.7208 0.31831 0.0
C375 C 0.03814 0.73921 0.40859 0.0
C376 C 0.02149 0.72823 0.28611 0.0
C377 C 0.06568 0.746 0.43893 0.0
C378 C 0.9063 0.67893 0.15829 0.0
C379 C 0.93435 0.69915 0.18815 0.0
C380 C 0.95625 0.72284 0.3089 0.0
C381 C 0.04595 0.75078 0.36336 0.0
C382 C 0.01704 0.73915 0.32929 0.0
C383 C 0.92992 0.69251 0.23492 0.0
C384 C 0.96052 0.71104 0.26625 0.0
H385 H 0.13654 0.79198 0.36805 0.0
H386 H 0.08882 0.78115 0.31569 0.0
H387 H 0.98018 0.74545 0.37287 0.0
H388 H 0.84364 0.62509 0.23544 0.0
H389 H 0.89257 0.65995 0.28718 0.0
C390 C 0.36629 0.08984 0.71672 0.0
C391 C 0.35956 0.11765 0.72648 0.0
C392 C 0.34073 0.05923 0.6946 0.0
C393 C 0.27521 0.98937 0.67469 0.0
H394 H 0.22776 0.9941 0.56581 0.0
C395 C 0.19385 0.8629 0.57437 0.0
C396 C 0.20123 0.86622 0.52792 0.0
C397 C 0.20215 0.89294 0.60041 0.0
C398 C 0.24073 0.99234 0.59624 0.0
H399 H 0.32109 0.13572 0.72079 0.0
H400 H 0.27594 0.08171 0.68183 0.0
H401 H 0.26619 0.04883 0.6082 0.0
H402 H 0.22077 0.90299 0.4714 0.0
H403 H 0.23752 0.956 0.51723 0.0
H404 H 0.25231 0.93382 0.66179 0.0
C405 C 0.30116 0.0838 0.69111 0.0
C406 C 0.26243 0.02361 0.62071 0.0
C407 C 0.32689 0.11458 0.71339 0.0
C408 C 0.21484 0.89977 0.50726 0.0
C409 C 0.22418 0.93011 0.53357 0.0
C410 C 0.25389 0.95835 0.65024 0.0
C411 C 0.30776 0.05569 0.68197 0.0
C412 C 0.28075 0.02249 0.65937 0.0
C413 C 0.21937 0.92718 0.58082 0.0
C414 C 0.23705 0.95948 0.61005 0.0
H415 H 0.39141 0.09171 0.72611 0.0
H416 H 0.34692 0.03837 0.68711 0.0
H417 H 0.28845 0.98759 0.70487 0.0
H418 H 0.18344 0.8374 0.59113 0.0
H419 H 0.19702 0.88949 0.63644 0.0
C420 C 0.17948 0.3919 0.84 0.0
C421 C 0.18616 0.42515 0.85693 0.0
C422 C 0.17928 0.38613 0.79341 0.0
C423 C 0.17034 0.41996 0.68208 0.0
H424 H 0.2193 0.37137 0.63782 0.0
C425 C 0.19918 0.41399 0.49158 0.0
C426 C 0.19749 0.38263 0.47514 0.0
C427 C 0.19587 0.41842 0.53793 0.0
C428 C 0.20502 0.38451 0.64954 0.0
H429 H 0.19784 0.47839 0.83761 0.0
H430 H 0.19705 0.46813 0.7564 0.0
H431 H 0.21697 0.38034 0.71878 0.0
H432 H 0.18944 0.33069 0.49438 0.0
H433 H 0.18319 0.33814 0.57496 0.0
H434 H 0.15829 0.42404 0.61282 0.0
C435 C 0.19166 0.44642 0.77928 0.0
C436 C 0.20375 0.38971 0.69605 0.0
C437 C 0.19204 0.45227 0.82591 0.0
C438 C 0.19145 0.35542 0.506 0.0
C439 C 0.18798 0.35976 0.55226 0.0
C440 C 0.17146 0.41461 0.63552 0.0
C441 C 0.18557 0.41338 0.76246 0.0
C442 C 0.18644 0.40753 0.71292 0.0
C443 C 0.19063 0.39151 0.56897 0.0
C444 C 0.18886 0.39684 0.6186 0.0
H445 H 0.17417 0.37016 0.86275 0.0
H446 H 0.17392 0.36018 0.78159 0.0
H447 H 0.15642 0.43341 0.69399 0.0
H448 H 0.20425 0.43566 0.46879 0.0
H449 H 0.1985 0.44341 0.54952 0.0
C450 C 0.7766 0.20442 0.07785 0.0
C451 C 0.77638 0.17378 0.09435 0.0
C452 C 0.77745 0.21063 0.03129 0.0
C453 C 0.75841 0.16439 0.92056 0.0
H454 H 0.81724 0.26024 0.87342 0.0
C455 C 0.78289 0.19409 0.72869 0.0
C456 C 0.78328 0.22487 0.71241 0.0
C457 C 0.78158 0.18749 0.77521 0.0
C458 C 0.80034 0.23337 0.88605 0.0
H459 H 0.77777 0.1261 0.07463 0.0
H460 H 0.77926 0.13693 0.99359 0.0
H461 H 0.81615 0.24974 0.95454 0.0
H462 H 0.78144 0.27225 0.73244 0.0
H463 H 0.77919 0.26078 0.81335 0.0
H464 H 0.74264 0.14804 0.85202 0.0
C465 C 0.77812 0.15586 0.01661 0.0
C466 C 0.79972 0.22735 0.9326 0.0
C467 C 0.77728 0.14965 0.06312 0.0
C468 C 0.78188 0.24863 0.74378 0.0
C469 C 0.78059 0.24206 0.79023 0.0
C470 C 0.75904 0.17042 0.87398 0.0
C471 C 0.77811 0.18636 1.00007 0.0
C472 C 0.77874 0.19279 0.95047 0.0
C473 C 0.78064 0.21152 0.80657 0.0
C474 C 0.77999 0.20499 0.85614 0.0
H475 H 0.77542 0.2233 0.10089 0.0
H476 H 0.77692 0.23415 0.01974 0.0
H477 H 0.74152 0.13752 0.9332 0.0
H478 H 0.78439 0.17544 0.70553 0.0
H479 H 0.78209 0.16393 0.78663 0.0
C480 C 0.58386 0.79723 0.49155 0.0
C481 C 0.55116 0.76912 0.50744 0.0
C482 C 0.58968 0.80422 0.44521 0.0
C483 C 0.54218 0.78791 0.33583 0.0
H484 H 0.63354 0.80965 0.28486 0.0
C485 C 0.5657 0.78969 0.14321 0.0
C486 C 0.5983 0.81721 0.1262 0.0
C487 C 0.55998 0.7847 0.18983 0.0
C488 C 0.60802 0.80403 0.29863 0.0
H489 H 0.49864 0.72685 0.48702 0.0
H490 H 0.50904 0.73852 0.40629 0.0
H491 H 0.62356 0.79976 0.36602 0.0
H492 H 0.65059 0.86081 0.14494 0.0
H493 H 0.64041 0.85244 0.22624 0.0
H494 H 0.52658 0.79195 0.26835 0.0
C495 C 0.53011 0.7554 0.42963 0.0
C496 C 0.60231 0.79839 0.34517 0.0
C497 C 0.5243 0.74841 0.47592 0.0
C498 C 0.62504 0.8396 0.15691 0.0
C499 C 0.61935 0.83455 0.20351 0.0
C500 C 0.54788 0.7935 0.28928 0.0
C501 C 0.56291 0.78329 0.41368 0.0
C502 C 0.56927 0.79014 0.36432 0.0
C503 C 0.58677 0.80704 0.22053 0.0
C504 C 0.58083 0.80152 0.27011 0.0
H505 H 0.60522 0.81352 0.51488 0.0
H506 H 0.61511 0.82616 0.4341 0.0
H507 H 0.51661 0.78218 0.34956 0.0
H508 H 0.54444 0.77218 0.12047 0.0
H509 H 0.53471 0.76302 0.20183 0.0
C510 C 0.84056 0.62934 0.74703 0.0
C511 C 0.81574 0.60469 0.77796 0.0
C512 C 0.83543 0.62337 0.70043 0.0
C513 C 0.78715 0.55202 0.61566 0.0
H514 H 0.80628 0.63102 0.5362 0.0
C515 C 0.74433 0.53102 0.42794 0.0
C516 C 0.76769 0.55599 0.39613 0.0
C517 C 0.75115 0.5369 0.47429 0.0
C518 C 0.80125 0.60875 0.5578 0.0
H519 H 0.76623 0.55417 0.78393 0.0
H520 H 0.75699 0.54405 0.70264 0.0
H521 H 0.8162 0.64135 0.61731 0.0
H522 H 0.81667 0.6068 0.38841 0.0
H523 H 0.82896 0.61671 0.46926 0.0
H524 H 0.77216 0.5194 0.55619 0.0
C525 C 0.78061 0.56787 0.71447 0.0
C526 C 0.80692 0.61467 0.60436 0.0
C527 C 0.7857 0.57388 0.76108 0.0
C528 C 0.79826 0.58686 0.4119 0.0
C529 C 0.80509 0.59274 0.45831 0.0
C530 C 0.78153 0.5461 0.5691 0.0
C531 C 0.80539 0.59258 0.68355 0.0
C532 C 0.79981 0.58635 0.6339 0.0
C533 C 0.78155 0.56789 0.49011 0.0
C534 C 0.78837 0.57436 0.53958 0.0
H535 H 0.8638 0.65354 0.7588 0.0
H536 H 0.85522 0.64278 0.67761 0.0
H537 H 0.78196 0.52972 0.63733 0.0
H538 H 0.72078 0.50673 0.41703 0.0
H539 H 0.73224 0.51736 0.49776 0.0
C540 C 0.14707 0.74749 0.84573 0.0
C541 C 0.16684 0.7755 0.81508 0.0
C542 C 0.15469 0.75189 0.892 0.0
C543 C 0.22543 0.80495 0.97462 0.0
H544 H 0.14656 0.7697 0.05942 0.0
C545 C 0.24769 0.82776 0.16828 0.0
C546 C 0.22429 0.79971 0.1968 0.0
C547 C 0.24119 0.8263 0.12167 0.0
C548 C 0.16893 0.77931 0.03632 0.0
H549 H 0.21044 0.83021 0.80964 0.0
H550 H 0.22409 0.83764 0.89049 0.0
H551 H 0.13459 0.76424 0.97848 0.0
H552 H 0.17623 0.74769 0.19841 0.0
H553 H 0.16518 0.74483 0.11744 0.0
H554 H 0.25977 0.81942 0.03242 0.0
C555 C 0.20268 0.81221 0.87842 0.0
C556 C 0.16204 0.77625 0.98984 0.0
C557 C 0.19488 0.8079 0.83205 0.0
C558 C 0.19443 0.77007 0.17755 0.0
C559 C 0.18806 0.76849 0.13102 0.0
C560 C 0.23234 0.80778 0.02119 0.0
C561 C 0.18249 0.78432 0.90897 0.0
C562 C 0.19016 0.78881 0.95841 0.0
C563 C 0.21125 0.79662 0.10239 0.0
C564 C 0.20415 0.79476 0.05271 0.0
H565 H 0.12587 0.72184 0.83396 0.0
H566 H 0.13907 0.72964 0.91448 0.0
H567 H 0.24766 0.81457 0.95128 0.0
H568 H 0.27076 0.85111 0.18211 0.0
H569 H 0.25938 0.8487 0.10088 0.0
C570 C 0.3888 0.18435 0.41868 0.0
C571 C 0.39391 0.21554 0.44047 0.0
C572 C 0.39427 0.18414 0.37202 0.0
C573 C 0.39876 0.23233 0.26645 0.0
H574 H 0.44604 0.18318 0.21844 0.0
C575 C 0.44202 0.24455 0.07873 0.0
C576 C 0.43852 0.21387 0.05733 0.0
C577 C 0.43606 0.24461 0.12528 0.0
C578 C 0.43236 0.19666 0.23116 0.0
H579 H 0.40971 0.27124 0.43008 0.0
H580 H 0.41909 0.2708 0.34885 0.0
H581 H 0.43698 0.18357 0.29975 0.0
H582 H 0.42486 0.15881 0.06803 0.0
H583 H 0.41419 0.15879 0.14897 0.0
H584 H 0.39401 0.24532 0.19787 0.0
C585 C 0.41028 0.24632 0.36774 0.0
C586 C 0.42721 0.1969 0.27787 0.0
C587 C 0.40488 0.24656 0.41438 0.0
C588 C 0.4284 0.1831 0.08354 0.0
C589 C 0.42234 0.18312 0.13002 0.0
C590 C 0.40384 0.23202 0.21971 0.0
C591 C 0.40494 0.21508 0.34592 0.0
C592 C 0.41037 0.21477 0.29613 0.0
C593 C 0.42633 0.21394 0.15161 0.0
C594 C 0.42072 0.21418 0.20142 0.0
H595 H 0.37985 0.15983 0.43751 0.0
H596 H 0.38944 0.15947 0.35626 0.0
H597 H 0.38521 0.2459 0.27926 0.0
H598 H 0.45022 0.26885 0.05969 0.0
H599 H 0.43987 0.26899 0.14078 0.0
C600 C 0.18494 0.47482 0.29276 0.0
C601 C 0.1854 0.47736 0.24534 0.0
C602 C 0.17807 0.49734 0.31944 0.0
C603 C 0.14225 0.55938 0.31682 0.0
H604 H 0.2041 0.60114 0.42085 0.0
C605 C 0.12723 0.65281 0.44555 0.0
C606 C 0.15923 0.68263 0.45984 0.0
C607 C 0.128 0.62631 0.41911 0.0
C608 C 0.18672 0.58985 0.3918 0.0
H609 H 0.17812 0.50512 0.18877 0.0
H610 H 0.16682 0.54493 0.23546 0.0
H611 H 0.20935 0.55727 0.37504 0.0
H612 H 0.21701 0.70836 0.458 0.0
H613 H 0.21841 0.66272 0.41129 0.0
H614 H 0.12045 0.593 0.33306 0.0
C615 C 0.17126 0.5251 0.25195 0.0
C616 C 0.1894 0.56434 0.36587 0.0
C617 C 0.178 0.50243 0.2252 0.0
C618 C 0.19193 0.68575 0.4471 0.0
C619 C 0.19272 0.65941 0.42077 0.0
C620 C 0.13957 0.58498 0.34285 0.0
C621 C 0.1717 0.52311 0.29938 0.0
C622 C 0.1674 0.54899 0.32789 0.0
C623 C 0.1608 0.62923 0.40684 0.0
C624 C 0.16209 0.60077 0.38031 0.0
H625 H 0.19029 0.45571 0.30949 0.0
H626 H 0.178 0.49472 0.35587 0.0
H627 H 0.12468 0.54776 0.288 0.0
H628 H 0.10168 0.64984 0.45506 0.0
H629 H 0.10297 0.60322 0.40912 0.0
C630 C 0.69105 0.20789 0.4435 0.0
C631 C 0.68859 0.17497 0.43355 0.0
C632 C 0.66484 0.20923 0.4695 0.0
C633 C 0.59605 0.15909 0.55445 0.0
H634 H 0.56281 0.22462 0.52228 0.0
C635 C 0.51966 0.19945 0.67888 0.0
C636 C 0.49059 0.2019 0.66188 0.0
C637 C 0.54189 0.19403 0.64966 0.0
C638 C 0.57156 0.20594 0.53149 0.0
H639 H 0.65684 0.11761 0.44226 0.0
H640 H 0.61066 0.11987 0.48789 0.0
H641 H 0.60444 0.21843 0.47258 0.0
H642 H 0.46219 0.20066 0.60075 0.0
H643 H 0.50091 0.19104 0.54986 0.0
H644 H 0.56313 0.14661 0.61338 0.0
C645 C 0.63305 0.14464 0.47584 0.0
C646 C 0.59565 0.20266 0.50327 0.0
C647 C 0.65929 0.14331 0.44959 0.0
C648 C 0.48428 0.19884 0.61501 0.0
C649 C 0.50659 0.19352 0.58578 0.0
C650 C 0.57204 0.16248 0.58278 0.0
C651 C 0.63562 0.17765 0.48608 0.0
C652 C 0.60841 0.17947 0.51468 0.0
C653 C 0.53562 0.19106 0.60281 0.0
C654 C 0.55981 0.18619 0.57179 0.0
H655 H 0.71334 0.23269 0.43131 0.0
H656 H 0.66779 0.23508 0.4773 0.0
H657 H 0.60563 0.14119 0.56426 0.0
H658 H 0.52529 0.20165 0.7148 0.0
H659 H 0.56436 0.19273 0.66371 0.0
C660 C 0.30195 0.50551 0.11525 0.0
C661 C 0.30513 0.47626 0.12953 0.0
C662 C 0.32775 0.53151 0.08716 0.0
C663 C 0.42096 0.57076 0.04994 0.0
H664 H 0.38837 0.60476 0.94945 0.0
C665 C 0.51381 0.69789 0.94643 0.0
C666 C 0.50809 0.69646 0.89948 0.0
C667 C 0.4905 0.66954 0.97419 0.0
C668 C 0.39793 0.59534 0.9771 0.0
H669 H 0.33798 0.45146 0.12677 0.0
H670 H 0.38343 0.49718 0.0774 0.0
H671 H 0.34482 0.5578 0.99825 0.0
H672 H 0.47397 0.66349 0.84476 0.0
H673 H 0.4336 0.61419 0.89307 0.0
H674 H 0.47419 0.60835 0.02847 0.0
C675 C 0.36095 0.49996 0.08802 0.0
C676 C 0.37298 0.56871 1.00534 0.0
C677 C 0.33496 0.47379 0.11607 0.0
C678 C 0.47907 0.6657 0.88081 0.0
C679 C 0.4558 0.63744 0.90851 0.0
C680 C 0.44601 0.59758 0.02172 0.0
C681 C 0.3574 0.52891 0.07298 0.0
C682 C 0.38419 0.55629 0.04223 0.0
C683 C 0.46096 0.63923 0.95555 0.0
C684 C 0.43472 0.61021 0.98508 0.0
H685 H 0.27949 0.50835 0.12581 0.0
H686 H 0.32462 0.55385 0.07683 0.0
H687 H 0.43036 0.56185 0.0783 0.0
H688 H 0.53585 0.72114 0.96194 0.0
H689 H 0.495 0.67183 0.01038 0.0
C690 C 0.80323 0.32037 0.3356 0.0
C691 C 0.79852 0.28816 0.31762 0.0
C692 C 0.80797 0.34812 0.30706 0.0
C693 C 0.78925 0.36544 0.19179 0.0
H694 H 0.85607 0.46418 0.2227 0.0
C695 C 0.78166 0.48385 0.11476 0.0
C696 C 0.81382 0.51482 0.10377 0.0
C697 C 0.78199 0.45575 0.1376 0.0
C698 C 0.83758 0.43674 0.21331 0.0
H699 H 0.79554 0.26008 0.25539 0.0
H700 H 0.80394 0.30868 0.20559 0.0
H701 H 0.85377 0.4162 0.26868 0.0
H702 H 0.87153 0.54061 0.10693 0.0
H703 H 0.87218 0.49131 0.14682 0.0
H704 H 0.77299 0.38601 0.13649 0.0
C705 C 0.80368 0.31226 0.24182 0.0
C706 C 0.836 0.40928 0.23991 0.0
C707 C 0.79905 0.28449 0.2704 0.0
C708 C 0.84636 0.51701 0.11519 0.0
C709 C 0.84671 0.48892 0.1382 0.0
C710 C 0.79075 0.39291 0.16528 0.0
C711 C 0.80804 0.34432 0.25987 0.0
C712 C 0.8115 0.37336 0.22978 0.0
C713 C 0.8145 0.45807 0.14987 0.0
C714 C 0.81462 0.42886 0.17608 0.0
H715 H 0.803 0.32415 0.37179 0.0
H716 H 0.81077 0.3723 0.32199 0.0
H717 H 0.76991 0.33804 0.18331 0.0
H718 H 0.7562 0.48146 0.1061 0.0
H719 H 0.75673 0.43254 0.14658 0.0
C720 C 0.31093 0.8008 0.56396 0.0
C721 C 0.27883 0.79411 0.58455 0.0
C722 C 0.33984 0.80557 0.59021 0.0
C723 C 0.37863 0.82844 0.70433 0.0
H724 H 0.424 0.77389 0.66988 0.0
C725 C 0.4773 0.77936 0.78469 0.0
C726 C 0.50652 0.8119 0.79876 0.0
C727 C 0.44992 0.77894 0.75929 0.0
C728 C 0.41153 0.78921 0.67994 0.0
H729 H 0.25236 0.78801 0.64905 0.0
H730 H 0.30294 0.79653 0.69477 0.0
H731 H 0.37585 0.7707 0.62346 0.0
H732 H 0.52949 0.86943 0.79922 0.0
H733 H 0.48112 0.86869 0.75506 0.0
H734 H 0.41428 0.84668 0.76114 0.0
C735 C 0.30566 0.79817 0.65829 0.0
C736 C 0.38423 0.78766 0.65317 0.0
C737 C 0.27661 0.79309 0.63204 0.0
C738 C 0.50726 0.844 0.78857 0.0
C739 C 0.47963 0.84357 0.76345 0.0
C740 C 0.40625 0.83027 0.73093 0.0
C741 C 0.33739 0.80404 0.6376 0.0
C742 C 0.36732 0.80703 0.66526 0.0
C743 C 0.45101 0.81104 0.74797 0.0
C744 C 0.42267 0.81036 0.7192 0.0
H745 H 0.31366 0.80185 0.5275 0.0
H746 H 0.36413 0.81041 0.5734 0.0
H747 H 0.36619 0.84382 0.71422 0.0
H748 H 0.47581 0.7542 0.7928 0.0
H749 H 0.42786 0.75346 0.74845 0.0
C750 C 0.6997 0.52362 0.95526 0.0
C751 C 0.69738 0.51567 1.00167 0.0
C752 C 0.6721 0.50157 0.92588 0.0
C753 C 0.57699 0.43105 0.92215 0.0
H754 H 0.60423 0.40434 0.8101 0.0
C755 C 0.47346 0.3374 0.78994 0.0
C756 C 0.47913 0.31011 0.77374 0.0
C757 C 0.4998 0.36543 0.81554 0.0
C758 C 0.59622 0.41157 0.84126 0.0
H759 H 0.66379 0.47867 0.05373 0.0
H760 H 0.61584 0.44 1.00234 0.0
H761 H 0.65033 0.44781 0.86007 0.0
H762 H 0.51675 0.29084 0.7704 0.0
H763 H 0.5626 0.33954 0.81515 0.0
H764 H 0.52287 0.39385 0.90389 0.0
C765 C 0.63887 0.46354 0.98878 0.0
C766 C 0.62259 0.43673 0.86966 0.0
C767 C 0.6665 0.48557 0.01818 0.0
C768 C 0.5117 0.31156 0.78267 0.0
C769 C 0.53804 0.33956 0.80799 0.0
C770 C 0.55057 0.40594 0.89363 0.0
C771 C 0.64154 0.4711 0.94226 0.0
C772 C 0.6133 0.44636 0.91071 0.0
C773 C 0.53232 0.36669 0.82491 0.0
C774 C 0.55998 0.39554 0.85325 0.0
H775 H 0.72301 0.54664 0.94138 0.0
H776 H 0.67475 0.50832 0.89027 0.0
H777 H 0.56902 0.43825 0.95335 0.0
H778 H 0.4485 0.33681 0.7834 0.0
H779 H 0.49481 0.38614 0.8279 0.0
loop_
_geom_bond_atom_site_label_1
_geom_bond_atom_site_label_2
_geom_bond_distance
_geom_bond_site_symmetry_2
_ccdc_geom_bond_type
Ho0 C3 2.811 . S
Ho0 O20 2.322 . S
Ho0 O22 2.378 . S
Ho0 O23 2.524 . S
Ho0 O24 2.381 . S
Ho0 O25 2.669 . S
Ho0 O27 2.346 . S
Ho0 O31 2.305 . S
Ho1 C12 2.811 . S
Ho1 O21 2.346 . S
Ho1 O25 2.305 . S
Ho1 O26 2.322 . S
Ho1 O28 2.378 . S
Ho1 O29 2.524 . S
Ho1 O30 2.381 . S
Ho1 O31 2.669 . S
C2 O20 1.259 . S
C2 O21 1.268 . S
C3 Ho0 2.811 . S
C3 C4 1.488 . S
C3 O22 1.215 . S
C3 O23 1.289 . S
C4 C3 1.488 . S
C4 C5 1.348 1_554 S
C4 C9 1.413 1_554 S
C5 C4 1.348 1_556 S
C5 C6 1.442 . S
C5 H32 0.930 . S
C6 C5 1.442 . S
C6 C7 1.381 . S
C6 H33 0.931 . S
C7 C6 1.381 . S
C7 C8 1.321 . S
C8 C7 1.321 . S
C8 C9 1.403 . S
C8 H34 0.934 . S
C9 C4 1.413 1_556 S
C9 C8 1.403 . S
C9 H35 0.930 1_556 S
C10 O24 1.275 . S
C10 O25 1.256 . S
C11 O26 1.259 . S
C11 O27 1.268 . S
C12 Ho1 2.811 . S
C12 C13 1.488 . S
C12 O28 1.215 . S
C12 O29 1.289 . S
C13 C12 1.488 . S
C13 C14 1.348 . S
C13 C18 1.413 . S
C14 C13 1.348 . S
C14 C15 1.442 . S
C14 H36 0.930 . S
C15 C14 1.442 . S
C15 C16 1.381 . S
C15 H37 0.931 . S
C16 C15 1.381 . S
C16 C17 1.321 . S
C17 C16 1.321 . S
C17 C18 1.403 . S
C17 H38 0.934 . S
C18 C13 1.413 . S
C18 C17 1.403 . S
C18 H39 0.930 . S
C19 O30 1.275 . S
C19 O31 1.256 . S
O20 Ho0 2.322 . S
O20 C2 1.259 . S
O21 Ho1 2.346 . S
O21 C2 1.268 . S
O22 Ho0 2.378 . S
O22 C3 1.215 . S
O23 Ho0 2.524 . S
O23 C3 1.289 . S
O24 Ho0 2.381 . S
O24 C10 1.275 . S
O25 Ho0 2.669 . S
O25 Ho1 2.305 . S
O25 C10 1.256 . S
O26 Ho1 2.322 . S
O26 C11 1.259 . S
O27 Ho0 2.346 . S
O27 C11 1.268 . S
O28 Ho1 2.378 . S
O28 C12 1.215 . S
O29 Ho1 2.524 . S
O29 C12 1.289 . S
O30 Ho1 2.381 . S
O30 C19 1.275 . S
O31 Ho0 2.305 . S
O31 Ho1 2.669 . S
O31 C19 1.256 . S
H32 C5 0.930 . S
H33 C6 0.931 . S
H34 C8 0.934 . S
H35 C9 0.930 1_554 S
H36 C14 0.930 . S
H37 C15 0.931 . S
H38 C17 0.934 . S
H39 C18 0.930 . S
Ho40 C43 2.811 . S
Ho40 O60 2.322 . S
Ho40 O62 2.378 . S
Ho40 O63 2.524 . S
Ho40 O64 2.381 . S
Ho40 O65 2.669 . S
Ho40 O67 2.346 . S
Ho40 O71 2.305 . S
Ho41 C52 2.811 . S
Ho41 O61 2.346 . S
Ho41 O65 2.305 . S
Ho41 O66 2.322 . S
Ho41 O68 2.378 . S
Ho41 O69 2.524 . S
Ho41 O70 2.381 . S
Ho41 O71 2.669 . S
C42 O60 1.259 . S
C42 O61 1.268 . S
C43 Ho40 2.811 . S
C43 C44 1.488 . S
C43 O62 1.215 . S
C43 O63 1.289 . S
C44 C43 1.488 . S
C44 C45 1.348 . S
C44 C49 1.413 . S
C45 C44 1.348 . S
C45 C46 1.442 . S
C45 H72 0.930 . S
C46 C45 1.442 . S
C46 C47 1.381 . S
C46 H73 0.931 . S
C47 C46 1.381 . S
C47 C48 1.321 . S
C48 C47 1.321 . S
C48 C49 1.403 . S
C48 H74 0.934 . S
C49 C44 1.413 . S
C49 C48 1.403 . S
C49 H75 0.930 . S
C50 O64 1.275 . S
C50 O65 1.256 . S
C51 O66 1.259 . S
C51 O67 1.268 . S
C52 Ho41 2.811 . S
C52 C53 1.488 . S
C52 O68 1.215 . S
C52 O69 1.289 . S
C53 C52 1.488 . S
C53 C54 1.348 . S
C53 C58 1.413 . S
C54 C53 1.348 . S
C54 C55 1.442 . S
C54 H76 0.930 . S
C55 C54 1.442 . S
C55 C56 1.381 . S
C55 H77 0.931 . S
C56 C55 1.381 . S
C56 C57 1.321 . S
C57 C56 1.321 . S
C57 C58 1.403 . S
C57 H78 0.934 . S
C58 C53 1.413 . S
C58 C57 1.403 . S
C58 H79 0.930 . S
C59 O70 1.275 . S
C59 O71 1.256 . S
O60 Ho40 2.322 . S
O60 C42 1.259 . S
O61 Ho41 2.346 . S
O61 C42 1.268 . S
O62 Ho40 2.378 . S
O62 C43 1.215 . S
O63 Ho40 2.524 . S
O63 C43 1.289 . S
O64 Ho40 2.381 . S
O64 C50 1.275 . S
O65 Ho40 2.669 . S
O65 Ho41 2.305 . S
O65 C50 1.256 . S
O66 Ho41 2.322 . S
O66 C51 1.259 . S
O67 Ho40 2.346 . S
O67 C51 1.268 . S
O68 Ho41 2.378 . S
O68 C52 1.215 . S
O69 Ho41 2.524 . S
O69 C52 1.289 . S
O70 Ho41 2.381 . S
O70 C59 1.275 . S
O71 Ho40 2.305 . S
O71 Ho41 2.669 . S
O71 C59 1.256 . S
H72 C45 0.930 . S
H73 C46 0.931 . S
H74 C48 0.934 . S
H75 C49 0.930 . S
H76 C54 0.930 . S
H77 C55 0.931 . S
H78 C57 0.934 . S
H79 C58 0.930 . S
Ho80 C83 2.811 . S
Ho80 O100 2.322 . S
Ho80 O102 2.378 . S
Ho80 O103 2.524 . S
Ho80 O104 2.381 . S
Ho80 O105 2.669 . S
Ho80 O107 2.346 . S
Ho80 O111 2.305 . S
Ho81 C92 2.811 1_556 S
Ho81 O101 2.346 . S
Ho81 O105 2.305 . S
Ho81 O106 2.322 . S
Ho81 O108 2.378 . S
Ho81 O109 2.524 . S
Ho81 O110 2.381 . S
Ho81 O111 2.669 . S
C82 O100 1.259 . S
C82 O101 1.268 . S
C83 Ho80 2.811 . S
C83 C84 1.488 . S
C83 O102 1.215 . S
C83 O103 1.289 . S
C84 C83 1.488 . S
C84 C85 1.348 . S
C84 C89 1.413 . S
C85 C84 1.348 . S
C85 C86 1.442 . S
C85 H112 0.930 . S
C86 C85 1.442 . S
C86 C87 1.381 . S
C86 H113 0.931 . S
C87 C86 1.381 . S
C87 C88 1.321 . S
C88 C87 1.321 . S
C88 C89 1.403 . S
C88 H114 0.934 . S
C89 C84 1.413 . S
C89 C88 1.403 . S
C89 H115 0.930 . S
C90 O104 1.275 . S
C90 O105 1.256 . S
C91 O106 1.259 . S
C91 O107 1.268 . S
C92 Ho81 2.811 1_554 S
C92 C93 1.488 . S
C92 O108 1.215 1_554 S
C92 O109 1.289 1_554 S
C93 C92 1.488 . S
C93 C94 1.348 . S
C93 C98 1.413 . S
C94 C93 1.348 . S
C94 C95 1.442 . S
C94 H116 0.930 . S
C95 C94 1.442 . S
C95 C96 1.381 . S
C95 H117 0.931 . S
C96 C95 1.381 . S
C96 C97 1.321 . S
C97 C96 1.321 . S
C97 C98 1.403 . S
C97 H118 0.934 . S
C98 C93 1.413 . S
C98 C97 1.403 . S
C98 H119 0.930 . S
C99 O110 1.275 . S
C99 O111 1.256 . S
O100 Ho80 2.322 . S
O100 C82 1.259 . S
O101 Ho81 2.346 . S
O101 C82 1.268 . S
O102 Ho80 2.378 . S
O102 C83 1.215 . S
O103 Ho80 2.524 . S
O103 C83 1.289 . S
O104 Ho80 2.381 . S
O104 C90 1.275 . S
O105 Ho80 2.669 . S
O105 Ho81 2.305 . S
O105 C90 1.256 . S
O106 Ho81 2.322 . S
O106 C91 1.259 . S
O107 Ho80 2.346 . S
O107 C91 1.268 . S
O108 Ho81 2.378 . S
O108 C92 1.215 1_556 S
O109 Ho81 2.524 . S
O109 C92 1.289 1_556 S
O110 Ho81 2.381 . S
O110 C99 1.275 . S
O111 Ho80 2.305 . S
O111 Ho81 2.669 . S
O111 C99 1.256 . S
H112 C85 0.930 . S
H113 C86 0.931 . S
H114 C88 0.934 . S
H115 C89 0.930 . S
H116 C94 0.930 . S
H117 C95 0.931 . S
H118 C97 0.934 . S
H119 C98 0.930 . S
Ho120 C123 2.811 . S
Ho120 O140 2.322 . S
Ho120 O142 2.378 . S
Ho120 O143 2.524 . S
Ho120 O144 2.381 . S
Ho120 O145 2.670 . S
Ho120 O147 2.346 . S
Ho120 O151 2.305 . S
Ho121 C132 2.811 . S
Ho121 O141 2.346 1_556 S
Ho121 O145 2.304 1_556 S
Ho121 O146 2.322 . S
Ho121 O148 2.378 . S
Ho121 O149 2.524 . S
Ho121 O150 2.380 . S
Ho121 O151 2.669 1_556 S
C122 O140 1.259 . S
C122 O141 1.268 . S
C123 Ho120 2.811 . S
C123 C124 1.488 . S
C123 O142 1.215 . S
C123 O143 1.289 . S
C124 C123 1.488 . S
C124 C125 1.348 . S
C124 C129 1.413 . S
C125 C124 1.348 . S
C125 C126 1.442 . S
C125 H152 0.930 . S
C126 C125 1.442 . S
C126 C127 1.381 . S
C126 H153 0.931 . S
C127 C126 1.381 . S
C127 C128 1.321 . S
C128 C127 1.321 . S
C128 C129 1.403 . S
C128 H154 0.934 . S
C129 C124 1.413 . S
C129 C128 1.403 . S
C129 H155 0.930 . S
C130 O144 1.275 . S
C130 O145 1.256 . S
C131 O146 1.259 . S
C131 O147 1.268 1_556 S
C132 Ho121 2.811 . S
C132 C133 1.488 . S
C132 O148 1.215 . S
C132 O149 1.289 . S
C133 C132 1.488 . S
C133 C134 1.348 . S
C133 C138 1.413 . S
C134 C133 1.348 . S
C134 C135 1.442 . S
C134 H156 0.930 . S
C135 C134 1.442 . S
C135 C136 1.381 . S
C135 H157 0.931 . S
C136 C135 1.381 . S
C136 C137 1.321 . S
C137 C136 1.321 . S
C137 C138 1.403 . S
C137 H158 0.934 . S
C138 C133 1.413 . S
C138 C137 1.403 . S
C138 H159 0.930 . S
C139 O150 1.277 1_554 S
C139 O151 1.256 . S
O140 Ho120 2.322 . S
O140 C122 1.259 . S
O141 Ho121 2.346 1_554 S
O141 C122 1.268 . S
O142 Ho120 2.378 . S
O142 C123 1.215 . S
O143 Ho120 2.524 . S
O143 C123 1.289 . S
O144 Ho120 2.381 . S
O144 C130 1.275 . S
O145 Ho120 2.670 . S
O145 Ho121 2.304 1_554 S
O145 C130 1.256 . S
O146 Ho121 2.322 . S
O146 C131 1.259 . S
O147 Ho120 2.346 . S
O147 C131 1.268 1_554 S
O148 Ho121 2.378 . S
O148 C132 1.215 . S
O149 Ho121 2.524 . S
O149 C132 1.289 . S
O150 Ho121 2.380 . S
O150 C139 1.277 1_556 S
O151 Ho120 2.305 . S
O151 Ho121 2.669 1_554 S
O151 C139 1.256 . S
H152 C125 0.930 . S
H153 C126 0.931 . S
H154 C128 0.934 . S
H155 C129 0.930 . S
H156 C134 0.930 . S
H157 C135 0.931 . S
H158 C137 0.934 . S
H159 C138 0.930 . S
Ho160 C163 2.811 . S
Ho160 O180 2.322 . S
Ho160 O182 2.378 . S
Ho160 O183 2.524 . S
Ho160 O184 2.381 . S
Ho160 O185 2.669 . S
Ho160 O187 2.346 . S
Ho160 O191 2.305 . S
Ho161 C172 2.811 . S
Ho161 O181 2.346 . S
Ho161 O185 2.305 . S
Ho161 O186 2.322 . S
Ho161 O188 2.378 . S
Ho161 O189 2.524 . S
Ho161 O190 2.381 . S
Ho161 O191 2.669 . S
C162 O180 1.259 . S
C162 O181 1.268 . S
C163 Ho160 2.811 . S
C163 C164 1.488 . S
C163 O182 1.215 . S
C163 O183 1.289 . S
C164 C163 1.488 . S
C164 C165 1.348 . S
C164 C169 1.413 . S
C165 C164 1.348 . S
C165 C166 1.442 . S
C165 H192 0.930 . S
C166 C165 1.442 . S
C166 C167 1.381 . S
C166 H193 0.931 . S
C167 C166 1.381 . S
C167 C168 1.321 . S
C168 C167 1.321 . S
C168 C169 1.403 . S
C168 H194 0.934 . S
C169 C164 1.413 . S
C169 C168 1.403 . S
C169 H195 0.930 . S
C170 O184 1.275 . S
C170 O185 1.256 . S
C171 O186 1.259 . S
C171 O187 1.268 . S
C172 Ho161 2.811 . S
C172 C173 1.488 . S
C172 O188 1.215 . S
C172 O189 1.289 . S
C173 C172 1.488 . S
C173 C174 1.348 . S
C173 C178 1.413 . S
C174 C173 1.348 . S
C174 C175 1.442 . S
C174 H196 0.930 . S
C175 C174 1.442 . S
C175 C176 1.381 . S
C175 H197 0.931 . S
C176 C175 1.381 . S
C176 C177 1.321 . S
C177 C176 1.321 . S
C177 C178 1.403 . S
C177 H198 0.934 . S
C178 C173 1.413 . S
C178 C177 1.403 . S
C178 H199 0.930 . S
C179 O190 1.275 . S
C179 O191 1.256 . S
O180 Ho160 2.322 . S
O180 C162 1.259 . S
O181 Ho161 2.346 . S
O181 C162 1.268 . S
O182 Ho160 2.378 . S
O182 C163 1.215 . S
O183 Ho160 2.524 . S
O183 C163 1.289 . S
O184 Ho160 2.381 . S
O184 C170 1.275 . S
O185 Ho160 2.669 . S
O185 Ho161 2.305 . S
O185 C170 1.256 . S
O186 Ho161 2.322 . S
O186 C171 1.259 . S
O187 Ho160 2.346 . S
O187 C171 1.268 . S
O188 Ho161 2.378 . S
O188 C172 1.215 . S
O189 Ho161 2.524 . S
O189 C172 1.289 . S
O190 Ho161 2.381 . S
O190 C179 1.275 . S
O191 Ho160 2.305 . S
O191 Ho161 2.669 . S
O191 C179 1.256 . S
H192 C165 0.930 . S
H193 C166 0.931 . S
H194 C168 0.934 . S
H195 C169 0.930 . S
H196 C174 0.930 . S
H197 C175 0.931 . S
H198 C177 0.934 . S
H199 C178 0.930 . S
Ho200 C203 2.811 . S
Ho200 O220 2.322 . S
Ho200 O222 2.378 . S
Ho200 O223 2.524 . S
Ho200 O224 2.381 . S
Ho200 O225 2.669 . S
Ho200 O227 2.346 . S
Ho200 O231 2.305 . S
Ho201 C212 2.811 . S
Ho201 O221 2.346 . S
Ho201 O225 2.305 . S
Ho201 O226 2.322 . S
Ho201 O228 2.378 . S
Ho201 O229 2.524 . S
Ho201 O230 2.381 . S
Ho201 O231 2.669 . S
C202 O220 1.259 . S
C202 O221 1.268 . S
C203 Ho200 2.811 . S
C203 C204 1.488 . S
C203 O222 1.215 . S
C203 O223 1.289 . S
C204 C203 1.488 . S
C204 C205 1.348 . S
C204 C209 1.413 . S
C205 C204 1.348 . S
C205 C206 1.442 . S
C205 H232 0.930 . S
C206 C205 1.442 . S
C206 C207 1.381 . S
C206 H233 0.931 . S
C207 C206 1.381 . S
C207 C208 1.321 . S
C208 C207 1.321 . S
C208 C209 1.403 . S
C208 H234 0.934 . S
C209 C204 1.413 . S
C209 C208 1.403 . S
C209 H235 0.930 . S
C210 O224 1.275 . S
C210 O225 1.256 . S
C211 O226 1.259 . S
C211 O227 1.268 . S
C212 Ho201 2.811 . S
C212 C213 1.488 . S
C212 O228 1.215 . S
C212 O229 1.289 . S
C213 C212 1.488 . S
C213 C214 1.348 . S
C213 C218 1.413 . S
C214 C213 1.348 . S
C214 C215 1.442 . S
C214 H236 0.930 . S
C215 C214 1.442 . S
C215 C216 1.381 . S
C215 H237 0.931 . S
C216 C215 1.381 . S
C216 C217 1.321 . S
C217 C216 1.321 . S
C217 C218 1.403 . S
C217 H238 0.934 . S
C218 C213 1.413 . S
C218 C217 1.403 . S
C218 H239 0.930 . S
C219 O230 1.275 . S
C219 O231 1.256 . S
O220 Ho200 2.322 . S
O220 C202 1.259 . S
O221 Ho201 2.346 . S
O221 C202 1.268 . S
O222 Ho200 2.378 . S
O222 C203 1.215 . S
O223 Ho200 2.524 . S
O223 C203 1.289 . S
O224 Ho200 2.381 . S
O224 C210 1.275 . S
O225 Ho200 2.669 . S
O225 Ho201 2.305 . S
O225 C210 1.256 . S
O226 Ho201 2.322 . S
O226 C211 1.259 . S
O227 Ho200 2.346 . S
O227 C211 1.268 . S
O228 Ho201 2.378 . S
O228 C212 1.215 . S
O229 Ho201 2.524 . S
O229 C212 1.289 . S
O230 Ho201 2.381 . S
O230 C219 1.275 . S
O231 Ho200 2.305 . S
O231 Ho201 2.669 . S
O231 C219 1.256 . S
H232 C205 0.930 . S
H233 C206 0.931 . S
H234 C208 0.934 . S
H235 C209 0.930 . S
H236 C214 0.930 . S
H237 C215 0.931 . S
H238 C217 0.934 . S
H239 C218 0.930 . S
C240 C241 1.349 . S
C240 C242 1.327 . S
C240 H265 0.950 . S
C241 C240 1.349 . S
C241 C257 1.349 . S
C242 C240 1.327 . S
C242 C261 1.429 . S
C242 H266 0.950 . S
C243 C260 1.574 . S
C243 C262 1.368 . S
C243 H267 0.949 . S
H244 C248 0.949 1_554 S
C245 C246 1.349 . S
C245 C247 1.327 . S
C245 H268 0.950 . S
C246 C245 1.349 . S
C246 C258 1.349 . S
C247 C245 1.327 . S
C247 C263 1.429 . S
C247 H269 0.955 . S
C248 H244 0.949 1_556 S
C248 C256 1.574 . S
C248 C264 1.368 . S
H249 C257 0.950 . S
H250 C255 0.950 . S
H251 C256 0.949 . S
H252 C258 0.950 . S
H253 C259 0.950 . S
H254 C260 0.949 . S
C255 H250 0.950 . S
C255 C257 1.327 . S
C255 C261 1.429 . S
C256 C248 1.574 . S
C256 H251 0.949 . S
C256 C262 1.368 . S
C257 C241 1.349 . S
C257 H249 0.950 . S
C257 C255 1.327 . S
C258 C246 1.349 . S
C258 H252 0.950 . S
C258 C259 1.327 . S
C259 H253 0.950 . S
C259 C258 1.327 . S
C259 C263 1.429 . S
C260 C243 1.574 . S
C260 H254 0.949 . S
C260 C264 1.368 . S
C261 C242 1.429 . S
C261 C255 1.429 . S
C261 C262 1.523 . S
C262 C243 1.368 . S
C262 C256 1.368 . S
C262 C261 1.523 . S
C263 C247 1.429 . S
C263 C259 1.429 . S
C263 C264 1.523 1_554 S
C264 C248 1.368 . S
C264 C260 1.368 . S
C264 C263 1.523 1_556 S
H265 C240 0.950 . S
H266 C242 0.950 . S
H267 C243 0.949 . S
H268 C245 0.950 . S
H269 C247 0.955 . S
C270 C271 1.349 . S
C270 C272 1.327 . S
C270 H295 0.950 . S
C271 C270 1.349 . S
C271 C287 1.349 . S
C272 C270 1.327 . S
C272 C291 1.429 . S
C272 H296 0.950 . S
C273 C290 1.574 1_455 S
C273 C292 1.368 . S
C273 H297 0.949 . S
H274 C278 0.949 . S
C275 C276 1.349 . S
C275 C277 1.327 . S
C275 H298 0.950 . S
C276 C275 1.349 . S
C276 C288 1.349 . S
C277 C275 1.327 . S
C277 C293 1.429 . S
C277 H299 0.950 . S
C278 H274 0.949 . S
C278 C286 1.574 1_655 S
C278 C294 1.368 . S
H279 C287 0.950 . S
H280 C285 0.950 . S
H281 C286 0.949 . S
H282 C288 0.950 . S
H283 C289 0.950 . S
H284 C290 0.949 . S
C285 H280 0.950 . S
C285 C287 1.327 . S
C285 C291 1.429 . S
C286 C278 1.574 1_455 S
C286 H281 0.949 . S
C286 C292 1.368 . S
C287 C271 1.349 . S
C287 H279 0.950 . S
C287 C285 1.327 . S
C288 C276 1.349 . S
C288 H282 0.950 . S
C288 C289 1.327 . S
C289 H283 0.950 . S
C289 C288 1.327 . S
C289 C293 1.429 . S
C290 C273 1.574 1_655 S
C290 H284 0.949 . S
C290 C294 1.368 . S
C291 C272 1.429 . S
C291 C285 1.429 . S
C291 C292 1.523 . S
C292 C273 1.368 . S
C292 C286 1.368 . S
C292 C291 1.523 . S
C293 C277 1.429 . S
C293 C289 1.429 . S
C293 C294 1.523 . S
C294 C278 1.368 . S
C294 C290 1.368 . S
C294 C293 1.523 . S
H295 C270 0.950 . S
H296 C272 0.950 . S
H297 C273 0.949 . S
H298 C275 0.950 . S
H299 C277 0.950 . S
C300 C301 1.349 . S
C300 C302 1.327 . S
C300 H325 0.950 . S
C301 C300 1.349 . S
C301 C317 1.349 . S
C302 C300 1.327 . S
C302 C321 1.429 . S
C302 H326 0.950 . S
C303 C320 1.574 1_545 S
C303 C322 1.368 . S
C303 H327 0.949 . S
H304 C308 0.949 . S
C305 C306 1.349 . S
C305 C307 1.327 . S
C305 H328 0.950 . S
C306 C305 1.349 . S
C306 C318 1.349 . S
C307 C305 1.327 . S
C307 C323 1.429 . S
C307 H329 0.950 . S
C308 H304 0.949 . S
C308 C316 1.574 1_565 S
C308 C324 1.368 . S
H309 C317 0.950 . S
H310 C315 0.950 . S
H311 C316 0.949 . S
H312 C318 0.950 . S
H313 C319 0.950 . S
H314 C320 0.949 . S
C315 H310 0.950 . S
C315 C317 1.327 . S
C315 C321 1.429 . S
C316 C308 1.574 1_545 S
C316 H311 0.949 . S
C316 C322 1.368 . S
C317 C301 1.349 . S
C317 H309 0.950 . S
C317 C315 1.327 . S
C318 C306 1.349 . S
C318 H312 0.950 . S
C318 C319 1.327 . S
C319 H313 0.950 . S
C319 C318 1.327 . S
C319 C323 1.429 . S
C320 C303 1.574 1_565 S
C320 H314 0.949 . S
C320 C324 1.368 . S
C321 C302 1.429 . S
C321 C315 1.429 . S
C321 C322 1.523 . S
C322 C303 1.368 . S
C322 C316 1.368 . S
C322 C321 1.523 . S
C323 C307 1.429 . S
C323 C319 1.429 . S
C323 C324 1.523 . S
C324 C308 1.368 . S
C324 C320 1.368 . S
C324 C323 1.523 . S
H325 C300 0.950 . S
H326 C302 0.950 . S
H327 C303 0.949 . S
H328 C305 0.950 . S
H329 C307 0.950 . S
C330 C331 1.349 . S
C330 C332 1.327 . S
C330 H355 0.950 . S
C331 C330 1.349 . S
C331 C347 1.349 . S
C332 C330 1.327 . S
C332 C351 1.429 . S
C332 H356 0.950 . S
C333 C350 1.574 . S
C333 C352 1.368 . S
C333 H357 0.949 . S
H334 C338 0.949 1_554 S
C335 C336 1.349 . S
C335 C337 1.327 . S
C335 H358 0.950 . S
C336 C335 1.349 . S
C336 C348 1.349 1_556 S
C337 C335 1.327 . S
C337 C353 1.429 . S
C337 H359 0.950 . S
C338 H334 0.949 1_556 S
C338 C346 1.574 . S
C338 C354 1.368 . S
H339 C347 0.950 . S
H340 C345 0.950 . S
H341 C346 0.949 . S
H342 C348 0.950 . S
H343 C349 0.950 . S
H344 C350 0.949 . S
C345 H340 0.950 . S
C345 C347 1.327 . S
C345 C351 1.429 . S
C346 C338 1.574 . S
C346 H341 0.949 . S
C346 C352 1.368 . S
C347 C331 1.349 . S
C347 H339 0.950 . S
C347 C345 1.327 . S
C348 C336 1.349 1_554 S
C348 H342 0.950 . S
C348 C349 1.327 . S
C349 H343 0.950 . S
C349 C348 1.327 . S
C349 C353 1.429 1_554 S
C350 C333 1.574 . S
C350 H344 0.949 . S
C350 C354 1.368 . S
C351 C332 1.429 . S
C351 C345 1.429 . S
C351 C352 1.523 . S
C352 C333 1.368 . S
C352 C346 1.368 . S
C352 C351 1.523 . S
C353 C337 1.429 . S
C353 C349 1.429 1_556 S
C353 C354 1.523 . S
C354 C338 1.368 . S
C354 C350 1.368 . S
C354 C353 1.523 . S
H355 C330 0.950 . S
H356 C332 0.950 . S
H357 C333 0.949 . S
H358 C335 0.950 . S
H359 C337 0.950 . S
C360 C361 1.349 . S
C360 C362 1.327 . S
C360 H385 0.950 . S
C361 C360 1.349 . S
C361 C377 1.349 . S
C362 C360 1.327 . S
C362 C381 1.429 . S
C362 H386 0.950 . S
C363 C380 1.574 . S
C363 C382 1.368 1_655 S
C363 H387 0.949 . S
H364 C368 0.949 . S
C365 C366 1.349 . S
C365 C367 1.327 . S
C365 H388 0.950 . S
C366 C365 1.349 . S
C366 C378 1.349 . S
C367 C365 1.327 . S
C367 C383 1.429 . S
C367 H389 0.950 . S
C368 H364 0.949 . S
C368 C376 1.574 . S
C368 C384 1.368 1_455 S
H369 C377 0.950 . S
H370 C375 0.950 . S
H371 C376 0.949 . S
H372 C378 0.950 . S
H373 C379 0.950 . S
H374 C380 0.949 . S
C375 H370 0.950 . S
C375 C377 1.327 . S
C375 C381 1.429 . S
C376 C368 1.574 . S
C376 H371 0.949 . S
C376 C382 1.368 . S
C377 C361 1.349 . S
C377 H369 0.950 . S
C377 C375 1.327 . S
C378 C366 1.349 . S
C378 H372 0.950 . S
C378 C379 1.327 . S
C379 H373 0.950 . S
C379 C378 1.327 . S
C379 C383 1.429 . S
C380 C363 1.574 . S
C380 H374 0.949 . S
C380 C384 1.368 . S
C381 C362 1.429 . S
C381 C375 1.429 . S
C381 C382 1.523 . S
C382 C363 1.368 1_455 S
C382 C376 1.368 . S
C382 C381 1.523 . S
C383 C367 1.429 . S
C383 C379 1.429 . S
C383 C384 1.523 . S
C384 C368 1.368 1_655 S
C384 C380 1.368 . S
C384 C383 1.523 . S
H385 C360 0.950 . S
H386 C362 0.950 . S
H387 C363 0.949 . S
H388 C365 0.950 . S
H389 C367 0.950 . S
C390 C391 1.349 . S
C390 C392 1.327 . S
C390 H415 0.950 . S
C391 C390 1.349 . S
C391 C407 1.349 . S
C392 C390 1.327 . S
C392 C411 1.429 . S
C392 H416 0.950 . S
C393 C410 1.574 1_545 S
C393 C412 1.368 . S
C393 H417 0.949 . S
H394 C398 0.949 . S
C395 C396 1.349 . S
C395 C397 1.327 . S
C395 H418 0.950 . S
C396 C395 1.349 . S
C396 C408 1.349 . S
C397 C395 1.327 . S
C397 C413 1.429 . S
C397 H419 0.950 . S
C398 H394 0.949 . S
C398 C406 1.574 1_565 S
C398 C414 1.368 . S
H399 C407 0.950 . S
H400 C405 0.950 . S
H401 C406 0.949 . S
H402 C408 0.950 . S
H403 C409 0.950 . S
H404 C410 0.949 . S
C405 H400 0.950 . S
C405 C407 1.327 . S
C405 C411 1.429 . S
C406 C398 1.574 1_545 S
C406 H401 0.949 . S
C406 C412 1.368 . S
C407 C391 1.349 . S
C407 H399 0.950 . S
C407 C405 1.327 . S
C408 C396 1.349 . S
C408 H402 0.950 . S
C408 C409 1.327 . S
C409 H403 0.950 . S
C409 C408 1.327 . S
C409 C413 1.429 . S
C410 C393 1.574 1_565 S
C410 H404 0.949 . S
C410 C414 1.368 . S
C411 C392 1.429 . S
C411 C405 1.429 . S
C411 C412 1.523 . S
C412 C393 1.368 . S
C412 C406 1.368 . S
C412 C411 1.523 . S
C413 C397 1.429 . S
C413 C409 1.429 . S
C413 C414 1.523 . S
C414 C398 1.368 . S
C414 C410 1.368 . S
C414 C413 1.523 . S
H415 C390 0.950 . S
H416 C392 0.950 . S
H417 C393 0.949 . S
H418 C395 0.950 . S
H419 C397 0.950 . S
C420 C421 1.349 . S
C420 C422 1.327 . S
C420 H445 0.950 . S
C421 C420 1.349 . S
C421 C437 1.349 . S
C422 C420 1.327 . S
C422 C441 1.429 . S
C422 H446 0.950 . S
C423 C440 1.574 . S
C423 C442 1.368 . S
C423 H447 0.949 . S
H424 C428 0.949 . S
C425 C426 1.349 . S
C425 C427 1.327 . S
C425 H448 0.950 . S
C426 C425 1.349 . S
C426 C438 1.349 . S
C427 C425 1.327 . S
C427 C443 1.429 . S
C427 H449 0.950 . S
C428 H424 0.949 . S
C428 C436 1.574 . S
C428 C444 1.368 . S
H429 C437 0.950 . S
H430 C435 0.950 . S
H431 C436 0.949 . S
H432 C438 0.950 . S
H433 C439 0.950 . S
H434 C440 0.949 . S
C435 H430 0.950 . S
C435 C437 1.327 . S
C435 C441 1.429 . S
C436 C428 1.574 . S
C436 H431 0.949 . S
C436 C442 1.368 . S
C437 C421 1.349 . S
C437 H429 0.950 . S
C437 C435 1.327 . S
C438 C426 1.349 . S
C438 H432 0.950 . S
C438 C439 1.327 . S
C439 H433 0.950 . S
C439 C438 1.327 . S
C439 C443 1.429 . S
C440 C423 1.574 . S
C440 H434 0.949 . S
C440 C444 1.368 . S
C441 C422 1.429 . S
C441 C435 1.429 . S
C441 C442 1.523 . S
C442 C423 1.368 . S
C442 C436 1.368 . S
C442 C441 1.523 . S
C443 C427 1.429 . S
C443 C439 1.429 . S
C443 C444 1.523 . S
C444 C428 1.368 . S
C444 C440 1.368 . S
C444 C443 1.523 . S
H445 C420 0.950 . S
H446 C422 0.950 . S
H447 C423 0.949 . S
H448 C425 0.950 . S
H449 C427 0.950 . S
C450 C451 1.349 . S
C450 C452 1.327 1_554 S
C450 H475 0.950 . S
C451 C450 1.349 . S
C451 C467 1.349 . S
C452 C450 1.327 1_556 S
C452 C471 1.429 . S
C452 H476 0.950 . S
C453 C470 1.574 . S
C453 C472 1.368 . S
C453 H477 0.949 . S
H454 C458 0.949 . S
C455 C456 1.349 . S
C455 C457 1.327 . S
C455 H478 0.950 . S
C456 C455 1.349 . S
C456 C468 1.349 . S
C457 C455 1.327 . S
C457 C473 1.429 . S
C457 H479 0.950 . S
C458 H454 0.949 . S
C458 C466 1.574 . S
C458 C474 1.368 . S
H459 C467 0.950 . S
H460 C465 0.950 . S
H461 C466 0.949 . S
H462 C468 0.950 . S
H463 C469 0.950 . S
H464 C470 0.949 . S
C465 H460 0.950 . S
C465 C467 1.327 1_556 S
C465 C471 1.429 . S
C466 C458 1.574 . S
C466 H461 0.949 . S
C466 C472 1.368 . S
C467 C451 1.349 . S
C467 H459 0.950 . S
C467 C465 1.327 1_554 S
C468 C456 1.349 . S
C468 H462 0.950 . S
C468 C469 1.327 . S
C469 H463 0.950 . S
C469 C468 1.327 . S
C469 C473 1.429 . S
C470 C453 1.574 . S
C470 H464 0.949 . S
C470 C474 1.368 . S
C471 C452 1.429 . S
C471 C465 1.429 . S
C471 C472 1.523 . S
C472 C453 1.368 . S
C472 C466 1.368 . S
C472 C471 1.523 . S
C473 C457 1.429 . S
C473 C469 1.429 . S
C473 C474 1.523 . S
C474 C458 1.368 . S
C474 C470 1.368 . S
C474 C473 1.523 . S
H475 C450 0.950 . S
H476 C452 0.950 . S
H477 C453 0.949 . S
H478 C455 0.950 . S
H479 C457 0.950 . S
C480 C481 1.349 . S
C480 C482 1.327 . S
C480 H505 0.950 . S
C481 C480 1.349 . S
C481 C497 1.349 . S
C482 C480 1.327 . S
C482 C501 1.429 . S
C482 H506 0.950 . S
C483 C500 1.574 . S
C483 C502 1.368 . S
C483 H507 0.949 . S
H484 C488 0.949 . S
C485 C486 1.349 . S
C485 C487 1.327 . S
C485 H508 0.950 . S
C486 C485 1.349 . S
C486 C498 1.349 . S
C487 C485 1.327 . S
C487 C503 1.429 . S
C487 H509 0.950 . S
C488 H484 0.949 . S
C488 C496 1.574 . S
C488 C504 1.368 . S
H489 C497 0.950 . S
H490 C495 0.950 . S
H491 C496 0.949 . S
H492 C498 0.950 . S
H493 C499 0.950 . S
H494 C500 0.949 . S
C495 H490 0.950 . S
C495 C497 1.327 . S
C495 C501 1.429 . S
C496 C488 1.574 . S
C496 H491 0.949 . S
C496 C502 1.368 . S
C497 C481 1.349 . S
C497 H489 0.950 . S
C497 C495 1.327 . S
C498 C486 1.349 . S
C498 H492 0.950 . S
C498 C499 1.327 . S
C499 H493 0.950 . S
C499 C498 1.327 . S
C499 C503 1.429 . S
C500 C483 1.574 . S
C500 H494 0.949 . S
C500 C504 1.368 . S
C501 C482 1.429 . S
C501 C495 1.429 . S
C501 C502 1.523 . S
C502 C483 1.368 . S
C502 C496 1.368 . S
C502 C501 1.523 . S
C503 C487 1.429 . S
C503 C499 1.429 . S
C503 C504 1.523 . S
C504 C488 1.368 . S
C504 C500 1.368 . S
C504 C503 1.523 . S
H505 C480 0.950 . S
H506 C482 0.950 . S
H507 C483 0.949 . S
H508 C485 0.950 . S
H509 C487 0.950 . S
C510 C511 1.349 . S
C510 C512 1.327 . S
C510 H535 0.950 . S
C511 C510 1.349 . S
C511 C527 1.349 . S
C512 C510 1.327 . S
C512 C531 1.429 . S
C512 H536 0.950 . S
C513 C530 1.574 . S
C513 C532 1.368 . S
C513 H537 0.949 . S
H514 C518 0.949 . S
C515 C516 1.349 . S
C515 C517 1.327 . S
C515 H538 0.950 . S
C516 C515 1.349 . S
C516 C528 1.349 . S
C517 C515 1.327 . S
C517 C533 1.429 . S
C517 H539 0.950 . S
C518 H514 0.949 . S
C518 C526 1.574 . S
C518 C534 1.368 . S
H519 C527 0.950 . S
H520 C525 0.950 . S
H521 C526 0.949 . S
H522 C528 0.950 . S
H523 C529 0.950 . S
H524 C530 0.949 . S
C525 H520 0.950 . S
C525 C527 1.327 . S
C525 C531 1.429 . S
C526 C518 1.574 . S
C526 H521 0.949 . S
C526 C532 1.368 . S
C527 C511 1.349 . S
C527 H519 0.950 . S
C527 C525 1.327 . S
C528 C516 1.349 . S
C528 H522 0.950 . S
C528 C529 1.327 . S
C529 H523 0.950 . S
C529 C528 1.327 . S
C529 C533 1.429 . S
C530 C513 1.574 . S
C530 H524 0.949 . S
C530 C534 1.368 . S
C531 C512 1.429 . S
C531 C525 1.429 . S
C531 C532 1.523 . S
C532 C513 1.368 . S
C532 C526 1.368 . S
C532 C531 1.523 . S
C533 C517 1.429 . S
C533 C529 1.429 . S
C533 C534 1.523 . S
C534 C518 1.368 . S
C534 C530 1.368 . S
C534 C533 1.523 . S
H535 C510 0.950 . S
H536 C512 0.950 . S
H537 C513 0.949 . S
H538 C515 0.950 . S
H539 C517 0.950 . S
C540 C541 1.349 . S
C540 C542 1.327 . S
C540 H565 0.950 . S
C541 C540 1.349 . S
C541 C557 1.349 . S
C542 C540 1.327 . S
C542 C561 1.429 . S
C542 H566 0.950 . S
C543 C560 1.574 1_556 S
C543 C562 1.368 . S
C543 H567 0.949 . S
H544 C548 0.949 . S
C545 C546 1.349 . S
C545 C547 1.327 . S
C545 H568 0.950 . S
C546 C545 1.349 . S
C546 C558 1.349 . S
C547 C545 1.327 . S
C547 C563 1.429 . S
C547 H569 0.950 . S
C548 H544 0.949 . S
C548 C556 1.574 . S
C548 C564 1.368 . S
H549 C557 0.950 . S
H550 C555 0.950 . S
H551 C556 0.949 . S
H552 C558 0.950 . S
H553 C559 0.950 . S
H554 C560 0.949 . S
C555 H550 0.950 . S
C555 C557 1.327 . S
C555 C561 1.429 . S
C556 C548 1.574 . S
C556 H551 0.949 . S
C556 C562 1.368 1_554 S
C557 C541 1.349 . S
C557 H549 0.950 . S
C557 C555 1.327 . S
C558 C546 1.349 . S
C558 H552 0.950 . S
C558 C559 1.327 . S
C559 H553 0.950 . S
C559 C558 1.327 . S
C559 C563 1.429 . S
C560 C543 1.574 1_554 S
C560 H554 0.949 . S
C560 C564 1.368 . S
C561 C542 1.429 . S
C561 C555 1.429 . S
C561 C562 1.523 . S
C562 C543 1.368 . S
C562 C556 1.368 1_556 S
C562 C561 1.523 . S
C563 C547 1.429 . S
C563 C559 1.429 . S
C563 C564 1.523 . S
C564 C548 1.368 . S
C564 C560 1.368 . S
C564 C563 1.523 . S
H565 C540 0.950 . S
H566 C542 0.950 . S
H567 C543 0.949 . S
H568 C545 0.950 . S
H569 C547 0.950 . S
C570 C571 1.349 . S
C570 C572 1.327 . S
C570 H595 0.950 . S
C571 C570 1.349 . S
C571 C587 1.349 . S
C572 C570 1.327 . S
C572 C591 1.429 . S
C572 H596 0.950 . S
C573 C590 1.574 . S
C573 C592 1.368 . S
C573 H597 0.949 . S
H574 C578 0.949 . S
C575 C576 1.349 . S
C575 C577 1.327 . S
C575 H598 0.950 . S
C576 C575 1.349 . S
C576 C588 1.349 . S
C577 C575 1.327 . S
C577 C593 1.429 . S
C577 H599 0.950 . S
C578 H574 0.949 . S
C578 C586 1.574 . S
C578 C594 1.368 . S
H579 C587 0.950 . S
H580 C585 0.950 . S
H581 C586 0.949 . S
H582 C588 0.950 . S
H583 C589 0.950 . S
H584 C590 0.949 . S
C585 H580 0.950 . S
C585 C587 1.327 . S
C585 C591 1.429 . S
C586 C578 1.574 . S
C586 H581 0.949 . S
C586 C592 1.368 . S
C587 C571 1.349 . S
C587 H579 0.950 . S
C587 C585 1.327 . S
C588 C576 1.349 . S
C588 H582 0.950 . S
C588 C589 1.327 . S
C589 H583 0.950 . S
C589 C588 1.327 . S
C589 C593 1.429 . S
C590 C573 1.574 . S
C590 H584 0.949 . S
C590 C594 1.368 . S
C591 C572 1.429 . S
C591 C585 1.429 . S
C591 C592 1.523 . S
C592 C573 1.368 . S
C592 C586 1.368 . S
C592 C591 1.523 . S
C593 C577 1.429 . S
C593 C589 1.429 . S
C593 C594 1.523 . S
C594 C578 1.368 . S
C594 C590 1.368 . S
C594 C593 1.523 . S
H595 C570 0.950 . S
H596 C572 0.950 . S
H597 C573 0.949 . S
H598 C575 0.950 . S
H599 C577 0.950 . S
C600 C601 1.349 . S
C600 C602 1.327 . S
C600 H625 0.950 . S
C601 C600 1.349 . S
C601 C617 1.349 . S
C602 C600 1.327 . S
C602 C621 1.429 . S
C602 H626 0.950 . S
C603 C620 1.574 . S
C603 C622 1.368 . S
C603 H627 0.949 . S
H604 C608 0.949 . S
C605 C606 1.349 . S
C605 C607 1.327 . S
C605 H628 0.950 . S
C606 C605 1.349 . S
C606 C618 1.349 . S
C607 C605 1.327 . S
C607 C623 1.429 . S
C607 H629 0.950 . S
C608 H604 0.949 . S
C608 C616 1.574 . S
C608 C624 1.368 . S
H609 C617 0.950 . S
H610 C615 0.950 . S
H611 C616 0.949 . S
H612 C618 0.950 . S
H613 C619 0.950 . S
H614 C620 0.949 . S
C615 H610 0.950 . S
C615 C617 1.327 . S
C615 C621 1.429 . S
C616 C608 1.574 . S
C616 H611 0.949 . S
C616 C622 1.368 . S
C617 C601 1.349 . S
C617 H609 0.950 . S
C617 C615 1.327 . S
C618 C606 1.349 . S
C618 H612 0.950 . S
C618 C619 1.327 . S
C619 H613 0.950 . S
C619 C618 1.327 . S
C619 C623 1.429 . S
C620 C603 1.574 . S
C620 H614 0.949 . S
C620 C624 1.368 . S
C621 C602 1.429 . S
C621 C615 1.429 . S
C621 C622 1.523 . S
C622 C603 1.368 . S
C622 C616 1.368 . S
C622 C621 1.523 . S
C623 C607 1.429 . S
C623 C619 1.429 . S
C623 C624 1.523 . S
C624 C608 1.368 . S
C624 C620 1.368 . S
C624 C623 1.523 . S
H625 C600 0.950 . S
H626 C602 0.950 . S
H627 C603 0.949 . S
H628 C605 0.950 . S
H629 C607 0.950 . S
C630 C631 1.349 . S
C630 C632 1.327 . S
C630 H655 0.950 . S
C631 C630 1.349 . S
C631 C647 1.349 . S
C632 C630 1.327 . S
C632 C651 1.429 . S
C632 H656 0.950 . S
C633 C650 1.574 . S
C633 C652 1.368 . S
C633 H657 0.949 . S
H634 C638 0.949 . S
C635 C636 1.349 . S
C635 C637 1.327 . S
C635 H658 0.950 . S
C636 C635 1.349 . S
C636 C648 1.349 . S
C637 C635 1.327 . S
C637 C653 1.429 . S
C637 H659 0.950 . S
C638 H634 0.949 . S
C638 C646 1.574 . S
C638 C654 1.368 . S
H639 C647 0.950 . S
H640 C645 0.950 . S
H641 C646 0.949 . S
H642 C648 0.950 . S
H643 C649 0.950 . S
H644 C650 0.949 . S
C645 H640 0.950 . S
C645 C647 1.327 . S
C645 C651 1.429 . S
C646 C638 1.574 . S
C646 H641 0.949 . S
C646 C652 1.368 . S
C647 C631 1.349 . S
C647 H639 0.950 . S
C647 C645 1.327 . S
C648 C636 1.349 . S
C648 H642 0.950 . S
C648 C649 1.327 . S
C649 H643 0.950 . S
C649 C648 1.327 . S
C649 C653 1.429 . S
C650 C633 1.574 . S
C650 H644 0.949 . S
C650 C654 1.368 . S
C651 C632 1.429 . S
C651 C645 1.429 . S
C651 C652 1.523 . S
C652 C633 1.368 . S
C652 C646 1.368 . S
C652 C651 1.523 . S
C653 C637 1.429 . S
C653 C649 1.429 . S
C653 C654 1.523 . S
C654 C638 1.368 . S
C654 C650 1.368 . S
C654 C653 1.523 . S
H655 C630 0.950 . S
H656 C632 0.950 . S
H657 C633 0.949 . S
H658 C635 0.950 . S
H659 C637 0.950 . S
C660 C661 1.349 . S
C660 C662 1.327 . S
C660 H685 0.950 . S
C661 C660 1.349 . S
C661 C677 1.349 . S
C662 C660 1.327 . S
C662 C681 1.429 . S
C662 H686 0.950 . S
C663 C680 1.574 . S
C663 C682 1.368 . S
C663 H687 0.949 . S
H664 C668 0.949 1_556 S
C665 C666 1.349 . S
C665 C667 1.327 1_556 S
C665 H688 0.950 1_556 S
C666 C665 1.349 . S
C666 C678 1.349 . S
C667 C665 1.327 1_554 S
C667 C683 1.429 . S
C667 H689 0.950 . S
C668 H664 0.949 1_554 S
C668 C676 1.574 . S
C668 C684 1.368 . S
H669 C677 0.950 . S
H670 C675 0.950 . S
H671 C676 0.949 . S
H672 C678 0.950 . S
H673 C679 0.950 . S
H674 C680 0.949 . S
C675 H670 0.950 . S
C675 C677 1.327 . S
C675 C681 1.429 . S
C676 C668 1.574 . S
C676 H671 0.949 . S
C676 C682 1.368 . S
C677 C661 1.349 . S
C677 H669 0.950 . S
C677 C675 1.327 . S
C678 C666 1.349 . S
C678 H672 0.950 . S
C678 C679 1.327 . S
C679 H673 0.950 . S
C679 C678 1.327 . S
C679 C683 1.429 1_556 S
C680 C663 1.574 . S
C680 H674 0.949 . S
C680 C684 1.368 . S
C681 C662 1.429 . S
C681 C675 1.429 . S
C681 C682 1.523 . S
C682 C663 1.368 . S
C682 C676 1.368 . S
C682 C681 1.523 . S
C683 C667 1.429 . S
C683 C679 1.429 1_554 S
C683 C684 1.523 . S
C684 C668 1.368 . S
C684 C680 1.368 . S
C684 C683 1.523 . S
H685 C660 0.950 . S
H686 C662 0.950 . S
H687 C663 0.949 . S
H688 C665 0.950 1_554 S
H689 C667 0.950 . S
C690 C691 1.349 . S
C690 C692 1.327 . S
C690 H715 0.950 . S
C691 C690 1.349 . S
C691 C707 1.349 . S
C692 C690 1.327 . S
C692 C711 1.429 . S
C692 H716 0.950 . S
C693 C710 1.574 . S
C693 C712 1.368 . S
C693 H717 0.949 . S
H694 C698 0.949 . S
C695 C696 1.349 . S
C695 C697 1.327 . S
C695 H718 0.950 . S
C696 C695 1.349 . S
C696 C708 1.349 . S
C697 C695 1.327 . S
C697 C713 1.429 . S
C697 H719 0.950 . S
C698 H694 0.949 . S
C698 C706 1.574 . S
C698 C714 1.368 . S
H699 C707 0.950 . S
H700 C705 0.950 . S
H701 C706 0.949 . S
H702 C708 0.950 . S
H703 C709 0.950 . S
H704 C710 0.949 . S
C705 H700 0.950 . S
C705 C707 1.327 . S
C705 C711 1.429 . S
C706 C698 1.574 . S
C706 H701 0.949 . S
C706 C712 1.368 . S
C707 C691 1.349 . S
C707 H699 0.950 . S
C707 C705 1.327 . S
C708 C696 1.349 . S
C708 H702 0.950 . S
C708 C709 1.327 . S
C709 H703 0.950 . S
C709 C708 1.327 . S
C709 C713 1.429 . S
C710 C693 1.574 . S
C710 H704 0.949 . S
C710 C714 1.368 . S
C711 C692 1.429 . S
C711 C705 1.429 . S
C711 C712 1.523 . S
C712 C693 1.368 . S
C712 C706 1.368 . S
C712 C711 1.523 . S
C713 C697 1.429 . S
C713 C709 1.429 . S
C713 C714 1.523 . S
C714 C698 1.368 . S
C714 C710 1.368 . S
C714 C713 1.523 . S
H715 C690 0.950 . S
H716 C692 0.950 . S
H717 C693 0.949 . S
H718 C695 0.950 . S
H719 C697 0.950 . S
C720 C721 1.349 . S
C720 C722 1.327 . S
C720 H745 0.950 . S
C721 C720 1.349 . S
C721 C737 1.349 . S
C722 C720 1.327 . S
C722 C741 1.429 . S
C722 H746 0.950 . S
C723 C740 1.574 . S
C723 C742 1.368 . S
C723 H747 0.949 . S
H724 C728 0.949 . S
C725 C726 1.349 . S
C725 C727 1.327 . S
C725 H748 0.950 . S
C726 C725 1.349 . S
C726 C738 1.349 . S
C727 C725 1.327 . S
C727 C743 1.429 . S
C727 H749 0.950 . S
C728 H724 0.949 . S
C728 C736 1.574 . S
C728 C744 1.368 . S
H729 C737 0.950 . S
H730 C735 0.950 . S
H731 C736 0.949 . S
H732 C738 0.950 . S
H733 C739 0.950 . S
H734 C740 0.949 . S
C735 H730 0.950 . S
C735 C737 1.327 . S
C735 C741 1.429 . S
C736 C728 1.574 . S
C736 H731 0.949 . S
C736 C742 1.368 . S
C737 C721 1.349 . S
C737 H729 0.950 . S
C737 C735 1.327 . S
C738 C726 1.349 . S
C738 H732 0.950 . S
C738 C739 1.327 . S
C739 H733 0.950 . S
C739 C738 1.327 . S
C739 C743 1.429 . S
C740 C723 1.574 . S
C740 H734 0.949 . S
C740 C744 1.368 . S
C741 C722 1.429 . S
C741 C735 1.429 . S
C741 C742 1.523 . S
C742 C723 1.368 . S
C742 C736 1.368 . S
C742 C741 1.523 . S
C743 C727 1.429 . S
C743 C739 1.429 . S
C743 C744 1.523 . S
C744 C728 1.368 . S
C744 C740 1.368 . S
C744 C743 1.523 . S
H745 C720 0.950 . S
H746 C722 0.950 . S
H747 C723 0.949 . S
H748 C725 0.950 . S
H749 C727 0.950 . S
C750 C751 1.349 . S
C750 C752 1.327 . S
C750 H775 0.950 . S
C751 C750 1.349 . S
C751 C767 1.349 . S
C752 C750 1.327 . S
C752 C771 1.429 . S
C752 H776 0.950 . S
C753 C770 1.574 . S
C753 C772 1.368 . S
C753 H777 0.949 . S
H754 C758 0.949 . S
C755 C756 1.349 . S
C755 C757 1.327 . S
C755 H778 0.950 . S
C756 C755 1.349 . S
C756 C768 1.349 . S
C757 C755 1.327 . S
C757 C773 1.429 . S
C757 H779 0.950 . S
C758 H754 0.949 . S
C758 C766 1.574 . S
C758 C774 1.368 . S
H759 C767 0.950 . S
H760 C765 0.950 . S
H761 C766 0.949 . S
H762 C768 0.950 . S
H763 C769 0.950 . S
H764 C770 0.949 . S
C765 H760 0.950 . S
C765 C767 1.327 . S
C765 C771 1.429 . S
C766 C758 1.574 . S
C766 H761 0.949 . S
C766 C772 1.368 . S
C767 C751 1.349 . S
C767 H759 0.950 . S
C767 C765 1.327 . S
C768 C756 1.349 . S
C768 H762 0.950 . S
C768 C769 1.327 . S
C769 H763 0.950 . S
C769 C768 1.327 . S
C769 C773 1.429 . S
C770 C753 1.574 . S
C770 H764 0.949 . S
C770 C774 1.368 . S
C771 C752 1.429 . S
C771 C765 1.429 . S
C771 C772 1.523 . S
C772 C753 1.368 . S
C772 C766 1.368 . S
C772 C771 1.523 . S
C773 C757 1.429 . S
C773 C769 1.429 . S
C773 C774 1.523 . S
C774 C758 1.368 . S
C774 C770 1.368 . S
C774 C773 1.523 . S
H775 C750 0.950 . S
H776 C752 0.950 . S
H777 C753 0.949 . S
H778 C755 0.950 . S
H779 C757 0.950 . S
C241 C202 1.657 . S
C246 C2 1.657 . S
C271 C10 1.400 . S
C276 C50 1.400 . S
C301 C42 1.657 . S
C306 C82 1.657 . S
C331 C90 1.400 . S
C336 C130 1.401 1_556 S
C361 C162 1.657 . S
C366 C122 1.657 . S
C391 C210 1.401 . S
C396 C170 1.401 . S
C421 C7 1.079 . S
C426 C16 1.079 . S
C451 C56 1.079 . S
C456 C47 1.079 . S
C481 C87 1.079 . S
C486 C96 1.079 . S
C511 C136 1.079 . S
C516 C127 1.079 . S
C541 C176 1.079 . S
C546 C167 1.079 . S
C571 C216 1.079 . S
C576 C207 1.079 1_554 S
C601 C11 1.764 . S
C606 C179 1.783 . S
C631 C59 1.783 . S
C636 C211 1.763 . S
C661 C19 1.783 . S
C666 C91 1.763 . S
C691 C51 1.763 . S
C696 C139 1.783 . S
C721 C171 1.763 . S
C726 C99 1.783 . S
C751 C131 1.763 . S
C756 C219 1.783 . S
