# Generated by pormake.
# Topology lhb, (8)-cn, num edge types: 1
# Building blocks:
#     Node 0, Type 0, BuildingBlock: OLANAS_clean_sbu_2, # of connection points: 8
#     Node 1, Type 0, BuildingBlock: OLANAS_clean_sbu_2, # of connection points: 8
#     Node 2, Type 0, BuildingBlock: OLANAS_clean_sbu_2, # of connection points: 8
#     Node 3, Type 0, BuildingBlock: OLANAS_clean_sbu_2, # of connection points: 8
#     Node 4, Type 0, BuildingBlock: OLANAS_clean_sbu_2, # of connection points: 8
#     Node 5, Type 0, BuildingBlock: OLANAS_clean_sbu_2, # of connection points: 8
#     Node 6, Type 0, BuildingBlock: OLANAS_clean_sbu_2, # of connection points: 8
#     Node 7, Type 0, BuildingBlock: OLANAS_clean_sbu_2, # of connection points: 8
#     Edge 8, Type (0, 0), BuildingBlock: TEMPAE_clean_linker_10, # of connection points: 2
#     Edge 9, Type (0, 0), BuildingBlock: TEMPAE_clean_linker_10, # of connection points: 2
#     Edge 10, Type (0, 0), BuildingBlock: TEMPAE_clean_linker_10, # of connection points: 2
#     Edge 11, Type (0, 0), BuildingBlock: TEMPAE_clean_linker_10, # of connection points: 2
#     Edge 12, Type (0, 0), BuildingBlock: TEMPAE_clean_linker_10, # of connection points: 2
#     Edge 13, Type (0, 0), BuildingBlock: TEMPAE_clean_linker_10, # of connection points: 2
#     Edge 14, Type (0, 0), BuildingBlock: TEMPAE_clean_linker_10, # of connection points: 2
#     Edge 15, Type (0, 0), BuildingBlock: TEMPAE_clean_linker_10, # of connection points: 2
#     Edge 16, Type (0, 0), BuildingBlock: TEMPAE_clean_linker_10, # of connection points: 2
#     Edge 17, Type (0, 0), BuildingBlock: TEMPAE_clean_linker_10, # of connection points: 2
#     Edge 18, Type (0, 0), BuildingBlock: TEMPAE_clean_linker_10, # of connection points: 2
#     Edge 19, Type (0, 0), BuildingBlock: TEMPAE_clean_linker_10, # of connection points: 2
#     Edge 20, Type (0, 0), BuildingBlock: TEMPAE_clean_linker_10, # of connection points: 2
#     Edge 21, Type (0, 0), BuildingBlock: TEMPAE_clean_linker_10, # of connection points: 2
#     Edge 22, Type (0, 0), BuildingBlock: TEMPAE_clean_linker_10, # of connection points: 2
#     Edge 23, Type (0, 0), BuildingBlock: TEMPAE_clean_linker_10, # of connection points: 2
#     Edge 24, Type (0, 0), BuildingBlock: TEMPAE_clean_linker_10, # of connection points: 2
#     Edge 25, Type (0, 0), BuildingBlock: TEMPAE_clean_linker_10, # of connection points: 2
#     Edge 26, Type (0, 0), BuildingBlock: TEMPAE_clean_linker_10, # of connection points: 2
#     Edge 27, Type (0, 0), BuildingBlock: TEMPAE_clean_linker_10, # of connection points: 2
#     Edge 28, Type (0, 0), BuildingBlock: TEMPAE_clean_linker_10, # of connection points: 2
#     Edge 29, Type (0, 0), BuildingBlock: TEMPAE_clean_linker_10, # of connection points: 2
#     Edge 30, Type (0, 0), BuildingBlock: TEMPAE_clean_linker_10, # of connection points: 2
#     Edge 31, Type (0, 0), BuildingBlock: TEMPAE_clean_linker_10, # of connection points: 2
#     Edge 32, Type (0, 0), BuildingBlock: TEMPAE_clean_linker_10, # of connection points: 2
#     Edge 33, Type (0, 0), BuildingBlock: TEMPAE_clean_linker_10, # of connection points: 2
#     Edge 34, Type (0, 0), BuildingBlock: TEMPAE_clean_linker_10, # of connection points: 2
#     Edge 35, Type (0, 0), BuildingBlock: TEMPAE_clean_linker_10, # of connection points: 2
#     Edge 36, Type (0, 0), BuildingBlock: TEMPAE_clean_linker_10, # of connection points: 2
#     Edge 37, Type (0, 0), BuildingBlock: TEMPAE_clean_linker_10, # of connection points: 2
#     Edge 38, Type (0, 0), BuildingBlock: TEMPAE_clean_linker_10, # of connection points: 2
#     Edge 39, Type (0, 0), BuildingBlock: TEMPAE_clean_linker_10, # of connection points: 2
# Relax obj value: 0.220
# Max RMSD: 0.285
# Mean RMSD: 0.285
data_MOF--net-lhb--node1-OLANAS_clean_sbu_2--edge1-TEMPAE_clean_linker_10
_symmetry_space_group_name_H-M    P1
_symmetry_Int_Tables_number       1
_symmetry_cell_setting            triclinic
loop_
_symmetry_equiv_pos_as_xyz
'x, y, z'
_cell_length_a     30.971249
_cell_length_b     19.294339
_cell_length_c     65.47952
_cell_angle_alpha  89.940843
_cell_angle_beta   90.033591
_cell_angle_gamma 90.035777
loop_
_atom_site_label
_atom_site_type_symbol
_atom_site_fract_x
_atom_site_fract_y
_atom_site_fract_z
_atom_type_partial_charge
C0 C 0.03491 0.96408 0.00014 0.0
O1 O 0.04614 0.91487 0.01299 0.0
C2 C 0.06599 0.99595 0.98596 0.0
C3 C 0.10962 0.98028 0.98291 0.0
C4 C 0.13221 0.01751 0.96761 0.0
C5 C 0.11103 0.06851 0.9557 0.0
C6 C 0.06729 0.08092 0.95956 0.0
N7 N 0.04814 0.04526 0.9745 0.0
N8 N 0.99783 0.13221 -0.00126 0.0
Co9 Co 0.99021 0.06062 0.97809 0.0
N10 N 0.9321 0.07637 0.98115 0.0
C11 C 0.87724 0.14514 -0.00475 0.0
C12 C 0.84763 0.11039 0.98234 0.0
C13 C 0.86199 0.0592 0.96845 0.0
C14 C 0.90613 0.04391 0.96802 0.0
C15 C 0.92081 0.12643 -0.00593 0.0
N16 N 0.97326 0.99159 0.95795 0.0
N17 N 0.99345 0.98882 -0.00102 0.0
N18 N 0.9963 0.13004 0.95684 0.0
C19 C 0.95821 0.15741 0.00446 0.0
O20 O 0.95394 0.20675 0.01815 0.0
C21 C 0.0377 0.13018 0.94953 0.0
O22 O 0.05105 0.17569 0.93597 0.0
C23 C 0.96633 0.18514 0.953 0.0
C24 C 0.94243 0.30419 0.9584 0.0
C25 C 0.97167 0.24996 0.96233 0.0
C26 C 0.93251 0.17473 0.93931 0.0
C27 C 0.90233 0.22751 0.9353 0.0
C28 C 0.90704 0.29145 0.94541 0.0
C29 C 0.92952 0.99479 0.95486 0.0
O30 O 0.90925 0.95131 0.94273 0.0
C31 C 0.99809 0.93163 0.95238 0.0
C32 C 0.03158 0.93775 0.93814 0.0
C33 C 0.05464 0.879 0.93172 0.0
C34 C 0.04296 0.81371 0.93939 0.0
C35 C 0.00868 0.80646 0.95317 0.0
C36 C 0.98685 0.86572 0.95998 0.0
C37 C 0.96078 0.97105 0.01362 0.0
C38 C 0.92128 0.94239 0.00728 0.0
C39 C 0.88912 0.92555 0.02159 0.0
C40 C 0.89772 0.93644 0.0424 0.0
C41 C 0.93738 0.96327 0.04889 0.0
C42 C 0.96906 0.97961 0.03455 0.0
C43 C 0.03664 0.14894 0.00967 0.0
C44 C 0.10967 0.18664 0.03209 0.0
C45 C 0.07415 0.15794 0.04237 0.0
C46 C 0.0379 0.13869 0.03087 0.0
C47 C 0.07231 0.17873 -0.00027 0.0
C48 C 0.10978 0.19464 0.0108 0.0
H49 H 0.12562 0.94065 -0.00817 0.0
H50 H 0.16598 1.00652 0.96491 0.0
H51 H 0.12816 0.09664 0.94391 0.0
H52 H 0.8665 0.18565 0.00547 0.0
H53 H 0.81374 0.12383 0.98289 0.0
H54 H 0.83952 0.03343 0.95831 0.0
H55 H 0.99892 0.25807 0.97243 0.0
H56 H 0.9312 0.12592 0.9312 0.0
H57 H 0.88451 0.33289 0.94221 0.0
H58 H 0.0387 0.98795 0.9316 0.0
H59 H 0.05899 0.76756 0.93377 0.0
H60 H 0.95994 0.86029 0.9704 0.0
H61 H 0.91582 0.93216 -0.00866 0.0
H62 H 0.87407 0.92189 0.05383 0.0
H63 H 5e-05 0.99888 0.03965 0.0
H64 H 0.13752 0.20425 0.04065 0.0
H65 H 0.01011 0.11612 0.03828 0.0
H66 H 0.07096 0.19022 0.98363 0.0
C67 C 0.20201 0.15733 0.25295 0.0
O68 O 0.19434 0.10914 0.26669 0.0
C69 C 0.16714 0.19036 0.24116 0.0
C70 C 0.12287 0.17587 0.24124 0.0
C71 C 0.09615 0.21324 0.22755 0.0
C72 C 0.11393 0.26323 0.21412 0.0
C73 C 0.15852 0.27459 0.21487 0.0
N74 N 0.18174 0.23887 0.22843 0.0
N75 N 0.24132 0.32356 0.2481 0.0
Co76 Co 0.24042 0.25117 0.2275 0.0
N77 N 0.29907 0.26358 0.22612 0.0
C78 C 0.35894 0.33182 0.23499 0.0
C79 C 0.38278 0.29594 0.21988 0.0
C80 C 0.363 0.24412 0.20776 0.0
C81 C 0.31953 0.22879 0.21141 0.0
C82 C 0.31549 0.31406 0.23765 0.0
N83 N 0.24873 0.18029 0.20673 0.0
N84 N 0.24299 0.17998 0.24861 0.0
N85 N 0.22849 0.32099 0.20665 0.0
C86 C 0.2827 0.3471 0.25071 0.0
O87 O 0.29233 0.39664 0.26371 0.0
C88 C 0.18513 0.32203 0.20248 0.0
O89 O 0.16797 0.36719 0.18981 0.0
C90 C 0.25686 0.37712 0.20111 0.0
C91 C 0.27776 0.50017 0.2031 0.0
C92 C 0.2499 0.44492 0.20856 0.0
C93 C 0.29001 0.36542 0.18712 0.0
C94 C 0.31845 0.41878 0.18192 0.0
C95 C 0.31373 0.48432 0.19074 0.0
C96 C 0.29098 0.17972 0.20062 0.0
O97 O 0.30572 0.1345 0.18734 0.0
C98 C 0.21877 0.12538 0.20223 0.0
C99 C 0.18407 0.13869 0.18929 0.0
C100 C 0.15227 0.08819 0.18571 0.0
C101 C 0.15579 0.02417 0.19586 0.0
C102 C 0.19383 1.00531 0.20641 0.0
C103 C 0.2248 0.058 0.21003 0.0
C104 C 0.2798 0.16113 0.26076 0.0
C105 C 0.31567 0.12802 0.25192 0.0
C106 C 0.35124 0.10937 0.26406 0.0
C107 C 0.35101 0.1259 0.2849 0.0
C108 C 0.31499 0.15679 0.29394 0.0
C109 C 0.27901 0.17251 0.28195 0.0
C110 C 0.20605 0.34473 0.26082 0.0
C111 C 0.13723 0.3838 0.28591 0.0
C112 C 0.17223 0.3478 0.29424 0.0
C113 C 0.20726 0.33048 0.28183 0.0
C114 C 0.17097 0.38166 0.25262 0.0
C115 C 0.13685 0.4022 0.26525 0.0
H116 H 0.10943 0.13685 0.25127 0.0
H117 H 0.06179 0.20312 0.22725 0.0
H118 H 0.0936 0.29137 0.20353 0.0
H119 H 0.3737 0.3728 0.24385 0.0
H120 H 0.41633 0.309 0.21735 0.0
H121 H 0.38097 0.21764 0.19594 0.0
H122 H 0.2219 0.45436 0.21792 0.0
H123 H 0.29257 0.31555 0.17964 0.0
H124 H 0.33694 0.52383 0.18661 0.0
H125 H 0.18333 0.18807 0.18148 0.0
H126 H 0.12945 0.98776 0.19454 0.0
H127 H 0.25413 0.04737 0.2184 0.0
H128 H 0.31525 0.11414 0.23596 0.0
H129 H 0.37879 0.11334 0.29431 0.0
H130 H 0.25048 0.19365 0.28908 0.0
H131 H 0.11037 0.39844 0.29563 0.0
H132 H 0.23515 0.30548 0.28843 0.0
H133 H 0.17065 0.3964 0.23675 0.0
C134 C 0.71245 0.68566 0.2576 0.0
O135 O 0.70396 0.63873 0.27161 0.0
C136 C 0.67883 0.71387 0.24408 0.0
C137 C 0.63548 0.69429 0.24228 0.0
C138 C 0.6105 0.72577 0.22671 0.0
C139 C 0.62912 0.77496 0.21328 0.0
C140 C 0.67263 0.79204 0.21609 0.0
N141 N 0.69415 0.76179 0.23133 0.0
N142 N 0.74911 0.85369 0.25147 0.0
Co143 Co 0.75262 0.77743 0.23215 0.0
N144 N 0.81116 0.79303 0.23246 0.0
C145 C 0.86816 0.86644 0.242 0.0
C146 C 0.89496 0.82908 0.2284 0.0
C147 C 0.87807 0.77401 0.21657 0.0
C148 C 0.83445 0.75708 0.21901 0.0
C149 C 0.82481 0.84663 0.24354 0.0
N150 N 0.76558 0.70377 0.21292 0.0
N151 N 0.75335 0.71064 0.25436 0.0
N152 N 0.74251 0.8417 0.20983 0.0
C153 C 0.78958 0.88029 0.25483 0.0
O154 O 0.79633 0.9335 0.26696 0.0
C155 C 0.7001 0.83889 0.20397 0.0
O156 O 0.68418 0.88028 0.18989 0.0
C157 C 0.77031 0.89821 0.20438 0.0
C158 C 0.78774 0.02131 0.20531 0.0
C159 C 0.76195 0.96548 0.21163 0.0
C160 C 0.80457 0.88696 0.19093 0.0
C161 C 0.83112 0.9421 0.18478 0.0
C162 C 0.82262 1.00897 0.19219 0.0
C163 C 0.80857 0.70488 0.20808 0.0
O164 O 0.82614 0.65845 0.19598 0.0
C165 C 0.73811 0.64606 0.20822 0.0
C166 C 0.70596 0.65369 0.19349 0.0
C167 C 0.68036 0.59714 0.18762 0.0
C168 C 0.68738 0.53246 0.19686 0.0
C169 C 0.71997 0.52331 0.21158 0.0
C170 C 0.74521 0.5809 0.21727 0.0
C171 C 0.78883 0.69491 0.26762 0.0
C172 C 0.82562 0.66058 0.26021 0.0
C173 C 0.85938 0.64245 0.27352 0.0
C174 C 0.85595 0.65998 0.29425 0.0
C175 C 0.81862 0.69148 0.30183 0.0
C176 C 0.78507 0.70847 0.28856 0.0
C177 C 0.71225 0.87525 0.26306 0.0
C178 C 0.64386 0.92574 0.28654 0.0
C179 C 0.67953 0.89571 0.29628 0.0
C180 C 0.71364 0.87067 0.28442 0.0
C181 C 0.67662 0.90662 0.2535 0.0
C182 C 0.64232 0.93228 0.26524 0.0
H183 H 0.6216 0.65534 0.25221 0.0
H184 H 0.57696 0.71136 0.22486 0.0
H185 H 0.61029 0.79812 0.20114 0.0
H186 H 0.88069 0.90995 0.25058 0.0
H187 H 0.92853 0.84357 0.22676 0.0
H188 H 0.89827 0.74641 0.20582 0.0
H189 H 0.73452 0.97468 0.22148 0.0
H190 H 0.8097 0.83551 0.18482 0.0
H191 H 0.84167 0.0525 0.18682 0.0
H192 H 0.70201 0.70343 0.1861 0.0
H193 H 0.66957 0.48781 0.1914 0.0
H194 H 0.77077 0.57503 0.2284 0.0
H195 H 0.82707 0.64479 0.24443 0.0
H196 H 0.88182 0.64704 0.30476 0.0
H197 H 0.75573 0.73104 0.29453 0.0
H198 H 0.61657 0.94296 0.29557 0.0
H199 H 0.74184 0.84897 0.29179 0.0
H200 H 0.67618 0.91379 0.23717 0.0
C201 C 0.03137 0.37418 0.50577 0.0
O202 O 0.03985 0.32073 0.51758 0.0
C203 C 0.06487 0.40863 0.49349 0.0
C204 C 0.10764 0.38837 0.4901 0.0
C205 C 0.13219 0.42652 0.47572 0.0
C206 C 0.11367 0.4828 0.46496 0.0
C207 C 0.07077 0.50014 0.46925 0.0
N208 N 0.04974 0.46351 0.4834 0.0
N209 N 0.99556 0.5439 0.50812 0.0
Co210 Co 0.99138 0.47931 0.48528 0.0
N211 N 0.93301 0.49507 0.4866 0.0
C212 C 0.87566 0.55756 0.50101 0.0
C213 C 0.84802 0.52574 0.48656 0.0
C214 C 0.86459 0.47892 0.4719 0.0
C215 C 0.90892 0.465 0.47224 0.0
C216 C 0.91957 0.54061 0.50047 0.0
N217 N 0.9777 0.41705 0.46285 0.0
N218 N 0.99063 0.40124 0.50395 0.0
N219 N 0.00141 0.55466 0.46625 0.0
C220 C 0.95515 0.56804 0.51294 0.0
O221 O 0.94868 0.61384 0.52748 0.0
C222 C 0.04336 0.55349 0.4597 0.0
O223 O 0.05891 0.60036 0.4471 0.0
C224 C 0.97291 0.6117 0.46237 0.0
C225 C 0.95451 0.73406 0.46628 0.0
C226 C 0.98017 0.67655 0.47157 0.0
C227 C 0.94025 0.60436 0.44784 0.0
C228 C 0.91476 0.66122 0.44212 0.0
C229 C 0.9217 0.72537 0.45166 0.0
C230 C 0.93434 0.41976 0.45874 0.0
O231 O 0.91605 0.37898 0.44518 0.0
C232 C 0.00389 0.35994 0.45624 0.0
C233 C 0.03563 0.37036 0.44137 0.0
C234 C 0.05872 0.314 0.43322 0.0
C235 C 0.0495 0.24693 0.44047 0.0
C236 C 0.01794 0.23574 0.45546 0.0
C237 C 0.99542 0.2926 0.46342 0.0
C238 C 0.95587 0.38121 0.51706 0.0
C239 C 0.91827 0.35083 0.50915 0.0
C240 C 0.88483 0.33039 0.52228 0.0
C241 C 0.89044 0.33852 0.54344 0.0
C242 C 0.92744 0.37053 0.55152 0.0
C243 C 0.96031 0.39051 0.53811 0.0
C244 C 0.03287 0.55931 0.52034 0.0
C245 C 0.10363 0.5945 0.54481 0.0
C246 C 0.06704 0.565 0.55374 0.0
C247 C 0.03151 0.54827 0.54159 0.0
C248 C 0.0692 0.59153 0.51166 0.0
C249 C 0.10467 0.60952 0.52389 0.0
H250 H 0.1213 0.34389 0.49783 0.0
H251 H 0.16525 0.41173 0.47266 0.0
H252 H 0.13208 0.51102 0.45363 0.0
H253 H 0.86318 0.59429 0.512 0.0
H254 H 0.81391 0.53785 0.4866 0.0
H255 H 0.84361 0.45515 0.46069 0.0
H256 H 0.00635 0.6823 0.48241 0.0
H257 H 0.93622 0.55491 0.4403 0.0
H258 H 0.90395 0.77036 0.44639 0.0
H259 H 0.0412 0.42239 0.4358 0.0
H260 H 0.06554 0.20242 0.43385 0.0
H261 H 0.97016 0.28425 0.47456 0.0
H262 H 0.9151 0.34282 0.49292 0.0
H263 H 0.86582 0.31916 0.55372 0.0
H264 H 0.98952 0.414 0.54385 0.0
H265 H 0.13106 0.60771 0.55437 0.0
H266 H 0.00267 0.52781 0.54869 0.0
H267 H 0.06907 0.60621 0.49577 0.0
C268 C 0.22665 0.67997 0.75161 0.0
O269 O 0.21654 0.6268 0.76324 0.0
C270 C 0.19496 0.71302 0.73796 0.0
C271 C 0.15239 0.69326 0.73377 0.0
C272 C 0.12961 0.73051 0.71855 0.0
C273 C 0.14957 0.7857 0.70784 0.0
C274 C 0.19218 0.80255 0.71293 0.0
N275 N 0.21161 0.76626 0.72766 0.0
N276 N 0.26129 0.84977 0.75314 0.0
Co277 Co 0.26946 0.78278 0.73129 0.0
N278 N 0.32732 0.79973 0.73439 0.0
C279 C 0.3819 0.86528 0.75 0.0
C280 C 0.4118 0.83259 0.73679 0.0
C281 C 0.39773 0.78395 0.72203 0.0
C282 C 0.35353 0.76929 0.72097 0.0
C283 C 0.33831 0.84717 0.74821 0.0
N284 N 0.28658 0.7182 0.70994 0.0
N285 N 0.26771 0.70677 0.75089 0.0
N286 N 0.26208 0.85611 0.71126 0.0
C287 C 0.30069 0.87516 0.75916 0.0
O288 O 0.30463 0.92113 0.77386 0.0
C289 C 0.2208 0.85518 0.7038 0.0
O290 O 0.20691 0.90122 0.69053 0.0
C291 C 0.2917 0.91206 0.7077 0.0
C292 C 0.31263 0.03279 0.71171 0.0
C293 C 0.28421 0.97801 0.71604 0.0
C294 C 0.3267 0.90195 0.69462 0.0
C295 C 0.35627 0.9557 0.69057 0.0
C296 C 0.34949 0.02045 0.69983 0.0
C297 C 0.33036 0.72198 0.70707 0.0
O298 O 0.35088 0.67959 0.69473 0.0
C299 C 0.26203 0.65791 0.70431 0.0
C300 C 0.22805 0.66361 0.69032 0.0
C301 C 0.20218 0.60585 0.68569 0.0
C302 C 0.2113 0.54199 0.69505 0.0
C303 C 0.24592 0.53483 0.70873 0.0
C304 C 0.27125 0.59322 0.71323 0.0
C305 C 0.301 0.68578 0.76491 0.0
C306 C 0.34053 0.65887 0.75789 0.0
C307 C 0.37236 0.6367 0.77174 0.0
C308 C 0.36306 0.63868 0.79271 0.0
C309 C 0.32352 0.66413 0.79988 0.0
C310 C 0.29279 0.68799 0.78595 0.0
C311 C 0.22241 0.86135 0.76458 0.0
C312 C 0.14781 0.88465 0.78759 0.0
C313 C 0.18436 0.85667 0.79698 0.0
C314 C 0.22172 0.84573 0.78553 0.0
C315 C 0.18597 0.8922 0.75543 0.0
C316 C 0.14853 0.90447 0.767 0.0
H317 H 0.13753 0.64995 0.74159 0.0
H318 H 0.09675 0.71608 0.71486 0.0
H319 H 0.13243 0.8135 0.69599 0.0
H320 H 0.39249 0.9035 0.761 0.0
H321 H 0.44573 0.84545 0.73784 0.0
H322 H 0.42047 0.75946 0.71179 0.0
H323 H 0.25542 0.98719 0.72504 0.0
H324 H 0.32919 0.85278 0.6868 0.0
H325 H 0.37129 0.06317 0.69682 0.0
H326 H 0.22195 0.71301 0.68303 0.0
H327 H 0.19293 0.49651 0.69069 0.0
H328 H 0.2978 0.58851 0.72383 0.0
H329 H 0.3465 0.65415 0.7418 0.0
H330 H 0.38682 0.62058 0.80364 0.0
H331 H 0.26205 0.70695 0.79146 0.0
H332 H 0.11901 0.89357 0.79666 0.0
H333 H 0.25036 0.82574 0.79293 0.0
H334 H 0.1874 0.90963 0.73976 0.0
C335 C 0.72141 0.18724 0.7502 0.0
O336 O 0.71067 0.13573 0.76235 0.0
C337 C 0.68903 0.22603 0.73834 0.0
C338 C 0.64438 0.21566 0.73709 0.0
C339 C 0.62047 0.25874 0.7237 0.0
C340 C 0.64134 0.31012 0.7118 0.0
C341 C 0.68615 0.31696 0.71374 0.0
N342 N 0.70659 0.27605 0.72703 0.0
N343 N 0.76538 0.35065 0.7507 0.0
Co344 Co 0.76548 0.28439 0.72817 0.0
N345 N 0.82434 0.29266 0.72887 0.0
C346 C 0.88537 0.34695 0.74282 0.0
C347 C 0.91073 0.30978 0.72857 0.0
C348 C 0.89116 0.26458 0.71428 0.0
C349 C 0.84619 0.25793 0.71466 0.0
C350 C 0.84064 0.33687 0.74246 0.0
N351 N 0.77468 0.21873 0.7059 0.0
N352 N 0.76354 0.20728 0.74741 0.0
N353 N 0.75814 0.36092 0.7089 0.0
C354 C 0.80707 0.3698 0.75502 0.0
O355 O 0.81653 0.41411 0.7696 0.0
C356 C 0.71552 0.3661 0.70348 0.0
O357 O 0.70121 0.4159 0.69155 0.0
C358 C 0.78878 0.41617 0.70566 0.0
C359 C 0.81244 0.53652 0.71063 0.0
C360 C 0.7814 0.48338 0.71336 0.0
C361 C 0.82527 0.40396 0.69375 0.0
C362 C 0.85761 0.45466 0.69153 0.0
C363 C 0.8522 0.51834 0.70158 0.0
C364 C 0.81791 0.21578 0.70145 0.0
O365 O 0.83358 0.17177 0.68805 0.0
C366 C 0.74556 0.16283 0.70088 0.0
C367 C 0.70882 0.17576 0.68906 0.0
C368 C 0.67935 0.12237 0.6847 0.0
C369 C 0.68689 0.05581 0.69272 0.0
C370 C 0.72516 0.03996 0.70333 0.0
C371 C 0.75418 0.09453 0.70741 0.0
C372 C 0.79831 0.17862 0.75932 0.0
C373 C 0.83181 0.14048 0.75014 0.0
C374 C 0.86215 0.10514 0.76219 0.0
C375 C 0.85923 0.10946 0.7835 0.0
C376 C 0.8272 0.14959 0.79292 0.0
C377 C 0.79641 0.18293 0.78066 0.0
C378 C 0.72986 0.36576 0.76414 0.0
C379 C 0.65966 0.3872 0.79023 0.0
C380 C 0.69852 0.36173 0.79812 0.0
C381 C 0.73349 0.35089 0.78509 0.0
C382 C 0.69166 0.39612 0.75668 0.0
C383 C 0.65562 0.40449 0.7695 0.0
H384 H 0.62856 0.17567 0.74595 0.0
H385 H 0.58589 0.25202 0.72245 0.0
H386 H 0.62314 0.34287 0.7015 0.0
H387 H 0.90021 0.38222 0.75358 0.0
H388 H 0.94543 0.31628 0.72851 0.0
H389 H 0.91049 0.23642 0.7033 0.0
H390 H 0.75095 0.49381 0.72081 0.0
H391 H 0.82701 0.35549 0.68555 0.0
H392 H 0.87831 0.55547 0.70122 0.0
H393 H 0.70387 0.22708 0.68283 0.0
H394 H 0.66386 1.01509 0.68956 0.0
H395 H 0.78411 0.08379 0.71515 0.0
H396 H 0.83377 0.13579 0.73383 0.0
H397 H 0.88271 0.08221 0.79278 0.0
H398 H 0.77072 0.21247 0.78761 0.0
H399 H 0.63295 0.39636 0.80059 0.0
H400 H 0.76343 0.33085 0.79124 0.0
H401 H 0.69003 0.4136 0.74108 0.0
C402 C 0.53337 0.8739 0.50563 0.0
O403 O 0.54229 0.82352 0.51849 0.0
C404 C 0.56662 0.90617 0.49273 0.0
C405 C 0.61026 0.88882 0.49066 0.0
C406 C 0.63495 0.9254 0.47598 0.0
C407 C 0.61574 0.97719 0.46363 0.0
C408 C 0.57184 0.99119 0.46651 0.0
N409 N 0.55072 0.95661 0.48105 0.0
N410 N 0.49607 0.04218 0.50399 0.0
Co411 Co 0.49227 0.97182 0.48263 0.0
N412 N 0.43376 0.98682 0.48361 0.0
C413 C 0.37655 0.05534 0.49557 0.0
C414 C 0.34931 0.02054 0.48155 0.0
C415 C 0.36607 0.96938 0.46827 0.0
C416 C 0.41008 0.95379 0.46965 0.0
C417 C 0.42022 0.03686 0.49605 0.0
N418 N 0.479 0.9039 0.46169 0.0
N419 N 0.49228 0.89887 0.50303 0.0
N420 N 0.50175 0.04233 0.46193 0.0
C421 C 0.45559 0.06775 0.50795 0.0
O422 O 0.44882 0.11717 0.52139 0.0
C423 C 0.54401 0.04123 0.45576 0.0
O424 O 0.55954 0.08639 0.44263 0.0
C425 C 0.47383 0.09969 0.45748 0.0
C426 C 0.45817 0.22327 0.46006 0.0
C427 C 0.48189 0.16485 0.46626 0.0
C428 C 0.44173 0.09263 0.4426 0.0
C429 C 0.41841 0.1507 0.43569 0.0
C430 C 0.42681 0.21549 0.44471 0.0
C431 C 0.43581 0.9054 0.45727 0.0
O432 O 0.41804 0.86223 0.44421 0.0
C433 C 0.50675 0.84863 0.45523 0.0
C434 C 0.5376 0.86128 0.44016 0.0
C435 C 0.56303 0.80721 0.43268 0.0
C436 C 0.55705 0.7398 0.43998 0.0
C437 C 0.52532 0.72563 0.4547 0.0
C438 C 0.50071 0.78066 0.46259 0.0
C439 C 0.45701 0.877 0.51557 0.0
C440 C 0.42268 0.83888 0.5073 0.0
C441 C 0.39119 0.81036 0.52014 0.0
C442 C 0.39427 0.82073 0.54129 0.0
C443 C 0.42776 0.86062 0.54974 0.0
C444 C 0.45926 0.88789 0.53665 0.0
C445 C 0.53258 0.05676 0.51686 0.0
C446 C 0.60372 0.08234 0.54207 0.0
C447 C 0.56427 0.06308 0.5508 0.0
C448 C 0.5288 0.05012 0.53818 0.0
C449 C 0.57153 0.08065 0.50845 0.0
C450 C 0.60785 0.09139 0.52088 0.0
H451 H 0.62465 0.8481 0.49977 0.0
H452 H 0.66876 0.91304 0.47399 0.0
H453 H 0.63441 1.00453 0.45221 0.0
H454 H 0.36401 0.09574 0.50536 0.0
H455 H 0.31542 0.03392 0.48077 0.0
H456 H 0.34547 0.94367 0.45727 0.0
H457 H 0.50732 0.17 0.47752 0.0
H458 H 0.43656 0.04216 0.43584 0.0
H459 H 0.41122 0.26144 0.43873 0.0
H460 H 0.54027 0.9125 0.4335 0.0
H461 H 0.57566 0.69777 0.4334 0.0
H462 H 0.47558 0.77017 0.47363 0.0
H463 H 0.42121 0.82886 0.49112 0.0
H464 H 0.37005 0.79792 0.55116 0.0
H465 H 0.48596 0.91749 0.5427 0.0
H466 H 0.63076 0.09393 0.55203 0.0
H467 H 0.49829 0.03539 0.54497 0.0
H468 H 0.57335 0.09223 0.49239 0.0
C469 C 0.54084 0.44317 0.00211 0.0
O470 O 0.54773 0.38867 0.01374 0.0
C471 C 0.57604 0.47772 -0.00897 0.0
C472 C 0.61983 0.46011 0.99016 0.0
C473 C 0.64704 0.50003 0.97736 0.0
C474 C 0.63016 0.55542 0.96563 0.0
C475 C 0.58598 0.56948 0.96719 0.0
N476 N 0.56231 0.53136 0.98 0.0
N477 N 0.50536 0.61304 0.00253 0.0
Co478 Co 0.50387 0.54785 0.98001 0.0
N479 N 0.44554 0.56482 0.97938 0.0
C480 C 0.38745 0.63216 -0.00903 0.0
C481 C 0.362 0.60207 0.97533 0.0
C482 C 0.38014 0.55386 0.96149 0.0
C483 C 0.42375 0.53672 0.96388 0.0
C484 C 0.43072 0.61195 -0.00753 0.0
N485 N 0.49305 0.48536 0.95739 0.0
N486 N 0.5003 0.47025 -0.00087 0.0
N487 N 0.51714 0.62274 0.96117 0.0
C488 C 0.46472 0.63844 0.00608 0.0
O489 O 0.45669 0.68335 0.02068 0.0
C490 C 0.56025 0.62256 0.95657 0.0
O491 O 0.57798 0.67041 0.94497 0.0
C492 C 0.48949 0.68019 0.95655 0.0
C493 C 0.46943 0.80195 0.96075 0.0
C494 C 0.49542 0.74477 0.96615 0.0
C495 C 0.45818 0.67305 0.94141 0.0
C496 C 0.43154 0.72873 0.93628 0.0
C497 C 0.43691 0.79266 0.94598 0.0
C498 C 0.45071 0.48996 0.95148 0.0
O499 O 0.43424 0.44956 0.93732 0.0
C500 C 0.51981 0.42753 0.95208 0.0
C501 C 0.55492 0.43724 0.93898 0.0
C502 C 0.58053 0.38078 0.93299 0.0
C503 C 0.57041 0.31435 0.94036 0.0
C504 C 0.53499 0.30376 0.95331 0.0
C505 C 0.50993 0.36072 0.95932 0.0
C506 C 0.46387 0.44909 0.01124 0.0
C507 C 0.42528 0.42712 0.00197 0.0
C508 C 0.39007 0.40564 0.01389 0.0
C509 C 0.39548 0.40013 0.03512 0.0
C510 C 0.43438 0.41881 0.0445 0.0
C511 C 0.46802 0.4451 0.0326 0.0
C512 C 0.54068 0.62368 0.01625 0.0
C513 C 0.60965 0.6414 0.04319 0.0
C514 C 0.57085 0.61251 0.05014 0.0
C515 C 0.53641 0.60404 0.03671 0.0
C516 C 0.57905 0.65488 0.00948 0.0
C517 C 0.61435 0.66291 0.02279 0.0
H518 H 0.63252 0.41689 -0.00118 0.0
H519 H 0.68104 0.4876 0.97636 0.0
H520 H 0.6508 0.58546 0.95564 0.0
H521 H 0.37394 0.67043 0.0012 0.0
H522 H 0.32848 0.61689 0.97374 0.0
H523 H 0.36096 0.53178 0.94931 0.0
H524 H 0.52075 0.75054 0.97744 0.0
H525 H 0.45567 0.62481 0.93305 0.0
H526 H 0.41784 0.8364 0.9408 0.0
H527 H 0.56147 0.48858 0.93306 0.0
H528 H 0.58877 0.26987 0.93518 0.0
H529 H 0.48204 0.35296 0.96903 0.0
H530 H 0.42281 0.42529 0.98561 0.0
H531 H 0.36928 0.38074 0.04451 0.0
H532 H 0.498 0.46008 0.03988 0.0
H533 H 0.63554 0.64957 0.05408 0.0
H534 H 0.50627 0.58237 0.04216 0.0
H535 H 0.58112 0.67344 -0.00601 0.0
C536 C 0.03782 0.15205 0.07689 0.0
C537 C 0.07549 0.14782 0.06496 0.0
C538 C 0.0393 0.14265 0.09815 0.0
C539 C 0.07953 0.13122 0.10779 0.0
C540 C 0.11767 0.12817 0.09594 0.0
C541 C 0.11497 0.13428 0.07472 0.0
C542 C 0.99771 0.14214 0.11008 0.0
C543 C 0.16159 0.11797 0.10561 0.0
C544 C 0.10771 0.16502 0.16273 0.0
C545 C 0.12012 0.09812 0.16888 0.0
C546 C 0.09014 0.17677 0.14329 0.0
C547 C 0.08276 0.11982 0.13015 0.0
C548 C 0.08833 0.05161 0.13756 0.0
C549 C 0.10772 0.0415 0.15666 0.0
C550 C 0.08491 0.25052 0.13599 0.0
C551 C 0.0789 0.98917 0.12439 0.0
H552 H 0.00704 0.16295 0.06973 0.0
H553 H 0.14415 0.12796 0.06582 0.0
H554 H 0.99015 0.08786 0.1142 0.0
H555 H 0.00073 0.17168 0.12453 0.0
H556 H 0.97025 0.16328 0.10111 0.0
H557 H 0.18831 0.1255 0.09451 0.0
H558 H 0.16622 0.15483 0.11843 0.0
H559 H 0.16407 0.06477 0.11192 0.0
H560 H 0.11495 0.2091 0.17235 0.0
H561 H 0.11644 0.98917 0.16095 0.0
H562 H 0.05511 0.2567 0.12679 0.0
H563 H 0.11269 0.26417 0.12605 0.0
H564 H 0.084 0.28777 0.14891 0.0
H565 H 0.05118 0.99873 0.11402 0.0
H566 H 0.07183 0.9428 0.13389 0.0
H567 H 0.10756 0.97732 0.11486 0.0
C568 C 0.96875 0.92461 0.08194 0.0
C569 C 0.94449 0.97299 0.07089 0.0
C570 C 0.96399 0.91919 0.10322 0.0
C571 C 0.934 0.96269 0.11328 0.0
C572 C 0.91396 0.01741 0.10239 0.0
C573 C 0.91933 0.02167 0.08122 0.0
C574 C 0.9873 0.8621 0.11442 0.0
C575 C 0.8832 0.06694 0.11269 0.0
C576 C 0.85238 0.89581 0.15078 0.0
C577 C 0.86355 0.93278 0.1684 0.0
C578 C 0.87787 0.89974 0.1332 0.0
C579 C 0.91533 0.94199 0.13324 0.0
C580 C 0.92924 0.97326 0.15165 0.0
C581 C 0.90301 0.96843 0.16905 0.0
C582 C 0.86222 0.86413 0.11402 0.0
C583 C 0.96972 0.01641 0.15277 0.0
H584 H 0.98838 0.88719 0.07381 0.0
H585 H 0.90103 0.05946 0.07252 0.0
H586 H 0.99491 0.87743 0.13035 0.0
H587 H 0.96635 0.81546 0.115 0.0
H588 H 0.01773 0.84782 0.1065 0.0
H589 H 0.8752 0.11192 0.10278 0.0
H590 H 0.85278 0.03936 0.1165 0.0
H591 H 0.89732 0.08651 0.12715 0.0
H592 H 0.82192 0.86821 0.15014 0.0
H593 H 0.9123 0.99568 0.18285 0.0
H594 H 0.88897 0.83532 0.10665 0.0
H595 H 0.85055 0.90357 0.10296 0.0
H596 H 0.83541 0.82731 0.11713 0.0
H597 H 0.99387 0.9997 0.14135 0.0
H598 H 0.98448 1.01337 0.16822 0.0
H599 H 0.96145 0.07147 0.14984 0.0
C600 C 0.12411 0.27859 0.41289 0.0
C601 C 0.08872 0.32328 0.41563 0.0
C602 C 0.14724 0.27758 0.39448 0.0
C603 C 0.13574 0.32419 0.37872 0.0
C604 C 0.1029 0.37388 0.38212 0.0
C605 C 0.07938 0.37212 0.40036 0.0
C606 C 0.18134 0.22265 0.39161 0.0
C607 C 0.09024 0.42564 0.36584 0.0
C608 C 0.1975 0.36133 0.33015 0.0
C609 C 0.17082 0.32824 0.31593 0.0
C610 C 0.18899 0.35552 0.35115 0.0
C611 C 0.15307 0.31597 0.35774 0.0
C612 C 0.12917 0.27657 0.34344 0.0
C613 C 0.1381 0.28376 0.32262 0.0
C614 C 0.21619 0.39574 0.36613 0.0
C615 C 0.09191 0.23121 0.34998 0.0
H616 H 0.13266 0.24196 0.42478 0.0
H617 H 0.05202 0.40655 0.402 0.0
H618 H 0.16529 0.17243 0.38832 0.0
H619 H 0.20364 0.23444 0.37885 0.0
H620 H 0.20039 0.21586 0.40585 0.0
H621 H 0.06801 0.46603 0.37178 0.0
H622 H 0.11932 0.4515 0.35951 0.0
H623 H 0.07389 0.39827 0.3531 0.0
H624 H 0.223 0.39535 0.32482 0.0
H625 H 0.11796 0.25763 0.31146 0.0
H626 H 0.2244 0.36301 0.37953 0.0
H627 H 0.19752 0.44089 0.37179 0.0
H628 H 0.24653 0.41496 0.35907 0.0
H629 H 0.10154 0.19808 0.36307 0.0
H630 H 0.08035 0.1974 0.33738 0.0
H631 H 0.06464 0.26426 0.35506 0.0
C632 C 0.78966 0.65297 0.33517 0.0
C633 C 0.81414 0.70058 0.32395 0.0
C634 C 0.79446 0.64814 0.35642 0.0
C635 C 0.82456 0.69176 0.36635 0.0
C636 C 0.84556 0.74509 0.35524 0.0
C637 C 0.84042 0.74836 0.33403 0.0
C638 C 0.77066 0.59199 0.36783 0.0
C639 C 0.87698 0.79399 0.3654 0.0
C640 C 0.84752 0.69566 0.42318 0.0
C641 C 0.88604 0.65736 0.424 0.0
C642 C 0.82527 0.70456 0.40468 0.0
C643 C 0.84147 0.67291 0.38679 0.0
C644 C 0.87812 0.62922 0.38793 0.0
C645 C 0.90013 0.62247 0.40646 0.0
C646 C 0.78571 0.75011 0.40415 0.0
C647 C 0.89626 0.59381 0.36922 0.0
H648 H 0.7693 0.61617 0.32717 0.0
H649 H 0.85914 0.78517 0.32517 0.0
H650 H 0.79307 0.54845 0.37103 0.0
H651 H 0.75867 0.61159 0.38269 0.0
H652 H 0.7429 0.57168 0.35889 0.0
H653 H 0.88539 0.83851 0.35539 0.0
H654 H 0.86335 0.81419 0.37989 0.0
H655 H 0.90712 0.76563 0.36918 0.0
H656 H 0.83587 0.72129 0.43683 0.0
H657 H 0.93005 0.59344 0.40679 0.0
H658 H 0.75669 0.71752 0.40167 0.0
H659 H 0.78759 0.78762 0.39132 0.0
H660 H 0.78133 0.77931 0.41861 0.0
H661 H 0.87039 0.56573 0.36091 0.0
H662 H 0.92225 0.55636 0.37309 0.0
H663 H 0.90977 0.63328 0.35866 0.0
C664 C 0.09492 0.50941 0.58505 0.0
C665 C 0.0664 0.55647 0.57605 0.0
C666 C 0.10637 0.51577 0.60564 0.0
C667 C 0.08928 0.57124 0.61726 0.0
C668 C 0.05656 0.61374 0.60881 0.0
C669 C 0.04547 0.60586 0.58815 0.0
C670 C 0.14012 0.46757 0.61429 0.0
C671 C 0.03674 0.67226 0.62082 0.0
C672 C 0.12945 0.57252 0.67189 0.0
C673 C 0.16832 0.60935 0.66967 0.0
C674 C 0.10121 0.56369 0.65532 0.0
C675 C 0.11221 0.59258 0.63616 0.0
C676 C 0.14937 0.63509 0.63437 0.0
C677 C 0.17704 0.64277 0.65113 0.0
C678 C 0.0615 0.5193 0.65805 0.0
C679 C 0.16186 0.66809 0.61427 0.0
H680 H 0.11087 0.47116 0.57555 0.0
H681 H 0.02345 0.64231 0.58104 0.0
H682 H 0.17125 0.49569 0.61573 0.0
H683 H 0.13065 0.44966 0.62975 0.0
H684 H 0.14524 0.42151 0.60441 0.0
H685 H 0.00513 0.68813 0.6143 0.0
H686 H 0.03211 0.6576 0.63706 0.0
H687 H 0.05872 0.71769 0.62038 0.0
H688 H 0.12204 0.54794 0.68637 0.0
H689 H 0.20698 0.67116 0.64925 0.0
H690 H 0.06868 0.4658 0.65288 0.0
H691 H 0.03411 0.53903 0.64883 0.0
H692 H 0.05145 0.51677 0.67432 0.0
H693 H 0.17179 0.6272 0.60333 0.0
H694 H 0.189 0.70533 0.61598 0.0
H695 H 0.13391 0.6958 0.60752 0.0
C696 C 0.9058 0.37854 0.6702 0.0
C697 C 0.89271 0.44528 0.67606 0.0
C698 C 0.92582 0.36702 0.65136 0.0
C699 C 0.93421 0.42406 0.6384 0.0
C700 C 0.92924 0.4921 0.64596 0.0
C701 C 0.90764 0.50213 0.66452 0.0
C702 C 0.93146 0.2933 0.64414 0.0
C703 C 0.94071 0.55451 0.63315 0.0
C704 C 0.97026 0.38437 0.58415 0.0
C705 C 0.93049 0.38557 0.57376 0.0
C706 C 0.97259 0.39883 0.60515 0.0
C707 C 0.93417 0.41286 0.61603 0.0
C708 C 0.8941 0.41466 0.60559 0.0
C709 C 0.89299 0.40265 0.5846 0.0
C710 C 0.01608 0.40073 0.61551 0.0
C711 C 0.85203 0.42895 0.61656 0.0
H712 H 0.89666 0.33428 0.67927 0.0
H713 H 0.89895 0.55455 0.66869 0.0
H714 H 0.90356 0.27896 0.63436 0.0
H715 H 0.96118 0.28753 0.63488 0.0
H716 H 0.93282 0.25634 0.65715 0.0
H717 H 0.94878 0.59968 0.64295 0.0
H718 H 0.9684 0.5436 0.62291 0.0
H719 H 0.9126 0.56891 0.62352 0.0
H720 H 0.9996 0.37158 0.57599 0.0
H721 H 0.86238 0.40692 0.57668 0.0
H722 H 0.01545 0.3724 0.63025 0.0
H723 H 0.0243 0.45535 0.61895 0.0
H724 H 0.04202 0.3788 0.60575 0.0
H725 H 0.848 0.39271 0.62959 0.0
H726 H 0.82353 0.42357 0.60638 0.0
H727 H 0.85224 0.4824 0.62278 0.0
C728 C 0.1529 0.79905 0.82726 0.0
C729 C 0.18331 0.84501 0.81917 0.0
C730 C 0.14156 0.80206 0.84792 0.0
C731 C 0.16078 0.853 0.86058 0.0
C732 C 0.19473 0.89466 0.85289 0.0
C733 C 0.20569 0.89009 0.83214 0.0
C734 C 0.10574 0.75574 0.85559 0.0
C735 C 0.21639 0.9488 0.86598 0.0
C736 C 0.0782 0.92245 0.89758 0.0
C737 C 0.08714 0.88343 0.91513 0.0
C738 C 0.1041 0.91672 0.88015 0.0
C739 C 0.13967 0.87054 0.88025 0.0
C740 C 0.15084 0.83511 0.8984 0.0
C741 C 0.12444 0.84213 0.91569 0.0
C742 C 0.0913 0.95607 0.86112 0.0
C743 C 0.1888 0.78625 0.89917 0.0
H744 H 0.13573 0.7643 0.81708 0.0
H745 H 0.22912 0.92577 0.82572 0.0
H746 H 0.11415 0.73338 0.87069 0.0
H747 H 0.07587 0.78679 0.85755 0.0
H748 H 0.09872 0.7127 0.84483 0.0
H749 H 0.24691 0.96768 0.85901 0.0
H750 H 0.19434 0.99364 0.86788 0.0
H751 H 0.2235 0.92803 0.88142 0.0
H752 H 0.04931 0.95404 0.89695 0.0
H753 H 0.13193 0.81288 0.92938 0.0
H754 H 0.07904 0.9192 0.84947 0.0
H755 H 0.11968 0.98297 0.85448 0.0
H756 H 0.06574 0.99508 0.86418 0.0
H757 H 0.1811 0.73865 0.89039 0.0
H758 H 0.19701 0.771 0.91507 0.0
H759 H 0.21758 0.81024 0.892 0.0
C760 C 0.86673 0.16406 0.82586 0.0
C761 C 0.82729 0.15846 0.81546 0.0
C762 C 0.86817 0.17257 0.84701 0.0
C763 C 0.82913 0.17832 0.85812 0.0
C764 C 0.78911 0.17277 0.84783 0.0
C765 C 0.78863 0.16252 0.8266 0.0
C766 C 0.91175 0.17687 0.85739 0.0
C767 C 0.74691 0.18065 0.85899 0.0
C768 C 0.8545 0.15222 0.91357 0.0
C769 C 0.87029 0.21847 0.91846 0.0
C770 C 0.83599 0.13891 0.89443 0.0
C771 C 0.83154 0.19382 0.88027 0.0
C772 C 0.84038 0.26252 0.88647 0.0
C773 C 0.86055 0.27398 0.90531 0.0
C774 C 0.82659 0.06483 0.88854 0.0
C775 C 0.83382 0.32309 0.87218 0.0
H776 H 0.8968 0.16308 0.81741 0.0
H777 H 0.75794 0.1578 0.81876 0.0
H778 H 0.91683 0.22992 0.86345 0.0
H779 H 0.9132 0.14036 0.87047 0.0
H780 H 0.93875 0.16466 0.84682 0.0
H781 H 0.71912 0.16181 0.84981 0.0
H782 H 0.74736 0.15297 0.87384 0.0
H783 H 0.74196 0.2363 0.86223 0.0
H784 H 0.85976 0.10941 0.924 0.0
H785 H 0.87191 0.32576 0.90871 0.0
H786 H 0.85409 0.04443 0.8795 0.0
H787 H 0.79723 0.06124 0.8789 0.0
H788 H 0.82237 0.03123 0.90218 0.0
H789 H 0.862 0.32735 0.8618 0.0
H790 H 0.83085 0.37257 0.88073 0.0
H791 H 0.80453 0.3159 0.86265 0.0
C792 C 0.60558 0.09554 0.67065 0.0
C793 C 0.64485 0.13173 0.6691 0.0
C794 C 0.57903 0.08603 0.65348 0.0
C795 C 0.5919 0.11427 0.63449 0.0
C796 C 0.62822 0.15888 0.6336 0.0
C797 C 0.65442 0.16667 0.65088 0.0
C798 C 0.53983 0.04011 0.65541 0.0
C799 C 0.64234 0.19215 0.6138 0.0
C800 C 0.58915 0.0199 0.58444 0.0
C801 C 0.5607 0.06141 0.57326 0.0
C802 C 0.59588 0.03174 0.60528 0.0
C803 C 0.57402 0.08714 0.615 0.0
C804 C 0.54154 0.12384 0.6043 0.0
C805 C 0.53521 0.11047 0.58341 0.0
C806 C 0.62934 0.98902 0.61638 0.0
C807 C 0.51661 0.18181 0.61422 0.0
H808 H 0.59709 0.07038 0.6849 0.0
H809 H 0.68447 0.19504 0.64943 0.0
H810 H 0.51443 0.05456 0.64429 0.0
H811 H 0.54939 0.98563 0.65246 0.0
H812 H 0.52609 0.04258 0.67106 0.0
H813 H 0.66707 0.23302 0.61628 0.0
H814 H 0.65633 0.15203 0.60363 0.0
H815 H 0.61436 0.21551 0.60577 0.0
H816 H 0.60836 0.98135 0.57654 0.0
H817 H 0.51306 0.14241 0.57469 0.0
H818 H 0.61683 0.97203 0.63144 0.0
H819 H 0.65855 0.02104 0.61912 0.0
H820 H 0.63897 0.94244 0.60752 0.0
H821 H 0.51013 0.17059 0.63055 0.0
H822 H 0.48542 0.19104 0.60628 0.0
H823 H 0.53592 0.2302 0.61341 0.0
C824 C 0.46831 0.88133 0.58263 0.0
C825 C 0.42897 0.87493 0.57205 0.0
C826 C 0.46912 0.89639 0.60361 0.0
C827 C 0.42972 0.90341 0.61429 0.0
C828 C 0.39002 0.89582 0.60379 0.0
C829 C 0.39019 0.88334 0.5828 0.0
C830 C 0.51196 0.90739 0.61406 0.0
C831 C 0.34705 0.90185 0.61463 0.0
C832 C 0.40613 0.88098 0.66983 0.0
C833 C 0.38931 0.94692 0.6742 0.0
C834 C 0.42498 0.8669 0.65084 0.0
C835 C 0.42861 0.92083 0.63631 0.0
C836 C 0.41924 0.98973 0.64207 0.0
C837 C 0.39878 1.0019 0.66079 0.0
C838 C 0.43514 0.79268 0.64544 0.0
C839 C 0.42506 0.04942 0.6274 0.0
H840 H 0.49857 0.87457 0.5746 0.0
H841 H 0.35961 0.88114 0.57479 0.0
H842 H 0.51282 0.88192 0.62924 0.0
H843 H 0.5394 0.88811 0.60474 0.0
H844 H 0.51651 0.96365 0.61657 0.0
H845 H 0.31944 0.88801 0.60459 0.0
H846 H 0.34631 0.86744 0.62822 0.0
H847 H 0.34233 0.9558 0.62001 0.0
H848 H 0.40113 0.83874 0.68046 0.0
H849 H 0.38678 0.05355 0.66378 0.0
H850 H 0.46444 0.78923 0.63578 0.0
H851 H 0.40777 0.77073 0.63659 0.0
H852 H 0.43987 0.7603 0.6593 0.0
H853 H 0.4534 0.04133 0.61732 0.0
H854 H 0.42917 0.09918 0.63571 0.0
H855 H 0.39596 0.05388 0.61759 0.0
C856 C 0.60471 0.42756 0.8994 0.0
C857 C 0.61392 0.38861 0.91692 0.0
C858 C 0.63105 0.42329 0.8821 0.0
C859 C 0.6673 0.37849 0.88229 0.0
C860 C 0.67932 0.34478 0.90063 0.0
C861 C 0.65234 0.35016 0.91776 0.0
C862 C 0.61759 0.46173 0.86301 0.0
C863 C 0.71845 0.29855 0.90188 0.0
C864 C 0.67347 0.3036 0.82964 0.0
C865 C 0.70188 0.35009 0.82029 0.0
C866 C 0.66583 0.30685 0.85066 0.0
C867 C 0.68674 0.35854 0.86243 0.0
C868 C 0.71937 0.39987 0.85343 0.0
C869 C 0.72662 0.39513 0.8323 0.0
C870 C 0.6323 0.25941 0.85988 0.0
C871 C 0.74321 0.45418 0.86554 0.0
H872 H 0.5751 0.45734 0.89857 0.0
H873 H 0.66021 0.32134 0.9315 0.0
H874 H 0.6457 0.48833 0.85602 0.0
H875 H 0.60482 0.4243 0.85164 0.0
H876 H 0.59215 0.50089 0.86612 0.0
H877 H 0.73165 0.29718 0.91766 0.0
H878 H 0.70894 0.24493 0.89775 0.0
H879 H 0.74429 0.31572 0.89133 0.0
H880 H 0.65483 0.26827 0.82024 0.0
H881 H 0.74872 0.43093 0.82496 0.0
H882 H 0.6025 0.28937 0.86313 0.0
H883 H 0.64409 0.23757 0.87453 0.0
H884 H 0.62386 0.21595 0.84949 0.0
H885 H 0.72309 0.50163 0.86648 0.0
H886 H 0.77433 0.46813 0.85817 0.0
H887 H 0.74965 0.43622 0.88135 0.0
C888 C 0.35969 0.70928 0.91999 0.0
C889 C 0.40382 0.72336 0.91823 0.0
C890 C 0.33418 0.70036 0.90243 0.0
C891 C 0.35379 0.7052 0.88294 0.0
C892 C 0.39837 0.72112 0.8813 0.0
C893 C 0.4228 0.72998 0.89902 0.0
C894 C 0.28702 0.68295 0.90497 0.0
C895 C 0.42074 0.72671 0.86084 0.0
C896 C 0.32612 0.61287 0.83468 0.0
C897 C 0.31642 0.66947 0.8221 0.0
C898 C 0.33259 0.62205 0.85565 0.0
C899 C 0.32964 0.68948 0.86397 0.0
C900 C 0.31368 0.7446 0.85186 0.0
C901 C 0.30725 0.73395 0.83089 0.0
C902 C 0.34794 0.56145 0.86829 0.0
C903 C 0.30845 0.81646 0.86053 0.0
H904 H 0.34541 0.70391 0.93503 0.0
H905 H 0.45708 0.74094 0.89793 0.0
H906 H 0.27362 0.70804 0.91885 0.0
H907 H 0.26755 0.69884 0.89154 0.0
H908 H 0.28358 0.62608 0.90692 0.0
H909 H 0.45531 0.74129 0.86234 0.0
H910 H 0.41885 0.67637 0.8527 0.0
H911 H 0.40445 0.76608 0.85118 0.0
H912 H 0.33206 0.56257 0.82786 0.0
H913 H 0.29911 0.77754 0.82116 0.0
H914 H 0.33193 0.56125 0.88344 0.0
H915 H 0.38325 0.56615 0.87088 0.0
H916 H 0.34156 0.51116 0.86061 0.0
H917 H 0.29125 0.8142 0.87538 0.0
H918 H 0.29055 0.85111 0.84997 0.0
H919 H 0.34075 0.83946 0.86337 0.0
C920 C 0.59164 0.54062 0.07975 0.0
C921 C 0.56663 0.59443 0.07179 0.0
C922 C 0.59818 0.53499 0.10082 0.0
C923 C 0.58009 0.58557 0.11393 0.0
C924 C 0.55043 0.63456 0.10608 0.0
C925 C 0.544 0.6385 0.08492 0.0
C926 C 0.62864 0.48013 0.10873 0.0
C927 C 0.52937 0.68759 0.11971 0.0
C928 C 0.61122 0.56624 0.16967 0.0
C929 C 0.6504 0.60292 0.17001 0.0
C930 C 0.58638 0.56238 0.15176 0.0
C931 C 0.60072 0.59742 0.13403 0.0
C932 C 0.6386 0.63852 0.13476 0.0
C933 C 0.66313 0.64019 0.15266 0.0
C934 C 0.54564 0.51944 0.15171 0.0
C935 C 0.65494 0.67728 0.11622 0.0
H936 H 0.60861 0.50624 0.06941 0.0
H937 H 0.52434 0.6797 0.07855 0.0
H938 H 0.66035 0.50418 0.11224 0.0
H939 H 0.61603 0.4569 0.12305 0.0
H940 H 0.63383 0.43821 0.09738 0.0
H941 H 0.50152 0.71304 0.11208 0.0
H942 H 0.51811 0.66322 0.1341 0.0
H943 H 0.55335 0.72807 0.12379 0.0
H944 H 0.60069 0.5387 0.18322 0.0
H945 H 0.69359 0.66783 0.15261 0.0
H946 H 0.54305 0.48814 0.13756 0.0
H947 H 0.51728 0.55443 0.15227 0.0
H948 H 0.54401 0.48409 0.16509 0.0
H949 H 0.66526 0.63975 0.10435 0.0
H950 H 0.68278 0.71144 0.11987 0.0
H951 H 0.62886 0.70961 0.10957 0.0
C952 C 0.39 0.39754 0.16516 0.0
C953 C 0.34584 0.41191 0.16374 0.0
C954 C 0.41577 0.39563 0.14747 0.0
C955 C 0.39654 0.40874 0.12818 0.0
C956 C 0.35178 0.42347 0.12692 0.0
C957 C 0.32704 0.4246 0.14473 0.0
C958 C 0.46299 0.37797 0.14954 0.0
C959 C 0.3298 0.4381 0.10674 0.0
C960 C 0.44611 0.46986 0.07905 0.0
C961 C 0.43845 0.41157 0.06686 0.0
C962 C 0.4378 0.46753 0.10012 0.0
C963 C 0.42168 0.40554 0.10891 0.0
C964 C 0.41999 0.34432 0.09708 0.0
C965 C 0.42801 0.34822 0.07608 0.0
C966 C 0.44155 0.53316 0.11247 0.0
C967 C 0.40482 0.27657 0.1061 0.0
H968 H 0.40427 0.38799 0.18002 0.0
H969 H 0.29283 0.43636 0.14388 0.0
H970 H 0.46682 0.32089 0.14858 0.0
H971 H 0.48272 0.40169 0.13726 0.0
H972 H 0.47582 0.39488 0.16459 0.0
H973 H 0.295 0.45052 0.10858 0.0
H974 H 0.34576 0.48237 0.09898 0.0
H975 H 0.33263 0.39237 0.09657 0.0
H976 H 0.45485 0.51861 0.0719 0.0
H977 H 0.42316 0.30277 0.06662 0.0
H978 H 0.45636 0.52219 0.12756 0.0
H979 H 0.40882 0.55458 0.11523 0.0
H980 H 0.46107 0.57313 0.10448 0.0
H981 H 0.41955 0.26811 0.12135 0.0
H982 H 0.41286 0.23193 0.0961 0.0
H983 H 0.36925 0.27816 0.10811 0.0
C984 C 0.63202 0.84343 0.4162 0.0
C985 C 0.58971 0.81876 0.41456 0.0
C986 C 0.65653 0.85651 0.39857 0.0
C987 C 0.63751 0.84596 0.37913 0.0
C988 C 0.59472 0.82033 0.37762 0.0
C989 C 0.57147 0.8066 0.39542 0.0
C990 C 0.70192 0.88372 0.40088 0.0
C991 C 0.57301 0.80898 0.35721 0.0
C992 C 0.6639 0.94236 0.33097 0.0
C993 C 0.67955 0.88829 0.31877 0.0
C994 C 0.65402 0.93125 0.35156 0.0
C995 C 0.66047 0.8647 0.36008 0.0
C996 C 0.68103 0.81242 0.34849 0.0
C997 C 0.69026 0.82476 0.32785 0.0
C998 C 0.63256 0.98855 0.36351 0.0
C999 C 0.68999 0.74183 0.35747 0.0
H1000 H 0.6457 0.85289 0.43119 0.0
H1001 H 0.53855 0.78762 0.39444 0.0
H1002 H 0.72306 0.86634 0.38821 0.0
H1003 H 0.70119 0.94119 0.40073 0.0
H1004 H 0.71634 0.8671 0.41563 0.0
H1005 H 0.53956 0.78889 0.35881 0.0
H1006 H 0.5718 0.85847 0.34857 0.0
H1007 H 0.59188 0.77153 0.34798 0.0
H1008 H 0.65688 0.99225 0.32409 0.0
H1009 H 0.70282 0.78305 0.31852 0.0
H1010 H 0.64745 0.99356 0.37883 0.0
H1011 H 0.59793 0.97575 0.36574 0.0
H1012 H 0.63473 0.03932 0.35555 0.0
H1013 H 0.65934 0.71684 0.36227 0.0
H1014 H 0.71043 0.74736 0.37129 0.0
H1015 H 0.70643 0.70707 0.34646 0.0
C1016 C 0.35503 0.19259 0.41482 0.0
C1017 C 0.38984 0.14651 0.41732 0.0
C1018 C 0.33387 0.19941 0.39596 0.0
C1019 C 0.34657 0.15699 0.37942 0.0
C1020 C 0.37866 0.10574 0.38241 0.0
C1021 C 0.40038 0.10193 0.40114 0.0
C1022 C 0.30061 0.25598 0.39363 0.0
C1023 C 0.39243 0.0581 0.3653 0.0
C1024 C 0.28768 0.13474 0.32919 0.0
C1025 C 0.31568 0.1704 0.31608 0.0
C1026 C 0.29502 0.13451 0.35037 0.0
C1027 C 0.331 0.17084 0.35835 0.0
C1028 C 0.35633 0.21288 0.34529 0.0
C1029 C 0.34863 0.21156 0.32424 0.0
C1030 C 0.2664 0.09135 0.36399 0.0
C1031 C 0.39361 0.25521 0.35337 0.0
H1032 H 0.34544 0.22597 0.42732 0.0
H1033 H 0.42734 0.06657 0.40253 0.0
H1034 H 0.31746 0.30654 0.39217 0.0
H1035 H 0.27983 0.24897 0.38002 0.0
H1036 H 0.27991 0.25883 0.40745 0.0
H1037 H 0.41366 1.01558 0.37078 0.0
H1038 H 0.36377 0.03491 0.35776 0.0
H1039 H 0.41028 0.08828 0.35359 0.0
H1040 H 0.26202 0.10328 0.32279 0.0
H1041 H 0.36978 0.23988 0.314 0.0
H1042 H 0.25776 0.12061 0.37799 0.0
H1043 H 0.28414 0.04415 0.36884 0.0
H1044 H 0.23626 0.0752 0.3561 0.0
H1045 H 0.38346 0.28511 0.36702 0.0
H1046 H 0.40638 0.29184 0.34174 0.0
H1047 H 0.42016 0.22008 0.35811 0.0
C1048 C 0.9807 0.69174 0.94241 0.0
C1049 C 0.9932 0.73595 0.95828 0.0
C1050 C 0.97028 0.62229 0.94617 0.0
C1051 C 0.9729 0.59597 0.96634 0.0
C1052 C 0.98391 0.64116 0.98261 0.0
C1053 C 0.99374 0.71107 0.97839 0.0
C1054 C 0.95797 0.57649 0.92839 0.0
C1055 C 0.98718 0.61506 0.00427 0.0
C1056 C 0.91755 0.42142 0.97059 0.0
C1057 C 0.95146 0.37637 0.96543 0.0
C1058 C 0.92456 0.49306 0.97266 0.0
C1059 C 0.96659 0.52021 0.96975 0.0
C1060 C 0.00159 0.47424 0.96659 0.0
C1061 C 0.9936 0.40302 0.96436 0.0
C1062 C 0.88636 0.54009 0.97622 0.0
C1063 C 0.04707 0.50076 0.96373 0.0
H1064 H 0.97991 0.71143 0.92689 0.0
H1065 H 0.00352 0.74548 -0.00937 0.0
H1066 H 0.98282 0.53573 0.92626 0.0
H1067 H 0.92685 0.55004 0.93151 0.0
H1068 H 0.95486 0.60605 0.91389 0.0
H1069 H 0.99056 0.65809 0.01542 0.0
H1070 H 0.95835 0.58383 0.00834 0.0
H1071 H 0.01574 0.58069 0.0057 0.0
H1072 H 0.88504 0.40117 0.972 0.0
H1073 H 0.02013 0.3691 0.96032 0.0
H1074 H 0.87767 0.5662 0.96168 0.0
H1075 H 0.89437 0.58109 0.98747 0.0
H1076 H 0.85769 0.51096 0.98174 0.0
H1077 H 0.04994 0.52532 0.94846 0.0
H1078 H 0.07132 0.45848 0.96479 0.0
H1079 H 0.05487 0.54076 0.97532 0.0
C1080 C 0.28228 0.6288 0.19552 0.0
C1081 C 0.26743 0.57476 0.20823 0.0
C1082 C 0.27177 0.69834 0.19918 0.0
C1083 C 0.24318 0.71541 0.21522 0.0
C1084 C 0.22793 0.66205 0.22826 0.0
C1085 C 0.24097 0.59281 0.22491 0.0
C1086 C 0.28975 0.75334 0.18507 0.0
C1087 C 0.19605 0.67744 0.24507 0.0
C1088 C 0.23385 0.90965 0.22583 0.0
C1089 C 0.20254 0.92989 0.21136 0.0
C1090 C 0.24623 0.83959 0.22809 0.0
C1091 C 0.22558 0.78762 0.21631 0.0
C1092 C 0.19172 0.80671 0.20299 0.0
C1093 C 0.18166 0.87694 0.20022 0.0
C1094 C 0.28338 0.82193 0.24206 0.0
C1095 C 0.16774 0.75319 0.1905 0.0
H1096 H 0.30102 0.61752 0.18201 0.0
H1097 H 0.22952 0.55295 0.23521 0.0
H1098 H 0.2639 0.77211 0.17472 0.0
H1099 H 0.30162 0.79845 0.19395 0.0
H1100 H 0.3167 0.73343 0.17555 0.0
H1101 H 0.19052 0.63193 0.25515 0.0
H1102 H 0.20735 0.72155 0.25451 0.0
H1103 H 0.16469 0.69278 0.23821 0.0
H1104 H 0.24989 0.94837 0.23505 0.0
H1105 H 0.15857 0.88947 0.18841 0.0
H1106 H 0.31201 0.80824 0.23271 0.0
H1107 H 0.27554 0.77621 0.25164 0.0
H1108 H 0.2922 0.8659 0.25219 0.0
H1109 H 0.18853 0.73532 0.17776 0.0
H1110 H 0.13743 0.77432 0.18389 0.0
H1111 H 0.1596 0.70729 0.19997 0.0
C1112 C 0.77301 0.11659 0.23055 0.0
C1113 C 0.77587 0.0937 0.21029 0.0
C1114 C 0.76431 0.18669 0.23497 0.0
C1115 C 0.75757 0.23414 0.21872 0.0
C1116 C 0.75929 0.21034 0.19827 0.0
C1117 C 0.76872 0.14067 0.19434 0.0
C1118 C 0.76334 0.21028 0.25692 0.0
C1119 C 0.75143 0.25858 0.18045 0.0
C1120 C 0.69689 0.40373 0.22209 0.0
C1121 C 0.73025 0.45182 0.21879 0.0
C1122 C 0.70555 0.33257 0.22382 0.0
C1123 C 0.74872 0.30893 0.22262 0.0
C1124 C 0.78281 0.35783 0.22156 0.0
C1125 C 0.77318 0.4287 0.21951 0.0
C1126 C 0.66815 0.28246 0.22495 0.0
C1127 C 0.82938 0.33499 0.22073 0.0
H1128 H 0.7787 0.08009 0.24286 0.0
H1129 H 0.77048 0.12262 0.17868 0.0
H1130 H 0.7899 0.24778 0.25963 0.0
H1131 H 0.73262 0.23756 0.26023 0.0
H1132 H 0.76692 0.1664 0.26779 0.0
H1133 H 0.75253 0.23126 0.16554 0.0
H1134 H 0.7194 0.28378 0.18201 0.0
H1135 H 0.77613 0.30023 0.18033 0.0
H1136 H 0.66365 0.42135 0.22209 0.0
H1137 H 0.79927 0.46518 0.217 0.0
H1138 H 0.6746 0.24087 0.23625 0.0
H1139 H 0.66378 0.25737 0.20985 0.0
H1140 H 0.63751 0.30881 0.2291 0.0
H1141 H 0.83559 0.29307 0.23196 0.0
H1142 H 0.85192 0.3786 0.2238 0.0
H1143 H 0.83655 0.31409 0.20532 0.0
C1144 C 0.9314 0.85271 0.47743 0.0
C1145 C 0.96486 0.80555 0.47339 0.0
C1146 C 0.93942 0.92423 0.47861 0.0
C1147 C 0.98204 0.94915 0.47597 0.0
C1148 C 0.01652 0.90125 0.47419 0.0
C1149 C 0.00752 0.82996 0.47283 0.0
C1150 C 0.90165 0.97322 0.48064 0.0
C1151 C 0.06257 0.92551 0.47176 0.0
C1152 C 0.99666 0.11563 0.44594 0.0
C1153 C 0.00635 0.16376 0.46126 0.0
C1154 C 0.988 0.04621 0.45067 0.0
C1155 C 0.98947 0.02389 0.47128 0.0
C1156 C 0.99838 0.0726 0.48692 0.0
C1157 C 0.00643 0.14232 0.48173 0.0
C1158 C 0.97774 0.99654 0.4335 0.0
C1159 C 0.00055 0.05074 0.50903 0.0
H1160 H 0.89843 0.83404 0.47832 0.0
H1161 H 0.03362 0.79411 0.46971 0.0
H1162 H 0.90929 0.01612 0.4913 0.0
H1163 H 0.89455 0.99667 0.46552 0.0
H1164 H 0.87212 0.94625 0.48609 0.0
H1165 H 0.08602 0.88278 0.47427 0.0
H1166 H 0.06722 0.94597 0.45607 0.0
H1167 H 0.06986 0.96812 0.48259 0.0
H1168 H 0.99597 0.13248 0.43013 0.0
H1169 H 0.01401 0.17963 0.49357 0.0
H1170 H 0.94617 0.97104 0.43629 0.0
H1171 H 0.0026 0.95521 0.43285 0.0
H1172 H 0.97649 0.02275 0.41839 0.0
H1173 H 0.97083 0.02227 0.51339 0.0
H1174 H 0.00467 0.09564 0.51946 0.0
H1175 H 0.02811 1.0148 0.51125 0.0
C1176 C 0.30207 0.134 0.73538 0.0
C1177 C 0.30027 0.10539 0.71576 0.0
C1178 C 0.29388 0.20515 0.73842 0.0
C1179 C 0.28341 0.24769 0.72143 0.0
C1180 C 0.28057 0.21796 0.7017 0.0
C1181 C 0.28922 0.14737 0.69914 0.0
C1182 C 0.29748 0.23508 0.75962 0.0
C1183 C 0.26901 0.26092 0.68317 0.0
C1184 C 0.22412 0.41871 0.72256 0.0
C1185 C 0.257 0.46489 0.71682 0.0
C1186 C 0.23288 0.3483 0.72599 0.0
C1187 C 0.27561 0.3235 0.72375 0.0
C1188 C 0.30955 0.37114 0.71998 0.0
C1189 C 0.29984 0.44131 0.71651 0.0
C1190 C 0.19575 0.29959 0.73017 0.0
C1191 C 0.35568 0.34712 0.71778 0.0
H1192 H 0.31095 0.10123 0.74817 0.0
H1193 H 0.28788 0.12478 0.68398 0.0
H1194 H 0.32488 0.27209 0.7602 0.0
H1195 H 0.26785 0.26448 0.76352 0.0
H1196 H 0.30272 0.19437 0.77137 0.0
H1197 H 0.26718 0.22936 0.66902 0.0
H1198 H 0.23738 0.28666 0.68552 0.0
H1199 H 0.29347 0.30224 0.68089 0.0
H1200 H 0.19107 0.43698 0.72335 0.0
H1201 H 0.3255 0.47657 0.71215 0.0
H1202 H 0.20435 0.26169 0.74225 0.0
H1203 H 0.18828 0.26986 0.7161 0.0
H1204 H 0.16616 0.32784 0.7349 0.0
H1205 H 0.36405 0.30931 0.72992 0.0
H1206 H 0.37882 0.39107 0.71845 0.0
H1207 H 0.35963 0.32066 0.70286 0.0
C1208 C 0.82316 0.66408 0.70318 0.0
C1209 C 0.80228 0.61189 0.71463 0.0
C1210 C 0.81217 0.73422 0.70506 0.0
C1211 C 0.77755 0.75377 0.71784 0.0
C1212 C 0.75667 0.7025 0.72982 0.0
C1213 C 0.76976 0.63255 0.72838 0.0
C1214 C 0.83617 0.78702 0.69229 0.0
C1215 C 0.71887 0.72086 0.74329 0.0
C1216 C 0.76252 0.94884 0.72526 0.0
C1217 C 0.73599 0.96587 0.70852 0.0
C1218 C 0.7753 0.87981 0.72904 0.0
C1219 C 0.76003 0.82585 0.71624 0.0
C1220 C 0.73161 0.84214 0.70002 0.0
C1221 C 0.72098 0.91149 0.69605 0.0
C1222 C 0.80688 0.86526 0.74608 0.0
C1223 C 0.71387 0.78646 0.68611 0.0
H1224 H 0.84709 0.6507 0.69184 0.0
H1225 H 0.75356 0.59417 0.73768 0.0
H1226 H 0.81534 0.80443 0.6795 0.0
H1227 H 0.84439 0.83331 0.70156 0.0
H1228 H 0.86644 0.76554 0.68577 0.0
H1229 H 0.70911 0.67707 0.75331 0.0
H1230 H 0.72668 0.76634 0.75296 0.0
H1231 H 0.6909 0.73535 0.73359 0.0
H1232 H 0.77402 0.98943 0.73531 0.0
H1233 H 0.70191 0.92266 0.6826 0.0
H1234 H 0.83872 0.85168 0.73944 0.0
H1235 H 0.79607 0.82037 0.75535 0.0
H1236 H 0.81126 0.91072 0.75628 0.0
H1237 H 0.74003 0.76645 0.67618 0.0
H1238 H 0.68746 0.80611 0.67618 0.0
H1239 H 0.70134 0.74223 0.6952 0.0
C1240 C 0.51252 0.62899 0.47991 0.0
C1241 C 0.51484 0.65247 0.45967 0.0
C1242 C 0.50424 0.55864 0.48427 0.0
C1243 C 0.49748 0.51143 0.46799 0.0
C1244 C 0.4989 0.53563 0.44757 0.0
C1245 C 0.50771 0.60557 0.4437 0.0
C1246 C 0.50338 0.53465 0.5062 0.0
C1247 C 0.49104 0.48762 0.42972 0.0
C1248 C 0.51196 0.31664 0.46842 0.0
C1249 C 0.46889 0.29428 0.46745 0.0
C1250 C 0.52203 0.38729 0.4707 0.0
C1251 C 0.48822 0.43666 0.47182 0.0
C1252 C 0.44488 0.41358 0.47282 0.0
C1253 C 0.43579 0.34267 0.47075 0.0
C1254 C 0.56874 0.40947 0.47001 0.0
C1255 C 0.40778 0.46414 0.47406 0.0
H1256 H 0.51808 0.66531 0.49226 0.0
H1257 H 0.50876 0.62391 0.42804 0.0
H1258 H 0.47231 0.50846 0.50959 0.0
H1259 H 0.5294 0.4961 0.50876 0.0
H1260 H 0.50779 0.57816 0.5171 0.0
H1261 H 0.49263 0.51501 0.4148 0.0
H1262 H 0.51542 0.44552 0.4297 0.0
H1263 H 0.45879 0.463 0.43114 0.0
H1264 H 0.53782 0.27978 0.46592 0.0
H1265 H 0.40245 0.32551 0.47049 0.0
H1266 H 0.57509 0.45114 0.48128 0.0
H1267 H 0.57621 0.43047 0.45463 0.0
H1268 H 0.59095 0.36547 0.47311 0.0
H1269 H 0.41444 0.50523 0.48546 0.0
H1270 H 0.37698 0.43803 0.47813 0.0
H1271 H 0.40357 0.48981 0.45901 0.0
C1272 C 0.52191 0.89767 0.96837 0.0
C1273 C 0.47919 0.87338 0.96809 0.0
C1274 C 0.53092 0.9688 0.97024 0.0
C1275 C 0.49639 0.01674 0.97167 0.0
C1276 C 0.45355 0.99186 0.97343 0.0
C1277 C 0.44551 0.92046 0.97174 0.0
C1278 C 0.57718 0.99291 0.96874 0.0
C1279 C 0.41576 0.0409 0.9751 0.0
C1280 C 0.5206 0.20942 0.97892 0.0
C1281 C 0.52221 0.232 0.95859 0.0
C1282 C 0.51204 0.13941 0.98359 0.0
C1283 C 0.50429 0.09172 0.96753 0.0
C1284 C 0.50453 0.11531 0.94703 0.0
C1285 C 0.51379 0.18492 0.94284 0.0
C1286 C 0.51257 0.11613 0.00559 0.0
C1287 C 0.4956 0.06678 0.92942 0.0
H1288 H 0.54822 0.86192 0.96556 0.0
H1289 H 0.41247 0.9019 0.97204 0.0
H1290 H 0.58318 1.01383 0.95321 0.0
H1291 H 0.58366 0.03511 0.97982 0.0
H1292 H 0.60033 0.94996 0.97156 0.0
H1293 H 0.38573 1.0137 0.97981 0.0
H1294 H 0.42262 0.08283 0.98621 0.0
H1295 H 0.40998 0.06565 0.96004 0.0
H1296 H 0.52735 0.24601 -0.00893 0.0
H1297 H 0.51472 0.20274 0.92713 0.0
H1298 H 0.5401 0.08034 0.00808 0.0
H1299 H 0.48266 0.08707 0.00928 0.0
H1300 H 0.51569 0.16038 0.01633 0.0
H1301 H 0.52053 0.02554 0.92895 0.0
H1302 H 0.49544 0.09399 0.91446 0.0
H1303 H 0.46386 0.04107 0.93154 0.0
C1304 C 0.34432 0.34681 0.98703 0.0
C1305 C 0.34754 0.38745 0.00474 0.0
C1306 C 0.30427 0.31932 0.98084 0.0
C1307 C 0.26718 0.33103 -0.00698 0.0
C1308 C 0.26972 0.37753 0.00971 0.0
C1309 C 0.30964 0.40617 0.01505 0.0
C1310 C 0.30259 0.27392 0.96213 0.0
C1311 C 0.23122 0.3919 0.02324 0.0
C1312 C 0.15034 0.27667 0.98777 0.0
C1313 C 0.15002 0.21914 0.00085 0.0
C1314 C 0.18954 0.30957 0.98271 0.0
C1315 C 0.22861 0.28521 -0.00854 0.0
C1316 C 0.22857 0.22247 0.00271 0.0
C1317 C 0.18932 0.18973 0.00695 0.0
C1318 C 0.18854 0.37332 0.9694 0.0
C1319 C 0.26929 0.19383 0.01224 0.0
H1320 H 0.37326 0.33304 0.97866 0.0
H1321 H 0.3116 0.44017 0.02819 0.0
H1322 H 0.3112 0.22002 0.96639 0.0
H1323 H 0.26994 0.27352 0.95513 0.0
H1324 H 0.32637 0.29168 0.95055 0.0
H1325 H 0.23837 0.43115 0.03518 0.0
H1326 H 0.20365 0.4107 0.01399 0.0
H1327 H 0.2209 0.3433 0.03092 0.0
H1328 H 0.12003 0.29877 0.98264 0.0
H1329 H 0.18908 0.14374 0.0165 0.0
H1330 H 0.21907 0.37933 0.96069 0.0
H1331 H 0.18421 0.41993 0.97907 0.0
H1332 H 0.16106 0.37123 0.9585 0.0
H1333 H 0.29471 0.18745 0.00051 0.0
H1334 H 0.26388 0.1429 0.01976 0.0
H1335 H 0.28166 0.23069 0.02387 0.0
C1336 C 0.84494 0.84372 -7e-05 0.0
C1337 C 0.84711 0.89423 0.01534 0.0
C1338 C 0.80649 0.80688 -0.00375 0.0
C1339 C 0.76991 0.81934 0.00871 0.0
C1340 C 0.77121 0.8732 0.02336 0.0
C1341 C 0.8094 0.91087 0.02614 0.0
C1342 C 0.80601 0.75213 0.97981 0.0
C1343 C 0.73327 0.88789 0.0372 0.0
C1344 C 0.65558 0.75213 0.0023 0.0
C1345 C 0.65552 0.69598 0.016 0.0
C1346 C 0.69372 0.78919 -0.00182 0.0
C1347 C 0.73227 0.77128 0.00856 0.0
C1348 C 0.73301 0.71196 0.02128 0.0
C1349 C 0.69493 0.67428 0.02446 0.0
C1350 C 0.69208 0.84978 0.98361 0.0
C1351 C 0.77328 0.69103 0.03277 0.0
H1352 H 0.8737 0.83043 -0.00863 0.0
H1353 H 0.81022 0.95162 0.03751 0.0
H1354 H 0.81363 0.70099 0.98666 0.0
H1355 H 0.7738 0.74843 0.97245 0.0
H1356 H 0.83062 0.76303 0.96789 0.0
H1357 H 0.73922 0.93264 0.04749 0.0
H1358 H 0.70396 0.89879 0.02803 0.0
H1359 H 0.72637 0.84159 0.04674 0.0
H1360 H 0.62557 0.76948 -0.00451 0.0
H1361 H 0.69576 0.6292 0.03433 0.0
H1362 H 0.72205 0.85278 0.97436 0.0
H1363 H 0.68925 0.89869 -0.00761 0.0
H1364 H 0.66389 0.84621 0.97316 0.0
H1365 H 0.80051 0.68358 0.02203 0.0
H1366 H 0.76877 0.64241 0.04163 0.0
H1367 H 0.78263 0.7329 0.04353 0.0
C1368 C 0.068 0.41378 0.24586 0.0
C1369 C 0.10062 0.44426 0.25759 0.0
C1370 C 0.0281 0.44729 0.24325 0.0
C1371 C 0.02094 0.51206 0.25286 0.0
C1372 C 0.05547 0.54569 0.26304 0.0
C1373 C 0.09492 0.51116 0.26532 0.0
C1374 C 0.99249 0.41043 0.23188 0.0
C1375 C 0.04947 0.61488 0.2734 0.0
C1376 C 0.91919 0.62114 0.24829 0.0
C1377 C 0.89762 0.60289 0.26634 0.0
C1378 C 0.95833 0.58914 0.24287 0.0
C1379 C 0.97625 0.53817 0.25593 0.0
C1380 C 0.95317 0.51665 0.2735 0.0
C1381 C 0.91406 0.54887 0.27837 0.0
C1382 C 0.98146 0.61254 0.22381 0.0
C1383 C 0.9709 0.46217 0.28784 0.0
H1384 H 0.07246 0.36172 0.24008 0.0
H1385 H 0.12041 0.53441 0.2744 0.0
H1386 H 0.97018 0.38596 0.24301 0.0
H1387 H 0.97342 0.44747 0.22256 0.0
H1388 H 0.00545 0.3692 0.22175 0.0
H1389 H 0.08075 0.63826 0.27806 0.0
H1390 H 0.03243 0.65169 0.26319 0.0
H1391 H 0.0293 0.6079 0.28726 0.0
H1392 H 0.9065 0.66242 0.23888 0.0
H1393 H 0.89684 0.53299 0.29201 0.0
H1394 H 0.99523 0.56762 0.21549 0.0
H1395 H 0.00863 0.64711 0.22807 0.0
H1396 H 0.95967 0.6415 0.21336 0.0
H1397 H 0.97876 0.41421 0.2793 0.0
H1398 H 0.94786 0.44885 0.30024 0.0
H1399 H 0.00125 0.4812 0.29491 0.0
C1400 C 0.34132 0.7093 0.52112 0.0
C1401 C 0.35378 0.77168 0.51191 0.0
C1402 C 0.30044 0.68093 0.51751 0.0
C1403 C 0.27153 0.71569 0.50422 0.0
C1404 C 0.28589 0.77422 0.49306 0.0
C1405 C 0.32698 0.80185 0.49712 0.0
C1406 C 0.28673 0.61793 0.52959 0.0
C1407 C 0.25658 0.81145 0.47829 0.0
C1408 C 0.16598 0.61786 0.49906 0.0
C1409 C 0.14282 0.64576 0.51546 0.0
C1410 C 0.20684 0.64414 0.4938 0.0
C1411 C 0.22479 0.69881 0.50547 0.0
C1412 C 0.19975 0.73084 0.5209 0.0
C1413 C 0.15898 0.7041 0.52561 0.0
C1414 C 0.23191 0.60986 0.47686 0.0
C1415 C 0.21741 0.78952 0.53371 0.0
H1416 H 0.36252 0.68521 0.53224 0.0
H1417 H 0.33671 0.84989 0.4899 0.0
H1418 H 0.26293 0.63358 0.54139 0.0
H1419 H 0.27082 0.57945 0.51952 0.0
H1420 H 0.31444 0.59254 0.53735 0.0
H1421 H 0.27523 0.84423 0.46747 0.0
H1422 H 0.23669 0.77411 0.46947 0.0
H1423 H 0.23427 0.84555 0.48691 0.0
H1424 H 0.15349 0.5728 0.49124 0.0
H1425 H 0.14061 0.72647 0.53806 0.0
H1426 H 0.25473 0.57172 0.48351 0.0
H1427 H 0.25108 0.64842 0.46813 0.0
H1428 H 0.21018 0.58184 0.46617 0.0
H1429 H 0.24437 0.77016 0.54332 0.0
H1430 H 0.19251 0.81228 0.5439 0.0
H1431 H 0.23045 0.83118 0.5238 0.0
C1432 C 0.84307 0.25153 0.49868 0.0
C1433 C 0.84366 0.30084 0.51444 0.0
C1434 C 0.8047 0.21644 0.49358 0.0
C1435 C 0.76659 0.22974 0.5049 0.0
C1436 C 0.76649 0.28308 0.51974 0.0
C1437 C 0.80473 0.3188 0.52398 0.0
C1438 C 0.80594 0.1625 0.47693 0.0
C1439 C 0.72686 0.29893 0.53238 0.0
C1440 C 0.65156 0.16902 0.49782 0.0
C1441 C 0.64977 0.11577 0.51242 0.0
C1442 C 0.69093 0.20184 0.49319 0.0
C1443 C 0.72879 0.18224 0.50389 0.0
C1444 C 0.72777 0.12391 0.517 0.0
C1445 C 0.68841 0.0907 0.5208 0.0
C1446 C 0.69128 0.26084 0.47807 0.0
C1447 C 0.76734 0.10068 0.52865 0.0
H1448 H 0.87286 0.2378 0.49101 0.0
H1449 H 0.80458 0.35888 0.53557 0.0
H1450 H 0.81594 0.11204 0.48354 0.0
H1451 H 0.77391 0.15574 0.46958 0.0
H1452 H 0.82997 0.17663 0.46504 0.0
H1453 H 0.73206 0.34296 0.54303 0.0
H1454 H 0.69918 0.31166 0.52233 0.0
H1455 H 0.71776 0.25262 0.5415 0.0
H1456 H 0.62201 0.18819 0.49098 0.0
H1457 H 0.68745 0.04765 0.53145 0.0
H1458 H 0.72184 0.2615 0.46922 0.0
H1459 H 0.68871 0.3108 0.48634 0.0
H1460 H 0.66363 0.25729 0.46729 0.0
H1461 H 0.79464 0.09205 0.51803 0.0
H1462 H 0.76161 0.05213 0.53738 0.0
H1463 H 0.7772 0.14181 0.53954 0.0
C1464 C 0.90932 1.00054 0.76069 0.0
C1465 C 0.89884 0.06641 0.75315 0.0
C1466 C 0.95018 0.97163 0.75724 0.0
C1467 C 0.98111 1.00937 0.74579 0.0
C1468 C 0.96864 0.07163 0.73595 0.0
C1469 C 0.92763 0.09974 0.7399 0.0
C1470 C 0.96171 0.90461 0.76783 0.0
C1471 C -4e-05 0.11219 0.72297 0.0
C1472 C 0.09166 0.99478 0.76973 0.0
C1473 C 0.11018 0.94058 0.75854 0.0
C1474 C 0.05063 0.02032 0.76491 0.0
C1475 C 0.0277 0.99184 0.74816 0.0
C1476 C 0.04789 0.9415 0.73564 0.0
C1477 C 0.08894 0.91602 0.74109 0.0
C1478 C 0.03064 0.07422 0.77872 0.0
C1479 C 0.02527 0.91124 0.7173 0.0
H1480 H 0.8867 0.97405 0.77065 0.0
H1481 H 0.91965 0.15047 0.73405 0.0
H1482 H 0.97923 0.86957 0.7573 0.0
H1483 H 0.98342 0.91582 0.78091 0.0
H1484 H 0.9327 0.87717 0.77369 0.0
H1485 H 0.98289 0.14885 0.71266 0.0
H1486 H 0.02172 0.14264 0.733 0.0
H1487 H 0.02029 0.07697 0.71366 0.0
H1488 H 0.10844 1.01473 0.78303 0.0
H1489 H 0.10317 0.87423 0.73243 0.0
H1490 H 0.00218 0.05176 0.78662 0.0
H1491 H 0.01922 0.11913 0.76963 0.0
H1492 H 0.05363 0.09332 0.79047 0.0
H1493 H 0.00297 0.86965 0.72238 0.0
H1494 H 0.04865 0.88818 0.70639 0.0
H1495 H 0.00585 0.95111 0.70924 0.0
C1496 C 0.6121 0.49133 0.74925 0.0
C1497 C 0.61376 0.43279 0.76197 0.0
C1498 C 0.57267 0.52542 0.74547 0.0
C1499 C 0.53443 0.50124 0.75501 0.0
C1500 C 0.53552 0.4388 0.76637 0.0
C1501 C 0.57497 0.40487 0.7694 0.0
C1502 C 0.57256 0.58986 0.73241 0.0
C1503 C 0.49573 0.41091 0.77691 0.0
C1504 C 0.45237 0.62698 0.77621 0.0
C1505 C 0.41533 0.6108 0.7648 0.0
C1506 C 0.49191 0.5943 0.77242 0.0
C1507 C 0.49522 0.54595 0.75625 0.0
C1508 C 0.45914 0.53449 0.74335 0.0
C1509 C 0.41937 0.56632 0.74794 0.0
C1510 C 0.52926 0.60794 0.78674 0.0
C1511 C 0.46173 0.48579 0.72538 0.0
H1512 H 0.64179 0.51293 0.74321 0.0
H1513 H 0.5758 0.35818 0.77862 0.0
H1514 H 0.5429 0.5925 0.72292 0.0
H1515 H 0.57314 0.63633 0.74236 0.0
H1516 H 0.60126 0.59197 0.72225 0.0
H1517 H 0.50145 0.3595 0.78407 0.0
H1518 H 0.4854 0.44765 0.78899 0.0
H1519 H 0.4687 0.40598 0.76591 0.0
H1520 H 0.45004 0.66336 0.78876 0.0
H1521 H 0.39114 0.55373 0.73888 0.0
H1522 H 0.55826 0.62386 0.778 0.0
H1523 H 0.53752 0.55964 0.7951 0.0
H1524 H 0.52185 0.64895 0.7981 0.0
H1525 H 0.43592 0.49665 0.71403 0.0
H1526 H 0.45771 0.43167 0.73078 0.0
H1527 H 0.49359 0.48963 0.71771 0.0
C1528 C 0.58825 0.0273 0.26399 0.0
C1529 C 0.60391 0.96513 0.25585 0.0
C1530 C 0.54652 0.05046 0.25948 0.0
C1531 C 0.51999 1.01077 0.24629 0.0
C1532 C 0.53751 0.95235 0.23617 0.0
C1533 C 0.57936 0.92984 0.24121 0.0
C1534 C 0.52945 0.11343 0.27054 0.0
C1535 C 0.51094 0.9101 0.22143 0.0
C1536 C 0.40621 1.01585 0.26627 0.0
C1537 C 0.38928 0.07269 0.25563 0.0
C1538 C 0.44767 0.99095 0.26206 0.0
C1539 C 0.47259 0.02312 0.24658 0.0
C1540 C 0.4537 0.07523 0.23422 0.0
C1541 C 0.41219 0.0998 0.23901 0.0
C1542 C 0.46624 0.93492 0.2756 0.0
C1543 C 0.47848 0.10915 0.2171 0.0
H1544 H 0.60765 0.0553 0.27505 0.0
H1545 H 0.59148 0.88195 0.23487 0.0
H1546 H 0.51337 0.14923 0.2597 0.0
H1547 H 0.50498 0.09701 0.28195 0.0
H1548 H 0.55539 0.14223 0.27863 0.0
H1549 H 0.53178 0.87902 0.2111 0.0
H1550 H 0.49006 0.87379 0.2301 0.0
H1551 H 0.48966 0.94383 0.21208 0.0
H1552 H 0.38804 0.99384 0.27887 0.0
H1553 H 0.39907 0.14336 0.23072 0.0
H1554 H 0.49193 0.95733 0.28542 0.0
H1555 H 0.48118 0.89351 0.26626 0.0
H1556 H 0.4414 0.9111 0.28563 0.0
H1557 H 0.49956 0.15034 0.22344 0.0
H1558 H 0.45637 0.13351 0.20581 0.0
H1559 H 0.49939 0.07115 0.20912 0.0
loop_
_geom_bond_atom_site_label_1
_geom_bond_atom_site_label_2
_geom_bond_distance
_geom_bond_site_symmetry_2
_ccdc_geom_bond_type
C0 O1 1.201 . S
C0 C2 1.493 . S
C0 N17 1.318 1_455 S
O1 C0 1.201 . S
C2 C0 1.493 . S
C2 C3 1.381 . S
C2 N7 1.335 1_554 S
C3 C2 1.381 . S
C3 C4 1.411 1_554 S
C3 H49 0.931 . S
C4 C3 1.411 1_556 S
C4 C5 1.384 . S
C4 H50 0.930 . S
C5 C4 1.384 . S
C5 C6 1.376 . S
C5 H51 0.929 . S
C6 C5 1.376 . S
C6 N7 1.330 . S
C6 C21 1.484 1_565 S
N7 C2 1.335 1_556 S
N7 C6 1.330 . S
N7 Co9 1.859 1_565 S
N8 Co9 1.962 1_554 S
N8 C19 1.318 1_455 S
N8 C43 1.421 . S
Co9 N7 1.859 1_545 S
Co9 N8 1.962 1_556 S
Co9 N10 1.859 1_455 S
Co9 N16 1.958 1_445 S
Co9 N17 1.962 1_446 S
Co9 N18 1.958 . S
N10 Co9 1.859 1_655 S
N10 C14 1.330 . S
N10 C15 1.335 1_556 S
C11 C12 1.411 1_554 S
C11 C15 1.381 . S
C11 H52 0.931 . S
C12 C11 1.411 1_556 S
C12 C13 1.384 . S
C12 H53 0.930 . S
C13 C12 1.384 . S
C13 C14 1.376 . S
C13 H54 0.929 . S
C14 N10 1.330 . S
C14 C13 1.376 . S
C14 C29 1.484 1_545 S
C15 N10 1.335 1_554 S
C15 C11 1.381 . S
C15 C19 1.493 . S
N16 Co9 1.958 1_665 S
N16 C29 1.344 . S
N16 C31 1.433 . S
N17 C0 1.318 1_655 S
N17 Co9 1.962 1_664 S
N17 C37 1.421 . S
N18 Co9 1.958 . S
N18 C21 1.344 . S
N18 C23 1.436 . S
C19 N8 1.318 1_655 S
C19 C15 1.493 . S
C19 O20 1.201 . S
O20 C19 1.201 . S
C21 C6 1.484 1_545 S
C21 N18 1.344 . S
C21 O22 1.268 . S
O22 C21 1.268 . S
C23 N18 1.436 . S
C23 C25 1.395 . S
C23 C26 1.352 1_455 S
C24 C25 1.382 1_655 S
C24 C28 1.386 . S
C25 C23 1.395 . S
C25 C24 1.382 1_455 S
C25 H55 0.928 . S
C26 C23 1.352 1_655 S
C26 C27 1.367 . S
C26 H56 0.930 . S
C27 C26 1.367 . S
C27 C28 1.369 . S
C28 C24 1.386 . S
C28 C27 1.369 . S
C28 H57 0.930 . S
C29 C14 1.484 1_565 S
C29 N16 1.344 . S
C29 O30 1.268 . S
O30 C29 1.268 . S
C31 N16 1.433 . S
C31 C32 1.357 1_655 S
C31 C36 1.394 . S
C32 C31 1.357 1_455 S
C32 C33 1.367 . S
C32 H58 0.930 . S
C33 C32 1.367 . S
C33 C34 1.369 . S
C34 C33 1.369 . S
C34 C35 1.386 . S
C34 H59 0.930 . S
C35 C34 1.386 . S
C35 C36 1.382 1_455 S
C36 C31 1.394 . S
C36 C35 1.382 1_655 S
C36 H60 0.928 . S
C37 N17 1.421 . S
C37 C38 1.371 . S
C37 C42 1.385 . S
C38 C37 1.371 . S
C38 C39 1.367 . S
C38 H61 0.931 . S
C39 C38 1.367 . S
C39 C40 1.401 . S
C40 C39 1.401 . S
C40 C41 1.385 . S
C40 H62 0.930 . S
C41 C40 1.385 . S
C41 C42 1.402 . S
C42 C37 1.385 . S
C42 C41 1.402 . S
C42 H63 0.929 . S
C43 N8 1.421 . S
C43 C46 1.385 . S
C43 C47 1.371 . S
C44 C45 1.385 . S
C44 C48 1.401 . S
C44 H64 0.930 . S
C45 C44 1.385 . S
C45 C46 1.402 . S
C46 C43 1.385 . S
C46 C45 1.402 . S
C46 H65 0.929 . S
C47 C43 1.371 . S
C47 C48 1.367 . S
C47 H66 0.931 . S
C48 C44 1.401 . S
C48 C47 1.367 . S
H49 C3 0.931 . S
H50 C4 0.930 . S
H51 C5 0.929 . S
H52 C11 0.931 . S
H53 C12 0.930 . S
H54 C13 0.929 . S
H55 C25 0.928 . S
H56 C26 0.930 . S
H57 C28 0.930 . S
H58 C32 0.930 . S
H59 C34 0.930 . S
H60 C36 0.928 . S
H61 C38 0.931 . S
H62 C40 0.930 . S
H63 C42 0.929 . S
H64 C44 0.930 . S
H65 C46 0.929 . S
H66 C47 0.931 . S
C67 O68 1.201 . S
C67 C69 1.493 . S
C67 N84 1.318 . S
O68 C67 1.201 . S
C69 C67 1.493 . S
C69 C70 1.381 . S
C69 N74 1.335 . S
C70 C69 1.381 . S
C70 C71 1.411 . S
C70 H116 0.931 . S
C71 C70 1.411 . S
C71 C72 1.384 . S
C71 H117 0.930 . S
C72 C71 1.384 . S
C72 C73 1.376 . S
C72 H118 0.929 . S
C73 C72 1.376 . S
C73 N74 1.330 . S
C73 C88 1.484 . S
N74 C69 1.335 . S
N74 C73 1.330 . S
N74 Co76 1.859 . S
N75 Co76 1.962 . S
N75 C86 1.318 . S
N75 C110 1.421 . S
Co76 N74 1.859 . S
Co76 N75 1.962 . S
Co76 N77 1.859 . S
Co76 N83 1.958 . S
Co76 N84 1.962 . S
Co76 N85 1.958 . S
N77 Co76 1.859 . S
N77 C81 1.330 . S
N77 C82 1.335 . S
C78 C79 1.411 . S
C78 C82 1.381 . S
C78 H119 0.931 . S
C79 C78 1.411 . S
C79 C80 1.384 . S
C79 H120 0.930 . S
C80 C79 1.384 . S
C80 C81 1.376 . S
C80 H121 0.929 . S
C81 N77 1.330 . S
C81 C80 1.376 . S
C81 C96 1.484 . S
C82 N77 1.335 . S
C82 C78 1.381 . S
C82 C86 1.493 . S
N83 Co76 1.958 . S
N83 C96 1.344 . S
N83 C98 1.425 . S
N84 C67 1.318 . S
N84 Co76 1.962 . S
N84 C104 1.421 . S
N85 Co76 1.958 . S
N85 C88 1.344 . S
N85 C90 1.425 . S
C86 N75 1.318 . S
C86 C82 1.493 . S
C86 O87 1.201 . S
O87 C86 1.201 . S
C88 C73 1.484 . S
C88 N85 1.344 . S
C88 O89 1.268 . S
O89 C88 1.268 . S
C90 N85 1.425 . S
C90 C92 1.392 . S
C90 C93 1.368 . S
C91 C92 1.382 . S
C91 C95 1.386 . S
C92 C90 1.392 . S
C92 C91 1.382 . S
C92 H122 0.928 . S
C93 C90 1.368 . S
C93 C94 1.367 . S
C93 H123 0.930 . S
C94 C93 1.367 . S
C94 C95 1.369 . S
C95 C91 1.386 . S
C95 C94 1.369 . S
C95 H124 0.930 . S
C96 C81 1.484 . S
C96 N83 1.344 . S
C96 O97 1.268 . S
O97 C96 1.268 . S
C98 N83 1.425 . S
C98 C99 1.368 . S
C98 C103 1.392 . S
C99 C98 1.368 . S
C99 C100 1.367 . S
C99 H125 0.930 . S
C100 C99 1.367 . S
C100 C101 1.369 . S
C101 C100 1.369 . S
C101 C102 1.386 . S
C101 H126 0.930 1_545 S
C102 C101 1.386 . S
C102 C103 1.382 . S
C103 C98 1.392 . S
C103 C102 1.382 . S
C103 H127 0.928 . S
C104 N84 1.421 . S
C104 C105 1.371 . S
C104 C109 1.385 . S
C105 C104 1.371 . S
C105 C106 1.367 . S
C105 H128 0.931 . S
C106 C105 1.367 . S
C106 C107 1.401 . S
C107 C106 1.401 . S
C107 C108 1.385 . S
C107 H129 0.930 . S
C108 C107 1.385 . S
C108 C109 1.402 . S
C109 C104 1.385 . S
C109 C108 1.402 . S
C109 H130 0.929 . S
C110 N75 1.421 . S
C110 C113 1.385 . S
C110 C114 1.371 . S
C111 C112 1.385 . S
C111 C115 1.401 . S
C111 H131 0.930 . S
C112 C111 1.385 . S
C112 C113 1.402 . S
C113 C110 1.385 . S
C113 C112 1.402 . S
C113 H132 0.929 . S
C114 C110 1.371 . S
C114 C115 1.367 . S
C114 H133 0.931 . S
C115 C111 1.401 . S
C115 C114 1.367 . S
H116 C70 0.931 . S
H117 C71 0.930 . S
H118 C72 0.929 . S
H119 C78 0.931 . S
H120 C79 0.930 . S
H121 C80 0.929 . S
H122 C92 0.928 . S
H123 C93 0.930 . S
H124 C95 0.930 . S
H125 C99 0.930 . S
H126 C101 0.930 1_565 S
H127 C103 0.928 . S
H128 C105 0.931 . S
H129 C107 0.930 . S
H130 C109 0.929 . S
H131 C111 0.930 . S
H132 C113 0.929 . S
H133 C114 0.931 . S
C134 O135 1.201 . S
C134 C136 1.493 . S
C134 N151 1.318 . S
O135 C134 1.201 . S
C136 C134 1.493 . S
C136 C137 1.381 . S
C136 N141 1.335 . S
C137 C136 1.381 . S
C137 C138 1.411 . S
C137 H183 0.931 . S
C138 C137 1.411 . S
C138 C139 1.384 . S
C138 H184 0.930 . S
C139 C138 1.384 . S
C139 C140 1.376 . S
C139 H185 0.929 . S
C140 C139 1.376 . S
C140 N141 1.330 . S
C140 C155 1.484 . S
N141 C136 1.335 . S
N141 C140 1.330 . S
N141 Co143 1.859 . S
N142 Co143 1.962 . S
N142 C153 1.318 . S
N142 C177 1.421 . S
Co143 N141 1.859 . S
Co143 N142 1.962 . S
Co143 N144 1.859 . S
Co143 N150 1.958 . S
Co143 N151 1.962 . S
Co143 N152 1.958 . S
N144 Co143 1.859 . S
N144 C148 1.330 . S
N144 C149 1.335 . S
C145 C146 1.411 . S
C145 C149 1.381 . S
C145 H186 0.931 . S
C146 C145 1.411 . S
C146 C147 1.384 . S
C146 H187 0.930 . S
C147 C146 1.384 . S
C147 C148 1.376 . S
C147 H188 0.929 . S
C148 N144 1.330 . S
C148 C147 1.376 . S
C148 C163 1.484 . S
C149 N144 1.335 . S
C149 C145 1.381 . S
C149 C153 1.493 . S
N150 Co143 1.958 . S
N150 C163 1.344 . S
N150 C165 1.425 . S
N151 C134 1.318 . S
N151 Co143 1.962 . S
N151 C171 1.421 . S
N152 Co143 1.958 . S
N152 C155 1.344 . S
N152 C157 1.425 . S
C153 N142 1.318 . S
C153 C149 1.493 . S
C153 O154 1.201 . S
O154 C153 1.201 . S
C155 C140 1.484 . S
C155 N152 1.344 . S
C155 O156 1.268 . S
O156 C155 1.268 . S
C157 N152 1.425 . S
C157 C159 1.392 . S
C157 C160 1.368 . S
C158 C159 1.382 . S
C158 C162 1.386 . S
C159 C157 1.392 . S
C159 C158 1.382 . S
C159 H189 0.928 . S
C160 C157 1.368 . S
C160 C161 1.367 . S
C160 H190 0.930 . S
C161 C160 1.367 . S
C161 C162 1.369 . S
C162 C158 1.386 . S
C162 C161 1.369 . S
C162 H191 0.930 1_565 S
C163 C148 1.484 . S
C163 N150 1.344 . S
C163 O164 1.268 . S
O164 C163 1.268 . S
C165 N150 1.425 . S
C165 C166 1.368 . S
C165 C170 1.392 . S
C166 C165 1.368 . S
C166 C167 1.367 . S
C166 H192 0.930 . S
C167 C166 1.367 . S
C167 C168 1.369 . S
C168 C167 1.369 . S
C168 C169 1.386 . S
C168 H193 0.930 . S
C169 C168 1.386 . S
C169 C170 1.382 . S
C170 C165 1.392 . S
C170 C169 1.382 . S
C170 H194 0.928 . S
C171 N151 1.421 . S
C171 C172 1.371 . S
C171 C176 1.385 . S
C172 C171 1.371 . S
C172 C173 1.367 . S
C172 H195 0.931 . S
C173 C172 1.367 . S
C173 C174 1.401 . S
C174 C173 1.401 . S
C174 C175 1.385 . S
C174 H196 0.930 . S
C175 C174 1.385 . S
C175 C176 1.402 . S
C176 C171 1.385 . S
C176 C175 1.402 . S
C176 H197 0.929 . S
C177 N142 1.421 . S
C177 C180 1.385 . S
C177 C181 1.371 . S
C178 C179 1.385 . S
C178 C182 1.401 . S
C178 H198 0.930 . S
C179 C178 1.385 . S
C179 C180 1.402 . S
C180 C177 1.385 . S
C180 C179 1.402 . S
C180 H199 0.929 . S
C181 C177 1.371 . S
C181 C182 1.367 . S
C181 H200 0.931 . S
C182 C178 1.401 . S
C182 C181 1.367 . S
H183 C137 0.931 . S
H184 C138 0.930 . S
H185 C139 0.929 . S
H186 C145 0.931 . S
H187 C146 0.930 . S
H188 C147 0.929 . S
H189 C159 0.928 . S
H190 C160 0.930 . S
H191 C162 0.930 1_545 S
H192 C166 0.930 . S
H193 C168 0.930 . S
H194 C170 0.928 . S
H195 C172 0.931 . S
H196 C174 0.930 . S
H197 C176 0.929 . S
H198 C178 0.930 . S
H199 C180 0.929 . S
H200 C181 0.931 . S
C201 O202 1.201 . S
C201 C203 1.493 . S
C201 N218 1.318 1_455 S
O202 C201 1.201 . S
C203 C201 1.493 . S
C203 C204 1.381 . S
C203 N208 1.335 . S
C204 C203 1.381 . S
C204 C205 1.411 . S
C204 H250 0.931 . S
C205 C204 1.411 . S
C205 C206 1.384 . S
C205 H251 0.930 . S
C206 C205 1.384 . S
C206 C207 1.376 . S
C206 H252 0.929 . S
C207 C206 1.376 . S
C207 N208 1.330 . S
C207 C222 1.484 . S
N208 C203 1.335 . S
N208 C207 1.330 . S
N208 Co210 1.859 . S
N209 Co210 1.962 . S
N209 C220 1.318 1_455 S
N209 C244 1.421 . S
Co210 N208 1.859 . S
Co210 N209 1.962 . S
Co210 N211 1.859 1_455 S
Co210 N217 1.958 1_455 S
Co210 N218 1.962 1_455 S
Co210 N219 1.958 . S
N211 Co210 1.859 1_655 S
N211 C215 1.330 . S
N211 C216 1.335 . S
C212 C213 1.411 . S
C212 C216 1.381 . S
C212 H253 0.931 . S
C213 C212 1.411 . S
C213 C214 1.384 . S
C213 H254 0.930 . S
C214 C213 1.384 . S
C214 C215 1.376 . S
C214 H255 0.929 . S
C215 N211 1.330 . S
C215 C214 1.376 . S
C215 C230 1.484 . S
C216 N211 1.335 . S
C216 C212 1.381 . S
C216 C220 1.493 . S
N217 Co210 1.958 1_655 S
N217 C230 1.344 . S
N217 C232 1.433 . S
N218 C201 1.318 1_655 S
N218 Co210 1.962 1_655 S
N218 C238 1.421 . S
N219 Co210 1.958 . S
N219 C222 1.344 . S
N219 C224 1.436 . S
C220 N209 1.318 1_655 S
C220 C216 1.493 . S
C220 O221 1.201 . S
O221 C220 1.201 . S
C222 C207 1.484 . S
C222 N219 1.344 . S
C222 O223 1.268 . S
O223 C222 1.268 . S
C224 N219 1.436 . S
C224 C226 1.395 . S
C224 C227 1.352 1_455 S
C225 C226 1.382 1_655 S
C225 C229 1.386 . S
C226 C224 1.395 . S
C226 C225 1.382 1_455 S
C226 H256 0.928 . S
C227 C224 1.352 1_655 S
C227 C228 1.367 . S
C227 H257 0.930 . S
C228 C227 1.367 . S
C228 C229 1.369 . S
C229 C225 1.386 . S
C229 C228 1.369 . S
C229 H258 0.930 . S
C230 C215 1.484 . S
C230 N217 1.344 . S
C230 O231 1.268 . S
O231 C230 1.268 . S
C232 N217 1.433 . S
C232 C233 1.357 1_655 S
C232 C237 1.394 . S
C233 C232 1.357 1_455 S
C233 C234 1.367 . S
C233 H259 0.930 . S
C234 C233 1.367 . S
C234 C235 1.369 . S
C235 C234 1.369 . S
C235 C236 1.386 . S
C235 H260 0.930 . S
C236 C235 1.386 . S
C236 C237 1.382 1_455 S
C237 C232 1.394 . S
C237 C236 1.382 1_655 S
C237 H261 0.928 . S
C238 N218 1.421 . S
C238 C239 1.371 . S
C238 C243 1.385 . S
C239 C238 1.371 . S
C239 C240 1.367 . S
C239 H262 0.931 . S
C240 C239 1.367 . S
C240 C241 1.401 . S
C241 C240 1.401 . S
C241 C242 1.385 . S
C241 H263 0.930 . S
C242 C241 1.385 . S
C242 C243 1.402 . S
C243 C238 1.385 . S
C243 C242 1.402 . S
C243 H264 0.929 . S
C244 N209 1.421 . S
C244 C247 1.385 . S
C244 C248 1.371 . S
C245 C246 1.385 . S
C245 C249 1.401 . S
C245 H265 0.930 . S
C246 C245 1.385 . S
C246 C247 1.402 . S
C247 C244 1.385 . S
C247 C246 1.402 . S
C247 H266 0.929 . S
C248 C244 1.371 . S
C248 C249 1.367 . S
C248 H267 0.931 . S
C249 C245 1.401 . S
C249 C248 1.367 . S
H250 C204 0.931 . S
H251 C205 0.930 . S
H252 C206 0.929 . S
H253 C212 0.931 . S
H254 C213 0.930 . S
H255 C214 0.929 . S
H256 C226 0.928 . S
H257 C227 0.930 . S
H258 C229 0.930 . S
H259 C233 0.930 . S
H260 C235 0.930 . S
H261 C237 0.928 . S
H262 C239 0.931 . S
H263 C241 0.930 . S
H264 C243 0.929 . S
H265 C245 0.930 . S
H266 C247 0.929 . S
H267 C248 0.931 . S
C268 O269 1.201 . S
C268 C270 1.493 . S
C268 N285 1.318 . S
O269 C268 1.201 . S
C270 C268 1.493 . S
C270 C271 1.381 . S
C270 N275 1.335 . S
C271 C270 1.381 . S
C271 C272 1.411 . S
C271 H317 0.931 . S
C272 C271 1.411 . S
C272 C273 1.384 . S
C272 H318 0.930 . S
C273 C272 1.384 . S
C273 C274 1.376 . S
C273 H319 0.929 . S
C274 C273 1.376 . S
C274 N275 1.330 . S
C274 C289 1.484 . S
N275 C270 1.335 . S
N275 C274 1.330 . S
N275 Co277 1.859 . S
N276 Co277 1.962 . S
N276 C287 1.318 . S
N276 C311 1.421 . S
Co277 N275 1.859 . S
Co277 N276 1.962 . S
Co277 N278 1.859 . S
Co277 N284 1.958 . S
Co277 N285 1.962 . S
Co277 N286 1.958 . S
N278 Co277 1.859 . S
N278 C282 1.330 . S
N278 C283 1.335 . S
C279 C280 1.411 . S
C279 C283 1.381 . S
C279 H320 0.931 . S
C280 C279 1.411 . S
C280 C281 1.384 . S
C280 H321 0.930 . S
C281 C280 1.384 . S
C281 C282 1.376 . S
C281 H322 0.929 . S
C282 N278 1.330 . S
C282 C281 1.376 . S
C282 C297 1.484 . S
C283 N278 1.335 . S
C283 C279 1.381 . S
C283 C287 1.493 . S
N284 Co277 1.958 . S
N284 C297 1.344 . S
N284 C299 1.425 . S
N285 C268 1.318 . S
N285 Co277 1.962 . S
N285 C305 1.421 . S
N286 Co277 1.958 . S
N286 C289 1.344 . S
N286 C291 1.425 . S
C287 N276 1.318 . S
C287 C283 1.493 . S
C287 O288 1.201 . S
O288 C287 1.201 . S
C289 C274 1.484 . S
C289 N286 1.344 . S
C289 O290 1.268 . S
O290 C289 1.268 . S
C291 N286 1.425 . S
C291 C293 1.392 . S
C291 C294 1.368 . S
C292 C293 1.382 . S
C292 C296 1.386 . S
C293 C291 1.392 . S
C293 C292 1.382 . S
C293 H323 0.928 . S
C294 C291 1.368 . S
C294 C295 1.367 . S
C294 H324 0.930 . S
C295 C294 1.367 . S
C295 C296 1.369 . S
C296 C292 1.386 . S
C296 C295 1.369 . S
C296 H325 0.930 1_565 S
C297 C282 1.484 . S
C297 N284 1.344 . S
C297 O298 1.268 . S
O298 C297 1.268 . S
C299 N284 1.425 . S
C299 C300 1.368 . S
C299 C304 1.392 . S
C300 C299 1.368 . S
C300 C301 1.367 . S
C300 H326 0.930 . S
C301 C300 1.367 . S
C301 C302 1.369 . S
C302 C301 1.369 . S
C302 C303 1.386 . S
C302 H327 0.930 . S
C303 C302 1.386 . S
C303 C304 1.382 . S
C304 C299 1.392 . S
C304 C303 1.382 . S
C304 H328 0.928 . S
C305 N285 1.421 . S
C305 C306 1.371 . S
C305 C310 1.385 . S
C306 C305 1.371 . S
C306 C307 1.367 . S
C306 H329 0.931 . S
C307 C306 1.367 . S
C307 C308 1.401 . S
C308 C307 1.401 . S
C308 C309 1.385 . S
C308 H330 0.930 . S
C309 C308 1.385 . S
C309 C310 1.402 . S
C310 C305 1.385 . S
C310 C309 1.402 . S
C310 H331 0.929 . S
C311 N276 1.421 . S
C311 C314 1.385 . S
C311 C315 1.371 . S
C312 C313 1.385 . S
C312 C316 1.401 . S
C312 H332 0.930 . S
C313 C312 1.385 . S
C313 C314 1.402 . S
C314 C311 1.385 . S
C314 C313 1.402 . S
C314 H333 0.929 . S
C315 C311 1.371 . S
C315 C316 1.367 . S
C315 H334 0.931 . S
C316 C312 1.401 . S
C316 C315 1.367 . S
H317 C271 0.931 . S
H318 C272 0.930 . S
H319 C273 0.929 . S
H320 C279 0.931 . S
H321 C280 0.930 . S
H322 C281 0.929 . S
H323 C293 0.928 . S
H324 C294 0.930 . S
H325 C296 0.930 1_545 S
H326 C300 0.930 . S
H327 C302 0.930 . S
H328 C304 0.928 . S
H329 C306 0.931 . S
H330 C308 0.930 . S
H331 C310 0.929 . S
H332 C312 0.930 . S
H333 C314 0.929 . S
H334 C315 0.931 . S
C335 O336 1.201 . S
C335 C337 1.493 . S
C335 N352 1.318 . S
O336 C335 1.201 . S
C337 C335 1.493 . S
C337 C338 1.381 . S
C337 N342 1.335 . S
C338 C337 1.381 . S
C338 C339 1.411 . S
C338 H384 0.931 . S
C339 C338 1.411 . S
C339 C340 1.384 . S
C339 H385 0.930 . S
C340 C339 1.384 . S
C340 C341 1.376 . S
C340 H386 0.929 . S
C341 C340 1.376 . S
C341 N342 1.330 . S
C341 C356 1.484 . S
N342 C337 1.335 . S
N342 C341 1.330 . S
N342 Co344 1.859 . S
N343 Co344 1.962 . S
N343 C354 1.318 . S
N343 C378 1.421 . S
Co344 N342 1.859 . S
Co344 N343 1.962 . S
Co344 N345 1.859 . S
Co344 N351 1.958 . S
Co344 N352 1.962 . S
Co344 N353 1.958 . S
N345 Co344 1.859 . S
N345 C349 1.330 . S
N345 C350 1.335 . S
C346 C347 1.411 . S
C346 C350 1.381 . S
C346 H387 0.931 . S
C347 C346 1.411 . S
C347 C348 1.384 . S
C347 H388 0.930 . S
C348 C347 1.384 . S
C348 C349 1.376 . S
C348 H389 0.929 . S
C349 N345 1.330 . S
C349 C348 1.376 . S
C349 C364 1.484 . S
C350 N345 1.335 . S
C350 C346 1.381 . S
C350 C354 1.493 . S
N351 Co344 1.958 . S
N351 C364 1.344 . S
N351 C366 1.425 . S
N352 C335 1.318 . S
N352 Co344 1.962 . S
N352 C372 1.421 . S
N353 Co344 1.958 . S
N353 C356 1.344 . S
N353 C358 1.425 . S
C354 N343 1.318 . S
C354 C350 1.493 . S
C354 O355 1.201 . S
O355 C354 1.201 . S
C356 C341 1.484 . S
C356 N353 1.344 . S
C356 O357 1.268 . S
O357 C356 1.268 . S
C358 N353 1.425 . S
C358 C360 1.392 . S
C358 C361 1.368 . S
C359 C360 1.382 . S
C359 C363 1.386 . S
C360 C358 1.392 . S
C360 C359 1.382 . S
C360 H390 0.928 . S
C361 C358 1.368 . S
C361 C362 1.367 . S
C361 H391 0.930 . S
C362 C361 1.367 . S
C362 C363 1.369 . S
C363 C359 1.386 . S
C363 C362 1.369 . S
C363 H392 0.930 . S
C364 C349 1.484 . S
C364 N351 1.344 . S
C364 O365 1.268 . S
O365 C364 1.268 . S
C366 N351 1.425 . S
C366 C367 1.368 . S
C366 C371 1.392 . S
C367 C366 1.368 . S
C367 C368 1.367 . S
C367 H393 0.930 . S
C368 C367 1.367 . S
C368 C369 1.369 . S
C369 C368 1.369 . S
C369 C370 1.386 . S
C369 H394 0.930 1_545 S
C370 C369 1.386 . S
C370 C371 1.382 . S
C371 C366 1.392 . S
C371 C370 1.382 . S
C371 H395 0.928 . S
C372 N352 1.421 . S
C372 C373 1.371 . S
C372 C377 1.385 . S
C373 C372 1.371 . S
C373 C374 1.367 . S
C373 H396 0.931 . S
C374 C373 1.367 . S
C374 C375 1.401 . S
C375 C374 1.401 . S
C375 C376 1.385 . S
C375 H397 0.930 . S
C376 C375 1.385 . S
C376 C377 1.402 . S
C377 C372 1.385 . S
C377 C376 1.402 . S
C377 H398 0.929 . S
C378 N343 1.421 . S
C378 C381 1.385 . S
C378 C382 1.371 . S
C379 C380 1.385 . S
C379 C383 1.401 . S
C379 H399 0.930 . S
C380 C379 1.385 . S
C380 C381 1.402 . S
C381 C378 1.385 . S
C381 C380 1.402 . S
C381 H400 0.929 . S
C382 C378 1.371 . S
C382 C383 1.367 . S
C382 H401 0.931 . S
C383 C379 1.401 . S
C383 C382 1.367 . S
H384 C338 0.931 . S
H385 C339 0.930 . S
H386 C340 0.929 . S
H387 C346 0.931 . S
H388 C347 0.930 . S
H389 C348 0.929 . S
H390 C360 0.928 . S
H391 C361 0.930 . S
H392 C363 0.930 . S
H393 C367 0.930 . S
H394 C369 0.930 1_565 S
H395 C371 0.928 . S
H396 C373 0.931 . S
H397 C375 0.930 . S
H398 C377 0.929 . S
H399 C379 0.930 . S
H400 C381 0.929 . S
H401 C382 0.931 . S
C402 O403 1.201 . S
C402 C404 1.493 . S
C402 N419 1.318 . S
O403 C402 1.201 . S
C404 C402 1.493 . S
C404 C405 1.381 . S
C404 N409 1.335 . S
C405 C404 1.381 . S
C405 C406 1.411 . S
C405 H451 0.931 . S
C406 C405 1.411 . S
C406 C407 1.384 . S
C406 H452 0.930 . S
C407 C406 1.384 . S
C407 C408 1.376 . S
C407 H453 0.929 . S
C408 C407 1.376 . S
C408 N409 1.330 . S
C408 C423 1.484 1_565 S
N409 C404 1.335 . S
N409 C408 1.330 . S
N409 Co411 1.859 1_565 S
N410 Co411 1.962 . S
N410 C421 1.318 . S
N410 C445 1.421 . S
Co411 N409 1.859 1_545 S
Co411 N410 1.962 . S
Co411 N412 1.859 . S
Co411 N418 1.958 1_545 S
Co411 N419 1.962 1_545 S
Co411 N420 1.958 . S
N412 Co411 1.859 . S
N412 C416 1.330 . S
N412 C417 1.335 . S
C413 C414 1.411 . S
C413 C417 1.381 . S
C413 H454 0.931 . S
C414 C413 1.411 . S
C414 C415 1.384 . S
C414 H455 0.930 . S
C415 C414 1.384 . S
C415 C416 1.376 . S
C415 H456 0.929 . S
C416 N412 1.330 . S
C416 C415 1.376 . S
C416 C431 1.484 1_545 S
C417 N412 1.335 . S
C417 C413 1.381 . S
C417 C421 1.493 . S
N418 Co411 1.958 1_565 S
N418 C431 1.344 . S
N418 C433 1.425 . S
N419 C402 1.318 . S
N419 Co411 1.962 1_565 S
N419 C439 1.421 . S
N420 Co411 1.958 . S
N420 C423 1.344 . S
N420 C425 1.425 . S
C421 N410 1.318 . S
C421 C417 1.493 . S
C421 O422 1.201 . S
O422 C421 1.201 . S
C423 C408 1.484 1_545 S
C423 N420 1.344 . S
C423 O424 1.268 . S
O424 C423 1.268 . S
C425 N420 1.425 . S
C425 C427 1.392 . S
C425 C428 1.368 . S
C426 C427 1.382 . S
C426 C430 1.386 . S
C427 C425 1.392 . S
C427 C426 1.382 . S
C427 H457 0.928 . S
C428 C425 1.368 . S
C428 C429 1.367 . S
C428 H458 0.930 . S
C429 C428 1.367 . S
C429 C430 1.369 . S
C430 C426 1.386 . S
C430 C429 1.369 . S
C430 H459 0.930 . S
C431 C416 1.484 1_565 S
C431 N418 1.344 . S
C431 O432 1.268 . S
O432 C431 1.268 . S
C433 N418 1.425 . S
C433 C434 1.368 . S
C433 C438 1.392 . S
C434 C433 1.368 . S
C434 C435 1.367 . S
C434 H460 0.930 . S
C435 C434 1.367 . S
C435 C436 1.369 . S
C436 C435 1.369 . S
C436 C437 1.386 . S
C436 H461 0.930 . S
C437 C436 1.386 . S
C437 C438 1.382 . S
C438 C433 1.392 . S
C438 C437 1.382 . S
C438 H462 0.928 . S
C439 N419 1.421 . S
C439 C440 1.371 . S
C439 C444 1.385 . S
C440 C439 1.371 . S
C440 C441 1.367 . S
C440 H463 0.931 . S
C441 C440 1.367 . S
C441 C442 1.401 . S
C442 C441 1.401 . S
C442 C443 1.385 . S
C442 H464 0.930 . S
C443 C442 1.385 . S
C443 C444 1.402 . S
C444 C439 1.385 . S
C444 C443 1.402 . S
C444 H465 0.929 . S
C445 N410 1.421 . S
C445 C448 1.385 . S
C445 C449 1.371 . S
C446 C447 1.385 . S
C446 C450 1.401 . S
C446 H466 0.930 . S
C447 C446 1.385 . S
C447 C448 1.402 . S
C448 C445 1.385 . S
C448 C447 1.402 . S
C448 H467 0.929 . S
C449 C445 1.371 . S
C449 C450 1.367 . S
C449 H468 0.931 . S
C450 C446 1.401 . S
C450 C449 1.367 . S
H451 C405 0.931 . S
H452 C406 0.930 . S
H453 C407 0.929 . S
H454 C413 0.931 . S
H455 C414 0.930 . S
H456 C415 0.929 . S
H457 C427 0.928 . S
H458 C428 0.930 . S
H459 C430 0.930 . S
H460 C434 0.930 . S
H461 C436 0.930 . S
H462 C438 0.928 . S
H463 C440 0.931 . S
H464 C442 0.930 . S
H465 C444 0.929 . S
H466 C446 0.930 . S
H467 C448 0.929 . S
H468 C449 0.931 . S
C469 O470 1.201 . S
C469 C471 1.493 . S
C469 N486 1.318 . S
O470 C469 1.201 . S
C471 C469 1.493 . S
C471 C472 1.381 . S
C471 N476 1.335 1_554 S
C472 C471 1.381 . S
C472 C473 1.411 1_554 S
C472 H518 0.931 . S
C473 C472 1.411 1_556 S
C473 C474 1.384 . S
C473 H519 0.930 . S
C474 C473 1.384 . S
C474 C475 1.376 . S
C474 H520 0.929 . S
C475 C474 1.376 . S
C475 N476 1.330 . S
C475 C490 1.484 . S
N476 C471 1.335 1_556 S
N476 C475 1.330 . S
N476 Co478 1.859 . S
N477 Co478 1.962 1_554 S
N477 C488 1.318 . S
N477 C512 1.421 . S
Co478 N476 1.859 . S
Co478 N477 1.962 1_556 S
Co478 N479 1.859 . S
Co478 N485 1.958 . S
Co478 N486 1.962 1_556 S
Co478 N487 1.958 . S
N479 Co478 1.859 . S
N479 C483 1.330 . S
N479 C484 1.335 1_556 S
C480 C481 1.411 1_554 S
C480 C484 1.381 . S
C480 H521 0.931 . S
C481 C480 1.411 1_556 S
C481 C482 1.384 . S
C481 H522 0.930 . S
C482 C481 1.384 . S
C482 C483 1.376 . S
C482 H523 0.929 . S
C483 N479 1.330 . S
C483 C482 1.376 . S
C483 C498 1.484 . S
C484 N479 1.335 1_554 S
C484 C480 1.381 . S
C484 C488 1.493 . S
N485 Co478 1.958 . S
N485 C498 1.344 . S
N485 C500 1.425 . S
N486 C469 1.318 . S
N486 Co478 1.962 1_554 S
N486 C506 1.421 . S
N487 Co478 1.958 . S
N487 C490 1.344 . S
N487 C492 1.425 . S
C488 N477 1.318 . S
C488 C484 1.493 . S
C488 O489 1.201 . S
O489 C488 1.201 . S
C490 C475 1.484 . S
C490 N487 1.344 . S
C490 O491 1.268 . S
O491 C490 1.268 . S
C492 N487 1.425 . S
C492 C494 1.392 . S
C492 C495 1.368 . S
C493 C494 1.382 . S
C493 C497 1.386 . S
C494 C492 1.392 . S
C494 C493 1.382 . S
C494 H524 0.928 . S
C495 C492 1.368 . S
C495 C496 1.367 . S
C495 H525 0.930 . S
C496 C495 1.367 . S
C496 C497 1.369 . S
C497 C493 1.386 . S
C497 C496 1.369 . S
C497 H526 0.930 . S
C498 C483 1.484 . S
C498 N485 1.344 . S
C498 O499 1.268 . S
O499 C498 1.268 . S
C500 N485 1.425 . S
C500 C501 1.368 . S
C500 C505 1.392 . S
C501 C500 1.368 . S
C501 C502 1.367 . S
C501 H527 0.930 . S
C502 C501 1.367 . S
C502 C503 1.369 . S
C503 C502 1.369 . S
C503 C504 1.386 . S
C503 H528 0.930 . S
C504 C503 1.386 . S
C504 C505 1.382 . S
C505 C500 1.392 . S
C505 C504 1.382 . S
C505 H529 0.928 . S
C506 N486 1.421 . S
C506 C507 1.371 . S
C506 C511 1.385 . S
C507 C506 1.371 . S
C507 C508 1.367 . S
C507 H530 0.931 . S
C508 C507 1.367 . S
C508 C509 1.401 . S
C509 C508 1.401 . S
C509 C510 1.385 . S
C509 H531 0.930 . S
C510 C509 1.385 . S
C510 C511 1.402 . S
C511 C506 1.385 . S
C511 C510 1.402 . S
C511 H532 0.929 . S
C512 N477 1.421 . S
C512 C515 1.385 . S
C512 C516 1.371 . S
C513 C514 1.385 . S
C513 C517 1.401 . S
C513 H533 0.930 . S
C514 C513 1.385 . S
C514 C515 1.402 . S
C515 C512 1.385 . S
C515 C514 1.402 . S
C515 H534 0.929 . S
C516 C512 1.371 . S
C516 C517 1.367 . S
C516 H535 0.931 . S
C517 C513 1.401 . S
C517 C516 1.367 . S
H518 C472 0.931 . S
H519 C473 0.930 . S
H520 C474 0.929 . S
H521 C480 0.931 . S
H522 C481 0.930 . S
H523 C482 0.929 . S
H524 C494 0.928 . S
H525 C495 0.930 . S
H526 C497 0.930 . S
H527 C501 0.930 . S
H528 C503 0.930 . S
H529 C505 0.928 . S
H530 C507 0.931 . S
H531 C509 0.930 . S
H532 C511 0.929 . S
H533 C513 0.930 . S
H534 C515 0.929 . S
H535 C516 0.931 . S
C536 C537 1.391 . S
C536 C538 1.394 . S
C536 H552 0.931 . S
C537 C536 1.391 . S
C537 C541 1.376 . S
C538 C536 1.394 . S
C538 C539 1.369 . S
C538 C542 1.531 . S
C539 C538 1.369 . S
C539 C540 1.410 . S
C539 C547 1.503 . S
C540 C539 1.410 . S
C540 C541 1.392 . S
C540 C543 1.511 . S
C541 C537 1.376 . S
C541 C540 1.392 . S
C541 H553 0.929 . S
C542 C538 1.531 . S
C542 H554 0.960 . S
C542 H555 0.962 . S
C542 H556 0.960 . S
C543 C540 1.511 . S
C543 H557 0.961 . S
C543 H558 0.961 . S
C543 H559 0.961 . S
C544 C545 1.370 . S
C544 C546 1.363 . S
C544 H560 0.931 . S
C545 C544 1.370 . S
C545 C549 1.408 . S
C546 C544 1.363 . S
C546 C547 1.370 . S
C546 C550 1.524 . S
C547 C539 1.503 . S
C547 C546 1.370 . S
C547 C548 1.403 . S
C548 C547 1.403 . S
C548 C549 1.404 . S
C548 C551 1.539 1_545 S
C549 C545 1.408 . S
C549 C548 1.404 . S
C549 H561 0.930 1_545 S
C550 C546 1.524 . S
C550 H562 0.956 . S
C550 H563 0.961 . S
C550 H564 0.961 . S
C551 C548 1.539 1_565 S
C551 H565 0.958 . S
C551 H566 0.961 . S
C551 H567 0.960 . S
H552 C536 0.931 . S
H553 C541 0.929 . S
H554 C542 0.960 . S
H555 C542 0.962 . S
H556 C542 0.960 . S
H557 C543 0.961 . S
H558 C543 0.961 . S
H559 C543 0.961 . S
H560 C544 0.931 . S
H561 C549 0.930 1_565 S
H562 C550 0.956 . S
H563 C550 0.961 . S
H564 C550 0.961 . S
H565 C551 0.958 . S
H566 C551 0.961 . S
H567 C551 0.960 . S
C568 C569 1.391 . S
C568 C570 1.394 . S
C568 H584 0.931 . S
C569 C568 1.391 . S
C569 C573 1.376 . S
C570 C568 1.394 . S
C570 C571 1.369 . S
C570 C574 1.531 . S
C571 C570 1.369 . S
C571 C572 1.410 . S
C571 C579 1.503 . S
C572 C571 1.410 . S
C572 C573 1.392 . S
C572 C575 1.511 1_565 S
C573 C569 1.376 . S
C573 C572 1.392 . S
C573 H585 0.929 1_565 S
C574 C570 1.531 . S
C574 H586 0.960 . S
C574 H587 0.962 . S
C574 H588 0.960 . S
C575 C572 1.511 1_545 S
C575 H589 0.961 . S
C575 H590 0.961 . S
C575 H591 0.961 . S
C576 C577 1.370 . S
C576 C578 1.363 . S
C576 H592 0.931 . S
C577 C576 1.370 . S
C577 C581 1.408 . S
C578 C576 1.363 . S
C578 C579 1.370 . S
C578 C582 1.524 . S
C579 C571 1.503 . S
C579 C578 1.370 . S
C579 C580 1.403 . S
C580 C579 1.403 . S
C580 C581 1.404 . S
C580 C583 1.539 1_565 S
C581 C577 1.408 . S
C581 C580 1.404 . S
C581 H593 0.930 . S
C582 C578 1.524 . S
C582 H594 0.956 . S
C582 H595 0.961 . S
C582 H596 0.961 . S
C583 C580 1.539 1_545 S
C583 H597 0.958 1_545 S
C583 H598 0.961 . S
C583 H599 0.960 . S
H584 C568 0.931 . S
H585 C573 0.929 1_545 S
H586 C574 0.960 . S
H587 C574 0.962 . S
H588 C574 0.960 . S
H589 C575 0.961 . S
H590 C575 0.961 . S
H591 C575 0.961 . S
H592 C576 0.931 . S
H593 C581 0.930 . S
H594 C582 0.956 . S
H595 C582 0.961 . S
H596 C582 0.961 . S
H597 C583 0.958 1_565 S
H598 C583 0.961 . S
H599 C583 0.960 . S
C600 C601 1.391 . S
C600 C602 1.394 . S
C600 H616 0.931 . S
C601 C600 1.391 . S
C601 C605 1.376 . S
C602 C600 1.394 . S
C602 C603 1.369 . S
C602 C606 1.531 . S
C603 C602 1.369 . S
C603 C604 1.410 . S
C603 C611 1.503 . S
C604 C603 1.410 . S
C604 C605 1.392 . S
C604 C607 1.511 . S
C605 C601 1.376 . S
C605 C604 1.392 . S
C605 H617 0.929 . S
C606 C602 1.531 . S
C606 H618 0.960 . S
C606 H619 0.962 . S
C606 H620 0.960 . S
C607 C604 1.511 . S
C607 H621 0.961 . S
C607 H622 0.961 . S
C607 H623 0.961 . S
C608 C609 1.370 . S
C608 C610 1.363 . S
C608 H624 0.931 . S
C609 C608 1.370 . S
C609 C613 1.408 . S
C610 C608 1.363 . S
C610 C611 1.370 . S
C610 C614 1.524 . S
C611 C603 1.503 . S
C611 C610 1.370 . S
C611 C612 1.403 . S
C612 C611 1.403 . S
C612 C613 1.404 . S
C612 C615 1.539 . S
C613 C609 1.408 . S
C613 C612 1.404 . S
C613 H625 0.930 . S
C614 C610 1.524 . S
C614 H626 0.956 . S
C614 H627 0.961 . S
C614 H628 0.961 . S
C615 C612 1.539 . S
C615 H629 0.958 . S
C615 H630 0.961 . S
C615 H631 0.960 . S
H616 C600 0.931 . S
H617 C605 0.929 . S
H618 C606 0.960 . S
H619 C606 0.962 . S
H620 C606 0.960 . S
H621 C607 0.961 . S
H622 C607 0.961 . S
H623 C607 0.961 . S
H624 C608 0.931 . S
H625 C613 0.930 . S
H626 C614 0.956 . S
H627 C614 0.961 . S
H628 C614 0.961 . S
H629 C615 0.958 . S
H630 C615 0.961 . S
H631 C615 0.960 . S
C632 C633 1.391 . S
C632 C634 1.394 . S
C632 H648 0.931 . S
C633 C632 1.391 . S
C633 C637 1.376 . S
C634 C632 1.394 . S
C634 C635 1.369 . S
C634 C638 1.531 . S
C635 C634 1.369 . S
C635 C636 1.410 . S
C635 C643 1.503 . S
C636 C635 1.410 . S
C636 C637 1.392 . S
C636 C639 1.511 . S
C637 C633 1.376 . S
C637 C636 1.392 . S
C637 H649 0.929 . S
C638 C634 1.531 . S
C638 H650 0.960 . S
C638 H651 0.962 . S
C638 H652 0.960 . S
C639 C636 1.511 . S
C639 H653 0.961 . S
C639 H654 0.961 . S
C639 H655 0.961 . S
C640 C641 1.370 . S
C640 C642 1.363 . S
C640 H656 0.931 . S
C641 C640 1.370 . S
C641 C645 1.408 . S
C642 C640 1.363 . S
C642 C643 1.370 . S
C642 C646 1.524 . S
C643 C635 1.503 . S
C643 C642 1.370 . S
C643 C644 1.403 . S
C644 C643 1.403 . S
C644 C645 1.404 . S
C644 C647 1.539 . S
C645 C641 1.408 . S
C645 C644 1.404 . S
C645 H657 0.930 . S
C646 C642 1.524 . S
C646 H658 0.956 . S
C646 H659 0.961 . S
C646 H660 0.961 . S
C647 C644 1.539 . S
C647 H661 0.958 . S
C647 H662 0.961 . S
C647 H663 0.960 . S
H648 C632 0.931 . S
H649 C637 0.929 . S
H650 C638 0.960 . S
H651 C638 0.962 . S
H652 C638 0.960 . S
H653 C639 0.961 . S
H654 C639 0.961 . S
H655 C639 0.961 . S
H656 C640 0.931 . S
H657 C645 0.930 . S
H658 C646 0.956 . S
H659 C646 0.961 . S
H660 C646 0.961 . S
H661 C647 0.958 . S
H662 C647 0.961 . S
H663 C647 0.960 . S
C664 C665 1.391 . S
C664 C666 1.394 . S
C664 H680 0.931 . S
C665 C664 1.391 . S
C665 C669 1.376 . S
C666 C664 1.394 . S
C666 C667 1.369 . S
C666 C670 1.531 . S
C667 C666 1.369 . S
C667 C668 1.410 . S
C667 C675 1.503 . S
C668 C667 1.410 . S
C668 C669 1.392 . S
C668 C671 1.511 . S
C669 C665 1.376 . S
C669 C668 1.392 . S
C669 H681 0.929 . S
C670 C666 1.531 . S
C670 H682 0.960 . S
C670 H683 0.962 . S
C670 H684 0.960 . S
C671 C668 1.511 . S
C671 H685 0.961 . S
C671 H686 0.961 . S
C671 H687 0.961 . S
C672 C673 1.370 . S
C672 C674 1.363 . S
C672 H688 0.931 . S
C673 C672 1.370 . S
C673 C677 1.408 . S
C674 C672 1.363 . S
C674 C675 1.370 . S
C674 C678 1.524 . S
C675 C667 1.503 . S
C675 C674 1.370 . S
C675 C676 1.403 . S
C676 C675 1.403 . S
C676 C677 1.404 . S
C676 C679 1.539 . S
C677 C673 1.408 . S
C677 C676 1.404 . S
C677 H689 0.930 . S
C678 C674 1.524 . S
C678 H690 0.956 . S
C678 H691 0.961 . S
C678 H692 0.961 . S
C679 C676 1.539 . S
C679 H693 0.958 . S
C679 H694 0.961 . S
C679 H695 0.960 . S
H680 C664 0.931 . S
H681 C669 0.929 . S
H682 C670 0.960 . S
H683 C670 0.962 . S
H684 C670 0.960 . S
H685 C671 0.961 . S
H686 C671 0.961 . S
H687 C671 0.961 . S
H688 C672 0.931 . S
H689 C677 0.930 . S
H690 C678 0.956 . S
H691 C678 0.961 . S
H692 C678 0.961 . S
H693 C679 0.958 . S
H694 C679 0.961 . S
H695 C679 0.960 . S
C696 C697 1.391 . S
C696 C698 1.394 . S
C696 H712 0.931 . S
C697 C696 1.391 . S
C697 C701 1.376 . S
C698 C696 1.394 . S
C698 C699 1.369 . S
C698 C702 1.531 . S
C699 C698 1.369 . S
C699 C700 1.410 . S
C699 C707 1.503 . S
C700 C699 1.410 . S
C700 C701 1.392 . S
C700 C703 1.511 . S
C701 C697 1.376 . S
C701 C700 1.392 . S
C701 H713 0.929 . S
C702 C698 1.531 . S
C702 H714 0.960 . S
C702 H715 0.962 . S
C702 H716 0.960 . S
C703 C700 1.511 . S
C703 H717 0.961 . S
C703 H718 0.961 . S
C703 H719 0.961 . S
C704 C705 1.370 . S
C704 C706 1.363 . S
C704 H720 0.931 . S
C705 C704 1.370 . S
C705 C709 1.408 . S
C706 C704 1.363 . S
C706 C707 1.370 . S
C706 C710 1.524 . S
C707 C699 1.503 . S
C707 C706 1.370 . S
C707 C708 1.403 . S
C708 C707 1.403 . S
C708 C709 1.404 . S
C708 C711 1.539 . S
C709 C705 1.408 . S
C709 C708 1.404 . S
C709 H721 0.930 . S
C710 C706 1.524 . S
C710 H722 0.956 . S
C710 H723 0.961 . S
C710 H724 0.961 . S
C711 C708 1.539 . S
C711 H725 0.958 . S
C711 H726 0.961 . S
C711 H727 0.960 . S
H712 C696 0.931 . S
H713 C701 0.929 . S
H714 C702 0.960 . S
H715 C702 0.962 . S
H716 C702 0.960 . S
H717 C703 0.961 . S
H718 C703 0.961 . S
H719 C703 0.961 . S
H720 C704 0.931 . S
H721 C709 0.930 . S
H722 C710 0.956 . S
H723 C710 0.961 . S
H724 C710 0.961 . S
H725 C711 0.958 . S
H726 C711 0.961 . S
H727 C711 0.960 . S
C728 C729 1.391 . S
C728 C730 1.394 . S
C728 H744 0.931 . S
C729 C728 1.391 . S
C729 C733 1.376 . S
C730 C728 1.394 . S
C730 C731 1.369 . S
C730 C734 1.531 . S
C731 C730 1.369 . S
C731 C732 1.410 . S
C731 C739 1.503 . S
C732 C731 1.410 . S
C732 C733 1.392 . S
C732 C735 1.511 . S
C733 C729 1.376 . S
C733 C732 1.392 . S
C733 H745 0.929 . S
C734 C730 1.531 . S
C734 H746 0.960 . S
C734 H747 0.962 . S
C734 H748 0.960 . S
C735 C732 1.511 . S
C735 H749 0.961 . S
C735 H750 0.961 . S
C735 H751 0.961 . S
C736 C737 1.370 . S
C736 C738 1.363 . S
C736 H752 0.931 . S
C737 C736 1.370 . S
C737 C741 1.408 . S
C738 C736 1.363 . S
C738 C739 1.370 . S
C738 C742 1.524 . S
C739 C731 1.503 . S
C739 C738 1.370 . S
C739 C740 1.403 . S
C740 C739 1.403 . S
C740 C741 1.404 . S
C740 C743 1.539 . S
C741 C737 1.408 . S
C741 C740 1.404 . S
C741 H753 0.930 . S
C742 C738 1.524 . S
C742 H754 0.956 . S
C742 H755 0.961 . S
C742 H756 0.961 . S
C743 C740 1.539 . S
C743 H757 0.958 . S
C743 H758 0.961 . S
C743 H759 0.960 . S
H744 C728 0.931 . S
H745 C733 0.929 . S
H746 C734 0.960 . S
H747 C734 0.962 . S
H748 C734 0.960 . S
H749 C735 0.961 . S
H750 C735 0.961 . S
H751 C735 0.961 . S
H752 C736 0.931 . S
H753 C741 0.930 . S
H754 C742 0.956 . S
H755 C742 0.961 . S
H756 C742 0.961 . S
H757 C743 0.958 . S
H758 C743 0.961 . S
H759 C743 0.960 . S
C760 C761 1.391 . S
C760 C762 1.394 . S
C760 H776 0.931 . S
C761 C760 1.391 . S
C761 C765 1.376 . S
C762 C760 1.394 . S
C762 C763 1.369 . S
C762 C766 1.531 . S
C763 C762 1.369 . S
C763 C764 1.410 . S
C763 C771 1.503 . S
C764 C763 1.410 . S
C764 C765 1.392 . S
C764 C767 1.511 . S
C765 C761 1.376 . S
C765 C764 1.392 . S
C765 H777 0.929 . S
C766 C762 1.531 . S
C766 H778 0.960 . S
C766 H779 0.962 . S
C766 H780 0.960 . S
C767 C764 1.511 . S
C767 H781 0.961 . S
C767 H782 0.961 . S
C767 H783 0.961 . S
C768 C769 1.370 . S
C768 C770 1.363 . S
C768 H784 0.931 . S
C769 C768 1.370 . S
C769 C773 1.408 . S
C770 C768 1.363 . S
C770 C771 1.370 . S
C770 C774 1.524 . S
C771 C763 1.503 . S
C771 C770 1.370 . S
C771 C772 1.403 . S
C772 C771 1.403 . S
C772 C773 1.404 . S
C772 C775 1.539 . S
C773 C769 1.408 . S
C773 C772 1.404 . S
C773 H785 0.930 . S
C774 C770 1.524 . S
C774 H786 0.956 . S
C774 H787 0.961 . S
C774 H788 0.961 . S
C775 C772 1.539 . S
C775 H789 0.958 . S
C775 H790 0.961 . S
C775 H791 0.960 . S
H776 C760 0.931 . S
H777 C765 0.929 . S
H778 C766 0.960 . S
H779 C766 0.962 . S
H780 C766 0.960 . S
H781 C767 0.961 . S
H782 C767 0.961 . S
H783 C767 0.961 . S
H784 C768 0.931 . S
H785 C773 0.930 . S
H786 C774 0.956 . S
H787 C774 0.961 . S
H788 C774 0.961 . S
H789 C775 0.958 . S
H790 C775 0.961 . S
H791 C775 0.960 . S
C792 C793 1.391 . S
C792 C794 1.394 . S
C792 H808 0.931 . S
C793 C792 1.391 . S
C793 C797 1.376 . S
C794 C792 1.394 . S
C794 C795 1.369 . S
C794 C798 1.531 . S
C795 C794 1.369 . S
C795 C796 1.410 . S
C795 C803 1.503 . S
C796 C795 1.410 . S
C796 C797 1.392 . S
C796 C799 1.511 . S
C797 C793 1.376 . S
C797 C796 1.392 . S
C797 H809 0.929 . S
C798 C794 1.531 . S
C798 H810 0.960 . S
C798 H811 0.962 . S
C798 H812 0.960 . S
C799 C796 1.511 . S
C799 H813 0.961 . S
C799 H814 0.961 . S
C799 H815 0.961 . S
C800 C801 1.370 . S
C800 C802 1.363 . S
C800 H816 0.931 1_545 S
C801 C800 1.370 . S
C801 C805 1.408 . S
C802 C800 1.363 . S
C802 C803 1.370 . S
C802 C806 1.524 1_545 S
C803 C795 1.503 . S
C803 C802 1.370 . S
C803 C804 1.403 . S
C804 C803 1.403 . S
C804 C805 1.404 . S
C804 C807 1.539 . S
C805 C801 1.408 . S
C805 C804 1.404 . S
C805 H817 0.930 . S
C806 C802 1.524 1_565 S
C806 H818 0.956 . S
C806 H819 0.961 . S
C806 H820 0.961 . S
C807 C804 1.539 . S
C807 H821 0.958 . S
C807 H822 0.961 . S
C807 H823 0.960 . S
H808 C792 0.931 . S
H809 C797 0.929 . S
H810 C798 0.960 . S
H811 C798 0.962 . S
H812 C798 0.960 . S
H813 C799 0.961 . S
H814 C799 0.961 . S
H815 C799 0.961 . S
H816 C800 0.931 1_565 S
H817 C805 0.930 . S
H818 C806 0.956 . S
H819 C806 0.961 . S
H820 C806 0.961 . S
H821 C807 0.958 . S
H822 C807 0.961 . S
H823 C807 0.960 . S
C824 C825 1.391 . S
C824 C826 1.394 . S
C824 H840 0.931 . S
C825 C824 1.391 . S
C825 C829 1.376 . S
C826 C824 1.394 . S
C826 C827 1.369 . S
C826 C830 1.531 . S
C827 C826 1.369 . S
C827 C828 1.410 . S
C827 C835 1.503 . S
C828 C827 1.410 . S
C828 C829 1.392 . S
C828 C831 1.511 . S
C829 C825 1.376 . S
C829 C828 1.392 . S
C829 H841 0.929 . S
C830 C826 1.531 . S
C830 H842 0.960 . S
C830 H843 0.962 . S
C830 H844 0.960 . S
C831 C828 1.511 . S
C831 H845 0.961 . S
C831 H846 0.961 . S
C831 H847 0.961 . S
C832 C833 1.370 . S
C832 C834 1.363 . S
C832 H848 0.931 . S
C833 C832 1.370 . S
C833 C837 1.408 . S
C834 C832 1.363 . S
C834 C835 1.370 . S
C834 C838 1.524 . S
C835 C827 1.503 . S
C835 C834 1.370 . S
C835 C836 1.403 . S
C836 C835 1.403 . S
C836 C837 1.404 . S
C836 C839 1.539 1_565 S
C837 C833 1.408 . S
C837 C836 1.404 . S
C837 H849 0.930 1_565 S
C838 C834 1.524 . S
C838 H850 0.956 . S
C838 H851 0.961 . S
C838 H852 0.961 . S
C839 C836 1.539 1_545 S
C839 H853 0.958 . S
C839 H854 0.961 . S
C839 H855 0.960 . S
H840 C824 0.931 . S
H841 C829 0.929 . S
H842 C830 0.960 . S
H843 C830 0.962 . S
H844 C830 0.960 . S
H845 C831 0.961 . S
H846 C831 0.961 . S
H847 C831 0.961 . S
H848 C832 0.931 . S
H849 C837 0.930 1_545 S
H850 C838 0.956 . S
H851 C838 0.961 . S
H852 C838 0.961 . S
H853 C839 0.958 . S
H854 C839 0.961 . S
H855 C839 0.960 . S
C856 C857 1.391 . S
C856 C858 1.394 . S
C856 H872 0.931 . S
C857 C856 1.391 . S
C857 C861 1.376 . S
C858 C856 1.394 . S
C858 C859 1.369 . S
C858 C862 1.531 . S
C859 C858 1.369 . S
C859 C860 1.410 . S
C859 C867 1.503 . S
C860 C859 1.410 . S
C860 C861 1.392 . S
C860 C863 1.511 . S
C861 C857 1.376 . S
C861 C860 1.392 . S
C861 H873 0.929 . S
C862 C858 1.531 . S
C862 H874 0.960 . S
C862 H875 0.962 . S
C862 H876 0.960 . S
C863 C860 1.511 . S
C863 H877 0.961 . S
C863 H878 0.961 . S
C863 H879 0.961 . S
C864 C865 1.370 . S
C864 C866 1.363 . S
C864 H880 0.931 . S
C865 C864 1.370 . S
C865 C869 1.408 . S
C866 C864 1.363 . S
C866 C867 1.370 . S
C866 C870 1.524 . S
C867 C859 1.503 . S
C867 C866 1.370 . S
C867 C868 1.403 . S
C868 C867 1.403 . S
C868 C869 1.404 . S
C868 C871 1.539 . S
C869 C865 1.408 . S
C869 C868 1.404 . S
C869 H881 0.930 . S
C870 C866 1.524 . S
C870 H882 0.956 . S
C870 H883 0.961 . S
C870 H884 0.961 . S
C871 C868 1.539 . S
C871 H885 0.958 . S
C871 H886 0.961 . S
C871 H887 0.960 . S
H872 C856 0.931 . S
H873 C861 0.929 . S
H874 C862 0.960 . S
H875 C862 0.962 . S
H876 C862 0.960 . S
H877 C863 0.961 . S
H878 C863 0.961 . S
H879 C863 0.961 . S
H880 C864 0.931 . S
H881 C869 0.930 . S
H882 C870 0.956 . S
H883 C870 0.961 . S
H884 C870 0.961 . S
H885 C871 0.958 . S
H886 C871 0.961 . S
H887 C871 0.960 . S
C888 C889 1.391 . S
C888 C890 1.394 . S
C888 H904 0.931 . S
C889 C888 1.391 . S
C889 C893 1.376 . S
C890 C888 1.394 . S
C890 C891 1.369 . S
C890 C894 1.531 . S
C891 C890 1.369 . S
C891 C892 1.410 . S
C891 C899 1.503 . S
C892 C891 1.410 . S
C892 C893 1.392 . S
C892 C895 1.511 . S
C893 C889 1.376 . S
C893 C892 1.392 . S
C893 H905 0.929 . S
C894 C890 1.531 . S
C894 H906 0.960 . S
C894 H907 0.962 . S
C894 H908 0.960 . S
C895 C892 1.511 . S
C895 H909 0.961 . S
C895 H910 0.961 . S
C895 H911 0.961 . S
C896 C897 1.370 . S
C896 C898 1.363 . S
C896 H912 0.931 . S
C897 C896 1.370 . S
C897 C901 1.408 . S
C898 C896 1.363 . S
C898 C899 1.370 . S
C898 C902 1.524 . S
C899 C891 1.503 . S
C899 C898 1.370 . S
C899 C900 1.403 . S
C900 C899 1.403 . S
C900 C901 1.404 . S
C900 C903 1.539 . S
C901 C897 1.408 . S
C901 C900 1.404 . S
C901 H913 0.930 . S
C902 C898 1.524 . S
C902 H914 0.956 . S
C902 H915 0.961 . S
C902 H916 0.961 . S
C903 C900 1.539 . S
C903 H917 0.958 . S
C903 H918 0.961 . S
C903 H919 0.960 . S
H904 C888 0.931 . S
H905 C893 0.929 . S
H906 C894 0.960 . S
H907 C894 0.962 . S
H908 C894 0.960 . S
H909 C895 0.961 . S
H910 C895 0.961 . S
H911 C895 0.961 . S
H912 C896 0.931 . S
H913 C901 0.930 . S
H914 C902 0.956 . S
H915 C902 0.961 . S
H916 C902 0.961 . S
H917 C903 0.958 . S
H918 C903 0.961 . S
H919 C903 0.960 . S
C920 C921 1.391 . S
C920 C922 1.394 . S
C920 H936 0.931 . S
C921 C920 1.391 . S
C921 C925 1.376 . S
C922 C920 1.394 . S
C922 C923 1.369 . S
C922 C926 1.531 . S
C923 C922 1.369 . S
C923 C924 1.410 . S
C923 C931 1.503 . S
C924 C923 1.410 . S
C924 C925 1.392 . S
C924 C927 1.511 . S
C925 C921 1.376 . S
C925 C924 1.392 . S
C925 H937 0.929 . S
C926 C922 1.531 . S
C926 H938 0.960 . S
C926 H939 0.962 . S
C926 H940 0.960 . S
C927 C924 1.511 . S
C927 H941 0.961 . S
C927 H942 0.961 . S
C927 H943 0.961 . S
C928 C929 1.370 . S
C928 C930 1.363 . S
C928 H944 0.931 . S
C929 C928 1.370 . S
C929 C933 1.408 . S
C930 C928 1.363 . S
C930 C931 1.370 . S
C930 C934 1.524 . S
C931 C923 1.503 . S
C931 C930 1.370 . S
C931 C932 1.403 . S
C932 C931 1.403 . S
C932 C933 1.404 . S
C932 C935 1.539 . S
C933 C929 1.408 . S
C933 C932 1.404 . S
C933 H945 0.930 . S
C934 C930 1.524 . S
C934 H946 0.956 . S
C934 H947 0.961 . S
C934 H948 0.961 . S
C935 C932 1.539 . S
C935 H949 0.958 . S
C935 H950 0.961 . S
C935 H951 0.960 . S
H936 C920 0.931 . S
H937 C925 0.929 . S
H938 C926 0.960 . S
H939 C926 0.962 . S
H940 C926 0.960 . S
H941 C927 0.961 . S
H942 C927 0.961 . S
H943 C927 0.961 . S
H944 C928 0.931 . S
H945 C933 0.930 . S
H946 C934 0.956 . S
H947 C934 0.961 . S
H948 C934 0.961 . S
H949 C935 0.958 . S
H950 C935 0.961 . S
H951 C935 0.960 . S
C952 C953 1.391 . S
C952 C954 1.394 . S
C952 H968 0.931 . S
C953 C952 1.391 . S
C953 C957 1.376 . S
C954 C952 1.394 . S
C954 C955 1.369 . S
C954 C958 1.531 . S
C955 C954 1.369 . S
C955 C956 1.410 . S
C955 C963 1.503 . S
C956 C955 1.410 . S
C956 C957 1.392 . S
C956 C959 1.511 . S
C957 C953 1.376 . S
C957 C956 1.392 . S
C957 H969 0.929 . S
C958 C954 1.531 . S
C958 H970 0.960 . S
C958 H971 0.962 . S
C958 H972 0.960 . S
C959 C956 1.511 . S
C959 H973 0.961 . S
C959 H974 0.961 . S
C959 H975 0.961 . S
C960 C961 1.370 . S
C960 C962 1.363 . S
C960 H976 0.931 . S
C961 C960 1.370 . S
C961 C965 1.408 . S
C962 C960 1.363 . S
C962 C963 1.370 . S
C962 C966 1.524 . S
C963 C955 1.503 . S
C963 C962 1.370 . S
C963 C964 1.403 . S
C964 C963 1.403 . S
C964 C965 1.404 . S
C964 C967 1.539 . S
C965 C961 1.408 . S
C965 C964 1.404 . S
C965 H977 0.930 . S
C966 C962 1.524 . S
C966 H978 0.956 . S
C966 H979 0.961 . S
C966 H980 0.961 . S
C967 C964 1.539 . S
C967 H981 0.958 . S
C967 H982 0.961 . S
C967 H983 0.960 . S
H968 C952 0.931 . S
H969 C957 0.929 . S
H970 C958 0.960 . S
H971 C958 0.962 . S
H972 C958 0.960 . S
H973 C959 0.961 . S
H974 C959 0.961 . S
H975 C959 0.961 . S
H976 C960 0.931 . S
H977 C965 0.930 . S
H978 C966 0.956 . S
H979 C966 0.961 . S
H980 C966 0.961 . S
H981 C967 0.958 . S
H982 C967 0.961 . S
H983 C967 0.960 . S
C984 C985 1.391 . S
C984 C986 1.394 . S
C984 H1000 0.931 . S
C985 C984 1.391 . S
C985 C989 1.376 . S
C986 C984 1.394 . S
C986 C987 1.369 . S
C986 C990 1.531 . S
C987 C986 1.369 . S
C987 C988 1.410 . S
C987 C995 1.503 . S
C988 C987 1.410 . S
C988 C989 1.392 . S
C988 C991 1.511 . S
C989 C985 1.376 . S
C989 C988 1.392 . S
C989 H1001 0.929 . S
C990 C986 1.531 . S
C990 H1002 0.960 . S
C990 H1003 0.962 . S
C990 H1004 0.960 . S
C991 C988 1.511 . S
C991 H1005 0.961 . S
C991 H1006 0.961 . S
C991 H1007 0.961 . S
C992 C993 1.370 . S
C992 C994 1.363 . S
C992 H1008 0.931 . S
C993 C992 1.370 . S
C993 C997 1.408 . S
C994 C992 1.363 . S
C994 C995 1.370 . S
C994 C998 1.524 . S
C995 C987 1.503 . S
C995 C994 1.370 . S
C995 C996 1.403 . S
C996 C995 1.403 . S
C996 C997 1.404 . S
C996 C999 1.539 . S
C997 C993 1.408 . S
C997 C996 1.404 . S
C997 H1009 0.930 . S
C998 C994 1.524 . S
C998 H1010 0.956 . S
C998 H1011 0.961 . S
C998 H1012 0.961 . S
C999 C996 1.539 . S
C999 H1013 0.958 . S
C999 H1014 0.961 . S
C999 H1015 0.960 . S
H1000 C984 0.931 . S
H1001 C989 0.929 . S
H1002 C990 0.960 . S
H1003 C990 0.962 . S
H1004 C990 0.960 . S
H1005 C991 0.961 . S
H1006 C991 0.961 . S
H1007 C991 0.961 . S
H1008 C992 0.931 . S
H1009 C997 0.930 . S
H1010 C998 0.956 . S
H1011 C998 0.961 . S
H1012 C998 0.961 . S
H1013 C999 0.958 . S
H1014 C999 0.961 . S
H1015 C999 0.960 . S
C1016 C1017 1.391 . S
C1016 C1018 1.394 . S
C1016 H1032 0.931 . S
C1017 C1016 1.391 . S
C1017 C1021 1.376 . S
C1018 C1016 1.394 . S
C1018 C1019 1.369 . S
C1018 C1022 1.531 . S
C1019 C1018 1.369 . S
C1019 C1020 1.410 . S
C1019 C1027 1.503 . S
C1020 C1019 1.410 . S
C1020 C1021 1.392 . S
C1020 C1023 1.511 . S
C1021 C1017 1.376 . S
C1021 C1020 1.392 . S
C1021 H1033 0.929 . S
C1022 C1018 1.531 . S
C1022 H1034 0.960 . S
C1022 H1035 0.962 . S
C1022 H1036 0.960 . S
C1023 C1020 1.511 . S
C1023 H1037 0.961 . S
C1023 H1038 0.961 . S
C1023 H1039 0.961 . S
C1024 C1025 1.370 . S
C1024 C1026 1.363 . S
C1024 H1040 0.931 . S
C1025 C1024 1.370 . S
C1025 C1029 1.408 . S
C1026 C1024 1.363 . S
C1026 C1027 1.370 . S
C1026 C1030 1.524 . S
C1027 C1019 1.503 . S
C1027 C1026 1.370 . S
C1027 C1028 1.403 . S
C1028 C1027 1.403 . S
C1028 C1029 1.404 . S
C1028 C1031 1.539 . S
C1029 C1025 1.408 . S
C1029 C1028 1.404 . S
C1029 H1041 0.930 . S
C1030 C1026 1.524 . S
C1030 H1042 0.956 . S
C1030 H1043 0.961 . S
C1030 H1044 0.961 . S
C1031 C1028 1.539 . S
C1031 H1045 0.958 . S
C1031 H1046 0.961 . S
C1031 H1047 0.960 . S
H1032 C1016 0.931 . S
H1033 C1021 0.929 . S
H1034 C1022 0.960 . S
H1035 C1022 0.962 . S
H1036 C1022 0.960 . S
H1037 C1023 0.961 . S
H1038 C1023 0.961 . S
H1039 C1023 0.961 . S
H1040 C1024 0.931 . S
H1041 C1029 0.930 . S
H1042 C1030 0.956 . S
H1043 C1030 0.961 . S
H1044 C1030 0.961 . S
H1045 C1031 0.958 . S
H1046 C1031 0.961 . S
H1047 C1031 0.960 . S
C1048 C1049 1.391 . S
C1048 C1050 1.394 . S
C1048 H1064 0.931 . S
C1049 C1048 1.391 . S
C1049 C1053 1.376 . S
C1050 C1048 1.394 . S
C1050 C1051 1.369 . S
C1050 C1054 1.531 . S
C1051 C1050 1.369 . S
C1051 C1052 1.410 . S
C1051 C1059 1.503 . S
C1052 C1051 1.410 . S
C1052 C1053 1.392 . S
C1052 C1055 1.511 1_556 S
C1053 C1049 1.376 . S
C1053 C1052 1.392 . S
C1053 H1065 0.929 . S
C1054 C1050 1.531 . S
C1054 H1066 0.960 . S
C1054 H1067 0.962 1_455 S
C1054 H1068 0.960 . S
C1055 C1052 1.511 1_554 S
C1055 H1069 0.961 . S
C1055 H1070 0.961 . S
C1055 H1071 0.961 . S
C1056 C1057 1.370 . S
C1056 C1058 1.363 . S
C1056 H1072 0.931 . S
C1057 C1056 1.370 . S
C1057 C1061 1.408 1_655 S
C1058 C1056 1.363 . S
C1058 C1059 1.370 1_655 S
C1058 C1062 1.524 . S
C1059 C1051 1.503 . S
C1059 C1058 1.370 1_455 S
C1059 C1060 1.403 . S
C1060 C1059 1.403 . S
C1060 C1061 1.404 . S
C1060 C1063 1.539 . S
C1061 C1057 1.408 1_455 S
C1061 C1060 1.404 . S
C1061 H1073 0.930 . S
C1062 C1058 1.524 . S
C1062 H1074 0.956 . S
C1062 H1075 0.961 . S
C1062 H1076 0.961 . S
C1063 C1060 1.539 . S
C1063 H1077 0.958 . S
C1063 H1078 0.961 . S
C1063 H1079 0.960 . S
H1064 C1048 0.931 . S
H1065 C1053 0.929 . S
H1066 C1054 0.960 . S
H1067 C1054 0.962 1_655 S
H1068 C1054 0.960 . S
H1069 C1055 0.961 . S
H1070 C1055 0.961 . S
H1071 C1055 0.961 . S
H1072 C1056 0.931 . S
H1073 C1061 0.930 . S
H1074 C1062 0.956 . S
H1075 C1062 0.961 . S
H1076 C1062 0.961 . S
H1077 C1063 0.958 . S
H1078 C1063 0.961 . S
H1079 C1063 0.960 . S
C1080 C1081 1.391 . S
C1080 C1082 1.394 . S
C1080 H1096 0.931 . S
C1081 C1080 1.391 . S
C1081 C1085 1.376 . S
C1082 C1080 1.394 . S
C1082 C1083 1.369 . S
C1082 C1086 1.531 . S
C1083 C1082 1.369 . S
C1083 C1084 1.410 . S
C1083 C1091 1.503 . S
C1084 C1083 1.410 . S
C1084 C1085 1.392 . S
C1084 C1087 1.511 . S
C1085 C1081 1.376 . S
C1085 C1084 1.392 . S
C1085 H1097 0.929 . S
C1086 C1082 1.531 . S
C1086 H1098 0.960 . S
C1086 H1099 0.962 . S
C1086 H1100 0.960 . S
C1087 C1084 1.511 . S
C1087 H1101 0.961 . S
C1087 H1102 0.961 . S
C1087 H1103 0.961 . S
C1088 C1089 1.370 . S
C1088 C1090 1.363 . S
C1088 H1104 0.931 . S
C1089 C1088 1.370 . S
C1089 C1093 1.408 . S
C1090 C1088 1.363 . S
C1090 C1091 1.370 . S
C1090 C1094 1.524 . S
C1091 C1083 1.503 . S
C1091 C1090 1.370 . S
C1091 C1092 1.403 . S
C1092 C1091 1.403 . S
C1092 C1093 1.404 . S
C1092 C1095 1.539 . S
C1093 C1089 1.408 . S
C1093 C1092 1.404 . S
C1093 H1105 0.930 . S
C1094 C1090 1.524 . S
C1094 H1106 0.956 . S
C1094 H1107 0.961 . S
C1094 H1108 0.961 . S
C1095 C1092 1.539 . S
C1095 H1109 0.958 . S
C1095 H1110 0.961 . S
C1095 H1111 0.960 . S
H1096 C1080 0.931 . S
H1097 C1085 0.929 . S
H1098 C1086 0.960 . S
H1099 C1086 0.962 . S
H1100 C1086 0.960 . S
H1101 C1087 0.961 . S
H1102 C1087 0.961 . S
H1103 C1087 0.961 . S
H1104 C1088 0.931 . S
H1105 C1093 0.930 . S
H1106 C1094 0.956 . S
H1107 C1094 0.961 . S
H1108 C1094 0.961 . S
H1109 C1095 0.958 . S
H1110 C1095 0.961 . S
H1111 C1095 0.960 . S
C1112 C1113 1.391 . S
C1112 C1114 1.394 . S
C1112 H1128 0.931 . S
C1113 C1112 1.391 . S
C1113 C1117 1.376 . S
C1114 C1112 1.394 . S
C1114 C1115 1.369 . S
C1114 C1118 1.531 . S
C1115 C1114 1.369 . S
C1115 C1116 1.410 . S
C1115 C1123 1.503 . S
C1116 C1115 1.410 . S
C1116 C1117 1.392 . S
C1116 C1119 1.511 . S
C1117 C1113 1.376 . S
C1117 C1116 1.392 . S
C1117 H1129 0.929 . S
C1118 C1114 1.531 . S
C1118 H1130 0.960 . S
C1118 H1131 0.962 . S
C1118 H1132 0.960 . S
C1119 C1116 1.511 . S
C1119 H1133 0.961 . S
C1119 H1134 0.961 . S
C1119 H1135 0.961 . S
C1120 C1121 1.370 . S
C1120 C1122 1.363 . S
C1120 H1136 0.931 . S
C1121 C1120 1.370 . S
C1121 C1125 1.408 . S
C1122 C1120 1.363 . S
C1122 C1123 1.370 . S
C1122 C1126 1.524 . S
C1123 C1115 1.503 . S
C1123 C1122 1.370 . S
C1123 C1124 1.403 . S
C1124 C1123 1.403 . S
C1124 C1125 1.404 . S
C1124 C1127 1.539 . S
C1125 C1121 1.408 . S
C1125 C1124 1.404 . S
C1125 H1137 0.930 . S
C1126 C1122 1.524 . S
C1126 H1138 0.956 . S
C1126 H1139 0.961 . S
C1126 H1140 0.961 . S
C1127 C1124 1.539 . S
C1127 H1141 0.958 . S
C1127 H1142 0.961 . S
C1127 H1143 0.960 . S
H1128 C1112 0.931 . S
H1129 C1117 0.929 . S
H1130 C1118 0.960 . S
H1131 C1118 0.962 . S
H1132 C1118 0.960 . S
H1133 C1119 0.961 . S
H1134 C1119 0.961 . S
H1135 C1119 0.961 . S
H1136 C1120 0.931 . S
H1137 C1125 0.930 . S
H1138 C1126 0.956 . S
H1139 C1126 0.961 . S
H1140 C1126 0.961 . S
H1141 C1127 0.958 . S
H1142 C1127 0.961 . S
H1143 C1127 0.960 . S
C1144 C1145 1.391 . S
C1144 C1146 1.394 . S
C1144 H1160 0.931 . S
C1145 C1144 1.391 . S
C1145 C1149 1.376 1_655 S
C1146 C1144 1.394 . S
C1146 C1147 1.369 1_655 S
C1146 C1150 1.531 . S
C1147 C1146 1.369 1_455 S
C1147 C1148 1.410 . S
C1147 C1155 1.503 1_565 S
C1148 C1147 1.410 . S
C1148 C1149 1.392 . S
C1148 C1151 1.511 . S
C1149 C1145 1.376 1_455 S
C1149 C1148 1.392 . S
C1149 H1161 0.929 . S
C1150 C1146 1.531 . S
C1150 H1162 0.960 1_565 S
C1150 H1163 0.962 . S
C1150 H1164 0.960 . S
C1151 C1148 1.511 . S
C1151 H1165 0.961 . S
C1151 H1166 0.961 . S
C1151 H1167 0.961 . S
C1152 C1153 1.370 1_655 S
C1152 C1154 1.363 . S
C1152 H1168 0.931 . S
C1153 C1152 1.370 1_455 S
C1153 C1157 1.408 . S
C1154 C1152 1.363 . S
C1154 C1155 1.370 1_655 S
C1154 C1158 1.524 . S
C1155 C1147 1.503 1_545 S
C1155 C1154 1.370 1_455 S
C1155 C1156 1.403 . S
C1156 C1155 1.403 . S
C1156 C1157 1.404 . S
C1156 C1159 1.539 . S
C1157 C1153 1.408 . S
C1157 C1156 1.404 . S
C1157 H1169 0.930 . S
C1158 C1154 1.524 . S
C1158 H1170 0.956 . S
C1158 H1171 0.950 1_545 S
C1158 H1172 0.961 . S
C1159 C1156 1.539 . S
C1159 H1173 0.958 . S
C1159 H1174 0.961 . S
C1159 H1175 0.960 1_545 S
H1160 C1144 0.931 . S
H1161 C1149 0.929 . S
H1162 C1150 0.960 1_545 S
H1163 C1150 0.962 . S
H1164 C1150 0.960 . S
H1165 C1151 0.961 . S
H1166 C1151 0.961 . S
H1167 C1151 0.961 . S
H1168 C1152 0.931 . S
H1169 C1157 0.930 . S
H1170 C1158 0.956 . S
H1171 C1158 0.950 1_565 S
H1172 C1158 0.961 . S
H1173 C1159 0.958 . S
H1174 C1159 0.961 . S
H1175 C1159 0.960 1_565 S
C1176 C1177 1.391 . S
C1176 C1178 1.394 . S
C1176 H1192 0.931 . S
C1177 C1176 1.391 . S
C1177 C1181 1.376 . S
C1178 C1176 1.394 . S
C1178 C1179 1.369 . S
C1178 C1182 1.531 . S
C1179 C1178 1.369 . S
C1179 C1180 1.410 . S
C1179 C1187 1.503 . S
C1180 C1179 1.410 . S
C1180 C1181 1.392 . S
C1180 C1183 1.511 . S
C1181 C1177 1.376 . S
C1181 C1180 1.392 . S
C1181 H1193 0.929 . S
C1182 C1178 1.531 . S
C1182 H1194 0.960 . S
C1182 H1195 0.962 . S
C1182 H1196 0.960 . S
C1183 C1180 1.511 . S
C1183 H1197 0.961 . S
C1183 H1198 0.961 . S
C1183 H1199 0.961 . S
C1184 C1185 1.370 . S
C1184 C1186 1.363 . S
C1184 H1200 0.931 . S
C1185 C1184 1.370 . S
C1185 C1189 1.408 . S
C1186 C1184 1.363 . S
C1186 C1187 1.370 . S
C1186 C1190 1.524 . S
C1187 C1179 1.503 . S
C1187 C1186 1.370 . S
C1187 C1188 1.403 . S
C1188 C1187 1.403 . S
C1188 C1189 1.404 . S
C1188 C1191 1.539 . S
C1189 C1185 1.408 . S
C1189 C1188 1.404 . S
C1189 H1201 0.930 . S
C1190 C1186 1.524 . S
C1190 H1202 0.956 . S
C1190 H1203 0.961 . S
C1190 H1204 0.961 . S
C1191 C1188 1.539 . S
C1191 H1205 0.958 . S
C1191 H1206 0.961 . S
C1191 H1207 0.960 . S
H1192 C1176 0.931 . S
H1193 C1181 0.929 . S
H1194 C1182 0.960 . S
H1195 C1182 0.962 . S
H1196 C1182 0.960 . S
H1197 C1183 0.961 . S
H1198 C1183 0.961 . S
H1199 C1183 0.961 . S
H1200 C1184 0.931 . S
H1201 C1189 0.930 . S
H1202 C1190 0.956 . S
H1203 C1190 0.961 . S
H1204 C1190 0.961 . S
H1205 C1191 0.958 . S
H1206 C1191 0.961 . S
H1207 C1191 0.960 . S
C1208 C1209 1.391 . S
C1208 C1210 1.394 . S
C1208 H1224 0.931 . S
C1209 C1208 1.391 . S
C1209 C1213 1.376 . S
C1210 C1208 1.394 . S
C1210 C1211 1.369 . S
C1210 C1214 1.531 . S
C1211 C1210 1.369 . S
C1211 C1212 1.410 . S
C1211 C1219 1.503 . S
C1212 C1211 1.410 . S
C1212 C1213 1.392 . S
C1212 C1215 1.511 . S
C1213 C1209 1.376 . S
C1213 C1212 1.392 . S
C1213 H1225 0.929 . S
C1214 C1210 1.531 . S
C1214 H1226 0.960 . S
C1214 H1227 0.962 . S
C1214 H1228 0.960 . S
C1215 C1212 1.511 . S
C1215 H1229 0.961 . S
C1215 H1230 0.961 . S
C1215 H1231 0.961 . S
C1216 C1217 1.370 . S
C1216 C1218 1.363 . S
C1216 H1232 0.931 . S
C1217 C1216 1.370 . S
C1217 C1221 1.408 . S
C1218 C1216 1.363 . S
C1218 C1219 1.370 . S
C1218 C1222 1.524 . S
C1219 C1211 1.503 . S
C1219 C1218 1.370 . S
C1219 C1220 1.403 . S
C1220 C1219 1.403 . S
C1220 C1221 1.404 . S
C1220 C1223 1.539 . S
C1221 C1217 1.408 . S
C1221 C1220 1.404 . S
C1221 H1233 0.930 . S
C1222 C1218 1.524 . S
C1222 H1234 0.956 . S
C1222 H1235 0.961 . S
C1222 H1236 0.961 . S
C1223 C1220 1.539 . S
C1223 H1237 0.958 . S
C1223 H1238 0.961 . S
C1223 H1239 0.960 . S
H1224 C1208 0.931 . S
H1225 C1213 0.929 . S
H1226 C1214 0.960 . S
H1227 C1214 0.962 . S
H1228 C1214 0.960 . S
H1229 C1215 0.961 . S
H1230 C1215 0.961 . S
H1231 C1215 0.961 . S
H1232 C1216 0.931 . S
H1233 C1221 0.930 . S
H1234 C1222 0.956 . S
H1235 C1222 0.961 . S
H1236 C1222 0.961 . S
H1237 C1223 0.958 . S
H1238 C1223 0.961 . S
H1239 C1223 0.960 . S
C1240 C1241 1.391 . S
C1240 C1242 1.394 . S
C1240 H1256 0.931 . S
C1241 C1240 1.391 . S
C1241 C1245 1.376 . S
C1242 C1240 1.394 . S
C1242 C1243 1.369 . S
C1242 C1246 1.531 . S
C1243 C1242 1.369 . S
C1243 C1244 1.410 . S
C1243 C1251 1.503 . S
C1244 C1243 1.410 . S
C1244 C1245 1.392 . S
C1244 C1247 1.511 . S
C1245 C1241 1.376 . S
C1245 C1244 1.392 . S
C1245 H1257 0.929 . S
C1246 C1242 1.531 . S
C1246 H1258 0.960 . S
C1246 H1259 0.962 . S
C1246 H1260 0.960 . S
C1247 C1244 1.511 . S
C1247 H1261 0.961 . S
C1247 H1262 0.961 . S
C1247 H1263 0.961 . S
C1248 C1249 1.370 . S
C1248 C1250 1.363 . S
C1248 H1264 0.931 . S
C1249 C1248 1.370 . S
C1249 C1253 1.408 . S
C1250 C1248 1.363 . S
C1250 C1251 1.370 . S
C1250 C1254 1.524 . S
C1251 C1243 1.503 . S
C1251 C1250 1.370 . S
C1251 C1252 1.403 . S
C1252 C1251 1.403 . S
C1252 C1253 1.404 . S
C1252 C1255 1.539 . S
C1253 C1249 1.408 . S
C1253 C1252 1.404 . S
C1253 H1265 0.930 . S
C1254 C1250 1.524 . S
C1254 H1266 0.956 . S
C1254 H1267 0.961 . S
C1254 H1268 0.961 . S
C1255 C1252 1.539 . S
C1255 H1269 0.958 . S
C1255 H1270 0.961 . S
C1255 H1271 0.960 . S
H1256 C1240 0.931 . S
H1257 C1245 0.929 . S
H1258 C1246 0.960 . S
H1259 C1246 0.962 . S
H1260 C1246 0.960 . S
H1261 C1247 0.961 . S
H1262 C1247 0.961 . S
H1263 C1247 0.961 . S
H1264 C1248 0.931 . S
H1265 C1253 0.930 . S
H1266 C1254 0.956 . S
H1267 C1254 0.961 . S
H1268 C1254 0.961 . S
H1269 C1255 0.958 . S
H1270 C1255 0.961 . S
H1271 C1255 0.960 . S
C1272 C1273 1.391 . S
C1272 C1274 1.394 . S
C1272 H1288 0.931 . S
C1273 C1272 1.391 . S
C1273 C1277 1.376 . S
C1274 C1272 1.394 . S
C1274 C1275 1.369 . S
C1274 C1278 1.531 . S
C1275 C1274 1.369 . S
C1275 C1276 1.410 . S
C1275 C1283 1.503 1_565 S
C1276 C1275 1.410 . S
C1276 C1277 1.392 . S
C1276 C1279 1.511 . S
C1277 C1273 1.376 . S
C1277 C1276 1.392 . S
C1277 H1289 0.929 . S
C1278 C1274 1.531 . S
C1278 H1290 0.948 1_565 S
C1278 H1291 0.962 . S
C1278 H1292 0.960 . S
C1279 C1276 1.511 . S
C1279 H1293 0.961 1_556 S
C1279 H1294 0.961 1_565 S
C1279 H1295 0.961 . S
C1280 C1281 1.370 . S
C1280 C1282 1.363 . S
C1280 H1296 0.931 . S
C1281 C1280 1.370 . S
C1281 C1285 1.408 . S
C1282 C1280 1.363 . S
C1282 C1283 1.370 . S
C1282 C1286 1.524 . S
C1283 C1275 1.503 1_545 S
C1283 C1282 1.370 . S
C1283 C1284 1.403 . S
C1284 C1283 1.403 . S
C1284 C1285 1.404 . S
C1284 C1287 1.539 . S
C1285 C1281 1.408 . S
C1285 C1284 1.404 . S
C1285 H1297 0.930 . S
C1286 C1282 1.524 . S
C1286 H1298 0.956 1_545 S
C1286 H1299 0.963 1_545 S
C1286 H1300 0.938 1_556 S
C1287 C1284 1.539 . S
C1287 H1301 0.958 . S
C1287 H1302 0.961 . S
C1287 H1303 0.960 . S
H1288 C1272 0.931 . S
H1289 C1277 0.929 . S
H1290 C1278 0.948 1_545 S
H1291 C1278 0.962 . S
H1292 C1278 0.960 . S
H1293 C1279 0.961 1_554 S
H1294 C1279 0.961 1_545 S
H1295 C1279 0.961 . S
H1296 C1280 0.931 . S
H1297 C1285 0.930 . S
H1298 C1286 0.956 1_565 S
H1299 C1286 0.963 1_565 S
H1300 C1286 0.938 1_554 S
H1301 C1287 0.958 . S
H1302 C1287 0.961 . S
H1303 C1287 0.960 . S
C1304 C1305 1.391 . S
C1304 C1306 1.394 . S
C1304 H1320 0.931 . S
C1305 C1304 1.391 . S
C1305 C1309 1.376 . S
C1306 C1304 1.394 . S
C1306 C1307 1.369 . S
C1306 C1310 1.531 . S
C1307 C1306 1.369 . S
C1307 C1308 1.410 . S
C1307 C1315 1.503 . S
C1308 C1307 1.410 . S
C1308 C1309 1.392 . S
C1308 C1311 1.511 . S
C1309 C1305 1.376 . S
C1309 C1308 1.392 . S
C1309 H1321 0.929 . S
C1310 C1306 1.531 . S
C1310 H1322 0.960 . S
C1310 H1323 0.962 1_554 S
C1310 H1324 0.957 1_554 S
C1311 C1308 1.511 . S
C1311 H1325 0.961 . S
C1311 H1326 0.961 . S
C1311 H1327 0.961 . S
C1312 C1313 1.370 . S
C1312 C1314 1.363 . S
C1312 H1328 0.931 . S
C1313 C1312 1.370 . S
C1313 C1317 1.408 . S
C1314 C1312 1.363 . S
C1314 C1315 1.370 . S
C1314 C1318 1.524 . S
C1315 C1307 1.503 . S
C1315 C1314 1.370 . S
C1315 C1316 1.403 . S
C1316 C1315 1.403 . S
C1316 C1317 1.404 . S
C1316 C1319 1.539 . S
C1317 C1313 1.408 . S
C1317 C1316 1.404 . S
C1317 H1329 0.930 . S
C1318 C1314 1.524 . S
C1318 H1330 0.956 1_554 S
C1318 H1331 0.961 . S
C1318 H1332 0.961 1_554 S
C1319 C1316 1.539 . S
C1319 H1333 0.958 . S
C1319 H1334 0.961 . S
C1319 H1335 0.960 . S
H1320 C1304 0.931 . S
H1321 C1309 0.929 . S
H1322 C1310 0.960 . S
H1323 C1310 0.962 1_556 S
H1324 C1310 0.957 1_556 S
H1325 C1311 0.961 . S
H1326 C1311 0.961 . S
H1327 C1311 0.961 . S
H1328 C1312 0.931 . S
H1329 C1317 0.930 . S
H1330 C1318 0.956 1_556 S
H1331 C1318 0.961 . S
H1332 C1318 0.961 1_556 S
H1333 C1319 0.958 . S
H1334 C1319 0.961 . S
H1335 C1319 0.960 . S
C1336 C1337 1.391 . S
C1336 C1338 1.394 . S
C1336 H1352 0.931 . S
C1337 C1336 1.391 . S
C1337 C1341 1.376 . S
C1338 C1336 1.394 . S
C1338 C1339 1.369 . S
C1338 C1342 1.531 . S
C1339 C1338 1.369 . S
C1339 C1340 1.410 . S
C1339 C1347 1.503 . S
C1340 C1339 1.410 . S
C1340 C1341 1.392 . S
C1340 C1343 1.511 . S
C1341 C1337 1.376 . S
C1341 C1340 1.392 . S
C1341 H1353 0.929 . S
C1342 C1338 1.531 . S
C1342 H1354 0.960 . S
C1342 H1355 0.962 1_554 S
C1342 H1356 0.960 . S
C1343 C1340 1.511 . S
C1343 H1357 0.961 . S
C1343 H1358 0.961 . S
C1343 H1359 0.961 . S
C1344 C1345 1.370 . S
C1344 C1346 1.363 . S
C1344 H1360 0.944 . S
C1345 C1344 1.370 . S
C1345 C1349 1.408 . S
C1346 C1344 1.363 . S
C1346 C1347 1.370 . S
C1346 C1350 1.524 1_554 S
C1347 C1339 1.503 . S
C1347 C1346 1.370 . S
C1347 C1348 1.403 . S
C1348 C1347 1.403 . S
C1348 C1349 1.404 . S
C1348 C1351 1.539 . S
C1349 C1345 1.408 . S
C1349 C1348 1.404 . S
C1349 H1361 0.930 . S
C1350 C1346 1.524 1_556 S
C1350 H1362 0.956 . S
C1350 H1363 0.961 1_556 S
C1350 H1364 0.961 . S
C1351 C1348 1.539 . S
C1351 H1365 0.958 . S
C1351 H1366 0.961 . S
C1351 H1367 0.960 . S
H1352 C1336 0.931 . S
H1353 C1341 0.929 . S
H1354 C1342 0.960 . S
H1355 C1342 0.962 1_556 S
H1356 C1342 0.960 . S
H1357 C1343 0.961 . S
H1358 C1343 0.961 . S
H1359 C1343 0.961 . S
H1360 C1344 0.944 . S
H1361 C1349 0.930 . S
H1362 C1350 0.956 . S
H1363 C1350 0.961 1_554 S
H1364 C1350 0.961 . S
H1365 C1351 0.958 . S
H1366 C1351 0.961 . S
H1367 C1351 0.960 . S
C1368 C1369 1.391 . S
C1368 C1370 1.394 . S
C1368 H1384 0.931 . S
C1369 C1368 1.391 . S
C1369 C1373 1.376 . S
C1370 C1368 1.394 . S
C1370 C1371 1.369 . S
C1370 C1374 1.531 1_455 S
C1371 C1370 1.369 . S
C1371 C1372 1.410 . S
C1371 C1379 1.503 1_455 S
C1372 C1371 1.410 . S
C1372 C1373 1.392 . S
C1372 C1375 1.511 . S
C1373 C1369 1.376 . S
C1373 C1372 1.392 . S
C1373 H1385 0.929 . S
C1374 C1370 1.531 1_655 S
C1374 H1386 0.960 . S
C1374 H1387 0.962 . S
C1374 H1388 0.960 . S
C1375 C1372 1.511 . S
C1375 H1389 0.961 . S
C1375 H1390 0.961 . S
C1375 H1391 0.961 . S
C1376 C1377 1.370 . S
C1376 C1378 1.363 . S
C1376 H1392 0.931 . S
C1377 C1376 1.370 . S
C1377 C1381 1.408 . S
C1378 C1376 1.363 . S
C1378 C1379 1.370 . S
C1378 C1382 1.524 1_655 S
C1379 C1371 1.503 1_655 S
C1379 C1378 1.370 . S
C1379 C1380 1.403 . S
C1380 C1379 1.403 . S
C1380 C1381 1.404 . S
C1380 C1383 1.539 . S
C1381 C1377 1.408 . S
C1381 C1380 1.404 . S
C1381 H1393 0.930 . S
C1382 C1378 1.524 1_455 S
C1382 H1394 0.956 . S
C1382 H1395 0.961 . S
C1382 H1396 0.961 1_455 S
C1383 C1380 1.539 . S
C1383 H1397 0.958 . S
C1383 H1398 0.961 . S
C1383 H1399 0.960 . S
H1384 C1368 0.931 . S
H1385 C1373 0.929 . S
H1386 C1374 0.960 . S
H1387 C1374 0.962 . S
H1388 C1374 0.960 . S
H1389 C1375 0.961 . S
H1390 C1375 0.961 . S
H1391 C1375 0.961 . S
H1392 C1376 0.931 . S
H1393 C1381 0.930 . S
H1394 C1382 0.956 . S
H1395 C1382 0.961 . S
H1396 C1382 0.961 1_655 S
H1397 C1383 0.958 . S
H1398 C1383 0.961 . S
H1399 C1383 0.960 . S
C1400 C1401 1.391 . S
C1400 C1402 1.394 . S
C1400 H1416 0.931 . S
C1401 C1400 1.391 . S
C1401 C1405 1.376 . S
C1402 C1400 1.394 . S
C1402 C1403 1.369 . S
C1402 C1406 1.531 . S
C1403 C1402 1.369 . S
C1403 C1404 1.410 . S
C1403 C1411 1.503 . S
C1404 C1403 1.410 . S
C1404 C1405 1.392 . S
C1404 C1407 1.511 . S
C1405 C1401 1.376 . S
C1405 C1404 1.392 . S
C1405 H1417 0.929 . S
C1406 C1402 1.531 . S
C1406 H1418 0.960 . S
C1406 H1419 0.962 . S
C1406 H1420 0.960 . S
C1407 C1404 1.511 . S
C1407 H1421 0.961 . S
C1407 H1422 0.961 . S
C1407 H1423 0.961 . S
C1408 C1409 1.370 . S
C1408 C1410 1.363 . S
C1408 H1424 0.931 . S
C1409 C1408 1.370 . S
C1409 C1413 1.408 . S
C1410 C1408 1.363 . S
C1410 C1411 1.370 . S
C1410 C1414 1.524 . S
C1411 C1403 1.503 . S
C1411 C1410 1.370 . S
C1411 C1412 1.403 . S
C1412 C1411 1.403 . S
C1412 C1413 1.404 . S
C1412 C1415 1.539 . S
C1413 C1409 1.408 . S
C1413 C1412 1.404 . S
C1413 H1425 0.930 . S
C1414 C1410 1.524 . S
C1414 H1426 0.956 . S
C1414 H1427 0.961 . S
C1414 H1428 0.961 . S
C1415 C1412 1.539 . S
C1415 H1429 0.958 . S
C1415 H1430 0.961 . S
C1415 H1431 0.960 . S
H1416 C1400 0.931 . S
H1417 C1405 0.929 . S
H1418 C1406 0.960 . S
H1419 C1406 0.962 . S
H1420 C1406 0.960 . S
H1421 C1407 0.961 . S
H1422 C1407 0.961 . S
H1423 C1407 0.961 . S
H1424 C1408 0.931 . S
H1425 C1413 0.930 . S
H1426 C1414 0.956 . S
H1427 C1414 0.961 . S
H1428 C1414 0.961 . S
H1429 C1415 0.958 . S
H1430 C1415 0.961 . S
H1431 C1415 0.960 . S
C1432 C1433 1.391 . S
C1432 C1434 1.394 . S
C1432 H1448 0.931 . S
C1433 C1432 1.391 . S
C1433 C1437 1.376 . S
C1434 C1432 1.394 . S
C1434 C1435 1.369 . S
C1434 C1438 1.531 . S
C1435 C1434 1.369 . S
C1435 C1436 1.410 . S
C1435 C1443 1.503 . S
C1436 C1435 1.410 . S
C1436 C1437 1.392 . S
C1436 C1439 1.511 . S
C1437 C1433 1.376 . S
C1437 C1436 1.392 . S
C1437 H1449 0.929 . S
C1438 C1434 1.531 . S
C1438 H1450 0.960 . S
C1438 H1451 0.962 . S
C1438 H1452 0.960 . S
C1439 C1436 1.511 . S
C1439 H1453 0.961 . S
C1439 H1454 0.961 . S
C1439 H1455 0.961 . S
C1440 C1441 1.370 . S
C1440 C1442 1.363 . S
C1440 H1456 0.931 . S
C1441 C1440 1.370 . S
C1441 C1445 1.408 . S
C1442 C1440 1.363 . S
C1442 C1443 1.370 . S
C1442 C1446 1.524 . S
C1443 C1435 1.503 . S
C1443 C1442 1.370 . S
C1443 C1444 1.403 . S
C1444 C1443 1.403 . S
C1444 C1445 1.404 . S
C1444 C1447 1.539 . S
C1445 C1441 1.408 . S
C1445 C1444 1.404 . S
C1445 H1457 0.930 . S
C1446 C1442 1.524 . S
C1446 H1458 0.956 . S
C1446 H1459 0.961 . S
C1446 H1460 0.961 . S
C1447 C1444 1.539 . S
C1447 H1461 0.958 . S
C1447 H1462 0.961 . S
C1447 H1463 0.960 . S
H1448 C1432 0.931 . S
H1449 C1437 0.929 . S
H1450 C1438 0.960 . S
H1451 C1438 0.962 . S
H1452 C1438 0.960 . S
H1453 C1439 0.961 . S
H1454 C1439 0.961 . S
H1455 C1439 0.961 . S
H1456 C1440 0.931 . S
H1457 C1445 0.930 . S
H1458 C1446 0.956 . S
H1459 C1446 0.961 . S
H1460 C1446 0.961 . S
H1461 C1447 0.958 . S
H1462 C1447 0.961 . S
H1463 C1447 0.960 . S
C1464 C1465 1.391 . S
C1464 C1466 1.394 1_545 S
C1464 H1480 0.931 1_545 S
C1465 C1464 1.391 . S
C1465 C1469 1.376 . S
C1466 C1464 1.394 1_565 S
C1466 C1467 1.369 1_565 S
C1466 C1470 1.531 . S
C1467 C1466 1.369 1_545 S
C1467 C1468 1.410 . S
C1467 C1475 1.503 1_645 S
C1468 C1467 1.410 . S
C1468 C1469 1.392 . S
C1468 C1471 1.511 1_655 S
C1469 C1465 1.376 . S
C1469 C1468 1.392 . S
C1469 H1481 0.929 . S
C1470 C1466 1.531 . S
C1470 H1482 0.960 . S
C1470 H1483 0.962 . S
C1470 H1484 0.960 . S
C1471 C1468 1.511 1_455 S
C1471 H1485 0.961 . S
C1471 H1486 0.961 . S
C1471 H1487 0.961 . S
C1472 C1473 1.370 . S
C1472 C1474 1.363 . S
C1472 H1488 0.931 . S
C1473 C1472 1.370 . S
C1473 C1477 1.408 . S
C1474 C1472 1.363 . S
C1474 C1475 1.370 . S
C1474 C1478 1.524 1_565 S
C1475 C1467 1.503 1_465 S
C1475 C1474 1.370 . S
C1475 C1476 1.403 . S
C1476 C1475 1.403 . S
C1476 C1477 1.404 . S
C1476 C1479 1.539 . S
C1477 C1473 1.408 . S
C1477 C1476 1.404 . S
C1477 H1489 0.930 . S
C1478 C1474 1.524 1_545 S
C1478 H1490 0.956 1_445 S
C1478 H1491 0.961 . S
C1478 H1492 0.961 1_545 S
C1479 C1476 1.539 . S
C1479 H1493 0.968 . S
C1479 H1494 0.961 . S
C1479 H1495 0.960 1_565 S
H1480 C1464 0.931 1_565 S
H1481 C1469 0.929 . S
H1482 C1470 0.960 . S
H1483 C1470 0.962 . S
H1484 C1470 0.960 . S
H1485 C1471 0.961 . S
H1486 C1471 0.961 . S
H1487 C1471 0.961 . S
H1488 C1472 0.931 . S
H1489 C1477 0.930 . S
H1490 C1478 0.956 1_665 S
H1491 C1478 0.961 . S
H1492 C1478 0.961 1_565 S
H1493 C1479 0.968 . S
H1494 C1479 0.961 . S
H1495 C1479 0.960 1_545 S
C1496 C1497 1.391 . S
C1496 C1498 1.394 . S
C1496 H1512 0.931 . S
C1497 C1496 1.391 . S
C1497 C1501 1.376 . S
C1498 C1496 1.394 . S
C1498 C1499 1.369 . S
C1498 C1502 1.531 . S
C1499 C1498 1.369 . S
C1499 C1500 1.410 . S
C1499 C1507 1.503 . S
C1500 C1499 1.410 . S
C1500 C1501 1.392 . S
C1500 C1503 1.511 . S
C1501 C1497 1.376 . S
C1501 C1500 1.392 . S
C1501 H1513 0.929 . S
C1502 C1498 1.531 . S
C1502 H1514 0.960 . S
C1502 H1515 0.962 . S
C1502 H1516 0.960 . S
C1503 C1500 1.511 . S
C1503 H1517 0.961 . S
C1503 H1518 0.961 . S
C1503 H1519 0.961 . S
C1504 C1505 1.370 . S
C1504 C1506 1.363 . S
C1504 H1520 0.931 . S
C1505 C1504 1.370 . S
C1505 C1509 1.408 . S
C1506 C1504 1.363 . S
C1506 C1507 1.370 . S
C1506 C1510 1.524 . S
C1507 C1499 1.503 . S
C1507 C1506 1.370 . S
C1507 C1508 1.403 . S
C1508 C1507 1.403 . S
C1508 C1509 1.404 . S
C1508 C1511 1.539 . S
C1509 C1505 1.408 . S
C1509 C1508 1.404 . S
C1509 H1521 0.930 . S
C1510 C1506 1.524 . S
C1510 H1522 0.956 . S
C1510 H1523 0.961 . S
C1510 H1524 0.961 . S
C1511 C1508 1.539 . S
C1511 H1525 0.958 . S
C1511 H1526 0.961 . S
C1511 H1527 0.960 . S
H1512 C1496 0.931 . S
H1513 C1501 0.929 . S
H1514 C1502 0.960 . S
H1515 C1502 0.962 . S
H1516 C1502 0.960 . S
H1517 C1503 0.961 . S
H1518 C1503 0.961 . S
H1519 C1503 0.961 . S
H1520 C1504 0.931 . S
H1521 C1509 0.930 . S
H1522 C1510 0.956 . S
H1523 C1510 0.961 . S
H1524 C1510 0.961 . S
H1525 C1511 0.958 . S
H1526 C1511 0.961 . S
H1527 C1511 0.960 . S
C1528 C1529 1.391 . S
C1528 C1530 1.394 1_565 S
C1528 H1544 0.931 1_565 S
C1529 C1528 1.391 . S
C1529 C1533 1.376 . S
C1530 C1528 1.394 1_545 S
C1530 C1531 1.369 1_545 S
C1530 C1534 1.531 . S
C1531 C1530 1.369 1_565 S
C1531 C1532 1.410 . S
C1531 C1539 1.503 1_565 S
C1532 C1531 1.410 . S
C1532 C1533 1.392 . S
C1532 C1535 1.511 . S
C1533 C1529 1.376 . S
C1533 C1532 1.392 . S
C1533 H1545 0.929 . S
C1534 C1530 1.531 . S
C1534 H1546 0.960 . S
C1534 H1547 0.962 . S
C1534 H1548 0.960 . S
C1535 C1532 1.511 . S
C1535 H1549 0.961 . S
C1535 H1550 0.961 . S
C1535 H1551 0.961 . S
C1536 C1537 1.370 . S
C1536 C1538 1.363 . S
C1536 H1552 0.931 . S
C1537 C1536 1.370 . S
C1537 C1541 1.408 . S
C1538 C1536 1.363 . S
C1538 C1539 1.370 . S
C1538 C1542 1.524 1_545 S
C1539 C1531 1.503 1_545 S
C1539 C1538 1.370 . S
C1539 C1540 1.403 . S
C1540 C1539 1.403 . S
C1540 C1541 1.404 . S
C1540 C1543 1.539 . S
C1541 C1537 1.408 . S
C1541 C1540 1.404 . S
C1541 H1553 0.930 . S
C1542 C1538 1.524 1_565 S
C1542 H1554 0.956 1_565 S
C1542 H1555 0.961 . S
C1542 H1556 0.961 . S
C1543 C1540 1.539 . S
C1543 H1557 0.958 . S
C1543 H1558 0.961 . S
C1543 H1559 0.960 . S
H1544 C1528 0.931 1_545 S
H1545 C1533 0.929 . S
H1546 C1534 0.960 . S
H1547 C1534 0.962 . S
H1548 C1534 0.960 . S
H1549 C1535 0.961 . S
H1550 C1535 0.961 . S
H1551 C1535 0.961 . S
H1552 C1536 0.931 . S
H1553 C1541 0.930 . S
H1554 C1542 0.956 1_545 S
H1555 C1542 0.961 . S
H1556 C1542 0.961 . S
H1557 C1543 0.958 . S
H1558 C1543 0.961 . S
H1559 C1543 0.960 . S
C537 C45 1.118 . S
C545 C100 1.078 . S
C569 C41 1.131 . S
C577 C161 1.097 . S
C601 C234 1.054 . S
C609 C112 1.087 . S
C633 C175 1.052 . S
C641 C228 1.095 . S
C665 C246 1.055 . S
C673 C301 1.100 . S
C697 C362 1.067 . S
C705 C242 1.083 . S
C729 C313 1.130 . S
C737 C33 1.104 . S
C761 C376 1.108 . S
C769 C27 1.088 . S
C793 C368 1.099 . S
C801 C447 1.078 . S
C825 C443 1.121 . S
C833 C295 1.084 . S
C857 C502 1.132 . S
C865 C380 1.104 . S
C889 C496 1.064 . S
C897 C309 1.105 . S
C921 C514 1.053 . S
C929 C167 1.097 . S
C953 C94 1.098 . S
C961 C510 1.074 . S
C985 C435 1.109 . S
C993 C179 1.110 . S
C1017 C429 1.056 . S
C1025 C108 1.096 . S
C1049 C35 1.884 . S
C1057 C24 1.892 . S
C1081 C91 1.882 . S
C1089 C102 1.889 1_565 S
C1113 C158 1.888 1_545 S
C1121 C169 1.892 . S
C1145 C225 1.899 . S
C1153 C236 1.895 . S
C1177 C292 1.895 1_545 S
C1185 C303 1.894 . S
C1209 C359 1.874 . S
C1217 C370 1.886 1_565 S
C1241 C437 1.884 . S
C1249 C426 1.888 . S
C1273 C493 1.876 . S
C1281 C504 1.888 . S
C1305 C508 1.292 . S
C1313 C48 1.302 . S
C1337 C39 1.287 . S
C1345 C517 1.307 . S
C1369 C115 1.287 . S
C1377 C173 1.304 . S
C1401 C441 1.284 . S
C1409 C249 1.303 . S
C1433 C240 1.293 . S
C1441 C450 1.307 . S
C1465 C374 1.341 . S
C1473 C316 1.328 . S
C1497 C383 1.317 . S
C1505 C307 1.316 . S
C1529 C182 1.340 . S
C1537 C106 1.327 . S
