# Generated by pormake.
# Topology uli, (4)-cn, num edge types: 1
# Building blocks:
#     Node 0, Type 0, BuildingBlock: CEKHIL_clean_sbu_0, # of connection points: 4
#     Node 1, Type 0, BuildingBlock: CEKHIL_clean_sbu_0, # of connection points: 4
#     Node 2, Type 0, BuildingBlock: CEKHIL_clean_sbu_0, # of connection points: 4
#     Node 3, Type 0, BuildingBlock: CEKHIL_clean_sbu_0, # of connection points: 4
#     Node 4, Type 0, BuildingBlock: CEKHIL_clean_sbu_0, # of connection points: 4
#     Node 5, Type 0, BuildingBlock: CEKHIL_clean_sbu_0, # of connection points: 4
#     Node 6, Type 0, BuildingBlock: CEKHIL_clean_sbu_0, # of connection points: 4
#     Node 7, Type 0, BuildingBlock: CEKHIL_clean_sbu_0, # of connection points: 4
#     Node 8, Type 0, BuildingBlock: CEKHIL_clean_sbu_0, # of connection points: 4
#     Node 9, Type 0, BuildingBlock: CEKHIL_clean_sbu_0, # of connection points: 4
#     Node 10, Type 0, BuildingBlock: CEKHIL_clean_sbu_0, # of connection points: 4
#     Node 11, Type 0, BuildingBlock: CEKHIL_clean_sbu_0, # of connection points: 4
#     Node 12, Type 0, BuildingBlock: CEKHIL_clean_sbu_0, # of connection points: 4
#     Node 13, Type 0, BuildingBlock: CEKHIL_clean_sbu_0, # of connection points: 4
#     Node 14, Type 0, BuildingBlock: CEKHIL_clean_sbu_0, # of connection points: 4
#     Node 15, Type 0, BuildingBlock: CEKHIL_clean_sbu_0, # of connection points: 4
#     Node 16, Type 0, BuildingBlock: CEKHIL_clean_sbu_0, # of connection points: 4
#     Node 17, Type 0, BuildingBlock: CEKHIL_clean_sbu_0, # of connection points: 4
#     Node 18, Type 0, BuildingBlock: CEKHIL_clean_sbu_0, # of connection points: 4
#     Node 19, Type 0, BuildingBlock: CEKHIL_clean_sbu_0, # of connection points: 4
#     Node 20, Type 0, BuildingBlock: CEKHIL_clean_sbu_0, # of connection points: 4
#     Node 21, Type 0, BuildingBlock: CEKHIL_clean_sbu_0, # of connection points: 4
#     Node 22, Type 0, BuildingBlock: CEKHIL_clean_sbu_0, # of connection points: 4
#     Node 23, Type 0, BuildingBlock: CEKHIL_clean_sbu_0, # of connection points: 4
#     Node 24, Type 0, BuildingBlock: CEKHIL_clean_sbu_0, # of connection points: 4
#     Node 25, Type 0, BuildingBlock: CEKHIL_clean_sbu_0, # of connection points: 4
#     Node 26, Type 0, BuildingBlock: CEKHIL_clean_sbu_0, # of connection points: 4
#     Node 27, Type 0, BuildingBlock: CEKHIL_clean_sbu_0, # of connection points: 4
#     Node 28, Type 0, BuildingBlock: CEKHIL_clean_sbu_0, # of connection points: 4
#     Node 29, Type 0, BuildingBlock: CEKHIL_clean_sbu_0, # of connection points: 4
#     Node 30, Type 0, BuildingBlock: CEKHIL_clean_sbu_0, # of connection points: 4
#     Node 31, Type 0, BuildingBlock: CEKHIL_clean_sbu_0, # of connection points: 4
#     Node 32, Type 0, BuildingBlock: CEKHIL_clean_sbu_0, # of connection points: 4
#     Node 33, Type 0, BuildingBlock: CEKHIL_clean_sbu_0, # of connection points: 4
#     Node 34, Type 0, BuildingBlock: CEKHIL_clean_sbu_0, # of connection points: 4
#     Node 35, Type 0, BuildingBlock: CEKHIL_clean_sbu_0, # of connection points: 4
#     Node 36, Type 0, BuildingBlock: CEKHIL_clean_sbu_0, # of connection points: 4
#     Node 37, Type 0, BuildingBlock: CEKHIL_clean_sbu_0, # of connection points: 4
#     Node 38, Type 0, BuildingBlock: CEKHIL_clean_sbu_0, # of connection points: 4
#     Node 39, Type 0, BuildingBlock: CEKHIL_clean_sbu_0, # of connection points: 4
#     Node 40, Type 0, BuildingBlock: CEKHIL_clean_sbu_0, # of connection points: 4
#     Node 41, Type 0, BuildingBlock: CEKHIL_clean_sbu_0, # of connection points: 4
#     Node 42, Type 0, BuildingBlock: CEKHIL_clean_sbu_0, # of connection points: 4
#     Node 43, Type 0, BuildingBlock: CEKHIL_clean_sbu_0, # of connection points: 4
#     Node 44, Type 0, BuildingBlock: CEKHIL_clean_sbu_0, # of connection points: 4
#     Node 45, Type 0, BuildingBlock: CEKHIL_clean_sbu_0, # of connection points: 4
#     Node 46, Type 0, BuildingBlock: CEKHIL_clean_sbu_0, # of connection points: 4
#     Node 47, Type 0, BuildingBlock: CEKHIL_clean_sbu_0, # of connection points: 4
#     Edge 48, Type (0, 0), BuildingBlock: KIFKEQ_clean_linker_1, # of connection points: 2
#     Edge 49, Type (0, 0), BuildingBlock: KIFKEQ_clean_linker_1, # of connection points: 2
#     Edge 50, Type (0, 0), BuildingBlock: KIFKEQ_clean_linker_1, # of connection points: 2
#     Edge 51, Type (0, 0), BuildingBlock: KIFKEQ_clean_linker_1, # of connection points: 2
#     Edge 52, Type (0, 0), BuildingBlock: KIFKEQ_clean_linker_1, # of connection points: 2
#     Edge 53, Type (0, 0), BuildingBlock: KIFKEQ_clean_linker_1, # of connection points: 2
#     Edge 54, Type (0, 0), BuildingBlock: KIFKEQ_clean_linker_1, # of connection points: 2
#     Edge 55, Type (0, 0), BuildingBlock: KIFKEQ_clean_linker_1, # of connection points: 2
#     Edge 56, Type (0, 0), BuildingBlock: KIFKEQ_clean_linker_1, # of connection points: 2
#     Edge 57, Type (0, 0), BuildingBlock: KIFKEQ_clean_linker_1, # of connection points: 2
#     Edge 58, Type (0, 0), BuildingBlock: KIFKEQ_clean_linker_1, # of connection points: 2
#     Edge 59, Type (0, 0), BuildingBlock: KIFKEQ_clean_linker_1, # of connection points: 2
#     Edge 60, Type (0, 0), BuildingBlock: KIFKEQ_clean_linker_1, # of connection points: 2
#     Edge 61, Type (0, 0), BuildingBlock: KIFKEQ_clean_linker_1, # of connection points: 2
#     Edge 62, Type (0, 0), BuildingBlock: KIFKEQ_clean_linker_1, # of connection points: 2
#     Edge 63, Type (0, 0), BuildingBlock: KIFKEQ_clean_linker_1, # of connection points: 2
#     Edge 64, Type (0, 0), BuildingBlock: KIFKEQ_clean_linker_1, # of connection points: 2
#     Edge 65, Type (0, 0), BuildingBlock: KIFKEQ_clean_linker_1, # of connection points: 2
#     Edge 66, Type (0, 0), BuildingBlock: KIFKEQ_clean_linker_1, # of connection points: 2
#     Edge 67, Type (0, 0), BuildingBlock: KIFKEQ_clean_linker_1, # of connection points: 2
#     Edge 68, Type (0, 0), BuildingBlock: KIFKEQ_clean_linker_1, # of connection points: 2
#     Edge 69, Type (0, 0), BuildingBlock: KIFKEQ_clean_linker_1, # of connection points: 2
#     Edge 70, Type (0, 0), BuildingBlock: KIFKEQ_clean_linker_1, # of connection points: 2
#     Edge 71, Type (0, 0), BuildingBlock: KIFKEQ_clean_linker_1, # of connection points: 2
#     Edge 72, Type (0, 0), BuildingBlock: KIFKEQ_clean_linker_1, # of connection points: 2
#     Edge 73, Type (0, 0), BuildingBlock: KIFKEQ_clean_linker_1, # of connection points: 2
#     Edge 74, Type (0, 0), BuildingBlock: KIFKEQ_clean_linker_1, # of connection points: 2
#     Edge 75, Type (0, 0), BuildingBlock: KIFKEQ_clean_linker_1, # of connection points: 2
#     Edge 76, Type (0, 0), BuildingBlock: KIFKEQ_clean_linker_1, # of connection points: 2
#     Edge 77, Type (0, 0), BuildingBlock: KIFKEQ_clean_linker_1, # of connection points: 2
#     Edge 78, Type (0, 0), BuildingBlock: KIFKEQ_clean_linker_1, # of connection points: 2
#     Edge 79, Type (0, 0), BuildingBlock: KIFKEQ_clean_linker_1, # of connection points: 2
#     Edge 80, Type (0, 0), BuildingBlock: KIFKEQ_clean_linker_1, # of connection points: 2
#     Edge 81, Type (0, 0), BuildingBlock: KIFKEQ_clean_linker_1, # of connection points: 2
#     Edge 82, Type (0, 0), BuildingBlock: KIFKEQ_clean_linker_1, # of connection points: 2
#     Edge 83, Type (0, 0), BuildingBlock: KIFKEQ_clean_linker_1, # of connection points: 2
#     Edge 84, Type (0, 0), BuildingBlock: KIFKEQ_clean_linker_1, # of connection points: 2
#     Edge 85, Type (0, 0), BuildingBlock: KIFKEQ_clean_linker_1, # of connection points: 2
#     Edge 86, Type (0, 0), BuildingBlock: KIFKEQ_clean_linker_1, # of connection points: 2
#     Edge 87, Type (0, 0), BuildingBlock: KIFKEQ_clean_linker_1, # of connection points: 2
#     Edge 88, Type (0, 0), BuildingBlock: KIFKEQ_clean_linker_1, # of connection points: 2
#     Edge 89, Type (0, 0), BuildingBlock: KIFKEQ_clean_linker_1, # of connection points: 2
#     Edge 90, Type (0, 0), BuildingBlock: KIFKEQ_clean_linker_1, # of connection points: 2
#     Edge 91, Type (0, 0), BuildingBlock: KIFKEQ_clean_linker_1, # of connection points: 2
#     Edge 92, Type (0, 0), BuildingBlock: KIFKEQ_clean_linker_1, # of connection points: 2
#     Edge 93, Type (0, 0), BuildingBlock: KIFKEQ_clean_linker_1, # of connection points: 2
#     Edge 94, Type (0, 0), BuildingBlock: KIFKEQ_clean_linker_1, # of connection points: 2
#     Edge 95, Type (0, 0), BuildingBlock: KIFKEQ_clean_linker_1, # of connection points: 2
#     Edge 96, Type (0, 0), BuildingBlock: KIFKEQ_clean_linker_1, # of connection points: 2
#     Edge 97, Type (0, 0), BuildingBlock: KIFKEQ_clean_linker_1, # of connection points: 2
#     Edge 98, Type (0, 0), BuildingBlock: KIFKEQ_clean_linker_1, # of connection points: 2
#     Edge 99, Type (0, 0), BuildingBlock: KIFKEQ_clean_linker_1, # of connection points: 2
#     Edge 100, Type (0, 0), BuildingBlock: KIFKEQ_clean_linker_1, # of connection points: 2
#     Edge 101, Type (0, 0), BuildingBlock: KIFKEQ_clean_linker_1, # of connection points: 2
#     Edge 102, Type (0, 0), BuildingBlock: KIFKEQ_clean_linker_1, # of connection points: 2
#     Edge 103, Type (0, 0), BuildingBlock: KIFKEQ_clean_linker_1, # of connection points: 2
#     Edge 104, Type (0, 0), BuildingBlock: KIFKEQ_clean_linker_1, # of connection points: 2
#     Edge 105, Type (0, 0), BuildingBlock: KIFKEQ_clean_linker_1, # of connection points: 2
#     Edge 106, Type (0, 0), BuildingBlock: KIFKEQ_clean_linker_1, # of connection points: 2
#     Edge 107, Type (0, 0), BuildingBlock: KIFKEQ_clean_linker_1, # of connection points: 2
#     Edge 108, Type (0, 0), BuildingBlock: KIFKEQ_clean_linker_1, # of connection points: 2
#     Edge 109, Type (0, 0), BuildingBlock: KIFKEQ_clean_linker_1, # of connection points: 2
#     Edge 110, Type (0, 0), BuildingBlock: KIFKEQ_clean_linker_1, # of connection points: 2
#     Edge 111, Type (0, 0), BuildingBlock: KIFKEQ_clean_linker_1, # of connection points: 2
#     Edge 112, Type (0, 0), BuildingBlock: KIFKEQ_clean_linker_1, # of connection points: 2
#     Edge 113, Type (0, 0), BuildingBlock: KIFKEQ_clean_linker_1, # of connection points: 2
#     Edge 114, Type (0, 0), BuildingBlock: KIFKEQ_clean_linker_1, # of connection points: 2
#     Edge 115, Type (0, 0), BuildingBlock: KIFKEQ_clean_linker_1, # of connection points: 2
#     Edge 116, Type (0, 0), BuildingBlock: KIFKEQ_clean_linker_1, # of connection points: 2
#     Edge 117, Type (0, 0), BuildingBlock: KIFKEQ_clean_linker_1, # of connection points: 2
#     Edge 118, Type (0, 0), BuildingBlock: KIFKEQ_clean_linker_1, # of connection points: 2
#     Edge 119, Type (0, 0), BuildingBlock: KIFKEQ_clean_linker_1, # of connection points: 2
#     Edge 120, Type (0, 0), BuildingBlock: KIFKEQ_clean_linker_1, # of connection points: 2
#     Edge 121, Type (0, 0), BuildingBlock: KIFKEQ_clean_linker_1, # of connection points: 2
#     Edge 122, Type (0, 0), BuildingBlock: KIFKEQ_clean_linker_1, # of connection points: 2
#     Edge 123, Type (0, 0), BuildingBlock: KIFKEQ_clean_linker_1, # of connection points: 2
#     Edge 124, Type (0, 0), BuildingBlock: KIFKEQ_clean_linker_1, # of connection points: 2
#     Edge 125, Type (0, 0), BuildingBlock: KIFKEQ_clean_linker_1, # of connection points: 2
#     Edge 126, Type (0, 0), BuildingBlock: KIFKEQ_clean_linker_1, # of connection points: 2
#     Edge 127, Type (0, 0), BuildingBlock: KIFKEQ_clean_linker_1, # of connection points: 2
#     Edge 128, Type (0, 0), BuildingBlock: KIFKEQ_clean_linker_1, # of connection points: 2
#     Edge 129, Type (0, 0), BuildingBlock: KIFKEQ_clean_linker_1, # of connection points: 2
#     Edge 130, Type (0, 0), BuildingBlock: KIFKEQ_clean_linker_1, # of connection points: 2
#     Edge 131, Type (0, 0), BuildingBlock: KIFKEQ_clean_linker_1, # of connection points: 2
#     Edge 132, Type (0, 0), BuildingBlock: KIFKEQ_clean_linker_1, # of connection points: 2
#     Edge 133, Type (0, 0), BuildingBlock: KIFKEQ_clean_linker_1, # of connection points: 2
#     Edge 134, Type (0, 0), BuildingBlock: KIFKEQ_clean_linker_1, # of connection points: 2
#     Edge 135, Type (0, 0), BuildingBlock: KIFKEQ_clean_linker_1, # of connection points: 2
#     Edge 136, Type (0, 0), BuildingBlock: KIFKEQ_clean_linker_1, # of connection points: 2
#     Edge 137, Type (0, 0), BuildingBlock: KIFKEQ_clean_linker_1, # of connection points: 2
#     Edge 138, Type (0, 0), BuildingBlock: KIFKEQ_clean_linker_1, # of connection points: 2
#     Edge 139, Type (0, 0), BuildingBlock: KIFKEQ_clean_linker_1, # of connection points: 2
#     Edge 140, Type (0, 0), BuildingBlock: KIFKEQ_clean_linker_1, # of connection points: 2
#     Edge 141, Type (0, 0), BuildingBlock: KIFKEQ_clean_linker_1, # of connection points: 2
#     Edge 142, Type (0, 0), BuildingBlock: KIFKEQ_clean_linker_1, # of connection points: 2
#     Edge 143, Type (0, 0), BuildingBlock: KIFKEQ_clean_linker_1, # of connection points: 2
# Relax obj value: 0.463
# Max RMSD: 0.155
# Mean RMSD: 0.155
data_MOF--net-uli--node1-CEKHIL_clean_sbu_0--edge1-KIFKEQ_clean_linker_1
_symmetry_space_group_name_H-M    P1
_symmetry_Int_Tables_number       1
_symmetry_cell_setting            triclinic
loop_
_symmetry_equiv_pos_as_xyz
'x, y, z'
_cell_length_a     67.978136
_cell_length_b     68.011679
_cell_length_c     67.955596
_cell_angle_alpha  89.983772
_cell_angle_beta   89.985292
_cell_angle_gamma 90.030328
loop_
_atom_site_label
_atom_site_type_symbol
_atom_site_fract_x
_atom_site_fract_y
_atom_site_fract_z
_atom_type_partial_charge
Co0 Co 0.1034 0.26866 0.26182 0.0
O1 O 0.08479 0.27295 0.28268 0.0
O2 O 0.07943 0.27919 0.2511 0.0
C3 C 0.11286 0.23815 0.27072 0.0
O4 O 0.11857 0.26549 0.23627 0.0
Co5 Co 0.14784 0.26255 0.27103 0.0
O6 O 0.1489 0.25411 0.243 0.0
C7 C 0.1313 0.30275 0.27013 0.0
C8 C 0.07277 0.27883 0.26904 0.0
C9 C 0.13534 0.25862 0.23085 0.0
O10 O 0.11449 0.29601 0.26463 0.0
O11 O 0.14577 0.29175 0.27508 0.0
O12 O 0.0966 0.24078 0.26107 0.0
O13 O 0.12139 0.25402 0.27674 0.0
Co14 Co 0.76784 0.09859 0.24795 0.0
O15 O 0.7655 0.07593 0.26442 0.0
O16 O 0.7596 0.0763 0.23231 0.0
C17 C 0.79719 0.10941 0.25867 0.0
O18 O 0.76945 0.11946 0.22655 0.0
Co19 Co 0.76819 0.13961 0.26822 0.0
O20 O 0.77632 0.14823 0.24149 0.0
C21 C 0.73035 0.11995 0.26112 0.0
C22 C 0.76038 0.0664 0.24871 0.0
C23 C 0.77406 0.13784 0.22601 0.0
O24 O 0.73942 0.10579 0.25247 0.0
O25 O 0.73926 0.13403 0.2699 0.0
O26 O 0.79625 0.09512 0.24602 0.0
O27 O 0.78063 0.11418 0.26668 0.0
Co28 Co 0.88842 0.73908 0.26017 0.0
O29 O 0.91111 0.74221 0.27672 0.0
O30 O 0.91208 0.73733 0.24448 0.0
C31 C 0.87035 0.76442 0.27146 0.0
O32 O 0.86792 0.73561 0.23853 0.0
Co33 Co 0.84862 0.72815 0.28024 0.0
O34 O 0.83864 0.72886 0.25277 0.0
C35 C 0.87832 0.6975 0.27432 0.0
C36 C 0.92156 0.74004 0.26089 0.0
C37 C 0.84939 0.7317 0.23764 0.0
O38 O 0.88879 0.70968 0.2643 0.0
O39 O 0.86303 0.70273 0.28399 0.0
O40 O 0.88446 0.76746 0.25893 0.0
O41 O 0.86983 0.74696 0.27893 0.0
Co42 Co 0.25531 0.88259 0.26076 0.0
O43 O 0.25065 0.9072 0.27382 0.0
O44 O 0.25691 0.90373 0.24198 0.0
C45 C 0.22995 0.86557 0.27341 0.0
O46 O 0.26 0.85963 0.24215 0.0
Co47 Co 0.26673 0.84597 0.28568 0.0
O48 O 0.26638 0.83231 0.25988 0.0
C49 C 0.29724 0.87492 0.27565 0.0
C50 C 0.25267 0.91528 0.25662 0.0
C51 C 0.26393 0.84116 0.24352 0.0
O52 O 0.28451 0.88457 0.26554 0.0
O53 O 0.29266 0.86006 0.28629 0.0
O54 O 0.22726 0.87786 0.25906 0.0
O55 O 0.24715 0.86624 0.28159 0.0
Co56 Co 0.09975 0.74313 0.7404 0.0
O57 O 0.07601 0.74685 0.72561 0.0
O58 O 0.07717 0.73706 0.75669 0.0
C59 C 0.11496 0.77136 0.73216 0.0
O60 O 0.1217 0.7384 0.7603 0.0
Co61 Co 0.13922 0.73911 0.71742 0.0
O62 O 0.15065 0.74055 0.74428 0.0
C63 C 0.1133 0.70464 0.72123 0.0
C64 C 0.0666 0.74169 0.74139 0.0
C65 C 0.14067 0.7386 0.76008 0.0
O66 O 0.10149 0.71468 0.73209 0.0
O67 O 0.12812 0.71225 0.71242 0.0
O68 O 0.10153 0.77124 0.74575 0.0
O69 O 0.11643 0.7553 0.72211 0.0
Co70 Co 0.26007 0.10416 0.75229 0.0
O71 O 0.25316 0.08131 0.73736 0.0
O72 O 0.26357 0.08093 0.76828 0.0
C73 C 0.23401 0.12295 0.74446 0.0
O74 O 0.26789 0.12516 0.77221 0.0
Co75 Co 0.26958 0.14235 0.72882 0.0
O76 O 0.27372 0.15336 0.75558 0.0
C77 C 0.29877 0.11094 0.73023 0.0
C78 C 0.25766 0.07118 0.75289 0.0
C79 C 0.27274 0.14347 0.7715 0.0
O80 O 0.28834 0.10214 0.74334 0.0
O81 O 0.29247 0.12579 0.72054 0.0
O82 O 0.23239 0.10952 0.75796 0.0
O83 O 0.25012 0.12244 0.7344 0.0
Co84 Co 0.89362 0.23043 0.74989 0.0
O85 O 0.9178 0.232 0.7355 0.0
O86 O 0.91442 0.23887 0.76724 0.0
C87 C 0.88331 0.20078 0.73948 0.0
O88 O 0.87117 0.22959 0.76954 0.0
Co89 Co 0.85449 0.23018 0.72606 0.0
O90 O 0.84282 0.22626 0.75253 0.0
C91 C 0.87398 0.2679 0.7338 0.0
C92 C 0.92588 0.23727 0.75198 0.0
C93 C 0.85241 0.22744 0.76862 0.0
O94 O 0.88715 0.25883 0.74393 0.0
O95 O 0.86066 0.25894 0.72396 0.0
O96 O 0.89668 0.20217 0.75304 0.0
O97 O 0.87932 0.21703 0.7304 0.0
Co98 Co 0.7229 0.87307 0.71053 0.0
O99 O 0.72445 0.89547 0.69325 0.0
O100 O 0.7196 0.89688 0.72549 0.0
C101 C 0.74943 0.85674 0.69927 0.0
O102 O 0.72112 0.85336 0.73305 0.0
Co103 Co 0.71479 0.83154 0.69323 0.0
O104 O 0.71902 0.82271 0.72076 0.0
C105 C 0.68155 0.8584 0.70025 0.0
C106 C 0.72188 0.90613 0.70889 0.0
C107 C 0.72011 0.83456 0.73526 0.0
O108 O 0.69353 0.87128 0.70718 0.0
O109 O 0.6873 0.84229 0.69238 0.0
O110 O 0.75145 0.8714 0.71133 0.0
O111 O 0.73187 0.85426 0.69233 0.0
Co112 Co 0.23031 0.09368 0.23754 0.0
O113 O 0.24604 0.07094 0.23258 0.0
O114 O 0.21619 0.07036 0.24575 0.0
C115 C 0.23482 0.10865 0.20838 0.0
O116 O 0.20994 0.11454 0.24421 0.0
Co117 Co 0.25154 0.13436 0.23854 0.0
O118 O 0.22399 0.14423 0.23919 0.0
C119 C 0.25307 0.10871 0.27331 0.0
C120 C 0.23164 0.06071 0.23978 0.0
C121 C 0.20919 0.13342 0.24318 0.0
O122 O 0.2414 0.09648 0.26486 0.0
O123 O 0.26052 0.12364 0.26458 0.0
O124 O 0.22189 0.09468 0.21008 0.0
O125 O 0.24628 0.111 0.22335 0.0
Co126 Co 0.89844 0.26592 0.25994 0.0
O127 O 0.91671 0.28658 0.26603 0.0
O128 O 0.92123 0.25499 0.27273 0.0
C129 C 0.89219 0.27497 0.22865 0.0
O130 O 0.88343 0.24054 0.25533 0.0
Co131 Co 0.85495 0.27538 0.2493 0.0
O132 O 0.85431 0.24727 0.24115 0.0
C133 C 0.86718 0.27397 0.29107 0.0
C134 C 0.92806 0.27287 0.27294 0.0
C135 C 0.86732 0.23512 0.24705 0.0
O136 O 0.8847 0.26882 0.28607 0.0
O137 O 0.85387 0.27884 0.27864 0.0
O138 O 0.90792 0.265 0.23283 0.0
O139 O 0.88217 0.28105 0.24361 0.0
Co140 Co 0.7299 0.8885 0.25854 0.0
O141 O 0.71709 0.91353 0.25548 0.0
O142 O 0.74853 0.90924 0.2631 0.0
C143 C 0.71849 0.87394 0.23112 0.0
O144 O 0.74844 0.86533 0.2621 0.0
Co145 Co 0.70545 0.85043 0.26485 0.0
O146 O 0.73127 0.83706 0.26187 0.0
C147 C 0.71348 0.87631 0.29871 0.0
C148 C 0.73418 0.92124 0.2592 0.0
C149 C 0.74752 0.84642 0.26239 0.0
O150 O 0.72363 0.88769 0.2875 0.0
O151 O 0.70372 0.86158 0.29216 0.0
O152 O 0.73297 0.88635 0.23023 0.0
O153 O 0.70959 0.87297 0.24794 0.0
Co154 Co 0.10198 0.72856 0.26313 0.0
O155 O 0.07699 0.71536 0.26213 0.0
O156 O 0.08103 0.74728 0.26746 0.0
C157 C 0.11559 0.71578 0.23568 0.0
O158 O 0.12539 0.74711 0.26491 0.0
Co159 Co 0.14003 0.70365 0.26893 0.0
O160 O 0.15336 0.72936 0.26509 0.0
C161 C 0.11621 0.71453 0.30355 0.0
C162 C 0.06912 0.73245 0.26531 0.0
C163 C 0.1443 0.74578 0.26519 0.0
O164 O 0.10419 0.72397 0.29239 0.0
O165 O 0.13033 0.70403 0.29681 0.0
O166 O 0.10306 0.73012 0.2345 0.0
O167 O 0.117 0.70774 0.25287 0.0
Co168 Co 0.25996 0.89046 0.74567 0.0
O169 O 0.27516 0.91392 0.74966 0.0
O170 O 0.24429 0.91313 0.73914 0.0
C171 C 0.26716 0.87542 0.77423 0.0
O172 O 0.23944 0.86925 0.74071 0.0
Co173 Co 0.2806 0.84981 0.74263 0.0
O174 O 0.25337 0.83979 0.74651 0.0
C175 C 0.27962 0.87589 0.7079 0.0
C176 C 0.25954 0.92349 0.74429 0.0
C177 C 0.23835 0.85052 0.74318 0.0
O178 O 0.26912 0.88834 0.71752 0.0
O179 O 0.28693 0.86041 0.71577 0.0
O180 O 0.2539 0.88914 0.77361 0.0
O181 O 0.27743 0.87327 0.75836 0.0
Co182 Co 0.10516 0.25979 0.75427 0.0
O183 O 0.08013 0.27269 0.75648 0.0
O184 O 0.08451 0.24044 0.75408 0.0
C185 C 0.12144 0.27567 0.77824 0.0
O186 O 0.12861 0.24135 0.75246 0.0
Co187 Co 0.14151 0.28426 0.74093 0.0
O188 O 0.15563 0.25897 0.74459 0.0
C189 C 0.11395 0.26973 0.71107 0.0
C190 C 0.07248 0.2552 0.7558 0.0
C191 C 0.14712 0.24278 0.74876 0.0
O192 O 0.10414 0.26089 0.72461 0.0
O193 O 0.1282 0.28146 0.71477 0.0
O194 O 0.10919 0.26165 0.78253 0.0
O195 O 0.12075 0.28177 0.76021 0.0
Co196 Co 0.73907 0.08063 0.73582 0.0
O197 O 0.71985 0.06134 0.72855 0.0
O198 O 0.75135 0.0602 0.72028 0.0
C199 C 0.73051 0.08224 0.76789 0.0
O200 O 0.76304 0.09772 0.74108 0.0
Co201 Co 0.72545 0.12138 0.75173 0.0
O202 O 0.75378 0.12443 0.75832 0.0
C203 C 0.72665 0.11412 0.70876 0.0
C204 C 0.73409 0.05189 0.7201 0.0
C205 C 0.767 0.11362 0.75055 0.0
O206 O 0.73369 0.09677 0.71152 0.0
O207 O 0.72089 0.12534 0.72278 0.0
O208 O 0.74204 0.06836 0.76168 0.0
O209 O 0.72306 0.09329 0.75436 0.0
Co210 Co 0.88558 0.73151 0.73445 0.0
O211 O 0.90983 0.71863 0.74104 0.0
O212 O 0.90739 0.74938 0.73056 0.0
C213 C 0.86796 0.72265 0.76107 0.0
O214 O 0.86286 0.74954 0.72677 0.0
Co215 Co 0.84903 0.70506 0.72606 0.0
O216 O 0.83595 0.73073 0.72159 0.0
C217 C 0.8772 0.71298 0.69414 0.0
C218 C 0.91853 0.73501 0.73656 0.0
C219 C 0.84464 0.74734 0.72199 0.0
O220 O 0.88772 0.72315 0.70612 0.0
O221 O 0.86205 0.70321 0.69962 0.0
O222 O 0.88049 0.73701 0.76202 0.0
O223 O 0.86884 0.7122 0.74516 0.0
Co224 Co 0.23766 0.26008 0.09751 0.0
O225 O 0.24242 0.27918 0.07727 0.0
O226 O 0.24634 0.24698 0.07387 0.0
C227 C 0.20841 0.27144 0.10801 0.0
O228 O 0.23362 0.23613 0.11493 0.0
Co229 Co 0.23511 0.2735 0.14122 0.0
O230 O 0.22484 0.24638 0.14519 0.0
C231 C 0.27399 0.26728 0.12298 0.0
C232 C 0.24717 0.26446 0.06609 0.0
C233 C 0.2275 0.23278 0.13254 0.0
O234 O 0.26571 0.26169 0.10691 0.0
O235 O 0.26443 0.27411 0.13771 0.0
O236 O 0.20942 0.26059 0.09232 0.0
O237 O 0.2251 0.27731 0.11492 0.0
Co238 Co 0.25409 0.73045 0.89374 0.0
O239 O 0.25227 0.71436 0.91694 0.0
O240 O 0.25944 0.74616 0.91675 0.0
C241 C 0.22606 0.72049 0.879 0.0
O242 O 0.25647 0.75183 0.87297 0.0
Co243 Co 0.25823 0.71109 0.85242 0.0
O244 O 0.25232 0.73816 0.84307 0.0
C245 C 0.2934 0.71562 0.87756 0.0
C246 C 0.25619 0.73022 0.92683 0.0
C247 C 0.2542 0.75313 0.85421 0.0
O248 O 0.28308 0.72461 0.89066 0.0
O249 O 0.28587 0.70768 0.86222 0.0
O250 O 0.22553 0.73336 0.8931 0.0
O251 O 0.24295 0.71217 0.87632 0.0
Co252 Co 0.2728 0.27315 0.88855 0.0
O253 O 0.28793 0.27393 0.91251 0.0
O254 O 0.25593 0.27989 0.91021 0.0
C255 C 0.28429 0.24434 0.87675 0.0
O256 O 0.25208 0.27306 0.86712 0.0
Co257 Co 0.29318 0.2746 0.8476 0.0
O258 O 0.26614 0.27034 0.8373 0.0
C259 C 0.2861 0.31155 0.8692 0.0
C260 C 0.27143 0.27806 0.92125 0.0
C261 C 0.25098 0.27156 0.84829 0.0
O262 O 0.27757 0.30196 0.88313 0.0
O263 O 0.29488 0.30314 0.85481 0.0
O264 O 0.27093 0.2446 0.8904 0.0
O265 O 0.29206 0.26122 0.87267 0.0
Co266 Co 0.72964 0.20737 0.89773 0.0
O267 O 0.73043 0.23093 0.91312 0.0
O268 O 0.72723 0.20079 0.92524 0.0
C269 C 0.75543 0.21551 0.87863 0.0
O270 O 0.72923 0.17959 0.88617 0.0
Co271 Co 0.72275 0.20872 0.8525 0.0
O272 O 0.73609 0.18296 0.85399 0.0
C273 C 0.68891 0.21166 0.87996 0.0
C274 C 0.72895 0.2196 0.92839 0.0
C275 C 0.73476 0.17253 0.86948 0.0
O276 O 0.7001 0.20972 0.8951 0.0
O277 O 0.69524 0.21226 0.86222 0.0
O278 O 0.75838 0.20769 0.89582 0.0
O279 O 0.73737 0.21938 0.87433 0.0
Co280 Co 0.73009 0.74675 0.88698 0.0
O281 O 0.71676 0.75165 0.91146 0.0
O282 O 0.74881 0.74659 0.9084 0.0
C283 C 0.7163 0.77063 0.86861 0.0
O284 O 0.74881 0.74166 0.86409 0.0
Co285 Co 0.70556 0.73288 0.85082 0.0
O286 O 0.73099 0.73588 0.83674 0.0
C287 C 0.71904 0.70365 0.87983 0.0
C288 C 0.73385 0.75007 0.91984 0.0
C289 C 0.74744 0.73814 0.84549 0.0
O290 O 0.7269 0.71747 0.89005 0.0
O291 O 0.70854 0.70693 0.86453 0.0
O292 O 0.73042 0.77472 0.88081 0.0
O293 O 0.70893 0.75318 0.8704 0.0
Co294 Co 0.73825 0.74005 0.10081 0.0
O295 O 0.74193 0.72708 0.07594 0.0
O296 O 0.73452 0.75858 0.07955 0.0
C297 C 0.76506 0.72827 0.11653 0.0
O298 O 0.73389 0.75842 0.12403 0.0
Co299 Co 0.73029 0.71461 0.13815 0.0
O300 O 0.7319 0.74039 0.15178 0.0
C301 C 0.69746 0.72392 0.11156 0.0
C302 C 0.73839 0.74398 0.06781 0.0
C303 C 0.73209 0.7569 0.14285 0.0
O304 O 0.70911 0.73422 0.10074 0.0
O305 O 0.7035 0.71337 0.12594 0.0
O306 O 0.76668 0.74274 0.10416 0.0
O307 O 0.7481 0.71965 0.11662 0.0
Co308 Co 0.25475 0.72683 0.10816 0.0
O309 O 0.2697 0.73087 0.08458 0.0
O310 O 0.23769 0.72472 0.08546 0.0
C311 C 0.26675 0.75241 0.12549 0.0
O312 O 0.23462 0.72251 0.13008 0.0
Co313 Co 0.27761 0.7161 0.14641 0.0
O314 O 0.25118 0.71886 0.15858 0.0
C315 C 0.27043 0.6855 0.11683 0.0
C316 C 0.25338 0.72831 0.07505 0.0
C317 C 0.23513 0.72026 0.14894 0.0
O318 O 0.25968 0.69761 0.10707 0.0
O319 O 0.28068 0.6907 0.13176 0.0
O320 O 0.25307 0.75518 0.11244 0.0
O321 O 0.27447 0.73505 0.12553 0.0
Co322 Co 0.75956 0.25809 0.09906 0.0
O323 O 0.73906 0.2564 0.07997 0.0
O324 O 0.76985 0.26503 0.07345 0.0
C325 C 0.75363 0.22897 0.11375 0.0
O326 O 0.7845 0.26066 0.11549 0.0
Co327 Co 0.74768 0.25928 0.1434 0.0
O328 O 0.77611 0.25326 0.14676 0.0
C329 C 0.74376 0.29486 0.11895 0.0
C330 C 0.75219 0.26126 0.06702 0.0
C331 C 0.78894 0.25661 0.13346 0.0
O332 O 0.75288 0.28644 0.10469 0.0
O333 O 0.73866 0.28602 0.13478 0.0
O334 O 0.76378 0.22967 0.09758 0.0
O335 O 0.7455 0.24533 0.11887 0.0
Co336 Co 0.61042 0.74436 0.76219 0.0
O337 O 0.58654 0.73757 0.77574 0.0
O338 O 0.58855 0.74499 0.74404 0.0
C339 C 0.62995 0.72037 0.7739 0.0
O340 O 0.63262 0.75159 0.74332 0.0
Co341 Co 0.64647 0.75816 0.78681 0.0
O342 O 0.66009 0.75728 0.76098 0.0
C343 C 0.6156 0.78674 0.77679 0.0
C344 C 0.57766 0.74007 0.75902 0.0
C345 C 0.65112 0.75566 0.74457 0.0
O346 O 0.60623 0.77314 0.7676 0.0
O347 O 0.6312 0.78342 0.78681 0.0
O348 O 0.6176 0.71676 0.75977 0.0
O349 O 0.62773 0.73721 0.78247 0.0
Co350 Co 0.23574 0.60507 0.74945 0.0
O351 O 0.23797 0.58024 0.76265 0.0
O352 O 0.23138 0.58405 0.73091 0.0
C353 C 0.26304 0.6193 0.76164 0.0
O354 O 0.23311 0.62831 0.73081 0.0
Co355 Co 0.22917 0.6428 0.7746 0.0
O356 O 0.23004 0.65615 0.74862 0.0
C357 C 0.19551 0.61714 0.76593 0.0
C358 C 0.23461 0.57225 0.74563 0.0
C359 C 0.23111 0.64708 0.73223 0.0
O360 O 0.20656 0.60641 0.75493 0.0
O361 O 0.20223 0.631 0.77675 0.0
O362 O 0.26423 0.60687 0.74719 0.0
O363 O 0.24599 0.62038 0.77001 0.0
Co364 Co 0.38975 0.23491 0.74188 0.0
O365 O 0.41037 0.23998 0.76031 0.0
O366 O 0.41492 0.23223 0.72893 0.0
C367 C 0.37111 0.26116 0.74961 0.0
O368 O 0.37155 0.22945 0.7187 0.0
Co369 Co 0.34777 0.22609 0.7582 0.0
O370 O 0.34042 0.23049 0.73024 0.0
C371 C 0.37803 0.19506 0.75882 0.0
C372 C 0.42247 0.23715 0.74585 0.0
C373 C 0.35279 0.22971 0.71616 0.0
O374 O 0.38973 0.20604 0.74877 0.0
O375 O 0.36159 0.20114 0.76573 0.0
O376 O 0.38604 0.26312 0.73787 0.0
O377 O 0.36955 0.2442 0.75801 0.0
Co378 Co 0.76538 0.40821 0.76021 0.0
O379 O 0.77224 0.428 0.77918 0.0
O380 O 0.77961 0.42922 0.74744 0.0
C381 C 0.73362 0.40485 0.76941 0.0
O382 O 0.76027 0.3911 0.73628 0.0
Co383 Co 0.7517 0.36659 0.77362 0.0
O384 O 0.74424 0.36364 0.74546 0.0
C385 C 0.79425 0.37593 0.77187 0.0
C386 C 0.77982 0.43773 0.76459 0.0
C387 C 0.75121 0.375 0.73224 0.0
O388 O 0.79059 0.39319 0.76494 0.0
O389 O 0.78085 0.36405 0.77776 0.0
O390 O 0.7389 0.41917 0.75794 0.0
O391 O 0.74784 0.39451 0.77656 0.0
Co392 Co 0.59484 0.2308 0.23475 0.0
O393 O 0.57522 0.22585 0.21501 0.0
O394 O 0.57374 0.21568 0.24599 0.0
C395 C 0.59906 0.26315 0.22891 0.0
O396 O 0.61154 0.2335 0.25929 0.0
Co397 Co 0.63696 0.24455 0.22335 0.0
O398 O 0.63955 0.24958 0.2521 0.0
C399 C 0.62675 0.20232 0.2213 0.0
C400 C 0.56549 0.21682 0.22877 0.0
C401 C 0.6277 0.24185 0.26443 0.0
O402 O 0.60943 0.20593 0.22802 0.0
O403 O 0.63918 0.2158 0.2169 0.0
O404 O 0.58427 0.25708 0.23937 0.0
O405 O 0.60916 0.24952 0.22036 0.0
Co406 Co 0.75874 0.60829 0.23598 0.0
O407 O 0.75541 0.58385 0.22229 0.0
O408 O 0.76178 0.5868 0.2542 0.0
C409 C 0.73211 0.62392 0.22406 0.0
O410 O 0.76255 0.63096 0.25514 0.0
Co411 Co 0.76683 0.64653 0.21221 0.0
O412 O 0.76396 0.65941 0.23828 0.0
C413 C 0.7994 0.61897 0.21987 0.0
C414 C 0.75806 0.57547 0.23924 0.0
C415 C 0.7637 0.64985 0.25443 0.0
O416 O 0.78788 0.60829 0.23044 0.0
O417 O 0.79334 0.63373 0.20985 0.0
O418 O 0.7304 0.61132 0.23829 0.0
O419 O 0.74922 0.62452 0.21574 0.0
Co420 Co 0.39158 0.76511 0.22758 0.0
O421 O 0.41579 0.76142 0.21344 0.0
O422 O 0.41365 0.76887 0.2451 0.0
C423 C 0.37556 0.73825 0.21661 0.0
O424 O 0.36918 0.76942 0.24706 0.0
Co425 Co 0.35296 0.77269 0.20407 0.0
O426 O 0.34053 0.77061 0.23044 0.0
C427 C 0.37992 0.80572 0.21197 0.0
C428 C 0.42469 0.76487 0.22998 0.0
C429 C 0.35026 0.77075 0.2465 0.0
O430 O 0.39137 0.79414 0.2216 0.0
O431 O 0.36491 0.79962 0.20234 0.0
O432 O 0.38852 0.73681 0.23056 0.0
O433 O 0.37493 0.75514 0.20789 0.0
Co434 Co 0.26601 0.39639 0.24706 0.0
O435 O 0.27001 0.42031 0.23277 0.0
O436 O 0.2589 0.41848 0.26342 0.0
C437 C 0.29461 0.38152 0.23991 0.0
O438 O 0.26067 0.37418 0.2664 0.0
Co439 Co 0.26314 0.35734 0.22336 0.0
O440 O 0.26385 0.34553 0.25009 0.0
C441 C 0.22814 0.3825 0.2268 0.0
C442 C 0.26388 0.42933 0.24843 0.0
C443 C 0.26111 0.35525 0.26593 0.0
O444 O 0.23795 0.39449 0.23766 0.0
O445 O 0.236 0.3677 0.21821 0.0
O446 O 0.29386 0.39485 0.25357 0.0
O447 O 0.27906 0.38014 0.22906 0.0
Co448 Co 0.78747 0.61738 0.7667 0.0
O449 O 0.80462 0.59486 0.76597 0.0
O450 O 0.77252 0.5938 0.7716 0.0
C451 C 0.79795 0.63253 0.73914 0.0
O452 O 0.76509 0.63724 0.76794 0.0
Co453 Co 0.80511 0.65923 0.77222 0.0
O454 O 0.77761 0.66789 0.76758 0.0
C455 C 0.79818 0.63437 0.80707 0.0
C456 C 0.78904 0.58439 0.7695 0.0
C457 C 0.76303 0.65608 0.76765 0.0
O458 O 0.79145 0.62068 0.79589 0.0
O459 O 0.80577 0.65025 0.80035 0.0
O460 O 0.78595 0.6177 0.73812 0.0
O461 O 0.8055 0.63564 0.75635 0.0
Co462 Co 0.39703 0.75166 0.75816 0.0
O463 O 0.42207 0.76465 0.75675 0.0
O464 O 0.41794 0.73276 0.76202 0.0
C465 C 0.38328 0.76514 0.73109 0.0
O466 O 0.37344 0.73329 0.75988 0.0
Co467 Co 0.35946 0.77706 0.76498 0.0
O468 O 0.34585 0.75162 0.76044 0.0
C469 C 0.38407 0.76622 0.79889 0.0
C470 C 0.42993 0.74748 0.75951 0.0
C471 C 0.35456 0.73501 0.76005 0.0
O472 O 0.39524 0.75593 0.78757 0.0
O473 O 0.37036 0.77736 0.79235 0.0
O474 O 0.39554 0.75061 0.72947 0.0
O475 O 0.38211 0.77275 0.74848 0.0
Co476 Co 0.23499 0.39191 0.73672 0.0
O477 O 0.22019 0.41572 0.73383 0.0
O478 O 0.2525 0.4142 0.73823 0.0
C479 C 0.22183 0.37471 0.71166 0.0
O480 O 0.25501 0.3699 0.73961 0.0
Co481 Co 0.21214 0.35389 0.74836 0.0
O482 O 0.23859 0.34175 0.74614 0.0
C483 C 0.22297 0.38204 0.77923 0.0
C484 C 0.23683 0.4249 0.73568 0.0
C485 C 0.25445 0.35131 0.7431 0.0
O486 O 0.23195 0.39256 0.7663 0.0
O487 O 0.21248 0.36707 0.77472 0.0
O488 O 0.23521 0.38793 0.7083 0.0
O489 O 0.21468 0.3748 0.7293 0.0
Co490 Co 0.59735 0.27996 0.75991 0.0
O491 O 0.57866 0.25923 0.75679 0.0
O492 O 0.5712 0.28977 0.76541 0.0
C493 C 0.61345 0.27386 0.73171 0.0
O494 O 0.61318 0.3053 0.76359 0.0
Co495 Co 0.64194 0.27032 0.76309 0.0
O496 O 0.64419 0.29806 0.75456 0.0
C497 C 0.61629 0.26696 0.79824 0.0
C498 C 0.56527 0.27205 0.76116 0.0
C499 C 0.63066 0.31043 0.75835 0.0
O500 O 0.60115 0.27267 0.78846 0.0
O501 O 0.63339 0.26459 0.7907 0.0
O502 O 0.59757 0.28444 0.73155 0.0
O503 O 0.61806 0.26604 0.74839 0.0
Co504 Co 0.7254 0.39858 0.25287 0.0
O505 O 0.74443 0.41923 0.25413 0.0
O506 O 0.71256 0.42357 0.24845 0.0
C507 C 0.73476 0.38221 0.2801 0.0
O508 O 0.70175 0.38025 0.25092 0.0
Co509 Co 0.74077 0.3557 0.24718 0.0
O510 O 0.71313 0.34927 0.25437 0.0
C511 C 0.74005 0.38298 0.21359 0.0
C512 C 0.73003 0.43118 0.25056 0.0
C513 C 0.69906 0.36164 0.25328 0.0
O514 O 0.73014 0.39549 0.22371 0.0
O515 O 0.74737 0.36722 0.22081 0.0
O516 O 0.72345 0.39754 0.28162 0.0
O517 O 0.74199 0.37924 0.26282 0.0
Co518 Co 0.60604 0.76319 0.23687 0.0
O519 O 0.58219 0.77795 0.23994 0.0
O520 O 0.58356 0.74642 0.23191 0.0
C521 C 0.62143 0.77316 0.26454 0.0
O522 O 0.62814 0.74333 0.23303 0.0
Co523 Co 0.64518 0.78637 0.23098 0.0
O524 O 0.65693 0.75979 0.23355 0.0
C525 C 0.61933 0.77958 0.1969 0.0
C526 C 0.57289 0.76185 0.23572 0.0
C527 C 0.64711 0.74381 0.23271 0.0
O528 O 0.60747 0.76974 0.20791 0.0
O529 O 0.63425 0.78887 0.20368 0.0
O530 O 0.60805 0.75956 0.26529 0.0
O531 O 0.62274 0.78222 0.24786 0.0
Co532 Co 0.24195 0.60844 0.23843 0.0
O533 O 0.23005 0.58376 0.24529 0.0
O534 O 0.26093 0.58767 0.23547 0.0
C535 C 0.23137 0.62605 0.26433 0.0
O536 O 0.25944 0.63155 0.23086 0.0
Co537 Co 0.2155 0.64428 0.22841 0.0
O538 O 0.2409 0.65876 0.22762 0.0
C539 C 0.22152 0.61362 0.19858 0.0
C540 C 0.24703 0.57593 0.2414 0.0
C541 C 0.25756 0.65015 0.22779 0.0
O542 O 0.23393 0.60516 0.21008 0.0
O543 O 0.2111 0.62836 0.20394 0.0
O544 O 0.24637 0.61438 0.26608 0.0
O545 O 0.22172 0.62457 0.24799 0.0
Co546 Co 0.39045 0.22046 0.24418 0.0
O547 O 0.41 0.20035 0.24053 0.0
O548 O 0.41352 0.23178 0.23246 0.0
C549 C 0.38169 0.21334 0.27529 0.0
O550 O 0.37418 0.24535 0.24627 0.0
Co551 Co 0.34661 0.20962 0.25129 0.0
O552 O 0.34415 0.23799 0.25808 0.0
C553 C 0.3622 0.21033 0.21075 0.0
C554 C 0.42104 0.21423 0.23339 0.0
C555 C 0.35721 0.25042 0.25288 0.0
O556 O 0.37912 0.21575 0.21724 0.0
O557 O 0.34783 0.20565 0.22202 0.0
O558 O 0.39763 0.22328 0.27179 0.0
O559 O 0.37338 0.20563 0.26002 0.0
Co560 Co 0.76232 0.7629 0.60738 0.0
O561 O 0.75683 0.77634 0.58316 0.0
O562 O 0.76641 0.7453 0.58532 0.0
C563 C 0.73535 0.77233 0.62419 0.0
O564 O 0.76882 0.74436 0.63012 0.0
Co565 Co 0.76986 0.78833 0.64483 0.0
O566 O 0.76943 0.76231 0.65799 0.0
C567 C 0.80274 0.77986 0.61779 0.0
C568 C 0.76108 0.76002 0.57428 0.0
C569 C 0.7706 0.74591 0.64896 0.0
O570 O 0.7909 0.77057 0.60633 0.0
O571 O 0.79696 0.78919 0.63311 0.0
O572 O 0.73442 0.7581 0.61152 0.0
O573 O 0.75159 0.78226 0.62398 0.0
Co574 Co 0.73156 0.23625 0.39726 0.0
O575 O 0.73506 0.2205 0.42043 0.0
O576 O 0.73982 0.25276 0.41866 0.0
C577 C 0.7023 0.22456 0.38737 0.0
O578 O 0.72865 0.25735 0.37632 0.0
Co579 Co 0.73054 0.21629 0.35617 0.0
O580 O 0.72223 0.24287 0.34728 0.0
C581 C 0.76877 0.2243 0.37477 0.0
C582 C 0.73975 0.23681 0.42921 0.0
C583 C 0.72408 0.25818 0.35797 0.0
O584 O 0.75989 0.23253 0.3893 0.0
O585 O 0.75968 0.21544 0.36085 0.0
O586 O 0.70329 0.23729 0.40158 0.0
O587 O 0.71893 0.21695 0.38214 0.0
Co588 Co 0.75986 0.75859 0.39278 0.0
O589 O 0.77465 0.75588 0.41668 0.0
O590 O 0.74258 0.76141 0.41529 0.0
C591 C 0.77211 0.73237 0.37666 0.0
O592 O 0.73992 0.76159 0.3705 0.0
Co593 Co 0.78297 0.76749 0.35413 0.0
O594 O 0.75677 0.76314 0.34197 0.0
C595 C 0.77348 0.79999 0.38109 0.0
C596 C 0.75819 0.7584 0.42598 0.0
C597 C 0.74063 0.76247 0.35153 0.0
O598 O 0.76416 0.78795 0.39234 0.0
O599 O 0.78359 0.79438 0.36621 0.0
O600 O 0.75849 0.73011 0.38985 0.0
O601 O 0.77986 0.74971 0.376 0.0
Co602 Co 0.24332 0.76898 0.38639 0.0
O603 O 0.24568 0.78409 0.41016 0.0
O604 O 0.2418 0.75173 0.40892 0.0
C605 C 0.26867 0.78192 0.36936 0.0
O606 O 0.24075 0.74861 0.36464 0.0
Co607 Co 0.23236 0.79101 0.34765 0.0
O608 O 0.23386 0.76424 0.33613 0.0
C609 C 0.20105 0.78078 0.37566 0.0
C610 C 0.24405 0.76751 0.4195 0.0
C611 C 0.23698 0.74865 0.34608 0.0
O612 O 0.21375 0.77193 0.38655 0.0
O613 O 0.20587 0.79102 0.3606 0.0
O614 O 0.27175 0.76879 0.38289 0.0
O615 O 0.25103 0.78905 0.36897 0.0
Co616 Co 0.23779 0.23716 0.39072 0.0
O617 O 0.21751 0.23485 0.41024 0.0
O618 O 0.2493 0.22957 0.41547 0.0
C619 C 0.22835 0.26617 0.37778 0.0
O620 O 0.26277 0.23858 0.37435 0.0
Co621 Co 0.22681 0.23776 0.34617 0.0
O622 O 0.25476 0.24588 0.34304 0.0
C623 C 0.23004 0.19984 0.3672 0.0
C624 C 0.23148 0.2303 0.42243 0.0
C625 C 0.26746 0.24309 0.35657 0.0
O626 O 0.2352 0.20863 0.38312 0.0
O627 O 0.22482 0.20881 0.35149 0.0
O628 O 0.23841 0.2657 0.39402 0.0
O629 O 0.22216 0.24931 0.37162 0.0
Co630 Co 0.22582 0.22284 0.60043 0.0
O631 O 0.22397 0.20601 0.57788 0.0
O632 O 0.21585 0.23758 0.57834 0.0
C633 C 0.25641 0.21428 0.60984 0.0
O634 O 0.22643 0.24479 0.62074 0.0
Co635 Co 0.22965 0.20423 0.64205 0.0
O636 O 0.23392 0.23191 0.65031 0.0
C637 C 0.1904 0.20785 0.62386 0.0
C638 C 0.21786 0.22138 0.56836 0.0
C639 C 0.23033 0.2466 0.6392 0.0
O640 O 0.19814 0.21628 0.60878 0.0
O641 O 0.20063 0.20053 0.6379 0.0
O642 O 0.25377 0.22678 0.59566 0.0
O643 O 0.24069 0.20541 0.61589 0.0
Co644 Co 0.75255 0.26074 0.60672 0.0
O645 O 0.76863 0.25651 0.58389 0.0
O646 O 0.73643 0.25125 0.58552 0.0
C647 C 0.76371 0.29064 0.61528 0.0
O648 O 0.73113 0.26422 0.6272 0.0
Co649 Co 0.77155 0.26416 0.6481 0.0
O650 O 0.74517 0.27458 0.65533 0.0
C651 C 0.76493 0.2249 0.63103 0.0
C652 C 0.7525 0.2512 0.57513 0.0
C653 C 0.73006 0.27124 0.64473 0.0
O654 O 0.75677 0.2329 0.61596 0.0
O655 O 0.77309 0.23483 0.64481 0.0
O656 O 0.75107 0.28875 0.60109 0.0
O657 O 0.77143 0.2744 0.62152 0.0
Co658 Co 0.24608 0.76392 0.60054 0.0
O659 O 0.2306 0.76344 0.57693 0.0
O660 O 0.26314 0.76572 0.57784 0.0
C661 C 0.23176 0.7385 0.61635 0.0
O662 O 0.26672 0.76457 0.62226 0.0
Co663 Co 0.22448 0.77416 0.63975 0.0
O664 O 0.25141 0.77187 0.65087 0.0
C665 C 0.23442 0.80577 0.61236 0.0
C666 C 0.2471 0.7648 0.56742 0.0
C667 C 0.26686 0.76816 0.64087 0.0
O668 O 0.2444 0.79356 0.60189 0.0
O669 O 0.22302 0.8003 0.62631 0.0
O670 O 0.24479 0.73527 0.60276 0.0
O671 O 0.22581 0.75648 0.61764 0.0
H672 H 0.9478 0.30747 0.26851 0.0
H673 H 0.95491 0.24776 0.28912 0.0
H674 H 0.9832 0.31267 0.27132 0.0
H675 H 0.9903 0.25305 0.29197 0.0
H676 H 0.05304 0.27108 0.30312 0.0
H677 H 0.01755 0.27285 0.30852 0.0
H678 H 0.00999 0.29717 0.25031 0.0
H679 H 0.0454 0.29533 0.24483 0.0
C680 C 0.95684 0.2956 0.27408 0.0
C681 C 0.94863 0.27711 0.27836 0.0
C682 C 0.9771 0.29858 0.2756 0.0
C683 C 0.98946 0.28322 0.28167 0.0
C684 C 0.98108 0.26519 0.28736 0.0
C685 C 0.96084 0.26214 0.28564 0.0
C686 C 0.04384 0.27717 0.29163 0.0
C687 C 0.05194 0.2829 0.27347 0.0
C688 C 0.02355 0.27811 0.29472 0.0
C689 C 0.01106 0.28506 0.27982 0.0
C690 C 0.0193 0.29192 0.26213 0.0
C691 C 0.03955 0.29075 0.25894 0.0
H692 H 0.70897 0.94912 0.24508 0.0
H693 H 0.76685 0.94157 0.2703 0.0
H694 H 0.71503 0.98444 0.24188 0.0
H695 H 0.77284 0.97678 0.26707 0.0
H696 H 0.76586 0.04236 0.28005 0.0
H697 H 0.75898 0.00739 0.28243 0.0
H698 H 0.73798 0.00727 0.22246 0.0
H699 H 0.74488 0.0426 0.21999 0.0
C700 C 0.72293 0.95502 0.25002 0.0
C701 C 0.73742 0.94264 0.25803 0.0
C702 C 0.72643 0.97517 0.24803 0.0
C703 C 0.74439 0.98328 0.25421 0.0
C704 C 0.7588 0.97091 0.26233 0.0
C705 C 0.75538 0.95077 0.26415 0.0
C706 C 0.75976 0.03494 0.26733 0.0
C707 C 0.75595 0.04521 0.24979 0.0
C708 C 0.75592 0.01488 0.2687 0.0
C709 C 0.74805 0.00465 0.25261 0.0
C710 C 0.74397 0.0149 0.23511 0.0
C711 C 0.748 0.03503 0.23367 0.0
H712 H 0.04764 0.76541 0.25709 0.0
H713 H 0.04203 0.70459 0.27451 0.0
H714 H 0.01161 0.76827 0.25591 0.0
H715 H 0.00618 0.70769 0.27392 0.0
H716 H 0.94443 0.73306 0.2929 0.0
H717 H 0.98036 0.73223 0.29455 0.0
H718 H 0.98368 0.74699 0.2329 0.0
H719 H 0.94759 0.74728 0.23101 0.0
C720 C 0.03871 0.75277 0.26088 0.0
C721 C 0.04756 0.73478 0.26587 0.0
C722 C 0.01819 0.75438 0.2601 0.0
C723 C 0.00628 0.73818 0.2648 0.0
C724 C 0.01512 0.72037 0.27027 0.0
C725 C 0.03558 0.71861 0.27058 0.0
C726 C 0.95281 0.73618 0.2797 0.0
C727 C 0.94325 0.74016 0.2618 0.0
C728 C 0.97332 0.73569 0.28067 0.0
C729 C 0.98464 0.73961 0.26387 0.0
C730 C 0.97516 0.74404 0.24605 0.0
C731 C 0.9546 0.74409 0.24497 0.0
H732 H 0.24124 0.94209 0.28417 0.0
H733 H 0.2561 0.93635 0.22259 0.0
H734 H 0.23478 0.97702 0.27936 0.0
H735 H 0.2494 0.97127 0.21776 0.0
H736 H 0.26029 0.03773 0.22427 0.0
H737 H 0.2646 0.00249 0.22796 0.0
H738 H 0.21122 -0.00058 0.26234 0.0
H739 H 0.20696 0.03503 0.25881 0.0
C740 C 0.24313 0.94829 0.26961 0.0
C741 C 0.24929 0.93652 0.25377 0.0
C742 C 0.23924 0.96825 0.26683 0.0
C743 C 0.24152 0.97685 0.24818 0.0
C744 C 0.24767 0.96506 0.23234 0.0
C745 C 0.2515 0.94508 0.2351 0.0
C746 C 0.24939 0.02957 0.23256 0.0
C747 C 0.23331 0.03915 0.24132 0.0
C748 C 0.25181 0.00934 0.23455 0.0
C749 C 0.23825 -0.0018 0.24542 0.0
C750 C 0.22199 0.0077 0.25401 0.0
C751 C 0.21949 0.02802 0.25191 0.0
H752 H 0.94167 0.76613 0.72552 0.0
H753 H 0.94418 0.70827 0.75168 0.0
H754 H 0.97748 0.76868 0.72794 0.0
H755 H 0.97984 0.71075 0.75389 0.0
H756 H 0.04222 0.72942 0.77114 0.0
H757 H 0.00621 0.72896 0.77108 0.0
H758 H 0.00605 0.75283 0.71217 0.0
H759 H 0.04182 0.75348 0.71228 0.0
C760 C 0.94985 0.75399 0.73181 0.0
C761 C 0.94012 0.73698 0.73832 0.0
C762 C 0.97034 0.75542 0.73313 0.0
C763 C 0.98148 0.7399 0.7411 0.0
C764 C 0.97167 0.72304 0.7479 0.0
C765 C 0.95124 0.72158 0.74648 0.0
C766 C 0.03446 0.7346 0.75822 0.0
C767 C 0.04485 0.74142 0.74171 0.0
C768 C 0.01387 0.73429 0.75815 0.0
C769 C 0.0033 0.7409 0.74162 0.0
C770 C 0.01374 0.7479 0.72522 0.0
C771 C 0.03427 0.74811 0.72525 0.0
H772 H 0.27022 0.0453 0.7811 0.0
H773 H 0.24293 0.04815 0.72373 0.0
H774 H 0.26999 0.00937 0.77929 0.0
H775 H 0.24294 0.01244 0.72185 0.0
H776 H 0.22907 0.94764 0.73412 0.0
H777 H 0.22762 0.98339 0.73722 0.0
H778 H 0.2871 0.9839 0.75958 0.0
H779 H 0.28849 0.94823 0.75671 0.0
C780 C 0.2641 0.03827 0.76818 0.0
C781 C 0.25666 0.04952 0.75254 0.0
C782 C 0.26407 0.01773 0.76708 0.0
C783 C 0.2565 0.00812 0.75039 0.0
C784 C 0.24869 0.01941 0.73498 0.0
C785 C 0.2488 0.03988 0.73602 0.0
C786 C 0.24185 0.95541 0.73962 0.0
C787 C 0.2589 0.94515 0.74513 0.0
C788 C 0.24103 0.97586 0.74137 0.0
C789 C 0.25722 0.98641 0.74875 0.0
C790 C 0.27429 0.97614 0.75415 0.0
C791 C 0.27514 0.95572 0.75233 0.0
H792 H 0.05193 0.2217 0.74786 0.0
H793 H 0.04463 0.28225 0.76575 0.0
H794 H 0.01624 0.21743 0.74795 0.0
H795 H 0.00895 0.27787 0.76592 0.0
H796 H 0.94674 0.2535 0.78238 0.0
H797 H 0.9825 0.25768 0.78446 0.0
H798 H 0.98884 0.23203 0.72669 0.0
H799 H 0.95332 0.22797 0.72451 0.0
C800 C 0.04272 0.23404 0.75192 0.0
C801 C 0.05102 0.25233 0.75668 0.0
C802 C 0.02233 0.23161 0.75191 0.0
C803 C 0.00992 0.24735 0.75689 0.0
C804 C 0.01823 0.26549 0.76215 0.0
C805 C 0.03861 0.268 0.76193 0.0
C806 C 0.9558 0.24882 0.77013 0.0
C807 C 0.94728 0.24043 0.75329 0.0
C808 C 0.9762 0.25125 0.77131 0.0
C809 C 0.98835 0.24504 0.75578 0.0
C810 C 0.97979 0.23671 0.73896 0.0
C811 C 0.95946 0.23452 0.73767 0.0
H812 H 0.76133 0.02656 0.70441 0.0
H813 H 0.69999 0.03103 0.72061 0.0
H814 H 0.75714 0.99119 0.699 0.0
H815 H 0.69597 0.99586 0.71537 0.0
H816 H 0.70912 0.93192 0.73673 0.0
H817 H 0.71099 0.96775 0.73583 0.0
H818 H 0.7377 0.96515 0.67825 0.0
H819 H 0.73562 0.92919 0.67899 0.0
C820 C 0.7469 0.02011 0.7064 0.0
C821 C 0.73106 0.03153 0.71316 0.0
C822 C 0.7445 -0.00011 0.70329 0.0
C823 C 0.7263 0.99083 0.70706 0.0
C824 C 0.71022 0.00247 0.71264 0.0
C825 C 0.71254 0.02263 0.71555 0.0
C826 C 0.71525 0.93898 0.72382 0.0
C827 C 0.72222 0.92779 0.70794 0.0
C828 C 0.71623 0.95947 0.72326 0.0
C829 C 0.72444 0.96916 0.70693 0.0
C830 C 0.73135 0.958 0.691 0.0
C831 C 0.73007 0.93748 0.69142 0.0
H832 H 0.26276 0.23776 0.04035 0.0
H833 H 0.24413 0.29833 0.04501 0.0
H834 H 0.27054 0.24294 0.00557 0.0
H835 H 0.25182 0.30341 0.01031 0.0
H836 H 0.24094 0.29215 0.94308 0.0
H837 H 0.23679 0.29001 0.9787 0.0
H838 H 0.29408 0.26313 0.98387 0.0
H839 H 0.29835 0.26538 0.94819 0.0
C840 C 0.26044 0.25218 0.03398 0.0
C841 C 0.25275 0.26761 0.04535 0.0
C842 C 0.265 0.25517 0.01415 0.0
C843 C 0.26174 0.27357 0.00531 0.0
C844 C 0.25434 0.28905 0.01676 0.0
C845 C 0.25 0.28614 0.03661 0.0
C846 C 0.25276 0.28604 0.95185 0.0
C847 C 0.26993 0.27889 0.94288 0.0
C848 C 0.25041 0.28487 0.97222 0.0
C849 C 0.26508 0.2763 0.98397 0.0
C850 C 0.28249 0.26964 0.97508 0.0
C851 C 0.28497 0.27106 0.95471 0.0
H852 H 0.26731 0.75987 0.95162 0.0
H853 H 0.24417 0.70068 0.95112 0.0
H854 H 0.26576 0.76008 0.98756 0.0
H855 H 0.24264 0.70093 0.98699 0.0
H856 H 0.22361 0.71749 0.05007 0.0
H857 H 0.22395 0.71843 0.01403 0.0
H858 H 0.28277 0.74242 0.0152 0.0
H859 H 0.28246 0.7415 0.05101 0.0
C860 C 0.26196 0.7469 0.95918 0.0
C861 C 0.25593 0.73024 0.94856 0.0
C862 C 0.26109 0.74701 0.97973 0.0
C863 C 0.254 0.73054 0.99004 0.0
C864 C 0.24794 0.71391 0.97941 0.0
C865 C 0.24898 0.71372 0.95889 0.0
C866 C 0.23655 0.72303 0.0426 0.0
C867 C 0.25301 0.72937 0.05334 0.0
C868 C 0.23679 0.72348 0.02201 0.0
C869 C 0.2534 0.7305 0.01184 0.0
C870 C 0.2697 0.73712 0.02263 0.0
C871 C 0.26955 0.73647 0.04315 0.0
H872 H 0.74186 0.25604 0.93855 0.0
H873 H 0.72 0.20164 0.96319 0.0
H874 H 0.74665 0.26915 0.97167 0.0
H875 H 0.72457 0.21494 0.99631 0.0
H876 H 0.71685 0.25221 0.05086 0.0
H877 H 0.71007 0.24401 0.01671 0.0
H878 H 0.7698 0.2589 0.00109 0.0
H879 H 0.77682 0.26697 0.03553 0.0
C880 C 0.73788 0.24697 0.95104 0.0
C881 C 0.73054 0.22782 0.94835 0.0
C882 C 0.74073 0.25446 0.96993 0.0
C883 C 0.73595 0.24305 0.98641 0.0
C884 C 0.7282 0.22407 0.98375 0.0
C885 C 0.72565 0.21645 0.96486 0.0
C886 C 0.72851 0.25406 0.04015 0.0
C887 C 0.74747 0.26 0.0459 0.0
C888 C 0.7246 0.24927 0.02063 0.0
C889 C 0.73949 0.25057 0.00644 0.0
C890 C 0.75809 0.25779 0.01185 0.0
C891 C 0.7621 0.2624 0.03151 0.0
H892 H 0.76585 0.74063 0.94238 0.0
H893 H 0.70627 0.76237 0.94619 0.0
H894 H 0.76808 0.74067 0.97832 0.0
H895 H 0.70851 0.76239 0.98201 0.0
H896 H 0.7261 0.77553 0.04596 0.0
H897 H 0.72629 0.77874 0.01007 0.0
H898 H 0.75194 0.72089 0.00505 0.0
H899 H 0.75176 0.71766 0.04076 0.0
C900 C 0.75331 0.74558 0.95087 0.0
C901 C 0.73586 0.7514 0.94147 0.0
C902 C 0.75455 0.74552 0.97143 0.0
C903 C 0.73844 0.75148 0.98297 0.0
C904 C 0.72122 0.75788 0.97352 0.0
C905 C 0.71991 0.75775 0.953 0.0
C906 C 0.73185 0.76355 0.03717 0.0
C907 C 0.73884 0.74632 0.04617 0.0
C908 C 0.7319 0.76537 0.01665 0.0
C909 C 0.73917 0.75008 0.00476 0.0
C910 C 0.74647 0.73301 0.01381 0.0
C911 C 0.74622 0.73111 0.03428 0.0
H912 H 0.55242 0.72496 0.78627 0.0
H913 H 0.55402 0.75172 0.72862 0.0
H914 H 0.51654 0.72514 0.78543 0.0
H915 H 0.51804 0.75186 0.7278 0.0
H916 H 0.4572 0.77459 0.74856 0.0
H917 H 0.49276 0.77076 0.74704 0.0
H918 H 0.48726 0.71087 0.76743 0.0
H919 H 0.45143 0.71468 0.76894 0.0
C920 C 0.54511 0.73069 0.77332 0.0
C921 C 0.55602 0.73846 0.75756 0.0
C922 C 0.52456 0.73067 0.77281 0.0
C923 C 0.51451 0.73861 0.75661 0.0
C924 C 0.52543 0.74584 0.74057 0.0
C925 C 0.546 0.74566 0.74099 0.0
C926 C 0.46353 0.76058 0.75273 0.0
C927 C 0.45152 0.74495 0.75894 0.0
C928 C 0.4839 0.75835 0.75168 0.0
C929 C 0.49277 0.74049 0.75699 0.0
C930 C 0.4808 0.72483 0.7633 0.0
C931 C 0.46032 0.727 0.76414 0.0
H932 H 0.26738 0.44873 0.74651 0.0
H933 H 0.20791 0.44994 0.7241 0.0
H934 H 0.26757 0.4847 0.74771 0.0
H935 H 0.20814 0.48576 0.72528 0.0
H936 H 0.22368 0.55071 0.71344 0.0
H937 H 0.22535 0.51496 0.70955 0.0
H938 H 0.24894 0.50966 0.76831 0.0
H939 H 0.24725 0.54522 0.77225 0.0
C940 C 0.25444 0.45667 0.74169 0.0
C941 C 0.2376 0.44656 0.73532 0.0
C942 C 0.25452 0.47721 0.74246 0.0
C943 C 0.23785 0.48796 0.73662 0.0
C944 C 0.22124 0.47784 0.7297 0.0
C945 C 0.22108 0.45734 0.72916 0.0
C946 C 0.2292 0.54188 0.7255 0.0
C947 C 0.23525 0.55072 0.74317 0.0
C948 C 0.23014 0.52147 0.72329 0.0
C949 C 0.23737 0.50961 0.7386 0.0
C950 C 0.24355 0.51849 0.75618 0.0
C951 C 0.24241 0.53883 0.75848 0.0
H952 H 0.45226 0.23125 0.71932 0.0
H953 H 0.44044 0.25183 0.77834 0.0
H954 H 0.48702 0.23972 0.72351 0.0
H955 H 0.47499 0.26025 0.78242 0.0
H956 H 0.53319 0.2943 0.77124 0.0
H957 H 0.49849 0.28523 0.76759 0.0
H958 H 0.51563 0.22856 0.74466 0.0
H959 H 0.55008 0.23748 0.74827 0.0
C960 C 0.45709 0.23743 0.73319 0.0
C961 C 0.44366 0.24087 0.74849 0.0
C962 C 0.47694 0.24226 0.73559 0.0
C963 C 0.48358 0.25076 0.75325 0.0
C964 C 0.47018 0.25397 0.76858 0.0
C965 C 0.45044 0.24898 0.76627 0.0
C966 C 0.5295 0.2799 0.76553 0.0
C967 C 0.54432 0.26662 0.76006 0.0
C968 C 0.5097 0.2747 0.76348 0.0
C969 C 0.50446 0.25624 0.75574 0.0
C970 C 0.51929 0.24296 0.75042 0.0
C971 C 0.539 0.24806 0.75264 0.0
H972 H 0.77651 0.4603 0.79751 0.0
H973 H 0.79626 0.46216 0.73707 0.0
H974 H 0.78097 0.49576 0.80007 0.0
H975 H 0.80082 0.49775 0.73975 0.0
H976 H 0.76091 0.55927 0.78318 0.0
H977 H 0.76187 0.52339 0.78346 0.0
H978 H 0.8201 0.52462 0.75812 0.0
H979 H 0.81925 0.5606 0.75795 0.0
C980 C 0.78217 0.46821 0.78487 0.0
C981 C 0.78587 0.45846 0.76702 0.0
C982 C 0.7846 0.48853 0.78633 0.0
C983 C 0.791 0.49949 0.77005 0.0
C984 C 0.7959 0.48962 0.75255 0.0
C985 C 0.79327 0.46927 0.75102 0.0
C986 C 0.77397 0.5519 0.7778 0.0
C987 C 0.78998 0.56272 0.77051 0.0
C988 C 0.77457 0.53138 0.77807 0.0
C989 C 0.79109 0.52126 0.77084 0.0
C990 C 0.80718 0.53207 0.7637 0.0
C991 C 0.80669 0.55263 0.76368 0.0
H992 H 0.44613 0.23927 0.21478 0.0
H993 H 0.44261 0.18098 0.23987 0.0
H994 H 0.48136 0.23512 0.20999 0.0
H995 H 0.47798 0.17679 0.23495 0.0
H996 H 0.54318 0.22135 0.19572 0.0
H997 H 0.50774 0.21649 0.19283 0.0
H998 H 0.50613 0.19313 0.25193 0.0
H999 H 0.54154 0.19781 0.25478 0.0
C1000 C 0.45283 0.22543 0.21893 0.0
C1001 C 0.44169 0.21055 0.22791 0.0
C1002 C 0.47299 0.22298 0.21604 0.0
C1003 C 0.48242 0.20564 0.22217 0.0
C1004 C 0.47109 0.19035 0.23023 0.0
C1005 C 0.45087 0.19275 0.23299 0.0
C1006 C 0.53534 0.21475 0.20792 0.0
C1007 C 0.54506 0.21026 0.22561 0.0
C1008 C 0.51505 0.21203 0.20628 0.0
C1009 C 0.50417 0.20468 0.22223 0.0
C1010 C 0.51415 0.19873 0.23934 0.0
C1011 C 0.53442 0.20153 0.24102 0.0
H1012 H 0.76442 0.44844 0.2405 0.0
H1013 H 0.70435 0.46161 0.25654 0.0
H1014 H 0.77158 0.48353 0.23805 0.0
H1015 H 0.71179 0.49696 0.25457 0.0
H1016 H 0.74736 0.55553 0.27235 0.0
H1017 H 0.73979 0.52035 0.27507 0.0
H1018 H 0.75517 0.51232 0.214 0.0
H1019 H 0.76221 0.54749 0.21105 0.0
C1020 C 0.75277 0.45886 0.24356 0.0
C1021 C 0.73382 0.45239 0.2487 0.0
C1022 C 0.75688 0.47887 0.24212 0.0
C1023 C 0.74224 0.49276 0.24621 0.0
C1024 C 0.72329 0.48639 0.25147 0.0
C1025 C 0.71903 0.46628 0.25247 0.0
C1026 C 0.74927 0.54619 0.25957 0.0
C1027 C 0.7554 0.55413 0.2415 0.0
C1028 C 0.74478 0.5262 0.2611 0.0
C1029 C 0.7468 0.51385 0.24469 0.0
C1030 C 0.75348 0.52166 0.2268 0.0
C1031 C 0.75753 0.5417 0.22515 0.0
H1032 H 0.54793 0.79042 0.24829 0.0
H1033 H 0.54871 0.73227 0.2227 0.0
H1034 H 0.51213 0.79033 0.24758 0.0
H1035 H 0.51268 0.73219 0.22205 0.0
H1036 H 0.45042 0.75228 0.20194 0.0
H1037 H 0.48618 0.75053 0.20403 0.0
H1038 H 0.48382 0.77308 0.26339 0.0
H1039 H 0.44794 0.7749 0.26129 0.0
C1040 C 0.54045 0.77757 0.24255 0.0
C1041 C 0.55114 0.76136 0.23549 0.0
C1042 C 0.51992 0.77749 0.24229 0.0
C1043 C 0.5096 0.76125 0.2348 0.0
C1044 C 0.52027 0.74497 0.22778 0.0
C1045 C 0.54086 0.74498 0.22822 0.0
C1046 C 0.45751 0.75686 0.21545 0.0
C1047 C 0.44637 0.76382 0.23143 0.0
C1048 C 0.47798 0.7557 0.21669 0.0
C1049 C 0.48779 0.76164 0.23387 0.0
C1050 C 0.47665 0.76854 0.24989 0.0
C1051 C 0.45613 0.76954 0.24872 0.0
H1052 H 0.28036 0.55521 0.23296 0.0
H1053 H 0.22115 0.5486 0.2552 0.0
H1054 H 0.28549 0.51985 0.23631 0.0
H1055 H 0.22621 0.51325 0.25829 0.0
H1056 H 0.24855 0.45271 0.27745 0.0
H1057 H 0.24547 0.48857 0.2771 0.0
H1058 H 0.27274 0.49033 0.21969 0.0
H1059 H 0.27602 0.45475 0.22011 0.0
C1060 C 0.26846 0.54621 0.23858 0.0
C1061 C 0.25033 0.55463 0.24372 0.0
C1062 C 0.27138 0.52598 0.24044 0.0
C1063 C 0.25624 0.51381 0.24754 0.0
C1064 C 0.23822 0.5223 0.253 0.0
C1065 C 0.23528 0.54251 0.25108 0.0
C1066 C 0.25398 0.46081 0.26484 0.0
C1067 C 0.26247 0.45095 0.2488 0.0
C1068 C 0.25214 0.48128 0.26459 0.0
C1069 C 0.25889 0.49222 0.24837 0.0
C1070 C 0.26765 0.48233 0.2325 0.0
C1071 C 0.26939 0.46192 0.2327 0.0
H1072 H 0.74521 0.78677 0.54915 0.0
H1073 H 0.77361 0.72997 0.55043 0.0
H1074 H 0.74339 0.78518 0.51342 0.0
H1075 H 0.77171 0.72837 0.51447 0.0
H1076 H 0.78765 0.74737 0.45069 0.0
H1077 H 0.78728 0.74645 0.48649 0.0
H1078 H 0.72698 0.7664 0.48644 0.0
H1079 H 0.72734 0.7674 0.45041 0.0
C1080 C 0.75101 0.77389 0.5418 0.0
C1081 C 0.75965 0.75852 0.55261 0.0
C1082 C 0.74981 0.77293 0.52132 0.0
C1083 C 0.75737 0.75665 0.51113 0.0
C1084 C 0.76588 0.74117 0.52193 0.0
C1085 C 0.76691 0.74205 0.5425 0.0
C1086 C 0.77427 0.75152 0.45828 0.0
C1087 C 0.75754 0.75756 0.44772 0.0
C1088 C 0.77403 0.75083 0.4788 0.0
C1089 C 0.75711 0.75631 0.48928 0.0
C1090 C 0.74029 0.76222 0.47875 0.0
C1091 C 0.74047 0.76274 0.45814 0.0
H1092 H 0.75527 0.26708 0.45043 0.0
H1093 H 0.73342 0.20763 0.45593 0.0
H1094 H 0.75995 0.26858 0.48604 0.0
H1095 H 0.73803 0.20923 0.49155 0.0
H1096 H 0.72255 0.23487 0.55403 0.0
H1097 H 0.72126 0.22972 0.51847 0.0
H1098 H 0.7805 0.25199 0.51299 0.0
H1099 H 0.78189 0.25706 0.54854 0.0
C1100 C 0.75162 0.2543 0.45923 0.0
C1101 C 0.74392 0.23728 0.45046 0.0
C1102 C 0.7544 0.25512 0.47955 0.0
C1103 C 0.7493 0.23902 0.49146 0.0
C1104 C 0.74194 0.22187 0.48266 0.0
C1105 C 0.7394 0.22095 0.46231 0.0
C1106 C 0.73536 0.23845 0.54525 0.0
C1107 C 0.75228 0.24644 0.554 0.0
C1108 C 0.73465 0.23543 0.52496 0.0
C1109 C 0.75076 0.24055 0.51307 0.0
C1110 C 0.76785 0.24808 0.52187 0.0
C1111 C 0.76865 0.25088 0.54218 0.0
H1112 H 0.23706 0.79751 0.44493 0.0
H1113 H 0.2529 0.73603 0.44291 0.0
H1114 H 0.23835 0.79666 0.48088 0.0
H1115 H 0.25466 0.7354 0.479 0.0
H1116 H 0.27751 0.75547 0.54273 0.0
H1117 H 0.27711 0.75551 0.50657 0.0
H1118 H 0.21692 0.77561 0.50729 0.0
H1119 H 0.21709 0.77511 0.54323 0.0
C1120 C 0.2409 0.78385 0.45218 0.0
C1121 C 0.24481 0.76681 0.44118 0.0
C1122 C 0.24161 0.78339 0.4727 0.0
C1123 C 0.24665 0.76599 0.48257 0.0
C1124 C 0.25085 0.749 0.47163 0.0
C1125 C 0.24971 0.74934 0.45106 0.0
C1126 C 0.26424 0.7599 0.53512 0.0
C1127 C 0.24734 0.7653 0.54573 0.0
C1128 C 0.26398 0.75981 0.51452 0.0
C1129 C 0.24698 0.76557 0.50429 0.0
C1130 C 0.2302 0.77118 0.5149 0.0
C1131 C 0.23031 0.77085 0.53543 0.0
H1132 H 0.22579 0.19075 0.54388 0.0
H1133 H 0.20491 0.25078 0.54413 0.0
H1134 H 0.22688 0.19126 0.50804 0.0
H1135 H 0.20594 0.25118 0.50815 0.0
H1136 H 0.25596 0.21463 0.45006 0.0
H1137 H 0.24956 0.21078 0.48521 0.0
H1138 H 0.19124 0.23467 0.47738 0.0
H1139 H 0.19754 0.23842 0.44216 0.0
C1140 C 0.22111 0.20395 0.53628 0.0
C1141 C 0.21545 0.22082 0.5468 0.0
C1142 C 0.22183 0.20424 0.51578 0.0
C1143 C 0.2167 0.22131 0.50541 0.0
C1144 C 0.20991 0.2378 0.51584 0.0
C1145 C 0.20937 0.23759 0.5364 0.0
C1146 C 0.24172 0.2189 0.45582 0.0
C1147 C 0.22728 0.22687 0.44342 0.0
C1148 C 0.23802 0.21659 0.47588 0.0
C1149 C 0.2199 0.22243 0.48394 0.0
C1150 C 0.20535 0.23015 0.47151 0.0
C1151 C 0.20896 0.23222 0.45139 0.0
H1152 H 0.18298 0.15045 0.21852 0.0
H1153 H 0.19547 0.14 0.27983 0.0
H1154 H 0.15625 0.17279 0.22773 0.0
H1155 H 0.16889 0.16253 0.28919 0.0
H1156 H 0.14668 0.22855 0.28994 0.0
H1157 H 0.16694 0.1994 0.28491 0.0
H1158 H 0.12336 0.17584 0.24517 0.0
H1159 H 0.10302 0.20504 0.25018 0.0
C1160 C 0.17955 0.15256 0.23395 0.0
C1161 C 0.19093 0.14348 0.24852 0.0
C1162 C 0.1643 0.16528 0.23925 0.0
C1163 C 0.16053 0.1694 0.25919 0.0
C1164 C 0.17151 0.15963 0.27374 0.0
C1165 C 0.18656 0.14668 0.26842 0.0
C1166 C 0.14123 0.21697 0.28045 0.0
C1167 C 0.12336 0.21915 0.27032 0.0
C1168 C 0.15279 0.20023 0.27765 0.0
C1169 C 0.14676 0.18542 0.26455 0.0
C1170 C 0.12841 0.18713 0.25521 0.0
C1171 C 0.11675 0.20379 0.25816 0.0
H1172 H 0.84308 0.21594 0.22138 0.0
H1173 H 0.88021 0.20672 0.27217 0.0
H1174 H 0.83096 0.18216 0.22422 0.0
H1175 H 0.86771 0.17312 0.27518 0.0
H1176 H 0.80744 0.13566 0.28702 0.0
H1177 H 0.82939 0.16393 0.28311 0.0
H1178 H 0.84449 0.14432 0.22466 0.0
H1179 H 0.82305 0.11571 0.22873 0.0
C1180 C 0.84891 0.20659 0.2329 0.0
C1181 C 0.8625 0.21396 0.2466 0.0
C1182 C 0.84207 0.18728 0.23445 0.0
C1183 C 0.84844 0.17518 0.24994 0.0
C1184 C 0.86265 0.18223 0.26312 0.0
C1185 C 0.86982 0.2014 0.26132 0.0
C1186 C 0.816 0.13704 0.27364 0.0
C1187 C 0.81362 0.12352 0.25823 0.0
C1188 C 0.82852 0.15317 0.2714 0.0
C1189 C 0.8385 0.15623 0.25356 0.0
C1190 C 0.83694 0.14218 0.23854 0.0
C1191 C 0.82479 0.12579 0.24096 0.0
H1192 H 0.86598 0.79979 0.25314 0.0
H1193 H 0.83672 0.75991 0.29308 0.0
H1194 H 0.83656 0.82015 0.25188 0.0
H1195 H 0.80734 0.78051 0.2921 0.0
H1196 H 0.78508 0.86063 0.26608 0.0
H1197 H 0.81527 0.84189 0.27061 0.0
H1198 H 0.78212 0.78777 0.26763 0.0
H1199 H 0.75189 0.80641 0.26347 0.0
C1200 C 0.85338 0.79556 0.26194 0.0
C1201 C 0.85361 0.77816 0.27309 0.0
C1202 C 0.83653 0.80727 0.26126 0.0
C1203 C 0.81954 0.80185 0.27173 0.0
C1204 C 0.82008 0.78489 0.28357 0.0
C1205 C 0.83695 0.77317 0.28426 0.0
C1206 C 0.7842 0.84473 0.26635 0.0
C1207 C 0.76602 0.83506 0.26436 0.0
C1208 C 0.80154 0.834 0.26892 0.0
C1209 C 0.8011 0.81334 0.26957 0.0
C1210 C 0.78293 0.80367 0.26754 0.0
C1211 C 0.76561 0.81439 0.26496 0.0
H1212 H 0.23523 0.8314 0.29435 0.0
H1213 H 0.19295 0.86296 0.25894 0.0
H1214 H 0.2136 0.80263 0.2943 0.0
H1215 H 0.17169 0.83431 0.25852 0.0
H1216 H 0.13116 0.7833 0.27171 0.0
H1217 H 0.15086 0.81269 0.27736 0.0
H1218 H 0.20397 0.77877 0.26922 0.0
H1219 H 0.18437 0.74933 0.26397 0.0
C1220 C 0.22122 0.8323 0.28684 0.0
C1221 C 0.21586 0.84935 0.27649 0.0
C1222 C 0.20891 0.81579 0.28665 0.0
C1223 C 0.19103 0.81611 0.27619 0.0
C1224 C 0.18526 0.83358 0.26682 0.0
C1225 C 0.19752 0.84999 0.26699 0.0
C1226 C 0.14703 0.78211 0.27101 0.0
C1227 C 0.15615 0.76395 0.26725 0.0
C1228 C 0.15833 0.79896 0.27431 0.0
C1229 C 0.17899 0.79805 0.27386 0.0
C1230 C 0.1881 0.77991 0.27005 0.0
C1231 C 0.17682 0.76306 0.2668 0.0
H1232 H 0.14231 0.77815 0.70352 0.0
H1233 H 0.12371 0.79757 0.76114 0.0
H1234 H 0.17132 0.79955 0.7058 0.0
H1235 H 0.15294 0.81842 0.7635 0.0
H1236 H 0.22591 0.81772 0.76243 0.0
H1237 H 0.19427 0.80084 0.75887 0.0
H1238 H 0.17579 0.84404 0.71626 0.0
H1239 H 0.20729 0.86137 0.72014 0.0
C1240 C 0.14424 0.78722 0.71648 0.0
C1241 C 0.13076 0.78624 0.73212 0.0
C1242 C 0.16077 0.7994 0.71775 0.0
C1243 C 0.16418 0.81049 0.73482 0.0
C1244 C 0.15046 0.80999 0.7502 0.0
C1245 C 0.13375 0.79813 0.74878 0.0
C1246 C 0.21507 0.82367 0.75237 0.0
C1247 C 0.21901 0.84082 0.74154 0.0
C1248 C 0.19702 0.81407 0.75041 0.0
C1249 C 0.18281 0.82123 0.73729 0.0
C1250 C 0.18664 0.83835 0.72645 0.0
C1251 C 0.20455 0.84823 0.72874 0.0
H1252 H 0.1962 0.12433 0.75777 0.0
H1253 H 0.24081 0.1593 0.72914 0.0
H1254 H 0.17412 0.15256 0.75791 0.0
H1255 H 0.21966 0.18781 0.73065 0.0
H1256 H 0.17354 0.23321 0.7208 0.0
H1257 H 0.1929 0.20337 0.71817 0.0
H1258 H 0.1675 0.18232 0.77272 0.0
H1259 H 0.14693 0.21174 0.77426 0.0
C1260 C 0.20128 0.1381 0.75156 0.0
C1261 C 0.22018 0.13961 0.74339 0.0
C1262 C 0.18872 0.15438 0.75183 0.0
C1263 C 0.195 0.17266 0.74437 0.0
C1264 C 0.21397 0.17399 0.73613 0.0
C1265 C 0.22627 0.15761 0.73539 0.0
C1266 C 0.17214 0.22214 0.73219 0.0
C1267 C 0.15894 0.22473 0.74781 0.0
C1268 C 0.18334 0.20504 0.73079 0.0
C1269 C 0.18208 0.19036 0.74536 0.0
C1270 C 0.16872 0.19305 0.76102 0.0
C1271 C 0.15705 0.20997 0.76207 0.0
H1272 H 0.85497 0.19222 0.71219 0.0
H1273 H 0.88069 0.1713 0.76644 0.0
H1274 H 0.82925 0.16709 0.71488 0.0
H1275 H 0.85478 0.14663 0.76926 0.0
H1276 H 0.79395 0.10935 0.72122 0.0
H1277 H 0.82483 0.12753 0.71733 0.0
H1278 H 0.8164 0.15396 0.77444 0.0
H1279 H 0.78532 0.1362 0.77817 0.0
C1280 C 0.85536 0.18203 0.72444 0.0
C1281 C 0.8698 0.18376 0.7391 0.0
C1282 C 0.8407 0.16766 0.72595 0.0
C1283 C 0.84007 0.15504 0.74233 0.0
C1284 C 0.85497 0.15623 0.75654 0.0
C1285 C 0.86981 0.17031 0.75484 0.0
C1286 C 0.79895 0.11865 0.73315 0.0
C1287 C 0.78727 0.12137 0.75002 0.0
C1288 C 0.8165 0.12915 0.73083 0.0
C1289 C 0.82288 0.14213 0.74555 0.0
C1290 C 0.81182 0.14393 0.76293 0.0
C1291 C 0.79406 0.1338 0.76505 0.0
H1292 H 0.84392 0.78389 0.73857 0.0
H1293 H 0.81954 0.7494 0.69122 0.0
H1294 H 0.82216 0.81108 0.72995 0.0
H1295 H 0.79881 0.77691 0.68155 0.0
H1296 H 0.74583 0.81822 0.6882 0.0
H1297 H 0.77041 0.79257 0.69158 0.0
H1298 H 0.8135 0.83621 0.70871 0.0
H1299 H 0.78839 0.86159 0.70654 0.0
C1300 C 0.83417 0.78236 0.72605 0.0
C1301 C 0.83313 0.76456 0.71574 0.0
C1302 C 0.82177 0.79796 0.72095 0.0
C1303 C 0.80847 0.79623 0.70509 0.0
C1304 C 0.80833 0.77866 0.69419 0.0
C1305 C 0.82031 0.76292 0.69963 0.0
C1306 C 0.7606 0.82234 0.69246 0.0
C1307 C 0.7651 0.84184 0.69744 0.0
C1308 C 0.77483 0.80762 0.69431 0.0
C1309 C 0.79401 0.81217 0.70078 0.0
C1310 C 0.79879 0.83198 0.70432 0.0
C1311 C 0.78445 0.8466 0.70287 0.0
H1312 H 0.26365 0.13308 0.19543 0.0
H1313 H 0.20229 0.11876 0.1873 0.0
H1314 H 0.26003 0.16115 0.17318 0.0
H1315 H 0.19857 0.1472 0.16546 0.0
H1316 H 0.20244 0.21838 0.16034 0.0
H1317 H 0.20311 0.1856 0.17523 0.0
H1318 H 0.24957 0.1685 0.13548 0.0
H1319 H 0.24864 0.20112 0.12026 0.0
C1320 C 0.2495 0.13576 0.18859 0.0
C1321 C 0.23329 0.12375 0.19295 0.0
C1322 C 0.24744 0.15173 0.17586 0.0
C1323 C 0.22903 0.15622 0.16764 0.0
C1324 C 0.21291 0.14394 0.1716 0.0
C1325 C 0.21508 0.12767 0.18398 0.0
C1326 C 0.21247 0.20746 0.15451 0.0
C1327 C 0.22554 0.21226 0.13923 0.0
C1328 C 0.21279 0.18873 0.16295 0.0
C1329 C 0.22646 0.17467 0.15649 0.0
C1330 C 0.23894 0.17917 0.14067 0.0
C1331 C 0.23832 0.19776 0.13193 0.0
H1332 H 0.81531 0.28588 0.12647 0.0
H1333 H 0.80825 0.2301 0.1559 0.0
H1334 H 0.84599 0.29157 0.14471 0.0
H1335 H 0.83905 0.23545 0.17361 0.0
H1336 H 0.86589 0.30075 0.21335 0.0
H1337 H 0.84586 0.29615 0.18386 0.0
H1338 H 0.87748 0.24276 0.1706 0.0
H1339 H 0.89792 0.24763 0.19987 0.0
C1340 C 0.82079 0.27451 0.13619 0.0
C1341 C 0.80954 0.2576 0.13991 0.0
C1342 C 0.83823 0.27778 0.14665 0.0
C1343 C 0.84481 0.26394 0.16052 0.0
C1344 C 0.83441 0.24624 0.16283 0.0
C1345 C 0.81679 0.24321 0.15278 0.0
C1346 C 0.86899 0.28841 0.20376 0.0
C1347 C 0.88334 0.27451 0.20888 0.0
C1348 C 0.85763 0.28584 0.18684 0.0
C1349 C 0.86016 0.2691 0.17502 0.0
C1350 C 0.87534 0.25582 0.17947 0.0
C1351 C 0.88702 0.25864 0.19617 0.0
H1352 H 0.69518 0.84104 0.23196 0.0
H1353 H 0.73711 0.87228 0.19577 0.0
H1354 H 0.69638 0.81327 0.20919 0.0
H1355 H 0.73855 0.84452 0.17331 0.0
H1356 H 0.72834 0.75964 0.1828 0.0
H1357 H 0.72184 0.78881 0.2023 0.0
H1358 H 0.72127 0.82413 0.14945 0.0
H1359 H 0.72812 0.7949 0.1298 0.0
C1360 C 0.7044 0.84211 0.21901 0.0
C1361 C 0.71626 0.85871 0.2158 0.0
C1362 C 0.7052 0.82616 0.20605 0.0
C1363 C 0.71779 0.82659 0.18961 0.0
C1364 C 0.72864 0.84374 0.18576 0.0
C1365 C 0.72787 0.85963 0.19871 0.0
C1366 C 0.72687 0.7736 0.17526 0.0
C1367 C 0.72889 0.7749 0.15469 0.0
C1368 C 0.72291 0.79031 0.18646 0.0
C1369 C 0.72086 0.80876 0.17741 0.0
C1370 C 0.72288 0.81012 0.15686 0.0
C1371 C 0.72684 0.79337 0.14561 0.0
H1372 H 0.14616 0.68966 0.23561 0.0
H1373 H 0.11942 0.73576 0.20104 0.0
H1374 H 0.17399 0.68891 0.21296 0.0
H1375 H 0.1474 0.73532 0.17865 0.0
H1376 H 0.19702 0.72127 0.13504 0.0
H1377 H 0.16668 0.7174 0.15407 0.0
H1378 H 0.20089 0.71154 0.20731 0.0
H1379 H 0.23092 0.71505 0.18853 0.0
C1380 C 0.14609 0.69944 0.22304 0.0
C1381 C 0.1307 0.71292 0.22026 0.0
C1382 C 0.1621 0.69913 0.21012 0.0
C1383 C 0.16308 0.71229 0.19416 0.0
C1384 C 0.1471 0.72493 0.19072 0.0
C1385 C 0.13107 0.72522 0.20363 0.0
C1386 C 0.19804 0.71914 0.1508 0.0
C1387 C 0.21647 0.7185 0.16019 0.0
C1388 C 0.18065 0.71694 0.16171 0.0
C1389 C 0.18135 0.71395 0.1822 0.0
C1390 C 0.19978 0.71337 0.19152 0.0
C1391 C 0.21706 0.7156 0.1807 0.0
H1392 H 0.29525 0.84808 0.78272 0.0
H1393 H 0.23702 0.86741 0.79934 0.0
H1394 H 0.29185 0.81957 0.80464 0.0
H1395 H 0.23355 0.83867 0.82071 0.0
H1396 H 0.27507 0.78513 0.86644 0.0
H1397 H 0.27901 0.81656 0.84909 0.0
H1398 H 0.23932 0.79662 0.8038 0.0
H1399 H 0.23571 0.76501 0.82074 0.0
C1400 C 0.28192 0.84642 0.7913 0.0
C1401 C 0.26644 0.85996 0.78941 0.0
C1402 C 0.28 0.83018 0.80377 0.0
C1403 C 0.26246 0.82714 0.81422 0.0
C1404 C 0.24722 0.8409 0.8128 0.0
C1405 C 0.24927 0.85733 0.80066 0.0
C1406 C 0.26702 0.78756 0.8529 0.0
C1407 C 0.25509 0.77268 0.84489 0.0
C1408 C 0.26936 0.80543 0.843 0.0
C1409 C 0.25945 0.80878 0.82524 0.0
C1410 C 0.24704 0.79422 0.81754 0.0
C1411 C 0.24503 0.77622 0.82719 0.0
H1412 H 0.15336 0.29899 0.77054 0.0
H1413 H 0.12864 0.26026 0.81449 0.0
H1414 H 0.18445 0.29944 0.78851 0.0
H1415 H 0.15969 0.2605 0.83224 0.0
H1416 H 0.2422 0.27054 0.80897 0.0
H1417 H 0.21011 0.27445 0.79361 0.0
H1418 H 0.18323 0.28007 0.85093 0.0
H1419 H 0.21524 0.27582 0.8664 0.0
C1420 C 0.15445 0.29083 0.78418 0.0
C1421 C 0.13865 0.27936 0.79095 0.0
C1422 C 0.1723 0.29096 0.79438 0.0
C1423 C 0.17461 0.27972 0.81159 0.0
C1424 C 0.15837 0.26935 0.81905 0.0
C1425 C 0.14057 0.26919 0.80885 0.0
C1426 C 0.22946 0.2725 0.81834 0.0
C1427 C 0.23134 0.27277 0.83894 0.0
C1428 C 0.21109 0.27498 0.80951 0.0
C1429 C 0.19417 0.27776 0.82106 0.0
C1430 C 0.19598 0.27786 0.84164 0.0
C1431 C 0.21436 0.2754 0.85049 0.0
H1432 H 0.75545 0.07188 0.7977 0.0
H1433 H 0.70268 0.10491 0.78521 0.0
H1434 H 0.75663 0.08628 0.83071 0.0
H1435 H 0.7037 0.11904 0.81808 0.0
H1436 H 0.76618 0.15274 0.85569 0.0
H1437 H 0.76409 0.12248 0.83671 0.0
H1438 H 0.70379 0.115 0.85533 0.0
H1439 H 0.70611 0.14532 0.87462 0.0
C1440 C 0.74378 0.08173 0.80223 0.0
C1441 C 0.72913 0.08756 0.78886 0.0
C1442 C 0.74445 0.08991 0.82111 0.0
C1443 C 0.73027 0.10376 0.82698 0.0
C1444 C 0.71469 0.1082 0.81412 0.0
C1445 C 0.71421 0.10029 0.7952 0.0
C1446 C 0.7529 0.14395 0.85668 0.0
C1447 C 0.7363 0.15126 0.86648 0.0
C1448 C 0.75166 0.12662 0.84579 0.0
C1449 C 0.73364 0.11661 0.84425 0.0
C1450 C 0.7178 0.12256 0.85617 0.0
C1451 C 0.71917 0.13978 0.86735 0.0
H1452 H 0.75058 0.73255 0.80573 0.0
H1453 H 0.78548 0.73641 0.85879 0.0
H1454 H 0.78014 0.72617 0.78668 0.0
H1455 H 0.81504 0.72957 0.83971 0.0
H1456 H 0.83453 0.69994 0.75904 0.0
H1457 H 0.80567 0.70202 0.7805 0.0
H1458 H 0.83528 0.74579 0.81586 0.0
H1459 H 0.86405 0.74332 0.79491 0.0
C1460 C 0.76455 0.73204 0.81337 0.0
C1461 C 0.76563 0.73519 0.83382 0.0
C1462 C 0.7815 0.72813 0.80244 0.0
C1463 C 0.79997 0.72726 0.81166 0.0
C1464 C 0.80107 0.73035 0.83211 0.0
C1465 C 0.78411 0.73431 0.84306 0.0
C1466 C 0.83495 0.70971 0.77162 0.0
C1467 C 0.8515 0.72154 0.77523 0.0
C1468 C 0.81838 0.71105 0.7838 0.0
C1469 C 0.8181 0.72421 0.79981 0.0
C1470 C 0.83502 0.73536 0.80382 0.0
C1471 C 0.85151 0.73401 0.79171 0.0
H1472 H 0.16007 0.23345 0.21184 0.0
H1473 H 0.12179 0.28323 0.20232 0.0
H1474 H 0.17226 0.23645 0.1781 0.0
H1475 H 0.13445 0.28651 0.16873 0.0
H1476 H 0.18202 0.24164 0.1121 0.0
H1477 H 0.15921 0.23707 0.13963 0.0
H1478 H 0.17336 0.29513 0.16094 0.0
H1479 H 0.19672 0.29943 0.13388 0.0
C1480 C 0.15399 0.24476 0.2024 0.0
C1481 C 0.14007 0.25816 0.20968 0.0
C1482 C 0.16087 0.2464 0.1831 0.0
C1483 C 0.15424 0.26171 0.17093 0.0
C1484 C 0.13967 0.27455 0.17787 0.0
C1485 C 0.13243 0.27262 0.19703 0.0
C1486 C 0.17971 0.25369 0.12226 0.0
C1487 C 0.19103 0.27093 0.1209 0.0
C1488 C 0.16678 0.251 0.13803 0.0
C1489 C 0.16459 0.26577 0.15228 0.0
C1490 C 0.17468 0.28363 0.14999 0.0
C1491 C 0.18801 0.2861 0.13455 0.0
H1492 H 0.19216 0.74207 0.8774 0.0
H1493 H 0.22501 0.69762 0.84606 0.0
H1494 H 0.16985 0.74528 0.8494 0.0
H1495 H 0.20267 0.70079 0.81818 0.0
H1496 H 0.12608 0.735 0.79776 0.0
H1497 H 0.1447 0.72828 0.82789 0.0
H1498 H 0.19869 0.72829 0.79441 0.0
H1499 H 0.18037 0.73486 0.76454 0.0
C1500 C 0.19437 0.73268 0.86472 0.0
C1501 C 0.21051 0.71978 0.86382 0.0
C1502 C 0.18156 0.73451 0.84871 0.0
C1503 C 0.18471 0.72351 0.8315 0.0
C1504 C 0.20011 0.70973 0.83112 0.0
C1505 C 0.21284 0.70784 0.84713 0.0
C1506 C 0.14192 0.73361 0.79685 0.0
C1507 C 0.15168 0.73544 0.77867 0.0
C1508 C 0.15256 0.72977 0.8141 0.0
C1509 C 0.17311 0.7275 0.81344 0.0
C1510 C 0.18282 0.72954 0.79533 0.0
C1511 C 0.17228 0.73351 0.7782 0.0
H1512 H 0.27155 0.20686 0.88341 0.0
H1513 H 0.3025 0.24261 0.84099 0.0
H1514 H 0.27184 0.17933 0.86044 0.0
H1515 H 0.3017 0.21579 0.81761 0.0
H1516 H 0.30581 0.16402 0.77919 0.0
H1517 H 0.31219 0.18544 0.8072 0.0
H1518 H 0.25576 0.1693 0.83199 0.0
H1519 H 0.25027 0.14683 0.80451 0.0
C1520 C 0.27851 0.2088 0.86919 0.0
C1521 C 0.28682 0.22697 0.86393 0.0
C1522 C 0.27851 0.19307 0.85593 0.0
C1523 C 0.28656 0.19526 0.83696 0.0
C1524 C 0.2956 0.21327 0.8321 0.0
C1525 C 0.29592 0.22884 0.8455 0.0
C1526 C 0.29504 0.1648 0.79093 0.0
C1527 C 0.27755 0.15393 0.78979 0.0
C1528 C 0.29855 0.17722 0.80689 0.0
C1529 C 0.28433 0.17954 0.82178 0.0
C1530 C 0.26719 0.16784 0.821 0.0
C1531 C 0.26394 0.15499 0.80523 0.0
H1532 H 0.79533 0.2116 0.88369 0.0
H1533 H 0.75085 0.22442 0.84013 0.0
H1534 H 0.82092 0.21598 0.85861 0.0
H1535 H 0.77589 0.22768 0.81521 0.0
H1536 H 0.82203 0.25108 0.77702 0.0
H1537 H 0.80046 0.2497 0.80552 0.0
H1538 H 0.83474 0.20157 0.82914 0.0
H1539 H 0.85713 0.20396 0.80087 0.0
C1540 C 0.79104 0.21524 0.86877 0.0
C1541 C 0.77113 0.21779 0.86388 0.0
C1542 C 0.80564 0.21764 0.85441 0.0
C1543 C 0.80049 0.22246 0.83494 0.0
C1544 C 0.7805 0.22457 0.83014 0.0
C1545 C 0.76606 0.22249 0.84444 0.0
C1546 C 0.82505 0.24042 0.78849 0.0
C1547 C 0.84097 0.2275 0.78684 0.0
C1548 C 0.81266 0.23949 0.80473 0.0
C1549 C 0.81557 0.22518 0.81939 0.0
C1550 C 0.83212 0.2128 0.81815 0.0
C1551 C 0.84487 0.21407 0.802 0.0
H1552 H 0.71692 0.79586 0.74581 0.0
H1553 H 0.72016 0.8544 0.77046 0.0
H1554 H 0.71358 0.7822 0.77865 0.0
H1555 H 0.71643 0.84064 0.80341 0.0
H1556 H 0.69133 0.76344 0.83783 0.0
H1557 H 0.69081 0.78011 0.80602 0.0
H1558 H 0.73476 0.82106 0.8268 0.0
H1559 H 0.73498 0.80468 0.85863 0.0
C1560 C 0.71692 0.80586 0.75822 0.0
C1561 C 0.71893 0.82627 0.75543 0.0
C1562 C 0.71478 0.79801 0.77708 0.0
C1563 C 0.71458 0.81033 0.79368 0.0
C1564 C 0.71667 0.83072 0.79095 0.0
C1565 C 0.7188 0.83861 0.77204 0.0
C1566 C 0.70062 0.77621 0.83571 0.0
C1567 C 0.71334 0.78261 0.85068 0.0
C1568 C 0.70045 0.78567 0.81743 0.0
C1569 C 0.71298 0.80174 0.81376 0.0
C1570 C 0.72486 0.8088 0.82914 0.0
C1571 C 0.72501 0.79936 0.8474 0.0
H1572 H 0.80272 0.74211 0.11795 0.0
H1573 H 0.76047 0.70818 0.15106 0.0
H1574 H 0.82545 0.74088 0.14563 0.0
H1575 H 0.78226 0.7082 0.17917 0.0
H1576 H 0.82754 0.70094 0.22545 0.0
H1577 H 0.80986 0.69734 0.19457 0.0
H1578 H 0.83102 0.75453 0.17612 0.0
H1579 H 0.84995 0.75715 0.20656 0.0
C1580 C 0.79831 0.73435 0.13115 0.0
C1581 C 0.77973 0.72538 0.13235 0.0
C1582 C 0.81125 0.73383 0.14716 0.0
C1583 C 0.80575 0.72467 0.16492 0.0
C1584 C 0.78734 0.71515 0.16578 0.0
C1585 C 0.77464 0.71528 0.14962 0.0
C1586 C 0.82855 0.71258 0.2146 0.0
C1587 C 0.83997 0.72935 0.2183 0.0
C1588 C 0.81826 0.71065 0.19693 0.0
C1589 C 0.8186 0.72577 0.18277 0.0
C1590 C 0.83052 0.74239 0.1864 0.0
C1591 C 0.8413 0.74403 0.2039 0.0
H1592 H 0.25843 0.79152 0.1252 0.0
H1593 H 0.28233 0.74558 0.1619 0.0
H1594 H 0.26029 0.81442 0.15263 0.0
H1595 H 0.28258 0.76771 0.18976 0.0
H1596 H 0.29135 0.81323 0.2361 0.0
H1597 H 0.29524 0.79365 0.20644 0.0
H1598 H 0.24444 0.82255 0.18105 0.0
H1599 H 0.24181 0.84318 0.2102 0.0
C1600 C 0.26407 0.78633 0.13918 0.0
C1601 C 0.27005 0.76672 0.14146 0.0
C1602 C 0.26491 0.79939 0.15503 0.0
C1603 C 0.27124 0.79299 0.1737 0.0
C1604 C 0.27785 0.77344 0.17568 0.0
C1605 C 0.27755 0.76058 0.15967 0.0
C1606 C 0.28116 0.81542 0.22404 0.0
C1607 C 0.26624 0.82961 0.22537 0.0
C1608 C 0.28326 0.8041 0.20704 0.0
C1609 C 0.27007 0.80624 0.1912 0.0
C1610 C 0.2552 0.82064 0.19263 0.0
C1611 C 0.2535 0.83239 0.20941 0.0
H1612 H 0.76143 0.12466 0.18988 0.0
H1613 H 0.78827 0.17458 0.21884 0.0
H1614 H 0.75688 0.14461 0.16013 0.0
H1615 H 0.78332 0.19428 0.18938 0.0
H1616 H 0.77416 0.19461 0.10888 0.0
H1617 H 0.78106 0.16979 0.13423 0.0
H1618 H 0.74466 0.20162 0.17528 0.0
H1619 H 0.73735 0.22605 0.15013 0.0
C1620 C 0.76674 0.13967 0.18979 0.0
C1621 C 0.77483 0.14816 0.20687 0.0
C1622 C 0.76411 0.15103 0.17279 0.0
C1623 C 0.76948 0.17094 0.17276 0.0
C1624 C 0.77886 0.17897 0.18926 0.0
C1625 C 0.78164 0.16767 0.2061 0.0
C1626 C 0.76732 0.19606 0.1232 0.0
C1627 C 0.7554 0.21239 0.12762 0.0
C1628 C 0.77129 0.1819 0.13762 0.0
C1629 C 0.76356 0.18408 0.15662 0.0
C1630 C 0.75092 0.19983 0.16072 0.0
C1631 C 0.74673 0.21377 0.14632 0.0
H1632 H 0.7277 0.63649 0.76811 0.0
H1633 H 0.75283 0.69491 0.77011 0.0
H1634 H 0.69491 0.65055 0.77198 0.0
H1635 H 0.72013 0.70884 0.77364 0.0
H1636 H 0.66145 0.72746 0.79798 0.0
H1637 H 0.69327 0.71086 0.79747 0.0
H1638 H 0.67147 0.67047 0.7535 0.0
H1639 H 0.63964 0.68684 0.75423 0.0
C1640 C 0.72626 0.65231 0.76923 0.0
C1641 C 0.74295 0.66454 0.76875 0.0
C1642 C 0.70745 0.66036 0.77143 0.0
C1643 C 0.70492 0.6808 0.77327 0.0
C1644 C 0.72159 0.69301 0.77263 0.0
C1645 C 0.74035 0.685 0.77038 0.0
C1646 C 0.66336 0.71485 0.78844 0.0
C1647 C 0.64809 0.70857 0.77602 0.0
C1648 C 0.68164 0.70543 0.78803 0.0
C1649 C 0.68498 0.68951 0.77524 0.0
C1650 C 0.66936 0.68262 0.76359 0.0
C1651 C 0.65112 0.69205 0.76398 0.0
H1652 H 0.2623 0.65083 0.78659 0.0
H1653 H 0.29871 0.6215 0.74354 0.0
H1654 H 0.28575 0.678 0.78779 0.0
H1655 H 0.32197 0.64873 0.74454 0.0
H1656 H 0.36659 0.69644 0.76145 0.0
H1657 H 0.34589 0.66721 0.76461 0.0
H1658 H 0.29401 0.70383 0.76391 0.0
H1659 H 0.31446 0.73291 0.761 0.0
C1660 C 0.27542 0.65006 0.77759 0.0
C1661 C 0.27855 0.63416 0.7648 0.0
C1662 C 0.28879 0.66566 0.77818 0.0
C1663 C 0.30556 0.66562 0.76604 0.0
C1664 C 0.30924 0.64916 0.75413 0.0
C1665 C 0.29586 0.6336 0.7535 0.0
C1666 C 0.35076 0.69825 0.76192 0.0
C1667 C 0.34223 0.71706 0.76095 0.0
C1668 C 0.33893 0.6815 0.76374 0.0
C1669 C 0.31834 0.68325 0.76472 0.0
C1670 C 0.30984 0.70202 0.76362 0.0
C1671 C 0.32161 0.7187 0.76174 0.0
H1672 H 0.37197 0.29891 0.7359 0.0
H1673 H 0.33444 0.25669 0.765 0.0
H1674 H 0.34503 0.32261 0.7356 0.0
H1675 H 0.30729 0.27958 0.76352 0.0
H1676 H 0.26459 0.32755 0.77301 0.0
H1677 H 0.2942 0.30788 0.77637 0.0
H1678 H 0.31505 0.32997 0.72035 0.0
H1679 H 0.2858 0.35082 0.71791 0.0
C1680 C 0.35794 0.2947 0.74221 0.0
C1681 C 0.3553 0.27596 0.75047 0.0
C1682 C 0.34244 0.30821 0.74187 0.0
C1683 C 0.32388 0.3031 0.74952 0.0
C1684 C 0.32141 0.28432 0.75789 0.0
C1685 C 0.33699 0.27104 0.75859 0.0
C1686 C 0.27565 0.32827 0.76154 0.0
C1687 C 0.27298 0.34046 0.74513 0.0
C1688 C 0.29256 0.31689 0.76334 0.0
C1689 C 0.30695 0.31695 0.74845 0.0
C1690 C 0.30444 0.32964 0.73222 0.0
C1691 C 0.28767 0.34149 0.73071 0.0
H1692 H 0.64829 0.33083 0.7293 0.0
H1693 H 0.628 0.3357 0.78922 0.0
H1694 H 0.66822 0.36033 0.73348 0.0
H1695 H 0.64832 0.36521 0.79364 0.0
H1696 H 0.70338 0.41376 0.74445 0.0
H1697 H 0.67168 0.39681 0.74218 0.0
H1698 H 0.6861 0.36307 0.79403 0.0
H1699 H 0.71776 0.37976 0.79616 0.0
C1700 C 0.64746 0.33879 0.74309 0.0
C1701 C 0.63668 0.33114 0.75894 0.0
C1702 C 0.65884 0.35568 0.74551 0.0
C1703 C 0.65995 0.36495 0.76395 0.0
C1704 C 0.64774 0.35829 0.7793 0.0
C1705 C 0.63602 0.34155 0.77674 0.0
C1706 C 0.69952 0.40312 0.75567 0.0
C1707 C 0.71309 0.39786 0.77035 0.0
C1708 C 0.68139 0.39344 0.75436 0.0
C1709 C 0.67645 0.37863 0.7679 0.0
C1710 C 0.68939 0.37459 0.78352 0.0
C1711 C 0.70759 0.38402 0.78464 0.0
H1712 H 0.66998 0.37039 0.22723 0.0
H1713 H 0.68366 0.3339 0.27734 0.0
H1714 H 0.64026 0.35077 0.22112 0.0
H1715 H 0.65377 0.31474 0.27163 0.0
H1716 H 0.62295 0.28291 0.20372 0.0
H1717 H 0.6423 0.31235 0.21097 0.0
H1718 H 0.6144 0.31673 0.26785 0.0
H1719 H 0.5946 0.28759 0.26039 0.0
C1720 C 0.66617 0.35871 0.23738 0.0
C1721 C 0.67901 0.35355 0.25272 0.0
C1722 C 0.64928 0.34746 0.23383 0.0
C1723 C 0.6448 0.3313 0.24591 0.0
C1724 C 0.6568 0.32726 0.26224 0.0
C1725 C 0.6739 0.33815 0.26547 0.0
C1726 C 0.62048 0.29057 0.21748 0.0
C1727 C 0.60735 0.283 0.23149 0.0
C1728 C 0.63146 0.30744 0.22159 0.0
C1729 C 0.62979 0.31674 0.23996 0.0
C1730 C 0.61584 0.30983 0.25355 0.0
C1731 C 0.60451 0.29322 0.24924 0.0
H1732 H 0.73427 0.6563 0.20023 0.0
H1733 H 0.69645 0.62686 0.24201 0.0
H1734 H 0.71213 0.68456 0.20024 0.0
H1735 H 0.67454 0.65515 0.24224 0.0
H1736 H 0.6327 0.70616 0.22898 0.0
H1737 H 0.65156 0.67603 0.22359 0.0
H1738 H 0.70555 0.70949 0.22542 0.0
H1739 H 0.68695 0.73943 0.23053 0.0
C1740 C 0.7211 0.65574 0.20918 0.0
C1741 C 0.71724 0.63949 0.22132 0.0
C1742 C 0.70849 0.67196 0.20928 0.0
C1743 C 0.69175 0.67219 0.22147 0.0
C1744 C 0.68725 0.6554 0.23263 0.0
C1745 C 0.69987 0.63922 0.23256 0.0
C1746 C 0.64859 0.70707 0.22825 0.0
C1747 C 0.65827 0.72525 0.23024 0.0
C1748 C 0.65938 0.68982 0.22515 0.0
C1749 C 0.68002 0.69042 0.22387 0.0
C1750 C 0.68964 0.70857 0.2259 0.0
C1751 C 0.67893 0.72574 0.22906 0.0
H1752 H 0.29578 0.63756 0.22471 0.0
H1753 H 0.25979 0.68991 0.2219 0.0
H1754 H 0.32502 0.65743 0.21867 0.0
H1755 H 0.28901 0.70972 0.21635 0.0
H1756 H 0.3724 0.70332 0.23585 0.0
H1757 H 0.34432 0.68121 0.23644 0.0
H1758 H 0.31494 0.71729 0.19312 0.0
H1759 H 0.34301 0.73974 0.19287 0.0
C1760 C 0.29408 0.65329 0.22285 0.0
C1761 C 0.27541 0.66211 0.22396 0.0
C1762 C 0.31086 0.66468 0.21942 0.0
C1763 C 0.30938 0.68517 0.21704 0.0
C1764 C 0.29068 0.69394 0.21781 0.0
C1765 C 0.27391 0.68257 0.22121 0.0
C1766 C 0.36008 0.70641 0.22623 0.0
C1767 C 0.35984 0.72339 0.21446 0.0
C1768 C 0.344 0.69365 0.2265 0.0
C1769 C 0.32729 0.69755 0.21496 0.0
C1770 C 0.32745 0.71405 0.20245 0.0
C1771 C 0.34358 0.72684 0.20218 0.0
H1772 H 0.33109 0.26937 0.27676 0.0
H1773 H 0.37115 0.27873 0.22826 0.0
H1774 H 0.31969 0.3034 0.27378 0.0
H1775 H 0.35941 0.31258 0.22508 0.0
H1776 H 0.3037 0.35493 0.21139 0.0
H1777 H 0.32249 0.32448 0.2155 0.0
H1778 H 0.33504 0.34021 0.27571 0.0
H1779 H 0.31675 0.37087 0.27153 0.0
C1780 C 0.33759 0.27876 0.26564 0.0
C1781 C 0.35194 0.27144 0.25271 0.0
C1782 C 0.33117 0.2982 0.26401 0.0
C1783 C 0.33871 0.31047 0.24918 0.0
C1784 C 0.35341 0.30333 0.2366 0.0
C1785 C 0.36015 0.28404 0.2385 0.0
C1786 C 0.31094 0.35212 0.22531 0.0
C1787 C 0.30883 0.36523 0.24111 0.0
C1788 C 0.32166 0.33475 0.22765 0.0
C1789 C 0.33006 0.33009 0.24594 0.0
C1790 C 0.32863 0.34355 0.2615 0.0
C1791 C 0.3183 0.36111 0.25903 0.0
H1792 H 0.77926 0.63111 0.70373 0.0
H1793 H 0.81711 0.66798 0.73904 0.0
H1794 H 0.77452 0.65797 0.68059 0.0
H1795 H 0.81271 0.69481 0.71558 0.0
H1796 H 0.77822 0.70823 0.6362 0.0
H1797 H 0.78847 0.6801 0.65614 0.0
H1798 H 0.78493 0.71592 0.70852 0.0
H1799 H 0.775 0.74386 0.68883 0.0
C1800 C 0.78693 0.64483 0.70632 0.0
C1801 C 0.79832 0.64752 0.72338 0.0
C1802 C 0.78428 0.66022 0.69298 0.0
C1803 C 0.79299 0.67864 0.69638 0.0
C1804 C 0.80546 0.68091 0.71277 0.0
C1805 C 0.8081 0.6655 0.72614 0.0
C1806 C 0.77953 0.71005 0.65198 0.0
C1807 C 0.77565 0.72832 0.66086 0.0
C1808 C 0.78546 0.69395 0.66339 0.0
C1809 C 0.78769 0.6958 0.68391 0.0
C1810 C 0.78377 0.71405 0.69273 0.0
C1811 C 0.77781 0.73005 0.6814 0.0
H1812 H 0.34942 0.78648 0.7343 0.0
H1813 H 0.38355 0.75239 0.69301 0.0
H1814 H 0.3226 0.78808 0.71097 0.0
H1815 H 0.35719 0.75517 0.66887 0.0
H1816 H 0.27942 0.79822 0.66336 0.0
H1817 H 0.30955 0.80033 0.68251 0.0
H1818 H 0.32632 0.74245 0.66196 0.0
H1819 H 0.29667 0.74124 0.64163 0.0
C1820 C 0.35138 0.77969 0.72004 0.0
C1821 C 0.36849 0.76906 0.71563 0.0
C1822 C 0.33599 0.78075 0.70648 0.0
C1823 C 0.33752 0.77163 0.68792 0.0
C1824 C 0.35519 0.76195 0.68314 0.0
C1825 C 0.37043 0.76055 0.6969 0.0
C1826 C 0.28974 0.78608 0.66283 0.0
C1827 C 0.28578 0.7695 0.65123 0.0
C1828 C 0.30695 0.78718 0.67393 0.0
C1829 C 0.32037 0.77142 0.67418 0.0
C1830 C 0.31656 0.75501 0.66203 0.0
C1831 C 0.29952 0.75419 0.65046 0.0
H1832 H 0.23883 0.36917 0.6757 0.0
H1833 H 0.19989 0.3416 0.71773 0.0
H1834 H 0.24001 0.33869 0.65678 0.0
H1835 H 0.20109 0.31116 0.69879 0.0
H1836 H 0.23323 0.2556 0.67824 0.0
H1837 H 0.22883 0.28741 0.69383 0.0
H1838 H 0.22 0.31431 0.63697 0.0
H1839 H 0.22445 0.28231 0.62113 0.0
C1840 C 0.23021 0.35674 0.68069 0.0
C1841 C 0.21948 0.35769 0.69836 0.0
C1842 C 0.23088 0.3393 0.66983 0.0
C1843 C 0.22091 0.32249 0.6765 0.0
C1844 C 0.20922 0.32382 0.69352 0.0
C1845 C 0.20844 0.34128 0.7043 0.0
C1846 C 0.23045 0.26825 0.66896 0.0
C1847 C 0.22915 0.26633 0.64839 0.0
C1848 C 0.22773 0.28646 0.67795 0.0
C1849 C 0.22378 0.30327 0.66663 0.0
C1850 C 0.223 0.30156 0.64604 0.0
C1851 C 0.22556 0.28324 0.637 0.0
H1852 H 0.69677 0.25035 0.63735 0.0
H1853 H 0.71952 0.29833 0.67227 0.0
H1854 H 0.6657 0.2519 0.65551 0.0
H1855 H 0.68819 0.30016 0.69003 0.0
H1856 H 0.62068 0.30338 0.7056 0.0
H1857 H 0.64729 0.30457 0.68112 0.0
H1858 H 0.66401 0.24535 0.69657 0.0
H1859 H 0.63798 0.24438 0.72143 0.0
C1860 C 0.69493 0.26153 0.64854 0.0
C1861 C 0.71054 0.2741 0.65359 0.0
C1862 C 0.67722 0.26238 0.65889 0.0
C1863 C 0.67471 0.27615 0.67403 0.0
C1864 C 0.68984 0.28953 0.67827 0.0
C1865 C 0.70772 0.28839 0.66824 0.0
C1866 C 0.62983 0.29052 0.70343 0.0
C1867 C 0.62736 0.27375 0.71523 0.0
C1868 C 0.64501 0.29125 0.68956 0.0
C1869 C 0.65745 0.275 0.68701 0.0
C1870 C 0.65439 0.25795 0.69821 0.0
C1871 C 0.63961 0.25742 0.7124 0.0
H1872 H 0.71266 0.37956 0.31383 0.0
H1873 H 0.75634 0.34874 0.27942 0.0
H1874 H 0.7084 0.35023 0.33449 0.0
H1875 H 0.7518 0.31964 0.29973 0.0
H1876 H 0.7175 0.2659 0.31909 0.0
H1877 H 0.72008 0.29746 0.30245 0.0
H1878 H 0.72987 0.32636 0.3581 0.0
H1879 H 0.72748 0.29466 0.37502 0.0
C1880 C 0.7216 0.36671 0.31093 0.0
C1881 C 0.73468 0.36634 0.29489 0.0
C1882 C 0.71909 0.34997 0.32267 0.0
C1883 C 0.7295 0.33267 0.31837 0.0
C1884 C 0.74334 0.33272 0.30307 0.0
C1885 C 0.746 0.34942 0.29153 0.0
C1886 C 0.71999 0.27894 0.3279 0.0
C1887 C 0.72264 0.27767 0.34838 0.0
C1888 C 0.72152 0.29699 0.31833 0.0
C1889 C 0.72551 0.31418 0.32902 0.0
C1890 C 0.72687 0.31323 0.34959 0.0
C1891 C 0.72554 0.29509 0.35921 0.0
H1892 H 0.6541 0.79662 0.26449 0.0
H1893 H 0.62407 0.7523 0.29877 0.0
H1894 H 0.68206 0.79496 0.28692 0.0
H1895 H 0.65213 0.7505 0.32108 0.0
H1896 H 0.70244 0.76367 0.3652 0.0
H1897 H 0.67244 0.76835 0.3458 0.0
H1898 H 0.70708 0.76947 0.29254 0.0
H1899 H 0.73682 0.76497 0.31164 0.0
C1900 C 0.65335 0.78671 0.27695 0.0
C1901 C 0.63697 0.77445 0.27973 0.0
C1902 C 0.66942 0.78567 0.28973 0.0
C1903 C 0.66941 0.77239 0.30562 0.0
C1904 C 0.65256 0.76093 0.30903 0.0
C1905 C 0.63651 0.76193 0.2962 0.0
C1906 C 0.70363 0.76482 0.34935 0.0
C1907 C 0.7221 0.76398 0.34004 0.0
C1908 C 0.68645 0.76752 0.33825 0.0
C1909 C 0.68743 0.76955 0.31767 0.0
C1910 C 0.70585 0.7684 0.3084 0.0
C1911 C 0.72292 0.76563 0.31941 0.0
H1912 H 0.2615 0.71695 0.34719 0.0
H1913 H 0.20716 0.73803 0.32221 0.0
H1914 H 0.25832 0.6865 0.32848 0.0
H1915 H 0.20288 0.70714 0.30478 0.0
H1916 H 0.21285 0.66103 0.2576 0.0
H1917 H 0.21361 0.69003 0.27822 0.0
H1918 H 0.24321 0.65679 0.3238 0.0
H1919 H 0.2439 0.62826 0.30223 0.0
C1920 C 0.24871 0.71483 0.33792 0.0
C1921 C 0.23471 0.72977 0.33586 0.0
C1922 C 0.24671 0.69732 0.32731 0.0
C1923 C 0.23034 0.69421 0.31492 0.0
C1924 C 0.21598 0.70906 0.31362 0.0
C1925 C 0.21832 0.72675 0.32372 0.0
C1926 C 0.21941 0.6599 0.27206 0.0
C1927 C 0.22857 0.64249 0.27819 0.0
C1928 C 0.21972 0.67655 0.28406 0.0
C1929 C 0.22867 0.676 0.30277 0.0
C1930 C 0.23672 0.65809 0.30932 0.0
C1931 C 0.2369 0.64161 0.29706 0.0
H1932 H 0.28619 0.26501 0.32871 0.0
H1933 H 0.29523 0.21791 0.37039 0.0
H1934 H 0.31833 0.25812 0.31399 0.0
H1935 H 0.32711 0.21069 0.35524 0.0
H1936 H 0.38244 0.24571 0.29882 0.0
H1937 H 0.35776 0.25484 0.3234 0.0
H1938 H 0.32999 0.19819 0.31663 0.0
H1939 H 0.35423 0.18928 0.29153 0.0
C1940 C 0.29529 0.25355 0.33502 0.0
C1941 C 0.28828 0.24199 0.35064 0.0
C1942 C 0.31365 0.24966 0.32667 0.0
C1943 C 0.32506 0.23387 0.33352 0.0
C1944 C 0.31855 0.22298 0.34981 0.0
C1945 C 0.3004 0.22719 0.35849 0.0
C1946 C 0.37146 0.23496 0.30306 0.0
C1947 C 0.37021 0.21675 0.29334 0.0
C1948 C 0.35732 0.24026 0.31702 0.0
C1949 C 0.3421 0.22719 0.32185 0.0
C1950 C 0.34176 0.20841 0.31326 0.0
C1951 C 0.35557 0.20332 0.29893 0.0
H1952 H 0.73671 0.7956 0.65719 0.0
H1953 H 0.7015 0.75148 0.628 0.0
H1954 H 0.71508 0.79372 0.68589 0.0
H1955 H 0.68032 0.74924 0.65665 0.0
H1956 H 0.63749 0.75758 0.70659 0.0
H1957 H 0.65624 0.76497 0.67691 0.0
H1958 H 0.70925 0.77005 0.71164 0.0
H1959 H 0.69053 0.76317 0.74127 0.0
C1960 C 0.72423 0.7857 0.6568 0.0
C1961 C 0.7209 0.77358 0.64041 0.0
C1962 C 0.71193 0.7845 0.67329 0.0
C1963 C 0.69605 0.77118 0.67366 0.0
C1964 C 0.69225 0.7598 0.65684 0.0
C1965 C 0.70449 0.76101 0.64042 0.0
C1966 C 0.65314 0.76025 0.7079 0.0
C1967 C 0.66248 0.75959 0.72634 0.0
C1968 C 0.66391 0.76449 0.69087 0.0
C1969 C 0.68427 0.76812 0.69186 0.0
C1970 C 0.69355 0.76765 0.71033 0.0
C1971 C 0.68281 0.76346 0.72734 0.0
H1972 H 0.67454 0.25314 0.38348 0.0
H1973 H 0.6931 0.19732 0.35949 0.0
H1974 H 0.6525 0.25783 0.3555 0.0
H1975 H 0.67054 0.20184 0.33177 0.0
H1976 H 0.61762 0.21355 0.29089 0.0
H1977 H 0.63157 0.20838 0.32367 0.0
H1978 H 0.66561 0.26161 0.3176 0.0
H1979 H 0.65204 0.26664 0.28461 0.0
C1980 C 0.67338 0.24154 0.37263 0.0
C1981 C 0.68557 0.22486 0.37359 0.0
C1982 C 0.66087 0.24432 0.35659 0.0
C1983 C 0.65998 0.23025 0.34155 0.0
C1984 C 0.67095 0.21284 0.3433 0.0
C1985 C 0.6838 0.21025 0.35912 0.0
C1986 C 0.62778 0.22437 0.29671 0.0
C1987 C 0.63384 0.24047 0.2852 0.0
C1988 C 0.63578 0.22133 0.31539 0.0
C1989 C 0.64957 0.23461 0.32304 0.0
C1990 C 0.65483 0.25128 0.31201 0.0
C1991 C 0.64717 0.25409 0.29315 0.0
H1992 H 0.76622 0.68972 0.25907 0.0
H1993 H 0.76632 0.6353 0.29202 0.0
H1994 H 0.77073 0.70807 0.2894 0.0
H1995 H 0.77119 0.65378 0.3224 0.0
H1996 H 0.75351 0.69714 0.37247 0.0
H1997 H 0.7528 0.67629 0.34338 0.0
H1998 H 0.79512 0.71434 0.31502 0.0
H1999 H 0.79559 0.73541 0.34409 0.0
C2000 C 0.76724 0.68163 0.27276 0.0
C2001 C 0.76582 0.661 0.27306 0.0
C2002 C 0.77003 0.69218 0.29015 0.0
C2003 C 0.77148 0.68238 0.3083 0.0
C2004 C 0.77 0.66176 0.30866 0.0
C2005 C 0.76721 0.65118 0.29123 0.0
C2006 C 0.76292 0.70089 0.36016 0.0
C2007 C 0.77443 0.71805 0.36048 0.0
C2008 C 0.76255 0.68889 0.3435 0.0
C2009 C 0.7737 0.6938 0.32679 0.0
C2010 C 0.78605 0.71038 0.32753 0.0
C2011 C 0.78644 0.72238 0.34423 0.0
H2012 H 0.26408 0.80375 0.33574 0.0
H2013 H 0.30457 0.76475 0.36533 0.0
H2014 H 0.28491 0.80306 0.30644 0.0
H2015 H 0.32503 0.76363 0.33604 0.0
H2016 H 0.36499 0.77506 0.28388 0.0
H2017 H 0.34664 0.78104 0.31413 0.0
H2018 H 0.29214 0.77889 0.28148 0.0
H2019 H 0.31038 0.7734 0.25128 0.0
C2020 C 0.27753 0.79523 0.33608 0.0
C2021 C 0.28259 0.78417 0.35278 0.0
C2022 C 0.28939 0.79469 0.31925 0.0
C2023 C 0.30653 0.78307 0.31879 0.0
C2024 C 0.31205 0.77285 0.33589 0.0
C2025 C 0.30024 0.77343 0.35269 0.0
C2026 C 0.34909 0.77582 0.28316 0.0
C2027 C 0.33921 0.7736 0.26512 0.0
C2028 C 0.33856 0.77925 0.30051 0.0
C2029 C 0.3179 0.78052 0.30025 0.0
C2030 C 0.30805 0.77836 0.2822 0.0
C2031 C 0.31855 0.77497 0.26488 0.0
H2032 H 0.20888 0.27073 0.34322 0.0
H2033 H 0.25064 0.29957 0.3815 0.0
H2034 H 0.21622 0.29442 0.31735 0.0
H2035 H 0.25798 0.32335 0.35544 0.0
H2036 H 0.25345 0.36944 0.30313 0.0
H2037 H 0.24331 0.3504 0.33207 0.0
H2038 H 0.24873 0.29678 0.29857 0.0
H2039 H 0.25886 0.31543 0.26991 0.0
C2040 C 0.21931 0.28238 0.34626 0.0
C2041 C 0.22941 0.28311 0.36425 0.0
C2042 C 0.22358 0.29587 0.33142 0.0
C2043 C 0.23795 0.31042 0.33431 0.0
C2044 C 0.24686 0.31223 0.35286 0.0
C2045 C 0.24264 0.29863 0.36775 0.0
C2046 C 0.25263 0.35358 0.302 0.0
C2047 C 0.25682 0.34401 0.28411 0.0
C2048 C 0.24681 0.34273 0.31855 0.0
C2049 C 0.24488 0.32221 0.31738 0.0
C2050 C 0.24966 0.31265 0.29973 0.0
C2051 C 0.25562 0.32338 0.28334 0.0
H2052 H 0.33146 0.25687 0.69669 0.0
H2053 H 0.35484 0.19814 0.69187 0.0
H2054 H 0.31193 0.25163 0.66691 0.0
H2055 H 0.33478 0.19258 0.66227 0.0
H2056 H 0.28726 0.23964 0.60662 0.0
H2057 H 0.31514 0.24286 0.62903 0.0
H2058 H 0.29533 0.19181 0.66114 0.0
H2059 H 0.26714 0.18872 0.63894 0.0
C2060 C 0.3328 0.24305 0.68885 0.0
C2061 C 0.3447 0.22797 0.69626 0.0
C2062 C 0.32167 0.24004 0.67187 0.0
C2063 C 0.32188 0.22169 0.66237 0.0
C2064 C 0.33444 0.20685 0.66936 0.0
C2065 C 0.34596 0.21005 0.68612 0.0
C2066 C 0.28904 0.22884 0.61821 0.0
C2067 C 0.27491 0.21403 0.62119 0.0
C2068 C 0.305 0.23073 0.631 0.0
C2069 C 0.3073 0.21762 0.64677 0.0
C2070 C 0.29394 0.202 0.64896 0.0
C2071 C 0.27778 0.2003 0.63635 0.0
H2072 H 0.7349 0.31832 0.61789 0.0
H2073 H 0.79149 0.30208 0.64178 0.0
H2074 H 0.73099 0.34287 0.64384 0.0
H2075 H 0.78776 0.3271 0.6674 0.0
H2076 H 0.77842 0.3828 0.7039 0.0
H2077 H 0.78205 0.3662 0.67217 0.0
H2078 H 0.72805 0.33448 0.68258 0.0
H2079 H 0.7246 0.35066 0.71455 0.0
C2080 C 0.74682 0.32047 0.62825 0.0
C2081 C 0.76354 0.30831 0.62785 0.0
C2082 C 0.74448 0.33442 0.64314 0.0
C2083 C 0.75906 0.33679 0.65754 0.0
C2084 C 0.7764 0.32563 0.65632 0.0
C2085 C 0.77854 0.31135 0.6417 0.0
C2086 C 0.76707 0.37264 0.69921 0.0
C2087 C 0.75126 0.36793 0.71171 0.0
C2088 C 0.76923 0.36311 0.68113 0.0
C2089 C 0.75536 0.34909 0.67506 0.0
C2090 C 0.73887 0.34535 0.68693 0.0
C2091 C 0.73693 0.35454 0.70521 0.0
H2092 H 0.20479 0.676 0.72527 0.0
H2093 H 0.25277 0.64428 0.69858 0.0
H2094 H 0.20155 0.69616 0.69591 0.0
H2095 H 0.2508 0.66544 0.66966 0.0
H2096 H 0.23776 0.6989 0.61461 0.0
H2097 H 0.23504 0.67524 0.64141 0.0
H2098 H 0.21598 0.72192 0.68028 0.0
H2099 H 0.21719 0.7449 0.6532 0.0
C2100 C 0.21479 0.67354 0.71309 0.0
C2101 C 0.22912 0.65877 0.71414 0.0
C2102 C 0.21306 0.68518 0.69628 0.0
C2103 C 0.22608 0.68276 0.68034 0.0
C2104 C 0.24026 0.66765 0.68138 0.0
C2105 C 0.24157 0.65559 0.69802 0.0
C2106 C 0.23262 0.70394 0.62884 0.0
C2107 C 0.22781 0.72378 0.63183 0.0
C2108 C 0.23128 0.69043 0.6443 0.0
C2109 C 0.22554 0.69657 0.66325 0.0
C2110 C 0.22014 0.71638 0.66595 0.0
C2111 C 0.221 0.72973 0.65038 0.0
H2112 H 0.20559 0.40181 0.25399 0.0
H2113 H 0.20135 0.36304 0.20378 0.0
H2114 H 0.17356 0.39054 0.26536 0.0
H2115 H 0.16933 0.35198 0.21512 0.0
H2116 H 0.11749 0.32605 0.24065 0.0
H2117 H 0.13414 0.35521 0.22778 0.0
H2118 H 0.17245 0.35545 0.27846 0.0
H2119 H 0.15612 0.32622 0.29105 0.0
C2120 C 0.19747 0.39163 0.24482 0.0
C2121 C 0.20637 0.38277 0.22834 0.0
C2122 C 0.17909 0.38514 0.25143 0.0
C2123 C 0.16921 0.37 0.24145 0.0
C2124 C 0.17662 0.3636 0.22322 0.0
C2125 C 0.19508 0.3699 0.21673 0.0
C2126 C 0.12883 0.33291 0.24951 0.0
C2127 C 0.13574 0.32373 0.26673 0.0
C2128 C 0.13842 0.34955 0.24206 0.0
C2129 C 0.15474 0.35746 0.25196 0.0
C2130 C 0.15985 0.3498 0.27051 0.0
C2131 C 0.15055 0.33297 0.27773 0.0
H2132 H 0.70346 0.14017 0.28315 0.0
H2133 H 0.70947 0.10626 0.22974 0.0
H2134 H 0.67209 0.15295 0.27139 0.0
H2135 H 0.67828 0.11946 0.21784 0.0
H2136 H 0.61604 0.17418 0.24769 0.0
H2137 H 0.63632 0.14634 0.25787 0.0
H2138 H 0.67551 0.15712 0.20908 0.0
H2139 H 0.65557 0.18522 0.19915 0.0
C2140 C 0.69773 0.13487 0.26925 0.0
C2141 C 0.70906 0.1224 0.2573 0.0
C2142 C 0.67972 0.14214 0.26253 0.0
C2143 C 0.67289 0.13732 0.24361 0.0
C2144 C 0.68327 0.12341 0.23245 0.0
C2145 C 0.70109 0.1158 0.23935 0.0
C2146 C 0.62848 0.17009 0.23861 0.0
C2147 C 0.63438 0.18202 0.22274 0.0
C2148 C 0.64013 0.15421 0.24454 0.0
C2149 C 0.65755 0.14973 0.23439 0.0
C2150 C 0.66209 0.16018 0.21712 0.0
C2151 C 0.6507 0.1763 0.21144 0.0
H2152 H 0.81886 0.59686 0.24759 0.0
H2153 H 0.82898 0.63754 0.1998 0.0
H2154 H 0.85032 0.60599 0.26198 0.0
H2155 H 0.85987 0.64705 0.21435 0.0
H2156 H 0.90003 0.67965 0.24528 0.0
H2157 H 0.89093 0.64858 0.23008 0.0
H2158 H 0.85226 0.63626 0.27907 0.0
H2159 H 0.86176 0.66679 0.29438 0.0
C2160 C 0.82811 0.60714 0.23967 0.0
C2161 C 0.82093 0.61725 0.22308 0.0
C2162 C 0.84617 0.61245 0.24801 0.0
C2163 C 0.85721 0.62801 0.23995 0.0
C2164 C 0.85173 0.63527 0.22132 0.0
C2165 C 0.83377 0.6299 0.21295 0.0
C2166 C 0.89036 0.66985 0.2533 0.0
C2167 C 0.88078 0.67616 0.27054 0.0
C2168 C 0.88504 0.65202 0.24448 0.0
C2169 C 0.87003 0.64039 0.25275 0.0
C2170 C 0.86356 0.64492 0.27192 0.0
C2171 C 0.86893 0.66265 0.28075 0.0
H2172 H 0.35953 0.83571 0.1944 0.0
H2173 H 0.40165 0.82426 0.2406 0.0
H2174 H 0.3478 0.86411 0.21211 0.0
H2175 H 0.39016 0.85315 0.25822 0.0
H2176 H 0.31352 0.89959 0.24801 0.0
H2177 H 0.34446 0.89339 0.23113 0.0
H2178 H 0.35959 0.8503 0.27535 0.0
H2179 H 0.32913 0.85679 0.29234 0.0
C2180 C 0.36702 0.83981 0.20786 0.0
C2181 C 0.38074 0.82705 0.21659 0.0
C2182 C 0.36032 0.8563 0.21809 0.0
C2183 C 0.36735 0.86037 0.23716 0.0
C2184 C 0.3839 0.84996 0.24392 0.0
C2185 C 0.39058 0.8334 0.23369 0.0
C2186 C 0.32385 0.88945 0.25465 0.0
C2187 C 0.31839 0.87797 0.27103 0.0
C2188 C 0.34161 0.88584 0.24488 0.0
C2189 C 0.35415 0.87071 0.25132 0.0
C2190 C 0.35027 0.86189 0.26968 0.0
C2191 C 0.33258 0.86552 0.27946 0.0
H2192 H 0.09349 0.68203 0.74822 0.0
H2193 H 0.13262 0.6778 0.69829 0.0
H2194 H 0.10445 0.6499 0.75952 0.0
H2195 H 0.1438 0.64609 0.70973 0.0
H2196 H 0.16658 0.63422 0.78808 0.0
H2197 H 0.13621 0.64699 0.77478 0.0
H2198 H 0.14479 0.61289 0.72183 0.0
H2199 H 0.17559 0.60035 0.73507 0.0
C2200 C 0.10377 0.67393 0.73914 0.0
C2201 C 0.11282 0.68287 0.72278 0.0
C2202 C 0.11015 0.6555 0.74573 0.0
C2203 C 0.1256 0.64573 0.73603 0.0
C2204 C 0.13204 0.65318 0.71779 0.0
C2205 C 0.12569 0.67156 0.71122 0.0
C2206 C 0.16161 0.62874 0.77396 0.0
C2207 C 0.17398 0.61698 0.7623 0.0
C2208 C 0.14401 0.63601 0.76629 0.0
C2209 C 0.13842 0.6316 0.74684 0.0
C2210 C 0.14901 0.61706 0.73663 0.0
C2211 C 0.16666 0.60976 0.74431 0.0
H2212 H 0.36424 0.16832 0.78529 0.0
H2213 H 0.3985 0.17302 0.73201 0.0
H2214 H 0.35588 0.13487 0.77712 0.0
H2215 H 0.39041 0.13909 0.72384 0.0
H2216 H 0.32554 0.12301 0.7027 0.0
H2217 H 0.35828 0.13358 0.71125 0.0
H2218 H 0.3544 0.1017 0.76614 0.0
H2219 H 0.32116 0.09153 0.75771 0.0
C2220 C 0.37082 0.16184 0.77229 0.0
C2221 C 0.38124 0.17355 0.75886 0.0
C2222 C 0.36615 0.14244 0.76759 0.0
C2223 C 0.37167 0.1345 0.74925 0.0
C2224 C 0.38534 0.145 0.73774 0.0
C2225 C 0.39006 0.16447 0.74249 0.0
C2226 C 0.33197 0.11745 0.71619 0.0
C2227 C 0.32031 0.10755 0.73009 0.0
C2228 C 0.35097 0.12343 0.72112 0.0
C2229 C 0.35853 0.11954 0.74003 0.0
C2230 C 0.34861 0.10572 0.75185 0.0
C2231 C 0.32951 0.0998 0.74694 0.0
H2232 H 0.81243 0.34855 0.79485 0.0
H2233 H 0.8203 0.38339 0.74231 0.0
H2234 H 0.83926 0.32712 0.78464 0.0
H2235 H 0.84702 0.36168 0.73192 0.0
H2236 H 0.88793 0.29021 0.76422 0.0
H2237 H 0.87523 0.32211 0.77462 0.0
H2238 H 0.84118 0.32594 0.72117 0.0
H2239 H 0.85365 0.294 0.71081 0.0
C2240 C 0.82043 0.35209 0.78151 0.0
C2241 C 0.81418 0.36758 0.76935 0.0
C2242 C 0.83584 0.33983 0.77566 0.0
C2243 C 0.84509 0.3426 0.75735 0.0
C2244 C 0.84007 0.35916 0.74604 0.0
C2245 C 0.82488 0.37168 0.7521 0.0
C2246 C 0.87833 0.29816 0.7543 0.0
C2247 C 0.87155 0.28938 0.7368 0.0
C2248 C 0.87098 0.31641 0.76035 0.0
C2249 C 0.85703 0.3264 0.74884 0.0
C2250 C 0.85198 0.31865 0.73033 0.0
C2251 C 0.85908 0.30028 0.72442 0.0
H2252 H 0.66465 0.88429 0.72626 0.0
H2253 H 0.65081 0.83519 0.68836 0.0
H2254 H 0.63651 0.8763 0.74686 0.0
H2255 H 0.62303 0.82712 0.70896 0.0
H2256 H 0.58822 0.80025 0.75024 0.0
H2257 H 0.59385 0.82863 0.72924 0.0
H2258 H 0.63974 0.84834 0.76853 0.0
H2259 H 0.63398 0.82033 0.78955 0.0
C2260 C 0.65513 0.87234 0.72173 0.0
C2261 C 0.66056 0.85976 0.70619 0.0
C2262 C 0.63899 0.86773 0.73365 0.0
C2263 C 0.62801 0.85057 0.73012 0.0
C2264 C 0.63125 0.84031 0.71241 0.0
C2265 C 0.64739 0.84488 0.70054 0.0
C2266 C 0.59885 0.81114 0.75497 0.0
C2267 C 0.61148 0.8074 0.77098 0.0
C2268 C 0.60211 0.82743 0.74281 0.0
C2269 C 0.61792 0.84021 0.74661 0.0
C2270 C 0.62766 0.83863 0.76483 0.0
C2271 C 0.62441 0.82238 0.77697 0.0
H2272 H 0.20776 0.16615 0.37026 0.0
H2273 H 0.26581 0.18792 0.35742 0.0
H2274 H 0.21675 0.13411 0.35692 0.0
H2275 H 0.27444 0.15737 0.34223 0.0
H2276 H 0.28419 0.11511 0.29828 0.0
H2277 H 0.28127 0.12832 0.33137 0.0
H2278 H 0.21808 0.11977 0.32846 0.0
H2279 H 0.22173 0.1044 0.297 0.0
C2280 C 0.22258 0.16384 0.36487 0.0
C2281 C 0.23609 0.17934 0.36462 0.0
C2282 C 0.22775 0.14558 0.35679 0.0
C2283 C 0.24611 0.14294 0.34727 0.0
C2284 C 0.26013 0.15817 0.34907 0.0
C2285 C 0.25519 0.17601 0.35777 0.0
C2286 C 0.26989 0.11523 0.30532 0.0
C2287 C 0.25314 0.10919 0.29497 0.0
C2288 C 0.26801 0.12331 0.32417 0.0
C2289 C 0.24919 0.12687 0.33233 0.0
C2290 C 0.23288 0.11804 0.32298 0.0
C2291 C 0.23493 0.10904 0.30465 0.0
H2292 H 0.83891 0.29352 0.31176 0.0
H2293 H 0.87969 0.24502 0.31571 0.0
H2294 H 0.82073 0.2805 0.3398 0.0
H2295 H 0.86118 0.23175 0.34355 0.0
H2296 H 0.79523 0.20442 0.35184 0.0
H2297 H 0.82565 0.2179 0.33847 0.0
H2298 H 0.82002 0.26855 0.37628 0.0
H2299 H 0.78975 0.25497 0.38997 0.0
C2300 C 0.84445 0.28053 0.31913 0.0
C2301 C 0.86062 0.27024 0.31146 0.0
C2302 C 0.83407 0.27307 0.33523 0.0
C2303 C 0.83945 0.25499 0.3437 0.0
C2304 C 0.85671 0.24568 0.33724 0.0
C2305 C 0.86737 0.25338 0.32139 0.0
C2306 C 0.8009 0.21802 0.35791 0.0
C2307 C 0.78989 0.22875 0.37173 0.0
C2308 C 0.81838 0.22572 0.3503 0.0
C2309 C 0.82503 0.2444 0.35617 0.0
C2310 C 0.81514 0.25417 0.37144 0.0
C2311 C 0.79784 0.2463 0.37932 0.0
H2312 H 0.69518 0.85534 0.32787 0.0
H2313 H 0.74039 0.89906 0.31854 0.0
H2314 H 0.71057 0.84591 0.35846 0.0
H2315 H 0.75566 0.88983 0.34957 0.0
H2316 H 0.79139 0.83084 0.36239 0.0
H2317 H 0.77419 0.8598 0.35114 0.0
H2318 H 0.7259 0.84654 0.39033 0.0
H2319 H 0.74307 0.81717 0.40137 0.0
C2320 C 0.7079 0.8636 0.33276 0.0
C2321 C 0.71705 0.87728 0.32025 0.0
C2322 C 0.71675 0.85826 0.35052 0.0
C2323 C 0.73488 0.86657 0.35613 0.0
C2324 C 0.74204 0.8827 0.34535 0.0
C2325 C 0.73319 0.88805 0.32754 0.0
C2326 C 0.77751 0.83452 0.36931 0.0
C2327 C 0.76822 0.82115 0.38206 0.0
C2328 C 0.76759 0.85131 0.36291 0.0
C2329 C 0.74821 0.85507 0.36921 0.0
C2330 C 0.74054 0.84369 0.38471 0.0
C2331 C 0.75049 0.82687 0.39113 0.0
H2332 H 0.16927 0.79686 0.3569 0.0
H2333 H 0.18512 0.75121 0.39817 0.0
H2334 H 0.13958 0.77919 0.34868 0.0
H2335 H 0.15493 0.73365 0.3903 0.0
H2336 H 0.13865 0.69784 0.33256 0.0
H2337 H 0.15167 0.71564 0.36039 0.0
H2338 H 0.10915 0.76188 0.35093 0.0
H2339 H 0.09641 0.74422 0.32253 0.0
C2340 C 0.166 0.78348 0.36492 0.0
C2341 C 0.18003 0.77507 0.37756 0.0
C2342 C 0.14877 0.7733 0.36028 0.0
C2343 C 0.14515 0.75454 0.36828 0.0
C2344 C 0.15757 0.74777 0.3834 0.0
C2345 C 0.17487 0.75795 0.38802 0.0
C2346 C 0.13148 0.7114 0.33684 0.0
C2347 C 0.11711 0.72001 0.3247 0.0
C2348 C 0.13892 0.72167 0.35301 0.0
C2349 C 0.13202 0.74067 0.35745 0.0
C2350 C 0.11526 0.74759 0.34748 0.0
C2351 C 0.10784 0.73734 0.33123 0.0
H2352 H 0.21396 0.83717 0.62683 0.0
H2353 H 0.26887 0.82179 0.59885 0.0
H2354 H 0.22967 0.86491 0.64251 0.0
H2355 H 0.28462 0.84996 0.61427 0.0
H2356 H 0.3015 0.85407 0.68211 0.0
H2357 H 0.29234 0.84681 0.64859 0.0
H2358 H 0.24907 0.89333 0.65008 0.0
H2359 H 0.258 0.90034 0.68406 0.0
C2360 C 0.22915 0.84033 0.62316 0.0
C2361 C 0.24038 0.82673 0.6124 0.0
C2362 C 0.23824 0.85639 0.63214 0.0
C2363 C 0.25871 0.85913 0.63042 0.0
C2364 C 0.26898 0.84783 0.61645 0.0
C2365 C 0.25986 0.83172 0.60745 0.0
C2366 C 0.29056 0.8633 0.67512 0.0
C2367 C 0.27991 0.87721 0.68609 0.0
C2368 C 0.28536 0.85924 0.65567 0.0
C2369 C 0.26943 0.86905 0.64677 0.0
C2370 C 0.26103 0.88514 0.65669 0.0
C2371 C 0.26622 0.8892 0.6762 0.0
H2372 H 0.16739 0.19043 0.65198 0.0
H2373 H 0.16516 0.23267 0.60451 0.0
H2374 H 0.13833 0.20507 0.66641 0.0
H2375 H 0.1358 0.24723 0.61894 0.0
H2376 H 0.09538 0.23629 0.69829 0.0
H2377 H 0.10477 0.21776 0.66913 0.0
H2378 H 0.13863 0.26743 0.64857 0.0
H2379 H 0.12916 0.28597 0.67747 0.0
C2380 C 0.16021 0.20228 0.64412 0.0
C2381 C 0.16907 0.21081 0.62749 0.0
C2382 C 0.14337 0.21067 0.65236 0.0
C2383 C 0.13506 0.22775 0.64414 0.0
C2384 C 0.14214 0.23436 0.62586 0.0
C2385 C 0.15896 0.2259 0.61754 0.0
C2386 C 0.10407 0.24363 0.68712 0.0
C2387 C 0.11214 0.26239 0.69058 0.0
C2388 C 0.10953 0.2329 0.67042 0.0
C2389 C 0.12297 0.24084 0.65685 0.0
C2390 C 0.12836 0.26074 0.65875 0.0
C2391 C 0.12299 0.27141 0.67546 0.0
H2392 H 0.75631 0.10802 0.68263 0.0
H2393 H 0.70362 0.14227 0.69178 0.0
H2394 H 0.76684 0.13103 0.65707 0.0
H2395 H 0.71394 0.16493 0.66589 0.0
H2396 H 0.78661 0.19998 0.65403 0.0
H2397 H 0.77632 0.16779 0.66615 0.0
H2398 H 0.72503 0.16993 0.62883 0.0
H2399 H 0.73548 0.20195 0.61632 0.0
C2400 C 0.7465 0.11988 0.67852 0.0
C2401 C 0.72917 0.12343 0.68927 0.0
C2402 C 0.75264 0.13312 0.664 0.0
C2403 C 0.74129 0.1498 0.65966 0.0
C2404 C 0.72292 0.15211 0.66887 0.0
C2405 C 0.717 0.13915 0.68369 0.0
C2406 C 0.77352 0.19329 0.64789 0.0
C2407 C 0.76179 0.20361 0.63436 0.0
C2408 C 0.76767 0.17481 0.65476 0.0
C2409 C 0.74981 0.16647 0.64849 0.0
C2410 C 0.73884 0.17608 0.63388 0.0
C2411 C 0.74491 0.19437 0.62669 0.0
H2412 H 0.83325 0.79536 0.63915 0.0
H2413 H 0.82052 0.7525 0.59395 0.0
H2414 H 0.86207 0.77683 0.64859 0.0
H2415 H 0.84959 0.73396 0.60342 0.0
H2416 H 0.85663 0.69693 0.66334 0.0
H2417 H 0.84773 0.71522 0.63418 0.0
H2418 H 0.89284 0.75808 0.64699 0.0
H2419 H 0.90175 0.73978 0.6764 0.0
C2420 C 0.83711 0.78253 0.63053 0.0
C2421 C 0.82401 0.77496 0.61643 0.0
C2422 C 0.85381 0.77184 0.63591 0.0
C2423 C 0.85773 0.75345 0.62724 0.0
C2424 C 0.84665 0.7478 0.61073 0.0
C2425 C 0.82997 0.75855 0.60527 0.0
C2426 C 0.86537 0.70969 0.6595 0.0
C2427 C 0.87921 0.7174 0.67281 0.0
C2428 C 0.86029 0.72024 0.64261 0.0
C2429 C 0.86904 0.7386 0.6387 0.0
C2430 C 0.88543 0.74428 0.64995 0.0
C2431 C 0.89058 0.73368 0.66682 0.0
H2432 H 0.30067 0.28466 0.1475 0.0
H2433 H 0.29338 0.23597 0.10734 0.0
H2434 H 0.32934 0.26853 0.16178 0.0
H2435 H 0.32177 0.21963 0.12204 0.0
H2436 H 0.37947 0.23701 0.18635 0.0
H2437 H 0.3642 0.25158 0.15733 0.0
H2438 H 0.31882 0.20723 0.15897 0.0
H2439 H 0.33374 0.1929 0.18827 0.0
C2440 C 0.30569 0.27092 0.14117 0.0
C2441 C 0.29466 0.26151 0.12646 0.0
C2442 C 0.32213 0.26168 0.14931 0.0
C2443 C 0.32759 0.24273 0.14312 0.0
C2444 C 0.31782 0.23422 0.12706 0.0
C2445 C 0.30162 0.24367 0.1186 0.0
C2446 C 0.36674 0.2298 0.18003 0.0
C2447 C 0.35761 0.21397 0.18979 0.0
C2448 C 0.35798 0.23824 0.16345 0.0
C2449 C 0.34026 0.23066 0.15608 0.0
C2450 C 0.33255 0.21332 0.1643 0.0
C2451 C 0.34107 0.20512 0.18112 0.0
H2452 H 0.39955 0.73393 0.81752 0.0
H2453 H 0.36625 0.78689 0.82847 0.0
H2454 H 0.3855 0.71908 0.84693 0.0
H2455 H 0.35188 0.77196 0.85737 0.0
H2456 H 0.31516 0.74281 0.89798 0.0
H2457 H 0.34727 0.75515 0.88789 0.0
H2458 H 0.35242 0.70724 0.84645 0.0
H2459 H 0.32078 0.69476 0.85683 0.0
C2460 C 0.38993 0.74278 0.82664 0.0
C2461 C 0.38337 0.76132 0.82017 0.0
C2462 C 0.38172 0.73415 0.84346 0.0
C2463 C 0.36689 0.74394 0.85407 0.0
C2464 C 0.36305 0.76377 0.84952 0.0
C2465 C 0.37127 0.77239 0.83276 0.0
C2466 C 0.32356 0.73438 0.88739 0.0
C2467 C 0.31509 0.71816 0.8777 0.0
C2468 C 0.34196 0.74158 0.88149 0.0
C2469 C 0.35218 0.73265 0.86585 0.0
C2470 C 0.34503 0.71468 0.85844 0.0
C2471 C 0.3267 0.70752 0.86432 0.0
H2472 H 0.30389 0.33822 0.84484 0.0
H2473 H 0.25691 0.33274 0.88731 0.0
H2474 H 0.2872 0.36578 0.82984 0.0
H2475 H 0.24032 0.36077 0.87249 0.0
H2476 H 0.20623 0.36465 0.81148 0.0
H2477 H 0.22338 0.35701 0.84168 0.0
H2478 H 0.27039 0.3965 0.82518 0.0
H2479 H 0.25332 0.40387 0.79457 0.0
C2480 C 0.29046 0.34349 0.85161 0.0
C2481 C 0.28136 0.33272 0.86675 0.0
C2482 C 0.28084 0.35947 0.84302 0.0
C2483 C 0.26197 0.36506 0.84948 0.0
C2484 C 0.25455 0.35645 0.86678 0.0
C2485 C 0.26419 0.34043 0.8754 0.0
C2486 C 0.21983 0.37235 0.81458 0.0
C2487 C 0.22872 0.38427 0.80021 0.0
C2488 C 0.2297 0.36805 0.83208 0.0
C2489 C 0.24866 0.37563 0.83561 0.0
C2490 C 0.25607 0.38998 0.82266 0.0
C2491 C 0.24617 0.3943 0.80512 0.0
H2492 H 0.59264 0.23998 0.81636 0.0
H2493 H 0.63656 0.28435 0.8273 0.0
H2494 H 0.59914 0.22557 0.84879 0.0
H2495 H 0.64319 0.2703 0.85927 0.0
H2496 H 0.67135 0.24046 0.90152 0.0
H2497 H 0.64058 0.25604 0.89144 0.0
H2498 H 0.6289 0.20705 0.85262 0.0
H2499 H 0.65921 0.19169 0.86293 0.0
C2500 C 0.60298 0.24718 0.82612 0.0
C2501 C 0.61448 0.26291 0.81936 0.0
C2502 C 0.60674 0.23895 0.84466 0.0
C2503 C 0.62211 0.24636 0.85646 0.0
C2504 C 0.6313 0.26403 0.85073 0.0
C2505 C 0.62767 0.27206 0.83225 0.0
C2506 C 0.66151 0.23252 0.89182 0.0
C2507 C 0.66778 0.21524 0.88248 0.0
C2508 C 0.64393 0.24148 0.88592 0.0
C2509 C 0.63277 0.23331 0.87046 0.0
C2510 C 0.63719 0.21406 0.86428 0.0
C2511 C 0.6547 0.20518 0.87012 0.0
H2512 H 0.80938 0.65985 0.83621 0.0
H2513 H 0.77331 0.60856 0.82575 0.0
H2514 H 0.78949 0.66804 0.86452 0.0
H2515 H 0.75345 0.6167 0.8544 0.0
H2516 H 0.70768 0.66986 0.86096 0.0
H2517 H 0.73023 0.64376 0.85241 0.0
H2518 H 0.77174 0.66521 0.89547 0.0
H2519 H 0.74919 0.69162 0.90392 0.0
C2520 C 0.79778 0.64978 0.84046 0.0
C2521 C 0.79247 0.63403 0.82818 0.0
C2522 C 0.78634 0.65443 0.85689 0.0
C2523 C 0.76939 0.64338 0.86137 0.0
C2524 C 0.7661 0.62579 0.85103 0.0
C2525 C 0.7776 0.62109 0.83461 0.0
C2526 C 0.72118 0.66853 0.86932 0.0
C2527 C 0.72701 0.68346 0.88239 0.0
C2528 C 0.7342 0.65341 0.86445 0.0
C2529 C 0.75321 0.6529 0.87267 0.0
C2530 C 0.75745 0.66559 0.88843 0.0
C2531 C 0.7444 0.68071 0.89334 0.0
H2532 H 0.67903 0.75456 0.09276 0.0
H2533 H 0.66738 0.70426 0.12982 0.0
H2534 H 0.64937 0.77037 0.105 0.0
H2535 H 0.63818 0.72017 0.14234 0.0
H2536 H 0.63974 0.799 0.16811 0.0
H2537 H 0.64977 0.78457 0.13723 0.0
H2538 H 0.60775 0.73756 0.14535 0.0
H2539 H 0.59796 0.75186 0.17669 0.0
C2540 C 0.66972 0.74644 0.10283 0.0
C2541 C 0.6761 0.72851 0.11102 0.0
C2542 C 0.65274 0.75562 0.10998 0.0
C2543 C 0.64186 0.747 0.12535 0.0
C2544 C 0.64627 0.72749 0.13073 0.0
C2545 C 0.6632 0.71831 0.12357 0.0
C2546 C 0.63201 0.78603 0.16299 0.0
C2547 C 0.61865 0.77617 0.17532 0.0
C2548 C 0.6377 0.77774 0.14508 0.0
C2549 C 0.63009 0.75943 0.13908 0.0
C2550 C 0.61434 0.75136 0.14982 0.0
C2551 C 0.60863 0.75968 0.16779 0.0
H2552 H 0.24709 0.58874 0.17945 0.0
H2553 H 0.19919 0.62908 0.16881 0.0
H2554 H 0.25941 0.59471 0.1464 0.0
H2555 H 0.21173 0.63551 0.13633 0.0
H2556 H 0.24118 0.6674 0.09556 0.0
H2557 H 0.22655 0.63618 0.10505 0.0
H2558 H 0.27688 0.62424 0.14205 0.0
H2559 H 0.29158 0.65489 0.13215 0.0
C2560 C 0.23868 0.59827 0.16984 0.0
C2561 C 0.22286 0.60942 0.17719 0.0
C2562 C 0.24583 0.60174 0.15084 0.0
C2563 C 0.23738 0.61656 0.13912 0.0
C2564 C 0.2191 0.62439 0.14501 0.0
C2565 C 0.21189 0.62081 0.16389 0.0
C2566 C 0.24959 0.65764 0.10493 0.0
C2567 C 0.267 0.66414 0.11409 0.0
C2568 C 0.24111 0.63972 0.11046 0.0
C2569 C 0.24986 0.62825 0.12532 0.0
C2570 C 0.26927 0.63282 0.131 0.0
C2571 C 0.27777 0.65064 0.12541 0.0
H2572 H 0.708 0.37726 0.19162 0.0
H2573 H 0.76996 0.38956 0.1875 0.0
H2574 H 0.70804 0.36419 0.15887 0.0
H2575 H 0.77 0.37872 0.15341 0.0
H2576 H 0.71173 0.31903 0.11635 0.0
H2577 H 0.71014 0.35223 0.12953 0.0
H2578 H 0.77321 0.35039 0.13948 0.0
H2579 H 0.77453 0.31867 0.1242 0.0
C2580 C 0.72146 0.37817 0.1831 0.0
C2581 C 0.73906 0.38389 0.19209 0.0
C2582 C 0.72162 0.3706 0.16403 0.0
C2583 C 0.73941 0.36891 0.15339 0.0
C2584 C 0.75625 0.37819 0.16137 0.0
C2585 C 0.75625 0.38493 0.18083 0.0
C2586 C 0.72525 0.32637 0.12052 0.0
C2587 C 0.74319 0.31637 0.11962 0.0
C2588 C 0.7244 0.34528 0.12859 0.0
C2589 C 0.74128 0.35386 0.13723 0.0
C2590 C 0.75959 0.34467 0.13366 0.0
C2591 C 0.76049 0.32621 0.12479 0.0
loop_
_geom_bond_atom_site_label_1
_geom_bond_atom_site_label_2
_geom_bond_distance
_geom_bond_site_symmetry_2
_ccdc_geom_bond_type
Co0 O1 2.216 . S
Co0 O2 2.091 . S
Co0 O4 2.004 . S
Co0 O10 2.021 . S
Co0 O12 2.137 . S
Co0 O13 2.244 . S
O1 Co0 2.216 . S
O1 C8 1.247 . S
O2 Co0 2.091 . S
O2 C8 1.261 . S
C3 O12 1.247 . S
C3 O13 1.272 . S
O4 Co0 2.004 . S
O4 C9 1.259 . S
Co5 O6 2.061 . S
Co5 O11 2.052 . S
Co5 O13 2.135 . S
O6 Co5 2.061 . S
O6 C9 1.235 . S
C7 O10 1.238 . S
C7 O11 1.241 . S
C8 O1 1.247 . S
C8 O2 1.261 . S
C9 O4 1.259 . S
C9 O6 1.235 . S
O10 Co0 2.021 . S
O10 C7 1.238 . S
O11 Co5 2.052 . S
O11 C7 1.241 . S
O12 Co0 2.137 . S
O12 C3 1.247 . S
O13 Co0 2.244 . S
O13 C3 1.272 . S
O13 Co5 2.135 . S
Co14 O15 2.216 . S
Co14 O16 2.091 . S
Co14 O18 2.004 . S
Co14 O24 2.021 . S
Co14 O26 2.137 . S
Co14 O27 2.244 . S
O15 Co14 2.216 . S
O15 C22 1.247 . S
O16 Co14 2.091 . S
O16 C22 1.261 . S
C17 O26 1.247 . S
C17 O27 1.272 . S
O18 Co14 2.004 . S
O18 C23 1.259 . S
Co19 O20 2.061 . S
Co19 O25 2.052 . S
Co19 O27 2.135 . S
O20 Co19 2.061 . S
O20 C23 1.235 . S
C21 O24 1.238 . S
C21 O25 1.241 . S
C22 O15 1.247 . S
C22 O16 1.261 . S
C23 O18 1.259 . S
C23 O20 1.235 . S
O24 Co14 2.021 . S
O24 C21 1.238 . S
O25 Co19 2.052 . S
O25 C21 1.241 . S
O26 Co14 2.137 . S
O26 C17 1.247 . S
O27 Co14 2.244 . S
O27 C17 1.272 . S
O27 Co19 2.135 . S
Co28 O29 2.216 . S
Co28 O30 2.091 . S
Co28 O32 2.004 . S
Co28 O38 2.021 . S
Co28 O40 2.137 . S
Co28 O41 2.244 . S
O29 Co28 2.216 . S
O29 C36 1.247 . S
O30 Co28 2.091 . S
O30 C36 1.261 . S
C31 O40 1.247 . S
C31 O41 1.272 . S
O32 Co28 2.004 . S
O32 C37 1.259 . S
Co33 O34 2.061 . S
Co33 O39 2.052 . S
Co33 O41 2.135 . S
O34 Co33 2.061 . S
O34 C37 1.235 . S
C35 O38 1.238 . S
C35 O39 1.241 . S
C36 O29 1.247 . S
C36 O30 1.261 . S
C37 O32 1.259 . S
C37 O34 1.235 . S
O38 Co28 2.021 . S
O38 C35 1.238 . S
O39 Co33 2.052 . S
O39 C35 1.241 . S
O40 Co28 2.137 . S
O40 C31 1.247 . S
O41 Co28 2.244 . S
O41 C31 1.272 . S
O41 Co33 2.135 . S
Co42 O43 2.216 . S
Co42 O44 2.091 . S
Co42 O46 2.004 . S
Co42 O52 2.021 . S
Co42 O54 2.137 . S
Co42 O55 2.244 . S
O43 Co42 2.216 . S
O43 C50 1.247 . S
O44 Co42 2.091 . S
O44 C50 1.261 . S
C45 O54 1.247 . S
C45 O55 1.272 . S
O46 Co42 2.004 . S
O46 C51 1.259 . S
Co47 O48 2.061 . S
Co47 O53 2.052 . S
Co47 O55 2.135 . S
O48 Co47 2.061 . S
O48 C51 1.235 . S
C49 O52 1.238 . S
C49 O53 1.241 . S
C50 O43 1.247 . S
C50 O44 1.261 . S
C51 O46 1.259 . S
C51 O48 1.235 . S
O52 Co42 2.021 . S
O52 C49 1.238 . S
O53 Co47 2.052 . S
O53 C49 1.241 . S
O54 Co42 2.137 . S
O54 C45 1.247 . S
O55 Co42 2.244 . S
O55 C45 1.272 . S
O55 Co47 2.135 . S
Co56 O57 2.216 . S
Co56 O58 2.091 . S
Co56 O60 2.004 . S
Co56 O66 2.021 . S
Co56 O68 2.137 . S
Co56 O69 2.244 . S
O57 Co56 2.216 . S
O57 C64 1.247 . S
O58 Co56 2.091 . S
O58 C64 1.261 . S
C59 O68 1.247 . S
C59 O69 1.272 . S
O60 Co56 2.004 . S
O60 C65 1.259 . S
Co61 O62 2.061 . S
Co61 O67 2.052 . S
Co61 O69 2.135 . S
O62 Co61 2.061 . S
O62 C65 1.235 . S
C63 O66 1.238 . S
C63 O67 1.241 . S
C64 O57 1.247 . S
C64 O58 1.261 . S
C65 O60 1.259 . S
C65 O62 1.235 . S
O66 Co56 2.021 . S
O66 C63 1.238 . S
O67 Co61 2.052 . S
O67 C63 1.241 . S
O68 Co56 2.137 . S
O68 C59 1.247 . S
O69 Co56 2.244 . S
O69 C59 1.272 . S
O69 Co61 2.135 . S
Co70 O71 2.216 . S
Co70 O72 2.091 . S
Co70 O74 2.004 . S
Co70 O80 2.021 . S
Co70 O82 2.137 . S
Co70 O83 2.244 . S
O71 Co70 2.216 . S
O71 C78 1.247 . S
O72 Co70 2.091 . S
O72 C78 1.261 . S
C73 O82 1.247 . S
C73 O83 1.272 . S
O74 Co70 2.004 . S
O74 C79 1.259 . S
Co75 O76 2.061 . S
Co75 O81 2.052 . S
Co75 O83 2.135 . S
O76 Co75 2.061 . S
O76 C79 1.235 . S
C77 O80 1.238 . S
C77 O81 1.241 . S
C78 O71 1.247 . S
C78 O72 1.261 . S
C79 O74 1.259 . S
C79 O76 1.235 . S
O80 Co70 2.021 . S
O80 C77 1.238 . S
O81 Co75 2.052 . S
O81 C77 1.241 . S
O82 Co70 2.137 . S
O82 C73 1.247 . S
O83 Co70 2.244 . S
O83 C73 1.272 . S
O83 Co75 2.135 . S
Co84 O85 2.216 . S
Co84 O86 2.091 . S
Co84 O88 2.004 . S
Co84 O94 2.021 . S
Co84 O96 2.137 . S
Co84 O97 2.244 . S
O85 Co84 2.216 . S
O85 C92 1.247 . S
O86 Co84 2.091 . S
O86 C92 1.261 . S
C87 O96 1.247 . S
C87 O97 1.272 . S
O88 Co84 2.004 . S
O88 C93 1.259 . S
Co89 O90 2.061 . S
Co89 O95 2.052 . S
Co89 O97 2.135 . S
O90 Co89 2.061 . S
O90 C93 1.235 . S
C91 O94 1.238 . S
C91 O95 1.241 . S
C92 O85 1.247 . S
C92 O86 1.261 . S
C93 O88 1.259 . S
C93 O90 1.235 . S
O94 Co84 2.021 . S
O94 C91 1.238 . S
O95 Co89 2.052 . S
O95 C91 1.241 . S
O96 Co84 2.137 . S
O96 C87 1.247 . S
O97 Co84 2.244 . S
O97 C87 1.272 . S
O97 Co89 2.135 . S
Co98 O99 2.216 . S
Co98 O100 2.091 . S
Co98 O102 2.004 . S
Co98 O108 2.021 . S
Co98 O110 2.137 . S
Co98 O111 2.244 . S
O99 Co98 2.216 . S
O99 C106 1.247 . S
O100 Co98 2.091 . S
O100 C106 1.261 . S
C101 O110 1.247 . S
C101 O111 1.272 . S
O102 Co98 2.004 . S
O102 C107 1.259 . S
Co103 O104 2.061 . S
Co103 O109 2.052 . S
Co103 O111 2.135 . S
O104 Co103 2.061 . S
O104 C107 1.235 . S
C105 O108 1.238 . S
C105 O109 1.241 . S
C106 O99 1.247 . S
C106 O100 1.261 . S
C107 O102 1.259 . S
C107 O104 1.235 . S
O108 Co98 2.021 . S
O108 C105 1.238 . S
O109 Co103 2.052 . S
O109 C105 1.241 . S
O110 Co98 2.137 . S
O110 C101 1.247 . S
O111 Co98 2.244 . S
O111 C101 1.272 . S
O111 Co103 2.135 . S
Co112 O113 2.216 . S
Co112 O114 2.091 . S
Co112 O116 2.004 . S
Co112 O122 2.021 . S
Co112 O124 2.137 . S
Co112 O125 2.244 . S
O113 Co112 2.216 . S
O113 C120 1.247 . S
O114 Co112 2.091 . S
O114 C120 1.261 . S
C115 O124 1.247 . S
C115 O125 1.272 . S
O116 Co112 2.004 . S
O116 C121 1.259 . S
Co117 O118 2.061 . S
Co117 O123 2.052 . S
Co117 O125 2.135 . S
O118 Co117 2.061 . S
O118 C121 1.235 . S
C119 O122 1.238 . S
C119 O123 1.241 . S
C120 O113 1.247 . S
C120 O114 1.261 . S
C121 O116 1.259 . S
C121 O118 1.235 . S
O122 Co112 2.021 . S
O122 C119 1.238 . S
O123 Co117 2.052 . S
O123 C119 1.241 . S
O124 Co112 2.137 . S
O124 C115 1.247 . S
O125 Co112 2.244 . S
O125 C115 1.272 . S
O125 Co117 2.135 . S
Co126 O127 2.216 . S
Co126 O128 2.091 . S
Co126 O130 2.004 . S
Co126 O136 2.021 . S
Co126 O138 2.137 . S
Co126 O139 2.244 . S
O127 Co126 2.216 . S
O127 C134 1.247 . S
O128 Co126 2.091 . S
O128 C134 1.261 . S
C129 O138 1.247 . S
C129 O139 1.272 . S
O130 Co126 2.004 . S
O130 C135 1.259 . S
Co131 O132 2.061 . S
Co131 O137 2.052 . S
Co131 O139 2.135 . S
O132 Co131 2.061 . S
O132 C135 1.235 . S
C133 O136 1.238 . S
C133 O137 1.241 . S
C134 O127 1.247 . S
C134 O128 1.261 . S
C135 O130 1.259 . S
C135 O132 1.235 . S
O136 Co126 2.021 . S
O136 C133 1.238 . S
O137 Co131 2.052 . S
O137 C133 1.241 . S
O138 Co126 2.137 . S
O138 C129 1.247 . S
O139 Co126 2.244 . S
O139 C129 1.272 . S
O139 Co131 2.135 . S
Co140 O141 2.216 . S
Co140 O142 2.091 . S
Co140 O144 2.004 . S
Co140 O150 2.021 . S
Co140 O152 2.137 . S
Co140 O153 2.244 . S
O141 Co140 2.216 . S
O141 C148 1.247 . S
O142 Co140 2.091 . S
O142 C148 1.261 . S
C143 O152 1.247 . S
C143 O153 1.272 . S
O144 Co140 2.004 . S
O144 C149 1.259 . S
Co145 O146 2.061 . S
Co145 O151 2.052 . S
Co145 O153 2.135 . S
O146 Co145 2.061 . S
O146 C149 1.235 . S
C147 O150 1.238 . S
C147 O151 1.241 . S
C148 O141 1.247 . S
C148 O142 1.261 . S
C149 O144 1.259 . S
C149 O146 1.235 . S
O150 Co140 2.021 . S
O150 C147 1.238 . S
O151 Co145 2.052 . S
O151 C147 1.241 . S
O152 Co140 2.137 . S
O152 C143 1.247 . S
O153 Co140 2.244 . S
O153 C143 1.272 . S
O153 Co145 2.135 . S
Co154 O155 2.216 . S
Co154 O156 2.091 . S
Co154 O158 2.004 . S
Co154 O164 2.021 . S
Co154 O166 2.137 . S
Co154 O167 2.244 . S
O155 Co154 2.216 . S
O155 C162 1.247 . S
O156 Co154 2.091 . S
O156 C162 1.261 . S
C157 O166 1.247 . S
C157 O167 1.272 . S
O158 Co154 2.004 . S
O158 C163 1.259 . S
Co159 O160 2.061 . S
Co159 O165 2.052 . S
Co159 O167 2.135 . S
O160 Co159 2.061 . S
O160 C163 1.235 . S
C161 O164 1.238 . S
C161 O165 1.241 . S
C162 O155 1.247 . S
C162 O156 1.261 . S
C163 O158 1.259 . S
C163 O160 1.235 . S
O164 Co154 2.021 . S
O164 C161 1.238 . S
O165 Co159 2.052 . S
O165 C161 1.241 . S
O166 Co154 2.137 . S
O166 C157 1.247 . S
O167 Co154 2.244 . S
O167 C157 1.272 . S
O167 Co159 2.135 . S
Co168 O169 2.216 . S
Co168 O170 2.091 . S
Co168 O172 2.004 . S
Co168 O178 2.021 . S
Co168 O180 2.137 . S
Co168 O181 2.244 . S
O169 Co168 2.216 . S
O169 C176 1.247 . S
O170 Co168 2.091 . S
O170 C176 1.261 . S
C171 O180 1.247 . S
C171 O181 1.272 . S
O172 Co168 2.004 . S
O172 C177 1.259 . S
Co173 O174 2.061 . S
Co173 O179 2.052 . S
Co173 O181 2.135 . S
O174 Co173 2.061 . S
O174 C177 1.235 . S
C175 O178 1.238 . S
C175 O179 1.241 . S
C176 O169 1.247 . S
C176 O170 1.261 . S
C177 O172 1.259 . S
C177 O174 1.235 . S
O178 Co168 2.021 . S
O178 C175 1.238 . S
O179 Co173 2.052 . S
O179 C175 1.241 . S
O180 Co168 2.137 . S
O180 C171 1.247 . S
O181 Co168 2.244 . S
O181 C171 1.272 . S
O181 Co173 2.135 . S
Co182 O183 2.216 . S
Co182 O184 2.091 . S
Co182 O186 2.004 . S
Co182 O192 2.021 . S
Co182 O194 2.137 . S
Co182 O195 2.244 . S
O183 Co182 2.216 . S
O183 C190 1.247 . S
O184 Co182 2.091 . S
O184 C190 1.261 . S
C185 O194 1.247 . S
C185 O195 1.272 . S
O186 Co182 2.004 . S
O186 C191 1.259 . S
Co187 O188 2.061 . S
Co187 O193 2.052 . S
Co187 O195 2.135 . S
O188 Co187 2.061 . S
O188 C191 1.235 . S
C189 O192 1.238 . S
C189 O193 1.241 . S
C190 O183 1.247 . S
C190 O184 1.261 . S
C191 O186 1.259 . S
C191 O188 1.235 . S
O192 Co182 2.021 . S
O192 C189 1.238 . S
O193 Co187 2.052 . S
O193 C189 1.241 . S
O194 Co182 2.137 . S
O194 C185 1.247 . S
O195 Co182 2.244 . S
O195 C185 1.272 . S
O195 Co187 2.135 . S
Co196 O197 2.216 . S
Co196 O198 2.091 . S
Co196 O200 2.004 . S
Co196 O206 2.021 . S
Co196 O208 2.137 . S
Co196 O209 2.244 . S
O197 Co196 2.216 . S
O197 C204 1.247 . S
O198 Co196 2.091 . S
O198 C204 1.261 . S
C199 O208 1.247 . S
C199 O209 1.272 . S
O200 Co196 2.004 . S
O200 C205 1.259 . S
Co201 O202 2.061 . S
Co201 O207 2.052 . S
Co201 O209 2.135 . S
O202 Co201 2.061 . S
O202 C205 1.235 . S
C203 O206 1.238 . S
C203 O207 1.241 . S
C204 O197 1.247 . S
C204 O198 1.261 . S
C205 O200 1.259 . S
C205 O202 1.235 . S
O206 Co196 2.021 . S
O206 C203 1.238 . S
O207 Co201 2.052 . S
O207 C203 1.241 . S
O208 Co196 2.137 . S
O208 C199 1.247 . S
O209 Co196 2.244 . S
O209 C199 1.272 . S
O209 Co201 2.135 . S
Co210 O211 2.216 . S
Co210 O212 2.091 . S
Co210 O214 2.004 . S
Co210 O220 2.021 . S
Co210 O222 2.137 . S
Co210 O223 2.244 . S
O211 Co210 2.216 . S
O211 C218 1.247 . S
O212 Co210 2.091 . S
O212 C218 1.261 . S
C213 O222 1.247 . S
C213 O223 1.272 . S
O214 Co210 2.004 . S
O214 C219 1.259 . S
Co215 O216 2.061 . S
Co215 O221 2.052 . S
Co215 O223 2.135 . S
O216 Co215 2.061 . S
O216 C219 1.235 . S
C217 O220 1.238 . S
C217 O221 1.241 . S
C218 O211 1.247 . S
C218 O212 1.261 . S
C219 O214 1.259 . S
C219 O216 1.235 . S
O220 Co210 2.021 . S
O220 C217 1.238 . S
O221 Co215 2.052 . S
O221 C217 1.241 . S
O222 Co210 2.137 . S
O222 C213 1.247 . S
O223 Co210 2.244 . S
O223 C213 1.272 . S
O223 Co215 2.135 . S
Co224 O225 2.216 . S
Co224 O226 2.091 . S
Co224 O228 2.004 . S
Co224 O234 2.021 . S
Co224 O236 2.137 . S
Co224 O237 2.244 . S
O225 Co224 2.216 . S
O225 C232 1.247 . S
O226 Co224 2.091 . S
O226 C232 1.261 . S
C227 O236 1.247 . S
C227 O237 1.272 . S
O228 Co224 2.004 . S
O228 C233 1.259 . S
Co229 O230 2.061 . S
Co229 O235 2.052 . S
Co229 O237 2.135 . S
O230 Co229 2.061 . S
O230 C233 1.235 . S
C231 O234 1.238 . S
C231 O235 1.241 . S
C232 O225 1.247 . S
C232 O226 1.261 . S
C233 O228 1.259 . S
C233 O230 1.235 . S
O234 Co224 2.021 . S
O234 C231 1.238 . S
O235 Co229 2.052 . S
O235 C231 1.241 . S
O236 Co224 2.137 . S
O236 C227 1.247 . S
O237 Co224 2.244 . S
O237 C227 1.272 . S
O237 Co229 2.135 . S
Co238 O239 2.216 . S
Co238 O240 2.091 . S
Co238 O242 2.004 . S
Co238 O248 2.021 . S
Co238 O250 2.137 . S
Co238 O251 2.244 . S
O239 Co238 2.216 . S
O239 C246 1.247 . S
O240 Co238 2.091 . S
O240 C246 1.261 . S
C241 O250 1.247 . S
C241 O251 1.272 . S
O242 Co238 2.004 . S
O242 C247 1.259 . S
Co243 O244 2.061 . S
Co243 O249 2.052 . S
Co243 O251 2.135 . S
O244 Co243 2.061 . S
O244 C247 1.235 . S
C245 O248 1.238 . S
C245 O249 1.241 . S
C246 O239 1.247 . S
C246 O240 1.261 . S
C247 O242 1.259 . S
C247 O244 1.235 . S
O248 Co238 2.021 . S
O248 C245 1.238 . S
O249 Co243 2.052 . S
O249 C245 1.241 . S
O250 Co238 2.137 . S
O250 C241 1.247 . S
O251 Co238 2.244 . S
O251 C241 1.272 . S
O251 Co243 2.135 . S
Co252 O253 2.216 . S
Co252 O254 2.091 . S
Co252 O256 2.004 . S
Co252 O262 2.021 . S
Co252 O264 2.137 . S
Co252 O265 2.244 . S
O253 Co252 2.216 . S
O253 C260 1.247 . S
O254 Co252 2.091 . S
O254 C260 1.261 . S
C255 O264 1.247 . S
C255 O265 1.272 . S
O256 Co252 2.004 . S
O256 C261 1.259 . S
Co257 O258 2.061 . S
Co257 O263 2.052 . S
Co257 O265 2.135 . S
O258 Co257 2.061 . S
O258 C261 1.235 . S
C259 O262 1.238 . S
C259 O263 1.241 . S
C260 O253 1.247 . S
C260 O254 1.261 . S
C261 O256 1.259 . S
C261 O258 1.235 . S
O262 Co252 2.021 . S
O262 C259 1.238 . S
O263 Co257 2.052 . S
O263 C259 1.241 . S
O264 Co252 2.137 . S
O264 C255 1.247 . S
O265 Co252 2.244 . S
O265 C255 1.272 . S
O265 Co257 2.135 . S
Co266 O267 2.216 . S
Co266 O268 2.091 . S
Co266 O270 2.004 . S
Co266 O276 2.021 . S
Co266 O278 2.137 . S
Co266 O279 2.244 . S
O267 Co266 2.216 . S
O267 C274 1.247 . S
O268 Co266 2.091 . S
O268 C274 1.261 . S
C269 O278 1.247 . S
C269 O279 1.272 . S
O270 Co266 2.004 . S
O270 C275 1.259 . S
Co271 O272 2.061 . S
Co271 O277 2.052 . S
Co271 O279 2.135 . S
O272 Co271 2.061 . S
O272 C275 1.235 . S
C273 O276 1.238 . S
C273 O277 1.241 . S
C274 O267 1.247 . S
C274 O268 1.261 . S
C275 O270 1.259 . S
C275 O272 1.235 . S
O276 Co266 2.021 . S
O276 C273 1.238 . S
O277 Co271 2.052 . S
O277 C273 1.241 . S
O278 Co266 2.137 . S
O278 C269 1.247 . S
O279 Co266 2.244 . S
O279 C269 1.272 . S
O279 Co271 2.135 . S
Co280 O281 2.216 . S
Co280 O282 2.091 . S
Co280 O284 2.004 . S
Co280 O290 2.021 . S
Co280 O292 2.137 . S
Co280 O293 2.244 . S
O281 Co280 2.216 . S
O281 C288 1.247 . S
O282 Co280 2.091 . S
O282 C288 1.261 . S
C283 O292 1.247 . S
C283 O293 1.272 . S
O284 Co280 2.004 . S
O284 C289 1.259 . S
Co285 O286 2.061 . S
Co285 O291 2.052 . S
Co285 O293 2.135 . S
O286 Co285 2.061 . S
O286 C289 1.235 . S
C287 O290 1.238 . S
C287 O291 1.241 . S
C288 O281 1.247 . S
C288 O282 1.261 . S
C289 O284 1.259 . S
C289 O286 1.235 . S
O290 Co280 2.021 . S
O290 C287 1.238 . S
O291 Co285 2.052 . S
O291 C287 1.241 . S
O292 Co280 2.137 . S
O292 C283 1.247 . S
O293 Co280 2.244 . S
O293 C283 1.272 . S
O293 Co285 2.135 . S
Co294 O295 2.216 . S
Co294 O296 2.091 . S
Co294 O298 2.004 . S
Co294 O304 2.021 . S
Co294 O306 2.137 . S
Co294 O307 2.244 . S
O295 Co294 2.216 . S
O295 C302 1.247 . S
O296 Co294 2.091 . S
O296 C302 1.261 . S
C297 O306 1.247 . S
C297 O307 1.272 . S
O298 Co294 2.004 . S
O298 C303 1.259 . S
Co299 O300 2.061 . S
Co299 O305 2.052 . S
Co299 O307 2.135 . S
O300 Co299 2.061 . S
O300 C303 1.235 . S
C301 O304 1.238 . S
C301 O305 1.241 . S
C302 O295 1.247 . S
C302 O296 1.261 . S
C303 O298 1.259 . S
C303 O300 1.235 . S
O304 Co294 2.021 . S
O304 C301 1.238 . S
O305 Co299 2.052 . S
O305 C301 1.241 . S
O306 Co294 2.137 . S
O306 C297 1.247 . S
O307 Co294 2.244 . S
O307 C297 1.272 . S
O307 Co299 2.135 . S
Co308 O309 2.216 . S
Co308 O310 2.091 . S
Co308 O312 2.004 . S
Co308 O318 2.021 . S
Co308 O320 2.137 . S
Co308 O321 2.244 . S
O309 Co308 2.216 . S
O309 C316 1.247 . S
O310 Co308 2.091 . S
O310 C316 1.261 . S
C311 O320 1.247 . S
C311 O321 1.272 . S
O312 Co308 2.004 . S
O312 C317 1.259 . S
Co313 O314 2.061 . S
Co313 O319 2.052 . S
Co313 O321 2.135 . S
O314 Co313 2.061 . S
O314 C317 1.235 . S
C315 O318 1.238 . S
C315 O319 1.241 . S
C316 O309 1.247 . S
C316 O310 1.261 . S
C317 O312 1.259 . S
C317 O314 1.235 . S
O318 Co308 2.021 . S
O318 C315 1.238 . S
O319 Co313 2.052 . S
O319 C315 1.241 . S
O320 Co308 2.137 . S
O320 C311 1.247 . S
O321 Co308 2.244 . S
O321 C311 1.272 . S
O321 Co313 2.135 . S
Co322 O323 2.216 . S
Co322 O324 2.091 . S
Co322 O326 2.004 . S
Co322 O332 2.021 . S
Co322 O334 2.137 . S
Co322 O335 2.244 . S
O323 Co322 2.216 . S
O323 C330 1.247 . S
O324 Co322 2.091 . S
O324 C330 1.261 . S
C325 O334 1.247 . S
C325 O335 1.272 . S
O326 Co322 2.004 . S
O326 C331 1.259 . S
Co327 O328 2.061 . S
Co327 O333 2.052 . S
Co327 O335 2.135 . S
O328 Co327 2.061 . S
O328 C331 1.235 . S
C329 O332 1.238 . S
C329 O333 1.241 . S
C330 O323 1.247 . S
C330 O324 1.261 . S
C331 O326 1.259 . S
C331 O328 1.235 . S
O332 Co322 2.021 . S
O332 C329 1.238 . S
O333 Co327 2.052 . S
O333 C329 1.241 . S
O334 Co322 2.137 . S
O334 C325 1.247 . S
O335 Co322 2.244 . S
O335 C325 1.272 . S
O335 Co327 2.135 . S
Co336 O337 2.216 . S
Co336 O338 2.091 . S
Co336 O340 2.004 . S
Co336 O346 2.021 . S
Co336 O348 2.137 . S
Co336 O349 2.244 . S
O337 Co336 2.216 . S
O337 C344 1.247 . S
O338 Co336 2.091 . S
O338 C344 1.261 . S
C339 O348 1.247 . S
C339 O349 1.272 . S
O340 Co336 2.004 . S
O340 C345 1.259 . S
Co341 O342 2.061 . S
Co341 O347 2.052 . S
Co341 O349 2.135 . S
O342 Co341 2.061 . S
O342 C345 1.235 . S
C343 O346 1.238 . S
C343 O347 1.241 . S
C344 O337 1.247 . S
C344 O338 1.261 . S
C345 O340 1.259 . S
C345 O342 1.235 . S
O346 Co336 2.021 . S
O346 C343 1.238 . S
O347 Co341 2.052 . S
O347 C343 1.241 . S
O348 Co336 2.137 . S
O348 C339 1.247 . S
O349 Co336 2.244 . S
O349 C339 1.272 . S
O349 Co341 2.135 . S
Co350 O351 2.216 . S
Co350 O352 2.091 . S
Co350 O354 2.004 . S
Co350 O360 2.021 . S
Co350 O362 2.137 . S
Co350 O363 2.244 . S
O351 Co350 2.216 . S
O351 C358 1.247 . S
O352 Co350 2.091 . S
O352 C358 1.261 . S
C353 O362 1.247 . S
C353 O363 1.272 . S
O354 Co350 2.004 . S
O354 C359 1.259 . S
Co355 O356 2.061 . S
Co355 O361 2.052 . S
Co355 O363 2.135 . S
O356 Co355 2.061 . S
O356 C359 1.235 . S
C357 O360 1.238 . S
C357 O361 1.241 . S
C358 O351 1.247 . S
C358 O352 1.261 . S
C359 O354 1.259 . S
C359 O356 1.235 . S
O360 Co350 2.021 . S
O360 C357 1.238 . S
O361 Co355 2.052 . S
O361 C357 1.241 . S
O362 Co350 2.137 . S
O362 C353 1.247 . S
O363 Co350 2.244 . S
O363 C353 1.272 . S
O363 Co355 2.135 . S
Co364 O365 2.216 . S
Co364 O366 2.091 . S
Co364 O368 2.004 . S
Co364 O374 2.021 . S
Co364 O376 2.137 . S
Co364 O377 2.244 . S
O365 Co364 2.216 . S
O365 C372 1.247 . S
O366 Co364 2.091 . S
O366 C372 1.261 . S
C367 O376 1.247 . S
C367 O377 1.272 . S
O368 Co364 2.004 . S
O368 C373 1.259 . S
Co369 O370 2.061 . S
Co369 O375 2.052 . S
Co369 O377 2.135 . S
O370 Co369 2.061 . S
O370 C373 1.235 . S
C371 O374 1.238 . S
C371 O375 1.241 . S
C372 O365 1.247 . S
C372 O366 1.261 . S
C373 O368 1.259 . S
C373 O370 1.235 . S
O374 Co364 2.021 . S
O374 C371 1.238 . S
O375 Co369 2.052 . S
O375 C371 1.241 . S
O376 Co364 2.137 . S
O376 C367 1.247 . S
O377 Co364 2.244 . S
O377 C367 1.272 . S
O377 Co369 2.135 . S
Co378 O379 2.216 . S
Co378 O380 2.091 . S
Co378 O382 2.004 . S
Co378 O388 2.021 . S
Co378 O390 2.137 . S
Co378 O391 2.244 . S
O379 Co378 2.216 . S
O379 C386 1.247 . S
O380 Co378 2.091 . S
O380 C386 1.261 . S
C381 O390 1.247 . S
C381 O391 1.272 . S
O382 Co378 2.004 . S
O382 C387 1.259 . S
Co383 O384 2.061 . S
Co383 O389 2.052 . S
Co383 O391 2.135 . S
O384 Co383 2.061 . S
O384 C387 1.235 . S
C385 O388 1.238 . S
C385 O389 1.241 . S
C386 O379 1.247 . S
C386 O380 1.261 . S
C387 O382 1.259 . S
C387 O384 1.235 . S
O388 Co378 2.021 . S
O388 C385 1.238 . S
O389 Co383 2.052 . S
O389 C385 1.241 . S
O390 Co378 2.137 . S
O390 C381 1.247 . S
O391 Co378 2.244 . S
O391 C381 1.272 . S
O391 Co383 2.135 . S
Co392 O393 2.216 . S
Co392 O394 2.091 . S
Co392 O396 2.004 . S
Co392 O402 2.021 . S
Co392 O404 2.137 . S
Co392 O405 2.244 . S
O393 Co392 2.216 . S
O393 C400 1.247 . S
O394 Co392 2.091 . S
O394 C400 1.261 . S
C395 O404 1.247 . S
C395 O405 1.272 . S
O396 Co392 2.004 . S
O396 C401 1.259 . S
Co397 O398 2.061 . S
Co397 O403 2.052 . S
Co397 O405 2.135 . S
O398 Co397 2.061 . S
O398 C401 1.235 . S
C399 O402 1.238 . S
C399 O403 1.241 . S
C400 O393 1.247 . S
C400 O394 1.261 . S
C401 O396 1.259 . S
C401 O398 1.235 . S
O402 Co392 2.021 . S
O402 C399 1.238 . S
O403 Co397 2.052 . S
O403 C399 1.241 . S
O404 Co392 2.137 . S
O404 C395 1.247 . S
O405 Co392 2.244 . S
O405 C395 1.272 . S
O405 Co397 2.135 . S
Co406 O407 2.216 . S
Co406 O408 2.091 . S
Co406 O410 2.004 . S
Co406 O416 2.021 . S
Co406 O418 2.137 . S
Co406 O419 2.244 . S
O407 Co406 2.216 . S
O407 C414 1.247 . S
O408 Co406 2.091 . S
O408 C414 1.261 . S
C409 O418 1.247 . S
C409 O419 1.272 . S
O410 Co406 2.004 . S
O410 C415 1.259 . S
Co411 O412 2.061 . S
Co411 O417 2.052 . S
Co411 O419 2.135 . S
O412 Co411 2.061 . S
O412 C415 1.235 . S
C413 O416 1.238 . S
C413 O417 1.241 . S
C414 O407 1.247 . S
C414 O408 1.261 . S
C415 O410 1.259 . S
C415 O412 1.235 . S
O416 Co406 2.021 . S
O416 C413 1.238 . S
O417 Co411 2.052 . S
O417 C413 1.241 . S
O418 Co406 2.137 . S
O418 C409 1.247 . S
O419 Co406 2.244 . S
O419 C409 1.272 . S
O419 Co411 2.135 . S
Co420 O421 2.216 . S
Co420 O422 2.091 . S
Co420 O424 2.004 . S
Co420 O430 2.021 . S
Co420 O432 2.137 . S
Co420 O433 2.244 . S
O421 Co420 2.216 . S
O421 C428 1.247 . S
O422 Co420 2.091 . S
O422 C428 1.261 . S
C423 O432 1.247 . S
C423 O433 1.272 . S
O424 Co420 2.004 . S
O424 C429 1.259 . S
Co425 O426 2.061 . S
Co425 O431 2.052 . S
Co425 O433 2.135 . S
O426 Co425 2.061 . S
O426 C429 1.235 . S
C427 O430 1.238 . S
C427 O431 1.241 . S
C428 O421 1.247 . S
C428 O422 1.261 . S
C429 O424 1.259 . S
C429 O426 1.235 . S
O430 Co420 2.021 . S
O430 C427 1.238 . S
O431 Co425 2.052 . S
O431 C427 1.241 . S
O432 Co420 2.137 . S
O432 C423 1.247 . S
O433 Co420 2.244 . S
O433 C423 1.272 . S
O433 Co425 2.135 . S
Co434 O435 2.216 . S
Co434 O436 2.091 . S
Co434 O438 2.004 . S
Co434 O444 2.021 . S
Co434 O446 2.137 . S
Co434 O447 2.244 . S
O435 Co434 2.216 . S
O435 C442 1.247 . S
O436 Co434 2.091 . S
O436 C442 1.261 . S
C437 O446 1.247 . S
C437 O447 1.272 . S
O438 Co434 2.004 . S
O438 C443 1.259 . S
Co439 O440 2.061 . S
Co439 O445 2.052 . S
Co439 O447 2.135 . S
O440 Co439 2.061 . S
O440 C443 1.235 . S
C441 O444 1.238 . S
C441 O445 1.241 . S
C442 O435 1.247 . S
C442 O436 1.261 . S
C443 O438 1.259 . S
C443 O440 1.235 . S
O444 Co434 2.021 . S
O444 C441 1.238 . S
O445 Co439 2.052 . S
O445 C441 1.241 . S
O446 Co434 2.137 . S
O446 C437 1.247 . S
O447 Co434 2.244 . S
O447 C437 1.272 . S
O447 Co439 2.135 . S
Co448 O449 2.216 . S
Co448 O450 2.091 . S
Co448 O452 2.004 . S
Co448 O458 2.021 . S
Co448 O460 2.137 . S
Co448 O461 2.244 . S
O449 Co448 2.216 . S
O449 C456 1.247 . S
O450 Co448 2.091 . S
O450 C456 1.261 . S
C451 O460 1.247 . S
C451 O461 1.272 . S
O452 Co448 2.004 . S
O452 C457 1.259 . S
Co453 O454 2.061 . S
Co453 O459 2.052 . S
Co453 O461 2.135 . S
O454 Co453 2.061 . S
O454 C457 1.235 . S
C455 O458 1.238 . S
C455 O459 1.241 . S
C456 O449 1.247 . S
C456 O450 1.261 . S
C457 O452 1.259 . S
C457 O454 1.235 . S
O458 Co448 2.021 . S
O458 C455 1.238 . S
O459 Co453 2.052 . S
O459 C455 1.241 . S
O460 Co448 2.137 . S
O460 C451 1.247 . S
O461 Co448 2.244 . S
O461 C451 1.272 . S
O461 Co453 2.135 . S
Co462 O463 2.216 . S
Co462 O464 2.091 . S
Co462 O466 2.004 . S
Co462 O472 2.021 . S
Co462 O474 2.137 . S
Co462 O475 2.244 . S
O463 Co462 2.216 . S
O463 C470 1.247 . S
O464 Co462 2.091 . S
O464 C470 1.261 . S
C465 O474 1.247 . S
C465 O475 1.272 . S
O466 Co462 2.004 . S
O466 C471 1.259 . S
Co467 O468 2.061 . S
Co467 O473 2.052 . S
Co467 O475 2.135 . S
O468 Co467 2.061 . S
O468 C471 1.235 . S
C469 O472 1.238 . S
C469 O473 1.241 . S
C470 O463 1.247 . S
C470 O464 1.261 . S
C471 O466 1.259 . S
C471 O468 1.235 . S
O472 Co462 2.021 . S
O472 C469 1.238 . S
O473 Co467 2.052 . S
O473 C469 1.241 . S
O474 Co462 2.137 . S
O474 C465 1.247 . S
O475 Co462 2.244 . S
O475 C465 1.272 . S
O475 Co467 2.135 . S
Co476 O477 2.216 . S
Co476 O478 2.091 . S
Co476 O480 2.004 . S
Co476 O486 2.021 . S
Co476 O488 2.137 . S
Co476 O489 2.244 . S
O477 Co476 2.216 . S
O477 C484 1.247 . S
O478 Co476 2.091 . S
O478 C484 1.261 . S
C479 O488 1.247 . S
C479 O489 1.272 . S
O480 Co476 2.004 . S
O480 C485 1.259 . S
Co481 O482 2.061 . S
Co481 O487 2.052 . S
Co481 O489 2.135 . S
O482 Co481 2.061 . S
O482 C485 1.235 . S
C483 O486 1.238 . S
C483 O487 1.241 . S
C484 O477 1.247 . S
C484 O478 1.261 . S
C485 O480 1.259 . S
C485 O482 1.235 . S
O486 Co476 2.021 . S
O486 C483 1.238 . S
O487 Co481 2.052 . S
O487 C483 1.241 . S
O488 Co476 2.137 . S
O488 C479 1.247 . S
O489 Co476 2.244 . S
O489 C479 1.272 . S
O489 Co481 2.135 . S
Co490 O491 2.216 . S
Co490 O492 2.091 . S
Co490 O494 2.004 . S
Co490 O500 2.021 . S
Co490 O502 2.137 . S
Co490 O503 2.244 . S
O491 Co490 2.216 . S
O491 C498 1.247 . S
O492 Co490 2.091 . S
O492 C498 1.261 . S
C493 O502 1.247 . S
C493 O503 1.272 . S
O494 Co490 2.004 . S
O494 C499 1.259 . S
Co495 O496 2.061 . S
Co495 O501 2.052 . S
Co495 O503 2.135 . S
O496 Co495 2.061 . S
O496 C499 1.235 . S
C497 O500 1.238 . S
C497 O501 1.241 . S
C498 O491 1.247 . S
C498 O492 1.261 . S
C499 O494 1.259 . S
C499 O496 1.235 . S
O500 Co490 2.021 . S
O500 C497 1.238 . S
O501 Co495 2.052 . S
O501 C497 1.241 . S
O502 Co490 2.137 . S
O502 C493 1.247 . S
O503 Co490 2.244 . S
O503 C493 1.272 . S
O503 Co495 2.135 . S
Co504 O505 2.216 . S
Co504 O506 2.091 . S
Co504 O508 2.004 . S
Co504 O514 2.021 . S
Co504 O516 2.137 . S
Co504 O517 2.244 . S
O505 Co504 2.216 . S
O505 C512 1.247 . S
O506 Co504 2.091 . S
O506 C512 1.261 . S
C507 O516 1.247 . S
C507 O517 1.272 . S
O508 Co504 2.004 . S
O508 C513 1.259 . S
Co509 O510 2.061 . S
Co509 O515 2.052 . S
Co509 O517 2.135 . S
O510 Co509 2.061 . S
O510 C513 1.235 . S
C511 O514 1.238 . S
C511 O515 1.241 . S
C512 O505 1.247 . S
C512 O506 1.261 . S
C513 O508 1.259 . S
C513 O510 1.235 . S
O514 Co504 2.021 . S
O514 C511 1.238 . S
O515 Co509 2.052 . S
O515 C511 1.241 . S
O516 Co504 2.137 . S
O516 C507 1.247 . S
O517 Co504 2.244 . S
O517 C507 1.272 . S
O517 Co509 2.135 . S
Co518 O519 2.216 . S
Co518 O520 2.091 . S
Co518 O522 2.004 . S
Co518 O528 2.021 . S
Co518 O530 2.137 . S
Co518 O531 2.244 . S
O519 Co518 2.216 . S
O519 C526 1.247 . S
O520 Co518 2.091 . S
O520 C526 1.261 . S
C521 O530 1.247 . S
C521 O531 1.272 . S
O522 Co518 2.004 . S
O522 C527 1.259 . S
Co523 O524 2.061 . S
Co523 O529 2.052 . S
Co523 O531 2.135 . S
O524 Co523 2.061 . S
O524 C527 1.235 . S
C525 O528 1.238 . S
C525 O529 1.241 . S
C526 O519 1.247 . S
C526 O520 1.261 . S
C527 O522 1.259 . S
C527 O524 1.235 . S
O528 Co518 2.021 . S
O528 C525 1.238 . S
O529 Co523 2.052 . S
O529 C525 1.241 . S
O530 Co518 2.137 . S
O530 C521 1.247 . S
O531 Co518 2.244 . S
O531 C521 1.272 . S
O531 Co523 2.135 . S
Co532 O533 2.216 . S
Co532 O534 2.091 . S
Co532 O536 2.004 . S
Co532 O542 2.021 . S
Co532 O544 2.137 . S
Co532 O545 2.244 . S
O533 Co532 2.216 . S
O533 C540 1.247 . S
O534 Co532 2.091 . S
O534 C540 1.261 . S
C535 O544 1.247 . S
C535 O545 1.272 . S
O536 Co532 2.004 . S
O536 C541 1.259 . S
Co537 O538 2.061 . S
Co537 O543 2.052 . S
Co537 O545 2.135 . S
O538 Co537 2.061 . S
O538 C541 1.235 . S
C539 O542 1.238 . S
C539 O543 1.241 . S
C540 O533 1.247 . S
C540 O534 1.261 . S
C541 O536 1.259 . S
C541 O538 1.235 . S
O542 Co532 2.021 . S
O542 C539 1.238 . S
O543 Co537 2.052 . S
O543 C539 1.241 . S
O544 Co532 2.137 . S
O544 C535 1.247 . S
O545 Co532 2.244 . S
O545 C535 1.272 . S
O545 Co537 2.135 . S
Co546 O547 2.216 . S
Co546 O548 2.091 . S
Co546 O550 2.004 . S
Co546 O556 2.021 . S
Co546 O558 2.137 . S
Co546 O559 2.244 . S
O547 Co546 2.216 . S
O547 C554 1.247 . S
O548 Co546 2.091 . S
O548 C554 1.261 . S
C549 O558 1.247 . S
C549 O559 1.272 . S
O550 Co546 2.004 . S
O550 C555 1.259 . S
Co551 O552 2.061 . S
Co551 O557 2.052 . S
Co551 O559 2.135 . S
O552 Co551 2.061 . S
O552 C555 1.235 . S
C553 O556 1.238 . S
C553 O557 1.241 . S
C554 O547 1.247 . S
C554 O548 1.261 . S
C555 O550 1.259 . S
C555 O552 1.235 . S
O556 Co546 2.021 . S
O556 C553 1.238 . S
O557 Co551 2.052 . S
O557 C553 1.241 . S
O558 Co546 2.137 . S
O558 C549 1.247 . S
O559 Co546 2.244 . S
O559 C549 1.272 . S
O559 Co551 2.135 . S
Co560 O561 2.216 . S
Co560 O562 2.091 . S
Co560 O564 2.004 . S
Co560 O570 2.021 . S
Co560 O572 2.137 . S
Co560 O573 2.244 . S
O561 Co560 2.216 . S
O561 C568 1.247 . S
O562 Co560 2.091 . S
O562 C568 1.261 . S
C563 O572 1.247 . S
C563 O573 1.272 . S
O564 Co560 2.004 . S
O564 C569 1.259 . S
Co565 O566 2.061 . S
Co565 O571 2.052 . S
Co565 O573 2.135 . S
O566 Co565 2.061 . S
O566 C569 1.235 . S
C567 O570 1.238 . S
C567 O571 1.241 . S
C568 O561 1.247 . S
C568 O562 1.261 . S
C569 O564 1.259 . S
C569 O566 1.235 . S
O570 Co560 2.021 . S
O570 C567 1.238 . S
O571 Co565 2.052 . S
O571 C567 1.241 . S
O572 Co560 2.137 . S
O572 C563 1.247 . S
O573 Co560 2.244 . S
O573 C563 1.272 . S
O573 Co565 2.135 . S
Co574 O575 2.216 . S
Co574 O576 2.091 . S
Co574 O578 2.004 . S
Co574 O584 2.021 . S
Co574 O586 2.137 . S
Co574 O587 2.244 . S
O575 Co574 2.216 . S
O575 C582 1.247 . S
O576 Co574 2.091 . S
O576 C582 1.261 . S
C577 O586 1.247 . S
C577 O587 1.272 . S
O578 Co574 2.004 . S
O578 C583 1.259 . S
Co579 O580 2.061 . S
Co579 O585 2.052 . S
Co579 O587 2.135 . S
O580 Co579 2.061 . S
O580 C583 1.235 . S
C581 O584 1.238 . S
C581 O585 1.241 . S
C582 O575 1.247 . S
C582 O576 1.261 . S
C583 O578 1.259 . S
C583 O580 1.235 . S
O584 Co574 2.021 . S
O584 C581 1.238 . S
O585 Co579 2.052 . S
O585 C581 1.241 . S
O586 Co574 2.137 . S
O586 C577 1.247 . S
O587 Co574 2.244 . S
O587 C577 1.272 . S
O587 Co579 2.135 . S
Co588 O589 2.216 . S
Co588 O590 2.091 . S
Co588 O592 2.004 . S
Co588 O598 2.021 . S
Co588 O600 2.137 . S
Co588 O601 2.244 . S
O589 Co588 2.216 . S
O589 C596 1.247 . S
O590 Co588 2.091 . S
O590 C596 1.261 . S
C591 O600 1.247 . S
C591 O601 1.272 . S
O592 Co588 2.004 . S
O592 C597 1.259 . S
Co593 O594 2.061 . S
Co593 O599 2.052 . S
Co593 O601 2.135 . S
O594 Co593 2.061 . S
O594 C597 1.235 . S
C595 O598 1.238 . S
C595 O599 1.241 . S
C596 O589 1.247 . S
C596 O590 1.261 . S
C597 O592 1.259 . S
C597 O594 1.235 . S
O598 Co588 2.021 . S
O598 C595 1.238 . S
O599 Co593 2.052 . S
O599 C595 1.241 . S
O600 Co588 2.137 . S
O600 C591 1.247 . S
O601 Co588 2.244 . S
O601 C591 1.272 . S
O601 Co593 2.135 . S
Co602 O603 2.216 . S
Co602 O604 2.091 . S
Co602 O606 2.004 . S
Co602 O612 2.021 . S
Co602 O614 2.137 . S
Co602 O615 2.244 . S
O603 Co602 2.216 . S
O603 C610 1.247 . S
O604 Co602 2.091 . S
O604 C610 1.261 . S
C605 O614 1.247 . S
C605 O615 1.272 . S
O606 Co602 2.004 . S
O606 C611 1.259 . S
Co607 O608 2.061 . S
Co607 O613 2.052 . S
Co607 O615 2.135 . S
O608 Co607 2.061 . S
O608 C611 1.235 . S
C609 O612 1.238 . S
C609 O613 1.241 . S
C610 O603 1.247 . S
C610 O604 1.261 . S
C611 O606 1.259 . S
C611 O608 1.235 . S
O612 Co602 2.021 . S
O612 C609 1.238 . S
O613 Co607 2.052 . S
O613 C609 1.241 . S
O614 Co602 2.137 . S
O614 C605 1.247 . S
O615 Co602 2.244 . S
O615 C605 1.272 . S
O615 Co607 2.135 . S
Co616 O617 2.216 . S
Co616 O618 2.091 . S
Co616 O620 2.004 . S
Co616 O626 2.021 . S
Co616 O628 2.137 . S
Co616 O629 2.244 . S
O617 Co616 2.216 . S
O617 C624 1.247 . S
O618 Co616 2.091 . S
O618 C624 1.261 . S
C619 O628 1.247 . S
C619 O629 1.272 . S
O620 Co616 2.004 . S
O620 C625 1.259 . S
Co621 O622 2.061 . S
Co621 O627 2.052 . S
Co621 O629 2.135 . S
O622 Co621 2.061 . S
O622 C625 1.235 . S
C623 O626 1.238 . S
C623 O627 1.241 . S
C624 O617 1.247 . S
C624 O618 1.261 . S
C625 O620 1.259 . S
C625 O622 1.235 . S
O626 Co616 2.021 . S
O626 C623 1.238 . S
O627 Co621 2.052 . S
O627 C623 1.241 . S
O628 Co616 2.137 . S
O628 C619 1.247 . S
O629 Co616 2.244 . S
O629 C619 1.272 . S
O629 Co621 2.135 . S
Co630 O631 2.216 . S
Co630 O632 2.091 . S
Co630 O634 2.004 . S
Co630 O640 2.021 . S
Co630 O642 2.137 . S
Co630 O643 2.244 . S
O631 Co630 2.216 . S
O631 C638 1.247 . S
O632 Co630 2.091 . S
O632 C638 1.261 . S
C633 O642 1.247 . S
C633 O643 1.272 . S
O634 Co630 2.004 . S
O634 C639 1.259 . S
Co635 O636 2.061 . S
Co635 O641 2.052 . S
Co635 O643 2.135 . S
O636 Co635 2.061 . S
O636 C639 1.235 . S
C637 O640 1.238 . S
C637 O641 1.241 . S
C638 O631 1.247 . S
C638 O632 1.261 . S
C639 O634 1.259 . S
C639 O636 1.235 . S
O640 Co630 2.021 . S
O640 C637 1.238 . S
O641 Co635 2.052 . S
O641 C637 1.241 . S
O642 Co630 2.137 . S
O642 C633 1.247 . S
O643 Co630 2.244 . S
O643 C633 1.272 . S
O643 Co635 2.135 . S
Co644 O645 2.216 . S
Co644 O646 2.091 . S
Co644 O648 2.004 . S
Co644 O654 2.021 . S
Co644 O656 2.137 . S
Co644 O657 2.244 . S
O645 Co644 2.216 . S
O645 C652 1.247 . S
O646 Co644 2.091 . S
O646 C652 1.261 . S
C647 O656 1.247 . S
C647 O657 1.272 . S
O648 Co644 2.004 . S
O648 C653 1.259 . S
Co649 O650 2.061 . S
Co649 O655 2.052 . S
Co649 O657 2.135 . S
O650 Co649 2.061 . S
O650 C653 1.235 . S
C651 O654 1.238 . S
C651 O655 1.241 . S
C652 O645 1.247 . S
C652 O646 1.261 . S
C653 O648 1.259 . S
C653 O650 1.235 . S
O654 Co644 2.021 . S
O654 C651 1.238 . S
O655 Co649 2.052 . S
O655 C651 1.241 . S
O656 Co644 2.137 . S
O656 C647 1.247 . S
O657 Co644 2.244 . S
O657 C647 1.272 . S
O657 Co649 2.135 . S
Co658 O659 2.216 . S
Co658 O660 2.091 . S
Co658 O662 2.004 . S
Co658 O668 2.021 . S
Co658 O670 2.137 . S
Co658 O671 2.244 . S
O659 Co658 2.216 . S
O659 C666 1.247 . S
O660 Co658 2.091 . S
O660 C666 1.261 . S
C661 O670 1.247 . S
C661 O671 1.272 . S
O662 Co658 2.004 . S
O662 C667 1.259 . S
Co663 O664 2.061 . S
Co663 O669 2.052 . S
Co663 O671 2.135 . S
O664 Co663 2.061 . S
O664 C667 1.235 . S
C665 O668 1.238 . S
C665 O669 1.241 . S
C666 O659 1.247 . S
C666 O660 1.261 . S
C667 O662 1.259 . S
C667 O664 1.235 . S
O668 Co658 2.021 . S
O668 C665 1.238 . S
O669 Co663 2.052 . S
O669 C665 1.241 . S
O670 Co658 2.137 . S
O670 C661 1.247 . S
O671 Co658 2.244 . S
O671 C661 1.272 . S
O671 Co663 2.135 . S
H672 C680 0.950 . S
H673 C685 0.950 . S
H674 C682 0.950 . S
H675 C684 0.950 1_455 S
H676 C686 0.950 . S
H677 C688 0.950 . S
H678 C690 0.950 1_655 S
H679 C691 0.950 . S
C680 H672 0.950 . S
C680 C681 1.386 . S
C680 C682 1.391 . S
C681 C680 1.386 . S
C681 C685 1.393 . S
C682 H674 0.950 . S
C682 C680 1.391 . S
C682 C683 1.400 . S
C683 C682 1.400 . S
C683 C684 1.398 . S
C683 C689 1.491 1_655 S
C684 H675 0.950 1_655 S
C684 C683 1.398 . S
C684 C685 1.391 . S
C685 H673 0.950 . S
C685 C681 1.393 . S
C685 C684 1.391 . S
C686 H676 0.950 . S
C686 C687 1.386 . S
C686 C688 1.391 . S
C687 C686 1.386 . S
C687 C691 1.393 . S
C688 H677 0.950 . S
C688 C686 1.391 . S
C688 C689 1.400 . S
C689 C683 1.491 1_455 S
C689 C688 1.400 . S
C689 C690 1.398 . S
C690 H678 0.950 1_455 S
C690 C689 1.398 . S
C690 C691 1.391 . S
C691 H679 0.950 . S
C691 C687 1.393 . S
C691 C690 1.391 . S
H692 C700 0.950 . S
H693 C705 0.950 . S
H694 C702 0.914 1_545 S
H695 C704 0.950 . S
H696 C706 0.950 . S
H697 C708 0.914 1_565 S
H698 C710 0.950 . S
H699 C711 0.950 . S
C700 H692 0.950 . S
C700 C701 1.386 . S
C700 C702 1.391 . S
C701 C700 1.386 . S
C701 C705 1.393 . S
C702 H694 0.914 1_565 S
C702 C700 1.391 . S
C702 C703 1.400 . S
C703 C702 1.400 . S
C703 C704 1.398 . S
C703 C709 1.491 1_565 S
C704 H695 0.950 . S
C704 C703 1.398 . S
C704 C705 1.391 . S
C705 H693 0.950 . S
C705 C701 1.393 . S
C705 C704 1.391 . S
C706 H696 0.950 . S
C706 C707 1.386 . S
C706 C708 1.391 . S
C707 C706 1.386 . S
C707 C711 1.393 . S
C708 H697 0.914 1_545 S
C708 C706 1.391 . S
C708 C709 1.400 . S
C709 C703 1.491 1_545 S
C709 C708 1.400 . S
C709 C710 1.398 . S
C710 H698 0.950 . S
C710 C709 1.398 . S
C710 C711 1.391 . S
C711 H699 0.950 . S
C711 C707 1.393 . S
C711 C710 1.391 . S
H712 C720 0.950 . S
H713 C725 0.950 . S
H714 C722 0.950 . S
H715 C724 0.950 . S
H716 C726 0.950 . S
H717 C728 0.950 . S
H718 C730 0.950 . S
H719 C731 0.950 . S
C720 H712 0.950 . S
C720 C721 1.386 . S
C720 C722 1.391 . S
C721 C720 1.386 . S
C721 C725 1.393 . S
C722 H714 0.950 . S
C722 C720 1.391 . S
C722 C723 1.400 . S
C723 C722 1.400 . S
C723 C724 1.398 . S
C723 C729 1.491 1_455 S
C724 H715 0.950 . S
C724 C723 1.398 . S
C724 C725 1.391 . S
C725 H713 0.950 . S
C725 C721 1.393 . S
C725 C724 1.391 . S
C726 H716 0.950 . S
C726 C727 1.386 . S
C726 C728 1.391 . S
C727 C726 1.386 . S
C727 C731 1.393 . S
C728 H717 0.950 . S
C728 C726 1.391 . S
C728 C729 1.400 . S
C729 C723 1.491 1_655 S
C729 C728 1.400 . S
C729 C730 1.398 . S
C730 H718 0.950 . S
C730 C729 1.398 . S
C730 C731 1.391 . S
C731 H719 0.950 . S
C731 C727 1.393 . S
C731 C730 1.391 . S
H732 C740 0.950 . S
H733 C745 0.950 . S
H734 C742 0.950 1_545 S
H735 C744 0.950 . S
H736 C746 0.950 . S
H737 C748 0.950 1_565 S
H738 C750 0.950 . S
H739 C751 0.950 . S
C740 H732 0.950 . S
C740 C741 1.386 . S
C740 C742 1.391 . S
C741 C740 1.386 . S
C741 C745 1.393 . S
C742 H734 0.950 1_565 S
C742 C740 1.391 . S
C742 C743 1.400 . S
C743 C742 1.400 . S
C743 C744 1.398 . S
C743 C749 1.491 1_565 S
C744 H735 0.950 . S
C744 C743 1.398 . S
C744 C745 1.391 . S
C745 H733 0.950 . S
C745 C741 1.393 . S
C745 C744 1.391 . S
C746 H736 0.950 . S
C746 C747 1.386 . S
C746 C748 1.391 . S
C747 C746 1.386 . S
C747 C751 1.393 . S
C748 H737 0.950 1_545 S
C748 C746 1.391 . S
C748 C749 1.400 . S
C749 C743 1.491 1_545 S
C749 C748 1.400 . S
C749 C750 1.398 . S
C750 H738 0.950 . S
C750 C749 1.398 . S
C750 C751 1.391 . S
C751 H739 0.950 . S
C751 C747 1.393 . S
C751 C750 1.391 . S
H752 C760 0.950 . S
H753 C765 0.950 . S
H754 C762 0.950 1_455 S
H755 C764 0.950 . S
H756 C766 0.950 . S
H757 C768 0.950 1_655 S
H758 C770 0.950 . S
H759 C771 0.950 . S
C760 H752 0.950 . S
C760 C761 1.386 . S
C760 C762 1.391 . S
C761 C760 1.386 . S
C761 C765 1.393 . S
C762 H754 0.950 1_655 S
C762 C760 1.391 . S
C762 C763 1.400 . S
C763 C762 1.400 . S
C763 C764 1.398 . S
C763 C769 1.491 1_655 S
C764 H755 0.950 . S
C764 C763 1.398 . S
C764 C765 1.391 . S
C765 H753 0.950 . S
C765 C761 1.393 . S
C765 C764 1.391 . S
C766 H756 0.950 . S
C766 C767 1.386 . S
C766 C768 1.391 . S
C767 C766 1.386 . S
C767 C771 1.393 . S
C768 H757 0.950 1_455 S
C768 C766 1.391 . S
C768 C769 1.400 . S
C769 C763 1.491 1_455 S
C769 C768 1.400 . S
C769 C770 1.398 . S
C770 H758 0.950 . S
C770 C769 1.398 . S
C770 C771 1.391 . S
C771 H759 0.950 . S
C771 C767 1.393 . S
C771 C770 1.391 . S
H772 C780 0.950 . S
H773 C785 0.950 . S
H774 C782 0.950 1_565 S
H775 C784 0.950 . S
H776 C786 0.950 . S
H777 C788 0.950 1_545 S
H778 C790 0.950 . S
H779 C791 0.950 . S
C780 H772 0.950 . S
C780 C781 1.386 . S
C780 C782 1.391 . S
C781 C780 1.386 . S
C781 C785 1.393 . S
C782 H774 0.950 1_545 S
C782 C780 1.391 . S
C782 C783 1.400 . S
C783 C782 1.400 . S
C783 C784 1.398 . S
C783 C789 1.491 1_545 S
C784 H775 0.950 . S
C784 C783 1.398 . S
C784 C785 1.391 . S
C785 H773 0.950 . S
C785 C781 1.393 . S
C785 C784 1.391 . S
C786 H776 0.950 . S
C786 C787 1.386 . S
C786 C788 1.391 . S
C787 C786 1.386 . S
C787 C791 1.393 . S
C788 H777 0.950 1_565 S
C788 C786 1.391 . S
C788 C789 1.400 . S
C789 C783 1.491 1_565 S
C789 C788 1.400 . S
C789 C790 1.398 . S
C790 H778 0.950 . S
C790 C789 1.398 . S
C790 C791 1.391 . S
C791 H779 0.950 . S
C791 C787 1.393 . S
C791 C790 1.391 . S
H792 C800 0.950 . S
H793 C805 0.950 . S
H794 C802 0.950 1_655 S
H795 C804 0.950 . S
H796 C806 0.950 . S
H797 C808 0.950 1_455 S
H798 C810 0.950 . S
H799 C811 0.950 . S
C800 H792 0.950 . S
C800 C801 1.386 . S
C800 C802 1.391 . S
C801 C800 1.386 . S
C801 C805 1.393 . S
C802 H794 0.950 1_455 S
C802 C800 1.391 . S
C802 C803 1.400 . S
C803 C802 1.400 . S
C803 C804 1.398 . S
C803 C809 1.491 1_455 S
C804 H795 0.950 . S
C804 C803 1.398 . S
C804 C805 1.391 . S
C805 H793 0.950 . S
C805 C801 1.393 . S
C805 C804 1.391 . S
C806 H796 0.950 . S
C806 C807 1.386 . S
C806 C808 1.391 . S
C807 C806 1.386 . S
C807 C811 1.393 . S
C808 H797 0.950 1_655 S
C808 C806 1.391 . S
C808 C809 1.400 . S
C809 C803 1.491 1_655 S
C809 C808 1.400 . S
C809 C810 1.398 . S
C810 H798 0.950 . S
C810 C809 1.398 . S
C810 C811 1.391 . S
C811 H799 0.950 . S
C811 C807 1.393 . S
C811 C810 1.391 . S
H812 C820 0.950 . S
H813 C825 0.950 . S
H814 C822 0.950 1_565 S
H815 C824 0.950 . S
H816 C826 0.950 . S
H817 C828 0.950 1_545 S
H818 C830 0.950 . S
H819 C831 0.950 . S
C820 H812 0.950 . S
C820 C821 1.386 . S
C820 C822 1.391 . S
C821 C820 1.386 . S
C821 C825 1.393 . S
C822 H814 0.950 1_545 S
C822 C820 1.391 . S
C822 C823 1.400 . S
C823 C822 1.400 . S
C823 C824 1.398 . S
C823 C829 1.491 1_545 S
C824 H815 0.950 . S
C824 C823 1.398 . S
C824 C825 1.391 . S
C825 H813 0.950 . S
C825 C821 1.393 . S
C825 C824 1.391 . S
C826 H816 0.950 . S
C826 C827 1.386 . S
C826 C828 1.391 . S
C827 C826 1.386 . S
C827 C831 1.393 . S
C828 H817 0.950 1_565 S
C828 C826 1.391 . S
C828 C829 1.400 . S
C829 C823 1.491 1_565 S
C829 C828 1.400 . S
C829 C830 1.398 . S
C830 H818 0.950 . S
C830 C829 1.398 . S
C830 C831 1.391 . S
C831 H819 0.950 . S
C831 C827 1.393 . S
C831 C830 1.391 . S
H832 C840 0.950 . S
H833 C845 0.950 . S
H834 C842 0.950 1_556 S
H835 C844 0.950 . S
H836 C846 0.950 . S
H837 C848 0.950 1_554 S
H838 C850 0.950 . S
H839 C851 0.950 . S
C840 H832 0.950 . S
C840 C841 1.386 . S
C840 C842 1.391 . S
C841 C840 1.386 . S
C841 C845 1.393 . S
C842 H834 0.950 1_554 S
C842 C840 1.391 . S
C842 C843 1.400 . S
C843 C842 1.400 . S
C843 C844 1.398 . S
C843 C849 1.491 1_554 S
C844 H835 0.950 . S
C844 C843 1.398 . S
C844 C845 1.391 . S
C845 H833 0.950 . S
C845 C841 1.393 . S
C845 C844 1.391 . S
C846 H836 0.950 . S
C846 C847 1.386 . S
C846 C848 1.391 . S
C847 C846 1.386 . S
C847 C851 1.393 . S
C848 H837 0.950 1_556 S
C848 C846 1.391 . S
C848 C849 1.400 . S
C849 C843 1.491 1_556 S
C849 C848 1.400 . S
C849 C850 1.398 . S
C850 H838 0.950 . S
C850 C849 1.398 . S
C850 C851 1.391 . S
C851 H839 0.950 . S
C851 C847 1.393 . S
C851 C850 1.391 . S
H852 C860 0.950 . S
H853 C865 0.950 . S
H854 C862 0.950 1_554 S
H855 C864 0.950 . S
H856 C866 0.950 . S
H857 C868 0.950 1_556 S
H858 C870 0.950 . S
H859 C871 0.950 . S
C860 H852 0.950 . S
C860 C861 1.386 . S
C860 C862 1.391 . S
C861 C860 1.386 . S
C861 C865 1.393 . S
C862 H854 0.950 1_556 S
C862 C860 1.391 . S
C862 C863 1.400 . S
C863 C862 1.400 . S
C863 C864 1.398 . S
C863 C869 1.491 1_556 S
C864 H855 0.950 . S
C864 C863 1.398 . S
C864 C865 1.391 . S
C865 H853 0.950 . S
C865 C861 1.393 . S
C865 C864 1.391 . S
C866 H856 0.950 . S
C866 C867 1.386 . S
C866 C868 1.391 . S
C867 C866 1.386 . S
C867 C871 1.393 . S
C868 H857 0.950 1_554 S
C868 C866 1.391 . S
C868 C869 1.400 . S
C869 C863 1.491 1_554 S
C869 C868 1.400 . S
C869 C870 1.398 . S
C870 H858 0.950 . S
C870 C869 1.398 . S
C870 C871 1.391 . S
C871 H859 0.950 . S
C871 C867 1.393 . S
C871 C870 1.391 . S
H872 C880 0.950 . S
H873 C885 0.950 . S
H874 C882 0.950 . S
H875 C884 0.950 1_554 S
H876 C886 0.950 . S
H877 C888 0.950 . S
H878 C890 0.950 1_556 S
H879 C891 0.950 . S
C880 H872 0.950 . S
C880 C881 1.386 . S
C880 C882 1.391 . S
C881 C880 1.386 . S
C881 C885 1.393 . S
C882 H874 0.950 . S
C882 C880 1.391 . S
C882 C883 1.400 . S
C883 C882 1.400 . S
C883 C884 1.398 . S
C883 C889 1.491 1_556 S
C884 H875 0.950 1_556 S
C884 C883 1.398 . S
C884 C885 1.391 . S
C885 H873 0.950 . S
C885 C881 1.393 . S
C885 C884 1.391 . S
C886 H876 0.950 . S
C886 C887 1.386 . S
C886 C888 1.391 . S
C887 C886 1.386 . S
C887 C891 1.393 . S
C888 H877 0.950 . S
C888 C886 1.391 . S
C888 C889 1.400 . S
C889 C883 1.491 1_554 S
C889 C888 1.400 . S
C889 C890 1.398 . S
C890 H878 0.950 1_554 S
C890 C889 1.398 . S
C890 C891 1.391 . S
C891 H879 0.950 . S
C891 C887 1.393 . S
C891 C890 1.391 . S
H892 C900 0.950 . S
H893 C905 0.950 . S
H894 C902 0.950 1_554 S
H895 C904 0.950 . S
H896 C906 0.950 . S
H897 C908 0.950 1_556 S
H898 C910 0.950 . S
H899 C911 0.950 . S
C900 H892 0.950 . S
C900 C901 1.386 . S
C900 C902 1.391 . S
C901 C900 1.386 . S
C901 C905 1.393 . S
C902 H894 0.950 1_556 S
C902 C900 1.391 . S
C902 C903 1.400 . S
C903 C902 1.400 . S
C903 C904 1.398 . S
C903 C909 1.491 1_556 S
C904 H895 0.950 . S
C904 C903 1.398 . S
C904 C905 1.391 . S
C905 H893 0.950 . S
C905 C901 1.393 . S
C905 C904 1.391 . S
C906 H896 0.950 . S
C906 C907 1.386 . S
C906 C908 1.391 . S
C907 C906 1.386 . S
C907 C911 1.393 . S
C908 H897 0.950 1_554 S
C908 C906 1.391 . S
C908 C909 1.400 . S
C909 C903 1.491 1_554 S
C909 C908 1.400 . S
C909 C910 1.398 . S
C910 H898 0.950 . S
C910 C909 1.398 . S
C910 C911 1.391 . S
C911 H899 0.950 . S
C911 C907 1.393 . S
C911 C910 1.391 . S
H912 C920 0.950 . S
H913 C925 0.950 . S
H914 C922 0.950 . S
H915 C924 0.950 . S
H916 C926 0.950 . S
H917 C928 0.950 . S
H918 C930 0.950 . S
H919 C931 0.950 . S
C920 H912 0.950 . S
C920 C921 1.386 . S
C920 C922 1.391 . S
C921 C920 1.386 . S
C921 C925 1.393 . S
C922 H914 0.950 . S
C922 C920 1.391 . S
C922 C923 1.400 . S
C923 C922 1.400 . S
C923 C924 1.398 . S
C923 C929 1.491 . S
C924 H915 0.950 . S
C924 C923 1.398 . S
C924 C925 1.391 . S
C925 H913 0.950 . S
C925 C921 1.393 . S
C925 C924 1.391 . S
C926 H916 0.950 . S
C926 C927 1.386 . S
C926 C928 1.391 . S
C927 C926 1.386 . S
C927 C931 1.393 . S
C928 H917 0.950 . S
C928 C926 1.391 . S
C928 C929 1.400 . S
C929 C923 1.491 . S
C929 C928 1.400 . S
C929 C930 1.398 . S
C930 H918 0.950 . S
C930 C929 1.398 . S
C930 C931 1.391 . S
C931 H919 0.950 . S
C931 C927 1.393 . S
C931 C930 1.391 . S
H932 C940 0.950 . S
H933 C945 0.950 . S
H934 C942 0.950 . S
H935 C944 0.950 . S
H936 C946 0.950 . S
H937 C948 0.950 . S
H938 C950 0.950 . S
H939 C951 0.950 . S
C940 H932 0.950 . S
C940 C941 1.386 . S
C940 C942 1.391 . S
C941 C940 1.386 . S
C941 C945 1.393 . S
C942 H934 0.950 . S
C942 C940 1.391 . S
C942 C943 1.400 . S
C943 C942 1.400 . S
C943 C944 1.398 . S
C943 C949 1.491 . S
C944 H935 0.950 . S
C944 C943 1.398 . S
C944 C945 1.391 . S
C945 H933 0.950 . S
C945 C941 1.393 . S
C945 C944 1.391 . S
C946 H936 0.950 . S
C946 C947 1.386 . S
C946 C948 1.391 . S
C947 C946 1.386 . S
C947 C951 1.393 . S
C948 H937 0.950 . S
C948 C946 1.391 . S
C948 C949 1.400 . S
C949 C943 1.491 . S
C949 C948 1.400 . S
C949 C950 1.398 . S
C950 H938 0.950 . S
C950 C949 1.398 . S
C950 C951 1.391 . S
C951 H939 0.950 . S
C951 C947 1.393 . S
C951 C950 1.391 . S
H952 C960 0.950 . S
H953 C965 0.950 . S
H954 C962 0.950 . S
H955 C964 0.950 . S
H956 C966 0.950 . S
H957 C968 0.950 . S
H958 C970 0.950 . S
H959 C971 0.950 . S
C960 H952 0.950 . S
C960 C961 1.386 . S
C960 C962 1.391 . S
C961 C960 1.386 . S
C961 C965 1.393 . S
C962 H954 0.950 . S
C962 C960 1.391 . S
C962 C963 1.400 . S
C963 C962 1.400 . S
C963 C964 1.398 . S
C963 C969 1.491 . S
C964 H955 0.950 . S
C964 C963 1.398 . S
C964 C965 1.391 . S
C965 H953 0.950 . S
C965 C961 1.393 . S
C965 C964 1.391 . S
C966 H956 0.950 . S
C966 C967 1.386 . S
C966 C968 1.391 . S
C967 C966 1.386 . S
C967 C971 1.393 . S
C968 H957 0.950 . S
C968 C966 1.391 . S
C968 C969 1.400 . S
C969 C963 1.491 . S
C969 C968 1.400 . S
C969 C970 1.398 . S
C970 H958 0.950 . S
C970 C969 1.398 . S
C970 C971 1.391 . S
C971 H959 0.950 . S
C971 C967 1.393 . S
C971 C970 1.391 . S
H972 C980 0.950 . S
H973 C985 0.950 . S
H974 C982 0.950 . S
H975 C984 0.950 . S
H976 C986 0.950 . S
H977 C988 0.950 . S
H978 C990 0.950 . S
H979 C991 0.950 . S
C980 H972 0.950 . S
C980 C981 1.386 . S
C980 C982 1.391 . S
C981 C980 1.386 . S
C981 C985 1.393 . S
C982 H974 0.950 . S
C982 C980 1.391 . S
C982 C983 1.400 . S
C983 C982 1.400 . S
C983 C984 1.398 . S
C983 C989 1.491 . S
C984 H975 0.950 . S
C984 C983 1.398 . S
C984 C985 1.391 . S
C985 H973 0.950 . S
C985 C981 1.393 . S
C985 C984 1.391 . S
C986 H976 0.950 . S
C986 C987 1.386 . S
C986 C988 1.391 . S
C987 C986 1.386 . S
C987 C991 1.393 . S
C988 H977 0.950 . S
C988 C986 1.391 . S
C988 C989 1.400 . S
C989 C983 1.491 . S
C989 C988 1.400 . S
C989 C990 1.398 . S
C990 H978 0.950 . S
C990 C989 1.398 . S
C990 C991 1.391 . S
C991 H979 0.950 . S
C991 C987 1.393 . S
C991 C990 1.391 . S
H992 C1000 0.950 . S
H993 C1005 0.950 . S
H994 C1002 0.950 . S
H995 C1004 0.950 . S
H996 C1006 0.950 . S
H997 C1008 0.950 . S
H998 C1010 0.950 . S
H999 C1011 0.950 . S
C1000 H992 0.950 . S
C1000 C1001 1.386 . S
C1000 C1002 1.391 . S
C1001 C1000 1.386 . S
C1001 C1005 1.393 . S
C1002 H994 0.950 . S
C1002 C1000 1.391 . S
C1002 C1003 1.400 . S
C1003 C1002 1.400 . S
C1003 C1004 1.398 . S
C1003 C1009 1.491 . S
C1004 H995 0.950 . S
C1004 C1003 1.398 . S
C1004 C1005 1.391 . S
C1005 H993 0.950 . S
C1005 C1001 1.393 . S
C1005 C1004 1.391 . S
C1006 H996 0.950 . S
C1006 C1007 1.386 . S
C1006 C1008 1.391 . S
C1007 C1006 1.386 . S
C1007 C1011 1.393 . S
C1008 H997 0.950 . S
C1008 C1006 1.391 . S
C1008 C1009 1.400 . S
C1009 C1003 1.491 . S
C1009 C1008 1.400 . S
C1009 C1010 1.398 . S
C1010 H998 0.950 . S
C1010 C1009 1.398 . S
C1010 C1011 1.391 . S
C1011 H999 0.950 . S
C1011 C1007 1.393 . S
C1011 C1010 1.391 . S
H1012 C1020 0.950 . S
H1013 C1025 0.950 . S
H1014 C1022 0.950 . S
H1015 C1024 0.950 . S
H1016 C1026 0.950 . S
H1017 C1028 0.950 . S
H1018 C1030 0.950 . S
H1019 C1031 0.950 . S
C1020 H1012 0.950 . S
C1020 C1021 1.386 . S
C1020 C1022 1.391 . S
C1021 C1020 1.386 . S
C1021 C1025 1.393 . S
C1022 H1014 0.950 . S
C1022 C1020 1.391 . S
C1022 C1023 1.400 . S
C1023 C1022 1.400 . S
C1023 C1024 1.398 . S
C1023 C1029 1.491 . S
C1024 H1015 0.950 . S
C1024 C1023 1.398 . S
C1024 C1025 1.391 . S
C1025 H1013 0.950 . S
C1025 C1021 1.393 . S
C1025 C1024 1.391 . S
C1026 H1016 0.950 . S
C1026 C1027 1.386 . S
C1026 C1028 1.391 . S
C1027 C1026 1.386 . S
C1027 C1031 1.393 . S
C1028 H1017 0.950 . S
C1028 C1026 1.391 . S
C1028 C1029 1.400 . S
C1029 C1023 1.491 . S
C1029 C1028 1.400 . S
C1029 C1030 1.398 . S
C1030 H1018 0.950 . S
C1030 C1029 1.398 . S
C1030 C1031 1.391 . S
C1031 H1019 0.950 . S
C1031 C1027 1.393 . S
C1031 C1030 1.391 . S
H1032 C1040 0.950 . S
H1033 C1045 0.950 . S
H1034 C1042 0.950 . S
H1035 C1044 0.950 . S
H1036 C1046 0.950 . S
H1037 C1048 0.950 . S
H1038 C1050 0.950 . S
H1039 C1051 0.950 . S
C1040 H1032 0.950 . S
C1040 C1041 1.386 . S
C1040 C1042 1.391 . S
C1041 C1040 1.386 . S
C1041 C1045 1.393 . S
C1042 H1034 0.950 . S
C1042 C1040 1.391 . S
C1042 C1043 1.400 . S
C1043 C1042 1.400 . S
C1043 C1044 1.398 . S
C1043 C1049 1.491 . S
C1044 H1035 0.950 . S
C1044 C1043 1.398 . S
C1044 C1045 1.391 . S
C1045 H1033 0.950 . S
C1045 C1041 1.393 . S
C1045 C1044 1.391 . S
C1046 H1036 0.950 . S
C1046 C1047 1.386 . S
C1046 C1048 1.391 . S
C1047 C1046 1.386 . S
C1047 C1051 1.393 . S
C1048 H1037 0.950 . S
C1048 C1046 1.391 . S
C1048 C1049 1.400 . S
C1049 C1043 1.491 . S
C1049 C1048 1.400 . S
C1049 C1050 1.398 . S
C1050 H1038 0.950 . S
C1050 C1049 1.398 . S
C1050 C1051 1.391 . S
C1051 H1039 0.950 . S
C1051 C1047 1.393 . S
C1051 C1050 1.391 . S
H1052 C1060 0.950 . S
H1053 C1065 0.950 . S
H1054 C1062 0.950 . S
H1055 C1064 0.950 . S
H1056 C1066 0.950 . S
H1057 C1068 0.950 . S
H1058 C1070 0.950 . S
H1059 C1071 0.950 . S
C1060 H1052 0.950 . S
C1060 C1061 1.386 . S
C1060 C1062 1.391 . S
C1061 C1060 1.386 . S
C1061 C1065 1.393 . S
C1062 H1054 0.950 . S
C1062 C1060 1.391 . S
C1062 C1063 1.400 . S
C1063 C1062 1.400 . S
C1063 C1064 1.398 . S
C1063 C1069 1.491 . S
C1064 H1055 0.950 . S
C1064 C1063 1.398 . S
C1064 C1065 1.391 . S
C1065 H1053 0.950 . S
C1065 C1061 1.393 . S
C1065 C1064 1.391 . S
C1066 H1056 0.950 . S
C1066 C1067 1.386 . S
C1066 C1068 1.391 . S
C1067 C1066 1.386 . S
C1067 C1071 1.393 . S
C1068 H1057 0.950 . S
C1068 C1066 1.391 . S
C1068 C1069 1.400 . S
C1069 C1063 1.491 . S
C1069 C1068 1.400 . S
C1069 C1070 1.398 . S
C1070 H1058 0.950 . S
C1070 C1069 1.398 . S
C1070 C1071 1.391 . S
C1071 H1059 0.950 . S
C1071 C1067 1.393 . S
C1071 C1070 1.391 . S
H1072 C1080 0.950 . S
H1073 C1085 0.950 . S
H1074 C1082 0.950 . S
H1075 C1084 0.950 . S
H1076 C1086 0.950 . S
H1077 C1088 0.950 . S
H1078 C1090 0.950 . S
H1079 C1091 0.950 . S
C1080 H1072 0.950 . S
C1080 C1081 1.386 . S
C1080 C1082 1.391 . S
C1081 C1080 1.386 . S
C1081 C1085 1.393 . S
C1082 H1074 0.950 . S
C1082 C1080 1.391 . S
C1082 C1083 1.400 . S
C1083 C1082 1.400 . S
C1083 C1084 1.398 . S
C1083 C1089 1.491 . S
C1084 H1075 0.950 . S
C1084 C1083 1.398 . S
C1084 C1085 1.391 . S
C1085 H1073 0.950 . S
C1085 C1081 1.393 . S
C1085 C1084 1.391 . S
C1086 H1076 0.950 . S
C1086 C1087 1.386 . S
C1086 C1088 1.391 . S
C1087 C1086 1.386 . S
C1087 C1091 1.393 . S
C1088 H1077 0.950 . S
C1088 C1086 1.391 . S
C1088 C1089 1.400 . S
C1089 C1083 1.491 . S
C1089 C1088 1.400 . S
C1089 C1090 1.398 . S
C1090 H1078 0.950 . S
C1090 C1089 1.398 . S
C1090 C1091 1.391 . S
C1091 H1079 0.950 . S
C1091 C1087 1.393 . S
C1091 C1090 1.391 . S
H1092 C1100 0.950 . S
H1093 C1105 0.950 . S
H1094 C1102 0.950 . S
H1095 C1104 0.950 . S
H1096 C1106 0.950 . S
H1097 C1108 0.950 . S
H1098 C1110 0.950 . S
H1099 C1111 0.950 . S
C1100 H1092 0.950 . S
C1100 C1101 1.386 . S
C1100 C1102 1.391 . S
C1101 C1100 1.386 . S
C1101 C1105 1.393 . S
C1102 H1094 0.950 . S
C1102 C1100 1.391 . S
C1102 C1103 1.400 . S
C1103 C1102 1.400 . S
C1103 C1104 1.398 . S
C1103 C1109 1.491 . S
C1104 H1095 0.950 . S
C1104 C1103 1.398 . S
C1104 C1105 1.391 . S
C1105 H1093 0.950 . S
C1105 C1101 1.393 . S
C1105 C1104 1.391 . S
C1106 H1096 0.950 . S
C1106 C1107 1.386 . S
C1106 C1108 1.391 . S
C1107 C1106 1.386 . S
C1107 C1111 1.393 . S
C1108 H1097 0.950 . S
C1108 C1106 1.391 . S
C1108 C1109 1.400 . S
C1109 C1103 1.491 . S
C1109 C1108 1.400 . S
C1109 C1110 1.398 . S
C1110 H1098 0.950 . S
C1110 C1109 1.398 . S
C1110 C1111 1.391 . S
C1111 H1099 0.950 . S
C1111 C1107 1.393 . S
C1111 C1110 1.391 . S
H1112 C1120 0.950 . S
H1113 C1125 0.950 . S
H1114 C1122 0.950 . S
H1115 C1124 0.950 . S
H1116 C1126 0.950 . S
H1117 C1128 0.950 . S
H1118 C1130 0.950 . S
H1119 C1131 0.950 . S
C1120 H1112 0.950 . S
C1120 C1121 1.386 . S
C1120 C1122 1.391 . S
C1121 C1120 1.386 . S
C1121 C1125 1.393 . S
C1122 H1114 0.950 . S
C1122 C1120 1.391 . S
C1122 C1123 1.400 . S
C1123 C1122 1.400 . S
C1123 C1124 1.398 . S
C1123 C1129 1.491 . S
C1124 H1115 0.950 . S
C1124 C1123 1.398 . S
C1124 C1125 1.391 . S
C1125 H1113 0.950 . S
C1125 C1121 1.393 . S
C1125 C1124 1.391 . S
C1126 H1116 0.950 . S
C1126 C1127 1.386 . S
C1126 C1128 1.391 . S
C1127 C1126 1.386 . S
C1127 C1131 1.393 . S
C1128 H1117 0.950 . S
C1128 C1126 1.391 . S
C1128 C1129 1.400 . S
C1129 C1123 1.491 . S
C1129 C1128 1.400 . S
C1129 C1130 1.398 . S
C1130 H1118 0.950 . S
C1130 C1129 1.398 . S
C1130 C1131 1.391 . S
C1131 H1119 0.950 . S
C1131 C1127 1.393 . S
C1131 C1130 1.391 . S
H1132 C1140 0.950 . S
H1133 C1145 0.950 . S
H1134 C1142 0.950 . S
H1135 C1144 0.950 . S
H1136 C1146 0.950 . S
H1137 C1148 0.950 . S
H1138 C1150 0.950 . S
H1139 C1151 0.950 . S
C1140 H1132 0.950 . S
C1140 C1141 1.386 . S
C1140 C1142 1.391 . S
C1141 C1140 1.386 . S
C1141 C1145 1.393 . S
C1142 H1134 0.950 . S
C1142 C1140 1.391 . S
C1142 C1143 1.400 . S
C1143 C1142 1.400 . S
C1143 C1144 1.398 . S
C1143 C1149 1.491 . S
C1144 H1135 0.950 . S
C1144 C1143 1.398 . S
C1144 C1145 1.391 . S
C1145 H1133 0.950 . S
C1145 C1141 1.393 . S
C1145 C1144 1.391 . S
C1146 H1136 0.950 . S
C1146 C1147 1.386 . S
C1146 C1148 1.391 . S
C1147 C1146 1.386 . S
C1147 C1151 1.393 . S
C1148 H1137 0.950 . S
C1148 C1146 1.391 . S
C1148 C1149 1.400 . S
C1149 C1143 1.491 . S
C1149 C1148 1.400 . S
C1149 C1150 1.398 . S
C1150 H1138 0.950 . S
C1150 C1149 1.398 . S
C1150 C1151 1.391 . S
C1151 H1139 0.950 . S
C1151 C1147 1.393 . S
C1151 C1150 1.391 . S
H1152 C1160 0.950 . S
H1153 C1165 0.950 . S
H1154 C1162 0.950 . S
H1155 C1164 0.950 . S
H1156 C1166 0.950 . S
H1157 C1168 0.950 . S
H1158 C1170 0.950 . S
H1159 C1171 0.950 . S
C1160 H1152 0.950 . S
C1160 C1161 1.386 . S
C1160 C1162 1.391 . S
C1161 C1160 1.386 . S
C1161 C1165 1.393 . S
C1162 H1154 0.950 . S
C1162 C1160 1.391 . S
C1162 C1163 1.400 . S
C1163 C1162 1.400 . S
C1163 C1164 1.398 . S
C1163 C1169 1.491 . S
C1164 H1155 0.950 . S
C1164 C1163 1.398 . S
C1164 C1165 1.391 . S
C1165 H1153 0.950 . S
C1165 C1161 1.393 . S
C1165 C1164 1.391 . S
C1166 H1156 0.950 . S
C1166 C1167 1.386 . S
C1166 C1168 1.391 . S
C1167 C1166 1.386 . S
C1167 C1171 1.393 . S
C1168 H1157 0.950 . S
C1168 C1166 1.391 . S
C1168 C1169 1.400 . S
C1169 C1163 1.491 . S
C1169 C1168 1.400 . S
C1169 C1170 1.398 . S
C1170 H1158 0.950 . S
C1170 C1169 1.398 . S
C1170 C1171 1.391 . S
C1171 H1159 0.950 . S
C1171 C1167 1.393 . S
C1171 C1170 1.391 . S
H1172 C1180 0.950 . S
H1173 C1185 0.950 . S
H1174 C1182 0.950 . S
H1175 C1184 0.950 . S
H1176 C1186 0.950 . S
H1177 C1188 0.950 . S
H1178 C1190 0.950 . S
H1179 C1191 0.950 . S
C1180 H1172 0.950 . S
C1180 C1181 1.386 . S
C1180 C1182 1.391 . S
C1181 C1180 1.386 . S
C1181 C1185 1.393 . S
C1182 H1174 0.950 . S
C1182 C1180 1.391 . S
C1182 C1183 1.400 . S
C1183 C1182 1.400 . S
C1183 C1184 1.398 . S
C1183 C1189 1.491 . S
C1184 H1175 0.950 . S
C1184 C1183 1.398 . S
C1184 C1185 1.391 . S
C1185 H1173 0.950 . S
C1185 C1181 1.393 . S
C1185 C1184 1.391 . S
C1186 H1176 0.950 . S
C1186 C1187 1.386 . S
C1186 C1188 1.391 . S
C1187 C1186 1.386 . S
C1187 C1191 1.393 . S
C1188 H1177 0.950 . S
C1188 C1186 1.391 . S
C1188 C1189 1.400 . S
C1189 C1183 1.491 . S
C1189 C1188 1.400 . S
C1189 C1190 1.398 . S
C1190 H1178 0.950 . S
C1190 C1189 1.398 . S
C1190 C1191 1.391 . S
C1191 H1179 0.950 . S
C1191 C1187 1.393 . S
C1191 C1190 1.391 . S
H1192 C1200 0.950 . S
H1193 C1205 0.950 . S
H1194 C1202 0.950 . S
H1195 C1204 0.950 . S
H1196 C1206 0.950 . S
H1197 C1208 0.950 . S
H1198 C1210 0.950 . S
H1199 C1211 0.950 . S
C1200 H1192 0.950 . S
C1200 C1201 1.386 . S
C1200 C1202 1.391 . S
C1201 C1200 1.386 . S
C1201 C1205 1.393 . S
C1202 H1194 0.950 . S
C1202 C1200 1.391 . S
C1202 C1203 1.400 . S
C1203 C1202 1.400 . S
C1203 C1204 1.398 . S
C1203 C1209 1.491 . S
C1204 H1195 0.950 . S
C1204 C1203 1.398 . S
C1204 C1205 1.391 . S
C1205 H1193 0.950 . S
C1205 C1201 1.393 . S
C1205 C1204 1.391 . S
C1206 H1196 0.950 . S
C1206 C1207 1.386 . S
C1206 C1208 1.391 . S
C1207 C1206 1.386 . S
C1207 C1211 1.393 . S
C1208 H1197 0.950 . S
C1208 C1206 1.391 . S
C1208 C1209 1.400 . S
C1209 C1203 1.491 . S
C1209 C1208 1.400 . S
C1209 C1210 1.398 . S
C1210 H1198 0.950 . S
C1210 C1209 1.398 . S
C1210 C1211 1.391 . S
C1211 H1199 0.950 . S
C1211 C1207 1.393 . S
C1211 C1210 1.391 . S
H1212 C1220 0.950 . S
H1213 C1225 0.950 . S
H1214 C1222 0.950 . S
H1215 C1224 0.950 . S
H1216 C1226 0.950 . S
H1217 C1228 0.950 . S
H1218 C1230 0.950 . S
H1219 C1231 0.950 . S
C1220 H1212 0.950 . S
C1220 C1221 1.386 . S
C1220 C1222 1.391 . S
C1221 C1220 1.386 . S
C1221 C1225 1.393 . S
C1222 H1214 0.950 . S
C1222 C1220 1.391 . S
C1222 C1223 1.400 . S
C1223 C1222 1.400 . S
C1223 C1224 1.398 . S
C1223 C1229 1.491 . S
C1224 H1215 0.950 . S
C1224 C1223 1.398 . S
C1224 C1225 1.391 . S
C1225 H1213 0.950 . S
C1225 C1221 1.393 . S
C1225 C1224 1.391 . S
C1226 H1216 0.950 . S
C1226 C1227 1.386 . S
C1226 C1228 1.391 . S
C1227 C1226 1.386 . S
C1227 C1231 1.393 . S
C1228 H1217 0.950 . S
C1228 C1226 1.391 . S
C1228 C1229 1.400 . S
C1229 C1223 1.491 . S
C1229 C1228 1.400 . S
C1229 C1230 1.398 . S
C1230 H1218 0.950 . S
C1230 C1229 1.398 . S
C1230 C1231 1.391 . S
C1231 H1219 0.950 . S
C1231 C1227 1.393 . S
C1231 C1230 1.391 . S
H1232 C1240 0.950 . S
H1233 C1245 0.950 . S
H1234 C1242 0.950 . S
H1235 C1244 0.950 . S
H1236 C1246 0.950 . S
H1237 C1248 0.950 . S
H1238 C1250 0.950 . S
H1239 C1251 0.950 . S
C1240 H1232 0.950 . S
C1240 C1241 1.386 . S
C1240 C1242 1.391 . S
C1241 C1240 1.386 . S
C1241 C1245 1.393 . S
C1242 H1234 0.950 . S
C1242 C1240 1.391 . S
C1242 C1243 1.400 . S
C1243 C1242 1.400 . S
C1243 C1244 1.398 . S
C1243 C1249 1.491 . S
C1244 H1235 0.950 . S
C1244 C1243 1.398 . S
C1244 C1245 1.391 . S
C1245 H1233 0.950 . S
C1245 C1241 1.393 . S
C1245 C1244 1.391 . S
C1246 H1236 0.950 . S
C1246 C1247 1.386 . S
C1246 C1248 1.391 . S
C1247 C1246 1.386 . S
C1247 C1251 1.393 . S
C1248 H1237 0.950 . S
C1248 C1246 1.391 . S
C1248 C1249 1.400 . S
C1249 C1243 1.491 . S
C1249 C1248 1.400 . S
C1249 C1250 1.398 . S
C1250 H1238 0.950 . S
C1250 C1249 1.398 . S
C1250 C1251 1.391 . S
C1251 H1239 0.950 . S
C1251 C1247 1.393 . S
C1251 C1250 1.391 . S
H1252 C1260 0.950 . S
H1253 C1265 0.950 . S
H1254 C1262 0.950 . S
H1255 C1264 0.950 . S
H1256 C1266 0.950 . S
H1257 C1268 0.950 . S
H1258 C1270 0.950 . S
H1259 C1271 0.950 . S
C1260 H1252 0.950 . S
C1260 C1261 1.386 . S
C1260 C1262 1.391 . S
C1261 C1260 1.386 . S
C1261 C1265 1.393 . S
C1262 H1254 0.950 . S
C1262 C1260 1.391 . S
C1262 C1263 1.400 . S
C1263 C1262 1.400 . S
C1263 C1264 1.398 . S
C1263 C1269 1.491 . S
C1264 H1255 0.950 . S
C1264 C1263 1.398 . S
C1264 C1265 1.391 . S
C1265 H1253 0.950 . S
C1265 C1261 1.393 . S
C1265 C1264 1.391 . S
C1266 H1256 0.950 . S
C1266 C1267 1.386 . S
C1266 C1268 1.391 . S
C1267 C1266 1.386 . S
C1267 C1271 1.393 . S
C1268 H1257 0.950 . S
C1268 C1266 1.391 . S
C1268 C1269 1.400 . S
C1269 C1263 1.491 . S
C1269 C1268 1.400 . S
C1269 C1270 1.398 . S
C1270 H1258 0.950 . S
C1270 C1269 1.398 . S
C1270 C1271 1.391 . S
C1271 H1259 0.950 . S
C1271 C1267 1.393 . S
C1271 C1270 1.391 . S
H1272 C1280 0.950 . S
H1273 C1285 0.950 . S
H1274 C1282 0.950 . S
H1275 C1284 0.950 . S
H1276 C1286 0.950 . S
H1277 C1288 0.950 . S
H1278 C1290 0.950 . S
H1279 C1291 0.950 . S
C1280 H1272 0.950 . S
C1280 C1281 1.386 . S
C1280 C1282 1.391 . S
C1281 C1280 1.386 . S
C1281 C1285 1.393 . S
C1282 H1274 0.950 . S
C1282 C1280 1.391 . S
C1282 C1283 1.400 . S
C1283 C1282 1.400 . S
C1283 C1284 1.398 . S
C1283 C1289 1.491 . S
C1284 H1275 0.950 . S
C1284 C1283 1.398 . S
C1284 C1285 1.391 . S
C1285 H1273 0.950 . S
C1285 C1281 1.393 . S
C1285 C1284 1.391 . S
C1286 H1276 0.950 . S
C1286 C1287 1.386 . S
C1286 C1288 1.391 . S
C1287 C1286 1.386 . S
C1287 C1291 1.393 . S
C1288 H1277 0.950 . S
C1288 C1286 1.391 . S
C1288 C1289 1.400 . S
C1289 C1283 1.491 . S
C1289 C1288 1.400 . S
C1289 C1290 1.398 . S
C1290 H1278 0.950 . S
C1290 C1289 1.398 . S
C1290 C1291 1.391 . S
C1291 H1279 0.950 . S
C1291 C1287 1.393 . S
C1291 C1290 1.391 . S
H1292 C1300 0.950 . S
H1293 C1305 0.950 . S
H1294 C1302 0.950 . S
H1295 C1304 0.950 . S
H1296 C1306 0.950 . S
H1297 C1308 0.950 . S
H1298 C1310 0.950 . S
H1299 C1311 0.950 . S
C1300 H1292 0.950 . S
C1300 C1301 1.386 . S
C1300 C1302 1.391 . S
C1301 C1300 1.386 . S
C1301 C1305 1.393 . S
C1302 H1294 0.950 . S
C1302 C1300 1.391 . S
C1302 C1303 1.400 . S
C1303 C1302 1.400 . S
C1303 C1304 1.398 . S
C1303 C1309 1.491 . S
C1304 H1295 0.950 . S
C1304 C1303 1.398 . S
C1304 C1305 1.391 . S
C1305 H1293 0.950 . S
C1305 C1301 1.393 . S
C1305 C1304 1.391 . S
C1306 H1296 0.950 . S
C1306 C1307 1.386 . S
C1306 C1308 1.391 . S
C1307 C1306 1.386 . S
C1307 C1311 1.393 . S
C1308 H1297 0.950 . S
C1308 C1306 1.391 . S
C1308 C1309 1.400 . S
C1309 C1303 1.491 . S
C1309 C1308 1.400 . S
C1309 C1310 1.398 . S
C1310 H1298 0.950 . S
C1310 C1309 1.398 . S
C1310 C1311 1.391 . S
C1311 H1299 0.950 . S
C1311 C1307 1.393 . S
C1311 C1310 1.391 . S
H1312 C1320 0.950 . S
H1313 C1325 0.950 . S
H1314 C1322 0.950 . S
H1315 C1324 0.950 . S
H1316 C1326 0.950 . S
H1317 C1328 0.950 . S
H1318 C1330 0.950 . S
H1319 C1331 0.950 . S
C1320 H1312 0.950 . S
C1320 C1321 1.386 . S
C1320 C1322 1.391 . S
C1321 C1320 1.386 . S
C1321 C1325 1.393 . S
C1322 H1314 0.950 . S
C1322 C1320 1.391 . S
C1322 C1323 1.400 . S
C1323 C1322 1.400 . S
C1323 C1324 1.398 . S
C1323 C1329 1.491 . S
C1324 H1315 0.950 . S
C1324 C1323 1.398 . S
C1324 C1325 1.391 . S
C1325 H1313 0.950 . S
C1325 C1321 1.393 . S
C1325 C1324 1.391 . S
C1326 H1316 0.950 . S
C1326 C1327 1.386 . S
C1326 C1328 1.391 . S
C1327 C1326 1.386 . S
C1327 C1331 1.393 . S
C1328 H1317 0.950 . S
C1328 C1326 1.391 . S
C1328 C1329 1.400 . S
C1329 C1323 1.491 . S
C1329 C1328 1.400 . S
C1329 C1330 1.398 . S
C1330 H1318 0.950 . S
C1330 C1329 1.398 . S
C1330 C1331 1.391 . S
C1331 H1319 0.950 . S
C1331 C1327 1.393 . S
C1331 C1330 1.391 . S
H1332 C1340 0.950 . S
H1333 C1345 0.950 . S
H1334 C1342 0.950 . S
H1335 C1344 0.950 . S
H1336 C1346 0.950 . S
H1337 C1348 0.950 . S
H1338 C1350 0.950 . S
H1339 C1351 0.950 . S
C1340 H1332 0.950 . S
C1340 C1341 1.386 . S
C1340 C1342 1.391 . S
C1341 C1340 1.386 . S
C1341 C1345 1.393 . S
C1342 H1334 0.950 . S
C1342 C1340 1.391 . S
C1342 C1343 1.400 . S
C1343 C1342 1.400 . S
C1343 C1344 1.398 . S
C1343 C1349 1.491 . S
C1344 H1335 0.950 . S
C1344 C1343 1.398 . S
C1344 C1345 1.391 . S
C1345 H1333 0.950 . S
C1345 C1341 1.393 . S
C1345 C1344 1.391 . S
C1346 H1336 0.950 . S
C1346 C1347 1.386 . S
C1346 C1348 1.391 . S
C1347 C1346 1.386 . S
C1347 C1351 1.393 . S
C1348 H1337 0.950 . S
C1348 C1346 1.391 . S
C1348 C1349 1.400 . S
C1349 C1343 1.491 . S
C1349 C1348 1.400 . S
C1349 C1350 1.398 . S
C1350 H1338 0.950 . S
C1350 C1349 1.398 . S
C1350 C1351 1.391 . S
C1351 H1339 0.950 . S
C1351 C1347 1.393 . S
C1351 C1350 1.391 . S
H1352 C1360 0.950 . S
H1353 C1365 0.950 . S
H1354 C1362 0.950 . S
H1355 C1364 0.950 . S
H1356 C1366 0.950 . S
H1357 C1368 0.950 . S
H1358 C1370 0.950 . S
H1359 C1371 0.950 . S
C1360 H1352 0.950 . S
C1360 C1361 1.386 . S
C1360 C1362 1.391 . S
C1361 C1360 1.386 . S
C1361 C1365 1.393 . S
C1362 H1354 0.950 . S
C1362 C1360 1.391 . S
C1362 C1363 1.400 . S
C1363 C1362 1.400 . S
C1363 C1364 1.398 . S
C1363 C1369 1.491 . S
C1364 H1355 0.950 . S
C1364 C1363 1.398 . S
C1364 C1365 1.391 . S
C1365 H1353 0.950 . S
C1365 C1361 1.393 . S
C1365 C1364 1.391 . S
C1366 H1356 0.950 . S
C1366 C1367 1.386 . S
C1366 C1368 1.391 . S
C1367 C1366 1.386 . S
C1367 C1371 1.393 . S
C1368 H1357 0.950 . S
C1368 C1366 1.391 . S
C1368 C1369 1.400 . S
C1369 C1363 1.491 . S
C1369 C1368 1.400 . S
C1369 C1370 1.398 . S
C1370 H1358 0.950 . S
C1370 C1369 1.398 . S
C1370 C1371 1.391 . S
C1371 H1359 0.950 . S
C1371 C1367 1.393 . S
C1371 C1370 1.391 . S
H1372 C1380 0.950 . S
H1373 C1385 0.950 . S
H1374 C1382 0.950 . S
H1375 C1384 0.950 . S
H1376 C1386 0.950 . S
H1377 C1388 0.950 . S
H1378 C1390 0.950 . S
H1379 C1391 0.950 . S
C1380 H1372 0.950 . S
C1380 C1381 1.386 . S
C1380 C1382 1.391 . S
C1381 C1380 1.386 . S
C1381 C1385 1.393 . S
C1382 H1374 0.950 . S
C1382 C1380 1.391 . S
C1382 C1383 1.400 . S
C1383 C1382 1.400 . S
C1383 C1384 1.398 . S
C1383 C1389 1.491 . S
C1384 H1375 0.950 . S
C1384 C1383 1.398 . S
C1384 C1385 1.391 . S
C1385 H1373 0.950 . S
C1385 C1381 1.393 . S
C1385 C1384 1.391 . S
C1386 H1376 0.950 . S
C1386 C1387 1.386 . S
C1386 C1388 1.391 . S
C1387 C1386 1.386 . S
C1387 C1391 1.393 . S
C1388 H1377 0.950 . S
C1388 C1386 1.391 . S
C1388 C1389 1.400 . S
C1389 C1383 1.491 . S
C1389 C1388 1.400 . S
C1389 C1390 1.398 . S
C1390 H1378 0.950 . S
C1390 C1389 1.398 . S
C1390 C1391 1.391 . S
C1391 H1379 0.950 . S
C1391 C1387 1.393 . S
C1391 C1390 1.391 . S
H1392 C1400 0.950 . S
H1393 C1405 0.950 . S
H1394 C1402 0.950 . S
H1395 C1404 0.950 . S
H1396 C1406 0.950 . S
H1397 C1408 0.950 . S
H1398 C1410 0.950 . S
H1399 C1411 0.950 . S
C1400 H1392 0.950 . S
C1400 C1401 1.386 . S
C1400 C1402 1.391 . S
C1401 C1400 1.386 . S
C1401 C1405 1.393 . S
C1402 H1394 0.950 . S
C1402 C1400 1.391 . S
C1402 C1403 1.400 . S
C1403 C1402 1.400 . S
C1403 C1404 1.398 . S
C1403 C1409 1.491 . S
C1404 H1395 0.950 . S
C1404 C1403 1.398 . S
C1404 C1405 1.391 . S
C1405 H1393 0.950 . S
C1405 C1401 1.393 . S
C1405 C1404 1.391 . S
C1406 H1396 0.950 . S
C1406 C1407 1.386 . S
C1406 C1408 1.391 . S
C1407 C1406 1.386 . S
C1407 C1411 1.393 . S
C1408 H1397 0.950 . S
C1408 C1406 1.391 . S
C1408 C1409 1.400 . S
C1409 C1403 1.491 . S
C1409 C1408 1.400 . S
C1409 C1410 1.398 . S
C1410 H1398 0.950 . S
C1410 C1409 1.398 . S
C1410 C1411 1.391 . S
C1411 H1399 0.950 . S
C1411 C1407 1.393 . S
C1411 C1410 1.391 . S
H1412 C1420 0.950 . S
H1413 C1425 0.950 . S
H1414 C1422 0.950 . S
H1415 C1424 0.950 . S
H1416 C1426 0.950 . S
H1417 C1428 0.950 . S
H1418 C1430 0.950 . S
H1419 C1431 0.950 . S
C1420 H1412 0.950 . S
C1420 C1421 1.386 . S
C1420 C1422 1.391 . S
C1421 C1420 1.386 . S
C1421 C1425 1.393 . S
C1422 H1414 0.950 . S
C1422 C1420 1.391 . S
C1422 C1423 1.400 . S
C1423 C1422 1.400 . S
C1423 C1424 1.398 . S
C1423 C1429 1.491 . S
C1424 H1415 0.950 . S
C1424 C1423 1.398 . S
C1424 C1425 1.391 . S
C1425 H1413 0.950 . S
C1425 C1421 1.393 . S
C1425 C1424 1.391 . S
C1426 H1416 0.950 . S
C1426 C1427 1.386 . S
C1426 C1428 1.391 . S
C1427 C1426 1.386 . S
C1427 C1431 1.393 . S
C1428 H1417 0.950 . S
C1428 C1426 1.391 . S
C1428 C1429 1.400 . S
C1429 C1423 1.491 . S
C1429 C1428 1.400 . S
C1429 C1430 1.398 . S
C1430 H1418 0.950 . S
C1430 C1429 1.398 . S
C1430 C1431 1.391 . S
C1431 H1419 0.950 . S
C1431 C1427 1.393 . S
C1431 C1430 1.391 . S
H1432 C1440 0.950 . S
H1433 C1445 0.950 . S
H1434 C1442 0.950 . S
H1435 C1444 0.950 . S
H1436 C1446 0.950 . S
H1437 C1448 0.950 . S
H1438 C1450 0.950 . S
H1439 C1451 0.950 . S
C1440 H1432 0.950 . S
C1440 C1441 1.386 . S
C1440 C1442 1.391 . S
C1441 C1440 1.386 . S
C1441 C1445 1.393 . S
C1442 H1434 0.950 . S
C1442 C1440 1.391 . S
C1442 C1443 1.400 . S
C1443 C1442 1.400 . S
C1443 C1444 1.398 . S
C1443 C1449 1.491 . S
C1444 H1435 0.950 . S
C1444 C1443 1.398 . S
C1444 C1445 1.391 . S
C1445 H1433 0.950 . S
C1445 C1441 1.393 . S
C1445 C1444 1.391 . S
C1446 H1436 0.950 . S
C1446 C1447 1.386 . S
C1446 C1448 1.391 . S
C1447 C1446 1.386 . S
C1447 C1451 1.393 . S
C1448 H1437 0.950 . S
C1448 C1446 1.391 . S
C1448 C1449 1.400 . S
C1449 C1443 1.491 . S
C1449 C1448 1.400 . S
C1449 C1450 1.398 . S
C1450 H1438 0.950 . S
C1450 C1449 1.398 . S
C1450 C1451 1.391 . S
C1451 H1439 0.950 . S
C1451 C1447 1.393 . S
C1451 C1450 1.391 . S
H1452 C1460 0.950 . S
H1453 C1465 0.950 . S
H1454 C1462 0.950 . S
H1455 C1464 0.950 . S
H1456 C1466 0.950 . S
H1457 C1468 0.950 . S
H1458 C1470 0.950 . S
H1459 C1471 0.950 . S
C1460 H1452 0.950 . S
C1460 C1461 1.386 . S
C1460 C1462 1.391 . S
C1461 C1460 1.386 . S
C1461 C1465 1.393 . S
C1462 H1454 0.950 . S
C1462 C1460 1.391 . S
C1462 C1463 1.400 . S
C1463 C1462 1.400 . S
C1463 C1464 1.398 . S
C1463 C1469 1.491 . S
C1464 H1455 0.950 . S
C1464 C1463 1.398 . S
C1464 C1465 1.391 . S
C1465 H1453 0.950 . S
C1465 C1461 1.393 . S
C1465 C1464 1.391 . S
C1466 H1456 0.950 . S
C1466 C1467 1.386 . S
C1466 C1468 1.391 . S
C1467 C1466 1.386 . S
C1467 C1471 1.393 . S
C1468 H1457 0.950 . S
C1468 C1466 1.391 . S
C1468 C1469 1.400 . S
C1469 C1463 1.491 . S
C1469 C1468 1.400 . S
C1469 C1470 1.398 . S
C1470 H1458 0.950 . S
C1470 C1469 1.398 . S
C1470 C1471 1.391 . S
C1471 H1459 0.950 . S
C1471 C1467 1.393 . S
C1471 C1470 1.391 . S
H1472 C1480 0.950 . S
H1473 C1485 0.950 . S
H1474 C1482 0.950 . S
H1475 C1484 0.950 . S
H1476 C1486 0.950 . S
H1477 C1488 0.950 . S
H1478 C1490 0.950 . S
H1479 C1491 0.950 . S
C1480 H1472 0.950 . S
C1480 C1481 1.386 . S
C1480 C1482 1.391 . S
C1481 C1480 1.386 . S
C1481 C1485 1.393 . S
C1482 H1474 0.950 . S
C1482 C1480 1.391 . S
C1482 C1483 1.400 . S
C1483 C1482 1.400 . S
C1483 C1484 1.398 . S
C1483 C1489 1.491 . S
C1484 H1475 0.950 . S
C1484 C1483 1.398 . S
C1484 C1485 1.391 . S
C1485 H1473 0.950 . S
C1485 C1481 1.393 . S
C1485 C1484 1.391 . S
C1486 H1476 0.950 . S
C1486 C1487 1.386 . S
C1486 C1488 1.391 . S
C1487 C1486 1.386 . S
C1487 C1491 1.393 . S
C1488 H1477 0.950 . S
C1488 C1486 1.391 . S
C1488 C1489 1.400 . S
C1489 C1483 1.491 . S
C1489 C1488 1.400 . S
C1489 C1490 1.398 . S
C1490 H1478 0.950 . S
C1490 C1489 1.398 . S
C1490 C1491 1.391 . S
C1491 H1479 0.950 . S
C1491 C1487 1.393 . S
C1491 C1490 1.391 . S
H1492 C1500 0.950 . S
H1493 C1505 0.950 . S
H1494 C1502 0.950 . S
H1495 C1504 0.950 . S
H1496 C1506 0.950 . S
H1497 C1508 0.950 . S
H1498 C1510 0.950 . S
H1499 C1511 0.950 . S
C1500 H1492 0.950 . S
C1500 C1501 1.386 . S
C1500 C1502 1.391 . S
C1501 C1500 1.386 . S
C1501 C1505 1.393 . S
C1502 H1494 0.950 . S
C1502 C1500 1.391 . S
C1502 C1503 1.400 . S
C1503 C1502 1.400 . S
C1503 C1504 1.398 . S
C1503 C1509 1.491 . S
C1504 H1495 0.950 . S
C1504 C1503 1.398 . S
C1504 C1505 1.391 . S
C1505 H1493 0.950 . S
C1505 C1501 1.393 . S
C1505 C1504 1.391 . S
C1506 H1496 0.950 . S
C1506 C1507 1.386 . S
C1506 C1508 1.391 . S
C1507 C1506 1.386 . S
C1507 C1511 1.393 . S
C1508 H1497 0.950 . S
C1508 C1506 1.391 . S
C1508 C1509 1.400 . S
C1509 C1503 1.491 . S
C1509 C1508 1.400 . S
C1509 C1510 1.398 . S
C1510 H1498 0.950 . S
C1510 C1509 1.398 . S
C1510 C1511 1.391 . S
C1511 H1499 0.950 . S
C1511 C1507 1.393 . S
C1511 C1510 1.391 . S
H1512 C1520 0.950 . S
H1513 C1525 0.950 . S
H1514 C1522 0.950 . S
H1515 C1524 0.950 . S
H1516 C1526 0.950 . S
H1517 C1528 0.950 . S
H1518 C1530 0.950 . S
H1519 C1531 0.950 . S
C1520 H1512 0.950 . S
C1520 C1521 1.386 . S
C1520 C1522 1.391 . S
C1521 C1520 1.386 . S
C1521 C1525 1.393 . S
C1522 H1514 0.950 . S
C1522 C1520 1.391 . S
C1522 C1523 1.400 . S
C1523 C1522 1.400 . S
C1523 C1524 1.398 . S
C1523 C1529 1.491 . S
C1524 H1515 0.950 . S
C1524 C1523 1.398 . S
C1524 C1525 1.391 . S
C1525 H1513 0.950 . S
C1525 C1521 1.393 . S
C1525 C1524 1.391 . S
C1526 H1516 0.950 . S
C1526 C1527 1.386 . S
C1526 C1528 1.391 . S
C1527 C1526 1.386 . S
C1527 C1531 1.393 . S
C1528 H1517 0.950 . S
C1528 C1526 1.391 . S
C1528 C1529 1.400 . S
C1529 C1523 1.491 . S
C1529 C1528 1.400 . S
C1529 C1530 1.398 . S
C1530 H1518 0.950 . S
C1530 C1529 1.398 . S
C1530 C1531 1.391 . S
C1531 H1519 0.950 . S
C1531 C1527 1.393 . S
C1531 C1530 1.391 . S
H1532 C1540 0.950 . S
H1533 C1545 0.950 . S
H1534 C1542 0.950 . S
H1535 C1544 0.950 . S
H1536 C1546 0.950 . S
H1537 C1548 0.950 . S
H1538 C1550 0.950 . S
H1539 C1551 0.950 . S
C1540 H1532 0.950 . S
C1540 C1541 1.386 . S
C1540 C1542 1.391 . S
C1541 C1540 1.386 . S
C1541 C1545 1.393 . S
C1542 H1534 0.950 . S
C1542 C1540 1.391 . S
C1542 C1543 1.400 . S
C1543 C1542 1.400 . S
C1543 C1544 1.398 . S
C1543 C1549 1.491 . S
C1544 H1535 0.950 . S
C1544 C1543 1.398 . S
C1544 C1545 1.391 . S
C1545 H1533 0.950 . S
C1545 C1541 1.393 . S
C1545 C1544 1.391 . S
C1546 H1536 0.950 . S
C1546 C1547 1.386 . S
C1546 C1548 1.391 . S
C1547 C1546 1.386 . S
C1547 C1551 1.393 . S
C1548 H1537 0.950 . S
C1548 C1546 1.391 . S
C1548 C1549 1.400 . S
C1549 C1543 1.491 . S
C1549 C1548 1.400 . S
C1549 C1550 1.398 . S
C1550 H1538 0.950 . S
C1550 C1549 1.398 . S
C1550 C1551 1.391 . S
C1551 H1539 0.950 . S
C1551 C1547 1.393 . S
C1551 C1550 1.391 . S
H1552 C1560 0.950 . S
H1553 C1565 0.950 . S
H1554 C1562 0.950 . S
H1555 C1564 0.950 . S
H1556 C1566 0.950 . S
H1557 C1568 0.950 . S
H1558 C1570 0.950 . S
H1559 C1571 0.950 . S
C1560 H1552 0.950 . S
C1560 C1561 1.386 . S
C1560 C1562 1.391 . S
C1561 C1560 1.386 . S
C1561 C1565 1.393 . S
C1562 H1554 0.950 . S
C1562 C1560 1.391 . S
C1562 C1563 1.400 . S
C1563 C1562 1.400 . S
C1563 C1564 1.398 . S
C1563 C1569 1.491 . S
C1564 H1555 0.950 . S
C1564 C1563 1.398 . S
C1564 C1565 1.391 . S
C1565 H1553 0.950 . S
C1565 C1561 1.393 . S
C1565 C1564 1.391 . S
C1566 H1556 0.950 . S
C1566 C1567 1.386 . S
C1566 C1568 1.391 . S
C1567 C1566 1.386 . S
C1567 C1571 1.393 . S
C1568 H1557 0.950 . S
C1568 C1566 1.391 . S
C1568 C1569 1.400 . S
C1569 C1563 1.491 . S
C1569 C1568 1.400 . S
C1569 C1570 1.398 . S
C1570 H1558 0.950 . S
C1570 C1569 1.398 . S
C1570 C1571 1.391 . S
C1571 H1559 0.950 . S
C1571 C1567 1.393 . S
C1571 C1570 1.391 . S
H1572 C1580 0.950 . S
H1573 C1585 0.950 . S
H1574 C1582 0.950 . S
H1575 C1584 0.950 . S
H1576 C1586 0.950 . S
H1577 C1588 0.950 . S
H1578 C1590 0.950 . S
H1579 C1591 0.950 . S
C1580 H1572 0.950 . S
C1580 C1581 1.386 . S
C1580 C1582 1.391 . S
C1581 C1580 1.386 . S
C1581 C1585 1.393 . S
C1582 H1574 0.950 . S
C1582 C1580 1.391 . S
C1582 C1583 1.400 . S
C1583 C1582 1.400 . S
C1583 C1584 1.398 . S
C1583 C1589 1.491 . S
C1584 H1575 0.950 . S
C1584 C1583 1.398 . S
C1584 C1585 1.391 . S
C1585 H1573 0.950 . S
C1585 C1581 1.393 . S
C1585 C1584 1.391 . S
C1586 H1576 0.950 . S
C1586 C1587 1.386 . S
C1586 C1588 1.391 . S
C1587 C1586 1.386 . S
C1587 C1591 1.393 . S
C1588 H1577 0.950 . S
C1588 C1586 1.391 . S
C1588 C1589 1.400 . S
C1589 C1583 1.491 . S
C1589 C1588 1.400 . S
C1589 C1590 1.398 . S
C1590 H1578 0.950 . S
C1590 C1589 1.398 . S
C1590 C1591 1.391 . S
C1591 H1579 0.950 . S
C1591 C1587 1.393 . S
C1591 C1590 1.391 . S
H1592 C1600 0.950 . S
H1593 C1605 0.950 . S
H1594 C1602 0.950 . S
H1595 C1604 0.950 . S
H1596 C1606 0.950 . S
H1597 C1608 0.950 . S
H1598 C1610 0.950 . S
H1599 C1611 0.950 . S
C1600 H1592 0.950 . S
C1600 C1601 1.386 . S
C1600 C1602 1.391 . S
C1601 C1600 1.386 . S
C1601 C1605 1.393 . S
C1602 H1594 0.950 . S
C1602 C1600 1.391 . S
C1602 C1603 1.400 . S
C1603 C1602 1.400 . S
C1603 C1604 1.398 . S
C1603 C1609 1.491 . S
C1604 H1595 0.950 . S
C1604 C1603 1.398 . S
C1604 C1605 1.391 . S
C1605 H1593 0.950 . S
C1605 C1601 1.393 . S
C1605 C1604 1.391 . S
C1606 H1596 0.950 . S
C1606 C1607 1.386 . S
C1606 C1608 1.391 . S
C1607 C1606 1.386 . S
C1607 C1611 1.393 . S
C1608 H1597 0.950 . S
C1608 C1606 1.391 . S
C1608 C1609 1.400 . S
C1609 C1603 1.491 . S
C1609 C1608 1.400 . S
C1609 C1610 1.398 . S
C1610 H1598 0.950 . S
C1610 C1609 1.398 . S
C1610 C1611 1.391 . S
C1611 H1599 0.950 . S
C1611 C1607 1.393 . S
C1611 C1610 1.391 . S
H1612 C1620 0.950 . S
H1613 C1625 0.950 . S
H1614 C1622 0.950 . S
H1615 C1624 0.950 . S
H1616 C1626 0.950 . S
H1617 C1628 0.950 . S
H1618 C1630 0.950 . S
H1619 C1631 0.950 . S
C1620 H1612 0.950 . S
C1620 C1621 1.386 . S
C1620 C1622 1.391 . S
C1621 C1620 1.386 . S
C1621 C1625 1.393 . S
C1622 H1614 0.950 . S
C1622 C1620 1.391 . S
C1622 C1623 1.400 . S
C1623 C1622 1.400 . S
C1623 C1624 1.398 . S
C1623 C1629 1.491 . S
C1624 H1615 0.950 . S
C1624 C1623 1.398 . S
C1624 C1625 1.391 . S
C1625 H1613 0.950 . S
C1625 C1621 1.393 . S
C1625 C1624 1.391 . S
C1626 H1616 0.950 . S
C1626 C1627 1.386 . S
C1626 C1628 1.391 . S
C1627 C1626 1.386 . S
C1627 C1631 1.393 . S
C1628 H1617 0.950 . S
C1628 C1626 1.391 . S
C1628 C1629 1.400 . S
C1629 C1623 1.491 . S
C1629 C1628 1.400 . S
C1629 C1630 1.398 . S
C1630 H1618 0.950 . S
C1630 C1629 1.398 . S
C1630 C1631 1.391 . S
C1631 H1619 0.950 . S
C1631 C1627 1.393 . S
C1631 C1630 1.391 . S
H1632 C1640 0.950 . S
H1633 C1645 0.950 . S
H1634 C1642 0.950 . S
H1635 C1644 0.950 . S
H1636 C1646 0.950 . S
H1637 C1648 0.950 . S
H1638 C1650 0.950 . S
H1639 C1651 0.950 . S
C1640 H1632 0.950 . S
C1640 C1641 1.386 . S
C1640 C1642 1.391 . S
C1641 C1640 1.386 . S
C1641 C1645 1.393 . S
C1642 H1634 0.950 . S
C1642 C1640 1.391 . S
C1642 C1643 1.400 . S
C1643 C1642 1.400 . S
C1643 C1644 1.398 . S
C1643 C1649 1.491 . S
C1644 H1635 0.950 . S
C1644 C1643 1.398 . S
C1644 C1645 1.391 . S
C1645 H1633 0.950 . S
C1645 C1641 1.393 . S
C1645 C1644 1.391 . S
C1646 H1636 0.950 . S
C1646 C1647 1.386 . S
C1646 C1648 1.391 . S
C1647 C1646 1.386 . S
C1647 C1651 1.393 . S
C1648 H1637 0.950 . S
C1648 C1646 1.391 . S
C1648 C1649 1.400 . S
C1649 C1643 1.491 . S
C1649 C1648 1.400 . S
C1649 C1650 1.398 . S
C1650 H1638 0.950 . S
C1650 C1649 1.398 . S
C1650 C1651 1.391 . S
C1651 H1639 0.950 . S
C1651 C1647 1.393 . S
C1651 C1650 1.391 . S
H1652 C1660 0.950 . S
H1653 C1665 0.950 . S
H1654 C1662 0.950 . S
H1655 C1664 0.950 . S
H1656 C1666 0.950 . S
H1657 C1668 0.950 . S
H1658 C1670 0.950 . S
H1659 C1671 0.950 . S
C1660 H1652 0.950 . S
C1660 C1661 1.386 . S
C1660 C1662 1.391 . S
C1661 C1660 1.386 . S
C1661 C1665 1.393 . S
C1662 H1654 0.950 . S
C1662 C1660 1.391 . S
C1662 C1663 1.400 . S
C1663 C1662 1.400 . S
C1663 C1664 1.398 . S
C1663 C1669 1.491 . S
C1664 H1655 0.950 . S
C1664 C1663 1.398 . S
C1664 C1665 1.391 . S
C1665 H1653 0.950 . S
C1665 C1661 1.393 . S
C1665 C1664 1.391 . S
C1666 H1656 0.950 . S
C1666 C1667 1.386 . S
C1666 C1668 1.391 . S
C1667 C1666 1.386 . S
C1667 C1671 1.393 . S
C1668 H1657 0.950 . S
C1668 C1666 1.391 . S
C1668 C1669 1.400 . S
C1669 C1663 1.491 . S
C1669 C1668 1.400 . S
C1669 C1670 1.398 . S
C1670 H1658 0.950 . S
C1670 C1669 1.398 . S
C1670 C1671 1.391 . S
C1671 H1659 0.950 . S
C1671 C1667 1.393 . S
C1671 C1670 1.391 . S
H1672 C1680 0.950 . S
H1673 C1685 0.950 . S
H1674 C1682 0.950 . S
H1675 C1684 0.950 . S
H1676 C1686 0.950 . S
H1677 C1688 0.950 . S
H1678 C1690 0.950 . S
H1679 C1691 0.950 . S
C1680 H1672 0.950 . S
C1680 C1681 1.386 . S
C1680 C1682 1.391 . S
C1681 C1680 1.386 . S
C1681 C1685 1.393 . S
C1682 H1674 0.950 . S
C1682 C1680 1.391 . S
C1682 C1683 1.400 . S
C1683 C1682 1.400 . S
C1683 C1684 1.398 . S
C1683 C1689 1.491 . S
C1684 H1675 0.950 . S
C1684 C1683 1.398 . S
C1684 C1685 1.391 . S
C1685 H1673 0.950 . S
C1685 C1681 1.393 . S
C1685 C1684 1.391 . S
C1686 H1676 0.950 . S
C1686 C1687 1.386 . S
C1686 C1688 1.391 . S
C1687 C1686 1.386 . S
C1687 C1691 1.393 . S
C1688 H1677 0.950 . S
C1688 C1686 1.391 . S
C1688 C1689 1.400 . S
C1689 C1683 1.491 . S
C1689 C1688 1.400 . S
C1689 C1690 1.398 . S
C1690 H1678 0.950 . S
C1690 C1689 1.398 . S
C1690 C1691 1.391 . S
C1691 H1679 0.950 . S
C1691 C1687 1.393 . S
C1691 C1690 1.391 . S
H1692 C1700 0.950 . S
H1693 C1705 0.950 . S
H1694 C1702 0.950 . S
H1695 C1704 0.950 . S
H1696 C1706 0.950 . S
H1697 C1708 0.950 . S
H1698 C1710 0.950 . S
H1699 C1711 0.950 . S
C1700 H1692 0.950 . S
C1700 C1701 1.386 . S
C1700 C1702 1.391 . S
C1701 C1700 1.386 . S
C1701 C1705 1.393 . S
C1702 H1694 0.950 . S
C1702 C1700 1.391 . S
C1702 C1703 1.400 . S
C1703 C1702 1.400 . S
C1703 C1704 1.398 . S
C1703 C1709 1.491 . S
C1704 H1695 0.950 . S
C1704 C1703 1.398 . S
C1704 C1705 1.391 . S
C1705 H1693 0.950 . S
C1705 C1701 1.393 . S
C1705 C1704 1.391 . S
C1706 H1696 0.950 . S
C1706 C1707 1.386 . S
C1706 C1708 1.391 . S
C1707 C1706 1.386 . S
C1707 C1711 1.393 . S
C1708 H1697 0.950 . S
C1708 C1706 1.391 . S
C1708 C1709 1.400 . S
C1709 C1703 1.491 . S
C1709 C1708 1.400 . S
C1709 C1710 1.398 . S
C1710 H1698 0.950 . S
C1710 C1709 1.398 . S
C1710 C1711 1.391 . S
C1711 H1699 0.950 . S
C1711 C1707 1.393 . S
C1711 C1710 1.391 . S
H1712 C1720 0.950 . S
H1713 C1725 0.950 . S
H1714 C1722 0.950 . S
H1715 C1724 0.950 . S
H1716 C1726 0.950 . S
H1717 C1728 0.950 . S
H1718 C1730 0.950 . S
H1719 C1731 0.950 . S
C1720 H1712 0.950 . S
C1720 C1721 1.386 . S
C1720 C1722 1.391 . S
C1721 C1720 1.386 . S
C1721 C1725 1.393 . S
C1722 H1714 0.950 . S
C1722 C1720 1.391 . S
C1722 C1723 1.400 . S
C1723 C1722 1.400 . S
C1723 C1724 1.398 . S
C1723 C1729 1.491 . S
C1724 H1715 0.950 . S
C1724 C1723 1.398 . S
C1724 C1725 1.391 . S
C1725 H1713 0.950 . S
C1725 C1721 1.393 . S
C1725 C1724 1.391 . S
C1726 H1716 0.950 . S
C1726 C1727 1.386 . S
C1726 C1728 1.391 . S
C1727 C1726 1.386 . S
C1727 C1731 1.393 . S
C1728 H1717 0.950 . S
C1728 C1726 1.391 . S
C1728 C1729 1.400 . S
C1729 C1723 1.491 . S
C1729 C1728 1.400 . S
C1729 C1730 1.398 . S
C1730 H1718 0.950 . S
C1730 C1729 1.398 . S
C1730 C1731 1.391 . S
C1731 H1719 0.950 . S
C1731 C1727 1.393 . S
C1731 C1730 1.391 . S
H1732 C1740 0.950 . S
H1733 C1745 0.950 . S
H1734 C1742 0.950 . S
H1735 C1744 0.950 . S
H1736 C1746 0.950 . S
H1737 C1748 0.950 . S
H1738 C1750 0.950 . S
H1739 C1751 0.950 . S
C1740 H1732 0.950 . S
C1740 C1741 1.386 . S
C1740 C1742 1.391 . S
C1741 C1740 1.386 . S
C1741 C1745 1.393 . S
C1742 H1734 0.950 . S
C1742 C1740 1.391 . S
C1742 C1743 1.400 . S
C1743 C1742 1.400 . S
C1743 C1744 1.398 . S
C1743 C1749 1.491 . S
C1744 H1735 0.950 . S
C1744 C1743 1.398 . S
C1744 C1745 1.391 . S
C1745 H1733 0.950 . S
C1745 C1741 1.393 . S
C1745 C1744 1.391 . S
C1746 H1736 0.950 . S
C1746 C1747 1.386 . S
C1746 C1748 1.391 . S
C1747 C1746 1.386 . S
C1747 C1751 1.393 . S
C1748 H1737 0.950 . S
C1748 C1746 1.391 . S
C1748 C1749 1.400 . S
C1749 C1743 1.491 . S
C1749 C1748 1.400 . S
C1749 C1750 1.398 . S
C1750 H1738 0.950 . S
C1750 C1749 1.398 . S
C1750 C1751 1.391 . S
C1751 H1739 0.950 . S
C1751 C1747 1.393 . S
C1751 C1750 1.391 . S
H1752 C1760 0.950 . S
H1753 C1765 0.950 . S
H1754 C1762 0.950 . S
H1755 C1764 0.950 . S
H1756 C1766 0.950 . S
H1757 C1768 0.950 . S
H1758 C1770 0.950 . S
H1759 C1771 0.950 . S
C1760 H1752 0.950 . S
C1760 C1761 1.386 . S
C1760 C1762 1.391 . S
C1761 C1760 1.386 . S
C1761 C1765 1.393 . S
C1762 H1754 0.950 . S
C1762 C1760 1.391 . S
C1762 C1763 1.400 . S
C1763 C1762 1.400 . S
C1763 C1764 1.398 . S
C1763 C1769 1.491 . S
C1764 H1755 0.950 . S
C1764 C1763 1.398 . S
C1764 C1765 1.391 . S
C1765 H1753 0.950 . S
C1765 C1761 1.393 . S
C1765 C1764 1.391 . S
C1766 H1756 0.950 . S
C1766 C1767 1.386 . S
C1766 C1768 1.391 . S
C1767 C1766 1.386 . S
C1767 C1771 1.393 . S
C1768 H1757 0.950 . S
C1768 C1766 1.391 . S
C1768 C1769 1.400 . S
C1769 C1763 1.491 . S
C1769 C1768 1.400 . S
C1769 C1770 1.398 . S
C1770 H1758 0.950 . S
C1770 C1769 1.398 . S
C1770 C1771 1.391 . S
C1771 H1759 0.950 . S
C1771 C1767 1.393 . S
C1771 C1770 1.391 . S
H1772 C1780 0.950 . S
H1773 C1785 0.950 . S
H1774 C1782 0.950 . S
H1775 C1784 0.950 . S
H1776 C1786 0.950 . S
H1777 C1788 0.950 . S
H1778 C1790 0.950 . S
H1779 C1791 0.950 . S
C1780 H1772 0.950 . S
C1780 C1781 1.386 . S
C1780 C1782 1.391 . S
C1781 C1780 1.386 . S
C1781 C1785 1.393 . S
C1782 H1774 0.950 . S
C1782 C1780 1.391 . S
C1782 C1783 1.400 . S
C1783 C1782 1.400 . S
C1783 C1784 1.398 . S
C1783 C1789 1.491 . S
C1784 H1775 0.950 . S
C1784 C1783 1.398 . S
C1784 C1785 1.391 . S
C1785 H1773 0.950 . S
C1785 C1781 1.393 . S
C1785 C1784 1.391 . S
C1786 H1776 0.950 . S
C1786 C1787 1.386 . S
C1786 C1788 1.391 . S
C1787 C1786 1.386 . S
C1787 C1791 1.393 . S
C1788 H1777 0.950 . S
C1788 C1786 1.391 . S
C1788 C1789 1.400 . S
C1789 C1783 1.491 . S
C1789 C1788 1.400 . S
C1789 C1790 1.398 . S
C1790 H1778 0.950 . S
C1790 C1789 1.398 . S
C1790 C1791 1.391 . S
C1791 H1779 0.950 . S
C1791 C1787 1.393 . S
C1791 C1790 1.391 . S
H1792 C1800 0.950 . S
H1793 C1805 0.950 . S
H1794 C1802 0.950 . S
H1795 C1804 0.950 . S
H1796 C1806 0.950 . S
H1797 C1808 0.950 . S
H1798 C1810 0.950 . S
H1799 C1811 0.950 . S
C1800 H1792 0.950 . S
C1800 C1801 1.386 . S
C1800 C1802 1.391 . S
C1801 C1800 1.386 . S
C1801 C1805 1.393 . S
C1802 H1794 0.950 . S
C1802 C1800 1.391 . S
C1802 C1803 1.400 . S
C1803 C1802 1.400 . S
C1803 C1804 1.398 . S
C1803 C1809 1.491 . S
C1804 H1795 0.950 . S
C1804 C1803 1.398 . S
C1804 C1805 1.391 . S
C1805 H1793 0.950 . S
C1805 C1801 1.393 . S
C1805 C1804 1.391 . S
C1806 H1796 0.950 . S
C1806 C1807 1.386 . S
C1806 C1808 1.391 . S
C1807 C1806 1.386 . S
C1807 C1811 1.393 . S
C1808 H1797 0.950 . S
C1808 C1806 1.391 . S
C1808 C1809 1.400 . S
C1809 C1803 1.491 . S
C1809 C1808 1.400 . S
C1809 C1810 1.398 . S
C1810 H1798 0.950 . S
C1810 C1809 1.398 . S
C1810 C1811 1.391 . S
C1811 H1799 0.950 . S
C1811 C1807 1.393 . S
C1811 C1810 1.391 . S
H1812 C1820 0.950 . S
H1813 C1825 0.950 . S
H1814 C1822 0.950 . S
H1815 C1824 0.950 . S
H1816 C1826 0.950 . S
H1817 C1828 0.950 . S
H1818 C1830 0.950 . S
H1819 C1831 0.950 . S
C1820 H1812 0.950 . S
C1820 C1821 1.386 . S
C1820 C1822 1.391 . S
C1821 C1820 1.386 . S
C1821 C1825 1.393 . S
C1822 H1814 0.950 . S
C1822 C1820 1.391 . S
C1822 C1823 1.400 . S
C1823 C1822 1.400 . S
C1823 C1824 1.398 . S
C1823 C1829 1.491 . S
C1824 H1815 0.950 . S
C1824 C1823 1.398 . S
C1824 C1825 1.391 . S
C1825 H1813 0.950 . S
C1825 C1821 1.393 . S
C1825 C1824 1.391 . S
C1826 H1816 0.950 . S
C1826 C1827 1.386 . S
C1826 C1828 1.391 . S
C1827 C1826 1.386 . S
C1827 C1831 1.393 . S
C1828 H1817 0.950 . S
C1828 C1826 1.391 . S
C1828 C1829 1.400 . S
C1829 C1823 1.491 . S
C1829 C1828 1.400 . S
C1829 C1830 1.398 . S
C1830 H1818 0.950 . S
C1830 C1829 1.398 . S
C1830 C1831 1.391 . S
C1831 H1819 0.950 . S
C1831 C1827 1.393 . S
C1831 C1830 1.391 . S
H1832 C1840 0.950 . S
H1833 C1845 0.950 . S
H1834 C1842 0.950 . S
H1835 C1844 0.950 . S
H1836 C1846 0.950 . S
H1837 C1848 0.950 . S
H1838 C1850 0.950 . S
H1839 C1851 0.950 . S
C1840 H1832 0.950 . S
C1840 C1841 1.386 . S
C1840 C1842 1.391 . S
C1841 C1840 1.386 . S
C1841 C1845 1.393 . S
C1842 H1834 0.950 . S
C1842 C1840 1.391 . S
C1842 C1843 1.400 . S
C1843 C1842 1.400 . S
C1843 C1844 1.398 . S
C1843 C1849 1.491 . S
C1844 H1835 0.950 . S
C1844 C1843 1.398 . S
C1844 C1845 1.391 . S
C1845 H1833 0.950 . S
C1845 C1841 1.393 . S
C1845 C1844 1.391 . S
C1846 H1836 0.950 . S
C1846 C1847 1.386 . S
C1846 C1848 1.391 . S
C1847 C1846 1.386 . S
C1847 C1851 1.393 . S
C1848 H1837 0.950 . S
C1848 C1846 1.391 . S
C1848 C1849 1.400 . S
C1849 C1843 1.491 . S
C1849 C1848 1.400 . S
C1849 C1850 1.398 . S
C1850 H1838 0.950 . S
C1850 C1849 1.398 . S
C1850 C1851 1.391 . S
C1851 H1839 0.950 . S
C1851 C1847 1.393 . S
C1851 C1850 1.391 . S
H1852 C1860 0.950 . S
H1853 C1865 0.950 . S
H1854 C1862 0.950 . S
H1855 C1864 0.950 . S
H1856 C1866 0.950 . S
H1857 C1868 0.950 . S
H1858 C1870 0.950 . S
H1859 C1871 0.950 . S
C1860 H1852 0.950 . S
C1860 C1861 1.386 . S
C1860 C1862 1.391 . S
C1861 C1860 1.386 . S
C1861 C1865 1.393 . S
C1862 H1854 0.950 . S
C1862 C1860 1.391 . S
C1862 C1863 1.400 . S
C1863 C1862 1.400 . S
C1863 C1864 1.398 . S
C1863 C1869 1.491 . S
C1864 H1855 0.950 . S
C1864 C1863 1.398 . S
C1864 C1865 1.391 . S
C1865 H1853 0.950 . S
C1865 C1861 1.393 . S
C1865 C1864 1.391 . S
C1866 H1856 0.950 . S
C1866 C1867 1.386 . S
C1866 C1868 1.391 . S
C1867 C1866 1.386 . S
C1867 C1871 1.393 . S
C1868 H1857 0.950 . S
C1868 C1866 1.391 . S
C1868 C1869 1.400 . S
C1869 C1863 1.491 . S
C1869 C1868 1.400 . S
C1869 C1870 1.398 . S
C1870 H1858 0.950 . S
C1870 C1869 1.398 . S
C1870 C1871 1.391 . S
C1871 H1859 0.950 . S
C1871 C1867 1.393 . S
C1871 C1870 1.391 . S
H1872 C1880 0.950 . S
H1873 C1885 0.950 . S
H1874 C1882 0.950 . S
H1875 C1884 0.950 . S
H1876 C1886 0.950 . S
H1877 C1888 0.950 . S
H1878 C1890 0.950 . S
H1879 C1891 0.950 . S
C1880 H1872 0.950 . S
C1880 C1881 1.386 . S
C1880 C1882 1.391 . S
C1881 C1880 1.386 . S
C1881 C1885 1.393 . S
C1882 H1874 0.950 . S
C1882 C1880 1.391 . S
C1882 C1883 1.400 . S
C1883 C1882 1.400 . S
C1883 C1884 1.398 . S
C1883 C1889 1.491 . S
C1884 H1875 0.950 . S
C1884 C1883 1.398 . S
C1884 C1885 1.391 . S
C1885 H1873 0.950 . S
C1885 C1881 1.393 . S
C1885 C1884 1.391 . S
C1886 H1876 0.950 . S
C1886 C1887 1.386 . S
C1886 C1888 1.391 . S
C1887 C1886 1.386 . S
C1887 C1891 1.393 . S
C1888 H1877 0.950 . S
C1888 C1886 1.391 . S
C1888 C1889 1.400 . S
C1889 C1883 1.491 . S
C1889 C1888 1.400 . S
C1889 C1890 1.398 . S
C1890 H1878 0.950 . S
C1890 C1889 1.398 . S
C1890 C1891 1.391 . S
C1891 H1879 0.950 . S
C1891 C1887 1.393 . S
C1891 C1890 1.391 . S
H1892 C1900 0.950 . S
H1893 C1905 0.950 . S
H1894 C1902 0.950 . S
H1895 C1904 0.950 . S
H1896 C1906 0.950 . S
H1897 C1908 0.950 . S
H1898 C1910 0.950 . S
H1899 C1911 0.950 . S
C1900 H1892 0.950 . S
C1900 C1901 1.386 . S
C1900 C1902 1.391 . S
C1901 C1900 1.386 . S
C1901 C1905 1.393 . S
C1902 H1894 0.950 . S
C1902 C1900 1.391 . S
C1902 C1903 1.400 . S
C1903 C1902 1.400 . S
C1903 C1904 1.398 . S
C1903 C1909 1.491 . S
C1904 H1895 0.950 . S
C1904 C1903 1.398 . S
C1904 C1905 1.391 . S
C1905 H1893 0.950 . S
C1905 C1901 1.393 . S
C1905 C1904 1.391 . S
C1906 H1896 0.950 . S
C1906 C1907 1.386 . S
C1906 C1908 1.391 . S
C1907 C1906 1.386 . S
C1907 C1911 1.393 . S
C1908 H1897 0.950 . S
C1908 C1906 1.391 . S
C1908 C1909 1.400 . S
C1909 C1903 1.491 . S
C1909 C1908 1.400 . S
C1909 C1910 1.398 . S
C1910 H1898 0.950 . S
C1910 C1909 1.398 . S
C1910 C1911 1.391 . S
C1911 H1899 0.950 . S
C1911 C1907 1.393 . S
C1911 C1910 1.391 . S
H1912 C1920 0.950 . S
H1913 C1925 0.950 . S
H1914 C1922 0.950 . S
H1915 C1924 0.950 . S
H1916 C1926 0.950 . S
H1917 C1928 0.950 . S
H1918 C1930 0.950 . S
H1919 C1931 0.950 . S
C1920 H1912 0.950 . S
C1920 C1921 1.386 . S
C1920 C1922 1.391 . S
C1921 C1920 1.386 . S
C1921 C1925 1.393 . S
C1922 H1914 0.950 . S
C1922 C1920 1.391 . S
C1922 C1923 1.400 . S
C1923 C1922 1.400 . S
C1923 C1924 1.398 . S
C1923 C1929 1.491 . S
C1924 H1915 0.950 . S
C1924 C1923 1.398 . S
C1924 C1925 1.391 . S
C1925 H1913 0.950 . S
C1925 C1921 1.393 . S
C1925 C1924 1.391 . S
C1926 H1916 0.950 . S
C1926 C1927 1.386 . S
C1926 C1928 1.391 . S
C1927 C1926 1.386 . S
C1927 C1931 1.393 . S
C1928 H1917 0.950 . S
C1928 C1926 1.391 . S
C1928 C1929 1.400 . S
C1929 C1923 1.491 . S
C1929 C1928 1.400 . S
C1929 C1930 1.398 . S
C1930 H1918 0.950 . S
C1930 C1929 1.398 . S
C1930 C1931 1.391 . S
C1931 H1919 0.950 . S
C1931 C1927 1.393 . S
C1931 C1930 1.391 . S
H1932 C1940 0.950 . S
H1933 C1945 0.950 . S
H1934 C1942 0.950 . S
H1935 C1944 0.950 . S
H1936 C1946 0.950 . S
H1937 C1948 0.950 . S
H1938 C1950 0.950 . S
H1939 C1951 0.950 . S
C1940 H1932 0.950 . S
C1940 C1941 1.386 . S
C1940 C1942 1.391 . S
C1941 C1940 1.386 . S
C1941 C1945 1.393 . S
C1942 H1934 0.950 . S
C1942 C1940 1.391 . S
C1942 C1943 1.400 . S
C1943 C1942 1.400 . S
C1943 C1944 1.398 . S
C1943 C1949 1.491 . S
C1944 H1935 0.950 . S
C1944 C1943 1.398 . S
C1944 C1945 1.391 . S
C1945 H1933 0.950 . S
C1945 C1941 1.393 . S
C1945 C1944 1.391 . S
C1946 H1936 0.950 . S
C1946 C1947 1.386 . S
C1946 C1948 1.391 . S
C1947 C1946 1.386 . S
C1947 C1951 1.393 . S
C1948 H1937 0.950 . S
C1948 C1946 1.391 . S
C1948 C1949 1.400 . S
C1949 C1943 1.491 . S
C1949 C1948 1.400 . S
C1949 C1950 1.398 . S
C1950 H1938 0.950 . S
C1950 C1949 1.398 . S
C1950 C1951 1.391 . S
C1951 H1939 0.950 . S
C1951 C1947 1.393 . S
C1951 C1950 1.391 . S
H1952 C1960 0.950 . S
H1953 C1965 0.950 . S
H1954 C1962 0.950 . S
H1955 C1964 0.950 . S
H1956 C1966 0.950 . S
H1957 C1968 0.950 . S
H1958 C1970 0.950 . S
H1959 C1971 0.950 . S
C1960 H1952 0.950 . S
C1960 C1961 1.386 . S
C1960 C1962 1.391 . S
C1961 C1960 1.386 . S
C1961 C1965 1.393 . S
C1962 H1954 0.950 . S
C1962 C1960 1.391 . S
C1962 C1963 1.400 . S
C1963 C1962 1.400 . S
C1963 C1964 1.398 . S
C1963 C1969 1.491 . S
C1964 H1955 0.950 . S
C1964 C1963 1.398 . S
C1964 C1965 1.391 . S
C1965 H1953 0.950 . S
C1965 C1961 1.393 . S
C1965 C1964 1.391 . S
C1966 H1956 0.950 . S
C1966 C1967 1.386 . S
C1966 C1968 1.391 . S
C1967 C1966 1.386 . S
C1967 C1971 1.393 . S
C1968 H1957 0.950 . S
C1968 C1966 1.391 . S
C1968 C1969 1.400 . S
C1969 C1963 1.491 . S
C1969 C1968 1.400 . S
C1969 C1970 1.398 . S
C1970 H1958 0.950 . S
C1970 C1969 1.398 . S
C1970 C1971 1.391 . S
C1971 H1959 0.950 . S
C1971 C1967 1.393 . S
C1971 C1970 1.391 . S
H1972 C1980 0.950 . S
H1973 C1985 0.950 . S
H1974 C1982 0.950 . S
H1975 C1984 0.950 . S
H1976 C1986 0.950 . S
H1977 C1988 0.950 . S
H1978 C1990 0.950 . S
H1979 C1991 0.950 . S
C1980 H1972 0.950 . S
C1980 C1981 1.386 . S
C1980 C1982 1.391 . S
C1981 C1980 1.386 . S
C1981 C1985 1.393 . S
C1982 H1974 0.950 . S
C1982 C1980 1.391 . S
C1982 C1983 1.400 . S
C1983 C1982 1.400 . S
C1983 C1984 1.398 . S
C1983 C1989 1.491 . S
C1984 H1975 0.950 . S
C1984 C1983 1.398 . S
C1984 C1985 1.391 . S
C1985 H1973 0.950 . S
C1985 C1981 1.393 . S
C1985 C1984 1.391 . S
C1986 H1976 0.950 . S
C1986 C1987 1.386 . S
C1986 C1988 1.391 . S
C1987 C1986 1.386 . S
C1987 C1991 1.393 . S
C1988 H1977 0.950 . S
C1988 C1986 1.391 . S
C1988 C1989 1.400 . S
C1989 C1983 1.491 . S
C1989 C1988 1.400 . S
C1989 C1990 1.398 . S
C1990 H1978 0.950 . S
C1990 C1989 1.398 . S
C1990 C1991 1.391 . S
C1991 H1979 0.950 . S
C1991 C1987 1.393 . S
C1991 C1990 1.391 . S
H1992 C2000 0.950 . S
H1993 C2005 0.950 . S
H1994 C2002 0.950 . S
H1995 C2004 0.950 . S
H1996 C2006 0.950 . S
H1997 C2008 0.950 . S
H1998 C2010 0.950 . S
H1999 C2011 0.950 . S
C2000 H1992 0.950 . S
C2000 C2001 1.386 . S
C2000 C2002 1.391 . S
C2001 C2000 1.386 . S
C2001 C2005 1.393 . S
C2002 H1994 0.950 . S
C2002 C2000 1.391 . S
C2002 C2003 1.400 . S
C2003 C2002 1.400 . S
C2003 C2004 1.398 . S
C2003 C2009 1.491 . S
C2004 H1995 0.950 . S
C2004 C2003 1.398 . S
C2004 C2005 1.391 . S
C2005 H1993 0.950 . S
C2005 C2001 1.393 . S
C2005 C2004 1.391 . S
C2006 H1996 0.950 . S
C2006 C2007 1.386 . S
C2006 C2008 1.391 . S
C2007 C2006 1.386 . S
C2007 C2011 1.393 . S
C2008 H1997 0.950 . S
C2008 C2006 1.391 . S
C2008 C2009 1.400 . S
C2009 C2003 1.491 . S
C2009 C2008 1.400 . S
C2009 C2010 1.398 . S
C2010 H1998 0.950 . S
C2010 C2009 1.398 . S
C2010 C2011 1.391 . S
C2011 H1999 0.950 . S
C2011 C2007 1.393 . S
C2011 C2010 1.391 . S
H2012 C2020 0.950 . S
H2013 C2025 0.950 . S
H2014 C2022 0.950 . S
H2015 C2024 0.950 . S
H2016 C2026 0.950 . S
H2017 C2028 0.950 . S
H2018 C2030 0.950 . S
H2019 C2031 0.950 . S
C2020 H2012 0.950 . S
C2020 C2021 1.386 . S
C2020 C2022 1.391 . S
C2021 C2020 1.386 . S
C2021 C2025 1.393 . S
C2022 H2014 0.950 . S
C2022 C2020 1.391 . S
C2022 C2023 1.400 . S
C2023 C2022 1.400 . S
C2023 C2024 1.398 . S
C2023 C2029 1.491 . S
C2024 H2015 0.950 . S
C2024 C2023 1.398 . S
C2024 C2025 1.391 . S
C2025 H2013 0.950 . S
C2025 C2021 1.393 . S
C2025 C2024 1.391 . S
C2026 H2016 0.950 . S
C2026 C2027 1.386 . S
C2026 C2028 1.391 . S
C2027 C2026 1.386 . S
C2027 C2031 1.393 . S
C2028 H2017 0.950 . S
C2028 C2026 1.391 . S
C2028 C2029 1.400 . S
C2029 C2023 1.491 . S
C2029 C2028 1.400 . S
C2029 C2030 1.398 . S
C2030 H2018 0.950 . S
C2030 C2029 1.398 . S
C2030 C2031 1.391 . S
C2031 H2019 0.950 . S
C2031 C2027 1.393 . S
C2031 C2030 1.391 . S
H2032 C2040 0.950 . S
H2033 C2045 0.950 . S
H2034 C2042 0.950 . S
H2035 C2044 0.950 . S
H2036 C2046 0.950 . S
H2037 C2048 0.950 . S
H2038 C2050 0.950 . S
H2039 C2051 0.950 . S
C2040 H2032 0.950 . S
C2040 C2041 1.386 . S
C2040 C2042 1.391 . S
C2041 C2040 1.386 . S
C2041 C2045 1.393 . S
C2042 H2034 0.950 . S
C2042 C2040 1.391 . S
C2042 C2043 1.400 . S
C2043 C2042 1.400 . S
C2043 C2044 1.398 . S
C2043 C2049 1.491 . S
C2044 H2035 0.950 . S
C2044 C2043 1.398 . S
C2044 C2045 1.391 . S
C2045 H2033 0.950 . S
C2045 C2041 1.393 . S
C2045 C2044 1.391 . S
C2046 H2036 0.950 . S
C2046 C2047 1.386 . S
C2046 C2048 1.391 . S
C2047 C2046 1.386 . S
C2047 C2051 1.393 . S
C2048 H2037 0.950 . S
C2048 C2046 1.391 . S
C2048 C2049 1.400 . S
C2049 C2043 1.491 . S
C2049 C2048 1.400 . S
C2049 C2050 1.398 . S
C2050 H2038 0.950 . S
C2050 C2049 1.398 . S
C2050 C2051 1.391 . S
C2051 H2039 0.950 . S
C2051 C2047 1.393 . S
C2051 C2050 1.391 . S
H2052 C2060 0.950 . S
H2053 C2065 0.950 . S
H2054 C2062 0.950 . S
H2055 C2064 0.950 . S
H2056 C2066 0.950 . S
H2057 C2068 0.950 . S
H2058 C2070 0.950 . S
H2059 C2071 0.950 . S
C2060 H2052 0.950 . S
C2060 C2061 1.386 . S
C2060 C2062 1.391 . S
C2061 C2060 1.386 . S
C2061 C2065 1.393 . S
C2062 H2054 0.950 . S
C2062 C2060 1.391 . S
C2062 C2063 1.400 . S
C2063 C2062 1.400 . S
C2063 C2064 1.398 . S
C2063 C2069 1.491 . S
C2064 H2055 0.950 . S
C2064 C2063 1.398 . S
C2064 C2065 1.391 . S
C2065 H2053 0.950 . S
C2065 C2061 1.393 . S
C2065 C2064 1.391 . S
C2066 H2056 0.950 . S
C2066 C2067 1.386 . S
C2066 C2068 1.391 . S
C2067 C2066 1.386 . S
C2067 C2071 1.393 . S
C2068 H2057 0.950 . S
C2068 C2066 1.391 . S
C2068 C2069 1.400 . S
C2069 C2063 1.491 . S
C2069 C2068 1.400 . S
C2069 C2070 1.398 . S
C2070 H2058 0.950 . S
C2070 C2069 1.398 . S
C2070 C2071 1.391 . S
C2071 H2059 0.950 . S
C2071 C2067 1.393 . S
C2071 C2070 1.391 . S
H2072 C2080 0.950 . S
H2073 C2085 0.950 . S
H2074 C2082 0.950 . S
H2075 C2084 0.950 . S
H2076 C2086 0.950 . S
H2077 C2088 0.950 . S
H2078 C2090 0.950 . S
H2079 C2091 0.950 . S
C2080 H2072 0.950 . S
C2080 C2081 1.386 . S
C2080 C2082 1.391 . S
C2081 C2080 1.386 . S
C2081 C2085 1.393 . S
C2082 H2074 0.950 . S
C2082 C2080 1.391 . S
C2082 C2083 1.400 . S
C2083 C2082 1.400 . S
C2083 C2084 1.398 . S
C2083 C2089 1.491 . S
C2084 H2075 0.950 . S
C2084 C2083 1.398 . S
C2084 C2085 1.391 . S
C2085 H2073 0.950 . S
C2085 C2081 1.393 . S
C2085 C2084 1.391 . S
C2086 H2076 0.950 . S
C2086 C2087 1.386 . S
C2086 C2088 1.391 . S
C2087 C2086 1.386 . S
C2087 C2091 1.393 . S
C2088 H2077 0.950 . S
C2088 C2086 1.391 . S
C2088 C2089 1.400 . S
C2089 C2083 1.491 . S
C2089 C2088 1.400 . S
C2089 C2090 1.398 . S
C2090 H2078 0.950 . S
C2090 C2089 1.398 . S
C2090 C2091 1.391 . S
C2091 H2079 0.950 . S
C2091 C2087 1.393 . S
C2091 C2090 1.391 . S
H2092 C2100 0.950 . S
H2093 C2105 0.950 . S
H2094 C2102 0.950 . S
H2095 C2104 0.950 . S
H2096 C2106 0.950 . S
H2097 C2108 0.950 . S
H2098 C2110 0.950 . S
H2099 C2111 0.950 . S
C2100 H2092 0.950 . S
C2100 C2101 1.386 . S
C2100 C2102 1.391 . S
C2101 C2100 1.386 . S
C2101 C2105 1.393 . S
C2102 H2094 0.950 . S
C2102 C2100 1.391 . S
C2102 C2103 1.400 . S
C2103 C2102 1.400 . S
C2103 C2104 1.398 . S
C2103 C2109 1.491 . S
C2104 H2095 0.950 . S
C2104 C2103 1.398 . S
C2104 C2105 1.391 . S
C2105 H2093 0.950 . S
C2105 C2101 1.393 . S
C2105 C2104 1.391 . S
C2106 H2096 0.950 . S
C2106 C2107 1.386 . S
C2106 C2108 1.391 . S
C2107 C2106 1.386 . S
C2107 C2111 1.393 . S
C2108 H2097 0.950 . S
C2108 C2106 1.391 . S
C2108 C2109 1.400 . S
C2109 C2103 1.491 . S
C2109 C2108 1.400 . S
C2109 C2110 1.398 . S
C2110 H2098 0.950 . S
C2110 C2109 1.398 . S
C2110 C2111 1.391 . S
C2111 H2099 0.950 . S
C2111 C2107 1.393 . S
C2111 C2110 1.391 . S
H2112 C2120 0.950 . S
H2113 C2125 0.950 . S
H2114 C2122 0.950 . S
H2115 C2124 0.950 . S
H2116 C2126 0.950 . S
H2117 C2128 0.950 . S
H2118 C2130 0.950 . S
H2119 C2131 0.950 . S
C2120 H2112 0.950 . S
C2120 C2121 1.386 . S
C2120 C2122 1.391 . S
C2121 C2120 1.386 . S
C2121 C2125 1.393 . S
C2122 H2114 0.950 . S
C2122 C2120 1.391 . S
C2122 C2123 1.400 . S
C2123 C2122 1.400 . S
C2123 C2124 1.398 . S
C2123 C2129 1.491 . S
C2124 H2115 0.950 . S
C2124 C2123 1.398 . S
C2124 C2125 1.391 . S
C2125 H2113 0.950 . S
C2125 C2121 1.393 . S
C2125 C2124 1.391 . S
C2126 H2116 0.950 . S
C2126 C2127 1.386 . S
C2126 C2128 1.391 . S
C2127 C2126 1.386 . S
C2127 C2131 1.393 . S
C2128 H2117 0.950 . S
C2128 C2126 1.391 . S
C2128 C2129 1.400 . S
C2129 C2123 1.491 . S
C2129 C2128 1.400 . S
C2129 C2130 1.398 . S
C2130 H2118 0.950 . S
C2130 C2129 1.398 . S
C2130 C2131 1.391 . S
C2131 H2119 0.950 . S
C2131 C2127 1.393 . S
C2131 C2130 1.391 . S
H2132 C2140 0.950 . S
H2133 C2145 0.950 . S
H2134 C2142 0.950 . S
H2135 C2144 0.950 . S
H2136 C2146 0.950 . S
H2137 C2148 0.950 . S
H2138 C2150 0.950 . S
H2139 C2151 0.950 . S
C2140 H2132 0.950 . S
C2140 C2141 1.386 . S
C2140 C2142 1.391 . S
C2141 C2140 1.386 . S
C2141 C2145 1.393 . S
C2142 H2134 0.950 . S
C2142 C2140 1.391 . S
C2142 C2143 1.400 . S
C2143 C2142 1.400 . S
C2143 C2144 1.398 . S
C2143 C2149 1.491 . S
C2144 H2135 0.950 . S
C2144 C2143 1.398 . S
C2144 C2145 1.391 . S
C2145 H2133 0.950 . S
C2145 C2141 1.393 . S
C2145 C2144 1.391 . S
C2146 H2136 0.950 . S
C2146 C2147 1.386 . S
C2146 C2148 1.391 . S
C2147 C2146 1.386 . S
C2147 C2151 1.393 . S
C2148 H2137 0.950 . S
C2148 C2146 1.391 . S
C2148 C2149 1.400 . S
C2149 C2143 1.491 . S
C2149 C2148 1.400 . S
C2149 C2150 1.398 . S
C2150 H2138 0.950 . S
C2150 C2149 1.398 . S
C2150 C2151 1.391 . S
C2151 H2139 0.950 . S
C2151 C2147 1.393 . S
C2151 C2150 1.391 . S
H2152 C2160 0.950 . S
H2153 C2165 0.950 . S
H2154 C2162 0.950 . S
H2155 C2164 0.950 . S
H2156 C2166 0.950 . S
H2157 C2168 0.950 . S
H2158 C2170 0.950 . S
H2159 C2171 0.950 . S
C2160 H2152 0.950 . S
C2160 C2161 1.386 . S
C2160 C2162 1.391 . S
C2161 C2160 1.386 . S
C2161 C2165 1.393 . S
C2162 H2154 0.950 . S
C2162 C2160 1.391 . S
C2162 C2163 1.400 . S
C2163 C2162 1.400 . S
C2163 C2164 1.398 . S
C2163 C2169 1.491 . S
C2164 H2155 0.950 . S
C2164 C2163 1.398 . S
C2164 C2165 1.391 . S
C2165 H2153 0.950 . S
C2165 C2161 1.393 . S
C2165 C2164 1.391 . S
C2166 H2156 0.950 . S
C2166 C2167 1.386 . S
C2166 C2168 1.391 . S
C2167 C2166 1.386 . S
C2167 C2171 1.393 . S
C2168 H2157 0.950 . S
C2168 C2166 1.391 . S
C2168 C2169 1.400 . S
C2169 C2163 1.491 . S
C2169 C2168 1.400 . S
C2169 C2170 1.398 . S
C2170 H2158 0.950 . S
C2170 C2169 1.398 . S
C2170 C2171 1.391 . S
C2171 H2159 0.950 . S
C2171 C2167 1.393 . S
C2171 C2170 1.391 . S
H2172 C2180 0.950 . S
H2173 C2185 0.950 . S
H2174 C2182 0.950 . S
H2175 C2184 0.950 . S
H2176 C2186 0.950 . S
H2177 C2188 0.950 . S
H2178 C2190 0.950 . S
H2179 C2191 0.950 . S
C2180 H2172 0.950 . S
C2180 C2181 1.386 . S
C2180 C2182 1.391 . S
C2181 C2180 1.386 . S
C2181 C2185 1.393 . S
C2182 H2174 0.950 . S
C2182 C2180 1.391 . S
C2182 C2183 1.400 . S
C2183 C2182 1.400 . S
C2183 C2184 1.398 . S
C2183 C2189 1.491 . S
C2184 H2175 0.950 . S
C2184 C2183 1.398 . S
C2184 C2185 1.391 . S
C2185 H2173 0.950 . S
C2185 C2181 1.393 . S
C2185 C2184 1.391 . S
C2186 H2176 0.950 . S
C2186 C2187 1.386 . S
C2186 C2188 1.391 . S
C2187 C2186 1.386 . S
C2187 C2191 1.393 . S
C2188 H2177 0.950 . S
C2188 C2186 1.391 . S
C2188 C2189 1.400 . S
C2189 C2183 1.491 . S
C2189 C2188 1.400 . S
C2189 C2190 1.398 . S
C2190 H2178 0.950 . S
C2190 C2189 1.398 . S
C2190 C2191 1.391 . S
C2191 H2179 0.950 . S
C2191 C2187 1.393 . S
C2191 C2190 1.391 . S
H2192 C2200 0.950 . S
H2193 C2205 0.950 . S
H2194 C2202 0.950 . S
H2195 C2204 0.950 . S
H2196 C2206 0.950 . S
H2197 C2208 0.950 . S
H2198 C2210 0.950 . S
H2199 C2211 0.950 . S
C2200 H2192 0.950 . S
C2200 C2201 1.386 . S
C2200 C2202 1.391 . S
C2201 C2200 1.386 . S
C2201 C2205 1.393 . S
C2202 H2194 0.950 . S
C2202 C2200 1.391 . S
C2202 C2203 1.400 . S
C2203 C2202 1.400 . S
C2203 C2204 1.398 . S
C2203 C2209 1.491 . S
C2204 H2195 0.950 . S
C2204 C2203 1.398 . S
C2204 C2205 1.391 . S
C2205 H2193 0.950 . S
C2205 C2201 1.393 . S
C2205 C2204 1.391 . S
C2206 H2196 0.950 . S
C2206 C2207 1.386 . S
C2206 C2208 1.391 . S
C2207 C2206 1.386 . S
C2207 C2211 1.393 . S
C2208 H2197 0.950 . S
C2208 C2206 1.391 . S
C2208 C2209 1.400 . S
C2209 C2203 1.491 . S
C2209 C2208 1.400 . S
C2209 C2210 1.398 . S
C2210 H2198 0.950 . S
C2210 C2209 1.398 . S
C2210 C2211 1.391 . S
C2211 H2199 0.950 . S
C2211 C2207 1.393 . S
C2211 C2210 1.391 . S
H2212 C2220 0.950 . S
H2213 C2225 0.950 . S
H2214 C2222 0.950 . S
H2215 C2224 0.950 . S
H2216 C2226 0.950 . S
H2217 C2228 0.950 . S
H2218 C2230 0.950 . S
H2219 C2231 0.950 . S
C2220 H2212 0.950 . S
C2220 C2221 1.386 . S
C2220 C2222 1.391 . S
C2221 C2220 1.386 . S
C2221 C2225 1.393 . S
C2222 H2214 0.950 . S
C2222 C2220 1.391 . S
C2222 C2223 1.400 . S
C2223 C2222 1.400 . S
C2223 C2224 1.398 . S
C2223 C2229 1.491 . S
C2224 H2215 0.950 . S
C2224 C2223 1.398 . S
C2224 C2225 1.391 . S
C2225 H2213 0.950 . S
C2225 C2221 1.393 . S
C2225 C2224 1.391 . S
C2226 H2216 0.950 . S
C2226 C2227 1.386 . S
C2226 C2228 1.391 . S
C2227 C2226 1.386 . S
C2227 C2231 1.393 . S
C2228 H2217 0.950 . S
C2228 C2226 1.391 . S
C2228 C2229 1.400 . S
C2229 C2223 1.491 . S
C2229 C2228 1.400 . S
C2229 C2230 1.398 . S
C2230 H2218 0.950 . S
C2230 C2229 1.398 . S
C2230 C2231 1.391 . S
C2231 H2219 0.950 . S
C2231 C2227 1.393 . S
C2231 C2230 1.391 . S
H2232 C2240 0.950 . S
H2233 C2245 0.950 . S
H2234 C2242 0.950 . S
H2235 C2244 0.950 . S
H2236 C2246 0.950 . S
H2237 C2248 0.950 . S
H2238 C2250 0.950 . S
H2239 C2251 0.950 . S
C2240 H2232 0.950 . S
C2240 C2241 1.386 . S
C2240 C2242 1.391 . S
C2241 C2240 1.386 . S
C2241 C2245 1.393 . S
C2242 H2234 0.950 . S
C2242 C2240 1.391 . S
C2242 C2243 1.400 . S
C2243 C2242 1.400 . S
C2243 C2244 1.398 . S
C2243 C2249 1.491 . S
C2244 H2235 0.950 . S
C2244 C2243 1.398 . S
C2244 C2245 1.391 . S
C2245 H2233 0.950 . S
C2245 C2241 1.393 . S
C2245 C2244 1.391 . S
C2246 H2236 0.950 . S
C2246 C2247 1.386 . S
C2246 C2248 1.391 . S
C2247 C2246 1.386 . S
C2247 C2251 1.393 . S
C2248 H2237 0.950 . S
C2248 C2246 1.391 . S
C2248 C2249 1.400 . S
C2249 C2243 1.491 . S
C2249 C2248 1.400 . S
C2249 C2250 1.398 . S
C2250 H2238 0.950 . S
C2250 C2249 1.398 . S
C2250 C2251 1.391 . S
C2251 H2239 0.950 . S
C2251 C2247 1.393 . S
C2251 C2250 1.391 . S
H2252 C2260 0.950 . S
H2253 C2265 0.950 . S
H2254 C2262 0.950 . S
H2255 C2264 0.950 . S
H2256 C2266 0.950 . S
H2257 C2268 0.950 . S
H2258 C2270 0.950 . S
H2259 C2271 0.950 . S
C2260 H2252 0.950 . S
C2260 C2261 1.386 . S
C2260 C2262 1.391 . S
C2261 C2260 1.386 . S
C2261 C2265 1.393 . S
C2262 H2254 0.950 . S
C2262 C2260 1.391 . S
C2262 C2263 1.400 . S
C2263 C2262 1.400 . S
C2263 C2264 1.398 . S
C2263 C2269 1.491 . S
C2264 H2255 0.950 . S
C2264 C2263 1.398 . S
C2264 C2265 1.391 . S
C2265 H2253 0.950 . S
C2265 C2261 1.393 . S
C2265 C2264 1.391 . S
C2266 H2256 0.950 . S
C2266 C2267 1.386 . S
C2266 C2268 1.391 . S
C2267 C2266 1.386 . S
C2267 C2271 1.393 . S
C2268 H2257 0.950 . S
C2268 C2266 1.391 . S
C2268 C2269 1.400 . S
C2269 C2263 1.491 . S
C2269 C2268 1.400 . S
C2269 C2270 1.398 . S
C2270 H2258 0.950 . S
C2270 C2269 1.398 . S
C2270 C2271 1.391 . S
C2271 H2259 0.950 . S
C2271 C2267 1.393 . S
C2271 C2270 1.391 . S
H2272 C2280 0.950 . S
H2273 C2285 0.950 . S
H2274 C2282 0.950 . S
H2275 C2284 0.950 . S
H2276 C2286 0.950 . S
H2277 C2288 0.950 . S
H2278 C2290 0.950 . S
H2279 C2291 0.950 . S
C2280 H2272 0.950 . S
C2280 C2281 1.386 . S
C2280 C2282 1.391 . S
C2281 C2280 1.386 . S
C2281 C2285 1.393 . S
C2282 H2274 0.950 . S
C2282 C2280 1.391 . S
C2282 C2283 1.400 . S
C2283 C2282 1.400 . S
C2283 C2284 1.398 . S
C2283 C2289 1.491 . S
C2284 H2275 0.950 . S
C2284 C2283 1.398 . S
C2284 C2285 1.391 . S
C2285 H2273 0.950 . S
C2285 C2281 1.393 . S
C2285 C2284 1.391 . S
C2286 H2276 0.950 . S
C2286 C2287 1.386 . S
C2286 C2288 1.391 . S
C2287 C2286 1.386 . S
C2287 C2291 1.393 . S
C2288 H2277 0.950 . S
C2288 C2286 1.391 . S
C2288 C2289 1.400 . S
C2289 C2283 1.491 . S
C2289 C2288 1.400 . S
C2289 C2290 1.398 . S
C2290 H2278 0.950 . S
C2290 C2289 1.398 . S
C2290 C2291 1.391 . S
C2291 H2279 0.950 . S
C2291 C2287 1.393 . S
C2291 C2290 1.391 . S
H2292 C2300 0.950 . S
H2293 C2305 0.950 . S
H2294 C2302 0.950 . S
H2295 C2304 0.950 . S
H2296 C2306 0.950 . S
H2297 C2308 0.950 . S
H2298 C2310 0.950 . S
H2299 C2311 0.950 . S
C2300 H2292 0.950 . S
C2300 C2301 1.386 . S
C2300 C2302 1.391 . S
C2301 C2300 1.386 . S
C2301 C2305 1.393 . S
C2302 H2294 0.950 . S
C2302 C2300 1.391 . S
C2302 C2303 1.400 . S
C2303 C2302 1.400 . S
C2303 C2304 1.398 . S
C2303 C2309 1.491 . S
C2304 H2295 0.950 . S
C2304 C2303 1.398 . S
C2304 C2305 1.391 . S
C2305 H2293 0.950 . S
C2305 C2301 1.393 . S
C2305 C2304 1.391 . S
C2306 H2296 0.950 . S
C2306 C2307 1.386 . S
C2306 C2308 1.391 . S
C2307 C2306 1.386 . S
C2307 C2311 1.393 . S
C2308 H2297 0.950 . S
C2308 C2306 1.391 . S
C2308 C2309 1.400 . S
C2309 C2303 1.491 . S
C2309 C2308 1.400 . S
C2309 C2310 1.398 . S
C2310 H2298 0.950 . S
C2310 C2309 1.398 . S
C2310 C2311 1.391 . S
C2311 H2299 0.950 . S
C2311 C2307 1.393 . S
C2311 C2310 1.391 . S
H2312 C2320 0.950 . S
H2313 C2325 0.950 . S
H2314 C2322 0.950 . S
H2315 C2324 0.950 . S
H2316 C2326 0.950 . S
H2317 C2328 0.950 . S
H2318 C2330 0.950 . S
H2319 C2331 0.950 . S
C2320 H2312 0.950 . S
C2320 C2321 1.386 . S
C2320 C2322 1.391 . S
C2321 C2320 1.386 . S
C2321 C2325 1.393 . S
C2322 H2314 0.950 . S
C2322 C2320 1.391 . S
C2322 C2323 1.400 . S
C2323 C2322 1.400 . S
C2323 C2324 1.398 . S
C2323 C2329 1.491 . S
C2324 H2315 0.950 . S
C2324 C2323 1.398 . S
C2324 C2325 1.391 . S
C2325 H2313 0.950 . S
C2325 C2321 1.393 . S
C2325 C2324 1.391 . S
C2326 H2316 0.950 . S
C2326 C2327 1.386 . S
C2326 C2328 1.391 . S
C2327 C2326 1.386 . S
C2327 C2331 1.393 . S
C2328 H2317 0.950 . S
C2328 C2326 1.391 . S
C2328 C2329 1.400 . S
C2329 C2323 1.491 . S
C2329 C2328 1.400 . S
C2329 C2330 1.398 . S
C2330 H2318 0.950 . S
C2330 C2329 1.398 . S
C2330 C2331 1.391 . S
C2331 H2319 0.950 . S
C2331 C2327 1.393 . S
C2331 C2330 1.391 . S
H2332 C2340 0.950 . S
H2333 C2345 0.950 . S
H2334 C2342 0.950 . S
H2335 C2344 0.950 . S
H2336 C2346 0.950 . S
H2337 C2348 0.950 . S
H2338 C2350 0.950 . S
H2339 C2351 0.950 . S
C2340 H2332 0.950 . S
C2340 C2341 1.386 . S
C2340 C2342 1.391 . S
C2341 C2340 1.386 . S
C2341 C2345 1.393 . S
C2342 H2334 0.950 . S
C2342 C2340 1.391 . S
C2342 C2343 1.400 . S
C2343 C2342 1.400 . S
C2343 C2344 1.398 . S
C2343 C2349 1.491 . S
C2344 H2335 0.950 . S
C2344 C2343 1.398 . S
C2344 C2345 1.391 . S
C2345 H2333 0.950 . S
C2345 C2341 1.393 . S
C2345 C2344 1.391 . S
C2346 H2336 0.950 . S
C2346 C2347 1.386 . S
C2346 C2348 1.391 . S
C2347 C2346 1.386 . S
C2347 C2351 1.393 . S
C2348 H2337 0.950 . S
C2348 C2346 1.391 . S
C2348 C2349 1.400 . S
C2349 C2343 1.491 . S
C2349 C2348 1.400 . S
C2349 C2350 1.398 . S
C2350 H2338 0.950 . S
C2350 C2349 1.398 . S
C2350 C2351 1.391 . S
C2351 H2339 0.950 . S
C2351 C2347 1.393 . S
C2351 C2350 1.391 . S
H2352 C2360 0.950 . S
H2353 C2365 0.950 . S
H2354 C2362 0.950 . S
H2355 C2364 0.950 . S
H2356 C2366 0.950 . S
H2357 C2368 0.950 . S
H2358 C2370 0.950 . S
H2359 C2371 0.950 . S
C2360 H2352 0.950 . S
C2360 C2361 1.386 . S
C2360 C2362 1.391 . S
C2361 C2360 1.386 . S
C2361 C2365 1.393 . S
C2362 H2354 0.950 . S
C2362 C2360 1.391 . S
C2362 C2363 1.400 . S
C2363 C2362 1.400 . S
C2363 C2364 1.398 . S
C2363 C2369 1.491 . S
C2364 H2355 0.950 . S
C2364 C2363 1.398 . S
C2364 C2365 1.391 . S
C2365 H2353 0.950 . S
C2365 C2361 1.393 . S
C2365 C2364 1.391 . S
C2366 H2356 0.950 . S
C2366 C2367 1.386 . S
C2366 C2368 1.391 . S
C2367 C2366 1.386 . S
C2367 C2371 1.393 . S
C2368 H2357 0.950 . S
C2368 C2366 1.391 . S
C2368 C2369 1.400 . S
C2369 C2363 1.491 . S
C2369 C2368 1.400 . S
C2369 C2370 1.398 . S
C2370 H2358 0.950 . S
C2370 C2369 1.398 . S
C2370 C2371 1.391 . S
C2371 H2359 0.950 . S
C2371 C2367 1.393 . S
C2371 C2370 1.391 . S
H2372 C2380 0.950 . S
H2373 C2385 0.950 . S
H2374 C2382 0.950 . S
H2375 C2384 0.950 . S
H2376 C2386 0.950 . S
H2377 C2388 0.950 . S
H2378 C2390 0.950 . S
H2379 C2391 0.950 . S
C2380 H2372 0.950 . S
C2380 C2381 1.386 . S
C2380 C2382 1.391 . S
C2381 C2380 1.386 . S
C2381 C2385 1.393 . S
C2382 H2374 0.950 . S
C2382 C2380 1.391 . S
C2382 C2383 1.400 . S
C2383 C2382 1.400 . S
C2383 C2384 1.398 . S
C2383 C2389 1.491 . S
C2384 H2375 0.950 . S
C2384 C2383 1.398 . S
C2384 C2385 1.391 . S
C2385 H2373 0.950 . S
C2385 C2381 1.393 . S
C2385 C2384 1.391 . S
C2386 H2376 0.950 . S
C2386 C2387 1.386 . S
C2386 C2388 1.391 . S
C2387 C2386 1.386 . S
C2387 C2391 1.393 . S
C2388 H2377 0.950 . S
C2388 C2386 1.391 . S
C2388 C2389 1.400 . S
C2389 C2383 1.491 . S
C2389 C2388 1.400 . S
C2389 C2390 1.398 . S
C2390 H2378 0.950 . S
C2390 C2389 1.398 . S
C2390 C2391 1.391 . S
C2391 H2379 0.950 . S
C2391 C2387 1.393 . S
C2391 C2390 1.391 . S
H2392 C2400 0.950 . S
H2393 C2405 0.950 . S
H2394 C2402 0.950 . S
H2395 C2404 0.950 . S
H2396 C2406 0.950 . S
H2397 C2408 0.950 . S
H2398 C2410 0.950 . S
H2399 C2411 0.950 . S
C2400 H2392 0.950 . S
C2400 C2401 1.386 . S
C2400 C2402 1.391 . S
C2401 C2400 1.386 . S
C2401 C2405 1.393 . S
C2402 H2394 0.950 . S
C2402 C2400 1.391 . S
C2402 C2403 1.400 . S
C2403 C2402 1.400 . S
C2403 C2404 1.398 . S
C2403 C2409 1.491 . S
C2404 H2395 0.950 . S
C2404 C2403 1.398 . S
C2404 C2405 1.391 . S
C2405 H2393 0.950 . S
C2405 C2401 1.393 . S
C2405 C2404 1.391 . S
C2406 H2396 0.950 . S
C2406 C2407 1.386 . S
C2406 C2408 1.391 . S
C2407 C2406 1.386 . S
C2407 C2411 1.393 . S
C2408 H2397 0.950 . S
C2408 C2406 1.391 . S
C2408 C2409 1.400 . S
C2409 C2403 1.491 . S
C2409 C2408 1.400 . S
C2409 C2410 1.398 . S
C2410 H2398 0.950 . S
C2410 C2409 1.398 . S
C2410 C2411 1.391 . S
C2411 H2399 0.950 . S
C2411 C2407 1.393 . S
C2411 C2410 1.391 . S
H2412 C2420 0.950 . S
H2413 C2425 0.950 . S
H2414 C2422 0.950 . S
H2415 C2424 0.950 . S
H2416 C2426 0.950 . S
H2417 C2428 0.950 . S
H2418 C2430 0.950 . S
H2419 C2431 0.950 . S
C2420 H2412 0.950 . S
C2420 C2421 1.386 . S
C2420 C2422 1.391 . S
C2421 C2420 1.386 . S
C2421 C2425 1.393 . S
C2422 H2414 0.950 . S
C2422 C2420 1.391 . S
C2422 C2423 1.400 . S
C2423 C2422 1.400 . S
C2423 C2424 1.398 . S
C2423 C2429 1.491 . S
C2424 H2415 0.950 . S
C2424 C2423 1.398 . S
C2424 C2425 1.391 . S
C2425 H2413 0.950 . S
C2425 C2421 1.393 . S
C2425 C2424 1.391 . S
C2426 H2416 0.950 . S
C2426 C2427 1.386 . S
C2426 C2428 1.391 . S
C2427 C2426 1.386 . S
C2427 C2431 1.393 . S
C2428 H2417 0.950 . S
C2428 C2426 1.391 . S
C2428 C2429 1.400 . S
C2429 C2423 1.491 . S
C2429 C2428 1.400 . S
C2429 C2430 1.398 . S
C2430 H2418 0.950 . S
C2430 C2429 1.398 . S
C2430 C2431 1.391 . S
C2431 H2419 0.950 . S
C2431 C2427 1.393 . S
C2431 C2430 1.391 . S
H2432 C2440 0.950 . S
H2433 C2445 0.950 . S
H2434 C2442 0.950 . S
H2435 C2444 0.950 . S
H2436 C2446 0.950 . S
H2437 C2448 0.950 . S
H2438 C2450 0.950 . S
H2439 C2451 0.950 . S
C2440 H2432 0.950 . S
C2440 C2441 1.386 . S
C2440 C2442 1.391 . S
C2441 C2440 1.386 . S
C2441 C2445 1.393 . S
C2442 H2434 0.950 . S
C2442 C2440 1.391 . S
C2442 C2443 1.400 . S
C2443 C2442 1.400 . S
C2443 C2444 1.398 . S
C2443 C2449 1.491 . S
C2444 H2435 0.950 . S
C2444 C2443 1.398 . S
C2444 C2445 1.391 . S
C2445 H2433 0.950 . S
C2445 C2441 1.393 . S
C2445 C2444 1.391 . S
C2446 H2436 0.950 . S
C2446 C2447 1.386 . S
C2446 C2448 1.391 . S
C2447 C2446 1.386 . S
C2447 C2451 1.393 . S
C2448 H2437 0.950 . S
C2448 C2446 1.391 . S
C2448 C2449 1.400 . S
C2449 C2443 1.491 . S
C2449 C2448 1.400 . S
C2449 C2450 1.398 . S
C2450 H2438 0.950 . S
C2450 C2449 1.398 . S
C2450 C2451 1.391 . S
C2451 H2439 0.950 . S
C2451 C2447 1.393 . S
C2451 C2450 1.391 . S
H2452 C2460 0.950 . S
H2453 C2465 0.950 . S
H2454 C2462 0.950 . S
H2455 C2464 0.950 . S
H2456 C2466 0.950 . S
H2457 C2468 0.950 . S
H2458 C2470 0.950 . S
H2459 C2471 0.950 . S
C2460 H2452 0.950 . S
C2460 C2461 1.386 . S
C2460 C2462 1.391 . S
C2461 C2460 1.386 . S
C2461 C2465 1.393 . S
C2462 H2454 0.950 . S
C2462 C2460 1.391 . S
C2462 C2463 1.400 . S
C2463 C2462 1.400 . S
C2463 C2464 1.398 . S
C2463 C2469 1.491 . S
C2464 H2455 0.950 . S
C2464 C2463 1.398 . S
C2464 C2465 1.391 . S
C2465 H2453 0.950 . S
C2465 C2461 1.393 . S
C2465 C2464 1.391 . S
C2466 H2456 0.950 . S
C2466 C2467 1.386 . S
C2466 C2468 1.391 . S
C2467 C2466 1.386 . S
C2467 C2471 1.393 . S
C2468 H2457 0.950 . S
C2468 C2466 1.391 . S
C2468 C2469 1.400 . S
C2469 C2463 1.491 . S
C2469 C2468 1.400 . S
C2469 C2470 1.398 . S
C2470 H2458 0.950 . S
C2470 C2469 1.398 . S
C2470 C2471 1.391 . S
C2471 H2459 0.950 . S
C2471 C2467 1.393 . S
C2471 C2470 1.391 . S
H2472 C2480 0.950 . S
H2473 C2485 0.950 . S
H2474 C2482 0.950 . S
H2475 C2484 0.950 . S
H2476 C2486 0.950 . S
H2477 C2488 0.950 . S
H2478 C2490 0.950 . S
H2479 C2491 0.950 . S
C2480 H2472 0.950 . S
C2480 C2481 1.386 . S
C2480 C2482 1.391 . S
C2481 C2480 1.386 . S
C2481 C2485 1.393 . S
C2482 H2474 0.950 . S
C2482 C2480 1.391 . S
C2482 C2483 1.400 . S
C2483 C2482 1.400 . S
C2483 C2484 1.398 . S
C2483 C2489 1.491 . S
C2484 H2475 0.950 . S
C2484 C2483 1.398 . S
C2484 C2485 1.391 . S
C2485 H2473 0.950 . S
C2485 C2481 1.393 . S
C2485 C2484 1.391 . S
C2486 H2476 0.950 . S
C2486 C2487 1.386 . S
C2486 C2488 1.391 . S
C2487 C2486 1.386 . S
C2487 C2491 1.393 . S
C2488 H2477 0.950 . S
C2488 C2486 1.391 . S
C2488 C2489 1.400 . S
C2489 C2483 1.491 . S
C2489 C2488 1.400 . S
C2489 C2490 1.398 . S
C2490 H2478 0.950 . S
C2490 C2489 1.398 . S
C2490 C2491 1.391 . S
C2491 H2479 0.950 . S
C2491 C2487 1.393 . S
C2491 C2490 1.391 . S
H2492 C2500 0.950 . S
H2493 C2505 0.950 . S
H2494 C2502 0.950 . S
H2495 C2504 0.950 . S
H2496 C2506 0.950 . S
H2497 C2508 0.950 . S
H2498 C2510 0.950 . S
H2499 C2511 0.950 . S
C2500 H2492 0.950 . S
C2500 C2501 1.386 . S
C2500 C2502 1.391 . S
C2501 C2500 1.386 . S
C2501 C2505 1.393 . S
C2502 H2494 0.950 . S
C2502 C2500 1.391 . S
C2502 C2503 1.400 . S
C2503 C2502 1.400 . S
C2503 C2504 1.398 . S
C2503 C2509 1.491 . S
C2504 H2495 0.950 . S
C2504 C2503 1.398 . S
C2504 C2505 1.391 . S
C2505 H2493 0.950 . S
C2505 C2501 1.393 . S
C2505 C2504 1.391 . S
C2506 H2496 0.950 . S
C2506 C2507 1.386 . S
C2506 C2508 1.391 . S
C2507 C2506 1.386 . S
C2507 C2511 1.393 . S
C2508 H2497 0.950 . S
C2508 C2506 1.391 . S
C2508 C2509 1.400 . S
C2509 C2503 1.491 . S
C2509 C2508 1.400 . S
C2509 C2510 1.398 . S
C2510 H2498 0.950 . S
C2510 C2509 1.398 . S
C2510 C2511 1.391 . S
C2511 H2499 0.950 . S
C2511 C2507 1.393 . S
C2511 C2510 1.391 . S
H2512 C2520 0.950 . S
H2513 C2525 0.950 . S
H2514 C2522 0.950 . S
H2515 C2524 0.950 . S
H2516 C2526 0.950 . S
H2517 C2528 0.950 . S
H2518 C2530 0.950 . S
H2519 C2531 0.950 . S
C2520 H2512 0.950 . S
C2520 C2521 1.386 . S
C2520 C2522 1.391 . S
C2521 C2520 1.386 . S
C2521 C2525 1.393 . S
C2522 H2514 0.950 . S
C2522 C2520 1.391 . S
C2522 C2523 1.400 . S
C2523 C2522 1.400 . S
C2523 C2524 1.398 . S
C2523 C2529 1.491 . S
C2524 H2515 0.950 . S
C2524 C2523 1.398 . S
C2524 C2525 1.391 . S
C2525 H2513 0.950 . S
C2525 C2521 1.393 . S
C2525 C2524 1.391 . S
C2526 H2516 0.950 . S
C2526 C2527 1.386 . S
C2526 C2528 1.391 . S
C2527 C2526 1.386 . S
C2527 C2531 1.393 . S
C2528 H2517 0.950 . S
C2528 C2526 1.391 . S
C2528 C2529 1.400 . S
C2529 C2523 1.491 . S
C2529 C2528 1.400 . S
C2529 C2530 1.398 . S
C2530 H2518 0.950 . S
C2530 C2529 1.398 . S
C2530 C2531 1.391 . S
C2531 H2519 0.950 . S
C2531 C2527 1.393 . S
C2531 C2530 1.391 . S
H2532 C2540 0.950 . S
H2533 C2545 0.950 . S
H2534 C2542 0.950 . S
H2535 C2544 0.950 . S
H2536 C2546 0.950 . S
H2537 C2548 0.950 . S
H2538 C2550 0.950 . S
H2539 C2551 0.950 . S
C2540 H2532 0.950 . S
C2540 C2541 1.386 . S
C2540 C2542 1.391 . S
C2541 C2540 1.386 . S
C2541 C2545 1.393 . S
C2542 H2534 0.950 . S
C2542 C2540 1.391 . S
C2542 C2543 1.400 . S
C2543 C2542 1.400 . S
C2543 C2544 1.398 . S
C2543 C2549 1.491 . S
C2544 H2535 0.950 . S
C2544 C2543 1.398 . S
C2544 C2545 1.391 . S
C2545 H2533 0.950 . S
C2545 C2541 1.393 . S
C2545 C2544 1.391 . S
C2546 H2536 0.950 . S
C2546 C2547 1.386 . S
C2546 C2548 1.391 . S
C2547 C2546 1.386 . S
C2547 C2551 1.393 . S
C2548 H2537 0.950 . S
C2548 C2546 1.391 . S
C2548 C2549 1.400 . S
C2549 C2543 1.491 . S
C2549 C2548 1.400 . S
C2549 C2550 1.398 . S
C2550 H2538 0.950 . S
C2550 C2549 1.398 . S
C2550 C2551 1.391 . S
C2551 H2539 0.950 . S
C2551 C2547 1.393 . S
C2551 C2550 1.391 . S
H2552 C2560 0.950 . S
H2553 C2565 0.950 . S
H2554 C2562 0.950 . S
H2555 C2564 0.950 . S
H2556 C2566 0.950 . S
H2557 C2568 0.950 . S
H2558 C2570 0.950 . S
H2559 C2571 0.950 . S
C2560 H2552 0.950 . S
C2560 C2561 1.386 . S
C2560 C2562 1.391 . S
C2561 C2560 1.386 . S
C2561 C2565 1.393 . S
C2562 H2554 0.950 . S
C2562 C2560 1.391 . S
C2562 C2563 1.400 . S
C2563 C2562 1.400 . S
C2563 C2564 1.398 . S
C2563 C2569 1.491 . S
C2564 H2555 0.950 . S
C2564 C2563 1.398 . S
C2564 C2565 1.391 . S
C2565 H2553 0.950 . S
C2565 C2561 1.393 . S
C2565 C2564 1.391 . S
C2566 H2556 0.950 . S
C2566 C2567 1.386 . S
C2566 C2568 1.391 . S
C2567 C2566 1.386 . S
C2567 C2571 1.393 . S
C2568 H2557 0.950 . S
C2568 C2566 1.391 . S
C2568 C2569 1.400 . S
C2569 C2563 1.491 . S
C2569 C2568 1.400 . S
C2569 C2570 1.398 . S
C2570 H2558 0.950 . S
C2570 C2569 1.398 . S
C2570 C2571 1.391 . S
C2571 H2559 0.950 . S
C2571 C2567 1.393 . S
C2571 C2570 1.391 . S
H2572 C2580 0.950 . S
H2573 C2585 0.950 . S
H2574 C2582 0.950 . S
H2575 C2584 0.950 . S
H2576 C2586 0.950 . S
H2577 C2588 0.950 . S
H2578 C2590 0.950 . S
H2579 C2591 0.950 . S
C2580 H2572 0.950 . S
C2580 C2581 1.386 . S
C2580 C2582 1.391 . S
C2581 C2580 1.386 . S
C2581 C2585 1.393 . S
C2582 H2574 0.950 . S
C2582 C2580 1.391 . S
C2582 C2583 1.400 . S
C2583 C2582 1.400 . S
C2583 C2584 1.398 . S
C2583 C2589 1.491 . S
C2584 H2575 0.950 . S
C2584 C2583 1.398 . S
C2584 C2585 1.391 . S
C2585 H2573 0.950 . S
C2585 C2581 1.393 . S
C2585 C2584 1.391 . S
C2586 H2576 0.950 . S
C2586 C2587 1.386 . S
C2586 C2588 1.391 . S
C2587 C2586 1.386 . S
C2587 C2591 1.393 . S
C2588 H2577 0.950 . S
C2588 C2586 1.391 . S
C2588 C2589 1.400 . S
C2589 C2583 1.491 . S
C2589 C2588 1.400 . S
C2589 C2590 1.398 . S
C2590 H2578 0.950 . S
C2590 C2589 1.398 . S
C2590 C2591 1.391 . S
C2591 H2579 0.950 . S
C2591 C2587 1.393 . S
C2591 C2590 1.391 . S
C681 C134 1.594 . S
C687 C8 1.586 . S
C701 C148 1.590 . S
C707 C22 1.596 . S
C721 C162 1.571 . S
C727 C36 1.567 . S
C741 C50 1.590 . S
C747 C120 1.596 . S
C761 C218 1.572 . S
C767 C64 1.580 . S
C781 C78 1.573 . S
C787 C176 1.582 . S
C801 C190 1.567 . S
C807 C92 1.572 . S
C821 C204 1.572 . S
C827 C106 1.581 . S
C841 C232 1.587 . S
C847 C260 1.595 . S
C861 C246 1.574 . S
C867 C316 1.583 . S
C881 C274 1.585 . S
C887 C330 1.576 . S
C901 C288 1.590 . S
C907 C302 1.596 . S
C921 C344 1.568 . S
C927 C470 1.573 . S
C941 C484 1.592 . S
C947 C358 1.597 . S
C961 C372 1.583 . S
C967 C498 1.591 . S
C981 C386 1.596 . S
C987 C456 1.597 . S
C1001 C554 1.568 . S
C1007 C400 1.568 . S
C1021 C512 1.591 . S
C1027 C414 1.597 . S
C1041 C526 1.569 . S
C1047 C428 1.576 . S
C1061 C540 1.587 . S
C1067 C442 1.594 . S
C1081 C568 1.596 . S
C1087 C596 1.589 . S
C1101 C582 1.579 . S
C1107 C652 1.571 . S
C1121 C610 1.590 . S
C1127 C666 1.581 . S
C1141 C638 1.596 . S
C1147 C624 1.597 . S
C1161 C121 1.126 . S
C1167 C3 1.238 . S
C1181 C135 1.136 . S
C1187 C17 1.237 . S
C1201 C31 1.237 . S
C1207 C149 1.139 . S
C1221 C45 1.239 . S
C1227 C163 1.093 . S
C1241 C59 1.239 . S
C1247 C177 1.086 . S
C1261 C73 1.237 . S
C1267 C191 1.137 . S
C1281 C87 1.237 . S
C1287 C205 1.104 . S
C1301 C219 1.133 . S
C1307 C101 1.238 . S
C1321 C115 1.239 . S
C1327 C233 1.089 . S
C1341 C331 1.111 . S
C1347 C129 1.239 . S
C1361 C143 1.239 . S
C1367 C303 1.087 . S
C1381 C157 1.236 . S
C1387 C317 1.128 . S
C1401 C171 1.236 . S
C1407 C247 1.111 . S
C1421 C185 1.238 . S
C1427 C261 1.088 . S
C1441 C199 1.239 . S
C1447 C275 1.104 . S
C1461 C289 1.139 . S
C1467 C213 1.237 . S
C1481 C9 1.119 . S
C1487 C227 1.236 . S
C1501 C241 1.236 . S
C1507 C65 1.139 . S
C1521 C255 1.238 . S
C1527 C79 1.126 . S
C1541 C269 1.238 . S
C1547 C93 1.131 . S
C1561 C107 1.137 . S
C1567 C283 1.237 . S
C1581 C297 1.237 . S
C1587 C37 1.138 . S
C1601 C311 1.237 . S
C1607 C51 1.137 . S
C1621 C23 1.090 . S
C1627 C325 1.238 . S
C1641 C457 1.106 . S
C1647 C339 1.239 . S
C1661 C353 1.239 . S
C1667 C471 1.093 . S
C1681 C367 1.236 . S
C1687 C485 1.139 . S
C1701 C499 1.120 . S
C1707 C381 1.236 . S
C1721 C513 1.106 . S
C1727 C395 1.239 . S
C1741 C409 1.236 . S
C1747 C527 1.115 . S
C1761 C541 1.086 . S
C1767 C423 1.239 . S
C1781 C555 1.134 . S
C1787 C437 1.238 . S
C1801 C451 1.238 . S
C1807 C569 1.132 . S
C1821 C465 1.237 . S
C1827 C667 1.097 . S
C1841 C479 1.236 . S
C1847 C639 1.125 . S
C1861 C653 1.099 . S
C1867 C493 1.237 . S
C1881 C507 1.236 . S
C1887 C583 1.131 . S
C1901 C521 1.237 . S
C1907 C597 1.101 . S
C1921 C611 1.138 . S
C1927 C535 1.237 . S
C1941 C625 1.116 . S
C1947 C549 1.236 . S
C1961 C563 1.236 . S
C1967 C345 1.123 . S
C1981 C577 1.237 . S
C1987 C401 1.139 . S
C2001 C415 1.093 . S
C2007 C591 1.239 . S
C2021 C605 1.239 . S
C2027 C429 1.091 . S
C2041 C619 1.237 . S
C2047 C443 1.100 . S
C2061 C373 1.127 . S
C2067 C633 1.236 . S
C2081 C647 1.236 . S
C2087 C387 1.136 . S
C2101 C359 1.094 . S
C2107 C661 1.238 . S
C2121 C441 1.368 . S
C2127 C7 1.326 . S
C2141 C21 1.340 . S
C2147 C399 1.352 . S
C2161 C413 1.353 . S
C2167 C35 1.339 . S
C2181 C427 1.343 . S
C2187 C49 1.349 . S
C2201 C63 1.351 . S
C2207 C357 1.346 . S
C2221 C371 1.327 . S
C2227 C77 1.366 . S
C2241 C385 1.360 . S
C2247 C91 1.333 . S
C2261 C105 1.365 . S
C2267 C343 1.328 . S
C2281 C623 1.329 . S
C2287 C119 1.366 . S
C2301 C133 1.344 . S
C2307 C581 1.353 . S
C2321 C147 1.327 . S
C2327 C595 1.368 . S
C2341 C609 1.329 . S
C2347 C161 1.363 . S
C2361 C665 1.326 . S
C2367 C175 1.368 . S
C2381 C637 1.361 . S
C2387 C189 1.336 . S
C2401 C203 1.334 . S
C2407 C651 1.362 . S
C2421 C567 1.327 . S
C2427 C217 1.368 . S
C2441 C231 1.329 . S
C2447 C553 1.364 . S
C2461 C469 1.366 . S
C2467 C245 1.330 . S
C2481 C259 1.329 . S
C2487 C483 1.364 . S
C2501 C497 1.328 . S
C2507 C273 1.367 . S
C2521 C455 1.345 . S
C2527 C287 1.352 . S
C2541 C301 1.349 . S
C2547 C525 1.348 . S
C2561 C539 1.364 . S
C2567 C315 1.329 . S
C2581 C511 1.352 . S
C2587 C329 1.345 . S
