# Generated by pormake.
# Topology qtz-e, (6)-cn, num edge types: 1
# Building blocks:
#     Node 0, Type 0, BuildingBlock: BETGAK_clean_sbu_0, # of connection points: 6
#     Node 1, Type 0, BuildingBlock: BETGAK_clean_sbu_0, # of connection points: 6
#     Node 2, Type 0, BuildingBlock: BETGAK_clean_sbu_0, # of connection points: 6
#     Node 3, Type 0, BuildingBlock: BETGAK_clean_sbu_0, # of connection points: 6
#     Node 4, Type 0, BuildingBlock: BETGAK_clean_sbu_0, # of connection points: 6
#     Node 5, Type 0, BuildingBlock: BETGAK_clean_sbu_0, # of connection points: 6
#     Edge 6, Type (0, 0), BuildingBlock: TEMPAE_clean_linker_10, # of connection points: 2
#     Edge 7, Type (0, 0), BuildingBlock: TEMPAE_clean_linker_10, # of connection points: 2
#     Edge 8, Type (0, 0), BuildingBlock: TEMPAE_clean_linker_10, # of connection points: 2
#     Edge 9, Type (0, 0), BuildingBlock: TEMPAE_clean_linker_10, # of connection points: 2
#     Edge 10, Type (0, 0), BuildingBlock: TEMPAE_clean_linker_10, # of connection points: 2
#     Edge 11, Type (0, 0), BuildingBlock: TEMPAE_clean_linker_10, # of connection points: 2
#     Edge 12, Type (0, 0), BuildingBlock: TEMPAE_clean_linker_10, # of connection points: 2
#     Edge 13, Type (0, 0), BuildingBlock: TEMPAE_clean_linker_10, # of connection points: 2
#     Edge 14, Type (0, 0), BuildingBlock: TEMPAE_clean_linker_10, # of connection points: 2
#     Edge 15, Type (0, 0), BuildingBlock: TEMPAE_clean_linker_10, # of connection points: 2
#     Edge 16, Type (0, 0), BuildingBlock: TEMPAE_clean_linker_10, # of connection points: 2
#     Edge 17, Type (0, 0), BuildingBlock: TEMPAE_clean_linker_10, # of connection points: 2
#     Edge 18, Type (0, 0), BuildingBlock: TEMPAE_clean_linker_10, # of connection points: 2
#     Edge 19, Type (0, 0), BuildingBlock: TEMPAE_clean_linker_10, # of connection points: 2
#     Edge 20, Type (0, 0), BuildingBlock: TEMPAE_clean_linker_10, # of connection points: 2
#     Edge 21, Type (0, 0), BuildingBlock: TEMPAE_clean_linker_10, # of connection points: 2
#     Edge 22, Type (0, 0), BuildingBlock: TEMPAE_clean_linker_10, # of connection points: 2
#     Edge 23, Type (0, 0), BuildingBlock: TEMPAE_clean_linker_10, # of connection points: 2
# Relax obj value: 0.184
# Max RMSD: 0.209
# Mean RMSD: 0.209
data_MOF--net-qtz-e--node1-BETGAK_clean_sbu_0--edge1-TEMPAE_clean_linker_10
_symmetry_space_group_name_H-M    P1
_symmetry_Int_Tables_number       1
_symmetry_cell_setting            triclinic
loop_
_symmetry_equiv_pos_as_xyz
'x, y, z'
_cell_length_a     25.755792
_cell_length_b     25.85237
_cell_length_c     52.4645
_cell_angle_alpha  89.910409
_cell_angle_beta   90.27888
_cell_angle_gamma 120.083
loop_
_atom_site_label
_atom_site_type_symbol
_atom_site_fract_x
_atom_site_fract_y
_atom_site_fract_z
_atom_type_partial_charge
La0 La 0.19915 0.50104 0.18676 0.0
La1 La 0.12814 0.37981 0.16011 0.0
C2 C 0.24135 0.60377 0.20526 0.0
C3 C 0.25352 0.62641 0.23163 0.0
C4 C 0.30786 0.67802 0.2377 0.0
C5 C 0.3203 0.69901 0.26282 0.0
C6 C 0.27844 0.66873 0.2823 0.0
C7 C 0.22409 0.61688 0.27608 0.0
C8 C 0.21191 0.59579 0.25107 0.0
C9 C 0.24678 0.43033 0.19024 0.0
C10 C 0.10794 0.38856 0.2184 0.0
C11 C 0.09704 0.2892 0.1323 0.0
C12 C 0.11981 0.27776 0.10838 0.0
C13 C 0.08144 0.22896 0.09297 0.0
C14 C 0.10064 0.22059 0.06916 0.0
C15 C 0.15845 0.26133 0.06016 0.0
C16 C 0.19712 0.30964 0.07585 0.0
C17 C 0.17806 0.31751 0.09975 0.0
C18 C 0.07449 0.44452 0.16399 0.0
C19 C 0.22339 0.4944 0.12866 0.0
O20 O 0.27503 0.58281 0.19676 0.0
O21 O 0.18453 0.56955 0.19909 0.0
O22 O 0.24851 0.46598 0.20805 0.0
O23 O 0.21819 0.43592 0.1721 0.0
O24 O 0.13204 0.44689 0.215 0.0
O25 O 0.10857 0.35316 0.20021 0.0
O26 O 0.07514 0.32502 0.13008 0.0
O27 O 0.13082 0.30113 0.15275 0.0
O28 O 0.04646 0.38655 0.16511 0.0
O29 O 0.12847 0.46188 0.15999 0.0
O30 O 0.18968 0.43545 0.13007 0.0
O31 O 0.22996 0.53005 0.14796 0.0
H32 H 0.34079 0.70192 0.22301 0.0
H33 H 0.36286 0.73866 0.267 0.0
H34 H 0.19035 0.59299 0.29047 0.0
H35 H 0.16972 0.55563 0.24696 0.0
H36 H 0.03614 0.19794 0.09914 0.0
H37 H 0.0696 0.18317 0.05747 0.0
H38 H 0.24215 0.34129 0.06965 0.0
H39 H 0.20857 0.3551 0.11133 0.0
La40 La 0.81957 0.29718 0.42592 0.0
La41 La 0.88193 0.23146 0.44691 0.0
C42 C 0.80562 0.37711 0.40524 0.0
C43 C 0.80653 0.39662 0.37883 0.0
C44 C 0.75992 0.40545 0.37033 0.0
C45 C 0.75727 0.42 0.34494 0.0
C46 C 0.80146 0.42634 0.32753 0.0
C47 C 0.84862 0.41813 0.33617 0.0
C48 C 0.85109 0.40328 0.36159 0.0
C49 C 0.75139 0.18136 0.42611 0.0
C50 C 0.90169 0.26633 0.38928 0.0
C51 C 0.89593 0.15558 0.47155 0.0
C52 C 0.87971 0.13179 0.49803 0.0
C53 C 0.91837 0.16163 0.51867 0.0
C54 C 0.90281 0.13958 0.54356 0.0
C55 C 0.84833 0.08684 0.54854 0.0
C56 C 0.80957 0.05706 0.5279 0.0
C57 C 0.82507 0.07917 0.503 0.0
C58 C 0.94314 0.34902 0.44914 0.0
C59 C 0.79643 0.25883 0.4827 0.0
O60 O 0.76119 0.32374 0.41069 0.0
O61 O 0.85681 0.38686 0.41494 0.0
O62 O 0.73147 0.21849 0.42653 0.0
O63 O 0.80755 0.20947 0.42235 0.0
O64 O 0.87028 0.29359 0.39308 0.0
O65 O 0.90963 0.23491 0.40737 0.0
O66 O 0.93792 0.21167 0.46912 0.0
O67 O 0.85145 0.14126 0.45558 0.0
O68 O 0.96796 0.31635 0.44589 0.0
O69 O 0.88807 0.31532 0.45258 0.0
O70 O 0.82751 0.23145 0.47883 0.0
O71 O 0.79254 0.29396 0.46536 0.0
H72 H 0.72486 0.39996 0.38328 0.0
H73 H 0.71981 0.42502 0.33882 0.0
H74 H 0.88373 0.42337 0.32332 0.0
H75 H 0.8875 0.39651 0.36766 0.0
H76 H 0.96093 0.20209 0.51564 0.0
H77 H 0.93416 0.16333 0.55888 0.0
H78 H 0.76691 0.01676 0.53101 0.0
H79 H 0.79408 0.055 0.48763 0.0
La80 La 0.52023 0.70973 0.85337 0.0
La81 La 0.64422 0.76364 0.82841 0.0
C82 C 0.41769 0.64368 0.87114 0.0
C83 C 0.39749 0.63007 0.89771 0.0
C84 C 0.34371 0.62665 0.90517 0.0
C85 C 0.32638 0.61707 0.93076 0.0
C86 C 0.36281 0.61097 0.94921 0.0
C87 C 0.41637 0.6139 0.94155 0.0
C88 C 0.43362 0.62353 0.9161 0.0
C89 C 0.58826 0.82809 0.85694 0.0
C90 C 0.63325 0.73715 0.88699 0.0
C91 C 0.73402 0.82443 0.80039 0.0
C92 C 0.74333 0.85588 0.77564 0.0
C93 C 0.79666 0.90986 0.77115 0.0
C94 C 0.80714 0.93844 0.7474 0.0
C95 C 0.76423 0.91383 0.72765 0.0
C96 C 0.7104 0.86025 0.73238 0.0
C97 C 0.70024 0.83149 0.756 0.0
C98 C 0.58189 0.6459 0.83338 0.0
C99 C 0.52946 0.7429 0.79545 0.0
O100 O 0.43674 0.69892 0.86389 0.0
O101 O 0.45313 0.62384 0.86364 0.0
O102 O 0.55189 0.79352 0.87447 0.0
O103 O 0.58508 0.79435 0.83915 0.0
O104 O 0.57507 0.70125 0.88296 0.0
O105 O 0.66952 0.77289 0.86889 0.0
O106 O 0.7013 0.76603 0.79958 0.0
O107 O 0.72088 0.84686 0.82014 0.0
O108 O 0.64001 0.67699 0.83496 0.0
O109 O 0.5632 0.68069 0.82797 0.0
O110 O 0.58848 0.76715 0.79752 0.0
O111 O 0.49259 0.71439 0.81451 0.0
H112 H 0.31557 0.63214 0.89128 0.0
H113 H 0.28505 0.61542 0.93617 0.0
H114 H 0.4448 0.60825 0.95522 0.0
H115 H 0.47544 0.62607 0.91087 0.0
H116 H 0.83062 0.92959 0.78593 0.0
H117 H 0.84885 0.9799 0.7445 0.0
H118 H 0.67671 0.83952 0.71756 0.0
H119 H 0.65901 0.78952 0.75865 0.0
La120 La 0.71319 0.52933 0.09271 0.0
La121 La 0.76547 0.65143 0.11855 0.0
C122 C 0.64905 0.42766 0.07371 0.0
C123 C 0.63522 0.40795 0.0469 0.0
C124 C 0.64059 0.35953 0.0383 0.0
C125 C 0.63013 0.34232 1.01265 0.0
C126 C 0.61393 0.37319 0.99512 0.0
C127 C 0.60841 0.42157 1.00388 0.0
C128 C 0.61917 0.43891 0.02942 0.0
C129 C 0.83156 0.60044 0.08771 0.0
C130 C 0.73418 0.64093 0.0604 0.0
C131 C 0.82475 0.74227 0.14648 0.0
C132 C 0.8591 0.75462 0.17062 0.0
C133 C 0.86613 0.80147 0.18641 0.0
C134 C 0.89348 0.8104 0.21043 0.0
C135 C 0.91375 0.77213 0.21932 0.0
C136 C 0.90748 0.72577 0.20326 0.0
C137 C 0.88079 0.7174 0.17911 0.0
C138 C 0.64668 0.58615 0.11548 0.0
C139 C 0.75172 0.53827 0.14995 0.0
O140 O 0.70475 0.44768 0.081 0.0
O141 O 0.62765 0.46122 0.08197 0.0
O142 O 0.79593 0.56387 0.0704 0.0
O143 O 0.79885 0.59561 0.1062 0.0
O144 O 0.69937 0.58293 0.06444 0.0
O145 O 0.77116 0.67727 0.07829 0.0
O146 O 0.76696 0.70576 0.14853 0.0
O147 O 0.84685 0.73074 0.12616 0.0
O148 O 0.67666 0.64397 0.11359 0.0
O149 O 0.68339 0.56899 0.11968 0.0
O150 O 0.77529 0.59702 0.14823 0.0
O151 O 0.721 0.50141 0.1311 0.0
H152 H 0.65349 0.33542 0.05138 0.0
H153 H 0.6355 0.30532 1.00649 0.0
H154 H 0.59504 0.44572 0.99105 0.0
H155 H 0.615 0.47672 0.03542 0.0
H156 H 0.84934 0.8305 0.18038 0.0
H157 H 0.89717 0.84625 0.22237 0.0
H158 H 0.92335 0.69608 0.20936 0.0
H159 H 0.87637 0.68142 0.1672 0.0
La160 La 0.31103 0.82876 0.51962 0.0
La161 La 0.24256 0.88487 0.49512 0.0
C162 C 0.3845 0.80145 0.53787 0.0
C163 C 0.3929 0.7878 0.56418 0.0
C164 C 0.34803 0.77443 0.58231 0.0
C165 C 0.35784 0.76703 0.60789 0.0
C166 C 0.41292 0.7733 0.61583 0.0
C167 C 0.45755 0.7861 0.59749 0.0
C168 C 0.44758 0.79336 0.57185 0.0
C169 C 0.19253 0.76016 0.51832 0.0
C170 C 0.26823 0.8983 0.55543 0.0
C171 C 0.16134 0.89849 0.47524 0.0
C172 C 0.13499 0.88324 0.44917 0.0
C173 C 0.17172 0.89625 0.42759 0.0
C174 C 0.14655 0.87967 0.40315 0.0
C175 C 0.08384 0.84887 0.39954 0.0
C176 C 0.0472 0.83524 0.42129 0.0
C177 C 0.0725 0.85234 0.44575 0.0
C178 C 0.36014 0.94825 0.49147 0.0
C179 C 0.28921 0.8193 0.45967 0.0
O180 O 0.3339 0.76278 0.52692 0.0
O181 O 0.39695 0.85659 0.53434 0.0
O182 O 0.22668 0.76107 0.5368 0.0
O183 O 0.22617 0.79698 0.50195 0.0
O184 O 0.30067 0.87201 0.55291 0.0
O185 O 0.23945 0.90578 0.53584 0.0
O186 O 0.21745 0.94159 0.47702 0.0
O187 O 0.15026 0.8529 0.48987 0.0
O188 O 0.3236 0.95162 0.47536 0.0
O189 O 0.33051 0.91587 0.50992 0.0
O190 O 0.24886 0.83594 0.46295 0.0
O191 O 0.32283 0.81857 0.47873 0.0
H192 H 0.30574 0.77075 0.57677 0.0
H193 H 0.32235 0.75659 0.62145 0.0
H194 H 0.5008 0.79215 0.60305 0.0
H195 H 0.483 0.80467 0.55813 0.0
H196 H 0.22011 0.91918 0.42956 0.0
H197 H 0.17656 0.89182 0.38705 0.0
H198 H 0.9988 0.81058 0.41951 0.0
H199 H 0.04313 0.8408 0.46207 0.0
La200 La 0.49373 0.18723 0.75984 0.0
La201 La 0.3683 0.13378 0.78355 0.0
C202 C 0.5824 0.19036 0.73851 0.0
C203 C 0.59951 0.18963 0.71187 0.0
C204 C 0.65892 0.22798 0.70447 0.0
C205 C 0.67506 0.23242 0.67887 0.0
C206 C 0.63185 0.19891 0.66011 0.0
C207 C 0.57267 0.15893 0.66774 0.0
C208 C 0.55668 0.15425 0.6934 0.0
C209 C 0.45275 0.26086 0.75946 0.0
C210 C 0.37398 0.10662 0.7258 0.0
C211 C 0.28029 0.12175 0.80911 0.0
C212 C 0.27538 0.14564 0.83417 0.0
C213 C 0.30271 0.13858 0.85616 0.0
C214 C 0.29537 0.15866 0.87991 0.0
C215 C 0.26106 0.18701 0.88235 0.0
C216 C 0.23565 0.19598 0.86009 0.0
C217 C 0.24252 0.17529 0.83634 0.0
C218 C 0.42248 0.07009 0.78653 0.0
C219 C 0.48716 0.2216 0.81602 0.0
O220 O 0.58076 0.23827 0.7453 0.0
O221 O 0.53639 0.14107 0.74714 0.0
O222 O 0.50909 0.27707 0.75759 0.0
O223 O 0.42081 0.20439 0.75748 0.0
O224 O 0.43337 0.13634 0.72817 0.0
O225 O 0.33791 0.10161 0.74482 0.0
O226 O 0.29931 0.08337 0.80944 0.0
O227 O 0.30425 0.16027 0.79049 0.0
O228 O 0.36472 0.04631 0.78407 0.0
O229 O 0.44497 0.12527 0.78848 0.0
O230 O 0.42844 0.19683 0.81257 0.0
O231 O 0.5218 0.21579 0.79903 0.0
H232 H 0.69266 0.25541 0.71846 0.0
H233 H 0.72139 0.26251 0.67375 0.0
H234 H 0.53831 0.13248 0.65383 0.0
H235 H 0.51064 0.12382 0.6987 0.0
H236 H 0.32907 0.11662 0.85516 0.0
H237 H 0.3153 0.15024 0.89646 0.0
H238 H 0.21019 0.21887 0.86095 0.0
H239 H 0.22169 0.18207 0.81966 0.0
C240 C 0.24568 0.78005 0.41685 0.0
C241 C 0.29308 0.79714 0.43425 0.0
C242 C 0.24781 0.75928 0.3925 0.0
C243 C 0.29891 0.75601 0.38522 0.0
C244 C 0.34705 0.77323 0.40265 0.0
C245 C 0.3434 0.79332 0.4271 0.0
C246 C 0.19527 0.74096 0.37458 0.0
C247 C 0.40247 0.77091 0.39538 0.0
C248 C 0.27208 0.65215 0.32959 0.0
C249 C 0.29011 0.69183 0.30889 0.0
C250 C 0.27705 0.67272 0.3547 0.0
C251 C 0.30133 0.73457 0.35924 0.0
C252 C 0.32245 0.7752 0.33859 0.0
C253 C 0.31631 0.75333 0.31364 0.0
C254 C 0.25369 0.62797 0.37623 0.0
C255 C 0.34888 0.84154 0.34272 0.0
H256 H 0.20636 0.7824 0.42231 0.0
H257 H 0.38027 0.80687 0.44045 0.0
H258 H 0.21006 0.76988 0.35742 0.0
H259 H 0.17772 0.69426 0.36807 0.0
H260 H 0.15804 0.74418 0.3836 0.0
H261 H 0.43609 0.78627 0.41107 0.0
H262 H 0.39007 0.72456 0.39012 0.0
H263 H 0.4236 0.79936 0.37841 0.0
H264 H 0.25294 0.60469 0.32613 0.0
H265 H 0.32987 0.7843 0.2978 0.0
H266 H 0.21397 0.62704 0.38487 0.0
H267 H 0.28817 0.6413 0.39143 0.0
H268 H 0.24043 0.58208 0.36973 0.0
H269 H 0.31316 0.85063 0.34903 0.0
H270 H 0.36943 0.86765 0.32511 0.0
H271 H 0.38351 0.85767 0.35797 0.0
C272 C 0.68818 0.26415 0.62322 0.0
C273 C 0.64854 0.2069 0.63272 0.0
C274 C 0.70751 0.27251 0.59788 0.0
C275 C 0.68596 0.22252 0.58146 0.0
C276 C 0.6438 0.16492 0.5905 0.0
C277 C 0.62581 0.15771 0.6161 0.0
C278 C 0.75309 0.33455 0.58901 0.0
C279 C 0.61931 0.11069 0.57339 0.0
C280 C 0.71696 0.25627 0.51082 0.0
C281 C 0.76795 0.25075 0.50778 0.0
C282 C 0.68837 0.24537 0.53458 0.0
C283 C 0.71239 0.23001 0.55572 0.0
C284 C 0.76384 0.22436 0.55263 0.0
C285 C 0.79053 0.23414 0.52865 0.0
C286 C 0.63259 0.25016 0.53708 0.0
C287 C 0.79119 0.20843 0.57467 0.0
H288 H 0.70474 0.30259 0.63573 0.0
H289 H 0.59532 0.11329 0.62327 0.0
H290 H 0.79567 0.33587 0.58421 0.0
H291 H 0.73699 0.34618 0.57146 0.0
H292 H 0.76274 0.36914 0.60371 0.0
H293 H 0.58196 0.07041 0.58244 0.0
H294 H 0.60302 0.11933 0.55514 0.0
H295 H 0.65554 0.101 0.5687 0.0
H296 H 0.69875 0.26788 0.49454 0.0
H297 H 0.82979 0.22944 0.52634 0.0
H298 H 0.64101 0.28661 0.55055 0.0
H299 H 0.59548 0.20809 0.54504 0.0
H300 H 0.6178 0.25924 0.51851 0.0
H301 H 0.80016 0.23925 0.59092 0.0
H302 H 0.8339 0.21056 0.56934 0.0
H303 H 0.75937 0.16251 0.58135 0.0
C304 C 0.27729 0.4917 0.09021 0.0
C305 C 0.25312 0.52031 0.1044 0.0
C306 C 0.29966 0.51137 0.0657 0.0
C307 C 0.29674 0.56022 0.05509 0.0
C308 C 0.27458 0.59084 0.06981 0.0
C309 C 0.25342 0.57072 0.09451 0.0
C310 C 0.32421 0.47843 0.05081 0.0
C311 C 0.27048 0.64284 0.05902 0.0
C312 C 0.38797 0.63067 0.99559 0.0
C313 C 0.34507 0.60083 0.97636 0.0
C314 C 0.37269 0.6188 1.02138 0.0
C315 C 0.31305 0.57639 0.02804 0.0
C316 C 0.26926 0.54706 1.00875 0.0
C317 C 0.28584 0.55963 0.98311 0.0
C318 C 0.4206 0.6505 0.04147 0.0
C319 C 0.20527 0.50113 1.01517 0.0
H320 H 0.27815 0.4535 0.09821 0.0
H321 H 0.23441 0.59255 0.10558 0.0
H322 H 0.29368 0.45423 0.03465 0.0
H323 H 0.36862 0.51039 0.04265 0.0
H324 H 0.32912 0.44561 0.06275 0.0
H325 H 0.25615 0.66435 0.07353 0.0
H326 H 0.31445 0.67693 0.0512 0.0
H327 H 0.23766 0.62707 0.04305 0.0
H328 H 0.43367 0.66313 0.99043 0.0
H329 H 0.25279 0.53589 0.96832 0.0
H330 H 0.42657 0.61737 0.05266 0.0
H331 H 0.4067 0.67418 0.055 0.0
H332 H 0.46453 0.68336 0.03311 0.0
H333 H 0.20409 0.46193 0.02442 0.0
H334 H 0.17585 0.48542 0.99803 0.0
H335 H 0.18655 0.52003 0.02891 0.0
C336 C 0.77964 0.48224 0.2942 0.0
C337 C 0.79763 0.44077 0.30042 0.0
C338 C 0.77308 0.49448 0.26876 0.0
C339 C 0.78556 0.46509 0.24901 0.0
C340 C 0.80513 0.42424 0.25508 0.0
C341 C 0.81055 0.41225 0.28075 0.0
C342 C 0.75272 0.53888 0.26302 0.0
C343 C 0.82002 0.39305 0.23449 0.0
C344 C 0.71564 0.4631 0.18495 0.0
C345 C 0.76207 0.51441 0.17365 0.0
C346 C 0.72332 0.44494 0.20923 0.0
C347 C 0.77906 0.47843 0.22206 0.0
C348 C 0.82714 0.52811 0.20993 0.0
C349 C 0.81787 0.54572 0.1859 0.0
C350 C 0.67088 0.39206 0.22173 0.0
C351 C 0.8876 0.56398 0.22277 0.0
H352 H 0.77084 0.5054 0.30927 0.0
H353 H 0.8239 0.37973 0.28541 0.0
H354 H 0.78768 0.57698 0.25198 0.0
H355 H 0.71144 0.51745 0.25111 0.0
H356 H 0.74339 0.55668 0.28059 0.0
H357 H 0.83746 0.3648 0.24242 0.0
H358 H 0.77934 0.36436 0.22295 0.0
H359 H 0.85404 0.42641 0.22138 0.0
H360 H 0.67251 0.43902 0.17538 0.0
H361 H 0.85419 0.58439 0.17674 0.0
H362 H 0.65599 0.40758 0.23841 0.0
H363 H 0.68442 0.36014 0.22889 0.0
H364 H 0.63223 0.36808 0.20848 0.0
H365 H 0.88324 0.58602 0.2401 0.0
H366 H 0.92137 0.59896 0.2101 0.0
H367 H 0.90459 0.53408 0.22893 0.0
C368 C 0.44816 0.70664 0.76255 0.0
C369 C 0.50525 0.74996 0.77105 0.0
C370 C 0.4279 0.71053 0.7381 0.0
C371 C 0.4655 0.75922 0.72212 0.0
C372 C 0.52163 0.80487 0.73133 0.0
C373 C 0.54098 0.79945 0.75563 0.0
C374 C 0.36756 0.66127 0.72896 0.0
C375 C 0.56254 0.85813 0.71513 0.0
C376 C 0.45457 0.73773 0.6505 0.0
C377 C 0.42423 0.76777 0.6432 0.0
C378 C 0.46726 0.73378 0.6762 0.0
C379 C 0.4488 0.76016 0.69508 0.0
C380 C 0.41727 0.78969 0.68794 0.0
C381 C 0.40552 0.79331 0.66206 0.0
C382 C 0.50142 0.70228 0.6831 0.0
C383 C 0.39719 0.8186 0.70756 0.0
H384 H 0.42043 0.66849 0.77455 0.0
H385 H 0.58461 0.83375 0.76246 0.0
H386 H 0.34087 0.68038 0.72094 0.0
H387 H 0.374 0.63586 0.71347 0.0
H388 H 0.34148 0.62964 0.74447 0.0
H389 H 0.60088 0.89302 0.72629 0.0
H390 H 0.58042 0.84338 0.69927 0.0
H391 H 0.53751 0.87842 0.70653 0.0
H392 H 0.46837 0.71716 0.63608 0.0
H393 H 0.38281 0.81735 0.65654 0.0
H394 H 0.47566 0.66631 0.69713 0.0
H395 H 0.54481 0.73438 0.6922 0.0
H396 H 0.5107 0.68234 0.66622 0.0
H397 H 0.36973 0.78559 0.72238 0.0
H398 H 0.3705 0.83722 0.69898 0.0
H399 H 0.43688 0.85531 0.71731 0.0
C400 C 0.62041 0.39743 0.9484 0.0
C401 C 0.60172 0.35453 0.9679 0.0
C402 C 0.60642 0.38033 0.92276 0.0
C403 C 0.57342 0.31886 0.91645 0.0
C404 C 0.55559 0.27536 0.93594 0.0
C405 C 0.56977 0.29371 0.96141 0.0
C406 C 0.62596 0.42798 0.90248 0.0
C407 C 0.51996 0.20934 0.92997 0.0
C408 C 0.47778 0.26579 0.85667 0.0
C409 C 0.51245 0.25176 0.84064 0.0
C410 C 0.49818 0.2898 0.881 0.0
C411 C 0.55452 0.29964 0.88966 0.0
C412 C 0.59071 0.28747 0.87329 0.0
C413 C 0.56932 0.26386 0.84887 0.0
C414 C 0.45861 0.30306 0.89768 0.0
C415 C 0.65095 0.29722 0.88194 0.0
H416 H 0.64594 0.44453 0.95318 0.0
H417 H 0.55434 0.26027 0.97633 0.0
H418 H 0.65322 0.42151 0.88789 0.0
H419 H 0.58604 0.42426 0.8926 0.0
H420 H 0.65269 0.4738 0.91048 0.0
H421 H 0.51257 0.18124 0.94712 0.0
H422 H 0.47561 0.19808 0.92189 0.0
H423 H 0.54348 0.19765 0.91541 0.0
H424 H 0.43396 0.25701 0.85039 0.0
H425 H 0.59629 0.25305 0.8366 0.0
H426 H 0.48276 0.35093 0.90322 0.0
H427 H 0.44775 0.27652 0.91549 0.0
H428 H 0.41598 0.29279 0.88804 0.0
H429 H 0.6792 0.34339 0.88928 0.0
H430 H 0.67541 0.28961 0.86635 0.0
H431 H 0.64463 0.26623 0.89782 0.0
C432 C 0.35471 0.46271 0.19725 0.0
C433 C 0.301 0.42721 0.18394 0.0
C434 C 0.41025 0.47982 0.18586 0.0
C435 C 0.41174 0.46092 0.16066 0.0
C436 C 0.35762 0.41947 0.14841 0.0
C437 C 0.30285 0.40246 0.16041 0.0
C438 C 0.46714 0.52269 0.19986 0.0
C439 C 0.35711 0.39775 0.12166 0.0
C440 C 0.54516 0.57449 0.12221 0.0
C441 C 0.58357 0.55098 0.12371 0.0
C442 C 0.48775 0.54399 0.13316 0.0
C443 C 0.46915 0.48948 0.14632 0.0
C444 C 0.50688 0.46441 0.14691 0.0
C445 C 0.56339 0.49519 0.13537 0.0
C446 C 0.44779 0.57111 0.13142 0.0
C447 C 0.48887 0.40661 0.16075 0.0
H448 H 0.35369 0.48165 0.21554 0.0
H449 H 0.26131 0.3743 0.15028 0.0
H450 H 0.50086 0.50812 0.19839 0.0
H451 H 0.48677 0.56762 0.19101 0.0
H452 H 0.45889 0.52668 0.22033 0.0
H453 H 0.31275 0.35902 0.11645 0.0
H454 H 0.36768 0.43449 0.108 0.0
H455 H 0.39186 0.38477 0.11943 0.0
H456 H 0.56053 0.61733 0.11304 0.0
H457 H 0.5929 0.47665 0.13651 0.0
H458 H 0.44079 0.58386 0.15075 0.0
H459 H 0.40307 0.53789 0.12373 0.0
H460 H 0.46712 0.61141 0.11907 0.0
H461 H 0.48713 0.41338 0.18154 0.0
H462 H 0.52082 0.39032 0.15738 0.0
H463 H 0.44338 0.37139 0.15472 0.0
C464 C 0.11902 0.6982 0.48484 0.0
C465 C 0.13999 0.70343 0.50998 0.0
C466 C 0.08226 0.64199 0.47376 0.0
C467 C 0.06523 0.58991 0.48837 0.0
C468 C 0.08163 0.59512 0.51447 0.0
C469 C 0.11897 0.65197 0.52498 0.0
C470 C 0.06567 0.63852 0.44591 0.0
C471 C 0.06324 0.54055 0.53081 0.0
C472 C 0.94181 0.43817 0.46593 0.0
C473 C 0.97485 0.4126 0.45661 0.0
C474 C 0.97054 0.49647 0.47569 0.0
C475 C 0.0339 0.53006 0.47607 0.0
C476 C 0.06754 0.50535 0.46574 0.0
C477 C 0.03751 0.44666 0.45618 0.0
C478 C 0.93314 0.52129 0.48639 0.0
C479 C 0.13527 0.54032 0.46548 0.0
H480 H 0.13479 0.73791 0.47318 0.0
H481 H 0.1348 0.65581 0.54446 0.0
H482 H 0.09198 0.62329 0.43471 0.0
H483 H 0.01749 0.60555 0.44286 0.0
H484 H 0.07508 0.68252 0.4383 0.0
H485 H 0.07468 0.5522 0.55123 0.0
H486 H 0.01425 0.50919 0.52912 0.0
H487 H 0.08631 0.51662 0.52409 0.0
H488 H 0.89325 0.41196 0.46632 0.0
H489 H 0.06306 0.42699 0.4489 0.0
H490 H 0.94644 0.56533 0.47769 0.0
H491 H 0.94116 0.52849 0.50722 0.0
H492 H 0.88436 0.49093 0.48307 0.0
H493 H 0.15128 0.58395 0.45585 0.0
H494 H 0.15463 0.5159 0.45562 0.0
H495 H 0.15266 0.54985 0.48533 0.0
C496 C 0.4274 0.97717 0.79527 0.0
C497 C 0.45502 0.03951 0.7948 0.0
C498 C 0.45783 0.94921 0.80535 0.0
C499 C 0.5165 0.98467 0.81557 0.0
C500 C 0.54496 0.04758 0.81448 0.0
C501 C 0.51411 0.07414 0.80388 0.0
C502 C 0.42685 0.88182 0.80556 0.0
C503 C 0.60726 0.0869 0.82522 0.0
C504 C 0.55754 0.90399 0.86492 0.0
C505 C 0.58854 0.88357 0.84995 0.0
C506 C 0.53684 0.94024 0.85429 0.0
C507 C 0.54724 0.95586 0.82816 0.0
C508 C 0.58395 0.94064 0.81378 0.0
C509 C 0.60516 0.90557 0.82504 0.0
C510 C 0.49962 0.95757 0.87047 0.0
C511 C 0.59613 0.95627 0.78586 0.0
H512 H 0.38193 0.95041 0.78812 0.0
H513 H 0.53596 0.12244 0.80344 0.0
H514 H 0.42001 0.86551 0.82552 0.0
H515 H 0.3826 0.86084 0.79574 0.0
H516 H 0.45542 0.86669 0.79612 0.0
H517 H 0.62371 0.1352 0.82215 0.0
H518 H 0.60734 0.07884 0.846 0.0
H519 H 0.63931 0.0756 0.81633 0.0
H520 H 0.54506 0.88762 0.88424 0.0
H521 H 0.62974 0.89043 0.81345 0.0
H522 H 0.4521 0.93216 0.86411 0.0
H523 H 0.515 0.00581 0.86818 0.0
H524 H 0.50167 0.94815 0.891 0.0
H525 H 0.55486 0.92737 0.77467 0.0
H526 H 0.63272 0.94946 0.77857 0.0
H527 H 0.60825 0.00332 0.78238 0.0
C528 C 0.48732 0.55754 0.81872 0.0
C529 C 0.54608 0.58129 0.82812 0.0
C530 C 0.45539 0.49921 0.80915 0.0
C531 C 0.48299 0.46386 0.80898 0.0
C532 C 0.54024 0.48573 0.82052 0.0
C533 C 0.57141 0.5446 0.82984 0.0
C534 C 0.39434 0.47766 0.79734 0.0
C535 C 0.57035 0.44844 0.8214 0.0
C536 C 0.40981 0.30031 0.79138 0.0
C537 C 0.43524 0.30454 0.76737 0.0
C538 C 0.42064 0.35189 0.8047 0.0
C539 C 0.45707 0.40849 0.79342 0.0
C540 C 0.47561 0.4122 0.7678 0.0
C541 C 0.46445 0.36003 0.75512 0.0
C542 C 0.39833 0.34612 0.83169 0.0
C543 C 0.51315 0.47169 0.75474 0.0
H544 H 0.46732 0.5857 0.81741 0.0
H545 H 0.6165 0.56269 0.83737 0.0
H546 H 0.39923 0.48424 0.7764 0.0
H547 H 0.36381 0.42935 0.80092 0.0
H548 H 0.3732 0.50298 0.80471 0.0
H549 H 0.61141 0.46917 0.83349 0.0
H550 H 0.53907 0.40313 0.82888 0.0
H551 H 0.58304 0.44303 0.80181 0.0
H552 H 0.38699 0.25811 0.80104 0.0
H553 H 0.48425 0.36345 0.73653 0.0
H554 H 0.37871 0.37524 0.83475 0.0
H555 H 0.43656 0.36104 0.84516 0.0
H556 H 0.36413 0.29932 0.83644 0.0
H557 H 0.49316 0.50061 0.75735 0.0
H558 H 0.51777 0.4665 0.734 0.0
H559 H 0.55868 0.49506 0.76342 0.0
C560 C 0.08286 0.53404 0.14246 0.0
C561 C 0.04695 0.47952 0.15506 0.0
C562 C 0.05745 0.56437 0.13026 0.0
C563 C 0.99471 0.54038 0.13122 0.0
C564 C 0.95858 0.48726 0.14527 0.0
C565 C 0.98512 0.45695 0.15678 0.0
C566 C 0.0975 0.62023 0.11523 0.0
C567 C 0.89163 0.46149 0.14749 0.0
C568 C 0.91806 0.62938 0.11662 0.0
C569 C 0.88911 0.60323 0.09353 0.0
C570 C 0.95591 0.61217 0.12853 0.0
C571 C 0.96605 0.56895 0.11668 0.0
C572 C 0.94329 0.54847 0.09183 0.0
C573 C 0.90503 0.56599 0.08047 0.0
C574 C 0.98066 0.63611 0.15474 0.0
C575 C 0.95461 0.50366 0.07824 0.0
H576 H 0.13085 0.55183 0.14108 0.0
H577 H 0.95743 0.4151 0.16664 0.0
H578 H 0.08883 0.6105 0.09457 0.0
H579 H 0.08758 0.65627 0.11975 0.0
H580 H 0.14586 0.63695 0.11896 0.0
H581 H 0.87075 0.42284 0.16076 0.0
H582 H 0.88169 0.49619 0.15433 0.0
H583 H 0.87034 0.4466 0.12845 0.0
H584 H 0.90644 0.65885 0.12658 0.0
H585 H 0.88328 0.54597 0.06251 0.0
H586 H 0.0302 0.65696 0.1548 0.0
H587 H 0.96302 0.59875 0.16862 0.0
H588 H 0.96886 0.66971 0.16133 0.0
H589 H 0.00276 0.51705 0.0794 0.0
H590 H 0.94102 0.49865 0.05785 0.0
H591 H 0.92866 0.45944 0.08763 0.0
C592 C 0.44995 0.9361 0.48584 0.0
C593 C 0.42476 0.97314 0.48675 0.0
C594 C 0.50881 0.95767 0.47732 0.0
C595 C 0.54364 0.01819 0.47002 0.0
C596 C 0.51964 0.0568 0.47244 0.0
C597 C 0.45998 0.03342 0.48025 0.0
C598 C 0.53197 0.91465 0.47464 0.0
C599 C 0.55624 0.12239 0.46583 0.0
C600 C 0.71085 0.1067 0.46045 0.0
C601 C 0.71274 0.11927 0.43438 0.0
C602 C 0.65616 0.06901 0.47253 0.0
C603 C 0.60301 0.04084 0.45773 0.0
C604 C 0.60682 0.04438 0.43081 0.0
C605 C 0.66175 0.0844 0.41944 0.0
C606 C 0.65466 0.06653 0.5013 0.0
C607 C 0.55158 0.01243 0.4142 0.0
H608 H 0.42311 0.88943 0.4903 0.0
H609 H 0.44049 0.0621 0.48092 0.0
H610 H 0.529 0.90146 0.45433 0.0
H611 H 0.57973 0.93567 0.48052 0.0
H612 H 0.5053 0.87347 0.48608 0.0
H613 H 0.53308 0.1473 0.47111 0.0
H614 H 0.60031 0.14312 0.47577 0.0
H615 H 0.56509 0.12753 0.44504 0.0
H616 H 0.75014 0.13181 0.47209 0.0
H617 H 0.66296 0.09383 0.39923 0.0
H618 H 0.62045 0.02174 0.50826 0.0
H619 H 0.64273 0.0995 0.50861 0.0
H620 H 0.69907 0.07797 0.50945 0.0
H621 H 0.52164 0.96626 0.42116 0.0
H622 H 0.56331 0.01038 0.39402 0.0
H623 H 0.52614 0.0366 0.41491 0.0
C624 C 0.19412 0.19941 0.91382 0.0
C625 C 0.24987 0.20473 0.90809 0.0
C626 C 0.18165 0.21249 0.93829 0.0
C627 C 0.22555 0.2306 0.95782 0.0
C628 C 0.28229 0.23727 0.95212 0.0
C629 C 0.29381 0.2246 0.92739 0.0
C630 C 0.12076 0.20536 0.94341 0.0
C631 C 0.3304 0.25628 0.97234 0.0
C632 C 0.20596 0.30304 1.01765 0.0
C633 C 0.17776 0.25409 0.03428 0.0
C634 C 0.22232 0.29636 0.99282 0.0
C635 C 0.21078 0.23941 0.98445 0.0
C636 C 0.18338 0.19013 1.00137 0.0
C637 C 0.16689 0.19797 0.02596 0.0
C638 C 0.25073 0.34998 0.97539 0.0
C639 C 0.17105 0.12886 0.99342 0.0
H640 H 0.15925 0.18322 0.89938 0.0
H641 H 0.33733 0.22989 0.92329 0.0
H642 H 0.09614 0.16859 0.95725 0.0
H643 H 0.12582 0.24678 0.95208 0.0
H644 H 0.09317 0.19521 0.92581 0.0
H645 H 0.37312 0.2622 0.96458 0.0
H646 H 0.33938 0.2989 0.98122 0.0
H647 H 0.31472 0.22215 0.98766 0.0
H648 H 0.21384 0.34638 0.02384 0.0
H649 H 0.14574 0.16013 0.0388 0.0
H650 H 0.22139 0.34185 0.95855 0.0
H651 H 0.2943 0.35709 0.96825 0.0
H652 H 0.25843 0.3915 0.98504 0.0
H653 H 0.13939 0.11259 0.97704 0.0
H654 H 0.15157 0.09571 1.00911 0.0
H655 H 0.21318 0.13118 0.98705 0.0
C656 C 0.97876 0.26583 0.35981 0.0
C657 C 0.92854 0.27255 0.36354 0.0
C658 C 0.00802 0.27868 0.33601 0.0
C659 C 0.98615 0.29801 0.31536 0.0
C660 C 0.9337 0.30193 0.31875 0.0
C661 C 0.90592 0.28955 0.34272 0.0
C662 C 0.06396 0.27426 0.33332 0.0
C663 C 0.90817 0.32177 0.29738 0.0
C664 C 0.09186 0.40192 0.2644 0.0
C665 C 0.0792 0.36344 0.24349 0.0
C666 C 0.06345 0.38077 0.288 0.0
C667 C 0.02064 0.31939 0.29097 0.0
C668 C 0.00855 0.27986 0.27015 0.0
C669 C 0.03819 0.30227 0.2467 0.0
C670 C 0.07832 0.42466 0.30961 0.0
C671 C 0.9628 0.21426 0.2724 0.0
H672 H 0.99671 0.25292 0.37575 0.0
H673 H 0.86671 0.29422 0.34523 0.0
H674 H 0.0608 0.24784 0.31615 0.0
H675 H 0.10334 0.31966 0.33077 0.0
H676 H 0.07205 0.25335 0.35025 0.0
H677 H 0.8625 0.31348 0.30184 0.0
H678 H 0.93784 0.37036 0.29403 0.0
H679 H 0.90597 0.29823 0.2794 0.0
H680 H 0.12403 0.44912 0.26235 0.0
H681 H 0.028 0.27214 0.23071 0.0
H682 H 0.09122 0.40887 0.32689 0.0
H683 H 0.03813 0.42783 0.31447 0.0
H684 H 0.11546 0.47011 0.30477 0.0
H685 H 0.97293 0.19471 0.28921 0.0
H686 H 0.96128 0.18868 0.25514 0.0
H687 H 0.91764 0.2087 0.27536 0.0
C688 C 0.8322 0.96418 0.69025 0.0
C689 C 0.77615 0.94259 0.70194 0.0
C690 C 0.84311 0.98866 0.66555 0.0
C691 C 0.79702 0.99205 0.6521 0.0
C692 C 0.74067 0.97129 0.66396 0.0
C693 C 0.73096 0.94682 0.68864 0.0
C694 C 0.90374 0.00993 0.65363 0.0
C695 C 0.6904 0.97449 0.6505 0.0
C696 C 0.84478 0.10048 0.59601 0.0
C697 C 0.83282 0.06233 0.57503 0.0
C698 C 0.83207 0.07816 0.62107 0.0
C699 C 0.80756 0.01614 0.62547 0.0
C700 C 0.79479 0.97729 0.60439 0.0
C701 C 0.80733 0.00075 0.5795 0.0
C702 C 0.84553 0.12113 0.64289 0.0
C703 C 0.76894 0.91094 0.60815 0.0
H704 H 0.86721 0.96055 0.7002 0.0
H705 H 0.68794 0.93123 0.69763 0.0
H706 H 0.89851 0.98394 0.63604 0.0
H707 H 0.9241 0.05755 0.64802 0.0
H708 H 0.93517 0.00524 0.66672 0.0
H709 H 0.64965 0.95752 0.66251 0.0
H710 H 0.70535 0.02136 0.64503 0.0
H711 H 0.67819 0.94782 0.63267 0.0
H712 H 0.86404 0.148 0.59284 0.0
H713 H 0.7986 0.97089 0.56353 0.0
H714 H 0.88041 0.12133 0.65545 0.0
H715 H 0.80479 0.10649 0.65463 0.0
H716 H 0.86153 0.16751 0.63623 0.0
H717 H 0.80047 0.90282 0.61961 0.0
H718 H 0.76011 0.88651 0.58979 0.0
H719 H 0.72632 0.89204 0.61893 0.0
C720 C 0.71635 0.74903 0.91667 0.0
C721 C 0.65685 0.73534 0.9128 0.0
C722 C 0.73595 0.74075 0.94075 0.0
C723 C 0.69534 0.71907 0.96153 0.0
C724 C 0.63616 0.70823 0.95793 0.0
C725 C 0.6177 0.71614 0.93371 0.0
C726 C 0.79925 0.75248 0.94365 0.0
C727 C 0.59125 0.68573 0.97942 0.0
C728 C 0.70796 0.62416 1.01405 0.0
C729 C 0.7302 0.66395 0.03478 0.0
C730 C 0.6991 0.64235 0.98997 0.0
C731 C 0.71213 0.70195 0.9863 0.0
C732 C 0.73646 0.74304 1.00689 0.0
C733 C 0.7456 0.72367 0.03086 0.0
C734 C 0.67371 0.59689 0.96867 0.0
C735 C 0.75054 0.80681 1.0039 0.0
H736 H 0.7469 0.76383 0.90066 0.0
H737 H 0.57192 0.70644 0.9311 0.0
H738 H 0.82105 0.7807 0.96066 0.0
H739 H 0.7983 0.7095 0.9466 0.0
H740 H 0.82705 0.77487 0.92663 0.0
H741 H 0.54983 0.68683 0.97447 0.0
H742 H 0.57853 0.63895 0.98403 0.0
H743 H 0.61121 0.71288 0.99687 0.0
H744 H 0.69682 0.57814 1.01667 0.0
H745 H 0.76278 0.75473 0.04671 0.0
H746 H 0.70107 0.61495 0.95119 0.0
H747 H 0.62754 0.58697 0.96401 0.0
H748 H 0.67194 0.55433 0.9738 0.0
H749 H 0.7788 0.82736 0.98684 0.0
H750 H 0.77407 0.83456 1.02086 0.0
H751 H 0.70824 0.80759 1.00095 0.0
C752 C 0.08428 0.81542 0.35423 0.0
C753 C 0.05706 0.832 0.37325 0.0
C754 C 0.06141 0.80257 0.32915 0.0
C755 C 0.00936 0.80543 0.3228 0.0
C756 C 0.98057 0.82028 0.34203 0.0
C757 C 0.0049 0.83377 0.36684 0.0
C758 C 0.09382 0.78725 0.30931 0.0
C759 C 0.9246 0.82319 0.33625 0.0
C760 C 0.9827 0.83703 0.25433 0.0
C761 C 0.94016 0.78001 0.24544 0.0
C762 C 0.00647 0.84555 0.27918 0.0
C763 C 0.98668 0.79601 0.29584 0.0
C764 C 0.9441 0.73815 0.28689 0.0
C765 C 0.92172 0.73083 0.26179 0.0
C766 C 0.05248 0.90783 0.28768 0.0
C767 C 0.92103 0.68413 0.304 0.0
H768 H 0.12378 0.81254 0.35887 0.0
H769 H 0.98366 0.84722 0.38108 0.0
H770 H 0.06248 0.74383 0.30019 0.0
H771 H 0.11078 0.82165 0.29408 0.0
H772 H 0.13231 0.78459 0.31747 0.0
H773 H 0.90511 0.83118 0.35363 0.0
H774 H 0.93516 0.85975 0.32249 0.0
H775 H 0.8902 0.78088 0.32724 0.0
H776 H 0.99771 0.87512 0.24173 0.0
H777 H 0.88841 0.68672 0.25516 0.0
H778 H 0.09355 0.9084 0.29459 0.0
H779 H 0.03459 0.92178 0.30381 0.0
H780 H 0.06511 0.94118 0.27212 0.0
H781 H 0.95899 0.68001 0.31168 0.0
H782 H 0.88958 0.642 0.29392 0.0
H783 H 0.89744 0.68956 0.32052 0.0
C784 C 0.28942 0.03072 0.69806 0.0
C785 C 0.34842 0.07863 0.70053 0.0
C786 C 0.26788 0.00056 0.67457 0.0
C787 C 0.30611 0.0188 0.65301 0.0
C788 C 0.36462 0.06903 0.65517 0.0
C789 C 0.38489 0.09813 0.67877 0.0
C790 C 0.2051 0.94758 0.67312 0.0
C791 C 0.40718 0.09052 0.63284 0.0
C792 C 0.29245 0.90797 0.60209 0.0
C793 C 0.26918 0.92384 0.58109 0.0
C794 C 0.30203 0.93664 0.62579 0.0
C795 C 0.2878 0.98251 0.62892 0.0
C796 C 0.26133 0.99672 0.60826 0.0
C797 C 0.25235 0.96727 0.58459 0.0
C798 C 0.33025 0.91967 0.64712 0.0
C799 C 0.24521 0.04509 0.61079 0.0
H800 H 0.26075 0.01534 0.71468 0.0
H801 H 0.43006 0.13592 0.68021 0.0
H802 H 0.18107 0.95132 0.65625 0.0
H803 H 0.20722 0.90602 0.67085 0.0
H804 H 0.1787 0.94326 0.69049 0.0
H805 H 0.44711 0.13518 0.63641 0.0
H806 H 0.42277 0.05825 0.62915 0.0
H807 H 0.38431 0.09308 0.61532 0.0
H808 H 0.30504 0.87402 0.59987 0.0
H809 H 0.23439 0.97999 0.5686 0.0
H810 H 0.30356 0.91016 0.66481 0.0
H811 H 0.37586 0.9576 0.65125 0.0
H812 H 0.33408 0.87987 0.64233 0.0
H813 H 0.21909 0.03863 0.62844 0.0
H814 H 0.21871 0.04608 0.59422 0.0
H815 H 0.28684 0.08923 0.6123 0.0
loop_
_geom_bond_atom_site_label_1
_geom_bond_atom_site_label_2
_geom_bond_distance
_geom_bond_site_symmetry_2
_ccdc_geom_bond_type
La0 C2 2.928 . S
La0 O20 2.521 . S
La0 O21 2.628 . S
La0 O22 2.554 . S
La0 O23 2.757 . S
La0 O24 2.470 . S
La0 O29 2.482 . S
La0 O31 2.503 . S
La1 C11 2.928 . S
La1 O23 2.482 . S
La1 O25 2.503 . S
La1 O26 2.521 . S
La1 O27 2.628 . S
La1 O28 2.554 . S
La1 O29 2.757 . S
La1 O30 2.470 . S
C2 La0 2.928 . S
C2 C3 1.503 . S
C2 O20 1.261 . S
C2 O21 1.243 . S
C3 C2 1.503 . S
C3 C4 1.394 . S
C3 C8 1.373 . S
C4 C3 1.394 . S
C4 C5 1.380 . S
C4 H32 0.930 . S
C5 C4 1.380 . S
C5 C6 1.376 . S
C5 H33 0.930 . S
C6 C5 1.376 . S
C6 C7 1.370 . S
C7 C6 1.370 . S
C7 C8 1.396 . S
C7 H34 0.929 . S
C8 C3 1.373 . S
C8 C7 1.396 . S
C8 H35 0.929 . S
C9 O22 1.240 . S
C9 O23 1.289 . S
C10 O24 1.258 . S
C10 O25 1.256 . S
C11 La1 2.928 . S
C11 C12 1.503 . S
C11 O26 1.261 . S
C11 O27 1.243 . S
C12 C11 1.503 . S
C12 C13 1.394 . S
C12 C17 1.373 . S
C13 C12 1.394 . S
C13 C14 1.380 . S
C13 H36 0.930 . S
C14 C13 1.380 . S
C14 C15 1.376 . S
C14 H37 0.930 . S
C15 C14 1.376 . S
C15 C16 1.370 . S
C16 C15 1.370 . S
C16 C17 1.396 . S
C16 H38 0.929 . S
C17 C12 1.373 . S
C17 C16 1.396 . S
C17 H39 0.929 . S
C18 O28 1.240 . S
C18 O29 1.289 . S
C19 O30 1.258 . S
C19 O31 1.256 . S
O20 La0 2.521 . S
O20 C2 1.261 . S
O21 La0 2.628 . S
O21 C2 1.243 . S
O22 La0 2.554 . S
O22 C9 1.240 . S
O23 La0 2.757 . S
O23 La1 2.482 . S
O23 C9 1.289 . S
O24 La0 2.470 . S
O24 C10 1.258 . S
O25 La1 2.503 . S
O25 C10 1.256 . S
O26 La1 2.521 . S
O26 C11 1.261 . S
O27 La1 2.628 . S
O27 C11 1.243 . S
O28 La1 2.554 . S
O28 C18 1.240 . S
O29 La0 2.482 . S
O29 La1 2.757 . S
O29 C18 1.289 . S
O30 La1 2.470 . S
O30 C19 1.258 . S
O31 La0 2.503 . S
O31 C19 1.256 . S
H32 C4 0.930 . S
H33 C5 0.930 . S
H34 C7 0.929 . S
H35 C8 0.929 . S
H36 C13 0.930 . S
H37 C14 0.930 . S
H38 C16 0.929 . S
H39 C17 0.929 . S
La40 C42 2.928 . S
La40 O60 2.521 . S
La40 O61 2.628 . S
La40 O62 2.554 . S
La40 O63 2.757 . S
La40 O64 2.470 . S
La40 O69 2.482 . S
La40 O71 2.503 . S
La41 C51 2.928 . S
La41 O63 2.482 . S
La41 O65 2.503 . S
La41 O66 2.521 . S
La41 O67 2.628 . S
La41 O68 2.554 1_655 S
La41 O69 2.757 . S
La41 O70 2.470 . S
C42 La40 2.928 . S
C42 C43 1.503 . S
C42 O60 1.261 . S
C42 O61 1.243 . S
C43 C42 1.503 . S
C43 C44 1.394 . S
C43 C48 1.373 . S
C44 C43 1.394 . S
C44 C45 1.380 . S
C44 H72 0.930 . S
C45 C44 1.380 . S
C45 C46 1.376 . S
C45 H73 0.930 . S
C46 C45 1.376 . S
C46 C47 1.370 . S
C47 C46 1.370 . S
C47 C48 1.396 . S
C47 H74 0.929 . S
C48 C43 1.373 . S
C48 C47 1.396 . S
C48 H75 0.929 . S
C49 O62 1.240 . S
C49 O63 1.289 . S
C50 O64 1.258 . S
C50 O65 1.256 . S
C51 La41 2.928 . S
C51 C52 1.503 . S
C51 O66 1.261 . S
C51 O67 1.243 . S
C52 C51 1.503 . S
C52 C53 1.394 . S
C52 C57 1.373 . S
C53 C52 1.394 . S
C53 C54 1.380 . S
C53 H76 0.930 1_655 S
C54 C53 1.380 . S
C54 C55 1.376 . S
C54 H77 0.930 1_655 S
C55 C54 1.376 . S
C55 C56 1.370 . S
C56 C55 1.370 . S
C56 C57 1.396 . S
C56 H78 0.929 . S
C57 C52 1.373 . S
C57 C56 1.396 . S
C57 H79 0.929 . S
C58 O68 1.230 1_655 S
C58 O69 1.300 . S
C59 O70 1.258 . S
C59 O71 1.256 . S
O60 La40 2.521 . S
O60 C42 1.261 . S
O61 La40 2.628 . S
O61 C42 1.243 . S
O62 La40 2.554 . S
O62 C49 1.240 . S
O63 La40 2.757 . S
O63 La41 2.482 . S
O63 C49 1.289 . S
O64 La40 2.470 . S
O64 C50 1.258 . S
O65 La41 2.503 . S
O65 C50 1.256 . S
O66 La41 2.521 . S
O66 C51 1.261 . S
O67 La41 2.628 . S
O67 C51 1.243 . S
O68 La41 2.554 1_455 S
O68 C58 1.230 1_455 S
O69 La40 2.482 . S
O69 La41 2.757 . S
O69 C58 1.300 . S
O70 La41 2.470 . S
O70 C59 1.258 . S
O71 La40 2.503 . S
O71 C59 1.256 . S
H72 C44 0.930 . S
H73 C45 0.930 . S
H74 C47 0.929 . S
H75 C48 0.929 . S
H76 C53 0.930 1_455 S
H77 C54 0.930 1_455 S
H78 C56 0.929 . S
H79 C57 0.929 . S
La80 C82 2.928 . S
La80 O100 2.521 . S
La80 O101 2.628 . S
La80 O102 2.554 . S
La80 O103 2.757 . S
La80 O104 2.470 . S
La80 O109 2.482 . S
La80 O111 2.503 . S
La81 C91 2.928 . S
La81 O103 2.482 . S
La81 O105 2.503 . S
La81 O106 2.521 . S
La81 O107 2.628 . S
La81 O108 2.554 . S
La81 O109 2.757 . S
La81 O110 2.470 . S
C82 La80 2.928 . S
C82 C83 1.503 . S
C82 O100 1.261 . S
C82 O101 1.243 . S
C83 C82 1.503 . S
C83 C84 1.394 . S
C83 C88 1.373 . S
C84 C83 1.394 . S
C84 C85 1.380 . S
C84 H112 0.930 . S
C85 C84 1.380 . S
C85 C86 1.376 . S
C85 H113 0.930 . S
C86 C85 1.376 . S
C86 C87 1.370 . S
C87 C86 1.370 . S
C87 C88 1.396 . S
C87 H114 0.929 . S
C88 C83 1.373 . S
C88 C87 1.396 . S
C88 H115 0.929 . S
C89 O102 1.240 . S
C89 O103 1.289 . S
C90 O104 1.258 . S
C90 O105 1.256 . S
C91 La81 2.928 . S
C91 C92 1.503 . S
C91 O106 1.261 . S
C91 O107 1.243 . S
C92 C91 1.503 . S
C92 C93 1.394 . S
C92 C97 1.373 . S
C93 C92 1.394 . S
C93 C94 1.380 . S
C93 H116 0.930 . S
C94 C93 1.380 . S
C94 C95 1.376 . S
C94 H117 0.930 . S
C95 C94 1.376 . S
C95 C96 1.370 . S
C96 C95 1.370 . S
C96 C97 1.396 . S
C96 H118 0.929 . S
C97 C92 1.373 . S
C97 C96 1.396 . S
C97 H119 0.929 . S
C98 O108 1.240 . S
C98 O109 1.289 . S
C99 O110 1.258 . S
C99 O111 1.256 . S
O100 La80 2.521 . S
O100 C82 1.261 . S
O101 La80 2.628 . S
O101 C82 1.243 . S
O102 La80 2.554 . S
O102 C89 1.240 . S
O103 La80 2.757 . S
O103 La81 2.482 . S
O103 C89 1.289 . S
O104 La80 2.470 . S
O104 C90 1.258 . S
O105 La81 2.503 . S
O105 C90 1.256 . S
O106 La81 2.521 . S
O106 C91 1.261 . S
O107 La81 2.628 . S
O107 C91 1.243 . S
O108 La81 2.554 . S
O108 C98 1.240 . S
O109 La80 2.482 . S
O109 La81 2.757 . S
O109 C98 1.289 . S
O110 La81 2.470 . S
O110 C99 1.258 . S
O111 La80 2.503 . S
O111 C99 1.256 . S
H112 C84 0.930 . S
H113 C85 0.930 . S
H114 C87 0.929 . S
H115 C88 0.929 . S
H116 C93 0.930 . S
H117 C94 0.930 . S
H118 C96 0.929 . S
H119 C97 0.929 . S
La120 C122 2.928 . S
La120 O140 2.521 . S
La120 O141 2.628 . S
La120 O142 2.554 . S
La120 O143 2.757 . S
La120 O144 2.470 . S
La120 O149 2.482 . S
La120 O151 2.503 . S
La121 C131 2.928 . S
La121 O143 2.482 . S
La121 O145 2.503 . S
La121 O146 2.521 . S
La121 O147 2.628 . S
La121 O148 2.554 . S
La121 O149 2.757 . S
La121 O150 2.470 . S
C122 La120 2.928 . S
C122 C123 1.503 1_554 S
C122 O140 1.261 . S
C122 O141 1.243 . S
C123 C122 1.503 1_556 S
C123 C124 1.394 . S
C123 C128 1.373 . S
C124 C123 1.394 . S
C124 C125 1.380 . S
C124 H152 0.930 . S
C125 C124 1.380 . S
C125 C126 1.376 . S
C125 H153 0.930 . S
C126 C125 1.376 . S
C126 C127 1.370 . S
C127 C126 1.370 . S
C127 C128 1.396 . S
C127 H154 0.929 . S
C128 C123 1.373 . S
C128 C127 1.396 . S
C128 H155 0.929 . S
C129 O142 1.240 . S
C129 O143 1.289 . S
C130 O144 1.258 . S
C130 O145 1.256 . S
C131 La121 2.928 . S
C131 C132 1.503 . S
C131 O146 1.261 . S
C131 O147 1.243 . S
C132 C131 1.503 . S
C132 C133 1.394 . S
C132 C137 1.373 . S
C133 C132 1.394 . S
C133 C134 1.380 . S
C133 H156 0.930 . S
C134 C133 1.380 . S
C134 C135 1.376 . S
C134 H157 0.930 . S
C135 C134 1.376 . S
C135 C136 1.370 . S
C136 C135 1.370 . S
C136 C137 1.396 . S
C136 H158 0.929 . S
C137 C132 1.373 . S
C137 C136 1.396 . S
C137 H159 0.929 . S
C138 O148 1.240 . S
C138 O149 1.289 . S
C139 O150 1.258 . S
C139 O151 1.256 . S
O140 La120 2.521 . S
O140 C122 1.261 . S
O141 La120 2.628 . S
O141 C122 1.243 . S
O142 La120 2.554 . S
O142 C129 1.240 . S
O143 La120 2.757 . S
O143 La121 2.482 . S
O143 C129 1.289 . S
O144 La120 2.470 . S
O144 C130 1.258 . S
O145 La121 2.503 . S
O145 C130 1.256 . S
O146 La121 2.521 . S
O146 C131 1.261 . S
O147 La121 2.628 . S
O147 C131 1.243 . S
O148 La121 2.554 . S
O148 C138 1.240 . S
O149 La120 2.482 . S
O149 La121 2.757 . S
O149 C138 1.289 . S
O150 La121 2.470 . S
O150 C139 1.258 . S
O151 La120 2.503 . S
O151 C139 1.256 . S
H152 C124 0.930 . S
H153 C125 0.930 . S
H154 C127 0.929 . S
H155 C128 0.929 . S
H156 C133 0.930 . S
H157 C134 0.930 . S
H158 C136 0.929 . S
H159 C137 0.929 . S
La160 C162 2.928 . S
La160 O180 2.521 . S
La160 O181 2.628 . S
La160 O182 2.554 . S
La160 O183 2.757 . S
La160 O184 2.470 . S
La160 O189 2.482 . S
La160 O191 2.503 . S
La161 C171 2.928 . S
La161 O183 2.482 . S
La161 O185 2.503 . S
La161 O186 2.521 . S
La161 O187 2.628 . S
La161 O188 2.554 1_565 S
La161 O189 2.757 . S
La161 O190 2.470 . S
C162 La160 2.928 . S
C162 C163 1.503 . S
C162 O180 1.261 . S
C162 O181 1.243 . S
C163 C162 1.503 . S
C163 C164 1.394 . S
C163 C168 1.373 . S
C164 C163 1.394 . S
C164 C165 1.380 . S
C164 H192 0.930 . S
C165 C164 1.380 . S
C165 C166 1.376 . S
C165 H193 0.930 . S
C166 C165 1.376 . S
C166 C167 1.370 . S
C167 C166 1.370 . S
C167 C168 1.396 . S
C167 H194 0.929 . S
C168 C163 1.373 . S
C168 C167 1.396 . S
C168 H195 0.929 . S
C169 O182 1.240 . S
C169 O183 1.289 . S
C170 O184 1.258 . S
C170 O185 1.256 . S
C171 La161 2.928 . S
C171 C172 1.503 . S
C171 O186 1.261 . S
C171 O187 1.243 . S
C172 C171 1.503 . S
C172 C173 1.394 . S
C172 C177 1.373 . S
C173 C172 1.394 . S
C173 C174 1.380 . S
C173 H196 0.930 1_565 S
C174 C173 1.380 . S
C174 C175 1.376 . S
C174 H197 0.930 1_565 S
C175 C174 1.376 . S
C175 C176 1.370 . S
C176 C175 1.370 . S
C176 C177 1.396 . S
C176 H198 0.929 . S
C177 C172 1.373 . S
C177 C176 1.396 . S
C177 H199 0.929 . S
C178 O188 1.230 1_565 S
C178 O189 1.300 . S
C179 O190 1.258 . S
C179 O191 1.256 . S
O180 La160 2.521 . S
O180 C162 1.261 . S
O181 La160 2.628 . S
O181 C162 1.243 . S
O182 La160 2.554 . S
O182 C169 1.240 . S
O183 La160 2.757 . S
O183 La161 2.482 . S
O183 C169 1.289 . S
O184 La160 2.470 . S
O184 C170 1.258 . S
O185 La161 2.503 . S
O185 C170 1.256 . S
O186 La161 2.521 . S
O186 C171 1.261 . S
O187 La161 2.628 . S
O187 C171 1.243 . S
O188 La161 2.554 1_545 S
O188 C178 1.230 1_545 S
O189 La160 2.482 . S
O189 La161 2.757 . S
O189 C178 1.300 . S
O190 La161 2.470 . S
O190 C179 1.258 . S
O191 La160 2.503 . S
O191 C179 1.256 . S
H192 C164 0.930 . S
H193 C165 0.930 . S
H194 C167 0.929 . S
H195 C168 0.929 . S
H196 C173 0.930 1_545 S
H197 C174 0.930 1_545 S
H198 C176 0.929 . S
H199 C177 0.929 . S
La200 C202 2.928 . S
La200 O220 2.521 . S
La200 O221 2.628 . S
La200 O222 2.554 . S
La200 O223 2.757 . S
La200 O224 2.470 . S
La200 O229 2.482 . S
La200 O231 2.503 . S
La201 C211 2.928 . S
La201 O223 2.482 . S
La201 O225 2.503 . S
La201 O226 2.521 . S
La201 O227 2.628 . S
La201 O228 2.554 . S
La201 O229 2.757 . S
La201 O230 2.470 . S
C202 La200 2.928 . S
C202 C203 1.503 . S
C202 O220 1.261 . S
C202 O221 1.243 . S
C203 C202 1.503 . S
C203 C204 1.394 . S
C203 C208 1.373 . S
C204 C203 1.394 . S
C204 C205 1.380 . S
C204 H232 0.930 . S
C205 C204 1.380 . S
C205 C206 1.376 . S
C205 H233 0.930 . S
C206 C205 1.376 . S
C206 C207 1.370 . S
C207 C206 1.370 . S
C207 C208 1.396 . S
C207 H234 0.929 . S
C208 C203 1.373 . S
C208 C207 1.396 . S
C208 H235 0.929 . S
C209 O222 1.240 . S
C209 O223 1.289 . S
C210 O224 1.258 . S
C210 O225 1.256 . S
C211 La201 2.928 . S
C211 C212 1.503 . S
C211 O226 1.261 . S
C211 O227 1.243 . S
C212 C211 1.503 . S
C212 C213 1.394 . S
C212 C217 1.373 . S
C213 C212 1.394 . S
C213 C214 1.380 . S
C213 H236 0.930 . S
C214 C213 1.380 . S
C214 C215 1.376 . S
C214 H237 0.930 . S
C215 C214 1.376 . S
C215 C216 1.370 . S
C216 C215 1.370 . S
C216 C217 1.396 . S
C216 H238 0.929 . S
C217 C212 1.373 . S
C217 C216 1.396 . S
C217 H239 0.929 . S
C218 O228 1.240 . S
C218 O229 1.289 . S
C219 O230 1.258 . S
C219 O231 1.256 . S
O220 La200 2.521 . S
O220 C202 1.261 . S
O221 La200 2.628 . S
O221 C202 1.243 . S
O222 La200 2.554 . S
O222 C209 1.240 . S
O223 La200 2.757 . S
O223 La201 2.482 . S
O223 C209 1.289 . S
O224 La200 2.470 . S
O224 C210 1.258 . S
O225 La201 2.503 . S
O225 C210 1.256 . S
O226 La201 2.521 . S
O226 C211 1.261 . S
O227 La201 2.628 . S
O227 C211 1.243 . S
O228 La201 2.554 . S
O228 C218 1.240 . S
O229 La200 2.482 . S
O229 La201 2.757 . S
O229 C218 1.289 . S
O230 La201 2.470 . S
O230 C219 1.258 . S
O231 La200 2.503 . S
O231 C219 1.256 . S
H232 C204 0.930 . S
H233 C205 0.930 . S
H234 C207 0.929 . S
H235 C208 0.929 . S
H236 C213 0.930 . S
H237 C214 0.930 . S
H238 C216 0.929 . S
H239 C217 0.929 . S
C240 C241 1.391 . S
C240 C242 1.394 . S
C240 H256 0.931 . S
C241 C240 1.391 . S
C241 C245 1.376 . S
C242 C240 1.394 . S
C242 C243 1.369 . S
C242 C246 1.531 . S
C243 C242 1.369 . S
C243 C244 1.410 . S
C243 C251 1.503 . S
C244 C243 1.410 . S
C244 C245 1.392 . S
C244 C247 1.511 . S
C245 C241 1.376 . S
C245 C244 1.392 . S
C245 H257 0.929 . S
C246 C242 1.531 . S
C246 H258 0.960 . S
C246 H259 0.962 . S
C246 H260 0.960 . S
C247 C244 1.511 . S
C247 H261 0.961 . S
C247 H262 0.961 . S
C247 H263 0.961 . S
C248 C249 1.370 . S
C248 C250 1.363 . S
C248 H264 0.931 . S
C249 C248 1.370 . S
C249 C253 1.408 . S
C250 C248 1.363 . S
C250 C251 1.370 . S
C250 C254 1.524 . S
C251 C243 1.503 . S
C251 C250 1.370 . S
C251 C252 1.403 . S
C252 C251 1.403 . S
C252 C253 1.404 . S
C252 C255 1.539 . S
C253 C249 1.408 . S
C253 C252 1.404 . S
C253 H265 0.930 . S
C254 C250 1.524 . S
C254 H266 0.956 . S
C254 H267 0.961 . S
C254 H268 0.961 . S
C255 C252 1.539 . S
C255 H269 0.958 . S
C255 H270 0.961 . S
C255 H271 0.960 . S
H256 C240 0.931 . S
H257 C245 0.929 . S
H258 C246 0.960 . S
H259 C246 0.962 . S
H260 C246 0.960 . S
H261 C247 0.961 . S
H262 C247 0.961 . S
H263 C247 0.961 . S
H264 C248 0.931 . S
H265 C253 0.930 . S
H266 C254 0.956 . S
H267 C254 0.961 . S
H268 C254 0.961 . S
H269 C255 0.958 . S
H270 C255 0.961 . S
H271 C255 0.960 . S
C272 C273 1.391 . S
C272 C274 1.394 . S
C272 H288 0.931 . S
C273 C272 1.391 . S
C273 C277 1.376 . S
C274 C272 1.394 . S
C274 C275 1.369 . S
C274 C278 1.531 . S
C275 C274 1.369 . S
C275 C276 1.410 . S
C275 C283 1.503 . S
C276 C275 1.410 . S
C276 C277 1.392 . S
C276 C279 1.511 . S
C277 C273 1.376 . S
C277 C276 1.392 . S
C277 H289 0.929 . S
C278 C274 1.531 . S
C278 H290 0.960 . S
C278 H291 0.962 . S
C278 H292 0.960 . S
C279 C276 1.511 . S
C279 H293 0.961 . S
C279 H294 0.961 . S
C279 H295 0.961 . S
C280 C281 1.370 . S
C280 C282 1.363 . S
C280 H296 0.931 . S
C281 C280 1.370 . S
C281 C285 1.408 . S
C282 C280 1.363 . S
C282 C283 1.370 . S
C282 C286 1.524 . S
C283 C275 1.503 . S
C283 C282 1.370 . S
C283 C284 1.403 . S
C284 C283 1.403 . S
C284 C285 1.404 . S
C284 C287 1.539 . S
C285 C281 1.408 . S
C285 C284 1.404 . S
C285 H297 0.930 . S
C286 C282 1.524 . S
C286 H298 0.956 . S
C286 H299 0.961 . S
C286 H300 0.961 . S
C287 C284 1.539 . S
C287 H301 0.958 . S
C287 H302 0.961 . S
C287 H303 0.960 . S
H288 C272 0.931 . S
H289 C277 0.929 . S
H290 C278 0.960 . S
H291 C278 0.962 . S
H292 C278 0.960 . S
H293 C279 0.961 . S
H294 C279 0.961 . S
H295 C279 0.961 . S
H296 C280 0.931 . S
H297 C285 0.930 . S
H298 C286 0.956 . S
H299 C286 0.961 . S
H300 C286 0.961 . S
H301 C287 0.958 . S
H302 C287 0.961 . S
H303 C287 0.960 . S
C304 C305 1.391 . S
C304 C306 1.394 . S
C304 H320 0.931 . S
C305 C304 1.391 . S
C305 C309 1.376 . S
C306 C304 1.394 . S
C306 C307 1.369 . S
C306 C310 1.531 . S
C307 C306 1.369 . S
C307 C308 1.410 . S
C307 C315 1.503 . S
C308 C307 1.410 . S
C308 C309 1.392 . S
C308 C311 1.511 . S
C309 C305 1.376 . S
C309 C308 1.392 . S
C309 H321 0.929 . S
C310 C306 1.531 . S
C310 H322 0.960 . S
C310 H323 0.962 . S
C310 H324 0.960 . S
C311 C308 1.511 . S
C311 H325 0.961 . S
C311 H326 0.961 . S
C311 H327 0.961 . S
C312 C313 1.370 . S
C312 C314 1.363 1_556 S
C312 H328 0.931 . S
C313 C312 1.370 . S
C313 C317 1.408 . S
C314 C312 1.363 1_554 S
C314 C315 1.370 . S
C314 C318 1.524 . S
C315 C307 1.503 . S
C315 C314 1.370 . S
C315 C316 1.403 1_554 S
C316 C315 1.403 1_556 S
C316 C317 1.404 . S
C316 C319 1.539 . S
C317 C313 1.408 . S
C317 C316 1.404 . S
C317 H329 0.930 . S
C318 C314 1.524 . S
C318 H330 0.956 . S
C318 H331 0.961 . S
C318 H332 0.961 . S
C319 C316 1.539 . S
C319 H333 0.958 . S
C319 H334 0.961 . S
C319 H335 0.957 . S
H320 C304 0.931 . S
H321 C309 0.929 . S
H322 C310 0.960 . S
H323 C310 0.962 . S
H324 C310 0.960 . S
H325 C311 0.961 . S
H326 C311 0.961 . S
H327 C311 0.961 . S
H328 C312 0.931 . S
H329 C317 0.930 . S
H330 C318 0.956 . S
H331 C318 0.961 . S
H332 C318 0.961 . S
H333 C319 0.958 . S
H334 C319 0.961 . S
H335 C319 0.957 . S
C336 C337 1.391 . S
C336 C338 1.394 . S
C336 H352 0.931 . S
C337 C336 1.391 . S
C337 C341 1.376 . S
C338 C336 1.394 . S
C338 C339 1.369 . S
C338 C342 1.531 . S
C339 C338 1.369 . S
C339 C340 1.410 . S
C339 C347 1.503 . S
C340 C339 1.410 . S
C340 C341 1.392 . S
C340 C343 1.511 . S
C341 C337 1.376 . S
C341 C340 1.392 . S
C341 H353 0.929 . S
C342 C338 1.531 . S
C342 H354 0.960 . S
C342 H355 0.962 . S
C342 H356 0.960 . S
C343 C340 1.511 . S
C343 H357 0.961 . S
C343 H358 0.961 . S
C343 H359 0.961 . S
C344 C345 1.370 . S
C344 C346 1.363 . S
C344 H360 0.931 . S
C345 C344 1.370 . S
C345 C349 1.408 . S
C346 C344 1.363 . S
C346 C347 1.370 . S
C346 C350 1.524 . S
C347 C339 1.503 . S
C347 C346 1.370 . S
C347 C348 1.403 . S
C348 C347 1.403 . S
C348 C349 1.404 . S
C348 C351 1.539 . S
C349 C345 1.408 . S
C349 C348 1.404 . S
C349 H361 0.930 . S
C350 C346 1.524 . S
C350 H362 0.956 . S
C350 H363 0.961 . S
C350 H364 0.961 . S
C351 C348 1.539 . S
C351 H365 0.958 . S
C351 H366 0.961 . S
C351 H367 0.960 . S
H352 C336 0.931 . S
H353 C341 0.929 . S
H354 C342 0.960 . S
H355 C342 0.962 . S
H356 C342 0.960 . S
H357 C343 0.961 . S
H358 C343 0.961 . S
H359 C343 0.961 . S
H360 C344 0.931 . S
H361 C349 0.930 . S
H362 C350 0.956 . S
H363 C350 0.961 . S
H364 C350 0.961 . S
H365 C351 0.958 . S
H366 C351 0.961 . S
H367 C351 0.960 . S
C368 C369 1.391 . S
C368 C370 1.394 . S
C368 H384 0.931 . S
C369 C368 1.391 . S
C369 C373 1.376 . S
C370 C368 1.394 . S
C370 C371 1.369 . S
C370 C374 1.531 . S
C371 C370 1.369 . S
C371 C372 1.410 . S
C371 C379 1.503 . S
C372 C371 1.410 . S
C372 C373 1.392 . S
C372 C375 1.511 . S
C373 C369 1.376 . S
C373 C372 1.392 . S
C373 H385 0.929 . S
C374 C370 1.531 . S
C374 H386 0.960 . S
C374 H387 0.962 . S
C374 H388 0.960 . S
C375 C372 1.511 . S
C375 H389 0.961 . S
C375 H390 0.961 . S
C375 H391 0.961 . S
C376 C377 1.370 . S
C376 C378 1.363 . S
C376 H392 0.931 . S
C377 C376 1.370 . S
C377 C381 1.408 . S
C378 C376 1.363 . S
C378 C379 1.370 . S
C378 C382 1.524 . S
C379 C371 1.503 . S
C379 C378 1.370 . S
C379 C380 1.403 . S
C380 C379 1.403 . S
C380 C381 1.404 . S
C380 C383 1.539 . S
C381 C377 1.408 . S
C381 C380 1.404 . S
C381 H393 0.930 . S
C382 C378 1.524 . S
C382 H394 0.956 . S
C382 H395 0.961 . S
C382 H396 0.961 . S
C383 C380 1.539 . S
C383 H397 0.958 . S
C383 H398 0.961 . S
C383 H399 0.960 . S
H384 C368 0.931 . S
H385 C373 0.929 . S
H386 C374 0.960 . S
H387 C374 0.962 . S
H388 C374 0.960 . S
H389 C375 0.961 . S
H390 C375 0.961 . S
H391 C375 0.961 . S
H392 C376 0.931 . S
H393 C381 0.930 . S
H394 C382 0.956 . S
H395 C382 0.961 . S
H396 C382 0.961 . S
H397 C383 0.958 . S
H398 C383 0.961 . S
H399 C383 0.960 . S
C400 C401 1.391 . S
C400 C402 1.394 . S
C400 H416 0.931 . S
C401 C400 1.391 . S
C401 C405 1.376 . S
C402 C400 1.394 . S
C402 C403 1.369 . S
C402 C406 1.531 . S
C403 C402 1.369 . S
C403 C404 1.410 . S
C403 C411 1.503 . S
C404 C403 1.410 . S
C404 C405 1.392 . S
C404 C407 1.511 . S
C405 C401 1.376 . S
C405 C404 1.392 . S
C405 H417 0.929 . S
C406 C402 1.531 . S
C406 H418 0.960 . S
C406 H419 0.962 . S
C406 H420 0.960 . S
C407 C404 1.511 . S
C407 H421 0.961 . S
C407 H422 0.961 . S
C407 H423 0.961 . S
C408 C409 1.370 . S
C408 C410 1.363 . S
C408 H424 0.931 . S
C409 C408 1.370 . S
C409 C413 1.408 . S
C410 C408 1.363 . S
C410 C411 1.370 . S
C410 C414 1.524 . S
C411 C403 1.503 . S
C411 C410 1.370 . S
C411 C412 1.403 . S
C412 C411 1.403 . S
C412 C413 1.404 . S
C412 C415 1.539 . S
C413 C409 1.408 . S
C413 C412 1.404 . S
C413 H425 0.930 . S
C414 C410 1.524 . S
C414 H426 0.956 . S
C414 H427 0.961 . S
C414 H428 0.961 . S
C415 C412 1.539 . S
C415 H429 0.958 . S
C415 H430 0.961 . S
C415 H431 0.960 . S
H416 C400 0.931 . S
H417 C405 0.929 . S
H418 C406 0.960 . S
H419 C406 0.962 . S
H420 C406 0.960 . S
H421 C407 0.961 . S
H422 C407 0.961 . S
H423 C407 0.961 . S
H424 C408 0.931 . S
H425 C413 0.930 . S
H426 C414 0.956 . S
H427 C414 0.961 . S
H428 C414 0.961 . S
H429 C415 0.958 . S
H430 C415 0.961 . S
H431 C415 0.960 . S
C432 C433 1.391 . S
C432 C434 1.394 . S
C432 H448 0.931 . S
C433 C432 1.391 . S
C433 C437 1.376 . S
C434 C432 1.394 . S
C434 C435 1.369 . S
C434 C438 1.531 . S
C435 C434 1.369 . S
C435 C436 1.410 . S
C435 C443 1.503 . S
C436 C435 1.410 . S
C436 C437 1.392 . S
C436 C439 1.511 . S
C437 C433 1.376 . S
C437 C436 1.392 . S
C437 H449 0.929 . S
C438 C434 1.531 . S
C438 H450 0.960 . S
C438 H451 0.962 . S
C438 H452 0.960 . S
C439 C436 1.511 . S
C439 H453 0.961 . S
C439 H454 0.961 . S
C439 H455 0.961 . S
C440 C441 1.370 . S
C440 C442 1.363 . S
C440 H456 0.931 . S
C441 C440 1.370 . S
C441 C445 1.408 . S
C442 C440 1.363 . S
C442 C443 1.370 . S
C442 C446 1.524 . S
C443 C435 1.503 . S
C443 C442 1.370 . S
C443 C444 1.403 . S
C444 C443 1.403 . S
C444 C445 1.404 . S
C444 C447 1.539 . S
C445 C441 1.408 . S
C445 C444 1.404 . S
C445 H457 0.930 . S
C446 C442 1.524 . S
C446 H458 0.956 . S
C446 H459 0.961 . S
C446 H460 0.961 . S
C447 C444 1.539 . S
C447 H461 0.958 . S
C447 H462 0.961 . S
C447 H463 0.960 . S
H448 C432 0.931 . S
H449 C437 0.929 . S
H450 C438 0.960 . S
H451 C438 0.962 . S
H452 C438 0.960 . S
H453 C439 0.961 . S
H454 C439 0.961 . S
H455 C439 0.961 . S
H456 C440 0.931 . S
H457 C445 0.930 . S
H458 C446 0.956 . S
H459 C446 0.961 . S
H460 C446 0.961 . S
H461 C447 0.958 . S
H462 C447 0.961 . S
H463 C447 0.960 . S
C464 C465 1.391 . S
C464 C466 1.394 . S
C464 H480 0.931 . S
C465 C464 1.391 . S
C465 C469 1.376 . S
C466 C464 1.394 . S
C466 C467 1.369 . S
C466 C470 1.531 . S
C467 C466 1.369 . S
C467 C468 1.410 . S
C467 C475 1.503 . S
C468 C467 1.410 . S
C468 C469 1.392 . S
C468 C471 1.511 . S
C469 C465 1.376 . S
C469 C468 1.392 . S
C469 H481 0.929 . S
C470 C466 1.531 . S
C470 H482 0.960 . S
C470 H483 0.962 . S
C470 H484 0.960 . S
C471 C468 1.511 . S
C471 H485 0.961 . S
C471 H486 0.961 . S
C471 H487 0.961 . S
C472 C473 1.370 . S
C472 C474 1.363 . S
C472 H488 0.931 1_455 S
C473 C472 1.370 . S
C473 C477 1.408 . S
C474 C472 1.363 . S
C474 C475 1.370 . S
C474 C478 1.524 1_455 S
C475 C467 1.503 . S
C475 C474 1.370 . S
C475 C476 1.403 . S
C476 C475 1.403 . S
C476 C477 1.404 . S
C476 C479 1.539 . S
C477 C473 1.408 . S
C477 C476 1.404 . S
C477 H489 0.930 . S
C478 C474 1.524 1_655 S
C478 H490 0.956 . S
C478 H491 0.961 1_655 S
C478 H492 0.961 . S
C479 C476 1.539 . S
C479 H493 0.958 . S
C479 H494 0.961 . S
C479 H495 0.960 . S
H480 C464 0.931 . S
H481 C469 0.929 . S
H482 C470 0.960 . S
H483 C470 0.962 . S
H484 C470 0.960 . S
H485 C471 0.961 . S
H486 C471 0.961 . S
H487 C471 0.961 . S
H488 C472 0.931 1_655 S
H489 C477 0.930 . S
H490 C478 0.956 . S
H491 C478 0.961 1_455 S
H492 C478 0.961 . S
H493 C479 0.958 . S
H494 C479 0.961 . S
H495 C479 0.960 . S
C496 C497 1.391 1_545 S
C496 C498 1.394 1_545 S
C496 H512 0.931 . S
C497 C496 1.391 1_565 S
C497 C501 1.376 . S
C498 C496 1.394 1_565 S
C498 C499 1.369 . S
C498 C502 1.531 . S
C499 C498 1.369 . S
C499 C500 1.410 . S
C499 C507 1.503 . S
C500 C499 1.410 . S
C500 C501 1.392 . S
C500 C503 1.511 . S
C501 C497 1.376 . S
C501 C500 1.392 . S
C501 H513 0.929 . S
C502 C498 1.531 . S
C502 H514 0.960 . S
C502 H515 0.962 . S
C502 H516 0.960 1_565 S
C503 C500 1.511 . S
C503 H517 0.961 . S
C503 H518 0.961 . S
C503 H519 0.961 . S
C504 C505 1.370 . S
C504 C506 1.363 . S
C504 H520 0.931 . S
C505 C504 1.370 . S
C505 C509 1.408 . S
C506 C504 1.363 . S
C506 C507 1.370 . S
C506 C510 1.524 . S
C507 C499 1.503 . S
C507 C506 1.370 . S
C507 C508 1.403 . S
C508 C507 1.403 . S
C508 C509 1.404 . S
C508 C511 1.539 1_565 S
C509 C505 1.408 . S
C509 C508 1.404 . S
C509 H521 0.930 . S
C510 C506 1.524 . S
C510 H522 0.956 . S
C510 H523 0.961 . S
C510 H524 0.961 . S
C511 C508 1.539 1_545 S
C511 H525 0.958 . S
C511 H526 0.961 . S
C511 H527 0.960 . S
H512 C496 0.931 . S
H513 C501 0.929 . S
H514 C502 0.960 . S
H515 C502 0.962 . S
H516 C502 0.960 1_545 S
H517 C503 0.961 . S
H518 C503 0.961 . S
H519 C503 0.961 . S
H520 C504 0.931 . S
H521 C509 0.930 . S
H522 C510 0.956 . S
H523 C510 0.961 . S
H524 C510 0.961 . S
H525 C511 0.958 . S
H526 C511 0.961 . S
H527 C511 0.960 . S
C528 C529 1.391 . S
C528 C530 1.394 . S
C528 H544 0.931 . S
C529 C528 1.391 . S
C529 C533 1.376 . S
C530 C528 1.394 . S
C530 C531 1.369 . S
C530 C534 1.531 . S
C531 C530 1.369 . S
C531 C532 1.410 . S
C531 C539 1.503 . S
C532 C531 1.410 . S
C532 C533 1.392 . S
C532 C535 1.511 . S
C533 C529 1.376 . S
C533 C532 1.392 . S
C533 H545 0.929 . S
C534 C530 1.531 . S
C534 H546 0.960 . S
C534 H547 0.962 . S
C534 H548 0.960 . S
C535 C532 1.511 . S
C535 H549 0.961 . S
C535 H550 0.961 . S
C535 H551 0.961 . S
C536 C537 1.370 . S
C536 C538 1.363 . S
C536 H552 0.931 . S
C537 C536 1.370 . S
C537 C541 1.408 . S
C538 C536 1.363 . S
C538 C539 1.370 . S
C538 C542 1.524 . S
C539 C531 1.503 . S
C539 C538 1.370 . S
C539 C540 1.403 . S
C540 C539 1.403 . S
C540 C541 1.404 . S
C540 C543 1.539 . S
C541 C537 1.408 . S
C541 C540 1.404 . S
C541 H553 0.930 . S
C542 C538 1.524 . S
C542 H554 0.956 . S
C542 H555 0.961 . S
C542 H556 0.961 . S
C543 C540 1.539 . S
C543 H557 0.958 . S
C543 H558 0.961 . S
C543 H559 0.960 . S
H544 C528 0.931 . S
H545 C533 0.929 . S
H546 C534 0.960 . S
H547 C534 0.962 . S
H548 C534 0.960 . S
H549 C535 0.961 . S
H550 C535 0.961 . S
H551 C535 0.961 . S
H552 C536 0.931 . S
H553 C541 0.930 . S
H554 C542 0.956 . S
H555 C542 0.961 . S
H556 C542 0.961 . S
H557 C543 0.958 . S
H558 C543 0.961 . S
H559 C543 0.960 . S
C560 C561 1.391 . S
C560 C562 1.394 . S
C560 H576 0.931 . S
C561 C560 1.391 . S
C561 C565 1.376 . S
C562 C560 1.394 . S
C562 C563 1.369 . S
C562 C566 1.531 . S
C563 C562 1.369 . S
C563 C564 1.410 . S
C563 C571 1.503 . S
C564 C563 1.410 . S
C564 C565 1.392 . S
C564 C567 1.511 . S
C565 C561 1.376 . S
C565 C564 1.392 . S
C565 H577 0.929 . S
C566 C562 1.531 . S
C566 H578 0.960 . S
C566 H579 0.962 . S
C566 H580 0.960 . S
C567 C564 1.511 . S
C567 H581 0.961 . S
C567 H582 0.961 . S
C567 H583 0.961 . S
C568 C569 1.370 . S
C568 C570 1.363 . S
C568 H584 0.931 . S
C569 C568 1.370 . S
C569 C573 1.408 . S
C570 C568 1.363 . S
C570 C571 1.370 . S
C570 C574 1.524 1_655 S
C571 C563 1.503 . S
C571 C570 1.370 . S
C571 C572 1.403 . S
C572 C571 1.403 . S
C572 C573 1.404 . S
C572 C575 1.539 . S
C573 C569 1.408 . S
C573 C572 1.404 . S
C573 H585 0.930 . S
C574 C570 1.524 1_455 S
C574 H586 0.956 . S
C574 H587 0.961 . S
C574 H588 0.961 . S
C575 C572 1.539 . S
C575 H589 0.958 . S
C575 H590 0.961 . S
C575 H591 0.960 . S
H576 C560 0.931 . S
H577 C565 0.929 . S
H578 C566 0.960 . S
H579 C566 0.962 . S
H580 C566 0.960 . S
H581 C567 0.961 . S
H582 C567 0.961 . S
H583 C567 0.961 . S
H584 C568 0.931 . S
H585 C573 0.930 . S
H586 C574 0.956 . S
H587 C574 0.961 . S
H588 C574 0.961 . S
H589 C575 0.958 . S
H590 C575 0.961 . S
H591 C575 0.960 . S
C592 C593 1.391 1_565 S
C592 C594 1.394 1_565 S
C592 H608 0.931 . S
C593 C592 1.391 1_545 S
C593 C597 1.376 . S
C594 C592 1.394 1_545 S
C594 C595 1.369 . S
C594 C598 1.531 1_545 S
C595 C594 1.369 . S
C595 C596 1.410 . S
C595 C603 1.503 . S
C596 C595 1.410 . S
C596 C597 1.392 . S
C596 C599 1.511 . S
C597 C593 1.376 . S
C597 C596 1.392 . S
C597 H609 0.929 . S
C598 C594 1.531 1_565 S
C598 H610 0.960 . S
C598 H611 0.962 . S
C598 H612 0.960 . S
C599 C596 1.511 . S
C599 H613 0.961 . S
C599 H614 0.961 . S
C599 H615 0.961 . S
C600 C601 1.370 . S
C600 C602 1.363 . S
C600 H616 0.931 . S
C601 C600 1.370 . S
C601 C605 1.408 . S
C602 C600 1.363 . S
C602 C603 1.370 . S
C602 C606 1.524 . S
C603 C595 1.503 . S
C603 C602 1.370 . S
C603 C604 1.403 . S
C604 C603 1.403 . S
C604 C605 1.404 . S
C604 C607 1.539 . S
C605 C601 1.408 . S
C605 C604 1.404 . S
C605 H617 0.930 . S
C606 C602 1.524 . S
C606 H618 0.956 . S
C606 H619 0.961 . S
C606 H620 0.961 . S
C607 C604 1.539 . S
C607 H621 0.958 . S
C607 H622 0.961 . S
C607 H623 0.960 . S
H608 C592 0.931 . S
H609 C597 0.929 . S
H610 C598 0.960 . S
H611 C598 0.962 . S
H612 C598 0.960 . S
H613 C599 0.961 . S
H614 C599 0.961 . S
H615 C599 0.961 . S
H616 C600 0.931 . S
H617 C605 0.930 . S
H618 C606 0.956 . S
H619 C606 0.961 . S
H620 C606 0.961 . S
H621 C607 0.958 . S
H622 C607 0.961 . S
H623 C607 0.960 . S
C624 C625 1.391 . S
C624 C626 1.394 . S
C624 H640 0.931 . S
C625 C624 1.391 . S
C625 C629 1.376 . S
C626 C624 1.394 . S
C626 C627 1.369 . S
C626 C630 1.531 . S
C627 C626 1.369 . S
C627 C628 1.410 . S
C627 C635 1.503 . S
C628 C627 1.410 . S
C628 C629 1.392 . S
C628 C631 1.511 . S
C629 C625 1.376 . S
C629 C628 1.392 . S
C629 H641 0.929 . S
C630 C626 1.531 . S
C630 H642 0.960 . S
C630 H643 0.962 . S
C630 H644 0.960 . S
C631 C628 1.511 . S
C631 H645 0.961 . S
C631 H646 0.961 . S
C631 H647 0.961 . S
C632 C633 1.370 1_556 S
C632 C634 1.363 . S
C632 H648 0.931 . S
C633 C632 1.370 1_554 S
C633 C637 1.408 1_554 S
C634 C632 1.363 . S
C634 C635 1.370 . S
C634 C638 1.524 . S
C635 C627 1.503 . S
C635 C634 1.370 . S
C635 C636 1.403 . S
C636 C635 1.403 . S
C636 C637 1.404 . S
C636 C639 1.539 . S
C637 C633 1.408 1_556 S
C637 C636 1.404 . S
C637 H649 0.930 1_556 S
C638 C634 1.524 . S
C638 H650 0.956 . S
C638 H651 0.961 . S
C638 H652 0.961 . S
C639 C636 1.539 . S
C639 H653 0.958 . S
C639 H654 0.961 . S
C639 H655 0.960 . S
H640 C624 0.931 . S
H641 C629 0.929 . S
H642 C630 0.960 . S
H643 C630 0.962 . S
H644 C630 0.960 . S
H645 C631 0.961 . S
H646 C631 0.961 . S
H647 C631 0.961 . S
H648 C632 0.931 . S
H649 C637 0.930 1_554 S
H650 C638 0.956 . S
H651 C638 0.961 . S
H652 C638 0.961 . S
H653 C639 0.958 . S
H654 C639 0.961 . S
H655 C639 0.960 . S
C656 C657 1.391 . S
C656 C658 1.394 1_655 S
C656 H672 0.931 . S
C657 C656 1.391 . S
C657 C661 1.376 . S
C658 C656 1.394 1_455 S
C658 C659 1.369 1_455 S
C658 C662 1.531 . S
C659 C658 1.369 1_655 S
C659 C660 1.410 . S
C659 C667 1.503 1_655 S
C660 C659 1.410 . S
C660 C661 1.392 . S
C660 C663 1.511 . S
C661 C657 1.376 . S
C661 C660 1.392 . S
C661 H673 0.929 . S
C662 C658 1.531 . S
C662 H674 0.960 . S
C662 H675 0.962 . S
C662 H676 0.960 . S
C663 C660 1.511 . S
C663 H677 0.961 . S
C663 H678 0.961 . S
C663 H679 0.961 . S
C664 C665 1.370 . S
C664 C666 1.363 . S
C664 H680 0.931 . S
C665 C664 1.370 . S
C665 C669 1.408 1_455 S
C666 C664 1.363 . S
C666 C667 1.370 . S
C666 C670 1.524 . S
C667 C659 1.503 1_455 S
C667 C666 1.370 . S
C667 C668 1.403 1_455 S
C668 C667 1.403 1_655 S
C668 C669 1.404 . S
C668 C671 1.539 . S
C669 C665 1.408 1_655 S
C669 C668 1.404 . S
C669 H681 0.930 . S
C670 C666 1.524 . S
C670 H682 0.956 . S
C670 H683 0.961 . S
C670 H684 0.961 . S
C671 C668 1.539 . S
C671 H685 0.958 . S
C671 H686 0.961 . S
C671 H687 0.960 . S
H672 C656 0.931 . S
H673 C661 0.929 . S
H674 C662 0.960 . S
H675 C662 0.962 . S
H676 C662 0.960 . S
H677 C663 0.961 . S
H678 C663 0.961 . S
H679 C663 0.961 . S
H680 C664 0.931 . S
H681 C669 0.930 . S
H682 C670 0.956 . S
H683 C670 0.961 . S
H684 C670 0.961 . S
H685 C671 0.958 . S
H686 C671 0.961 . S
H687 C671 0.960 . S
C688 C689 1.391 . S
C688 C690 1.394 . S
C688 H704 0.931 . S
C689 C688 1.391 . S
C689 C693 1.376 . S
C690 C688 1.394 . S
C690 C691 1.369 . S
C690 C694 1.531 . S
C691 C690 1.369 . S
C691 C692 1.410 . S
C691 C699 1.503 1_565 S
C692 C691 1.410 . S
C692 C693 1.392 . S
C692 C695 1.511 1_565 S
C693 C689 1.376 . S
C693 C692 1.392 . S
C693 H705 0.929 . S
C694 C690 1.531 . S
C694 H706 0.960 . S
C694 H707 0.962 . S
C694 H708 0.960 . S
C695 C692 1.511 1_545 S
C695 H709 0.961 . S
C695 H710 0.961 . S
C695 H711 0.961 . S
C696 C697 1.370 . S
C696 C698 1.363 . S
C696 H712 0.931 . S
C697 C696 1.370 . S
C697 C701 1.408 . S
C698 C696 1.363 . S
C698 C699 1.370 . S
C698 C702 1.524 . S
C699 C691 1.503 1_545 S
C699 C698 1.370 . S
C699 C700 1.403 . S
C700 C699 1.403 . S
C700 C701 1.404 . S
C700 C703 1.539 1_545 S
C701 C697 1.408 . S
C701 C700 1.404 . S
C701 H713 0.930 . S
C702 C698 1.524 . S
C702 H714 0.956 . S
C702 H715 0.961 . S
C702 H716 0.953 1_655 S
C703 C700 1.539 1_565 S
C703 H717 0.958 . S
C703 H718 0.961 . S
C703 H719 0.960 . S
H704 C688 0.931 . S
H705 C693 0.929 . S
H706 C694 0.960 . S
H707 C694 0.962 . S
H708 C694 0.960 . S
H709 C695 0.961 . S
H710 C695 0.961 . S
H711 C695 0.961 . S
H712 C696 0.931 . S
H713 C701 0.930 . S
H714 C702 0.956 . S
H715 C702 0.961 . S
H716 C702 0.953 1_455 S
H717 C703 0.958 . S
H718 C703 0.961 . S
H719 C703 0.960 . S
C720 C721 1.391 . S
C720 C722 1.394 . S
C720 H736 0.931 . S
C721 C720 1.391 . S
C721 C725 1.376 . S
C722 C720 1.394 . S
C722 C723 1.369 . S
C722 C726 1.531 . S
C723 C722 1.369 . S
C723 C724 1.410 . S
C723 C731 1.503 . S
C724 C723 1.410 . S
C724 C725 1.392 . S
C724 C727 1.511 . S
C725 C721 1.376 . S
C725 C724 1.392 . S
C725 H737 0.929 . S
C726 C722 1.531 . S
C726 H738 0.960 . S
C726 H739 0.962 . S
C726 H740 0.960 . S
C727 C724 1.511 . S
C727 H741 0.961 . S
C727 H742 0.961 . S
C727 H743 0.961 . S
C728 C729 1.370 1_556 S
C728 C730 1.363 . S
C728 H744 0.931 . S
C729 C728 1.370 1_554 S
C729 C733 1.408 . S
C730 C728 1.363 . S
C730 C731 1.370 . S
C730 C734 1.524 . S
C731 C723 1.503 . S
C731 C730 1.370 . S
C731 C732 1.403 . S
C732 C731 1.403 . S
C732 C733 1.404 1_556 S
C732 C735 1.539 . S
C733 C729 1.408 . S
C733 C732 1.404 1_554 S
C733 H745 0.930 . S
C734 C730 1.524 . S
C734 H746 0.956 . S
C734 H747 0.961 . S
C734 H748 0.961 . S
C735 C732 1.539 . S
C735 H749 0.958 . S
C735 H750 0.961 . S
C735 H751 0.960 . S
H736 C720 0.931 . S
H737 C725 0.929 . S
H738 C726 0.960 . S
H739 C726 0.962 . S
H740 C726 0.960 . S
H741 C727 0.961 . S
H742 C727 0.961 . S
H743 C727 0.961 . S
H744 C728 0.931 . S
H745 C733 0.930 . S
H746 C734 0.956 . S
H747 C734 0.961 . S
H748 C734 0.961 . S
H749 C735 0.958 . S
H750 C735 0.961 . S
H751 C735 0.960 . S
C752 C753 1.391 . S
C752 C754 1.394 . S
C752 H768 0.931 . S
C753 C752 1.391 . S
C753 C757 1.376 . S
C754 C752 1.394 . S
C754 C755 1.369 . S
C754 C758 1.531 . S
C755 C754 1.369 . S
C755 C756 1.410 . S
C755 C763 1.503 1_455 S
C756 C755 1.410 . S
C756 C757 1.392 . S
C756 C759 1.511 1_455 S
C757 C753 1.376 . S
C757 C756 1.392 . S
C757 H769 0.929 . S
C758 C754 1.531 . S
C758 H770 0.960 . S
C758 H771 0.962 . S
C758 H772 0.960 . S
C759 C756 1.511 1_655 S
C759 H773 0.961 . S
C759 H774 0.961 . S
C759 H775 0.961 . S
C760 C761 1.370 . S
C760 C762 1.363 . S
C760 H776 0.931 . S
C761 C760 1.370 . S
C761 C765 1.408 . S
C762 C760 1.363 . S
C762 C763 1.370 . S
C762 C766 1.524 1_655 S
C763 C755 1.503 1_655 S
C763 C762 1.370 . S
C763 C764 1.403 . S
C764 C763 1.403 . S
C764 C765 1.404 . S
C764 C767 1.539 . S
C765 C761 1.408 . S
C765 C764 1.404 . S
C765 H777 0.930 . S
C766 C762 1.524 1_455 S
C766 H778 0.956 . S
C766 H779 0.961 . S
C766 H780 0.961 . S
C767 C764 1.539 . S
C767 H781 0.958 . S
C767 H782 0.961 . S
C767 H783 0.960 . S
H768 C752 0.931 . S
H769 C757 0.929 . S
H770 C758 0.960 . S
H771 C758 0.962 . S
H772 C758 0.960 . S
H773 C759 0.961 . S
H774 C759 0.961 . S
H775 C759 0.961 . S
H776 C760 0.931 . S
H777 C765 0.930 . S
H778 C766 0.956 . S
H779 C766 0.961 . S
H780 C766 0.961 . S
H781 C767 0.958 . S
H782 C767 0.961 . S
H783 C767 0.960 . S
C784 C785 1.391 . S
C784 C786 1.394 . S
C784 H800 0.931 . S
C785 C784 1.391 . S
C785 C789 1.376 . S
C786 C784 1.394 . S
C786 C787 1.369 . S
C786 C790 1.531 . S
C787 C786 1.369 . S
C787 C788 1.410 . S
C787 C795 1.503 . S
C788 C787 1.410 . S
C788 C789 1.392 . S
C788 C791 1.511 . S
C789 C785 1.376 . S
C789 C788 1.392 . S
C789 H801 0.929 . S
C790 C786 1.531 . S
C790 H802 0.960 . S
C790 H803 0.962 . S
C790 H804 0.960 . S
C791 C788 1.511 . S
C791 H805 0.961 1_545 S
C791 H806 0.961 1_545 S
C791 H807 0.961 . S
C792 C793 1.370 . S
C792 C794 1.363 . S
C792 H808 0.931 . S
C793 C792 1.370 . S
C793 C797 1.408 1_565 S
C794 C792 1.363 . S
C794 C795 1.370 1_565 S
C794 C798 1.524 . S
C795 C787 1.503 . S
C795 C794 1.370 1_545 S
C795 C796 1.403 . S
C796 C795 1.403 . S
C796 C797 1.404 . S
C796 C799 1.539 . S
C797 C793 1.408 1_545 S
C797 C796 1.404 . S
C797 H809 0.930 . S
C798 C794 1.524 . S
C798 H810 0.956 . S
C798 H811 0.961 . S
C798 H812 0.961 . S
C799 C796 1.539 . S
C799 H813 0.958 . S
C799 H814 0.961 . S
C799 H815 0.960 . S
H800 C784 0.931 . S
H801 C789 0.929 . S
H802 C790 0.960 . S
H803 C790 0.962 . S
H804 C790 0.960 . S
H805 C791 0.961 1_565 S
H806 C791 0.961 1_565 S
H807 C791 0.961 . S
H808 C792 0.931 . S
H809 C797 0.930 . S
H810 C798 0.956 . S
H811 C798 0.961 . S
H812 C798 0.961 . S
H813 C799 0.958 . S
H814 C799 0.961 . S
H815 C799 0.960 . S
C241 C179 1.474 . S
C249 C6 1.447 . S
C273 C206 1.444 . S
C281 C59 1.476 . S
C305 C19 1.468 . S
C313 C86 1.454 . S
C337 C46 1.473 . S
C345 C139 1.473 . S
C369 C99 1.481 . S
C377 C166 1.448 . S
C401 C126 1.438 . S
C409 C219 1.480 . S
C433 C9 1.231 . S
C441 C138 1.322 . S
C465 C169 1.118 . S
C473 C58 1.340 1_455 S
C497 C218 1.306 1_565 S
C505 C89 1.204 . S
C529 C98 1.300 . S
C537 C209 1.198 . S
C561 C18 1.344 1_655 S
C569 C129 1.155 . S
C593 C178 1.299 1_545 S
C601 C49 1.179 . S
C625 C215 0.878 . S
C633 C15 0.855 . S
C657 C50 1.719 . S
C665 C10 1.741 . S
C689 C95 0.840 . S
C697 C55 0.832 . S
C721 C90 1.718 . S
C729 C130 1.742 . S
C753 C175 0.811 . S
C761 C135 0.842 . S
C785 C210 1.718 . S
C793 C170 1.741 . S
