# Generated by pormake.
# Topology mon, (4)-cn, num edge types: 1
# Building blocks:
#     Node 0, Type 0, BuildingBlock: KUFVIS_clean_sbu_0, # of connection points: 4
#     Node 1, Type 0, BuildingBlock: KUFVIS_clean_sbu_0, # of connection points: 4
#     Node 2, Type 0, BuildingBlock: KUFVIS_clean_sbu_0, # of connection points: 4
#     Node 3, Type 0, BuildingBlock: KUFVIS_clean_sbu_0, # of connection points: 4
#     Node 4, Type 0, BuildingBlock: KUFVIS_clean_sbu_0, # of connection points: 4
#     Node 5, Type 0, BuildingBlock: KUFVIS_clean_sbu_0, # of connection points: 4
#     Node 6, Type 0, BuildingBlock: KUFVIS_clean_sbu_0, # of connection points: 4
#     Node 7, Type 0, BuildingBlock: KUFVIS_clean_sbu_0, # of connection points: 4
#     Node 8, Type 0, BuildingBlock: KUFVIS_clean_sbu_0, # of connection points: 4
#     Node 9, Type 0, BuildingBlock: KUFVIS_clean_sbu_0, # of connection points: 4
#     Node 10, Type 0, BuildingBlock: KUFVIS_clean_sbu_0, # of connection points: 4
#     Node 11, Type 0, BuildingBlock: KUFVIS_clean_sbu_0, # of connection points: 4
#     Node 12, Type 0, BuildingBlock: KUFVIS_clean_sbu_0, # of connection points: 4
#     Node 13, Type 0, BuildingBlock: KUFVIS_clean_sbu_0, # of connection points: 4
#     Node 14, Type 0, BuildingBlock: KUFVIS_clean_sbu_0, # of connection points: 4
#     Node 15, Type 0, BuildingBlock: KUFVIS_clean_sbu_0, # of connection points: 4
#     Edge 16, Type (0, 0), BuildingBlock: XIVTED_clean_linker_0, # of connection points: 2
#     Edge 17, Type (0, 0), BuildingBlock: XIVTED_clean_linker_0, # of connection points: 2
#     Edge 18, Type (0, 0), BuildingBlock: XIVTED_clean_linker_0, # of connection points: 2
#     Edge 19, Type (0, 0), BuildingBlock: XIVTED_clean_linker_0, # of connection points: 2
#     Edge 20, Type (0, 0), BuildingBlock: XIVTED_clean_linker_0, # of connection points: 2
#     Edge 21, Type (0, 0), BuildingBlock: XIVTED_clean_linker_0, # of connection points: 2
#     Edge 22, Type (0, 0), BuildingBlock: XIVTED_clean_linker_0, # of connection points: 2
#     Edge 23, Type (0, 0), BuildingBlock: XIVTED_clean_linker_0, # of connection points: 2
#     Edge 24, Type (0, 0), BuildingBlock: XIVTED_clean_linker_0, # of connection points: 2
#     Edge 25, Type (0, 0), BuildingBlock: XIVTED_clean_linker_0, # of connection points: 2
#     Edge 26, Type (0, 0), BuildingBlock: XIVTED_clean_linker_0, # of connection points: 2
#     Edge 27, Type (0, 0), BuildingBlock: XIVTED_clean_linker_0, # of connection points: 2
#     Edge 28, Type (0, 0), BuildingBlock: XIVTED_clean_linker_0, # of connection points: 2
#     Edge 29, Type (0, 0), BuildingBlock: XIVTED_clean_linker_0, # of connection points: 2
#     Edge 30, Type (0, 0), BuildingBlock: XIVTED_clean_linker_0, # of connection points: 2
#     Edge 31, Type (0, 0), BuildingBlock: XIVTED_clean_linker_0, # of connection points: 2
#     Edge 32, Type (0, 0), BuildingBlock: XIVTED_clean_linker_0, # of connection points: 2
#     Edge 33, Type (0, 0), BuildingBlock: XIVTED_clean_linker_0, # of connection points: 2
#     Edge 34, Type (0, 0), BuildingBlock: XIVTED_clean_linker_0, # of connection points: 2
#     Edge 35, Type (0, 0), BuildingBlock: XIVTED_clean_linker_0, # of connection points: 2
#     Edge 36, Type (0, 0), BuildingBlock: XIVTED_clean_linker_0, # of connection points: 2
#     Edge 37, Type (0, 0), BuildingBlock: XIVTED_clean_linker_0, # of connection points: 2
#     Edge 38, Type (0, 0), BuildingBlock: XIVTED_clean_linker_0, # of connection points: 2
#     Edge 39, Type (0, 0), BuildingBlock: XIVTED_clean_linker_0, # of connection points: 2
#     Edge 40, Type (0, 0), BuildingBlock: XIVTED_clean_linker_0, # of connection points: 2
#     Edge 41, Type (0, 0), BuildingBlock: XIVTED_clean_linker_0, # of connection points: 2
#     Edge 42, Type (0, 0), BuildingBlock: XIVTED_clean_linker_0, # of connection points: 2
#     Edge 43, Type (0, 0), BuildingBlock: XIVTED_clean_linker_0, # of connection points: 2
#     Edge 44, Type (0, 0), BuildingBlock: XIVTED_clean_linker_0, # of connection points: 2
#     Edge 45, Type (0, 0), BuildingBlock: XIVTED_clean_linker_0, # of connection points: 2
#     Edge 46, Type (0, 0), BuildingBlock: XIVTED_clean_linker_0, # of connection points: 2
#     Edge 47, Type (0, 0), BuildingBlock: XIVTED_clean_linker_0, # of connection points: 2
# Relax obj value: 0.170
# Max RMSD: 0.160
# Mean RMSD: 0.160
data_MOF--net-mon--node1-KUFVIS_clean_sbu_0--edge1-XIVTED_clean_linker_0
_symmetry_space_group_name_H-M    P1
_symmetry_Int_Tables_number       1
_symmetry_cell_setting            triclinic
loop_
_symmetry_equiv_pos_as_xyz
'x, y, z'
_cell_length_a     33.787902
_cell_length_b     33.789604
_cell_length_c     84.649842
_cell_angle_alpha  89.995148
_cell_angle_beta   89.996805
_cell_angle_gamma 89.997699
loop_
_atom_site_label
_atom_site_type_symbol
_atom_site_fract_x
_atom_site_fract_y
_atom_site_fract_z
_atom_type_partial_charge
Mn0 Mn 0.01606 0.01939 0.5899 0.0
Mn1 Mn 0.93379 0.04925 0.57064 0.0
C2 C 0.9543 0.0122 0.60134 0.0
C3 C 0.06326 0.97272 0.59741 0.0
C4 C 0.99123 0.10622 0.58575 0.0
O5 O 0.03451 0.02052 0.56701 0.0
O6 O 0.97808 0.04191 0.55535 0.0
C7 C 0.91802 0.97728 0.55169 0.0
N8 N 0.90594 0.00427 0.56263 0.0
C9 C 0.84305 0.97161 0.56555 0.0
C10 C 0.85475 0.94361 0.55426 0.0
C11 C 0.89239 0.94646 0.5473 0.0
C12 C 0.86962 0.00202 0.56929 0.0
H13 H 0.94701 0.97918 0.54638 0.0
C14 C 0.0144 0.03073 0.55488 0.0
O15 O 0.07049 0.01039 0.59794 0.0
O16 O 0.0291 0.96197 0.59183 0.0
N17 N 0.88915 0.05636 0.58427 0.0
C18 C 0.88385 0.08358 0.59596 0.0
C19 C 0.84848 0.08351 0.60466 0.0
C20 C 0.81896 0.05551 0.60127 0.0
C21 C 0.82508 0.02781 0.58918 0.0
C22 C 0.86078 0.02953 0.5808 0.0
H23 H 0.90663 0.10489 0.59872 0.0
O24 O 0.98563 0.01557 0.61013 0.0
O25 O 0.95998 0.01514 0.58622 0.0
O26 O 0.01527 0.07989 0.59059 0.0
O27 O 0.95926 0.09804 0.57846 0.0
C28 C 0.7976 0.9979 0.5854 0.0
C29 C 0.80655 0.96987 0.57358 0.0
H30 H 0.83526 0.91952 0.55097 0.0
H31 H 0.90171 0.92484 0.53864 0.0
H32 H 0.84407 0.10484 0.61404 0.0
H33 H 0.79189 0.05527 0.60813 0.0
H34 H 0.76978 0.99579 0.59171 0.0
H35 H 0.78546 0.94664 0.57097 0.0
Mn36 Mn 0.25479 0.73872 0.84054 0.0
Mn37 Mn 0.22546 0.6569 0.82085 0.0
C38 C 0.26261 0.67663 0.85162 0.0
C39 C 0.3009 0.78625 0.84822 0.0
C40 C 0.16814 0.71349 0.83626 0.0
O41 O 0.2534 0.7579 0.81774 0.0
O42 O 0.23258 0.70166 0.80577 0.0
C43 C 0.29758 0.64209 0.80186 0.0
N44 N 0.27064 0.62955 0.81273 0.0
C45 C 0.30377 0.56684 0.81543 0.0
C46 C 0.33173 0.57903 0.8042 0.0
C47 C 0.3286 0.61681 0.79739 0.0
C48 C 0.27314 0.59308 0.81925 0.0
H49 H 0.29548 0.6712 0.79666 0.0
C50 C 0.24344 0.73809 0.8055 0.0
O51 O 0.26315 0.79297 0.84882 0.0
O52 O 0.31209 0.75236 0.84251 0.0
N53 N 0.21862 0.61184 0.83429 0.0
C54 C 0.19141 0.60606 0.84594 0.0
C55 C 0.19173 0.57048 0.85451 0.0
C56 C 0.21998 0.54126 0.85102 0.0
C57 C 0.24766 0.54788 0.83896 0.0
C58 C 0.24567 0.58376 0.83072 0.0
H59 H 0.16992 0.62861 0.84879 0.0
O60 O 0.25905 0.70758 0.86061 0.0
O61 O 0.25944 0.68287 0.83654 0.0
O62 O 0.19437 0.73738 0.84128 0.0
O63 O 0.17645 0.68186 0.82876 0.0
C64 C 0.27781 0.52074 0.83511 0.0
C65 C 0.3058 0.53018 0.82333 0.0
H66 H 0.35599 0.55981 0.80085 0.0
H67 H 0.3502 0.62651 0.78877 0.0
H68 H 0.17041 0.56569 0.86386 0.0
H69 H 0.22042 0.51405 0.85778 0.0
H70 H 0.28016 0.49281 0.84132 0.0
H71 H 0.32924 0.50936 0.82066 0.0
Mn72 Mn 0.53677 0.98043 0.09087 0.0
Mn73 Mn 0.61844 0.95285 0.07067 0.0
C74 C 0.59907 0.98897 0.10166 0.0
C75 C 0.48893 0.02596 0.09882 0.0
C76 C 0.56328 0.89431 0.08619 0.0
O77 O 0.5169 0.97913 0.06817 0.0
O78 O 0.57311 0.95958 0.05584 0.0
C79 C 0.63148 0.02561 0.05187 0.0
N80 N 0.64481 0.99863 0.06257 0.0
C81 C 0.70709 0.03266 0.06505 0.0
C82 C 0.69409 0.06068 0.05399 0.0
C83 C 0.65612 0.05713 0.04737 0.0
C84 C 0.68146 0.00154 0.0689 0.0
H85 H 0.60223 0.02319 0.04683 0.0
C86 C 0.5365 0.9698 0.0558 0.0
O87 O 0.48263 0.98813 0.09944 0.0
O88 O 0.52255 0.03751 0.09298 0.0
N89 N 0.66404 0.94642 0.08385 0.0
C90 C 0.67063 0.91906 0.09537 0.0
C91 C 0.7065 0.91973 0.10375 0.0
C92 C 0.73516 0.9485 0.1002 0.0
C93 C 0.72771 0.97633 0.08828 0.0
C94 C 0.69159 0.97397 0.08022 0.0
H95 H 0.64851 0.89716 0.09827 0.0
O96 O 0.56845 0.98484 0.1108 0.0
O97 O 0.59242 0.98599 0.08661 0.0
O98 O 0.53905 0.91997 0.09144 0.0
O99 O 0.5945 0.90335 0.07854 0.0
C100 C 0.75425 0.00697 0.08438 0.0
C101 C 0.74399 0.03507 0.07276 0.0
H102 H 0.71282 0.0853 0.05063 0.0
H103 H 0.64579 0.07876 0.0389 0.0
H104 H 0.71193 0.89829 0.113 0.0
H105 H 0.76259 0.94921 0.10682 0.0
H106 H 0.78236 0.00962 0.09045 0.0
H107 H 0.76436 0.05888 0.07006 0.0
Mn108 Mn 0.29459 0.26123 0.34055 0.0
Mn109 Mn 0.32292 0.34421 0.3214 0.0
C110 C 0.28736 0.32263 0.35226 0.0
C111 C 0.24831 0.21363 0.34807 0.0
C112 C 0.38103 0.28689 0.33593 0.0
O113 O 0.29503 0.24335 0.31759 0.0
O114 O 0.31526 0.30028 0.30598 0.0
C115 C 0.24996 0.35987 0.30305 0.0
N116 N 0.2773 0.37186 0.31386 0.0
C117 C 0.24388 0.43412 0.31747 0.0
C118 C 0.21551 0.42251 0.30631 0.0
C119 C 0.21858 0.38523 0.29907 0.0
C120 C 0.27488 0.40787 0.32078 0.0
H121 H 0.252 0.33113 0.29754 0.0
C122 C 0.30445 0.26385 0.30547 0.0
O123 O 0.28603 0.20652 0.34843 0.0
O124 O 0.23732 0.2479 0.34268 0.0
N125 N 0.33024 0.38852 0.33519 0.0
C126 C 0.35798 0.39375 0.34669 0.0
C127 C 0.35785 0.42875 0.35562 0.0
C128 C 0.32921 0.45797 0.35267 0.0
C129 C 0.30099 0.45193 0.34077 0.0
C130 C 0.30283 0.41663 0.33212 0.0
H131 H 0.37976 0.37117 0.34913 0.0
O132 O 0.29124 0.29115 0.36093 0.0
O133 O 0.2898 0.3173 0.3371 0.0
O134 O 0.35515 0.2625 0.3409 0.0
O135 O 0.37223 0.31891 0.32877 0.0
C136 C 0.27044 0.47906 0.33744 0.0
C137 C 0.24196 0.47021 0.32578 0.0
H138 H 0.19098 0.44178 0.30335 0.0
H139 H 0.19667 0.37597 0.29051 0.0
H140 H 0.37959 0.43309 0.36485 0.0
H141 H 0.32891 0.48471 0.35972 0.0
H142 H 0.26818 0.50655 0.34397 0.0
H143 H 0.21825 0.49103 0.32352 0.0
Mn144 Mn 0.01389 0.97899 0.40896 0.0
Mn145 Mn 0.93193 0.95103 0.4289 0.0
C146 C 0.95174 0.98722 0.39797 0.0
C147 C 0.06174 0.02464 0.40109 0.0
C148 C 0.98764 0.89275 0.41355 0.0
O149 O 0.03333 0.97782 0.43173 0.0
O150 O 0.97696 0.95792 0.44386 0.0
C151 C 0.91822 0.02371 0.44768 0.0
N152 N 0.9052 0.99667 0.43694 0.0
C153 C 0.84273 0.0303 0.43435 0.0
C154 C 0.85541 0.05837 0.44545 0.0
C155 C 0.89332 0.05505 0.45213 0.0
C156 C 0.86862 0.99937 0.43054 0.0
H157 H 0.94742 0.02146 0.45278 0.0
C158 C 0.01352 0.96833 0.44403 0.0
O159 O 0.06817 0.98683 0.40054 0.0
O160 O 0.02799 0.03613 0.40683 0.0
N161 N 0.88658 0.9444 0.41561 0.0
C162 C 0.88031 0.91701 0.40406 0.0
C163 C 0.84454 0.91746 0.39562 0.0
C164 C 0.81564 0.94603 0.39913 0.0
C165 C 0.82276 0.97389 0.41107 0.0
C166 C 0.85881 0.97176 0.41919 0.0
H167 H 0.9026 0.89526 0.40121 0.0
O168 O 0.98256 0.98322 0.38893 0.0
O169 O 0.95811 0.98431 0.41304 0.0
O170 O 0.01189 0.91852 0.40841 0.0
O171 O 0.95622 0.90165 0.42109 0.0
C172 C 0.79596 0.00434 0.41493 0.0
C173 C 0.80591 0.03248 0.42658 0.0
H174 H 0.83648 0.08286 0.44878 0.0
H175 H 0.9034 0.07673 0.46064 0.0
H176 H 0.83935 0.896 0.38636 0.0
H177 H 0.78827 0.94656 0.39246 0.0
H178 H 0.7679 0.00679 0.40881 0.0
H179 H 0.78533 0.05614 0.42925 0.0
Mn180 Mn 0.29605 0.7391 0.65975 0.0
Mn181 Mn 0.32435 0.6572 0.67963 0.0
C182 C 0.28826 0.67701 0.64867 0.0
C183 C 0.25038 0.78679 0.65177 0.0
C184 C 0.38244 0.7131 0.6643 0.0
O185 O 0.29687 0.75844 0.68253 0.0
O186 O 0.31751 0.70227 0.69458 0.0
C187 C 0.25182 0.64351 0.69851 0.0
N188 N 0.2788 0.63047 0.68774 0.0
C189 C 0.24525 0.56794 0.68526 0.0
C190 C 0.21725 0.58064 0.69639 0.0
C191 C 0.22056 0.61859 0.70303 0.0
C192 C 0.2761 0.59386 0.68138 0.0
H193 H 0.25407 0.67274 0.70358 0.0
C194 C 0.30672 0.73871 0.6948 0.0
O195 O 0.28818 0.79335 0.65136 0.0
O196 O 0.23889 0.75302 0.65748 0.0
N197 N 0.33095 0.6118 0.66636 0.0
C198 C 0.35828 0.60548 0.6548 0.0
C199 C 0.35784 0.56965 0.6464 0.0
C200 C 0.32935 0.54073 0.64998 0.0
C201 C 0.30154 0.5479 0.66193 0.0
C202 C 0.30365 0.58402 0.67001 0.0
H203 H 0.37999 0.62779 0.6519 0.0
O204 O 0.29229 0.70794 0.6397 0.0
O205 O 0.29088 0.68322 0.66377 0.0
O206 O 0.35653 0.73738 0.65929 0.0
O207 O 0.37369 0.68149 0.67173 0.0
C208 C 0.27118 0.52107 0.66587 0.0
C209 C 0.2431 0.53105 0.67754 0.0
H210 H 0.19283 0.56168 0.69978 0.0
H211 H 0.19894 0.62868 0.71156 0.0
H212 H 0.37926 0.56443 0.63713 0.0
H213 H 0.32884 0.51331 0.64335 0.0
H214 H 0.26877 0.49294 0.65981 0.0
H215 H 0.21953 0.51044 0.68028 0.0
Mn216 Mn 0.53577 0.01887 0.90987 0.0
Mn217 Mn 0.61713 0.0485 0.92977 0.0
C218 C 0.59796 0.01228 0.89877 0.0
C219 C 0.48897 0.97227 0.90194 0.0
C220 C 0.56004 0.10566 0.91456 0.0
O221 O 0.51644 0.01927 0.93263 0.0
O222 O 0.57229 0.04052 0.94476 0.0
C223 C 0.63246 0.97604 0.94848 0.0
N224 N 0.64485 0.0034 0.93775 0.0
C225 C 0.708 0.9711 0.93508 0.0
C226 C 0.69598 0.94272 0.94617 0.0
C227 C 0.65805 0.94521 0.9529 0.0
C228 C 0.68144 0.0015 0.93131 0.0
H229 H 0.60326 0.97765 0.95362 0.0
C230 C 0.53601 0.02918 0.94494 0.0
O231 O 0.48167 0.00993 0.90149 0.0
O232 O 0.52301 0.96146 0.90763 0.0
N233 N 0.66227 0.05618 0.91646 0.0
C234 C 0.6679 0.08377 0.90493 0.0
C235 C 0.70363 0.08412 0.89646 0.0
C236 C 0.73314 0.05615 0.89992 0.0
C237 C 0.72666 0.02806 0.91183 0.0
C238 C 0.69061 0.02937 0.91999 0.0
H239 H 0.64514 0.10506 0.90212 0.0
O240 O 0.56695 0.01577 0.8898 0.0
O241 O 0.59172 0.01473 0.91387 0.0
O242 O 0.53633 0.07937 0.90945 0.0
O243 O 0.59176 0.09741 0.92202 0.0
C244 C 0.75412 0.99817 0.91565 0.0
C245 C 0.74483 0.96976 0.92728 0.0
H246 H 0.71545 0.91863 0.94948 0.0
H247 H 0.64848 0.92329 0.9614 0.0
H248 H 0.70832 0.10574 0.88721 0.0
H249 H 0.76048 0.05624 0.89323 0.0
H250 H 0.78221 0.99637 0.90952 0.0
H251 H 0.76592 0.94655 0.92993 0.0
Mn252 Mn 0.25614 0.26316 0.15893 0.0
Mn253 Mn 0.22758 0.34597 0.17813 0.0
C254 C 0.26331 0.32461 0.14728 0.0
C255 C 0.30244 0.21558 0.15146 0.0
C256 C 0.16968 0.28868 0.16347 0.0
O257 O 0.25552 0.24513 0.18186 0.0
O258 O 0.23523 0.30196 0.19353 0.0
C259 C 0.30042 0.36165 0.19655 0.0
N260 N 0.2731 0.37366 0.18574 0.0
C261 C 0.30636 0.43606 0.18224 0.0
C262 C 0.33471 0.42442 0.19341 0.0
C263 C 0.33171 0.38706 0.2006 0.0
C264 C 0.27546 0.40974 0.17887 0.0
H265 H 0.29844 0.33285 0.20203 0.0
C266 C 0.24604 0.26553 0.19401 0.0
O267 O 0.26473 0.20849 0.15104 0.0
O268 O 0.31343 0.24983 0.15686 0.0
N269 N 0.22023 0.39037 0.16438 0.0
C270 C 0.19253 0.39563 0.15288 0.0
C271 C 0.1926 0.43072 0.14399 0.0
C272 C 0.22113 0.45999 0.14702 0.0
C273 C 0.24932 0.45392 0.15893 0.0
C274 C 0.24754 0.41853 0.16752 0.0
H275 H 0.17083 0.37302 0.15038 0.0
O276 O 0.25959 0.29315 0.13858 0.0
O277 O 0.26083 0.31922 0.16243 0.0
O278 O 0.19563 0.26439 0.1585 0.0
O279 O 0.17836 0.32063 0.17069 0.0
C280 C 0.27977 0.48112 0.16232 0.0
C281 C 0.30822 0.47222 0.17399 0.0
H282 H 0.35916 0.44373 0.19642 0.0
H283 H 0.3536 0.37778 0.20916 0.0
H284 H 0.1709 0.43508 0.13475 0.0
H285 H 0.2214 0.48681 0.14 0.0
H286 H 0.28197 0.50867 0.15583 0.0
H287 H 0.33185 0.4931 0.1763 0.0
Mn288 Mn 0.79658 0.23972 0.15918 0.0
Mn289 Mn 0.82447 0.15619 0.17803 0.0
C290 C 0.7894 0.17867 0.1472 0.0
C291 C 0.75078 0.28783 0.15176 0.0
C292 C 0.88286 0.21357 0.16376 0.0
O293 O 0.7969 0.25704 0.1822 0.0
O294 O 0.81694 0.19981 0.19361 0.0
C295 C 0.75125 0.14053 0.19622 0.0
N296 N 0.77862 0.12863 0.1854 0.0
C297 C 0.74486 0.06667 0.1815 0.0
C298 C 0.71645 0.07819 0.19267 0.0
C299 C 0.71968 0.11528 0.20005 0.0
C300 C 0.77602 0.09283 0.17833 0.0
H301 H 0.75342 0.16912 0.20185 0.0
C302 C 0.80623 0.23625 0.19426 0.0
O303 O 0.78855 0.29467 0.15152 0.0
O304 O 0.73942 0.25351 0.15697 0.0
N305 N 0.8317 0.11213 0.1641 0.0
C306 C 0.85964 0.10692 0.15268 0.0
C307 C 0.85945 0.07208 0.14364 0.0
C308 C 0.83058 0.043 0.14643 0.0
C309 C 0.80217 0.049 0.15827 0.0
C310 C 0.80407 0.08413 0.16702 0.0
H311 H 0.88161 0.12939 0.15036 0.0
O312 O 0.79338 0.21039 0.13867 0.0
O313 O 0.79156 0.18357 0.16238 0.0
O314 O 0.85706 0.23815 0.1589 0.0
O315 O 0.87398 0.18141 0.17079 0.0
C316 C 0.77143 0.02197 0.16144 0.0
C317 C 0.74284 0.03077 0.17307 0.0
H318 H 0.69179 0.05899 0.19553 0.0
H319 H 0.69775 0.12446 0.20862 0.0
H320 H 0.88133 0.06777 0.13446 0.0
H321 H 0.83024 0.01638 0.1393 0.0
H322 H 0.76915 0.99461 0.15484 0.0
H323 H 0.71902 0.01001 0.17524 0.0
Mn324 Mn 0.75582 0.7625 0.65945 0.0
Mn325 Mn 0.72661 0.84504 0.67867 0.0
C326 C 0.76362 0.82417 0.64801 0.0
C327 C 0.80228 0.71498 0.65205 0.0
C328 C 0.66919 0.78807 0.66354 0.0
O329 O 0.75437 0.74407 0.68233 0.0
O330 O 0.73347 0.80071 0.69398 0.0
C331 C 0.79863 0.86018 0.69767 0.0
N332 N 0.7718 0.87249 0.68671 0.0
C333 C 0.80505 0.93507 0.6838 0.0
C334 C 0.83289 0.92313 0.69512 0.0
C335 C 0.82965 0.88553 0.70208 0.0
C336 C 0.77442 0.90877 0.68005 0.0
H337 H 0.79644 0.83122 0.70299 0.0
C338 C 0.74428 0.76428 0.69445 0.0
O339 O 0.76457 0.70798 0.65144 0.0
O340 O 0.81316 0.74909 0.65763 0.0
N341 N 0.71997 0.88972 0.66503 0.0
C342 C 0.69285 0.89525 0.65332 0.0
C343 C 0.69327 0.93061 0.64461 0.0
C344 C 0.72154 0.95988 0.64802 0.0
C345 C 0.74913 0.95352 0.66013 0.0
C346 C 0.74705 0.91785 0.66851 0.0
H347 H 0.67134 0.87266 0.65055 0.0
O348 O 0.76004 0.79287 0.63921 0.0
O349 O 0.76053 0.81853 0.66312 0.0
O350 O 0.6953 0.76377 0.6587 0.0
O351 O 0.67766 0.81998 0.67082 0.0
C352 C 0.77927 0.98072 0.66392 0.0
C353 C 0.80716 0.97154 0.67576 0.0
H354 H 0.85714 0.94241 0.69842 0.0
H355 H 0.85115 0.87602 0.71077 0.0
H356 H 0.67203 0.9352 0.63522 0.0
H357 H 0.72205 0.98692 0.64115 0.0
H358 H 0.78167 0.00852 0.65761 0.0
H359 H 0.83058 0.99242 0.67839 0.0
Mn360 Mn 0.75452 0.2376 0.34077 0.0
Mn361 Mn 0.72668 0.1552 0.32115 0.0
C362 C 0.76086 0.17592 0.35232 0.0
C363 C 0.80064 0.28483 0.34878 0.0
C364 C 0.66818 0.21228 0.33557 0.0
O365 O 0.75515 0.25603 0.31789 0.0
O366 O 0.73496 0.19952 0.30596 0.0
C367 C 0.80039 0.14004 0.30321 0.0
N368 N 0.7726 0.12775 0.31379 0.0
C369 C 0.80594 0.06544 0.31738 0.0
C370 C 0.83476 0.07735 0.30646 0.0
C371 C 0.83196 0.11481 0.29935 0.0
C372 C 0.7748 0.0916 0.3206 0.0
H373 H 0.79856 0.16891 0.2978 0.0
C374 C 0.74601 0.23588 0.30564 0.0
O375 O 0.76294 0.29209 0.34891 0.0
O376 O 0.81173 0.25065 0.34334 0.0
N377 N 0.71877 0.1105 0.33469 0.0
C378 C 0.69044 0.10489 0.34593 0.0
C379 C 0.69015 0.0696 0.35469 0.0
C380 C 0.71896 0.0405 0.35182 0.0
C381 C 0.74779 0.04694 0.34018 0.0
C382 C 0.74635 0.08251 0.3317 0.0
H383 H 0.66851 0.12735 0.34831 0.0
O384 O 0.7568 0.20726 0.36106 0.0
O385 O 0.75923 0.18157 0.33717 0.0
O386 O 0.69397 0.23652 0.34072 0.0
O387 O 0.67712 0.18038 0.32836 0.0
C388 C 0.77848 0.0199 0.33695 0.0
C389 C 0.80749 0.02911 0.32554 0.0
H390 H 0.85942 0.05817 0.30358 0.0
H391 H 0.85422 0.1243 0.29097 0.0
H392 H 0.66795 0.06495 0.36371 0.0
H393 H 0.71892 0.01353 0.35873 0.0
H394 H 0.78041 0.9922 0.34335 0.0
H395 H 0.83128 0.00834 0.32333 0.0
Mn396 Mn 0.79403 0.76177 0.84055 0.0
Mn397 Mn 0.82413 0.84382 0.82121 0.0
C398 C 0.78714 0.82358 0.85196 0.0
C399 C 0.74731 0.71467 0.84807 0.0
C400 C 0.88092 0.78624 0.83634 0.0
O401 O 0.79498 0.74321 0.81768 0.0
O402 O 0.81664 0.79947 0.80597 0.0
C403 C 0.75214 0.85964 0.80228 0.0
N404 N 0.7792 0.87173 0.81318 0.0
C405 C 0.74676 0.93476 0.81602 0.0
C406 C 0.71868 0.92304 0.80475 0.0
C407 C 0.72139 0.88532 0.79786 0.0
C408 C 0.77709 0.90812 0.81978 0.0
H409 H 0.75392 0.83059 0.79701 0.0
C410 C 0.8053 0.7632 0.80554 0.0
O411 O 0.78496 0.70739 0.8486 0.0
O412 O 0.73658 0.74887 0.84252 0.0
N413 N 0.8314 0.88854 0.83478 0.0
C414 C 0.85868 0.89387 0.84644 0.0
C415 C 0.85878 0.92934 0.85508 0.0
C416 C 0.83087 0.95892 0.85165 0.0
C417 C 0.8031 0.95277 0.83959 0.0
C418 C 0.80466 0.91697 0.83127 0.0
H419 H 0.87994 0.87104 0.84923 0.0
O420 O 0.79042 0.79227 0.86077 0.0
O421 O 0.78996 0.81785 0.83683 0.0
O422 O 0.8545 0.76234 0.8412 0.0
O423 O 0.87287 0.81825 0.82904 0.0
C424 C 0.77328 0.98031 0.83578 0.0
C425 C 0.74517 0.97134 0.82398 0.0
H426 H 0.69465 0.94258 0.80145 0.0
H427 H 0.6997 0.87599 0.78922 0.0
H428 H 0.88016 0.93377 0.86443 0.0
H429 H 0.83077 0.98606 0.85846 0.0
H430 H 0.77129 0.00822 0.84203 0.0
H431 H 0.72201 0.99249 0.82134 0.0
Mn432 Mn 0.5156 0.52066 0.09039 0.0
Mn433 Mn 0.43317 0.54914 0.07091 0.0
C434 C 0.45391 0.51374 0.10188 0.0
C435 C 0.56293 0.47441 0.09817 0.0
C436 C 0.49012 0.60711 0.08571 0.0
O437 O 0.53407 0.52091 0.06751 0.0
O438 O 0.47756 0.54153 0.05569 0.0
C439 C 0.41816 0.47619 0.05247 0.0
N440 N 0.40578 0.50354 0.06321 0.0
C441 C 0.34337 0.47016 0.06645 0.0
C442 C 0.35537 0.44179 0.05535 0.0
C443 C 0.39293 0.44483 0.04833 0.0
C444 C 0.36952 0.50112 0.06991 0.0
H445 H 0.4471 0.4782 0.04712 0.0
C446 C 0.51393 0.53052 0.05531 0.0
O447 O 0.57008 0.51212 0.0985 0.0
O448 O 0.5288 0.4634 0.09265 0.0
N449 N 0.38839 0.55644 0.08446 0.0
C450 C 0.38274 0.58419 0.09592 0.0
C451 C 0.34739 0.58409 0.10464 0.0
C452 C 0.31826 0.55549 0.1015 0.0
C453 C 0.32473 0.52726 0.08964 0.0
C454 C 0.36036 0.52907 0.08121 0.0
H455 H 0.40523 0.60594 0.0985 0.0
O456 O 0.48521 0.51755 0.11065 0.0
O457 O 0.45958 0.51599 0.08674 0.0
O458 O 0.51443 0.58119 0.09069 0.0
O459 O 0.45822 0.59841 0.07845 0.0
C460 C 0.29769 0.49675 0.08615 0.0
C461 C 0.30697 0.46826 0.07454 0.0
H462 H 0.3362 0.41728 0.05227 0.0
H463 H 0.40249 0.42292 0.03983 0.0
H464 H 0.34272 0.60583 0.11384 0.0
H465 H 0.29124 0.55521 0.10839 0.0
H466 H 0.26995 0.49453 0.09251 0.0
H467 H 0.28621 0.44459 0.07215 0.0
Mn468 Mn 0.0366 0.48054 0.59104 0.0
Mn469 Mn 0.1186 0.45195 0.57129 0.0
C470 C 0.09857 0.48781 0.60228 0.0
C471 C 0.98904 0.52645 0.59893 0.0
C472 C 0.06191 0.39405 0.5863 0.0
O473 O 0.01765 0.48015 0.56821 0.0
O474 O 0.07395 0.45961 0.5562 0.0
C475 C 0.13351 0.52473 0.55272 0.0
N476 N 0.146 0.49739 0.56344 0.0
C477 C 0.20881 0.53023 0.56629 0.0
C478 C 0.19668 0.5586 0.55521 0.0
C479 C 0.15886 0.55583 0.54841 0.0
C480 C 0.18249 0.49956 0.56996 0.0
H481 H 0.10438 0.52289 0.54753 0.0
C482 C 0.03756 0.47059 0.55595 0.0
O483 O 0.98225 0.4887 0.59929 0.0
O484 O 0.02303 0.53777 0.59335 0.0
N485 N 0.1636 0.4446 0.58471 0.0
C486 C 0.16933 0.41698 0.59622 0.0
C487 C 0.20494 0.41688 0.60477 0.0
C488 C 0.23424 0.44515 0.60141 0.0
C489 C 0.22767 0.47326 0.58951 0.0
C490 C 0.19175 0.47169 0.58128 0.0
H491 H 0.14672 0.39545 0.59895 0.0
O492 O 0.06749 0.48389 0.61118 0.0
O493 O 0.09255 0.48534 0.58717 0.0
O494 O 0.03787 0.42006 0.59139 0.0
O495 O 0.09362 0.40268 0.57891 0.0
C496 C 0.25491 0.50343 0.58579 0.0
C497 C 0.24552 0.53185 0.57417 0.0
H498 H 0.21597 0.5829 0.55198 0.0
H499 H 0.14921 0.57774 0.53991 0.0
H500 H 0.20969 0.39523 0.61399 0.0
H501 H 0.26149 0.44524 0.60815 0.0
H502 H 0.2829 0.50543 0.59198 0.0
H503 H 0.26644 0.55527 0.5716 0.0
Mn504 Mn 0.51338 0.47978 0.90895 0.0
Mn505 Mn 0.43086 0.45141 0.92837 0.0
C506 C 0.45182 0.48623 0.89732 0.0
C507 C 0.56084 0.52584 0.90115 0.0
C508 C 0.48825 0.39332 0.91392 0.0
O509 O 0.53159 0.48001 0.93186 0.0
O510 O 0.47503 0.4595 0.94366 0.0
C511 C 0.41534 0.52475 0.9465 0.0
N512 N 0.40324 0.49714 0.93581 0.0
C513 C 0.3409 0.53042 0.9322 0.0
C514 C 0.35262 0.55906 0.94324 0.0
C515 C 0.39 0.55619 0.95041 0.0
C516 C 0.36716 0.4994 0.92894 0.0
H517 H 0.44415 0.52286 0.95196 0.0
C518 C 0.51138 0.47059 0.94406 0.0
O519 O 0.56796 0.48813 0.90097 0.0
O520 O 0.5266 0.53703 0.90651 0.0
N521 N 0.38633 0.44365 0.91473 0.0
C522 C 0.3809 0.41552 0.90341 0.0
C523 C 0.34571 0.41532 0.89458 0.0
C524 C 0.31654 0.44403 0.89748 0.0
C525 C 0.32278 0.47266 0.90921 0.0
C526 C 0.35825 0.47113 0.91774 0.0
H527 H 0.40343 0.39366 0.90101 0.0
O528 O 0.48327 0.48236 0.88862 0.0
O529 O 0.45731 0.48436 0.91248 0.0
O530 O 0.51238 0.4193 0.90886 0.0
O531 O 0.45622 0.40198 0.92109 0.0
C532 C 0.29565 0.50325 0.91247 0.0
C533 C 0.30467 0.53207 0.92398 0.0
H534 H 0.33336 0.58362 0.94615 0.0
H535 H 0.39934 0.5783 0.95888 0.0
H536 H 0.34121 0.39328 0.88548 0.0
H537 H 0.28964 0.44407 0.89051 0.0
H538 H 0.26802 0.50524 0.90603 0.0
H539 H 0.28382 0.55577 0.92622 0.0
Mn540 Mn 0.03504 0.51927 0.40952 0.0
Mn541 Mn 0.1182 0.54749 0.42858 0.0
C542 C 0.09638 0.51165 0.3978 0.0
C543 C 0.98699 0.47338 0.40212 0.0
C544 C 0.06115 0.60562 0.41391 0.0
O545 O 0.01723 0.52012 0.43248 0.0
O546 O 0.07427 0.5402 0.44404 0.0
C547 C 0.13362 0.4747 0.44707 0.0
N548 N 0.14571 0.50188 0.43621 0.0
C549 C 0.20794 0.46832 0.43272 0.0
C550 C 0.19623 0.44011 0.44393 0.0
C551 C 0.15891 0.44333 0.45114 0.0
C552 C 0.18174 0.4993 0.42932 0.0
H553 H 0.10486 0.47686 0.45256 0.0
C554 C 0.03779 0.52957 0.44459 0.0
O555 O 0.98025 0.51115 0.40171 0.0
O556 O 0.0212 0.46208 0.40748 0.0
N557 N 0.16255 0.5545 0.41477 0.0
C558 C 0.16788 0.58209 0.40323 0.0
C559 C 0.20293 0.58179 0.39432 0.0
C560 C 0.23209 0.55315 0.39736 0.0
C561 C 0.22596 0.5251 0.40932 0.0
C562 C 0.19061 0.52709 0.41792 0.0
H563 H 0.14535 0.60387 0.40072 0.0
O564 O 0.06487 0.5155 0.38914 0.0
O565 O 0.09113 0.51424 0.41295 0.0
O566 O 0.03668 0.57975 0.40902 0.0
O567 O 0.09311 0.59683 0.42111 0.0
C568 C 0.25304 0.49457 0.41273 0.0
C569 C 0.24407 0.46625 0.42444 0.0
H570 H 0.21545 0.4156 0.44696 0.0
H571 H 0.14958 0.42155 0.45974 0.0
H572 H 0.20735 0.60339 0.38504 0.0
H573 H 0.25888 0.55272 0.39033 0.0
H574 H 0.28056 0.4922 0.40623 0.0
H575 H 0.26486 0.44255 0.42678 0.0
H576 H 0.06418 0.1377 0.59228 0.0
H577 H 0.98946 0.36214 0.59333 0.0
H578 H 0.94242 0.17103 0.58434 0.0
H579 H 0.11075 0.32936 0.58398 0.0
H580 H 0.9721 0.292 0.59493 0.0
H581 H 0.08177 0.20779 0.59412 0.0
C582 C 0.04106 0.1597 0.59108 0.0
C583 C 0.00176 0.14841 0.58806 0.0
C584 C 0.00253 0.30022 0.5926 0.0
C585 C 0.02179 0.22866 0.59021 0.0
C586 C 0.01255 0.34025 0.59176 0.0
C587 C 0.05163 0.35172 0.58842 0.0
C588 C 0.03185 0.27137 0.59029 0.0
C589 C 0.0802 0.32192 0.58645 0.0
C590 C 0.0512 0.19969 0.59205 0.0
C591 C 0.97312 0.17832 0.58655 0.0
N592 N 0.06975 0.28313 0.58742 0.0
N593 N 0.9837 0.21706 0.58765 0.0
H594 H 0.9119 0.71311 0.84287 0.0
H595 H 0.13687 0.78604 0.84352 0.0
H596 H 0.94609 0.83457 0.8348 0.0
H597 H 0.10308 0.66507 0.8341 0.0
H598 H 0.0669 0.8039 0.84531 0.0
H599 H 0.98185 0.69496 0.84462 0.0
C600 C 0.93406 0.73606 0.84163 0.0
C601 C 0.92305 0.77543 0.8386 0.0
C602 C 0.07486 0.77343 0.84293 0.0
C603 C 0.00315 0.75476 0.84064 0.0
C604 C 0.11479 0.76312 0.84198 0.0
C605 C 0.12593 0.72398 0.83856 0.0
C606 C 0.04577 0.74435 0.84064 0.0
C607 C 0.0959 0.69564 0.83663 0.0
C608 C 0.97397 0.7256 0.84254 0.0
C609 C 0.95317 0.80382 0.83702 0.0
N610 N 0.0572 0.70639 0.8377 0.0
N611 N 0.99183 0.79293 0.83807 0.0
H612 H 0.44035 0.67113 0.08426 0.0
H613 H 0.61321 0.83053 0.08386 0.0
H614 H 0.56274 0.63975 0.09192 0.0
H615 H 0.4914 0.8612 0.09324 0.0
H616 H 0.59547 0.76044 0.08549 0.0
H617 H 0.45839 0.74107 0.08618 0.0
C618 C 0.47098 0.67891 0.08641 0.0
C619 C 0.50009 0.64948 0.08787 0.0
C620 C 0.57272 0.78254 0.08732 0.0
C621 C 0.52095 0.72951 0.08994 0.0
C622 C 0.58279 0.82256 0.08635 0.0
C623 C 0.55373 0.85184 0.08836 0.0
C624 C 0.53319 0.77167 0.09006 0.0
C625 C 0.51481 0.8397 0.09164 0.0
C626 C 0.48122 0.71884 0.08757 0.0
C627 C 0.53929 0.66138 0.09075 0.0
N628 N 0.50561 0.80056 0.09222 0.0
N629 N 0.54863 0.70047 0.09152 0.0
H630 H 0.60401 0.16282 0.33332 0.0
H631 H 0.44514 0.3365 0.33423 0.0
H632 H 0.63548 0.28471 0.34208 0.0
H633 H 0.41371 0.21415 0.34192 0.0
H634 H 0.51511 0.31824 0.33571 0.0
H635 H 0.53405 0.18099 0.33504 0.0
C636 C 0.59625 0.19337 0.33567 0.0
C637 C 0.62574 0.2223 0.33752 0.0
C638 C 0.49287 0.29547 0.33719 0.0
C639 C 0.54566 0.24331 0.33934 0.0
C640 C 0.45292 0.30583 0.3363 0.0
C641 C 0.42344 0.2768 0.33791 0.0
C642 C 0.50352 0.25569 0.33945 0.0
C643 C 0.43536 0.23755 0.34066 0.0
C644 C 0.5563 0.20368 0.3367 0.0
C645 C 0.61383 0.26139 0.34062 0.0
N646 N 0.47445 0.22809 0.34118 0.0
N647 N 0.57474 0.27081 0.34128 0.0
H648 H 0.93784 0.82885 0.41568 0.0
H649 H 0.11097 0.66962 0.41541 0.0
H650 H 0.05976 0.85984 0.4067 0.0
H651 H 0.98861 0.63831 0.40764 0.0
H652 H 0.09293 0.73959 0.41351 0.0
H653 H 0.95575 0.75882 0.41401 0.0
C654 C 0.96833 0.82096 0.41327 0.0
C655 C 0.99736 0.85032 0.41138 0.0
C656 C 0.07011 0.71737 0.4121 0.0
C657 C 0.01809 0.7702 0.40963 0.0
C658 C 0.08035 0.67742 0.41323 0.0
C659 C 0.05124 0.648 0.41174 0.0
C660 C 0.03039 0.72805 0.40972 0.0
C661 C 0.01206 0.65993 0.40884 0.0
C662 C 0.9785 0.78098 0.41227 0.0
C663 C 0.03637 0.83828 0.4082 0.0
N664 N 0.00272 0.69902 0.40809 0.0
N665 N 0.04566 0.79916 0.4076 0.0
H666 H 0.44666 0.66361 0.66638 0.0
H667 H 0.60495 0.83757 0.66481 0.0
H668 H 0.41491 0.78523 0.65717 0.0
H669 H 0.63689 0.71522 0.65747 0.0
H670 H 0.53508 0.81908 0.66319 0.0
H671 H 0.51659 0.68179 0.66433 0.0
C672 C 0.45435 0.69408 0.66385 0.0
C673 C 0.42481 0.72295 0.662 0.0
C674 C 0.5574 0.79635 0.6618 0.0
C675 C 0.50481 0.74398 0.6598 0.0
C676 C 0.5973 0.80685 0.66277 0.0
C677 C 0.62688 0.77789 0.66133 0.0
C678 C 0.54691 0.7565 0.65964 0.0
C679 C 0.61514 0.73857 0.65861 0.0
C680 C 0.49428 0.7044 0.66263 0.0
C681 C 0.43661 0.76195 0.65865 0.0
N682 N 0.57608 0.72897 0.65803 0.0
N683 N 0.47566 0.77139 0.65783 0.0
H684 H 0.56106 0.36162 0.90738 0.0
H685 H 0.48718 0.13697 0.90776 0.0
H686 H 0.43959 0.32845 0.91612 0.0
H687 H 0.6085 0.17064 0.91651 0.0
H688 H 0.46936 0.20702 0.90602 0.0
H689 H 0.57873 0.29156 0.90592 0.0
C690 C 0.538 0.33966 0.90885 0.0
C691 C 0.49877 0.351 0.91197 0.0
C692 C 0.49989 0.199 0.90825 0.0
C693 C 0.51891 0.27073 0.91024 0.0
C694 C 0.51017 0.15904 0.90916 0.0
C695 C 0.54941 0.14786 0.91237 0.0
C696 C 0.52911 0.22805 0.91033 0.0
C697 C 0.57785 0.17785 0.91414 0.0
C698 C 0.5482 0.29967 0.90809 0.0
C699 C 0.47024 0.32111 0.91382 0.0
N700 N 0.56715 0.21656 0.91309 0.0
N701 N 0.48087 0.28235 0.91292 0.0
H702 H 0.10545 0.3381 0.16525 0.0
H703 H 0.94708 0.16401 0.16558 0.0
H704 H 0.13728 0.21599 0.15721 0.0
H705 H 0.9154 0.28613 0.15743 0.0
H706 H 0.01701 0.1823 0.1638 0.0
H707 H 0.03557 0.31968 0.16366 0.0
C708 C 0.09778 0.30745 0.16308 0.0
C709 C 0.12733 0.27853 0.16142 0.0
C710 C 0.99471 0.20501 0.16229 0.0
C711 C 0.04735 0.25723 0.15974 0.0
C712 C 0.95478 0.19463 0.16335 0.0
C713 C 0.92526 0.22359 0.16171 0.0
C714 C 0.00526 0.24474 0.15981 0.0
C715 C 0.93708 0.26277 0.15875 0.0
C716 C 0.05787 0.29699 0.16212 0.0
C717 C 0.11555 0.2393 0.15853 0.0
N718 N 0.97614 0.27225 0.15805 0.0
N719 N 0.07649 0.22974 0.15795 0.0
H720 H 0.01263 0.91723 0.46884 0.0
H721 H 0.01128 0.08149 0.52996 0.0
H722 H 0.05261 0.03318 0.45488 0.0
H723 H 0.05447 0.9666 0.54382 0.0
H724 H 0.02648 0.06556 0.50236 0.0
H725 H 0.02815 0.93343 0.4964 0.0
C726 C 0.02575 0.94568 0.47158 0.0
C727 C 0.03156 0.97391 0.45968 0.0
C728 C 0.03367 0.04428 0.51149 0.0
C729 C 0.04785 0.9931 0.49104 0.0
C730 C 0.02497 0.05333 0.52719 0.0
C731 C 0.03178 0.0253 0.53909 0.0
C732 C 0.04782 0.00643 0.50766 0.0
C733 C 0.04915 0.98906 0.53495 0.0
C734 C 0.03461 0.95489 0.48725 0.0
C735 C 0.04813 0.01055 0.46376 0.0
N736 N 0.05561 0.98018 0.51949 0.0
N737 N 0.05472 0.01956 0.47921 0.0
H738 H 0.19274 0.73588 0.78055 0.0
H739 H 0.35758 0.73741 0.7197 0.0
H740 H 0.30772 0.77827 0.79467 0.0
H741 H 0.2419 0.77797 0.70563 0.0
H742 H 0.34118 0.75272 0.74725 0.0
H743 H 0.20894 0.75156 0.75301 0.0
C744 C 0.22097 0.74952 0.77785 0.0
C745 C 0.24895 0.75595 0.7898 0.0
C746 C 0.31982 0.75935 0.73808 0.0
C747 C 0.26814 0.77251 0.75845 0.0
C748 C 0.32915 0.7506 0.72241 0.0
C749 C 0.30105 0.75662 0.71048 0.0
C750 C 0.28163 0.77269 0.74184 0.0
C751 C 0.26444 0.7733 0.71454 0.0
C752 C 0.23018 0.75849 0.76219 0.0
C753 C 0.28529 0.77325 0.78575 0.0
N754 N 0.25531 0.77978 0.72998 0.0
N755 N 0.29433 0.77996 0.77032 0.0
H756 H 0.49627 0.03438 0.04538 0.0
H757 H 0.49653 0.9641 0.95538 0.0
H758 H 0.53747 0.91937 0.03073 0.0
H759 H 0.537 0.07933 0.9701 0.0
H760 H 0.48201 0.94789 0.98312 0.0
H761 H 0.4816 0.0504 0.01765 0.0
C762 C 0.50076 0.01202 0.03639 0.0
C763 C 0.51812 0.97557 0.04023 0.0
C764 C 0.49292 0.9771 0.98015 0.0
C765 C 0.50119 0.99346 0.0088 0.0
C766 C 0.50094 0.98645 0.96439 0.0
C767 C 0.51804 0.02303 0.96057 0.0
C768 C 0.50122 0.00493 0.99199 0.0
C769 C 0.52392 0.05078 0.97265 0.0
C770 C 0.49268 0.02126 0.02063 0.0
C771 C 0.52415 0.94781 0.02816 0.0
N772 N 0.5157 0.0411 0.98788 0.0
N773 N 0.51588 0.95739 0.01293 0.0
H774 H 0.31052 0.22558 0.20475 0.0
H775 H 0.23929 0.22532 0.29461 0.0
H776 H 0.1959 0.26846 0.21915 0.0
H777 H 0.35483 0.26601 0.28039 0.0
H778 H 0.22335 0.21208 0.26674 0.0
H779 H 0.32623 0.2114 0.23256 0.0
C780 C 0.2882 0.23065 0.21371 0.0
C781 C 0.25194 0.24825 0.20978 0.0
C782 C 0.25256 0.22278 0.26984 0.0
C783 C 0.26943 0.23178 0.24128 0.0
C784 C 0.26175 0.23006 0.28567 0.0
C785 C 0.29837 0.24678 0.28968 0.0
C786 C 0.28059 0.23143 0.25811 0.0
C787 C 0.32627 0.25316 0.27769 0.0
C788 C 0.29726 0.22282 0.22951 0.0
C789 C 0.22421 0.25496 0.2218 0.0
N790 N 0.31675 0.24561 0.26239 0.0
N791 N 0.23358 0.24685 0.23707 0.0
H792 H 0.74231 0.27706 0.20507 0.0
H793 H 0.81224 0.27309 0.29509 0.0
H794 H 0.85586 0.23153 0.21953 0.0
H795 H 0.69594 0.23567 0.28045 0.0
H796 H 0.8289 0.28671 0.26732 0.0
H797 H 0.72646 0.29068 0.23292 0.0
C798 C 0.76439 0.27126 0.21406 0.0
C799 C 0.80036 0.25309 0.21012 0.0
C800 C 0.7994 0.27665 0.27031 0.0
C801 C 0.7827 0.26891 0.24166 0.0
C802 C 0.7898 0.26917 0.28608 0.0
C803 C 0.75271 0.25327 0.28994 0.0
C804 C 0.77133 0.26903 0.25848 0.0
C805 C 0.72484 0.2479 0.27787 0.0
C806 C 0.75524 0.27878 0.22988 0.0
C807 C 0.82777 0.24546 0.22217 0.0
N808 N 0.73476 0.25563 0.26262 0.0
N809 N 0.81832 0.25328 0.23746 0.0
H810 H 0.69322 0.76761 0.71926 0.0
H811 H 0.85655 0.76476 0.78077 0.0
H812 H 0.80802 0.72378 0.7056 0.0
H813 H 0.74034 0.72476 0.79439 0.0
H814 H 0.84062 0.74985 0.75314 0.0
H815 H 0.70869 0.75212 0.74688 0.0
C816 C 0.72126 0.75373 0.72208 0.0
C817 C 0.7494 0.74682 0.71024 0.0
C818 C 0.81903 0.74328 0.76223 0.0
C819 C 0.76775 0.73044 0.74168 0.0
C820 C 0.82808 0.75181 0.77794 0.0
C821 C 0.79971 0.74581 0.78977 0.0
C822 C 0.78086 0.73016 0.75832 0.0
C823 C 0.76307 0.72942 0.78556 0.0
C824 C 0.73004 0.74486 0.73779 0.0
C825 C 0.78548 0.72919 0.71443 0.0
N826 N 0.75423 0.72313 0.77009 0.0
N827 N 0.79412 0.72256 0.72991 0.0
H828 H 0.55158 0.53519 0.95458 0.0
H829 H 0.55218 0.46504 0.04459 0.0
H830 H 0.50864 0.42089 0.96935 0.0
H831 H 0.51257 0.58081 0.03019 0.0
H832 H 0.56531 0.44871 0.01676 0.0
H833 H 0.56623 0.55125 0.98232 0.0
C834 C 0.54657 0.51301 0.96361 0.0
C835 C 0.52882 0.47674 0.95979 0.0
C836 C 0.55489 0.47806 0.01981 0.0
C837 C 0.54583 0.49464 0.99122 0.0
C838 C 0.54769 0.48747 0.03562 0.0
C839 C 0.53126 0.52426 0.03957 0.0
C840 C 0.54645 0.50602 0.00803 0.0
C841 C 0.52519 0.55211 0.02754 0.0
C842 C 0.55468 0.52227 0.97936 0.0
C843 C 0.52222 0.44921 0.9719 0.0
N844 N 0.53263 0.54237 0.01225 0.0
N845 N 0.5306 0.45877 0.98712 0.0
H846 H 0.99969 0.53635 0.54531 0.0
H847 H 0.99706 0.4656 0.45538 0.0
H848 H 0.03791 0.42014 0.53088 0.0
H849 H 0.04179 0.57949 0.46979 0.0
H850 H 0.98307 0.44993 0.48321 0.0
H851 H 0.98605 0.55264 0.5175 0.0
C852 C 0.00376 0.51383 0.53634 0.0
C853 C 0.01992 0.4769 0.54027 0.0
C854 C 0.99486 0.47874 0.48016 0.0
C855 C 0.00416 0.4951 0.50876 0.0
C856 C 0.00258 0.48779 0.46435 0.0
C857 C 0.02064 0.52382 0.4604 0.0
C858 C 0.00441 0.50635 0.49194 0.0
C859 C 0.02794 0.55136 0.47244 0.0
C860 C 0.99627 0.52322 0.52054 0.0
C861 C 0.02548 0.44893 0.52824 0.0
N862 N 0.01993 0.54201 0.48772 0.0
N863 N 0.01776 0.45865 0.51297 0.0
H864 H 0.26544 0.86213 0.64181 0.0
H865 H 0.05149 0.89369 0.60314 0.0
H866 H 0.17154 0.77599 0.64532 0.0
H867 H 0.13876 0.9863 0.60755 0.0
H868 H 0.09652 0.84832 0.61682 0.0
H869 H 0.22038 0.90676 0.62802 0.0
C870 C 0.23521 0.85271 0.63979 0.0
C871 C 0.2222 0.81529 0.64475 0.0
C872 C 0.10583 0.87854 0.61474 0.0
C873 C 0.17052 0.86611 0.62874 0.0
C874 C 0.08027 0.90437 0.60683 0.0
C875 C 0.0914 0.94384 0.60421 0.0
C876 C 0.14285 0.89225 0.61996 0.0
C877 C 0.12893 0.95614 0.60934 0.0
C878 C 0.2095 0.8782 0.63187 0.0
C879 C 0.18274 0.80466 0.64177 0.0
N880 N 0.15326 0.93047 0.61697 0.0
N881 N 0.15833 0.82986 0.63387 0.0
H882 H 0.28643 0.8619 0.85785 0.0
H883 H 0.50076 0.89324 0.89616 0.0
H884 H 0.37982 0.77518 0.85448 0.0
H885 H 0.41367 0.986 0.89164 0.0
H886 H 0.45563 0.84787 0.88253 0.0
H887 H 0.3319 0.90663 0.87135 0.0
C888 C 0.31664 0.85238 0.85984 0.0
C889 C 0.32937 0.81476 0.85502 0.0
C890 C 0.4464 0.87813 0.88456 0.0
C891 C 0.38155 0.86571 0.87069 0.0
C892 C 0.47202 0.90396 0.89244 0.0
C893 C 0.46094 0.94346 0.89504 0.0
C894 C 0.40939 0.89188 0.87935 0.0
C895 C 0.42346 0.95582 0.88988 0.0
C896 C 0.34258 0.87792 0.86759 0.0
C897 C 0.36883 0.804 0.85794 0.0
N898 N 0.39908 0.93015 0.88229 0.0
N899 N 0.39349 0.82927 0.86568 0.0
H900 H 0.41382 0.01087 0.10911 0.0
H901 H 0.3815 0.22683 0.14575 0.0
H902 H 0.4992 0.10517 0.10452 0.0
H903 H 0.2886 0.13976 0.1417 0.0
H904 H 0.42691 0.18106 0.13253 0.0
H905 H 0.36887 0.05655 0.12245 0.0
C906 C 0.42301 0.04128 0.11081 0.0
C907 C 0.4603 0.05425 0.10567 0.0
C908 C 0.39662 0.17196 0.13458 0.0
C909 C 0.40915 0.10662 0.12114 0.0
C910 C 0.37075 0.19795 0.14222 0.0
C911 C 0.3312 0.18708 0.14482 0.0
C912 C 0.38288 0.13474 0.12961 0.0
C913 C 0.31883 0.14939 0.13992 0.0
C914 C 0.39734 0.06734 0.11846 0.0
C915 C 0.47065 0.09397 0.10823 0.0
N916 N 0.34456 0.12461 0.13255 0.0
N917 N 0.4453 0.11871 0.11587 0.0
H918 H 0.1371 0.00966 0.39108 0.0
H919 H 0.16923 0.22491 0.35372 0.0
H920 H 0.05129 0.10372 0.3951 0.0
H921 H 0.26219 0.13798 0.35807 0.0
H922 H 0.12383 0.17937 0.36707 0.0
H923 H 0.18208 0.05518 0.37768 0.0
C924 C 0.12783 0.04 0.38925 0.0
C925 C 0.0904 0.05293 0.39424 0.0
C926 C 0.15413 0.17024 0.36505 0.0
C927 C 0.1416 0.10514 0.37869 0.0
C928 C 0.18 0.19611 0.35734 0.0
C929 C 0.21957 0.18522 0.35478 0.0
C930 C 0.16789 0.13313 0.37015 0.0
C931 C 0.23195 0.14762 0.35981 0.0
C932 C 0.15351 0.06597 0.38156 0.0
C933 C 0.07995 0.09256 0.39151 0.0
N934 N 0.20622 0.12297 0.36725 0.0
N935 N 0.10533 0.11721 0.38383 0.0
H936 H 0.9153 0.04954 0.41156 0.0
H937 H 0.74558 0.13728 0.38016 0.0
H938 H 0.91194 0.97617 0.36997 0.0
H939 H 0.82417 0.13796 0.34007 0.0
H940 H 0.78599 0.08414 0.39205 0.0
H941 H 0.85979 0.08797 0.4013 0.0
C942 C 0.90189 0.04068 0.4005 0.0
C943 C 0.91667 0.00834 0.39198 0.0
C944 C 0.7935 0.09538 0.38045 0.0
C945 C 0.85499 0.05374 0.37973 0.0
C946 C 0.77064 0.12551 0.37372 0.0
C947 C 0.78089 0.1409 0.35891 0.0
C948 C 0.82668 0.08095 0.37226 0.0
C949 C 0.81429 0.12559 0.35118 0.0
C950 C 0.87044 0.06276 0.39464 0.0
C951 C 0.90043 1.00015 0.37709 0.0
N952 N 0.83591 0.09625 0.3579 0.0
N953 N 0.87065 0.02316 0.37129 0.0
H954 H 0.63472 0.05156 0.08792 0.0
H955 H 0.8041 0.14102 0.11909 0.0
H956 H 0.63943 0.97838 0.12955 0.0
H957 H 0.72621 0.14046 0.15941 0.0
H958 H 0.76376 0.08791 0.10714 0.0
H959 H 0.68992 0.09065 0.09804 0.0
C960 C 0.64838 0.04288 0.09896 0.0
C961 C 0.63405 0.01042 0.10754 0.0
C962 C 0.75636 0.09892 0.11879 0.0
C963 C 0.69535 0.05657 0.11963 0.0
C964 C 0.77918 0.12902 0.12556 0.0
C965 C 0.76914 0.144 0.14046 0.0
C966 C 0.72345 0.08409 0.12704 0.0
C967 C 0.73591 0.12842 0.14821 0.0
C968 C 0.67964 0.06534 0.10475 0.0
C969 C 0.65059 0.00246 0.12239 0.0
N970 N 0.71436 0.09909 0.14147 0.0
N971 N 0.68016 0.02583 0.12812 0.0
H972 H 0.72618 0.86296 0.83854 0.0
H973 H 0.63691 0.95103 0.91218 0.0
H974 H 0.79845 0.86072 0.88045 0.0
H975 H 0.63593 0.02412 0.87049 0.0
H976 H 0.69182 0.91297 0.90118 0.0
H977 H 0.68809 0.91772 0.84964 0.0
C978 C 0.73493 0.87502 0.84986 0.0
C979 C 0.76677 0.85876 0.85827 0.0
C980 C 0.68031 0.938 0.89463 0.0
C981 C 0.72135 0.91917 0.87151 0.0
C982 C 0.64929 0.95997 0.90094 0.0
C983 C 0.63333 0.99201 0.89257 0.0
C984 C 0.69388 0.94663 0.87941 0.0
C985 C 0.64826 1.00028 0.87747 0.0
C986 C 0.71295 0.90596 0.85622 0.0
C987 C 0.77479 0.87329 0.87344 0.0
N988 N 0.67746 0.9773 0.87123 0.0
N989 N 0.7518 0.90243 0.87972 0.0
H990 H 0.82509 0.86254 0.66151 0.0
H991 H 0.91535 0.951 0.58791 0.0
H992 H 0.75313 0.86154 0.61951 0.0
H993 H 0.91695 0.02336 0.6298 0.0
H994 H 0.86052 0.91282 0.59892 0.0
H995 H 0.86405 0.91682 0.6505 0.0
C996 C 0.81662 0.87476 0.65018 0.0
C997 C 0.78461 0.85902 0.64173 0.0
C998 C 0.87218 0.9377 0.60552 0.0
C999 C 0.83096 0.91886 0.62859 0.0
C1000 C 0.90317 0.95972 0.59921 0.0
C1001 C 0.91923 0.99163 0.60763 0.0
C1002 C 0.85872 0.94617 0.62077 0.0
C1003 C 0.90452 0.99964 0.62278 0.0
C1004 C 0.83909 0.90543 0.64387 0.0
C1005 C 0.77692 0.87373 0.62655 0.0
N1006 N 0.87531 0.97664 0.62901 0.0
N1007 N 0.80035 0.9026 0.62033 0.0
H1008 H 0.76538 0.36392 0.14256 0.0
H1009 H 0.55163 0.3953 0.10374 0.0
H1010 H 0.67206 0.27697 0.14522 0.0
H1011 H 0.63809 0.4885 0.10868 0.0
H1012 H 0.59675 0.35001 0.11737 0.0
H1013 H 0.72003 0.40902 0.12913 0.0
C1014 C 0.73523 0.35443 0.14044 0.0
C1015 C 0.72247 0.31663 0.14503 0.0
C1016 C 0.60586 0.38035 0.11543 0.0
C1017 C 0.67049 0.36796 0.12944 0.0
C1018 C 0.58024 0.40614 0.10755 0.0
C1019 C 0.59112 0.44574 0.10507 0.0
C1020 C 0.64272 0.3942 0.12077 0.0
C1021 C 0.62846 0.45823 0.11035 0.0
C1022 C 0.70936 0.38017 0.13273 0.0
C1023 C 0.68308 0.30591 0.14194 0.0
N1024 N 0.65288 0.43257 0.11795 0.0
N1025 N 0.65854 0.33135 0.13425 0.0
H1026 H 0.87961 0.27342 0.35462 0.0
H1027 H 0.91103 0.48792 0.39275 0.0
H1028 H 0.78649 0.36011 0.35915 0.0
H1029 H 0.99773 0.39446 0.39591 0.0
H1030 H 0.86593 0.44234 0.37945 0.0
H1031 H 0.92479 0.31867 0.36823 0.0
C1032 C 0.86876 0.30211 0.35834 0.0
C1033 C 0.82922 0.31303 0.35574 0.0
C1034 C 0.89472 0.43169 0.38312 0.0
C1035 C 0.88064 0.36479 0.37141 0.0
C1036 C 0.92047 0.45769 0.39076 0.0
C1037 C 0.9582 0.44496 0.39546 0.0
C1038 C 0.90687 0.3927 0.38002 0.0
C1039 C 0.96885 0.40547 0.39254 0.0
C1040 C 0.89449 0.32781 0.36621 0.0
C1041 C 0.81671 0.35046 0.36091 0.0
N1042 N 0.94341 0.3808 0.38492 0.0
N1043 N 0.84232 0.37496 0.36849 0.0
H1044 H 0.91334 0.5118 0.60853 0.0
H1045 H 0.88156 0.72616 0.64676 0.0
H1046 H 1.00003 0.60526 0.60539 0.0
H1047 H 0.78847 0.63959 0.6418 0.0
H1048 H 0.92714 0.68076 0.63341 0.0
H1049 H 0.86842 0.5572 0.622 0.0
C1050 C 0.92282 0.54199 0.61057 0.0
C1051 C 0.96048 0.55478 0.6058 0.0
C1052 C 0.89676 0.67168 0.63529 0.0
C1053 C 0.90932 0.60685 0.62144 0.0
C1054 C 0.87081 0.69746 0.64301 0.0
C1055 C 0.83115 0.68664 0.64539 0.0
C1056 C 0.883 0.63474 0.63001 0.0
C1057 C 0.81878 0.64919 0.6402 0.0
C1058 C 0.89717 0.56789 0.6183 0.0
C1059 C 0.97119 0.59422 0.6088 0.0
N1060 N 0.84458 0.62463 0.63275 0.0
N1061 N 0.94582 0.61882 0.61651 0.0
H1062 H 0.66812 0.72613 0.85359 0.0
H1063 H 0.63675 0.51153 0.89172 0.0
H1064 H 0.76098 0.63918 0.85817 0.0
H1065 H 0.54953 0.60455 0.89463 0.0
H1066 H 0.68157 0.55709 0.87829 0.0
H1067 H 0.62259 0.6807 0.86697 0.0
C1068 C 0.67882 0.69735 0.85726 0.0
C1069 C 0.7184 0.68642 0.85476 0.0
C1070 C 0.65271 0.56766 0.88193 0.0
C1071 C 0.66664 0.6345 0.87017 0.0
C1072 C 0.62712 0.54166 0.88964 0.0
C1073 C 0.58935 0.55428 0.89432 0.0
C1074 C 0.64039 0.60654 0.87874 0.0
C1075 C 0.57846 0.59365 0.89128 0.0
C1076 C 0.65291 0.67156 0.86499 0.0
C1077 C 0.73074 0.64887 0.85986 0.0
N1078 N 0.60378 0.61835 0.8836 0.0
N1079 N 0.70499 0.62432 0.86732 0.0
H1080 H 0.4135 0.47103 0.86941 0.0
H1081 H 0.32434 0.63961 0.83782 0.0
H1082 H 0.41346 0.54928 0.90961 0.0
H1083 H 0.2522 0.63738 0.87978 0.0
H1084 H 0.36296 0.58428 0.8481 0.0
H1085 H 0.36026 0.51126 0.8575 0.0
C1086 C 0.40157 0.496 0.87587 0.0
C1087 C 0.41679 0.5062 0.89071 0.0
C1088 C 0.33797 0.59511 0.85485 0.0
C1089 C 0.35675 0.55184 0.87732 0.0
C1090 C 0.31576 0.62646 0.84898 0.0
C1091 C 0.28372 0.64154 0.8576 0.0
C1092 C 0.32939 0.58005 0.86986 0.0
C1093 C 0.27594 0.62564 0.87258 0.0
C1094 C 0.3714 0.51877 0.86912 0.0
C1095 C 0.40125 0.53945 0.89846 0.0
N1096 N 0.29907 0.59596 0.87838 0.0
N1097 N 0.37189 0.56101 0.89173 0.0
H1098 H 0.13683 0.54957 0.58895 0.0
H1099 H 0.22647 0.63896 0.66211 0.0
H1100 H 0.13655 0.47632 0.6306 0.0
H1101 H 0.29961 0.63875 0.62042 0.0
H1102 H 0.18794 0.58422 0.65121 0.0
H1103 H 0.19161 0.58788 0.59991 0.0
C1104 C 0.14931 0.54068 0.60018 0.0
C1105 C 0.13364 0.50847 0.60854 0.0
C1106 C 0.21307 0.59545 0.64464 0.0
C1107 C 0.19405 0.55411 0.62165 0.0
C1108 C 0.23529 0.62637 0.65089 0.0
C1109 C 0.26751 0.64191 0.64249 0.0
C1110 C 0.22165 0.58156 0.62946 0.0
C1111 C 0.27565 0.62673 0.62743 0.0
C1112 C 0.18026 0.56278 0.60646 0.0
C1113 C 0.14868 0.50027 0.62362 0.0
N1114 N 0.25244 0.59763 0.62125 0.0
N1115 N 0.17783 0.52337 0.62984 0.0
H1116 H 0.13412 0.52476 0.36955 0.0
H1117 H 0.30003 0.36041 0.38052 0.0
H1118 H 0.13465 0.44924 0.41057 0.0
H1119 H 0.22482 0.36054 0.33941 0.0
H1120 H 0.25893 0.41376 0.39193 0.0
H1121 H 0.18796 0.48428 0.35816 0.0
C1122 C 0.14633 0.50043 0.37631 0.0
C1123 C 0.13122 0.49118 0.39128 0.0
C1124 C 0.25246 0.40273 0.3802 0.0
C1125 C 0.19226 0.44572 0.37856 0.0
C1126 C 0.27566 0.37246 0.37375 0.0
C1127 C 0.26666 0.35736 0.35875 0.0
C1128 C 0.22049 0.41786 0.37148 0.0
C1129 C 0.23395 0.37285 0.35064 0.0
C1130 C 0.17689 0.47759 0.36987 0.0
C1131 C 0.14694 0.45854 0.39937 0.0
N1132 N 0.21219 0.40251 0.35703 0.0
N1133 N 0.17687 0.43713 0.39298 0.0
H1134 H 0.41566 0.52734 0.12997 0.0
H1135 H 0.25029 0.36241 0.11904 0.0
H1136 H 0.41563 0.45138 0.08908 0.0
H1137 H 0.3256 0.3629 0.16012 0.0
H1138 H 0.29104 0.41604 0.10763 0.0
H1139 H 0.36166 0.48699 0.14132 0.0
C1140 C 0.4035 0.50296 0.12322 0.0
C1141 C 0.41883 0.49353 0.10831 0.0
C1142 C 0.29759 0.40503 0.11937 0.0
C1143 C 0.35761 0.44823 0.12097 0.0
C1144 C 0.2746 0.3746 0.12581 0.0
C1145 C 0.28374 0.35951 0.1408 0.0
C1146 C 0.32948 0.42032 0.12807 0.0
C1147 C 0.31636 0.37519 0.14891 0.0
C1148 C 0.37286 0.4802 0.12964 0.0
C1149 C 0.40318 0.46083 0.10023 0.0
N1150 N 0.33792 0.40499 0.14251 0.0
N1151 N 0.37317 0.43949 0.10659 0.0
loop_
_geom_bond_atom_site_label_1
_geom_bond_atom_site_label_2
_geom_bond_distance
_geom_bond_site_symmetry_2
_ccdc_geom_bond_type
Mn0 O5 2.095 . S
Mn0 O15 2.162 . S
Mn0 O16 2.297 1_545 S
Mn0 O24 2.385 1_455 S
Mn0 O25 2.209 1_455 S
Mn0 O26 2.094 . S
Mn1 O6 2.121 . S
Mn1 N8 2.257 . S
Mn1 N17 2.282 . S
Mn1 O25 2.215 . S
Mn1 O27 2.117 . S
C2 O24 1.234 . S
C2 O25 1.283 . S
C3 O15 1.281 1_565 S
C3 O16 1.236 . S
C4 O26 1.242 1_655 S
C4 O27 1.262 . S
O5 Mn0 2.095 . S
O5 C14 1.250 . S
O6 Mn1 2.121 . S
O6 C14 1.258 1_655 S
C7 N8 1.326 1_565 S
C7 C11 1.460 . S
C7 H13 0.929 . S
N8 Mn1 2.257 . S
N8 C7 1.326 1_545 S
N8 C12 1.362 . S
C9 C10 1.258 . S
C9 C12 1.431 1_565 S
C9 C29 1.448 1_565 S
C10 C9 1.258 . S
C10 C11 1.477 . S
C10 H30 0.931 . S
C11 C7 1.460 . S
C11 C10 1.477 . S
C11 H31 0.930 . S
C12 N8 1.362 . S
C12 C9 1.431 1_545 S
C12 C22 1.476 . S
H13 C7 0.929 . S
C14 O5 1.250 . S
C14 O6 1.258 1_455 S
O15 Mn0 2.162 . S
O15 C3 1.281 1_545 S
O16 Mn0 2.297 1_565 S
O16 C3 1.236 . S
N17 Mn1 2.282 . S
N17 C18 1.328 . S
N17 C22 1.318 . S
C18 N17 1.328 . S
C18 C19 1.457 . S
C18 H23 0.929 . S
C19 C18 1.457 . S
C19 C20 1.291 . S
C19 H32 0.931 . S
C20 C19 1.291 . S
C20 C21 1.373 . S
C20 H33 0.929 . S
C21 C20 1.373 . S
C21 C22 1.396 . S
C21 C28 1.403 . S
C22 C12 1.476 . S
C22 N17 1.318 . S
C22 C21 1.396 . S
H23 C18 0.929 . S
O24 Mn0 2.385 1_655 S
O24 C2 1.234 . S
O25 Mn0 2.209 1_655 S
O25 Mn1 2.215 . S
O25 C2 1.283 . S
O26 Mn0 2.094 . S
O26 C4 1.242 1_455 S
O27 Mn1 2.117 . S
O27 C4 1.262 . S
C28 C21 1.403 . S
C28 C29 1.405 . S
C28 H34 0.929 . S
C29 C9 1.448 1_545 S
C29 C28 1.405 . S
C29 H35 0.925 1_545 S
H30 C10 0.931 . S
H31 C11 0.930 . S
H32 C19 0.931 . S
H33 C20 0.929 . S
H34 C28 0.929 . S
H35 C29 0.925 1_565 S
Mn36 O41 2.095 . S
Mn36 O51 2.162 . S
Mn36 O52 2.297 . S
Mn36 O60 2.385 . S
Mn36 O61 2.209 . S
Mn36 O62 2.094 . S
Mn37 O42 2.121 . S
Mn37 N44 2.257 . S
Mn37 N53 2.282 . S
Mn37 O61 2.215 . S
Mn37 O63 2.117 . S
C38 O60 1.234 . S
C38 O61 1.283 . S
C39 O51 1.281 . S
C39 O52 1.236 . S
C40 O62 1.240 . S
C40 O63 1.264 . S
O41 Mn36 2.095 . S
O41 C50 1.250 . S
O42 Mn37 2.121 . S
O42 C50 1.258 . S
C43 N44 1.326 . S
C43 C47 1.460 . S
C43 H49 0.929 . S
N44 Mn37 2.257 . S
N44 C43 1.326 . S
N44 C48 1.362 . S
C45 C46 1.258 . S
C45 C48 1.431 . S
C45 C65 1.449 . S
C46 C45 1.258 . S
C46 C47 1.477 . S
C46 H66 0.931 . S
C47 C43 1.460 . S
C47 C46 1.477 . S
C47 H67 0.930 . S
C48 N44 1.362 . S
C48 C45 1.431 . S
C48 C58 1.476 . S
H49 C43 0.929 . S
C50 O41 1.250 . S
C50 O42 1.258 . S
O51 Mn36 2.162 . S
O51 C39 1.281 . S
O52 Mn36 2.297 . S
O52 C39 1.236 . S
N53 Mn37 2.282 . S
N53 C54 1.328 . S
N53 C58 1.318 . S
C54 N53 1.328 . S
C54 C55 1.457 . S
C54 H59 0.929 . S
C55 C54 1.457 . S
C55 C56 1.291 . S
C55 H68 0.931 . S
C56 C55 1.291 . S
C56 C57 1.373 . S
C56 H69 0.929 . S
C57 C56 1.373 . S
C57 C58 1.396 . S
C57 C64 1.403 . S
C58 C48 1.476 . S
C58 N53 1.318 . S
C58 C57 1.396 . S
H59 C54 0.929 . S
O60 Mn36 2.385 . S
O60 C38 1.234 . S
O61 Mn36 2.209 . S
O61 Mn37 2.215 . S
O61 C38 1.283 . S
O62 Mn36 2.094 . S
O62 C40 1.240 . S
O63 Mn37 2.117 . S
O63 C40 1.264 . S
C64 C57 1.403 . S
C64 C65 1.399 . S
C64 H70 0.929 . S
C65 C45 1.449 . S
C65 C64 1.399 . S
C65 H71 0.930 . S
H66 C46 0.931 . S
H67 C47 0.930 . S
H68 C55 0.931 . S
H69 C56 0.929 . S
H70 C64 0.929 . S
H71 C65 0.930 . S
Mn72 O77 2.095 . S
Mn72 O87 2.162 . S
Mn72 O88 2.297 1_565 S
Mn72 O96 2.385 . S
Mn72 O97 2.209 . S
Mn72 O98 2.094 . S
Mn73 O78 2.121 . S
Mn73 N80 2.257 . S
Mn73 N89 2.282 . S
Mn73 O97 2.215 . S
Mn73 O99 2.117 . S
C74 O96 1.234 . S
C74 O97 1.283 . S
C75 O87 1.281 1_545 S
C75 O88 1.236 . S
C76 O98 1.240 . S
C76 O99 1.264 . S
O77 Mn72 2.095 . S
O77 C86 1.250 . S
O78 Mn73 2.121 . S
O78 C86 1.258 . S
C79 N80 1.326 1_545 S
C79 C83 1.460 . S
C79 H85 0.929 . S
N80 Mn73 2.257 . S
N80 C79 1.326 1_565 S
N80 C84 1.362 . S
C81 C82 1.258 . S
C81 C84 1.431 1_545 S
C81 C101 1.448 1_545 S
C82 C81 1.258 . S
C82 C83 1.477 . S
C82 H102 0.931 . S
C83 C79 1.460 . S
C83 C82 1.477 . S
C83 H103 0.930 . S
C84 N80 1.362 . S
C84 C81 1.431 1_565 S
C84 C94 1.476 . S
H85 C79 0.929 . S
C86 O77 1.250 . S
C86 O78 1.258 . S
O87 Mn72 2.162 . S
O87 C75 1.281 1_565 S
O88 Mn72 2.297 1_545 S
O88 C75 1.236 . S
N89 Mn73 2.282 . S
N89 C90 1.328 . S
N89 C94 1.318 . S
C90 N89 1.328 . S
C90 C91 1.457 . S
C90 H95 0.929 . S
C91 C90 1.457 . S
C91 C92 1.291 . S
C91 H104 0.931 . S
C92 C91 1.291 . S
C92 C93 1.373 . S
C92 H105 0.929 . S
C93 C92 1.373 . S
C93 C94 1.396 . S
C93 C100 1.403 . S
C94 C84 1.476 . S
C94 N89 1.318 . S
C94 C93 1.396 . S
H95 C90 0.929 . S
O96 Mn72 2.385 . S
O96 C74 1.234 . S
O97 Mn72 2.209 . S
O97 Mn73 2.215 . S
O97 C74 1.283 . S
O98 Mn72 2.094 . S
O98 C76 1.240 . S
O99 Mn73 2.117 . S
O99 C76 1.264 . S
C100 C93 1.403 . S
C100 C101 1.406 . S
C100 H106 0.929 . S
C101 C81 1.448 1_565 S
C101 C100 1.406 . S
C101 H107 0.925 1_565 S
H102 C82 0.931 . S
H103 C83 0.930 . S
H104 C91 0.931 . S
H105 C92 0.929 . S
H106 C100 0.929 . S
H107 C101 0.925 1_545 S
Mn108 O113 2.095 . S
Mn108 O123 2.162 . S
Mn108 O124 2.297 . S
Mn108 O132 2.385 . S
Mn108 O133 2.209 . S
Mn108 O134 2.094 . S
Mn109 O114 2.121 . S
Mn109 N116 2.257 . S
Mn109 N125 2.282 . S
Mn109 O133 2.215 . S
Mn109 O135 2.117 . S
C110 O132 1.234 . S
C110 O133 1.283 . S
C111 O123 1.281 . S
C111 O124 1.236 . S
C112 O134 1.240 . S
C112 O135 1.264 . S
O113 Mn108 2.095 . S
O113 C122 1.250 . S
O114 Mn109 2.121 . S
O114 C122 1.258 . S
C115 N116 1.326 . S
C115 C119 1.460 . S
C115 H121 0.929 . S
N116 Mn109 2.257 . S
N116 C115 1.326 . S
N116 C120 1.362 . S
C117 C118 1.258 . S
C117 C120 1.431 . S
C117 C137 1.449 . S
C118 C117 1.258 . S
C118 C119 1.477 . S
C118 H138 0.931 . S
C119 C115 1.460 . S
C119 C118 1.477 . S
C119 H139 0.930 . S
C120 N116 1.362 . S
C120 C117 1.431 . S
C120 C130 1.476 . S
H121 C115 0.929 . S
C122 O113 1.250 . S
C122 O114 1.258 . S
O123 Mn108 2.162 . S
O123 C111 1.281 . S
O124 Mn108 2.297 . S
O124 C111 1.236 . S
N125 Mn109 2.282 . S
N125 C126 1.328 . S
N125 C130 1.318 . S
C126 N125 1.328 . S
C126 C127 1.457 . S
C126 H131 0.929 . S
C127 C126 1.457 . S
C127 C128 1.291 . S
C127 H140 0.931 . S
C128 C127 1.291 . S
C128 C129 1.373 . S
C128 H141 0.929 . S
C129 C128 1.373 . S
C129 C130 1.396 . S
C129 C136 1.403 . S
C130 C120 1.476 . S
C130 N125 1.318 . S
C130 C129 1.396 . S
H131 C126 0.929 . S
O132 Mn108 2.385 . S
O132 C110 1.234 . S
O133 Mn108 2.209 . S
O133 Mn109 2.215 . S
O133 C110 1.283 . S
O134 Mn108 2.094 . S
O134 C112 1.240 . S
O135 Mn109 2.117 . S
O135 C112 1.264 . S
C136 C129 1.403 . S
C136 C137 1.399 . S
C136 H142 0.929 . S
C137 C117 1.449 . S
C137 C136 1.399 . S
C137 H143 0.930 . S
H138 C118 0.931 . S
H139 C119 0.930 . S
H140 C127 0.931 . S
H141 C128 0.929 . S
H142 C136 0.929 . S
H143 C137 0.930 . S
Mn144 O149 2.095 . S
Mn144 O159 2.162 . S
Mn144 O160 2.297 1_565 S
Mn144 O168 2.385 1_455 S
Mn144 O169 2.209 1_455 S
Mn144 O170 2.094 . S
Mn145 O150 2.121 . S
Mn145 N152 2.257 . S
Mn145 N161 2.282 . S
Mn145 O169 2.215 . S
Mn145 O171 2.117 . S
C146 O168 1.234 . S
C146 O169 1.283 . S
C147 O159 1.281 1_545 S
C147 O160 1.236 . S
C148 O170 1.242 1_655 S
C148 O171 1.262 . S
O149 Mn144 2.095 . S
O149 C158 1.250 . S
O150 Mn145 2.121 . S
O150 C158 1.258 1_655 S
C151 N152 1.326 1_545 S
C151 C155 1.460 . S
C151 H157 0.929 . S
N152 Mn145 2.257 . S
N152 C151 1.326 1_565 S
N152 C156 1.362 . S
C153 C154 1.258 . S
C153 C156 1.431 1_545 S
C153 C173 1.448 1_545 S
C154 C153 1.258 . S
C154 C155 1.477 . S
C154 H174 0.931 . S
C155 C151 1.460 . S
C155 C154 1.477 . S
C155 H175 0.930 . S
C156 N152 1.362 . S
C156 C153 1.431 1_565 S
C156 C166 1.476 . S
H157 C151 0.929 . S
C158 O149 1.250 . S
C158 O150 1.258 1_455 S
O159 Mn144 2.162 . S
O159 C147 1.281 1_565 S
O160 Mn144 2.297 1_545 S
O160 C147 1.236 . S
N161 Mn145 2.282 . S
N161 C162 1.328 . S
N161 C166 1.318 . S
C162 N161 1.328 . S
C162 C163 1.457 . S
C162 H167 0.929 . S
C163 C162 1.457 . S
C163 C164 1.291 . S
C163 H176 0.931 . S
C164 C163 1.291 . S
C164 C165 1.373 . S
C164 H177 0.929 . S
C165 C164 1.373 . S
C165 C166 1.396 . S
C165 C172 1.403 . S
C166 C156 1.476 . S
C166 N161 1.318 . S
C166 C165 1.396 . S
H167 C162 0.929 . S
O168 Mn144 2.385 1_655 S
O168 C146 1.234 . S
O169 Mn144 2.209 1_655 S
O169 Mn145 2.215 . S
O169 C146 1.283 . S
O170 Mn144 2.094 . S
O170 C148 1.242 1_455 S
O171 Mn145 2.117 . S
O171 C148 1.262 . S
C172 C165 1.403 . S
C172 C173 1.405 . S
C172 H178 0.929 . S
C173 C153 1.448 1_565 S
C173 C172 1.405 . S
C173 H179 0.925 1_565 S
H174 C154 0.931 . S
H175 C155 0.930 . S
H176 C163 0.931 . S
H177 C164 0.929 . S
H178 C172 0.929 . S
H179 C173 0.925 1_545 S
Mn180 O185 2.095 . S
Mn180 O195 2.162 . S
Mn180 O196 2.297 . S
Mn180 O204 2.385 . S
Mn180 O205 2.209 . S
Mn180 O206 2.094 . S
Mn181 O186 2.121 . S
Mn181 N188 2.257 . S
Mn181 N197 2.282 . S
Mn181 O205 2.215 . S
Mn181 O207 2.117 . S
C182 O204 1.234 . S
C182 O205 1.283 . S
C183 O195 1.281 . S
C183 O196 1.236 . S
C184 O206 1.240 . S
C184 O207 1.264 . S
O185 Mn180 2.095 . S
O185 C194 1.250 . S
O186 Mn181 2.121 . S
O186 C194 1.258 . S
C187 N188 1.326 . S
C187 C191 1.460 . S
C187 H193 0.929 . S
N188 Mn181 2.257 . S
N188 C187 1.326 . S
N188 C192 1.362 . S
C189 C190 1.258 . S
C189 C192 1.431 . S
C189 C209 1.449 . S
C190 C189 1.258 . S
C190 C191 1.477 . S
C190 H210 0.931 . S
C191 C187 1.460 . S
C191 C190 1.477 . S
C191 H211 0.930 . S
C192 N188 1.362 . S
C192 C189 1.431 . S
C192 C202 1.476 . S
H193 C187 0.929 . S
C194 O185 1.250 . S
C194 O186 1.258 . S
O195 Mn180 2.162 . S
O195 C183 1.281 . S
O196 Mn180 2.297 . S
O196 C183 1.236 . S
N197 Mn181 2.282 . S
N197 C198 1.328 . S
N197 C202 1.318 . S
C198 N197 1.328 . S
C198 C199 1.457 . S
C198 H203 0.929 . S
C199 C198 1.457 . S
C199 C200 1.291 . S
C199 H212 0.931 . S
C200 C199 1.291 . S
C200 C201 1.373 . S
C200 H213 0.929 . S
C201 C200 1.373 . S
C201 C202 1.396 . S
C201 C208 1.403 . S
C202 C192 1.476 . S
C202 N197 1.318 . S
C202 C201 1.396 . S
H203 C198 0.929 . S
O204 Mn180 2.385 . S
O204 C182 1.234 . S
O205 Mn180 2.209 . S
O205 Mn181 2.215 . S
O205 C182 1.283 . S
O206 Mn180 2.094 . S
O206 C184 1.240 . S
O207 Mn181 2.117 . S
O207 C184 1.264 . S
C208 C201 1.403 . S
C208 C209 1.399 . S
C208 H214 0.929 . S
C209 C189 1.449 . S
C209 C208 1.399 . S
C209 H215 0.930 . S
H210 C190 0.931 . S
H211 C191 0.930 . S
H212 C199 0.931 . S
H213 C200 0.929 . S
H214 C208 0.929 . S
H215 C209 0.930 . S
Mn216 O221 2.095 . S
Mn216 O231 2.162 . S
Mn216 O232 2.297 1_545 S
Mn216 O240 2.385 . S
Mn216 O241 2.209 . S
Mn216 O242 2.094 . S
Mn217 O222 2.121 . S
Mn217 N224 2.257 . S
Mn217 N233 2.282 . S
Mn217 O241 2.215 . S
Mn217 O243 2.117 . S
C218 O240 1.234 . S
C218 O241 1.283 . S
C219 O231 1.281 1_565 S
C219 O232 1.236 . S
C220 O242 1.240 . S
C220 O243 1.264 . S
O221 Mn216 2.095 . S
O221 C230 1.250 . S
O222 Mn217 2.121 . S
O222 C230 1.258 . S
C223 N224 1.326 1_565 S
C223 C227 1.460 . S
C223 H229 0.929 . S
N224 Mn217 2.257 . S
N224 C223 1.326 1_545 S
N224 C228 1.362 . S
C225 C226 1.258 . S
C225 C228 1.431 1_565 S
C225 C245 1.448 1_565 S
C226 C225 1.258 . S
C226 C227 1.477 . S
C226 H246 0.931 . S
C227 C223 1.460 . S
C227 C226 1.477 . S
C227 H247 0.930 . S
C228 N224 1.362 . S
C228 C225 1.431 1_545 S
C228 C238 1.476 . S
H229 C223 0.929 . S
C230 O221 1.250 . S
C230 O222 1.258 . S
O231 Mn216 2.162 . S
O231 C219 1.281 1_545 S
O232 Mn216 2.297 1_565 S
O232 C219 1.236 . S
N233 Mn217 2.282 . S
N233 C234 1.328 . S
N233 C238 1.318 . S
C234 N233 1.328 . S
C234 C235 1.457 . S
C234 H239 0.929 . S
C235 C234 1.457 . S
C235 C236 1.291 . S
C235 H248 0.931 . S
C236 C235 1.291 . S
C236 C237 1.373 . S
C236 H249 0.929 . S
C237 C236 1.373 . S
C237 C238 1.396 . S
C237 C244 1.403 . S
C238 C228 1.476 . S
C238 N233 1.318 . S
C238 C237 1.396 . S
H239 C234 0.929 . S
O240 Mn216 2.385 . S
O240 C218 1.234 . S
O241 Mn216 2.209 . S
O241 Mn217 2.215 . S
O241 C218 1.283 . S
O242 Mn216 2.094 . S
O242 C220 1.240 . S
O243 Mn217 2.117 . S
O243 C220 1.264 . S
C244 C237 1.403 . S
C244 C245 1.406 . S
C244 H250 0.929 . S
C245 C225 1.448 1_545 S
C245 C244 1.406 . S
C245 H251 0.925 1_545 S
H246 C226 0.931 . S
H247 C227 0.930 . S
H248 C235 0.931 . S
H249 C236 0.929 . S
H250 C244 0.929 . S
H251 C245 0.925 1_565 S
Mn252 O257 2.095 . S
Mn252 O267 2.162 . S
Mn252 O268 2.297 . S
Mn252 O276 2.385 . S
Mn252 O277 2.209 . S
Mn252 O278 2.094 . S
Mn253 O258 2.121 . S
Mn253 N260 2.257 . S
Mn253 N269 2.282 . S
Mn253 O277 2.215 . S
Mn253 O279 2.117 . S
C254 O276 1.234 . S
C254 O277 1.283 . S
C255 O267 1.281 . S
C255 O268 1.236 . S
C256 O278 1.240 . S
C256 O279 1.264 . S
O257 Mn252 2.095 . S
O257 C266 1.250 . S
O258 Mn253 2.121 . S
O258 C266 1.258 . S
C259 N260 1.326 . S
C259 C263 1.460 . S
C259 H265 0.929 . S
N260 Mn253 2.257 . S
N260 C259 1.326 . S
N260 C264 1.362 . S
C261 C262 1.258 . S
C261 C264 1.431 . S
C261 C281 1.449 . S
C262 C261 1.258 . S
C262 C263 1.477 . S
C262 H282 0.931 . S
C263 C259 1.460 . S
C263 C262 1.477 . S
C263 H283 0.930 . S
C264 N260 1.362 . S
C264 C261 1.431 . S
C264 C274 1.476 . S
H265 C259 0.929 . S
C266 O257 1.250 . S
C266 O258 1.258 . S
O267 Mn252 2.162 . S
O267 C255 1.281 . S
O268 Mn252 2.297 . S
O268 C255 1.236 . S
N269 Mn253 2.282 . S
N269 C270 1.328 . S
N269 C274 1.318 . S
C270 N269 1.328 . S
C270 C271 1.457 . S
C270 H275 0.929 . S
C271 C270 1.457 . S
C271 C272 1.291 . S
C271 H284 0.931 . S
C272 C271 1.291 . S
C272 C273 1.373 . S
C272 H285 0.929 . S
C273 C272 1.373 . S
C273 C274 1.396 . S
C273 C280 1.403 . S
C274 C264 1.476 . S
C274 N269 1.318 . S
C274 C273 1.396 . S
H275 C270 0.929 . S
O276 Mn252 2.385 . S
O276 C254 1.234 . S
O277 Mn252 2.209 . S
O277 Mn253 2.215 . S
O277 C254 1.283 . S
O278 Mn252 2.094 . S
O278 C256 1.240 . S
O279 Mn253 2.117 . S
O279 C256 1.264 . S
C280 C273 1.403 . S
C280 C281 1.399 . S
C280 H286 0.929 . S
C281 C261 1.449 . S
C281 C280 1.399 . S
C281 H287 0.930 . S
H282 C262 0.931 . S
H283 C263 0.930 . S
H284 C271 0.931 . S
H285 C272 0.929 . S
H286 C280 0.929 . S
H287 C281 0.930 . S
Mn288 O293 2.095 . S
Mn288 O303 2.162 . S
Mn288 O304 2.297 . S
Mn288 O312 2.385 . S
Mn288 O313 2.209 . S
Mn288 O314 2.094 . S
Mn289 O294 2.121 . S
Mn289 N296 2.257 . S
Mn289 N305 2.282 . S
Mn289 O313 2.215 . S
Mn289 O315 2.117 . S
C290 O312 1.234 . S
C290 O313 1.283 . S
C291 O303 1.281 . S
C291 O304 1.236 . S
C292 O314 1.240 . S
C292 O315 1.264 . S
O293 Mn288 2.095 . S
O293 C302 1.250 . S
O294 Mn289 2.121 . S
O294 C302 1.258 . S
C295 N296 1.326 . S
C295 C299 1.460 . S
C295 H301 0.929 . S
N296 Mn289 2.257 . S
N296 C295 1.326 . S
N296 C300 1.362 . S
C297 C298 1.258 . S
C297 C300 1.431 . S
C297 C317 1.449 . S
C298 C297 1.258 . S
C298 C299 1.477 . S
C298 H318 0.931 . S
C299 C295 1.460 . S
C299 C298 1.477 . S
C299 H319 0.930 . S
C300 N296 1.362 . S
C300 C297 1.431 . S
C300 C310 1.476 . S
H301 C295 0.929 . S
C302 O293 1.250 . S
C302 O294 1.258 . S
O303 Mn288 2.162 . S
O303 C291 1.281 . S
O304 Mn288 2.297 . S
O304 C291 1.236 . S
N305 Mn289 2.282 . S
N305 C306 1.328 . S
N305 C310 1.318 . S
C306 N305 1.328 . S
C306 C307 1.457 . S
C306 H311 0.929 . S
C307 C306 1.457 . S
C307 C308 1.291 . S
C307 H320 0.931 . S
C308 C307 1.291 . S
C308 C309 1.373 . S
C308 H321 0.929 . S
C309 C308 1.373 . S
C309 C310 1.396 . S
C309 C316 1.403 . S
C310 C300 1.476 . S
C310 N305 1.318 . S
C310 C309 1.396 . S
H311 C306 0.929 . S
O312 Mn288 2.385 . S
O312 C290 1.234 . S
O313 Mn288 2.209 . S
O313 Mn289 2.215 . S
O313 C290 1.283 . S
O314 Mn288 2.094 . S
O314 C292 1.240 . S
O315 Mn289 2.117 . S
O315 C292 1.264 . S
C316 C309 1.403 . S
C316 C317 1.399 . S
C316 H322 0.929 1_545 S
C317 C297 1.449 . S
C317 C316 1.399 . S
C317 H323 0.930 1_545 S
H318 C298 0.931 . S
H319 C299 0.930 . S
H320 C307 0.931 . S
H321 C308 0.929 . S
H322 C316 0.929 1_565 S
H323 C317 0.930 1_565 S
Mn324 O329 2.095 . S
Mn324 O339 2.162 . S
Mn324 O340 2.297 . S
Mn324 O348 2.385 . S
Mn324 O349 2.209 . S
Mn324 O350 2.094 . S
Mn325 O330 2.121 . S
Mn325 N332 2.257 . S
Mn325 N341 2.282 . S
Mn325 O349 2.215 . S
Mn325 O351 2.117 . S
C326 O348 1.234 . S
C326 O349 1.283 . S
C327 O339 1.281 . S
C327 O340 1.236 . S
C328 O350 1.240 . S
C328 O351 1.264 . S
O329 Mn324 2.095 . S
O329 C338 1.250 . S
O330 Mn325 2.121 . S
O330 C338 1.258 . S
C331 N332 1.326 . S
C331 C335 1.460 . S
C331 H337 0.929 . S
N332 Mn325 2.257 . S
N332 C331 1.326 . S
N332 C336 1.362 . S
C333 C334 1.258 . S
C333 C336 1.431 . S
C333 C353 1.449 . S
C334 C333 1.258 . S
C334 C335 1.477 . S
C334 H354 0.931 . S
C335 C331 1.460 . S
C335 C334 1.477 . S
C335 H355 0.930 . S
C336 N332 1.362 . S
C336 C333 1.431 . S
C336 C346 1.476 . S
H337 C331 0.929 . S
C338 O329 1.250 . S
C338 O330 1.258 . S
O339 Mn324 2.162 . S
O339 C327 1.281 . S
O340 Mn324 2.297 . S
O340 C327 1.236 . S
N341 Mn325 2.282 . S
N341 C342 1.328 . S
N341 C346 1.318 . S
C342 N341 1.328 . S
C342 C343 1.457 . S
C342 H347 0.929 . S
C343 C342 1.457 . S
C343 C344 1.291 . S
C343 H356 0.931 . S
C344 C343 1.291 . S
C344 C345 1.373 . S
C344 H357 0.929 . S
C345 C344 1.373 . S
C345 C346 1.396 . S
C345 C352 1.403 . S
C346 C336 1.476 . S
C346 N341 1.318 . S
C346 C345 1.396 . S
H347 C342 0.929 . S
O348 Mn324 2.385 . S
O348 C326 1.234 . S
O349 Mn324 2.209 . S
O349 Mn325 2.215 . S
O349 C326 1.283 . S
O350 Mn324 2.094 . S
O350 C328 1.240 . S
O351 Mn325 2.117 . S
O351 C328 1.264 . S
C352 C345 1.403 . S
C352 C353 1.399 . S
C352 H358 0.929 1_565 S
C353 C333 1.449 . S
C353 C352 1.399 . S
C353 H359 0.930 1_565 S
H354 C334 0.931 . S
H355 C335 0.930 . S
H356 C343 0.931 . S
H357 C344 0.929 . S
H358 C352 0.929 1_545 S
H359 C353 0.930 1_545 S
Mn360 O365 2.095 . S
Mn360 O375 2.162 . S
Mn360 O376 2.297 . S
Mn360 O384 2.385 . S
Mn360 O385 2.209 . S
Mn360 O386 2.094 . S
Mn361 O366 2.121 . S
Mn361 N368 2.257 . S
Mn361 N377 2.282 . S
Mn361 O385 2.215 . S
Mn361 O387 2.117 . S
C362 O384 1.234 . S
C362 O385 1.283 . S
C363 O375 1.281 . S
C363 O376 1.236 . S
C364 O386 1.240 . S
C364 O387 1.264 . S
O365 Mn360 2.095 . S
O365 C374 1.250 . S
O366 Mn361 2.121 . S
O366 C374 1.258 . S
C367 N368 1.326 . S
C367 C371 1.460 . S
C367 H373 0.929 . S
N368 Mn361 2.257 . S
N368 C367 1.326 . S
N368 C372 1.362 . S
C369 C370 1.258 . S
C369 C372 1.431 . S
C369 C389 1.449 . S
C370 C369 1.258 . S
C370 C371 1.477 . S
C370 H390 0.931 . S
C371 C367 1.460 . S
C371 C370 1.477 . S
C371 H391 0.930 . S
C372 N368 1.362 . S
C372 C369 1.431 . S
C372 C382 1.476 . S
H373 C367 0.929 . S
C374 O365 1.250 . S
C374 O366 1.258 . S
O375 Mn360 2.162 . S
O375 C363 1.281 . S
O376 Mn360 2.297 . S
O376 C363 1.236 . S
N377 Mn361 2.282 . S
N377 C378 1.328 . S
N377 C382 1.318 . S
C378 N377 1.328 . S
C378 C379 1.457 . S
C378 H383 0.929 . S
C379 C378 1.457 . S
C379 C380 1.291 . S
C379 H392 0.931 . S
C380 C379 1.291 . S
C380 C381 1.373 . S
C380 H393 0.929 . S
C381 C380 1.373 . S
C381 C382 1.396 . S
C381 C388 1.403 . S
C382 C372 1.476 . S
C382 N377 1.318 . S
C382 C381 1.396 . S
H383 C378 0.929 . S
O384 Mn360 2.385 . S
O384 C362 1.234 . S
O385 Mn360 2.209 . S
O385 Mn361 2.215 . S
O385 C362 1.283 . S
O386 Mn360 2.094 . S
O386 C364 1.240 . S
O387 Mn361 2.117 . S
O387 C364 1.264 . S
C388 C381 1.403 . S
C388 C389 1.399 . S
C388 H394 0.929 1_545 S
C389 C369 1.449 . S
C389 C388 1.399 . S
C389 H395 0.930 1_545 S
H390 C370 0.931 . S
H391 C371 0.930 . S
H392 C379 0.931 . S
H393 C380 0.929 . S
H394 C388 0.929 1_565 S
H395 C389 0.930 1_565 S
Mn396 O401 2.095 . S
Mn396 O411 2.162 . S
Mn396 O412 2.297 . S
Mn396 O420 2.385 . S
Mn396 O421 2.209 . S
Mn396 O422 2.094 . S
Mn397 O402 2.121 . S
Mn397 N404 2.257 . S
Mn397 N413 2.282 . S
Mn397 O421 2.215 . S
Mn397 O423 2.117 . S
C398 O420 1.234 . S
C398 O421 1.283 . S
C399 O411 1.281 . S
C399 O412 1.236 . S
C400 O422 1.240 . S
C400 O423 1.264 . S
O401 Mn396 2.095 . S
O401 C410 1.250 . S
O402 Mn397 2.121 . S
O402 C410 1.258 . S
C403 N404 1.326 . S
C403 C407 1.460 . S
C403 H409 0.929 . S
N404 Mn397 2.257 . S
N404 C403 1.326 . S
N404 C408 1.362 . S
C405 C406 1.258 . S
C405 C408 1.431 . S
C405 C425 1.449 . S
C406 C405 1.258 . S
C406 C407 1.477 . S
C406 H426 0.931 . S
C407 C403 1.460 . S
C407 C406 1.477 . S
C407 H427 0.930 . S
C408 N404 1.362 . S
C408 C405 1.431 . S
C408 C418 1.476 . S
H409 C403 0.929 . S
C410 O401 1.250 . S
C410 O402 1.258 . S
O411 Mn396 2.162 . S
O411 C399 1.281 . S
O412 Mn396 2.297 . S
O412 C399 1.236 . S
N413 Mn397 2.282 . S
N413 C414 1.328 . S
N413 C418 1.318 . S
C414 N413 1.328 . S
C414 C415 1.457 . S
C414 H419 0.929 . S
C415 C414 1.457 . S
C415 C416 1.291 . S
C415 H428 0.931 . S
C416 C415 1.291 . S
C416 C417 1.373 . S
C416 H429 0.929 . S
C417 C416 1.373 . S
C417 C418 1.396 . S
C417 C424 1.403 . S
C418 C408 1.476 . S
C418 N413 1.318 . S
C418 C417 1.396 . S
H419 C414 0.929 . S
O420 Mn396 2.385 . S
O420 C398 1.234 . S
O421 Mn396 2.209 . S
O421 Mn397 2.215 . S
O421 C398 1.283 . S
O422 Mn396 2.094 . S
O422 C400 1.240 . S
O423 Mn397 2.117 . S
O423 C400 1.264 . S
C424 C417 1.403 . S
C424 C425 1.399 . S
C424 H430 0.929 1_565 S
C425 C405 1.449 . S
C425 C424 1.399 . S
C425 H431 0.930 1_565 S
H426 C406 0.931 . S
H427 C407 0.930 . S
H428 C415 0.931 . S
H429 C416 0.929 . S
H430 C424 0.929 1_545 S
H431 C425 0.930 1_545 S
Mn432 O437 2.095 . S
Mn432 O447 2.162 . S
Mn432 O448 2.297 . S
Mn432 O456 2.385 . S
Mn432 O457 2.209 . S
Mn432 O458 2.094 . S
Mn433 O438 2.121 . S
Mn433 N440 2.257 . S
Mn433 N449 2.282 . S
Mn433 O457 2.215 . S
Mn433 O459 2.117 . S
C434 O456 1.234 . S
C434 O457 1.283 . S
C435 O447 1.281 . S
C435 O448 1.236 . S
C436 O458 1.240 . S
C436 O459 1.264 . S
O437 Mn432 2.095 . S
O437 C446 1.250 . S
O438 Mn433 2.121 . S
O438 C446 1.258 . S
C439 N440 1.326 . S
C439 C443 1.460 . S
C439 H445 0.929 . S
N440 Mn433 2.257 . S
N440 C439 1.326 . S
N440 C444 1.362 . S
C441 C442 1.258 . S
C441 C444 1.431 . S
C441 C461 1.449 . S
C442 C441 1.258 . S
C442 C443 1.477 . S
C442 H462 0.931 . S
C443 C439 1.460 . S
C443 C442 1.477 . S
C443 H463 0.930 . S
C444 N440 1.362 . S
C444 C441 1.431 . S
C444 C454 1.476 . S
H445 C439 0.929 . S
C446 O437 1.250 . S
C446 O438 1.258 . S
O447 Mn432 2.162 . S
O447 C435 1.281 . S
O448 Mn432 2.297 . S
O448 C435 1.236 . S
N449 Mn433 2.282 . S
N449 C450 1.328 . S
N449 C454 1.318 . S
C450 N449 1.328 . S
C450 C451 1.457 . S
C450 H455 0.929 . S
C451 C450 1.457 . S
C451 C452 1.291 . S
C451 H464 0.931 . S
C452 C451 1.291 . S
C452 C453 1.373 . S
C452 H465 0.929 . S
C453 C452 1.373 . S
C453 C454 1.396 . S
C453 C460 1.403 . S
C454 C444 1.476 . S
C454 N449 1.318 . S
C454 C453 1.396 . S
H455 C450 0.929 . S
O456 Mn432 2.385 . S
O456 C434 1.234 . S
O457 Mn432 2.209 . S
O457 Mn433 2.215 . S
O457 C434 1.283 . S
O458 Mn432 2.094 . S
O458 C436 1.240 . S
O459 Mn433 2.117 . S
O459 C436 1.264 . S
C460 C453 1.403 . S
C460 C461 1.399 . S
C460 H466 0.929 . S
C461 C441 1.449 . S
C461 C460 1.399 . S
C461 H467 0.930 . S
H462 C442 0.931 . S
H463 C443 0.930 . S
H464 C451 0.931 . S
H465 C452 0.929 . S
H466 C460 0.929 . S
H467 C461 0.930 . S
Mn468 O473 2.095 . S
Mn468 O483 2.162 1_455 S
Mn468 O484 2.297 . S
Mn468 O492 2.385 . S
Mn468 O493 2.209 . S
Mn468 O494 2.094 . S
Mn469 O474 2.121 . S
Mn469 N476 2.257 . S
Mn469 N485 2.282 . S
Mn469 O493 2.215 . S
Mn469 O495 2.117 . S
C470 O492 1.234 . S
C470 O493 1.283 . S
C471 O483 1.281 . S
C471 O484 1.236 1_655 S
C472 O494 1.240 . S
C472 O495 1.264 . S
O473 Mn468 2.095 . S
O473 C482 1.250 . S
O474 Mn469 2.121 . S
O474 C482 1.258 . S
C475 N476 1.326 . S
C475 C479 1.460 . S
C475 H481 0.929 . S
N476 Mn469 2.257 . S
N476 C475 1.326 . S
N476 C480 1.362 . S
C477 C478 1.258 . S
C477 C480 1.431 . S
C477 C497 1.449 . S
C478 C477 1.258 . S
C478 C479 1.477 . S
C478 H498 0.931 . S
C479 C475 1.460 . S
C479 C478 1.477 . S
C479 H499 0.930 . S
C480 N476 1.362 . S
C480 C477 1.431 . S
C480 C490 1.476 . S
H481 C475 0.929 . S
C482 O473 1.250 . S
C482 O474 1.258 . S
O483 Mn468 2.162 1_655 S
O483 C471 1.281 . S
O484 Mn468 2.297 . S
O484 C471 1.236 1_455 S
N485 Mn469 2.282 . S
N485 C486 1.328 . S
N485 C490 1.318 . S
C486 N485 1.328 . S
C486 C487 1.457 . S
C486 H491 0.929 . S
C487 C486 1.457 . S
C487 C488 1.291 . S
C487 H500 0.931 . S
C488 C487 1.291 . S
C488 C489 1.373 . S
C488 H501 0.929 . S
C489 C488 1.373 . S
C489 C490 1.396 . S
C489 C496 1.403 . S
C490 C480 1.476 . S
C490 N485 1.318 . S
C490 C489 1.396 . S
H491 C486 0.929 . S
O492 Mn468 2.385 . S
O492 C470 1.234 . S
O493 Mn468 2.209 . S
O493 Mn469 2.215 . S
O493 C470 1.283 . S
O494 Mn468 2.094 . S
O494 C472 1.240 . S
O495 Mn469 2.117 . S
O495 C472 1.264 . S
C496 C489 1.403 . S
C496 C497 1.399 . S
C496 H502 0.929 . S
C497 C477 1.449 . S
C497 C496 1.399 . S
C497 H503 0.930 . S
H498 C478 0.931 . S
H499 C479 0.930 . S
H500 C487 0.931 . S
H501 C488 0.929 . S
H502 C496 0.929 . S
H503 C497 0.930 . S
Mn504 O509 2.095 . S
Mn504 O519 2.162 . S
Mn504 O520 2.297 . S
Mn504 O528 2.385 . S
Mn504 O529 2.209 . S
Mn504 O530 2.094 . S
Mn505 O510 2.121 . S
Mn505 N512 2.257 . S
Mn505 N521 2.282 . S
Mn505 O529 2.215 . S
Mn505 O531 2.117 . S
C506 O528 1.234 . S
C506 O529 1.283 . S
C507 O519 1.281 . S
C507 O520 1.236 . S
C508 O530 1.240 . S
C508 O531 1.264 . S
O509 Mn504 2.095 . S
O509 C518 1.250 . S
O510 Mn505 2.121 . S
O510 C518 1.258 . S
C511 N512 1.326 . S
C511 C515 1.460 . S
C511 H517 0.929 . S
N512 Mn505 2.257 . S
N512 C511 1.326 . S
N512 C516 1.362 . S
C513 C514 1.258 . S
C513 C516 1.431 . S
C513 C533 1.449 . S
C514 C513 1.258 . S
C514 C515 1.477 . S
C514 H534 0.931 . S
C515 C511 1.460 . S
C515 C514 1.477 . S
C515 H535 0.930 . S
C516 N512 1.362 . S
C516 C513 1.431 . S
C516 C526 1.476 . S
H517 C511 0.929 . S
C518 O509 1.250 . S
C518 O510 1.258 . S
O519 Mn504 2.162 . S
O519 C507 1.281 . S
O520 Mn504 2.297 . S
O520 C507 1.236 . S
N521 Mn505 2.282 . S
N521 C522 1.328 . S
N521 C526 1.318 . S
C522 N521 1.328 . S
C522 C523 1.457 . S
C522 H527 0.929 . S
C523 C522 1.457 . S
C523 C524 1.291 . S
C523 H536 0.931 . S
C524 C523 1.291 . S
C524 C525 1.373 . S
C524 H537 0.929 . S
C525 C524 1.373 . S
C525 C526 1.396 . S
C525 C532 1.403 . S
C526 C516 1.476 . S
C526 N521 1.318 . S
C526 C525 1.396 . S
H527 C522 0.929 . S
O528 Mn504 2.385 . S
O528 C506 1.234 . S
O529 Mn504 2.209 . S
O529 Mn505 2.215 . S
O529 C506 1.283 . S
O530 Mn504 2.094 . S
O530 C508 1.240 . S
O531 Mn505 2.117 . S
O531 C508 1.264 . S
C532 C525 1.403 . S
C532 C533 1.399 . S
C532 H538 0.929 . S
C533 C513 1.449 . S
C533 C532 1.399 . S
C533 H539 0.930 . S
H534 C514 0.931 . S
H535 C515 0.930 . S
H536 C523 0.931 . S
H537 C524 0.929 . S
H538 C532 0.929 . S
H539 C533 0.930 . S
Mn540 O545 2.095 . S
Mn540 O555 2.162 1_455 S
Mn540 O556 2.297 . S
Mn540 O564 2.385 . S
Mn540 O565 2.209 . S
Mn540 O566 2.094 . S
Mn541 O546 2.121 . S
Mn541 N548 2.257 . S
Mn541 N557 2.282 . S
Mn541 O565 2.215 . S
Mn541 O567 2.117 . S
C542 O564 1.234 . S
C542 O565 1.283 . S
C543 O555 1.281 . S
C543 O556 1.236 1_655 S
C544 O566 1.240 . S
C544 O567 1.264 . S
O545 Mn540 2.095 . S
O545 C554 1.250 . S
O546 Mn541 2.121 . S
O546 C554 1.258 . S
C547 N548 1.326 . S
C547 C551 1.460 . S
C547 H553 0.929 . S
N548 Mn541 2.257 . S
N548 C547 1.326 . S
N548 C552 1.362 . S
C549 C550 1.258 . S
C549 C552 1.431 . S
C549 C569 1.449 . S
C550 C549 1.258 . S
C550 C551 1.477 . S
C550 H570 0.931 . S
C551 C547 1.460 . S
C551 C550 1.477 . S
C551 H571 0.930 . S
C552 N548 1.362 . S
C552 C549 1.431 . S
C552 C562 1.476 . S
H553 C547 0.929 . S
C554 O545 1.250 . S
C554 O546 1.258 . S
O555 Mn540 2.162 1_655 S
O555 C543 1.281 . S
O556 Mn540 2.297 . S
O556 C543 1.236 1_455 S
N557 Mn541 2.282 . S
N557 C558 1.328 . S
N557 C562 1.318 . S
C558 N557 1.328 . S
C558 C559 1.457 . S
C558 H563 0.929 . S
C559 C558 1.457 . S
C559 C560 1.291 . S
C559 H572 0.931 . S
C560 C559 1.291 . S
C560 C561 1.373 . S
C560 H573 0.929 . S
C561 C560 1.373 . S
C561 C562 1.396 . S
C561 C568 1.403 . S
C562 C552 1.476 . S
C562 N557 1.318 . S
C562 C561 1.396 . S
H563 C558 0.929 . S
O564 Mn540 2.385 . S
O564 C542 1.234 . S
O565 Mn540 2.209 . S
O565 Mn541 2.215 . S
O565 C542 1.283 . S
O566 Mn540 2.094 . S
O566 C544 1.240 . S
O567 Mn541 2.117 . S
O567 C544 1.264 . S
C568 C561 1.403 . S
C568 C569 1.399 . S
C568 H574 0.929 . S
C569 C549 1.449 . S
C569 C568 1.399 . S
C569 H575 0.930 . S
H570 C550 0.931 . S
H571 C551 0.930 . S
H572 C559 0.931 . S
H573 C560 0.929 . S
H574 C568 0.929 . S
H575 C569 0.930 . S
H576 C582 0.930 . S
H577 C586 0.930 . S
H578 C591 0.929 . S
H579 C589 0.929 . S
H580 C584 0.929 . S
H581 C590 0.929 . S
C582 H576 0.930 . S
C582 C583 1.367 . S
C582 C590 1.378 . S
C583 C582 1.367 . S
C583 C591 1.433 1_455 S
C584 H580 0.929 . S
C584 C586 1.378 . S
C584 C588 1.350 . S
C585 C588 1.463 . S
C585 C590 1.350 . S
C585 N593 1.427 . S
C586 H577 0.930 . S
C586 C584 1.378 . S
C586 C587 1.367 . S
C587 C586 1.367 . S
C587 C589 1.433 . S
C588 C584 1.350 . S
C588 C585 1.463 . S
C588 N592 1.427 . S
C589 H579 0.929 . S
C589 C587 1.433 . S
C589 N592 1.384 . S
C590 H581 0.929 . S
C590 C582 1.378 . S
C590 C585 1.350 . S
C591 H578 0.929 . S
C591 C583 1.433 1_655 S
C591 N593 1.384 1_655 S
N592 C588 1.427 . S
N592 C589 1.384 . S
N593 C585 1.427 . S
N593 C591 1.384 1_455 S
H594 C600 0.930 . S
H595 C604 0.930 . S
H596 C609 0.929 . S
H597 C607 0.929 . S
H598 C602 0.929 . S
H599 C608 0.929 . S
C600 H594 0.930 . S
C600 C601 1.367 . S
C600 C608 1.378 . S
C601 C600 1.367 . S
C601 C609 1.433 . S
C602 H598 0.929 . S
C602 C604 1.378 . S
C602 C606 1.350 . S
C603 C606 1.463 . S
C603 C608 1.350 1_455 S
C603 N611 1.427 1_455 S
C604 H595 0.930 . S
C604 C602 1.378 . S
C604 C605 1.367 . S
C605 C604 1.367 . S
C605 C607 1.433 . S
C606 C602 1.350 . S
C606 C603 1.463 . S
C606 N610 1.427 . S
C607 H597 0.929 . S
C607 C605 1.433 . S
C607 N610 1.384 . S
C608 H599 0.929 . S
C608 C600 1.378 . S
C608 C603 1.350 1_655 S
C609 H596 0.929 . S
C609 C601 1.433 . S
C609 N611 1.384 . S
N610 C606 1.427 . S
N610 C607 1.384 . S
N611 C603 1.427 1_655 S
N611 C609 1.384 . S
H612 C618 0.930 . S
H613 C622 0.930 . S
H614 C627 0.929 . S
H615 C625 0.929 . S
H616 C620 0.929 . S
H617 C626 0.929 . S
C618 H612 0.930 . S
C618 C619 1.367 . S
C618 C626 1.378 . S
C619 C618 1.367 . S
C619 C627 1.433 . S
C620 H616 0.929 . S
C620 C622 1.378 . S
C620 C624 1.350 . S
C621 C624 1.463 . S
C621 C626 1.350 . S
C621 N629 1.427 . S
C622 H613 0.930 . S
C622 C620 1.378 . S
C622 C623 1.367 . S
C623 C622 1.367 . S
C623 C625 1.433 . S
C624 C620 1.350 . S
C624 C621 1.463 . S
C624 N628 1.427 . S
C625 H615 0.929 . S
C625 C623 1.433 . S
C625 N628 1.384 . S
C626 H617 0.929 . S
C626 C618 1.378 . S
C626 C621 1.350 . S
C627 H614 0.929 . S
C627 C619 1.433 . S
C627 N629 1.384 . S
N628 C624 1.427 . S
N628 C625 1.384 . S
N629 C621 1.427 . S
N629 C627 1.384 . S
H630 C636 0.930 . S
H631 C640 0.930 . S
H632 C645 0.929 . S
H633 C643 0.929 . S
H634 C638 0.929 . S
H635 C644 0.929 . S
C636 H630 0.930 . S
C636 C637 1.367 . S
C636 C644 1.378 . S
C637 C636 1.367 . S
C637 C645 1.433 . S
C638 H634 0.929 . S
C638 C640 1.378 . S
C638 C642 1.350 . S
C639 C642 1.463 . S
C639 C644 1.350 . S
C639 N647 1.427 . S
C640 H631 0.930 . S
C640 C638 1.378 . S
C640 C641 1.367 . S
C641 C640 1.367 . S
C641 C643 1.433 . S
C642 C638 1.350 . S
C642 C639 1.463 . S
C642 N646 1.427 . S
C643 H633 0.929 . S
C643 C641 1.433 . S
C643 N646 1.384 . S
C644 H635 0.929 . S
C644 C636 1.378 . S
C644 C639 1.350 . S
C645 H632 0.929 . S
C645 C637 1.433 . S
C645 N647 1.384 . S
N646 C642 1.427 . S
N646 C643 1.384 . S
N647 C639 1.427 . S
N647 C645 1.384 . S
H648 C654 0.930 . S
H649 C658 0.930 . S
H650 C663 0.929 . S
H651 C661 0.929 1_655 S
H652 C656 0.929 . S
H653 C662 0.929 . S
C654 H648 0.930 . S
C654 C655 1.367 1_655 S
C654 C662 1.378 . S
C655 C654 1.367 1_455 S
C655 C663 1.433 . S
C656 H652 0.929 . S
C656 C658 1.378 . S
C656 C660 1.350 . S
C657 C660 1.463 . S
C657 C662 1.350 1_455 S
C657 N665 1.427 . S
C658 H649 0.930 . S
C658 C656 1.378 . S
C658 C659 1.367 . S
C659 C658 1.367 . S
C659 C661 1.433 . S
C660 C656 1.350 . S
C660 C657 1.463 . S
C660 N664 1.427 . S
C661 H651 0.929 1_455 S
C661 C659 1.433 . S
C661 N664 1.384 . S
C662 H653 0.929 . S
C662 C654 1.378 . S
C662 C657 1.350 1_655 S
C663 H650 0.929 . S
C663 C655 1.433 . S
C663 N665 1.384 . S
N664 C660 1.427 . S
N664 C661 1.384 . S
N665 C657 1.427 . S
N665 C663 1.384 . S
H666 C672 0.930 . S
H667 C676 0.930 . S
H668 C681 0.929 . S
H669 C679 0.929 . S
H670 C674 0.929 . S
H671 C680 0.929 . S
C672 H666 0.930 . S
C672 C673 1.367 . S
C672 C680 1.378 . S
C673 C672 1.367 . S
C673 C681 1.433 . S
C674 H670 0.929 . S
C674 C676 1.378 . S
C674 C678 1.350 . S
C675 C678 1.463 . S
C675 C680 1.350 . S
C675 N683 1.427 . S
C676 H667 0.930 . S
C676 C674 1.378 . S
C676 C677 1.367 . S
C677 C676 1.367 . S
C677 C679 1.433 . S
C678 C674 1.350 . S
C678 C675 1.463 . S
C678 N682 1.427 . S
C679 H669 0.929 . S
C679 C677 1.433 . S
C679 N682 1.384 . S
C680 H671 0.929 . S
C680 C672 1.378 . S
C680 C675 1.350 . S
C681 H668 0.929 . S
C681 C673 1.433 . S
C681 N683 1.384 . S
N682 C678 1.427 . S
N682 C679 1.384 . S
N683 C675 1.427 . S
N683 C681 1.384 . S
H684 C690 0.930 . S
H685 C694 0.930 . S
H686 C699 0.929 . S
H687 C697 0.929 . S
H688 C692 0.929 . S
H689 C698 0.929 . S
C690 H684 0.930 . S
C690 C691 1.367 . S
C690 C698 1.378 . S
C691 C690 1.367 . S
C691 C699 1.433 . S
C692 H688 0.929 . S
C692 C694 1.378 . S
C692 C696 1.350 . S
C693 C696 1.463 . S
C693 C698 1.350 . S
C693 N701 1.427 . S
C694 H685 0.930 . S
C694 C692 1.378 . S
C694 C695 1.367 . S
C695 C694 1.367 . S
C695 C697 1.433 . S
C696 C692 1.350 . S
C696 C693 1.463 . S
C696 N700 1.427 . S
C697 H687 0.929 . S
C697 C695 1.433 . S
C697 N700 1.384 . S
C698 H689 0.929 . S
C698 C690 1.378 . S
C698 C693 1.350 . S
C699 H686 0.929 . S
C699 C691 1.433 . S
C699 N701 1.384 . S
N700 C696 1.427 . S
N700 C697 1.384 . S
N701 C693 1.427 . S
N701 C699 1.384 . S
H702 C708 0.930 . S
H703 C712 0.930 . S
H704 C717 0.929 . S
H705 C715 0.929 . S
H706 C710 0.929 1_455 S
H707 C716 0.929 . S
C708 H702 0.930 . S
C708 C709 1.367 . S
C708 C716 1.378 . S
C709 C708 1.367 . S
C709 C717 1.433 . S
C710 H706 0.929 1_655 S
C710 C712 1.378 . S
C710 C714 1.350 1_655 S
C711 C714 1.463 . S
C711 C716 1.350 . S
C711 N719 1.427 . S
C712 H703 0.930 . S
C712 C710 1.378 . S
C712 C713 1.367 . S
C713 C712 1.367 . S
C713 C715 1.433 . S
C714 C710 1.350 1_455 S
C714 C711 1.463 . S
C714 N718 1.427 1_455 S
C715 H705 0.929 . S
C715 C713 1.433 . S
C715 N718 1.384 . S
C716 H707 0.929 . S
C716 C708 1.378 . S
C716 C711 1.350 . S
C717 H704 0.929 . S
C717 C709 1.433 . S
C717 N719 1.384 . S
N718 C714 1.427 1_655 S
N718 C715 1.384 . S
N719 C711 1.427 . S
N719 C717 1.384 . S
H720 C726 0.930 . S
H721 C730 0.930 . S
H722 C735 0.929 . S
H723 C733 0.929 . S
H724 C728 0.929 . S
H725 C734 0.929 . S
C726 H720 0.930 . S
C726 C727 1.367 . S
C726 C734 1.378 . S
C727 C726 1.367 . S
C727 C735 1.433 1_465 S
C728 H724 0.929 . S
C728 C730 1.378 . S
C728 C732 1.350 1_655 S
C729 C732 1.463 1_565 S
C729 C734 1.350 . S
C729 N737 1.427 1_465 S
C730 H721 0.930 . S
C730 C728 1.378 . S
C730 C731 1.367 1_655 S
C731 C730 1.367 1_455 S
C731 C733 1.433 1_545 S
C732 C728 1.350 1_455 S
C732 C729 1.463 1_545 S
C732 N736 1.427 1_545 S
C733 H723 0.929 . S
C733 C731 1.433 1_565 S
C733 N736 1.384 . S
C734 H725 0.929 . S
C734 C726 1.378 . S
C734 C729 1.350 . S
C735 H722 0.929 . S
C735 C727 1.433 1_645 S
C735 N737 1.384 . S
N736 C732 1.427 1_565 S
N736 C733 1.384 . S
N737 C729 1.427 1_645 S
N737 C735 1.384 . S
H738 C744 0.930 . S
H739 C748 0.930 . S
H740 C753 0.929 . S
H741 C751 0.929 . S
H742 C746 0.929 . S
H743 C752 0.929 . S
C744 H738 0.930 . S
C744 C745 1.367 . S
C744 C752 1.378 . S
C745 C744 1.367 . S
C745 C753 1.433 . S
C746 H742 0.929 . S
C746 C748 1.378 . S
C746 C750 1.350 . S
C747 C750 1.463 . S
C747 C752 1.350 . S
C747 N755 1.427 . S
C748 H739 0.930 . S
C748 C746 1.378 . S
C748 C749 1.367 . S
C749 C748 1.367 . S
C749 C751 1.433 . S
C750 C746 1.350 . S
C750 C747 1.463 . S
C750 N754 1.427 . S
C751 H741 0.929 . S
C751 C749 1.433 . S
C751 N754 1.384 . S
C752 H743 0.929 . S
C752 C744 1.378 . S
C752 C747 1.350 . S
C753 H740 0.929 . S
C753 C745 1.433 . S
C753 N755 1.384 . S
N754 C750 1.427 . S
N754 C751 1.384 . S
N755 C747 1.427 . S
N755 C753 1.384 . S
H756 C762 0.930 . S
H757 C766 0.930 . S
H758 C771 0.929 . S
H759 C769 0.929 . S
H760 C764 0.929 . S
H761 C770 0.929 . S
C762 H756 0.930 . S
C762 C763 1.367 1_545 S
C762 C770 1.378 . S
C763 C762 1.367 1_565 S
C763 C771 1.433 . S
C764 H760 0.929 . S
C764 C766 1.378 . S
C764 C768 1.350 1_565 S
C765 C768 1.463 1_564 S
C765 C770 1.350 1_565 S
C765 N773 1.427 . S
C766 H757 0.930 . S
C766 C764 1.378 . S
C766 C767 1.367 1_565 S
C767 C766 1.367 1_545 S
C767 C769 1.433 . S
C768 C764 1.350 1_545 S
C768 C765 1.463 1_546 S
C768 N772 1.427 . S
C769 H759 0.929 . S
C769 C767 1.433 . S
C769 N772 1.384 . S
C770 H761 0.929 . S
C770 C762 1.378 . S
C770 C765 1.350 1_545 S
C771 H758 0.929 . S
C771 C763 1.433 . S
C771 N773 1.384 . S
N772 C768 1.427 . S
N772 C769 1.384 . S
N773 C765 1.427 . S
N773 C771 1.384 . S
H774 C780 0.930 . S
H775 C784 0.930 . S
H776 C789 0.929 . S
H777 C787 0.929 . S
H778 C782 0.929 . S
H779 C788 0.929 . S
C780 H774 0.930 . S
C780 C781 1.367 . S
C780 C788 1.378 . S
C781 C780 1.367 . S
C781 C789 1.433 . S
C782 H778 0.929 . S
C782 C784 1.378 . S
C782 C786 1.350 . S
C783 C786 1.463 . S
C783 C788 1.350 . S
C783 N791 1.427 . S
C784 H775 0.930 . S
C784 C782 1.378 . S
C784 C785 1.367 . S
C785 C784 1.367 . S
C785 C787 1.433 . S
C786 C782 1.350 . S
C786 C783 1.463 . S
C786 N790 1.427 . S
C787 H777 0.929 . S
C787 C785 1.433 . S
C787 N790 1.384 . S
C788 H779 0.929 . S
C788 C780 1.378 . S
C788 C783 1.350 . S
C789 H776 0.929 . S
C789 C781 1.433 . S
C789 N791 1.384 . S
N790 C786 1.427 . S
N790 C787 1.384 . S
N791 C783 1.427 . S
N791 C789 1.384 . S
H792 C798 0.930 . S
H793 C802 0.930 . S
H794 C807 0.929 . S
H795 C805 0.929 . S
H796 C800 0.929 . S
H797 C806 0.929 . S
C798 H792 0.930 . S
C798 C799 1.367 . S
C798 C806 1.378 . S
C799 C798 1.367 . S
C799 C807 1.433 . S
C800 H796 0.929 . S
C800 C802 1.378 . S
C800 C804 1.350 . S
C801 C804 1.463 . S
C801 C806 1.350 . S
C801 N809 1.427 . S
C802 H793 0.930 . S
C802 C800 1.378 . S
C802 C803 1.367 . S
C803 C802 1.367 . S
C803 C805 1.433 . S
C804 C800 1.350 . S
C804 C801 1.463 . S
C804 N808 1.427 . S
C805 H795 0.929 . S
C805 C803 1.433 . S
C805 N808 1.384 . S
C806 H797 0.929 . S
C806 C798 1.378 . S
C806 C801 1.350 . S
C807 H794 0.929 . S
C807 C799 1.433 . S
C807 N809 1.384 . S
N808 C804 1.427 . S
N808 C805 1.384 . S
N809 C801 1.427 . S
N809 C807 1.384 . S
H810 C816 0.930 . S
H811 C820 0.930 . S
H812 C825 0.929 . S
H813 C823 0.929 . S
H814 C818 0.929 . S
H815 C824 0.929 . S
C816 H810 0.930 . S
C816 C817 1.367 . S
C816 C824 1.378 . S
C817 C816 1.367 . S
C817 C825 1.433 . S
C818 H814 0.929 . S
C818 C820 1.378 . S
C818 C822 1.350 . S
C819 C822 1.463 . S
C819 C824 1.350 . S
C819 N827 1.427 . S
C820 H811 0.930 . S
C820 C818 1.378 . S
C820 C821 1.367 . S
C821 C820 1.367 . S
C821 C823 1.433 . S
C822 C818 1.350 . S
C822 C819 1.463 . S
C822 N826 1.427 . S
C823 H813 0.929 . S
C823 C821 1.433 . S
C823 N826 1.384 . S
C824 H815 0.929 . S
C824 C816 1.378 . S
C824 C819 1.350 . S
C825 H812 0.929 . S
C825 C817 1.433 . S
C825 N827 1.384 . S
N826 C822 1.427 . S
N826 C823 1.384 . S
N827 C819 1.427 . S
N827 C825 1.384 . S
H828 C834 0.930 . S
H829 C838 0.930 . S
H830 C843 0.929 . S
H831 C841 0.929 . S
H832 C836 0.929 . S
H833 C842 0.929 . S
C834 H828 0.930 . S
C834 C835 1.367 . S
C834 C842 1.378 . S
C835 C834 1.367 . S
C835 C843 1.433 . S
C836 H832 0.929 . S
C836 C838 1.378 . S
C836 C840 1.350 . S
C837 C840 1.463 1_556 S
C837 C842 1.350 . S
C837 N845 1.427 . S
C838 H829 0.930 . S
C838 C836 1.378 . S
C838 C839 1.367 . S
C839 C838 1.367 . S
C839 C841 1.433 . S
C840 C836 1.350 . S
C840 C837 1.463 1_554 S
C840 N844 1.427 . S
C841 H831 0.929 . S
C841 C839 1.433 . S
C841 N844 1.384 . S
C842 H833 0.929 . S
C842 C834 1.378 . S
C842 C837 1.350 . S
C843 H830 0.929 . S
C843 C835 1.433 . S
C843 N845 1.384 . S
N844 C840 1.427 . S
N844 C841 1.384 . S
N845 C837 1.427 . S
N845 C843 1.384 . S
H846 C852 0.930 . S
H847 C856 0.930 1_655 S
H848 C861 0.929 1_655 S
H849 C859 0.929 . S
H850 C854 0.929 1_655 S
H851 C860 0.929 . S
C852 H846 0.930 . S
C852 C853 1.367 . S
C852 C860 1.378 . S
C853 C852 1.367 . S
C853 C861 1.433 . S
C854 H850 0.929 1_455 S
C854 C856 1.378 . S
C854 C858 1.350 . S
C855 C858 1.463 . S
C855 C860 1.350 . S
C855 N863 1.427 . S
C856 H847 0.930 1_455 S
C856 C854 1.378 . S
C856 C857 1.367 . S
C857 C856 1.367 . S
C857 C859 1.433 . S
C858 C854 1.350 . S
C858 C855 1.463 . S
C858 N862 1.427 . S
C859 H849 0.929 . S
C859 C857 1.433 . S
C859 N862 1.384 . S
C860 H851 0.929 . S
C860 C852 1.378 . S
C860 C855 1.350 . S
C861 H848 0.929 1_455 S
C861 C853 1.433 . S
C861 N863 1.384 . S
N862 C858 1.427 . S
N862 C859 1.384 . S
N863 C855 1.427 . S
N863 C861 1.384 . S
H864 C870 0.930 . S
H865 C874 0.930 . S
H866 C879 0.929 . S
H867 C877 0.929 . S
H868 C872 0.929 . S
H869 C878 0.929 . S
C870 H864 0.930 . S
C870 C871 1.367 . S
C870 C878 1.378 . S
C871 C870 1.367 . S
C871 C879 1.433 . S
C872 H868 0.929 . S
C872 C874 1.378 . S
C872 C876 1.350 . S
C873 C876 1.463 . S
C873 C878 1.350 . S
C873 N881 1.427 . S
C874 H865 0.930 . S
C874 C872 1.378 . S
C874 C875 1.367 . S
C875 C874 1.367 . S
C875 C877 1.433 . S
C876 C872 1.350 . S
C876 C873 1.463 . S
C876 N880 1.427 . S
C877 H867 0.929 . S
C877 C875 1.433 . S
C877 N880 1.384 . S
C878 H869 0.929 . S
C878 C870 1.378 . S
C878 C873 1.350 . S
C879 H866 0.929 . S
C879 C871 1.433 . S
C879 N881 1.384 . S
N880 C876 1.427 . S
N880 C877 1.384 . S
N881 C873 1.427 . S
N881 C879 1.384 . S
H882 C888 0.930 . S
H883 C892 0.930 . S
H884 C897 0.929 . S
H885 C895 0.929 . S
H886 C890 0.929 . S
H887 C896 0.929 . S
C888 H882 0.930 . S
C888 C889 1.367 . S
C888 C896 1.378 . S
C889 C888 1.367 . S
C889 C897 1.433 . S
C890 H886 0.929 . S
C890 C892 1.378 . S
C890 C894 1.350 . S
C891 C894 1.463 . S
C891 C896 1.350 . S
C891 N899 1.427 . S
C892 H883 0.930 . S
C892 C890 1.378 . S
C892 C893 1.367 . S
C893 C892 1.367 . S
C893 C895 1.433 . S
C894 C890 1.350 . S
C894 C891 1.463 . S
C894 N898 1.427 . S
C895 H885 0.929 . S
C895 C893 1.433 . S
C895 N898 1.384 . S
C896 H887 0.929 . S
C896 C888 1.378 . S
C896 C891 1.350 . S
C897 H884 0.929 . S
C897 C889 1.433 . S
C897 N899 1.384 . S
N898 C894 1.427 . S
N898 C895 1.384 . S
N899 C891 1.427 . S
N899 C897 1.384 . S
H900 C906 0.930 . S
H901 C910 0.930 . S
H902 C915 0.929 . S
H903 C913 0.929 . S
H904 C908 0.929 . S
H905 C914 0.929 . S
C906 H900 0.930 . S
C906 C907 1.367 . S
C906 C914 1.378 . S
C907 C906 1.367 . S
C907 C915 1.433 . S
C908 H904 0.929 . S
C908 C910 1.378 . S
C908 C912 1.350 . S
C909 C912 1.463 . S
C909 C914 1.350 . S
C909 N917 1.427 . S
C910 H901 0.930 . S
C910 C908 1.378 . S
C910 C911 1.367 . S
C911 C910 1.367 . S
C911 C913 1.433 . S
C912 C908 1.350 . S
C912 C909 1.463 . S
C912 N916 1.427 . S
C913 H903 0.929 . S
C913 C911 1.433 . S
C913 N916 1.384 . S
C914 H905 0.929 . S
C914 C906 1.378 . S
C914 C909 1.350 . S
C915 H902 0.929 . S
C915 C907 1.433 . S
C915 N917 1.384 . S
N916 C912 1.427 . S
N916 C913 1.384 . S
N917 C909 1.427 . S
N917 C915 1.384 . S
H918 C924 0.930 . S
H919 C928 0.930 . S
H920 C933 0.929 . S
H921 C931 0.929 . S
H922 C926 0.929 . S
H923 C932 0.929 . S
C924 H918 0.930 . S
C924 C925 1.367 . S
C924 C932 1.378 . S
C925 C924 1.367 . S
C925 C933 1.433 . S
C926 H922 0.929 . S
C926 C928 1.378 . S
C926 C930 1.350 . S
C927 C930 1.463 . S
C927 C932 1.350 . S
C927 N935 1.427 . S
C928 H919 0.930 . S
C928 C926 1.378 . S
C928 C929 1.367 . S
C929 C928 1.367 . S
C929 C931 1.433 . S
C930 C926 1.350 . S
C930 C927 1.463 . S
C930 N934 1.427 . S
C931 H921 0.929 . S
C931 C929 1.433 . S
C931 N934 1.384 . S
C932 H923 0.929 . S
C932 C924 1.378 . S
C932 C927 1.350 . S
C933 H920 0.929 . S
C933 C925 1.433 . S
C933 N935 1.384 . S
N934 C930 1.427 . S
N934 C931 1.384 . S
N935 C927 1.427 . S
N935 C933 1.384 . S
H936 C942 0.930 . S
H937 C946 0.930 . S
H938 C951 0.929 1_565 S
H939 C949 0.929 . S
H940 C944 0.929 . S
H941 C950 0.929 . S
C942 H936 0.930 . S
C942 C943 1.367 . S
C942 C950 1.378 . S
C943 C942 1.367 . S
C943 C951 1.433 . S
C944 H940 0.929 . S
C944 C946 1.378 . S
C944 C948 1.350 . S
C945 C948 1.463 . S
C945 C950 1.350 . S
C945 N953 1.427 . S
C946 H937 0.930 . S
C946 C944 1.378 . S
C946 C947 1.367 . S
C947 C946 1.367 . S
C947 C949 1.433 . S
C948 C944 1.350 . S
C948 C945 1.463 . S
C948 N952 1.427 . S
C949 H939 0.929 . S
C949 C947 1.433 . S
C949 N952 1.384 . S
C950 H941 0.929 . S
C950 C942 1.378 . S
C950 C945 1.350 . S
C951 H938 0.929 1_545 S
C951 C943 1.433 . S
C951 N953 1.384 . S
N952 C948 1.427 . S
N952 C949 1.384 . S
N953 C945 1.427 . S
N953 C951 1.384 . S
H954 C960 0.930 . S
H955 C964 0.930 . S
H956 C969 0.929 1_565 S
H957 C967 0.929 . S
H958 C962 0.929 . S
H959 C968 0.929 . S
C960 H954 0.930 . S
C960 C961 1.367 . S
C960 C968 1.378 . S
C961 C960 1.367 . S
C961 C969 1.433 . S
C962 H958 0.929 . S
C962 C964 1.378 . S
C962 C966 1.350 . S
C963 C966 1.463 . S
C963 C968 1.350 . S
C963 N971 1.427 . S
C964 H955 0.930 . S
C964 C962 1.378 . S
C964 C965 1.367 . S
C965 C964 1.367 . S
C965 C967 1.433 . S
C966 C962 1.350 . S
C966 C963 1.463 . S
C966 N970 1.427 . S
C967 H957 0.929 . S
C967 C965 1.433 . S
C967 N970 1.384 . S
C968 H959 0.929 . S
C968 C960 1.378 . S
C968 C963 1.350 . S
C969 H956 0.929 1_545 S
C969 C961 1.433 . S
C969 N971 1.384 . S
N970 C966 1.427 . S
N970 C967 1.384 . S
N971 C963 1.427 . S
N971 C969 1.384 . S
H972 C978 0.930 . S
H973 C982 0.930 . S
H974 C987 0.929 . S
H975 C985 0.929 . S
H976 C980 0.929 . S
H977 C986 0.929 . S
C978 H972 0.930 . S
C978 C979 1.367 . S
C978 C986 1.378 . S
C979 C978 1.367 . S
C979 C987 1.433 . S
C980 H976 0.929 . S
C980 C982 1.378 . S
C980 C984 1.350 . S
C981 C984 1.463 . S
C981 C986 1.350 . S
C981 N989 1.427 . S
C982 H973 0.930 . S
C982 C980 1.378 . S
C982 C983 1.367 . S
C983 C982 1.367 . S
C983 C985 1.433 . S
C984 C980 1.350 . S
C984 C981 1.463 . S
C984 N988 1.427 . S
C985 H975 0.929 . S
C985 C983 1.433 . S
C985 N988 1.384 . S
C986 H977 0.929 . S
C986 C978 1.378 . S
C986 C981 1.350 . S
C987 H974 0.929 . S
C987 C979 1.433 . S
C987 N989 1.384 . S
N988 C984 1.427 . S
N988 C985 1.384 . S
N989 C981 1.427 . S
N989 C987 1.384 . S
H990 C996 0.930 . S
H991 C1000 0.930 . S
H992 C1005 0.929 . S
H993 C1003 0.929 1_545 S
H994 C998 0.929 . S
H995 C1004 0.929 . S
C996 H990 0.930 . S
C996 C997 1.367 . S
C996 C1004 1.378 . S
C997 C996 1.367 . S
C997 C1005 1.433 . S
C998 H994 0.929 . S
C998 C1000 1.378 . S
C998 C1002 1.350 . S
C999 C1002 1.463 . S
C999 C1004 1.350 . S
C999 N1007 1.427 . S
C1000 H991 0.930 . S
C1000 C998 1.378 . S
C1000 C1001 1.367 . S
C1001 C1000 1.367 . S
C1001 C1003 1.433 . S
C1002 C998 1.350 . S
C1002 C999 1.463 . S
C1002 N1006 1.427 . S
C1003 H993 0.929 1_565 S
C1003 C1001 1.433 . S
C1003 N1006 1.384 . S
C1004 H995 0.929 . S
C1004 C996 1.378 . S
C1004 C999 1.350 . S
C1005 H992 0.929 . S
C1005 C997 1.433 . S
C1005 N1007 1.384 . S
N1006 C1002 1.427 . S
N1006 C1003 1.384 . S
N1007 C999 1.427 . S
N1007 C1005 1.384 . S
H1008 C1014 0.930 . S
H1009 C1018 0.930 . S
H1010 C1023 0.929 . S
H1011 C1021 0.929 . S
H1012 C1016 0.929 . S
H1013 C1022 0.929 . S
C1014 H1008 0.930 . S
C1014 C1015 1.367 . S
C1014 C1022 1.378 . S
C1015 C1014 1.367 . S
C1015 C1023 1.433 . S
C1016 H1012 0.929 . S
C1016 C1018 1.378 . S
C1016 C1020 1.350 . S
C1017 C1020 1.463 . S
C1017 C1022 1.350 . S
C1017 N1025 1.427 . S
C1018 H1009 0.930 . S
C1018 C1016 1.378 . S
C1018 C1019 1.367 . S
C1019 C1018 1.367 . S
C1019 C1021 1.433 . S
C1020 C1016 1.350 . S
C1020 C1017 1.463 . S
C1020 N1024 1.427 . S
C1021 H1011 0.929 . S
C1021 C1019 1.433 . S
C1021 N1024 1.384 . S
C1022 H1013 0.929 . S
C1022 C1014 1.378 . S
C1022 C1017 1.350 . S
C1023 H1010 0.929 . S
C1023 C1015 1.433 . S
C1023 N1025 1.384 . S
N1024 C1020 1.427 . S
N1024 C1021 1.384 . S
N1025 C1017 1.427 . S
N1025 C1023 1.384 . S
H1026 C1032 0.930 . S
H1027 C1036 0.930 . S
H1028 C1041 0.929 . S
H1029 C1039 0.929 . S
H1030 C1034 0.929 . S
H1031 C1040 0.929 . S
C1032 H1026 0.930 . S
C1032 C1033 1.367 . S
C1032 C1040 1.378 . S
C1033 C1032 1.367 . S
C1033 C1041 1.433 . S
C1034 H1030 0.929 . S
C1034 C1036 1.378 . S
C1034 C1038 1.350 . S
C1035 C1038 1.463 . S
C1035 C1040 1.350 . S
C1035 N1043 1.427 . S
C1036 H1027 0.930 . S
C1036 C1034 1.378 . S
C1036 C1037 1.367 . S
C1037 C1036 1.367 . S
C1037 C1039 1.433 . S
C1038 C1034 1.350 . S
C1038 C1035 1.463 . S
C1038 N1042 1.427 . S
C1039 H1029 0.929 . S
C1039 C1037 1.433 . S
C1039 N1042 1.384 . S
C1040 H1031 0.929 . S
C1040 C1032 1.378 . S
C1040 C1035 1.350 . S
C1041 H1028 0.929 . S
C1041 C1033 1.433 . S
C1041 N1043 1.384 . S
N1042 C1038 1.427 . S
N1042 C1039 1.384 . S
N1043 C1035 1.427 . S
N1043 C1041 1.384 . S
H1044 C1050 0.930 . S
H1045 C1054 0.930 . S
H1046 C1059 0.929 . S
H1047 C1057 0.929 . S
H1048 C1052 0.929 . S
H1049 C1058 0.929 . S
C1050 H1044 0.930 . S
C1050 C1051 1.367 . S
C1050 C1058 1.378 . S
C1051 C1050 1.367 . S
C1051 C1059 1.433 . S
C1052 H1048 0.929 . S
C1052 C1054 1.378 . S
C1052 C1056 1.350 . S
C1053 C1056 1.463 . S
C1053 C1058 1.350 . S
C1053 N1061 1.427 . S
C1054 H1045 0.930 . S
C1054 C1052 1.378 . S
C1054 C1055 1.367 . S
C1055 C1054 1.367 . S
C1055 C1057 1.433 . S
C1056 C1052 1.350 . S
C1056 C1053 1.463 . S
C1056 N1060 1.427 . S
C1057 H1047 0.929 . S
C1057 C1055 1.433 . S
C1057 N1060 1.384 . S
C1058 H1049 0.929 . S
C1058 C1050 1.378 . S
C1058 C1053 1.350 . S
C1059 H1046 0.929 . S
C1059 C1051 1.433 . S
C1059 N1061 1.384 . S
N1060 C1056 1.427 . S
N1060 C1057 1.384 . S
N1061 C1053 1.427 . S
N1061 C1059 1.384 . S
H1062 C1068 0.930 . S
H1063 C1072 0.930 . S
H1064 C1077 0.929 . S
H1065 C1075 0.929 . S
H1066 C1070 0.929 . S
H1067 C1076 0.929 . S
C1068 H1062 0.930 . S
C1068 C1069 1.367 . S
C1068 C1076 1.378 . S
C1069 C1068 1.367 . S
C1069 C1077 1.433 . S
C1070 H1066 0.929 . S
C1070 C1072 1.378 . S
C1070 C1074 1.350 . S
C1071 C1074 1.463 . S
C1071 C1076 1.350 . S
C1071 N1079 1.427 . S
C1072 H1063 0.930 . S
C1072 C1070 1.378 . S
C1072 C1073 1.367 . S
C1073 C1072 1.367 . S
C1073 C1075 1.433 . S
C1074 C1070 1.350 . S
C1074 C1071 1.463 . S
C1074 N1078 1.427 . S
C1075 H1065 0.929 . S
C1075 C1073 1.433 . S
C1075 N1078 1.384 . S
C1076 H1067 0.929 . S
C1076 C1068 1.378 . S
C1076 C1071 1.350 . S
C1077 H1064 0.929 . S
C1077 C1069 1.433 . S
C1077 N1079 1.384 . S
N1078 C1074 1.427 . S
N1078 C1075 1.384 . S
N1079 C1071 1.427 . S
N1079 C1077 1.384 . S
H1080 C1086 0.930 . S
H1081 C1090 0.930 . S
H1082 C1095 0.929 . S
H1083 C1093 0.929 . S
H1084 C1088 0.929 . S
H1085 C1094 0.929 . S
C1086 H1080 0.930 . S
C1086 C1087 1.367 . S
C1086 C1094 1.378 . S
C1087 C1086 1.367 . S
C1087 C1095 1.433 . S
C1088 H1084 0.929 . S
C1088 C1090 1.378 . S
C1088 C1092 1.350 . S
C1089 C1092 1.463 . S
C1089 C1094 1.350 . S
C1089 N1097 1.427 . S
C1090 H1081 0.930 . S
C1090 C1088 1.378 . S
C1090 C1091 1.367 . S
C1091 C1090 1.367 . S
C1091 C1093 1.433 . S
C1092 C1088 1.350 . S
C1092 C1089 1.463 . S
C1092 N1096 1.427 . S
C1093 H1083 0.929 . S
C1093 C1091 1.433 . S
C1093 N1096 1.384 . S
C1094 H1085 0.929 . S
C1094 C1086 1.378 . S
C1094 C1089 1.350 . S
C1095 H1082 0.929 . S
C1095 C1087 1.433 . S
C1095 N1097 1.384 . S
N1096 C1092 1.427 . S
N1096 C1093 1.384 . S
N1097 C1089 1.427 . S
N1097 C1095 1.384 . S
H1098 C1104 0.930 . S
H1099 C1108 0.930 . S
H1100 C1113 0.929 . S
H1101 C1111 0.929 . S
H1102 C1106 0.929 . S
H1103 C1112 0.929 . S
C1104 H1098 0.930 . S
C1104 C1105 1.367 . S
C1104 C1112 1.378 . S
C1105 C1104 1.367 . S
C1105 C1113 1.433 . S
C1106 H1102 0.929 . S
C1106 C1108 1.378 . S
C1106 C1110 1.350 . S
C1107 C1110 1.463 . S
C1107 C1112 1.350 . S
C1107 N1115 1.427 . S
C1108 H1099 0.930 . S
C1108 C1106 1.378 . S
C1108 C1109 1.367 . S
C1109 C1108 1.367 . S
C1109 C1111 1.433 . S
C1110 C1106 1.350 . S
C1110 C1107 1.463 . S
C1110 N1114 1.427 . S
C1111 H1101 0.929 . S
C1111 C1109 1.433 . S
C1111 N1114 1.384 . S
C1112 H1103 0.929 . S
C1112 C1104 1.378 . S
C1112 C1107 1.350 . S
C1113 H1100 0.929 . S
C1113 C1105 1.433 . S
C1113 N1115 1.384 . S
N1114 C1110 1.427 . S
N1114 C1111 1.384 . S
N1115 C1107 1.427 . S
N1115 C1113 1.384 . S
H1116 C1122 0.930 . S
H1117 C1126 0.930 . S
H1118 C1131 0.929 . S
H1119 C1129 0.929 . S
H1120 C1124 0.929 . S
H1121 C1130 0.929 . S
C1122 H1116 0.930 . S
C1122 C1123 1.367 . S
C1122 C1130 1.378 . S
C1123 C1122 1.367 . S
C1123 C1131 1.433 . S
C1124 H1120 0.929 . S
C1124 C1126 1.378 . S
C1124 C1128 1.350 . S
C1125 C1128 1.463 . S
C1125 C1130 1.350 . S
C1125 N1133 1.427 . S
C1126 H1117 0.930 . S
C1126 C1124 1.378 . S
C1126 C1127 1.367 . S
C1127 C1126 1.367 . S
C1127 C1129 1.433 . S
C1128 C1124 1.350 . S
C1128 C1125 1.463 . S
C1128 N1132 1.427 . S
C1129 H1119 0.929 . S
C1129 C1127 1.433 . S
C1129 N1132 1.384 . S
C1130 H1121 0.929 . S
C1130 C1122 1.378 . S
C1130 C1125 1.350 . S
C1131 H1118 0.929 . S
C1131 C1123 1.433 . S
C1131 N1133 1.384 . S
N1132 C1128 1.427 . S
N1132 C1129 1.384 . S
N1133 C1125 1.427 . S
N1133 C1131 1.384 . S
H1134 C1140 0.930 . S
H1135 C1144 0.930 . S
H1136 C1149 0.929 . S
H1137 C1147 0.929 . S
H1138 C1142 0.929 . S
H1139 C1148 0.929 . S
C1140 H1134 0.930 . S
C1140 C1141 1.367 . S
C1140 C1148 1.378 . S
C1141 C1140 1.367 . S
C1141 C1149 1.433 . S
C1142 H1138 0.929 . S
C1142 C1144 1.378 . S
C1142 C1146 1.350 . S
C1143 C1146 1.463 . S
C1143 C1148 1.350 . S
C1143 N1151 1.427 . S
C1144 H1135 0.930 . S
C1144 C1142 1.378 . S
C1144 C1145 1.367 . S
C1145 C1144 1.367 . S
C1145 C1147 1.433 . S
C1146 C1142 1.350 . S
C1146 C1143 1.463 . S
C1146 N1150 1.427 . S
C1147 H1137 0.929 . S
C1147 C1145 1.433 . S
C1147 N1150 1.384 . S
C1148 H1139 0.929 . S
C1148 C1140 1.378 . S
C1148 C1143 1.350 . S
C1149 H1136 0.929 . S
C1149 C1141 1.433 . S
C1149 N1151 1.384 . S
N1150 C1146 1.427 . S
N1150 C1147 1.384 . S
N1151 C1143 1.427 . S
N1151 C1149 1.384 . S
C583 C4 1.271 1_455 S
C587 C472 1.276 . S
C601 C400 1.273 . S
C605 C40 1.272 . S
C619 C436 1.274 . S
C623 C76 1.277 . S
C637 C364 1.273 . S
C641 C112 1.277 . S
C655 C148 1.275 1_455 S
C659 C544 1.277 . S
C673 C184 1.274 . S
C677 C328 1.277 . S
C691 C508 1.276 . S
C695 C220 1.271 . S
C709 C256 1.275 . S
C713 C292 1.277 . S
C727 C158 1.565 . S
C731 C14 1.556 . S
C745 C50 1.558 . S
C749 C194 1.562 . S
C763 C86 1.561 . S
C767 C230 1.569 . S
C781 C266 1.569 . S
C785 C122 1.560 . S
C799 C302 1.569 . S
C803 C374 1.559 . S
C817 C338 1.556 . S
C821 C410 1.565 . S
C835 C518 1.567 . S
C839 C446 1.564 . S
C853 C482 1.561 . S
C857 C554 1.569 . S
C871 C183 1.225 . S
C875 C3 1.224 . S
C889 C39 1.225 . S
C893 C219 1.225 . S
C907 C75 1.222 . S
C911 C255 1.222 . S
C925 C147 1.226 . S
C929 C111 1.225 . S
C943 C146 1.386 1_545 S
C947 C362 1.394 . S
C961 C74 1.386 1_545 S
C965 C290 1.394 . S
C979 C398 1.390 . S
C983 C218 1.390 1_565 S
C997 C326 1.391 . S
C1001 C2 1.388 1_565 S
C1015 C291 1.225 . S
C1019 C435 1.225 . S
C1033 C363 1.224 . S
C1037 C543 1.225 . S
C1051 C471 1.226 . S
C1055 C327 1.225 . S
C1069 C399 1.224 . S
C1073 C507 1.225 . S
C1087 C506 1.394 . S
C1091 C38 1.386 . S
C1105 C470 1.394 . S
C1109 C182 1.387 . S
C1123 C542 1.394 . S
C1127 C110 1.387 . S
C1141 C434 1.390 . S
C1145 C254 1.390 . S
