# Generated by pormake.
# Topology uow, (4)-cn, num edge types: 1
# Building blocks:
#     Node 0, Type 0, BuildingBlock: GALJAG_clean_sbu_0, # of connection points: 4
#     Node 1, Type 0, BuildingBlock: GALJAG_clean_sbu_0, # of connection points: 4
#     Node 2, Type 0, BuildingBlock: GALJAG_clean_sbu_0, # of connection points: 4
#     Node 3, Type 0, BuildingBlock: GALJAG_clean_sbu_0, # of connection points: 4
#     Node 4, Type 0, BuildingBlock: GALJAG_clean_sbu_0, # of connection points: 4
#     Node 5, Type 0, BuildingBlock: GALJAG_clean_sbu_0, # of connection points: 4
#     Node 6, Type 0, BuildingBlock: GALJAG_clean_sbu_0, # of connection points: 4
#     Node 7, Type 0, BuildingBlock: GALJAG_clean_sbu_0, # of connection points: 4
#     Node 8, Type 0, BuildingBlock: GALJAG_clean_sbu_0, # of connection points: 4
#     Node 9, Type 0, BuildingBlock: GALJAG_clean_sbu_0, # of connection points: 4
#     Node 10, Type 0, BuildingBlock: GALJAG_clean_sbu_0, # of connection points: 4
#     Node 11, Type 0, BuildingBlock: GALJAG_clean_sbu_0, # of connection points: 4
#     Node 12, Type 0, BuildingBlock: GALJAG_clean_sbu_0, # of connection points: 4
#     Node 13, Type 0, BuildingBlock: GALJAG_clean_sbu_0, # of connection points: 4
#     Node 14, Type 0, BuildingBlock: GALJAG_clean_sbu_0, # of connection points: 4
#     Node 15, Type 0, BuildingBlock: GALJAG_clean_sbu_0, # of connection points: 4
#     Node 16, Type 0, BuildingBlock: GALJAG_clean_sbu_0, # of connection points: 4
#     Node 17, Type 0, BuildingBlock: GALJAG_clean_sbu_0, # of connection points: 4
#     Node 18, Type 0, BuildingBlock: GALJAG_clean_sbu_0, # of connection points: 4
#     Node 19, Type 0, BuildingBlock: GALJAG_clean_sbu_0, # of connection points: 4
#     Node 20, Type 0, BuildingBlock: GALJAG_clean_sbu_0, # of connection points: 4
#     Node 21, Type 0, BuildingBlock: GALJAG_clean_sbu_0, # of connection points: 4
#     Node 22, Type 0, BuildingBlock: GALJAG_clean_sbu_0, # of connection points: 4
#     Node 23, Type 0, BuildingBlock: GALJAG_clean_sbu_0, # of connection points: 4
#     Node 24, Type 0, BuildingBlock: GALJAG_clean_sbu_0, # of connection points: 4
#     Node 25, Type 0, BuildingBlock: GALJAG_clean_sbu_0, # of connection points: 4
#     Node 26, Type 0, BuildingBlock: GALJAG_clean_sbu_0, # of connection points: 4
#     Node 27, Type 0, BuildingBlock: GALJAG_clean_sbu_0, # of connection points: 4
#     Node 28, Type 0, BuildingBlock: GALJAG_clean_sbu_0, # of connection points: 4
#     Node 29, Type 0, BuildingBlock: GALJAG_clean_sbu_0, # of connection points: 4
#     Node 30, Type 0, BuildingBlock: GALJAG_clean_sbu_0, # of connection points: 4
#     Node 31, Type 0, BuildingBlock: GALJAG_clean_sbu_0, # of connection points: 4
#     Edge 32, Type (0, 0), BuildingBlock: ZUJKAS_clean_linker_0, # of connection points: 2
#     Edge 33, Type (0, 0), BuildingBlock: ZUJKAS_clean_linker_0, # of connection points: 2
#     Edge 34, Type (0, 0), BuildingBlock: ZUJKAS_clean_linker_0, # of connection points: 2
#     Edge 35, Type (0, 0), BuildingBlock: ZUJKAS_clean_linker_0, # of connection points: 2
#     Edge 36, Type (0, 0), BuildingBlock: ZUJKAS_clean_linker_0, # of connection points: 2
#     Edge 37, Type (0, 0), BuildingBlock: ZUJKAS_clean_linker_0, # of connection points: 2
#     Edge 38, Type (0, 0), BuildingBlock: ZUJKAS_clean_linker_0, # of connection points: 2
#     Edge 39, Type (0, 0), BuildingBlock: ZUJKAS_clean_linker_0, # of connection points: 2
#     Edge 40, Type (0, 0), BuildingBlock: ZUJKAS_clean_linker_0, # of connection points: 2
#     Edge 41, Type (0, 0), BuildingBlock: ZUJKAS_clean_linker_0, # of connection points: 2
#     Edge 42, Type (0, 0), BuildingBlock: ZUJKAS_clean_linker_0, # of connection points: 2
#     Edge 43, Type (0, 0), BuildingBlock: ZUJKAS_clean_linker_0, # of connection points: 2
#     Edge 44, Type (0, 0), BuildingBlock: ZUJKAS_clean_linker_0, # of connection points: 2
#     Edge 45, Type (0, 0), BuildingBlock: ZUJKAS_clean_linker_0, # of connection points: 2
#     Edge 46, Type (0, 0), BuildingBlock: ZUJKAS_clean_linker_0, # of connection points: 2
#     Edge 47, Type (0, 0), BuildingBlock: ZUJKAS_clean_linker_0, # of connection points: 2
#     Edge 48, Type (0, 0), BuildingBlock: ZUJKAS_clean_linker_0, # of connection points: 2
#     Edge 49, Type (0, 0), BuildingBlock: ZUJKAS_clean_linker_0, # of connection points: 2
#     Edge 50, Type (0, 0), BuildingBlock: ZUJKAS_clean_linker_0, # of connection points: 2
#     Edge 51, Type (0, 0), BuildingBlock: ZUJKAS_clean_linker_0, # of connection points: 2
#     Edge 52, Type (0, 0), BuildingBlock: ZUJKAS_clean_linker_0, # of connection points: 2
#     Edge 53, Type (0, 0), BuildingBlock: ZUJKAS_clean_linker_0, # of connection points: 2
#     Edge 54, Type (0, 0), BuildingBlock: ZUJKAS_clean_linker_0, # of connection points: 2
#     Edge 55, Type (0, 0), BuildingBlock: ZUJKAS_clean_linker_0, # of connection points: 2
#     Edge 56, Type (0, 0), BuildingBlock: ZUJKAS_clean_linker_0, # of connection points: 2
#     Edge 57, Type (0, 0), BuildingBlock: ZUJKAS_clean_linker_0, # of connection points: 2
#     Edge 58, Type (0, 0), BuildingBlock: ZUJKAS_clean_linker_0, # of connection points: 2
#     Edge 59, Type (0, 0), BuildingBlock: ZUJKAS_clean_linker_0, # of connection points: 2
#     Edge 60, Type (0, 0), BuildingBlock: ZUJKAS_clean_linker_0, # of connection points: 2
#     Edge 61, Type (0, 0), BuildingBlock: ZUJKAS_clean_linker_0, # of connection points: 2
#     Edge 62, Type (0, 0), BuildingBlock: ZUJKAS_clean_linker_0, # of connection points: 2
#     Edge 63, Type (0, 0), BuildingBlock: ZUJKAS_clean_linker_0, # of connection points: 2
#     Edge 64, Type (0, 0), BuildingBlock: ZUJKAS_clean_linker_0, # of connection points: 2
#     Edge 65, Type (0, 0), BuildingBlock: ZUJKAS_clean_linker_0, # of connection points: 2
#     Edge 66, Type (0, 0), BuildingBlock: ZUJKAS_clean_linker_0, # of connection points: 2
#     Edge 67, Type (0, 0), BuildingBlock: ZUJKAS_clean_linker_0, # of connection points: 2
#     Edge 68, Type (0, 0), BuildingBlock: ZUJKAS_clean_linker_0, # of connection points: 2
#     Edge 69, Type (0, 0), BuildingBlock: ZUJKAS_clean_linker_0, # of connection points: 2
#     Edge 70, Type (0, 0), BuildingBlock: ZUJKAS_clean_linker_0, # of connection points: 2
#     Edge 71, Type (0, 0), BuildingBlock: ZUJKAS_clean_linker_0, # of connection points: 2
#     Edge 72, Type (0, 0), BuildingBlock: ZUJKAS_clean_linker_0, # of connection points: 2
#     Edge 73, Type (0, 0), BuildingBlock: ZUJKAS_clean_linker_0, # of connection points: 2
#     Edge 74, Type (0, 0), BuildingBlock: ZUJKAS_clean_linker_0, # of connection points: 2
#     Edge 75, Type (0, 0), BuildingBlock: ZUJKAS_clean_linker_0, # of connection points: 2
#     Edge 76, Type (0, 0), BuildingBlock: ZUJKAS_clean_linker_0, # of connection points: 2
#     Edge 77, Type (0, 0), BuildingBlock: ZUJKAS_clean_linker_0, # of connection points: 2
#     Edge 78, Type (0, 0), BuildingBlock: ZUJKAS_clean_linker_0, # of connection points: 2
#     Edge 79, Type (0, 0), BuildingBlock: ZUJKAS_clean_linker_0, # of connection points: 2
#     Edge 80, Type (0, 0), BuildingBlock: ZUJKAS_clean_linker_0, # of connection points: 2
#     Edge 81, Type (0, 0), BuildingBlock: ZUJKAS_clean_linker_0, # of connection points: 2
#     Edge 82, Type (0, 0), BuildingBlock: ZUJKAS_clean_linker_0, # of connection points: 2
#     Edge 83, Type (0, 0), BuildingBlock: ZUJKAS_clean_linker_0, # of connection points: 2
#     Edge 84, Type (0, 0), BuildingBlock: ZUJKAS_clean_linker_0, # of connection points: 2
#     Edge 85, Type (0, 0), BuildingBlock: ZUJKAS_clean_linker_0, # of connection points: 2
#     Edge 86, Type (0, 0), BuildingBlock: ZUJKAS_clean_linker_0, # of connection points: 2
#     Edge 87, Type (0, 0), BuildingBlock: ZUJKAS_clean_linker_0, # of connection points: 2
#     Edge 88, Type (0, 0), BuildingBlock: ZUJKAS_clean_linker_0, # of connection points: 2
#     Edge 89, Type (0, 0), BuildingBlock: ZUJKAS_clean_linker_0, # of connection points: 2
#     Edge 90, Type (0, 0), BuildingBlock: ZUJKAS_clean_linker_0, # of connection points: 2
#     Edge 91, Type (0, 0), BuildingBlock: ZUJKAS_clean_linker_0, # of connection points: 2
#     Edge 92, Type (0, 0), BuildingBlock: ZUJKAS_clean_linker_0, # of connection points: 2
#     Edge 93, Type (0, 0), BuildingBlock: ZUJKAS_clean_linker_0, # of connection points: 2
#     Edge 94, Type (0, 0), BuildingBlock: ZUJKAS_clean_linker_0, # of connection points: 2
#     Edge 95, Type (0, 0), BuildingBlock: ZUJKAS_clean_linker_0, # of connection points: 2
# Relax obj value: 0.043
# Max RMSD: 0.080
# Mean RMSD: 0.080
data_MOF--net-uow--node1-GALJAG_clean_sbu_0--edge1-ZUJKAS_clean_linker_0
_symmetry_space_group_name_H-M    P1
_symmetry_Int_Tables_number       1
_symmetry_cell_setting            triclinic
loop_
_symmetry_equiv_pos_as_xyz
'x, y, z'
_cell_length_a     77.166428
_cell_length_b     77.167633
_cell_length_c     58.124698
_cell_angle_alpha  90.015629
_cell_angle_beta   90.005357
_cell_angle_gamma 90.00186
loop_
_atom_site_label
_atom_site_type_symbol
_atom_site_fract_x
_atom_site_fract_y
_atom_site_fract_z
_atom_type_partial_charge
In0 In 0.08154 0.38129 0.2892 0.0
O1 O 0.1013 0.40349 0.29031 0.0
O2 O 0.07462 0.40984 0.28759 0.0
C3 C 0.09883 0.3561 0.31177 0.0
C4 C 0.08447 0.37304 0.24433 0.0
C5 C 0.0507 0.37997 0.31082 0.0
O6 O 0.1001 0.37186 0.31735 0.0
O7 O 0.08915 0.35321 0.29475 0.0
O8 O 0.05206 0.37937 0.28918 0.0
O9 O 0.06489 0.38137 0.3215 0.0
C10 C 0.09001 0.41523 0.2885 0.0
O11 O 0.07069 0.37056 0.25555 0.0
O12 O 0.0967 0.37963 0.25575 0.0
In13 In 0.8681 0.82432 0.53899 0.0
O14 O 0.87715 0.8143 0.50408 0.0
O15 O 0.8733 0.84141 0.50789 0.0
C16 C 0.86705 0.79274 0.55844 0.0
C17 C 0.83466 0.83439 0.53612 0.0
C18 C 0.89395 0.83847 0.56404 0.0
O19 O 0.8706 0.79504 0.53745 0.0
O20 O 0.86383 0.80642 0.56963 0.0
O21 O 0.87822 0.84194 0.5679 0.0
O22 O 0.89647 0.82813 0.5476 0.0
C23 C 0.87756 0.82908 0.49483 0.0
O24 O 0.8467 0.84496 0.54047 0.0
O25 O 0.83947 0.81888 0.534 0.0
In26 In 0.42474 0.61933 0.78696 0.0
O27 O 0.40503 0.59711 0.78893 0.0
O28 O 0.43064 0.59152 0.77761 0.0
C29 C 0.41004 0.64431 0.81294 0.0
C30 C 0.42055 0.63 0.74317 0.0
C31 C 0.45541 0.61732 0.80871 0.0
O32 O 0.4051 0.62872 0.81402 0.0
O33 O 0.42206 0.64711 0.79878 0.0
O34 O 0.45365 0.62436 0.78924 0.0
O35 O 0.44166 0.61117 0.81723 0.0
C36 C 0.41564 0.58587 0.78175 0.0
O37 O 0.43526 0.6285 0.7524 0.0
O38 O 0.40798 0.62616 0.75604 0.0
In39 In 0.62572 0.17735 0.03185 0.0
O40 O 0.64815 0.15834 0.03738 0.0
O41 O 0.65124 0.17857 0.01285 0.0
C42 C 0.60091 0.16367 0.05898 0.0
C43 C 0.61198 0.17299 0.98972 0.0
C44 C 0.63136 0.20782 0.05334 0.0
O45 O 0.61587 0.15709 0.05766 0.0
O46 O 0.59866 0.17695 0.04676 0.0
O47 O 0.62237 0.20651 0.03531 0.0
O48 O 0.63777 0.19376 0.06043 0.0
C49 C 0.65771 0.16543 0.02245 0.0
O50 O 0.61563 0.18774 0.99774 0.0
O51 O 0.6151 0.16047 0.00306 0.0
In52 In 0.07377 0.62164 0.20959 0.0
O53 O 0.09326 0.5992 0.20854 0.0
O54 O 0.0681 0.5945 0.22208 0.0
C55 C 0.08942 0.64564 0.18298 0.0
C56 C 0.07777 0.63337 0.25286 0.0
C57 C 0.04296 0.61992 0.18799 0.0
O58 O 0.09253 0.62966 0.18073 0.0
O59 O 0.07871 0.64929 0.19858 0.0
O60 O 0.04511 0.62779 0.2068 0.0
O61 O 0.0564 0.61274 0.18004 0.0
C62 C 0.08294 0.58852 0.2177 0.0
O63 O 0.0631 0.63174 0.24354 0.0
O64 O 0.09043 0.62917 0.2403 0.0
In65 In 0.63127 0.82538 0.4563 0.0
O66 O 0.61456 0.81691 0.48678 0.0
O67 O 0.63536 0.83438 0.49305 0.0
C68 C 0.63042 0.79307 0.43839 0.0
C69 C 0.6643 0.83693 0.45592 0.0
C70 C 0.60724 0.84451 0.43378 0.0
O71 O 0.6317 0.79586 0.45971 0.0
O72 O 0.62961 0.80655 0.42618 0.0
O73 O 0.62156 0.8405 0.42479 0.0
O74 O 0.60528 0.83923 0.45409 0.0
C75 C 0.62288 0.82585 0.50127 0.0
O76 O 0.65151 0.84706 0.45727 0.0
O77 O 0.66037 0.82114 0.45387 0.0
In78 In 0.42428 0.37826 0.70812 0.0
O79 O 0.40507 0.40093 0.70562 0.0
O80 O 0.43083 0.40611 0.71652 0.0
C81 C 0.40809 0.35377 0.68283 0.0
C82 C 0.41901 0.36915 0.75217 0.0
C83 C 0.456 0.37765 0.6888 0.0
O84 O 0.4083 0.36949 0.67684 0.0
O85 O 0.41578 0.35061 0.70146 0.0
O86 O 0.45312 0.37196 0.70879 0.0
O87 O 0.44287 0.38362 0.67856 0.0
C88 C 0.41591 0.41202 0.71256 0.0
O89 O 0.43376 0.36835 0.74279 0.0
O90 O 0.40696 0.37441 0.73926 0.0
In91 In 0.86607 0.17153 0.9639 0.0
O92 O 0.87272 0.18361 -0.00154 0.0
O93 O 0.87169 0.1561 0.99643 0.0
C94 C 0.86666 0.20223 0.94196 0.0
C95 C 0.83253 0.16169 0.96615 0.0
C96 C 0.89222 0.15572 0.94142 0.0
O97 O 0.86967 0.20074 0.9632 0.0
O98 O 0.86331 0.18819 0.93171 0.0
O99 O 0.87659 0.15379 0.93553 0.0
O100 O 0.89451 0.16535 0.95867 0.0
C101 C 0.87418 0.16932 0.0088 0.0
O102 O 0.8445 0.15098 0.96206 0.0
O103 O 0.8375 0.17713 0.96835 0.0
In104 In 0.92466 0.61682 0.71191 0.0
O105 O 0.93528 0.62039 0.74833 0.0
O106 O 0.909 0.62705 0.74201 0.0
C107 C 0.9558 0.61628 0.69116 0.0
C108 C 0.91319 0.58396 0.71524 0.0
C109 C 0.91009 0.64163 0.68567 0.0
O110 O 0.95313 0.62436 0.70972 0.0
O111 O 0.94277 0.60844 0.68312 0.0
O112 O 0.90677 0.62576 0.68266 0.0
O113 O 0.92056 0.64477 0.70176 0.0
C114 C 0.9212 0.62609 0.75636 0.0
O115 O 0.90298 0.59647 0.7118 0.0
O116 O 0.92895 0.58806 0.71662 0.0
In117 In 0.1284 0.174 0.46253 0.0
O118 O 0.11796 0.18299 0.49715 0.0
O119 O 0.11615 0.15617 0.48923 0.0
C120 C 0.13301 0.20552 0.4435 0.0
C121 C 0.16105 0.16328 0.47096 0.0
C122 C 0.1049 0.16023 0.43356 0.0
O123 O 0.12503 0.20325 0.46219 0.0
O124 O 0.13888 0.19186 0.43443 0.0
O125 O 0.11902 0.15268 0.43808 0.0
O126 O 0.10277 0.17455 0.44362 0.0
C127 C 0.11335 0.16809 0.50361 0.0
O128 O 0.15215 0.15709 0.45468 0.0
O129 O 0.15353 0.17482 0.48256 0.0
In130 In 0.57397 0.37462 0.21903 0.0
O131 O 0.59183 0.39801 0.21368 0.0
O132 O 0.57095 0.4004 0.23729 0.0
C133 C 0.58983 0.3505 0.19291 0.0
C134 C 0.5774 0.35967 0.26066 0.0
C135 C 0.54405 0.37946 0.1959 0.0
O136 O 0.59645 0.36523 0.19647 0.0
O137 O 0.57535 0.3481 0.20243 0.0
O138 O 0.54454 0.37396 0.21633 0.0
O139 O 0.55867 0.38279 0.18723 0.0
C140 C 0.58389 0.40745 0.22795 0.0
O141 O 0.56295 0.36107 0.25068 0.0
O142 O 0.59008 0.36574 0.24959 0.0
In143 In 0.37268 0.82571 0.96484 0.0
O144 O 0.38182 0.81748 0.00047 0.0
O145 O 0.38307 0.84425 0.99195 0.0
C146 C 0.37092 0.79387 0.9458 0.0
C147 C 0.33983 0.83545 0.97367 0.0
C148 C 0.39515 0.84017 0.93496 0.0
O149 O 0.3809 0.79743 0.96233 0.0
O150 O 0.36165 0.80632 0.939 0.0
O151 O 0.37908 0.8433 0.93409 0.0
O152 O 0.39965 0.83003 0.95084 0.0
C153 C 0.38568 0.83264 0.00683 0.0
O154 O 0.34983 0.84454 0.96139 0.0
O155 O 0.34635 0.82152 0.98098 0.0
In156 In 0.92114 0.37757 0.78708 0.0
O157 O 0.90194 0.40012 0.79005 0.0
O158 O 0.92742 0.40545 0.77822 0.0
C159 C 0.90446 0.35343 0.81227 0.0
C160 C 0.91589 0.36798 0.74317 0.0
C161 C 0.95276 0.37661 0.80679 0.0
O162 O 0.90488 0.36917 0.81812 0.0
O163 O 0.91228 0.35001 0.7938 0.0
O164 O 0.95012 0.37183 0.78633 0.0
O165 O 0.93948 0.38196 0.81726 0.0
C166 C 0.91254 0.41126 0.78265 0.0
O167 O 0.93059 0.36712 0.75265 0.0
O168 O 0.90388 0.37356 0.75591 0.0
In169 In 0.37201 0.17168 0.52893 0.0
O170 O 0.3845 0.18145 0.49586 0.0
O171 O 0.37667 0.15501 0.49738 0.0
C172 C 0.37204 0.20271 0.5503 0.0
C173 C 0.33841 0.16352 0.52235 0.0
C174 C 0.39527 0.15428 0.5547 0.0
O175 O 0.37688 0.20084 0.52972 0.0
O176 O 0.3671 0.18895 0.56002 0.0
O177 O 0.37929 0.15424 0.55932 0.0
O178 O 0.39937 0.16292 0.53715 0.0
C179 C 0.38341 0.16703 0.48568 0.0
O180 O 0.34911 0.15285 0.53067 0.0
O181 O 0.34462 0.17825 0.5179 0.0
In182 In 0.57562 0.61746 0.28819 0.0
O183 O 0.56416 0.62585 0.25388 0.0
O184 O 0.59165 0.62532 0.25716 0.0
C185 C 0.54422 0.61773 0.3086 0.0
C186 C 0.58521 0.58442 0.2803 0.0
C187 C 0.59304 0.64 0.31522 0.0
O188 O 0.54843 0.6284 0.29315 0.0
O189 O 0.55587 0.60699 0.31387 0.0
O190 O 0.59113 0.6243 0.32077 0.0
O191 O 0.58642 0.64407 0.29619 0.0
C192 C 0.57871 0.62829 0.24447 0.0
O193 O 0.59503 0.59495 0.29067 0.0
O194 O 0.57073 0.59054 0.27445 0.0
In195 In 0.12981 0.82665 0.0333 0.0
O196 O 0.11764 0.8155 0.0007 0.0
O197 O 0.1233 0.84249 0.00163 0.0
C198 C 0.12889 0.79418 0.05055 0.0
C199 C 0.16285 0.83651 0.02577 0.0
C200 C 0.10921 0.84453 0.06261 0.0
O201 O 0.11637 0.80072 0.03961 0.0
O202 O 0.14186 0.80398 0.05271 0.0
O203 O 0.12261 0.83668 0.06934 0.0
O204 O 0.10664 0.84378 0.04127 0.0
C205 C 0.11735 0.82987 0.9903 0.0
O206 O 0.15296 0.84491 0.03903 0.0
O207 O 0.15611 0.82326 0.01684 0.0
In208 In 0.57117 0.87513 0.77627 0.0
O209 O 0.58721 0.89942 0.78409 0.0
O210 O 0.56823 0.90074 0.75764 0.0
C211 C 0.58604 0.85165 0.8044 0.0
C212 C 0.57874 0.86098 0.73511 0.0
C213 C 0.53939 0.87867 0.79498 0.0
O214 O 0.59224 0.86666 0.80172 0.0
O215 O 0.57246 0.84865 0.79303 0.0
O216 O 0.54178 0.87274 0.775 0.0
O217 O 0.55304 0.88301 0.80546 0.0
C218 C 0.57996 0.90845 0.76874 0.0
O219 O 0.56356 0.86121 0.74314 0.0
O220 O 0.59007 0.86772 0.74793 0.0
In221 In 0.37197 0.32825 0.03266 0.0
O222 O 0.38352 0.31923 -0.00129 0.0
O223 O 0.37591 0.34569 0.00166 0.0
C224 C 0.37207 0.29676 0.05281 0.0
C225 C 0.33821 0.33606 0.0267 0.0
C226 C 0.39612 0.34507 0.0578 0.0
O227 O 0.37748 0.29921 0.03259 0.0
O228 O 0.36665 0.3102 0.06286 0.0
O229 O 0.3803 0.34512 0.06333 0.0
O230 O 0.39956 0.33674 0.03974 0.0
C231 C 0.38224 0.33388 0.98917 0.0
O232 O 0.34859 0.34648 0.03626 0.0
O233 O 0.34482 0.3218 0.02084 0.0
In234 In 0.92584 0.12237 0.28283 0.0
O235 O 0.9123 0.09691 0.29268 0.0
O236 O 0.92285 0.0994 0.25905 0.0
C237 C 0.91279 0.14509 0.31349 0.0
C238 C 0.91825 0.1381 0.2429 0.0
C239 C 0.95841 0.11783 0.29865 0.0
O240 O 0.90522 0.13094 0.30905 0.0
O241 O 0.9267 0.1475 0.30261 0.0
O242 O 0.95482 0.128 0.28236 0.0
O243 O 0.94561 0.10965 0.30666 0.0
C244 C 0.91489 0.09001 0.27325 0.0
O245 O 0.93324 0.13252 0.24753 0.0
O246 O 0.90711 0.13589 0.25856 0.0
In247 In 0.12636 0.67681 0.53069 0.0
O248 O 0.11389 0.68629 0.49745 0.0
O249 O 0.11935 0.6594 0.50051 0.0
C250 C 0.12981 0.70744 0.55242 0.0
C251 C 0.1597 0.66806 0.52353 0.0
C252 C 0.102 0.6616 0.55706 0.0
O253 O 0.12379 0.70614 0.53231 0.0
O254 O 0.13426 0.69326 0.56153 0.0
O255 O 0.11723 0.65568 0.55565 0.0
O256 O 0.09924 0.67501 0.54525 0.0
C257 C 0.11342 0.6715 0.48824 0.0
O258 O 0.14977 0.65895 0.53587 0.0
O259 O 0.15283 0.68151 0.51526 0.0
In260 In 0.57418 0.12054 0.71168 0.0
O261 O 0.56427 0.13423 0.74378 0.0
O262 O 0.59022 0.12495 0.74399 0.0
C263 C 0.54362 0.11897 0.68943 0.0
C264 C 0.58198 0.0868 0.7178 0.0
C265 C 0.59097 0.14477 0.68678 0.0
O266 O 0.54474 0.12181 0.71075 0.0
O267 O 0.55793 0.11686 0.6793 0.0
O268 O 0.59402 0.12878 0.68435 0.0
O269 O 0.5797 0.14834 0.70173 0.0
C270 C 0.57826 0.13259 0.75479 0.0
O271 O 0.59271 0.0973 0.70914 0.0
O272 O 0.5675 0.0933 0.72284 0.0
In273 In 0.12787 0.3228 0.96597 0.0
O274 O 0.11683 0.31486 0.00071 0.0
O275 O 0.12107 0.34172 0.99454 0.0
C276 C 0.13029 0.2912 0.94643 0.0
C277 C 0.16113 0.33222 0.97252 0.0
C278 C 0.10291 0.33666 0.93927 0.0
O279 O 0.12454 0.29347 0.96652 0.0
O280 O 0.13503 0.30486 0.93628 0.0
O281 O 0.11869 0.34068 0.93684 0.0
O282 O 0.09992 0.32592 0.95511 0.0
C283 C 0.11605 0.33015 0.00837 0.0
O284 O 0.15093 0.34111 0.96026 0.0
O285 O 0.15461 0.31862 0.98081 0.0
In286 In 0.92641 0.87563 0.21651 0.0
O287 O 0.91044 0.90033 0.21087 0.0
O288 O 0.93292 0.90169 0.23198 0.0
C289 C 0.90948 0.85212 0.19059 0.0
C290 C 0.919 0.86452 0.25919 0.0
C291 C 0.95766 0.87578 0.19569 0.0
O292 O 0.90694 0.8682 0.18832 0.0
O293 O 0.92035 0.8481 0.20586 0.0
O294 O 0.9554 0.86979 0.21567 0.0
O295 O 0.94418 0.88175 0.18631 0.0
C296 C 0.92012 0.90954 0.22344 0.0
O297 O 0.93403 0.86347 0.2507 0.0
O298 O 0.90772 0.87101 0.24604 0.0
In299 In 0.37145 0.67509 0.46549 0.0
O300 O 0.38225 0.68441 0.49978 0.0
O301 O 0.37897 0.65728 0.49503 0.0
C302 C 0.36903 0.70596 0.44413 0.0
C303 C 0.33813 0.66667 0.47302 0.0
C304 C 0.39559 0.65975 0.43887 0.0
O305 O 0.37736 0.70384 0.46258 0.0
O306 O 0.36173 0.69251 0.43646 0.0
O307 O 0.38005 0.6546 0.43913 0.0
O308 O 0.39872 0.67241 0.45189 0.0
C309 C 0.38367 0.6694 0.50819 0.0
O310 O 0.34787 0.65747 0.46049 0.0
O311 O 0.34518 0.68003 0.48129 0.0
In312 In 0.41826 0.11892 0.20527 0.0
O313 O 0.43004 0.12981 0.23824 0.0
O314 O 0.40306 0.12399 0.23793 0.0
C315 C 0.45016 0.12057 0.18656 0.0
C316 C 0.40916 0.08558 0.21207 0.0
C317 C 0.40018 0.14081 0.17792 0.0
O318 O 0.44474 0.13158 0.20092 0.0
O319 O 0.43948 0.10876 0.18163 0.0
O320 O 0.40683 0.12703 0.17031 0.0
O321 O 0.40218 0.14313 0.19916 0.0
C322 C 0.41591 0.12954 0.24919 0.0
O323 O 0.39917 0.09614 0.20205 0.0
O324 O 0.4236 0.09179 0.21792 0.0
In325 In 0.62528 0.67917 0.96834 0.0
O326 O 0.61693 0.6883 0.00405 0.0
O327 O 0.61249 0.66198 0.99515 0.0
C328 C 0.62873 0.71002 0.94715 0.0
C329 C 0.65799 0.66887 0.97681 0.0
C330 C 0.60202 0.66439 0.93998 0.0
O331 O 0.61918 0.70785 0.96453 0.0
O332 O 0.63675 0.69665 0.94057 0.0
O333 O 0.6166 0.65754 0.94391 0.0
O334 O 0.59941 0.67858 0.95015 0.0
C335 C 0.61124 0.67368 0.01017 0.0
O336 O 0.64838 0.66101 0.96263 0.0
O337 O 0.65115 0.68189 0.98623 0.0
In338 In 0.07791 0.87869 0.71239 0.0
O339 O 0.06627 0.86704 0.74503 0.0
O340 O 0.09323 0.87296 0.74472 0.0
C341 C 0.04604 0.87671 0.69329 0.0
C342 C 0.08692 0.91197 0.71986 0.0
C343 C 0.09733 0.85801 0.68501 0.0
O344 O 0.05241 0.86464 0.70523 0.0
O345 O 0.0557 0.88978 0.69105 0.0
O346 O 0.08994 0.87143 0.67746 0.0
O347 O 0.09525 0.85541 0.70619 0.0
C348 C 0.08048 0.8671 0.75586 0.0
O349 O 0.09569 0.90221 0.70685 0.0
O350 O 0.07366 0.905 0.72849 0.0
In351 In 0.87118 0.32668 0.46192 0.0
O352 O 0.8822 0.31761 0.49619 0.0
O353 O 0.8743 0.34396 0.49328 0.0
C354 C 0.87083 0.29491 0.44268 0.0
C355 C 0.83755 0.33592 0.46482 0.0
C356 C 0.89688 0.3419 0.43782 0.0
O357 O 0.87307 0.29725 0.46396 0.0
O358 O 0.8687 0.30859 0.43113 0.0
O359 O 0.88122 0.34288 0.43158 0.0
O360 O 0.89936 0.33353 0.45613 0.0
C361 C 0.88054 0.33218 0.50586 0.0
O362 O 0.84899 0.3463 0.45762 0.0
O363 O 0.84307 0.32102 0.46971 0.0
In364 In 0.42239 0.88161 0.28727 0.0
O365 O 0.43366 0.87953 0.25093 0.0
O366 O 0.40838 0.86965 0.25675 0.0
C367 C 0.4531 0.88251 0.30909 0.0
C368 C 0.40987 0.9143 0.28526 0.0
C369 C 0.40822 0.856 0.31246 0.0
O370 O 0.45159 0.87769 0.2884 0.0
O371 O 0.43911 0.88703 0.31867 0.0
O372 O 0.40246 0.87132 0.31315 0.0
O373 O 0.4209 0.85375 0.29912 0.0
C374 C 0.42044 0.87226 0.24258 0.0
O375 O 0.40007 0.90123 0.2849 0.0
O376 O 0.42574 0.91085 0.28721 0.0
In377 In 0.86841 0.67667 0.03135 0.0
O378 O 0.8787 0.6848 0.99618 0.0
O379 O 0.87907 0.65801 0.00461 0.0
C380 C 0.86505 0.70805 0.05113 0.0
C381 C 0.83529 0.66698 0.02439 0.0
C382 C 0.89276 0.66306 0.05909 0.0
O383 O 0.87187 0.70593 0.03159 0.0
O384 O 0.85965 0.69433 0.06057 0.0
O385 O 0.87833 0.65568 0.05593 0.0
O386 O 0.8947 0.67715 0.04843 0.0
C387 C 0.88236 0.66958 0.98994 0.0
O388 O 0.8448 0.65955 0.03905 0.0
O389 O 0.84244 0.67926 0.01372 0.0
In390 In 0.07283 0.12106 0.78333 0.0
O391 O 0.06176 0.12787 0.74817 0.0
O392 O 0.08898 0.13027 0.75295 0.0
C393 C 0.04227 0.12048 0.80578 0.0
C394 C 0.0827 0.08794 0.77648 0.0
C395 C 0.08882 0.14509 0.80945 0.0
O396 O 0.04434 0.12815 0.78682 0.0
O397 O 0.05561 0.11293 0.81337 0.0
O398 O 0.09158 0.12907 0.81201 0.0
O399 O 0.07828 0.14883 0.79363 0.0
C400 C 0.07625 0.13161 0.73944 0.0
O401 O 0.0928 0.09905 0.78513 0.0
O402 O 0.06772 0.09348 0.77201 0.0
In403 In 0.63064 0.32516 0.53584 0.0
O404 O 0.65405 0.34311 0.54148 0.0
O405 O 0.65611 0.32287 0.51688 0.0
C406 C 0.61101 0.34414 0.56508 0.0
C407 C 0.61614 0.32617 0.49374 0.0
C408 C 0.63018 0.29307 0.55419 0.0
O409 O 0.62281 0.33415 0.57207 0.0
O410 O 0.6096 0.34496 0.54355 0.0
O411 O 0.6171 0.29983 0.54475 0.0
O412 O 0.64357 0.30247 0.55428 0.0
C413 C 0.66324 0.33565 0.52647 0.0
O414 O 0.61737 0.31228 0.50511 0.0
O415 O 0.62211 0.33942 0.5037 0.0
H416 H 0.11249 0.37837 0.21681 0.0
H417 H 0.11567 0.37065 0.17624 0.0
H418 H 0.06397 0.34939 0.176 0.0
H419 H 0.06058 0.35732 0.21658 0.0
H420 H 0.11371 0.33791 0.15674 0.0
H421 H 0.0638 0.38199 0.12027 0.0
H422 H 0.07208 0.38434 0.14915 0.0
H423 H 0.05626 0.36794 0.14279 0.0
C424 C 0.10176 0.37213 0.20809 0.0
C425 C 0.08626 0.36849 0.21981 0.0
C426 C 0.10361 0.36772 0.18495 0.0
C427 C 0.08999 0.35965 0.17309 0.0
C428 C 0.07451 0.35591 0.18475 0.0
H429 H 0.10439 0.30757 0.04103 0.0
H430 H 0.09676 0.31415 0.08099 0.0
C431 C 0.07263 0.36036 0.20793 0.0
C432 C 0.09229 0.35474 0.1487 0.0
H433 H 0.0772 0.36239 0.09444 0.0
C434 C 0.10571 0.34322 0.1431 0.0
C435 C 0.08191 0.36183 0.131 0.0
C436 C 0.06779 0.37483 0.13599 0.0
C437 C 0.1091 0.33863 0.12021 0.0
C438 C 0.09857 0.34553 0.10253 0.0
C439 C 0.08512 0.35702 0.10811 0.0
C440 C 0.10191 0.34163 0.07803 0.0
C441 C 0.12425 0.32687 0.11509 0.0
C442 C 0.10674 0.355 0.063 0.0
C443 C 0.11098 0.3513 0.04018 0.0
C444 C 0.11043 0.33417 0.03202 0.0
C445 C 0.10505 0.32087 0.04691 0.0
C446 C 0.10076 0.32459 0.06973 0.0
H447 H 0.13332 0.32597 0.12989 0.0
H448 H 0.11937 0.31364 0.11132 0.0
H449 H 0.13155 0.3315 0.09982 0.0
H450 H 0.10764 0.36824 0.0691 0.0
H451 H 0.11503 0.36182 0.02907 0.0
H452 H 0.88834 0.86796 0.28192 0.0
H453 H 0.88216 0.86056 0.32199 0.0
H454 H 0.9343 0.84133 0.33004 0.0
H455 H 0.94069 0.84901 0.29005 0.0
H456 H 0.88365 0.8291 0.34481 0.0
H457 H 0.9299 0.87657 0.3822 0.0
H458 H 0.92356 0.87701 0.35233 0.0
H459 H 0.9394 0.86162 0.36215 0.0
C460 C 0.89848 0.86212 0.29221 0.0
C461 C 0.91503 0.85918 0.28295 0.0
C462 C 0.89493 0.85789 0.31506 0.0
C463 C 0.90786 0.85066 0.32903 0.0
C464 C 0.92426 0.84723 0.31965 0.0
H465 H 0.88872 0.80481 0.46402 0.0
H466 H 0.89651 0.80941 0.42362 0.0
C467 C 0.92785 0.85154 0.2968 0.0
C468 C 0.90415 0.84688 0.35347 0.0
H469 H 0.9159 0.85762 0.40824 0.0
C470 C 0.89071 0.83529 0.35871 0.0
C471 C 0.91325 0.85518 0.37149 0.0
C472 C 0.92723 0.86841 0.36685 0.0
C473 C 0.88611 0.83175 0.38158 0.0
C474 C 0.89544 0.83979 0.3996 0.0
C475 C 0.90888 0.85137 0.39434 0.0
C476 C 0.89103 0.83691 0.42404 0.0
C477 C 0.871 0.81984 0.38622 0.0
C478 C 0.88583 0.85094 0.43775 0.0
C479 C 0.88154 0.84839 0.46082 0.0
C480 C 0.88242 0.83176 0.47057 0.0
C481 C 0.88783 0.81775 0.45689 0.0
C482 C 0.89218 0.82033 0.43382 0.0
H483 H 0.86267 0.81818 0.37078 0.0
H484 H 0.87596 0.80688 0.39123 0.0
H485 H 0.86289 0.82484 0.40054 0.0
H486 H 0.88493 0.86385 0.43052 0.0
H487 H 0.87744 0.85943 0.47097 0.0
H488 H 0.44536 0.6415 0.7134 0.0
H489 H 0.44135 0.65058 0.67337 0.0
H490 H 0.38667 0.63962 0.67859 0.0
H491 H 0.3905 0.63095 0.71868 0.0
H492 H 0.42968 0.63191 0.63708 0.0
H493 H 0.38645 0.68803 0.65197 0.0
H494 H 0.39843 0.67776 0.6749 0.0
H495 H 0.3783 0.66861 0.665 0.0
C496 C 0.43247 0.64117 0.70603 0.0
C497 C 0.41821 0.63563 0.71915 0.0
C498 C 0.43021 0.64634 0.6832 0.0
C499 C 0.41367 0.64607 0.67316 0.0
C500 C 0.39946 0.64037 0.68619 0.0
H501 H 0.38411 0.63879 0.53147 0.0
H502 H 0.39315 0.63387 0.57121 0.0
C503 C 0.40169 0.63531 0.70904 0.0
C504 C 0.41132 0.65102 0.64878 0.0
H505 H 0.38737 0.67693 0.61345 0.0
C506 C 0.42058 0.64189 0.6319 0.0
C507 C 0.39969 0.66426 0.64209 0.0
C508 C 0.39029 0.67535 0.65946 0.0
C509 C 0.41798 0.64517 0.60842 0.0
C510 C 0.4055 0.65761 0.60172 0.0
C511 C 0.39678 0.66723 0.61862 0.0
C512 C 0.40083 0.66047 0.57733 0.0
C513 C 0.42865 0.63528 0.59106 0.0
C514 C 0.40176 0.67713 0.56775 0.0
C515 C 0.39635 0.68003 0.54515 0.0
C516 C 0.38993 0.66629 0.53177 0.0
C517 C 0.38913 0.64959 0.54133 0.0
C518 C 0.39441 0.64674 0.56397 0.0
H519 H 0.44107 0.63074 0.59865 0.0
H520 H 0.42131 0.62368 0.58537 0.0
H521 H 0.43157 0.64334 0.57573 0.0
H522 H 0.40656 0.68792 0.57784 0.0
H523 H 0.3971 0.69303 0.53821 0.0
H524 H 0.55493 0.15063 0.78071 0.0
H525 H 0.55845 0.16058 0.82046 0.0
H526 H 0.60966 0.1382 0.82238 0.0
H527 H 0.60638 0.12852 0.78259 0.0
H528 H 0.564 0.14111 0.85911 0.0
H529 H 0.61828 0.18698 0.84604 0.0
H530 H 0.60563 0.17847 0.82248 0.0
H531 H 0.62289 0.16583 0.8348 0.0
C532 C 0.56699 0.14797 0.78957 0.0
C533 C 0.58043 0.13889 0.77856 0.0
C534 C 0.56897 0.15364 0.81224 0.0
C535 C 0.58442 0.15038 0.82419 0.0
C536 C 0.5978 0.14122 0.81326 0.0
H537 H 0.60597 0.14239 0.96777 0.0
H538 H 0.59726 0.13818 0.92777 0.0
C539 C 0.59587 0.13561 0.79058 0.0
C540 C 0.58633 0.15582 0.84845 0.0
H541 H 0.61302 0.17792 0.88487 0.0
C542 C 0.57459 0.14934 0.86474 0.0
C543 C 0.59996 0.16679 0.85567 0.0
C544 C 0.6123 0.17507 0.83879 0.0
C545 C 0.57657 0.15291 0.88825 0.0
C546 C 0.59087 0.16295 0.89561 0.0
C547 C 0.60216 0.17006 0.87921 0.0
C548 C 0.5949 0.16556 0.92025 0.0
C549 C 0.56337 0.14587 0.90496 0.0
C550 C 0.59674 0.18236 0.92918 0.0
C551 C 0.60192 0.1848 0.95198 0.0
C552 C 0.60539 0.17047 0.96616 0.0
C553 C 0.60327 0.15367 0.95728 0.0
C554 C 0.59817 0.15125 0.93448 0.0
H555 H 0.55072 0.1435 0.8964 0.0
H556 H 0.56805 0.13331 0.91188 0.0
H557 H 0.56132 0.15489 0.9196 0.0
H558 H 0.59438 0.19357 0.91841 0.0
H559 H 0.60347 0.1979 0.95837 0.0
H560 H 0.05266 0.64474 0.28226 0.0
H561 H 0.05627 0.65394 0.3223 0.0
H562 H 0.1112 0.64416 0.31757 0.0
H563 H 0.10775 0.6353 0.27747 0.0
H564 H 0.06825 0.63498 0.35834 0.0
H565 H 0.11006 0.69241 0.34511 0.0
H566 H 0.0984 0.68216 0.32187 0.0
H567 H 0.11869 0.67334 0.33168 0.0
C568 C 0.06552 0.64471 0.28971 0.0
C569 C 0.07994 0.63938 0.27676 0.0
C570 C 0.06756 0.64996 0.31255 0.0
C571 C 0.08404 0.65 0.32275 0.0
C572 C 0.09844 0.64464 0.30984 0.0
H573 H 0.11398 0.6414 0.46381 0.0
H574 H 0.10493 0.63698 0.42398 0.0
C575 C 0.09643 0.63947 0.28699 0.0
C576 C 0.0861 0.65476 0.34725 0.0
H577 H 0.10917 0.68083 0.3834 0.0
C578 C 0.07704 0.64514 0.36383 0.0
C579 C 0.09734 0.66822 0.35434 0.0
C580 C 0.10653 0.67974 0.3373 0.0
C581 C 0.07947 0.64815 0.3874 0.0
C582 C 0.09156 0.66084 0.3945 0.0
C583 C 0.10006 0.67096 0.37791 0.0
C584 C 0.09616 0.66337 0.41897 0.0
C585 C 0.06909 0.63767 0.40445 0.0
C586 C 0.09457 0.67976 0.42921 0.0
C587 C 0.09993 0.68237 0.4519 0.0
C588 C 0.10701 0.66863 0.46466 0.0
C589 C 0.10845 0.6522 0.45444 0.0
C590 C 0.10317 0.64963 0.43174 0.0
H591 H 0.05686 0.63282 0.39668 0.0
H592 H 0.0768 0.62626 0.40991 0.0
H593 H 0.06587 0.64543 0.41996 0.0
H594 H 0.08929 0.69056 0.41957 0.0
H595 H 0.0987 0.69518 0.45936 0.0
H596 H 0.5943 0.81212 0.52235 0.0
H597 H 0.58547 0.81599 0.5626 0.0
H598 H 0.6319 0.84555 0.57556 0.0
H599 H 0.64061 0.84204 0.53546 0.0
H600 H 0.60199 0.80747 0.60432 0.0
H601 H 0.59316 0.87846 0.59537 0.0
H602 H 0.59537 0.86425 0.57088 0.0
H603 H 0.61424 0.87124 0.58653 0.0
C604 C 0.60263 0.81938 0.53384 0.0
C605 C 0.61804 0.82695 0.52576 0.0
C606 C 0.59759 0.82156 0.55677 0.0
C607 C 0.60788 0.83134 0.57186 0.0
C608 C 0.62359 0.8383 0.56402 0.0
H609 H 0.60979 0.86227 0.71296 0.0
H610 H 0.61604 0.85338 0.67341 0.0
C611 C 0.62858 0.83622 0.54114 0.0
C612 C 0.60215 0.83463 0.59574 0.0
H613 H 0.59363 0.8673 0.63365 0.0
C614 C 0.59997 0.82052 0.61072 0.0
C615 C 0.59939 0.85168 0.60391 0.0
C616 C 0.60048 0.86726 0.58828 0.0
C617 C 0.59577 0.82311 0.63397 0.0
C618 C 0.59369 0.84019 0.64224 0.0
C619 C 0.59542 0.85424 0.62717 0.0
C620 C 0.59016 0.8439 0.66667 0.0
C621 C 0.59406 0.80772 0.64978 0.0
C622 C 0.57356 0.84137 0.67584 0.0
C623 C 0.5699 0.84654 0.69838 0.0
C624 C 0.58283 0.85427 0.71198 0.0
C625 C 0.59957 0.85633 0.70288 0.0
C626 C 0.60317 0.85127 0.68035 0.0
H627 H 0.59765 0.79538 0.64115 0.0
H628 H 0.60241 0.8095 0.66516 0.0
H629 H 0.58046 0.80671 0.65584 0.0
H630 H 0.56334 0.83585 0.66537 0.0
H631 H 0.55689 0.8448 0.70497 0.0
H632 H 0.37939 0.36388 0.9648 0.0
H633 H 0.38689 0.36867 0.92442 0.0
H634 H 0.40447 0.31577 0.91892 0.0
H635 H 0.39674 0.31078 0.95925 0.0
H636 H 0.41877 0.36522 0.90206 0.0
H637 H 0.36929 0.32033 0.86628 0.0
H638 H 0.36892 0.3276 0.89579 0.0
H639 H 0.38367 0.31083 0.88706 0.0
C640 C 0.38486 0.35327 0.95499 0.0
C641 C 0.38739 0.33693 0.96509 0.0
C642 C 0.38916 0.35604 0.93197 0.0
C643 C 0.396 0.34251 0.91866 0.0
C644 C 0.3989 0.32628 0.92882 0.0
H645 H 0.44261 0.3566 0.78298 0.0
H646 H 0.43768 0.34949 0.82352 0.0
C647 C 0.39456 0.32348 0.95186 0.0
C648 C 0.4 0.34546 0.89412 0.0
H649 H 0.38872 0.3331 0.83978 0.0
C650 C 0.41225 0.35818 0.88841 0.0
C651 C 0.3913 0.33637 0.87643 0.0
C652 C 0.37744 0.32312 0.8816 0.0
C653 C 0.41604 0.3621 0.8654 0.0
C654 C 0.40754 0.35281 0.84772 0.0
C655 C 0.39531 0.34007 0.85343 0.0
C656 C 0.41056 0.35666 0.82314 0.0
C657 C 0.42873 0.37646 0.86021 0.0
C658 C 0.39684 0.36259 0.80943 0.0
C659 C 0.39957 0.36652 0.78629 0.0
C660 C 0.41609 0.36454 0.77647 0.0
C661 C 0.42977 0.35835 0.79014 0.0
C662 C 0.427 0.35437 0.8133 0.0
H663 H 0.43097 0.38491 0.87541 0.0
H664 H 0.44134 0.37072 0.85513 0.0
H665 H 0.42404 0.38462 0.84575 0.0
H666 H 0.38404 0.36438 0.81672 0.0
H667 H 0.38878 0.37125 0.77615 0.0
H668 H 0.88137 0.14025 0.03359 0.0
H669 H 0.88787 0.13835 0.07467 0.0
H670 H 0.88231 0.19379 0.08095 0.0
H671 H 0.87625 0.19583 0.03969 0.0
H672 H 0.91066 0.1821 0.10339 0.0
H673 H 0.85371 0.14237 0.12709 0.0
H674 H 0.86629 0.13245 0.10473 0.0
H675 H 0.85566 0.15285 0.09946 0.0
C676 C 0.8815 0.15202 0.04374 0.0
C677 C 0.87823 0.16817 0.03351 0.0
C678 C 0.88509 0.15091 0.06722 0.0
C679 C 0.8852 0.16589 0.08092 0.0
C680 C 0.88216 0.18207 0.07069 0.0
H681 H 0.88796 0.15361 0.23021 0.0
H682 H 0.87975 0.16344 0.19168 0.0
C683 C 0.8787 0.18321 0.04715 0.0
C684 C 0.88893 0.16466 0.10582 0.0
H685 H 0.87673 0.14359 0.15474 0.0
C686 C 0.90313 0.17385 0.11471 0.0
C687 C 0.87886 0.1542 0.12066 0.0
C688 C 0.86267 0.14506 0.11255 0.0
C689 C 0.90801 0.17223 0.13786 0.0
C690 C 0.89867 0.16079 0.15227 0.0
C691 C 0.88401 0.15221 0.14361 0.0
C692 C 0.90431 0.15676 0.17601 0.0
C693 C 0.9231 0.18278 0.14659 0.0
C694 C 0.92088 0.14988 0.18 0.0
C695 C 0.92564 0.14444 0.202 0.0
C696 C 0.9138 0.14548 0.22029 0.0
C697 C 0.89733 0.15265 0.2164 0.0
C698 C 0.89263 0.15826 0.19442 0.0
H699 H 0.9248 0.19482 0.13634 0.0
H700 H 0.92138 0.18638 0.16494 0.0
H701 H 0.93516 0.17506 0.14493 0.0
H702 H 0.92993 0.14815 0.16596 0.0
H703 H 0.93838 0.13883 0.20447 0.0
H704 H 0.89299 0.6412 0.77584 0.0
H705 H 0.88889 0.64912 0.81614 0.0
H706 H 0.94 0.62992 0.83216 0.0
H707 H 0.94435 0.62228 0.79162 0.0
H708 H 0.88906 0.62739 0.85308 0.0
H709 H 0.94011 0.67767 0.86229 0.0
H710 H 0.93291 0.66981 0.83464 0.0
H711 H 0.94772 0.65719 0.85163 0.0
C712 C 0.90341 0.63878 0.7879 0.0
C713 C 0.919 0.63115 0.78063 0.0
C714 C 0.90105 0.6433 0.81091 0.0
C715 C 0.91421 0.64029 0.82706 0.0
C716 C 0.92982 0.63268 0.81986 0.0
H717 H 0.89358 0.63825 0.97431 0.0
H718 H 0.90282 0.63091 0.93525 0.0
C719 C 0.93224 0.62823 0.79677 0.0
C720 C 0.91114 0.64442 0.85156 0.0
H721 H 0.92543 0.66922 0.89636 0.0
C722 C 0.89702 0.63652 0.86256 0.0
C723 C 0.92146 0.65646 0.86376 0.0
C724 C 0.93631 0.66592 0.85247 0.0
C725 C 0.89286 0.64038 0.88545 0.0
C726 C 0.90338 0.65215 0.89782 0.0
C727 C 0.91752 0.66006 0.88685 0.0
C728 C 0.89944 0.65687 0.9219 0.0
C729 C 0.87695 0.63219 0.89595 0.0
C730 C 0.89522 0.67405 0.9275 0.0
C731 C 0.89011 0.67831 0.94984 0.0
C732 C 0.88914 0.66545 0.96689 0.0
C733 C 0.89403 0.64839 0.96144 0.0
C734 C 0.89925 0.64417 0.93915 0.0
H735 H 0.86801 0.62705 0.8826 0.0
H736 H 0.88094 0.62122 0.90708 0.0
H737 H 0.86976 0.64166 0.90672 0.0
H738 H 0.89537 0.68404 0.91441 0.0
H739 H 0.88647 0.69157 0.9536 0.0
H740 H 0.1 0.13778 0.51996 0.0
H741 H 0.09014 0.1317 0.55916 0.0
H742 H 0.10149 0.18445 0.57868 0.0
H743 H 0.11087 0.19073 0.53942 0.0
H744 H 0.10951 0.133 0.59709 0.0
H745 H 0.05426 0.17811 0.60691 0.0
H746 H 0.0637 0.17313 0.57927 0.0
H747 H 0.07359 0.18901 0.59778 0.0
C748 C 0.10012 0.14814 0.53254 0.0
C749 C 0.10617 0.16473 0.52668 0.0
C750 C 0.0945 0.14466 0.5549 0.0
C751 C 0.09486 0.15768 0.57176 0.0
C752 C 0.10067 0.17432 0.56582 0.0
H753 H 0.10562 0.14257 0.71787 0.0
H754 H 0.10935 0.14892 0.67696 0.0
C755 C 0.10615 0.17786 0.54342 0.0
C756 C 0.09057 0.1535 0.59596 0.0
H757 H 0.06614 0.16643 0.64181 0.0
C758 C 0.0999 0.14019 0.6068 0.0
C759 C 0.07788 0.16275 0.60852 0.0
C760 C 0.06666 0.17642 0.59745 0.0
C761 C 0.09724 0.13621 0.63004 0.0
C762 C 0.08526 0.14612 0.64293 0.0
C763 C 0.07552 0.15905 0.63195 0.0
C764 C 0.08274 0.14324 0.66787 0.0
C765 C 0.10721 0.12133 0.64049 0.0
C766 C 0.06637 0.13866 0.67643 0.0
C767 C 0.06415 0.13525 0.69985 0.0
C768 C 0.07828 0.13637 0.71503 0.0
C769 C 0.09454 0.14145 0.70652 0.0
C770 C 0.09671 0.14498 0.68315 0.0
H771 H 0.11175 0.11208 0.62713 0.0
H772 H 0.11879 0.12646 0.64951 0.0
H773 H 0.09918 0.11415 0.65316 0.0
H774 H 0.0554 0.13737 0.66492 0.0
H775 H 0.05147 0.13139 0.70596 0.0
H776 H 0.61324 0.35453 0.46634 0.0
H777 H 0.60246 0.35581 0.42695 0.0
H778 H 0.59157 0.30099 0.42876 0.0
H779 H 0.60266 0.29955 0.46828 0.0
H780 H 0.6094 0.31063 0.39016 0.0
H781 H 0.55325 0.35405 0.40264 0.0
H782 H 0.57262 0.36314 0.41468 0.0
H783 H 0.56394 0.34332 0.42633 0.0
C784 C 0.60839 0.34277 0.45847 0.0
C785 C 0.60876 0.32694 0.47038 0.0
C786 C 0.60211 0.34354 0.43601 0.0
C787 C 0.5959 0.32856 0.42511 0.0
C788 C 0.59615 0.31272 0.43698 0.0
H789 H 0.55217 0.34529 0.28754 0.0
H790 H 0.55522 0.33432 0.3269 0.0
C791 C 0.60249 0.31192 0.45951 0.0
C792 C 0.59034 0.32941 0.40079 0.0
H793 H 0.56498 0.35275 0.36411 0.0
C794 C 0.59946 0.31959 0.38446 0.0
C795 C 0.57714 0.34085 0.39342 0.0
C796 C 0.56605 0.35079 0.41024 0.0
C797 C 0.59651 0.32178 0.36083 0.0
C798 C 0.58439 0.33434 0.35343 0.0
C799 C 0.57446 0.3433 0.3698 0.0
C800 C 0.58275 0.33942 0.32898 0.0
C801 C 0.60662 0.31082 0.34405 0.0
C802 C 0.59721 0.34594 0.31717 0.0
C803 C 0.59553 0.35214 0.29474 0.0
C804 C 0.5793 0.35212 0.28382 0.0
C805 C 0.56485 0.34543 0.29555 0.0
C806 C 0.56656 0.33916 0.31799 0.0
H807 H 0.61048 0.29827 0.35189 0.0
H808 H 0.59902 0.30818 0.32821 0.0
H809 H 0.61865 0.31778 0.33913 0.0
H810 H 0.60973 0.34671 0.32553 0.0
H811 H 0.60687 0.35731 0.28618 0.0
H812 H 0.44408 0.87763 0.20825 0.0
H813 H 0.44049 0.87126 0.16715 0.0
H814 H 0.38979 0.85006 0.18065 0.0
H815 H 0.39317 0.85651 0.22156 0.0
H816 H 0.43352 0.83931 0.14435 0.0
H817 H 0.38107 0.88752 0.13145 0.0
H818 H 0.39483 0.8875 0.15658 0.0
H819 H 0.377 0.87257 0.15451 0.0
C820 C 0.4322 0.87157 0.20243 0.0
C821 C 0.41884 0.86768 0.21804 0.0
C822 C 0.43019 0.86793 0.17901 0.0
C823 C 0.41477 0.86046 0.1709 0.0
C824 C 0.40165 0.85613 0.18655 0.0
H825 H 0.38942 0.81034 0.0429 0.0
H826 H 0.39825 0.81741 0.08222 0.0
C827 C 0.40363 0.85976 0.20991 0.0
C828 C 0.41224 0.85732 0.14606 0.0
H829 H 0.38572 0.86737 0.10108 0.0
C830 C 0.42317 0.84552 0.13479 0.0
C831 C 0.39889 0.86566 0.13363 0.0
C832 C 0.38737 0.87915 0.14457 0.0
C833 C 0.42072 0.84142 0.11148 0.0
C834 C 0.40684 0.84915 0.09935 0.0
C835 C 0.39627 0.86135 0.11048 0.0
C836 C 0.40273 0.8446 0.07523 0.0
C837 C 0.43305 0.82892 0.10006 0.0
C838 C 0.40207 0.85759 0.05837 0.0
C839 C 0.39684 0.85363 0.03598 0.0
C840 C 0.39214 0.8366 0.03011 0.0
C841 C 0.39307 0.82355 0.04692 0.0
C842 C 0.39823 0.82755 0.06934 0.0
H843 H 0.4456 0.82819 0.10939 0.0
H844 H 0.42722 0.81578 0.10007 0.0
H845 H 0.4356 0.83271 0.08194 0.0
H846 H 0.4054 0.87085 0.06262 0.0
H847 H 0.39625 0.86394 0.02337 0.0
H848 H 0.93949 0.35514 0.71258 0.0
H849 H 0.9346 0.34779 0.67209 0.0
H850 H 0.88096 0.36274 0.67861 0.0
H851 H 0.88567 0.36987 0.71913 0.0
H852 H 0.88579 0.3313 0.65559 0.0
H853 H 0.9279 0.3833 0.6202 0.0
H854 H 0.93824 0.36919 0.6406 0.0
H855 H 0.92084 0.38302 0.6498 0.0
C856 C 0.92666 0.35683 0.70537 0.0
C857 C 0.91297 0.36315 0.71894 0.0
C858 C 0.92391 0.35272 0.68225 0.0
C859 C 0.90749 0.35498 0.67234 0.0
C860 C 0.89375 0.36098 0.68596 0.0
H861 H 0.877 0.36205 0.53037 0.0
H862 H 0.88401 0.36682 0.57091 0.0
C863 C 0.89646 0.36507 0.70907 0.0
C864 C 0.90453 0.3511 0.64776 0.0
H865 H 0.91583 0.36358 0.59348 0.0
C866 C 0.89237 0.3383 0.64198 0.0
C867 C 0.91302 0.36044 0.63013 0.0
C868 C 0.92562 0.37486 0.63539 0.0
C869 C 0.88846 0.33457 0.61895 0.0
C870 C 0.89715 0.34371 0.60131 0.0
C871 C 0.90932 0.35651 0.60709 0.0
C872 C 0.89328 0.34072 0.57674 0.0
C873 C 0.87471 0.32123 0.61369 0.0
C874 C 0.8964 0.32453 0.56658 0.0
C875 C 0.89236 0.32175 0.54344 0.0
C876 C 0.88525 0.33517 0.53011 0.0
C877 C 0.88244 0.35146 0.54024 0.0
C878 C 0.88645 0.35421 0.56336 0.0
H879 H 0.86653 0.31838 0.62896 0.0
H880 H 0.86619 0.32567 0.59946 0.0
H881 H 0.88103 0.30899 0.60824 0.0
H882 H 0.90197 0.31406 0.57654 0.0
H883 H 0.89475 0.30909 0.53603 0.0
H884 H 0.44137 0.1426 0.27697 0.0
H885 H 0.43868 0.15129 0.31741 0.0
H886 H 0.38452 0.13745 0.31632 0.0
H887 H 0.38703 0.12901 0.27596 0.0
H888 H 0.39117 0.16954 0.33688 0.0
H889 H 0.43367 0.11756 0.3718 0.0
H890 H 0.4431 0.131 0.34988 0.0
H891 H 0.42525 0.11705 0.34284 0.0
C892 C 0.4289 0.14143 0.28538 0.0
C893 C 0.41442 0.13506 0.27339 0.0
C894 C 0.42741 0.14632 0.30846 0.0
C895 C 0.41146 0.1448 0.31986 0.0
C896 C 0.39695 0.13868 0.3078 0.0
H897 H 0.38099 0.13757 0.46016 0.0
H898 H 0.38937 0.13352 0.41998 0.0
C899 C 0.39842 0.13384 0.28478 0.0
C900 C 0.40968 0.14946 0.34441 0.0
H901 H 0.42166 0.13715 0.3985 0.0
C902 C 0.39793 0.16258 0.35039 0.0
C903 C 0.41844 0.14022 0.36189 0.0
C904 C 0.43073 0.12557 0.35641 0.0
C905 C 0.3944 0.16648 0.37347 0.0
C906 C 0.4031 0.15718 0.39096 0.0
C907 C 0.41512 0.14431 0.38498 0.0
C908 C 0.39889 0.15969 0.41554 0.0
C909 C 0.38086 0.17999 0.37894 0.0
C910 C 0.40173 0.17567 0.4264 0.0
C911 C 0.39686 0.17806 0.44935 0.0
C912 C 0.38921 0.16444 0.46177 0.0
C913 C 0.38681 0.14832 0.45099 0.0
C914 C 0.39162 0.14597 0.42808 0.0
H915 H 0.37288 0.18332 0.36365 0.0
H916 H 0.37212 0.17543 0.39286 0.0
H917 H 0.38736 0.19199 0.38497 0.0
H918 H 0.40759 0.18632 0.41709 0.0
H919 H 0.39896 0.19059 0.45729 0.0
H920 H 0.55305 0.63224 0.21257 0.0
H921 H 0.55633 0.64029 0.17203 0.0
H922 H 0.61152 0.64543 0.18167 0.0
H923 H 0.6084 0.63703 0.22199 0.0
H924 H 0.5696 0.66973 0.15165 0.0
H925 H 0.60826 0.61191 0.12785 0.0
H926 H 0.59676 0.61354 0.1548 0.0
H927 H 0.6175 0.62389 0.1513 0.0
C928 C 0.56587 0.63509 0.20601 0.0
C929 C 0.5805 0.63386 0.22033 0.0
C930 C 0.56772 0.6397 0.1829 0.0
C931 C 0.5842 0.64314 0.1738 0.0
C932 C 0.59874 0.64243 0.18825 0.0
H933 H 0.61293 0.69477 0.04779 0.0
H934 H 0.60449 0.68764 0.08724 0.0
C935 C 0.59693 0.63771 0.21129 0.0
C936 C 0.58624 0.64741 0.14915 0.0
H937 H 0.60727 0.63477 0.10038 0.0
C938 C 0.57772 0.66204 0.14035 0.0
C939 C 0.5966 0.63715 0.1344 0.0
C940 C 0.60516 0.62065 0.14248 0.0
C941 C 0.5797 0.667 0.11726 0.0
C942 C 0.59077 0.65723 0.10283 0.0
C943 C 0.5989 0.64234 0.11152 0.0
C944 C 0.5944 0.66224 0.07873 0.0
C945 C 0.56979 0.68251 0.10853 0.0
C946 C 0.59171 0.65027 0.06091 0.0
C947 C 0.59677 0.6542 0.03847 0.0
C948 C 0.60457 0.6702 0.03346 0.0
C949 C 0.60682 0.68239 0.05117 0.0
C950 C 0.6019 0.67837 0.07368 0.0
H951 H 0.55815 0.68514 0.11923 0.0
H952 H 0.57826 0.69412 0.10934 0.0
H953 H 0.56563 0.68065 0.09041 0.0
H954 H 0.586 0.63773 0.06447 0.0
H955 H 0.59486 0.64458 0.02513 0.0
H956 H 0.10961 0.86684 0.78214 0.0
H957 H 0.11256 0.85716 0.82189 0.0
H958 H 0.05835 0.84357 0.82342 0.0
H959 H 0.05521 0.85352 0.78354 0.0
H960 H 0.06867 0.86259 0.86123 0.0
H961 H 0.11364 0.80782 0.84667 0.0
H962 H 0.12133 0.82756 0.83396 0.0
H963 H 0.10158 0.81787 0.82362 0.0
C964 C 0.09833 0.86169 0.79086 0.0
C965 C 0.08219 0.86087 0.77973 0.0
C966 C 0.10007 0.85604 0.81352 0.0
C967 C 0.08576 0.84933 0.82542 0.0
C968 C 0.06958 0.84857 0.81442 0.0
H969 H 0.10363 0.80486 0.96236 0.0
H970 H 0.09339 0.80833 0.92268 0.0
C971 C 0.06782 0.85425 0.79169 0.0
C972 C 0.08764 0.84402 0.84973 0.0
H973 H 0.11229 0.81896 0.8853 0.0
C974 C 0.07801 0.85285 0.86651 0.0
C975 C 0.0996 0.83112 0.85653 0.0
C976 C 0.10949 0.82041 0.83922 0.0
C977 C 0.08073 0.8498 0.89002 0.0
C978 C 0.09363 0.83783 0.89682 0.0
C979 C 0.10256 0.82829 0.88003 0.0
C980 C 0.09886 0.83582 0.92116 0.0
C981 C 0.06994 0.85959 0.90732 0.0
C982 C 0.10546 0.85008 0.93329 0.0
C983 C 0.11128 0.84814 0.95586 0.0
C984 C 0.11075 0.83186 0.96664 0.0
C985 C 0.10415 0.81756 0.95448 0.0
C986 C 0.0983 0.81953 0.93186 0.0
H987 H 0.05734 0.86369 0.89982 0.0
H988 H 0.06738 0.85163 0.92287 0.0
H989 H 0.077 0.87145 0.91268 0.0
H990 H 0.10643 0.86266 0.92515 0.0
H991 H 0.11639 0.85937 0.96476 0.0
H992 H 0.09754 0.32163 0.30233 0.0
H993 H 0.10753 0.2978 0.3266 0.0
H994 H 0.12787 0.3344 0.37571 0.0
H995 H 0.11789 0.35847 0.35143 0.0
H996 H 0.14971 0.30212 0.36384 0.0
H997 H 0.08157 0.29007 0.39059 0.0
H998 H 0.08513 0.29202 0.36012 0.0
H999 H 0.0886 0.31044 0.37844 0.0
C1000 C 0.10434 0.32464 0.31814 0.0
C1001 C 0.10679 0.34191 0.32512 0.0
C1002 C 0.11004 0.31102 0.33195 0.0
C1003 C 0.11826 0.31441 0.35296 0.0
C1004 C 0.12152 0.3316 0.35951 0.0
H1005 H 0.1221 0.23652 0.46058 0.0
H1006 H 0.121 0.26432 0.4405 0.0
C1007 C 0.11579 0.34529 0.34567 0.0
C1008 C 0.12215 0.29995 0.36876 0.0
H1009 H 0.10233 0.26897 0.40119 0.0
C1010 C 0.13942 0.29492 0.37221 0.0
C1011 C 0.10866 0.2908 0.37981 0.0
C1012 C 0.08993 0.29613 0.37727 0.0
C1013 C 0.1435 0.28049 0.38593 0.0
C1014 C 0.12992 0.27087 0.39617 0.0
C1015 C 0.11272 0.27632 0.39326 0.0
C1016 C 0.13301 0.25475 0.40935 0.0
C1017 C 0.16226 0.27566 0.38937 0.0
C1018 C 0.14035 0.24021 0.39859 0.0
C1019 C 0.14102 0.2243 0.41005 0.0
C1020 C 0.1342 0.22266 0.43236 0.0
C1021 C 0.12742 0.23738 0.44337 0.0
C1022 C 0.1268 0.25327 0.43195 0.0
H1023 H 0.17098 0.28686 0.38615 0.0
H1024 H 0.16456 0.27078 0.40707 0.0
H1025 H 0.16577 0.26524 0.37706 0.0
H1026 H 0.14487 0.24097 0.38098 0.0
H1027 H 0.14627 0.21315 0.40111 0.0
H1028 H 0.89263 0.86266 0.59861 0.0
H1029 H 0.91698 0.87356 0.62168 0.0
H1030 H 0.95194 0.84027 0.58426 0.0
H1031 H 0.92793 0.82972 0.56093 0.0
H1032 H 0.93862 0.85619 0.65021 0.0
H1033 H 0.97688 0.88601 0.58033 0.0
H1034 H 0.95459 0.87952 0.57652 0.0
H1035 H 0.9718 0.86386 0.57391 0.0
C1036 C 0.90555 0.85782 0.5952 0.0
C1037 C 0.90841 0.84544 0.57787 0.0
C1038 C 0.91943 0.86404 0.60838 0.0
C1039 C 0.93633 0.85799 0.60436 0.0
C1040 C 0.93911 0.8455 0.58722 0.0
H1041 H 0.02458 0.84865 0.69184 0.0
H1042 H 0.99686 0.84614 0.67179 0.0
C1043 C 0.92533 0.83939 0.574 0.0
C1044 C 0.95106 0.86399 0.61868 0.0
H1045 H 0.99255 0.879 0.61499 0.0
C1046 C 0.95033 0.86144 0.64257 0.0
C1047 C 0.9662 0.87115 0.60878 0.0
C1048 C 0.96735 0.87547 0.58351 0.0
C1049 C 0.96468 0.86498 0.65666 0.0
C1050 C 0.98028 0.87082 0.64648 0.0
C1051 C 0.98068 0.87426 0.62277 0.0
C1052 C 0.99657 0.87271 0.6598 0.0
C1053 C 0.96298 0.86235 0.68228 0.0
C1054 C 0.00585 0.88836 0.6593 0.0
C1055 C 0.02184 0.88974 0.67045 0.0
C1056 C 0.02883 0.87548 0.6823 0.0
C1057 C 0.01945 0.85989 0.68299 0.0
C1058 C 0.00353 0.85849 0.6717 0.0
H1059 H 0.94929 0.8637 0.68795 0.0
H1060 H 0.96731 0.84905 0.68673 0.0
H1061 H 0.97104 0.87176 0.69199 0.0
H1062 H 0.00079 0.89946 0.65008 0.0
H1063 H 0.02879 0.90192 0.66962 0.0
H1064 H 0.39467 0.76808 0.95063 0.0
H1065 H 0.39641 0.74105 0.92888 0.0
H1066 H 0.34862 0.75369 0.89416 0.0
H1067 H 0.34722 0.78116 0.91523 0.0
H1068 H 0.37637 0.71294 0.92441 0.0
H1069 H 0.38065 0.74723 0.84053 0.0
H1070 H 0.3818 0.7585 0.86763 0.0
H1071 H 0.3612 0.7516 0.85639 0.0
C1072 C 0.38448 0.76505 0.93845 0.0
C1073 C 0.37093 0.7768 0.93438 0.0
C1074 C 0.38546 0.74958 0.92607 0.0
C1075 C 0.37284 0.7455 0.90954 0.0
C1076 C 0.35876 0.75679 0.90636 0.0
H1077 H 0.38091 0.64356 0.84008 0.0
H1078 H 0.36924 0.66737 0.86352 0.0
C1079 C 0.35792 0.77242 0.91849 0.0
C1080 C 0.37504 0.72985 0.89501 0.0
H1081 H 0.38143 0.71683 0.83953 0.0
C1082 C 0.37736 0.71374 0.90583 0.0
C1083 C 0.37645 0.73097 0.87076 0.0
C1084 C 0.37506 0.74801 0.85811 0.0
C1085 C 0.38165 0.69883 0.89317 0.0
C1086 C 0.38317 0.7 0.86897 0.0
C1087 C 0.38018 0.71596 0.85809 0.0
C1088 C 0.38968 0.68543 0.85474 0.0
C1089 C 0.38539 0.68223 0.90596 0.0
C1090 C 0.40474 0.68783 0.84159 0.0
C1091 C 0.41119 0.67445 0.82798 0.0
C1092 C 0.4028 0.65831 0.82732 0.0
C1093 C 0.38769 0.65585 0.84042 0.0
C1094 C 0.38109 0.66939 0.85391 0.0
H1095 H 0.38738 0.6845 0.92465 0.0
H1096 H 0.37425 0.67326 0.90395 0.0
H1097 H 0.3971 0.67575 0.89892 0.0
H1098 H 0.4116 0.70007 0.84198 0.0
H1099 H 0.42288 0.67673 0.81812 0.0
H1100 H 0.60172 0.13461 0.08619 0.0
H1101 H 0.57779 0.12264 0.10914 0.0
H1102 H 0.54486 0.16467 0.08725 0.0
H1103 H 0.56844 0.17653 0.06425 0.0
H1104 H 0.5586 0.13819 0.14513 0.0
H1105 H 0.51648 0.12138 0.07136 0.0
H1106 H 0.53929 0.12601 0.06814 0.0
H1107 H 0.52384 0.14342 0.07028 0.0
C1108 C 0.58935 0.14124 0.08627 0.0
C1109 C 0.58689 0.15643 0.07332 0.0
C1110 C 0.57573 0.13441 0.09936 0.0
C1111 C 0.5595 0.14261 0.0995 0.0
C1112 C 0.55717 0.15794 0.08694 0.0
H1113 H 0.47386 0.14656 0.19096 0.0
H1114 H 0.50168 0.14926 0.17124 0.0
C1115 C 0.5707 0.16474 0.07391 0.0
C1116 C 0.5449 0.13554 0.11304 0.0
H1117 H 0.50245 0.12387 0.1081 0.0
C1118 C 0.54638 0.13477 0.13707 0.0
C1119 C 0.52911 0.13078 0.10243 0.0
C1120 C 0.52711 0.13025 0.07661 0.0
C1121 C 0.53213 0.13034 0.15088 0.0
C1122 C 0.51596 0.12692 0.14031 0.0
C1123 C 0.51479 0.12671 0.11622 0.0
C1124 C 0.49983 0.12453 0.15377 0.0
C1125 C 0.5345 0.12953 0.17661 0.0
C1126 C 0.48937 0.1099 0.15017 0.0
C1127 C 0.47333 0.10846 0.16115 0.0
C1128 C 0.46747 0.12166 0.17589 0.0
C1129 C 0.47808 0.13615 0.17979 0.0
C1130 C 0.49407 0.13763 0.1687 0.0
H1131 H 0.54817 0.1266 0.18122 0.0
H1132 H 0.5312 0.14232 0.18418 0.0
H1133 H 0.52598 0.11956 0.18447 0.0
H1134 H 0.49351 0.09971 0.13859 0.0
H1135 H 0.46542 0.09713 0.15785 0.0
H1136 H 0.11333 0.64179 0.14833 0.0
H1137 H 0.12545 0.66474 0.1238 0.0
H1138 H 0.09464 0.70272 0.15975 0.0
H1139 H 0.08284 0.68013 0.18439 0.0
H1140 H 0.10851 0.68684 0.09443 0.0
H1141 H 0.14221 0.72468 0.16152 0.0
H1142 H 0.13468 0.70282 0.16636 0.0
H1143 H 0.12004 0.72089 0.16923 0.0
C1144 C 0.10931 0.65507 0.15109 0.0
C1145 C 0.09723 0.65919 0.16835 0.0
C1146 C 0.11622 0.66814 0.13709 0.0
C1147 C 0.1112 0.68548 0.14028 0.0
C1148 C 0.09906 0.68952 0.1574 0.0
H1149 H 0.10103 0.77253 0.05295 0.0
H1150 H 0.0993 0.74458 0.07252 0.0
C1151 C 0.09223 0.67655 0.17138 0.0
C1152 C 0.11782 0.69942 0.12513 0.0
H1153 H 0.13455 0.74029 0.12692 0.0
C1154 C 0.11451 0.69841 0.10143 0.0
C1155 C 0.12598 0.71435 0.13419 0.0
C1156 C 0.13111 0.71567 0.15919 0.0
C1157 C 0.1181 0.71243 0.08679 0.0
C1158 C 0.12479 0.72795 0.09626 0.0
C1159 C 0.12916 0.7285 0.11969 0.0
C1160 C 0.12631 0.74414 0.08266 0.0
C1161 C 0.11449 0.71052 0.06141 0.0
C1162 C 0.14198 0.75339 0.08221 0.0
C1163 C 0.14291 0.76953 0.07137 0.0
C1164 C 0.12819 0.77669 0.06077 0.0
C1165 C 0.11262 0.76727 0.06083 0.0
C1166 C 0.11166 0.75121 0.07183 0.0
H1167 H 0.11551 0.69676 0.05593 0.0
H1168 H 0.10107 0.7149 0.05778 0.0
H1169 H 0.12358 0.71839 0.05093 0.0
H1170 H 0.15341 0.74825 0.0906 0.0
H1171 H 0.15509 0.7765 0.07158 0.0
H1172 H 0.48486 0.87369 0.292 0.0
H1173 H 0.5121 0.87091 0.31338 0.0
H1174 H 0.48633 0.88762 0.37534 0.0
H1175 H 0.45904 0.89039 0.35416 0.0
H1176 H 0.53093 0.89647 0.34264 0.0
H1177 H 0.50683 0.83834 0.38939 0.0
H1178 H 0.4968 0.84618 0.36332 0.0
H1179 H 0.49303 0.85711 0.39013 0.0
C1180 C 0.48504 0.87691 0.31013 0.0
C1181 C 0.46981 0.88212 0.32147 0.0
C1182 C 0.5006 0.87537 0.32228 0.0
C1183 C 0.50112 0.8789 0.34593 0.0
C1184 C 0.48609 0.88468 0.35712 0.0
H1185 H 0.57726 0.85752 0.45128 0.0
H1186 H 0.55226 0.86835 0.42989 0.0
C1187 C 0.47055 0.88627 0.34499 0.0
C1188 C 0.51715 0.87565 0.35916 0.0
H1189 H 0.53435 0.84886 0.3998 0.0
C1190 C 0.53174 0.88609 0.35517 0.0
C1191 C 0.51808 0.86209 0.37542 0.0
C1192 C 0.50293 0.85016 0.37979 0.0
C1193 C 0.54724 0.88345 0.36737 0.0
C1194 C 0.5482 0.86978 0.38356 0.0
C1195 C 0.53356 0.85939 0.38748 0.0
C1196 C 0.56427 0.86565 0.39643 0.0
C1197 C 0.56231 0.89548 0.36313 0.0
C1198 C 0.57946 0.86085 0.38475 0.0
C1199 C 0.59386 0.8548 0.39698 0.0
C1200 C 0.59316 0.8532 0.42104 0.0
C1201 C 0.57816 0.85857 0.43273 0.0
C1202 C 0.56386 0.86476 0.42054 0.0
H1203 H 0.55796 0.90802 0.35569 0.0
H1204 H 0.56954 0.89811 0.37927 0.0
H1205 H 0.57132 0.88936 0.35068 0.0
H1206 H 0.57995 0.86106 0.36614 0.0
H1207 H 0.60521 0.85062 0.38753 0.0
H1208 H 0.38149 0.23415 0.53271 0.0
H1209 H 0.38468 0.26155 0.55373 0.0
H1210 H 0.36764 0.23656 0.61605 0.0
H1211 H 0.36434 0.20915 0.59526 0.0
H1212 H 0.35559 0.27857 0.59064 0.0
H1213 H 0.42144 0.25881 0.62024 0.0
H1214 H 0.41254 0.25134 0.59325 0.0
H1215 H 0.40432 0.24291 0.61981 0.0
C1216 C 0.37824 0.23455 0.55083 0.0
C1217 C 0.37276 0.21951 0.5624 0.0
C1218 C 0.38 0.25019 0.56274 0.0
C1219 C 0.37636 0.25097 0.58633 0.0
C1220 C 0.37043 0.23614 0.59779 0.0
H1221 H 0.40194 0.32058 0.69582 0.0
H1222 H 0.39242 0.29653 0.67168 0.0
C1223 C 0.3686 0.22052 0.5859 0.0
C1224 C 0.38001 0.26689 0.59948 0.0
H1225 H 0.41039 0.28507 0.63448 0.0
C1226 C 0.36757 0.28012 0.60018 0.0
C1227 C 0.39564 0.26869 0.61183 0.0
C1228 C 0.40936 0.25476 0.61132 0.0
C1229 C 0.37026 0.2951 0.61349 0.0
C1230 C 0.3859 0.29687 0.62599 0.0
C1231 C 0.3984 0.28366 0.62493 0.0
C1232 C 0.38957 0.31201 0.64087 0.0
C1233 C 0.35617 0.30862 0.6146 0.0
C1234 C 0.39084 0.32878 0.63164 0.0
C1235 C 0.39615 0.34264 0.64551 0.0
C1236 C 0.40051 0.33982 0.66869 0.0
C1237 C 0.39874 0.32312 0.67799 0.0
C1238 C 0.39331 0.30937 0.66423 0.0
H1239 H 0.34349 0.30339 0.6088 0.0
H1240 H 0.35473 0.31372 0.63236 0.0
H1241 H 0.35965 0.3196 0.60317 0.0
H1242 H 0.38835 0.33105 0.61356 0.0
H1243 H 0.39752 0.35537 0.63789 0.0
H1244 H 0.01229 0.13648 0.79301 0.0
H1245 H 0.98572 0.13949 0.81561 0.0
H1246 H 0.00839 0.10911 0.8701 0.0
H1247 H 0.03502 0.1059 0.84752 0.0
H1248 H 0.97229 0.10119 0.85939 0.0
H1249 H 0.985 0.17133 0.87341 0.0
H1250 H 0.98516 0.16445 0.84386 0.0
H1251 H 0.00146 0.15656 0.86328 0.0
C1252 C 0.01157 0.13031 0.80971 0.0
C1253 C 0.02578 0.12109 0.81861 0.0
C1254 C 0.99641 0.13207 0.8226 0.0
C1255 C 0.99522 0.1247 0.84459 0.0
C1256 C 0.00911 0.11491 0.85316 0.0
H1257 H 0.92632 0.15672 0.95303 0.0
H1258 H 0.95099 0.14724 0.92996 0.0
C1259 C 0.0243 0.11314 0.84028 0.0
C1260 C 0.97988 0.12803 0.85916 0.0
H1261 H 0.95829 0.16043 0.88689 0.0
C1262 C 0.96918 0.11412 0.86545 0.0
C1263 C 0.97606 0.14489 0.86721 0.0
C1264 C 0.98758 0.16018 0.8618 0.0
C1265 C 0.95455 0.11669 0.87944 0.0
C1266 C 0.95054 0.13362 0.88707 0.0
C1267 C 0.96136 0.14747 0.8809 0.0
C1268 C 0.93541 0.1374 0.9019 0.0
C1269 C 0.9437 0.10127 0.88629 0.0
C1270 C 0.91845 0.13478 0.89388 0.0
C1271 C 0.90427 0.14014 0.9071 0.0
C1272 C 0.9069 0.14834 0.92841 0.0
C1273 C 0.92388 0.15048 0.93665 0.0
C1274 C 0.938 0.14508 0.9235 0.0
H1275 H 0.95074 0.08887 0.88363 0.0
H1276 H 0.93974 0.10219 0.90461 0.0
H1277 H 0.93178 0.10098 0.87561 0.0
H1278 H 0.91619 0.12916 0.87707 0.0
H1279 H 0.89132 0.13841 0.9003 0.0
H1280 H 0.91618 0.6761 0.68972 0.0
H1281 H 0.90539 0.6994 0.6653 0.0
H1282 H 0.87695 0.66235 0.62456 0.0
H1283 H 0.88771 0.63875 0.64914 0.0
H1284 H 0.9109 0.70081 0.61597 0.0
H1285 H 0.84128 0.70188 0.64139 0.0
H1286 H 0.85781 0.69236 0.65942 0.0
H1287 H 0.85078 0.68131 0.63395 0.0
C1288 C 0.90753 0.67287 0.67568 0.0
C1289 C 0.9028 0.6556 0.6713 0.0
C1290 C 0.90139 0.68621 0.66176 0.0
C1291 C 0.89032 0.68257 0.64327 0.0
C1292 C 0.88533 0.66539 0.63895 0.0
H1293 H 0.87359 0.76172 0.53769 0.0
H1294 H 0.87736 0.73352 0.55631 0.0
C1295 C 0.89153 0.65196 0.65291 0.0
C1296 C 0.88485 0.69688 0.62805 0.0
H1297 H 0.85047 0.72276 0.61442 0.0
C1298 C 0.89766 0.70551 0.61537 0.0
C1299 C 0.86759 0.70297 0.62757 0.0
C1300 C 0.8535 0.69428 0.64136 0.0
C1301 C 0.89377 0.72041 0.60261 0.0
C1302 C 0.87655 0.72666 0.60231 0.0
C1303 C 0.86363 0.71782 0.61461 0.0
C1304 C 0.87209 0.74306 0.59061 0.0
C1305 C 0.90827 0.72976 0.59036 0.0
C1306 C 0.86726 0.75756 0.60367 0.0
C1307 C 0.86506 0.77367 0.5931 0.0
C1308 C 0.86762 0.77547 0.56929 0.0
C1309 C 0.87167 0.76074 0.5561 0.0
C1310 C 0.87384 0.74464 0.56669 0.0
H1311 H 0.92125 0.72515 0.59597 0.0
H1312 H 0.90713 0.7275 0.57157 0.0
H1313 H 0.90747 0.74394 0.59344 0.0
H1314 H 0.86585 0.75656 0.62217 0.0
H1315 H 0.86186 0.78478 0.60366 0.0
H1316 H 0.9698 0.09553 0.33186 0.0
H1317 H 0.99717 0.09713 0.3531 0.0
H1318 H 0.01321 0.14031 0.31107 0.0
H1319 H 0.98616 0.13846 0.28936 0.0
H1320 H 0.0404 0.11839 0.32162 0.0
H1321 H 0.00263 0.13593 0.39979 0.0
H1322 H 0.99742 0.11523 0.3875 0.0
H1323 H 0.99289 0.13472 0.37165 0.0
C1324 C 0.9793 0.10516 0.3269 0.0
C1325 C 0.97578 0.11703 0.30918 0.0
C1326 C 0.99488 0.1061 0.33911 0.0
C1327 C 0.00702 0.11909 0.33399 0.0
C1328 C 0.00398 0.13024 0.31536 0.0
H1329 H 0.07559 0.17602 0.41856 0.0
H1330 H 0.05301 0.164 0.39396 0.0
C1331 C 0.9885 0.12919 0.303 0.0
C1332 C 0.02212 0.1222 0.34915 0.0
H1333 H 0.03289 0.13553 0.40327 0.0
C1334 C 0.03882 0.12197 0.33955 0.0
C1335 C 0.01995 0.12706 0.37246 0.0
C1336 C 0.00227 0.12842 0.38348 0.0
C1337 C 0.05339 0.12691 0.35249 0.0
C1338 C 0.05115 0.13192 0.37571 0.0
C1339 C 0.03453 0.13161 0.38548 0.0
C1340 C 0.06549 0.13908 0.38969 0.0
C1341 C 0.07089 0.12752 0.34096 0.0
C1342 C 0.08006 0.12907 0.39538 0.0
C1343 C 0.09311 0.13598 0.40938 0.0
C1344 C 0.09164 0.15293 0.41805 0.0
C1345 C 0.07708 0.16291 0.4122 0.0
C1346 C 0.06415 0.15605 0.39815 0.0
H1347 H 0.06984 0.12656 0.32193 0.0
H1348 H 0.0778 0.1397 0.34537 0.0
H1349 H 0.07887 0.1165 0.34711 0.0
H1350 H 0.08119 0.11584 0.38935 0.0
H1351 H 0.10417 0.12799 0.41373 0.0
H1352 H 0.61377 0.2378 0.04576 0.0
H1353 H 0.61375 0.26377 0.06959 0.0
H1354 H 0.65289 0.24122 0.11337 0.0
H1355 H 0.65246 0.21481 0.08997 0.0
H1356 H 0.62749 0.25271 0.13816 0.0
H1357 H 0.64451 0.30469 0.07736 0.0
H1358 H 0.6268 0.29236 0.06605 0.0
H1359 H 0.64754 0.28208 0.07044 0.0
C1360 C 0.62261 0.23849 0.06021 0.0
C1361 C 0.63307 0.22427 0.06607 0.0
C1362 C 0.62272 0.25344 0.07371 0.0
C1363 C 0.63356 0.25463 0.09305 0.0
C1364 C 0.6445 0.24065 0.09844 0.0
H1365 H 0.62237 0.35088 0.17396 0.0
H1366 H 0.63615 0.3278 0.15129 0.0
C1367 C 0.64424 0.22558 0.08508 0.0
C1368 C 0.6318 0.26951 0.10906 0.0
H1369 H 0.62692 0.31346 0.11034 0.0
C1370 C 0.62776 0.26601 0.13215 0.0
C1371 C 0.63248 0.28693 0.10147 0.0
C1372 C 0.63827 0.29171 0.07752 0.0
C1373 C 0.62317 0.27932 0.14737 0.0
C1374 C 0.62209 0.29653 0.1391 0.0
C1375 C 0.62738 0.30021 0.11653 0.0
C1376 C 0.61411 0.3105 0.15298 0.0
C1377 C 0.61918 0.27474 0.17205 0.0
C1378 C 0.59707 0.30855 0.161 0.0
C1379 C 0.58927 0.32157 0.17397 0.0
C1380 C 0.59824 0.33696 0.1789 0.0
C1381 C 0.61518 0.33912 0.17046 0.0
C1382 C 0.62306 0.32597 0.15755 0.0
H1383 H 0.62638 0.26297 0.1775 0.0
H1384 H 0.62249 0.28553 0.1839 0.0
H1385 H 0.60514 0.2719 0.17372 0.0
H1386 H 0.58973 0.29695 0.15709 0.0
H1387 H 0.57614 0.3196 0.18002 0.0
H1388 H 0.38921 0.862 0.89845 0.0
H1389 H 0.41057 0.87214 0.87003 0.0
H1390 H 0.4508 0.84426 0.9058 0.0
H1391 H 0.42976 0.83414 0.93404 0.0
H1392 H 0.44422 0.89078 0.87817 0.0
H1393 H 0.45125 0.8261 0.83754 0.0
H1394 H 0.43271 0.83198 0.85486 0.0
H1395 H 0.45274 0.82586 0.86839 0.0
C1396 C 0.40264 0.85813 0.90026 0.0
C1397 C 0.40781 0.84719 0.91836 0.0
C1398 C 0.41478 0.86393 0.88408 0.0
C1399 C 0.43216 0.85874 0.88574 0.0
C1400 C 0.43739 0.84821 0.9041 0.0
H1401 H 0.53147 0.88821 0.83893 0.0
H1402 H 0.50339 0.88591 0.8581 0.0
C1403 C 0.42534 0.84248 0.92024 0.0
C1404 C 0.44504 0.86391 0.86825 0.0
H1405 H 0.47372 0.84662 0.83003 0.0
C1406 C 0.45051 0.88123 0.86731 0.0
C1407 C 0.453 0.85145 0.85391 0.0
C1408 C 0.44704 0.83282 0.8535 0.0
C1409 C 0.46448 0.88622 0.8533 0.0
C1410 C 0.47326 0.87347 0.84022 0.0
C1411 C 0.46708 0.85637 0.84019 0.0
C1412 C 0.48962 0.87714 0.82779 0.0
C1413 C 0.46986 0.905 0.85289 0.0
C1414 C 0.49125 0.87289 0.80441 0.0
C1415 C 0.50734 0.874 0.79349 0.0
C1416 C 0.52209 0.87931 0.8058 0.0
C1417 C 0.52032 0.88414 0.82898 0.0
C1418 C 0.50424 0.88298 0.83991 0.0
H1419 H 0.45882 0.91365 0.85723 0.0
H1420 H 0.48014 0.90712 0.86594 0.0
H1421 H 0.47504 0.90875 0.83578 0.0
H1422 H 0.48016 0.86824 0.79479 0.0
H1423 H 0.50831 0.87021 0.77559 0.0
H1424 H 0.86596 0.2081 0.89571 0.0
H1425 H 0.86906 0.23593 0.87594 0.0
H1426 H 0.87158 0.26215 0.94143 0.0
H1427 H 0.86902 0.23431 0.96129 0.0
H1428 H 0.84968 0.26568 0.87652 0.0
H1429 H 0.91575 0.27827 0.91076 0.0
H1430 H 0.90522 0.25752 0.91357 0.0
H1431 H 0.89957 0.27507 0.93251 0.0
C1432 C 0.86715 0.21981 0.90587 0.0
C1433 C 0.86745 0.21905 0.93001 0.0
C1434 C 0.86888 0.23569 0.89458 0.0
C1435 C 0.87087 0.25105 0.90724 0.0
C1436 C 0.87049 0.25039 0.93135 0.0
H1437 H 0.89333 0.35574 0.85683 0.0
H1438 H 0.88264 0.33201 0.88114 0.0
C1439 C 0.86895 0.2345 0.94266 0.0
C1440 C 0.87376 0.26766 0.8951 0.0
H1441 H 0.90328 0.30016 0.8878 0.0
C1442 C 0.86136 0.27326 0.87906 0.0
C1443 C 0.88903 0.27753 0.89846 0.0
C1444 C 0.90324 0.27175 0.91459 0.0
C1445 C 0.86392 0.28837 0.86607 0.0
C1446 C 0.87928 0.29802 0.8692 0.0
C1447 C 0.89145 0.29273 0.88566 0.0
C1448 C 0.8838 0.31274 0.85415 0.0
C1449 C 0.85032 0.29382 0.84891 0.0
C1450 C 0.8879 0.30967 0.83102 0.0
C1451 C 0.89415 0.32308 0.81725 0.0
C1452 C 0.89634 0.3398 0.82637 0.0
C1453 C 0.89169 0.34299 0.84936 0.0
C1454 C 0.88561 0.32949 0.86323 0.0
H1455 H 0.83763 0.28754 0.85239 0.0
H1456 H 0.84857 0.30811 0.84912 0.0
H1457 H 0.85455 0.29002 0.83138 0.0
H1458 H 0.88683 0.29676 0.82384 0.0
H1459 H 0.89762 0.32026 0.79958 0.0
H1460 H 0.53828 0.11888 0.64309 0.0
H1461 H 0.51055 0.12066 0.62286 0.0
H1462 H 0.48349 0.11966 0.6878 0.0
H1463 H 0.51123 0.11845 0.70817 0.0
H1464 H 0.48203 0.09968 0.62154 0.0
H1465 H 0.46519 0.16374 0.65927 0.0
H1466 H 0.48646 0.15431 0.66211 0.0
H1467 H 0.46894 0.14693 0.68001 0.0
C1468 C 0.52642 0.11899 0.65304 0.0
C1469 C 0.52689 0.11874 0.67719 0.0
C1470 C 0.51059 0.11996 0.64148 0.0
C1471 C 0.49498 0.12062 0.65385 0.0
C1472 C 0.4954 0.11961 0.67795 0.0
H1473 H 0.39123 0.14146 0.59824 0.0
H1474 H 0.41409 0.13031 0.62366 0.0
C1475 C 0.51124 0.11883 0.68954 0.0
C1476 C 0.4784 0.12297 0.64142 0.0
H1477 H 0.44482 0.15125 0.63413 0.0
C1478 C 0.47382 0.11088 0.62441 0.0
C1479 C 0.46771 0.13761 0.64521 0.0
C1480 C 0.47235 0.15148 0.66248 0.0
C1481 C 0.45902 0.11325 0.61074 0.0
C1482 C 0.44863 0.12808 0.61418 0.0
C1483 C 0.45281 0.13982 0.63172 0.0
C1484 C 0.43445 0.1327 0.59828 0.0
C1485 C 0.45474 0.10005 0.59246 0.0
C1486 C 0.43841 0.13764 0.57568 0.0
C1487 C 0.42551 0.14415 0.5613 0.0
C1488 C 0.4084 0.14578 0.56927 0.0
C1489 C 0.40431 0.14027 0.59166 0.0
C1490 C 0.41731 0.13391 0.60616 0.0
H1491 H 0.46121 0.08744 0.59581 0.0
H1492 H 0.44053 0.09793 0.59137 0.0
H1493 H 0.45925 0.10492 0.57552 0.0
H1494 H 0.45163 0.13706 0.56945 0.0
H1495 H 0.42902 0.1483 0.54411 0.0
H1496 H 0.62723 0.78433 0.39322 0.0
H1497 H 0.62496 0.75526 0.37678 0.0
H1498 H 0.62994 0.73296 0.44449 0.0
H1499 H 0.63199 0.76209 0.46116 0.0
H1500 H 0.64841 0.72697 0.37934 0.0
H1501 H 0.58464 0.71184 0.41956 0.0
H1502 H 0.59318 0.7336 0.41835 0.0
H1503 H 0.60176 0.71834 0.43868 0.0
C1504 C 0.62786 0.77325 0.40462 0.0
C1505 C 0.62967 0.77547 0.42849 0.0
C1506 C 0.62662 0.75666 0.3952 0.0
C1507 C 0.6271 0.742 0.40945 0.0
C1508 C 0.62927 0.74414 0.43325 0.0
H1509 H 0.6027 0.6367 0.36043 0.0
H1510 H 0.61398 0.65964 0.38569 0.0
C1511 C 0.6305 0.76076 0.44272 0.0
C1512 C 0.62495 0.72458 0.39917 0.0
H1513 H 0.59631 0.69106 0.39448 0.0
C1514 C 0.63713 0.719 0.38284 0.0
C1515 C 0.61029 0.71418 0.40393 0.0
C1516 C 0.59662 0.71976 0.42095 0.0
C1517 C 0.63471 0.70356 0.37051 0.0
C1518 C 0.6196 0.69362 0.37441 0.0
C1519 C 0.60789 0.69872 0.39159 0.0
C1520 C 0.61462 0.67919 0.35901 0.0
C1521 C 0.64815 0.69821 0.35306 0.0
C1522 C 0.61128 0.68262 0.33574 0.0
C1523 C 0.60479 0.66967 0.32143 0.0
C1524 C 0.60147 0.65301 0.33011 0.0
C1525 C 0.60523 0.64941 0.35329 0.0
C1526 C 0.61164 0.66247 0.3677 0.0
H1527 H 0.66107 0.70371 0.35729 0.0
H1528 H 0.64925 0.68388 0.352 0.0
H1529 H 0.64432 0.70317 0.33588 0.0
H1530 H 0.61313 0.69552 0.32881 0.0
H1531 H 0.60199 0.67284 0.30366 0.0
H1532 H 0.08087 0.86352 0.05111 0.0
H1533 H 0.05703 0.87215 0.07623 0.0
H1534 H 0.08411 0.85092 0.1347 0.0
H1535 H 0.10821 0.8424 0.10962 0.0
H1536 H 0.03832 0.84731 0.10062 0.0
H1537 H 0.0653 0.89735 0.15939 0.0
H1538 H 0.07547 0.89169 0.13241 0.0
H1539 H 0.07781 0.87778 0.15698 0.0
C1540 C 0.08195 0.86104 0.0694 0.0
C1541 C 0.09636 0.85222 0.07841 0.0
C1542 C 0.06831 0.86597 0.08371 0.0
C1543 C 0.06884 0.86224 0.10731 0.0
C1544 C 0.08358 0.85418 0.11659 0.0
H1545 H 0.98837 0.86328 0.21221 0.0
H1546 H 0.01588 0.86066 0.19137 0.0
C1547 C 0.0973 0.84927 0.10224 0.0
C1548 C 0.05314 0.86499 0.12149 0.0
H1549 H 0.0371 0.8868 0.16798 0.0
C1550 C 0.03803 0.85602 0.11528 0.0
C1551 C 0.05289 0.8762 0.14072 0.0
C1552 C 0.06868 0.88644 0.14775 0.0
C1553 C 0.02265 0.85792 0.1278 0.0
C1554 C 0.0223 0.86931 0.14683 0.0
C1555 C 0.03745 0.87813 0.15329 0.0
C1556 C 0.00618 0.87222 0.16002 0.0
C1557 C 0.00694 0.84752 0.12077 0.0
C1558 C 0.9918 0.87992 0.14939 0.0
C1559 C 0.97611 0.8814 0.16118 0.0
C1560 C 0.97456 0.87524 0.18384 0.0
C1561 C 0.98917 0.86806 0.19472 0.0
C1562 C 0.00488 0.8666 0.1829 0.0
H1563 H 0.01045 0.83647 0.10942 0.0
H1564 H 5e-05 0.8424 0.1361 0.0
H1565 H 0.99786 0.85601 0.11119 0.0
H1566 H 0.99264 0.88452 0.13182 0.0
H1567 H 0.96511 0.88709 0.1524 0.0
H1568 H 0.65061 0.71899 0.91217 0.0
H1569 H 0.64986 0.7455 0.88903 0.0
H1570 H 0.60707 0.76438 0.92976 0.0
H1571 H 0.6082 0.7383 0.95336 0.0
H1572 H 0.62464 0.75529 0.86235 0.0
H1573 H 0.63517 0.80759 0.92541 0.0
H1574 H 0.63955 0.78516 0.93207 0.0
H1575 H 0.61792 0.79378 0.93485 0.0
C1576 C 0.64129 0.72898 0.91645 0.0
C1577 C 0.62947 0.7266 0.93455 0.0
C1578 C 0.64088 0.74411 0.90324 0.0
C1579 C 0.6286 0.75709 0.90787 0.0
C1580 C 0.61702 0.75485 0.92627 0.0
H1581 H 0.57272 0.82024 0.81575 0.0
H1582 H 0.58569 0.79804 0.84008 0.0
C1583 C 0.61757 0.73983 0.93963 0.0
C1584 C 0.62648 0.772 0.89199 0.0
H1585 H 0.61918 0.81563 0.89088 0.0
C1586 C 0.62381 0.76852 0.86855 0.0
C1587 C 0.62571 0.78934 0.89989 0.0
C1588 C 0.62995 0.79419 0.9244 0.0
C1589 C 0.61929 0.78172 0.85312 0.0
C1590 C 0.61687 0.79876 0.86149 0.0
C1591 C 0.62069 0.80248 0.88457 0.0
C1592 C 0.60916 0.81252 0.84696 0.0
C1593 C 0.61687 0.77718 0.82807 0.0
C1594 C 0.61775 0.82834 0.84347 0.0
C1595 C 0.61022 0.84123 0.82976 0.0
C1596 C 0.59399 0.83844 0.81941 0.0
C1597 C 0.58533 0.8227 0.82329 0.0
C1598 C 0.59278 0.80994 0.83706 0.0
H1599 H 0.62485 0.76576 0.82319 0.0
H1600 H 0.60309 0.77378 0.82498 0.0
H1601 H 0.62038 0.7882 0.81671 0.0
H1602 H 0.63032 0.83065 0.85117 0.0
H1603 H 0.61715 0.85326 0.8271 0.0
H1604 H 0.51115 0.37365 0.21133 0.0
H1605 H 0.48463 0.37197 0.18822 0.0
H1606 H 0.51365 0.38562 0.12751 0.0
H1607 H 0.54023 0.38741 0.15045 0.0
H1608 H 0.46956 0.39919 0.15109 0.0
H1609 H 0.49068 0.3339 0.12111 0.0
H1610 H 0.49819 0.34313 0.14788 0.0
H1611 H 0.50641 0.35115 0.12108 0.0
C1612 C 0.51183 0.37657 0.19313 0.0
C1613 C 0.52777 0.38053 0.18264 0.0
C1614 C 0.49668 0.37567 0.18001 0.0
C1615 C 0.49729 0.37864 0.15624 0.0
C1616 C 0.51301 0.38332 0.14588 0.0
H1617 H 0.42922 0.3517 0.04482 0.0
H1618 H 0.45299 0.36208 0.06882 0.0
C1619 C 0.52815 0.38431 0.15899 0.0
C1620 C 0.48189 0.37517 0.14191 0.0
H1621 H 0.46483 0.34493 0.1057 0.0
C1622 C 0.46843 0.38736 0.14113 0.0
C1623 C 0.48059 0.3597 0.12907 0.0
C1624 C 0.49465 0.34611 0.12979 0.0
C1625 C 0.45372 0.38459 0.12732 0.0
C1626 C 0.45241 0.36906 0.11444 0.0
C1627 C 0.46588 0.35685 0.11549 0.0
C1628 C 0.43737 0.36508 0.09949 0.0
C1629 C 0.43997 0.39844 0.1262 0.0
C1630 C 0.42058 0.36361 0.10864 0.0
C1631 C 0.40687 0.35783 0.09483 0.0
C1632 C 0.40986 0.35316 0.07181 0.0
C1633 C 0.42656 0.35512 0.06255 0.0
C1634 C 0.44015 0.36107 0.07623 0.0
H1635 H 0.44505 0.41124 0.13182 0.0
H1636 H 0.43472 0.39973 0.10849 0.0
H1637 H 0.42914 0.39488 0.13783 0.0
H1638 H 0.4182 0.36627 0.12666 0.0
H1639 H 0.39414 0.35632 0.10242 0.0
H1640 H 0.87131 0.2635 0.46429 0.0
H1641 H 0.87413 0.23487 0.44643 0.0
H1642 H 0.87482 0.25869 0.37929 0.0
H1643 H 0.87147 0.28723 0.39696 0.0
H1644 H 0.85555 0.22878 0.37999 0.0
H1645 H 0.92002 0.21841 0.4206 0.0
H1646 H 0.90247 0.22198 0.44031 0.0
H1647 H 0.90914 0.23907 0.42127 0.0
C1648 C 0.87193 0.26259 0.44571 0.0
C1649 C 0.87136 0.27758 0.432 0.0
C1650 C 0.8736 0.24625 0.43555 0.0
C1651 C 0.87501 0.2447 0.41157 0.0
C1652 C 0.87379 0.25961 0.39784 0.0
H1653 H 0.92688 0.17638 0.32322 0.0
H1654 H 0.91582 0.1986 0.34903 0.0
C1655 C 0.87194 0.27591 0.40796 0.0
C1656 C 0.8787 0.22776 0.40063 0.0
H1657 H 0.90993 0.19667 0.3958 0.0
C1658 C 0.86734 0.22162 0.3836 0.0
C1659 C 0.89415 0.21853 0.40533 0.0
C1660 C 0.90725 0.22485 0.42272 0.0
C1661 C 0.87133 0.20685 0.3705 0.0
C1662 C 0.88695 0.19785 0.37491 0.0
C1663 C 0.89793 0.20357 0.3926 0.0
C1664 C 0.89329 0.18392 0.35958 0.0
C1665 C 0.85932 0.20156 0.35126 0.0
C1666 C 0.88432 0.16819 0.35704 0.0
C1667 C 0.8906 0.1554 0.34209 0.0
C1668 C 0.90599 0.15817 0.32966 0.0
C1669 C 0.91499 0.17384 0.33254 0.0
C1670 C 0.9087 0.18656 0.34732 0.0
H1671 H 0.84935 0.21159 0.34766 0.0
H1672 H 0.86674 0.19907 0.33523 0.0
H1673 H 0.85257 0.18939 0.35607 0.0
H1674 H 0.87253 0.16581 0.36664 0.0
H1675 H 0.88345 0.1434 0.34025 0.0
H1676 H 0.10304 0.63068 0.58028 0.0
H1677 H 0.07966 0.61752 0.60305 0.0
H1678 H 0.04716 0.66179 0.58917 0.0
H1679 H 0.07012 0.67471 0.5661 0.0
H1680 H 0.06301 0.62886 0.64155 0.0
H1681 H 0.01593 0.62225 0.57059 0.0
H1682 H 0.03855 0.62688 0.5656 0.0
H1683 H 0.02368 0.64409 0.57263 0.0
C1684 C 0.09086 0.63752 0.58204 0.0
C1685 C 0.08832 0.65363 0.57126 0.0
C1686 C 0.07754 0.63001 0.59502 0.0
C1687 C 0.06154 0.6385 0.59733 0.0
C1688 C 0.05921 0.65477 0.58703 0.0
H1689 H 0.98306 0.63785 0.69926 0.0
H1690 H 0.0099 0.64005 0.67723 0.0
C1691 C 0.0724 0.66219 0.57399 0.0
C1692 C 0.0473 0.6308 0.61101 0.0
H1693 H 0.00393 0.62263 0.60894 0.0
C1694 C 0.05014 0.62719 0.63437 0.0
C1695 C 0.03063 0.62819 0.60151 0.0
C1696 C 0.02706 0.63037 0.57614 0.0
C1697 C 0.03647 0.62212 0.64881 0.0
C1698 C 0.01947 0.62112 0.63972 0.0
C1699 C 0.01689 0.62365 0.61605 0.0
C1700 C 0.00399 0.61859 0.65449 0.0
C1701 C 0.0404 0.61802 0.67364 0.0
C1702 C 0.99152 0.60605 0.64878 0.0
C1703 C 0.97597 0.60507 0.661 0.0
C1704 C 0.97267 0.61653 0.67925 0.0
C1705 C 0.98533 0.62875 0.68538 0.0
C1706 C 0.00077 0.6299 0.67294 0.0
H1707 H 0.05383 0.61307 0.67563 0.0
H1708 H 0.03933 0.63006 0.684 0.0
H1709 H 0.03126 0.60826 0.6807 0.0
H1710 H 0.99367 0.59726 0.63453 0.0
H1711 H 0.96643 0.59548 0.65596 0.0
H1712 H 0.65699 0.27514 0.57366 0.0
H1713 H 0.65563 0.24704 0.59321 0.0
H1714 H 0.60077 0.24426 0.57935 0.0
H1715 H 0.60212 0.27204 0.55938 0.0
H1716 H 0.63779 0.23918 0.63113 0.0
H1717 H 0.61589 0.19633 0.56084 0.0
H1718 H 0.62422 0.21784 0.5556 0.0
H1719 H 0.60188 0.21474 0.56363 0.0
C1720 C 0.64469 0.2684 0.57452 0.0
C1721 C 0.62966 0.27575 0.56496 0.0
C1722 C 0.64394 0.25236 0.58567 0.0
C1723 C 0.62816 0.24338 0.58737 0.0
C1724 C 0.61318 0.25068 0.57768 0.0
H1725 H 0.58586 0.17948 0.68983 0.0
H1726 H 0.5981 0.20212 0.66562 0.0
C1727 C 0.61394 0.26665 0.56644 0.0
C1728 C 0.62694 0.22715 0.60091 0.0
H1729 H 0.60995 0.18633 0.59957 0.0
C1730 C 0.632 0.22751 0.6241 0.0
C1731 C 0.61974 0.21178 0.59168 0.0
C1732 C 0.61531 0.21007 0.5665 0.0
C1733 C 0.62898 0.21334 0.63866 0.0
C1734 C 0.62032 0.19859 0.6299 0.0
C1735 C 0.61634 0.19775 0.60637 0.0
C1736 C 0.61382 0.18469 0.64522 0.0
C1737 C 0.63479 0.21446 0.6634 0.0
C1738 C 0.61829 0.16727 0.64148 0.0
C1739 C 0.61115 0.1542 0.65525 0.0
C1740 C 0.59934 0.15838 0.67281 0.0
C1741 C 0.595 0.17584 0.67653 0.0
C1742 C 0.6021 0.18883 0.66281 0.0
H1743 H 0.64611 0.22326 0.66527 0.0
H1744 H 0.62409 0.21982 0.67399 0.0
H1745 H 0.63832 0.20151 0.6703 0.0
H1746 H 0.62719 0.1638 0.62782 0.0
H1747 H 0.61467 0.14084 0.65194 0.0
H1748 H 0.98326 0.36615 0.78742 0.0
H1749 H 0.0112 0.36215 0.80671 0.0
H1750 H 0.98887 0.37998 0.87048 0.0
H1751 H 0.96098 0.38427 0.85127 0.0
H1752 H 0.0226 0.3931 0.86176 0.0
H1753 H 0.01877 0.32151 0.85132 0.0
H1754 H 0.01724 0.33387 0.82521 0.0
H1755 H 0.00042 0.33552 0.84646 0.0
C1756 C 0.98435 0.36934 0.80551 0.0
C1757 C 0.96991 0.37536 0.81792 0.0
C1758 C 0.00029 0.36702 0.81649 0.0
C1759 C 0.002 0.37054 0.84007 0.0
C1760 C 0.98779 0.37716 0.85227 0.0
H1761 H 0.0685 0.33006 0.94303 0.0
H1762 H 0.04526 0.33966 0.91764 0.0
C1763 C 0.97186 0.37955 0.8413 0.0
C1764 C 0.01826 0.36645 0.85242 0.0
H1765 H 0.04342 0.3326 0.86999 0.0
C1766 C 0.02728 0.37991 0.86344 0.0
C1767 C 0.02418 0.34919 0.85468 0.0
C1768 C 0.01462 0.33414 0.84398 0.0
C1769 C 0.04195 0.3765 0.87701 0.0
C1770 C 0.04776 0.35922 0.87939 0.0
C1771 C 0.03895 0.34584 0.86798 0.0
C1772 C 0.06202 0.35444 0.89516 0.0
C1773 C 0.05072 0.39125 0.88944 0.0
C1774 C 0.07916 0.35967 0.89098 0.0
C1775 C 0.09254 0.3542 0.90555 0.0
C1776 C 0.08893 0.34337 0.9244 0.0
C1777 C 0.07171 0.33838 0.92864 0.0
C1778 C 0.05841 0.34384 0.91414 0.0
H1779 H 0.04292 0.40334 0.88886 0.0
H1780 H 0.05312 0.38778 0.9077 0.0
H1781 H 0.06345 0.39388 0.88126 0.0
H1782 H 0.08221 0.36767 0.87622 0.0
H1783 H 0.10571 0.35819 0.90185 0.0
H1784 H 0.87567 0.73919 0.034 0.0
H1785 H 0.87917 0.76638 0.05519 0.0
H1786 H 0.85804 0.74235 0.116 0.0
H1787 H 0.85427 0.71516 0.09485 0.0
H1788 H 0.84729 0.77789 0.10869 0.0
H1789 H 0.91867 0.76831 0.10334 0.0
H1790 H 0.90739 0.76855 0.07629 0.0
H1791 H 0.90343 0.75135 0.09644 0.0
C1792 C 0.87151 0.73978 0.05178 0.0
C1793 C 0.86491 0.72501 0.06288 0.0
C1794 C 0.87354 0.7553 0.06384 0.0
C1795 C 0.86911 0.75625 0.08721 0.0
C1796 C 0.86156 0.74184 0.09796 0.0
H1797 H 0.91182 0.81721 0.19509 0.0
H1798 H 0.90018 0.79506 0.16948 0.0
C1799 C 0.85946 0.72632 0.08589 0.0
C1800 C 0.87386 0.77162 0.10103 0.0
H1801 H 0.90886 0.79329 0.12241 0.0
C1802 C 0.86073 0.78139 0.1116 0.0
C1803 C 0.89142 0.77595 0.10495 0.0
C1804 C 0.90609 0.76545 0.09485 0.0
C1805 C 0.86475 0.79535 0.12618 0.0
C1806 C 0.88232 0.79962 0.13008 0.0
C1807 C 0.8954 0.79 0.11926 0.0
C1808 C 0.88766 0.81324 0.14654 0.0
C1809 C 0.85029 0.80507 0.13792 0.0
C1810 C 0.88428 0.83081 0.14224 0.0
C1811 C 0.89092 0.84358 0.15694 0.0
C1812 C 0.90112 0.83888 0.176 0.0
C1813 C 0.90407 0.82124 0.18051 0.0
C1814 C 0.89742 0.80856 0.1659 0.0
H1815 H 0.83764 0.7983 0.1362 0.0
H1816 H 0.8532 0.80682 0.15649 0.0
H1817 H 0.84904 0.81812 0.13009 0.0
H1818 H 0.87698 0.83468 0.12717 0.0
H1819 H 0.8885 0.85709 0.15304 0.0
H1820 H 0.39335 0.63091 0.4113 0.0
H1821 H 0.41675 0.61783 0.38839 0.0
H1822 H 0.45173 0.65792 0.41121 0.0
H1823 H 0.42874 0.67075 0.43424 0.0
H1824 H 0.43613 0.63179 0.35296 0.0
H1825 H 0.47887 0.61421 0.42547 0.0
H1826 H 0.45637 0.6199 0.42947 0.0
H1827 H 0.47263 0.63656 0.427 0.0
C1828 C 0.40608 0.63683 0.41146 0.0
C1829 C 0.40928 0.65175 0.42468 0.0
C1830 C 0.4194 0.62937 0.39842 0.0
C1831 C 0.43606 0.6367 0.39855 0.0
C1832 C 0.43911 0.65177 0.41138 0.0
H1833 H 0.51915 0.64239 0.30472 0.0
H1834 H 0.49157 0.64375 0.32521 0.0
C1835 C 0.4259 0.65916 0.42442 0.0
C1836 C 0.4503 0.62919 0.38471 0.0
H1837 H 0.49286 0.61779 0.38855 0.0
C1838 C 0.44845 0.62839 0.36072 0.0
C1839 C 0.46622 0.62436 0.39489 0.0
C1840 C 0.46858 0.62361 0.42065 0.0
C1841 C 0.46253 0.62407 0.34655 0.0
C1842 C 0.47892 0.6209 0.35667 0.0
C1843 C 0.48039 0.6205 0.38073 0.0
C1844 C 0.49496 0.61924 0.34281 0.0
C1845 C 0.45974 0.62319 0.32089 0.0
C1846 C 0.50627 0.60523 0.34629 0.0
C1847 C 0.52222 0.60461 0.33495 0.0
C1848 C 0.52711 0.61799 0.31989 0.0
C1849 C 0.51567 0.63185 0.31612 0.0
C1850 C 0.49981 0.63254 0.32764 0.0
H1851 H 0.44616 0.61954 0.31676 0.0
H1852 H 0.46217 0.63615 0.31329 0.0
H1853 H 0.4686 0.61369 0.31266 0.0
H1854 H 0.50286 0.5949 0.35807 0.0
H1855 H 0.53079 0.59376 0.33814 0.0
H1856 H 0.40197 0.14337 0.13101 0.0
H1857 H 0.39417 0.1687 0.10765 0.0
H1858 H 0.37364 0.19398 0.16795 0.0
H1859 H 0.38164 0.16895 0.19139 0.0
H1860 H 0.36278 0.18833 0.09999 0.0
H1861 H 0.41337 0.22584 0.14627 0.0
H1862 H 0.4119 0.20253 0.1479 0.0
H1863 H 0.39762 0.21587 0.16477 0.0
C1864 C 0.39547 0.15419 0.13916 0.0
C1865 C 0.39261 0.15432 0.16304 0.0
C1866 C 0.39105 0.16863 0.12583 0.0
C1867 C 0.38368 0.18331 0.13622 0.0
C1868 C 0.37964 0.1829 0.15973 0.0
H1869 H 0.36226 0.28884 0.0966 0.0
H1870 H 0.36388 0.26063 0.11569 0.0
C1871 C 0.38416 0.16857 0.17306 0.0
C1872 C 0.3815 0.19956 0.12306 0.0
H1873 H 0.3951 0.24161 0.12115 0.0
C1874 C 0.36987 0.19998 0.10451 0.0
C1875 C 0.3909 0.21467 0.12893 0.0
C1876 C 0.40427 0.21474 0.14791 0.0
C1877 C 0.36703 0.21533 0.09205 0.0
C1878 C 0.37622 0.23049 0.09824 0.0
C1879 C 0.38798 0.22998 0.1166 0.0
C1880 C 0.37397 0.24712 0.08595 0.0
C1881 C 0.35398 0.21536 0.07274 0.0
C1882 C 0.37915 0.24882 0.06293 0.0
C1883 C 0.3783 0.26494 0.05201 0.0
C1884 C 0.37232 0.27959 0.06398 0.0
C1885 C 0.36692 0.27778 0.08694 0.0
C1886 C 0.36781 0.26169 0.09785 0.0
H1887 H 0.34533 0.20386 0.07344 0.0
H1888 H 0.34592 0.22727 0.07328 0.0
H1889 H 0.36093 0.21515 0.05603 0.0
H1890 H 0.38425 0.23779 0.0536 0.0
H1891 H 0.38258 0.26596 0.03431 0.0
H1892 H 0.48468 0.63512 0.79772 0.0
H1893 H 0.51142 0.63703 0.81991 0.0
H1894 H 0.4909 0.6007 0.86934 0.0
H1895 H 0.46375 0.59926 0.84758 0.0
H1896 H 0.50314 0.62764 0.89037 0.0
H1897 H 0.55275 0.60679 0.82805 0.0
H1898 H 0.53989 0.6238 0.8159 0.0
H1899 H 0.52991 0.60338 0.82311 0.0
C1900 C 0.48596 0.62733 0.81313 0.0
C1901 C 0.47214 0.61708 0.82098 0.0
C1902 C 0.50134 0.62829 0.82568 0.0
C1903 C 0.50335 0.61873 0.84607 0.0
C1904 C 0.4897 0.60808 0.85358 0.0
H1905 H 0.6016 0.63148 0.92216 0.0
H1906 H 0.57801 0.61778 0.90032 0.0
C1907 C 0.4742 0.6073 0.84117 0.0
C1908 C 0.51882 0.62148 0.86076 0.0
H1909 H 0.56284 0.62574 0.85883 0.0
C1910 C 0.5162 0.62687 0.88357 0.0
C1911 C 0.53593 0.62017 0.85214 0.0
C1912 C 0.53977 0.61302 0.82853 0.0
C1913 C 0.5301 0.63205 0.89745 0.0
C1914 C 0.54701 0.63235 0.88806 0.0
C1915 C 0.54981 0.62586 0.86583 0.0
C1916 C 0.5616 0.64053 0.9005 0.0
C1917 C 0.52646 0.63743 0.92195 0.0
C1918 C 0.56037 0.65795 0.90719 0.0
C1919 C 0.57368 0.66571 0.91969 0.0
C1920 C 0.58862 0.65628 0.92545 0.0
C1921 C 0.59019 0.63902 0.91798 0.0
C1922 C 0.57675 0.63119 0.90556 0.0
H1923 H 0.51463 0.63098 0.92869 0.0
H1924 H 0.53751 0.63429 0.93346 0.0
H1925 H 0.52421 0.65163 0.92252 0.0
H1926 H 0.54902 0.66555 0.90286 0.0
H1927 H 0.57218 0.67909 0.92497 0.0
H1928 H 0.11592 0.82996 0.69865 0.0
H1929 H 0.12625 0.80613 0.67468 0.0
H1930 H 0.10824 0.83278 0.614 0.0
H1931 H 0.09804 0.85687 0.63793 0.0
H1932 H 0.10301 0.78722 0.6484 0.0
H1933 H 0.15574 0.81385 0.59381 0.0
H1934 H 0.14863 0.82428 0.62 0.0
H1935 H 0.13613 0.82643 0.59408 0.0
C1936 C 0.11452 0.83095 0.68015 0.0
C1937 C 0.10608 0.84522 0.67014 0.0
C1938 C 0.12044 0.81733 0.66649 0.0
C1939 C 0.11809 0.81773 0.64258 0.0
C1940 C 0.11046 0.83236 0.63239 0.0
H1941 H 0.12019 0.73929 0.53659 0.0
H1942 H 0.11891 0.76642 0.5584 0.0
C1943 C 0.10456 0.84607 0.64608 0.0
C1944 C 0.12159 0.80196 0.62887 0.0
H1945 H 0.14495 0.78592 0.58373 0.0
C1946 C 0.1123 0.78689 0.6344 0.0
C1947 C 0.13358 0.80166 0.61049 0.0
C1948 C 0.14422 0.81737 0.6043 0.0
C1949 C 0.11449 0.77156 0.62185 0.0
C1950 C 0.12652 0.77121 0.60352 0.0
C1951 C 0.13581 0.78626 0.5979 0.0
C1952 C 0.12918 0.75533 0.58973 0.0
C1953 C 0.10357 0.75598 0.62793 0.0
C1954 C 0.13582 0.74028 0.60001 0.0
C1955 C 0.13651 0.72478 0.58766 0.0
C1956 C 0.13064 0.72412 0.56479 0.0
C1957 C 0.12473 0.7394 0.55423 0.0
C1958 C 0.12403 0.7549 0.56661 0.0
H1959 H 0.09232 0.75953 0.6389 0.0
H1960 H 0.09869 0.74947 0.61217 0.0
H1961 H 0.11161 0.74653 0.63758 0.0
H1962 H 0.14005 0.74045 0.61778 0.0
H1963 H 0.14124 0.71323 0.59619 0.0
H1964 H 0.89627 0.35439 0.39367 0.0
H1965 H 0.92135 0.3628 0.37013 0.0
H1966 H 0.95517 0.35379 0.42798 0.0
H1967 H 0.93038 0.34508 0.45133 0.0
H1968 H 0.94745 0.38819 0.37534 0.0
H1969 H 0.97476 0.3218 0.37839 0.0
H1970 H 0.95283 0.3266 0.38708 0.0
H1971 H 0.9706 0.33062 0.40641 0.0
C1972 C 0.90905 0.35437 0.40138 0.0
C1973 C 0.91143 0.34889 0.42422 0.0
C1974 C 0.92333 0.35916 0.38794 0.0
C1975 C 0.94013 0.35852 0.3972 0.0
C1976 C 0.94236 0.35395 0.42036 0.0
H1977 H 0.04512 0.37759 0.35698 0.0
H1978 H 0.01742 0.37351 0.37674 0.0
C1979 C 0.92817 0.34906 0.43369 0.0
C1980 C 0.95547 0.36203 0.38265 0.0
H1981 H 0.99354 0.34406 0.36466 0.0
C1982 C 0.95746 0.37852 0.37277 0.0
C1983 C 0.96841 0.3493 0.37919 0.0
C1984 C 0.9665 0.33103 0.38812 0.0
C1985 C 0.97245 0.3828 0.36028 0.0
C1986 C 0.98563 0.37025 0.35762 0.0
C1987 C 0.98344 0.35367 0.36698 0.0
C1988 C 0.00205 0.37409 0.34562 0.0
C1989 C 0.97441 0.40081 0.35057 0.0
C1990 C 0.00249 0.37577 0.32162 0.0
C1991 C 0.01831 0.37797 0.31025 0.0
C1992 C 0.03389 0.37856 0.32279 0.0
C1993 C 0.03333 0.37721 0.34688 0.0
C1994 C 0.01754 0.37489 0.35819 0.0
H1995 H 0.96403 0.40969 0.35663 0.0
H1996 H 0.9872 0.40631 0.35543 0.0
H1997 H 0.97389 0.40019 0.3315 0.0
H1998 H 0.99066 0.37496 0.31165 0.0
H1999 H 0.01837 0.37897 0.29167 0.0
H2000 H 0.37716 0.85489 0.33531 0.0
H2001 H 0.36533 0.83053 0.35749 0.0
H2002 H 0.41156 0.80089 0.34334 0.0
H2003 H 0.42302 0.82477 0.32057 0.0
H2004 H 0.38342 0.78181 0.337 0.0
H2005 H 0.37881 0.81555 0.42129 0.0
H2006 H 0.36668 0.82542 0.39842 0.0
H2007 H 0.38995 0.82484 0.39698 0.0
C2008 C 0.38476 0.84317 0.33703 0.0
C2009 C 0.401 0.8417 0.32628 0.0
C2010 C 0.37805 0.82931 0.3498 0.0
C2011 C 0.38767 0.81397 0.35235 0.0
C2012 C 0.40389 0.81258 0.3416 0.0
H2013 H 0.38983 0.7338 0.45161 0.0
H2014 H 0.39142 0.76042 0.42905 0.0
C2015 C 0.41045 0.82626 0.32861 0.0
C2016 C 0.38102 0.7991 0.36589 0.0
H2017 H 0.36982 0.78641 0.42014 0.0
C2018 C 0.38032 0.78282 0.35515 0.0
C2019 C 0.37706 0.80047 0.38959 0.0
C2020 C 0.37828 0.81746 0.40235 0.0
C2021 C 0.37655 0.76774 0.36762 0.0
C2022 C 0.3727 0.76906 0.39137 0.0
C2023 C 0.37268 0.78545 0.40191 0.0
C2024 C 0.37045 0.7535 0.40603 0.0
C2025 C 0.37774 0.75048 0.35546 0.0
C2026 C 0.35786 0.74092 0.40097 0.0
C2027 C 0.35716 0.72551 0.41359 0.0
C2028 C 0.36878 0.72265 0.43181 0.0
C2029 C 0.38074 0.73565 0.43762 0.0
C2030 C 0.38162 0.75088 0.42477 0.0
H2031 H 0.38491 0.75148 0.33893 0.0
H2032 H 0.38432 0.74069 0.3664 0.0
H2033 H 0.36449 0.74574 0.35155 0.0
H2034 H 0.34879 0.74287 0.387 0.0
H2035 H 0.34767 0.71578 0.40895 0.0
H2036 H 0.03386 0.60116 0.14994 0.0
H2037 H 0.0067 0.60306 0.12821 0.0
H2038 H 0.98752 0.64107 0.17635 0.0
H2039 H 0.01429 0.63878 0.1985 0.0
H2040 H 0.96233 0.61847 0.16358 0.0
H2041 H 0.99695 0.64385 0.08672 0.0
H2042 H 0.0038 0.62277 0.09603 0.0
H2043 H 0.00746 0.64128 0.1142 0.0
C2044 C 0.02377 0.60979 0.15596 0.0
C2045 C 0.02623 0.61997 0.17574 0.0
C2046 C 0.0083 0.61092 0.1435 0.0
C2047 C 0.99524 0.62247 0.15041 0.0
C2048 C 0.99745 0.6321 0.17068 0.0
H2049 H 0.92163 0.67954 0.07408 0.0
H2050 H 0.94548 0.66751 0.09643 0.0
C2051 C 0.01278 0.63083 0.18327 0.0
C2052 C 0.97966 0.62541 0.13606 0.0
H2053 H 0.96673 0.64134 0.08408 0.0
C2054 C 0.96324 0.62333 0.14612 0.0
C2055 C 0.98095 0.63189 0.11335 0.0
C2056 C 0.99821 0.63524 0.10195 0.0
C2057 C 0.94808 0.62811 0.13436 0.0
C2058 C 0.94941 0.63476 0.11176 0.0
C2059 C 0.96578 0.6362 0.10141 0.0
C2060 C 0.93429 0.64186 0.09921 0.0
C2061 C 0.9309 0.62682 0.14663 0.0
C2062 C 0.91998 0.63147 0.09352 0.0
C2063 C 0.90615 0.63842 0.08093 0.0
C2064 C 0.90663 0.65576 0.07358 0.0
C2065 C 0.92093 0.66611 0.07944 0.0
C2066 C 0.93458 0.65925 0.09218 0.0
H2067 H 0.93254 0.62504 0.16548 0.0
H2068 H 0.92296 0.6386 0.14363 0.0
H2069 H 0.92362 0.6155 0.13988 0.0
H2070 H 0.91964 0.61793 0.0984 0.0
H2071 H 0.89533 0.63013 0.07647 0.0
H2072 H 0.12079 0.26013 0.96492 0.0
H2073 H 0.1181 0.23232 0.94498 0.0
H2074 H 0.13665 0.25593 0.88239 0.0
H2075 H 0.13965 0.28367 0.90229 0.0
H2076 H 0.09648 0.22701 0.909 0.0
H2077 H 0.16353 0.21066 0.88303 0.0
H2078 H 0.15874 0.22671 0.90477 0.0
H2079 H 0.15745 0.23221 0.87473 0.0
C2080 C 0.1246 0.2593 0.94702 0.0
C2081 C 0.13038 0.27407 0.93513 0.0
C2082 C 0.12308 0.24342 0.93567 0.0
C2083 C 0.12739 0.242 0.91228 0.0
C2084 C 0.13365 0.25661 0.90057 0.0
H2085 H 0.08388 0.17988 0.80685 0.0
H2086 H 0.09447 0.20209 0.83325 0.0
C2087 C 0.13523 0.2725 0.91192 0.0
C2088 C 0.12345 0.22587 0.89949 0.0
H2089 H 0.14063 0.19615 0.86236 0.0
C2090 C 0.1062 0.22011 0.89911 0.0
C2091 C 0.13616 0.21678 0.88673 0.0
C2092 C 0.15504 0.2218 0.88749 0.0
C2093 C 0.10117 0.20602 0.88548 0.0
C2094 C 0.11366 0.19761 0.87165 0.0
C2095 C 0.13106 0.20278 0.87282 0.0
C2096 C 0.10854 0.18416 0.8549 0.0
C2097 C 0.08243 0.20041 0.88561 0.0
C2098 C 0.1134 0.1668 0.85803 0.0
C2099 C 0.10734 0.15402 0.84293 0.0
C2100 C 0.09645 0.15851 0.82447 0.0
C2101 C 0.09217 0.17601 0.82098 0.0
C2102 C 0.09817 0.18871 0.83606 0.0
H2103 H 0.07549 0.20522 0.9011 0.0
H2104 H 0.07584 0.20573 0.87018 0.0
H2105 H 0.08136 0.18606 0.88501 0.0
H2106 H 0.12146 0.16311 0.87247 0.0
H2107 H 0.11088 0.14064 0.84598 0.0
H2108 H 0.6067 0.33878 0.61125 0.0
H2109 H 0.58192 0.34798 0.6347 0.0
H2110 H 0.5617 0.37692 0.57721 0.0
H2111 H 0.58623 0.36765 0.55362 0.0
H2112 H 0.56585 0.38168 0.64588 0.0
H2113 H 0.52492 0.33882 0.59148 0.0
H2114 H 0.54827 0.33758 0.59159 0.0
H2115 H 0.5375 0.35453 0.57594 0.0
C2116 C 0.59717 0.34742 0.60379 0.0
C2117 C 0.59824 0.35232 0.58054 0.0
C2118 C 0.58305 0.35265 0.61719 0.0
C2119 C 0.56988 0.36285 0.6075 0.0
C2120 C 0.57163 0.36882 0.58484 0.0
H2121 H 0.46513 0.38929 0.64624 0.0
H2122 H 0.4935 0.38714 0.6277 0.0
C2123 C 0.58566 0.36355 0.57143 0.0
C2124 C 0.55355 0.36583 0.62016 0.0
H2125 H 0.51045 0.35607 0.61894 0.0
C2126 C 0.55372 0.37609 0.64008 0.0
C2127 C 0.53781 0.35838 0.61255 0.0
C2128 C 0.53704 0.34658 0.59184 0.0
C2129 C 0.53838 0.37946 0.65233 0.0
C2130 C 0.52262 0.37212 0.64456 0.0
C2131 C 0.52254 0.36177 0.62474 0.0
C2132 C 0.50599 0.37479 0.65672 0.0
C2133 C 0.53907 0.39109 0.67317 0.0
C2134 C 0.50364 0.36854 0.67917 0.0
C2135 C 0.48744 0.36975 0.6898 0.0
C2136 C 0.47331 0.3771 0.67805 0.0
C2137 C 0.47577 0.38355 0.6557 0.0
C2138 C 0.49196 0.38236 0.6451 0.0
H2139 H 0.55105 0.39907 0.67344 0.0
H2140 H 0.52765 0.39984 0.67372 0.0
H2141 H 0.53892 0.38299 0.68894 0.0
H2142 H 0.51421 0.36232 0.68823 0.0
H2143 H 0.4859 0.36462 0.70702 0.0
H2144 H 0.12155 0.42961 0.27843 0.0
H2145 H 0.12749 0.46014 0.26927 0.0
H2146 H 0.07398 0.47276 0.28264 0.0
H2147 H 0.06797 0.44249 0.29165 0.0
H2148 H 0.10966 0.47864 0.2331 0.0
H2149 H 0.10151 0.51051 0.3177 0.0
H2150 H 0.10615 0.48765 0.31476 0.0
H2151 H 0.08436 0.49554 0.31125 0.0
C2152 C 0.11117 0.43899 0.27984 0.0
C2153 C 0.0943 0.43373 0.28575 0.0
C2154 C 0.11457 0.45637 0.27455 0.0
C2155 C 0.10121 0.46869 0.27556 0.0
C2156 C 0.08453 0.4635 0.28217 0.0
H2157 H 0.06218 0.56383 0.23616 0.0
H2158 H 0.07043 0.53514 0.24981 0.0
C2159 C 0.08109 0.44618 0.2872 0.0
C2160 C 0.104 0.48669 0.26776 0.0
H2161 H 0.09674 0.52845 0.28425 0.0
C2162 C 0.10732 0.48962 0.24433 0.0
C2163 C 0.10098 0.50091 0.28252 0.0
C2164 C 0.09822 0.49853 0.30802 0.0
C2165 C 0.10626 0.50635 0.23493 0.0
C2166 C 0.10198 0.5204 0.24946 0.0
C2167 C 0.0999 0.5176 0.27315 0.0
C2168 C 0.09739 0.53761 0.24015 0.0
C2169 C 0.10851 0.50874 0.20935 0.0
C2170 C 0.10983 0.54843 0.22996 0.0
C2171 C 0.10512 0.56491 0.22201 0.0
C2172 C 0.08793 0.57074 0.22427 0.0
C2173 C 0.07552 0.55972 0.23417 0.0
C2174 C 0.08021 0.54334 0.24205 0.0
H2175 H 0.10997 0.4962 0.20015 0.0
H2176 H 0.09721 0.51577 0.20206 0.0
H2177 H 0.12023 0.51669 0.20604 0.0
H2178 H 0.12319 0.54427 0.22855 0.0
H2179 H 0.11496 0.5732 0.21457 0.0
H2180 H 0.80642 0.81357 0.53323 0.0
H2181 H 0.77737 0.8215 0.52027 0.0
H2182 H 0.7931 0.87494 0.51471 0.0
H2183 H 0.82236 0.86711 0.5279 0.0
H2184 H 0.753 0.84963 0.53849 0.0
H2185 H 0.77612 0.85711 0.44809 0.0
H2186 H 0.78813 0.84451 0.46885 0.0
H2187 H 0.78771 0.86767 0.47109 0.0
C2188 C 0.80365 0.82706 0.52961 0.0
C2189 C 0.81665 0.83972 0.53146 0.0
C2190 C 0.78706 0.83156 0.52224 0.0
C2191 C 0.78322 0.84875 0.51639 0.0
C2192 C 0.79592 0.86159 0.51908 0.0
H2193 H 0.67547 0.8682 0.47234 0.0
H2194 H 0.7048 0.87528 0.48574 0.0
C2195 C 0.81255 0.85711 0.52669 0.0
C2196 C 0.76616 0.8527 0.50615 0.0
H2197 H 0.74602 0.85652 0.4541 0.0
C2198 C 0.75141 0.85159 0.52013 0.0
C2199 C 0.76428 0.85508 0.48216 0.0
C2200 C 0.77983 0.85614 0.46651 0.0
C2201 C 0.73472 0.852 0.51058 0.0
C2202 C 0.73284 0.85356 0.48646 0.0
C2203 C 0.74758 0.85546 0.47259 0.0
C2204 C 0.71588 0.85077 0.47529 0.0
C2205 C 0.71923 0.84965 0.52611 0.0
C2206 C 0.71266 0.83494 0.46427 0.0
C2207 C 0.696 0.83084 0.45672 0.0
C2208 C 0.68231 0.84259 0.45992 0.0
C2209 C 0.6858 0.85892 0.46961 0.0
C2210 C 0.70249 0.86296 0.47735 0.0
H2211 H 0.72303 0.84719 0.54426 0.0
H2212 H 0.71109 0.8615 0.5256 0.0
H2213 H 0.71116 0.83866 0.51999 0.0
H2214 H 0.72288 0.82539 0.46254 0.0
H2215 H 0.6937 0.81818 0.44926 0.0
H2216 H 0.38371 0.42716 0.71269 0.0
H2217 H 0.37648 0.45664 0.72565 0.0
H2218 H 0.43071 0.467 0.73718 0.0
H2219 H 0.43798 0.43779 0.72451 0.0
H2220 H 0.40721 0.47355 0.77588 0.0
H2221 H 0.38666 0.50475 0.69369 0.0
H2222 H 0.37781 0.48391 0.70134 0.0
H2223 H 0.40027 0.48571 0.69391 0.0
C2224 C 0.39407 0.43585 0.71766 0.0
C2225 C 0.4114 0.43019 0.71766 0.0
C2226 C 0.38993 0.45264 0.72504 0.0
C2227 C 0.40308 0.46392 0.73236 0.0
C2228 C 0.42039 0.45843 0.73166 0.0
H2229 H 0.43767 0.55906 0.77487 0.0
H2230 H 0.43042 0.52914 0.76538 0.0
C2231 C 0.42452 0.44176 0.72437 0.0
C2232 C 0.39916 0.48123 0.74189 0.0
H2233 H 0.39045 0.52286 0.72585 0.0
C2234 C 0.40316 0.48428 0.76508 0.0
C2235 C 0.39375 0.49511 0.72777 0.0
C2236 C 0.38939 0.49237 0.70275 0.0
C2237 C 0.40299 0.50109 0.77417 0.0
C2238 C 0.39886 0.51513 0.75963 0.0
C2239 C 0.3936 0.51198 0.7369 0.0
C2240 C 0.40269 0.53311 0.76659 0.0
C2241 C 0.40811 0.50385 0.79895 0.0
C2242 C 0.38943 0.5452 0.7704 0.0
C2243 C 0.39354 0.56237 0.77608 0.0
C2244 C 0.41096 0.56762 0.77756 0.0
C2245 C 0.42414 0.55539 0.77385 0.0
C2246 C 0.42003 0.53829 0.76848 0.0
H2247 H 0.40649 0.49183 0.80926 0.0
H2248 H 0.42195 0.50771 0.79971 0.0
H2249 H 0.4003 0.51437 0.80685 0.0
H2250 H 0.37597 0.54138 0.76887 0.0
H2251 H 0.38315 0.57159 0.77872 0.0
H2252 H 0.80572 0.18306 0.97612 0.0
H2253 H 0.77616 0.17506 0.98625 0.0
H2254 H 0.7883 0.12113 0.97548 0.0
H2255 H 0.81826 0.12905 0.96535 0.0
H2256 H 0.75462 0.13591 0.95498 0.0
H2257 H 0.76408 0.1479 0.04819 0.0
H2258 H 0.77291 0.16452 0.02996 0.0
H2259 H 0.78178 0.143 0.02886 0.0
C2260 C 0.80214 0.16948 0.97573 0.0
C2261 C 0.81432 0.15666 0.97006 0.0
C2262 C 0.78526 0.16495 0.98162 0.0
C2263 C 0.78021 0.14752 0.98194 0.0
C2264 C 0.79208 0.13464 0.97549 0.0
H2265 H 0.67609 0.13906 0.04263 0.0
H2266 H 0.70546 0.12928 0.03261 0.0
C2267 C 0.80912 0.13919 0.96967 0.0
C2268 C 0.76242 0.14319 0.98921 0.0
H2269 H 0.73481 0.14969 0.03414 0.0
C2270 C 0.75029 0.13845 0.97241 0.0
C2271 C 0.7569 0.14622 0.01203 0.0
C2272 C 0.76962 0.15054 0.03089 0.0
C2273 C 0.7325 0.13818 0.97746 0.0
C2274 C 0.72686 0.14302 -0.00028 0.0
C2275 C 0.73914 0.14616 0.01701 0.0
C2276 C 0.70856 0.14743 0.00452 0.0
C2277 C 0.71988 0.13347 0.95866 0.0
C2278 C 0.70073 0.16096 0.99223 0.0
C2279 C 0.68415 0.16662 0.99801 0.0
C2280 C 0.67507 0.15892 0.01628 0.0
C2281 C 0.68281 0.14522 0.02846 0.0
C2282 C 0.69951 0.13959 0.02271 0.0
H2283 H 0.72586 0.12441 0.9461 0.0
H2284 H 0.70798 0.12743 0.96579 0.0
H2285 H 0.71612 0.14538 0.9492 0.0
H2286 H 0.70766 0.16752 0.97857 0.0
H2287 H 0.67855 0.17722 0.9883 0.0
H2288 H 0.93371 0.43688 0.76756 0.0
H2289 H 0.92557 0.46599 0.75535 0.0
H2290 H 0.87235 0.45574 0.7734 0.0
H2291 H 0.88043 0.42635 0.78581 0.0
H2292 H 0.89788 0.4721 0.71942 0.0
H2293 H 0.88658 0.50421 0.80414 0.0
H2294 H 0.9005 0.48547 0.80183 0.0
H2295 H 0.87755 0.48307 0.79845 0.0
C2296 C 0.9203 0.44084 0.7692 0.0
C2297 C 0.90769 0.42935 0.7776 0.0
C2298 C 0.91567 0.45745 0.76217 0.0
C2299 C 0.89839 0.46292 0.76347 0.0
C2300 C 0.88578 0.45171 0.7724 0.0
H2301 H 0.88046 0.57238 0.72532 0.0
H2302 H 0.87194 0.54247 0.73478 0.0
C2303 C 0.89041 0.43499 0.77948 0.0
C2304 C 0.89386 0.48021 0.75447 0.0
H2305 H 0.88875 0.52217 0.77157 0.0
C2306 C 0.89544 0.48302 0.73073 0.0
C2307 C 0.89051 0.49432 0.76928 0.0
C2308 C 0.88867 0.49178 0.79489 0.0
C2309 C 0.89502 0.49979 0.72158 0.0
C2310 C 0.89321 0.51405 0.73663 0.0
C2311 C 0.89016 0.51116 0.76012 0.0
C2312 C 0.89749 0.53179 0.72904 0.0
C2313 C 0.89745 0.50222 0.69603 0.0
C2314 C 0.91462 0.53554 0.72275 0.0
C2315 C 0.91952 0.55246 0.71763 0.0
C2316 C 0.90735 0.56596 0.71861 0.0
C2317 C 0.89005 0.56216 0.7243 0.0
C2318 C 0.88518 0.54516 0.72973 0.0
H2319 H 0.89327 0.49055 0.68631 0.0
H2320 H 0.89006 0.51362 0.68972 0.0
H2321 H 0.91139 0.50443 0.69238 0.0
H2322 H 0.92435 0.52542 0.7225 0.0
H2323 H 0.93293 0.55502 0.71332 0.0
H2324 H 0.3223 0.13209 0.52732 0.0
H2325 H 0.29238 0.12475 0.51661 0.0
H2326 H 0.28386 0.17755 0.49506 0.0
H2327 H 0.31358 0.18489 0.50537 0.0
H2328 H 0.26145 0.13842 0.53262 0.0
H2329 H 0.26777 0.1499 0.43924 0.0
H2330 H 0.28633 0.14745 0.4579 0.0
H2331 H 0.27556 0.16808 0.45546 0.0
C2332 C 0.31401 0.1421 0.52028 0.0
C2333 C 0.32027 0.15904 0.51706 0.0
C2334 C 0.29698 0.13788 0.51412 0.0
C2335 C 0.28608 0.15051 0.50453 0.0
C2336 C 0.29223 0.16749 0.50182 0.0
H2337 H 0.18172 0.17513 0.50525 0.0
H2338 H 0.2117 0.16737 0.51309 0.0
C2339 C 0.30917 0.1717 0.50791 0.0
C2340 C 0.26798 0.14643 0.49818 0.0
H2341 H 0.23875 0.15237 0.45492 0.0
C2342 C 0.25651 0.14109 0.51551 0.0
C2343 C 0.26162 0.14946 0.47572 0.0
C2344 C 0.27352 0.15385 0.45596 0.0
C2345 C 0.23862 0.14017 0.51142 0.0
C2346 C 0.2321 0.14506 0.4896 0.0
C2347 C 0.24372 0.1489 0.47176 0.0
C2348 C 0.21344 0.14839 0.48575 0.0
C2349 C 0.22685 0.1345 0.53071 0.0
C2350 C 0.20454 0.14059 0.46738 0.0
C2351 C 0.18735 0.14519 0.46265 0.0
C2352 C 0.17892 0.15774 0.47613 0.0
C2353 C 0.18784 0.16537 0.4946 0.0
C2354 C 0.20494 0.1608 0.49928 0.0
H2355 H 0.23359 0.12535 0.54244 0.0
H2356 H 0.22301 0.146 0.54099 0.0
H2357 H 0.21493 0.12817 0.52404 0.0
H2358 H 0.21096 0.13114 0.45655 0.0
H2359 H 0.18077 0.13912 0.4483 0.0
H2360 H 0.61552 0.56745 0.29081 0.0
H2361 H 0.62322 0.53743 0.28084 0.0
H2362 H 0.57362 0.53101 0.24769 0.0
H2363 H 0.56595 0.56072 0.2573 0.0
H2364 H 0.60608 0.50703 0.29335 0.0
H2365 H 0.60734 0.51358 0.1988 0.0
H2366 H 0.60838 0.53206 0.21786 0.0
H2367 H 0.5878 0.52249 0.21059 0.0
C2368 C 0.60633 0.55962 0.28129 0.0
C2369 C 0.59016 0.56642 0.27476 0.0
C2370 C 0.61076 0.54253 0.27558 0.0
C2371 C 0.59914 0.53216 0.26307 0.0
C2372 C 0.58297 0.53894 0.25679 0.0
H2373 H 0.56839 0.42948 0.258 0.0
H2374 H 0.57658 0.45919 0.26704 0.0
C2375 C 0.57854 0.55589 0.26249 0.0
C2376 C 0.60314 0.51387 0.25763 0.0
H2377 H 0.60083 0.48482 0.21352 0.0
C2378 C 0.60536 0.50217 0.27585 0.0
C2379 C 0.60262 0.50759 0.23477 0.0
C2380 C 0.6016 0.51964 0.21439 0.0
C2381 C 0.60551 0.48423 0.27195 0.0
C2382 C 0.60304 0.47792 0.24933 0.0
C2383 C 0.60241 0.48965 0.23092 0.0
C2384 C 0.59903 0.45948 0.2447 0.0
C2385 C 0.60773 0.47222 0.2922 0.0
C2386 C 0.60864 0.4499 0.2286 0.0
C2387 C 0.60384 0.43289 0.22317 0.0
C2388 C 0.58927 0.42529 0.23363 0.0
C2389 C 0.57972 0.43494 0.24972 0.0
C2390 C 0.5845 0.45187 0.25511 0.0
H2391 H 0.61557 0.47841 0.30597 0.0
H2392 H 0.59481 0.46917 0.29955 0.0
H2393 H 0.61407 0.45989 0.28705 0.0
H2394 H 0.61977 0.45563 0.22016 0.0
H2395 H 0.61143 0.42574 0.21069 0.0
H2396 H 0.18098 0.86451 0.04237 0.0
H2397 H 0.21108 0.87249 0.03333 0.0
H2398 H 0.21524 0.8279 0.9889 0.0
H2399 H 0.18541 0.82004 0.99752 0.0
H2400 H 0.24057 0.85354 0.04121 0.0
H2401 H 0.23427 0.86608 0.94819 0.0
H2402 H 0.21575 0.8652 0.96717 0.0
H2403 H 0.22484 0.84557 0.95548 0.0
C2404 C 0.18832 0.85652 0.03054 0.0
C2405 C 0.18085 0.84168 0.0206 0.0
C2406 C 0.20545 0.86111 0.02536 0.0
C2407 C 0.21524 0.85101 0.01002 0.0
C2408 C 0.20777 0.83617 0.00023 0.0
H2409 H 0.31668 0.81738 -0.00069 0.0
H2410 H 0.28711 0.82549 0.0092 0.0
C2411 C 0.19076 0.8316 0.00538 0.0
C2412 C 0.23369 0.85493 0.00533 0.0
H2413 H 0.26277 0.85658 0.96119 0.0
C2414 C 0.24542 0.85464 0.02376 0.0
C2415 C 0.24002 0.85679 0.98262 0.0
C2416 C 0.22801 0.85863 0.96228 0.0
C2417 C 0.26336 0.85458 0.01989 0.0
C2418 C 0.26964 0.85443 0.99702 0.0
C2419 C 0.25795 0.85634 0.97872 0.0
C2420 C 0.28793 0.85023 0.99166 0.0
C2421 C 0.27539 0.85406 0.04033 0.0
C2422 C 0.29806 0.8612 0.97785 0.0
C2423 C 0.31501 0.85648 0.97192 0.0
C2424 C 0.32197 0.84066 0.97958 0.0
C2425 C 0.31172 0.8297 0.99325 0.0
C2426 C 0.29487 0.8344 -0.00088 0.0
H2427 H 0.26945 0.86049 0.05551 0.0
H2428 H 0.27794 0.84036 0.04505 0.0
H2429 H 0.28796 0.86044 0.03647 0.0
H2430 H 0.29285 0.87337 0.97167 0.0
H2431 H 0.32262 0.86516 0.96133 0.0
H2432 H 0.56595 0.92958 0.73635 0.0
H2433 H 0.57336 0.95964 0.72817 0.0
H2434 H 0.61241 0.95846 0.78126 0.0
H2435 H 0.60485 0.92823 0.78982 0.0
H2436 H 0.59146 0.98673 0.78449 0.0
H2437 H 0.61464 0.98041 0.69506 0.0
H2438 H 0.59389 0.97029 0.69854 0.0
H2439 H 0.61236 0.96199 0.71399 0.0
C2440 C 0.57621 0.93565 0.7462 0.0
C2441 C 0.58483 0.92656 0.76373 0.0
C2442 C 0.58055 0.95279 0.74133 0.0
C2443 C 0.59371 0.96116 0.75373 0.0
C2444 C 0.60236 0.95215 0.7713 0.0
H2445 H 0.61277 0.06958 0.71142 0.0
H2446 H 0.61923 0.03931 0.72156 0.0
C2447 C 0.598 0.93493 0.7762 0.0
C2448 C 0.59723 0.97974 0.74943 0.0
H2449 H 0.60346 0.00874 0.70588 0.0
C2450 C 0.59447 0.99153 0.76742 0.0
C2451 C 0.60152 0.98602 0.72727 0.0
C2452 C 0.60596 0.97398 0.7077 0.0
C2453 C 0.5945 0.00944 0.76341 0.0
C2454 C 0.59704 0.01564 0.74076 0.0
C2455 C 0.60122 0.00393 0.72316 0.0
C2456 C 0.59353 0.03391 0.73462 0.0
C2457 C 0.59125 0.02155 0.78334 0.0
C2458 C 0.57687 0.04067 0.73808 0.0
C2459 C 0.57317 0.05779 0.73231 0.0
C2460 C 0.58602 0.06848 0.72276 0.0
C2461 C 0.60264 0.06162 0.71879 0.0
C2462 C 0.60634 0.04439 0.72461 0.0
H2463 H 0.59536 0.01562 0.79988 0.0
H2464 H 0.59821 0.03402 0.78104 0.0
H2465 H 0.57716 0.02429 0.78452 0.0
H2466 H 0.56667 0.03266 0.74521 0.0
H2467 H 0.56021 0.06265 0.73543 0.0
H2468 H 0.31482 0.31567 0.00482 0.0
H2469 H 0.28497 0.32258 0.9948 0.0
H2470 H 0.29027 0.37285 0.02646 0.0
H2471 H 0.32043 0.36597 0.03674 0.0
H2472 H 0.25981 0.35471 0.03895 0.0
H2473 H 0.26797 0.35595 0.94451 0.0
H2474 H 0.27721 0.33681 0.95702 0.0
H2475 H 0.28603 0.35773 0.96417 0.0
C2476 C 0.30969 0.32823 0.00966 0.0
C2477 C 0.31997 0.34031 0.02152 0.0
C2478 C 0.29267 0.33221 0.00372 0.0
C2479 C 0.28557 0.34837 0.00942 0.0
C2480 C 0.29564 0.36039 0.02167 0.0
H2481 H 0.17897 0.36052 0.95641 0.0
H2482 H 0.20889 0.36889 0.9659 0.0
C2483 C 0.31279 0.35643 0.02757 0.0
C2484 C 0.2673 0.35203 0.00344 0.0
H2485 H 0.23905 0.34955 0.95842 0.0
C2486 C 0.25527 0.35401 0.02131 0.0
C2487 C 0.26144 0.35147 0.98039 0.0
C2488 C 0.27388 0.35056 0.96041 0.0
C2489 C 0.2374 0.35393 0.01685 0.0
C2490 C 0.23153 0.35154 0.99401 0.0
C2491 C 0.24358 0.35111 0.97596 0.0
C2492 C 0.21325 0.34725 0.98887 0.0
C2493 C 0.22497 0.35573 0.03673 0.0
C2494 C 0.206 0.33218 0.99827 0.0
C2495 C 0.18911 0.32734 0.99279 0.0
C2496 C 0.17911 0.33745 0.97769 0.0
C2497 C 0.18639 0.35251 0.96811 0.0
C2498 C 0.20341 0.35733 0.97357 0.0
H2499 H 0.23089 0.36318 0.05108 0.0
H2500 H 0.2128 0.36226 0.03135 0.0
H2501 H 0.22167 0.34265 0.04336 0.0
H2502 H 0.21352 0.32397 0.00962 0.0
H2503 H 0.18389 0.31564 0.0004 0.0
H2504 H 0.90657 0.06382 0.30307 0.0
H2505 H 0.90353 0.03295 0.29361 0.0
H2506 H 0.90939 0.04484 0.22153 0.0
H2507 H 0.91286 0.07551 0.23085 0.0
H2508 H 0.88176 0.01291 0.26382 0.0
H2509 H 0.95063 0.01305 0.23594 0.0
H2510 H 0.9411 0.03077 0.25173 0.0
H2511 H 0.93725 0.02859 0.22136 0.0
C2512 C 0.90692 0.05985 0.2852 0.0
C2513 C 0.91024 0.07196 0.26772 0.0
C2514 C 0.90516 0.04225 0.27982 0.0
C2515 C 0.90659 0.03664 0.25692 0.0
C2516 C 0.9086 0.0489 0.23934 0.0
H2517 H 0.89487 0.93046 0.2052 0.0
H2518 H 0.89015 0.96136 0.21321 0.0
C2519 C 0.91056 0.0664 0.2447 0.0
C2520 C 0.90759 0.01794 0.25153 0.0
H2521 H 0.93491 0.98724 0.22993 0.0
C2522 C 0.89334 0.00724 0.25639 0.0
C2523 C 0.92283 0.01062 0.24211 0.0
C2524 C 0.93889 0.02129 0.23766 0.0
C2525 C 0.89393 0.98934 0.25195 0.0
C2526 C 0.90907 0.98212 0.24215 0.0
C2527 C 0.92327 0.99286 0.23729 0.0
C2528 C 0.91105 0.96331 0.23794 0.0
C2529 C 0.87857 0.97825 0.25834 0.0
C2530 C 0.92449 0.9543 0.24889 0.0
C2531 C 0.92734 0.93684 0.24415 0.0
C2532 C 0.91677 0.928 0.22834 0.0
C2533 C 0.90318 0.93696 0.21749 0.0
C2534 C 0.90038 0.95454 0.22219 0.0
H2535 H 0.86964 0.98507 0.27029 0.0
H2536 H 0.87123 0.97492 0.24253 0.0
H2537 H 0.88286 0.96597 0.26651 0.0
H2538 H 0.9329 0.96084 0.26105 0.0
H2539 H 0.93787 0.93027 0.25285 0.0
H2540 H 0.32004 0.6377 0.4598 0.0
H2541 H 0.28968 0.63079 0.46868 0.0
H2542 H 0.28501 0.67882 0.50616 0.0
H2543 H 0.31518 0.68562 0.49778 0.0
H2544 H 0.27086 0.65037 0.52928 0.0
H2545 H 0.24781 0.65463 0.43858 0.0
H2546 H 0.26513 0.6397 0.44452 0.0
H2547 H 0.2688 0.66258 0.44726 0.0
C2548 C 0.31249 0.64675 0.46992 0.0
C2549 C 0.31992 0.66224 0.478 0.0
C2550 C 0.29518 0.64281 0.47493 0.0
C2551 C 0.2851 0.65437 0.48792 0.0
C2552 C 0.29259 0.66971 0.49616 0.0
H2553 H 0.18317 0.68708 0.49973 0.0
H2554 H 0.21324 0.67983 0.49136 0.0
C2555 C 0.30982 0.67361 0.49127 0.0
C2556 C 0.26657 0.65103 0.4927 0.0
H2557 H 0.22674 0.6516 0.46728 0.0
C2558 C 0.26117 0.65031 0.51575 0.0
C2559 C 0.25405 0.65099 0.47495 0.0
C2560 C 0.25912 0.65211 0.44992 0.0
C2561 C 0.24354 0.65062 0.5216 0.0
C2562 C 0.23103 0.65137 0.50386 0.0
C2563 C 0.23641 0.651 0.48079 0.0
C2564 C 0.21258 0.65505 0.50876 0.0
C2565 C 0.23849 0.65133 0.54667 0.0
C2566 C 0.20222 0.64347 0.52131 0.0
C2567 C 0.18497 0.64767 0.52633 0.0
C2568 C 0.17788 0.66343 0.51869 0.0
C2569 C 0.18827 0.67485 0.5059 0.0
C2570 C 0.20543 0.6707 0.50101 0.0
H2571 H 0.24986 0.65334 0.55809 0.0
H2572 H 0.22905 0.66194 0.54973 0.0
H2573 H 0.2322 0.63894 0.55159 0.0
H2574 H 0.20744 0.63122 0.52717 0.0
H2575 H 0.17719 0.63858 0.53607 0.0
H2576 H 0.4295 0.06127 0.23203 0.0
H2577 H 0.4212 0.03248 0.24515 0.0
H2578 H 0.36935 0.04046 0.2196 0.0
H2579 H 0.37762 0.06959 0.20621 0.0
H2580 H 0.39183 0.02605 0.27758 0.0
H2581 H 0.3867 0.99198 0.19316 0.0
H2582 H 0.3995 0.01145 0.19618 0.0
H2583 H 0.37632 0.0127 0.19711 0.0
C2584 C 0.41635 0.05691 0.22898 0.0
C2585 C 0.40419 0.06768 0.2181 0.0
C2586 C 0.41163 0.04047 0.23656 0.0
C2587 C 0.39469 0.03442 0.23336 0.0
C2588 C 0.38252 0.04493 0.22209 0.0
H2589 H 0.37793 0.92484 0.27016 0.0
H2590 H 0.36925 0.95447 0.25975 0.0
C2591 C 0.38726 0.06151 0.21446 0.0
C2592 C 0.39008 0.01718 0.24252 0.0
H2593 H 0.38724 0.97477 0.22648 0.0
C2594 C 0.39039 0.01485 0.26645 0.0
C2595 C 0.38804 0.00268 0.22794 0.0
C2596 C 0.38763 0.00466 0.20213 0.0
C2597 C 0.38994 0.99824 0.27615 0.0
C2598 C 0.38945 0.98365 0.26149 0.0
C2599 C 0.38768 0.98602 0.23765 0.0
C2600 C 0.39354 0.9661 0.27011 0.0
C2601 C 0.39081 0.99642 0.30196 0.0
C2602 C 0.41 0.96291 0.27943 0.0
C2603 C 0.415 0.94612 0.28519 0.0
C2604 C 0.40363 0.93216 0.28175 0.0
C2605 C 0.38691 0.9354 0.27313 0.0
C2606 C 0.38195 0.95226 0.26714 0.0
H2607 H 0.3853 0.00799 0.31068 0.0
H2608 H 0.38374 0.9847 0.30789 0.0
H2609 H 0.40457 0.99522 0.30729 0.0
H2610 H 0.41927 0.97336 0.28141 0.0
H2611 H 0.42798 0.94401 0.29174 0.0
H2612 H 0.81721 0.63948 0.04229 0.0
H2613 H 0.78708 0.63133 0.03383 0.0
H2614 H 0.78266 0.67506 0.98795 0.0
H2615 H 0.81259 0.68296 0.99584 0.0
H2616 H 0.75796 0.64925 0.04165 0.0
H2617 H 0.76281 0.63718 0.94853 0.0
H2618 H 0.78171 0.63856 0.96678 0.0
H2619 H 0.77198 0.65792 0.95514 0.0
C2620 C 0.8098 0.64723 0.03025 0.0
C2621 C 0.81724 0.66181 0.01965 0.0
C2622 C 0.79265 0.64254 0.02539 0.0
C2623 C 0.78278 0.65233 0.0098 0.0
C2624 C 0.7902 0.66696 -0.00058 0.0
H2625 H 0.68115 0.68568 0.00387 0.0
H2626 H 0.71074 0.67719 0.01287 0.0
C2627 C 0.80727 0.67158 0.00415 0.0
C2628 C 0.76428 0.64835 0.00554 0.0
H2629 H 0.73451 0.64713 0.96221 0.0
C2630 C 0.75285 0.64834 0.02431 0.0
C2631 C 0.75759 0.64664 0.98299 0.0
C2632 C 0.76923 0.64486 0.96227 0.0
C2633 C 0.73485 0.64835 0.02096 0.0
C2634 C 0.7282 0.64885 0.99827 0.0
C2635 C 0.7396 0.64715 0.97961 0.0
C2636 C 0.70986 0.65322 0.99351 0.0
C2637 C 0.72318 0.64838 0.04177 0.0
C2638 C 0.69967 0.64289 0.97891 0.0
C2639 C 0.68274 0.6479 0.97338 0.0
C2640 C 0.67581 0.66335 0.98232 0.0
C2641 C 0.68607 0.67365 0.99685 0.0
C2642 C 0.70295 0.6687 0.00223 0.0
H2643 H 0.72929 0.64134 0.05634 0.0
H2644 H 0.72099 0.66195 0.04742 0.0
H2645 H 0.71044 0.64234 0.03797 0.0
H2646 H 0.70485 0.63101 0.97174 0.0
H2647 H 0.6751 0.63973 0.96212 0.0
H2648 H 0.11418 0.07237 0.78417 0.0
H2649 H 0.12283 0.04286 0.77304 0.0
H2650 H 0.0719 0.03402 0.7448 0.0
H2651 H 0.06323 0.06323 0.75571 0.0
H2652 H 0.10731 0.01109 0.78645 0.0
H2653 H 0.10457 0.01969 0.69213 0.0
H2654 H 0.10589 0.03774 0.71187 0.0
H2655 H 0.08535 0.02761 0.70597 0.0
C2656 C 0.10487 0.0641 0.77557 0.0
C2657 C 0.08805 0.07009 0.77076 0.0
C2658 C 0.10984 0.04731 0.76917 0.0
C2659 C 0.09812 0.03645 0.75765 0.0
C2660 C 0.08128 0.04237 0.75316 0.0
H2661 H 0.07076 0.93366 0.7496 0.0
H2662 H 0.07826 0.96349 0.75883 0.0
C2663 C 0.0763 0.05902 0.7596 0.0
C2664 C 0.10284 0.01852 0.75123 0.0
H2665 H 0.10049 0.99034 0.70612 0.0
C2666 C 0.10626 0.00658 0.76882 0.0
C2667 C 0.10184 0.01272 0.72818 0.0
C2668 C 0.0994 0.02516 0.70843 0.0
C2669 C 0.10713 0.98876 0.76418 0.0
C2670 C 0.10425 0.98283 0.74147 0.0
C2671 C 0.10244 0.9949 0.72359 0.0
C2672 C 0.10067 0.96439 0.73647 0.0
C2673 C 0.1104 0.97639 0.7838 0.0
C2674 C 0.11053 0.95511 0.72032 0.0
C2675 C 0.10619 0.93796 0.71487 0.0
C2676 C 0.0918 0.93 0.72529 0.0
C2677 C 0.08195 0.9394 0.74132 0.0
C2678 C 0.08632 0.95642 0.7468 0.0
H2679 H 0.1181 0.98267 0.79763 0.0
H2680 H 0.0978 0.97238 0.79133 0.0
H2681 H 0.11733 0.9646 0.77785 0.0
H2682 H 0.12151 0.96115 0.71194 0.0
H2683 H 0.11399 0.931 0.70243 0.0
H2684 H 0.68242 0.36213 0.54515 0.0
H2685 H 0.71184 0.37108 0.53401 0.0
H2686 H 0.71281 0.33104 0.48222 0.0
H2687 H 0.68366 0.3222 0.49301 0.0
H2688 H 0.74112 0.3509 0.53586 0.0
H2689 H 0.7307 0.37261 0.44652 0.0
H2690 H 0.71313 0.37034 0.46687 0.0
H2691 H 0.72099 0.3518 0.45117 0.0
C2692 C 0.6889 0.35538 0.53126 0.0
C2693 C 0.68078 0.34146 0.51996 0.0
C2694 C 0.70563 0.36053 0.52487 0.0
C2695 C 0.71432 0.35199 0.50692 0.0
C2696 C 0.70615 0.33816 0.49563 0.0
H2697 H 0.81174 0.31523 0.48038 0.0
H2698 H 0.78243 0.32358 0.49121 0.0
C2699 C 0.68955 0.33299 0.50202 0.0
C2700 C 0.73256 0.35609 0.50125 0.0
H2701 H 0.75952 0.36112 0.45517 0.0
C2702 C 0.74514 0.35364 0.51835 0.0
C2703 C 0.73783 0.35996 0.4785 0.0
C2704 C 0.72491 0.36402 0.45979 0.0
C2705 C 0.76281 0.3533 0.51283 0.0
C2706 C 0.76793 0.35523 0.48962 0.0
C2707 C 0.75551 0.35935 0.4729 0.0
C2708 C 0.7856 0.35057 0.48209 0.0
C2709 C 0.77583 0.34995 0.53167 0.0
C2710 C 0.79686 0.3629 0.47255 0.0
C2711 C 0.81374 0.35814 0.46623 0.0
C2712 C 0.8194 0.34096 0.46921 0.0
C2713 C 0.80781 0.32858 0.47798 0.0
C2714 C 0.79109 0.33335 0.48432 0.0
H2715 H 0.77074 0.35402 0.54872 0.0
H2716 H 0.77863 0.33585 0.53248 0.0
H2717 H 0.78818 0.35689 0.5283 0.0
H2718 H 0.79273 0.37623 0.47047 0.0
H2719 H 0.82242 0.36793 0.4595 0.0
loop_
_geom_bond_atom_site_label_1
_geom_bond_atom_site_label_2
_geom_bond_distance
_geom_bond_site_symmetry_2
_ccdc_geom_bond_type
In0 O1 2.294 . S
In0 O2 2.326 . S
In0 O6 2.266 . S
In0 O7 2.326 . S
In0 O8 2.266 . S
In0 O9 2.326 . S
In0 O11 2.294 . S
In0 O12 2.326 . S
O1 In0 2.294 . S
O1 C10 1.240 . S
O2 In0 2.326 . S
O2 C10 1.252 . S
C3 O6 1.252 . S
C3 O7 1.260 . S
C4 O11 1.240 . S
C4 O12 1.252 . S
C5 O8 1.252 . S
C5 O9 1.260 . S
O6 In0 2.266 . S
O6 C3 1.252 . S
O7 In0 2.326 . S
O7 C3 1.260 . S
O8 In0 2.266 . S
O8 C5 1.252 . S
O9 In0 2.326 . S
O9 C5 1.260 . S
C10 O1 1.240 . S
C10 O2 1.252 . S
O11 In0 2.294 . S
O11 C4 1.240 . S
O12 In0 2.326 . S
O12 C4 1.252 . S
In13 O14 2.294 . S
In13 O15 2.326 . S
In13 O19 2.266 . S
In13 O20 2.326 . S
In13 O21 2.266 . S
In13 O22 2.326 . S
In13 O24 2.294 . S
In13 O25 2.326 . S
O14 In13 2.294 . S
O14 C23 1.240 . S
O15 In13 2.326 . S
O15 C23 1.252 . S
C16 O19 1.252 . S
C16 O20 1.260 . S
C17 O24 1.240 . S
C17 O25 1.252 . S
C18 O21 1.252 . S
C18 O22 1.260 . S
O19 In13 2.266 . S
O19 C16 1.252 . S
O20 In13 2.326 . S
O20 C16 1.260 . S
O21 In13 2.266 . S
O21 C18 1.252 . S
O22 In13 2.326 . S
O22 C18 1.260 . S
C23 O14 1.240 . S
C23 O15 1.252 . S
O24 In13 2.294 . S
O24 C17 1.240 . S
O25 In13 2.326 . S
O25 C17 1.252 . S
In26 O27 2.294 . S
In26 O28 2.326 . S
In26 O32 2.266 . S
In26 O33 2.326 . S
In26 O34 2.266 . S
In26 O35 2.326 . S
In26 O37 2.294 . S
In26 O38 2.326 . S
O27 In26 2.294 . S
O27 C36 1.240 . S
O28 In26 2.326 . S
O28 C36 1.252 . S
C29 O32 1.252 . S
C29 O33 1.260 . S
C30 O37 1.240 . S
C30 O38 1.252 . S
C31 O34 1.252 . S
C31 O35 1.260 . S
O32 In26 2.266 . S
O32 C29 1.252 . S
O33 In26 2.326 . S
O33 C29 1.260 . S
O34 In26 2.266 . S
O34 C31 1.252 . S
O35 In26 2.326 . S
O35 C31 1.260 . S
C36 O27 1.240 . S
C36 O28 1.252 . S
O37 In26 2.294 . S
O37 C30 1.240 . S
O38 In26 2.326 . S
O38 C30 1.252 . S
In39 O40 2.294 . S
In39 O41 2.326 . S
In39 O45 2.266 . S
In39 O46 2.326 . S
In39 O47 2.266 . S
In39 O48 2.326 . S
In39 O50 2.294 . S
In39 O51 2.326 . S
O40 In39 2.294 . S
O40 C49 1.240 . S
O41 In39 2.326 . S
O41 C49 1.252 . S
C42 O45 1.252 . S
C42 O46 1.260 . S
C43 O50 1.240 1_556 S
C43 O51 1.252 1_556 S
C44 O47 1.252 . S
C44 O48 1.260 . S
O45 In39 2.266 . S
O45 C42 1.252 . S
O46 In39 2.326 . S
O46 C42 1.260 . S
O47 In39 2.266 . S
O47 C44 1.252 . S
O48 In39 2.326 . S
O48 C44 1.260 . S
C49 O40 1.240 . S
C49 O41 1.252 . S
O50 In39 2.294 . S
O50 C43 1.240 1_554 S
O51 In39 2.326 . S
O51 C43 1.252 1_554 S
In52 O53 2.294 . S
In52 O54 2.326 . S
In52 O58 2.266 . S
In52 O59 2.326 . S
In52 O60 2.266 . S
In52 O61 2.326 . S
In52 O63 2.294 . S
In52 O64 2.326 . S
O53 In52 2.294 . S
O53 C62 1.240 . S
O54 In52 2.326 . S
O54 C62 1.252 . S
C55 O58 1.252 . S
C55 O59 1.260 . S
C56 O63 1.240 . S
C56 O64 1.252 . S
C57 O60 1.252 . S
C57 O61 1.260 . S
O58 In52 2.266 . S
O58 C55 1.252 . S
O59 In52 2.326 . S
O59 C55 1.260 . S
O60 In52 2.266 . S
O60 C57 1.252 . S
O61 In52 2.326 . S
O61 C57 1.260 . S
C62 O53 1.240 . S
C62 O54 1.252 . S
O63 In52 2.294 . S
O63 C56 1.240 . S
O64 In52 2.326 . S
O64 C56 1.252 . S
In65 O66 2.294 . S
In65 O67 2.326 . S
In65 O71 2.266 . S
In65 O72 2.326 . S
In65 O73 2.266 . S
In65 O74 2.326 . S
In65 O76 2.294 . S
In65 O77 2.326 . S
O66 In65 2.294 . S
O66 C75 1.240 . S
O67 In65 2.326 . S
O67 C75 1.252 . S
C68 O71 1.252 . S
C68 O72 1.260 . S
C69 O76 1.240 . S
C69 O77 1.252 . S
C70 O73 1.252 . S
C70 O74 1.260 . S
O71 In65 2.266 . S
O71 C68 1.252 . S
O72 In65 2.326 . S
O72 C68 1.260 . S
O73 In65 2.266 . S
O73 C70 1.252 . S
O74 In65 2.326 . S
O74 C70 1.260 . S
C75 O66 1.240 . S
C75 O67 1.252 . S
O76 In65 2.294 . S
O76 C69 1.240 . S
O77 In65 2.326 . S
O77 C69 1.252 . S
In78 O79 2.294 . S
In78 O80 2.326 . S
In78 O84 2.266 . S
In78 O85 2.326 . S
In78 O86 2.266 . S
In78 O87 2.326 . S
In78 O89 2.294 . S
In78 O90 2.326 . S
O79 In78 2.294 . S
O79 C88 1.240 . S
O80 In78 2.326 . S
O80 C88 1.252 . S
C81 O84 1.252 . S
C81 O85 1.260 . S
C82 O89 1.240 . S
C82 O90 1.252 . S
C83 O86 1.252 . S
C83 O87 1.260 . S
O84 In78 2.266 . S
O84 C81 1.252 . S
O85 In78 2.326 . S
O85 C81 1.260 . S
O86 In78 2.266 . S
O86 C83 1.252 . S
O87 In78 2.326 . S
O87 C83 1.260 . S
C88 O79 1.240 . S
C88 O80 1.252 . S
O89 In78 2.294 . S
O89 C82 1.240 . S
O90 In78 2.326 . S
O90 C82 1.252 . S
In91 O92 2.294 . S
In91 O93 2.326 . S
In91 O97 2.266 . S
In91 O98 2.326 . S
In91 O99 2.266 . S
In91 O100 2.326 . S
In91 O102 2.294 . S
In91 O103 2.326 . S
O92 In91 2.294 . S
O92 C101 1.240 1_556 S
O93 In91 2.326 . S
O93 C101 1.252 1_556 S
C94 O97 1.252 . S
C94 O98 1.260 . S
C95 O102 1.240 . S
C95 O103 1.252 . S
C96 O99 1.252 . S
C96 O100 1.260 . S
O97 In91 2.266 . S
O97 C94 1.252 . S
O98 In91 2.326 . S
O98 C94 1.260 . S
O99 In91 2.266 . S
O99 C96 1.252 . S
O100 In91 2.326 . S
O100 C96 1.260 . S
C101 O92 1.240 1_554 S
C101 O93 1.252 1_554 S
O102 In91 2.294 . S
O102 C95 1.240 . S
O103 In91 2.326 . S
O103 C95 1.252 . S
In104 O105 2.294 . S
In104 O106 2.326 . S
In104 O110 2.266 . S
In104 O111 2.326 . S
In104 O112 2.266 . S
In104 O113 2.326 . S
In104 O115 2.294 . S
In104 O116 2.326 . S
O105 In104 2.294 . S
O105 C114 1.240 . S
O106 In104 2.326 . S
O106 C114 1.252 . S
C107 O110 1.252 . S
C107 O111 1.260 . S
C108 O115 1.240 . S
C108 O116 1.252 . S
C109 O112 1.252 . S
C109 O113 1.260 . S
O110 In104 2.266 . S
O110 C107 1.252 . S
O111 In104 2.326 . S
O111 C107 1.260 . S
O112 In104 2.266 . S
O112 C109 1.252 . S
O113 In104 2.326 . S
O113 C109 1.260 . S
C114 O105 1.240 . S
C114 O106 1.252 . S
O115 In104 2.294 . S
O115 C108 1.240 . S
O116 In104 2.326 . S
O116 C108 1.252 . S
In117 O118 2.294 . S
In117 O119 2.326 . S
In117 O123 2.266 . S
In117 O124 2.326 . S
In117 O125 2.266 . S
In117 O126 2.326 . S
In117 O128 2.294 . S
In117 O129 2.326 . S
O118 In117 2.294 . S
O118 C127 1.240 . S
O119 In117 2.326 . S
O119 C127 1.252 . S
C120 O123 1.252 . S
C120 O124 1.260 . S
C121 O128 1.240 . S
C121 O129 1.252 . S
C122 O125 1.252 . S
C122 O126 1.260 . S
O123 In117 2.266 . S
O123 C120 1.252 . S
O124 In117 2.326 . S
O124 C120 1.260 . S
O125 In117 2.266 . S
O125 C122 1.252 . S
O126 In117 2.326 . S
O126 C122 1.260 . S
C127 O118 1.240 . S
C127 O119 1.252 . S
O128 In117 2.294 . S
O128 C121 1.240 . S
O129 In117 2.326 . S
O129 C121 1.252 . S
In130 O131 2.294 . S
In130 O132 2.326 . S
In130 O136 2.266 . S
In130 O137 2.326 . S
In130 O138 2.266 . S
In130 O139 2.326 . S
In130 O141 2.294 . S
In130 O142 2.326 . S
O131 In130 2.294 . S
O131 C140 1.240 . S
O132 In130 2.326 . S
O132 C140 1.252 . S
C133 O136 1.252 . S
C133 O137 1.260 . S
C134 O141 1.240 . S
C134 O142 1.252 . S
C135 O138 1.252 . S
C135 O139 1.260 . S
O136 In130 2.266 . S
O136 C133 1.252 . S
O137 In130 2.326 . S
O137 C133 1.260 . S
O138 In130 2.266 . S
O138 C135 1.252 . S
O139 In130 2.326 . S
O139 C135 1.260 . S
C140 O131 1.240 . S
C140 O132 1.252 . S
O141 In130 2.294 . S
O141 C134 1.240 . S
O142 In130 2.326 . S
O142 C134 1.252 . S
In143 O144 2.294 . S
In143 O145 2.326 . S
In143 O149 2.266 . S
In143 O150 2.326 . S
In143 O151 2.266 . S
In143 O152 2.326 . S
In143 O154 2.294 . S
In143 O155 2.326 . S
O144 In143 2.294 . S
O144 C153 1.240 1_556 S
O145 In143 2.326 . S
O145 C153 1.252 1_556 S
C146 O149 1.252 . S
C146 O150 1.260 . S
C147 O154 1.240 . S
C147 O155 1.252 . S
C148 O151 1.252 . S
C148 O152 1.260 . S
O149 In143 2.266 . S
O149 C146 1.252 . S
O150 In143 2.326 . S
O150 C146 1.260 . S
O151 In143 2.266 . S
O151 C148 1.252 . S
O152 In143 2.326 . S
O152 C148 1.260 . S
C153 O144 1.240 1_554 S
C153 O145 1.252 1_554 S
O154 In143 2.294 . S
O154 C147 1.240 . S
O155 In143 2.326 . S
O155 C147 1.252 . S
In156 O157 2.294 . S
In156 O158 2.326 . S
In156 O162 2.266 . S
In156 O163 2.326 . S
In156 O164 2.266 . S
In156 O165 2.326 . S
In156 O167 2.294 . S
In156 O168 2.326 . S
O157 In156 2.294 . S
O157 C166 1.240 . S
O158 In156 2.326 . S
O158 C166 1.252 . S
C159 O162 1.252 . S
C159 O163 1.260 . S
C160 O167 1.240 . S
C160 O168 1.252 . S
C161 O164 1.252 . S
C161 O165 1.260 . S
O162 In156 2.266 . S
O162 C159 1.252 . S
O163 In156 2.326 . S
O163 C159 1.260 . S
O164 In156 2.266 . S
O164 C161 1.252 . S
O165 In156 2.326 . S
O165 C161 1.260 . S
C166 O157 1.240 . S
C166 O158 1.252 . S
O167 In156 2.294 . S
O167 C160 1.240 . S
O168 In156 2.326 . S
O168 C160 1.252 . S
In169 O170 2.294 . S
In169 O171 2.326 . S
In169 O175 2.266 . S
In169 O176 2.326 . S
In169 O177 2.266 . S
In169 O178 2.326 . S
In169 O180 2.294 . S
In169 O181 2.326 . S
O170 In169 2.294 . S
O170 C179 1.240 . S
O171 In169 2.326 . S
O171 C179 1.252 . S
C172 O175 1.252 . S
C172 O176 1.260 . S
C173 O180 1.240 . S
C173 O181 1.252 . S
C174 O177 1.252 . S
C174 O178 1.260 . S
O175 In169 2.266 . S
O175 C172 1.252 . S
O176 In169 2.326 . S
O176 C172 1.260 . S
O177 In169 2.266 . S
O177 C174 1.252 . S
O178 In169 2.326 . S
O178 C174 1.260 . S
C179 O170 1.240 . S
C179 O171 1.252 . S
O180 In169 2.294 . S
O180 C173 1.240 . S
O181 In169 2.326 . S
O181 C173 1.252 . S
In182 O183 2.294 . S
In182 O184 2.326 . S
In182 O188 2.266 . S
In182 O189 2.326 . S
In182 O190 2.266 . S
In182 O191 2.326 . S
In182 O193 2.294 . S
In182 O194 2.326 . S
O183 In182 2.294 . S
O183 C192 1.240 . S
O184 In182 2.326 . S
O184 C192 1.252 . S
C185 O188 1.252 . S
C185 O189 1.260 . S
C186 O193 1.240 . S
C186 O194 1.252 . S
C187 O190 1.252 . S
C187 O191 1.260 . S
O188 In182 2.266 . S
O188 C185 1.252 . S
O189 In182 2.326 . S
O189 C185 1.260 . S
O190 In182 2.266 . S
O190 C187 1.252 . S
O191 In182 2.326 . S
O191 C187 1.260 . S
C192 O183 1.240 . S
C192 O184 1.252 . S
O193 In182 2.294 . S
O193 C186 1.240 . S
O194 In182 2.326 . S
O194 C186 1.252 . S
In195 O196 2.294 . S
In195 O197 2.326 . S
In195 O201 2.266 . S
In195 O202 2.326 . S
In195 O203 2.266 . S
In195 O204 2.326 . S
In195 O206 2.294 . S
In195 O207 2.326 . S
O196 In195 2.294 . S
O196 C205 1.240 1_554 S
O197 In195 2.326 . S
O197 C205 1.252 1_554 S
C198 O201 1.252 . S
C198 O202 1.260 . S
C199 O206 1.240 . S
C199 O207 1.252 . S
C200 O203 1.252 . S
C200 O204 1.260 . S
O201 In195 2.266 . S
O201 C198 1.252 . S
O202 In195 2.326 . S
O202 C198 1.260 . S
O203 In195 2.266 . S
O203 C200 1.252 . S
O204 In195 2.326 . S
O204 C200 1.260 . S
C205 O196 1.240 1_556 S
C205 O197 1.252 1_556 S
O206 In195 2.294 . S
O206 C199 1.240 . S
O207 In195 2.326 . S
O207 C199 1.252 . S
In208 O209 2.294 . S
In208 O210 2.326 . S
In208 O214 2.266 . S
In208 O215 2.326 . S
In208 O216 2.266 . S
In208 O217 2.326 . S
In208 O219 2.294 . S
In208 O220 2.326 . S
O209 In208 2.294 . S
O209 C218 1.240 . S
O210 In208 2.326 . S
O210 C218 1.252 . S
C211 O214 1.252 . S
C211 O215 1.260 . S
C212 O219 1.240 . S
C212 O220 1.252 . S
C213 O216 1.252 . S
C213 O217 1.260 . S
O214 In208 2.266 . S
O214 C211 1.252 . S
O215 In208 2.326 . S
O215 C211 1.260 . S
O216 In208 2.266 . S
O216 C213 1.252 . S
O217 In208 2.326 . S
O217 C213 1.260 . S
C218 O209 1.240 . S
C218 O210 1.252 . S
O219 In208 2.294 . S
O219 C212 1.240 . S
O220 In208 2.326 . S
O220 C212 1.252 . S
In221 O222 2.294 . S
In221 O223 2.326 . S
In221 O227 2.266 . S
In221 O228 2.326 . S
In221 O229 2.266 . S
In221 O230 2.326 . S
In221 O232 2.294 . S
In221 O233 2.326 . S
O222 In221 2.294 . S
O222 C231 1.240 1_554 S
O223 In221 2.326 . S
O223 C231 1.252 1_554 S
C224 O227 1.252 . S
C224 O228 1.260 . S
C225 O232 1.240 . S
C225 O233 1.252 . S
C226 O229 1.252 . S
C226 O230 1.260 . S
O227 In221 2.266 . S
O227 C224 1.252 . S
O228 In221 2.326 . S
O228 C224 1.260 . S
O229 In221 2.266 . S
O229 C226 1.252 . S
O230 In221 2.326 . S
O230 C226 1.260 . S
C231 O222 1.240 1_556 S
C231 O223 1.252 1_556 S
O232 In221 2.294 . S
O232 C225 1.240 . S
O233 In221 2.326 . S
O233 C225 1.252 . S
In234 O235 2.294 . S
In234 O236 2.326 . S
In234 O240 2.266 . S
In234 O241 2.326 . S
In234 O242 2.266 . S
In234 O243 2.326 . S
In234 O245 2.294 . S
In234 O246 2.326 . S
O235 In234 2.294 . S
O235 C244 1.240 . S
O236 In234 2.326 . S
O236 C244 1.252 . S
C237 O240 1.252 . S
C237 O241 1.260 . S
C238 O245 1.240 . S
C238 O246 1.252 . S
C239 O242 1.252 . S
C239 O243 1.260 . S
O240 In234 2.266 . S
O240 C237 1.252 . S
O241 In234 2.326 . S
O241 C237 1.260 . S
O242 In234 2.266 . S
O242 C239 1.252 . S
O243 In234 2.326 . S
O243 C239 1.260 . S
C244 O235 1.240 . S
C244 O236 1.252 . S
O245 In234 2.294 . S
O245 C238 1.240 . S
O246 In234 2.326 . S
O246 C238 1.252 . S
In247 O248 2.294 . S
In247 O249 2.326 . S
In247 O253 2.266 . S
In247 O254 2.326 . S
In247 O255 2.266 . S
In247 O256 2.326 . S
In247 O258 2.294 . S
In247 O259 2.326 . S
O248 In247 2.294 . S
O248 C257 1.240 . S
O249 In247 2.326 . S
O249 C257 1.252 . S
C250 O253 1.252 . S
C250 O254 1.260 . S
C251 O258 1.240 . S
C251 O259 1.252 . S
C252 O255 1.252 . S
C252 O256 1.260 . S
O253 In247 2.266 . S
O253 C250 1.252 . S
O254 In247 2.326 . S
O254 C250 1.260 . S
O255 In247 2.266 . S
O255 C252 1.252 . S
O256 In247 2.326 . S
O256 C252 1.260 . S
C257 O248 1.240 . S
C257 O249 1.252 . S
O258 In247 2.294 . S
O258 C251 1.240 . S
O259 In247 2.326 . S
O259 C251 1.252 . S
In260 O261 2.294 . S
In260 O262 2.326 . S
In260 O266 2.266 . S
In260 O267 2.326 . S
In260 O268 2.266 . S
In260 O269 2.326 . S
In260 O271 2.294 . S
In260 O272 2.326 . S
O261 In260 2.294 . S
O261 C270 1.240 . S
O262 In260 2.326 . S
O262 C270 1.252 . S
C263 O266 1.252 . S
C263 O267 1.260 . S
C264 O271 1.240 . S
C264 O272 1.252 . S
C265 O268 1.252 . S
C265 O269 1.260 . S
O266 In260 2.266 . S
O266 C263 1.252 . S
O267 In260 2.326 . S
O267 C263 1.260 . S
O268 In260 2.266 . S
O268 C265 1.252 . S
O269 In260 2.326 . S
O269 C265 1.260 . S
C270 O261 1.240 . S
C270 O262 1.252 . S
O271 In260 2.294 . S
O271 C264 1.240 . S
O272 In260 2.326 . S
O272 C264 1.252 . S
In273 O274 2.294 . S
In273 O275 2.326 . S
In273 O279 2.266 . S
In273 O280 2.326 . S
In273 O281 2.266 . S
In273 O282 2.326 . S
In273 O284 2.294 . S
In273 O285 2.326 . S
O274 In273 2.294 . S
O274 C283 1.240 1_556 S
O275 In273 2.326 . S
O275 C283 1.252 1_556 S
C276 O279 1.252 . S
C276 O280 1.260 . S
C277 O284 1.240 . S
C277 O285 1.252 . S
C278 O281 1.252 . S
C278 O282 1.260 . S
O279 In273 2.266 . S
O279 C276 1.252 . S
O280 In273 2.326 . S
O280 C276 1.260 . S
O281 In273 2.266 . S
O281 C278 1.252 . S
O282 In273 2.326 . S
O282 C278 1.260 . S
C283 O274 1.240 1_554 S
C283 O275 1.252 1_554 S
O284 In273 2.294 . S
O284 C277 1.240 . S
O285 In273 2.326 . S
O285 C277 1.252 . S
In286 O287 2.294 . S
In286 O288 2.326 . S
In286 O292 2.266 . S
In286 O293 2.326 . S
In286 O294 2.266 . S
In286 O295 2.326 . S
In286 O297 2.294 . S
In286 O298 2.326 . S
O287 In286 2.294 . S
O287 C296 1.240 . S
O288 In286 2.326 . S
O288 C296 1.252 . S
C289 O292 1.252 . S
C289 O293 1.260 . S
C290 O297 1.240 . S
C290 O298 1.252 . S
C291 O294 1.252 . S
C291 O295 1.260 . S
O292 In286 2.266 . S
O292 C289 1.252 . S
O293 In286 2.326 . S
O293 C289 1.260 . S
O294 In286 2.266 . S
O294 C291 1.252 . S
O295 In286 2.326 . S
O295 C291 1.260 . S
C296 O287 1.240 . S
C296 O288 1.252 . S
O297 In286 2.294 . S
O297 C290 1.240 . S
O298 In286 2.326 . S
O298 C290 1.252 . S
In299 O300 2.294 . S
In299 O301 2.326 . S
In299 O305 2.266 . S
In299 O306 2.326 . S
In299 O307 2.266 . S
In299 O308 2.326 . S
In299 O310 2.294 . S
In299 O311 2.326 . S
O300 In299 2.294 . S
O300 C309 1.240 . S
O301 In299 2.326 . S
O301 C309 1.252 . S
C302 O305 1.252 . S
C302 O306 1.260 . S
C303 O310 1.240 . S
C303 O311 1.252 . S
C304 O307 1.252 . S
C304 O308 1.260 . S
O305 In299 2.266 . S
O305 C302 1.252 . S
O306 In299 2.326 . S
O306 C302 1.260 . S
O307 In299 2.266 . S
O307 C304 1.252 . S
O308 In299 2.326 . S
O308 C304 1.260 . S
C309 O300 1.240 . S
C309 O301 1.252 . S
O310 In299 2.294 . S
O310 C303 1.240 . S
O311 In299 2.326 . S
O311 C303 1.252 . S
In312 O313 2.294 . S
In312 O314 2.326 . S
In312 O318 2.266 . S
In312 O319 2.326 . S
In312 O320 2.266 . S
In312 O321 2.326 . S
In312 O323 2.294 . S
In312 O324 2.326 . S
O313 In312 2.294 . S
O313 C322 1.240 . S
O314 In312 2.326 . S
O314 C322 1.252 . S
C315 O318 1.252 . S
C315 O319 1.260 . S
C316 O323 1.240 . S
C316 O324 1.252 . S
C317 O320 1.252 . S
C317 O321 1.260 . S
O318 In312 2.266 . S
O318 C315 1.252 . S
O319 In312 2.326 . S
O319 C315 1.260 . S
O320 In312 2.266 . S
O320 C317 1.252 . S
O321 In312 2.326 . S
O321 C317 1.260 . S
C322 O313 1.240 . S
C322 O314 1.252 . S
O323 In312 2.294 . S
O323 C316 1.240 . S
O324 In312 2.326 . S
O324 C316 1.252 . S
In325 O326 2.294 . S
In325 O327 2.326 . S
In325 O331 2.266 . S
In325 O332 2.326 . S
In325 O333 2.266 . S
In325 O334 2.326 . S
In325 O336 2.294 . S
In325 O337 2.326 . S
O326 In325 2.294 . S
O326 C335 1.240 1_556 S
O327 In325 2.326 . S
O327 C335 1.252 1_556 S
C328 O331 1.252 . S
C328 O332 1.260 . S
C329 O336 1.240 . S
C329 O337 1.252 . S
C330 O333 1.252 . S
C330 O334 1.260 . S
O331 In325 2.266 . S
O331 C328 1.252 . S
O332 In325 2.326 . S
O332 C328 1.260 . S
O333 In325 2.266 . S
O333 C330 1.252 . S
O334 In325 2.326 . S
O334 C330 1.260 . S
C335 O326 1.240 1_554 S
C335 O327 1.252 1_554 S
O336 In325 2.294 . S
O336 C329 1.240 . S
O337 In325 2.326 . S
O337 C329 1.252 . S
In338 O339 2.294 . S
In338 O340 2.326 . S
In338 O344 2.266 . S
In338 O345 2.326 . S
In338 O346 2.266 . S
In338 O347 2.326 . S
In338 O349 2.294 . S
In338 O350 2.326 . S
O339 In338 2.294 . S
O339 C348 1.240 . S
O340 In338 2.326 . S
O340 C348 1.252 . S
C341 O344 1.252 . S
C341 O345 1.260 . S
C342 O349 1.240 . S
C342 O350 1.252 . S
C343 O346 1.252 . S
C343 O347 1.260 . S
O344 In338 2.266 . S
O344 C341 1.252 . S
O345 In338 2.326 . S
O345 C341 1.260 . S
O346 In338 2.266 . S
O346 C343 1.252 . S
O347 In338 2.326 . S
O347 C343 1.260 . S
C348 O339 1.240 . S
C348 O340 1.252 . S
O349 In338 2.294 . S
O349 C342 1.240 . S
O350 In338 2.326 . S
O350 C342 1.252 . S
In351 O352 2.294 . S
In351 O353 2.326 . S
In351 O357 2.266 . S
In351 O358 2.326 . S
In351 O359 2.266 . S
In351 O360 2.326 . S
In351 O362 2.294 . S
In351 O363 2.326 . S
O352 In351 2.294 . S
O352 C361 1.240 . S
O353 In351 2.326 . S
O353 C361 1.252 . S
C354 O357 1.252 . S
C354 O358 1.260 . S
C355 O362 1.240 . S
C355 O363 1.252 . S
C356 O359 1.252 . S
C356 O360 1.260 . S
O357 In351 2.266 . S
O357 C354 1.252 . S
O358 In351 2.326 . S
O358 C354 1.260 . S
O359 In351 2.266 . S
O359 C356 1.252 . S
O360 In351 2.326 . S
O360 C356 1.260 . S
C361 O352 1.240 . S
C361 O353 1.252 . S
O362 In351 2.294 . S
O362 C355 1.240 . S
O363 In351 2.326 . S
O363 C355 1.252 . S
In364 O365 2.294 . S
In364 O366 2.326 . S
In364 O370 2.266 . S
In364 O371 2.326 . S
In364 O372 2.266 . S
In364 O373 2.326 . S
In364 O375 2.294 . S
In364 O376 2.326 . S
O365 In364 2.294 . S
O365 C374 1.240 . S
O366 In364 2.326 . S
O366 C374 1.252 . S
C367 O370 1.252 . S
C367 O371 1.260 . S
C368 O375 1.240 . S
C368 O376 1.252 . S
C369 O372 1.252 . S
C369 O373 1.260 . S
O370 In364 2.266 . S
O370 C367 1.252 . S
O371 In364 2.326 . S
O371 C367 1.260 . S
O372 In364 2.266 . S
O372 C369 1.252 . S
O373 In364 2.326 . S
O373 C369 1.260 . S
C374 O365 1.240 . S
C374 O366 1.252 . S
O375 In364 2.294 . S
O375 C368 1.240 . S
O376 In364 2.326 . S
O376 C368 1.252 . S
In377 O378 2.294 . S
In377 O379 2.326 . S
In377 O383 2.266 . S
In377 O384 2.326 . S
In377 O385 2.266 . S
In377 O386 2.326 . S
In377 O388 2.294 . S
In377 O389 2.326 . S
O378 In377 2.294 . S
O378 C387 1.240 1_554 S
O379 In377 2.326 . S
O379 C387 1.252 1_554 S
C380 O383 1.252 . S
C380 O384 1.260 . S
C381 O388 1.240 . S
C381 O389 1.252 . S
C382 O385 1.252 . S
C382 O386 1.260 . S
O383 In377 2.266 . S
O383 C380 1.252 . S
O384 In377 2.326 . S
O384 C380 1.260 . S
O385 In377 2.266 . S
O385 C382 1.252 . S
O386 In377 2.326 . S
O386 C382 1.260 . S
C387 O378 1.240 1_556 S
C387 O379 1.252 1_556 S
O388 In377 2.294 . S
O388 C381 1.240 . S
O389 In377 2.326 . S
O389 C381 1.252 . S
In390 O391 2.294 . S
In390 O392 2.326 . S
In390 O396 2.266 . S
In390 O397 2.326 . S
In390 O398 2.266 . S
In390 O399 2.326 . S
In390 O401 2.294 . S
In390 O402 2.326 . S
O391 In390 2.294 . S
O391 C400 1.240 . S
O392 In390 2.326 . S
O392 C400 1.252 . S
C393 O396 1.252 . S
C393 O397 1.260 . S
C394 O401 1.240 . S
C394 O402 1.252 . S
C395 O398 1.252 . S
C395 O399 1.260 . S
O396 In390 2.266 . S
O396 C393 1.252 . S
O397 In390 2.326 . S
O397 C393 1.260 . S
O398 In390 2.266 . S
O398 C395 1.252 . S
O399 In390 2.326 . S
O399 C395 1.260 . S
C400 O391 1.240 . S
C400 O392 1.252 . S
O401 In390 2.294 . S
O401 C394 1.240 . S
O402 In390 2.326 . S
O402 C394 1.252 . S
In403 O404 2.294 . S
In403 O405 2.326 . S
In403 O409 2.266 . S
In403 O410 2.326 . S
In403 O411 2.266 . S
In403 O412 2.326 . S
In403 O414 2.294 . S
In403 O415 2.326 . S
O404 In403 2.294 . S
O404 C413 1.240 . S
O405 In403 2.326 . S
O405 C413 1.252 . S
C406 O409 1.252 . S
C406 O410 1.260 . S
C407 O414 1.240 . S
C407 O415 1.252 . S
C408 O411 1.252 . S
C408 O412 1.260 . S
O409 In403 2.266 . S
O409 C406 1.252 . S
O410 In403 2.326 . S
O410 C406 1.260 . S
O411 In403 2.266 . S
O411 C408 1.252 . S
O412 In403 2.326 . S
O412 C408 1.260 . S
C413 O404 1.240 . S
C413 O405 1.252 . S
O414 In403 2.294 . S
O414 C407 1.240 . S
O415 In403 2.326 . S
O415 C407 1.252 . S
H416 C424 0.929 . S
H417 C426 0.930 . S
H418 C428 0.930 . S
H419 C431 0.929 . S
H420 C434 0.930 . S
H421 C436 0.960 . S
H422 C436 0.960 . S
H423 C436 0.960 . S
C424 H416 0.929 . S
C424 C425 1.377 . S
C424 C426 1.384 . S
C425 C424 1.377 . S
C425 C431 1.390 . S
C426 H417 0.930 . S
C426 C424 1.384 . S
C426 C427 1.372 . S
C427 C426 1.372 . S
C427 C428 1.400 . S
C427 C432 1.490 . S
C428 H418 0.930 . S
C428 C427 1.400 . S
C428 C431 1.386 . S
H429 C445 0.930 . S
H430 C446 0.931 . S
C431 H419 0.929 . S
C431 C425 1.390 . S
C431 C428 1.386 . S
C432 C427 1.490 . S
C432 C434 1.395 . S
C432 C435 1.403 . S
H433 C439 0.930 . S
C434 H420 0.930 . S
C434 C432 1.395 . S
C434 C437 1.403 . S
C435 C432 1.403 . S
C435 C436 1.524 . S
C435 C439 1.400 . S
C436 H421 0.960 . S
C436 H422 0.960 . S
C436 H423 0.960 . S
C436 C435 1.524 . S
C437 C434 1.403 . S
C437 C438 1.392 . S
C437 C441 1.495 . S
C438 C437 1.392 . S
C438 C439 1.385 . S
C438 C440 1.478 . S
C439 H433 0.930 . S
C439 C435 1.400 . S
C439 C438 1.385 . S
C440 C438 1.478 . S
C440 C442 1.381 . S
C440 C446 1.383 . S
C441 C437 1.495 . S
C441 H447 0.959 . S
C441 H448 0.961 . S
C441 H449 0.960 . S
C442 C440 1.381 . S
C442 C443 1.394 . S
C442 H450 0.930 . S
C443 C442 1.394 . S
C443 C444 1.383 . S
C443 H451 0.929 . S
C444 C443 1.383 . S
C444 C445 1.377 . S
C445 H429 0.930 . S
C445 C444 1.377 . S
C445 C446 1.379 . S
C446 H430 0.931 . S
C446 C440 1.383 . S
C446 C445 1.379 . S
H447 C441 0.959 . S
H448 C441 0.961 . S
H449 C441 0.960 . S
H450 C442 0.930 . S
H451 C443 0.929 . S
H452 C460 0.929 . S
H453 C462 0.930 . S
H454 C464 0.930 . S
H455 C467 0.929 . S
H456 C470 0.930 . S
H457 C472 0.960 . S
H458 C472 0.960 . S
H459 C472 0.960 . S
C460 H452 0.929 . S
C460 C461 1.377 . S
C460 C462 1.384 . S
C461 C460 1.377 . S
C461 C467 1.390 . S
C462 H453 0.930 . S
C462 C460 1.384 . S
C462 C463 1.372 . S
C463 C462 1.372 . S
C463 C464 1.400 . S
C463 C468 1.490 . S
C464 H454 0.930 . S
C464 C463 1.400 . S
C464 C467 1.386 . S
H465 C481 0.930 . S
H466 C482 0.931 . S
C467 H455 0.929 . S
C467 C461 1.390 . S
C467 C464 1.386 . S
C468 C463 1.490 . S
C468 C470 1.395 . S
C468 C471 1.403 . S
H469 C475 0.930 . S
C470 H456 0.930 . S
C470 C468 1.395 . S
C470 C473 1.403 . S
C471 C468 1.403 . S
C471 C472 1.524 . S
C471 C475 1.400 . S
C472 H457 0.960 . S
C472 H458 0.960 . S
C472 H459 0.960 . S
C472 C471 1.524 . S
C473 C470 1.403 . S
C473 C474 1.392 . S
C473 C477 1.495 . S
C474 C473 1.392 . S
C474 C475 1.385 . S
C474 C476 1.478 . S
C475 H469 0.930 . S
C475 C471 1.400 . S
C475 C474 1.385 . S
C476 C474 1.478 . S
C476 C478 1.381 . S
C476 C482 1.383 . S
C477 C473 1.495 . S
C477 H483 0.959 . S
C477 H484 0.961 . S
C477 H485 0.960 . S
C478 C476 1.381 . S
C478 C479 1.394 . S
C478 H486 0.930 . S
C479 C478 1.394 . S
C479 C480 1.383 . S
C479 H487 0.929 . S
C480 C479 1.383 . S
C480 C481 1.377 . S
C481 H465 0.930 . S
C481 C480 1.377 . S
C481 C482 1.379 . S
C482 H466 0.931 . S
C482 C476 1.383 . S
C482 C481 1.379 . S
H483 C477 0.959 . S
H484 C477 0.961 . S
H485 C477 0.960 . S
H486 C478 0.930 . S
H487 C479 0.929 . S
H488 C496 0.929 . S
H489 C498 0.930 . S
H490 C500 0.930 . S
H491 C503 0.929 . S
H492 C506 0.930 . S
H493 C508 0.960 . S
H494 C508 0.960 . S
H495 C508 0.960 . S
C496 H488 0.929 . S
C496 C497 1.377 . S
C496 C498 1.384 . S
C497 C496 1.377 . S
C497 C503 1.390 . S
C498 H489 0.930 . S
C498 C496 1.384 . S
C498 C499 1.372 . S
C499 C498 1.372 . S
C499 C500 1.400 . S
C499 C504 1.490 . S
C500 H490 0.930 . S
C500 C499 1.400 . S
C500 C503 1.386 . S
H501 C517 0.930 . S
H502 C518 0.931 . S
C503 H491 0.929 . S
C503 C497 1.390 . S
C503 C500 1.386 . S
C504 C499 1.490 . S
C504 C506 1.395 . S
C504 C507 1.403 . S
H505 C511 0.930 . S
C506 H492 0.930 . S
C506 C504 1.395 . S
C506 C509 1.403 . S
C507 C504 1.403 . S
C507 C508 1.524 . S
C507 C511 1.400 . S
C508 H493 0.960 . S
C508 H494 0.960 . S
C508 H495 0.960 . S
C508 C507 1.524 . S
C509 C506 1.403 . S
C509 C510 1.392 . S
C509 C513 1.495 . S
C510 C509 1.392 . S
C510 C511 1.385 . S
C510 C512 1.478 . S
C511 H505 0.930 . S
C511 C507 1.400 . S
C511 C510 1.385 . S
C512 C510 1.478 . S
C512 C514 1.381 . S
C512 C518 1.383 . S
C513 C509 1.495 . S
C513 H519 0.959 . S
C513 H520 0.961 . S
C513 H521 0.960 . S
C514 C512 1.381 . S
C514 C515 1.394 . S
C514 H522 0.930 . S
C515 C514 1.394 . S
C515 C516 1.383 . S
C515 H523 0.929 . S
C516 C515 1.383 . S
C516 C517 1.377 . S
C517 H501 0.930 . S
C517 C516 1.377 . S
C517 C518 1.379 . S
C518 H502 0.931 . S
C518 C512 1.383 . S
C518 C517 1.379 . S
H519 C513 0.959 . S
H520 C513 0.961 . S
H521 C513 0.960 . S
H522 C514 0.930 . S
H523 C515 0.929 . S
H524 C532 0.929 . S
H525 C534 0.930 . S
H526 C536 0.930 . S
H527 C539 0.929 . S
H528 C542 0.930 . S
H529 C544 0.960 . S
H530 C544 0.960 . S
H531 C544 0.960 . S
C532 H524 0.929 . S
C532 C533 1.377 . S
C532 C534 1.384 . S
C533 C532 1.377 . S
C533 C539 1.390 . S
C534 H525 0.930 . S
C534 C532 1.384 . S
C534 C535 1.372 . S
C535 C534 1.372 . S
C535 C536 1.400 . S
C535 C540 1.490 . S
C536 H526 0.930 . S
C536 C535 1.400 . S
C536 C539 1.386 . S
H537 C553 0.930 . S
H538 C554 0.931 . S
C539 H527 0.929 . S
C539 C533 1.390 . S
C539 C536 1.386 . S
C540 C535 1.490 . S
C540 C542 1.395 . S
C540 C543 1.403 . S
H541 C547 0.930 . S
C542 H528 0.930 . S
C542 C540 1.395 . S
C542 C545 1.403 . S
C543 C540 1.403 . S
C543 C544 1.524 . S
C543 C547 1.400 . S
C544 H529 0.960 . S
C544 H530 0.960 . S
C544 H531 0.960 . S
C544 C543 1.524 . S
C545 C542 1.403 . S
C545 C546 1.392 . S
C545 C549 1.495 . S
C546 C545 1.392 . S
C546 C547 1.385 . S
C546 C548 1.478 . S
C547 H541 0.930 . S
C547 C543 1.400 . S
C547 C546 1.385 . S
C548 C546 1.478 . S
C548 C550 1.381 . S
C548 C554 1.383 . S
C549 C545 1.495 . S
C549 H555 0.959 . S
C549 H556 0.961 . S
C549 H557 0.960 . S
C550 C548 1.381 . S
C550 C551 1.394 . S
C550 H558 0.930 . S
C551 C550 1.394 . S
C551 C552 1.383 . S
C551 H559 0.929 . S
C552 C551 1.383 . S
C552 C553 1.377 . S
C553 H537 0.930 . S
C553 C552 1.377 . S
C553 C554 1.379 . S
C554 H538 0.931 . S
C554 C548 1.383 . S
C554 C553 1.379 . S
H555 C549 0.959 . S
H556 C549 0.961 . S
H557 C549 0.960 . S
H558 C550 0.930 . S
H559 C551 0.929 . S
H560 C568 0.929 . S
H561 C570 0.930 . S
H562 C572 0.930 . S
H563 C575 0.929 . S
H564 C578 0.930 . S
H565 C580 0.960 . S
H566 C580 0.960 . S
H567 C580 0.960 . S
C568 H560 0.929 . S
C568 C569 1.377 . S
C568 C570 1.384 . S
C569 C568 1.377 . S
C569 C575 1.390 . S
C570 H561 0.930 . S
C570 C568 1.384 . S
C570 C571 1.372 . S
C571 C570 1.372 . S
C571 C572 1.400 . S
C571 C576 1.490 . S
C572 H562 0.930 . S
C572 C571 1.400 . S
C572 C575 1.386 . S
H573 C589 0.930 . S
H574 C590 0.931 . S
C575 H563 0.929 . S
C575 C569 1.390 . S
C575 C572 1.386 . S
C576 C571 1.490 . S
C576 C578 1.395 . S
C576 C579 1.403 . S
H577 C583 0.930 . S
C578 H564 0.930 . S
C578 C576 1.395 . S
C578 C581 1.403 . S
C579 C576 1.403 . S
C579 C580 1.524 . S
C579 C583 1.400 . S
C580 H565 0.960 . S
C580 H566 0.960 . S
C580 H567 0.960 . S
C580 C579 1.524 . S
C581 C578 1.403 . S
C581 C582 1.392 . S
C581 C585 1.495 . S
C582 C581 1.392 . S
C582 C583 1.385 . S
C582 C584 1.478 . S
C583 H577 0.930 . S
C583 C579 1.400 . S
C583 C582 1.385 . S
C584 C582 1.478 . S
C584 C586 1.381 . S
C584 C590 1.383 . S
C585 C581 1.495 . S
C585 H591 0.959 . S
C585 H592 0.961 . S
C585 H593 0.960 . S
C586 C584 1.381 . S
C586 C587 1.394 . S
C586 H594 0.930 . S
C587 C586 1.394 . S
C587 C588 1.383 . S
C587 H595 0.929 . S
C588 C587 1.383 . S
C588 C589 1.377 . S
C589 H573 0.930 . S
C589 C588 1.377 . S
C589 C590 1.379 . S
C590 H574 0.931 . S
C590 C584 1.383 . S
C590 C589 1.379 . S
H591 C585 0.959 . S
H592 C585 0.961 . S
H593 C585 0.960 . S
H594 C586 0.930 . S
H595 C587 0.929 . S
H596 C604 0.929 . S
H597 C606 0.930 . S
H598 C608 0.930 . S
H599 C611 0.929 . S
H600 C614 0.930 . S
H601 C616 0.960 . S
H602 C616 0.960 . S
H603 C616 0.960 . S
C604 H596 0.929 . S
C604 C605 1.377 . S
C604 C606 1.384 . S
C605 C604 1.377 . S
C605 C611 1.390 . S
C606 H597 0.930 . S
C606 C604 1.384 . S
C606 C607 1.372 . S
C607 C606 1.372 . S
C607 C608 1.400 . S
C607 C612 1.490 . S
C608 H598 0.930 . S
C608 C607 1.400 . S
C608 C611 1.386 . S
H609 C625 0.930 . S
H610 C626 0.931 . S
C611 H599 0.929 . S
C611 C605 1.390 . S
C611 C608 1.386 . S
C612 C607 1.490 . S
C612 C614 1.395 . S
C612 C615 1.403 . S
H613 C619 0.930 . S
C614 H600 0.930 . S
C614 C612 1.395 . S
C614 C617 1.403 . S
C615 C612 1.403 . S
C615 C616 1.524 . S
C615 C619 1.400 . S
C616 H601 0.960 . S
C616 H602 0.960 . S
C616 H603 0.960 . S
C616 C615 1.524 . S
C617 C614 1.403 . S
C617 C618 1.392 . S
C617 C621 1.495 . S
C618 C617 1.392 . S
C618 C619 1.385 . S
C618 C620 1.478 . S
C619 H613 0.930 . S
C619 C615 1.400 . S
C619 C618 1.385 . S
C620 C618 1.478 . S
C620 C622 1.381 . S
C620 C626 1.383 . S
C621 C617 1.495 . S
C621 H627 0.959 . S
C621 H628 0.961 . S
C621 H629 0.960 . S
C622 C620 1.381 . S
C622 C623 1.394 . S
C622 H630 0.930 . S
C623 C622 1.394 . S
C623 C624 1.383 . S
C623 H631 0.929 . S
C624 C623 1.383 . S
C624 C625 1.377 . S
C625 H609 0.930 . S
C625 C624 1.377 . S
C625 C626 1.379 . S
C626 H610 0.931 . S
C626 C620 1.383 . S
C626 C625 1.379 . S
H627 C621 0.959 . S
H628 C621 0.961 . S
H629 C621 0.960 . S
H630 C622 0.930 . S
H631 C623 0.929 . S
H632 C640 0.929 . S
H633 C642 0.930 . S
H634 C644 0.930 . S
H635 C647 0.929 . S
H636 C650 0.930 . S
H637 C652 0.960 . S
H638 C652 0.960 . S
H639 C652 0.960 . S
C640 H632 0.929 . S
C640 C641 1.377 . S
C640 C642 1.384 . S
C641 C640 1.377 . S
C641 C647 1.390 . S
C642 H633 0.930 . S
C642 C640 1.384 . S
C642 C643 1.372 . S
C643 C642 1.372 . S
C643 C644 1.400 . S
C643 C648 1.490 . S
C644 H634 0.930 . S
C644 C643 1.400 . S
C644 C647 1.386 . S
H645 C661 0.930 . S
H646 C662 0.931 . S
C647 H635 0.929 . S
C647 C641 1.390 . S
C647 C644 1.386 . S
C648 C643 1.490 . S
C648 C650 1.395 . S
C648 C651 1.403 . S
H649 C655 0.930 . S
C650 H636 0.930 . S
C650 C648 1.395 . S
C650 C653 1.403 . S
C651 C648 1.403 . S
C651 C652 1.524 . S
C651 C655 1.400 . S
C652 H637 0.960 . S
C652 H638 0.960 . S
C652 H639 0.960 . S
C652 C651 1.524 . S
C653 C650 1.403 . S
C653 C654 1.392 . S
C653 C657 1.495 . S
C654 C653 1.392 . S
C654 C655 1.385 . S
C654 C656 1.478 . S
C655 H649 0.930 . S
C655 C651 1.400 . S
C655 C654 1.385 . S
C656 C654 1.478 . S
C656 C658 1.381 . S
C656 C662 1.383 . S
C657 C653 1.495 . S
C657 H663 0.959 . S
C657 H664 0.961 . S
C657 H665 0.960 . S
C658 C656 1.381 . S
C658 C659 1.394 . S
C658 H666 0.930 . S
C659 C658 1.394 . S
C659 C660 1.383 . S
C659 H667 0.929 . S
C660 C659 1.383 . S
C660 C661 1.377 . S
C661 H645 0.930 . S
C661 C660 1.377 . S
C661 C662 1.379 . S
C662 H646 0.931 . S
C662 C656 1.383 . S
C662 C661 1.379 . S
H663 C657 0.959 . S
H664 C657 0.961 . S
H665 C657 0.960 . S
H666 C658 0.930 . S
H667 C659 0.929 . S
H668 C676 0.929 . S
H669 C678 0.930 . S
H670 C680 0.930 . S
H671 C683 0.929 . S
H672 C686 0.930 . S
H673 C688 0.960 . S
H674 C688 0.960 . S
H675 C688 0.960 . S
C676 H668 0.929 . S
C676 C677 1.377 . S
C676 C678 1.384 . S
C677 C676 1.377 . S
C677 C683 1.390 . S
C678 H669 0.930 . S
C678 C676 1.384 . S
C678 C679 1.372 . S
C679 C678 1.372 . S
C679 C680 1.400 . S
C679 C684 1.490 . S
C680 H670 0.930 . S
C680 C679 1.400 . S
C680 C683 1.386 . S
H681 C697 0.930 . S
H682 C698 0.931 . S
C683 H671 0.929 . S
C683 C677 1.390 . S
C683 C680 1.386 . S
C684 C679 1.490 . S
C684 C686 1.395 . S
C684 C687 1.403 . S
H685 C691 0.930 . S
C686 H672 0.930 . S
C686 C684 1.395 . S
C686 C689 1.403 . S
C687 C684 1.403 . S
C687 C688 1.524 . S
C687 C691 1.400 . S
C688 H673 0.960 . S
C688 H674 0.960 . S
C688 H675 0.960 . S
C688 C687 1.524 . S
C689 C686 1.403 . S
C689 C690 1.392 . S
C689 C693 1.495 . S
C690 C689 1.392 . S
C690 C691 1.385 . S
C690 C692 1.478 . S
C691 H685 0.930 . S
C691 C687 1.400 . S
C691 C690 1.385 . S
C692 C690 1.478 . S
C692 C694 1.381 . S
C692 C698 1.383 . S
C693 C689 1.495 . S
C693 H699 0.959 . S
C693 H700 0.961 . S
C693 H701 0.960 . S
C694 C692 1.381 . S
C694 C695 1.394 . S
C694 H702 0.930 . S
C695 C694 1.394 . S
C695 C696 1.383 . S
C695 H703 0.929 . S
C696 C695 1.383 . S
C696 C697 1.377 . S
C697 H681 0.930 . S
C697 C696 1.377 . S
C697 C698 1.379 . S
C698 H682 0.931 . S
C698 C692 1.383 . S
C698 C697 1.379 . S
H699 C693 0.959 . S
H700 C693 0.961 . S
H701 C693 0.960 . S
H702 C694 0.930 . S
H703 C695 0.929 . S
H704 C712 0.929 . S
H705 C714 0.930 . S
H706 C716 0.930 . S
H707 C719 0.929 . S
H708 C722 0.930 . S
H709 C724 0.960 . S
H710 C724 0.960 . S
H711 C724 0.960 . S
C712 H704 0.929 . S
C712 C713 1.377 . S
C712 C714 1.384 . S
C713 C712 1.377 . S
C713 C719 1.390 . S
C714 H705 0.930 . S
C714 C712 1.384 . S
C714 C715 1.372 . S
C715 C714 1.372 . S
C715 C716 1.400 . S
C715 C720 1.490 . S
C716 H706 0.930 . S
C716 C715 1.400 . S
C716 C719 1.386 . S
H717 C733 0.930 . S
H718 C734 0.931 . S
C719 H707 0.929 . S
C719 C713 1.390 . S
C719 C716 1.386 . S
C720 C715 1.490 . S
C720 C722 1.395 . S
C720 C723 1.403 . S
H721 C727 0.930 . S
C722 H708 0.930 . S
C722 C720 1.395 . S
C722 C725 1.403 . S
C723 C720 1.403 . S
C723 C724 1.524 . S
C723 C727 1.400 . S
C724 H709 0.960 . S
C724 H710 0.960 . S
C724 H711 0.960 . S
C724 C723 1.524 . S
C725 C722 1.403 . S
C725 C726 1.392 . S
C725 C729 1.495 . S
C726 C725 1.392 . S
C726 C727 1.385 . S
C726 C728 1.478 . S
C727 H721 0.930 . S
C727 C723 1.400 . S
C727 C726 1.385 . S
C728 C726 1.478 . S
C728 C730 1.381 . S
C728 C734 1.383 . S
C729 C725 1.495 . S
C729 H735 0.959 . S
C729 H736 0.961 . S
C729 H737 0.960 . S
C730 C728 1.381 . S
C730 C731 1.394 . S
C730 H738 0.930 . S
C731 C730 1.394 . S
C731 C732 1.383 . S
C731 H739 0.929 . S
C732 C731 1.383 . S
C732 C733 1.377 . S
C733 H717 0.930 . S
C733 C732 1.377 . S
C733 C734 1.379 . S
C734 H718 0.931 . S
C734 C728 1.383 . S
C734 C733 1.379 . S
H735 C729 0.959 . S
H736 C729 0.961 . S
H737 C729 0.960 . S
H738 C730 0.930 . S
H739 C731 0.929 . S
H740 C748 0.929 . S
H741 C750 0.930 . S
H742 C752 0.930 . S
H743 C755 0.929 . S
H744 C758 0.930 . S
H745 C760 0.960 . S
H746 C760 0.960 . S
H747 C760 0.960 . S
C748 H740 0.929 . S
C748 C749 1.377 . S
C748 C750 1.384 . S
C749 C748 1.377 . S
C749 C755 1.390 . S
C750 H741 0.930 . S
C750 C748 1.384 . S
C750 C751 1.372 . S
C751 C750 1.372 . S
C751 C752 1.400 . S
C751 C756 1.490 . S
C752 H742 0.930 . S
C752 C751 1.400 . S
C752 C755 1.386 . S
H753 C769 0.930 . S
H754 C770 0.931 . S
C755 H743 0.929 . S
C755 C749 1.390 . S
C755 C752 1.386 . S
C756 C751 1.490 . S
C756 C758 1.395 . S
C756 C759 1.403 . S
H757 C763 0.930 . S
C758 H744 0.930 . S
C758 C756 1.395 . S
C758 C761 1.403 . S
C759 C756 1.403 . S
C759 C760 1.524 . S
C759 C763 1.400 . S
C760 H745 0.960 . S
C760 H746 0.960 . S
C760 H747 0.960 . S
C760 C759 1.524 . S
C761 C758 1.403 . S
C761 C762 1.392 . S
C761 C765 1.495 . S
C762 C761 1.392 . S
C762 C763 1.385 . S
C762 C764 1.478 . S
C763 H757 0.930 . S
C763 C759 1.400 . S
C763 C762 1.385 . S
C764 C762 1.478 . S
C764 C766 1.381 . S
C764 C770 1.383 . S
C765 C761 1.495 . S
C765 H771 0.959 . S
C765 H772 0.961 . S
C765 H773 0.960 . S
C766 C764 1.381 . S
C766 C767 1.394 . S
C766 H774 0.930 . S
C767 C766 1.394 . S
C767 C768 1.383 . S
C767 H775 0.929 . S
C768 C767 1.383 . S
C768 C769 1.377 . S
C769 H753 0.930 . S
C769 C768 1.377 . S
C769 C770 1.379 . S
C770 H754 0.931 . S
C770 C764 1.383 . S
C770 C769 1.379 . S
H771 C765 0.959 . S
H772 C765 0.961 . S
H773 C765 0.960 . S
H774 C766 0.930 . S
H775 C767 0.929 . S
H776 C784 0.929 . S
H777 C786 0.930 . S
H778 C788 0.930 . S
H779 C791 0.929 . S
H780 C794 0.930 . S
H781 C796 0.960 . S
H782 C796 0.960 . S
H783 C796 0.960 . S
C784 H776 0.929 . S
C784 C785 1.377 . S
C784 C786 1.384 . S
C785 C784 1.377 . S
C785 C791 1.390 . S
C786 H777 0.930 . S
C786 C784 1.384 . S
C786 C787 1.372 . S
C787 C786 1.372 . S
C787 C788 1.400 . S
C787 C792 1.490 . S
C788 H778 0.930 . S
C788 C787 1.400 . S
C788 C791 1.386 . S
H789 C805 0.930 . S
H790 C806 0.931 . S
C791 H779 0.929 . S
C791 C785 1.390 . S
C791 C788 1.386 . S
C792 C787 1.490 . S
C792 C794 1.395 . S
C792 C795 1.403 . S
H793 C799 0.930 . S
C794 H780 0.930 . S
C794 C792 1.395 . S
C794 C797 1.403 . S
C795 C792 1.403 . S
C795 C796 1.524 . S
C795 C799 1.400 . S
C796 H781 0.960 . S
C796 H782 0.960 . S
C796 H783 0.960 . S
C796 C795 1.524 . S
C797 C794 1.403 . S
C797 C798 1.392 . S
C797 C801 1.495 . S
C798 C797 1.392 . S
C798 C799 1.385 . S
C798 C800 1.478 . S
C799 H793 0.930 . S
C799 C795 1.400 . S
C799 C798 1.385 . S
C800 C798 1.478 . S
C800 C802 1.381 . S
C800 C806 1.383 . S
C801 C797 1.495 . S
C801 H807 0.959 . S
C801 H808 0.961 . S
C801 H809 0.960 . S
C802 C800 1.381 . S
C802 C803 1.394 . S
C802 H810 0.930 . S
C803 C802 1.394 . S
C803 C804 1.383 . S
C803 H811 0.929 . S
C804 C803 1.383 . S
C804 C805 1.377 . S
C805 H789 0.930 . S
C805 C804 1.377 . S
C805 C806 1.379 . S
C806 H790 0.931 . S
C806 C800 1.383 . S
C806 C805 1.379 . S
H807 C801 0.959 . S
H808 C801 0.961 . S
H809 C801 0.960 . S
H810 C802 0.930 . S
H811 C803 0.929 . S
H812 C820 0.929 . S
H813 C822 0.930 . S
H814 C824 0.930 . S
H815 C827 0.929 . S
H816 C830 0.930 . S
H817 C832 0.960 . S
H818 C832 0.960 . S
H819 C832 0.960 . S
C820 H812 0.929 . S
C820 C821 1.377 . S
C820 C822 1.384 . S
C821 C820 1.377 . S
C821 C827 1.390 . S
C822 H813 0.930 . S
C822 C820 1.384 . S
C822 C823 1.372 . S
C823 C822 1.372 . S
C823 C824 1.400 . S
C823 C828 1.490 . S
C824 H814 0.930 . S
C824 C823 1.400 . S
C824 C827 1.386 . S
H825 C841 0.930 . S
H826 C842 0.931 . S
C827 H815 0.929 . S
C827 C821 1.390 . S
C827 C824 1.386 . S
C828 C823 1.490 . S
C828 C830 1.395 . S
C828 C831 1.403 . S
H829 C835 0.930 . S
C830 H816 0.930 . S
C830 C828 1.395 . S
C830 C833 1.403 . S
C831 C828 1.403 . S
C831 C832 1.524 . S
C831 C835 1.400 . S
C832 H817 0.960 . S
C832 H818 0.960 . S
C832 H819 0.960 . S
C832 C831 1.524 . S
C833 C830 1.403 . S
C833 C834 1.392 . S
C833 C837 1.495 . S
C834 C833 1.392 . S
C834 C835 1.385 . S
C834 C836 1.478 . S
C835 H829 0.930 . S
C835 C831 1.400 . S
C835 C834 1.385 . S
C836 C834 1.478 . S
C836 C838 1.381 . S
C836 C842 1.383 . S
C837 C833 1.495 . S
C837 H843 0.959 . S
C837 H844 0.961 . S
C837 H845 0.960 . S
C838 C836 1.381 . S
C838 C839 1.394 . S
C838 H846 0.930 . S
C839 C838 1.394 . S
C839 C840 1.383 . S
C839 H847 0.929 . S
C840 C839 1.383 . S
C840 C841 1.377 . S
C841 H825 0.930 . S
C841 C840 1.377 . S
C841 C842 1.379 . S
C842 H826 0.931 . S
C842 C836 1.383 . S
C842 C841 1.379 . S
H843 C837 0.959 . S
H844 C837 0.961 . S
H845 C837 0.960 . S
H846 C838 0.930 . S
H847 C839 0.929 . S
H848 C856 0.929 . S
H849 C858 0.930 . S
H850 C860 0.930 . S
H851 C863 0.929 . S
H852 C866 0.930 . S
H853 C868 0.960 . S
H854 C868 0.960 . S
H855 C868 0.960 . S
C856 H848 0.929 . S
C856 C857 1.377 . S
C856 C858 1.384 . S
C857 C856 1.377 . S
C857 C863 1.390 . S
C858 H849 0.930 . S
C858 C856 1.384 . S
C858 C859 1.372 . S
C859 C858 1.372 . S
C859 C860 1.400 . S
C859 C864 1.490 . S
C860 H850 0.930 . S
C860 C859 1.400 . S
C860 C863 1.386 . S
H861 C877 0.930 . S
H862 C878 0.931 . S
C863 H851 0.929 . S
C863 C857 1.390 . S
C863 C860 1.386 . S
C864 C859 1.490 . S
C864 C866 1.395 . S
C864 C867 1.403 . S
H865 C871 0.930 . S
C866 H852 0.930 . S
C866 C864 1.395 . S
C866 C869 1.403 . S
C867 C864 1.403 . S
C867 C868 1.524 . S
C867 C871 1.400 . S
C868 H853 0.960 . S
C868 H854 0.960 . S
C868 H855 0.960 . S
C868 C867 1.524 . S
C869 C866 1.403 . S
C869 C870 1.392 . S
C869 C873 1.495 . S
C870 C869 1.392 . S
C870 C871 1.385 . S
C870 C872 1.478 . S
C871 H865 0.930 . S
C871 C867 1.400 . S
C871 C870 1.385 . S
C872 C870 1.478 . S
C872 C874 1.381 . S
C872 C878 1.383 . S
C873 C869 1.495 . S
C873 H879 0.959 . S
C873 H880 0.961 . S
C873 H881 0.960 . S
C874 C872 1.381 . S
C874 C875 1.394 . S
C874 H882 0.930 . S
C875 C874 1.394 . S
C875 C876 1.383 . S
C875 H883 0.929 . S
C876 C875 1.383 . S
C876 C877 1.377 . S
C877 H861 0.930 . S
C877 C876 1.377 . S
C877 C878 1.379 . S
C878 H862 0.931 . S
C878 C872 1.383 . S
C878 C877 1.379 . S
H879 C873 0.959 . S
H880 C873 0.961 . S
H881 C873 0.960 . S
H882 C874 0.930 . S
H883 C875 0.929 . S
H884 C892 0.929 . S
H885 C894 0.930 . S
H886 C896 0.930 . S
H887 C899 0.929 . S
H888 C902 0.930 . S
H889 C904 0.960 . S
H890 C904 0.960 . S
H891 C904 0.960 . S
C892 H884 0.929 . S
C892 C893 1.377 . S
C892 C894 1.384 . S
C893 C892 1.377 . S
C893 C899 1.390 . S
C894 H885 0.930 . S
C894 C892 1.384 . S
C894 C895 1.372 . S
C895 C894 1.372 . S
C895 C896 1.400 . S
C895 C900 1.490 . S
C896 H886 0.930 . S
C896 C895 1.400 . S
C896 C899 1.386 . S
H897 C913 0.930 . S
H898 C914 0.931 . S
C899 H887 0.929 . S
C899 C893 1.390 . S
C899 C896 1.386 . S
C900 C895 1.490 . S
C900 C902 1.395 . S
C900 C903 1.403 . S
H901 C907 0.930 . S
C902 H888 0.930 . S
C902 C900 1.395 . S
C902 C905 1.403 . S
C903 C900 1.403 . S
C903 C904 1.524 . S
C903 C907 1.400 . S
C904 H889 0.960 . S
C904 H890 0.960 . S
C904 H891 0.960 . S
C904 C903 1.524 . S
C905 C902 1.403 . S
C905 C906 1.392 . S
C905 C909 1.495 . S
C906 C905 1.392 . S
C906 C907 1.385 . S
C906 C908 1.478 . S
C907 H901 0.930 . S
C907 C903 1.400 . S
C907 C906 1.385 . S
C908 C906 1.478 . S
C908 C910 1.381 . S
C908 C914 1.383 . S
C909 C905 1.495 . S
C909 H915 0.959 . S
C909 H916 0.961 . S
C909 H917 0.960 . S
C910 C908 1.381 . S
C910 C911 1.394 . S
C910 H918 0.930 . S
C911 C910 1.394 . S
C911 C912 1.383 . S
C911 H919 0.929 . S
C912 C911 1.383 . S
C912 C913 1.377 . S
C913 H897 0.930 . S
C913 C912 1.377 . S
C913 C914 1.379 . S
C914 H898 0.931 . S
C914 C908 1.383 . S
C914 C913 1.379 . S
H915 C909 0.959 . S
H916 C909 0.961 . S
H917 C909 0.960 . S
H918 C910 0.930 . S
H919 C911 0.929 . S
H920 C928 0.929 . S
H921 C930 0.930 . S
H922 C932 0.930 . S
H923 C935 0.929 . S
H924 C938 0.930 . S
H925 C940 0.960 . S
H926 C940 0.960 . S
H927 C940 0.960 . S
C928 H920 0.929 . S
C928 C929 1.377 . S
C928 C930 1.384 . S
C929 C928 1.377 . S
C929 C935 1.390 . S
C930 H921 0.930 . S
C930 C928 1.384 . S
C930 C931 1.372 . S
C931 C930 1.372 . S
C931 C932 1.400 . S
C931 C936 1.490 . S
C932 H922 0.930 . S
C932 C931 1.400 . S
C932 C935 1.386 . S
H933 C949 0.930 . S
H934 C950 0.931 . S
C935 H923 0.929 . S
C935 C929 1.390 . S
C935 C932 1.386 . S
C936 C931 1.490 . S
C936 C938 1.395 . S
C936 C939 1.403 . S
H937 C943 0.930 . S
C938 H924 0.930 . S
C938 C936 1.395 . S
C938 C941 1.403 . S
C939 C936 1.403 . S
C939 C940 1.524 . S
C939 C943 1.400 . S
C940 H925 0.960 . S
C940 H926 0.960 . S
C940 H927 0.960 . S
C940 C939 1.524 . S
C941 C938 1.403 . S
C941 C942 1.392 . S
C941 C945 1.495 . S
C942 C941 1.392 . S
C942 C943 1.385 . S
C942 C944 1.478 . S
C943 H937 0.930 . S
C943 C939 1.400 . S
C943 C942 1.385 . S
C944 C942 1.478 . S
C944 C946 1.381 . S
C944 C950 1.383 . S
C945 C941 1.495 . S
C945 H951 0.959 . S
C945 H952 0.961 . S
C945 H953 0.960 . S
C946 C944 1.381 . S
C946 C947 1.394 . S
C946 H954 0.930 . S
C947 C946 1.394 . S
C947 C948 1.383 . S
C947 H955 0.929 . S
C948 C947 1.383 . S
C948 C949 1.377 . S
C949 H933 0.930 . S
C949 C948 1.377 . S
C949 C950 1.379 . S
C950 H934 0.931 . S
C950 C944 1.383 . S
C950 C949 1.379 . S
H951 C945 0.959 . S
H952 C945 0.961 . S
H953 C945 0.960 . S
H954 C946 0.930 . S
H955 C947 0.929 . S
H956 C964 0.929 . S
H957 C966 0.930 . S
H958 C968 0.930 . S
H959 C971 0.929 . S
H960 C974 0.930 . S
H961 C976 0.960 . S
H962 C976 0.960 . S
H963 C976 0.960 . S
C964 H956 0.929 . S
C964 C965 1.377 . S
C964 C966 1.384 . S
C965 C964 1.377 . S
C965 C971 1.390 . S
C966 H957 0.930 . S
C966 C964 1.384 . S
C966 C967 1.372 . S
C967 C966 1.372 . S
C967 C968 1.400 . S
C967 C972 1.490 . S
C968 H958 0.930 . S
C968 C967 1.400 . S
C968 C971 1.386 . S
H969 C985 0.930 . S
H970 C986 0.931 . S
C971 H959 0.929 . S
C971 C965 1.390 . S
C971 C968 1.386 . S
C972 C967 1.490 . S
C972 C974 1.395 . S
C972 C975 1.403 . S
H973 C979 0.930 . S
C974 H960 0.930 . S
C974 C972 1.395 . S
C974 C977 1.403 . S
C975 C972 1.403 . S
C975 C976 1.524 . S
C975 C979 1.400 . S
C976 H961 0.960 . S
C976 H962 0.960 . S
C976 H963 0.960 . S
C976 C975 1.524 . S
C977 C974 1.403 . S
C977 C978 1.392 . S
C977 C981 1.495 . S
C978 C977 1.392 . S
C978 C979 1.385 . S
C978 C980 1.478 . S
C979 H973 0.930 . S
C979 C975 1.400 . S
C979 C978 1.385 . S
C980 C978 1.478 . S
C980 C982 1.381 . S
C980 C986 1.383 . S
C981 C977 1.495 . S
C981 H987 0.959 . S
C981 H988 0.961 . S
C981 H989 0.960 . S
C982 C980 1.381 . S
C982 C983 1.394 . S
C982 H990 0.930 . S
C983 C982 1.394 . S
C983 C984 1.383 . S
C983 H991 0.929 . S
C984 C983 1.383 . S
C984 C985 1.377 . S
C985 H969 0.930 . S
C985 C984 1.377 . S
C985 C986 1.379 . S
C986 H970 0.931 . S
C986 C980 1.383 . S
C986 C985 1.379 . S
H987 C981 0.959 . S
H988 C981 0.961 . S
H989 C981 0.960 . S
H990 C982 0.930 . S
H991 C983 0.929 . S
H992 C1000 0.929 . S
H993 C1002 0.930 . S
H994 C1004 0.930 . S
H995 C1007 0.929 . S
H996 C1010 0.930 . S
H997 C1012 0.960 . S
H998 C1012 0.960 . S
H999 C1012 0.960 . S
C1000 H992 0.929 . S
C1000 C1001 1.377 . S
C1000 C1002 1.384 . S
C1001 C1000 1.377 . S
C1001 C1007 1.390 . S
C1002 H993 0.930 . S
C1002 C1000 1.384 . S
C1002 C1003 1.372 . S
C1003 C1002 1.372 . S
C1003 C1004 1.400 . S
C1003 C1008 1.490 . S
C1004 H994 0.930 . S
C1004 C1003 1.400 . S
C1004 C1007 1.386 . S
H1005 C1021 0.930 . S
H1006 C1022 0.931 . S
C1007 H995 0.929 . S
C1007 C1001 1.390 . S
C1007 C1004 1.386 . S
C1008 C1003 1.490 . S
C1008 C1010 1.395 . S
C1008 C1011 1.403 . S
H1009 C1015 0.930 . S
C1010 H996 0.930 . S
C1010 C1008 1.395 . S
C1010 C1013 1.403 . S
C1011 C1008 1.403 . S
C1011 C1012 1.524 . S
C1011 C1015 1.400 . S
C1012 H997 0.960 . S
C1012 H998 0.960 . S
C1012 H999 0.960 . S
C1012 C1011 1.524 . S
C1013 C1010 1.403 . S
C1013 C1014 1.392 . S
C1013 C1017 1.495 . S
C1014 C1013 1.392 . S
C1014 C1015 1.385 . S
C1014 C1016 1.478 . S
C1015 H1009 0.930 . S
C1015 C1011 1.400 . S
C1015 C1014 1.385 . S
C1016 C1014 1.478 . S
C1016 C1018 1.381 . S
C1016 C1022 1.383 . S
C1017 C1013 1.495 . S
C1017 H1023 0.959 . S
C1017 H1024 0.961 . S
C1017 H1025 0.960 . S
C1018 C1016 1.381 . S
C1018 C1019 1.394 . S
C1018 H1026 0.930 . S
C1019 C1018 1.394 . S
C1019 C1020 1.383 . S
C1019 H1027 0.929 . S
C1020 C1019 1.383 . S
C1020 C1021 1.377 . S
C1021 H1005 0.930 . S
C1021 C1020 1.377 . S
C1021 C1022 1.379 . S
C1022 H1006 0.931 . S
C1022 C1016 1.383 . S
C1022 C1021 1.379 . S
H1023 C1017 0.959 . S
H1024 C1017 0.961 . S
H1025 C1017 0.960 . S
H1026 C1018 0.930 . S
H1027 C1019 0.929 . S
H1028 C1036 0.929 . S
H1029 C1038 0.930 . S
H1030 C1040 0.930 . S
H1031 C1043 0.929 . S
H1032 C1046 0.930 . S
H1033 C1048 0.960 . S
H1034 C1048 0.960 . S
H1035 C1048 0.960 . S
C1036 H1028 0.929 . S
C1036 C1037 1.377 . S
C1036 C1038 1.384 . S
C1037 C1036 1.377 . S
C1037 C1043 1.390 . S
C1038 H1029 0.930 . S
C1038 C1036 1.384 . S
C1038 C1039 1.372 . S
C1039 C1038 1.372 . S
C1039 C1040 1.400 . S
C1039 C1044 1.490 . S
C1040 H1030 0.930 . S
C1040 C1039 1.400 . S
C1040 C1043 1.386 . S
H1041 C1057 0.930 . S
H1042 C1058 0.953 . S
C1043 H1031 0.929 . S
C1043 C1037 1.390 . S
C1043 C1040 1.386 . S
C1044 C1039 1.490 . S
C1044 C1046 1.395 . S
C1044 C1047 1.403 . S
H1045 C1051 0.930 . S
C1046 H1032 0.930 . S
C1046 C1044 1.395 . S
C1046 C1049 1.403 . S
C1047 C1044 1.403 . S
C1047 C1048 1.524 . S
C1047 C1051 1.400 . S
C1048 H1033 0.960 . S
C1048 H1034 0.960 . S
C1048 H1035 0.960 . S
C1048 C1047 1.524 . S
C1049 C1046 1.403 . S
C1049 C1050 1.392 . S
C1049 C1053 1.495 . S
C1050 C1049 1.392 . S
C1050 C1051 1.385 . S
C1050 C1052 1.430 1_655 S
C1051 H1045 0.930 . S
C1051 C1047 1.400 . S
C1051 C1050 1.385 . S
C1052 C1050 1.430 1_455 S
C1052 C1054 1.413 . S
C1052 C1058 1.404 . S
C1053 C1049 1.495 . S
C1053 H1059 0.959 . S
C1053 H1060 0.961 . S
C1053 H1061 0.960 . S
C1054 C1052 1.413 . S
C1054 C1055 1.394 . S
C1054 H1062 0.930 . S
C1055 C1054 1.394 . S
C1055 C1056 1.383 . S
C1055 H1063 0.929 . S
C1056 C1055 1.383 . S
C1056 C1057 1.377 . S
C1057 H1041 0.930 . S
C1057 C1056 1.377 . S
C1057 C1058 1.379 . S
C1058 H1042 0.953 . S
C1058 C1052 1.404 . S
C1058 C1057 1.379 . S
H1059 C1053 0.959 . S
H1060 C1053 0.961 . S
H1061 C1053 0.960 . S
H1062 C1054 0.930 . S
H1063 C1055 0.929 . S
H1064 C1072 0.929 . S
H1065 C1074 0.930 . S
H1066 C1076 0.930 . S
H1067 C1079 0.929 . S
H1068 C1082 0.930 . S
H1069 C1084 0.960 . S
H1070 C1084 0.960 . S
H1071 C1084 0.960 . S
C1072 H1064 0.929 . S
C1072 C1073 1.377 . S
C1072 C1074 1.384 . S
C1073 C1072 1.377 . S
C1073 C1079 1.390 . S
C1074 H1065 0.930 . S
C1074 C1072 1.384 . S
C1074 C1075 1.372 . S
C1075 C1074 1.372 . S
C1075 C1076 1.400 . S
C1075 C1080 1.490 . S
C1076 H1066 0.930 . S
C1076 C1075 1.400 . S
C1076 C1079 1.386 . S
H1077 C1093 0.930 . S
H1078 C1094 0.931 . S
C1079 H1067 0.929 . S
C1079 C1073 1.390 . S
C1079 C1076 1.386 . S
C1080 C1075 1.490 . S
C1080 C1082 1.395 . S
C1080 C1083 1.403 . S
H1081 C1087 0.930 . S
C1082 H1068 0.930 . S
C1082 C1080 1.395 . S
C1082 C1085 1.403 . S
C1083 C1080 1.403 . S
C1083 C1084 1.524 . S
C1083 C1087 1.400 . S
C1084 H1069 0.960 . S
C1084 H1070 0.960 . S
C1084 H1071 0.960 . S
C1084 C1083 1.524 . S
C1085 C1082 1.403 . S
C1085 C1086 1.392 . S
C1085 C1089 1.495 . S
C1086 C1085 1.392 . S
C1086 C1087 1.385 . S
C1086 C1088 1.478 . S
C1087 H1081 0.930 . S
C1087 C1083 1.400 . S
C1087 C1086 1.385 . S
C1088 C1086 1.478 . S
C1088 C1090 1.381 . S
C1088 C1094 1.383 . S
C1089 C1085 1.495 . S
C1089 H1095 0.959 . S
C1089 H1096 0.961 . S
C1089 H1097 0.960 . S
C1090 C1088 1.381 . S
C1090 C1091 1.394 . S
C1090 H1098 0.930 . S
C1091 C1090 1.394 . S
C1091 C1092 1.383 . S
C1091 H1099 0.929 . S
C1092 C1091 1.383 . S
C1092 C1093 1.377 . S
C1093 H1077 0.930 . S
C1093 C1092 1.377 . S
C1093 C1094 1.379 . S
C1094 H1078 0.931 . S
C1094 C1088 1.383 . S
C1094 C1093 1.379 . S
H1095 C1089 0.959 . S
H1096 C1089 0.961 . S
H1097 C1089 0.960 . S
H1098 C1090 0.930 . S
H1099 C1091 0.929 . S
H1100 C1108 0.929 . S
H1101 C1110 0.930 . S
H1102 C1112 0.930 . S
H1103 C1115 0.929 . S
H1104 C1118 0.930 . S
H1105 C1120 0.960 . S
H1106 C1120 0.960 . S
H1107 C1120 0.960 . S
C1108 H1100 0.929 . S
C1108 C1109 1.377 . S
C1108 C1110 1.384 . S
C1109 C1108 1.377 . S
C1109 C1115 1.390 . S
C1110 H1101 0.930 . S
C1110 C1108 1.384 . S
C1110 C1111 1.372 . S
C1111 C1110 1.372 . S
C1111 C1112 1.400 . S
C1111 C1116 1.490 . S
C1112 H1102 0.930 . S
C1112 C1111 1.400 . S
C1112 C1115 1.386 . S
H1113 C1129 0.930 . S
H1114 C1130 0.931 . S
C1115 H1103 0.929 . S
C1115 C1109 1.390 . S
C1115 C1112 1.386 . S
C1116 C1111 1.490 . S
C1116 C1118 1.395 . S
C1116 C1119 1.403 . S
H1117 C1123 0.930 . S
C1118 H1104 0.930 . S
C1118 C1116 1.395 . S
C1118 C1121 1.403 . S
C1119 C1116 1.403 . S
C1119 C1120 1.524 . S
C1119 C1123 1.400 . S
C1120 H1105 0.960 . S
C1120 H1106 0.960 . S
C1120 H1107 0.960 . S
C1120 C1119 1.524 . S
C1121 C1118 1.403 . S
C1121 C1122 1.392 . S
C1121 C1125 1.495 . S
C1122 C1121 1.392 . S
C1122 C1123 1.385 . S
C1122 C1124 1.478 . S
C1123 H1117 0.930 . S
C1123 C1119 1.400 . S
C1123 C1122 1.385 . S
C1124 C1122 1.478 . S
C1124 C1126 1.381 . S
C1124 C1130 1.383 . S
C1125 C1121 1.495 . S
C1125 H1131 0.959 . S
C1125 H1132 0.961 . S
C1125 H1133 0.960 . S
C1126 C1124 1.381 . S
C1126 C1127 1.394 . S
C1126 H1134 0.930 . S
C1127 C1126 1.394 . S
C1127 C1128 1.383 . S
C1127 H1135 0.929 . S
C1128 C1127 1.383 . S
C1128 C1129 1.377 . S
C1129 H1113 0.930 . S
C1129 C1128 1.377 . S
C1129 C1130 1.379 . S
C1130 H1114 0.931 . S
C1130 C1124 1.383 . S
C1130 C1129 1.379 . S
H1131 C1125 0.959 . S
H1132 C1125 0.961 . S
H1133 C1125 0.960 . S
H1134 C1126 0.930 . S
H1135 C1127 0.929 . S
H1136 C1144 0.929 . S
H1137 C1146 0.930 . S
H1138 C1148 0.930 . S
H1139 C1151 0.929 . S
H1140 C1154 0.930 . S
H1141 C1156 0.960 . S
H1142 C1156 0.960 . S
H1143 C1156 0.960 . S
C1144 H1136 0.929 . S
C1144 C1145 1.377 . S
C1144 C1146 1.384 . S
C1145 C1144 1.377 . S
C1145 C1151 1.390 . S
C1146 H1137 0.930 . S
C1146 C1144 1.384 . S
C1146 C1147 1.372 . S
C1147 C1146 1.372 . S
C1147 C1148 1.400 . S
C1147 C1152 1.490 . S
C1148 H1138 0.930 . S
C1148 C1147 1.400 . S
C1148 C1151 1.386 . S
H1149 C1165 0.930 . S
H1150 C1166 0.931 . S
C1151 H1139 0.929 . S
C1151 C1145 1.390 . S
C1151 C1148 1.386 . S
C1152 C1147 1.490 . S
C1152 C1154 1.395 . S
C1152 C1155 1.403 . S
H1153 C1159 0.930 . S
C1154 H1140 0.930 . S
C1154 C1152 1.395 . S
C1154 C1157 1.403 . S
C1155 C1152 1.403 . S
C1155 C1156 1.524 . S
C1155 C1159 1.400 . S
C1156 H1141 0.960 . S
C1156 H1142 0.960 . S
C1156 H1143 0.960 . S
C1156 C1155 1.524 . S
C1157 C1154 1.403 . S
C1157 C1158 1.392 . S
C1157 C1161 1.495 . S
C1158 C1157 1.392 . S
C1158 C1159 1.385 . S
C1158 C1160 1.478 . S
C1159 H1153 0.930 . S
C1159 C1155 1.400 . S
C1159 C1158 1.385 . S
C1160 C1158 1.478 . S
C1160 C1162 1.381 . S
C1160 C1166 1.383 . S
C1161 C1157 1.495 . S
C1161 H1167 0.959 . S
C1161 H1168 0.961 . S
C1161 H1169 0.960 . S
C1162 C1160 1.381 . S
C1162 C1163 1.394 . S
C1162 H1170 0.930 . S
C1163 C1162 1.394 . S
C1163 C1164 1.383 . S
C1163 H1171 0.929 . S
C1164 C1163 1.383 . S
C1164 C1165 1.377 . S
C1165 H1149 0.930 . S
C1165 C1164 1.377 . S
C1165 C1166 1.379 . S
C1166 H1150 0.931 . S
C1166 C1160 1.383 . S
C1166 C1165 1.379 . S
H1167 C1161 0.959 . S
H1168 C1161 0.961 . S
H1169 C1161 0.960 . S
H1170 C1162 0.930 . S
H1171 C1163 0.929 . S
H1172 C1180 0.929 . S
H1173 C1182 0.930 . S
H1174 C1184 0.930 . S
H1175 C1187 0.929 . S
H1176 C1190 0.930 . S
H1177 C1192 0.960 . S
H1178 C1192 0.960 . S
H1179 C1192 0.960 . S
C1180 H1172 0.929 . S
C1180 C1181 1.377 . S
C1180 C1182 1.384 . S
C1181 C1180 1.377 . S
C1181 C1187 1.390 . S
C1182 H1173 0.930 . S
C1182 C1180 1.384 . S
C1182 C1183 1.372 . S
C1183 C1182 1.372 . S
C1183 C1184 1.400 . S
C1183 C1188 1.490 . S
C1184 H1174 0.930 . S
C1184 C1183 1.400 . S
C1184 C1187 1.386 . S
H1185 C1201 0.930 . S
H1186 C1202 0.931 . S
C1187 H1175 0.929 . S
C1187 C1181 1.390 . S
C1187 C1184 1.386 . S
C1188 C1183 1.490 . S
C1188 C1190 1.395 . S
C1188 C1191 1.403 . S
H1189 C1195 0.930 . S
C1190 H1176 0.930 . S
C1190 C1188 1.395 . S
C1190 C1193 1.403 . S
C1191 C1188 1.403 . S
C1191 C1192 1.524 . S
C1191 C1195 1.400 . S
C1192 H1177 0.960 . S
C1192 H1178 0.960 . S
C1192 H1179 0.960 . S
C1192 C1191 1.524 . S
C1193 C1190 1.403 . S
C1193 C1194 1.392 . S
C1193 C1197 1.495 . S
C1194 C1193 1.392 . S
C1194 C1195 1.385 . S
C1194 C1196 1.478 . S
C1195 H1189 0.930 . S
C1195 C1191 1.400 . S
C1195 C1194 1.385 . S
C1196 C1194 1.478 . S
C1196 C1198 1.381 . S
C1196 C1202 1.383 . S
C1197 C1193 1.495 . S
C1197 H1203 0.959 . S
C1197 H1204 0.961 . S
C1197 H1205 0.960 . S
C1198 C1196 1.381 . S
C1198 C1199 1.394 . S
C1198 H1206 0.930 . S
C1199 C1198 1.394 . S
C1199 C1200 1.383 . S
C1199 H1207 0.929 . S
C1200 C1199 1.383 . S
C1200 C1201 1.377 . S
C1201 H1185 0.930 . S
C1201 C1200 1.377 . S
C1201 C1202 1.379 . S
C1202 H1186 0.931 . S
C1202 C1196 1.383 . S
C1202 C1201 1.379 . S
H1203 C1197 0.959 . S
H1204 C1197 0.961 . S
H1205 C1197 0.960 . S
H1206 C1198 0.930 . S
H1207 C1199 0.929 . S
H1208 C1216 0.929 . S
H1209 C1218 0.930 . S
H1210 C1220 0.930 . S
H1211 C1223 0.929 . S
H1212 C1226 0.930 . S
H1213 C1228 0.960 . S
H1214 C1228 0.960 . S
H1215 C1228 0.960 . S
C1216 H1208 0.929 . S
C1216 C1217 1.377 . S
C1216 C1218 1.384 . S
C1217 C1216 1.377 . S
C1217 C1223 1.390 . S
C1218 H1209 0.930 . S
C1218 C1216 1.384 . S
C1218 C1219 1.372 . S
C1219 C1218 1.372 . S
C1219 C1220 1.400 . S
C1219 C1224 1.490 . S
C1220 H1210 0.930 . S
C1220 C1219 1.400 . S
C1220 C1223 1.386 . S
H1221 C1237 0.930 . S
H1222 C1238 0.931 . S
C1223 H1211 0.929 . S
C1223 C1217 1.390 . S
C1223 C1220 1.386 . S
C1224 C1219 1.490 . S
C1224 C1226 1.395 . S
C1224 C1227 1.403 . S
H1225 C1231 0.930 . S
C1226 H1212 0.930 . S
C1226 C1224 1.395 . S
C1226 C1229 1.403 . S
C1227 C1224 1.403 . S
C1227 C1228 1.524 . S
C1227 C1231 1.400 . S
C1228 H1213 0.960 . S
C1228 H1214 0.960 . S
C1228 H1215 0.960 . S
C1228 C1227 1.524 . S
C1229 C1226 1.403 . S
C1229 C1230 1.392 . S
C1229 C1233 1.495 . S
C1230 C1229 1.392 . S
C1230 C1231 1.385 . S
C1230 C1232 1.478 . S
C1231 H1225 0.930 . S
C1231 C1227 1.400 . S
C1231 C1230 1.385 . S
C1232 C1230 1.478 . S
C1232 C1234 1.381 . S
C1232 C1238 1.383 . S
C1233 C1229 1.495 . S
C1233 H1239 0.959 . S
C1233 H1240 0.961 . S
C1233 H1241 0.960 . S
C1234 C1232 1.381 . S
C1234 C1235 1.394 . S
C1234 H1242 0.930 . S
C1235 C1234 1.394 . S
C1235 C1236 1.383 . S
C1235 H1243 0.929 . S
C1236 C1235 1.383 . S
C1236 C1237 1.377 . S
C1237 H1221 0.930 . S
C1237 C1236 1.377 . S
C1237 C1238 1.379 . S
C1238 H1222 0.931 . S
C1238 C1232 1.383 . S
C1238 C1237 1.379 . S
H1239 C1233 0.959 . S
H1240 C1233 0.961 . S
H1241 C1233 0.960 . S
H1242 C1234 0.930 . S
H1243 C1235 0.929 . S
H1244 C1252 0.929 . S
H1245 C1254 0.891 1_655 S
H1246 C1256 0.930 . S
H1247 C1259 0.929 . S
H1248 C1262 0.930 . S
H1249 C1264 0.960 1_655 S
H1250 C1264 0.960 . S
H1251 C1264 0.960 . S
C1252 H1244 0.929 . S
C1252 C1253 1.377 . S
C1252 C1254 1.384 . S
C1253 C1252 1.377 . S
C1253 C1259 1.390 . S
C1254 H1245 0.891 1_455 S
C1254 C1252 1.384 . S
C1254 C1255 1.372 . S
C1255 C1254 1.372 . S
C1255 C1256 1.400 . S
C1255 C1260 1.490 1_455 S
C1256 H1246 0.930 . S
C1256 C1255 1.400 . S
C1256 C1259 1.386 . S
H1257 C1273 0.930 . S
H1258 C1274 0.931 . S
C1259 H1247 0.929 . S
C1259 C1253 1.390 . S
C1259 C1256 1.386 . S
C1260 C1255 1.490 1_655 S
C1260 C1262 1.395 . S
C1260 C1263 1.403 . S
H1261 C1267 0.930 . S
C1262 H1248 0.930 . S
C1262 C1260 1.395 . S
C1262 C1265 1.403 . S
C1263 C1260 1.403 . S
C1263 C1264 1.524 1_655 S
C1263 C1267 1.400 . S
C1264 H1249 0.960 1_455 S
C1264 H1250 0.960 . S
C1264 H1251 0.960 . S
C1264 C1263 1.524 1_455 S
C1265 C1262 1.403 . S
C1265 C1266 1.392 . S
C1265 C1269 1.495 . S
C1266 C1265 1.392 . S
C1266 C1267 1.385 . S
C1266 C1268 1.478 . S
C1267 H1261 0.930 . S
C1267 C1263 1.400 . S
C1267 C1266 1.385 . S
C1268 C1266 1.478 . S
C1268 C1270 1.381 . S
C1268 C1274 1.383 . S
C1269 C1265 1.495 . S
C1269 H1275 0.959 . S
C1269 H1276 0.961 . S
C1269 H1277 0.960 . S
C1270 C1268 1.381 . S
C1270 C1271 1.394 . S
C1270 H1278 0.930 . S
C1271 C1270 1.394 . S
C1271 C1272 1.383 . S
C1271 H1279 0.929 . S
C1272 C1271 1.383 . S
C1272 C1273 1.377 . S
C1273 H1257 0.930 . S
C1273 C1272 1.377 . S
C1273 C1274 1.379 . S
C1274 H1258 0.931 . S
C1274 C1268 1.383 . S
C1274 C1273 1.379 . S
H1275 C1269 0.959 . S
H1276 C1269 0.961 . S
H1277 C1269 0.960 . S
H1278 C1270 0.930 . S
H1279 C1271 0.929 . S
H1280 C1288 0.929 . S
H1281 C1290 0.930 . S
H1282 C1292 0.930 . S
H1283 C1295 0.929 . S
H1284 C1298 0.930 . S
H1285 C1300 0.960 . S
H1286 C1300 0.960 . S
H1287 C1300 0.960 . S
C1288 H1280 0.929 . S
C1288 C1289 1.377 . S
C1288 C1290 1.384 . S
C1289 C1288 1.377 . S
C1289 C1295 1.390 . S
C1290 H1281 0.930 . S
C1290 C1288 1.384 . S
C1290 C1291 1.372 . S
C1291 C1290 1.372 . S
C1291 C1292 1.400 . S
C1291 C1296 1.490 . S
C1292 H1282 0.930 . S
C1292 C1291 1.400 . S
C1292 C1295 1.386 . S
H1293 C1309 0.930 . S
H1294 C1310 0.931 . S
C1295 H1283 0.929 . S
C1295 C1289 1.390 . S
C1295 C1292 1.386 . S
C1296 C1291 1.490 . S
C1296 C1298 1.395 . S
C1296 C1299 1.403 . S
H1297 C1303 0.930 . S
C1298 H1284 0.930 . S
C1298 C1296 1.395 . S
C1298 C1301 1.403 . S
C1299 C1296 1.403 . S
C1299 C1300 1.524 . S
C1299 C1303 1.400 . S
C1300 H1285 0.960 . S
C1300 H1286 0.960 . S
C1300 H1287 0.960 . S
C1300 C1299 1.524 . S
C1301 C1298 1.403 . S
C1301 C1302 1.392 . S
C1301 C1305 1.495 . S
C1302 C1301 1.392 . S
C1302 C1303 1.385 . S
C1302 C1304 1.478 . S
C1303 H1297 0.930 . S
C1303 C1299 1.400 . S
C1303 C1302 1.385 . S
C1304 C1302 1.478 . S
C1304 C1306 1.381 . S
C1304 C1310 1.383 . S
C1305 C1301 1.495 . S
C1305 H1311 0.959 . S
C1305 H1312 0.961 . S
C1305 H1313 0.960 . S
C1306 C1304 1.381 . S
C1306 C1307 1.394 . S
C1306 H1314 0.930 . S
C1307 C1306 1.394 . S
C1307 C1308 1.383 . S
C1307 H1315 0.929 . S
C1308 C1307 1.383 . S
C1308 C1309 1.377 . S
C1309 H1293 0.930 . S
C1309 C1308 1.377 . S
C1309 C1310 1.379 . S
C1310 H1294 0.931 . S
C1310 C1304 1.383 . S
C1310 C1309 1.379 . S
H1311 C1305 0.959 . S
H1312 C1305 0.961 . S
H1313 C1305 0.960 . S
H1314 C1306 0.930 . S
H1315 C1307 0.929 . S
H1316 C1324 0.929 . S
H1317 C1326 0.930 . S
H1318 C1328 0.930 . S
H1319 C1331 0.929 . S
H1320 C1334 0.930 . S
H1321 C1336 0.975 . S
H1322 C1336 0.930 1_655 S
H1323 C1336 0.945 1_655 S
C1324 H1316 0.929 . S
C1324 C1325 1.377 . S
C1324 C1326 1.384 . S
C1325 C1324 1.377 . S
C1325 C1331 1.390 . S
C1326 H1317 0.930 . S
C1326 C1324 1.384 . S
C1326 C1327 1.372 . S
C1327 C1326 1.372 . S
C1327 C1328 1.400 . S
C1327 C1332 1.490 1_655 S
C1328 H1318 0.930 . S
C1328 C1327 1.400 . S
C1328 C1331 1.386 . S
H1329 C1345 0.930 . S
H1330 C1346 0.931 . S
C1331 H1319 0.929 . S
C1331 C1325 1.390 . S
C1331 C1328 1.386 . S
C1332 C1327 1.490 1_455 S
C1332 C1334 1.395 . S
C1332 C1335 1.403 . S
H1333 C1339 0.930 . S
C1334 H1320 0.930 . S
C1334 C1332 1.395 . S
C1334 C1337 1.403 . S
C1335 C1332 1.403 . S
C1335 C1336 1.558 . S
C1335 C1339 1.400 . S
C1336 H1321 0.975 . S
C1336 H1322 0.930 1_455 S
C1336 H1323 0.945 1_455 S
C1336 C1335 1.558 . S
C1337 C1334 1.403 . S
C1337 C1338 1.392 . S
C1337 C1341 1.495 . S
C1338 C1337 1.392 . S
C1338 C1339 1.385 . S
C1338 C1340 1.478 . S
C1339 H1333 0.930 . S
C1339 C1335 1.400 . S
C1339 C1338 1.385 . S
C1340 C1338 1.478 . S
C1340 C1342 1.381 . S
C1340 C1346 1.383 . S
C1341 C1337 1.495 . S
C1341 H1347 0.959 . S
C1341 H1348 0.961 . S
C1341 H1349 0.960 . S
C1342 C1340 1.381 . S
C1342 C1343 1.394 . S
C1342 H1350 0.930 . S
C1343 C1342 1.394 . S
C1343 C1344 1.383 . S
C1343 H1351 0.929 . S
C1344 C1343 1.383 . S
C1344 C1345 1.377 . S
C1345 H1329 0.930 . S
C1345 C1344 1.377 . S
C1345 C1346 1.379 . S
C1346 H1330 0.931 . S
C1346 C1340 1.383 . S
C1346 C1345 1.379 . S
H1347 C1341 0.959 . S
H1348 C1341 0.961 . S
H1349 C1341 0.960 . S
H1350 C1342 0.930 . S
H1351 C1343 0.929 . S
H1352 C1360 0.929 . S
H1353 C1362 0.930 . S
H1354 C1364 0.930 . S
H1355 C1367 0.929 . S
H1356 C1370 0.930 . S
H1357 C1372 0.960 . S
H1358 C1372 0.960 . S
H1359 C1372 0.960 . S
C1360 H1352 0.929 . S
C1360 C1361 1.377 . S
C1360 C1362 1.384 . S
C1361 C1360 1.377 . S
C1361 C1367 1.390 . S
C1362 H1353 0.930 . S
C1362 C1360 1.384 . S
C1362 C1363 1.372 . S
C1363 C1362 1.372 . S
C1363 C1364 1.400 . S
C1363 C1368 1.490 . S
C1364 H1354 0.930 . S
C1364 C1363 1.400 . S
C1364 C1367 1.386 . S
H1365 C1381 0.930 . S
H1366 C1382 0.931 . S
C1367 H1355 0.929 . S
C1367 C1361 1.390 . S
C1367 C1364 1.386 . S
C1368 C1363 1.490 . S
C1368 C1370 1.395 . S
C1368 C1371 1.403 . S
H1369 C1375 0.930 . S
C1370 H1356 0.930 . S
C1370 C1368 1.395 . S
C1370 C1373 1.403 . S
C1371 C1368 1.403 . S
C1371 C1372 1.524 . S
C1371 C1375 1.400 . S
C1372 H1357 0.960 . S
C1372 H1358 0.960 . S
C1372 H1359 0.960 . S
C1372 C1371 1.524 . S
C1373 C1370 1.403 . S
C1373 C1374 1.392 . S
C1373 C1377 1.495 . S
C1374 C1373 1.392 . S
C1374 C1375 1.385 . S
C1374 C1376 1.478 . S
C1375 H1369 0.930 . S
C1375 C1371 1.400 . S
C1375 C1374 1.385 . S
C1376 C1374 1.478 . S
C1376 C1378 1.381 . S
C1376 C1382 1.383 . S
C1377 C1373 1.495 . S
C1377 H1383 0.959 . S
C1377 H1384 0.961 . S
C1377 H1385 0.960 . S
C1378 C1376 1.381 . S
C1378 C1379 1.394 . S
C1378 H1386 0.930 . S
C1379 C1378 1.394 . S
C1379 C1380 1.383 . S
C1379 H1387 0.929 . S
C1380 C1379 1.383 . S
C1380 C1381 1.377 . S
C1381 H1365 0.930 . S
C1381 C1380 1.377 . S
C1381 C1382 1.379 . S
C1382 H1366 0.931 . S
C1382 C1376 1.383 . S
C1382 C1381 1.379 . S
H1383 C1377 0.959 . S
H1384 C1377 0.961 . S
H1385 C1377 0.960 . S
H1386 C1378 0.930 . S
H1387 C1379 0.929 . S
H1388 C1396 0.929 . S
H1389 C1398 0.930 . S
H1390 C1400 0.930 . S
H1391 C1403 0.929 . S
H1392 C1406 0.930 . S
H1393 C1408 0.960 . S
H1394 C1408 0.960 . S
H1395 C1408 0.960 . S
C1396 H1388 0.929 . S
C1396 C1397 1.377 . S
C1396 C1398 1.384 . S
C1397 C1396 1.377 . S
C1397 C1403 1.390 . S
C1398 H1389 0.930 . S
C1398 C1396 1.384 . S
C1398 C1399 1.372 . S
C1399 C1398 1.372 . S
C1399 C1400 1.400 . S
C1399 C1404 1.490 . S
C1400 H1390 0.930 . S
C1400 C1399 1.400 . S
C1400 C1403 1.386 . S
H1401 C1417 0.930 . S
H1402 C1418 0.931 . S
C1403 H1391 0.929 . S
C1403 C1397 1.390 . S
C1403 C1400 1.386 . S
C1404 C1399 1.490 . S
C1404 C1406 1.395 . S
C1404 C1407 1.403 . S
H1405 C1411 0.930 . S
C1406 H1392 0.930 . S
C1406 C1404 1.395 . S
C1406 C1409 1.403 . S
C1407 C1404 1.403 . S
C1407 C1408 1.524 . S
C1407 C1411 1.400 . S
C1408 H1393 0.960 . S
C1408 H1394 0.960 . S
C1408 H1395 0.960 . S
C1408 C1407 1.524 . S
C1409 C1406 1.403 . S
C1409 C1410 1.392 . S
C1409 C1413 1.495 . S
C1410 C1409 1.392 . S
C1410 C1411 1.385 . S
C1410 C1412 1.478 . S
C1411 H1405 0.930 . S
C1411 C1407 1.400 . S
C1411 C1410 1.385 . S
C1412 C1410 1.478 . S
C1412 C1414 1.381 . S
C1412 C1418 1.383 . S
C1413 C1409 1.495 . S
C1413 H1419 0.959 . S
C1413 H1420 0.961 . S
C1413 H1421 0.960 . S
C1414 C1412 1.381 . S
C1414 C1415 1.394 . S
C1414 H1422 0.930 . S
C1415 C1414 1.394 . S
C1415 C1416 1.383 . S
C1415 H1423 0.929 . S
C1416 C1415 1.383 . S
C1416 C1417 1.377 . S
C1417 H1401 0.930 . S
C1417 C1416 1.377 . S
C1417 C1418 1.379 . S
C1418 H1402 0.931 . S
C1418 C1412 1.383 . S
C1418 C1417 1.379 . S
H1419 C1413 0.959 . S
H1420 C1413 0.961 . S
H1421 C1413 0.960 . S
H1422 C1414 0.930 . S
H1423 C1415 0.929 . S
H1424 C1432 0.929 . S
H1425 C1434 0.930 . S
H1426 C1436 0.930 . S
H1427 C1439 0.929 . S
H1428 C1442 0.930 . S
H1429 C1444 0.960 . S
H1430 C1444 0.960 . S
H1431 C1444 0.960 . S
C1432 H1424 0.929 . S
C1432 C1433 1.377 . S
C1432 C1434 1.384 . S
C1433 C1432 1.377 . S
C1433 C1439 1.390 . S
C1434 H1425 0.930 . S
C1434 C1432 1.384 . S
C1434 C1435 1.372 . S
C1435 C1434 1.372 . S
C1435 C1436 1.400 . S
C1435 C1440 1.490 . S
C1436 H1426 0.930 . S
C1436 C1435 1.400 . S
C1436 C1439 1.386 . S
H1437 C1453 0.930 . S
H1438 C1454 0.931 . S
C1439 H1427 0.929 . S
C1439 C1433 1.390 . S
C1439 C1436 1.386 . S
C1440 C1435 1.490 . S
C1440 C1442 1.395 . S
C1440 C1443 1.403 . S
H1441 C1447 0.930 . S
C1442 H1428 0.930 . S
C1442 C1440 1.395 . S
C1442 C1445 1.403 . S
C1443 C1440 1.403 . S
C1443 C1444 1.524 . S
C1443 C1447 1.400 . S
C1444 H1429 0.960 . S
C1444 H1430 0.960 . S
C1444 H1431 0.960 . S
C1444 C1443 1.524 . S
C1445 C1442 1.403 . S
C1445 C1446 1.392 . S
C1445 C1449 1.495 . S
C1446 C1445 1.392 . S
C1446 C1447 1.385 . S
C1446 C1448 1.478 . S
C1447 H1441 0.930 . S
C1447 C1443 1.400 . S
C1447 C1446 1.385 . S
C1448 C1446 1.478 . S
C1448 C1450 1.381 . S
C1448 C1454 1.383 . S
C1449 C1445 1.495 . S
C1449 H1455 0.959 . S
C1449 H1456 0.961 . S
C1449 H1457 0.960 . S
C1450 C1448 1.381 . S
C1450 C1451 1.394 . S
C1450 H1458 0.930 . S
C1451 C1450 1.394 . S
C1451 C1452 1.383 . S
C1451 H1459 0.929 . S
C1452 C1451 1.383 . S
C1452 C1453 1.377 . S
C1453 H1437 0.930 . S
C1453 C1452 1.377 . S
C1453 C1454 1.379 . S
C1454 H1438 0.931 . S
C1454 C1448 1.383 . S
C1454 C1453 1.379 . S
H1455 C1449 0.959 . S
H1456 C1449 0.961 . S
H1457 C1449 0.960 . S
H1458 C1450 0.930 . S
H1459 C1451 0.929 . S
H1460 C1468 0.929 . S
H1461 C1470 0.930 . S
H1462 C1472 0.930 . S
H1463 C1475 0.929 . S
H1464 C1478 0.930 . S
H1465 C1480 0.960 . S
H1466 C1480 0.960 . S
H1467 C1480 0.960 . S
C1468 H1460 0.929 . S
C1468 C1469 1.377 . S
C1468 C1470 1.384 . S
C1469 C1468 1.377 . S
C1469 C1475 1.390 . S
C1470 H1461 0.930 . S
C1470 C1468 1.384 . S
C1470 C1471 1.372 . S
C1471 C1470 1.372 . S
C1471 C1472 1.400 . S
C1471 C1476 1.490 . S
C1472 H1462 0.930 . S
C1472 C1471 1.400 . S
C1472 C1475 1.386 . S
H1473 C1489 0.930 . S
H1474 C1490 0.931 . S
C1475 H1463 0.929 . S
C1475 C1469 1.390 . S
C1475 C1472 1.386 . S
C1476 C1471 1.490 . S
C1476 C1478 1.395 . S
C1476 C1479 1.403 . S
H1477 C1483 0.930 . S
C1478 H1464 0.930 . S
C1478 C1476 1.395 . S
C1478 C1481 1.403 . S
C1479 C1476 1.403 . S
C1479 C1480 1.524 . S
C1479 C1483 1.400 . S
C1480 H1465 0.960 . S
C1480 H1466 0.960 . S
C1480 H1467 0.960 . S
C1480 C1479 1.524 . S
C1481 C1478 1.403 . S
C1481 C1482 1.392 . S
C1481 C1485 1.495 . S
C1482 C1481 1.392 . S
C1482 C1483 1.385 . S
C1482 C1484 1.478 . S
C1483 H1477 0.930 . S
C1483 C1479 1.400 . S
C1483 C1482 1.385 . S
C1484 C1482 1.478 . S
C1484 C1486 1.381 . S
C1484 C1490 1.383 . S
C1485 C1481 1.495 . S
C1485 H1491 0.959 . S
C1485 H1492 0.961 . S
C1485 H1493 0.960 . S
C1486 C1484 1.381 . S
C1486 C1487 1.394 . S
C1486 H1494 0.930 . S
C1487 C1486 1.394 . S
C1487 C1488 1.383 . S
C1487 H1495 0.929 . S
C1488 C1487 1.383 . S
C1488 C1489 1.377 . S
C1489 H1473 0.930 . S
C1489 C1488 1.377 . S
C1489 C1490 1.379 . S
C1490 H1474 0.931 . S
C1490 C1484 1.383 . S
C1490 C1489 1.379 . S
H1491 C1485 0.959 . S
H1492 C1485 0.961 . S
H1493 C1485 0.960 . S
H1494 C1486 0.930 . S
H1495 C1487 0.929 . S
H1496 C1504 0.929 . S
H1497 C1506 0.930 . S
H1498 C1508 0.930 . S
H1499 C1511 0.929 . S
H1500 C1514 0.930 . S
H1501 C1516 0.960 . S
H1502 C1516 0.960 . S
H1503 C1516 0.960 . S
C1504 H1496 0.929 . S
C1504 C1505 1.377 . S
C1504 C1506 1.384 . S
C1505 C1504 1.377 . S
C1505 C1511 1.390 . S
C1506 H1497 0.930 . S
C1506 C1504 1.384 . S
C1506 C1507 1.372 . S
C1507 C1506 1.372 . S
C1507 C1508 1.400 . S
C1507 C1512 1.490 . S
C1508 H1498 0.930 . S
C1508 C1507 1.400 . S
C1508 C1511 1.386 . S
H1509 C1525 0.930 . S
H1510 C1526 0.931 . S
C1511 H1499 0.929 . S
C1511 C1505 1.390 . S
C1511 C1508 1.386 . S
C1512 C1507 1.490 . S
C1512 C1514 1.395 . S
C1512 C1515 1.403 . S
H1513 C1519 0.930 . S
C1514 H1500 0.930 . S
C1514 C1512 1.395 . S
C1514 C1517 1.403 . S
C1515 C1512 1.403 . S
C1515 C1516 1.524 . S
C1515 C1519 1.400 . S
C1516 H1501 0.960 . S
C1516 H1502 0.960 . S
C1516 H1503 0.960 . S
C1516 C1515 1.524 . S
C1517 C1514 1.403 . S
C1517 C1518 1.392 . S
C1517 C1521 1.495 . S
C1518 C1517 1.392 . S
C1518 C1519 1.385 . S
C1518 C1520 1.478 . S
C1519 H1513 0.930 . S
C1519 C1515 1.400 . S
C1519 C1518 1.385 . S
C1520 C1518 1.478 . S
C1520 C1522 1.381 . S
C1520 C1526 1.383 . S
C1521 C1517 1.495 . S
C1521 H1527 0.959 . S
C1521 H1528 0.961 . S
C1521 H1529 0.960 . S
C1522 C1520 1.381 . S
C1522 C1523 1.394 . S
C1522 H1530 0.930 . S
C1523 C1522 1.394 . S
C1523 C1524 1.383 . S
C1523 H1531 0.929 . S
C1524 C1523 1.383 . S
C1524 C1525 1.377 . S
C1525 H1509 0.930 . S
C1525 C1524 1.377 . S
C1525 C1526 1.379 . S
C1526 H1510 0.931 . S
C1526 C1520 1.383 . S
C1526 C1525 1.379 . S
H1527 C1521 0.959 . S
H1528 C1521 0.961 . S
H1529 C1521 0.960 . S
H1530 C1522 0.930 . S
H1531 C1523 0.929 . S
H1532 C1540 0.929 . S
H1533 C1542 0.930 . S
H1534 C1544 0.930 . S
H1535 C1547 0.929 . S
H1536 C1550 0.930 . S
H1537 C1552 0.960 . S
H1538 C1552 0.960 . S
H1539 C1552 0.960 . S
C1540 H1532 0.929 . S
C1540 C1541 1.377 . S
C1540 C1542 1.384 . S
C1541 C1540 1.377 . S
C1541 C1547 1.390 . S
C1542 H1533 0.930 . S
C1542 C1540 1.384 . S
C1542 C1543 1.372 . S
C1543 C1542 1.372 . S
C1543 C1544 1.400 . S
C1543 C1548 1.490 . S
C1544 H1534 0.930 . S
C1544 C1543 1.400 . S
C1544 C1547 1.386 . S
H1545 C1561 0.930 . S
H1546 C1562 0.931 1_455 S
C1547 H1535 0.929 . S
C1547 C1541 1.390 . S
C1547 C1544 1.386 . S
C1548 C1543 1.490 . S
C1548 C1550 1.395 . S
C1548 C1551 1.403 . S
H1549 C1555 0.930 . S
C1550 H1536 0.930 . S
C1550 C1548 1.395 . S
C1550 C1553 1.403 . S
C1551 C1548 1.403 . S
C1551 C1552 1.524 . S
C1551 C1555 1.400 . S
C1552 H1537 0.960 . S
C1552 H1538 0.960 . S
C1552 H1539 0.960 . S
C1552 C1551 1.524 . S
C1553 C1550 1.403 . S
C1553 C1554 1.392 . S
C1553 C1557 1.490 1_455 S
C1554 C1553 1.392 . S
C1554 C1555 1.385 . S
C1554 C1556 1.478 1_455 S
C1555 H1549 0.930 . S
C1555 C1551 1.400 . S
C1555 C1554 1.385 . S
C1556 C1554 1.478 1_655 S
C1556 C1558 1.381 . S
C1556 C1562 1.383 . S
C1557 C1553 1.490 1_655 S
C1557 H1563 0.957 1_655 S
C1557 H1564 0.963 . S
C1557 H1565 0.965 . S
C1558 C1556 1.381 . S
C1558 C1559 1.394 . S
C1558 H1566 0.930 . S
C1559 C1558 1.394 . S
C1559 C1560 1.383 . S
C1559 H1567 0.929 . S
C1560 C1559 1.383 . S
C1560 C1561 1.377 . S
C1561 H1545 0.930 . S
C1561 C1560 1.377 . S
C1561 C1562 1.379 . S
C1562 H1546 0.931 1_655 S
C1562 C1556 1.383 . S
C1562 C1561 1.379 . S
H1563 C1557 0.957 1_455 S
H1564 C1557 0.963 . S
H1565 C1557 0.965 . S
H1566 C1558 0.930 . S
H1567 C1559 0.929 . S
H1568 C1576 0.929 . S
H1569 C1578 0.930 . S
H1570 C1580 0.930 . S
H1571 C1583 0.929 . S
H1572 C1586 0.930 . S
H1573 C1588 0.960 . S
H1574 C1588 0.960 . S
H1575 C1588 0.960 . S
C1576 H1568 0.929 . S
C1576 C1577 1.377 . S
C1576 C1578 1.384 . S
C1577 C1576 1.377 . S
C1577 C1583 1.390 . S
C1578 H1569 0.930 . S
C1578 C1576 1.384 . S
C1578 C1579 1.372 . S
C1579 C1578 1.372 . S
C1579 C1580 1.400 . S
C1579 C1584 1.490 . S
C1580 H1570 0.930 . S
C1580 C1579 1.400 . S
C1580 C1583 1.386 . S
H1581 C1597 0.930 . S
H1582 C1598 0.931 . S
C1583 H1571 0.929 . S
C1583 C1577 1.390 . S
C1583 C1580 1.386 . S
C1584 C1579 1.490 . S
C1584 C1586 1.395 . S
C1584 C1587 1.403 . S
H1585 C1591 0.930 . S
C1586 H1572 0.930 . S
C1586 C1584 1.395 . S
C1586 C1589 1.403 . S
C1587 C1584 1.403 . S
C1587 C1588 1.524 . S
C1587 C1591 1.400 . S
C1588 H1573 0.960 . S
C1588 H1574 0.960 . S
C1588 H1575 0.960 . S
C1588 C1587 1.524 . S
C1589 C1586 1.403 . S
C1589 C1590 1.392 . S
C1589 C1593 1.495 . S
C1590 C1589 1.392 . S
C1590 C1591 1.385 . S
C1590 C1592 1.478 . S
C1591 H1585 0.930 . S
C1591 C1587 1.400 . S
C1591 C1590 1.385 . S
C1592 C1590 1.478 . S
C1592 C1594 1.381 . S
C1592 C1598 1.383 . S
C1593 C1589 1.495 . S
C1593 H1599 0.959 . S
C1593 H1600 0.961 . S
C1593 H1601 0.960 . S
C1594 C1592 1.381 . S
C1594 C1595 1.394 . S
C1594 H1602 0.930 . S
C1595 C1594 1.394 . S
C1595 C1596 1.383 . S
C1595 H1603 0.929 . S
C1596 C1595 1.383 . S
C1596 C1597 1.377 . S
C1597 H1581 0.930 . S
C1597 C1596 1.377 . S
C1597 C1598 1.379 . S
C1598 H1582 0.931 . S
C1598 C1592 1.383 . S
C1598 C1597 1.379 . S
H1599 C1593 0.959 . S
H1600 C1593 0.961 . S
H1601 C1593 0.960 . S
H1602 C1594 0.930 . S
H1603 C1595 0.929 . S
H1604 C1612 0.929 . S
H1605 C1614 0.930 . S
H1606 C1616 0.930 . S
H1607 C1619 0.929 . S
H1608 C1622 0.930 . S
H1609 C1624 0.960 . S
H1610 C1624 0.960 . S
H1611 C1624 0.960 . S
C1612 H1604 0.929 . S
C1612 C1613 1.377 . S
C1612 C1614 1.384 . S
C1613 C1612 1.377 . S
C1613 C1619 1.390 . S
C1614 H1605 0.930 . S
C1614 C1612 1.384 . S
C1614 C1615 1.372 . S
C1615 C1614 1.372 . S
C1615 C1616 1.400 . S
C1615 C1620 1.490 . S
C1616 H1606 0.930 . S
C1616 C1615 1.400 . S
C1616 C1619 1.386 . S
H1617 C1633 0.930 . S
H1618 C1634 0.931 . S
C1619 H1607 0.929 . S
C1619 C1613 1.390 . S
C1619 C1616 1.386 . S
C1620 C1615 1.490 . S
C1620 C1622 1.395 . S
C1620 C1623 1.403 . S
H1621 C1627 0.930 . S
C1622 H1608 0.930 . S
C1622 C1620 1.395 . S
C1622 C1625 1.403 . S
C1623 C1620 1.403 . S
C1623 C1624 1.524 . S
C1623 C1627 1.400 . S
C1624 H1609 0.960 . S
C1624 H1610 0.960 . S
C1624 H1611 0.960 . S
C1624 C1623 1.524 . S
C1625 C1622 1.403 . S
C1625 C1626 1.392 . S
C1625 C1629 1.495 . S
C1626 C1625 1.392 . S
C1626 C1627 1.385 . S
C1626 C1628 1.478 . S
C1627 H1621 0.930 . S
C1627 C1623 1.400 . S
C1627 C1626 1.385 . S
C1628 C1626 1.478 . S
C1628 C1630 1.381 . S
C1628 C1634 1.383 . S
C1629 C1625 1.495 . S
C1629 H1635 0.959 . S
C1629 H1636 0.961 . S
C1629 H1637 0.960 . S
C1630 C1628 1.381 . S
C1630 C1631 1.394 . S
C1630 H1638 0.930 . S
C1631 C1630 1.394 . S
C1631 C1632 1.383 . S
C1631 H1639 0.929 . S
C1632 C1631 1.383 . S
C1632 C1633 1.377 . S
C1633 H1617 0.930 . S
C1633 C1632 1.377 . S
C1633 C1634 1.379 . S
C1634 H1618 0.931 . S
C1634 C1628 1.383 . S
C1634 C1633 1.379 . S
H1635 C1629 0.959 . S
H1636 C1629 0.961 . S
H1637 C1629 0.960 . S
H1638 C1630 0.930 . S
H1639 C1631 0.929 . S
H1640 C1648 0.929 . S
H1641 C1650 0.930 . S
H1642 C1652 0.930 . S
H1643 C1655 0.929 . S
H1644 C1658 0.930 . S
H1645 C1660 0.960 . S
H1646 C1660 0.960 . S
H1647 C1660 0.960 . S
C1648 H1640 0.929 . S
C1648 C1649 1.377 . S
C1648 C1650 1.384 . S
C1649 C1648 1.377 . S
C1649 C1655 1.390 . S
C1650 H1641 0.930 . S
C1650 C1648 1.384 . S
C1650 C1651 1.372 . S
C1651 C1650 1.372 . S
C1651 C1652 1.400 . S
C1651 C1656 1.490 . S
C1652 H1642 0.930 . S
C1652 C1651 1.400 . S
C1652 C1655 1.386 . S
H1653 C1669 0.930 . S
H1654 C1670 0.931 . S
C1655 H1643 0.929 . S
C1655 C1649 1.390 . S
C1655 C1652 1.386 . S
C1656 C1651 1.490 . S
C1656 C1658 1.395 . S
C1656 C1659 1.403 . S
H1657 C1663 0.930 . S
C1658 H1644 0.930 . S
C1658 C1656 1.395 . S
C1658 C1661 1.403 . S
C1659 C1656 1.403 . S
C1659 C1660 1.524 . S
C1659 C1663 1.400 . S
C1660 H1645 0.960 . S
C1660 H1646 0.960 . S
C1660 H1647 0.960 . S
C1660 C1659 1.524 . S
C1661 C1658 1.403 . S
C1661 C1662 1.392 . S
C1661 C1665 1.495 . S
C1662 C1661 1.392 . S
C1662 C1663 1.385 . S
C1662 C1664 1.478 . S
C1663 H1657 0.930 . S
C1663 C1659 1.400 . S
C1663 C1662 1.385 . S
C1664 C1662 1.478 . S
C1664 C1666 1.381 . S
C1664 C1670 1.383 . S
C1665 C1661 1.495 . S
C1665 H1671 0.959 . S
C1665 H1672 0.961 . S
C1665 H1673 0.960 . S
C1666 C1664 1.381 . S
C1666 C1667 1.394 . S
C1666 H1674 0.930 . S
C1667 C1666 1.394 . S
C1667 C1668 1.383 . S
C1667 H1675 0.929 . S
C1668 C1667 1.383 . S
C1668 C1669 1.377 . S
C1669 H1653 0.930 . S
C1669 C1668 1.377 . S
C1669 C1670 1.379 . S
C1670 H1654 0.931 . S
C1670 C1664 1.383 . S
C1670 C1669 1.379 . S
H1671 C1665 0.959 . S
H1672 C1665 0.961 . S
H1673 C1665 0.960 . S
H1674 C1666 0.930 . S
H1675 C1667 0.929 . S
H1676 C1684 0.929 . S
H1677 C1686 0.930 . S
H1678 C1688 0.930 . S
H1679 C1691 0.929 . S
H1680 C1694 0.930 . S
H1681 C1696 0.960 . S
H1682 C1696 0.960 . S
H1683 C1696 0.960 . S
C1684 H1676 0.929 . S
C1684 C1685 1.377 . S
C1684 C1686 1.384 . S
C1685 C1684 1.377 . S
C1685 C1691 1.390 . S
C1686 H1677 0.930 . S
C1686 C1684 1.384 . S
C1686 C1687 1.372 . S
C1687 C1686 1.372 . S
C1687 C1688 1.400 . S
C1687 C1692 1.490 . S
C1688 H1678 0.930 . S
C1688 C1687 1.400 . S
C1688 C1691 1.386 . S
H1689 C1705 0.930 . S
H1690 C1706 0.931 . S
C1691 H1679 0.929 . S
C1691 C1685 1.390 . S
C1691 C1688 1.386 . S
C1692 C1687 1.490 . S
C1692 C1694 1.395 . S
C1692 C1695 1.403 . S
H1693 C1699 0.930 . S
C1694 H1680 0.930 . S
C1694 C1692 1.395 . S
C1694 C1697 1.403 . S
C1695 C1692 1.403 . S
C1695 C1696 1.524 . S
C1695 C1699 1.400 . S
C1696 H1681 0.960 . S
C1696 H1682 0.960 . S
C1696 H1683 0.960 . S
C1696 C1695 1.524 . S
C1697 C1694 1.403 . S
C1697 C1698 1.392 . S
C1697 C1701 1.495 . S
C1698 C1697 1.392 . S
C1698 C1699 1.385 . S
C1698 C1700 1.450 1_455 S
C1699 H1693 0.930 . S
C1699 C1695 1.400 . S
C1699 C1698 1.385 . S
C1700 C1698 1.450 1_655 S
C1700 C1702 1.393 . S
C1700 C1706 1.402 . S
C1701 C1697 1.495 . S
C1701 H1707 0.959 . S
C1701 H1708 0.961 . S
C1701 H1709 0.960 . S
C1702 C1700 1.393 . S
C1702 C1703 1.394 . S
C1702 H1710 0.923 1_655 S
C1703 C1702 1.394 . S
C1703 C1704 1.383 . S
C1703 H1711 0.929 . S
C1704 C1703 1.383 . S
C1704 C1705 1.377 . S
C1705 H1689 0.930 . S
C1705 C1704 1.377 . S
C1705 C1706 1.379 . S
C1706 H1690 0.931 . S
C1706 C1700 1.402 . S
C1706 C1705 1.379 . S
H1707 C1701 0.959 . S
H1708 C1701 0.961 . S
H1709 C1701 0.960 . S
H1710 C1702 0.923 1_455 S
H1711 C1703 0.929 . S
H1712 C1720 0.929 . S
H1713 C1722 0.930 . S
H1714 C1724 0.930 . S
H1715 C1727 0.929 . S
H1716 C1730 0.930 . S
H1717 C1732 0.960 . S
H1718 C1732 0.960 . S
H1719 C1732 0.960 . S
C1720 H1712 0.929 . S
C1720 C1721 1.377 . S
C1720 C1722 1.384 . S
C1721 C1720 1.377 . S
C1721 C1727 1.390 . S
C1722 H1713 0.930 . S
C1722 C1720 1.384 . S
C1722 C1723 1.372 . S
C1723 C1722 1.372 . S
C1723 C1724 1.400 . S
C1723 C1728 1.490 . S
C1724 H1714 0.930 . S
C1724 C1723 1.400 . S
C1724 C1727 1.386 . S
H1725 C1741 0.930 . S
H1726 C1742 0.931 . S
C1727 H1715 0.929 . S
C1727 C1721 1.390 . S
C1727 C1724 1.386 . S
C1728 C1723 1.490 . S
C1728 C1730 1.395 . S
C1728 C1731 1.403 . S
H1729 C1735 0.930 . S
C1730 H1716 0.930 . S
C1730 C1728 1.395 . S
C1730 C1733 1.403 . S
C1731 C1728 1.403 . S
C1731 C1732 1.524 . S
C1731 C1735 1.400 . S
C1732 H1717 0.960 . S
C1732 H1718 0.960 . S
C1732 H1719 0.960 . S
C1732 C1731 1.524 . S
C1733 C1730 1.403 . S
C1733 C1734 1.392 . S
C1733 C1737 1.495 . S
C1734 C1733 1.392 . S
C1734 C1735 1.385 . S
C1734 C1736 1.478 . S
C1735 H1729 0.930 . S
C1735 C1731 1.400 . S
C1735 C1734 1.385 . S
C1736 C1734 1.478 . S
C1736 C1738 1.381 . S
C1736 C1742 1.383 . S
C1737 C1733 1.495 . S
C1737 H1743 0.959 . S
C1737 H1744 0.961 . S
C1737 H1745 0.960 . S
C1738 C1736 1.381 . S
C1738 C1739 1.394 . S
C1738 H1746 0.930 . S
C1739 C1738 1.394 . S
C1739 C1740 1.383 . S
C1739 H1747 0.929 . S
C1740 C1739 1.383 . S
C1740 C1741 1.377 . S
C1741 H1725 0.930 . S
C1741 C1740 1.377 . S
C1741 C1742 1.379 . S
C1742 H1726 0.931 . S
C1742 C1736 1.383 . S
C1742 C1741 1.379 . S
H1743 C1737 0.959 . S
H1744 C1737 0.961 . S
H1745 C1737 0.960 . S
H1746 C1738 0.930 . S
H1747 C1739 0.929 . S
H1748 C1756 0.929 . S
H1749 C1758 0.930 1_455 S
H1750 C1760 0.930 . S
H1751 C1763 0.929 . S
H1752 C1766 0.930 . S
H1753 C1768 0.960 . S
H1754 C1768 0.960 . S
H1755 C1768 0.960 . S
C1756 H1748 0.929 . S
C1756 C1757 1.377 . S
C1756 C1758 1.384 . S
C1757 C1756 1.377 . S
C1757 C1763 1.390 . S
C1758 H1749 0.930 1_655 S
C1758 C1756 1.384 . S
C1758 C1759 1.372 . S
C1759 C1758 1.372 . S
C1759 C1760 1.400 . S
C1759 C1764 1.490 1_655 S
C1760 H1750 0.930 . S
C1760 C1759 1.400 . S
C1760 C1763 1.386 . S
H1761 C1777 0.930 . S
H1762 C1778 0.931 . S
C1763 H1751 0.929 . S
C1763 C1757 1.390 . S
C1763 C1760 1.386 . S
C1764 C1759 1.490 1_455 S
C1764 C1766 1.395 . S
C1764 C1767 1.403 . S
H1765 C1771 0.930 . S
C1766 H1752 0.930 . S
C1766 C1764 1.395 . S
C1766 C1769 1.403 . S
C1767 C1764 1.403 . S
C1767 C1768 1.524 . S
C1767 C1771 1.400 . S
C1768 H1753 0.960 . S
C1768 H1754 0.960 . S
C1768 H1755 0.960 . S
C1768 C1767 1.524 . S
C1769 C1766 1.403 . S
C1769 C1770 1.392 . S
C1769 C1773 1.495 . S
C1770 C1769 1.392 . S
C1770 C1771 1.385 . S
C1770 C1772 1.478 . S
C1771 H1765 0.930 . S
C1771 C1767 1.400 . S
C1771 C1770 1.385 . S
C1772 C1770 1.478 . S
C1772 C1774 1.381 . S
C1772 C1778 1.383 . S
C1773 C1769 1.495 . S
C1773 H1779 0.959 . S
C1773 H1780 0.961 . S
C1773 H1781 0.960 . S
C1774 C1772 1.381 . S
C1774 C1775 1.394 . S
C1774 H1782 0.930 . S
C1775 C1774 1.394 . S
C1775 C1776 1.383 . S
C1775 H1783 0.929 . S
C1776 C1775 1.383 . S
C1776 C1777 1.377 . S
C1777 H1761 0.930 . S
C1777 C1776 1.377 . S
C1777 C1778 1.379 . S
C1778 H1762 0.931 . S
C1778 C1772 1.383 . S
C1778 C1777 1.379 . S
H1779 C1773 0.959 . S
H1780 C1773 0.961 . S
H1781 C1773 0.960 . S
H1782 C1774 0.930 . S
H1783 C1775 0.929 . S
H1784 C1792 0.929 . S
H1785 C1794 0.930 . S
H1786 C1796 0.930 . S
H1787 C1799 0.929 . S
H1788 C1802 0.930 . S
H1789 C1804 0.960 . S
H1790 C1804 0.960 . S
H1791 C1804 0.960 . S
C1792 H1784 0.929 . S
C1792 C1793 1.377 . S
C1792 C1794 1.384 . S
C1793 C1792 1.377 . S
C1793 C1799 1.390 . S
C1794 H1785 0.930 . S
C1794 C1792 1.384 . S
C1794 C1795 1.372 . S
C1795 C1794 1.372 . S
C1795 C1796 1.400 . S
C1795 C1800 1.490 . S
C1796 H1786 0.930 . S
C1796 C1795 1.400 . S
C1796 C1799 1.386 . S
H1797 C1813 0.930 . S
H1798 C1814 0.931 . S
C1799 H1787 0.929 . S
C1799 C1793 1.390 . S
C1799 C1796 1.386 . S
C1800 C1795 1.490 . S
C1800 C1802 1.395 . S
C1800 C1803 1.403 . S
H1801 C1807 0.930 . S
C1802 H1788 0.930 . S
C1802 C1800 1.395 . S
C1802 C1805 1.403 . S
C1803 C1800 1.403 . S
C1803 C1804 1.524 . S
C1803 C1807 1.400 . S
C1804 H1789 0.960 . S
C1804 H1790 0.960 . S
C1804 H1791 0.960 . S
C1804 C1803 1.524 . S
C1805 C1802 1.403 . S
C1805 C1806 1.392 . S
C1805 C1809 1.495 . S
C1806 C1805 1.392 . S
C1806 C1807 1.385 . S
C1806 C1808 1.478 . S
C1807 H1801 0.930 . S
C1807 C1803 1.400 . S
C1807 C1806 1.385 . S
C1808 C1806 1.478 . S
C1808 C1810 1.381 . S
C1808 C1814 1.383 . S
C1809 C1805 1.495 . S
C1809 H1815 0.959 . S
C1809 H1816 0.961 . S
C1809 H1817 0.960 . S
C1810 C1808 1.381 . S
C1810 C1811 1.394 . S
C1810 H1818 0.930 . S
C1811 C1810 1.394 . S
C1811 C1812 1.383 . S
C1811 H1819 0.929 . S
C1812 C1811 1.383 . S
C1812 C1813 1.377 . S
C1813 H1797 0.930 . S
C1813 C1812 1.377 . S
C1813 C1814 1.379 . S
C1814 H1798 0.931 . S
C1814 C1808 1.383 . S
C1814 C1813 1.379 . S
H1815 C1809 0.959 . S
H1816 C1809 0.961 . S
H1817 C1809 0.960 . S
H1818 C1810 0.930 . S
H1819 C1811 0.929 . S
H1820 C1828 0.929 . S
H1821 C1830 0.930 . S
H1822 C1832 0.930 . S
H1823 C1835 0.929 . S
H1824 C1838 0.930 . S
H1825 C1840 0.960 . S
H1826 C1840 0.960 . S
H1827 C1840 0.960 . S
C1828 H1820 0.929 . S
C1828 C1829 1.377 . S
C1828 C1830 1.384 . S
C1829 C1828 1.377 . S
C1829 C1835 1.390 . S
C1830 H1821 0.930 . S
C1830 C1828 1.384 . S
C1830 C1831 1.372 . S
C1831 C1830 1.372 . S
C1831 C1832 1.400 . S
C1831 C1836 1.490 . S
C1832 H1822 0.930 . S
C1832 C1831 1.400 . S
C1832 C1835 1.386 . S
H1833 C1849 0.930 . S
H1834 C1850 0.931 . S
C1835 H1823 0.929 . S
C1835 C1829 1.390 . S
C1835 C1832 1.386 . S
C1836 C1831 1.490 . S
C1836 C1838 1.395 . S
C1836 C1839 1.403 . S
H1837 C1843 0.930 . S
C1838 H1824 0.930 . S
C1838 C1836 1.395 . S
C1838 C1841 1.403 . S
C1839 C1836 1.403 . S
C1839 C1840 1.524 . S
C1839 C1843 1.400 . S
C1840 H1825 0.960 . S
C1840 H1826 0.960 . S
C1840 H1827 0.960 . S
C1840 C1839 1.524 . S
C1841 C1838 1.403 . S
C1841 C1842 1.392 . S
C1841 C1845 1.495 . S
C1842 C1841 1.392 . S
C1842 C1843 1.385 . S
C1842 C1844 1.478 . S
C1843 H1837 0.930 . S
C1843 C1839 1.400 . S
C1843 C1842 1.385 . S
C1844 C1842 1.478 . S
C1844 C1846 1.381 . S
C1844 C1850 1.383 . S
C1845 C1841 1.495 . S
C1845 H1851 0.959 . S
C1845 H1852 0.961 . S
C1845 H1853 0.960 . S
C1846 C1844 1.381 . S
C1846 C1847 1.394 . S
C1846 H1854 0.930 . S
C1847 C1846 1.394 . S
C1847 C1848 1.383 . S
C1847 H1855 0.929 . S
C1848 C1847 1.383 . S
C1848 C1849 1.377 . S
C1849 H1833 0.930 . S
C1849 C1848 1.377 . S
C1849 C1850 1.379 . S
C1850 H1834 0.931 . S
C1850 C1844 1.383 . S
C1850 C1849 1.379 . S
H1851 C1845 0.959 . S
H1852 C1845 0.961 . S
H1853 C1845 0.960 . S
H1854 C1846 0.930 . S
H1855 C1847 0.929 . S
H1856 C1864 0.929 . S
H1857 C1866 0.930 . S
H1858 C1868 0.930 . S
H1859 C1871 0.929 . S
H1860 C1874 0.930 . S
H1861 C1876 0.960 . S
H1862 C1876 0.960 . S
H1863 C1876 0.960 . S
C1864 H1856 0.929 . S
C1864 C1865 1.377 . S
C1864 C1866 1.384 . S
C1865 C1864 1.377 . S
C1865 C1871 1.390 . S
C1866 H1857 0.930 . S
C1866 C1864 1.384 . S
C1866 C1867 1.372 . S
C1867 C1866 1.372 . S
C1867 C1868 1.400 . S
C1867 C1872 1.490 . S
C1868 H1858 0.930 . S
C1868 C1867 1.400 . S
C1868 C1871 1.386 . S
H1869 C1885 0.930 . S
H1870 C1886 0.931 . S
C1871 H1859 0.929 . S
C1871 C1865 1.390 . S
C1871 C1868 1.386 . S
C1872 C1867 1.490 . S
C1872 C1874 1.395 . S
C1872 C1875 1.403 . S
H1873 C1879 0.930 . S
C1874 H1860 0.930 . S
C1874 C1872 1.395 . S
C1874 C1877 1.403 . S
C1875 C1872 1.403 . S
C1875 C1876 1.524 . S
C1875 C1879 1.400 . S
C1876 H1861 0.960 . S
C1876 H1862 0.960 . S
C1876 H1863 0.960 . S
C1876 C1875 1.524 . S
C1877 C1874 1.403 . S
C1877 C1878 1.392 . S
C1877 C1881 1.495 . S
C1878 C1877 1.392 . S
C1878 C1879 1.385 . S
C1878 C1880 1.478 . S
C1879 H1873 0.930 . S
C1879 C1875 1.400 . S
C1879 C1878 1.385 . S
C1880 C1878 1.478 . S
C1880 C1882 1.381 . S
C1880 C1886 1.383 . S
C1881 C1877 1.495 . S
C1881 H1887 0.959 . S
C1881 H1888 0.961 . S
C1881 H1889 0.960 . S
C1882 C1880 1.381 . S
C1882 C1883 1.394 . S
C1882 H1890 0.930 . S
C1883 C1882 1.394 . S
C1883 C1884 1.383 . S
C1883 H1891 0.929 . S
C1884 C1883 1.383 . S
C1884 C1885 1.377 . S
C1885 H1869 0.930 . S
C1885 C1884 1.377 . S
C1885 C1886 1.379 . S
C1886 H1870 0.931 . S
C1886 C1880 1.383 . S
C1886 C1885 1.379 . S
H1887 C1881 0.959 . S
H1888 C1881 0.961 . S
H1889 C1881 0.960 . S
H1890 C1882 0.930 . S
H1891 C1883 0.929 . S
H1892 C1900 0.929 . S
H1893 C1902 0.930 . S
H1894 C1904 0.930 . S
H1895 C1907 0.929 . S
H1896 C1910 0.930 . S
H1897 C1912 0.960 . S
H1898 C1912 0.960 . S
H1899 C1912 0.960 . S
C1900 H1892 0.929 . S
C1900 C1901 1.377 . S
C1900 C1902 1.384 . S
C1901 C1900 1.377 . S
C1901 C1907 1.390 . S
C1902 H1893 0.930 . S
C1902 C1900 1.384 . S
C1902 C1903 1.372 . S
C1903 C1902 1.372 . S
C1903 C1904 1.400 . S
C1903 C1908 1.490 . S
C1904 H1894 0.930 . S
C1904 C1903 1.400 . S
C1904 C1907 1.386 . S
H1905 C1921 0.930 . S
H1906 C1922 0.931 . S
C1907 H1895 0.929 . S
C1907 C1901 1.390 . S
C1907 C1904 1.386 . S
C1908 C1903 1.490 . S
C1908 C1910 1.395 . S
C1908 C1911 1.403 . S
H1909 C1915 0.930 . S
C1910 H1896 0.930 . S
C1910 C1908 1.395 . S
C1910 C1913 1.403 . S
C1911 C1908 1.403 . S
C1911 C1912 1.524 . S
C1911 C1915 1.400 . S
C1912 H1897 0.960 . S
C1912 H1898 0.960 . S
C1912 H1899 0.960 . S
C1912 C1911 1.524 . S
C1913 C1910 1.403 . S
C1913 C1914 1.392 . S
C1913 C1917 1.495 . S
C1914 C1913 1.392 . S
C1914 C1915 1.385 . S
C1914 C1916 1.478 . S
C1915 H1909 0.930 . S
C1915 C1911 1.400 . S
C1915 C1914 1.385 . S
C1916 C1914 1.478 . S
C1916 C1918 1.381 . S
C1916 C1922 1.383 . S
C1917 C1913 1.495 . S
C1917 H1923 0.959 . S
C1917 H1924 0.961 . S
C1917 H1925 0.960 . S
C1918 C1916 1.381 . S
C1918 C1919 1.394 . S
C1918 H1926 0.930 . S
C1919 C1918 1.394 . S
C1919 C1920 1.383 . S
C1919 H1927 0.929 . S
C1920 C1919 1.383 . S
C1920 C1921 1.377 . S
C1921 H1905 0.930 . S
C1921 C1920 1.377 . S
C1921 C1922 1.379 . S
C1922 H1906 0.931 . S
C1922 C1916 1.383 . S
C1922 C1921 1.379 . S
H1923 C1917 0.959 . S
H1924 C1917 0.961 . S
H1925 C1917 0.960 . S
H1926 C1918 0.930 . S
H1927 C1919 0.929 . S
H1928 C1936 0.929 . S
H1929 C1938 0.930 . S
H1930 C1940 0.930 . S
H1931 C1943 0.929 . S
H1932 C1946 0.930 . S
H1933 C1948 0.960 . S
H1934 C1948 0.960 . S
H1935 C1948 0.960 . S
C1936 H1928 0.929 . S
C1936 C1937 1.377 . S
C1936 C1938 1.384 . S
C1937 C1936 1.377 . S
C1937 C1943 1.390 . S
C1938 H1929 0.930 . S
C1938 C1936 1.384 . S
C1938 C1939 1.372 . S
C1939 C1938 1.372 . S
C1939 C1940 1.400 . S
C1939 C1944 1.490 . S
C1940 H1930 0.930 . S
C1940 C1939 1.400 . S
C1940 C1943 1.386 . S
H1941 C1957 0.930 . S
H1942 C1958 0.931 . S
C1943 H1931 0.929 . S
C1943 C1937 1.390 . S
C1943 C1940 1.386 . S
C1944 C1939 1.490 . S
C1944 C1946 1.395 . S
C1944 C1947 1.403 . S
H1945 C1951 0.930 . S
C1946 H1932 0.930 . S
C1946 C1944 1.395 . S
C1946 C1949 1.403 . S
C1947 C1944 1.403 . S
C1947 C1948 1.524 . S
C1947 C1951 1.400 . S
C1948 H1933 0.960 . S
C1948 H1934 0.960 . S
C1948 H1935 0.960 . S
C1948 C1947 1.524 . S
C1949 C1946 1.403 . S
C1949 C1950 1.392 . S
C1949 C1953 1.495 . S
C1950 C1949 1.392 . S
C1950 C1951 1.385 . S
C1950 C1952 1.478 . S
C1951 H1945 0.930 . S
C1951 C1947 1.400 . S
C1951 C1950 1.385 . S
C1952 C1950 1.478 . S
C1952 C1954 1.381 . S
C1952 C1958 1.383 . S
C1953 C1949 1.495 . S
C1953 H1959 0.959 . S
C1953 H1960 0.961 . S
C1953 H1961 0.960 . S
C1954 C1952 1.381 . S
C1954 C1955 1.394 . S
C1954 H1962 0.930 . S
C1955 C1954 1.394 . S
C1955 C1956 1.383 . S
C1955 H1963 0.929 . S
C1956 C1955 1.383 . S
C1956 C1957 1.377 . S
C1957 H1941 0.930 . S
C1957 C1956 1.377 . S
C1957 C1958 1.379 . S
C1958 H1942 0.931 . S
C1958 C1952 1.383 . S
C1958 C1957 1.379 . S
H1959 C1953 0.959 . S
H1960 C1953 0.961 . S
H1961 C1953 0.960 . S
H1962 C1954 0.930 . S
H1963 C1955 0.929 . S
H1964 C1972 0.929 . S
H1965 C1974 0.930 . S
H1966 C1976 0.930 . S
H1967 C1979 0.929 . S
H1968 C1982 0.930 . S
H1969 C1984 0.960 . S
H1970 C1984 0.960 . S
H1971 C1984 0.960 . S
C1972 H1964 0.929 . S
C1972 C1973 1.377 . S
C1972 C1974 1.384 . S
C1973 C1972 1.377 . S
C1973 C1979 1.390 . S
C1974 H1965 0.930 . S
C1974 C1972 1.384 . S
C1974 C1975 1.372 . S
C1975 C1974 1.372 . S
C1975 C1976 1.400 . S
C1975 C1980 1.490 . S
C1976 H1966 0.930 . S
C1976 C1975 1.400 . S
C1976 C1979 1.386 . S
H1977 C1993 0.930 . S
H1978 C1994 0.931 . S
C1979 H1967 0.929 . S
C1979 C1973 1.390 . S
C1979 C1976 1.386 . S
C1980 C1975 1.490 . S
C1980 C1982 1.395 . S
C1980 C1983 1.403 . S
H1981 C1987 0.930 . S
C1982 H1968 0.930 . S
C1982 C1980 1.395 . S
C1982 C1985 1.403 . S
C1983 C1980 1.403 . S
C1983 C1984 1.524 . S
C1983 C1987 1.400 . S
C1984 H1969 0.960 . S
C1984 H1970 0.960 . S
C1984 H1971 0.960 . S
C1984 C1983 1.524 . S
C1985 C1982 1.403 . S
C1985 C1986 1.392 . S
C1985 C1989 1.495 . S
C1986 C1985 1.392 . S
C1986 C1987 1.385 . S
C1986 C1988 1.446 1_655 S
C1987 H1981 0.930 . S
C1987 C1983 1.400 . S
C1987 C1986 1.385 . S
C1988 C1986 1.446 1_455 S
C1988 C1990 1.389 . S
C1988 C1994 1.410 . S
C1989 C1985 1.495 . S
C1989 H1995 0.959 . S
C1989 H1996 0.961 . S
C1989 H1997 0.960 . S
C1990 C1988 1.389 . S
C1990 C1991 1.394 . S
C1990 H1998 0.930 1_455 S
C1991 C1990 1.394 . S
C1991 C1992 1.383 . S
C1991 H1999 0.929 . S
C1992 C1991 1.383 . S
C1992 C1993 1.377 . S
C1993 H1977 0.930 . S
C1993 C1992 1.377 . S
C1993 C1994 1.379 . S
C1994 H1978 0.931 . S
C1994 C1988 1.410 . S
C1994 C1993 1.379 . S
H1995 C1989 0.959 . S
H1996 C1989 0.961 . S
H1997 C1989 0.960 . S
H1998 C1990 0.930 1_655 S
H1999 C1991 0.929 . S
H2000 C2008 0.929 . S
H2001 C2010 0.930 . S
H2002 C2012 0.930 . S
H2003 C2015 0.929 . S
H2004 C2018 0.930 . S
H2005 C2020 0.960 . S
H2006 C2020 0.960 . S
H2007 C2020 0.960 . S
C2008 H2000 0.929 . S
C2008 C2009 1.377 . S
C2008 C2010 1.384 . S
C2009 C2008 1.377 . S
C2009 C2015 1.390 . S
C2010 H2001 0.930 . S
C2010 C2008 1.384 . S
C2010 C2011 1.372 . S
C2011 C2010 1.372 . S
C2011 C2012 1.400 . S
C2011 C2016 1.490 . S
C2012 H2002 0.930 . S
C2012 C2011 1.400 . S
C2012 C2015 1.386 . S
H2013 C2029 0.930 . S
H2014 C2030 0.931 . S
C2015 H2003 0.929 . S
C2015 C2009 1.390 . S
C2015 C2012 1.386 . S
C2016 C2011 1.490 . S
C2016 C2018 1.395 . S
C2016 C2019 1.403 . S
H2017 C2023 0.930 . S
C2018 H2004 0.930 . S
C2018 C2016 1.395 . S
C2018 C2021 1.403 . S
C2019 C2016 1.403 . S
C2019 C2020 1.524 . S
C2019 C2023 1.400 . S
C2020 H2005 0.960 . S
C2020 H2006 0.960 . S
C2020 H2007 0.960 . S
C2020 C2019 1.524 . S
C2021 C2018 1.403 . S
C2021 C2022 1.392 . S
C2021 C2025 1.495 . S
C2022 C2021 1.392 . S
C2022 C2023 1.385 . S
C2022 C2024 1.478 . S
C2023 H2017 0.930 . S
C2023 C2019 1.400 . S
C2023 C2022 1.385 . S
C2024 C2022 1.478 . S
C2024 C2026 1.381 . S
C2024 C2030 1.383 . S
C2025 C2021 1.495 . S
C2025 H2031 0.959 . S
C2025 H2032 0.961 . S
C2025 H2033 0.960 . S
C2026 C2024 1.381 . S
C2026 C2027 1.394 . S
C2026 H2034 0.930 . S
C2027 C2026 1.394 . S
C2027 C2028 1.383 . S
C2027 H2035 0.929 . S
C2028 C2027 1.383 . S
C2028 C2029 1.377 . S
C2029 H2013 0.930 . S
C2029 C2028 1.377 . S
C2029 C2030 1.379 . S
C2030 H2014 0.931 . S
C2030 C2024 1.383 . S
C2030 C2029 1.379 . S
H2031 C2025 0.959 . S
H2032 C2025 0.961 . S
H2033 C2025 0.960 . S
H2034 C2026 0.930 . S
H2035 C2027 0.929 . S
H2036 C2044 0.929 . S
H2037 C2046 0.930 1_655 S
H2038 C2048 0.930 . S
H2039 C2051 0.929 . S
H2040 C2054 0.930 . S
H2041 C2056 0.945 1_655 S
H2042 C2056 0.993 . S
H2043 C2056 1.002 . S
C2044 H2036 0.929 . S
C2044 C2045 1.377 . S
C2044 C2046 1.384 . S
C2045 C2044 1.377 . S
C2045 C2051 1.390 . S
C2046 H2037 0.930 1_455 S
C2046 C2044 1.384 . S
C2046 C2047 1.372 . S
C2047 C2046 1.372 . S
C2047 C2048 1.400 . S
C2047 C2052 1.490 1_455 S
C2048 H2038 0.930 . S
C2048 C2047 1.400 . S
C2048 C2051 1.386 . S
H2049 C2065 0.930 . S
H2050 C2066 0.931 . S
C2051 H2039 0.929 . S
C2051 C2045 1.390 . S
C2051 C2048 1.386 . S
C2052 C2047 1.490 1_655 S
C2052 C2054 1.395 . S
C2052 C2055 1.403 . S
H2053 C2059 0.930 . S
C2054 H2040 0.930 . S
C2054 C2052 1.395 . S
C2054 C2057 1.403 . S
C2055 C2052 1.403 . S
C2055 C2056 1.470 1_655 S
C2055 C2059 1.400 . S
C2056 H2041 0.945 1_455 S
C2056 H2042 0.993 . S
C2056 H2043 1.002 . S
C2056 C2055 1.470 1_455 S
C2057 C2054 1.403 . S
C2057 C2058 1.392 . S
C2057 C2061 1.495 . S
C2058 C2057 1.392 . S
C2058 C2059 1.385 . S
C2058 C2060 1.478 . S
C2059 H2053 0.930 . S
C2059 C2055 1.400 . S
C2059 C2058 1.385 . S
C2060 C2058 1.478 . S
C2060 C2062 1.381 . S
C2060 C2066 1.383 . S
C2061 C2057 1.495 . S
C2061 H2067 0.959 . S
C2061 H2068 0.961 . S
C2061 H2069 0.960 . S
C2062 C2060 1.381 . S
C2062 C2063 1.394 . S
C2062 H2070 0.930 . S
C2063 C2062 1.394 . S
C2063 C2064 1.383 . S
C2063 H2071 0.929 . S
C2064 C2063 1.383 . S
C2064 C2065 1.377 . S
C2065 H2049 0.930 . S
C2065 C2064 1.377 . S
C2065 C2066 1.379 . S
C2066 H2050 0.931 . S
C2066 C2060 1.383 . S
C2066 C2065 1.379 . S
H2067 C2061 0.959 . S
H2068 C2061 0.961 . S
H2069 C2061 0.960 . S
H2070 C2062 0.930 . S
H2071 C2063 0.929 . S
H2072 C2080 0.929 . S
H2073 C2082 0.930 . S
H2074 C2084 0.930 . S
H2075 C2087 0.929 . S
H2076 C2090 0.930 . S
H2077 C2092 0.960 . S
H2078 C2092 0.960 . S
H2079 C2092 0.960 . S
C2080 H2072 0.929 . S
C2080 C2081 1.377 . S
C2080 C2082 1.384 . S
C2081 C2080 1.377 . S
C2081 C2087 1.390 . S
C2082 H2073 0.930 . S
C2082 C2080 1.384 . S
C2082 C2083 1.372 . S
C2083 C2082 1.372 . S
C2083 C2084 1.400 . S
C2083 C2088 1.490 . S
C2084 H2074 0.930 . S
C2084 C2083 1.400 . S
C2084 C2087 1.386 . S
H2085 C2101 0.930 . S
H2086 C2102 0.931 . S
C2087 H2075 0.929 . S
C2087 C2081 1.390 . S
C2087 C2084 1.386 . S
C2088 C2083 1.490 . S
C2088 C2090 1.395 . S
C2088 C2091 1.403 . S
H2089 C2095 0.930 . S
C2090 H2076 0.930 . S
C2090 C2088 1.395 . S
C2090 C2093 1.403 . S
C2091 C2088 1.403 . S
C2091 C2092 1.524 . S
C2091 C2095 1.400 . S
C2092 H2077 0.960 . S
C2092 H2078 0.960 . S
C2092 H2079 0.960 . S
C2092 C2091 1.524 . S
C2093 C2090 1.403 . S
C2093 C2094 1.392 . S
C2093 C2097 1.495 . S
C2094 C2093 1.392 . S
C2094 C2095 1.385 . S
C2094 C2096 1.478 . S
C2095 H2089 0.930 . S
C2095 C2091 1.400 . S
C2095 C2094 1.385 . S
C2096 C2094 1.478 . S
C2096 C2098 1.381 . S
C2096 C2102 1.383 . S
C2097 C2093 1.495 . S
C2097 H2103 0.959 . S
C2097 H2104 0.961 . S
C2097 H2105 0.960 . S
C2098 C2096 1.381 . S
C2098 C2099 1.394 . S
C2098 H2106 0.930 . S
C2099 C2098 1.394 . S
C2099 C2100 1.383 . S
C2099 H2107 0.929 . S
C2100 C2099 1.383 . S
C2100 C2101 1.377 . S
C2101 H2085 0.930 . S
C2101 C2100 1.377 . S
C2101 C2102 1.379 . S
C2102 H2086 0.931 . S
C2102 C2096 1.383 . S
C2102 C2101 1.379 . S
H2103 C2097 0.959 . S
H2104 C2097 0.961 . S
H2105 C2097 0.960 . S
H2106 C2098 0.930 . S
H2107 C2099 0.929 . S
H2108 C2116 0.929 . S
H2109 C2118 0.930 . S
H2110 C2120 0.930 . S
H2111 C2123 0.929 . S
H2112 C2126 0.930 . S
H2113 C2128 0.960 . S
H2114 C2128 0.960 . S
H2115 C2128 0.960 . S
C2116 H2108 0.929 . S
C2116 C2117 1.377 . S
C2116 C2118 1.384 . S
C2117 C2116 1.377 . S
C2117 C2123 1.390 . S
C2118 H2109 0.930 . S
C2118 C2116 1.384 . S
C2118 C2119 1.372 . S
C2119 C2118 1.372 . S
C2119 C2120 1.400 . S
C2119 C2124 1.490 . S
C2120 H2110 0.930 . S
C2120 C2119 1.400 . S
C2120 C2123 1.386 . S
H2121 C2137 0.930 . S
H2122 C2138 0.931 . S
C2123 H2111 0.929 . S
C2123 C2117 1.390 . S
C2123 C2120 1.386 . S
C2124 C2119 1.490 . S
C2124 C2126 1.395 . S
C2124 C2127 1.403 . S
H2125 C2131 0.930 . S
C2126 H2112 0.930 . S
C2126 C2124 1.395 . S
C2126 C2129 1.403 . S
C2127 C2124 1.403 . S
C2127 C2128 1.524 . S
C2127 C2131 1.400 . S
C2128 H2113 0.960 . S
C2128 H2114 0.960 . S
C2128 H2115 0.960 . S
C2128 C2127 1.524 . S
C2129 C2126 1.403 . S
C2129 C2130 1.392 . S
C2129 C2133 1.495 . S
C2130 C2129 1.392 . S
C2130 C2131 1.385 . S
C2130 C2132 1.478 . S
C2131 H2125 0.930 . S
C2131 C2127 1.400 . S
C2131 C2130 1.385 . S
C2132 C2130 1.478 . S
C2132 C2134 1.381 . S
C2132 C2138 1.383 . S
C2133 C2129 1.495 . S
C2133 H2139 0.959 . S
C2133 H2140 0.961 . S
C2133 H2141 0.960 . S
C2134 C2132 1.381 . S
C2134 C2135 1.394 . S
C2134 H2142 0.930 . S
C2135 C2134 1.394 . S
C2135 C2136 1.383 . S
C2135 H2143 0.929 . S
C2136 C2135 1.383 . S
C2136 C2137 1.377 . S
C2137 H2121 0.930 . S
C2137 C2136 1.377 . S
C2137 C2138 1.379 . S
C2138 H2122 0.931 . S
C2138 C2132 1.383 . S
C2138 C2137 1.379 . S
H2139 C2133 0.959 . S
H2140 C2133 0.961 . S
H2141 C2133 0.960 . S
H2142 C2134 0.930 . S
H2143 C2135 0.929 . S
H2144 C2152 0.929 . S
H2145 C2154 0.930 . S
H2146 C2156 0.930 . S
H2147 C2159 0.929 . S
H2148 C2162 0.930 . S
H2149 C2164 0.960 . S
H2150 C2164 0.960 . S
H2151 C2164 0.960 . S
C2152 H2144 0.929 . S
C2152 C2153 1.377 . S
C2152 C2154 1.384 . S
C2153 C2152 1.377 . S
C2153 C2159 1.390 . S
C2154 H2145 0.930 . S
C2154 C2152 1.384 . S
C2154 C2155 1.372 . S
C2155 C2154 1.372 . S
C2155 C2156 1.400 . S
C2155 C2160 1.490 . S
C2156 H2146 0.930 . S
C2156 C2155 1.400 . S
C2156 C2159 1.386 . S
H2157 C2173 0.930 . S
H2158 C2174 0.931 . S
C2159 H2147 0.929 . S
C2159 C2153 1.390 . S
C2159 C2156 1.386 . S
C2160 C2155 1.490 . S
C2160 C2162 1.395 . S
C2160 C2163 1.403 . S
H2161 C2167 0.930 . S
C2162 H2148 0.930 . S
C2162 C2160 1.395 . S
C2162 C2165 1.403 . S
C2163 C2160 1.403 . S
C2163 C2164 1.524 . S
C2163 C2167 1.400 . S
C2164 H2149 0.960 . S
C2164 H2150 0.960 . S
C2164 H2151 0.960 . S
C2164 C2163 1.524 . S
C2165 C2162 1.403 . S
C2165 C2166 1.392 . S
C2165 C2169 1.495 . S
C2166 C2165 1.392 . S
C2166 C2167 1.385 . S
C2166 C2168 1.478 . S
C2167 H2161 0.930 . S
C2167 C2163 1.400 . S
C2167 C2166 1.385 . S
C2168 C2166 1.478 . S
C2168 C2170 1.381 . S
C2168 C2174 1.383 . S
C2169 C2165 1.495 . S
C2169 H2175 0.959 . S
C2169 H2176 0.961 . S
C2169 H2177 0.960 . S
C2170 C2168 1.381 . S
C2170 C2171 1.394 . S
C2170 H2178 0.930 . S
C2171 C2170 1.394 . S
C2171 C2172 1.383 . S
C2171 H2179 0.929 . S
C2172 C2171 1.383 . S
C2172 C2173 1.377 . S
C2173 H2157 0.930 . S
C2173 C2172 1.377 . S
C2173 C2174 1.379 . S
C2174 H2158 0.931 . S
C2174 C2168 1.383 . S
C2174 C2173 1.379 . S
H2175 C2169 0.959 . S
H2176 C2169 0.961 . S
H2177 C2169 0.960 . S
H2178 C2170 0.930 . S
H2179 C2171 0.929 . S
H2180 C2188 0.929 . S
H2181 C2190 0.930 . S
H2182 C2192 0.930 . S
H2183 C2195 0.929 . S
H2184 C2198 0.930 . S
H2185 C2200 0.960 . S
H2186 C2200 0.960 . S
H2187 C2200 0.960 . S
C2188 H2180 0.929 . S
C2188 C2189 1.377 . S
C2188 C2190 1.384 . S
C2189 C2188 1.377 . S
C2189 C2195 1.390 . S
C2190 H2181 0.930 . S
C2190 C2188 1.384 . S
C2190 C2191 1.372 . S
C2191 C2190 1.372 . S
C2191 C2192 1.400 . S
C2191 C2196 1.490 . S
C2192 H2182 0.930 . S
C2192 C2191 1.400 . S
C2192 C2195 1.386 . S
H2193 C2209 0.930 . S
H2194 C2210 0.931 . S
C2195 H2183 0.929 . S
C2195 C2189 1.390 . S
C2195 C2192 1.386 . S
C2196 C2191 1.490 . S
C2196 C2198 1.395 . S
C2196 C2199 1.403 . S
H2197 C2203 0.930 . S
C2198 H2184 0.930 . S
C2198 C2196 1.395 . S
C2198 C2201 1.403 . S
C2199 C2196 1.403 . S
C2199 C2200 1.524 . S
C2199 C2203 1.400 . S
C2200 H2185 0.960 . S
C2200 H2186 0.960 . S
C2200 H2187 0.960 . S
C2200 C2199 1.524 . S
C2201 C2198 1.403 . S
C2201 C2202 1.392 . S
C2201 C2205 1.495 . S
C2202 C2201 1.392 . S
C2202 C2203 1.385 . S
C2202 C2204 1.478 . S
C2203 H2197 0.930 . S
C2203 C2199 1.400 . S
C2203 C2202 1.385 . S
C2204 C2202 1.478 . S
C2204 C2206 1.381 . S
C2204 C2210 1.383 . S
C2205 C2201 1.495 . S
C2205 H2211 0.959 . S
C2205 H2212 0.961 . S
C2205 H2213 0.960 . S
C2206 C2204 1.381 . S
C2206 C2207 1.394 . S
C2206 H2214 0.930 . S
C2207 C2206 1.394 . S
C2207 C2208 1.383 . S
C2207 H2215 0.929 . S
C2208 C2207 1.383 . S
C2208 C2209 1.377 . S
C2209 H2193 0.930 . S
C2209 C2208 1.377 . S
C2209 C2210 1.379 . S
C2210 H2194 0.931 . S
C2210 C2204 1.383 . S
C2210 C2209 1.379 . S
H2211 C2205 0.959 . S
H2212 C2205 0.961 . S
H2213 C2205 0.960 . S
H2214 C2206 0.930 . S
H2215 C2207 0.929 . S
H2216 C2224 0.929 . S
H2217 C2226 0.930 . S
H2218 C2228 0.930 . S
H2219 C2231 0.929 . S
H2220 C2234 0.930 . S
H2221 C2236 0.960 . S
H2222 C2236 0.960 . S
H2223 C2236 0.960 . S
C2224 H2216 0.929 . S
C2224 C2225 1.377 . S
C2224 C2226 1.384 . S
C2225 C2224 1.377 . S
C2225 C2231 1.390 . S
C2226 H2217 0.930 . S
C2226 C2224 1.384 . S
C2226 C2227 1.372 . S
C2227 C2226 1.372 . S
C2227 C2228 1.400 . S
C2227 C2232 1.490 . S
C2228 H2218 0.930 . S
C2228 C2227 1.400 . S
C2228 C2231 1.386 . S
H2229 C2245 0.930 . S
H2230 C2246 0.931 . S
C2231 H2219 0.929 . S
C2231 C2225 1.390 . S
C2231 C2228 1.386 . S
C2232 C2227 1.490 . S
C2232 C2234 1.395 . S
C2232 C2235 1.403 . S
H2233 C2239 0.930 . S
C2234 H2220 0.930 . S
C2234 C2232 1.395 . S
C2234 C2237 1.403 . S
C2235 C2232 1.403 . S
C2235 C2236 1.524 . S
C2235 C2239 1.400 . S
C2236 H2221 0.960 . S
C2236 H2222 0.960 . S
C2236 H2223 0.960 . S
C2236 C2235 1.524 . S
C2237 C2234 1.403 . S
C2237 C2238 1.392 . S
C2237 C2241 1.495 . S
C2238 C2237 1.392 . S
C2238 C2239 1.385 . S
C2238 C2240 1.478 . S
C2239 H2233 0.930 . S
C2239 C2235 1.400 . S
C2239 C2238 1.385 . S
C2240 C2238 1.478 . S
C2240 C2242 1.381 . S
C2240 C2246 1.383 . S
C2241 C2237 1.495 . S
C2241 H2247 0.959 . S
C2241 H2248 0.961 . S
C2241 H2249 0.960 . S
C2242 C2240 1.381 . S
C2242 C2243 1.394 . S
C2242 H2250 0.930 . S
C2243 C2242 1.394 . S
C2243 C2244 1.383 . S
C2243 H2251 0.929 . S
C2244 C2243 1.383 . S
C2244 C2245 1.377 . S
C2245 H2229 0.930 . S
C2245 C2244 1.377 . S
C2245 C2246 1.379 . S
C2246 H2230 0.931 . S
C2246 C2240 1.383 . S
C2246 C2245 1.379 . S
H2247 C2241 0.959 . S
H2248 C2241 0.961 . S
H2249 C2241 0.960 . S
H2250 C2242 0.930 . S
H2251 C2243 0.929 . S
H2252 C2260 0.929 . S
H2253 C2262 0.930 . S
H2254 C2264 0.930 1_554 S
H2255 C2267 0.929 . S
H2256 C2270 0.930 . S
H2257 C2272 0.960 . S
H2258 C2272 0.960 . S
H2259 C2272 0.960 . S
C2260 H2252 0.929 . S
C2260 C2261 1.377 . S
C2260 C2262 1.384 . S
C2261 C2260 1.377 . S
C2261 C2267 1.390 . S
C2262 H2253 0.930 . S
C2262 C2260 1.384 . S
C2262 C2263 1.372 . S
C2263 C2262 1.372 . S
C2263 C2264 1.400 . S
C2263 C2268 1.490 . S
C2264 H2254 0.930 1_556 S
C2264 C2263 1.400 . S
C2264 C2267 1.386 . S
H2265 C2281 0.930 . S
H2266 C2282 0.931 . S
C2267 H2255 0.929 . S
C2267 C2261 1.390 . S
C2267 C2264 1.386 . S
C2268 C2263 1.490 . S
C2268 C2270 1.395 . S
C2268 C2271 1.403 1_556 S
H2269 C2275 0.930 . S
C2270 H2256 0.930 . S
C2270 C2268 1.395 . S
C2270 C2273 1.403 . S
C2271 C2268 1.403 1_554 S
C2271 C2272 1.524 . S
C2271 C2275 1.400 . S
C2272 H2257 0.960 . S
C2272 H2258 0.960 . S
C2272 H2259 0.960 . S
C2272 C2271 1.524 . S
C2273 C2270 1.403 . S
C2273 C2274 1.392 1_556 S
C2273 C2277 1.495 . S
C2274 C2273 1.392 1_554 S
C2274 C2275 1.385 . S
C2274 C2276 1.478 . S
C2275 H2269 0.930 . S
C2275 C2271 1.400 . S
C2275 C2274 1.385 . S
C2276 C2274 1.478 . S
C2276 C2278 1.381 . S
C2276 C2282 1.383 . S
C2277 C2273 1.495 . S
C2277 H2283 0.959 . S
C2277 H2284 0.961 . S
C2277 H2285 0.960 . S
C2278 C2276 1.381 . S
C2278 C2279 1.394 . S
C2278 H2286 0.930 1_554 S
C2279 C2278 1.394 . S
C2279 C2280 1.383 . S
C2279 H2287 0.929 . S
C2280 C2279 1.383 . S
C2280 C2281 1.377 . S
C2281 H2265 0.930 . S
C2281 C2280 1.377 . S
C2281 C2282 1.379 . S
C2282 H2266 0.931 . S
C2282 C2276 1.383 . S
C2282 C2281 1.379 . S
H2283 C2277 0.959 . S
H2284 C2277 0.961 . S
H2285 C2277 0.960 . S
H2286 C2278 0.930 1_556 S
H2287 C2279 0.929 . S
H2288 C2296 0.929 . S
H2289 C2298 0.930 . S
H2290 C2300 0.930 . S
H2291 C2303 0.929 . S
H2292 C2306 0.930 . S
H2293 C2308 0.960 . S
H2294 C2308 0.960 . S
H2295 C2308 0.960 . S
C2296 H2288 0.929 . S
C2296 C2297 1.377 . S
C2296 C2298 1.384 . S
C2297 C2296 1.377 . S
C2297 C2303 1.390 . S
C2298 H2289 0.930 . S
C2298 C2296 1.384 . S
C2298 C2299 1.372 . S
C2299 C2298 1.372 . S
C2299 C2300 1.400 . S
C2299 C2304 1.490 . S
C2300 H2290 0.930 . S
C2300 C2299 1.400 . S
C2300 C2303 1.386 . S
H2301 C2317 0.930 . S
H2302 C2318 0.931 . S
C2303 H2291 0.929 . S
C2303 C2297 1.390 . S
C2303 C2300 1.386 . S
C2304 C2299 1.490 . S
C2304 C2306 1.395 . S
C2304 C2307 1.403 . S
H2305 C2311 0.930 . S
C2306 H2292 0.930 . S
C2306 C2304 1.395 . S
C2306 C2309 1.403 . S
C2307 C2304 1.403 . S
C2307 C2308 1.524 . S
C2307 C2311 1.400 . S
C2308 H2293 0.960 . S
C2308 H2294 0.960 . S
C2308 H2295 0.960 . S
C2308 C2307 1.524 . S
C2309 C2306 1.403 . S
C2309 C2310 1.392 . S
C2309 C2313 1.495 . S
C2310 C2309 1.392 . S
C2310 C2311 1.385 . S
C2310 C2312 1.478 . S
C2311 H2305 0.930 . S
C2311 C2307 1.400 . S
C2311 C2310 1.385 . S
C2312 C2310 1.478 . S
C2312 C2314 1.381 . S
C2312 C2318 1.383 . S
C2313 C2309 1.495 . S
C2313 H2319 0.959 . S
C2313 H2320 0.961 . S
C2313 H2321 0.960 . S
C2314 C2312 1.381 . S
C2314 C2315 1.394 . S
C2314 H2322 0.930 . S
C2315 C2314 1.394 . S
C2315 C2316 1.383 . S
C2315 H2323 0.929 . S
C2316 C2315 1.383 . S
C2316 C2317 1.377 . S
C2317 H2301 0.930 . S
C2317 C2316 1.377 . S
C2317 C2318 1.379 . S
C2318 H2302 0.931 . S
C2318 C2312 1.383 . S
C2318 C2317 1.379 . S
H2319 C2313 0.959 . S
H2320 C2313 0.961 . S
H2321 C2313 0.960 . S
H2322 C2314 0.930 . S
H2323 C2315 0.929 . S
H2324 C2332 0.929 . S
H2325 C2334 0.930 . S
H2326 C2336 0.930 . S
H2327 C2339 0.929 . S
H2328 C2342 0.930 . S
H2329 C2344 0.960 . S
H2330 C2344 0.960 . S
H2331 C2344 0.960 . S
C2332 H2324 0.929 . S
C2332 C2333 1.377 . S
C2332 C2334 1.384 . S
C2333 C2332 1.377 . S
C2333 C2339 1.390 . S
C2334 H2325 0.930 . S
C2334 C2332 1.384 . S
C2334 C2335 1.372 . S
C2335 C2334 1.372 . S
C2335 C2336 1.400 . S
C2335 C2340 1.490 . S
C2336 H2326 0.930 . S
C2336 C2335 1.400 . S
C2336 C2339 1.386 . S
H2337 C2353 0.930 . S
H2338 C2354 0.931 . S
C2339 H2327 0.929 . S
C2339 C2333 1.390 . S
C2339 C2336 1.386 . S
C2340 C2335 1.490 . S
C2340 C2342 1.395 . S
C2340 C2343 1.403 . S
H2341 C2347 0.930 . S
C2342 H2328 0.930 . S
C2342 C2340 1.395 . S
C2342 C2345 1.403 . S
C2343 C2340 1.403 . S
C2343 C2344 1.524 . S
C2343 C2347 1.400 . S
C2344 H2329 0.960 . S
C2344 H2330 0.960 . S
C2344 H2331 0.960 . S
C2344 C2343 1.524 . S
C2345 C2342 1.403 . S
C2345 C2346 1.392 . S
C2345 C2349 1.495 . S
C2346 C2345 1.392 . S
C2346 C2347 1.385 . S
C2346 C2348 1.478 . S
C2347 H2341 0.930 . S
C2347 C2343 1.400 . S
C2347 C2346 1.385 . S
C2348 C2346 1.478 . S
C2348 C2350 1.381 . S
C2348 C2354 1.383 . S
C2349 C2345 1.495 . S
C2349 H2355 0.959 . S
C2349 H2356 0.961 . S
C2349 H2357 0.960 . S
C2350 C2348 1.381 . S
C2350 C2351 1.394 . S
C2350 H2358 0.930 . S
C2351 C2350 1.394 . S
C2351 C2352 1.383 . S
C2351 H2359 0.929 . S
C2352 C2351 1.383 . S
C2352 C2353 1.377 . S
C2353 H2337 0.930 . S
C2353 C2352 1.377 . S
C2353 C2354 1.379 . S
C2354 H2338 0.931 . S
C2354 C2348 1.383 . S
C2354 C2353 1.379 . S
H2355 C2349 0.959 . S
H2356 C2349 0.961 . S
H2357 C2349 0.960 . S
H2358 C2350 0.930 . S
H2359 C2351 0.929 . S
H2360 C2368 0.929 . S
H2361 C2370 0.930 . S
H2362 C2372 0.930 . S
H2363 C2375 0.929 . S
H2364 C2378 0.930 . S
H2365 C2380 0.960 . S
H2366 C2380 0.960 . S
H2367 C2380 0.960 . S
C2368 H2360 0.929 . S
C2368 C2369 1.377 . S
C2368 C2370 1.384 . S
C2369 C2368 1.377 . S
C2369 C2375 1.390 . S
C2370 H2361 0.930 . S
C2370 C2368 1.384 . S
C2370 C2371 1.372 . S
C2371 C2370 1.372 . S
C2371 C2372 1.400 . S
C2371 C2376 1.490 . S
C2372 H2362 0.930 . S
C2372 C2371 1.400 . S
C2372 C2375 1.386 . S
H2373 C2389 0.930 . S
H2374 C2390 0.931 . S
C2375 H2363 0.929 . S
C2375 C2369 1.390 . S
C2375 C2372 1.386 . S
C2376 C2371 1.490 . S
C2376 C2378 1.395 . S
C2376 C2379 1.403 . S
H2377 C2383 0.930 . S
C2378 H2364 0.930 . S
C2378 C2376 1.395 . S
C2378 C2381 1.403 . S
C2379 C2376 1.403 . S
C2379 C2380 1.524 . S
C2379 C2383 1.400 . S
C2380 H2365 0.960 . S
C2380 H2366 0.960 . S
C2380 H2367 0.960 . S
C2380 C2379 1.524 . S
C2381 C2378 1.403 . S
C2381 C2382 1.392 . S
C2381 C2385 1.495 . S
C2382 C2381 1.392 . S
C2382 C2383 1.385 . S
C2382 C2384 1.478 . S
C2383 H2377 0.930 . S
C2383 C2379 1.400 . S
C2383 C2382 1.385 . S
C2384 C2382 1.478 . S
C2384 C2386 1.381 . S
C2384 C2390 1.383 . S
C2385 C2381 1.495 . S
C2385 H2391 0.959 . S
C2385 H2392 0.961 . S
C2385 H2393 0.960 . S
C2386 C2384 1.381 . S
C2386 C2387 1.394 . S
C2386 H2394 0.930 . S
C2387 C2386 1.394 . S
C2387 C2388 1.383 . S
C2387 H2395 0.929 . S
C2388 C2387 1.383 . S
C2388 C2389 1.377 . S
C2389 H2373 0.930 . S
C2389 C2388 1.377 . S
C2389 C2390 1.379 . S
C2390 H2374 0.931 . S
C2390 C2384 1.383 . S
C2390 C2389 1.379 . S
H2391 C2385 0.959 . S
H2392 C2385 0.961 . S
H2393 C2385 0.960 . S
H2394 C2386 0.930 . S
H2395 C2387 0.929 . S
H2396 C2404 0.929 . S
H2397 C2406 0.930 . S
H2398 C2408 0.929 . S
H2399 C2411 0.929 1_556 S
H2400 C2414 0.930 . S
H2401 C2416 0.960 . S
H2402 C2416 0.960 . S
H2403 C2416 0.960 . S
C2404 H2396 0.929 . S
C2404 C2405 1.377 . S
C2404 C2406 1.384 . S
C2405 C2404 1.377 . S
C2405 C2411 1.390 . S
C2406 H2397 0.930 . S
C2406 C2404 1.384 . S
C2406 C2407 1.372 . S
C2407 C2406 1.372 . S
C2407 C2408 1.400 1_554 S
C2407 C2412 1.490 . S
C2408 H2398 0.929 . S
C2408 C2407 1.400 1_556 S
C2408 C2411 1.386 1_556 S
H2409 C2425 0.930 . S
H2410 C2426 0.931 . S
C2411 H2399 0.929 1_554 S
C2411 C2405 1.390 . S
C2411 C2408 1.386 1_554 S
C2412 C2407 1.490 . S
C2412 C2414 1.395 . S
C2412 C2415 1.403 1_554 S
H2413 C2419 0.930 . S
C2414 H2400 0.930 . S
C2414 C2412 1.395 . S
C2414 C2417 1.403 . S
C2415 C2412 1.403 1_556 S
C2415 C2416 1.524 . S
C2415 C2419 1.400 . S
C2416 H2401 0.960 . S
C2416 H2402 0.960 . S
C2416 H2403 0.960 . S
C2416 C2415 1.524 . S
C2417 C2414 1.403 . S
C2417 C2418 1.392 1_554 S
C2417 C2421 1.495 . S
C2418 C2417 1.392 1_556 S
C2418 C2419 1.385 . S
C2418 C2420 1.478 . S
C2419 H2413 0.930 . S
C2419 C2415 1.400 . S
C2419 C2418 1.385 . S
C2420 C2418 1.478 . S
C2420 C2422 1.381 1_556 S
C2420 C2426 1.383 . S
C2421 C2417 1.495 . S
C2421 H2427 0.959 . S
C2421 H2428 0.961 . S
C2421 H2429 0.960 . S
C2422 C2420 1.381 1_554 S
C2422 C2423 1.394 1_554 S
C2422 H2430 0.930 . S
C2423 C2422 1.394 1_556 S
C2423 C2424 1.383 . S
C2423 H2431 0.929 1_556 S
C2424 C2423 1.383 . S
C2424 C2425 1.377 . S
C2425 H2409 0.930 . S
C2425 C2424 1.377 . S
C2425 C2426 1.379 . S
C2426 H2410 0.931 . S
C2426 C2420 1.383 . S
C2426 C2425 1.379 . S
H2427 C2421 0.959 . S
H2428 C2421 0.961 . S
H2429 C2421 0.960 . S
H2430 C2422 0.930 . S
H2431 C2423 0.929 1_554 S
H2432 C2440 0.929 . S
H2433 C2442 0.930 . S
H2434 C2444 0.930 . S
H2435 C2447 0.929 . S
H2436 C2450 0.930 . S
H2437 C2452 0.960 . S
H2438 C2452 0.960 . S
H2439 C2452 0.960 . S
C2440 H2432 0.929 . S
C2440 C2441 1.377 . S
C2440 C2442 1.384 . S
C2441 C2440 1.377 . S
C2441 C2447 1.390 . S
C2442 H2433 0.930 . S
C2442 C2440 1.384 . S
C2442 C2443 1.372 . S
C2443 C2442 1.372 . S
C2443 C2444 1.400 . S
C2443 C2448 1.490 . S
C2444 H2434 0.930 . S
C2444 C2443 1.400 . S
C2444 C2447 1.386 . S
H2445 C2461 0.930 . S
H2446 C2462 0.931 . S
C2447 H2435 0.929 . S
C2447 C2441 1.390 . S
C2447 C2444 1.386 . S
C2448 C2443 1.490 . S
C2448 C2450 1.395 . S
C2448 C2451 1.403 . S
H2449 C2455 0.930 . S
C2450 H2436 0.930 . S
C2450 C2448 1.395 . S
C2450 C2453 1.403 1_565 S
C2451 C2448 1.403 . S
C2451 C2452 1.524 . S
C2451 C2455 1.400 1_565 S
C2452 H2437 0.960 . S
C2452 H2438 0.960 . S
C2452 H2439 0.960 . S
C2452 C2451 1.524 . S
C2453 C2450 1.403 1_545 S
C2453 C2454 1.392 . S
C2453 C2457 1.495 . S
C2454 C2453 1.392 . S
C2454 C2455 1.385 . S
C2454 C2456 1.478 . S
C2455 H2449 0.930 . S
C2455 C2451 1.400 1_545 S
C2455 C2454 1.385 . S
C2456 C2454 1.478 . S
C2456 C2458 1.381 . S
C2456 C2462 1.383 . S
C2457 C2453 1.495 . S
C2457 H2463 0.959 . S
C2457 H2464 0.961 . S
C2457 H2465 0.960 . S
C2458 C2456 1.381 . S
C2458 C2459 1.394 . S
C2458 H2466 0.930 . S
C2459 C2458 1.394 . S
C2459 C2460 1.383 . S
C2459 H2467 0.929 . S
C2460 C2459 1.383 . S
C2460 C2461 1.377 . S
C2461 H2445 0.930 . S
C2461 C2460 1.377 . S
C2461 C2462 1.379 . S
C2462 H2446 0.931 . S
C2462 C2456 1.383 . S
C2462 C2461 1.379 . S
H2463 C2457 0.959 . S
H2464 C2457 0.961 . S
H2465 C2457 0.960 . S
H2466 C2458 0.930 . S
H2467 C2459 0.929 . S
H2468 C2476 0.929 . S
H2469 C2478 0.930 . S
H2470 C2480 0.930 1_556 S
H2471 C2483 0.929 . S
H2472 C2486 0.930 . S
H2473 C2488 0.960 . S
H2474 C2488 0.960 . S
H2475 C2488 0.960 . S
C2476 H2468 0.929 . S
C2476 C2477 1.377 . S
C2476 C2478 1.384 . S
C2477 C2476 1.377 . S
C2477 C2483 1.390 . S
C2478 H2469 0.930 . S
C2478 C2476 1.384 . S
C2478 C2479 1.372 . S
C2479 C2478 1.372 . S
C2479 C2480 1.400 . S
C2479 C2484 1.490 . S
C2480 H2470 0.930 1_554 S
C2480 C2479 1.400 . S
C2480 C2483 1.386 . S
H2481 C2497 0.930 . S
H2482 C2498 0.931 . S
C2483 H2471 0.929 . S
C2483 C2477 1.390 . S
C2483 C2480 1.386 . S
C2484 C2479 1.490 . S
C2484 C2486 1.395 . S
C2484 C2487 1.403 1_554 S
H2485 C2491 0.930 . S
C2486 H2472 0.930 . S
C2486 C2484 1.395 . S
C2486 C2489 1.403 . S
C2487 C2484 1.403 1_556 S
C2487 C2488 1.524 . S
C2487 C2491 1.400 . S
C2488 H2473 0.960 . S
C2488 H2474 0.960 . S
C2488 H2475 0.960 . S
C2488 C2487 1.524 . S
C2489 C2486 1.403 . S
C2489 C2490 1.392 1_554 S
C2489 C2493 1.495 . S
C2490 C2489 1.392 1_556 S
C2490 C2491 1.385 . S
C2490 C2492 1.478 . S
C2491 H2485 0.930 . S
C2491 C2487 1.400 . S
C2491 C2490 1.385 . S
C2492 C2490 1.478 . S
C2492 C2494 1.381 . S
C2492 C2498 1.383 . S
C2493 C2489 1.495 . S
C2493 H2499 0.959 . S
C2493 H2500 0.961 . S
C2493 H2501 0.960 . S
C2494 C2492 1.381 . S
C2494 C2495 1.394 . S
C2494 H2502 0.930 1_556 S
C2495 C2494 1.394 . S
C2495 C2496 1.383 . S
C2495 H2503 0.929 . S
C2496 C2495 1.383 . S
C2496 C2497 1.377 . S
C2497 H2481 0.930 . S
C2497 C2496 1.377 . S
C2497 C2498 1.379 . S
C2498 H2482 0.931 . S
C2498 C2492 1.383 . S
C2498 C2497 1.379 . S
H2499 C2493 0.959 . S
H2500 C2493 0.961 . S
H2501 C2493 0.960 . S
H2502 C2494 0.930 1_554 S
H2503 C2495 0.929 . S
H2504 C2512 0.929 . S
H2505 C2514 0.930 . S
H2506 C2516 0.930 . S
H2507 C2519 0.929 . S
H2508 C2522 0.930 . S
H2509 C2524 0.960 . S
H2510 C2524 0.960 . S
H2511 C2524 0.960 . S
C2512 H2504 0.929 . S
C2512 C2513 1.377 . S
C2512 C2514 1.384 . S
C2513 C2512 1.377 . S
C2513 C2519 1.390 . S
C2514 H2505 0.930 . S
C2514 C2512 1.384 . S
C2514 C2515 1.372 . S
C2515 C2514 1.372 . S
C2515 C2516 1.400 . S
C2515 C2520 1.490 . S
C2516 H2506 0.930 . S
C2516 C2515 1.400 . S
C2516 C2519 1.386 . S
H2517 C2533 0.930 . S
H2518 C2534 0.931 . S
C2519 H2507 0.929 . S
C2519 C2513 1.390 . S
C2519 C2516 1.386 . S
C2520 C2515 1.490 . S
C2520 C2522 1.395 . S
C2520 C2523 1.403 . S
H2521 C2527 0.930 . S
C2522 H2508 0.930 . S
C2522 C2520 1.395 . S
C2522 C2525 1.403 1_545 S
C2523 C2520 1.403 . S
C2523 C2524 1.524 . S
C2523 C2527 1.400 1_545 S
C2524 H2509 0.960 . S
C2524 H2510 0.960 . S
C2524 H2511 0.960 . S
C2524 C2523 1.524 . S
C2525 C2522 1.403 1_565 S
C2525 C2526 1.392 . S
C2525 C2529 1.495 . S
C2526 C2525 1.392 . S
C2526 C2527 1.385 . S
C2526 C2528 1.478 . S
C2527 H2521 0.930 . S
C2527 C2523 1.400 1_565 S
C2527 C2526 1.385 . S
C2528 C2526 1.478 . S
C2528 C2530 1.381 . S
C2528 C2534 1.383 . S
C2529 C2525 1.495 . S
C2529 H2535 0.959 . S
C2529 H2536 0.961 . S
C2529 H2537 0.960 . S
C2530 C2528 1.381 . S
C2530 C2531 1.394 . S
C2530 H2538 0.930 . S
C2531 C2530 1.394 . S
C2531 C2532 1.383 . S
C2531 H2539 0.929 . S
C2532 C2531 1.383 . S
C2532 C2533 1.377 . S
C2533 H2517 0.930 . S
C2533 C2532 1.377 . S
C2533 C2534 1.379 . S
C2534 H2518 0.931 . S
C2534 C2528 1.383 . S
C2534 C2533 1.379 . S
H2535 C2529 0.959 . S
H2536 C2529 0.961 . S
H2537 C2529 0.960 . S
H2538 C2530 0.930 . S
H2539 C2531 0.929 . S
H2540 C2548 0.929 . S
H2541 C2550 0.930 . S
H2542 C2552 0.930 . S
H2543 C2555 0.929 . S
H2544 C2558 0.930 . S
H2545 C2560 0.960 . S
H2546 C2560 0.960 . S
H2547 C2560 0.960 . S
C2548 H2540 0.929 . S
C2548 C2549 1.377 . S
C2548 C2550 1.384 . S
C2549 C2548 1.377 . S
C2549 C2555 1.390 . S
C2550 H2541 0.930 . S
C2550 C2548 1.384 . S
C2550 C2551 1.372 . S
C2551 C2550 1.372 . S
C2551 C2552 1.400 . S
C2551 C2556 1.490 . S
C2552 H2542 0.930 . S
C2552 C2551 1.400 . S
C2552 C2555 1.386 . S
H2553 C2569 0.930 . S
H2554 C2570 0.931 . S
C2555 H2543 0.929 . S
C2555 C2549 1.390 . S
C2555 C2552 1.386 . S
C2556 C2551 1.490 . S
C2556 C2558 1.395 . S
C2556 C2559 1.403 . S
H2557 C2563 0.930 . S
C2558 H2544 0.930 . S
C2558 C2556 1.395 . S
C2558 C2561 1.403 . S
C2559 C2556 1.403 . S
C2559 C2560 1.524 . S
C2559 C2563 1.400 . S
C2560 H2545 0.960 . S
C2560 H2546 0.960 . S
C2560 H2547 0.960 . S
C2560 C2559 1.524 . S
C2561 C2558 1.403 . S
C2561 C2562 1.392 . S
C2561 C2565 1.495 . S
C2562 C2561 1.392 . S
C2562 C2563 1.385 . S
C2562 C2564 1.478 . S
C2563 H2557 0.930 . S
C2563 C2559 1.400 . S
C2563 C2562 1.385 . S
C2564 C2562 1.478 . S
C2564 C2566 1.381 . S
C2564 C2570 1.383 . S
C2565 C2561 1.495 . S
C2565 H2571 0.959 . S
C2565 H2572 0.961 . S
C2565 H2573 0.960 . S
C2566 C2564 1.381 . S
C2566 C2567 1.394 . S
C2566 H2574 0.930 . S
C2567 C2566 1.394 . S
C2567 C2568 1.383 . S
C2567 H2575 0.929 . S
C2568 C2567 1.383 . S
C2568 C2569 1.377 . S
C2569 H2553 0.930 . S
C2569 C2568 1.377 . S
C2569 C2570 1.379 . S
C2570 H2554 0.931 . S
C2570 C2564 1.383 . S
C2570 C2569 1.379 . S
H2571 C2565 0.959 . S
H2572 C2565 0.961 . S
H2573 C2565 0.960 . S
H2574 C2566 0.930 . S
H2575 C2567 0.929 . S
H2576 C2584 0.929 . S
H2577 C2586 0.930 . S
H2578 C2588 0.930 . S
H2579 C2591 0.929 . S
H2580 C2594 0.930 . S
H2581 C2596 0.968 . S
H2582 C2596 0.960 . S
H2583 C2596 0.960 . S
C2584 H2576 0.929 . S
C2584 C2585 1.377 . S
C2584 C2586 1.384 . S
C2585 C2584 1.377 . S
C2585 C2591 1.390 . S
C2586 H2577 0.930 . S
C2586 C2584 1.384 . S
C2586 C2587 1.372 . S
C2587 C2586 1.372 . S
C2587 C2588 1.400 . S
C2587 C2592 1.490 . S
C2588 H2578 0.930 . S
C2588 C2587 1.400 . S
C2588 C2591 1.386 . S
H2589 C2605 0.930 . S
H2590 C2606 0.931 . S
C2591 H2579 0.929 . S
C2591 C2585 1.390 . S
C2591 C2588 1.386 . S
C2592 C2587 1.490 . S
C2592 C2594 1.395 . S
C2592 C2595 1.403 . S
H2593 C2599 0.930 . S
C2594 H2580 0.930 . S
C2594 C2592 1.395 . S
C2594 C2597 1.403 1_545 S
C2595 C2592 1.403 . S
C2595 C2596 1.524 . S
C2595 C2599 1.400 1_545 S
C2596 H2581 0.968 . S
C2596 H2582 0.960 . S
C2596 H2583 0.960 . S
C2596 C2595 1.524 . S
C2597 C2594 1.403 1_565 S
C2597 C2598 1.392 . S
C2597 C2601 1.495 . S
C2598 C2597 1.392 . S
C2598 C2599 1.385 . S
C2598 C2600 1.478 . S
C2599 H2593 0.930 . S
C2599 C2595 1.400 1_565 S
C2599 C2598 1.385 . S
C2600 C2598 1.478 . S
C2600 C2602 1.381 . S
C2600 C2606 1.383 . S
C2601 C2597 1.495 . S
C2601 H2607 0.959 . S
C2601 H2608 0.961 . S
C2601 H2609 0.960 . S
C2602 C2600 1.381 . S
C2602 C2603 1.394 . S
C2602 H2610 0.930 . S
C2603 C2602 1.394 . S
C2603 C2604 1.383 . S
C2603 H2611 0.929 . S
C2604 C2603 1.383 . S
C2604 C2605 1.377 . S
C2605 H2589 0.930 . S
C2605 C2604 1.377 . S
C2605 C2606 1.379 . S
C2606 H2590 0.931 . S
C2606 C2600 1.383 . S
C2606 C2605 1.379 . S
H2607 C2601 0.959 . S
H2608 C2601 0.961 . S
H2609 C2601 0.960 . S
H2610 C2602 0.930 . S
H2611 C2603 0.929 . S
H2612 C2620 0.929 . S
H2613 C2622 0.930 . S
H2614 C2624 0.927 1_556 S
H2615 C2627 0.929 . S
H2616 C2630 0.930 . S
H2617 C2632 0.960 . S
H2618 C2632 0.960 . S
H2619 C2632 0.960 . S
C2620 H2612 0.929 . S
C2620 C2621 1.377 . S
C2620 C2622 1.384 . S
C2621 C2620 1.377 . S
C2621 C2627 1.390 . S
C2622 H2613 0.930 . S
C2622 C2620 1.384 . S
C2622 C2623 1.372 . S
C2623 C2622 1.372 . S
C2623 C2624 1.400 . S
C2623 C2628 1.490 . S
C2624 H2614 0.927 1_554 S
C2624 C2623 1.400 . S
C2624 C2627 1.386 . S
H2625 C2641 0.930 . S
H2626 C2642 0.931 . S
C2627 H2615 0.929 . S
C2627 C2621 1.390 . S
C2627 C2624 1.386 . S
C2628 C2623 1.490 . S
C2628 C2630 1.395 . S
C2628 C2631 1.403 1_554 S
H2629 C2635 0.930 . S
C2630 H2616 0.930 . S
C2630 C2628 1.395 . S
C2630 C2633 1.403 . S
C2631 C2628 1.403 1_556 S
C2631 C2632 1.524 . S
C2631 C2635 1.400 . S
C2632 H2617 0.960 . S
C2632 H2618 0.960 . S
C2632 H2619 0.960 . S
C2632 C2631 1.524 . S
C2633 C2630 1.403 . S
C2633 C2634 1.392 1_554 S
C2633 C2637 1.495 . S
C2634 C2633 1.392 1_556 S
C2634 C2635 1.385 . S
C2634 C2636 1.478 . S
C2635 H2629 0.930 . S
C2635 C2631 1.400 . S
C2635 C2634 1.385 . S
C2636 C2634 1.478 . S
C2636 C2638 1.381 . S
C2636 C2642 1.383 . S
C2637 C2633 1.495 . S
C2637 H2643 0.959 . S
C2637 H2644 0.961 . S
C2637 H2645 0.960 . S
C2638 C2636 1.381 . S
C2638 C2639 1.394 . S
C2638 H2646 0.917 1_556 S
C2639 C2638 1.394 . S
C2639 C2640 1.383 . S
C2639 H2647 0.929 . S
C2640 C2639 1.383 . S
C2640 C2641 1.377 . S
C2641 H2625 0.930 . S
C2641 C2640 1.377 . S
C2641 C2642 1.379 . S
C2642 H2626 0.931 . S
C2642 C2636 1.383 . S
C2642 C2641 1.379 . S
H2643 C2637 0.959 . S
H2644 C2637 0.961 . S
H2645 C2637 0.960 . S
H2646 C2638 0.917 1_554 S
H2647 C2639 0.929 . S
H2648 C2656 0.929 . S
H2649 C2658 0.930 . S
H2650 C2660 0.930 . S
H2651 C2663 0.929 . S
H2652 C2666 0.930 . S
H2653 C2668 0.960 . S
H2654 C2668 0.960 . S
H2655 C2668 0.960 . S
C2656 H2648 0.929 . S
C2656 C2657 1.377 . S
C2656 C2658 1.384 . S
C2657 C2656 1.377 . S
C2657 C2663 1.390 . S
C2658 H2649 0.930 . S
C2658 C2656 1.384 . S
C2658 C2659 1.372 . S
C2659 C2658 1.372 . S
C2659 C2660 1.400 . S
C2659 C2664 1.490 . S
C2660 H2650 0.930 . S
C2660 C2659 1.400 . S
C2660 C2663 1.386 . S
H2661 C2677 0.930 . S
H2662 C2678 0.931 . S
C2663 H2651 0.929 . S
C2663 C2657 1.390 . S
C2663 C2660 1.386 . S
C2664 C2659 1.490 . S
C2664 C2666 1.395 . S
C2664 C2667 1.403 . S
H2665 C2671 0.930 . S
C2666 H2652 0.930 . S
C2666 C2664 1.395 . S
C2666 C2669 1.403 1_545 S
C2667 C2664 1.403 . S
C2667 C2668 1.524 . S
C2667 C2671 1.400 1_545 S
C2668 H2653 0.960 . S
C2668 H2654 0.960 . S
C2668 H2655 0.960 . S
C2668 C2667 1.524 . S
C2669 C2666 1.403 1_565 S
C2669 C2670 1.392 . S
C2669 C2673 1.495 . S
C2670 C2669 1.392 . S
C2670 C2671 1.385 . S
C2670 C2672 1.478 . S
C2671 H2665 0.930 . S
C2671 C2667 1.400 1_565 S
C2671 C2670 1.385 . S
C2672 C2670 1.478 . S
C2672 C2674 1.381 . S
C2672 C2678 1.383 . S
C2673 C2669 1.495 . S
C2673 H2679 0.959 . S
C2673 H2680 0.961 . S
C2673 H2681 0.960 . S
C2674 C2672 1.381 . S
C2674 C2675 1.394 . S
C2674 H2682 0.930 . S
C2675 C2674 1.394 . S
C2675 C2676 1.383 . S
C2675 H2683 0.929 . S
C2676 C2675 1.383 . S
C2676 C2677 1.377 . S
C2677 H2661 0.930 . S
C2677 C2676 1.377 . S
C2677 C2678 1.379 . S
C2678 H2662 0.931 . S
C2678 C2672 1.383 . S
C2678 C2677 1.379 . S
H2679 C2673 0.959 . S
H2680 C2673 0.961 . S
H2681 C2673 0.960 . S
H2682 C2674 0.930 . S
H2683 C2675 0.929 . S
H2684 C2692 0.929 . S
H2685 C2694 0.930 . S
H2686 C2696 0.930 . S
H2687 C2699 0.929 . S
H2688 C2702 0.930 . S
H2689 C2704 0.960 . S
H2690 C2704 0.960 . S
H2691 C2704 0.960 . S
C2692 H2684 0.929 . S
C2692 C2693 1.377 . S
C2692 C2694 1.384 . S
C2693 C2692 1.377 . S
C2693 C2699 1.390 . S
C2694 H2685 0.930 . S
C2694 C2692 1.384 . S
C2694 C2695 1.372 . S
C2695 C2694 1.372 . S
C2695 C2696 1.400 . S
C2695 C2700 1.490 . S
C2696 H2686 0.930 . S
C2696 C2695 1.400 . S
C2696 C2699 1.386 . S
H2697 C2713 0.930 . S
H2698 C2714 0.931 . S
C2699 H2687 0.929 . S
C2699 C2693 1.390 . S
C2699 C2696 1.386 . S
C2700 C2695 1.490 . S
C2700 C2702 1.395 . S
C2700 C2703 1.403 . S
H2701 C2707 0.930 . S
C2702 H2688 0.930 . S
C2702 C2700 1.395 . S
C2702 C2705 1.403 . S
C2703 C2700 1.403 . S
C2703 C2704 1.524 . S
C2703 C2707 1.400 . S
C2704 H2689 0.960 . S
C2704 H2690 0.960 . S
C2704 H2691 0.960 . S
C2704 C2703 1.524 . S
C2705 C2702 1.403 . S
C2705 C2706 1.392 . S
C2705 C2709 1.495 . S
C2706 C2705 1.392 . S
C2706 C2707 1.385 . S
C2706 C2708 1.478 . S
C2707 H2701 0.930 . S
C2707 C2703 1.400 . S
C2707 C2706 1.385 . S
C2708 C2706 1.478 . S
C2708 C2710 1.381 . S
C2708 C2714 1.383 . S
C2709 C2705 1.495 . S
C2709 H2715 0.959 . S
C2709 H2716 0.961 . S
C2709 H2717 0.960 . S
C2710 C2708 1.381 . S
C2710 C2711 1.394 . S
C2710 H2718 0.930 . S
C2711 C2710 1.394 . S
C2711 C2712 1.383 . S
C2711 H2719 0.929 . S
C2712 C2711 1.383 . S
C2712 C2713 1.377 . S
C2713 H2697 0.930 . S
C2713 C2712 1.377 . S
C2713 C2714 1.379 . S
C2714 H2698 0.931 . S
C2714 C2708 1.383 . S
C2714 C2713 1.379 . S
H2715 C2709 0.959 . S
H2716 C2709 0.961 . S
H2717 C2709 0.960 . S
H2718 C2710 0.930 . S
H2719 C2711 0.929 . S
C425 C4 1.644 . S
C444 C283 1.642 . S
C461 C290 1.644 . S
C480 C23 1.642 . S
C497 C30 1.644 . S
C516 C309 1.642 . S
C533 C270 1.645 . S
C552 C43 1.640 . S
C569 C56 1.644 . S
C588 C257 1.643 . S
C605 C75 1.645 . S
C624 C212 1.639 . S
C641 C231 1.644 . S
C660 C82 1.639 . S
C677 C101 1.645 . S
C696 C238 1.638 . S
C713 C114 1.644 . S
C732 C387 1.640 . S
C749 C127 1.644 . S
C768 C400 1.641 . S
C785 C407 1.645 . S
C804 C134 1.642 . S
C821 C374 1.644 . S
C840 C153 1.639 . S
C857 C160 1.644 . S
C876 C361 1.639 . S
C893 C322 1.644 . S
C912 C179 1.638 . S
C929 C192 1.644 . S
C948 C335 1.639 . S
C965 C348 1.645 . S
C984 C205 1.642 . S
C1001 C3 1.335 . S
C1020 C120 1.355 . S
C1037 C18 1.337 . S
C1056 C341 1.354 . S
C1073 C146 1.354 . S
C1092 C29 1.332 . S
C1109 C42 1.339 . S
C1128 C315 1.352 . S
C1145 C55 1.337 . S
C1164 C198 1.353 . S
C1181 C367 1.354 . S
C1200 C70 1.352 . S
C1217 C172 1.353 . S
C1236 C81 1.349 . S
C1253 C393 1.353 . S
C1272 C96 1.348 . S
C1289 C109 1.336 . S
C1308 C16 1.348 . S
C1325 C239 1.354 . S
C1344 C122 1.351 . S
C1361 C44 1.353 . S
C1380 C133 1.326 . S
C1397 C148 1.337 . S
C1416 C213 1.355 . S
C1433 C94 1.354 . S
C1452 C159 1.350 . S
C1469 C263 1.353 . S
C1488 C174 1.325 . S
C1505 C68 1.354 . S
C1524 C187 1.350 . S
C1541 C200 1.340 . S
C1560 C291 1.348 . S
C1577 C328 1.354 . S
C1596 C211 1.337 . S
C1613 C135 1.353 . S
C1632 C226 1.351 . S
C1649 C354 1.354 . S
C1668 C237 1.349 . S
C1685 C252 1.339 . S
C1704 C107 1.352 . S
C1721 C408 1.354 . S
C1740 C265 1.341 . S
C1757 C161 1.354 . S
C1776 C278 1.348 . S
C1793 C380 1.354 . S
C1812 C289 1.352 . S
C1829 C304 1.337 . S
C1848 C185 1.353 . S
C1865 C317 1.334 . S
C1884 C224 1.351 . S
C1901 C31 1.353 . S
C1920 C330 1.326 . S
C1937 C343 1.339 . S
C1956 C250 1.348 . S
C1973 C356 1.335 . S
C1992 C5 1.353 . S
C2009 C369 1.341 . S
C2028 C302 1.353 . S
C2045 C57 1.355 . S
C2064 C382 1.346 . S
C2081 C276 1.355 . S
C2100 C395 1.321 . S
C2117 C406 1.334 . S
C2136 C83 1.353 . S
C2153 C10 1.214 . S
C2172 C62 1.221 . S
C2189 C17 1.208 . S
C2208 C69 1.194 . S
C2225 C88 1.213 . S
C2244 C36 1.216 . S
C2261 C95 1.209 . S
C2280 C49 1.198 . S
C2297 C166 1.213 . S
C2316 C108 1.215 . S
C2333 C173 1.209 . S
C2352 C121 1.203 . S
C2369 C186 1.210 . S
C2388 C140 1.199 . S
C2405 C199 1.214 . S
C2424 C147 1.194 . S
C2441 C218 1.209 . S
C2460 C264 1.198 . S
C2477 C225 1.209 . S
C2496 C277 1.199 . S
C2513 C244 1.211 . S
C2532 C296 1.209 . S
C2549 C303 1.214 . S
C2568 C251 1.221 . S
C2585 C316 1.214 . S
C2604 C368 1.210 . S
C2621 C381 1.212 . S
C2640 C329 1.195 . S
C2657 C394 1.210 . S
C2676 C342 1.199 . S
C2693 C413 1.211 . S
C2712 C355 1.198 . S
