# Generated by pormake.
# Topology vbk, (5)-cn, num edge types: 1
# Building blocks:
#     Node 0, Type 0, BuildingBlock: BEQFEK_clean_sbu_0, # of connection points: 5
#     Node 1, Type 0, BuildingBlock: BEQFEK_clean_sbu_0, # of connection points: 5
#     Node 2, Type 0, BuildingBlock: BEQFEK_clean_sbu_0, # of connection points: 5
#     Node 3, Type 0, BuildingBlock: BEQFEK_clean_sbu_0, # of connection points: 5
#     Node 4, Type 0, BuildingBlock: BEQFEK_clean_sbu_0, # of connection points: 5
#     Node 5, Type 0, BuildingBlock: BEQFEK_clean_sbu_0, # of connection points: 5
#     Node 6, Type 0, BuildingBlock: BEQFEK_clean_sbu_0, # of connection points: 5
#     Node 7, Type 0, BuildingBlock: BEQFEK_clean_sbu_0, # of connection points: 5
#     Node 8, Type 0, BuildingBlock: BEQFEK_clean_sbu_0, # of connection points: 5
#     Node 9, Type 0, BuildingBlock: BEQFEK_clean_sbu_0, # of connection points: 5
#     Node 10, Type 0, BuildingBlock: BEQFEK_clean_sbu_0, # of connection points: 5
#     Node 11, Type 0, BuildingBlock: BEQFEK_clean_sbu_0, # of connection points: 5
#     Node 12, Type 0, BuildingBlock: BEQFEK_clean_sbu_0, # of connection points: 5
#     Node 13, Type 0, BuildingBlock: BEQFEK_clean_sbu_0, # of connection points: 5
#     Node 14, Type 0, BuildingBlock: BEQFEK_clean_sbu_0, # of connection points: 5
#     Node 15, Type 0, BuildingBlock: BEQFEK_clean_sbu_0, # of connection points: 5
#     Edge 16, Type (0, 0), BuildingBlock: OJICUG_clean_linker_0, # of connection points: 2
#     Edge 17, Type (0, 0), BuildingBlock: OJICUG_clean_linker_0, # of connection points: 2
#     Edge 18, Type (0, 0), BuildingBlock: OJICUG_clean_linker_0, # of connection points: 2
#     Edge 19, Type (0, 0), BuildingBlock: OJICUG_clean_linker_0, # of connection points: 2
#     Edge 20, Type (0, 0), BuildingBlock: OJICUG_clean_linker_0, # of connection points: 2
#     Edge 21, Type (0, 0), BuildingBlock: OJICUG_clean_linker_0, # of connection points: 2
#     Edge 22, Type (0, 0), BuildingBlock: OJICUG_clean_linker_0, # of connection points: 2
#     Edge 23, Type (0, 0), BuildingBlock: OJICUG_clean_linker_0, # of connection points: 2
#     Edge 24, Type (0, 0), BuildingBlock: OJICUG_clean_linker_0, # of connection points: 2
#     Edge 25, Type (0, 0), BuildingBlock: OJICUG_clean_linker_0, # of connection points: 2
#     Edge 26, Type (0, 0), BuildingBlock: OJICUG_clean_linker_0, # of connection points: 2
#     Edge 27, Type (0, 0), BuildingBlock: OJICUG_clean_linker_0, # of connection points: 2
#     Edge 28, Type (0, 0), BuildingBlock: OJICUG_clean_linker_0, # of connection points: 2
#     Edge 29, Type (0, 0), BuildingBlock: OJICUG_clean_linker_0, # of connection points: 2
#     Edge 30, Type (0, 0), BuildingBlock: OJICUG_clean_linker_0, # of connection points: 2
#     Edge 31, Type (0, 0), BuildingBlock: OJICUG_clean_linker_0, # of connection points: 2
#     Edge 32, Type (0, 0), BuildingBlock: OJICUG_clean_linker_0, # of connection points: 2
#     Edge 33, Type (0, 0), BuildingBlock: OJICUG_clean_linker_0, # of connection points: 2
#     Edge 34, Type (0, 0), BuildingBlock: OJICUG_clean_linker_0, # of connection points: 2
#     Edge 35, Type (0, 0), BuildingBlock: OJICUG_clean_linker_0, # of connection points: 2
#     Edge 36, Type (0, 0), BuildingBlock: OJICUG_clean_linker_0, # of connection points: 2
#     Edge 37, Type (0, 0), BuildingBlock: OJICUG_clean_linker_0, # of connection points: 2
#     Edge 38, Type (0, 0), BuildingBlock: OJICUG_clean_linker_0, # of connection points: 2
#     Edge 39, Type (0, 0), BuildingBlock: OJICUG_clean_linker_0, # of connection points: 2
#     Edge 40, Type (0, 0), BuildingBlock: OJICUG_clean_linker_0, # of connection points: 2
#     Edge 41, Type (0, 0), BuildingBlock: OJICUG_clean_linker_0, # of connection points: 2
#     Edge 42, Type (0, 0), BuildingBlock: OJICUG_clean_linker_0, # of connection points: 2
#     Edge 43, Type (0, 0), BuildingBlock: OJICUG_clean_linker_0, # of connection points: 2
#     Edge 44, Type (0, 0), BuildingBlock: OJICUG_clean_linker_0, # of connection points: 2
#     Edge 45, Type (0, 0), BuildingBlock: OJICUG_clean_linker_0, # of connection points: 2
#     Edge 46, Type (0, 0), BuildingBlock: OJICUG_clean_linker_0, # of connection points: 2
#     Edge 47, Type (0, 0), BuildingBlock: OJICUG_clean_linker_0, # of connection points: 2
#     Edge 48, Type (0, 0), BuildingBlock: OJICUG_clean_linker_0, # of connection points: 2
#     Edge 49, Type (0, 0), BuildingBlock: OJICUG_clean_linker_0, # of connection points: 2
#     Edge 50, Type (0, 0), BuildingBlock: OJICUG_clean_linker_0, # of connection points: 2
#     Edge 51, Type (0, 0), BuildingBlock: OJICUG_clean_linker_0, # of connection points: 2
#     Edge 52, Type (0, 0), BuildingBlock: OJICUG_clean_linker_0, # of connection points: 2
#     Edge 53, Type (0, 0), BuildingBlock: OJICUG_clean_linker_0, # of connection points: 2
#     Edge 54, Type (0, 0), BuildingBlock: OJICUG_clean_linker_0, # of connection points: 2
#     Edge 55, Type (0, 0), BuildingBlock: OJICUG_clean_linker_0, # of connection points: 2
# Relax obj value: 0.033
# Max RMSD: 0.061
# Mean RMSD: 0.061
data_MOF--net-vbk--node1-BEQFEK_clean_sbu_0--edge1-OJICUG_clean_linker_0
_symmetry_space_group_name_H-M    P1
_symmetry_Int_Tables_number       1
_symmetry_cell_setting            triclinic
loop_
_symmetry_equiv_pos_as_xyz
'x, y, z'
_cell_length_a     60.508101
_cell_length_b     31.350822
_cell_length_c     20.184313
_cell_angle_alpha  90.00022
_cell_angle_beta   90.023736
_cell_angle_gamma 90.000203
loop_
_atom_site_label
_atom_site_type_symbol
_atom_site_fract_x
_atom_site_fract_y
_atom_site_fract_z
_atom_type_partial_charge
Co0 Co 0.09724 0.14193 0.13039 0.0
Co1 Co 0.14944 0.14248 0.13184 0.0
C2 C 0.12576 0.06811 0.08078 0.0
O3 O 0.10742 0.08709 0.0909 0.0
O4 O 0.14409 0.08473 0.09804 0.0
C5 C 0.05459 0.10562 0.16305 0.0
O6 O 0.06589 0.07083 0.17611 0.0
C7 C 0.19709 0.13343 0.17165 0.0
C8 C 0.20912 0.19632 0.13831 0.0
C9 C 0.21567 0.15998 0.17225 0.0
N10 N 0.18042 0.15422 0.14101 0.0
N11 N 0.188 0.19127 0.11992 0.0
C12 C 0.19461 0.09032 0.20255 0.0
H13 H 0.17697 0.08058 0.2034 0.0
H14 H 0.20137 0.09042 0.25367 0.0
H15 H 0.20404 0.06667 0.17301 0.0
C16 C 0.10431 0.17228 0.26666 0.0
N17 N 0.11205 0.1553 0.20997 0.0
N18 N 0.13378 0.15396 0.21206 0.0
C19 C 0.14052 0.16896 0.27132 0.0
C20 C 0.12213 0.18158 0.30764 0.0
C21 C 0.0807 0.18521 0.27632 0.0
H22 H 0.07384 0.19759 0.22914 0.0
H23 H 0.07093 0.15679 0.29099 0.0
H24 H 0.07894 0.2101 0.31498 0.0
O25 O 0.1027 0.18711 0.06521 0.0
O26 O 0.1393 0.18199 0.06099 0.0
H27 H 0.17298 0.19541 0.26104 0.0
H28 H 0.16588 0.18091 0.3453 0.0
C29 C 0.16417 0.17189 0.29245 0.0
H30 H 0.17199 0.14038 0.28628 0.0
H31 H 0.17845 0.21406 0.09544 0.0
O32 O 0.06478 0.13889 0.14404 0.0
C33 C 0.12118 0.19788 0.04046 0.0
Co34 Co 0.41613 0.84374 0.63015 0.0
Co35 Co 0.36388 0.839 0.63095 0.0
C36 C 0.38721 0.91511 0.57879 0.0
O37 O 0.40585 0.89826 0.59215 0.0
O38 O 0.3691 0.89642 0.59297 0.0
C39 C 0.45893 0.88034 0.66051 0.0
O40 O 0.44778 0.91561 0.67129 0.0
C41 C 0.31639 0.84887 0.67229 0.0
C42 C 0.30388 0.78637 0.6388 0.0
C43 C 0.29766 0.82275 0.67316 0.0
N44 N 0.33284 0.82779 0.64107 0.0
N45 N 0.32496 0.79098 0.61991 0.0
C46 C 0.31924 0.89178 0.70357 0.0
H47 H 0.33696 0.90097 0.70448 0.0
H48 H 0.31249 0.8917 0.75469 0.0
H49 H 0.30999 0.91581 0.67425 0.0
C50 C 0.40948 0.8135 0.76668 0.0
N51 N 0.40144 0.82972 0.70977 0.0
N52 N 0.37969 0.82956 0.71171 0.0
C53 C 0.37322 0.81409 0.77094 0.0
C54 C 0.39184 0.80291 0.80752 0.0
C55 C 0.43332 0.80233 0.7766 0.0
H56 H 0.44009 0.78821 0.73049 0.0
H57 H 0.44274 0.83189 0.7874 0.0
H58 H 0.43571 0.77942 0.81779 0.0
O59 O 0.41067 0.79971 0.56314 0.0
O60 O 0.37399 0.79669 0.56388 0.0
H61 H 0.34143 0.78503 0.75867 0.0
H62 H 0.34801 0.79851 0.84375 0.0
C63 C 0.34962 0.80866 0.79139 0.0
H64 H 0.34106 0.83955 0.78651 0.0
H65 H 0.33428 0.76805 0.59499 0.0
O66 O 0.44861 0.84674 0.64359 0.0
C67 C 0.3926 0.78433 0.54161 0.0
Co68 Co 0.09735 0.84296 0.86719 0.0
Co69 Co 0.14966 0.84284 0.86532 0.0
C70 C 0.12589 0.91672 0.91753 0.0
O71 O 0.10757 0.89763 0.9073 0.0
O72 O 0.14425 0.90036 0.89993 0.0
C73 C 0.05458 0.87938 0.83546 0.0
O74 O 0.06586 0.9143 0.82318 0.0
C75 C 0.19747 0.85141 0.82562 0.0
C76 C 0.20915 0.78826 0.85884 0.0
C77 C 0.21592 0.82449 0.82507 0.0
N78 N 0.18066 0.83089 0.85603 0.0
N79 N 0.18805 0.79367 0.87705 0.0
C80 C 0.19528 0.8947 0.79514 0.0
H81 H 0.17772 0.90498 0.79464 0.0
H82 H 0.20195 0.89456 0.74392 0.0
H83 H 0.20496 0.91795 0.82471 0.0
C84 C 0.10442 0.81336 0.73052 0.0
N85 N 0.11217 0.83014 0.78738 0.0
N86 N 0.1339 0.83177 0.78514 0.0
C87 C 0.14061 0.81721 0.72563 0.0
C88 C 0.12223 0.80451 0.68931 0.0
C89 C 0.08085 0.80017 0.72086 0.0
H90 H 0.07405 0.78759 0.76799 0.0
H91 H 0.07098 0.82851 0.7064 0.0
H92 H 0.07915 0.77537 0.68204 0.0
O93 O 0.10297 0.79745 0.93177 0.0
O94 O 0.13956 0.80292 0.9356 0.0
H95 H 0.17316 0.79106 0.73512 0.0
H96 H 0.16591 0.80616 0.65122 0.0
C97 C 0.16425 0.81473 0.70426 0.0
H98 H 0.17196 0.8463 0.711 0.0
H99 H 0.17838 0.77102 0.90137 0.0
O100 O 0.06482 0.84595 0.85368 0.0
C101 C 0.12152 0.78674 0.95615 0.0
Co102 Co 0.41587 0.14046 0.36634 0.0
Co103 Co 0.36362 0.14129 0.36465 0.0
C104 C 0.38704 0.06684 0.41606 0.0
O105 O 0.40541 0.0858 0.40602 0.0
O106 O 0.36874 0.08344 0.39853 0.0
C107 C 0.45883 0.10368 0.33713 0.0
O108 O 0.44776 0.06817 0.32746 0.0
C109 C 0.31595 0.1328 0.32469 0.0
C110 C 0.30414 0.19591 0.35773 0.0
C111 C 0.29747 0.1596 0.32393 0.0
N112 N 0.33269 0.15343 0.35529 0.0
N113 N 0.32523 0.19062 0.3762 0.0
C114 C 0.3183 0.08961 0.29396 0.0
H115 H 0.3359 0.07964 0.29322 0.0
H116 H 0.31156 0.08973 0.24281 0.0
H117 H 0.30877 0.06614 0.32355 0.0
C118 C 0.4089 0.17083 0.23004 0.0
N119 N 0.4011 0.15387 0.28669 0.0
N120 N 0.37937 0.15263 0.28449 0.0
C121 C 0.37269 0.16766 0.22519 0.0
C122 C 0.39112 0.18022 0.18898 0.0
C123 C 0.43254 0.18363 0.22054 0.0
H124 H 0.43933 0.19623 0.26768 0.0
H125 H 0.44231 0.15509 0.20645 0.0
H126 H 0.43439 0.20829 0.18159 0.0
O127 O 0.41044 0.18576 0.43129 0.0
O128 O 0.37384 0.18074 0.43554 0.0
H129 H 0.34028 0.19435 0.23514 0.0
H130 H 0.3474 0.1796 0.15101 0.0
C131 C 0.34905 0.17069 0.20391 0.0
H132 H 0.34118 0.13924 0.21024 0.0
H133 H 0.33485 0.21332 0.40062 0.0
O134 O 0.44841 0.1374 0.35288 0.0
C135 C 0.39198 0.19659 0.45602 0.0
Co136 Co 0.91591 0.84408 0.86627 0.0
Co137 Co 0.86366 0.84334 0.86437 0.0
C138 C 0.8871 0.91772 0.91603 0.0
O139 O 0.90546 0.89875 0.90598 0.0
O140 O 0.86879 0.90115 0.89842 0.0
C141 C 0.95885 0.88034 0.83504 0.0
O142 O 0.94775 0.91549 0.82275 0.0
C143 C 0.816 0.85183 0.82427 0.0
C144 C 0.80423 0.78858 0.8568 0.0
C145 C 0.79755 0.82496 0.8232 0.0
N146 N 0.83274 0.83119 0.85483 0.0
N147 N 0.8253 0.79391 0.87545 0.0
C148 C 0.81832 0.8951 0.7938 0.0
H149 H 0.83592 0.90513 0.79313 0.0
H150 H 0.81158 0.89509 0.74265 0.0
H151 H 0.80877 0.91848 0.82351 0.0
C152 C 0.90898 0.81377 0.72989 0.0
N153 N 0.90118 0.83074 0.78653 0.0
N154 N 0.87945 0.83207 0.78424 0.0
C155 C 0.87278 0.81713 0.72488 0.0
C156 C 0.89121 0.8045 0.68873 0.0
C157 C 0.9326 0.80085 0.72045 0.0
H158 H 0.93941 0.78843 0.76768 0.0
H159 H 0.94239 0.82928 0.70596 0.0
H160 H 0.9344 0.77599 0.68176 0.0
O161 O 0.91043 0.79876 0.93112 0.0
O162 O 0.87383 0.80382 0.93525 0.0
H163 H 0.84033 0.79056 0.73447 0.0
H164 H 0.84752 0.80552 0.65048 0.0
C165 C 0.84915 0.81427 0.70346 0.0
H166 H 0.84131 0.84574 0.70996 0.0
H167 H 0.83494 0.77117 0.89975 0.0
O168 O 0.94845 0.84707 0.85304 0.0
C169 C 0.89195 0.78793 0.95577 0.0
Co170 Co 0.59734 0.14168 0.36713 0.0
Co171 Co 0.64965 0.14187 0.36534 0.0
C172 C 0.62591 0.06799 0.41759 0.0
O173 O 0.60759 0.08706 0.40735 0.0
O174 O 0.64427 0.08435 0.39997 0.0
C175 C 0.55456 0.10471 0.33741 0.0
O176 O 0.56582 0.06944 0.32757 0.0
C177 C 0.69747 0.13329 0.32575 0.0
C178 C 0.70916 0.19644 0.359 0.0
C179 C 0.71593 0.16019 0.32526 0.0
N180 N 0.68066 0.15384 0.3561 0.0
N181 N 0.68805 0.19105 0.37713 0.0
C182 C 0.69527 0.09 0.29529 0.0
H183 H 0.67771 0.07973 0.29479 0.0
H184 H 0.70194 0.09012 0.24408 0.0
H185 H 0.70496 0.06675 0.32488 0.0
C186 C 0.60443 0.17122 0.23046 0.0
N187 N 0.61217 0.15447 0.28734 0.0
N188 N 0.6339 0.15288 0.28513 0.0
C189 C 0.64062 0.16744 0.22562 0.0
C190 C 0.62224 0.18009 0.18927 0.0
C191 C 0.58085 0.18434 0.22078 0.0
H192 H 0.57407 0.19706 0.26784 0.0
H193 H 0.57098 0.15593 0.20662 0.0
H194 H 0.57911 0.209 0.18176 0.0
O195 O 0.60293 0.18723 0.43167 0.0
O196 O 0.63952 0.18178 0.43556 0.0
H197 H 0.67316 0.19366 0.23517 0.0
H198 H 0.66593 0.17853 0.15126 0.0
C199 C 0.66426 0.16996 0.20429 0.0
H200 H 0.67199 0.13842 0.21106 0.0
H201 H 0.67837 0.21371 0.40142 0.0
O202 O 0.56481 0.13858 0.35348 0.0
C203 C 0.62147 0.19797 0.45608 0.0
Co204 Co 0.91613 0.14086 0.13009 0.0
Co205 Co 0.86389 0.1455 0.13102 0.0
C206 C 0.88724 0.06937 0.07897 0.0
O207 O 0.90588 0.08625 0.09229 0.0
O208 O 0.86913 0.08807 0.09311 0.0
C209 C 0.95893 0.10482 0.16238 0.0
O210 O 0.94776 0.06991 0.1756 0.0
C211 C 0.8164 0.13565 0.17245 0.0
C212 C 0.80391 0.1982 0.13909 0.0
C213 C 0.79768 0.16181 0.17341 0.0
N214 N 0.83285 0.15671 0.1412 0.0
N215 N 0.82498 0.19355 0.12013 0.0
C216 C 0.81923 0.09272 0.20367 0.0
H217 H 0.83694 0.08349 0.20455 0.0
H218 H 0.81248 0.09279 0.25479 0.0
H219 H 0.80996 0.06872 0.17434 0.0
C220 C 0.9095 0.17128 0.26659 0.0
N221 N 0.90147 0.15496 0.20973 0.0
N222 N 0.87971 0.15503 0.21173 0.0
C223 C 0.87325 0.17049 0.27096 0.0
C224 C 0.89186 0.18179 0.30746 0.0
C225 C 0.93333 0.18258 0.27645 0.0
H226 H 0.94013 0.19636 0.23014 0.0
H227 H 0.94276 0.15314 0.28794 0.0
H228 H 0.93566 0.20583 0.31721 0.0
O229 O 0.91064 0.18479 0.06298 0.0
O230 O 0.87395 0.18778 0.06383 0.0
H231 H 0.84141 0.1994 0.2589 0.0
H232 H 0.84804 0.18584 0.34391 0.0
C233 C 0.84964 0.17577 0.29151 0.0
H234 H 0.84113 0.14484 0.28656 0.0
H235 H 0.8343 0.21648 0.09521 0.0
O236 O 0.94861 0.13796 0.14337 0.0
C237 C 0.89255 0.20014 0.04146 0.0
Co238 Co 0.59726 0.84277 0.63035 0.0
Co239 Co 0.64947 0.84214 0.63163 0.0
C240 C 0.6258 0.91655 0.5807 0.0
O241 O 0.60745 0.89758 0.59082 0.0
O242 O 0.64413 0.89991 0.59793 0.0
C243 C 0.55459 0.87962 0.66111 0.0
O244 O 0.56587 0.91478 0.67171 0.0
C245 C 0.69713 0.85117 0.67128 0.0
C246 C 0.70918 0.78839 0.63752 0.0
C247 C 0.71573 0.82467 0.67161 0.0
N248 N 0.68045 0.8304 0.64064 0.0
N249 N 0.68805 0.79341 0.61931 0.0
C250 C 0.69463 0.89422 0.70236 0.0
H251 H 0.67698 0.90393 0.70326 0.0
H252 H 0.70139 0.89403 0.75349 0.0
H253 H 0.70405 0.91793 0.67293 0.0
C254 C 0.60437 0.81242 0.76657 0.0
N255 N 0.6121 0.82938 0.70986 0.0
N256 N 0.63384 0.83063 0.71188 0.0
C257 C 0.64058 0.81558 0.77109 0.0
C258 C 0.62219 0.80302 0.80747 0.0
C259 C 0.58074 0.7996 0.77629 0.0
H260 H 0.57389 0.78703 0.72921 0.0
H261 H 0.57098 0.82813 0.79055 0.0
H262 H 0.57893 0.7749 0.81521 0.0
O263 O 0.60267 0.79758 0.56512 0.0
O264 O 0.63927 0.80267 0.56078 0.0
H265 H 0.673 0.78901 0.76052 0.0
H266 H 0.66597 0.80337 0.8449 0.0
C267 C 0.66424 0.8125 0.7921 0.0
H268 H 0.67209 0.84399 0.78604 0.0
H269 H 0.6785 0.77066 0.59475 0.0
O270 O 0.5648 0.84589 0.64421 0.0
C271 C 0.62114 0.78682 0.54031 0.0
Co272 Co 0.59735 0.64097 0.13003 0.0
Co273 Co 0.64959 0.64172 0.13189 0.0
C274 C 0.62609 0.56729 0.08045 0.0
O275 O 0.60772 0.58624 0.09037 0.0
O276 O 0.64439 0.58392 0.09801 0.0
C277 C 0.55463 0.6035 0.15749 0.0
O278 O 0.5659 0.568 0.16493 0.0
C279 C 0.69727 0.63322 0.17199 0.0
C280 C 0.70908 0.6963 0.1388 0.0
C281 C 0.71574 0.66003 0.17272 0.0
N282 N 0.68053 0.65381 0.1413 0.0
N283 N 0.68799 0.69097 0.12031 0.0
C284 C 0.69492 0.59006 0.20281 0.0
H285 H 0.67732 0.58007 0.20356 0.0
H286 H 0.70166 0.59023 0.25397 0.0
H287 H 0.70446 0.56657 0.1733 0.0
C288 C 0.60428 0.67134 0.2663 0.0
N289 N 0.6121 0.65435 0.20971 0.0
N290 N 0.63383 0.65309 0.21199 0.0
C291 C 0.64049 0.66814 0.27129 0.0
C292 C 0.62205 0.68074 0.30742 0.0
C293 C 0.58064 0.68417 0.27569 0.0
H294 H 0.5739 0.69689 0.22856 0.0
H295 H 0.57084 0.65561 0.28952 0.0
H296 H 0.57877 0.70874 0.31476 0.0
O297 O 0.6028 0.68625 0.06505 0.0
O298 O 0.63941 0.68116 0.06098 0.0
H299 H 0.67291 0.69481 0.26137 0.0
H300 H 0.66576 0.68014 0.34552 0.0
C301 C 0.66412 0.67118 0.29262 0.0
H302 H 0.67199 0.63972 0.28639 0.0
H303 H 0.67837 0.71365 0.09582 0.0
O304 O 0.56486 0.63778 0.14363 0.0
C305 C 0.62129 0.69704 0.0404 0.0
Co306 Co 0.91576 0.34604 0.63221 0.0
Co307 Co 0.86354 0.34127 0.62952 0.0
C308 C 0.88773 0.41753 0.57967 0.0
O309 O 0.90629 0.40003 0.59149 0.0
O310 O 0.86959 0.39949 0.59538 0.0
C311 C 0.95896 0.38255 0.65522 0.0
O312 O 0.94812 0.41883 0.65717 0.0
C313 C 0.81727 0.34973 0.6802 0.0
C314 C 0.80075 0.30135 0.61804 0.0
C315 C 0.79704 0.32944 0.66989 0.0
N316 N 0.83215 0.33347 0.63726 0.0
N317 N 0.82196 0.30524 0.59951 0.0
C318 C 0.8229 0.3817 0.73254 0.0
H319 H 0.84108 0.38494 0.7377 0.0
H320 H 0.81544 0.37236 0.78062 0.0
H321 H 0.81598 0.41315 0.71821 0.0
C322 C 0.90817 0.32281 0.77132 0.0
N323 N 0.90033 0.33481 0.71183 0.0
N324 N 0.87883 0.32842 0.70988 0.0
C325 C 0.87255 0.30957 0.76698 0.0
C326 C 0.89089 0.30594 0.80829 0.0
C327 C 0.93193 0.32663 0.79111 0.0
H328 H 0.93841 0.35805 0.77519 0.0
H329 H 0.93403 0.3237 0.84552 0.0
H330 H 0.94167 0.30142 0.7659 0.0
O331 O 0.91021 0.30006 0.56645 0.0
O332 O 0.87352 0.30198 0.55977 0.0
H333 H 0.85273 0.25803 0.8058 0.0
H334 H 0.83945 0.30914 0.80423 0.0
C335 C 0.85074 0.28776 0.77659 0.0
H336 H 0.84325 0.27946 0.72826 0.0
H337 H 0.82968 0.2874 0.56254 0.0
O338 O 0.94831 0.348 0.64668 0.0
C339 C 0.89212 0.28765 0.54062 0.0
Co340 Co 0.59767 0.34217 0.86692 0.0
Co341 Co 0.65001 0.34148 0.86545 0.0
C342 C 0.62641 0.41563 0.91764 0.0
O343 O 0.60805 0.39674 0.90702 0.0
O344 O 0.64477 0.39906 0.90042 0.0
C345 C 0.55479 0.37879 0.83601 0.0
O346 O 0.56596 0.41398 0.82468 0.0
C347 C 0.69792 0.35019 0.8274 0.0
C348 C 0.70909 0.28524 0.85317 0.0
C349 C 0.71611 0.32286 0.82392 0.0
N350 N 0.68095 0.32887 0.85552 0.0
N351 N 0.68804 0.2905 0.87218 0.0
C352 C 0.69604 0.39437 0.79999 0.0
H353 H 0.67848 0.40461 0.79818 0.0
H354 H 0.70343 0.39588 0.74973 0.0
H355 H 0.70529 0.41667 0.83245 0.0
C356 C 0.60481 0.31264 0.73023 0.0
N357 N 0.6125 0.32924 0.78726 0.0
N358 N 0.63423 0.33097 0.78511 0.0
C359 C 0.64099 0.31686 0.72539 0.0
C360 C 0.62263 0.30415 0.68889 0.0
C361 C 0.58126 0.29928 0.72047 0.0
H362 H 0.57433 0.28733 0.76782 0.0
H363 H 0.57142 0.32738 0.70474 0.0
H364 H 0.57969 0.27392 0.68248 0.0
O365 O 0.60315 0.29669 0.9315 0.0
O366 O 0.63976 0.30161 0.93562 0.0
H367 H 0.67346 0.29011 0.7326 0.0
H368 H 0.66622 0.30825 0.65019 0.0
C369 C 0.66463 0.31501 0.70389 0.0
H370 H 0.67248 0.34617 0.71352 0.0
H371 H 0.67814 0.26705 0.89372 0.0
O372 O 0.56512 0.34528 0.85336 0.0
C373 C 0.62163 0.28572 0.95601 0.0
Co374 Co 0.91617 0.64247 0.36608 0.0
Co375 Co 0.86389 0.64297 0.36442 0.0
C376 C 0.88745 0.56878 0.41604 0.0
O377 O 0.90579 0.58781 0.40592 0.0
O378 O 0.86912 0.58525 0.39847 0.0
C379 C 0.95906 0.60587 0.33552 0.0
O380 O 0.94789 0.57065 0.32435 0.0
C381 C 0.81621 0.63403 0.32468 0.0
C382 C 0.80429 0.69711 0.35743 0.0
C383 C 0.79767 0.66067 0.32388 0.0
N384 N 0.83293 0.65486 0.35505 0.0
N385 N 0.8254 0.69204 0.37578 0.0
C386 C 0.81863 0.59077 0.29425 0.0
H387 H 0.83625 0.5809 0.29356 0.0
H388 H 0.8119 0.5907 0.2431 0.0
H389 H 0.80914 0.56731 0.32398 0.0
C390 C 0.90909 0.67267 0.22969 0.0
N391 N 0.90135 0.65571 0.28641 0.0
N392 N 0.87962 0.65426 0.28424 0.0
C393 C 0.87289 0.66912 0.22491 0.0
C394 C 0.89127 0.68184 0.18863 0.0
C395 C 0.93269 0.68568 0.22007 0.0
H396 H 0.93953 0.69806 0.26728 0.0
H397 H 0.94249 0.65729 0.20542 0.0
H398 H 0.93443 0.71057 0.18142 0.0
O399 O 0.91066 0.68779 0.431 0.0
O400 O 0.87406 0.68254 0.4352 0.0
H401 H 0.8404 0.69551 0.23467 0.0
H402 H 0.84756 0.68054 0.15066 0.0
C403 C 0.84924 0.67183 0.20364 0.0
H404 H 0.84145 0.64032 0.21023 0.0
H405 H 0.83499 0.71488 0.40001 0.0
O406 O 0.94872 0.63942 0.35262 0.0
C407 C 0.89217 0.69851 0.45571 0.0
Co408 Co 0.41615 0.34216 0.8663 0.0
Co409 Co 0.36388 0.34168 0.86452 0.0
C410 C 0.38742 0.41589 0.91609 0.0
O411 O 0.40576 0.39684 0.90604 0.0
O412 O 0.36909 0.39942 0.89851 0.0
C413 C 0.45904 0.37874 0.83571 0.0
O414 O 0.44787 0.41393 0.82439 0.0
C415 C 0.31622 0.35063 0.82462 0.0
C416 C 0.30428 0.28753 0.85728 0.0
C417 C 0.29768 0.32398 0.82373 0.0
N418 N 0.33291 0.32979 0.85505 0.0
N419 N 0.32538 0.2926 0.87574 0.0
C420 C 0.31864 0.39388 0.79417 0.0
H421 H 0.33627 0.40373 0.79347 0.0
H422 H 0.3119 0.39394 0.74302 0.0
H423 H 0.30916 0.41735 0.8239 0.0
C424 C 0.40911 0.3119 0.72994 0.0
N425 N 0.40136 0.3289 0.78662 0.0
N426 N 0.37963 0.33035 0.7844 0.0
C427 C 0.37291 0.31545 0.72506 0.0
C428 C 0.3913 0.30272 0.68885 0.0
C429 C 0.43271 0.29889 0.7204 0.0
H430 H 0.43954 0.28651 0.76763 0.0
H431 H 0.44252 0.32727 0.70578 0.0
H432 H 0.43447 0.27399 0.68175 0.0
O433 O 0.41062 0.29687 0.93125 0.0
O434 O 0.37402 0.30214 0.93538 0.0
H435 H 0.34042 0.28907 0.73476 0.0
H436 H 0.3476 0.304 0.65075 0.0
C437 C 0.34927 0.31274 0.70373 0.0
H438 H 0.34148 0.34425 0.71027 0.0
H439 H 0.33497 0.26977 0.9 0.0
O440 O 0.4487 0.34521 0.85291 0.0
C441 C 0.39212 0.28617 0.95593 0.0
Co442 Co 0.09768 0.64244 0.36689 0.0
Co443 Co 0.15003 0.64314 0.36553 0.0
C444 C 0.12641 0.56897 0.41763 0.0
O445 O 0.10806 0.58786 0.40698 0.0
O446 O 0.14477 0.58554 0.40045 0.0
C447 C 0.05481 0.60581 0.33594 0.0
O448 O 0.06598 0.57061 0.32471 0.0
C449 C 0.19794 0.63443 0.32756 0.0
C450 C 0.20913 0.69934 0.35357 0.0
C451 C 0.21614 0.66176 0.3242 0.0
N452 N 0.18097 0.65573 0.35571 0.0
N453 N 0.18806 0.69407 0.37251 0.0
C454 C 0.19606 0.59029 0.30002 0.0
H455 H 0.1785 0.58007 0.29816 0.0
H456 H 0.20346 0.58883 0.24976 0.0
H457 H 0.2053 0.56794 0.33243 0.0
C458 C 0.10485 0.67202 0.23024 0.0
N459 N 0.11254 0.6554 0.28727 0.0
N460 N 0.13427 0.65368 0.28517 0.0
C461 C 0.14104 0.66783 0.22548 0.0
C462 C 0.12269 0.68054 0.18895 0.0
C463 C 0.08131 0.68536 0.22044 0.0
H464 H 0.07437 0.69731 0.26777 0.0
H465 H 0.07147 0.65725 0.20472 0.0
H466 H 0.07973 0.71071 0.18244 0.0
O467 O 0.10315 0.6879 0.43152 0.0
O468 O 0.13976 0.68298 0.4357 0.0
H469 H 0.1735 0.6946 0.23285 0.0
H470 H 0.16629 0.67656 0.15037 0.0
C471 C 0.16468 0.66973 0.20405 0.0
H472 H 0.17254 0.63857 0.21361 0.0
H473 H 0.17817 0.7175 0.39411 0.0
O474 O 0.06514 0.63933 0.35324 0.0
C475 C 0.12163 0.69887 0.45607 0.0
Co476 Co 0.41577 0.63864 0.13216 0.0
Co477 Co 0.36355 0.64343 0.12958 0.0
C478 C 0.38771 0.56719 0.0796 0.0
O479 O 0.40628 0.58469 0.09139 0.0
O480 O 0.36958 0.58523 0.09537 0.0
C481 C 0.45897 0.60208 0.15491 0.0
O482 O 0.44812 0.5658 0.1567 0.0
C483 C 0.31729 0.63498 0.18032 0.0
C484 C 0.30078 0.68349 0.11838 0.0
C485 C 0.29706 0.65532 0.17014 0.0
N486 N 0.33216 0.65128 0.1374 0.0
N487 N 0.32198 0.67959 0.09979 0.0
C488 C 0.32292 0.60292 0.23254 0.0
H489 H 0.3411 0.59966 0.23767 0.0
H490 H 0.31547 0.61221 0.28067 0.0
H491 H 0.31599 0.5715 0.21811 0.0
C492 C 0.40821 0.66177 0.27132 0.0
N493 N 0.40036 0.64983 0.21183 0.0
N494 N 0.37886 0.65623 0.20993 0.0
C495 C 0.3726 0.67502 0.26709 0.0
C496 C 0.39095 0.6786 0.30837 0.0
C497 C 0.43198 0.65793 0.29105 0.0
H498 H 0.43845 0.62651 0.27504 0.0
H499 H 0.43409 0.6608 0.34547 0.0
H500 H 0.44172 0.68316 0.26589 0.0
O501 O 0.41022 0.68467 0.06649 0.0
O502 O 0.37353 0.68275 0.05984 0.0
H503 H 0.35278 0.72651 0.30611 0.0
H504 H 0.3395 0.6754 0.30439 0.0
C505 C 0.35079 0.69681 0.2768 0.0
H506 H 0.34329 0.70519 0.22852 0.0
H507 H 0.3297 0.69747 0.06287 0.0
O508 O 0.44832 0.63665 0.14656 0.0
C509 C 0.39212 0.69709 0.04069 0.0
Co510 Co 0.09735 0.34368 0.63021 0.0
Co511 Co 0.14958 0.34292 0.63195 0.0
C512 C 0.12608 0.41735 0.58052 0.0
O513 O 0.1077 0.39841 0.5905 0.0
O514 O 0.14438 0.40071 0.59805 0.0
C515 C 0.05463 0.38111 0.65791 0.0
O516 O 0.0659 0.41659 0.66554 0.0
C517 C 0.19727 0.35144 0.6719 0.0
C518 C 0.20909 0.2884 0.63855 0.0
C519 C 0.21576 0.32465 0.6725 0.0
N520 N 0.18054 0.33085 0.64124 0.0
N521 N 0.188 0.29371 0.62016 0.0
C522 C 0.19493 0.39458 0.70277 0.0
H523 H 0.17733 0.40457 0.70353 0.0
H524 H 0.20166 0.39439 0.75392 0.0
H525 H 0.20447 0.41809 0.67328 0.0
C526 C 0.10432 0.31333 0.76649 0.0
N527 N 0.11212 0.33031 0.70986 0.0
N528 N 0.13385 0.33156 0.71208 0.0
C529 C 0.14053 0.31651 0.77136 0.0
C530 C 0.1221 0.30393 0.80755 0.0
C531 C 0.08068 0.30052 0.77594 0.0
H532 H 0.07392 0.28781 0.72884 0.0
H533 H 0.07089 0.32908 0.78983 0.0
H534 H 0.07882 0.27593 0.81501 0.0
O535 O 0.10278 0.29839 0.56522 0.0
O536 O 0.13938 0.30346 0.56109 0.0
H537 H 0.17295 0.28984 0.76133 0.0
H538 H 0.16582 0.30449 0.84551 0.0
C539 C 0.16417 0.31346 0.79263 0.0
H540 H 0.17204 0.34492 0.78639 0.0
H541 H 0.17838 0.27104 0.59566 0.0
O542 O 0.06485 0.34686 0.64387 0.0
C543 C 0.12126 0.2876 0.54054 0.0
C544 C 0.24689 0.19564 0.22983 0.0
C545 C 0.23664 0.15732 0.21087 0.0
H546 H 0.27355 0.22611 0.27892 0.0
C547 C 0.24667 0.11858 0.2295 0.0
H548 H 0.23979 0.22627 0.21708 0.0
C549 C 0.26634 0.11849 0.26678 0.0
C550 C 0.27649 0.15714 0.28531 0.0
H551 H 0.23964 0.08836 0.21483 0.0
H552 H 0.27328 0.0882 0.28153 0.0
C553 C 0.26636 0.19554 0.26625 0.0
C554 C 0.24719 0.86516 0.76767 0.0
C555 C 0.23694 0.82668 0.78661 0.0
H556 H 0.274 0.89481 0.71542 0.0
C557 C 0.24702 0.7881 0.76808 0.0
H558 H 0.24031 0.89557 0.782 0.0
C559 C 0.26649 0.78768 0.73168 0.0
C560 C 0.2768 0.82581 0.71219 0.0
H561 H 0.23978 0.75764 0.78109 0.0
H562 H 0.27352 0.75693 0.71928 0.0
C563 C 0.26688 0.86473 0.73044 0.0
C564 C 0.74669 0.86605 0.72918 0.0
C565 C 0.73674 0.82732 0.71004 0.0
H566 H 0.77323 0.89637 0.78163 0.0
C567 C 0.74711 0.78899 0.72837 0.0
H568 H 0.73958 0.89629 0.71497 0.0
C569 C 0.76659 0.78906 0.76477 0.0
C570 C 0.77661 0.82745 0.78444 0.0
H571 H 0.7401 0.75836 0.71518 0.0
H572 H 0.77387 0.75849 0.77699 0.0
C573 C 0.76637 0.86611 0.76645 0.0
C574 C 0.74718 0.11947 0.26782 0.0
C575 C 0.73698 0.15797 0.28691 0.0
H576 H 0.77395 0.0898 0.21545 0.0
C577 C 0.74712 0.19653 0.26861 0.0
H578 H 0.74026 0.08906 0.282 0.0
C579 C 0.76659 0.19693 0.23223 0.0
C580 C 0.77684 0.15879 0.21253 0.0
H581 H 0.73992 0.227 0.28176 0.0
H582 H 0.77367 0.22766 0.21998 0.0
C583 C 0.76687 0.11988 0.2306 0.0
C584 C 0.7469 0.619 0.22988 0.0
C585 C 0.73672 0.65762 0.21133 0.0
H586 H 0.77366 0.58895 0.28169 0.0
C587 C 0.74685 0.69605 0.2303 0.0
H588 H 0.73997 0.58869 0.21523 0.0
C589 C 0.76635 0.6962 0.26658 0.0
C590 C 0.77665 0.65793 0.2855 0.0
H591 H 0.73963 0.7266 0.21763 0.0
H592 H 0.77344 0.72686 0.27923 0.0
C593 C 0.76661 0.61915 0.26703 0.0
C594 C 0.76837 0.36672 0.74165 0.0
C595 C 0.77658 0.32973 0.71065 0.0
H596 H 0.74286 0.39395 0.8026 0.0
C597 C 0.76471 0.2915 0.71742 0.0
H598 H 0.77687 0.39687 0.73654 0.0
C599 C 0.74531 0.28995 0.75424 0.0
C600 C 0.73691 0.32667 0.78517 0.0
H601 H 0.77052 0.26232 0.69455 0.0
H602 H 0.73672 0.25971 0.75774 0.0
C603 C 0.74866 0.3652 0.77862 0.0
C604 C 0.24694 0.28861 0.72974 0.0
C605 C 0.23676 0.32706 0.71103 0.0
H606 H 0.27356 0.25779 0.77851 0.0
C607 C 0.2469 0.36567 0.7298 0.0
H608 H 0.23976 0.25807 0.71689 0.0
C609 C 0.26661 0.3655 0.76697 0.0
C610 C 0.27668 0.32672 0.78524 0.0
H611 H 0.23994 0.39599 0.71533 0.0
H612 H 0.27363 0.3957 0.78182 0.0
C613 C 0.26644 0.28845 0.76604 0.0
C614 C 0.24868 0.61944 0.27875 0.0
C615 C 0.23695 0.65799 0.28548 0.0
H616 H 0.27687 0.5878 0.2365 0.0
C617 C 0.24538 0.69475 0.25474 0.0
H618 H 0.24287 0.59066 0.30258 0.0
C619 C 0.26477 0.69324 0.21791 0.0
C620 C 0.27662 0.655 0.21094 0.0
H621 H 0.23681 0.725 0.2584 0.0
H622 H 0.2706 0.72246 0.19518 0.0
C623 C 0.26838 0.61797 0.24176 0.0
C624 C 0.99526 0.06802 0.18167 0.0
C625 C 0.98338 0.10532 0.16655 0.0
H626 H 0.02707 0.03879 0.1926 0.0
C627 C 0.99514 0.14304 0.15332 0.0
H628 H 0.98671 0.03845 0.19227 0.0
C629 C 0.01822 0.14324 0.15351 0.0
C630 C 0.03013 0.10573 0.16695 0.0
H631 H 0.98653 0.17243 0.14188 0.0
H632 H 0.02671 0.17277 0.14221 0.0
C633 C 0.0184 0.06822 0.18187 0.0
C634 C 0.5184 0.9175 0.67719 0.0
C635 C 0.53014 0.87957 0.66514 0.0
H636 H 0.48671 0.94755 0.68531 0.0
C637 C 0.51823 0.84166 0.65463 0.0
H638 H 0.52706 0.94724 0.68561 0.0
C639 C 0.49515 0.84184 0.65445 0.0
C640 C 0.48339 0.87993 0.66477 0.0
H641 H 0.52673 0.81182 0.6456 0.0
H642 H 0.48654 0.81213 0.6453 0.0
C643 C 0.49526 0.91768 0.67702 0.0
C644 C 0.99525 0.91717 0.81703 0.0
C645 C 0.98333 0.87978 0.83125 0.0
H646 H 0.02708 0.94643 0.80704 0.0
C647 C 0.99506 0.84194 0.84396 0.0
H648 H 0.98674 0.94685 0.80687 0.0
C649 C 0.01816 0.8417 0.84406 0.0
C650 C 0.03011 0.8793 0.83145 0.0
H651 H 0.98642 0.81249 0.85473 0.0
H652 H 0.02663 0.81208 0.8549 0.0
C653 C 0.0184 0.91693 0.81712 0.0
C654 C 0.51838 0.06665 0.32191 0.0
C655 C 0.53009 0.1047 0.33332 0.0
H656 H 0.48673 0.03642 0.31403 0.0
C657 C 0.51814 0.14265 0.34302 0.0
H658 H 0.52707 0.03686 0.31413 0.0
C659 C 0.49504 0.14239 0.34295 0.0
C660 C 0.48331 0.10419 0.33319 0.0
H661 H 0.52661 0.17258 0.35157 0.0
H662 H 0.48639 0.17215 0.35145 0.0
C663 C 0.49524 0.0664 0.32185 0.0
C664 C 0.49536 0.56446 0.16722 0.0
C665 C 0.48341 0.60264 0.15984 0.0
H666 H 0.52718 0.53475 0.1726 0.0
C667 C 0.4951 0.64126 0.15493 0.0
H668 H 0.48688 0.53416 0.17136 0.0
C669 C 0.5182 0.64159 0.15553 0.0
C670 C 0.53017 0.60331 0.16121 0.0
H671 H 0.48643 0.67129 0.14951 0.0
H672 H 0.52667 0.67187 0.15061 0.0
C673 C 0.51849 0.5648 0.16799 0.0
C674 C 0.01848 0.41978 0.66865 0.0
C675 C 0.03016 0.38129 0.66162 0.0
H676 H 0.98687 0.45042 0.67219 0.0
C677 C 0.0182 0.34303 0.65567 0.0
H678 H 0.02718 0.44982 0.67348 0.0
C679 C 0.99509 0.34336 0.65505 0.0
C680 C 0.98341 0.38197 0.66019 0.0
H681 H 0.02667 0.31277 0.65056 0.0
H682 H 0.98642 0.31336 0.6494 0.0
C683 C 0.99536 0.42013 0.66785 0.0
C684 C 0.49537 0.34061 0.84356 0.0
C685 C 0.48352 0.37845 0.83187 0.0
H686 H 0.52703 0.31098 0.8537 0.0
C687 C 0.49534 0.41612 0.81863 0.0
H688 H 0.48681 0.31095 0.85356 0.0
C689 C 0.51848 0.41614 0.8187 0.0
C690 C 0.53031 0.37848 0.83202 0.0
H691 H 0.48674 0.44581 0.80927 0.0
H692 H 0.52708 0.44584 0.80941 0.0
C693 C 0.51847 0.34062 0.84364 0.0
C694 C 0.99536 0.56847 0.31858 0.0
C695 C 0.98354 0.60615 0.33168 0.0
H696 H 0.0271 0.53874 0.30949 0.0
C697 C 0.99539 0.64401 0.34326 0.0
H698 H 0.98676 0.53876 0.30931 0.0
C699 C 0.01848 0.644 0.34336 0.0
C700 C 0.03033 0.60612 0.33189 0.0
H701 H 0.98683 0.67368 0.35315 0.0
H702 H 0.02705 0.67366 0.35334 0.0
C703 C 0.0185 0.56845 0.31868 0.0
C704 C 0.14588 0.01016 0.02023 0.0
C705 C 0.12585 0.02827 0.04153 0.0
H706 H 0.16164 0.96136 0.96331 0.0
C707 C 0.10585 0.00999 0.02024 0.0
H708 H 0.16159 0.02366 0.03518 0.0
C709 C 0.10588 0.97449 0.97854 0.0
C710 C 0.12591 0.95643 0.95709 0.0
H711 H 0.09011 0.02328 0.0353 0.0
H712 H 0.09016 0.96107 0.96352 0.0
C713 C 0.14591 0.9747 0.97836 0.0
C714 C 0.40686 0.97446 0.52082 0.0
C715 C 0.38688 0.95497 0.53953 0.0
H716 H 0.42261 0.02422 0.4663 0.0
C717 C 0.36689 0.97197 0.51577 0.0
H718 H 0.42259 0.96211 0.53778 0.0
C719 C 0.36692 0.00762 0.4741 0.0
C720 C 0.38693 0.02701 0.45539 0.0
H721 H 0.35121 0.95753 0.52873 0.0
H722 H 0.35123 0.02016 0.45711 0.0
C723 C 0.40689 0.00995 0.47922 0.0
C724 C 0.86697 0.97692 0.97414 0.0
C725 C 0.88698 0.95752 0.95545 0.0
H726 H 0.85126 0.02699 0.02878 0.0
C727 C 0.90693 0.97454 0.97939 0.0
H728 H 0.85128 0.9644 0.95707 0.0
C729 C 0.9069 0.01 0.02105 0.0
C730 C 0.88691 0.0295 0.03971 0.0
H731 H 0.92266 0.96027 0.96649 0.0
H732 H 0.92263 0.02233 0.03808 0.0
C733 C 0.86693 0.01253 0.01586 0.0
C734 C 0.64594 0.01 0.47836 0.0
C735 C 0.62594 0.02828 0.45715 0.0
H736 H 0.66163 0.961 0.53509 0.0
C737 C 0.60592 0.01022 0.47861 0.0
H738 H 0.66167 0.02333 0.46329 0.0
C739 C 0.60589 0.97471 0.52027 0.0
C740 C 0.62589 0.9564 0.5415 0.0
H741 H 0.59019 0.02366 0.46363 0.0
H742 H 0.59015 0.96142 0.53535 0.0
C743 C 0.64592 0.97451 0.52019 0.0
C744 C 0.60628 0.5092 0.01955 0.0
C745 C 0.62624 0.52742 0.04123 0.0
H746 H 0.59066 0.46028 0.96268 0.0
C747 C 0.6463 0.50917 0.02044 0.0
H748 H 0.59052 0.52259 0.03419 0.0
C749 C 0.64639 0.47361 0.97873 0.0
C750 C 0.62641 0.4554 0.95709 0.0
H751 H 0.66199 0.52261 0.0357 0.0
H752 H 0.66213 0.46015 0.96409 0.0
C753 C 0.60636 0.47363 0.978 0.0
C754 C 0.86738 0.47448 0.51705 0.0
C755 C 0.8874 0.45733 0.54029 0.0
H756 H 0.85166 0.52263 0.45851 0.0
C757 C 0.90738 0.4765 0.52078 0.0
H758 H 0.85171 0.46025 0.53058 0.0
C759 C 0.90737 0.51186 0.47893 0.0
C760 C 0.88738 0.52906 0.4556 0.0
H761 H 0.92313 0.464 0.53733 0.0
H762 H 0.92309 0.52592 0.46538 0.0
C763 C 0.86737 0.50996 0.47509 0.0
C764 C 0.36735 0.47474 0.97508 0.0
C765 C 0.38736 0.45563 0.9556 0.0
H766 H 0.35169 0.52447 0.03055 0.0
C767 C 0.40734 0.47285 0.97888 0.0
H768 H 0.35164 0.46206 0.95853 0.0
C769 C 0.40735 0.50823 0.02071 0.0
C770 C 0.38738 0.5274 0.04022 0.0
H771 H 0.42306 0.4588 0.96533 0.0
H772 H 0.42311 0.52074 0.03723 0.0
C773 C 0.36736 0.51023 0.01701 0.0
C774 C 0.14638 0.511 0.47875 0.0
C775 C 0.12641 0.5292 0.45709 0.0
H776 H 0.16198 0.46201 0.53576 0.0
C777 C 0.10635 0.51098 0.47799 0.0
H778 H 0.16213 0.52445 0.46411 0.0
C779 C 0.10626 0.47542 0.51957 0.0
C780 C 0.12622 0.45721 0.54127 0.0
H781 H 0.09065 0.52433 0.46266 0.0
H782 H 0.0905 0.46203 0.53421 0.0
C783 C 0.14629 0.47545 0.52048 0.0
C784 C 0.13641 0.24296 0.87419 0.0
C785 C 0.12191 0.27772 0.86846 0.0
H786 H 0.14793 0.19142 0.93421 0.0
C787 C 0.10703 0.28633 0.92017 0.0
H788 H 0.1475 0.23462 0.83416 0.0
C789 C 0.10667 0.2604 0.97661 0.0
C790 C 0.12161 0.22633 0.98266 0.0
H791 H 0.09567 0.31295 0.91676 0.0
H792 H 0.09492 0.26717 0.0157 0.0
C793 C 0.13657 0.21806 0.93125 0.0
C794 C 0.41017 0.75708 0.43854 0.0
C795 C 0.39315 0.75428 0.48555 0.0
H796 H 0.42225 0.73689 0.34433 0.0
C797 C 0.376 0.72476 0.47581 0.0
H798 H 0.42341 0.78005 0.44432 0.0
C799 C 0.37577 0.69884 0.41946 0.0
C800 C 0.39237 0.70278 0.37123 0.0
H801 H 0.3627 0.72195 0.51146 0.0
H802 H 0.36238 0.67629 0.41295 0.0
C803 C 0.4096 0.73207 0.38147 0.0
C804 C 0.13762 0.76535 0.06398 0.0
C805 C 0.12216 0.75792 0.01356 0.0
H806 H 0.14904 0.74822 0.16032 0.0
C807 C 0.10691 0.72443 0.02034 0.0
H808 H 0.14927 0.79151 0.06047 0.0
C809 C 0.10737 0.69839 0.07667 0.0
C810 C 0.12266 0.70634 0.12759 0.0
H811 H 0.0948 0.71824 0.982 0.0
H812 H 0.0957 0.67233 0.08071 0.0
C813 C 0.13759 0.74035 0.12093 0.0
C814 C 0.37679 0.24198 0.62213 0.0
C815 C 0.39142 0.27653 0.62792 0.0
H816 H 0.3651 0.19057 0.56209 0.0
C817 C 0.40634 0.28493 0.57628 0.0
H818 H 0.36564 0.23379 0.66212 0.0
C819 C 0.40664 0.25899 0.51984 0.0
C820 C 0.39158 0.22512 0.51375 0.0
H821 H 0.4178 0.31139 0.57973 0.0
H822 H 0.41844 0.26559 0.48081 0.0
C823 C 0.37656 0.21707 0.56509 0.0
C824 C 0.87673 0.74254 0.12184 0.0
C825 C 0.89137 0.70799 0.12767 0.0
H826 H 0.86505 0.79393 0.06178 0.0
C827 C 0.90629 0.69957 0.07602 0.0
H828 H 0.86559 0.75074 0.16183 0.0
C829 C 0.90659 0.7255 0.01958 0.0
C830 C 0.89153 0.75938 0.01346 0.0
H831 H 0.91775 0.67312 0.07948 0.0
H832 H 0.91839 0.7189 0.98056 0.0
C833 C 0.87651 0.76743 0.06479 0.0
C834 C 0.63758 0.21938 0.56389 0.0
C835 C 0.6221 0.22677 0.51349 0.0
H836 H 0.649 0.23652 0.6602 0.0
C837 C 0.60684 0.26024 0.5203 0.0
H838 H 0.64924 0.19324 0.56035 0.0
C839 C 0.6073 0.28627 0.57664 0.0
C840 C 0.6226 0.27835 0.62753 0.0
H841 H 0.59471 0.26641 0.48198 0.0
H842 H 0.59561 0.31232 0.58071 0.0
C843 C 0.63754 0.24438 0.62084 0.0
C844 C 0.87592 0.25967 0.97563 0.0
C845 C 0.89308 0.23016 0.98537 0.0
H846 H 0.8623 0.30816 0.91282 0.0
C847 C 0.9101 0.22738 0.93835 0.0
H848 H 0.86262 0.26246 0.01129 0.0
C849 C 0.90953 0.25241 0.8813 0.0
C850 C 0.8923 0.2817 0.87109 0.0
H851 H 0.92334 0.20441 0.94411 0.0
H852 H 0.92218 0.24761 0.84417 0.0
C853 C 0.87569 0.28561 0.91931 0.0
C854 C 0.63651 0.76663 0.43107 0.0
C855 C 0.62155 0.75838 0.48248 0.0
H856 H 0.64745 0.75005 0.33399 0.0
C857 C 0.6066 0.72433 0.47643 0.0
H858 H 0.64788 0.79327 0.43404 0.0
C859 C 0.60696 0.69838 0.41999 0.0
C860 C 0.62184 0.70697 0.36829 0.0
H861 H 0.59485 0.71756 0.51552 0.0
H862 H 0.5956 0.67178 0.41659 0.0
C863 C 0.63635 0.74173 0.37402 0.0
C864 C 0.63668 0.71719 0.93118 0.0
C865 C 0.62174 0.72551 0.98263 0.0
H866 H 0.64758 0.73369 0.83403 0.0
C867 C 0.60684 0.75963 0.97664 0.0
H868 H 0.64802 0.6905 0.93411 0.0
C869 C 0.6072 0.78556 0.9202 0.0
C870 C 0.62204 0.77688 0.86843 0.0
H871 H 0.59511 0.76644 0.01578 0.0
H872 H 0.59586 0.8122 0.91682 0.0
C873 C 0.63652 0.74208 0.87412 0.0
C874 C 0.90658 0.19886 0.42097 0.0
C875 C 0.89242 0.20852 0.36782 0.0
H876 H 0.91789 0.21705 0.51805 0.0
C877 C 0.87881 0.24465 0.37176 0.0
H878 H 0.91731 0.17125 0.41881 0.0
C879 C 0.87853 0.26956 0.42873 0.0
C880 C 0.89254 0.25992 0.482 0.0
H881 H 0.86834 0.25381 0.3306 0.0
H882 H 0.86768 0.29704 0.43053 0.0
C883 C 0.90686 0.22482 0.47751 0.0
C884 C 0.60724 0.19756 0.07651 0.0
C885 C 0.62216 0.20608 0.12817 0.0
H886 H 0.59517 0.21673 0.9809 0.0
C887 C 0.63681 0.24058 0.12224 0.0
H888 H 0.59576 0.17115 0.08008 0.0
C889 C 0.63706 0.26534 0.06507 0.0
C890 C 0.62205 0.2572 0.01372 0.0
H891 H 0.64795 0.24886 0.16224 0.0
H892 H 0.64853 0.29183 0.06201 0.0
C893 C 0.60697 0.22338 0.01992 0.0
C894 C 0.90671 0.76095 0.51972 0.0
C895 C 0.89171 0.727 0.51348 0.0
H896 H 0.91775 0.81338 0.57975 0.0
C897 C 0.87667 0.71884 0.56474 0.0
H898 H 0.91852 0.76765 0.48077 0.0
C899 C 0.87682 0.74371 0.62182 0.0
C900 C 0.89139 0.77835 0.62775 0.0
H901 H 0.86525 0.69228 0.56164 0.0
H902 H 0.86566 0.73543 0.66173 0.0
C903 C 0.90634 0.78686 0.57619 0.0
C904 C 0.37666 0.26599 0.06508 0.0
C905 C 0.39165 0.25771 0.01373 0.0
H906 H 0.3657 0.24948 0.16216 0.0
C907 C 0.40658 0.22365 0.01987 0.0
H908 H 0.3653 0.29263 0.06205 0.0
C909 C 0.4062 0.19774 0.07635 0.0
C910 C 0.39131 0.20638 0.12801 0.0
H911 H 0.41835 0.21686 0.98083 0.0
H912 H 0.41757 0.17114 0.07983 0.0
C913 C 0.37681 0.24112 0.12217 0.0
C914 C 0.10721 0.78699 0.5766 0.0
C915 C 0.12215 0.77852 0.62822 0.0
H916 H 0.09512 0.76779 0.48102 0.0
C917 C 0.13682 0.74405 0.62227 0.0
H918 H 0.09572 0.81337 0.5802 0.0
C919 C 0.13707 0.71928 0.5651 0.0
C920 C 0.12204 0.72738 0.51379 0.0
H921 H 0.14797 0.7358 0.66224 0.0
H922 H 0.14855 0.69282 0.56202 0.0
C923 C 0.10694 0.76117 0.52002 0.0
C924 C 0.37888 0.73994 0.8717 0.0
C925 C 0.39241 0.77619 0.86787 0.0
H926 H 0.36781 0.68747 0.93041 0.0
C927 C 0.40649 0.78598 0.92115 0.0
H928 H 0.36847 0.7307 0.83046 0.0
C929 C 0.40679 0.76003 0.97769 0.0
C930 C 0.39254 0.7248 0.98206 0.0
H931 H 0.41717 0.81369 0.91907 0.0
H932 H 0.41775 0.76789 0.01833 0.0
C933 C 0.3786 0.71504 0.92868 0.0
C934 C 0.13652 0.24243 0.37436 0.0
C935 C 0.12199 0.20772 0.3686 0.0
H936 H 0.14807 0.29394 0.4344 0.0
C937 C 0.1071 0.19915 0.42028 0.0
H938 H 0.14763 0.25074 0.33434 0.0
C939 C 0.10674 0.22509 0.47672 0.0
C940 C 0.1217 0.25911 0.48278 0.0
H941 H 0.09571 0.17258 0.41684 0.0
H942 H 0.09497 0.21835 0.51578 0.0
C943 C 0.13668 0.26733 0.43142 0.0
loop_
_geom_bond_atom_site_label_1
_geom_bond_atom_site_label_2
_geom_bond_distance
_geom_bond_site_symmetry_2
_ccdc_geom_bond_type
Co0 O3 1.970 . S
Co0 N17 1.989 . S
Co0 O25 1.967 . S
Co0 O32 1.920 . S
Co1 O4 1.966 . S
Co1 N10 2.022 . S
Co1 N18 1.993 . S
Co1 O26 1.941 . S
C2 O3 1.258 . S
C2 O4 1.263 . S
O3 Co0 1.970 . S
O3 C2 1.258 . S
O4 Co1 1.966 . S
O4 C2 1.263 . S
C5 O6 1.235 . S
C5 O32 1.289 . S
O6 C5 1.235 . S
C7 C9 1.400 . S
C7 N10 1.351 . S
C7 C12 1.501 . S
C8 C9 1.387 . S
C8 N11 1.341 . S
C9 C7 1.400 . S
C9 C8 1.387 . S
N10 Co1 2.022 . S
N10 C7 1.351 . S
N10 N11 1.365 . S
N11 C8 1.341 . S
N11 N10 1.365 . S
N11 H31 0.862 . S
C12 C7 1.501 . S
C12 H13 0.961 . S
C12 H14 0.961 . S
C12 H15 0.960 . S
H13 C12 0.961 . S
H14 C12 0.961 . S
H15 C12 0.960 . S
C16 N17 1.342 . S
C16 C20 1.401 . S
C16 C21 1.499 . S
N17 Co0 1.989 . S
N17 C16 1.342 . S
N17 N18 1.388 . S
N18 Co1 1.993 . S
N18 N17 1.388 . S
N18 C19 1.346 . S
C19 N18 1.346 . S
C19 C20 1.396 . S
C19 C29 1.510 . S
C20 C16 1.401 . S
C20 C19 1.396 . S
C21 C16 1.499 . S
C21 H22 0.959 . S
C21 H23 0.960 . S
C21 H24 0.961 . S
H22 C21 0.959 . S
H23 C21 0.960 . S
H24 C21 0.961 . S
O25 Co0 1.967 . S
O25 C33 1.258 . S
O26 Co1 1.941 . S
O26 C33 1.266 . S
H27 C29 0.959 . S
H28 C29 0.961 . S
C29 C19 1.510 . S
C29 H27 0.959 . S
C29 H28 0.961 . S
C29 H30 0.960 . S
H30 C29 0.960 . S
H31 N11 0.862 . S
O32 Co0 1.920 . S
O32 C5 1.289 . S
C33 O25 1.258 . S
C33 O26 1.266 . S
Co34 O37 1.970 . S
Co34 N51 1.989 . S
Co34 O59 1.967 . S
Co34 O66 1.920 . S
Co35 O38 1.966 . S
Co35 N44 2.022 . S
Co35 N52 1.993 . S
Co35 O60 1.941 . S
C36 O37 1.258 . S
C36 O38 1.263 . S
O37 Co34 1.970 . S
O37 C36 1.258 . S
O38 Co35 1.966 . S
O38 C36 1.263 . S
C39 O40 1.235 . S
C39 O66 1.289 . S
O40 C39 1.235 . S
C41 C43 1.400 . S
C41 N44 1.351 . S
C41 C46 1.501 . S
C42 C43 1.387 . S
C42 N45 1.341 . S
C43 C41 1.400 . S
C43 C42 1.387 . S
N44 Co35 2.022 . S
N44 C41 1.351 . S
N44 N45 1.365 . S
N45 C42 1.341 . S
N45 N44 1.365 . S
N45 H65 0.862 . S
C46 C41 1.501 . S
C46 H47 0.961 . S
C46 H48 0.961 . S
C46 H49 0.960 . S
H47 C46 0.961 . S
H48 C46 0.961 . S
H49 C46 0.960 . S
C50 N51 1.342 . S
C50 C54 1.401 . S
C50 C55 1.499 . S
N51 Co34 1.989 . S
N51 C50 1.342 . S
N51 N52 1.388 . S
N52 Co35 1.993 . S
N52 N51 1.388 . S
N52 C53 1.346 . S
C53 N52 1.346 . S
C53 C54 1.396 . S
C53 C63 1.510 . S
C54 C50 1.401 . S
C54 C53 1.396 . S
C55 C50 1.499 . S
C55 H56 0.959 . S
C55 H57 0.960 . S
C55 H58 0.961 . S
H56 C55 0.959 . S
H57 C55 0.960 . S
H58 C55 0.961 . S
O59 Co34 1.967 . S
O59 C67 1.258 . S
O60 Co35 1.941 . S
O60 C67 1.266 . S
H61 C63 0.959 . S
H62 C63 0.961 . S
C63 C53 1.510 . S
C63 H61 0.959 . S
C63 H62 0.961 . S
C63 H64 0.960 . S
H64 C63 0.960 . S
H65 N45 0.862 . S
O66 Co34 1.920 . S
O66 C39 1.289 . S
C67 O59 1.258 . S
C67 O60 1.266 . S
Co68 O71 1.970 . S
Co68 N85 1.989 . S
Co68 O93 1.967 . S
Co68 O100 1.920 . S
Co69 O72 1.966 . S
Co69 N78 2.022 . S
Co69 N86 1.993 . S
Co69 O94 1.941 . S
C70 O71 1.258 . S
C70 O72 1.263 . S
O71 Co68 1.970 . S
O71 C70 1.258 . S
O72 Co69 1.966 . S
O72 C70 1.263 . S
C73 O74 1.235 . S
C73 O100 1.289 . S
O74 C73 1.235 . S
C75 C77 1.400 . S
C75 N78 1.351 . S
C75 C80 1.501 . S
C76 C77 1.387 . S
C76 N79 1.341 . S
C77 C75 1.400 . S
C77 C76 1.387 . S
N78 Co69 2.022 . S
N78 C75 1.351 . S
N78 N79 1.365 . S
N79 C76 1.341 . S
N79 N78 1.365 . S
N79 H99 0.862 . S
C80 C75 1.501 . S
C80 H81 0.961 . S
C80 H82 0.961 . S
C80 H83 0.960 . S
H81 C80 0.961 . S
H82 C80 0.961 . S
H83 C80 0.960 . S
C84 N85 1.342 . S
C84 C88 1.401 . S
C84 C89 1.499 . S
N85 Co68 1.989 . S
N85 C84 1.342 . S
N85 N86 1.388 . S
N86 Co69 1.993 . S
N86 N85 1.388 . S
N86 C87 1.346 . S
C87 N86 1.346 . S
C87 C88 1.396 . S
C87 C97 1.510 . S
C88 C84 1.401 . S
C88 C87 1.396 . S
C89 C84 1.499 . S
C89 H90 0.959 . S
C89 H91 0.960 . S
C89 H92 0.961 . S
H90 C89 0.959 . S
H91 C89 0.960 . S
H92 C89 0.961 . S
O93 Co68 1.967 . S
O93 C101 1.258 . S
O94 Co69 1.941 . S
O94 C101 1.266 . S
H95 C97 0.959 . S
H96 C97 0.961 . S
C97 C87 1.510 . S
C97 H95 0.959 . S
C97 H96 0.961 . S
C97 H98 0.960 . S
H98 C97 0.960 . S
H99 N79 0.862 . S
O100 Co68 1.920 . S
O100 C73 1.289 . S
C101 O93 1.258 . S
C101 O94 1.266 . S
Co102 O105 1.970 . S
Co102 N119 1.989 . S
Co102 O127 1.967 . S
Co102 O134 1.920 . S
Co103 O106 1.966 . S
Co103 N112 2.022 . S
Co103 N120 1.993 . S
Co103 O128 1.941 . S
C104 O105 1.258 . S
C104 O106 1.263 . S
O105 Co102 1.970 . S
O105 C104 1.258 . S
O106 Co103 1.966 . S
O106 C104 1.263 . S
C107 O108 1.235 . S
C107 O134 1.289 . S
O108 C107 1.235 . S
C109 C111 1.400 . S
C109 N112 1.351 . S
C109 C114 1.501 . S
C110 C111 1.387 . S
C110 N113 1.341 . S
C111 C109 1.400 . S
C111 C110 1.387 . S
N112 Co103 2.022 . S
N112 C109 1.351 . S
N112 N113 1.365 . S
N113 C110 1.341 . S
N113 N112 1.365 . S
N113 H133 0.862 . S
C114 C109 1.501 . S
C114 H115 0.961 . S
C114 H116 0.961 . S
C114 H117 0.960 . S
H115 C114 0.961 . S
H116 C114 0.961 . S
H117 C114 0.960 . S
C118 N119 1.342 . S
C118 C122 1.401 . S
C118 C123 1.499 . S
N119 Co102 1.989 . S
N119 C118 1.342 . S
N119 N120 1.388 . S
N120 Co103 1.993 . S
N120 N119 1.388 . S
N120 C121 1.346 . S
C121 N120 1.346 . S
C121 C122 1.396 . S
C121 C131 1.510 . S
C122 C118 1.401 . S
C122 C121 1.396 . S
C123 C118 1.499 . S
C123 H124 0.959 . S
C123 H125 0.960 . S
C123 H126 0.961 . S
H124 C123 0.959 . S
H125 C123 0.960 . S
H126 C123 0.961 . S
O127 Co102 1.967 . S
O127 C135 1.258 . S
O128 Co103 1.941 . S
O128 C135 1.266 . S
H129 C131 0.959 . S
H130 C131 0.961 . S
C131 C121 1.510 . S
C131 H129 0.959 . S
C131 H130 0.961 . S
C131 H132 0.960 . S
H132 C131 0.960 . S
H133 N113 0.862 . S
O134 Co102 1.920 . S
O134 C107 1.289 . S
C135 O127 1.258 . S
C135 O128 1.266 . S
Co136 O139 1.970 . S
Co136 N153 1.989 . S
Co136 O161 1.967 . S
Co136 O168 1.920 . S
Co137 O140 1.966 . S
Co137 N146 2.022 . S
Co137 N154 1.993 . S
Co137 O162 1.941 . S
C138 O139 1.258 . S
C138 O140 1.263 . S
O139 Co136 1.970 . S
O139 C138 1.258 . S
O140 Co137 1.966 . S
O140 C138 1.263 . S
C141 O142 1.235 . S
C141 O168 1.289 . S
O142 C141 1.235 . S
C143 C145 1.400 . S
C143 N146 1.351 . S
C143 C148 1.501 . S
C144 C145 1.387 . S
C144 N147 1.341 . S
C145 C143 1.400 . S
C145 C144 1.387 . S
N146 Co137 2.022 . S
N146 C143 1.351 . S
N146 N147 1.365 . S
N147 C144 1.341 . S
N147 N146 1.365 . S
N147 H167 0.862 . S
C148 C143 1.501 . S
C148 H149 0.961 . S
C148 H150 0.961 . S
C148 H151 0.960 . S
H149 C148 0.961 . S
H150 C148 0.961 . S
H151 C148 0.960 . S
C152 N153 1.342 . S
C152 C156 1.401 . S
C152 C157 1.499 . S
N153 Co136 1.989 . S
N153 C152 1.342 . S
N153 N154 1.388 . S
N154 Co137 1.993 . S
N154 N153 1.388 . S
N154 C155 1.346 . S
C155 N154 1.346 . S
C155 C156 1.396 . S
C155 C165 1.510 . S
C156 C152 1.401 . S
C156 C155 1.396 . S
C157 C152 1.499 . S
C157 H158 0.959 . S
C157 H159 0.960 . S
C157 H160 0.961 . S
H158 C157 0.959 . S
H159 C157 0.960 . S
H160 C157 0.961 . S
O161 Co136 1.967 . S
O161 C169 1.258 . S
O162 Co137 1.941 . S
O162 C169 1.266 . S
H163 C165 0.959 . S
H164 C165 0.961 . S
C165 C155 1.510 . S
C165 H163 0.959 . S
C165 H164 0.961 . S
C165 H166 0.960 . S
H166 C165 0.960 . S
H167 N147 0.862 . S
O168 Co136 1.920 . S
O168 C141 1.289 . S
C169 O161 1.258 . S
C169 O162 1.266 . S
Co170 O173 1.970 . S
Co170 N187 1.989 . S
Co170 O195 1.967 . S
Co170 O202 1.920 . S
Co171 O174 1.966 . S
Co171 N180 2.022 . S
Co171 N188 1.993 . S
Co171 O196 1.941 . S
C172 O173 1.258 . S
C172 O174 1.263 . S
O173 Co170 1.970 . S
O173 C172 1.258 . S
O174 Co171 1.966 . S
O174 C172 1.263 . S
C175 O176 1.235 . S
C175 O202 1.289 . S
O176 C175 1.235 . S
C177 C179 1.400 . S
C177 N180 1.351 . S
C177 C182 1.501 . S
C178 C179 1.387 . S
C178 N181 1.341 . S
C179 C177 1.400 . S
C179 C178 1.387 . S
N180 Co171 2.022 . S
N180 C177 1.351 . S
N180 N181 1.365 . S
N181 C178 1.341 . S
N181 N180 1.365 . S
N181 H201 0.862 . S
C182 C177 1.501 . S
C182 H183 0.961 . S
C182 H184 0.961 . S
C182 H185 0.960 . S
H183 C182 0.961 . S
H184 C182 0.961 . S
H185 C182 0.960 . S
C186 N187 1.342 . S
C186 C190 1.401 . S
C186 C191 1.499 . S
N187 Co170 1.989 . S
N187 C186 1.342 . S
N187 N188 1.388 . S
N188 Co171 1.993 . S
N188 N187 1.388 . S
N188 C189 1.346 . S
C189 N188 1.346 . S
C189 C190 1.396 . S
C189 C199 1.510 . S
C190 C186 1.401 . S
C190 C189 1.396 . S
C191 C186 1.499 . S
C191 H192 0.959 . S
C191 H193 0.960 . S
C191 H194 0.961 . S
H192 C191 0.959 . S
H193 C191 0.960 . S
H194 C191 0.961 . S
O195 Co170 1.967 . S
O195 C203 1.258 . S
O196 Co171 1.941 . S
O196 C203 1.266 . S
H197 C199 0.959 . S
H198 C199 0.961 . S
C199 C189 1.510 . S
C199 H197 0.959 . S
C199 H198 0.961 . S
C199 H200 0.960 . S
H200 C199 0.960 . S
H201 N181 0.862 . S
O202 Co170 1.920 . S
O202 C175 1.289 . S
C203 O195 1.258 . S
C203 O196 1.266 . S
Co204 O207 1.970 . S
Co204 N221 1.989 . S
Co204 O229 1.967 . S
Co204 O236 1.920 . S
Co205 O208 1.966 . S
Co205 N214 2.022 . S
Co205 N222 1.993 . S
Co205 O230 1.941 . S
C206 O207 1.258 . S
C206 O208 1.263 . S
O207 Co204 1.970 . S
O207 C206 1.258 . S
O208 Co205 1.966 . S
O208 C206 1.263 . S
C209 O210 1.235 . S
C209 O236 1.289 . S
O210 C209 1.235 . S
C211 C213 1.400 . S
C211 N214 1.351 . S
C211 C216 1.501 . S
C212 C213 1.387 . S
C212 N215 1.341 . S
C213 C211 1.400 . S
C213 C212 1.387 . S
N214 Co205 2.022 . S
N214 C211 1.351 . S
N214 N215 1.365 . S
N215 C212 1.341 . S
N215 N214 1.365 . S
N215 H235 0.862 . S
C216 C211 1.501 . S
C216 H217 0.961 . S
C216 H218 0.961 . S
C216 H219 0.960 . S
H217 C216 0.961 . S
H218 C216 0.961 . S
H219 C216 0.960 . S
C220 N221 1.342 . S
C220 C224 1.401 . S
C220 C225 1.499 . S
N221 Co204 1.989 . S
N221 C220 1.342 . S
N221 N222 1.388 . S
N222 Co205 1.993 . S
N222 N221 1.388 . S
N222 C223 1.346 . S
C223 N222 1.346 . S
C223 C224 1.396 . S
C223 C233 1.510 . S
C224 C220 1.401 . S
C224 C223 1.396 . S
C225 C220 1.499 . S
C225 H226 0.959 . S
C225 H227 0.960 . S
C225 H228 0.961 . S
H226 C225 0.959 . S
H227 C225 0.960 . S
H228 C225 0.961 . S
O229 Co204 1.967 . S
O229 C237 1.258 . S
O230 Co205 1.941 . S
O230 C237 1.266 . S
H231 C233 0.959 . S
H232 C233 0.961 . S
C233 C223 1.510 . S
C233 H231 0.959 . S
C233 H232 0.961 . S
C233 H234 0.960 . S
H234 C233 0.960 . S
H235 N215 0.862 . S
O236 Co204 1.920 . S
O236 C209 1.289 . S
C237 O229 1.258 . S
C237 O230 1.266 . S
Co238 O241 1.970 . S
Co238 N255 1.989 . S
Co238 O263 1.967 . S
Co238 O270 1.920 . S
Co239 O242 1.966 . S
Co239 N248 2.022 . S
Co239 N256 1.993 . S
Co239 O264 1.941 . S
C240 O241 1.258 . S
C240 O242 1.263 . S
O241 Co238 1.970 . S
O241 C240 1.258 . S
O242 Co239 1.966 . S
O242 C240 1.263 . S
C243 O244 1.235 . S
C243 O270 1.289 . S
O244 C243 1.235 . S
C245 C247 1.400 . S
C245 N248 1.351 . S
C245 C250 1.501 . S
C246 C247 1.387 . S
C246 N249 1.341 . S
C247 C245 1.400 . S
C247 C246 1.387 . S
N248 Co239 2.022 . S
N248 C245 1.351 . S
N248 N249 1.365 . S
N249 C246 1.341 . S
N249 N248 1.365 . S
N249 H269 0.862 . S
C250 C245 1.501 . S
C250 H251 0.961 . S
C250 H252 0.961 . S
C250 H253 0.960 . S
H251 C250 0.961 . S
H252 C250 0.961 . S
H253 C250 0.960 . S
C254 N255 1.342 . S
C254 C258 1.401 . S
C254 C259 1.499 . S
N255 Co238 1.989 . S
N255 C254 1.342 . S
N255 N256 1.388 . S
N256 Co239 1.993 . S
N256 N255 1.388 . S
N256 C257 1.346 . S
C257 N256 1.346 . S
C257 C258 1.396 . S
C257 C267 1.510 . S
C258 C254 1.401 . S
C258 C257 1.396 . S
C259 C254 1.499 . S
C259 H260 0.959 . S
C259 H261 0.960 . S
C259 H262 0.961 . S
H260 C259 0.959 . S
H261 C259 0.960 . S
H262 C259 0.961 . S
O263 Co238 1.967 . S
O263 C271 1.258 . S
O264 Co239 1.941 . S
O264 C271 1.266 . S
H265 C267 0.959 . S
H266 C267 0.961 . S
C267 C257 1.510 . S
C267 H265 0.959 . S
C267 H266 0.961 . S
C267 H268 0.960 . S
H268 C267 0.960 . S
H269 N249 0.862 . S
O270 Co238 1.920 . S
O270 C243 1.289 . S
C271 O263 1.258 . S
C271 O264 1.266 . S
Co272 O275 1.970 . S
Co272 N289 1.989 . S
Co272 O297 1.967 . S
Co272 O304 1.920 . S
Co273 O276 1.966 . S
Co273 N282 2.022 . S
Co273 N290 1.993 . S
Co273 O298 1.941 . S
C274 O275 1.258 . S
C274 O276 1.263 . S
O275 Co272 1.970 . S
O275 C274 1.258 . S
O276 Co273 1.966 . S
O276 C274 1.263 . S
C277 O278 1.235 . S
C277 O304 1.289 . S
O278 C277 1.235 . S
C279 C281 1.400 . S
C279 N282 1.351 . S
C279 C284 1.501 . S
C280 C281 1.387 . S
C280 N283 1.341 . S
C281 C279 1.400 . S
C281 C280 1.387 . S
N282 Co273 2.022 . S
N282 C279 1.351 . S
N282 N283 1.365 . S
N283 C280 1.341 . S
N283 N282 1.365 . S
N283 H303 0.862 . S
C284 C279 1.501 . S
C284 H285 0.961 . S
C284 H286 0.961 . S
C284 H287 0.960 . S
H285 C284 0.961 . S
H286 C284 0.961 . S
H287 C284 0.960 . S
C288 N289 1.342 . S
C288 C292 1.401 . S
C288 C293 1.499 . S
N289 Co272 1.989 . S
N289 C288 1.342 . S
N289 N290 1.388 . S
N290 Co273 1.993 . S
N290 N289 1.388 . S
N290 C291 1.346 . S
C291 N290 1.346 . S
C291 C292 1.396 . S
C291 C301 1.510 . S
C292 C288 1.401 . S
C292 C291 1.396 . S
C293 C288 1.499 . S
C293 H294 0.959 . S
C293 H295 0.960 . S
C293 H296 0.961 . S
H294 C293 0.959 . S
H295 C293 0.960 . S
H296 C293 0.961 . S
O297 Co272 1.967 . S
O297 C305 1.258 . S
O298 Co273 1.941 . S
O298 C305 1.266 . S
H299 C301 0.959 . S
H300 C301 0.961 . S
C301 C291 1.510 . S
C301 H299 0.959 . S
C301 H300 0.961 . S
C301 H302 0.960 . S
H302 C301 0.960 . S
H303 N283 0.862 . S
O304 Co272 1.920 . S
O304 C277 1.289 . S
C305 O297 1.258 . S
C305 O298 1.266 . S
Co306 O309 1.970 . S
Co306 N323 1.989 . S
Co306 O331 1.967 . S
Co306 O338 1.920 . S
Co307 O310 1.966 . S
Co307 N316 2.022 . S
Co307 N324 1.993 . S
Co307 O332 1.941 . S
C308 O309 1.258 . S
C308 O310 1.263 . S
O309 Co306 1.970 . S
O309 C308 1.258 . S
O310 Co307 1.966 . S
O310 C308 1.263 . S
C311 O312 1.235 . S
C311 O338 1.289 . S
O312 C311 1.235 . S
C313 C315 1.400 . S
C313 N316 1.351 . S
C313 C318 1.501 . S
C314 C315 1.387 . S
C314 N317 1.341 . S
C315 C313 1.400 . S
C315 C314 1.387 . S
N316 Co307 2.022 . S
N316 C313 1.351 . S
N316 N317 1.365 . S
N317 C314 1.341 . S
N317 N316 1.365 . S
N317 H337 0.862 . S
C318 C313 1.501 . S
C318 H319 0.961 . S
C318 H320 0.961 . S
C318 H321 0.960 . S
H319 C318 0.961 . S
H320 C318 0.961 . S
H321 C318 0.960 . S
C322 N323 1.342 . S
C322 C326 1.401 . S
C322 C327 1.499 . S
N323 Co306 1.989 . S
N323 C322 1.342 . S
N323 N324 1.388 . S
N324 Co307 1.993 . S
N324 N323 1.388 . S
N324 C325 1.346 . S
C325 N324 1.346 . S
C325 C326 1.396 . S
C325 C335 1.510 . S
C326 C322 1.401 . S
C326 C325 1.396 . S
C327 C322 1.499 . S
C327 H328 0.959 . S
C327 H329 0.960 . S
C327 H330 0.961 . S
H328 C327 0.959 . S
H329 C327 0.960 . S
H330 C327 0.961 . S
O331 Co306 1.967 . S
O331 C339 1.258 . S
O332 Co307 1.941 . S
O332 C339 1.266 . S
H333 C335 0.959 . S
H334 C335 0.961 . S
C335 C325 1.510 . S
C335 H333 0.959 . S
C335 H334 0.961 . S
C335 H336 0.960 . S
H336 C335 0.960 . S
H337 N317 0.862 . S
O338 Co306 1.920 . S
O338 C311 1.289 . S
C339 O331 1.258 . S
C339 O332 1.266 . S
Co340 O343 1.970 . S
Co340 N357 1.989 . S
Co340 O365 1.967 . S
Co340 O372 1.920 . S
Co341 O344 1.966 . S
Co341 N350 2.022 . S
Co341 N358 1.993 . S
Co341 O366 1.941 . S
C342 O343 1.258 . S
C342 O344 1.263 . S
O343 Co340 1.970 . S
O343 C342 1.258 . S
O344 Co341 1.966 . S
O344 C342 1.263 . S
C345 O346 1.235 . S
C345 O372 1.289 . S
O346 C345 1.235 . S
C347 C349 1.400 . S
C347 N350 1.351 . S
C347 C352 1.501 . S
C348 C349 1.387 . S
C348 N351 1.341 . S
C349 C347 1.400 . S
C349 C348 1.387 . S
N350 Co341 2.022 . S
N350 C347 1.351 . S
N350 N351 1.365 . S
N351 C348 1.341 . S
N351 N350 1.365 . S
N351 H371 0.862 . S
C352 C347 1.501 . S
C352 H353 0.961 . S
C352 H354 0.961 . S
C352 H355 0.960 . S
H353 C352 0.961 . S
H354 C352 0.961 . S
H355 C352 0.960 . S
C356 N357 1.342 . S
C356 C360 1.401 . S
C356 C361 1.499 . S
N357 Co340 1.989 . S
N357 C356 1.342 . S
N357 N358 1.388 . S
N358 Co341 1.993 . S
N358 N357 1.388 . S
N358 C359 1.346 . S
C359 N358 1.346 . S
C359 C360 1.396 . S
C359 C369 1.510 . S
C360 C356 1.401 . S
C360 C359 1.396 . S
C361 C356 1.499 . S
C361 H362 0.959 . S
C361 H363 0.960 . S
C361 H364 0.961 . S
H362 C361 0.959 . S
H363 C361 0.960 . S
H364 C361 0.961 . S
O365 Co340 1.967 . S
O365 C373 1.258 . S
O366 Co341 1.941 . S
O366 C373 1.266 . S
H367 C369 0.959 . S
H368 C369 0.961 . S
C369 C359 1.510 . S
C369 H367 0.959 . S
C369 H368 0.961 . S
C369 H370 0.960 . S
H370 C369 0.960 . S
H371 N351 0.862 . S
O372 Co340 1.920 . S
O372 C345 1.289 . S
C373 O365 1.258 . S
C373 O366 1.266 . S
Co374 O377 1.970 . S
Co374 N391 1.989 . S
Co374 O399 1.967 . S
Co374 O406 1.920 . S
Co375 O378 1.966 . S
Co375 N384 2.022 . S
Co375 N392 1.993 . S
Co375 O400 1.941 . S
C376 O377 1.258 . S
C376 O378 1.263 . S
O377 Co374 1.970 . S
O377 C376 1.258 . S
O378 Co375 1.966 . S
O378 C376 1.263 . S
C379 O380 1.235 . S
C379 O406 1.289 . S
O380 C379 1.235 . S
C381 C383 1.400 . S
C381 N384 1.351 . S
C381 C386 1.501 . S
C382 C383 1.387 . S
C382 N385 1.341 . S
C383 C381 1.400 . S
C383 C382 1.387 . S
N384 Co375 2.022 . S
N384 C381 1.351 . S
N384 N385 1.365 . S
N385 C382 1.341 . S
N385 N384 1.365 . S
N385 H405 0.862 . S
C386 C381 1.501 . S
C386 H387 0.961 . S
C386 H388 0.961 . S
C386 H389 0.960 . S
H387 C386 0.961 . S
H388 C386 0.961 . S
H389 C386 0.960 . S
C390 N391 1.342 . S
C390 C394 1.401 . S
C390 C395 1.499 . S
N391 Co374 1.989 . S
N391 C390 1.342 . S
N391 N392 1.388 . S
N392 Co375 1.993 . S
N392 N391 1.388 . S
N392 C393 1.346 . S
C393 N392 1.346 . S
C393 C394 1.396 . S
C393 C403 1.510 . S
C394 C390 1.401 . S
C394 C393 1.396 . S
C395 C390 1.499 . S
C395 H396 0.959 . S
C395 H397 0.960 . S
C395 H398 0.961 . S
H396 C395 0.959 . S
H397 C395 0.960 . S
H398 C395 0.961 . S
O399 Co374 1.967 . S
O399 C407 1.258 . S
O400 Co375 1.941 . S
O400 C407 1.266 . S
H401 C403 0.959 . S
H402 C403 0.961 . S
C403 C393 1.510 . S
C403 H401 0.959 . S
C403 H402 0.961 . S
C403 H404 0.960 . S
H404 C403 0.960 . S
H405 N385 0.862 . S
O406 Co374 1.920 . S
O406 C379 1.289 . S
C407 O399 1.258 . S
C407 O400 1.266 . S
Co408 O411 1.970 . S
Co408 N425 1.989 . S
Co408 O433 1.967 . S
Co408 O440 1.920 . S
Co409 O412 1.966 . S
Co409 N418 2.022 . S
Co409 N426 1.993 . S
Co409 O434 1.941 . S
C410 O411 1.258 . S
C410 O412 1.263 . S
O411 Co408 1.970 . S
O411 C410 1.258 . S
O412 Co409 1.966 . S
O412 C410 1.263 . S
C413 O414 1.235 . S
C413 O440 1.289 . S
O414 C413 1.235 . S
C415 C417 1.400 . S
C415 N418 1.351 . S
C415 C420 1.501 . S
C416 C417 1.387 . S
C416 N419 1.341 . S
C417 C415 1.400 . S
C417 C416 1.387 . S
N418 Co409 2.022 . S
N418 C415 1.351 . S
N418 N419 1.365 . S
N419 C416 1.341 . S
N419 N418 1.365 . S
N419 H439 0.862 . S
C420 C415 1.501 . S
C420 H421 0.961 . S
C420 H422 0.961 . S
C420 H423 0.960 . S
H421 C420 0.961 . S
H422 C420 0.961 . S
H423 C420 0.960 . S
C424 N425 1.342 . S
C424 C428 1.401 . S
C424 C429 1.499 . S
N425 Co408 1.989 . S
N425 C424 1.342 . S
N425 N426 1.388 . S
N426 Co409 1.993 . S
N426 N425 1.388 . S
N426 C427 1.346 . S
C427 N426 1.346 . S
C427 C428 1.396 . S
C427 C437 1.510 . S
C428 C424 1.401 . S
C428 C427 1.396 . S
C429 C424 1.499 . S
C429 H430 0.959 . S
C429 H431 0.960 . S
C429 H432 0.961 . S
H430 C429 0.959 . S
H431 C429 0.960 . S
H432 C429 0.961 . S
O433 Co408 1.967 . S
O433 C441 1.258 . S
O434 Co409 1.941 . S
O434 C441 1.266 . S
H435 C437 0.959 . S
H436 C437 0.961 . S
C437 C427 1.510 . S
C437 H435 0.959 . S
C437 H436 0.961 . S
C437 H438 0.960 . S
H438 C437 0.960 . S
H439 N419 0.862 . S
O440 Co408 1.920 . S
O440 C413 1.289 . S
C441 O433 1.258 . S
C441 O434 1.266 . S
Co442 O445 1.970 . S
Co442 N459 1.989 . S
Co442 O467 1.967 . S
Co442 O474 1.920 . S
Co443 O446 1.966 . S
Co443 N452 2.022 . S
Co443 N460 1.993 . S
Co443 O468 1.941 . S
C444 O445 1.258 . S
C444 O446 1.263 . S
O445 Co442 1.970 . S
O445 C444 1.258 . S
O446 Co443 1.966 . S
O446 C444 1.263 . S
C447 O448 1.235 . S
C447 O474 1.289 . S
O448 C447 1.235 . S
C449 C451 1.400 . S
C449 N452 1.351 . S
C449 C454 1.501 . S
C450 C451 1.387 . S
C450 N453 1.341 . S
C451 C449 1.400 . S
C451 C450 1.387 . S
N452 Co443 2.022 . S
N452 C449 1.351 . S
N452 N453 1.365 . S
N453 C450 1.341 . S
N453 N452 1.365 . S
N453 H473 0.862 . S
C454 C449 1.501 . S
C454 H455 0.961 . S
C454 H456 0.961 . S
C454 H457 0.960 . S
H455 C454 0.961 . S
H456 C454 0.961 . S
H457 C454 0.960 . S
C458 N459 1.342 . S
C458 C462 1.401 . S
C458 C463 1.499 . S
N459 Co442 1.989 . S
N459 C458 1.342 . S
N459 N460 1.388 . S
N460 Co443 1.993 . S
N460 N459 1.388 . S
N460 C461 1.346 . S
C461 N460 1.346 . S
C461 C462 1.396 . S
C461 C471 1.510 . S
C462 C458 1.401 . S
C462 C461 1.396 . S
C463 C458 1.499 . S
C463 H464 0.959 . S
C463 H465 0.960 . S
C463 H466 0.961 . S
H464 C463 0.959 . S
H465 C463 0.960 . S
H466 C463 0.961 . S
O467 Co442 1.967 . S
O467 C475 1.258 . S
O468 Co443 1.941 . S
O468 C475 1.266 . S
H469 C471 0.959 . S
H470 C471 0.961 . S
C471 C461 1.510 . S
C471 H469 0.959 . S
C471 H470 0.961 . S
C471 H472 0.960 . S
H472 C471 0.960 . S
H473 N453 0.862 . S
O474 Co442 1.920 . S
O474 C447 1.289 . S
C475 O467 1.258 . S
C475 O468 1.266 . S
Co476 O479 1.970 . S
Co476 N493 1.989 . S
Co476 O501 1.967 . S
Co476 O508 1.920 . S
Co477 O480 1.966 . S
Co477 N486 2.022 . S
Co477 N494 1.993 . S
Co477 O502 1.941 . S
C478 O479 1.258 . S
C478 O480 1.263 . S
O479 Co476 1.970 . S
O479 C478 1.258 . S
O480 Co477 1.966 . S
O480 C478 1.263 . S
C481 O482 1.235 . S
C481 O508 1.289 . S
O482 C481 1.235 . S
C483 C485 1.400 . S
C483 N486 1.351 . S
C483 C488 1.501 . S
C484 C485 1.387 . S
C484 N487 1.341 . S
C485 C483 1.400 . S
C485 C484 1.387 . S
N486 Co477 2.022 . S
N486 C483 1.351 . S
N486 N487 1.365 . S
N487 C484 1.341 . S
N487 N486 1.365 . S
N487 H507 0.862 . S
C488 C483 1.501 . S
C488 H489 0.961 . S
C488 H490 0.961 . S
C488 H491 0.960 . S
H489 C488 0.961 . S
H490 C488 0.961 . S
H491 C488 0.960 . S
C492 N493 1.342 . S
C492 C496 1.401 . S
C492 C497 1.499 . S
N493 Co476 1.989 . S
N493 C492 1.342 . S
N493 N494 1.388 . S
N494 Co477 1.993 . S
N494 N493 1.388 . S
N494 C495 1.346 . S
C495 N494 1.346 . S
C495 C496 1.396 . S
C495 C505 1.510 . S
C496 C492 1.401 . S
C496 C495 1.396 . S
C497 C492 1.499 . S
C497 H498 0.959 . S
C497 H499 0.960 . S
C497 H500 0.961 . S
H498 C497 0.959 . S
H499 C497 0.960 . S
H500 C497 0.961 . S
O501 Co476 1.967 . S
O501 C509 1.258 . S
O502 Co477 1.941 . S
O502 C509 1.266 . S
H503 C505 0.959 . S
H504 C505 0.961 . S
C505 C495 1.510 . S
C505 H503 0.959 . S
C505 H504 0.961 . S
C505 H506 0.960 . S
H506 C505 0.960 . S
H507 N487 0.862 . S
O508 Co476 1.920 . S
O508 C481 1.289 . S
C509 O501 1.258 . S
C509 O502 1.266 . S
Co510 O513 1.970 . S
Co510 N527 1.989 . S
Co510 O535 1.967 . S
Co510 O542 1.920 . S
Co511 O514 1.966 . S
Co511 N520 2.022 . S
Co511 N528 1.993 . S
Co511 O536 1.941 . S
C512 O513 1.258 . S
C512 O514 1.263 . S
O513 Co510 1.970 . S
O513 C512 1.258 . S
O514 Co511 1.966 . S
O514 C512 1.263 . S
C515 O516 1.235 . S
C515 O542 1.289 . S
O516 C515 1.235 . S
C517 C519 1.400 . S
C517 N520 1.351 . S
C517 C522 1.501 . S
C518 C519 1.387 . S
C518 N521 1.341 . S
C519 C517 1.400 . S
C519 C518 1.387 . S
N520 Co511 2.022 . S
N520 C517 1.351 . S
N520 N521 1.365 . S
N521 C518 1.341 . S
N521 N520 1.365 . S
N521 H541 0.862 . S
C522 C517 1.501 . S
C522 H523 0.961 . S
C522 H524 0.961 . S
C522 H525 0.960 . S
H523 C522 0.961 . S
H524 C522 0.961 . S
H525 C522 0.960 . S
C526 N527 1.342 . S
C526 C530 1.401 . S
C526 C531 1.499 . S
N527 Co510 1.989 . S
N527 C526 1.342 . S
N527 N528 1.388 . S
N528 Co511 1.993 . S
N528 N527 1.388 . S
N528 C529 1.346 . S
C529 N528 1.346 . S
C529 C530 1.396 . S
C529 C539 1.510 . S
C530 C526 1.401 . S
C530 C529 1.396 . S
C531 C526 1.499 . S
C531 H532 0.959 . S
C531 H533 0.960 . S
C531 H534 0.961 . S
H532 C531 0.959 . S
H533 C531 0.960 . S
H534 C531 0.961 . S
O535 Co510 1.967 . S
O535 C543 1.258 . S
O536 Co511 1.941 . S
O536 C543 1.266 . S
H537 C539 0.959 . S
H538 C539 0.961 . S
C539 C529 1.510 . S
C539 H537 0.959 . S
C539 H538 0.961 . S
C539 H540 0.960 . S
H540 C539 0.960 . S
H541 N521 0.862 . S
O542 Co510 1.920 . S
O542 C515 1.289 . S
C543 O535 1.258 . S
C543 O536 1.266 . S
C544 C545 1.387 . S
C544 H548 0.950 . S
C544 C553 1.390 . S
C545 C544 1.387 . S
C545 C547 1.387 . S
H546 C553 0.950 . S
C547 C545 1.387 . S
C547 C549 1.390 . S
C547 H551 0.950 . S
H548 C544 0.950 . S
C549 C547 1.390 . S
C549 C550 1.387 . S
C549 H552 0.950 . S
C550 C549 1.387 . S
C550 C553 1.387 . S
H551 C547 0.950 . S
H552 C549 0.950 . S
C553 C544 1.390 . S
C553 H546 0.950 . S
C553 C550 1.387 . S
C554 C555 1.387 . S
C554 H558 0.950 . S
C554 C563 1.390 . S
C555 C554 1.387 . S
C555 C557 1.387 . S
H556 C563 0.950 . S
C557 C555 1.387 . S
C557 C559 1.390 . S
C557 H561 0.950 . S
H558 C554 0.950 . S
C559 C557 1.390 . S
C559 C560 1.387 . S
C559 H562 0.950 . S
C560 C559 1.387 . S
C560 C563 1.387 . S
H561 C557 0.950 . S
H562 C559 0.950 . S
C563 C554 1.390 . S
C563 H556 0.950 . S
C563 C560 1.387 . S
C564 C565 1.387 . S
C564 H568 0.950 . S
C564 C573 1.390 . S
C565 C564 1.387 . S
C565 C567 1.387 . S
H566 C573 0.950 . S
C567 C565 1.387 . S
C567 C569 1.390 . S
C567 H571 0.950 . S
H568 C564 0.950 . S
C569 C567 1.390 . S
C569 C570 1.387 . S
C569 H572 0.950 . S
C570 C569 1.387 . S
C570 C573 1.387 . S
H571 C567 0.950 . S
H572 C569 0.950 . S
C573 C564 1.390 . S
C573 H566 0.950 . S
C573 C570 1.387 . S
C574 C575 1.387 . S
C574 H578 0.950 . S
C574 C583 1.390 . S
C575 C574 1.387 . S
C575 C577 1.387 . S
H576 C583 0.950 . S
C577 C575 1.387 . S
C577 C579 1.390 . S
C577 H581 0.950 . S
H578 C574 0.950 . S
C579 C577 1.390 . S
C579 C580 1.387 . S
C579 H582 0.950 . S
C580 C579 1.387 . S
C580 C583 1.387 . S
H581 C577 0.950 . S
H582 C579 0.950 . S
C583 C574 1.390 . S
C583 H576 0.950 . S
C583 C580 1.387 . S
C584 C585 1.387 . S
C584 H588 0.950 . S
C584 C593 1.390 . S
C585 C584 1.387 . S
C585 C587 1.387 . S
H586 C593 0.950 . S
C587 C585 1.387 . S
C587 C589 1.390 . S
C587 H591 0.950 . S
H588 C584 0.950 . S
C589 C587 1.390 . S
C589 C590 1.387 . S
C589 H592 0.950 . S
C590 C589 1.387 . S
C590 C593 1.387 . S
H591 C587 0.950 . S
H592 C589 0.950 . S
C593 C584 1.390 . S
C593 H586 0.950 . S
C593 C590 1.387 . S
C594 C595 1.387 . S
C594 H598 0.950 . S
C594 C603 1.390 . S
C595 C594 1.387 . S
C595 C597 1.387 . S
H596 C603 0.950 . S
C597 C595 1.387 . S
C597 C599 1.390 . S
C597 H601 0.950 . S
H598 C594 0.950 . S
C599 C597 1.390 . S
C599 C600 1.387 . S
C599 H602 0.950 . S
C600 C599 1.387 . S
C600 C603 1.387 . S
H601 C597 0.950 . S
H602 C599 0.950 . S
C603 C594 1.390 . S
C603 H596 0.950 . S
C603 C600 1.387 . S
C604 C605 1.387 . S
C604 H608 0.950 . S
C604 C613 1.390 . S
C605 C604 1.387 . S
C605 C607 1.387 . S
H606 C613 0.950 . S
C607 C605 1.387 . S
C607 C609 1.390 . S
C607 H611 0.950 . S
H608 C604 0.950 . S
C609 C607 1.390 . S
C609 C610 1.387 . S
C609 H612 0.950 . S
C610 C609 1.387 . S
C610 C613 1.387 . S
H611 C607 0.950 . S
H612 C609 0.950 . S
C613 C604 1.390 . S
C613 H606 0.950 . S
C613 C610 1.387 . S
C614 C615 1.387 . S
C614 H618 0.950 . S
C614 C623 1.390 . S
C615 C614 1.387 . S
C615 C617 1.387 . S
H616 C623 0.950 . S
C617 C615 1.387 . S
C617 C619 1.390 . S
C617 H621 0.950 . S
H618 C614 0.950 . S
C619 C617 1.390 . S
C619 C620 1.387 . S
C619 H622 0.950 . S
C620 C619 1.387 . S
C620 C623 1.387 . S
H621 C617 0.950 . S
H622 C619 0.950 . S
C623 C614 1.390 . S
C623 H616 0.950 . S
C623 C620 1.387 . S
C624 C625 1.387 . S
C624 H628 0.950 . S
C624 C633 1.390 1_655 S
C625 C624 1.387 . S
C625 C627 1.387 . S
H626 C633 0.950 . S
C627 C625 1.387 . S
C627 C629 1.390 1_655 S
C627 H631 0.950 . S
H628 C624 0.950 . S
C629 C627 1.390 1_455 S
C629 C630 1.387 . S
C629 H632 0.950 . S
C630 C629 1.387 . S
C630 C633 1.387 . S
H631 C627 0.950 . S
H632 C629 0.950 . S
C633 C624 1.390 1_455 S
C633 H626 0.950 . S
C633 C630 1.387 . S
C634 C635 1.387 . S
C634 H638 0.950 . S
C634 C643 1.390 . S
C635 C634 1.387 . S
C635 C637 1.387 . S
H636 C643 0.950 . S
C637 C635 1.387 . S
C637 C639 1.390 . S
C637 H641 0.950 . S
H638 C634 0.950 . S
C639 C637 1.390 . S
C639 C640 1.387 . S
C639 H642 0.950 . S
C640 C639 1.387 . S
C640 C643 1.387 . S
H641 C637 0.950 . S
H642 C639 0.950 . S
C643 C634 1.390 . S
C643 H636 0.950 . S
C643 C640 1.387 . S
C644 C645 1.387 . S
C644 H648 0.950 . S
C644 C653 1.390 1_655 S
C645 C644 1.387 . S
C645 C647 1.387 . S
H646 C653 0.950 . S
C647 C645 1.387 . S
C647 C649 1.390 1_655 S
C647 H651 0.950 . S
H648 C644 0.950 . S
C649 C647 1.390 1_455 S
C649 C650 1.387 . S
C649 H652 0.950 . S
C650 C649 1.387 . S
C650 C653 1.387 . S
H651 C647 0.950 . S
H652 C649 0.950 . S
C653 C644 1.390 1_455 S
C653 H646 0.950 . S
C653 C650 1.387 . S
C654 C655 1.387 . S
C654 H658 0.950 . S
C654 C663 1.390 . S
C655 C654 1.387 . S
C655 C657 1.387 . S
H656 C663 0.950 . S
C657 C655 1.387 . S
C657 C659 1.390 . S
C657 H661 0.950 . S
H658 C654 0.950 . S
C659 C657 1.390 . S
C659 C660 1.387 . S
C659 H662 0.950 . S
C660 C659 1.387 . S
C660 C663 1.387 . S
H661 C657 0.950 . S
H662 C659 0.950 . S
C663 C654 1.390 . S
C663 H656 0.950 . S
C663 C660 1.387 . S
C664 C665 1.387 . S
C664 H668 0.950 . S
C664 C673 1.390 . S
C665 C664 1.387 . S
C665 C667 1.387 . S
H666 C673 0.950 . S
C667 C665 1.387 . S
C667 C669 1.390 . S
C667 H671 0.950 . S
H668 C664 0.950 . S
C669 C667 1.390 . S
C669 C670 1.387 . S
C669 H672 0.950 . S
C670 C669 1.387 . S
C670 C673 1.387 . S
H671 C667 0.950 . S
H672 C669 0.950 . S
C673 C664 1.390 . S
C673 H666 0.950 . S
C673 C670 1.387 . S
C674 C675 1.387 . S
C674 H678 0.950 . S
C674 C683 1.390 1_455 S
C675 C674 1.387 . S
C675 C677 1.387 . S
H676 C683 0.950 . S
C677 C675 1.387 . S
C677 C679 1.390 1_455 S
C677 H681 0.950 . S
H678 C674 0.950 . S
C679 C677 1.390 1_655 S
C679 C680 1.387 . S
C679 H682 0.950 . S
C680 C679 1.387 . S
C680 C683 1.387 . S
H681 C677 0.950 . S
H682 C679 0.950 . S
C683 C674 1.390 1_655 S
C683 H676 0.950 . S
C683 C680 1.387 . S
C684 C685 1.387 . S
C684 H688 0.950 . S
C684 C693 1.390 . S
C685 C684 1.387 . S
C685 C687 1.387 . S
H686 C693 0.950 . S
C687 C685 1.387 . S
C687 C689 1.390 . S
C687 H691 0.950 . S
H688 C684 0.950 . S
C689 C687 1.390 . S
C689 C690 1.387 . S
C689 H692 0.950 . S
C690 C689 1.387 . S
C690 C693 1.387 . S
H691 C687 0.950 . S
H692 C689 0.950 . S
C693 C684 1.390 . S
C693 H686 0.950 . S
C693 C690 1.387 . S
C694 C695 1.387 . S
C694 H698 0.950 . S
C694 C703 1.390 1_655 S
C695 C694 1.387 . S
C695 C697 1.387 . S
H696 C703 0.950 . S
C697 C695 1.387 . S
C697 C699 1.390 1_655 S
C697 H701 0.950 . S
H698 C694 0.950 . S
C699 C697 1.390 1_455 S
C699 C700 1.387 . S
C699 H702 0.950 . S
C700 C699 1.387 . S
C700 C703 1.387 . S
H701 C697 0.950 . S
H702 C699 0.950 . S
C703 C694 1.390 1_455 S
C703 H696 0.950 . S
C703 C700 1.387 . S
C704 C705 1.387 . S
C704 H708 0.950 . S
C704 C713 1.390 1_544 S
C705 C704 1.387 . S
C705 C707 1.387 . S
H706 C713 0.950 . S
C707 C705 1.387 . S
C707 C709 1.390 1_544 S
C707 H711 0.950 . S
H708 C704 0.950 . S
C709 C707 1.390 1_566 S
C709 C710 1.387 . S
C709 H712 0.950 . S
C710 C709 1.387 . S
C710 C713 1.387 . S
H711 C707 0.950 . S
H712 C709 0.950 . S
C713 C704 1.390 1_566 S
C713 H706 0.950 . S
C713 C710 1.387 . S
C714 C715 1.387 . S
C714 H718 0.950 . S
C714 C723 1.390 1_565 S
C715 C714 1.387 . S
C715 C717 1.387 . S
H716 C723 0.950 . S
C717 C715 1.387 . S
C717 C719 1.390 1_565 S
C717 H721 0.950 . S
H718 C714 0.950 . S
C719 C717 1.390 1_545 S
C719 C720 1.387 . S
C719 H722 0.950 . S
C720 C719 1.387 . S
C720 C723 1.387 . S
H721 C717 0.950 . S
H722 C719 0.950 . S
C723 C714 1.390 1_545 S
C723 H716 0.950 . S
C723 C720 1.387 . S
C724 C725 1.387 . S
C724 H728 0.950 . S
C724 C733 1.390 1_566 S
C725 C724 1.387 . S
C725 C727 1.387 . S
H726 C733 0.950 . S
C727 C725 1.387 . S
C727 C729 1.390 1_566 S
C727 H731 0.950 . S
H728 C724 0.950 . S
C729 C727 1.390 1_544 S
C729 C730 1.387 . S
C729 H732 0.950 . S
C730 C729 1.387 . S
C730 C733 1.387 . S
H731 C727 0.950 . S
H732 C729 0.950 . S
C733 C724 1.390 1_544 S
C733 H726 0.950 . S
C733 C730 1.387 . S
C734 C735 1.387 . S
C734 H738 0.950 . S
C734 C743 1.390 1_545 S
C735 C734 1.387 . S
C735 C737 1.387 . S
H736 C743 0.950 . S
C737 C735 1.387 . S
C737 C739 1.390 1_545 S
C737 H741 0.950 . S
H738 C734 0.950 . S
C739 C737 1.390 1_565 S
C739 C740 1.387 . S
C739 H742 0.950 . S
C740 C739 1.387 . S
C740 C743 1.387 . S
H741 C737 0.950 . S
H742 C739 0.950 . S
C743 C734 1.390 1_565 S
C743 H736 0.950 . S
C743 C740 1.387 . S
C744 C745 1.387 . S
C744 H748 0.950 . S
C744 C753 1.390 1_554 S
C745 C744 1.387 . S
C745 C747 1.387 . S
H746 C753 0.950 . S
C747 C745 1.387 . S
C747 C749 1.390 1_554 S
C747 H751 0.950 . S
H748 C744 0.950 . S
C749 C747 1.390 1_556 S
C749 C750 1.387 . S
C749 H752 0.950 . S
C750 C749 1.387 . S
C750 C753 1.387 . S
H751 C747 0.950 . S
H752 C749 0.950 . S
C753 C744 1.390 1_556 S
C753 H746 0.950 . S
C753 C750 1.387 . S
C754 C755 1.387 . S
C754 H758 0.950 . S
C754 C763 1.390 . S
C755 C754 1.387 . S
C755 C757 1.387 . S
H756 C763 0.950 . S
C757 C755 1.387 . S
C757 C759 1.390 . S
C757 H761 0.950 . S
H758 C754 0.950 . S
C759 C757 1.390 . S
C759 C760 1.387 . S
C759 H762 0.950 . S
C760 C759 1.387 . S
C760 C763 1.387 . S
H761 C757 0.950 . S
H762 C759 0.950 . S
C763 C754 1.390 . S
C763 H756 0.950 . S
C763 C760 1.387 . S
C764 C765 1.387 . S
C764 H768 0.950 . S
C764 C773 1.390 1_556 S
C765 C764 1.387 . S
C765 C767 1.387 . S
H766 C773 0.950 . S
C767 C765 1.387 . S
C767 C769 1.390 1_556 S
C767 H771 0.950 . S
H768 C764 0.950 . S
C769 C767 1.390 1_554 S
C769 C770 1.387 . S
C769 H772 0.950 . S
C770 C769 1.387 . S
C770 C773 1.387 . S
H771 C767 0.950 . S
H772 C769 0.950 . S
C773 C764 1.390 1_554 S
C773 H766 0.950 . S
C773 C770 1.387 . S
C774 C775 1.387 . S
C774 H778 0.950 . S
C774 C783 1.390 . S
C775 C774 1.387 . S
C775 C777 1.387 . S
H776 C783 0.950 . S
C777 C775 1.387 . S
C777 C779 1.390 . S
C777 H781 0.950 . S
H778 C774 0.950 . S
C779 C777 1.390 . S
C779 C780 1.387 . S
C779 H782 0.950 . S
C780 C779 1.387 . S
C780 C783 1.387 . S
H781 C777 0.950 . S
H782 C779 0.950 . S
C783 C774 1.390 . S
C783 H776 0.950 . S
C783 C780 1.387 . S
C784 C785 1.387 . S
C784 H788 0.950 . S
C784 C793 1.390 . S
C785 C784 1.387 . S
C785 C787 1.387 . S
H786 C793 0.950 . S
C787 C785 1.387 . S
C787 C789 1.390 . S
C787 H791 0.950 . S
H788 C784 0.950 . S
C789 C787 1.390 . S
C789 C790 1.387 . S
C789 H792 0.950 . S
C790 C789 1.387 . S
C790 C793 1.387 . S
H791 C787 0.950 . S
H792 C789 0.950 . S
C793 C784 1.390 . S
C793 H786 0.950 . S
C793 C790 1.387 . S
C794 C795 1.387 . S
C794 H798 0.950 . S
C794 C803 1.390 . S
C795 C794 1.387 . S
C795 C797 1.387 . S
H796 C803 0.950 . S
C797 C795 1.387 . S
C797 C799 1.390 . S
C797 H801 0.950 . S
H798 C794 0.950 . S
C799 C797 1.390 . S
C799 C800 1.387 . S
C799 H802 0.950 . S
C800 C799 1.387 . S
C800 C803 1.387 . S
H801 C797 0.950 . S
H802 C799 0.950 . S
C803 C794 1.390 . S
C803 H796 0.950 . S
C803 C800 1.387 . S
C804 C805 1.387 . S
C804 H808 0.950 . S
C804 C813 1.390 . S
C805 C804 1.387 . S
C805 C807 1.387 . S
H806 C813 0.950 . S
C807 C805 1.387 . S
C807 C809 1.390 . S
C807 H811 0.950 1_554 S
H808 C804 0.950 . S
C809 C807 1.390 . S
C809 C810 1.387 . S
C809 H812 0.950 . S
C810 C809 1.387 . S
C810 C813 1.387 . S
H811 C807 0.950 1_556 S
H812 C809 0.950 . S
C813 C804 1.390 . S
C813 H806 0.950 . S
C813 C810 1.387 . S
C814 C815 1.387 . S
C814 H818 0.950 . S
C814 C823 1.390 . S
C815 C814 1.387 . S
C815 C817 1.387 . S
H816 C823 0.950 . S
C817 C815 1.387 . S
C817 C819 1.390 . S
C817 H821 0.950 . S
H818 C814 0.950 . S
C819 C817 1.390 . S
C819 C820 1.387 . S
C819 H822 0.950 . S
C820 C819 1.387 . S
C820 C823 1.387 . S
H821 C817 0.950 . S
H822 C819 0.950 . S
C823 C814 1.390 . S
C823 H816 0.950 . S
C823 C820 1.387 . S
C824 C825 1.387 . S
C824 H828 0.950 . S
C824 C833 1.390 . S
C825 C824 1.387 . S
C825 C827 1.387 . S
H826 C833 0.950 . S
C827 C825 1.387 . S
C827 C829 1.390 . S
C827 H831 0.950 . S
H828 C824 0.950 . S
C829 C827 1.390 . S
C829 C830 1.387 . S
C829 H832 0.950 . S
C830 C829 1.387 . S
C830 C833 1.387 . S
H831 C827 0.950 . S
H832 C829 0.950 . S
C833 C824 1.390 . S
C833 H826 0.950 . S
C833 C830 1.387 . S
C834 C835 1.387 . S
C834 H838 0.950 . S
C834 C843 1.390 . S
C835 C834 1.387 . S
C835 C837 1.387 . S
H836 C843 0.950 . S
C837 C835 1.387 . S
C837 C839 1.390 . S
C837 H841 0.950 . S
H838 C834 0.950 . S
C839 C837 1.390 . S
C839 C840 1.387 . S
C839 H842 0.950 . S
C840 C839 1.387 . S
C840 C843 1.387 . S
H841 C837 0.950 . S
H842 C839 0.950 . S
C843 C834 1.390 . S
C843 H836 0.950 . S
C843 C840 1.387 . S
C844 C845 1.387 . S
C844 H848 0.950 1_556 S
C844 C853 1.390 . S
C845 C844 1.387 . S
C845 C847 1.387 . S
H846 C853 0.950 . S
C847 C845 1.387 . S
C847 C849 1.390 . S
C847 H851 0.950 . S
H848 C844 0.950 1_554 S
C849 C847 1.390 . S
C849 C850 1.387 . S
C849 H852 0.950 . S
C850 C849 1.387 . S
C850 C853 1.387 . S
H851 C847 0.950 . S
H852 C849 0.950 . S
C853 C844 1.390 . S
C853 H846 0.950 . S
C853 C850 1.387 . S
C854 C855 1.387 . S
C854 H858 0.950 . S
C854 C863 1.390 . S
C855 C854 1.387 . S
C855 C857 1.387 . S
H856 C863 0.950 . S
C857 C855 1.387 . S
C857 C859 1.390 . S
C857 H861 0.950 . S
H858 C854 0.950 . S
C859 C857 1.390 . S
C859 C860 1.387 . S
C859 H862 0.950 . S
C860 C859 1.387 . S
C860 C863 1.387 . S
H861 C857 0.950 . S
H862 C859 0.950 . S
C863 C854 1.390 . S
C863 H856 0.950 . S
C863 C860 1.387 . S
C864 C865 1.387 . S
C864 H868 0.950 . S
C864 C873 1.390 . S
C865 C864 1.387 . S
C865 C867 1.387 . S
H866 C873 0.950 . S
C867 C865 1.387 . S
C867 C869 1.390 . S
C867 H871 0.950 1_556 S
H868 C864 0.950 . S
C869 C867 1.390 . S
C869 C870 1.387 . S
C869 H872 0.950 . S
C870 C869 1.387 . S
C870 C873 1.387 . S
H871 C867 0.950 1_554 S
H872 C869 0.950 . S
C873 C864 1.390 . S
C873 H866 0.950 . S
C873 C870 1.387 . S
C874 C875 1.387 . S
C874 H878 0.950 . S
C874 C883 1.390 . S
C875 C874 1.387 . S
C875 C877 1.387 . S
H876 C883 0.950 . S
C877 C875 1.387 . S
C877 C879 1.390 . S
C877 H881 0.950 . S
H878 C874 0.950 . S
C879 C877 1.390 . S
C879 C880 1.387 . S
C879 H882 0.950 . S
C880 C879 1.387 . S
C880 C883 1.387 . S
H881 C877 0.950 . S
H882 C879 0.950 . S
C883 C874 1.390 . S
C883 H876 0.950 . S
C883 C880 1.387 . S
C884 C885 1.387 . S
C884 H888 0.950 . S
C884 C893 1.390 . S
C885 C884 1.387 . S
C885 C887 1.387 . S
H886 C893 0.950 . S
C887 C885 1.387 . S
C887 C889 1.390 . S
C887 H891 0.950 . S
H888 C884 0.950 . S
C889 C887 1.390 . S
C889 C890 1.387 . S
C889 H892 0.950 . S
C890 C889 1.387 . S
C890 C893 1.387 . S
H891 C887 0.950 . S
H892 C889 0.950 . S
C893 C884 1.390 . S
C893 H886 0.950 . S
C893 C890 1.387 . S
C894 C895 1.387 . S
C894 H898 0.950 . S
C894 C903 1.390 . S
C895 C894 1.387 . S
C895 C897 1.387 . S
H896 C903 0.950 . S
C897 C895 1.387 . S
C897 C899 1.390 . S
C897 H901 0.950 . S
H898 C894 0.950 . S
C899 C897 1.390 . S
C899 C900 1.387 . S
C899 H902 0.950 . S
C900 C899 1.387 . S
C900 C903 1.387 . S
H901 C897 0.950 . S
H902 C899 0.950 . S
C903 C894 1.390 . S
C903 H896 0.950 . S
C903 C900 1.387 . S
C904 C905 1.387 . S
C904 H908 0.950 . S
C904 C913 1.390 . S
C905 C904 1.387 . S
C905 C907 1.387 . S
H906 C913 0.950 . S
C907 C905 1.387 . S
C907 C909 1.390 . S
C907 H911 0.950 . S
H908 C904 0.950 . S
C909 C907 1.390 . S
C909 C910 1.387 . S
C909 H912 0.950 . S
C910 C909 1.387 . S
C910 C913 1.387 . S
H911 C907 0.950 . S
H912 C909 0.950 . S
C913 C904 1.390 . S
C913 H906 0.950 . S
C913 C910 1.387 . S
C914 C915 1.387 . S
C914 H918 0.950 . S
C914 C923 1.390 . S
C915 C914 1.387 . S
C915 C917 1.387 . S
H916 C923 0.950 . S
C917 C915 1.387 . S
C917 C919 1.390 . S
C917 H921 0.950 . S
H918 C914 0.950 . S
C919 C917 1.390 . S
C919 C920 1.387 . S
C919 H922 0.950 . S
C920 C919 1.387 . S
C920 C923 1.387 . S
H921 C917 0.950 . S
H922 C919 0.950 . S
C923 C914 1.390 . S
C923 H916 0.950 . S
C923 C920 1.387 . S
C924 C925 1.387 . S
C924 H928 0.950 . S
C924 C933 1.390 . S
C925 C924 1.387 . S
C925 C927 1.387 . S
H926 C933 0.950 . S
C927 C925 1.387 . S
C927 C929 1.390 . S
C927 H931 0.950 . S
H928 C924 0.950 . S
C929 C927 1.390 . S
C929 C930 1.387 . S
C929 H932 0.950 . S
C930 C929 1.387 . S
C930 C933 1.387 . S
H931 C927 0.950 . S
H932 C929 0.950 . S
C933 C924 1.390 . S
C933 H926 0.950 . S
C933 C930 1.387 . S
C934 C935 1.387 . S
C934 H938 0.950 . S
C934 C943 1.390 . S
C935 C934 1.387 . S
C935 C937 1.387 . S
H936 C943 0.950 . S
C937 C935 1.387 . S
C937 C939 1.390 . S
C937 H941 0.950 . S
H938 C934 0.950 . S
C939 C937 1.390 . S
C939 C940 1.387 . S
C939 H942 0.950 . S
C940 C939 1.387 . S
C940 C943 1.387 . S
H941 C937 0.950 . S
H942 C939 0.950 . S
C943 C934 1.390 . S
C943 H936 0.950 . S
C943 C940 1.387 . S
C545 C9 1.479 . S
C550 C111 1.479 . S
C555 C77 1.480 . S
C560 C43 1.480 . S
C565 C247 1.479 . S
C570 C145 1.479 . S
C575 C179 1.479 . S
C580 C213 1.479 . S
C585 C281 1.480 . S
C590 C383 1.480 . S
C595 C315 1.480 . S
C600 C349 1.480 . S
C605 C519 1.480 . S
C610 C417 1.480 . S
C615 C451 1.479 . S
C620 C485 1.479 . S
C625 C209 1.495 . S
C630 C5 1.496 . S
C635 C243 1.495 . S
C640 C39 1.496 . S
C645 C141 1.495 . S
C650 C73 1.496 . S
C655 C175 1.495 . S
C660 C107 1.496 . S
C665 C481 1.495 . S
C670 C277 1.496 . S
C675 C515 1.495 . S
C680 C311 1.496 . S
C685 C413 1.496 . S
C690 C345 1.495 . S
C695 C379 1.496 . S
C700 C447 1.495 . S
C705 C2 1.543 . S
C710 C70 1.543 . S
C715 C36 1.545 . S
C720 C104 1.545 . S
C725 C138 1.545 . S
C730 C206 1.545 . S
C735 C172 1.545 . S
C740 C240 1.545 . S
C745 C274 1.545 . S
C750 C342 1.545 . S
C755 C308 1.543 . S
C760 C376 1.543 . S
C765 C410 1.545 . S
C770 C478 1.545 . S
C775 C444 1.545 . S
C780 C512 1.545 . S
C785 C530 1.405 . S
C790 C33 1.407 1_556 S
C795 C67 1.407 . S
C800 C496 1.406 . S
C805 C101 1.407 1_554 S
C810 C462 1.405 . S
C815 C428 1.405 . S
C820 C135 1.407 . S
C825 C394 1.405 . S
C830 C169 1.407 1_554 S
C835 C203 1.407 . S
C840 C360 1.406 . S
C845 C237 1.407 1_556 S
C850 C326 1.406 . S
C855 C271 1.407 . S
C860 C292 1.405 . S
C865 C305 1.407 1_556 S
C870 C258 1.405 . S
C875 C224 1.405 . S
C880 C339 1.407 . S
C885 C190 1.405 . S
C890 C373 1.407 1_554 S
C895 C407 1.407 . S
C900 C156 1.405 . S
C905 C441 1.407 1_554 S
C910 C122 1.405 . S
C915 C88 1.405 . S
C920 C475 1.407 . S
C925 C54 1.405 . S
C930 C509 1.407 1_556 S
C935 C20 1.405 . S
C940 C543 1.407 . S
