# Generated by pormake.
# Topology fcu, (12)-cn, num edge types: 1
# Building blocks:
#     Node 0, Type 0, BuildingBlock: FANWIC_clean_sbu_0, # of connection points: 12
#     Node 1, Type 0, BuildingBlock: FANWIC_clean_sbu_0, # of connection points: 12
#     Node 2, Type 0, BuildingBlock: FANWIC_clean_sbu_0, # of connection points: 12
#     Node 3, Type 0, BuildingBlock: FANWIC_clean_sbu_0, # of connection points: 12
#     Edge 4, Type (0, 0), BuildingBlock: ZUJKAS_clean_linker_0, # of connection points: 2
#     Edge 5, Type (0, 0), BuildingBlock: ZUJKAS_clean_linker_0, # of connection points: 2
#     Edge 6, Type (0, 0), BuildingBlock: ZUJKAS_clean_linker_0, # of connection points: 2
#     Edge 7, Type (0, 0), BuildingBlock: ZUJKAS_clean_linker_0, # of connection points: 2
#     Edge 8, Type (0, 0), BuildingBlock: ZUJKAS_clean_linker_0, # of connection points: 2
#     Edge 9, Type (0, 0), BuildingBlock: ZUJKAS_clean_linker_0, # of connection points: 2
#     Edge 10, Type (0, 0), BuildingBlock: ZUJKAS_clean_linker_0, # of connection points: 2
#     Edge 11, Type (0, 0), BuildingBlock: ZUJKAS_clean_linker_0, # of connection points: 2
#     Edge 12, Type (0, 0), BuildingBlock: ZUJKAS_clean_linker_0, # of connection points: 2
#     Edge 13, Type (0, 0), BuildingBlock: ZUJKAS_clean_linker_0, # of connection points: 2
#     Edge 14, Type (0, 0), BuildingBlock: ZUJKAS_clean_linker_0, # of connection points: 2
#     Edge 15, Type (0, 0), BuildingBlock: ZUJKAS_clean_linker_0, # of connection points: 2
#     Edge 16, Type (0, 0), BuildingBlock: ZUJKAS_clean_linker_0, # of connection points: 2
#     Edge 17, Type (0, 0), BuildingBlock: ZUJKAS_clean_linker_0, # of connection points: 2
#     Edge 18, Type (0, 0), BuildingBlock: ZUJKAS_clean_linker_0, # of connection points: 2
#     Edge 19, Type (0, 0), BuildingBlock: ZUJKAS_clean_linker_0, # of connection points: 2
#     Edge 20, Type (0, 0), BuildingBlock: ZUJKAS_clean_linker_0, # of connection points: 2
#     Edge 21, Type (0, 0), BuildingBlock: ZUJKAS_clean_linker_0, # of connection points: 2
#     Edge 22, Type (0, 0), BuildingBlock: ZUJKAS_clean_linker_0, # of connection points: 2
#     Edge 23, Type (0, 0), BuildingBlock: ZUJKAS_clean_linker_0, # of connection points: 2
#     Edge 24, Type (0, 0), BuildingBlock: ZUJKAS_clean_linker_0, # of connection points: 2
#     Edge 25, Type (0, 0), BuildingBlock: ZUJKAS_clean_linker_0, # of connection points: 2
#     Edge 26, Type (0, 0), BuildingBlock: ZUJKAS_clean_linker_0, # of connection points: 2
#     Edge 27, Type (0, 0), BuildingBlock: ZUJKAS_clean_linker_0, # of connection points: 2
# Relax obj value: 0.217
# Max RMSD: 0.293
# Mean RMSD: 0.293
data_MOF--net-fcu--node1-FANWIC_clean_sbu_0--edge1-ZUJKAS_clean_linker_0
_symmetry_space_group_name_H-M    P1
_symmetry_Int_Tables_number       1
_symmetry_cell_setting            triclinic
loop_
_symmetry_equiv_pos_as_xyz
'x, y, z'
_cell_length_a     30.129746
_cell_length_b     30.700704
_cell_length_c     30.683995
_cell_angle_alpha  91.262991
_cell_angle_beta   90.359166
_cell_angle_gamma 92.332502
loop_
_atom_site_label
_atom_site_type_symbol
_atom_site_fract_x
_atom_site_fract_y
_atom_site_fract_z
_atom_type_partial_charge
Zn0 Zn 0.96073 0.02189 0.94426 0.0
Zn1 Zn 0.92848 0.97787 0.03803 0.0
Zn2 Zn 0.97656 0.08511 0.03217 0.0
Zn3 Zn 0.88211 0.04836 0.00281 0.0
O4 O 0.94425 0.03205 0.00665 0.0
C5 C 0.02487 0.08471 0.11465 0.0
O6 O 0.06001 0.08774 0.08963 0.0
N7 N 0.00311 0.97569 0.93919 0.0
N8 N 0.03437 0.9673 0.9682 0.0
N9 N 0.0361 0.91654 0.91528 0.0
C10 C 0.0044 0.94497 0.90716 0.0
C11 C 0.05423 0.93133 0.95333 0.0
N12 N 0.97981 0.94659 0.05455 0.0
C13 C 0.04296 0.9337 0.0828 0.0
N14 N 0.01958 0.89508 0.08333 0.0
C15 C 0.98007 0.9045 0.06574 0.0
N16 N 0.01869 0.96524 0.06581 0.0
H17 H 0.94014 0.8507 0.0401 0.0
C18 C 0.93901 0.87529 0.06708 0.0
H19 H 0.90875 0.8943 0.06362 0.0
H20 H 0.93733 0.85753 0.09818 0.0
N21 N 0.03288 0.09145 0.00208 0.0
C22 C 0.05517 0.129 0.99322 0.0
C23 C 0.09061 0.07726 0.96448 0.0
N24 N 0.05466 0.05905 0.98405 0.0
N25 N 0.09157 0.12123 0.9693 0.0
C26 C 0.03846 0.17298 0.00509 0.0
H27 H 0.00908 0.17911 0.98455 0.0
H28 H 0.02757 0.1733 0.03958 0.0
H29 H 0.0636 0.19965 8e-05 0.0
O30 O 0.84943 0.01828 0.95252 0.0
O31 O 0.90617 0.00381 0.90969 0.0
C32 C 0.86462 0.00358 0.91672 0.0
O33 O 0.88654 0.94241 0.99898 0.0
O34 O 0.87858 0.1118 0.99313 0.0
O35 O 0.94063 0.13982 0.02368 0.0
O36 O 0.9845 0.07883 0.91943 0.0
O37 O 0.84983 0.03744 0.05969 0.0
O38 O 0.89407 0.99204 0.09185 0.0
O39 O 0.98651 0.08052 0.09714 0.0
C40 C 0.89664 0.91409 0.97037 0.0
O41 O 0.93828 0.90404 0.96579 0.0
C42 C 0.90298 0.14449 0.00552 0.0
C43 C 0.00269 0.08177 0.88228 0.0
O44 O 0.00713 0.04643 0.85817 0.0
C45 C 0.86044 0.0158 0.0929 0.0
H46 H 0.96436 0.97521 0.85893 0.0
H47 H 0.94363 0.92292 0.87641 0.0
H48 H 0.99025 0.92624 0.84017 0.0
C49 C 0.9741 0.94238 0.86826 0.0
Zn50 Zn 0.96042 0.50097 0.44968 0.0
Zn51 Zn 0.94272 0.47991 0.5551 0.0
Zn52 Zn 0.97307 0.58285 0.52097 0.0
Zn53 Zn 0.87813 0.53453 0.50192 0.0
O54 O 0.94237 0.52423 0.50831 0.0
C55 C 0.02609 0.58775 0.60083 0.0
O56 O 0.05778 0.57336 0.57581 0.0
N57 N -0.00045 0.45211 0.45439 0.0
N58 N 0.03977 0.45337 0.4724 0.0
N59 N 0.02502 0.38545 0.44727 0.0
C60 C 0.99093 0.41119 0.43887 0.0
C61 C 0.05499 0.41277 0.46774 0.0
N62 N 0.99611 0.48358 0.59048 0.0
C63 C 0.05676 0.45917 0.6141 0.0
N64 N 0.03349 0.46804 0.6507 0.0
C65 C 0.99644 0.48512 0.63439 0.0
N66 N 0.03406 0.46758 0.57752 0.0
H67 H 0.93281 0.475 0.6645 0.0
C68 C 0.95907 0.50108 0.66163 0.0
H69 H 0.94441 0.52955 0.64617 0.0
H70 H 0.97118 0.51055 0.69488 0.0
N71 N 0.02833 0.58732 0.48877 0.0
C72 C 0.04866 0.62473 0.4764 0.0
C73 C 0.08552 0.57256 0.45059 0.0
N74 N 0.05125 0.55455 0.47303 0.0
N75 N 0.08446 0.61665 0.4518 0.0
C76 C 0.03074 0.66873 0.4859 0.0
H77 H 0.0038 0.67462 0.46221 0.0
H78 H 0.01633 0.66953 0.51909 0.0
H79 H 0.05652 0.69525 0.4831 0.0
O80 O 0.8484 0.50242 0.45069 0.0
O81 O 0.90775 0.48322 0.41409 0.0
C82 C 0.86602 0.48549 0.41715 0.0
O83 O 0.93557 0.41931 0.52919 0.0
O84 O 0.86947 0.59677 0.49059 0.0
O85 O 0.9333 0.63296 0.50427 0.0
O86 O 0.98601 0.54876 0.41298 0.0
O87 O 0.84352 0.523 0.5566 0.0
O88 O 0.89003 0.48453 0.59449 0.0
O89 O 0.98742 0.59166 0.58484 0.0
C90 C 0.94796 0.38706 0.55088 0.0
O91 O 0.9686 0.39426 0.58828 0.0
C92 C 0.89247 0.63232 0.49288 0.0
C93 C 0.99253 0.54165 0.37264 0.0
O94 O 0.98498 0.50215 0.3562 0.0
C95 C 0.85311 0.50262 0.59077 0.0
H96 H 0.92045 0.40401 0.43091 0.0
H97 H 0.95022 0.36319 0.40144 0.0
H98 H 0.95016 0.41816 0.38239 0.0
C99 C 0.95077 0.39795 0.41189 0.0
Zn100 Zn 0.45587 0.01247 0.44648 0.0
Zn101 Zn 0.43141 0.96559 0.53871 0.0
Zn102 Zn 0.47429 0.07554 0.53314 0.0
Zn103 Zn 0.38157 0.03791 0.50895 0.0
O104 O 0.44328 0.02121 0.50951 0.0
C105 C 0.48056 0.05962 0.62994 0.0
O106 O 0.49407 0.01999 0.6232 0.0
N107 N 0.50303 0.97221 0.4348 0.0
N108 N 0.53757 0.9642 0.46 0.0
N109 N 0.54035 0.92086 0.40073 0.0
C110 C 0.50516 0.94648 0.39884 0.0
C111 C 0.55984 0.93281 0.43908 0.0
N112 N 0.48579 0.93997 0.55416 0.0
C113 C 0.55197 0.93208 0.57736 0.0
N114 N 0.52982 0.8938 0.58543 0.0
C115 C 0.48853 0.90006 0.57045 0.0
N116 N 0.52513 0.96043 0.55851 0.0
H117 H 0.4517 0.83998 0.55833 0.0
C118 C 0.44877 0.87035 0.57821 0.0
H119 H 0.41761 0.88611 0.56935 0.0
H120 H 0.44748 0.86122 0.613 0.0
N121 N 0.53558 0.07431 0.51529 0.0
C122 C 0.57255 0.08996 0.53605 0.0
C123 C 0.59224 0.06258 0.47536 0.0
N124 N 0.54773 0.05751 0.47735 0.0
N125 N 0.60894 0.08267 0.51192 0.0
C126 C 0.57226 0.1156 0.57815 0.0
H127 H 0.60132 0.13889 0.58081 0.0
H128 H 0.54117 0.13359 0.58093 0.0
H129 H 0.57375 0.09282 0.60562 0.0
O130 O 0.34563 0.00459 0.46224 0.0
O131 O 0.39974 0.99037 0.41603 0.0
C132 C 0.35875 0.98887 0.42596 0.0
O133 O 0.39662 0.92668 0.49675 0.0
O134 O 0.37823 0.10098 0.49529 0.0
O135 O 0.44554 0.12977 0.51055 0.0
O136 O 0.47442 0.07044 0.42346 0.0
O137 O 0.35508 0.0292 0.56877 0.0
O138 O 0.39423 0.9749 0.59268 0.0
O139 O 0.47075 0.08289 0.59787 0.0
C140 C 0.41263 0.89983 0.46958 0.0
O141 O 0.45558 0.89424 0.46912 0.0
C142 C 0.4057 0.13352 0.49729 0.0
C143 C 0.44786 0.09474 0.40431 0.0
O144 O 0.40646 0.08104 0.39765 0.0
C145 C 0.36439 0.00267 0.59856 0.0
H146 H 0.45824 0.9781 0.35877 0.0
H147 H 0.44308 0.92273 0.37276 0.0
H148 H 0.48428 0.93314 0.33196 0.0
C149 C 0.47092 0.94509 0.36331 0.0
Zn150 Zn 0.44688 0.48917 0.93629 0.0
Zn151 Zn 0.42576 0.45365 0.03306 0.0
Zn152 Zn 0.45015 0.56557 0.0146 0.0
Zn153 Zn 0.36146 0.51218 0.98763 0.0
O154 O 0.42678 0.50596 0.99618 0.0
C155 C 0.49682 0.576 0.09715 0.0
O156 O 0.53172 0.56806 0.07339 0.0
N157 N 0.49908 0.45294 0.937 0.0
N158 N 0.52893 0.45141 0.96893 0.0
N159 N 0.54751 0.40373 0.91689 0.0
C160 C 0.51087 0.42441 0.90545 0.0
C161 C 0.55796 0.42125 0.9564 0.0
N162 N 0.47829 0.44456 0.0669 0.0
C163 C 0.54262 0.44201 0.09633 0.0
N164 N 0.51678 0.41251 0.11756 0.0
C165 C 0.47702 0.41471 0.09822 0.0
N166 N 0.51925 0.46213 0.06537 0.0
H167 H 0.44472 0.35426 0.11782 0.0
C168 C 0.43626 0.38799 0.11002 0.0
H169 H 0.41173 0.38657 0.08295 0.0
H170 H 0.42121 0.40273 0.13944 0.0
N171 N 0.50559 0.57785 0.98546 0.0
C172 C 0.5257 0.61723 0.98023 0.0
C173 C 0.563 0.57079 0.94546 0.0
N174 N 0.52876 0.54871 0.96401 0.0
N175 N 0.56186 0.61403 0.95483 0.0
C176 C 0.50718 0.65892 0.99688 0.0
H177 H 0.49273 0.67632 0.96918 0.0
H178 H 0.48107 0.6523 0.02145 0.0
H179 H 0.53368 0.68049 0.01184 0.0
O180 O 0.33557 0.47303 0.93865 0.0
O181 O 0.39718 0.45675 0.90429 0.0
C182 C 0.35524 0.45336 0.90779 0.0
O183 O 0.41578 0.40211 0.99215 0.0
O184 O 0.34693 0.57408 0.97496 0.0
O185 O 0.40724 0.61154 0.99813 0.0
O186 O 0.46107 0.54365 0.90362 0.0
O187 O 0.32826 0.49899 0.04317 0.0
O188 O 0.37585 0.45788 0.07648 0.0
O189 O 0.45856 0.57342 0.07941 0.0
C190 C 0.43959 0.36895 0.98809 0.0
O191 O 0.474 0.36433 0.0137 0.0
C192 C 0.36789 0.61029 0.98271 0.0
C193 C 0.45728 0.54534 0.86252 0.0
O194 O 0.44126 0.51117 0.84031 0.0
C195 C 0.33927 0.47707 0.07595 0.0
H196 H 0.45771 0.43623 0.86036 0.0
H197 H 0.48027 0.38276 0.85564 0.0
H198 H 0.51091 0.42947 0.83625 0.0
C199 C 0.48809 0.41793 0.86219 0.0
H200 H 0.09709 0.12076 0.15784 0.0
H201 H 0.09877 0.15336 0.23068 0.0
H202 H 0.96465 0.10403 0.25211 0.0
H203 H 0.96202 0.07307 0.17794 0.0
H204 H 0.9686 0.18594 0.26666 0.0
H205 H 0.11175 0.12326 0.35397 0.0
H206 H 0.12994 0.1429 0.30233 0.0
H207 H 0.0902 0.09737 0.3044 0.0
C208 C 0.06832 0.11577 0.17839 0.0
C209 C 0.02916 0.09494 0.16187 0.0
C210 C 0.0695 0.13412 0.22045 0.0
C211 C 0.03199 0.13096 0.24734 0.0
C212 C 0.99404 0.10699 0.23206 0.0
H213 H 0.97894 0.3114 0.46602 0.0
H214 H 0.9813 0.24133 0.42596 0.0
C215 C 0.99255 0.0893 0.18964 0.0
C216 C 0.02993 0.15881 0.28753 0.0
H217 H 0.09163 0.19766 0.37499 0.0
C218 C 0.9949 0.18752 0.29101 0.0
C219 C 0.06418 0.16115 0.31949 0.0
C220 C 0.10079 0.1291 0.32003 0.0
C221 C 0.99471 0.22023 0.32358 0.0
C222 C 0.03052 0.22444 0.35352 0.0
C223 C 0.06443 0.1945 0.35166 0.0
C224 C 0.03493 0.26249 0.38384 0.0
C225 C 0.95745 0.25172 0.32423 0.0
C226 C 0.06545 0.29673 0.37453 0.0
C227 C 0.06384 0.33658 0.39722 0.0
C228 C 0.03181 0.34256 0.42952 0.0
C229 C 0.00354 0.30731 0.441 0.0
C230 C 0.00499 0.26746 0.41825 0.0
H231 H 0.935 0.2471 0.2955 0.0
H232 H 0.93742 0.24688 0.3541 0.0
H233 H 0.97107 0.28589 0.32506 0.0
H234 H 0.08866 0.2935 0.34794 0.0
H235 H 0.08578 0.36355 0.38788 0.0
H236 H 0.77953 0.05209 0.10263 0.0
H237 H 0.73409 0.05523 0.16837 0.0
H238 H 0.83337 0.98792 0.23926 0.0
H239 H 0.87912 0.98431 0.17362 0.0
H240 H 0.70431 0.97726 0.22319 0.0
H241 H 0.8089 0.10606 0.30974 0.0
H242 H 0.80967 0.09868 0.25117 0.0
H243 H 0.83661 0.06089 0.2852 0.0
C244 C 0.79182 0.03798 0.13217 0.0
C245 C 0.83305 0.018 0.13284 0.0
C246 C 0.76571 0.03969 0.16964 0.0
C247 C 0.78051 0.02196 0.20858 0.0
C248 C 0.82154 0.00198 0.20949 0.0
H249 H 0.67647 0.0317 0.47191 0.0
H250 H 0.72129 0.01937 0.40714 0.0
C251 C 0.84756 -0.0001 0.17194 0.0
C252 C 0.75304 0.02465 0.24832 0.0
H253 H 0.74692 0.0771 0.34713 0.0
C254 C 0.71351 -0.00099 0.25039 0.0
C255 C 0.76543 0.05286 0.28368 0.0
C256 C 0.80731 0.08148 0.28259 0.0
C257 C 0.68606 0.00062 0.28723 0.0
C258 C 0.69795 0.0296 0.32232 0.0
C259 C 0.73776 0.05494 0.32024 0.0
C260 C 0.66957 0.03477 0.36138 0.0
C261 C 0.64515 0.97062 0.28849 0.0
C262 C 0.62542 0.04733 0.35733 0.0
C263 C 0.59987 0.05493 0.39445 0.0
C264 C 0.61827 0.05089 0.43625 0.0
C265 C 0.66195 0.03696 0.44022 0.0
C266 C 0.6875 0.02948 0.40318 0.0
H267 H 0.64814 0.94186 0.26623 0.0
H268 H 0.63884 0.95889 0.32192 0.0
H269 H 0.61591 0.98853 0.27777 0.0
H270 H 0.61108 0.05251 0.32552 0.0
H271 H 0.56624 0.06545 0.39042 0.0
H272 H 0.0257 0.81062 0.0597 0.0
H273 H 0.03134 0.74873 0.10917 0.0
H274 H 0.03483 0.83823 0.21963 0.0
H275 H 0.02829 0.89947 0.17048 0.0
H276 H 0.09722 0.73296 0.18259 0.0
H277 H 0.92228 0.75361 0.23346 0.0
H278 H 0.94466 0.77639 0.18408 0.0
H279 H 0.95775 0.80214 0.23595 0.0
C280 C 0.02827 0.8167 0.09454 0.0
C281 C 0.02695 0.85936 0.11157 0.0
C282 C 0.03165 0.78167 0.12261 0.0
C283 C 0.03334 0.78915 0.16791 0.0
C284 C 0.03346 0.83194 0.18475 0.0
H285 H 0.99531 0.62864 0.39262 0.0
H286 H 0.012 0.68869 0.34371 0.0
C287 C 0.02995 0.86677 0.1568 0.0
C288 C 0.03116 0.75232 0.19797 0.0
H289 H 0.96312 0.7028 0.27185 0.0
C290 C 0.06796 0.72613 0.20209 0.0
C291 C 0.99287 0.74374 0.2232 0.0
C292 C 0.95193 0.77015 0.21887 0.0
C293 C 0.06771 0.69184 0.23169 0.0
C294 C 0.0294 0.68341 0.25712 0.0
C295 C 0.99261 0.70957 0.25262 0.0
C296 C 0.02573 0.64706 0.28795 0.0
C297 C 0.10863 0.66553 0.23588 0.0
C298 C 0.02867 0.60375 0.27302 0.0
C299 C 0.01938 0.56934 0.30102 0.0
C300 C 0.00666 0.57774 0.34429 0.0
C301 C 0.00512 0.62114 0.35951 0.0
C302 C 0.01455 0.65548 0.33157 0.0
H303 H 0.13906 0.68486 0.22691 0.0
H304 H 0.11273 0.65371 0.26947 0.0
H305 H 0.10552 0.63674 0.21338 0.0
H306 H 0.03644 0.59651 0.23928 0.0
H307 H 0.02097 0.53621 0.28843 0.0
H308 H 0.37539 0.94791 0.34821 0.0
H309 H 0.32371 0.93262 0.2881 0.0
H310 H 0.21614 0.97759 0.36685 0.0
H311 H 0.26784 0.99285 0.42786 0.0
H312 H 0.20069 0.89566 0.30492 0.0
H313 H 0.27147 0.04726 0.23116 0.0
H314 H 0.31015 0.00881 0.25057 0.0
H315 H 0.27603 0.03696 0.28872 0.0
C316 C 0.34071 0.95379 0.35332 0.0
C317 C 0.32599 0.97234 0.39274 0.0
C318 C 0.3112 0.94498 0.31881 0.0
C319 C 0.26644 0.95464 0.32298 0.0
C320 C 0.25077 0.97013 0.36314 0.0
H321 H 0.06243 0.00324 0.13637 0.0
H322 H 0.12108 0.00901 0.19196 0.0
C323 C 0.28036 0.97887 0.39789 0.0
C324 C 0.23734 0.95298 0.28408 0.0
H325 H 0.21755 0.00639 0.18991 0.0
C326 C 0.20433 0.91969 0.27966 0.0
C327 C 0.24221 0.98472 0.25154 0.0
C328 C 0.27664 0.02172 0.25557 0.0
C329 C 0.17593 0.91724 0.24314 0.0
C330 C 0.18121 0.94871 0.2103 0.0
C331 C 0.21408 0.98211 0.21495 0.0
C332 C 0.15102 0.94885 0.17221 0.0
C333 C 0.13976 0.88177 0.24038 0.0
C334 C 0.1503 0.91456 0.1412 0.0
C335 C 0.11724 0.91165 0.10905 0.0
C336 C 0.08438 0.94278 0.10788 0.0
C337 C 0.08757 0.97907 0.13647 0.0
C338 C 0.12073 0.9821 0.16849 0.0
H339 H 0.1349 0.86524 0.27194 0.0
H340 H 0.10778 0.89535 0.23027 0.0
H341 H 0.14869 0.85691 0.21549 0.0
H342 H 0.17406 0.88911 0.14308 0.0
H343 H 0.11574 0.88369 0.08686 0.0
H344 H 0.9799 0.84864 0.89885 0.0
H345 H 0.994 0.78284 0.85557 0.0
H346 H 0.1294 0.82966 0.83645 0.0
H347 H 0.11413 0.89653 0.87883 0.0
H348 H 0.09004 0.80335 0.7612 0.0
H349 H 0.0597 0.67502 0.88153 0.0
H350 H 0.01385 0.71035 0.8799 0.0
H351 H 0.06785 0.73185 0.89722 0.0
C352 C 0.0124 0.84469 0.88513 0.0
C353 C 0.04564 0.87743 0.89125 0.0
C354 C 0.02085 0.80687 0.86122 0.0
C355 C 0.06307 0.80084 0.84354 0.0
C356 C 0.09673 0.83342 0.85024 0.0
H357 H 0.10837 0.60357 0.63752 0.0
H358 H 0.12613 0.64934 0.70219 0.0
C359 C 0.0881 0.87145 0.87419 0.0
C360 C 0.07006 0.76261 0.81442 0.0
H361 H 0.04796 0.65275 0.80523 0.0
C362 C 0.08208 0.77026 0.77108 0.0
C363 C 0.05987 0.7194 0.82743 0.0
C364 C 0.05009 0.70866 0.87422 0.0
C365 C 0.08073 0.73638 0.73964 0.0
C366 C 0.0673 0.69377 0.75204 0.0
C367 C 0.05797 0.68556 0.79586 0.0
C368 C 0.05756 0.65906 0.71883 0.0
C369 C 0.09079 0.74685 0.69279 0.0
C370 C 0.01318 0.64778 0.70825 0.0
C371 C 0.00289 0.6219 0.67131 0.0
C372 C 0.03689 0.60679 0.64446 0.0
C373 C 0.08141 0.61503 0.65732 0.0
C374 C 0.09167 0.6412 0.6942 0.0
H375 H 0.09638 0.7824 0.68794 0.0
H376 H 0.12111 0.73018 0.68246 0.0
H377 H 0.06303 0.73471 0.67122 0.0
H378 H 0.98644 0.66121 0.72704 0.0
H379 H 0.96828 0.6157 0.66258 0.0
H380 H 0.0706 0.01579 0.90171 0.0
H381 H 0.11961 0.98738 0.846 0.0
H382 H 0.2304 0.05946 0.90659 0.0
H383 H 0.18162 0.08456 0.96444 0.0
H384 H 0.15608 0.03645 0.7895 0.0
H385 H 0.29201 0.95337 0.86979 0.0
H386 H 0.24189 0.96667 0.89816 0.0
H387 H 0.28693 0.00679 0.89346 0.0
C388 C 0.10561 0.0238 0.9043 0.0
C389 C 0.12201 0.05266 0.93712 0.0
C390 C 0.13373 0.00801 0.87208 0.0
C391 C 0.17893 0.0213 0.87168 0.0
C392 C 0.19599 0.04786 0.9063 0.0
H393 H 0.32225 0.07152 0.63453 0.0
H394 H 0.27892 0.07347 0.70143 0.0
C395 C 0.16793 0.06269 0.93917 0.0
C396 C 0.20629 0.01271 0.83228 0.0
H397 H 0.30851 0.9821 0.79825 0.0
C398 C 0.18915 0.02387 0.7915 0.0
C399 C 0.24926 0.99576 0.83437 0.0
C400 C 0.26833 0.97952 0.87629 0.0
C401 C 0.21404 0.01996 0.75323 0.0
C402 C 0.25834 0.00634 0.75577 0.0
C403 C 0.27497 0.99349 0.79625 0.0
C404 C 0.2878 0.00584 0.71684 0.0
C405 C 0.19213 0.03003 0.71042 0.0
C406 C 0.30966 0.96798 0.70436 0.0
C407 C 0.33554 0.96715 0.66653 0.0
C408 C 0.33967 0.00405 0.64022 0.0
C409 C 0.31899 0.04228 0.65357 0.0
C410 C 0.29393 0.04334 0.69174 0.0
H411 H 0.15547 0.02477 0.71206 0.0
H412 H 0.19909 0.06483 0.70294 0.0
H413 H 0.20462 0.00952 0.68327 0.0
H414 H 0.30589 0.93874 0.72332 0.0
H415 H 0.35125 0.93726 0.65722 0.0
H416 H 0.96938 0.412 0.67843 0.0
H417 H 0.97737 0.35494 0.73031 0.0
H418 H 0.11163 0.40188 0.75844 0.0
H419 H 0.10204 0.46245 0.70853 0.0
H420 H 0.03569 0.29602 0.70929 0.0
H421 H 0.07281 0.35955 0.87749 0.0
H422 H 0.04667 0.39206 0.83703 0.0
H423 H 0.10488 0.3827 0.83385 0.0
C424 C -0.00032 0.41214 0.69745 0.0
C425 C 0.03502 0.44206 0.68935 0.0
C426 C 0.00456 0.37879 0.7267 0.0
C427 C 0.04536 0.37346 0.74773 0.0
C428 C 0.07981 0.40517 0.7426 0.0
H429 H 0.06036 0.09816 0.81599 0.0
H430 H 0.08348 0.16889 0.78703 0.0
C431 C 0.07442 0.43963 0.71391 0.0
C432 C 0.05245 0.33125 0.76893 0.0
H433 H 0.069 0.28328 0.86672 0.0
C434 C 0.04314 0.29322 0.74375 0.0
C435 C 0.06273 0.32771 0.81366 0.0
C436 C 0.07214 0.36754 0.84236 0.0
C437 C 0.03979 0.25213 0.76252 0.0
C438 C 0.0492 0.24833 0.80757 0.0
C439 C 0.06172 0.28613 0.83227 0.0
C440 C 0.04193 0.20619 0.83007 0.0
C441 C 0.02286 0.21401 0.73418 0.0
C442 C 0.01352 0.20368 0.86618 0.0
C443 C 0.00169 0.16334 0.88399 0.0
C444 C 0.0175 0.1247 0.86559 0.0
C445 C 0.04689 0.12733 0.83029 0.0
C446 C 0.06007 0.16778 0.81363 0.0
H447 H 0.00561 0.22489 0.70445 0.0
H448 H 0.0513 0.19476 0.72332 0.0
H449 H 0.99929 0.1924 0.75218 0.0
H450 H 0.99906 0.23275 0.87959 0.0
H451 H 0.97875 0.1623 0.91101 0.0
H452 H 0.62396 0.88151 0.58601 0.0
H453 H 0.6855 0.89549 0.63727 0.0
H454 H 0.64124 0.02547 0.66205 0.0
H455 H 0.57958 0.01165 0.61067 0.0
H456 H 0.74077 0.01163 0.66426 0.0
H457 H 0.63604 0.90152 0.76703 0.0
H458 H 0.64751 0.88235 0.7126 0.0
H459 H 0.61415 0.92895 0.72063 0.0
C460 C 0.62806 0.91347 0.60143 0.0
C461 C 0.59601 0.94489 0.59598 0.0
C462 C 0.66323 0.9214 0.63059 0.0
C463 C 0.66691 0.96098 0.65416 0.0
C464 C 0.63843 0.99448 0.64445 0.0
H465 H 0.77445 0.01176 0.91303 0.0
H466 H 0.72635 0.00013 0.84892 0.0
C467 C 0.60323 0.98655 0.61514 0.0
C468 C 0.69558 0.96478 0.6932 0.0
H469 H 0.70423 0.92779 0.79675 0.0
C470 C 0.73311 0.99319 0.6932 0.0
C471 C 0.68461 0.94129 0.73106 0.0
C472 C 0.64325 0.91198 0.73327 0.0
C473 C 0.76065 -0.00186 0.73018 0.0
C474 C 0.75039 0.97358 0.76763 0.0
C475 C 0.71232 0.94589 0.76776 0.0
C476 C 0.77842 0.97673 0.8073 0.0
C477 C 0.79987 0.03027 0.7292 0.0
C478 C 0.82289 0.96529 0.80557 0.0
C479 C 0.85038 0.97192 0.84199 0.0
C480 C 0.83379 0.98981 0.88091 0.0
C481 C 0.78837 -0.0017 0.88345 0.0
C482 C 0.76089 0.99182 0.84685 0.0
H483 H 0.79648 0.05422 0.70286 0.0
H484 H 0.80388 0.04831 0.76084 0.0
H485 H 0.83056 0.01237 0.72311 0.0
H486 H 0.83662 0.95228 0.7757 0.0
H487 H 0.88497 0.96439 0.83902 0.0
H488 H 0.42459 0.28417 0.00831 0.0
H489 H 0.3733 0.23365 0.96888 0.0
H490 H 0.36919 0.32232 0.86206 0.0
H491 H 0.4174 0.37441 0.90357 0.0
H492 H 0.29318 0.31767 0.90126 0.0
H493 H 0.34333 0.1498 0.87056 0.0
H494 H 0.35814 0.16477 0.92561 0.0
H495 H 0.38393 0.19364 0.88132 0.0
C496 C 0.41421 0.29193 0.9756 0.0
C497 C 0.42394 0.33326 0.95888 0.0
C498 C 0.38522 0.26285 0.95279 0.0
C499 C 0.36689 0.27463 0.91265 0.0
C500 C 0.38247 0.31311 0.89321 0.0
H501 H 0.11428 0.12555 0.88495 0.0
H502 H 0.17638 0.16868 0.85464 0.0
C503 C 0.41003 0.3427 0.9167 0.0
C504 C 0.32339 0.25488 0.89884 0.0
H505 H 0.26526 0.15743 0.89631 0.0
C506 C 0.28727 0.28261 0.89852 0.0
C507 C 0.3154 0.2093 0.89492 0.0
C508 C 0.35251 0.17789 0.8927 0.0
C509 C 0.24355 0.26575 0.90002 0.0
C510 C 0.23601 0.22027 0.90105 0.0
C511 C 0.27152 0.19248 0.89591 0.0
C512 C 0.19354 0.20119 0.91601 0.0
C513 C 0.20591 0.29649 0.90425 0.0
C514 C 0.18255 0.20592 0.96019 0.0
C515 C 0.14723 0.18133 0.97731 0.0
C516 C 0.12235 0.15207 0.95036 0.0
C517 C 0.13208 0.14911 0.90573 0.0
C518 C 0.16769 0.1733 0.8886 0.0
H519 H 0.21608 0.33008 0.89456 0.0
H520 H 0.17704 0.28455 0.884 0.0
H521 H 0.19501 0.29802 0.93871 0.0
H522 H 0.20299 0.22665 0.98195 0.0
H523 H 0.141 0.18312 0.01201 0.0
H524 H 0.39405 0.69193 0.01357 0.0
H525 H 0.34941 0.75691 0.01691 0.0
H526 H 0.24309 0.68685 0.94759 0.0
H527 H 0.28705 0.62162 0.94433 0.0
H528 H 0.27403 0.78311 0.92166 0.0
H529 H 0.22672 0.7543 0.09439 0.0
H530 H 0.28359 0.74886 0.07772 0.0
H531 H 0.24168 0.70998 0.05839 0.0
C532 C 0.36145 0.69047 0.99839 0.0
C533 C 0.34403 0.6514 0.97887 0.0
C534 C 0.33598 0.72759 0.00055 0.0
C535 C 0.29291 0.72637 0.9829 0.0
C536 C 0.27625 0.68824 0.96157 0.0
H537 H 0.05098 0.85012 0.98549 0.0
H538 H 0.1149 0.80611 0.00099 0.0
C539 C 0.30147 0.65104 0.9597 0.0
C540 C 0.26419 0.76408 0.98799 0.0
H541 H 0.19154 0.81051 0.05846 0.0
C542 C 0.25655 0.78975 0.95173 0.0
C543 C 0.24139 0.77223 0.02727 0.0
C544 C 0.24842 0.745 0.06685 0.0
C545 C 0.22545 0.82259 0.95324 0.0
C546 C 0.20159 0.82996 0.99219 0.0
C547 C 0.21024 0.80508 0.02888 0.0
C548 C 0.16359 0.85913 0.99321 0.0
C549 C 0.21662 0.84756 0.91246 0.0
C550 C 0.16966 0.90409 0.98641 0.0
C551 C 0.13302 0.92931 0.97788 0.0
C552 C 0.0902 0.90967 0.97591 0.0
C553 C 0.08388 0.86576 0.98684 0.0
C554 C 0.12033 0.84066 0.99557 0.0
H555 H 0.23278 0.83321 0.88336 0.0
H556 H 0.1804 0.84834 0.90604 0.0
H557 H 0.22961 0.88171 0.91697 0.0
H558 H 0.20279 0.91903 0.98502 0.0
H559 H 0.13854 0.96311 0.96937 0.0
H560 H 0.56539 0.37263 0.02905 0.0
H561 H 0.63272 0.33737 0.05294 0.0
H562 H 0.70872 0.40777 0.95659 0.0
H563 H 0.6416 0.44285 0.93306 0.0
H564 H 0.67281 0.28374 0.00226 0.0
H565 H 0.79817 0.41056 0.05385 0.0
H566 H 0.73979 0.42118 0.04962 0.0
H567 H 0.77461 0.42328 0.00209 0.0
C568 C 0.59694 0.38205 0.01461 0.0
C569 C 0.59877 0.41097 0.97996 0.0
C570 C 0.63534 0.36171 0.02797 0.0
C571 C 0.67614 0.37039 0.00717 0.0
C572 C 0.67821 0.40146 0.97424 0.0
H573 H 0.85737 0.17658 0.93801 0.0
H574 H 0.80683 0.23682 0.9414 0.0
C575 C 0.63981 0.42148 0.96071 0.0
C576 C 0.71414 0.3418 0.01415 0.0
H577 H 0.82715 0.34234 0.02622 0.0
C578 C 0.70638 0.29666 0.00835 0.0
C579 C 0.75802 0.35831 0.02265 0.0
C580 C 0.76805 0.40597 0.0329 0.0
C581 C 0.7413 0.2679 0.00853 0.0
C582 C 0.78558 0.28475 0.01309 0.0
C583 C 0.79333 0.32958 0.02149 0.0
C584 C 0.82365 0.25582 0.008 0.0
C585 C 0.73027 0.21962 0.00343 0.0
C586 C 0.85264 0.24894 0.04302 0.0
C587 C 0.88256 0.21511 0.04066 0.0
C588 C 0.88338 0.18765 0.00342 0.0
C589 C 0.85722 0.19721 0.96712 0.0
C590 C 0.82808 0.23136 0.96919 0.0
H591 H 0.69574 0.21136 0.01386 0.0
H592 H 0.73303 0.20973 0.96858 0.0
H593 H 0.75339 0.20026 0.02272 0.0
H594 H 0.85002 0.26769 0.07315 0.0
H595 H 0.90213 0.20811 0.06921 0.0
H596 H 0.90523 0.85472 0.90329 0.0
H597 H 0.84641 0.80934 0.86824 0.0
H598 H 0.74898 0.87413 0.94607 0.0
H599 H 0.80727 0.92058 0.97966 0.0
H600 H 0.80176 0.75287 0.91134 0.0
H601 H 0.679 0.85586 0.8372 0.0
H602 H 0.7342 0.87689 0.85155 0.0
H603 H 0.69004 0.87721 0.89108 0.0
C604 C 0.87125 0.86003 0.91212 0.0
C605 C 0.86109 0.89062 0.94488 0.0
C606 C 0.83756 0.83423 0.89183 0.0
C607 C 0.79313 0.83843 0.90418 0.0
C608 C 0.78275 0.87087 0.93501 0.0
H609 H 0.61082 0.67107 0.00377 0.0
H610 H 0.66519 0.72593 0.97801 0.0
C611 C 0.81634 0.89699 0.95484 0.0
C612 C 0.75906 0.80403 0.89212 0.0
H613 H 0.64737 0.78973 0.87461 0.0
C614 C 0.76842 0.76079 0.90165 0.0
C615 C 0.71558 0.81385 0.8788 0.0
C616 C 0.70442 0.85849 0.86362 0.0
C617 C 0.73453 0.72839 0.90312 0.0
C618 C 0.6903 0.73976 0.89563 0.0
C619 C 0.68139 0.78156 0.88135 0.0
C620 C 0.65332 0.71074 0.90962 0.0
C621 C 0.74567 0.68294 0.91606 0.0
C622 C 0.62831 0.68496 0.87948 0.0
C623 C 0.59704 0.65388 0.89427 0.0
C624 C 0.59038 0.64873 0.93921 0.0
C625 C 0.61462 0.67549 0.96907 0.0
C626 C 0.64576 0.70641 0.95439 0.0
H627 H 0.78122 0.6766 0.91022 0.0
H628 H 0.73904 0.67908 0.95134 0.0
H629 H 0.72472 0.65808 0.89775 0.0
H630 H 0.63423 0.68774 0.84486 0.0
H631 H 0.57927 0.63275 0.87086 0.0
H632 H 0.54377 0.50875 0.8834 0.0
H633 H 0.59296 0.48006 0.82778 0.0
H634 H 0.70101 0.5621 0.88064 0.0
H635 H 0.65301 0.58677 0.93904 0.0
H636 H 0.62643 0.52268 0.76633 0.0
H637 H 0.76793 0.45776 0.85446 0.0
H638 H 0.71718 0.47082 0.88177 0.0
H639 H 0.76013 0.51246 0.87333 0.0
C640 C 0.57846 0.5191 0.88421 0.0
C641 C 0.5944 0.55024 0.9152 0.0
C642 C 0.6065 0.50317 0.85205 0.0
C643 C 0.65095 0.51866 0.84989 0.0
C644 C 0.66729 0.54866 0.88198 0.0
H645 H 0.793 0.56286 0.6131 0.0
H646 H 0.74328 0.5623 0.67554 0.0
C647 C 0.63952 0.56355 0.91489 0.0
C648 C 0.67854 0.50767 0.81147 0.0
H649 H 0.78366 0.4834 0.7813 0.0
C650 C 0.66056 0.51321 0.7697 0.0
C651 C 0.72279 0.49434 0.81541 0.0
C652 C 0.74283 0.48301 0.8587 0.0
C653 C 0.68609 0.50788 0.73205 0.0
C654 C 0.73168 0.49903 0.73625 0.0
C655 C 0.74905 0.49123 0.77788 0.0
C656 C 0.76215 0.49922 0.69822 0.0
C657 C 0.66349 0.51151 0.6883 0.0
C658 C 0.79116 0.46508 0.69116 0.0
C659 C 0.82083 0.46616 0.65627 0.0
C660 C 0.82149 0.50104 0.62733 0.0
C661 C 0.79256 0.53515 0.63438 0.0
C662 C 0.76381 0.53464 0.66991 0.0
H663 H 0.62781 0.50107 0.69006 0.0
H664 H 0.66508 0.54609 0.67842 0.0
H665 H 0.67939 0.49138 0.66278 0.0
H666 H 0.79087 0.43753 0.71263 0.0
H667 H 0.84295 0.43951 0.65167 0.0
H668 H 0.13759 0.49804 0.62016 0.0
H669 H 0.20211 0.46586 0.65159 0.0
H670 H 0.13568 0.33845 0.64253 0.0
H671 H 0.0695 0.372 0.61363 0.0
H672 H 0.15694 0.34856 0.71857 0.0
H673 H 0.30827 0.40093 0.63695 0.0
H674 H 0.27857 0.44994 0.64185 0.0
H675 H 0.25513 0.40412 0.61001 0.0
C676 C 0.1378 0.46289 0.62271 0.0
C677 C 0.09913 0.43734 0.61449 0.0
C678 C 0.17495 0.4442 0.64051 0.0
C679 C 0.17433 0.39938 0.64948 0.0
C680 C 0.13716 0.37304 0.63616 0.0
H681 H 0.38729 0.40543 0.83956 0.0
H682 H 0.34655 0.37299 0.77787 0.0
C683 C 0.09953 0.39203 0.61917 0.0
C684 C 0.2071 0.38345 0.68133 0.0
H685 H 0.31052 0.41253 0.71958 0.0
C686 C 0.19091 0.36157 0.71817 0.0
C687 C 0.25239 0.39743 0.68058 0.0
C688 C 0.27448 0.41386 0.6398 0.0
C689 C 0.21668 0.3595 0.75624 0.0
C690 C 0.25886 0.38145 0.75809 0.0
C691 C 0.27732 0.3975 0.7193 0.0
C692 C 0.28216 0.39258 0.80007 0.0
C693 C 0.19811 0.33462 0.79426 0.0
C694 C 0.25965 0.41336 0.83428 0.0
C695 C 0.28292 0.43092 0.87065 0.0
C696 C 0.32938 0.42918 0.87299 0.0
C697 C 0.35157 0.4073 0.83929 0.0
C698 C 0.32823 0.38873 0.80365 0.0
H699 H 0.17533 0.30723 0.78299 0.0
H700 H 0.22519 0.32135 0.81404 0.0
H701 H 0.17861 0.35653 0.81519 0.0
H702 H 0.22439 0.4184 0.83186 0.0
H703 H 0.26474 0.44789 0.8957 0.0
H704 H 0.17574 0.58492 0.4414 0.0
H705 H 0.22 0.55766 0.38078 0.0
H706 H 0.10873 0.47483 0.33722 0.0
H707 H 0.06493 0.50127 0.39852 0.0
H708 H 0.19326 0.43791 0.32357 0.0
H709 H 0.1866 0.60579 0.26052 0.0
H710 H 0.20851 0.60265 0.31486 0.0
H711 H 0.15144 0.58634 0.30394 0.0
C712 C 0.1609 0.56051 0.41919 0.0
C713 C 0.11592 0.54728 0.42286 0.0
C714 C 0.18622 0.54493 0.38462 0.0
C715 C 0.16702 0.5156 0.3535 0.0
C716 C 0.12386 0.49829 0.36027 0.0
H717 H 0.25426 0.50477 0.08405 0.0
H718 H 0.2099 0.50884 0.15041 0.0
C719 C 0.09869 0.5137 0.39509 0.0
C720 C 0.19015 0.50658 0.31192 0.0
H721 H 0.23029 0.55675 0.22128 0.0
C722 C 0.2014 0.46379 0.30112 0.0
C723 C 0.19966 0.54024 0.28219 0.0
C724 C 0.18562 0.5863 0.2906 0.0
C725 C 0.22302 0.454 0.26176 0.0
C726 C 0.23422 0.48809 0.23289 0.0
C727 C 0.22202 0.53065 0.24344 0.0
C728 C 0.25922 0.48095 0.19187 0.0
C729 C 0.23291 0.40719 0.25119 0.0
C730 C 0.30161 0.46366 0.19291 0.0
C731 C 0.32691 0.46102 0.15495 0.0
C732 C 0.31064 0.47618 0.11518 0.0
C733 C 0.26785 0.49281 0.11406 0.0
C734 C 0.24243 0.49514 0.152 0.0
H735 H 0.21047 0.38423 0.26898 0.0
H736 H 0.22957 0.39989 0.21569 0.0
H737 H 0.26752 0.40118 0.26128 0.0
H738 H 0.31588 0.45362 0.22338 0.0
H739 H 0.3599 0.44856 0.1572 0.0
H740 H 0.60351 0.38233 0.11518 0.0
H741 H 0.67158 0.39648 0.15605 0.0
H742 H 0.66111 0.53462 0.137 0.0
H743 H 0.59054 0.52009 0.09801 0.0
H744 H 0.74982 0.43222 0.15591 0.0
H745 H 0.64421 0.53066 0.26556 0.0
H746 H 0.62166 0.50071 0.21892 0.0
H747 H 0.65214 0.55174 0.21202 0.0
C748 C 0.61572 0.41577 0.11944 0.0
C749 C 0.59024 0.45044 0.10627 0.0
C750 C 0.65513 0.42383 0.14234 0.0
C751 C 0.67024 0.4668 0.15163 0.0
C752 C 0.6488 0.50126 0.13201 0.0
H753 H 0.8941 0.49102 0.33399 0.0
H754 H 0.84929 0.48814 0.26809 0.0
C755 C 0.60866 0.49303 0.10951 0.0
C756 C 0.70355 0.47441 0.18692 0.0
H757 H 0.71483 0.51549 0.29079 0.0
C758 C 0.74245 0.45078 0.18531 0.0
C759 C 0.69326 0.49784 0.22563 0.0
C760 C 0.65045 0.52139 0.231 0.0
C761 C 0.77014 0.44798 0.22194 0.0
C762 C 0.76002 0.47168 0.26051 0.0
C763 C 0.72234 0.49707 0.26137 0.0
C764 C 0.7877 0.4707 0.30057 0.0
C765 C 0.80828 0.41761 0.21944 0.0
C766 C 0.76794 0.46305 0.34132 0.0
C767 C 0.79342 0.46627 0.37961 0.0
C768 C 0.83918 0.47618 0.37753 0.0
C769 C 0.85904 0.48231 0.33663 0.0
C770 C 0.83345 0.48045 0.2987 0.0
H771 H 0.80203 0.39135 0.19439 0.0
H772 H 0.83887 0.4363 0.20994 0.0
H773 H 0.81432 0.40219 0.2512 0.0
H774 H 0.73259 0.45558 0.34358 0.0
H775 H 0.7773 0.46175 0.41074 0.0
H776 H 0.32253 0.89705 0.47039 0.0
H777 H 0.27224 0.84848 0.42877 0.0
H778 H 0.38284 0.79728 0.3581 0.0
H779 H 0.43416 0.84483 0.4017 0.0
H780 H 0.24846 0.8282 0.34585 0.0
H781 H 0.33786 0.6901 0.41712 0.0
H782 H 0.35187 0.74551 0.4339 0.0
H783 H 0.36725 0.72576 0.38069 0.0
C784 C 0.33634 0.8757 0.44587 0.0
C785 C 0.38241 0.87388 0.44021 0.0
C786 C 0.3074 0.84825 0.42159 0.0
C787 C 0.32377 0.81847 0.39092 0.0
C788 C 0.36955 0.81914 0.38243 0.0
H789 H 0.1006 0.62297 0.36539 0.0
H790 H 0.15866 0.67006 0.33182 0.0
C791 C 0.3988 0.84629 0.40737 0.0
C792 C 0.29291 0.78313 0.37415 0.0
H793 H 0.26329 0.67859 0.40015 0.0
C794 C 0.25216 0.79493 0.35612 0.0
C795 C 0.29802 0.7395 0.3869 0.0
C796 C 0.34096 0.72421 0.40581 0.0
C797 C 0.21473 0.76621 0.3567 0.0
C798 C 0.21872 0.72492 0.37513 0.0
C799 C 0.26068 0.71082 0.38676 0.0
C800 C 0.17993 0.70072 0.39275 0.0
C801 C 0.17025 0.78163 0.34221 0.0
C802 C 0.17264 0.70336 0.43782 0.0
C803 C 0.13993 0.6769 0.45682 0.0
C804 C 0.11384 0.6476 0.43104 0.0
C805 C 0.11997 0.64603 0.38563 0.0
C806 C 0.15299 0.67255 0.36653 0.0
H807 H 0.17347 0.81265 0.32431 0.0
H808 H 0.15316 0.75643 0.32088 0.0
H809 H 0.14904 0.78678 0.37118 0.0
H810 H 0.19345 0.72486 0.45851 0.0
H811 H 0.13613 0.67787 0.4919 0.0
H812 H 0.07323 0.3538 0.52834 0.0
H813 H 0.14424 0.32005 0.54072 0.0
H814 H 0.20566 0.40424 0.44547 0.0
H815 H 0.13521 0.43997 0.43582 0.0
H816 H 0.17904 0.27353 0.48275 0.0
H817 H 0.30598 0.40091 0.52917 0.0
H818 H 0.2475 0.41143 0.52838 0.0
H819 H 0.27942 0.41397 0.47897 0.0
C820 C 0.10251 0.36624 0.51161 0.0
C821 C 0.09926 0.39972 0.48167 0.0
C822 C 0.14299 0.3468 0.51836 0.0
C823 C 0.18065 0.35951 0.49413 0.0
C824 C 0.1777 0.39447 0.4655 0.0
H825 H 0.36052 0.15775 0.42579 0.0
H826 H 0.3125 0.21984 0.4214 0.0
C827 C 0.13737 0.41484 0.4598 0.0
C828 C 0.22017 0.33184 0.49398 0.0
H829 H 0.3337 0.33334 0.49964 0.0
C830 C 0.21276 0.28677 0.48702 0.0
C831 C 0.26435 0.34877 0.49961 0.0
C832 C 0.27472 0.39637 0.50991 0.0
C833 C 0.24783 0.25827 0.48534 0.0
C834 C 0.29216 0.27536 0.48846 0.0
C835 C 0.29982 0.32035 0.49619 0.0
C836 C 0.33034 0.2462 0.48546 0.0
C837 C 0.23663 0.20989 0.48137 0.0
C838 C 0.35984 0.24309 0.52082 0.0
C839 C 0.38891 0.20863 0.52239 0.0
C840 C 0.38822 0.17664 0.48894 0.0
C841 C 0.3618 0.18217 0.45183 0.0
C842 C 0.33391 0.21729 0.44963 0.0
H843 H 0.20231 0.20183 0.49253 0.0
H844 H 0.2387 0.19926 0.44668 0.0
H845 H 0.25997 0.19089 0.50076 0.0
H846 H 0.358 0.26523 0.54868 0.0
H847 H 0.40865 0.20471 0.55157 0.0
H848 H 0.81158 0.63906 0.45494 0.0
H849 H 0.76838 0.7034 0.44795 0.0
H850 H 0.87595 0.78311 0.50445 0.0
H851 H 0.91991 0.71772 0.51251 0.0
H852 H 0.79288 0.7997 0.54124 0.0
H853 H 0.78098 0.80096 0.36181 0.0
H854 H 0.76558 0.74807 0.38172 0.0
H855 H 0.82151 0.76994 0.38994 0.0
C856 C 0.82657 0.67021 0.46556 0.0
C857 C 0.86935 0.67311 0.48435 0.0
C858 C 0.80176 0.70714 0.46124 0.0
C859 C 0.81907 0.74821 0.47507 0.0
C860 C 0.86207 0.7517 0.49329 0.0
H861 H 0.63849 0.94891 0.4014 0.0
H862 H 0.70865 0.91422 0.41544 0.0
C863 C 0.88721 0.71441 0.49764 0.0
C864 C 0.79056 0.78641 0.47201 0.0
H865 H 0.7213 0.83439 0.40095 0.0
C866 C 0.7779 0.80811 0.51047 0.0
C867 C 0.77153 0.79794 0.43185 0.0
C868 C 0.786 0.77828 0.38898 0.0
C869 C 0.74457 0.83896 0.5101 0.0
C870 C 0.72266 0.84744 0.47036 0.0
C871 C 0.73747 0.8277 0.43163 0.0
C872 C 0.68289 0.87463 0.46792 0.0
C873 C 0.73299 0.86172 0.55233 0.0
C874 C 0.64511 0.86503 0.49332 0.0
C875 C 0.60553 0.88637 0.48632 0.0
C876 C 0.60292 0.91682 0.45318 0.0
C877 C 0.64054 0.92674 0.42816 0.0
C878 C 0.68036 0.90648 0.43589 0.0
H879 H 0.76208 0.86441 0.57481 0.0
H880 H 0.72109 0.89491 0.54677 0.0
H881 H 0.70638 0.84234 0.56878 0.0
H882 H 0.64538 0.83936 0.51692 0.0
H883 H 0.57624 0.8769 0.50463 0.0
H884 H 0.67102 0.06286 0.57086 0.0
H885 H 0.74687 0.09586 0.57742 0.0
H886 H 0.7184 0.18139 0.47177 0.0
H887 H 0.64373 0.14728 0.46459 0.0
H888 H 0.80047 0.14764 0.46399 0.0
H889 H 0.77576 0.21418 0.63232 0.0
H890 H 0.76893 0.15611 0.62501 0.0
H891 H 0.73027 0.19104 0.59986 0.0
C892 C 0.68139 0.08887 0.54944 0.0
C893 C 0.65221 0.1031 0.51749 0.0
C894 C 0.72441 0.10761 0.55306 0.0
C895 C 0.7381 0.14135 0.5253 0.0
C896 C 0.70864 0.15528 0.49335 0.0
H897 H 0.88733 0.36232 0.48774 0.0
H898 H 0.84957 0.29118 0.47833 0.0
C899 C 0.66606 0.13623 0.48944 0.0
C900 C 0.78218 0.16406 0.53001 0.0
H901 H 0.84012 0.23696 0.59618 0.0
C902 C 0.80965 0.16655 0.49319 0.0
C903 C 0.79432 0.1883 0.5683 0.0
C904 C 0.76577 0.18767 0.60859 0.0
C905 C 0.84716 0.19509 0.49262 0.0
C906 C 0.85724 0.22168 0.52974 0.0
C907 C 0.83214 0.21641 0.56776 0.0
C908 C 0.88803 0.26022 0.52785 0.0
C909 C 0.87458 0.19806 0.45176 0.0
C910 C 0.92294 0.26612 0.5581 0.0
C911 C 0.94487 0.30687 0.56338 0.0
C912 C 0.93166 0.34242 0.53894 0.0
C913 C 0.89864 0.33559 0.50672 0.0
C914 C 0.8771 0.29478 0.50118 0.0
H915 H 0.87191 0.16716 0.43221 0.0
H916 H 0.86225 0.22445 0.43132 0.0
H917 H 0.91009 0.20579 0.45966 0.0
H918 H 0.93152 0.23988 0.57923 0.0
H919 H 0.97039 0.31109 0.58832 0.0
H920 H 0.57989 0.38636 0.83693 0.0
H921 H 0.57971 0.31378 0.80148 0.0
H922 H 0.54219 0.25512 0.92302 0.0
H923 H 0.54063 0.32751 0.95765 0.0
H924 H 0.61495 0.22952 0.81362 0.0
H925 H 0.43375 0.23718 0.83998 0.0
H926 H 0.47191 0.2817 0.85408 0.0
H927 H 0.46498 0.23656 0.89015 0.0
C928 C 0.57301 0.35772 0.85612 0.0
C929 C 0.56003 0.36217 0.89971 0.0
C930 C 0.5731 0.31641 0.83608 0.0
C931 C 0.56034 0.27926 0.85959 0.0
C932 C 0.55192 0.28344 0.90434 0.0
H933 H 0.52975 0.03519 0.70054 0.0
H934 H 0.54891 0.08063 0.76541 0.0
C935 C 0.55142 0.3247 0.92418 0.0
C936 C 0.54829 0.23802 0.83585 0.0
H937 H 0.45817 0.17384 0.80445 0.0
C938 C 0.58085 0.21683 0.81192 0.0
C939 C 0.50354 0.22227 0.83326 0.0
C940 C 0.46646 0.24577 0.8554 0.0
C941 C 0.56954 0.18107 0.78406 0.0
C942 C 0.52464 0.16548 0.78129 0.0
C943 C 0.4926 0.18547 0.80702 0.0
C944 C 0.50876 0.13416 0.74658 0.0
C945 C 0.6052 0.16228 0.7558 0.0
C946 C 0.47759 0.14789 0.7162 0.0
C947 C 0.46593 0.12182 0.67999 0.0
C948 C 0.48543 0.0815 0.67308 0.0
C949 C 0.51424 0.06618 0.70503 0.0
C950 C 0.52571 0.09235 0.74173 0.0
H951 H 0.63622 0.18314 0.75635 0.0
H952 H 0.61333 0.12971 0.7678 0.0
H953 H 0.59353 0.15825 0.72149 0.0
H954 H 0.46379 0.17985 0.71935 0.0
H955 H 0.44327 0.13435 0.6562 0.0
H956 H 0.53374 0.80751 0.57212 0.0
H957 H 0.53753 0.75248 0.62893 0.0
H958 H 0.5523 0.85492 0.72714 0.0
H959 H 0.54703 0.90963 0.67042 0.0
H960 H 0.59834 0.73498 0.69949 0.0
H961 H 0.43375 0.79025 0.75543 0.0
H962 H 0.45756 0.80669 0.70428 0.0
H963 H 0.47812 0.83112 0.75456 0.0
C964 C 0.5388 0.81788 0.60581 0.0
C965 C 0.54031 0.86229 0.61729 0.0
C966 C 0.54112 0.78673 0.63808 0.0
C967 C 0.54475 0.79982 0.68213 0.0
C968 C 0.54915 0.84431 0.69332 0.0
H969 H 0.47305 0.62734 0.89671 0.0
H970 H 0.50143 0.69178 0.85838 0.0
C971 C 0.54651 0.8754 0.66108 0.0
C972 C 0.53831 0.76707 0.71616 0.0
H973 H 0.46181 0.72956 0.78921 0.0
C974 C 0.56884 0.73402 0.71959 0.0
C975 C 0.49977 0.76614 0.74231 0.0
C976 C 0.46517 0.80019 0.73894 0.0
C977 C 0.56108 0.69911 0.74764 0.0
C978 C 0.52147 0.69713 0.77213 0.0
C979 C 0.49214 0.73132 0.77034 0.0
C980 C 0.50727 0.65795 0.79616 0.0
C981 C 0.59486 0.66425 0.74997 0.0
C982 C 0.5004 0.61802 0.77358 0.0
C983 C 0.4838 0.58147 0.79517 0.0
C984 C 0.47383 0.58428 0.83973 0.0
C985 C 0.48066 0.62431 0.86236 0.0
C986 C 0.49685 0.66104 0.84058 0.0
H987 H 0.62887 0.67797 0.7438 0.0
H988 H 0.59459 0.64835 0.78212 0.0
H989 H 0.58707 0.63892 0.72439 0.0
H990 H 0.50706 0.61532 0.73899 0.0
H991 H 0.47897 0.55098 0.77698 0.0
H992 H 0.56961 0.57623 0.15113 0.0
H993 H 0.58377 0.62273 0.21588 0.0
H994 H 0.45324 0.6742 0.20273 0.0
H995 H 0.43814 0.62631 0.13994 0.0
H996 H 0.59157 0.70568 0.21731 0.0
H997 H 0.45598 0.66461 0.33007 0.0
H998 H 0.46738 0.63028 0.28333 0.0
H999 H 0.4322 0.67618 0.27826 0.0
C1000 C 0.54346 0.59646 0.16293 0.0
C1001 C 0.50275 0.59755 0.14044 0.0
C1002 C 0.55164 0.62317 0.19987 0.0
C1003 C 0.51944 0.65179 0.21465 0.0
C1004 C 0.47817 0.65156 0.19307 0.0
H1005 H 0.55751 0.91192 0.31478 0.0
H1006 H 0.55809 0.84316 0.27259 0.0
C1007 C 0.46966 0.62426 0.1568 0.0
C1008 C 0.53048 0.68563 0.24882 0.0
H1009 H 0.48586 0.73976 0.33516 0.0
C1010 C 0.56893 0.71249 0.2437 0.0
C1011 C 0.50166 0.69425 0.28394 0.0
C1012 C 0.46234 0.66437 0.29443 0.0
C1013 C 0.57784 0.74912 0.271 0.0
C1014 C 0.54654 0.76026 0.30313 0.0
C1015 C 0.50954 0.73192 0.30997 0.0
C1016 C 0.55014 0.8019 0.32876 0.0
C1017 C 0.62068 0.7754 0.26486 0.0
C1018 C 0.54459 0.80185 0.37417 0.0
C1019 C 0.54254 0.84105 0.39776 0.0
C1020 C 0.54653 0.88101 0.37653 0.0
C1021 C 0.55392 0.88132 0.33153 0.0
C1022 C 0.55499 0.84206 0.30767 0.0
H1023 H 0.64719 0.75447 0.25226 0.0
H1024 H 0.6154 0.80084 0.24044 0.0
H1025 H 0.63251 0.79148 0.29581 0.0
H1026 H 0.54061 0.77143 0.39123 0.0
H1027 H 0.53631 0.84023 0.43244 0.0
H1028 H 0.52701 0.13744 0.42413 0.0
H1029 H 0.55481 0.20745 0.39649 0.0
H1030 H 0.43268 0.21914 0.3242 0.0
H1031 H 0.40448 0.14986 0.35212 0.0
H1032 H 0.57104 0.22385 0.31395 0.0
H1033 H 0.4505 0.34106 0.37218 0.0
H1034 H 0.4547 0.28798 0.39586 0.0
H1035 H 0.42079 0.29485 0.348 0.0
C1036 C 0.50587 0.15527 0.40277 0.0
C1037 C 0.46362 0.13811 0.39001 0.0
C1038 C 0.52172 0.19534 0.38728 0.0
C1039 C 0.49549 0.21893 0.35903 0.0
C1040 C 0.45295 0.20222 0.3471 0.0
H1041 H 0.51983 0.32614 0.1251 0.0
H1042 H 0.52877 0.28631 0.19259 0.0
C1043 C 0.43704 0.16231 0.36265 0.0
C1044 C 0.51414 0.25783 0.33705 0.0
H1045 H 0.48201 0.35515 0.29922 0.0
C1046 C 0.55241 0.25323 0.31178 0.0
C1047 C 0.49083 0.2968 0.33519 0.0
C1048 C 0.45225 0.30559 0.36476 0.0
C1049 C 0.56463 0.28417 0.28075 0.0
C1050 C 0.53726 0.3198 0.27439 0.0
C1051 C 0.50241 0.32721 0.30342 0.0
C1052 C 0.53866 0.34439 0.2336 0.0
C1053 C 0.60512 0.27701 0.25327 0.0
C1054 C 0.54082 0.39017 0.23433 0.0
C1055 C 0.53498 0.41273 0.19578 0.0
C1056 C 0.5264 0.38967 0.15646 0.0
C1057 C 0.52586 0.34412 0.15547 0.0
C1058 C 0.53169 0.32159 0.19378 0.0
H1059 H 0.63103 0.26087 0.27231 0.0
H1060 H 0.59579 0.25512 0.22514 0.0
H1061 H 0.61942 0.30817 0.24074 0.0
H1062 H 0.54572 0.40829 0.26479 0.0
H1063 H 0.53571 0.44804 0.19669 0.0
loop_
_geom_bond_atom_site_label_1
_geom_bond_atom_site_label_2
_geom_bond_distance
_geom_bond_site_symmetry_2
_ccdc_geom_bond_type
Zn0 O4 1.992 . S
Zn0 N7 2.004 1_545 S
Zn0 O31 2.064 1_545 S
Zn0 O36 1.963 . S
Zn1 O4 1.970 1_564 S
Zn1 N12 2.004 . S
Zn1 O33 1.963 1_554 S
Zn1 O38 2.064 . S
Zn2 O4 1.971 1_554 S
Zn2 N21 2.004 1_655 S
Zn2 O35 2.064 . S
Zn2 O39 1.963 . S
Zn3 O4 1.913 . S
Zn3 O30 1.941 . S
Zn3 O34 1.941 1_556 S
Zn3 O37 1.941 1_556 S
O4 Zn0 1.992 . S
O4 Zn1 1.970 1_546 S
O4 Zn2 1.971 1_556 S
O4 Zn3 1.913 . S
C5 O6 1.237 1_655 S
C5 O39 1.268 . S
O6 C5 1.237 1_455 S
N7 Zn0 2.004 1_565 S
N7 N8 1.383 1_655 S
N7 C10 1.306 1_655 S
N8 N7 1.383 1_455 S
N8 C11 1.302 . S
N9 C10 1.368 . S
N9 C11 1.379 . S
C10 N7 1.306 1_455 S
C10 N9 1.368 . S
C10 C49 1.481 1_455 S
C11 N8 1.302 . S
C11 N9 1.379 . S
N12 Zn1 2.004 . S
N12 C15 1.306 1_655 S
N12 N16 1.383 1_655 S
C13 N14 1.379 . S
C13 N16 1.302 . S
N14 C13 1.379 . S
N14 C15 1.368 . S
C15 N12 1.306 1_455 S
C15 N14 1.368 . S
C15 C18 1.481 1_455 S
N16 N12 1.383 1_455 S
N16 C13 1.302 . S
H17 C18 0.969 . S
C18 C15 1.481 1_655 S
C18 H17 0.969 . S
C18 H19 0.970 . S
C18 H20 0.971 . S
H19 C18 0.970 . S
H20 C18 0.971 . S
N21 Zn2 2.004 1_455 S
N21 C22 1.306 . S
N21 N24 1.384 1_554 S
C22 N21 1.306 . S
C22 N25 1.368 1_554 S
C22 C26 1.481 . S
C23 N24 1.302 . S
C23 N25 1.379 . S
N24 N21 1.384 1_556 S
N24 C23 1.302 . S
N25 C22 1.368 1_556 S
N25 C23 1.379 . S
C26 C22 1.481 . S
C26 H27 0.971 . S
C26 H28 0.970 . S
C26 H29 0.969 . S
H27 C26 0.971 . S
H28 C26 0.970 . S
H29 C26 0.969 . S
O30 Zn3 1.941 . S
O30 C32 1.277 1_545 S
O31 Zn0 2.064 1_565 S
O31 C32 1.233 . S
C32 O30 1.277 1_565 S
C32 O31 1.233 . S
O33 Zn1 1.963 1_556 S
O33 C40 1.268 . S
O34 Zn3 1.941 1_554 S
O34 C42 1.277 1_554 S
O35 Zn2 2.064 . S
O35 C42 1.231 1_554 S
O36 Zn0 1.963 . S
O36 C43 1.268 . S
O37 Zn3 1.941 1_554 S
O37 C45 1.277 1_545 S
O38 Zn1 2.064 . S
O38 C45 1.233 . S
O39 Zn2 1.963 . S
O39 C5 1.268 . S
C40 O33 1.268 . S
C40 O41 1.237 1_556 S
O41 C40 1.237 1_554 S
C42 O34 1.277 1_556 S
C42 O35 1.231 1_556 S
C43 O36 1.268 . S
C43 O44 1.237 . S
O44 C43 1.237 . S
C45 O37 1.277 1_565 S
C45 O38 1.233 . S
H46 C49 0.970 . S
H47 C49 0.971 . S
H48 C49 0.969 1_455 S
C49 C10 1.481 1_655 S
C49 H46 0.970 . S
C49 H47 0.971 . S
C49 H48 0.969 1_655 S
Zn50 O54 1.978 . S
Zn50 N57 2.004 . S
Zn50 O81 2.064 . S
Zn50 O86 1.963 . S
Zn51 O54 1.978 . S
Zn51 N62 2.004 . S
Zn51 O83 1.963 . S
Zn51 O88 2.064 . S
Zn52 O54 1.978 . S
Zn52 N71 2.004 1_655 S
Zn52 O85 2.064 . S
Zn52 O89 1.963 . S
Zn53 O54 1.913 . S
Zn53 O80 1.941 . S
Zn53 O84 1.941 . S
Zn53 O87 1.941 . S
O54 Zn50 1.978 . S
O54 Zn51 1.978 . S
O54 Zn52 1.978 . S
O54 Zn53 1.913 . S
C55 O56 1.237 1_655 S
C55 O89 1.268 . S
O56 C55 1.237 1_455 S
N57 Zn50 2.004 . S
N57 N58 1.383 1_655 S
N57 C60 1.306 1_655 S
N58 N57 1.383 1_455 S
N58 C61 1.302 . S
N59 C60 1.368 . S
N59 C61 1.379 . S
C60 N57 1.306 1_455 S
C60 N59 1.368 . S
C60 C99 1.481 1_455 S
C61 N58 1.302 . S
C61 N59 1.379 . S
N62 Zn51 2.004 . S
N62 C65 1.306 1_655 S
N62 N66 1.383 1_655 S
C63 N64 1.379 . S
C63 N66 1.302 . S
N64 C63 1.379 . S
N64 C65 1.368 . S
C65 N62 1.306 1_455 S
C65 N64 1.368 . S
C65 C68 1.481 1_455 S
N66 N62 1.383 1_455 S
N66 C63 1.302 . S
H67 C68 0.969 . S
C68 C65 1.481 1_655 S
C68 H67 0.969 . S
C68 H69 0.970 . S
C68 H70 0.971 . S
H69 C68 0.970 . S
H70 C68 0.971 . S
N71 Zn52 2.004 1_455 S
N71 C72 1.306 . S
N71 N74 1.383 . S
C72 N71 1.306 . S
C72 N75 1.368 . S
C72 C76 1.481 . S
C73 N74 1.302 . S
C73 N75 1.379 . S
N74 N71 1.383 . S
N74 C73 1.302 . S
N75 C72 1.368 . S
N75 C73 1.379 . S
C76 C72 1.481 . S
C76 H77 0.971 . S
C76 H78 0.970 . S
C76 H79 0.969 . S
H77 C76 0.971 . S
H78 C76 0.970 . S
H79 C76 0.969 . S
O80 Zn53 1.941 . S
O80 C82 1.277 . S
O81 Zn50 2.064 . S
O81 C82 1.233 . S
C82 O80 1.277 . S
C82 O81 1.233 . S
O83 Zn51 1.963 . S
O83 C90 1.268 . S
O84 Zn53 1.941 . S
O84 C92 1.277 . S
O85 Zn52 2.064 . S
O85 C92 1.233 . S
O86 Zn50 1.963 . S
O86 C93 1.268 . S
O87 Zn53 1.941 . S
O87 C95 1.277 . S
O88 Zn51 2.064 . S
O88 C95 1.233 . S
O89 Zn52 1.963 . S
O89 C55 1.268 . S
C90 O83 1.268 . S
C90 O91 1.237 . S
O91 C90 1.237 . S
C92 O84 1.277 . S
C92 O85 1.233 . S
C93 O86 1.268 . S
C93 O94 1.237 . S
O94 C93 1.237 . S
C95 O87 1.277 . S
C95 O88 1.233 . S
H96 C99 0.970 . S
H97 C99 0.971 . S
H98 C99 0.969 1_455 S
C99 C60 1.481 1_655 S
C99 H96 0.970 . S
C99 H97 0.971 . S
C99 H98 0.969 1_655 S
Zn100 O104 1.978 . S
Zn100 N107 2.004 1_545 S
Zn100 O131 2.064 1_545 S
Zn100 O136 1.963 . S
Zn101 O104 1.978 1_565 S
Zn101 N112 2.004 . S
Zn101 O133 1.963 . S
Zn101 O138 2.064 . S
Zn102 O104 1.978 . S
Zn102 N121 2.004 . S
Zn102 O135 2.064 . S
Zn102 O139 1.963 . S
Zn103 O104 1.913 . S
Zn103 O130 1.941 . S
Zn103 O134 1.941 . S
Zn103 O137 1.941 . S
O104 Zn100 1.978 . S
O104 Zn101 1.978 1_545 S
O104 Zn102 1.978 . S
O104 Zn103 1.913 . S
C105 O106 1.237 . S
C105 O139 1.268 . S
O106 C105 1.237 . S
N107 Zn100 2.004 1_565 S
N107 N108 1.383 . S
N107 C110 1.306 . S
N108 N107 1.383 . S
N108 C111 1.302 . S
N109 C110 1.368 . S
N109 C111 1.379 . S
C110 N107 1.306 . S
C110 N109 1.368 . S
C110 C149 1.481 . S
C111 N108 1.302 . S
C111 N109 1.379 . S
N112 Zn101 2.004 . S
N112 C115 1.306 . S
N112 N116 1.383 . S
C113 N114 1.379 . S
C113 N116 1.302 . S
N114 C113 1.379 . S
N114 C115 1.368 . S
C115 N112 1.306 . S
C115 N114 1.368 . S
C115 C118 1.481 . S
N116 N112 1.383 . S
N116 C113 1.302 . S
H117 C118 0.969 . S
C118 C115 1.481 . S
C118 H117 0.969 . S
C118 H119 0.970 . S
C118 H120 0.971 . S
H119 C118 0.970 . S
H120 C118 0.971 . S
N121 Zn102 2.004 . S
N121 C122 1.306 . S
N121 N124 1.383 . S
C122 N121 1.306 . S
C122 N125 1.368 . S
C122 C126 1.481 . S
C123 N124 1.302 . S
C123 N125 1.379 . S
N124 N121 1.383 . S
N124 C123 1.302 . S
N125 C122 1.368 . S
N125 C123 1.379 . S
C126 C122 1.481 . S
C126 H127 0.971 . S
C126 H128 0.970 . S
C126 H129 0.969 . S
H127 C126 0.971 . S
H128 C126 0.970 . S
H129 C126 0.969 . S
O130 Zn103 1.941 . S
O130 C132 1.277 1_545 S
O131 Zn100 2.064 1_565 S
O131 C132 1.233 . S
C132 O130 1.277 1_565 S
C132 O131 1.233 . S
O133 Zn101 1.963 . S
O133 C140 1.268 . S
O134 Zn103 1.941 . S
O134 C142 1.277 . S
O135 Zn102 2.064 . S
O135 C142 1.233 . S
O136 Zn100 1.963 . S
O136 C143 1.268 . S
O137 Zn103 1.941 . S
O137 C145 1.277 1_545 S
O138 Zn101 2.064 . S
O138 C145 1.233 . S
O139 Zn102 1.963 . S
O139 C105 1.268 . S
C140 O133 1.268 . S
C140 O141 1.237 . S
O141 C140 1.237 . S
C142 O134 1.277 . S
C142 O135 1.233 . S
C143 O136 1.268 . S
C143 O144 1.237 . S
O144 C143 1.237 . S
C145 O137 1.277 1_565 S
C145 O138 1.233 . S
H146 C149 0.970 . S
H147 C149 0.971 . S
H148 C149 0.969 . S
C149 C110 1.481 . S
C149 H146 0.970 . S
C149 H147 0.971 . S
C149 H148 0.969 . S
Zn150 O154 1.992 . S
Zn150 N157 2.004 . S
Zn150 O181 2.064 . S
Zn150 O186 1.963 . S
Zn151 O154 1.970 1_554 S
Zn151 N162 2.004 . S
Zn151 O183 1.963 1_554 S
Zn151 O188 2.064 . S
Zn152 O154 1.971 1_554 S
Zn152 N171 2.004 . S
Zn152 O185 2.064 . S
Zn152 O189 1.963 . S
Zn153 O154 1.913 . S
Zn153 O180 1.941 . S
Zn153 O184 1.941 1_556 S
Zn153 O187 1.941 1_556 S
O154 Zn150 1.992 . S
O154 Zn151 1.970 1_556 S
O154 Zn152 1.971 1_556 S
O154 Zn153 1.913 . S
C155 O156 1.237 . S
C155 O189 1.268 . S
O156 C155 1.237 . S
N157 Zn150 2.004 . S
N157 N158 1.383 . S
N157 C160 1.306 . S
N158 N157 1.383 . S
N158 C161 1.302 . S
N159 C160 1.368 . S
N159 C161 1.379 . S
C160 N157 1.306 . S
C160 N159 1.368 . S
C160 C199 1.481 . S
C161 N158 1.302 . S
C161 N159 1.379 . S
N162 Zn151 2.004 . S
N162 C165 1.306 . S
N162 N166 1.383 . S
C163 N164 1.379 . S
C163 N166 1.302 . S
N164 C163 1.379 . S
N164 C165 1.368 . S
C165 N162 1.306 . S
C165 N164 1.368 . S
C165 C168 1.481 . S
N166 N162 1.383 . S
N166 C163 1.302 . S
H167 C168 0.969 . S
C168 C165 1.481 . S
C168 H167 0.969 . S
C168 H169 0.970 . S
C168 H170 0.971 . S
H169 C168 0.970 . S
H170 C168 0.971 . S
N171 Zn152 2.004 . S
N171 C172 1.306 . S
N171 N174 1.384 1_554 S
C172 N171 1.306 . S
C172 N175 1.368 1_554 S
C172 C176 1.481 . S
C173 N174 1.302 . S
C173 N175 1.379 . S
N174 N171 1.384 1_556 S
N174 C173 1.302 . S
N175 C172 1.368 1_556 S
N175 C173 1.379 . S
C176 C172 1.481 . S
C176 H177 0.971 . S
C176 H178 0.970 . S
C176 H179 0.969 . S
H177 C176 0.971 . S
H178 C176 0.970 . S
H179 C176 0.969 . S
O180 Zn153 1.941 . S
O180 C182 1.277 . S
O181 Zn150 2.064 . S
O181 C182 1.233 . S
C182 O180 1.277 . S
C182 O181 1.233 . S
O183 Zn151 1.963 1_556 S
O183 C190 1.268 . S
O184 Zn153 1.941 1_554 S
O184 C192 1.277 1_554 S
O185 Zn152 2.064 . S
O185 C192 1.231 1_554 S
O186 Zn150 1.963 . S
O186 C193 1.268 . S
O187 Zn153 1.941 1_554 S
O187 C195 1.277 . S
O188 Zn151 2.064 . S
O188 C195 1.233 . S
O189 Zn152 1.963 . S
O189 C155 1.268 . S
C190 O183 1.268 . S
C190 O191 1.237 1_556 S
O191 C190 1.237 1_554 S
C192 O184 1.277 1_556 S
C192 O185 1.231 1_556 S
C193 O186 1.268 . S
C193 O194 1.237 . S
O194 C193 1.237 . S
C195 O187 1.277 . S
C195 O188 1.233 . S
H196 C199 0.970 . S
H197 C199 0.971 . S
H198 C199 0.969 . S
C199 C160 1.481 . S
C199 H196 0.970 . S
C199 H197 0.971 . S
C199 H198 0.969 . S
H200 C208 0.929 . S
H201 C210 0.930 . S
H202 C212 0.930 . S
H203 C215 0.929 . S
H204 C218 0.930 . S
H205 C220 0.960 . S
H206 C220 0.960 . S
H207 C220 0.960 . S
C208 H200 0.929 . S
C208 C209 1.377 1_455 S
C208 C210 1.384 . S
C209 C208 1.377 1_655 S
C209 C215 1.390 . S
C210 H201 0.930 . S
C210 C208 1.384 . S
C210 C211 1.372 . S
C211 C210 1.372 . S
C211 C212 1.400 1_455 S
C211 C216 1.490 . S
C212 H202 0.930 . S
C212 C211 1.400 1_655 S
C212 C215 1.386 . S
H213 C229 0.930 1_655 S
H214 C230 0.931 1_655 S
C215 H203 0.929 . S
C215 C209 1.390 . S
C215 C212 1.386 . S
C216 C211 1.490 . S
C216 C218 1.395 1_455 S
C216 C219 1.403 . S
H217 C223 0.930 . S
C218 H204 0.930 . S
C218 C216 1.395 1_655 S
C218 C221 1.404 . S
C219 C216 1.403 . S
C219 C220 1.524 . S
C219 C223 1.400 . S
C220 H205 0.960 . S
C220 H206 0.960 . S
C220 H207 0.960 . S
C220 C219 1.524 . S
C221 C218 1.404 . S
C221 C222 1.385 1_655 S
C221 C225 1.503 . S
C222 C221 1.385 1_455 S
C222 C223 1.385 . S
C222 C224 1.478 . S
C223 H217 0.930 . S
C223 C219 1.400 . S
C223 C222 1.385 . S
C224 C222 1.478 . S
C224 C226 1.381 . S
C224 C230 1.383 . S
C225 C221 1.503 . S
C225 H231 0.959 . S
C225 H232 0.961 . S
C225 H233 0.960 1_655 S
C226 C224 1.381 . S
C226 C227 1.394 . S
C226 H234 0.930 . S
C227 C226 1.394 . S
C227 C228 1.383 . S
C227 H235 0.929 . S
C228 C227 1.383 . S
C228 C229 1.377 . S
C229 H213 0.930 1_455 S
C229 C228 1.377 . S
C229 C230 1.379 . S
C230 H214 0.931 1_455 S
C230 C224 1.383 . S
C230 C229 1.379 . S
H231 C225 0.959 . S
H232 C225 0.961 . S
H233 C225 0.960 1_455 S
H234 C226 0.930 . S
H235 C227 0.929 . S
H236 C244 0.929 . S
H237 C246 0.930 . S
H238 C248 0.930 . S
H239 C251 0.929 . S
H240 C254 0.930 . S
H241 C256 0.960 . S
H242 C256 0.960 . S
H243 C256 0.960 1_565 S
C244 H236 0.929 . S
C244 C245 1.377 . S
C244 C246 1.384 . S
C245 C244 1.377 . S
C245 C251 1.390 1_545 S
C246 H237 0.930 . S
C246 C244 1.384 . S
C246 C247 1.372 . S
C247 C246 1.372 . S
C247 C248 1.400 1_545 S
C247 C252 1.490 . S
C248 H238 0.930 . S
C248 C247 1.400 1_565 S
C248 C251 1.386 . S
H249 C265 0.930 . S
H250 C266 0.931 . S
C251 H239 0.929 . S
C251 C245 1.390 1_565 S
C251 C248 1.386 . S
C252 C247 1.490 . S
C252 C254 1.395 . S
C252 C255 1.403 . S
H253 C259 0.930 . S
C254 H240 0.930 . S
C254 C252 1.395 . S
C254 C257 1.403 . S
C255 C252 1.403 . S
C255 C256 1.524 . S
C255 C259 1.400 . S
C256 H241 0.960 . S
C256 H242 0.960 . S
C256 H243 0.960 1_545 S
C256 C255 1.524 . S
C257 C254 1.403 . S
C257 C258 1.392 . S
C257 C261 1.495 . S
C258 C257 1.392 . S
C258 C259 1.385 . S
C258 C260 1.478 . S
C259 H253 0.930 . S
C259 C255 1.400 . S
C259 C258 1.385 . S
C260 C258 1.478 . S
C260 C262 1.381 . S
C260 C266 1.383 1_545 S
C261 C257 1.495 . S
C261 H267 0.959 . S
C261 H268 0.961 . S
C261 H269 0.960 . S
C262 C260 1.381 . S
C262 C263 1.394 . S
C262 H270 0.930 . S
C263 C262 1.394 . S
C263 C264 1.383 . S
C263 H271 0.929 . S
C264 C263 1.383 . S
C264 C265 1.377 1_545 S
C265 H249 0.930 . S
C265 C264 1.377 1_565 S
C265 C266 1.379 . S
C266 H250 0.931 . S
C266 C260 1.383 1_565 S
C266 C265 1.379 . S
H267 C261 0.959 . S
H268 C261 0.961 . S
H269 C261 0.960 . S
H270 C262 0.930 . S
H271 C263 0.929 . S
H272 C280 0.929 . S
H273 C282 0.930 1_655 S
H274 C284 0.930 . S
H275 C287 0.929 . S
H276 C290 0.930 . S
H277 C292 0.960 . S
H278 C292 0.960 . S
H279 C292 0.960 . S
C280 H272 0.929 . S
C280 C281 1.377 . S
C280 C282 1.384 . S
C281 C280 1.377 . S
C281 C287 1.390 . S
C282 H273 0.930 1_455 S
C282 C280 1.384 . S
C282 C283 1.372 . S
C283 C282 1.372 . S
C283 C284 1.400 . S
C283 C288 1.490 . S
C284 H274 0.930 . S
C284 C283 1.400 . S
C284 C287 1.386 . S
H285 C301 0.930 . S
H286 C302 0.931 . S
C287 H275 0.929 . S
C287 C281 1.390 . S
C287 C284 1.386 . S
C288 C283 1.490 . S
C288 C290 1.395 . S
C288 C291 1.403 . S
H289 C295 0.930 . S
C290 H276 0.930 . S
C290 C288 1.395 . S
C290 C293 1.403 . S
C291 C288 1.403 . S
C291 C292 1.524 . S
C291 C295 1.400 . S
C292 H277 0.960 . S
C292 H278 0.960 . S
C292 H279 0.960 . S
C292 C291 1.524 . S
C293 C290 1.403 . S
C293 C294 1.392 . S
C293 C297 1.495 . S
C294 C293 1.392 . S
C294 C295 1.385 . S
C294 C296 1.478 . S
C295 H289 0.930 . S
C295 C291 1.400 . S
C295 C294 1.385 . S
C296 C294 1.478 . S
C296 C298 1.381 1_455 S
C296 C302 1.383 . S
C297 C293 1.495 . S
C297 H303 0.959 . S
C297 H304 0.961 . S
C297 H305 0.960 . S
C298 C296 1.381 1_655 S
C298 C299 1.394 . S
C298 H306 0.930 . S
C299 C298 1.394 . S
C299 C300 1.383 1_655 S
C299 H307 0.929 . S
C300 C299 1.383 1_455 S
C300 C301 1.377 . S
C301 H285 0.930 . S
C301 C300 1.377 . S
C301 C302 1.379 . S
C302 H286 0.931 . S
C302 C296 1.383 . S
C302 C301 1.379 . S
H303 C297 0.959 . S
H304 C297 0.961 . S
H305 C297 0.960 . S
H306 C298 0.930 . S
H307 C299 0.929 . S
H308 C316 0.929 . S
H309 C318 0.930 . S
H310 C320 0.930 . S
H311 C323 0.929 . S
H312 C326 0.930 . S
H313 C328 0.960 . S
H314 C328 0.960 . S
H315 C328 0.960 . S
C316 H308 0.929 . S
C316 C317 1.377 . S
C316 C318 1.384 . S
C317 C316 1.377 . S
C317 C323 1.390 1_565 S
C318 H309 0.930 . S
C318 C316 1.384 . S
C318 C319 1.372 . S
C319 C318 1.372 . S
C319 C320 1.400 1_565 S
C319 C324 1.490 . S
C320 H310 0.930 . S
C320 C319 1.400 1_545 S
C320 C323 1.386 . S
H321 C337 0.930 . S
H322 C338 0.931 . S
C323 H311 0.929 . S
C323 C317 1.390 1_545 S
C323 C320 1.386 . S
C324 C319 1.490 . S
C324 C326 1.395 . S
C324 C327 1.403 1_565 S
H325 C331 0.930 . S
C326 H312 0.930 . S
C326 C324 1.395 . S
C326 C329 1.403 . S
C327 C324 1.403 1_545 S
C327 C328 1.524 . S
C327 C331 1.400 . S
C328 H313 0.960 . S
C328 H314 0.960 . S
C328 H315 0.960 . S
C328 C327 1.524 . S
C329 C326 1.403 . S
C329 C330 1.392 . S
C329 C333 1.495 . S
C330 C329 1.392 . S
C330 C331 1.385 1_565 S
C330 C332 1.478 . S
C331 H325 0.930 . S
C331 C327 1.400 . S
C331 C330 1.385 1_545 S
C332 C330 1.478 . S
C332 C334 1.381 . S
C332 C338 1.383 1_565 S
C333 C329 1.495 . S
C333 H339 0.959 . S
C333 H340 0.961 . S
C333 H341 0.960 . S
C334 C332 1.381 . S
C334 C335 1.394 . S
C334 H342 0.930 . S
C335 C334 1.394 . S
C335 C336 1.383 . S
C335 H343 0.929 . S
C336 C335 1.383 . S
C336 C337 1.377 1_565 S
C337 H321 0.930 . S
C337 C336 1.377 1_545 S
C337 C338 1.379 . S
C338 H322 0.931 . S
C338 C332 1.383 1_545 S
C338 C337 1.379 . S
H339 C333 0.959 . S
H340 C333 0.961 . S
H341 C333 0.960 . S
H342 C334 0.930 . S
H343 C335 0.929 . S
H344 C352 0.929 . S
H345 C354 0.930 . S
H346 C356 0.930 . S
H347 C359 0.929 . S
H348 C362 0.940 . S
H349 C364 0.960 . S
H350 C364 0.960 . S
H351 C364 0.960 . S
C352 H344 0.929 . S
C352 C353 1.377 1_655 S
C352 C354 1.384 . S
C353 C352 1.377 1_455 S
C353 C359 1.390 . S
C354 H345 0.930 . S
C354 C352 1.384 . S
C354 C355 1.372 1_655 S
C355 C354 1.372 1_455 S
C355 C356 1.400 . S
C355 C360 1.490 . S
C356 H346 0.930 . S
C356 C355 1.400 . S
C356 C359 1.386 . S
H357 C373 0.930 . S
H358 C374 0.931 . S
C359 H347 0.929 . S
C359 C353 1.390 . S
C359 C356 1.386 . S
C360 C355 1.490 . S
C360 C362 1.383 1_455 S
C360 C363 1.403 . S
H361 C367 0.930 . S
C362 H348 0.940 . S
C362 C360 1.383 1_655 S
C362 C365 1.406 . S
C363 C360 1.403 . S
C363 C364 1.524 . S
C363 C367 1.400 . S
C364 H349 0.960 . S
C364 H350 0.960 . S
C364 H351 0.960 . S
C364 C363 1.524 . S
C365 C362 1.406 . S
C365 C366 1.392 1_655 S
C365 C369 1.495 . S
C366 C365 1.392 1_455 S
C366 C367 1.385 . S
C366 C368 1.478 . S
C367 H361 0.930 . S
C367 C363 1.400 . S
C367 C366 1.385 . S
C368 C366 1.478 . S
C368 C370 1.381 1_455 S
C368 C374 1.383 . S
C369 C365 1.495 . S
C369 H375 0.959 . S
C369 H376 0.961 . S
C369 H377 0.960 . S
C370 C368 1.381 1_655 S
C370 C371 1.394 . S
C370 H378 0.930 . S
C371 C370 1.394 . S
C371 C372 1.383 . S
C371 H379 0.929 . S
C372 C371 1.383 . S
C372 C373 1.377 1_655 S
C373 H357 0.930 . S
C373 C372 1.377 1_455 S
C373 C374 1.379 . S
C374 H358 0.931 . S
C374 C368 1.383 . S
C374 C373 1.379 . S
H375 C369 0.959 . S
H376 C369 0.961 . S
H377 C369 0.960 . S
H378 C370 0.930 . S
H379 C371 0.929 . S
H380 C388 0.929 . S
H381 C390 0.930 . S
H382 C392 0.930 . S
H383 C395 0.929 . S
H384 C398 0.930 . S
H385 C400 0.960 . S
H386 C400 0.960 . S
H387 C400 0.960 . S
C388 H380 0.929 . S
C388 C389 1.377 1_565 S
C388 C390 1.384 . S
C389 C388 1.377 1_545 S
C389 C395 1.390 . S
C390 H381 0.930 . S
C390 C388 1.384 . S
C390 C391 1.372 1_565 S
C391 C390 1.372 1_545 S
C391 C392 1.400 . S
C391 C396 1.490 . S
C392 H382 0.930 . S
C392 C391 1.400 . S
C392 C395 1.386 . S
H393 C409 0.930 . S
H394 C410 0.931 . S
C395 H383 0.929 . S
C395 C389 1.390 . S
C395 C392 1.386 . S
C396 C391 1.490 . S
C396 C398 1.395 . S
C396 C399 1.403 . S
H397 C403 0.930 . S
C398 H384 0.930 . S
C398 C396 1.395 . S
C398 C401 1.403 . S
C399 C396 1.403 . S
C399 C400 1.524 . S
C399 C403 1.400 . S
C400 H385 0.960 . S
C400 H386 0.960 . S
C400 H387 0.960 . S
C400 C399 1.524 . S
C401 C398 1.403 . S
C401 C402 1.392 . S
C401 C405 1.495 1_545 S
C402 C401 1.392 . S
C402 C403 1.385 . S
C402 C404 1.478 . S
C403 H397 0.930 . S
C403 C399 1.400 . S
C403 C402 1.385 . S
C404 C402 1.478 . S
C404 C406 1.381 1_545 S
C404 C410 1.383 . S
C405 C401 1.495 1_565 S
C405 H411 0.959 . S
C405 H412 0.961 1_565 S
C405 H413 0.960 . S
C406 C404 1.381 1_565 S
C406 C407 1.394 . S
C406 H414 0.930 . S
C407 C406 1.394 . S
C407 C408 1.383 1_565 S
C407 H415 0.929 . S
C408 C407 1.383 1_545 S
C408 C409 1.377 . S
C409 H393 0.930 . S
C409 C408 1.377 . S
C409 C410 1.379 . S
C410 H394 0.931 . S
C410 C404 1.383 . S
C410 C409 1.379 . S
H411 C405 0.959 . S
H412 C405 0.961 1_545 S
H413 C405 0.960 . S
H414 C406 0.930 . S
H415 C407 0.929 . S
H416 C424 0.929 1_655 S
H417 C426 0.930 1_655 S
H418 C428 0.930 . S
H419 C431 0.929 . S
H420 C434 0.930 . S
H421 C436 0.960 . S
H422 C436 0.960 . S
H423 C436 0.960 . S
C424 H416 0.929 1_455 S
C424 C425 1.377 . S
C424 C426 1.384 . S
C425 C424 1.377 . S
C425 C431 1.390 . S
C426 H417 0.930 1_455 S
C426 C424 1.384 . S
C426 C427 1.372 . S
C427 C426 1.372 . S
C427 C428 1.400 . S
C427 C432 1.490 . S
C428 H418 0.930 . S
C428 C427 1.400 . S
C428 C431 1.386 . S
H429 C445 0.930 . S
H430 C446 0.931 . S
C431 H419 0.929 . S
C431 C425 1.390 . S
C431 C428 1.386 . S
C432 C427 1.490 . S
C432 C434 1.395 . S
C432 C435 1.403 . S
H433 C439 0.930 . S
C434 H420 0.930 . S
C434 C432 1.395 . S
C434 C437 1.403 . S
C435 C432 1.403 . S
C435 C436 1.524 . S
C435 C439 1.400 . S
C436 H421 0.960 . S
C436 H422 0.960 . S
C436 H423 0.960 . S
C436 C435 1.524 . S
C437 C434 1.403 . S
C437 C438 1.392 . S
C437 C441 1.495 . S
C438 C437 1.392 . S
C438 C439 1.385 . S
C438 C440 1.478 . S
C439 H433 0.930 . S
C439 C435 1.400 . S
C439 C438 1.385 . S
C440 C438 1.478 . S
C440 C442 1.381 1_455 S
C440 C446 1.383 . S
C441 C437 1.495 . S
C441 H447 0.959 . S
C441 H448 0.961 . S
C441 H449 0.960 1_455 S
C442 C440 1.381 1_655 S
C442 C443 1.394 . S
C442 H450 0.930 . S
C443 C442 1.394 . S
C443 C444 1.383 1_655 S
C443 H451 0.929 . S
C444 C443 1.383 1_455 S
C444 C445 1.377 . S
C445 H429 0.930 . S
C445 C444 1.377 . S
C445 C446 1.379 . S
C446 H430 0.931 . S
C446 C440 1.383 . S
C446 C445 1.379 . S
H447 C441 0.959 . S
H448 C441 0.961 . S
H449 C441 0.960 1_655 S
H450 C442 0.930 . S
H451 C443 0.929 . S
H452 C460 0.929 . S
H453 C462 0.930 . S
H454 C464 0.930 . S
H455 C467 0.929 . S
H456 C470 0.930 . S
H457 C472 0.960 . S
H458 C472 0.960 . S
H459 C472 0.960 . S
C460 H452 0.929 . S
C460 C461 1.377 . S
C460 C462 1.384 . S
C461 C460 1.377 . S
C461 C467 1.390 1_565 S
C462 H453 0.930 . S
C462 C460 1.384 . S
C462 C463 1.372 . S
C463 C462 1.372 . S
C463 C464 1.400 1_565 S
C463 C468 1.490 . S
C464 H454 0.930 . S
C464 C463 1.400 1_545 S
C464 C467 1.386 . S
H465 C481 0.930 . S
H466 C482 0.931 . S
C467 H455 0.929 . S
C467 C461 1.390 1_545 S
C467 C464 1.386 . S
C468 C463 1.490 . S
C468 C470 1.395 1_565 S
C468 C471 1.403 . S
H469 C475 0.930 . S
C470 H456 0.930 . S
C470 C468 1.395 1_545 S
C470 C473 1.403 . S
C471 C468 1.403 . S
C471 C472 1.524 . S
C471 C475 1.400 . S
C472 H457 0.960 . S
C472 H458 0.960 . S
C472 H459 0.960 . S
C472 C471 1.524 . S
C473 C470 1.403 . S
C473 C474 1.392 1_545 S
C473 C477 1.495 . S
C474 C473 1.392 1_565 S
C474 C475 1.385 . S
C474 C476 1.478 . S
C475 H469 0.930 . S
C475 C471 1.400 . S
C475 C474 1.385 . S
C476 C474 1.478 . S
C476 C478 1.381 . S
C476 C482 1.383 1_565 S
C477 C473 1.495 . S
C477 H483 0.959 . S
C477 H484 0.961 . S
C477 H485 0.960 . S
C478 C476 1.381 . S
C478 C479 1.394 . S
C478 H486 0.930 . S
C479 C478 1.394 . S
C479 C480 1.383 . S
C479 H487 0.929 . S
C480 C479 1.383 . S
C480 C481 1.377 1_565 S
C481 H465 0.930 . S
C481 C480 1.377 1_545 S
C481 C482 1.379 . S
C482 H466 0.931 . S
C482 C476 1.383 1_545 S
C482 C481 1.379 . S
H483 C477 0.959 . S
H484 C477 0.961 . S
H485 C477 0.960 . S
H486 C478 0.930 . S
H487 C479 0.929 . S
H488 C496 0.929 . S
H489 C498 0.930 . S
H490 C500 0.930 . S
H491 C503 0.929 . S
H492 C506 0.930 1_554 S
H493 C508 0.960 . S
H494 C508 0.960 . S
H495 C508 0.960 . S
C496 H488 0.929 . S
C496 C497 1.377 1_554 S
C496 C498 1.384 . S
C497 C496 1.377 1_556 S
C497 C503 1.390 . S
C498 H489 0.930 . S
C498 C496 1.384 . S
C498 C499 1.372 1_554 S
C499 C498 1.372 1_556 S
C499 C500 1.400 . S
C499 C504 1.490 . S
C500 H490 0.930 . S
C500 C499 1.400 . S
C500 C503 1.386 . S
H501 C517 0.930 . S
H502 C518 0.931 . S
C503 H491 0.929 . S
C503 C497 1.390 . S
C503 C500 1.386 . S
C504 C499 1.490 . S
C504 C506 1.395 . S
C504 C507 1.403 . S
H505 C511 0.930 . S
C506 H492 0.930 1_556 S
C506 C504 1.395 . S
C506 C509 1.403 . S
C507 C504 1.403 . S
C507 C508 1.524 . S
C507 C511 1.400 . S
C508 H493 0.960 . S
C508 H494 0.960 . S
C508 H495 0.960 . S
C508 C507 1.524 . S
C509 C506 1.403 . S
C509 C510 1.392 . S
C509 C513 1.495 1_556 S
C510 C509 1.392 . S
C510 C511 1.385 . S
C510 C512 1.478 . S
C511 H505 0.930 . S
C511 C507 1.400 . S
C511 C510 1.385 . S
C512 C510 1.478 . S
C512 C514 1.381 1_556 S
C512 C518 1.383 . S
C513 C509 1.495 1_554 S
C513 H519 0.959 . S
C513 H520 0.961 1_554 S
C513 H521 0.960 . S
C514 C512 1.381 1_554 S
C514 C515 1.394 . S
C514 H522 0.930 . S
C515 C514 1.394 . S
C515 C516 1.383 1_554 S
C515 H523 0.929 . S
C516 C515 1.383 1_556 S
C516 C517 1.377 . S
C517 H501 0.930 . S
C517 C516 1.377 . S
C517 C518 1.379 . S
C518 H502 0.931 . S
C518 C512 1.383 . S
C518 C517 1.379 . S
H519 C513 0.959 . S
H520 C513 0.961 1_556 S
H521 C513 0.960 . S
H522 C514 0.930 . S
H523 C515 0.929 . S
H524 C532 0.929 . S
H525 C534 0.930 . S
H526 C536 0.930 . S
H527 C539 0.929 . S
H528 C542 0.930 . S
H529 C544 0.960 . S
H530 C544 0.960 . S
H531 C544 0.960 1_556 S
C532 H524 0.929 . S
C532 C533 1.377 1_554 S
C532 C534 1.384 . S
C533 C532 1.377 1_556 S
C533 C539 1.390 . S
C534 H525 0.930 . S
C534 C532 1.384 . S
C534 C535 1.372 1_554 S
C535 C534 1.372 1_556 S
C535 C536 1.400 . S
C535 C540 1.490 . S
C536 H526 0.930 . S
C536 C535 1.400 . S
C536 C539 1.386 . S
H537 C553 0.930 . S
H538 C554 0.931 . S
C539 H527 0.929 . S
C539 C533 1.390 . S
C539 C536 1.386 . S
C540 C535 1.490 . S
C540 C542 1.395 . S
C540 C543 1.403 . S
H541 C547 0.930 . S
C542 H528 0.930 . S
C542 C540 1.395 . S
C542 C545 1.403 . S
C543 C540 1.403 . S
C543 C544 1.524 1_556 S
C543 C547 1.400 . S
C544 H529 0.960 . S
C544 H530 0.960 . S
C544 H531 0.960 1_554 S
C544 C543 1.524 1_554 S
C545 C542 1.403 . S
C545 C546 1.392 . S
C545 C549 1.495 . S
C546 C545 1.392 . S
C546 C547 1.385 . S
C546 C548 1.478 . S
C547 H541 0.930 . S
C547 C543 1.400 . S
C547 C546 1.385 . S
C548 C546 1.478 . S
C548 C550 1.381 1_556 S
C548 C554 1.383 . S
C549 C545 1.495 . S
C549 H555 0.959 . S
C549 H556 0.961 . S
C549 H557 0.960 . S
C550 C548 1.381 1_554 S
C550 C551 1.394 . S
C550 H558 0.930 . S
C551 C550 1.394 . S
C551 C552 1.383 1_554 S
C551 H559 0.929 . S
C552 C551 1.383 1_556 S
C552 C553 1.377 . S
C553 H537 0.930 . S
C553 C552 1.377 . S
C553 C554 1.379 . S
C554 H538 0.931 . S
C554 C548 1.383 . S
C554 C553 1.379 . S
H555 C549 0.959 . S
H556 C549 0.961 . S
H557 C549 0.960 . S
H558 C550 0.930 . S
H559 C551 0.929 . S
H560 C568 0.929 . S
H561 C570 0.930 . S
H562 C572 0.930 . S
H563 C575 0.929 . S
H564 C578 0.930 . S
H565 C580 0.960 . S
H566 C580 0.960 1_554 S
H567 C580 0.960 . S
C568 H560 0.929 . S
C568 C569 1.377 1_554 S
C568 C570 1.384 . S
C569 C568 1.377 1_556 S
C569 C575 1.390 . S
C570 H561 0.930 . S
C570 C568 1.384 . S
C570 C571 1.372 1_554 S
C571 C570 1.372 1_556 S
C571 C572 1.400 . S
C571 C576 1.490 . S
C572 H562 0.930 . S
C572 C571 1.400 . S
C572 C575 1.386 . S
H573 C589 0.930 . S
H574 C590 0.931 . S
C575 H563 0.929 . S
C575 C569 1.390 . S
C575 C572 1.386 . S
C576 C571 1.490 . S
C576 C578 1.395 . S
C576 C579 1.403 . S
H577 C583 0.930 . S
C578 H564 0.930 . S
C578 C576 1.395 . S
C578 C581 1.403 . S
C579 C576 1.403 . S
C579 C580 1.524 . S
C579 C583 1.400 . S
C580 H565 0.960 . S
C580 H566 0.960 1_556 S
C580 H567 0.960 . S
C580 C579 1.524 . S
C581 C578 1.403 . S
C581 C582 1.392 . S
C581 C585 1.495 . S
C582 C581 1.392 . S
C582 C583 1.385 . S
C582 C584 1.478 . S
C583 H577 0.930 . S
C583 C579 1.400 . S
C583 C582 1.385 . S
C584 C582 1.478 . S
C584 C586 1.381 1_556 S
C584 C590 1.383 . S
C585 C581 1.495 . S
C585 H591 0.959 . S
C585 H592 0.961 . S
C585 H593 0.960 1_556 S
C586 C584 1.381 1_554 S
C586 C587 1.394 . S
C586 H594 0.930 . S
C587 C586 1.394 . S
C587 C588 1.383 1_554 S
C587 H595 0.929 . S
C588 C587 1.383 1_556 S
C588 C589 1.377 . S
C589 H573 0.930 . S
C589 C588 1.377 . S
C589 C590 1.379 . S
C590 H574 0.931 . S
C590 C584 1.383 . S
C590 C589 1.379 . S
H591 C585 0.959 . S
H592 C585 0.961 . S
H593 C585 0.960 1_554 S
H594 C586 0.930 . S
H595 C587 0.929 . S
H596 C604 0.929 . S
H597 C606 0.930 . S
H598 C608 0.930 . S
H599 C611 0.929 . S
H600 C614 0.930 . S
H601 C616 0.960 . S
H602 C616 0.960 . S
H603 C616 0.960 . S
C604 H596 0.929 . S
C604 C605 1.377 . S
C604 C606 1.384 . S
C605 C604 1.377 . S
C605 C611 1.390 1_556 S
C606 H597 0.930 . S
C606 C604 1.384 . S
C606 C607 1.372 . S
C607 C606 1.372 . S
C607 C608 1.400 1_556 S
C607 C612 1.490 . S
C608 H598 0.930 . S
C608 C607 1.400 1_554 S
C608 C611 1.386 . S
H609 C625 0.930 . S
H610 C626 0.931 . S
C611 H599 0.929 . S
C611 C605 1.390 1_554 S
C611 C608 1.386 . S
C612 C607 1.490 . S
C612 C614 1.395 . S
C612 C615 1.403 . S
H613 C619 0.930 . S
C614 H600 0.930 . S
C614 C612 1.395 . S
C614 C617 1.403 . S
C615 C612 1.403 . S
C615 C616 1.524 . S
C615 C619 1.400 . S
C616 H601 0.960 . S
C616 H602 0.960 . S
C616 H603 0.960 . S
C616 C615 1.524 . S
C617 C614 1.403 . S
C617 C618 1.392 . S
C617 C621 1.495 1_556 S
C618 C617 1.392 . S
C618 C619 1.385 . S
C618 C620 1.478 . S
C619 H613 0.930 . S
C619 C615 1.400 . S
C619 C618 1.385 . S
C620 C618 1.478 . S
C620 C622 1.381 . S
C620 C626 1.383 1_556 S
C621 C617 1.495 1_554 S
C621 H627 0.959 . S
C621 H628 0.961 . S
C621 H629 0.960 1_554 S
C622 C620 1.381 . S
C622 C623 1.394 . S
C622 H630 0.930 . S
C623 C622 1.394 . S
C623 C624 1.383 . S
C623 H631 0.929 . S
C624 C623 1.383 . S
C624 C625 1.377 1_556 S
C625 H609 0.930 . S
C625 C624 1.377 1_554 S
C625 C626 1.379 . S
C626 H610 0.931 . S
C626 C620 1.383 1_554 S
C626 C625 1.379 . S
H627 C621 0.959 . S
H628 C621 0.961 . S
H629 C621 0.960 1_556 S
H630 C622 0.930 . S
H631 C623 0.929 . S
H632 C640 0.929 . S
H633 C642 0.930 . S
H634 C644 0.930 . S
H635 C647 0.929 . S
H636 C650 0.930 . S
H637 C652 0.960 . S
H638 C652 0.960 . S
H639 C652 0.960 . S
C640 H632 0.929 . S
C640 C641 1.377 . S
C640 C642 1.384 . S
C641 C640 1.377 . S
C641 C647 1.390 . S
C642 H633 0.930 . S
C642 C640 1.384 . S
C642 C643 1.372 . S
C643 C642 1.372 . S
C643 C644 1.400 . S
C643 C648 1.490 . S
C644 H634 0.930 . S
C644 C643 1.400 . S
C644 C647 1.386 . S
H645 C661 0.930 . S
H646 C662 0.931 . S
C647 H635 0.929 . S
C647 C641 1.390 . S
C647 C644 1.386 . S
C648 C643 1.490 . S
C648 C650 1.395 . S
C648 C651 1.403 . S
H649 C655 0.930 . S
C650 H636 0.930 . S
C650 C648 1.395 . S
C650 C653 1.403 . S
C651 C648 1.403 . S
C651 C652 1.524 . S
C651 C655 1.400 . S
C652 H637 0.960 . S
C652 H638 0.960 . S
C652 H639 0.960 . S
C652 C651 1.524 . S
C653 C650 1.403 . S
C653 C654 1.392 . S
C653 C657 1.495 . S
C654 C653 1.392 . S
C654 C655 1.385 . S
C654 C656 1.478 . S
C655 H649 0.930 . S
C655 C651 1.400 . S
C655 C654 1.385 . S
C656 C654 1.478 . S
C656 C658 1.381 . S
C656 C662 1.383 . S
C657 C653 1.495 . S
C657 H663 0.959 . S
C657 H664 0.961 . S
C657 H665 0.960 . S
C658 C656 1.381 . S
C658 C659 1.394 . S
C658 H666 0.930 . S
C659 C658 1.394 . S
C659 C660 1.383 . S
C659 H667 0.929 . S
C660 C659 1.383 . S
C660 C661 1.377 . S
C661 H645 0.930 . S
C661 C660 1.377 . S
C661 C662 1.379 . S
C662 H646 0.931 . S
C662 C656 1.383 . S
C662 C661 1.379 . S
H663 C657 0.959 . S
H664 C657 0.961 . S
H665 C657 0.960 . S
H666 C658 0.930 . S
H667 C659 0.929 . S
H668 C676 0.929 . S
H669 C678 0.930 . S
H670 C680 0.930 . S
H671 C683 0.929 . S
H672 C686 0.930 . S
H673 C688 0.960 . S
H674 C688 0.960 . S
H675 C688 0.960 . S
C676 H668 0.929 . S
C676 C677 1.377 . S
C676 C678 1.384 . S
C677 C676 1.377 . S
C677 C683 1.390 . S
C678 H669 0.930 . S
C678 C676 1.384 . S
C678 C679 1.372 . S
C679 C678 1.372 . S
C679 C680 1.400 . S
C679 C684 1.490 . S
C680 H670 0.930 . S
C680 C679 1.400 . S
C680 C683 1.386 . S
H681 C697 0.930 . S
H682 C698 0.931 . S
C683 H671 0.929 . S
C683 C677 1.390 . S
C683 C680 1.386 . S
C684 C679 1.490 . S
C684 C686 1.395 . S
C684 C687 1.403 . S
H685 C691 0.930 . S
C686 H672 0.930 . S
C686 C684 1.395 . S
C686 C689 1.403 . S
C687 C684 1.403 . S
C687 C688 1.524 . S
C687 C691 1.400 . S
C688 H673 0.960 . S
C688 H674 0.960 . S
C688 H675 0.960 . S
C688 C687 1.524 . S
C689 C686 1.403 . S
C689 C690 1.392 . S
C689 C693 1.495 . S
C690 C689 1.392 . S
C690 C691 1.385 . S
C690 C692 1.478 . S
C691 H685 0.930 . S
C691 C687 1.400 . S
C691 C690 1.385 . S
C692 C690 1.478 . S
C692 C694 1.381 . S
C692 C698 1.383 . S
C693 C689 1.495 . S
C693 H699 0.959 . S
C693 H700 0.961 . S
C693 H701 0.960 . S
C694 C692 1.381 . S
C694 C695 1.394 . S
C694 H702 0.930 . S
C695 C694 1.394 . S
C695 C696 1.383 . S
C695 H703 0.929 . S
C696 C695 1.383 . S
C696 C697 1.377 . S
C697 H681 0.930 . S
C697 C696 1.377 . S
C697 C698 1.379 . S
C698 H682 0.931 . S
C698 C692 1.383 . S
C698 C697 1.379 . S
H699 C693 0.959 . S
H700 C693 0.961 . S
H701 C693 0.960 . S
H702 C694 0.930 . S
H703 C695 0.929 . S
H704 C712 0.929 . S
H705 C714 0.930 . S
H706 C716 0.930 . S
H707 C719 0.929 . S
H708 C722 0.930 . S
H709 C724 0.960 . S
H710 C724 0.960 . S
H711 C724 0.960 . S
C712 H704 0.929 . S
C712 C713 1.377 . S
C712 C714 1.384 . S
C713 C712 1.377 . S
C713 C719 1.390 . S
C714 H705 0.930 . S
C714 C712 1.384 . S
C714 C715 1.372 . S
C715 C714 1.372 . S
C715 C716 1.400 . S
C715 C720 1.490 . S
C716 H706 0.930 . S
C716 C715 1.400 . S
C716 C719 1.386 . S
H717 C733 0.930 . S
H718 C734 0.931 . S
C719 H707 0.929 . S
C719 C713 1.390 . S
C719 C716 1.386 . S
C720 C715 1.490 . S
C720 C722 1.395 . S
C720 C723 1.403 . S
H721 C727 0.930 . S
C722 H708 0.930 . S
C722 C720 1.395 . S
C722 C725 1.403 . S
C723 C720 1.403 . S
C723 C724 1.524 . S
C723 C727 1.400 . S
C724 H709 0.960 . S
C724 H710 0.960 . S
C724 H711 0.960 . S
C724 C723 1.524 . S
C725 C722 1.403 . S
C725 C726 1.392 . S
C725 C729 1.495 . S
C726 C725 1.392 . S
C726 C727 1.385 . S
C726 C728 1.478 . S
C727 H721 0.930 . S
C727 C723 1.400 . S
C727 C726 1.385 . S
C728 C726 1.478 . S
C728 C730 1.381 . S
C728 C734 1.383 . S
C729 C725 1.495 . S
C729 H735 0.959 . S
C729 H736 0.961 . S
C729 H737 0.960 . S
C730 C728 1.381 . S
C730 C731 1.394 . S
C730 H738 0.930 . S
C731 C730 1.394 . S
C731 C732 1.383 . S
C731 H739 0.929 . S
C732 C731 1.383 . S
C732 C733 1.377 . S
C733 H717 0.930 . S
C733 C732 1.377 . S
C733 C734 1.379 . S
C734 H718 0.931 . S
C734 C728 1.383 . S
C734 C733 1.379 . S
H735 C729 0.959 . S
H736 C729 0.961 . S
H737 C729 0.960 . S
H738 C730 0.930 . S
H739 C731 0.929 . S
H740 C748 0.929 . S
H741 C750 0.930 . S
H742 C752 0.930 . S
H743 C755 0.929 . S
H744 C758 0.930 . S
H745 C760 0.960 . S
H746 C760 0.960 . S
H747 C760 0.960 . S
C748 H740 0.929 . S
C748 C749 1.377 . S
C748 C750 1.384 . S
C749 C748 1.377 . S
C749 C755 1.390 . S
C750 H741 0.930 . S
C750 C748 1.384 . S
C750 C751 1.372 . S
C751 C750 1.372 . S
C751 C752 1.400 . S
C751 C756 1.490 . S
C752 H742 0.930 . S
C752 C751 1.400 . S
C752 C755 1.386 . S
H753 C769 0.930 . S
H754 C770 0.931 . S
C755 H743 0.929 . S
C755 C749 1.390 . S
C755 C752 1.386 . S
C756 C751 1.490 . S
C756 C758 1.395 . S
C756 C759 1.403 . S
H757 C763 0.930 . S
C758 H744 0.930 . S
C758 C756 1.395 . S
C758 C761 1.403 . S
C759 C756 1.403 . S
C759 C760 1.524 . S
C759 C763 1.400 . S
C760 H745 0.960 . S
C760 H746 0.960 . S
C760 H747 0.960 . S
C760 C759 1.524 . S
C761 C758 1.403 . S
C761 C762 1.392 . S
C761 C765 1.495 . S
C762 C761 1.392 . S
C762 C763 1.385 . S
C762 C764 1.478 . S
C763 H757 0.930 . S
C763 C759 1.400 . S
C763 C762 1.385 . S
C764 C762 1.478 . S
C764 C766 1.381 . S
C764 C770 1.383 . S
C765 C761 1.495 . S
C765 H771 0.959 . S
C765 H772 0.961 . S
C765 H773 0.960 . S
C766 C764 1.381 . S
C766 C767 1.394 . S
C766 H774 0.930 . S
C767 C766 1.394 . S
C767 C768 1.383 . S
C767 H775 0.929 . S
C768 C767 1.383 . S
C768 C769 1.377 . S
C769 H753 0.930 . S
C769 C768 1.377 . S
C769 C770 1.379 . S
C770 H754 0.931 . S
C770 C764 1.383 . S
C770 C769 1.379 . S
H771 C765 0.959 . S
H772 C765 0.961 . S
H773 C765 0.960 . S
H774 C766 0.930 . S
H775 C767 0.929 . S
H776 C784 0.929 . S
H777 C786 0.930 . S
H778 C788 0.930 . S
H779 C791 0.929 . S
H780 C794 0.930 . S
H781 C796 0.960 . S
H782 C796 0.960 . S
H783 C796 0.960 . S
C784 H776 0.929 . S
C784 C785 1.377 . S
C784 C786 1.384 . S
C785 C784 1.377 . S
C785 C791 1.390 . S
C786 H777 0.930 . S
C786 C784 1.384 . S
C786 C787 1.372 . S
C787 C786 1.372 . S
C787 C788 1.400 . S
C787 C792 1.490 . S
C788 H778 0.930 . S
C788 C787 1.400 . S
C788 C791 1.386 . S
H789 C805 0.930 . S
H790 C806 0.931 . S
C791 H779 0.929 . S
C791 C785 1.390 . S
C791 C788 1.386 . S
C792 C787 1.490 . S
C792 C794 1.395 . S
C792 C795 1.403 . S
H793 C799 0.930 . S
C794 H780 0.930 . S
C794 C792 1.395 . S
C794 C797 1.403 . S
C795 C792 1.403 . S
C795 C796 1.524 . S
C795 C799 1.400 . S
C796 H781 0.960 . S
C796 H782 0.960 . S
C796 H783 0.960 . S
C796 C795 1.524 . S
C797 C794 1.403 . S
C797 C798 1.392 . S
C797 C801 1.495 . S
C798 C797 1.392 . S
C798 C799 1.385 . S
C798 C800 1.478 . S
C799 H793 0.930 . S
C799 C795 1.400 . S
C799 C798 1.385 . S
C800 C798 1.478 . S
C800 C802 1.381 . S
C800 C806 1.383 . S
C801 C797 1.495 . S
C801 H807 0.959 . S
C801 H808 0.961 . S
C801 H809 0.960 . S
C802 C800 1.381 . S
C802 C803 1.394 . S
C802 H810 0.930 . S
C803 C802 1.394 . S
C803 C804 1.383 . S
C803 H811 0.929 . S
C804 C803 1.383 . S
C804 C805 1.377 . S
C805 H789 0.930 . S
C805 C804 1.377 . S
C805 C806 1.379 . S
C806 H790 0.931 . S
C806 C800 1.383 . S
C806 C805 1.379 . S
H807 C801 0.959 . S
H808 C801 0.961 . S
H809 C801 0.960 . S
H810 C802 0.930 . S
H811 C803 0.929 . S
H812 C820 0.929 . S
H813 C822 0.930 . S
H814 C824 0.930 . S
H815 C827 0.929 . S
H816 C830 0.930 . S
H817 C832 0.960 . S
H818 C832 0.960 . S
H819 C832 0.960 . S
C820 H812 0.929 . S
C820 C821 1.377 . S
C820 C822 1.384 . S
C821 C820 1.377 . S
C821 C827 1.390 . S
C822 H813 0.930 . S
C822 C820 1.384 . S
C822 C823 1.372 . S
C823 C822 1.372 . S
C823 C824 1.400 . S
C823 C828 1.490 . S
C824 H814 0.930 . S
C824 C823 1.400 . S
C824 C827 1.386 . S
H825 C841 0.930 . S
H826 C842 0.931 . S
C827 H815 0.929 . S
C827 C821 1.390 . S
C827 C824 1.386 . S
C828 C823 1.490 . S
C828 C830 1.395 . S
C828 C831 1.403 . S
H829 C835 0.930 . S
C830 H816 0.930 . S
C830 C828 1.395 . S
C830 C833 1.403 . S
C831 C828 1.403 . S
C831 C832 1.524 . S
C831 C835 1.400 . S
C832 H817 0.960 . S
C832 H818 0.960 . S
C832 H819 0.960 . S
C832 C831 1.524 . S
C833 C830 1.403 . S
C833 C834 1.392 . S
C833 C837 1.495 . S
C834 C833 1.392 . S
C834 C835 1.385 . S
C834 C836 1.478 . S
C835 H829 0.930 . S
C835 C831 1.400 . S
C835 C834 1.385 . S
C836 C834 1.478 . S
C836 C838 1.381 . S
C836 C842 1.383 . S
C837 C833 1.495 . S
C837 H843 0.959 . S
C837 H844 0.961 . S
C837 H845 0.960 . S
C838 C836 1.381 . S
C838 C839 1.394 . S
C838 H846 0.930 . S
C839 C838 1.394 . S
C839 C840 1.383 . S
C839 H847 0.929 . S
C840 C839 1.383 . S
C840 C841 1.377 . S
C841 H825 0.930 . S
C841 C840 1.377 . S
C841 C842 1.379 . S
C842 H826 0.931 . S
C842 C836 1.383 . S
C842 C841 1.379 . S
H843 C837 0.959 . S
H844 C837 0.961 . S
H845 C837 0.960 . S
H846 C838 0.930 . S
H847 C839 0.929 . S
H848 C856 0.929 . S
H849 C858 0.930 . S
H850 C860 0.930 . S
H851 C863 0.929 . S
H852 C866 0.930 . S
H853 C868 0.960 . S
H854 C868 0.960 . S
H855 C868 0.960 . S
C856 H848 0.929 . S
C856 C857 1.377 . S
C856 C858 1.384 . S
C857 C856 1.377 . S
C857 C863 1.390 . S
C858 H849 0.930 . S
C858 C856 1.384 . S
C858 C859 1.372 . S
C859 C858 1.372 . S
C859 C860 1.400 . S
C859 C864 1.490 . S
C860 H850 0.930 . S
C860 C859 1.400 . S
C860 C863 1.386 . S
H861 C877 0.930 . S
H862 C878 0.931 . S
C863 H851 0.929 . S
C863 C857 1.390 . S
C863 C860 1.386 . S
C864 C859 1.490 . S
C864 C866 1.395 . S
C864 C867 1.403 . S
H865 C871 0.930 . S
C866 H852 0.930 . S
C866 C864 1.395 . S
C866 C869 1.403 . S
C867 C864 1.403 . S
C867 C868 1.524 . S
C867 C871 1.400 . S
C868 H853 0.960 . S
C868 H854 0.960 . S
C868 H855 0.960 . S
C868 C867 1.524 . S
C869 C866 1.403 . S
C869 C870 1.392 . S
C869 C873 1.495 . S
C870 C869 1.392 . S
C870 C871 1.385 . S
C870 C872 1.478 . S
C871 H865 0.930 . S
C871 C867 1.400 . S
C871 C870 1.385 . S
C872 C870 1.478 . S
C872 C874 1.381 . S
C872 C878 1.383 . S
C873 C869 1.495 . S
C873 H879 0.959 . S
C873 H880 0.961 . S
C873 H881 0.960 . S
C874 C872 1.381 . S
C874 C875 1.394 . S
C874 H882 0.930 . S
C875 C874 1.394 . S
C875 C876 1.383 . S
C875 H883 0.929 . S
C876 C875 1.383 . S
C876 C877 1.377 . S
C877 H861 0.930 . S
C877 C876 1.377 . S
C877 C878 1.379 . S
C878 H862 0.931 . S
C878 C872 1.383 . S
C878 C877 1.379 . S
H879 C873 0.959 . S
H880 C873 0.961 . S
H881 C873 0.960 . S
H882 C874 0.930 . S
H883 C875 0.929 . S
H884 C892 0.929 . S
H885 C894 0.930 . S
H886 C896 0.930 . S
H887 C899 0.929 . S
H888 C902 0.930 . S
H889 C904 0.960 . S
H890 C904 0.960 . S
H891 C904 0.960 . S
C892 H884 0.929 . S
C892 C893 1.377 . S
C892 C894 1.384 . S
C893 C892 1.377 . S
C893 C899 1.390 . S
C894 H885 0.930 . S
C894 C892 1.384 . S
C894 C895 1.372 . S
C895 C894 1.372 . S
C895 C896 1.400 . S
C895 C900 1.490 . S
C896 H886 0.930 . S
C896 C895 1.400 . S
C896 C899 1.386 . S
H897 C913 0.930 . S
H898 C914 0.931 . S
C899 H887 0.929 . S
C899 C893 1.390 . S
C899 C896 1.386 . S
C900 C895 1.490 . S
C900 C902 1.395 . S
C900 C903 1.403 . S
H901 C907 0.930 . S
C902 H888 0.930 . S
C902 C900 1.395 . S
C902 C905 1.403 . S
C903 C900 1.403 . S
C903 C904 1.524 . S
C903 C907 1.400 . S
C904 H889 0.960 . S
C904 H890 0.960 . S
C904 H891 0.960 . S
C904 C903 1.524 . S
C905 C902 1.403 . S
C905 C906 1.392 . S
C905 C909 1.495 . S
C906 C905 1.392 . S
C906 C907 1.385 . S
C906 C908 1.478 . S
C907 H901 0.930 . S
C907 C903 1.400 . S
C907 C906 1.385 . S
C908 C906 1.478 . S
C908 C910 1.381 . S
C908 C914 1.383 . S
C909 C905 1.495 . S
C909 H915 0.959 . S
C909 H916 0.961 . S
C909 H917 0.960 . S
C910 C908 1.381 . S
C910 C911 1.394 . S
C910 H918 0.930 . S
C911 C910 1.394 . S
C911 C912 1.383 . S
C911 H919 0.929 . S
C912 C911 1.383 . S
C912 C913 1.377 . S
C913 H897 0.930 . S
C913 C912 1.377 . S
C913 C914 1.379 . S
C914 H898 0.931 . S
C914 C908 1.383 . S
C914 C913 1.379 . S
H915 C909 0.959 . S
H916 C909 0.961 . S
H917 C909 0.960 . S
H918 C910 0.930 . S
H919 C911 0.929 . S
H920 C928 0.929 . S
H921 C930 0.930 . S
H922 C932 0.930 . S
H923 C935 0.929 . S
H924 C938 0.930 . S
H925 C940 0.960 . S
H926 C940 0.960 . S
H927 C940 0.960 . S
C928 H920 0.929 . S
C928 C929 1.377 . S
C928 C930 1.384 . S
C929 C928 1.377 . S
C929 C935 1.390 . S
C930 H921 0.930 . S
C930 C928 1.384 . S
C930 C931 1.372 . S
C931 C930 1.372 . S
C931 C932 1.400 . S
C931 C936 1.490 . S
C932 H922 0.930 . S
C932 C931 1.400 . S
C932 C935 1.386 . S
H933 C949 0.930 . S
H934 C950 0.931 . S
C935 H923 0.929 . S
C935 C929 1.390 . S
C935 C932 1.386 . S
C936 C931 1.490 . S
C936 C938 1.395 . S
C936 C939 1.403 . S
H937 C943 0.930 . S
C938 H924 0.930 . S
C938 C936 1.395 . S
C938 C941 1.403 . S
C939 C936 1.403 . S
C939 C940 1.524 . S
C939 C943 1.400 . S
C940 H925 0.960 . S
C940 H926 0.960 . S
C940 H927 0.960 . S
C940 C939 1.524 . S
C941 C938 1.403 . S
C941 C942 1.392 . S
C941 C945 1.495 . S
C942 C941 1.392 . S
C942 C943 1.385 . S
C942 C944 1.478 . S
C943 H937 0.930 . S
C943 C939 1.400 . S
C943 C942 1.385 . S
C944 C942 1.478 . S
C944 C946 1.381 . S
C944 C950 1.383 . S
C945 C941 1.495 . S
C945 H951 0.959 . S
C945 H952 0.961 . S
C945 H953 0.960 . S
C946 C944 1.381 . S
C946 C947 1.394 . S
C946 H954 0.930 . S
C947 C946 1.394 . S
C947 C948 1.383 . S
C947 H955 0.929 . S
C948 C947 1.383 . S
C948 C949 1.377 . S
C949 H933 0.930 . S
C949 C948 1.377 . S
C949 C950 1.379 . S
C950 H934 0.931 . S
C950 C944 1.383 . S
C950 C949 1.379 . S
H951 C945 0.959 . S
H952 C945 0.961 . S
H953 C945 0.960 . S
H954 C946 0.930 . S
H955 C947 0.929 . S
H956 C964 0.929 . S
H957 C966 0.930 . S
H958 C968 0.930 . S
H959 C971 0.929 . S
H960 C974 0.930 . S
H961 C976 0.960 . S
H962 C976 0.960 . S
H963 C976 0.960 . S
C964 H956 0.929 . S
C964 C965 1.377 . S
C964 C966 1.384 . S
C965 C964 1.377 . S
C965 C971 1.390 . S
C966 H957 0.930 . S
C966 C964 1.384 . S
C966 C967 1.372 . S
C967 C966 1.372 . S
C967 C968 1.400 . S
C967 C972 1.490 . S
C968 H958 0.930 . S
C968 C967 1.400 . S
C968 C971 1.386 . S
H969 C985 0.930 . S
H970 C986 0.931 . S
C971 H959 0.929 . S
C971 C965 1.390 . S
C971 C968 1.386 . S
C972 C967 1.490 . S
C972 C974 1.395 . S
C972 C975 1.403 . S
H973 C979 0.930 . S
C974 H960 0.930 . S
C974 C972 1.395 . S
C974 C977 1.403 . S
C975 C972 1.403 . S
C975 C976 1.524 . S
C975 C979 1.400 . S
C976 H961 0.960 . S
C976 H962 0.960 . S
C976 H963 0.960 . S
C976 C975 1.524 . S
C977 C974 1.403 . S
C977 C978 1.392 . S
C977 C981 1.495 . S
C978 C977 1.392 . S
C978 C979 1.385 . S
C978 C980 1.478 . S
C979 H973 0.930 . S
C979 C975 1.400 . S
C979 C978 1.385 . S
C980 C978 1.478 . S
C980 C982 1.381 . S
C980 C986 1.383 . S
C981 C977 1.495 . S
C981 H987 0.959 . S
C981 H988 0.961 . S
C981 H989 0.960 . S
C982 C980 1.381 . S
C982 C983 1.394 . S
C982 H990 0.930 . S
C983 C982 1.394 . S
C983 C984 1.383 . S
C983 H991 0.929 . S
C984 C983 1.383 . S
C984 C985 1.377 . S
C985 H969 0.930 . S
C985 C984 1.377 . S
C985 C986 1.379 . S
C986 H970 0.931 . S
C986 C980 1.383 . S
C986 C985 1.379 . S
H987 C981 0.959 . S
H988 C981 0.961 . S
H989 C981 0.960 . S
H990 C982 0.930 . S
H991 C983 0.929 . S
H992 C1000 0.929 . S
H993 C1002 0.930 . S
H994 C1004 0.930 . S
H995 C1007 0.929 . S
H996 C1010 0.930 . S
H997 C1012 0.960 . S
H998 C1012 0.960 . S
H999 C1012 0.960 . S
C1000 H992 0.929 . S
C1000 C1001 1.377 . S
C1000 C1002 1.384 . S
C1001 C1000 1.377 . S
C1001 C1007 1.390 . S
C1002 H993 0.930 . S
C1002 C1000 1.384 . S
C1002 C1003 1.372 . S
C1003 C1002 1.372 . S
C1003 C1004 1.400 . S
C1003 C1008 1.490 . S
C1004 H994 0.930 . S
C1004 C1003 1.400 . S
C1004 C1007 1.386 . S
H1005 C1021 0.930 . S
H1006 C1022 0.931 . S
C1007 H995 0.929 . S
C1007 C1001 1.390 . S
C1007 C1004 1.386 . S
C1008 C1003 1.490 . S
C1008 C1010 1.395 . S
C1008 C1011 1.403 . S
H1009 C1015 0.930 . S
C1010 H996 0.930 . S
C1010 C1008 1.395 . S
C1010 C1013 1.403 . S
C1011 C1008 1.403 . S
C1011 C1012 1.524 . S
C1011 C1015 1.400 . S
C1012 H997 0.960 . S
C1012 H998 0.960 . S
C1012 H999 0.960 . S
C1012 C1011 1.524 . S
C1013 C1010 1.403 . S
C1013 C1014 1.392 . S
C1013 C1017 1.495 . S
C1014 C1013 1.392 . S
C1014 C1015 1.385 . S
C1014 C1016 1.478 . S
C1015 H1009 0.930 . S
C1015 C1011 1.400 . S
C1015 C1014 1.385 . S
C1016 C1014 1.478 . S
C1016 C1018 1.381 . S
C1016 C1022 1.383 . S
C1017 C1013 1.495 . S
C1017 H1023 0.959 . S
C1017 H1024 0.961 . S
C1017 H1025 0.960 . S
C1018 C1016 1.381 . S
C1018 C1019 1.394 . S
C1018 H1026 0.930 . S
C1019 C1018 1.394 . S
C1019 C1020 1.383 . S
C1019 H1027 0.929 . S
C1020 C1019 1.383 . S
C1020 C1021 1.377 . S
C1021 H1005 0.930 . S
C1021 C1020 1.377 . S
C1021 C1022 1.379 . S
C1022 H1006 0.931 . S
C1022 C1016 1.383 . S
C1022 C1021 1.379 . S
H1023 C1017 0.959 . S
H1024 C1017 0.961 . S
H1025 C1017 0.960 . S
H1026 C1018 0.930 . S
H1027 C1019 0.929 . S
H1028 C1036 0.929 . S
H1029 C1038 0.930 . S
H1030 C1040 0.930 . S
H1031 C1043 0.929 . S
H1032 C1046 0.930 . S
H1033 C1048 0.960 . S
H1034 C1048 0.960 . S
H1035 C1048 0.960 . S
C1036 H1028 0.929 . S
C1036 C1037 1.377 . S
C1036 C1038 1.384 . S
C1037 C1036 1.377 . S
C1037 C1043 1.390 . S
C1038 H1029 0.930 . S
C1038 C1036 1.384 . S
C1038 C1039 1.372 . S
C1039 C1038 1.372 . S
C1039 C1040 1.400 . S
C1039 C1044 1.490 . S
C1040 H1030 0.930 . S
C1040 C1039 1.400 . S
C1040 C1043 1.386 . S
H1041 C1057 0.930 . S
H1042 C1058 0.931 . S
C1043 H1031 0.929 . S
C1043 C1037 1.390 . S
C1043 C1040 1.386 . S
C1044 C1039 1.490 . S
C1044 C1046 1.395 . S
C1044 C1047 1.403 . S
H1045 C1051 0.930 . S
C1046 H1032 0.930 . S
C1046 C1044 1.395 . S
C1046 C1049 1.403 . S
C1047 C1044 1.403 . S
C1047 C1048 1.524 . S
C1047 C1051 1.400 . S
C1048 H1033 0.960 . S
C1048 H1034 0.960 . S
C1048 H1035 0.960 . S
C1048 C1047 1.524 . S
C1049 C1046 1.403 . S
C1049 C1050 1.392 . S
C1049 C1053 1.495 . S
C1050 C1049 1.392 . S
C1050 C1051 1.385 . S
C1050 C1052 1.478 . S
C1051 H1045 0.930 . S
C1051 C1047 1.400 . S
C1051 C1050 1.385 . S
C1052 C1050 1.478 . S
C1052 C1054 1.381 . S
C1052 C1058 1.383 . S
C1053 C1049 1.495 . S
C1053 H1059 0.959 . S
C1053 H1060 0.961 . S
C1053 H1061 0.960 . S
C1054 C1052 1.381 . S
C1054 C1055 1.394 . S
C1054 H1062 0.930 . S
C1055 C1054 1.394 . S
C1055 C1056 1.383 . S
C1055 H1063 0.929 . S
C1056 C1055 1.383 . S
C1056 C1057 1.377 . S
C1057 H1041 0.930 . S
C1057 C1056 1.377 . S
C1057 C1058 1.379 . S
C1058 H1042 0.931 . S
C1058 C1052 1.383 . S
C1058 C1057 1.379 . S
H1059 C1053 0.959 . S
H1060 C1053 0.961 . S
H1061 C1053 0.960 . S
H1062 C1054 0.930 . S
H1063 C1055 0.929 . S
C209 C5 1.020 . S
C228 N59 1.132 . S
C245 C45 1.586 1_545 S
C264 C123 1.534 . S
C281 N14 1.464 . S
C300 C93 1.539 1_455 S
C317 C132 1.189 . S
C336 C13 1.062 . S
C353 N9 1.155 . S
C372 C55 0.969 . S
C389 C23 1.542 . S
C408 C145 1.577 1_545 S
C425 N64 1.465 . S
C444 C43 1.535 1_455 S
C461 C113 1.113 . S
C480 C32 1.160 . S
C497 C190 0.745 . S
C516 N25 0.716 . S
C533 C192 1.820 . S
C552 C11 1.822 . S
C569 C161 1.852 . S
C588 C42 1.797 . S
C605 C40 0.766 . S
C624 N175 0.773 . S
C641 C173 1.542 . S
C660 C95 1.583 . S
C677 C63 1.129 . S
C696 C182 1.214 . S
C713 C73 1.533 . S
C732 C195 1.576 . S
C749 C163 1.109 . S
C768 C82 1.209 . S
C785 C140 0.741 . S
C804 N75 0.726 . S
C821 C61 1.853 . S
C840 C142 1.803 . S
C857 C92 1.817 . S
C876 C111 1.860 . S
C893 N125 0.750 . S
C912 C90 0.820 . S
C929 N159 1.155 . S
C948 C105 1.021 . S
C965 N114 1.462 . S
C984 C193 1.562 . S
C1001 C155 1.034 . S
C1020 N109 1.185 . S
C1037 C143 1.556 . S
C1056 N164 1.491 . S
