# Generated by pormake.
# Topology ure, (4)-cn, num edge types: 1
# Building blocks:
#     Node 0, Type 0, BuildingBlock: QUQFOY_clean_sbu_3, # of connection points: 4
#     Node 1, Type 0, BuildingBlock: QUQFOY_clean_sbu_3, # of connection points: 4
#     Node 2, Type 0, BuildingBlock: QUQFOY_clean_sbu_3, # of connection points: 4
#     Node 3, Type 0, BuildingBlock: QUQFOY_clean_sbu_3, # of connection points: 4
#     Node 4, Type 0, BuildingBlock: QUQFOY_clean_sbu_3, # of connection points: 4
#     Node 5, Type 0, BuildingBlock: QUQFOY_clean_sbu_3, # of connection points: 4
#     Node 6, Type 0, BuildingBlock: QUQFOY_clean_sbu_3, # of connection points: 4
#     Node 7, Type 0, BuildingBlock: QUQFOY_clean_sbu_3, # of connection points: 4
#     Node 8, Type 0, BuildingBlock: QUQFOY_clean_sbu_3, # of connection points: 4
#     Node 9, Type 0, BuildingBlock: QUQFOY_clean_sbu_3, # of connection points: 4
#     Node 10, Type 0, BuildingBlock: QUQFOY_clean_sbu_3, # of connection points: 4
#     Node 11, Type 0, BuildingBlock: QUQFOY_clean_sbu_3, # of connection points: 4
#     Node 12, Type 0, BuildingBlock: QUQFOY_clean_sbu_3, # of connection points: 4
#     Node 13, Type 0, BuildingBlock: QUQFOY_clean_sbu_3, # of connection points: 4
#     Node 14, Type 0, BuildingBlock: QUQFOY_clean_sbu_3, # of connection points: 4
#     Node 15, Type 0, BuildingBlock: QUQFOY_clean_sbu_3, # of connection points: 4
#     Edge 16, Type (0, 0), None
#     Edge 17, Type (0, 0), None
#     Edge 18, Type (0, 0), None
#     Edge 19, Type (0, 0), None
#     Edge 20, Type (0, 0), None
#     Edge 21, Type (0, 0), None
#     Edge 22, Type (0, 0), None
#     Edge 23, Type (0, 0), None
#     Edge 24, Type (0, 0), None
#     Edge 25, Type (0, 0), None
#     Edge 26, Type (0, 0), None
#     Edge 27, Type (0, 0), None
#     Edge 28, Type (0, 0), None
#     Edge 29, Type (0, 0), None
#     Edge 30, Type (0, 0), None
#     Edge 31, Type (0, 0), None
#     Edge 32, Type (0, 0), None
#     Edge 33, Type (0, 0), None
#     Edge 34, Type (0, 0), None
#     Edge 35, Type (0, 0), None
#     Edge 36, Type (0, 0), None
#     Edge 37, Type (0, 0), None
#     Edge 38, Type (0, 0), None
#     Edge 39, Type (0, 0), None
#     Edge 40, Type (0, 0), None
#     Edge 41, Type (0, 0), None
#     Edge 42, Type (0, 0), None
#     Edge 43, Type (0, 0), None
#     Edge 44, Type (0, 0), None
#     Edge 45, Type (0, 0), None
#     Edge 46, Type (0, 0), None
#     Edge 47, Type (0, 0), None
# Relax obj value: 0.218
# Max RMSD: 0.176
# Mean RMSD: 0.176
data_MOF--net-ure--node1-QUQFOY_clean_sbu_3--edge1-none
_symmetry_space_group_name_H-M    P1
_symmetry_Int_Tables_number       1
_symmetry_cell_setting            triclinic
loop_
_symmetry_equiv_pos_as_xyz
'x, y, z'
_cell_length_a     15.294
_cell_length_b     15.546556
_cell_length_c     15.543942
_cell_angle_alpha  90.0002
_cell_angle_beta   90.000146
_cell_angle_gamma 90.000164
loop_
_atom_site_label
_atom_site_type_symbol
_atom_site_fract_x
_atom_site_fract_y
_atom_site_fract_z
_atom_type_partial_charge
C0 C 0.43628 0.20978 0.16899 0.0
O1 O 0.39777 0.14099 0.18828 0.0
Cd2 Cd 0.26064 0.21327 0.22903 0.0
O3 O 0.38991 0.27685 0.1698 0.0
Cd4 Cd 0.23313 0.23231 0.22542 0.0
C5 C 0.21669 0.41509 0.21581 0.0
O6 O 0.24918 0.15547 0.36918 0.0
O7 O 0.21484 0.28876 0.37507 0.0
O8 O 0.21771 0.10579 0.12409 0.0
C9 C 0.23166 0.22008 0.41521 0.0
O10 O 0.28489 0.37647 0.23958 0.0
C11 C 0.13477 0.10865 0.12228 0.0
O12 O 0.15231 0.36884 0.19485 0.0
O13 O 0.09808 0.16571 0.16828 0.0
C14 C 0.78227 0.91899 0.45988 0.0
O15 O 0.82078 0.93828 0.39108 0.0
Cd16 Cd 0.95794 -0.02103 0.46335 0.0
O17 O 0.82866 0.91977 0.52696 0.0
Cd18 Cd -0.01458 -0.02465 0.4824 0.0
C19 C 0.00188 -0.0343 0.6652 0.0
O20 O 0.96942 0.11909 0.40555 0.0
O21 O 0.0037 0.12497 0.53887 0.0
O22 O 0.00082 0.87397 0.35591 0.0
C23 C -0.01311 0.16512 0.47018 0.0
O24 O 0.93371 -0.01052 0.62658 0.0
C25 C 0.08376 0.87217 0.35875 0.0
O26 O 0.06626 0.94475 0.61894 0.0
O27 O 0.12046 0.9182 0.41578 0.0
C28 C 0.03226 0.71435 0.66898 0.0
O29 O 0.07078 0.78313 0.68828 0.0
Cd30 Cd 0.2079 0.71083 0.72902 0.0
O31 O 0.07863 0.64727 0.66978 0.0
Cd32 Cd 0.2354 0.69178 0.72541 0.0
C33 C 0.25184 0.50901 0.71579 0.0
O34 O 0.21938 0.76862 0.86917 0.0
O35 O 0.25364 0.63531 0.87506 0.0
O36 O 0.25083 0.8183 0.62408 0.0
C37 C 0.23685 0.70399 0.91521 0.0
O38 O 0.18363 0.54763 0.73953 0.0
C39 C 0.33377 0.81545 0.62228 0.0
O40 O 0.31624 0.55525 0.69486 0.0
O41 O 0.37046 0.7584 0.66828 0.0
C42 C 0.68629 0.00514 0.95988 0.0
O43 O 0.64778 -0.01415 0.89108 0.0
Cd44 Cd 0.51063 0.94515 -0.03663 0.0
O45 O 0.63991 0.00435 0.02697 0.0
Cd46 Cd 0.48312 0.94877 -0.01758 0.0
C47 C 0.46666 0.95842 0.16522 0.0
O48 O 0.49914 0.80503 0.90557 0.0
O49 O 0.46485 0.79915 0.03889 0.0
O50 O 0.46772 0.05015 0.85593 0.0
C51 C 0.48165 0.75901 -0.0298 0.0
O52 O 0.53486 0.93465 0.1266 0.0
C53 C 0.38478 0.05194 0.85876 0.0
O54 O 0.40228 -0.02064 0.11896 0.0
O55 O 0.34808 0.0059 0.91579 0.0
C56 C 0.43628 0.71435 0.25536 0.0
O57 O 0.39776 0.78313 0.23606 0.0
Cd58 Cd 0.26064 0.71082 0.19532 0.0
O59 O 0.38991 0.64727 0.25456 0.0
Cd60 Cd 0.23314 0.69178 0.19892 0.0
C61 C 0.2167 0.509 0.20857 0.0
O62 O 0.24914 0.76862 0.05517 0.0
O63 O 0.21496 0.6353 0.04927 0.0
O64 O 0.21771 0.8183 0.30026 0.0
C65 C 0.23173 0.70399 0.00913 0.0
O66 O 0.2849 0.54762 0.18483 0.0
C67 C 0.13477 0.81544 0.30207 0.0
O68 O 0.15229 0.55525 0.22947 0.0
O69 O 0.09808 0.7584 0.25605 0.0
C70 C 0.68629 0.91903 0.46446 0.0
O71 O 0.6478 0.93832 0.53327 0.0
Cd72 Cd 0.51064 -0.02103 0.46099 0.0
O73 O 0.6399 0.91975 0.39738 0.0
Cd74 Cd 0.48313 -0.02465 0.44194 0.0
C75 C 0.46666 -0.03431 0.25914 0.0
O76 O 0.49912 0.11909 0.5188 0.0
O77 O 0.46489 0.12498 0.38546 0.0
O78 O 0.46772 0.87398 0.56843 0.0
C79 C 0.48166 0.16512 0.45416 0.0
O80 O 0.53486 -0.01053 0.29776 0.0
C81 C 0.38478 0.87217 0.56558 0.0
O82 O 0.40227 0.94476 0.3054 0.0
O83 O 0.34808 0.91821 0.50855 0.0
C84 C 0.03226 0.20977 0.75538 0.0
O85 O 0.07077 0.14099 0.73606 0.0
Cd86 Cd 0.2079 0.21327 0.69533 0.0
O87 O 0.07864 0.27684 0.75459 0.0
Cd88 Cd 0.2354 0.23232 0.69893 0.0
C89 C 0.25184 0.41509 0.70856 0.0
O90 O 0.21939 0.15546 0.55519 0.0
O91 O 0.25356 0.28879 0.54928 0.0
O92 O 0.25083 0.10579 0.80026 0.0
C93 C 0.23679 0.22009 0.50914 0.0
O94 O 0.18363 0.37647 0.68481 0.0
C95 C 0.33376 0.10866 0.80208 0.0
O96 O 0.31624 0.36885 0.72947 0.0
O97 O 0.37046 0.16572 0.75607 0.0
C98 C 0.78227 0.0051 -0.03554 0.0
O99 O 0.82077 -0.01418 0.03327 0.0
Cd100 Cd 0.95793 0.94516 0.96098 0.0
O101 O 0.82865 0.00437 0.89738 0.0
Cd102 Cd -0.01459 0.94877 0.94192 0.0
C103 C 0.00188 0.95844 0.75913 0.0
O104 O 0.96945 0.80504 0.01878 0.0
O105 O 0.00364 0.79915 0.88544 0.0
O106 O 0.00082 0.05015 0.06842 0.0
C107 C -0.01312 0.75901 0.95414 0.0
O108 O 0.9337 0.93467 0.79774 0.0
C109 C 0.08376 0.05195 0.06557 0.0
O110 O 0.06627 -0.02064 0.80539 0.0
O111 O 0.12046 0.0059 0.00855 0.0
C112 C 0.9363 0.21435 0.75534 0.0
O113 O 0.89781 0.28315 0.73606 0.0
Cd114 Cd 0.76068 0.21086 0.69532 0.0
O115 O 0.88992 0.14727 0.75458 0.0
Cd116 Cd 0.73316 0.19182 0.69894 0.0
C117 C 0.71672 0.00904 0.70854 0.0
O118 O 0.7492 0.26866 0.55518 0.0
O119 O 0.71489 0.13536 0.54929 0.0
O120 O 0.71773 0.31834 0.80026 0.0
C121 C 0.7317 0.20404 0.50914 0.0
O122 O 0.78492 0.04766 0.68479 0.0
C123 C 0.63479 0.31547 0.80208 0.0
O124 O 0.65233 0.05528 0.7295 0.0
O125 O 0.5981 0.2584 0.75609 0.0
C126 C 0.18628 0.41893 -0.03553 0.0
O127 O 0.14777 0.43824 0.03326 0.0
Cd128 Cd 0.01062 0.47894 0.96098 0.0
O129 O 0.13989 0.41971 0.89739 0.0
Cd130 Cd 0.98315 0.47533 0.94192 0.0
C131 C 0.96668 0.4657 0.75913 0.0
O132 O -0.00087 0.61906 0.01879 0.0
O133 O 0.96501 0.62496 0.88543 0.0
O134 O 0.96773 0.37394 0.06841 0.0
C135 C 0.98177 0.6651 0.95414 0.0
O136 O 0.03486 0.48943 0.79775 0.0
C137 C 0.88479 0.37217 0.06558 0.0
O138 O 0.90228 0.44478 0.80539 0.0
O139 O 0.84809 0.41823 0.00857 0.0
C140 C 0.53226 0.70979 0.25531 0.0
O141 O 0.57077 0.64099 0.23604 0.0
Cd142 Cd 0.7079 0.7133 0.19532 0.0
O143 O 0.57863 0.77687 0.25456 0.0
Cd144 Cd 0.73541 0.73234 0.19893 0.0
C145 C 0.75184 0.91512 0.20856 0.0
O146 O 0.71939 0.65551 0.05517 0.0
O147 O 0.75367 0.78881 0.04929 0.0
O148 O 0.75084 0.60581 0.30025 0.0
C149 C 0.73688 0.72013 0.00913 0.0
O150 O 0.68364 0.8765 0.18481 0.0
C151 C 0.83378 0.60868 0.30207 0.0
O152 O 0.81624 0.86887 0.22949 0.0
O153 O 0.87047 0.66575 0.25608 0.0
C154 C 0.18628 0.5052 0.45988 0.0
O155 O 0.14777 0.48588 0.39108 0.0
Cd156 Cd 0.01062 0.44519 0.46335 0.0
O157 O 0.13989 0.50443 0.52695 0.0
Cd158 Cd 0.98315 0.4488 0.48241 0.0
C159 C 0.96668 0.45844 0.6652 0.0
O160 O -0.00089 0.30507 0.40553 0.0
O161 O 0.96505 0.29916 0.5389 0.0
O162 O 0.96773 0.55019 0.35593 0.0
C163 C 0.98178 0.25903 0.47019 0.0
O164 O 0.03486 0.4347 0.62659 0.0
C165 C 0.88479 0.55197 0.35877 0.0
O166 O 0.90228 0.47934 0.61895 0.0
O167 O 0.84809 0.50591 0.41577 0.0
C168 C 0.28226 0.41897 0.95989 0.0
O169 O 0.32075 0.43827 0.89108 0.0
Cd170 Cd 0.4579 0.47894 -0.03663 0.0
O171 O 0.32864 0.41969 0.02697 0.0
Cd172 Cd 0.48541 0.47533 -0.01757 0.0
C173 C 0.50188 0.46569 0.16522 0.0
O174 O 0.46942 0.61905 0.90555 0.0
O175 O 0.50352 0.62497 0.03892 0.0
O176 O 0.50083 0.37394 0.85595 0.0
C177 C 0.48678 0.66509 -0.02979 0.0
O178 O 0.43367 0.48942 0.1266 0.0
C179 C 0.58377 0.37217 0.85878 0.0
O180 O 0.56628 0.44478 0.11896 0.0
O181 O 0.62047 0.41823 0.9158 0.0
C182 C 0.9363 0.70978 0.66902 0.0
O183 O 0.89779 0.64099 0.6883 0.0
Cd184 Cd 0.76066 0.7133 0.72902 0.0
O185 O 0.88993 0.77686 0.66976 0.0
Cd186 Cd 0.73316 0.73235 0.72541 0.0
C187 C 0.71672 0.91512 0.71577 0.0
O188 O 0.74916 0.6555 0.86916 0.0
O189 O 0.715 0.78884 0.87507 0.0
O190 O 0.71772 0.60583 0.62408 0.0
C191 C 0.73176 0.72014 0.91521 0.0
O192 O 0.78493 0.8765 0.73951 0.0
C193 C 0.63478 0.60869 0.62228 0.0
O194 O 0.65232 0.86888 0.69487 0.0
O195 O 0.59809 0.66574 0.66828 0.0
C196 C 0.53226 0.21436 0.16904 0.0
O197 O 0.57076 0.28315 0.18833 0.0
Cd198 Cd 0.7079 0.21086 0.22903 0.0
O199 O 0.57864 0.14728 0.16976 0.0
Cd200 Cd 0.73541 0.19181 0.22542 0.0
C201 C 0.75184 0.00904 0.21579 0.0
O202 O 0.71941 0.26866 0.36917 0.0
O203 O 0.75359 0.13534 0.37508 0.0
O204 O 0.75084 0.31834 0.1241 0.0
C205 C 0.73682 0.20403 0.41522 0.0
O206 O 0.68364 0.04766 0.23954 0.0
C207 C 0.83377 0.31546 0.12227 0.0
O208 O 0.81624 0.05528 0.19487 0.0
O209 O 0.87047 0.2584 0.16827 0.0
C210 C 0.28226 0.50515 0.46446 0.0
O211 O 0.32074 0.48584 0.53327 0.0
Cd212 Cd 0.4579 0.44519 0.461 0.0
O213 O 0.32865 0.50444 0.39739 0.0
Cd214 Cd 0.48541 0.4488 0.44194 0.0
C215 C 0.50188 0.45845 0.25915 0.0
O216 O 0.46942 0.30507 0.51881 0.0
O217 O 0.50354 0.29917 0.38545 0.0
O218 O 0.50083 0.55018 0.56843 0.0
C219 C 0.48679 0.25903 0.45415 0.0
O220 O 0.43367 0.4347 0.29777 0.0
C221 C 0.58377 0.55198 0.56558 0.0
O222 O 0.56628 0.47935 0.30541 0.0
O223 O 0.62046 0.50593 0.50856 0.0
loop_
_geom_bond_atom_site_label_1
_geom_bond_atom_site_label_2
_geom_bond_distance
_geom_bond_site_symmetry_2
_ccdc_geom_bond_type
C0 O1 1.306 . S
C0 O3 1.160 . S
O1 C0 1.306 . S
O1 Cd2 2.228 . S
Cd2 O1 2.228 . S
Cd2 O6 2.273 . S
Cd2 O10 2.277 . S
O3 C0 1.160 . S
O3 Cd4 2.203 . S
Cd4 O3 2.203 . S
Cd4 O6 2.411 . S
Cd4 O7 2.333 . S
Cd4 O8 2.352 . S
Cd4 O12 2.277 . S
Cd4 O13 2.356 . S
C5 O10 1.209 . S
C5 O12 1.226 . S
O6 Cd2 2.273 . S
O6 Cd4 2.411 . S
O6 C9 1.320 . S
O7 Cd4 2.333 . S
O7 C9 1.214 . S
O8 Cd4 2.352 . S
O8 C11 1.258 . S
C9 O6 1.320 . S
C9 O7 1.214 . S
O10 Cd2 2.277 . S
O10 C5 1.209 . S
C11 O8 1.258 . S
C11 O13 1.282 . S
O12 Cd4 2.277 . S
O12 C5 1.226 . S
O13 Cd4 2.356 . S
O13 C11 1.282 . S
C14 O15 1.306 1_565 S
C14 O17 1.160 . S
O15 C14 1.306 1_545 S
O15 Cd16 2.228 . S
Cd16 O15 2.228 . S
Cd16 O20 2.273 . S
Cd16 O24 2.277 . S
O17 C14 1.160 . S
O17 Cd18 2.203 1_565 S
Cd18 O17 2.203 1_545 S
Cd18 O20 2.411 . S
Cd18 O21 2.333 1_655 S
Cd18 O22 2.352 1_645 S
Cd18 O26 2.277 1_545 S
Cd18 O27 2.356 1_645 S
C19 O24 1.209 . S
C19 O26 1.226 1_545 S
O20 Cd16 2.273 . S
O20 Cd18 2.411 . S
O20 C23 1.320 1_655 S
O21 Cd18 2.333 1_455 S
O21 C23 1.214 . S
O22 Cd18 2.352 1_465 S
O22 C25 1.258 . S
C23 O20 1.320 1_455 S
C23 O21 1.214 . S
O24 Cd16 2.277 . S
O24 C19 1.209 . S
C25 O22 1.258 . S
C25 O27 1.282 . S
O26 Cd18 2.277 1_565 S
O26 C19 1.226 1_565 S
O27 Cd18 2.356 1_465 S
O27 C25 1.282 . S
C28 O29 1.306 . S
C28 O31 1.160 . S
O29 C28 1.306 . S
O29 Cd30 2.228 . S
Cd30 O29 2.228 . S
Cd30 O34 2.273 . S
Cd30 O38 2.277 . S
O31 C28 1.160 . S
O31 Cd32 2.203 . S
Cd32 O31 2.203 . S
Cd32 O34 2.411 . S
Cd32 O35 2.333 . S
Cd32 O36 2.352 . S
Cd32 O40 2.277 . S
Cd32 O41 2.356 . S
C33 O38 1.209 . S
C33 O40 1.226 . S
O34 Cd30 2.273 . S
O34 Cd32 2.411 . S
O34 C37 1.320 . S
O35 Cd32 2.333 . S
O35 C37 1.214 . S
O36 Cd32 2.352 . S
O36 C39 1.258 . S
C37 O34 1.320 . S
C37 O35 1.214 . S
O38 Cd30 2.277 . S
O38 C33 1.209 . S
C39 O36 1.258 . S
C39 O41 1.282 . S
O40 Cd32 2.277 . S
O40 C33 1.226 . S
O41 Cd32 2.356 . S
O41 C39 1.282 . S
C42 O43 1.305 1_546 S
C42 O45 1.160 . S
O43 C42 1.305 1_564 S
O43 Cd44 2.233 . S
Cd44 O43 2.233 . S
Cd44 O48 2.273 1_554 S
Cd44 O52 2.277 . S
O45 C42 1.160 . S
O45 Cd46 2.203 1_546 S
Cd46 O45 2.203 1_564 S
Cd46 O48 2.411 1_554 S
Cd46 O49 2.333 . S
Cd46 O50 2.352 1_564 S
Cd46 O54 2.277 1_565 S
Cd46 O55 2.356 1_564 S
C47 O52 1.209 . S
C47 O54 1.226 1_565 S
O48 Cd44 2.273 1_556 S
O48 Cd46 2.411 1_556 S
O48 C51 1.319 1_556 S
O49 Cd46 2.333 . S
O49 C51 1.216 . S
O50 Cd46 2.352 1_546 S
O50 C53 1.258 . S
C51 O48 1.319 1_554 S
C51 O49 1.216 . S
O52 Cd44 2.277 . S
O52 C47 1.209 . S
C53 O50 1.258 . S
C53 O55 1.282 . S
O54 Cd46 2.277 1_545 S
O54 C47 1.226 1_545 S
O55 Cd46 2.356 1_546 S
O55 C53 1.282 . S
C56 O57 1.306 . S
C56 O59 1.160 . S
O57 C56 1.306 . S
O57 Cd58 2.228 . S
Cd58 O57 2.228 . S
Cd58 O62 2.273 . S
Cd58 O66 2.277 . S
O59 C56 1.160 . S
O59 Cd60 2.203 . S
Cd60 O59 2.203 . S
Cd60 O62 2.411 . S
Cd60 O63 2.333 . S
Cd60 O64 2.352 . S
Cd60 O68 2.277 . S
Cd60 O69 2.356 . S
C61 O66 1.209 . S
C61 O68 1.226 . S
O62 Cd58 2.273 . S
O62 Cd60 2.411 . S
O62 C65 1.320 . S
O63 Cd60 2.333 . S
O63 C65 1.214 . S
O64 Cd60 2.352 . S
O64 C67 1.258 . S
C65 O62 1.320 . S
C65 O63 1.214 . S
O66 Cd58 2.277 . S
O66 C61 1.209 . S
C67 O64 1.258 . S
C67 O69 1.282 . S
O68 Cd60 2.277 . S
O68 C61 1.226 . S
O69 Cd60 2.356 . S
O69 C67 1.282 . S
C70 O71 1.306 1_565 S
C70 O73 1.160 . S
O71 C70 1.306 1_545 S
O71 Cd72 2.228 . S
Cd72 O71 2.228 . S
Cd72 O76 2.273 . S
Cd72 O80 2.277 . S
O73 C70 1.160 . S
O73 Cd74 2.203 1_565 S
Cd74 O73 2.203 1_545 S
Cd74 O76 2.411 . S
Cd74 O77 2.333 . S
Cd74 O78 2.352 1_545 S
Cd74 O82 2.277 1_545 S
Cd74 O83 2.356 1_545 S
C75 O80 1.209 . S
C75 O82 1.226 1_545 S
O76 Cd72 2.273 . S
O76 Cd74 2.411 . S
O76 C79 1.320 . S
O77 Cd74 2.333 . S
O77 C79 1.214 . S
O78 Cd74 2.352 1_565 S
O78 C81 1.258 . S
C79 O76 1.320 . S
C79 O77 1.214 . S
O80 Cd72 2.277 . S
O80 C75 1.209 . S
C81 O78 1.258 . S
C81 O83 1.282 . S
O82 Cd74 2.277 1_565 S
O82 C75 1.226 1_565 S
O83 Cd74 2.356 1_565 S
O83 C81 1.282 . S
C84 O85 1.306 . S
C84 O87 1.160 . S
O85 C84 1.306 . S
O85 Cd86 2.228 . S
Cd86 O85 2.228 . S
Cd86 O90 2.273 . S
Cd86 O94 2.277 . S
O87 C84 1.160 . S
O87 Cd88 2.203 . S
Cd88 O87 2.203 . S
Cd88 O90 2.411 . S
Cd88 O91 2.333 . S
Cd88 O92 2.352 . S
Cd88 O96 2.277 . S
Cd88 O97 2.356 . S
C89 O94 1.209 . S
C89 O96 1.226 . S
O90 Cd86 2.273 . S
O90 Cd88 2.411 . S
O90 C93 1.320 . S
O91 Cd88 2.333 . S
O91 C93 1.214 . S
O92 Cd88 2.352 . S
O92 C95 1.258 . S
C93 O90 1.320 . S
C93 O91 1.214 . S
O94 Cd86 2.277 . S
O94 C89 1.209 . S
C95 O92 1.258 . S
C95 O97 1.282 . S
O96 Cd88 2.277 . S
O96 C89 1.226 . S
O97 Cd88 2.356 . S
O97 C95 1.282 . S
C98 O99 1.305 1_544 S
C98 O101 1.160 . S
O99 C98 1.305 1_566 S
O99 Cd100 2.233 . S
Cd100 O99 2.233 . S
Cd100 O104 2.273 1_556 S
Cd100 O108 2.277 . S
O101 C98 1.160 . S
O101 Cd102 2.203 1_544 S
Cd102 O101 2.203 1_566 S
Cd102 O104 2.411 1_556 S
Cd102 O105 2.333 1_655 S
Cd102 O106 2.352 1_666 S
Cd102 O110 2.277 1_565 S
Cd102 O111 2.356 1_666 S
C103 O108 1.209 . S
C103 O110 1.226 1_565 S
O104 Cd100 2.273 1_554 S
O104 Cd102 2.411 1_554 S
O104 C107 1.319 1_654 S
O105 Cd102 2.333 1_455 S
O105 C107 1.216 . S
O106 Cd102 2.352 1_444 S
O106 C109 1.258 . S
C107 O104 1.319 1_456 S
C107 O105 1.216 . S
O108 Cd100 2.277 . S
O108 C103 1.209 . S
C109 O106 1.258 . S
C109 O111 1.282 . S
O110 Cd102 2.277 1_545 S
O110 C103 1.226 1_545 S
O111 Cd102 2.356 1_444 S
O111 C109 1.282 . S
C112 O113 1.306 . S
C112 O115 1.160 . S
O113 C112 1.306 . S
O113 Cd114 2.228 . S
Cd114 O113 2.228 . S
Cd114 O118 2.273 . S
Cd114 O122 2.277 . S
O115 C112 1.160 . S
O115 Cd116 2.203 . S
Cd116 O115 2.203 . S
Cd116 O118 2.411 . S
Cd116 O119 2.333 . S
Cd116 O120 2.352 . S
Cd116 O124 2.277 . S
Cd116 O125 2.356 . S
C117 O122 1.209 . S
C117 O124 1.226 . S
O118 Cd114 2.273 . S
O118 Cd116 2.411 . S
O118 C121 1.320 . S
O119 Cd116 2.333 . S
O119 C121 1.214 . S
O120 Cd116 2.352 . S
O120 C123 1.258 . S
C121 O118 1.320 . S
C121 O119 1.214 . S
O122 Cd114 2.277 . S
O122 C117 1.209 . S
C123 O120 1.258 . S
C123 O125 1.282 . S
O124 Cd116 2.277 . S
O124 C117 1.226 . S
O125 Cd116 2.356 . S
O125 C123 1.282 . S
C126 O127 1.305 1_554 S
C126 O129 1.160 . S
O127 C126 1.305 1_556 S
O127 Cd128 2.233 . S
Cd128 O127 2.233 . S
Cd128 O132 2.273 1_556 S
Cd128 O136 2.277 . S
O129 C126 1.160 . S
O129 Cd130 2.203 1_554 S
Cd130 O129 2.203 1_556 S
Cd130 O132 2.411 1_556 S
Cd130 O133 2.333 1_455 S
Cd130 O134 2.352 1_456 S
Cd130 O138 2.277 . S
Cd130 O139 2.356 1_456 S
C131 O136 1.209 . S
C131 O138 1.226 . S
O132 Cd128 2.273 1_554 S
O132 Cd130 2.411 1_554 S
O132 C135 1.319 1_454 S
O133 Cd130 2.333 1_655 S
O133 C135 1.216 . S
O134 Cd130 2.352 1_654 S
O134 C137 1.258 . S
C135 O132 1.319 1_656 S
C135 O133 1.216 . S
O136 Cd128 2.277 . S
O136 C131 1.209 . S
C137 O134 1.258 . S
C137 O139 1.282 . S
O138 Cd130 2.277 . S
O138 C131 1.226 . S
O139 Cd130 2.356 1_654 S
O139 C137 1.282 . S
C140 O141 1.306 . S
C140 O143 1.160 . S
O141 C140 1.306 . S
O141 Cd142 2.228 . S
Cd142 O141 2.228 . S
Cd142 O146 2.273 . S
Cd142 O150 2.277 . S
O143 C140 1.160 . S
O143 Cd144 2.203 . S
Cd144 O143 2.203 . S
Cd144 O146 2.411 . S
Cd144 O147 2.333 . S
Cd144 O148 2.352 . S
Cd144 O152 2.277 . S
Cd144 O153 2.356 . S
C145 O150 1.209 . S
C145 O152 1.226 . S
O146 Cd142 2.273 . S
O146 Cd144 2.411 . S
O146 C149 1.320 . S
O147 Cd144 2.333 . S
O147 C149 1.214 . S
O148 Cd144 2.352 . S
O148 C151 1.258 . S
C149 O146 1.320 . S
C149 O147 1.214 . S
O150 Cd142 2.277 . S
O150 C145 1.209 . S
C151 O148 1.258 . S
C151 O153 1.282 . S
O152 Cd144 2.277 . S
O152 C145 1.226 . S
O153 Cd144 2.356 . S
O153 C151 1.282 . S
C154 O155 1.306 . S
C154 O157 1.160 . S
O155 C154 1.306 . S
O155 Cd156 2.228 . S
Cd156 O155 2.228 . S
Cd156 O160 2.273 . S
Cd156 O164 2.277 . S
O157 C154 1.160 . S
O157 Cd158 2.203 . S
Cd158 O157 2.203 . S
Cd158 O160 2.411 . S
Cd158 O161 2.333 1_455 S
Cd158 O162 2.352 1_455 S
Cd158 O166 2.277 . S
Cd158 O167 2.356 1_455 S
C159 O164 1.209 . S
C159 O166 1.226 . S
O160 Cd156 2.273 . S
O160 Cd158 2.411 . S
O160 C163 1.320 1_455 S
O161 Cd158 2.333 1_655 S
O161 C163 1.214 . S
O162 Cd158 2.352 1_655 S
O162 C165 1.258 . S
C163 O160 1.320 1_655 S
C163 O161 1.214 . S
O164 Cd156 2.277 . S
O164 C159 1.209 . S
C165 O162 1.258 . S
C165 O167 1.282 . S
O166 Cd158 2.277 . S
O166 C159 1.226 . S
O167 Cd158 2.356 1_655 S
O167 C165 1.282 . S
C168 O169 1.305 1_556 S
C168 O171 1.160 . S
O169 C168 1.305 1_554 S
O169 Cd170 2.233 . S
Cd170 O169 2.233 . S
Cd170 O174 2.273 1_554 S
Cd170 O178 2.277 . S
O171 C168 1.160 . S
O171 Cd172 2.203 1_556 S
Cd172 O171 2.203 1_554 S
Cd172 O174 2.411 1_554 S
Cd172 O175 2.333 . S
Cd172 O176 2.352 1_554 S
Cd172 O180 2.277 . S
Cd172 O181 2.356 1_554 S
C173 O178 1.209 . S
C173 O180 1.226 . S
O174 Cd170 2.273 1_556 S
O174 Cd172 2.411 1_556 S
O174 C177 1.319 1_556 S
O175 Cd172 2.333 . S
O175 C177 1.216 . S
O176 Cd172 2.352 1_556 S
O176 C179 1.258 . S
C177 O174 1.319 1_554 S
C177 O175 1.216 . S
O178 Cd170 2.277 . S
O178 C173 1.209 . S
C179 O176 1.258 . S
C179 O181 1.282 . S
O180 Cd172 2.277 . S
O180 C173 1.226 . S
O181 Cd172 2.356 1_556 S
O181 C179 1.282 . S
C182 O183 1.306 . S
C182 O185 1.160 . S
O183 C182 1.306 . S
O183 Cd184 2.228 . S
Cd184 O183 2.228 . S
Cd184 O188 2.273 . S
Cd184 O192 2.277 . S
O185 C182 1.160 . S
O185 Cd186 2.203 . S
Cd186 O185 2.203 . S
Cd186 O188 2.411 . S
Cd186 O189 2.333 . S
Cd186 O190 2.352 . S
Cd186 O194 2.277 . S
Cd186 O195 2.356 . S
C187 O192 1.209 . S
C187 O194 1.226 . S
O188 Cd184 2.273 . S
O188 Cd186 2.411 . S
O188 C191 1.320 . S
O189 Cd186 2.333 . S
O189 C191 1.214 . S
O190 Cd186 2.352 . S
O190 C193 1.258 . S
C191 O188 1.320 . S
C191 O189 1.214 . S
O192 Cd184 2.277 . S
O192 C187 1.209 . S
C193 O190 1.258 . S
C193 O195 1.282 . S
O194 Cd186 2.277 . S
O194 C187 1.226 . S
O195 Cd186 2.356 . S
O195 C193 1.282 . S
C196 O197 1.306 . S
C196 O199 1.160 . S
O197 C196 1.306 . S
O197 Cd198 2.228 . S
Cd198 O197 2.228 . S
Cd198 O202 2.273 . S
Cd198 O206 2.277 . S
O199 C196 1.160 . S
O199 Cd200 2.203 . S
Cd200 O199 2.203 . S
Cd200 O202 2.411 . S
Cd200 O203 2.333 . S
Cd200 O204 2.352 . S
Cd200 O208 2.277 . S
Cd200 O209 2.356 . S
C201 O206 1.209 . S
C201 O208 1.226 . S
O202 Cd198 2.273 . S
O202 Cd200 2.411 . S
O202 C205 1.320 . S
O203 Cd200 2.333 . S
O203 C205 1.214 . S
O204 Cd200 2.352 . S
O204 C207 1.258 . S
C205 O202 1.320 . S
C205 O203 1.214 . S
O206 Cd198 2.277 . S
O206 C201 1.209 . S
C207 O204 1.258 . S
C207 O209 1.282 . S
O208 Cd200 2.277 . S
O208 C201 1.226 . S
O209 Cd200 2.356 . S
O209 C207 1.282 . S
C210 O211 1.306 . S
C210 O213 1.160 . S
O211 C210 1.306 . S
O211 Cd212 2.228 . S
Cd212 O211 2.228 . S
Cd212 O216 2.273 . S
Cd212 O220 2.277 . S
O213 C210 1.160 . S
O213 Cd214 2.203 . S
Cd214 O213 2.203 . S
Cd214 O216 2.411 . S
Cd214 O217 2.333 . S
Cd214 O218 2.352 . S
Cd214 O222 2.277 . S
Cd214 O223 2.356 . S
C215 O220 1.209 . S
C215 O222 1.226 . S
O216 Cd212 2.273 . S
O216 Cd214 2.411 . S
O216 C219 1.320 . S
O217 Cd214 2.333 . S
O217 C219 1.214 . S
O218 Cd214 2.352 . S
O218 C221 1.258 . S
C219 O216 1.320 . S
C219 O217 1.214 . S
O220 Cd212 2.277 . S
O220 C215 1.209 . S
C221 O218 1.258 . S
C221 O223 1.282 . S
O222 Cd214 2.277 . S
O222 C215 1.226 . S
O223 Cd214 2.356 . S
O223 C221 1.282 . S
C11 C109 1.899 . S
C25 C67 1.899 . S
C81 C39 1.899 . S
C53 C95 1.899 . S
C123 C179 1.899 . S
C137 C207 1.899 . S
C165 C151 1.899 . S
C221 C193 1.899 . S
C9 C93 2.131 . S
C103 C19 1.339 1_565 S
C37 C65 2.131 1_556 S
C75 C47 1.339 1_545 S
C0 C196 1.064 . S
C163 C23 2.131 1_655 S
C182 C28 1.064 1_655 S
C177 C51 2.131 . S
C140 C56 1.064 . S
C79 C219 2.131 . S
C84 C112 1.064 1_455 S
C107 C135 2.131 1_455 S
C5 C61 1.338 . S
C117 C187 1.338 1_545 S
C168 C126 1.064 1_556 S
C201 C145 1.338 1_545 S
C98 C42 1.064 1_554 S
C33 C89 1.338 . S
C154 C210 1.064 . S
C191 C149 2.131 1_556 S
C215 C173 1.339 . S
C205 C121 2.131 . S
C159 C131 1.339 . S
C14 C70 1.064 . S
