# Generated by pormake.
# Topology snz, (6)-cn, num edge types: 1
# Building blocks:
#     Node 0, Type 0, BuildingBlock: CUKXOW_clean_sbu_0, # of connection points: 6
#     Node 1, Type 0, BuildingBlock: CUKXOW_clean_sbu_0, # of connection points: 6
#     Node 2, Type 0, BuildingBlock: CUKXOW_clean_sbu_0, # of connection points: 6
#     Node 3, Type 0, BuildingBlock: CUKXOW_clean_sbu_0, # of connection points: 6
#     Node 4, Type 0, BuildingBlock: CUKXOW_clean_sbu_0, # of connection points: 6
#     Node 5, Type 0, BuildingBlock: CUKXOW_clean_sbu_0, # of connection points: 6
#     Node 6, Type 0, BuildingBlock: CUKXOW_clean_sbu_0, # of connection points: 6
#     Node 7, Type 0, BuildingBlock: CUKXOW_clean_sbu_0, # of connection points: 6
#     Node 8, Type 0, BuildingBlock: CUKXOW_clean_sbu_0, # of connection points: 6
#     Edge 9, Type (0, 0), BuildingBlock: XUDNAN_clean_linker_2, # of connection points: 2
#     Edge 10, Type (0, 0), BuildingBlock: XUDNAN_clean_linker_2, # of connection points: 2
#     Edge 11, Type (0, 0), BuildingBlock: XUDNAN_clean_linker_2, # of connection points: 2
#     Edge 12, Type (0, 0), BuildingBlock: XUDNAN_clean_linker_2, # of connection points: 2
#     Edge 13, Type (0, 0), BuildingBlock: XUDNAN_clean_linker_2, # of connection points: 2
#     Edge 14, Type (0, 0), BuildingBlock: XUDNAN_clean_linker_2, # of connection points: 2
#     Edge 15, Type (0, 0), BuildingBlock: XUDNAN_clean_linker_2, # of connection points: 2
#     Edge 16, Type (0, 0), BuildingBlock: XUDNAN_clean_linker_2, # of connection points: 2
#     Edge 17, Type (0, 0), BuildingBlock: XUDNAN_clean_linker_2, # of connection points: 2
#     Edge 18, Type (0, 0), BuildingBlock: XUDNAN_clean_linker_2, # of connection points: 2
#     Edge 19, Type (0, 0), BuildingBlock: XUDNAN_clean_linker_2, # of connection points: 2
#     Edge 20, Type (0, 0), BuildingBlock: XUDNAN_clean_linker_2, # of connection points: 2
#     Edge 21, Type (0, 0), BuildingBlock: XUDNAN_clean_linker_2, # of connection points: 2
#     Edge 22, Type (0, 0), BuildingBlock: XUDNAN_clean_linker_2, # of connection points: 2
#     Edge 23, Type (0, 0), BuildingBlock: XUDNAN_clean_linker_2, # of connection points: 2
#     Edge 24, Type (0, 0), BuildingBlock: XUDNAN_clean_linker_2, # of connection points: 2
#     Edge 25, Type (0, 0), BuildingBlock: XUDNAN_clean_linker_2, # of connection points: 2
#     Edge 26, Type (0, 0), BuildingBlock: XUDNAN_clean_linker_2, # of connection points: 2
#     Edge 27, Type (0, 0), BuildingBlock: XUDNAN_clean_linker_2, # of connection points: 2
#     Edge 28, Type (0, 0), BuildingBlock: XUDNAN_clean_linker_2, # of connection points: 2
#     Edge 29, Type (0, 0), BuildingBlock: XUDNAN_clean_linker_2, # of connection points: 2
#     Edge 30, Type (0, 0), BuildingBlock: XUDNAN_clean_linker_2, # of connection points: 2
#     Edge 31, Type (0, 0), BuildingBlock: XUDNAN_clean_linker_2, # of connection points: 2
#     Edge 32, Type (0, 0), BuildingBlock: XUDNAN_clean_linker_2, # of connection points: 2
#     Edge 33, Type (0, 0), BuildingBlock: XUDNAN_clean_linker_2, # of connection points: 2
#     Edge 34, Type (0, 0), BuildingBlock: XUDNAN_clean_linker_2, # of connection points: 2
#     Edge 35, Type (0, 0), BuildingBlock: XUDNAN_clean_linker_2, # of connection points: 2
# Relax obj value: 0.106
# Max RMSD: 0.185
# Mean RMSD: 0.132
data_MOF--net-snz--node1-CUKXOW_clean_sbu_0--edge1-XUDNAN_clean_linker_2
_symmetry_space_group_name_H-M    P1
_symmetry_Int_Tables_number       1
_symmetry_cell_setting            triclinic
loop_
_symmetry_equiv_pos_as_xyz
'x, y, z'
_cell_length_a     49.987387
_cell_length_b     56.353265
_cell_length_c     14.45938
_cell_angle_alpha  93.295304
_cell_angle_beta   93.304584
_cell_angle_gamma 120.24039
loop_
_atom_site_label
_atom_site_type_symbol
_atom_site_fract_x
_atom_site_fract_y
_atom_site_fract_z
_atom_type_partial_charge
Tb0 Tb 0.04037 0.43489 0.89268 0.0
C1 C 0.08993 0.46911 0.75853 0.0
Tb2 Tb 0.09174 0.49048 0.95796 0.0
O3 O 1.00575 0.44674 0.91403 0.0
O4 O 0.04872 0.47556 0.87443 0.0
O5 O 0.07191 0.44438 0.78563 0.0
C6 C 0.12986 0.54054 0.04516 0.0
O7 O 0.09766 0.492 0.81115 0.0
C8 C 0.10902 0.45315 0.95323 0.0
C9 C 0.048 0.45417 0.09935 0.0
O10 O 0.11171 0.5355 0.96958 0.0
O11 O 0.12649 0.51766 0.07029 0.0
O12 O 0.12677 0.47872 0.93831 0.0
O13 O 0.08344 0.45003 0.97531 0.0
O14 O 0.06206 0.47923 0.07173 0.0
O15 O 0.03965 0.43235 0.04022 0.0
C16 C 1.00313 0.38319 0.81522 0.0
O17 O 1.01435 0.39026 0.90176 0.0
O18 O 1.01287 0.40518 0.77229 0.0
C19 C 0.02333 0.47227 0.89884 0.0
Tb20 Tb 0.60643 0.50174 0.99676 0.0
C21 C 0.60542 0.46519 0.14978 0.0
Tb22 Tb 0.59253 0.44274 0.93996 0.0
O23 O 0.56016 0.49308 0.03079 0.0
O24 O 0.56762 0.46163 0.98614 0.0
O25 O 0.61999 0.49065 0.12497 0.0
C26 C 0.57695 0.39009 0.91427 0.0
O27 O 0.59088 0.44313 0.08849 0.0
C28 C 0.64716 0.4838 0.90173 0.0
C29 C 0.57613 0.47261 0.79606 0.0
O30 O 0.60137 0.40932 0.96551 0.0
O31 O 0.56105 0.40041 0.87876 0.0
O32 O 0.63158 0.46007 0.85272 0.0
O33 O 0.63309 0.48277 0.97228 0.0
O34 O 0.56718 0.44837 0.82703 0.0
O35 O 0.59562 0.49634 0.84617 0.0
C36 C 0.63874 0.55632 0.02526 0.0
O37 O 0.63268 0.54213 0.94518 0.0
O38 O 0.62641 0.53985 0.08909 0.0
C39 C 0.54713 0.46643 0.01395 0.0
Tb40 Tb 0.62166 0.98973 0.1307 0.0
C41 C 0.62337 0.95306 0.96281 0.0
Tb42 Tb 0.64378 0.94877 0.16402 0.0
O43 O 0.65689 0.01258 0.03946 0.0
O44 O 0.66576 0.99172 0.14089 0.0
O45 O 0.6066 0.96281 -0.00038 0.0
C46 C 0.67402 0.92298 0.22034 0.0
O47 O 0.64123 0.94698 0.01514 0.0
C48 C 0.58289 0.92957 0.16621 0.0
C49 C 0.65344 0.99296 0.32783 0.0
O50 O 0.67927 0.93671 0.14772 0.0
O51 O 0.65151 0.92343 0.2592 0.0
O52 O 0.59449 0.91456 0.13909 0.0
O53 O 0.60532 0.95304 0.19513 0.0
O54 O 0.66256 0.97637 0.29148 0.0
O55 O 0.63523 0.99979 0.28018 0.0
C56 C 0.58843 0.01439 0.11499 0.0
O57 O 0.61842 0.02709 0.13513 0.0
O58 O 0.57716 0.98788 0.10508 0.0
C59 C 0.67589 0.00486 0.07016 0.0
Tb60 Tb 0.81535 0.79861 0.35194 0.0
C61 C 0.86367 0.83253 0.21499 0.0
Tb62 Tb 0.86511 0.85915 0.40658 0.0
O63 O 0.78027 0.80823 0.39075 0.0
O64 O 0.81939 0.83804 0.3341 0.0
O65 O 0.84756 0.80829 0.24738 0.0
C66 C 0.89306 0.91331 0.44801 0.0
O67 O 0.86811 0.85562 0.25895 0.0
C68 C 0.88919 0.82743 0.43688 0.0
C69 C 0.83218 0.81938 0.5591 0.0
O70 O 0.90393 0.90074 0.3987 0.0
O71 O 0.86613 0.89543 0.4729 0.0
O72 O 0.90471 0.85413 0.45344 0.0
O73 O 0.86211 0.82075 0.40537 0.0
O74 O 0.84324 0.84467 0.53349 0.0
O75 O 0.82234 0.79737 0.49887 0.0
C76 C 0.77912 0.74898 0.26198 0.0
O77 O 0.79114 0.75356 0.34796 0.0
O78 O 0.78739 0.77216 0.22776 0.0
C79 C 0.79476 0.83334 0.36899 0.0
Tb80 Tb 0.3171 0.84888 0.37668 0.0
C81 C 0.33038 0.81574 0.51619 0.0
Tb82 Tb 0.30356 0.78814 0.31483 0.0
O83 O 0.26915 0.8351 0.41635 0.0
O84 O 0.28045 0.80772 0.36525 0.0
O85 O 0.34177 0.84008 0.48356 0.0
C86 C 0.27189 0.73385 0.27477 0.0
O87 O 0.30975 0.79234 0.46617 0.0
C88 C 0.36224 0.82585 0.29576 0.0
C89 C 0.30429 0.82702 0.16595 0.0
O90 O 0.29427 0.74706 0.34133 0.0
O91 O 0.26755 0.75119 0.23043 0.0
O92 O 0.3502 0.7994 0.27506 0.0
O93 O 0.34095 0.82912 0.32597 0.0
O94 O 0.29152 0.80122 0.18831 0.0
O95 O 0.31778 0.84914 0.22776 0.0
C96 C 0.33856 0.90076 0.4442 0.0
O97 O 0.32818 0.89114 0.35754 0.0
O98 O 0.33799 0.8815 0.4905 0.0
C99 C 0.2583 0.809 0.39613 0.0
Tb100 Tb 0.27132 0.35137 0.19623 0.0
C101 C 0.2739 0.31652 0.02065 0.0
Tb102 Tb 0.28888 0.30822 0.22385 0.0
O103 O 0.32037 0.38545 0.20941 0.0
O104 O 0.30865 0.34566 0.16217 0.0
O105 O 0.25949 0.32871 0.05683 0.0
C106 C 0.31269 0.27658 0.26832 0.0
O107 O 0.29091 0.30989 0.07515 0.0
C108 C 0.22942 0.29146 0.23529 0.0
C109 C 0.30137 0.3527 0.3903 0.0
O110 O 0.29056 0.27021 0.20343 0.0
O111 O 0.322 0.30113 0.30724 0.0
O112 O 0.23979 0.27613 0.20328 0.0
O113 O 0.25244 0.31463 0.26578 0.0
O114 O 0.30915 0.33534 0.35221 0.0
O115 O 0.28244 0.35928 0.34583 0.0
C116 C 0.23178 0.36948 0.15735 0.0
O117 O 0.22439 0.3452 0.18036 0.0
O118 O 0.2619 0.38407 0.15723 0.0
C119 C 0.33139 0.36941 0.18799 0.0
Tb120 Tb 0.41404 0.14715 0.68653 0.0
C121 C 0.4853 0.19334 0.7322 0.0
Tb122 Tb 0.46475 0.13117 0.73142 0.0
O123 O 0.3942 0.13365 0.81772 0.0
O124 O 0.44064 0.14708 0.8092 0.0
O125 O 0.45815 0.18567 0.68447 0.0
C126 C 0.4894 0.10822 0.83579 0.0
O127 O 0.492 0.17548 0.76779 0.0
C128 C 0.45528 0.13409 0.54818 0.0
C129 C 0.39507 0.08531 0.6652 0.0
O130 O 0.50507 0.12781 0.78306 0.0
O131 O 0.46061 0.10198 0.82843 0.0
O132 O 0.47552 0.12801 0.58309 0.0
O133 O 0.44296 0.13744 0.61708 0.0
O134 O 0.4213 0.092 0.71509 0.0
O135 O 0.38874 0.10369 0.63354 0.0
C136 C 0.38076 0.16661 0.60383 0.0
O137 O 0.37684 0.14221 0.58576 0.0
O138 O 0.40292 0.17992 0.67092 0.0
C139 C 0.41895 0.13586 0.86175 0.0
Tb140 Tb 0.91582 0.13219 0.66247 0.0
C141 C 0.95664 0.10389 0.63687 0.0
Tb142 Tb 0.98839 0.16852 0.64139 0.0
O143 O 0.90082 0.12481 0.50788 0.0
O144 O 0.9461 0.14509 0.55981 0.0
O145 O 0.93074 0.10209 0.66286 0.0
C146 C 0.03967 0.19468 0.55176 0.0
O147 O 0.98112 0.12722 0.61829 0.0
C148 C 0.97339 0.15694 0.8154 0.0
C149 C 0.94612 0.19565 0.65064 0.0
O150 O 1.01664 0.1697 0.53069 0.0
O151 O 0.03442 0.20522 0.62656 0.0
O152 O 1.00048 0.16422 0.78585 0.0
O153 O 0.95786 0.16026 0.74982 0.0
O154 O 0.97114 0.19667 0.61905 0.0
O155 O 0.92377 0.17383 0.68573 0.0
C156 C 0.86649 0.10014 0.7527 0.0
O157 O 0.86699 0.11645 0.6913 0.0
O158 O 0.89341 0.10195 0.76161 0.0
C159 C 0.92921 0.13809 0.4839 0.0
Tb160 Tb 0.98868 0.66261 0.63537 0.0
C161 C 0.9591 0.6015 0.68668 0.0
Tb162 Tb 0.91568 0.62737 0.65262 0.0
O163 O 1.00043 0.66418 0.78739 0.0
O164 O 0.95715 0.65654 0.73687 0.0
O165 O 0.9817 0.62135 0.64523 0.0
C166 C 0.85928 0.60323 0.71888 0.0
O167 O 0.93336 0.60163 0.70494 0.0
C168 C 0.92796 0.6263 0.47402 0.0
C169 C 0.94512 0.6889 0.60014 0.0
O170 O 0.86989 0.59081 0.66711 0.0
O171 O 0.88056 0.62924 0.73362 0.0
O172 O 0.90049 0.61384 0.50353 0.0
O173 O 0.94677 0.63773 0.54705 0.0
O174 O 0.92047 0.66715 0.62802 0.0
O175 O 0.97256 0.69055 0.5935 0.0
C176 C 0.04475 0.68864 0.56829 0.0
O177 O 0.03528 0.69938 0.63143 0.0
O178 O 0.02253 0.66339 0.54309 0.0
C179 C 0.97259 0.65663 0.80981 0.0
H180 H 0.09272 0.50522 0.63734 0.0
H181 H 0.10165 0.43321 0.66449 0.0
H182 H 0.09356 0.42286 0.49437 0.0
H183 H 0.03304 0.47721 0.4779 0.0
H184 H 0.04417 0.50519 0.40598 0.0
H185 H 0.05907 0.51236 0.5267 0.0
H186 H 0.11592 0.53806 0.48446 0.0
H187 H 0.10134 0.53231 0.3634 0.0
H188 H 0.12816 0.52143 0.40072 0.0
H189 H 0.07068 0.41317 0.33396 0.0
H190 H 0.0496 0.41192 0.17531 0.0
H191 H 0.05747 0.49138 0.24633 0.0
C192 C 0.09491 0.48834 0.6068 0.0
C193 C 0.09769 0.46992 0.6628 0.0
C194 C 0.09951 0.44746 0.62174 0.0
C195 C 0.0948 0.44136 0.52547 0.0
C196 C 0.08903 0.45833 0.47213 0.0
C197 C 0.0904 0.48205 0.51031 0.0
C198 C 0.08059 0.4952 0.43745 0.0
C199 C 0.05256 0.49761 0.46365 0.0
C200 C 0.10815 0.52342 0.42048 0.0
C201 C 0.07164 0.47414 0.35452 0.0
C202 C 0.07662 0.45307 0.37652 0.0
C203 C 0.06764 0.42998 0.31453 0.0
C204 C 0.05508 0.42924 0.22512 0.0
C205 C 0.05211 0.45169 0.19859 0.0
C206 C 0.05967 0.47404 0.26488 0.0
H207 H 0.61179 0.51059 0.68254 0.0
H208 H 0.52553 0.43282 0.68683 0.0
H209 H 0.52314 0.42369 0.51725 0.0
H210 H 0.5927 0.52557 0.43937 0.0
H211 H 0.63275 0.54005 0.41624 0.0
H212 H 0.62341 0.54353 0.53296 0.0
H213 H 0.65541 0.52158 0.58961 0.0
H214 H 0.66357 0.51669 0.47289 0.0
H215 H 0.64492 0.48758 0.53998 0.0
H216 H 0.53645 0.41762 0.36156 0.0
H217 H 0.5574 0.42004 0.21109 0.0
H218 H 0.63484 0.50239 0.30416 0.0
C219 C 0.59151 0.49246 0.64689 0.0
C220 C 0.56885 0.47235 0.6968 0.0
C221 C 0.54307 0.4484 0.64897 0.0
C222 C 0.54158 0.44301 0.55298 0.0
C223 C 0.56582 0.46202 0.50672 0.0
C224 C 0.58975 0.48675 0.55098 0.0
C225 C 0.61437 0.50226 0.48647 0.0
C226 C 0.61588 0.52946 0.46761 0.0
C227 C 0.64644 0.5073 0.52456 0.0
C228 C 0.60117 0.48171 0.40084 0.0
C229 C 0.57326 0.45866 0.41446 0.0
C230 C 0.5578 0.43587 0.34866 0.0
C231 C 0.57026 0.4373 0.26404 0.0
C232 C 0.5977 0.46153 0.24595 0.0
C233 C 0.61374 0.48371 0.31611 0.0
H234 H 0.59303 0.96465 0.82172 0.0
H235 H 0.67236 0.95417 0.88627 0.0
H236 H 0.69327 0.97315 0.74236 0.0
H237 H 0.58417 0.94272 0.57673 0.0
H238 H 0.57224 0.96643 0.54117 0.0
H239 H 0.56459 0.95381 0.6538 0.0
H240 H 0.59354 0.00446 0.72951 0.0
H241 H 0.60226 0.01712 0.61693 0.0
H242 H 0.63331 0.02744 0.70806 0.0
H243 H 0.7067 0.99334 0.59592 0.0
H244 H 0.70477 0.00169 0.43166 0.0
H245 H 0.61563 0.99635 0.45061 0.0
C246 C 0.61454 0.96599 0.80477 0.0
C247 C 0.63102 0.95805 0.86611 0.0
C248 C 0.65904 0.95997 0.84094 0.0
C249 C 0.67155 0.97123 0.75984 0.0
C250 C 0.65555 0.98001 0.70325 0.0
C251 C 0.62713 0.97663 0.72232 0.0
C252 C 0.61333 0.98504 0.64356 0.0
C253 C 0.58173 0.96054 0.60129 0.0
C254 C 0.61044 0.01 0.67653 0.0
C255 C 0.63813 0.99289 0.57659 0.0
C256 C 0.66277 0.99079 0.61461 0.0
C257 C 0.68773 0.9953 0.56536 0.0
C258 C 0.6865 1.00017 0.47225 0.0
C259 C 0.66009 0.99966 0.42901 0.0
C260 C 0.63642 0.99753 0.48288 0.0
H261 H 0.84327 0.8567 0.7046 0.0
H262 H 0.83613 0.77764 0.63266 0.0
H263 H 0.85628 0.77848 0.79298 0.0
H264 H 0.91439 0.88625 0.86672 0.0
H265 H 0.90089 0.90313 0.94489 0.0
H266 H 0.88904 0.89788 0.82172 0.0
H267 H 0.83079 0.87182 0.8527 0.0
H268 H 0.84261 0.878 0.97538 0.0
H269 H 0.81688 0.84321 0.92282 0.0
H270 H 0.87292 0.78592 0.9596 0.0
H271 H 0.87455 0.79458 0.12898 0.0
H272 H 0.8725 0.86951 0.09186 0.0
C273 C 0.84592 0.83955 0.72269 0.0
C274 C 0.83823 0.81715 0.65692 0.0
C275 C 0.84162 0.7949 0.68276 0.0
C276 C 0.85369 0.79547 0.77286 0.0
C277 C 0.86227 0.81848 0.83512 0.0
C278 C 0.85798 0.83984 0.81177 0.0
C279 C 0.86563 0.86059 0.89409 0.0
C280 C 0.89419 0.88862 0.88103 0.0
C281 C 0.83729 0.86354 0.91235 0.0
C282 C 0.87306 0.84664 0.96894 0.0
C283 C 0.87213 0.82291 0.93273 0.0
C284 C 0.87429 0.80464 0.98897 0.0
C285 C 0.87513 0.8097 0.08482 0.0
C286 C 0.87339 0.83259 0.12212 0.0
C287 C 0.87443 0.85219 0.0645 0.0
H288 H 0.29175 0.78013 0.63142 0.0
H289 H 0.38207 0.85382 0.62536 0.0
H290 H 0.38468 0.86451 0.79417 0.0
H291 H 0.26236 0.80803 0.77434 0.0
H292 H 0.24166 0.77932 0.84172 0.0
H293 H 0.24886 0.77332 0.72468 0.0
H294 H 0.27694 0.74786 0.78087 0.0
H295 H 0.26849 0.75252 0.89775 0.0
H296 H 0.30803 0.76428 0.87399 0.0
H297 H 0.37284 0.87244 0.95127 0.0
H298 H 0.35355 0.87099 0.10456 0.0
H299 H 0.27126 0.79161 0.01114 0.0
C300 C 0.31277 0.79766 0.6666 0.0
C301 C 0.33667 0.81623 0.61624 0.0
C302 C 0.36353 0.83942 0.66352 0.0
C303 C 0.36515 0.84574 0.75902 0.0
C304 C 0.33993 0.82836 0.80552 0.0
C305 C 0.31475 0.80426 0.76208 0.0
C306 C 0.28985 0.79029 0.82717 0.0
C307 C 0.25887 0.7876 0.78968 0.0
C308 C 0.28559 0.76207 0.8461 0.0
C309 C 0.30459 0.81088 0.91248 0.0
C310 C 0.33333 0.83276 0.89803 0.0
C311 C 0.35069 0.85515 0.96452 0.0
C312 C 0.33922 0.85437 0.05067 0.0
C313 C 0.31091 0.83116 0.06923 0.0
C314 C 0.29297 0.80956 0.99843 0.0
H315 H 0.26894 0.36226 0.51711 0.0
H316 H 0.35273 0.35877 0.48697 0.0
H317 H 0.35686 0.353 0.65319 0.0
H318 H 0.29264 0.39554 0.77633 0.0
H319 H 0.25264 0.3752 0.8003 0.0
H320 H 0.2617 0.38778 0.68771 0.0
H321 H 0.227 0.33746 0.61025 0.0
H322 H 0.21872 0.32481 0.72251 0.0
H323 H 0.23583 0.31157 0.64358 0.0
H324 H 0.3427 0.33281 0.7993 0.0
H325 H 0.32034 0.31326 0.94186 0.0
H326 H 0.24656 0.3315 0.8841 0.0
C327 C 0.28921 0.36211 0.5471 0.0
C328 C 0.31036 0.36069 0.49007 0.0
C329 C 0.33623 0.35972 0.53019 0.0
C330 C 0.33876 0.35643 0.62441 0.0
C331 C 0.31567 0.35491 0.67718 0.0
C332 C 0.29214 0.35898 0.64159 0.0
C333 C 0.2683 0.35294 0.71047 0.0
C334 C 0.26887 0.37945 0.74584 0.0
C335 C 0.23548 0.33037 0.66912 0.0
C336 C 0.28076 0.34264 0.78613 0.0
C337 C 0.30813 0.34408 0.76549 0.0
C338 C 0.32201 0.33265 0.81855 0.0
C339 C 0.30866 0.32101 0.89839 0.0
C340 C 0.28185 0.32117 0.92473 0.0
C341 C 0.26726 0.33141 0.86629 0.0
H342 H 0.47638 0.12204 0.38576 0.0
H343 H 0.41918 0.15392 0.4834 0.0
H344 H 0.4043 0.15749 0.32183 0.0
H345 H 0.50489 0.16687 0.19635 0.0
H346 H 0.50453 0.1409 0.1165 0.0
H347 H 0.51055 0.14024 0.24022 0.0
H348 H 0.46418 0.0901 0.22738 0.0
H349 H 0.45795 0.09076 0.10384 0.0
H350 H 0.42664 0.08239 0.17554 0.0
H351 H 0.39345 0.15583 0.15029 0.0
H352 H 0.38979 0.15218 0.97928 0.0
H353 H 0.45714 0.12509 0.98364 0.0
C354 C 0.46078 0.12982 0.37289 0.0
C355 C 0.44825 0.13708 0.44828 0.0
C356 C 0.42822 0.1474 0.42777 0.0
C357 C 0.41987 0.14974 0.33572 0.0
C358 C 0.4321 0.1421 0.26322 0.0
C359 C 0.45244 0.13264 0.28024 0.0
C360 C 0.46239 0.1263 0.18819 0.0
C361 C 0.49769 0.14468 0.18517 0.0
C362 C 0.45218 0.09556 0.17287 0.0
C363 C 0.44442 0.13364 0.11738 0.0
C364 C 0.42692 0.14242 0.16297 0.0
C365 C 0.4073 0.14924 0.11402 0.0
C366 C 0.40535 0.14703 0.0163 0.0
C367 C 0.42322 0.13849 0.96662 0.0
C368 C 0.44333 0.13193 0.01861 0.0
H369 H 0.89845 0.11139 0.30785 0.0
H370 H 0.98231 0.18318 0.44116 0.0
H371 H 1.00161 0.19559 0.28767 0.0
H372 H 0.93376 0.09426 0.12478 0.0
H373 H 0.90253 0.08459 0.03509 0.0
H374 H 0.89455 0.081 0.15497 0.0
H375 H 0.86926 0.11093 0.14307 0.0
H376 H 0.87714 0.11507 0.02317 0.0
H377 H 0.89105 0.14502 0.10559 0.0
H378 H 1.01357 0.19914 0.11936 0.0
H379 H 1.01583 0.19535 0.94945 0.0
H380 H 0.92332 0.12296 0.91737 0.0
C381 C 0.92087 0.12974 0.30461 0.0
C382 C 0.93941 0.14578 0.38817 0.0
C383 C 0.96834 0.16979 0.37973 0.0
C384 C 0.97932 0.17723 0.29216 0.0
C385 C 0.96104 0.1607 0.21169 0.0
C386 C 0.93222 0.13758 0.21671 0.0
C387 C 0.91729 0.12361 0.11853 0.0
C388 C 0.9117 0.09412 0.10773 0.0
C389 C 0.88687 0.12366 0.09631 0.0
C390 C 0.94229 0.14234 0.05797 0.0
C391 C 0.96735 0.16353 0.11372 0.0
C392 C 0.99386 0.18281 0.07527 0.0
C393 C 0.99495 0.18046 0.9781 0.0
C394 C 0.96964 0.1592 0.91822 0.0
C395 C 0.94282 0.13992 0.95959 0.0
H396 H 0.9822 0.6577 0.37769 0.0
H397 H 0.88302 0.59809 0.33478 0.0
H398 H 0.88422 0.59974 0.16665 0.0
H399 H 0.98368 0.69848 0.19036 0.0
H400 H 0.02002 0.70433 0.15206 0.0
H401 H 1.0126 0.69879 0.27175 0.0
H402 H 0.02314 0.65838 0.25906 0.0
H403 H 0.03072 0.66382 0.1394 0.0
H404 H 1.00159 0.63037 0.16855 0.0
H405 H 0.89398 0.60815 0.00245 0.0
H406 H 0.91348 0.62126 0.84999 0.0
H407 H 1.00675 0.67442 0.9853 0.0
C408 C 0.96088 0.64483 0.33276 0.0
C409 C 0.93241 0.62774 0.3714 0.0
C410 C 0.90516 0.61144 0.30883 0.0
C411 C 0.90549 0.61219 0.2122 0.0
C412 C 0.9334 0.62924 0.17632 0.0
C413 C 0.96078 0.64512 0.2339 0.0
C414 C 0.98741 0.66139 0.17421 0.0
C415 C 1.00178 0.69261 0.19857 0.0
C416 C 1.01219 0.65299 0.18603 0.0
C417 C 0.97048 0.65223 0.0754 0.0
C418 C 0.93926 0.63377 0.07922 0.0
C419 C 0.91842 0.62264 -0.00134 0.0
C420 C 0.92962 0.63046 0.91182 0.0
C421 C 0.96143 0.6492 0.90443 0.0
C422 C 0.9822 0.66004 0.98802 0.0
H423 H 0.24203 0.41742 0.08455 0.0
H424 H 0.16956 0.34029 0.17002 0.0
H425 H 0.13013 0.35252 0.1229 0.0
H426 H 0.20977 0.45922 0.15997 0.0
H427 H 0.22079 0.47957 0.0624 0.0
H428 H 0.24338 0.4648 0.10324 0.0
H429 H 0.23569 0.44067 0.93778 0.0
H430 H 0.21291 0.45524 0.89661 0.0
H431 H 0.19684 0.41841 0.88175 0.0
H432 H 0.09834 0.37324 0.06804 0.0
H433 H 0.0769 0.40153 0.01144 0.0
H434 H 0.16943 0.46475 0.95789 0.0
C435 C 0.21788 0.40321 0.09364 0.0
C436 C 0.20886 0.37793 0.13126 0.0
C437 C 0.17701 0.35979 0.14151 0.0
C438 C 0.1544 0.36652 0.11479 0.0
C439 C 0.16392 0.39147 0.07734 0.0
C440 C 0.19488 0.40957 0.06673 0.0
C441 C 0.19877 0.43504 0.02447 0.0
C442 C 0.21939 0.4612 0.09154 0.0
C443 C 0.21182 0.43747 0.92951 0.0
C444 C 0.16526 0.42849 0.01365 0.0
C445 C 0.14551 0.40324 0.04449 0.0
C446 C 0.11358 0.39301 0.04333 0.0
C447 C 0.10157 0.40917 0.0109 0.0
C448 C 0.12142 0.43524 0.97989 0.0
C449 C 0.15362 0.4448 0.98047 0.0
H450 H 0.66642 0.58614 0.19206 0.0
H451 H 0.65649 0.59351 0.89676 0.0
H452 H 0.69165 0.64411 0.92584 0.0
H453 H 0.66975 0.64874 0.27777 0.0
H454 H 0.69893 0.65675 0.37268 0.0
H455 H 0.67221 0.62134 0.32865 0.0
H456 H 0.71865 0.61442 0.29999 0.0
H457 H 0.74555 0.64984 0.34352 0.0
H458 H 0.74783 0.63695 0.22902 0.0
H459 H 0.72682 0.69339 0.98731 0.0
H460 H 0.76176 0.73865 0.07643 0.0
H461 H 0.75099 0.69871 0.3307 0.0
C462 C 0.67147 0.5985 0.13379 0.0
C463 C 0.65869 0.58628 0.04241 0.0
C464 C 0.66609 0.60277 0.96731 0.0
C465 C 0.68597 0.6314 0.98315 0.0
C466 C 0.6984 0.64288 0.07421 0.0
C467 C 0.69164 0.62697 0.14819 0.0
C468 C 0.70889 0.64429 0.23876 0.0
C469 C 0.68607 0.64269 0.30855 0.0
C470 C 0.73158 0.63587 0.28023 0.0
C471 C 0.72611 0.67253 0.20431 0.0
C472 C 0.71963 0.67123 0.10924 0.0
C473 C 0.73224 0.69469 0.06164 0.0
C474 C 0.75198 0.72023 0.11275 0.0
C475 C 0.75898 0.72192 0.20997 0.0
C476 C 0.74608 0.69781 0.25622 0.0
H477 H 0.53177 0.87663 0.1314 0.0
H478 H 0.5599 0.95902 0.2521 0.0
H479 H 0.50641 0.94256 0.29268 0.0
H480 H 0.45329 0.85761 0.03731 0.0
H481 H 0.43626 0.82246 0.0655 0.0
H482 H 0.4763 0.8412 0.04074 0.0
H483 H 0.49334 0.83132 0.19967 0.0
H484 H 0.45338 0.81261 0.22487 0.0
H485 H 0.48208 0.84109 0.30491 0.0
H486 H 0.4488 0.91625 0.32417 0.0
H487 H 0.39385 0.88226 0.34655 0.0
H488 H 0.40415 0.81713 0.21077 0.0
C489 C 0.52657 0.89125 0.16542 0.0
C490 C 0.55006 0.91929 0.18688 0.0
C491 C 0.54228 0.9376 0.23299 0.0
C492 C 0.51189 0.92839 0.25685 0.0
C493 C 0.48927 0.90063 0.23501 0.0
C494 C 0.4963 0.88232 0.19048 0.0
C495 C 0.46809 0.85333 0.17809 0.0
C496 C 0.45789 0.84305 0.07424 0.0
C497 C 0.47462 0.83342 0.22999 0.0
C498 C 0.44426 0.85812 0.22317 0.0
C499 C 0.45673 0.88556 0.25502 0.0
C500 C 0.43888 0.89471 0.29936 0.0
C501 C 0.40768 0.87531 0.31185 0.0
C502 C 0.3947 0.84706 0.28082 0.0
C503 C 0.41337 0.83859 0.23559 0.0
H504 H 0.60779 0.06311 0.03934 0.0
H505 H 0.52783 0.99466 0.14059 0.0
H506 H 0.49537 0.01436 0.09279 0.0
H507 H 0.58774 0.11724 0.09311 0.0
H508 H 0.60072 0.13265 0.98658 0.0
H509 H 0.61886 0.11565 0.04151 0.0
H510 H 0.60658 0.08424 0.88837 0.0
H511 H 0.58825 0.10098 0.83322 0.0
H512 H 0.56696 0.06404 0.83591 0.0
H513 H 0.47111 0.03922 0.02632 0.0
H514 H 0.45481 0.06609 0.93556 0.0
H515 H 0.54938 0.11742 0.86563 0.0
C516 C 0.58365 0.05279 0.05366 0.0
C517 C 0.57025 0.02773 0.09518 0.0
C518 C 0.53841 0.01408 0.10984 0.0
C519 C 0.5199 0.02514 0.08317 0.0
C520 C 0.53358 0.04962 0.0407 0.0
C521 C 0.56464 0.06324 0.02529 0.0
C522 C 0.57258 0.08754 0.96917 0.0
C523 C 0.59639 0.11489 0.02601 0.0
C524 C 0.58428 0.08397 0.87616 0.0
C525 C 0.54099 0.08512 0.95414 0.0
C526 C 0.51907 0.06337 0.99764 0.0
C527 C 0.48807 0.05637 0.99234 0.0
C528 C 0.47906 0.07177 0.94036 0.0
C529 C 0.50084 0.09379 0.89346 0.0
C530 C 0.53231 0.10074 0.90107 0.0
H531 H 0.94189 0.22384 0.80139 0.0
H532 H 0.9499 0.22497 0.505 0.0
H533 H 0.95588 0.27141 0.51207 0.0
H534 H 0.90462 0.26773 0.82533 0.0
H535 H 0.92796 0.28528 0.93384 0.0
H536 H 0.91637 0.24975 0.90188 0.0
H537 H 0.97417 0.26273 0.92177 0.0
H538 H 0.98593 0.29819 0.9531 0.0
H539 H 1.00189 0.28934 0.85739 0.0
H540 H 0.96809 0.3194 0.55418 0.0
H541 H 0.99007 0.36683 0.6294 0.0
H542 H 0.97834 0.33582 0.90065 0.0
C543 C 0.94356 0.23352 0.73768 0.0
C544 C 0.94462 0.2209 0.65225 0.0
C545 C 0.94846 0.23439 0.57055 0.0
C546 C 0.95171 0.26062 0.57398 0.0
C547 C 0.95151 0.27304 0.65994 0.0
C548 C 0.94769 0.26 0.74053 0.0
C549 C 0.95367 0.27949 0.82592 0.0
C550 C 0.92387 0.26999 0.87459 0.0
C551 C 0.98051 0.28262 0.89343 0.0
C552 C 0.9627 0.30578 0.78117 0.0
C553 C 0.96038 0.30142 0.68522 0.0
C554 C 0.96952 0.323 0.6291 0.0
C555 C 0.982 0.34983 0.67233 0.0
C556 C 0.98575 0.35476 0.77049 0.0
C557 C 0.97537 0.33244 0.82534 0.0
H558 H 0.80785 0.55178 0.66468 0.0
H559 H 0.84087 0.62459 0.85916 0.0
H560 H 0.7902 0.60261 0.92569 0.0
H561 H 0.72824 0.53817 0.62294 0.0
H562 H 0.71107 0.50121 0.61357 0.0
H563 H 0.74984 0.52271 0.58126 0.0
H564 H 0.77068 0.50081 0.69659 0.0
H565 H 0.73198 0.47929 0.72917 0.0
H566 H 0.76337 0.50138 0.81712 0.0
H567 H 0.73608 0.57143 0.97608 0.0
H568 H 0.68285 0.53471 0.00078 0.0
H569 H 0.68375 0.48324 0.7678 0.0
C570 C 0.80437 0.56309 0.7212 0.0
C571 C 0.82843 0.58992 0.75701 0.0
C572 C 0.82283 0.60408 0.83054 0.0
C573 C 0.79409 0.59172 0.86884 0.0
C574 C 0.77084 0.56524 0.83215 0.0
C575 C 0.77556 0.55119 0.75925 0.0
C576 C 0.74661 0.5231 0.73178 0.0
C577 C 0.73315 0.5212 0.63144 0.0
C578 C 0.75358 0.49977 0.74445 0.0
C579 C 0.72511 0.52328 0.80161 0.0
C580 C 0.73951 0.54777 0.85904 0.0
C581 C 0.72455 0.55232 0.93079 0.0
C582 C 0.69425 0.53136 0.94428 0.0
C583 C 0.67894 0.50619 0.88581 0.0
C584 C 0.69468 0.50231 0.81328 0.0
H585 H 1.01001 0.59424 0.67701 0.0
H586 H 0.91847 0.55821 0.77715 0.0
H587 H 0.92625 0.52288 0.84474 0.0
H588 H 1.00696 0.52915 0.61701 0.0
H589 H 0.04747 0.54265 0.65459 0.0
H590 H 0.03482 0.56521 0.61228 0.0
H591 H 0.05947 0.59742 0.76586 0.0
H592 H 0.07187 0.57475 0.80891 0.0
H593 H 0.04808 0.58348 0.87548 0.0
H594 H 0.94348 0.49187 0.90431 0.0
H595 H 0.9683 0.46511 0.94523 0.0
H596 H 0.04899 0.51999 0.80794 0.0
C597 C 0.99149 0.5788 0.71247 0.0
C598 C 0.96354 0.57915 0.72128 0.0
C599 C 0.94005 0.55855 0.76887 0.0
C600 C 0.94426 0.53834 0.80796 0.0
C601 C 0.97209 0.53879 0.7991 0.0
C602 C 0.99528 0.55829 0.75205 0.0
C603 C 0.02289 0.5538 0.7528 0.0
C604 C 0.02835 0.54731 0.65324 0.0
C605 C 0.05232 0.57886 0.8038 0.0
C606 C 1.01148 0.52875 0.80751 0.0
C607 C 0.98214 0.52061 0.83366 0.0
C608 C 0.96642 0.498 0.8841 0.0
C609 C 0.98075 0.48294 0.90714 0.0
C610 C 1.01053 0.49041 0.87983 0.0
C611 C 0.02627 0.51388 0.83023 0.0
H612 H 0.52824 0.34944 0.79986 0.0
H613 H 0.60925 0.36655 0.98205 0.0
H614 H 0.59729 0.31857 0.94426 0.0
H615 H 0.47841 0.28158 0.85783 0.0
H616 H 0.45944 0.26836 0.74135 0.0
H617 H 0.47555 0.30427 0.78007 0.0
H618 H 0.5086 0.31768 0.63965 0.0
H619 H 0.49275 0.28171 0.60135 0.0
H620 H 0.53431 0.30445 0.6222 0.0
H621 H 0.57488 0.26812 0.89169 0.0
H622 H 0.5425 0.21868 0.83464 0.0
H623 H 0.47704 0.23561 0.6847 0.0
C624 C 0.5435 0.34308 0.83153 0.0
C625 C 0.56961 0.3615 0.89379 0.0
C626 C 0.58908 0.35258 0.93416 0.0
C627 C 0.58256 0.32548 0.91278 0.0
C628 C 0.55665 0.30779 0.85058 0.0
C629 C 0.5374 0.31623 0.81071 0.0
C630 C 0.51037 0.29298 0.74889 0.0
C631 C 0.47911 0.28641 0.7842 0.0
C632 C 0.51161 0.29961 0.64698 0.0
C633 C 0.51706 0.26998 0.76169 0.0
C634 C 0.54397 0.27892 0.81982 0.0
C635 C 0.55391 0.26092 0.84538 0.0
C636 C 0.53539 0.23288 0.81248 0.0
C637 C 0.50725 0.22322 0.75501 0.0
C638 C 0.49853 0.24226 0.72778 0.0
H639 H 0.80722 0.09246 0.74206 0.0
H640 H 0.86699 0.06871 0.88778 0.0
H641 H 0.82498 0.0408 0.98449 0.0
H642 H 0.76974 0.09834 0.93819 0.0
H643 H 0.7321 0.08417 0.87353 0.0
H644 H 0.76688 0.10198 0.8155 0.0
H645 H 0.74667 0.05898 0.69619 0.0
H646 H 0.71191 0.04095 0.75429 0.0
H647 H 0.73611 0.02611 0.73758 0.0
H648 H 0.77573 0.0159 0.06935 0.0
H649 H 0.72412 0.99672 0.13153 0.0
H650 H 0.69688 0.03566 0.92587 0.0
C651 C 0.81137 0.08128 0.79402 0.0
C652 C 0.84042 0.08284 0.80761 0.0
C653 C 0.84492 0.06786 0.87629 0.0
C654 C 0.82116 0.0519 0.93159 0.0
C655 C 0.79274 0.0508 0.91685 0.0
C656 C 0.78774 0.065 0.84933 0.0
C657 C 0.75516 0.06046 0.84741 0.0
C658 C 0.75604 0.08787 0.87004 0.0
C659 C 0.73635 0.04576 0.75325 0.0
C660 C 0.74279 0.0418 0.92476 0.0
C661 C 0.76467 0.03635 0.96428 0.0
C662 C 0.75839 0.01998 0.03852 0.0
C663 C 0.72908 0.00915 0.07349 0.0
C664 C 0.70657 0.01477 0.03396 0.0
C665 C 0.71362 0.03104 0.95807 0.0
H666 H 0.72206 0.91888 0.14693 0.0
H667 H 0.66589 0.89841 0.37989 0.0
H668 H 0.69437 0.87747 0.44809 0.0
H669 H 0.72517 0.85658 0.12614 0.0
H670 H 0.76485 0.87286 0.09769 0.0
H671 H 0.74135 0.88779 0.06866 0.0
H672 H 0.78295 0.93406 0.1604 0.0
H673 H 0.80645 0.91914 0.19025 0.0
H674 H 0.79503 0.93455 0.28077 0.0
H675 H 0.72621 0.85674 0.48836 0.0
H676 H 0.75855 0.83521 0.49544 0.0
H677 H 0.79607 0.86868 0.23957 0.0
C678 C 0.71594 0.91007 0.21246 0.0
C679 C 0.69168 0.9103 0.25817 0.0
C680 C 0.68427 0.89847 0.34353 0.0
C681 C 0.70045 0.88662 0.38314 0.0
C682 C 0.72416 0.88671 0.33686 0.0
C683 C 0.73195 0.89799 0.25328 0.0
C684 C 0.75767 0.89411 0.21687 0.0
C685 C 0.74659 0.8768 0.1217 0.0
C686 C 0.78728 0.92214 0.21178 0.0
C687 C 0.76258 0.87845 0.29219 0.0
C688 C 0.74308 0.87473 0.36095 0.0
C689 C 0.74182 0.85977 0.43555 0.0
C690 C 0.76033 0.84765 0.43907 0.0
C691 C 0.7801 0.85059 0.369 0.0
C692 C 0.78174 0.8667 0.29536 0.0
H693 H 0.22563 0.70465 0.13461 0.0
H694 H 0.27596 0.6956 0.37161 0.0
H695 H 0.24352 0.64482 0.34069 0.0
H696 H 0.14997 0.64688 0.16446 0.0
H697 H 0.13894 0.63692 0.04132 0.0
H698 H 0.16566 0.67254 0.0831 0.0
H699 H 0.2062 0.67337 0.97732 0.0
H700 H 0.17959 0.6378 0.93495 0.0
H701 H 0.21811 0.64817 0.98609 0.0
H702 H 0.20626 0.59575 0.28444 0.0
H703 H 0.16747 0.55056 0.20228 0.0
H704 H 0.1416 0.59132 -0.00022 0.0
C705 C 0.22976 0.69193 0.17989 0.0
C706 C 0.25316 0.70379 0.25539 0.0
C707 C 0.25809 0.68671 0.31331 0.0
C708 C 0.23977 0.65795 0.29648 0.0
C709 C 0.21679 0.64684 0.22152 0.0
C710 C 0.21178 0.66323 0.16389 0.0
C711 C 0.18599 0.64602 0.08694 0.0
C712 C 0.15851 0.65088 0.09445 0.0
C713 C 0.19822 0.65168 0.99064 0.0
C714 C 0.17747 0.61736 0.10988 0.0
C715 C 0.1954 0.61837 0.18822 0.0
C716 C 0.19208 0.59464 0.22303 0.0
C717 C 0.17003 0.56913 0.1759 0.0
C718 C 0.15177 0.56764 0.09479 0.0
C719 C 0.15534 0.59201 0.06172 0.0
H720 H 0.50509 0.47832 0.08187 0.0
H721 H 0.5164 0.40935 0.99345 0.0
H722 H 0.46284 0.37687 0.03221 0.0
H723 H 0.4618 0.44886 0.27631 0.0
H724 H 0.4372 0.46341 0.259 0.0
H725 H 0.47606 0.4808 0.22388 0.0
H726 H 0.45419 0.48016 0.05632 0.0
H727 H 0.41528 0.46289 0.09096 0.0
H728 H 0.42479 0.44778 0.99438 0.0
H729 H 0.40711 0.35208 0.08043 0.0
H730 H 0.355 0.33724 0.13086 0.0
H731 H 0.38072 0.42284 0.18934 0.0
C732 C 0.49631 0.45635 0.07032 0.0
C733 C 0.51488 0.44633 0.03405 0.0
C734 C 0.50254 0.41747 0.02057 0.0
C735 C 0.47217 0.39892 0.04269 0.0
C736 C 0.45449 0.40957 0.07858 0.0
C737 C 0.46621 0.43768 0.09222 0.0
C738 C 0.44271 0.44403 0.13149 0.0
C739 C 0.45519 0.46023 0.22842 0.0
C740 C 0.43371 0.45963 0.06427 0.0
C741 C 0.41566 0.41512 0.13746 0.0
C742 C 0.42291 0.39549 0.10678 0.0
C743 C 0.40137 0.36735 0.10463 0.0
C744 C 0.37176 0.3591 0.13351 0.0
C745 C 0.36368 0.37883 0.16425 0.0
C746 C 0.38618 0.40723 0.16687 0.0
H747 H 0.89132 0.69144 0.56824 0.0
H748 H 0.99193 0.7404 0.57183 0.0
H749 H 0.98771 0.77995 0.52725 0.0
H750 H 0.87368 0.71888 0.36818 0.0
H751 H 0.84085 0.71896 0.41334 0.0
H752 H 0.85125 0.69411 0.4468 0.0
H753 H 0.85537 0.71059 0.62098 0.0
H754 H 0.84463 0.73521 0.58753 0.0
H755 H 0.8802 0.7467 0.66078 0.0
H756 H 0.9735 0.81474 0.48813 0.0
H757 H 0.94978 0.84267 0.45132 0.0
H758 H 0.85788 0.77165 0.46402 0.0
C759 C 0.91248 0.7105 0.55993 0.0
C760 C 0.94203 0.71269 0.57399 0.0
C761 C 0.96904 0.73802 0.56152 0.0
C762 C 0.9669 0.76069 0.5362 0.0
C763 C 0.93756 0.75783 0.52272 0.0
C764 C 0.91076 0.7334 0.53369 0.0
C765 C 0.88214 0.73604 0.51397 0.0
C766 C 0.86072 0.71579 0.43061 0.0
C767 C 0.86455 0.73189 0.60101 0.0
C768 C 0.89715 0.76576 0.49054 0.0
C769 C 0.92918 0.77788 0.49678 0.0
C770 C 0.94846 0.80542 0.48224 0.0
C771 C 0.93475 0.82113 0.4614 0.0
C772 C 0.90205 0.80929 0.45399 0.0
C773 C 0.88293 0.78112 0.46793 0.0
H774 H 0.37784 0.05685 0.4935 0.0
H775 H 0.36786 0.04804 0.787 0.0
H776 H 0.34671 0.99795 0.75706 0.0
H777 H 0.30782 0.98537 0.40279 0.0
H778 H 0.32891 0.98181 0.31119 0.0
H779 H 0.33569 0.01546 0.35148 0.0
H780 H 0.39446 0.03282 0.38303 0.0
H781 H 0.3879 0.99915 0.34593 0.0
H782 H 0.40701 0.01551 0.46021 0.0
H783 H 0.339 0.95288 0.70445 0.0
H784 H 0.33634 0.9117 0.62657 0.0
H785 H 0.34964 0.94769 0.36351 0.0
C786 C 0.36932 0.04395 0.54999 0.0
C787 C 0.37343 0.05581 0.64203 0.0
C788 C 0.36394 0.03892 0.71586 0.0
C789 C 0.35212 0.01056 0.69951 0.0
C790 C 0.35001 0.99956 0.60886 0.0
C791 C 0.35759 0.01548 0.53465 0.0
C792 C 0.35659 0.99899 0.4463 0.0
C793 C 0.3307 0.99517 0.37364 0.0
C794 C 0.38838 0.01243 0.40662 0.0
C795 C 0.34883 0.97189 0.48376 0.0
C796 C 0.34506 0.97278 0.57764 0.0
C797 C 0.34096 0.95154 0.63042 0.0
C798 C 0.33988 0.92841 0.58575 0.0
C799 C 0.34261 0.92656 0.48912 0.0
C800 C 0.34712 0.94855 0.43732 0.0
H801 H 0.09839 0.24206 0.59276 0.0
H802 H 0.03765 0.17905 0.37088 0.0
H803 H 0.07748 0.2008 0.26279 0.0
H804 H 0.13744 0.30041 0.45145 0.0
H805 H 0.17545 0.3135 0.51209 0.0
H806 H 0.14119 0.2952 0.5723 0.0
H807 H 0.15927 0.26206 0.61871 0.0
H808 H 0.19281 0.27775 0.55412 0.0
H809 H 0.16494 0.2416 0.53003 0.0
H810 H 0.12426 0.22654 0.18069 0.0
H811 H 0.17711 0.2535 0.1316 0.0
H812 H 0.20998 0.30036 0.4032 0.0
C813 C 0.09341 0.23322 0.52102 0.0
C814 C 0.06466 0.20904 0.48997 0.0
C815 C 0.05933 0.19764 0.39623 0.0
C816 C 0.0818 0.20993 0.33393 0.0
C817 C 0.10991 0.23358 0.36625 0.0
C818 C 0.11604 0.24506 0.45761 0.0
C819 C 0.14956 0.26879 0.47575 0.0
C820 C 0.15098 0.29609 0.50465 0.0
C821 C 0.16769 0.26216 0.54917 0.0
C822 C 0.16103 0.269 0.3803 0.0
C823 C 0.13757 0.24846 0.31839 0.0
C824 C 0.14271 0.24297 0.22804 0.0
C825 C 0.17277 0.25842 0.20065 0.0
C826 C 0.19737 0.27932 0.26274 0.0
C827 C 0.19132 0.28506 0.35337 0.0
H828 H 0.39081 0.21943 0.6224 0.0
H829 H 0.33864 0.14081 0.45257 0.0
H830 H 0.31739 0.16115 0.34541 0.0
H831 H 0.33158 0.23863 0.59631 0.0
H832 H 0.35931 0.27471 0.59162 0.0
H833 H 0.37016 0.25386 0.65576 0.0
H834 H 0.41717 0.26811 0.55956 0.0
H835 H 0.40628 0.28877 0.49433 0.0
H836 H 0.41072 0.26222 0.43429 0.0
H837 H 0.30261 0.18978 0.2552 0.0
H838 H 0.29206 0.22439 0.1925 0.0
H839 H 0.35329 0.28479 0.41997 0.0
C840 C 0.37462 0.20648 0.56322 0.0
C841 C 0.36616 0.17851 0.54585 0.0
C842 C 0.34521 0.16222 0.46737 0.0
C843 C 0.33315 0.17363 0.40587 0.0
C844 C 0.34225 0.20134 0.42397 0.0
C845 C 0.36226 0.21755 0.50106 0.0
C846 C 0.36803 0.24674 0.50424 0.0
C847 C 0.35658 0.2539 0.5922 0.0
C848 C 0.40261 0.26769 0.4977 0.0
C849 C 0.34807 0.24432 0.41703 0.0
C850 C 0.3336 0.21797 0.37163 0.0
C851 C 0.31376 0.21048 0.29006 0.0
C852 C 0.308 0.23029 0.25484 0.0
C853 C 0.32193 0.25721 0.30125 0.0
C854 C 0.34253 0.2644 0.38275 0.0
H855 H 0.87301 0.94144 0.5545 0.0
H856 H 0.95027 0.95195 0.40402 0.0
H857 H 0.97821 0.00218 0.45153 0.0
H858 H 0.87407 0.00111 0.49252 0.0
H859 H 0.86406 0.00904 0.60326 0.0
H860 H 0.85173 0.97387 0.56374 0.0
H861 H 0.87869 0.96992 0.71607 0.0
H862 H 0.89134 0.00524 0.75564 0.0
H863 H 0.91943 0.99426 0.74842 0.0
H864 H 0.99589 0.05141 0.50665 0.0
H865 H 1.00067 0.09609 0.55763 0.0
H866 H 0.91191 0.0526 0.67366 0.0
C867 C 0.89593 0.95432 0.53232 0.0
C868 C 0.90962 0.94306 0.47592 0.0
C869 C 0.9395 0.96039 0.44744 0.0
C870 C 0.95558 0.98884 0.47449 0.0
C871 C 0.94143 0.99939 0.53033 0.0
C872 C 0.91226 0.98265 0.55878 0.0
C873 C 0.90133 0.99924 0.61356 0.0
C874 C 0.87102 0.9956 0.56535 0.0
C875 C 0.89748 0.99172 0.71441 0.0
C876 C 0.92853 0.028 0.60927 0.0
C877 C 0.95163 0.02769 0.56214 0.0
C878 C 0.97814 0.05195 0.54468 0.0
C879 C 0.98067 0.07721 0.57405 0.0
C880 C 0.95667 0.07786 0.61956 0.0
C881 C 0.93077 0.05289 0.63943 0.0
H882 H 0.0921 0.74328 0.60109 0.0
H883 H 0.06823 0.6648 0.45446 0.0
H884 H 0.12026 0.68637 0.39685 0.0
H885 H 0.13504 0.7853 0.42301 0.0
H886 H 0.16383 0.81327 0.50447 0.0
H887 H 0.12506 0.79146 0.5362 0.0
H888 H 0.14772 0.78043 0.68233 0.0
H889 H 0.18654 0.80219 0.65083 0.0
H890 H 0.17314 0.76671 0.66896 0.0
H891 H 0.1763 0.71667 0.35825 0.0
H892 H 0.22936 0.75373 0.33349 0.0
H893 H 0.21593 0.81292 0.49769 0.0
C894 C 0.09787 0.73065 0.55694 0.0
C895 C 0.07606 0.70225 0.53276 0.0
C896 C 0.08449 0.68654 0.47419 0.0
C897 C 0.11408 0.69863 0.44122 0.0
C898 C 0.13512 0.72662 0.46657 0.0
C899 C 0.12728 0.74251 0.52248 0.0
C900 C 0.15387 0.77231 0.53737 0.0
C901 C 0.14384 0.79173 0.49789 0.0
C902 C 0.16603 0.78091 0.64103 0.0
C903 C 0.1778 0.77074 0.48114 0.0
C904 C 0.16672 0.74415 0.44164 0.0
C905 C 0.18503 0.73759 0.38844 0.0
C906 C 0.21523 0.75875 0.37467 0.0
C907 C 0.22679 0.78625 0.41271 0.0
C908 C 0.2077 0.79214 0.46687 0.0
loop_
_geom_bond_atom_site_label_1
_geom_bond_atom_site_label_2
_geom_bond_distance
_geom_bond_site_symmetry_2
_ccdc_geom_bond_type
Tb0 O3 2.425 1_455 S
Tb0 O4 2.597 . S
Tb0 O5 2.388 1_554 S
Tb0 O13 2.378 . S
Tb0 O15 2.354 . S
Tb0 O17 2.436 1_455 S
Tb0 O18 2.532 1_554 S
C1 O5 1.251 . S
C1 O7 1.263 . S
Tb2 O4 2.343 . S
Tb2 O7 2.353 1_554 S
Tb2 O10 2.427 . S
Tb2 O11 2.513 . S
Tb2 O12 2.453 . S
Tb2 O13 2.596 . S
Tb2 O14 2.374 . S
O3 Tb0 2.425 1_655 S
O3 C19 1.245 1_655 S
O4 Tb0 2.597 . S
O4 Tb2 2.343 . S
O4 C19 1.259 . S
O5 Tb0 2.388 1_556 S
O5 C1 1.251 . S
C6 O10 1.275 . S
C6 O11 1.246 . S
O7 C1 1.263 . S
O7 Tb2 2.353 1_556 S
C8 O12 1.245 . S
C8 O13 1.259 . S
C9 O14 1.250 . S
C9 O15 1.263 . S
O10 Tb2 2.427 . S
O10 C6 1.275 . S
O11 Tb2 2.513 . S
O11 C6 1.246 . S
O12 Tb2 2.453 . S
O12 C8 1.245 . S
O13 Tb0 2.378 . S
O13 Tb2 2.596 . S
O13 C8 1.259 . S
O14 Tb2 2.374 . S
O14 C9 1.250 . S
O15 Tb0 2.354 . S
O15 C9 1.263 . S
C16 O17 1.275 . S
C16 O18 1.246 1_654 S
O17 Tb0 2.436 1_655 S
O17 C16 1.275 . S
O18 Tb0 2.532 1_556 S
O18 C16 1.246 1_456 S
C19 O3 1.245 1_455 S
C19 O4 1.259 . S
Tb20 O23 2.453 . S
Tb20 O24 2.596 . S
Tb20 O25 2.374 . S
Tb20 O33 2.343 . S
Tb20 O35 2.353 1_554 S
Tb20 O37 2.427 . S
Tb20 O38 2.513 . S
C21 O25 1.251 . S
C21 O27 1.263 . S
Tb22 O24 2.343 . S
Tb22 O27 2.353 . S
Tb22 O30 2.427 . S
Tb22 O31 2.513 1_554 S
Tb22 O32 2.453 . S
Tb22 O33 2.596 . S
Tb22 O34 2.374 1_554 S
O23 Tb20 2.453 . S
O23 C39 1.245 . S
O24 Tb20 2.596 . S
O24 Tb22 2.343 . S
O24 C39 1.259 . S
O25 Tb20 2.374 . S
O25 C21 1.251 . S
C26 O30 1.275 . S
C26 O31 1.246 1_554 S
O27 C21 1.263 . S
O27 Tb22 2.353 . S
C28 O32 1.245 . S
C28 O33 1.259 . S
C29 O34 1.250 . S
C29 O35 1.263 . S
O30 Tb22 2.427 . S
O30 C26 1.275 . S
O31 Tb22 2.513 1_556 S
O31 C26 1.246 1_556 S
O32 Tb22 2.453 . S
O32 C28 1.245 . S
O33 Tb20 2.343 . S
O33 Tb22 2.596 . S
O33 C28 1.259 . S
O34 Tb22 2.374 1_556 S
O34 C29 1.250 . S
O35 Tb20 2.353 1_556 S
O35 C29 1.263 . S
C36 O37 1.275 . S
C36 O38 1.246 . S
O37 Tb20 2.427 . S
O37 C36 1.275 . S
O38 Tb20 2.513 . S
O38 C36 1.246 . S
C39 O23 1.245 . S
C39 O24 1.259 . S
Tb40 O43 2.453 . S
Tb40 O44 2.596 . S
Tb40 O45 2.374 1_554 S
Tb40 O53 2.343 . S
Tb40 O55 2.353 . S
Tb40 O57 2.427 . S
Tb40 O58 2.513 . S
C41 O45 1.251 . S
C41 O47 1.263 1_545 S
Tb42 O44 2.343 1_565 S
Tb42 O47 2.353 1_554 S
Tb42 O50 2.427 . S
Tb42 O51 2.513 . S
Tb42 O52 2.453 . S
Tb42 O53 2.596 1_565 S
Tb42 O54 2.374 . S
O43 Tb40 2.453 . S
O43 C59 1.245 . S
O44 Tb40 2.596 . S
O44 Tb42 2.343 1_545 S
O44 C59 1.259 . S
O45 Tb40 2.374 1_556 S
O45 C41 1.251 . S
C46 O50 1.275 . S
C46 O51 1.246 . S
O47 C41 1.263 1_565 S
O47 Tb42 2.353 1_556 S
C48 O52 1.245 . S
C48 O53 1.259 1_565 S
C49 O54 1.250 1_545 S
C49 O55 1.263 . S
O50 Tb42 2.427 . S
O50 C46 1.275 . S
O51 Tb42 2.513 . S
O51 C46 1.246 . S
O52 Tb42 2.453 . S
O52 C48 1.245 . S
O53 Tb40 2.343 . S
O53 Tb42 2.596 1_545 S
O53 C48 1.259 1_545 S
O54 Tb42 2.374 . S
O54 C49 1.250 1_565 S
O55 Tb40 2.353 . S
O55 C49 1.263 . S
C56 O57 1.275 . S
C56 O58 1.246 . S
O57 Tb40 2.427 . S
O57 C56 1.275 . S
O58 Tb40 2.513 . S
O58 C56 1.246 . S
C59 O43 1.245 . S
C59 O44 1.259 . S
Tb60 O63 2.453 . S
Tb60 O64 2.596 . S
Tb60 O65 2.374 . S
Tb60 O73 2.343 . S
Tb60 O75 2.353 . S
Tb60 O77 2.427 . S
Tb60 O78 2.513 . S
C61 O65 1.251 . S
C61 O67 1.263 . S
Tb62 O64 2.343 . S
Tb62 O67 2.353 . S
Tb62 O70 2.427 . S
Tb62 O71 2.513 . S
Tb62 O72 2.453 . S
Tb62 O73 2.596 . S
Tb62 O74 2.374 . S
O63 Tb60 2.453 . S
O63 C79 1.245 . S
O64 Tb60 2.596 . S
O64 Tb62 2.343 . S
O64 C79 1.259 . S
O65 Tb60 2.374 . S
O65 C61 1.251 . S
C66 O70 1.275 . S
C66 O71 1.246 . S
O67 C61 1.263 . S
O67 Tb62 2.353 . S
C68 O72 1.245 . S
C68 O73 1.259 . S
C69 O74 1.250 . S
C69 O75 1.263 . S
O70 Tb62 2.427 . S
O70 C66 1.275 . S
O71 Tb62 2.513 . S
O71 C66 1.246 . S
O72 Tb62 2.453 . S
O72 C68 1.245 . S
O73 Tb60 2.343 . S
O73 Tb62 2.596 . S
O73 C68 1.259 . S
O74 Tb62 2.374 . S
O74 C69 1.250 . S
O75 Tb60 2.353 . S
O75 C69 1.263 . S
C76 O77 1.275 . S
C76 O78 1.246 . S
O77 Tb60 2.427 . S
O77 C76 1.275 . S
O78 Tb60 2.513 . S
O78 C76 1.246 . S
C79 O63 1.245 . S
C79 O64 1.259 . S
Tb80 O83 2.453 . S
Tb80 O84 2.596 . S
Tb80 O85 2.374 . S
Tb80 O93 2.343 . S
Tb80 O95 2.353 . S
Tb80 O97 2.427 . S
Tb80 O98 2.513 . S
C81 O85 1.251 . S
C81 O87 1.263 . S
Tb82 O84 2.343 . S
Tb82 O87 2.353 . S
Tb82 O90 2.427 . S
Tb82 O91 2.513 . S
Tb82 O92 2.453 . S
Tb82 O93 2.596 . S
Tb82 O94 2.374 . S
O83 Tb80 2.453 . S
O83 C99 1.245 . S
O84 Tb80 2.596 . S
O84 Tb82 2.343 . S
O84 C99 1.259 . S
O85 Tb80 2.374 . S
O85 C81 1.251 . S
C86 O90 1.275 . S
C86 O91 1.246 . S
O87 C81 1.263 . S
O87 Tb82 2.353 . S
C88 O92 1.245 . S
C88 O93 1.259 . S
C89 O94 1.250 . S
C89 O95 1.263 . S
O90 Tb82 2.427 . S
O90 C86 1.275 . S
O91 Tb82 2.513 . S
O91 C86 1.246 . S
O92 Tb82 2.453 . S
O92 C88 1.245 . S
O93 Tb80 2.343 . S
O93 Tb82 2.596 . S
O93 C88 1.259 . S
O94 Tb82 2.374 . S
O94 C89 1.250 . S
O95 Tb80 2.353 . S
O95 C89 1.263 . S
C96 O97 1.275 . S
C96 O98 1.246 . S
O97 Tb80 2.427 . S
O97 C96 1.275 . S
O98 Tb80 2.513 . S
O98 C96 1.246 . S
C99 O83 1.245 . S
C99 O84 1.259 . S
Tb100 O103 2.453 . S
Tb100 O104 2.596 . S
Tb100 O105 2.374 . S
Tb100 O113 2.343 . S
Tb100 O115 2.353 . S
Tb100 O117 2.427 . S
Tb100 O118 2.513 . S
C101 O105 1.248 1_556 S
C101 O107 1.258 1_556 S
Tb102 O104 2.343 . S
Tb102 O107 2.353 . S
Tb102 O110 2.427 . S
Tb102 O111 2.513 . S
Tb102 O112 2.453 . S
Tb102 O113 2.596 . S
Tb102 O114 2.374 . S
O103 Tb100 2.453 . S
O103 C119 1.245 . S
O104 Tb100 2.596 . S
O104 Tb102 2.343 . S
O104 C119 1.259 . S
O105 Tb100 2.374 . S
O105 C101 1.248 1_554 S
C106 O110 1.275 . S
C106 O111 1.246 . S
O107 C101 1.258 1_554 S
O107 Tb102 2.353 . S
C108 O112 1.245 . S
C108 O113 1.259 . S
C109 O114 1.250 . S
C109 O115 1.263 . S
O110 Tb102 2.427 . S
O110 C106 1.275 . S
O111 Tb102 2.513 . S
O111 C106 1.246 . S
O112 Tb102 2.453 . S
O112 C108 1.245 . S
O113 Tb100 2.343 . S
O113 Tb102 2.596 . S
O113 C108 1.259 . S
O114 Tb102 2.374 . S
O114 C109 1.250 . S
O115 Tb100 2.353 . S
O115 C109 1.263 . S
C116 O117 1.275 . S
C116 O118 1.246 . S
O117 Tb100 2.427 . S
O117 C116 1.275 . S
O118 Tb100 2.513 . S
O118 C116 1.246 . S
C119 O103 1.245 . S
C119 O104 1.259 . S
Tb120 O123 2.453 . S
Tb120 O124 2.596 . S
Tb120 O125 2.374 . S
Tb120 O133 2.343 . S
Tb120 O135 2.353 . S
Tb120 O137 2.427 . S
Tb120 O138 2.513 . S
C121 O125 1.251 . S
C121 O127 1.263 . S
Tb122 O124 2.343 . S
Tb122 O127 2.353 . S
Tb122 O130 2.427 . S
Tb122 O131 2.513 . S
Tb122 O132 2.453 . S
Tb122 O133 2.596 . S
Tb122 O134 2.374 . S
O123 Tb120 2.453 . S
O123 C139 1.245 . S
O124 Tb120 2.596 . S
O124 Tb122 2.343 . S
O124 C139 1.259 . S
O125 Tb120 2.374 . S
O125 C121 1.251 . S
C126 O130 1.275 . S
C126 O131 1.246 . S
O127 C121 1.263 . S
O127 Tb122 2.353 . S
C128 O132 1.245 . S
C128 O133 1.259 . S
C129 O134 1.250 . S
C129 O135 1.263 . S
O130 Tb122 2.427 . S
O130 C126 1.275 . S
O131 Tb122 2.513 . S
O131 C126 1.246 . S
O132 Tb122 2.453 . S
O132 C128 1.245 . S
O133 Tb120 2.343 . S
O133 Tb122 2.596 . S
O133 C128 1.259 . S
O134 Tb122 2.374 . S
O134 C129 1.250 . S
O135 Tb120 2.353 . S
O135 C129 1.263 . S
C136 O137 1.275 . S
C136 O138 1.246 . S
O137 Tb120 2.427 . S
O137 C136 1.275 . S
O138 Tb120 2.513 . S
O138 C136 1.246 . S
C139 O123 1.245 . S
C139 O124 1.259 . S
Tb140 O143 2.453 . S
Tb140 O144 2.596 . S
Tb140 O145 2.374 . S
Tb140 O153 2.343 . S
Tb140 O155 2.353 . S
Tb140 O157 2.427 . S
Tb140 O158 2.513 . S
C141 O145 1.251 . S
C141 O147 1.263 . S
Tb142 O144 2.343 . S
Tb142 O147 2.353 . S
Tb142 O150 2.427 1_655 S
Tb142 O151 2.513 1_655 S
Tb142 O152 2.453 . S
Tb142 O153 2.596 . S
Tb142 O154 2.374 . S
O143 Tb140 2.453 . S
O143 C159 1.245 . S
O144 Tb140 2.596 . S
O144 Tb142 2.343 . S
O144 C159 1.259 . S
O145 Tb140 2.374 . S
O145 C141 1.251 . S
C146 O150 1.275 . S
C146 O151 1.246 . S
O147 C141 1.263 . S
O147 Tb142 2.353 . S
C148 O152 1.245 . S
C148 O153 1.259 . S
C149 O154 1.250 . S
C149 O155 1.263 . S
O150 Tb142 2.427 1_455 S
O150 C146 1.275 . S
O151 Tb142 2.513 1_455 S
O151 C146 1.246 . S
O152 Tb142 2.453 . S
O152 C148 1.245 . S
O153 Tb140 2.343 . S
O153 Tb142 2.596 . S
O153 C148 1.259 . S
O154 Tb142 2.374 . S
O154 C149 1.250 . S
O155 Tb140 2.353 . S
O155 C149 1.263 . S
C156 O157 1.275 . S
C156 O158 1.246 . S
O157 Tb140 2.427 . S
O157 C156 1.275 . S
O158 Tb140 2.513 . S
O158 C156 1.246 . S
C159 O143 1.245 . S
C159 O144 1.259 . S
Tb160 O163 2.453 . S
Tb160 O164 2.596 . S
Tb160 O165 2.374 . S
Tb160 O173 2.343 . S
Tb160 O175 2.353 . S
Tb160 O177 2.435 . S
Tb160 O178 2.513 1_655 S
C161 O165 1.251 . S
C161 O167 1.263 . S
Tb162 O164 2.343 . S
Tb162 O167 2.353 . S
Tb162 O170 2.427 . S
Tb162 O171 2.513 . S
Tb162 O172 2.453 . S
Tb162 O173 2.596 . S
Tb162 O174 2.374 . S
O163 Tb160 2.453 . S
O163 C179 1.245 . S
O164 Tb160 2.596 . S
O164 Tb162 2.343 . S
O164 C179 1.259 . S
O165 Tb160 2.374 . S
O165 C161 1.251 . S
C166 O170 1.275 . S
C166 O171 1.246 . S
O167 C161 1.263 . S
O167 Tb162 2.353 . S
C168 O172 1.245 . S
C168 O173 1.259 . S
C169 O174 1.250 . S
C169 O175 1.263 . S
O170 Tb162 2.427 . S
O170 C166 1.275 . S
O171 Tb162 2.513 . S
O171 C166 1.246 . S
O172 Tb162 2.453 . S
O172 C168 1.245 . S
O173 Tb160 2.343 . S
O173 Tb162 2.596 . S
O173 C168 1.259 . S
O174 Tb162 2.374 . S
O174 C169 1.250 . S
O175 Tb160 2.353 . S
O175 C169 1.263 . S
C176 O177 1.244 1_455 S
C176 O178 1.246 . S
O177 Tb160 2.435 . S
O177 C176 1.244 1_655 S
O178 Tb160 2.513 1_455 S
O178 C176 1.246 . S
C179 O163 1.245 . S
C179 O164 1.259 . S
H180 C192 0.930 . S
H181 C194 0.930 . S
H182 C195 0.930 . S
H183 C199 0.959 . S
H184 C199 0.959 . S
H185 C199 0.961 . S
H186 C200 0.960 . S
H187 C200 0.961 . S
H188 C200 0.959 . S
H189 C203 0.929 . S
H190 C204 0.931 . S
H191 C206 0.930 . S
C192 H180 0.930 . S
C192 C193 1.399 . S
C192 C197 1.399 . S
C193 C192 1.399 . S
C193 C194 1.376 . S
C194 H181 0.930 . S
C194 C193 1.376 . S
C194 C195 1.388 . S
C195 H182 0.930 . S
C195 C194 1.388 . S
C195 C196 1.390 . S
C196 C195 1.390 . S
C196 C197 1.394 . S
C196 C202 1.465 . S
C197 C192 1.399 . S
C197 C196 1.394 . S
C197 C198 1.516 . S
C198 C197 1.516 . S
C198 C199 1.502 . S
C198 C200 1.561 . S
C198 C201 1.526 . S
C199 H183 0.959 . S
C199 H184 0.959 . S
C199 H185 0.961 . S
C199 C198 1.502 . S
C200 H186 0.960 . S
C200 H187 0.961 . S
C200 H188 0.959 . S
C200 C198 1.561 . S
C201 C198 1.526 . S
C201 C202 1.396 . S
C201 C206 1.390 . S
C202 C196 1.465 . S
C202 C201 1.396 . S
C202 C203 1.399 . S
C203 H189 0.929 . S
C203 C202 1.399 . S
C203 C204 1.385 . S
C204 H190 0.931 . S
C204 C203 1.385 . S
C204 C205 1.389 . S
C205 C204 1.389 . S
C205 C206 1.387 . S
C206 H191 0.930 . S
C206 C201 1.390 . S
C206 C205 1.387 . S
H207 C219 0.930 . S
H208 C221 0.930 . S
H209 C222 0.930 . S
H210 C226 0.959 . S
H211 C226 0.959 . S
H212 C226 0.961 . S
H213 C227 0.960 . S
H214 C227 0.961 . S
H215 C227 0.959 . S
H216 C230 0.929 . S
H217 C231 0.931 . S
H218 C233 0.930 . S
C219 H207 0.930 . S
C219 C220 1.399 . S
C219 C224 1.399 . S
C220 C219 1.399 . S
C220 C221 1.376 . S
C221 H208 0.930 . S
C221 C220 1.376 . S
C221 C222 1.388 . S
C222 H209 0.930 . S
C222 C221 1.388 . S
C222 C223 1.390 . S
C223 C222 1.390 . S
C223 C224 1.394 . S
C223 C229 1.465 . S
C224 C219 1.399 . S
C224 C223 1.394 . S
C224 C225 1.516 . S
C225 C224 1.516 . S
C225 C226 1.502 . S
C225 C227 1.561 . S
C225 C228 1.526 . S
C226 H210 0.959 . S
C226 H211 0.959 . S
C226 H212 0.961 . S
C226 C225 1.502 . S
C227 H213 0.960 . S
C227 H214 0.961 . S
C227 H215 0.959 . S
C227 C225 1.561 . S
C228 C225 1.526 . S
C228 C229 1.396 . S
C228 C233 1.390 . S
C229 C223 1.465 . S
C229 C228 1.396 . S
C229 C230 1.399 . S
C230 H216 0.929 . S
C230 C229 1.399 . S
C230 C231 1.385 . S
C231 H217 0.931 . S
C231 C230 1.385 . S
C231 C232 1.389 . S
C232 C231 1.389 . S
C232 C233 1.387 . S
C233 H218 0.930 . S
C233 C228 1.390 . S
C233 C232 1.387 . S
H234 C246 0.930 . S
H235 C248 0.930 . S
H236 C249 0.930 . S
H237 C253 0.959 . S
H238 C253 0.959 . S
H239 C253 0.961 . S
H240 C254 0.960 . S
H241 C254 0.961 . S
H242 C254 0.959 . S
H243 C257 0.929 . S
H244 C258 0.931 . S
H245 C260 0.930 . S
C246 H234 0.930 . S
C246 C247 1.420 . S
C246 C251 1.399 . S
C247 C246 1.420 . S
C247 C248 1.356 1_545 S
C248 H235 0.930 . S
C248 C247 1.356 1_565 S
C248 C249 1.388 . S
C249 H236 0.930 . S
C249 C248 1.388 . S
C249 C250 1.390 . S
C250 C249 1.390 . S
C250 C251 1.394 1_565 S
C250 C256 1.465 1_565 S
C251 C246 1.399 . S
C251 C250 1.394 1_545 S
C251 C252 1.516 . S
C252 C251 1.516 . S
C252 C253 1.502 . S
C252 C254 1.561 . S
C252 C255 1.526 . S
C253 H237 0.959 . S
C253 H238 0.959 . S
C253 H239 0.961 . S
C253 C252 1.502 . S
C254 H240 0.960 . S
C254 H241 0.961 . S
C254 H242 0.959 . S
C254 C252 1.561 . S
C255 C252 1.526 . S
C255 C256 1.396 . S
C255 C260 1.390 . S
C256 C250 1.465 1_545 S
C256 C255 1.396 . S
C256 C257 1.399 1_545 S
C257 H243 0.929 . S
C257 C256 1.399 1_565 S
C257 C258 1.385 . S
C258 H244 0.931 . S
C258 C257 1.385 . S
C258 C259 1.389 1_565 S
C259 C258 1.389 1_545 S
C259 C260 1.387 . S
C260 H245 0.930 . S
C260 C255 1.390 . S
C260 C259 1.387 . S
H261 C273 0.930 . S
H262 C275 0.930 . S
H263 C276 0.930 . S
H264 C280 0.959 . S
H265 C280 0.959 . S
H266 C280 0.961 . S
H267 C281 0.960 . S
H268 C281 0.961 . S
H269 C281 0.959 . S
H270 C284 0.929 . S
H271 C285 0.931 1_554 S
H272 C287 0.930 . S
C273 H261 0.930 . S
C273 C274 1.399 . S
C273 C278 1.399 . S
C274 C273 1.399 . S
C274 C275 1.376 . S
C275 H262 0.930 . S
C275 C274 1.376 . S
C275 C276 1.388 . S
C276 H263 0.930 . S
C276 C275 1.388 . S
C276 C277 1.390 . S
C277 C276 1.390 . S
C277 C278 1.394 . S
C277 C283 1.465 . S
C278 C273 1.399 . S
C278 C277 1.394 . S
C278 C279 1.516 . S
C279 C278 1.516 . S
C279 C280 1.502 . S
C279 C281 1.561 . S
C279 C282 1.526 . S
C280 H264 0.959 . S
C280 H265 0.959 . S
C280 H266 0.961 . S
C280 C279 1.502 . S
C281 H267 0.960 . S
C281 H268 0.961 . S
C281 H269 0.959 . S
C281 C279 1.561 . S
C282 C279 1.526 . S
C282 C283 1.396 . S
C282 C287 1.390 . S
C283 C277 1.465 . S
C283 C282 1.396 . S
C283 C284 1.399 . S
C284 H270 0.929 . S
C284 C283 1.399 . S
C284 C285 1.385 . S
C285 H271 0.931 1_556 S
C285 C284 1.385 . S
C285 C286 1.389 1_556 S
C286 C285 1.389 1_554 S
C286 C287 1.387 1_554 S
C287 H272 0.930 . S
C287 C282 1.390 . S
C287 C286 1.387 1_556 S
H288 C300 0.930 . S
H289 C302 0.930 . S
H290 C303 0.930 . S
H291 C307 0.959 . S
H292 C307 0.959 . S
H293 C307 0.961 . S
H294 C308 0.960 . S
H295 C308 0.961 . S
H296 C308 0.959 . S
H297 C311 0.929 . S
H298 C312 0.931 . S
H299 C314 0.930 . S
C300 H288 0.930 . S
C300 C301 1.399 . S
C300 C305 1.399 . S
C301 C300 1.399 . S
C301 C302 1.376 . S
C302 H289 0.930 . S
C302 C301 1.376 . S
C302 C303 1.388 . S
C303 H290 0.930 . S
C303 C302 1.388 . S
C303 C304 1.390 . S
C304 C303 1.390 . S
C304 C305 1.394 . S
C304 C310 1.465 . S
C305 C300 1.399 . S
C305 C304 1.394 . S
C305 C306 1.516 . S
C306 C305 1.516 . S
C306 C307 1.502 . S
C306 C308 1.561 . S
C306 C309 1.526 . S
C307 H291 0.959 . S
C307 H292 0.959 . S
C307 H293 0.961 . S
C307 C306 1.502 . S
C308 H294 0.960 . S
C308 H295 0.961 . S
C308 H296 0.959 . S
C308 C306 1.561 . S
C309 C306 1.526 . S
C309 C310 1.396 . S
C309 C314 1.390 . S
C310 C304 1.465 . S
C310 C309 1.396 . S
C310 C311 1.399 . S
C311 H297 0.929 . S
C311 C310 1.399 . S
C311 C312 1.385 . S
C312 H298 0.931 . S
C312 C311 1.385 . S
C312 C313 1.389 . S
C313 C312 1.389 . S
C313 C314 1.387 . S
C314 H299 0.930 . S
C314 C309 1.390 . S
C314 C313 1.387 . S
H315 C327 0.930 . S
H316 C329 0.930 . S
H317 C330 0.930 . S
H318 C334 0.959 . S
H319 C334 0.959 . S
H320 C334 0.961 . S
H321 C335 0.960 . S
H322 C335 0.961 . S
H323 C335 0.959 . S
H324 C338 0.929 . S
H325 C339 0.931 . S
H326 C341 0.930 . S
C327 H315 0.930 . S
C327 C328 1.399 . S
C327 C332 1.399 . S
C328 C327 1.399 . S
C328 C329 1.376 . S
C329 H316 0.930 . S
C329 C328 1.376 . S
C329 C330 1.388 . S
C330 H317 0.930 . S
C330 C329 1.388 . S
C330 C331 1.390 . S
C331 C330 1.390 . S
C331 C332 1.394 . S
C331 C337 1.465 . S
C332 C327 1.399 . S
C332 C331 1.394 . S
C332 C333 1.516 . S
C333 C332 1.516 . S
C333 C334 1.502 . S
C333 C335 1.561 . S
C333 C336 1.526 . S
C334 H318 0.959 . S
C334 H319 0.959 . S
C334 H320 0.961 . S
C334 C333 1.502 . S
C335 H321 0.960 . S
C335 H322 0.961 . S
C335 H323 0.959 . S
C335 C333 1.561 . S
C336 C333 1.526 . S
C336 C337 1.396 . S
C336 C341 1.390 . S
C337 C331 1.465 . S
C337 C336 1.396 . S
C337 C338 1.399 . S
C338 H324 0.929 . S
C338 C337 1.399 . S
C338 C339 1.385 . S
C339 H325 0.931 . S
C339 C338 1.385 . S
C339 C340 1.389 . S
C340 C339 1.389 . S
C340 C341 1.387 . S
C341 H326 0.930 . S
C341 C336 1.390 . S
C341 C340 1.387 . S
H342 C354 0.930 . S
H343 C356 0.930 . S
H344 C357 0.930 . S
H345 C361 0.959 . S
H346 C361 0.959 . S
H347 C361 0.961 . S
H348 C362 0.960 . S
H349 C362 0.961 . S
H350 C362 0.959 . S
H351 C365 0.929 . S
H352 C366 0.931 . S
H353 C368 0.930 . S
C354 H342 0.930 . S
C354 C355 1.399 . S
C354 C359 1.399 . S
C355 C354 1.399 . S
C355 C356 1.376 . S
C356 H343 0.930 . S
C356 C355 1.376 . S
C356 C357 1.388 . S
C357 H344 0.930 . S
C357 C356 1.388 . S
C357 C358 1.390 . S
C358 C357 1.390 . S
C358 C359 1.394 . S
C358 C364 1.465 . S
C359 C354 1.399 . S
C359 C358 1.394 . S
C359 C360 1.516 . S
C360 C359 1.516 . S
C360 C361 1.502 . S
C360 C362 1.561 . S
C360 C363 1.526 . S
C361 H345 0.959 . S
C361 H346 0.959 . S
C361 H347 0.961 . S
C361 C360 1.502 . S
C362 H348 0.960 . S
C362 H349 0.961 . S
C362 H350 0.959 . S
C362 C360 1.561 . S
C363 C360 1.526 . S
C363 C364 1.396 . S
C363 C368 1.390 1_554 S
C364 C358 1.465 . S
C364 C363 1.396 . S
C364 C365 1.399 . S
C365 H351 0.929 . S
C365 C364 1.399 . S
C365 C366 1.385 1_554 S
C366 H352 0.931 . S
C366 C365 1.385 1_556 S
C366 C367 1.389 . S
C367 C366 1.389 . S
C367 C368 1.387 . S
C368 H353 0.930 . S
C368 C363 1.390 1_556 S
C368 C367 1.387 . S
H369 C381 0.930 . S
H370 C383 0.930 . S
H371 C384 0.930 . S
H372 C388 0.959 . S
H373 C388 0.959 . S
H374 C388 0.961 . S
H375 C389 0.960 . S
H376 C389 0.961 . S
H377 C389 0.959 . S
H378 C392 0.929 . S
H379 C393 0.931 . S
H380 C395 0.930 . S
C381 H369 0.930 . S
C381 C382 1.399 . S
C381 C386 1.399 . S
C382 C381 1.399 . S
C382 C383 1.376 . S
C383 H370 0.930 . S
C383 C382 1.376 . S
C383 C384 1.388 . S
C384 H371 0.930 . S
C384 C383 1.388 . S
C384 C385 1.390 . S
C385 C384 1.390 . S
C385 C386 1.394 . S
C385 C391 1.465 . S
C386 C381 1.399 . S
C386 C385 1.394 . S
C386 C387 1.516 . S
C387 C386 1.516 . S
C387 C388 1.502 . S
C387 C389 1.561 . S
C387 C390 1.526 . S
C388 H372 0.959 . S
C388 H373 0.959 . S
C388 H374 0.961 . S
C388 C387 1.502 . S
C389 H375 0.960 . S
C389 H376 0.961 . S
C389 H377 0.959 . S
C389 C387 1.561 . S
C390 C387 1.526 . S
C390 C391 1.396 . S
C390 C395 1.390 1_554 S
C391 C385 1.465 . S
C391 C390 1.396 . S
C391 C392 1.399 . S
C392 H378 0.929 . S
C392 C391 1.399 . S
C392 C393 1.385 1_554 S
C393 H379 0.931 . S
C393 C392 1.385 1_556 S
C393 C394 1.389 . S
C394 C393 1.389 . S
C394 C395 1.387 . S
C395 H380 0.930 . S
C395 C390 1.390 1_556 S
C395 C394 1.387 . S
H396 C408 0.930 . S
H397 C410 0.930 . S
H398 C411 0.930 . S
H399 C415 0.959 . S
H400 C415 0.959 . S
H401 C415 0.961 . S
H402 C416 0.960 . S
H403 C416 0.961 . S
H404 C416 0.959 . S
H405 C419 0.929 . S
H406 C420 0.931 . S
H407 C422 0.931 . S
C408 H396 0.930 . S
C408 C409 1.399 . S
C408 C413 1.399 . S
C409 C408 1.399 . S
C409 C410 1.376 . S
C410 H397 0.930 . S
C410 C409 1.376 . S
C410 C411 1.388 . S
C411 H398 0.930 . S
C411 C410 1.388 . S
C411 C412 1.390 . S
C412 C411 1.390 . S
C412 C413 1.394 . S
C412 C418 1.465 . S
C413 C408 1.399 . S
C413 C412 1.394 . S
C413 C414 1.516 . S
C414 C413 1.516 . S
C414 C415 1.502 . S
C414 C416 1.561 . S
C414 C417 1.526 . S
C415 H399 0.959 . S
C415 H400 0.959 . S
C415 H401 0.961 . S
C415 C414 1.502 . S
C416 H402 0.960 . S
C416 H403 0.961 . S
C416 H404 0.959 . S
C416 C414 1.561 . S
C417 C414 1.526 . S
C417 C418 1.396 . S
C417 C422 1.385 1_554 S
C418 C412 1.465 . S
C418 C417 1.396 . S
C418 C419 1.399 . S
C419 H405 0.929 . S
C419 C418 1.399 . S
C419 C420 1.385 1_554 S
C420 H406 0.931 . S
C420 C419 1.385 1_556 S
C420 C421 1.389 . S
C421 C420 1.389 . S
C421 C422 1.390 . S
C422 H407 0.931 . S
C422 C417 1.385 1_556 S
C422 C421 1.390 . S
H423 C435 0.930 . S
H424 C437 0.930 . S
H425 C438 0.930 . S
H426 C442 0.959 1_554 S
H427 C442 0.959 . S
H428 C442 0.961 . S
H429 C443 0.960 . S
H430 C443 0.961 . S
H431 C443 0.959 . S
H432 C446 0.929 . S
H433 C447 0.931 . S
H434 C449 0.930 1_556 S
C435 H423 0.930 . S
C435 C436 1.399 . S
C435 C440 1.399 . S
C436 C435 1.399 . S
C436 C437 1.376 . S
C437 H424 0.930 . S
C437 C436 1.376 . S
C437 C438 1.388 . S
C438 H425 0.930 . S
C438 C437 1.388 . S
C438 C439 1.390 . S
C439 C438 1.390 . S
C439 C440 1.394 . S
C439 C445 1.465 . S
C440 C435 1.399 . S
C440 C439 1.394 . S
C440 C441 1.516 . S
C441 C440 1.516 . S
C441 C442 1.502 1_554 S
C441 C443 1.561 1_554 S
C441 C444 1.526 . S
C442 H426 0.959 1_556 S
C442 H427 0.959 . S
C442 H428 0.961 . S
C442 C441 1.502 1_556 S
C443 H429 0.960 . S
C443 H430 0.961 . S
C443 H431 0.959 . S
C443 C441 1.561 1_556 S
C444 C441 1.526 . S
C444 C445 1.396 . S
C444 C449 1.390 . S
C445 C439 1.465 . S
C445 C444 1.396 . S
C445 C446 1.399 . S
C446 H432 0.929 . S
C446 C445 1.399 . S
C446 C447 1.385 . S
C447 H433 0.931 . S
C447 C446 1.385 . S
C447 C448 1.389 . S
C448 C447 1.389 . S
C448 C449 1.387 . S
C449 H434 0.930 1_554 S
C449 C444 1.390 . S
C449 C448 1.387 . S
H450 C462 0.930 . S
H451 C464 0.930 . S
H452 C465 0.930 . S
H453 C469 0.959 . S
H454 C469 0.959 . S
H455 C469 0.961 . S
H456 C470 0.960 . S
H457 C470 0.961 . S
H458 C470 0.959 . S
H459 C473 0.929 . S
H460 C474 0.931 . S
H461 C476 0.930 . S
C462 H450 0.930 . S
C462 C463 1.399 . S
C462 C467 1.399 . S
C463 C462 1.399 . S
C463 C464 1.376 . S
C464 H451 0.930 . S
C464 C463 1.376 . S
C464 C465 1.388 . S
C465 H452 0.930 . S
C465 C464 1.388 . S
C465 C466 1.390 . S
C466 C465 1.390 . S
C466 C467 1.394 . S
C466 C472 1.465 . S
C467 C462 1.399 . S
C467 C466 1.394 . S
C467 C468 1.516 . S
C468 C467 1.516 . S
C468 C469 1.502 . S
C468 C470 1.561 . S
C468 C471 1.526 . S
C469 H453 0.959 . S
C469 H454 0.959 . S
C469 H455 0.961 . S
C469 C468 1.502 . S
C470 H456 0.960 . S
C470 H457 0.961 . S
C470 H458 0.959 . S
C470 C468 1.561 . S
C471 C468 1.526 . S
C471 C472 1.396 . S
C471 C476 1.390 . S
C472 C466 1.465 . S
C472 C471 1.396 . S
C472 C473 1.399 . S
C473 H459 0.929 . S
C473 C472 1.399 . S
C473 C474 1.385 . S
C474 H460 0.931 . S
C474 C473 1.385 . S
C474 C475 1.389 . S
C475 C474 1.389 . S
C475 C476 1.387 . S
C476 H461 0.930 . S
C476 C471 1.390 . S
C476 C475 1.387 . S
H477 C489 0.930 . S
H478 C491 0.930 . S
H479 C492 0.930 . S
H480 C496 0.959 . S
H481 C496 0.959 1_556 S
H482 C496 0.961 1_556 S
H483 C497 0.960 . S
H484 C497 0.961 . S
H485 C497 0.959 1_554 S
H486 C500 0.929 . S
H487 C501 0.931 . S
H488 C503 0.930 . S
C489 H477 0.930 . S
C489 C490 1.399 . S
C489 C494 1.399 . S
C490 C489 1.399 . S
C490 C491 1.376 . S
C491 H478 0.930 . S
C491 C490 1.376 . S
C491 C492 1.388 . S
C492 H479 0.930 . S
C492 C491 1.388 . S
C492 C493 1.390 . S
C493 C492 1.390 . S
C493 C494 1.394 . S
C493 C499 1.465 . S
C494 C489 1.399 . S
C494 C493 1.394 . S
C494 C495 1.516 . S
C495 C494 1.516 . S
C495 C496 1.502 . S
C495 C497 1.561 1_554 S
C495 C498 1.526 . S
C496 H480 0.959 . S
C496 H481 0.959 1_554 S
C496 H482 0.961 1_554 S
C496 C495 1.502 . S
C497 H483 0.960 . S
C497 H484 0.961 . S
C497 H485 0.959 1_556 S
C497 C495 1.561 1_556 S
C498 C495 1.526 . S
C498 C499 1.396 . S
C498 C503 1.390 . S
C499 C493 1.465 . S
C499 C498 1.396 . S
C499 C500 1.399 . S
C500 H486 0.929 . S
C500 C499 1.399 . S
C500 C501 1.385 . S
C501 H487 0.931 . S
C501 C500 1.385 . S
C501 C502 1.389 . S
C502 C501 1.389 . S
C502 C503 1.387 . S
C503 H488 0.930 . S
C503 C498 1.390 . S
C503 C502 1.387 . S
H504 C516 0.930 . S
H505 C518 0.930 . S
H506 C519 0.930 . S
H507 C523 0.959 . S
H508 C523 0.959 . S
H509 C523 0.961 . S
H510 C524 0.960 1_554 S
H511 C524 0.961 . S
H512 C524 0.959 . S
H513 C527 0.929 . S
H514 C528 0.931 . S
H515 C530 0.930 . S
C516 H504 0.930 . S
C516 C517 1.399 . S
C516 C521 1.399 . S
C517 C516 1.399 . S
C517 C518 1.376 . S
C518 H505 0.930 . S
C518 C517 1.376 . S
C518 C519 1.388 1_554 S
C519 H506 0.930 . S
C519 C518 1.388 1_556 S
C519 C520 1.390 . S
C520 C519 1.390 . S
C520 C521 1.394 1_556 S
C520 C526 1.465 . S
C521 C516 1.399 . S
C521 C520 1.394 1_554 S
C521 C522 1.516 . S
C522 C521 1.516 . S
C522 C523 1.502 . S
C522 C524 1.561 1_554 S
C522 C525 1.526 1_554 S
C523 H507 0.959 . S
C523 H508 0.959 . S
C523 H509 0.961 . S
C523 C522 1.502 . S
C524 H510 0.960 1_556 S
C524 H511 0.961 . S
C524 H512 0.959 . S
C524 C522 1.561 1_556 S
C525 C522 1.526 1_556 S
C525 C526 1.396 . S
C525 C530 1.390 . S
C526 C520 1.465 . S
C526 C525 1.396 . S
C526 C527 1.399 . S
C527 H513 0.929 . S
C527 C526 1.399 . S
C527 C528 1.385 . S
C528 H514 0.931 . S
C528 C527 1.385 . S
C528 C529 1.389 . S
C529 C528 1.389 . S
C529 C530 1.387 . S
C530 H515 0.930 . S
C530 C525 1.390 . S
C530 C529 1.387 . S
H531 C543 0.930 . S
H532 C545 0.930 . S
H533 C546 0.920 1_455 S
H534 C550 0.959 . S
H535 C550 0.959 . S
H536 C550 0.961 . S
H537 C551 0.960 . S
H538 C551 0.961 . S
H539 C551 0.959 . S
H540 C554 0.929 . S
H541 C555 0.931 . S
H542 C557 0.930 1_554 S
C543 H531 0.930 . S
C543 C544 1.399 . S
C543 C548 1.399 . S
C544 C543 1.399 . S
C544 C545 1.376 . S
C545 H532 0.930 . S
C545 C544 1.376 . S
C545 C546 1.387 . S
C546 H533 0.920 1_655 S
C546 C545 1.387 . S
C546 C547 1.401 . S
C547 C546 1.401 . S
C547 C548 1.394 . S
C547 C553 1.465 . S
C548 C543 1.399 . S
C548 C547 1.394 . S
C548 C549 1.516 . S
C549 C548 1.516 . S
C549 C550 1.502 . S
C549 C551 1.561 1_556 S
C549 C552 1.526 . S
C550 H534 0.959 . S
C550 H535 0.959 . S
C550 H536 0.961 . S
C550 C549 1.502 . S
C551 H537 0.960 . S
C551 H538 0.961 . S
C551 H539 0.959 . S
C551 C549 1.561 1_554 S
C552 C549 1.526 . S
C552 C553 1.396 . S
C552 C557 1.390 . S
C553 C547 1.465 . S
C553 C552 1.396 . S
C553 C554 1.399 1_655 S
C554 H540 0.929 . S
C554 C553 1.399 1_455 S
C554 C555 1.385 . S
C555 H541 0.931 . S
C555 C554 1.385 . S
C555 C556 1.389 1_455 S
C556 C555 1.389 1_655 S
C556 C557 1.387 . S
C557 H542 0.930 1_556 S
C557 C552 1.390 . S
C557 C556 1.387 . S
H558 C570 0.930 . S
H559 C572 0.930 . S
H560 C573 0.930 . S
H561 C577 0.959 . S
H562 C577 0.959 . S
H563 C577 0.961 . S
H564 C578 0.960 . S
H565 C578 0.961 . S
H566 C578 0.959 1_554 S
H567 C581 0.929 . S
H568 C582 0.931 . S
H569 C584 0.930 . S
C570 H558 0.930 . S
C570 C571 1.399 . S
C570 C575 1.399 . S
C571 C570 1.399 . S
C571 C572 1.376 . S
C572 H559 0.930 . S
C572 C571 1.376 . S
C572 C573 1.388 . S
C573 H560 0.930 . S
C573 C572 1.388 . S
C573 C574 1.390 . S
C574 C573 1.390 . S
C574 C575 1.394 . S
C574 C580 1.465 . S
C575 C570 1.399 . S
C575 C574 1.394 . S
C575 C576 1.516 . S
C576 C575 1.516 . S
C576 C577 1.502 . S
C576 C578 1.561 . S
C576 C579 1.526 . S
C577 H561 0.959 . S
C577 H562 0.959 . S
C577 H563 0.961 . S
C577 C576 1.502 . S
C578 H564 0.960 . S
C578 H565 0.961 . S
C578 H566 0.959 1_556 S
C578 C576 1.561 . S
C579 C576 1.526 . S
C579 C580 1.396 . S
C579 C584 1.390 . S
C580 C574 1.465 . S
C580 C579 1.396 . S
C580 C581 1.399 1_556 S
C581 H567 0.929 . S
C581 C580 1.399 1_554 S
C581 C582 1.385 . S
C582 H568 0.931 . S
C582 C581 1.385 . S
C582 C583 1.389 . S
C583 C582 1.389 . S
C583 C584 1.387 1_554 S
C584 H569 0.930 . S
C584 C579 1.390 . S
C584 C583 1.387 1_556 S
H585 C597 0.930 1_455 S
H586 C599 0.930 . S
H587 C600 0.930 . S
H588 C604 0.959 . S
H589 C604 0.959 . S
H590 C604 0.961 . S
H591 C605 0.960 . S
H592 C605 0.961 1_554 S
H593 C605 0.959 1_554 S
H594 C608 0.929 . S
H595 C609 0.931 . S
H596 C611 0.930 . S
C597 H585 0.930 1_655 S
C597 C598 1.399 . S
C597 C602 1.399 . S
C598 C597 1.399 . S
C598 C599 1.376 . S
C599 H586 0.930 . S
C599 C598 1.376 . S
C599 C600 1.388 . S
C600 H587 0.930 . S
C600 C599 1.388 . S
C600 C601 1.390 . S
C601 C600 1.390 . S
C601 C602 1.394 . S
C601 C607 1.465 . S
C602 C597 1.399 . S
C602 C601 1.394 . S
C602 C603 1.516 1_655 S
C603 C602 1.516 1_455 S
C603 C604 1.502 . S
C603 C605 1.561 . S
C603 C606 1.526 . S
C604 H588 0.959 . S
C604 H589 0.959 . S
C604 H590 0.961 . S
C604 C603 1.502 . S
C605 H591 0.960 . S
C605 H592 0.961 1_556 S
C605 H593 0.959 1_556 S
C605 C603 1.561 . S
C606 C603 1.526 . S
C606 C607 1.396 1_455 S
C606 C611 1.390 . S
C607 C601 1.465 . S
C607 C606 1.396 1_655 S
C607 C608 1.399 . S
C608 H594 0.929 . S
C608 C607 1.399 . S
C608 C609 1.385 . S
C609 H595 0.931 . S
C609 C608 1.385 . S
C609 C610 1.377 1_655 S
C610 C609 1.377 1_455 S
C610 C611 1.388 . S
C611 H596 0.930 . S
C611 C606 1.390 . S
C611 C610 1.388 . S
H612 C624 0.930 . S
H613 C626 0.930 . S
H614 C627 0.930 . S
H615 C631 0.959 . S
H616 C631 0.959 . S
H617 C631 0.961 . S
H618 C632 0.960 . S
H619 C632 0.961 . S
H620 C632 0.959 . S
H621 C635 0.929 . S
H622 C636 0.931 . S
H623 C638 0.930 . S
C624 H612 0.930 . S
C624 C625 1.399 1_556 S
C624 C629 1.399 . S
C625 C624 1.399 1_554 S
C625 C626 1.376 . S
C626 H613 0.930 . S
C626 C625 1.376 . S
C626 C627 1.388 . S
C627 H614 0.930 . S
C627 C626 1.388 . S
C627 C628 1.390 1_554 S
C628 C627 1.390 1_556 S
C628 C629 1.394 . S
C628 C634 1.465 . S
C629 C624 1.399 . S
C629 C628 1.394 . S
C629 C630 1.516 . S
C630 C629 1.516 . S
C630 C631 1.502 . S
C630 C632 1.561 . S
C630 C633 1.526 . S
C631 H615 0.959 . S
C631 H616 0.959 . S
C631 H617 0.961 . S
C631 C630 1.502 . S
C632 H618 0.960 . S
C632 H619 0.961 . S
C632 H620 0.959 . S
C632 C630 1.561 . S
C633 C630 1.526 . S
C633 C634 1.396 . S
C633 C638 1.390 . S
C634 C628 1.465 . S
C634 C633 1.396 . S
C634 C635 1.399 . S
C635 H621 0.929 . S
C635 C634 1.399 . S
C635 C636 1.385 . S
C636 H622 0.931 . S
C636 C635 1.385 . S
C636 C637 1.389 . S
C637 C636 1.389 . S
C637 C638 1.387 . S
C638 H623 0.930 . S
C638 C633 1.390 . S
C638 C637 1.387 . S
H639 C651 0.930 . S
H640 C653 0.930 . S
H641 C654 0.930 . S
H642 C658 0.959 . S
H643 C658 0.959 . S
H644 C658 0.961 . S
H645 C659 0.960 . S
H646 C659 0.961 . S
H647 C659 0.959 . S
H648 C662 0.929 . S
H649 C663 0.931 . S
H650 C665 0.930 . S
C651 H639 0.930 . S
C651 C652 1.399 . S
C651 C656 1.399 . S
C652 C651 1.399 . S
C652 C653 1.376 . S
C653 H640 0.930 . S
C653 C652 1.376 . S
C653 C654 1.388 . S
C654 H641 0.930 . S
C654 C653 1.388 . S
C654 C655 1.390 . S
C655 C654 1.390 . S
C655 C656 1.394 . S
C655 C661 1.465 . S
C656 C651 1.399 . S
C656 C655 1.394 . S
C656 C657 1.516 1_556 S
C657 C656 1.516 1_554 S
C657 C658 1.502 . S
C657 C659 1.561 . S
C657 C660 1.526 . S
C658 H642 0.959 . S
C658 H643 0.959 . S
C658 H644 0.961 . S
C658 C657 1.502 . S
C659 H645 0.960 . S
C659 H646 0.961 . S
C659 H647 0.959 . S
C659 C657 1.561 . S
C660 C657 1.526 . S
C660 C661 1.396 1_554 S
C660 C665 1.390 . S
C661 C655 1.465 . S
C661 C660 1.396 1_556 S
C661 C662 1.399 . S
C662 H648 0.929 . S
C662 C661 1.399 . S
C662 C663 1.385 . S
C663 H649 0.931 . S
C663 C662 1.385 . S
C663 C664 1.389 1_556 S
C664 C663 1.389 1_554 S
C664 C665 1.387 . S
C665 H650 0.930 . S
C665 C660 1.390 . S
C665 C664 1.387 . S
H666 C678 0.930 . S
H667 C680 0.930 . S
H668 C681 0.930 . S
H669 C685 0.959 . S
H670 C685 0.959 . S
H671 C685 0.961 . S
H672 C686 0.960 . S
H673 C686 0.961 . S
H674 C686 0.959 . S
H675 C689 0.929 . S
H676 C690 0.931 . S
H677 C692 0.930 . S
C678 H666 0.930 . S
C678 C679 1.399 . S
C678 C683 1.399 . S
C679 C678 1.399 . S
C679 C680 1.376 . S
C680 H667 0.930 . S
C680 C679 1.376 . S
C680 C681 1.388 . S
C681 H668 0.930 . S
C681 C680 1.388 . S
C681 C682 1.390 . S
C682 C681 1.390 . S
C682 C683 1.394 . S
C682 C688 1.465 . S
C683 C678 1.399 . S
C683 C682 1.394 . S
C683 C684 1.516 . S
C684 C683 1.516 . S
C684 C685 1.502 . S
C684 C686 1.561 . S
C684 C687 1.526 . S
C685 H669 0.959 . S
C685 H670 0.959 . S
C685 H671 0.961 . S
C685 C684 1.502 . S
C686 H672 0.960 . S
C686 H673 0.961 . S
C686 H674 0.959 . S
C686 C684 1.561 . S
C687 C684 1.526 . S
C687 C688 1.396 . S
C687 C692 1.390 . S
C688 C682 1.465 . S
C688 C687 1.396 . S
C688 C689 1.399 . S
C689 H675 0.929 . S
C689 C688 1.399 . S
C689 C690 1.385 . S
C690 H676 0.931 . S
C690 C689 1.385 . S
C690 C691 1.389 . S
C691 C690 1.389 . S
C691 C692 1.387 . S
C692 H677 0.930 . S
C692 C687 1.390 . S
C692 C691 1.387 . S
H693 C705 0.930 . S
H694 C707 0.930 . S
H695 C708 0.930 . S
H696 C712 0.959 . S
H697 C712 0.959 1_556 S
H698 C712 0.961 1_556 S
H699 C713 0.960 . S
H700 C713 0.961 . S
H701 C713 0.959 . S
H702 C716 0.929 . S
H703 C717 0.931 . S
H704 C719 0.930 . S
C705 H693 0.930 . S
C705 C706 1.399 . S
C705 C710 1.399 . S
C706 C705 1.399 . S
C706 C707 1.376 . S
C707 H694 0.930 . S
C707 C706 1.376 . S
C707 C708 1.388 . S
C708 H695 0.930 . S
C708 C707 1.388 . S
C708 C709 1.390 . S
C709 C708 1.390 . S
C709 C710 1.394 . S
C709 C715 1.465 . S
C710 C705 1.399 . S
C710 C709 1.394 . S
C710 C711 1.516 . S
C711 C710 1.516 . S
C711 C712 1.502 . S
C711 C713 1.561 1_554 S
C711 C714 1.526 . S
C712 H696 0.959 . S
C712 H697 0.959 1_554 S
C712 H698 0.961 1_554 S
C712 C711 1.502 . S
C713 H699 0.960 . S
C713 H700 0.961 . S
C713 H701 0.959 . S
C713 C711 1.561 1_556 S
C714 C711 1.526 . S
C714 C715 1.396 . S
C714 C719 1.390 . S
C715 C709 1.465 . S
C715 C714 1.396 . S
C715 C716 1.399 . S
C716 H702 0.929 . S
C716 C715 1.399 . S
C716 C717 1.385 . S
C717 H703 0.931 . S
C717 C716 1.385 . S
C717 C718 1.389 . S
C718 C717 1.389 . S
C718 C719 1.387 . S
C719 H704 0.930 . S
C719 C714 1.390 . S
C719 C718 1.387 . S
H720 C732 0.930 . S
H721 C734 0.930 . S
H722 C735 0.930 . S
H723 C739 0.959 1_554 S
H724 C739 0.959 . S
H725 C739 0.961 . S
H726 C740 0.960 . S
H727 C740 0.961 . S
H728 C740 0.959 . S
H729 C743 0.929 . S
H730 C744 0.931 . S
H731 C746 0.930 . S
C732 H720 0.930 . S
C732 C733 1.399 . S
C732 C737 1.399 . S
C733 C732 1.399 . S
C733 C734 1.376 . S
C734 H721 0.930 . S
C734 C733 1.376 . S
C734 C735 1.388 . S
C735 H722 0.930 . S
C735 C734 1.388 . S
C735 C736 1.390 . S
C736 C735 1.390 . S
C736 C737 1.394 . S
C736 C742 1.465 . S
C737 C732 1.399 . S
C737 C736 1.394 . S
C737 C738 1.516 . S
C738 C737 1.516 . S
C738 C739 1.502 1_554 S
C738 C740 1.561 1_554 S
C738 C741 1.526 . S
C739 H723 0.959 1_556 S
C739 H724 0.959 . S
C739 H725 0.961 . S
C739 C738 1.502 1_556 S
C740 H726 0.960 . S
C740 H727 0.961 . S
C740 H728 0.959 . S
C740 C738 1.561 1_556 S
C741 C738 1.526 . S
C741 C742 1.396 . S
C741 C746 1.390 . S
C742 C736 1.465 . S
C742 C741 1.396 . S
C742 C743 1.399 . S
C743 H729 0.929 . S
C743 C742 1.399 . S
C743 C744 1.385 . S
C744 H730 0.931 . S
C744 C743 1.385 . S
C744 C745 1.389 . S
C745 C744 1.389 . S
C745 C746 1.387 . S
C746 H731 0.930 . S
C746 C741 1.390 . S
C746 C745 1.387 . S
H747 C759 0.930 . S
H748 C761 0.930 . S
H749 C762 0.930 . S
H750 C766 0.959 . S
H751 C766 0.959 . S
H752 C766 0.961 . S
H753 C767 0.960 . S
H754 C767 0.961 . S
H755 C767 0.959 . S
H756 C770 0.929 . S
H757 C771 0.931 . S
H758 C773 0.930 . S
C759 H747 0.930 . S
C759 C760 1.399 . S
C759 C764 1.399 . S
C760 C759 1.399 . S
C760 C761 1.376 . S
C761 H748 0.930 . S
C761 C760 1.376 . S
C761 C762 1.388 . S
C762 H749 0.930 . S
C762 C761 1.388 . S
C762 C763 1.390 . S
C763 C762 1.390 . S
C763 C764 1.394 . S
C763 C769 1.465 . S
C764 C759 1.399 . S
C764 C763 1.394 . S
C764 C765 1.516 . S
C765 C764 1.516 . S
C765 C766 1.502 . S
C765 C767 1.561 . S
C765 C768 1.526 . S
C766 H750 0.959 . S
C766 H751 0.959 . S
C766 H752 0.961 . S
C766 C765 1.502 . S
C767 H753 0.960 . S
C767 H754 0.961 . S
C767 H755 0.959 . S
C767 C765 1.561 . S
C768 C765 1.526 . S
C768 C769 1.396 . S
C768 C773 1.390 . S
C769 C763 1.465 . S
C769 C768 1.396 . S
C769 C770 1.399 . S
C770 H756 0.929 . S
C770 C769 1.399 . S
C770 C771 1.385 . S
C771 H757 0.931 . S
C771 C770 1.385 . S
C771 C772 1.389 . S
C772 C771 1.389 . S
C772 C773 1.387 . S
C773 H758 0.930 . S
C773 C768 1.390 . S
C773 C772 1.387 . S
H774 C786 0.930 . S
H775 C788 0.930 . S
H776 C789 0.930 . S
H777 C793 0.959 . S
H778 C793 0.959 . S
H779 C793 0.961 . S
H780 C794 0.960 . S
H781 C794 0.961 . S
H782 C794 0.959 . S
H783 C797 0.929 . S
H784 C798 0.931 . S
H785 C800 0.930 . S
C786 H774 0.930 . S
C786 C787 1.399 . S
C786 C791 1.399 . S
C787 C786 1.399 . S
C787 C788 1.376 . S
C788 H775 0.930 . S
C788 C787 1.376 . S
C788 C789 1.388 . S
C789 H776 0.930 . S
C789 C788 1.388 . S
C789 C790 1.390 . S
C790 C789 1.390 . S
C790 C791 1.394 . S
C790 C796 1.465 1_545 S
C791 C786 1.399 . S
C791 C790 1.394 . S
C791 C792 1.516 . S
C792 C791 1.516 . S
C792 C793 1.502 . S
C792 C794 1.561 . S
C792 C795 1.526 1_545 S
C793 H777 0.959 . S
C793 H778 0.959 . S
C793 H779 0.961 . S
C793 C792 1.502 . S
C794 H780 0.960 . S
C794 H781 0.961 . S
C794 H782 0.959 . S
C794 C792 1.561 . S
C795 C792 1.526 1_565 S
C795 C796 1.396 . S
C795 C800 1.390 . S
C796 C790 1.465 1_565 S
C796 C795 1.396 . S
C796 C797 1.399 . S
C797 H783 0.929 . S
C797 C796 1.399 . S
C797 C798 1.385 . S
C798 H784 0.931 . S
C798 C797 1.385 . S
C798 C799 1.389 . S
C799 C798 1.389 . S
C799 C800 1.387 . S
C800 H785 0.930 . S
C800 C795 1.390 . S
C800 C799 1.387 . S
H801 C813 0.930 . S
H802 C815 0.930 . S
H803 C816 0.930 . S
H804 C820 0.959 . S
H805 C820 0.959 . S
H806 C820 0.961 . S
H807 C821 0.960 . S
H808 C821 0.961 . S
H809 C821 0.959 . S
H810 C824 0.929 . S
H811 C825 0.931 . S
H812 C827 0.930 . S
C813 H801 0.930 . S
C813 C814 1.399 . S
C813 C818 1.399 . S
C814 C813 1.399 . S
C814 C815 1.376 . S
C815 H802 0.930 . S
C815 C814 1.376 . S
C815 C816 1.388 . S
C816 H803 0.930 . S
C816 C815 1.388 . S
C816 C817 1.390 . S
C817 C816 1.390 . S
C817 C818 1.394 . S
C817 C823 1.465 . S
C818 C813 1.399 . S
C818 C817 1.394 . S
C818 C819 1.516 . S
C819 C818 1.516 . S
C819 C820 1.502 . S
C819 C821 1.561 . S
C819 C822 1.526 . S
C820 H804 0.959 . S
C820 H805 0.959 . S
C820 H806 0.961 . S
C820 C819 1.502 . S
C821 H807 0.960 . S
C821 H808 0.961 . S
C821 H809 0.959 . S
C821 C819 1.561 . S
C822 C819 1.526 . S
C822 C823 1.396 . S
C822 C827 1.390 . S
C823 C817 1.465 . S
C823 C822 1.396 . S
C823 C824 1.399 . S
C824 H810 0.929 . S
C824 C823 1.399 . S
C824 C825 1.385 . S
C825 H811 0.931 . S
C825 C824 1.385 . S
C825 C826 1.389 . S
C826 C825 1.389 . S
C826 C827 1.387 . S
C827 H812 0.930 . S
C827 C822 1.390 . S
C827 C826 1.387 . S
H828 C840 0.930 . S
H829 C842 0.930 . S
H830 C843 0.930 . S
H831 C847 0.959 . S
H832 C847 0.959 . S
H833 C847 0.961 . S
H834 C848 0.960 . S
H835 C848 0.961 . S
H836 C848 0.959 . S
H837 C851 0.929 . S
H838 C852 0.931 . S
H839 C854 0.930 . S
C840 H828 0.930 . S
C840 C841 1.399 . S
C840 C845 1.399 . S
C841 C840 1.399 . S
C841 C842 1.376 . S
C842 H829 0.930 . S
C842 C841 1.376 . S
C842 C843 1.388 . S
C843 H830 0.930 . S
C843 C842 1.388 . S
C843 C844 1.390 . S
C844 C843 1.390 . S
C844 C845 1.394 . S
C844 C850 1.465 . S
C845 C840 1.399 . S
C845 C844 1.394 . S
C845 C846 1.516 . S
C846 C845 1.516 . S
C846 C847 1.502 . S
C846 C848 1.561 . S
C846 C849 1.526 . S
C847 H831 0.959 . S
C847 H832 0.959 . S
C847 H833 0.961 . S
C847 C846 1.502 . S
C848 H834 0.960 . S
C848 H835 0.961 . S
C848 H836 0.959 . S
C848 C846 1.561 . S
C849 C846 1.526 . S
C849 C850 1.396 . S
C849 C854 1.390 . S
C850 C844 1.465 . S
C850 C849 1.396 . S
C850 C851 1.399 . S
C851 H837 0.929 . S
C851 C850 1.399 . S
C851 C852 1.385 . S
C852 H838 0.931 . S
C852 C851 1.385 . S
C852 C853 1.389 . S
C853 C852 1.389 . S
C853 C854 1.387 . S
C854 H839 0.930 . S
C854 C849 1.390 . S
C854 C853 1.387 . S
H855 C867 0.930 . S
H856 C869 0.930 . S
H857 C870 0.930 . S
H858 C874 0.959 . S
H859 C874 0.959 1_545 S
H860 C874 0.961 . S
H861 C875 0.960 . S
H862 C875 0.961 . S
H863 C875 0.959 . S
H864 C878 0.929 . S
H865 C879 0.931 . S
H866 C881 0.930 . S
C867 H855 0.930 . S
C867 C868 1.399 . S
C867 C872 1.399 . S
C868 C867 1.399 . S
C868 C869 1.376 . S
C869 H856 0.930 . S
C869 C868 1.376 . S
C869 C870 1.388 . S
C870 H857 0.930 . S
C870 C869 1.388 . S
C870 C871 1.390 . S
C871 C870 1.390 . S
C871 C872 1.394 . S
C871 C877 1.465 1_565 S
C872 C867 1.399 . S
C872 C871 1.394 . S
C872 C873 1.516 1_565 S
C873 C872 1.516 1_545 S
C873 C874 1.502 1_545 S
C873 C875 1.561 . S
C873 C876 1.526 . S
C874 H858 0.959 . S
C874 H859 0.959 1_565 S
C874 H860 0.961 . S
C874 C873 1.502 1_565 S
C875 H861 0.960 . S
C875 H862 0.961 . S
C875 H863 0.959 . S
C875 C873 1.561 . S
C876 C873 1.526 . S
C876 C877 1.396 . S
C876 C881 1.390 . S
C877 C871 1.465 1_545 S
C877 C876 1.396 . S
C877 C878 1.399 . S
C878 H864 0.929 . S
C878 C877 1.399 . S
C878 C879 1.385 . S
C879 H865 0.931 . S
C879 C878 1.385 . S
C879 C880 1.389 . S
C880 C879 1.389 . S
C880 C881 1.387 . S
C881 H866 0.930 . S
C881 C876 1.390 . S
C881 C880 1.387 . S
H882 C894 0.930 . S
H883 C896 0.930 . S
H884 C897 0.930 . S
H885 C901 0.959 . S
H886 C901 0.959 . S
H887 C901 0.961 . S
H888 C902 0.960 . S
H889 C902 0.961 . S
H890 C902 0.959 . S
H891 C905 0.929 . S
H892 C906 0.931 . S
H893 C908 0.930 . S
C894 H882 0.930 . S
C894 C895 1.399 . S
C894 C899 1.399 . S
C895 C894 1.399 . S
C895 C896 1.376 . S
C896 H883 0.930 . S
C896 C895 1.376 . S
C896 C897 1.388 . S
C897 H884 0.930 . S
C897 C896 1.388 . S
C897 C898 1.390 . S
C898 C897 1.390 . S
C898 C899 1.394 . S
C898 C904 1.465 . S
C899 C894 1.399 . S
C899 C898 1.394 . S
C899 C900 1.516 . S
C900 C899 1.516 . S
C900 C901 1.502 . S
C900 C902 1.561 . S
C900 C903 1.526 . S
C901 H885 0.959 . S
C901 H886 0.959 . S
C901 H887 0.961 . S
C901 C900 1.502 . S
C902 H888 0.960 . S
C902 H889 0.961 . S
C902 H890 0.959 . S
C902 C900 1.561 . S
C903 C900 1.526 . S
C903 C904 1.396 . S
C903 C908 1.390 . S
C904 C898 1.465 . S
C904 C903 1.396 . S
C904 C905 1.399 . S
C905 H891 0.929 . S
C905 C904 1.399 . S
C905 C906 1.385 . S
C906 H892 0.931 . S
C906 C905 1.385 . S
C906 C907 1.389 . S
C907 C906 1.389 . S
C907 C908 1.387 . S
C908 H893 0.930 . S
C908 C903 1.390 . S
C908 C907 1.387 . S
C193 C1 1.070 . S
C205 C9 1.145 . S
C220 C29 1.101 . S
C232 C21 1.142 . S
C247 C41 1.193 . S
C259 C49 1.118 . S
C274 C69 1.121 . S
C286 C61 1.088 . S
C301 C81 1.093 . S
C313 C89 1.147 1_556 S
C328 C109 1.172 . S
C340 C101 1.151 . S
C355 C128 1.360 . S
C367 C139 1.264 . S
C382 C159 1.331 . S
C394 C148 1.275 . S
C409 C168 1.305 . S
C421 C179 1.348 . S
C436 C116 2.111 . S
C448 C8 2.072 . S
C463 C36 1.632 . S
C475 C76 1.599 . S
C490 C48 2.560 . S
C502 C88 2.520 . S
C517 C56 1.014 . S
C529 C126 1.051 . S
C544 C149 1.296 . S
C556 C16 1.270 1_556 S
C571 C166 1.637 . S
C583 C28 1.629 . S
C598 C161 1.740 . S
C610 C19 1.695 1_556 S
C625 C26 1.011 . S
C637 C121 1.082 . S
C652 C156 1.377 . S
C664 C59 1.348 . S
C679 C46 2.075 . S
C691 C79 2.026 . S
C706 C86 1.599 . S
C718 C6 1.574 . S
C733 C39 2.561 . S
C745 C119 2.567 . S
C760 C169 1.727 . S
C772 C68 1.691 . S
C787 C129 1.030 . S
C799 C96 1.003 . S
C814 C146 1.400 . S
C826 C108 1.294 . S
C841 C136 1.119 . S
C853 C106 1.053 . S
C868 C66 1.310 . S
C880 C141 1.309 . S
C895 C176 1.608 . S
C907 C99 1.624 . S
