# Generated by pormake.
# Topology wju, (5)-cn, num edge types: 1
# Building blocks:
#     Node 0, Type 0, BuildingBlock: BEQFEK_clean_sbu_0, # of connection points: 5
#     Node 1, Type 0, BuildingBlock: BEQFEK_clean_sbu_0, # of connection points: 5
#     Node 2, Type 0, BuildingBlock: BEQFEK_clean_sbu_0, # of connection points: 5
#     Node 3, Type 0, BuildingBlock: BEQFEK_clean_sbu_0, # of connection points: 5
#     Node 4, Type 0, BuildingBlock: BEQFEK_clean_sbu_0, # of connection points: 5
#     Node 5, Type 0, BuildingBlock: BEQFEK_clean_sbu_0, # of connection points: 5
#     Node 6, Type 0, BuildingBlock: BEQFEK_clean_sbu_0, # of connection points: 5
#     Node 7, Type 0, BuildingBlock: BEQFEK_clean_sbu_0, # of connection points: 5
#     Node 8, Type 0, BuildingBlock: BEQFEK_clean_sbu_0, # of connection points: 5
#     Node 9, Type 0, BuildingBlock: BEQFEK_clean_sbu_0, # of connection points: 5
#     Node 10, Type 0, BuildingBlock: BEQFEK_clean_sbu_0, # of connection points: 5
#     Node 11, Type 0, BuildingBlock: BEQFEK_clean_sbu_0, # of connection points: 5
#     Edge 12, Type (0, 0), BuildingBlock: MIFKUJ_clean_linker_0, # of connection points: 2
#     Edge 13, Type (0, 0), BuildingBlock: MIFKUJ_clean_linker_0, # of connection points: 2
#     Edge 14, Type (0, 0), BuildingBlock: MIFKUJ_clean_linker_0, # of connection points: 2
#     Edge 15, Type (0, 0), BuildingBlock: MIFKUJ_clean_linker_0, # of connection points: 2
#     Edge 16, Type (0, 0), BuildingBlock: MIFKUJ_clean_linker_0, # of connection points: 2
#     Edge 17, Type (0, 0), BuildingBlock: MIFKUJ_clean_linker_0, # of connection points: 2
#     Edge 18, Type (0, 0), BuildingBlock: MIFKUJ_clean_linker_0, # of connection points: 2
#     Edge 19, Type (0, 0), BuildingBlock: MIFKUJ_clean_linker_0, # of connection points: 2
#     Edge 20, Type (0, 0), BuildingBlock: MIFKUJ_clean_linker_0, # of connection points: 2
#     Edge 21, Type (0, 0), BuildingBlock: MIFKUJ_clean_linker_0, # of connection points: 2
#     Edge 22, Type (0, 0), BuildingBlock: MIFKUJ_clean_linker_0, # of connection points: 2
#     Edge 23, Type (0, 0), BuildingBlock: MIFKUJ_clean_linker_0, # of connection points: 2
#     Edge 24, Type (0, 0), BuildingBlock: MIFKUJ_clean_linker_0, # of connection points: 2
#     Edge 25, Type (0, 0), BuildingBlock: MIFKUJ_clean_linker_0, # of connection points: 2
#     Edge 26, Type (0, 0), BuildingBlock: MIFKUJ_clean_linker_0, # of connection points: 2
#     Edge 27, Type (0, 0), BuildingBlock: MIFKUJ_clean_linker_0, # of connection points: 2
#     Edge 28, Type (0, 0), BuildingBlock: MIFKUJ_clean_linker_0, # of connection points: 2
#     Edge 29, Type (0, 0), BuildingBlock: MIFKUJ_clean_linker_0, # of connection points: 2
#     Edge 30, Type (0, 0), BuildingBlock: MIFKUJ_clean_linker_0, # of connection points: 2
#     Edge 31, Type (0, 0), BuildingBlock: MIFKUJ_clean_linker_0, # of connection points: 2
#     Edge 32, Type (0, 0), BuildingBlock: MIFKUJ_clean_linker_0, # of connection points: 2
#     Edge 33, Type (0, 0), BuildingBlock: MIFKUJ_clean_linker_0, # of connection points: 2
#     Edge 34, Type (0, 0), BuildingBlock: MIFKUJ_clean_linker_0, # of connection points: 2
#     Edge 35, Type (0, 0), BuildingBlock: MIFKUJ_clean_linker_0, # of connection points: 2
#     Edge 36, Type (0, 0), BuildingBlock: MIFKUJ_clean_linker_0, # of connection points: 2
#     Edge 37, Type (0, 0), BuildingBlock: MIFKUJ_clean_linker_0, # of connection points: 2
#     Edge 38, Type (0, 0), BuildingBlock: MIFKUJ_clean_linker_0, # of connection points: 2
#     Edge 39, Type (0, 0), BuildingBlock: MIFKUJ_clean_linker_0, # of connection points: 2
#     Edge 40, Type (0, 0), BuildingBlock: MIFKUJ_clean_linker_0, # of connection points: 2
#     Edge 41, Type (0, 0), BuildingBlock: MIFKUJ_clean_linker_0, # of connection points: 2
# Relax obj value: 0.129
# Max RMSD: 0.142
# Mean RMSD: 0.142
data_MOF--net-wju--node1-BEQFEK_clean_sbu_0--edge1-MIFKUJ_clean_linker_0
_symmetry_space_group_name_H-M    P1
_symmetry_Int_Tables_number       1
_symmetry_cell_setting            triclinic
loop_
_symmetry_equiv_pos_as_xyz
'x, y, z'
_cell_length_a     34.710794
_cell_length_b     34.698216
_cell_length_c     137.37841
_cell_angle_alpha  89.965333
_cell_angle_beta   89.969897
_cell_angle_gamma 119.98862
loop_
_atom_site_label
_atom_site_type_symbol
_atom_site_fract_x
_atom_site_fract_y
_atom_site_fract_z
_atom_type_partial_charge
Co0 Co 0.31192 0.18426 0.10671 0.0
Co1 Co 0.3147 0.17284 0.08388 0.0
C2 C 0.22945 0.14216 0.09476 0.0
O3 O 0.24897 0.15427 0.10294 0.0
O4 O 0.25117 0.14837 0.0869 0.0
C5 C 0.28761 0.1523 0.12613 0.0
O6 O 0.25918 0.11569 0.12158 0.0
C7 C 0.29507 0.12274 0.06526 0.0
C8 C 0.3468 0.17305 0.05566 0.0
C9 C 0.31149 0.12967 0.05576 0.0
N10 N 0.31989 0.16016 0.07046 0.0
N11 N 0.3507 0.19002 0.06464 0.0
C12 C 0.25542 0.08206 0.06925 0.0
H13 H 0.24365 0.08944 0.07609 0.0
H14 H 0.26465 0.05644 0.07091 0.0
H15 H 0.22805 0.06816 0.06384 0.0
C16 C 0.36062 0.1345 0.10619 0.0
N17 N 0.3392 0.15297 0.10174 0.0
N18 N 0.33984 0.14758 0.09225 0.0
C19 C 0.36138 0.1251 0.09039 0.0
C20 C 0.37482 0.11596 0.09915 0.0
C21 C 0.36699 0.13424 0.11696 0.0
H22 H 0.37749 0.16763 0.12001 0.0
H23 H 0.33499 0.10983 0.12036 0.0
H24 H 0.39206 0.12457 0.11884 0.0
O25 O 0.34355 0.24556 0.10171 0.0
O26 O 0.34675 0.23834 0.08568 0.0
H27 H 0.38511 0.1455 0.07584 0.0
H28 H 0.39639 0.10379 0.08068 0.0
C29 C 0.37173 0.11524 0.08043 0.0
H30 H 0.34079 0.08885 0.07705 0.0
H31 H 0.37435 0.22208 0.06681 0.0
O32 O 0.31405 0.18634 0.12117 0.0
C33 C 0.35562 0.26254 0.09326 0.0
Co34 Co 0.12873 0.32087 0.43942 0.0
Co35 Co 0.13535 0.31654 0.41643 0.0
C36 C 0.07389 0.2365 0.42819 0.0
O37 O 0.08586 0.25844 0.4361 0.0
O38 O 0.09036 0.25489 0.42004 0.0
C39 C 0.12928 0.29191 0.45892 0.0
O40 O 0.12092 0.25511 0.45443 0.0
C41 C 0.15391 0.28989 0.39706 0.0
C42 C 0.16687 0.34818 0.38815 0.0
C43 C 0.16558 0.30766 0.38771 0.0
N44 N 0.1493 0.31902 0.40276 0.0
N45 N 0.15691 0.35363 0.39734 0.0
C46 C 0.14598 0.24544 0.40042 0.0
H47 H 0.12484 0.23434 0.40699 0.0
H48 H 0.17816 0.24785 0.40231 0.0
H49 H 0.13011 0.22029 0.39457 0.0
C50 C 0.22541 0.35693 0.4376 0.0
N51 N 0.18455 0.33873 0.43365 0.0
N52 N 0.18761 0.33646 0.42413 0.0
C53 C 0.23069 0.35275 0.42174 0.0
C54 C 0.25603 0.36631 0.43019 0.0
C55 C 0.23504 0.3691 0.44813 0.0
H56 H 0.21529 0.38423 0.4507 0.0
H57 H 0.22506 0.3385 0.45244 0.0
H58 H 0.27079 0.39296 0.4494 0.0
O59 O 0.10654 0.35986 0.43477 0.0
O60 O 0.11024 0.35657 0.41864 0.0
H61 H 0.24051 0.37745 0.40714 0.0
H62 H 0.28303 0.36566 0.41134 0.0
C63 C 0.24707 0.35462 0.41157 0.0
H64 H 0.22878 0.32108 0.40831 0.0
H65 H 0.15561 0.38119 0.39993 0.0
O66 O 0.13406 0.32489 0.45391 0.0
C67 C 0.10088 0.37112 0.42629 0.0
Co68 Co 0.80751 0.1288 0.77372 0.0
Co69 Co 0.81771 0.13753 0.75069 0.0
C70 C 0.84207 0.07959 0.76219 0.0
O71 O 0.83176 0.08999 0.77026 0.0
O72 O 0.83767 0.0953 0.75417 0.0
C73 C 0.83783 0.1313 0.7932 0.0
O74 O 0.86843 0.12646 0.78865 0.0
C75 C 0.86502 0.15952 0.73157 0.0
C76 C 0.81624 0.16483 0.72219 0.0
C77 C 0.85774 0.16821 0.72205 0.0
N78 N 0.82961 0.15195 0.73706 0.0
N79 N 0.80065 0.15514 0.73136 0.0
C80 C 0.90415 0.15676 0.73529 0.0
H81 H 0.89586 0.13708 0.74208 0.0
H82 H 0.9318 0.1907 0.73693 0.0
H83 H 0.91586 0.14177 0.72972 0.0
C84 C 0.86302 0.2262 0.77214 0.0
N85 N 0.84246 0.18552 0.76807 0.0
N86 N 0.84688 0.18953 0.75853 0.0
C87 C 0.87048 0.23309 0.75625 0.0
C88 C 0.88151 0.25761 0.7648 0.0
C89 C 0.86113 0.23468 0.78277 0.0
H90 H 0.82651 0.2142 0.78544 0.0
H91 H 0.88241 0.22473 0.78683 0.0
H92 H 0.87264 0.2702 0.78427 0.0
O93 O 0.74584 0.10292 0.76899 0.0
O94 O 0.75256 0.10861 0.75286 0.0
H95 H 0.85106 0.23938 0.74182 0.0
H96 H 0.90204 0.28755 0.74589 0.0
C97 C 0.88203 0.25073 0.74608 0.0
H98 H 0.90159 0.23732 0.74259 0.0
H99 H 0.7701 0.15057 0.73374 0.0
O100 O 0.80793 0.13329 0.78824 0.0
C101 C 0.72869 0.09702 0.76054 0.0
Co102 Co 0.67771 0.81516 0.10742 0.0
Co103 Co 0.67538 0.82501 0.0844 0.0
C104 C 0.75995 0.85225 0.09512 0.0
O105 O 0.74042 0.84101 0.10334 0.0
O106 O 0.73858 0.84754 0.08727 0.0
C107 C 0.70781 0.83976 0.12729 0.0
O108 O 0.74605 0.86636 0.12307 0.0
C109 C 0.69788 0.86781 0.06495 0.0
C110 C 0.63586 0.82573 0.05682 0.0
C111 C 0.67792 0.86269 0.05591 0.0
N112 N 0.66893 0.83532 0.0709 0.0
N113 N 0.63209 0.81008 0.06595 0.0
C114 C 0.7421 0.90504 0.06816 0.0
H115 H 0.74151 0.91128 0.07606 0.0
H116 H 0.75119 0.93592 0.06402 0.0
H117 H 0.76781 0.89558 0.06681 0.0
C118 C 0.63579 0.87093 0.10642 0.0
N119 N 0.65435 0.84936 0.1021 0.0
N120 N 0.6531 0.85335 0.09258 0.0
C121 C 0.63341 0.87741 0.09056 0.0
C122 C 0.62195 0.88925 0.09924 0.0
C123 C 0.62898 0.87144 0.11717 0.0
H124 H 0.61113 0.83679 0.11996 0.0
H125 H 0.66186 0.88912 0.12082 0.0
H126 H 0.60975 0.88812 0.11902 0.0
O127 O 0.64275 0.7531 0.10272 0.0
O128 O 0.6415 0.76029 0.08665 0.0
H129 H 0.6024 0.85768 0.07661 0.0
H130 H 0.6113 0.91109 0.08065 0.0
C131 C 0.62554 0.88872 0.08052 0.0
H132 H 0.65744 0.90539 0.07648 0.0
H133 H 0.60404 0.78261 0.06886 0.0
O134 O 0.67427 0.81494 0.12202 0.0
C135 C 0.6309 0.73614 0.09426 0.0
Co136 Co 0.86127 0.68139 0.44212 0.0
Co137 Co 0.8516 0.68645 0.41926 0.0
C138 C 0.89505 0.76814 0.43156 0.0
O139 O 0.88797 0.74577 0.43937 0.0
O140 O 0.88342 0.74926 0.4233 0.0
C141 C 0.84017 0.69225 0.46164 0.0
O142 O 0.82198 0.71268 0.45716 0.0
C143 C 0.83067 0.71091 0.39994 0.0
C144 C 0.81798 0.65242 0.39116 0.0
C145 C 0.81863 0.69262 0.39065 0.0
N146 N 0.83613 0.68236 0.40566 0.0
N147 N 0.82865 0.64762 0.40032 0.0
C148 C 0.83966 0.75579 0.40324 0.0
H149 H 0.87312 0.77382 0.40658 0.0
H150 H 0.81505 0.75171 0.4089 0.0
H151 H 0.83872 0.77628 0.39716 0.0
C152 C 0.76361 0.62151 0.44024 0.0
N153 N 0.80394 0.64947 0.43644 0.0
N154 N 0.79966 0.65401 0.42704 0.0
C155 C 0.75627 0.63051 0.42466 0.0
C156 C 0.73203 0.6088 0.43292 0.0
C157 C 0.75593 0.60422 0.45046 0.0
H158 H 0.7852 0.60258 0.45313 0.0
H159 H 0.75052 0.62686 0.45523 0.0
H160 H 0.72604 0.57057 0.4509 0.0
O161 O 0.8986 0.65821 0.43688 0.0
O162 O 0.89056 0.65987 0.42085 0.0
H163 H 0.74396 0.60969 0.40979 0.0
H164 H 0.70221 0.61993 0.41507 0.0
C165 C 0.73829 0.63141 0.41481 0.0
H166 H 0.7559 0.66578 0.4119 0.0
H167 H 0.83066 0.62049 0.40296 0.0
O168 O 0.85868 0.67527 0.45659 0.0
C169 C 0.9067 0.65071 0.42826 0.0
Co170 Co 0.17485 0.86175 0.77475 0.0
Co171 Co 0.16576 0.84941 0.75182 0.0
C172 C 0.13633 0.90539 0.76275 0.0
O173 O 0.14708 0.89707 0.77101 0.0
O174 O 0.14259 0.88959 0.75494 0.0
C175 C 0.17579 0.88752 0.79475 0.0
O176 O 0.17858 0.92333 0.79081 0.0
C177 C 0.11587 0.82034 0.73324 0.0
C178 C 0.16702 0.82292 0.72327 0.0
C179 C 0.12311 0.81321 0.72359 0.0
N180 N 0.15362 0.83328 0.73832 0.0
N181 N 0.18399 0.83468 0.7323 0.0
C182 C 0.07465 0.81707 0.73753 0.0
H183 H 0.08174 0.83466 0.74458 0.0
H184 H 0.04986 0.78163 0.73889 0.0
H185 H 0.05993 0.83096 0.73242 0.0
C186 C 0.11989 0.76401 0.77382 0.0
N187 N 0.14161 0.80401 0.76944 0.0
N188 N 0.13868 0.79847 0.75993 0.0
C189 C 0.11581 0.75459 0.75796 0.0
C190 C 0.10289 0.73143 0.7667 0.0
C191 C 0.11441 0.75756 0.78461 0.0
H192 H 0.10369 0.78025 0.78769 0.0
H193 H 0.08948 0.7228 0.78655 0.0
H194 H 0.14692 0.76619 0.78791 0.0
O195 O 0.23709 0.89064 0.76996 0.0
O196 O 0.23068 0.88094 0.7539 0.0
H197 H 0.10262 0.70013 0.74828 0.0
H198 H 0.08204 0.73595 0.7443 0.0
C199 C 0.11001 0.73513 0.74798 0.0
H200 H 0.14065 0.75489 0.74364 0.0
H201 H 0.2164 0.84395 0.73434 0.0
O202 O 0.17479 0.85759 0.78925 0.0
C203 C 0.25449 0.89555 0.76154 0.0
Co204 Co 0.80631 0.67661 0.58591 0.0
Co205 Co 0.81645 0.67521 0.60879 0.0
C206 C 0.86327 0.75998 0.59738 0.0
O207 O 0.84668 0.73989 0.58939 0.0
O208 O 0.85393 0.73903 0.60544 0.0
C209 C 0.84068 0.69205 0.56647 0.0
O210 O 0.879 0.7126 0.57105 0.0
C211 C 0.85553 0.69336 0.62864 0.0
C212 C 0.81045 0.63065 0.63627 0.0
C213 C 0.84849 0.67164 0.63754 0.0
N214 N 0.82377 0.66604 0.62236 0.0
N215 N 0.79668 0.62879 0.62703 0.0
C216 C 0.88911 0.74061 0.62633 0.0
H217 H 0.87156 0.75737 0.62338 0.0
H218 H 0.91228 0.74131 0.62068 0.0
H219 H 0.90801 0.75942 0.63283 0.0
C220 C 0.84074 0.61341 0.58731 0.0
N221 N 0.82755 0.64032 0.59136 0.0
N222 N 0.8341 0.64181 0.60085 0.0
C223 C 0.85335 0.61744 0.60302 0.0
C224 C 0.85774 0.59849 0.59455 0.0
C225 C 0.83842 0.60303 0.57668 0.0
H226 H 0.80826 0.60101 0.57342 0.0
H227 H 0.86828 0.62976 0.57299 0.0
H228 H 0.83788 0.57114 0.57548 0.0
O229 O 0.74528 0.65577 0.5906 0.0
O230 O 0.75192 0.65383 0.60666 0.0
H231 H 0.8386 0.59218 0.61753 0.0
H232 H 0.88928 0.59742 0.61277 0.0
C233 C 0.86823 0.61314 0.61298 0.0
H234 H 0.88714 0.64645 0.6164 0.0
H235 H 0.76907 0.60186 0.62386 0.0
O236 O 0.80486 0.67356 0.57141 0.0
C237 C 0.72821 0.64762 0.59909 0.0
Co238 Co 0.12389 0.81088 0.91839 0.0
Co239 Co 0.13907 0.8205 0.94126 0.0
C240 C 0.09203 0.86054 0.93077 0.0
O241 O 0.09519 0.84513 0.92259 0.0
O242 O 0.1078 0.85373 0.93852 0.0
C243 C 0.13105 0.84507 0.8991 0.0
O244 O 0.13599 0.87996 0.90392 0.0
C245 C 0.1633 0.86124 0.9609 0.0
C246 C 0.18044 0.81574 0.96852 0.0
C247 C 0.17843 0.85432 0.96975 0.0
N248 N 0.15754 0.82873 0.9547 0.0
N249 N 0.16757 0.80151 0.95934 0.0
C250 C 0.15102 0.89583 0.95854 0.0
H251 H 0.11579 0.87902 0.95618 0.0
H252 H 0.17188 0.91664 0.95241 0.0
H253 H 0.15451 0.91712 0.96486 0.0
C254 C 0.22211 0.85343 0.91887 0.0
N255 N 0.18254 0.83711 0.92339 0.0
N256 N 0.18903 0.84163 0.93287 0.0
C257 C 0.23301 0.86154 0.93466 0.0
C258 C 0.25528 0.86946 0.92586 0.0
C259 C 0.22784 0.85167 0.90811 0.0
H260 H 0.20243 0.81878 0.90525 0.0
H261 H 0.22319 0.87772 0.90453 0.0
H262 H 0.26141 0.85734 0.90626 0.0
O263 O 0.08911 0.74896 0.92304 0.0
O264 O 0.09896 0.75559 0.93908 0.0
H265 H 0.2463 0.8449 0.94876 0.0
H266 H 0.28992 0.89756 0.94416 0.0
C267 C 0.2534 0.87506 0.94456 0.0
H268 H 0.23851 0.89238 0.94847 0.0
H269 H 0.16595 0.77337 0.9562 0.0
O270 O 0.12511 0.811 0.90384 0.0
C271 C 0.08207 0.73172 0.93151 0.0
Co272 Co 0.31201 0.12549 0.24992 0.0
Co273 Co 0.30801 0.13953 0.27256 0.0
C274 C 0.22684 0.10203 0.26015 0.0
O275 O 0.24811 0.10323 0.25252 0.0
O276 O 0.24595 0.11509 0.26835 0.0
C277 C 0.304 0.1495 0.23074 0.0
O278 O 0.28929 0.1724 0.23551 0.0
C279 C 0.28275 0.15871 0.29191 0.0
C280 C 0.34385 0.17827 0.30039 0.0
C281 C 0.3017 0.17312 0.30107 0.0
N282 N 0.31274 0.15626 0.28608 0.0
N283 N 0.34904 0.16777 0.29123 0.0
C284 C 0.23589 0.14401 0.28893 0.0
H285 H 0.22065 0.11022 0.28573 0.0
H286 H 0.23609 0.16696 0.28328 0.0
H287 H 0.21498 0.1427 0.29516 0.0
C288 C 0.37875 0.22233 0.2513 0.0
N289 N 0.34843 0.18332 0.25532 0.0
N290 N 0.34445 0.18964 0.26464 0.0
C291 C 0.37036 0.23316 0.26672 0.0
C292 C 0.39332 0.25526 0.25836 0.0
C293 C 0.39641 0.22744 0.24115 0.0
H294 H 0.39442 0.19609 0.23868 0.0
H295 H 0.37652 0.23584 0.23618 0.0
H296 H 0.43151 0.25481 0.24078 0.0
O297 O 0.33043 0.08483 0.25537 0.0
O298 O 0.32908 0.09532 0.27132 0.0
H299 H 0.39316 0.25037 0.28137 0.0
H300 H 0.38076 0.28938 0.27549 0.0
C301 C 0.37009 0.25361 0.2763 0.0
H302 H 0.3362 0.23619 0.27947 0.0
H303 H 0.37745 0.16861 0.28848 0.0
O304 O 0.31698 0.12661 0.23549 0.0
C305 C 0.33651 0.07672 0.26411 0.0
Co306 Co 0.17788 0.31596 0.58331 0.0
Co307 Co 0.16547 0.31403 0.60625 0.0
C308 C 0.14658 0.23238 0.59504 0.0
O309 O 0.15651 0.25312 0.58695 0.0
O310 O 0.14943 0.25215 0.60303 0.0
C311 C 0.15506 0.28643 0.56348 0.0
O312 O 0.13057 0.24762 0.56769 0.0
C313 C 0.11835 0.28879 0.6254 0.0
C314 C 0.16492 0.34579 0.63444 0.0
C315 C 0.12481 0.30608 0.63481 0.0
N316 N 0.15289 0.3173 0.61979 0.0
N317 N 0.18051 0.35122 0.62528 0.0
C318 C 0.08113 0.24512 0.62189 0.0
H319 H 0.09052 0.23435 0.61517 0.0
H320 H 0.0518 0.24865 0.62021 0.0
H321 H 0.07153 0.21923 0.6276 0.0
C322 C 0.11542 0.35018 0.58435 0.0
N323 N 0.13919 0.33396 0.58865 0.0
N324 N 0.13341 0.33289 0.59815 0.0
C325 C 0.10555 0.34837 0.60016 0.0
C326 C 0.09311 0.35941 0.59148 0.0
C327 C 0.11476 0.35732 0.57362 0.0
H328 H 0.14928 0.37882 0.57097 0.0
H329 H 0.10075 0.32481 0.56985 0.0
H330 H 0.09444 0.37284 0.57178 0.0
O331 O 0.23919 0.35561 0.58819 0.0
O332 O 0.23042 0.35401 0.60425 0.0
H333 H 0.12448 0.37451 0.61458 0.0
H334 H 0.07551 0.37441 0.61008 0.0
C335 C 0.09377 0.35575 0.6102 0.0
H336 H 0.07259 0.32313 0.61375 0.0
H337 H 0.21014 0.3781 0.62277 0.0
O338 O 0.17828 0.32046 0.56877 0.0
C339 C 0.25518 0.36783 0.59672 0.0
Co340 Co 0.85867 0.17958 0.91758 0.0
Co341 Co 0.84396 0.16887 0.94043 0.0
C342 C 0.90613 0.14604 0.93017 0.0
O343 O 0.89819 0.15701 0.92188 0.0
O344 O 0.88752 0.14925 0.93788 0.0
C345 C 0.87586 0.16537 0.89761 0.0
O346 O 0.90008 0.15037 0.90165 0.0
C347 C 0.82057 0.12281 0.95945 0.0
C348 C 0.80429 0.16632 0.96814 0.0
C349 C 0.80669 0.12768 0.96863 0.0
N350 N 0.82619 0.15706 0.95383 0.0
N351 N 0.81667 0.18307 0.9591 0.0
C352 C 0.82526 0.08471 0.95582 0.0
H353 H 0.82048 0.0813 0.94781 0.0
H354 H 0.80085 0.05325 0.95945 0.0
H355 H 0.8592 0.09113 0.95751 0.0
C356 C 0.76181 0.11781 0.91797 0.0
N357 N 0.80092 0.14214 0.92257 0.0
N358 N 0.79431 0.13804 0.93204 0.0
C359 C 0.75055 0.11127 0.93378 0.0
C360 C 0.72862 0.09747 0.92492 0.0
C361 C 0.75681 0.11335 0.90714 0.0
H362 H 0.7647 0.14587 0.90395 0.0
H363 H 0.78083 0.10415 0.90416 0.0
H364 H 0.72272 0.08766 0.90498 0.0
O365 O 0.88128 0.24124 0.92224 0.0
O366 O 0.87163 0.2338 0.93827 0.0
H367 H 0.74322 0.13375 0.94779 0.0
H368 H 0.69318 0.0864 0.94334 0.0
C369 C 0.7299 0.10215 0.94369 0.0
H370 H 0.73867 0.07985 0.9477 0.0
H371 H 0.81808 0.21198 0.95648 0.0
O372 O 0.85615 0.1799 0.90302 0.0
C373 C 0.88444 0.25802 0.93065 0.0
Co374 Co 0.67138 0.85925 0.25173 0.0
Co375 Co 0.67179 0.84918 0.27473 0.0
C376 C 0.75466 0.90951 0.2638 0.0
O377 O 0.73398 0.90073 0.25572 0.0
O378 O 0.7347 0.89163 0.27173 0.0
C379 C 0.70348 0.8652 0.23203 0.0
O380 O 0.74176 0.87892 0.23643 0.0
C381 C 0.69612 0.83336 0.29449 0.0
C382 C 0.63193 0.80615 0.30223 0.0
C383 C 0.67561 0.81617 0.30341 0.0
N384 N 0.66568 0.83268 0.2883 0.0
N385 N 0.6275 0.81668 0.29301 0.0
C386 C 0.74425 0.85278 0.29198 0.0
H387 H 0.7574 0.88742 0.28941 0.0
H388 H 0.7477 0.83349 0.28594 0.0
H389 H 0.76444 0.85355 0.2983 0.0
C390 C 0.63463 0.76194 0.25304 0.0
N391 N 0.65147 0.80227 0.25722 0.0
N392 N 0.65262 0.79806 0.26673 0.0
C393 C 0.63764 0.75497 0.26887 0.0
C394 C 0.62537 0.73057 0.26029 0.0
C395 C 0.6245 0.75358 0.2424 0.0
H396 H 0.60937 0.77322 0.23977 0.0
H397 H 0.65597 0.76464 0.23835 0.0
H398 H 0.60136 0.71788 0.24087 0.0
O399 O 0.63183 0.88136 0.25618 0.0
O400 O 0.63385 0.87666 0.27231 0.0
H401 H 0.61063 0.73809 0.28325 0.0
H402 H 0.63242 0.70378 0.27876 0.0
C403 C 0.63749 0.73797 0.2789 0.0
H404 H 0.66972 0.76008 0.28249 0.0
H405 H 0.59823 0.81242 0.2899 0.0
O406 O 0.66911 0.85524 0.23714 0.0
C407 C 0.62008 0.88669 0.26463 0.0
H408 H 0.2711 0.03755 0.05521 0.0
H409 H 0.24542 0.98973 0.04096 0.0
H410 H 0.29518 0.10522 0.0224 0.0
H411 H 0.31808 0.15325 0.0367 0.0
H412 H 0.21856 0.04436 0.01584 0.0
H413 H 0.35121 0.04505 0.02627 0.0
H414 H 0.39961 0.03523 0.03795 0.0
H415 H 0.30131 0.89725 0.04124 0.0
H416 H 0.25202 0.90639 0.02969 0.0
H417 H 0.22695 0.94516 0.97126 0.0
H418 H 0.24709 0.98993 0.98611 0.0
H419 H 0.18216 0.87019 1.0034 0.0
H420 H 0.16117 0.82523 0.98851 0.0
H421 H 0.26357 0.93077 1.01079 0.0
H422 H 0.1321 0.93057 0.99989 0.0
H423 H 0.08477 0.94102 0.98804 0.0
H424 H 0.1829 0.07941 0.98539 0.0
H425 H 0.23116 0.06963 0.99712 0.0
C426 C 0.27537 0.05295 0.04817 0.0
C427 C 0.29563 0.09943 0.04718 0.0
C428 C 0.26147 0.02542 0.03996 0.0
C429 C 0.26873 0.04376 0.03056 0.0
C430 C 0.28906 0.09014 0.02955 0.0
C431 C 0.3024 0.11761 0.03776 0.0
C432 C 0.25535 0.01485 0.02175 0.0
C433 C 0.22894 0.01995 0.0147 0.0
C434 C 0.26792 0.98216 0.02032 0.0
C435 C 0.29775 0.97652 0.02719 0.0
C436 C 0.33979 0.01268 0.02953 0.0
C437 C 0.3674 0.00723 0.03613 0.0
C438 C 0.3535 0.96567 0.04035 0.0
C439 C 0.31201 0.92944 0.03797 0.0
C440 C 0.28424 0.93472 0.0314 0.0
C441 C 0.21602 0.92841 0.97821 0.0
C442 C 0.19106 0.88174 0.97871 0.0
C443 C 0.22791 0.95401 0.9867 0.0
C444 C 0.21545 0.93344 0.99587 0.0
C445 C 0.19185 0.88678 0.9964 0.0
C446 C 0.17981 0.86116 0.9879 0.0
C447 C 0.22723 0.96068 1.00488 0.0
C448 C 0.25325 0.9552 1.01197 0.0
C449 C 0.21456 0.99321 1.00632 0.0
C450 C 0.18543 -0.00074 0.99932 0.0
C451 C 0.14375 0.96315 0.99673 0.0
C452 C 0.11673 0.96897 0.99004 0.0
C453 C 0.13087 0.01083 0.98595 0.0
C454 C 0.17202 0.04699 0.98856 0.0
C455 C 0.1992 0.04134 0.99523 0.0
H456 H 0.1099 0.01526 0.98077 0.0
H457 H 0.37492 0.9615 0.04544 0.0
H458 H 0.20843 0.25887 0.38658 0.0
H459 H 0.2272 0.23194 0.37197 0.0
H460 H 0.1693 0.2923 0.35418 0.0
H461 H 0.14854 0.31765 0.36884 0.0
H462 H 0.14734 0.21167 0.34732 0.0
H463 H 0.28228 0.34172 0.35745 0.0
H464 H 0.34197 0.38876 0.36896 0.0
H465 H 0.37715 0.28696 0.37186 0.0
H466 H 0.31724 0.23905 0.36046 0.0
H467 H 0.25233 0.21489 0.30229 0.0
H468 H 0.22484 0.23279 0.31703 0.0
H469 H 0.28427 0.17319 0.33459 0.0
H470 H 0.31139 0.15483 0.31985 0.0
H471 H 0.30418 0.25182 0.34164 0.0
H472 H 0.17016 0.12188 0.33151 0.0
H473 H 0.10812 0.07273 0.32071 0.0
H474 H 0.07066 0.17291 0.31799 0.0
H475 H 0.13275 0.22286 0.3287 0.0
C476 C 0.1984 0.26531 0.37961 0.0
C477 C 0.17595 0.28955 0.37892 0.0
C478 C 0.20994 0.25055 0.37122 0.0
C479 C 0.20004 0.2604 0.36195 0.0
C480 C 0.17726 0.28421 0.36124 0.0
C481 C 0.16558 0.29884 0.36963 0.0
C482 C 0.21406 0.24659 0.35298 0.0
C483 C 0.18174 0.22094 0.34602 0.0
C484 C 0.25877 0.25775 0.35137 0.0
C485 C 0.295 0.28664 0.35818 0.0
C486 C 0.30254 0.32924 0.3606 0.0
C487 C 0.33644 0.35608 0.36709 0.0
C488 C 0.36326 0.34081 0.37116 0.0
C489 C 0.35631 0.29871 0.36871 0.0
C490 C 0.32242 0.27172 0.36223 0.0
C491 C 0.2584 0.20445 0.30927 0.0
C492 C 0.28295 0.18232 0.3099 0.0
C493 C 0.24291 0.21495 0.31771 0.0
C494 C 0.25189 0.20377 0.32694 0.0
C495 C 0.27671 0.18198 0.32756 0.0
C496 C 0.29215 0.17146 0.31913 0.0
C497 C 0.23743 0.21677 0.33596 0.0
C498 C 0.26975 0.24244 0.34294 0.0
C499 C 0.19271 0.20558 0.33757 0.0
C500 C 0.15635 0.17625 0.33085 0.0
C501 C 0.149 0.13362 0.32853 0.0
C502 C 0.1137 0.10554 0.32246 0.0
C503 C 0.08541 0.11965 0.31869 0.0
C504 C 0.09254 0.16199 0.32093 0.0
C505 C 0.12775 0.19018 0.32701 0.0
H506 H 0.05795 0.09776 0.31404 0.0
H507 H 0.38949 0.36163 0.37618 0.0
H508 H 0.83125 0.14448 0.70333 0.0
H509 H 0.87731 0.16478 0.68868 0.0
H510 H -0.00476 0.23705 0.70621 0.0
H511 H 0.94926 0.21832 0.72083 0.0
H512 H -0.00151 0.28489 0.69085 0.0
H513 H 0.9679 0.13598 0.6959 0.0
H514 H 0.92144 0.05524 0.69869 0.0
H515 H 0.85439 0.04103 0.67154 0.0
H516 H 0.90005 0.12184 0.66865 0.0
H517 H 0.15317 0.31721 0.65357 0.0
H518 H 0.10845 0.29114 0.6684 0.0
H519 H 0.98874 0.22841 0.65117 0.0
H520 H 0.03306 0.25536 0.63632 0.0
H521 H 0.9875 0.17447 0.66644 0.0
H522 H 0.0177 0.32432 0.66173 0.0
H523 H 0.06528 0.40499 0.65901 0.0
H524 H 0.13443 0.41691 0.68574 0.0
H525 H 0.08764 0.33614 0.68856 0.0
C526 C 0.86703 0.16445 0.70408 0.0
C527 C 0.88655 0.17881 0.7133 0.0
C528 C 0.89337 0.1758 0.69569 0.0
C529 C 0.93988 0.20182 0.69634 0.0
C530 C 0.95947 0.21653 0.70553 0.0
C531 C 0.93311 0.20519 0.71393 0.0
C532 C 0.96782 0.21516 0.68738 0.0
C533 C -0.00343 0.26064 0.6856 0.0
C534 C 0.96465 0.18367 0.68039 0.0
C535 C 0.93712 0.13505 0.6821 0.0
C536 C 0.943 0.11571 0.69056 0.0
C537 C 0.91685 0.06991 0.69216 0.0
C538 C 0.8849 0.04304 0.68531 0.0
C539 C 0.87911 0.0619 0.67684 0.0
C540 C 0.90515 0.10769 0.67522 0.0
C541 C 0.11731 0.2977 0.65291 0.0
C542 C 0.0969 0.28769 0.64369 0.0
C543 C 0.0918 0.28283 0.66141 0.0
C544 C 0.04523 0.25788 0.6609 0.0
C545 C 0.02466 0.24725 0.65173 0.0
C546 C 0.0502 0.26234 0.64321 0.0
C547 C 0.01805 0.24408 0.66995 0.0
C548 C 0.98944 0.19859 0.67172 0.0
C549 C 0.02145 0.27551 0.67696 0.0
C550 C 0.04947 0.32412 0.67531 0.0
C551 C 0.04329 0.34409 0.66699 0.0
C552 C 0.07008 0.38984 0.66544 0.0
C553 C 0.10294 0.41604 0.67218 0.0
C554 C 0.109 0.39656 0.68051 0.0
C555 C 0.08234 0.3508 0.6821 0.0
H556 H 0.12364 0.45146 0.67097 0.0
H557 H 0.8647 0.00759 0.68656 0.0
H558 H 0.85037 0.08599 0.97577 0.0
H559 H 0.83332 0.04139 0.99063 0.0
H560 H 0.72079 0.05949 0.99595 0.0
H561 H 0.7387 0.1052 0.98128 0.0
H562 H 0.76218 0.07069 1.012 0.0
H563 H 0.71241 0.95859 0.98702 0.0
H564 H 0.72049 0.92329 0.97218 0.0
H565 H 0.82391 0.90897 0.98582 0.0
H566 H 0.81685 0.94475 1.00071 0.0
H567 H 0.63375 0.89027 0.04412 0.0
H568 H 0.66133 0.93616 0.02942 0.0
H569 H 0.78817 0.94328 0.03286 0.0
H570 H 0.76091 0.89785 0.04772 0.0
H571 H 0.74625 0.92045 0.01291 0.0
H572 H 0.79124 0.02967 0.03833 0.0
H573 H 0.78003 0.06354 0.05304 0.0
H574 H 0.68082 0.08075 0.0382 0.0
H575 H 0.69092 0.04629 0.02343 0.0
C576 C 0.82158 0.07979 0.98002 0.0
C577 C 0.79542 0.09847 0.97729 0.0
C578 C 0.81186 0.05433 0.98854 0.0
C579 C 0.7753 0.04638 0.99438 0.0
C580 C 0.74918 0.06506 0.9916 0.0
C581 C 0.75933 0.09106 0.9832 0.0
C582 C 0.76463 0.01966 1.00352 0.0
C583 C 0.75828 0.03766 1.01213 0.0
C584 C 0.76061 0.97692 1.00383 0.0
C585 C 0.76442 0.95478 0.99494 0.0
C586 C 0.73706 0.94815 0.98684 0.0
C587 C 0.74144 0.92804 0.97842 0.0
C588 C 0.77279 0.91403 0.97805 0.0
C589 C 0.79969 0.91992 0.98612 0.0
C590 C 0.79549 0.94008 0.99455 0.0
C591 C 0.66756 0.90174 0.04176 0.0
C592 C 0.6954 0.89105 0.04712 0.0
C593 C 0.68325 0.92791 0.03337 0.0
C594 C 0.72679 0.94316 0.03008 0.0
C595 C 0.75449 0.93186 0.03531 0.0
C596 C 0.73904 0.90633 0.04382 0.0
C597 C 0.74312 0.97135 0.02122 0.0
C598 C 0.7505 0.95361 0.01271 0.0
C599 C 0.74759 0.01411 0.02095 0.0
C600 C 0.74154 0.03499 0.02981 0.0
C601 C 0.76672 0.04028 0.03823 0.0
C602 C 0.76064 0.05967 0.04657 0.0
C603 C 0.72965 0.07419 0.04656 0.0
C604 C 0.70477 0.06944 0.0382 0.0
C605 C 0.71069 0.05001 0.02984 0.0
H606 H 0.725 0.08921 0.05303 0.0
H607 H 0.77619 0.89854 0.97152 0.0
H608 H 0.73021 0.78037 0.30483 0.0
H609 H 0.75764 0.76323 0.31967 0.0
H610 H 0.68622 0.81057 0.33705 0.0
H611 H 0.66004 0.82931 0.32218 0.0
H612 H 0.76796 0.83869 0.34444 0.0
H613 H 0.64582 0.69944 0.33347 0.0
H614 H 0.60367 0.63935 0.32165 0.0
H615 H 0.71307 0.61501 0.31935 0.0
H616 H 0.75613 0.67539 0.33106 0.0
H617 H 0.76927 0.73453 0.38936 0.0
H618 H 0.74901 0.75978 0.37459 0.0
H619 H 0.81973 0.71177 0.35718 0.0
H620 H 0.8407 0.68721 0.37195 0.0
H621 H 0.73938 0.68519 0.3498 0.0
H622 H 0.86153 0.82305 0.36066 0.0
H623 H 0.90627 0.88536 0.3718 0.0
H624 H 0.79924 0.91329 0.37404 0.0
H625 H 0.75357 0.85072 0.36301 0.0
C626 C 0.72136 0.78827 0.3118 0.0
C627 C 0.69394 0.8073 0.31234 0.0
C628 C 0.73647 0.77778 0.32029 0.0
C629 C 0.72378 0.78532 0.3295 0.0
C630 C 0.69659 0.80456 0.33004 0.0
C631 C 0.68154 0.81511 0.32155 0.0
C632 C 0.73817 0.77245 0.33855 0.0
C633 C 0.76117 0.80497 0.34568 0.0
C634 C 0.73031 0.72872 0.34007 0.0
C635 C 0.70435 0.69222 0.33307 0.0
C636 C 0.66101 0.68149 0.33039 0.0
C637 C 0.63694 0.64735 0.32372 0.0
C638 C 0.65573 0.62346 0.31973 0.0
C639 C 0.69859 0.63358 0.32243 0.0
C640 C 0.72282 0.66773 0.32909 0.0
C641 C 0.78166 0.73061 0.38242 0.0
C642 C 0.80774 0.71009 0.38184 0.0
C643 C 0.76973 0.74472 0.37396 0.0
C644 C 0.78332 0.73823 0.36476 0.0
C645 C 0.80899 0.71733 0.36418 0.0
C646 C 0.821 0.70337 0.37263 0.0
C647 C 0.76927 0.75145 0.35571 0.0
C648 C 0.7462 0.71893 0.34858 0.0
C649 C 0.7772 0.7952 0.35419 0.0
C650 C 0.80398 0.83191 0.36108 0.0
C651 C 0.84731 0.84212 0.36362 0.0
C652 C 0.87289 0.87757 0.36989 0.0
C653 C 0.85561 0.90327 0.37361 0.0
C654 C 0.81258 0.89336 0.37114 0.0
C655 C 0.78684 0.85792 0.36488 0.0
H656 H 0.87569 0.93106 0.37836 0.0
H657 H 0.63704 0.59704 0.31457 0.0
H658 H 0.0314 0.75874 0.723 0.0
H659 H 0.98332 0.73734 0.70879 0.0
H660 H 0.0979 0.81105 0.69033 0.0
H661 H 0.14607 0.8351 0.70462 0.0
H662 H 0.03381 0.82362 0.68427 0.0
H663 H 0.04427 0.69513 0.69299 0.0
H664 H 0.03901 0.63612 0.70388 0.0
H665 H 0.89943 0.58732 0.70788 0.0
H666 H 0.90399 0.64644 0.69712 0.0
H667 H 0.93937 0.71773 0.63917 0.0
H668 H 0.98355 0.74326 0.65408 0.0
H669 H 0.86333 0.68194 0.67123 0.0
H670 H 0.81883 0.65733 0.65628 0.0
H671 H 0.92752 0.66382 0.67816 0.0
H672 H 0.91806 0.79181 0.66849 0.0
H673 H 0.92485 0.84975 0.65707 0.0
H674 H 0.06499 0.89859 0.6543 0.0
H675 H 0.05893 0.84046 0.66559 0.0
C676 C 0.04647 0.7717 0.716 0.0
C677 C 0.09273 0.79969 0.71504 0.0
C678 C 0.01884 0.75859 0.70781 0.0
C679 C 0.03691 0.77215 0.69844 0.0
C680 C 0.08304 0.80017 0.69746 0.0
C681 C 0.1106 0.81367 0.70566 0.0
C682 C 0.008 0.75677 0.68964 0.0
C683 C 0.01096 0.78862 0.68289 0.0
C684 C 0.97743 0.71116 0.68789 0.0
C685 C 0.97458 0.67549 0.69433 0.0
C686 C 0.01253 0.67201 0.69625 0.0
C687 C 0.00966 0.63852 0.70239 0.0
C688 C 0.96894 0.60807 0.70659 0.0
C689 C 0.93096 0.61097 0.70463 0.0
C690 C 0.93366 0.64444 0.69851 0.0
C691 C 0.92229 0.71073 0.6461 0.0
C692 C 0.87557 0.68698 0.64654 0.0
C693 C 0.94759 0.72495 0.65462 0.0
C694 C 0.92671 0.71518 0.66376 0.0
C695 C 0.8801 0.69016 0.66425 0.0
C696 C 0.85476 0.67618 0.65571 0.0
C697 C 0.95364 0.73063 0.67281 0.0
C698 C 0.95028 0.6988 0.67958 0.0
C699 C 0.98412 0.77619 0.67453 0.0
C700 C 0.98795 0.8115 0.66782 0.0
C701 C 0.95027 0.81468 0.66539 0.0
C702 C 0.95399 0.8476 0.65895 0.0
C703 C -0.0047 0.87777 0.65494 0.0
C704 C 0.033 0.87517 0.6574 0.0
C705 C 0.02945 0.84226 0.66382 0.0
H706 H -0.00189 0.90321 0.64996 0.0
H707 H 0.96679 0.58216 0.71134 0.0
H708 H 0.64905 0.97004 0.10733 0.0
H709 H 0.60647 0.00901 0.10839 0.0
H710 H 0.49369 0.89612 0.09514 0.0
H711 H 0.53697 0.85821 0.09375 0.0
H712 H 0.50818 0.9698 0.08679 0.0
H713 H 0.49974 0.92081 0.12007 0.0
H714 H 0.53083 0.91435 0.13574 0.0
H715 H 0.60062 0.05647 0.13887 0.0
H716 H 0.57055 0.06385 0.12316 0.0
H717 H 0.3458 0.03006 0.09471 0.0
H718 H 0.38733 0.99027 0.09611 0.0
H719 H 0.49966 0.10853 0.10782 0.0
H720 H 0.45754 0.14795 0.10663 0.0
H721 H 0.48675 0.03409 0.11718 0.0
H722 H 0.49664 0.08377 0.08418 0.0
H723 H 0.46622 0.09198 0.0686 0.0
H724 H 0.39538 0.95016 0.06486 0.0
H725 H 0.42474 0.94103 0.08052 0.0
C726 C 0.61506 0.95375 0.10473 0.0
C727 C 0.59591 0.91152 0.10046 0.0
C728 C 0.59075 0.97576 0.10537 0.0
C729 C 0.54676 0.9552 0.10193 0.0
C730 C 0.52757 0.91255 0.09782 0.0
C731 C 0.55209 0.89092 0.09705 0.0
C732 C 0.52115 0.9787 0.10222 0.0
C733 C 0.50295 0.98326 0.09347 0.0
C734 C 0.51559 -0.00254 0.11088 0.0
C735 C 0.53319 0.9929 0.12039 0.0
C736 C 0.52195 0.9507 0.12407 0.0
C737 C 0.53937 0.94688 0.13296 0.0
C738 C 0.56775 0.98499 0.13828 0.0
C739 C 0.57867 0.02699 0.13474 0.0
C740 C 0.56143 0.03101 0.12584 0.0
C741 C 0.3792 0.04717 0.09767 0.0
C742 C 0.39884 0.09171 0.10057 0.0
C743 C 0.40283 0.02463 0.09845 0.0
C744 C 0.4467 0.04676 0.10195 0.0
C745 C 0.46582 0.09098 0.10512 0.0
C746 C 0.44197 0.1134 0.10442 0.0
C747 C 0.47333 0.02442 0.1018 0.0
C748 C 0.4919 0.02037 0.11053 0.0
C749 C 0.47944 0.00624 0.09312 0.0
C750 C 0.46261 0.0117 0.08357 0.0
C751 C 0.47438 0.05431 0.08007 0.0
C752 C 0.45733 0.05913 0.07122 0.0
C753 C 0.42882 0.02161 0.06575 0.0
C754 C 0.41744 0.97919 0.06911 0.0
C755 C 0.4343 0.97417 0.07797 0.0
H756 H 0.41561 0.02543 0.05892 0.0
H757 H 0.58124 0.98203 0.14516 0.0
H758 H 0.3164 0.43863 0.42003 0.0
H759 H 0.39742 0.47602 0.42114 0.0
H760 H 0.38644 0.38559 0.44401 0.0
H761 H 0.30523 0.34638 0.44245 0.0
H762 H 0.45224 0.52071 0.4346 0.0
H763 H 0.47582 0.37059 0.44363 0.0
H764 H 0.43845 0.28973 0.4406 0.0
H765 H 0.37962 0.30612 0.41458 0.0
H766 H 0.41709 0.38708 0.41738 0.0
H767 H 0.67701 0.60987 0.44693 0.0
H768 H 0.59602 0.56381 0.44776 0.0
H769 H 0.59665 0.49694 0.42132 0.0
H770 H 0.67788 0.54089 0.42086 0.0
H771 H 0.53611 0.43968 0.43286 0.0
H772 H 0.57644 0.58552 0.42134 0.0
H773 H 0.61445 0.66747 0.42188 0.0
H774 H 0.54571 0.66132 0.44834 0.0
H775 H 0.50775 0.57928 0.44804 0.0
C776 C 0.33141 0.42634 0.42517 0.0
C777 C 0.30488 0.3893 0.43104 0.0
C778 C 0.37761 0.44797 0.42588 0.0
C779 C 0.39806 0.43332 0.43258 0.0
C780 C 0.37145 0.39694 0.43865 0.0
C781 C 0.32517 0.37483 0.43782 0.0
C782 C 0.44723 0.45649 0.43321 0.0
C783 C 0.47052 0.50293 0.43424 0.0
C784 C 0.47119 0.43341 0.4326 0.0
C785 C 0.44887 0.38481 0.43078 0.0
C786 C 0.45502 0.35693 0.43725 0.0
C787 C 0.4338 0.31108 0.43557 0.0
C788 C 0.40655 0.29278 0.42742 0.0
C789 C 0.40059 0.32031 0.42091 0.0
C790 C 0.42177 0.36617 0.42254 0.0
C791 C 0.65987 0.58466 0.44143 0.0
C792 C 0.68346 0.57924 0.43376 0.0
C793 C 0.61362 0.55869 0.44185 0.0
C794 C 0.59021 0.52761 0.43448 0.0
C795 C 0.61398 0.52089 0.42705 0.0
C796 C 0.66027 0.54634 0.42672 0.0
C797 C 0.54098 0.50384 0.4342 0.0
C798 C 0.51772 0.45734 0.43328 0.0
C799 C 0.51705 0.52699 0.43454 0.0
C800 C 0.53962 0.5763 0.43472 0.0
C801 C 0.56967 0.60166 0.42731 0.0
C802 C 0.59117 0.64811 0.42757 0.0
C803 C 0.58259 0.66959 0.43515 0.0
C804 C 0.55238 0.64464 0.44248 0.0
C805 C 0.53085 0.59816 0.44227 0.0
H806 H 0.59927 0.70556 0.43534 0.0
H807 H 0.39013 0.25728 0.42615 0.0
H808 H 0.02465 0.67198 0.75837 0.0
H809 H 0.98616 0.59075 0.75976 0.0
H810 H 0.08782 0.60089 0.77941 0.0
H811 H 0.12687 0.6822 0.77785 0.0
H812 H 0.07071 0.54124 0.76502 0.0
H813 H 0.98615 0.57194 0.78801 0.0
H814 H 0.94215 0.6052 0.79388 0.0
H815 H 0.8433 0.53398 0.77203 0.0
H816 H 0.88705 0.50079 0.76592 0.0
H817 H 0.95435 0.30967 0.77573 0.0
H818 H 0.99164 0.39077 0.77764 0.0
H819 H 0.89636 0.39519 0.75816 0.0
H820 H 0.85851 0.31406 0.75645 0.0
H821 H 0.91161 0.44747 0.77398 0.0
H822 H -0.00165 0.42218 0.75014 0.0
H823 H 0.04223 0.38948 0.74386 0.0
H824 H 0.13681 0.45128 0.76697 0.0
H825 H 0.09309 0.48383 0.77348 0.0
C826 C 0.03851 0.6567 0.76302 0.0
C827 C 0.07844 0.6829 0.76803 0.0
C828 C 0.01645 0.61051 0.76386 0.0
C829 C 0.03397 0.58998 0.76977 0.0
C830 C 0.07373 0.61623 0.77486 0.0
C831 C 0.09579 0.66246 0.77401 0.0
C832 C 0.01197 0.541 0.77019 0.0
C833 C 0.03616 0.52069 0.76716 0.0
C834 C 0.96665 0.51442 0.77277 0.0
C835 C 0.94009 0.53413 0.77646 0.0
C836 C 0.9552 0.56362 0.78441 0.0
C837 C 0.93027 0.58242 0.78779 0.0
C838 C 0.89 0.57178 0.78332 0.0
C839 C 0.87452 0.54222 0.77548 0.0
C840 C 0.89935 0.52336 0.77206 0.0
C841 C 0.94152 0.32817 0.77189 0.0
C842 C 0.90414 0.30621 0.76585 0.0
C843 C 0.96277 0.37427 0.77296 0.0
C844 C 0.94694 0.39887 0.76796 0.0
C845 C 0.90906 0.37672 0.76206 0.0
C846 C 0.88779 0.33065 0.76101 0.0
C847 C 0.97026 0.44782 0.76872 0.0
C848 C 0.9463 0.46807 0.77195 0.0
C849 C 0.01576 0.4744 0.76629 0.0
C850 C 0.04218 0.45502 0.76236 0.0
C851 C 0.0283 0.42849 0.75393 0.0
C852 C 0.05318 0.41003 0.75032 0.0
C853 C 0.09221 0.41819 0.75503 0.0
C854 C 0.10652 0.44492 0.76334 0.0
C855 C 0.08172 0.4634 0.76699 0.0
H856 H 0.11143 0.40388 0.75222 0.0
H857 H 0.87075 0.58637 0.78595 0.0
H858 H 0.12282 0.44506 0.58649 0.0
H859 H 0.07948 0.48339 0.58584 0.0
H860 H 0.96037 0.36055 0.59303 0.0
H861 H 0.00406 0.32246 0.59395 0.0
H862 H 0.9575 0.42185 0.57658 0.0
H863 H -0.00463 0.41524 0.61043 0.0
H864 H 0.04868 0.4253 0.6234 0.0
H865 H 0.12598 0.56447 0.61656 0.0
H866 H 0.07356 0.555 0.6034 0.0
H867 H 0.82004 0.50985 0.59127 0.0
H868 H 0.85835 0.46676 0.58974 0.0
H869 H 0.98482 0.58734 0.59334 0.0
H870 H 0.9462 0.62987 0.59518 0.0
H871 H 0.98304 0.52489 0.60403 0.0
H872 H 0.94781 0.53588 0.57093 0.0
H873 H 0.89967 0.52936 0.55709 0.0
H874 H 0.82309 0.38796 0.56133 0.0
H875 H 0.87037 0.3937 0.5753 0.0
C876 C 0.0873 0.42635 0.58781 0.0
C877 C 0.06642 0.38114 0.59027 0.0
C878 C 0.06268 0.44807 0.58742 0.0
C879 C 0.01687 0.4246 0.58936 0.0
C880 C -0.00433 0.37895 0.59145 0.0
C881 C 0.02049 0.3574 0.59201 0.0
C882 C 0.99212 0.44876 0.59006 0.0
C883 C 0.96243 0.44395 0.58262 0.0
C884 C -0.00017 0.47838 0.59782 0.0
C885 C 0.03082 0.48431 0.60587 0.0
C886 C 0.02395 0.4479 0.61163 0.0
C887 C 0.05397 0.4535 0.61903 0.0
C888 C 0.09076 0.49548 0.62079 0.0
C889 C 0.09751 0.53196 0.61518 0.0
C890 C 0.06765 0.52649 0.60775 0.0
C891 C 0.85601 0.52684 0.5917 0.0
C892 C 0.8805 0.57279 0.59332 0.0
C893 C 0.87786 0.50243 0.59078 0.0
C894 C 0.92452 0.52393 0.59132 0.0
C895 C 0.94885 0.57008 0.5929 0.0
C896 C 0.92695 0.59432 0.59392 0.0
C897 C 0.94801 0.49828 0.59052 0.0
C898 C 0.9777 0.50278 0.59796 0.0
C899 C 0.94071 0.46893 0.58267 0.0
C900 C 0.91238 0.46528 0.57423 0.0
C901 C 0.9205 0.50343 0.56896 0.0
C902 C 0.89339 0.49988 0.56109 0.0
C903 C 0.85828 0.45829 0.55835 0.0
C904 C 0.85027 0.42016 0.56347 0.0
C905 C 0.87723 0.42354 0.57136 0.0
H906 H 0.83733 0.45561 0.55226 0.0
H907 H 0.11397 0.49976 0.62652 0.0
H908 H 0.67772 0.11987 0.91399 0.0
H909 H 0.59664 0.07815 0.91223 0.0
H910 H 0.59009 0.97424 0.93066 0.0
H911 H 0.67142 0.01559 0.93224 0.0
H912 H 0.53204 0.94082 0.91518 0.0
H913 H 0.57206 0.05101 0.94021 0.0
H914 H 0.61206 0.1267 0.94709 0.0
H915 H 0.55128 0.17088 0.92599 0.0
H916 H 0.51145 0.09554 0.91887 0.0
H917 H 0.31158 0.84497 0.93366 0.0
H918 H 0.3925 0.88191 0.93154 0.0
H919 H 0.38793 0.97832 0.91243 0.0
H920 H 0.30692 0.94138 0.91458 0.0
H921 H 0.45135 0.01615 0.92702 0.0
H922 H 0.40643 0.90267 0.90284 0.0
H923 H 0.36606 0.82612 0.89644 0.0
H924 H 0.43508 0.7869 0.91648 0.0
H925 H 0.4754 0.8631 0.92312 0.0
C926 C 0.6589 0.08775 0.91751 0.0
C927 C 0.68035 0.0708 0.92328 0.0
C928 C 0.61275 0.06412 0.91654 0.0
C929 C 0.58749 0.02342 0.92141 0.0
C930 C 0.60909 0.00562 0.92686 0.0
C931 C 0.6553 0.02927 0.92782 0.0
C932 C 0.53843 0.00084 0.92131 0.0
C933 C 0.51431 0.95707 0.91783 0.0
C934 C 0.51554 0.02253 0.92462 0.0
C935 C 0.53916 0.06777 0.92894 0.0
C936 C 0.5675 0.07695 0.93698 0.0
C937 C 0.59011 0.11977 0.94093 0.0
C938 C 0.58431 0.15361 0.93696 0.0
C939 C 0.5558 0.14465 0.92905 0.0
C940 C 0.53319 0.10189 0.92505 0.0
C941 C 0.32802 0.87395 0.92899 0.0
C942 C 0.30353 0.89061 0.92428 0.0
C943 C 0.37398 0.89479 0.92774 0.0
C944 C 0.39597 0.93257 0.92178 0.0
C945 C 0.37142 0.94908 0.91703 0.0
C946 C 0.32537 0.92801 0.91822 0.0
C947 C 0.44488 0.95605 0.92091 0.0
C948 C 0.46902 1e-05 0.92426 0.0
C949 C 0.46768 0.93439 0.91754 0.0
C950 C 0.44366 0.88855 0.91353 0.0
C951 C 0.41274 0.87765 0.90594 0.0
C952 C 0.38991 0.83433 0.90226 0.0
C953 C 0.39793 0.80164 0.90606 0.0
C954 C 0.42888 0.81225 0.91355 0.0
C955 C 0.45176 0.85552 0.91726 0.0
H956 H 0.38022 0.76812 0.9032 0.0
H957 H 0.60183 0.18674 0.94003 0.0
H958 H 0.46177 0.31072 0.2702 0.0
H959 H 0.50608 0.39197 0.26921 0.0
H960 H 0.43972 0.38924 0.24245 0.0
H961 H 0.39374 0.30838 0.24371 0.0
H962 H 0.56341 0.45339 0.25706 0.0
H963 H 0.41859 0.47416 0.24241 0.0
H964 H 0.33648 0.43321 0.24238 0.0
H965 H 0.33535 0.36745 0.26896 0.0
H966 H 0.41736 0.4085 0.26922 0.0
H967 H 0.64724 0.68402 0.24758 0.0
H968 H 0.61118 0.60294 0.24588 0.0
H969 H 0.5212 0.58688 0.26928 0.0
H970 H 0.55538 0.66758 0.27056 0.0
H971 H 0.47697 0.5319 0.25575 0.0
H972 H 0.61386 0.57254 0.27232 0.0
H973 H 0.6952 0.61294 0.27462 0.0
H974 H 0.71131 0.55564 0.24832 0.0
H975 H 0.63004 0.51534 0.24579 0.0
C976 C 0.45677 0.32758 0.26411 0.0
C977 C 0.42396 0.3035 0.25711 0.0
C978 C 0.48239 0.37386 0.26349 0.0
C979 C 0.4757 0.39667 0.25584 0.0
C980 C 0.44494 0.37232 0.24849 0.0
C981 C 0.41897 0.32612 0.24918 0.0
C982 C 0.49809 0.44588 0.25599 0.0
C983 C 0.54461 0.47064 0.25671 0.0
C984 C 0.47344 0.46829 0.25576 0.0
C985 C 0.42409 0.44403 0.25577 0.0
C986 C 0.40078 0.45109 0.24826 0.0
C987 C 0.35427 0.42786 0.24821 0.0
C988 C 0.33072 0.39764 0.25565 0.0
C989 C 0.35362 0.39075 0.26319 0.0
C990 C 0.40012 0.41398 0.26329 0.0
C991 C 0.61946 0.663 0.25227 0.0
C992 C 0.60415 0.68182 0.25924 0.0
C993 C 0.5992 0.61679 0.25137 0.0
C994 C 0.56385 0.58879 0.25755 0.0
C995 C 0.54843 0.60776 0.26445 0.0
C996 C 0.56823 0.65382 0.26524 0.0
C997 C 0.54245 0.53968 0.25685 0.0
C998 C 0.49598 0.51483 0.25599 0.0
C999 C 0.5671 0.51726 0.25729 0.0
C1000 C 0.61593 0.54131 0.25882 0.0
C1001 C 0.63478 0.56882 0.26699 0.0
C1002 C 0.68086 0.59165 0.26834 0.0
C1003 C 0.70842 0.58696 0.26161 0.0
C1004 C 0.68993 0.55931 0.25352 0.0
C1005 C 0.64386 0.53643 0.25213 0.0
H1006 H 0.74409 0.60467 0.26266 0.0
H1007 H 0.29472 0.37963 0.25558 0.0
H1008 H 0.318 0.21855 0.21906 0.0
H1009 H 0.31892 0.22078 0.20129 0.0
H1010 H 0.29254 0.08527 0.20047 0.0
H1011 H 0.29468 0.08419 0.21828 0.0
H1012 H 0.34573 0.12626 0.18685 0.0
H1013 H 0.20932 0.11772 0.19655 0.0
H1014 H 0.16104 0.13932 0.20534 0.0
H1015 H 0.22663 0.26713 0.19134 0.0
H1016 H 0.27568 0.24648 0.18255 0.0
H1017 H 0.25585 0.08117 0.13846 0.0
H1018 H 0.26178 0.08232 0.15623 0.0
H1019 H 0.3313 0.22575 0.15588 0.0
H1020 H 0.32629 0.22498 0.13806 0.0
H1021 H 0.2566 0.18115 0.16973 0.0
H1022 H 0.39106 0.18319 0.15948 0.0
H1023 H 0.43276 0.15475 0.15032 0.0
H1024 H 0.36113 0.02936 0.16516 0.0
H1025 H 0.31849 0.05684 0.17431 0.0
C1026 C 0.31258 0.18934 0.21506 0.0
C1027 C 0.3059 0.15107 0.22001 0.0
C1028 C 0.31278 0.19048 0.2049 0.0
C1029 C 0.30453 0.15276 0.19947 0.0
C1030 C 0.2988 0.11479 0.20445 0.0
C1031 C 0.29991 0.11411 0.21462 0.0
C1032 C 0.30166 0.15281 0.18865 0.0
C1033 C 0.32572 0.13775 0.18315 0.0
C1034 C 0.27599 0.16822 0.18372 0.0
C1035 C 0.24645 0.18069 0.18897 0.0
C1036 C 0.21363 0.15053 0.19539 0.0
C1037 C 0.18611 0.16259 0.20037 0.0
C1038 C 0.19084 0.20461 0.19892 0.0
C1039 C 0.22304 0.23462 0.19247 0.0
C1040 C 0.25068 0.22274 0.18748 0.0
C1041 C 0.27235 0.11297 0.14216 0.0
C1042 C 0.29059 0.15301 0.13687 0.0
C1043 C 0.27583 0.11354 0.1523 0.0
C1044 C 0.2971 0.15411 0.15733 0.0
C1045 C 0.31481 0.19413 0.1521 0.0
C1046 C 0.31201 0.19361 0.14194 0.0
C1047 C 0.30054 0.15469 0.16807 0.0
C1048 C 0.27654 0.16977 0.17351 0.0
C1049 C 0.3253 0.13829 0.17293 0.0
C1050 C 0.35129 0.12194 0.16751 0.0
C1051 C 0.38393 0.14943 0.16073 0.0
C1052 C 0.40779 0.1335 0.15555 0.0
C1053 C 0.39952 0.09024 0.15714 0.0
C1054 C 0.36747 0.06285 0.16393 0.0
C1055 C 0.34347 0.0786 0.16912 0.0
H1056 H 0.41802 0.07797 0.15312 0.0
H1057 H 0.1695 0.21389 0.20278 0.0
H1058 H 0.10809 0.22404 0.47174 0.0
H1059 H 0.11347 0.22805 0.48947 0.0
H1060 H 0.16467 0.36964 0.48827 0.0
H1061 H 0.1593 0.36597 0.47045 0.0
H1062 H 0.21213 0.34526 0.50104 0.0
H1063 H 0.06089 0.30582 0.4949 0.0
H1064 H 0.98635 0.26219 0.4876 0.0
H1065 H 0.96894 0.1442 0.50179 0.0
H1066 H 0.04367 0.18702 0.50906 0.0
H1067 H 0.18932 0.36246 0.55242 0.0
H1068 H 0.18603 0.36786 0.53469 0.0
H1069 H 0.11683 0.22464 0.53257 0.0
H1070 H 0.11897 0.21902 0.55024 0.0
H1071 H 0.07818 0.25556 0.52136 0.0
H1072 H 0.22979 0.29213 0.52665 0.0
H1073 H 0.30502 0.33384 0.53372 0.0
H1074 H 0.3226 0.45475 0.52104 0.0
H1075 H 0.24721 0.41382 0.51399 0.0
C1076 C 0.12052 0.25609 0.47522 0.0
C1077 C 0.13305 0.29467 0.46968 0.0
C1078 C 0.12345 0.25828 0.48537 0.0
C1079 C 0.13909 0.29907 0.49019 0.0
C1080 C 0.15241 0.33782 0.48468 0.0
C1081 C 0.14913 0.33561 0.47452 0.0
C1082 C 0.14128 0.30092 0.50099 0.0
C1083 C 0.18278 0.32626 0.50551 0.0
C1084 C 0.1031 0.2754 0.50679 0.0
C1085 C 0.05805 0.24958 0.50246 0.0
C1086 C 0.04131 0.2705 0.4964 0.0
C1087 C -0.001 0.24593 0.49228 0.0
C1088 C 0.97297 0.20043 0.49421 0.0
C1089 C 0.98916 0.17944 0.50029 0.0
C1090 C 0.03147 0.20386 0.50442 0.0
C1091 C 0.17358 0.33215 0.54817 0.0
C1092 C 0.15448 0.29031 0.55274 0.0
C1093 C 0.17184 0.33527 0.53802 0.0
C1094 C 0.15156 0.29665 0.53226 0.0
C1095 C 0.13257 0.25493 0.53684 0.0
C1096 C 0.13394 0.25177 0.54696 0.0
C1097 C 0.14924 0.29928 0.52147 0.0
C1098 C 0.1076 0.27483 0.51693 0.0
C1099 C 0.18738 0.32535 0.51566 0.0
C1100 C 0.23268 0.35001 0.51989 0.0
C1101 C 0.24957 0.32768 0.52544 0.0
C1102 C 0.29226 0.35116 0.52942 0.0
C1103 C 0.31852 0.39694 0.52785 0.0
C1104 C 0.30219 0.4193 0.52226 0.0
C1105 C 0.25949 0.39598 0.51827 0.0
H1106 H 0.35157 0.41506 0.53094 0.0
H1107 H 0.94022 0.18146 0.49102 0.0
H1108 H 0.78812 0.15402 0.8049 0.0
H1109 H 0.79073 0.16032 0.8227 0.0
H1110 H 0.89225 0.12335 0.82358 0.0
H1111 H 0.88983 0.11691 0.80587 0.0
H1112 H 0.82679 0.07819 0.83712 0.0
H1113 H 0.91937 0.23002 0.82636 0.0
H1114 H 0.93554 0.29764 0.8172 0.0
H1115 H 0.83096 0.30415 0.83247 0.0
H1116 H 0.81373 0.23613 0.84162 0.0
H1117 H 0.91642 0.13994 0.88408 0.0
H1118 H 0.90567 0.13465 0.86648 0.0
H1119 H 0.81137 0.18059 0.86916 0.0
H1120 H 0.82246 0.18665 0.88683 0.0
H1121 H 0.86606 0.21969 0.85393 0.0
H1122 H 0.77545 0.07106 0.86532 0.0
H1123 H 0.75748 0.00285 0.87443 0.0
H1124 H 0.85509 0.98902 0.85798 0.0
H1125 H 0.87411 0.05753 0.84885 0.0
C1126 C 0.81095 0.14717 0.80889 0.0
C1127 C 0.8388 0.13499 0.80396 0.0
C1128 C 0.81252 0.15096 0.81906 0.0
C1129 C 0.84188 0.14255 0.82446 0.0
C1130 C 0.86934 0.12997 0.81956 0.0
C1131 C 0.86801 0.12646 0.80942 0.0
C1132 C 0.84413 0.14659 0.83524 0.0
C1133 C 0.83579 0.10924 0.84079 0.0
C1134 C 0.85446 0.18671 0.84005 0.0
C1135 C 0.86493 0.2277 0.83459 0.0
C1136 C 0.89957 0.24565 0.8277 0.0
C1137 C 0.90898 0.28409 0.82253 0.0
C1138 C 0.88421 0.3051 0.82423 0.0
C1139 C 0.85007 0.28779 0.83114 0.0
C1140 C 0.84048 0.24931 0.83633 0.0
C1141 C 0.89342 0.14903 0.88095 0.0
C1142 C 0.87016 0.16355 0.88688 0.0
C1143 C 0.88717 0.14579 0.87087 0.0
C1144 C 0.85718 0.15655 0.8665 0.0
C1145 C 0.83457 0.17197 0.87237 0.0
C1146 C 0.8409 0.17534 0.88247 0.0
C1147 C 0.84955 0.15146 0.8558 0.0
C1148 C 0.85674 0.18853 0.85027 0.0
C1149 C 0.83786 0.11096 0.851 0.0
C1150 C 0.82647 0.06966 0.85646 0.0
C1151 C 0.79333 0.05367 0.86369 0.0
C1152 C 0.78291 0.01491 0.86885 0.0
C1153 C 0.8052 0.99167 0.8668 0.0
C1154 C 0.83788 0.00708 0.85957 0.0
C1155 C 0.84847 0.04585 0.85439 0.0
H1156 H 0.79708 0.96166 0.8708 0.0
H1157 H 0.89155 0.33487 0.82022 0.0
H1158 H 0.63208 0.79809 0.13848 0.0
H1159 H 0.62664 0.79851 0.15627 0.0
H1160 H 0.76922 0.88093 0.15823 0.0
H1161 H 0.77497 0.88053 0.14052 0.0
H1162 H 0.73629 0.81203 0.17132 0.0
H1163 H 0.70179 0.92497 0.16079 0.0
H1164 H 0.65893 0.95171 0.15148 0.0
H1165 H 0.53919 0.85694 0.16609 0.0
H1166 H 0.58122 0.8292 0.17538 0.0
H1167 H 0.77201 0.89428 0.21905 0.0
H1168 H 0.76782 0.88632 0.20139 0.0
H1169 H 0.6245 0.81732 0.20289 0.0
H1170 H 0.6285 0.82627 0.22062 0.0
H1171 H 0.65122 0.87257 0.18805 0.0
H1172 H 0.68206 0.76083 0.19901 0.0
H1173 H 0.72084 0.72918 0.20816 0.0
H1174 H 0.84181 0.81447 0.19274 0.0
H1175 H 0.80389 0.84709 0.18358 0.0
C1176 C 0.66228 0.81622 0.1427 0.0
C1177 C 0.70397 0.83933 0.13806 0.0
C1178 C 0.65909 0.81658 0.15287 0.0
C1179 C 0.69751 0.84002 0.15859 0.0
C1180 C 0.73913 0.86262 0.15398 0.0
C1181 C 0.74233 0.86248 0.14383 0.0
C1182 C 0.69477 0.8412 0.16939 0.0
C1183 C 0.71807 0.82568 0.17498 0.0
C1184 C 0.66963 0.85747 0.17418 0.0
C1185 C 0.64457 0.8747 0.16871 0.0
C1186 C 0.66627 0.90964 0.16197 0.0
C1187 C 0.64214 0.925 0.1567 0.0
C1188 C 0.59635 0.90592 0.15817 0.0
C1189 C 0.57464 0.87162 0.16495 0.0
C1190 C 0.5986 0.85609 0.17022 0.0
C1191 C 0.73954 0.8774 0.21564 0.0
C1192 C 0.70057 0.86073 0.22127 0.0
C1193 C 0.73718 0.87267 0.20552 0.0
C1194 C 0.69581 0.85048 0.20078 0.0
C1195 C 0.65681 0.83443 0.20636 0.0
C1196 C 0.65915 0.8395 0.21651 0.0
C1197 C 0.69358 0.84424 0.19001 0.0
C1198 C 0.66928 0.85867 0.18442 0.0
C1199 C 0.71726 0.82631 0.1852 0.0
C1200 C 0.7402 0.80666 0.19066 0.0
C1201 C 0.71701 0.77306 0.19761 0.0
C1202 C 0.73883 0.75491 0.2028 0.0
C1203 C 0.78379 0.76987 0.20105 0.0
C1204 C 0.80699 0.80294 0.19409 0.0
C1205 C 0.78534 0.82124 0.18889 0.0
H1206 H 0.80062 0.75579 0.20507 0.0
H1207 H 0.57767 0.91771 0.15407 0.0
H1208 H 0.78342 0.70088 0.47397 0.0
H1209 H 0.78194 0.69738 0.49172 0.0
H1210 H 0.89307 0.67418 0.49142 0.0
H1211 H 0.89321 0.67552 0.4736 0.0
H1212 H 0.83988 0.62584 0.50487 0.0
H1213 H 0.90386 0.77926 0.49679 0.0
H1214 H 0.90989 0.8457 0.48879 0.0
H1215 H 0.79013 0.82311 0.503 0.0
H1216 H 0.78305 0.75615 0.51099 0.0
H1217 H 0.90674 0.7017 0.55418 0.0
H1218 H 0.90477 0.69817 0.53635 0.0
H1219 H 0.77038 0.67427 0.53662 0.0
H1220 H 0.77165 0.67667 0.55447 0.0
H1221 H 0.83637 0.74651 0.52351 0.0
H1222 H 0.7773 0.59132 0.53194 0.0
H1223 H 0.77995 0.5302 0.54049 0.0
H1224 H 0.90228 0.56342 0.52597 0.0
H1225 H 0.90071 0.62524 0.51743 0.0
C1226 C 0.80749 0.69494 0.47769 0.0
C1227 C 0.83869 0.68887 0.47239 0.0
C1228 C 0.80678 0.69317 0.48785 0.0
C1229 C 0.83809 0.68657 0.49297 0.0
C1230 C 0.86866 0.67949 0.48767 0.0
C1231 C 0.8688 0.68038 0.47748 0.0
C1232 C 0.83913 0.68753 0.50383 0.0
C1233 C 0.83964 0.65256 0.50891 0.0
C1234 C 0.83859 0.72219 0.5092 0.0
C1235 C 0.84269 0.76243 0.50441 0.0
C1236 C 0.87862 0.78827 0.49815 0.0
C1237 C 0.88226 0.82605 0.49363 0.0
C1238 C 0.85035 0.83855 0.49536 0.0
C1239 C 0.81479 0.81335 0.50165 0.0
C1240 C 0.81096 0.77549 0.50618 0.0
C1241 C 0.87673 0.69561 0.55045 0.0
C1242 C 0.83935 0.68951 0.55572 0.0
C1243 C 0.87564 0.69348 0.54028 0.0
C1244 C 0.83742 0.68591 0.5352 0.0
C1245 C 0.80016 0.68012 0.54043 0.0
C1246 C 0.8009 0.68136 0.55061 0.0
C1247 C 0.83667 0.68481 0.52442 0.0
C1248 C 0.83645 0.71984 0.5194 0.0
C1249 C 0.83858 0.65088 0.51913 0.0
C1250 C 0.83911 0.6132 0.52412 0.0
C1251 C 0.80495 0.58583 0.53063 0.0
C1252 C 0.80622 0.55101 0.53546 0.0
C1253 C 0.84133 0.54302 0.5338 0.0
C1254 C 0.87513 0.5697 0.52726 0.0
C1255 C 0.87405 0.6046 0.52241 0.0
H1256 H 0.8423 0.51609 0.53756 0.0
H1257 H 0.85323 0.86782 0.49186 0.0
H1258 H 0.14045 0.91156 0.88695 0.0
H1259 H 0.14649 0.91445 0.86924 0.0
H1260 H 0.13472 0.78468 0.86902 0.0
H1261 H 0.12914 0.78171 0.88683 0.0
H1262 H 0.20029 0.84164 0.85692 0.0
H1263 H 0.04752 0.79652 0.86224 0.0
H1264 H 0.98419 0.80013 0.86936 0.0
H1265 H 0.03142 0.92905 0.85659 0.0
H1266 H 0.09542 0.9265 0.84949 0.0
H1267 H 0.16684 0.81637 0.80533 0.0
H1268 H 0.15826 0.80568 0.82298 0.0
H1269 H 0.16754 0.93376 0.82607 0.0
H1270 H 0.17561 0.94449 0.80846 0.0
H1271 H 0.10003 0.87186 0.83665 0.0
H1272 H 0.25473 0.91802 0.83197 0.0
H1273 H 0.318 0.91412 0.8249 0.0
H1274 H 0.26648 0.78231 0.83644 0.0
H1275 H 0.20255 0.78521 0.84347 0.0
C1276 C 0.13903 0.88352 0.88316 0.0
C1277 C 0.13407 0.84629 0.88832 0.0
C1278 C 0.14232 0.88517 0.87301 0.0
C1279 C 0.14051 0.84955 0.86778 0.0
C1280 C 0.13606 0.8125 0.87291 0.0
C1281 C 0.13269 0.81078 0.88308 0.0
C1282 C 0.14371 0.85143 0.85698 0.0
C1283 C 0.17791 0.84751 0.85247 0.0
C1284 C 0.11501 0.85985 0.85117 0.0
C1285 C 0.07649 0.86147 0.85541 0.0
C1286 C 0.0446 0.8258 0.86101 0.0
C1287 C 0.00854 0.82762 0.86503 0.0
C1288 C 0.00384 0.86484 0.86345 0.0
C1289 C 0.03513 0.90027 0.85782 0.0
C1290 C 0.07128 0.89862 0.85378 0.0
C1291 C 0.16727 0.84238 0.80977 0.0
C1292 C 0.17204 0.88137 0.80547 0.0
C1293 C 0.16248 0.83625 0.81987 0.0
C1294 C 0.1626 0.86907 0.82587 0.0
C1295 C 0.16732 0.90796 0.82159 0.0
C1296 C 0.1721 0.91411 0.81151 0.0
C1297 C 0.15703 0.86277 0.8366 0.0
C1298 C 0.12228 0.86576 0.84109 0.0
C1299 C 0.18518 0.85341 0.84237 0.0
C1300 C 0.22361 0.85165 0.83816 0.0
C1301 C 0.2567 0.88806 0.83293 0.0
C1302 C 0.29272 0.88606 0.82894 0.0
C1303 C 0.29619 0.84794 0.83019 0.0
C1304 C 0.26371 0.81179 0.83546 0.0
C1305 C 0.22759 0.8136 0.83946 0.0
H1306 H 0.32411 0.84646 0.8271 0.0
H1307 H 0.9759 0.86619 0.86657 0.0
H1308 H 0.59947 0.67379 0.10876 0.0
H1309 H 0.55427 0.59327 0.10705 0.0
H1310 H 0.55612 0.60709 0.07581 0.0
H1311 H 0.60085 0.6879 0.07744 0.0
H1312 H 0.47376 0.54918 0.08237 0.0
H1313 H 0.61959 0.57095 0.0863 0.0
H1314 H 0.69343 0.60014 0.09385 0.0
H1315 H 0.63229 0.53033 0.12031 0.0
H1316 H 0.558 0.50123 0.11298 0.0
H1317 H 0.38411 0.31252 0.07654 0.0
H1318 H 0.43183 0.39343 0.07531 0.0
H1319 H 0.43538 0.40366 0.10662 0.0
H1320 H 0.38795 0.32332 0.10796 0.0
H1321 H 0.51891 0.44894 0.09803 0.0
H1322 H 0.37285 0.4328 0.0942 0.0
H1323 H 0.29946 0.40384 0.08644 0.0
H1324 H 0.36259 0.46282 0.05926 0.0
H1325 H 0.43641 0.49163 0.06683 0.0
C1326 C 0.59041 0.6598 0.10152 0.0
C1327 C 0.60393 0.6873 0.09324 0.0
C1328 C 0.56471 0.61375 0.10055 0.0
C1329 C 0.5524 0.59429 0.09129 0.0
C1330 C 0.56544 0.62155 0.08301 0.0
C1331 C 0.59109 0.66768 0.08397 0.0
C1332 C 0.52529 0.54543 0.09033 0.0
C1333 C 0.48396 0.5272 0.08563 0.0
C1334 C 0.53854 0.51691 0.09467 0.0
C1335 C 0.58319 0.53417 0.09911 0.0
C1336 C 0.62186 0.56208 0.09376 0.0
C1337 C 0.66381 0.57857 0.09799 0.0
C1338 C 0.66754 0.56717 0.10756 0.0
C1339 C 0.62934 0.53916 0.11291 0.0
C1340 C 0.5873 0.52261 0.10871 0.0
C1341 C 0.39483 0.33204 0.08316 0.0
C1342 C 0.38228 0.31146 0.09235 0.0
C1343 C 0.42199 0.37819 0.08244 0.0
C1344 C 0.43702 0.40429 0.09088 0.0
C1345 C 0.42419 0.38393 0.10003 0.0
C1346 C 0.39692 0.33801 0.10077 0.0
C1347 C 0.46703 0.45285 0.09029 0.0
C1348 C 0.509 0.47096 0.09467 0.0
C1349 C 0.45447 0.48116 0.08561 0.0
C1350 C 0.41012 0.46389 0.08105 0.0
C1351 C 0.37108 0.43923 0.08655 0.0
C1352 C 0.3294 0.42292 0.08219 0.0
C1353 C 0.32636 0.43135 0.07235 0.0
C1354 C 0.365 0.45623 0.06687 0.0
C1355 C 0.40676 0.47258 0.07119 0.0
H1356 H 0.29407 0.41871 0.06899 0.0
H1357 H 0.70005 0.57998 0.11083 0.0
H1358 H 0.08694 0.41604 0.44088 0.0
H1359 H 0.05577 0.46497 0.43962 0.0
H1360 H 0.04251 0.44473 0.40855 0.0
H1361 H 0.07469 0.39605 0.4097 0.0
H1362 H 0.07293 0.53145 0.41324 0.0
H1363 H 0.95222 0.39047 0.42283 0.0
H1364 H 0.91363 0.32161 0.43254 0.0
H1365 H 0.92883 0.39827 0.45825 0.0
H1366 H 0.9681 0.46767 0.44871 0.0
H1367 H 0.92321 0.61984 0.41126 0.0
H1368 H 0.9589 0.57464 0.4095 0.0
H1369 H 0.98419 0.58432 0.44039 0.0
H1370 H 0.94847 0.62904 0.44225 0.0
H1371 H 0.94316 0.49895 0.43403 0.0
H1372 H 0.06795 0.64042 0.42424 0.0
H1373 H 0.10578 0.70852 0.41426 0.0
H1374 H 0.08046 0.62948 0.38848 0.0
H1375 H 0.04194 0.56086 0.3983 0.0
C1376 C 0.07747 0.42189 0.43375 0.0
C1377 C 0.08292 0.40172 0.4254 0.0
C1378 C 0.05955 0.44985 0.43306 0.0
C1379 C 0.0461 0.45785 0.42401 0.0
C1380 C 0.0525 0.43879 0.4156 0.0
C1381 C 0.07075 0.4109 0.41628 0.0
C1382 C 0.02473 0.4856 0.42348 0.0
C1383 C 0.0441 0.52401 0.41766 0.0
C1384 C 0.98733 0.47601 0.42931 0.0
C1385 C 0.9634 0.4343 0.43506 0.0
C1386 C 0.9476 0.39267 0.43056 0.0
C1387 C 0.92557 0.35354 0.43604 0.0
C1388 C 0.91886 0.35557 0.44601 0.0
C1389 C 0.93408 0.39675 0.45053 0.0
C1390 C 0.95618 0.436 0.44509 0.0
C1391 C 0.93693 0.61288 0.41766 0.0
C1392 C 0.93269 0.62783 0.42691 0.0
C1393 C 0.95738 0.58711 0.41663 0.0
C1394 C 0.97411 0.57611 0.42482 0.0
C1395 C 0.97127 0.59226 0.43399 0.0
C1396 C 0.9509 0.61793 0.43503 0.0
C1397 C 0.99213 0.54552 0.42402 0.0
C1398 C 0.97184 0.5063 0.42956 0.0
C1399 C 0.02838 0.55428 0.41789 0.0
C1400 C 0.05164 0.59551 0.41199 0.0
C1401 C 0.07011 0.63755 0.41643 0.0
C1402 C 0.09175 0.67625 0.41081 0.0
C1403 C 0.0954 0.67333 0.40074 0.0
C1404 C 0.07754 0.63169 0.39628 0.0
C1405 C 0.05584 0.59289 0.40187 0.0
H1406 H 0.11217 0.70333 0.39639 0.0
H1407 H 0.90181 0.32523 0.45024 0.0
H1408 H 0.30328 0.90274 0.74529 0.0
H1409 H 0.38417 0.9387 0.74392 0.0
H1410 H 0.39732 0.97522 0.77425 0.0
H1411 H 0.31653 0.93953 0.77571 0.0
H1412 H 0.45602 0.04418 0.76251 0.0
H1413 H 0.40757 0.88922 0.7676 0.0
H1414 H 0.36393 0.80885 0.76413 0.0
H1415 H 0.42256 0.83117 0.73567 0.0
H1416 H 0.4661 0.91183 0.73892 0.0
H1417 H 0.66979 0.08506 0.77497 0.0
H1418 H 0.58948 0.05308 0.77359 0.0
H1419 H 0.59659 0.03147 0.74289 0.0
H1420 H 0.6774 0.06383 0.74416 0.0
H1421 H 0.52821 0.95718 0.75306 0.0
H1422 H 0.58142 0.11213 0.74861 0.0
H1423 H 0.62575 0.19212 0.7524 0.0
H1424 H 0.55863 0.16968 0.77985 0.0
H1425 H 0.51435 0.08938 0.7763 0.0
C1426 C 0.32334 0.91854 0.75167 0.0
C1427 C 0.30343 0.91814 0.76062 0.0
C1428 C 0.36953 0.93893 0.75087 0.0
C1429 C 0.39656 0.95928 0.759 0.0
C1430 C 0.37692 0.95966 0.76789 0.0
C1431 C 0.33075 0.93909 0.76872 0.0
C1432 C 0.4454 0.97981 0.7583 0.0
C1433 C 0.47185 0.02512 0.76052 0.0
C1434 C 0.46583 0.95507 0.75544 0.0
C1435 C 0.43966 0.90661 0.75346 0.0
C1436 C 0.41083 0.87705 0.76057 0.0
C1437 C 0.38618 0.83143 0.75864 0.0
C1438 C 0.39036 0.81492 0.74967 0.0
C1439 C 0.41929 0.84401 0.74261 0.0
C1440 C 0.44397 0.88968 0.74449 0.0
C1441 C 0.65439 0.07348 0.76792 0.0
C1442 C 0.67998 0.07702 0.75967 0.0
C1443 C 0.60853 0.05541 0.76714 0.0
C1444 C 0.58735 0.04034 0.75812 0.0
C1445 C 0.61252 0.04311 0.74989 0.0
C1446 C 0.6586 0.06168 0.75064 0.0
C1447 C 0.53875 0.02135 0.75741 0.0
C1448 C 0.51236 0.97635 0.75493 0.0
C1449 C 0.51834 0.04633 0.76005 0.0
C1450 C 0.54483 0.09464 0.76222 0.0
C1451 C 0.57638 0.12417 0.75549 0.0
C1452 C 0.60145 0.16959 0.75759 0.0
C1453 C 0.59508 0.18596 0.76637 0.0
C1454 C 0.56355 0.15695 0.77306 0.0
C1455 C 0.53842 0.11147 0.771 0.0
H1456 H 0.61452 0.22115 0.76798 0.0
H1457 H 0.37127 0.77959 0.7482 0.0
H1458 H 0.67734 0.61373 0.61556 0.0
H1459 H 0.59611 0.57184 0.61662 0.0
H1460 H 0.58706 0.59213 0.58592 0.0
H1461 H 0.66801 0.63436 0.58479 0.0
H1462 H 0.52389 0.59923 0.59617 0.0
H1463 H 0.57972 0.49716 0.59392 0.0
H1464 H 0.62551 0.46455 0.59894 0.0
H1465 H 0.5611 0.43126 0.62686 0.0
H1466 H 0.51534 0.46428 0.62204 0.0
H1467 H 0.3155 0.41686 0.58257 0.0
H1468 H 0.39483 0.46964 0.58454 0.0
H1469 H 0.38377 0.4433 0.6154 0.0
H1470 H 0.30418 0.39051 0.61352 0.0
H1471 H 0.45595 0.44181 0.6068 0.0
H1472 H 0.39429 0.5376 0.60815 0.0
H1473 H 0.34816 0.56918 0.60272 0.0
H1474 H 0.42292 0.61335 0.57613 0.0
H1475 H 0.4691 0.58142 0.58134 0.0
C1476 C 0.6581 0.60988 0.60906 0.0
C1477 C 0.67927 0.62706 0.60007 0.0
C1478 C 0.61166 0.58577 0.60967 0.0
C1479 C 0.58557 0.57831 0.60132 0.0
C1480 C 0.60654 0.59738 0.59245 0.0
C1481 C 0.6529 0.62139 0.59182 0.0
C1482 C 0.53661 0.54844 0.60162 0.0
C1483 C 0.50903 0.56475 0.59844 0.0
C1484 C 0.51718 0.50368 0.60477 0.0
C1485 C 0.54451 0.48366 0.60766 0.0
C1486 C 0.57559 0.48322 0.60116 0.0
C1487 C 0.60149 0.46461 0.60396 0.0
C1488 C 0.59632 0.44597 0.61323 0.0
C1489 C 0.56514 0.4458 0.61969 0.0
C1490 C 0.5392 0.46444 0.61693 0.0
C1491 C 0.32986 0.42221 0.58978 0.0
C1492 C 0.30344 0.39942 0.59789 0.0
C1493 C 0.37517 0.45259 0.5909 0.0
C1494 C 0.39504 0.46065 0.60013 0.0
C1495 C 0.36899 0.43763 0.60822 0.0
C1496 C 0.32352 0.40754 0.60713 0.0
C1497 C 0.44328 0.49246 0.60124 0.0
C1498 C 0.47074 0.47646 0.60466 0.0
C1499 C 0.46256 0.53741 0.59827 0.0
C1500 C 0.43491 0.55674 0.5951 0.0
C1501 C 0.40066 0.5537 0.60111 0.0
C1502 C 0.37454 0.57173 0.59808 0.0
C1503 C 0.38254 0.59317 0.58907 0.0
C1504 C 0.41674 0.5967 0.58309 0.0
C1505 C 0.44293 0.57867 0.58609 0.0
H1506 H 0.36229 0.60712 0.58674 0.0
H1507 H 0.6164 0.43157 0.61538 0.0
H1508 H 0.04243 0.67046 0.91701 0.0
H1509 H 0.00325 0.58973 0.91842 0.0
H1510 H 0.02169 0.60062 0.94956 0.0
H1511 H 0.06179 0.68182 0.94821 0.0
H1512 H 0.04374 0.54322 0.94219 0.0
H1513 H 0.91901 0.56444 0.93974 0.0
H1514 H 0.87283 0.59369 0.93303 0.0
H1515 H 0.86123 0.52674 0.90599 0.0
H1516 H 0.9079 0.49758 0.91249 0.0
H1517 H 0.90432 0.30725 0.94739 0.0
H1518 H 0.93326 0.38735 0.94883 0.0
H1519 H 0.93401 0.39865 0.91756 0.0
H1520 H 0.90508 0.31871 0.91602 0.0
H1521 H 0.8974 0.44393 0.92688 0.0
H1522 H 0.02861 0.42932 0.92914 0.0
H1523 H 0.0746 0.40021 0.93604 0.0
H1524 H 0.07246 0.45486 0.96394 0.0
H1525 H 0.02591 0.48379 0.95722 0.0
C1526 C 0.03787 0.65584 0.92418 0.0
C1527 C 0.05536 0.68271 0.9325 0.0
C1528 C 0.0152 0.60958 0.92498 0.0
C1529 C 0.00913 0.58913 0.93411 0.0
C1530 C 0.02593 0.61576 0.94245 0.0
C1531 C 0.04874 0.66215 0.94166 0.0
C1532 C 0.98744 0.54002 0.9348 0.0
C1533 C 0.01131 0.52147 0.93902 0.0
C1534 C 0.94546 0.5117 0.93053 0.0
C1535 C 0.91727 0.52909 0.92659 0.0
C1536 C 0.90691 0.55622 0.93234 0.0
C1537 C 0.88059 0.57274 0.92858 0.0
C1538 C 0.86418 0.56215 0.91908 0.0
C1539 C 0.87399 0.53493 0.91334 0.0
C1540 C 0.90033 0.51835 0.91706 0.0
C1541 C 0.91067 0.32675 0.94081 0.0
C1542 C 0.90252 0.30657 0.93158 0.0
C1543 C 0.92726 0.3725 0.94165 0.0
C1544 C 0.93589 0.39884 0.9333 0.0
C1545 C 0.92745 0.37881 0.92409 0.0
C1546 C 0.91114 0.33315 0.92323 0.0
C1547 C 0.9541 0.44742 0.93409 0.0
C1548 C 0.92954 0.46577 0.93015 0.0
C1549 C -0.0047 0.47554 0.93867 0.0
C1550 C 0.02335 0.45825 0.94271 0.0
C1551 C 0.03762 0.43478 0.93676 0.0
C1552 C 0.06385 0.41839 0.94064 0.0
C1553 C 0.07632 0.42555 0.95043 0.0
C1554 C 0.0627 0.44926 0.95636 0.0
C1555 C 0.03641 0.46568 0.95252 0.0
H1556 H 0.09665 0.41284 0.95342 0.0
H1557 H 0.84381 0.57498 0.91618 0.0
H1558 H 0.56187 0.88335 0.25093 0.0
H1559 H 0.51011 0.91129 0.25215 0.0
H1560 H 0.55604 0.95759 0.28131 0.0
H1561 H 0.6067 0.92767 0.28028 0.0
H1562 H 0.46978 0.92406 0.28062 0.0
H1563 H 0.59119 0.02957 0.26106 0.0
H1564 H 0.64537 0.05458 0.24758 0.0
H1565 H 0.53872 0.00336 0.22682 0.0
H1566 H 0.48387 0.97753 0.24018 0.0
H1567 H 0.38121 0.07329 0.28025 0.0
H1568 H 0.42557 0.03656 0.28162 0.0
H1569 H 0.38246 0.98009 0.25301 0.0
H1570 H 0.33904 0.01743 0.2515 0.0
H1571 H 0.46986 0.02179 0.25425 0.0
H1572 H 0.3483 0.91616 0.27433 0.0
H1573 H 0.29572 0.89342 0.28809 0.0
H1574 H 0.40479 0.94869 0.30824 0.0
H1575 H 0.45806 0.97226 0.29459 0.0
C1576 C 0.56106 0.89954 0.2576 0.0
C1577 C 0.58877 0.90379 0.26547 0.0
C1578 C 0.53149 0.91564 0.25828 0.0
C1579 C 0.52984 0.93754 0.26674 0.0
C1580 C 0.55683 0.94103 0.27469 0.0
C1581 C 0.58588 0.92409 0.27409 0.0
C1582 C 0.50035 0.9572 0.26715 0.0
C1583 C 0.4702 0.94592 0.27492 0.0
C1584 C 0.50046 0.98539 0.25968 0.0
C1585 C 0.53342 0.00132 0.25162 0.0
C1586 C 0.57929 0.02343 0.25362 0.0
C1587 C 0.61012 0.03777 0.246 0.0
C1588 C 0.59549 0.03048 0.23635 0.0
C1589 C 0.55 0.00896 0.23429 0.0
C1590 C 0.51903 0.99451 0.24189 0.0
C1591 C 0.38043 0.05226 0.27434 0.0
C1592 C 0.35688 0.04856 0.26573 0.0
C1593 C 0.40578 0.03122 0.27514 0.0
C1594 C 0.40744 0.00558 0.26741 0.0
C1595 C 0.38197 -6e-05 0.25904 0.0
C1596 C 0.35706 0.02125 0.2582 0.0
C1597 C 0.43854 0.98784 0.26759 0.0
C1598 C 0.46934 -0.00014 0.25995 0.0
C1599 C 0.4392 0.96077 0.27523 0.0
C1600 C 0.40717 0.94634 0.28343 0.0
C1601 C 0.36108 0.92375 0.28169 0.0
C1602 C 0.33115 0.91066 0.28947 0.0
C1603 C 0.34691 0.91971 0.29903 0.0
C1604 C 0.39263 0.94175 0.30083 0.0
C1605 C 0.4227 0.95493 0.29308 0.0
H1606 H 0.32368 0.90956 0.30505 0.0
H1607 H 0.61941 0.04159 0.23046 0.0
H1608 H 0.17608 0.10975 0.07873 0.0
H1609 H 0.09574 0.05961 0.07847 0.0
H1610 H 0.09164 0.0661 0.10979 0.0
H1611 H 0.17201 0.11603 0.11016 0.0
H1612 H 0.05002 0.98044 0.10286 0.0
H1613 H 0.05072 0.11694 0.09637 0.0
H1614 H 0.07261 0.18723 0.08773 0.0
H1615 H 0.01792 0.11523 0.06117 0.0
H1616 H -0.00375 0.04451 0.06963 0.0
H1617 H 0.8178 0.88008 0.11044 0.0
H1618 H 0.89845 0.9264 0.10976 0.0
H1619 H 0.8938 0.92168 0.07837 0.0
H1620 H 0.81288 0.87596 0.07896 0.0
H1621 H 0.94056 0.00495 0.08473 0.0
H1622 H 0.93731 0.86804 0.09125 0.0
H1623 H 0.91534 0.7976 0.09983 0.0
H1624 H 0.97478 0.86956 0.12615 0.0
H1625 H -0.00341 0.94044 0.11776 0.0
C1626 C 0.15806 0.10106 0.08556 0.0
C1627 C 0.18046 0.11668 0.09447 0.0
C1628 C 0.11217 0.07248 0.08539 0.0
C1629 C 0.088 0.05926 0.09411 0.0
C1630 C 0.10994 0.07591 0.10299 0.0
C1631 C 0.15579 0.10457 0.10317 0.0
C1632 C 0.04018 0.02611 0.09402 0.0
C1633 C 0.02589 0.98592 0.09901 0.0
C1634 C 0.00927 0.03297 0.08872 0.0
C1635 C 0.0223 0.07547 0.08361 0.0
C1636 C 0.04373 0.11612 0.08867 0.0
C1637 C 0.05601 0.15604 0.08381 0.0
C1638 C 0.04678 0.15571 0.0739 0.0
C1639 C 0.02512 0.11544 0.06884 0.0
C1640 C 0.01279 0.07543 0.07367 0.0
C1641 C 0.8339 0.88825 0.10338 0.0
C1642 C 0.8089 0.87473 0.09475 0.0
C1643 C 0.88005 0.91459 0.10301 0.0
C1644 C 0.902 0.92731 0.09401 0.0
C1645 C 0.87735 0.91228 0.08538 0.0
C1646 C 0.83116 0.88613 0.08574 0.0
C1647 C 0.9502 0.95923 0.09362 0.0
C1648 C 0.96463 -0.00075 0.08854 0.0
C1649 C 0.98125 0.95214 0.09882 0.0
C1650 C 0.96826 0.90955 0.10389 0.0
C1651 C 0.94539 0.86884 0.09888 0.0
C1652 C 0.93303 0.82883 0.10371 0.0
C1653 C 0.94357 0.8291 0.11354 0.0
C1654 C 0.9666 0.8694 0.11855 0.0
C1655 C 0.97903 0.90951 0.11375 0.0
H1656 H 0.93396 0.79809 0.11726 0.0
H1657 H 0.05631 0.18665 0.07015 0.0
H1658 H 0.02761 0.18671 0.44396 0.0
H1659 H 0.98769 0.10572 0.44532 0.0
H1660 H 0.01266 0.09521 0.41494 0.0
H1661 H 0.05145 0.17604 0.41343 0.0
H1662 H 0.93172 0.02823 0.42044 0.0
H1663 H 0.0835 0.0977 0.43246 0.0
H1664 H 0.14515 0.15003 0.44298 0.0
H1665 H 0.06778 0.0848 0.46841 0.0
H1666 H 0.00542 0.03243 0.45802 0.0
H1667 H 0.93317 0.82846 0.41687 0.0
H1668 H 0.95767 0.90768 0.41734 0.0
H1669 H 0.9251 0.89735 0.44789 0.0
H1670 H 0.90088 0.81788 0.44752 0.0
H1671 H 0.00276 0.97321 0.44373 0.0
H1672 H 0.85388 0.89777 0.43157 0.0
H1673 H 0.79344 0.84471 0.42091 0.0
H1674 H 0.86488 0.9204 0.3958 0.0
H1675 H 0.92618 0.97351 0.40628 0.0
C1676 C 0.02391 0.16718 0.43752 0.0
C1677 C 0.04354 0.18787 0.42863 0.0
C1678 C 0.00113 0.12091 0.43832 0.0
C1679 C -0.00179 0.09462 0.43029 0.0
C1680 C 0.01483 0.11497 0.42124 0.0
C1681 C 0.03722 0.16124 0.42041 0.0
C1682 C 0.98195 0.04653 0.43148 0.0
C1683 C 0.9473 0.01617 0.4255 0.0
C1684 C 0.00177 0.03082 0.43824 0.0
C1685 C 0.03969 0.06145 0.44447 0.0
C1686 C 0.0796 0.09464 0.4403 0.0
C1687 C 0.11465 0.12431 0.44623 0.0
C1688 C 0.11034 0.12082 0.45635 0.0
C1689 C 0.07104 0.0875 0.46056 0.0
C1690 C 0.03585 0.0578 0.45466 0.0
C1691 C 0.93132 0.84301 0.4237 0.0
C1692 C 0.91443 0.81681 0.43212 0.0
C1693 C 0.94532 0.88826 0.42395 0.0
C1694 C 0.94218 0.90803 0.43259 0.0
C1695 C 0.92743 0.88254 0.44114 0.0
C1696 C 0.91367 0.83721 0.44091 0.0
C1697 C 0.95306 0.95501 0.43258 0.0
C1698 C 0.98669 0.98514 0.43877 0.0
C1699 C 0.93228 0.97047 0.42603 0.0
C1700 C 0.89477 0.93949 0.41971 0.0
C1701 C 0.85679 0.90302 0.42377 0.0
C1702 C 0.8224 0.8729 0.41775 0.0
C1703 C 0.82538 0.87911 0.40768 0.0
C1704 C 0.86267 0.9156 0.4036 0.0
C1705 C 0.89722 0.94576 0.40957 0.0
H1706 H 0.79879 0.85571 0.40302 0.0
H1707 H 0.13747 0.14388 0.46094 0.0
H1708 H 0.87341 0.05514 0.77785 0.0
H1709 H 0.92157 0.02269 0.77751 0.0
H1710 H 0.90812 0.00986 0.74628 0.0
H1711 H 0.86089 0.04347 0.7465 0.0
H1712 H 0.91725 0.94693 0.77135 0.0
H1713 H 0.00872 0.03994 0.73652 0.0
H1714 H 0.02091 0.10545 0.72699 0.0
H1715 H 0.00955 0.16762 0.753 0.0
H1716 H -0.00197 0.10285 0.7627 0.0
H1717 H 0.10209 0.92349 0.74661 0.0
H1718 H 0.05174 0.95344 0.74621 0.0
H1719 H 0.06508 0.97324 0.77729 0.0
H1720 H 0.11508 0.94285 0.77782 0.0
H1721 H 0.05523 0.03142 0.75182 0.0
H1722 H 0.96168 0.93745 0.78657 0.0
H1723 H 0.94746 0.87103 0.79599 0.0
H1724 H 0.96233 0.81053 0.77007 0.0
H1725 H 0.97594 0.87626 0.76048 0.0
C1726 C 0.88006 0.04477 0.77092 0.0
C1727 C 0.86405 0.05263 0.76218 0.0
C1728 C 0.90751 0.02614 0.77075 0.0
C1729 C 0.91914 0.01491 0.76185 0.0
C1730 C 0.90026 0.0193 0.7532 0.0
C1731 C 0.8732 0.03837 0.75334 0.0
C1732 C 0.95377 0.00213 0.7616 0.0
C1733 C 0.94759 0.96561 0.76716 0.0
C1734 C -0.007 0.02624 0.75599 0.0
C1735 C 0.00209 0.06634 0.75031 0.0
C1736 C 0.00918 0.06775 0.74021 0.0
C1737 C 0.0159 0.10472 0.73478 0.0
C1738 C 0.01583 0.1406 0.73938 0.0
C1739 C 0.00946 0.13976 0.74944 0.0
C1740 C 0.00285 0.10294 0.75491 0.0
C1741 C 0.09493 0.93485 0.75335 0.0
C1742 C 0.11202 0.93012 0.76227 0.0
C1743 C 0.06624 0.95206 0.75309 0.0
C1744 C 0.05416 0.96466 0.76174 0.0
C1745 C 0.07352 0.96289 0.77056 0.0
C1746 C 0.10214 0.94562 0.77084 0.0
C1747 C 0.01881 0.97643 0.76163 0.0
C1748 C 0.02486 0.01273 0.756 0.0
C1749 C 0.97946 0.95215 0.76717 0.0
C1750 C 0.97027 0.91198 0.77283 0.0
C1751 C 0.96169 0.90988 0.78288 0.0
C1752 C 0.95377 0.87236 0.78825 0.0
C1753 C 0.95413 0.83665 0.78364 0.0
C1754 C 0.96221 0.83828 0.77364 0.0
C1755 C 0.97006 0.87567 0.76824 0.0
H1756 H 0.94807 0.80768 0.78782 0.0
H1757 H 0.02079 0.16907 0.73516 0.0
H1758 H 0.92118 0.81025 0.61174 0.0
H1759 H 0.97545 0.88942 0.6114 0.0
H1760 H 0.93374 0.8988 0.58235 0.0
H1761 H 0.87955 0.81908 0.58257 0.0
H1762 H 0.02383 0.94399 0.58409 0.0
H1763 H 0.89896 0.93378 0.60225 0.0
H1764 H 0.84342 0.90528 0.61548 0.0
H1765 H 0.94808 0.95571 0.63673 0.0
H1766 H 0.00423 0.98415 0.62361 0.0
H1767 H 0.10714 0.17506 0.57992 0.0
H1768 H 0.0661 0.09415 0.58051 0.0
H1769 H 0.10183 0.098 0.61074 0.0
H1770 H 0.14121 0.17934 0.6103 0.0
H1771 H 0.01897 0.04471 0.60905 0.0
H1772 H 0.14445 0.06003 0.59155 0.0
H1773 H 0.20188 0.0875 0.57873 0.0
H1774 H 0.10068 0.02682 0.55684 0.0
H1775 H 0.04258 -0.00054 0.56952 0.0
C1776 C 0.92308 0.82907 0.60531 0.0
C1777 C 0.8955 0.80835 0.59724 0.0
C1778 C 0.95431 0.87441 0.60512 0.0
C1779 C 0.95822 0.90012 0.5969 0.0
C1780 C 0.93119 0.87953 0.58878 0.0
C1781 C 0.90011 0.83403 0.58893 0.0
C1782 C 0.99021 0.94859 0.59683 0.0
C1783 C 0.02259 0.9662 0.58948 0.0
C1784 C 0.98952 0.97718 0.60407 0.0
C1785 C 0.95575 0.96076 0.61195 0.0
C1786 C 0.9101 0.9386 0.60974 0.0
C1787 C 0.87852 0.92249 0.61722 0.0
C1788 C 0.89221 0.9286 0.62694 0.0
C1789 C 0.93752 0.95099 0.6292 0.0
C1790 C 0.96923 0.96717 0.62175 0.0
C1791 C 0.10697 0.15873 0.58665 0.0
C1792 C 0.12737 0.18359 0.59507 0.0
C1793 C 0.08363 0.11233 0.58697 0.0
C1794 C 0.08122 0.08977 0.59564 0.0
C1795 C 0.10313 0.1146 0.60396 0.0
C1796 C 0.12574 0.16107 0.6037 0.0
C1797 C 0.05269 0.04061 0.59623 0.0
C1798 C 0.02077 0.02271 0.60369 0.0
C1799 C 0.05424 0.01176 0.58914 0.0
C1800 C 0.08913 0.02796 0.58149 0.0
C1801 C 0.13441 0.05279 0.584 0.0
C1802 C 0.16709 0.0683 0.57676 0.0
C1803 C 0.15493 0.05899 0.56698 0.0
C1804 C 0.11005 0.03403 0.56442 0.0
C1805 C 0.07723 0.01845 0.57164 0.0
H1806 H 0.18028 0.07105 0.56138 0.0
H1807 H 0.86771 0.91605 0.63271 0.0
H1808 H 0.95041 0.13209 0.91533 0.0
H1809 H 0.98611 0.08678 0.91585 0.0
H1810 H 0.96088 0.067 0.94671 0.0
H1811 H 0.9249 0.11204 0.94629 0.0
H1812 H 0.05629 0.08859 0.92624 0.0
H1813 H 0.92239 0.95667 0.95108 0.0
H1814 H 0.84492 0.93094 0.95607 0.0
H1815 H 0.819 0.97104 0.9284 0.0
H1816 H 0.89609 -0.00357 0.92321 0.0
H1817 H 0.11108 0.92779 0.9435 0.0
H1818 H 0.08128 0.97845 0.94352 0.0
H1819 H -0.00195 0.90893 0.91897 0.0
H1820 H 0.02832 0.85837 0.91879 0.0
H1821 H 0.95628 0.93109 0.93584 0.0
H1822 H 0.0788 0.994 0.91295 0.0
H1823 H 0.15625 0.02015 0.90796 0.0
H1824 H 0.20362 0.11723 0.93087 0.0
H1825 H 0.12637 0.09112 0.9361 0.0
C1826 C 0.953 0.11871 0.92226 0.0
C1827 C 0.93405 0.12502 0.93074 0.0
C1828 C 0.97359 0.09298 0.92255 0.0
C1829 C 0.97537 0.07304 0.93128 0.0
C1830 C 0.95919 0.08168 0.93987 0.0
C1831 C 0.93868 0.10745 0.93961 0.0
C1832 C 0.99072 0.04033 0.93123 0.0
C1833 C 0.0345 0.05421 0.92836 0.0
C1834 C 0.962 0.99539 0.93391 0.0
C1835 C 0.9151 0.97878 0.9368 0.0
C1836 C 0.90006 0.95972 0.94605 0.0
C1837 C 0.85624 0.94526 0.94891 0.0
C1838 C 0.8271 0.94947 0.94257 0.0
C1839 C 0.84164 0.96792 0.93332 0.0
C1840 C 0.8854 0.98237 0.93042 0.0
C1841 C 0.08596 0.92283 0.9382 0.0
C1842 C 0.0718 0.88904 0.93117 0.0
C1843 C 0.0692 0.95192 0.93819 0.0
C1844 C 0.03763 0.94724 0.93125 0.0
C1845 C 0.02239 0.91279 0.9244 0.0
C1846 C 0.03977 0.88417 0.92428 0.0
C1847 C 0.02187 0.97952 0.93093 0.0
C1848 C 0.97804 0.96552 0.93375 0.0
C1849 C 0.05044 0.02424 0.92816 0.0
C1850 C 0.09685 0.04029 0.92497 0.0
C1851 C 0.10574 0.02064 0.91698 0.0
C1852 C 0.1496 0.03551 0.9141 0.0
C1853 C 0.18484 0.07025 0.91912 0.0
C1854 C 0.17628 0.09028 0.927 0.0
C1855 C 0.13247 0.07548 0.92992 0.0
H1856 H 0.21878 0.08172 0.91687 0.0
H1857 H 0.79324 0.93837 0.94481 0.0
H1858 H 0.18589 0.14588 0.26661 0.0
H1859 H 0.10649 0.12117 0.26596 0.0
H1860 H 0.0815 -0.00076 0.25202 0.0
H1861 H 0.16167 0.02594 0.25193 0.0
H1862 H 0.02674 0.02048 0.24507 0.0
H1863 H 0.06967 0.00842 0.27764 0.0
H1864 H 0.11869 0.03925 0.29194 0.0
H1865 H 0.07757 0.13631 0.29556 0.0
H1866 H 0.02869 0.10639 0.28119 0.0
H1867 H 0.81277 0.90511 0.27636 0.0
H1868 H 0.89356 0.94452 0.2753 0.0
H1869 H 0.88828 0.01781 0.25042 0.0
H1870 H 0.80686 0.97658 0.25118 0.0
H1871 H 0.95846 0.02323 0.27663 0.0
H1872 H 0.97023 0.03783 0.23461 0.0
H1873 H 0.92394 1e-05 0.22025 0.0
H1874 H 0.8539 0.87841 0.23652 0.0
H1875 H 0.9002 0.91531 0.25092 0.0
C1876 C 0.16332 0.11401 0.26333 0.0
C1877 C 0.17935 0.08736 0.25944 0.0
C1878 C 0.11802 0.09982 0.26299 0.0
C1879 C 0.08774 0.05771 0.25921 0.0
C1880 C 0.1041 0.03175 0.25501 0.0
C1881 C 0.14973 0.04677 0.25502 0.0
C1882 C 0.03904 0.03966 0.26017 0.0
C1883 C 0.01183 0.02119 0.25196 0.0
C1884 C 0.01933 0.03964 0.26921 0.0
C1885 C 0.04582 0.05541 0.2783 0.0
C1886 C 0.07096 0.03623 0.28151 0.0
C1887 C 0.09881 0.05361 0.2896 0.0
C1888 C 0.10141 0.08985 0.29461 0.0
C1889 C 0.0756 0.10832 0.29164 0.0
C1890 C 0.04774 0.0911 0.28354 0.0
C1891 C 0.82878 0.93011 0.27076 0.0
C1892 C 0.80353 0.93768 0.26383 0.0
C1893 C 0.87507 0.95266 0.27015 0.0
C1894 C 0.89711 0.98366 0.26268 0.0
C1895 C 0.87201 0.99325 0.2561 0.0
C1896 C 0.82555 0.96989 0.25657 0.0
C1897 C 0.946 0.00379 0.26153 0.0
C1898 C 0.97331 0.02273 0.26972 0.0
C1899 C 0.96552 0.00237 0.25257 0.0
C1900 C 0.93836 0.97951 0.24387 0.0
C1901 C 0.9451 0.00297 0.2351 0.0
C1902 C 0.91884 0.9817 0.22696 0.0
C1903 C 0.88588 0.93688 0.22748 0.0
C1904 C 0.87933 0.91315 0.23613 0.0
C1905 C 0.90558 0.93423 0.24428 0.0
H1906 H 0.86548 0.92052 0.22118 0.0
H1907 H 0.12351 0.10364 0.30078 0.0
loop_
_geom_bond_atom_site_label_1
_geom_bond_atom_site_label_2
_geom_bond_distance
_geom_bond_site_symmetry_2
_ccdc_geom_bond_type
Co0 O3 1.970 . S
Co0 N17 1.989 . S
Co0 O25 1.967 . S
Co0 O32 1.920 . S
Co1 O4 1.966 . S
Co1 N10 2.022 . S
Co1 N18 1.993 . S
Co1 O26 1.941 . S
C2 O3 1.258 . S
C2 O4 1.263 . S
O3 Co0 1.970 . S
O3 C2 1.258 . S
O4 Co1 1.966 . S
O4 C2 1.263 . S
C5 O6 1.235 . S
C5 O32 1.289 . S
O6 C5 1.235 . S
C7 C9 1.400 . S
C7 N10 1.351 . S
C7 C12 1.501 . S
C8 C9 1.387 . S
C8 N11 1.341 . S
C9 C7 1.400 . S
C9 C8 1.387 . S
N10 Co1 2.022 . S
N10 C7 1.351 . S
N10 N11 1.365 . S
N11 C8 1.341 . S
N11 N10 1.365 . S
N11 H31 0.862 . S
C12 C7 1.501 . S
C12 H13 0.961 . S
C12 H14 0.961 . S
C12 H15 0.960 . S
H13 C12 0.961 . S
H14 C12 0.961 . S
H15 C12 0.960 . S
C16 N17 1.342 . S
C16 C20 1.401 . S
C16 C21 1.499 . S
N17 Co0 1.989 . S
N17 C16 1.342 . S
N17 N18 1.388 . S
N18 Co1 1.993 . S
N18 N17 1.388 . S
N18 C19 1.346 . S
C19 N18 1.346 . S
C19 C20 1.396 . S
C19 C29 1.510 . S
C20 C16 1.401 . S
C20 C19 1.396 . S
C21 C16 1.499 . S
C21 H22 0.959 . S
C21 H23 0.960 . S
C21 H24 0.961 . S
H22 C21 0.959 . S
H23 C21 0.960 . S
H24 C21 0.961 . S
O25 Co0 1.967 . S
O25 C33 1.258 . S
O26 Co1 1.941 . S
O26 C33 1.266 . S
H27 C29 0.959 . S
H28 C29 0.961 . S
C29 C19 1.510 . S
C29 H27 0.959 . S
C29 H28 0.961 . S
C29 H30 0.960 . S
H30 C29 0.960 . S
H31 N11 0.862 . S
O32 Co0 1.920 . S
O32 C5 1.289 . S
C33 O25 1.258 . S
C33 O26 1.266 . S
Co34 O37 1.970 . S
Co34 N51 1.989 . S
Co34 O59 1.967 . S
Co34 O66 1.920 . S
Co35 O38 1.966 . S
Co35 N44 2.022 . S
Co35 N52 1.993 . S
Co35 O60 1.941 . S
C36 O37 1.258 . S
C36 O38 1.263 . S
O37 Co34 1.970 . S
O37 C36 1.258 . S
O38 Co35 1.966 . S
O38 C36 1.263 . S
C39 O40 1.235 . S
C39 O66 1.289 . S
O40 C39 1.235 . S
C41 C43 1.400 . S
C41 N44 1.351 . S
C41 C46 1.501 . S
C42 C43 1.387 . S
C42 N45 1.341 . S
C43 C41 1.400 . S
C43 C42 1.387 . S
N44 Co35 2.022 . S
N44 C41 1.351 . S
N44 N45 1.365 . S
N45 C42 1.341 . S
N45 N44 1.365 . S
N45 H65 0.862 . S
C46 C41 1.501 . S
C46 H47 0.961 . S
C46 H48 0.961 . S
C46 H49 0.960 . S
H47 C46 0.961 . S
H48 C46 0.961 . S
H49 C46 0.960 . S
C50 N51 1.342 . S
C50 C54 1.401 . S
C50 C55 1.499 . S
N51 Co34 1.989 . S
N51 C50 1.342 . S
N51 N52 1.388 . S
N52 Co35 1.993 . S
N52 N51 1.388 . S
N52 C53 1.346 . S
C53 N52 1.346 . S
C53 C54 1.396 . S
C53 C63 1.510 . S
C54 C50 1.401 . S
C54 C53 1.396 . S
C55 C50 1.499 . S
C55 H56 0.959 . S
C55 H57 0.960 . S
C55 H58 0.961 . S
H56 C55 0.959 . S
H57 C55 0.960 . S
H58 C55 0.961 . S
O59 Co34 1.967 . S
O59 C67 1.258 . S
O60 Co35 1.941 . S
O60 C67 1.266 . S
H61 C63 0.959 . S
H62 C63 0.961 . S
C63 C53 1.510 . S
C63 H61 0.959 . S
C63 H62 0.961 . S
C63 H64 0.960 . S
H64 C63 0.960 . S
H65 N45 0.862 . S
O66 Co34 1.920 . S
O66 C39 1.289 . S
C67 O59 1.258 . S
C67 O60 1.266 . S
Co68 O71 1.970 . S
Co68 N85 1.989 . S
Co68 O93 1.967 . S
Co68 O100 1.920 . S
Co69 O72 1.966 . S
Co69 N78 2.022 . S
Co69 N86 1.993 . S
Co69 O94 1.941 . S
C70 O71 1.258 . S
C70 O72 1.263 . S
O71 Co68 1.970 . S
O71 C70 1.258 . S
O72 Co69 1.966 . S
O72 C70 1.263 . S
C73 O74 1.235 . S
C73 O100 1.289 . S
O74 C73 1.235 . S
C75 C77 1.400 . S
C75 N78 1.351 . S
C75 C80 1.501 . S
C76 C77 1.387 . S
C76 N79 1.341 . S
C77 C75 1.400 . S
C77 C76 1.387 . S
N78 Co69 2.022 . S
N78 C75 1.351 . S
N78 N79 1.365 . S
N79 C76 1.341 . S
N79 N78 1.365 . S
N79 H99 0.862 . S
C80 C75 1.501 . S
C80 H81 0.961 . S
C80 H82 0.961 . S
C80 H83 0.960 . S
H81 C80 0.961 . S
H82 C80 0.961 . S
H83 C80 0.960 . S
C84 N85 1.342 . S
C84 C88 1.401 . S
C84 C89 1.499 . S
N85 Co68 1.989 . S
N85 C84 1.342 . S
N85 N86 1.388 . S
N86 Co69 1.993 . S
N86 N85 1.388 . S
N86 C87 1.346 . S
C87 N86 1.346 . S
C87 C88 1.396 . S
C87 C97 1.510 . S
C88 C84 1.401 . S
C88 C87 1.396 . S
C89 C84 1.499 . S
C89 H90 0.959 . S
C89 H91 0.960 . S
C89 H92 0.961 . S
H90 C89 0.959 . S
H91 C89 0.960 . S
H92 C89 0.961 . S
O93 Co68 1.967 . S
O93 C101 1.258 . S
O94 Co69 1.941 . S
O94 C101 1.266 . S
H95 C97 0.959 . S
H96 C97 0.961 . S
C97 C87 1.510 . S
C97 H95 0.959 . S
C97 H96 0.961 . S
C97 H98 0.960 . S
H98 C97 0.960 . S
H99 N79 0.862 . S
O100 Co68 1.920 . S
O100 C73 1.289 . S
C101 O93 1.258 . S
C101 O94 1.266 . S
Co102 O105 1.970 . S
Co102 N119 1.989 . S
Co102 O127 1.967 . S
Co102 O134 1.920 . S
Co103 O106 1.966 . S
Co103 N112 2.022 . S
Co103 N120 1.993 . S
Co103 O128 1.941 . S
C104 O105 1.258 . S
C104 O106 1.263 . S
O105 Co102 1.970 . S
O105 C104 1.258 . S
O106 Co103 1.966 . S
O106 C104 1.263 . S
C107 O108 1.235 . S
C107 O134 1.289 . S
O108 C107 1.235 . S
C109 C111 1.400 . S
C109 N112 1.351 . S
C109 C114 1.501 . S
C110 C111 1.387 . S
C110 N113 1.341 . S
C111 C109 1.400 . S
C111 C110 1.387 . S
N112 Co103 2.022 . S
N112 C109 1.351 . S
N112 N113 1.365 . S
N113 C110 1.341 . S
N113 N112 1.365 . S
N113 H133 0.862 . S
C114 C109 1.501 . S
C114 H115 0.961 . S
C114 H116 0.961 . S
C114 H117 0.960 . S
H115 C114 0.961 . S
H116 C114 0.961 . S
H117 C114 0.960 . S
C118 N119 1.342 . S
C118 C122 1.401 . S
C118 C123 1.499 . S
N119 Co102 1.989 . S
N119 C118 1.342 . S
N119 N120 1.388 . S
N120 Co103 1.993 . S
N120 N119 1.388 . S
N120 C121 1.346 . S
C121 N120 1.346 . S
C121 C122 1.396 . S
C121 C131 1.510 . S
C122 C118 1.401 . S
C122 C121 1.396 . S
C123 C118 1.499 . S
C123 H124 0.959 . S
C123 H125 0.960 . S
C123 H126 0.961 . S
H124 C123 0.959 . S
H125 C123 0.960 . S
H126 C123 0.961 . S
O127 Co102 1.967 . S
O127 C135 1.258 . S
O128 Co103 1.941 . S
O128 C135 1.266 . S
H129 C131 0.959 . S
H130 C131 0.961 . S
C131 C121 1.510 . S
C131 H129 0.959 . S
C131 H130 0.961 . S
C131 H132 0.960 . S
H132 C131 0.960 . S
H133 N113 0.862 . S
O134 Co102 1.920 . S
O134 C107 1.289 . S
C135 O127 1.258 . S
C135 O128 1.266 . S
Co136 O139 1.970 . S
Co136 N153 1.989 . S
Co136 O161 1.967 . S
Co136 O168 1.920 . S
Co137 O140 1.966 . S
Co137 N146 2.022 . S
Co137 N154 1.993 . S
Co137 O162 1.941 . S
C138 O139 1.258 . S
C138 O140 1.263 . S
O139 Co136 1.970 . S
O139 C138 1.258 . S
O140 Co137 1.966 . S
O140 C138 1.263 . S
C141 O142 1.235 . S
C141 O168 1.289 . S
O142 C141 1.235 . S
C143 C145 1.400 . S
C143 N146 1.351 . S
C143 C148 1.501 . S
C144 C145 1.387 . S
C144 N147 1.341 . S
C145 C143 1.400 . S
C145 C144 1.387 . S
N146 Co137 2.022 . S
N146 C143 1.351 . S
N146 N147 1.365 . S
N147 C144 1.341 . S
N147 N146 1.365 . S
N147 H167 0.862 . S
C148 C143 1.501 . S
C148 H149 0.961 . S
C148 H150 0.961 . S
C148 H151 0.960 . S
H149 C148 0.961 . S
H150 C148 0.961 . S
H151 C148 0.960 . S
C152 N153 1.342 . S
C152 C156 1.401 . S
C152 C157 1.499 . S
N153 Co136 1.989 . S
N153 C152 1.342 . S
N153 N154 1.388 . S
N154 Co137 1.993 . S
N154 N153 1.388 . S
N154 C155 1.346 . S
C155 N154 1.346 . S
C155 C156 1.396 . S
C155 C165 1.510 . S
C156 C152 1.401 . S
C156 C155 1.396 . S
C157 C152 1.499 . S
C157 H158 0.959 . S
C157 H159 0.960 . S
C157 H160 0.961 . S
H158 C157 0.959 . S
H159 C157 0.960 . S
H160 C157 0.961 . S
O161 Co136 1.967 . S
O161 C169 1.258 . S
O162 Co137 1.941 . S
O162 C169 1.266 . S
H163 C165 0.959 . S
H164 C165 0.961 . S
C165 C155 1.510 . S
C165 H163 0.959 . S
C165 H164 0.961 . S
C165 H166 0.960 . S
H166 C165 0.960 . S
H167 N147 0.862 . S
O168 Co136 1.920 . S
O168 C141 1.289 . S
C169 O161 1.258 . S
C169 O162 1.266 . S
Co170 O173 1.970 . S
Co170 N187 1.989 . S
Co170 O195 1.967 . S
Co170 O202 1.920 . S
Co171 O174 1.966 . S
Co171 N180 2.022 . S
Co171 N188 1.993 . S
Co171 O196 1.941 . S
C172 O173 1.258 . S
C172 O174 1.263 . S
O173 Co170 1.970 . S
O173 C172 1.258 . S
O174 Co171 1.966 . S
O174 C172 1.263 . S
C175 O176 1.235 . S
C175 O202 1.289 . S
O176 C175 1.235 . S
C177 C179 1.400 . S
C177 N180 1.351 . S
C177 C182 1.501 . S
C178 C179 1.387 . S
C178 N181 1.341 . S
C179 C177 1.400 . S
C179 C178 1.387 . S
N180 Co171 2.022 . S
N180 C177 1.351 . S
N180 N181 1.365 . S
N181 C178 1.341 . S
N181 N180 1.365 . S
N181 H201 0.862 . S
C182 C177 1.501 . S
C182 H183 0.961 . S
C182 H184 0.961 . S
C182 H185 0.960 . S
H183 C182 0.961 . S
H184 C182 0.961 . S
H185 C182 0.960 . S
C186 N187 1.342 . S
C186 C190 1.401 . S
C186 C191 1.499 . S
N187 Co170 1.989 . S
N187 C186 1.342 . S
N187 N188 1.388 . S
N188 Co171 1.993 . S
N188 N187 1.388 . S
N188 C189 1.346 . S
C189 N188 1.346 . S
C189 C190 1.396 . S
C189 C199 1.510 . S
C190 C186 1.401 . S
C190 C189 1.396 . S
C191 C186 1.499 . S
C191 H192 0.959 . S
C191 H193 0.960 . S
C191 H194 0.961 . S
H192 C191 0.959 . S
H193 C191 0.960 . S
H194 C191 0.961 . S
O195 Co170 1.967 . S
O195 C203 1.258 . S
O196 Co171 1.941 . S
O196 C203 1.266 . S
H197 C199 0.959 . S
H198 C199 0.961 . S
C199 C189 1.510 . S
C199 H197 0.959 . S
C199 H198 0.961 . S
C199 H200 0.960 . S
H200 C199 0.960 . S
H201 N181 0.862 . S
O202 Co170 1.920 . S
O202 C175 1.289 . S
C203 O195 1.258 . S
C203 O196 1.266 . S
Co204 O207 1.970 . S
Co204 N221 1.989 . S
Co204 O229 1.967 . S
Co204 O236 1.920 . S
Co205 O208 1.966 . S
Co205 N214 2.022 . S
Co205 N222 1.993 . S
Co205 O230 1.941 . S
C206 O207 1.258 . S
C206 O208 1.263 . S
O207 Co204 1.970 . S
O207 C206 1.258 . S
O208 Co205 1.966 . S
O208 C206 1.263 . S
C209 O210 1.235 . S
C209 O236 1.289 . S
O210 C209 1.235 . S
C211 C213 1.400 . S
C211 N214 1.351 . S
C211 C216 1.501 . S
C212 C213 1.387 . S
C212 N215 1.341 . S
C213 C211 1.400 . S
C213 C212 1.387 . S
N214 Co205 2.022 . S
N214 C211 1.351 . S
N214 N215 1.365 . S
N215 C212 1.341 . S
N215 N214 1.365 . S
N215 H235 0.862 . S
C216 C211 1.501 . S
C216 H217 0.961 . S
C216 H218 0.961 . S
C216 H219 0.960 . S
H217 C216 0.961 . S
H218 C216 0.961 . S
H219 C216 0.960 . S
C220 N221 1.342 . S
C220 C224 1.401 . S
C220 C225 1.499 . S
N221 Co204 1.989 . S
N221 C220 1.342 . S
N221 N222 1.388 . S
N222 Co205 1.993 . S
N222 N221 1.388 . S
N222 C223 1.346 . S
C223 N222 1.346 . S
C223 C224 1.396 . S
C223 C233 1.510 . S
C224 C220 1.401 . S
C224 C223 1.396 . S
C225 C220 1.499 . S
C225 H226 0.959 . S
C225 H227 0.960 . S
C225 H228 0.961 . S
H226 C225 0.959 . S
H227 C225 0.960 . S
H228 C225 0.961 . S
O229 Co204 1.967 . S
O229 C237 1.258 . S
O230 Co205 1.941 . S
O230 C237 1.266 . S
H231 C233 0.959 . S
H232 C233 0.961 . S
C233 C223 1.510 . S
C233 H231 0.959 . S
C233 H232 0.961 . S
C233 H234 0.960 . S
H234 C233 0.960 . S
H235 N215 0.862 . S
O236 Co204 1.920 . S
O236 C209 1.289 . S
C237 O229 1.258 . S
C237 O230 1.266 . S
Co238 O241 1.970 . S
Co238 N255 1.989 . S
Co238 O263 1.967 . S
Co238 O270 1.920 . S
Co239 O242 1.966 . S
Co239 N248 2.022 . S
Co239 N256 1.993 . S
Co239 O264 1.941 . S
C240 O241 1.258 . S
C240 O242 1.263 . S
O241 Co238 1.970 . S
O241 C240 1.258 . S
O242 Co239 1.966 . S
O242 C240 1.263 . S
C243 O244 1.235 . S
C243 O270 1.289 . S
O244 C243 1.235 . S
C245 C247 1.400 . S
C245 N248 1.351 . S
C245 C250 1.501 . S
C246 C247 1.387 . S
C246 N249 1.341 . S
C247 C245 1.400 . S
C247 C246 1.387 . S
N248 Co239 2.022 . S
N248 C245 1.351 . S
N248 N249 1.365 . S
N249 C246 1.341 . S
N249 N248 1.365 . S
N249 H269 0.862 . S
C250 C245 1.501 . S
C250 H251 0.961 . S
C250 H252 0.961 . S
C250 H253 0.960 . S
H251 C250 0.961 . S
H252 C250 0.961 . S
H253 C250 0.960 . S
C254 N255 1.342 . S
C254 C258 1.401 . S
C254 C259 1.499 . S
N255 Co238 1.989 . S
N255 C254 1.342 . S
N255 N256 1.388 . S
N256 Co239 1.993 . S
N256 N255 1.388 . S
N256 C257 1.346 . S
C257 N256 1.346 . S
C257 C258 1.396 . S
C257 C267 1.510 . S
C258 C254 1.401 . S
C258 C257 1.396 . S
C259 C254 1.499 . S
C259 H260 0.959 . S
C259 H261 0.960 . S
C259 H262 0.961 . S
H260 C259 0.959 . S
H261 C259 0.960 . S
H262 C259 0.961 . S
O263 Co238 1.967 . S
O263 C271 1.258 . S
O264 Co239 1.941 . S
O264 C271 1.266 . S
H265 C267 0.959 . S
H266 C267 0.961 . S
C267 C257 1.510 . S
C267 H265 0.959 . S
C267 H266 0.961 . S
C267 H268 0.960 . S
H268 C267 0.960 . S
H269 N249 0.862 . S
O270 Co238 1.920 . S
O270 C243 1.289 . S
C271 O263 1.258 . S
C271 O264 1.266 . S
Co272 O275 1.970 . S
Co272 N289 1.989 . S
Co272 O297 1.967 . S
Co272 O304 1.920 . S
Co273 O276 1.966 . S
Co273 N282 2.022 . S
Co273 N290 1.993 . S
Co273 O298 1.941 . S
C274 O275 1.258 . S
C274 O276 1.263 . S
O275 Co272 1.970 . S
O275 C274 1.258 . S
O276 Co273 1.966 . S
O276 C274 1.263 . S
C277 O278 1.235 . S
C277 O304 1.289 . S
O278 C277 1.235 . S
C279 C281 1.400 . S
C279 N282 1.351 . S
C279 C284 1.501 . S
C280 C281 1.387 . S
C280 N283 1.341 . S
C281 C279 1.400 . S
C281 C280 1.387 . S
N282 Co273 2.022 . S
N282 C279 1.351 . S
N282 N283 1.365 . S
N283 C280 1.341 . S
N283 N282 1.365 . S
N283 H303 0.862 . S
C284 C279 1.501 . S
C284 H285 0.961 . S
C284 H286 0.961 . S
C284 H287 0.960 . S
H285 C284 0.961 . S
H286 C284 0.961 . S
H287 C284 0.960 . S
C288 N289 1.342 . S
C288 C292 1.401 . S
C288 C293 1.499 . S
N289 Co272 1.989 . S
N289 C288 1.342 . S
N289 N290 1.388 . S
N290 Co273 1.993 . S
N290 N289 1.388 . S
N290 C291 1.346 . S
C291 N290 1.346 . S
C291 C292 1.396 . S
C291 C301 1.510 . S
C292 C288 1.401 . S
C292 C291 1.396 . S
C293 C288 1.499 . S
C293 H294 0.959 . S
C293 H295 0.960 . S
C293 H296 0.961 . S
H294 C293 0.959 . S
H295 C293 0.960 . S
H296 C293 0.961 . S
O297 Co272 1.967 . S
O297 C305 1.258 . S
O298 Co273 1.941 . S
O298 C305 1.266 . S
H299 C301 0.959 . S
H300 C301 0.961 . S
C301 C291 1.510 . S
C301 H299 0.959 . S
C301 H300 0.961 . S
C301 H302 0.960 . S
H302 C301 0.960 . S
H303 N283 0.862 . S
O304 Co272 1.920 . S
O304 C277 1.289 . S
C305 O297 1.258 . S
C305 O298 1.266 . S
Co306 O309 1.970 . S
Co306 N323 1.989 . S
Co306 O331 1.967 . S
Co306 O338 1.920 . S
Co307 O310 1.966 . S
Co307 N316 2.022 . S
Co307 N324 1.993 . S
Co307 O332 1.941 . S
C308 O309 1.258 . S
C308 O310 1.263 . S
O309 Co306 1.970 . S
O309 C308 1.258 . S
O310 Co307 1.966 . S
O310 C308 1.263 . S
C311 O312 1.235 . S
C311 O338 1.289 . S
O312 C311 1.235 . S
C313 C315 1.400 . S
C313 N316 1.351 . S
C313 C318 1.501 . S
C314 C315 1.387 . S
C314 N317 1.341 . S
C315 C313 1.400 . S
C315 C314 1.387 . S
N316 Co307 2.022 . S
N316 C313 1.351 . S
N316 N317 1.365 . S
N317 C314 1.341 . S
N317 N316 1.365 . S
N317 H337 0.862 . S
C318 C313 1.501 . S
C318 H319 0.961 . S
C318 H320 0.961 . S
C318 H321 0.960 . S
H319 C318 0.961 . S
H320 C318 0.961 . S
H321 C318 0.960 . S
C322 N323 1.342 . S
C322 C326 1.401 . S
C322 C327 1.499 . S
N323 Co306 1.989 . S
N323 C322 1.342 . S
N323 N324 1.388 . S
N324 Co307 1.993 . S
N324 N323 1.388 . S
N324 C325 1.346 . S
C325 N324 1.346 . S
C325 C326 1.396 . S
C325 C335 1.510 . S
C326 C322 1.401 . S
C326 C325 1.396 . S
C327 C322 1.499 . S
C327 H328 0.959 . S
C327 H329 0.960 . S
C327 H330 0.961 . S
H328 C327 0.959 . S
H329 C327 0.960 . S
H330 C327 0.961 . S
O331 Co306 1.967 . S
O331 C339 1.258 . S
O332 Co307 1.941 . S
O332 C339 1.266 . S
H333 C335 0.959 . S
H334 C335 0.961 . S
C335 C325 1.510 . S
C335 H333 0.959 . S
C335 H334 0.961 . S
C335 H336 0.960 . S
H336 C335 0.960 . S
H337 N317 0.862 . S
O338 Co306 1.920 . S
O338 C311 1.289 . S
C339 O331 1.258 . S
C339 O332 1.266 . S
Co340 O343 1.970 . S
Co340 N357 1.989 . S
Co340 O365 1.967 . S
Co340 O372 1.920 . S
Co341 O344 1.966 . S
Co341 N350 2.022 . S
Co341 N358 1.993 . S
Co341 O366 1.941 . S
C342 O343 1.258 . S
C342 O344 1.263 . S
O343 Co340 1.970 . S
O343 C342 1.258 . S
O344 Co341 1.966 . S
O344 C342 1.263 . S
C345 O346 1.235 . S
C345 O372 1.289 . S
O346 C345 1.235 . S
C347 C349 1.400 . S
C347 N350 1.351 . S
C347 C352 1.501 . S
C348 C349 1.387 . S
C348 N351 1.341 . S
C349 C347 1.400 . S
C349 C348 1.387 . S
N350 Co341 2.022 . S
N350 C347 1.351 . S
N350 N351 1.365 . S
N351 C348 1.341 . S
N351 N350 1.365 . S
N351 H371 0.862 . S
C352 C347 1.501 . S
C352 H353 0.961 . S
C352 H354 0.961 . S
C352 H355 0.960 . S
H353 C352 0.961 . S
H354 C352 0.961 . S
H355 C352 0.960 . S
C356 N357 1.342 . S
C356 C360 1.401 . S
C356 C361 1.499 . S
N357 Co340 1.989 . S
N357 C356 1.342 . S
N357 N358 1.388 . S
N358 Co341 1.993 . S
N358 N357 1.388 . S
N358 C359 1.346 . S
C359 N358 1.346 . S
C359 C360 1.396 . S
C359 C369 1.510 . S
C360 C356 1.401 . S
C360 C359 1.396 . S
C361 C356 1.499 . S
C361 H362 0.959 . S
C361 H363 0.960 . S
C361 H364 0.961 . S
H362 C361 0.959 . S
H363 C361 0.960 . S
H364 C361 0.961 . S
O365 Co340 1.967 . S
O365 C373 1.258 . S
O366 Co341 1.941 . S
O366 C373 1.266 . S
H367 C369 0.959 . S
H368 C369 0.961 . S
C369 C359 1.510 . S
C369 H367 0.959 . S
C369 H368 0.961 . S
C369 H370 0.960 . S
H370 C369 0.960 . S
H371 N351 0.862 . S
O372 Co340 1.920 . S
O372 C345 1.289 . S
C373 O365 1.258 . S
C373 O366 1.266 . S
Co374 O377 1.970 . S
Co374 N391 1.989 . S
Co374 O399 1.967 . S
Co374 O406 1.920 . S
Co375 O378 1.966 . S
Co375 N384 2.022 . S
Co375 N392 1.993 . S
Co375 O400 1.941 . S
C376 O377 1.258 . S
C376 O378 1.263 . S
O377 Co374 1.970 . S
O377 C376 1.258 . S
O378 Co375 1.966 . S
O378 C376 1.263 . S
C379 O380 1.235 . S
C379 O406 1.289 . S
O380 C379 1.235 . S
C381 C383 1.400 . S
C381 N384 1.351 . S
C381 C386 1.501 . S
C382 C383 1.387 . S
C382 N385 1.341 . S
C383 C381 1.400 . S
C383 C382 1.387 . S
N384 Co375 2.022 . S
N384 C381 1.351 . S
N384 N385 1.365 . S
N385 C382 1.341 . S
N385 N384 1.365 . S
N385 H405 0.862 . S
C386 C381 1.501 . S
C386 H387 0.961 . S
C386 H388 0.961 . S
C386 H389 0.960 . S
H387 C386 0.961 . S
H388 C386 0.961 . S
H389 C386 0.960 . S
C390 N391 1.342 . S
C390 C394 1.401 . S
C390 C395 1.499 . S
N391 Co374 1.989 . S
N391 C390 1.342 . S
N391 N392 1.388 . S
N392 Co375 1.993 . S
N392 N391 1.388 . S
N392 C393 1.346 . S
C393 N392 1.346 . S
C393 C394 1.396 . S
C393 C403 1.510 . S
C394 C390 1.401 . S
C394 C393 1.396 . S
C395 C390 1.499 . S
C395 H396 0.959 . S
C395 H397 0.960 . S
C395 H398 0.961 . S
H396 C395 0.959 . S
H397 C395 0.960 . S
H398 C395 0.961 . S
O399 Co374 1.967 . S
O399 C407 1.258 . S
O400 Co375 1.941 . S
O400 C407 1.266 . S
H401 C403 0.959 . S
H402 C403 0.961 . S
C403 C393 1.510 . S
C403 H401 0.959 . S
C403 H402 0.961 . S
C403 H404 0.960 . S
H404 C403 0.960 . S
H405 N385 0.862 . S
O406 Co374 1.920 . S
O406 C379 1.289 . S
C407 O399 1.258 . S
C407 O400 1.266 . S
H408 C426 0.951 . S
H409 C428 0.951 1_565 S
H410 C430 0.950 . S
H411 C431 0.950 . S
H412 C433 0.950 . S
H413 C436 0.950 . S
H414 C437 0.950 . S
H415 C439 0.950 . S
H416 C440 0.950 . S
H417 C441 0.951 . S
H418 C443 0.951 1_545 S
H419 C445 0.950 . S
H420 C446 0.950 . S
H421 C448 0.950 . S
H422 C451 0.950 . S
H423 C452 0.950 . S
H424 C454 0.950 . S
H425 C455 0.950 . S
C426 H408 0.951 . S
C426 C427 1.366 . S
C426 C428 1.388 . S
C427 C426 1.366 . S
C427 C431 1.385 . S
C428 H409 0.951 1_545 S
C428 C426 1.388 . S
C428 C429 1.366 . S
C429 C428 1.366 . S
C429 C430 1.414 . S
C429 C432 1.499 . S
C430 H410 0.950 . S
C430 C429 1.414 . S
C430 C431 1.374 . S
C431 H411 0.950 . S
C431 C427 1.385 . S
C431 C430 1.374 . S
C432 C429 1.499 . S
C432 C433 1.373 . S
C432 C434 1.389 1_545 S
C433 H412 0.950 . S
C433 C432 1.373 . S
C433 C449 1.377 1_554 S
C434 C432 1.389 1_565 S
C434 C435 1.524 . S
C434 C448 1.377 1_554 S
C435 C434 1.524 . S
C435 C436 1.397 1_565 S
C435 C440 1.363 . S
C436 H413 0.950 . S
C436 C435 1.397 1_545 S
C436 C437 1.334 . S
C437 H414 0.950 . S
C437 C436 1.334 . S
C437 C438 1.287 1_545 S
C438 C437 1.287 1_565 S
C438 C439 1.524 . S
C438 H457 0.913 . S
C439 H415 0.950 . S
C439 C438 1.524 . S
C439 C440 1.415 . S
C440 H416 0.950 . S
C440 C435 1.363 . S
C440 C439 1.415 . S
C441 H417 0.951 . S
C441 C442 1.366 . S
C441 C443 1.388 . S
C442 C441 1.366 . S
C442 C446 1.385 . S
C443 H418 0.951 1_565 S
C443 C441 1.388 . S
C443 C444 1.366 . S
C444 C443 1.366 . S
C444 C445 1.414 . S
C444 C447 1.499 . S
C445 H419 0.950 . S
C445 C444 1.414 . S
C445 C446 1.374 . S
C446 H420 0.950 . S
C446 C442 1.385 . S
C446 C445 1.374 . S
C447 C444 1.499 . S
C447 C448 1.373 . S
C447 C449 1.389 1_565 S
C448 H421 0.950 . S
C448 C434 1.377 1_556 S
C448 C447 1.373 . S
C449 C433 1.377 1_556 S
C449 C447 1.389 1_545 S
C449 C450 1.524 . S
C450 C449 1.524 . S
C450 C451 1.397 1_545 S
C450 C455 1.363 . S
C451 H422 0.950 . S
C451 C450 1.397 1_565 S
C451 C452 1.334 . S
C452 H423 0.950 . S
C452 C451 1.334 . S
C452 C453 1.287 1_565 S
C453 C452 1.287 1_545 S
C453 C454 1.524 . S
C453 H456 0.999 . S
C454 H424 0.950 . S
C454 C453 1.524 . S
C454 C455 1.415 . S
C455 H425 0.950 . S
C455 C450 1.363 . S
C455 C454 1.415 . S
H456 C453 0.999 . S
H457 C438 0.913 . S
H458 C476 0.951 . S
H459 C478 0.951 . S
H460 C480 0.950 . S
H461 C481 0.950 . S
H462 C483 0.950 . S
H463 C486 0.950 . S
H464 C487 0.950 . S
H465 C489 0.950 . S
H466 C490 0.950 . S
H467 C491 0.951 . S
H468 C493 0.951 . S
H469 C495 0.950 . S
H470 C496 0.950 . S
H471 C498 0.950 . S
H472 C501 0.950 . S
H473 C502 0.950 . S
H474 C504 0.950 . S
H475 C505 0.950 . S
C476 H458 0.951 . S
C476 C477 1.366 . S
C476 C478 1.388 . S
C477 C476 1.366 . S
C477 C481 1.385 . S
C478 H459 0.951 . S
C478 C476 1.388 . S
C478 C479 1.366 . S
C479 C478 1.366 . S
C479 C480 1.414 . S
C479 C482 1.499 . S
C480 H460 0.950 . S
C480 C479 1.414 . S
C480 C481 1.374 . S
C481 H461 0.950 . S
C481 C477 1.385 . S
C481 C480 1.374 . S
C482 C479 1.499 . S
C482 C483 1.373 . S
C482 C484 1.389 . S
C483 H462 0.950 . S
C483 C482 1.373 . S
C483 C499 1.377 . S
C484 C482 1.389 . S
C484 C485 1.524 . S
C484 C498 1.377 . S
C485 C484 1.524 . S
C485 C486 1.397 . S
C485 C490 1.363 . S
C486 H463 0.950 . S
C486 C485 1.397 . S
C486 C487 1.334 . S
C487 H464 0.950 . S
C487 C486 1.334 . S
C487 C488 1.287 . S
C488 C487 1.287 . S
C488 C489 1.524 . S
C488 H507 0.913 . S
C489 H465 0.950 . S
C489 C488 1.524 . S
C489 C490 1.415 . S
C490 H466 0.950 . S
C490 C485 1.363 . S
C490 C489 1.415 . S
C491 H467 0.951 . S
C491 C492 1.366 . S
C491 C493 1.388 . S
C492 C491 1.366 . S
C492 C496 1.385 . S
C493 H468 0.951 . S
C493 C491 1.388 . S
C493 C494 1.366 . S
C494 C493 1.366 . S
C494 C495 1.414 . S
C494 C497 1.499 . S
C495 H469 0.950 . S
C495 C494 1.414 . S
C495 C496 1.374 . S
C496 H470 0.950 . S
C496 C492 1.385 . S
C496 C495 1.374 . S
C497 C494 1.499 . S
C497 C498 1.373 . S
C497 C499 1.389 . S
C498 H471 0.950 . S
C498 C484 1.377 . S
C498 C497 1.373 . S
C499 C483 1.377 . S
C499 C497 1.389 . S
C499 C500 1.524 . S
C500 C499 1.524 . S
C500 C501 1.397 . S
C500 C505 1.363 . S
C501 H472 0.950 . S
C501 C500 1.397 . S
C501 C502 1.334 . S
C502 H473 0.950 . S
C502 C501 1.334 . S
C502 C503 1.287 . S
C503 C502 1.287 . S
C503 C504 1.524 . S
C503 H506 0.999 . S
C504 H474 0.950 . S
C504 C503 1.524 . S
C504 C505 1.415 . S
C505 H475 0.950 . S
C505 C500 1.363 . S
C505 C504 1.415 . S
H506 C503 0.999 . S
H507 C488 0.913 . S
H508 C526 0.951 . S
H509 C528 0.951 . S
H510 C530 0.950 1_455 S
H511 C531 0.950 . S
H512 C533 0.950 . S
H513 C536 0.950 1_455 S
H514 C537 0.950 . S
H515 C539 0.950 . S
H516 C540 0.950 . S
H517 C541 0.951 . S
H518 C543 0.951 . S
H519 C545 0.950 1_655 S
H520 C546 0.950 . S
H521 C548 0.950 . S
H522 C551 0.950 1_655 S
H523 C552 0.950 . S
H524 C554 0.950 . S
H525 C555 0.950 . S
C526 H508 0.951 . S
C526 C527 1.366 . S
C526 C528 1.388 . S
C527 C526 1.366 . S
C527 C531 1.385 . S
C528 H509 0.951 . S
C528 C526 1.388 . S
C528 C529 1.366 . S
C529 C528 1.366 . S
C529 C530 1.414 . S
C529 C532 1.499 . S
C530 H510 0.950 1_655 S
C530 C529 1.414 . S
C530 C531 1.374 . S
C531 H511 0.950 . S
C531 C527 1.385 . S
C531 C530 1.374 . S
C532 C529 1.499 . S
C532 C533 1.373 1_655 S
C532 C534 1.389 . S
C533 H512 0.950 . S
C533 C532 1.373 1_455 S
C533 C549 1.377 . S
C534 C532 1.389 . S
C534 C535 1.524 . S
C534 C548 1.377 . S
C535 C534 1.524 . S
C535 C536 1.397 . S
C535 C540 1.363 . S
C536 H513 0.950 1_655 S
C536 C535 1.397 . S
C536 C537 1.334 . S
C537 H514 0.950 . S
C537 C536 1.334 . S
C537 C538 1.287 . S
C538 C537 1.287 . S
C538 C539 1.524 . S
C538 H557 0.913 . S
C539 H515 0.950 . S
C539 C538 1.524 . S
C539 C540 1.415 . S
C540 H516 0.950 . S
C540 C535 1.363 . S
C540 C539 1.415 . S
C541 H517 0.951 . S
C541 C542 1.366 . S
C541 C543 1.388 . S
C542 C541 1.366 . S
C542 C546 1.385 . S
C543 H518 0.951 . S
C543 C541 1.388 . S
C543 C544 1.366 . S
C544 C543 1.366 . S
C544 C545 1.414 . S
C544 C547 1.499 . S
C545 H519 0.950 1_455 S
C545 C544 1.414 . S
C545 C546 1.374 . S
C546 H520 0.950 . S
C546 C542 1.385 . S
C546 C545 1.374 . S
C547 C544 1.499 . S
C547 C548 1.373 1_455 S
C547 C549 1.389 . S
C548 H521 0.950 . S
C548 C534 1.377 . S
C548 C547 1.373 1_655 S
C549 C533 1.377 . S
C549 C547 1.389 . S
C549 C550 1.524 . S
C550 C549 1.524 . S
C550 C551 1.397 . S
C550 C555 1.363 . S
C551 H522 0.950 1_455 S
C551 C550 1.397 . S
C551 C552 1.334 . S
C552 H523 0.950 . S
C552 C551 1.334 . S
C552 C553 1.287 . S
C553 C552 1.287 . S
C553 C554 1.524 . S
C553 H556 0.999 . S
C554 H524 0.950 . S
C554 C553 1.524 . S
C554 C555 1.415 . S
C555 H525 0.950 . S
C555 C550 1.363 . S
C555 C554 1.415 . S
H556 C553 0.999 . S
H557 C538 0.913 . S
H558 C576 0.951 . S
H559 C578 0.951 . S
H560 C580 0.950 . S
H561 C581 0.950 . S
H562 C583 0.950 . S
H563 C586 0.950 . S
H564 C587 0.950 . S
H565 C589 0.950 . S
H566 C590 0.950 . S
H567 C591 0.951 . S
H568 C593 0.951 . S
H569 C595 0.950 . S
H570 C596 0.950 . S
H571 C598 0.950 . S
H572 C601 0.950 . S
H573 C602 0.950 . S
H574 C604 0.950 . S
H575 C605 0.950 . S
C576 H558 0.951 . S
C576 C577 1.366 . S
C576 C578 1.388 . S
C577 C576 1.366 . S
C577 C581 1.385 . S
C578 H559 0.951 . S
C578 C576 1.388 . S
C578 C579 1.366 . S
C579 C578 1.366 . S
C579 C580 1.414 . S
C579 C582 1.499 . S
C580 H560 0.950 . S
C580 C579 1.414 . S
C580 C581 1.374 . S
C581 H561 0.950 . S
C581 C577 1.385 . S
C581 C580 1.374 . S
C582 C579 1.499 . S
C582 C583 1.373 . S
C582 C584 1.389 1_545 S
C583 H562 0.950 . S
C583 C582 1.373 . S
C583 C599 1.377 1_556 S
C584 C582 1.389 1_565 S
C584 C585 1.524 . S
C584 C598 1.377 1_556 S
C585 C584 1.524 . S
C585 C586 1.397 . S
C585 C590 1.363 . S
C586 H563 0.950 . S
C586 C585 1.397 . S
C586 C587 1.334 . S
C587 H564 0.950 . S
C587 C586 1.334 . S
C587 C588 1.287 . S
C588 C587 1.287 . S
C588 C589 1.524 . S
C588 H607 0.913 . S
C589 H565 0.950 . S
C589 C588 1.524 . S
C589 C590 1.415 . S
C590 H566 0.950 . S
C590 C585 1.363 . S
C590 C589 1.415 . S
C591 H567 0.951 . S
C591 C592 1.366 . S
C591 C593 1.388 . S
C592 C591 1.366 . S
C592 C596 1.385 . S
C593 H568 0.951 . S
C593 C591 1.388 . S
C593 C594 1.366 . S
C594 C593 1.366 . S
C594 C595 1.414 . S
C594 C597 1.499 . S
C595 H569 0.950 . S
C595 C594 1.414 . S
C595 C596 1.374 . S
C596 H570 0.950 . S
C596 C592 1.385 . S
C596 C595 1.374 . S
C597 C594 1.499 . S
C597 C598 1.373 . S
C597 C599 1.389 1_565 S
C598 H571 0.950 . S
C598 C584 1.377 1_554 S
C598 C597 1.373 . S
C599 C583 1.377 1_554 S
C599 C597 1.389 1_545 S
C599 C600 1.524 . S
C600 C599 1.524 . S
C600 C601 1.397 . S
C600 C605 1.363 . S
C601 H572 0.950 . S
C601 C600 1.397 . S
C601 C602 1.334 . S
C602 H573 0.950 . S
C602 C601 1.334 . S
C602 C603 1.287 . S
C603 C602 1.287 . S
C603 C604 1.524 . S
C603 H606 0.999 . S
C604 H574 0.950 . S
C604 C603 1.524 . S
C604 C605 1.415 . S
C605 H575 0.950 . S
C605 C600 1.363 . S
C605 C604 1.415 . S
H606 C603 0.999 . S
H607 C588 0.913 . S
H608 C626 0.951 . S
H609 C628 0.951 . S
H610 C630 0.950 . S
H611 C631 0.950 . S
H612 C633 0.950 . S
H613 C636 0.950 . S
H614 C637 0.950 . S
H615 C639 0.950 . S
H616 C640 0.950 . S
H617 C641 0.951 . S
H618 C643 0.951 . S
H619 C645 0.950 . S
H620 C646 0.950 . S
H621 C648 0.950 . S
H622 C651 0.950 . S
H623 C652 0.950 . S
H624 C654 0.950 . S
H625 C655 0.950 . S
C626 H608 0.951 . S
C626 C627 1.366 . S
C626 C628 1.388 . S
C627 C626 1.366 . S
C627 C631 1.385 . S
C628 H609 0.951 . S
C628 C626 1.388 . S
C628 C629 1.366 . S
C629 C628 1.366 . S
C629 C630 1.414 . S
C629 C632 1.499 . S
C630 H610 0.950 . S
C630 C629 1.414 . S
C630 C631 1.374 . S
C631 H611 0.950 . S
C631 C627 1.385 . S
C631 C630 1.374 . S
C632 C629 1.499 . S
C632 C633 1.373 . S
C632 C634 1.389 . S
C633 H612 0.950 . S
C633 C632 1.373 . S
C633 C649 1.377 . S
C634 C632 1.389 . S
C634 C635 1.524 . S
C634 C648 1.377 . S
C635 C634 1.524 . S
C635 C636 1.397 . S
C635 C640 1.363 . S
C636 H613 0.950 . S
C636 C635 1.397 . S
C636 C637 1.334 . S
C637 H614 0.950 . S
C637 C636 1.334 . S
C637 C638 1.287 . S
C638 C637 1.287 . S
C638 C639 1.524 . S
C638 H657 0.913 . S
C639 H615 0.950 . S
C639 C638 1.524 . S
C639 C640 1.415 . S
C640 H616 0.950 . S
C640 C635 1.363 . S
C640 C639 1.415 . S
C641 H617 0.951 . S
C641 C642 1.366 . S
C641 C643 1.388 . S
C642 C641 1.366 . S
C642 C646 1.385 . S
C643 H618 0.951 . S
C643 C641 1.388 . S
C643 C644 1.366 . S
C644 C643 1.366 . S
C644 C645 1.414 . S
C644 C647 1.499 . S
C645 H619 0.950 . S
C645 C644 1.414 . S
C645 C646 1.374 . S
C646 H620 0.950 . S
C646 C642 1.385 . S
C646 C645 1.374 . S
C647 C644 1.499 . S
C647 C648 1.373 . S
C647 C649 1.389 . S
C648 H621 0.950 . S
C648 C634 1.377 . S
C648 C647 1.373 . S
C649 C633 1.377 . S
C649 C647 1.389 . S
C649 C650 1.524 . S
C650 C649 1.524 . S
C650 C651 1.397 . S
C650 C655 1.363 . S
C651 H622 0.950 . S
C651 C650 1.397 . S
C651 C652 1.334 . S
C652 H623 0.950 . S
C652 C651 1.334 . S
C652 C653 1.287 . S
C653 C652 1.287 . S
C653 C654 1.524 . S
C653 H656 0.999 . S
C654 H624 0.950 . S
C654 C653 1.524 . S
C654 C655 1.415 . S
C655 H625 0.950 . S
C655 C650 1.363 . S
C655 C654 1.415 . S
H656 C653 0.999 . S
H657 C638 0.913 . S
H658 C676 0.951 . S
H659 C678 0.951 1_655 S
H660 C680 0.950 . S
H661 C681 0.950 . S
H662 C683 0.950 . S
H663 C686 0.950 . S
H664 C687 0.950 . S
H665 C689 0.950 . S
H666 C690 0.950 . S
H667 C691 0.951 . S
H668 C693 0.951 1_455 S
H669 C695 0.950 . S
H670 C696 0.950 . S
H671 C698 0.950 . S
H672 C701 0.950 . S
H673 C702 0.950 . S
H674 C704 0.950 . S
H675 C705 0.950 . S
C676 H658 0.951 . S
C676 C677 1.366 . S
C676 C678 1.388 . S
C677 C676 1.366 . S
C677 C681 1.385 . S
C678 H659 0.951 1_455 S
C678 C676 1.388 . S
C678 C679 1.366 . S
C679 C678 1.366 . S
C679 C680 1.414 . S
C679 C682 1.499 . S
C680 H660 0.950 . S
C680 C679 1.414 . S
C680 C681 1.374 . S
C681 H661 0.950 . S
C681 C677 1.385 . S
C681 C680 1.374 . S
C682 C679 1.499 . S
C682 C683 1.373 . S
C682 C684 1.389 1_455 S
C683 H662 0.950 . S
C683 C682 1.373 . S
C683 C699 1.377 . S
C684 C682 1.389 1_655 S
C684 C685 1.524 . S
C684 C698 1.377 . S
C685 C684 1.524 . S
C685 C686 1.397 1_655 S
C685 C690 1.363 . S
C686 H663 0.950 . S
C686 C685 1.397 1_455 S
C686 C687 1.334 . S
C687 H664 0.950 . S
C687 C686 1.334 . S
C687 C688 1.285 1_455 S
C688 C687 1.285 1_655 S
C688 C689 1.527 . S
C688 H707 0.904 1_655 S
C689 H665 0.950 . S
C689 C688 1.527 . S
C689 C690 1.415 . S
C690 H666 0.950 . S
C690 C685 1.363 . S
C690 C689 1.415 . S
C691 H667 0.951 . S
C691 C692 1.366 . S
C691 C693 1.388 . S
C692 C691 1.366 . S
C692 C696 1.385 . S
C693 H668 0.951 1_655 S
C693 C691 1.388 . S
C693 C694 1.366 . S
C694 C693 1.366 . S
C694 C695 1.414 . S
C694 C697 1.499 . S
C695 H669 0.950 . S
C695 C694 1.414 . S
C695 C696 1.374 . S
C696 H670 0.950 . S
C696 C692 1.385 . S
C696 C695 1.374 . S
C697 C694 1.499 . S
C697 C698 1.373 . S
C697 C699 1.389 1_655 S
C698 H671 0.950 . S
C698 C684 1.377 . S
C698 C697 1.373 . S
C699 C683 1.377 . S
C699 C697 1.389 1_455 S
C699 C700 1.524 . S
C700 C699 1.524 . S
C700 C701 1.397 1_455 S
C700 C705 1.363 . S
C701 H672 0.950 . S
C701 C700 1.397 1_655 S
C701 C702 1.334 . S
C702 H673 0.950 . S
C702 C701 1.334 . S
C702 C703 1.285 1_655 S
C703 C702 1.285 1_455 S
C703 C704 1.527 . S
C703 H706 0.998 . S
C704 H674 0.950 . S
C704 C703 1.527 . S
C704 C705 1.415 . S
C705 H675 0.950 . S
C705 C700 1.363 . S
C705 C704 1.415 . S
H706 C703 0.998 . S
H707 C688 0.904 1_455 S
H708 C726 0.951 . S
H709 C728 0.951 1_545 S
H710 C730 0.950 . S
H711 C731 0.950 . S
H712 C733 0.950 . S
H713 C736 0.950 . S
H714 C737 0.950 . S
H715 C739 0.950 . S
H716 C740 0.950 . S
H717 C741 0.951 . S
H718 C743 0.951 1_565 S
H719 C745 0.950 . S
H720 C746 0.950 . S
H721 C748 0.950 . S
H722 C751 0.950 . S
H723 C752 0.950 . S
H724 C754 0.950 . S
H725 C755 0.950 . S
C726 H708 0.951 . S
C726 C727 1.366 . S
C726 C728 1.388 . S
C727 C726 1.366 . S
C727 C731 1.385 . S
C728 H709 0.951 1_565 S
C728 C726 1.388 . S
C728 C729 1.366 . S
C729 C728 1.366 . S
C729 C730 1.414 . S
C729 C732 1.499 . S
C730 H710 0.950 . S
C730 C729 1.414 . S
C730 C731 1.374 . S
C731 H711 0.950 . S
C731 C727 1.385 . S
C731 C730 1.374 . S
C732 C729 1.499 . S
C732 C733 1.373 . S
C732 C734 1.389 1_565 S
C733 H712 0.950 . S
C733 C732 1.373 . S
C733 C749 1.377 . S
C734 C732 1.389 1_545 S
C734 C735 1.524 . S
C734 C748 1.377 . S
C735 C734 1.524 . S
C735 C736 1.397 1_545 S
C735 C740 1.363 . S
C736 H713 0.950 . S
C736 C735 1.397 1_565 S
C736 C737 1.334 . S
C737 H714 0.950 . S
C737 C736 1.334 . S
C737 C738 1.287 1_565 S
C738 C737 1.287 1_545 S
C738 C739 1.524 . S
C738 H757 0.913 . S
C739 H715 0.950 . S
C739 C738 1.524 . S
C739 C740 1.415 . S
C740 H716 0.950 . S
C740 C735 1.363 . S
C740 C739 1.415 . S
C741 H717 0.951 . S
C741 C742 1.366 . S
C741 C743 1.388 . S
C742 C741 1.366 . S
C742 C746 1.385 . S
C743 H718 0.951 1_545 S
C743 C741 1.388 . S
C743 C744 1.366 . S
C744 C743 1.366 . S
C744 C745 1.414 . S
C744 C747 1.499 . S
C745 H719 0.950 . S
C745 C744 1.414 . S
C745 C746 1.374 . S
C746 H720 0.950 . S
C746 C742 1.385 . S
C746 C745 1.374 . S
C747 C744 1.499 . S
C747 C748 1.373 . S
C747 C749 1.389 1_545 S
C748 H721 0.950 . S
C748 C734 1.377 . S
C748 C747 1.373 . S
C749 C733 1.377 . S
C749 C747 1.389 1_565 S
C749 C750 1.524 . S
C750 C749 1.524 . S
C750 C751 1.397 1_565 S
C750 C755 1.363 . S
C751 H722 0.950 . S
C751 C750 1.397 1_545 S
C751 C752 1.334 . S
C752 H723 0.950 . S
C752 C751 1.334 . S
C752 C753 1.287 1_545 S
C753 C752 1.287 1_565 S
C753 C754 1.524 . S
C753 H756 0.999 . S
C754 H724 0.950 . S
C754 C753 1.524 . S
C754 C755 1.415 . S
C755 H725 0.950 . S
C755 C750 1.363 . S
C755 C754 1.415 . S
H756 C753 0.999 . S
H757 C738 0.913 . S
H758 C776 0.951 . S
H759 C778 0.951 . S
H760 C780 0.950 . S
H761 C781 0.950 . S
H762 C783 0.950 . S
H763 C786 0.950 . S
H764 C787 0.950 . S
H765 C789 0.950 . S
H766 C790 0.950 . S
H767 C791 0.951 . S
H768 C793 0.951 . S
H769 C795 0.950 . S
H770 C796 0.950 . S
H771 C798 0.950 . S
H772 C801 0.950 . S
H773 C802 0.950 . S
H774 C804 0.950 . S
H775 C805 0.950 . S
C776 H758 0.951 . S
C776 C777 1.366 . S
C776 C778 1.388 . S
C777 C776 1.366 . S
C777 C781 1.385 . S
C778 H759 0.951 . S
C778 C776 1.388 . S
C778 C779 1.366 . S
C779 C778 1.366 . S
C779 C780 1.414 . S
C779 C782 1.499 . S
C780 H760 0.950 . S
C780 C779 1.414 . S
C780 C781 1.374 . S
C781 H761 0.950 . S
C781 C777 1.385 . S
C781 C780 1.374 . S
C782 C779 1.499 . S
C782 C783 1.373 . S
C782 C784 1.389 . S
C783 H762 0.950 . S
C783 C782 1.373 . S
C783 C799 1.377 . S
C784 C782 1.389 . S
C784 C785 1.524 . S
C784 C798 1.377 . S
C785 C784 1.524 . S
C785 C786 1.397 . S
C785 C790 1.363 . S
C786 H763 0.950 . S
C786 C785 1.397 . S
C786 C787 1.334 . S
C787 H764 0.950 . S
C787 C786 1.334 . S
C787 C788 1.287 . S
C788 C787 1.287 . S
C788 C789 1.524 . S
C788 H807 0.913 . S
C789 H765 0.950 . S
C789 C788 1.524 . S
C789 C790 1.415 . S
C790 H766 0.950 . S
C790 C785 1.363 . S
C790 C789 1.415 . S
C791 H767 0.951 . S
C791 C792 1.366 . S
C791 C793 1.388 . S
C792 C791 1.366 . S
C792 C796 1.385 . S
C793 H768 0.951 . S
C793 C791 1.388 . S
C793 C794 1.366 . S
C794 C793 1.366 . S
C794 C795 1.414 . S
C794 C797 1.499 . S
C795 H769 0.950 . S
C795 C794 1.414 . S
C795 C796 1.374 . S
C796 H770 0.950 . S
C796 C792 1.385 . S
C796 C795 1.374 . S
C797 C794 1.499 . S
C797 C798 1.373 . S
C797 C799 1.389 . S
C798 H771 0.950 . S
C798 C784 1.377 . S
C798 C797 1.373 . S
C799 C783 1.377 . S
C799 C797 1.389 . S
C799 C800 1.524 . S
C800 C799 1.524 . S
C800 C801 1.397 . S
C800 C805 1.363 . S
C801 H772 0.950 . S
C801 C800 1.397 . S
C801 C802 1.334 . S
C802 H773 0.950 . S
C802 C801 1.334 . S
C802 C803 1.287 . S
C803 C802 1.287 . S
C803 C804 1.524 . S
C803 H806 0.999 . S
C804 H774 0.950 . S
C804 C803 1.524 . S
C804 C805 1.415 . S
C805 H775 0.950 . S
C805 C800 1.363 . S
C805 C804 1.415 . S
H806 C803 0.999 . S
H807 C788 0.913 . S
H808 C826 0.951 . S
H809 C828 0.951 . S
H810 C830 0.950 . S
H811 C831 0.950 . S
H812 C833 0.950 . S
H813 C836 0.950 . S
H814 C837 0.950 . S
H815 C839 0.950 . S
H816 C840 0.950 . S
H817 C841 0.951 . S
H818 C843 0.951 . S
H819 C845 0.950 . S
H820 C846 0.950 . S
H821 C848 0.950 . S
H822 C851 0.950 . S
H823 C852 0.950 . S
H824 C854 0.950 . S
H825 C855 0.950 . S
C826 H808 0.951 . S
C826 C827 1.366 . S
C826 C828 1.388 . S
C827 C826 1.366 . S
C827 C831 1.385 . S
C828 H809 0.951 . S
C828 C826 1.388 . S
C828 C829 1.366 . S
C829 C828 1.366 . S
C829 C830 1.414 . S
C829 C832 1.499 . S
C830 H810 0.950 . S
C830 C829 1.414 . S
C830 C831 1.374 . S
C831 H811 0.950 . S
C831 C827 1.385 . S
C831 C830 1.374 . S
C832 C829 1.499 . S
C832 C833 1.373 . S
C832 C834 1.389 1_455 S
C833 H812 0.950 . S
C833 C832 1.373 . S
C833 C849 1.377 . S
C834 C832 1.389 1_655 S
C834 C835 1.524 . S
C834 C848 1.377 . S
C835 C834 1.524 . S
C835 C836 1.397 . S
C835 C840 1.363 . S
C836 H813 0.950 . S
C836 C835 1.397 . S
C836 C837 1.334 . S
C837 H814 0.950 . S
C837 C836 1.334 . S
C837 C838 1.287 . S
C838 C837 1.287 . S
C838 C839 1.524 . S
C838 H857 0.913 . S
C839 H815 0.950 . S
C839 C838 1.524 . S
C839 C840 1.415 . S
C840 H816 0.950 . S
C840 C835 1.363 . S
C840 C839 1.415 . S
C841 H817 0.951 . S
C841 C842 1.366 . S
C841 C843 1.388 . S
C842 C841 1.366 . S
C842 C846 1.385 . S
C843 H818 0.951 . S
C843 C841 1.388 . S
C843 C844 1.366 . S
C844 C843 1.366 . S
C844 C845 1.414 . S
C844 C847 1.499 . S
C845 H819 0.950 . S
C845 C844 1.414 . S
C845 C846 1.374 . S
C846 H820 0.950 . S
C846 C842 1.385 . S
C846 C845 1.374 . S
C847 C844 1.499 . S
C847 C848 1.373 . S
C847 C849 1.389 1_655 S
C848 H821 0.950 . S
C848 C834 1.377 . S
C848 C847 1.373 . S
C849 C833 1.377 . S
C849 C847 1.389 1_455 S
C849 C850 1.524 . S
C850 C849 1.524 . S
C850 C851 1.397 . S
C850 C855 1.363 . S
C851 H822 0.950 . S
C851 C850 1.397 . S
C851 C852 1.334 . S
C852 H823 0.950 . S
C852 C851 1.334 . S
C852 C853 1.287 . S
C853 C852 1.287 . S
C853 C854 1.524 . S
C853 H856 0.999 . S
C854 H824 0.950 . S
C854 C853 1.524 . S
C854 C855 1.415 . S
C855 H825 0.950 . S
C855 C850 1.363 . S
C855 C854 1.415 . S
H856 C853 0.999 . S
H857 C838 0.913 . S
H858 C876 0.951 . S
H859 C878 0.951 . S
H860 C880 0.950 1_655 S
H861 C881 0.950 . S
H862 C883 0.950 . S
H863 C886 0.950 . S
H864 C887 0.950 . S
H865 C889 0.950 . S
H866 C890 0.950 . S
H867 C891 0.951 . S
H868 C893 0.951 . S
H869 C895 0.950 1_455 S
H870 C896 0.950 . S
H871 C898 0.950 . S
H872 C901 0.950 . S
H873 C902 0.950 . S
H874 C904 0.950 . S
H875 C905 0.950 . S
C876 H858 0.951 . S
C876 C877 1.366 . S
C876 C878 1.388 . S
C877 C876 1.366 . S
C877 C881 1.385 . S
C878 H859 0.951 . S
C878 C876 1.388 . S
C878 C879 1.366 . S
C879 C878 1.366 . S
C879 C880 1.414 . S
C879 C882 1.499 . S
C880 H860 0.950 1_455 S
C880 C879 1.414 . S
C880 C881 1.374 . S
C881 H861 0.950 . S
C881 C877 1.385 . S
C881 C880 1.374 . S
C882 C879 1.499 . S
C882 C883 1.373 1_455 S
C882 C884 1.389 . S
C883 H862 0.950 . S
C883 C882 1.373 1_655 S
C883 C899 1.377 . S
C884 C882 1.389 . S
C884 C885 1.524 . S
C884 C898 1.377 . S
C885 C884 1.524 . S
C885 C886 1.397 . S
C885 C890 1.363 . S
C886 H863 0.950 . S
C886 C885 1.397 . S
C886 C887 1.334 . S
C887 H864 0.950 . S
C887 C886 1.334 . S
C887 C888 1.287 . S
C888 C887 1.287 . S
C888 C889 1.524 . S
C888 H907 0.913 . S
C889 H865 0.950 . S
C889 C888 1.524 . S
C889 C890 1.415 . S
C890 H866 0.950 . S
C890 C885 1.363 . S
C890 C889 1.415 . S
C891 H867 0.951 . S
C891 C892 1.366 . S
C891 C893 1.388 . S
C892 C891 1.366 . S
C892 C896 1.385 . S
C893 H868 0.951 . S
C893 C891 1.388 . S
C893 C894 1.366 . S
C894 C893 1.366 . S
C894 C895 1.414 . S
C894 C897 1.499 . S
C895 H869 0.950 1_655 S
C895 C894 1.414 . S
C895 C896 1.374 . S
C896 H870 0.950 . S
C896 C892 1.385 . S
C896 C895 1.374 . S
C897 C894 1.499 . S
C897 C898 1.373 1_655 S
C897 C899 1.389 . S
C898 H871 0.950 . S
C898 C884 1.377 . S
C898 C897 1.373 1_455 S
C899 C883 1.377 . S
C899 C897 1.389 . S
C899 C900 1.524 . S
C900 C899 1.524 . S
C900 C901 1.397 . S
C900 C905 1.363 . S
C901 H872 0.950 . S
C901 C900 1.397 . S
C901 C902 1.334 . S
C902 H873 0.950 . S
C902 C901 1.334 . S
C902 C903 1.287 . S
C903 C902 1.287 . S
C903 C904 1.524 . S
C903 H906 0.999 . S
C904 H874 0.950 . S
C904 C903 1.524 . S
C904 C905 1.415 . S
C905 H875 0.950 . S
C905 C900 1.363 . S
C905 C904 1.415 . S
H906 C903 0.999 . S
H907 C888 0.913 . S
H908 C926 0.951 . S
H909 C928 0.951 . S
H910 C930 0.950 1_565 S
H911 C931 0.950 . S
H912 C933 0.950 . S
H913 C936 0.950 . S
H914 C937 0.950 . S
H915 C939 0.950 . S
H916 C940 0.950 . S
H917 C941 0.951 . S
H918 C943 0.951 . S
H919 C945 0.950 1_545 S
H920 C946 0.950 . S
H921 C948 0.950 . S
H922 C951 0.950 . S
H923 C952 0.950 . S
H924 C954 0.950 . S
H925 C955 0.950 . S
C926 H908 0.951 . S
C926 C927 1.366 . S
C926 C928 1.388 . S
C927 C926 1.366 . S
C927 C931 1.385 . S
C928 H909 0.951 . S
C928 C926 1.388 . S
C928 C929 1.366 . S
C929 C928 1.366 . S
C929 C930 1.414 . S
C929 C932 1.499 . S
C930 H910 0.950 1_545 S
C930 C929 1.414 . S
C930 C931 1.374 . S
C931 H911 0.950 . S
C931 C927 1.385 . S
C931 C930 1.374 . S
C932 C929 1.499 . S
C932 C933 1.373 1_545 S
C932 C934 1.389 . S
C933 H912 0.950 . S
C933 C932 1.373 1_565 S
C933 C949 1.377 . S
C934 C932 1.389 . S
C934 C935 1.524 . S
C934 C948 1.377 . S
C935 C934 1.524 . S
C935 C936 1.397 . S
C935 C940 1.363 . S
C936 H913 0.950 . S
C936 C935 1.397 . S
C936 C937 1.334 . S
C937 H914 0.950 . S
C937 C936 1.334 . S
C937 C938 1.287 . S
C938 C937 1.287 . S
C938 C939 1.524 . S
C938 H957 0.913 . S
C939 H915 0.950 . S
C939 C938 1.524 . S
C939 C940 1.415 . S
C940 H916 0.950 . S
C940 C935 1.363 . S
C940 C939 1.415 . S
C941 H917 0.951 . S
C941 C942 1.366 . S
C941 C943 1.388 . S
C942 C941 1.366 . S
C942 C946 1.385 . S
C943 H918 0.951 . S
C943 C941 1.388 . S
C943 C944 1.366 . S
C944 C943 1.366 . S
C944 C945 1.414 . S
C944 C947 1.499 . S
C945 H919 0.950 1_565 S
C945 C944 1.414 . S
C945 C946 1.374 . S
C946 H920 0.950 . S
C946 C942 1.385 . S
C946 C945 1.374 . S
C947 C944 1.499 . S
C947 C948 1.373 1_565 S
C947 C949 1.389 . S
C948 H921 0.950 . S
C948 C934 1.377 . S
C948 C947 1.373 1_545 S
C949 C933 1.377 . S
C949 C947 1.389 . S
C949 C950 1.524 . S
C950 C949 1.524 . S
C950 C951 1.397 . S
C950 C955 1.363 . S
C951 H922 0.950 . S
C951 C950 1.397 . S
C951 C952 1.334 . S
C952 H923 0.950 . S
C952 C951 1.334 . S
C952 C953 1.287 . S
C953 C952 1.287 . S
C953 C954 1.524 . S
C953 H956 0.999 . S
C954 H924 0.950 . S
C954 C953 1.524 . S
C954 C955 1.415 . S
C955 H925 0.950 . S
C955 C950 1.363 . S
C955 C954 1.415 . S
H956 C953 0.999 . S
H957 C938 0.913 . S
H958 C976 0.951 . S
H959 C978 0.951 . S
H960 C980 0.950 . S
H961 C981 0.950 . S
H962 C983 0.950 . S
H963 C986 0.950 . S
H964 C987 0.950 . S
H965 C989 0.950 . S
H966 C990 0.950 . S
H967 C991 0.951 . S
H968 C993 0.951 . S
H969 C995 0.950 . S
H970 C996 0.950 . S
H971 C998 0.950 . S
H972 C1001 0.950 . S
H973 C1002 0.950 . S
H974 C1004 0.950 . S
H975 C1005 0.950 . S
C976 H958 0.951 . S
C976 C977 1.366 . S
C976 C978 1.388 . S
C977 C976 1.366 . S
C977 C981 1.385 . S
C978 H959 0.951 . S
C978 C976 1.388 . S
C978 C979 1.366 . S
C979 C978 1.366 . S
C979 C980 1.414 . S
C979 C982 1.499 . S
C980 H960 0.950 . S
C980 C979 1.414 . S
C980 C981 1.374 . S
C981 H961 0.950 . S
C981 C977 1.385 . S
C981 C980 1.374 . S
C982 C979 1.499 . S
C982 C983 1.373 . S
C982 C984 1.389 . S
C983 H962 0.950 . S
C983 C982 1.373 . S
C983 C999 1.377 . S
C984 C982 1.389 . S
C984 C985 1.524 . S
C984 C998 1.377 . S
C985 C984 1.524 . S
C985 C986 1.397 . S
C985 C990 1.363 . S
C986 H963 0.950 . S
C986 C985 1.397 . S
C986 C987 1.334 . S
C987 H964 0.950 . S
C987 C986 1.334 . S
C987 C988 1.287 . S
C988 C987 1.287 . S
C988 C989 1.524 . S
C988 H1007 0.913 . S
C989 H965 0.950 . S
C989 C988 1.524 . S
C989 C990 1.415 . S
C990 H966 0.950 . S
C990 C985 1.363 . S
C990 C989 1.415 . S
C991 H967 0.951 . S
C991 C992 1.366 . S
C991 C993 1.388 . S
C992 C991 1.366 . S
C992 C996 1.385 . S
C993 H968 0.951 . S
C993 C991 1.388 . S
C993 C994 1.366 . S
C994 C993 1.366 . S
C994 C995 1.414 . S
C994 C997 1.499 . S
C995 H969 0.950 . S
C995 C994 1.414 . S
C995 C996 1.374 . S
C996 H970 0.950 . S
C996 C992 1.385 . S
C996 C995 1.374 . S
C997 C994 1.499 . S
C997 C998 1.373 . S
C997 C999 1.389 . S
C998 H971 0.950 . S
C998 C984 1.377 . S
C998 C997 1.373 . S
C999 C983 1.377 . S
C999 C997 1.389 . S
C999 C1000 1.524 . S
C1000 C999 1.524 . S
C1000 C1001 1.397 . S
C1000 C1005 1.363 . S
C1001 H972 0.950 . S
C1001 C1000 1.397 . S
C1001 C1002 1.334 . S
C1002 H973 0.950 . S
C1002 C1001 1.334 . S
C1002 C1003 1.287 . S
C1003 C1002 1.287 . S
C1003 C1004 1.524 . S
C1003 H1006 0.999 . S
C1004 H974 0.950 . S
C1004 C1003 1.524 . S
C1004 C1005 1.415 . S
C1005 H975 0.950 . S
C1005 C1000 1.363 . S
C1005 C1004 1.415 . S
H1006 C1003 0.999 . S
H1007 C988 0.913 . S
H1008 C1026 0.951 . S
H1009 C1028 0.951 . S
H1010 C1030 0.950 . S
H1011 C1031 0.950 . S
H1012 C1033 0.950 . S
H1013 C1036 0.950 . S
H1014 C1037 0.950 . S
H1015 C1039 0.950 . S
H1016 C1040 0.950 . S
H1017 C1041 0.951 . S
H1018 C1043 0.951 . S
H1019 C1045 0.950 . S
H1020 C1046 0.950 . S
H1021 C1048 0.950 . S
H1022 C1051 0.950 . S
H1023 C1052 0.950 . S
H1024 C1054 0.950 1_565 S
H1025 C1055 0.950 . S
C1026 H1008 0.951 . S
C1026 C1027 1.366 . S
C1026 C1028 1.388 . S
C1027 C1026 1.366 . S
C1027 C1031 1.385 . S
C1028 H1009 0.951 . S
C1028 C1026 1.388 . S
C1028 C1029 1.366 . S
C1029 C1028 1.366 . S
C1029 C1030 1.414 . S
C1029 C1032 1.499 . S
C1030 H1010 0.950 . S
C1030 C1029 1.414 . S
C1030 C1031 1.374 . S
C1031 H1011 0.950 . S
C1031 C1027 1.385 . S
C1031 C1030 1.374 . S
C1032 C1029 1.499 . S
C1032 C1033 1.373 . S
C1032 C1034 1.389 . S
C1033 H1012 0.950 . S
C1033 C1032 1.373 . S
C1033 C1049 1.377 . S
C1034 C1032 1.389 . S
C1034 C1035 1.524 . S
C1034 C1048 1.377 . S
C1035 C1034 1.524 . S
C1035 C1036 1.397 . S
C1035 C1040 1.363 . S
C1036 H1013 0.950 . S
C1036 C1035 1.397 . S
C1036 C1037 1.334 . S
C1037 H1014 0.950 . S
C1037 C1036 1.334 . S
C1037 C1038 1.287 . S
C1038 C1037 1.287 . S
C1038 C1039 1.524 . S
C1038 H1057 0.913 . S
C1039 H1015 0.950 . S
C1039 C1038 1.524 . S
C1039 C1040 1.415 . S
C1040 H1016 0.950 . S
C1040 C1035 1.363 . S
C1040 C1039 1.415 . S
C1041 H1017 0.951 . S
C1041 C1042 1.366 . S
C1041 C1043 1.388 . S
C1042 C1041 1.366 . S
C1042 C1046 1.385 . S
C1043 H1018 0.951 . S
C1043 C1041 1.388 . S
C1043 C1044 1.366 . S
C1044 C1043 1.366 . S
C1044 C1045 1.414 . S
C1044 C1047 1.499 . S
C1045 H1019 0.950 . S
C1045 C1044 1.414 . S
C1045 C1046 1.374 . S
C1046 H1020 0.950 . S
C1046 C1042 1.385 . S
C1046 C1045 1.374 . S
C1047 C1044 1.499 . S
C1047 C1048 1.373 . S
C1047 C1049 1.389 . S
C1048 H1021 0.950 . S
C1048 C1034 1.377 . S
C1048 C1047 1.373 . S
C1049 C1033 1.377 . S
C1049 C1047 1.389 . S
C1049 C1050 1.524 . S
C1050 C1049 1.524 . S
C1050 C1051 1.397 . S
C1050 C1055 1.363 . S
C1051 H1022 0.950 . S
C1051 C1050 1.397 . S
C1051 C1052 1.334 . S
C1052 H1023 0.950 . S
C1052 C1051 1.334 . S
C1052 C1053 1.287 . S
C1053 C1052 1.287 . S
C1053 C1054 1.524 . S
C1053 H1056 0.999 . S
C1054 H1024 0.950 1_545 S
C1054 C1053 1.524 . S
C1054 C1055 1.415 . S
C1055 H1025 0.950 . S
C1055 C1050 1.363 . S
C1055 C1054 1.415 . S
H1056 C1053 0.999 . S
H1057 C1038 0.913 . S
H1058 C1076 0.951 . S
H1059 C1078 0.951 . S
H1060 C1080 0.950 . S
H1061 C1081 0.950 . S
H1062 C1083 0.950 . S
H1063 C1086 0.950 . S
H1064 C1087 0.950 . S
H1065 C1089 0.950 1_655 S
H1066 C1090 0.950 . S
H1067 C1091 0.951 . S
H1068 C1093 0.951 . S
H1069 C1095 0.950 . S
H1070 C1096 0.950 . S
H1071 C1098 0.950 . S
H1072 C1101 0.950 . S
H1073 C1102 0.950 . S
H1074 C1104 0.950 . S
H1075 C1105 0.950 . S
C1076 H1058 0.951 . S
C1076 C1077 1.366 . S
C1076 C1078 1.388 . S
C1077 C1076 1.366 . S
C1077 C1081 1.385 . S
C1078 H1059 0.951 . S
C1078 C1076 1.388 . S
C1078 C1079 1.366 . S
C1079 C1078 1.366 . S
C1079 C1080 1.414 . S
C1079 C1082 1.499 . S
C1080 H1060 0.950 . S
C1080 C1079 1.414 . S
C1080 C1081 1.374 . S
C1081 H1061 0.950 . S
C1081 C1077 1.385 . S
C1081 C1080 1.374 . S
C1082 C1079 1.499 . S
C1082 C1083 1.373 . S
C1082 C1084 1.389 . S
C1083 H1062 0.950 . S
C1083 C1082 1.373 . S
C1083 C1099 1.377 . S
C1084 C1082 1.389 . S
C1084 C1085 1.524 . S
C1084 C1098 1.377 . S
C1085 C1084 1.524 . S
C1085 C1086 1.397 . S
C1085 C1090 1.363 . S
C1086 H1063 0.950 . S
C1086 C1085 1.397 . S
C1086 C1087 1.334 . S
C1087 H1064 0.950 . S
C1087 C1086 1.334 . S
C1087 C1088 1.287 1_455 S
C1088 C1087 1.287 1_655 S
C1088 C1089 1.524 1_655 S
C1088 H1107 0.913 . S
C1089 H1065 0.950 1_455 S
C1089 C1088 1.524 1_455 S
C1089 C1090 1.415 . S
C1090 H1066 0.950 . S
C1090 C1085 1.363 . S
C1090 C1089 1.415 . S
C1091 H1067 0.951 . S
C1091 C1092 1.366 . S
C1091 C1093 1.388 . S
C1092 C1091 1.366 . S
C1092 C1096 1.385 . S
C1093 H1068 0.951 . S
C1093 C1091 1.388 . S
C1093 C1094 1.366 . S
C1094 C1093 1.366 . S
C1094 C1095 1.414 . S
C1094 C1097 1.499 . S
C1095 H1069 0.950 . S
C1095 C1094 1.414 . S
C1095 C1096 1.374 . S
C1096 H1070 0.950 . S
C1096 C1092 1.385 . S
C1096 C1095 1.374 . S
C1097 C1094 1.499 . S
C1097 C1098 1.373 . S
C1097 C1099 1.389 . S
C1098 H1071 0.950 . S
C1098 C1084 1.377 . S
C1098 C1097 1.373 . S
C1099 C1083 1.377 . S
C1099 C1097 1.389 . S
C1099 C1100 1.524 . S
C1100 C1099 1.524 . S
C1100 C1101 1.397 . S
C1100 C1105 1.363 . S
C1101 H1072 0.950 . S
C1101 C1100 1.397 . S
C1101 C1102 1.334 . S
C1102 H1073 0.950 . S
C1102 C1101 1.334 . S
C1102 C1103 1.287 . S
C1103 C1102 1.287 . S
C1103 C1104 1.524 . S
C1103 H1106 0.999 . S
C1104 H1074 0.950 . S
C1104 C1103 1.524 . S
C1104 C1105 1.415 . S
C1105 H1075 0.950 . S
C1105 C1100 1.363 . S
C1105 C1104 1.415 . S
H1106 C1103 0.999 . S
H1107 C1088 0.913 . S
H1108 C1126 0.951 . S
H1109 C1128 0.951 . S
H1110 C1130 0.950 . S
H1111 C1131 0.950 . S
H1112 C1133 0.950 . S
H1113 C1136 0.950 . S
H1114 C1137 0.950 . S
H1115 C1139 0.950 . S
H1116 C1140 0.950 . S
H1117 C1141 0.951 . S
H1118 C1143 0.951 . S
H1119 C1145 0.950 . S
H1120 C1146 0.950 . S
H1121 C1148 0.950 . S
H1122 C1151 0.950 . S
H1123 C1152 0.950 1_565 S
H1124 C1154 0.950 1_565 S
H1125 C1155 0.950 . S
C1126 H1108 0.951 . S
C1126 C1127 1.366 . S
C1126 C1128 1.388 . S
C1127 C1126 1.366 . S
C1127 C1131 1.385 . S
C1128 H1109 0.951 . S
C1128 C1126 1.388 . S
C1128 C1129 1.366 . S
C1129 C1128 1.366 . S
C1129 C1130 1.414 . S
C1129 C1132 1.499 . S
C1130 H1110 0.950 . S
C1130 C1129 1.414 . S
C1130 C1131 1.374 . S
C1131 H1111 0.950 . S
C1131 C1127 1.385 . S
C1131 C1130 1.374 . S
C1132 C1129 1.499 . S
C1132 C1133 1.373 . S
C1132 C1134 1.389 . S
C1133 H1112 0.950 . S
C1133 C1132 1.373 . S
C1133 C1149 1.377 . S
C1134 C1132 1.389 . S
C1134 C1135 1.524 . S
C1134 C1148 1.377 . S
C1135 C1134 1.524 . S
C1135 C1136 1.397 . S
C1135 C1140 1.363 . S
C1136 H1113 0.950 . S
C1136 C1135 1.397 . S
C1136 C1137 1.334 . S
C1137 H1114 0.950 . S
C1137 C1136 1.334 . S
C1137 C1138 1.287 . S
C1138 C1137 1.287 . S
C1138 C1139 1.524 . S
C1138 H1157 0.913 . S
C1139 H1115 0.950 . S
C1139 C1138 1.524 . S
C1139 C1140 1.415 . S
C1140 H1116 0.950 . S
C1140 C1135 1.363 . S
C1140 C1139 1.415 . S
C1141 H1117 0.951 . S
C1141 C1142 1.366 . S
C1141 C1143 1.388 . S
C1142 C1141 1.366 . S
C1142 C1146 1.385 . S
C1143 H1118 0.951 . S
C1143 C1141 1.388 . S
C1143 C1144 1.366 . S
C1144 C1143 1.366 . S
C1144 C1145 1.414 . S
C1144 C1147 1.499 . S
C1145 H1119 0.950 . S
C1145 C1144 1.414 . S
C1145 C1146 1.374 . S
C1146 H1120 0.950 . S
C1146 C1142 1.385 . S
C1146 C1145 1.374 . S
C1147 C1144 1.499 . S
C1147 C1148 1.373 . S
C1147 C1149 1.389 . S
C1148 H1121 0.950 . S
C1148 C1134 1.377 . S
C1148 C1147 1.373 . S
C1149 C1133 1.377 . S
C1149 C1147 1.389 . S
C1149 C1150 1.524 . S
C1150 C1149 1.524 . S
C1150 C1151 1.397 . S
C1150 C1155 1.363 . S
C1151 H1122 0.950 . S
C1151 C1150 1.397 . S
C1151 C1152 1.334 . S
C1152 H1123 0.950 1_545 S
C1152 C1151 1.334 . S
C1152 C1153 1.287 1_545 S
C1153 C1152 1.287 1_565 S
C1153 C1154 1.524 1_565 S
C1153 H1156 0.999 . S
C1154 H1124 0.950 1_545 S
C1154 C1153 1.524 1_545 S
C1154 C1155 1.415 . S
C1155 H1125 0.950 . S
C1155 C1150 1.363 . S
C1155 C1154 1.415 . S
H1156 C1153 0.999 . S
H1157 C1138 0.913 . S
H1158 C1176 0.951 . S
H1159 C1178 0.951 . S
H1160 C1180 0.950 . S
H1161 C1181 0.950 . S
H1162 C1183 0.950 . S
H1163 C1186 0.950 . S
H1164 C1187 0.950 . S
H1165 C1189 0.950 . S
H1166 C1190 0.950 . S
H1167 C1191 0.951 . S
H1168 C1193 0.951 . S
H1169 C1195 0.950 . S
H1170 C1196 0.950 . S
H1171 C1198 0.950 . S
H1172 C1201 0.950 . S
H1173 C1202 0.950 . S
H1174 C1204 0.950 . S
H1175 C1205 0.950 . S
C1176 H1158 0.951 . S
C1176 C1177 1.366 . S
C1176 C1178 1.388 . S
C1177 C1176 1.366 . S
C1177 C1181 1.385 . S
C1178 H1159 0.951 . S
C1178 C1176 1.388 . S
C1178 C1179 1.366 . S
C1179 C1178 1.366 . S
C1179 C1180 1.414 . S
C1179 C1182 1.499 . S
C1180 H1160 0.950 . S
C1180 C1179 1.414 . S
C1180 C1181 1.374 . S
C1181 H1161 0.950 . S
C1181 C1177 1.385 . S
C1181 C1180 1.374 . S
C1182 C1179 1.499 . S
C1182 C1183 1.373 . S
C1182 C1184 1.389 . S
C1183 H1162 0.950 . S
C1183 C1182 1.373 . S
C1183 C1199 1.377 . S
C1184 C1182 1.389 . S
C1184 C1185 1.524 . S
C1184 C1198 1.377 . S
C1185 C1184 1.524 . S
C1185 C1186 1.397 . S
C1185 C1190 1.363 . S
C1186 H1163 0.950 . S
C1186 C1185 1.397 . S
C1186 C1187 1.334 . S
C1187 H1164 0.950 . S
C1187 C1186 1.334 . S
C1187 C1188 1.287 . S
C1188 C1187 1.287 . S
C1188 C1189 1.524 . S
C1188 H1207 0.913 . S
C1189 H1165 0.950 . S
C1189 C1188 1.524 . S
C1189 C1190 1.415 . S
C1190 H1166 0.950 . S
C1190 C1185 1.363 . S
C1190 C1189 1.415 . S
C1191 H1167 0.951 . S
C1191 C1192 1.366 . S
C1191 C1193 1.388 . S
C1192 C1191 1.366 . S
C1192 C1196 1.385 . S
C1193 H1168 0.951 . S
C1193 C1191 1.388 . S
C1193 C1194 1.366 . S
C1194 C1193 1.366 . S
C1194 C1195 1.414 . S
C1194 C1197 1.499 . S
C1195 H1169 0.950 . S
C1195 C1194 1.414 . S
C1195 C1196 1.374 . S
C1196 H1170 0.950 . S
C1196 C1192 1.385 . S
C1196 C1195 1.374 . S
C1197 C1194 1.499 . S
C1197 C1198 1.373 . S
C1197 C1199 1.389 . S
C1198 H1171 0.950 . S
C1198 C1184 1.377 . S
C1198 C1197 1.373 . S
C1199 C1183 1.377 . S
C1199 C1197 1.389 . S
C1199 C1200 1.524 . S
C1200 C1199 1.524 . S
C1200 C1201 1.397 . S
C1200 C1205 1.363 . S
C1201 H1172 0.950 . S
C1201 C1200 1.397 . S
C1201 C1202 1.334 . S
C1202 H1173 0.950 . S
C1202 C1201 1.334 . S
C1202 C1203 1.287 . S
C1203 C1202 1.287 . S
C1203 C1204 1.524 . S
C1203 H1206 0.999 . S
C1204 H1174 0.950 . S
C1204 C1203 1.524 . S
C1204 C1205 1.415 . S
C1205 H1175 0.950 . S
C1205 C1200 1.363 . S
C1205 C1204 1.415 . S
H1206 C1203 0.999 . S
H1207 C1188 0.913 . S
H1208 C1226 0.951 . S
H1209 C1228 0.951 . S
H1210 C1230 0.950 . S
H1211 C1231 0.950 . S
H1212 C1233 0.950 . S
H1213 C1236 0.950 . S
H1214 C1237 0.950 . S
H1215 C1239 0.950 . S
H1216 C1240 0.950 . S
H1217 C1241 0.951 . S
H1218 C1243 0.951 . S
H1219 C1245 0.950 . S
H1220 C1246 0.950 . S
H1221 C1248 0.950 . S
H1222 C1251 0.950 . S
H1223 C1252 0.950 . S
H1224 C1254 0.950 . S
H1225 C1255 0.950 . S
C1226 H1208 0.951 . S
C1226 C1227 1.366 . S
C1226 C1228 1.388 . S
C1227 C1226 1.366 . S
C1227 C1231 1.385 . S
C1228 H1209 0.951 . S
C1228 C1226 1.388 . S
C1228 C1229 1.366 . S
C1229 C1228 1.366 . S
C1229 C1230 1.414 . S
C1229 C1232 1.499 . S
C1230 H1210 0.950 . S
C1230 C1229 1.414 . S
C1230 C1231 1.374 . S
C1231 H1211 0.950 . S
C1231 C1227 1.385 . S
C1231 C1230 1.374 . S
C1232 C1229 1.499 . S
C1232 C1233 1.373 . S
C1232 C1234 1.389 . S
C1233 H1212 0.950 . S
C1233 C1232 1.373 . S
C1233 C1249 1.377 . S
C1234 C1232 1.389 . S
C1234 C1235 1.524 . S
C1234 C1248 1.377 . S
C1235 C1234 1.524 . S
C1235 C1236 1.397 . S
C1235 C1240 1.363 . S
C1236 H1213 0.950 . S
C1236 C1235 1.397 . S
C1236 C1237 1.334 . S
C1237 H1214 0.950 . S
C1237 C1236 1.334 . S
C1237 C1238 1.287 . S
C1238 C1237 1.287 . S
C1238 C1239 1.524 . S
C1238 H1257 0.913 . S
C1239 H1215 0.950 . S
C1239 C1238 1.524 . S
C1239 C1240 1.415 . S
C1240 H1216 0.950 . S
C1240 C1235 1.363 . S
C1240 C1239 1.415 . S
C1241 H1217 0.951 . S
C1241 C1242 1.366 . S
C1241 C1243 1.388 . S
C1242 C1241 1.366 . S
C1242 C1246 1.385 . S
C1243 H1218 0.951 . S
C1243 C1241 1.388 . S
C1243 C1244 1.366 . S
C1244 C1243 1.366 . S
C1244 C1245 1.414 . S
C1244 C1247 1.499 . S
C1245 H1219 0.950 . S
C1245 C1244 1.414 . S
C1245 C1246 1.374 . S
C1246 H1220 0.950 . S
C1246 C1242 1.385 . S
C1246 C1245 1.374 . S
C1247 C1244 1.499 . S
C1247 C1248 1.373 . S
C1247 C1249 1.389 . S
C1248 H1221 0.950 . S
C1248 C1234 1.377 . S
C1248 C1247 1.373 . S
C1249 C1233 1.377 . S
C1249 C1247 1.389 . S
C1249 C1250 1.524 . S
C1250 C1249 1.524 . S
C1250 C1251 1.397 . S
C1250 C1255 1.363 . S
C1251 H1222 0.950 . S
C1251 C1250 1.397 . S
C1251 C1252 1.334 . S
C1252 H1223 0.950 . S
C1252 C1251 1.334 . S
C1252 C1253 1.287 . S
C1253 C1252 1.287 . S
C1253 C1254 1.524 . S
C1253 H1256 0.999 . S
C1254 H1224 0.950 . S
C1254 C1253 1.524 . S
C1254 C1255 1.415 . S
C1255 H1225 0.950 . S
C1255 C1250 1.363 . S
C1255 C1254 1.415 . S
H1256 C1253 0.999 . S
H1257 C1238 0.913 . S
H1258 C1276 0.951 . S
H1259 C1278 0.951 . S
H1260 C1280 0.950 . S
H1261 C1281 0.950 . S
H1262 C1283 0.950 . S
H1263 C1286 0.950 . S
H1264 C1287 0.950 . S
H1265 C1289 0.950 . S
H1266 C1290 0.950 . S
H1267 C1291 0.951 . S
H1268 C1293 0.951 . S
H1269 C1295 0.950 . S
H1270 C1296 0.950 . S
H1271 C1298 0.950 . S
H1272 C1301 0.950 . S
H1273 C1302 0.950 . S
H1274 C1304 0.950 . S
H1275 C1305 0.950 . S
C1276 H1258 0.951 . S
C1276 C1277 1.366 . S
C1276 C1278 1.388 . S
C1277 C1276 1.366 . S
C1277 C1281 1.385 . S
C1278 H1259 0.951 . S
C1278 C1276 1.388 . S
C1278 C1279 1.366 . S
C1279 C1278 1.366 . S
C1279 C1280 1.414 . S
C1279 C1282 1.499 . S
C1280 H1260 0.950 . S
C1280 C1279 1.414 . S
C1280 C1281 1.374 . S
C1281 H1261 0.950 . S
C1281 C1277 1.385 . S
C1281 C1280 1.374 . S
C1282 C1279 1.499 . S
C1282 C1283 1.373 . S
C1282 C1284 1.389 . S
C1283 H1262 0.950 . S
C1283 C1282 1.373 . S
C1283 C1299 1.377 . S
C1284 C1282 1.389 . S
C1284 C1285 1.524 . S
C1284 C1298 1.377 . S
C1285 C1284 1.524 . S
C1285 C1286 1.397 . S
C1285 C1290 1.363 . S
C1286 H1263 0.950 . S
C1286 C1285 1.397 . S
C1286 C1287 1.334 . S
C1287 H1264 0.950 . S
C1287 C1286 1.334 . S
C1287 C1288 1.287 . S
C1288 C1287 1.287 . S
C1288 C1289 1.524 . S
C1288 H1307 0.913 . S
C1289 H1265 0.950 . S
C1289 C1288 1.524 . S
C1289 C1290 1.415 . S
C1290 H1266 0.950 . S
C1290 C1285 1.363 . S
C1290 C1289 1.415 . S
C1291 H1267 0.951 . S
C1291 C1292 1.366 . S
C1291 C1293 1.388 . S
C1292 C1291 1.366 . S
C1292 C1296 1.385 . S
C1293 H1268 0.951 . S
C1293 C1291 1.388 . S
C1293 C1294 1.366 . S
C1294 C1293 1.366 . S
C1294 C1295 1.414 . S
C1294 C1297 1.499 . S
C1295 H1269 0.950 . S
C1295 C1294 1.414 . S
C1295 C1296 1.374 . S
C1296 H1270 0.950 . S
C1296 C1292 1.385 . S
C1296 C1295 1.374 . S
C1297 C1294 1.499 . S
C1297 C1298 1.373 . S
C1297 C1299 1.389 . S
C1298 H1271 0.950 . S
C1298 C1284 1.377 . S
C1298 C1297 1.373 . S
C1299 C1283 1.377 . S
C1299 C1297 1.389 . S
C1299 C1300 1.524 . S
C1300 C1299 1.524 . S
C1300 C1301 1.397 . S
C1300 C1305 1.363 . S
C1301 H1272 0.950 . S
C1301 C1300 1.397 . S
C1301 C1302 1.334 . S
C1302 H1273 0.950 . S
C1302 C1301 1.334 . S
C1302 C1303 1.287 . S
C1303 C1302 1.287 . S
C1303 C1304 1.524 . S
C1303 H1306 0.999 . S
C1304 H1274 0.950 . S
C1304 C1303 1.524 . S
C1304 C1305 1.415 . S
C1305 H1275 0.950 . S
C1305 C1300 1.363 . S
C1305 C1304 1.415 . S
H1306 C1303 0.999 . S
H1307 C1288 0.913 . S
H1308 C1326 0.951 . S
H1309 C1328 0.951 . S
H1310 C1330 0.950 . S
H1311 C1331 0.950 . S
H1312 C1333 0.950 . S
H1313 C1336 0.950 . S
H1314 C1337 0.950 . S
H1315 C1339 0.950 . S
H1316 C1340 0.950 . S
H1317 C1341 0.951 . S
H1318 C1343 0.951 . S
H1319 C1345 0.950 . S
H1320 C1346 0.950 . S
H1321 C1348 0.950 . S
H1322 C1351 0.950 . S
H1323 C1352 0.950 . S
H1324 C1354 0.950 . S
H1325 C1355 0.950 . S
C1326 H1308 0.951 . S
C1326 C1327 1.366 . S
C1326 C1328 1.388 . S
C1327 C1326 1.366 . S
C1327 C1331 1.385 . S
C1328 H1309 0.951 . S
C1328 C1326 1.388 . S
C1328 C1329 1.366 . S
C1329 C1328 1.366 . S
C1329 C1330 1.414 . S
C1329 C1332 1.499 . S
C1330 H1310 0.950 . S
C1330 C1329 1.414 . S
C1330 C1331 1.374 . S
C1331 H1311 0.950 . S
C1331 C1327 1.385 . S
C1331 C1330 1.374 . S
C1332 C1329 1.499 . S
C1332 C1333 1.373 . S
C1332 C1334 1.389 . S
C1333 H1312 0.950 . S
C1333 C1332 1.373 . S
C1333 C1349 1.377 . S
C1334 C1332 1.389 . S
C1334 C1335 1.524 . S
C1334 C1348 1.377 . S
C1335 C1334 1.524 . S
C1335 C1336 1.397 . S
C1335 C1340 1.363 . S
C1336 H1313 0.950 . S
C1336 C1335 1.397 . S
C1336 C1337 1.334 . S
C1337 H1314 0.950 . S
C1337 C1336 1.334 . S
C1337 C1338 1.287 . S
C1338 C1337 1.287 . S
C1338 C1339 1.524 . S
C1338 H1357 0.913 . S
C1339 H1315 0.950 . S
C1339 C1338 1.524 . S
C1339 C1340 1.415 . S
C1340 H1316 0.950 . S
C1340 C1335 1.363 . S
C1340 C1339 1.415 . S
C1341 H1317 0.951 . S
C1341 C1342 1.366 . S
C1341 C1343 1.388 . S
C1342 C1341 1.366 . S
C1342 C1346 1.385 . S
C1343 H1318 0.951 . S
C1343 C1341 1.388 . S
C1343 C1344 1.366 . S
C1344 C1343 1.366 . S
C1344 C1345 1.414 . S
C1344 C1347 1.499 . S
C1345 H1319 0.950 . S
C1345 C1344 1.414 . S
C1345 C1346 1.374 . S
C1346 H1320 0.950 . S
C1346 C1342 1.385 . S
C1346 C1345 1.374 . S
C1347 C1344 1.499 . S
C1347 C1348 1.373 . S
C1347 C1349 1.389 . S
C1348 H1321 0.950 . S
C1348 C1334 1.377 . S
C1348 C1347 1.373 . S
C1349 C1333 1.377 . S
C1349 C1347 1.389 . S
C1349 C1350 1.524 . S
C1350 C1349 1.524 . S
C1350 C1351 1.397 . S
C1350 C1355 1.363 . S
C1351 H1322 0.950 . S
C1351 C1350 1.397 . S
C1351 C1352 1.334 . S
C1352 H1323 0.950 . S
C1352 C1351 1.334 . S
C1352 C1353 1.287 . S
C1353 C1352 1.287 . S
C1353 C1354 1.524 . S
C1353 H1356 0.999 . S
C1354 H1324 0.950 . S
C1354 C1353 1.524 . S
C1354 C1355 1.415 . S
C1355 H1325 0.950 . S
C1355 C1350 1.363 . S
C1355 C1354 1.415 . S
H1356 C1353 0.999 . S
H1357 C1338 0.913 . S
H1358 C1376 0.951 . S
H1359 C1378 0.951 . S
H1360 C1380 0.950 . S
H1361 C1381 0.950 . S
H1362 C1383 0.950 . S
H1363 C1386 0.950 . S
H1364 C1387 0.950 . S
H1365 C1389 0.950 . S
H1366 C1390 0.950 . S
H1367 C1391 0.951 . S
H1368 C1393 0.951 . S
H1369 C1395 0.950 . S
H1370 C1396 0.950 . S
H1371 C1398 0.950 . S
H1372 C1401 0.950 . S
H1373 C1402 0.950 . S
H1374 C1404 0.950 . S
H1375 C1405 0.950 . S
C1376 H1358 0.951 . S
C1376 C1377 1.366 . S
C1376 C1378 1.388 . S
C1377 C1376 1.366 . S
C1377 C1381 1.385 . S
C1378 H1359 0.951 . S
C1378 C1376 1.388 . S
C1378 C1379 1.366 . S
C1379 C1378 1.366 . S
C1379 C1380 1.414 . S
C1379 C1382 1.499 . S
C1380 H1360 0.950 . S
C1380 C1379 1.414 . S
C1380 C1381 1.374 . S
C1381 H1361 0.950 . S
C1381 C1377 1.385 . S
C1381 C1380 1.374 . S
C1382 C1379 1.499 . S
C1382 C1383 1.373 . S
C1382 C1384 1.389 1_455 S
C1383 H1362 0.950 . S
C1383 C1382 1.373 . S
C1383 C1399 1.377 . S
C1384 C1382 1.389 1_655 S
C1384 C1385 1.524 . S
C1384 C1398 1.377 . S
C1385 C1384 1.524 . S
C1385 C1386 1.397 . S
C1385 C1390 1.363 . S
C1386 H1363 0.950 . S
C1386 C1385 1.397 . S
C1386 C1387 1.334 . S
C1387 H1364 0.950 . S
C1387 C1386 1.334 . S
C1387 C1388 1.287 . S
C1388 C1387 1.287 . S
C1388 C1389 1.524 . S
C1388 H1407 0.913 . S
C1389 H1365 0.950 . S
C1389 C1388 1.524 . S
C1389 C1390 1.415 . S
C1390 H1366 0.950 . S
C1390 C1385 1.363 . S
C1390 C1389 1.415 . S
C1391 H1367 0.951 . S
C1391 C1392 1.366 . S
C1391 C1393 1.388 . S
C1392 C1391 1.366 . S
C1392 C1396 1.385 . S
C1393 H1368 0.951 . S
C1393 C1391 1.388 . S
C1393 C1394 1.366 . S
C1394 C1393 1.366 . S
C1394 C1395 1.414 . S
C1394 C1397 1.499 . S
C1395 H1369 0.950 . S
C1395 C1394 1.414 . S
C1395 C1396 1.374 . S
C1396 H1370 0.950 . S
C1396 C1392 1.385 . S
C1396 C1395 1.374 . S
C1397 C1394 1.499 . S
C1397 C1398 1.373 . S
C1397 C1399 1.389 1_655 S
C1398 H1371 0.950 . S
C1398 C1384 1.377 . S
C1398 C1397 1.373 . S
C1399 C1383 1.377 . S
C1399 C1397 1.389 1_455 S
C1399 C1400 1.524 . S
C1400 C1399 1.524 . S
C1400 C1401 1.397 . S
C1400 C1405 1.363 . S
C1401 H1372 0.950 . S
C1401 C1400 1.397 . S
C1401 C1402 1.334 . S
C1402 H1373 0.950 . S
C1402 C1401 1.334 . S
C1402 C1403 1.287 . S
C1403 C1402 1.287 . S
C1403 C1404 1.524 . S
C1403 H1406 0.999 . S
C1404 H1374 0.950 . S
C1404 C1403 1.524 . S
C1404 C1405 1.415 . S
C1405 H1375 0.950 . S
C1405 C1400 1.363 . S
C1405 C1404 1.415 . S
H1406 C1403 0.999 . S
H1407 C1388 0.913 . S
H1408 C1426 0.951 . S
H1409 C1428 0.951 . S
H1410 C1430 0.950 1_545 S
H1411 C1431 0.950 . S
H1412 C1433 0.950 . S
H1413 C1436 0.950 . S
H1414 C1437 0.950 . S
H1415 C1439 0.950 . S
H1416 C1440 0.950 . S
H1417 C1441 0.951 . S
H1418 C1443 0.951 . S
H1419 C1445 0.950 1_565 S
H1420 C1446 0.950 . S
H1421 C1448 0.950 . S
H1422 C1451 0.950 . S
H1423 C1452 0.950 . S
H1424 C1454 0.950 . S
H1425 C1455 0.950 . S
C1426 H1408 0.951 . S
C1426 C1427 1.366 . S
C1426 C1428 1.388 . S
C1427 C1426 1.366 . S
C1427 C1431 1.385 . S
C1428 H1409 0.951 . S
C1428 C1426 1.388 . S
C1428 C1429 1.366 . S
C1429 C1428 1.366 . S
C1429 C1430 1.414 . S
C1429 C1432 1.499 . S
C1430 H1410 0.950 1_565 S
C1430 C1429 1.414 . S
C1430 C1431 1.374 . S
C1431 H1411 0.950 . S
C1431 C1427 1.385 . S
C1431 C1430 1.374 . S
C1432 C1429 1.499 . S
C1432 C1433 1.373 1_565 S
C1432 C1434 1.389 . S
C1433 H1412 0.950 . S
C1433 C1432 1.373 1_545 S
C1433 C1449 1.377 . S
C1434 C1432 1.389 . S
C1434 C1435 1.524 . S
C1434 C1448 1.377 . S
C1435 C1434 1.524 . S
C1435 C1436 1.397 . S
C1435 C1440 1.363 . S
C1436 H1413 0.950 . S
C1436 C1435 1.397 . S
C1436 C1437 1.334 . S
C1437 H1414 0.950 . S
C1437 C1436 1.334 . S
C1437 C1438 1.287 . S
C1438 C1437 1.287 . S
C1438 C1439 1.524 . S
C1438 H1457 0.913 . S
C1439 H1415 0.950 . S
C1439 C1438 1.524 . S
C1439 C1440 1.415 . S
C1440 H1416 0.950 . S
C1440 C1435 1.363 . S
C1440 C1439 1.415 . S
C1441 H1417 0.951 . S
C1441 C1442 1.366 . S
C1441 C1443 1.388 . S
C1442 C1441 1.366 . S
C1442 C1446 1.385 . S
C1443 H1418 0.951 . S
C1443 C1441 1.388 . S
C1443 C1444 1.366 . S
C1444 C1443 1.366 . S
C1444 C1445 1.414 . S
C1444 C1447 1.499 . S
C1445 H1419 0.950 1_545 S
C1445 C1444 1.414 . S
C1445 C1446 1.374 . S
C1446 H1420 0.950 . S
C1446 C1442 1.385 . S
C1446 C1445 1.374 . S
C1447 C1444 1.499 . S
C1447 C1448 1.373 1_545 S
C1447 C1449 1.389 . S
C1448 H1421 0.950 . S
C1448 C1434 1.377 . S
C1448 C1447 1.373 1_565 S
C1449 C1433 1.377 . S
C1449 C1447 1.389 . S
C1449 C1450 1.524 . S
C1450 C1449 1.524 . S
C1450 C1451 1.397 . S
C1450 C1455 1.363 . S
C1451 H1422 0.950 . S
C1451 C1450 1.397 . S
C1451 C1452 1.334 . S
C1452 H1423 0.950 . S
C1452 C1451 1.334 . S
C1452 C1453 1.287 . S
C1453 C1452 1.287 . S
C1453 C1454 1.524 . S
C1453 H1456 0.999 . S
C1454 H1424 0.950 . S
C1454 C1453 1.524 . S
C1454 C1455 1.415 . S
C1455 H1425 0.950 . S
C1455 C1450 1.363 . S
C1455 C1454 1.415 . S
H1456 C1453 0.999 . S
H1457 C1438 0.913 . S
H1458 C1476 0.951 . S
H1459 C1478 0.951 . S
H1460 C1480 0.950 . S
H1461 C1481 0.950 . S
H1462 C1483 0.950 . S
H1463 C1486 0.950 . S
H1464 C1487 0.950 . S
H1465 C1489 0.950 . S
H1466 C1490 0.950 . S
H1467 C1491 0.951 . S
H1468 C1493 0.951 . S
H1469 C1495 0.950 . S
H1470 C1496 0.950 . S
H1471 C1498 0.950 . S
H1472 C1501 0.950 . S
H1473 C1502 0.950 . S
H1474 C1504 0.950 . S
H1475 C1505 0.950 . S
C1476 H1458 0.951 . S
C1476 C1477 1.366 . S
C1476 C1478 1.388 . S
C1477 C1476 1.366 . S
C1477 C1481 1.385 . S
C1478 H1459 0.951 . S
C1478 C1476 1.388 . S
C1478 C1479 1.366 . S
C1479 C1478 1.366 . S
C1479 C1480 1.414 . S
C1479 C1482 1.499 . S
C1480 H1460 0.950 . S
C1480 C1479 1.414 . S
C1480 C1481 1.374 . S
C1481 H1461 0.950 . S
C1481 C1477 1.385 . S
C1481 C1480 1.374 . S
C1482 C1479 1.499 . S
C1482 C1483 1.373 . S
C1482 C1484 1.389 . S
C1483 H1462 0.950 . S
C1483 C1482 1.373 . S
C1483 C1499 1.377 . S
C1484 C1482 1.389 . S
C1484 C1485 1.524 . S
C1484 C1498 1.377 . S
C1485 C1484 1.524 . S
C1485 C1486 1.397 . S
C1485 C1490 1.363 . S
C1486 H1463 0.950 . S
C1486 C1485 1.397 . S
C1486 C1487 1.334 . S
C1487 H1464 0.950 . S
C1487 C1486 1.334 . S
C1487 C1488 1.287 . S
C1488 C1487 1.287 . S
C1488 C1489 1.524 . S
C1488 H1507 0.913 . S
C1489 H1465 0.950 . S
C1489 C1488 1.524 . S
C1489 C1490 1.415 . S
C1490 H1466 0.950 . S
C1490 C1485 1.363 . S
C1490 C1489 1.415 . S
C1491 H1467 0.951 . S
C1491 C1492 1.366 . S
C1491 C1493 1.388 . S
C1492 C1491 1.366 . S
C1492 C1496 1.385 . S
C1493 H1468 0.951 . S
C1493 C1491 1.388 . S
C1493 C1494 1.366 . S
C1494 C1493 1.366 . S
C1494 C1495 1.414 . S
C1494 C1497 1.499 . S
C1495 H1469 0.950 . S
C1495 C1494 1.414 . S
C1495 C1496 1.374 . S
C1496 H1470 0.950 . S
C1496 C1492 1.385 . S
C1496 C1495 1.374 . S
C1497 C1494 1.499 . S
C1497 C1498 1.373 . S
C1497 C1499 1.389 . S
C1498 H1471 0.950 . S
C1498 C1484 1.377 . S
C1498 C1497 1.373 . S
C1499 C1483 1.377 . S
C1499 C1497 1.389 . S
C1499 C1500 1.524 . S
C1500 C1499 1.524 . S
C1500 C1501 1.397 . S
C1500 C1505 1.363 . S
C1501 H1472 0.950 . S
C1501 C1500 1.397 . S
C1501 C1502 1.334 . S
C1502 H1473 0.950 . S
C1502 C1501 1.334 . S
C1502 C1503 1.287 . S
C1503 C1502 1.287 . S
C1503 C1504 1.524 . S
C1503 H1506 0.999 . S
C1504 H1474 0.950 . S
C1504 C1503 1.524 . S
C1504 C1505 1.415 . S
C1505 H1475 0.950 . S
C1505 C1500 1.363 . S
C1505 C1504 1.415 . S
H1506 C1503 0.999 . S
H1507 C1488 0.913 . S
H1508 C1526 0.951 . S
H1509 C1528 0.951 . S
H1510 C1530 0.950 . S
H1511 C1531 0.950 . S
H1512 C1533 0.950 . S
H1513 C1536 0.950 . S
H1514 C1537 0.950 . S
H1515 C1539 0.950 . S
H1516 C1540 0.950 . S
H1517 C1541 0.951 . S
H1518 C1543 0.951 . S
H1519 C1545 0.950 . S
H1520 C1546 0.950 . S
H1521 C1548 0.950 . S
H1522 C1551 0.950 . S
H1523 C1552 0.950 . S
H1524 C1554 0.950 . S
H1525 C1555 0.950 . S
C1526 H1508 0.951 . S
C1526 C1527 1.366 . S
C1526 C1528 1.388 . S
C1527 C1526 1.366 . S
C1527 C1531 1.385 . S
C1528 H1509 0.951 . S
C1528 C1526 1.388 . S
C1528 C1529 1.366 . S
C1529 C1528 1.366 . S
C1529 C1530 1.414 . S
C1529 C1532 1.499 . S
C1530 H1510 0.950 . S
C1530 C1529 1.414 . S
C1530 C1531 1.374 . S
C1531 H1511 0.950 . S
C1531 C1527 1.385 . S
C1531 C1530 1.374 . S
C1532 C1529 1.499 . S
C1532 C1533 1.373 . S
C1532 C1534 1.389 1_455 S
C1533 H1512 0.950 . S
C1533 C1532 1.373 . S
C1533 C1549 1.377 . S
C1534 C1532 1.389 1_655 S
C1534 C1535 1.524 . S
C1534 C1548 1.377 . S
C1535 C1534 1.524 . S
C1535 C1536 1.397 . S
C1535 C1540 1.363 . S
C1536 H1513 0.950 . S
C1536 C1535 1.397 . S
C1536 C1537 1.334 . S
C1537 H1514 0.950 . S
C1537 C1536 1.334 . S
C1537 C1538 1.287 . S
C1538 C1537 1.287 . S
C1538 C1539 1.524 . S
C1538 H1557 0.913 . S
C1539 H1515 0.950 . S
C1539 C1538 1.524 . S
C1539 C1540 1.415 . S
C1540 H1516 0.950 . S
C1540 C1535 1.363 . S
C1540 C1539 1.415 . S
C1541 H1517 0.951 . S
C1541 C1542 1.366 . S
C1541 C1543 1.388 . S
C1542 C1541 1.366 . S
C1542 C1546 1.385 . S
C1543 H1518 0.951 . S
C1543 C1541 1.388 . S
C1543 C1544 1.366 . S
C1544 C1543 1.366 . S
C1544 C1545 1.414 . S
C1544 C1547 1.499 . S
C1545 H1519 0.950 . S
C1545 C1544 1.414 . S
C1545 C1546 1.374 . S
C1546 H1520 0.950 . S
C1546 C1542 1.385 . S
C1546 C1545 1.374 . S
C1547 C1544 1.499 . S
C1547 C1548 1.373 . S
C1547 C1549 1.389 1_655 S
C1548 H1521 0.950 . S
C1548 C1534 1.377 . S
C1548 C1547 1.373 . S
C1549 C1533 1.377 . S
C1549 C1547 1.389 1_455 S
C1549 C1550 1.524 . S
C1550 C1549 1.524 . S
C1550 C1551 1.397 . S
C1550 C1555 1.363 . S
C1551 H1522 0.950 . S
C1551 C1550 1.397 . S
C1551 C1552 1.334 . S
C1552 H1523 0.950 . S
C1552 C1551 1.334 . S
C1552 C1553 1.287 . S
C1553 C1552 1.287 . S
C1553 C1554 1.524 . S
C1553 H1556 0.999 . S
C1554 H1524 0.950 . S
C1554 C1553 1.524 . S
C1554 C1555 1.415 . S
C1555 H1525 0.950 . S
C1555 C1550 1.363 . S
C1555 C1554 1.415 . S
H1556 C1553 0.999 . S
H1557 C1538 0.913 . S
H1558 C1576 0.951 . S
H1559 C1578 0.951 . S
H1560 C1580 0.950 1_545 S
H1561 C1581 0.950 . S
H1562 C1583 0.950 . S
H1563 C1586 0.950 . S
H1564 C1587 0.950 . S
H1565 C1589 0.950 . S
H1566 C1590 0.950 . S
H1567 C1591 0.951 . S
H1568 C1593 0.951 . S
H1569 C1595 0.950 1_565 S
H1570 C1596 0.950 . S
H1571 C1598 0.950 . S
H1572 C1601 0.950 . S
H1573 C1602 0.950 . S
H1574 C1604 0.950 . S
H1575 C1605 0.950 . S
C1576 H1558 0.951 . S
C1576 C1577 1.366 . S
C1576 C1578 1.388 . S
C1577 C1576 1.366 . S
C1577 C1581 1.385 . S
C1578 H1559 0.951 . S
C1578 C1576 1.388 . S
C1578 C1579 1.366 . S
C1579 C1578 1.366 . S
C1579 C1580 1.414 . S
C1579 C1582 1.499 . S
C1580 H1560 0.950 1_565 S
C1580 C1579 1.414 . S
C1580 C1581 1.374 . S
C1581 H1561 0.950 . S
C1581 C1577 1.385 . S
C1581 C1580 1.374 . S
C1582 C1579 1.499 . S
C1582 C1583 1.373 1_565 S
C1582 C1584 1.389 . S
C1583 H1562 0.950 . S
C1583 C1582 1.373 1_545 S
C1583 C1599 1.377 . S
C1584 C1582 1.389 . S
C1584 C1585 1.524 . S
C1584 C1598 1.377 . S
C1585 C1584 1.524 . S
C1585 C1586 1.397 . S
C1585 C1590 1.363 . S
C1586 H1563 0.950 . S
C1586 C1585 1.397 . S
C1586 C1587 1.334 . S
C1587 H1564 0.950 . S
C1587 C1586 1.334 . S
C1587 C1588 1.287 . S
C1588 C1587 1.287 . S
C1588 C1589 1.524 . S
C1588 H1607 0.913 . S
C1589 H1565 0.950 . S
C1589 C1588 1.524 . S
C1589 C1590 1.415 . S
C1590 H1566 0.950 . S
C1590 C1585 1.363 . S
C1590 C1589 1.415 . S
C1591 H1567 0.951 . S
C1591 C1592 1.366 . S
C1591 C1593 1.388 . S
C1592 C1591 1.366 . S
C1592 C1596 1.385 . S
C1593 H1568 0.951 . S
C1593 C1591 1.388 . S
C1593 C1594 1.366 . S
C1594 C1593 1.366 . S
C1594 C1595 1.414 . S
C1594 C1597 1.499 . S
C1595 H1569 0.950 1_545 S
C1595 C1594 1.414 . S
C1595 C1596 1.374 . S
C1596 H1570 0.950 . S
C1596 C1592 1.385 . S
C1596 C1595 1.374 . S
C1597 C1594 1.499 . S
C1597 C1598 1.373 1_545 S
C1597 C1599 1.389 . S
C1598 H1571 0.950 . S
C1598 C1584 1.377 . S
C1598 C1597 1.373 1_565 S
C1599 C1583 1.377 . S
C1599 C1597 1.389 . S
C1599 C1600 1.524 . S
C1600 C1599 1.524 . S
C1600 C1601 1.397 . S
C1600 C1605 1.363 . S
C1601 H1572 0.950 . S
C1601 C1600 1.397 . S
C1601 C1602 1.334 . S
C1602 H1573 0.950 . S
C1602 C1601 1.334 . S
C1602 C1603 1.287 . S
C1603 C1602 1.287 . S
C1603 C1604 1.524 . S
C1603 H1606 0.999 . S
C1604 H1574 0.950 . S
C1604 C1603 1.524 . S
C1604 C1605 1.415 . S
C1605 H1575 0.950 . S
C1605 C1600 1.363 . S
C1605 C1604 1.415 . S
H1606 C1603 0.999 . S
H1607 C1588 0.913 . S
H1608 C1626 0.951 . S
H1609 C1628 0.951 . S
H1610 C1630 0.950 . S
H1611 C1631 0.950 . S
H1612 C1633 0.950 . S
H1613 C1636 0.950 . S
H1614 C1637 0.950 . S
H1615 C1639 0.950 . S
H1616 C1640 0.950 . S
H1617 C1641 0.951 . S
H1618 C1643 0.951 . S
H1619 C1645 0.950 . S
H1620 C1646 0.950 . S
H1621 C1648 0.950 . S
H1622 C1651 0.950 . S
H1623 C1652 0.950 . S
H1624 C1654 0.950 . S
H1625 C1655 0.950 . S
C1626 H1608 0.951 . S
C1626 C1627 1.366 . S
C1626 C1628 1.388 . S
C1627 C1626 1.366 . S
C1627 C1631 1.385 . S
C1628 H1609 0.951 . S
C1628 C1626 1.388 . S
C1628 C1629 1.366 . S
C1629 C1628 1.366 . S
C1629 C1630 1.414 . S
C1629 C1632 1.499 . S
C1630 H1610 0.950 . S
C1630 C1629 1.414 . S
C1630 C1631 1.374 . S
C1631 H1611 0.950 . S
C1631 C1627 1.385 . S
C1631 C1630 1.374 . S
C1632 C1629 1.499 . S
C1632 C1633 1.373 1_545 S
C1632 C1634 1.389 . S
C1633 H1612 0.950 . S
C1633 C1632 1.373 1_565 S
C1633 C1649 1.377 1_455 S
C1634 C1632 1.389 . S
C1634 C1635 1.524 . S
C1634 C1648 1.377 1_455 S
C1635 C1634 1.524 . S
C1635 C1636 1.397 . S
C1635 C1640 1.363 . S
C1636 H1613 0.950 . S
C1636 C1635 1.397 . S
C1636 C1637 1.334 . S
C1637 H1614 0.950 . S
C1637 C1636 1.334 . S
C1637 C1638 1.287 . S
C1638 C1637 1.287 . S
C1638 C1639 1.524 . S
C1638 H1657 0.913 . S
C1639 H1615 0.950 . S
C1639 C1638 1.524 . S
C1639 C1640 1.415 . S
C1640 H1616 0.950 . S
C1640 C1635 1.363 . S
C1640 C1639 1.415 . S
C1641 H1617 0.951 . S
C1641 C1642 1.366 . S
C1641 C1643 1.388 . S
C1642 C1641 1.366 . S
C1642 C1646 1.385 . S
C1643 H1618 0.951 . S
C1643 C1641 1.388 . S
C1643 C1644 1.366 . S
C1644 C1643 1.366 . S
C1644 C1645 1.414 . S
C1644 C1647 1.499 . S
C1645 H1619 0.950 . S
C1645 C1644 1.414 . S
C1645 C1646 1.374 . S
C1646 H1620 0.950 . S
C1646 C1642 1.385 . S
C1646 C1645 1.374 . S
C1647 C1644 1.499 . S
C1647 C1648 1.373 1_565 S
C1647 C1649 1.389 . S
C1648 H1621 0.950 . S
C1648 C1634 1.377 1_655 S
C1648 C1647 1.373 1_545 S
C1649 C1633 1.377 1_655 S
C1649 C1647 1.389 . S
C1649 C1650 1.524 . S
C1650 C1649 1.524 . S
C1650 C1651 1.397 . S
C1650 C1655 1.363 . S
C1651 H1622 0.950 . S
C1651 C1650 1.397 . S
C1651 C1652 1.334 . S
C1652 H1623 0.950 . S
C1652 C1651 1.334 . S
C1652 C1653 1.287 . S
C1653 C1652 1.287 . S
C1653 C1654 1.524 . S
C1653 H1656 0.999 . S
C1654 H1624 0.950 . S
C1654 C1653 1.524 . S
C1654 C1655 1.415 . S
C1655 H1625 0.950 . S
C1655 C1650 1.363 . S
C1655 C1654 1.415 . S
H1656 C1653 0.999 . S
H1657 C1638 0.913 . S
H1658 C1676 0.951 . S
H1659 C1678 0.951 . S
H1660 C1680 0.950 . S
H1661 C1681 0.950 . S
H1662 C1683 0.950 . S
H1663 C1686 0.950 . S
H1664 C1687 0.950 . S
H1665 C1689 0.950 . S
H1666 C1690 0.950 . S
H1667 C1691 0.951 . S
H1668 C1693 0.951 . S
H1669 C1695 0.950 . S
H1670 C1696 0.950 . S
H1671 C1698 0.950 . S
H1672 C1701 0.950 . S
H1673 C1702 0.950 . S
H1674 C1704 0.950 . S
H1675 C1705 0.950 . S
C1676 H1658 0.951 . S
C1676 C1677 1.366 . S
C1676 C1678 1.388 . S
C1677 C1676 1.366 . S
C1677 C1681 1.385 . S
C1678 H1659 0.951 . S
C1678 C1676 1.388 . S
C1678 C1679 1.366 . S
C1679 C1678 1.366 . S
C1679 C1680 1.414 . S
C1679 C1682 1.499 . S
C1680 H1660 0.950 . S
C1680 C1679 1.414 . S
C1680 C1681 1.374 . S
C1681 H1661 0.950 . S
C1681 C1677 1.385 . S
C1681 C1680 1.374 . S
C1682 C1679 1.499 . S
C1682 C1683 1.373 1_455 S
C1682 C1684 1.389 . S
C1683 H1662 0.950 . S
C1683 C1682 1.373 1_655 S
C1683 C1699 1.377 1_545 S
C1684 C1682 1.389 . S
C1684 C1685 1.524 . S
C1684 C1698 1.377 1_545 S
C1685 C1684 1.524 . S
C1685 C1686 1.397 . S
C1685 C1690 1.363 . S
C1686 H1663 0.950 . S
C1686 C1685 1.397 . S
C1686 C1687 1.334 . S
C1687 H1664 0.950 . S
C1687 C1686 1.334 . S
C1687 C1688 1.287 . S
C1688 C1687 1.287 . S
C1688 C1689 1.524 . S
C1688 H1707 0.913 . S
C1689 H1665 0.950 . S
C1689 C1688 1.524 . S
C1689 C1690 1.415 . S
C1690 H1666 0.950 . S
C1690 C1685 1.363 . S
C1690 C1689 1.415 . S
C1691 H1667 0.951 . S
C1691 C1692 1.366 . S
C1691 C1693 1.388 . S
C1692 C1691 1.366 . S
C1692 C1696 1.385 . S
C1693 H1668 0.951 . S
C1693 C1691 1.388 . S
C1693 C1694 1.366 . S
C1694 C1693 1.366 . S
C1694 C1695 1.414 . S
C1694 C1697 1.499 . S
C1695 H1669 0.950 . S
C1695 C1694 1.414 . S
C1695 C1696 1.374 . S
C1696 H1670 0.950 . S
C1696 C1692 1.385 . S
C1696 C1695 1.374 . S
C1697 C1694 1.499 . S
C1697 C1698 1.373 1_655 S
C1697 C1699 1.389 . S
C1698 H1671 0.950 . S
C1698 C1684 1.377 1_565 S
C1698 C1697 1.373 1_455 S
C1699 C1683 1.377 1_565 S
C1699 C1697 1.389 . S
C1699 C1700 1.524 . S
C1700 C1699 1.524 . S
C1700 C1701 1.397 . S
C1700 C1705 1.363 . S
C1701 H1672 0.950 . S
C1701 C1700 1.397 . S
C1701 C1702 1.334 . S
C1702 H1673 0.950 . S
C1702 C1701 1.334 . S
C1702 C1703 1.287 . S
C1703 C1702 1.287 . S
C1703 C1704 1.524 . S
C1703 H1706 0.999 . S
C1704 H1674 0.950 . S
C1704 C1703 1.524 . S
C1704 C1705 1.415 . S
C1705 H1675 0.950 . S
C1705 C1700 1.363 . S
C1705 C1704 1.415 . S
H1706 C1703 0.999 . S
H1707 C1688 0.913 . S
H1708 C1726 0.951 . S
H1709 C1728 0.951 1_455 S
H1710 C1730 0.950 1_565 S
H1711 C1731 0.950 . S
H1712 C1733 0.950 . S
H1713 C1736 0.950 1_655 S
H1714 C1737 0.950 . S
H1715 C1739 0.950 . S
H1716 C1740 0.950 . S
H1717 C1741 0.951 . S
H1718 C1743 0.951 1_655 S
H1719 C1745 0.950 1_545 S
H1720 C1746 0.950 . S
H1721 C1748 0.950 . S
H1722 C1751 0.950 1_455 S
H1723 C1752 0.950 . S
H1724 C1754 0.950 . S
H1725 C1755 0.950 . S
C1726 H1708 0.951 . S
C1726 C1727 1.366 . S
C1726 C1728 1.388 . S
C1727 C1726 1.366 . S
C1727 C1731 1.385 . S
C1728 H1709 0.951 1_655 S
C1728 C1726 1.388 . S
C1728 C1729 1.366 . S
C1729 C1728 1.366 . S
C1729 C1730 1.414 . S
C1729 C1732 1.499 . S
C1730 H1710 0.950 1_545 S
C1730 C1729 1.414 . S
C1730 C1731 1.374 . S
C1731 H1711 0.950 . S
C1731 C1727 1.385 . S
C1731 C1730 1.374 . S
C1732 C1729 1.499 . S
C1732 C1733 1.373 1_545 S
C1732 C1734 1.389 1_655 S
C1733 H1712 0.950 . S
C1733 C1732 1.373 1_565 S
C1733 C1749 1.377 . S
C1734 C1732 1.389 1_455 S
C1734 C1735 1.524 . S
C1734 C1748 1.377 . S
C1735 C1734 1.524 . S
C1735 C1736 1.397 . S
C1735 C1740 1.363 . S
C1736 H1713 0.950 1_455 S
C1736 C1735 1.397 . S
C1736 C1737 1.334 . S
C1737 H1714 0.950 . S
C1737 C1736 1.334 . S
C1737 C1738 1.287 . S
C1738 C1737 1.287 . S
C1738 C1739 1.524 . S
C1738 H1757 0.913 . S
C1739 H1715 0.950 . S
C1739 C1738 1.524 . S
C1739 C1740 1.415 . S
C1740 H1716 0.950 . S
C1740 C1735 1.363 . S
C1740 C1739 1.415 . S
C1741 H1717 0.951 . S
C1741 C1742 1.366 . S
C1741 C1743 1.388 . S
C1742 C1741 1.366 . S
C1742 C1746 1.385 . S
C1743 H1718 0.951 1_455 S
C1743 C1741 1.388 . S
C1743 C1744 1.366 . S
C1744 C1743 1.366 . S
C1744 C1745 1.414 . S
C1744 C1747 1.499 . S
C1745 H1719 0.950 1_565 S
C1745 C1744 1.414 . S
C1745 C1746 1.374 . S
C1746 H1720 0.950 . S
C1746 C1742 1.385 . S
C1746 C1745 1.374 . S
C1747 C1744 1.499 . S
C1747 C1748 1.373 1_565 S
C1747 C1749 1.389 1_455 S
C1748 H1721 0.950 . S
C1748 C1734 1.377 . S
C1748 C1747 1.373 1_545 S
C1749 C1733 1.377 . S
C1749 C1747 1.389 1_655 S
C1749 C1750 1.524 . S
C1750 C1749 1.524 . S
C1750 C1751 1.397 . S
C1750 C1755 1.363 . S
C1751 H1722 0.950 1_655 S
C1751 C1750 1.397 . S
C1751 C1752 1.334 . S
C1752 H1723 0.950 . S
C1752 C1751 1.334 . S
C1752 C1753 1.287 . S
C1753 C1752 1.287 . S
C1753 C1754 1.524 . S
C1753 H1756 0.999 . S
C1754 H1724 0.950 . S
C1754 C1753 1.524 . S
C1754 C1755 1.415 . S
C1755 H1725 0.950 . S
C1755 C1750 1.363 . S
C1755 C1754 1.415 . S
H1756 C1753 0.999 . S
H1757 C1738 0.913 . S
H1758 C1776 0.951 . S
H1759 C1778 0.951 . S
H1760 C1780 0.950 . S
H1761 C1781 0.950 . S
H1762 C1783 0.950 . S
H1763 C1786 0.950 . S
H1764 C1787 0.950 . S
H1765 C1789 0.950 . S
H1766 C1790 0.950 . S
H1767 C1791 0.951 . S
H1768 C1793 0.951 . S
H1769 C1795 0.950 . S
H1770 C1796 0.950 . S
H1771 C1798 0.950 . S
H1772 C1801 0.950 . S
H1773 C1802 0.950 . S
H1774 C1804 0.950 . S
H1775 C1805 0.950 . S
C1776 H1758 0.951 . S
C1776 C1777 1.366 . S
C1776 C1778 1.388 . S
C1777 C1776 1.366 . S
C1777 C1781 1.385 . S
C1778 H1759 0.951 . S
C1778 C1776 1.388 . S
C1778 C1779 1.366 . S
C1779 C1778 1.366 . S
C1779 C1780 1.414 . S
C1779 C1782 1.499 . S
C1780 H1760 0.950 . S
C1780 C1779 1.414 . S
C1780 C1781 1.374 . S
C1781 H1761 0.950 . S
C1781 C1777 1.385 . S
C1781 C1780 1.374 . S
C1782 C1779 1.499 . S
C1782 C1783 1.373 . S
C1782 C1784 1.389 . S
C1783 H1762 0.950 . S
C1783 C1782 1.373 . S
C1783 C1799 1.377 1_665 S
C1784 C1782 1.389 . S
C1784 C1785 1.524 . S
C1784 C1798 1.377 1_665 S
C1785 C1784 1.524 . S
C1785 C1786 1.397 . S
C1785 C1790 1.363 1_655 S
C1786 H1763 0.950 . S
C1786 C1785 1.397 . S
C1786 C1787 1.334 . S
C1787 H1764 0.950 . S
C1787 C1786 1.334 . S
C1787 C1788 1.287 . S
C1788 C1787 1.287 . S
C1788 C1789 1.524 1_655 S
C1788 H1807 0.913 . S
C1789 H1765 0.950 . S
C1789 C1788 1.524 1_455 S
C1789 C1790 1.415 . S
C1790 H1766 0.950 . S
C1790 C1785 1.363 1_455 S
C1790 C1789 1.415 . S
C1791 H1767 0.951 . S
C1791 C1792 1.366 . S
C1791 C1793 1.388 . S
C1792 C1791 1.366 . S
C1792 C1796 1.385 . S
C1793 H1768 0.951 . S
C1793 C1791 1.388 . S
C1793 C1794 1.366 . S
C1794 C1793 1.366 . S
C1794 C1795 1.414 . S
C1794 C1797 1.499 . S
C1795 H1769 0.950 . S
C1795 C1794 1.414 . S
C1795 C1796 1.374 . S
C1796 H1770 0.950 . S
C1796 C1792 1.385 . S
C1796 C1795 1.374 . S
C1797 C1794 1.499 . S
C1797 C1798 1.373 . S
C1797 C1799 1.389 . S
C1798 H1771 0.950 . S
C1798 C1784 1.377 1_445 S
C1798 C1797 1.373 . S
C1799 C1783 1.377 1_445 S
C1799 C1797 1.389 . S
C1799 C1800 1.524 . S
C1800 C1799 1.524 . S
C1800 C1801 1.397 . S
C1800 C1805 1.363 1_455 S
C1801 H1772 0.950 . S
C1801 C1800 1.397 . S
C1801 C1802 1.334 . S
C1802 H1773 0.950 . S
C1802 C1801 1.334 . S
C1802 C1803 1.287 . S
C1803 C1802 1.287 . S
C1803 C1804 1.524 1_455 S
C1803 H1806 0.999 . S
C1804 H1774 0.950 . S
C1804 C1803 1.524 1_655 S
C1804 C1805 1.415 . S
C1805 H1775 0.950 . S
C1805 C1800 1.363 1_655 S
C1805 C1804 1.415 . S
H1806 C1803 0.999 . S
H1807 C1788 0.913 . S
H1808 C1826 0.951 . S
H1809 C1828 0.951 . S
H1810 C1830 0.950 1_455 S
H1811 C1831 0.950 . S
H1812 C1833 0.950 . S
H1813 C1836 0.950 1_545 S
H1814 C1837 0.950 . S
H1815 C1839 0.950 . S
H1816 C1840 0.950 . S
H1817 C1841 0.951 . S
H1818 C1843 0.951 . S
H1819 C1845 0.950 1_655 S
H1820 C1846 0.950 . S
H1821 C1848 0.950 . S
H1822 C1851 0.950 1_565 S
H1823 C1852 0.950 . S
H1824 C1854 0.950 . S
H1825 C1855 0.950 . S
C1826 H1808 0.951 . S
C1826 C1827 1.366 . S
C1826 C1828 1.388 . S
C1827 C1826 1.366 . S
C1827 C1831 1.385 . S
C1828 H1809 0.951 . S
C1828 C1826 1.388 . S
C1828 C1829 1.366 . S
C1829 C1828 1.366 . S
C1829 C1830 1.414 . S
C1829 C1832 1.499 . S
C1830 H1810 0.950 1_655 S
C1830 C1829 1.414 . S
C1830 C1831 1.374 . S
C1831 H1811 0.950 . S
C1831 C1827 1.385 . S
C1831 C1830 1.374 . S
C1832 C1829 1.499 . S
C1832 C1833 1.373 1_655 S
C1832 C1834 1.389 1_545 S
C1833 H1812 0.950 . S
C1833 C1832 1.373 1_455 S
C1833 C1849 1.377 . S
C1834 C1832 1.389 1_565 S
C1834 C1835 1.524 . S
C1834 C1848 1.377 . S
C1835 C1834 1.524 . S
C1835 C1836 1.397 . S
C1835 C1840 1.363 . S
C1836 H1813 0.950 1_565 S
C1836 C1835 1.397 . S
C1836 C1837 1.334 . S
C1837 H1814 0.950 . S
C1837 C1836 1.334 . S
C1837 C1838 1.287 . S
C1838 C1837 1.287 . S
C1838 C1839 1.524 . S
C1838 H1857 0.913 . S
C1839 H1815 0.950 . S
C1839 C1838 1.524 . S
C1839 C1840 1.415 . S
C1840 H1816 0.950 . S
C1840 C1835 1.363 . S
C1840 C1839 1.415 . S
C1841 H1817 0.951 . S
C1841 C1842 1.366 . S
C1841 C1843 1.388 . S
C1842 C1841 1.366 . S
C1842 C1846 1.385 . S
C1843 H1818 0.951 . S
C1843 C1841 1.388 . S
C1843 C1844 1.366 . S
C1844 C1843 1.366 . S
C1844 C1845 1.414 . S
C1844 C1847 1.499 . S
C1845 H1819 0.950 1_455 S
C1845 C1844 1.414 . S
C1845 C1846 1.374 . S
C1846 H1820 0.950 . S
C1846 C1842 1.385 . S
C1846 C1845 1.374 . S
C1847 C1844 1.499 . S
C1847 C1848 1.373 1_455 S
C1847 C1849 1.389 1_565 S
C1848 H1821 0.950 . S
C1848 C1834 1.377 . S
C1848 C1847 1.373 1_655 S
C1849 C1833 1.377 . S
C1849 C1847 1.389 1_545 S
C1849 C1850 1.524 . S
C1850 C1849 1.524 . S
C1850 C1851 1.397 . S
C1850 C1855 1.363 . S
C1851 H1822 0.950 1_545 S
C1851 C1850 1.397 . S
C1851 C1852 1.334 . S
C1852 H1823 0.950 . S
C1852 C1851 1.334 . S
C1852 C1853 1.287 . S
C1853 C1852 1.287 . S
C1853 C1854 1.524 . S
C1853 H1856 0.999 . S
C1854 H1824 0.950 . S
C1854 C1853 1.524 . S
C1854 C1855 1.415 . S
C1855 H1825 0.950 . S
C1855 C1850 1.363 . S
C1855 C1854 1.415 . S
H1856 C1853 0.999 . S
H1857 C1838 0.913 . S
H1858 C1876 0.951 . S
H1859 C1878 0.951 . S
H1860 C1880 0.950 1_565 S
H1861 C1881 0.950 . S
H1862 C1883 0.950 . S
H1863 C1886 0.950 . S
H1864 C1887 0.950 . S
H1865 C1889 0.950 . S
H1866 C1890 0.950 . S
H1867 C1891 0.951 . S
H1868 C1893 0.951 . S
H1869 C1895 0.950 1_545 S
H1870 C1896 0.950 . S
H1871 C1898 0.950 . S
H1872 C1901 0.950 . S
H1873 C1902 0.950 . S
H1874 C1904 0.950 . S
H1875 C1905 0.950 . S
C1876 H1858 0.951 . S
C1876 C1877 1.366 . S
C1876 C1878 1.388 . S
C1877 C1876 1.366 . S
C1877 C1881 1.385 . S
C1878 H1859 0.951 . S
C1878 C1876 1.388 . S
C1878 C1879 1.366 . S
C1879 C1878 1.366 . S
C1879 C1880 1.414 . S
C1879 C1882 1.499 . S
C1880 H1860 0.950 1_545 S
C1880 C1879 1.414 . S
C1880 C1881 1.374 . S
C1881 H1861 0.950 . S
C1881 C1877 1.385 . S
C1881 C1880 1.374 . S
C1882 C1879 1.499 . S
C1882 C1883 1.373 1_545 S
C1882 C1884 1.389 . S
C1883 H1862 0.950 . S
C1883 C1882 1.373 1_565 S
C1883 C1899 1.377 1_455 S
C1884 C1882 1.389 . S
C1884 C1885 1.524 . S
C1884 C1898 1.377 1_455 S
C1885 C1884 1.524 . S
C1885 C1886 1.397 . S
C1885 C1890 1.363 . S
C1886 H1863 0.950 . S
C1886 C1885 1.397 . S
C1886 C1887 1.334 . S
C1887 H1864 0.950 . S
C1887 C1886 1.334 . S
C1887 C1888 1.287 . S
C1888 C1887 1.287 . S
C1888 C1889 1.524 . S
C1888 H1907 0.913 . S
C1889 H1865 0.950 . S
C1889 C1888 1.524 . S
C1889 C1890 1.415 . S
C1890 H1866 0.950 . S
C1890 C1885 1.363 . S
C1890 C1889 1.415 . S
C1891 H1867 0.951 . S
C1891 C1892 1.366 . S
C1891 C1893 1.388 . S
C1892 C1891 1.366 . S
C1892 C1896 1.385 . S
C1893 H1868 0.951 . S
C1893 C1891 1.388 . S
C1893 C1894 1.366 . S
C1894 C1893 1.366 . S
C1894 C1895 1.414 . S
C1894 C1897 1.499 . S
C1895 H1869 0.950 1_565 S
C1895 C1894 1.414 . S
C1895 C1896 1.374 . S
C1896 H1870 0.950 . S
C1896 C1892 1.385 . S
C1896 C1895 1.374 . S
C1897 C1894 1.499 . S
C1897 C1898 1.373 1_565 S
C1897 C1899 1.389 . S
C1898 H1871 0.950 . S
C1898 C1884 1.377 1_655 S
C1898 C1897 1.373 1_545 S
C1899 C1883 1.377 1_655 S
C1899 C1897 1.389 . S
C1899 C1900 1.524 . S
C1900 C1899 1.524 . S
C1900 C1901 1.397 . S
C1900 C1905 1.363 . S
C1901 H1872 0.950 . S
C1901 C1900 1.397 . S
C1901 C1902 1.334 . S
C1902 H1873 0.950 . S
C1902 C1901 1.334 . S
C1902 C1903 1.287 . S
C1903 C1902 1.287 . S
C1903 C1904 1.524 . S
C1903 H1906 0.999 . S
C1904 H1874 0.950 . S
C1904 C1903 1.524 . S
C1904 C1905 1.415 . S
C1905 H1875 0.950 . S
C1905 C1900 1.363 . S
C1905 C1904 1.415 . S
H1906 C1903 0.999 . S
H1907 C1888 0.913 . S
C427 C9 1.463 . S
C442 C247 1.463 . S
C477 C43 1.463 . S
C492 C281 1.462 . S
C527 C77 1.462 . S
C542 C315 1.463 . S
C577 C349 1.462 . S
C592 C111 1.462 . S
C627 C383 1.463 . S
C642 C145 1.462 . S
C677 C179 1.463 . S
C692 C213 1.463 . S
C727 C122 0.304 . S
C742 C20 0.304 . S
C777 C54 0.305 . S
C792 C156 0.305 . S
C827 C190 0.305 . S
C842 C88 0.305 . S
C877 C326 0.303 . S
C892 C224 0.303 . S
C927 C360 0.303 . S
C942 C258 0.303 . S
C977 C292 0.305 . S
C992 C394 0.305 . S
C1027 C277 1.498 . S
C1042 C5 1.498 . S
C1077 C39 1.498 . S
C1092 C311 1.497 . S
C1127 C73 1.498 . S
C1142 C345 1.498 . S
C1177 C107 1.498 . S
C1192 C379 1.498 . S
C1227 C141 1.498 . S
C1242 C209 1.497 . S
C1277 C243 1.498 . S
C1292 C175 1.498 . S
C1327 C135 2.402 . S
C1342 C33 2.402 . S
C1377 C67 2.402 . S
C1392 C169 2.402 . S
C1427 C203 2.402 . S
C1442 C101 2.402 . S
C1477 C237 2.402 . S
C1492 C339 2.402 . S
C1527 C271 2.402 . S
C1542 C373 2.402 . S
C1577 C407 2.402 . S
C1592 C305 2.402 . S
C1627 C2 1.357 . S
C1642 C104 1.357 . S
C1677 C36 1.357 . S
C1692 C138 1.357 . S
C1727 C70 1.357 . S
C1742 C172 1.357 . S
C1777 C206 1.357 . S
C1792 C308 1.357 . S
C1827 C342 1.357 . S
C1842 C240 1.357 . S
C1877 C274 1.357 . S
C1892 C376 1.357 . S
