# Generated by pormake.
# Topology ske, (6)-cn, num edge types: 1
# Building blocks:
#     Node 0, Type 0, BuildingBlock: BETDAH_clean_sbu_0, # of connection points: 6
#     Node 1, Type 0, BuildingBlock: BETDAH_clean_sbu_0, # of connection points: 6
#     Node 2, Type 0, BuildingBlock: BETDAH_clean_sbu_0, # of connection points: 6
#     Node 3, Type 0, BuildingBlock: BETDAH_clean_sbu_0, # of connection points: 6
#     Node 4, Type 0, BuildingBlock: BETDAH_clean_sbu_0, # of connection points: 6
#     Node 5, Type 0, BuildingBlock: BETDAH_clean_sbu_0, # of connection points: 6
#     Node 6, Type 0, BuildingBlock: BETDAH_clean_sbu_0, # of connection points: 6
#     Node 7, Type 0, BuildingBlock: BETDAH_clean_sbu_0, # of connection points: 6
#     Edge 8, Type (0, 0), BuildingBlock: AJUNOK_clean_linker_0, # of connection points: 2
#     Edge 9, Type (0, 0), BuildingBlock: AJUNOK_clean_linker_0, # of connection points: 2
#     Edge 10, Type (0, 0), BuildingBlock: AJUNOK_clean_linker_0, # of connection points: 2
#     Edge 11, Type (0, 0), BuildingBlock: AJUNOK_clean_linker_0, # of connection points: 2
#     Edge 12, Type (0, 0), BuildingBlock: AJUNOK_clean_linker_0, # of connection points: 2
#     Edge 13, Type (0, 0), BuildingBlock: AJUNOK_clean_linker_0, # of connection points: 2
#     Edge 14, Type (0, 0), BuildingBlock: AJUNOK_clean_linker_0, # of connection points: 2
#     Edge 15, Type (0, 0), BuildingBlock: AJUNOK_clean_linker_0, # of connection points: 2
#     Edge 16, Type (0, 0), BuildingBlock: AJUNOK_clean_linker_0, # of connection points: 2
#     Edge 17, Type (0, 0), BuildingBlock: AJUNOK_clean_linker_0, # of connection points: 2
#     Edge 18, Type (0, 0), BuildingBlock: AJUNOK_clean_linker_0, # of connection points: 2
#     Edge 19, Type (0, 0), BuildingBlock: AJUNOK_clean_linker_0, # of connection points: 2
#     Edge 20, Type (0, 0), BuildingBlock: AJUNOK_clean_linker_0, # of connection points: 2
#     Edge 21, Type (0, 0), BuildingBlock: AJUNOK_clean_linker_0, # of connection points: 2
#     Edge 22, Type (0, 0), BuildingBlock: AJUNOK_clean_linker_0, # of connection points: 2
#     Edge 23, Type (0, 0), BuildingBlock: AJUNOK_clean_linker_0, # of connection points: 2
#     Edge 24, Type (0, 0), BuildingBlock: AJUNOK_clean_linker_0, # of connection points: 2
#     Edge 25, Type (0, 0), BuildingBlock: AJUNOK_clean_linker_0, # of connection points: 2
#     Edge 26, Type (0, 0), BuildingBlock: AJUNOK_clean_linker_0, # of connection points: 2
#     Edge 27, Type (0, 0), BuildingBlock: AJUNOK_clean_linker_0, # of connection points: 2
#     Edge 28, Type (0, 0), BuildingBlock: AJUNOK_clean_linker_0, # of connection points: 2
#     Edge 29, Type (0, 0), BuildingBlock: AJUNOK_clean_linker_0, # of connection points: 2
#     Edge 30, Type (0, 0), BuildingBlock: AJUNOK_clean_linker_0, # of connection points: 2
#     Edge 31, Type (0, 0), BuildingBlock: AJUNOK_clean_linker_0, # of connection points: 2
# Relax obj value: 0.204
# Max RMSD: 0.215
# Mean RMSD: 0.208
data_MOF--net-ske--node1-BETDAH_clean_sbu_0--edge1-AJUNOK_clean_linker_0
_symmetry_space_group_name_H-M    P1
_symmetry_Int_Tables_number       1
_symmetry_cell_setting            triclinic
loop_
_symmetry_equiv_pos_as_xyz
'x, y, z'
_cell_length_a     87.505284
_cell_length_b     21.029847
_cell_length_c     11.509348
_cell_angle_alpha  89.694596
_cell_angle_beta   89.73839
_cell_angle_gamma 84.003206
loop_
_atom_site_label
_atom_site_type_symbol
_atom_site_fract_x
_atom_site_fract_y
_atom_site_fract_z
_atom_type_partial_charge
Ho0 Ho 0.16426 0.25166 0.53161 0.0
Ho1 Ho 0.12775 0.25798 0.53774 0.0
C2 C 0.14636 0.25781 0.78043 0.0
C3 C 0.19358 0.26001 0.5418 0.0
C4 C 0.20733 0.26905 0.61264 0.0
C5 C 0.21357 0.32812 0.61313 0.0
C6 C 0.22822 0.33296 0.65944 0.0
C7 C 0.23698 0.27861 0.7044 0.0
C8 C 0.23049 0.22034 0.70823 0.0
C9 C 0.21586 0.21561 0.66323 0.0
C10 C 0.15156 0.14026 0.50132 0.0
C11 C 0.14587 0.26227 0.29083 0.0
C12 C 0.10038 0.22198 0.5443 0.0
C13 C 0.08437 0.23336 0.50306 0.0
C14 C 0.07597 0.1806 0.49025 0.0
C15 C 0.06022 0.18924 0.46723 0.0
C16 C 0.0525 0.25101 0.45561 0.0
C17 C 0.06106 0.30394 0.46476 0.0
C18 C 0.07686 0.29522 0.48829 0.0
C19 C 0.1369 0.37857 0.52246 0.0
O20 O 0.15926 0.26624 0.72367 0.0
O21 O 0.13366 0.24631 0.72606 0.0
O22 O 0.18724 0.20692 0.55682 0.0
O23 O 0.18355 0.30904 0.51779 0.0
O24 O 0.16377 0.15497 0.44795 0.0
O25 O 0.14705 0.1841 0.57183 0.0
O26 O 0.13357 0.2464 0.34759 0.0
O27 O 0.15847 0.27562 0.34528 0.0
O28 O 0.1052 0.26396 0.6156 0.0
O29 O 0.11096 0.19873 0.47046 0.0
O30 O 0.12263 0.36663 0.52149 0.0
O31 O 0.14496 0.32544 0.52782 0.0
H32 H 0.20746 0.36987 0.5727 0.0
H33 H 0.23301 0.37835 0.65455 0.0
H34 H 0.23698 0.17779 0.74291 0.0
H35 H 0.21159 0.1691 0.66298 0.0
H36 H 0.0815 0.1325 0.50274 0.0
H37 H 0.05397 0.14748 0.46376 0.0
H38 H 0.05546 0.35213 0.45605 0.0
H39 H 0.08309 0.33673 0.49825 0.0
Ho40 Ho 0.87522 0.26249 0.5317 0.0
Ho41 Ho 0.90943 0.26833 0.54066 0.0
C42 C 0.8918 0.27127 0.7814 0.0
C43 C 0.84722 0.23213 0.54537 0.0
C44 C 0.83215 0.2426 0.60618 0.0
C45 C 0.82722 0.19397 0.67705 0.0
C46 C 0.81212 0.19822 0.71949 0.0
C47 C 0.80152 0.25084 0.6909 0.0
C48 C 0.8066 0.30062 0.62365 0.0
C49 C 0.82171 0.29648 0.58144 0.0
C50 C 0.88382 0.38369 0.52282 0.0
C51 C 0.89277 0.26387 0.2903 0.0
C52 C 0.93741 0.29861 0.53266 0.0
C53 C 0.95332 0.28899 0.48763 0.0
C54 C 0.96093 0.3432 0.46444 0.0
C55 C 0.97679 0.33738 0.44412 0.0
C56 C 0.98537 0.27707 0.44606 0.0
C57 C 0.97762 0.22239 0.46364 0.0
C58 C 0.96173 0.22828 0.48453 0.0
C59 C 0.9006 0.14774 0.54965 0.0
O60 O 0.88028 0.24962 0.72473 0.0
O61 O 0.9031 0.29411 0.72385 0.0
O62 O 0.85143 0.27835 0.48017 0.0
O63 O 0.85881 0.20069 0.59945 0.0
O64 O 0.8718 0.36585 0.4724 0.0
O65 O 0.88982 0.33805 0.58431 0.0
O66 O 0.9044 0.28302 0.34912 0.0
O67 O 0.88114 0.24155 0.34504 0.0
O68 O 0.93278 0.25508 0.60201 0.0
O69 O 0.92648 0.32535 0.46596 0.0
O70 O 0.91225 0.16574 0.60452 0.0
O71 O 0.89493 0.19295 0.48594 0.0
H72 H 0.83488 0.15139 0.69618 0.0
H73 H 0.80855 0.15907 0.77102 0.0
H74 H 0.7988 0.3424 0.60213 0.0
H75 H 0.82504 0.33467 0.52638 0.0
H76 H 0.95473 0.39055 0.46768 0.0
H77 H 0.98243 0.38029 0.43041 0.0
H78 H 0.98396 0.17535 0.46725 0.0
H79 H 0.95617 0.1857 0.50338 0.0
Ho80 Ho 0.12826 0.75407 0.50273 0.0
Ho81 Ho 0.16252 0.7625 0.51119 0.0
C82 C 0.14481 0.76184 0.75272 0.0
C83 C 0.10044 0.72158 0.51002 0.0
C84 C 0.08459 0.7288 0.55734 0.0
C85 C 0.07686 0.67387 0.56831 0.0
C86 C 0.06104 0.67889 0.59049 0.0
C87 C 0.05258 0.73906 0.60297 0.0
C88 C 0.06046 0.7941 0.59772 0.0
C89 C 0.07633 0.78905 0.57468 0.0
C90 C 0.13648 0.87578 0.49193 0.0
C91 C 0.14578 0.75372 0.26191 0.0
C92 C 0.19053 0.79317 0.49645 0.0
C93 C 0.20574 0.77957 0.43824 0.0
C94 C 0.21093 0.82451 0.3605 0.0
C95 C 0.22608 0.81735 0.31845 0.0
C96 C 0.23644 0.76513 0.35332 0.0
C97 C 0.23116 0.71953 0.42938 0.0
C98 C 0.21602 0.72662 0.4713 0.0
C99 C 0.15436 0.64053 0.52106 0.0
O100 O 0.1333 0.74137 0.69435 0.0
O101 O 0.1564 0.7844 0.69751 0.0
O102 O 0.10473 0.76771 0.44513 0.0
O103 O 0.11163 0.69327 0.57255 0.0
O104 O 0.12478 0.85652 0.4394 0.0
O105 O 0.14255 0.83098 0.55517 0.0
O106 O 0.15727 0.77572 0.31856 0.0
O107 O 0.13468 0.7294 0.31932 0.0
O108 O 0.18614 0.75012 0.56796 0.0
O109 O 0.17907 0.82191 0.43704 0.0
O110 O 0.16632 0.65926 0.57088 0.0
O111 O 0.14824 0.68587 0.45939 0.0
H112 H 0.08293 0.62693 0.5541 0.0
H113 H 0.05532 0.63566 0.59453 0.0
H114 H 0.05424 0.84118 0.60554 0.0
H115 H 0.08197 0.83226 0.56548 0.0
H116 H 0.20342 0.86641 0.33491 0.0
H117 H 0.22976 0.85325 0.25976 0.0
H118 H 0.2389 0.67949 0.46011 0.0
H119 H 0.21256 0.69165 0.53281 0.0
Ho120 Ho 0.90914 0.76698 0.51452 0.0
Ho121 Ho 0.87457 0.767 0.52518 0.0
C122 C 0.89203 0.76207 0.76508 0.0
C123 C 0.93733 0.79521 0.52225 0.0
C124 C 0.95319 0.78203 0.56734 0.0
C125 C 0.96135 0.834 0.59447 0.0
C126 C 0.9772 0.82505 0.61494 0.0
C127 C 0.98528 0.76369 0.60935 0.0
C128 C 0.97694 0.71121 0.58734 0.0
C129 C 0.96107 0.72025 0.56645 0.0
C130 C 0.89944 0.64785 0.50756 0.0
C131 C 0.89121 0.7709 0.27397 0.0
C132 C 0.8459 0.74515 0.51444 0.0
C133 C 0.83109 0.75718 0.45121 0.0
C134 C 0.82597 0.70908 0.38122 0.0
C135 C 0.81095 0.71497 0.33775 0.0
C136 C 0.80063 0.76879 0.3643 0.0
C137 C 0.80594 0.81814 0.43001 0.0
C138 C 0.82096 0.81231 0.47342 0.0
C139 C 0.88483 0.88456 0.53831 0.0
O140 O 0.90397 0.7806 0.70739 0.0
O141 O 0.88045 0.7411 0.70903 0.0
O142 O 0.93244 0.75392 0.45062 0.0
O143 O 0.92647 0.82166 0.59023 0.0
O144 O 0.91218 0.66266 0.4627 0.0
O145 O 0.89364 0.69428 0.56754 0.0
O146 O 0.8793 0.7541 0.33338 0.0
O147 O 0.90327 0.78941 0.3279 0.0
O148 O 0.85077 0.79223 0.57255 0.0
O149 O 0.85712 0.7085 0.46612 0.0
O150 O 0.8731 0.86771 0.59482 0.0
O151 O 0.88999 0.83989 0.47168 0.0
H152 H 0.9556 0.88221 0.59376 0.0
H153 H 0.98323 0.86674 0.6289 0.0
H154 H 0.98279 0.66327 0.58294 0.0
H155 H 0.95511 0.67926 0.54497 0.0
H156 H 0.83338 0.6656 0.36386 0.0
H157 H 0.80721 0.67613 0.28736 0.0
H158 H 0.79838 0.86085 0.44979 0.0
H159 H 0.82442 0.85012 0.52774 0.0
Ho160 Ho 0.66415 0.76879 0.03908 0.0
Ho161 Ho 0.62992 0.75753 0.04867 0.0
C162 C 0.64754 0.75554 0.28911 0.0
C163 C 0.69172 0.80356 0.05412 0.0
C164 C 0.70662 0.79247 0.11614 0.0
C165 C 0.71153 0.84119 0.18554 0.0
C166 C 0.72638 0.83561 0.23193 0.0
C167 C 0.73673 0.78124 0.20956 0.0
C168 C 0.73174 0.73195 0.14192 0.0
C169 C 0.71686 0.73741 0.09583 0.0
C170 C 0.65676 0.64631 1.02663 0.0
C171 C 0.64687 0.76233 0.79891 0.0
C172 C 0.60209 0.72469 0.03941 0.0
C173 C 0.58584 0.7421 1.00458 0.0
C174 C 0.579 0.70352 0.92477 0.0
C175 C 0.56306 0.71118 0.90696 0.0
C176 C 0.55357 0.75756 0.96875 0.0
C177 C 0.5605 0.79763 0.04568 0.0
C178 C 0.57643 0.7901 0.06325 0.0
C179 C 0.63759 0.88051 0.05194 0.0
O180 O 0.65887 0.77912 0.232 0.0
O181 O 0.63645 0.73154 0.23203 0.0
O182 O 0.68794 0.75875 0.98492 0.0
O183 O 0.67988 0.83182 0.11028 0.0
O184 O 0.66867 0.66688 0.9779 0.0
O185 O 0.6502 0.69002 0.08972 0.0
O186 O 0.63578 0.73912 0.8593 0.0
O187 O 0.65792 0.78899 0.85236 0.0
O188 O 0.60744 0.75594 0.12533 0.0
O189 O 0.61246 0.70946 0.95929 0.0
O190 O 0.62559 0.86178 0.10224 0.0
O191 O 0.64392 0.83474 0.99334 0.0
H192 H 0.70403 0.88471 0.20079 0.0
H193 H 0.72996 0.87497 0.2818 0.0
H194 H 0.73944 0.68941 0.12345 0.0
H195 H 0.71356 0.69921 0.04168 0.0
H196 H 0.58589 0.66551 0.87962 0.0
H197 H 0.55811 0.67962 0.84693 0.0
H198 H 0.55354 0.83285 0.09679 0.0
H199 H 0.58124 0.82007 0.12681 0.0
Ho200 Ho 0.37473 0.75951 0.04376 0.0
Ho201 Ho 0.40954 0.76346 0.04748 0.0
C202 C 0.39205 0.76593 0.29102 0.0
C203 C 0.34677 0.72887 0.06124 0.0
C204 C 0.33167 0.74066 0.12172 0.0
C205 C 0.32704 0.69503 0.20061 0.0
C206 C 0.31196 0.69983 0.24379 0.0
C207 C 0.30106 0.75001 0.20811 0.0
C208 C 0.30585 0.79703 0.1328 0.0
C209 C 0.32094 0.79229 0.08969 0.0
C210 C 0.38365 0.87976 0.03436 0.0
C211 C 0.39206 0.76423 0.80074 0.0
C212 C 0.43771 0.79226 0.03573 0.0
C213 C 0.45409 0.77511 1.0033 0.0
C214 C 0.46058 0.80683 0.91033 0.0
C215 C 0.47655 0.80134 0.89339 0.0
C216 C 0.48644 0.76461 0.96991 0.0
C217 C 0.47989 0.73043 0.05941 0.0
C218 C 0.46395 0.73576 0.07619 0.0
C219 C 0.40036 0.64294 0.04879 0.0
O220 O 0.3802 0.74626 0.23554 0.0
O221 O 0.40351 0.78739 0.23275 0.0
O222 O 0.35092 0.77317 0.99124 0.0
O223 O 0.35839 0.69942 0.11798 0.0
O224 O 0.37106 0.86342 0.99038 0.0
O225 O 0.38996 0.83344 0.09296 0.0
O226 O 0.40355 0.78473 0.85944 0.0
O227 O 0.38058 0.74054 0.85565 0.0
O228 O 0.43209 0.762 0.12283 0.0
O229 O 0.42752 0.80768 0.95477 0.0
O230 O 0.41292 0.65803 0.09533 0.0
O231 O 0.39432 0.69084 0.99376 0.0
H232 H 0.33494 0.6543 0.22611 0.0
H233 H 0.30875 0.66358 0.30372 0.0
H234 H 0.29775 0.83624 0.1035 0.0
H235 H 0.324 0.82793 1.02796 0.0
H236 H 0.45335 0.8381 0.85343 0.0
H237 H 0.48117 0.8271 0.82188 0.0
H238 H 0.48716 0.7018 0.12006 0.0
H239 H 0.45942 0.71128 0.14974 0.0
Ho240 Ho 0.62996 0.2684 0.03274 0.0
Ho241 Ho 0.66472 0.25893 0.03791 0.0
C242 C 0.64763 0.26614 0.27952 0.0
C243 C 0.60101 0.25659 0.05354 0.0
C244 C 0.5843 0.25162 0.06523 0.0
C245 C 0.57857 0.19189 0.07721 0.0
C246 C 0.56271 0.18784 0.0865 0.0
C247 C 0.55226 0.24345 0.08339 0.0
C248 C 0.55805 0.30307 0.07191 0.0
C249 C 0.57386 0.30711 0.06298 0.0
C250 C 0.64206 0.38153 1.01124 0.0
C251 C 0.6471 0.26258 0.78805 0.0
C252 C 0.69355 0.27731 1.01952 0.0
C253 C 0.70791 0.26601 0.94973 0.0
C254 C 0.71212 0.31324 0.87231 0.0
C255 C 0.72682 0.3084 0.82223 0.0
C256 C 0.73769 0.25626 0.84847 0.0
C257 C 0.7333 0.20799 0.92277 0.0
C258 C 0.71862 0.21284 0.97294 0.0
C259 C 0.65286 0.14468 0.05572 0.0
O260 O 0.63555 0.2493 0.22294 0.0
O261 O 0.65952 0.28437 0.22253 0.0
O262 O 0.60668 0.31151 0.0595 0.0
O263 O 0.61123 0.20735 0.03744 0.0
O264 O 0.62993 0.36746 0.95711 0.0
O265 O 0.64671 0.33642 0.07954 0.0
O266 O 0.65986 0.26925 0.84612 0.0
O267 O 0.63407 0.25423 0.84196 0.0
O268 O 0.68864 0.22898 0.07522 0.0
O269 O 0.68231 0.31687 0.97861 0.0
O270 O 0.66557 0.1573 0.10324 0.0
O271 O 0.64798 0.19092 0.99084 0.0
H272 H 0.58634 0.1483 0.07973 0.0
H273 H 0.55862 0.14128 0.09717 0.0
H274 H 0.55031 0.34674 0.06814 0.0
H275 H 0.57789 0.35384 0.05316 0.0
H276 H 0.70429 0.35547 0.85424 0.0
H277 H 0.72989 0.34704 0.76718 0.0
H278 H 0.74138 0.16707 0.94427 0.0
H279 H 0.71588 0.17602 0.03344 0.0
Ho280 Ho 0.40902 0.26246 1.01102 0.0
Ho281 Ho 0.37411 0.2624 1.01837 0.0
C282 C 0.3918 0.26147 0.26014 0.0
C283 C 0.43712 0.29121 1.01558 0.0
C284 C 0.4532 0.27745 0.0536 0.0
C285 C 0.46208 0.32889 0.06258 0.0
C286 C 0.47794 0.31822 0.07936 0.0
C287 C 0.48531 0.25568 0.08785 0.0
C288 C 0.47627 0.20404 0.08422 0.0
C289 C 0.46033 0.21482 0.06655 0.0
C290 C 0.3994 0.14322 1.00828 0.0
C291 C 0.3913 0.26642 0.76936 0.0
C292 C 0.34579 0.23635 1.00702 0.0
C293 C 0.33093 0.24826 0.94614 0.0
C294 C 0.32268 0.19595 0.92421 0.0
C295 C 0.30784 0.20509 0.87882 0.0
C296 C 0.30084 0.26692 0.85422 0.0
C297 C 0.30928 0.31939 0.87299 0.0
C298 C 0.3242 0.31018 0.91892 0.0
C299 C 0.38405 0.38059 1.02825 0.0
O300 O 0.40368 0.27915 0.20114 0.0
O301 O 0.37988 0.24154 0.20598 0.0
O302 O 0.43197 0.25272 0.93985 0.0
O303 O 0.42668 0.31331 0.09088 0.0
O304 O 0.41226 0.15754 0.9647 0.0
O305 O 0.39333 0.19069 0.06455 0.0
O306 O 0.37922 0.24894 0.8262 0.0
O307 O 0.40297 0.28632 0.82592 0.0
O308 O 0.3503 0.28229 0.07017 0.0
O309 O 0.35713 0.20376 0.95234 0.0
O310 O 0.37125 0.3661 0.07263 0.0
O311 O 0.38983 0.33434 0.96758 0.0
H312 H 0.45683 0.37755 0.05154 0.0
H313 H 0.48452 0.35907 0.08084 0.0
H314 H 0.48154 0.15534 0.09307 0.0
H315 H 0.45369 0.17435 0.05962 0.0
H316 H 0.32758 0.14783 0.94537 0.0
H317 H 0.30165 0.16367 0.86612 0.0
H318 H 0.30435 0.36751 0.85266 0.0
H319 H 0.33033 0.35139 0.93496 0.0
C320 C 0.26473 0.23719 0.68878 0.0
C321 C 0.25328 0.28054 0.73897 0.0
C322 C 0.28011 0.23484 0.72372 0.0
C323 C 0.28469 0.27545 0.811 0.0
H324 H 0.26176 0.20441 0.62227 0.0
H325 H 0.28846 0.20028 0.68285 0.0
S326 S 0.25903 0.39727 0.97071 0.0
N327 N 0.2475 0.36549 0.8793 0.0
N328 N 0.27637 0.36042 0.94709 0.0
C329 C 0.27337 0.31995 0.86045 0.0
C330 C 0.25768 0.32262 0.824 0.0
C331 C 0.76619 0.24046 0.88254 0.0
C332 C 0.75384 0.25418 0.80509 0.0
C333 C 0.78152 0.23964 0.84514 0.0
C334 C 0.78515 0.25277 0.7288 0.0
H335 H 0.76401 0.2312 0.97346 0.0
H336 H 0.7906 0.22941 0.90823 0.0
S337 S 0.75716 0.28628 0.48912 0.0
N338 N 0.74636 0.27771 0.60508 0.0
N339 N 0.77511 0.27639 0.5349 0.0
C340 C 0.77293 0.26575 0.65006 0.0
C341 C 0.75732 0.26643 0.68812 0.0
C342 C 0.27678 0.80996 0.28664 0.0
C343 C 0.28463 0.75244 0.24596 0.0
C344 C 0.26125 0.81364 0.32046 0.0
C345 C 0.25288 0.76001 0.31483 0.0
H346 H 0.28274 0.85241 0.29354 0.0
H347 H 0.25582 0.85877 0.35282 0.0
S348 S 0.26766 0.59948 0.2053 0.0
N349 N 0.28255 0.64148 0.196 0.0
N350 N 0.25345 0.64844 0.25938 0.0
C351 C 0.26053 0.70242 0.27293 0.0
C352 C 0.27635 0.69864 0.23859 0.0
C353 C 0.76522 0.76082 0.1746 0.0
C354 C 0.75291 0.77728 0.25179 0.0
C355 C 0.78057 0.75832 0.21136 0.0
C356 C 0.78424 0.77227 0.32679 0.0
H357 H 0.76297 0.75075 0.08442 0.0
H358 H 0.78964 0.74614 0.14847 0.0
S359 S 0.75628 0.81198 0.56579 0.0
N360 N 0.74547 0.80391 0.45068 0.0
N361 N 0.77424 0.79905 0.51986 0.0
C362 C 0.77204 0.78767 0.40533 0.0
C363 C 0.75642 0.79023 0.36787 0.0
C364 C 0.14859 0.96643 0.58637 0.0
C365 C 0.14002 0.94377 0.49473 0.0
C366 C 0.15179 0.0308 0.5905 0.0
C367 C 0.14674 0.07462 0.50236 0.0
H368 H 0.1528 0.9343 0.65568 0.0
H369 H 0.15854 0.04608 0.66187 0.0
S370 S 0.12437 0.03988 0.24217 0.0
N371 N 0.12665 0.97116 0.31352 0.0
N372 N 0.1331 0.09088 0.3202 0.0
C373 C 0.13831 0.05266 0.4102 0.0
C374 C 0.13483 0.98761 0.40676 0.0
C375 C 0.87807 0.50029 0.4721 0.0
C376 C 0.88791 0.45101 0.52445 0.0
C377 C 0.88167 0.56406 0.46984 0.0
C378 C 0.89537 0.5811 0.51827 0.0
H379 H 0.86747 0.48956 0.43187 0.0
H380 H 0.87387 0.59989 0.42684 0.0
S381 S 0.92506 0.47137 0.66704 0.0
N382 N 0.91185 0.42486 0.62892 0.0
N383 N 0.91882 0.54393 0.62063 0.0
C384 C 0.90533 0.53262 0.57083 0.0
C385 C 0.90154 0.46787 0.57516 0.0
C386 C 0.88984 0.98729 0.4379 0.0
C387 C 0.88962 0.9503 0.54015 0.0
C388 C 0.89303 0.05175 0.44138 0.0
C389 C 0.89662 0.08062 0.54667 0.0
H390 H 0.88713 0.96683 0.35527 0.0
H391 H 0.89291 0.07883 0.36099 0.0
S392 S 0.89784 1.00371 0.83766 0.0
N393 N 0.89307 0.94747 0.74916 0.0
N394 N 0.8999 0.06673 0.75493 0.0
C395 C 0.89672 0.04357 0.64874 0.0
C396 C 0.89299 0.97892 0.64568 0.0
C397 C 0.13695 0.55754 0.46445 0.0
C398 C 0.15041 0.57297 0.51951 0.0
C399 C 0.13284 0.49446 0.46475 0.0
C400 C 0.14215 0.44385 0.51807 0.0
H401 H 0.12941 0.59461 0.42204 0.0
H402 H 0.12225 0.48527 0.42273 0.0
S403 S 0.17826 0.45857 0.678 0.0
N404 N 0.17286 0.53192 0.63165 0.0
N405 N 0.16515 0.41402 0.63073 0.0
C406 C 0.15564 0.45845 0.57291 0.0
C407 C 0.15975 0.52277 0.57406 0.0
C408 C 0.64191 0.55656 0.09687 0.0
C409 C 0.65325 0.57832 1.02364 0.0
C410 C 0.63856 0.49236 0.09446 0.0
C411 C 0.6464 0.44769 1.01867 0.0
H412 H 0.63555 0.58931 0.15634 0.0
H413 H 0.62967 0.47769 0.15142 0.0
S414 S 0.67655 0.48002 0.8061 0.0
N415 N 0.67208 0.54928 0.87138 0.0
N416 N 0.66551 0.42981 0.86627 0.0
C417 C 0.6576 0.46875 0.94457 0.0
C418 C 0.6611 0.53374 0.94727 0.0
C419 C 0.37705 0.99725 0.99912 0.0
C420 C 0.38789 0.9467 0.03488 0.0
C421 C 0.38072 0.06079 0.99443 0.0
C422 C 0.39546 0.07642 1.02262 0.0
H423 H 0.3656 0.98773 0.97396 0.0
H424 H 0.37207 0.09747 0.9646 0.0
S425 S 0.42799 0.96269 0.12407 0.0
N426 N 0.41389 0.91751 0.10359 0.0
N427 N 0.42097 0.0363 0.0894 0.0
C428 C 0.40642 0.02655 0.05888 0.0
C429 C 0.40258 0.96197 0.06659 0.0
C430 C 0.40253 0.46083 0.07124 0.0
C431 C 0.38852 0.44679 1.02371 0.0
C432 C 0.40625 0.52427 0.07874 0.0
C433 C 0.39619 0.57615 0.03731 0.0
H434 H 0.41045 0.42283 0.10671 0.0
H435 H 0.41707 0.53268 0.11816 0.0
S436 S 0.3583 0.5641 0.89992 0.0
N437 N 0.36461 0.48946 0.93318 0.0
N438 N 0.37181 0.60806 0.94236 0.0
C439 C 0.3823 0.56232 0.98677 0.0
C440 C 0.3784 0.49787 0.98145 0.0
C441 C 0.6351 0.06124 0.0993 0.0
C442 C 0.64851 0.07856 0.04538 0.0
C443 C 0.63163 0.99723 0.10035 0.0
C444 C 0.64136 0.9482 0.04634 0.0
H445 H 0.62746 0.09706 0.14386 0.0
H446 H 0.62131 0.98605 0.14484 0.0
S447 S 0.67756 0.96991 0.88834 0.0
N448 N 0.6714 0.04232 0.93482 0.0
N449 N 0.66472 0.92287 0.93319 0.0
C450 C 0.65461 0.96556 0.98955 0.0
C451 C 0.65824 0.03047 0.99015 0.0
C452 C 0.1592 0.26921 0.09666 0.0
C453 C 0.14565 0.26297 0.16086 0.0
C454 C 0.15936 0.26776 0.97433 0.0
C455 C 0.14597 0.26006 0.9105 0.0
H456 H 0.16987 0.27458 0.14105 0.0
H457 H 0.17011 0.27232 0.92973 0.0
S458 S 0.10723 0.24458 0.03644 0.0
N459 N 0.11834 0.25083 0.15019 0.0
N460 N 0.11857 0.24815 0.92235 0.0
C461 C 0.13228 0.2547 0.97382 0.0
C462 C 0.13214 0.25613 0.09811 0.0
C463 C 0.88145 0.23887 0.0972 0.0
C464 C 0.89283 0.26633 0.1607 0.0
C465 C 0.88109 0.24122 0.97514 0.0
C466 C 0.89207 0.27129 0.91106 0.0
H467 H 0.87274 0.21496 0.14189 0.0
H468 H 0.87218 0.21877 0.93087 0.0
S469 S 0.92403 0.35269 0.03516 0.0
N470 N 0.91518 0.32589 0.14945 0.0
N471 N 0.91452 0.33054 0.9214 0.0
C472 C 0.90344 0.29948 0.97354 0.0
C473 C 0.90382 0.29693 0.09775 0.0
C474 C 0.15749 0.77691 0.06775 0.0
C475 C 0.14535 0.75504 0.13222 0.0
C476 C 0.15717 0.77939 0.94564 0.0
C477 C 0.14466 0.76026 0.88245 0.0
H478 H 0.16739 0.79223 0.1117 0.0
H479 H 0.16687 0.79627 0.90063 0.0
S480 S 0.10968 0.70061 1.00933 0.0
N481 N 0.12025 0.7148 0.12267 0.0
N482 N 0.11967 0.7195 0.89472 0.0
C483 C 0.13239 0.73868 0.94589 0.0
C484 C 0.13272 0.73606 0.07009 0.0
C485 C 0.90448 0.77857 0.95803 0.0
C486 C 0.89157 0.76408 0.89469 0.0
C487 C 0.90421 0.78122 0.08008 0.0
C488 C 0.891 0.76969 0.14432 0.0
H489 H 0.91495 0.7877 0.91323 0.0
H490 H 0.91453 0.79197 0.12424 0.0
S491 S 0.85379 0.73278 1.02049 0.0
N492 N 0.86494 0.7401 0.90628 0.0
N493 N 0.86447 0.74508 0.13423 0.0
C494 C 0.87794 0.75592 0.08199 0.0
C495 C 0.87821 0.75313 0.95783 0.0
C496 C 0.65876 0.7824 0.48192 0.0
C497 C 0.64733 0.7551 0.41906 0.0
C498 C 0.65851 0.78453 0.60405 0.0
C499 C 0.64681 0.75947 0.66915 0.0
H500 H 0.66798 0.80282 0.43662 0.0
H501 H 0.66759 0.80626 0.64754 0.0
S502 S 0.61417 0.68178 0.54742 0.0
N503 N 0.62397 0.7017 0.43243 0.0
N504 N 0.62352 0.7057 0.66053 0.0
C505 C 0.63534 0.73163 0.60747 0.0
C506 C 0.63559 0.72945 0.48312 0.0
C507 C 0.37937 0.75154 0.60742 0.0
C508 C 0.39235 0.76539 0.67096 0.0
C509 C 0.37935 0.75201 0.48521 0.0
C510 C 0.3923 0.76635 0.42085 0.0
H511 H 0.36907 0.74037 0.65226 0.0
H512 H 0.36904 0.74112 0.44106 0.0
S513 S 0.42951 0.80369 0.5448 0.0
N514 N 0.41869 0.79247 0.65929 0.0
N515 N 0.41867 0.79327 0.431 0.0
C516 C 0.4054 0.77995 0.48334 0.0
C517 C 0.40542 0.77951 0.60773 0.0
C518 C 0.63471 0.2515 0.47206 0.0
C519 C 0.64776 0.26577 0.40901 0.0
C520 C 0.63459 0.25064 0.59409 0.0
C521 C 0.64754 0.26375 0.65856 0.0
H522 H 0.62444 0.24095 0.42703 0.0
H523 H 0.62423 0.23936 0.63798 0.0
S524 S 0.68474 0.30415 0.53579 0.0
N525 N 0.67408 0.2934 0.42117 0.0
N526 N 0.67383 0.29196 0.64924 0.0
C527 C 0.66069 0.27817 0.59659 0.0
C528 C 0.66081 0.27914 0.4724 0.0
C529 C 0.37867 0.2529 0.45394 0.0
C530 C 0.39201 0.26244 0.3898 0.0
C531 C 0.3785 0.25441 0.57609 0.0
C532 C 0.39167 0.26559 0.63964 0.0
H533 H 0.36817 0.24457 0.40962 0.0
H534 H 0.36791 0.24699 0.62082 0.0
S535 S 0.42986 0.29054 0.51401 0.0
N536 N 0.41893 0.28161 0.40011 0.0
N537 N 0.41865 0.28436 0.62825 0.0
C538 C 0.40515 0.27463 0.57656 0.0
C539 C 0.40531 0.27309 0.45229 0.0
C540 C 0.02667 0.30416 0.51569 0.0
C541 C 0.03542 0.26008 0.44389 0.0
C542 C 1.01055 0.31009 0.51383 0.0
C543 C 1.00248 0.27207 0.4404 0.0
H544 H 0.0323 0.33298 0.57667 0.0
H545 H 1.00435 0.34349 0.57301 0.0
S546 S 0.01984 0.15416 0.22675 0.0
N547 N 0.03473 0.18122 0.29062 0.0
N548 N 1.00443 0.19195 0.28841 0.0
C549 C 1.01104 0.22906 0.36588 0.0
C550 C 0.02748 0.22321 0.36727 0.0
C551 C 1.01095 0.71752 0.53193 0.0
C552 C 1.00246 0.75526 0.61545 0.0
C553 C 0.02708 0.71199 0.52997 0.0
C554 C 0.03546 0.74414 0.6111 0.0
H555 H 1.00509 0.69335 0.46522 0.0
H556 H 0.03304 0.68347 0.46233 0.0
S557 S 1.01893 0.84426 0.85432 0.0
N558 N 1.00379 0.82186 0.78653 0.0
N559 N 0.03409 0.81203 0.78161 0.0
C560 C 0.02717 0.78098 0.69658 0.0
C561 C 1.01071 0.78636 0.69907 0.0
C562 C 0.52914 0.70416 0.96844 0.0
C563 C 0.53645 0.76065 0.96003 0.0
C564 C 0.51304 0.70577 0.96923 0.0
C565 C 0.50352 0.76389 0.96075 0.0
H566 H 0.53591 0.6583 0.97787 0.0
H567 H 0.50799 0.66105 0.97749 0.0
S568 S 0.51686 0.92534 0.93319 0.0
N569 N 0.53286 0.8763 0.93876 0.0
N570 N 0.50268 0.87952 0.94271 0.0
C571 C 0.51068 0.82067 0.95003 0.0
C572 C 0.52708 0.81902 0.94936 0.0
C573 C 0.51032 0.28449 0.1682 0.0
C574 C 0.50244 0.24563 0.09493 0.0
C575 C 0.5264 0.28196 0.16634 0.0
C576 C 0.53534 0.24029 0.09145 0.0
H577 H 0.50397 0.31814 0.22615 0.0
H578 H 0.53187 0.31366 0.22299 0.0
S579 S 0.52048 0.12779 0.88301 0.0
N580 N 0.50492 0.16345 0.94604 0.0
N581 N 0.53514 0.15838 0.94342 0.0
C582 C 0.52768 0.19961 1.02039 0.0
C583 C 0.51126 0.20232 1.02196 0.0
loop_
_geom_bond_atom_site_label_1
_geom_bond_atom_site_label_2
_geom_bond_distance
_geom_bond_site_symmetry_2
_ccdc_geom_bond_type
Ho0 C3 2.811 . S
Ho0 O20 2.322 . S
Ho0 O22 2.378 . S
Ho0 O23 2.524 . S
Ho0 O24 2.381 . S
Ho0 O25 2.669 . S
Ho0 O27 2.346 . S
Ho0 O31 2.305 . S
Ho1 C12 2.811 . S
Ho1 O21 2.346 . S
Ho1 O25 2.305 . S
Ho1 O26 2.322 . S
Ho1 O28 2.378 . S
Ho1 O29 2.524 . S
Ho1 O30 2.381 . S
Ho1 O31 2.669 . S
C2 O20 1.259 . S
C2 O21 1.268 . S
C3 Ho0 2.811 . S
C3 C4 1.488 . S
C3 O22 1.215 . S
C3 O23 1.289 . S
C4 C3 1.488 . S
C4 C5 1.348 . S
C4 C9 1.413 . S
C5 C4 1.348 . S
C5 C6 1.442 . S
C5 H32 0.930 . S
C6 C5 1.442 . S
C6 C7 1.381 . S
C6 H33 0.931 . S
C7 C6 1.381 . S
C7 C8 1.321 . S
C8 C7 1.321 . S
C8 C9 1.403 . S
C8 H34 0.934 . S
C9 C4 1.413 . S
C9 C8 1.403 . S
C9 H35 0.930 . S
C10 O24 1.275 . S
C10 O25 1.256 . S
C11 O26 1.259 . S
C11 O27 1.268 . S
C12 Ho1 2.811 . S
C12 C13 1.488 . S
C12 O28 1.215 . S
C12 O29 1.289 . S
C13 C12 1.488 . S
C13 C14 1.348 . S
C13 C18 1.413 . S
C14 C13 1.348 . S
C14 C15 1.442 . S
C14 H36 0.930 . S
C15 C14 1.442 . S
C15 C16 1.381 . S
C15 H37 0.931 . S
C16 C15 1.381 . S
C16 C17 1.321 . S
C17 C16 1.321 . S
C17 C18 1.403 . S
C17 H38 0.934 . S
C18 C13 1.413 . S
C18 C17 1.403 . S
C18 H39 0.930 . S
C19 O30 1.275 . S
C19 O31 1.256 . S
O20 Ho0 2.322 . S
O20 C2 1.259 . S
O21 Ho1 2.346 . S
O21 C2 1.268 . S
O22 Ho0 2.378 . S
O22 C3 1.215 . S
O23 Ho0 2.524 . S
O23 C3 1.289 . S
O24 Ho0 2.381 . S
O24 C10 1.275 . S
O25 Ho0 2.669 . S
O25 Ho1 2.305 . S
O25 C10 1.256 . S
O26 Ho1 2.322 . S
O26 C11 1.259 . S
O27 Ho0 2.346 . S
O27 C11 1.268 . S
O28 Ho1 2.378 . S
O28 C12 1.215 . S
O29 Ho1 2.524 . S
O29 C12 1.289 . S
O30 Ho1 2.381 . S
O30 C19 1.275 . S
O31 Ho0 2.305 . S
O31 Ho1 2.669 . S
O31 C19 1.256 . S
H32 C5 0.930 . S
H33 C6 0.931 . S
H34 C8 0.934 . S
H35 C9 0.930 . S
H36 C14 0.930 . S
H37 C15 0.931 . S
H38 C17 0.934 . S
H39 C18 0.930 . S
Ho40 C43 2.811 . S
Ho40 O60 2.322 . S
Ho40 O62 2.378 . S
Ho40 O63 2.524 . S
Ho40 O64 2.381 . S
Ho40 O65 2.669 . S
Ho40 O67 2.346 . S
Ho40 O71 2.305 . S
Ho41 C52 2.811 . S
Ho41 O61 2.346 . S
Ho41 O65 2.305 . S
Ho41 O66 2.322 . S
Ho41 O68 2.378 . S
Ho41 O69 2.524 . S
Ho41 O70 2.381 . S
Ho41 O71 2.669 . S
C42 O60 1.259 . S
C42 O61 1.268 . S
C43 Ho40 2.811 . S
C43 C44 1.488 . S
C43 O62 1.215 . S
C43 O63 1.289 . S
C44 C43 1.488 . S
C44 C45 1.348 . S
C44 C49 1.413 . S
C45 C44 1.348 . S
C45 C46 1.442 . S
C45 H72 0.930 . S
C46 C45 1.442 . S
C46 C47 1.381 . S
C46 H73 0.931 . S
C47 C46 1.381 . S
C47 C48 1.321 . S
C48 C47 1.321 . S
C48 C49 1.403 . S
C48 H74 0.934 . S
C49 C44 1.413 . S
C49 C48 1.403 . S
C49 H75 0.930 . S
C50 O64 1.275 . S
C50 O65 1.256 . S
C51 O66 1.259 . S
C51 O67 1.268 . S
C52 Ho41 2.811 . S
C52 C53 1.488 . S
C52 O68 1.215 . S
C52 O69 1.289 . S
C53 C52 1.488 . S
C53 C54 1.348 . S
C53 C58 1.413 . S
C54 C53 1.348 . S
C54 C55 1.442 . S
C54 H76 0.930 . S
C55 C54 1.442 . S
C55 C56 1.381 . S
C55 H77 0.931 . S
C56 C55 1.381 . S
C56 C57 1.321 . S
C57 C56 1.321 . S
C57 C58 1.403 . S
C57 H78 0.934 . S
C58 C53 1.413 . S
C58 C57 1.403 . S
C58 H79 0.930 . S
C59 O70 1.275 . S
C59 O71 1.256 . S
O60 Ho40 2.322 . S
O60 C42 1.259 . S
O61 Ho41 2.346 . S
O61 C42 1.268 . S
O62 Ho40 2.378 . S
O62 C43 1.215 . S
O63 Ho40 2.524 . S
O63 C43 1.289 . S
O64 Ho40 2.381 . S
O64 C50 1.275 . S
O65 Ho40 2.669 . S
O65 Ho41 2.305 . S
O65 C50 1.256 . S
O66 Ho41 2.322 . S
O66 C51 1.259 . S
O67 Ho40 2.346 . S
O67 C51 1.268 . S
O68 Ho41 2.378 . S
O68 C52 1.215 . S
O69 Ho41 2.524 . S
O69 C52 1.289 . S
O70 Ho41 2.381 . S
O70 C59 1.275 . S
O71 Ho40 2.305 . S
O71 Ho41 2.669 . S
O71 C59 1.256 . S
H72 C45 0.930 . S
H73 C46 0.931 . S
H74 C48 0.934 . S
H75 C49 0.930 . S
H76 C54 0.930 . S
H77 C55 0.931 . S
H78 C57 0.934 . S
H79 C58 0.930 . S
Ho80 C83 2.811 . S
Ho80 O100 2.322 . S
Ho80 O102 2.378 . S
Ho80 O103 2.524 . S
Ho80 O104 2.381 . S
Ho80 O105 2.669 . S
Ho80 O107 2.346 . S
Ho80 O111 2.305 . S
Ho81 C92 2.811 . S
Ho81 O101 2.346 . S
Ho81 O105 2.305 . S
Ho81 O106 2.322 . S
Ho81 O108 2.378 . S
Ho81 O109 2.524 . S
Ho81 O110 2.381 . S
Ho81 O111 2.669 . S
C82 O100 1.259 . S
C82 O101 1.268 . S
C83 Ho80 2.811 . S
C83 C84 1.488 . S
C83 O102 1.215 . S
C83 O103 1.289 . S
C84 C83 1.488 . S
C84 C85 1.348 . S
C84 C89 1.413 . S
C85 C84 1.348 . S
C85 C86 1.442 . S
C85 H112 0.930 . S
C86 C85 1.442 . S
C86 C87 1.381 . S
C86 H113 0.931 . S
C87 C86 1.381 . S
C87 C88 1.321 . S
C88 C87 1.321 . S
C88 C89 1.403 . S
C88 H114 0.934 . S
C89 C84 1.413 . S
C89 C88 1.403 . S
C89 H115 0.930 . S
C90 O104 1.275 . S
C90 O105 1.256 . S
C91 O106 1.259 . S
C91 O107 1.268 . S
C92 Ho81 2.811 . S
C92 C93 1.488 . S
C92 O108 1.215 . S
C92 O109 1.289 . S
C93 C92 1.488 . S
C93 C94 1.348 . S
C93 C98 1.413 . S
C94 C93 1.348 . S
C94 C95 1.442 . S
C94 H116 0.930 . S
C95 C94 1.442 . S
C95 C96 1.381 . S
C95 H117 0.931 . S
C96 C95 1.381 . S
C96 C97 1.321 . S
C97 C96 1.321 . S
C97 C98 1.403 . S
C97 H118 0.934 . S
C98 C93 1.413 . S
C98 C97 1.403 . S
C98 H119 0.930 . S
C99 O110 1.275 . S
C99 O111 1.256 . S
O100 Ho80 2.322 . S
O100 C82 1.259 . S
O101 Ho81 2.346 . S
O101 C82 1.268 . S
O102 Ho80 2.378 . S
O102 C83 1.215 . S
O103 Ho80 2.524 . S
O103 C83 1.289 . S
O104 Ho80 2.381 . S
O104 C90 1.275 . S
O105 Ho80 2.669 . S
O105 Ho81 2.305 . S
O105 C90 1.256 . S
O106 Ho81 2.322 . S
O106 C91 1.259 . S
O107 Ho80 2.346 . S
O107 C91 1.268 . S
O108 Ho81 2.378 . S
O108 C92 1.215 . S
O109 Ho81 2.524 . S
O109 C92 1.289 . S
O110 Ho81 2.381 . S
O110 C99 1.275 . S
O111 Ho80 2.305 . S
O111 Ho81 2.669 . S
O111 C99 1.256 . S
H112 C85 0.930 . S
H113 C86 0.931 . S
H114 C88 0.934 . S
H115 C89 0.930 . S
H116 C94 0.930 . S
H117 C95 0.931 . S
H118 C97 0.934 . S
H119 C98 0.930 . S
Ho120 C123 2.811 . S
Ho120 O140 2.322 . S
Ho120 O142 2.378 . S
Ho120 O143 2.524 . S
Ho120 O144 2.381 . S
Ho120 O145 2.669 . S
Ho120 O147 2.346 . S
Ho120 O151 2.305 . S
Ho121 C132 2.811 . S
Ho121 O141 2.346 . S
Ho121 O145 2.305 . S
Ho121 O146 2.322 . S
Ho121 O148 2.378 . S
Ho121 O149 2.524 . S
Ho121 O150 2.381 . S
Ho121 O151 2.669 . S
C122 O140 1.259 . S
C122 O141 1.268 . S
C123 Ho120 2.811 . S
C123 C124 1.488 . S
C123 O142 1.215 . S
C123 O143 1.289 . S
C124 C123 1.488 . S
C124 C125 1.348 . S
C124 C129 1.413 . S
C125 C124 1.348 . S
C125 C126 1.442 . S
C125 H152 0.930 . S
C126 C125 1.442 . S
C126 C127 1.381 . S
C126 H153 0.931 . S
C127 C126 1.381 . S
C127 C128 1.321 . S
C128 C127 1.321 . S
C128 C129 1.403 . S
C128 H154 0.934 . S
C129 C124 1.413 . S
C129 C128 1.403 . S
C129 H155 0.930 . S
C130 O144 1.275 . S
C130 O145 1.256 . S
C131 O146 1.259 . S
C131 O147 1.268 . S
C132 Ho121 2.811 . S
C132 C133 1.488 . S
C132 O148 1.215 . S
C132 O149 1.289 . S
C133 C132 1.488 . S
C133 C134 1.348 . S
C133 C138 1.413 . S
C134 C133 1.348 . S
C134 C135 1.442 . S
C134 H156 0.930 . S
C135 C134 1.442 . S
C135 C136 1.381 . S
C135 H157 0.931 . S
C136 C135 1.381 . S
C136 C137 1.321 . S
C137 C136 1.321 . S
C137 C138 1.403 . S
C137 H158 0.934 . S
C138 C133 1.413 . S
C138 C137 1.403 . S
C138 H159 0.930 . S
C139 O150 1.275 . S
C139 O151 1.256 . S
O140 Ho120 2.322 . S
O140 C122 1.259 . S
O141 Ho121 2.346 . S
O141 C122 1.268 . S
O142 Ho120 2.378 . S
O142 C123 1.215 . S
O143 Ho120 2.524 . S
O143 C123 1.289 . S
O144 Ho120 2.381 . S
O144 C130 1.275 . S
O145 Ho120 2.669 . S
O145 Ho121 2.305 . S
O145 C130 1.256 . S
O146 Ho121 2.322 . S
O146 C131 1.259 . S
O147 Ho120 2.346 . S
O147 C131 1.268 . S
O148 Ho121 2.378 . S
O148 C132 1.215 . S
O149 Ho121 2.524 . S
O149 C132 1.289 . S
O150 Ho121 2.381 . S
O150 C139 1.275 . S
O151 Ho120 2.305 . S
O151 Ho121 2.669 . S
O151 C139 1.256 . S
H152 C125 0.930 . S
H153 C126 0.931 . S
H154 C128 0.934 . S
H155 C129 0.930 . S
H156 C134 0.930 . S
H157 C135 0.931 . S
H158 C137 0.934 . S
H159 C138 0.930 . S
Ho160 C163 2.811 1_556 S
Ho160 O180 2.322 1_556 S
Ho160 O182 2.378 1_556 S
Ho160 O183 2.524 1_556 S
Ho160 O184 2.381 . S
Ho160 O185 2.669 . S
Ho160 O187 2.346 . S
Ho160 O191 2.305 1_556 S
Ho161 C172 2.811 1_554 S
Ho161 O181 2.346 . S
Ho161 O185 2.305 1_554 S
Ho161 O186 2.322 1_554 S
Ho161 O188 2.378 1_554 S
Ho161 O189 2.524 1_554 S
Ho161 O190 2.381 . S
Ho161 O191 2.669 . S
C162 O180 1.259 . S
C162 O181 1.268 . S
C163 Ho160 2.811 1_554 S
C163 C164 1.488 . S
C163 O182 1.215 . S
C163 O183 1.289 . S
C164 C163 1.488 . S
C164 C165 1.348 . S
C164 C169 1.413 . S
C165 C164 1.348 . S
C165 C166 1.442 . S
C165 H192 0.930 . S
C166 C165 1.442 . S
C166 C167 1.381 . S
C166 H193 0.931 . S
C167 C166 1.381 . S
C167 C168 1.321 . S
C168 C167 1.321 . S
C168 C169 1.403 . S
C168 H194 0.934 . S
C169 C164 1.413 . S
C169 C168 1.403 . S
C169 H195 0.930 . S
C170 O184 1.275 . S
C170 O185 1.256 . S
C171 O186 1.259 . S
C171 O187 1.268 . S
C172 Ho161 2.811 1_556 S
C172 C173 1.488 . S
C172 O188 1.215 . S
C172 O189 1.289 . S
C173 C172 1.488 . S
C173 C174 1.348 . S
C173 C178 1.413 . S
C174 C173 1.348 . S
C174 C175 1.442 . S
C174 H196 0.930 . S
C175 C174 1.442 . S
C175 C176 1.381 . S
C175 H197 0.931 . S
C176 C175 1.381 . S
C176 C177 1.321 . S
C177 C176 1.321 . S
C177 C178 1.403 . S
C177 H198 0.934 . S
C178 C173 1.413 . S
C178 C177 1.403 . S
C178 H199 0.930 . S
C179 O190 1.275 . S
C179 O191 1.256 . S
O180 Ho160 2.322 1_554 S
O180 C162 1.259 . S
O181 Ho161 2.346 . S
O181 C162 1.268 . S
O182 Ho160 2.378 1_554 S
O182 C163 1.215 . S
O183 Ho160 2.524 1_554 S
O183 C163 1.289 . S
O184 Ho160 2.381 . S
O184 C170 1.275 . S
O185 Ho160 2.669 . S
O185 Ho161 2.305 1_556 S
O185 C170 1.256 . S
O186 Ho161 2.322 1_556 S
O186 C171 1.259 . S
O187 Ho160 2.346 . S
O187 C171 1.268 . S
O188 Ho161 2.378 1_556 S
O188 C172 1.215 . S
O189 Ho161 2.524 1_556 S
O189 C172 1.289 . S
O190 Ho161 2.381 . S
O190 C179 1.275 . S
O191 Ho160 2.305 1_554 S
O191 Ho161 2.669 . S
O191 C179 1.256 . S
H192 C165 0.930 . S
H193 C166 0.931 . S
H194 C168 0.934 . S
H195 C169 0.930 . S
H196 C174 0.930 . S
H197 C175 0.931 . S
H198 C177 0.934 . S
H199 C178 0.930 . S
Ho200 C203 2.811 1_556 S
Ho200 O220 2.322 1_556 S
Ho200 O222 2.378 1_556 S
Ho200 O223 2.524 1_556 S
Ho200 O224 2.381 . S
Ho200 O225 2.669 . S
Ho200 O227 2.346 . S
Ho200 O231 2.305 1_556 S
Ho201 C212 2.811 1_554 S
Ho201 O221 2.346 . S
Ho201 O225 2.305 1_554 S
Ho201 O226 2.322 1_554 S
Ho201 O228 2.378 1_554 S
Ho201 O229 2.524 1_554 S
Ho201 O230 2.381 . S
Ho201 O231 2.669 . S
C202 O220 1.259 . S
C202 O221 1.268 . S
C203 Ho200 2.811 1_554 S
C203 C204 1.488 . S
C203 O222 1.215 . S
C203 O223 1.289 . S
C204 C203 1.488 . S
C204 C205 1.348 . S
C204 C209 1.413 . S
C205 C204 1.348 . S
C205 C206 1.442 . S
C205 H232 0.930 . S
C206 C205 1.442 . S
C206 C207 1.381 . S
C206 H233 0.931 . S
C207 C206 1.381 . S
C207 C208 1.321 . S
C208 C207 1.321 . S
C208 C209 1.403 . S
C208 H234 0.934 . S
C209 C204 1.413 . S
C209 C208 1.403 . S
C209 H235 0.930 . S
C210 O224 1.275 . S
C210 O225 1.256 . S
C211 O226 1.259 . S
C211 O227 1.268 . S
C212 Ho201 2.811 1_556 S
C212 C213 1.488 . S
C212 O228 1.215 . S
C212 O229 1.289 . S
C213 C212 1.488 . S
C213 C214 1.348 . S
C213 C218 1.413 . S
C214 C213 1.348 . S
C214 C215 1.442 . S
C214 H236 0.930 . S
C215 C214 1.442 . S
C215 C216 1.381 . S
C215 H237 0.931 . S
C216 C215 1.381 . S
C216 C217 1.321 . S
C217 C216 1.321 . S
C217 C218 1.403 . S
C217 H238 0.934 . S
C218 C213 1.413 . S
C218 C217 1.403 . S
C218 H239 0.930 . S
C219 O230 1.275 . S
C219 O231 1.256 . S
O220 Ho200 2.322 1_554 S
O220 C202 1.259 . S
O221 Ho201 2.346 . S
O221 C202 1.268 . S
O222 Ho200 2.378 1_554 S
O222 C203 1.215 . S
O223 Ho200 2.524 1_554 S
O223 C203 1.289 . S
O224 Ho200 2.381 . S
O224 C210 1.275 . S
O225 Ho200 2.669 . S
O225 Ho201 2.305 1_556 S
O225 C210 1.256 . S
O226 Ho201 2.322 1_556 S
O226 C211 1.259 . S
O227 Ho200 2.346 . S
O227 C211 1.268 . S
O228 Ho201 2.378 1_556 S
O228 C212 1.215 . S
O229 Ho201 2.524 1_556 S
O229 C212 1.289 . S
O230 Ho201 2.381 . S
O230 C219 1.275 . S
O231 Ho200 2.305 1_554 S
O231 Ho201 2.669 . S
O231 C219 1.256 . S
H232 C205 0.930 . S
H233 C206 0.931 . S
H234 C208 0.934 . S
H235 C209 0.930 . S
H236 C214 0.930 . S
H237 C215 0.931 . S
H238 C217 0.934 . S
H239 C218 0.930 . S
Ho240 C243 2.811 1_556 S
Ho240 O260 2.322 1_556 S
Ho240 O262 2.378 1_556 S
Ho240 O263 2.524 1_556 S
Ho240 O264 2.381 . S
Ho240 O265 2.669 . S
Ho240 O267 2.346 . S
Ho240 O271 2.305 1_556 S
Ho241 C252 2.811 1_554 S
Ho241 O261 2.346 . S
Ho241 O265 2.305 1_554 S
Ho241 O266 2.322 1_554 S
Ho241 O268 2.378 1_554 S
Ho241 O269 2.524 1_554 S
Ho241 O270 2.381 . S
Ho241 O271 2.669 . S
C242 O260 1.259 . S
C242 O261 1.268 . S
C243 Ho240 2.811 1_554 S
C243 C244 1.488 . S
C243 O262 1.215 . S
C243 O263 1.289 . S
C244 C243 1.488 . S
C244 C245 1.348 . S
C244 C249 1.413 . S
C245 C244 1.348 . S
C245 C246 1.442 . S
C245 H272 0.930 . S
C246 C245 1.442 . S
C246 C247 1.381 . S
C246 H273 0.931 . S
C247 C246 1.381 . S
C247 C248 1.321 . S
C248 C247 1.321 . S
C248 C249 1.403 . S
C248 H274 0.934 . S
C249 C244 1.413 . S
C249 C248 1.403 . S
C249 H275 0.930 . S
C250 O264 1.275 . S
C250 O265 1.256 . S
C251 O266 1.259 . S
C251 O267 1.268 . S
C252 Ho241 2.811 1_556 S
C252 C253 1.488 . S
C252 O268 1.215 . S
C252 O269 1.289 . S
C253 C252 1.488 . S
C253 C254 1.348 . S
C253 C258 1.413 . S
C254 C253 1.348 . S
C254 C255 1.442 . S
C254 H276 0.930 . S
C255 C254 1.442 . S
C255 C256 1.381 . S
C255 H277 0.931 . S
C256 C255 1.381 . S
C256 C257 1.321 . S
C257 C256 1.321 . S
C257 C258 1.403 . S
C257 H278 0.934 . S
C258 C253 1.413 . S
C258 C257 1.403 . S
C258 H279 0.930 . S
C259 O270 1.275 . S
C259 O271 1.256 . S
O260 Ho240 2.322 1_554 S
O260 C242 1.259 . S
O261 Ho241 2.346 . S
O261 C242 1.268 . S
O262 Ho240 2.378 1_554 S
O262 C243 1.215 . S
O263 Ho240 2.524 1_554 S
O263 C243 1.289 . S
O264 Ho240 2.381 . S
O264 C250 1.275 . S
O265 Ho240 2.669 . S
O265 Ho241 2.305 1_556 S
O265 C250 1.256 . S
O266 Ho241 2.322 1_556 S
O266 C251 1.259 . S
O267 Ho240 2.346 . S
O267 C251 1.268 . S
O268 Ho241 2.378 1_556 S
O268 C252 1.215 . S
O269 Ho241 2.524 1_556 S
O269 C252 1.289 . S
O270 Ho241 2.381 . S
O270 C259 1.275 . S
O271 Ho240 2.305 1_554 S
O271 Ho241 2.669 . S
O271 C259 1.256 . S
H272 C245 0.930 . S
H273 C246 0.931 . S
H274 C248 0.934 . S
H275 C249 0.930 . S
H276 C254 0.930 . S
H277 C255 0.931 . S
H278 C257 0.934 . S
H279 C258 0.930 . S
Ho280 C283 2.811 1_556 S
Ho280 O300 2.322 1_556 S
Ho280 O302 2.378 1_556 S
Ho280 O303 2.524 1_556 S
Ho280 O304 2.381 . S
Ho280 O305 2.669 . S
Ho280 O307 2.346 . S
Ho280 O311 2.305 1_556 S
Ho281 C292 2.811 1_554 S
Ho281 O301 2.346 . S
Ho281 O305 2.305 1_554 S
Ho281 O306 2.322 1_554 S
Ho281 O308 2.378 1_554 S
Ho281 O309 2.524 1_554 S
Ho281 O310 2.381 . S
Ho281 O311 2.669 . S
C282 O300 1.259 . S
C282 O301 1.268 . S
C283 Ho280 2.811 1_554 S
C283 C284 1.488 . S
C283 O302 1.215 . S
C283 O303 1.289 . S
C284 C283 1.488 . S
C284 C285 1.348 . S
C284 C289 1.413 . S
C285 C284 1.348 . S
C285 C286 1.442 . S
C285 H312 0.930 . S
C286 C285 1.442 . S
C286 C287 1.381 . S
C286 H313 0.931 . S
C287 C286 1.381 . S
C287 C288 1.321 . S
C288 C287 1.321 . S
C288 C289 1.403 . S
C288 H314 0.934 . S
C289 C284 1.413 . S
C289 C288 1.403 . S
C289 H315 0.930 . S
C290 O304 1.275 . S
C290 O305 1.256 . S
C291 O306 1.259 . S
C291 O307 1.268 . S
C292 Ho281 2.811 1_556 S
C292 C293 1.488 . S
C292 O308 1.215 . S
C292 O309 1.289 . S
C293 C292 1.488 . S
C293 C294 1.348 . S
C293 C298 1.413 . S
C294 C293 1.348 . S
C294 C295 1.442 . S
C294 H316 0.930 . S
C295 C294 1.442 . S
C295 C296 1.381 . S
C295 H317 0.931 . S
C296 C295 1.381 . S
C296 C297 1.321 . S
C297 C296 1.321 . S
C297 C298 1.403 . S
C297 H318 0.934 . S
C298 C293 1.413 . S
C298 C297 1.403 . S
C298 H319 0.930 . S
C299 O310 1.275 . S
C299 O311 1.256 . S
O300 Ho280 2.322 1_554 S
O300 C282 1.259 . S
O301 Ho281 2.346 . S
O301 C282 1.268 . S
O302 Ho280 2.378 1_554 S
O302 C283 1.215 . S
O303 Ho280 2.524 1_554 S
O303 C283 1.289 . S
O304 Ho280 2.381 . S
O304 C290 1.275 . S
O305 Ho280 2.669 . S
O305 Ho281 2.305 1_556 S
O305 C290 1.256 . S
O306 Ho281 2.322 1_556 S
O306 C291 1.259 . S
O307 Ho280 2.346 . S
O307 C291 1.268 . S
O308 Ho281 2.378 1_556 S
O308 C292 1.215 . S
O309 Ho281 2.524 1_556 S
O309 C292 1.289 . S
O310 Ho281 2.381 . S
O310 C299 1.275 . S
O311 Ho280 2.305 1_554 S
O311 Ho281 2.669 . S
O311 C299 1.256 . S
H312 C285 0.930 . S
H313 C286 0.931 . S
H314 C288 0.934 . S
H315 C289 0.930 . S
H316 C294 0.930 . S
H317 C295 0.931 . S
H318 C297 0.934 . S
H319 C298 0.930 . S
C320 C321 1.369 . S
C320 C322 1.419 . S
C320 H324 0.930 . S
C321 C320 1.369 . S
C321 C330 1.429 . S
C322 C320 1.419 . S
C322 C323 1.363 . S
C322 H325 0.929 . S
C323 C322 1.363 . S
C323 C329 1.428 . S
H324 C320 0.930 . S
H325 C322 0.929 . S
S326 N327 1.613 . S
S326 N328 1.610 . S
N327 S326 1.613 . S
N327 C330 1.350 . S
N328 S326 1.610 . S
N328 C329 1.351 . S
C329 C323 1.428 . S
C329 N328 1.351 . S
C329 C330 1.434 . S
C330 C321 1.429 . S
C330 N327 1.350 . S
C330 C329 1.434 . S
C331 C332 1.369 . S
C331 C333 1.419 . S
C331 H335 0.930 . S
C332 C331 1.369 . S
C332 C341 1.429 . S
C333 C331 1.419 . S
C333 C334 1.363 . S
C333 H336 0.929 . S
C334 C333 1.363 . S
C334 C340 1.428 . S
H335 C331 0.930 . S
H336 C333 0.929 . S
S337 N338 1.613 . S
S337 N339 1.610 . S
N338 S337 1.613 . S
N338 C341 1.350 . S
N339 S337 1.610 . S
N339 C340 1.351 . S
C340 C334 1.428 . S
C340 N339 1.351 . S
C340 C341 1.434 . S
C341 C332 1.429 . S
C341 N338 1.350 . S
C341 C340 1.434 . S
C342 C343 1.369 . S
C342 C344 1.419 . S
C342 H346 0.930 . S
C343 C342 1.369 . S
C343 C352 1.429 . S
C344 C342 1.419 . S
C344 C345 1.363 . S
C344 H347 0.929 . S
C345 C344 1.363 . S
C345 C351 1.428 . S
H346 C342 0.930 . S
H347 C344 0.929 . S
S348 N349 1.613 . S
S348 N350 1.610 . S
N349 S348 1.613 . S
N349 C352 1.350 . S
N350 S348 1.610 . S
N350 C351 1.351 . S
C351 C345 1.428 . S
C351 N350 1.351 . S
C351 C352 1.434 . S
C352 C343 1.429 . S
C352 N349 1.350 . S
C352 C351 1.434 . S
C353 C354 1.369 . S
C353 C355 1.419 . S
C353 H357 0.930 . S
C354 C353 1.369 . S
C354 C363 1.429 . S
C355 C353 1.419 . S
C355 C356 1.363 . S
C355 H358 0.929 . S
C356 C355 1.363 . S
C356 C362 1.428 . S
H357 C353 0.930 . S
H358 C355 0.929 . S
S359 N360 1.613 . S
S359 N361 1.610 . S
N360 S359 1.613 . S
N360 C363 1.350 . S
N361 S359 1.610 . S
N361 C362 1.351 . S
C362 C356 1.428 . S
C362 N361 1.351 . S
C362 C363 1.434 . S
C363 C354 1.429 . S
C363 N360 1.350 . S
C363 C362 1.434 . S
C364 C365 1.369 . S
C364 C366 1.419 1_565 S
C364 H368 0.930 . S
C365 C364 1.369 . S
C365 C374 1.429 . S
C366 C364 1.419 1_545 S
C366 C367 1.363 . S
C366 H369 0.929 . S
C367 C366 1.363 . S
C367 C373 1.428 . S
H368 C364 0.930 . S
H369 C366 0.929 . S
S370 N371 1.613 . S
S370 N372 1.610 1_565 S
N371 S370 1.613 . S
N371 C374 1.350 . S
N372 S370 1.610 1_545 S
N372 C373 1.351 . S
C373 C367 1.428 . S
C373 N372 1.351 . S
C373 C374 1.434 1_545 S
C374 C365 1.429 . S
C374 N371 1.350 . S
C374 C373 1.434 1_565 S
C375 C376 1.369 . S
C375 C377 1.419 . S
C375 H379 0.930 . S
C376 C375 1.369 . S
C376 C385 1.429 . S
C377 C375 1.419 . S
C377 C378 1.363 . S
C377 H380 0.929 . S
C378 C377 1.363 . S
C378 C384 1.428 . S
H379 C375 0.930 . S
H380 C377 0.929 . S
S381 N382 1.613 . S
S381 N383 1.610 . S
N382 S381 1.613 . S
N382 C385 1.350 . S
N383 S381 1.610 . S
N383 C384 1.351 . S
C384 C378 1.428 . S
C384 N383 1.351 . S
C384 C385 1.434 . S
C385 C376 1.429 . S
C385 N382 1.350 . S
C385 C384 1.434 . S
C386 C387 1.369 . S
C386 C388 1.419 1_565 S
C386 H390 0.930 . S
C387 C386 1.369 . S
C387 C396 1.429 . S
C388 C386 1.419 1_545 S
C388 C389 1.363 . S
C388 H391 0.929 . S
C389 C388 1.363 . S
C389 C395 1.428 . S
H390 C386 0.930 . S
H391 C388 0.929 . S
S392 N393 1.613 1_545 S
S392 N394 1.610 . S
N393 S392 1.613 1_565 S
N393 C396 1.350 . S
N394 S392 1.610 . S
N394 C395 1.351 . S
C395 C389 1.428 . S
C395 N394 1.351 . S
C395 C396 1.434 1_545 S
C396 C387 1.429 . S
C396 N393 1.350 . S
C396 C395 1.434 1_565 S
C397 C398 1.369 . S
C397 C399 1.419 . S
C397 H401 0.930 . S
C398 C397 1.369 . S
C398 C407 1.429 . S
C399 C397 1.419 . S
C399 C400 1.363 . S
C399 H402 0.929 . S
C400 C399 1.363 . S
C400 C406 1.428 . S
H401 C397 0.930 . S
H402 C399 0.929 . S
S403 N404 1.613 . S
S403 N405 1.610 . S
N404 S403 1.613 . S
N404 C407 1.350 . S
N405 S403 1.610 . S
N405 C406 1.351 . S
C406 C400 1.428 . S
C406 N405 1.351 . S
C406 C407 1.434 . S
C407 C398 1.429 . S
C407 N404 1.350 . S
C407 C406 1.434 . S
C408 C409 1.369 1_554 S
C408 C410 1.419 . S
C408 H412 0.930 . S
C409 C408 1.369 1_556 S
C409 C418 1.429 . S
C410 C408 1.419 . S
C410 C411 1.363 1_554 S
C410 H413 0.929 . S
C411 C410 1.363 1_556 S
C411 C417 1.428 . S
H412 C408 0.930 . S
H413 C410 0.929 . S
S414 N415 1.613 . S
S414 N416 1.610 . S
N415 S414 1.613 . S
N415 C418 1.350 . S
N416 S414 1.610 . S
N416 C417 1.351 . S
C417 C411 1.428 . S
C417 N416 1.351 . S
C417 C418 1.434 . S
C418 C409 1.429 . S
C418 N415 1.350 . S
C418 C417 1.434 . S
C419 C420 1.369 1_554 S
C419 C421 1.419 1_565 S
C419 H423 0.931 . S
C420 C419 1.369 1_556 S
C420 C429 1.429 . S
C421 C419 1.419 1_545 S
C421 C422 1.363 1_554 S
C421 H424 0.929 . S
C422 C421 1.363 1_556 S
C422 C428 1.428 . S
H423 C419 0.931 . S
H424 C421 0.929 . S
S425 N426 1.613 . S
S425 N427 1.610 1_565 S
N426 S425 1.613 . S
N426 C429 1.350 . S
N427 S425 1.610 1_545 S
N427 C428 1.351 . S
C428 C422 1.428 . S
C428 N427 1.351 . S
C428 C429 1.434 1_545 S
C429 C420 1.429 . S
C429 N426 1.350 . S
C429 C428 1.434 1_565 S
C430 C431 1.369 . S
C430 C432 1.419 . S
C430 H434 0.930 . S
C431 C430 1.369 . S
C431 C440 1.429 1_554 S
C432 C430 1.419 . S
C432 C433 1.363 . S
C432 H435 0.929 . S
C433 C432 1.363 . S
C433 C439 1.428 1_554 S
H434 C430 0.930 . S
H435 C432 0.929 . S
S436 N437 1.613 . S
S436 N438 1.610 . S
N437 S436 1.613 . S
N437 C440 1.350 . S
N438 S436 1.610 . S
N438 C439 1.351 . S
C439 C433 1.428 1_556 S
C439 N438 1.351 . S
C439 C440 1.434 . S
C440 C431 1.429 1_556 S
C440 N437 1.350 . S
C440 C439 1.434 . S
C441 C442 1.369 . S
C441 C443 1.419 1_545 S
C441 H445 0.930 . S
C442 C441 1.369 . S
C442 C451 1.429 1_554 S
C443 C441 1.419 1_565 S
C443 C444 1.363 . S
C443 H446 0.929 . S
C444 C443 1.363 . S
C444 C450 1.428 1_554 S
H445 C441 0.930 . S
H446 C443 0.929 . S
S447 N448 1.613 1_565 S
S447 N449 1.610 . S
N448 S447 1.613 1_545 S
N448 C451 1.350 . S
N449 S447 1.610 . S
N449 C450 1.351 . S
C450 C444 1.428 1_556 S
C450 N449 1.351 . S
C450 C451 1.434 1_565 S
C451 C442 1.429 1_556 S
C451 N448 1.350 . S
C451 C450 1.434 1_545 S
C452 C453 1.369 1_556 S
C452 C454 1.419 . S
C452 H456 0.930 1_556 S
C453 C452 1.369 1_554 S
C453 C462 1.429 1_554 S
C454 C452 1.419 . S
C454 C455 1.363 . S
C454 H457 0.929 . S
C455 C454 1.363 . S
C455 C461 1.428 . S
H456 C452 0.930 1_554 S
H457 C454 0.929 . S
S458 N459 1.613 . S
S458 N460 1.610 . S
N459 S458 1.613 . S
N459 C462 1.350 . S
N460 S458 1.610 . S
N460 C461 1.351 . S
C461 C455 1.428 . S
C461 N460 1.351 . S
C461 C462 1.434 . S
C462 C453 1.429 1_556 S
C462 N459 1.350 . S
C462 C461 1.434 . S
C463 C464 1.369 1_556 S
C463 C465 1.419 . S
C463 H467 0.930 1_556 S
C464 C463 1.369 1_554 S
C464 C473 1.429 1_554 S
C465 C463 1.419 . S
C465 C466 1.363 . S
C465 H468 0.929 . S
C466 C465 1.363 . S
C466 C472 1.428 . S
H467 C463 0.930 1_554 S
H468 C465 0.929 . S
S469 N470 1.610 1_556 S
S469 N471 1.610 . S
N470 S469 1.610 1_554 S
N470 C473 1.348 1_554 S
N471 S469 1.610 . S
N471 C472 1.351 . S
C472 C466 1.428 . S
C472 N471 1.351 . S
C472 C473 1.434 . S
C473 C464 1.429 1_556 S
C473 N470 1.348 1_556 S
C473 C472 1.434 . S
C474 C475 1.369 . S
C474 C476 1.419 . S
C474 H478 0.930 . S
C475 C474 1.369 . S
C475 C484 1.429 . S
C476 C474 1.419 . S
C476 C477 1.363 1_554 S
C476 H479 0.929 1_554 S
C477 C476 1.363 1_556 S
C477 C483 1.428 1_556 S
H478 C474 0.930 . S
H479 C476 0.929 1_556 S
S480 N481 1.613 . S
S480 N482 1.610 . S
N481 S480 1.613 . S
N481 C484 1.350 . S
N482 S480 1.610 . S
N482 C483 1.351 . S
C483 C477 1.428 1_554 S
C483 N482 1.351 . S
C483 C484 1.434 . S
C484 C475 1.429 . S
C484 N481 1.350 . S
C484 C483 1.434 . S
C485 C486 1.369 1_554 S
C485 C487 1.419 . S
C485 H489 0.930 . S
C486 C485 1.369 1_556 S
C486 C495 1.426 1_556 S
C487 C485 1.419 . S
C487 C488 1.363 . S
C487 H490 0.929 . S
C488 C487 1.363 . S
C488 C494 1.428 . S
H489 C485 0.930 . S
H490 C487 0.929 . S
S491 N492 1.613 1_554 S
S491 N493 1.610 . S
N492 S491 1.613 1_556 S
N492 C495 1.344 1_556 S
N493 S491 1.610 . S
N493 C494 1.351 . S
C494 C488 1.428 . S
C494 N493 1.351 . S
C494 C495 1.443 . S
C495 C486 1.426 1_554 S
C495 N492 1.344 1_554 S
C495 C494 1.443 . S
C496 C497 1.369 . S
C496 C498 1.419 . S
C496 H500 0.930 . S
C497 C496 1.369 . S
C497 C506 1.429 . S
C498 C496 1.419 . S
C498 C499 1.363 . S
C498 H501 0.929 . S
C499 C498 1.363 . S
C499 C505 1.428 . S
H500 C496 0.930 . S
H501 C498 0.929 . S
S502 N503 1.613 . S
S502 N504 1.610 . S
N503 S502 1.613 . S
N503 C506 1.350 . S
N504 S502 1.610 . S
N504 C505 1.351 . S
C505 C499 1.428 . S
C505 N504 1.351 . S
C505 C506 1.434 . S
C506 C497 1.429 . S
C506 N503 1.350 . S
C506 C505 1.434 . S
C507 C508 1.369 . S
C507 C509 1.419 . S
C507 H511 0.930 . S
C508 C507 1.369 . S
C508 C517 1.429 . S
C509 C507 1.419 . S
C509 C510 1.363 . S
C509 H512 0.929 . S
C510 C509 1.363 . S
C510 C516 1.428 . S
H511 C507 0.930 . S
H512 C509 0.929 . S
S513 N514 1.613 . S
S513 N515 1.610 . S
N514 S513 1.613 . S
N514 C517 1.350 . S
N515 S513 1.610 . S
N515 C516 1.351 . S
C516 C510 1.428 . S
C516 N515 1.351 . S
C516 C517 1.434 . S
C517 C508 1.429 . S
C517 N514 1.350 . S
C517 C516 1.434 . S
C518 C519 1.369 . S
C518 C520 1.419 . S
C518 H522 0.930 . S
C519 C518 1.369 . S
C519 C528 1.429 . S
C520 C518 1.419 . S
C520 C521 1.363 . S
C520 H523 0.929 . S
C521 C520 1.363 . S
C521 C527 1.428 . S
H522 C518 0.930 . S
H523 C520 0.929 . S
S524 N525 1.613 . S
S524 N526 1.610 . S
N525 S524 1.613 . S
N525 C528 1.350 . S
N526 S524 1.610 . S
N526 C527 1.351 . S
C527 C521 1.428 . S
C527 N526 1.351 . S
C527 C528 1.434 . S
C528 C519 1.429 . S
C528 N525 1.350 . S
C528 C527 1.434 . S
C529 C530 1.369 . S
C529 C531 1.419 . S
C529 H533 0.930 . S
C530 C529 1.369 . S
C530 C539 1.429 . S
C531 C529 1.419 . S
C531 C532 1.363 . S
C531 H534 0.929 . S
C532 C531 1.363 . S
C532 C538 1.428 . S
H533 C529 0.930 . S
H534 C531 0.929 . S
S535 N536 1.613 . S
S535 N537 1.610 . S
N536 S535 1.613 . S
N536 C539 1.350 . S
N537 S535 1.610 . S
N537 C538 1.351 . S
C538 C532 1.428 . S
C538 N537 1.351 . S
C538 C539 1.434 . S
C539 C530 1.429 . S
C539 N536 1.350 . S
C539 C538 1.434 . S
C540 C541 1.369 . S
C540 C542 1.419 1_455 S
C540 H544 0.930 . S
C541 C540 1.369 . S
C541 C550 1.429 . S
C542 C540 1.419 1_655 S
C542 C543 1.363 . S
C542 H545 0.929 . S
C543 C542 1.363 . S
C543 C549 1.428 . S
H544 C540 0.930 . S
H545 C542 0.929 . S
S546 N547 1.613 . S
S546 N548 1.610 1_455 S
N547 S546 1.613 . S
N547 C550 1.350 . S
N548 S546 1.610 1_655 S
N548 C549 1.351 . S
C549 C543 1.428 . S
C549 N548 1.351 . S
C549 C550 1.434 1_655 S
C550 C541 1.429 . S
C550 N547 1.350 . S
C550 C549 1.434 1_455 S
C551 C552 1.369 . S
C551 C553 1.419 1_655 S
C551 H555 0.930 . S
C552 C551 1.369 . S
C552 C561 1.429 . S
C553 C551 1.419 1_455 S
C553 C554 1.363 . S
C553 H556 0.929 . S
C554 C553 1.363 . S
C554 C560 1.428 . S
H555 C551 0.930 . S
H556 C553 0.929 . S
S557 N558 1.650 . S
S557 N559 1.574 1_655 S
N558 S557 1.650 . S
N558 C561 1.350 1_554 S
N559 S557 1.574 1_455 S
N559 C560 1.351 1_554 S
C560 C554 1.428 . S
C560 N559 1.351 1_556 S
C560 C561 1.434 1_455 S
C561 C552 1.429 . S
C561 N558 1.350 1_556 S
C561 C560 1.434 1_655 S
C562 C563 1.369 . S
C562 C564 1.419 . S
C562 H566 0.930 . S
C563 C562 1.369 . S
C563 C572 1.429 . S
C564 C562 1.419 . S
C564 C565 1.363 . S
C564 H567 0.929 . S
C565 C564 1.363 . S
C565 C571 1.428 . S
H566 C562 0.930 . S
H567 C564 0.929 . S
S568 N569 1.613 . S
S568 N570 1.610 . S
N569 S568 1.613 . S
N569 C572 1.350 . S
N570 S568 1.610 . S
N570 C571 1.351 . S
C571 C565 1.428 . S
C571 N570 1.351 . S
C571 C572 1.434 . S
C572 C563 1.429 . S
C572 N569 1.350 . S
C572 C571 1.434 . S
C573 C574 1.369 . S
C573 C575 1.419 . S
C573 H577 0.930 . S
C574 C573 1.369 . S
C574 C583 1.429 . S
C575 C573 1.419 . S
C575 C576 1.363 . S
C575 H578 0.929 . S
C576 C575 1.363 . S
C576 C582 1.428 . S
H577 C573 0.930 . S
H578 C575 0.929 . S
S579 N580 1.613 . S
S579 N581 1.610 . S
N580 S579 1.613 . S
N580 C583 1.350 . S
N581 S579 1.610 . S
N581 C582 1.351 . S
C582 C576 1.428 . S
C582 N581 1.351 . S
C582 C583 1.434 . S
C583 C574 1.429 . S
C583 N580 1.350 . S
C583 C582 1.434 . S
C321 C7 1.712 . S
C323 C296 1.710 . S
C332 C256 1.714 . S
C334 C47 1.708 . S
C343 C207 1.709 . S
C345 C96 1.711 . S
C354 C167 1.714 . S
C356 C136 1.708 . S
C365 C90 1.620 . S
C367 C10 1.648 . S
C376 C50 1.644 . S
C378 C130 1.626 . S
C387 C139 1.648 . S
C389 C59 1.622 . S
C398 C99 1.643 . S
C400 C19 1.628 . S
C409 C170 1.443 . S
C411 C250 1.448 . S
C420 C210 1.451 . S
C422 C290 1.444 . S
C431 C299 1.446 . S
C433 C219 1.449 . S
C442 C259 1.447 . S
C444 C179 1.449 . S
C453 C11 2.080 . S
C455 C2 2.073 . S
C464 C51 2.077 . S
C466 C42 2.075 . S
C475 C91 2.073 . S
C477 C82 2.078 . S
C486 C122 2.074 . S
C488 C131 2.078 . S
C497 C162 2.072 . S
C499 C171 2.078 . S
C508 C211 2.078 . S
C510 C202 2.074 . S
C519 C242 2.072 . S
C521 C251 2.078 . S
C530 C282 2.077 . S
C532 C291 2.074 . S
C541 C16 2.253 . S
C543 C56 2.253 . S
C552 C127 2.254 . S
C554 C87 2.253 . S
C563 C176 2.252 . S
C565 C216 2.253 . S
C574 C287 2.252 . S
C576 C247 2.253 . S
