# Generated by pormake.
# Topology ukc, (4)-cn, num edge types: 1
# Building blocks:
#     Node 0, Type 0, BuildingBlock: TATPOV_clean_sbu_0, # of connection points: 4
#     Node 1, Type 0, BuildingBlock: TATPOV_clean_sbu_0, # of connection points: 4
#     Node 2, Type 0, BuildingBlock: TATPOV_clean_sbu_0, # of connection points: 4
#     Node 3, Type 0, BuildingBlock: TATPOV_clean_sbu_0, # of connection points: 4
#     Node 4, Type 0, BuildingBlock: TATPOV_clean_sbu_0, # of connection points: 4
#     Node 5, Type 0, BuildingBlock: TATPOV_clean_sbu_0, # of connection points: 4
#     Node 6, Type 0, BuildingBlock: TATPOV_clean_sbu_0, # of connection points: 4
#     Node 7, Type 0, BuildingBlock: TATPOV_clean_sbu_0, # of connection points: 4
#     Node 8, Type 0, BuildingBlock: TATPOV_clean_sbu_0, # of connection points: 4
#     Node 9, Type 0, BuildingBlock: TATPOV_clean_sbu_0, # of connection points: 4
#     Node 10, Type 0, BuildingBlock: TATPOV_clean_sbu_0, # of connection points: 4
#     Node 11, Type 0, BuildingBlock: TATPOV_clean_sbu_0, # of connection points: 4
#     Node 12, Type 0, BuildingBlock: TATPOV_clean_sbu_0, # of connection points: 4
#     Node 13, Type 0, BuildingBlock: TATPOV_clean_sbu_0, # of connection points: 4
#     Node 14, Type 0, BuildingBlock: TATPOV_clean_sbu_0, # of connection points: 4
#     Node 15, Type 0, BuildingBlock: TATPOV_clean_sbu_0, # of connection points: 4
#     Node 16, Type 0, BuildingBlock: TATPOV_clean_sbu_0, # of connection points: 4
#     Node 17, Type 0, BuildingBlock: TATPOV_clean_sbu_0, # of connection points: 4
#     Node 18, Type 0, BuildingBlock: TATPOV_clean_sbu_0, # of connection points: 4
#     Node 19, Type 0, BuildingBlock: TATPOV_clean_sbu_0, # of connection points: 4
#     Node 20, Type 0, BuildingBlock: TATPOV_clean_sbu_0, # of connection points: 4
#     Node 21, Type 0, BuildingBlock: TATPOV_clean_sbu_0, # of connection points: 4
#     Node 22, Type 0, BuildingBlock: TATPOV_clean_sbu_0, # of connection points: 4
#     Node 23, Type 0, BuildingBlock: TATPOV_clean_sbu_0, # of connection points: 4
#     Node 24, Type 0, BuildingBlock: TATPOV_clean_sbu_0, # of connection points: 4
#     Node 25, Type 0, BuildingBlock: TATPOV_clean_sbu_0, # of connection points: 4
#     Node 26, Type 0, BuildingBlock: TATPOV_clean_sbu_0, # of connection points: 4
#     Node 27, Type 0, BuildingBlock: TATPOV_clean_sbu_0, # of connection points: 4
#     Node 28, Type 0, BuildingBlock: TATPOV_clean_sbu_0, # of connection points: 4
#     Node 29, Type 0, BuildingBlock: TATPOV_clean_sbu_0, # of connection points: 4
#     Node 30, Type 0, BuildingBlock: TATPOV_clean_sbu_0, # of connection points: 4
#     Node 31, Type 0, BuildingBlock: TATPOV_clean_sbu_0, # of connection points: 4
#     Edge 32, Type (0, 0), BuildingBlock: KIFKEQ_clean_linker_1, # of connection points: 2
#     Edge 33, Type (0, 0), BuildingBlock: KIFKEQ_clean_linker_1, # of connection points: 2
#     Edge 34, Type (0, 0), BuildingBlock: KIFKEQ_clean_linker_1, # of connection points: 2
#     Edge 35, Type (0, 0), BuildingBlock: KIFKEQ_clean_linker_1, # of connection points: 2
#     Edge 36, Type (0, 0), BuildingBlock: KIFKEQ_clean_linker_1, # of connection points: 2
#     Edge 37, Type (0, 0), BuildingBlock: KIFKEQ_clean_linker_1, # of connection points: 2
#     Edge 38, Type (0, 0), BuildingBlock: KIFKEQ_clean_linker_1, # of connection points: 2
#     Edge 39, Type (0, 0), BuildingBlock: KIFKEQ_clean_linker_1, # of connection points: 2
#     Edge 40, Type (0, 0), BuildingBlock: KIFKEQ_clean_linker_1, # of connection points: 2
#     Edge 41, Type (0, 0), BuildingBlock: KIFKEQ_clean_linker_1, # of connection points: 2
#     Edge 42, Type (0, 0), BuildingBlock: KIFKEQ_clean_linker_1, # of connection points: 2
#     Edge 43, Type (0, 0), BuildingBlock: KIFKEQ_clean_linker_1, # of connection points: 2
#     Edge 44, Type (0, 0), BuildingBlock: KIFKEQ_clean_linker_1, # of connection points: 2
#     Edge 45, Type (0, 0), BuildingBlock: KIFKEQ_clean_linker_1, # of connection points: 2
#     Edge 46, Type (0, 0), BuildingBlock: KIFKEQ_clean_linker_1, # of connection points: 2
#     Edge 47, Type (0, 0), BuildingBlock: KIFKEQ_clean_linker_1, # of connection points: 2
#     Edge 48, Type (0, 0), BuildingBlock: KIFKEQ_clean_linker_1, # of connection points: 2
#     Edge 49, Type (0, 0), BuildingBlock: KIFKEQ_clean_linker_1, # of connection points: 2
#     Edge 50, Type (0, 0), BuildingBlock: KIFKEQ_clean_linker_1, # of connection points: 2
#     Edge 51, Type (0, 0), BuildingBlock: KIFKEQ_clean_linker_1, # of connection points: 2
#     Edge 52, Type (0, 0), BuildingBlock: KIFKEQ_clean_linker_1, # of connection points: 2
#     Edge 53, Type (0, 0), BuildingBlock: KIFKEQ_clean_linker_1, # of connection points: 2
#     Edge 54, Type (0, 0), BuildingBlock: KIFKEQ_clean_linker_1, # of connection points: 2
#     Edge 55, Type (0, 0), BuildingBlock: KIFKEQ_clean_linker_1, # of connection points: 2
#     Edge 56, Type (0, 0), BuildingBlock: KIFKEQ_clean_linker_1, # of connection points: 2
#     Edge 57, Type (0, 0), BuildingBlock: KIFKEQ_clean_linker_1, # of connection points: 2
#     Edge 58, Type (0, 0), BuildingBlock: KIFKEQ_clean_linker_1, # of connection points: 2
#     Edge 59, Type (0, 0), BuildingBlock: KIFKEQ_clean_linker_1, # of connection points: 2
#     Edge 60, Type (0, 0), BuildingBlock: KIFKEQ_clean_linker_1, # of connection points: 2
#     Edge 61, Type (0, 0), BuildingBlock: KIFKEQ_clean_linker_1, # of connection points: 2
#     Edge 62, Type (0, 0), BuildingBlock: KIFKEQ_clean_linker_1, # of connection points: 2
#     Edge 63, Type (0, 0), BuildingBlock: KIFKEQ_clean_linker_1, # of connection points: 2
#     Edge 64, Type (0, 0), BuildingBlock: KIFKEQ_clean_linker_1, # of connection points: 2
#     Edge 65, Type (0, 0), BuildingBlock: KIFKEQ_clean_linker_1, # of connection points: 2
#     Edge 66, Type (0, 0), BuildingBlock: KIFKEQ_clean_linker_1, # of connection points: 2
#     Edge 67, Type (0, 0), BuildingBlock: KIFKEQ_clean_linker_1, # of connection points: 2
#     Edge 68, Type (0, 0), BuildingBlock: KIFKEQ_clean_linker_1, # of connection points: 2
#     Edge 69, Type (0, 0), BuildingBlock: KIFKEQ_clean_linker_1, # of connection points: 2
#     Edge 70, Type (0, 0), BuildingBlock: KIFKEQ_clean_linker_1, # of connection points: 2
#     Edge 71, Type (0, 0), BuildingBlock: KIFKEQ_clean_linker_1, # of connection points: 2
#     Edge 72, Type (0, 0), BuildingBlock: KIFKEQ_clean_linker_1, # of connection points: 2
#     Edge 73, Type (0, 0), BuildingBlock: KIFKEQ_clean_linker_1, # of connection points: 2
#     Edge 74, Type (0, 0), BuildingBlock: KIFKEQ_clean_linker_1, # of connection points: 2
#     Edge 75, Type (0, 0), BuildingBlock: KIFKEQ_clean_linker_1, # of connection points: 2
#     Edge 76, Type (0, 0), BuildingBlock: KIFKEQ_clean_linker_1, # of connection points: 2
#     Edge 77, Type (0, 0), BuildingBlock: KIFKEQ_clean_linker_1, # of connection points: 2
#     Edge 78, Type (0, 0), BuildingBlock: KIFKEQ_clean_linker_1, # of connection points: 2
#     Edge 79, Type (0, 0), BuildingBlock: KIFKEQ_clean_linker_1, # of connection points: 2
#     Edge 80, Type (0, 0), BuildingBlock: KIFKEQ_clean_linker_1, # of connection points: 2
#     Edge 81, Type (0, 0), BuildingBlock: KIFKEQ_clean_linker_1, # of connection points: 2
#     Edge 82, Type (0, 0), BuildingBlock: KIFKEQ_clean_linker_1, # of connection points: 2
#     Edge 83, Type (0, 0), BuildingBlock: KIFKEQ_clean_linker_1, # of connection points: 2
#     Edge 84, Type (0, 0), BuildingBlock: KIFKEQ_clean_linker_1, # of connection points: 2
#     Edge 85, Type (0, 0), BuildingBlock: KIFKEQ_clean_linker_1, # of connection points: 2
#     Edge 86, Type (0, 0), BuildingBlock: KIFKEQ_clean_linker_1, # of connection points: 2
#     Edge 87, Type (0, 0), BuildingBlock: KIFKEQ_clean_linker_1, # of connection points: 2
#     Edge 88, Type (0, 0), BuildingBlock: KIFKEQ_clean_linker_1, # of connection points: 2
#     Edge 89, Type (0, 0), BuildingBlock: KIFKEQ_clean_linker_1, # of connection points: 2
#     Edge 90, Type (0, 0), BuildingBlock: KIFKEQ_clean_linker_1, # of connection points: 2
#     Edge 91, Type (0, 0), BuildingBlock: KIFKEQ_clean_linker_1, # of connection points: 2
#     Edge 92, Type (0, 0), BuildingBlock: KIFKEQ_clean_linker_1, # of connection points: 2
#     Edge 93, Type (0, 0), BuildingBlock: KIFKEQ_clean_linker_1, # of connection points: 2
#     Edge 94, Type (0, 0), BuildingBlock: KIFKEQ_clean_linker_1, # of connection points: 2
#     Edge 95, Type (0, 0), BuildingBlock: KIFKEQ_clean_linker_1, # of connection points: 2
# Relax obj value: 0.024
# Max RMSD: 0.064
# Mean RMSD: 0.064
data_MOF--net-ukc--node1-TATPOV_clean_sbu_0--edge1-KIFKEQ_clean_linker_1
_symmetry_space_group_name_H-M    P1
_symmetry_Int_Tables_number       1
_symmetry_cell_setting            triclinic
loop_
_symmetry_equiv_pos_as_xyz
'x, y, z'
_cell_length_a     45.543673
_cell_length_b     45.494742
_cell_length_c     88.807994
_cell_angle_alpha  90.0155
_cell_angle_beta   89.927641
_cell_angle_gamma 89.952776
loop_
_atom_site_label
_atom_site_type_symbol
_atom_site_fract_x
_atom_site_fract_y
_atom_site_fract_z
_atom_type_partial_charge
Zn0 Zn 0.05417 0.3968 0.04752 0.0
Zn1 Zn 0.10178 0.39299 0.03107 0.0
O2 O 0.11689 0.40185 0.05282 0.0
O3 O 0.07645 0.40196 0.0664 0.0
O4 O 0.13928 0.39176 0.01817 0.0
O5 O 0.03984 0.43201 0.03704 0.0
O6 O 0.07711 0.42682 0.02145 0.0
C7 C 0.10401 0.40461 0.06553 0.0
C8 C 0.05682 0.34232 0.0321 0.0
O9 O 0.08202 0.35186 0.02805 0.0
O10 O 0.04027 0.35779 0.04033 0.0
C11 C 0.16399 0.38299 0.02321 0.0
O12 O 0.16561 0.37374 0.0372 0.0
C13 C 0.05351 0.44003 0.02537 0.0
Zn14 Zn 0.82834 0.81529 0.30586 0.0
Zn15 Zn 0.84438 0.85242 0.28585 0.0
O16 O 0.83387 0.87571 0.30552 0.0
O17 O 0.8162 0.84334 0.32146 0.0
O18 O 0.85506 0.8867 0.27181 0.0
O19 O 0.79829 0.79743 0.2931 0.0
O20 O 0.81051 0.82899 0.2754 0.0
C21 C 0.82239 0.86964 0.31828 0.0
C22 C 0.88717 0.80455 0.29642 0.0
O23 O 0.88182 0.82586 0.28743 0.0
O24 O 0.86807 0.79694 0.30601 0.0
C25 C 0.84607 0.89048 0.25836 0.0
O26 O 0.82955 0.87022 0.25212 0.0
C27 C 0.79497 0.80732 0.27994 0.0
Zn28 Zn 0.46137 0.63981 0.54984 0.0
Zn29 Zn 0.41586 0.63797 0.53204 0.0
O30 O 0.40101 0.62297 0.55306 0.0
O31 O 0.44104 0.62076 0.56684 0.0
O32 O 0.37847 0.63695 0.51923 0.0
O33 O 0.4843 0.61478 0.53577 0.0
O34 O 0.44505 0.60969 0.52152 0.0
C35 C 0.41385 0.61622 0.56538 0.0
C36 C 0.44955 0.69583 0.53805 0.0
O37 O 0.43081 0.68125 0.5304 0.0
O38 O 0.46422 0.68344 0.54831 0.0
C39 C 0.35536 0.64963 0.52408 0.0
O40 O 0.35655 0.66353 0.53704 0.0
C41 C 0.47189 0.6037 0.52438 0.0
Zn42 Zn 0.65591 0.18187 0.80467 0.0
Zn43 Zn 0.64758 0.14052 0.78587 0.0
O44 O 0.66442 0.12143 0.80558 0.0
O45 O 0.67813 0.15875 0.81955 0.0
O46 O 0.64341 0.10446 0.77214 0.0
O47 O 0.67758 0.20638 0.79024 0.0
O48 O 0.67531 0.16933 0.77435 0.0
C49 C 0.67676 0.13136 0.81745 0.0
C50 C 0.59577 0.17738 0.79748 0.0
O51 O 0.60561 0.15886 0.78788 0.0
O52 O 0.61292 0.18866 0.80706 0.0
C53 C 0.63083 0.08153 0.77729 0.0
O54 O 0.61956 0.08252 0.79091 0.0
C55 C 0.684 0.19528 0.77764 0.0
Zn56 Zn 0.07355 0.60737 0.42816 0.0
Zn57 Zn 0.11896 0.62496 0.4447 0.0
O58 O 0.13618 0.61191 0.42396 0.0
O59 O 0.09849 0.59514 0.41101 0.0
O60 O 0.15647 0.63458 0.45646 0.0
O61 O 0.06232 0.57703 0.44286 0.0
O62 O 0.09831 0.59261 0.4574 0.0
C63 C 0.12571 0.59988 0.41214 0.0
C64 C 0.06886 0.66796 0.43783 0.0
O65 O 0.09366 0.66304 0.44408 0.0
O66 O 0.05649 0.64798 0.43019 0.0
C67 C 0.15903 0.63193 0.47068 0.0
O68 O 0.13598 0.62409 0.47862 0.0
C69 C 0.07652 0.57559 0.45504 0.0
Zn70 Zn 0.6471 0.79183 0.68438 0.0
Zn71 Zn 0.64039 0.84053 0.69969 0.0
O72 O 0.64615 0.8535 0.67741 0.0
O73 O 0.64752 0.81209 0.66463 0.0
O74 O 0.63598 0.88004 0.71064 0.0
O75 O 0.68479 0.7831 0.69424 0.0
O76 O 0.67773 0.82136 0.709 0.0
C77 C 0.6483 0.83985 0.66489 0.0
C78 C 0.59455 0.79045 0.70131 0.0
O79 O 0.60177 0.81697 0.70434 0.0
O80 O 0.61088 0.77461 0.69315 0.0
C81 C 0.64029 0.88332 0.72471 0.0
O82 O 0.64726 0.8602 0.73283 0.0
C83 C 0.69285 0.79888 0.70518 0.0
Zn84 Zn 0.45242 0.41812 0.93145 0.0
Zn85 Zn 0.40751 0.40549 0.94909 0.0
O86 O 0.38914 0.41325 0.92798 0.0
O87 O 0.42723 0.42231 0.91345 0.0
O88 O 0.37158 0.39896 0.96275 0.0
O89 O 0.46295 0.45369 0.94276 0.0
O90 O 0.42811 0.44169 0.95885 0.0
C91 C 0.3998 0.41963 0.91509 0.0
C92 C 0.45836 0.36142 0.94501 0.0
O93 O 0.43285 0.36715 0.95031 0.0
O94 O 0.47143 0.38002 0.93681 0.0
C95 C 0.3475 0.3882 0.95793 0.0
O96 O 0.34593 0.37956 0.94383 0.0
C97 C 0.44914 0.45857 0.95484 0.0
Zn98 Zn 0.85893 0.18791 0.17607 0.0
Zn99 Zn 0.86648 0.143 0.19341 0.0
O100 O 0.85274 0.1266 0.17254 0.0
O101 O 0.83975 0.16576 0.1597 0.0
O102 O 0.86893 0.1058 0.2065 0.0
O103 O 0.83446 0.20924 0.19078 0.0
O104 O 0.83622 0.16926 0.2047 0.0
C105 C 0.84169 0.13815 0.16072 0.0
C106 C 0.91851 0.18248 0.1849 0.0
O107 O 0.90827 0.16221 0.19338 0.0
O108 O 0.902 0.19536 0.17555 0.0
C109 C 0.87699 0.08116 0.20103 0.0
O110 O 0.88552 0.08008 0.18691 0.0
C111 C 0.82676 0.19533 0.20243 0.0
Zn112 Zn 0.93164 0.58658 0.92403 0.0
Zn113 Zn 0.89304 0.60834 0.94285 0.0
O114 O 0.87052 0.59515 0.92345 0.0
O115 O 0.90271 0.57203 0.90926 0.0
O116 O 0.8591 0.61918 0.95701 0.0
O117 O 0.94801 0.55865 0.93869 0.0
O118 O 0.91641 0.57697 0.955 0.0
C119 C 0.87668 0.58033 0.91165 0.0
C120 C 0.94106 0.64834 0.93083 0.0
O121 O 0.91916 0.64526 0.93972 0.0
O122 O 0.94929 0.62707 0.92263 0.0
C123 C 0.8368 0.63338 0.9523 0.0
O124 O 0.83687 0.64324 0.93839 0.0
C125 C 0.93742 0.5594 0.95183 0.0
Zn126 Zn 0.14193 0.19632 0.67807 0.0
Zn127 Zn 0.13766 0.14728 0.69386 0.0
O128 O 0.15109 0.13385 0.67244 0.0
O129 O 0.15525 0.17526 0.65982 0.0
O130 O 0.1344 0.10816 0.70519 0.0
O131 O 0.17177 0.21202 0.69198 0.0
O132 O 0.16922 0.17135 0.70538 0.0
C133 C 0.15772 0.14762 0.66037 0.0
C134 C 0.08495 0.1899 0.69005 0.0
O135 O 0.09596 0.16641 0.69558 0.0
O136 O 0.10003 0.20644 0.68166 0.0
C137 C 0.13453 0.1061 0.71949 0.0
O138 O 0.13656 0.13023 0.72756 0.0
C139 C 0.18008 0.19686 0.7031 0.0
Zn140 Zn 0.5837 0.44141 0.42811 0.0
Zn141 Zn 0.6231 0.42092 0.44585 0.0
O142 O 0.64313 0.42563 0.42465 0.0
O143 O 0.6094 0.44645 0.41055 0.0
O144 O 0.65799 0.41229 0.45977 0.0
O145 O 0.57312 0.4761 0.43996 0.0
O146 O 0.60441 0.45773 0.45628 0.0
C147 C 0.6351 0.4365 0.41203 0.0
C148 C 0.56943 0.38342 0.43949 0.0
O149 O 0.59394 0.38549 0.44645 0.0
O150 O 0.56097 0.40418 0.43104 0.0
C151 C 0.67656 0.39153 0.45824 0.0
O152 O 0.67286 0.3723 0.44737 0.0
C153 C 0.58547 0.47721 0.45265 0.0
Zn154 Zn 0.33994 0.80386 0.17819 0.0
Zn155 Zn 0.35377 0.846 0.19764 0.0
O156 O 0.34513 0.86759 0.17744 0.0
O157 O 0.33137 0.83236 0.16193 0.0
O158 O 0.36003 0.88029 0.21227 0.0
O159 O 0.30672 0.7899 0.19042 0.0
O160 O 0.31817 0.82398 0.20704 0.0
C161 C 0.33561 0.85928 0.16461 0.0
C162 C 0.3979 0.79662 0.19067 0.0
O163 O 0.39183 0.82028 0.19783 0.0
O164 O 0.37959 0.78599 0.18144 0.0
C165 C 0.37759 0.90147 0.20964 0.0
O166 O 0.39388 0.9006 0.19743 0.0
C167 C 0.30197 0.80259 0.20283 0.0
Zn168 Zn 0.95213 0.42726 0.5566 0.0
Zn169 Zn 0.91342 0.41362 0.53698 0.0
O170 O 0.89081 0.42462 0.55682 0.0
O171 O 0.92477 0.44128 0.57214 0.0
O172 O 0.87951 0.40819 0.52202 0.0
O173 O 0.97274 0.456 0.54403 0.0
O174 O 0.93915 0.4462 0.52697 0.0
C175 C 0.89808 0.43609 0.56941 0.0
C176 C 0.958 0.36744 0.5471 0.0
O177 O 0.93712 0.37415 0.5381 0.0
O178 O 0.96691 0.38607 0.55663 0.0
C179 C 0.86095 0.38726 0.52256 0.0
O180 O 0.86433 0.36655 0.53272 0.0
C181 C 0.96214 0.46016 0.53108 0.0
Zn182 Zn 0.34065 0.18052 0.30746 0.0
Zn183 Zn 0.35071 0.13753 0.2893 0.0
O184 O 0.34228 0.11815 0.31033 0.0
O185 O 0.33096 0.15565 0.32484 0.0
O186 O 0.35436 0.10163 0.27543 0.0
O187 O 0.30844 0.19753 0.2958 0.0
O188 O 0.317 0.16221 0.27944 0.0
C189 C 0.33398 0.12829 0.32307 0.0
C190 C 0.3982 0.1841 0.29468 0.0
O191 O 0.39038 0.1605 0.28797 0.0
O192 O 0.38099 0.19625 0.30399 0.0
C193 C 0.37767 0.08642 0.27383 0.0
O194 O 0.40154 0.09445 0.28103 0.0
C195 C 0.30287 0.18528 0.28338 0.0
Zn196 Zn 0.55962 0.62455 0.05304 0.0
Zn197 Zn 0.60433 0.63083 0.03623 0.0
O198 O 0.61957 0.61117 0.05614 0.0
O199 O 0.57905 0.59963 0.06818 0.0
O200 O 0.64238 0.63521 0.02402 0.0
O201 O 0.53654 0.6055 0.03696 0.0
O202 O 0.57704 0.60412 0.02343 0.0
C203 C 0.60669 0.59869 0.06722 0.0
C204 C 0.56798 0.68407 0.04725 0.0
O205 O 0.58684 0.67338 0.03807 0.0
O206 O 0.55487 0.66741 0.05644 0.0
C207 C 0.64385 0.63412 0.0097 0.0
O208 O 0.61952 0.63074 0.00196 0.0
C209 C 0.54999 0.59755 0.0252 0.0
Zn210 Zn 0.17121 0.81647 0.80487 0.0
Zn211 Zn 0.15186 0.85479 0.7851 0.0
O212 O 0.16564 0.87777 0.80422 0.0
O213 O 0.18666 0.84573 0.8193 0.0
O214 O 0.14335 0.88868 0.77053 0.0
O215 O 0.19871 0.79769 0.79066 0.0
O216 O 0.18149 0.82821 0.77353 0.0
C217 C 0.17967 0.87192 0.81629 0.0
C218 C 0.10905 0.81006 0.79752 0.0
O219 O 0.11355 0.83124 0.78836 0.0
O220 O 0.12958 0.80119 0.80603 0.0
C221 C 0.12892 0.91108 0.77499 0.0
O222 O 0.11761 0.9108 0.78861 0.0
C223 C 0.19807 0.80673 0.77723 0.0
Zn224 Zn 0.57659 0.93588 0.5456 0.0
Zn225 Zn 0.61931 0.91482 0.52989 0.0
O226 O 0.63406 0.91622 0.55223 0.0
O227 O 0.59705 0.93476 0.56503 0.0
O228 O 0.65674 0.90309 0.51846 0.0
O229 O 0.57428 0.97357 0.53505 0.0
O230 O 0.60709 0.95447 0.51968 0.0
C231 C 0.62288 0.92475 0.5647 0.0
C232 C 0.56125 0.88146 0.53097 0.0
O233 O 0.58795 0.88194 0.52648 0.0
O234 O 0.55142 0.90227 0.539 0.0
C235 C 0.66006 0.90693 0.50435 0.0
O236 O 0.63791 0.91722 0.49648 0.0
C237 C 0.58973 0.97541 0.52329 0.0
Zn238 Zn 0.34296 0.29424 0.80593 0.0
Zn239 Zn 0.36164 0.33658 0.78812 0.0
O240 O 0.34883 0.35594 0.80843 0.0
O241 O 0.33141 0.32042 0.82263 0.0
O242 O 0.37173 0.3733 0.77567 0.0
O243 O 0.31289 0.28113 0.79149 0.0
O244 O 0.32896 0.31535 0.77598 0.0
C245 C 0.33704 0.34733 0.82072 0.0
C246 C 0.40352 0.28685 0.79709 0.0
O247 O 0.39936 0.31045 0.78955 0.0
O248 O 0.38302 0.27642 0.8051 0.0
C249 C 0.3675 0.37603 0.76156 0.0
O250 O 0.35783 0.35332 0.75389 0.0
C251 C 0.31175 0.29393 0.77889 0.0
Zn252 Zn 0.94922 0.0931 0.04352 0.0
Zn253 Zn 0.9025 0.10609 0.0274 0.0
O254 O 0.88613 0.09698 0.04885 0.0
O255 O 0.92602 0.08963 0.06229 0.0
O256 O 0.86573 0.11326 0.01459 0.0
O257 O 0.95743 0.05692 0.03206 0.0
O258 O 0.92209 0.07047 0.01663 0.0
C259 C 0.89836 0.09108 0.06142 0.0
C260 C 0.95408 0.14955 0.02974 0.0
O261 O 0.92764 0.14437 0.02572 0.0
O262 O 0.96838 0.13061 0.03714 0.0
C263 C 0.84133 0.12234 0.01991 0.0
O264 O 0.83954 0.12869 0.03431 0.0
C265 C 0.94285 0.05289 0.02016 0.0
Zn266 Zn 0.13394 0.68646 0.29854 0.0
Zn267 Zn 0.12222 0.64587 0.28002 0.0
O268 O 0.1379 0.62532 0.29946 0.0
O269 O 0.15751 0.66163 0.31229 0.0
O270 O 0.11733 0.61085 0.26576 0.0
O271 O 0.15462 0.71126 0.28384 0.0
O272 O 0.15171 0.67309 0.2687 0.0
C273 C 0.15312 0.63446 0.31058 0.0
C274 C 0.07302 0.6844 0.29259 0.0
O275 O 0.08129 0.66624 0.28244 0.0
O276 O 0.09134 0.69398 0.30209 0.0
C277 C 0.09988 0.58958 0.26841 0.0
O278 O 0.08269 0.59095 0.28028 0.0
C279 C 0.161 0.69902 0.27151 0.0
Zn280 Zn 0.55752 0.10732 0.92472 0.0
Zn281 Zn 0.60011 0.11498 0.94404 0.0
O282 O 0.62022 0.10044 0.92419 0.0
O283 O 0.58363 0.09329 0.90849 0.0
O284 O 0.63498 0.11892 0.95844 0.0
O285 O 0.53776 0.07809 0.93761 0.0
O286 O 0.57293 0.08429 0.95431 0.0
C287 C 0.61077 0.09219 0.91133 0.0
C288 C 0.55768 0.16572 0.93618 0.0
O289 O 0.5797 0.15622 0.94368 0.0
O290 O 0.54521 0.14916 0.9267 0.0
C291 C 0.6594 0.12945 0.95395 0.0
O292 O 0.66148 0.13902 0.94003 0.0
C293 C 0.54892 0.07212 0.95026 0.0
Zn294 Zn 0.16793 0.30696 0.17966 0.0
Zn295 Zn 0.14599 0.34802 0.19657 0.0
O296 O 0.15787 0.36751 0.17605 0.0
O297 O 0.17847 0.33251 0.16264 0.0
O298 O 0.13632 0.384 0.20954 0.0
O299 O 0.19874 0.2949 0.1939 0.0
O300 O 0.17781 0.32654 0.2093 0.0
C301 C 0.17069 0.35901 0.16399 0.0
C302 C 0.10688 0.29692 0.18802 0.0
O303 O 0.10904 0.32133 0.19507 0.0
O304 O 0.1286 0.28707 0.18064 0.0
C305 C 0.11265 0.39893 0.20929 0.0
O306 O 0.09102 0.39033 0.20057 0.0
C307 C 0.1969 0.30656 0.20675 0.0
Zn308 Zn 0.95964 0.92051 0.42404 0.0
Zn309 Zn 0.91559 0.90867 0.44244 0.0
O310 O 0.89669 0.91983 0.42185 0.0
O311 O 0.93384 0.92809 0.40659 0.0
O312 O 0.87933 0.90285 0.4559 0.0
O313 O 0.97273 0.95416 0.4363 0.0
O314 O 0.93833 0.94275 0.45275 0.0
C315 C 0.90649 0.92699 0.40889 0.0
C316 C 0.96401 0.86266 0.43664 0.0
O317 O 0.93947 0.86924 0.44282 0.0
O318 O 0.9767 0.88097 0.42812 0.0
C319 C 0.85651 0.88986 0.45092 0.0
O320 O 0.8573 0.87851 0.43732 0.0
C321 C 0.96004 0.95871 0.44873 0.0
Zn322 Zn 0.35275 0.68061 0.6855 0.0
Zn323 Zn 0.36018 0.63378 0.70083 0.0
O324 O 0.3545 0.6193 0.67851 0.0
O325 O 0.35089 0.66079 0.66591 0.0
O326 O 0.36345 0.59542 0.71295 0.0
O327 O 0.31558 0.69168 0.69485 0.0
O328 O 0.32403 0.65538 0.71061 0.0
C329 C 0.3511 0.63305 0.66608 0.0
C330 C 0.40631 0.68305 0.7015 0.0
O331 O 0.39941 0.65659 0.70481 0.0
O332 O 0.38939 0.69855 0.6935 0.0
C333 C 0.37744 0.57313 0.70801 0.0
O334 O 0.39085 0.57511 0.69494 0.0
C335 C 0.30862 0.67751 0.70652 0.0
Zn336 Zn 0.46369 0.13705 0.42814 0.0
Zn337 Zn 0.42219 0.1403 0.44804 0.0
O338 O 0.40365 0.12046 0.42897 0.0
O339 O 0.44074 0.11412 0.41346 0.0
O340 O 0.38687 0.14265 0.46241 0.0
O341 O 0.48955 0.11575 0.44238 0.0
O342 O 0.45329 0.11442 0.45882 0.0
C343 C 0.41395 0.11048 0.41659 0.0
C344 C 0.45504 0.19568 0.43671 0.0
O345 O 0.43776 0.18346 0.44617 0.0
O346 O 0.46723 0.18052 0.42653 0.0
C347 C 0.36227 0.15197 0.45747 0.0
O348 O 0.36063 0.16079 0.44341 0.0
C349 C 0.47953 0.10769 0.455 0.0
Zn350 Zn 0.64902 0.68109 0.18154 0.0
Zn351 Zn 0.63356 0.63724 0.19863 0.0
O352 O 0.64687 0.61835 0.17812 0.0
O353 O 0.65908 0.65638 0.16417 0.0
O354 O 0.6265 0.6015 0.21233 0.0
O355 O 0.68118 0.69441 0.19456 0.0
O356 O 0.66513 0.66096 0.2105 0.0
C357 C 0.65662 0.62892 0.16575 0.0
C358 C 0.58931 0.68619 0.19184 0.0
O359 O 0.59434 0.66111 0.19783 0.0
O360 O 0.6092 0.69888 0.18429 0.0
C361 C 0.61783 0.57659 0.20748 0.0
O362 O 0.61146 0.57377 0.19313 0.0
C363 C 0.68232 0.68225 0.2073 0.0
Zn364 Zn 0.06527 0.89263 0.9223 0.0
Zn365 Zn 0.10408 0.88014 0.94273 0.0
O366 O 0.12702 0.89622 0.92411 0.0
O367 O 0.0931 0.91412 0.90908 0.0
O368 O 0.13706 0.87396 0.95813 0.0
O369 O 0.04061 0.91515 0.93654 0.0
O370 O 0.07578 0.90949 0.95328 0.0
C371 C 0.11984 0.91038 0.91226 0.0
C372 C 0.06545 0.83156 0.92938 0.0
O373 O 0.08333 0.83975 0.93964 0.0
O374 O 0.05668 0.84977 0.91959 0.0
C375 C 0.16225 0.86446 0.95415 0.0
O376 O 0.16634 0.85671 0.94005 0.0
C377 C 0.05091 0.92015 0.94948 0.0
Zn378 Zn 0.8383 0.31003 0.67904 0.0
Zn379 Zn 0.85513 0.35326 0.69636 0.0
O380 O 0.84466 0.37235 0.67558 0.0
O381 O 0.83311 0.33491 0.66109 0.0
O382 O 0.86462 0.38866 0.7099 0.0
O383 O 0.80363 0.30057 0.69137 0.0
O384 O 0.82049 0.33299 0.70762 0.0
C385 C 0.83653 0.36225 0.66283 0.0
C386 C 0.89594 0.30053 0.69097 0.0
O387 O 0.89241 0.32631 0.69644 0.0
O388 O 0.87579 0.28886 0.68321 0.0
C389 C 0.87534 0.4127 0.70496 0.0
O390 O 0.88193 0.41479 0.6906 0.0
C391 C 0.80194 0.31314 0.70402 0.0
Zn392 Zn 0.43223 0.92817 0.05273 0.0
Zn393 Zn 0.39385 0.90329 0.03448 0.0
O394 O 0.37202 0.91308 0.05459 0.0
O395 O 0.40343 0.93741 0.06867 0.0
O396 O 0.3607 0.89003 0.02036 0.0
O397 O 0.44308 0.95922 0.03835 0.0
O398 O 0.41292 0.93753 0.02249 0.0
C399 C 0.37804 0.92705 0.06667 0.0
C400 C 0.44713 0.86801 0.04441 0.0
O401 O 0.42367 0.86899 0.03653 0.0
O402 O 0.45449 0.8899 0.05239 0.0
C403 C 0.33644 0.87934 0.025 0.0
O404 O 0.33296 0.8745 0.03947 0.0
C405 C 0.43165 0.95758 0.02544 0.0
Zn406 Zn 0.86033 0.69134 0.80345 0.0
Zn407 Zn 0.87533 0.65064 0.78375 0.0
O408 O 0.85805 0.62893 0.80252 0.0
O409 O 0.84019 0.66363 0.81717 0.0
O410 O 0.88203 0.61662 0.7689 0.0
O411 O 0.83632 0.71313 0.78871 0.0
O412 O 0.84693 0.67842 0.77224 0.0
C413 C 0.84385 0.63672 0.81426 0.0
C414 C 0.92229 0.69118 0.79692 0.0
O415 O 0.91544 0.67147 0.78728 0.0
O416 O 0.90296 0.70149 0.80572 0.0
C417 C 0.89022 0.59126 0.77335 0.0
O418 O 0.8966 0.58754 0.78765 0.0
C419 C 0.83383 0.70235 0.77567 0.0
Zn420 Zn 0.07594 0.11901 0.54768 0.0
Zn421 Zn 0.11703 0.13218 0.53007 0.0
O422 O 0.13633 0.11485 0.54964 0.0
O423 O 0.09928 0.0959 0.5621 0.0
O424 O 0.15281 0.13948 0.51644 0.0
O425 O 0.05255 0.09829 0.53253 0.0
O426 O 0.09085 0.10332 0.51763 0.0
C427 C 0.12656 0.09996 0.56077 0.0
C428 C 0.07625 0.17997 0.54276 0.0
O429 O 0.0956 0.17274 0.53298 0.0
O430 O 0.06624 0.16081 0.5517 0.0
C431 C 0.17735 0.14801 0.52179 0.0
O432 O 0.17914 0.15389 0.53625 0.0
C433 C 0.06507 0.0933 0.52011 0.0
Zn434 Zn 0.65115 0.2898 0.30037 0.0
Zn435 Zn 0.63817 0.33527 0.28334 0.0
O436 O 0.65072 0.35302 0.30409 0.0
O437 O 0.65831 0.31427 0.31838 0.0
O438 O 0.63089 0.37147 0.26999 0.0
O439 O 0.68491 0.27839 0.28771 0.0
O440 O 0.67182 0.31363 0.27208 0.0
C441 C 0.65778 0.34185 0.31678 0.0
C442 C 0.59318 0.2855 0.28857 0.0
O443 O 0.59902 0.31097 0.28323 0.0
O444 O 0.6122 0.27187 0.29624 0.0
C445 C 0.62184 0.39614 0.27501 0.0
O446 O 0.61555 0.39856 0.2894 0.0
C447 C 0.68848 0.29202 0.27546 0.0
H448 H 0.94059 0.57097 0.98198 0.0
H449 H 0.96805 0.50894 0.94792 0.0
H450 H 0.97174 0.54608 0.00038 0.0
H451 H 0.99819 0.48346 0.9663 0.0
H452 H 0.07075 0.4585 -0.00273 0.0
H453 H 0.04278 0.48966 0.98008 0.0
H454 H 0.9763 0.50188 0.01431 0.0
H455 H 0.00461 0.47213 0.03156 0.0
C456 C 0.95275 0.55162 0.97854 0.0
C457 C 0.95196 0.54186 0.96357 0.0
C458 C 0.97072 0.53745 0.98903 0.0
C459 C 0.98788 0.51308 0.98474 0.0
C460 C 0.98601 0.50269 0.96988 0.0
C461 C 0.96839 0.51703 0.9594 0.0
C462 C 0.05049 0.46839 0.00119 0.0
C463 C 0.03973 0.4625 0.01569 0.0
C464 C 0.03429 0.48596 -0.00869 0.0
C465 C 0.007 0.49778 -0.00426 0.0
C466 C 0.99723 0.49329 0.01054 0.0
C467 C 0.01346 0.47599 0.02041 0.0
H468 H 0.73455 0.70941 0.20306 0.0
H469 H 0.6707 0.68754 0.23722 0.0
H470 H 0.76047 0.74061 0.2209 0.0
H471 H 0.69558 0.71995 0.25492 0.0
H472 H 0.76312 0.75868 0.28663 0.0
H473 H 0.73732 0.72676 0.26953 0.0
H474 H 0.75536 0.78676 0.23289 0.0
H475 H 0.78301 0.81828 0.25007 0.0
C476 C 0.72632 0.71107 0.21448 0.0
C477 C 0.7008 0.696 0.21884 0.0
C478 C 0.74084 0.72932 0.22462 0.0
C479 C 0.72982 0.7333 0.23926 0.0
C480 C 0.70487 0.71725 0.24378 0.0
C481 C 0.69065 0.69853 0.23368 0.0
C482 C 0.76148 0.76536 0.27495 0.0
C483 C 0.77541 0.79098 0.26968 0.0
C484 C 0.74644 0.74699 0.26513 0.0
C485 C 0.74443 0.75396 0.24979 0.0
C486 C 0.75711 0.78036 0.2446 0.0
C487 C 0.77262 0.79865 0.25445 0.0
H488 H 0.55579 0.52753 0.44662 0.0
H489 H 0.58982 0.47548 0.48339 0.0
H490 H 0.52917 0.55825 0.4644 0.0
H491 H 0.56271 0.50618 0.50125 0.0
H492 H 0.52806 0.58495 0.52865 0.0
H493 H 0.55838 0.55615 0.51163 0.0
H494 H 0.48588 0.55 0.48046 0.0
H495 H 0.45549 0.57942 0.49741 0.0
C496 C 0.55789 0.5229 0.45854 0.0
C497 C 0.57467 0.49895 0.46363 0.0
C498 C 0.54241 0.54033 0.46869 0.0
C499 C 0.54333 0.53418 0.48416 0.0
C500 C 0.56157 0.51138 0.48937 0.0
C501 C 0.57719 0.4939 0.47917 0.0
C502 C 0.51847 0.57743 0.51819 0.0
C503 C 0.48936 0.58463 0.51433 0.0
C504 C 0.53587 0.5608 0.50848 0.0
C505 C 0.52459 0.55104 0.49469 0.0
C506 C 0.49531 0.5577 0.49093 0.0
C507 C 0.47783 0.57433 0.50067 0.0
H508 H 0.75251 0.28194 0.69812 0.0
H509 H 0.80412 0.3172 0.7347 0.0
H510 H 0.72287 0.25435 0.716 0.0
H511 H 0.77483 0.289 0.75262 0.0
H512 H 0.70111 0.25201 0.78131 0.0
H513 H 0.72678 0.28325 0.76361 0.0
H514 H 0.73088 0.21142 0.73181 0.0
H515 H 0.70421 0.18005 0.7495 0.0
C516 C 0.75726 0.28408 0.71003 0.0
C517 C 0.78074 0.30156 0.71504 0.0
C518 C 0.74049 0.26802 0.72023 0.0
C519 C 0.7469 0.26902 0.73567 0.0
C520 C 0.76931 0.28784 0.74078 0.0
C521 C 0.78603 0.30408 0.73054 0.0
C522 C 0.70747 0.24272 0.77056 0.0
C523 C 0.70062 0.21344 0.76681 0.0
C524 C 0.72232 0.2607 0.76044 0.0
C525 C 0.73083 0.24986 0.74633 0.0
C526 C 0.72417 0.22053 0.74255 0.0
C527 C 0.70913 0.20248 0.7527 0.0
H528 H 0.01485 0.48649 0.5359 0.0
H529 H 0.94687 0.47625 0.50235 0.0
H530 H 0.04496 0.51278 0.51794 0.0
H531 H 0.97673 0.50389 0.48444 0.0
H532 H 0.04781 0.52416 0.45116 0.0
H533 H 0.0204 0.49678 0.47001 0.0
H534 H 0.05005 0.55732 0.50433 0.0
H535 H 0.07849 0.58402 0.48544 0.0
C536 C 0.00607 0.49028 0.52474 0.0
C537 C 0.97847 0.4791 0.52051 0.0
C538 C 0.02338 0.5055 0.51445 0.0
C539 C 0.01342 0.51022 0.49972 0.0
C540 C 0.98533 0.50001 0.49563 0.0
C541 C 0.96807 0.48446 0.50591 0.0
C542 C 0.04891 0.53122 0.4628 0.0
C543 C 0.06514 0.55618 0.46689 0.0
C544 C 0.03289 0.5158 0.47356 0.0
C545 C 0.03245 0.52527 0.4886 0.0
C546 C 0.04998 0.54939 0.49283 0.0
C547 C 0.06638 0.56462 0.48206 0.0
H548 H 0.71813 0.82558 0.72977 0.0
H549 H 0.72532 0.74961 0.70071 0.0
H550 H 0.75659 0.80526 0.74588 0.0
H551 H 0.76206 0.72882 0.71702 0.0
H552 H 0.83831 0.70088 0.74497 0.0
H553 H 0.80937 0.72905 0.72689 0.0
H554 H 0.75938 0.76694 0.76356 0.0
H555 H 0.78926 0.74012 0.78147 0.0
C556 C 0.72803 0.80473 0.72676 0.0
C557 C 0.71841 0.78909 0.71408 0.0
C558 C 0.74989 0.79295 0.73603 0.0
C559 C 0.7622 0.76518 0.73287 0.0
C560 C 0.75348 0.75037 0.71976 0.0
C561 C 0.73206 0.76226 0.71044 0.0
C562 C 0.82113 0.71528 0.74908 0.0
C563 C 0.81587 0.71821 0.76457 0.0
C564 C 0.80454 0.73145 0.73877 0.0
C565 C 0.782 0.75035 0.74375 0.0
C566 C 0.77695 0.75321 0.75928 0.0
C567 C 0.79384 0.73751 0.76956 0.0
H568 H 0.43772 0.46726 0.98481 0.0
H569 H 0.48434 0.50405 0.94681 0.0
H570 H 0.46128 0.50307 0.00136 0.0
H571 H 0.50734 0.53997 0.96323 0.0
H572 H 0.57192 0.56942 0.00026 0.0
H573 H 0.54492 0.53793 0.98282 0.0
H574 H 0.46459 0.55536 0.0072 0.0
H575 H 0.49143 0.58617 0.02471 0.0
C576 C 0.4525 0.48334 0.97996 0.0
C577 C 0.45943 0.48266 0.96457 0.0
C578 C 0.46599 0.50383 0.98941 0.0
C579 C 0.48647 0.52403 0.98359 0.0
C580 C 0.49218 0.52424 0.96808 0.0
C581 C 0.47883 0.50378 0.95868 0.0
C582 C 0.54849 0.56664 0.00181 0.0
C583 C 0.53389 0.58007 0.01392 0.0
C584 C 0.53299 0.54874 -0.00819 0.0
C585 C 0.50265 0.54409 -0.00628 0.0
C586 C 0.48801 0.55813 0.0056 0.0
C587 C 0.50344 0.5759 0.01558 0.0
H588 H 0.80944 0.25254 0.2022 0.0
H589 H 0.79973 0.17154 0.2272 0.0
H590 H 0.77749 0.27749 0.21995 0.0
H591 H 0.76689 0.19651 0.24481 0.0
H592 H 0.73449 0.25623 0.28186 0.0
H593 H 0.76853 0.23355 0.26428 0.0
H594 H 0.72663 0.27937 0.22747 0.0
H595 H 0.69289 0.30278 0.2452 0.0
C596 C 0.80032 0.23996 0.21144 0.0
C597 C 0.8071 0.21 0.2133 0.0
C598 C 0.78186 0.25429 0.22157 0.0
C599 C 0.76963 0.23899 0.23375 0.0
C600 C 0.77634 0.209 0.23562 0.0
C601 C 0.795 0.19464 0.22551 0.0
C602 C 0.73268 0.26169 0.27002 0.0
C603 C 0.71092 0.28116 0.26487 0.0
C604 C 0.75204 0.24848 0.25995 0.0
C605 C 0.74999 0.25431 0.24448 0.0
C606 C 0.72886 0.27457 0.23935 0.0
C607 C 0.70955 0.28799 0.24948 0.0
H608 H 0.26386 0.25979 0.78361 0.0
H609 H 0.31492 0.30064 0.74831 0.0
H610 H 0.23363 0.2355 0.76487 0.0
H611 H 0.28509 0.2755 0.72944 0.0
H612 H 0.20464 0.25114 0.70125 0.0
H613 H 0.23651 0.27505 0.71923 0.0
H614 H 0.23674 0.19648 0.7466 0.0
H615 H 0.20369 0.17262 0.72872 0.0
C616 C 0.26858 0.26361 0.77181 0.0
C617 C 0.29174 0.2821 0.76739 0.0
C618 C 0.25146 0.24941 0.76108 0.0
C619 C 0.25724 0.25319 0.74569 0.0
C620 C 0.27998 0.27227 0.74124 0.0
C621 C 0.29701 0.28673 0.75201 0.0
C622 C 0.21153 0.23878 0.71106 0.0
C623 C 0.20142 0.20999 0.71362 0.0
C624 C 0.23003 0.25251 0.72132 0.0
C625 C 0.23907 0.23775 0.73436 0.0
C626 C 0.22971 0.20861 0.73675 0.0
C627 C 0.21097 0.19486 0.72648 0.0
H628 H 0.1752 0.75694 0.27242 0.0
H629 H 0.18853 0.67788 0.24624 0.0
H630 H 0.20712 0.78393 0.25548 0.0
H631 H 0.22129 0.7049 0.22942 0.0
H632 H 0.25683 0.76731 0.19447 0.0
H633 H 0.22103 0.74342 0.21063 0.0
H634 H 0.25875 0.78665 0.24939 0.0
H635 H 0.29429 0.81126 0.23309 0.0
C636 C 0.18503 0.74527 0.26305 0.0
C637 C 0.17948 0.7152 0.26069 0.0
C638 C 0.20345 0.76076 0.25339 0.0
C639 C 0.21687 0.74653 0.24119 0.0
C640 C 0.21098 0.71655 0.23866 0.0
C641 C 0.19234 0.70103 0.2483 0.0
C642 C 0.25735 0.77194 0.20644 0.0
C643 C 0.27849 0.791 0.21256 0.0
C644 C 0.23695 0.75807 0.21569 0.0
C645 C 0.23733 0.76282 0.23129 0.0
C646 C 0.2578 0.78271 0.23738 0.0
C647 C 0.27816 0.79679 0.22807 0.0
H648 H 0.27003 0.23387 0.28921 0.0
H649 H 0.29082 0.17179 0.25387 0.0
H650 H 0.24501 0.26492 0.27124 0.0
H651 H 0.26429 0.20245 0.23587 0.0
H652 H 0.24952 0.27896 0.20465 0.0
H653 H 0.27279 0.24839 0.22368 0.0
H654 H 0.20421 0.27143 0.2553 0.0
H655 H 0.18169 0.30302 0.23638 0.0
C656 C 0.26871 0.22647 0.27763 0.0
C657 C 0.2828 0.2005 0.27292 0.0
C658 C 0.25418 0.24432 0.26732 0.0
C659 C 0.25305 0.23647 0.25207 0.0
C660 C 0.26548 0.20952 0.2475 0.0
C661 C 0.28033 0.19172 0.25783 0.0
C662 C 0.23982 0.27794 0.21579 0.0
C663 C 0.21387 0.29334 0.21908 0.0
C664 C 0.25285 0.26006 0.22661 0.0
C665 C 0.23999 0.25687 0.2409 0.0
C666 C 0.21476 0.27343 0.24442 0.0
C667 C 0.20193 0.29169 0.23363 0.0
H668 H 0.18057 0.79493 0.74859 0.0
H669 H 0.24975 0.77805 0.7806 0.0
H670 H 0.20167 0.75853 0.73156 0.0
H671 H 0.27196 0.74298 0.76334 0.0
H672 H 0.29673 0.66554 0.73626 0.0
H673 H 0.26677 0.69561 0.75314 0.0
H674 H 0.24051 0.74968 0.71541 0.0
H675 H 0.2686 0.71882 0.69866 0.0
C676 C 0.2008 0.78403 0.75175 0.0
C677 C 0.21371 0.78938 0.7658 0.0
C678 C 0.21283 0.76302 0.74206 0.0
C679 C 0.23836 0.74741 0.74613 0.0
C680 C 0.25181 0.75379 0.76 0.0
C681 C 0.23944 0.77431 0.76978 0.0
C682 C 0.28374 0.68325 0.73157 0.0
C683 C 0.28546 0.69013 0.7162 0.0
C684 C 0.26694 0.70082 0.74125 0.0
C685 C 0.25186 0.72566 0.73572 0.0
C686 C 0.2517 0.73084 0.72015 0.0
C687 C 0.26807 0.71314 0.71051 0.0
H688 H 0.56989 0.02955 0.53081 0.0
H689 H 0.59449 0.9761 0.49261 0.0
H690 H 0.54624 0.06464 0.51407 0.0
H691 H 0.57038 0.01113 0.4758 0.0
H692 H 0.53547 0.08953 0.44934 0.0
H693 H 0.56788 0.06164 0.4657 0.0
H694 H 0.50013 0.05912 0.49977 0.0
H695 H 0.46764 0.08751 0.48346 0.0
C696 C 0.57085 0.02571 0.51878 0.0
C697 C 0.58363 0.99995 0.51298 0.0
C698 C 0.55707 0.04564 0.50923 0.0
C699 C 0.55579 0.04018 0.4937 0.0
C700 C 0.57098 0.01584 0.48775 0.0
C701 C 0.58491 0.99586 0.49734 0.0
C702 C 0.52742 0.08314 0.46034 0.0
C703 C 0.49888 0.0907 0.4651 0.0
C704 C 0.54605 0.06709 0.46968 0.0
C705 C 0.53662 0.05834 0.48401 0.0
C706 C 0.50817 0.06602 0.48884 0.0
C707 C 0.48946 0.08205 0.47947 0.0
H708 H 0.06744 0.94221 0.97692 0.0
H709 H 0.99423 0.93777 0.94604 0.0
H710 H 0.03783 0.97195 -0.00596 0.0
H711 H 0.96452 0.96658 0.9633 0.0
H712 H 0.93605 0.05005 0.98962 0.0
H713 H 0.96096 0.01614 0.97253 0.0
H714 H 0.99612 0.96875 0.01066 0.0
H715 H 0.97202 1.00309 0.02765 0.0
C716 C 0.04502 0.94739 0.97385 0.0
C717 C 0.03328 0.9378 0.96011 0.0
C718 C 0.02795 0.96423 0.98369 0.0
C719 C 0.99877 0.97155 0.98002 0.0
C720 C 0.98701 0.96166 0.96635 0.0
C721 C 0.00408 0.94505 0.95649 0.0
C722 C 0.94859 0.032 -0.0057 0.0
C723 C 0.95241 0.02935 0.00991 0.0
C724 C 0.9629 0.01259 0.98454 0.0
C725 C 0.98097 0.9901 -0.00973 0.0
C726 C 0.98304 0.98634 0.00591 0.0
C727 C 0.96901 0.00583 0.01563 0.0
H728 H 0.497 0.04469 0.94468 0.0
H729 H 0.56276 0.05662 0.97924 0.0
H730 H 0.46619 0.0183 0.96234 0.0
H731 H 0.53211 0.02913 -0.00314 0.0
H732 H 0.45823 0.01043 0.02896 0.0
H733 H 0.48653 0.03725 0.01024 0.0
H734 H 0.46186 0.97347 0.97645 0.0
H735 H 0.43277 0.94706 -0.00483 0.0
C736 C 0.50512 0.04131 0.95601 0.0
C737 C 0.53228 0.05299 0.96061 0.0
C738 C 0.48742 0.02604 0.96611 0.0
C739 C 0.49653 0.02192 0.98103 0.0
C740 C 0.52421 0.03255 0.9855 0.0
C741 C 0.54192 0.04802 0.97539 0.0
C742 C 0.45842 1.00246 0.01746 0.0
C743 C 0.44346 0.97661 0.0135 0.0
C744 C 0.47493 0.0176 0.00679 0.0
C745 C 0.477 0.00708 -0.00803 0.0
C746 C 0.46067 0.98213 0.9878 0.0
C747 C 0.4439 0.96708 -0.00152 0.0
H748 H 0.0069 0.08088 0.51999 0.0
H749 H 0.08681 0.06657 0.49468 0.0
H750 H 0.97994 0.05064 0.50233 0.0
H751 H 0.05971 0.03537 0.47708 0.0
H752 H 0.99733 1.00285 0.44111 0.0
H753 H 0.02202 0.03709 0.45784 0.0
H754 H 0.97608 0.99944 0.49583 0.0
H755 H 0.95073 0.96554 0.47899 0.0
C756 C 0.01878 0.07115 0.51065 0.0
C757 C 0.04909 0.07591 0.50877 0.0
C758 C 1.00328 0.05369 0.50058 0.0
C759 C 0.0177 0.04039 0.48841 0.0
C760 C 0.04793 0.04558 0.4863 0.0
C761 C 0.06349 0.06331 0.49638 0.0
C762 C 0.99227 1.00204 0.45303 0.0
C763 C 0.97218 0.98141 0.45878 0.0
C764 C 0.00661 0.02152 0.46261 0.0
C765 C 1.00128 0.02074 0.47815 0.0
C766 C 0.98048 1.00074 0.48386 0.0
C767 C 0.96595 0.98131 0.47424 0.0
H768 H 0.01134 0.15709 0.02261 0.0
H769 H 0.93037 0.20486 0.02876 0.0
H770 H 0.03787 0.203 0.0194 0.0
H771 H 0.95703 0.25115 0.02655 0.0
H772 H 0.00687 0.3324 0.01676 0.0
H773 H 0.98259 0.28541 0.01262 0.0
H774 H 0.05577 0.24104 0.03385 0.0
H775 H 0.08063 0.28815 0.03697 0.0
C776 C 0.99922 0.17757 0.02324 0.0
C777 C 0.96885 0.17751 0.02602 0.0
C778 C 0.01448 0.20395 0.02153 0.0
C779 C 0.99988 0.23106 0.02294 0.0
C780 C 0.96915 0.23086 0.02517 0.0
C781 C 0.95375 0.20433 0.02651 0.0
C782 C 0.01802 0.31238 0.02011 0.0
C783 C 0.04561 0.31367 0.02708 0.0
C784 C 0.00395 0.28546 0.01795 0.0
C785 C 0.01679 0.25922 0.02313 0.0
C786 C 0.04518 0.26056 0.0295 0.0
C787 C 0.05956 0.28754 0.03133 0.0
H788 H 0.0448 0.70761 0.31659 0.0
H789 H 0.03457 0.6916 0.26895 0.0
H790 H 1.00012 0.73659 0.31673 0.0
H791 H 0.98899 0.72065 0.26913 0.0
H792 H 0.93064 0.80616 0.27465 0.0
H793 H 0.97408 0.77422 0.27295 0.0
H794 H 0.94762 0.73033 0.31388 0.0
H795 H 0.90522 0.76212 0.31578 0.0
C796 C 0.03265 0.70985 0.30617 0.0
C797 C 0.04316 0.69723 0.29277 0.0
C798 C 0.00698 0.72648 0.30626 0.0
C799 C 0.99105 0.73105 0.29293 0.0
C800 C 1.00101 0.71776 0.27954 0.0
C801 C 0.02679 0.70079 0.27948 0.0
C802 C 0.93433 0.78985 0.28332 0.0
C803 C 0.91455 0.78693 0.29541 0.0
C804 C 0.95896 0.77134 0.28225 0.0
C805 C 0.96427 0.74975 0.29329 0.0
C806 C 0.9444 0.74692 0.30528 0.0
C807 C 0.91999 0.76523 0.30635 0.0
H808 H 0.46584 0.71686 0.51058 0.0
H809 H 0.45341 0.74206 0.55697 0.0
H810 H 0.49106 0.76375 0.50569 0.0
H811 H 0.47761 0.78896 0.55205 0.0
H812 H 0.5026 0.87861 0.53639 0.0
H813 H 0.47092 0.83581 0.5353 0.0
H814 H 0.54233 0.78415 0.51738 0.0
H815 H 0.57469 0.8273 0.51859 0.0
C816 C 0.46751 0.73293 0.51954 0.0
C817 C 0.45739 0.72621 0.5341 0.0
C818 C 0.48223 0.75947 0.5168 0.0
C819 C 0.4863 0.77985 0.5285 0.0
C820 C 0.47456 0.77373 0.5428 0.0
C821 C 0.4606 0.74702 0.54561 0.0
C822 C 0.51166 0.8583 0.53202 0.0
C823 C 0.54145 0.85628 0.52785 0.0
C824 C 0.49337 0.83382 0.53137 0.0
C825 C 0.50424 0.8067 0.52639 0.0
C826 C 0.5334 0.80494 0.5212 0.0
C827 C 0.55193 0.82956 0.52196 0.0
H828 H 0.56371 0.19803 0.82082 0.0
H829 H 0.55978 0.18331 0.77283 0.0
H830 H 0.51724 0.22423 0.81986 0.0
H831 H 0.5127 0.20982 0.77186 0.0
H832 H 0.44998 0.29322 0.77725 0.0
H833 H 0.49527 0.26372 0.77644 0.0
H834 H 0.46494 0.21342 0.81461 0.0
H835 H 0.42049 0.24256 0.81557 0.0
C836 C 0.5526 0.19998 0.81008 0.0
C837 C 0.56528 0.18847 0.79691 0.0
C838 C 0.52598 0.21503 0.80953 0.0
C839 C 0.51141 0.21923 0.79577 0.0
C840 C 0.52364 0.20713 0.78259 0.0
C841 C 0.55029 0.19162 0.78318 0.0
C842 C 0.45315 0.27596 0.78549 0.0
C843 C 0.43167 0.27042 0.79652 0.0
C844 C 0.47886 0.25888 0.78492 0.0
C845 C 0.48359 0.23627 0.79546 0.0
C846 C 0.46206 0.23082 0.80641 0.0
C847 C 0.43651 0.24759 0.80692 0.0
H848 H 0.94057 0.81093 0.44762 0.0
H849 H 0.02148 0.85003 0.43196 0.0
H850 H 0.96589 0.7635 0.45027 0.0
H851 H 0.04636 0.8032 0.43451 0.0
H852 H 0.08957 0.71923 0.45045 0.0
H853 H 0.0635 0.76613 0.45283 0.0
H854 H 0.98702 0.72766 0.43199 0.0
H855 H 0.01271 0.68109 0.42969 0.0
C856 C 0.96371 0.80949 0.44489 0.0
C857 C 0.97888 0.83416 0.43942 0.0
C858 C 0.97819 0.78238 0.44635 0.0
C859 C 0.00815 0.77963 0.44259 0.0
C860 C 0.02342 0.8046 0.43767 0.0
C861 C 0.00898 0.83142 0.43606 0.0
C862 C 0.06716 0.72078 0.44645 0.0
C863 C 0.05341 0.69647 0.43973 0.0
C864 C 0.05222 0.74761 0.44781 0.0
C865 C 0.02315 0.75057 0.44262 0.0
C866 C 0.00921 0.72603 0.43629 0.0
C867 C 0.02415 0.69939 0.43482 0.0
H868 H 0.58812 0.73712 0.71415 0.0
H869 H 0.53923 0.81357 0.70026 0.0
H870 H 0.54257 0.71055 0.71863 0.0
H871 H 0.49344 0.78664 0.70373 0.0
H872 H 0.41251 0.73707 0.71359 0.0
H873 H 0.4579 0.76383 0.71809 0.0
H874 H 0.50751 0.68729 0.70415 0.0
H875 H 0.46182 0.66017 0.70067 0.0
C876 C 0.56744 0.74833 0.71227 0.0
C877 C 0.56704 0.77733 0.70687 0.0
C878 C 0.54131 0.733 0.71464 0.0
C879 C 0.51411 0.74604 0.71126 0.0
C880 C 0.51379 0.77578 0.70665 0.0
C881 C 0.54003 0.79135 0.70462 0.0
C882 C 0.43324 0.72583 0.71188 0.0
C883 C 0.4338 0.69663 0.70675 0.0
C884 C 0.45929 0.74126 0.71428 0.0
C885 C 0.4866 0.72812 0.71121 0.0
C886 C 0.48706 0.69824 0.70684 0.0
C887 C 0.46089 0.68257 0.70478 0.0
H888 H 0.57852 0.21062 0.95421 0.0
H889 H 0.50598 0.18666 0.92535 0.0
H890 H 0.55422 0.25769 0.95964 0.0
H891 H 0.48208 0.233 0.93081 0.0
H892 H 0.43335 0.30805 0.9518 0.0
H893 H 0.4581 0.26014 0.95216 0.0
H894 H 0.54139 0.30288 0.94447 0.0
H895 H 0.51689 0.35041 0.94413 0.0
C896 C 0.55753 0.21534 0.94903 0.0
C897 C 0.54437 0.19491 0.93927 0.0
C898 C 0.54358 0.24219 0.95217 0.0
C899 C 0.51604 0.24883 0.94581 0.0
C900 C 0.50295 0.22832 0.93614 0.0
C901 C 0.51695 0.20184 0.93286 0.0
C902 C 0.45699 0.30719 0.95051 0.0
C903 C 0.4731 0.33291 0.94773 0.0
C904 C 0.47114 0.27982 0.95064 0.0
C905 C 0.50167 0.27778 0.9482 0.0
C906 C 0.51793 0.3037 0.94645 0.0
C907 C 0.5038 0.33092 0.94614 0.0
H908 H 0.05761 0.30396 0.20591 0.0
H909 H 0.09497 0.2484 0.17132 0.0
H910 H 0.01371 0.27251 0.20643 0.0
H911 H 0.05178 0.21742 0.17197 0.0
H912 H 0.95378 0.19986 0.16224 0.0
H913 H 0.99989 0.22653 0.16408 0.0
H914 H 0.99748 0.21827 0.21251 0.0
H915 H 0.95088 0.19107 0.2106 0.0
C916 C 0.0565 0.28517 0.19845 0.0
C917 C 0.07972 0.27891 0.18849 0.0
C918 C 0.03157 0.26701 0.19887 0.0
C919 C 0.02939 0.24253 0.18923 0.0
C920 C 0.05273 0.23622 0.17945 0.0
C921 C 0.07752 0.25409 0.17909 0.0
C922 C 0.96341 0.20315 0.17326 0.0
C923 C 0.94895 0.19321 0.18626 0.0
C924 C 0.98977 0.21848 0.17433 0.0
C925 C 1.00219 0.22463 0.18844 0.0
C926 C 0.98822 0.214 0.20149 0.0
C927 C 0.96188 0.19811 0.2004 0.0
H928 H 0.98189 0.66396 0.91001 0.0
H929 H 0.94098 0.69425 0.95112 0.0
H930 H 0.01443 0.70611 0.91023 0.0
H931 H 0.97368 0.73713 0.95119 0.0
H932 H 0.05805 0.79423 0.95343 0.0
H933 H 0.02771 0.74966 0.95413 0.0
H934 H 0.01024 0.75909 0.90659 0.0
H935 H 0.04047 0.80302 0.90586 0.0
C936 C 0.97964 0.67977 0.91906 0.0
C937 C 0.95869 0.67574 0.93053 0.0
C938 C 0.99834 0.704 0.91916 0.0
C939 C 0.99672 0.72493 0.93074 0.0
C940 C 0.97567 0.72115 0.94221 0.0
C941 C 0.95672 0.69683 0.94207 0.0
C942 C 0.04823 0.78634 0.94309 0.0
C943 C 0.05172 0.80207 0.92959 0.0
C944 C 0.03053 0.76111 0.94353 0.0
C945 C 0.01638 0.75101 0.93044 0.0
C946 C 0.02094 0.76615 0.91685 0.0
C947 C 0.03829 0.79136 0.91645 0.0
H948 H 0.90117 0.24129 0.68998 0.0
H949 H 0.9514 0.32007 0.69838 0.0
H950 H 0.94512 0.21167 0.69266 0.0
H951 H 0.99606 0.29029 0.70055 0.0
H952 H 0.03428 0.17611 0.67583 0.0
H953 H 0.98765 0.20227 0.67802 0.0
H954 H 0.02306 0.25397 0.71461 0.0
H955 H 0.06994 0.22806 0.712 0.0
C956 C 0.92172 0.25233 0.69236 0.0
C957 C 0.92289 0.28312 0.69376 0.0
C958 C 0.94697 0.23528 0.69386 0.0
C959 C 0.97427 0.24852 0.6966 0.0
C960 C 0.97535 0.27929 0.69855 0.0
C961 C 0.94984 0.29642 0.69723 0.0
C962 C 0.03162 0.19237 0.68465 0.0
C963 C 0.05524 0.19972 0.69397 0.0
C964 C 0.00499 0.2075 0.6859 0.0
C965 C 1.00157 0.23041 0.69647 0.0
C966 C 0.02501 0.23677 0.70623 0.0
C967 C 0.05165 0.22165 0.70493 0.0
H968 H 0.51732 0.37434 0.42541 0.0
H969 H 0.5773 0.33331 0.45675 0.0
H970 H 0.48583 0.33158 0.42638 0.0
H971 H 0.5452 0.28988 0.45762 0.0
H972 H 0.46545 0.22602 0.46279 0.0
H973 H 0.4919 0.27294 0.46508 0.0
H974 H 0.49394 0.28043 0.41662 0.0
H975 H 0.46804 0.23386 0.41438 0.0
C976 C 0.52384 0.35624 0.43259 0.0
C977 C 0.55016 0.35722 0.44089 0.0
C978 C 0.50564 0.33169 0.43312 0.0
C979 C 0.51309 0.30736 0.44201 0.0
C980 C 0.53884 0.30849 0.45075 0.0
C981 C 0.55731 0.3332 0.45016 0.0
C982 C 0.47087 0.23821 0.45269 0.0
C983 C 0.46452 0.22651 0.43841 0.0
C984 C 0.48635 0.26476 0.45399 0.0
C985 C 0.49513 0.2802 0.44103 0.0
C986 C 0.48734 0.26914 0.42682 0.0
C987 C 0.47241 0.24252 0.42552 0.0
H988 H 0.44873 0.81575 0.20441 0.0
H989 H 0.40974 0.74012 0.18283 0.0
H990 H 0.49485 0.78835 0.20721 0.0
H991 H 0.45537 0.71313 0.18558 0.0
H992 H 0.53639 0.6642 0.20201 0.0
H993 H 0.48972 0.69091 0.20428 0.0
H994 H 0.53215 0.77023 0.18883 0.0
H995 H 0.57828 0.74394 0.1866 0.0
C996 C 0.44991 0.79331 0.20038 0.0
C997 C 0.42567 0.78031 0.19324 0.0
C998 C 0.47627 0.77763 0.20195 0.0
C999 C 0.47871 0.74854 0.19662 0.0
C1000 C 0.45414 0.73532 0.18998 0.0
C1001 C 0.42804 0.75101 0.18825 0.0
C1002 C 0.53571 0.68736 0.19921 0.0
C1003 C 0.56098 0.70179 0.19395 0.0
C1004 C 0.50904 0.70265 0.20049 0.0
C1005 C 0.5073 0.73272 0.19676 0.0
C1006 C 0.5328 0.74723 0.19198 0.0
C1007 C 0.55921 0.73197 0.19054 0.0
H1008 H 0.95789 0.32621 0.52416 0.0
H1009 H 0.99523 0.34491 0.56784 0.0
H1010 H 0.9887 0.28186 0.52243 0.0
H1011 H 0.02599 0.30179 0.56593 0.0
H1012 H 0.04865 0.20514 0.56642 0.0
H1013 H 0.01913 0.24939 0.56668 0.0
H1014 H 0.04238 0.26631 0.52031 0.0
H1015 H 0.07188 0.22095 0.51995 0.0
C1016 C 0.97239 0.32077 0.53341 0.0
C1017 C 0.97393 0.33903 0.54617 0.0
C1018 C 0.99031 0.29566 0.53233 0.0
C1019 C 0.00983 0.28835 0.54404 0.0
C1020 C 0.01101 0.30654 0.55678 0.0
C1021 C 0.99331 0.33138 0.55785 0.0
C1022 C 0.04785 0.2184 0.55629 0.0
C1023 C 0.06273 0.20957 0.54318 0.0
C1024 C 0.03089 0.24385 0.55645 0.0
C1025 C 0.02831 0.26137 0.54351 0.0
C1026 C 0.04371 0.25305 0.53042 0.0
C1027 C 0.06094 0.2274 0.53028 0.0
H1028 H 0.44537 0.16319 0.2783 0.0
H1029 H 0.415 0.23881 0.30338 0.0
H1030 H 0.49212 0.18839 0.27359 0.0
H1031 H 0.46121 0.26352 0.29878 0.0
H1032 H 0.54034 0.31052 0.28046 0.0
H1033 H 0.4925 0.28587 0.27907 0.0
H1034 H 0.53393 0.20303 0.28971 0.0
H1035 H 0.58126 0.22731 0.29097 0.0
C1036 C 0.44858 0.18512 0.28274 0.0
C1037 C 0.42655 0.19878 0.29135 0.0
C1038 C 0.47529 0.19957 0.28004 0.0
C1039 C 0.48029 0.22804 0.28575 0.0
C1040 C 0.45794 0.24185 0.29401 0.0
C1041 C 0.43152 0.22742 0.29681 0.0
C1042 C 0.5392 0.287 0.28227 0.0
C1043 C 0.56449 0.27098 0.28604 0.0
C1044 C 0.51185 0.2729 0.28153 0.0
C1045 C 0.50944 0.24249 0.28436 0.0
C1046 C 0.53501 0.22636 0.28734 0.0
C1047 C 0.56214 0.24042 0.28822 0.0
H1048 H 0.44484 0.81933 0.02589 0.0
H1049 H 0.49482 0.85827 0.06213 0.0
H1050 H 0.4788 0.77741 0.02561 0.0
H1051 H 0.52845 0.81692 0.06169 0.0
H1052 H 0.56058 0.71774 0.02197 0.0
H1053 H 0.53275 0.76396 0.02034 0.0
H1054 H 0.52338 0.76456 0.06874 0.0
H1055 H 0.55082 0.71877 0.07031 0.0
C1056 C 0.46298 0.81899 0.03377 0.0
C1057 C 0.4669 0.84206 0.04411 0.0
C1058 C 0.48259 0.79518 0.03349 0.0
C1059 C 0.50631 0.79395 0.04363 0.0
C1060 C 0.5103 0.81714 0.05382 0.0
C1061 C 0.49092 0.84086 0.05405 0.0
C1062 C 0.5533 0.72832 0.03225 0.0
C1063 C 0.55795 0.71484 0.04628 0.0
C1064 C 0.53703 0.75446 0.0313 0.0
C1065 C 0.52568 0.76771 0.0444 0.0
C1066 C 0.53194 0.75502 0.05845 0.0
C1067 C 0.54772 0.72883 0.05937 0.0
H1068 H 0.94793 0.71909 0.82044 0.0
H1069 H 0.96281 0.69492 0.77401 0.0
H1070 H 0.99264 0.74818 0.82031 0.0
H1071 H 0.00811 0.72419 0.77392 0.0
H1072 H 0.06537 0.80977 0.77612 0.0
H1073 H 0.02142 0.77861 0.7757 0.0
H1074 H 0.04613 0.74157 0.81862 0.0
H1075 H 0.0895 0.77257 0.81913 0.0
C1076 C 0.96104 0.71963 0.81025 0.0
C1077 C 0.95186 0.70465 0.79724 0.0
C1078 C 0.98669 0.73632 0.81019 0.0
C1079 C 0.0038 0.73866 0.79708 0.0
C1080 C 0.99514 0.72305 0.78414 0.0
C1081 C 0.96948 0.70599 0.78425 0.0
C1082 C 0.06117 0.79523 0.78553 0.0
C1083 C 0.08088 0.79376 0.79768 0.0
C1084 C 0.03624 0.77713 0.7852 0.0
C1085 C 0.03043 0.75752 0.79709 0.0
C1086 C 0.04988 0.75654 0.80933 0.0
C1087 C 0.07478 0.77435 0.80961 0.0
H1088 H 0.29247 0.36917 0.95038 0.0
H1089 H 0.34217 0.40402 0.98772 0.0
H1090 H 0.24858 0.36779 0.96605 0.0
H1091 H 0.29801 0.40301 0.00338 0.0
H1092 H 0.22016 0.36829 0.03119 0.0
H1093 H 0.26429 0.36919 0.01565 0.0
H1094 H 0.21321 0.40036 0.97796 0.0
H1095 H 0.16889 0.39906 -0.00654 0.0
C1096 C 0.29409 0.37655 0.96194 0.0
C1097 C 0.32098 0.38669 0.96776 0.0
C1098 C 0.26878 0.37596 0.97092 0.0
C1099 C 0.26959 0.3854 0.986 0.0
C1100 C 0.29657 0.39529 -0.00813 0.0
C1101 C 0.32191 0.39598 0.98286 0.0
C1102 C 0.21826 0.37532 0.01958 0.0
C1103 C 0.19085 0.38356 0.0136 0.0
C1104 C 0.24369 0.37602 0.01068 0.0
C1105 C 0.24245 0.38487 -0.00448 0.0
C1106 C 0.215 0.39307 0.98953 0.0
C1107 C 0.18956 0.39248 -0.00155 0.0
H1108 H 0.88849 0.02508 0.19166 0.0
H1109 H 0.86055 0.07438 0.23071 0.0
H1110 H 0.88274 0.97944 0.20564 0.0
H1111 H 0.85453 0.02844 0.24471 0.0
H1112 H 0.87289 0.94045 0.26906 0.0
H1113 H 0.88186 0.98652 0.25563 0.0
H1114 H 0.84265 0.94965 0.21563 0.0
H1115 H 0.83391 0.90367 0.22895 0.0
C1116 C 0.88122 0.02625 0.20326 0.0
C1117 C 0.87491 0.05353 0.21001 0.0
C1118 C 0.87773 0.99997 0.21126 0.0
C1119 C 0.86797 1.00014 0.22629 0.0
C1120 C 0.8623 0.02745 0.23319 0.0
C1121 C 0.86563 0.05382 0.22514 0.0
C1122 C 0.86633 0.9421 0.25737 0.0
C1123 C 0.8527 0.91823 0.2501 0.0
C1124 C 0.8713 0.96862 0.2497 0.0
C1125 C 0.86301 0.97188 0.23453 0.0
C1126 C 0.84967 0.94788 0.22724 0.0
C1127 C 0.84452 0.92148 0.23492 0.0
H1128 H 0.17128 0.62938 0.50079 0.0
H1129 H 0.21263 0.64327 0.45758 0.0
H1130 H 0.21874 0.63396 0.51313 0.0
H1131 H 0.26024 0.64829 0.47001 0.0
H1132 H 0.34407 0.62274 0.49689 0.0
H1133 H 0.29702 0.61928 0.48373 0.0
H1134 H 0.25583 0.67018 0.51897 0.0
H1135 H 0.30249 0.67325 0.53217 0.0
C1136 C 0.19046 0.63362 0.49391 0.0
C1137 C 0.18801 0.636 0.47817 0.0
C1138 C 0.21774 0.63639 0.50101 0.0
C1139 C 0.24343 0.64156 0.4926 0.0
C1140 C 0.24101 0.64401 0.47684 0.0
C1141 C 0.21364 0.64135 0.46972 0.0
C1142 C 0.32498 0.63325 0.5018 0.0
C1143 C 0.32713 0.64817 0.51564 0.0
C1144 C 0.29801 0.6314 0.49421 0.0
C1145 C 0.2725 0.64433 0.5003 0.0
C1146 C 0.27483 0.65954 0.51404 0.0
C1147 C 0.30172 0.66145 0.52158 0.0
H1148 H 0.60642 0.02932 0.78579 0.0
H1149 H 0.65445 0.06972 0.74931 0.0
H1150 H 0.60774 0.98243 0.77268 0.0
H1151 H 0.65614 0.02237 0.73621 0.0
H1152 H 0.6295 0.93679 0.71125 0.0
H1153 H 0.6262 0.98507 0.7233 0.0
H1154 H 0.64339 0.945 0.76648 0.0
H1155 H 0.64627 0.89695 0.75454 0.0
C1156 C 0.61724 0.02827 0.77494 0.0
C1157 C 0.63044 0.0534 0.76866 0.0
C1158 C 0.61817 1.00122 0.76745 0.0
C1159 C 0.6323 0.99841 0.75343 0.0
C1160 C 0.6449 0.0237 0.74694 0.0
C1161 C 0.64403 0.05086 0.75448 0.0
C1162 C 0.6325 0.93828 0.72333 0.0
C1163 C 0.63805 0.91286 0.73191 0.0
C1164 C 0.63079 0.96602 0.73022 0.0
C1165 C 0.63441 0.96903 0.74589 0.0
C1166 C 0.64001 0.94357 0.75443 0.0
C1167 C 0.64183 0.91594 0.74755 0.0
H1168 H 0.69897 0.63994 0.02204 0.0
H1169 H 0.65426 0.63178 0.97938 0.0
H1170 H 0.74612 0.6418 0.00888 0.0
H1171 H 0.7012 0.63302 0.96631 0.0
H1172 H 0.7864 0.66327 0.94555 0.0
H1173 H 0.74083 0.66519 0.95985 0.0
H1174 H 0.77986 0.6114 -0.00545 0.0
H1175 H 0.82583 0.61001 0.98034 0.0
C1176 C 0.69915 0.63854 0.00986 0.0
C1177 C 0.67271 0.63577 0.00179 0.0
C1178 C 0.72625 0.63942 0.00231 0.0
C1179 C 0.72761 0.63764 0.98649 0.0
C1180 C 0.7011 0.63496 0.97847 0.0
C1181 C 0.67409 0.63406 0.98599 0.0
C1182 C 0.78543 0.65202 0.95629 0.0
C1183 C 0.80986 0.63637 0.96173 0.0
C1184 C 0.75913 0.65295 0.96446 0.0
C1185 C 0.7564 0.63819 0.97832 0.0
C1186 C 0.78113 0.62323 0.98399 0.0
C1187 C 0.80752 0.62234 0.97581 0.0
H1188 H 0.15554 0.92264 0.74776 0.0
H1189 H 0.09874 0.96154 0.78127 0.0
H1190 H 0.15613 0.96913 0.73394 0.0
H1191 H 0.09884 0.00759 0.76737 0.0
H1192 H 0.13458 0.09457 0.74971 0.0
H1193 H 0.13216 0.04712 0.76225 0.0
H1194 H 0.12747 1.00367 0.71908 0.0
H1195 H 0.13049 0.05134 0.70646 0.0
C1196 C 0.14287 0.94095 0.75208 0.0
C1197 C 0.12724 0.93831 0.7657 0.0
C1198 C 0.14313 0.96763 0.74413 0.0
C1199 C 0.12778 0.99234 0.74959 0.0
C1200 C 0.11144 0.98931 0.76296 0.0
C1201 C 0.1112 0.96274 0.77089 0.0
C1202 C 0.133 0.07495 0.74285 0.0
C1203 C 0.1327 0.0769 0.72705 0.0
C1204 C 0.13141 0.04764 0.75007 0.0
C1205 C 0.12944 0.02141 0.74172 0.0
C1206 C 0.12923 0.02332 0.72589 0.0
C1207 C 0.1308 0.05071 0.71865 0.0
H1208 H 0.82134 0.34277 0.51814 0.0
H1209 H 0.84069 0.43174 0.50441 0.0
H1210 H 0.7769 0.34344 0.50277 0.0
H1211 H 0.79618 0.43237 0.48906 0.0
H1212 H 0.69701 0.43335 0.47788 0.0
H1213 H 0.74176 0.43197 0.49301 0.0
H1214 H 0.76138 0.34541 0.4758 0.0
H1215 H 0.71667 0.34676 0.46063 0.0
C1216 C 0.81623 0.36244 0.5118 0.0
C1217 C 0.83468 0.3872 0.51255 0.0
C1218 C 0.79077 0.36277 0.50293 0.0
C1219 C 0.78286 0.38799 0.49471 0.0
C1220 C 0.80141 0.41269 0.49538 0.0
C1221 C 0.82707 0.41224 0.5041 0.0
C1222 C 0.71077 0.41394 0.47736 0.0
C1223 C 0.70314 0.39016 0.46801 0.0
C1224 C 0.73657 0.41326 0.48596 0.0
C1225 C 0.75528 0.38863 0.48559 0.0
C1226 C 0.74741 0.36465 0.47644 0.0
C1227 C 0.72179 0.36547 0.46769 0.0
H1228 H 0.42486 0.05271 0.26555 0.0
H1229 H 0.33069 0.05857 0.26071 0.0
H1230 H 0.4251 0.00777 0.25054 0.0
H1231 H 0.33099 0.0136 0.24563 0.0
H1232 H 0.34027 0.91554 0.23291 0.0
H1233 H 0.34032 0.95998 0.24841 0.0
H1234 H 0.41638 0.99171 0.22436 0.0
H1235 H 0.41642 0.94736 0.20891 0.0
C1236 C 0.40419 0.04448 0.26126 0.0
C1237 C 0.37776 0.05937 0.26435 0.0
C1238 C 0.40436 0.01874 0.25259 0.0
C1239 C 0.37806 0.00698 0.24688 0.0
C1240 C 0.35161 0.02183 0.24999 0.0
C1241 C 0.35147 0.04775 0.25855 0.0
C1242 C 0.35712 0.93191 0.23098 0.0
C1243 C 0.37835 0.92779 0.21964 0.0
C1244 C 0.35701 0.95751 0.2398 0.0
C1245 C 0.37831 0.97951 0.23762 0.0
C1246 C 0.3998 0.97515 0.22645 0.0
C1247 C 0.39975 0.94971 0.21754 0.0
H1248 H 0.80401 0.86569 0.4427 0.0
H1249 H 0.84541 0.91336 0.47897 0.0
H1250 H 0.75732 0.86765 0.456 0.0
H1251 H 0.79835 0.91565 0.49225 0.0
H1252 H 0.7128 0.89248 0.51757 0.0
H1253 H 0.7606 0.88643 0.50533 0.0
H1254 H 0.72077 0.90446 0.4622 0.0
H1255 H 0.67317 0.91015 0.47435 0.0
C1256 C 0.80323 0.87651 0.45355 0.0
C1257 C 0.82857 0.88949 0.4597 0.0
C1258 C 0.77632 0.87779 0.46116 0.0
C1259 C 0.77388 0.89204 0.47517 0.0
C1260 C 0.7994 0.90431 0.48154 0.0
C1261 C 0.82639 0.90311 0.47389 0.0
C1262 C 0.71421 0.89494 0.50546 0.0
C1263 C 0.68903 0.90177 0.49696 0.0
C1264 C 0.74169 0.89168 0.49845 0.0
C1265 C 0.74464 0.89493 0.48275 0.0
C1266 C 0.71935 0.90139 0.47427 0.0
C1267 C 0.69199 0.90481 0.48127 0.0
H1268 H 0.40244 0.52105 0.69944 0.0
H1269 H 0.35316 0.56079 0.73572 0.0
H1270 H 0.40181 0.47416 0.71264 0.0
H1271 H 0.35226 0.51357 0.74888 0.0
H1272 H 0.37981 0.42964 0.77444 0.0
H1273 H 0.38347 0.47744 0.76197 0.0
H1274 H 0.36669 0.43598 0.7191 0.0
H1275 H 0.36333 0.38835 0.73148 0.0
C1276 C 0.39148 0.51985 0.71026 0.0
C1277 C 0.37776 0.5448 0.71646 0.0
C1278 C 0.39098 0.49282 0.7178 0.0
C1279 C 0.37685 0.48992 0.73181 0.0
C1280 C 0.36358 0.515 0.73818 0.0
C1281 C 0.36395 0.54208 0.73058 0.0
C1282 C 0.37711 0.43069 0.76233 0.0
C1283 C 0.37131 0.40503 0.75398 0.0
C1284 C 0.37899 0.45816 0.75519 0.0
C1285 C 0.37536 0.46067 0.7395 0.0
C1286 C 0.36997 0.43493 0.73116 0.0
C1287 C 0.36791 0.40755 0.73829 0.0
H1288 H 0.78566 0.13856 0.02814 0.0
H1289 H 0.83669 0.11091 0.98962 0.0
H1290 H 0.74186 0.14111 0.01245 0.0
H1291 H 0.79273 0.11303 0.97397 0.0
H1292 H 0.7148 0.14847 0.94713 0.0
H1293 H 0.75837 0.14761 0.96299 0.0
H1294 H 0.70761 0.10947 -0.00086 0.0
H1295 H 0.66378 0.11075 0.98331 0.0
C1296 C 0.78758 0.13302 0.01632 0.0
C1297 C 0.81481 0.12455 0.01017 0.0
C1298 C 0.76235 0.13429 0.00733 0.0
C1299 C 0.76363 0.12722 -0.00808 0.0
C1300 C 0.79092 0.11897 0.98575 0.0
C1301 C 0.81616 0.11762 -0.00525 0.0
C1302 C 0.71282 0.13999 0.95848 0.0
C1303 C 0.68568 0.12967 0.96392 0.0
C1304 C 0.73794 0.13931 0.96756 0.0
C1305 C 0.73665 0.12836 0.98235 0.0
C1306 C 0.70941 0.11835 0.98786 0.0
C1307 C 0.68427 0.11895 0.97876 0.0
H1308 H 0.14022 0.57407 0.24682 0.0
H1309 H 0.06126 0.54347 0.26874 0.0
H1310 H 0.14287 0.5282 0.23253 0.0
H1311 H 0.06393 0.49769 0.25444 0.0
H1312 H 0.06346 0.43236 0.21435 0.0
H1313 H 0.05977 0.47876 0.22811 0.0
H1314 H 0.15252 0.47507 0.23784 0.0
H1315 H 0.15627 0.42867 0.22412 0.0
C1316 C 0.1233 0.55769 0.24852 0.0
C1317 C 0.10053 0.56252 0.25896 0.0
C1318 C 0.12495 0.53128 0.2404 0.0
C1319 C 0.10369 0.50918 0.24238 0.0
C1320 C 0.08056 0.5143 0.25256 0.0
C1321 C 0.0791 0.54054 0.26081 0.0
C1322 C 0.08307 0.44137 0.21946 0.0
C1323 C 0.11016 0.42669 0.21812 0.0
C1324 C 0.08092 0.46795 0.22739 0.0
C1325 C 0.10587 0.48073 0.23403 0.0
C1326 C 0.13294 0.46603 0.23271 0.0
C1327 C 0.13503 0.43929 0.22494 0.0
H1328 H 0.18288 0.13541 0.49161 0.0
H1329 H 0.23283 0.16417 0.5302 0.0
H1330 H 0.22747 0.13628 0.4763 0.0
H1331 H 0.27719 0.16555 0.51487 0.0
H1332 H 0.35654 0.13443 0.48701 0.0
H1333 H 0.31193 0.13362 0.50234 0.0
H1334 H 0.26262 0.16935 0.46508 0.0
H1335 H 0.30692 0.16966 0.44973 0.0
C1336 C 0.2033 0.14213 0.49681 0.0
C1337 C 0.20415 0.14971 0.51216 0.0
C1338 C 0.22891 0.14275 0.48801 0.0
C1339 C 0.2561 0.15092 0.49432 0.0
C1340 C 0.25684 0.1587 0.50965 0.0
C1341 C 0.23126 0.15813 0.51843 0.0
C1342 C 0.33619 0.14216 0.4821 0.0
C1343 C 0.33543 0.1521 0.46711 0.0
C1344 C 0.31058 0.14183 0.49092 0.0
C1345 C 0.28351 0.15138 0.48498 0.0
C1346 C 0.28287 0.16142 0.47 0.0
C1347 C 0.30842 0.16179 0.46121 0.0
H1348 H 0.60376 0.45176 0.2824 0.0
H1349 H 0.63522 0.40011 0.24488 0.0
H1350 H 0.60148 0.49506 0.2663 0.0
H1351 H 0.6335 0.44362 0.22883 0.0
H1352 H 0.60073 0.52055 0.20045 0.0
H1353 H 0.60046 0.47729 0.21661 0.0
H1354 H 0.63271 0.52978 0.25359 0.0
H1355 H 0.6324 0.57324 0.23748 0.0
C1356 C 0.61022 0.44959 0.27071 0.0
C1357 C 0.61968 0.42233 0.26497 0.0
C1358 C 0.6091 0.47456 0.26148 0.0
C1359 C 0.61739 0.47303 0.24623 0.0
C1360 C 0.62658 0.44566 0.24045 0.0
C1361 C 0.62772 0.42067 0.24969 0.0
C1362 C 0.60763 0.52296 0.21205 0.0
C1363 C 0.61659 0.5505 0.21763 0.0
C1364 C 0.60769 0.49802 0.22131 0.0
C1365 C 0.61669 0.49985 0.23644 0.0
C1366 C 0.6253 0.52749 0.24207 0.0
C1367 C 0.62525 0.55246 0.23279 0.0
H1368 H 0.16292 0.8814 0.98389 0.0
H1369 H 0.21881 0.84711 0.94869 0.0
H1370 H 0.20506 0.8836 0.00083 0.0
H1371 H 0.26073 0.84885 0.96566 0.0
H1372 H 0.33457 0.88928 -0.00552 0.0
H1373 H 0.2925 0.88441 0.97766 0.0
H1374 H 0.23953 0.8536 0.01481 0.0
H1375 H 0.28139 0.85893 0.03165 0.0
C1376 C 0.18411 0.87406 0.97979 0.0
C1377 C 0.18739 0.86414 0.96488 0.0
C1378 C 0.2083 0.87521 0.98954 0.0
C1379 C 0.23644 0.86651 0.98463 0.0
C1380 C 0.23956 0.85617 0.96979 0.0
C1381 C 0.2154 0.85497 0.96007 0.0
C1382 C 0.31401 0.88129 -0.00095 0.0
C1383 C 0.31145 0.87456 0.01446 0.0
C1384 C 0.28986 0.87838 0.98938 0.0
C1385 C 0.26247 0.8687 -0.00515 0.0
C1386 C 0.26009 0.86154 0.01021 0.0
C1387 C 0.28423 0.8644 0.01987 0.0
H1388 H 0.86291 0.41707 0.73519 0.0
H1389 H 0.89616 0.46732 0.69761 0.0
H1390 H 0.86747 0.46021 0.75136 0.0
H1391 H 0.90121 0.51024 0.71382 0.0
H1392 H 0.87485 0.58952 0.7434 0.0
H1393 H 0.87202 0.54649 0.727 0.0
H1394 H 0.90313 0.49164 0.76333 0.0
H1395 H 0.90545 0.53444 0.77975 0.0
C1396 C 0.8714 0.43723 0.73039 0.0
C1397 C 0.87914 0.43861 0.71507 0.0
C1398 C 0.87416 0.462 0.73969 0.0
C1399 C 0.88471 0.48886 0.73394 0.0
C1400 C 0.89263 0.49013 0.71863 0.0
C1401 C 0.88992 0.46537 0.70934 0.0
C1402 C 0.88126 0.56831 0.74787 0.0
C1403 C 0.89032 0.56554 0.76294 0.0
C1404 C 0.87974 0.5436 0.73843 0.0
C1405 C 0.8872 0.51543 0.74382 0.0
C1406 C 0.89673 0.51281 0.75883 0.0
C1407 C 0.89828 0.53748 0.76823 0.0
H1408 H 0.16391 0.40301 0.07005 0.0
H1409 H 0.0815 0.41895 0.09282 0.0
H1410 H 0.18937 0.40491 0.09429 0.0
H1411 H 0.10624 0.4196 0.11671 0.0
H1412 H 0.14588 0.41347 0.15959 0.0
H1413 H 0.13804 0.43713 0.13526 0.0
H1414 H 0.19134 0.37036 0.11385 0.0
H1415 H 0.20039 0.34803 0.13802 0.0
C1416 C 0.15132 0.40732 0.08017 0.0
C1417 C 0.12062 0.41001 0.07956 0.0
C1418 C 0.16585 0.40837 0.09406 0.0
C1419 C 0.14988 0.41198 0.10756 0.0
C1420 C 0.11951 0.41709 0.10667 0.0
C1421 C 0.10513 0.4162 0.09288 0.0
C1422 C 0.15678 0.40457 0.14975 0.0
C1423 C 0.17283 0.37828 0.15063 0.0
C1424 C 0.15215 0.41798 0.13577 0.0
C1425 C 0.16311 0.40502 0.12247 0.0
C1426 C 0.18233 0.381 0.12373 0.0
C1427 C 0.18725 0.36789 0.13767 0.0
H1428 H 0.84605 0.92492 0.40848 0.0
H1429 H 0.92162 0.94195 0.38034 0.0
H1430 H 0.81461 0.92594 0.38622 0.0
H1431 H 0.89108 0.94135 0.35833 0.0
H1432 H 0.84462 0.92585 0.31862 0.0
H1433 H 0.85528 0.95435 0.34123 0.0
H1434 H 0.80802 0.89048 0.36799 0.0
H1435 H 0.79592 0.86357 0.34553 0.0
C1436 C 0.85589 0.92924 0.39759 0.0
C1437 C 0.88643 0.93239 0.39611 0.0
C1438 C 0.83791 0.92979 0.38481 0.0
C1439 C 0.85025 0.933 0.37033 0.0
C1440 C 0.88045 0.93899 0.36916 0.0
C1441 C 0.89823 0.93882 0.38187 0.0
C1442 C 0.83555 0.91866 0.32928 0.0
C1443 C 0.8206 0.89179 0.33042 0.0
C1444 C 0.84183 0.93484 0.34228 0.0
C1445 C 0.83383 0.92398 0.35659 0.0
C1446 C 0.81502 0.89954 0.35731 0.0
C1447 C 0.80832 0.88375 0.34435 0.0
H1448 H 0.32306 0.6525 0.6413 0.0
H1449 H 0.37386 0.57926 0.6579 0.0
H1450 H 0.33048 0.63613 0.61575 0.0
H1451 H 0.38057 0.56182 0.63201 0.0
H1452 H 0.43671 0.59059 0.5903 0.0
H1453 H 0.41266 0.58245 0.61411 0.0
H1454 H 0.32931 0.60624 0.59421 0.0
H1455 H 0.35406 0.6157 0.57023 0.0
C1456 C 0.33508 0.63224 0.63946 0.0
C1457 C 0.34873 0.61767 0.65151 0.0
C1458 C 0.33903 0.62255 0.62475 0.0
C1459 C 0.35679 0.59799 0.6217 0.0
C1460 C 0.36739 0.58128 0.63394 0.0
C1461 C 0.36343 0.5911 0.64877 0.0
C1462 C 0.41314 0.59363 0.59088 0.0
C1463 C 0.39744 0.60482 0.57852 0.0
C1464 C 0.39917 0.58847 0.60457 0.0
C1465 C 0.36904 0.59424 0.60626 0.0
C1466 C 0.35271 0.60225 0.5934 0.0
C1467 C 0.36682 0.6076 0.57964 0.0
H1468 H 0.70793 0.14576 0.84244 0.0
H1469 H 0.66352 0.0728 0.82131 0.0
H1470 H 0.70311 0.1225 0.86661 0.0
H1471 H 0.66048 0.04807 0.84561 0.0
H1472 H 0.5962 0.06474 0.88535 0.0
H1473 H 0.62537 0.06059 0.86296 0.0
H1474 H 0.70133 0.09232 0.8873 0.0
H1475 H 0.67099 0.09802 0.90985 0.0
C1476 C 0.69819 0.12405 0.84288 0.0
C1477 C 0.6846 0.11185 0.83013 0.0
C1478 C 0.69571 0.11037 0.85684 0.0
C1479 C 0.67989 0.08399 0.8583 0.0
C1480 C 0.67144 0.06915 0.84503 0.0
C1481 C 0.6734 0.08318 0.83104 0.0
C1482 C 0.61925 0.07044 0.88605 0.0
C1483 C 0.63098 0.08294 0.89918 0.0
C1484 C 0.63634 0.06754 0.87315 0.0
C1485 C 0.66576 0.07694 0.87304 0.0
C1486 C 0.6785 0.0858 0.88679 0.0
C1487 C 0.66118 0.08899 0.89975 0.0
H1488 H 0.12155 0.58928 0.3222 0.0
H1489 H 0.20296 0.63657 0.32727 0.0
H1490 H 0.12606 0.57079 0.34766 0.0
H1491 H 0.20879 0.61659 0.35255 0.0
H1492 H 0.16747 0.63508 0.39987 0.0
H1493 H 0.18495 0.6325 0.37408 0.0
H1494 H 0.14352 0.54748 0.36891 0.0
H1495 H 0.12444 0.55138 0.39448 0.0
C1496 C 0.14124 0.59441 0.32852 0.0
C1497 C 0.16154 0.61482 0.32298 0.0
C1498 C 0.14398 0.58375 0.3432 0.0
C1499 C 0.1674 0.59296 0.35246 0.0
C1500 C 0.18991 0.60992 0.34599 0.0
C1501 C 0.18678 0.62113 0.33145 0.0
C1502 C 0.16303 0.61543 0.39335 0.0
C1503 C 0.1442 0.59374 0.39895 0.0
C1504 C 0.17315 0.61377 0.37852 0.0
C1505 C 0.16497 0.59007 0.36914 0.0
C1506 C 0.14939 0.56652 0.37557 0.0
C1507 C 0.13867 0.56859 0.39026 0.0
H1508 H 0.65353 0.89946 0.66046 0.0
H1509 H 0.65244 0.81637 0.63682 0.0
H1510 H 0.65807 0.92519 0.63639 0.0
H1511 H 0.6561 0.84183 0.61303 0.0
H1512 H 0.66898 0.88773 0.57087 0.0
H1513 H 0.68419 0.87126 0.59588 0.0
H1514 H 0.62462 0.93389 0.61615 0.0
H1515 H 0.6104 0.95087 0.5914 0.0
C1516 C 0.65436 0.8867 0.65017 0.0
C1517 C 0.65219 0.85591 0.65055 0.0
C1518 C 0.65704 0.90141 0.63639 0.0
C1519 C 0.65752 0.88559 0.62276 0.0
C1520 C 0.65642 0.85476 0.62327 0.0
C1521 C 0.65385 0.84013 0.63697 0.0
C1522 C 0.65997 0.89862 0.58069 0.0
C1523 C 0.63799 0.92004 0.5792 0.0
C1524 C 0.66846 0.88905 0.59501 0.0
C1525 C 0.65506 0.90075 0.60801 0.0
C1526 C 0.63544 0.92435 0.60644 0.0
C1527 C 0.62706 0.93392 0.5922 0.0
H1528 H 0.35077 0.40612 0.82238 0.0
H1529 H 0.31395 0.33453 0.84819 0.0
H1530 H 0.35471 0.43531 0.84535 0.0
H1531 H 0.31938 0.36261 0.87099 0.0
H1532 H 0.3411 0.40618 0.91232 0.0
H1533 H 0.31412 0.39981 0.88878 0.0
H1534 H 0.39006 0.43023 0.86396 0.0
H1535 H 0.41598 0.43789 0.88721 0.0
C1536 C 0.34302 0.39682 0.83289 0.0
C1537 C 0.33304 0.36766 0.83355 0.0
C1538 C 0.34538 0.41347 0.84608 0.0
C1539 C 0.33831 0.40104 0.86016 0.0
C1540 C 0.32513 0.37312 0.86047 0.0
C1541 C 0.32238 0.35672 0.84731 0.0
C1542 C 0.3516 0.41228 0.90183 0.0
C1543 C 0.38098 0.42158 0.90158 0.0
C1544 C 0.33621 0.40854 0.88832 0.0
C1545 C 0.3501 0.41371 0.87438 0.0
C1546 C 0.3784 0.42602 0.87437 0.0
C1547 C 0.39356 0.43001 0.88779 0.0
H1548 H 0.81337 0.15598 0.1354 0.0
H1549 H 0.85581 0.08036 0.1552 0.0
H1550 H 0.81781 0.1342 0.11074 0.0
H1551 H 0.85887 0.05753 0.13037 0.0
H1552 H 0.83944 0.10162 0.06617 0.0
H1553 H 0.81384 0.10143 0.09042 0.0
H1554 H 0.89333 0.07113 0.1121 0.0
H1555 H 0.91804 0.07024 0.08815 0.0
C1556 C 0.82271 0.13413 0.13455 0.0
C1557 C 0.83539 0.12042 0.14715 0.0
C1558 C 0.82495 0.12139 0.12033 0.0
C1559 C 0.83968 0.0945 0.11844 0.0
C1560 C 0.84834 0.07879 0.13138 0.0
C1561 C 0.84641 0.09175 0.14564 0.0
C1562 C 0.85109 0.09428 0.07611 0.0
C1563 C 0.88097 0.08677 0.07532 0.0
C1564 C 0.83648 0.09418 0.09001 0.0
C1565 C 0.85157 0.08671 0.10333 0.0
C1566 C 0.88071 0.07677 0.10219 0.0
C1567 C 0.89515 0.07675 0.08839 0.0
H1568 H 0.79512 0.63827 0.83188 0.0
H1569 H 0.8733 0.58762 0.82294 0.0
H1570 H 0.78887 0.61302 0.85586 0.0
H1571 H 0.8684 0.56364 0.84718 0.0
H1572 H 0.87158 0.53438 0.89227 0.0
H1573 H 0.8499 0.53669 0.86723 0.0
H1574 H 0.81468 0.62267 0.87776 0.0
H1575 H 0.83483 0.61929 0.90292 0.0
C1576 C 0.8105 0.62108 0.8349 0.0
C1577 C 0.83504 0.61524 0.82579 0.0
C1578 C 0.80709 0.60677 0.84869 0.0
C1579 C 0.82866 0.58704 0.8538 0.0
C1580 C 0.85122 0.57866 0.84376 0.0
C1581 C 0.85421 0.5925 0.8298 0.0
C1582 C 0.85803 0.55314 0.88938 0.0
C1583 C 0.85536 0.57698 0.89933 0.0
C1584 C 0.84584 0.55462 0.87498 0.0
C1585 C 0.83152 0.58034 0.87017 0.0
C1586 C 0.82558 0.60245 0.88091 0.0
C1587 C 0.83722 0.60064 0.89543 0.0
H1588 H 0.18274 0.11858 0.56692 0.0
H1589 H 0.11317 0.06327 0.5839 0.0
H1590 H 0.20487 0.11952 0.59191 0.0
H1591 H 0.13384 0.0657 0.60881 0.0
H1592 H 0.15648 0.0881 0.65439 0.0
H1593 H 0.16388 0.06475 0.62985 0.0
H1594 H 0.18684 0.14932 0.61089 0.0
H1595 H 0.18089 0.17181 0.63516 0.0
C1596 C 0.17266 0.10589 0.57585 0.0
C1597 C 0.14552 0.09199 0.57364 0.0
C1598 C 0.18517 0.10662 0.59024 0.0
C1599 C 0.17035 0.09401 0.60261 0.0
C1600 C 0.14583 0.07613 0.59974 0.0
C1601 C 0.13366 0.075 0.58538 0.0
C1602 C 0.16386 0.1014 0.64501 0.0
C1603 C 0.16712 0.13194 0.64658 0.0
C1604 C 0.16806 0.08808 0.63093 0.0
C1605 C 0.17531 0.10515 0.61819 0.0
C1606 C 0.18143 0.13516 0.62028 0.0
C1607 C 0.17747 0.14831 0.63427 0.0
H1608 H 0.68383 0.40177 0.40766 0.0
H1609 H 0.62673 0.46346 0.3851 0.0
H1610 H 0.70161 0.38454 0.38328 0.0
H1611 H 0.64282 0.4452 0.36097 0.0
H1612 H 0.66354 0.40213 0.31807 0.0
H1613 H 0.67199 0.43205 0.34054 0.0
H1614 H 0.6759 0.35292 0.36749 0.0
H1615 H 0.66896 0.32356 0.34527 0.0
C1616 C 0.67571 0.41224 0.39754 0.0
C1617 C 0.6531 0.43315 0.39827 0.0
C1618 C 0.68562 0.40216 0.38353 0.0
C1619 C 0.67269 0.4125 0.3701 0.0
C1620 C 0.65318 0.43637 0.37096 0.0
C1621 C 0.64367 0.44671 0.38489 0.0
C1622 C 0.66667 0.39126 0.32879 0.0
C1623 C 0.66501 0.36051 0.32991 0.0
C1624 C 0.67154 0.40836 0.34168 0.0
C1625 C 0.67449 0.39503 0.35594 0.0
C1626 C 0.67435 0.36418 0.35679 0.0
C1627 C 0.66983 0.34722 0.34397 0.0
H1628 H 0.33775 0.88544 0.07412 0.0
H1629 H 0.37332 0.96871 0.08849 0.0
H1630 H 0.31773 0.87752 0.09909 0.0
H1631 H 0.35198 0.9617 0.1134 0.0
H1632 H 0.36962 0.90611 0.15689 0.0
H1633 H 0.36921 0.93123 0.13271 0.0
H1634 H 0.28947 0.88531 0.12058 0.0
H1635 H 0.29119 0.85899 0.14445 0.0
C1636 C 0.34004 0.90271 0.08244 0.0
C1637 C 0.35761 0.92731 0.07953 0.0
C1638 C 0.32849 0.89827 0.09683 0.0
C1639 C 0.33394 0.91864 0.10847 0.0
C1640 C 0.3482 0.94511 0.10488 0.0
C1641 C 0.3602 0.94927 0.09057 0.0
C1642 C 0.3516 0.90213 0.1492 0.0
C1643 C 0.33083 0.88029 0.1523 0.0
C1644 C 0.35117 0.91662 0.13533 0.0
C1645 C 0.32961 0.90981 0.12446 0.0
C1646 C 0.30689 0.89042 0.12844 0.0
C1647 C 0.30774 0.87549 0.14214 0.0
H1648 H 0.8441 0.42227 0.66088 0.0
H1649 H 0.81988 0.34595 0.63472 0.0
H1650 H 0.84556 0.45157 0.63783 0.0
H1651 H 0.82299 0.37417 0.61196 0.0
H1652 H 0.84097 0.41648 0.5709 0.0
H1653 H 0.81287 0.40897 0.59399 0.0
H1654 H 0.88051 0.45402 0.61922 0.0
H1655 H 0.90702 0.46317 0.59627 0.0
C1656 C 0.83876 0.41184 0.65026 0.0
C1657 C 0.83279 0.3816 0.64958 0.0
C1658 C 0.83966 0.42858 0.63702 0.0
C1659 C 0.83513 0.41523 0.62287 0.0
C1660 C 0.82647 0.38558 0.6225 0.0
C1661 C 0.82516 0.3691 0.63566 0.0
C1662 C 0.84915 0.42574 0.58132 0.0
C1663 C 0.87678 0.4393 0.58188 0.0
C1664 C 0.83321 0.42122 0.59461 0.0
C1665 C 0.84502 0.42961 0.60865 0.0
C1666 C 0.87061 0.44685 0.60877 0.0
C1667 C 0.88616 0.45182 0.59552 0.0
H1668 H 0.30426 0.14053 0.34872 0.0
H1669 H 0.35829 0.07372 0.32809 0.0
H1670 H 0.3154 0.12134 0.37327 0.0
H1671 H 0.36815 0.05281 0.3529 0.0
H1672 H 0.43121 0.08283 0.391 0.0
H1673 H 0.40177 0.07206 0.36932 0.0
H1674 H 0.3232 0.09385 0.39446 0.0
H1675 H 0.35351 0.10652 0.41619 0.0
C1676 C 0.31764 0.12087 0.34943 0.0
C1677 C 0.3316 0.10949 0.33657 0.0
C1678 C 0.32382 0.1095 0.36362 0.0
C1679 C 0.34395 0.08626 0.36525 0.0
C1680 C 0.35367 0.07163 0.35213 0.0
C1681 C 0.3478 0.08338 0.33786 0.0
C1682 C 0.40759 0.08494 0.39204 0.0
C1683 C 0.3948 0.09681 0.4051 0.0
C1684 C 0.39045 0.07821 0.37956 0.0
C1685 C 0.35993 0.08293 0.37983 0.0
C1686 C 0.34674 0.09098 0.39362 0.0
C1687 C 0.36407 0.09815 0.40613 0.0
H1688 H 0.69017 0.64302 0.1417 0.0
H1689 H 0.63743 0.5726 0.15984 0.0
H1690 H 0.6879 0.62132 0.11711 0.0
H1691 H 0.63657 0.54927 0.13504 0.0
H1692 H 0.66637 0.60003 0.07241 0.0
H1693 H 0.69034 0.59144 0.09658 0.0
H1694 H 0.60745 0.56229 0.11522 0.0
H1695 H 0.58456 0.56878 0.09112 0.0
C1696 C 0.67885 0.62221 0.1405 0.0
C1697 C 0.6628 0.61022 0.15252 0.0
C1698 C 0.67789 0.60936 0.1263 0.0
C1699 C 0.66099 0.58397 0.12378 0.0
C1700 C 0.64876 0.56952 0.13639 0.0
C1701 C 0.64942 0.5827 0.15066 0.0
C1702 C 0.65364 0.59081 0.08158 0.0
C1703 C 0.62331 0.58633 0.08006 0.0
C1704 C 0.6673 0.58605 0.09549 0.0
C1705 C 0.65065 0.57748 0.10818 0.0
C1706 C 0.62124 0.56917 0.10594 0.0
C1707 C 0.60783 0.57337 0.09203 0.0
H1708 H 0.22497 0.87719 0.83603 0.0
H1709 H 0.14167 0.91548 0.82384 0.0
H1710 H 0.22218 0.90067 0.86065 0.0
H1711 H 0.13765 0.93727 0.8486 0.0
H1712 H 0.11928 0.95833 0.89402 0.0
H1713 H 0.14592 0.96344 0.87036 0.0
H1714 H 0.19455 0.88418 0.88068 0.0
H1715 H 0.16932 0.88054 0.90461 0.0
C1716 C 0.20649 0.89144 0.83849 0.0
C1717 C 0.18319 0.89405 0.82824 0.0
C1718 C 0.2047 0.90464 0.85266 0.0
C1719 C 0.17912 0.91985 0.85697 0.0
C1720 C 0.15772 0.92569 0.84587 0.0
C1721 C 0.15991 0.91309 0.83157 0.0
C1722 C 0.13659 0.94277 0.89142 0.0
C1723 C 0.14187 0.91866 0.90091 0.0
C1724 C 0.1517 0.94552 0.8778 0.0
C1725 C 0.17163 0.92363 0.87322 0.0
C1726 C 0.17941 0.90157 0.88366 0.0
C1727 C 0.16482 0.89929 0.89745 0.0
loop_
_geom_bond_atom_site_label_1
_geom_bond_atom_site_label_2
_geom_bond_distance
_geom_bond_site_symmetry_2
_ccdc_geom_bond_type
Zn0 O3 2.031 . S
Zn0 O5 2.049 . S
Zn0 O10 2.067 . S
Zn1 O2 1.962 . S
Zn1 O4 1.986 . S
Zn1 O6 1.996 . S
Zn1 O9 1.943 . S
O2 Zn1 1.962 . S
O2 C7 1.254 . S
O3 Zn0 2.031 . S
O3 C7 1.269 . S
O4 Zn1 1.986 . S
O4 C11 1.262 . S
O5 Zn0 2.049 . S
O5 C13 1.260 . S
O6 Zn1 1.996 . S
O6 C13 1.257 . S
C7 O2 1.254 . S
C7 O3 1.269 . S
C8 O9 1.249 . S
C8 O10 1.270 . S
O9 Zn1 1.943 . S
O9 C8 1.249 . S
O10 Zn0 2.067 . S
O10 C8 1.270 . S
C11 O4 1.262 . S
C11 O12 1.232 . S
O12 C11 1.232 . S
C13 O5 1.260 . S
C13 O6 1.257 . S
Zn14 O17 2.031 . S
Zn14 O19 2.049 . S
Zn14 O24 2.067 . S
Zn15 O16 1.962 . S
Zn15 O18 1.986 . S
Zn15 O20 1.996 . S
Zn15 O23 1.943 . S
O16 Zn15 1.962 . S
O16 C21 1.254 . S
O17 Zn14 2.031 . S
O17 C21 1.269 . S
O18 Zn15 1.986 . S
O18 C25 1.262 . S
O19 Zn14 2.049 . S
O19 C27 1.260 . S
O20 Zn15 1.996 . S
O20 C27 1.257 . S
C21 O16 1.254 . S
C21 O17 1.269 . S
C22 O23 1.249 . S
C22 O24 1.270 . S
O23 Zn15 1.943 . S
O23 C22 1.249 . S
O24 Zn14 2.067 . S
O24 C22 1.270 . S
C25 O18 1.262 . S
C25 O26 1.232 . S
O26 C25 1.232 . S
C27 O19 1.260 . S
C27 O20 1.257 . S
Zn28 O31 2.031 . S
Zn28 O33 2.049 . S
Zn28 O38 2.067 . S
Zn29 O30 1.962 . S
Zn29 O32 1.986 . S
Zn29 O34 1.996 . S
Zn29 O37 1.943 . S
O30 Zn29 1.962 . S
O30 C35 1.254 . S
O31 Zn28 2.031 . S
O31 C35 1.269 . S
O32 Zn29 1.986 . S
O32 C39 1.262 . S
O33 Zn28 2.049 . S
O33 C41 1.260 . S
O34 Zn29 1.996 . S
O34 C41 1.257 . S
C35 O30 1.254 . S
C35 O31 1.269 . S
C36 O37 1.249 . S
C36 O38 1.270 . S
O37 Zn29 1.943 . S
O37 C36 1.249 . S
O38 Zn28 2.067 . S
O38 C36 1.270 . S
C39 O32 1.262 . S
C39 O40 1.232 . S
O40 C39 1.232 . S
C41 O33 1.260 . S
C41 O34 1.257 . S
Zn42 O45 2.031 . S
Zn42 O47 2.049 . S
Zn42 O52 2.067 . S
Zn43 O44 1.962 . S
Zn43 O46 1.986 . S
Zn43 O48 1.996 . S
Zn43 O51 1.943 . S
O44 Zn43 1.962 . S
O44 C49 1.254 . S
O45 Zn42 2.031 . S
O45 C49 1.269 . S
O46 Zn43 1.986 . S
O46 C53 1.262 . S
O47 Zn42 2.049 . S
O47 C55 1.260 . S
O48 Zn43 1.996 . S
O48 C55 1.257 . S
C49 O44 1.254 . S
C49 O45 1.269 . S
C50 O51 1.249 . S
C50 O52 1.270 . S
O51 Zn43 1.943 . S
O51 C50 1.249 . S
O52 Zn42 2.067 . S
O52 C50 1.270 . S
C53 O46 1.262 . S
C53 O54 1.232 . S
O54 C53 1.232 . S
C55 O47 1.260 . S
C55 O48 1.257 . S
Zn56 O59 2.031 . S
Zn56 O61 2.049 . S
Zn56 O66 2.067 . S
Zn57 O58 1.962 . S
Zn57 O60 1.986 . S
Zn57 O62 1.996 . S
Zn57 O65 1.943 . S
O58 Zn57 1.962 . S
O58 C63 1.254 . S
O59 Zn56 2.031 . S
O59 C63 1.269 . S
O60 Zn57 1.986 . S
O60 C67 1.262 . S
O61 Zn56 2.049 . S
O61 C69 1.260 . S
O62 Zn57 1.996 . S
O62 C69 1.257 . S
C63 O58 1.254 . S
C63 O59 1.269 . S
C64 O65 1.249 . S
C64 O66 1.270 . S
O65 Zn57 1.943 . S
O65 C64 1.249 . S
O66 Zn56 2.067 . S
O66 C64 1.270 . S
C67 O60 1.262 . S
C67 O68 1.232 . S
O68 C67 1.232 . S
C69 O61 1.260 . S
C69 O62 1.257 . S
Zn70 O73 2.031 . S
Zn70 O75 2.049 . S
Zn70 O80 2.067 . S
Zn71 O72 1.962 . S
Zn71 O74 1.986 . S
Zn71 O76 1.996 . S
Zn71 O79 1.943 . S
O72 Zn71 1.962 . S
O72 C77 1.254 . S
O73 Zn70 2.031 . S
O73 C77 1.269 . S
O74 Zn71 1.986 . S
O74 C81 1.262 . S
O75 Zn70 2.049 . S
O75 C83 1.260 . S
O76 Zn71 1.996 . S
O76 C83 1.257 . S
C77 O72 1.254 . S
C77 O73 1.269 . S
C78 O79 1.249 . S
C78 O80 1.270 . S
O79 Zn71 1.943 . S
O79 C78 1.249 . S
O80 Zn70 2.067 . S
O80 C78 1.270 . S
C81 O74 1.262 . S
C81 O82 1.232 . S
O82 C81 1.232 . S
C83 O75 1.260 . S
C83 O76 1.257 . S
Zn84 O87 2.031 . S
Zn84 O89 2.049 . S
Zn84 O94 2.067 . S
Zn85 O86 1.962 . S
Zn85 O88 1.986 . S
Zn85 O90 1.996 . S
Zn85 O93 1.943 . S
O86 Zn85 1.962 . S
O86 C91 1.254 . S
O87 Zn84 2.031 . S
O87 C91 1.269 . S
O88 Zn85 1.986 . S
O88 C95 1.262 . S
O89 Zn84 2.049 . S
O89 C97 1.260 . S
O90 Zn85 1.996 . S
O90 C97 1.257 . S
C91 O86 1.254 . S
C91 O87 1.269 . S
C92 O93 1.249 . S
C92 O94 1.270 . S
O93 Zn85 1.943 . S
O93 C92 1.249 . S
O94 Zn84 2.067 . S
O94 C92 1.270 . S
C95 O88 1.262 . S
C95 O96 1.232 . S
O96 C95 1.232 . S
C97 O89 1.260 . S
C97 O90 1.257 . S
Zn98 O101 2.031 . S
Zn98 O103 2.049 . S
Zn98 O108 2.067 . S
Zn99 O100 1.962 . S
Zn99 O102 1.986 . S
Zn99 O104 1.996 . S
Zn99 O107 1.943 . S
O100 Zn99 1.962 . S
O100 C105 1.254 . S
O101 Zn98 2.031 . S
O101 C105 1.269 . S
O102 Zn99 1.986 . S
O102 C109 1.262 . S
O103 Zn98 2.049 . S
O103 C111 1.260 . S
O104 Zn99 1.996 . S
O104 C111 1.257 . S
C105 O100 1.254 . S
C105 O101 1.269 . S
C106 O107 1.249 . S
C106 O108 1.270 . S
O107 Zn99 1.943 . S
O107 C106 1.249 . S
O108 Zn98 2.067 . S
O108 C106 1.270 . S
C109 O102 1.262 . S
C109 O110 1.232 . S
O110 C109 1.232 . S
C111 O103 1.260 . S
C111 O104 1.257 . S
Zn112 O115 2.031 . S
Zn112 O117 2.049 . S
Zn112 O122 2.067 . S
Zn113 O114 1.962 . S
Zn113 O116 1.986 . S
Zn113 O118 1.996 . S
Zn113 O121 1.943 . S
O114 Zn113 1.962 . S
O114 C119 1.254 . S
O115 Zn112 2.031 . S
O115 C119 1.269 . S
O116 Zn113 1.986 . S
O116 C123 1.262 . S
O117 Zn112 2.049 . S
O117 C125 1.260 . S
O118 Zn113 1.996 . S
O118 C125 1.257 . S
C119 O114 1.254 . S
C119 O115 1.269 . S
C120 O121 1.249 . S
C120 O122 1.270 . S
O121 Zn113 1.943 . S
O121 C120 1.249 . S
O122 Zn112 2.067 . S
O122 C120 1.270 . S
C123 O116 1.262 . S
C123 O124 1.232 . S
O124 C123 1.232 . S
C125 O117 1.260 . S
C125 O118 1.257 . S
Zn126 O129 2.031 . S
Zn126 O131 2.049 . S
Zn126 O136 2.067 . S
Zn127 O128 1.962 . S
Zn127 O130 1.986 . S
Zn127 O132 1.996 . S
Zn127 O135 1.943 . S
O128 Zn127 1.962 . S
O128 C133 1.254 . S
O129 Zn126 2.031 . S
O129 C133 1.269 . S
O130 Zn127 1.986 . S
O130 C137 1.262 . S
O131 Zn126 2.049 . S
O131 C139 1.260 . S
O132 Zn127 1.996 . S
O132 C139 1.257 . S
C133 O128 1.254 . S
C133 O129 1.269 . S
C134 O135 1.249 . S
C134 O136 1.270 . S
O135 Zn127 1.943 . S
O135 C134 1.249 . S
O136 Zn126 2.067 . S
O136 C134 1.270 . S
C137 O130 1.262 . S
C137 O138 1.232 . S
O138 C137 1.232 . S
C139 O131 1.260 . S
C139 O132 1.257 . S
Zn140 O143 2.031 . S
Zn140 O145 2.049 . S
Zn140 O150 2.067 . S
Zn141 O142 1.962 . S
Zn141 O144 1.986 . S
Zn141 O146 1.996 . S
Zn141 O149 1.943 . S
O142 Zn141 1.962 . S
O142 C147 1.254 . S
O143 Zn140 2.031 . S
O143 C147 1.269 . S
O144 Zn141 1.986 . S
O144 C151 1.262 . S
O145 Zn140 2.049 . S
O145 C153 1.260 . S
O146 Zn141 1.996 . S
O146 C153 1.257 . S
C147 O142 1.254 . S
C147 O143 1.269 . S
C148 O149 1.249 . S
C148 O150 1.270 . S
O149 Zn141 1.943 . S
O149 C148 1.249 . S
O150 Zn140 2.067 . S
O150 C148 1.270 . S
C151 O144 1.262 . S
C151 O152 1.232 . S
O152 C151 1.232 . S
C153 O145 1.260 . S
C153 O146 1.257 . S
Zn154 O157 2.031 . S
Zn154 O159 2.049 . S
Zn154 O164 2.067 . S
Zn155 O156 1.962 . S
Zn155 O158 1.986 . S
Zn155 O160 1.996 . S
Zn155 O163 1.943 . S
O156 Zn155 1.962 . S
O156 C161 1.254 . S
O157 Zn154 2.031 . S
O157 C161 1.269 . S
O158 Zn155 1.986 . S
O158 C165 1.262 . S
O159 Zn154 2.049 . S
O159 C167 1.260 . S
O160 Zn155 1.996 . S
O160 C167 1.257 . S
C161 O156 1.254 . S
C161 O157 1.269 . S
C162 O163 1.249 . S
C162 O164 1.270 . S
O163 Zn155 1.943 . S
O163 C162 1.249 . S
O164 Zn154 2.067 . S
O164 C162 1.270 . S
C165 O158 1.262 . S
C165 O166 1.232 . S
O166 C165 1.232 . S
C167 O159 1.260 . S
C167 O160 1.257 . S
Zn168 O171 2.031 . S
Zn168 O173 2.049 . S
Zn168 O178 2.067 . S
Zn169 O170 1.962 . S
Zn169 O172 1.986 . S
Zn169 O174 1.996 . S
Zn169 O177 1.943 . S
O170 Zn169 1.962 . S
O170 C175 1.254 . S
O171 Zn168 2.031 . S
O171 C175 1.269 . S
O172 Zn169 1.986 . S
O172 C179 1.262 . S
O173 Zn168 2.049 . S
O173 C181 1.260 . S
O174 Zn169 1.996 . S
O174 C181 1.257 . S
C175 O170 1.254 . S
C175 O171 1.269 . S
C176 O177 1.249 . S
C176 O178 1.270 . S
O177 Zn169 1.943 . S
O177 C176 1.249 . S
O178 Zn168 2.067 . S
O178 C176 1.270 . S
C179 O172 1.262 . S
C179 O180 1.232 . S
O180 C179 1.232 . S
C181 O173 1.260 . S
C181 O174 1.257 . S
Zn182 O185 2.031 . S
Zn182 O187 2.049 . S
Zn182 O192 2.067 . S
Zn183 O184 1.962 . S
Zn183 O186 1.986 . S
Zn183 O188 1.996 . S
Zn183 O191 1.943 . S
O184 Zn183 1.962 . S
O184 C189 1.254 . S
O185 Zn182 2.031 . S
O185 C189 1.269 . S
O186 Zn183 1.986 . S
O186 C193 1.262 . S
O187 Zn182 2.049 . S
O187 C195 1.260 . S
O188 Zn183 1.996 . S
O188 C195 1.257 . S
C189 O184 1.254 . S
C189 O185 1.269 . S
C190 O191 1.249 . S
C190 O192 1.270 . S
O191 Zn183 1.943 . S
O191 C190 1.249 . S
O192 Zn182 2.067 . S
O192 C190 1.270 . S
C193 O186 1.262 . S
C193 O194 1.232 . S
O194 C193 1.232 . S
C195 O187 1.260 . S
C195 O188 1.257 . S
Zn196 O199 2.031 . S
Zn196 O201 2.049 . S
Zn196 O206 2.067 . S
Zn197 O198 1.962 . S
Zn197 O200 1.986 . S
Zn197 O202 1.996 . S
Zn197 O205 1.943 . S
O198 Zn197 1.962 . S
O198 C203 1.254 . S
O199 Zn196 2.031 . S
O199 C203 1.269 . S
O200 Zn197 1.986 . S
O200 C207 1.262 . S
O201 Zn196 2.049 . S
O201 C209 1.260 . S
O202 Zn197 1.996 . S
O202 C209 1.257 . S
C203 O198 1.254 . S
C203 O199 1.269 . S
C204 O205 1.249 . S
C204 O206 1.270 . S
O205 Zn197 1.943 . S
O205 C204 1.249 . S
O206 Zn196 2.067 . S
O206 C204 1.270 . S
C207 O200 1.262 . S
C207 O208 1.232 . S
O208 C207 1.232 . S
C209 O201 1.260 . S
C209 O202 1.257 . S
Zn210 O213 2.031 . S
Zn210 O215 2.049 . S
Zn210 O220 2.067 . S
Zn211 O212 1.962 . S
Zn211 O214 1.986 . S
Zn211 O216 1.996 . S
Zn211 O219 1.943 . S
O212 Zn211 1.962 . S
O212 C217 1.254 . S
O213 Zn210 2.031 . S
O213 C217 1.269 . S
O214 Zn211 1.986 . S
O214 C221 1.262 . S
O215 Zn210 2.049 . S
O215 C223 1.260 . S
O216 Zn211 1.996 . S
O216 C223 1.257 . S
C217 O212 1.254 . S
C217 O213 1.269 . S
C218 O219 1.249 . S
C218 O220 1.270 . S
O219 Zn211 1.943 . S
O219 C218 1.249 . S
O220 Zn210 2.067 . S
O220 C218 1.270 . S
C221 O214 1.262 . S
C221 O222 1.232 . S
O222 C221 1.232 . S
C223 O215 1.260 . S
C223 O216 1.257 . S
Zn224 O227 2.031 . S
Zn224 O229 2.049 . S
Zn224 O234 2.067 . S
Zn225 O226 1.962 . S
Zn225 O228 1.986 . S
Zn225 O230 1.996 . S
Zn225 O233 1.943 . S
O226 Zn225 1.962 . S
O226 C231 1.254 . S
O227 Zn224 2.031 . S
O227 C231 1.269 . S
O228 Zn225 1.986 . S
O228 C235 1.262 . S
O229 Zn224 2.049 . S
O229 C237 1.260 . S
O230 Zn225 1.996 . S
O230 C237 1.257 . S
C231 O226 1.254 . S
C231 O227 1.269 . S
C232 O233 1.249 . S
C232 O234 1.270 . S
O233 Zn225 1.943 . S
O233 C232 1.249 . S
O234 Zn224 2.067 . S
O234 C232 1.270 . S
C235 O228 1.262 . S
C235 O236 1.232 . S
O236 C235 1.232 . S
C237 O229 1.260 . S
C237 O230 1.257 . S
Zn238 O241 2.031 . S
Zn238 O243 2.049 . S
Zn238 O248 2.067 . S
Zn239 O240 1.962 . S
Zn239 O242 1.986 . S
Zn239 O244 1.996 . S
Zn239 O247 1.943 . S
O240 Zn239 1.962 . S
O240 C245 1.254 . S
O241 Zn238 2.031 . S
O241 C245 1.269 . S
O242 Zn239 1.986 . S
O242 C249 1.262 . S
O243 Zn238 2.049 . S
O243 C251 1.260 . S
O244 Zn239 1.996 . S
O244 C251 1.257 . S
C245 O240 1.254 . S
C245 O241 1.269 . S
C246 O247 1.249 . S
C246 O248 1.270 . S
O247 Zn239 1.943 . S
O247 C246 1.249 . S
O248 Zn238 2.067 . S
O248 C246 1.270 . S
C249 O242 1.262 . S
C249 O250 1.232 . S
O250 C249 1.232 . S
C251 O243 1.260 . S
C251 O244 1.257 . S
Zn252 O255 2.031 . S
Zn252 O257 2.049 . S
Zn252 O262 2.067 . S
Zn253 O254 1.962 . S
Zn253 O256 1.986 . S
Zn253 O258 1.996 . S
Zn253 O261 1.943 . S
O254 Zn253 1.962 . S
O254 C259 1.254 . S
O255 Zn252 2.031 . S
O255 C259 1.269 . S
O256 Zn253 1.986 . S
O256 C263 1.262 . S
O257 Zn252 2.049 . S
O257 C265 1.260 . S
O258 Zn253 1.996 . S
O258 C265 1.257 . S
C259 O254 1.254 . S
C259 O255 1.269 . S
C260 O261 1.249 . S
C260 O262 1.270 . S
O261 Zn253 1.943 . S
O261 C260 1.249 . S
O262 Zn252 2.067 . S
O262 C260 1.270 . S
C263 O256 1.262 . S
C263 O264 1.232 . S
O264 C263 1.232 . S
C265 O257 1.260 . S
C265 O258 1.257 . S
Zn266 O269 2.031 . S
Zn266 O271 2.049 . S
Zn266 O276 2.067 . S
Zn267 O268 1.962 . S
Zn267 O270 1.986 . S
Zn267 O272 1.996 . S
Zn267 O275 1.943 . S
O268 Zn267 1.962 . S
O268 C273 1.254 . S
O269 Zn266 2.031 . S
O269 C273 1.269 . S
O270 Zn267 1.986 . S
O270 C277 1.262 . S
O271 Zn266 2.049 . S
O271 C279 1.260 . S
O272 Zn267 1.996 . S
O272 C279 1.257 . S
C273 O268 1.254 . S
C273 O269 1.269 . S
C274 O275 1.249 . S
C274 O276 1.270 . S
O275 Zn267 1.943 . S
O275 C274 1.249 . S
O276 Zn266 2.067 . S
O276 C274 1.270 . S
C277 O270 1.262 . S
C277 O278 1.232 . S
O278 C277 1.232 . S
C279 O271 1.260 . S
C279 O272 1.257 . S
Zn280 O283 2.031 . S
Zn280 O285 2.049 . S
Zn280 O290 2.067 . S
Zn281 O282 1.962 . S
Zn281 O284 1.986 . S
Zn281 O286 1.996 . S
Zn281 O289 1.943 . S
O282 Zn281 1.962 . S
O282 C287 1.254 . S
O283 Zn280 2.031 . S
O283 C287 1.269 . S
O284 Zn281 1.986 . S
O284 C291 1.262 . S
O285 Zn280 2.049 . S
O285 C293 1.260 . S
O286 Zn281 1.996 . S
O286 C293 1.257 . S
C287 O282 1.254 . S
C287 O283 1.269 . S
C288 O289 1.249 . S
C288 O290 1.270 . S
O289 Zn281 1.943 . S
O289 C288 1.249 . S
O290 Zn280 2.067 . S
O290 C288 1.270 . S
C291 O284 1.262 . S
C291 O292 1.232 . S
O292 C291 1.232 . S
C293 O285 1.260 . S
C293 O286 1.257 . S
Zn294 O297 2.031 . S
Zn294 O299 2.049 . S
Zn294 O304 2.067 . S
Zn295 O296 1.962 . S
Zn295 O298 1.986 . S
Zn295 O300 1.996 . S
Zn295 O303 1.943 . S
O296 Zn295 1.962 . S
O296 C301 1.254 . S
O297 Zn294 2.031 . S
O297 C301 1.269 . S
O298 Zn295 1.986 . S
O298 C305 1.262 . S
O299 Zn294 2.049 . S
O299 C307 1.260 . S
O300 Zn295 1.996 . S
O300 C307 1.257 . S
C301 O296 1.254 . S
C301 O297 1.269 . S
C302 O303 1.249 . S
C302 O304 1.270 . S
O303 Zn295 1.943 . S
O303 C302 1.249 . S
O304 Zn294 2.067 . S
O304 C302 1.270 . S
C305 O298 1.262 . S
C305 O306 1.232 . S
O306 C305 1.232 . S
C307 O299 1.260 . S
C307 O300 1.257 . S
Zn308 O311 2.031 . S
Zn308 O313 2.049 . S
Zn308 O318 2.067 . S
Zn309 O310 1.962 . S
Zn309 O312 1.986 . S
Zn309 O314 1.996 . S
Zn309 O317 1.943 . S
O310 Zn309 1.962 . S
O310 C315 1.254 . S
O311 Zn308 2.031 . S
O311 C315 1.269 . S
O312 Zn309 1.986 . S
O312 C319 1.262 . S
O313 Zn308 2.049 . S
O313 C321 1.260 . S
O314 Zn309 1.996 . S
O314 C321 1.257 . S
C315 O310 1.254 . S
C315 O311 1.269 . S
C316 O317 1.249 . S
C316 O318 1.270 . S
O317 Zn309 1.943 . S
O317 C316 1.249 . S
O318 Zn308 2.067 . S
O318 C316 1.270 . S
C319 O312 1.262 . S
C319 O320 1.232 . S
O320 C319 1.232 . S
C321 O313 1.260 . S
C321 O314 1.257 . S
Zn322 O325 2.031 . S
Zn322 O327 2.049 . S
Zn322 O332 2.067 . S
Zn323 O324 1.962 . S
Zn323 O326 1.986 . S
Zn323 O328 1.996 . S
Zn323 O331 1.943 . S
O324 Zn323 1.962 . S
O324 C329 1.254 . S
O325 Zn322 2.031 . S
O325 C329 1.269 . S
O326 Zn323 1.986 . S
O326 C333 1.262 . S
O327 Zn322 2.049 . S
O327 C335 1.260 . S
O328 Zn323 1.996 . S
O328 C335 1.257 . S
C329 O324 1.254 . S
C329 O325 1.269 . S
C330 O331 1.249 . S
C330 O332 1.270 . S
O331 Zn323 1.943 . S
O331 C330 1.249 . S
O332 Zn322 2.067 . S
O332 C330 1.270 . S
C333 O326 1.262 . S
C333 O334 1.232 . S
O334 C333 1.232 . S
C335 O327 1.260 . S
C335 O328 1.257 . S
Zn336 O339 2.031 . S
Zn336 O341 2.049 . S
Zn336 O346 2.067 . S
Zn337 O338 1.962 . S
Zn337 O340 1.986 . S
Zn337 O342 1.996 . S
Zn337 O345 1.943 . S
O338 Zn337 1.962 . S
O338 C343 1.254 . S
O339 Zn336 2.031 . S
O339 C343 1.269 . S
O340 Zn337 1.986 . S
O340 C347 1.262 . S
O341 Zn336 2.049 . S
O341 C349 1.260 . S
O342 Zn337 1.996 . S
O342 C349 1.257 . S
C343 O338 1.254 . S
C343 O339 1.269 . S
C344 O345 1.249 . S
C344 O346 1.270 . S
O345 Zn337 1.943 . S
O345 C344 1.249 . S
O346 Zn336 2.067 . S
O346 C344 1.270 . S
C347 O340 1.262 . S
C347 O348 1.232 . S
O348 C347 1.232 . S
C349 O341 1.260 . S
C349 O342 1.257 . S
Zn350 O353 2.031 . S
Zn350 O355 2.049 . S
Zn350 O360 2.067 . S
Zn351 O352 1.962 . S
Zn351 O354 1.986 . S
Zn351 O356 1.996 . S
Zn351 O359 1.943 . S
O352 Zn351 1.962 . S
O352 C357 1.254 . S
O353 Zn350 2.031 . S
O353 C357 1.269 . S
O354 Zn351 1.986 . S
O354 C361 1.262 . S
O355 Zn350 2.049 . S
O355 C363 1.260 . S
O356 Zn351 1.996 . S
O356 C363 1.257 . S
C357 O352 1.254 . S
C357 O353 1.269 . S
C358 O359 1.249 . S
C358 O360 1.270 . S
O359 Zn351 1.943 . S
O359 C358 1.249 . S
O360 Zn350 2.067 . S
O360 C358 1.270 . S
C361 O354 1.262 . S
C361 O362 1.232 . S
O362 C361 1.232 . S
C363 O355 1.260 . S
C363 O356 1.257 . S
Zn364 O367 2.031 . S
Zn364 O369 2.049 . S
Zn364 O374 2.067 . S
Zn365 O366 1.962 . S
Zn365 O368 1.986 . S
Zn365 O370 1.996 . S
Zn365 O373 1.943 . S
O366 Zn365 1.962 . S
O366 C371 1.254 . S
O367 Zn364 2.031 . S
O367 C371 1.269 . S
O368 Zn365 1.986 . S
O368 C375 1.262 . S
O369 Zn364 2.049 . S
O369 C377 1.260 . S
O370 Zn365 1.996 . S
O370 C377 1.257 . S
C371 O366 1.254 . S
C371 O367 1.269 . S
C372 O373 1.249 . S
C372 O374 1.270 . S
O373 Zn365 1.943 . S
O373 C372 1.249 . S
O374 Zn364 2.067 . S
O374 C372 1.270 . S
C375 O368 1.262 . S
C375 O376 1.232 . S
O376 C375 1.232 . S
C377 O369 1.260 . S
C377 O370 1.257 . S
Zn378 O381 2.031 . S
Zn378 O383 2.049 . S
Zn378 O388 2.067 . S
Zn379 O380 1.962 . S
Zn379 O382 1.986 . S
Zn379 O384 1.996 . S
Zn379 O387 1.943 . S
O380 Zn379 1.962 . S
O380 C385 1.254 . S
O381 Zn378 2.031 . S
O381 C385 1.269 . S
O382 Zn379 1.986 . S
O382 C389 1.262 . S
O383 Zn378 2.049 . S
O383 C391 1.260 . S
O384 Zn379 1.996 . S
O384 C391 1.257 . S
C385 O380 1.254 . S
C385 O381 1.269 . S
C386 O387 1.249 . S
C386 O388 1.270 . S
O387 Zn379 1.943 . S
O387 C386 1.249 . S
O388 Zn378 2.067 . S
O388 C386 1.270 . S
C389 O382 1.262 . S
C389 O390 1.232 . S
O390 C389 1.232 . S
C391 O383 1.260 . S
C391 O384 1.257 . S
Zn392 O395 2.031 . S
Zn392 O397 2.049 . S
Zn392 O402 2.067 . S
Zn393 O394 1.962 . S
Zn393 O396 1.986 . S
Zn393 O398 1.996 . S
Zn393 O401 1.943 . S
O394 Zn393 1.962 . S
O394 C399 1.254 . S
O395 Zn392 2.031 . S
O395 C399 1.269 . S
O396 Zn393 1.986 . S
O396 C403 1.262 . S
O397 Zn392 2.049 . S
O397 C405 1.260 . S
O398 Zn393 1.996 . S
O398 C405 1.257 . S
C399 O394 1.254 . S
C399 O395 1.269 . S
C400 O401 1.249 . S
C400 O402 1.270 . S
O401 Zn393 1.943 . S
O401 C400 1.249 . S
O402 Zn392 2.067 . S
O402 C400 1.270 . S
C403 O396 1.262 . S
C403 O404 1.232 . S
O404 C403 1.232 . S
C405 O397 1.260 . S
C405 O398 1.257 . S
Zn406 O409 2.031 . S
Zn406 O411 2.049 . S
Zn406 O416 2.067 . S
Zn407 O408 1.962 . S
Zn407 O410 1.986 . S
Zn407 O412 1.996 . S
Zn407 O415 1.943 . S
O408 Zn407 1.962 . S
O408 C413 1.254 . S
O409 Zn406 2.031 . S
O409 C413 1.269 . S
O410 Zn407 1.986 . S
O410 C417 1.262 . S
O411 Zn406 2.049 . S
O411 C419 1.260 . S
O412 Zn407 1.996 . S
O412 C419 1.257 . S
C413 O408 1.254 . S
C413 O409 1.269 . S
C414 O415 1.249 . S
C414 O416 1.270 . S
O415 Zn407 1.943 . S
O415 C414 1.249 . S
O416 Zn406 2.067 . S
O416 C414 1.270 . S
C417 O410 1.262 . S
C417 O418 1.232 . S
O418 C417 1.232 . S
C419 O411 1.260 . S
C419 O412 1.257 . S
Zn420 O423 2.031 . S
Zn420 O425 2.049 . S
Zn420 O430 2.067 . S
Zn421 O422 1.962 . S
Zn421 O424 1.986 . S
Zn421 O426 1.996 . S
Zn421 O429 1.943 . S
O422 Zn421 1.962 . S
O422 C427 1.254 . S
O423 Zn420 2.031 . S
O423 C427 1.269 . S
O424 Zn421 1.986 . S
O424 C431 1.262 . S
O425 Zn420 2.049 . S
O425 C433 1.260 . S
O426 Zn421 1.996 . S
O426 C433 1.257 . S
C427 O422 1.254 . S
C427 O423 1.269 . S
C428 O429 1.249 . S
C428 O430 1.270 . S
O429 Zn421 1.943 . S
O429 C428 1.249 . S
O430 Zn420 2.067 . S
O430 C428 1.270 . S
C431 O424 1.262 . S
C431 O432 1.232 . S
O432 C431 1.232 . S
C433 O425 1.260 . S
C433 O426 1.257 . S
Zn434 O437 2.031 . S
Zn434 O439 2.049 . S
Zn434 O444 2.067 . S
Zn435 O436 1.962 . S
Zn435 O438 1.986 . S
Zn435 O440 1.996 . S
Zn435 O443 1.943 . S
O436 Zn435 1.962 . S
O436 C441 1.254 . S
O437 Zn434 2.031 . S
O437 C441 1.269 . S
O438 Zn435 1.986 . S
O438 C445 1.262 . S
O439 Zn434 2.049 . S
O439 C447 1.260 . S
O440 Zn435 1.996 . S
O440 C447 1.257 . S
C441 O436 1.254 . S
C441 O437 1.269 . S
C442 O443 1.249 . S
C442 O444 1.270 . S
O443 Zn435 1.943 . S
O443 C442 1.249 . S
O444 Zn434 2.067 . S
O444 C442 1.270 . S
C445 O438 1.262 . S
C445 O446 1.232 . S
O446 C445 1.232 . S
C447 O439 1.260 . S
C447 O440 1.257 . S
H448 C456 0.950 1_554 S
H449 C461 0.950 . S
H450 C458 0.950 . S
H451 C460 0.950 . S
H452 C462 0.950 1_556 S
H453 C464 0.950 . S
H454 C466 0.950 . S
H455 C467 0.950 . S
C456 H448 0.950 1_556 S
C456 C457 1.386 . S
C456 C458 1.391 1_556 S
C457 C456 1.386 . S
C457 C461 1.393 . S
C458 H450 0.950 . S
C458 C456 1.391 1_554 S
C458 C459 1.400 1_554 S
C459 C458 1.400 1_556 S
C459 C460 1.398 . S
C459 C465 1.491 1_656 S
C460 H451 0.950 . S
C460 C459 1.398 . S
C460 C461 1.391 . S
C461 H449 0.950 . S
C461 C457 1.393 . S
C461 C460 1.391 . S
C462 H452 0.950 1_554 S
C462 C463 1.386 . S
C462 C464 1.391 1_554 S
C463 C462 1.386 . S
C463 C467 1.393 . S
C464 H453 0.950 . S
C464 C462 1.391 1_556 S
C464 C465 1.400 1_556 S
C465 C459 1.491 1_454 S
C465 C464 1.400 1_554 S
C465 C466 1.398 . S
C466 H454 0.950 . S
C466 C465 1.398 . S
C466 C467 1.391 . S
C467 H455 0.950 . S
C467 C463 1.393 . S
C467 C466 1.391 . S
H468 C476 0.950 . S
H469 C481 0.950 . S
H470 C478 0.950 . S
H471 C480 0.950 . S
H472 C482 0.950 . S
H473 C484 0.950 . S
H474 C486 0.950 . S
H475 C487 0.950 . S
C476 H468 0.950 . S
C476 C477 1.386 . S
C476 C478 1.391 . S
C477 C476 1.386 . S
C477 C481 1.393 . S
C478 H470 0.950 . S
C478 C476 1.391 . S
C478 C479 1.400 . S
C479 C478 1.400 . S
C479 C480 1.398 . S
C479 C485 1.491 . S
C480 H471 0.950 . S
C480 C479 1.398 . S
C480 C481 1.391 . S
C481 H469 0.950 . S
C481 C477 1.393 . S
C481 C480 1.391 . S
C482 H472 0.950 . S
C482 C483 1.386 . S
C482 C484 1.391 . S
C483 C482 1.386 . S
C483 C487 1.393 . S
C484 H473 0.950 . S
C484 C482 1.391 . S
C484 C485 1.400 . S
C485 C479 1.491 . S
C485 C484 1.400 . S
C485 C486 1.398 . S
C486 H474 0.950 . S
C486 C485 1.398 . S
C486 C487 1.391 . S
C487 H475 0.950 . S
C487 C483 1.393 . S
C487 C486 1.391 . S
H488 C496 0.950 . S
H489 C501 0.950 . S
H490 C498 0.950 . S
H491 C500 0.950 . S
H492 C502 0.950 . S
H493 C504 0.950 . S
H494 C506 0.950 . S
H495 C507 0.950 . S
C496 H488 0.950 . S
C496 C497 1.386 . S
C496 C498 1.391 . S
C497 C496 1.386 . S
C497 C501 1.393 . S
C498 H490 0.950 . S
C498 C496 1.391 . S
C498 C499 1.400 . S
C499 C498 1.400 . S
C499 C500 1.398 . S
C499 C505 1.491 . S
C500 H491 0.950 . S
C500 C499 1.398 . S
C500 C501 1.391 . S
C501 H489 0.950 . S
C501 C497 1.393 . S
C501 C500 1.391 . S
C502 H492 0.950 . S
C502 C503 1.386 . S
C502 C504 1.391 . S
C503 C502 1.386 . S
C503 C507 1.393 . S
C504 H493 0.950 . S
C504 C502 1.391 . S
C504 C505 1.400 . S
C505 C499 1.491 . S
C505 C504 1.400 . S
C505 C506 1.398 . S
C506 H494 0.950 . S
C506 C505 1.398 . S
C506 C507 1.391 . S
C507 H495 0.950 . S
C507 C503 1.393 . S
C507 C506 1.391 . S
H508 C516 0.950 . S
H509 C521 0.950 . S
H510 C518 0.950 . S
H511 C520 0.950 . S
H512 C522 0.950 . S
H513 C524 0.950 . S
H514 C526 0.950 . S
H515 C527 0.950 . S
C516 H508 0.950 . S
C516 C517 1.386 . S
C516 C518 1.391 . S
C517 C516 1.386 . S
C517 C521 1.393 . S
C518 H510 0.950 . S
C518 C516 1.391 . S
C518 C519 1.400 . S
C519 C518 1.400 . S
C519 C520 1.398 . S
C519 C525 1.491 . S
C520 H511 0.950 . S
C520 C519 1.398 . S
C520 C521 1.391 . S
C521 H509 0.950 . S
C521 C517 1.393 . S
C521 C520 1.391 . S
C522 H512 0.950 . S
C522 C523 1.386 . S
C522 C524 1.391 . S
C523 C522 1.386 . S
C523 C527 1.393 . S
C524 H513 0.950 . S
C524 C522 1.391 . S
C524 C525 1.400 . S
C525 C519 1.491 . S
C525 C524 1.400 . S
C525 C526 1.398 . S
C526 H514 0.950 . S
C526 C525 1.398 . S
C526 C527 1.391 . S
C527 H515 0.950 . S
C527 C523 1.393 . S
C527 C526 1.391 . S
H528 C536 0.950 . S
H529 C541 0.950 . S
H530 C538 0.950 . S
H531 C540 0.950 . S
H532 C542 0.950 . S
H533 C544 0.950 . S
H534 C546 0.950 . S
H535 C547 0.950 . S
C536 H528 0.950 . S
C536 C537 1.386 . S
C536 C538 1.391 . S
C537 C536 1.386 . S
C537 C541 1.393 . S
C538 H530 0.950 . S
C538 C536 1.391 . S
C538 C539 1.400 . S
C539 C538 1.400 . S
C539 C540 1.398 . S
C539 C545 1.491 1_655 S
C540 H531 0.950 . S
C540 C539 1.398 . S
C540 C541 1.391 . S
C541 H529 0.950 . S
C541 C537 1.393 . S
C541 C540 1.391 . S
C542 H532 0.950 . S
C542 C543 1.386 . S
C542 C544 1.391 . S
C543 C542 1.386 . S
C543 C547 1.393 . S
C544 H533 0.950 . S
C544 C542 1.391 . S
C544 C545 1.400 . S
C545 C539 1.491 1_455 S
C545 C544 1.400 . S
C545 C546 1.398 . S
C546 H534 0.950 . S
C546 C545 1.398 . S
C546 C547 1.391 . S
C547 H535 0.950 . S
C547 C543 1.393 . S
C547 C546 1.391 . S
H548 C556 0.950 . S
H549 C561 0.950 . S
H550 C558 0.950 . S
H551 C560 0.950 . S
H552 C562 0.950 . S
H553 C564 0.950 . S
H554 C566 0.950 . S
H555 C567 0.950 . S
C556 H548 0.950 . S
C556 C557 1.386 . S
C556 C558 1.391 . S
C557 C556 1.386 . S
C557 C561 1.393 . S
C558 H550 0.950 . S
C558 C556 1.391 . S
C558 C559 1.400 . S
C559 C558 1.400 . S
C559 C560 1.398 . S
C559 C565 1.491 . S
C560 H551 0.950 . S
C560 C559 1.398 . S
C560 C561 1.391 . S
C561 H549 0.950 . S
C561 C557 1.393 . S
C561 C560 1.391 . S
C562 H552 0.950 . S
C562 C563 1.386 . S
C562 C564 1.391 . S
C563 C562 1.386 . S
C563 C567 1.393 . S
C564 H553 0.950 . S
C564 C562 1.391 . S
C564 C565 1.400 . S
C565 C559 1.491 . S
C565 C564 1.400 . S
C565 C566 1.398 . S
C566 H554 0.950 . S
C566 C565 1.398 . S
C566 C567 1.391 . S
C567 H555 0.950 . S
C567 C563 1.393 . S
C567 C566 1.391 . S
H568 C576 0.950 . S
H569 C581 0.950 . S
H570 C578 0.950 . S
H571 C580 0.950 . S
H572 C582 0.950 . S
H573 C584 0.950 . S
H574 C586 0.950 . S
H575 C587 0.950 . S
C576 H568 0.950 . S
C576 C577 1.386 . S
C576 C578 1.391 . S
C577 C576 1.386 . S
C577 C581 1.393 . S
C578 H570 0.950 . S
C578 C576 1.391 . S
C578 C579 1.400 . S
C579 C578 1.400 . S
C579 C580 1.398 . S
C579 C585 1.491 1_556 S
C580 H571 0.950 . S
C580 C579 1.398 . S
C580 C581 1.391 . S
C581 H569 0.950 . S
C581 C577 1.393 . S
C581 C580 1.391 . S
C582 H572 0.950 . S
C582 C583 1.386 . S
C582 C584 1.391 . S
C583 C582 1.386 . S
C583 C587 1.393 . S
C584 H573 0.950 . S
C584 C582 1.391 . S
C584 C585 1.400 . S
C585 C579 1.491 1_554 S
C585 C584 1.400 . S
C585 C586 1.398 . S
C586 H574 0.950 . S
C586 C585 1.398 . S
C586 C587 1.391 . S
C587 H575 0.950 . S
C587 C583 1.393 . S
C587 C586 1.391 . S
H588 C596 0.950 . S
H589 C601 0.950 . S
H590 C598 0.950 . S
H591 C600 0.950 . S
H592 C602 0.950 . S
H593 C604 0.950 . S
H594 C606 0.950 . S
H595 C607 0.950 . S
C596 H588 0.950 . S
C596 C597 1.386 . S
C596 C598 1.391 . S
C597 C596 1.386 . S
C597 C601 1.393 . S
C598 H590 0.950 . S
C598 C596 1.391 . S
C598 C599 1.400 . S
C599 C598 1.400 . S
C599 C600 1.398 . S
C599 C605 1.491 . S
C600 H591 0.950 . S
C600 C599 1.398 . S
C600 C601 1.391 . S
C601 H589 0.950 . S
C601 C597 1.393 . S
C601 C600 1.391 . S
C602 H592 0.950 . S
C602 C603 1.386 . S
C602 C604 1.391 . S
C603 C602 1.386 . S
C603 C607 1.393 . S
C604 H593 0.950 . S
C604 C602 1.391 . S
C604 C605 1.400 . S
C605 C599 1.491 . S
C605 C604 1.400 . S
C605 C606 1.398 . S
C606 H594 0.950 . S
C606 C605 1.398 . S
C606 C607 1.391 . S
C607 H595 0.950 . S
C607 C603 1.393 . S
C607 C606 1.391 . S
H608 C616 0.950 . S
H609 C621 0.950 . S
H610 C618 0.950 . S
H611 C620 0.950 . S
H612 C622 0.950 . S
H613 C624 0.950 . S
H614 C626 0.950 . S
H615 C627 0.950 . S
C616 H608 0.950 . S
C616 C617 1.386 . S
C616 C618 1.391 . S
C617 C616 1.386 . S
C617 C621 1.393 . S
C618 H610 0.950 . S
C618 C616 1.391 . S
C618 C619 1.400 . S
C619 C618 1.400 . S
C619 C620 1.398 . S
C619 C625 1.491 . S
C620 H611 0.950 . S
C620 C619 1.398 . S
C620 C621 1.391 . S
C621 H609 0.950 . S
C621 C617 1.393 . S
C621 C620 1.391 . S
C622 H612 0.950 . S
C622 C623 1.386 . S
C622 C624 1.391 . S
C623 C622 1.386 . S
C623 C627 1.393 . S
C624 H613 0.950 . S
C624 C622 1.391 . S
C624 C625 1.400 . S
C625 C619 1.491 . S
C625 C624 1.400 . S
C625 C626 1.398 . S
C626 H614 0.950 . S
C626 C625 1.398 . S
C626 C627 1.391 . S
C627 H615 0.950 . S
C627 C623 1.393 . S
C627 C626 1.391 . S
H628 C636 0.950 . S
H629 C641 0.950 . S
H630 C638 0.950 . S
H631 C640 0.950 . S
H632 C642 0.950 . S
H633 C644 0.950 . S
H634 C646 0.950 . S
H635 C647 0.950 . S
C636 H628 0.950 . S
C636 C637 1.386 . S
C636 C638 1.391 . S
C637 C636 1.386 . S
C637 C641 1.393 . S
C638 H630 0.950 . S
C638 C636 1.391 . S
C638 C639 1.400 . S
C639 C638 1.400 . S
C639 C640 1.398 . S
C639 C645 1.491 . S
C640 H631 0.950 . S
C640 C639 1.398 . S
C640 C641 1.391 . S
C641 H629 0.950 . S
C641 C637 1.393 . S
C641 C640 1.391 . S
C642 H632 0.950 . S
C642 C643 1.386 . S
C642 C644 1.391 . S
C643 C642 1.386 . S
C643 C647 1.393 . S
C644 H633 0.950 . S
C644 C642 1.391 . S
C644 C645 1.400 . S
C645 C639 1.491 . S
C645 C644 1.400 . S
C645 C646 1.398 . S
C646 H634 0.950 . S
C646 C645 1.398 . S
C646 C647 1.391 . S
C647 H635 0.950 . S
C647 C643 1.393 . S
C647 C646 1.391 . S
H648 C656 0.950 . S
H649 C661 0.950 . S
H650 C658 0.950 . S
H651 C660 0.950 . S
H652 C662 0.950 . S
H653 C664 0.950 . S
H654 C666 0.950 . S
H655 C667 0.950 . S
C656 H648 0.950 . S
C656 C657 1.386 . S
C656 C658 1.391 . S
C657 C656 1.386 . S
C657 C661 1.393 . S
C658 H650 0.950 . S
C658 C656 1.391 . S
C658 C659 1.400 . S
C659 C658 1.400 . S
C659 C660 1.398 . S
C659 C665 1.491 . S
C660 H651 0.950 . S
C660 C659 1.398 . S
C660 C661 1.391 . S
C661 H649 0.950 . S
C661 C657 1.393 . S
C661 C660 1.391 . S
C662 H652 0.950 . S
C662 C663 1.386 . S
C662 C664 1.391 . S
C663 C662 1.386 . S
C663 C667 1.393 . S
C664 H653 0.950 . S
C664 C662 1.391 . S
C664 C665 1.400 . S
C665 C659 1.491 . S
C665 C664 1.400 . S
C665 C666 1.398 . S
C666 H654 0.950 . S
C666 C665 1.398 . S
C666 C667 1.391 . S
C667 H655 0.950 . S
C667 C663 1.393 . S
C667 C666 1.391 . S
H668 C676 0.950 . S
H669 C681 0.950 . S
H670 C678 0.950 . S
H671 C680 0.950 . S
H672 C682 0.950 . S
H673 C684 0.950 . S
H674 C686 0.950 . S
H675 C687 0.950 . S
C676 H668 0.950 . S
C676 C677 1.386 . S
C676 C678 1.391 . S
C677 C676 1.386 . S
C677 C681 1.393 . S
C678 H670 0.950 . S
C678 C676 1.391 . S
C678 C679 1.400 . S
C679 C678 1.400 . S
C679 C680 1.398 . S
C679 C685 1.491 . S
C680 H671 0.950 . S
C680 C679 1.398 . S
C680 C681 1.391 . S
C681 H669 0.950 . S
C681 C677 1.393 . S
C681 C680 1.391 . S
C682 H672 0.950 . S
C682 C683 1.386 . S
C682 C684 1.391 . S
C683 C682 1.386 . S
C683 C687 1.393 . S
C684 H673 0.950 . S
C684 C682 1.391 . S
C684 C685 1.400 . S
C685 C679 1.491 . S
C685 C684 1.400 . S
C685 C686 1.398 . S
C686 H674 0.950 . S
C686 C685 1.398 . S
C686 C687 1.391 . S
C687 H675 0.950 . S
C687 C683 1.393 . S
C687 C686 1.391 . S
H688 C696 0.950 . S
H689 C701 0.950 . S
H690 C698 0.950 . S
H691 C700 0.938 1_545 S
H692 C702 0.950 . S
H693 C704 0.950 . S
H694 C706 0.938 1_565 S
H695 C707 0.950 . S
C696 H688 0.950 . S
C696 C697 1.386 . S
C696 C698 1.391 . S
C697 C696 1.386 . S
C697 C701 1.393 . S
C698 H690 0.950 . S
C698 C696 1.391 . S
C698 C699 1.400 . S
C699 C698 1.400 . S
C699 C700 1.398 . S
C699 C705 1.491 1_565 S
C700 H691 0.938 1_565 S
C700 C699 1.398 . S
C700 C701 1.391 . S
C701 H689 0.950 . S
C701 C697 1.393 . S
C701 C700 1.391 . S
C702 H692 0.950 . S
C702 C703 1.386 . S
C702 C704 1.391 . S
C703 C702 1.386 . S
C703 C707 1.393 . S
C704 H693 0.950 . S
C704 C702 1.391 . S
C704 C705 1.400 . S
C705 C699 1.491 1_545 S
C705 C704 1.400 . S
C705 C706 1.398 . S
C706 H694 0.938 1_545 S
C706 C705 1.398 . S
C706 C707 1.391 . S
C707 H695 0.950 . S
C707 C703 1.393 . S
C707 C706 1.391 . S
H708 C716 0.950 . S
H709 C721 0.950 . S
H710 C718 0.950 1_654 S
H711 C720 0.950 1_545 S
H712 C722 0.950 . S
H713 C724 0.950 1_456 S
H714 C726 0.950 1_565 S
H715 C727 0.950 . S
C716 H708 0.950 . S
C716 C717 1.386 . S
C716 C718 1.391 . S
C717 C716 1.386 . S
C717 C721 1.393 . S
C718 H710 0.950 1_456 S
C718 C716 1.391 . S
C718 C719 1.400 . S
C719 C718 1.400 . S
C719 C720 1.398 . S
C719 C725 1.491 1_466 S
C720 H711 0.950 1_565 S
C720 C719 1.398 . S
C720 C721 1.391 . S
C721 H709 0.950 . S
C721 C717 1.393 . S
C721 C720 1.391 . S
C722 H712 0.950 . S
C722 C723 1.386 . S
C722 C724 1.391 . S
C723 C722 1.386 . S
C723 C727 1.393 . S
C724 H713 0.950 1_654 S
C724 C722 1.391 . S
C724 C725 1.400 . S
C725 C719 1.491 1_644 S
C725 C724 1.400 . S
C725 C726 1.398 . S
C726 H714 0.950 1_545 S
C726 C725 1.398 . S
C726 C727 1.391 . S
C727 H715 0.950 . S
C727 C723 1.393 . S
C727 C726 1.391 . S
H728 C736 0.950 . S
H729 C741 0.950 . S
H730 C738 0.950 . S
H731 C740 0.950 1_565 S
H732 C742 0.950 . S
H733 C744 0.950 . S
H734 C746 0.950 1_545 S
H735 C747 0.950 . S
C736 H728 0.950 . S
C736 C737 1.386 . S
C736 C738 1.391 . S
C737 C736 1.386 . S
C737 C741 1.393 . S
C738 H730 0.950 . S
C738 C736 1.391 . S
C738 C739 1.400 . S
C739 C738 1.400 . S
C739 C740 1.398 . S
C739 C745 1.491 1_546 S
C740 H731 0.950 1_545 S
C740 C739 1.398 . S
C740 C741 1.391 . S
C741 H729 0.950 . S
C741 C737 1.393 . S
C741 C740 1.391 . S
C742 H732 0.950 . S
C742 C743 1.386 . S
C742 C744 1.391 . S
C743 C742 1.386 . S
C743 C747 1.393 . S
C744 H733 0.950 . S
C744 C742 1.391 . S
C744 C745 1.400 . S
C745 C739 1.491 1_564 S
C745 C744 1.400 . S
C745 C746 1.398 . S
C746 H734 0.950 1_565 S
C746 C745 1.398 . S
C746 C747 1.391 . S
C747 H735 0.950 . S
C747 C743 1.393 . S
C747 C746 1.391 . S
H748 C756 0.950 . S
H749 C761 0.950 . S
H750 C758 0.950 . S
H751 C760 0.950 1_565 S
H752 C762 0.950 . S
H753 C764 0.950 . S
H754 C766 0.950 1_545 S
H755 C767 0.950 . S
C756 H748 0.950 . S
C756 C757 1.386 . S
C756 C758 1.391 1_455 S
C757 C756 1.386 . S
C757 C761 1.393 . S
C758 H750 0.950 . S
C758 C756 1.391 1_655 S
C758 C759 1.400 1_655 S
C759 C758 1.400 1_455 S
C759 C760 1.398 . S
C759 C765 1.491 1_445 S
C760 H751 0.950 1_545 S
C760 C759 1.398 . S
C760 C761 1.391 . S
C761 H749 0.950 . S
C761 C757 1.393 . S
C761 C760 1.391 . S
C762 H752 0.950 . S
C762 C763 1.386 . S
C762 C764 1.391 1_655 S
C763 C762 1.386 . S
C763 C767 1.393 . S
C764 H753 0.950 . S
C764 C762 1.391 1_455 S
C764 C765 1.400 1_455 S
C765 C759 1.491 1_665 S
C765 C764 1.400 1_655 S
C765 C766 1.398 . S
C766 H754 0.950 1_565 S
C766 C765 1.398 . S
C766 C767 1.391 . S
C767 H755 0.950 . S
C767 C763 1.393 . S
C767 C766 1.391 . S
H768 C776 0.950 . S
H769 C781 0.950 . S
H770 C778 0.941 1_455 S
H771 C780 0.950 . S
H772 C782 0.950 . S
H773 C784 0.941 1_655 S
H774 C786 0.950 . S
H775 C787 0.950 . S
C776 H768 0.950 . S
C776 C777 1.386 . S
C776 C778 1.397 . S
C777 C776 1.386 . S
C777 C781 1.393 . S
C778 H770 0.941 1_655 S
C778 C776 1.397 . S
C778 C779 1.403 . S
C779 C778 1.403 . S
C779 C780 1.398 . S
C779 C785 1.491 1_655 S
C780 H771 0.950 . S
C780 C779 1.398 . S
C780 C781 1.391 . S
C781 H769 0.950 . S
C781 C777 1.393 . S
C781 C780 1.391 . S
C782 H772 0.950 . S
C782 C783 1.386 . S
C782 C784 1.397 . S
C783 C782 1.386 . S
C783 C787 1.393 . S
C784 H773 0.941 1_455 S
C784 C782 1.397 . S
C784 C785 1.403 . S
C785 C779 1.491 1_455 S
C785 C784 1.403 . S
C785 C786 1.398 . S
C786 H774 0.950 . S
C786 C785 1.398 . S
C786 C787 1.391 . S
C787 H775 0.950 . S
C787 C783 1.393 . S
C787 C786 1.391 . S
H788 C796 0.950 . S
H789 C801 0.950 . S
H790 C798 0.950 1_655 S
H791 C800 0.950 . S
H792 C802 0.950 . S
H793 C804 0.950 1_455 S
H794 C806 0.950 . S
H795 C807 0.950 . S
C796 H788 0.950 . S
C796 C797 1.386 . S
C796 C798 1.391 . S
C797 C796 1.386 . S
C797 C801 1.393 . S
C798 H790 0.950 1_455 S
C798 C796 1.391 . S
C798 C799 1.400 . S
C799 C798 1.400 . S
C799 C800 1.398 . S
C799 C805 1.491 1_455 S
C800 H791 0.950 . S
C800 C799 1.398 . S
C800 C801 1.391 . S
C801 H789 0.950 . S
C801 C797 1.393 . S
C801 C800 1.391 . S
C802 H792 0.950 . S
C802 C803 1.386 . S
C802 C804 1.391 . S
C803 C802 1.386 . S
C803 C807 1.393 . S
C804 H793 0.950 1_655 S
C804 C802 1.391 . S
C804 C805 1.400 . S
C805 C799 1.491 1_655 S
C805 C804 1.400 . S
C805 C806 1.398 . S
C806 H794 0.950 . S
C806 C805 1.398 . S
C806 C807 1.391 . S
C807 H795 0.950 . S
C807 C803 1.393 . S
C807 C806 1.391 . S
H808 C816 0.950 . S
H809 C821 0.950 . S
H810 C818 0.950 . S
H811 C820 0.950 . S
H812 C822 0.950 . S
H813 C824 0.950 . S
H814 C826 0.950 . S
H815 C827 0.950 . S
C816 H808 0.950 . S
C816 C817 1.386 . S
C816 C818 1.391 . S
C817 C816 1.386 . S
C817 C821 1.393 . S
C818 H810 0.950 . S
C818 C816 1.391 . S
C818 C819 1.400 . S
C819 C818 1.400 . S
C819 C820 1.398 . S
C819 C825 1.491 . S
C820 H811 0.950 . S
C820 C819 1.398 . S
C820 C821 1.391 . S
C821 H809 0.950 . S
C821 C817 1.393 . S
C821 C820 1.391 . S
C822 H812 0.950 . S
C822 C823 1.386 . S
C822 C824 1.391 . S
C823 C822 1.386 . S
C823 C827 1.393 . S
C824 H813 0.950 . S
C824 C822 1.391 . S
C824 C825 1.400 . S
C825 C819 1.491 . S
C825 C824 1.400 . S
C825 C826 1.398 . S
C826 H814 0.950 . S
C826 C825 1.398 . S
C826 C827 1.391 . S
C827 H815 0.950 . S
C827 C823 1.393 . S
C827 C826 1.391 . S
H828 C836 0.950 . S
H829 C841 0.950 . S
H830 C838 0.950 . S
H831 C840 0.950 . S
H832 C842 0.950 . S
H833 C844 0.950 . S
H834 C846 0.950 . S
H835 C847 0.950 . S
C836 H828 0.950 . S
C836 C837 1.386 . S
C836 C838 1.391 . S
C837 C836 1.386 . S
C837 C841 1.393 . S
C838 H830 0.950 . S
C838 C836 1.391 . S
C838 C839 1.400 . S
C839 C838 1.400 . S
C839 C840 1.398 . S
C839 C845 1.491 . S
C840 H831 0.950 . S
C840 C839 1.398 . S
C840 C841 1.391 . S
C841 H829 0.950 . S
C841 C837 1.393 . S
C841 C840 1.391 . S
C842 H832 0.950 . S
C842 C843 1.386 . S
C842 C844 1.391 . S
C843 C842 1.386 . S
C843 C847 1.393 . S
C844 H833 0.950 . S
C844 C842 1.391 . S
C844 C845 1.400 . S
C845 C839 1.491 . S
C845 C844 1.400 . S
C845 C846 1.398 . S
C846 H834 0.950 . S
C846 C845 1.398 . S
C846 C847 1.391 . S
C847 H835 0.950 . S
C847 C843 1.393 . S
C847 C846 1.391 . S
H848 C856 0.950 . S
H849 C861 0.950 . S
H850 C858 0.950 . S
H851 C860 0.931 1_455 S
H852 C862 0.950 . S
H853 C864 0.950 . S
H854 C866 0.931 1_655 S
H855 C867 0.950 . S
C856 H848 0.950 . S
C856 C857 1.386 . S
C856 C858 1.391 . S
C857 C856 1.386 . S
C857 C861 1.393 . S
C858 H850 0.950 . S
C858 C856 1.391 . S
C858 C859 1.400 . S
C859 C858 1.400 . S
C859 C860 1.398 . S
C859 C865 1.491 1_655 S
C860 H851 0.931 1_655 S
C860 C859 1.398 . S
C860 C861 1.391 . S
C861 H849 0.950 . S
C861 C857 1.393 . S
C861 C860 1.391 . S
C862 H852 0.950 . S
C862 C863 1.386 . S
C862 C864 1.391 . S
C863 C862 1.386 . S
C863 C867 1.393 . S
C864 H853 0.950 . S
C864 C862 1.391 . S
C864 C865 1.400 . S
C865 C859 1.491 1_455 S
C865 C864 1.400 . S
C865 C866 1.398 . S
C866 H854 0.931 1_455 S
C866 C865 1.398 . S
C866 C867 1.391 . S
C867 H855 0.950 . S
C867 C863 1.393 . S
C867 C866 1.391 . S
H868 C876 0.950 . S
H869 C881 0.950 . S
H870 C878 0.950 . S
H871 C880 0.950 . S
H872 C882 0.950 . S
H873 C884 0.950 . S
H874 C886 0.950 . S
H875 C887 0.950 . S
C876 H868 0.950 . S
C876 C877 1.386 . S
C876 C878 1.391 . S
C877 C876 1.386 . S
C877 C881 1.393 . S
C878 H870 0.950 . S
C878 C876 1.391 . S
C878 C879 1.400 . S
C879 C878 1.400 . S
C879 C880 1.398 . S
C879 C885 1.491 . S
C880 H871 0.950 . S
C880 C879 1.398 . S
C880 C881 1.391 . S
C881 H869 0.950 . S
C881 C877 1.393 . S
C881 C880 1.391 . S
C882 H872 0.950 . S
C882 C883 1.386 . S
C882 C884 1.391 . S
C883 C882 1.386 . S
C883 C887 1.393 . S
C884 H873 0.950 . S
C884 C882 1.391 . S
C884 C885 1.400 . S
C885 C879 1.491 . S
C885 C884 1.400 . S
C885 C886 1.398 . S
C886 H874 0.950 . S
C886 C885 1.398 . S
C886 C887 1.391 . S
C887 H875 0.950 . S
C887 C883 1.393 . S
C887 C886 1.391 . S
H888 C896 0.950 . S
H889 C901 0.950 . S
H890 C898 0.950 . S
H891 C900 0.950 . S
H892 C902 0.950 . S
H893 C904 0.950 . S
H894 C906 0.950 . S
H895 C907 0.950 . S
C896 H888 0.950 . S
C896 C897 1.386 . S
C896 C898 1.391 . S
C897 C896 1.386 . S
C897 C901 1.393 . S
C898 H890 0.950 . S
C898 C896 1.391 . S
C898 C899 1.400 . S
C899 C898 1.400 . S
C899 C900 1.398 . S
C899 C905 1.491 . S
C900 H891 0.950 . S
C900 C899 1.398 . S
C900 C901 1.391 . S
C901 H889 0.950 . S
C901 C897 1.393 . S
C901 C900 1.391 . S
C902 H892 0.950 . S
C902 C903 1.386 . S
C902 C904 1.391 . S
C903 C902 1.386 . S
C903 C907 1.393 . S
C904 H893 0.950 . S
C904 C902 1.391 . S
C904 C905 1.400 . S
C905 C899 1.491 . S
C905 C904 1.400 . S
C905 C906 1.398 . S
C906 H894 0.950 . S
C906 C905 1.398 . S
C906 C907 1.391 . S
C907 H895 0.950 . S
C907 C903 1.393 . S
C907 C906 1.391 . S
H908 C916 0.950 . S
H909 C921 0.950 . S
H910 C918 0.950 1_655 S
H911 C920 0.950 . S
H912 C922 0.950 . S
H913 C924 0.950 1_455 S
H914 C926 0.950 . S
H915 C927 0.950 . S
C916 H908 0.950 . S
C916 C917 1.386 . S
C916 C918 1.391 . S
C917 C916 1.386 . S
C917 C921 1.393 . S
C918 H910 0.950 1_455 S
C918 C916 1.391 . S
C918 C919 1.400 . S
C919 C918 1.400 . S
C919 C920 1.398 . S
C919 C925 1.491 1_455 S
C920 H911 0.950 . S
C920 C919 1.398 . S
C920 C921 1.391 . S
C921 H909 0.950 . S
C921 C917 1.393 . S
C921 C920 1.391 . S
C922 H912 0.950 . S
C922 C923 1.386 . S
C922 C924 1.391 . S
C923 C922 1.386 . S
C923 C927 1.393 . S
C924 H913 0.950 1_655 S
C924 C922 1.391 . S
C924 C925 1.400 . S
C925 C919 1.491 1_655 S
C925 C924 1.400 . S
C925 C926 1.398 . S
C926 H914 0.950 . S
C926 C925 1.398 . S
C926 C927 1.391 . S
C927 H915 0.950 . S
C927 C923 1.393 . S
C927 C926 1.391 . S
H928 C936 0.950 . S
H929 C941 0.950 . S
H930 C938 0.930 1_455 S
H931 C940 0.950 . S
H932 C942 0.950 . S
H933 C944 0.930 1_655 S
H934 C946 0.950 . S
H935 C947 0.950 . S
C936 H928 0.950 . S
C936 C937 1.386 . S
C936 C938 1.404 . S
C937 C936 1.386 . S
C937 C941 1.393 . S
C938 H930 0.930 1_655 S
C938 C936 1.404 . S
C938 C939 1.407 . S
C939 C938 1.407 . S
C939 C940 1.398 . S
C939 C945 1.491 1_655 S
C940 H931 0.950 . S
C940 C939 1.398 . S
C940 C941 1.391 . S
C941 H929 0.950 . S
C941 C937 1.393 . S
C941 C940 1.391 . S
C942 H932 0.950 . S
C942 C943 1.386 . S
C942 C944 1.404 . S
C943 C942 1.386 . S
C943 C947 1.393 . S
C944 H933 0.930 1_455 S
C944 C942 1.404 . S
C944 C945 1.407 . S
C945 C939 1.491 1_455 S
C945 C944 1.407 . S
C945 C946 1.398 . S
C946 H934 0.950 . S
C946 C945 1.398 . S
C946 C947 1.391 . S
C947 H935 0.950 . S
C947 C943 1.393 . S
C947 C946 1.391 . S
H948 C956 0.950 . S
H949 C961 0.950 . S
H950 C958 0.950 . S
H951 C960 0.950 . S
H952 C962 0.950 . S
H953 C964 0.950 . S
H954 C966 0.950 . S
H955 C967 0.950 . S
C956 H948 0.950 . S
C956 C957 1.386 . S
C956 C958 1.391 . S
C957 C956 1.386 . S
C957 C961 1.393 . S
C958 H950 0.950 . S
C958 C956 1.391 . S
C958 C959 1.400 . S
C959 C958 1.400 . S
C959 C960 1.398 . S
C959 C965 1.491 1_655 S
C960 H951 0.950 . S
C960 C959 1.398 . S
C960 C961 1.391 . S
C961 H949 0.950 . S
C961 C957 1.393 . S
C961 C960 1.391 . S
C962 H952 0.950 . S
C962 C963 1.386 . S
C962 C964 1.391 . S
C963 C962 1.386 . S
C963 C967 1.393 . S
C964 H953 0.950 . S
C964 C962 1.391 . S
C964 C965 1.400 . S
C965 C959 1.491 1_455 S
C965 C964 1.400 . S
C965 C966 1.398 . S
C966 H954 0.950 . S
C966 C965 1.398 . S
C966 C967 1.391 . S
C967 H955 0.950 . S
C967 C963 1.393 . S
C967 C966 1.391 . S
H968 C976 0.950 . S
H969 C981 0.950 . S
H970 C978 0.950 . S
H971 C980 0.950 . S
H972 C982 0.950 . S
H973 C984 0.950 . S
H974 C986 0.950 . S
H975 C987 0.950 . S
C976 H968 0.950 . S
C976 C977 1.386 . S
C976 C978 1.391 . S
C977 C976 1.386 . S
C977 C981 1.393 . S
C978 H970 0.950 . S
C978 C976 1.391 . S
C978 C979 1.400 . S
C979 C978 1.400 . S
C979 C980 1.398 . S
C979 C985 1.491 . S
C980 H971 0.950 . S
C980 C979 1.398 . S
C980 C981 1.391 . S
C981 H969 0.950 . S
C981 C977 1.393 . S
C981 C980 1.391 . S
C982 H972 0.950 . S
C982 C983 1.386 . S
C982 C984 1.391 . S
C983 C982 1.386 . S
C983 C987 1.393 . S
C984 H973 0.950 . S
C984 C982 1.391 . S
C984 C985 1.400 . S
C985 C979 1.491 . S
C985 C984 1.400 . S
C985 C986 1.398 . S
C986 H974 0.950 . S
C986 C985 1.398 . S
C986 C987 1.391 . S
C987 H975 0.950 . S
C987 C983 1.393 . S
C987 C986 1.391 . S
H988 C996 0.950 . S
H989 C1001 0.950 . S
H990 C998 0.950 . S
H991 C1000 0.950 . S
H992 C1002 0.950 . S
H993 C1004 0.950 . S
H994 C1006 0.950 . S
H995 C1007 0.950 . S
C996 H988 0.950 . S
C996 C997 1.386 . S
C996 C998 1.391 . S
C997 C996 1.386 . S
C997 C1001 1.393 . S
C998 H990 0.950 . S
C998 C996 1.391 . S
C998 C999 1.400 . S
C999 C998 1.400 . S
C999 C1000 1.398 . S
C999 C1005 1.491 . S
C1000 H991 0.950 . S
C1000 C999 1.398 . S
C1000 C1001 1.391 . S
C1001 H989 0.950 . S
C1001 C997 1.393 . S
C1001 C1000 1.391 . S
C1002 H992 0.950 . S
C1002 C1003 1.386 . S
C1002 C1004 1.391 . S
C1003 C1002 1.386 . S
C1003 C1007 1.393 . S
C1004 H993 0.950 . S
C1004 C1002 1.391 . S
C1004 C1005 1.400 . S
C1005 C999 1.491 . S
C1005 C1004 1.400 . S
C1005 C1006 1.398 . S
C1006 H994 0.950 . S
C1006 C1005 1.398 . S
C1006 C1007 1.391 . S
C1007 H995 0.950 . S
C1007 C1003 1.393 . S
C1007 C1006 1.391 . S
H1008 C1016 0.950 . S
H1009 C1021 0.950 . S
H1010 C1018 0.950 . S
H1011 C1020 0.950 1_455 S
H1012 C1022 0.950 . S
H1013 C1024 0.950 . S
H1014 C1026 0.950 1_655 S
H1015 C1027 0.950 . S
C1016 H1008 0.950 . S
C1016 C1017 1.386 . S
C1016 C1018 1.391 . S
C1017 C1016 1.386 . S
C1017 C1021 1.393 . S
C1018 H1010 0.950 . S
C1018 C1016 1.391 . S
C1018 C1019 1.400 . S
C1019 C1018 1.400 . S
C1019 C1020 1.398 . S
C1019 C1025 1.491 1_655 S
C1020 H1011 0.950 1_655 S
C1020 C1019 1.398 . S
C1020 C1021 1.391 . S
C1021 H1009 0.950 . S
C1021 C1017 1.393 . S
C1021 C1020 1.391 . S
C1022 H1012 0.950 . S
C1022 C1023 1.386 . S
C1022 C1024 1.391 . S
C1023 C1022 1.386 . S
C1023 C1027 1.393 . S
C1024 H1013 0.950 . S
C1024 C1022 1.391 . S
C1024 C1025 1.400 . S
C1025 C1019 1.491 1_455 S
C1025 C1024 1.400 . S
C1025 C1026 1.398 . S
C1026 H1014 0.950 1_455 S
C1026 C1025 1.398 . S
C1026 C1027 1.391 . S
C1027 H1015 0.950 . S
C1027 C1023 1.393 . S
C1027 C1026 1.391 . S
H1028 C1036 0.950 . S
H1029 C1041 0.950 . S
H1030 C1038 0.950 . S
H1031 C1040 0.950 . S
H1032 C1042 0.950 . S
H1033 C1044 0.950 . S
H1034 C1046 0.950 . S
H1035 C1047 0.950 . S
C1036 H1028 0.950 . S
C1036 C1037 1.386 . S
C1036 C1038 1.391 . S
C1037 C1036 1.386 . S
C1037 C1041 1.393 . S
C1038 H1030 0.950 . S
C1038 C1036 1.391 . S
C1038 C1039 1.400 . S
C1039 C1038 1.400 . S
C1039 C1040 1.398 . S
C1039 C1045 1.491 . S
C1040 H1031 0.950 . S
C1040 C1039 1.398 . S
C1040 C1041 1.391 . S
C1041 H1029 0.950 . S
C1041 C1037 1.393 . S
C1041 C1040 1.391 . S
C1042 H1032 0.950 . S
C1042 C1043 1.386 . S
C1042 C1044 1.391 . S
C1043 C1042 1.386 . S
C1043 C1047 1.393 . S
C1044 H1033 0.950 . S
C1044 C1042 1.391 . S
C1044 C1045 1.400 . S
C1045 C1039 1.491 . S
C1045 C1044 1.400 . S
C1045 C1046 1.398 . S
C1046 H1034 0.950 . S
C1046 C1045 1.398 . S
C1046 C1047 1.391 . S
C1047 H1035 0.950 . S
C1047 C1043 1.393 . S
C1047 C1046 1.391 . S
H1048 C1056 0.950 . S
H1049 C1061 0.950 . S
H1050 C1058 0.950 . S
H1051 C1060 0.950 . S
H1052 C1062 0.950 . S
H1053 C1064 0.950 . S
H1054 C1066 0.950 . S
H1055 C1067 0.950 . S
C1056 H1048 0.950 . S
C1056 C1057 1.386 . S
C1056 C1058 1.391 . S
C1057 C1056 1.386 . S
C1057 C1061 1.393 . S
C1058 H1050 0.950 . S
C1058 C1056 1.391 . S
C1058 C1059 1.400 . S
C1059 C1058 1.400 . S
C1059 C1060 1.398 . S
C1059 C1065 1.491 . S
C1060 H1051 0.950 . S
C1060 C1059 1.398 . S
C1060 C1061 1.391 . S
C1061 H1049 0.950 . S
C1061 C1057 1.393 . S
C1061 C1060 1.391 . S
C1062 H1052 0.950 . S
C1062 C1063 1.386 . S
C1062 C1064 1.391 . S
C1063 C1062 1.386 . S
C1063 C1067 1.393 . S
C1064 H1053 0.950 . S
C1064 C1062 1.391 . S
C1064 C1065 1.400 . S
C1065 C1059 1.491 . S
C1065 C1064 1.400 . S
C1065 C1066 1.398 . S
C1066 H1054 0.950 . S
C1066 C1065 1.398 . S
C1066 C1067 1.391 . S
C1067 H1055 0.950 . S
C1067 C1063 1.393 . S
C1067 C1066 1.391 . S
H1068 C1076 0.950 . S
H1069 C1081 0.950 . S
H1070 C1078 0.950 . S
H1071 C1080 0.950 1_455 S
H1072 C1082 0.950 . S
H1073 C1084 0.950 . S
H1074 C1086 0.950 1_655 S
H1075 C1087 0.950 . S
C1076 H1068 0.950 . S
C1076 C1077 1.386 . S
C1076 C1078 1.391 . S
C1077 C1076 1.386 . S
C1077 C1081 1.393 . S
C1078 H1070 0.950 . S
C1078 C1076 1.391 . S
C1078 C1079 1.400 . S
C1079 C1078 1.400 . S
C1079 C1080 1.398 . S
C1079 C1085 1.491 1_655 S
C1080 H1071 0.950 1_655 S
C1080 C1079 1.398 . S
C1080 C1081 1.391 . S
C1081 H1069 0.950 . S
C1081 C1077 1.393 . S
C1081 C1080 1.391 . S
C1082 H1072 0.950 . S
C1082 C1083 1.386 . S
C1082 C1084 1.391 . S
C1083 C1082 1.386 . S
C1083 C1087 1.393 . S
C1084 H1073 0.950 . S
C1084 C1082 1.391 . S
C1084 C1085 1.400 . S
C1085 C1079 1.491 1_455 S
C1085 C1084 1.400 . S
C1085 C1086 1.398 . S
C1086 H1074 0.950 1_455 S
C1086 C1085 1.398 . S
C1086 C1087 1.391 . S
C1087 H1075 0.950 . S
C1087 C1083 1.393 . S
C1087 C1086 1.391 . S
H1088 C1096 0.950 . S
H1089 C1101 0.944 1_554 S
H1090 C1098 0.950 . S
H1091 C1100 0.950 . S
H1092 C1102 0.950 . S
H1093 C1104 0.950 . S
H1094 C1106 0.950 . S
H1095 C1107 0.944 1_556 S
C1096 H1088 0.950 . S
C1096 C1097 1.386 . S
C1096 C1098 1.391 . S
C1097 C1096 1.386 . S
C1097 C1101 1.403 . S
C1098 H1090 0.950 . S
C1098 C1096 1.391 . S
C1098 C1099 1.400 . S
C1099 C1098 1.400 . S
C1099 C1100 1.398 1_556 S
C1099 C1105 1.491 1_556 S
C1100 H1091 0.950 . S
C1100 C1099 1.398 1_554 S
C1100 C1101 1.387 1_554 S
C1101 H1089 0.944 1_556 S
C1101 C1097 1.403 . S
C1101 C1100 1.387 1_556 S
C1102 H1092 0.950 . S
C1102 C1103 1.386 . S
C1102 C1104 1.391 . S
C1103 C1102 1.386 . S
C1103 C1107 1.403 . S
C1104 H1093 0.950 . S
C1104 C1102 1.391 . S
C1104 C1105 1.400 . S
C1105 C1099 1.491 1_554 S
C1105 C1104 1.400 . S
C1105 C1106 1.398 1_554 S
C1106 H1094 0.950 . S
C1106 C1105 1.398 1_556 S
C1106 C1107 1.387 1_556 S
C1107 H1095 0.944 1_554 S
C1107 C1103 1.403 . S
C1107 C1106 1.387 1_554 S
H1108 C1116 0.950 . S
H1109 C1121 0.950 . S
H1110 C1118 0.950 . S
H1111 C1120 0.950 . S
H1112 C1122 0.950 . S
H1113 C1124 0.950 . S
H1114 C1126 0.950 . S
H1115 C1127 0.950 . S
C1116 H1108 0.950 . S
C1116 C1117 1.386 . S
C1116 C1118 1.391 . S
C1117 C1116 1.386 . S
C1117 C1121 1.393 . S
C1118 H1110 0.950 . S
C1118 C1116 1.391 . S
C1118 C1119 1.400 . S
C1119 C1118 1.400 . S
C1119 C1120 1.398 . S
C1119 C1125 1.491 1_545 S
C1120 H1111 0.950 . S
C1120 C1119 1.398 . S
C1120 C1121 1.391 . S
C1121 H1109 0.950 . S
C1121 C1117 1.393 . S
C1121 C1120 1.391 . S
C1122 H1112 0.950 . S
C1122 C1123 1.386 . S
C1122 C1124 1.391 . S
C1123 C1122 1.386 . S
C1123 C1127 1.393 . S
C1124 H1113 0.950 . S
C1124 C1122 1.391 . S
C1124 C1125 1.400 . S
C1125 C1119 1.491 1_565 S
C1125 C1124 1.400 . S
C1125 C1126 1.398 . S
C1126 H1114 0.950 . S
C1126 C1125 1.398 . S
C1126 C1127 1.391 . S
C1127 H1115 0.950 . S
C1127 C1123 1.393 . S
C1127 C1126 1.391 . S
H1128 C1136 0.950 . S
H1129 C1141 0.950 . S
H1130 C1138 0.950 . S
H1131 C1140 0.950 . S
H1132 C1142 0.950 . S
H1133 C1144 0.950 . S
H1134 C1146 0.950 . S
H1135 C1147 0.950 . S
C1136 H1128 0.950 . S
C1136 C1137 1.386 . S
C1136 C1138 1.391 . S
C1137 C1136 1.386 . S
C1137 C1141 1.393 . S
C1138 H1130 0.950 . S
C1138 C1136 1.391 . S
C1138 C1139 1.400 . S
C1139 C1138 1.400 . S
C1139 C1140 1.398 . S
C1139 C1145 1.491 . S
C1140 H1131 0.950 . S
C1140 C1139 1.398 . S
C1140 C1141 1.391 . S
C1141 H1129 0.950 . S
C1141 C1137 1.393 . S
C1141 C1140 1.391 . S
C1142 H1132 0.950 . S
C1142 C1143 1.386 . S
C1142 C1144 1.391 . S
C1143 C1142 1.386 . S
C1143 C1147 1.393 . S
C1144 H1133 0.950 . S
C1144 C1142 1.391 . S
C1144 C1145 1.400 . S
C1145 C1139 1.491 . S
C1145 C1144 1.400 . S
C1145 C1146 1.398 . S
C1146 H1134 0.950 . S
C1146 C1145 1.398 . S
C1146 C1147 1.391 . S
C1147 H1135 0.950 . S
C1147 C1143 1.393 . S
C1147 C1146 1.391 . S
H1148 C1156 0.950 . S
H1149 C1161 0.950 . S
H1150 C1158 0.950 . S
H1151 C1160 0.950 . S
H1152 C1162 0.950 . S
H1153 C1164 0.950 . S
H1154 C1166 0.950 . S
H1155 C1167 0.950 . S
C1156 H1148 0.950 . S
C1156 C1157 1.386 . S
C1156 C1158 1.391 . S
C1157 C1156 1.386 . S
C1157 C1161 1.393 . S
C1158 H1150 0.950 . S
C1158 C1156 1.391 . S
C1158 C1159 1.400 . S
C1159 C1158 1.400 . S
C1159 C1160 1.398 . S
C1159 C1165 1.491 1_545 S
C1160 H1151 0.950 . S
C1160 C1159 1.398 . S
C1160 C1161 1.391 . S
C1161 H1149 0.950 . S
C1161 C1157 1.393 . S
C1161 C1160 1.391 . S
C1162 H1152 0.950 . S
C1162 C1163 1.386 . S
C1162 C1164 1.391 . S
C1163 C1162 1.386 . S
C1163 C1167 1.393 . S
C1164 H1153 0.950 . S
C1164 C1162 1.391 . S
C1164 C1165 1.400 . S
C1165 C1159 1.491 1_565 S
C1165 C1164 1.400 . S
C1165 C1166 1.398 . S
C1166 H1154 0.950 . S
C1166 C1165 1.398 . S
C1166 C1167 1.391 . S
C1167 H1155 0.950 . S
C1167 C1163 1.393 . S
C1167 C1166 1.391 . S
H1168 C1176 0.950 . S
H1169 C1181 0.950 . S
H1170 C1178 0.950 . S
H1171 C1180 0.950 . S
H1172 C1182 0.950 . S
H1173 C1184 0.950 . S
H1174 C1186 0.950 . S
H1175 C1187 0.950 . S
C1176 H1168 0.950 . S
C1176 C1177 1.386 . S
C1176 C1178 1.391 . S
C1177 C1176 1.386 . S
C1177 C1181 1.393 . S
C1178 H1170 0.950 . S
C1178 C1176 1.391 . S
C1178 C1179 1.400 . S
C1179 C1178 1.400 . S
C1179 C1180 1.398 1_554 S
C1179 C1185 1.491 1_554 S
C1180 H1171 0.950 . S
C1180 C1179 1.398 1_556 S
C1180 C1181 1.391 1_556 S
C1181 H1169 0.950 . S
C1181 C1177 1.393 . S
C1181 C1180 1.391 1_554 S
C1182 H1172 0.950 . S
C1182 C1183 1.386 . S
C1182 C1184 1.391 . S
C1183 C1182 1.386 . S
C1183 C1187 1.393 . S
C1184 H1173 0.950 . S
C1184 C1182 1.391 . S
C1184 C1185 1.400 . S
C1185 C1179 1.491 1_556 S
C1185 C1184 1.400 . S
C1185 C1186 1.398 1_556 S
C1186 H1174 0.950 . S
C1186 C1185 1.398 1_554 S
C1186 C1187 1.391 1_554 S
C1187 H1175 0.950 . S
C1187 C1183 1.393 . S
C1187 C1186 1.391 1_556 S
H1188 C1196 0.950 . S
H1189 C1201 0.950 . S
H1190 C1198 0.950 . S
H1191 C1200 0.950 . S
H1192 C1202 0.950 . S
H1193 C1204 0.950 . S
H1194 C1206 0.950 . S
H1195 C1207 0.950 . S
C1196 H1188 0.950 . S
C1196 C1197 1.386 . S
C1196 C1198 1.391 . S
C1197 C1196 1.386 . S
C1197 C1201 1.393 . S
C1198 H1190 0.950 . S
C1198 C1196 1.391 . S
C1198 C1199 1.400 . S
C1199 C1198 1.400 . S
C1199 C1200 1.398 . S
C1199 C1205 1.491 1_565 S
C1200 H1191 0.950 . S
C1200 C1199 1.398 . S
C1200 C1201 1.391 . S
C1201 H1189 0.950 . S
C1201 C1197 1.393 . S
C1201 C1200 1.391 . S
C1202 H1192 0.950 . S
C1202 C1203 1.386 . S
C1202 C1204 1.391 . S
C1203 C1202 1.386 . S
C1203 C1207 1.393 . S
C1204 H1193 0.950 . S
C1204 C1202 1.391 . S
C1204 C1205 1.400 . S
C1205 C1199 1.491 1_545 S
C1205 C1204 1.400 . S
C1205 C1206 1.398 . S
C1206 H1194 0.950 . S
C1206 C1205 1.398 . S
C1206 C1207 1.391 . S
C1207 H1195 0.950 . S
C1207 C1203 1.393 . S
C1207 C1206 1.391 . S
H1208 C1216 0.950 . S
H1209 C1221 0.950 . S
H1210 C1218 0.950 . S
H1211 C1220 0.950 . S
H1212 C1222 0.950 . S
H1213 C1224 0.950 . S
H1214 C1226 0.950 . S
H1215 C1227 0.950 . S
C1216 H1208 0.950 . S
C1216 C1217 1.386 . S
C1216 C1218 1.391 . S
C1217 C1216 1.386 . S
C1217 C1221 1.393 . S
C1218 H1210 0.950 . S
C1218 C1216 1.391 . S
C1218 C1219 1.400 . S
C1219 C1218 1.400 . S
C1219 C1220 1.398 . S
C1219 C1225 1.491 . S
C1220 H1211 0.950 . S
C1220 C1219 1.398 . S
C1220 C1221 1.391 . S
C1221 H1209 0.950 . S
C1221 C1217 1.393 . S
C1221 C1220 1.391 . S
C1222 H1212 0.950 . S
C1222 C1223 1.386 . S
C1222 C1224 1.391 . S
C1223 C1222 1.386 . S
C1223 C1227 1.393 . S
C1224 H1213 0.950 . S
C1224 C1222 1.391 . S
C1224 C1225 1.400 . S
C1225 C1219 1.491 . S
C1225 C1224 1.400 . S
C1225 C1226 1.398 . S
C1226 H1214 0.950 . S
C1226 C1225 1.398 . S
C1226 C1227 1.391 . S
C1227 H1215 0.950 . S
C1227 C1223 1.393 . S
C1227 C1226 1.391 . S
H1228 C1236 0.950 . S
H1229 C1241 0.950 . S
H1230 C1238 0.950 . S
H1231 C1240 0.950 . S
H1232 C1242 0.950 . S
H1233 C1244 0.950 . S
H1234 C1246 0.950 . S
H1235 C1247 0.950 . S
C1236 H1228 0.950 . S
C1236 C1237 1.386 . S
C1236 C1238 1.391 . S
C1237 C1236 1.386 . S
C1237 C1241 1.393 . S
C1238 H1230 0.950 . S
C1238 C1236 1.391 . S
C1238 C1239 1.400 . S
C1239 C1238 1.400 . S
C1239 C1240 1.398 . S
C1239 C1245 1.491 1_545 S
C1240 H1231 0.950 . S
C1240 C1239 1.398 . S
C1240 C1241 1.391 . S
C1241 H1229 0.950 . S
C1241 C1237 1.393 . S
C1241 C1240 1.391 . S
C1242 H1232 0.950 . S
C1242 C1243 1.386 . S
C1242 C1244 1.391 . S
C1243 C1242 1.386 . S
C1243 C1247 1.393 . S
C1244 H1233 0.950 . S
C1244 C1242 1.391 . S
C1244 C1245 1.400 . S
C1245 C1239 1.491 1_565 S
C1245 C1244 1.400 . S
C1245 C1246 1.398 . S
C1246 H1234 0.950 . S
C1246 C1245 1.398 . S
C1246 C1247 1.391 . S
C1247 H1235 0.950 . S
C1247 C1243 1.393 . S
C1247 C1246 1.391 . S
H1248 C1256 0.950 . S
H1249 C1261 0.950 . S
H1250 C1258 0.950 . S
H1251 C1260 0.950 . S
H1252 C1262 0.950 . S
H1253 C1264 0.950 . S
H1254 C1266 0.950 . S
H1255 C1267 0.950 . S
C1256 H1248 0.950 . S
C1256 C1257 1.386 . S
C1256 C1258 1.391 . S
C1257 C1256 1.386 . S
C1257 C1261 1.393 . S
C1258 H1250 0.950 . S
C1258 C1256 1.391 . S
C1258 C1259 1.400 . S
C1259 C1258 1.400 . S
C1259 C1260 1.398 . S
C1259 C1265 1.491 . S
C1260 H1251 0.950 . S
C1260 C1259 1.398 . S
C1260 C1261 1.391 . S
C1261 H1249 0.950 . S
C1261 C1257 1.393 . S
C1261 C1260 1.391 . S
C1262 H1252 0.950 . S
C1262 C1263 1.386 . S
C1262 C1264 1.391 . S
C1263 C1262 1.386 . S
C1263 C1267 1.393 . S
C1264 H1253 0.950 . S
C1264 C1262 1.391 . S
C1264 C1265 1.400 . S
C1265 C1259 1.491 . S
C1265 C1264 1.400 . S
C1265 C1266 1.398 . S
C1266 H1254 0.950 . S
C1266 C1265 1.398 . S
C1266 C1267 1.391 . S
C1267 H1255 0.950 . S
C1267 C1263 1.393 . S
C1267 C1266 1.391 . S
H1268 C1276 0.950 . S
H1269 C1281 0.950 . S
H1270 C1278 0.950 . S
H1271 C1280 0.950 . S
H1272 C1282 0.950 . S
H1273 C1284 0.950 . S
H1274 C1286 0.950 . S
H1275 C1287 0.950 . S
C1276 H1268 0.950 . S
C1276 C1277 1.386 . S
C1276 C1278 1.391 . S
C1277 C1276 1.386 . S
C1277 C1281 1.393 . S
C1278 H1270 0.950 . S
C1278 C1276 1.391 . S
C1278 C1279 1.400 . S
C1279 C1278 1.400 . S
C1279 C1280 1.398 . S
C1279 C1285 1.491 . S
C1280 H1271 0.950 . S
C1280 C1279 1.398 . S
C1280 C1281 1.391 . S
C1281 H1269 0.950 . S
C1281 C1277 1.393 . S
C1281 C1280 1.391 . S
C1282 H1272 0.950 . S
C1282 C1283 1.386 . S
C1282 C1284 1.391 . S
C1283 C1282 1.386 . S
C1283 C1287 1.393 . S
C1284 H1273 0.950 . S
C1284 C1282 1.391 . S
C1284 C1285 1.400 . S
C1285 C1279 1.491 . S
C1285 C1284 1.400 . S
C1285 C1286 1.398 . S
C1286 H1274 0.950 . S
C1286 C1285 1.398 . S
C1286 C1287 1.391 . S
C1287 H1275 0.950 . S
C1287 C1283 1.393 . S
C1287 C1286 1.391 . S
H1288 C1296 0.950 . S
H1289 C1301 0.979 . S
H1290 C1298 0.950 . S
H1291 C1300 0.950 . S
H1292 C1302 0.950 . S
H1293 C1304 0.950 . S
H1294 C1306 0.950 . S
H1295 C1307 0.979 . S
C1296 H1288 0.950 . S
C1296 C1297 1.386 . S
C1296 C1298 1.391 . S
C1297 C1296 1.386 . S
C1297 C1301 1.348 1_554 S
C1298 H1290 0.950 . S
C1298 C1296 1.391 . S
C1298 C1299 1.400 . S
C1299 C1298 1.400 . S
C1299 C1300 1.398 1_554 S
C1299 C1305 1.491 1_554 S
C1300 H1291 0.950 . S
C1300 C1299 1.398 1_556 S
C1300 C1301 1.408 . S
C1301 H1289 0.979 . S
C1301 C1297 1.348 1_556 S
C1301 C1300 1.408 . S
C1302 H1292 0.950 . S
C1302 C1303 1.386 . S
C1302 C1304 1.391 . S
C1303 C1302 1.386 . S
C1303 C1307 1.348 1_556 S
C1304 H1293 0.950 . S
C1304 C1302 1.391 . S
C1304 C1305 1.400 . S
C1305 C1299 1.491 1_556 S
C1305 C1304 1.400 . S
C1305 C1306 1.398 1_556 S
C1306 H1294 0.950 . S
C1306 C1305 1.398 1_554 S
C1306 C1307 1.408 . S
C1307 H1295 0.979 . S
C1307 C1303 1.348 1_554 S
C1307 C1306 1.408 . S
H1308 C1316 0.950 . S
H1309 C1321 0.950 . S
H1310 C1318 0.950 . S
H1311 C1320 0.950 . S
H1312 C1322 0.950 . S
H1313 C1324 0.950 . S
H1314 C1326 0.950 . S
H1315 C1327 0.950 . S
C1316 H1308 0.950 . S
C1316 C1317 1.386 . S
C1316 C1318 1.391 . S
C1317 C1316 1.386 . S
C1317 C1321 1.393 . S
C1318 H1310 0.950 . S
C1318 C1316 1.391 . S
C1318 C1319 1.400 . S
C1319 C1318 1.400 . S
C1319 C1320 1.398 . S
C1319 C1325 1.491 . S
C1320 H1311 0.950 . S
C1320 C1319 1.398 . S
C1320 C1321 1.391 . S
C1321 H1309 0.950 . S
C1321 C1317 1.393 . S
C1321 C1320 1.391 . S
C1322 H1312 0.950 . S
C1322 C1323 1.386 . S
C1322 C1324 1.391 . S
C1323 C1322 1.386 . S
C1323 C1327 1.393 . S
C1324 H1313 0.950 . S
C1324 C1322 1.391 . S
C1324 C1325 1.400 . S
C1325 C1319 1.491 . S
C1325 C1324 1.400 . S
C1325 C1326 1.398 . S
C1326 H1314 0.950 . S
C1326 C1325 1.398 . S
C1326 C1327 1.391 . S
C1327 H1315 0.950 . S
C1327 C1323 1.393 . S
C1327 C1326 1.391 . S
H1328 C1336 0.950 . S
H1329 C1341 0.950 . S
H1330 C1338 0.950 . S
H1331 C1340 0.950 . S
H1332 C1342 0.950 . S
H1333 C1344 0.950 . S
H1334 C1346 0.950 . S
H1335 C1347 0.950 . S
C1336 H1328 0.950 . S
C1336 C1337 1.386 . S
C1336 C1338 1.391 . S
C1337 C1336 1.386 . S
C1337 C1341 1.393 . S
C1338 H1330 0.950 . S
C1338 C1336 1.391 . S
C1338 C1339 1.400 . S
C1339 C1338 1.400 . S
C1339 C1340 1.398 . S
C1339 C1345 1.491 . S
C1340 H1331 0.950 . S
C1340 C1339 1.398 . S
C1340 C1341 1.391 . S
C1341 H1329 0.950 . S
C1341 C1337 1.393 . S
C1341 C1340 1.391 . S
C1342 H1332 0.950 . S
C1342 C1343 1.386 . S
C1342 C1344 1.391 . S
C1343 C1342 1.386 . S
C1343 C1347 1.393 . S
C1344 H1333 0.950 . S
C1344 C1342 1.391 . S
C1344 C1345 1.400 . S
C1345 C1339 1.491 . S
C1345 C1344 1.400 . S
C1345 C1346 1.398 . S
C1346 H1334 0.950 . S
C1346 C1345 1.398 . S
C1346 C1347 1.391 . S
C1347 H1335 0.950 . S
C1347 C1343 1.393 . S
C1347 C1346 1.391 . S
H1348 C1356 0.950 . S
H1349 C1361 0.950 . S
H1350 C1358 0.950 . S
H1351 C1360 0.950 . S
H1352 C1362 0.950 . S
H1353 C1364 0.950 . S
H1354 C1366 0.950 . S
H1355 C1367 0.950 . S
C1356 H1348 0.950 . S
C1356 C1357 1.386 . S
C1356 C1358 1.391 . S
C1357 C1356 1.386 . S
C1357 C1361 1.393 . S
C1358 H1350 0.950 . S
C1358 C1356 1.391 . S
C1358 C1359 1.400 . S
C1359 C1358 1.400 . S
C1359 C1360 1.398 . S
C1359 C1365 1.491 . S
C1360 H1351 0.950 . S
C1360 C1359 1.398 . S
C1360 C1361 1.391 . S
C1361 H1349 0.950 . S
C1361 C1357 1.393 . S
C1361 C1360 1.391 . S
C1362 H1352 0.950 . S
C1362 C1363 1.386 . S
C1362 C1364 1.391 . S
C1363 C1362 1.386 . S
C1363 C1367 1.393 . S
C1364 H1353 0.950 . S
C1364 C1362 1.391 . S
C1364 C1365 1.400 . S
C1365 C1359 1.491 . S
C1365 C1364 1.400 . S
C1365 C1366 1.398 . S
C1366 H1354 0.950 . S
C1366 C1365 1.398 . S
C1366 C1367 1.391 . S
C1367 H1355 0.950 . S
C1367 C1363 1.393 . S
C1367 C1366 1.391 . S
H1368 C1376 0.971 . S
H1369 C1381 0.950 . S
H1370 C1378 0.950 . S
H1371 C1380 0.950 . S
H1372 C1382 0.971 . S
H1373 C1384 0.950 . S
H1374 C1386 0.950 . S
H1375 C1387 0.950 . S
C1376 H1368 0.971 . S
C1376 C1377 1.353 1_554 S
C1376 C1378 1.404 . S
C1377 C1376 1.353 1_556 S
C1377 C1381 1.393 . S
C1378 H1370 0.950 . S
C1378 C1376 1.404 . S
C1378 C1379 1.400 1_554 S
C1379 C1378 1.400 1_556 S
C1379 C1380 1.398 . S
C1379 C1385 1.491 1_556 S
C1380 H1371 0.950 . S
C1380 C1379 1.398 . S
C1380 C1381 1.391 . S
C1381 H1369 0.950 . S
C1381 C1377 1.393 . S
C1381 C1380 1.391 . S
C1382 H1372 0.971 . S
C1382 C1383 1.353 1_556 S
C1382 C1384 1.404 . S
C1383 C1382 1.353 1_554 S
C1383 C1387 1.393 . S
C1384 H1373 0.950 . S
C1384 C1382 1.404 . S
C1384 C1385 1.400 1_556 S
C1385 C1379 1.491 1_554 S
C1385 C1384 1.400 1_554 S
C1385 C1386 1.398 . S
C1386 H1374 0.950 . S
C1386 C1385 1.398 . S
C1386 C1387 1.391 . S
C1387 H1375 0.950 . S
C1387 C1383 1.393 . S
C1387 C1386 1.391 . S
H1388 C1396 0.950 . S
H1389 C1401 0.950 . S
H1390 C1398 0.950 . S
H1391 C1400 0.950 . S
H1392 C1402 0.950 . S
H1393 C1404 0.950 . S
H1394 C1406 0.950 . S
H1395 C1407 0.950 . S
C1396 H1388 0.950 . S
C1396 C1397 1.386 . S
C1396 C1398 1.391 . S
C1397 C1396 1.386 . S
C1397 C1401 1.393 . S
C1398 H1390 0.950 . S
C1398 C1396 1.391 . S
C1398 C1399 1.400 . S
C1399 C1398 1.400 . S
C1399 C1400 1.398 . S
C1399 C1405 1.491 . S
C1400 H1391 0.950 . S
C1400 C1399 1.398 . S
C1400 C1401 1.391 . S
C1401 H1389 0.950 . S
C1401 C1397 1.393 . S
C1401 C1400 1.391 . S
C1402 H1392 0.950 . S
C1402 C1403 1.386 . S
C1402 C1404 1.391 . S
C1403 C1402 1.386 . S
C1403 C1407 1.393 . S
C1404 H1393 0.950 . S
C1404 C1402 1.391 . S
C1404 C1405 1.400 . S
C1405 C1399 1.491 . S
C1405 C1404 1.400 . S
C1405 C1406 1.398 . S
C1406 H1394 0.950 . S
C1406 C1405 1.398 . S
C1406 C1407 1.391 . S
C1407 H1395 0.950 . S
C1407 C1403 1.393 . S
C1407 C1406 1.391 . S
H1408 C1416 0.950 . S
H1409 C1421 0.950 . S
H1410 C1418 0.950 . S
H1411 C1420 0.950 . S
H1412 C1422 0.950 . S
H1413 C1424 0.950 . S
H1414 C1426 0.950 . S
H1415 C1427 0.950 . S
C1416 H1408 0.950 . S
C1416 C1417 1.386 . S
C1416 C1418 1.391 . S
C1417 C1416 1.386 . S
C1417 C1421 1.393 . S
C1418 H1410 0.950 . S
C1418 C1416 1.391 . S
C1418 C1419 1.400 . S
C1419 C1418 1.400 . S
C1419 C1420 1.398 . S
C1419 C1425 1.491 . S
C1420 H1411 0.950 . S
C1420 C1419 1.398 . S
C1420 C1421 1.391 . S
C1421 H1409 0.950 . S
C1421 C1417 1.393 . S
C1421 C1420 1.391 . S
C1422 H1412 0.950 . S
C1422 C1423 1.386 . S
C1422 C1424 1.391 . S
C1423 C1422 1.386 . S
C1423 C1427 1.393 . S
C1424 H1413 0.950 . S
C1424 C1422 1.391 . S
C1424 C1425 1.400 . S
C1425 C1419 1.491 . S
C1425 C1424 1.400 . S
C1425 C1426 1.398 . S
C1426 H1414 0.950 . S
C1426 C1425 1.398 . S
C1426 C1427 1.391 . S
C1427 H1415 0.950 . S
C1427 C1423 1.393 . S
C1427 C1426 1.391 . S
H1428 C1436 0.950 . S
H1429 C1441 0.950 . S
H1430 C1438 0.950 . S
H1431 C1440 0.950 . S
H1432 C1442 0.950 . S
H1433 C1444 0.950 . S
H1434 C1446 0.950 . S
H1435 C1447 0.950 . S
C1436 H1428 0.950 . S
C1436 C1437 1.386 . S
C1436 C1438 1.391 . S
C1437 C1436 1.386 . S
C1437 C1441 1.393 . S
C1438 H1430 0.950 . S
C1438 C1436 1.391 . S
C1438 C1439 1.400 . S
C1439 C1438 1.400 . S
C1439 C1440 1.398 . S
C1439 C1445 1.491 . S
C1440 H1431 0.950 . S
C1440 C1439 1.398 . S
C1440 C1441 1.391 . S
C1441 H1429 0.950 . S
C1441 C1437 1.393 . S
C1441 C1440 1.391 . S
C1442 H1432 0.950 . S
C1442 C1443 1.386 . S
C1442 C1444 1.391 . S
C1443 C1442 1.386 . S
C1443 C1447 1.393 . S
C1444 H1433 0.950 . S
C1444 C1442 1.391 . S
C1444 C1445 1.400 . S
C1445 C1439 1.491 . S
C1445 C1444 1.400 . S
C1445 C1446 1.398 . S
C1446 H1434 0.950 . S
C1446 C1445 1.398 . S
C1446 C1447 1.391 . S
C1447 H1435 0.950 . S
C1447 C1443 1.393 . S
C1447 C1446 1.391 . S
H1448 C1456 0.950 . S
H1449 C1461 0.950 . S
H1450 C1458 0.950 . S
H1451 C1460 0.950 . S
H1452 C1462 0.950 . S
H1453 C1464 0.950 . S
H1454 C1466 0.950 . S
H1455 C1467 0.950 . S
C1456 H1448 0.950 . S
C1456 C1457 1.386 . S
C1456 C1458 1.391 . S
C1457 C1456 1.386 . S
C1457 C1461 1.393 . S
C1458 H1450 0.950 . S
C1458 C1456 1.391 . S
C1458 C1459 1.400 . S
C1459 C1458 1.400 . S
C1459 C1460 1.398 . S
C1459 C1465 1.491 . S
C1460 H1451 0.950 . S
C1460 C1459 1.398 . S
C1460 C1461 1.391 . S
C1461 H1449 0.950 . S
C1461 C1457 1.393 . S
C1461 C1460 1.391 . S
C1462 H1452 0.950 . S
C1462 C1463 1.386 . S
C1462 C1464 1.391 . S
C1463 C1462 1.386 . S
C1463 C1467 1.393 . S
C1464 H1453 0.950 . S
C1464 C1462 1.391 . S
C1464 C1465 1.400 . S
C1465 C1459 1.491 . S
C1465 C1464 1.400 . S
C1465 C1466 1.398 . S
C1466 H1454 0.950 . S
C1466 C1465 1.398 . S
C1466 C1467 1.391 . S
C1467 H1455 0.950 . S
C1467 C1463 1.393 . S
C1467 C1466 1.391 . S
H1468 C1476 0.950 . S
H1469 C1481 0.950 . S
H1470 C1478 0.950 . S
H1471 C1480 0.950 . S
H1472 C1482 0.950 . S
H1473 C1484 0.950 . S
H1474 C1486 0.950 . S
H1475 C1487 0.950 . S
C1476 H1468 0.950 . S
C1476 C1477 1.386 . S
C1476 C1478 1.391 . S
C1477 C1476 1.386 . S
C1477 C1481 1.393 . S
C1478 H1470 0.950 . S
C1478 C1476 1.391 . S
C1478 C1479 1.400 . S
C1479 C1478 1.400 . S
C1479 C1480 1.398 . S
C1479 C1485 1.491 . S
C1480 H1471 0.950 . S
C1480 C1479 1.398 . S
C1480 C1481 1.391 . S
C1481 H1469 0.950 . S
C1481 C1477 1.393 . S
C1481 C1480 1.391 . S
C1482 H1472 0.950 . S
C1482 C1483 1.386 . S
C1482 C1484 1.391 . S
C1483 C1482 1.386 . S
C1483 C1487 1.393 . S
C1484 H1473 0.950 . S
C1484 C1482 1.391 . S
C1484 C1485 1.400 . S
C1485 C1479 1.491 . S
C1485 C1484 1.400 . S
C1485 C1486 1.398 . S
C1486 H1474 0.950 . S
C1486 C1485 1.398 . S
C1486 C1487 1.391 . S
C1487 H1475 0.950 . S
C1487 C1483 1.393 . S
C1487 C1486 1.391 . S
H1488 C1496 0.950 . S
H1489 C1501 0.950 . S
H1490 C1498 0.950 . S
H1491 C1500 0.950 . S
H1492 C1502 0.950 . S
H1493 C1504 0.950 . S
H1494 C1506 0.950 . S
H1495 C1507 0.950 . S
C1496 H1488 0.950 . S
C1496 C1497 1.386 . S
C1496 C1498 1.391 . S
C1497 C1496 1.386 . S
C1497 C1501 1.393 . S
C1498 H1490 0.950 . S
C1498 C1496 1.391 . S
C1498 C1499 1.400 . S
C1499 C1498 1.400 . S
C1499 C1500 1.398 . S
C1499 C1505 1.491 . S
C1500 H1491 0.950 . S
C1500 C1499 1.398 . S
C1500 C1501 1.391 . S
C1501 H1489 0.950 . S
C1501 C1497 1.393 . S
C1501 C1500 1.391 . S
C1502 H1492 0.950 . S
C1502 C1503 1.386 . S
C1502 C1504 1.391 . S
C1503 C1502 1.386 . S
C1503 C1507 1.393 . S
C1504 H1493 0.950 . S
C1504 C1502 1.391 . S
C1504 C1505 1.400 . S
C1505 C1499 1.491 . S
C1505 C1504 1.400 . S
C1505 C1506 1.398 . S
C1506 H1494 0.950 . S
C1506 C1505 1.398 . S
C1506 C1507 1.391 . S
C1507 H1495 0.950 . S
C1507 C1503 1.393 . S
C1507 C1506 1.391 . S
H1508 C1516 0.950 . S
H1509 C1521 0.950 . S
H1510 C1518 0.950 . S
H1511 C1520 0.950 . S
H1512 C1522 0.950 . S
H1513 C1524 0.950 . S
H1514 C1526 0.950 . S
H1515 C1527 0.950 . S
C1516 H1508 0.950 . S
C1516 C1517 1.386 . S
C1516 C1518 1.391 . S
C1517 C1516 1.386 . S
C1517 C1521 1.393 . S
C1518 H1510 0.950 . S
C1518 C1516 1.391 . S
C1518 C1519 1.400 . S
C1519 C1518 1.400 . S
C1519 C1520 1.398 . S
C1519 C1525 1.491 . S
C1520 H1511 0.950 . S
C1520 C1519 1.398 . S
C1520 C1521 1.391 . S
C1521 H1509 0.950 . S
C1521 C1517 1.393 . S
C1521 C1520 1.391 . S
C1522 H1512 0.950 . S
C1522 C1523 1.386 . S
C1522 C1524 1.391 . S
C1523 C1522 1.386 . S
C1523 C1527 1.393 . S
C1524 H1513 0.950 . S
C1524 C1522 1.391 . S
C1524 C1525 1.400 . S
C1525 C1519 1.491 . S
C1525 C1524 1.400 . S
C1525 C1526 1.398 . S
C1526 H1514 0.950 . S
C1526 C1525 1.398 . S
C1526 C1527 1.391 . S
C1527 H1515 0.950 . S
C1527 C1523 1.393 . S
C1527 C1526 1.391 . S
H1528 C1536 0.950 . S
H1529 C1541 0.950 . S
H1530 C1538 0.950 . S
H1531 C1540 0.950 . S
H1532 C1542 0.950 . S
H1533 C1544 0.950 . S
H1534 C1546 0.950 . S
H1535 C1547 0.950 . S
C1536 H1528 0.950 . S
C1536 C1537 1.386 . S
C1536 C1538 1.391 . S
C1537 C1536 1.386 . S
C1537 C1541 1.393 . S
C1538 H1530 0.950 . S
C1538 C1536 1.391 . S
C1538 C1539 1.400 . S
C1539 C1538 1.400 . S
C1539 C1540 1.398 . S
C1539 C1545 1.491 . S
C1540 H1531 0.950 . S
C1540 C1539 1.398 . S
C1540 C1541 1.391 . S
C1541 H1529 0.950 . S
C1541 C1537 1.393 . S
C1541 C1540 1.391 . S
C1542 H1532 0.950 . S
C1542 C1543 1.386 . S
C1542 C1544 1.391 . S
C1543 C1542 1.386 . S
C1543 C1547 1.393 . S
C1544 H1533 0.950 . S
C1544 C1542 1.391 . S
C1544 C1545 1.400 . S
C1545 C1539 1.491 . S
C1545 C1544 1.400 . S
C1545 C1546 1.398 . S
C1546 H1534 0.950 . S
C1546 C1545 1.398 . S
C1546 C1547 1.391 . S
C1547 H1535 0.950 . S
C1547 C1543 1.393 . S
C1547 C1546 1.391 . S
H1548 C1556 0.950 . S
H1549 C1561 0.950 . S
H1550 C1558 0.950 . S
H1551 C1560 0.950 . S
H1552 C1562 0.950 . S
H1553 C1564 0.950 . S
H1554 C1566 0.950 . S
H1555 C1567 0.950 . S
C1556 H1548 0.950 . S
C1556 C1557 1.386 . S
C1556 C1558 1.391 . S
C1557 C1556 1.386 . S
C1557 C1561 1.393 . S
C1558 H1550 0.950 . S
C1558 C1556 1.391 . S
C1558 C1559 1.400 . S
C1559 C1558 1.400 . S
C1559 C1560 1.398 . S
C1559 C1565 1.491 . S
C1560 H1551 0.950 . S
C1560 C1559 1.398 . S
C1560 C1561 1.391 . S
C1561 H1549 0.950 . S
C1561 C1557 1.393 . S
C1561 C1560 1.391 . S
C1562 H1552 0.950 . S
C1562 C1563 1.386 . S
C1562 C1564 1.391 . S
C1563 C1562 1.386 . S
C1563 C1567 1.393 . S
C1564 H1553 0.950 . S
C1564 C1562 1.391 . S
C1564 C1565 1.400 . S
C1565 C1559 1.491 . S
C1565 C1564 1.400 . S
C1565 C1566 1.398 . S
C1566 H1554 0.950 . S
C1566 C1565 1.398 . S
C1566 C1567 1.391 . S
C1567 H1555 0.950 . S
C1567 C1563 1.393 . S
C1567 C1566 1.391 . S
H1568 C1576 0.950 . S
H1569 C1581 0.950 . S
H1570 C1578 0.950 . S
H1571 C1580 0.950 . S
H1572 C1582 0.950 . S
H1573 C1584 0.950 . S
H1574 C1586 0.950 . S
H1575 C1587 0.950 . S
C1576 H1568 0.950 . S
C1576 C1577 1.386 . S
C1576 C1578 1.391 . S
C1577 C1576 1.386 . S
C1577 C1581 1.393 . S
C1578 H1570 0.950 . S
C1578 C1576 1.391 . S
C1578 C1579 1.400 . S
C1579 C1578 1.400 . S
C1579 C1580 1.398 . S
C1579 C1585 1.491 . S
C1580 H1571 0.950 . S
C1580 C1579 1.398 . S
C1580 C1581 1.391 . S
C1581 H1569 0.950 . S
C1581 C1577 1.393 . S
C1581 C1580 1.391 . S
C1582 H1572 0.950 . S
C1582 C1583 1.386 . S
C1582 C1584 1.391 . S
C1583 C1582 1.386 . S
C1583 C1587 1.393 . S
C1584 H1573 0.950 . S
C1584 C1582 1.391 . S
C1584 C1585 1.400 . S
C1585 C1579 1.491 . S
C1585 C1584 1.400 . S
C1585 C1586 1.398 . S
C1586 H1574 0.950 . S
C1586 C1585 1.398 . S
C1586 C1587 1.391 . S
C1587 H1575 0.950 . S
C1587 C1583 1.393 . S
C1587 C1586 1.391 . S
H1588 C1596 0.950 . S
H1589 C1601 0.950 . S
H1590 C1598 0.950 . S
H1591 C1600 0.950 . S
H1592 C1602 0.950 . S
H1593 C1604 0.950 . S
H1594 C1606 0.950 . S
H1595 C1607 0.950 . S
C1596 H1588 0.950 . S
C1596 C1597 1.386 . S
C1596 C1598 1.391 . S
C1597 C1596 1.386 . S
C1597 C1601 1.393 . S
C1598 H1590 0.950 . S
C1598 C1596 1.391 . S
C1598 C1599 1.400 . S
C1599 C1598 1.400 . S
C1599 C1600 1.398 . S
C1599 C1605 1.491 . S
C1600 H1591 0.950 . S
C1600 C1599 1.398 . S
C1600 C1601 1.391 . S
C1601 H1589 0.950 . S
C1601 C1597 1.393 . S
C1601 C1600 1.391 . S
C1602 H1592 0.950 . S
C1602 C1603 1.386 . S
C1602 C1604 1.391 . S
C1603 C1602 1.386 . S
C1603 C1607 1.393 . S
C1604 H1593 0.950 . S
C1604 C1602 1.391 . S
C1604 C1605 1.400 . S
C1605 C1599 1.491 . S
C1605 C1604 1.400 . S
C1605 C1606 1.398 . S
C1606 H1594 0.950 . S
C1606 C1605 1.398 . S
C1606 C1607 1.391 . S
C1607 H1595 0.950 . S
C1607 C1603 1.393 . S
C1607 C1606 1.391 . S
H1608 C1616 0.950 . S
H1609 C1621 0.950 . S
H1610 C1618 0.950 . S
H1611 C1620 0.950 . S
H1612 C1622 0.950 . S
H1613 C1624 0.950 . S
H1614 C1626 0.950 . S
H1615 C1627 0.950 . S
C1616 H1608 0.950 . S
C1616 C1617 1.386 . S
C1616 C1618 1.391 . S
C1617 C1616 1.386 . S
C1617 C1621 1.393 . S
C1618 H1610 0.950 . S
C1618 C1616 1.391 . S
C1618 C1619 1.400 . S
C1619 C1618 1.400 . S
C1619 C1620 1.398 . S
C1619 C1625 1.491 . S
C1620 H1611 0.950 . S
C1620 C1619 1.398 . S
C1620 C1621 1.391 . S
C1621 H1609 0.950 . S
C1621 C1617 1.393 . S
C1621 C1620 1.391 . S
C1622 H1612 0.950 . S
C1622 C1623 1.386 . S
C1622 C1624 1.391 . S
C1623 C1622 1.386 . S
C1623 C1627 1.393 . S
C1624 H1613 0.950 . S
C1624 C1622 1.391 . S
C1624 C1625 1.400 . S
C1625 C1619 1.491 . S
C1625 C1624 1.400 . S
C1625 C1626 1.398 . S
C1626 H1614 0.950 . S
C1626 C1625 1.398 . S
C1626 C1627 1.391 . S
C1627 H1615 0.950 . S
C1627 C1623 1.393 . S
C1627 C1626 1.391 . S
H1628 C1636 0.950 . S
H1629 C1641 0.950 . S
H1630 C1638 0.950 . S
H1631 C1640 0.950 . S
H1632 C1642 0.950 . S
H1633 C1644 0.950 . S
H1634 C1646 0.950 . S
H1635 C1647 0.950 . S
C1636 H1628 0.950 . S
C1636 C1637 1.386 . S
C1636 C1638 1.391 . S
C1637 C1636 1.386 . S
C1637 C1641 1.393 . S
C1638 H1630 0.950 . S
C1638 C1636 1.391 . S
C1638 C1639 1.400 . S
C1639 C1638 1.400 . S
C1639 C1640 1.398 . S
C1639 C1645 1.491 . S
C1640 H1631 0.950 . S
C1640 C1639 1.398 . S
C1640 C1641 1.391 . S
C1641 H1629 0.950 . S
C1641 C1637 1.393 . S
C1641 C1640 1.391 . S
C1642 H1632 0.950 . S
C1642 C1643 1.386 . S
C1642 C1644 1.391 . S
C1643 C1642 1.386 . S
C1643 C1647 1.393 . S
C1644 H1633 0.950 . S
C1644 C1642 1.391 . S
C1644 C1645 1.400 . S
C1645 C1639 1.491 . S
C1645 C1644 1.400 . S
C1645 C1646 1.398 . S
C1646 H1634 0.950 . S
C1646 C1645 1.398 . S
C1646 C1647 1.391 . S
C1647 H1635 0.950 . S
C1647 C1643 1.393 . S
C1647 C1646 1.391 . S
H1648 C1656 0.950 . S
H1649 C1661 0.950 . S
H1650 C1658 0.950 . S
H1651 C1660 0.950 . S
H1652 C1662 0.950 . S
H1653 C1664 0.950 . S
H1654 C1666 0.950 . S
H1655 C1667 0.950 . S
C1656 H1648 0.950 . S
C1656 C1657 1.386 . S
C1656 C1658 1.391 . S
C1657 C1656 1.386 . S
C1657 C1661 1.393 . S
C1658 H1650 0.950 . S
C1658 C1656 1.391 . S
C1658 C1659 1.400 . S
C1659 C1658 1.400 . S
C1659 C1660 1.398 . S
C1659 C1665 1.491 . S
C1660 H1651 0.950 . S
C1660 C1659 1.398 . S
C1660 C1661 1.391 . S
C1661 H1649 0.950 . S
C1661 C1657 1.393 . S
C1661 C1660 1.391 . S
C1662 H1652 0.950 . S
C1662 C1663 1.386 . S
C1662 C1664 1.391 . S
C1663 C1662 1.386 . S
C1663 C1667 1.393 . S
C1664 H1653 0.950 . S
C1664 C1662 1.391 . S
C1664 C1665 1.400 . S
C1665 C1659 1.491 . S
C1665 C1664 1.400 . S
C1665 C1666 1.398 . S
C1666 H1654 0.950 . S
C1666 C1665 1.398 . S
C1666 C1667 1.391 . S
C1667 H1655 0.950 . S
C1667 C1663 1.393 . S
C1667 C1666 1.391 . S
H1668 C1676 0.950 . S
H1669 C1681 0.950 . S
H1670 C1678 0.950 . S
H1671 C1680 0.950 . S
H1672 C1682 0.950 . S
H1673 C1684 0.950 . S
H1674 C1686 0.950 . S
H1675 C1687 0.950 . S
C1676 H1668 0.950 . S
C1676 C1677 1.386 . S
C1676 C1678 1.391 . S
C1677 C1676 1.386 . S
C1677 C1681 1.393 . S
C1678 H1670 0.950 . S
C1678 C1676 1.391 . S
C1678 C1679 1.400 . S
C1679 C1678 1.400 . S
C1679 C1680 1.398 . S
C1679 C1685 1.491 . S
C1680 H1671 0.950 . S
C1680 C1679 1.398 . S
C1680 C1681 1.391 . S
C1681 H1669 0.950 . S
C1681 C1677 1.393 . S
C1681 C1680 1.391 . S
C1682 H1672 0.950 . S
C1682 C1683 1.386 . S
C1682 C1684 1.391 . S
C1683 C1682 1.386 . S
C1683 C1687 1.393 . S
C1684 H1673 0.950 . S
C1684 C1682 1.391 . S
C1684 C1685 1.400 . S
C1685 C1679 1.491 . S
C1685 C1684 1.400 . S
C1685 C1686 1.398 . S
C1686 H1674 0.950 . S
C1686 C1685 1.398 . S
C1686 C1687 1.391 . S
C1687 H1675 0.950 . S
C1687 C1683 1.393 . S
C1687 C1686 1.391 . S
H1688 C1696 0.950 . S
H1689 C1701 0.950 . S
H1690 C1698 0.950 . S
H1691 C1700 0.950 . S
H1692 C1702 0.950 . S
H1693 C1704 0.950 . S
H1694 C1706 0.950 . S
H1695 C1707 0.950 . S
C1696 H1688 0.950 . S
C1696 C1697 1.386 . S
C1696 C1698 1.391 . S
C1697 C1696 1.386 . S
C1697 C1701 1.393 . S
C1698 H1690 0.950 . S
C1698 C1696 1.391 . S
C1698 C1699 1.400 . S
C1699 C1698 1.400 . S
C1699 C1700 1.398 . S
C1699 C1705 1.491 . S
C1700 H1691 0.950 . S
C1700 C1699 1.398 . S
C1700 C1701 1.391 . S
C1701 H1689 0.950 . S
C1701 C1697 1.393 . S
C1701 C1700 1.391 . S
C1702 H1692 0.950 . S
C1702 C1703 1.386 . S
C1702 C1704 1.391 . S
C1703 C1702 1.386 . S
C1703 C1707 1.393 . S
C1704 H1693 0.950 . S
C1704 C1702 1.391 . S
C1704 C1705 1.400 . S
C1705 C1699 1.491 . S
C1705 C1704 1.400 . S
C1705 C1706 1.398 . S
C1706 H1694 0.950 . S
C1706 C1705 1.398 . S
C1706 C1707 1.391 . S
C1707 H1695 0.950 . S
C1707 C1703 1.393 . S
C1707 C1706 1.391 . S
H1708 C1716 0.950 . S
H1709 C1721 0.950 . S
H1710 C1718 0.950 . S
H1711 C1720 0.950 . S
H1712 C1722 0.950 . S
H1713 C1724 0.950 . S
H1714 C1726 0.950 . S
H1715 C1727 0.950 . S
C1716 H1708 0.950 . S
C1716 C1717 1.386 . S
C1716 C1718 1.391 . S
C1717 C1716 1.386 . S
C1717 C1721 1.393 . S
C1718 H1710 0.950 . S
C1718 C1716 1.391 . S
C1718 C1719 1.400 . S
C1719 C1718 1.400 . S
C1719 C1720 1.398 . S
C1719 C1725 1.491 . S
C1720 H1711 0.950 . S
C1720 C1719 1.398 . S
C1720 C1721 1.391 . S
C1721 H1709 0.950 . S
C1721 C1717 1.393 . S
C1721 C1720 1.391 . S
C1722 H1712 0.950 . S
C1722 C1723 1.386 . S
C1722 C1724 1.391 . S
C1723 C1722 1.386 . S
C1723 C1727 1.393 . S
C1724 H1713 0.950 . S
C1724 C1722 1.391 . S
C1724 C1725 1.400 . S
C1725 C1719 1.491 . S
C1725 C1724 1.400 . S
C1725 C1726 1.398 . S
C1726 H1714 0.950 . S
C1726 C1725 1.398 . S
C1726 C1727 1.391 . S
C1727 H1715 0.950 . S
C1727 C1723 1.393 . S
C1727 C1726 1.391 . S
C457 C125 1.499 . S
C463 C13 1.499 . S
C477 C363 1.475 . S
C483 C27 1.475 . S
C497 C153 1.494 . S
C503 C41 1.494 . S
C517 C391 1.477 . S
C523 C55 1.477 . S
C537 C181 1.473 . S
C543 C69 1.473 . S
C557 C83 1.488 . S
C563 C419 1.488 . S
C577 C97 1.496 . S
C583 C209 1.496 . S
C597 C111 1.479 . S
C603 C447 1.479 . S
C617 C251 1.502 . S
C623 C139 1.502 . S
C637 C279 1.481 . S
C643 C167 1.481 . S
C657 C195 1.471 . S
C663 C307 1.471 . S
C677 C223 1.495 . S
C683 C335 1.495 . S
C697 C237 1.483 . S
C703 C349 1.483 . S
C717 C377 1.502 . S
C723 C265 1.502 . S
C737 C293 1.474 . S
C743 C405 1.474 . S
C757 C433 1.497 . S
C763 C321 1.497 . S
C777 C260 1.272 . S
C783 C8 1.269 . S
C797 C274 1.257 . S
C803 C22 1.259 . S
C817 C36 1.261 . S
C823 C232 1.259 . S
C837 C50 1.260 . S
C843 C246 1.262 . S
C857 C316 1.252 . S
C863 C64 1.253 . S
C877 C78 1.267 . S
C883 C330 1.264 . S
C897 C288 1.253 . S
C903 C92 1.255 . S
C917 C302 1.257 . S
C923 C106 1.259 . S
C937 C120 1.262 . S
C943 C372 1.265 . S
C957 C386 1.253 . S
C963 C134 1.255 . S
C977 C148 1.271 . S
C983 C344 1.273 . S
C997 C162 1.253 . S
C1003 C358 1.252 . S
C1017 C176 1.256 . S
C1023 C428 1.254 . S
C1037 C190 1.275 . S
C1043 C442 1.272 . S
C1057 C400 1.280 . S
C1063 C204 1.278 . S
C1077 C414 1.276 . S
C1083 C218 1.278 . S
C1097 C95 1.336 . S
C1103 C11 1.335 . S
C1117 C109 1.344 . S
C1123 C25 1.344 . S
C1137 C67 1.344 . S
C1143 C39 1.344 . S
C1157 C53 1.344 . S
C1163 C81 1.343 . S
C1177 C207 1.344 . S
C1183 C123 1.344 . S
C1197 C221 1.343 . S
C1203 C137 1.343 . S
C1217 C179 1.331 . S
C1223 C151 1.332 . S
C1237 C193 1.331 . S
C1243 C165 1.331 . S
C1257 C319 1.344 . S
C1263 C235 1.344 . S
C1277 C333 1.342 . S
C1283 C249 1.342 . S
C1297 C263 1.339 . S
C1303 C291 1.339 . S
C1317 C277 1.334 . S
C1323 C305 1.333 . S
C1337 C431 1.332 . S
C1343 C347 1.332 . S
C1357 C445 1.336 . S
C1363 C361 1.336 . S
C1377 C375 1.337 . S
C1383 C403 1.336 . S
C1397 C389 1.333 . S
C1403 C417 1.333 . S
C1417 C7 1.493 . S
C1423 C301 1.487 . S
C1437 C315 1.488 . S
C1443 C21 1.485 . S
C1457 C329 1.485 . S
C1463 C35 1.487 . S
C1477 C49 1.485 . S
C1483 C287 1.490 . S
C1497 C273 1.488 . S
C1503 C63 1.485 . S
C1517 C77 1.493 . S
C1523 C231 1.487 . S
C1537 C245 1.488 . S
C1543 C91 1.485 . S
C1557 C105 1.493 . S
C1563 C259 1.487 . S
C1577 C413 1.491 . S
C1583 C119 1.485 . S
C1597 C427 1.485 . S
C1603 C133 1.490 . S
C1617 C147 1.488 . S
C1623 C441 1.493 . S
C1637 C399 1.485 . S
C1643 C161 1.489 . S
C1657 C385 1.486 . S
C1663 C175 1.492 . S
C1677 C189 1.493 . S
C1683 C343 1.488 . S
C1697 C357 1.491 . S
C1703 C203 1.485 . S
C1717 C217 1.492 . S
C1723 C371 1.485 . S
