# Generated by pormake.
# Topology fnt, (5)-cn, num edge types: 1
# Building blocks:
#     Node 0, Type 0, BuildingBlock: XOMCOT_clean_sbu_1, # of connection points: 5
#     Node 1, Type 0, BuildingBlock: XOMCOT_clean_sbu_1, # of connection points: 5
#     Node 2, Type 0, BuildingBlock: XOMCOT_clean_sbu_1, # of connection points: 5
#     Node 3, Type 0, BuildingBlock: XOMCOT_clean_sbu_1, # of connection points: 5
#     Node 4, Type 0, BuildingBlock: XOMCOT_clean_sbu_1, # of connection points: 5
#     Node 5, Type 0, BuildingBlock: XOMCOT_clean_sbu_1, # of connection points: 5
#     Edge 6, Type (0, 0), BuildingBlock: FUNLAD_clean_linker_0, # of connection points: 2
#     Edge 7, Type (0, 0), BuildingBlock: FUNLAD_clean_linker_0, # of connection points: 2
#     Edge 8, Type (0, 0), BuildingBlock: FUNLAD_clean_linker_0, # of connection points: 2
#     Edge 9, Type (0, 0), BuildingBlock: FUNLAD_clean_linker_0, # of connection points: 2
#     Edge 10, Type (0, 0), BuildingBlock: FUNLAD_clean_linker_0, # of connection points: 2
#     Edge 11, Type (0, 0), BuildingBlock: FUNLAD_clean_linker_0, # of connection points: 2
#     Edge 12, Type (0, 0), BuildingBlock: FUNLAD_clean_linker_0, # of connection points: 2
#     Edge 13, Type (0, 0), BuildingBlock: FUNLAD_clean_linker_0, # of connection points: 2
#     Edge 14, Type (0, 0), BuildingBlock: FUNLAD_clean_linker_0, # of connection points: 2
#     Edge 15, Type (0, 0), BuildingBlock: FUNLAD_clean_linker_0, # of connection points: 2
#     Edge 16, Type (0, 0), BuildingBlock: FUNLAD_clean_linker_0, # of connection points: 2
#     Edge 17, Type (0, 0), BuildingBlock: FUNLAD_clean_linker_0, # of connection points: 2
#     Edge 18, Type (0, 0), BuildingBlock: FUNLAD_clean_linker_0, # of connection points: 2
#     Edge 19, Type (0, 0), BuildingBlock: FUNLAD_clean_linker_0, # of connection points: 2
#     Edge 20, Type (0, 0), BuildingBlock: FUNLAD_clean_linker_0, # of connection points: 2
# Relax obj value: 0.139
# Max RMSD: 0.170
# Mean RMSD: 0.170
data_MOF--net-fnt--node1-XOMCOT_clean_sbu_1--edge1-FUNLAD_clean_linker_0
_symmetry_space_group_name_H-M    P1
_symmetry_Int_Tables_number       1
_symmetry_cell_setting            triclinic
loop_
_symmetry_equiv_pos_as_xyz
'x, y, z'
_cell_length_a     31.639414
_cell_length_b     31.554775
_cell_length_c     54.096852
_cell_angle_alpha  89.680052
_cell_angle_beta   90.421519
_cell_angle_gamma 119.85068
loop_
_atom_site_label
_atom_site_type_symbol
_atom_site_fract_x
_atom_site_fract_y
_atom_site_fract_z
_atom_type_partial_charge
C0 C 0.20248 0.37784 0.08468 0.0
C1 C 0.18721 0.37003 0.1088 0.0
N2 N 0.15283 0.32272 0.11146 0.0
N3 N 0.17836 0.33566 0.07199 0.0
C4 C 0.14852 0.30259 0.08888 0.0
H5 H 0.22834 0.41271 0.0768 0.0
Co6 Co 0.1827 0.33065 0.0377 0.0
C7 C 0.13079 0.22582 1.0262 0.0
O8 O 0.11332 0.23648 1.00649 0.0
N9 N 0.1887 0.32723 1.00279 0.0
C10 C 0.18705 0.33584 0.96196 0.0
C11 C 0.17572 0.34768 0.98438 0.0
C12 C 0.20959 0.30462 0.99087 0.0
N13 N 0.20799 0.30827 0.96598 0.0
O14 O 0.24975 0.34781 0.04129 0.0
H15 H 0.15938 0.37028 0.98663 0.0
H16 H 0.22414 0.28435 1.00036 0.0
O17 O 0.1593 0.25997 0.04096 0.0
C18 C 0.27302 0.3938 0.03711 0.0
O19 O 0.24799 0.41494 1.03029 0.0
N20 N 0.11948 0.32092 1.03474 0.0
C21 C 0.03654 0.33009 1.03388 0.0
C22 C 0.03317 0.28564 0.04072 0.0
C23 C 0.07545 0.28184 0.04123 0.0
C24 C 0.12315 0.36486 1.02965 0.0
C25 C 0.08221 0.36998 1.02841 0.0
H26 H 0.07262 0.24834 0.04797 0.0
H27 H 0.15859 0.39662 1.02684 0.0
H28 H 0.1224 0.26509 0.08442 0.0
H29 H 0.19989 0.39755 0.12311 0.0
H30 H 0.18073 0.34724 0.94408 0.0
H31 H -0.0014 0.25474 0.04614 0.0
H32 H 0.08659 0.4056 1.02428 0.0
C33 C 0.82642 0.20247 0.4135 0.0
C34 C 0.81981 0.19135 0.43832 0.0
N35 N 0.82842 0.15422 0.44273 0.0
N36 N 0.83947 0.17279 0.40223 0.0
C37 C 0.84062 0.14394 0.42054 0.0
H38 H 0.82032 0.22931 0.40411 0.0
Co39 Co 0.84647 0.17041 0.36807 0.0
C40 C 0.88798 0.10683 0.36047 0.0
O41 O 0.85862 0.08854 0.34134 0.0
N42 N 0.85385 0.16916 0.33307 0.0
C43 C 0.84186 0.16009 0.29235 0.0
C44 C 0.81969 0.15218 0.31495 0.0
C45 C 0.89667 0.18806 0.32071 0.0
N46 N 0.89037 0.18258 0.29593 0.0
O47 O 0.90083 0.23549 0.36908 0.0
H48 H 0.78094 0.13556 0.31747 0.0
H49 H 0.93183 0.20497 0.32986 0.0
O50 O 0.888 0.14096 0.37318 0.0
C51 C 0.88497 0.26304 0.36083 0.0
O52 O 0.84017 0.24245 0.35217 0.0
N53 N 0.78906 0.10993 0.3678 0.0
C54 C 0.6933 0.034 0.37061 0.0
C55 C 0.7316 0.02657 0.37808 0.0
C56 C 0.77953 0.06542 0.37684 0.0
C57 C 0.75178 0.11803 0.36202 0.0
C58 C 0.70385 0.08047 0.36264 0.0
H59 H 0.80804 0.05988 0.3843 0.0
H60 H 0.75955 0.15443 0.35704 0.0
H61 H 0.84922 0.11523 0.41759 0.0
H62 H 0.80732 0.20781 0.45181 0.0
H63 H 0.82351 0.15103 0.2746 0.0
H64 H 0.72447 0.99158 0.38536 0.0
H65 H 0.6751 0.08831 0.3579 0.0
C66 C 0.64571 0.86518 0.75042 0.0
C67 C 0.65365 0.85999 0.77504 0.0
N68 N 0.69666 0.86109 0.77729 0.0
N69 N 0.6836 0.86985 0.73709 0.0
C70 C 0.71432 0.86786 0.75401 0.0
H71 H 0.61294 0.86254 0.74261 0.0
Co72 Co 0.68444 0.86633 0.70255 0.0
C73 C 0.78607 0.89975 0.68892 0.0
O74 O 0.76923 0.86661 0.67139 0.0
N75 N 0.68416 0.86266 0.66736 0.0
C76 C 0.66877 0.83708 0.62835 0.0
C77 C 0.66164 0.82284 0.65272 0.0
C78 C 0.7044 0.90073 0.65125 0.0
N79 N 0.69563 0.88617 0.62736 0.0
O80 O 0.67834 0.92372 0.70011 0.0
H81 H 0.64092 0.78554 0.65904 0.0
H82 H 0.72463 0.93852 0.65702 0.0
O83 O 0.75621 0.90447 0.70294 0.0
C84 C 0.63391 0.90822 0.694 0.0
O85 O 0.6057 0.86133 0.68968 0.0
N86 N 0.68277 0.80654 0.70612 0.0
C87 C 0.65489 0.713 0.723 0.0
C88 C 0.70436 0.74821 0.72152 0.0
C89 C 0.71768 0.79543 0.71342 0.0
C90 C 0.63475 0.77193 0.70689 0.0
C91 C 0.62002 0.72493 0.71501 0.0
H92 H 0.75541 0.8231 0.71505 0.0
H93 H 0.60745 0.78173 0.70223 0.0
H94 H 0.748 0.86909 0.74919 0.0
H95 H 0.62806 0.85257 0.78985 0.0
H96 H 0.65535 0.81287 0.61258 0.0
H97 H 0.73209 0.74018 0.72801 0.0
H98 H 0.58143 0.6985 0.7158 0.0
C99 C 0.75989 0.65961 0.09408 0.0
C100 C 0.77536 0.66539 0.11829 0.0
N101 N 0.82352 0.69787 0.11906 0.0
N102 N 0.7979 0.68849 0.07949 0.0
C103 C 0.83614 0.71149 0.09524 0.0
H104 H 0.72361 0.63429 0.08746 0.0
Co105 Co 0.79676 0.68797 0.04491 0.0
C106 C 0.88346 0.77898 1.02903 0.0
O107 O 0.8887 0.75397 1.01115 0.0
N108 N 0.79457 0.68695 1.00958 0.0
C109 C 0.79178 0.66741 0.96986 0.0
C110 C 0.79757 0.65566 0.9937 0.0
C111 C 0.78632 0.71699 0.99478 0.0
N112 N 0.78466 0.70607 0.9705 0.0
O113 O 0.74587 0.70433 0.04513 0.0
H114 H 0.80288 0.62555 0.99882 0.0
H115 H 0.78201 0.74666 1.00178 0.0
O116 O 0.84827 0.75725 0.04432 0.0
C117 C 0.7077 0.6639 0.03984 0.0
O118 O 0.71214 0.62538 0.03558 0.0
N119 N 0.84039 0.66436 0.04564 0.0
C120 C 0.88363 0.60653 0.0499 0.0
C121 C 0.91231 0.65767 0.05048 0.0
C122 C 0.88973 0.68618 0.04895 0.0
C123 C 0.81235 0.6148 0.04614 0.0
C124 C 0.83307 0.58525 0.04796 0.0
H125 H 0.91192 0.72513 0.05118 0.0
H126 H 0.77321 0.59797 0.04487 0.0
H127 H 0.87281 0.7367 0.08923 0.0
H128 H 0.75321 0.64516 0.13392 0.0
H129 H 0.79152 0.64798 0.9534 0.0
H130 H 0.95151 0.67525 0.05265 0.0
H131 H 0.8096 0.54594 0.04742 0.0
C132 C 0.09397 0.75066 0.43648 0.0
C133 C 0.10447 0.76908 0.46009 0.0
N134 N 0.11516 0.81608 0.45936 0.0
N135 N 0.09755 0.7856 0.42077 0.0
C136 C 0.11025 0.82501 0.43531 0.0
H137 H 0.08643 0.71465 0.43112 0.0
Co138 Co 0.09502 0.78115 0.38616 0.0
C139 C 0.08377 0.86402 0.36877 0.0
O140 O 0.11208 0.8699 0.34987 0.0
N141 N 0.09209 0.77564 0.35112 0.0
C142 C 0.10731 0.76958 0.31156 0.0
C143 C 0.12534 0.77646 0.33531 0.0
C144 C 0.05379 0.76729 0.33641 0.0
N145 N 0.06225 0.76393 0.31221 0.0
O146 O 0.02907 0.72868 0.38768 0.0
H147 H 0.16059 0.78157 0.34041 0.0
H148 H 0.02024 0.76372 0.34344 0.0
O149 O 0.07424 0.83009 0.38455 0.0
C150 C 0.03345 0.69068 0.38649 0.0
O151 O 0.07715 0.69614 0.3841 0.0
N152 N 0.16126 0.82745 0.3856 0.0
C153 C 0.26221 0.87714 0.38967 0.0
C154 C 0.23677 0.90298 0.38926 0.0
C155 C 0.18583 0.87722 0.38782 0.0
C156 C 0.18574 0.8022 0.38679 0.0
C157 C 0.23607 0.82618 0.38856 0.0
H158 H 0.16689 0.89747 0.38946 0.0
H159 H 0.1658 0.76279 0.3863 0.0
H160 H 0.11854 0.86041 0.42821 0.0
H161 H 0.10538 0.74957 0.47641 0.0
H162 H 0.12642 0.76953 0.29506 0.0
H163 H 0.25597 0.94244 0.39073 0.0
H164 H 0.2544 0.80491 0.38877 0.0
C165 C 0.36838 0.13469 0.76093 0.0
C166 C 0.36228 0.14266 0.78527 0.0
N167 N 0.319 0.14082 0.7875 0.0
N168 N 0.32909 0.12754 0.74772 0.0
C169 C 0.29938 0.13097 0.7645 0.0
H170 H 0.40072 0.13672 0.75321 0.0
Co171 Co 0.32526 0.12524 0.71311 0.0
C172 C 0.22926 0.1123 0.70067 0.0
O173 O 0.25063 0.14537 0.68327 0.0
N174 N 0.32186 0.12224 0.67795 0.0
C175 C 0.33331 0.13581 0.63744 0.0
C176 C 0.34824 0.15591 0.66056 0.0
C177 C 0.2915 0.08188 0.66473 0.0
N178 N 0.29751 0.0891 0.64003 0.0
O179 O 0.31678 0.06082 0.71383 0.0
H180 H 0.37697 0.19275 0.66404 0.0
H181 H 0.26498 0.04786 0.6732 0.0
O182 O 0.2547 0.10018 0.7144 0.0
C183 C 0.36002 0.06856 0.71083 0.0
O184 O 0.3953 0.11348 0.70699 0.0
N185 N 0.34091 0.19067 0.71348 0.0
C186 C 0.3893 0.28896 0.7265 0.0
C187 C 0.33868 0.26049 0.72934 0.0
C188 C 0.3151 0.2109 0.72309 0.0
C189 C 0.38989 0.21849 0.7102 0.0
C190 C 0.41462 0.26772 0.71609 0.0
H191 H 0.2773 0.18867 0.72798 0.0
H192 H 0.41054 0.20159 0.70425 0.0
H193 H 0.26555 0.1297 0.75967 0.0
H194 H 0.38858 0.1509 0.79998 0.0
H195 H 0.34864 0.15406 0.62008 0.0
H196 H 0.31812 0.27551 0.73784 0.0
H197 H 0.45371 0.28851 0.71348 0.0
C198 C 0.34474 0.47526 0.04508 0.0
C199 C 0.32604 0.42505 0.04096 0.0
C200 C 0.39474 0.50739 0.04615 0.0
C201 C 0.42759 0.49015 0.04316 0.0
C202 C 0.40898 0.43963 0.0398 0.0
C203 C 0.35852 0.40718 0.03891 0.0
C204 C 0.48091 0.52435 0.04111 0.0
C205 C 0.50388 0.57058 0.04987 0.0
C206 C 0.55648 0.6042 0.04542 0.0
C207 C 0.58649 0.63531 0.0643 0.0
C208 C 0.63731 0.66111 0.0615 0.0
C209 C 0.65818 0.6565 0.03962 0.0
H210 H 0.55501 0.5818 1.00744 0.0
C211 C 0.62779 0.62982 1.01983 0.0
C212 C 0.5774 0.60394 1.02266 0.0
H213 H 0.64325 0.62559 1.00284 0.0
H214 H 0.32061 0.49019 0.0469 0.0
H215 H 0.40721 0.54592 0.04821 0.0
H216 H 0.43354 0.4254 0.03727 0.0
H217 H 0.34507 0.36871 0.03563 0.0
H218 H 0.50216 0.51083 1.03177 0.0
H219 H 0.48475 0.58344 0.06146 0.0
H220 H 0.57097 0.63672 0.08185 0.0
H221 H 0.66016 0.68066 0.07716 0.0
C222 C 0.89932 0.34463 0.34831 0.0
C223 C 0.91135 0.3165 0.36395 0.0
C224 C 0.91436 0.39316 0.3539 0.0
C225 C 0.94143 0.41459 0.3755 0.0
C226 C 0.95657 0.38756 0.39019 0.0
C227 C 0.94154 0.33874 0.38451 0.0
C228 C 0.95472 0.46501 0.383 0.0
C229 C 0.92912 0.48703 0.37615 0.0
C230 C 0.94561 0.53883 0.3821 0.0
C231 C 0.93905 0.56817 0.36457 0.0
C232 C 0.96283 0.619 0.36751 0.0
C233 C -0.00738 0.64067 0.38822 0.0
H234 H 0.97515 0.53851 0.4184 0.0
C235 C -0.00546 0.61087 0.40702 0.0
C236 C 0.97105 0.56032 0.40408 0.0
H237 H 0.01779 0.627 0.42305 0.0
H238 H 0.87657 0.32849 0.33212 0.0
H239 H 0.90404 0.41334 0.34138 0.0
H240 H 0.97833 0.40357 0.40667 0.0
H241 H 0.95101 0.31773 0.39697 0.0
H242 H 0.98685 0.4845 0.39464 0.0
H243 H 0.89712 0.46806 0.36442 0.0
H244 H 0.91896 0.55228 0.34764 0.0
H245 H 0.96182 0.64145 0.35253 0.0
C246 C 0.40925 0.03809 0.73111 0.0
C247 C 0.3737 0.03073 0.71336 0.0
C248 C 0.43707 0.01527 0.72877 0.0
C249 C 0.43018 0.98509 0.70838 0.0
C250 C 0.3913 0.97394 0.69197 0.0
C251 C 0.3634 -0.003 0.69431 0.0
C252 C 0.46445 0.96701 0.70307 0.0
C253 C 0.51251 0.99286 0.70869 0.0
C254 C 0.54772 0.97631 0.70249 0.0
C255 C 0.59014 0.99223 0.71695 0.0
C256 C 0.62148 0.97347 0.71298 0.0
C257 C 0.61077 0.93874 0.69437 0.0
H258 H 0.50886 0.93351 0.67021 0.0
C259 C 0.57065 0.92599 0.67869 0.0
C260 C 0.53962 0.94474 0.68258 0.0
H261 H 0.56195 0.89963 0.66401 0.0
H262 H 0.41798 0.06436 0.74584 0.0
H263 H 0.46528 0.02304 0.74236 0.0
H264 H 0.38479 0.95015 0.67631 0.0
H265 H 0.33685 0.99168 0.68013 0.0
H266 H 0.44988 0.93271 0.69316 0.0
H267 H 0.52682 0.02723 0.71854 0.0
H268 H 0.59776 0.01735 0.73212 0.0
H269 H 0.65194 0.98351 0.72545 0.0
C270 C 0.60253 0.64718 0.75231 0.0
C271 C 0.63831 0.66442 0.73386 0.0
C272 C 0.5786 0.59811 0.75907 0.0
C273 C 0.58987 0.56545 0.7473 0.0
C274 C 0.62906 0.58366 0.73072 0.0
C275 C 0.65315 0.63299 0.72395 0.0
C276 C 0.55825 0.51204 0.74999 0.0
C277 C 0.50945 0.49143 0.75177 0.0
C278 C 0.47621 0.43847 0.7484 0.0
C279 C 0.43091 0.4225 0.7368 0.0
C280 C 0.40142 0.3734 0.73041 0.0
C281 C 0.41683 0.33964 0.73572 0.0
H282 H 0.52371 0.41487 0.76507 0.0
C283 C 0.46049 0.35509 0.74895 0.0
C284 C 0.48992 0.40402 0.75525 0.0
H285 H 0.4724 0.3294 0.75401 0.0
H286 H 0.5914 0.67125 0.7606 0.0
H287 H 0.54983 0.58541 0.77265 0.0
H288 H 0.63876 0.55914 0.72169 0.0
H289 H 0.68089 0.64575 0.70979 0.0
H290 H 0.57452 0.48934 0.74667 0.0
H291 H 0.493 0.51453 0.75233 0.0
H292 H 0.41936 0.44842 0.73161 0.0
H293 H 0.36776 0.36232 0.72038 0.0
C294 C 0.88455 0.53233 0.06529 0.0
C295 C 0.90527 0.57452 0.05045 0.0
C296 C 0.89881 0.4973 0.06272 0.0
C297 C 0.934 0.50376 0.0451 0.0
C298 C 0.95685 0.54747 1.03141 0.0
C299 C 0.94262 0.58258 1.03404 0.0
C300 C 0.94775 0.46607 0.04007 0.0
C301 C 0.92243 0.41912 0.04762 0.0
C302 C 0.9402 0.38499 0.04199 0.0
C303 C 0.94324 0.35602 0.06091 0.0
C304 C 0.97065 0.33285 0.05744 0.0
C305 C -0.00535 0.33822 1.03493 0.0
H306 H 0.95588 0.40604 1.00346 0.0
C307 C 0.9863 0.36201 1.0151 0.0
C308 C 0.95922 0.38523 1.01859 0.0
H309 H 0.00413 0.36608 0.99751 0.0
H310 H 0.85623 0.52579 0.07843 0.0
H311 H 0.88158 0.46525 0.07438 0.0
H312 H 0.9846 0.55375 1.01796 0.0
H313 H 0.95901 0.61472 1.02231 0.0
H314 H 0.98045 0.4776 1.02914 0.0
H315 H 0.89056 0.40607 0.05923 0.0
H316 H 0.92814 0.35486 0.07898 0.0
H317 H 0.9768 0.31478 0.073 0.0
C318 C 0.3392 0.88519 0.40669 0.0
C319 C 0.31583 0.90224 0.39063 0.0
C320 C 0.38902 0.90251 0.40466 0.0
C321 C 0.41628 0.93699 0.38633 0.0
C322 C 0.39345 0.95653 0.37151 0.0
C323 C 0.34356 0.93927 0.37361 0.0
C324 C 0.46801 0.95265 0.38153 0.0
C325 C 0.49022 0.92767 0.38888 0.0
C326 C 0.54156 0.94537 0.38249 0.0
C327 C 0.5742 0.94736 0.40074 0.0
C328 C 0.62431 0.97283 0.39622 0.0
C329 C 0.64187 -0.0041 0.37331 0.0
H330 H 0.53417 0.96127 0.34416 0.0
C331 C 0.60875 0.98904 0.35425 0.0
C332 C 0.55893 0.96398 0.3588 0.0
H333 H 0.62156 0.00583 0.3363 0.0
H334 H 0.31855 0.85727 0.42033 0.0
H335 H 0.4055 0.88808 0.41722 0.0
H336 H 0.41381 0.98372 0.35751 0.0
H337 H 0.32628 0.9529 0.36101 0.0
H338 H 0.4884 0.9856 0.37051 0.0
H339 H 0.47188 0.89533 0.40039 0.0
H340 H 0.56126 0.93249 0.41901 0.0
H341 H 0.64925 0.97772 0.4112 0.0
C342 C 0.09186 0.1392 1.0132 0.0
C343 C 0.11131 0.1737 1.03231 0.0
C344 C 0.06688 0.08939 1.01842 0.0
C345 C 0.06083 0.07253 0.04299 0.0
C346 C 0.08114 0.10698 0.06217 0.0
C347 C 0.10666 0.15725 0.05687 0.0
C348 C 0.03033 0.01948 0.04872 0.0
C349 C 0.02651 0.985 1.03281 0.0
C350 C -0.00881 0.93172 1.03471 0.0
C351 C -0.00273 0.90059 1.01855 0.0
C352 C 0.96263 0.85116 1.01716 0.0
C353 C 0.9207 0.83121 1.03194 0.0
H354 H 0.94326 0.93453 0.06251 0.0
C355 C 0.915 0.8618 0.04877 0.0
C356 C 0.94984 0.91174 0.05008 0.0
H357 H 0.88309 0.84747 0.06042 0.0
H358 H 0.09463 0.15074 0.99409 0.0
H359 H 0.05053 0.06434 1.00312 0.0
H360 H 0.07658 0.09503 0.08126 0.0
H361 H 0.12076 0.1831 0.07199 0.0
H362 H 0.01048 0.00913 0.066 0.0
H363 H 0.05033 -0.00345 1.01682 0.0
H364 H 0.02855 0.91477 1.00643 0.0
H365 H 0.96861 0.82874 1.00414 0.0
C366 C 0.08562 0.94195 0.35787 0.0
C367 C 0.06835 0.90055 0.3732 0.0
C368 C 0.07155 0.97681 0.36182 0.0
C369 C 0.03932 0.97081 0.38092 0.0
C370 C 0.02294 0.93008 0.39674 0.0
C371 C 0.0374 0.8953 0.39291 0.0
C372 C 0.02181 0.00646 0.38284 0.0
C373 C 0.9764 0.99328 0.39018 0.0
C374 C 0.95404 0.02404 0.3852 0.0
C375 C 0.9055 0.00079 0.37712 0.0
C376 C 0.88433 0.02816 0.36941 0.0
C377 C 0.91078 0.0794 0.3703 0.0
H378 H 0.0176 0.09422 0.39352 0.0
C379 C 0.95847 0.10295 0.37977 0.0
C380 C 0.98028 0.07542 0.38692 0.0
H381 H 0.97931 0.14245 0.38078 0.0
H382 H 0.10999 0.94751 0.34268 0.0
H383 H 0.08484 0.0079 0.34944 0.0
H384 H -0.00098 0.92496 0.41205 0.0
H385 H 0.02407 0.8642 0.40528 0.0
H386 H 0.04412 0.04228 0.37454 0.0
H387 H 0.95221 0.95591 0.39612 0.0
H388 H 0.88447 0.96132 0.37576 0.0
H389 H 0.84716 0.00911 0.36254 0.0
C390 C 0.14963 0.0508 0.71973 0.0
C391 C 0.17688 0.09313 0.70548 0.0
C392 C 0.09952 0.032 0.723 0.0
C393 C 0.07599 0.05559 0.71227 0.0
C394 C 0.10377 0.09907 0.69907 0.0
C395 C 0.1535 0.11739 0.6955 0.0
C396 C 0.02237 0.03483 0.71333 0.0
C397 C -0.00871 0.98645 0.71218 0.0
C398 C 0.9384 0.96531 0.70722 0.0
C399 C 0.91506 0.92301 0.69277 0.0
C400 C 0.86596 0.90265 0.68661 0.0
C401 C 0.83852 0.92342 0.69523 0.0
H402 H 0.92802 0.01845 0.72766 0.0
C403 C 0.86141 0.96515 0.71028 0.0
C404 C 0.91116 0.98625 0.71607 0.0
H405 H 0.84101 0.98161 0.71739 0.0
H406 H 0.16678 0.03166 0.72788 0.0
H407 H 0.07927 -0.00103 0.7338 0.0
H408 H 0.08663 0.11811 0.69076 0.0
H409 H 0.17357 0.15053 0.68474 0.0
H410 H 0.00836 0.05992 0.71146 0.0
H411 H 0.0058 0.96168 0.71148 0.0
H412 H 0.93512 0.90606 0.6858 0.0
H413 H 0.84941 0.87006 0.67528 0.0
C414 C 0.20237 0.27673 0.92353 0.0
C415 C 0.22307 0.2858 0.94739 0.0
C416 C 0.21723 0.25582 0.90529 0.0
C417 C 0.25299 0.24284 0.91044 0.0
C418 C 0.27366 0.25181 0.93428 0.0
C419 C 0.25876 0.2728 0.95258 0.0
C420 C 0.27152 0.22258 0.89114 0.0
C421 C 0.24681 0.20073 0.8702 0.0
C422 C 0.26638 0.18352 0.84993 0.0
C423 C 0.23393 0.15153 0.832 0.0
C424 C 0.25094 0.1368 0.81182 0.0
C425 C 0.30098 0.15382 0.80899 0.0
H426 H 0.34315 0.22619 0.85995 0.0
C427 C 0.33346 0.18551 0.82703 0.0
C428 C 0.3165 0.20035 0.84716 0.0
H429 H 0.37233 0.20032 0.82522 0.0
H430 H 0.17442 0.28566 0.91885 0.0
H431 H 0.2012 0.25104 0.88707 0.0
H432 H 0.30167 0.24277 0.93877 0.0
H433 H 0.2759 0.27967 0.97061 0.0
H434 H 0.30652 0.22521 0.89474 0.0
H435 H 0.21003 0.1943 0.86771 0.0
H436 H 0.19517 0.13813 0.83349 0.0
H437 H 0.22486 0.11215 0.7984 0.0
C438 C 0.11734 0.32896 0.15103 0.0
C439 C 0.12356 0.30023 0.13318 0.0
C440 C 0.08821 0.30756 0.17177 0.0
C441 C 0.06457 0.25667 0.1754 0.0
C442 C 0.07052 0.22786 0.15754 0.0
C443 C 0.09977 0.24933 0.13673 0.0
C444 C 0.03104 0.23236 0.19661 0.0
C445 C 0.03293 0.25542 0.21793 0.0
C446 C -0.00322 0.23318 0.23834 0.0
C447 C 0.00834 0.25568 0.2617 0.0
C448 C 0.97408 0.23845 0.28081 0.0
C449 C 0.92713 0.19845 0.27694 0.0
H450 H 0.93891 0.17453 0.21692 0.0
C451 C 0.91588 0.17532 0.25374 0.0
C452 C 0.95007 0.19249 0.23466 0.0
H453 H 0.88031 0.14406 0.25016 0.0
H454 H 0.13386 0.36807 0.14871 0.0
H455 H 0.08325 0.33109 0.18445 0.0
H456 H 0.05239 0.18851 0.15967 0.0
H457 H 0.10383 0.22604 0.12348 0.0
H458 H 0.00437 0.19394 0.19449 0.0
H459 H 0.06248 0.29249 0.22082 0.0
H460 H 0.04383 0.28733 0.26508 0.0
H461 H 0.9839 0.25747 0.29832 0.0
C462 C 0.80742 0.07832 0.46607 0.0
C463 C 0.82096 0.12809 0.46581 0.0
C464 C 0.79705 0.05232 0.48839 0.0
C465 C 0.79986 0.07546 0.51104 0.0
C466 C 0.81505 0.12555 0.51081 0.0
C467 C 0.82518 0.15146 0.48851 0.0
C468 C 0.78764 0.04888 0.53522 0.0
C469 C 0.75654 0.00039 0.53734 0.0
C470 C 0.74154 0.97304 0.56128 0.0
C471 C 0.69962 0.92661 0.56146 0.0
C472 C 0.68438 0.89868 0.58309 0.0
C473 C 0.71083 0.91617 0.60528 0.0
H474 H 0.80123 0.02591 0.58419 0.0
C475 C 0.75275 0.96281 0.60525 0.0
C476 C 0.76808 0.99089 0.58351 0.0
H477 H 0.77442 0.97717 0.62188 0.0
H478 H 0.80364 0.05904 0.44899 0.0
H479 H 0.78706 0.01419 0.48773 0.0
H480 H 0.81824 0.1446 0.52793 0.0
H481 H 0.83629 0.18989 0.48906 0.0
H482 H 0.80236 0.07078 0.55177 0.0
H483 H 0.73889 0.97962 0.52078 0.0
H484 H 0.67833 0.91174 0.54472 0.0
H485 H 0.65154 0.86337 0.58239 0.0
C486 C 0.70192 0.85651 0.82296 0.0
C487 C 0.71533 0.84939 0.79925 0.0
C488 C 0.71707 0.84198 0.84421 0.0
C489 C 0.74595 0.81963 0.84229 0.0
C490 C 0.76048 0.81387 0.81863 0.0
C491 C 0.74529 0.82833 0.79741 0.0
C492 C 0.76202 0.80198 0.86421 0.0
C493 C 0.74048 0.79232 0.88664 0.0
C494 C 0.75471 0.77178 0.90809 0.0
C495 C 0.73895 0.77495 0.9319 0.0
C496 C 0.7494 0.75427 0.9524 0.0
C497 C 0.7756 0.72939 0.9496 0.0
H498 H 0.79321 0.74248 0.8874 0.0
C499 C 0.79163 0.72643 0.9258 0.0
C500 C 0.78126 0.74714 0.90533 0.0
H501 H 0.81222 0.70793 0.92291 0.0
H502 H 0.67965 0.87342 0.82514 0.0
H503 H 0.70627 0.84878 0.86199 0.0
H504 H 0.78291 0.79709 0.81646 0.0
H505 H 0.75596 0.8216 0.77956 0.0
H506 H 0.79215 0.79545 0.86126 0.0
H507 H 0.71048 0.79906 0.88965 0.0
H508 H 0.71805 0.79323 0.93468 0.0
H509 H 0.73584 0.75678 0.97032 0.0
C510 C 0.8363 0.7052 0.16453 0.0
C511 C 0.85521 0.71059 0.14051 0.0
C512 C 0.86605 0.71409 0.18539 0.0
C513 C 0.91584 0.72908 0.18282 0.0
C514 C 0.93484 0.7352 0.15881 0.0
C515 C 0.90507 0.72622 0.13796 0.0
C516 C 0.94869 0.73632 0.20439 0.0
C517 C 0.93829 0.74047 0.22817 0.0
C518 C 0.97099 0.7462 0.24955 0.0
C519 C 0.96546 0.7656 0.27184 0.0
C520 C -0.00504 0.77109 0.29241 0.0
C521 C 0.03067 0.75701 0.29127 0.0
H522 H 0.01054 0.71441 0.23217 0.0
C523 C 0.03561 0.73677 0.2691 0.0
C524 C 0.00612 0.73125 0.24856 0.0
H525 H 0.06188 0.72446 0.26767 0.0
H526 H 0.79824 0.69365 0.16729 0.0
H527 H 0.84926 0.70789 0.20336 0.0
H528 H 0.97288 0.74636 0.15612 0.0
H529 H 0.92098 0.73016 0.11987 0.0
H530 H 0.98359 0.73939 0.2002 0.0
H531 H 0.90532 0.74142 0.23236 0.0
H532 H 0.93848 0.77704 0.27331 0.0
H533 H 0.9903 0.78717 0.30904 0.0
C534 C 0.27027 0.06984 0.59633 0.0
C535 C 0.27224 0.0541 0.6205 0.0
C536 C 0.24743 0.03613 0.57719 0.0
C537 C 0.2255 0.98556 0.58175 0.0
C538 C 0.22716 0.96991 0.60595 0.0
C539 C 0.25008 0.00361 0.62506 0.0
C540 C 0.20281 0.94799 0.56184 0.0
C541 C 0.19092 0.95649 0.539 0.0
C542 C 0.17043 0.91887 0.51901 0.0
C543 C 0.14619 0.92586 0.49886 0.0
C544 C 0.12778 0.89217 0.47939 0.0
C545 C 0.1333 0.85063 0.47956 0.0
H546 H 0.19642 0.87141 0.53353 0.0
C547 C 0.1579 0.84386 0.49962 0.0
C548 C 0.17641 0.87753 0.519 0.0
H549 H 0.16407 0.81309 0.50012 0.0
H550 H 0.28648 0.10834 0.5921 0.0
H551 H 0.24816 0.05026 0.55886 0.0
H552 H 0.21106 0.93131 0.61009 0.0
H553 H 0.25136 0.98995 0.64328 0.0
H554 H 0.19482 0.9113 0.56661 0.0
H555 H 0.19505 0.99194 0.53469 0.0
H556 H 0.14137 0.95753 0.49817 0.0
H557 H 0.10892 0.8985 0.4643 0.0
loop_
_geom_bond_atom_site_label_1
_geom_bond_atom_site_label_2
_geom_bond_distance
_geom_bond_site_symmetry_2
_ccdc_geom_bond_type
C0 C1 1.351 . S
C0 N3 1.368 . S
C0 H5 0.931 . S
C1 C0 1.351 . S
C1 N2 1.373 . S
C1 H29 0.930 . S
N2 C1 1.373 . S
N2 C4 1.340 . S
N3 C0 1.368 . S
N3 C4 1.321 . S
N3 Co6 2.135 . S
C4 N2 1.340 . S
C4 N3 1.321 . S
C4 H28 0.930 . S
H5 C0 0.931 . S
Co6 N3 2.135 . S
Co6 N9 2.121 1_554 S
Co6 O14 2.055 . S
Co6 O17 2.039 . S
Co6 N20 2.140 . S
C7 O8 1.227 . S
C7 O17 1.265 . S
O8 C7 1.227 . S
N9 Co6 2.121 1_556 S
N9 C11 1.375 . S
N9 C12 1.313 . S
C10 C11 1.338 . S
C10 N13 1.377 . S
C10 H30 0.930 . S
C11 N9 1.375 . S
C11 C10 1.338 . S
C11 H15 0.931 . S
C12 N9 1.313 . S
C12 N13 1.344 . S
C12 H16 0.930 . S
N13 C10 1.377 . S
N13 C12 1.344 . S
O14 Co6 2.055 . S
O14 C18 1.253 . S
H15 C11 0.931 . S
H16 C12 0.930 . S
O17 Co6 2.039 . S
O17 C7 1.265 . S
C18 O14 1.253 . S
C18 O19 1.227 . S
O19 C18 1.227 . S
N20 Co6 2.140 . S
N20 C23 1.346 . S
N20 C24 1.345 1_554 S
C21 C22 1.387 1_556 S
C21 C25 1.391 . S
C22 C21 1.387 1_554 S
C22 C23 1.369 . S
C22 H31 0.929 . S
C23 N20 1.346 . S
C23 C22 1.369 . S
C23 H26 0.928 . S
C24 N20 1.345 1_556 S
C24 C25 1.371 . S
C24 H27 0.931 . S
C25 C21 1.391 . S
C25 C24 1.371 . S
C25 H32 0.930 . S
H26 C23 0.928 . S
H27 C24 0.931 . S
H28 C4 0.930 . S
H29 C1 0.930 . S
H30 C10 0.930 . S
H31 C22 0.929 . S
H32 C25 0.930 . S
C33 C34 1.351 . S
C33 N36 1.368 . S
C33 H38 0.931 . S
C34 C33 1.351 . S
C34 N35 1.373 . S
C34 H62 0.930 . S
N35 C34 1.373 . S
N35 C37 1.340 . S
N36 C33 1.368 . S
N36 C37 1.321 . S
N36 Co39 2.135 . S
C37 N35 1.340 . S
C37 N36 1.321 . S
C37 H61 0.930 . S
H38 C33 0.931 . S
Co39 N36 2.135 . S
Co39 N42 2.121 . S
Co39 O47 2.055 . S
Co39 O50 2.039 . S
Co39 N53 2.140 . S
C40 O41 1.227 . S
C40 O50 1.265 . S
O41 C40 1.227 . S
N42 Co39 2.121 . S
N42 C44 1.375 . S
N42 C45 1.313 . S
C43 C44 1.338 . S
C43 N46 1.377 . S
C43 H63 0.930 . S
C44 N42 1.375 . S
C44 C43 1.338 . S
C44 H48 0.931 . S
C45 N42 1.313 . S
C45 N46 1.344 . S
C45 H49 0.930 . S
N46 C43 1.377 . S
N46 C45 1.344 . S
O47 Co39 2.055 . S
O47 C51 1.253 . S
H48 C44 0.931 . S
H49 C45 0.930 . S
O50 Co39 2.039 . S
O50 C40 1.265 . S
C51 O47 1.253 . S
C51 O52 1.227 . S
O52 C51 1.227 . S
N53 Co39 2.140 . S
N53 C56 1.346 . S
N53 C57 1.345 . S
C54 C55 1.387 . S
C54 C58 1.391 . S
C55 C54 1.387 . S
C55 C56 1.369 . S
C55 H64 0.929 . S
C56 N53 1.346 . S
C56 C55 1.369 . S
C56 H59 0.928 . S
C57 N53 1.345 . S
C57 C58 1.371 . S
C57 H60 0.931 . S
C58 C54 1.391 . S
C58 C57 1.371 . S
C58 H65 0.930 . S
H59 C56 0.928 . S
H60 C57 0.931 . S
H61 C37 0.930 . S
H62 C34 0.930 . S
H63 C43 0.930 . S
H64 C55 0.929 . S
H65 C58 0.930 . S
C66 C67 1.351 . S
C66 N69 1.368 . S
C66 H71 0.931 . S
C67 C66 1.351 . S
C67 N68 1.373 . S
C67 H95 0.930 . S
N68 C67 1.373 . S
N68 C70 1.340 . S
N69 C66 1.368 . S
N69 C70 1.321 . S
N69 Co72 2.135 . S
C70 N68 1.340 . S
C70 N69 1.321 . S
C70 H94 0.930 . S
H71 C66 0.931 . S
Co72 N69 2.135 . S
Co72 N75 2.121 . S
Co72 O80 2.055 . S
Co72 O83 2.039 . S
Co72 N86 2.140 . S
C73 O74 1.227 . S
C73 O83 1.265 . S
O74 C73 1.227 . S
N75 Co72 2.121 . S
N75 C77 1.375 . S
N75 C78 1.313 . S
C76 C77 1.338 . S
C76 N79 1.377 . S
C76 H96 0.930 . S
C77 N75 1.375 . S
C77 C76 1.338 . S
C77 H81 0.931 . S
C78 N75 1.313 . S
C78 N79 1.344 . S
C78 H82 0.930 . S
N79 C76 1.377 . S
N79 C78 1.344 . S
O80 Co72 2.055 . S
O80 C84 1.253 . S
H81 C77 0.931 . S
H82 C78 0.930 . S
O83 Co72 2.039 . S
O83 C73 1.265 . S
C84 O80 1.253 . S
C84 O85 1.227 . S
O85 C84 1.227 . S
N86 Co72 2.140 . S
N86 C89 1.346 . S
N86 C90 1.345 . S
C87 C88 1.387 . S
C87 C91 1.391 . S
C88 C87 1.387 . S
C88 C89 1.369 . S
C88 H97 0.929 . S
C89 N86 1.346 . S
C89 C88 1.369 . S
C89 H92 0.928 . S
C90 N86 1.345 . S
C90 C91 1.371 . S
C90 H93 0.931 . S
C91 C87 1.391 . S
C91 C90 1.371 . S
C91 H98 0.930 . S
H92 C89 0.928 . S
H93 C90 0.931 . S
H94 C70 0.930 . S
H95 C67 0.930 . S
H96 C76 0.930 . S
H97 C88 0.929 . S
H98 C91 0.930 . S
C99 C100 1.351 . S
C99 N102 1.368 . S
C99 H104 0.931 . S
C100 C99 1.351 . S
C100 N101 1.373 . S
C100 H128 0.930 . S
N101 C100 1.373 . S
N101 C103 1.340 . S
N102 C99 1.368 . S
N102 C103 1.321 . S
N102 Co105 2.135 . S
C103 N101 1.340 . S
C103 N102 1.321 . S
C103 H127 0.930 . S
H104 C99 0.931 . S
Co105 N102 2.135 . S
Co105 N108 2.121 1_554 S
Co105 O113 2.055 . S
Co105 O116 2.039 . S
Co105 N119 2.140 . S
C106 O107 1.227 . S
C106 O116 1.265 . S
O107 C106 1.227 . S
N108 Co105 2.121 1_556 S
N108 C110 1.375 . S
N108 C111 1.313 . S
C109 C110 1.338 . S
C109 N112 1.377 . S
C109 H129 0.930 . S
C110 N108 1.375 . S
C110 C109 1.338 . S
C110 H114 0.931 . S
C111 N108 1.313 . S
C111 N112 1.344 . S
C111 H115 0.930 . S
N112 C109 1.377 . S
N112 C111 1.344 . S
O113 Co105 2.055 . S
O113 C117 1.253 . S
H114 C110 0.931 . S
H115 C111 0.930 . S
O116 Co105 2.039 . S
O116 C106 1.265 . S
C117 O113 1.253 . S
C117 O118 1.227 . S
O118 C117 1.227 . S
N119 Co105 2.140 . S
N119 C122 1.346 . S
N119 C123 1.345 1_554 S
C120 C121 1.387 1_556 S
C120 C124 1.391 . S
C121 C120 1.387 1_554 S
C121 C122 1.369 . S
C121 H130 0.929 . S
C122 N119 1.346 . S
C122 C121 1.369 . S
C122 H125 0.928 . S
C123 N119 1.345 1_556 S
C123 C124 1.371 . S
C123 H126 0.931 . S
C124 C120 1.391 . S
C124 C123 1.371 . S
C124 H131 0.930 . S
H125 C122 0.928 . S
H126 C123 0.931 . S
H127 C103 0.930 . S
H128 C100 0.930 . S
H129 C109 0.930 . S
H130 C121 0.929 . S
H131 C124 0.930 . S
C132 C133 1.351 . S
C132 N135 1.368 . S
C132 H137 0.931 . S
C133 C132 1.351 . S
C133 N134 1.373 . S
C133 H161 0.930 . S
N134 C133 1.373 . S
N134 C136 1.340 . S
N135 C132 1.368 . S
N135 C136 1.321 . S
N135 Co138 2.135 . S
C136 N134 1.340 . S
C136 N135 1.321 . S
C136 H160 0.930 . S
H137 C132 0.931 . S
Co138 N135 2.135 . S
Co138 N141 2.121 . S
Co138 O146 2.055 . S
Co138 O149 2.039 . S
Co138 N152 2.140 . S
C139 O140 1.227 . S
C139 O149 1.265 . S
O140 C139 1.227 . S
N141 Co138 2.121 . S
N141 C143 1.375 . S
N141 C144 1.313 . S
C142 C143 1.338 . S
C142 N145 1.377 . S
C142 H162 0.930 . S
C143 N141 1.375 . S
C143 C142 1.338 . S
C143 H147 0.931 . S
C144 N141 1.313 . S
C144 N145 1.344 . S
C144 H148 0.930 . S
N145 C142 1.377 . S
N145 C144 1.344 . S
O146 Co138 2.055 . S
O146 C150 1.253 . S
H147 C143 0.931 . S
H148 C144 0.930 . S
O149 Co138 2.039 . S
O149 C139 1.265 . S
C150 O146 1.253 . S
C150 O151 1.227 . S
O151 C150 1.227 . S
N152 Co138 2.140 . S
N152 C155 1.346 . S
N152 C156 1.345 . S
C153 C154 1.387 . S
C153 C157 1.391 . S
C154 C153 1.387 . S
C154 C155 1.369 . S
C154 H163 0.929 . S
C155 N152 1.346 . S
C155 C154 1.369 . S
C155 H158 0.928 . S
C156 N152 1.345 . S
C156 C157 1.371 . S
C156 H159 0.931 . S
C157 C153 1.391 . S
C157 C156 1.371 . S
C157 H164 0.930 . S
H158 C155 0.928 . S
H159 C156 0.931 . S
H160 C136 0.930 . S
H161 C133 0.930 . S
H162 C142 0.930 . S
H163 C154 0.929 . S
H164 C157 0.930 . S
C165 C166 1.351 . S
C165 N168 1.368 . S
C165 H170 0.931 . S
C166 C165 1.351 . S
C166 N167 1.373 . S
C166 H194 0.930 . S
N167 C166 1.373 . S
N167 C169 1.340 . S
N168 C165 1.368 . S
N168 C169 1.321 . S
N168 Co171 2.135 . S
C169 N167 1.340 . S
C169 N168 1.321 . S
C169 H193 0.930 . S
H170 C165 0.931 . S
Co171 N168 2.135 . S
Co171 N174 2.121 . S
Co171 O179 2.055 . S
Co171 O182 2.039 . S
Co171 N185 2.140 . S
C172 O173 1.227 . S
C172 O182 1.265 . S
O173 C172 1.227 . S
N174 Co171 2.121 . S
N174 C176 1.375 . S
N174 C177 1.313 . S
C175 C176 1.338 . S
C175 N178 1.377 . S
C175 H195 0.930 . S
C176 N174 1.375 . S
C176 C175 1.338 . S
C176 H180 0.931 . S
C177 N174 1.313 . S
C177 N178 1.344 . S
C177 H181 0.930 . S
N178 C175 1.377 . S
N178 C177 1.344 . S
O179 Co171 2.055 . S
O179 C183 1.253 . S
H180 C176 0.931 . S
H181 C177 0.930 . S
O182 Co171 2.039 . S
O182 C172 1.265 . S
C183 O179 1.253 . S
C183 O184 1.227 . S
O184 C183 1.227 . S
N185 Co171 2.140 . S
N185 C188 1.346 . S
N185 C189 1.345 . S
C186 C187 1.387 . S
C186 C190 1.391 . S
C187 C186 1.387 . S
C187 C188 1.369 . S
C187 H196 0.929 . S
C188 N185 1.346 . S
C188 C187 1.369 . S
C188 H191 0.928 . S
C189 N185 1.345 . S
C189 C190 1.371 . S
C189 H192 0.931 . S
C190 C186 1.391 . S
C190 C189 1.371 . S
C190 H197 0.930 . S
H191 C188 0.928 . S
H192 C189 0.931 . S
H193 C169 0.930 . S
H194 C166 0.930 . S
H195 C175 0.930 . S
H196 C187 0.929 . S
H197 C190 0.930 . S
C198 C199 1.386 . S
C198 C200 1.383 . S
C198 H214 0.951 . S
C199 C198 1.386 . S
C199 C203 1.383 1_554 S
C200 C198 1.383 . S
C200 C201 1.402 . S
C200 H215 0.951 . S
C201 C200 1.402 . S
C201 C202 1.375 1_554 S
C201 C204 1.481 . S
C202 C201 1.375 1_556 S
C202 C203 1.367 . S
C202 H216 0.951 . S
C203 C199 1.383 1_556 S
C203 C202 1.367 . S
C203 H217 0.950 . S
C204 C201 1.481 . S
C204 C205 1.297 . S
C204 H218 0.950 1_554 S
C205 C204 1.297 . S
C205 C206 1.479 . S
C205 H219 0.950 . S
C206 C205 1.479 . S
C206 C207 1.375 . S
C206 C212 1.404 . S
C207 C206 1.375 . S
C207 C208 1.369 . S
C207 H220 0.950 . S
C208 C207 1.369 . S
C208 C209 1.392 . S
C208 H221 0.951 . S
C209 C208 1.392 . S
C209 C211 1.414 . S
H210 C212 0.949 1_556 S
C211 C209 1.414 . S
C211 C212 1.391 . S
C211 H213 0.916 1_554 S
C212 C206 1.404 . S
C212 H210 0.949 1_554 S
C212 C211 1.391 . S
H213 C211 0.916 1_556 S
H214 C198 0.951 . S
H215 C200 0.951 . S
H216 C202 0.951 . S
H217 C203 0.950 . S
H218 C204 0.950 1_556 S
H219 C205 0.950 . S
H220 C207 0.950 . S
H221 C208 0.951 . S
C222 C223 1.386 . S
C222 C224 1.383 . S
C222 H238 0.951 . S
C223 C222 1.386 . S
C223 C227 1.383 . S
C224 C222 1.383 . S
C224 C225 1.402 . S
C224 H239 0.951 . S
C225 C224 1.402 . S
C225 C226 1.375 . S
C225 C228 1.481 . S
C226 C225 1.375 . S
C226 C227 1.367 . S
C226 H240 0.951 1_655 S
C227 C223 1.383 . S
C227 C226 1.367 . S
C227 H241 0.950 . S
C228 C225 1.481 . S
C228 C229 1.297 . S
C228 H242 0.950 1_655 S
C229 C228 1.297 . S
C229 C230 1.479 1_655 S
C229 H243 0.950 . S
C230 C229 1.479 1_455 S
C230 C231 1.375 1_455 S
C230 C236 1.404 . S
C231 C230 1.375 1_655 S
C231 C232 1.369 1_655 S
C231 H244 0.950 . S
C232 C231 1.369 1_455 S
C232 C233 1.392 . S
C232 H245 0.951 . S
C233 C232 1.392 . S
C233 C235 1.384 . S
H234 C236 0.949 . S
C235 C233 1.384 . S
C235 C236 1.385 . S
C235 H237 0.950 . S
C236 C230 1.404 . S
C236 H234 0.949 . S
C236 C235 1.385 . S
H237 C235 0.950 . S
H238 C222 0.951 . S
H239 C224 0.951 . S
H240 C226 0.951 1_455 S
H241 C227 0.950 . S
H242 C228 0.950 1_455 S
H243 C229 0.950 . S
H244 C231 0.950 . S
H245 C232 0.951 . S
C246 C247 1.386 . S
C246 C248 1.383 . S
C246 H262 0.951 . S
C247 C246 1.386 . S
C247 C251 1.383 . S
C248 C246 1.383 . S
C248 C249 1.402 . S
C248 H263 0.951 1_545 S
C249 C248 1.402 . S
C249 C250 1.375 . S
C249 C252 1.463 1_545 S
C250 C249 1.375 . S
C250 C251 1.367 . S
C250 H264 0.951 . S
C251 C247 1.383 . S
C251 C250 1.367 . S
C251 H265 0.950 . S
C252 C249 1.463 1_565 S
C252 C253 1.315 . S
C252 H266 0.951 1_565 S
C253 C252 1.315 . S
C253 C254 1.479 . S
C253 H267 0.950 . S
C254 C253 1.479 . S
C254 C255 1.375 . S
C254 C260 1.404 . S
C255 C254 1.375 . S
C255 C256 1.369 . S
C255 H268 0.950 . S
C256 C255 1.369 . S
C256 C257 1.392 . S
C256 H269 0.951 . S
C257 C256 1.392 . S
C257 C259 1.384 . S
H258 C260 0.949 . S
C259 C257 1.384 . S
C259 C260 1.385 . S
C259 H261 0.950 . S
C260 C254 1.404 . S
C260 H258 0.949 . S
C260 C259 1.385 . S
H261 C259 0.950 . S
H262 C246 0.951 . S
H263 C248 0.951 1_565 S
H264 C250 0.951 . S
H265 C251 0.950 . S
H266 C252 0.951 1_545 S
H267 C253 0.950 . S
H268 C255 0.950 . S
H269 C256 0.951 . S
C270 C271 1.386 . S
C270 C272 1.383 . S
C270 H286 0.951 . S
C271 C270 1.386 . S
C271 C275 1.383 . S
C272 C270 1.383 . S
C272 C273 1.402 . S
C272 H287 0.951 . S
C273 C272 1.402 . S
C273 C274 1.375 . S
C273 C276 1.481 . S
C274 C273 1.375 . S
C274 C275 1.367 . S
C274 H288 0.951 . S
C275 C271 1.383 . S
C275 C274 1.367 . S
C275 H289 0.950 . S
C276 C273 1.481 . S
C276 C277 1.297 . S
C276 H290 0.950 . S
C277 C276 1.297 . S
C277 C278 1.479 . S
C277 H291 0.950 . S
C278 C277 1.479 . S
C278 C279 1.375 . S
C278 C284 1.404 . S
C279 C278 1.375 . S
C279 C280 1.369 . S
C279 H292 0.950 . S
C280 C279 1.369 . S
C280 C281 1.392 . S
C280 H293 0.951 . S
C281 C280 1.392 . S
C281 C283 1.384 . S
H282 C284 0.949 . S
C283 C281 1.384 . S
C283 C284 1.385 . S
C283 H285 0.950 . S
C284 C278 1.404 . S
C284 H282 0.949 . S
C284 C283 1.385 . S
H285 C283 0.950 . S
H286 C270 0.951 . S
H287 C272 0.951 . S
H288 C274 0.951 . S
H289 C275 0.950 . S
H290 C276 0.950 . S
H291 C277 0.950 . S
H292 C279 0.950 . S
H293 C280 0.951 . S
C294 C295 1.386 1_554 S
C294 C296 1.383 . S
C294 H310 0.951 . S
C295 C294 1.386 1_556 S
C295 C299 1.383 . S
C296 C294 1.383 . S
C296 C297 1.402 1_554 S
C296 H311 0.951 . S
C297 C296 1.402 1_556 S
C297 C298 1.375 . S
C297 C300 1.481 . S
C298 C297 1.375 . S
C298 C299 1.367 . S
C298 H312 0.951 . S
C299 C295 1.383 . S
C299 C298 1.367 . S
C299 H313 0.950 . S
C300 C297 1.481 . S
C300 C301 1.297 1_556 S
C300 H314 0.950 . S
C301 C300 1.297 1_554 S
C301 C302 1.479 1_655 S
C301 H315 0.950 . S
C302 C301 1.479 1_455 S
C302 C303 1.373 . S
C302 C308 1.406 1_554 S
C303 C302 1.373 . S
C303 C304 1.369 . S
C303 H316 0.950 . S
C304 C303 1.369 . S
C304 C305 1.392 1_554 S
C304 H317 0.951 . S
C305 C304 1.392 1_556 S
C305 C307 1.384 . S
H306 C308 0.949 1_655 S
C307 C305 1.384 . S
C307 C308 1.385 . S
C307 H309 0.950 . S
C308 C302 1.406 1_556 S
C308 H306 0.949 1_455 S
C308 C307 1.385 . S
H309 C307 0.950 . S
H310 C294 0.951 . S
H311 C296 0.951 . S
H312 C298 0.951 . S
H313 C299 0.950 . S
H314 C300 0.950 . S
H315 C301 0.950 . S
H316 C303 0.950 . S
H317 C304 0.951 . S
C318 C319 1.386 . S
C318 C320 1.383 . S
C318 H334 0.951 . S
C319 C318 1.386 . S
C319 C323 1.383 . S
C320 C318 1.383 . S
C320 C321 1.402 . S
C320 H335 0.951 . S
C321 C320 1.402 . S
C321 C322 1.375 . S
C321 C324 1.481 . S
C322 C321 1.375 . S
C322 C323 1.367 . S
C322 H336 0.951 . S
C323 C319 1.383 . S
C323 C322 1.367 . S
C323 H337 0.950 . S
C324 C321 1.481 . S
C324 C325 1.297 . S
C324 H338 0.950 . S
C325 C324 1.297 . S
C325 C326 1.479 1_565 S
C325 H339 0.950 . S
C326 C325 1.479 1_545 S
C326 C327 1.375 . S
C326 C332 1.404 . S
C327 C326 1.375 . S
C327 C328 1.369 . S
C327 H340 0.950 . S
C328 C327 1.369 . S
C328 C329 1.392 . S
C328 H341 0.951 . S
C329 C328 1.392 . S
C329 C331 1.384 . S
H330 C332 0.949 . S
C331 C329 1.384 . S
C331 C332 1.385 . S
C331 H333 0.950 . S
C332 C326 1.404 . S
C332 H330 0.949 . S
C332 C331 1.385 . S
H333 C331 0.950 . S
H334 C318 0.951 . S
H335 C320 0.951 . S
H336 C322 0.951 . S
H337 C323 0.950 . S
H338 C324 0.950 . S
H339 C325 0.950 . S
H340 C327 0.950 . S
H341 C328 0.951 . S
C342 C343 1.386 1_556 S
C342 C344 1.382 . S
C342 H358 0.951 . S
C343 C342 1.386 1_554 S
C343 C347 1.383 . S
C344 C342 1.382 . S
C344 C345 1.404 1_556 S
C344 H359 0.949 . S
C345 C344 1.404 1_554 S
C345 C346 1.375 . S
C345 C348 1.481 . S
C346 C345 1.375 . S
C346 C347 1.367 . S
C346 H360 0.951 . S
C347 C343 1.383 . S
C347 C346 1.367 . S
C347 H361 0.950 . S
C348 C345 1.481 . S
C348 C349 1.297 1_545 S
C348 H362 0.950 1_455 S
C349 C348 1.297 1_565 S
C349 C350 1.479 1_455 S
C349 H363 0.950 1_554 S
C350 C349 1.479 1_655 S
C350 C351 1.375 1_554 S
C350 C356 1.404 . S
C351 C350 1.375 1_556 S
C351 C352 1.369 . S
C351 H364 0.950 . S
C352 C351 1.369 . S
C352 C353 1.392 1_556 S
C352 H365 0.951 . S
C353 C352 1.392 1_554 S
C353 C355 1.384 . S
H354 C356 0.949 . S
C355 C353 1.384 . S
C355 C356 1.385 . S
C355 H357 0.950 . S
C356 C350 1.404 . S
C356 H354 0.949 . S
C356 C355 1.385 . S
H357 C355 0.950 . S
H358 C342 0.951 . S
H359 C344 0.949 . S
H360 C346 0.951 . S
H361 C347 0.950 . S
H362 C348 0.950 1_655 S
H363 C349 0.950 1_556 S
H364 C351 0.950 . S
H365 C352 0.951 . S
C366 C367 1.386 . S
C366 C368 1.383 . S
C366 H382 0.951 . S
C367 C366 1.386 . S
C367 C371 1.383 . S
C368 C366 1.383 . S
C368 C369 1.402 . S
C368 H383 0.951 . S
C369 C368 1.402 . S
C369 C370 1.375 . S
C369 C372 1.481 . S
C370 C369 1.375 . S
C370 C371 1.367 . S
C370 H384 0.951 . S
C371 C367 1.383 . S
C371 C370 1.367 . S
C371 H385 0.950 . S
C372 C369 1.481 . S
C372 C373 1.297 1_455 S
C372 H386 0.950 1_565 S
C373 C372 1.297 1_655 S
C373 C374 1.479 1_565 S
C373 H387 0.950 . S
C374 C373 1.479 1_545 S
C374 C375 1.375 . S
C374 C380 1.404 . S
C375 C374 1.375 . S
C375 C376 1.369 . S
C375 H388 0.950 1_545 S
C376 C375 1.369 . S
C376 C377 1.392 . S
C376 H389 0.951 . S
C377 C376 1.392 . S
C377 C379 1.384 . S
H378 C380 0.949 . S
C379 C377 1.384 . S
C379 C380 1.385 . S
C379 H381 0.950 . S
C380 C374 1.404 . S
C380 H378 0.949 . S
C380 C379 1.385 . S
H381 C379 0.950 . S
H382 C366 0.951 . S
H383 C368 0.951 . S
H384 C370 0.951 . S
H385 C371 0.950 . S
H386 C372 0.950 1_545 S
H387 C373 0.950 . S
H388 C375 0.950 1_565 S
H389 C376 0.951 . S
C390 C391 1.386 . S
C390 C392 1.383 . S
C390 H406 0.951 . S
C391 C390 1.386 . S
C391 C395 1.383 . S
C392 C390 1.383 . S
C392 C393 1.402 . S
C392 H407 0.951 1_545 S
C393 C392 1.402 . S
C393 C394 1.375 . S
C393 C396 1.481 . S
C394 C393 1.375 . S
C394 C395 1.367 . S
C394 H408 0.951 . S
C395 C391 1.383 . S
C395 C394 1.367 . S
C395 H409 0.950 . S
C396 C393 1.481 . S
C396 C397 1.297 1_445 S
C396 H410 0.950 . S
C397 C396 1.297 1_665 S
C397 C398 1.479 . S
C397 H411 0.950 . S
C398 C397 1.479 . S
C398 C399 1.375 . S
C398 C404 1.404 . S
C399 C398 1.375 . S
C399 C400 1.369 . S
C399 H412 0.950 . S
C400 C399 1.369 . S
C400 C401 1.392 . S
C400 H413 0.951 . S
C401 C400 1.392 . S
C401 C403 1.384 . S
H402 C404 0.949 1_545 S
C403 C401 1.384 . S
C403 C404 1.385 . S
C403 H405 0.950 . S
C404 C398 1.404 . S
C404 H402 0.949 1_565 S
C404 C403 1.385 . S
H405 C403 0.950 . S
H406 C390 0.951 . S
H407 C392 0.951 1_565 S
H408 C394 0.951 . S
H409 C395 0.950 . S
H410 C396 0.950 . S
H411 C397 0.950 . S
H412 C399 0.950 . S
H413 C400 0.951 . S
C414 C415 1.386 . S
C414 C416 1.383 . S
C414 H430 0.951 . S
C415 C414 1.386 . S
C415 C419 1.383 . S
C416 C414 1.383 . S
C416 C417 1.402 . S
C416 H431 0.951 . S
C417 C416 1.402 . S
C417 C418 1.375 . S
C417 C420 1.481 . S
C418 C417 1.375 . S
C418 C419 1.367 . S
C418 H432 0.951 . S
C419 C415 1.383 . S
C419 C418 1.367 . S
C419 H433 0.950 . S
C420 C417 1.481 . S
C420 C421 1.297 . S
C420 H434 0.950 . S
C421 C420 1.297 . S
C421 C422 1.479 . S
C421 H435 0.950 . S
C422 C421 1.479 . S
C422 C423 1.375 . S
C422 C428 1.404 . S
C423 C422 1.375 . S
C423 C424 1.369 . S
C423 H436 0.950 . S
C424 C423 1.369 . S
C424 C425 1.392 . S
C424 H437 0.951 . S
C425 C424 1.392 . S
C425 C427 1.384 . S
H426 C428 0.949 . S
C427 C425 1.384 . S
C427 C428 1.385 . S
C427 H429 0.950 . S
C428 C422 1.404 . S
C428 H426 0.949 . S
C428 C427 1.385 . S
H429 C427 0.950 . S
H430 C414 0.951 . S
H431 C416 0.951 . S
H432 C418 0.951 . S
H433 C419 0.950 . S
H434 C420 0.950 . S
H435 C421 0.950 . S
H436 C423 0.950 . S
H437 C424 0.951 . S
C438 C439 1.386 . S
C438 C440 1.383 . S
C438 H454 0.951 . S
C439 C438 1.386 . S
C439 C443 1.383 . S
C440 C438 1.383 . S
C440 C441 1.402 . S
C440 H455 0.951 . S
C441 C440 1.402 . S
C441 C442 1.375 . S
C441 C444 1.481 . S
C442 C441 1.375 . S
C442 C443 1.367 . S
C442 H456 0.951 . S
C443 C439 1.383 . S
C443 C442 1.367 . S
C443 H457 0.950 . S
C444 C441 1.481 . S
C444 C445 1.297 1_455 S
C444 H458 0.950 . S
C445 C444 1.297 1_655 S
C445 C446 1.479 . S
C445 H459 0.950 . S
C446 C445 1.479 . S
C446 C447 1.375 . S
C446 C452 1.404 . S
C447 C446 1.375 . S
C447 C448 1.369 . S
C447 H460 0.950 . S
C448 C447 1.369 . S
C448 C449 1.392 . S
C448 H461 0.951 . S
C449 C448 1.392 . S
C449 C451 1.384 . S
H450 C452 0.949 1_455 S
C451 C449 1.384 . S
C451 C452 1.385 . S
C451 H453 0.950 . S
C452 C446 1.404 . S
C452 H450 0.949 1_655 S
C452 C451 1.385 . S
H453 C451 0.950 . S
H454 C438 0.951 . S
H455 C440 0.951 . S
H456 C442 0.951 . S
H457 C443 0.950 . S
H458 C444 0.950 . S
H459 C445 0.950 . S
H460 C447 0.950 . S
H461 C448 0.951 . S
C462 C463 1.386 . S
C462 C464 1.383 . S
C462 H478 0.951 . S
C463 C462 1.386 . S
C463 C467 1.383 . S
C464 C462 1.383 . S
C464 C465 1.402 . S
C464 H479 0.951 . S
C465 C464 1.402 . S
C465 C466 1.375 . S
C465 C468 1.481 . S
C466 C465 1.375 . S
C466 C467 1.367 . S
C466 H480 0.951 . S
C467 C463 1.383 . S
C467 C466 1.367 . S
C467 H481 0.950 . S
C468 C465 1.481 . S
C468 C469 1.297 . S
C468 H482 0.950 . S
C469 C468 1.297 . S
C469 C470 1.479 1_545 S
C469 H483 0.950 . S
C470 C469 1.479 1_565 S
C470 C471 1.375 . S
C470 C476 1.404 1_565 S
C471 C470 1.375 . S
C471 C472 1.369 . S
C471 H484 0.950 . S
C472 C471 1.369 . S
C472 C473 1.392 . S
C472 H485 0.951 . S
C473 C472 1.392 . S
C473 C475 1.384 . S
H474 C476 0.949 . S
C475 C473 1.384 . S
C475 C476 1.385 1_565 S
C475 H477 0.950 . S
C476 C470 1.404 1_545 S
C476 H474 0.949 . S
C476 C475 1.385 1_545 S
H477 C475 0.950 . S
H478 C462 0.951 . S
H479 C464 0.951 . S
H480 C466 0.951 . S
H481 C467 0.950 . S
H482 C468 0.950 . S
H483 C469 0.950 . S
H484 C471 0.950 . S
H485 C472 0.951 . S
C486 C487 1.386 . S
C486 C488 1.383 . S
C486 H502 0.951 . S
C487 C486 1.386 . S
C487 C491 1.383 . S
C488 C486 1.383 . S
C488 C489 1.402 . S
C488 H503 0.951 . S
C489 C488 1.402 . S
C489 C490 1.375 . S
C489 C492 1.481 . S
C490 C489 1.375 . S
C490 C491 1.367 . S
C490 H504 0.951 . S
C491 C487 1.383 . S
C491 C490 1.367 . S
C491 H505 0.950 . S
C492 C489 1.481 . S
C492 C493 1.297 . S
C492 H506 0.950 . S
C493 C492 1.297 . S
C493 C494 1.479 . S
C493 H507 0.950 . S
C494 C493 1.479 . S
C494 C495 1.375 . S
C494 C500 1.404 . S
C495 C494 1.375 . S
C495 C496 1.369 . S
C495 H508 0.950 . S
C496 C495 1.369 . S
C496 C497 1.392 . S
C496 H509 0.951 . S
C497 C496 1.392 . S
C497 C499 1.384 . S
H498 C500 0.949 . S
C499 C497 1.384 . S
C499 C500 1.385 . S
C499 H501 0.950 . S
C500 C494 1.404 . S
C500 H498 0.949 . S
C500 C499 1.385 . S
H501 C499 0.950 . S
H502 C486 0.951 . S
H503 C488 0.951 . S
H504 C490 0.951 . S
H505 C491 0.950 . S
H506 C492 0.950 . S
H507 C493 0.950 . S
H508 C495 0.950 . S
H509 C496 0.951 . S
C510 C511 1.386 . S
C510 C512 1.383 . S
C510 H526 0.951 . S
C511 C510 1.386 . S
C511 C515 1.383 . S
C512 C510 1.383 . S
C512 C513 1.402 . S
C512 H527 0.951 . S
C513 C512 1.402 . S
C513 C514 1.375 . S
C513 C516 1.481 . S
C514 C513 1.375 . S
C514 C515 1.367 . S
C514 H528 0.951 . S
C515 C511 1.383 . S
C515 C514 1.367 . S
C515 H529 0.950 . S
C516 C513 1.481 . S
C516 C517 1.297 . S
C516 H530 0.950 1_655 S
C517 C516 1.297 . S
C517 C518 1.479 . S
C517 H531 0.950 . S
C518 C517 1.479 . S
C518 C519 1.375 . S
C518 C524 1.404 1_655 S
C519 C518 1.375 . S
C519 C520 1.369 1_655 S
C519 H532 0.950 . S
C520 C519 1.369 1_455 S
C520 C521 1.392 . S
C520 H533 0.951 . S
C521 C520 1.392 . S
C521 C523 1.384 . S
H522 C524 0.949 . S
C523 C521 1.384 . S
C523 C524 1.385 . S
C523 H525 0.950 . S
C524 C518 1.404 1_455 S
C524 H522 0.949 . S
C524 C523 1.385 . S
H525 C523 0.950 . S
H526 C510 0.951 . S
H527 C512 0.951 . S
H528 C514 0.951 . S
H529 C515 0.950 . S
H530 C516 0.950 1_455 S
H531 C517 0.950 . S
H532 C519 0.950 . S
H533 C520 0.951 . S
C534 C535 1.386 . S
C534 C536 1.383 . S
C534 H550 0.951 . S
C535 C534 1.386 . S
C535 C539 1.383 . S
C536 C534 1.383 . S
C536 C537 1.402 . S
C536 H551 0.951 . S
C537 C536 1.402 . S
C537 C538 1.375 . S
C537 C540 1.481 1_545 S
C538 C537 1.375 . S
C538 C539 1.367 . S
C538 H552 0.951 1_545 S
C539 C535 1.383 . S
C539 C538 1.367 . S
C539 H553 0.950 . S
C540 C537 1.481 1_565 S
C540 C541 1.297 . S
C540 H554 0.950 . S
C541 C540 1.297 . S
C541 C542 1.479 . S
C541 H555 0.950 1_565 S
C542 C541 1.479 . S
C542 C543 1.375 . S
C542 C548 1.404 . S
C543 C542 1.375 . S
C543 C544 1.369 . S
C543 H556 0.950 . S
C544 C543 1.369 . S
C544 C545 1.392 . S
C544 H557 0.951 . S
C545 C544 1.392 . S
C545 C547 1.384 . S
H546 C548 0.949 . S
C547 C545 1.384 . S
C547 C548 1.385 . S
C547 H549 0.950 . S
C548 C542 1.404 . S
C548 H546 0.949 . S
C548 C547 1.385 . S
H549 C547 0.950 . S
H550 C534 0.951 . S
H551 C536 0.951 . S
H552 C538 0.951 1_565 S
H553 C539 0.950 . S
H554 C540 0.950 . S
H555 C541 0.950 1_545 S
H556 C543 0.950 . S
H557 C544 0.951 . S
C199 C18 1.630 . S
C209 C117 1.610 . S
C223 C51 1.629 . S
C233 C150 1.634 . S
C247 C183 1.621 . S
C257 C84 1.598 . S
C271 C87 0.888 . S
C281 C186 0.887 . S
C295 C120 0.871 . S
C305 C21 0.884 . S
C319 C153 0.876 . S
C329 C54 0.891 . S
C343 C7 0.577 . S
C353 C106 0.581 . S
C367 C139 0.577 . S
C377 C40 0.579 . S
C391 C172 0.582 . S
C401 C73 0.577 . S
C415 N13 1.685 . S
C425 N167 1.765 . S
C439 N2 1.768 . S
C449 N46 1.617 . S
C463 N35 1.754 . S
C473 N79 1.594 . S
C487 N68 1.759 . S
C497 N112 1.698 . S
C511 N101 1.753 . S
C521 N145 1.669 . S
C535 N178 1.686 . S
C545 N134 1.750 . S
