# Generated by pormake.
# Topology xfh, (7)-cn, num edge types: 1
# Building blocks:
#     Node 0, Type 0, BuildingBlock: NUHQUE_clean_sbu_2, # of connection points: 7
#     Node 1, Type 0, BuildingBlock: NUHQUE_clean_sbu_2, # of connection points: 7
#     Node 2, Type 0, BuildingBlock: NUHQUE_clean_sbu_2, # of connection points: 7
#     Node 3, Type 0, BuildingBlock: NUHQUE_clean_sbu_2, # of connection points: 7
#     Node 4, Type 0, BuildingBlock: NUHQUE_clean_sbu_2, # of connection points: 7
#     Node 5, Type 0, BuildingBlock: NUHQUE_clean_sbu_2, # of connection points: 7
#     Node 6, Type 0, BuildingBlock: NUHQUE_clean_sbu_2, # of connection points: 7
#     Node 7, Type 0, BuildingBlock: NUHQUE_clean_sbu_2, # of connection points: 7
#     Node 8, Type 0, BuildingBlock: NUHQUE_clean_sbu_2, # of connection points: 7
#     Node 9, Type 0, BuildingBlock: NUHQUE_clean_sbu_2, # of connection points: 7
#     Node 10, Type 0, BuildingBlock: NUHQUE_clean_sbu_2, # of connection points: 7
#     Node 11, Type 0, BuildingBlock: NUHQUE_clean_sbu_2, # of connection points: 7
#     Node 12, Type 0, BuildingBlock: NUHQUE_clean_sbu_2, # of connection points: 7
#     Node 13, Type 0, BuildingBlock: NUHQUE_clean_sbu_2, # of connection points: 7
#     Node 14, Type 0, BuildingBlock: NUHQUE_clean_sbu_2, # of connection points: 7
#     Node 15, Type 0, BuildingBlock: NUHQUE_clean_sbu_2, # of connection points: 7
#     Edge 16, Type (0, 0), BuildingBlock: XUDNAN_clean_linker_2, # of connection points: 2
#     Edge 17, Type (0, 0), BuildingBlock: XUDNAN_clean_linker_2, # of connection points: 2
#     Edge 18, Type (0, 0), BuildingBlock: XUDNAN_clean_linker_2, # of connection points: 2
#     Edge 19, Type (0, 0), BuildingBlock: XUDNAN_clean_linker_2, # of connection points: 2
#     Edge 20, Type (0, 0), BuildingBlock: XUDNAN_clean_linker_2, # of connection points: 2
#     Edge 21, Type (0, 0), BuildingBlock: XUDNAN_clean_linker_2, # of connection points: 2
#     Edge 22, Type (0, 0), BuildingBlock: XUDNAN_clean_linker_2, # of connection points: 2
#     Edge 23, Type (0, 0), BuildingBlock: XUDNAN_clean_linker_2, # of connection points: 2
#     Edge 24, Type (0, 0), BuildingBlock: XUDNAN_clean_linker_2, # of connection points: 2
#     Edge 25, Type (0, 0), BuildingBlock: XUDNAN_clean_linker_2, # of connection points: 2
#     Edge 26, Type (0, 0), BuildingBlock: XUDNAN_clean_linker_2, # of connection points: 2
#     Edge 27, Type (0, 0), BuildingBlock: XUDNAN_clean_linker_2, # of connection points: 2
#     Edge 28, Type (0, 0), BuildingBlock: XUDNAN_clean_linker_2, # of connection points: 2
#     Edge 29, Type (0, 0), BuildingBlock: XUDNAN_clean_linker_2, # of connection points: 2
#     Edge 30, Type (0, 0), BuildingBlock: XUDNAN_clean_linker_2, # of connection points: 2
#     Edge 31, Type (0, 0), BuildingBlock: XUDNAN_clean_linker_2, # of connection points: 2
#     Edge 32, Type (0, 0), BuildingBlock: XUDNAN_clean_linker_2, # of connection points: 2
#     Edge 33, Type (0, 0), BuildingBlock: XUDNAN_clean_linker_2, # of connection points: 2
#     Edge 34, Type (0, 0), BuildingBlock: XUDNAN_clean_linker_2, # of connection points: 2
#     Edge 35, Type (0, 0), BuildingBlock: XUDNAN_clean_linker_2, # of connection points: 2
#     Edge 36, Type (0, 0), BuildingBlock: XUDNAN_clean_linker_2, # of connection points: 2
#     Edge 37, Type (0, 0), BuildingBlock: XUDNAN_clean_linker_2, # of connection points: 2
#     Edge 38, Type (0, 0), BuildingBlock: XUDNAN_clean_linker_2, # of connection points: 2
#     Edge 39, Type (0, 0), BuildingBlock: XUDNAN_clean_linker_2, # of connection points: 2
#     Edge 40, Type (0, 0), BuildingBlock: XUDNAN_clean_linker_2, # of connection points: 2
#     Edge 41, Type (0, 0), BuildingBlock: XUDNAN_clean_linker_2, # of connection points: 2
#     Edge 42, Type (0, 0), BuildingBlock: XUDNAN_clean_linker_2, # of connection points: 2
#     Edge 43, Type (0, 0), BuildingBlock: XUDNAN_clean_linker_2, # of connection points: 2
#     Edge 44, Type (0, 0), BuildingBlock: XUDNAN_clean_linker_2, # of connection points: 2
#     Edge 45, Type (0, 0), BuildingBlock: XUDNAN_clean_linker_2, # of connection points: 2
#     Edge 46, Type (0, 0), BuildingBlock: XUDNAN_clean_linker_2, # of connection points: 2
#     Edge 47, Type (0, 0), BuildingBlock: XUDNAN_clean_linker_2, # of connection points: 2
#     Edge 48, Type (0, 0), BuildingBlock: XUDNAN_clean_linker_2, # of connection points: 2
#     Edge 49, Type (0, 0), BuildingBlock: XUDNAN_clean_linker_2, # of connection points: 2
#     Edge 50, Type (0, 0), BuildingBlock: XUDNAN_clean_linker_2, # of connection points: 2
#     Edge 51, Type (0, 0), BuildingBlock: XUDNAN_clean_linker_2, # of connection points: 2
#     Edge 52, Type (0, 0), BuildingBlock: XUDNAN_clean_linker_2, # of connection points: 2
#     Edge 53, Type (0, 0), BuildingBlock: XUDNAN_clean_linker_2, # of connection points: 2
#     Edge 54, Type (0, 0), BuildingBlock: XUDNAN_clean_linker_2, # of connection points: 2
#     Edge 55, Type (0, 0), BuildingBlock: XUDNAN_clean_linker_2, # of connection points: 2
#     Edge 56, Type (0, 0), BuildingBlock: XUDNAN_clean_linker_2, # of connection points: 2
#     Edge 57, Type (0, 0), BuildingBlock: XUDNAN_clean_linker_2, # of connection points: 2
#     Edge 58, Type (0, 0), BuildingBlock: XUDNAN_clean_linker_2, # of connection points: 2
#     Edge 59, Type (0, 0), BuildingBlock: XUDNAN_clean_linker_2, # of connection points: 2
#     Edge 60, Type (0, 0), BuildingBlock: XUDNAN_clean_linker_2, # of connection points: 2
#     Edge 61, Type (0, 0), BuildingBlock: XUDNAN_clean_linker_2, # of connection points: 2
#     Edge 62, Type (0, 0), BuildingBlock: XUDNAN_clean_linker_2, # of connection points: 2
#     Edge 63, Type (0, 0), BuildingBlock: XUDNAN_clean_linker_2, # of connection points: 2
#     Edge 64, Type (0, 0), BuildingBlock: XUDNAN_clean_linker_2, # of connection points: 2
#     Edge 65, Type (0, 0), BuildingBlock: XUDNAN_clean_linker_2, # of connection points: 2
#     Edge 66, Type (0, 0), BuildingBlock: XUDNAN_clean_linker_2, # of connection points: 2
#     Edge 67, Type (0, 0), BuildingBlock: XUDNAN_clean_linker_2, # of connection points: 2
#     Edge 68, Type (0, 0), BuildingBlock: XUDNAN_clean_linker_2, # of connection points: 2
#     Edge 69, Type (0, 0), BuildingBlock: XUDNAN_clean_linker_2, # of connection points: 2
#     Edge 70, Type (0, 0), BuildingBlock: XUDNAN_clean_linker_2, # of connection points: 2
#     Edge 71, Type (0, 0), BuildingBlock: XUDNAN_clean_linker_2, # of connection points: 2
# Relax obj value: 0.263
# Max RMSD: 0.279
# Mean RMSD: 0.266
data_MOF--net-xfh--node1-NUHQUE_clean_sbu_2--edge1-XUDNAN_clean_linker_2
_symmetry_space_group_name_H-M    P1
_symmetry_Int_Tables_number       1
_symmetry_cell_setting            triclinic
loop_
_symmetry_equiv_pos_as_xyz
'x, y, z'
_cell_length_a     34.923524
_cell_length_b     34.074267
_cell_length_c     69.295257
_cell_angle_alpha  90.140439
_cell_angle_beta   89.789218
_cell_angle_gamma 90.012677
loop_
_atom_site_label
_atom_site_type_symbol
_atom_site_fract_x
_atom_site_fract_y
_atom_site_fract_z
_atom_type_partial_charge
O0 O 0.24931 0.06108 0.06925 0.0
Tb1 Tb 0.24159 0.0563 0.10011 0.0
Eu2 Eu 0.31564 0.06039 0.135 0.0
C3 C 0.27899 0.04542 0.06045 0.0
O4 O 0.3057 0.02798 0.07058 0.0
C5 C 0.26612 0.13388 0.12111 0.0
O6 O 0.33209 0.0498 0.16588 0.0
C7 C 0.37632 0.0664 0.11322 0.0
C8 C 0.31389 0.06832 0.17982 0.0
O9 O 0.2877 0.09438 0.17535 0.0
C10 C 0.27684 0.98227 0.11931 0.0
C11 C 0.41176 0.04621 0.10637 0.0
C12 C 0.41566 0.03669 0.08661 0.0
C13 C 0.45011 0.02099 0.07952 0.0
C14 C 0.48079 0.01531 0.09202 0.0
C15 C 0.47805 0.02442 0.11171 0.0
C16 C 0.44331 0.04002 0.11885 0.0
O17 O 0.26093 0.11633 0.10442 0.0
O18 O 0.27884 0.11478 0.13624 0.0
O19 O 0.18428 0.04538 0.0893 0.0
O20 O 0.19137 0.05201 0.11957 0.0
C21 C 0.16665 0.04518 0.10584 0.0
O22 O 0.28866 1.00053 0.13487 0.0
O23 O 0.2713 1.00081 0.10304 0.0
O24 O 0.37499 0.07799 0.13134 0.0
O25 O 0.34299 0.05407 0.10669 0.0
H26 H 0.39228 0.0421 0.07671 0.0
H27 H 0.50768 1.00498 0.086 0.0
H28 H 0.44108 0.04772 0.13398 0.0
O29 O 0.71234 0.67207 0.38141 0.0
Tb30 Tb 0.71857 0.60793 0.38261 0.0
Eu31 Eu 0.72317 0.5122 0.35892 0.0
C32 C 0.74045 0.69667 0.37724 0.0
O33 O 0.7739 0.68265 0.37191 0.0
C34 C 0.79124 0.56001 0.37508 0.0
O35 O 0.72931 0.44565 0.3629 0.0
C36 C 0.7393 0.53782 0.32441 0.0
C37 C 0.72592 0.43129 0.38051 0.0
O38 O 0.71937 0.45635 0.3946 0.0
C39 C 0.64559 0.56004 0.36877 0.0
C40 C 0.72546 0.55463 0.30595 0.0
C41 C 0.73491 0.59389 0.3012 0.0
C42 C 0.72633 0.60895 0.28286 0.0
C43 C 0.70738 0.58516 0.26953 0.0
C44 C 0.69862 0.54611 0.27376 0.0
C45 C 0.70778 0.5307 0.29192 0.0
O46 O 0.77475 0.59365 0.37079 0.0
O47 O 0.77037 0.52894 0.379 0.0
O48 O 0.72383 0.6234 0.41304 0.0
O49 O 0.71146 0.56424 0.40558 0.0
C50 C 0.7174 0.58851 0.41981 0.0
O51 O 0.66297 0.52573 0.36808 0.0
O52 O 0.66354 0.59426 0.36915 0.0
O53 O 0.7325 0.50064 0.32827 0.0
O54 O 0.73807 0.56043 0.33975 0.0
H55 H 0.75064 0.61197 0.31134 0.0
H56 H 0.70163 0.59645 0.25518 0.0
H57 H 0.70217 0.49999 0.29481 0.0
O58 O 0.30954 0.94735 0.55856 0.0
Tb59 Tb 0.30666 0.96465 0.58877 0.0
Eu60 Eu 0.19829 0.94779 0.60057 0.0
C61 C 0.27771 0.94126 0.54891 0.0
O62 O 0.24493 0.94259 0.55824 0.0
C63 C 0.26655 0.88902 0.60385 0.0
O64 O 0.1832 0.94249 0.63204 0.0
C65 C 0.13545 0.94951 0.5807 0.0
C66 C 0.21038 0.94478 0.64505 0.0
O67 O 0.24603 0.94865 0.63927 0.0
C68 C 0.24636 0.02839 0.59672 0.0
C69 C 0.09821 0.97024 0.57927 0.0
C70 C 0.08751 0.98669 0.56144 0.0
C71 C 0.05126 1.0039 0.55915 0.0
C72 C 0.02566 1.00406 0.5747 0.0
C73 C 0.03483 0.98619 0.59227 0.0
C74 C 0.07157 0.97016 0.59472 0.0
O75 O 0.29113 0.91692 0.60772 0.0
O76 O 0.23594 0.89584 0.59348 0.0
O77 O 0.36939 0.96564 0.58831 0.0
O78 O 0.33988 1.00024 0.60908 0.0
C79 C 0.37352 0.98922 0.60298 0.0
O80 O 0.22136 1.00838 0.60701 0.0
O81 O 0.26666 0.0117 0.58305 0.0
O82 O 0.14055 0.92692 0.59583 0.0
O83 O 0.16663 0.96852 0.57538 0.0
H84 H 0.10708 0.98552 0.54927 0.0
H85 H 0.99734 0.01652 0.57278 0.0
H86 H 0.0786 0.95611 0.60827 0.0
O87 O 0.80361 0.53005 0.83623 0.0
Tb88 Tb 0.80879 0.55083 0.86601 0.0
Eu89 Eu 0.80607 0.45501 0.86305 0.0
C90 C 0.82771 0.53994 0.82237 0.0
O91 O 0.85831 0.56059 0.82663 0.0
C92 C 0.88246 0.505 0.87164 0.0
O93 O 0.79019 0.45176 0.89488 0.0
C94 C 0.80564 0.38768 0.84572 0.0
C95 C 0.81452 0.45407 0.90936 0.0
O96 O 0.85124 0.45812 0.90577 0.0
C97 C 0.73316 0.50781 0.86481 0.0
C98 C 0.7781 0.3616 0.83584 0.0
C99 C 0.77161 0.36567 0.81584 0.0
C100 C 0.74799 0.33901 0.80601 0.0
C101 C 0.72803 0.31095 0.81673 0.0
C102 C 0.73941 0.30217 0.83556 0.0
C103 C 0.763 0.3287 0.84547 0.0
O104 O 0.86123 0.53205 0.87982 0.0
O105 O 0.86671 0.47778 0.86083 0.0
O106 O 0.82094 0.60813 0.85349 0.0
O107 O 0.79227 0.60512 0.88058 0.0
C108 C 0.80561 0.62844 0.86738 0.0
O109 O 0.75085 0.48291 0.85342 0.0
O110 O 0.75343 0.53052 0.87614 0.0
O111 O 0.80284 0.39117 0.8646 0.0
O112 O 0.8135 0.42094 0.83699 0.0
H113 H 0.78713 0.38758 0.80761 0.0
H114 H 0.70954 0.29027 0.80935 0.0
H115 H 0.77223 0.32203 0.86002 0.0
O116 O 0.79215 0.97216 0.93812 0.0
Tb117 Tb 0.81275 0.98103 0.90892 0.0
Eu118 Eu 0.7105 0.97126 0.90325 0.0
C119 C 0.79645 0.93714 0.94574 0.0
O120 O 0.81054 0.90879 0.93498 0.0
C121 C 0.77209 0.90765 0.89451 0.0
O122 O 0.7131 0.96635 0.87064 0.0
C123 C 0.64194 0.96492 0.91747 0.0
C124 C 0.69859 0.99239 0.85868 0.0
O125 O 0.68057 0.02316 0.86567 0.0
C126 C 0.75827 0.04785 0.89732 0.0
C127 C 0.61034 0.98977 0.92503 0.0
C128 C 0.59977 0.98736 0.94465 0.0
C129 C 0.56826 1.00876 0.95182 0.0
C130 C 0.54773 0.03293 0.93923 0.0
C131 C 0.55695 0.03454 0.91958 0.0
C132 C 0.58829 0.01311 0.91252 0.0
O133 O 0.79543 0.93565 0.88916 0.0
O134 O 0.74373 0.91498 0.9065 0.0
O135 O 0.86813 0.95209 0.90694 0.0
O136 O 0.86649 0.0143 0.90937 0.0
C137 C 0.88871 0.98383 0.90764 0.0
O138 O 0.73221 0.03255 0.90871 0.0
O139 O 0.78922 0.02845 0.89255 0.0
O140 O 0.64922 0.9667 0.89883 0.0
O141 O 0.67303 0.96219 0.92809 0.0
H142 H 0.61545 0.96813 0.95424 0.0
H143 H 0.52223 0.0479 0.94437 0.0
H144 H 0.59448 0.01372 0.89718 0.0
O145 O 0.30848 0.52298 0.67778 0.0
Tb146 Tb 0.31856 0.54122 0.64813 0.0
Eu147 Eu 0.32599 0.44874 0.65546 0.0
C148 C 0.32998 0.53461 0.69227 0.0
O149 O 0.35992 0.55693 0.68888 0.0
C150 C 0.39693 0.50404 0.65095 0.0
O151 O 0.33361 0.45441 0.62316 0.0
C152 C 0.33242 0.37715 0.66762 0.0
C153 C 0.30737 0.44371 0.6106 0.0
O154 O 0.275 0.42861 0.6168 0.0
C155 C 0.2469 0.49037 0.64729 0.0
C156 C 0.30996 0.34133 0.67196 0.0
C157 C 0.30215 0.33074 0.69124 0.0
C158 C 0.28418 0.29487 0.69543 0.0
C159 C 0.27525 0.26914 0.68028 0.0
C160 C 0.28317 0.27883 0.66102 0.0
C161 C 0.29986 0.31539 0.65698 0.0
O162 O 0.37563 0.52422 0.63899 0.0
O163 O 0.38024 0.48088 0.66358 0.0
O164 O 0.32128 0.60087 0.65958 0.0
O165 O 0.30349 0.592 0.63056 0.0
C166 C 0.30972 0.61804 0.64392 0.0
O167 O 0.2642 0.46692 0.65952 0.0
O168 O 0.26722 0.51445 0.6366 0.0
O169 O 0.33605 0.38723 0.64938 0.0
O170 O 0.32859 0.40735 0.67934 0.0
H171 H 0.31049 0.35001 0.70296 0.0
H172 H 0.26403 0.24033 0.68374 0.0
H173 H 0.30604 0.32311 0.64214 0.0
O174 O 0.71949 0.064 0.44238 0.0
Tb175 Tb 0.72175 0.06191 0.41119 0.0
Eu176 Eu 0.79604 0.06571 0.37828 0.0
C177 C 0.70493 0.09435 0.45153 0.0
O178 O 0.6908 0.12369 0.44157 0.0
C179 C 0.75291 0.14122 0.3947 0.0
O180 O 0.80895 0.06703 0.34669 0.0
C181 C 0.86058 0.06998 0.39694 0.0
C182 C 0.81852 0.03529 0.33707 0.0
O183 O 0.82018 1.00133 0.34595 0.0
C184 C 0.7563 0.98575 0.39239 0.0
C185 C 0.89647 0.05085 0.4038 0.0
C186 C 0.90229 0.0464 0.42382 0.0
C187 C 0.93803 0.03434 0.43103 0.0
C188 C 0.96796 0.02683 0.41808 0.0
C189 C 0.96343 0.032 0.39823 0.0
C190 C 0.92746 0.04334 0.39101 0.0
O191 O 0.74724 0.12058 0.41051 0.0
O192 O 0.76353 0.12353 0.37867 0.0
O193 O 0.66038 0.05102 0.41455 0.0
O194 O 0.6811 0.07201 0.38757 0.0
C195 C 0.65067 0.06122 0.39718 0.0
O196 O 0.77004 1.00458 0.37733 0.0
O197 O 0.74857 1.00435 0.40859 0.0
O198 O 0.85716 0.07659 0.37837 0.0
O199 O 0.82767 0.06228 0.40557 0.0
H200 H 0.87946 0.0537 0.43384 0.0
H201 H 0.99601 0.01902 0.42358 0.0
H202 H 0.92439 0.04838 0.37566 0.0
O203 O 0.20198 0.46592 0.20558 0.0
Tb204 Tb 0.20516 0.47734 0.17464 0.0
Eu205 Eu 0.1998 0.5491 0.13846 0.0
C206 C 0.19655 0.49345 0.21867 0.0
O207 O 0.19318 0.53014 0.21315 0.0
C208 C 0.1289 0.49992 0.15379 0.0
O209 O 0.20815 0.56234 0.10674 0.0
C210 C 0.1965 0.61088 0.16051 0.0
C211 C 0.21766 0.53224 0.09579 0.0
O212 O 0.22105 0.49766 0.10396 0.0
C213 C 0.27615 0.5121 0.15478 0.0
C214 C 0.21866 0.64627 0.16633 0.0
C215 C 0.23105 0.65082 0.18564 0.0
C216 C 0.24932 0.68565 0.19145 0.0
C217 C 0.25395 0.71608 0.17823 0.0
C218 C 0.24257 0.71226 0.15897 0.0
C219 C 0.22501 0.67709 0.15307 0.0
O220 O 0.14575 0.49684 0.17077 0.0
O221 O 0.14796 0.51086 0.13839 0.0
O222 O 0.21633 0.41437 0.17565 0.0
O223 O 0.20782 0.4412 0.14837 0.0
C224 C 0.21508 0.40827 0.15716 0.0
O225 O 0.25631 0.51894 0.13916 0.0
O226 O 0.25935 0.50925 0.17179 0.0
O227 O 0.18316 0.60977 0.14276 0.0
O228 O 0.20829 0.57647 0.16673 0.0
H229 H 0.22636 0.62761 0.19605 0.0
H230 H 0.26581 0.74359 0.18336 0.0
H231 H 0.21588 0.67399 0.13823 0.0
O232 O 0.72951 0.54783 0.57298 0.0
Tb233 Tb 0.73772 0.55416 0.60383 0.0
Eu234 Eu 0.81014 0.55424 0.63929 0.0
C235 C 0.73024 0.57795 0.5612 0.0
O236 O 0.7356 0.61337 0.5682 0.0
C237 C 0.76588 0.62956 0.6242 0.0
O238 O 0.81725 0.54722 0.67158 0.0
C239 C 0.87486 0.56441 0.62108 0.0
C240 C 0.78876 0.5318 0.68148 0.0
O241 O 0.75776 0.5212 0.67212 0.0
C242 C 0.77728 0.47788 0.61781 0.0
C243 C 0.9095 0.54585 0.61223 0.0
C244 C 0.91214 0.54166 0.59195 0.0
C245 C 0.94642 0.52892 0.58312 0.0
C246 C 0.97806 0.52072 0.59474 0.0
C247 C 0.9767 0.52582 0.61476 0.0
C248 C 0.94218 0.53766 0.62355 0.0
O249 O 0.76352 0.61179 0.60739 0.0
O250 O 0.77435 0.60964 0.63987 0.0
O251 O 0.67535 0.55887 0.60365 0.0
O252 O 0.70277 0.53791 0.629 0.0
C253 C 0.66978 0.5458 0.62107 0.0
O254 O 0.78679 0.49321 0.63457 0.0
O255 O 0.76977 0.49973 0.60272 0.0
O256 O 0.87164 0.56458 0.64001 0.0
O257 O 0.84173 0.56074 0.61221 0.0
H258 H 0.88792 0.54931 0.58298 0.0
H259 H 1.00491 0.51209 0.58806 0.0
H260 H 0.94151 0.54241 0.63902 0.0
O261 O 0.21595 0.15587 0.88703 0.0
Tb262 Tb 0.22524 0.09223 0.88561 0.0
Eu263 Eu 0.24013 1.00262 0.86387 0.0
C264 C 0.23843 0.18204 0.87869 0.0
O265 O 0.26602 0.17013 0.86717 0.0
C266 C 0.30551 0.06297 0.87249 0.0
O267 O 0.25081 0.93675 0.8632 0.0
C268 C 0.22808 0.03009 0.82976 0.0
C269 C 0.2404 0.91295 0.8773 0.0
O270 O 0.22426 0.92775 0.89285 0.0
C271 C 0.16155 0.03026 0.88109 0.0
C272 C 0.22115 0.04567 0.81024 0.0
C273 C 0.22792 0.08562 0.8061 0.0
C274 C 0.22347 0.09985 0.7872 0.0
C275 C 0.2122 0.07378 0.77258 0.0
C276 C 0.20562 0.03417 0.77651 0.0
C277 C 0.21006 0.02006 0.79531 0.0
O278 O 0.28004 0.09125 0.87021 0.0
O279 O 0.2951 0.02628 0.87515 0.0
O280 O 0.22365 0.10259 0.91665 0.0
O281 O 0.24624 0.04866 0.90617 0.0
C282 C 0.23891 0.06936 0.92151 0.0
O283 O 0.18833 1.00353 0.88266 0.0
O284 O 0.17037 0.06688 0.87671 0.0
O285 O 0.23515 0.99276 0.83289 0.0
O286 O 0.22649 0.05236 0.84526 0.0
H287 H 0.2373 0.10537 0.81742 0.0
H288 H 0.20997 0.08392 0.7578 0.0
H289 H 0.20557 0.98914 0.79818 0.0
O290 O 0.79837 0.45052 0.06008 0.0
Tb291 Tb 0.79836 0.44458 0.09148 0.0
Eu292 Eu 0.68789 0.44605 0.0978 0.0
C293 C 0.76748 0.44186 0.05011 0.0
O294 O 0.73666 0.43051 0.05948 0.0
C295 C 0.74762 0.36757 0.09908 0.0
O296 O 0.68039 0.46795 0.12821 0.0
C297 C 0.61966 0.43573 0.08383 0.0
C298 C 0.70095 0.45421 0.14254 0.0
O299 O 0.72881 0.42936 0.13889 0.0
C300 C 0.74547 0.51605 0.09405 0.0
C301 C 0.58298 0.4553 0.07901 0.0
C302 C 0.57178 0.45833 0.05959 0.0
C303 C 0.53507 0.47197 0.05476 0.0
C304 C 0.50963 0.48275 0.06951 0.0
C305 C 0.51942 0.47808 0.089 0.0
C306 C 0.55647 0.46527 0.09367 0.0
O307 O 0.78022 0.38368 0.09355 0.0
O308 O 0.71508 0.3866 0.10158 0.0
O309 O 0.85938 0.4606 0.09082 0.0
O310 O 0.83657 0.43271 0.11566 0.0
C311 C 0.86728 0.44771 0.10805 0.0
O312 O 0.71321 0.50266 0.08705 0.0
O313 O 0.76726 0.49305 0.10437 0.0
O314 O 0.62809 0.43259 0.1022 0.0
O315 O 0.64984 0.44196 0.07278 0.0
H316 H 0.5911 0.44879 0.04823 0.0
H317 H 0.48105 0.49246 0.06575 0.0
H318 H 0.5637 0.46074 0.10869 0.0
O319 O 0.29599 0.06259 0.3288 0.0
Tb320 Tb 0.29509 0.07137 0.35996 0.0
Eu321 Eu 0.31268 0.964 0.36321 0.0
C322 C 0.31491 0.03386 0.32046 0.0
O323 O 0.33264 1.00816 0.33117 0.0
C324 C 0.37524 0.03455 0.371 0.0
O325 O 0.29462 0.95493 0.3942 0.0
C326 C 0.32749 0.89719 0.3465 0.0
C327 C 0.3188 0.9591 0.4086 0.0
O328 O 0.35442 0.96898 0.40487 0.0
C329 C 0.23378 0.00895 0.36461 0.0
C330 C 0.31102 0.85869 0.34089 0.0
C331 C 0.3066 0.84895 0.32119 0.0
C332 C 0.29425 0.81122 0.31574 0.0
C333 C 0.28714 0.78324 0.32999 0.0
C334 C 0.29249 0.79186 0.34958 0.0
C335 C 0.30394 0.82977 0.35497 0.0
O336 O 0.3489 0.06113 0.37485 0.0
O337 O 0.36766 0.99943 0.364 0.0
O338 O 0.31147 0.13304 0.36329 0.0
O339 O 0.253 0.11778 0.36586 0.0
C340 C 0.27729 0.1466 0.36643 0.0
O341 O 0.2531 0.98302 0.35443 0.0
O342 O 0.25228 0.03584 0.37442 0.0
O343 O 0.33265 0.90395 0.365 0.0
O344 O 0.31654 0.92847 0.33691 0.0
H345 H 0.31362 0.87025 0.31013 0.0
H346 H 0.27996 0.75357 0.32559 0.0
H347 H 0.30828 0.83629 0.37012 0.0
O348 O 0.3331 0.47782 0.4567 0.0
Tb349 Tb 0.32157 0.48622 0.42618 0.0
Eu350 Eu 0.19834 0.46215 0.40441 0.0
C351 C 0.30538 0.46941 0.46893 0.0
O352 O 0.27034 0.46512 0.46242 0.0
C353 C 0.27693 0.41616 0.41404 0.0
O354 O 0.18581 0.44774 0.373 0.0
C355 C 0.1418 0.47056 0.42851 0.0
C356 C 0.179 0.47656 0.36075 0.0
O357 O 0.17518 0.51236 0.36756 0.0
C358 C 0.25567 0.53412 0.40713 0.0
C359 C 0.10124 0.48118 0.43047 0.0
C360 C 0.08621 0.48874 0.44905 0.0
C361 C 0.04862 0.5029 0.45129 0.0
C362 C 0.02612 0.50797 0.43482 0.0
C363 C 0.04086 0.50072 0.41636 0.0
C364 C 0.07855 0.48758 0.41408 0.0
O365 O 0.31251 0.42522 0.41802 0.0
O366 O 0.25141 0.44216 0.41935 0.0
O367 O 0.37376 0.52188 0.42473 0.0
O368 O 0.35419 0.49291 0.39945 0.0
C369 C 0.38085 0.51526 0.40656 0.0
O370 O 0.2253 0.52041 0.39808 0.0
O371 O 0.26704 0.51712 0.4232 0.0
O372 O 0.15042 0.43659 0.4204 0.0
O373 O 0.16466 0.49928 0.4233 0.0
H374 H 0.10421 0.4851 0.46163 0.0
H375 H 0.99682 0.51819 0.43631 0.0
H376 H 0.09023 0.48279 0.39975 0.0
O377 O 0.83428 0.04063 0.18413 0.0
Tb378 Tb 0.82033 0.02929 0.15444 0.0
Eu379 Eu 0.81663 0.93682 0.13001 0.0
C380 C 0.83283 0.01242 0.19692 0.0
O381 O 0.82403 0.97666 0.19136 0.0
C382 C 0.89325 0.99287 0.1337 0.0
O383 O 0.80342 0.91707 0.09989 0.0
C384 C 0.8205 0.87679 0.1531 0.0
C385 C 0.80169 0.94474 0.08674 0.0
O386 O 0.80683 0.98135 0.09216 0.0
C387 C 0.74564 0.98489 0.14502 0.0
C388 C 0.79952 0.84027 0.15837 0.0
C389 C 0.79402 0.8302 0.17796 0.0
C390 C 0.77984 0.79283 0.183 0.0
C391 C 0.77025 0.76617 0.16834 0.0
C392 C 0.77579 0.77536 0.14885 0.0
C393 C 0.78989 0.81265 0.14395 0.0
O394 O 0.87987 0.01372 0.14826 0.0
O395 O 0.87207 0.96801 0.12386 0.0
O396 O 0.80283 0.09018 0.15752 0.0
O397 O 0.80939 0.0666 0.12918 0.0
C398 C 0.80049 0.09778 0.13922 0.0
O399 O 0.7596 0.96689 0.12986 0.0
O400 O 0.76825 0.99536 0.15922 0.0
O401 O 0.8356 0.8777 0.1357 0.0
O402 O 0.80653 0.91096 0.15866 0.0
H403 H 0.8027 0.85044 0.18922 0.0
H404 H 0.76034 0.73706 0.17224 0.0
H405 H 0.79476 0.81946 0.12887 0.0
O406 O 0.23414 0.54602 0.94184 0.0
Tb407 Tb 0.22828 0.55117 0.91071 0.0
Eu408 Eu 0.2941 0.54429 0.87358 0.0
C409 C 0.21845 0.56929 0.95484 0.0
O410 O 0.19726 0.59906 0.94935 0.0
C411 C 0.25418 0.62298 0.88618 0.0
O412 O 0.3054 0.53387 0.84195 0.0
C413 C 0.35716 0.55484 0.89285 0.0
C414 C 0.27778 0.51883 0.83142 0.0
O415 O 0.24518 0.50985 0.83985 0.0
C416 C 0.25799 0.46979 0.89431 0.0
C417 C 0.39279 0.53595 0.90007 0.0
C418 C 0.39467 0.52091 0.91906 0.0
C419 C 0.42938 0.50612 0.92624 0.0
C420 C 0.46225 0.50735 0.91474 0.0
C421 C 0.46144 0.5232 0.89619 0.0
C422 C 0.42657 0.53687 0.88872 0.0
O423 O 0.25164 0.60954 0.90399 0.0
O424 O 0.25783 0.59844 0.87168 0.0
O425 O 0.16608 0.55598 0.91454 0.0
O426 O 0.1886 0.5358 0.88764 0.0
C427 C 0.15735 0.54344 0.8973 0.0
O428 O 0.26808 0.48468 0.87761 0.0
O429 O 0.25362 0.49217 0.90975 0.0
O430 O 0.35424 0.56015 0.87412 0.0
O431 O 0.32424 0.54619 0.90119 0.0
H432 H 0.36952 0.52097 0.92826 0.0
H433 H 0.48908 0.49639 0.92048 0.0
H434 H 0.42622 0.54958 0.8744 0.0
O435 O 0.715 0.97218 0.70371 0.0
Tb436 Tb 0.71224 0.9787 0.67243 0.0
Eu437 Eu 0.70698 0.04785 0.63588 0.0
C438 C 0.7048 0.9997 0.71609 0.0
O439 O 0.69211 0.03348 0.70961 0.0
C440 C 0.63717 1.00107 0.65158 0.0
O441 O 0.712 0.07136 0.60574 0.0
C442 C 0.70167 0.10722 0.65934 0.0
C443 C 0.71691 0.04748 0.59105 0.0
O444 O 0.7204 0.00966 0.59425 0.0
C445 C 0.78387 0.00977 0.6508 0.0
C446 C 0.72114 0.14497 0.66342 0.0
C447 C 0.72913 0.15501 0.68273 0.0
C448 C 0.74582 0.19133 0.68708 0.0
C449 C 0.75388 0.21771 0.67231 0.0
C450 C 0.74637 0.20872 0.65298 0.0
C451 C 0.72981 0.17207 0.64853 0.0
O452 O 0.65378 1.00142 0.66866 0.0
O453 O 0.6576 1.00623 0.63593 0.0
O454 O 0.71673 0.91481 0.6749 0.0
O455 O 0.71569 0.94021 0.64699 0.0
C456 C 0.71816 0.90737 0.65651 0.0
O457 O 0.76374 0.01777 0.63534 0.0
O458 O 0.76767 1.00765 0.668 0.0
O459 O 0.68283 0.10469 0.64302 0.0
O460 O 0.71995 0.07476 0.66382 0.0
H461 H 0.72201 0.1349 0.69431 0.0
H462 H 0.7647 0.24651 0.67621 0.0
H463 H 0.72338 0.16493 0.63365 0.0
H464 H 0.2371 0.34015 0.17447 0.0
H465 H 0.20834 0.38996 0.11884 0.0
H466 H 0.21917 0.32518 0.10342 0.0
H467 H 0.31274 0.27644 0.15707 0.0
H468 H 0.30122 0.23742 0.17362 0.0
H469 H 0.29139 0.28763 0.18016 0.0
H470 H 0.22023 0.26987 0.18636 0.0
H471 H 0.2299 0.21965 0.17985 0.0
H472 H 0.19296 0.24654 0.16749 0.0
H473 H 0.23164 0.25461 0.09435 0.0
H474 H 0.24599 0.18395 0.09198 0.0
H475 H 0.26797 0.18057 0.15362 0.0
C476 C 0.23309 0.3374 0.15904 0.0
C477 C 0.22173 0.36989 0.1478 0.0
C478 C 0.21696 0.36532 0.12766 0.0
C479 C 0.22306 0.3287 0.11881 0.0
C480 C 0.23416 0.29716 0.13032 0.0
C481 C 0.23931 0.30119 0.14998 0.0
C482 C 0.25147 0.26277 0.15908 0.0
C483 C 0.29159 0.26629 0.168 0.0
C484 C 0.22186 0.2489 0.17408 0.0
C485 C 0.25189 0.2363 0.1415 0.0
C486 C 0.24187 0.25671 0.12506 0.0
C487 C 0.23967 0.23839 0.10712 0.0
C488 C 0.24786 0.19816 0.10594 0.0
C489 C 0.25822 0.17657 0.12261 0.0
C490 C 0.26034 0.19614 0.14059 0.0
H491 H 0.443 0.55483 0.42092 0.0
H492 H 0.39886 0.49958 0.36912 0.0
H493 H 0.46056 0.51136 0.35261 0.0
H494 H 0.50244 0.63004 0.39643 0.0
H495 H 0.54033 0.6262 0.41392 0.0
H496 H 0.49145 0.61706 0.42104 0.0
H497 H 0.5109 0.54859 0.43388 0.0
H498 H 0.55973 0.55749 0.42679 0.0
H499 H 0.53503 0.51462 0.41799 0.0
H500 H 0.52885 0.52132 0.34315 0.0
H501 H 0.59891 0.5317 0.34092 0.0
H502 H 0.59865 0.58342 0.39807 0.0
C503 C 0.4461 0.54609 0.40596 0.0
C504 C 0.41616 0.52656 0.39621 0.0
C505 C 0.4214 0.51485 0.37678 0.0
C506 C 0.45632 0.52142 0.36729 0.0
C507 C 0.48559 0.54006 0.37739 0.0
C508 C 0.48081 0.55256 0.39624 0.0
C509 C 0.51765 0.56968 0.40417 0.0
C510 C 0.51266 0.61335 0.40918 0.0
C511 C 0.53164 0.54618 0.42174 0.0
C512 C 0.54404 0.56419 0.38695 0.0
C513 C 0.52491 0.54703 0.37165 0.0
C514 C 0.54393 0.53569 0.35481 0.0
C515 C 0.58358 0.5417 0.35364 0.0
C516 C 0.60356 0.5594 0.36906 0.0
C517 C 0.58354 0.57121 0.38581 0.0
H518 H 0.24515 0.81547 0.59153 0.0
H519 H 0.29936 0.87794 0.63877 0.0
H520 H 0.31288 0.81527 0.65493 0.0
H521 H 0.2037 0.73519 0.62089 0.0
H522 H 0.21329 0.69856 0.6027 0.0
H523 H 0.20393 0.74857 0.59574 0.0
H524 H 0.26822 0.75028 0.57697 0.0
H525 H 0.27794 0.70046 0.58399 0.0
H526 H 0.31204 0.73862 0.58938 0.0
H527 H 0.32388 0.74673 0.6652 0.0
H528 H 0.33255 0.67516 0.66874 0.0
H529 H 0.27398 0.65625 0.61438 0.0
C530 C 0.25913 0.81582 0.60545 0.0
C531 C 0.27113 0.85139 0.61395 0.0
C532 C 0.29007 0.8509 0.63199 0.0
C533 C 0.29774 0.81551 0.64133 0.0
C534 C 0.28644 0.78085 0.6324 0.0
C535 C 0.26753 0.78056 0.61489 0.0
C536 C 0.26095 0.73895 0.6079 0.0
C537 C 0.21791 0.72979 0.60675 0.0
C538 C 0.281 0.73166 0.58841 0.0
C539 C 0.27986 0.71612 0.624 0.0
C540 C 0.29385 0.74092 0.63811 0.0
C541 C 0.31289 0.72692 0.65432 0.0
C542 C 0.31773 0.68634 0.6562 0.0
C543 C 0.30402 0.66048 0.64181 0.0
C544 C 0.28483 0.67554 0.62554 0.0
H545 H 0.08855 0.56642 0.91347 0.0
H546 H 0.13786 0.50258 0.86516 0.0
H547 H 0.07304 0.48595 0.85369 0.0
H548 H 0.00929 0.5019 0.92233 0.0
H549 H 0.97556 0.54048 0.92769 0.0
H550 H 0.0258 0.54781 0.93227 0.0
H551 H 0.0252 0.61018 0.91096 0.0
H552 H 0.97491 0.60308 0.9064 0.0
H553 H 1.00805 0.60697 0.8865 0.0
H554 H 1.00388 0.47336 0.84826 0.0
H555 H 0.93357 0.46977 0.8475 0.0
H556 H 0.92726 0.54455 0.89827 0.0
C557 C 0.08557 0.54911 0.90044 0.0
C558 C 0.11818 0.53566 0.89019 0.0
C559 C 0.11327 0.51323 0.87317 0.0
C560 C 0.07657 0.50355 0.86658 0.0
C561 C 0.04502 0.51692 0.87704 0.0
C562 C 0.04897 0.53962 0.89346 0.0
C563 C 0.01004 0.55066 0.90172 0.0
C564 C 1.00489 0.53422 0.92222 0.0
C565 C 1.00422 0.59538 0.90137 0.0
C566 C 0.98372 0.53019 0.88749 0.0
C567 C 1.00466 0.51072 0.87348 0.0
C568 C 0.98713 0.48872 0.85906 0.0
C569 C 0.9471 0.48674 0.85882 0.0
C570 C 0.92481 0.50694 0.8728 0.0
C571 C 0.94349 0.52902 0.88732 0.0
H572 H 0.76503 0.67383 0.89269 0.0
H573 H 0.8415 0.67924 0.84325 0.0
H574 H 0.83895 0.75164 0.84424 0.0
H575 H 0.7057 0.75703 0.87871 0.0
H576 H 0.69921 0.77398 0.90317 0.0
H577 H 0.70627 0.72248 0.89838 0.0
H578 H 0.76395 0.72174 0.92181 0.0
H579 H 0.75704 0.77318 0.92667 0.0
H580 H 0.80283 0.75579 0.91815 0.0
H581 H 0.83056 0.82212 0.85127 0.0
H582 H 0.8161 0.88817 0.86358 0.0
H583 H 0.74339 0.8378 0.90812 0.0
C584 C 0.78112 0.69037 0.88208 0.0
C585 C 0.80356 0.67132 0.86792 0.0
C586 C 0.82415 0.69356 0.85418 0.0
C587 C 0.82284 0.73456 0.85462 0.0
C588 C 0.80049 0.75255 0.86876 0.0
C589 C 0.77981 0.73132 0.88219 0.0
C590 C 0.7583 0.75809 0.89593 0.0
C591 C 0.71479 0.75256 0.89392 0.0
C592 C 0.77133 0.75182 0.91688 0.0
C593 C 0.77085 0.79768 0.88836 0.0
C594 C 0.79504 0.79366 0.87264 0.0
C595 C 0.81144 0.82576 0.86347 0.0
C596 C 0.80312 0.86311 0.87063 0.0
C597 C 0.77858 0.86801 0.88679 0.0
C598 C 0.76193 0.83488 0.89563 0.0
H599 H 0.44106 0.54012 0.62328 0.0
H600 H 0.44873 0.47552 0.67703 0.0
H601 H 0.51928 0.48089 0.67584 0.0
H602 H 0.5229 0.49597 0.60075 0.0
H603 H 0.53775 0.54034 0.58874 0.0
H604 H 0.48791 0.53246 0.59423 0.0
H605 H 0.48578 0.5984 0.61287 0.0
H606 H 0.53566 0.6065 0.6075 0.0
H607 H 0.51921 0.60703 0.63218 0.0
H608 H 0.58951 0.4934 0.66869 0.0
H609 H 0.65355 0.50949 0.65536 0.0
H610 H 0.59983 0.56442 0.60599 0.0
C611 C 0.45753 0.52729 0.63487 0.0
C612 C 0.43929 0.50756 0.65031 0.0
C613 C 0.462 0.49082 0.66507 0.0
C614 C 0.50212 0.49379 0.66454 0.0
C615 C 0.51919 0.51343 0.64911 0.0
C616 C 0.4976 0.52972 0.6345 0.0
C617 C 0.52295 0.54832 0.61925 0.0
C618 C 0.51756 0.52805 0.59959 0.0
C619 C 0.51545 0.5927 0.61788 0.0
C620 C 0.56222 0.53995 0.62755 0.0
C621 C 0.55946 0.52001 0.64485 0.0
C622 C 0.59198 0.50902 0.65517 0.0
C623 C 0.62821 0.51835 0.64753 0.0
C624 C 0.63162 0.53822 0.6297 0.0
C625 C 0.59811 0.54927 0.61969 0.0
H626 H 0.76014 0.19671 0.365 0.0
H627 H 0.73441 0.18568 0.42615 0.0
H628 H 0.72499 0.25688 0.42835 0.0
H629 H 0.812 0.28941 0.36883 0.0
H630 H 0.79351 0.30932 0.34667 0.0
H631 H 0.79847 0.25698 0.34942 0.0
H632 H 0.72683 0.24785 0.34131 0.0
H633 H 0.7216 0.30015 0.33855 0.0
H634 H 0.69118 0.27393 0.35517 0.0
H635 H 0.71815 0.32842 0.42468 0.0
H636 H 0.71416 0.39756 0.41544 0.0
H637 H 0.74386 0.36683 0.35634 0.0
C638 C 0.75259 0.2093 0.37885 0.0
C639 C 0.74801 0.18502 0.39542 0.0
C640 C 0.73805 0.20304 0.41321 0.0
C641 C 0.73263 0.24372 0.41464 0.0
C642 C 0.73723 0.26664 0.39818 0.0
C643 C 0.74701 0.25035 0.38058 0.0
C644 C 0.75003 0.28244 0.36525 0.0
C645 C 0.79094 0.28466 0.35706 0.0
C646 C 0.72066 0.27568 0.34911 0.0
C647 C 0.7403 0.3191 0.37704 0.0
C648 C 0.73313 0.30887 0.396 0.0
C649 C 0.7237 0.33681 0.40988 0.0
C650 C 0.72154 0.37629 0.40441 0.0
C651 C 0.72864 0.38826 0.38512 0.0
C652 C 0.73815 0.35895 0.3712 0.0
H653 H 0.93352 0.48207 0.09474 0.0
H654 H 0.8846 0.42221 0.14418 0.0
H655 H 0.94557 0.43007 0.16178 0.0
H656 H 0.02826 0.44081 0.09861 0.0
H657 H 0.05211 0.48539 0.09143 0.0
H658 H 1.00458 0.47502 0.08283 0.0
H659 H 0.98098 0.54165 0.09651 0.0
H660 H 0.02845 0.55211 0.10521 0.0
H661 H 0.98836 0.55292 0.12166 0.0
H662 H 0.0123 0.44514 0.17417 0.0
H663 H 0.07992 0.46409 0.17968 0.0
H664 H 0.0846 0.51376 0.12206 0.0
C665 C 0.93575 0.4705 0.10924 0.0
C666 C 0.90441 0.45147 0.11811 0.0
C667 C 0.90832 0.43683 0.13711 0.0
C668 C 0.94281 0.44123 0.14724 0.0
C669 C 0.97316 0.46036 0.13817 0.0
C670 C 0.97 0.47464 0.11956 0.0
C671 C 1.00694 0.49388 0.11307 0.0
C672 C 0.02397 0.47248 0.09544 0.0
C673 C 1.0008 0.53774 0.10887 0.0
C674 C 0.03134 0.48801 0.13087 0.0
C675 C 0.01139 0.46881 0.14525 0.0
C676 C 0.02822 0.46021 0.163 0.0
C677 C 0.06659 0.4712 0.16604 0.0
C678 C 0.08769 0.49039 0.15136 0.0
C679 C 0.06947 0.49903 0.13363 0.0
H680 H 0.73266 0.83838 0.67537 0.0
H681 H 0.71683 0.88753 0.61828 0.0
H682 H 0.72751 0.82188 0.60384 0.0
H683 H 0.80837 0.77153 0.66218 0.0
H684 H 0.79244 0.73318 0.67818 0.0
H685 H 0.78283 0.78378 0.68403 0.0
H686 H 0.71034 0.76838 0.68659 0.0
H687 H 0.71976 0.71773 0.6808 0.0
H688 H 0.68634 0.74546 0.66652 0.0
H689 H 0.73971 0.75089 0.5957 0.0
H690 H 0.753 0.67994 0.5942 0.0
H691 H 0.76227 0.67677 0.65667 0.0
C692 C 0.73127 0.83525 0.65983 0.0
C693 C 0.72372 0.86795 0.6479 0.0
C694 C 0.72245 0.86281 0.62765 0.0
C695 C 0.72851 0.82566 0.61934 0.0
C696 C 0.73603 0.79401 0.63149 0.0
C697 C 0.73752 0.79841 0.6513 0.0
C698 C 0.74666 0.75973 0.66109 0.0
C699 C 0.78485 0.76222 0.67201 0.0
C700 C 0.71381 0.74709 0.67454 0.0
C701 C 0.74984 0.7328 0.64369 0.0
C702 C 0.74359 0.75319 0.62678 0.0
C703 C 0.74471 0.73466 0.60885 0.0
C704 C 0.7523 0.69424 0.60817 0.0
C705 C 0.75879 0.67257 0.62531 0.0
C706 C 0.75761 0.69237 0.64329 0.0
H707 H 0.09597 0.07594 0.88572 0.0
H708 H 0.13671 0.95532 0.88462 0.0
H709 H 0.07225 0.93187 0.89208 0.0
H710 H 0.02927 0.06334 0.92518 0.0
H711 H 0.99286 0.09462 0.91512 0.0
H712 H 0.04256 0.10318 0.90945 0.0
H713 H 0.02748 0.09832 0.87295 0.0
H714 H 0.97771 0.08996 0.87851 0.0
H715 H 1.00361 0.05529 0.86374 0.0
H716 H 1.00506 0.92017 0.89977 0.0
H717 H 0.93574 0.92097 0.90629 0.0
H718 H 0.93565 0.04819 0.90274 0.0
C719 C 0.09118 0.04465 0.88695 0.0
C720 C 0.12161 0.0176 0.88466 0.0
C721 C 0.11414 0.97682 0.88642 0.0
C722 C 0.07751 0.96303 0.89067 0.0
C723 C 0.04837 0.99025 0.89311 0.0
C724 C 0.05443 0.03015 0.89125 0.0
C725 C 0.0174 0.05262 0.89457 0.0
C726 C 0.02074 0.08006 0.91213 0.0
C727 C 1.00587 0.07539 0.87636 0.0
C728 C 0.98995 0.01896 0.89856 0.0
C729 C 1.0087 0.98334 0.89765 0.0
C730 C 0.98991 0.94783 0.90056 0.0
C731 C 0.95059 0.94859 0.90428 0.0
C732 C 0.93053 0.98459 0.90508 0.0
C733 C 0.95048 0.02029 0.90235 0.0
H734 H 0.83384 0.15148 0.11481 0.0
H735 H 0.73122 0.12702 0.14799 0.0
H736 H 0.70452 0.19144 0.13881 0.0
H737 H 0.84064 0.25053 0.12941 0.0
H738 H 0.85837 0.26888 0.10669 0.0
H739 H 0.86754 0.21882 0.11351 0.0
H740 H 0.83643 0.19444 0.08175 0.0
H741 H 0.82732 0.24453 0.07483 0.0
H742 H 0.78846 0.20977 0.07589 0.0
H743 H 0.69036 0.25867 0.12779 0.0
H744 H 0.69039 0.32724 0.11725 0.0
H745 H 0.80405 0.31165 0.09254 0.0
C746 C 0.80534 0.15947 0.11962 0.0
C747 C 0.78398 0.13426 0.13169 0.0
C748 C 0.74752 0.14594 0.13846 0.0
C749 C 0.73218 0.18235 0.13331 0.0
C750 C 0.75401 0.20695 0.12162 0.0
C751 C 0.7899 0.19629 0.11493 0.0
C752 C 0.80866 0.23 0.10413 0.0
C753 C 0.84601 0.2428 0.11403 0.0
C754 C 0.81562 0.21902 0.08289 0.0
C755 C 0.7779 0.26126 0.10604 0.0
C756 C 0.74646 0.24696 0.11592 0.0
C757 C 0.71468 0.27018 0.11991 0.0
C758 C 0.71504 0.30924 0.11379 0.0
C759 C 0.74721 0.32512 0.10395 0.0
C760 C 0.77896 0.30052 0.09993 0.0
H761 H 0.59256 0.01021 0.40558 0.0
H762 H 0.61909 0.11528 0.37306 0.0
H763 H 0.55095 0.12083 0.36349 0.0
H764 H 0.52509 0.9714 0.36997 0.0
H765 H 0.49422 0.94994 0.38798 0.0
H766 H 0.54473 0.95495 0.39257 0.0
H767 H 0.52954 0.99371 0.42389 0.0
H768 H 0.47901 0.98909 0.41929 0.0
H769 H 0.49993 0.03697 0.42266 0.0
H770 H 0.47882 0.11788 0.36002 0.0
H771 H 0.41 0.10073 0.35811 0.0
H772 H 0.43175 0.9931 0.3894 0.0
C773 C 0.58393 0.03423 0.39636 0.0
C774 C 0.61081 0.06256 0.39013 0.0
C775 C 0.59882 0.09331 0.37791 0.0
C776 C 0.5602 0.09678 0.37251 0.0
C777 C 0.53422 0.06862 0.37907 0.0
C778 C 0.54575 0.03735 0.39031 0.0
C779 C 0.51249 0.00998 0.39458 0.0
C780 C 0.51956 0.96915 0.38574 0.0
C781 C 0.5048 1.0073 0.4164 0.0
C782 C 0.48028 0.03115 0.38433 0.0
C783 C 0.4933 0.06528 0.37577 0.0
C784 C 0.46845 0.09093 0.36641 0.0
C785 C 0.42944 0.08112 0.3655 0.0
C786 C 0.41582 0.04558 0.37351 0.0
C787 C 0.4416 0.02029 0.38301 0.0
H788 H 0.32747 0.20704 0.37075 0.0
H789 H 0.20651 0.17875 0.37296 0.0
H790 H 0.19195 0.24736 0.38246 0.0
H791 H 0.3286 0.26668 0.41194 0.0
H792 H 0.36314 0.30104 0.40253 0.0
H793 H 0.36311 0.2511 0.39409 0.0
H794 H 0.35652 0.27555 0.35884 0.0
H795 H 0.35632 0.32566 0.36721 0.0
H796 H 0.31748 0.30766 0.3526 0.0
H797 H 0.19157 0.31852 0.39391 0.0
H798 H 0.20574 0.38417 0.40757 0.0
H799 H 0.32696 0.36443 0.39784 0.0
C800 C 0.29787 0.21546 0.37293 0.0
C801 C 0.26806 0.18784 0.37101 0.0
C802 C 0.22972 0.19968 0.37426 0.0
C803 C 0.2212 0.23855 0.3796 0.0
C804 C 0.25138 0.2651 0.38156 0.0
C805 C 0.28895 0.25396 0.37831 0.0
C806 C 0.31644 0.28711 0.38257 0.0
C807 C 0.34445 0.2758 0.39874 0.0
C808 C 0.33795 0.29974 0.36421 0.0
C809 C 0.28865 0.31844 0.38917 0.0
C810 C 0.25119 0.30552 0.38827 0.0
C811 C 0.22079 0.32903 0.39448 0.0
C812 C 0.22906 0.36632 0.40217 0.0
C813 C 0.26739 0.37946 0.40369 0.0
C814 C 0.29732 0.35536 0.39676 0.0
H815 H 0.95397 0.03123 0.15212 0.0
H816 H 0.92465 0.9654 0.10038 0.0
H817 H 0.99049 0.97181 0.08872 0.0
H818 H 0.0197 0.09894 0.12868 0.0
H819 H 0.05348 0.09989 0.14828 0.0
H820 H 1.00351 0.09079 0.15308 0.0
H821 H 0.02103 0.02596 0.17027 0.0
H822 H 0.07106 0.03479 0.16551 0.0
H823 H 0.04913 0.98962 0.15765 0.0
H824 H 0.05744 0.98589 0.08163 0.0
H825 H 0.12502 1.00529 0.07991 0.0
H826 H 0.11587 0.06017 0.13637 0.0
C827 C 0.96146 0.01822 0.13835 0.0
C828 C 0.93376 0.9977 0.12725 0.0
C829 C 0.94497 0.98107 0.10931 0.0
C830 C 0.98246 0.98459 0.10246 0.0
C831 C 1.00891 1.00472 0.11367 0.0
C832 C 0.99928 0.02119 0.13125 0.0
C833 C 0.03411 0.04098 0.14025 0.0
C834 C 0.02728 0.08528 0.14272 0.0
C835 C 0.04444 0.02167 0.15957 0.0
C836 C 0.06455 0.03285 0.12492 0.0
C837 C 0.04889 0.01213 0.10971 0.0
C838 C 0.07018 1.00194 0.09347 0.0
C839 C 0.10858 0.01323 0.09262 0.0
C840 C 0.12579 0.03413 0.10799 0.0
C841 C 0.10352 0.0439 0.12448 0.0
H842 H 0.23357 0.68585 0.90993 0.0
H843 H 0.27648 0.65767 0.85264 0.0
H844 H 0.27817 0.7278 0.84458 0.0
H845 H 0.17233 0.76574 0.8946 0.0
H846 H 0.18136 0.79568 0.91557 0.0
H847 H 0.1841 0.74301 0.91728 0.0
H848 H 0.25323 0.74846 0.93039 0.0
H849 H 0.2507 0.80116 0.92873 0.0
H850 H 0.28876 0.77495 0.91669 0.0
H851 H 0.27587 0.80086 0.84237 0.0
H852 H 0.26787 0.8724 0.84602 0.0
H853 H 0.22503 0.85511 0.9043 0.0
C854 C 0.24344 0.69448 0.89573 0.0
C855 C 0.25491 0.66593 0.88196 0.0
C856 C 0.26736 0.67865 0.86348 0.0
C857 C 0.26854 0.71859 0.85873 0.0
C858 C 0.25697 0.74589 0.87252 0.0
C859 C 0.24447 0.73454 0.89062 0.0
C860 C 0.23291 0.77022 0.90253 0.0
C861 C 0.19013 0.76855 0.9078 0.0
C862 C 0.2579 0.7739 0.92066 0.0
C863 C 0.24115 0.80319 0.88832 0.0
C864 C 0.2551 0.78838 0.87112 0.0
C865 C 0.26493 0.81284 0.85577 0.0
C866 C 0.26033 0.85354 0.858 0.0
C867 C 0.24586 0.86966 0.87543 0.0
C868 C 0.23619 0.84389 0.89077 0.0
H869 H 0.44579 0.96829 0.59141 0.0
H870 H 0.38346 0.0251 0.63794 0.0
H871 H 0.44357 0.03117 0.65656 0.0
H872 H 0.51063 0.91327 0.621 0.0
H873 H 0.55095 0.91969 0.605 0.0
H874 H 0.50303 0.91957 0.59547 0.0
H875 H 0.51474 0.98772 0.57998 0.0
H876 H 0.56278 0.9878 0.5893 0.0
H877 H 0.53088 0.02786 0.59488 0.0
H878 H 0.51115 0.02878 0.67063 0.0
H879 H 0.581 0.0252 0.677 0.0
H880 H 0.59844 0.9723 0.62068 0.0
C881 C 0.44487 0.98232 0.60545 0.0
C882 C 0.41002 0.99634 0.61323 0.0
C883 C 0.40993 0.01439 0.63166 0.0
C884 C 0.44388 0.01772 0.6424 0.0
C885 C 0.47774 1.00303 0.63445 0.0
C886 C 0.47852 0.98616 0.61627 0.0
C887 C 0.51869 0.97361 0.61075 0.0
C888 C 0.52093 0.92888 0.60789 0.0
C889 C 0.53259 0.99557 0.59266 0.0
C890 C 0.54046 0.98635 0.62857 0.0
C891 C 0.51638 1.00268 0.64225 0.0
C892 C 0.53026 0.01616 0.65997 0.0
C893 C 0.56988 0.01377 0.66355 0.0
C894 C 0.59507 0.99859 0.64934 0.0
C895 C 0.57989 0.98423 0.6318 0.0
H896 H 0.21201 0.10232 0.95461 0.0
H897 H 0.28882 0.01245 0.93281 0.0
H898 H 0.30917 0.9976 0.96621 0.0
H899 H 0.27099 0.1378 0.99268 0.0
H900 H 0.23195 0.14486 0.00941 0.0
H901 H 0.22361 0.14841 0.98385 0.0
H902 H 0.17072 0.09523 0.98631 0.0
H903 H 0.17873 0.09177 0.0119 0.0
H904 H 0.18183 0.04844 0.99701 0.0
H905 H 0.32306 0.99499 1.0018 0.0
H906 H 0.32459 0.99967 0.03739 0.0
H907 H 0.23616 0.08915 0.03566 0.0
C908 C 0.23299 0.0794 0.95692 0.0
C909 C 0.24907 0.05853 0.9413 0.0
C910 C 0.2762 0.02858 0.94472 0.0
C911 C 0.28801 0.02013 0.96357 0.0
C912 C 0.27194 0.04161 0.97871 0.0
C913 C 0.24459 0.07021 0.97561 0.0
C914 C 0.23097 0.08826 0.99437 0.0
C915 C 0.23994 0.13245 0.99511 0.0
C916 C 0.18802 0.08043 0.99758 0.0
C917 C 0.25523 0.06562 0.0085 0.0
C918 C 0.27893 0.03912 0.9992 0.0
C919 C 0.30445 0.01542 0.00927 0.0
C920 C 0.30525 0.01843 0.02944 0.0
C921 C 0.28038 0.04463 0.03923 0.0
C922 C 0.25535 0.06868 0.02856 0.0
H923 H 0.73964 0.49176 0.25405 0.0
H924 H 0.62938 0.54948 0.25626 0.0
H925 H 0.61485 0.52518 0.22344 0.0
H926 H 0.76166 0.51864 0.2089 0.0
H927 H 0.78561 0.47438 0.20124 0.0
H928 H 0.78399 0.48708 0.22641 0.0
H929 H 0.75261 0.42034 0.23467 0.0
H930 H 0.75507 0.40675 0.20953 0.0
H931 H 0.70988 0.40524 0.22216 0.0
H932 H 0.61797 0.50686 0.18875 0.0
H933 H 0.63529 0.48938 0.1553 0.0
H934 H 0.74406 0.44333 0.1752 0.0
C935 C 0.71158 0.49715 0.248 0.0
C936 C 0.68502 0.52131 0.25776 0.0
C937 C 0.64942 0.52994 0.24912 0.0
C938 C 0.64113 0.51651 0.23047 0.0
C939 C 0.66879 0.49449 0.22073 0.0
C940 C 0.70305 0.48416 0.22931 0.0
C941 C 0.72974 0.4645 0.21494 0.0
C942 C 0.76745 0.48754 0.21275 0.0
C943 C 0.73726 0.42165 0.22066 0.0
C944 C 0.70582 0.46689 0.19679 0.0
C945 C 0.67068 0.48401 0.20049 0.0
C946 C 0.645 0.49252 0.18575 0.0
C947 C 0.65527 0.48281 0.16676 0.0
C948 C 0.69093 0.46475 0.16265 0.0
C949 C 0.71637 0.45657 0.17793 0.0
H950 H 0.33719 0.95639 0.52378 0.0
H951 H 0.2186 0.91835 0.52579 0.0
H952 H 0.21684 0.91711 0.4902 0.0
H953 H 0.3264 0.02082 0.48396 0.0
H954 H 0.37249 0.01006 0.47344 0.0
H955 H 0.3655 1.00545 0.49909 0.0
H956 H 0.38862 0.93328 0.49762 0.0
H957 H 0.39594 0.93772 0.47197 0.0
H958 H 0.36564 0.89937 0.48136 0.0
H959 H 0.2268 0.923 0.45445 0.0
H960 H 0.24829 0.93424 0.42095 0.0
H961 H 0.36031 0.969 0.44199 0.0
C962 C 0.31105 0.94715 0.51674 0.0
C963 C 0.27808 0.93722 0.5276 0.0
C964 C 0.24425 0.92598 0.5178 0.0
C965 C 0.24295 0.92519 0.49758 0.0
C966 C 0.27569 0.9358 0.48731 0.0
C967 C 0.30917 0.94646 0.49652 0.0
C968 C 0.33983 0.95803 0.48205 0.0
C969 C 0.35174 1.00115 0.4848 0.0
C970 C 0.37456 0.93044 0.48333 0.0
C971 C 0.31832 0.95225 0.46328 0.0
C972 C 0.28138 0.93941 0.46665 0.0
C973 C 0.25575 0.93282 0.45162 0.0
C974 C 0.26822 0.93937 0.43262 0.0
C975 C 0.30603 0.95238 0.42878 0.0
C976 C 0.3313 0.95886 0.44439 0.0
H977 H 0.86507 0.56528 0.78949 0.0
H978 H 0.76869 0.49484 0.80883 0.0
H979 H 0.75013 0.48348 0.77497 0.0
H980 H 0.81702 0.61215 0.7507 0.0
H981 H 0.85771 0.61185 0.73462 0.0
H982 H 0.8649 0.61283 0.76034 0.0
H983 H 0.90682 0.5503 0.75788 0.0
H984 H 0.89979 0.5492 0.73214 0.0
H985 H 0.8877 0.50692 0.74651 0.0
H986 H 0.73983 0.4825 0.73931 0.0
H987 H 0.73907 0.49054 0.70403 0.0
H988 H 0.84241 0.56114 0.70716 0.0
C989 C 0.84035 0.54702 0.78662 0.0
C990 C 0.81842 0.53084 0.80191 0.0
C991 C 0.78602 0.50751 0.79745 0.0
C992 C 0.77523 0.50088 0.77823 0.0
C993 C 0.79712 0.51768 0.76355 0.0
C994 C 0.8291 0.54013 0.76746 0.0
C995 C 0.84695 0.55566 0.74895 0.0
C996 C 0.84661 0.6008 0.74864 0.0
C997 C 0.88773 0.53955 0.74621 0.0
C998 C 0.81975 0.53874 0.73404 0.0
C999 C 0.79128 0.51691 0.74284 0.0
C1000 C 0.76212 0.4993 0.73226 0.0
C1001 C 0.76192 0.50415 0.71218 0.0
C1002 C 0.79072 0.52639 0.70274 0.0
C1003 C 0.82016 0.5437 0.71389 0.0
H1004 H 0.79695 0.9963 0.05672 0.0
H1005 H 0.79417 0.87193 0.07017 0.0
H1006 H 0.78775 0.85663 0.03543 0.0
H1007 H 0.72859 0.99351 0.01714 0.0
H1008 H 0.75436 0.02959 1.00323 0.0
H1009 H 0.75643 0.0307 0.02921 0.0
H1010 H 0.83052 0.02759 0.02771 0.0
H1011 H 0.82872 0.02655 1.00176 0.0
H1012 H 0.85337 0.98823 0.0146 0.0
H1013 H 0.78601 0.85494 0.99918 0.0
H1014 H 0.78906 0.86676 0.96406 0.0
H1015 H 0.7917 0.99238 0.97448 0.0
C1016 C 0.79456 0.96582 0.05242 0.0
C1017 C 0.79592 0.93527 0.06615 0.0
C1018 C 0.79302 0.8958 0.0599 0.0
C1019 C 0.78933 0.88685 0.04021 0.0
C1020 C 0.78836 0.91771 0.02704 0.0
C1021 C 0.79079 0.9564 0.03289 0.0
C1022 C 0.79068 0.98408 0.01583 0.0
C1023 C 0.75541 0.01106 0.01639 0.0
C1024 C 0.82804 1.008 0.01493 0.0
C1025 C 0.78826 0.95488 0.9994 0.0
C1026 C 0.78686 0.91676 0.00618 0.0
C1027 C 0.78663 0.88466 0.99371 0.0
C1028 C 0.78839 0.89168 0.9738 0.0
C1029 C 0.79025 0.93048 0.96657 0.0
C1030 C 0.78957 0.96243 0.97957 0.0
H1031 H 0.36372 0.55889 0.72614 0.0
H1032 H 0.27085 0.48746 0.70373 0.0
H1033 H 0.24972 0.4732 0.73694 0.0
H1034 H 0.38404 0.49797 0.76839 0.0
H1035 H 0.39383 0.53956 0.78372 0.0
H1036 H 0.40317 0.5425 0.75817 0.0
H1037 H 0.36006 0.60419 0.75599 0.0
H1038 H 0.35057 0.60141 0.7815 0.0
H1039 H 0.31137 0.60179 0.76465 0.0
H1040 H 0.23612 0.46982 0.77223 0.0
H1041 H 0.2315 0.47655 0.80758 0.0
H1042 H 0.33359 0.54931 0.80754 0.0
C1043 C 0.33923 0.53986 0.72822 0.0
C1044 C 0.319 0.52425 0.71229 0.0
C1045 C 0.28687 0.49975 0.71565 0.0
C1046 C 0.27464 0.49142 0.73449 0.0
C1047 C 0.2949 0.50763 0.74983 0.0
C1048 C 0.32661 0.53118 0.74695 0.0
C1049 C 0.34244 0.54591 0.76601 0.0
C1050 C 0.38329 0.53056 0.76926 0.0
C1051 C 0.34101 0.591 0.76709 0.0
C1052 C 0.31431 0.52739 0.78001 0.0
C1053 C 0.28722 0.50536 0.77033 0.0
C1054 C 0.25736 0.48668 0.77999 0.0
C1055 C 0.25494 0.49077 0.80008 0.0
C1056 C 0.28226 0.51331 0.81034 0.0
C1057 C 0.31253 0.53152 0.80013 0.0
H1058 H 0.72899 1.00677 0.55734 0.0
H1059 H 0.70217 0.12281 0.57965 0.0
H1060 H 0.69682 0.1477 0.54636 0.0
H1061 H 0.78604 0.03974 0.51649 0.0
H1062 H 0.76881 1.00146 0.50077 0.0
H1063 H 0.7716 0.99312 0.52638 0.0
H1064 H 0.69961 0.97453 0.527 0.0
H1065 H 0.69659 0.98302 0.50142 0.0
H1066 H 0.66483 1.00862 0.51769 0.0
H1067 H 0.69127 0.15924 0.51064 0.0
H1068 H 0.68942 0.15725 0.475 0.0
H1069 H 0.72122 0.03409 0.47618 0.0
C1070 C 0.72225 0.03748 0.55525 0.0
C1071 C 0.71593 0.06281 0.57111 0.0
C1072 C 0.70718 0.10282 0.56773 0.0
C1073 C 0.70402 0.11725 0.54887 0.0
C1074 C 0.70993 0.09138 0.53357 0.0
C1075 C 0.71919 0.05242 0.53654 0.0
C1076 C 0.72386 0.03069 0.51759 0.0
C1077 C 0.76503 0.01536 0.51517 0.0
C1078 C 0.69447 0.99725 0.51583 0.0
C1079 C 0.71543 0.06344 0.50353 0.0
C1080 C 0.70737 0.09818 0.51301 0.0
C1081 C 0.69779 0.13226 0.50304 0.0
C1082 C 0.69668 0.13081 0.48282 0.0
C1083 C 0.70529 0.09558 0.47283 0.0
C1084 C 0.71475 0.06155 0.48339 0.0
H1085 H 0.187 0.54276 0.24998 0.0
H1086 H 0.20019 0.41992 0.23459 0.0
H1087 H 0.19562 0.40184 0.269 0.0
H1088 H 0.24274 0.53916 0.29348 0.0
H1089 H 0.21239 0.57302 0.30644 0.0
H1090 H 0.21632 0.57613 0.28057 0.0
H1091 H 0.14272 0.56978 0.27758 0.0
H1092 H 0.13848 0.56656 0.30344 0.0
H1093 H 0.11869 0.52844 0.2884 0.0
H1094 H 0.19029 0.39714 0.30554 0.0
H1095 H 0.1854 0.40662 0.34091 0.0
H1096 H 0.1751 0.53231 0.33226 0.0
C1097 C 0.18889 0.51204 0.25381 0.0
C1098 C 0.19393 0.4828 0.23948 0.0
C1099 C 0.19634 0.44294 0.24522 0.0
C1100 C 0.19373 0.43233 0.26477 0.0
C1101 C 0.1887 0.46185 0.27852 0.0
C1102 C 0.18637 0.50091 0.27328 0.0
C1103 C 0.18127 0.527 0.29086 0.0
C1104 C 0.2152 0.5555 0.29296 0.0
C1105 C 0.14301 0.54925 0.29001 0.0
C1106 C 0.18108 0.49655 0.30681 0.0
C1107 C 0.18541 0.45912 0.29942 0.0
C1108 C 0.18673 0.42633 0.31146 0.0
C1109 C 0.18385 0.43198 0.33156 0.0
C1110 C 0.17958 0.47012 0.33946 0.0
C1111 C 0.17796 0.50266 0.32677 0.0
H1112 H 0.72873 0.63833 0.45003 0.0
H1113 H 0.70602 0.51635 0.43617 0.0
H1114 H 0.70626 0.50021 0.47103 0.0
H1115 H 0.79265 0.62053 0.48953 0.0
H1116 H 0.77546 0.66149 0.50361 0.0
H1117 H 0.77332 0.66314 0.47766 0.0
H1118 H 0.70035 0.67673 0.47952 0.0
H1119 H 0.70229 0.67502 0.50547 0.0
H1120 H 0.66982 0.64334 0.4926 0.0
H1121 H 0.70945 0.49773 0.50743 0.0
H1122 H 0.71537 0.50873 0.54251 0.0
H1123 H 0.73562 0.63272 0.53231 0.0
C1124 C 0.72376 0.60822 0.45434 0.0
C1125 C 0.71729 0.57851 0.44049 0.0
C1126 C 0.71096 0.53947 0.44662 0.0
C1127 C 0.71106 0.53009 0.46635 0.0
C1128 C 0.7175 0.56013 0.47967 0.0
C1129 C 0.72373 0.59841 0.47391 0.0
C1130 C 0.73005 0.62527 0.49105 0.0
C1131 C 0.77026 0.64368 0.49042 0.0
C1132 C 0.69875 0.65695 0.49222 0.0
C1133 C 0.72639 0.59615 0.50739 0.0
C1134 C 0.71919 0.55874 0.50054 0.0
C1135 C 0.71503 0.52691 0.51295 0.0
C1136 C 0.71846 0.53348 0.53286 0.0
C1137 C 0.72592 0.57161 0.54018 0.0
C1138 C 0.72979 0.60326 0.52721 0.0
H1139 H 0.26027 0.94809 0.67529 0.0
H1140 H 0.13907 0.94875 0.6617 0.0
H1141 H 0.12391 0.96128 0.69602 0.0
H1142 H 0.25095 0.90386 0.72456 0.0
H1143 H 0.28881 0.93436 0.73389 0.0
H1144 H 0.28969 0.9189 0.70899 0.0
H1145 H 0.29445 0.99155 0.69814 0.0
H1146 H 0.29368 1.00711 0.72292 0.0
H1147 H 0.25876 0.02611 0.70629 0.0
H1148 H 0.12255 0.98379 0.73058 0.0
H1149 H 0.1356 0.01488 0.76229 0.0
H1150 H 0.25718 0.99845 0.75333 0.0
C1151 C 0.23047 0.94987 0.67959 0.0
C1152 C 0.20085 0.9473 0.66583 0.0
C1153 C 0.16225 0.95032 0.67201 0.0
C1154 C 0.15335 0.95733 0.69149 0.0
C1155 C 0.18333 0.96069 0.70463 0.0
C1156 C 0.22113 0.95673 0.69894 0.0
C1157 C 0.24823 0.96537 0.7154 0.0
C1158 C 0.27074 0.92841 0.72104 0.0
C1159 C 0.27534 0.99957 0.71038 0.0
C1160 C 0.21989 0.97671 0.731 0.0
C1161 C 0.18252 0.97313 0.72465 0.0
C1162 C 0.15159 0.98564 0.7359 0.0
C1163 C 0.15914 1.00309 0.75387 0.0
C1164 C 0.19722 1.00776 0.76027 0.0
C1165 C 0.22781 0.99372 0.74891 0.0
H1166 H 0.85517 0.46461 0.9432 0.0
H1167 H 0.74147 0.43828 0.92155 0.0
H1168 H 0.71741 0.43343 0.95496 0.0
H1169 H 0.85255 0.39968 0.98387 0.0
H1170 H 0.87778 0.4326 0.99977 0.0
H1171 H 0.88623 0.4346 0.97413 0.0
H1172 H 0.86897 0.50852 0.97411 0.0
H1173 H 0.86049 0.50673 0.99976 0.0
H1174 H 0.82352 0.52418 0.98385 0.0
H1175 H 0.70565 0.42998 0.99065 0.0
H1176 H 0.70673 0.42899 0.02619 0.0
H1177 H 0.82771 0.45844 0.02526 0.0
C1178 C 0.8252 0.45784 0.94547 0.0
C1179 C 0.80028 0.4517 0.92963 0.0
C1180 C 0.76122 0.4431 0.93333 0.0
C1181 C 0.74723 0.44027 0.9523 0.0
C1182 C 0.77252 0.44635 0.96754 0.0
C1183 C 0.81065 0.45512 0.96437 0.0
C1184 C 0.83166 0.46036 0.98339 0.0
C1185 C 0.86396 0.42999 0.9854 0.0
C1186 C 0.84707 0.50245 0.98539 0.0
C1187 C 0.79949 0.45266 0.99771 0.0
C1188 C 0.76562 0.44474 0.98821 0.0
C1189 C 0.73199 0.43627 0.99823 0.0
C1190 C 0.73293 0.43576 0.01847 0.0
C1191 C 0.76726 0.44368 0.02863 0.0
C1192 C 0.80095 0.4524 0.01799 0.0
H1193 H 0.28561 0.10537 0.21195 0.0
H1194 H 0.35658 1.00728 0.1938 0.0
H1195 H 0.36404 0.98743 0.22784 0.0
H1196 H 0.33884 0.12828 0.25534 0.0
H1197 H 0.29657 0.14119 0.26894 0.0
H1198 H 0.29754 0.14789 0.24317 0.0
H1199 H 0.23645 0.10521 0.23998 0.0
H1200 H 0.23544 0.09812 0.26572 0.0
H1201 H 0.23613 0.05624 0.24978 0.0
H1202 H 0.36184 0.97701 0.26373 0.0
H1203 H 0.35334 0.97884 0.29907 0.0
H1204 H 0.28445 0.08435 0.29374 0.0
C1205 C 0.30291 0.07983 0.21512 0.0
C1206 C 0.32048 0.05783 0.20022 0.0
C1207 C 0.34295 0.02466 0.20498 0.0
C1208 C 0.34726 0.01308 0.22427 0.0
C1209 C 0.32911 0.03514 0.23858 0.0
C1210 C 0.30768 0.06801 0.23426 0.0
C1211 C 0.29124 0.0867 0.25232 0.0
C1212 C 0.307 0.12849 0.25511 0.0
C1213 C 0.2472 0.08653 0.25192 0.0
C1214 C 0.30649 0.05898 0.26749 0.0
C1215 C 0.32821 0.0294 0.25926 0.0
C1216 C 0.34506 1.00014 0.27035 0.0
C1217 C 0.33999 1.00141 0.29042 0.0
C1218 C 0.3183 0.03179 0.2992 0.0
C1219 C 0.30118 0.06074 0.28749 0.0
H1220 H 0.25518 0.44997 0.49813 0.0
H1221 H 0.37372 0.48172 0.48721 0.0
H1222 H 0.38694 0.47826 0.52212 0.0
H1223 H 0.24405 0.50471 0.54203 0.0
H1224 H 0.21447 0.46832 0.55363 0.0
H1225 H 0.21429 0.47274 0.52774 0.0
H1226 H 0.23223 0.39929 0.5244 0.0
H1227 H 0.23237 0.39457 0.55028 0.0
H1228 H 0.27417 0.38093 0.53648 0.0
H1229 H 0.38703 0.47321 0.55825 0.0
H1230 H 0.37459 0.46461 0.59304 0.0
H1231 H 0.25628 0.43483 0.58064 0.0
C1232 C 0.28396 0.45609 0.50305 0.0
C1233 C 0.31342 0.46616 0.48988 0.0
C1234 C 0.35067 0.47391 0.49697 0.0
C1235 C 0.35848 0.47207 0.5168 0.0
C1236 C 0.32878 0.46229 0.52938 0.0
C1237 C 0.29231 0.45424 0.52281 0.0
C1238 C 0.26555 0.44443 0.53941 0.0
C1239 C 0.23265 0.47434 0.54078 0.0
C1240 C 0.25019 0.4023 0.53753 0.0
C1241 C 0.29268 0.44833 0.55635 0.0
C1242 C 0.32897 0.45879 0.55023 0.0
C1243 C 0.35878 0.46482 0.56321 0.0
C1244 C 0.35139 0.45991 0.58297 0.0
C1245 C 0.31452 0.44884 0.58962 0.0
C1246 C 0.28485 0.44301 0.57604 0.0
H1247 H 0.81671 0.97641 0.31009 0.0
H1248 H 0.83791 0.10117 0.31727 0.0
H1249 H 0.84871 0.10752 0.28226 0.0
H1250 H 0.88574 0.95916 0.27104 0.0
H1251 H 0.85466 0.9255 0.2585 0.0
H1252 H 0.85186 0.92982 0.28439 0.0
H1253 H 0.77938 0.94539 0.282 0.0
H1254 H 0.78196 0.94109 0.25614 0.0
H1255 H 0.76374 0.98545 0.26702 0.0
H1256 H 0.85405 0.10138 0.24679 0.0
H1257 H 0.85106 0.08364 0.21238 0.0
H1258 H 0.82489 0.96306 0.22789 0.0
C1259 C 0.82427 1.00489 0.30431 0.0
C1260 C 0.82677 0.03826 0.31632 0.0
C1261 C 0.8359 0.07524 0.30826 0.0
C1262 C 0.84225 0.07913 0.28843 0.0
C1263 C 0.8392 0.04578 0.27693 0.0
C1264 C 0.83028 0.00939 0.28449 0.0
C1265 C 0.82616 0.97888 0.26872 0.0
C1266 C 0.85642 0.94642 0.27079 0.0
C1267 C 0.78539 0.96171 0.26846 0.0
C1268 C 0.83379 1.00396 0.25114 0.0
C1269 C 0.8416 0.04234 0.25625 0.0
C1270 C 0.84827 0.07136 0.24257 0.0
C1271 C 0.84646 0.06097 0.22307 0.0
C1272 C 0.83781 0.02194 0.21748 0.0
C1273 C 0.83187 0.99304 0.23173 0.0
H1274 H 0.18952 0.58734 0.06997 0.0
H1275 H 0.26259 0.48466 0.07418 0.0
H1276 H 0.27265 0.48559 0.03907 0.0
H1277 H 0.14321 0.55829 0.02661 0.0
H1278 H 0.14064 0.60675 0.01632 0.0
H1279 H 0.14138 0.6008 0.04213 0.0
H1280 H 0.20048 0.64649 0.04436 0.0
H1281 H 0.19976 0.65274 0.01854 0.0
H1282 H 0.24258 0.63547 0.03022 0.0
H1283 H 0.27259 0.49451 1.00388 0.0
H1284 H 0.26255 0.51111 0.96984 0.0
H1285 H 0.18843 0.60768 0.98695 0.0
C1286 C 0.20814 0.56556 0.06347 0.0
C1287 C 0.22537 0.53597 0.07483 0.0
C1288 C 0.24899 0.50751 0.0658 0.0
C1289 C 0.25501 0.50784 0.04584 0.0
C1290 C 0.2371 0.53674 0.03499 0.0
C1291 C 0.21417 0.56518 0.04337 0.0
C1292 C 0.1969 0.59155 0.028 0.0
C1293 C 0.15292 0.58919 0.02829 0.0
C1294 C 0.21077 0.63409 0.03043 0.0
C1295 C 0.21337 0.57305 0.00977 0.0
C1296 C 0.23668 0.54167 0.01428 0.0
C1297 C 0.25461 0.51918 1.00013 0.0
C1298 C 0.24861 0.52887 0.98078 0.0
C1299 C 0.22473 0.56078 0.97561 0.0
C1300 C 0.20699 0.58325 0.99039 0.0
H1301 H 0.68456 0.04877 0.74635 0.0
H1302 H 0.73114 0.93332 0.73373 0.0
H1303 H 0.73539 0.91969 0.76856 0.0
H1304 H 0.74257 0.06782 0.78881 0.0
H1305 H 0.70467 0.09241 0.80176 0.0
H1306 H 0.7059 0.09374 0.77577 0.0
H1307 H 0.63721 0.06519 0.77455 0.0
H1308 H 0.63571 0.06381 0.80053 0.0
H1309 H 0.62687 0.01975 0.78679 0.0
H1310 H 0.7344 0.91806 0.80473 0.0
H1311 H 0.72716 0.92812 0.8398 0.0
H1312 H 0.68052 0.04429 0.82946 0.0
C1313 C 0.69577 0.02067 0.7509 0.0
C1314 C 0.70754 0.99214 0.7372 0.0
C1315 C 0.72194 0.95571 0.74385 0.0
C1316 C 0.72451 0.94767 0.76365 0.0
C1317 C 0.71261 0.9763 0.77674 0.0
C1318 C 0.69852 0.01209 0.77069 0.0
C1319 C 0.6872 0.03749 0.78784 0.0
C1320 C 0.71154 0.07509 0.78858 0.0
C1321 C 0.64419 0.04711 0.7874 0.0
C1322 C 0.69679 0.01022 0.80444 0.0
C1323 C 0.71163 0.97519 0.79768 0.0
C1324 C 0.72277 0.94537 0.81019 0.0
C1325 C 0.71852 0.95139 0.83013 0.0
C1326 C 0.70304 0.98689 0.83747 0.0
C1327 C 0.69217 0.0167 0.82436 0.0
H1328 H 0.54436 0.06484 0.97767 0.0
H1329 H 0.55646 0.93897 0.97039 0.0
H1330 H 0.52176 0.92841 1.00112 0.0
H1331 H 0.55656 0.06584 0.02978 0.0
H1332 H 0.52229 0.10479 0.03325 0.0
H1333 H 0.54909 0.10167 0.01106 0.0
H1334 H 0.48538 0.10119 0.99198 0.0
H1335 H 0.45836 0.10323 0.01416 0.0
H1336 H 0.44997 0.06412 0.99713 0.0
H1337 H 0.48391 0.93164 0.0321 0.0
H1338 H 0.45399 0.94863 0.06346 0.0
H1339 H 0.46578 0.07222 0.05039 0.0
C1340 C 0.54003 0.03506 0.98266 0.0
C1341 C 0.55316 1.00269 0.97167 0.0
C1342 C 0.54714 0.96419 0.97871 0.0
C1343 C 0.52702 0.95791 0.99601 0.0
C1344 C 0.51325 0.99045 0.00612 0.0
C1345 C 0.52014 0.02829 0.9999 0.0
C1346 C 0.50308 0.05823 0.01367 0.0
C1347 C 0.53463 0.08415 0.02247 0.0
C1348 C 0.47238 0.08316 1.00363 0.0
C1349 C 0.48537 0.03134 0.02863 0.0
C1350 C 0.49126 0.99233 0.02389 0.0
C1351 C 0.47885 0.96204 0.03586 0.0
C1352 C 0.46147 0.97189 0.0535 0.0
C1353 C 0.45657 0.01162 0.05895 0.0
C1354 C 0.46789 0.04166 0.04617 0.0
H1355 H 0.78304 0.61961 0.25709 0.0
H1356 H 0.69954 0.68292 0.29124 0.0
H1357 H 0.71273 0.74322 0.27223 0.0
H1358 H 0.85059 0.70411 0.24691 0.0
H1359 H 0.85865 0.68643 0.2227 0.0
H1360 H 0.84924 0.65217 0.24193 0.0
H1361 H 0.79287 0.62311 0.22231 0.0
H1362 H 0.80166 0.65743 0.20319 0.0
H1363 H 0.75501 0.6551 0.21434 0.0
H1364 H 0.72678 0.79265 0.24518 0.0
H1365 H 0.73993 0.82478 0.21367 0.0
H1366 H 0.81357 0.72783 0.19758 0.0
C1367 C 0.76903 0.64678 0.26116 0.0
C1368 C 0.74111 0.64715 0.2759 0.0
C1369 C 0.72187 0.68254 0.28035 0.0
C1370 C 0.72908 0.71678 0.26953 0.0
C1371 C 0.7557 0.715 0.25442 0.0
C1372 C 0.77572 0.68083 0.25045 0.0
C1373 C 0.79875 0.68428 0.23201 0.0
C1374 C 0.84187 0.6816 0.23614 0.0
C1375 C 0.7863 0.65316 0.2171 0.0
C1376 C 0.78763 0.72516 0.22572 0.0
C1377 C 0.76326 0.74288 0.23889 0.0
C1378 C 0.74654 0.77935 0.23504 0.0
C1379 C 0.75422 0.79751 0.21716 0.0
C1380 C 0.77797 0.7789 0.20332 0.0
C1381 C 0.79567 0.74293 0.20802 0.0
H1382 H 0.97732 0.97843 0.45131 0.0
H1383 H 0.92041 0.09089 0.45775 0.0
H1384 H 0.94603 0.09676 0.49086 0.0
H1385 H 0.96461 0.94543 0.50116 0.0
H1386 H 0.01095 0.92219 0.50177 0.0
H1387 H 0.98546 0.92594 0.47931 0.0
H1388 H 0.04425 0.96066 0.46409 0.0
H1389 H 0.06954 0.95792 0.48665 0.0
H1390 H 0.06268 1.00473 0.47511 0.0
H1391 H 0.98157 0.09248 0.52227 0.0
H1392 H 0.01718 0.07415 0.55165 0.0
H1393 H 0.05188 0.96496 0.5245 0.0
C1394 C 0.96971 1.00399 0.45983 0.0
C1395 C 0.94672 0.03417 0.452 0.0
C1396 C 0.9374 0.06714 0.46356 0.0
C1397 C 0.95225 0.07095 0.48228 0.0
C1398 C 0.97624 0.04147 0.48919 0.0
C1399 C 0.98437 1.0083 0.47846 0.0
C1400 C 0.01124 0.98107 0.48914 0.0
C1401 C 0.9919 0.94131 0.49309 0.0
C1402 C 0.04917 0.9758 0.47808 0.0
C1403 C 0.01709 1.00418 0.50759 0.0
C1404 C 0.99685 0.03906 0.50725 0.0
C1405 C 0.99739 0.06519 0.52272 0.0
C1406 C 0.01786 0.05468 0.53927 0.0
C1407 C 0.03743 0.01831 0.54026 0.0
C1408 C 0.03781 0.99326 0.524 0.0
H1409 H 0.69337 0.21479 0.71385 0.0
H1410 H 0.81511 0.2028 0.70334 0.0
H1411 H 0.82861 0.24665 0.73097 0.0
H1412 H 0.69349 0.31401 0.7251 0.0
H1413 H 0.6584 0.31186 0.74422 0.0
H1414 H 0.65766 0.2759 0.72513 0.0
H1415 H 0.66258 0.21914 0.7499 0.0
H1416 H 0.66151 0.2549 0.76907 0.0
H1417 H 0.70023 0.22005 0.76763 0.0
H1418 H 0.82857 0.296 0.75768 0.0
H1419 H 0.81596 0.33569 0.78667 0.0
H1420 H 0.69377 0.31854 0.77901 0.0
C1421 C 0.7228 0.22 0.71801 0.0
C1422 C 0.75332 0.20484 0.70689 0.0
C1423 C 0.79154 0.21344 0.71212 0.0
C1424 C 0.7994 0.23879 0.72753 0.0
C1425 C 0.76863 0.25521 0.73752 0.0
C1426 C 0.73114 0.24533 0.73337 0.0
C1427 C 0.70343 0.26742 0.74627 0.0
C1428 C 0.67667 0.29386 0.73446 0.0
C1429 C 0.6806 0.23867 0.75898 0.0
C1430 C 0.73117 0.29159 0.75813 0.0
C1431 C 0.76861 0.28432 0.75273 0.0
C1432 C 0.79937 0.30193 0.76208 0.0
C1433 C 0.79182 0.32519 0.77836 0.0
C1434 C 0.7538 0.33037 0.78517 0.0
C1435 C 0.7231 0.31533 0.77412 0.0
H1436 H 0.18187 0.14884 0.76458 0.0
H1437 H 0.28808 0.14184 0.79644 0.0
H1438 H 0.31071 0.20259 0.78051 0.0
H1439 H 0.22276 0.16909 0.72207 0.0
H1440 H 0.18599 0.20132 0.71315 0.0
H1441 H 0.1742 0.16464 0.73071 0.0
H1442 H 0.14673 0.21822 0.75354 0.0
H1443 H 0.15827 0.25524 0.7359 0.0
H1444 H 0.17612 0.25957 0.76019 0.0
H1445 H 0.32693 0.25506 0.75595 0.0
H1446 H 0.33485 0.29263 0.72562 0.0
H1447 H 0.21823 0.26444 0.70977 0.0
C1448 C 0.20929 0.16098 0.76875 0.0
C1449 C 0.23313 0.14086 0.78181 0.0
C1450 C 0.26907 0.15722 0.78673 0.0
C1451 C 0.28218 0.19165 0.77768 0.0
C1452 C 0.25878 0.20954 0.76395 0.0
C1453 C 0.22281 0.19489 0.75972 0.0
C1454 C 0.20545 0.2153 0.7425 0.0
C1455 C 0.19662 0.18584 0.72616 0.0
C1456 C 0.16951 0.23847 0.74839 0.0
C1457 C 0.23788 0.24251 0.73706 0.0
C1458 C 0.26818 0.23949 0.74977 0.0
C1459 C 0.30297 0.25848 0.74623 0.0
C1460 C 0.30722 0.27991 0.72902 0.0
C1461 C 0.277 0.28165 0.71551 0.0
C1462 C 0.24156 0.26401 0.72003 0.0
H1463 H 0.20815 0.69629 0.22496 0.0
H1464 H 0.32321 0.69562 0.20142 0.0
H1465 H 0.34683 0.73007 0.2304 0.0
H1466 H 0.21008 0.78898 0.24455 0.0
H1467 H 0.18428 0.77837 0.2665 0.0
H1468 H 0.17643 0.74887 0.24529 0.0
H1469 H 0.19384 0.68566 0.26402 0.0
H1470 H 0.20039 0.71478 0.2855 0.0
H1471 H 0.23843 0.68339 0.27699 0.0
H1472 H 0.35612 0.77343 0.25921 0.0
H1473 H 0.3535 0.80981 0.29018 0.0
H1474 H 0.2334 0.78003 0.29616 0.0
C1475 C 0.23857 0.70165 0.22642 0.0
C1476 C 0.26407 0.69272 0.21116 0.0
C1477 C 0.30349 0.70153 0.21318 0.0
C1478 C 0.31704 0.72155 0.22945 0.0
C1479 C 0.29089 0.73208 0.24375 0.0
C1480 C 0.25273 0.7213 0.24278 0.0
C1481 C 0.23066 0.73708 0.26004 0.0
C1482 C 0.19846 0.76498 0.2537 0.0
C1483 C 0.21491 0.70322 0.27237 0.0
C1484 C 0.26214 0.7592 0.2705 0.0
C1485 C 0.29655 0.75631 0.26072 0.0
C1486 C 0.32946 0.77545 0.26716 0.0
C1487 C 0.32762 0.79655 0.28457 0.0
C1488 C 0.29324 0.79799 0.29537 0.0
C1489 C 0.25995 0.77966 0.28803 0.0
H1490 H 0.98363 0.47316 0.56124 0.0
H1491 H 0.92365 0.58431 0.55691 0.0
H1492 H 0.9439 0.58968 0.52281 0.0
H1493 H 0.06456 0.50164 0.53418 0.0
H1494 H 0.07146 0.4548 0.52253 0.0
H1495 H 0.04911 0.45724 0.54597 0.0
H1496 H 0.98976 0.42007 0.533 0.0
H1497 H 0.01227 0.4168 0.50962 0.0
H1498 H 0.96535 0.43837 0.51198 0.0
H1499 H 0.97543 0.58595 0.49029 0.0
H1500 H 0.00973 0.56988 0.46015 0.0
H1501 H 0.05036 0.46138 0.48554 0.0
C1502 C 0.97419 0.49834 0.55303 0.0
C1503 C 0.95186 0.5283 0.56177 0.0
C1504 C 0.94011 0.56069 0.55049 0.0
C1505 C 0.95189 0.56421 0.53117 0.0
C1506 C 0.97532 0.53503 0.52333 0.0
C1507 C 0.98589 0.50242 0.5338 0.0
C1508 C 0.01221 0.47587 0.52215 0.0
C1509 C 0.05166 0.47218 0.53179 0.0
C1510 C 0.99378 0.43538 0.519 0.0
C1511 C 0.01487 0.49869 0.50345 0.0
C1512 C 0.99351 0.53282 0.50452 0.0
C1513 C 0.99181 0.55908 0.48921 0.0
C1514 C 0.01141 0.54966 0.47216 0.0
C1515 C 0.03236 0.51414 0.4704 0.0
C1516 C 0.03472 0.48876 0.48646 0.0
H1517 H 0.49831 0.52964 0.03433 0.0
H1518 H 0.53851 0.40948 0.03023 0.0
H1519 H 0.5078 0.40296 0.99829 0.0
H1520 H 0.40698 0.51535 0.01116 0.0
H1521 H 0.40836 0.56131 0.99835 0.0
H1522 H 0.4326 0.55655 0.02114 0.0
H1523 H 0.49652 0.57859 0.0054 0.0
H1524 H 0.47226 0.58433 0.98272 0.0
H1525 H 0.51388 0.55323 0.98425 0.0
H1526 H 0.4728 0.40925 0.96711 0.0
H1527 H 0.44504 0.43123 0.93623 0.0
H1528 H 0.42821 0.54762 0.96001 0.0
C1529 C 0.50075 0.50206 0.02661 0.0
C1530 C 0.52083 0.47005 0.03466 0.0
C1531 C 0.52367 0.43447 0.02417 0.0
C1532 C 0.50589 0.43035 0.00617 0.0
C1533 C 0.48553 0.46215 0.99884 0.0
C1534 C 0.48349 0.49757 0.00853 0.0
C1535 C 0.46178 0.52786 0.99689 0.0
C1536 C 0.42526 0.54104 0.00752 0.0
C1537 C 0.48766 0.56307 0.99202 0.0
C1538 C 0.45221 0.50402 0.97904 0.0
C1539 C 0.4656 0.46596 0.98066 0.0
C1540 C 0.46187 0.43882 0.96573 0.0
C1541 C 0.44572 0.45138 0.94834 0.0
C1542 C 0.43368 0.49073 0.94601 0.0
C1543 C 0.43594 0.51705 0.96172 0.0
H1544 H 0.30133 0.76573 0.15842 0.0
H1545 H 0.19368 0.73774 0.13034 0.0
H1546 H 0.19587 0.80147 0.11353 0.0
H1547 H 0.27292 0.85913 0.17072 0.0
H1548 H 0.31965 0.88116 0.16849 0.0
H1549 H 0.31535 0.82996 0.1743 0.0
H1550 H 0.35771 0.81169 0.14482 0.0
H1551 H 0.36255 0.86299 0.13902 0.0
H1552 H 0.34477 0.82906 0.12117 0.0
H1553 H 0.20606 0.87149 0.10276 0.0
H1554 H 0.22121 0.94225 0.10032 0.0
H1555 H 0.31616 0.92691 0.13972 0.0
C1556 C 0.2783 0.77258 0.14857 0.0
C1557 C 0.24721 0.74653 0.14584 0.0
C1558 C 0.21818 0.75668 0.1325 0.0
C1559 C 0.21905 0.79303 0.12297 0.0
C1560 C 0.2489 0.81894 0.12707 0.0
C1561 C 0.27792 0.80913 0.13963 0.0
C1562 C 0.3035 0.84388 0.14398 0.0
C1563 C 0.30278 0.85412 0.16565 0.0
C1564 C 0.34457 0.83645 0.13681 0.0
C1565 C 0.28396 0.87513 0.13216 0.0
C1566 C 0.25313 0.85999 0.1221 0.0
C1567 C 0.23029 0.88354 0.11046 0.0
C1568 C 0.23909 0.9236 0.10916 0.0
C1569 C 0.26978 0.93975 0.11987 0.0
C1570 C 0.29251 0.91518 0.13144 0.0
H1571 H 0.98214 0.45605 0.40477 0.0
H1572 H 0.04048 0.56559 0.39373 0.0
H1573 H 0.98359 0.59029 0.37638 0.0
H1574 H 0.9184 0.45473 0.35938 0.0
H1575 H 0.87945 0.43502 0.37349 0.0
H1576 H 0.92816 0.42202 0.37918 0.0
H1577 H 0.91681 0.44561 0.4143 0.0
H1578 H 0.86874 0.45994 0.40868 0.0
H1579 H 0.90153 0.49543 0.41861 0.0
H1580 H 0.91594 0.60855 0.36809 0.0
H1581 H 0.84549 0.61621 0.36658 0.0
H1582 H 0.83196 0.49457 0.38377 0.0
C1583 C 0.98366 0.48411 0.39747 0.0
C1584 C 0.01568 0.50859 0.39993 0.0
C1585 C 0.01645 0.54609 0.39131 0.0
C1586 C 0.98416 0.5604 0.38161 0.0
C1587 C 0.95172 0.53656 0.38062 0.0
C1588 C 0.95161 0.49875 0.38796 0.0
C1589 C 0.9118 0.48138 0.38805 0.0
C1590 C 0.90931 0.44621 0.37419 0.0
C1591 C 0.89901 0.46997 0.40862 0.0
C1592 C 0.88925 0.51589 0.3806 0.0
C1593 C 0.91262 0.54732 0.37612 0.0
C1594 C 0.89747 0.58374 0.371 0.0
C1595 C 0.85746 0.58794 0.37033 0.0
C1596 C 0.83328 0.55596 0.37496 0.0
C1597 C 0.84961 0.51951 0.3799 0.0
H1598 H 0.20671 0.07505 0.62219 0.0
H1599 H 0.3011 0.0764 0.58119 0.0
H1600 H 0.31563 0.14464 0.59035 0.0
H1601 H 0.17781 0.17903 0.61576 0.0
H1602 H 0.16694 0.18495 0.64105 0.0
H1603 H 0.16103 0.13774 0.62964 0.0
H1604 H 0.20562 0.10627 0.65512 0.0
H1605 H 0.21167 0.15325 0.66658 0.0
H1606 H 0.25301 0.126 0.65857 0.0
H1607 H 0.32536 0.20882 0.60692 0.0
H1608 H 0.32922 0.26443 0.6295 0.0
H1609 H 0.22559 0.22388 0.65809 0.0
C1610 C 0.22991 0.08994 0.61483 0.0
C1611 C 0.25258 0.07043 0.60089 0.0
C1612 C 0.28306 0.09081 0.59179 0.0
C1613 C 0.29154 0.12964 0.59687 0.0
C1614 C 0.269 0.14783 0.61088 0.0
C1615 C 0.23862 0.12879 0.61962 0.0
C1616 C 0.22064 0.15394 0.63523 0.0
C1617 C 0.17914 0.16455 0.6301 0.0
C1618 C 0.22289 0.13366 0.65504 0.0
C1619 C 0.24648 0.18955 0.63431 0.0
C1620 C 0.27402 0.18556 0.62009 0.0
C1621 C 0.30336 0.21284 0.61778 0.0
C1622 C 0.30511 0.24459 0.63064 0.0
C1623 C 0.27757 0.24892 0.64559 0.0
C1624 C 0.24724 0.22152 0.64693 0.0
H1625 H 0.68681 0.54471 0.89115 0.0
H1626 H 0.68392 0.47668 0.83815 0.0
H1627 H 0.61322 0.48006 0.83824 0.0
H1628 H 0.60833 0.49791 0.91305 0.0
H1629 H 0.59055 0.54148 0.92485 0.0
H1630 H 0.64075 0.53701 0.9194 0.0
H1631 H 0.63831 0.60243 0.90042 0.0
H1632 H 0.58793 0.60695 0.90571 0.0
H1633 H 0.60445 0.60798 0.88104 0.0
H1634 H 0.54226 0.4877 0.84524 0.0
H1635 H 0.47779 0.49423 0.86011 0.0
H1636 H 0.5278 0.55632 0.90849 0.0
C1637 C 0.67135 0.53103 0.8794 0.0
C1638 C 0.69088 0.51067 0.86457 0.0
C1639 C 0.66955 0.49251 0.84966 0.0
C1640 C 0.62939 0.49446 0.84952 0.0
C1641 C 0.61097 0.51465 0.8644 0.0
C1642 C 0.63131 0.5324 0.87913 0.0
C1643 C 0.60479 0.54955 0.89426 0.0
C1644 C 0.6115 0.53032 0.91405 0.0
C1645 C 0.60913 0.59439 0.89541 0.0
C1646 C 0.56636 0.53808 0.88594 0.0
C1647 C 0.57036 0.51848 0.86857 0.0
C1648 C 0.53875 0.50338 0.85873 0.0
C1649 C 0.50226 0.50741 0.86717 0.0
C1650 C 0.49797 0.52592 0.88533 0.0
C1651 C 0.53035 0.54228 0.8945 0.0
H1652 H 0.73368 0.12087 0.90887 0.0
H1653 H 0.76275 0.04988 0.85885 0.0
H1654 H 0.75236 0.10637 0.83766 0.0
H1655 H 0.66241 0.18678 0.88444 0.0
H1656 H 0.67893 0.22967 0.89722 0.0
H1657 H 0.6815 0.18207 0.90846 0.0
H1658 H 0.75413 0.19204 0.91409 0.0
H1659 H 0.75195 0.23939 0.9027 0.0
H1660 H 0.78489 0.20278 0.89382 0.0
H1661 H 0.74902 0.1691 0.82272 0.0
H1662 H 0.75112 0.23774 0.8134 0.0
H1663 H 0.72408 0.27289 0.87231 0.0
C1664 C 0.73671 0.11735 0.8934 0.0
C1665 C 0.74835 0.08128 0.8853 0.0
C1666 C 0.75349 0.07744 0.86516 0.0
C1667 C 0.74751 0.10923 0.85303 0.0
C1668 C 0.73705 0.14476 0.86137 0.0
C1669 C 0.7317 0.14935 0.88102 0.0
C1670 C 0.72487 0.19214 0.88614 0.0
C1671 C 0.68452 0.19801 0.89456 0.0
C1672 C 0.75581 0.20748 0.9 0.0
C1673 C 0.72851 0.21072 0.86634 0.0
C1674 C 0.73499 0.18241 0.85238 0.0
C1675 C 0.74261 0.19158 0.83331 0.0
C1676 C 0.74339 0.23088 0.82817 0.0
C1677 C 0.73595 0.26088 0.84195 0.0
C1678 C 0.72871 0.25061 0.86138 0.0
H1679 H 0.20248 0.53545 0.62355 0.0
H1680 H 0.19523 0.44799 0.66885 0.0
H1681 H 0.12453 0.45166 0.66773 0.0
H1682 H 0.12194 0.59444 0.63912 0.0
H1683 H 0.1066 0.60471 0.61484 0.0
H1684 H 0.15652 0.5961 0.61975 0.0
H1685 H 0.15783 0.54022 0.59429 0.0
H1686 H 0.1081 0.54895 0.58916 0.0
H1687 H 0.12375 0.50063 0.59612 0.0
H1688 H 0.05365 0.46377 0.66068 0.0
H1689 H 0.99017 0.47992 0.64668 0.0
H1690 H 0.04518 0.56002 0.60679 0.0
C1691 C 0.18613 0.51708 0.63329 0.0
C1692 C 0.20449 0.49144 0.6463 0.0
C1693 C 0.18186 0.46785 0.65873 0.0
C1694 C 0.14166 0.46988 0.65827 0.0
C1695 C 0.12449 0.49574 0.64536 0.0
C1696 C 0.14612 0.51877 0.63304 0.0
C1697 C 0.12099 0.54307 0.61997 0.0
C1698 C 0.12687 0.58719 0.62365 0.0
C1699 C 0.12809 0.53257 0.59863 0.0
C1700 C 0.0818 0.52978 0.62665 0.0
C1701 C 0.08419 0.50273 0.64141 0.0
C1702 C 0.05146 0.48517 0.64923 0.0
C1703 C 0.01553 0.49467 0.64133 0.0
C1704 C 0.01287 0.52118 0.62572 0.0
C1705 C 0.0464 0.53966 0.61876 0.0
H1706 H 0.79453 0.92703 0.37186 0.0
H1707 H 0.69885 0.94728 0.41074 0.0
H1708 H 0.68297 0.87681 0.40976 0.0
H1709 H 0.75079 0.84979 0.34286 0.0
H1710 H 0.79398 0.82107 0.34098 0.0
H1711 H 0.79687 0.8736 0.34369 0.0
H1712 H 0.83965 0.86498 0.37383 0.0
H1713 H 0.83692 0.81245 0.37118 0.0
H1714 H 0.82284 0.83524 0.39361 0.0
H1715 H 0.67652 0.80426 0.40444 0.0
H1716 H 0.6835 0.73357 0.39751 0.0
H1717 H 0.78589 0.75778 0.36388 0.0
C1718 C 0.77011 0.91657 0.38004 0.0
C1719 C 0.74783 0.94285 0.39134 0.0
C1720 C 0.71646 0.92784 0.40206 0.0
C1721 C 0.70706 0.8878 0.40152 0.0
C1722 C 0.72958 0.86263 0.3904 0.0
C1723 C 0.76077 0.87623 0.38003 0.0
C1724 C 0.78141 0.84226 0.37017 0.0
C1725 C 0.78071 0.84697 0.34811 0.0
C1726 C 0.82265 0.83852 0.37765 0.0
C1727 C 0.7569 0.80766 0.37658 0.0
C1728 C 0.72686 0.82027 0.38804 0.0
C1729 C 0.70002 0.79404 0.39554 0.0
C1730 C 0.70416 0.75383 0.39145 0.0
C1731 C 0.73523 0.73983 0.38016 0.0
C1732 C 0.76184 0.76738 0.37259 0.0
H1733 H 0.4463 0.45097 0.08716 0.0
H1734 H 0.5241 0.51363 0.1249 0.0
H1735 H 0.47144 0.52235 0.14874 0.0
H1736 H 0.36832 0.51293 0.0942 0.0
H1737 H 0.33317 0.47431 0.09279 0.0
H1738 H 0.37817 0.46918 0.08038 0.0
H1739 H 0.39042 0.40359 0.09829 0.0
H1740 H 0.34545 0.40874 0.11087 0.0
H1741 H 0.38914 0.40257 0.12429 0.0
H1742 H 0.40693 0.529 0.1671 0.0
H1743 H 0.33836 0.53544 0.17668 0.0
H1744 H 0.30564 0.46945 0.12584 0.0
C1745 C 0.45245 0.46656 0.10043 0.0
C1746 C 0.4892 0.48205 0.10407 0.0
C1747 C 0.49613 0.50146 0.12183 0.0
C1748 C 0.46641 0.5065 0.13544 0.0
C1749 C 0.43016 0.49158 0.1311 0.0
C1750 C 0.42334 0.47193 0.11397 0.0
C1751 C 0.3817 0.46115 0.11176 0.0
C1752 C 0.36433 0.48057 0.09373 0.0
C1753 C 0.37639 0.41635 0.11128 0.0
C1754 C 0.3657 0.47861 0.13011 0.0
C1755 C 0.39386 0.49558 0.14135 0.0
C1756 C 0.3848 0.51537 0.1585 0.0
C1757 C 0.34593 0.51874 0.16391 0.0
C1758 C 0.31701 0.50289 0.15198 0.0
C1759 C 0.3273 0.48177 0.13525 0.0
H1760 H 0.81941 0.421 0.63554 0.0
H1761 H 0.72394 0.43837 0.59673 0.0
H1762 H 0.71137 0.36687 0.5967 0.0
H1763 H 0.85114 0.32528 0.61423 0.0
H1764 H 0.86433 0.30638 0.63756 0.0
H1765 H 0.868 0.35823 0.63274 0.0
H1766 H 0.82478 0.37318 0.66239 0.0
H1767 H 0.82126 0.32159 0.66734 0.0
H1768 H 0.77838 0.35022 0.66413 0.0
H1769 H 0.70228 0.29545 0.60612 0.0
H1770 H 0.69965 0.23158 0.62301 0.0
H1771 H 0.80722 0.25874 0.65109 0.0
C1772 C 0.79642 0.40956 0.62671 0.0
C1773 C 0.77268 0.43497 0.61612 0.0
C1774 C 0.7427 0.41917 0.60479 0.0
C1775 C 0.73537 0.37864 0.60468 0.0
C1776 C 0.75905 0.35425 0.6155 0.0
C1777 C 0.78946 0.36913 0.62599 0.0
C1778 C 0.8094 0.33722 0.63722 0.0
C1779 C 0.85067 0.33144 0.63 0.0
C1780 C 0.80836 0.34609 0.65905 0.0
C1781 C 0.78449 0.30237 0.63214 0.0
C1782 C 0.75547 0.3126 0.61963 0.0
C1783 C 0.72558 0.28669 0.61542 0.0
C1784 C 0.72444 0.25024 0.62495 0.0
C1785 C 0.75318 0.24008 0.6384 0.0
C1786 C 0.78476 0.2656 0.6409 0.0
H1787 H 0.51553 0.99716 0.89253 0.0
H1788 H 0.53284 0.11084 0.91897 0.0
H1789 H 0.47397 0.13549 0.90333 0.0
H1790 H 0.46422 0.03088 0.84683 0.0
H1791 H 0.43204 0.98962 0.84833 0.0
H1792 H 0.48074 0.98489 0.85656 0.0
H1793 H 0.45577 0.96156 0.88988 0.0
H1794 H 0.40724 0.96671 0.88191 0.0
H1795 H 0.42301 0.99232 0.90324 0.0
H1796 H 0.40743 0.14334 0.89044 0.0
H1797 H 0.33909 0.13295 0.88255 0.0
H1798 H 0.36445 0.01297 0.86592 0.0
C1799 C 0.50802 0.02786 0.89404 0.0
C1800 C 0.52907 0.05258 0.90637 0.0
C1801 C 0.51743 0.09195 0.90909 0.0
C1802 C 0.48407 0.10609 0.90028 0.0
C1803 C 0.46272 0.08035 0.88891 0.0
C1804 C 0.47443 0.04203 0.88568 0.0
C1805 C 0.44339 0.01813 0.87605 0.0
C1806 C 0.45585 1.00513 0.85573 0.0
C1807 C 0.43167 0.98264 0.88852 0.0
C1808 C 0.41182 0.04836 0.87514 0.0
C1809 C 0.42366 0.08437 0.88215 0.0
C1810 C 0.39811 0.11558 0.88447 0.0
C1811 C 0.35937 0.10947 0.87995 0.0
C1812 C 0.34666 0.07223 0.87358 0.0
C1813 C 0.37348 0.04186 0.87062 0.0
H1814 H 0.71736 0.72183 0.14505 0.0
H1815 H 0.82665 0.75598 0.12035 0.0
H1816 H 0.82663 0.69619 0.10019 0.0
H1817 H 0.73821 0.62397 0.15004 0.0
H1818 H 0.69133 0.6056 0.14405 0.0
H1819 H 0.69645 0.65403 0.15407 0.0
H1820 H 0.66092 0.68362 0.12474 0.0
H1821 H 0.65537 0.63511 0.11467 0.0
H1822 H 0.67791 0.67323 0.10066 0.0
H1823 H 0.82078 0.62761 0.08756 0.0
H1824 H 0.80624 0.55765 0.08103 0.0
H1825 H 0.69944 0.56876 0.11248 0.0
C1826 C 0.74072 0.71724 0.13497 0.0
C1827 C 0.77185 0.74377 0.13414 0.0
C1828 C 0.80214 0.73655 0.12095 0.0
C1829 C 0.80248 0.7025 0.10953 0.0
C1830 C 0.77205 0.67624 0.11123 0.0
C1831 C 0.74137 0.68352 0.12338 0.0
C1832 C 0.71379 0.64916 0.12368 0.0
C1833 C 0.70973 0.6322 0.14417 0.0
C1834 C 0.67467 0.661 0.11544 0.0
C1835 C 0.7344 0.62086 0.11033 0.0
C1836 C 0.76796 0.63708 0.10327 0.0
C1837 C 0.794 0.61504 0.09245 0.0
C1838 C 0.7856 0.57544 0.08883 0.0
C1839 C 0.75125 0.5586 0.09574 0.0
C1840 C 0.72514 0.58165 0.10641 0.0
H1841 H 0.18589 0.05971 0.38368 0.0
H1842 H 0.18508 0.95723 0.34638 0.0
H1843 H 0.1142 0.95654 0.34754 0.0
H1844 H 0.11104 0.0296 0.4142 0.0
H1845 H 0.09159 0.07819 0.41739 0.0
H1846 H 0.14169 0.07199 0.41216 0.0
H1847 H 0.13502 0.11774 0.38252 0.0
H1848 H 0.0847 0.12375 0.38757 0.0
H1849 H 0.10014 0.10643 0.36421 0.0
H1850 H 0.04259 0.96482 0.35485 0.0
H1851 H 0.97871 0.97898 0.36922 0.0
H1852 H 0.02761 0.07612 0.40108 0.0
C1853 C 0.17092 0.03726 0.37558 0.0
C1854 C 0.19118 1.00854 0.3649 0.0
C1855 C 0.17027 0.97961 0.35464 0.0
C1856 C 0.12996 0.97909 0.35515 0.0
C1857 C 0.1109 1.00785 0.36588 0.0
C1858 C 0.13084 0.03635 0.37592 0.0
C1859 C 0.10405 0.06265 0.38728 0.0
C1860 C 0.1126 0.06044 0.40904 0.0
C1861 C 0.10611 0.10516 0.37995 0.0
C1862 C 0.0659 0.04401 0.38248 0.0
C1863 C 0.07018 0.01272 0.36992 0.0
C1864 C 0.03889 0.98963 0.36445 0.0
C1865 C 1.00267 0.998 0.37253 0.0
C1866 C 0.99826 0.02896 0.38597 0.0
C1867 C 0.03014 0.05276 0.39052 0.0
H1868 H 0.23852 0.73429 0.35083 0.0
H1869 H 0.34086 0.77545 0.37984 0.0
H1870 H 0.34213 0.71453 0.39923 0.0
H1871 H 0.19555 0.67979 0.39072 0.0
H1872 H 0.17955 0.64115 0.37486 0.0
H1873 H 0.18378 0.69058 0.36598 0.0
H1874 H 0.22829 0.66559 0.3385 0.0
H1875 H 0.22482 0.61627 0.34753 0.0
H1876 H 0.27113 0.63886 0.34454 0.0
H1877 H 0.33411 0.64534 0.41372 0.0
H1878 H 0.31625 0.57686 0.42214 0.0
H1879 H 0.22423 0.58165 0.38024 0.0
C1880 C 0.26091 0.73086 0.36147 0.0
C1881 C 0.28952 0.75961 0.36384 0.0
C1882 C 0.31821 0.75407 0.378 0.0
C1883 C 0.31939 0.7194 0.38895 0.0
C1884 C 0.29179 0.69069 0.38544 0.0
C1885 C 0.26301 0.69634 0.37207 0.0
C1886 C 0.23858 0.66024 0.36963 0.0
C1887 C 0.19691 0.66844 0.37567 0.0
C1888 C 0.24087 0.64432 0.34882 0.0
C1889 C 0.25815 0.63316 0.38363 0.0
C1890 C 0.28852 0.65102 0.39285 0.0
C1891 C 0.31032 0.63113 0.40657 0.0
C1892 C 0.3002 0.59223 0.41118 0.0
C1893 C 0.26905 0.57376 0.4018 0.0
C1894 C 0.24834 0.5946 0.3877 0.0
H1895 H 0.53077 0.96497 0.11007 0.0
H1896 H 0.50565 0.07377 0.14021 0.0
H1897 H 0.56982 0.07156 0.15527 0.0
H1898 H 0.59391 0.9189 0.14578 0.0
H1899 H 0.62567 0.90047 0.12731 0.0
H1900 H 0.57545 0.90661 0.12226 0.0
H1901 H 0.59257 0.9505 0.09295 0.0
H1902 H 0.64272 0.9448 0.098 0.0
H1903 H 0.62219 0.99321 0.09653 0.0
H1904 H 0.64029 0.06062 0.1642 0.0
H1905 H 0.7092 0.04329 0.16532 0.0
H1906 H 0.68842 0.94589 0.12636 0.0
C1907 C 0.53835 0.98814 0.12007 0.0
C1908 C 0.51296 0.01961 0.1239 0.0
C1909 C 0.52418 0.049 0.13725 0.0
C1910 C 0.56076 0.04812 0.14576 0.0
C1911 C 0.58579 0.01774 0.14075 0.0
C1912 C 0.57487 0.98828 0.12818 0.0
C1913 C 0.60803 0.9615 0.12317 0.0
C1914 C 0.60029 0.91938 0.13005 0.0
C1915 C 0.61688 0.9626 0.10138 0.0
C1916 C 0.6396 0.98056 0.13472 0.0
C1917 C 0.62627 0.01258 0.14504 0.0
C1918 C 0.65081 0.03536 0.15632 0.0
C1919 C 0.68987 0.02525 0.15691 0.0
C1920 C 0.70406 0.99314 0.146 0.0
C1921 C 0.6784 0.9705 0.13491 0.0
H1922 H 0.28385 0.41203 0.86963 0.0
H1923 H 0.21735 0.4298 0.92194 0.0
H1924 H 0.20342 0.35865 0.92313 0.0
H1925 H 0.22496 0.33738 0.84848 0.0
H1926 H 0.26466 0.30947 0.83901 0.0
H1927 H 0.26908 0.36175 0.84218 0.0
H1928 H 0.32908 0.35147 0.86346 0.0
H1929 H 0.32496 0.29916 0.86027 0.0
H1930 H 0.32607 0.31985 0.88423 0.0
H1931 H 0.19488 0.28526 0.91785 0.0
H1932 H 0.19728 0.21535 0.90832 0.0
H1933 H 0.27184 0.24508 0.86028 0.0
C1934 C 0.26644 0.40099 0.88138 0.0
C1935 C 0.25168 0.42665 0.89571 0.0
C1936 C 0.22922 0.41081 0.91088 0.0
C1937 C 0.22096 0.37042 0.91161 0.0
C1938 C 0.23571 0.34603 0.89718 0.0
C1939 C 0.25839 0.36068 0.88248 0.0
C1940 C 0.27165 0.32809 0.86906 0.0
C1941 C 0.25669 0.33457 0.84847 0.0
C1942 C 0.31554 0.32443 0.86928 0.0
C1943 C 0.25272 0.29281 0.8784 0.0
C1944 C 0.2318 0.3038 0.8945 0.0
C1945 C 0.21134 0.27636 0.90532 0.0
C1946 C 0.21274 0.23666 0.89973 0.0
C1947 C 0.23476 0.22453 0.88355 0.0
C1948 C 0.25479 0.25324 0.87275 0.0
H1949 H 0.963 0.95955 0.58607 0.0
H1950 H 0.03655 1.00462 0.63118 0.0
H1951 H 0.98044 1.00834 0.65334 0.0
H1952 H 0.88993 0.02418 0.59406 0.0
H1953 H 0.85189 0.99043 0.58828 0.0
H1954 H 0.89852 0.98381 0.57775 0.0
H1955 H 0.90157 0.91298 0.59127 0.0
H1956 H 0.85462 0.91923 0.60171 0.0
H1957 H 0.89423 0.9048 0.61671 0.0
H1958 H 0.91318 0.01435 0.66908 0.0
H1959 H 0.84374 0.02313 0.67607 0.0
H1960 H 0.81686 0.97808 0.61917 0.0
C1961 C 0.96752 0.9694 0.60077 0.0
C1962 C 1.00399 0.98191 0.60694 0.0
C1963 C 1.00883 0.99457 0.62625 0.0
C1964 C 0.9771 0.99688 0.63887 0.0
C1965 C 0.94101 0.98614 0.63192 0.0
C1966 C 0.93637 0.97238 0.61328 0.0
C1967 C 0.89469 0.96682 0.60826 0.0
C1968 C 0.8831 0.99286 0.59109 0.0
C1969 C 0.88577 0.92337 0.60426 0.0
C1970 C 0.87624 0.98056 0.62678 0.0
C1971 C 0.90311 0.99093 0.64049 0.0
C1972 C 0.89203 1.00593 0.65847 0.0
C1973 C 0.85262 0.01083 0.66234 0.0
C1974 C 0.8251 1.00157 0.6481 0.0
C1975 C 0.83728 0.9857 0.6303 0.0
loop_
_geom_bond_atom_site_label_1
_geom_bond_atom_site_label_2
_geom_bond_distance
_geom_bond_site_symmetry_2
_ccdc_geom_bond_type
O0 Tb1 2.292 . S
O0 C3 1.255 . S
Tb1 O0 2.292 . S
Tb1 O17 2.326 . S
Tb1 O19 2.500 . S
Tb1 O20 2.473 . S
Tb1 O23 2.324 . S
Eu2 O6 2.292 . S
Eu2 C7 2.852 . S
Eu2 O18 2.324 . S
Eu2 O22 2.326 . S
Eu2 O24 2.500 . S
Eu2 O25 2.473 . S
C3 O0 1.255 . S
C3 O4 1.247 . S
O4 C3 1.247 . S
C5 O17 1.242 . S
C5 O18 1.258 . S
O6 Eu2 2.292 . S
O6 C8 1.255 . S
C7 Eu2 2.852 . S
C7 C11 1.503 . S
C7 O24 1.273 . S
C7 O25 1.257 . S
C8 O6 1.255 . S
C8 O9 1.247 . S
O9 C8 1.247 . S
C10 O22 1.242 . S
C10 O23 1.258 . S
C11 C7 1.503 . S
C11 C12 1.379 . S
C11 C16 1.392 . S
C12 C11 1.379 . S
C12 C13 1.404 . S
C12 H26 0.929 . S
C13 C12 1.404 . S
C13 C14 1.389 . S
C14 C13 1.389 . S
C14 C15 1.399 . S
C14 H27 0.931 . S
C15 C14 1.399 . S
C15 C16 1.390 . S
C16 C11 1.392 . S
C16 C15 1.390 . S
C16 H28 0.929 . S
O17 Tb1 2.326 . S
O17 C5 1.242 . S
O18 Eu2 2.324 . S
O18 C5 1.258 . S
O19 Tb1 2.500 . S
O19 C21 1.273 . S
O20 Tb1 2.473 . S
O20 C21 1.257 . S
C21 O19 1.273 . S
C21 O20 1.257 . S
O22 Eu2 2.326 . S
O22 C10 1.242 . S
O23 Tb1 2.324 . S
O23 C10 1.258 . S
O24 Eu2 2.500 . S
O24 C7 1.273 . S
O25 Eu2 2.473 . S
O25 C7 1.257 . S
H26 C12 0.929 . S
H27 C14 0.931 . S
H28 C16 0.929 . S
O29 Tb30 2.292 . S
O29 C32 1.255 . S
Tb30 O29 2.292 . S
Tb30 O46 2.326 . S
Tb30 O48 2.500 . S
Tb30 O49 2.473 . S
Tb30 O52 2.324 . S
Eu31 O35 2.292 . S
Eu31 C36 2.852 . S
Eu31 O47 2.324 . S
Eu31 O51 2.326 . S
Eu31 O53 2.500 . S
Eu31 O54 2.473 . S
C32 O29 1.255 . S
C32 O33 1.247 . S
O33 C32 1.247 . S
C34 O46 1.242 . S
C34 O47 1.258 . S
O35 Eu31 2.292 . S
O35 C37 1.255 . S
C36 Eu31 2.852 . S
C36 C40 1.503 . S
C36 O53 1.273 . S
C36 O54 1.257 . S
C37 O35 1.255 . S
C37 O38 1.247 . S
O38 C37 1.247 . S
C39 O51 1.242 . S
C39 O52 1.258 . S
C40 C36 1.503 . S
C40 C41 1.379 . S
C40 C45 1.392 . S
C41 C40 1.379 . S
C41 C42 1.404 . S
C41 H55 0.929 . S
C42 C41 1.404 . S
C42 C43 1.389 . S
C43 C42 1.389 . S
C43 C44 1.399 . S
C43 H56 0.931 . S
C44 C43 1.399 . S
C44 C45 1.390 . S
C45 C40 1.392 . S
C45 C44 1.390 . S
C45 H57 0.929 . S
O46 Tb30 2.326 . S
O46 C34 1.242 . S
O47 Eu31 2.324 . S
O47 C34 1.258 . S
O48 Tb30 2.500 . S
O48 C50 1.273 . S
O49 Tb30 2.473 . S
O49 C50 1.257 . S
C50 O48 1.273 . S
C50 O49 1.257 . S
O51 Eu31 2.326 . S
O51 C39 1.242 . S
O52 Tb30 2.324 . S
O52 C39 1.258 . S
O53 Eu31 2.500 . S
O53 C36 1.273 . S
O54 Eu31 2.473 . S
O54 C36 1.257 . S
H55 C41 0.929 . S
H56 C43 0.931 . S
H57 C45 0.929 . S
O58 Tb59 2.292 . S
O58 C61 1.255 . S
Tb59 O58 2.292 . S
Tb59 O75 2.326 . S
Tb59 O77 2.500 . S
Tb59 O78 2.473 . S
Tb59 O81 2.324 1_565 S
Eu60 O64 2.292 . S
Eu60 C65 2.852 . S
Eu60 O76 2.324 . S
Eu60 O80 2.326 . S
Eu60 O82 2.500 . S
Eu60 O83 2.473 . S
C61 O58 1.255 . S
C61 O62 1.247 . S
O62 C61 1.247 . S
C63 O75 1.242 . S
C63 O76 1.258 . S
O64 Eu60 2.292 . S
O64 C66 1.255 . S
C65 Eu60 2.852 . S
C65 C69 1.503 . S
C65 O82 1.273 . S
C65 O83 1.257 . S
C66 O64 1.255 . S
C66 O67 1.247 . S
O67 C66 1.247 . S
C68 O80 1.241 1_545 S
C68 O81 1.258 . S
C69 C65 1.503 . S
C69 C70 1.379 . S
C69 C74 1.392 . S
C70 C69 1.379 . S
C70 C71 1.404 . S
C70 H84 0.929 . S
C71 C70 1.404 . S
C71 C72 1.389 . S
C72 C71 1.389 . S
C72 C73 1.399 . S
C72 H85 0.931 1_455 S
C73 C72 1.399 . S
C73 C74 1.390 . S
C74 C69 1.392 . S
C74 C73 1.390 . S
C74 H86 0.929 . S
O75 Tb59 2.326 . S
O75 C63 1.242 . S
O76 Eu60 2.324 . S
O76 C63 1.258 . S
O77 Tb59 2.500 . S
O77 C79 1.273 . S
O78 Tb59 2.473 . S
O78 C79 1.257 . S
C79 O77 1.273 . S
C79 O78 1.257 . S
O80 Eu60 2.326 . S
O80 C68 1.241 1_565 S
O81 Tb59 2.324 1_545 S
O81 C68 1.258 . S
O82 Eu60 2.500 . S
O82 C65 1.273 . S
O83 Eu60 2.473 . S
O83 C65 1.257 . S
H84 C70 0.929 . S
H85 C72 0.931 1_655 S
H86 C74 0.929 . S
O87 Tb88 2.292 . S
O87 C90 1.255 . S
Tb88 O87 2.292 . S
Tb88 O104 2.326 . S
Tb88 O106 2.500 . S
Tb88 O107 2.473 . S
Tb88 O110 2.324 . S
Eu89 O93 2.292 . S
Eu89 C94 2.852 . S
Eu89 O105 2.324 . S
Eu89 O109 2.326 . S
Eu89 O111 2.500 . S
Eu89 O112 2.473 . S
C90 O87 1.255 . S
C90 O91 1.247 . S
O91 C90 1.247 . S
C92 O104 1.242 . S
C92 O105 1.258 . S
O93 Eu89 2.292 . S
O93 C95 1.255 . S
C94 Eu89 2.852 . S
C94 C98 1.503 . S
C94 O111 1.273 . S
C94 O112 1.257 . S
C95 O93 1.255 . S
C95 O96 1.247 . S
O96 C95 1.247 . S
C97 O109 1.242 . S
C97 O110 1.258 . S
C98 C94 1.503 . S
C98 C99 1.379 . S
C98 C103 1.392 . S
C99 C98 1.379 . S
C99 C100 1.404 . S
C99 H113 0.929 . S
C100 C99 1.404 . S
C100 C101 1.389 . S
C101 C100 1.389 . S
C101 C102 1.399 . S
C101 H114 0.931 . S
C102 C101 1.399 . S
C102 C103 1.390 . S
C103 C98 1.392 . S
C103 C102 1.390 . S
C103 H115 0.929 . S
O104 Tb88 2.326 . S
O104 C92 1.242 . S
O105 Eu89 2.324 . S
O105 C92 1.258 . S
O106 Tb88 2.500 . S
O106 C108 1.273 . S
O107 Tb88 2.473 . S
O107 C108 1.257 . S
C108 O106 1.273 . S
C108 O107 1.257 . S
O109 Eu89 2.326 . S
O109 C97 1.242 . S
O110 Tb88 2.324 . S
O110 C97 1.258 . S
O111 Eu89 2.500 . S
O111 C94 1.273 . S
O112 Eu89 2.473 . S
O112 C94 1.257 . S
H113 C99 0.929 . S
H114 C101 0.931 . S
H115 C103 0.929 . S
O116 Tb117 2.292 . S
O116 C119 1.255 . S
Tb117 O116 2.292 . S
Tb117 O133 2.326 . S
Tb117 O135 2.500 . S
Tb117 O136 2.473 . S
Tb117 O139 2.324 1_565 S
Eu118 O122 2.292 . S
Eu118 C123 2.852 . S
Eu118 O134 2.324 . S
Eu118 O138 2.326 . S
Eu118 O140 2.500 . S
Eu118 O141 2.473 . S
C119 O116 1.255 . S
C119 O120 1.247 . S
O120 C119 1.247 . S
C121 O133 1.242 . S
C121 O134 1.258 . S
O122 Eu118 2.292 . S
O122 C124 1.255 . S
C123 Eu118 2.852 . S
C123 C127 1.503 . S
C123 O140 1.273 . S
C123 O141 1.257 . S
C124 O122 1.255 . S
C124 O125 1.247 . S
O125 C124 1.247 . S
C126 O138 1.242 1_545 S
C126 O139 1.258 . S
C127 C123 1.503 . S
C127 C128 1.379 . S
C127 C132 1.392 . S
C128 C127 1.379 . S
C128 C129 1.404 . S
C128 H142 0.929 . S
C129 C128 1.404 . S
C129 C130 1.389 . S
C130 C129 1.389 . S
C130 C131 1.399 . S
C130 H143 0.931 . S
C131 C130 1.399 . S
C131 C132 1.390 . S
C132 C127 1.392 . S
C132 C131 1.390 . S
C132 H144 0.929 . S
O133 Tb117 2.326 . S
O133 C121 1.242 . S
O134 Eu118 2.324 . S
O134 C121 1.258 . S
O135 Tb117 2.500 . S
O135 C137 1.273 . S
O136 Tb117 2.473 . S
O136 C137 1.257 . S
C137 O135 1.273 . S
C137 O136 1.257 . S
O138 Eu118 2.326 . S
O138 C126 1.242 1_565 S
O139 Tb117 2.324 1_545 S
O139 C126 1.258 . S
O140 Eu118 2.500 . S
O140 C123 1.273 . S
O141 Eu118 2.473 . S
O141 C123 1.257 . S
H142 C128 0.929 . S
H143 C130 0.931 . S
H144 C132 0.929 . S
O145 Tb146 2.292 . S
O145 C148 1.255 . S
Tb146 O145 2.292 . S
Tb146 O162 2.326 . S
Tb146 O164 2.500 . S
Tb146 O165 2.473 . S
Tb146 O168 2.324 . S
Eu147 O151 2.292 . S
Eu147 C152 2.852 . S
Eu147 O163 2.324 . S
Eu147 O167 2.326 . S
Eu147 O169 2.500 . S
Eu147 O170 2.473 . S
C148 O145 1.255 . S
C148 O149 1.247 . S
O149 C148 1.247 . S
C150 O162 1.242 . S
C150 O163 1.258 . S
O151 Eu147 2.292 . S
O151 C153 1.255 . S
C152 Eu147 2.852 . S
C152 C156 1.503 . S
C152 O169 1.273 . S
C152 O170 1.257 . S
C153 O151 1.255 . S
C153 O154 1.247 . S
O154 C153 1.247 . S
C155 O167 1.242 . S
C155 O168 1.258 . S
C156 C152 1.503 . S
C156 C157 1.379 . S
C156 C161 1.392 . S
C157 C156 1.379 . S
C157 C158 1.404 . S
C157 H171 0.929 . S
C158 C157 1.404 . S
C158 C159 1.389 . S
C159 C158 1.389 . S
C159 C160 1.399 . S
C159 H172 0.931 . S
C160 C159 1.399 . S
C160 C161 1.390 . S
C161 C156 1.392 . S
C161 C160 1.390 . S
C161 H173 0.929 . S
O162 Tb146 2.326 . S
O162 C150 1.242 . S
O163 Eu147 2.324 . S
O163 C150 1.258 . S
O164 Tb146 2.500 . S
O164 C166 1.273 . S
O165 Tb146 2.473 . S
O165 C166 1.257 . S
C166 O164 1.273 . S
C166 O165 1.257 . S
O167 Eu147 2.326 . S
O167 C155 1.242 . S
O168 Tb146 2.324 . S
O168 C155 1.258 . S
O169 Eu147 2.500 . S
O169 C152 1.273 . S
O170 Eu147 2.473 . S
O170 C152 1.257 . S
H171 C157 0.929 . S
H172 C159 0.931 . S
H173 C161 0.929 . S
O174 Tb175 2.292 . S
O174 C177 1.255 . S
Tb175 O174 2.292 . S
Tb175 O191 2.326 . S
Tb175 O193 2.500 . S
Tb175 O194 2.473 . S
Tb175 O197 2.324 1_545 S
Eu176 O180 2.292 . S
Eu176 C181 2.852 . S
Eu176 O192 2.324 . S
Eu176 O196 2.326 . S
Eu176 O198 2.500 . S
Eu176 O199 2.473 . S
C177 O174 1.255 . S
C177 O178 1.247 . S
O178 C177 1.247 . S
C179 O191 1.242 . S
C179 O192 1.258 . S
O180 Eu176 2.292 . S
O180 C182 1.255 . S
C181 Eu176 2.852 . S
C181 C185 1.503 . S
C181 O198 1.273 . S
C181 O199 1.257 . S
C182 O180 1.255 . S
C182 O183 1.247 . S
O183 C182 1.247 . S
C184 O196 1.242 1_565 S
C184 O197 1.258 . S
C185 C181 1.503 . S
C185 C186 1.379 . S
C185 C190 1.392 . S
C186 C185 1.379 . S
C186 C187 1.404 . S
C186 H200 0.929 . S
C187 C186 1.404 . S
C187 C188 1.389 . S
C188 C187 1.389 . S
C188 C189 1.399 . S
C188 H201 0.931 1_655 S
C189 C188 1.399 . S
C189 C190 1.390 . S
C190 C185 1.392 . S
C190 C189 1.390 . S
C190 H202 0.929 . S
O191 Tb175 2.326 . S
O191 C179 1.242 . S
O192 Eu176 2.324 . S
O192 C179 1.258 . S
O193 Tb175 2.500 . S
O193 C195 1.273 . S
O194 Tb175 2.473 . S
O194 C195 1.257 . S
C195 O193 1.273 . S
C195 O194 1.257 . S
O196 Eu176 2.326 . S
O196 C184 1.242 1_545 S
O197 Tb175 2.324 1_565 S
O197 C184 1.258 . S
O198 Eu176 2.500 . S
O198 C181 1.273 . S
O199 Eu176 2.473 . S
O199 C181 1.257 . S
H200 C186 0.929 . S
H201 C188 0.931 1_455 S
H202 C190 0.929 . S
O203 Tb204 2.292 . S
O203 C206 1.255 . S
Tb204 O203 2.292 . S
Tb204 O220 2.326 . S
Tb204 O222 2.500 . S
Tb204 O223 2.473 . S
Tb204 O226 2.324 . S
Eu205 O209 2.292 . S
Eu205 C210 2.852 . S
Eu205 O221 2.324 . S
Eu205 O225 2.326 . S
Eu205 O227 2.500 . S
Eu205 O228 2.473 . S
C206 O203 1.255 . S
C206 O207 1.247 . S
O207 C206 1.247 . S
C208 O220 1.242 . S
C208 O221 1.258 . S
O209 Eu205 2.292 . S
O209 C211 1.255 . S
C210 Eu205 2.852 . S
C210 C214 1.503 . S
C210 O227 1.273 . S
C210 O228 1.257 . S
C211 O209 1.255 . S
C211 O212 1.247 . S
O212 C211 1.247 . S
C213 O225 1.242 . S
C213 O226 1.258 . S
C214 C210 1.503 . S
C214 C215 1.379 . S
C214 C219 1.392 . S
C215 C214 1.379 . S
C215 C216 1.404 . S
C215 H229 0.929 . S
C216 C215 1.404 . S
C216 C217 1.389 . S
C217 C216 1.389 . S
C217 C218 1.399 . S
C217 H230 0.931 . S
C218 C217 1.399 . S
C218 C219 1.390 . S
C219 C214 1.392 . S
C219 C218 1.390 . S
C219 H231 0.929 . S
O220 Tb204 2.326 . S
O220 C208 1.242 . S
O221 Eu205 2.324 . S
O221 C208 1.258 . S
O222 Tb204 2.500 . S
O222 C224 1.273 . S
O223 Tb204 2.473 . S
O223 C224 1.257 . S
C224 O222 1.273 . S
C224 O223 1.257 . S
O225 Eu205 2.326 . S
O225 C213 1.242 . S
O226 Tb204 2.324 . S
O226 C213 1.258 . S
O227 Eu205 2.500 . S
O227 C210 1.273 . S
O228 Eu205 2.473 . S
O228 C210 1.257 . S
H229 C215 0.929 . S
H230 C217 0.931 . S
H231 C219 0.929 . S
O232 Tb233 2.292 . S
O232 C235 1.255 . S
Tb233 O232 2.292 . S
Tb233 O249 2.326 . S
Tb233 O251 2.500 . S
Tb233 O252 2.473 . S
Tb233 O255 2.324 . S
Eu234 O238 2.292 . S
Eu234 C239 2.852 . S
Eu234 O250 2.324 . S
Eu234 O254 2.326 . S
Eu234 O256 2.500 . S
Eu234 O257 2.473 . S
C235 O232 1.255 . S
C235 O236 1.247 . S
O236 C235 1.247 . S
C237 O249 1.242 . S
C237 O250 1.258 . S
O238 Eu234 2.292 . S
O238 C240 1.255 . S
C239 Eu234 2.852 . S
C239 C243 1.503 . S
C239 O256 1.273 . S
C239 O257 1.257 . S
C240 O238 1.255 . S
C240 O241 1.247 . S
O241 C240 1.247 . S
C242 O254 1.242 . S
C242 O255 1.258 . S
C243 C239 1.503 . S
C243 C244 1.379 . S
C243 C248 1.392 . S
C244 C243 1.379 . S
C244 C245 1.404 . S
C244 H258 0.929 . S
C245 C244 1.404 . S
C245 C246 1.389 . S
C246 C245 1.389 . S
C246 C247 1.399 . S
C246 H259 0.931 1_655 S
C247 C246 1.399 . S
C247 C248 1.390 . S
C248 C243 1.392 . S
C248 C247 1.390 . S
C248 H260 0.929 . S
O249 Tb233 2.326 . S
O249 C237 1.242 . S
O250 Eu234 2.324 . S
O250 C237 1.258 . S
O251 Tb233 2.500 . S
O251 C253 1.273 . S
O252 Tb233 2.473 . S
O252 C253 1.257 . S
C253 O251 1.273 . S
C253 O252 1.257 . S
O254 Eu234 2.326 . S
O254 C242 1.242 . S
O255 Tb233 2.324 . S
O255 C242 1.258 . S
O256 Eu234 2.500 . S
O256 C239 1.273 . S
O257 Eu234 2.473 . S
O257 C239 1.257 . S
H258 C244 0.929 . S
H259 C246 0.931 1_455 S
H260 C248 0.929 . S
O261 Tb262 2.292 . S
O261 C264 1.255 . S
Tb262 O261 2.292 . S
Tb262 O278 2.326 . S
Tb262 O280 2.500 . S
Tb262 O281 2.473 . S
Tb262 O284 2.324 . S
Eu263 O267 2.292 1_545 S
Eu263 C268 2.852 . S
Eu263 O279 2.324 . S
Eu263 O283 2.326 . S
Eu263 O285 2.500 . S
Eu263 O286 2.473 . S
C264 O261 1.255 . S
C264 O265 1.247 . S
O265 C264 1.247 . S
C266 O278 1.242 . S
C266 O279 1.258 . S
O267 Eu263 2.292 1_565 S
O267 C269 1.255 . S
C268 Eu263 2.852 . S
C268 C272 1.503 . S
C268 O285 1.273 . S
C268 O286 1.257 . S
C269 O267 1.255 . S
C269 O270 1.247 . S
O270 C269 1.247 . S
C271 O283 1.242 . S
C271 O284 1.258 . S
C272 C268 1.503 . S
C272 C273 1.379 . S
C272 C277 1.392 . S
C273 C272 1.379 . S
C273 C274 1.404 . S
C273 H287 0.929 . S
C274 C273 1.404 . S
C274 C275 1.389 . S
C275 C274 1.389 . S
C275 C276 1.399 . S
C275 H288 0.931 . S
C276 C275 1.399 . S
C276 C277 1.390 . S
C277 C272 1.392 . S
C277 C276 1.390 . S
C277 H289 0.929 . S
O278 Tb262 2.326 . S
O278 C266 1.242 . S
O279 Eu263 2.324 . S
O279 C266 1.258 . S
O280 Tb262 2.500 . S
O280 C282 1.273 . S
O281 Tb262 2.473 . S
O281 C282 1.257 . S
C282 O280 1.273 . S
C282 O281 1.257 . S
O283 Eu263 2.326 . S
O283 C271 1.242 . S
O284 Tb262 2.324 . S
O284 C271 1.258 . S
O285 Eu263 2.500 . S
O285 C268 1.273 . S
O286 Eu263 2.473 . S
O286 C268 1.257 . S
H287 C273 0.929 . S
H288 C275 0.931 . S
H289 C277 0.929 . S
O290 Tb291 2.292 . S
O290 C293 1.255 . S
Tb291 O290 2.292 . S
Tb291 O307 2.326 . S
Tb291 O309 2.500 . S
Tb291 O310 2.473 . S
Tb291 O313 2.324 . S
Eu292 O296 2.292 . S
Eu292 C297 2.852 . S
Eu292 O308 2.324 . S
Eu292 O312 2.326 . S
Eu292 O314 2.500 . S
Eu292 O315 2.473 . S
C293 O290 1.255 . S
C293 O294 1.247 . S
O294 C293 1.247 . S
C295 O307 1.242 . S
C295 O308 1.258 . S
O296 Eu292 2.292 . S
O296 C298 1.255 . S
C297 Eu292 2.852 . S
C297 C301 1.503 . S
C297 O314 1.273 . S
C297 O315 1.257 . S
C298 O296 1.255 . S
C298 O299 1.247 . S
O299 C298 1.247 . S
C300 O312 1.242 . S
C300 O313 1.258 . S
C301 C297 1.503 . S
C301 C302 1.379 . S
C301 C306 1.392 . S
C302 C301 1.379 . S
C302 C303 1.404 . S
C302 H316 0.929 . S
C303 C302 1.404 . S
C303 C304 1.389 . S
C304 C303 1.389 . S
C304 C305 1.399 . S
C304 H317 0.931 . S
C305 C304 1.399 . S
C305 C306 1.390 . S
C306 C301 1.392 . S
C306 C305 1.390 . S
C306 H318 0.929 . S
O307 Tb291 2.326 . S
O307 C295 1.242 . S
O308 Eu292 2.324 . S
O308 C295 1.258 . S
O309 Tb291 2.500 . S
O309 C311 1.273 . S
O310 Tb291 2.473 . S
O310 C311 1.257 . S
C311 O309 1.273 . S
C311 O310 1.257 . S
O312 Eu292 2.326 . S
O312 C300 1.242 . S
O313 Tb291 2.324 . S
O313 C300 1.258 . S
O314 Eu292 2.500 . S
O314 C297 1.273 . S
O315 Eu292 2.473 . S
O315 C297 1.257 . S
H316 C302 0.929 . S
H317 C304 0.931 . S
H318 C306 0.929 . S
O319 Tb320 2.292 . S
O319 C322 1.255 1_545 S
Tb320 O319 2.292 . S
Tb320 O336 2.326 1_545 S
Tb320 O338 2.500 . S
Tb320 O339 2.473 . S
Tb320 O342 2.324 1_545 S
Eu321 O325 2.292 . S
Eu321 C326 2.852 . S
Eu321 O337 2.324 . S
Eu321 O341 2.326 . S
Eu321 O343 2.500 . S
Eu321 O344 2.473 . S
C322 O319 1.255 1_565 S
C322 O323 1.247 . S
O323 C322 1.247 . S
C324 O336 1.242 . S
C324 O337 1.258 . S
O325 Eu321 2.292 . S
O325 C327 1.255 . S
C326 Eu321 2.852 . S
C326 C330 1.503 . S
C326 O343 1.273 . S
C326 O344 1.257 . S
C327 O325 1.255 . S
C327 O328 1.247 . S
O328 C327 1.247 . S
C329 O341 1.242 . S
C329 O342 1.258 . S
C330 C326 1.503 . S
C330 C331 1.379 . S
C330 C335 1.392 . S
C331 C330 1.379 . S
C331 C332 1.404 . S
C331 H345 0.929 . S
C332 C331 1.404 . S
C332 C333 1.389 . S
C333 C332 1.389 . S
C333 C334 1.399 . S
C333 H346 0.931 . S
C334 C333 1.399 . S
C334 C335 1.390 . S
C335 C330 1.392 . S
C335 C334 1.390 . S
C335 H347 0.929 . S
O336 Tb320 2.326 1_565 S
O336 C324 1.242 . S
O337 Eu321 2.324 . S
O337 C324 1.258 . S
O338 Tb320 2.500 . S
O338 C340 1.273 . S
O339 Tb320 2.473 . S
O339 C340 1.257 . S
C340 O338 1.273 . S
C340 O339 1.257 . S
O341 Eu321 2.326 . S
O341 C329 1.242 . S
O342 Tb320 2.324 1_565 S
O342 C329 1.258 . S
O343 Eu321 2.500 . S
O343 C326 1.273 . S
O344 Eu321 2.473 . S
O344 C326 1.257 . S
H345 C331 0.929 . S
H346 C333 0.931 . S
H347 C335 0.929 . S
O348 Tb349 2.292 . S
O348 C351 1.255 . S
Tb349 O348 2.292 . S
Tb349 O365 2.326 . S
Tb349 O367 2.500 . S
Tb349 O368 2.473 . S
Tb349 O371 2.324 . S
Eu350 O354 2.292 . S
Eu350 C355 2.852 . S
Eu350 O366 2.324 . S
Eu350 O370 2.326 . S
Eu350 O372 2.500 . S
Eu350 O373 2.473 . S
C351 O348 1.255 . S
C351 O352 1.247 . S
O352 C351 1.247 . S
C353 O365 1.242 . S
C353 O366 1.258 . S
O354 Eu350 2.292 . S
O354 C356 1.255 . S
C355 Eu350 2.852 . S
C355 C359 1.503 . S
C355 O372 1.273 . S
C355 O373 1.257 . S
C356 O354 1.255 . S
C356 O357 1.247 . S
O357 C356 1.247 . S
C358 O370 1.242 . S
C358 O371 1.258 . S
C359 C355 1.503 . S
C359 C360 1.379 . S
C359 C364 1.392 . S
C360 C359 1.379 . S
C360 C361 1.404 . S
C360 H374 0.929 . S
C361 C360 1.404 . S
C361 C362 1.389 . S
C362 C361 1.389 . S
C362 C363 1.399 . S
C362 H375 0.955 . S
C363 C362 1.399 . S
C363 C364 1.390 . S
C364 C359 1.392 . S
C364 C363 1.390 . S
C364 H376 0.929 . S
O365 Tb349 2.326 . S
O365 C353 1.242 . S
O366 Eu350 2.324 . S
O366 C353 1.258 . S
O367 Tb349 2.500 . S
O367 C369 1.273 . S
O368 Tb349 2.473 . S
O368 C369 1.257 . S
C369 O367 1.273 . S
C369 O368 1.257 . S
O370 Eu350 2.326 . S
O370 C358 1.242 . S
O371 Tb349 2.324 . S
O371 C358 1.258 . S
O372 Eu350 2.500 . S
O372 C355 1.273 . S
O373 Eu350 2.473 . S
O373 C355 1.257 . S
H374 C360 0.929 . S
H375 C362 0.955 . S
H376 C364 0.929 . S
O377 Tb378 2.292 . S
O377 C380 1.255 . S
Tb378 O377 2.292 . S
Tb378 O394 2.326 . S
Tb378 O396 2.500 1_565 S
Tb378 O397 2.473 1_565 S
Tb378 O400 2.324 . S
Eu379 O383 2.292 . S
Eu379 C384 2.852 . S
Eu379 O395 2.324 . S
Eu379 O399 2.326 . S
Eu379 O401 2.500 . S
Eu379 O402 2.473 . S
C380 O377 1.255 . S
C380 O381 1.247 . S
O381 C380 1.247 . S
C382 O394 1.242 . S
C382 O395 1.258 . S
O383 Eu379 2.292 . S
O383 C385 1.255 . S
C384 Eu379 2.852 . S
C384 C388 1.503 . S
C384 O401 1.273 . S
C384 O402 1.257 . S
C385 O383 1.255 . S
C385 O386 1.247 . S
O386 C385 1.247 . S
C387 O399 1.242 . S
C387 O400 1.258 . S
C388 C384 1.503 . S
C388 C389 1.379 . S
C388 C393 1.392 . S
C389 C388 1.379 . S
C389 C390 1.404 . S
C389 H403 0.929 . S
C390 C389 1.404 . S
C390 C391 1.389 . S
C391 C390 1.389 . S
C391 C392 1.399 . S
C391 H404 0.931 . S
C392 C391 1.399 . S
C392 C393 1.390 . S
C393 C388 1.392 . S
C393 C392 1.390 . S
C393 H405 0.929 . S
O394 Tb378 2.326 . S
O394 C382 1.242 . S
O395 Eu379 2.324 . S
O395 C382 1.258 . S
O396 Tb378 2.500 1_545 S
O396 C398 1.273 . S
O397 Tb378 2.473 1_545 S
O397 C398 1.257 . S
C398 O396 1.273 . S
C398 O397 1.257 . S
O399 Eu379 2.326 . S
O399 C387 1.242 . S
O400 Tb378 2.324 . S
O400 C387 1.258 . S
O401 Eu379 2.500 . S
O401 C384 1.273 . S
O402 Eu379 2.473 . S
O402 C384 1.257 . S
H403 C389 0.929 . S
H404 C391 0.931 . S
H405 C393 0.929 . S
O406 Tb407 2.292 . S
O406 C409 1.255 . S
Tb407 O406 2.292 . S
Tb407 O423 2.326 . S
Tb407 O425 2.500 . S
Tb407 O426 2.473 . S
Tb407 O429 2.324 . S
Eu408 O412 2.292 . S
Eu408 C413 2.852 . S
Eu408 O424 2.324 . S
Eu408 O428 2.326 . S
Eu408 O430 2.500 . S
Eu408 O431 2.473 . S
C409 O406 1.255 . S
C409 O410 1.247 . S
O410 C409 1.247 . S
C411 O423 1.242 . S
C411 O424 1.258 . S
O412 Eu408 2.292 . S
O412 C414 1.255 . S
C413 Eu408 2.852 . S
C413 C417 1.503 . S
C413 O430 1.273 . S
C413 O431 1.257 . S
C414 O412 1.255 . S
C414 O415 1.247 . S
O415 C414 1.247 . S
C416 O428 1.242 . S
C416 O429 1.258 . S
C417 C413 1.503 . S
C417 C418 1.379 . S
C417 C422 1.392 . S
C418 C417 1.379 . S
C418 C419 1.404 . S
C418 H432 0.929 . S
C419 C418 1.404 . S
C419 C420 1.389 . S
C420 C419 1.389 . S
C420 C421 1.399 . S
C420 H433 0.931 . S
C421 C420 1.399 . S
C421 C422 1.390 . S
C422 C417 1.392 . S
C422 C421 1.390 . S
C422 H434 0.929 . S
O423 Tb407 2.326 . S
O423 C411 1.242 . S
O424 Eu408 2.324 . S
O424 C411 1.258 . S
O425 Tb407 2.500 . S
O425 C427 1.273 . S
O426 Tb407 2.473 . S
O426 C427 1.257 . S
C427 O425 1.273 . S
C427 O426 1.257 . S
O428 Eu408 2.326 . S
O428 C416 1.242 . S
O429 Tb407 2.324 . S
O429 C416 1.258 . S
O430 Eu408 2.500 . S
O430 C413 1.273 . S
O431 Eu408 2.473 . S
O431 C413 1.257 . S
H432 C418 0.929 . S
H433 C420 0.931 . S
H434 C422 0.929 . S
O435 Tb436 2.291 1_565 S
O435 C438 1.248 1_565 S
Tb436 O435 2.291 1_545 S
Tb436 O452 2.326 . S
Tb436 O454 2.500 1_545 S
Tb436 O455 2.473 1_545 S
Tb436 O458 2.324 . S
Eu437 O441 2.292 . S
Eu437 C442 2.852 . S
Eu437 O453 2.324 . S
Eu437 O457 2.326 . S
Eu437 O459 2.500 . S
Eu437 O460 2.473 . S
C438 O435 1.248 1_545 S
C438 O439 1.247 . S
O439 C438 1.247 . S
C440 O452 1.242 . S
C440 O453 1.258 . S
O441 Eu437 2.292 . S
O441 C443 1.255 . S
C442 Eu437 2.852 . S
C442 C446 1.503 . S
C442 O459 1.273 . S
C442 O460 1.257 . S
C443 O441 1.255 . S
C443 O444 1.247 . S
O444 C443 1.247 . S
C445 O457 1.242 . S
C445 O458 1.258 . S
C446 C442 1.503 . S
C446 C447 1.379 . S
C446 C451 1.392 . S
C447 C446 1.379 . S
C447 C448 1.404 . S
C447 H461 0.929 . S
C448 C447 1.404 . S
C448 C449 1.389 . S
C449 C448 1.389 . S
C449 C450 1.399 . S
C449 H462 0.931 . S
C450 C449 1.399 . S
C450 C451 1.390 . S
C451 C446 1.392 . S
C451 C450 1.390 . S
C451 H463 0.929 . S
O452 Tb436 2.326 . S
O452 C440 1.242 . S
O453 Eu437 2.324 . S
O453 C440 1.258 . S
O454 Tb436 2.500 1_565 S
O454 C456 1.273 . S
O455 Tb436 2.473 1_565 S
O455 C456 1.257 . S
C456 O454 1.273 . S
C456 O455 1.257 . S
O457 Eu437 2.326 . S
O457 C445 1.242 . S
O458 Tb436 2.324 . S
O458 C445 1.258 . S
O459 Eu437 2.500 . S
O459 C442 1.273 . S
O460 Eu437 2.473 . S
O460 C442 1.257 . S
H461 C447 0.929 . S
H462 C449 0.931 . S
H463 C451 0.929 . S
H464 C476 0.930 . S
H465 C478 0.930 . S
H466 C479 0.930 . S
H467 C483 0.959 . S
H468 C483 0.959 . S
H469 C483 0.961 . S
H470 C484 0.960 . S
H471 C484 0.961 . S
H472 C484 0.959 . S
H473 C487 0.929 . S
H474 C488 0.931 . S
H475 C490 0.930 . S
C476 H464 0.930 . S
C476 C477 1.399 . S
C476 C481 1.399 . S
C477 C476 1.399 . S
C477 C478 1.376 . S
C478 H465 0.930 . S
C478 C477 1.376 . S
C478 C479 1.388 . S
C479 H466 0.930 . S
C479 C478 1.388 . S
C479 C480 1.390 . S
C480 C479 1.390 . S
C480 C481 1.394 . S
C480 C486 1.465 . S
C481 C476 1.399 . S
C481 C480 1.394 . S
C481 C482 1.516 . S
C482 C481 1.516 . S
C482 C483 1.502 . S
C482 C484 1.561 . S
C482 C485 1.526 . S
C483 H467 0.959 . S
C483 H468 0.959 . S
C483 H469 0.961 . S
C483 C482 1.502 . S
C484 H470 0.960 . S
C484 H471 0.961 . S
C484 H472 0.959 . S
C484 C482 1.561 . S
C485 C482 1.526 . S
C485 C486 1.396 . S
C485 C490 1.390 . S
C486 C480 1.465 . S
C486 C485 1.396 . S
C486 C487 1.399 . S
C487 H473 0.929 . S
C487 C486 1.399 . S
C487 C488 1.385 . S
C488 H474 0.931 . S
C488 C487 1.385 . S
C488 C489 1.389 . S
C489 C488 1.389 . S
C489 C490 1.387 . S
C490 H475 0.930 . S
C490 C485 1.390 . S
C490 C489 1.387 . S
H491 C503 0.930 . S
H492 C505 0.930 . S
H493 C506 0.930 . S
H494 C510 0.959 . S
H495 C510 0.959 . S
H496 C510 0.961 . S
H497 C511 0.960 . S
H498 C511 0.961 . S
H499 C511 0.959 . S
H500 C514 0.929 . S
H501 C515 0.931 . S
H502 C517 0.930 . S
C503 H491 0.930 . S
C503 C504 1.399 . S
C503 C508 1.399 . S
C504 C503 1.399 . S
C504 C505 1.376 . S
C505 H492 0.930 . S
C505 C504 1.376 . S
C505 C506 1.388 . S
C506 H493 0.930 . S
C506 C505 1.388 . S
C506 C507 1.390 . S
C507 C506 1.390 . S
C507 C508 1.394 . S
C507 C513 1.465 . S
C508 C503 1.399 . S
C508 C507 1.394 . S
C508 C509 1.516 . S
C509 C508 1.516 . S
C509 C510 1.502 . S
C509 C511 1.561 . S
C509 C512 1.526 . S
C510 H494 0.959 . S
C510 H495 0.959 . S
C510 H496 0.961 . S
C510 C509 1.502 . S
C511 H497 0.960 . S
C511 H498 0.961 . S
C511 H499 0.959 . S
C511 C509 1.561 . S
C512 C509 1.526 . S
C512 C513 1.396 . S
C512 C517 1.390 . S
C513 C507 1.465 . S
C513 C512 1.396 . S
C513 C514 1.399 . S
C514 H500 0.929 . S
C514 C513 1.399 . S
C514 C515 1.385 . S
C515 H501 0.931 . S
C515 C514 1.385 . S
C515 C516 1.389 . S
C516 C515 1.389 . S
C516 C517 1.387 . S
C517 H502 0.930 . S
C517 C512 1.390 . S
C517 C516 1.387 . S
H518 C530 0.930 . S
H519 C532 0.930 . S
H520 C533 0.930 . S
H521 C537 0.959 . S
H522 C537 0.959 . S
H523 C537 0.961 . S
H524 C538 0.960 . S
H525 C538 0.961 . S
H526 C538 0.959 . S
H527 C541 0.929 . S
H528 C542 0.931 . S
H529 C544 0.930 . S
C530 H518 0.930 . S
C530 C531 1.399 . S
C530 C535 1.399 . S
C531 C530 1.399 . S
C531 C532 1.376 . S
C532 H519 0.930 . S
C532 C531 1.376 . S
C532 C533 1.388 . S
C533 H520 0.930 . S
C533 C532 1.388 . S
C533 C534 1.390 . S
C534 C533 1.390 . S
C534 C535 1.394 . S
C534 C540 1.465 . S
C535 C530 1.399 . S
C535 C534 1.394 . S
C535 C536 1.516 . S
C536 C535 1.516 . S
C536 C537 1.502 . S
C536 C538 1.561 . S
C536 C539 1.526 . S
C537 H521 0.959 . S
C537 H522 0.959 . S
C537 H523 0.961 . S
C537 C536 1.502 . S
C538 H524 0.960 . S
C538 H525 0.961 . S
C538 H526 0.959 . S
C538 C536 1.561 . S
C539 C536 1.526 . S
C539 C540 1.396 . S
C539 C544 1.390 . S
C540 C534 1.465 . S
C540 C539 1.396 . S
C540 C541 1.399 . S
C541 H527 0.929 . S
C541 C540 1.399 . S
C541 C542 1.385 . S
C542 H528 0.931 . S
C542 C541 1.385 . S
C542 C543 1.389 . S
C543 C542 1.389 . S
C543 C544 1.387 . S
C544 H529 0.930 . S
C544 C539 1.390 . S
C544 C543 1.387 . S
H545 C557 0.930 . S
H546 C559 0.930 . S
H547 C560 0.930 . S
H548 C564 0.959 . S
H549 C564 0.959 . S
H550 C564 0.961 . S
H551 C565 0.960 . S
H552 C565 0.961 1_655 S
H553 C565 0.959 . S
H554 C568 0.929 . S
H555 C569 0.931 . S
H556 C571 0.930 . S
C557 H545 0.930 . S
C557 C558 1.399 . S
C557 C562 1.399 . S
C558 C557 1.399 . S
C558 C559 1.376 . S
C559 H546 0.930 . S
C559 C558 1.376 . S
C559 C560 1.388 . S
C560 H547 0.930 . S
C560 C559 1.388 . S
C560 C561 1.390 . S
C561 C560 1.390 . S
C561 C562 1.394 . S
C561 C567 1.465 . S
C562 C557 1.399 . S
C562 C561 1.394 . S
C562 C563 1.516 . S
C563 C562 1.516 . S
C563 C564 1.502 . S
C563 C565 1.561 . S
C563 C566 1.526 . S
C564 H548 0.959 . S
C564 H549 0.959 . S
C564 H550 0.961 . S
C564 C563 1.502 . S
C565 H551 0.960 . S
C565 H552 0.961 1_455 S
C565 H553 0.959 . S
C565 C563 1.561 . S
C566 C563 1.526 . S
C566 C567 1.396 . S
C566 C571 1.390 1_455 S
C567 C561 1.465 . S
C567 C566 1.396 . S
C567 C568 1.399 . S
C568 H554 0.929 . S
C568 C567 1.399 . S
C568 C569 1.385 1_455 S
C569 H555 0.931 . S
C569 C568 1.385 1_655 S
C569 C570 1.389 . S
C570 C569 1.389 . S
C570 C571 1.387 . S
C571 H556 0.930 . S
C571 C566 1.390 1_655 S
C571 C570 1.387 . S
H572 C584 0.930 . S
H573 C586 0.930 . S
H574 C587 0.930 . S
H575 C591 0.959 . S
H576 C591 0.959 . S
H577 C591 0.961 . S
H578 C592 0.960 . S
H579 C592 0.961 . S
H580 C592 0.959 . S
H581 C595 0.929 . S
H582 C596 0.931 . S
H583 C598 0.930 . S
C584 H572 0.930 . S
C584 C585 1.399 . S
C584 C589 1.399 . S
C585 C584 1.399 . S
C585 C586 1.376 . S
C586 H573 0.930 . S
C586 C585 1.376 . S
C586 C587 1.388 . S
C587 H574 0.930 . S
C587 C586 1.388 . S
C587 C588 1.390 . S
C588 C587 1.390 . S
C588 C589 1.394 . S
C588 C594 1.465 . S
C589 C584 1.399 . S
C589 C588 1.394 . S
C589 C590 1.516 . S
C590 C589 1.516 . S
C590 C591 1.502 . S
C590 C592 1.561 . S
C590 C593 1.526 . S
C591 H575 0.959 . S
C591 H576 0.959 . S
C591 H577 0.961 . S
C591 C590 1.502 . S
C592 H578 0.960 . S
C592 H579 0.961 . S
C592 H580 0.959 . S
C592 C590 1.561 . S
C593 C590 1.526 . S
C593 C594 1.396 . S
C593 C598 1.390 . S
C594 C588 1.465 . S
C594 C593 1.396 . S
C594 C595 1.399 . S
C595 H581 0.929 . S
C595 C594 1.399 . S
C595 C596 1.385 . S
C596 H582 0.931 . S
C596 C595 1.385 . S
C596 C597 1.389 . S
C597 C596 1.389 . S
C597 C598 1.387 . S
C598 H583 0.930 . S
C598 C593 1.390 . S
C598 C597 1.387 . S
H599 C611 0.930 . S
H600 C613 0.930 . S
H601 C614 0.930 . S
H602 C618 0.959 . S
H603 C618 0.959 . S
H604 C618 0.961 . S
H605 C619 0.960 . S
H606 C619 0.961 . S
H607 C619 0.959 . S
H608 C622 0.929 . S
H609 C623 0.931 . S
H610 C625 0.930 . S
C611 H599 0.930 . S
C611 C612 1.399 . S
C611 C616 1.399 . S
C612 C611 1.399 . S
C612 C613 1.376 . S
C613 H600 0.930 . S
C613 C612 1.376 . S
C613 C614 1.388 . S
C614 H601 0.930 . S
C614 C613 1.388 . S
C614 C615 1.390 . S
C615 C614 1.390 . S
C615 C616 1.394 . S
C615 C621 1.465 . S
C616 C611 1.399 . S
C616 C615 1.394 . S
C616 C617 1.516 . S
C617 C616 1.516 . S
C617 C618 1.502 . S
C617 C619 1.561 . S
C617 C620 1.526 . S
C618 H602 0.959 . S
C618 H603 0.959 . S
C618 H604 0.961 . S
C618 C617 1.502 . S
C619 H605 0.960 . S
C619 H606 0.961 . S
C619 H607 0.959 . S
C619 C617 1.561 . S
C620 C617 1.526 . S
C620 C621 1.396 . S
C620 C625 1.390 . S
C621 C615 1.465 . S
C621 C620 1.396 . S
C621 C622 1.399 . S
C622 H608 0.929 . S
C622 C621 1.399 . S
C622 C623 1.385 . S
C623 H609 0.931 . S
C623 C622 1.385 . S
C623 C624 1.389 . S
C624 C623 1.389 . S
C624 C625 1.387 . S
C625 H610 0.930 . S
C625 C620 1.390 . S
C625 C624 1.387 . S
H626 C638 0.930 . S
H627 C640 0.930 . S
H628 C641 0.930 . S
H629 C645 0.959 . S
H630 C645 0.959 . S
H631 C645 0.961 . S
H632 C646 0.960 . S
H633 C646 0.961 . S
H634 C646 0.959 . S
H635 C649 0.929 . S
H636 C650 0.931 . S
H637 C652 0.930 . S
C638 H626 0.930 . S
C638 C639 1.399 . S
C638 C643 1.399 . S
C639 C638 1.399 . S
C639 C640 1.376 . S
C640 H627 0.930 . S
C640 C639 1.376 . S
C640 C641 1.388 . S
C641 H628 0.930 . S
C641 C640 1.388 . S
C641 C642 1.390 . S
C642 C641 1.390 . S
C642 C643 1.394 . S
C642 C648 1.465 . S
C643 C638 1.399 . S
C643 C642 1.394 . S
C643 C644 1.516 . S
C644 C643 1.516 . S
C644 C645 1.502 . S
C644 C646 1.561 . S
C644 C647 1.526 . S
C645 H629 0.959 . S
C645 H630 0.959 . S
C645 H631 0.961 . S
C645 C644 1.502 . S
C646 H632 0.960 . S
C646 H633 0.961 . S
C646 H634 0.959 . S
C646 C644 1.561 . S
C647 C644 1.526 . S
C647 C648 1.396 . S
C647 C652 1.390 . S
C648 C642 1.465 . S
C648 C647 1.396 . S
C648 C649 1.399 . S
C649 H635 0.929 . S
C649 C648 1.399 . S
C649 C650 1.385 . S
C650 H636 0.931 . S
C650 C649 1.385 . S
C650 C651 1.389 . S
C651 C650 1.389 . S
C651 C652 1.387 . S
C652 H637 0.930 . S
C652 C647 1.390 . S
C652 C651 1.387 . S
H653 C665 0.930 . S
H654 C667 0.930 . S
H655 C668 0.930 . S
H656 C672 0.959 . S
H657 C672 0.959 . S
H658 C672 0.961 . S
H659 C673 0.960 . S
H660 C673 0.961 . S
H661 C673 0.959 . S
H662 C676 0.929 . S
H663 C677 0.931 . S
H664 C679 0.930 . S
C665 H653 0.930 . S
C665 C666 1.399 . S
C665 C670 1.399 . S
C666 C665 1.399 . S
C666 C667 1.376 . S
C667 H654 0.930 . S
C667 C666 1.376 . S
C667 C668 1.388 . S
C668 H655 0.930 . S
C668 C667 1.388 . S
C668 C669 1.390 . S
C669 C668 1.390 . S
C669 C670 1.394 . S
C669 C675 1.465 . S
C670 C665 1.399 . S
C670 C669 1.394 . S
C670 C671 1.516 . S
C671 C670 1.516 . S
C671 C672 1.502 . S
C671 C673 1.561 . S
C671 C674 1.526 . S
C672 H656 0.959 . S
C672 H657 0.959 . S
C672 H658 0.961 . S
C672 C671 1.502 . S
C673 H659 0.960 . S
C673 H660 0.961 . S
C673 H661 0.959 . S
C673 C671 1.561 . S
C674 C671 1.526 . S
C674 C675 1.396 . S
C674 C679 1.390 1_655 S
C675 C669 1.465 . S
C675 C674 1.396 . S
C675 C676 1.399 1_655 S
C676 H662 0.929 . S
C676 C675 1.399 1_455 S
C676 C677 1.385 . S
C677 H663 0.931 . S
C677 C676 1.385 . S
C677 C678 1.389 . S
C678 C677 1.389 . S
C678 C679 1.387 . S
C679 H664 0.930 . S
C679 C674 1.390 1_455 S
C679 C678 1.387 . S
H680 C692 0.930 . S
H681 C694 0.930 . S
H682 C695 0.930 . S
H683 C699 0.959 . S
H684 C699 0.959 . S
H685 C699 0.961 . S
H686 C700 0.960 . S
H687 C700 0.961 . S
H688 C700 0.959 . S
H689 C703 0.929 . S
H690 C704 0.931 . S
H691 C706 0.930 . S
C692 H680 0.930 . S
C692 C693 1.399 . S
C692 C697 1.399 . S
C693 C692 1.399 . S
C693 C694 1.376 . S
C694 H681 0.930 . S
C694 C693 1.376 . S
C694 C695 1.388 . S
C695 H682 0.930 . S
C695 C694 1.388 . S
C695 C696 1.390 . S
C696 C695 1.390 . S
C696 C697 1.394 . S
C696 C702 1.465 . S
C697 C692 1.399 . S
C697 C696 1.394 . S
C697 C698 1.516 . S
C698 C697 1.516 . S
C698 C699 1.502 . S
C698 C700 1.561 . S
C698 C701 1.526 . S
C699 H683 0.959 . S
C699 H684 0.959 . S
C699 H685 0.961 . S
C699 C698 1.502 . S
C700 H686 0.960 . S
C700 H687 0.961 . S
C700 H688 0.959 . S
C700 C698 1.561 . S
C701 C698 1.526 . S
C701 C702 1.396 . S
C701 C706 1.390 . S
C702 C696 1.465 . S
C702 C701 1.396 . S
C702 C703 1.399 . S
C703 H689 0.929 . S
C703 C702 1.399 . S
C703 C704 1.385 . S
C704 H690 0.931 . S
C704 C703 1.385 . S
C704 C705 1.389 . S
C705 C704 1.389 . S
C705 C706 1.387 . S
C706 H691 0.930 . S
C706 C701 1.390 . S
C706 C705 1.387 . S
H707 C719 0.930 . S
H708 C721 0.930 . S
H709 C722 0.930 . S
H710 C726 0.959 . S
H711 C726 0.959 . S
H712 C726 0.961 . S
H713 C727 0.960 . S
H714 C727 0.961 . S
H715 C727 0.959 . S
H716 C730 0.929 . S
H717 C731 0.931 . S
H718 C733 0.930 . S
C719 H707 0.930 . S
C719 C720 1.399 . S
C719 C724 1.399 . S
C720 C719 1.399 . S
C720 C721 1.376 . S
C721 H708 0.930 . S
C721 C720 1.376 . S
C721 C722 1.388 1_545 S
C722 H709 0.930 . S
C722 C721 1.388 1_565 S
C722 C723 1.390 . S
C723 C722 1.390 . S
C723 C724 1.394 1_565 S
C723 C729 1.465 1_455 S
C724 C719 1.399 . S
C724 C723 1.394 1_545 S
C724 C725 1.516 1_445 S
C725 C724 1.516 1_665 S
C725 C726 1.502 1_565 S
C725 C727 1.561 . S
C725 C728 1.526 . S
C726 H710 0.959 . S
C726 H711 0.959 . S
C726 H712 0.961 . S
C726 C725 1.502 1_545 S
C727 H713 0.960 . S
C727 H714 0.961 . S
C727 H715 0.959 . S
C727 C725 1.561 . S
C728 C725 1.526 . S
C728 C729 1.396 . S
C728 C733 1.390 . S
C729 C723 1.465 1_655 S
C729 C728 1.396 . S
C729 C730 1.399 . S
C730 H716 0.929 . S
C730 C729 1.399 . S
C730 C731 1.385 . S
C731 H717 0.931 . S
C731 C730 1.385 . S
C731 C732 1.389 . S
C732 C731 1.389 . S
C732 C733 1.387 . S
C733 H718 0.930 . S
C733 C728 1.390 . S
C733 C732 1.387 . S
H734 C746 0.930 . S
H735 C748 0.930 . S
H736 C749 0.930 . S
H737 C753 0.959 . S
H738 C753 0.959 . S
H739 C753 0.961 . S
H740 C754 0.960 . S
H741 C754 0.961 . S
H742 C754 0.959 . S
H743 C757 0.929 . S
H744 C758 0.931 . S
H745 C760 0.930 . S
C746 H734 0.930 . S
C746 C747 1.399 . S
C746 C751 1.399 . S
C747 C746 1.399 . S
C747 C748 1.376 . S
C748 H735 0.930 . S
C748 C747 1.376 . S
C748 C749 1.388 . S
C749 H736 0.930 . S
C749 C748 1.388 . S
C749 C750 1.390 . S
C750 C749 1.390 . S
C750 C751 1.394 . S
C750 C756 1.465 . S
C751 C746 1.399 . S
C751 C750 1.394 . S
C751 C752 1.516 . S
C752 C751 1.516 . S
C752 C753 1.502 . S
C752 C754 1.561 . S
C752 C755 1.526 . S
C753 H737 0.959 . S
C753 H738 0.959 . S
C753 H739 0.961 . S
C753 C752 1.502 . S
C754 H740 0.960 . S
C754 H741 0.961 . S
C754 H742 0.959 . S
C754 C752 1.561 . S
C755 C752 1.526 . S
C755 C756 1.396 . S
C755 C760 1.390 . S
C756 C750 1.465 . S
C756 C755 1.396 . S
C756 C757 1.399 . S
C757 H743 0.929 . S
C757 C756 1.399 . S
C757 C758 1.385 . S
C758 H744 0.931 . S
C758 C757 1.385 . S
C758 C759 1.389 . S
C759 C758 1.389 . S
C759 C760 1.387 . S
C760 H745 0.930 . S
C760 C755 1.390 . S
C760 C759 1.387 . S
H761 C773 0.930 . S
H762 C775 0.930 . S
H763 C776 0.930 . S
H764 C780 0.959 . S
H765 C780 0.959 . S
H766 C780 0.961 . S
H767 C781 0.960 . S
H768 C781 0.961 . S
H769 C781 0.959 . S
H770 C784 0.929 . S
H771 C785 0.931 . S
H772 C787 0.930 . S
C773 H761 0.930 . S
C773 C774 1.399 . S
C773 C778 1.399 . S
C774 C773 1.399 . S
C774 C775 1.376 . S
C775 H762 0.930 . S
C775 C774 1.376 . S
C775 C776 1.388 . S
C776 H763 0.930 . S
C776 C775 1.388 . S
C776 C777 1.390 . S
C777 C776 1.390 . S
C777 C778 1.394 . S
C777 C783 1.465 . S
C778 C773 1.399 . S
C778 C777 1.394 . S
C778 C779 1.516 1_545 S
C779 C778 1.516 1_565 S
C779 C780 1.502 . S
C779 C781 1.561 . S
C779 C782 1.526 . S
C780 H764 0.959 . S
C780 H765 0.959 . S
C780 H766 0.961 . S
C780 C779 1.502 . S
C781 H767 0.960 . S
C781 H768 0.961 . S
C781 H769 0.959 . S
C781 C779 1.561 . S
C782 C779 1.526 . S
C782 C783 1.396 1_565 S
C782 C787 1.390 . S
C783 C777 1.465 . S
C783 C782 1.396 1_545 S
C783 C784 1.399 . S
C784 H770 0.929 . S
C784 C783 1.399 . S
C784 C785 1.385 . S
C785 H771 0.931 . S
C785 C784 1.385 . S
C785 C786 1.362 1_545 S
C786 C785 1.362 1_565 S
C786 C787 1.401 . S
C787 H772 0.930 . S
C787 C782 1.390 . S
C787 C786 1.401 . S
H788 C800 0.930 . S
H789 C802 0.930 . S
H790 C803 0.930 . S
H791 C807 0.959 . S
H792 C807 0.959 . S
H793 C807 0.961 . S
H794 C808 0.960 . S
H795 C808 0.961 . S
H796 C808 0.959 . S
H797 C811 0.929 . S
H798 C812 0.931 . S
H799 C814 0.930 . S
C800 H788 0.930 . S
C800 C801 1.399 . S
C800 C805 1.399 . S
C801 C800 1.399 . S
C801 C802 1.376 . S
C802 H789 0.930 . S
C802 C801 1.376 . S
C802 C803 1.388 . S
C803 H790 0.930 . S
C803 C802 1.388 . S
C803 C804 1.390 . S
C804 C803 1.390 . S
C804 C805 1.394 . S
C804 C810 1.465 . S
C805 C800 1.399 . S
C805 C804 1.394 . S
C805 C806 1.516 . S
C806 C805 1.516 . S
C806 C807 1.502 . S
C806 C808 1.561 . S
C806 C809 1.526 . S
C807 H791 0.959 . S
C807 H792 0.959 . S
C807 H793 0.961 . S
C807 C806 1.502 . S
C808 H794 0.960 . S
C808 H795 0.961 . S
C808 H796 0.959 . S
C808 C806 1.561 . S
C809 C806 1.526 . S
C809 C810 1.396 . S
C809 C814 1.390 . S
C810 C804 1.465 . S
C810 C809 1.396 . S
C810 C811 1.399 . S
C811 H797 0.929 . S
C811 C810 1.399 . S
C811 C812 1.385 . S
C812 H798 0.931 . S
C812 C811 1.385 . S
C812 C813 1.389 . S
C813 C812 1.389 . S
C813 C814 1.387 . S
C814 H799 0.930 . S
C814 C809 1.390 . S
C814 C813 1.387 . S
H815 C827 0.930 . S
H816 C829 0.930 . S
H817 C830 0.930 . S
H818 C834 0.959 . S
H819 C834 0.959 . S
H820 C834 0.961 . S
H821 C835 0.960 . S
H822 C835 0.961 1_545 S
H823 C835 0.959 . S
H824 C838 0.929 . S
H825 C839 0.931 . S
H826 C841 0.930 . S
C827 H815 0.930 . S
C827 C828 1.399 . S
C827 C832 1.399 1_665 S
C828 C827 1.399 . S
C828 C829 1.376 . S
C829 H816 0.930 . S
C829 C828 1.376 . S
C829 C830 1.388 . S
C830 H817 0.930 . S
C830 C829 1.388 . S
C830 C831 1.390 1_665 S
C831 C830 1.390 1_445 S
C831 C832 1.394 . S
C831 C837 1.465 . S
C832 C827 1.399 1_445 S
C832 C831 1.394 . S
C832 C833 1.516 . S
C833 C832 1.516 . S
C833 C834 1.502 . S
C833 C835 1.561 1_545 S
C833 C836 1.526 . S
C834 H818 0.959 . S
C834 H819 0.959 . S
C834 H820 0.961 . S
C834 C833 1.502 . S
C835 H821 0.960 . S
C835 H822 0.961 1_565 S
C835 H823 0.959 . S
C835 C833 1.561 1_565 S
C836 C833 1.526 . S
C836 C837 1.396 . S
C836 C841 1.390 . S
C837 C831 1.465 . S
C837 C836 1.396 . S
C837 C838 1.399 . S
C838 H824 0.929 . S
C838 C837 1.399 . S
C838 C839 1.385 . S
C839 H825 0.931 . S
C839 C838 1.385 . S
C839 C840 1.389 . S
C840 C839 1.389 . S
C840 C841 1.387 . S
C841 H826 0.930 . S
C841 C836 1.390 . S
C841 C840 1.387 . S
H842 C854 0.930 . S
H843 C856 0.930 . S
H844 C857 0.930 . S
H845 C861 0.959 . S
H846 C861 0.959 . S
H847 C861 0.961 . S
H848 C862 0.960 . S
H849 C862 0.961 . S
H850 C862 0.959 . S
H851 C865 0.929 . S
H852 C866 0.931 . S
H853 C868 0.930 . S
C854 H842 0.930 . S
C854 C855 1.399 . S
C854 C859 1.399 . S
C855 C854 1.399 . S
C855 C856 1.376 . S
C856 H843 0.930 . S
C856 C855 1.376 . S
C856 C857 1.388 . S
C857 H844 0.930 . S
C857 C856 1.388 . S
C857 C858 1.390 . S
C858 C857 1.390 . S
C858 C859 1.394 . S
C858 C864 1.465 . S
C859 C854 1.399 . S
C859 C858 1.394 . S
C859 C860 1.516 . S
C860 C859 1.516 . S
C860 C861 1.502 . S
C860 C862 1.561 . S
C860 C863 1.526 . S
C861 H845 0.959 . S
C861 H846 0.959 . S
C861 H847 0.961 . S
C861 C860 1.502 . S
C862 H848 0.960 . S
C862 H849 0.961 . S
C862 H850 0.959 . S
C862 C860 1.561 . S
C863 C860 1.526 . S
C863 C864 1.396 . S
C863 C868 1.390 . S
C864 C858 1.465 . S
C864 C863 1.396 . S
C864 C865 1.399 . S
C865 H851 0.929 . S
C865 C864 1.399 . S
C865 C866 1.385 . S
C866 H852 0.931 . S
C866 C865 1.385 . S
C866 C867 1.389 . S
C867 C866 1.389 . S
C867 C868 1.387 . S
C868 H853 0.930 . S
C868 C863 1.390 . S
C868 C867 1.387 . S
H869 C881 0.930 . S
H870 C883 0.930 . S
H871 C884 0.930 . S
H872 C888 0.959 . S
H873 C888 0.959 . S
H874 C888 0.961 . S
H875 C889 0.960 . S
H876 C889 0.961 . S
H877 C889 0.959 . S
H878 C892 0.929 . S
H879 C893 0.931 . S
H880 C895 0.930 . S
C881 H869 0.930 . S
C881 C882 1.399 . S
C881 C886 1.399 . S
C882 C881 1.399 . S
C882 C883 1.376 . S
C883 H870 0.930 . S
C883 C882 1.376 . S
C883 C884 1.388 1_565 S
C884 H871 0.930 . S
C884 C883 1.388 1_545 S
C884 C885 1.390 1_545 S
C885 C884 1.390 1_565 S
C885 C886 1.394 . S
C885 C891 1.466 . S
C886 C881 1.399 . S
C886 C885 1.394 . S
C886 C887 1.516 . S
C887 C886 1.516 . S
C887 C888 1.502 . S
C887 C889 1.561 . S
C887 C890 1.526 . S
C888 H872 0.959 . S
C888 H873 0.959 . S
C888 H874 0.961 . S
C888 C887 1.502 . S
C889 H875 0.960 . S
C889 H876 0.961 . S
C889 H877 0.959 . S
C889 C887 1.561 . S
C890 C887 1.526 . S
C890 C891 1.399 . S
C890 C895 1.390 . S
C891 C885 1.466 . S
C891 C890 1.399 . S
C891 C892 1.395 1_565 S
C892 H878 0.929 . S
C892 C891 1.395 1_545 S
C892 C893 1.385 . S
C893 H879 0.931 . S
C893 C892 1.385 . S
C893 C894 1.389 . S
C894 C893 1.389 . S
C894 C895 1.387 1_545 S
C895 H880 0.930 . S
C895 C890 1.390 . S
C895 C894 1.387 1_565 S
H896 C908 0.930 . S
H897 C910 0.930 . S
H898 C911 0.930 . S
H899 C915 0.959 . S
H900 C915 0.959 1_554 S
H901 C915 0.961 . S
H902 C916 0.988 . S
H903 C916 0.927 1_554 S
H904 C916 0.955 1_554 S
H905 C919 0.931 1_556 S
H906 C920 0.931 . S
H907 C922 0.930 . S
C908 H896 0.930 . S
C908 C909 1.399 . S
C908 C913 1.399 . S
C909 C908 1.399 . S
C909 C910 1.376 . S
C910 H897 0.930 . S
C910 C909 1.376 . S
C910 C911 1.388 . S
C911 H898 0.930 . S
C911 C910 1.388 . S
C911 C912 1.390 . S
C912 C911 1.390 . S
C912 C913 1.394 . S
C912 C918 1.465 . S
C913 C908 1.399 . S
C913 C912 1.394 . S
C913 C914 1.516 . S
C914 C913 1.516 . S
C914 C915 1.502 . S
C914 C916 1.573 . S
C914 C917 1.526 1_556 S
C915 H899 0.959 . S
C915 H900 0.959 1_556 S
C915 H901 0.961 . S
C915 C914 1.502 . S
C916 H902 0.988 . S
C916 H903 0.927 1_556 S
C916 H904 0.955 1_556 S
C916 C914 1.573 . S
C917 C914 1.526 1_554 S
C917 C918 1.396 1_554 S
C917 C922 1.390 . S
C918 C912 1.465 . S
C918 C917 1.396 1_556 S
C918 C919 1.399 1_556 S
C919 H905 0.931 1_554 S
C919 C918 1.399 1_554 S
C919 C920 1.385 . S
C920 H906 0.931 . S
C920 C919 1.385 . S
C920 C921 1.389 . S
C921 C920 1.389 . S
C921 C922 1.387 . S
C922 H907 0.930 . S
C922 C917 1.390 . S
C922 C921 1.387 . S
H923 C935 0.930 . S
H924 C937 0.930 . S
H925 C938 0.930 . S
H926 C942 0.959 . S
H927 C942 0.959 . S
H928 C942 0.961 . S
H929 C943 0.960 . S
H930 C943 0.961 . S
H931 C943 0.959 . S
H932 C946 0.929 . S
H933 C947 0.931 . S
H934 C949 0.930 . S
C935 H923 0.930 . S
C935 C936 1.399 . S
C935 C940 1.399 . S
C936 C935 1.399 . S
C936 C937 1.376 . S
C937 H924 0.930 . S
C937 C936 1.376 . S
C937 C938 1.388 . S
C938 H925 0.930 . S
C938 C937 1.388 . S
C938 C939 1.390 . S
C939 C938 1.390 . S
C939 C940 1.394 . S
C939 C945 1.465 . S
C940 C935 1.399 . S
C940 C939 1.394 . S
C940 C941 1.516 . S
C941 C940 1.516 . S
C941 C942 1.502 . S
C941 C943 1.561 . S
C941 C944 1.526 . S
C942 H926 0.959 . S
C942 H927 0.959 . S
C942 H928 0.961 . S
C942 C941 1.502 . S
C943 H929 0.960 . S
C943 H930 0.961 . S
C943 H931 0.959 . S
C943 C941 1.561 . S
C944 C941 1.526 . S
C944 C945 1.396 . S
C944 C949 1.390 . S
C945 C939 1.465 . S
C945 C944 1.396 . S
C945 C946 1.399 . S
C946 H932 0.929 . S
C946 C945 1.399 . S
C946 C947 1.385 . S
C947 H933 0.931 . S
C947 C946 1.385 . S
C947 C948 1.389 . S
C948 C947 1.389 . S
C948 C949 1.387 . S
C949 H934 0.930 . S
C949 C944 1.390 . S
C949 C948 1.387 . S
H950 C962 0.930 . S
H951 C964 0.930 . S
H952 C965 0.930 . S
H953 C969 0.959 . S
H954 C969 0.959 . S
H955 C969 0.961 . S
H956 C970 0.960 . S
H957 C970 0.961 . S
H958 C970 0.959 . S
H959 C973 0.929 . S
H960 C974 0.931 . S
H961 C976 0.930 . S
C962 H950 0.930 . S
C962 C963 1.399 . S
C962 C967 1.399 . S
C963 C962 1.399 . S
C963 C964 1.376 . S
C964 H951 0.930 . S
C964 C963 1.376 . S
C964 C965 1.388 . S
C965 H952 0.930 . S
C965 C964 1.388 . S
C965 C966 1.390 . S
C966 C965 1.390 . S
C966 C967 1.394 . S
C966 C972 1.465 . S
C967 C962 1.399 . S
C967 C966 1.394 . S
C967 C968 1.516 . S
C968 C967 1.516 . S
C968 C969 1.502 . S
C968 C970 1.561 . S
C968 C971 1.526 . S
C969 H953 0.959 . S
C969 H954 0.959 . S
C969 H955 0.961 . S
C969 C968 1.502 . S
C970 H956 0.960 . S
C970 H957 0.961 . S
C970 H958 0.959 . S
C970 C968 1.561 . S
C971 C968 1.526 . S
C971 C972 1.396 . S
C971 C976 1.390 . S
C972 C966 1.465 . S
C972 C971 1.396 . S
C972 C973 1.399 . S
C973 H959 0.929 . S
C973 C972 1.399 . S
C973 C974 1.385 . S
C974 H960 0.931 . S
C974 C973 1.385 . S
C974 C975 1.389 . S
C975 C974 1.389 . S
C975 C976 1.387 . S
C976 H961 0.930 . S
C976 C971 1.390 . S
C976 C975 1.387 . S
H977 C989 0.930 . S
H978 C991 0.930 . S
H979 C992 0.930 . S
H980 C996 0.959 . S
H981 C996 0.959 . S
H982 C996 0.961 . S
H983 C997 0.960 . S
H984 C997 0.961 . S
H985 C997 0.959 . S
H986 C1000 0.929 . S
H987 C1001 0.931 . S
H988 C1003 0.930 . S
C989 H977 0.930 . S
C989 C990 1.399 . S
C989 C994 1.399 . S
C990 C989 1.399 . S
C990 C991 1.376 . S
C991 H978 0.930 . S
C991 C990 1.376 . S
C991 C992 1.388 . S
C992 H979 0.930 . S
C992 C991 1.388 . S
C992 C993 1.390 . S
C993 C992 1.390 . S
C993 C994 1.394 . S
C993 C999 1.465 . S
C994 C989 1.399 . S
C994 C993 1.394 . S
C994 C995 1.516 . S
C995 C994 1.516 . S
C995 C996 1.502 . S
C995 C997 1.561 . S
C995 C998 1.526 . S
C996 H980 0.959 . S
C996 H981 0.959 . S
C996 H982 0.961 . S
C996 C995 1.502 . S
C997 H983 0.960 . S
C997 H984 0.961 . S
C997 H985 0.959 . S
C997 C995 1.561 . S
C998 C995 1.526 . S
C998 C999 1.396 . S
C998 C1003 1.390 . S
C999 C993 1.465 . S
C999 C998 1.396 . S
C999 C1000 1.399 . S
C1000 H986 0.929 . S
C1000 C999 1.399 . S
C1000 C1001 1.385 . S
C1001 H987 0.931 . S
C1001 C1000 1.385 . S
C1001 C1002 1.389 . S
C1002 C1001 1.389 . S
C1002 C1003 1.387 . S
C1003 H988 0.930 . S
C1003 C998 1.390 . S
C1003 C1002 1.387 . S
H1004 C1016 0.930 . S
H1005 C1018 0.930 . S
H1006 C1019 0.930 . S
H1007 C1023 0.959 . S
H1008 C1023 0.959 . S
H1009 C1023 0.961 . S
H1010 C1024 0.960 . S
H1011 C1024 0.961 . S
H1012 C1024 0.959 . S
H1013 C1027 0.929 . S
H1014 C1028 0.931 . S
H1015 C1030 0.930 . S
C1016 H1004 0.930 . S
C1016 C1017 1.399 . S
C1016 C1021 1.399 . S
C1017 C1016 1.399 . S
C1017 C1018 1.376 . S
C1018 H1005 0.930 . S
C1018 C1017 1.376 . S
C1018 C1019 1.388 . S
C1019 H1006 0.930 . S
C1019 C1018 1.388 . S
C1019 C1020 1.390 . S
C1020 C1019 1.390 . S
C1020 C1021 1.394 . S
C1020 C1026 1.465 . S
C1021 C1016 1.399 . S
C1021 C1020 1.394 . S
C1021 C1022 1.516 . S
C1022 C1021 1.516 . S
C1022 C1023 1.502 . S
C1022 C1024 1.561 . S
C1022 C1025 1.526 1_554 S
C1023 H1007 0.959 . S
C1023 H1008 0.959 . S
C1023 H1009 0.961 . S
C1023 C1022 1.502 . S
C1024 H1010 0.960 . S
C1024 H1011 0.961 . S
C1024 H1012 0.959 . S
C1024 C1022 1.561 . S
C1025 C1022 1.526 1_556 S
C1025 C1026 1.396 1_556 S
C1025 C1030 1.390 . S
C1026 C1020 1.465 . S
C1026 C1025 1.396 1_554 S
C1026 C1027 1.399 1_554 S
C1027 H1013 0.929 . S
C1027 C1026 1.399 1_556 S
C1027 C1028 1.385 . S
C1028 H1014 0.931 . S
C1028 C1027 1.385 . S
C1028 C1029 1.389 . S
C1029 C1028 1.389 . S
C1029 C1030 1.387 . S
C1030 H1015 0.930 . S
C1030 C1025 1.390 . S
C1030 C1029 1.387 . S
H1031 C1043 0.930 . S
H1032 C1045 0.930 . S
H1033 C1046 0.930 . S
H1034 C1050 0.959 . S
H1035 C1050 0.959 . S
H1036 C1050 0.961 . S
H1037 C1051 0.960 . S
H1038 C1051 0.961 . S
H1039 C1051 0.959 . S
H1040 C1054 0.929 . S
H1041 C1055 0.931 . S
H1042 C1057 0.930 . S
C1043 H1031 0.930 . S
C1043 C1044 1.399 . S
C1043 C1048 1.399 . S
C1044 C1043 1.399 . S
C1044 C1045 1.376 . S
C1045 H1032 0.930 . S
C1045 C1044 1.376 . S
C1045 C1046 1.388 . S
C1046 H1033 0.930 . S
C1046 C1045 1.388 . S
C1046 C1047 1.390 . S
C1047 C1046 1.390 . S
C1047 C1048 1.394 . S
C1047 C1053 1.465 . S
C1048 C1043 1.399 . S
C1048 C1047 1.394 . S
C1048 C1049 1.516 . S
C1049 C1048 1.516 . S
C1049 C1050 1.502 . S
C1049 C1051 1.561 . S
C1049 C1052 1.526 . S
C1050 H1034 0.959 . S
C1050 H1035 0.959 . S
C1050 H1036 0.961 . S
C1050 C1049 1.502 . S
C1051 H1037 0.960 . S
C1051 H1038 0.961 . S
C1051 H1039 0.959 . S
C1051 C1049 1.561 . S
C1052 C1049 1.526 . S
C1052 C1053 1.396 . S
C1052 C1057 1.390 . S
C1053 C1047 1.465 . S
C1053 C1052 1.396 . S
C1053 C1054 1.399 . S
C1054 H1040 0.929 . S
C1054 C1053 1.399 . S
C1054 C1055 1.385 . S
C1055 H1041 0.931 . S
C1055 C1054 1.385 . S
C1055 C1056 1.389 . S
C1056 C1055 1.389 . S
C1056 C1057 1.387 . S
C1057 H1042 0.930 . S
C1057 C1052 1.390 . S
C1057 C1056 1.387 . S
H1058 C1070 0.930 . S
H1059 C1072 0.930 . S
H1060 C1073 0.930 . S
H1061 C1077 0.959 . S
H1062 C1077 0.959 . S
H1063 C1077 0.961 . S
H1064 C1078 0.970 . S
H1065 C1078 0.961 . S
H1066 C1078 0.959 . S
H1067 C1081 0.929 . S
H1068 C1082 0.931 . S
H1069 C1084 0.930 . S
C1070 H1058 0.930 . S
C1070 C1071 1.399 . S
C1070 C1075 1.399 . S
C1071 C1070 1.399 . S
C1071 C1072 1.376 . S
C1072 H1059 0.930 . S
C1072 C1071 1.376 . S
C1072 C1073 1.388 . S
C1073 H1060 0.930 . S
C1073 C1072 1.388 . S
C1073 C1074 1.390 . S
C1074 C1073 1.390 . S
C1074 C1075 1.394 . S
C1074 C1080 1.465 . S
C1075 C1070 1.399 . S
C1075 C1074 1.394 . S
C1075 C1076 1.516 . S
C1076 C1075 1.516 . S
C1076 C1077 1.502 . S
C1076 C1078 1.561 . S
C1076 C1079 1.526 . S
C1077 H1061 0.959 . S
C1077 H1062 0.959 . S
C1077 H1063 0.961 . S
C1077 C1076 1.502 . S
C1078 H1064 0.970 . S
C1078 H1065 0.961 . S
C1078 H1066 0.959 . S
C1078 C1076 1.561 . S
C1079 C1076 1.526 . S
C1079 C1080 1.396 . S
C1079 C1084 1.390 . S
C1080 C1074 1.465 . S
C1080 C1079 1.396 . S
C1080 C1081 1.399 . S
C1081 H1067 0.929 . S
C1081 C1080 1.399 . S
C1081 C1082 1.385 . S
C1082 H1068 0.931 . S
C1082 C1081 1.385 . S
C1082 C1083 1.389 . S
C1083 C1082 1.389 . S
C1083 C1084 1.387 . S
C1084 H1069 0.930 . S
C1084 C1079 1.390 . S
C1084 C1083 1.387 . S
H1085 C1097 0.930 . S
H1086 C1099 0.930 . S
H1087 C1100 0.930 . S
H1088 C1104 0.959 . S
H1089 C1104 0.959 . S
H1090 C1104 0.961 . S
H1091 C1105 0.960 . S
H1092 C1105 0.961 . S
H1093 C1105 0.959 . S
H1094 C1108 0.929 . S
H1095 C1109 0.931 . S
H1096 C1111 0.930 . S
C1097 H1085 0.930 . S
C1097 C1098 1.399 . S
C1097 C1102 1.399 . S
C1098 C1097 1.399 . S
C1098 C1099 1.376 . S
C1099 H1086 0.930 . S
C1099 C1098 1.376 . S
C1099 C1100 1.388 . S
C1100 H1087 0.930 . S
C1100 C1099 1.388 . S
C1100 C1101 1.390 . S
C1101 C1100 1.390 . S
C1101 C1102 1.394 . S
C1101 C1107 1.465 . S
C1102 C1097 1.399 . S
C1102 C1101 1.394 . S
C1102 C1103 1.516 . S
C1103 C1102 1.516 . S
C1103 C1104 1.502 . S
C1103 C1105 1.561 . S
C1103 C1106 1.526 . S
C1104 H1088 0.959 . S
C1104 H1089 0.959 . S
C1104 H1090 0.961 . S
C1104 C1103 1.502 . S
C1105 H1091 0.960 . S
C1105 H1092 0.961 . S
C1105 H1093 0.959 . S
C1105 C1103 1.561 . S
C1106 C1103 1.526 . S
C1106 C1107 1.396 . S
C1106 C1111 1.390 . S
C1107 C1101 1.465 . S
C1107 C1106 1.396 . S
C1107 C1108 1.399 . S
C1108 H1094 0.929 . S
C1108 C1107 1.399 . S
C1108 C1109 1.385 . S
C1109 H1095 0.931 . S
C1109 C1108 1.385 . S
C1109 C1110 1.389 . S
C1110 C1109 1.389 . S
C1110 C1111 1.387 . S
C1111 H1096 0.930 . S
C1111 C1106 1.390 . S
C1111 C1110 1.387 . S
H1112 C1124 0.930 . S
H1113 C1126 0.930 . S
H1114 C1127 0.930 . S
H1115 C1131 0.959 . S
H1116 C1131 0.959 . S
H1117 C1131 0.961 . S
H1118 C1132 0.960 . S
H1119 C1132 0.961 . S
H1120 C1132 0.959 . S
H1121 C1135 0.929 . S
H1122 C1136 0.931 . S
H1123 C1138 0.930 . S
C1124 H1112 0.930 . S
C1124 C1125 1.399 . S
C1124 C1129 1.399 . S
C1125 C1124 1.399 . S
C1125 C1126 1.376 . S
C1126 H1113 0.930 . S
C1126 C1125 1.376 . S
C1126 C1127 1.388 . S
C1127 H1114 0.930 . S
C1127 C1126 1.388 . S
C1127 C1128 1.390 . S
C1128 C1127 1.390 . S
C1128 C1129 1.394 . S
C1128 C1134 1.465 . S
C1129 C1124 1.399 . S
C1129 C1128 1.394 . S
C1129 C1130 1.516 . S
C1130 C1129 1.516 . S
C1130 C1131 1.502 . S
C1130 C1132 1.561 . S
C1130 C1133 1.526 . S
C1131 H1115 0.959 . S
C1131 H1116 0.959 . S
C1131 H1117 0.961 . S
C1131 C1130 1.502 . S
C1132 H1118 0.960 . S
C1132 H1119 0.961 . S
C1132 H1120 0.959 . S
C1132 C1130 1.561 . S
C1133 C1130 1.526 . S
C1133 C1134 1.396 . S
C1133 C1138 1.390 . S
C1134 C1128 1.465 . S
C1134 C1133 1.396 . S
C1134 C1135 1.399 . S
C1135 H1121 0.929 . S
C1135 C1134 1.399 . S
C1135 C1136 1.385 . S
C1136 H1122 0.931 . S
C1136 C1135 1.385 . S
C1136 C1137 1.389 . S
C1137 C1136 1.389 . S
C1137 C1138 1.387 . S
C1138 H1123 0.930 . S
C1138 C1133 1.390 . S
C1138 C1137 1.387 . S
H1139 C1151 0.930 . S
H1140 C1153 0.930 . S
H1141 C1154 0.930 . S
H1142 C1158 0.959 . S
H1143 C1158 0.959 . S
H1144 C1158 0.961 . S
H1145 C1159 0.970 . S
H1146 C1159 0.961 . S
H1147 C1159 0.959 . S
H1148 C1162 0.929 . S
H1149 C1163 0.931 . S
H1150 C1165 0.930 . S
C1151 H1139 0.930 . S
C1151 C1152 1.399 . S
C1151 C1156 1.399 . S
C1152 C1151 1.399 . S
C1152 C1153 1.376 1_565 S
C1153 H1140 0.930 . S
C1153 C1152 1.376 1_545 S
C1153 C1154 1.388 . S
C1154 H1141 0.930 . S
C1154 C1153 1.388 . S
C1154 C1155 1.390 . S
C1155 C1154 1.390 . S
C1155 C1156 1.394 1_545 S
C1155 C1161 1.465 . S
C1156 C1151 1.399 . S
C1156 C1155 1.394 1_565 S
C1156 C1157 1.516 . S
C1157 C1156 1.516 . S
C1157 C1158 1.502 . S
C1157 C1159 1.561 1_565 S
C1157 C1160 1.526 1_565 S
C1158 H1142 0.959 . S
C1158 H1143 0.959 . S
C1158 H1144 0.961 . S
C1158 C1157 1.502 . S
C1159 H1145 0.970 . S
C1159 H1146 0.961 . S
C1159 H1147 0.959 . S
C1159 C1157 1.561 1_545 S
C1160 C1157 1.526 1_545 S
C1160 C1161 1.396 . S
C1160 C1165 1.390 . S
C1161 C1155 1.465 . S
C1161 C1160 1.396 . S
C1161 C1162 1.399 . S
C1162 H1148 0.929 . S
C1162 C1161 1.399 . S
C1162 C1163 1.385 . S
C1163 H1149 0.931 . S
C1163 C1162 1.385 . S
C1163 C1164 1.389 . S
C1164 C1163 1.389 . S
C1164 C1165 1.387 . S
C1165 H1150 0.930 . S
C1165 C1160 1.390 . S
C1165 C1164 1.387 . S
H1166 C1178 0.930 . S
H1167 C1180 0.930 . S
H1168 C1181 0.930 . S
H1169 C1185 0.959 . S
H1170 C1185 0.959 1_554 S
H1171 C1185 0.961 . S
H1172 C1186 0.960 . S
H1173 C1186 0.941 1_554 S
H1174 C1186 0.959 . S
H1175 C1189 0.929 . S
H1176 C1190 0.931 . S
H1177 C1192 0.930 . S
C1178 H1166 0.930 . S
C1178 C1179 1.399 . S
C1178 C1183 1.399 . S
C1179 C1178 1.399 . S
C1179 C1180 1.376 . S
C1180 H1167 0.930 . S
C1180 C1179 1.376 . S
C1180 C1181 1.388 . S
C1181 H1168 0.930 . S
C1181 C1180 1.388 . S
C1181 C1182 1.390 . S
C1182 C1181 1.390 . S
C1182 C1183 1.394 . S
C1182 C1188 1.465 . S
C1183 C1178 1.399 . S
C1183 C1182 1.394 . S
C1183 C1184 1.516 . S
C1184 C1183 1.516 . S
C1184 C1185 1.502 . S
C1184 C1186 1.561 . S
C1184 C1187 1.561 . S
C1185 H1169 0.959 . S
C1185 H1170 0.959 1_556 S
C1185 H1171 0.961 . S
C1185 C1184 1.502 . S
C1186 H1172 0.960 . S
C1186 H1173 0.941 1_556 S
C1186 H1174 0.959 . S
C1186 C1184 1.561 . S
C1187 C1184 1.561 . S
C1187 C1188 1.429 . S
C1187 C1192 1.331 1_556 S
C1188 C1182 1.465 . S
C1188 C1187 1.429 . S
C1188 C1189 1.399 . S
C1189 H1175 0.929 . S
C1189 C1188 1.399 . S
C1189 C1190 1.385 1_556 S
C1190 H1176 0.931 . S
C1190 C1189 1.385 1_554 S
C1190 C1191 1.389 . S
C1191 C1190 1.389 . S
C1191 C1192 1.387 . S
C1192 H1177 0.930 . S
C1192 C1187 1.331 1_554 S
C1192 C1191 1.387 . S
H1193 C1205 0.930 . S
H1194 C1207 0.930 . S
H1195 C1208 0.930 . S
H1196 C1212 0.959 . S
H1197 C1212 0.959 . S
H1198 C1212 0.961 . S
H1199 C1213 0.960 . S
H1200 C1213 0.961 . S
H1201 C1213 0.959 . S
H1202 C1216 0.929 . S
H1203 C1217 0.931 . S
H1204 C1219 0.930 . S
C1205 H1193 0.930 . S
C1205 C1206 1.399 . S
C1205 C1210 1.399 . S
C1206 C1205 1.399 . S
C1206 C1207 1.376 1_545 S
C1207 H1194 0.930 . S
C1207 C1206 1.376 1_565 S
C1207 C1208 1.388 . S
C1208 H1195 0.930 . S
C1208 C1207 1.388 . S
C1208 C1209 1.390 . S
C1209 C1208 1.390 . S
C1209 C1210 1.394 1_565 S
C1209 C1215 1.465 . S
C1210 C1205 1.399 . S
C1210 C1209 1.394 1_545 S
C1210 C1211 1.516 . S
C1211 C1210 1.516 . S
C1211 C1212 1.502 . S
C1211 C1213 1.561 . S
C1211 C1214 1.526 . S
C1212 H1196 0.959 . S
C1212 H1197 0.959 . S
C1212 H1198 0.961 . S
C1212 C1211 1.502 . S
C1213 H1199 0.960 . S
C1213 H1200 0.961 . S
C1213 H1201 0.959 . S
C1213 C1211 1.561 . S
C1214 C1211 1.526 . S
C1214 C1215 1.396 1_545 S
C1214 C1219 1.390 . S
C1215 C1209 1.465 . S
C1215 C1214 1.396 1_565 S
C1215 C1216 1.399 . S
C1216 H1202 0.929 . S
C1216 C1215 1.399 . S
C1216 C1217 1.385 . S
C1217 H1203 0.931 . S
C1217 C1216 1.385 . S
C1217 C1218 1.389 . S
C1218 C1217 1.389 . S
C1218 C1219 1.387 1_565 S
C1219 H1204 0.930 . S
C1219 C1214 1.390 . S
C1219 C1218 1.387 1_545 S
H1220 C1232 0.930 . S
H1221 C1234 0.930 . S
H1222 C1235 0.930 . S
H1223 C1239 0.959 . S
H1224 C1239 0.959 . S
H1225 C1239 0.961 . S
H1226 C1240 0.960 . S
H1227 C1240 0.961 . S
H1228 C1240 0.959 . S
H1229 C1243 0.929 . S
H1230 C1244 0.931 . S
H1231 C1246 0.930 . S
C1232 H1220 0.930 . S
C1232 C1233 1.399 . S
C1232 C1237 1.399 . S
C1233 C1232 1.399 . S
C1233 C1234 1.376 . S
C1234 H1221 0.930 . S
C1234 C1233 1.376 . S
C1234 C1235 1.388 . S
C1235 H1222 0.930 . S
C1235 C1234 1.388 . S
C1235 C1236 1.390 . S
C1236 C1235 1.390 . S
C1236 C1237 1.394 . S
C1236 C1242 1.465 . S
C1237 C1232 1.399 . S
C1237 C1236 1.394 . S
C1237 C1238 1.516 . S
C1238 C1237 1.516 . S
C1238 C1239 1.502 . S
C1238 C1240 1.561 . S
C1238 C1241 1.526 . S
C1239 H1223 0.959 . S
C1239 H1224 0.959 . S
C1239 H1225 0.961 . S
C1239 C1238 1.502 . S
C1240 H1226 0.960 . S
C1240 H1227 0.961 . S
C1240 H1228 0.959 . S
C1240 C1238 1.561 . S
C1241 C1238 1.526 . S
C1241 C1242 1.396 . S
C1241 C1246 1.390 . S
C1242 C1236 1.465 . S
C1242 C1241 1.396 . S
C1242 C1243 1.399 . S
C1243 H1229 0.929 . S
C1243 C1242 1.399 . S
C1243 C1244 1.385 . S
C1244 H1230 0.931 . S
C1244 C1243 1.385 . S
C1244 C1245 1.389 . S
C1245 C1244 1.389 . S
C1245 C1246 1.387 . S
C1246 H1231 0.930 . S
C1246 C1241 1.390 . S
C1246 C1245 1.387 . S
H1247 C1259 0.930 . S
H1248 C1261 0.930 . S
H1249 C1262 0.930 . S
H1250 C1266 0.959 . S
H1251 C1266 0.959 . S
H1252 C1266 0.961 . S
H1253 C1267 0.960 . S
H1254 C1267 0.961 . S
H1255 C1267 0.959 . S
H1256 C1270 0.929 . S
H1257 C1271 0.931 . S
H1258 C1273 0.930 . S
C1259 H1247 0.930 . S
C1259 C1260 1.399 1_565 S
C1259 C1264 1.399 . S
C1260 C1259 1.399 1_545 S
C1260 C1261 1.376 . S
C1261 H1248 0.930 . S
C1261 C1260 1.376 . S
C1261 C1262 1.388 . S
C1262 H1249 0.930 . S
C1262 C1261 1.388 . S
C1262 C1263 1.390 . S
C1263 C1262 1.390 . S
C1263 C1264 1.394 1_545 S
C1263 C1269 1.465 . S
C1264 C1259 1.399 . S
C1264 C1263 1.394 1_565 S
C1264 C1265 1.516 . S
C1265 C1264 1.516 . S
C1265 C1266 1.502 . S
C1265 C1267 1.561 . S
C1265 C1268 1.526 . S
C1266 H1250 0.959 . S
C1266 H1251 0.959 . S
C1266 H1252 0.961 . S
C1266 C1265 1.502 . S
C1267 H1253 0.960 . S
C1267 H1254 0.961 . S
C1267 H1255 0.959 . S
C1267 C1265 1.561 . S
C1268 C1265 1.526 . S
C1268 C1269 1.396 1_565 S
C1268 C1273 1.390 . S
C1269 C1263 1.465 . S
C1269 C1268 1.396 1_545 S
C1269 C1270 1.399 . S
C1270 H1256 0.929 . S
C1270 C1269 1.399 . S
C1270 C1271 1.385 . S
C1271 H1257 0.931 . S
C1271 C1270 1.385 . S
C1271 C1272 1.389 1_545 S
C1272 C1271 1.389 1_565 S
C1272 C1273 1.387 . S
C1273 H1258 0.930 . S
C1273 C1268 1.390 . S
C1273 C1272 1.387 . S
H1274 C1286 0.930 . S
H1275 C1288 0.930 . S
H1276 C1289 0.930 . S
H1277 C1293 0.959 . S
H1278 C1293 0.959 . S
H1279 C1293 0.961 . S
H1280 C1294 0.960 . S
H1281 C1294 0.961 . S
H1282 C1294 0.959 . S
H1283 C1297 0.929 . S
H1284 C1298 0.931 . S
H1285 C1300 0.930 . S
C1286 H1274 0.930 . S
C1286 C1287 1.399 . S
C1286 C1291 1.399 . S
C1287 C1286 1.399 . S
C1287 C1288 1.376 . S
C1288 H1275 0.930 . S
C1288 C1287 1.376 . S
C1288 C1289 1.388 . S
C1289 H1276 0.930 . S
C1289 C1288 1.388 . S
C1289 C1290 1.390 . S
C1290 C1289 1.390 . S
C1290 C1291 1.394 . S
C1290 C1296 1.465 . S
C1291 C1286 1.399 . S
C1291 C1290 1.394 . S
C1291 C1292 1.516 . S
C1292 C1291 1.516 . S
C1292 C1293 1.502 . S
C1292 C1294 1.561 . S
C1292 C1295 1.526 . S
C1293 H1277 0.959 . S
C1293 H1278 0.959 . S
C1293 H1279 0.961 . S
C1293 C1292 1.502 . S
C1294 H1280 0.960 . S
C1294 H1281 0.961 . S
C1294 H1282 0.959 . S
C1294 C1292 1.561 . S
C1295 C1292 1.526 . S
C1295 C1296 1.396 . S
C1295 C1300 1.390 1_554 S
C1296 C1290 1.465 . S
C1296 C1295 1.396 . S
C1296 C1297 1.399 1_554 S
C1297 H1283 0.929 . S
C1297 C1296 1.399 1_556 S
C1297 C1298 1.385 . S
C1298 H1284 0.931 . S
C1298 C1297 1.385 . S
C1298 C1299 1.389 . S
C1299 C1298 1.389 . S
C1299 C1300 1.387 . S
C1300 H1285 0.930 . S
C1300 C1295 1.390 1_556 S
C1300 C1299 1.387 . S
H1301 C1313 0.930 . S
H1302 C1315 0.930 . S
H1303 C1316 0.930 . S
H1304 C1320 0.959 . S
H1305 C1320 0.959 . S
H1306 C1320 0.961 . S
H1307 C1321 0.960 . S
H1308 C1321 0.961 . S
H1309 C1321 0.959 . S
H1310 C1324 0.929 . S
H1311 C1325 0.931 . S
H1312 C1327 0.930 . S
C1313 H1301 0.930 . S
C1313 C1314 1.399 . S
C1313 C1318 1.399 . S
C1314 C1313 1.399 . S
C1314 C1315 1.376 1_545 S
C1315 H1302 0.930 . S
C1315 C1314 1.376 1_565 S
C1315 C1316 1.388 . S
C1316 H1303 0.930 . S
C1316 C1315 1.388 . S
C1316 C1317 1.390 . S
C1317 C1316 1.390 . S
C1317 C1318 1.394 1_565 S
C1317 C1323 1.465 . S
C1318 C1313 1.399 . S
C1318 C1317 1.394 1_545 S
C1318 C1319 1.516 . S
C1319 C1318 1.516 . S
C1319 C1320 1.502 . S
C1319 C1321 1.561 . S
C1319 C1322 1.526 . S
C1320 H1304 0.959 . S
C1320 H1305 0.959 . S
C1320 H1306 0.961 . S
C1320 C1319 1.502 . S
C1321 H1307 0.960 . S
C1321 H1308 0.961 . S
C1321 H1309 0.959 . S
C1321 C1319 1.561 . S
C1322 C1319 1.526 . S
C1322 C1323 1.396 1_545 S
C1322 C1327 1.390 . S
C1323 C1317 1.465 . S
C1323 C1322 1.396 1_565 S
C1323 C1324 1.399 . S
C1324 H1310 0.929 . S
C1324 C1323 1.399 . S
C1324 C1325 1.385 . S
C1325 H1311 0.931 . S
C1325 C1324 1.385 . S
C1325 C1326 1.389 . S
C1326 C1325 1.389 . S
C1326 C1327 1.387 1_565 S
C1327 H1312 0.930 . S
C1327 C1322 1.390 . S
C1327 C1326 1.387 1_545 S
H1328 C1340 0.930 . S
H1329 C1342 0.930 . S
H1330 C1343 0.930 . S
H1331 C1347 0.959 . S
H1332 C1347 0.959 . S
H1333 C1347 0.961 1_556 S
H1334 C1348 0.960 . S
H1335 C1348 0.961 . S
H1336 C1348 0.959 . S
H1337 C1351 0.929 . S
H1338 C1352 0.931 . S
H1339 C1354 0.930 . S
C1340 H1328 0.930 . S
C1340 C1341 1.399 1_545 S
C1340 C1345 1.399 . S
C1341 C1340 1.399 1_565 S
C1341 C1342 1.376 . S
C1342 H1329 0.930 . S
C1342 C1341 1.376 . S
C1342 C1343 1.388 . S
C1343 H1330 0.930 . S
C1343 C1342 1.388 . S
C1343 C1344 1.390 . S
C1344 C1343 1.390 . S
C1344 C1345 1.394 1_565 S
C1344 C1350 1.465 1_556 S
C1345 C1340 1.399 . S
C1345 C1344 1.394 1_545 S
C1345 C1346 1.509 1_556 S
C1346 C1345 1.509 1_554 S
C1346 C1347 1.504 . S
C1346 C1348 1.554 1_554 S
C1346 C1349 1.538 . S
C1347 H1331 0.959 . S
C1347 H1332 0.959 . S
C1347 H1333 0.961 1_554 S
C1347 C1346 1.504 . S
C1348 H1334 0.960 . S
C1348 H1335 0.961 . S
C1348 H1336 0.959 . S
C1348 C1346 1.554 1_556 S
C1349 C1346 1.538 . S
C1349 C1350 1.396 1_545 S
C1349 C1354 1.390 . S
C1350 C1344 1.465 1_554 S
C1350 C1349 1.396 1_565 S
C1350 C1351 1.399 . S
C1351 H1337 0.929 . S
C1351 C1350 1.399 . S
C1351 C1352 1.385 . S
C1352 H1338 0.931 . S
C1352 C1351 1.385 . S
C1352 C1353 1.389 1_565 S
C1353 C1352 1.389 1_545 S
C1353 C1354 1.387 . S
C1354 H1339 0.930 . S
C1354 C1349 1.390 . S
C1354 C1353 1.387 . S
H1355 C1367 0.930 . S
H1356 C1369 0.930 . S
H1357 C1370 0.930 . S
H1358 C1374 0.959 . S
H1359 C1374 0.959 . S
H1360 C1374 0.961 . S
H1361 C1375 0.960 . S
H1362 C1375 0.961 . S
H1363 C1375 0.959 . S
H1364 C1378 0.929 . S
H1365 C1379 0.931 . S
H1366 C1381 0.930 . S
C1367 H1355 0.930 . S
C1367 C1368 1.399 . S
C1367 C1372 1.399 . S
C1368 C1367 1.399 . S
C1368 C1369 1.376 . S
C1369 H1356 0.930 . S
C1369 C1368 1.376 . S
C1369 C1370 1.388 . S
C1370 H1357 0.930 . S
C1370 C1369 1.388 . S
C1370 C1371 1.390 . S
C1371 C1370 1.390 . S
C1371 C1372 1.394 . S
C1371 C1377 1.465 . S
C1372 C1367 1.399 . S
C1372 C1371 1.394 . S
C1372 C1373 1.516 . S
C1373 C1372 1.516 . S
C1373 C1374 1.502 . S
C1373 C1375 1.561 . S
C1373 C1376 1.526 . S
C1374 H1358 0.959 . S
C1374 H1359 0.959 . S
C1374 H1360 0.961 . S
C1374 C1373 1.502 . S
C1375 H1361 0.960 . S
C1375 H1362 0.961 . S
C1375 H1363 0.959 . S
C1375 C1373 1.561 . S
C1376 C1373 1.526 . S
C1376 C1377 1.396 . S
C1376 C1381 1.390 . S
C1377 C1371 1.465 . S
C1377 C1376 1.396 . S
C1377 C1378 1.399 . S
C1378 H1364 0.929 . S
C1378 C1377 1.399 . S
C1378 C1379 1.385 . S
C1379 H1365 0.931 . S
C1379 C1378 1.385 . S
C1379 C1380 1.389 . S
C1380 C1379 1.389 . S
C1380 C1381 1.387 . S
C1381 H1366 0.930 . S
C1381 C1376 1.390 . S
C1381 C1380 1.387 . S
H1382 C1394 0.938 . S
H1383 C1396 0.930 . S
H1384 C1397 0.930 1_455 S
H1385 C1401 0.959 . S
H1386 C1401 0.959 . S
H1387 C1401 0.961 . S
H1388 C1402 0.960 . S
H1389 C1402 0.961 . S
H1390 C1402 0.959 . S
H1391 C1405 0.929 . S
H1392 C1406 0.931 . S
H1393 C1408 0.930 . S
C1394 H1382 0.938 . S
C1394 C1395 1.389 1_565 S
C1394 C1399 1.401 . S
C1395 C1394 1.389 1_545 S
C1395 C1396 1.376 . S
C1396 H1383 0.930 . S
C1396 C1395 1.376 . S
C1396 C1397 1.388 . S
C1397 H1384 0.930 1_655 S
C1397 C1396 1.388 . S
C1397 C1398 1.388 1_655 S
C1398 C1397 1.388 1_455 S
C1398 C1399 1.389 1_445 S
C1398 C1404 1.471 . S
C1399 C1394 1.401 . S
C1399 C1398 1.389 1_665 S
C1399 C1400 1.521 . S
C1400 C1399 1.521 . S
C1400 C1401 1.518 . S
C1400 C1402 1.545 1_655 S
C1400 C1403 1.519 1_655 S
C1401 H1385 0.959 . S
C1401 H1386 0.959 . S
C1401 H1387 0.961 . S
C1401 C1400 1.518 . S
C1402 H1388 0.960 . S
C1402 H1389 0.961 . S
C1402 H1390 0.959 . S
C1402 C1400 1.545 1_455 S
C1403 C1400 1.519 1_455 S
C1403 C1404 1.396 1_565 S
C1403 C1408 1.390 . S
C1404 C1398 1.471 . S
C1404 C1403 1.396 1_545 S
C1404 C1405 1.399 . S
C1405 H1391 0.929 . S
C1405 C1404 1.399 . S
C1405 C1406 1.385 . S
C1406 H1392 0.931 . S
C1406 C1405 1.385 . S
C1406 C1407 1.389 1_545 S
C1407 C1406 1.389 1_565 S
C1407 C1408 1.387 . S
C1408 H1393 0.930 . S
C1408 C1403 1.390 . S
C1408 C1407 1.387 . S
H1409 C1421 0.930 . S
H1410 C1423 0.930 . S
H1411 C1424 0.930 . S
H1412 C1428 0.959 . S
H1413 C1428 0.959 . S
H1414 C1428 0.961 . S
H1415 C1429 0.960 . S
H1416 C1429 0.961 . S
H1417 C1429 0.959 . S
H1418 C1432 0.929 . S
H1419 C1433 0.931 . S
H1420 C1435 0.930 . S
C1421 H1409 0.930 . S
C1421 C1422 1.399 . S
C1421 C1426 1.399 . S
C1422 C1421 1.399 . S
C1422 C1423 1.376 . S
C1423 H1410 0.930 . S
C1423 C1422 1.376 . S
C1423 C1424 1.388 . S
C1424 H1411 0.930 . S
C1424 C1423 1.388 . S
C1424 C1425 1.390 . S
C1425 C1424 1.390 . S
C1425 C1426 1.394 . S
C1425 C1431 1.465 . S
C1426 C1421 1.399 . S
C1426 C1425 1.394 . S
C1426 C1427 1.516 . S
C1427 C1426 1.516 . S
C1427 C1428 1.502 . S
C1427 C1429 1.561 . S
C1427 C1430 1.526 . S
C1428 H1412 0.959 . S
C1428 H1413 0.959 . S
C1428 H1414 0.961 . S
C1428 C1427 1.502 . S
C1429 H1415 0.960 . S
C1429 H1416 0.961 . S
C1429 H1417 0.959 . S
C1429 C1427 1.561 . S
C1430 C1427 1.526 . S
C1430 C1431 1.396 . S
C1430 C1435 1.390 . S
C1431 C1425 1.465 . S
C1431 C1430 1.396 . S
C1431 C1432 1.399 . S
C1432 H1418 0.929 . S
C1432 C1431 1.399 . S
C1432 C1433 1.385 . S
C1433 H1419 0.931 . S
C1433 C1432 1.385 . S
C1433 C1434 1.389 . S
C1434 C1433 1.389 . S
C1434 C1435 1.387 . S
C1435 H1420 0.930 . S
C1435 C1430 1.390 . S
C1435 C1434 1.387 . S
H1436 C1448 0.930 . S
H1437 C1450 0.930 . S
H1438 C1451 0.930 . S
H1439 C1455 0.959 . S
H1440 C1455 0.959 . S
H1441 C1455 0.961 . S
H1442 C1456 0.960 . S
H1443 C1456 0.961 . S
H1444 C1456 0.959 . S
H1445 C1459 0.929 . S
H1446 C1460 0.931 . S
H1447 C1462 0.930 . S
C1448 H1436 0.930 . S
C1448 C1449 1.399 . S
C1448 C1453 1.399 . S
C1449 C1448 1.399 . S
C1449 C1450 1.376 . S
C1450 H1437 0.930 . S
C1450 C1449 1.376 . S
C1450 C1451 1.388 . S
C1451 H1438 0.930 . S
C1451 C1450 1.388 . S
C1451 C1452 1.390 . S
C1452 C1451 1.390 . S
C1452 C1453 1.394 . S
C1452 C1458 1.465 . S
C1453 C1448 1.399 . S
C1453 C1452 1.394 . S
C1453 C1454 1.516 . S
C1454 C1453 1.516 . S
C1454 C1455 1.502 . S
C1454 C1456 1.561 . S
C1454 C1457 1.526 . S
C1455 H1439 0.959 . S
C1455 H1440 0.959 . S
C1455 H1441 0.961 . S
C1455 C1454 1.502 . S
C1456 H1442 0.960 . S
C1456 H1443 0.961 . S
C1456 H1444 0.959 . S
C1456 C1454 1.561 . S
C1457 C1454 1.526 . S
C1457 C1458 1.396 . S
C1457 C1462 1.390 . S
C1458 C1452 1.465 . S
C1458 C1457 1.396 . S
C1458 C1459 1.399 . S
C1459 H1445 0.929 . S
C1459 C1458 1.399 . S
C1459 C1460 1.385 . S
C1460 H1446 0.931 . S
C1460 C1459 1.385 . S
C1460 C1461 1.389 . S
C1461 C1460 1.389 . S
C1461 C1462 1.387 . S
C1462 H1447 0.930 . S
C1462 C1457 1.390 . S
C1462 C1461 1.387 . S
H1463 C1475 0.930 . S
H1464 C1477 0.930 . S
H1465 C1478 0.930 . S
H1466 C1482 0.959 . S
H1467 C1482 0.959 . S
H1468 C1482 0.961 . S
H1469 C1483 0.960 . S
H1470 C1483 0.961 . S
H1471 C1483 0.959 . S
H1472 C1486 0.929 . S
H1473 C1487 0.931 . S
H1474 C1489 0.930 . S
C1475 H1463 0.930 . S
C1475 C1476 1.399 . S
C1475 C1480 1.399 . S
C1476 C1475 1.399 . S
C1476 C1477 1.376 . S
C1477 H1464 0.930 . S
C1477 C1476 1.376 . S
C1477 C1478 1.388 . S
C1478 H1465 0.930 . S
C1478 C1477 1.388 . S
C1478 C1479 1.390 . S
C1479 C1478 1.390 . S
C1479 C1480 1.394 . S
C1479 C1485 1.465 . S
C1480 C1475 1.399 . S
C1480 C1479 1.394 . S
C1480 C1481 1.516 . S
C1481 C1480 1.516 . S
C1481 C1482 1.502 . S
C1481 C1483 1.561 . S
C1481 C1484 1.526 . S
C1482 H1466 0.959 . S
C1482 H1467 0.959 . S
C1482 H1468 0.961 . S
C1482 C1481 1.502 . S
C1483 H1469 0.960 . S
C1483 H1470 0.961 . S
C1483 H1471 0.959 . S
C1483 C1481 1.561 . S
C1484 C1481 1.526 . S
C1484 C1485 1.396 . S
C1484 C1489 1.390 . S
C1485 C1479 1.465 . S
C1485 C1484 1.396 . S
C1485 C1486 1.399 . S
C1486 H1472 0.929 . S
C1486 C1485 1.399 . S
C1486 C1487 1.385 . S
C1487 H1473 0.931 . S
C1487 C1486 1.385 . S
C1487 C1488 1.389 . S
C1488 C1487 1.389 . S
C1488 C1489 1.387 . S
C1489 H1474 0.930 . S
C1489 C1484 1.390 . S
C1489 C1488 1.387 . S
H1490 C1502 0.930 . S
H1491 C1504 0.930 . S
H1492 C1505 0.930 . S
H1493 C1509 0.959 . S
H1494 C1509 0.959 . S
H1495 C1509 0.961 . S
H1496 C1510 0.960 . S
H1497 C1510 0.961 1_455 S
H1498 C1510 0.959 . S
H1499 C1513 0.929 . S
H1500 C1514 0.931 . S
H1501 C1516 0.930 . S
C1502 H1490 0.930 . S
C1502 C1503 1.399 . S
C1502 C1507 1.399 . S
C1503 C1502 1.399 . S
C1503 C1504 1.376 . S
C1504 H1491 0.930 . S
C1504 C1503 1.376 . S
C1504 C1505 1.388 . S
C1505 H1492 0.930 . S
C1505 C1504 1.388 . S
C1505 C1506 1.390 . S
C1506 C1505 1.390 . S
C1506 C1507 1.394 . S
C1506 C1512 1.462 1_655 S
C1507 C1502 1.399 . S
C1507 C1506 1.394 . S
C1507 C1508 1.516 1_655 S
C1508 C1507 1.516 1_455 S
C1508 C1509 1.502 . S
C1508 C1510 1.561 1_455 S
C1508 C1511 1.526 . S
C1509 H1493 0.959 . S
C1509 H1494 0.959 . S
C1509 H1495 0.961 . S
C1509 C1508 1.502 . S
C1510 H1496 0.960 . S
C1510 H1497 0.961 1_655 S
C1510 H1498 0.959 . S
C1510 C1508 1.561 1_655 S
C1511 C1508 1.526 . S
C1511 C1512 1.401 . S
C1511 C1516 1.390 . S
C1512 C1506 1.462 1_455 S
C1512 C1511 1.401 . S
C1512 C1513 1.398 1_455 S
C1513 H1499 0.929 . S
C1513 C1512 1.398 1_655 S
C1513 C1514 1.385 1_655 S
C1514 H1500 0.931 . S
C1514 C1513 1.385 1_455 S
C1514 C1515 1.389 . S
C1515 C1514 1.389 . S
C1515 C1516 1.387 . S
C1516 H1501 0.930 . S
C1516 C1511 1.390 . S
C1516 C1515 1.387 . S
H1517 C1529 0.930 . S
H1518 C1531 0.930 . S
H1519 C1532 0.930 1_556 S
H1520 C1536 0.959 . S
H1521 C1536 0.959 . S
H1522 C1536 0.961 . S
H1523 C1537 0.960 . S
H1524 C1537 0.961 . S
H1525 C1537 0.957 . S
H1526 C1540 0.929 . S
H1527 C1541 0.931 . S
H1528 C1543 0.930 . S
C1529 H1517 0.930 . S
C1529 C1530 1.399 . S
C1529 C1534 1.399 . S
C1530 C1529 1.399 . S
C1530 C1531 1.376 . S
C1531 H1518 0.930 . S
C1531 C1530 1.376 . S
C1531 C1532 1.388 . S
C1532 H1519 0.930 1_554 S
C1532 C1531 1.388 . S
C1532 C1533 1.403 . S
C1533 C1532 1.403 . S
C1533 C1534 1.431 . S
C1533 C1539 1.419 1_554 S
C1534 C1529 1.399 . S
C1534 C1533 1.431 . S
C1534 C1535 1.516 . S
C1535 C1534 1.516 . S
C1535 C1536 1.502 . S
C1535 C1537 1.561 . S
C1535 C1538 1.526 1_554 S
C1536 H1520 0.959 . S
C1536 H1521 0.959 . S
C1536 H1522 0.961 . S
C1536 C1535 1.502 . S
C1537 H1523 0.960 . S
C1537 H1524 0.961 . S
C1537 H1525 0.957 . S
C1537 C1535 1.561 . S
C1538 C1535 1.526 1_556 S
C1538 C1539 1.396 . S
C1538 C1543 1.390 . S
C1539 C1533 1.419 1_556 S
C1539 C1538 1.396 . S
C1539 C1540 1.399 . S
C1540 H1526 0.929 . S
C1540 C1539 1.399 . S
C1540 C1541 1.385 . S
C1541 H1527 0.931 . S
C1541 C1540 1.385 . S
C1541 C1542 1.389 . S
C1542 C1541 1.389 . S
C1542 C1543 1.387 . S
C1543 H1528 0.930 . S
C1543 C1538 1.390 . S
C1543 C1542 1.387 . S
H1544 C1556 0.930 . S
H1545 C1558 0.930 . S
H1546 C1559 0.930 . S
H1547 C1563 0.959 . S
H1548 C1563 0.959 . S
H1549 C1563 0.961 . S
H1550 C1564 0.960 . S
H1551 C1564 0.961 . S
H1552 C1564 0.959 . S
H1553 C1567 0.929 . S
H1554 C1568 0.931 . S
H1555 C1570 0.930 . S
C1556 H1544 0.930 . S
C1556 C1557 1.399 . S
C1556 C1561 1.399 . S
C1557 C1556 1.399 . S
C1557 C1558 1.376 . S
C1558 H1545 0.930 . S
C1558 C1557 1.376 . S
C1558 C1559 1.388 . S
C1559 H1546 0.930 . S
C1559 C1558 1.388 . S
C1559 C1560 1.390 . S
C1560 C1559 1.390 . S
C1560 C1561 1.394 . S
C1560 C1566 1.465 . S
C1561 C1556 1.399 . S
C1561 C1560 1.394 . S
C1561 C1562 1.516 . S
C1562 C1561 1.516 . S
C1562 C1563 1.502 . S
C1562 C1564 1.561 . S
C1562 C1565 1.526 . S
C1563 H1547 0.959 . S
C1563 H1548 0.959 . S
C1563 H1549 0.961 . S
C1563 C1562 1.502 . S
C1564 H1550 0.960 . S
C1564 H1551 0.961 . S
C1564 H1552 0.959 . S
C1564 C1562 1.561 . S
C1565 C1562 1.526 . S
C1565 C1566 1.396 . S
C1565 C1570 1.390 . S
C1566 C1560 1.465 . S
C1566 C1565 1.396 . S
C1566 C1567 1.399 . S
C1567 H1553 0.929 . S
C1567 C1566 1.399 . S
C1567 C1568 1.385 . S
C1568 H1554 0.931 . S
C1568 C1567 1.385 . S
C1568 C1569 1.389 . S
C1569 C1568 1.389 . S
C1569 C1570 1.387 . S
C1570 H1555 0.930 . S
C1570 C1565 1.390 . S
C1570 C1569 1.387 . S
H1571 C1583 0.930 . S
H1572 C1585 0.946 . S
H1573 C1586 0.930 . S
H1574 C1590 0.959 . S
H1575 C1590 0.959 . S
H1576 C1590 0.961 . S
H1577 C1591 0.960 . S
H1578 C1591 0.961 . S
H1579 C1591 0.959 . S
H1580 C1594 0.929 . S
H1581 C1595 0.931 . S
H1582 C1597 0.930 . S
C1583 H1571 0.930 . S
C1583 C1584 1.399 . S
C1583 C1588 1.399 . S
C1584 C1583 1.399 . S
C1584 C1585 1.376 . S
C1585 H1572 0.946 . S
C1585 C1584 1.376 . S
C1585 C1586 1.388 . S
C1586 H1573 0.930 . S
C1586 C1585 1.388 . S
C1586 C1587 1.390 . S
C1587 C1586 1.390 . S
C1587 C1588 1.394 . S
C1587 C1593 1.465 . S
C1588 C1583 1.399 . S
C1588 C1587 1.394 . S
C1588 C1589 1.516 . S
C1589 C1588 1.516 . S
C1589 C1590 1.502 . S
C1589 C1591 1.561 . S
C1589 C1592 1.526 . S
C1590 H1574 0.959 . S
C1590 H1575 0.959 . S
C1590 H1576 0.961 . S
C1590 C1589 1.502 . S
C1591 H1577 0.960 . S
C1591 H1578 0.961 . S
C1591 H1579 0.959 . S
C1591 C1589 1.561 . S
C1592 C1589 1.526 . S
C1592 C1593 1.396 . S
C1592 C1597 1.390 . S
C1593 C1587 1.465 . S
C1593 C1592 1.396 . S
C1593 C1594 1.399 . S
C1594 H1580 0.929 . S
C1594 C1593 1.399 . S
C1594 C1595 1.385 . S
C1595 H1581 0.931 . S
C1595 C1594 1.385 . S
C1595 C1596 1.389 . S
C1596 C1595 1.389 . S
C1596 C1597 1.387 . S
C1597 H1582 0.930 . S
C1597 C1592 1.390 . S
C1597 C1596 1.387 . S
H1598 C1610 0.930 . S
H1599 C1612 0.930 . S
H1600 C1613 0.930 . S
H1601 C1617 0.959 . S
H1602 C1617 0.959 . S
H1603 C1617 0.961 . S
H1604 C1618 0.960 . S
H1605 C1618 0.961 . S
H1606 C1618 0.959 . S
H1607 C1621 0.929 . S
H1608 C1622 0.931 . S
H1609 C1624 0.930 . S
C1610 H1598 0.930 . S
C1610 C1611 1.399 . S
C1610 C1615 1.399 . S
C1611 C1610 1.399 . S
C1611 C1612 1.376 . S
C1612 H1599 0.930 . S
C1612 C1611 1.376 . S
C1612 C1613 1.388 . S
C1613 H1600 0.930 . S
C1613 C1612 1.388 . S
C1613 C1614 1.390 . S
C1614 C1613 1.390 . S
C1614 C1615 1.394 . S
C1614 C1620 1.465 . S
C1615 C1610 1.399 . S
C1615 C1614 1.394 . S
C1615 C1616 1.516 . S
C1616 C1615 1.516 . S
C1616 C1617 1.502 . S
C1616 C1618 1.561 . S
C1616 C1619 1.526 . S
C1617 H1601 0.959 . S
C1617 H1602 0.959 . S
C1617 H1603 0.961 . S
C1617 C1616 1.502 . S
C1618 H1604 0.960 . S
C1618 H1605 0.961 . S
C1618 H1606 0.959 . S
C1618 C1616 1.561 . S
C1619 C1616 1.526 . S
C1619 C1620 1.396 . S
C1619 C1624 1.390 . S
C1620 C1614 1.465 . S
C1620 C1619 1.396 . S
C1620 C1621 1.399 . S
C1621 H1607 0.929 . S
C1621 C1620 1.399 . S
C1621 C1622 1.385 . S
C1622 H1608 0.931 . S
C1622 C1621 1.385 . S
C1622 C1623 1.389 . S
C1623 C1622 1.389 . S
C1623 C1624 1.387 . S
C1624 H1609 0.930 . S
C1624 C1619 1.390 . S
C1624 C1623 1.387 . S
H1625 C1637 0.930 . S
H1626 C1639 0.930 . S
H1627 C1640 0.930 . S
H1628 C1644 0.959 . S
H1629 C1644 0.959 . S
H1630 C1644 0.961 . S
H1631 C1645 0.960 . S
H1632 C1645 0.961 . S
H1633 C1645 0.959 . S
H1634 C1648 0.929 . S
H1635 C1649 0.931 . S
H1636 C1651 0.930 . S
C1637 H1625 0.930 . S
C1637 C1638 1.399 . S
C1637 C1642 1.399 . S
C1638 C1637 1.399 . S
C1638 C1639 1.376 . S
C1639 H1626 0.930 . S
C1639 C1638 1.376 . S
C1639 C1640 1.388 . S
C1640 H1627 0.930 . S
C1640 C1639 1.388 . S
C1640 C1641 1.390 . S
C1641 C1640 1.390 . S
C1641 C1642 1.394 . S
C1641 C1647 1.465 . S
C1642 C1637 1.399 . S
C1642 C1641 1.394 . S
C1642 C1643 1.516 . S
C1643 C1642 1.516 . S
C1643 C1644 1.502 . S
C1643 C1645 1.561 . S
C1643 C1646 1.526 . S
C1644 H1628 0.959 . S
C1644 H1629 0.959 . S
C1644 H1630 0.961 . S
C1644 C1643 1.502 . S
C1645 H1631 0.960 . S
C1645 H1632 0.961 . S
C1645 H1633 0.959 . S
C1645 C1643 1.561 . S
C1646 C1643 1.526 . S
C1646 C1647 1.396 . S
C1646 C1651 1.390 . S
C1647 C1641 1.465 . S
C1647 C1646 1.396 . S
C1647 C1648 1.399 . S
C1648 H1634 0.929 . S
C1648 C1647 1.399 . S
C1648 C1649 1.385 . S
C1649 H1635 0.931 . S
C1649 C1648 1.385 . S
C1649 C1650 1.389 . S
C1650 C1649 1.389 . S
C1650 C1651 1.387 . S
C1651 H1636 0.930 . S
C1651 C1646 1.390 . S
C1651 C1650 1.387 . S
H1652 C1664 0.930 . S
H1653 C1666 0.930 . S
H1654 C1667 0.930 . S
H1655 C1671 0.959 . S
H1656 C1671 0.959 . S
H1657 C1671 0.961 . S
H1658 C1672 0.960 . S
H1659 C1672 0.961 . S
H1660 C1672 0.959 . S
H1661 C1675 0.929 . S
H1662 C1676 0.931 . S
H1663 C1678 0.930 . S
C1664 H1652 0.930 . S
C1664 C1665 1.399 . S
C1664 C1669 1.399 . S
C1665 C1664 1.399 . S
C1665 C1666 1.376 . S
C1666 H1653 0.930 . S
C1666 C1665 1.376 . S
C1666 C1667 1.388 . S
C1667 H1654 0.930 . S
C1667 C1666 1.388 . S
C1667 C1668 1.390 . S
C1668 C1667 1.390 . S
C1668 C1669 1.394 . S
C1668 C1674 1.465 . S
C1669 C1664 1.399 . S
C1669 C1668 1.394 . S
C1669 C1670 1.516 . S
C1670 C1669 1.516 . S
C1670 C1671 1.502 . S
C1670 C1672 1.561 . S
C1670 C1673 1.526 . S
C1671 H1655 0.959 . S
C1671 H1656 0.959 . S
C1671 H1657 0.961 . S
C1671 C1670 1.502 . S
C1672 H1658 0.960 . S
C1672 H1659 0.961 . S
C1672 H1660 0.959 . S
C1672 C1670 1.561 . S
C1673 C1670 1.526 . S
C1673 C1674 1.396 . S
C1673 C1678 1.390 . S
C1674 C1668 1.465 . S
C1674 C1673 1.396 . S
C1674 C1675 1.399 . S
C1675 H1661 0.929 . S
C1675 C1674 1.399 . S
C1675 C1676 1.385 . S
C1676 H1662 0.931 . S
C1676 C1675 1.385 . S
C1676 C1677 1.389 . S
C1677 C1676 1.389 . S
C1677 C1678 1.387 . S
C1678 H1663 0.930 . S
C1678 C1673 1.390 . S
C1678 C1677 1.387 . S
H1679 C1691 0.930 . S
H1680 C1693 0.930 . S
H1681 C1694 0.930 . S
H1682 C1698 0.959 . S
H1683 C1698 0.959 . S
H1684 C1698 0.961 . S
H1685 C1699 0.960 . S
H1686 C1699 0.961 . S
H1687 C1699 0.959 . S
H1688 C1702 0.929 . S
H1689 C1703 0.918 1_655 S
H1690 C1705 0.930 . S
C1691 H1679 0.930 . S
C1691 C1692 1.399 . S
C1691 C1696 1.399 . S
C1692 C1691 1.399 . S
C1692 C1693 1.376 . S
C1693 H1680 0.930 . S
C1693 C1692 1.376 . S
C1693 C1694 1.388 . S
C1694 H1681 0.930 . S
C1694 C1693 1.388 . S
C1694 C1695 1.390 . S
C1695 C1694 1.390 . S
C1695 C1696 1.394 . S
C1695 C1701 1.465 . S
C1696 C1691 1.399 . S
C1696 C1695 1.394 . S
C1696 C1697 1.516 . S
C1697 C1696 1.516 . S
C1697 C1698 1.502 . S
C1697 C1699 1.561 . S
C1697 C1700 1.526 . S
C1698 H1682 0.959 . S
C1698 H1683 0.959 . S
C1698 H1684 0.961 . S
C1698 C1697 1.502 . S
C1699 H1685 0.960 . S
C1699 H1686 0.961 . S
C1699 H1687 0.959 . S
C1699 C1697 1.561 . S
C1700 C1697 1.526 . S
C1700 C1701 1.396 . S
C1700 C1705 1.390 . S
C1701 C1695 1.465 . S
C1701 C1700 1.396 . S
C1701 C1702 1.399 . S
C1702 H1688 0.929 . S
C1702 C1701 1.399 . S
C1702 C1703 1.385 . S
C1703 H1689 0.918 1_455 S
C1703 C1702 1.385 . S
C1703 C1704 1.389 . S
C1704 C1703 1.389 . S
C1704 C1705 1.387 . S
C1705 H1690 0.930 . S
C1705 C1700 1.390 . S
C1705 C1704 1.387 . S
H1706 C1718 0.930 . S
H1707 C1720 0.930 . S
H1708 C1721 0.930 . S
H1709 C1725 0.959 . S
H1710 C1725 0.959 . S
H1711 C1725 0.961 . S
H1712 C1726 0.960 . S
H1713 C1726 0.961 . S
H1714 C1726 0.959 . S
H1715 C1729 0.929 . S
H1716 C1730 0.931 . S
H1717 C1732 0.930 . S
C1718 H1706 0.930 . S
C1718 C1719 1.399 . S
C1718 C1723 1.399 . S
C1719 C1718 1.399 . S
C1719 C1720 1.376 . S
C1720 H1707 0.930 . S
C1720 C1719 1.376 . S
C1720 C1721 1.388 . S
C1721 H1708 0.930 . S
C1721 C1720 1.388 . S
C1721 C1722 1.390 . S
C1722 C1721 1.390 . S
C1722 C1723 1.394 . S
C1722 C1728 1.465 . S
C1723 C1718 1.399 . S
C1723 C1722 1.394 . S
C1723 C1724 1.516 . S
C1724 C1723 1.516 . S
C1724 C1725 1.502 . S
C1724 C1726 1.561 . S
C1724 C1727 1.526 . S
C1725 H1709 0.959 . S
C1725 H1710 0.959 . S
C1725 H1711 0.961 . S
C1725 C1724 1.502 . S
C1726 H1712 0.960 . S
C1726 H1713 0.961 . S
C1726 H1714 0.959 . S
C1726 C1724 1.561 . S
C1727 C1724 1.526 . S
C1727 C1728 1.396 . S
C1727 C1732 1.390 . S
C1728 C1722 1.465 . S
C1728 C1727 1.396 . S
C1728 C1729 1.399 . S
C1729 H1715 0.929 . S
C1729 C1728 1.399 . S
C1729 C1730 1.385 . S
C1730 H1716 0.931 . S
C1730 C1729 1.385 . S
C1730 C1731 1.389 . S
C1731 C1730 1.389 . S
C1731 C1732 1.387 . S
C1732 H1717 0.930 . S
C1732 C1727 1.390 . S
C1732 C1731 1.387 . S
H1733 C1745 0.930 . S
H1734 C1747 0.930 . S
H1735 C1748 0.930 . S
H1736 C1752 0.959 . S
H1737 C1752 0.959 . S
H1738 C1752 0.961 . S
H1739 C1753 0.960 . S
H1740 C1753 0.961 . S
H1741 C1753 0.959 . S
H1742 C1756 0.929 . S
H1743 C1757 0.931 . S
H1744 C1759 0.930 . S
C1745 H1733 0.930 . S
C1745 C1746 1.399 . S
C1745 C1750 1.399 . S
C1746 C1745 1.399 . S
C1746 C1747 1.376 . S
C1747 H1734 0.930 . S
C1747 C1746 1.376 . S
C1747 C1748 1.388 . S
C1748 H1735 0.930 . S
C1748 C1747 1.388 . S
C1748 C1749 1.390 . S
C1749 C1748 1.390 . S
C1749 C1750 1.394 . S
C1749 C1755 1.465 . S
C1750 C1745 1.399 . S
C1750 C1749 1.394 . S
C1750 C1751 1.516 . S
C1751 C1750 1.516 . S
C1751 C1752 1.502 . S
C1751 C1753 1.561 . S
C1751 C1754 1.526 . S
C1752 H1736 0.959 . S
C1752 H1737 0.959 . S
C1752 H1738 0.961 . S
C1752 C1751 1.502 . S
C1753 H1739 0.960 . S
C1753 H1740 0.961 . S
C1753 H1741 0.959 . S
C1753 C1751 1.561 . S
C1754 C1751 1.526 . S
C1754 C1755 1.396 . S
C1754 C1759 1.390 . S
C1755 C1749 1.465 . S
C1755 C1754 1.396 . S
C1755 C1756 1.399 . S
C1756 H1742 0.929 . S
C1756 C1755 1.399 . S
C1756 C1757 1.385 . S
C1757 H1743 0.931 . S
C1757 C1756 1.385 . S
C1757 C1758 1.389 . S
C1758 C1757 1.389 . S
C1758 C1759 1.387 . S
C1759 H1744 0.930 . S
C1759 C1754 1.390 . S
C1759 C1758 1.387 . S
H1760 C1772 0.930 . S
H1761 C1774 0.930 . S
H1762 C1775 0.930 . S
H1763 C1779 0.959 . S
H1764 C1779 0.959 . S
H1765 C1779 0.961 . S
H1766 C1780 0.960 . S
H1767 C1780 0.961 . S
H1768 C1780 0.959 . S
H1769 C1783 0.929 . S
H1770 C1784 0.931 . S
H1771 C1786 0.930 . S
C1772 H1760 0.930 . S
C1772 C1773 1.399 . S
C1772 C1777 1.399 . S
C1773 C1772 1.399 . S
C1773 C1774 1.376 . S
C1774 H1761 0.930 . S
C1774 C1773 1.376 . S
C1774 C1775 1.388 . S
C1775 H1762 0.930 . S
C1775 C1774 1.388 . S
C1775 C1776 1.390 . S
C1776 C1775 1.390 . S
C1776 C1777 1.394 . S
C1776 C1782 1.465 . S
C1777 C1772 1.399 . S
C1777 C1776 1.394 . S
C1777 C1778 1.516 . S
C1778 C1777 1.516 . S
C1778 C1779 1.502 . S
C1778 C1780 1.561 . S
C1778 C1781 1.526 . S
C1779 H1763 0.959 . S
C1779 H1764 0.959 . S
C1779 H1765 0.961 . S
C1779 C1778 1.502 . S
C1780 H1766 0.960 . S
C1780 H1767 0.961 . S
C1780 H1768 0.959 . S
C1780 C1778 1.561 . S
C1781 C1778 1.526 . S
C1781 C1782 1.396 . S
C1781 C1786 1.390 . S
C1782 C1776 1.465 . S
C1782 C1781 1.396 . S
C1782 C1783 1.399 . S
C1783 H1769 0.929 . S
C1783 C1782 1.399 . S
C1783 C1784 1.385 . S
C1784 H1770 0.931 . S
C1784 C1783 1.385 . S
C1784 C1785 1.389 . S
C1785 C1784 1.389 . S
C1785 C1786 1.387 . S
C1786 H1771 0.930 . S
C1786 C1781 1.390 . S
C1786 C1785 1.387 . S
H1787 C1799 0.930 . S
H1788 C1801 0.930 . S
H1789 C1802 0.930 . S
H1790 C1806 0.959 . S
H1791 C1806 0.959 . S
H1792 C1806 0.961 . S
H1793 C1807 0.960 . S
H1794 C1807 0.961 1_545 S
H1795 C1807 0.959 . S
H1796 C1810 0.929 . S
H1797 C1811 0.931 . S
H1798 C1813 0.930 . S
C1799 H1787 0.930 . S
C1799 C1800 1.399 . S
C1799 C1804 1.399 . S
C1800 C1799 1.399 . S
C1800 C1801 1.376 . S
C1801 H1788 0.930 . S
C1801 C1800 1.376 . S
C1801 C1802 1.388 . S
C1802 H1789 0.930 . S
C1802 C1801 1.388 . S
C1802 C1803 1.390 . S
C1803 C1802 1.390 . S
C1803 C1804 1.394 . S
C1803 C1809 1.465 . S
C1804 C1799 1.399 . S
C1804 C1803 1.394 . S
C1804 C1805 1.516 . S
C1805 C1804 1.516 . S
C1805 C1806 1.502 . S
C1805 C1807 1.561 1_545 S
C1805 C1808 1.526 . S
C1806 H1790 0.959 . S
C1806 H1791 0.959 . S
C1806 H1792 0.961 . S
C1806 C1805 1.502 . S
C1807 H1793 0.960 . S
C1807 H1794 0.961 1_565 S
C1807 H1795 0.959 . S
C1807 C1805 1.561 1_565 S
C1808 C1805 1.526 . S
C1808 C1809 1.396 . S
C1808 C1813 1.390 . S
C1809 C1803 1.465 . S
C1809 C1808 1.396 . S
C1809 C1810 1.399 . S
C1810 H1796 0.929 . S
C1810 C1809 1.399 . S
C1810 C1811 1.385 . S
C1811 H1797 0.931 . S
C1811 C1810 1.385 . S
C1811 C1812 1.389 . S
C1812 C1811 1.389 . S
C1812 C1813 1.387 . S
C1813 H1798 0.930 . S
C1813 C1808 1.390 . S
C1813 C1812 1.387 . S
H1814 C1826 0.930 . S
H1815 C1828 0.930 . S
H1816 C1829 0.930 . S
H1817 C1833 0.959 . S
H1818 C1833 0.959 . S
H1819 C1833 0.961 . S
H1820 C1834 0.960 . S
H1821 C1834 0.961 . S
H1822 C1834 0.959 . S
H1823 C1837 0.929 . S
H1824 C1838 0.931 . S
H1825 C1840 0.930 . S
C1826 H1814 0.930 . S
C1826 C1827 1.399 . S
C1826 C1831 1.399 . S
C1827 C1826 1.399 . S
C1827 C1828 1.376 . S
C1828 H1815 0.930 . S
C1828 C1827 1.376 . S
C1828 C1829 1.388 . S
C1829 H1816 0.930 . S
C1829 C1828 1.388 . S
C1829 C1830 1.390 . S
C1830 C1829 1.390 . S
C1830 C1831 1.394 . S
C1830 C1836 1.465 . S
C1831 C1826 1.399 . S
C1831 C1830 1.394 . S
C1831 C1832 1.516 . S
C1832 C1831 1.516 . S
C1832 C1833 1.502 . S
C1832 C1834 1.561 . S
C1832 C1835 1.526 . S
C1833 H1817 0.959 . S
C1833 H1818 0.959 . S
C1833 H1819 0.961 . S
C1833 C1832 1.502 . S
C1834 H1820 0.960 . S
C1834 H1821 0.961 . S
C1834 H1822 0.959 . S
C1834 C1832 1.561 . S
C1835 C1832 1.526 . S
C1835 C1836 1.396 . S
C1835 C1840 1.390 . S
C1836 C1830 1.465 . S
C1836 C1835 1.396 . S
C1836 C1837 1.399 . S
C1837 H1823 0.929 . S
C1837 C1836 1.399 . S
C1837 C1838 1.385 . S
C1838 H1824 0.931 . S
C1838 C1837 1.385 . S
C1838 C1839 1.389 . S
C1839 C1838 1.389 . S
C1839 C1840 1.387 . S
C1840 H1825 0.930 . S
C1840 C1835 1.390 . S
C1840 C1839 1.387 . S
H1841 C1853 0.930 1_545 S
H1842 C1855 0.930 . S
H1843 C1856 0.930 . S
H1844 C1860 0.959 . S
H1845 C1860 0.959 . S
H1846 C1860 0.961 . S
H1847 C1861 0.960 . S
H1848 C1861 0.961 . S
H1849 C1861 0.959 . S
H1850 C1864 0.929 . S
H1851 C1865 0.931 . S
H1852 C1867 0.930 . S
C1853 H1841 0.930 1_565 S
C1853 C1854 1.399 . S
C1853 C1858 1.399 . S
C1854 C1853 1.399 . S
C1854 C1855 1.376 . S
C1855 H1842 0.930 . S
C1855 C1854 1.376 . S
C1855 C1856 1.388 . S
C1856 H1843 0.930 . S
C1856 C1855 1.388 . S
C1856 C1857 1.390 . S
C1857 C1856 1.390 . S
C1857 C1858 1.394 . S
C1857 C1863 1.465 . S
C1858 C1853 1.399 . S
C1858 C1857 1.394 . S
C1858 C1859 1.516 1_565 S
C1859 C1858 1.516 1_545 S
C1859 C1860 1.502 . S
C1859 C1861 1.561 . S
C1859 C1862 1.526 1_545 S
C1860 H1844 0.959 . S
C1860 H1845 0.959 . S
C1860 H1846 0.961 . S
C1860 C1859 1.502 . S
C1861 H1847 0.960 . S
C1861 H1848 0.961 . S
C1861 H1849 0.959 . S
C1861 C1859 1.561 . S
C1862 C1859 1.526 1_565 S
C1862 C1863 1.396 . S
C1862 C1867 1.390 1_565 S
C1863 C1857 1.465 . S
C1863 C1862 1.396 . S
C1863 C1864 1.399 . S
C1864 H1850 0.929 . S
C1864 C1863 1.399 . S
C1864 C1865 1.385 . S
C1865 H1851 0.931 . S
C1865 C1864 1.385 . S
C1865 C1866 1.389 . S
C1866 C1865 1.389 . S
C1866 C1867 1.387 1_565 S
C1867 H1852 0.930 . S
C1867 C1862 1.390 1_545 S
C1867 C1866 1.387 1_545 S
H1868 C1880 0.930 . S
H1869 C1882 0.930 . S
H1870 C1883 0.930 . S
H1871 C1887 0.959 . S
H1872 C1887 0.959 . S
H1873 C1887 0.961 . S
H1874 C1888 0.960 . S
H1875 C1888 0.961 . S
H1876 C1888 0.959 . S
H1877 C1891 0.929 . S
H1878 C1892 0.931 . S
H1879 C1894 0.930 . S
C1880 H1868 0.930 . S
C1880 C1881 1.399 . S
C1880 C1885 1.399 . S
C1881 C1880 1.399 . S
C1881 C1882 1.376 . S
C1882 H1869 0.930 . S
C1882 C1881 1.376 . S
C1882 C1883 1.388 . S
C1883 H1870 0.930 . S
C1883 C1882 1.388 . S
C1883 C1884 1.390 . S
C1884 C1883 1.390 . S
C1884 C1885 1.394 . S
C1884 C1890 1.465 . S
C1885 C1880 1.399 . S
C1885 C1884 1.394 . S
C1885 C1886 1.516 . S
C1886 C1885 1.516 . S
C1886 C1887 1.502 . S
C1886 C1888 1.561 . S
C1886 C1889 1.526 . S
C1887 H1871 0.959 . S
C1887 H1872 0.959 . S
C1887 H1873 0.961 . S
C1887 C1886 1.502 . S
C1888 H1874 0.960 . S
C1888 H1875 0.961 . S
C1888 H1876 0.959 . S
C1888 C1886 1.561 . S
C1889 C1886 1.526 . S
C1889 C1890 1.396 . S
C1889 C1894 1.390 . S
C1890 C1884 1.465 . S
C1890 C1889 1.396 . S
C1890 C1891 1.399 . S
C1891 H1877 0.929 . S
C1891 C1890 1.399 . S
C1891 C1892 1.385 . S
C1892 H1878 0.931 . S
C1892 C1891 1.385 . S
C1892 C1893 1.389 . S
C1893 C1892 1.389 . S
C1893 C1894 1.387 . S
C1894 H1879 0.930 . S
C1894 C1889 1.390 . S
C1894 C1893 1.387 . S
H1895 C1907 0.930 . S
H1896 C1909 0.930 . S
H1897 C1910 0.930 . S
H1898 C1914 0.959 . S
H1899 C1914 0.959 . S
H1900 C1914 0.961 . S
H1901 C1915 0.960 . S
H1902 C1915 0.961 . S
H1903 C1915 0.959 . S
H1904 C1918 0.929 . S
H1905 C1919 0.931 . S
H1906 C1921 0.930 . S
C1907 H1895 0.930 . S
C1907 C1908 1.399 1_565 S
C1907 C1912 1.399 . S
C1908 C1907 1.399 1_545 S
C1908 C1909 1.376 . S
C1909 H1896 0.930 . S
C1909 C1908 1.376 . S
C1909 C1910 1.388 . S
C1910 H1897 0.930 . S
C1910 C1909 1.388 . S
C1910 C1911 1.390 1_545 S
C1911 C1910 1.390 1_565 S
C1911 C1912 1.394 . S
C1911 C1917 1.465 . S
C1912 C1907 1.399 . S
C1912 C1911 1.394 . S
C1912 C1913 1.516 . S
C1913 C1912 1.516 . S
C1913 C1914 1.502 . S
C1913 C1915 1.561 . S
C1913 C1916 1.526 . S
C1914 H1898 0.959 . S
C1914 H1899 0.959 . S
C1914 H1900 0.961 . S
C1914 C1913 1.502 . S
C1915 H1901 0.960 . S
C1915 H1902 0.961 . S
C1915 H1903 0.959 . S
C1915 C1913 1.561 . S
C1916 C1913 1.526 . S
C1916 C1917 1.396 . S
C1916 C1921 1.390 . S
C1917 C1911 1.465 . S
C1917 C1916 1.396 . S
C1917 C1918 1.399 . S
C1918 H1904 0.929 . S
C1918 C1917 1.399 . S
C1918 C1919 1.385 . S
C1919 H1905 0.931 . S
C1919 C1918 1.385 . S
C1919 C1920 1.389 . S
C1920 C1919 1.389 . S
C1920 C1921 1.387 . S
C1921 H1906 0.930 . S
C1921 C1916 1.390 . S
C1921 C1920 1.387 . S
H1922 C1934 0.930 . S
H1923 C1936 0.930 . S
H1924 C1937 0.930 . S
H1925 C1941 0.959 . S
H1926 C1941 0.959 . S
H1927 C1941 0.961 . S
H1928 C1942 0.960 . S
H1929 C1942 0.961 . S
H1930 C1942 0.959 . S
H1931 C1945 0.929 . S
H1932 C1946 0.931 . S
H1933 C1948 0.930 . S
C1934 H1922 0.930 . S
C1934 C1935 1.399 . S
C1934 C1939 1.399 . S
C1935 C1934 1.399 . S
C1935 C1936 1.376 . S
C1936 H1923 0.930 . S
C1936 C1935 1.376 . S
C1936 C1937 1.388 . S
C1937 H1924 0.930 . S
C1937 C1936 1.388 . S
C1937 C1938 1.390 . S
C1938 C1937 1.390 . S
C1938 C1939 1.394 . S
C1938 C1944 1.465 . S
C1939 C1934 1.399 . S
C1939 C1938 1.394 . S
C1939 C1940 1.516 . S
C1940 C1939 1.516 . S
C1940 C1941 1.502 . S
C1940 C1942 1.561 . S
C1940 C1943 1.526 . S
C1941 H1925 0.959 . S
C1941 H1926 0.959 . S
C1941 H1927 0.961 . S
C1941 C1940 1.502 . S
C1942 H1928 0.960 . S
C1942 H1929 0.961 . S
C1942 H1930 0.959 . S
C1942 C1940 1.561 . S
C1943 C1940 1.526 . S
C1943 C1944 1.396 . S
C1943 C1948 1.390 . S
C1944 C1938 1.465 . S
C1944 C1943 1.396 . S
C1944 C1945 1.399 . S
C1945 H1931 0.929 . S
C1945 C1944 1.399 . S
C1945 C1946 1.385 . S
C1946 H1932 0.931 . S
C1946 C1945 1.385 . S
C1946 C1947 1.389 . S
C1947 C1946 1.389 . S
C1947 C1948 1.387 . S
C1948 H1933 0.930 . S
C1948 C1943 1.390 . S
C1948 C1947 1.387 . S
H1949 C1961 0.930 1_565 S
H1950 C1963 0.930 . S
H1951 C1964 0.930 . S
H1952 C1968 0.959 . S
H1953 C1968 0.959 . S
H1954 C1968 0.961 . S
H1955 C1969 0.960 . S
H1956 C1969 0.961 . S
H1957 C1969 0.959 . S
H1958 C1972 0.929 . S
H1959 C1973 0.931 . S
H1960 C1975 0.930 . S
C1961 H1949 0.930 1_545 S
C1961 C1962 1.399 . S
C1961 C1966 1.399 . S
C1962 C1961 1.399 . S
C1962 C1963 1.376 . S
C1963 H1950 0.930 . S
C1963 C1962 1.376 . S
C1963 C1964 1.388 . S
C1964 H1951 0.930 . S
C1964 C1963 1.388 . S
C1964 C1965 1.390 . S
C1965 C1964 1.390 . S
C1965 C1966 1.394 . S
C1965 C1971 1.465 . S
C1966 C1961 1.399 . S
C1966 C1965 1.394 . S
C1966 C1967 1.516 . S
C1967 C1966 1.516 . S
C1967 C1968 1.502 1_545 S
C1967 C1969 1.561 . S
C1967 C1970 1.526 . S
C1968 H1952 0.959 . S
C1968 H1953 0.959 . S
C1968 H1954 0.961 . S
C1968 C1967 1.502 1_565 S
C1969 H1955 0.960 . S
C1969 H1956 0.961 . S
C1969 H1957 0.959 . S
C1969 C1967 1.561 . S
C1970 C1967 1.526 . S
C1970 C1971 1.396 . S
C1970 C1975 1.390 . S
C1971 C1965 1.465 . S
C1971 C1970 1.396 . S
C1971 C1972 1.399 . S
C1972 H1958 0.929 . S
C1972 C1971 1.399 . S
C1972 C1973 1.385 . S
C1973 H1959 0.931 . S
C1973 C1972 1.385 . S
C1973 C1974 1.389 . S
C1974 C1973 1.389 . S
C1974 C1975 1.387 . S
C1975 H1960 0.930 . S
C1975 C1970 1.390 . S
C1975 C1974 1.387 . S
C477 C224 2.203 . S
C489 C5 2.246 . S
C504 C369 2.517 . S
C516 C39 2.610 . S
C531 C63 2.551 . S
C543 C166 2.544 . S
C558 C427 2.345 . S
C570 C92 2.356 . S
C585 C108 2.411 . S
C597 C121 2.393 . S
C612 C150 2.546 . S
C624 C253 2.415 . S
C639 C179 2.506 . S
C651 C37 2.254 . S
C666 C311 2.490 . S
C678 C208 2.473 . S
C693 C456 2.197 . S
C705 C237 2.248 . S
C720 C271 2.592 . S
C732 C137 2.490 . S
C747 C398 2.512 . S
C759 C295 2.544 . S
C774 C195 2.327 . S
C786 C324 2.332 . S
C801 C340 2.373 . S
C813 C353 2.428 . S
C828 C382 2.509 . S
C840 C21 2.406 . S
C855 C411 2.476 . S
C867 C269 2.264 . S
C882 C79 2.433 . S
C894 C440 2.444 . S
C909 C282 1.204 . S
C921 C3 1.098 . S
C936 C44 0.818 . S
C948 C298 0.864 . S
C963 C61 0.790 . S
C975 C327 0.823 . S
C990 C90 0.902 . S
C1002 C240 1.018 . S
C1017 C385 0.580 . S
C1029 C119 0.705 . S
C1044 C148 1.323 . S
C1056 C414 1.439 . S
C1071 C443 0.985 . S
C1083 C177 1.040 . S
C1098 C206 1.329 . S
C1110 C356 1.315 . S
C1125 C50 1.177 . S
C1137 C235 1.119 . S
C1152 C66 0.880 . S
C1164 C276 0.861 . S
C1179 C95 0.825 . S
C1191 C293 0.805 . S
C1206 C8 1.037 . S
C1218 C322 0.914 . S
C1233 C351 0.598 . S
C1245 C153 0.453 . S
C1260 C182 1.394 . S
C1272 C380 1.384 . S
C1287 C211 0.981 . S
C1299 C409 0.891 . S
C1314 C438 1.320 . S
C1326 C124 1.305 . S
C1341 C129 1.970 . S
C1353 C13 1.955 . S
C1368 C42 1.842 . S
C1380 C390 1.896 . S
C1395 C187 1.730 . S
C1407 C71 1.693 . S
C1422 C448 2.064 . S
C1434 C100 2.117 . S
C1449 C274 1.806 . S
C1461 C158 1.909 . S
C1476 C216 2.082 . S
C1488 C332 2.108 . S
C1503 C245 1.998 . S
C1515 C361 1.935 . S
C1530 C303 1.751 . S
C1542 C419 1.679 . S
C1557 C218 1.433 . S
C1569 C10 1.350 1_565 S
C1584 C363 1.609 1_655 S
C1596 C34 1.562 . S
C1611 C68 1.025 . S
C1623 C160 1.108 . S
C1638 C97 1.658 . S
C1650 C421 1.707 . S
C1665 C126 1.270 . S
C1677 C102 1.310 . S
C1692 C155 1.648 . S
C1704 C247 1.702 1_455 S
C1719 C184 1.879 . S
C1731 C32 1.964 . S
C1746 C305 1.814 . S
C1758 C213 1.789 . S
C1773 C242 1.349 . S
C1785 C450 1.435 . S
C1800 C131 1.586 1_545 S
C1812 C266 1.522 . S
C1827 C392 1.070 . S
C1839 C300 1.077 . S
C1854 C329 1.681 . S
C1866 C189 1.705 1_465 S
C1881 C334 1.326 . S
C1893 C358 1.274 . S
C1908 C15 1.676 . S
C1920 C387 1.566 . S
C1935 C416 1.884 . S
C1947 C264 1.964 . S
C1962 C73 1.805 1_645 S
C1974 C445 1.781 . S
