# Generated by pormake.
# Topology wiu, (6)-cn, num edge types: 1
# Building blocks:
#     Node 0, Type 0, BuildingBlock: CUKXOW_clean_sbu_0, # of connection points: 6
#     Node 1, Type 0, BuildingBlock: CUKXOW_clean_sbu_0, # of connection points: 6
#     Node 2, Type 0, BuildingBlock: CUKXOW_clean_sbu_0, # of connection points: 6
#     Node 3, Type 0, BuildingBlock: CUKXOW_clean_sbu_0, # of connection points: 6
#     Node 4, Type 0, BuildingBlock: CUKXOW_clean_sbu_0, # of connection points: 6
#     Node 5, Type 0, BuildingBlock: CUKXOW_clean_sbu_0, # of connection points: 6
#     Node 6, Type 0, BuildingBlock: CUKXOW_clean_sbu_0, # of connection points: 6
#     Node 7, Type 0, BuildingBlock: CUKXOW_clean_sbu_0, # of connection points: 6
#     Node 8, Type 0, BuildingBlock: CUKXOW_clean_sbu_0, # of connection points: 6
#     Node 9, Type 0, BuildingBlock: CUKXOW_clean_sbu_0, # of connection points: 6
#     Node 10, Type 0, BuildingBlock: CUKXOW_clean_sbu_0, # of connection points: 6
#     Node 11, Type 0, BuildingBlock: CUKXOW_clean_sbu_0, # of connection points: 6
#     Node 12, Type 0, BuildingBlock: CUKXOW_clean_sbu_0, # of connection points: 6
#     Node 13, Type 0, BuildingBlock: CUKXOW_clean_sbu_0, # of connection points: 6
#     Node 14, Type 0, BuildingBlock: CUKXOW_clean_sbu_0, # of connection points: 6
#     Node 15, Type 0, BuildingBlock: CUKXOW_clean_sbu_0, # of connection points: 6
#     Edge 16, Type (0, 0), BuildingBlock: OJICUG_clean_linker_0, # of connection points: 2
#     Edge 17, Type (0, 0), BuildingBlock: OJICUG_clean_linker_0, # of connection points: 2
#     Edge 18, Type (0, 0), BuildingBlock: OJICUG_clean_linker_0, # of connection points: 2
#     Edge 19, Type (0, 0), BuildingBlock: OJICUG_clean_linker_0, # of connection points: 2
#     Edge 20, Type (0, 0), BuildingBlock: OJICUG_clean_linker_0, # of connection points: 2
#     Edge 21, Type (0, 0), BuildingBlock: OJICUG_clean_linker_0, # of connection points: 2
#     Edge 22, Type (0, 0), BuildingBlock: OJICUG_clean_linker_0, # of connection points: 2
#     Edge 23, Type (0, 0), BuildingBlock: OJICUG_clean_linker_0, # of connection points: 2
#     Edge 24, Type (0, 0), BuildingBlock: OJICUG_clean_linker_0, # of connection points: 2
#     Edge 25, Type (0, 0), BuildingBlock: OJICUG_clean_linker_0, # of connection points: 2
#     Edge 26, Type (0, 0), BuildingBlock: OJICUG_clean_linker_0, # of connection points: 2
#     Edge 27, Type (0, 0), BuildingBlock: OJICUG_clean_linker_0, # of connection points: 2
#     Edge 28, Type (0, 0), BuildingBlock: OJICUG_clean_linker_0, # of connection points: 2
#     Edge 29, Type (0, 0), BuildingBlock: OJICUG_clean_linker_0, # of connection points: 2
#     Edge 30, Type (0, 0), BuildingBlock: OJICUG_clean_linker_0, # of connection points: 2
#     Edge 31, Type (0, 0), BuildingBlock: OJICUG_clean_linker_0, # of connection points: 2
#     Edge 32, Type (0, 0), BuildingBlock: OJICUG_clean_linker_0, # of connection points: 2
#     Edge 33, Type (0, 0), BuildingBlock: OJICUG_clean_linker_0, # of connection points: 2
#     Edge 34, Type (0, 0), BuildingBlock: OJICUG_clean_linker_0, # of connection points: 2
#     Edge 35, Type (0, 0), BuildingBlock: OJICUG_clean_linker_0, # of connection points: 2
#     Edge 36, Type (0, 0), BuildingBlock: OJICUG_clean_linker_0, # of connection points: 2
#     Edge 37, Type (0, 0), BuildingBlock: OJICUG_clean_linker_0, # of connection points: 2
#     Edge 38, Type (0, 0), BuildingBlock: OJICUG_clean_linker_0, # of connection points: 2
#     Edge 39, Type (0, 0), BuildingBlock: OJICUG_clean_linker_0, # of connection points: 2
#     Edge 40, Type (0, 0), BuildingBlock: OJICUG_clean_linker_0, # of connection points: 2
#     Edge 41, Type (0, 0), BuildingBlock: OJICUG_clean_linker_0, # of connection points: 2
#     Edge 42, Type (0, 0), BuildingBlock: OJICUG_clean_linker_0, # of connection points: 2
#     Edge 43, Type (0, 0), BuildingBlock: OJICUG_clean_linker_0, # of connection points: 2
#     Edge 44, Type (0, 0), BuildingBlock: OJICUG_clean_linker_0, # of connection points: 2
#     Edge 45, Type (0, 0), BuildingBlock: OJICUG_clean_linker_0, # of connection points: 2
#     Edge 46, Type (0, 0), BuildingBlock: OJICUG_clean_linker_0, # of connection points: 2
#     Edge 47, Type (0, 0), BuildingBlock: OJICUG_clean_linker_0, # of connection points: 2
#     Edge 48, Type (0, 0), BuildingBlock: OJICUG_clean_linker_0, # of connection points: 2
#     Edge 49, Type (0, 0), BuildingBlock: OJICUG_clean_linker_0, # of connection points: 2
#     Edge 50, Type (0, 0), BuildingBlock: OJICUG_clean_linker_0, # of connection points: 2
#     Edge 51, Type (0, 0), BuildingBlock: OJICUG_clean_linker_0, # of connection points: 2
#     Edge 52, Type (0, 0), BuildingBlock: OJICUG_clean_linker_0, # of connection points: 2
#     Edge 53, Type (0, 0), BuildingBlock: OJICUG_clean_linker_0, # of connection points: 2
#     Edge 54, Type (0, 0), BuildingBlock: OJICUG_clean_linker_0, # of connection points: 2
#     Edge 55, Type (0, 0), BuildingBlock: OJICUG_clean_linker_0, # of connection points: 2
#     Edge 56, Type (0, 0), BuildingBlock: OJICUG_clean_linker_0, # of connection points: 2
#     Edge 57, Type (0, 0), BuildingBlock: OJICUG_clean_linker_0, # of connection points: 2
#     Edge 58, Type (0, 0), BuildingBlock: OJICUG_clean_linker_0, # of connection points: 2
#     Edge 59, Type (0, 0), BuildingBlock: OJICUG_clean_linker_0, # of connection points: 2
#     Edge 60, Type (0, 0), BuildingBlock: OJICUG_clean_linker_0, # of connection points: 2
#     Edge 61, Type (0, 0), BuildingBlock: OJICUG_clean_linker_0, # of connection points: 2
#     Edge 62, Type (0, 0), BuildingBlock: OJICUG_clean_linker_0, # of connection points: 2
#     Edge 63, Type (0, 0), BuildingBlock: OJICUG_clean_linker_0, # of connection points: 2
# Relax obj value: 0.180
# Max RMSD: 0.242
# Mean RMSD: 0.242
data_MOF--net-wiu--node1-CUKXOW_clean_sbu_0--edge1-OJICUG_clean_linker_0
_symmetry_space_group_name_H-M    P1
_symmetry_Int_Tables_number       1
_symmetry_cell_setting            triclinic
loop_
_symmetry_equiv_pos_as_xyz
'x, y, z'
_cell_length_a     18.978164
_cell_length_b     18.975549
_cell_length_c     50.782975
_cell_angle_alpha  90.006026
_cell_angle_beta   89.965784
_cell_angle_gamma 90.210011
loop_
_atom_site_label
_atom_site_type_symbol
_atom_site_fract_x
_atom_site_fract_y
_atom_site_fract_z
_atom_type_partial_charge
Tb0 Tb 0.35436 0.07521 0.1165 0.0
C1 C 0.41622 0.1733 0.07414 0.0
Tb2 Tb 0.26953 0.1132 0.07155 0.0
O3 O 0.4446 0.02679 0.09754 0.0
O4 O 0.34857 0.03052 0.07731 0.0
O5 O 0.4125 0.16218 0.09981 0.0
C6 C 0.20294 0.10951 1.02543 0.0
O7 O 0.36792 0.15182 0.0576 0.0
C8 C 0.27725 0.21495 0.10729 0.0
C9 C 0.19401 0.02768 0.11725 0.0
O10 O 0.20262 0.16215 0.04164 0.0
O11 O 0.23842 0.05836 0.03577 0.0
O12 O 0.27364 0.22557 0.08203 0.0
O13 O 0.27195 0.14909 0.11145 0.0
O14 O 0.18479 0.06308 0.09494 0.0
O15 O 0.25807 0.01771 0.12682 0.0
C16 C 0.39501 0.07255 0.16624 0.0
O17 O 0.37912 0.01753 0.15216 0.0
O18 O 0.3925 0.12852 0.15165 0.0
C19 C 0.41604 0.01956 0.07448 0.0
Tb20 Tb 0.69937 0.60608 0.36693 0.0
C21 C 0.5984 0.66657 0.32568 0.0
Tb22 Tb 0.65723 0.51975 0.32287 0.0
O23 O 0.74788 0.69511 0.34697 0.0
O24 O 0.74142 0.59885 0.32717 0.0
O25 O 0.61087 0.66327 0.35126 0.0
C26 C 0.65699 0.45307 0.2766 0.0
O27 O 0.61914 0.61817 0.30911 0.0
C28 C 0.55828 0.52867 0.35965 0.0
C29 C 0.73668 0.44259 0.36978 0.0
O30 O 0.60394 0.45711 0.29256 0.0
O31 O 0.71078 0.48382 0.2874 0.0
O32 O 0.54564 0.52429 0.33453 0.0
O33 O 0.62423 0.52383 0.36307 0.0
O34 O 0.70386 0.43405 0.34683 0.0
O35 O 0.74908 0.50677 0.37908 0.0
C36 C 0.70979 0.65334 0.41573 0.0
O37 O 0.76208 0.63181 0.40129 0.0
O38 O 0.65208 0.65149 0.40206 0.0
C39 C 0.75282 0.66632 0.32392 0.0
Tb40 Tb 0.17649 0.93677 0.61475 0.0
C41 C 0.14639 0.82435 0.57202 0.0
Tb42 Tb 0.27157 0.91828 0.57141 0.0
O43 O 0.08117 0.96229 0.59337 0.0
O44 O 0.17835 0.98755 0.57598 0.0
O45 O 0.14328 0.83714 0.59767 0.0
C46 C 0.33812 0.9302 0.52528 0.0
O47 O 0.1848 0.86154 0.5559 0.0
C48 C 0.28135 0.81659 0.60789 0.0
C49 C 0.33361 1.00208 0.61934 0.0
O50 O 0.34416 0.87814 0.54156 0.0
O51 O 0.29772 0.9773 0.53588 0.0
O52 O 0.29034 0.8066 0.58278 0.0
O53 O 0.27145 0.88166 0.61119 0.0
O54 O 0.34727 0.97814 0.59534 0.0
O55 O 0.26823 0.99917 0.62886 0.0
C56 C 0.1286 0.93866 0.66384 0.0
O57 O 0.14063 0.99389 0.64932 0.0
O58 O 0.13855 0.8823 0.64985 0.0
C59 C 0.11053 0.9823 0.57158 0.0
Tb60 Tb 0.8174 0.41564 0.86772 0.0
C61 C 0.91474 0.35108 0.82619 0.0
Tb62 Tb 0.85835 0.49881 0.82313 0.0
O63 O 0.7687 0.32547 0.84822 0.0
O64 O 0.77312 0.42195 0.82842 0.0
O65 O 0.90383 0.35615 0.85181 0.0
C66 C 0.85731 0.56406 0.77682 0.0
O67 O 0.8941 0.39914 0.80945 0.0
C68 C 0.96001 0.49025 0.85879 0.0
C69 C 0.77248 0.57638 0.86784 0.0
O70 O 0.91065 0.56111 0.79263 0.0
O71 O 0.80393 0.53321 0.78781 0.0
O72 O 0.97037 0.49336 0.83353 0.0
O73 O 0.89421 0.49665 0.86311 0.0
O74 O 0.80997 0.58499 0.84598 0.0
O75 O 0.76071 0.51251 0.87738 0.0
C76 C 0.81305 0.3771 0.91784 0.0
O77 O 0.75878 0.39455 0.90368 0.0
O78 O 0.86879 0.37651 0.90309 0.0
C79 C 0.76144 0.35471 0.82526 0.0
Tb80 Tb 0.75126 0.89958 0.9819 0.0
C81 C 0.8354 0.98091 0.93695 0.0
Tb82 Tb 0.67149 0.9529 0.93854 0.0
O83 O 0.73889 0.79036 0.9685 0.0
O84 O 0.7473 0.87102 0.94111 0.0
O85 O 0.8413 0.9409 0.9584 0.0
C86 C 0.63025 0.96467 0.88904 0.0
O87 O 0.77264 1.0017 0.9288 0.0
C88 C 0.6142 1.00775 0.98167 0.0
C89 C 0.59972 0.85621 0.97857 0.0
O90 O 0.65372 0.01615 0.90353 0.0
O91 O 0.62571 0.90787 0.90312 0.0
O92 O 0.58608 1.00705 0.95839 0.0
O93 O 0.68049 0.99073 0.97887 0.0
O94 O 0.60604 0.86844 0.95309 0.0
O95 O 0.6486 0.87362 0.99547 0.0
C96 C 0.81799 0.8763 0.02721 0.0
O97 O 0.78651 0.82951 1.013 0.0
O98 O 0.8141 0.93696 1.01545 0.0
C99 C 0.73692 0.80538 0.94365 0.0
Tb100 Tb 0.36606 0.50454 0.73217 0.0
C101 C 0.28609 0.58915 0.68704 0.0
Tb102 Tb 0.31351 0.42528 0.68902 0.0
O103 O 0.47561 0.49296 0.71891 0.0
O104 O 0.39575 0.50149 0.69134 0.0
O105 O 0.32533 0.5949 0.70871 0.0
C106 C 0.30031 0.38099 0.63986 0.0
O107 O 0.2655 0.52624 0.67877 0.0
C108 C 0.25853 0.36557 0.73179 0.0
C109 C 0.40995 0.35406 0.7289 0.0
O110 O 0.24958 0.40611 0.65424 0.0
O111 O 0.35749 0.37762 0.65372 0.0
O112 O 0.26081 0.33822 0.70842 0.0
O113 O 0.27447 0.43257 0.72946 0.0
O114 O 0.39847 0.36115 0.70342 0.0
O115 O 0.39145 0.40206 0.74594 0.0
C116 C 0.3914 0.57212 0.77739 0.0
O117 O 0.43687 0.53824 0.76346 0.0
O118 O 0.33078 0.56989 0.7655 0.0
C119 C 0.46137 0.49157 0.694 0.0
Tb120 Tb 0.75508 0.10282 0.48063 0.0
C121 C 0.69873 0.02231 0.43077 0.0
Tb122 Tb 0.85202 0.09656 0.43636 0.0
O123 O 0.73038 0.21484 0.47125 0.0
O124 O 0.7542 0.14462 0.44169 0.0
O125 O 0.68446 0.04064 0.45545 0.0
C126 C 0.90484 0.11131 0.38824 0.0
O127 O 0.76345 0.03131 0.42093 0.0
C128 C 0.919 0.04856 0.47902 0.0
C129 C 0.87462 0.20399 0.48205 0.0
O130 O 0.90313 0.05258 0.40149 0.0
O131 O 0.87928 0.16174 0.40254 0.0
O132 O 0.94787 0.07389 0.45792 0.0
O133 O 0.85178 0.04018 0.47405 0.0
O134 O 0.87963 0.19458 0.45619 0.0
O135 O 0.83792 0.16271 0.4973 0.0
C136 C 0.69119 0.08272 0.52688 0.0
O137 O 0.67767 0.13298 0.51043 0.0
O138 O 0.7371 0.04109 0.51621 0.0
C139 C 0.7404 0.20846 0.44603 0.0
Tb140 Tb 0.17156 0.50915 0.23109 0.0
C141 C 0.25452 0.44786 0.18298 0.0
Tb142 Tb 0.18658 0.60365 0.18713 0.0
O143 O 0.05889 0.49002 0.22189 0.0
O144 O 0.13032 0.50919 0.19194 0.0
O145 O 0.231 0.43421 0.20702 0.0
C146 C 0.18761 0.65058 0.138 0.0
O147 O 0.24934 0.51252 0.17297 0.0
C148 C 0.23486 0.66992 0.22957 0.0
C149 C 0.07794 0.63455 0.23121 0.0
O150 O 0.24296 0.64039 0.15257 0.0
O151 O 0.13142 0.63977 0.15204 0.0
O152 O 0.21365 0.69938 0.208 0.0
O153 O 0.23992 0.60225 0.22515 0.0
O154 O 0.08899 0.63792 0.20543 0.0
O155 O 0.11572 0.59582 0.24696 0.0
C156 C 0.18813 0.4452 0.27729 0.0
O157 O 0.13638 0.43484 0.26115 0.0
O158 O 0.23274 0.48803 0.26638 0.0
C159 C 0.06551 0.4996 0.19667 0.0
Tb160 Tb 0.85431 0.5688 0.61695 0.0
C161 C 0.91721 0.66965 0.57599 0.0
Tb162 Tb 0.76955 0.61162 0.57297 0.0
O163 O 0.94348 0.52109 0.59687 0.0
O164 O 0.84699 0.5272 0.5773 0.0
O165 O 0.91323 0.6568 0.60152 0.0
C166 C 0.7039 0.61132 0.52673 0.0
O167 O 0.86868 0.64953 0.55929 0.0
C168 C 0.77933 0.7111 0.60939 0.0
C169 C 0.69203 0.52597 0.61809 0.0
O170 O 0.70787 0.6646 0.54258 0.0
O171 O 0.73381 0.55758 0.53769 0.0
O172 O 0.77501 0.72303 0.58424 0.0
O173 O 0.77324 0.64511 0.61322 0.0
O174 O 0.68351 0.56271 0.59605 0.0
O175 O 0.75603 0.51435 0.62755 0.0
C176 C 0.90009 0.55886 0.66594 0.0
O177 O 0.8791 0.50636 0.65146 0.0
O178 O 0.89833 0.61649 0.65227 0.0
C179 C 0.91411 0.51587 0.57391 0.0
Tb180 Tb 0.17813 0.09652 0.86582 0.0
C181 C 0.06502 0.12201 0.82301 0.0
Tb182 Tb 0.16385 1.00103 0.82178 0.0
O183 O 0.20151 0.19303 0.84506 0.0
O184 O 0.22914 0.09709 0.82719 0.0
O185 O 0.07759 0.12583 0.84869 0.0
C186 C 0.17915 0.93883 0.77496 0.0
O187 O 0.10397 0.08581 0.80683 0.0
C188 C 0.06199 0.98686 0.85793 0.0
C189 C 0.24581 0.94045 0.87048 0.0
O190 O 0.12739 0.92855 0.79113 0.0
O191 O 0.22439 0.98068 0.78607 0.0
O192 O 0.05272 0.97694 0.83282 0.0
O193 O 0.12642 0.99982 0.86134 0.0
O194 O 0.22481 0.92707 0.84603 0.0
O195 O 0.24006 1.00526 0.88037 0.0
C196 C 0.18419 0.14797 0.9142 0.0
O197 O 0.23798 0.13601 0.89901 0.0
O198 O 0.12635 0.13444 0.90145 0.0
C199 C 0.22213 0.1649 0.82321 0.0
Tb200 Tb 0.67046 0.44041 0.11673 0.0
C201 C 0.64165 0.3309 0.07293 0.0
Tb202 Tb 0.76633 0.42492 0.0738 0.0
O203 O 0.57557 0.46579 0.09514 0.0
O204 O 0.67287 0.49356 0.07844 0.0
O205 O 0.63781 0.34168 0.09871 0.0
C206 C 0.83155 0.43889 0.02757 0.0
O207 O 0.68022 0.36949 0.05738 0.0
C208 C 0.77539 0.32019 0.10913 0.0
C209 C 0.82831 0.50518 0.12226 0.0
O210 O 0.83826 0.38629 0.04356 0.0
O211 O 0.79212 0.48586 0.03873 0.0
O212 O 0.7852 0.3125 0.08397 0.0
O213 O 0.76541 0.38496 0.11325 0.0
O214 O 0.84159 0.48425 0.09788 0.0
O215 O 0.7633 0.49972 0.13205 0.0
C216 C 0.61735 0.44502 0.16504 0.0
O217 O 0.63188 0.49932 0.15037 0.0
O218 O 0.62898 0.38779 0.15171 0.0
C219 C 0.60527 0.48783 0.07373 0.0
Tb220 Tb 0.34056 0.9243 0.36564 0.0
C221 C 0.4484 0.89516 0.32098 0.0
Tb222 Tb 0.35455 0.01961 0.32207 0.0
O223 O 0.31367 0.82863 0.34474 0.0
O224 O 0.28673 0.92572 0.32767 0.0
O225 O 0.43787 0.89111 0.34679 0.0
C226 C 0.33691 0.08496 0.27617 0.0
O227 O 0.40992 0.93382 0.30548 0.0
C228 C 0.46107 0.02884 0.35647 0.0
C229 C 0.27106 0.0793 0.37018 0.0
O230 O 0.38957 0.09402 0.292 0.0
O231 O 0.29211 0.04267 0.28727 0.0
O232 O 0.46737 0.03894 0.33126 0.0
O233 O 0.39628 0.01917 0.36116 0.0
O234 O 0.2946 0.09363 0.34622 0.0
O235 O 0.27693 0.01455 0.38004 0.0
C236 C 0.34005 0.87566 0.41459 0.0
O237 O 0.28458 0.88685 0.4002 0.0
O238 O 0.3961 0.88693 0.40052 0.0
C239 C 0.29195 0.85806 0.32325 0.0
Tb240 Tb 0.2519 0.41264 0.48164 0.0
C241 C 0.32821 0.49742 0.43595 0.0
Tb242 Tb 0.16701 0.45122 0.43672 0.0
O243 O 0.24976 0.30049 0.47111 0.0
O244 O 0.24948 0.37724 0.44168 0.0
O245 O 0.33733 0.46191 0.45827 0.0
C246 C 0.12665 0.45623 0.38697 0.0
O247 O 0.2641 0.50772 0.42641 0.0
C248 C 0.10592 0.50572 0.47925 0.0
C249 C 0.10521 0.35131 0.47827 0.0
O250 O 0.1431 0.51054 0.40135 0.0
O251 O 0.12828 0.39973 0.4013 0.0
O252 O 0.07677 0.49885 0.45628 0.0
O253 O 0.17316 0.49517 0.47596 0.0
O254 O 0.10921 0.36307 0.45266 0.0
O255 O 0.15302 0.37319 0.49495 0.0
C256 C 0.31376 0.41765 0.52857 0.0
O257 O 0.31315 0.36352 0.51304 0.0
O258 O 0.2832 0.46983 0.51684 0.0
C259 C 0.24519 0.3113 0.44589 0.0
Tb260 Tb 0.86978 1.00917 0.23206 0.0
C261 C 0.78634 0.08666 0.18563 0.0
Tb262 Tb 0.82458 0.92433 0.18759 0.0
O263 O 0.98032 1.00325 0.21917 0.0
O264 O 0.90025 1.00583 0.19157 0.0
O265 O 0.82263 0.09496 0.20796 0.0
C266 C 0.83063 0.8743 0.139 0.0
O267 O 0.77164 0.02259 0.17658 0.0
C268 C 0.76941 0.86475 0.23063 0.0
C269 C 0.92139 0.86076 0.22998 0.0
O270 O 0.77252 0.88529 0.15202 0.0
O271 O 0.88443 0.8898 0.15356 0.0
O272 O 0.77359 0.83634 0.20743 0.0
O273 O 0.78353 0.93195 0.22773 0.0
O274 O 0.91082 0.86536 0.20433 0.0
O275 O 0.89961 0.9087 0.24651 0.0
C276 C 0.89027 0.07972 0.27695 0.0
O277 O 0.93836 0.05097 0.26262 0.0
O278 O 0.82945 0.07062 0.26562 0.0
C279 C 0.96619 0.99979 0.19428 0.0
Tb280 Tb 0.2521 0.60229 0.9816 0.0
C281 C 0.19573 0.51569 0.93329 0.0
Tb282 Tb 0.34847 0.59261 0.93709 0.0
O283 O 0.22649 0.71327 0.97148 0.0
O284 O 0.2509 0.64182 0.94228 0.0
O285 O 0.18168 0.53699 0.95761 0.0
C286 C 0.40188 0.60313 0.88886 0.0
O287 O 0.25978 0.52526 0.92288 0.0
C288 C 0.41564 0.54854 0.98031 0.0
C289 C 0.37111 0.70479 0.98113 0.0
O290 O 0.39875 0.54528 0.90261 0.0
O291 O 0.37728 0.65489 0.9027 0.0
O292 O 0.4445 0.57215 0.95894 0.0
O293 O 0.34859 0.53951 0.97539 0.0
O294 O 0.37623 0.69254 0.95546 0.0
O295 O 0.33491 0.66479 0.99706 0.0
C296 C 0.18978 0.58477 0.02821 0.0
O297 O 0.17421 0.63292 1.01115 0.0
O298 O 0.237 0.54379 1.01803 0.0
C299 C 0.23704 0.70602 0.94632 0.0
Tb300 Tb 0.66799 1.00638 0.73176 0.0
C301 C 0.75504 0.94339 0.68486 0.0
Tb302 Tb 0.68779 0.09982 0.68687 0.0
O303 O 0.55677 0.98558 0.721 0.0
O304 O 0.63105 1.00558 0.69206 0.0
O305 O 0.72854 0.93033 0.70855 0.0
C306 C 0.6903 0.14307 0.63724 0.0
O307 O 0.75179 1.00786 0.67454 0.0
C308 C 0.73258 0.16666 0.72979 0.0
C309 C 0.57474 0.13207 0.72915 0.0
O310 O 0.74537 0.13215 0.6519 0.0
O311 O 0.63383 0.13503 0.65137 0.0
O312 O 0.71621 0.196 0.70758 0.0
O313 O 0.73617 0.09889 0.72569 0.0
O314 O 0.58848 0.13438 0.70355 0.0
O315 O 0.61103 0.0945 0.74579 0.0
C316 C 0.68246 0.94673 0.77879 0.0
O317 O 0.62985 0.93711 0.76296 0.0
O318 O 0.72893 0.98615 0.76719 0.0
C319 C 0.56584 0.99539 0.69588 0.0
C320 C 0.48265 0.25586 0.0469 0.0
C321 C 0.4814 0.19788 0.06378 0.0
H322 H 0.5424 0.34668 0.03598 0.0
C323 C 0.54313 0.17106 0.07486 0.0
H324 H 0.43484 0.27537 0.03785 0.0
C325 C 0.60362 0.21066 0.07359 0.0
C326 C 0.60062 0.27633 0.06152 0.0
H327 H 0.54249 0.12475 0.08732 0.0
H328 H 0.64848 0.19541 0.08542 0.0
C329 C 0.5437 0.29581 0.04567 0.0
C330 C 0.60343 0.79371 0.32546 0.0
C331 C 0.57463 0.7317 0.31517 0.0
H332 H 0.58416 0.90156 0.33331 0.0
C333 C 0.51832 0.73307 0.29751 0.0
H334 H 0.64882 0.79297 0.33837 0.0
C335 C 0.48165 0.79549 0.29458 0.0
C336 C 0.50256 0.85372 0.30958 0.0
H337 H 0.49759 0.68499 0.28893 0.0
H338 H 0.43148 0.7948 0.28439 0.0
C339 C 0.56755 0.85573 0.32221 0.0
C340 C 0.0465 0.78873 0.54587 0.0
C341 C 0.10395 0.76944 0.56149 0.0
H342 H 0.93689 0.76987 0.53898 0.0
C343 C 0.10583 0.70506 0.57457 0.0
H344 H 0.04589 0.8386 0.53547 0.0
C345 C 0.04439 0.66723 0.57695 0.0
C346 C 0.98277 0.69414 0.56582 0.0
H347 H 0.151 0.68986 0.58624 0.0
H348 H 0.0434 0.6219 0.58991 0.0
C349 C 0.98458 0.7504 0.54813 0.0
C350 C 0.94609 0.16211 0.82619 0.0
C351 C 1.00925 0.16257 0.81231 0.0
H352 H 0.86613 0.22656 0.8422 0.0
C353 C 0.02744 0.21825 0.79554 0.0
H354 H 0.93156 0.11819 0.8387 0.0
C355 C 0.99031 0.28065 0.79758 0.0
C356 C 0.93634 0.28453 0.81618 0.0
H357 H 0.07627 0.21769 0.78445 0.0
H358 H 1.00952 0.32736 0.78756 0.0
C359 C 0.90965 0.22408 0.82843 0.0
C360 C 0.47266 0.8616 0.97599 0.0
C361 C 0.53262 0.83522 0.98843 0.0
H362 H 0.36728 0.83866 0.9653 0.0
C363 C 0.52796 0.78177 1.00725 0.0
H364 H 0.47577 0.90526 0.96226 0.0
C365 C 0.46545 0.74435 1.0092 0.0
C366 C 0.41047 0.76158 0.99207 0.0
H367 H 0.57431 0.76298 1.0175 0.0
H368 H 0.46459 0.69574 1.02043 0.0
C369 C 0.41059 0.82464 0.97806 0.0
C370 C 0.53253 0.22693 0.75671 0.0
C371 C 0.51773 0.17226 0.73909 0.0
H372 H 0.50631 0.33279 0.76698 0.0
C373 C 0.45434 0.16902 0.72537 0.0
H374 H 0.58162 0.2285 0.7676 0.0
C375 C 0.4121 0.22751 0.72499 0.0
C376 C 0.43455 0.28797 0.73827 0.0
H377 H 0.44259 0.12591 0.71216 0.0
H378 H 0.36745 0.22853 0.7117 0.0
C379 C 0.4901 0.28604 0.75628 0.0
C380 C 0.036 0.27296 0.50654 0.0
C381 C 0.03921 0.32858 0.4886 0.0
H382 H 0.9721 0.18726 0.51968 0.0
C383 C 0.9781 0.35784 0.47791 0.0
H384 H 0.08333 0.25186 0.51545 0.0
C385 C 0.91516 0.32309 0.48109 0.0
C386 C 0.91544 0.25833 0.49391 0.0
H387 H 0.98013 0.40262 0.46473 0.0
H388 H 0.87018 0.33993 0.46965 0.0
C389 C 0.97267 0.23725 0.50935 0.0
C390 C 0.95802 0.6733 0.22996 0.0
C391 C 0.02334 0.67601 0.24233 0.0
H392 H 0.87264 0.73457 0.21613 0.0
C393 C 0.04267 0.73276 0.25839 0.0
H394 H 0.9428 0.62862 0.21797 0.0
C395 C 1.0029 0.79371 0.25724 0.0
C396 C 0.94529 0.79523 0.24019 0.0
H397 H 0.09326 0.73396 0.26827 0.0
H398 H 0.02239 0.84136 0.26654 0.0
C399 C 0.91865 0.73372 0.22875 0.0
C400 C 0.53708 0.99685 0.05332 0.0
C401 C 0.46407 0.01254 0.04996 0.0
H402 H 0.64093 0.98357 0.03604 0.0
C403 C 0.44309 0.0277 1.024 0.0
H404 H 0.55687 0.9852 0.07283 0.0
C405 C 0.49248 0.0277 1.00277 0.0
C406 C 0.56556 0.01226 1.00614 0.0
H407 H 0.3887 0.04096 1.02005 0.0
H408 H 0.47267 0.03968 0.9833 0.0
C409 C 0.58646 0.99662 0.03208 0.0
C410 C 0.77553 0.78769 0.30258 0.0
C411 C 0.75982 0.71444 0.29925 0.0
H412 H 0.79001 0.8916 0.28536 0.0
C413 C 0.74541 0.69353 0.27317 0.0
H414 H 0.78655 0.80769 0.32212 0.0
C415 C 0.74681 0.74295 0.25187 0.0
C416 C 0.76261 0.8162 0.25522 0.0
H417 H 0.732 0.6391 0.26917 0.0
H418 H 0.7357 0.723 0.23233 0.0
C419 C 0.77686 0.8371 0.2813 0.0
C420 C 0.08809 0.02585 0.52297 0.0
C421 C 0.0634 1.00022 0.54736 0.0
H422 H 0.06378 0.06025 0.48355 0.0
C423 C 0.9888 0.98913 0.54878 0.0
H424 H 0.14394 0.03525 0.52032 0.0
C425 C 0.9417 1.00306 0.52736 0.0
C426 C 0.96634 0.02898 0.50301 0.0
H427 H 0.96597 0.96905 0.56683 0.0
H428 H 0.88584 0.99381 0.53003 0.0
C429 C 0.04096 0.03997 0.50158 0.0
C430 C 0.74556 0.23366 0.80277 0.0
C431 C 0.7531 0.30831 0.80027 0.0
H432 H 0.73488 0.13126 0.78405 0.0
C433 C 0.75609 0.33379 0.77423 0.0
H434 H 0.74276 0.21039 0.82221 0.0
C435 C 0.75126 0.28733 0.75212 0.0
C436 C 0.74427 0.21265 0.75465 0.0
H437 H 0.76223 0.38976 0.77085 0.0
H438 H 0.75279 0.31063 0.73267 0.0
C439 C 0.74166 0.18714 0.78068 0.0
C440 C 0.25308 0.33747 0.78248 0.0
C441 C 0.25074 0.3159 0.75596 0.0
H442 H 0.24697 0.30824 0.82344 0.0
C443 C 0.24307 0.24163 0.75191 0.0
H444 H 0.25935 0.39286 0.78707 0.0
C445 C 0.23761 0.19188 0.77297 0.0
C446 C 0.23868 0.21356 0.79946 0.0
H447 H 0.24099 0.22113 0.73204 0.0
H448 H 0.23018 0.13666 0.76838 0.0
C449 C 0.24656 0.28778 0.80354 0.0
C450 C 0.28529 0.73703 0.30034 0.0
C451 C 0.27523 0.81161 0.29891 0.0
H452 H 0.28198 0.63472 0.28112 0.0
C453 C 0.2528 0.83724 0.27431 0.0
H454 H 0.30296 0.71369 0.31862 0.0
C455 C 0.24109 0.79089 0.25253 0.0
C456 C 0.25122 0.71632 0.25396 0.0
H457 H 0.24436 0.89319 0.27177 0.0
H458 H 0.22344 0.81424 0.23425 0.0
C459 C 0.27356 0.69068 0.27857 0.0
C460 C 0.9856 0.52568 0.50147 0.0
C461 C 0.05911 0.51152 0.50415 0.0
H462 H 0.88291 0.53743 0.51981 0.0
C463 C 0.08221 0.49726 0.52993 0.0
H464 H 0.96422 0.53664 0.48214 0.0
C465 C 0.03446 0.49699 0.55167 0.0
C466 C 0.96091 0.51092 0.54899 0.0
H467 H 0.13707 0.48507 0.53334 0.0
H468 H 0.0559 0.48601 0.57099 0.0
C469 C 0.93781 0.52537 0.52321 0.0
C470 C 0.58375 0.5305 1.02498 0.0
C471 C 0.55869 0.50516 0.04935 0.0
H472 H 0.56005 0.56327 0.98531 0.0
C473 C 0.48422 0.49318 0.05056 0.0
H474 H 0.63955 0.54052 1.02251 0.0
C475 C 0.43759 0.50578 0.02892 0.0
C476 C 0.46261 0.53119 1.00457 0.0
H477 H 0.46113 0.47328 0.0686 0.0
H478 H 0.38181 0.49571 0.0314 0.0
C479 C 0.53706 0.5433 1.00335 0.0
C480 C 0.28778 0.34361 0.11954 0.0
C481 C 0.2789 0.27302 0.12757 0.0
H482 H 0.28912 0.45293 0.13032 0.0
C483 C 0.26972 0.26005 0.15468 0.0
H484 H 0.29559 0.35597 0.09892 0.0
C485 C 0.26627 0.31629 0.17296 0.0
C486 C 0.27228 0.38731 0.16474 0.0
H487 H 0.26297 0.20654 0.1617 0.0
H488 H 0.25613 0.30405 0.19344 0.0
C489 C 0.28465 0.39959 0.13773 0.0
C490 C 0.51593 0.50728 0.40682 0.0
C491 C 0.50223 0.52764 0.38059 0.0
H492 H 0.47255 0.48164 0.44496 0.0
C493 C 0.43246 0.54456 0.37389 0.0
H494 H 0.56908 0.49402 0.41274 0.0
C495 C 0.37763 0.53907 0.39239 0.0
C496 C 0.39002 0.51529 0.41832 0.0
H497 H 0.41978 0.561 0.35403 0.0
H498 H 0.32467 0.55088 0.38585 0.0
C499 C 0.46047 0.50053 0.42537 0.0
C500 C 0.27485 0.68891 0.62162 0.0
C501 C 0.27988 0.76019 0.62886 0.0
H502 H 0.27045 0.58119 0.63381 0.0
C503 C 0.28388 0.77586 0.65606 0.0
H504 H 0.27237 0.67435 0.60102 0.0
C505 C 0.28459 0.72145 0.67527 0.0
C506 C 0.2789 0.64992 0.66787 0.0
H507 H 0.28804 0.83017 0.66247 0.0
H508 H 0.28989 0.73536 0.69586 0.0
C509 C 0.27332 0.63514 0.64066 0.0
C510 C 0.08927 0.48182 0.87032 0.0
C511 C 0.01885 0.48911 0.8788 0.0
H512 H 0.19914 0.48253 0.88041 0.0
C513 C 1.00698 0.49705 0.90602 0.0
H514 H 0.10087 0.47495 0.84959 0.0
C515 C 0.06402 0.50085 0.92396 0.0
C516 C 0.13484 0.49666 0.91529 0.0
H517 H 0.95373 0.50249 0.91341 0.0
H518 H 0.05247 0.51003 0.94455 0.0
C519 C 0.14606 0.48554 0.88816 0.0
C520 C 0.72272 0.62687 0.90985 0.0
C521 C 0.75313 0.63858 0.88487 0.0
H522 H 0.69453 0.66936 0.94751 0.0
C523 C 0.77281 0.70842 0.87846 0.0
H524 H 0.70668 0.57441 0.9158 0.0
C525 C 0.76494 0.76385 0.89691 0.0
C526 C 0.73828 0.75054 0.92236 0.0
H527 H 0.79674 0.71988 0.85957 0.0
H528 H 0.78247 0.81639 0.89165 0.0
C529 C 0.71595 0.6816 0.92825 0.0
C530 C 0.58593 0.47217 0.67896 0.0
C531 C 0.51691 0.49338 0.67284 0.0
H532 H 0.69336 0.4633 0.66671 0.0
C533 C 0.50405 0.51891 0.64721 0.0
H534 H 0.59797 0.45166 0.69835 0.0
C535 C 0.55976 0.52644 0.62878 0.0
C536 C 0.62961 0.50754 0.63536 0.0
H537 H 0.45155 0.53561 0.64173 0.0
H538 H 0.54846 0.54929 0.60972 0.0
C539 C 0.64097 0.47861 0.66059 0.0
C540 C 0.73876 0.25426 0.39875 0.0
C541 C 0.74233 0.26739 0.42609 0.0
H542 H 0.73419 0.29798 0.35951 0.0
C543 C 0.74765 0.33795 0.43428 0.0
H544 H 0.73378 0.20063 0.39167 0.0
C545 C 0.75008 0.39349 0.41589 0.0
C546 C 0.74523 0.38102 0.38849 0.0
H547 H 0.74957 0.35052 0.45506 0.0
H548 H 0.75296 0.44682 0.42337 0.0
C549 C 0.73936 0.3102 0.38025 0.0
C550 C 0.87831 0.51129 0.16854 0.0
C551 C 0.88932 0.51541 0.14109 0.0
H552 H 0.92389 0.5012 0.20709 0.0
C553 C 0.95991 0.51668 0.13218 0.0
H554 H 0.82536 0.50872 0.17643 0.0
C555 C 0.01699 0.5125 0.15002 0.0
C556 C 1.00549 0.50624 0.17735 0.0
H557 H 0.97119 0.51861 0.11128 0.0
H558 H 0.0702 0.51221 0.1423 0.0
C559 C 0.9352 0.50617 0.18626 0.0
C560 C 0.79271 0.83884 0.62204 0.0
C561 C 0.78129 0.76848 0.62986 0.0
H562 H 0.79572 0.94792 0.63292 0.0
C563 C 0.76954 0.75539 0.65682 0.0
H564 H 0.80266 0.8512 0.60154 0.0
C565 C 0.76554 0.81159 0.6751 0.0
C566 C 0.77383 0.8825 0.667 0.0
H567 H 0.76096 0.70197 0.66365 0.0
H568 H 0.75306 0.79952 0.69542 0.0
C569 C 0.78927 0.89468 0.64022 0.0
C570 C 0.88068 0.99262 0.89052 0.0
C571 C 0.89576 0.98835 0.91773 0.0
H572 H 0.91977 0.99287 0.85085 0.0
C573 C 0.96721 0.98405 0.92515 0.0
H574 H 0.82666 0.99431 0.88372 0.0
C575 C 0.02144 0.98498 0.90593 0.0
C576 C 1.00554 0.98774 0.87875 0.0
H577 H 0.9812 0.97973 0.94576 0.0
H578 H 0.07581 0.982 0.91231 0.0
C579 C 0.93432 0.99126 0.87146 0.0
C580 C 0.77925 0.2193 0.17526 0.0
C581 C 0.77588 0.14825 0.16703 0.0
H582 H 0.78011 0.32909 0.1638 0.0
C583 C 0.77083 0.13559 0.13967 0.0
H584 H 0.78408 0.23167 0.196 0.0
C585 C 0.77117 0.19109 0.12127 0.0
C586 C 0.77446 0.26187 0.12938 0.0
H587 H 0.76953 0.08215 0.13219 0.0
H588 H 0.76938 0.17828 0.1005 0.0
C589 C 0.77742 0.27528 0.15673 0.0
C590 C 0.6487 0.01694 0.3844 0.0
C591 C 0.63788 0.01164 0.41185 0.0
H592 H 0.60278 0.0282 0.34594 0.0
C593 C 0.56729 1.0094 0.42076 0.0
H594 H 0.70163 0.02025 0.37649 0.0
C595 C 0.51007 0.01404 0.40299 0.0
C596 C 0.52134 0.02157 0.37569 0.0
H597 H 0.55604 1.00657 0.44164 0.0
H598 H 0.45691 0.01375 0.41075 0.0
C599 C 0.59162 0.02232 0.36674 0.0
C600 C 0.25278 0.26658 0.39851 0.0
C601 C 0.24412 0.25334 0.42562 0.0
H602 H 0.26679 0.22293 0.35973 0.0
C603 C 0.23642 0.18263 0.43365 0.0
H604 H 0.25857 0.32021 0.3915 0.0
C605 C 0.24031 0.12677 0.41544 0.0
C606 C 0.25232 0.13936 0.38844 0.0
H607 H 0.229 0.1701 0.45427 0.0
H608 H 0.23677 0.07335 0.42283 0.0
C609 C 0.25703 0.21048 0.38022 0.0
C610 C 1.00723 0.02225 0.14706 0.0
C611 C 0.02107 0.99943 0.17296 0.0
H612 H 0.05022 0.04884 0.10897 0.0
C613 C 0.09025 0.97899 0.17911 0.0
H614 H 0.95453 0.03839 0.14161 0.0
C615 C 0.1446 0.98363 0.16042 0.0
C616 C 0.13224 1.00994 0.13484 0.0
H617 H 0.10293 0.96061 0.19874 0.0
H618 H 0.19727 0.96928 0.16655 0.0
C619 C 0.0622 0.02792 0.12829 0.0
C620 C 0.25175 0.89193 0.91701 0.0
C621 C 0.25454 0.87976 0.88957 0.0
H622 H 0.24152 0.84817 0.95589 0.0
C623 C 0.25249 0.80887 0.88109 0.0
H624 H 0.25137 0.94521 0.92463 0.0
C625 C 0.24723 0.75266 0.89932 0.0
C626 C 0.24327 0.76533 0.92664 0.0
H627 H 0.25262 0.79675 0.86026 0.0
H628 H 0.24436 0.69917 0.89197 0.0
C629 C 0.24535 0.83593 0.9351 0.0
C630 C 0.43665 1.00203 0.68409 0.0
C631 C 0.50749 1.00193 0.67586 0.0
H632 H 0.32763 1.00564 0.67333 0.0
C633 C 0.52088 1.00792 0.64862 0.0
H634 H 0.42387 0.99708 0.7048 0.0
C635 C 0.46497 0.01232 0.63024 0.0
C636 C 0.39384 0.01184 0.63853 0.0
H637 H 0.57458 1.00724 0.64142 0.0
H638 H 0.47753 0.01397 0.60944 0.0
C639 C 0.38106 1.00779 0.66588 0.0
C640 C 0.2417 0.08496 0.98028 0.0
C641 C 0.19291 0.11718 0.99706 0.0
H642 H 0.27903 0.07312 0.941 0.0
C643 C 0.14175 0.16253 0.98662 0.0
H644 H 0.28239 0.05069 0.98793 0.0
C645 C 0.13869 0.17409 0.95939 0.0
C646 C 0.18905 0.14316 0.94283 0.0
H647 H 0.1043 0.18852 0.99943 0.0
H648 H 0.09776 0.20737 0.95134 0.0
C649 C 0.24059 0.09886 0.95349 0.0
C650 C 0.58792 0.39823 0.20985 0.0
C651 C 0.62261 0.44747 0.19376 0.0
H652 H 0.57079 0.36206 0.24954 0.0
C653 C 0.67091 0.49483 0.20494 0.0
H654 H 0.55148 0.3604 0.20142 0.0
C655 C 0.68497 0.49289 0.23174 0.0
C656 C 0.64902 0.44536 0.24808 0.0
H657 H 0.69949 0.53227 0.19282 0.0
H658 H 0.72237 0.53041 0.23978 0.0
C659 C 0.59973 0.39843 0.23711 0.0
C660 C 0.28959 0.94543 0.48077 0.0
C661 C 0.34435 0.92079 0.49677 0.0
H662 H 0.24349 0.94652 0.44255 0.0
C663 C 0.39712 0.87813 0.48582 0.0
H664 H 0.24739 0.97712 0.48887 0.0
C665 C 0.3956 0.86156 0.45894 0.0
C666 C 0.33945 0.88471 0.44322 0.0
H667 H 0.43909 0.8576 0.49803 0.0
H668 H 0.43772 0.83049 0.45049 0.0
C669 C 0.28651 0.92656 0.45438 0.0
C670 C 0.9326 0.60598 0.71007 0.0
C671 C 0.8935 0.55903 0.69449 0.0
H672 H 0.95193 0.64417 0.74927 0.0
C673 C 0.83955 0.51866 0.70581 0.0
H674 H 0.97333 0.63871 0.70139 0.0
C675 C 0.82461 0.52494 0.73242 0.0
C676 C 0.86513 0.56975 0.74833 0.0
H677 H 0.80742 0.48358 0.69396 0.0
H678 H 0.78299 0.49254 0.74067 0.0
C679 C 0.91953 0.61009 0.73713 0.0
C680 C 0.78564 0.82363 0.09723 0.0
C681 C 0.83481 0.86557 0.11048 0.0
H682 H 0.7443 0.79213 0.05991 0.0
C683 C 0.88394 0.90568 0.09609 0.0
H684 H 0.74728 0.79267 0.10807 0.0
C685 C 0.88067 0.90761 0.06865 0.0
C686 C 0.83019 0.86708 0.05542 0.0
H687 H 0.92198 0.9389 0.10609 0.0
H688 H 0.91605 0.94201 0.05785 0.0
C689 C 0.78429 0.82326 0.0698 0.0
C690 C 0.45347 0.55685 0.84735 0.0
C691 C 0.40962 0.6051 0.86013 0.0
H692 H 0.48364 0.51084 0.81063 0.0
C693 C 0.36516 0.6486 0.84515 0.0
H694 H 0.4878 0.52263 0.85857 0.0
C695 C 0.36057 0.64005 0.81787 0.0
C696 C 0.40251 0.58987 0.80522 0.0
H697 H 0.33045 0.68584 0.85467 0.0
H698 H 0.3229 0.67099 0.80682 0.0
C699 C 0.45094 0.55027 0.82 0.0
C700 C 0.74467 0.09125 0.59764 0.0
C701 C 0.69069 0.13199 0.60869 0.0
H702 H 0.78456 0.04017 0.56337 0.0
C703 C 0.63316 0.15193 0.59303 0.0
H704 H 0.78873 0.0736 0.60946 0.0
C705 C 0.63123 0.13348 0.56634 0.0
C706 C 0.68528 0.09238 0.55543 0.0
H707 H 0.59017 0.18197 0.60139 0.0
H708 H 0.58807 0.15172 0.5542 0.0
C709 C 0.74144 0.0707 0.5714 0.0
C710 C 0.11345 0.39724 0.34346 0.0
C711 C 0.13786 0.45425 0.35856 0.0
H712 H 0.11094 0.34925 0.30516 0.0
C713 C 0.18337 0.50405 0.34724 0.0
H714 H 0.07961 0.35738 0.35212 0.0
C715 C 0.20438 0.49712 0.3212 0.0
C716 C 0.17836 0.44158 0.30577 0.0
H717 H 0.20438 0.54748 0.3587 0.0
H718 H 0.23864 0.53714 0.31289 0.0
C719 C 0.13253 0.39171 0.31696 0.0
C720 C 0.66205 0.68568 0.45983 0.0
C721 C 0.70973 0.64747 0.44433 0.0
H722 H 0.62313 0.70448 0.49898 0.0
C723 C 0.75105 0.59482 0.45581 0.0
H724 H 0.62869 0.72548 0.45105 0.0
C725 C 0.74458 0.57987 0.48242 0.0
C726 C 0.69883 0.61935 0.49823 0.0
H727 H 0.78699 0.56355 0.44409 0.0
H728 H 0.77748 0.53903 0.49074 0.0
C729 C 0.6579 0.67282 0.48691 0.0
C730 C 0.11154 0.88353 0.70813 0.0
C731 C 0.13697 0.93913 0.69253 0.0
H732 H 0.10479 0.83992 0.74715 0.0
C733 C 0.18022 0.99089 0.70391 0.0
H734 H 0.0794 0.84222 0.69954 0.0
C735 C 0.19804 0.98724 0.73042 0.0
C736 C 0.17091 0.93316 0.74632 0.0
H737 H 0.20203 0.03334 0.69215 0.0
H738 H 0.23099 0.02843 0.73866 0.0
C739 C 0.12711 0.88146 0.73509 0.0
C740 C 0.77157 0.43877 0.95759 0.0
C741 C 0.817 0.38925 0.94622 0.0
H742 H 0.74385 0.49671 0.992 0.0
C743 C 0.87212 0.36087 0.96121 0.0
H744 H 0.7299 0.46294 0.94619 0.0
C745 C 0.87973 0.37973 0.98768 0.0
C746 C 0.83403 0.42924 0.999 0.0
H747 H 0.90875 0.32389 0.95251 0.0
H748 H 0.9204 0.35495 0.99939 0.0
C749 C 0.78069 0.45942 0.98362 0.0
C750 C 0.32182 0.03078 0.23263 0.0
C751 C 0.34594 0.08796 0.24766 0.0
H752 H 0.32248 0.97911 0.1954 0.0
C753 C 0.38931 0.13923 0.23601 0.0
H754 H 0.28967 0.98961 0.24132 0.0
C755 C 0.40753 0.13361 0.20942 0.0
C756 C 0.38487 0.07514 0.19471 0.0
H757 H 0.4095 0.18296 0.24751 0.0
H758 H 0.43928 0.17457 0.20038 0.0
C759 C 0.34206 0.02382 0.20652 0.0
C760 C 0.2621 0.43871 0.59903 0.0
C761 C 0.30151 0.38568 0.6112 0.0
H762 H 0.23925 0.49352 0.56349 0.0
C763 C 0.34926 0.34578 0.59633 0.0
H764 H 0.22618 0.47126 0.61026 0.0
C765 C 0.35562 0.35745 0.56925 0.0
C766 C 0.31662 0.41121 0.55721 0.0
H767 H 0.38119 0.30564 0.60562 0.0
H768 H 0.39053 0.32453 0.55773 0.0
C769 C 0.27064 0.45232 0.57237 0.0
C770 C 0.9585 0.07141 0.34624 0.0
C771 C 0.91057 0.11454 0.35949 0.0
H772 H 0.99098 0.02908 0.30919 0.0
C773 C 0.86042 0.15281 0.34503 0.0
H774 H 0.99712 0.04112 0.35708 0.0
C775 C 0.85484 0.14382 0.31779 0.0
C776 C 0.90122 0.09863 0.30467 0.0
H777 H 0.82239 0.18581 0.35497 0.0
H778 H 0.81315 0.17032 0.30716 0.0
C779 C 0.95479 0.06465 0.31892 0.0
C780 C 0.13026 0.65664 0.09378 0.0
C781 C 0.18853 0.63933 0.10949 0.0
H782 H 0.08483 0.65269 0.05501 0.0
C783 C 0.24388 0.60007 0.09865 0.0
H784 H 0.08628 0.68549 0.102 0.0
C785 C 0.24107 0.57795 0.07262 0.0
C786 C 0.18398 0.59668 0.05661 0.0
H787 H 0.28861 0.58442 0.11051 0.0
H788 H 0.28509 0.54835 0.0648 0.0
C789 C 0.12873 0.63669 0.06723 0.0
C790 C 0.60604 0.90941 0.8456 0.0
C791 C 0.63923 0.96212 0.86053 0.0
H792 H 0.59438 0.86266 0.80736 0.0
C793 C 0.69072 1.00508 0.84888 0.0
H794 H 0.56739 0.87465 0.85452 0.0
C795 C 0.70906 0.99544 0.82265 0.0
C796 C 0.67427 0.94451 0.80738 0.0
H797 H 0.71841 0.04485 0.86021 0.0
H798 H 0.7486 0.02985 0.81412 0.0
C799 C 0.62255 0.90152 0.81897 0.0
loop_
_geom_bond_atom_site_label_1
_geom_bond_atom_site_label_2
_geom_bond_distance
_geom_bond_site_symmetry_2
_ccdc_geom_bond_type
Tb0 O3 2.453 1_545 S
Tb0 O4 2.596 . S
Tb0 O5 2.374 . S
Tb0 O13 2.343 . S
Tb0 O15 2.353 . S
Tb0 O17 2.427 . S
Tb0 O18 2.513 . S
C1 O5 1.251 . S
C1 O7 1.263 . S
Tb2 O4 2.343 . S
Tb2 O7 2.353 . S
Tb2 O10 2.427 . S
Tb2 O11 2.513 . S
Tb2 O12 2.453 . S
Tb2 O13 2.596 . S
Tb2 O14 2.374 . S
O3 Tb0 2.453 1_565 S
O3 C19 1.245 1_565 S
O4 Tb0 2.596 . S
O4 Tb2 2.343 . S
O4 C19 1.259 . S
O5 Tb0 2.374 . S
O5 C1 1.251 . S
C6 O10 1.275 1_556 S
C6 O11 1.246 1_556 S
O7 C1 1.263 . S
O7 Tb2 2.353 . S
C8 O12 1.245 . S
C8 O13 1.259 . S
C9 O14 1.250 . S
C9 O15 1.263 . S
O10 Tb2 2.427 . S
O10 C6 1.275 1_554 S
O11 Tb2 2.513 . S
O11 C6 1.246 1_554 S
O12 Tb2 2.453 . S
O12 C8 1.245 . S
O13 Tb0 2.343 . S
O13 Tb2 2.596 . S
O13 C8 1.259 . S
O14 Tb2 2.374 . S
O14 C9 1.250 . S
O15 Tb0 2.353 . S
O15 C9 1.263 . S
C16 O17 1.275 . S
C16 O18 1.246 . S
O17 Tb0 2.427 . S
O17 C16 1.275 . S
O18 Tb0 2.513 . S
O18 C16 1.246 . S
C19 O3 1.245 1_545 S
C19 O4 1.259 . S
Tb20 O23 2.453 . S
Tb20 O24 2.596 . S
Tb20 O25 2.374 . S
Tb20 O33 2.343 . S
Tb20 O35 2.353 . S
Tb20 O37 2.427 . S
Tb20 O38 2.513 . S
C21 O25 1.251 . S
C21 O27 1.263 . S
Tb22 O24 2.343 . S
Tb22 O27 2.353 . S
Tb22 O30 2.427 . S
Tb22 O31 2.513 . S
Tb22 O32 2.453 . S
Tb22 O33 2.596 . S
Tb22 O34 2.374 . S
O23 Tb20 2.453 . S
O23 C39 1.245 . S
O24 Tb20 2.596 . S
O24 Tb22 2.343 . S
O24 C39 1.259 . S
O25 Tb20 2.374 . S
O25 C21 1.251 . S
C26 O30 1.275 . S
C26 O31 1.246 . S
O27 C21 1.263 . S
O27 Tb22 2.353 . S
C28 O32 1.245 . S
C28 O33 1.259 . S
C29 O34 1.250 . S
C29 O35 1.263 . S
O30 Tb22 2.427 . S
O30 C26 1.275 . S
O31 Tb22 2.513 . S
O31 C26 1.246 . S
O32 Tb22 2.453 . S
O32 C28 1.245 . S
O33 Tb20 2.343 . S
O33 Tb22 2.596 . S
O33 C28 1.259 . S
O34 Tb22 2.374 . S
O34 C29 1.250 . S
O35 Tb20 2.353 . S
O35 C29 1.263 . S
C36 O37 1.275 . S
C36 O38 1.246 . S
O37 Tb20 2.427 . S
O37 C36 1.275 . S
O38 Tb20 2.513 . S
O38 C36 1.246 . S
C39 O23 1.245 . S
C39 O24 1.259 . S
Tb40 O43 2.453 1_565 S
Tb40 O44 2.596 . S
Tb40 O45 2.374 . S
Tb40 O53 2.343 . S
Tb40 O55 2.353 . S
Tb40 O57 2.427 . S
Tb40 O58 2.513 . S
C41 O45 1.251 . S
C41 O47 1.263 . S
Tb42 O44 2.343 . S
Tb42 O47 2.353 . S
Tb42 O50 2.427 . S
Tb42 O51 2.513 . S
Tb42 O52 2.453 . S
Tb42 O53 2.596 . S
Tb42 O54 2.374 . S
O43 Tb40 2.453 1_545 S
O43 C59 1.245 1_545 S
O44 Tb40 2.596 . S
O44 Tb42 2.343 . S
O44 C59 1.259 . S
O45 Tb40 2.374 . S
O45 C41 1.251 . S
C46 O50 1.275 . S
C46 O51 1.246 . S
O47 C41 1.263 . S
O47 Tb42 2.353 . S
C48 O52 1.245 . S
C48 O53 1.259 . S
C49 O54 1.250 . S
C49 O55 1.263 . S
O50 Tb42 2.427 . S
O50 C46 1.275 . S
O51 Tb42 2.513 . S
O51 C46 1.246 . S
O52 Tb42 2.453 . S
O52 C48 1.245 . S
O53 Tb40 2.343 . S
O53 Tb42 2.596 . S
O53 C48 1.259 . S
O54 Tb42 2.374 . S
O54 C49 1.250 . S
O55 Tb40 2.353 . S
O55 C49 1.263 . S
C56 O57 1.275 . S
C56 O58 1.246 . S
O57 Tb40 2.427 . S
O57 C56 1.275 . S
O58 Tb40 2.513 . S
O58 C56 1.246 . S
C59 O43 1.245 1_565 S
C59 O44 1.259 . S
Tb60 O63 2.453 . S
Tb60 O64 2.596 . S
Tb60 O65 2.374 . S
Tb60 O73 2.343 . S
Tb60 O75 2.353 . S
Tb60 O77 2.427 . S
Tb60 O78 2.513 . S
C61 O65 1.251 . S
C61 O67 1.263 . S
Tb62 O64 2.343 . S
Tb62 O67 2.353 . S
Tb62 O70 2.427 . S
Tb62 O71 2.513 . S
Tb62 O72 2.453 1_655 S
Tb62 O73 2.596 . S
Tb62 O74 2.374 . S
O63 Tb60 2.453 . S
O63 C79 1.245 . S
O64 Tb60 2.596 . S
O64 Tb62 2.343 . S
O64 C79 1.259 . S
O65 Tb60 2.374 . S
O65 C61 1.251 . S
C66 O70 1.275 . S
C66 O71 1.246 . S
O67 C61 1.263 . S
O67 Tb62 2.353 . S
C68 O72 1.245 1_655 S
C68 O73 1.259 . S
C69 O74 1.250 . S
C69 O75 1.263 . S
O70 Tb62 2.427 . S
O70 C66 1.275 . S
O71 Tb62 2.513 . S
O71 C66 1.246 . S
O72 Tb62 2.453 1_455 S
O72 C68 1.245 1_455 S
O73 Tb60 2.343 . S
O73 Tb62 2.596 . S
O73 C68 1.259 . S
O74 Tb62 2.374 . S
O74 C69 1.250 . S
O75 Tb60 2.353 . S
O75 C69 1.263 . S
C76 O77 1.275 . S
C76 O78 1.246 . S
O77 Tb60 2.427 . S
O77 C76 1.275 . S
O78 Tb60 2.513 . S
O78 C76 1.246 . S
C79 O63 1.245 . S
C79 O64 1.259 . S
Tb80 O83 2.453 . S
Tb80 O84 2.596 . S
Tb80 O85 2.374 . S
Tb80 O93 2.343 . S
Tb80 O95 2.353 . S
Tb80 O97 2.427 . S
Tb80 O98 2.513 . S
C81 O85 1.251 . S
C81 O87 1.263 . S
Tb82 O84 2.343 . S
Tb82 O87 2.353 . S
Tb82 O90 2.427 . S
Tb82 O91 2.513 . S
Tb82 O92 2.453 1_565 S
Tb82 O93 2.596 . S
Tb82 O94 2.374 . S
O83 Tb80 2.453 . S
O83 C99 1.245 . S
O84 Tb80 2.596 . S
O84 Tb82 2.343 . S
O84 C99 1.259 . S
O85 Tb80 2.374 . S
O85 C81 1.251 . S
C86 O90 1.275 . S
C86 O91 1.246 . S
O87 C81 1.263 . S
O87 Tb82 2.353 . S
C88 O92 1.245 1_565 S
C88 O93 1.259 . S
C89 O94 1.250 . S
C89 O95 1.263 . S
O90 Tb82 2.427 . S
O90 C86 1.275 . S
O91 Tb82 2.513 . S
O91 C86 1.246 . S
O92 Tb82 2.453 1_545 S
O92 C88 1.245 1_545 S
O93 Tb80 2.343 . S
O93 Tb82 2.596 . S
O93 C88 1.259 . S
O94 Tb82 2.374 . S
O94 C89 1.250 . S
O95 Tb80 2.353 . S
O95 C89 1.263 . S
C96 O97 1.275 1_554 S
C96 O98 1.246 1_554 S
O97 Tb80 2.427 . S
O97 C96 1.275 1_556 S
O98 Tb80 2.513 . S
O98 C96 1.246 1_556 S
C99 O83 1.245 . S
C99 O84 1.259 . S
Tb100 O103 2.453 . S
Tb100 O104 2.596 . S
Tb100 O105 2.374 . S
Tb100 O113 2.343 . S
Tb100 O115 2.353 . S
Tb100 O117 2.427 . S
Tb100 O118 2.513 . S
C101 O105 1.251 . S
C101 O107 1.263 . S
Tb102 O104 2.343 . S
Tb102 O107 2.353 . S
Tb102 O110 2.427 . S
Tb102 O111 2.513 . S
Tb102 O112 2.453 . S
Tb102 O113 2.596 . S
Tb102 O114 2.374 . S
O103 Tb100 2.453 . S
O103 C119 1.245 . S
O104 Tb100 2.596 . S
O104 Tb102 2.343 . S
O104 C119 1.259 . S
O105 Tb100 2.374 . S
O105 C101 1.251 . S
C106 O110 1.275 . S
C106 O111 1.246 . S
O107 C101 1.263 . S
O107 Tb102 2.353 . S
C108 O112 1.245 . S
C108 O113 1.259 . S
C109 O114 1.250 . S
C109 O115 1.263 . S
O110 Tb102 2.427 . S
O110 C106 1.275 . S
O111 Tb102 2.513 . S
O111 C106 1.246 . S
O112 Tb102 2.453 . S
O112 C108 1.245 . S
O113 Tb100 2.343 . S
O113 Tb102 2.596 . S
O113 C108 1.259 . S
O114 Tb102 2.374 . S
O114 C109 1.250 . S
O115 Tb100 2.353 . S
O115 C109 1.263 . S
C116 O117 1.275 . S
C116 O118 1.246 . S
O117 Tb100 2.427 . S
O117 C116 1.275 . S
O118 Tb100 2.513 . S
O118 C116 1.246 . S
C119 O103 1.245 . S
C119 O104 1.259 . S
Tb120 O123 2.453 . S
Tb120 O124 2.596 . S
Tb120 O125 2.374 . S
Tb120 O133 2.343 . S
Tb120 O135 2.353 . S
Tb120 O137 2.427 . S
Tb120 O138 2.513 . S
C121 O125 1.251 . S
C121 O127 1.263 . S
Tb122 O124 2.343 . S
Tb122 O127 2.353 . S
Tb122 O130 2.427 . S
Tb122 O131 2.513 . S
Tb122 O132 2.453 1_545 S
Tb122 O133 2.596 . S
Tb122 O134 2.374 . S
O123 Tb120 2.453 . S
O123 C139 1.245 . S
O124 Tb120 2.596 . S
O124 Tb122 2.343 . S
O124 C139 1.259 . S
O125 Tb120 2.374 . S
O125 C121 1.251 . S
C126 O130 1.275 . S
C126 O131 1.246 . S
O127 C121 1.263 . S
O127 Tb122 2.353 . S
C128 O132 1.245 1_545 S
C128 O133 1.259 . S
C129 O134 1.250 . S
C129 O135 1.263 . S
O130 Tb122 2.427 . S
O130 C126 1.275 . S
O131 Tb122 2.513 . S
O131 C126 1.246 . S
O132 Tb122 2.453 1_565 S
O132 C128 1.245 1_565 S
O133 Tb120 2.343 . S
O133 Tb122 2.596 . S
O133 C128 1.259 . S
O134 Tb122 2.374 . S
O134 C129 1.250 . S
O135 Tb120 2.353 . S
O135 C129 1.263 . S
C136 O137 1.275 . S
C136 O138 1.246 . S
O137 Tb120 2.427 . S
O137 C136 1.275 . S
O138 Tb120 2.513 . S
O138 C136 1.246 . S
C139 O123 1.245 . S
C139 O124 1.259 . S
Tb140 O143 2.453 1_455 S
Tb140 O144 2.596 . S
Tb140 O145 2.374 . S
Tb140 O153 2.343 . S
Tb140 O155 2.353 . S
Tb140 O157 2.427 . S
Tb140 O158 2.513 . S
C141 O145 1.251 . S
C141 O147 1.263 . S
Tb142 O144 2.343 . S
Tb142 O147 2.353 . S
Tb142 O150 2.427 . S
Tb142 O151 2.513 . S
Tb142 O152 2.453 . S
Tb142 O153 2.596 . S
Tb142 O154 2.374 . S
O143 Tb140 2.453 1_655 S
O143 C159 1.245 1_655 S
O144 Tb140 2.596 . S
O144 Tb142 2.343 . S
O144 C159 1.259 . S
O145 Tb140 2.374 . S
O145 C141 1.251 . S
C146 O150 1.275 . S
C146 O151 1.246 . S
O147 C141 1.263 . S
O147 Tb142 2.353 . S
C148 O152 1.245 . S
C148 O153 1.259 . S
C149 O154 1.250 . S
C149 O155 1.263 . S
O150 Tb142 2.427 . S
O150 C146 1.275 . S
O151 Tb142 2.513 . S
O151 C146 1.246 . S
O152 Tb142 2.453 . S
O152 C148 1.245 . S
O153 Tb140 2.343 . S
O153 Tb142 2.596 . S
O153 C148 1.259 . S
O154 Tb142 2.374 . S
O154 C149 1.250 . S
O155 Tb140 2.353 . S
O155 C149 1.263 . S
C156 O157 1.275 . S
C156 O158 1.246 . S
O157 Tb140 2.427 . S
O157 C156 1.275 . S
O158 Tb140 2.513 . S
O158 C156 1.246 . S
C159 O143 1.245 1_455 S
C159 O144 1.259 . S
Tb160 O163 2.453 . S
Tb160 O164 2.596 . S
Tb160 O165 2.374 . S
Tb160 O173 2.343 . S
Tb160 O175 2.353 . S
Tb160 O177 2.427 . S
Tb160 O178 2.513 . S
C161 O165 1.251 . S
C161 O167 1.263 . S
Tb162 O164 2.343 . S
Tb162 O167 2.353 . S
Tb162 O170 2.427 . S
Tb162 O171 2.513 . S
Tb162 O172 2.453 . S
Tb162 O173 2.596 . S
Tb162 O174 2.374 . S
O163 Tb160 2.453 . S
O163 C179 1.245 . S
O164 Tb160 2.596 . S
O164 Tb162 2.343 . S
O164 C179 1.259 . S
O165 Tb160 2.374 . S
O165 C161 1.251 . S
C166 O170 1.275 . S
C166 O171 1.246 . S
O167 C161 1.263 . S
O167 Tb162 2.353 . S
C168 O172 1.245 . S
C168 O173 1.259 . S
C169 O174 1.250 . S
C169 O175 1.263 . S
O170 Tb162 2.427 . S
O170 C166 1.275 . S
O171 Tb162 2.513 . S
O171 C166 1.246 . S
O172 Tb162 2.453 . S
O172 C168 1.245 . S
O173 Tb160 2.343 . S
O173 Tb162 2.596 . S
O173 C168 1.259 . S
O174 Tb162 2.374 . S
O174 C169 1.250 . S
O175 Tb160 2.353 . S
O175 C169 1.263 . S
C176 O177 1.275 . S
C176 O178 1.246 . S
O177 Tb160 2.427 . S
O177 C176 1.275 . S
O178 Tb160 2.513 . S
O178 C176 1.246 . S
C179 O163 1.245 . S
C179 O164 1.259 . S
Tb180 O183 2.453 . S
Tb180 O184 2.596 . S
Tb180 O185 2.374 . S
Tb180 O193 2.343 . S
Tb180 O195 2.353 1_545 S
Tb180 O197 2.427 . S
Tb180 O198 2.513 . S
C181 O185 1.251 . S
C181 O187 1.263 . S
Tb182 O184 2.343 . S
Tb182 O187 2.353 . S
Tb182 O190 2.427 . S
Tb182 O191 2.513 1_545 S
Tb182 O192 2.453 1_445 S
Tb182 O193 2.596 . S
Tb182 O194 2.374 1_545 S
O183 Tb180 2.453 . S
O183 C199 1.245 . S
O184 Tb180 2.596 . S
O184 Tb182 2.343 . S
O184 C199 1.259 . S
O185 Tb180 2.374 . S
O185 C181 1.251 . S
C186 O190 1.275 . S
C186 O191 1.246 1_545 S
O187 C181 1.263 . S
O187 Tb182 2.353 . S
C188 O192 1.245 1_455 S
C188 O193 1.259 1_565 S
C189 O194 1.250 . S
C189 O195 1.263 . S
O190 Tb182 2.427 . S
O190 C186 1.275 . S
O191 Tb182 2.513 1_565 S
O191 C186 1.246 1_565 S
O192 Tb182 2.453 1_665 S
O192 C188 1.245 1_655 S
O193 Tb180 2.343 . S
O193 Tb182 2.596 . S
O193 C188 1.259 1_545 S
O194 Tb182 2.374 1_565 S
O194 C189 1.250 . S
O195 Tb180 2.353 1_565 S
O195 C189 1.263 . S
C196 O197 1.275 . S
C196 O198 1.246 . S
O197 Tb180 2.427 . S
O197 C196 1.275 . S
O198 Tb180 2.513 . S
O198 C196 1.246 . S
C199 O183 1.245 . S
C199 O184 1.259 . S
Tb200 O203 2.453 . S
Tb200 O204 2.596 . S
Tb200 O205 2.374 . S
Tb200 O213 2.343 . S
Tb200 O215 2.353 . S
Tb200 O217 2.427 . S
Tb200 O218 2.513 . S
C201 O205 1.251 . S
C201 O207 1.263 . S
Tb202 O204 2.343 . S
Tb202 O207 2.353 . S
Tb202 O210 2.427 . S
Tb202 O211 2.513 . S
Tb202 O212 2.453 . S
Tb202 O213 2.596 . S
Tb202 O214 2.374 . S
O203 Tb200 2.453 . S
O203 C219 1.245 . S
O204 Tb200 2.596 . S
O204 Tb202 2.343 . S
O204 C219 1.259 . S
O205 Tb200 2.374 . S
O205 C201 1.251 . S
C206 O210 1.275 1_556 S
C206 O211 1.246 1_556 S
O207 C201 1.263 . S
O207 Tb202 2.353 . S
C208 O212 1.245 . S
C208 O213 1.259 . S
C209 O214 1.250 . S
C209 O215 1.263 . S
O210 Tb202 2.427 . S
O210 C206 1.275 1_554 S
O211 Tb202 2.513 . S
O211 C206 1.246 1_554 S
O212 Tb202 2.453 . S
O212 C208 1.245 . S
O213 Tb200 2.343 . S
O213 Tb202 2.596 . S
O213 C208 1.259 . S
O214 Tb202 2.374 . S
O214 C209 1.250 . S
O215 Tb200 2.353 . S
O215 C209 1.263 . S
C216 O217 1.275 . S
C216 O218 1.246 . S
O217 Tb200 2.427 . S
O217 C216 1.275 . S
O218 Tb200 2.513 . S
O218 C216 1.246 . S
C219 O203 1.245 . S
C219 O204 1.259 . S
Tb220 O223 2.453 . S
Tb220 O224 2.596 . S
Tb220 O225 2.374 . S
Tb220 O233 2.343 . S
Tb220 O235 2.353 1_565 S
Tb220 O237 2.427 . S
Tb220 O238 2.513 . S
C221 O225 1.251 . S
C221 O227 1.263 . S
Tb222 O224 2.343 . S
Tb222 O227 2.353 . S
Tb222 O230 2.427 . S
Tb222 O231 2.513 1_565 S
Tb222 O232 2.453 1_565 S
Tb222 O233 2.596 . S
Tb222 O234 2.374 1_565 S
O223 Tb220 2.453 . S
O223 C239 1.245 . S
O224 Tb220 2.596 . S
O224 Tb222 2.343 . S
O224 C239 1.259 . S
O225 Tb220 2.374 . S
O225 C221 1.251 . S
C226 O230 1.275 . S
C226 O231 1.246 1_565 S
O227 C221 1.263 . S
O227 Tb222 2.353 . S
C228 O232 1.245 . S
C228 O233 1.259 1_545 S
C229 O234 1.250 . S
C229 O235 1.263 . S
O230 Tb222 2.427 . S
O230 C226 1.275 . S
O231 Tb222 2.513 1_545 S
O231 C226 1.246 1_545 S
O232 Tb222 2.453 1_545 S
O232 C228 1.245 . S
O233 Tb220 2.343 . S
O233 Tb222 2.596 . S
O233 C228 1.259 1_565 S
O234 Tb222 2.374 1_545 S
O234 C229 1.250 . S
O235 Tb220 2.353 1_545 S
O235 C229 1.263 . S
C236 O237 1.275 . S
C236 O238 1.246 . S
O237 Tb220 2.427 . S
O237 C236 1.275 . S
O238 Tb220 2.513 . S
O238 C236 1.246 . S
C239 O223 1.245 . S
C239 O224 1.259 . S
Tb240 O243 2.453 . S
Tb240 O244 2.596 . S
Tb240 O245 2.374 . S
Tb240 O253 2.343 . S
Tb240 O255 2.353 . S
Tb240 O257 2.427 . S
Tb240 O258 2.513 . S
C241 O245 1.251 . S
C241 O247 1.263 . S
Tb242 O244 2.343 . S
Tb242 O247 2.353 . S
Tb242 O250 2.427 . S
Tb242 O251 2.513 . S
Tb242 O252 2.453 . S
Tb242 O253 2.596 . S
Tb242 O254 2.374 . S
O243 Tb240 2.453 . S
O243 C259 1.245 . S
O244 Tb240 2.596 . S
O244 Tb242 2.343 . S
O244 C259 1.259 . S
O245 Tb240 2.374 . S
O245 C241 1.251 . S
C246 O250 1.275 . S
C246 O251 1.246 . S
O247 C241 1.263 . S
O247 Tb242 2.353 . S
C248 O252 1.245 . S
C248 O253 1.259 . S
C249 O254 1.250 . S
C249 O255 1.263 . S
O250 Tb242 2.427 . S
O250 C246 1.275 . S
O251 Tb242 2.513 . S
O251 C246 1.246 . S
O252 Tb242 2.453 . S
O252 C248 1.245 . S
O253 Tb240 2.343 . S
O253 Tb242 2.596 . S
O253 C248 1.259 . S
O254 Tb242 2.374 . S
O254 C249 1.250 . S
O255 Tb240 2.353 . S
O255 C249 1.263 . S
C256 O257 1.275 . S
C256 O258 1.246 . S
O257 Tb240 2.427 . S
O257 C256 1.275 . S
O258 Tb240 2.513 . S
O258 C256 1.246 . S
C259 O243 1.245 . S
C259 O244 1.259 . S
Tb260 O263 2.453 1_665 S
Tb260 O264 2.596 . S
Tb260 O265 2.374 1_565 S
Tb260 O273 2.343 . S
Tb260 O275 2.353 . S
Tb260 O277 2.427 . S
Tb260 O278 2.513 1_565 S
C261 O265 1.251 . S
C261 O267 1.263 . S
Tb262 O264 2.343 . S
Tb262 O267 2.353 1_565 S
Tb262 O270 2.427 . S
Tb262 O271 2.513 . S
Tb262 O272 2.453 . S
Tb262 O273 2.596 . S
Tb262 O274 2.374 . S
O263 Tb260 2.453 1_445 S
O263 C279 1.245 1_455 S
O264 Tb260 2.596 . S
O264 Tb262 2.343 . S
O264 C279 1.259 1_565 S
O265 Tb260 2.374 1_545 S
O265 C261 1.251 . S
C266 O270 1.275 . S
C266 O271 1.246 . S
O267 C261 1.263 . S
O267 Tb262 2.353 1_545 S
C268 O272 1.245 . S
C268 O273 1.259 . S
C269 O274 1.250 . S
C269 O275 1.263 . S
O270 Tb262 2.427 . S
O270 C266 1.275 . S
O271 Tb262 2.513 . S
O271 C266 1.246 . S
O272 Tb262 2.453 . S
O272 C268 1.245 . S
O273 Tb260 2.343 . S
O273 Tb262 2.596 . S
O273 C268 1.259 . S
O274 Tb262 2.374 . S
O274 C269 1.250 . S
O275 Tb260 2.353 . S
O275 C269 1.263 . S
C276 O277 1.275 . S
C276 O278 1.246 1_565 S
O277 Tb260 2.427 . S
O277 C276 1.275 . S
O278 Tb260 2.513 1_545 S
O278 C276 1.246 1_545 S
C279 O263 1.245 1_655 S
C279 O264 1.259 1_545 S
Tb280 O283 2.453 . S
Tb280 O284 2.596 . S
Tb280 O285 2.374 . S
Tb280 O293 2.343 . S
Tb280 O295 2.353 . S
Tb280 O297 2.427 . S
Tb280 O298 2.513 . S
C281 O285 1.251 . S
C281 O287 1.263 . S
Tb282 O284 2.343 . S
Tb282 O287 2.353 . S
Tb282 O290 2.427 . S
Tb282 O291 2.513 . S
Tb282 O292 2.453 . S
Tb282 O293 2.596 . S
Tb282 O294 2.374 . S
O283 Tb280 2.453 . S
O283 C299 1.245 . S
O284 Tb280 2.596 . S
O284 Tb282 2.343 . S
O284 C299 1.259 . S
O285 Tb280 2.374 . S
O285 C281 1.251 . S
C286 O290 1.275 . S
C286 O291 1.246 . S
O287 C281 1.263 . S
O287 Tb282 2.353 . S
C288 O292 1.245 . S
C288 O293 1.259 . S
C289 O294 1.250 . S
C289 O295 1.263 . S
O290 Tb282 2.427 . S
O290 C286 1.275 . S
O291 Tb282 2.513 . S
O291 C286 1.246 . S
O292 Tb282 2.453 . S
O292 C288 1.245 . S
O293 Tb280 2.343 . S
O293 Tb282 2.596 . S
O293 C288 1.259 . S
O294 Tb282 2.374 . S
O294 C289 1.250 . S
O295 Tb280 2.353 . S
O295 C289 1.263 . S
C296 O297 1.275 1_554 S
C296 O298 1.246 1_554 S
O297 Tb280 2.427 . S
O297 C296 1.275 1_556 S
O298 Tb280 2.513 . S
O298 C296 1.246 1_556 S
C299 O283 1.245 . S
C299 O284 1.259 . S
Tb300 O303 2.453 1_545 S
Tb300 O304 2.596 . S
Tb300 O305 2.374 1_545 S
Tb300 O313 2.343 . S
Tb300 O315 2.353 . S
Tb300 O317 2.427 . S
Tb300 O318 2.513 1_545 S
C301 O305 1.251 . S
C301 O307 1.263 . S
Tb302 O304 2.343 . S
Tb302 O307 2.353 1_545 S
Tb302 O310 2.427 . S
Tb302 O311 2.513 . S
Tb302 O312 2.453 . S
Tb302 O313 2.596 . S
Tb302 O314 2.374 . S
O303 Tb300 2.453 1_565 S
O303 C319 1.245 . S
O304 Tb300 2.596 . S
O304 Tb302 2.343 . S
O304 C319 1.259 1_545 S
O305 Tb300 2.374 1_565 S
O305 C301 1.251 . S
C306 O310 1.275 . S
C306 O311 1.246 . S
O307 C301 1.263 . S
O307 Tb302 2.353 1_565 S
C308 O312 1.245 . S
C308 O313 1.259 . S
C309 O314 1.250 . S
C309 O315 1.263 . S
O310 Tb302 2.427 . S
O310 C306 1.275 . S
O311 Tb302 2.513 . S
O311 C306 1.246 . S
O312 Tb302 2.453 . S
O312 C308 1.245 . S
O313 Tb300 2.343 . S
O313 Tb302 2.596 . S
O313 C308 1.259 . S
O314 Tb302 2.374 . S
O314 C309 1.250 . S
O315 Tb300 2.353 . S
O315 C309 1.263 . S
C316 O317 1.275 . S
C316 O318 1.246 1_545 S
O317 Tb300 2.427 . S
O317 C316 1.275 . S
O318 Tb300 2.513 1_565 S
O318 C316 1.246 1_565 S
C319 O303 1.245 . S
C319 O304 1.259 1_565 S
C320 C321 1.387 . S
C320 H324 0.950 . S
C320 C329 1.390 . S
C321 C320 1.387 . S
C321 C323 1.387 . S
H322 C329 0.950 . S
C323 C321 1.387 . S
C323 C325 1.390 . S
C323 H327 0.950 . S
H324 C320 0.950 . S
C325 C323 1.390 . S
C325 C326 1.387 . S
C325 H328 0.950 . S
C326 C325 1.387 . S
C326 C329 1.387 . S
H327 C323 0.950 . S
H328 C325 0.950 . S
C329 C320 1.390 . S
C329 H322 0.950 . S
C329 C326 1.387 . S
C330 C331 1.387 . S
C330 H334 0.950 . S
C330 C339 1.390 . S
C331 C330 1.387 . S
C331 C333 1.387 . S
H332 C339 0.950 . S
C333 C331 1.387 . S
C333 C335 1.390 . S
C333 H337 0.950 . S
H334 C330 0.950 . S
C335 C333 1.390 . S
C335 C336 1.387 . S
C335 H338 0.950 . S
C336 C335 1.387 . S
C336 C339 1.387 . S
H337 C333 0.950 . S
H338 C335 0.950 . S
C339 C330 1.390 . S
C339 H332 0.950 . S
C339 C336 1.387 . S
C340 C341 1.387 . S
C340 H344 0.950 . S
C340 C349 1.390 1_455 S
C341 C340 1.387 . S
C341 C343 1.387 . S
H342 C349 0.950 . S
C343 C341 1.387 . S
C343 C345 1.390 1_455 S
C343 H347 0.950 . S
H344 C340 0.950 . S
C345 C343 1.390 1_655 S
C345 C346 1.387 . S
C345 H348 0.950 . S
C346 C345 1.387 . S
C346 C349 1.387 . S
H347 C343 0.950 . S
H348 C345 0.950 . S
C349 C340 1.390 1_655 S
C349 H342 0.950 . S
C349 C346 1.387 . S
C350 C351 1.387 . S
C350 H354 0.950 . S
C350 C359 1.390 1_455 S
C351 C350 1.387 . S
C351 C353 1.387 . S
H352 C359 0.950 . S
C353 C351 1.387 . S
C353 C355 1.390 1_455 S
C353 H357 0.950 . S
H354 C350 0.950 . S
C355 C353 1.390 1_655 S
C355 C356 1.387 . S
C355 H358 0.950 . S
C356 C355 1.387 . S
C356 C359 1.387 . S
H357 C353 0.950 . S
H358 C355 0.950 . S
C359 C350 1.390 1_655 S
C359 H352 0.950 . S
C359 C356 1.387 . S
C360 C361 1.387 . S
C360 H364 0.950 . S
C360 C369 1.390 . S
C361 C360 1.387 . S
C361 C363 1.387 . S
H362 C369 0.950 . S
C363 C361 1.387 . S
C363 C365 1.390 . S
C363 H367 0.950 . S
H364 C360 0.950 . S
C365 C363 1.390 . S
C365 C366 1.387 . S
C365 H368 0.950 . S
C366 C365 1.387 . S
C366 C369 1.387 . S
H367 C363 0.950 . S
H368 C365 0.950 . S
C369 C360 1.390 . S
C369 H362 0.950 . S
C369 C366 1.387 . S
C370 C371 1.387 . S
C370 H374 0.950 . S
C370 C379 1.390 . S
C371 C370 1.387 . S
C371 C373 1.387 . S
H372 C379 0.950 . S
C373 C371 1.387 . S
C373 C375 1.390 . S
C373 H377 0.950 . S
H374 C370 0.950 . S
C375 C373 1.390 . S
C375 C376 1.387 . S
C375 H378 0.950 . S
C376 C375 1.387 . S
C376 C379 1.387 . S
H377 C373 0.950 . S
H378 C375 0.950 . S
C379 C370 1.390 . S
C379 H372 0.950 . S
C379 C376 1.387 . S
C380 C381 1.387 . S
C380 H384 0.950 . S
C380 C389 1.390 1_455 S
C381 C380 1.387 . S
C381 C383 1.387 . S
H382 C389 0.950 . S
C383 C381 1.387 . S
C383 C385 1.390 1_455 S
C383 H387 0.950 . S
H384 C380 0.950 . S
C385 C383 1.390 1_655 S
C385 C386 1.387 . S
C385 H388 0.950 . S
C386 C385 1.387 . S
C386 C389 1.387 . S
H387 C383 0.950 . S
H388 C385 0.950 . S
C389 C380 1.390 1_655 S
C389 H382 0.950 . S
C389 C386 1.387 . S
C390 C391 1.387 . S
C390 H394 0.950 . S
C390 C399 1.390 1_455 S
C391 C390 1.387 . S
C391 C393 1.387 . S
H392 C399 0.950 . S
C393 C391 1.387 . S
C393 C395 1.390 1_455 S
C393 H397 0.950 . S
H394 C390 0.950 . S
C395 C393 1.390 1_655 S
C395 C396 1.387 . S
C395 H398 0.950 . S
C396 C395 1.387 . S
C396 C399 1.387 . S
H397 C393 0.950 . S
H398 C395 0.950 . S
C399 C390 1.390 1_655 S
C399 H392 0.950 . S
C399 C396 1.387 . S
C400 C401 1.387 1_565 S
C400 H404 0.950 . S
C400 C409 1.390 1_554 S
C401 C400 1.387 1_545 S
C401 C403 1.387 . S
H402 C409 0.950 . S
C403 C401 1.387 . S
C403 C405 1.390 1_554 S
C403 H407 0.950 . S
H404 C400 0.950 . S
C405 C403 1.390 1_556 S
C405 C406 1.387 1_545 S
C405 H408 0.950 . S
C406 C405 1.387 1_565 S
C406 C409 1.387 . S
H407 C403 0.950 . S
H408 C405 0.950 . S
C409 C400 1.390 1_556 S
C409 H402 0.950 . S
C409 C406 1.387 . S
C410 C411 1.387 . S
C410 H414 0.950 . S
C410 C419 1.390 . S
C411 C410 1.387 . S
C411 C413 1.387 . S
H412 C419 0.950 . S
C413 C411 1.387 . S
C413 C415 1.390 . S
C413 H417 0.950 . S
H414 C410 0.950 . S
C415 C413 1.390 . S
C415 C416 1.387 . S
C415 H418 0.950 . S
C416 C415 1.387 . S
C416 C419 1.387 . S
H417 C413 0.950 . S
H418 C415 0.950 . S
C419 C410 1.390 . S
C419 H412 0.950 . S
C419 C416 1.387 . S
C420 C421 1.387 1_545 S
C420 H424 0.950 . S
C420 C429 1.390 . S
C421 C420 1.387 1_565 S
C421 C423 1.387 1_455 S
H422 C429 0.950 . S
C423 C421 1.387 1_655 S
C423 C425 1.390 . S
C423 H427 0.950 . S
H424 C420 0.950 . S
C425 C423 1.390 . S
C425 C426 1.387 1_565 S
C425 H428 0.950 . S
C426 C425 1.387 1_545 S
C426 C429 1.387 1_655 S
H427 C423 0.950 . S
H428 C425 0.950 . S
C429 C420 1.390 . S
C429 H422 0.950 . S
C429 C426 1.387 1_455 S
C430 C431 1.387 . S
C430 H434 0.950 . S
C430 C439 1.390 . S
C431 C430 1.387 . S
C431 C433 1.387 . S
H432 C439 0.950 . S
C433 C431 1.387 . S
C433 C435 1.390 . S
C433 H437 0.950 . S
H434 C430 0.950 . S
C435 C433 1.390 . S
C435 C436 1.387 . S
C435 H438 0.950 . S
C436 C435 1.387 . S
C436 C439 1.387 . S
H437 C433 0.950 . S
H438 C435 0.950 . S
C439 C430 1.390 . S
C439 H432 0.950 . S
C439 C436 1.387 . S
C440 C441 1.387 . S
C440 H444 0.950 . S
C440 C449 1.390 . S
C441 C440 1.387 . S
C441 C443 1.387 . S
H442 C449 0.950 . S
C443 C441 1.387 . S
C443 C445 1.390 . S
C443 H447 0.950 . S
H444 C440 0.950 . S
C445 C443 1.390 . S
C445 C446 1.387 . S
C445 H448 0.950 . S
C446 C445 1.387 . S
C446 C449 1.387 . S
H447 C443 0.950 . S
H448 C445 0.950 . S
C449 C440 1.390 . S
C449 H442 0.950 . S
C449 C446 1.387 . S
C450 C451 1.387 . S
C450 H454 0.950 . S
C450 C459 1.390 . S
C451 C450 1.387 . S
C451 C453 1.387 . S
H452 C459 0.950 . S
C453 C451 1.387 . S
C453 C455 1.390 . S
C453 H457 0.950 . S
H454 C450 0.950 . S
C455 C453 1.390 . S
C455 C456 1.387 . S
C455 H458 0.950 . S
C456 C455 1.387 . S
C456 C459 1.387 . S
H457 C453 0.950 . S
H458 C455 0.950 . S
C459 C450 1.390 . S
C459 H452 0.950 . S
C459 C456 1.387 . S
C460 C461 1.387 . S
C460 H464 0.950 . S
C460 C469 1.390 1_455 S
C461 C460 1.387 . S
C461 C463 1.387 . S
H462 C469 0.950 . S
C463 C461 1.387 . S
C463 C465 1.390 1_455 S
C463 H467 0.950 . S
H464 C460 0.950 . S
C465 C463 1.390 1_655 S
C465 C466 1.387 . S
C465 H468 0.950 . S
C466 C465 1.387 . S
C466 C469 1.387 . S
H467 C463 0.950 . S
H468 C465 0.950 . S
C469 C460 1.390 1_655 S
C469 H462 0.950 . S
C469 C466 1.387 . S
C470 C471 1.387 . S
C470 H474 0.950 . S
C470 C479 1.390 1_554 S
C471 C470 1.387 . S
C471 C473 1.387 . S
H472 C479 0.950 . S
C473 C471 1.387 . S
C473 C475 1.390 1_554 S
C473 H477 0.950 . S
H474 C470 0.950 . S
C475 C473 1.390 1_556 S
C475 C476 1.387 . S
C475 H478 0.950 . S
C476 C475 1.387 . S
C476 C479 1.387 . S
H477 C473 0.950 . S
H478 C475 0.950 . S
C479 C470 1.390 1_556 S
C479 H472 0.950 . S
C479 C476 1.387 . S
C480 C481 1.387 . S
C480 H484 0.950 . S
C480 C489 1.390 . S
C481 C480 1.387 . S
C481 C483 1.387 . S
H482 C489 0.950 . S
C483 C481 1.387 . S
C483 C485 1.390 . S
C483 H487 0.950 . S
H484 C480 0.950 . S
C485 C483 1.390 . S
C485 C486 1.387 . S
C485 H488 0.950 . S
C486 C485 1.387 . S
C486 C489 1.387 . S
H487 C483 0.950 . S
H488 C485 0.950 . S
C489 C480 1.390 . S
C489 H482 0.950 . S
C489 C486 1.387 . S
C490 C491 1.387 . S
C490 H494 0.950 . S
C490 C499 1.390 . S
C491 C490 1.387 . S
C491 C493 1.387 . S
H492 C499 0.950 . S
C493 C491 1.387 . S
C493 C495 1.390 . S
C493 H497 0.950 . S
H494 C490 0.950 . S
C495 C493 1.390 . S
C495 C496 1.387 . S
C495 H498 0.950 . S
C496 C495 1.387 . S
C496 C499 1.387 . S
H497 C493 0.950 . S
H498 C495 0.950 . S
C499 C490 1.390 . S
C499 H492 0.950 . S
C499 C496 1.387 . S
C500 C501 1.387 . S
C500 H504 0.950 . S
C500 C509 1.390 . S
C501 C500 1.387 . S
C501 C503 1.387 . S
H502 C509 0.950 . S
C503 C501 1.387 . S
C503 C505 1.390 . S
C503 H507 0.950 . S
H504 C500 0.950 . S
C505 C503 1.390 . S
C505 C506 1.387 . S
C505 H508 0.950 . S
C506 C505 1.387 . S
C506 C509 1.387 . S
H507 C503 0.950 . S
H508 C505 0.950 . S
C509 C500 1.390 . S
C509 H502 0.950 . S
C509 C506 1.387 . S
C510 C511 1.387 . S
C510 H514 0.950 . S
C510 C519 1.390 . S
C511 C510 1.387 . S
C511 C513 1.387 . S
H512 C519 0.950 . S
C513 C511 1.387 . S
C513 C515 1.390 . S
C513 H517 0.950 1_455 S
H514 C510 0.950 . S
C515 C513 1.390 . S
C515 C516 1.387 . S
C515 H518 0.950 . S
C516 C515 1.387 . S
C516 C519 1.387 . S
H517 C513 0.950 1_655 S
H518 C515 0.950 . S
C519 C510 1.390 . S
C519 H512 0.950 . S
C519 C516 1.387 . S
C520 C521 1.387 . S
C520 H524 0.950 . S
C520 C529 1.390 . S
C521 C520 1.387 . S
C521 C523 1.387 . S
H522 C529 0.950 . S
C523 C521 1.387 . S
C523 C525 1.390 . S
C523 H527 0.950 . S
H524 C520 0.950 . S
C525 C523 1.390 . S
C525 C526 1.387 . S
C525 H528 0.950 . S
C526 C525 1.387 . S
C526 C529 1.387 . S
H527 C523 0.950 . S
H528 C525 0.950 . S
C529 C520 1.390 . S
C529 H522 0.950 . S
C529 C526 1.387 . S
C530 C531 1.387 . S
C530 H534 0.950 . S
C530 C539 1.390 . S
C531 C530 1.387 . S
C531 C533 1.387 . S
H532 C539 0.950 . S
C533 C531 1.387 . S
C533 C535 1.390 . S
C533 H537 0.950 . S
H534 C530 0.950 . S
C535 C533 1.390 . S
C535 C536 1.387 . S
C535 H538 0.950 . S
C536 C535 1.387 . S
C536 C539 1.387 . S
H537 C533 0.950 . S
H538 C535 0.950 . S
C539 C530 1.390 . S
C539 H532 0.950 . S
C539 C536 1.387 . S
C540 C541 1.387 . S
C540 H544 0.950 . S
C540 C549 1.390 . S
C541 C540 1.387 . S
C541 C543 1.387 . S
H542 C549 0.950 . S
C543 C541 1.387 . S
C543 C545 1.390 . S
C543 H547 0.950 . S
H544 C540 0.950 . S
C545 C543 1.390 . S
C545 C546 1.387 . S
C545 H548 0.950 . S
C546 C545 1.387 . S
C546 C549 1.387 . S
H547 C543 0.950 . S
H548 C545 0.950 . S
C549 C540 1.390 . S
C549 H542 0.950 . S
C549 C546 1.387 . S
C550 C551 1.387 . S
C550 H554 0.950 . S
C550 C559 1.390 . S
C551 C550 1.387 . S
C551 C553 1.387 . S
H552 C559 0.950 . S
C553 C551 1.387 . S
C553 C555 1.390 1_655 S
C553 H557 0.950 . S
H554 C550 0.950 . S
C555 C553 1.390 1_455 S
C555 C556 1.387 1_455 S
C555 H558 0.950 . S
C556 C555 1.387 1_655 S
C556 C559 1.387 . S
H557 C553 0.950 . S
H558 C555 0.950 . S
C559 C550 1.390 . S
C559 H552 0.950 . S
C559 C556 1.387 . S
C560 C561 1.387 . S
C560 H564 0.950 . S
C560 C569 1.390 . S
C561 C560 1.387 . S
C561 C563 1.387 . S
H562 C569 0.950 . S
C563 C561 1.387 . S
C563 C565 1.390 . S
C563 H567 0.950 . S
H564 C560 0.950 . S
C565 C563 1.390 . S
C565 C566 1.387 . S
C565 H568 0.950 . S
C566 C565 1.387 . S
C566 C569 1.387 . S
H567 C563 0.950 . S
H568 C565 0.950 . S
C569 C560 1.390 . S
C569 H562 0.950 . S
C569 C566 1.387 . S
C570 C571 1.387 . S
C570 H574 0.950 . S
C570 C579 1.390 . S
C571 C570 1.387 . S
C571 C573 1.387 1_565 S
H572 C579 0.950 . S
C573 C571 1.387 1_545 S
C573 C575 1.390 . S
C573 H577 0.950 . S
H574 C570 0.950 . S
C575 C573 1.390 . S
C575 C576 1.387 1_545 S
C575 H578 0.950 . S
C576 C575 1.387 1_565 S
C576 C579 1.387 . S
H577 C573 0.950 . S
H578 C575 0.950 . S
C579 C570 1.390 . S
C579 H572 0.950 . S
C579 C576 1.387 . S
C580 C581 1.387 . S
C580 H584 0.950 . S
C580 C589 1.390 . S
C581 C580 1.387 . S
C581 C583 1.387 . S
H582 C589 0.950 . S
C583 C581 1.387 . S
C583 C585 1.390 . S
C583 H587 0.950 . S
H584 C580 0.950 . S
C585 C583 1.390 . S
C585 C586 1.387 . S
C585 H588 0.950 . S
C586 C585 1.387 . S
C586 C589 1.387 . S
H587 C583 0.950 . S
H588 C585 0.950 . S
C589 C580 1.390 . S
C589 H582 0.950 . S
C589 C586 1.387 . S
C590 C591 1.387 . S
C590 H594 0.950 . S
C590 C599 1.390 . S
C591 C590 1.387 . S
C591 C593 1.387 . S
H592 C599 0.950 . S
C593 C591 1.387 . S
C593 C595 1.390 . S
C593 H597 0.950 . S
H594 C590 0.950 . S
C595 C593 1.390 . S
C595 C596 1.387 . S
C595 H598 0.950 1_545 S
C596 C595 1.387 . S
C596 C599 1.387 . S
H597 C593 0.950 . S
H598 C595 0.950 1_565 S
C599 C590 1.390 . S
C599 H592 0.950 . S
C599 C596 1.387 . S
C600 C601 1.387 . S
C600 H604 0.950 . S
C600 C609 1.390 . S
C601 C600 1.387 . S
C601 C603 1.387 . S
H602 C609 0.950 . S
C603 C601 1.387 . S
C603 C605 1.390 . S
C603 H607 0.950 . S
H604 C600 0.950 . S
C605 C603 1.390 . S
C605 C606 1.387 . S
C605 H608 0.950 . S
C606 C605 1.387 . S
C606 C609 1.387 . S
H607 C603 0.950 . S
H608 C605 0.950 . S
C609 C600 1.390 . S
C609 H602 0.950 . S
C609 C606 1.387 . S
C610 C611 1.387 . S
C610 H614 0.950 1_455 S
C610 C619 1.390 . S
C611 C610 1.387 . S
C611 C613 1.387 1_545 S
H612 C619 0.950 . S
C613 C611 1.387 1_565 S
C613 C615 1.390 . S
C613 H617 0.950 . S
H614 C610 0.950 1_655 S
C615 C613 1.390 . S
C615 C616 1.387 1_565 S
C615 H618 0.950 . S
C616 C615 1.387 1_545 S
C616 C619 1.387 . S
H617 C613 0.950 . S
H618 C615 0.950 . S
C619 C610 1.390 . S
C619 H612 0.950 . S
C619 C616 1.387 . S
C620 C621 1.387 . S
C620 H624 0.950 . S
C620 C629 1.390 . S
C621 C620 1.387 . S
C621 C623 1.387 . S
H622 C629 0.950 . S
C623 C621 1.387 . S
C623 C625 1.390 . S
C623 H627 0.950 . S
H624 C620 0.950 . S
C625 C623 1.390 . S
C625 C626 1.387 . S
C625 H628 0.950 . S
C626 C625 1.387 . S
C626 C629 1.387 . S
H627 C623 0.950 . S
H628 C625 0.950 . S
C629 C620 1.390 . S
C629 H622 0.950 . S
C629 C626 1.387 . S
C630 C631 1.387 . S
C630 H634 0.950 . S
C630 C639 1.390 . S
C631 C630 1.387 . S
C631 C633 1.387 1_565 S
H632 C639 0.950 . S
C633 C631 1.387 1_545 S
C633 C635 1.390 . S
C633 H637 0.950 . S
H634 C630 0.950 . S
C635 C633 1.390 . S
C635 C636 1.387 1_545 S
C635 H638 0.950 . S
C636 C635 1.387 1_565 S
C636 C639 1.387 . S
H637 C633 0.950 . S
H638 C635 0.950 . S
C639 C630 1.390 . S
C639 H632 0.950 . S
C639 C636 1.387 . S
C640 C641 1.387 . S
C640 H644 0.950 . S
C640 C649 1.390 . S
C641 C640 1.387 . S
C641 C643 1.387 . S
H642 C649 0.950 1_565 S
C643 C641 1.387 . S
C643 C645 1.390 . S
C643 H647 0.950 . S
H644 C640 0.950 . S
C645 C643 1.390 . S
C645 C646 1.387 . S
C645 H648 0.950 . S
C646 C645 1.387 . S
C646 C649 1.387 . S
H647 C643 0.950 . S
H648 C645 0.950 . S
C649 C640 1.390 . S
C649 H642 0.950 1_545 S
C649 C646 1.387 . S
C650 C651 1.387 . S
C650 H654 0.950 . S
C650 C659 1.390 . S
C651 C650 1.387 . S
C651 C653 1.387 . S
H652 C659 0.950 . S
C653 C651 1.387 . S
C653 C655 1.390 . S
C653 H657 0.950 . S
H654 C650 0.950 . S
C655 C653 1.390 . S
C655 C656 1.387 . S
C655 H658 0.950 . S
C656 C655 1.387 . S
C656 C659 1.387 . S
H657 C653 0.950 . S
H658 C655 0.950 . S
C659 C650 1.390 . S
C659 H652 0.950 . S
C659 C656 1.387 . S
C660 C661 1.387 . S
C660 H664 0.950 . S
C660 C669 1.390 . S
C661 C660 1.387 . S
C661 C663 1.387 . S
H662 C669 0.950 1_545 S
C663 C661 1.387 . S
C663 C665 1.390 . S
C663 H667 0.950 . S
H664 C660 0.950 . S
C665 C663 1.390 . S
C665 C666 1.387 . S
C665 H668 0.950 . S
C666 C665 1.387 . S
C666 C669 1.387 . S
H667 C663 0.950 . S
H668 C665 0.950 . S
C669 C660 1.390 . S
C669 H662 0.950 1_565 S
C669 C666 1.387 . S
C670 C671 1.387 . S
C670 H674 0.950 . S
C670 C679 1.390 . S
C671 C670 1.387 . S
C671 C673 1.387 . S
H672 C679 0.950 . S
C673 C671 1.387 . S
C673 C675 1.390 . S
C673 H677 0.950 . S
H674 C670 0.950 . S
C675 C673 1.390 . S
C675 C676 1.387 . S
C675 H678 0.950 . S
C676 C675 1.387 . S
C676 C679 1.387 . S
H677 C673 0.950 . S
H678 C675 0.950 . S
C679 C670 1.390 . S
C679 H672 0.950 . S
C679 C676 1.387 . S
C680 C681 1.387 . S
C680 H684 0.950 . S
C680 C689 1.390 . S
C681 C680 1.387 . S
C681 C683 1.387 . S
H682 C689 0.950 . S
C683 C681 1.387 . S
C683 C685 1.390 . S
C683 H687 0.950 . S
H684 C680 0.950 . S
C685 C683 1.390 . S
C685 C686 1.387 . S
C685 H688 0.950 . S
C686 C685 1.387 . S
C686 C689 1.387 . S
H687 C683 0.950 . S
H688 C685 0.950 . S
C689 C680 1.390 . S
C689 H682 0.950 . S
C689 C686 1.387 . S
C690 C691 1.387 . S
C690 H694 0.950 . S
C690 C699 1.390 . S
C691 C690 1.387 . S
C691 C693 1.387 . S
H692 C699 0.950 . S
C693 C691 1.387 . S
C693 C695 1.390 . S
C693 H697 0.950 . S
H694 C690 0.950 . S
C695 C693 1.390 . S
C695 C696 1.387 . S
C695 H698 0.950 . S
C696 C695 1.387 . S
C696 C699 1.387 . S
H697 C693 0.950 . S
H698 C695 0.950 . S
C699 C690 1.390 . S
C699 H692 0.950 . S
C699 C696 1.387 . S
C700 C701 1.387 . S
C700 H704 0.950 1_545 S
C700 C709 1.390 . S
C701 C700 1.387 . S
C701 C703 1.387 . S
H702 C709 0.950 . S
C703 C701 1.387 . S
C703 C705 1.390 . S
C703 H707 0.950 . S
H704 C700 0.950 1_565 S
C705 C703 1.390 . S
C705 C706 1.387 . S
C705 H708 0.950 . S
C706 C705 1.387 . S
C706 C709 1.387 . S
H707 C703 0.950 . S
H708 C705 0.950 . S
C709 C700 1.390 . S
C709 H702 0.950 . S
C709 C706 1.387 . S
C710 C711 1.387 . S
C710 H714 0.950 . S
C710 C719 1.390 . S
C711 C710 1.387 . S
C711 C713 1.387 . S
H712 C719 0.950 . S
C713 C711 1.387 . S
C713 C715 1.390 . S
C713 H717 0.950 . S
H714 C710 0.950 . S
C715 C713 1.390 . S
C715 C716 1.387 . S
C715 H718 0.950 . S
C716 C715 1.387 . S
C716 C719 1.387 . S
H717 C713 0.950 . S
H718 C715 0.950 . S
C719 C710 1.390 . S
C719 H712 0.950 . S
C719 C716 1.387 . S
C720 C721 1.387 . S
C720 H724 0.950 . S
C720 C729 1.390 . S
C721 C720 1.387 . S
C721 C723 1.387 . S
H722 C729 0.950 . S
C723 C721 1.387 . S
C723 C725 1.390 . S
C723 H727 0.950 . S
H724 C720 0.950 . S
C725 C723 1.390 . S
C725 C726 1.387 . S
C725 H728 0.950 . S
C726 C725 1.387 . S
C726 C729 1.387 . S
H727 C723 0.950 . S
H728 C725 0.950 . S
C729 C720 1.390 . S
C729 H722 0.950 . S
C729 C726 1.387 . S
C730 C731 1.387 . S
C730 H734 0.950 . S
C730 C739 1.390 . S
C731 C730 1.387 . S
C731 C733 1.387 . S
H732 C739 0.950 . S
C733 C731 1.387 . S
C733 C735 1.390 . S
C733 H737 0.950 . S
H734 C730 0.950 . S
C735 C733 1.390 . S
C735 C736 1.387 . S
C735 H738 0.950 1_565 S
C736 C735 1.387 . S
C736 C739 1.387 . S
H737 C733 0.950 . S
H738 C735 0.950 1_545 S
C739 C730 1.390 . S
C739 H732 0.950 . S
C739 C736 1.387 . S
C740 C741 1.387 . S
C740 H744 0.950 . S
C740 C749 1.390 . S
C741 C740 1.387 . S
C741 C743 1.387 . S
H742 C749 0.950 . S
C743 C741 1.387 . S
C743 C745 1.390 . S
C743 H747 0.950 . S
H744 C740 0.950 . S
C745 C743 1.390 . S
C745 C746 1.387 . S
C745 H748 0.950 . S
C746 C745 1.387 . S
C746 C749 1.387 . S
H747 C743 0.950 . S
H748 C745 0.950 . S
C749 C740 1.390 . S
C749 H742 0.950 . S
C749 C746 1.387 . S
C750 C751 1.387 1_565 S
C750 H754 0.950 . S
C750 C759 1.390 1_565 S
C751 C750 1.387 1_545 S
C751 C753 1.387 . S
H752 C759 0.950 . S
C753 C751 1.387 . S
C753 C755 1.390 . S
C753 H757 0.950 . S
H754 C750 0.950 . S
C755 C753 1.390 . S
C755 C756 1.387 . S
C755 H758 0.950 . S
C756 C755 1.387 . S
C756 C759 1.387 . S
H757 C753 0.950 . S
H758 C755 0.950 . S
C759 C750 1.390 1_545 S
C759 H752 0.950 . S
C759 C756 1.387 . S
C760 C761 1.387 . S
C760 H764 0.950 . S
C760 C769 1.390 . S
C761 C760 1.387 . S
C761 C763 1.387 . S
H762 C769 0.950 . S
C763 C761 1.387 . S
C763 C765 1.390 . S
C763 H767 0.950 . S
H764 C760 0.950 . S
C765 C763 1.390 . S
C765 C766 1.387 . S
C765 H768 0.950 . S
C766 C765 1.387 . S
C766 C769 1.387 . S
H767 C763 0.950 . S
H768 C765 0.950 . S
C769 C760 1.390 . S
C769 H762 0.950 . S
C769 C766 1.387 . S
C770 C771 1.387 . S
C770 H774 0.950 . S
C770 C779 1.390 1_545 S
C771 C770 1.387 . S
C771 C773 1.387 . S
H772 C779 0.950 . S
C773 C771 1.387 . S
C773 C775 1.390 . S
C773 H777 0.950 . S
H774 C770 0.950 . S
C775 C773 1.390 . S
C775 C776 1.387 . S
C775 H778 0.950 . S
C776 C775 1.387 . S
C776 C779 1.387 1_545 S
H777 C773 0.950 . S
H778 C775 0.950 . S
C779 C770 1.390 1_565 S
C779 H772 0.950 . S
C779 C776 1.387 1_565 S
C780 C781 1.387 . S
C780 H784 0.950 . S
C780 C789 1.390 . S
C781 C780 1.387 . S
C781 C783 1.387 . S
H782 C789 0.950 . S
C783 C781 1.387 . S
C783 C785 1.390 . S
C783 H787 0.950 . S
H784 C780 0.950 . S
C785 C783 1.390 . S
C785 C786 1.387 . S
C785 H788 0.950 . S
C786 C785 1.387 . S
C786 C789 1.387 . S
H787 C783 0.950 . S
H788 C785 0.950 . S
C789 C780 1.390 . S
C789 H782 0.950 . S
C789 C786 1.387 . S
C790 C791 1.387 . S
C790 H794 0.950 . S
C790 C799 1.390 . S
C791 C790 1.387 . S
C791 C793 1.387 . S
H792 C799 0.950 . S
C793 C791 1.387 . S
C793 C795 1.390 1_565 S
C793 H797 0.950 . S
H794 C790 0.950 . S
C795 C793 1.390 1_545 S
C795 C796 1.387 1_545 S
C795 H798 0.950 . S
C796 C795 1.387 1_565 S
C796 C799 1.387 . S
H797 C793 0.950 . S
H798 C795 0.950 . S
C799 C790 1.390 . S
C799 H792 0.950 . S
C799 C796 1.387 . S
C321 C1 0.668 . S
C326 C201 0.667 . S
C331 C21 0.662 . S
C336 C221 0.662 . S
C341 C41 0.667 . S
C346 C161 0.667 . S
C351 C181 0.662 . S
C356 C61 0.662 . S
C361 C89 0.668 . S
C366 C289 0.667 . S
C371 C309 0.662 . S
C376 C109 0.662 . S
C381 C249 0.662 . S
C386 C129 0.662 . S
C391 C149 0.667 . S
C396 C269 0.667 . S
C401 C19 2.316 . S
C406 C88 2.316 . S
C411 C39 2.317 . S
C416 C268 2.317 . S
C421 C59 2.316 . S
C426 C128 2.316 . S
C431 C79 2.317 . S
C436 C308 2.317 . S
C441 C108 2.316 . S
C446 C199 2.316 . S
C451 C239 2.317 . S
C456 C148 2.317 . S
C461 C248 2.318 . S
C466 C179 2.318 . S
C471 C219 2.318 . S
C476 C288 2.318 . S
C481 C8 1.439 . S
C486 C141 1.528 . S
C491 C28 1.435 . S
C496 C241 1.529 . S
C501 C48 1.435 . S
C506 C101 1.529 . S
C511 C68 1.438 1_455 S
C516 C281 1.527 . S
C521 C69 1.528 . S
C526 C99 1.439 . S
C531 C119 1.435 . S
C536 C169 1.529 . S
C541 C139 1.439 . S
C546 C29 1.528 . S
C551 C209 1.528 . S
C556 C159 1.438 1_655 S
C561 C168 1.438 . S
C566 C301 1.527 . S
C571 C81 1.529 . S
C576 C188 1.435 1_655 S
C581 C261 1.529 . S
C586 C208 1.437 . S
C591 C121 1.528 . S
C596 C228 1.435 . S
C601 C259 1.439 . S
C606 C229 1.527 . S
C611 C279 1.439 1_455 S
C616 C9 1.527 . S
C621 C189 1.529 . S
C626 C299 1.436 . S
C631 C319 1.439 . S
C636 C49 1.528 . S
C641 C6 1.557 . S
C646 C196 1.497 . S
C651 C216 1.493 . S
C656 C26 1.554 . S
C661 C46 1.557 . S
C666 C236 1.497 . S
C671 C176 1.493 . S
C676 C66 1.554 . S
C681 C266 1.497 . S
C686 C96 1.557 . S
C691 C286 1.496 . S
C696 C116 1.557 . S
C701 C306 1.493 . S
C706 C136 1.554 . S
C711 C246 1.496 . S
C716 C156 1.555 . S
C721 C36 1.493 . S
C726 C166 1.554 . S
C731 C56 1.493 . S
C736 C186 1.554 1_565 S
C741 C76 1.497 . S
C746 C206 1.557 . S
C751 C226 1.555 1_545 S
C756 C16 1.495 . S
C761 C106 1.493 . S
C766 C256 1.554 . S
C771 C126 1.496 . S
C776 C276 1.557 1_545 S
C781 C146 1.497 . S
C786 C296 1.557 . S
C791 C86 1.496 . S
C796 C316 1.555 1_565 S
