# Generated by pormake.
# Topology fce, (5)-cn, num edge types: 1
# Building blocks:
#     Node 0, Type 0, BuildingBlock: BEQFEK_clean_sbu_0, # of connection points: 5
#     Node 1, Type 0, BuildingBlock: BEQFEK_clean_sbu_0, # of connection points: 5
#     Node 2, Type 0, BuildingBlock: BEQFEK_clean_sbu_0, # of connection points: 5
#     Node 3, Type 0, BuildingBlock: BEQFEK_clean_sbu_0, # of connection points: 5
#     Node 4, Type 0, BuildingBlock: BEQFEK_clean_sbu_0, # of connection points: 5
#     Node 5, Type 0, BuildingBlock: BEQFEK_clean_sbu_0, # of connection points: 5
#     Node 6, Type 0, BuildingBlock: BEQFEK_clean_sbu_0, # of connection points: 5
#     Node 7, Type 0, BuildingBlock: BEQFEK_clean_sbu_0, # of connection points: 5
#     Node 8, Type 0, BuildingBlock: BEQFEK_clean_sbu_0, # of connection points: 5
#     Node 9, Type 0, BuildingBlock: BEQFEK_clean_sbu_0, # of connection points: 5
#     Node 10, Type 0, BuildingBlock: BEQFEK_clean_sbu_0, # of connection points: 5
#     Node 11, Type 0, BuildingBlock: BEQFEK_clean_sbu_0, # of connection points: 5
#     Node 12, Type 0, BuildingBlock: BEQFEK_clean_sbu_0, # of connection points: 5
#     Node 13, Type 0, BuildingBlock: BEQFEK_clean_sbu_0, # of connection points: 5
#     Node 14, Type 0, BuildingBlock: BEQFEK_clean_sbu_0, # of connection points: 5
#     Node 15, Type 0, BuildingBlock: BEQFEK_clean_sbu_0, # of connection points: 5
#     Node 16, Type 0, BuildingBlock: BEQFEK_clean_sbu_0, # of connection points: 5
#     Node 17, Type 0, BuildingBlock: BEQFEK_clean_sbu_0, # of connection points: 5
#     Node 18, Type 0, BuildingBlock: BEQFEK_clean_sbu_0, # of connection points: 5
#     Node 19, Type 0, BuildingBlock: BEQFEK_clean_sbu_0, # of connection points: 5
#     Node 20, Type 0, BuildingBlock: BEQFEK_clean_sbu_0, # of connection points: 5
#     Node 21, Type 0, BuildingBlock: BEQFEK_clean_sbu_0, # of connection points: 5
#     Node 22, Type 0, BuildingBlock: BEQFEK_clean_sbu_0, # of connection points: 5
#     Node 23, Type 0, BuildingBlock: BEQFEK_clean_sbu_0, # of connection points: 5
#     Edge 24, Type (0, 0), BuildingBlock: AJUNOK_clean_linker_0, # of connection points: 2
#     Edge 25, Type (0, 0), BuildingBlock: AJUNOK_clean_linker_0, # of connection points: 2
#     Edge 26, Type (0, 0), BuildingBlock: AJUNOK_clean_linker_0, # of connection points: 2
#     Edge 27, Type (0, 0), BuildingBlock: AJUNOK_clean_linker_0, # of connection points: 2
#     Edge 28, Type (0, 0), BuildingBlock: AJUNOK_clean_linker_0, # of connection points: 2
#     Edge 29, Type (0, 0), BuildingBlock: AJUNOK_clean_linker_0, # of connection points: 2
#     Edge 30, Type (0, 0), BuildingBlock: AJUNOK_clean_linker_0, # of connection points: 2
#     Edge 31, Type (0, 0), BuildingBlock: AJUNOK_clean_linker_0, # of connection points: 2
#     Edge 32, Type (0, 0), BuildingBlock: AJUNOK_clean_linker_0, # of connection points: 2
#     Edge 33, Type (0, 0), BuildingBlock: AJUNOK_clean_linker_0, # of connection points: 2
#     Edge 34, Type (0, 0), BuildingBlock: AJUNOK_clean_linker_0, # of connection points: 2
#     Edge 35, Type (0, 0), BuildingBlock: AJUNOK_clean_linker_0, # of connection points: 2
#     Edge 36, Type (0, 0), BuildingBlock: AJUNOK_clean_linker_0, # of connection points: 2
#     Edge 37, Type (0, 0), BuildingBlock: AJUNOK_clean_linker_0, # of connection points: 2
#     Edge 38, Type (0, 0), BuildingBlock: AJUNOK_clean_linker_0, # of connection points: 2
#     Edge 39, Type (0, 0), BuildingBlock: AJUNOK_clean_linker_0, # of connection points: 2
#     Edge 40, Type (0, 0), BuildingBlock: AJUNOK_clean_linker_0, # of connection points: 2
#     Edge 41, Type (0, 0), BuildingBlock: AJUNOK_clean_linker_0, # of connection points: 2
#     Edge 42, Type (0, 0), BuildingBlock: AJUNOK_clean_linker_0, # of connection points: 2
#     Edge 43, Type (0, 0), BuildingBlock: AJUNOK_clean_linker_0, # of connection points: 2
#     Edge 44, Type (0, 0), BuildingBlock: AJUNOK_clean_linker_0, # of connection points: 2
#     Edge 45, Type (0, 0), BuildingBlock: AJUNOK_clean_linker_0, # of connection points: 2
#     Edge 46, Type (0, 0), BuildingBlock: AJUNOK_clean_linker_0, # of connection points: 2
#     Edge 47, Type (0, 0), BuildingBlock: AJUNOK_clean_linker_0, # of connection points: 2
#     Edge 48, Type (0, 0), BuildingBlock: AJUNOK_clean_linker_0, # of connection points: 2
#     Edge 49, Type (0, 0), BuildingBlock: AJUNOK_clean_linker_0, # of connection points: 2
#     Edge 50, Type (0, 0), BuildingBlock: AJUNOK_clean_linker_0, # of connection points: 2
#     Edge 51, Type (0, 0), BuildingBlock: AJUNOK_clean_linker_0, # of connection points: 2
#     Edge 52, Type (0, 0), BuildingBlock: AJUNOK_clean_linker_0, # of connection points: 2
#     Edge 53, Type (0, 0), BuildingBlock: AJUNOK_clean_linker_0, # of connection points: 2
#     Edge 54, Type (0, 0), BuildingBlock: AJUNOK_clean_linker_0, # of connection points: 2
#     Edge 55, Type (0, 0), BuildingBlock: AJUNOK_clean_linker_0, # of connection points: 2
#     Edge 56, Type (0, 0), BuildingBlock: AJUNOK_clean_linker_0, # of connection points: 2
#     Edge 57, Type (0, 0), BuildingBlock: AJUNOK_clean_linker_0, # of connection points: 2
#     Edge 58, Type (0, 0), BuildingBlock: AJUNOK_clean_linker_0, # of connection points: 2
#     Edge 59, Type (0, 0), BuildingBlock: AJUNOK_clean_linker_0, # of connection points: 2
#     Edge 60, Type (0, 0), BuildingBlock: AJUNOK_clean_linker_0, # of connection points: 2
#     Edge 61, Type (0, 0), BuildingBlock: AJUNOK_clean_linker_0, # of connection points: 2
#     Edge 62, Type (0, 0), BuildingBlock: AJUNOK_clean_linker_0, # of connection points: 2
#     Edge 63, Type (0, 0), BuildingBlock: AJUNOK_clean_linker_0, # of connection points: 2
#     Edge 64, Type (0, 0), BuildingBlock: AJUNOK_clean_linker_0, # of connection points: 2
#     Edge 65, Type (0, 0), BuildingBlock: AJUNOK_clean_linker_0, # of connection points: 2
#     Edge 66, Type (0, 0), BuildingBlock: AJUNOK_clean_linker_0, # of connection points: 2
#     Edge 67, Type (0, 0), BuildingBlock: AJUNOK_clean_linker_0, # of connection points: 2
#     Edge 68, Type (0, 0), BuildingBlock: AJUNOK_clean_linker_0, # of connection points: 2
#     Edge 69, Type (0, 0), BuildingBlock: AJUNOK_clean_linker_0, # of connection points: 2
#     Edge 70, Type (0, 0), BuildingBlock: AJUNOK_clean_linker_0, # of connection points: 2
#     Edge 71, Type (0, 0), BuildingBlock: AJUNOK_clean_linker_0, # of connection points: 2
#     Edge 72, Type (0, 0), BuildingBlock: AJUNOK_clean_linker_0, # of connection points: 2
#     Edge 73, Type (0, 0), BuildingBlock: AJUNOK_clean_linker_0, # of connection points: 2
#     Edge 74, Type (0, 0), BuildingBlock: AJUNOK_clean_linker_0, # of connection points: 2
#     Edge 75, Type (0, 0), BuildingBlock: AJUNOK_clean_linker_0, # of connection points: 2
#     Edge 76, Type (0, 0), BuildingBlock: AJUNOK_clean_linker_0, # of connection points: 2
#     Edge 77, Type (0, 0), BuildingBlock: AJUNOK_clean_linker_0, # of connection points: 2
#     Edge 78, Type (0, 0), BuildingBlock: AJUNOK_clean_linker_0, # of connection points: 2
#     Edge 79, Type (0, 0), BuildingBlock: AJUNOK_clean_linker_0, # of connection points: 2
#     Edge 80, Type (0, 0), BuildingBlock: AJUNOK_clean_linker_0, # of connection points: 2
#     Edge 81, Type (0, 0), BuildingBlock: AJUNOK_clean_linker_0, # of connection points: 2
#     Edge 82, Type (0, 0), BuildingBlock: AJUNOK_clean_linker_0, # of connection points: 2
#     Edge 83, Type (0, 0), BuildingBlock: AJUNOK_clean_linker_0, # of connection points: 2
# Relax obj value: 0.939
# Max RMSD: 0.237
# Mean RMSD: 0.237
data_MOF--net-fce--node1-BEQFEK_clean_sbu_0--edge1-AJUNOK_clean_linker_0
_symmetry_space_group_name_H-M    P1
_symmetry_Int_Tables_number       1
_symmetry_cell_setting            triclinic
loop_
_symmetry_equiv_pos_as_xyz
'x, y, z'
_cell_length_a     36.916576
_cell_length_b     36.929652
_cell_length_c     36.944225
_cell_angle_alpha  90.000235
_cell_angle_beta   89.962465
_cell_angle_gamma 90.009489
loop_
_atom_site_label
_atom_site_type_symbol
_atom_site_fract_x
_atom_site_fract_y
_atom_site_fract_z
_atom_type_partial_charge
Co0 Co 0.10938 0.43564 0.22582 0.0
Co1 Co 0.16221 0.39888 0.28218 0.0
C2 C 0.14287 0.47734 0.28674 0.0
O3 O 0.12366 0.4762 0.25805 0.0
O4 O 0.15771 0.44913 0.29988 0.0
C5 C 0.06725 0.4826 0.18 0.0
O6 O 0.09032 0.50755 0.19054 0.0
C7 C 0.17388 0.3734 0.35421 0.0
C8 C 0.21001 0.32626 0.34716 0.0
C9 C 0.18917 0.34453 0.37253 0.0
N10 N 0.18488 0.37215 0.31964 0.0
N11 N 0.20724 0.34449 0.31565 0.0
C12 C 0.14446 0.39808 0.3675 0.0
H13 H 0.15692 0.42336 0.3779 0.0
H14 H 0.12591 0.40539 0.34509 0.0
H15 H 0.12858 0.3854 0.38964 0.0
C16 C 0.05751 0.38419 0.25795 0.0
N17 N 0.0912 0.39762 0.25396 0.0
N18 N 0.11409 0.37881 0.27379 0.0
C19 C 0.09526 0.35194 0.2903 0.0
C20 C 0.05889 0.35467 0.28099 0.0
C21 C 0.02419 0.40123 0.2425 0.0
H22 H 0.01957 0.38989 0.21514 0.0
H23 H 0.02767 0.43097 0.24031 0.0
H24 H 4e-05 0.39525 0.25938 0.0
O25 O 0.15218 0.41603 0.2015 0.0
O26 O 0.19544 0.40713 0.23991 0.0
H27 H 0.13942 0.31749 0.30606 0.0
H28 H 0.095 0.29816 0.31269 0.0
C29 C 0.11121 0.32344 0.31424 0.0
H30 H 0.1106 0.33277 0.34273 0.0
H31 H 0.21833 0.33646 0.29093 0.0
O32 O 0.07185 0.45027 0.19064 0.0
C33 C 0.18318 0.42506 0.21321 0.0
Co34 Co 0.57765 0.1203 0.23436 0.0
Co35 Co 0.60524 0.15804 0.30456 0.0
C36 C 0.52756 0.14366 0.2949 0.0
O37 O 0.53298 0.13326 0.26243 0.0
O38 O 0.55394 0.15036 0.31599 0.0
C39 C 0.53167 0.08578 0.18479 0.0
O40 O 0.5077 0.11042 0.19364 0.0
C41 C 0.62242 0.15511 0.38 0.0
C42 C 0.66747 0.19411 0.38545 0.0
C43 C 0.64813 0.1678 0.4041 0.0
N44 N 0.62679 0.17267 0.34848 0.0
N45 N 0.6531 0.19663 0.35206 0.0
C46 C 0.59793 0.12302 0.38462 0.0
H47 H 0.59326 0.10937 0.35833 0.0
H48 H 0.60938 0.10326 0.40414 0.0
H49 H 0.57132 0.13244 0.39496 0.0
C50 C 0.6235 0.05936 0.26357 0.0
N51 N 0.61056 0.09367 0.26334 0.0
N52 N 0.62648 0.11231 0.28927 0.0
C53 C 0.65051 0.0904 0.30613 0.0
C54 C 0.64859 0.05598 0.29125 0.0
C55 C 0.61131 0.02949 0.23912 0.0
H56 H 0.59621 0.04004 0.21566 0.0
H57 H 0.59403 0.01043 0.25461 0.0
H58 H 0.63506 0.01398 0.22921 0.0
O59 O 0.60355 0.16478 0.22273 0.0
O60 O 0.60073 0.19966 0.26944 0.0
H61 H 0.70232 0.08623 0.33229 0.0
H62 H 0.66563 0.09661 0.3619 0.0
C63 C 0.67685 0.10204 0.33466 0.0
H64 H 0.68319 0.13121 0.33188 0.0
H65 H 0.66282 0.21286 0.33106 0.0
O66 O 0.56484 0.09266 0.19044 0.0
C67 C 0.59109 0.19336 0.23703 0.0
Co68 Co 0.88378 0.57489 0.22816 0.0
Co69 Co 0.83636 0.6082 0.28952 0.0
C70 C 0.85428 0.5307 0.2904 0.0
O71 O 0.86906 0.53311 0.25923 0.0
O72 O 0.84385 0.55877 0.30751 0.0
C73 C 0.92218 0.52773 0.17945 0.0
O74 O 0.89772 0.50361 0.1887 0.0
C75 C 0.82232 0.63309 0.36213 0.0
C76 C 0.78717 0.68075 0.35384 0.0
C77 C 0.80614 0.66168 0.37998 0.0
N78 N 0.81345 0.63501 0.32695 0.0
N79 N 0.79172 0.66306 0.32222 0.0
C80 C 0.85049 0.60806 0.37722 0.0
H81 H 0.83684 0.58413 0.38907 0.0
H82 H 0.86938 0.59899 0.35573 0.0
H83 H 0.86622 0.6214 0.39907 0.0
C84 C 0.93785 0.62614 0.25678 0.0
N85 N 0.90419 0.61214 0.25578 0.0
N86 N 0.88323 0.62952 0.27872 0.0
C87 C 0.90328 0.65573 0.29487 0.0
C88 C 0.9386 0.65425 0.28161 0.0
C89 C 0.9687 0.61258 0.23431 0.0
H90 H 0.96232 0.61743 0.2054 0.0
H91 H 0.97183 0.58296 0.23834 0.0
H92 H 0.99449 0.62651 0.24085 0.0
O93 O 0.84087 0.59536 0.20584 0.0
O94 O 0.80135 0.5959 0.24934 0.0
H95 H 0.86182 0.68764 0.3202 0.0
H96 H 0.90699 0.70407 0.32794 0.0
C97 C 0.89021 0.67942 0.32506 0.0
H98 H 0.89206 0.66443 0.35092 0.0
H99 H 0.78206 0.67156 0.29706 0.0
O100 O 0.91929 0.55973 0.19159 0.0
C101 C 0.81084 0.58438 0.21827 0.0
Co102 Co 0.44844 0.8855 0.2346 0.0
Co103 Co 0.40784 0.8335 0.28761 0.0
C104 C 0.48641 0.84125 0.29268 0.0
O105 O 0.48618 0.86074 0.26425 0.0
O106 O 0.45703 0.83171 0.30795 0.0
C107 C 0.50092 0.93632 0.21475 0.0
O108 O 0.51901 0.91967 0.24038 0.0
C109 C 0.37787 0.81694 0.35718 0.0
C110 C 0.32779 0.78691 0.34438 0.0
C111 C 0.34643 0.80343 0.37251 0.0
N112 N 0.3775 0.80949 0.3216 0.0
N113 N 0.34804 0.79058 0.31419 0.0
C114 C 0.40469 0.84197 0.37464 0.0
H115 H 0.42706 0.82566 0.38627 0.0
H116 H 0.4162 0.86097 0.35448 0.0
H117 H 0.39213 0.85784 0.39683 0.0
C118 C 0.40011 0.94012 0.2671 0.0
N119 N 0.41217 0.90587 0.26355 0.0
N120 N 0.39208 0.88394 0.28318 0.0
C121 C 0.36631 0.90416 0.29998 0.0
C122 C 0.37113 0.94047 0.29089 0.0
C123 C 0.41494 0.97183 0.24668 0.0
H124 H 0.41638 0.96526 0.21744 0.0
H125 H 0.44266 0.97759 0.25643 0.0
H126 H 0.39793 0.99634 0.25028 0.0
O127 O 0.4237 0.84925 0.20584 0.0
O128 O 0.41727 0.80369 0.24213 0.0
H129 H 0.32962 0.86228 0.31661 0.0
H130 H 0.31392 0.9072 0.32616 0.0
C131 C 0.33817 0.88962 0.32528 0.0
H132 H 0.34933 0.88855 0.35306 0.0
H133 H 0.3403 0.78282 0.28814 0.0
O134 O 0.47027 0.92421 0.20517 0.0
C135 C 0.43211 0.81703 0.21393 0.0
Co136 Co 0.10972 0.55952 0.76144 0.0
Co137 Co 0.15964 0.58877 0.70109 0.0
C138 C 0.13687 0.5138 0.69878 0.0
O139 O 0.12306 0.51727 0.73027 0.0
O140 O 0.14774 0.54119 0.68086 0.0
C141 C 0.06807 0.51393 0.80822 0.0
O142 O 0.09062 0.48863 0.79738 0.0
C143 C 0.17622 0.61519 0.62973 0.0
C144 C 0.21447 0.65992 0.64015 0.0
C145 C 0.19355 0.64408 0.61325 0.0
N146 N 0.18582 0.61443 0.66481 0.0
N147 N 0.20952 0.64058 0.67071 0.0
C148 C 0.14651 0.59234 0.61407 0.0
H149 H 0.12546 0.58691 0.63478 0.0
H150 H 0.13363 0.60546 0.59035 0.0
H151 H 0.15808 0.56601 0.60538 0.0
C152 C 0.05979 0.61427 0.73277 0.0
N153 N 0.09246 0.59823 0.73412 0.0
N154 N 0.1147 0.61412 0.71135 0.0
C155 C 0.09653 0.64166 0.69514 0.0
C156 C 0.06107 0.64231 0.708 0.0
C157 C 0.02789 0.60271 0.75485 0.0
H158 H 0.03403 0.60813 0.78369 0.0
H159 H 0.02338 0.57318 0.75155 0.0
H160 H 0.00293 0.61769 0.74748 0.0
O161 O 0.15275 0.57587 0.78665 0.0
O162 O 0.19134 0.57045 0.7423 0.0
H163 H 0.14055 0.67076 0.67082 0.0
H164 H 0.09695 0.69161 0.66469 0.0
C165 C 0.11149 0.66541 0.66593 0.0
H166 H 0.10795 0.65202 0.63935 0.0
H167 H 0.21996 0.64707 0.69614 0.0
O168 O 0.07248 0.54598 0.79681 0.0
C169 C 0.18245 0.56341 0.77493 0.0
Co170 Co 0.4306 0.12552 0.76441 0.0
Co171 Co 0.39962 0.17728 0.70452 0.0
C172 C 0.47784 0.16026 0.70696 0.0
O173 O 0.47356 0.14238 0.73624 0.0
O174 O 0.45079 0.17274 0.68949 0.0
C175 C 0.47601 0.08284 0.81027 0.0
O176 O 0.50083 0.10618 0.80025 0.0
C177 C 0.37712 0.19404 0.63186 0.0
C178 C 0.32788 0.22697 0.64027 0.0
C179 C 0.348 0.2094 0.61386 0.0
N180 N 0.37407 0.20175 0.66722 0.0
N181 N 0.34517 0.22231 0.67204 0.0
C182 C 0.40402 0.16747 0.617 0.0
H183 H 0.41114 0.14705 0.63781 0.0
H184 H 0.39341 0.15343 0.59267 0.0
H185 H 0.4291 0.1822 0.60942 0.0
C186 C 0.38273 0.073 0.72916 0.0
N187 N 0.39577 0.10676 0.73312 0.0
N188 N 0.37911 0.12892 0.71075 0.0
C189 C 0.35414 0.1094 0.69212 0.0
C190 C 0.35598 0.07334 0.70301 0.0
C191 C 0.39564 0.04104 0.75038 0.0
H192 H 0.38831 0.04515 0.77919 0.0
H193 H 0.42557 0.03908 0.74844 0.0
H194 H 0.38317 0.01538 0.74099 0.0
O195 O 0.40745 0.16679 0.78746 0.0
O196 O 0.40638 0.20989 0.74798 0.0
H197 H 0.32173 0.15183 0.66925 0.0
H198 H 0.30616 0.10688 0.65866 0.0
C199 C 0.3305 0.12397 0.66264 0.0
H200 H 0.34567 0.12397 0.63679 0.0
H201 H 0.3357 0.23068 0.69729 0.0
O202 O 0.44369 0.08762 0.7997 0.0
C203 C 0.41891 0.19756 0.7776 0.0
Co204 Co 0.87932 0.43209 0.76142 0.0
Co205 Co 0.829 0.40069 0.70122 0.0
C206 C 0.85098 0.47773 0.70009 0.0
O207 O 0.86658 0.47477 0.73077 0.0
O208 O 0.83824 0.45018 0.68373 0.0
C209 C 0.92281 0.4769 0.80653 0.0
O210 O 0.9036 0.50298 0.79185 0.0
C211 C 0.81659 0.37687 0.62842 0.0
C212 C 0.7778 0.33176 0.63459 0.0
C213 C 0.79957 0.3494 0.60959 0.0
N214 N 0.80558 0.3756 0.66302 0.0
N215 N 0.78174 0.34911 0.66648 0.0
C216 C 0.84746 0.39981 0.61528 0.0
H217 H 0.83645 0.42492 0.60317 0.0
H218 H 0.86569 0.40718 0.63793 0.0
H219 H 0.86337 0.38556 0.59414 0.0
C220 C 0.93105 0.38001 0.73033 0.0
N221 N 0.89775 0.3946 0.73289 0.0
N222 N 0.87536 0.37746 0.71115 0.0
C223 C 0.8941 0.35049 0.6946 0.0
C224 C 0.93007 0.35157 0.70594 0.0
C225 C 0.96316 0.39311 0.75115 0.0
H226 H 0.95929 0.38568 0.77995 0.0
H227 H 0.965 0.42304 0.74922 0.0
H228 H 0.98877 0.38069 0.74155 0.0
O229 O 0.83555 0.41271 0.78336 0.0
O230 O 0.79436 0.41343 0.74191 0.0
H231 H 0.84995 0.32044 0.67153 0.0
H232 H 0.89346 0.29937 0.66619 0.0
C233 C 0.879 0.32562 0.6664 0.0
H234 H 0.88268 0.33784 0.63929 0.0
H235 H 0.77016 0.34127 0.69105 0.0
O236 O 0.91543 0.44437 0.79845 0.0
C237 C 0.806 0.42576 0.77191 0.0
Co238 Co 0.56856 0.89685 0.76557 0.0
Co239 Co 0.599 0.84696 0.70552 0.0
C240 C 0.52627 0.87408 0.69839 0.0
O241 O 0.52883 0.88727 0.7302 0.0
O242 O 0.55399 0.862 0.68185 0.0
C243 C 0.52256 0.93772 0.8138 0.0
O244 O 0.49939 0.91106 0.80957 0.0
C245 C 0.62523 0.82241 0.63584 0.0
C246 C 0.66792 0.78307 0.65005 0.0
C247 C 0.65161 0.80037 0.62103 0.0
N248 N 0.62546 0.81812 0.67193 0.0
N249 N 0.65061 0.79403 0.6803 0.0
C250 C 0.60337 0.85058 0.61646 0.0
H251 H 0.57584 0.83968 0.61136 0.0
H252 H 0.60075 0.87523 0.63338 0.0
H253 H 0.61575 0.85804 0.59012 0.0
C254 C 0.63051 0.94224 0.74411 0.0
N255 N 0.61191 0.91089 0.74294 0.0
N256 N 0.62645 0.88926 0.71877 0.0
C257 C 0.65519 0.90646 0.70374 0.0
C258 C 0.65866 0.94074 0.71927 0.0
C259 C 0.6186 0.97457 0.76542 0.0
H260 H 0.62122 0.96823 0.79463 0.0
H261 H 0.58972 0.98039 0.75957 0.0
H262 H 0.6348 0.99906 0.75923 0.0
O263 O 0.57455 0.85189 0.79252 0.0
O264 O 0.57618 0.81641 0.74471 0.0
H265 H 0.68448 0.86259 0.67954 0.0
H266 H 0.70351 0.90689 0.67075 0.0
C267 C 0.67798 0.89131 0.67385 0.0
H268 H 0.66279 0.89261 0.64804 0.0
H269 H 0.65722 0.7866 0.70668 0.0
O270 O 0.55327 0.93576 0.79851 0.0
C271 C 0.56594 0.82231 0.77716 0.0
Co272 Co 0.24145 0.12122 0.42958 0.0
Co273 Co 0.29713 0.17282 0.39398 0.0
C274 C 0.29791 0.16059 0.47312 0.0
O275 O 0.26856 0.14231 0.4715 0.0
O276 O 0.31404 0.17119 0.44452 0.0
C277 C 0.19381 0.08063 0.47558 0.0
O278 O 0.20371 0.10333 0.50112 0.0
C279 C 0.36915 0.1854 0.36872 0.0
C280 C 0.36155 0.21781 0.31909 0.0
C281 C 0.38721 0.19877 0.33882 0.0
N282 N 0.33432 0.19559 0.36671 0.0
N283 N 0.33002 0.21581 0.3375 0.0
C284 C 0.38325 0.15776 0.39495 0.0
H285 H 0.36098 0.14081 0.40572 0.0
H286 H 0.40367 0.13989 0.38202 0.0
H287 H 0.39657 0.17198 0.41777 0.0
C288 C 0.2793 0.06621 0.38581 0.0
N289 N 0.27334 0.1005 0.3967 0.0
N290 N 0.29229 0.12307 0.37671 0.0
C291 C 0.31048 0.10337 0.35164 0.0
C292 C 0.30323 0.06679 0.35695 0.0
C293 C 0.26343 0.03348 0.40363 0.0
H294 H 0.23714 0.02717 0.3906 0.0
H295 H 0.25868 0.0387 0.43282 0.0
H296 H 0.28149 0.00966 0.40043 0.0
O297 O 0.21741 0.15848 0.40153 0.0
O298 O 0.25292 0.20465 0.40226 0.0
H299 H 0.32291 0.14596 0.31399 0.0
H300 H 0.33205 0.10077 0.29758 0.0
C301 C 0.33292 0.11876 0.32165 0.0
H302 H 0.36153 0.12062 0.33038 0.0
H303 H 0.30508 0.22562 0.32854 0.0
O304 O 0.20625 0.08474 0.44391 0.0
C305 C 0.22314 0.19041 0.41219 0.0
Co306 Co 0.87441 0.23521 0.42427 0.0
Co307 Co 0.82916 0.29791 0.39135 0.0
C308 C 0.84685 0.29762 0.4691 0.0
O309 O 0.8604 0.26586 0.46671 0.0
O310 O 0.83723 0.31514 0.44101 0.0
C311 C 0.90967 0.18175 0.46893 0.0
O312 O 0.88535 0.1903 0.49347 0.0
C313 C 0.81961 0.37102 0.36698 0.0
C314 C 0.78245 0.36572 0.32044 0.0
C315 C 0.80393 0.39026 0.33902 0.0
N316 N 0.80805 0.33664 0.36515 0.0
N317 N 0.78522 0.33368 0.33776 0.0
C318 C 0.84971 0.38358 0.39117 0.0
H319 H 0.86716 0.36058 0.39931 0.0
H320 H 0.8666 0.4044 0.37757 0.0
H321 H 0.83789 0.39596 0.41578 0.0
C322 C 0.93049 0.26425 0.37544 0.0
N323 N 0.89642 0.26323 0.38837 0.0
N324 N 0.87595 0.28602 0.37026 0.0
C325 C 0.89667 0.30174 0.3443 0.0
C326 C 0.93196 0.28866 0.347 0.0
C327 C 0.96088 0.24181 0.38996 0.0
H328 H 0.95605 0.21329 0.38207 0.0
H329 H 0.96121 0.24327 0.41996 0.0
H330 H 0.98752 0.25031 0.37898 0.0
O331 O 0.83139 0.21514 0.40184 0.0
O332 O 0.79256 0.25896 0.40333 0.0
H333 H 0.85515 0.32703 0.31235 0.0
H334 H 0.89995 0.33089 0.29366 0.0
C335 C 0.88408 0.33087 0.31909 0.0
H336 H 0.88811 0.35764 0.33195 0.0
H337 H 0.77346 0.30935 0.32946 0.0
O338 O 0.90795 0.19655 0.43802 0.0
C339 C 0.80166 0.22739 0.41365 0.0
Co340 Co 0.76289 0.87314 0.43682 0.0
Co341 Co 0.71034 0.81993 0.3988 0.0
C342 C 0.70461 0.82986 0.47652 0.0
O343 O 0.73361 0.84828 0.47473 0.0
O344 O 0.68862 0.81949 0.44789 0.0
C345 C 0.77613 0.92268 0.48863 0.0
O346 O 0.74256 0.91293 0.49499 0.0
C347 C 0.64113 0.80172 0.3703 0.0
C348 C 0.65285 0.76942 0.32143 0.0
C349 C 0.62497 0.78588 0.34054 0.0
N350 N 0.67679 0.79493 0.36909 0.0
N351 N 0.68369 0.77487 0.34027 0.0
C352 C 0.6241 0.82831 0.39591 0.0
H353 H 0.61383 0.81351 0.41992 0.0
H354 H 0.6442 0.84863 0.40502 0.0
H355 H 0.601 0.84267 0.38318 0.0
C356 C 0.72901 0.92688 0.38904 0.0
N357 N 0.73331 0.8929 0.40142 0.0
N358 N 0.71445 0.87014 0.38151 0.0
C359 C 0.69782 0.88954 0.35508 0.0
C360 C 0.70623 0.92605 0.35934 0.0
C361 C 0.74688 0.95949 0.40515 0.0
H362 H 0.7765 0.95484 0.4068 0.0
H363 H 0.73657 0.96366 0.43305 0.0
H364 H 0.74168 0.98421 0.38888 0.0
O365 O 0.79157 0.83738 0.41135 0.0
O366 O 0.75633 0.79087 0.40939 0.0
H367 H 0.68252 0.84669 0.31889 0.0
H368 H 0.67319 0.89167 0.30224 0.0
C369 C 0.67344 0.87417 0.32665 0.0
H370 H 0.64536 0.87288 0.33718 0.0
H371 H 0.70963 0.76721 0.33209 0.0
O372 O 0.79217 0.91059 0.46082 0.0
C373 C 0.7847 0.80572 0.42237 0.0
Co374 Co 0.11394 0.76868 0.43532 0.0
Co375 Co 0.16363 0.71104 0.39853 0.0
C376 C 0.14598 0.70716 0.4771 0.0
O377 O 0.13002 0.73776 0.47621 0.0
O378 O 0.15655 0.69164 0.44813 0.0
C379 C 0.07147 0.81205 0.48255 0.0
O380 O 0.09141 0.79664 0.50764 0.0
C381 C 0.16655 0.63869 0.37007 0.0
C382 C 0.20954 0.64013 0.3286 0.0
C383 C 0.18271 0.61823 0.34321 0.0
N384 N 0.1824 0.67148 0.37092 0.0
N385 N 0.2084 0.67212 0.34631 0.0
C386 C 0.13599 0.62768 0.39442 0.0
H387 H 0.14624 0.62564 0.42255 0.0
H388 H 0.11453 0.64867 0.39411 0.0
H389 H 0.12439 0.60108 0.38672 0.0
C390 C 0.06065 0.73869 0.38389 0.0
N391 N 0.09395 0.74108 0.39854 0.0
N392 N 0.11738 0.72414 0.37788 0.0
C393 C 0.0998 0.712 0.34826 0.0
C394 C 0.06318 0.72005 0.35143 0.0
C395 C 0.02682 0.75232 0.40148 0.0
H396 H 0.01956 0.77868 0.38916 0.0
H397 H 0.03086 0.75594 0.431 0.0
H398 H 0.00402 0.73333 0.39665 0.0
O399 O 0.15604 0.79099 0.41243 0.0
O400 O 0.19903 0.75108 0.41099 0.0
H401 H 0.14547 0.70793 0.31261 0.0
H402 H 0.10172 0.70074 0.29109 0.0
C403 C 0.11802 0.69613 0.31591 0.0
H404 H 0.1209 0.66688 0.31987 0.0
H405 H 0.22436 0.69475 0.34063 0.0
O406 O 0.0781 0.80508 0.44965 0.0
C407 C 0.18703 0.78107 0.42321 0.0
Co408 Co 0.23708 0.89178 0.55695 0.0
Co409 Co 0.29671 0.84213 0.59065 0.0
C410 C 0.29427 0.85576 0.51143 0.0
O411 O 0.26463 0.87332 0.51423 0.0
O412 O 0.3115 0.84518 0.53938 0.0
C413 C 0.19341 0.93574 0.51154 0.0
O414 O 0.20907 0.91689 0.48579 0.0
C415 C 0.36997 0.83443 0.61445 0.0
C416 C 0.36565 0.79745 0.6612 0.0
C417 C 0.38942 0.82037 0.64318 0.0
N418 N 0.33613 0.82118 0.61589 0.0
N419 N 0.33388 0.79828 0.64325 0.0
C420 C 0.38142 0.86445 0.58962 0.0
H421 H 0.39609 0.85264 0.56621 0.0
H422 H 0.3576 0.87949 0.57932 0.0
H423 H 0.39993 0.88359 0.60355 0.0
C424 C 0.27166 0.94677 0.60306 0.0
N425 N 0.26828 0.91269 0.59056 0.0
N426 N 0.28889 0.89073 0.60955 0.0
C427 C 0.30544 0.91053 0.63564 0.0
C428 C 0.29522 0.94659 0.63216 0.0
C429 C 0.25419 0.97913 0.58618 0.0
H430 H 0.22696 0.98277 0.5983 0.0
H431 H 0.25126 0.97509 0.55658 0.0
H432 H 0.27023 0.00403 0.5913 0.0
O433 O 0.21543 0.85143 0.58304 0.0
O434 O 0.25426 0.80789 0.58528 0.0
H435 H 0.3223 0.86699 0.67044 0.0
H436 H 0.32619 0.91164 0.69 0.0
C437 C 0.32926 0.89559 0.66478 0.0
H438 H 0.35799 0.89762 0.65633 0.0
H439 H 0.30999 0.78552 0.65139 0.0
O440 O 0.20025 0.92792 0.54421 0.0
C441 C 0.22451 0.82003 0.57282 0.0
Co442 Co 0.10185 0.22941 0.55162 0.0
Co443 Co 0.15509 0.28452 0.58837 0.0
C444 C 0.13665 0.28931 0.50974 0.0
O445 O 0.11792 0.26026 0.51033 0.0
O446 O 0.14984 0.30282 0.53857 0.0
C447 C 0.05449 0.18893 0.50576 0.0
O448 O 0.07165 0.20608 0.47974 0.0
C449 C 0.16632 0.35629 0.61513 0.0
C450 C 0.20608 0.34922 0.65917 0.0
C451 C 0.18315 0.37436 0.64322 0.0
N452 N 0.17822 0.32196 0.61474 0.0
N453 N 0.20266 0.31799 0.64055 0.0
C454 C 0.13511 0.36973 0.5929 0.0
H455 H 0.14574 0.38613 0.57011 0.0
H456 H 0.11911 0.34691 0.58183 0.0
H457 H 0.11709 0.38735 0.60928 0.0
C458 C 0.05065 0.26203 0.60387 0.0
N459 N 0.08408 0.25778 0.58981 0.0
N460 N 0.10758 0.27631 0.60912 0.0
C461 C 0.08956 0.29219 0.63686 0.0
C462 C 0.05296 0.28388 0.63422 0.0
C463 C 0.01676 0.24766 0.58705 0.0
H464 H 0.01134 0.22035 0.59826 0.0
H465 H 0.01994 0.24565 0.55728 0.0
H466 H 0.99322 0.26523 0.59344 0.0
O467 O 0.14396 0.20399 0.57098 0.0
O468 O 0.18789 0.24213 0.57845 0.0
H469 H 0.13514 0.30611 0.67037 0.0
H470 H 0.0915 0.31032 0.69209 0.0
C471 C 0.10654 0.31416 0.66634 0.0
H472 H 0.10501 0.34329 0.65942 0.0
H473 H 0.21507 0.29345 0.64704 0.0
O474 O 0.06398 0.19432 0.53827 0.0
C475 C 0.17534 0.21459 0.56191 0.0
Co476 Co 0.77297 0.1157 0.58406 0.0
Co477 Co 0.70608 0.15958 0.6063 0.0
C478 C 0.69939 0.1202 0.54281 0.0
O479 O 0.73336 0.11494 0.5463 0.0
O480 O 0.68091 0.13277 0.56892 0.0
C481 C 0.78569 0.04805 0.56793 0.0
O482 O 0.75152 0.05051 0.57757 0.0
C483 C 0.63628 0.1887 0.62924 0.0
C484 C 0.65084 0.21581 0.68036 0.0
C485 C 0.62147 0.20421 0.66005 0.0
N486 N 0.67261 0.19012 0.63168 0.0
N487 N 0.68112 0.20758 0.66171 0.0
C488 C 0.61645 0.16834 0.60037 0.0
H489 H 0.62735 0.17647 0.57362 0.0
H490 H 0.62069 0.13888 0.604 0.0
H491 H 0.58697 0.17368 0.60066 0.0
C492 C 0.75917 0.07895 0.65395 0.0
N493 N 0.75522 0.10764 0.63159 0.0
N494 N 0.72465 0.12406 0.63917 0.0
C495 C 0.70709 0.10461 0.6647 0.0
C496 C 0.72802 0.07483 0.67449 0.0
C497 C 0.79027 0.05299 0.65332 0.0
H498 H 0.81346 0.06426 0.63793 0.0
H499 H 0.78145 0.02684 0.64157 0.0
H500 H 0.79895 0.04729 0.68151 0.0
O501 O 0.79463 0.16321 0.57862 0.0
O502 O 0.74069 0.1884 0.57403 0.0
H503 H 0.6638 0.13755 0.68384 0.0
H504 H 0.65883 0.09028 0.69486 0.0
C505 C 0.66796 0.10969 0.67379 0.0
H506 H 0.65143 0.10595 0.64906 0.0
H507 H 0.70757 0.21071 0.67122 0.0
O508 O 0.80532 0.0762 0.56884 0.0
C509 C 0.77386 0.1866 0.56425 0.0
Co510 Co 0.88343 0.77085 0.5663 0.0
Co511 Co 0.83264 0.71217 0.60038 0.0
C512 C 0.85126 0.71087 0.5219 0.0
O513 O 0.86848 0.74076 0.52413 0.0
O514 O 0.83841 0.69544 0.54994 0.0
C515 C 0.92668 0.81469 0.52049 0.0
O516 O 0.90737 0.79923 0.49494 0.0
C517 C 0.82166 0.63923 0.62406 0.0
C518 C 0.78441 0.64459 0.67056 0.0
C519 C 0.80566 0.61996 0.65182 0.0
N520 N 0.81053 0.67373 0.62617 0.0
N521 N 0.78763 0.67675 0.65353 0.0
C522 C 0.85173 0.62656 0.59986 0.0
H523 H 0.83989 0.61449 0.57508 0.0
H524 H 0.86939 0.64947 0.59186 0.0
H525 H 0.86838 0.60552 0.61339 0.0
C526 C 0.93695 0.73703 0.61476 0.0
N527 N 0.90302 0.74126 0.60212 0.0
N528 N 0.8805 0.72085 0.62073 0.0
C529 C 0.89977 0.70363 0.64674 0.0
C530 C 0.9361 0.71308 0.64358 0.0
C531 C 0.96987 0.75298 0.59736 0.0
H532 H 0.97498 0.78 0.6094 0.0
H533 H 0.96551 0.75616 0.56783 0.0
H534 H 0.99407 0.7358 0.60205 0.0
O535 O 0.84134 0.79288 0.58914 0.0
O536 O 0.79818 0.75387 0.59196 0.0
H537 H 0.9005 0.68027 0.70006 0.0
H538 H 0.88515 0.65061 0.66503 0.0
C539 C 0.88421 0.67893 0.67484 0.0
H540 H 0.85588 0.68657 0.68104 0.0
H541 H 0.77618 0.70114 0.66204 0.0
O542 O 0.91934 0.80766 0.55326 0.0
C543 C 0.8108 0.78253 0.57763 0.0
Co544 Co 0.43234 0.22928 0.12571 0.0
Co545 Co 0.40379 0.29212 0.17348 0.0
C546 C 0.47543 0.29777 0.14615 0.0
O547 O 0.47211 0.2655 0.13443 0.0
O548 O 0.44808 0.31542 0.15712 0.0
C549 C 0.4556 0.21763 0.05827 0.0
O550 O 0.44708 0.25216 0.05936 0.0
C551 C 0.3769 0.36315 0.1921 0.0
C552 C 0.33018 0.35119 0.22745 0.0
C553 C 0.34725 0.37891 0.20873 0.0
N554 N 0.37723 0.32764 0.20018 0.0
N555 N 0.34981 0.32081 0.22219 0.0
C556 C 0.40095 0.38038 0.16421 0.0
H557 H 0.42819 0.38467 0.17609 0.0
H558 H 0.40392 0.36235 0.14044 0.0
H559 H 0.39037 0.40683 0.1548 0.0
C560 C 0.36588 0.24537 0.08356 0.0
N561 N 0.38745 0.24982 0.11269 0.0
N562 N 0.37552 0.27719 0.132 0.0
C563 C 0.34693 0.29197 0.11433 0.0
C564 C 0.34038 0.2727 0.08271 0.0
C565 C 0.36882 0.21539 0.05654 0.0
H566 H 0.38386 0.19206 0.06791 0.0
H567 H 0.38245 0.22552 0.0319 0.0
H568 H 0.34132 0.20642 0.04831 0.0
O569 O 0.42668 0.20457 0.17168 0.0
O570 O 0.42835 0.25381 0.20512 0.0
H571 H 0.32073 0.32449 0.15424 0.0
H572 H 0.3026 0.32992 0.10944 0.0
C573 C 0.32783 0.32594 0.12523 0.0
H574 H 0.34563 0.34956 0.12043 0.0
H575 H 0.34268 0.29493 0.23106 0.0
O576 O 0.45088 0.19842 0.08633 0.0
C577 C 0.4395 0.22164 0.19866 0.0
Co578 Co 0.43378 0.76228 0.88424 0.0
Co579 Co 0.40099 0.70026 0.8375 0.0
C580 C 0.47938 0.70278 0.85033 0.0
O581 O 0.47629 0.73331 0.86622 0.0
O582 O 0.45155 0.68461 0.84134 0.0
C583 C 0.4833 0.80638 0.92311 0.0
O584 O 0.50685 0.79486 0.89912 0.0
C585 C 0.37799 0.62671 0.82849 0.0
C586 C 0.33016 0.63139 0.79298 0.0
C587 C 0.34906 0.60727 0.81474 0.0
N588 N 0.37572 0.66089 0.81629 0.0
N589 N 0.34776 0.66334 0.79413 0.0
C590 C 0.40382 0.61482 0.85749 0.0
H591 H 0.42803 0.60263 0.84454 0.0
H592 H 0.41262 0.63819 0.87411 0.0
H593 H 0.39142 0.59418 0.87545 0.0
C594 C 0.38445 0.73187 0.94019 0.0
N595 N 0.39862 0.73285 0.90651 0.0
N596 N 0.38136 0.7096 0.88571 0.0
C597 C 0.35535 0.69325 0.90593 0.0
C598 C 0.35689 0.70647 0.94114 0.0
C599 C 0.39594 0.7557 0.97085 0.0
H600 H 0.39945 0.7839 0.9613 0.0
H601 H 0.42208 0.74592 0.98164 0.0
H602 H 0.37571 0.75532 0.9931 0.0
O603 O 0.4086 0.78366 0.84353 0.0
O604 O 0.40817 0.74194 0.80252 0.0
H605 H 0.32316 0.66909 0.86401 0.0
H606 H 0.30492 0.6635 0.90869 0.0
C607 C 0.33025 0.66432 0.89268 0.0
H608 H 0.34335 0.63755 0.89576 0.0
H609 H 0.339 0.68743 0.78224 0.0
O610 O 0.45007 0.79901 0.91874 0.0
C611 C 0.41984 0.7726 0.81314 0.0
Co612 Co 0.234 0.42743 0.90234 0.0
Co613 Co 0.29533 0.39426 0.85511 0.0
C614 C 0.2964 0.4716 0.8743 0.0
O615 O 0.26505 0.4692 0.88855 0.0
O616 O 0.31378 0.44345 0.86463 0.0
C617 C 0.18853 0.47431 0.94302 0.0
O618 O 0.20383 0.49927 0.92286 0.0
C619 C 0.3687 0.37076 0.84898 0.0
C620 C 0.3682 0.32926 0.80599 0.0
C621 C 0.39042 0.34576 0.83144 0.0
N622 N 0.33535 0.36929 0.83459 0.0
N623 N 0.3352 0.3448 0.80852 0.0
C624 C 0.37776 0.39208 0.88233 0.0
H625 H 0.3534 0.39574 0.89948 0.0
H626 H 0.39921 0.37854 0.89843 0.0
H627 H 0.38747 0.41934 0.87425 0.0
C628 C 0.26147 0.37428 0.95525 0.0
N629 N 0.26079 0.38934 0.92206 0.0
N630 N 0.28215 0.3712 0.90018 0.0
C631 C 0.29629 0.34296 0.91876 0.0
C632 C 0.28387 0.34408 0.95438 0.0
C633 C 0.24404 0.39093 0.98782 0.0
H634 H 0.21567 0.38123 0.9897 0.0
H635 H 0.24379 0.42085 0.98525 0.0
H636 H 0.2585 0.38336 0.01303 0.0
O637 O 0.21172 0.40913 0.85818 0.0
O638 O 0.2563 0.4084 0.81941 0.0
H639 H 0.31512 0.31122 0.87373 0.0
H640 H 0.3174 0.28865 0.91715 0.0
C641 C 0.3209 0.3149 0.90293 0.0
H642 H 0.34947 0.32342 0.90631 0.0
H643 H 0.31227 0.33749 0.79372 0.0
O644 O 0.19652 0.44141 0.93743 0.0
C645 C 0.22475 0.4195 0.82815 0.0
Co646 Co 0.58075 0.22738 0.88174 0.0
Co647 Co 0.60505 0.29612 0.84236 0.0
C648 C 0.53506 0.29779 0.87014 0.0
O649 O 0.54006 0.26415 0.87649 0.0
O650 O 0.56149 0.31813 0.86163 0.0
C651 C 0.55376 0.21058 0.94531 0.0
O652 O 0.56321 0.24482 0.94718 0.0
C653 C 0.62977 0.3676 0.81751 0.0
C654 C 0.68188 0.35368 0.79167 0.0
C655 C 0.66058 0.38273 0.8022 0.0
N656 N 0.63277 0.33127 0.81612 0.0
N657 N 0.66362 0.32318 0.79985 0.0
C658 C 0.60034 0.38723 0.83749 0.0
H659 H 0.59581 0.37487 0.86437 0.0
H660 H 0.60665 0.41624 0.84168 0.0
H661 H 0.57485 0.38491 0.82178 0.0
C662 C 0.64545 0.24183 0.92682 0.0
N663 N 0.62432 0.24802 0.89773 0.0
N664 N 0.63334 0.27887 0.88275 0.0
C665 C 0.65898 0.29477 0.9035 0.0
C666 C 0.66785 0.27169 0.93232 0.0
C667 C 0.64428 0.20769 0.94867 0.0
H668 H 0.63545 0.1847 0.93146 0.0
H669 H 0.62465 0.21058 0.97118 0.0
H670 H 0.67132 0.20183 0.96044 0.0
O671 O 0.5873 0.20685 0.83409 0.0
O672 O 0.57973 0.25985 0.80862 0.0
H673 H 0.6924 0.33575 0.87981 0.0
H674 H 0.67786 0.34589 0.92549 0.0
C675 C 0.66965 0.33368 0.89934 0.0
H676 H 0.64667 0.34941 0.88861 0.0
H677 H 0.67341 0.29687 0.79673 0.0
O678 O 0.56178 0.19273 0.9172 0.0
C679 C 0.57194 0.22614 0.81022 0.0
Co680 Co 0.76999 0.57164 0.87107 0.0
Co681 Co 0.71128 0.60624 0.82132 0.0
C682 C 0.7087 0.52887 0.83473 0.0
O683 O 0.7388 0.53198 0.85112 0.0
O684 O 0.69137 0.55676 0.82457 0.0
C685 C 0.77731 0.52942 0.92636 0.0
O686 O 0.74246 0.53458 0.92136 0.0
C687 C 0.63915 0.63115 0.80856 0.0
C688 C 0.64584 0.6807 0.77583 0.0
C689 C 0.62038 0.66038 0.79459 0.0
N690 N 0.67407 0.63395 0.7987 0.0
N691 N 0.67786 0.6632 0.7784 0.0
C692 C 0.62561 0.60465 0.83626 0.0
H693 H 0.64725 0.59805 0.85595 0.0
H694 H 0.60191 0.61538 0.85128 0.0
H695 H 0.61736 0.57934 0.82238 0.0
C696 C 0.7417 0.62393 0.92453 0.0
N697 N 0.74273 0.60922 0.89115 0.0
N698 N 0.71969 0.62611 0.86985 0.0
C699 C 0.70316 0.6523 0.88973 0.0
C700 C 0.71618 0.65122 0.92498 0.0
C701 C 0.76478 0.61249 0.95583 0.0
H702 H 0.79231 0.60523 0.94634 0.0
H703 H 0.75238 0.58864 0.96921 0.0
H704 H 0.76681 0.63453 0.97617 0.0
O705 O 0.79603 0.59286 0.83071 0.0
O706 O 0.755 0.595 0.78881 0.0
H707 H 0.68021 0.68564 0.84811 0.0
H708 H 0.67297 0.70216 0.89334 0.0
C709 C 0.67441 0.67747 0.87631 0.0
H710 H 0.64769 0.66393 0.87777 0.0
H711 H 0.70266 0.67266 0.76867 0.0
O712 O 0.79978 0.54789 0.90818 0.0
C713 C 0.7846 0.58132 0.8005 0.0
Co714 Co 0.57066 0.76482 0.11052 0.0
Co715 Co 0.60261 0.70099 0.15519 0.0
C716 C 0.52479 0.70282 0.13819 0.0
O717 O 0.52791 0.73465 0.1251 0.0
O718 O 0.55262 0.68444 0.14686 0.0
C719 C 0.52297 0.81073 0.07279 0.0
O720 O 0.49996 0.80011 0.09768 0.0
C721 C 0.62501 0.62706 0.15668 0.0
C722 C 0.66939 0.62536 0.19665 0.0
C723 C 0.65154 0.60463 0.17084 0.0
N724 N 0.62719 0.65944 0.17314 0.0
N725 N 0.65332 0.65817 0.19752 0.0
C726 C 0.60193 0.62013 0.12397 0.0
H727 H 0.57527 0.60946 0.13284 0.0
H728 H 0.59698 0.64555 0.10887 0.0
H729 H 0.61477 0.60019 0.10552 0.0
C730 C 0.62032 0.73601 0.05458 0.0
N731 N 0.60631 0.73675 0.08827 0.0
N732 N 0.62425 0.71427 0.10921 0.0
C733 C 0.65102 0.69904 0.08934 0.0
C734 C 0.64887 0.71163 0.05393 0.0
C735 C 0.60542 0.75705 0.02338 0.0
H736 H 0.61279 0.78599 0.02661 0.0
H737 H 0.57557 0.75513 0.02342 0.0
H738 H 0.61593 0.74709 0.99707 0.0
O739 O 0.59421 0.78372 0.15354 0.0
O740 O 0.59115 0.73995 0.19246 0.0
H741 H 0.6847 0.68015 0.1329 0.0
H742 H 0.70528 0.67783 0.08851 0.0
C743 C 0.67968 0.67434 0.10391 0.0
H744 H 0.67121 0.64577 0.10084 0.0
H745 H 0.66166 0.68026 0.21303 0.0
O746 O 0.55618 0.80313 0.07672 0.0
C747 C 0.58184 0.7719 0.18321 0.0
Co748 Co 0.23491 0.56257 0.12336 0.0
Co749 Co 0.29525 0.596 0.17216 0.0
C750 C 0.29399 0.51732 0.15682 0.0
O751 O 0.26366 0.51998 0.14041 0.0
O752 O 0.31128 0.54535 0.16717 0.0
C753 C 0.18319 0.51803 0.08604 0.0
O754 O 0.19163 0.49357 0.11037 0.0
C755 C 0.36847 0.62046 0.18061 0.0
C756 C 0.36325 0.66823 0.21615 0.0
C757 C 0.38751 0.64974 0.19418 0.0
N758 N 0.33441 0.62192 0.19333 0.0
N759 N 0.33164 0.64994 0.2154 0.0
C760 C 0.3805 0.59509 0.15128 0.0
H761 H 0.39206 0.57041 0.16393 0.0
H762 H 0.35722 0.58688 0.13423 0.0
H763 H 0.40157 0.60759 0.13388 0.0
C764 C 0.26846 0.60984 0.06821 0.0
N765 N 0.26516 0.59722 0.10228 0.0
N766 N 0.28629 0.61579 0.1241 0.0
C767 C 0.30307 0.64174 0.10428 0.0
C768 C 0.29263 0.6386 0.06825 0.0
C769 C 0.25055 0.59307 0.03601 0.0
H770 H 0.22333 0.60529 0.03274 0.0
H771 H 0.24731 0.56349 0.04008 0.0
H772 H 0.26636 0.5981 0.01095 0.0
O773 O 0.21318 0.587 0.16465 0.0
O774 O 0.25354 0.58739 0.20695 0.0
H775 H 0.32046 0.67652 0.14755 0.0
H776 H 0.32563 0.69544 0.10282 0.0
C777 C 0.32765 0.67029 0.11915 0.0
H778 H 0.35609 0.66087 0.11761 0.0
H779 H 0.30749 0.65827 0.22751 0.0
O780 O 0.1976 0.54911 0.08813 0.0
C781 C 0.2232 0.5757 0.19539 0.0
Co782 Co 0.77419 0.41905 0.11243 0.0
Co783 Co 0.70659 0.39694 0.15287 0.0
C784 C 0.702 0.46405 0.12235 0.0
O785 O 0.73589 0.45941 0.11671 0.0
O786 O 0.68212 0.43746 0.13121 0.0
C787 C 0.78205 0.43657 0.04532 0.0
O788 O 0.74817 0.4273 0.05103 0.0
C789 C 0.63706 0.37232 0.18093 0.0
C790 C 0.64979 0.31496 0.19169 0.0
C791 C 0.62124 0.33893 0.18762 0.0
N792 N 0.67327 0.36808 0.18014 0.0
N793 N 0.68069 0.33396 0.18798 0.0
C794 C 0.61808 0.40596 0.16868 0.0
H795 H 0.63255 0.43002 0.17933 0.0
H796 H 0.61799 0.40703 0.1387 0.0
H797 H 0.5896 0.40685 0.17798 0.0
C798 C 0.76206 0.35048 0.07344 0.0
N799 N 0.75562 0.37276 0.10162 0.0
N800 N 0.72291 0.3676 0.11369 0.0
C801 C 0.70563 0.34464 0.09121 0.0
C802 C 0.72984 0.33235 0.06436 0.0
C803 C 0.79959 0.34423 0.05932 0.0
H804 H 0.81939 0.3472 0.08173 0.0
H805 H 0.80657 0.36503 0.03886 0.0
H806 H 0.80221 0.31674 0.04746 0.0
O807 O 0.79746 0.41802 0.15897 0.0
O808 O 0.74377 0.42535 0.18391 0.0
H809 H 0.65811 0.31487 0.10576 0.0
H810 H 0.6539 0.34031 0.06411 0.0
C811 C 0.66527 0.34052 0.09188 0.0
H812 H 0.65279 0.36319 0.10694 0.0
H813 H 0.7066 0.32275 0.18661 0.0
O814 O 0.80425 0.43506 0.07152 0.0
C815 C 0.77756 0.43331 0.18247 0.0
C816 C 0.99142 0.32078 0.35071 0.0
C817 C 0.96502 0.30338 0.32946 0.0
C818 C 0.02231 0.3363 0.3349 0.0
C819 C 0.0277 0.33524 0.29725 0.0
H820 H 0.9878 0.32296 0.37973 0.0
H821 H 0.04156 0.35017 0.35214 0.0
S822 S 0.96814 0.29054 0.23005 0.0
N823 N 0.94753 0.28384 0.2692 0.0
N824 N 0.00513 0.31397 0.23932 0.0
C825 C 0.00192 0.31732 0.27579 0.0
C826 C 0.97067 0.30115 0.29194 0.0
C827 C 0.69877 0.96663 0.30511 0.0
C828 C 0.68975 0.95775 0.34103 0.0
C829 C 0.68516 0.99831 0.28875 0.0
C830 C 0.66214 0.02193 0.30787 0.0
H831 H 0.71705 0.94945 0.28992 0.0
H832 H 0.6933 0.00475 0.26133 0.0
S833 S 0.62829 0.009 0.40153 0.0
N834 N 0.65524 0.974 0.39451 0.0
N835 N 0.62908 0.0328 0.3637 0.0
C836 C 0.65222 0.01262 0.34341 0.0
C837 C 0.66618 0.9807 0.36001 0.0
C838 C 0.0289 0.6665 0.32905 0.0
C839 C 0.03289 0.7043 0.33045 0.0
C840 C 0.99852 0.65063 0.31272 0.0
C841 C 0.97128 0.67201 0.29686 0.0
H842 H 0.04879 0.64912 0.3418 0.0
H843 H 0.99592 0.62141 0.31319 0.0
S844 S 0.9709 0.77215 0.29037 0.0
N845 N 0.00824 0.7627 0.31314 0.0
N846 N 0.9517 0.7328 0.2811 0.0
C847 C 0.97566 0.7098 0.29689 0.0
C848 C 0.00634 0.72598 0.31405 0.0
C849 C 0.31617 0.97825 0.30571 0.0
C850 C 0.35388 0.97293 0.30745 0.0
C851 C 0.29985 0.00875 0.32169 0.0
C852 C 0.32079 0.0353 0.33921 0.0
H853 H 0.2992 0.95887 0.29171 0.0
H854 H 0.2707 0.01175 0.32011 0.0
S855 S 0.42039 0.03389 0.35169 0.0
N856 N 0.4115 0.99647 0.32888 0.0
N857 N 0.38095 0.05406 0.35791 0.0
C858 C 0.35846 0.03047 0.34083 0.0
C859 C 0.37498 0.99926 0.32512 0.0
C860 C 0.97178 0.6581 0.65998 0.0
C861 C 0.96756 0.69588 0.6616 0.0
C862 C 0.00226 0.64118 0.67494 0.0
C863 C 0.02952 0.6614 0.69221 0.0
H864 H 0.95174 0.64156 0.64636 0.0
H865 H 0.00469 0.61201 0.67279 0.0
S866 S 0.03031 0.7608 0.7054 0.0
N867 N 0.99255 0.75294 0.68271 0.0
N868 N 0.04968 0.72092 0.71145 0.0
C869 C 0.02543 0.6991 0.69449 0.0
C870 C 0.99446 0.7164 0.67902 0.0
C871 C 0.36191 0.01585 0.6681 0.0
C872 C 0.33946 0.04127 0.68544 0.0
C873 C 0.34739 0.98487 0.65163 0.0
C874 C 0.30989 0.97841 0.6517 0.0
H875 H 0.39094 0.02007 0.66712 0.0
H876 H 0.36557 0.96623 0.6381 0.0
S877 S 0.2398 0.03548 0.69537 0.0
N878 N 0.27819 0.05706 0.70335 0.0
N879 N 0.25072 0.99911 0.67171 0.0
C880 C 0.28718 0.0034 0.66926 0.0
C881 C 0.30202 0.03481 0.6863 0.0
C882 C 0.98776 0.35429 0.67073 0.0
C883 C 0.96172 0.33337 0.6891 0.0
C884 C 0.01774 0.33809 0.65393 0.0
C885 C 0.0225 0.30035 0.65454 0.0
H886 H 0.98467 0.38342 0.66901 0.0
H887 H 0.03684 0.35513 0.63957 0.0
S888 S 0.96349 0.23375 0.7009 0.0
N889 N 0.9439 0.27321 0.7088 0.0
N890 N -0.00034 0.24259 0.67603 0.0
C891 C 0.99697 0.27915 0.67313 0.0
C892 C 0.96669 0.29571 0.6907 0.0
C893 C 0.70238 0.99182 0.73027 0.0
C894 C 0.68016 0.9722 0.70621 0.0
C895 C 0.71865 0.02472 0.71984 0.0
C896 C 0.713 0.03905 0.68509 0.0
H897 H 0.70629 0.98214 0.75767 0.0
H898 H 0.73495 0.03944 0.73926 0.0
S899 S 0.65831 0.99787 0.61171 0.0
N900 N 0.65413 0.96939 0.64592 0.0
N901 N 0.68503 0.03064 0.62623 0.0
C902 C 0.69183 0.01916 0.66051 0.0
C903 C 0.67535 0.98584 0.67107 0.0
C904 C 0.34813 0.302 0.02258 0.0
C905 C 0.32469 0.28796 0.04911 0.0
C906 C 0.33463 0.31916 0.99157 0.0
C907 C 0.29715 0.3227 0.9858 0.0
H908 H 0.37721 0.30061 0.02636 0.0
H909 H 0.35375 0.33086 0.97266 0.0
S910 S 0.22452 0.28795 0.04596 0.0
N911 N 0.26246 0.2772 0.06712 0.0
N912 N 0.23681 0.30866 0.00824 0.0
C913 C 0.27342 0.3077 0.01163 0.0
C914 C 0.28726 0.2905 0.04344 0.0
C915 C 0.3459 0.65808 0.03112 0.0
C916 C 0.30817 0.65778 0.03645 0.0
C917 C 0.3613 0.67439 0.00044 0.0
C918 C 0.33956 0.69101 0.97399 0.0
H919 H 0.36361 0.64483 0.05037 0.0
H920 H 0.39044 0.67339 0.99703 0.0
S921 S 0.23972 0.70089 0.97708 0.0
N922 N 0.24964 0.67758 0.01395 0.0
N923 N 0.2787 0.70873 0.9565 0.0
C924 C 0.30193 0.69193 0.97952 0.0
C925 C 0.2862 0.67514 0.01069 0.0
C926 C 0.67468 0.27308 0.00027 0.0
C927 C 0.68881 0.28095 0.96579 0.0
C928 C 0.69088 0.28653 0.03189 0.0
C929 C 0.72014 0.31107 0.03067 0.0
H930 H 0.64989 0.25783 0.00317 0.0
H931 H 0.67897 0.27883 0.05748 0.0
S932 S 0.77273 0.33251 0.94704 0.0
N933 N 0.73938 0.30653 0.93278 0.0
N934 N 0.76617 0.33731 0.99095 0.0
C935 C 0.73628 0.31672 0.99629 0.0
C936 C 0.72127 0.30063 0.96428 0.0
C937 C 0.68608 0.7184 0.99722 0.0
C938 C 0.66684 0.69616 0.0215 0.0
C939 C 0.702 0.70393 0.96575 0.0
C940 C 0.69911 0.66683 0.95774 0.0
H941 H 0.68879 0.7471 0.00263 0.0
H942 H 0.71677 0.72173 0.94771 0.0
S943 S 0.64969 0.59775 0.0112 0.0
N944 N 0.64427 0.63568 0.03423 0.0
N945 N 0.67468 0.60852 0.97571 0.0
C946 C 0.67976 0.64449 0.98163 0.0
C947 C 0.66349 0.65915 0.01339 0.0
C948 C 0.1816 0.52353 0.18766 0.0
C949 C 0.21238 0.53782 0.20518 0.0
C950 C 0.17306 0.4872 0.18904 0.0
C951 C 0.19365 0.4641 0.21002 0.0
H952 H 0.16474 0.54069 0.17087 0.0
H953 H 0.15037 0.4773 0.17341 0.0
S954 S 0.28004 0.48295 0.27358 0.0
N955 N 0.24329 0.48361 0.24461 0.0
N956 N 0.24552 0.4628 0.2523 0.0
C957 C 0.22529 0.481 0.23059 0.0
C958 C 0.23602 0.51764 0.22824 0.0
C959 C 0.49249 0.22619 0.24197 0.0
C960 C 0.47789 0.21352 0.20909 0.0
C961 C 0.52947 0.22139 0.25049 0.0
C962 C 0.55353 0.20418 0.22615 0.0
H963 H 0.4751 0.2395 0.2615 0.0
H964 H 0.53893 0.23025 0.27677 0.0
S965 S 0.53078 0.17212 0.13383 0.0
N966 N 0.49189 0.18612 0.1507 0.0
N967 N 0.56089 0.17916 0.16592 0.0
C968 C 0.53971 0.19364 0.19236 0.0
C969 C 0.50213 0.19756 0.18411 0.0
C970 C 0.77312 0.48765 0.22402 0.0
C971 C 0.78757 0.47117 0.19283 0.0
C972 C 0.77929 0.52462 0.2316 0.0
C973 C 0.79949 0.54686 0.20782 0.0
H974 H 0.75716 0.4718 0.24285 0.0
H975 H 0.76876 0.53555 0.25668 0.0
S976 S 0.83813 0.51852 0.11942 0.0
N977 N 0.82035 0.48125 0.13637 0.0
N978 N 0.83034 0.55024 0.14984 0.0
C979 C 0.81242 0.53105 0.17569 0.0
C980 C 0.807 0.49344 0.16845 0.0
C981 C 0.48488 0.77342 0.22074 0.0
C982 C 0.47004 0.805 0.20511 0.0
C983 C 0.52137 0.76354 0.21511 0.0
C984 C 0.54487 0.78501 0.1939 0.0
H985 H 0.46818 0.75605 0.23746 0.0
H986 H 0.53095 0.73848 0.22691 0.0
S987 S 0.52034 0.87111 0.14787 0.0
N988 N 0.48231 0.85729 0.16677 0.0
N989 N 0.55085 0.84051 0.15896 0.0
C990 C 0.53062 0.81714 0.17902 0.0
C991 C 0.49332 0.82651 0.18367 0.0
C992 C 0.23164 0.47269 0.7853 0.0
C993 C 0.21274 0.45563 0.81383 0.0
C994 C 0.22313 0.50816 0.77404 0.0
C995 C 0.19573 0.52857 0.79117 0.0
H996 H 0.25327 0.45855 0.77143 0.0
H997 H 0.2378 0.51938 0.75127 0.0
S998 S 0.13859 0.49719 0.86809 0.0
N999 N 0.16459 0.4622 0.85846 0.0
N1000 N 0.15096 0.52926 0.83965 0.0
C1001 C 0.17738 0.51219 0.82047 0.0
C1002 C 0.1851 0.47571 0.83101 0.0
C1003 C 0.51618 0.23401 0.77123 0.0
C1004 C 0.53389 0.21624 0.79998 0.0
C1005 C 0.47885 0.22908 0.76469 0.0
C1006 C 0.45741 0.20649 0.78694 0.0
H1007 H 0.5313 0.25204 0.75371 0.0
H1008 H 0.46692 0.24266 0.74162 0.0
S1009 S 0.48905 0.15785 0.86903 0.0
N1010 N 0.52588 0.17669 0.85222 0.0
N1011 N 0.45612 0.16951 0.84128 0.0
C1012 C 0.47447 0.18982 0.81661 0.0
C1013 C 0.5125 0.19394 0.82264 0.0
C1014 C 0.77303 0.52418 0.76383 0.0
C1015 C 0.79175 0.54201 0.79201 0.0
C1016 C 0.77656 0.48654 0.75809 0.0
C1017 C 0.7985 0.46479 0.78064 0.0
H1018 H 0.75541 0.53939 0.74601 0.0
H1019 H 0.76231 0.47457 0.73545 0.0
S1020 S 0.85103 0.49704 0.86011 0.0
N1021 N 0.83355 0.53413 0.84248 0.0
N1022 N 0.83657 0.46369 0.83425 0.0
C1023 C 0.81629 0.48205 0.80959 0.0
C1024 C 0.81409 0.52043 0.81443 0.0
C1025 C 0.47418 0.81224 0.82181 0.0
C1026 C 0.45769 0.78339 0.80307 0.0
C1027 C 0.51029 0.82198 0.81578 0.0
C1028 C 0.53174 0.8044 0.78958 0.0
H1029 H 0.45908 0.82768 0.84166 0.0
H1030 H 0.52086 0.84474 0.83091 0.0
S1031 S 0.50309 0.72517 0.73463 0.0
N1032 N 0.46682 0.73547 0.75869 0.0
N1033 N 0.53445 0.75483 0.7463 0.0
C1034 C 0.5161 0.77481 0.77116 0.0
C1035 C 0.47921 0.76432 0.77785 0.0
C1036 C 0.22683 0.22394 0.47206 0.0
C1037 C 0.20836 0.19998 0.44875 0.0
C1038 C 0.21644 0.22814 0.50855 0.0
C1039 C 0.18715 0.20853 0.52347 0.0
H1040 H 0.25027 0.23876 0.46248 0.0
H1041 H 0.23176 0.24675 0.52523 0.0
S1042 S 0.12867 0.14358 0.47327 0.0
N1043 N 0.15775 0.15831 0.44276 0.0
N1044 N 0.13965 0.1644 0.51122 0.0
C1045 C 0.16815 0.18494 0.50016 0.0
C1046 C 0.17822 0.18133 0.46294 0.0
C1047 C 0.76866 0.2307 0.5121 0.0
C1048 C 0.78218 0.19804 0.52639 0.0
C1049 C 0.77335 0.23963 0.47523 0.0
C1050 C 0.79101 0.21582 0.451 0.0
H1051 H 0.75474 0.24966 0.52963 0.0
H1052 H 0.7639 0.2658 0.46599 0.0
S1053 S 0.82532 0.1241 0.47327 0.0
N1054 N 0.81051 0.14018 0.5122 0.0
N1055 N 0.81787 0.15634 0.44336 0.0
C1056 C 0.80255 0.18222 0.46462 0.0
C1057 C 0.79864 0.17354 0.50209 0.0
C1058 C 0.78033 0.7659 0.51822 0.0
C1059 C 0.80293 0.78924 0.53838 0.0
C1060 C 0.7758 0.77017 0.48056 0.0
C1061 C 0.7938 0.79785 0.46125 0.0
H1062 H 0.76626 0.74385 0.53148 0.0
H1063 H 0.75762 0.75187 0.46663 0.0
S1064 S 0.85506 0.86707 0.50154 0.0
N1065 N 0.84154 0.84252 0.53629 0.0
N1066 N 0.83612 0.84832 0.46573 0.0
C1067 C 0.81697 0.8209 0.48116 0.0
C1068 C 0.82046 0.81739 0.51953 0.0
C1069 C 0.2328 0.78171 0.51637 0.0
C1070 C 0.21376 0.80897 0.53525 0.0
C1071 C 0.22507 0.77359 0.47989 0.0
C1072 C 0.19815 0.79255 0.46052 0.0
H1073 H 0.25411 0.76664 0.52971 0.0
H1074 H 0.24012 0.75201 0.46695 0.0
S1075 S 0.14031 0.86642 0.49727 0.0
N1076 N 0.16553 0.85374 0.53182 0.0
N1077 N 0.15337 0.84089 0.46307 0.0
C1078 C 0.17936 0.82024 0.479 0.0
C1079 C 0.18637 0.82763 0.51632 0.0
C1080 C 0.14825 0.28296 0.44337 0.0
C1081 C 0.14811 0.30485 0.4746 0.0
C1082 C 0.16288 0.29555 0.4107 0.0
C1083 C 0.17752 0.33056 0.40803 0.0
H1084 H 0.13772 0.25559 0.44428 0.0
H1085 H 0.1621 0.27802 0.38719 0.0
S1086 S 0.18408 0.39859 0.48135 0.0
N1087 N 0.16416 0.36339 0.50043 0.0
N1088 N 0.19163 0.38675 0.43892 0.0
C1089 C 0.17765 0.3527 0.43882 0.0
C1090 C 0.1629 0.33994 0.47211 0.0
C1091 C 0.69608 0.14265 0.44379 0.0
C1092 C 0.65938 0.151 0.43849 0.0
C1093 C 0.70826 0.12855 0.47669 0.0
C1094 C 0.68426 0.1229 0.50581 0.0
H1095 H 0.71575 0.1478 0.42261 0.0
H1096 H 0.7371 0.12442 0.47992 0.0
S1097 S 0.58458 0.13563 0.50369 0.0
N1098 N 0.59854 0.14962 0.46358 0.0
N1099 N 0.62128 0.12195 0.52525 0.0
C1100 C 0.64703 0.12844 0.49978 0.0
C1101 C 0.63464 0.14299 0.46623 0.0
C1102 C 0.84605 0.71858 0.45482 0.0
C1103 C 0.84131 0.69664 0.4857 0.0
C1104 C 0.83308 0.70777 0.42089 0.0
C1105 C 0.81552 0.67437 0.41651 0.0
H1106 H 0.85916 0.74474 0.45689 0.0
H1107 H 0.83753 0.72529 0.39779 0.0
S1108 S 0.79699 0.60623 0.48762 0.0
N1109 N 0.81792 0.63944 0.50901 0.0
N1110 N 0.79429 0.61914 0.44493 0.0
C1111 C 0.81093 0.65193 0.44672 0.0
C1112 C 0.82373 0.66301 0.48137 0.0
C1113 C 0.34027 0.82472 0.47244 0.0
C1114 C 0.30712 0.84351 0.47531 0.0
C1115 C 0.35213 0.81057 0.43934 0.0
C1116 C 0.3313 0.81445 0.40784 0.0
H1117 H 0.35735 0.82085 0.49595 0.0
H1118 H 0.37807 0.79687 0.43826 0.0
S1119 S 0.24286 0.86131 0.39994 0.0
N1120 N 0.25372 0.8651 0.4431 0.0
N1121 N 0.27628 0.83843 0.38101 0.0
C1122 C 0.29805 0.83275 0.41013 0.0
C1123 C 0.28599 0.84743 0.44378 0.0
C1124 C 0.17025 0.65559 0.514 0.0
C1125 C 0.15649 0.69118 0.51249 0.0
C1126 C 0.18305 0.64076 0.54652 0.0
C1127 C 0.18295 0.66106 0.57864 0.0
H1128 H 0.17123 0.63896 0.48987 0.0
H1129 H 0.19295 0.61314 0.54661 0.0
S1130 S 0.14972 0.75511 0.58998 0.0
N1131 N 0.14357 0.74619 0.54664 0.0
N1132 N 0.16771 0.71814 0.60747 0.0
C1133 C 0.1695 0.6966 0.57768 0.0
C1134 C 0.15614 0.71165 0.54472 0.0
C1135 C 0.30081 0.18353 0.5733 0.0
C1136 C 0.33508 0.19955 0.57741 0.0
C1137 C 0.28937 0.17029 0.53966 0.0
C1138 C 0.31169 0.17287 0.50881 0.0
H1139 H 0.28307 0.18036 0.59646 0.0
H1140 H 0.26268 0.15822 0.53787 0.0
S1141 S 0.40348 0.21429 0.5056 0.0
N1142 N 0.39075 0.21856 0.54823 0.0
N1143 N 0.36962 0.19378 0.48485 0.0
C1144 C 0.34589 0.18951 0.51266 0.0
C1145 C 0.35747 0.20285 0.54698 0.0
C1146 C 0.83658 0.28915 0.53559 0.0
C1147 C 0.83688 0.31223 0.50518 0.0
C1148 C 0.82305 0.30092 0.56904 0.0
C1149 C 0.80978 0.33627 0.57337 0.0
H1150 H 0.84611 0.26149 0.53346 0.0
H1151 H 0.82366 0.28247 0.59184 0.0
S1152 S 0.8046 0.40761 0.50317 0.0
N1153 N 0.82272 0.37251 0.48227 0.0
N1154 N 0.79736 0.39422 0.54517 0.0
C1155 C 0.80998 0.35967 0.54355 0.0
C1156 C 0.82361 0.34779 0.50948 0.0
C1157 C 0.71252 0.82607 0.54353 0.0
C1158 C 0.69073 0.81964 0.51282 0.0
C1159 C 0.70044 0.81757 0.57838 0.0
C1160 C 0.66587 0.80293 0.58393 0.0
H1161 H 0.73907 0.83826 0.54084 0.0
H1162 H 0.71765 0.82398 0.60125 0.0
S1163 S 0.59853 0.77944 0.51351 0.0
N1164 N 0.63326 0.796 0.49067 0.0
N1165 N 0.61027 0.78113 0.55662 0.0
C1166 C 0.644 0.79559 0.55379 0.0
C1167 C 0.65649 0.8037 0.51811 0.0
C1168 C 0.45313 0.18979 0.34849 0.0
C1169 C 0.4228 0.18609 0.32601 0.0
C1170 C 0.48646 0.17455 0.3389 0.0
C1171 C 0.49067 0.1547 0.30653 0.0
H1172 H 0.45101 0.20451 0.37378 0.0
H1173 H 0.50923 0.17902 0.35683 0.0
S1174 S 0.41782 0.13429 0.24028 0.0
N1175 N 0.39794 0.15971 0.27122 0.0
N1176 N 0.46037 0.1302 0.25335 0.0
C1177 C 0.46 0.14992 0.28438 0.0
C1178 C 0.42616 0.16597 0.29397 0.0
C1179 C 0.84374 0.46444 0.28093 0.0
C1180 C 0.84359 0.4946 0.30435 0.0
C1181 C 0.82948 0.43102 0.29186 0.0
C1182 C 0.81494 0.42649 0.32667 0.0
H1183 H 0.85417 0.46677 0.25362 0.0
H1184 H 0.83046 0.40842 0.27319 0.0
S1185 S 0.80783 0.49606 0.39846 0.0
N1186 N 0.82751 0.5171 0.36428 0.0
N1187 N 0.80065 0.45426 0.38439 0.0
C1188 C 0.81459 0.45607 0.35037 0.0
C1189 C 0.82902 0.4901 0.33936 0.0
C1190 C 0.58548 0.81383 0.29392 0.0
C1191 C 0.58871 0.79506 0.32676 0.0
C1192 C 0.55241 0.82914 0.28351 0.0
C1193 C 0.52129 0.82602 0.30547 0.0
H1194 H 0.60901 0.81802 0.27688 0.0
H1195 H 0.55139 0.84363 0.25803 0.0
S1196 S 0.5158 0.77727 0.3933 0.0
N1197 N 0.55838 0.77253 0.38047 0.0
N1198 N 0.49597 0.80111 0.36111 0.0
C1199 C 0.52412 0.80623 0.33795 0.0
C1200 C 0.55787 0.79073 0.3485 0.0
C1201 C 0.18605 0.51895 0.31782 0.0
C1202 C 0.15147 0.51276 0.30292 0.0
C1203 C 0.19606 0.55331 0.33051 0.0
C1204 C 0.17149 0.58226 0.32971 0.0
H1205 H 0.20587 0.49736 0.31877 0.0
H1206 H 0.2231 0.55719 0.34121 0.0
S1207 S 0.07738 0.57974 0.29414 0.0
N1208 N 0.09274 0.53823 0.2881 0.0
N1209 N 0.11093 0.60231 0.31316 0.0
C1210 C 0.13665 0.57619 0.31543 0.0
C1211 C 0.12678 0.54152 0.30175 0.0
C1212 C 0.45405 0.83858 0.63468 0.0
C1213 C 0.42387 0.83475 0.6575 0.0
C1214 C 0.48656 0.85333 0.64756 0.0
C1215 C 0.48998 0.86511 0.68368 0.0
H1216 H 0.45267 0.82959 0.6068 0.0
H1217 H 0.50944 0.85471 0.62924 0.0
S1218 S 0.41752 0.86277 0.75366 0.0
N1219 N 0.39851 0.84522 0.71725 0.0
N1220 N 0.45937 0.87295 0.7417 0.0
C1221 C 0.45941 0.86235 0.70646 0.0
C1222 C 0.42649 0.84699 0.69337 0.0
C1223 C 0.15567 0.47293 0.64826 0.0
C1224 C 0.14583 0.47727 0.68485 0.0
C1225 C 0.16847 0.43974 0.63517 0.0
C1226 C 0.17215 0.40972 0.65819 0.0
H1227 H 0.15387 0.49546 0.62957 0.0
H1228 H 0.17573 0.43759 0.60684 0.0
S1229 S 0.14991 0.40618 0.75597 0.0
N1230 N 0.14065 0.44819 0.74388 0.0
N1231 N 0.16449 0.38582 0.71895 0.0
C1232 C 0.1624 0.41345 0.69472 0.0
C1233 C 0.14912 0.44716 0.70809 0.0
C1234 C 0.5196 0.19409 0.66542 0.0
C1235 C 0.51493 0.17092 0.69543 0.0
C1236 C 0.554 0.20648 0.6552 0.0
C1237 C 0.58504 0.19612 0.67448 0.0
H1238 H 0.49653 0.20284 0.64958 0.0
H1239 H 0.55645 0.22368 0.63157 0.0
S1240 S 0.58812 0.13765 0.75603 0.0
N1241 N 0.54486 0.1393 0.745 0.0
N1242 N 0.6092 0.16288 0.72578 0.0
C1243 C 0.58086 0.17399 0.7051 0.0
C1244 C 0.54593 0.16114 0.71543 0.0
C1245 C 0.83095 0.57843 0.69842 0.0
C1246 C 0.81607 0.58345 0.66384 0.0
C1247 C 0.84405 0.54451 0.70921 0.0
C1248 C 0.84211 0.51427 0.68599 0.0
H1249 H 0.83301 0.60101 0.71704 0.0
H1250 H 0.8548 0.54183 0.73635 0.0
S1251 S 0.80567 0.51415 0.5922 0.0
N1252 N 0.8004 0.55626 0.60621 0.0
N1253 N 0.82461 0.49233 0.62628 0.0
C1254 C 0.82747 0.5193 0.65111 0.0
C1255 C 0.81446 0.55391 0.64013 0.0
C1256 C 0.35102 0.44597 0.2041 0.0
C1257 C 0.3313 0.41403 0.19847 0.0
C1258 C 0.33918 0.47898 0.18972 0.0
C1259 C 0.30725 0.48127 0.16884 0.0
H1260 H 0.37618 0.44525 0.21917 0.0
H1261 H 0.3553 0.50287 0.19515 0.0
S1262 S 0.2467 0.40435 0.14543 0.0
N1263 N 0.27877 0.38608 0.17061 0.0
N1264 N 0.25656 0.44788 0.1429 0.0
C1265 C 0.28735 0.44922 0.163 0.0
C1266 C 0.29927 0.4157 0.17811 0.0
C1267 C 0.35774 0.54251 0.83214 0.0
C1268 C 0.33502 0.57285 0.82946 0.0
C1269 C 0.34558 0.51038 0.84826 0.0
C1270 C 0.31025 0.50747 0.86252 0.0
H1271 H 0.3851 0.5436 0.82155 0.0
H1272 H 0.36389 0.48748 0.84898 0.0
S1273 S 0.24086 0.58048 0.86359 0.0
N1274 N 0.27623 0.59886 0.84336 0.0
N1275 N 0.25307 0.53865 0.8735 0.0
C1276 C 0.28751 0.5381 0.86052 0.0
C1277 C 0.2999 0.57067 0.84388 0.0
C1278 C 0.43513 0.29757 0.8467 0.0
C1279 C 0.4274 0.33445 0.84176 0.0
C1280 C 0.46951 0.28617 0.85794 0.0
C1281 C 0.49758 0.31121 0.86457 0.0
H1282 H 0.41441 0.27732 0.84199 0.0
H1283 H 0.47434 0.25738 0.86028 0.0
S1284 S 0.49106 0.41105 0.85463 0.0
N1285 N 0.4506 0.39599 0.84304 0.0
N1286 N 0.51479 0.37482 0.86565 0.0
C1287 C 0.48993 0.34828 0.86006 0.0
C1288 C 0.455 0.35982 0.84822 0.0
C1289 C 0.71679 0.46169 0.83453 0.0
C1290 C 0.69564 0.49205 0.82513 0.0
C1291 C 0.70587 0.42654 0.82567 0.0
C1292 C 0.67342 0.42028 0.80693 0.0
H1293 H 0.7421 0.46494 0.84893 0.0
H1294 H 0.72248 0.40401 0.8345 0.0
S1295 S 0.6101 0.48984 0.77219 0.0
N1296 N 0.64177 0.51321 0.79339 0.0
N1297 N 0.6217 0.44686 0.7764 0.0
C1298 C 0.65274 0.45016 0.79589 0.0
C1299 C 0.66369 0.48609 0.8051 0.0
C1300 C 0.54549 0.71433 0.83923 0.0
C1301 C 0.51548 0.69078 0.83702 0.0
C1302 C 0.579 0.70512 0.82381 0.0
C1303 C 0.58379 0.67198 0.80581 0.0
H1304 H 0.54309 0.74032 0.8526 0.0
H1305 H 0.60157 0.72363 0.82686 0.0
S1306 S 0.51437 0.60116 0.79101 0.0
N1307 N 0.49317 0.63289 0.81428 0.0
N1308 N 0.55612 0.6161 0.78537 0.0
C1309 C 0.55417 0.64845 0.80283 0.0
C1310 C 0.52008 0.65766 0.81849 0.0
C1311 C 0.71232 0.52969 0.13553 0.0
C1312 C 0.68787 0.50126 0.12828 0.0
C1313 C 0.70033 0.56289 0.14953 0.0
C1314 C 0.66342 0.56908 0.15657 0.0
H1315 H 0.74117 0.52585 0.1319 0.0
H1316 H 0.72016 0.5838 0.15506 0.0
S1317 S 0.58807 0.50461 0.14065 0.0
N1318 N 0.62459 0.48281 0.12687 0.0
N1319 N 0.60247 0.54436 0.15511 0.0
C1320 C 0.63859 0.54139 0.14862 0.0
C1321 C 0.65069 0.5078 0.13384 0.0
C1322 C 0.45303 0.6418 0.17968 0.0
C1323 C 0.42212 0.66387 0.17995 0.0
C1324 C 0.48568 0.65409 0.16469 0.0
C1325 C 0.48857 0.68884 0.14904 0.0
H1326 H 0.45202 0.61492 0.1914 0.0
H1327 H 0.50898 0.63631 0.16599 0.0
S1328 S 0.41369 0.75551 0.13999 0.0
N1329 N 0.3953 0.72096 0.16158 0.0
N1330 N 0.45633 0.74412 0.13291 0.0
C1331 C 0.45724 0.71066 0.14815 0.0
C1332 C 0.42416 0.69823 0.16385 0.0
C1333 C 0.54262 0.29615 0.13767 0.0
C1334 C 0.51219 0.31132 0.15488 0.0
C1335 C 0.57783 0.30471 0.14897 0.0
C1336 C 0.58387 0.32853 0.17805 0.0
H1337 H 0.53923 0.27715 0.11557 0.0
H1338 H 0.60049 0.29278 0.13467 0.0
S1339 S 0.51403 0.37278 0.23466 0.0
N1340 N 0.49081 0.34993 0.20407 0.0
N1341 N 0.55711 0.36525 0.22535 0.0
C1342 C 0.55394 0.34335 0.19596 0.0
C1343 C 0.51807 0.33502 0.18431 0.0
C1344 C 0.02249 0.53045 0.16429 0.0
C1345 C 0.03142 0.4935 0.16563 0.0
C1346 C 0.98632 0.54158 0.16371 0.0
C1347 C 0.9579 0.51616 0.16526 0.0
H1348 H 0.04325 0.55101 0.16698 0.0
H1349 H 0.98083 0.57028 0.16545 0.0
S1350 S 0.96738 0.41686 0.1538 0.0
N1351 N 0.0094 0.43197 0.15647 0.0
N1352 N 0.94119 0.45295 0.15717 0.0
C1353 C 0.96654 0.47946 0.16023 0.0
C1354 C 0.00348 0.4681 0.16006 0.0
C1355 C 0.5165 0.02348 0.16316 0.0
C1356 C 0.52135 0.04822 0.19157 0.0
C1357 C 0.50993 0.98674 0.17059 0.0
C1358 C 0.50963 0.97401 0.20646 0.0
H1359 H 0.51793 0.03252 0.13531 0.0
H1360 H 0.50564 0.96816 0.14831 0.0
S1361 S 0.51966 0.02871 0.28999 0.0
N1362 N 0.52349 0.05804 0.25653 0.0
N1363 N 0.51358 0.989 0.27043 0.0
C1364 C 0.51447 0.99865 0.23489 0.0
C1365 C 0.51965 0.03588 0.22742 0.0
C1366 C 0.02197 0.46735 0.82354 0.0
C1367 C 0.03267 0.50384 0.82392 0.0
C1368 C 0.98526 0.45812 0.82352 0.0
C1369 C 0.9584 0.48516 0.82276 0.0
H1370 H 0.04167 0.44598 0.81953 0.0
H1371 H 0.97823 0.42993 0.82022 0.0
S1372 S 0.97279 0.58275 0.84085 0.0
N1373 N 0.014 0.56565 0.83745 0.0
N1374 N 0.94477 0.54841 0.83488 0.0
C1375 C 0.96879 0.52091 0.83025 0.0
C1376 C 0.00618 0.53023 0.83139 0.0
C1377 C 0.47302 0.98212 0.82472 0.0
C1378 C 0.51005 0.97357 0.82644 0.0
C1379 C 0.46155 0.01823 0.82398 0.0
C1380 C 0.48678 0.04686 0.82428 0.0
H1381 H 0.45297 0.9611 0.82059 0.0
H1382 H 0.43302 0.02346 0.81998 0.0
S1383 S 0.58529 0.03836 0.84195 0.0
N1384 N 0.57066 0.99621 0.8389 0.0
N1385 N 0.54926 0.06417 0.83613 0.0
C1386 C 0.52317 0.03858 0.83169 0.0
C1387 C 0.53477 0.00181 0.83302 0.0
C1388 C 0.17549 0.99785 0.53032 0.0
C1389 C 0.17718 0.97121 0.50311 0.0
C1390 C 0.1761 0.0346 0.52135 0.0
C1391 C 0.17735 0.04547 0.48495 0.0
H1392 H 0.17779 0.99053 0.55857 0.0
H1393 H 0.17947 0.05415 0.54296 0.0
S1394 S 0.16385 0.98622 0.40491 0.0
N1395 N 0.16771 0.958 0.43936 0.0
N1396 N 0.16687 0.02728 0.42237 0.0
C1397 C 0.17086 0.01922 0.45805 0.0
C1398 C 0.17118 0.98183 0.46718 0.0
C1399 C 0.99235 0.17161 0.52545 0.0
C1400 C 0.01915 0.17186 0.49832 0.0
C1401 C 0.95564 0.16941 0.51638 0.0
C1402 C 0.94496 0.16659 0.48 0.0
H1403 H 0.99931 0.17698 0.55335 0.0
H1404 H 0.93581 0.17405 0.53751 0.0
S1405 S 0.00543 0.14852 0.40184 0.0
N1406 N 0.03322 0.15734 0.43573 0.0
N1407 N 0.96411 0.151 0.41887 0.0
C1408 C 0.97174 0.15897 0.45395 0.0
C1409 C 0.00904 0.16225 0.46305 0.0
C1410 C 0.78398 0.98195 0.56885 0.0
C1411 C 0.79848 0.01354 0.55354 0.0
C1412 C 0.78115 0.95042 0.54852 0.0
C1413 C 0.79247 0.94979 0.51229 0.0
H1414 H 0.77112 0.98263 0.59521 0.0
H1415 H 0.76665 0.92763 0.56006 0.0
S1416 S 0.841 0.02244 0.46323 0.0
N1417 N 0.83127 0.04024 0.50312 0.0
N1418 N 0.82551 0.98048 0.46433 0.0
C1419 C 0.81201 0.97929 0.49852 0.0
C1420 C 0.81513 0.01153 0.51945 0.0
C1421 C 0.98948 0.83065 0.5385 0.0
C1422 C 0.96242 0.83015 0.51168 0.0
C1423 C 0.02606 0.82941 0.52896 0.0
C1424 C 0.03647 0.82868 0.4924 0.0
H1425 H 0.98255 0.82792 0.56681 0.0
H1426 H 0.04582 0.82535 0.55025 0.0
S1427 S 0.97639 0.8453 0.41358 0.0
N1428 N 0.94856 0.84121 0.44834 0.0
N1429 N 0.01764 0.84096 0.43032 0.0
C1430 C 0.01001 0.83627 0.46601 0.0
C1431 C 0.9727 0.83655 0.4757 0.0
C1432 C 0.53262 0.18313 0.00246 0.0
C1433 C 0.52454 0.19869 0.96883 0.0
C1434 C 0.50755 0.18504 0.03089 0.0
C1435 C 0.47466 0.20368 0.02644 0.0
H1436 H 0.55946 0.17251 0.00774 0.0
H1437 H 0.51562 0.17541 0.05729 0.0
S1438 S 0.43923 0.24349 0.94149 0.0
N1439 N 0.47983 0.22809 0.93081 0.0
N1440 N 0.43338 0.23325 0.98459 0.0
C1441 C 0.46506 0.21597 0.99185 0.0
C1442 C 0.49002 0.21312 0.96285 0.0
C1443 C 0.50946 0.84322 0.01498 0.0
C1444 C 0.51036 0.81119 0.03546 0.0
C1445 C 0.5011 0.84204 0.97787 0.0
C1446 C 0.49499 0.80869 0.96067 0.0
H1447 H 0.51528 0.86903 0.02764 0.0
H1448 H 0.49952 0.86705 0.96263 0.0
S1449 S 0.4968 0.7175 0.00237 0.0
N1450 N 0.50456 0.74567 0.03619 0.0
N1451 N 0.49211 0.74321 0.9661 0.0
C1452 C 0.4968 0.77665 0.98084 0.0
C1453 C 0.5036 0.77797 0.01848 0.0
C1454 C 0.16941 0.45876 0.00569 0.0
C1455 C 0.17145 0.48451 0.97767 0.0
C1456 C 0.16802 0.4697 0.04187 0.0
C1457 C 0.16808 0.50667 0.05085 0.0
H1458 H 0.17286 0.43021 9e-05 0.0
H1459 H 0.17098 0.44919 0.06263 0.0
S1460 S 0.15606 0.58322 0.98693 0.0
N1461 N 0.16156 0.54738 0.96077 0.0
N1462 N 0.15764 0.568 0.02894 0.0
C1463 C 0.16245 0.53201 0.02296 0.0
C1464 C 0.16448 0.52089 0.98614 0.0
C1465 C 0.81372 0.48407 0.00939 0.0
C1466 C 0.79117 0.45336 0.01063 0.0
C1467 C 0.81234 0.5077 0.97965 0.0
C1468 C 0.78859 0.50067 0.95084 0.0
H1469 H 0.82956 0.4918 0.03283 0.0
H1470 H 0.82713 0.53302 0.98079 0.0
S1471 S 0.73016 0.42028 0.93807 0.0
N1472 N 0.74896 0.41459 0.97818 0.0
N1473 N 0.74716 0.45845 0.92232 0.0
C1474 C 0.76957 0.46793 0.94996 0.0
C1475 C 0.7707 0.44426 0.97997 0.0
loop_
_geom_bond_atom_site_label_1
_geom_bond_atom_site_label_2
_geom_bond_distance
_geom_bond_site_symmetry_2
_ccdc_geom_bond_type
Co0 O3 1.970 . S
Co0 N17 1.989 . S
Co0 O25 1.967 . S
Co0 O32 1.920 . S
Co1 O4 1.966 . S
Co1 N10 2.022 . S
Co1 N18 1.993 . S
Co1 O26 1.941 . S
C2 O3 1.258 . S
C2 O4 1.263 . S
O3 Co0 1.970 . S
O3 C2 1.258 . S
O4 Co1 1.966 . S
O4 C2 1.263 . S
C5 O6 1.235 . S
C5 O32 1.289 . S
O6 C5 1.235 . S
C7 C9 1.400 . S
C7 N10 1.351 . S
C7 C12 1.501 . S
C8 C9 1.387 . S
C8 N11 1.341 . S
C9 C7 1.400 . S
C9 C8 1.387 . S
N10 Co1 2.022 . S
N10 C7 1.351 . S
N10 N11 1.365 . S
N11 C8 1.341 . S
N11 N10 1.365 . S
N11 H31 0.862 . S
C12 C7 1.501 . S
C12 H13 0.961 . S
C12 H14 0.961 . S
C12 H15 0.960 . S
H13 C12 0.961 . S
H14 C12 0.961 . S
H15 C12 0.960 . S
C16 N17 1.342 . S
C16 C20 1.401 . S
C16 C21 1.499 . S
N17 Co0 1.989 . S
N17 C16 1.342 . S
N17 N18 1.388 . S
N18 Co1 1.993 . S
N18 N17 1.388 . S
N18 C19 1.346 . S
C19 N18 1.346 . S
C19 C20 1.396 . S
C19 C29 1.510 . S
C20 C16 1.401 . S
C20 C19 1.396 . S
C21 C16 1.499 . S
C21 H22 0.959 . S
C21 H23 0.960 . S
C21 H24 0.961 . S
H22 C21 0.959 . S
H23 C21 0.960 . S
H24 C21 0.961 . S
O25 Co0 1.967 . S
O25 C33 1.258 . S
O26 Co1 1.941 . S
O26 C33 1.266 . S
H27 C29 0.959 . S
H28 C29 0.961 . S
C29 C19 1.510 . S
C29 H27 0.959 . S
C29 H28 0.961 . S
C29 H30 0.960 . S
H30 C29 0.960 . S
H31 N11 0.862 . S
O32 Co0 1.920 . S
O32 C5 1.289 . S
C33 O25 1.258 . S
C33 O26 1.266 . S
Co34 O37 1.970 . S
Co34 N51 1.989 . S
Co34 O59 1.967 . S
Co34 O66 1.920 . S
Co35 O38 1.966 . S
Co35 N44 2.022 . S
Co35 N52 1.993 . S
Co35 O60 1.941 . S
C36 O37 1.258 . S
C36 O38 1.263 . S
O37 Co34 1.970 . S
O37 C36 1.258 . S
O38 Co35 1.966 . S
O38 C36 1.263 . S
C39 O40 1.235 . S
C39 O66 1.289 . S
O40 C39 1.235 . S
C41 C43 1.400 . S
C41 N44 1.351 . S
C41 C46 1.501 . S
C42 C43 1.387 . S
C42 N45 1.341 . S
C43 C41 1.400 . S
C43 C42 1.387 . S
N44 Co35 2.022 . S
N44 C41 1.351 . S
N44 N45 1.365 . S
N45 C42 1.341 . S
N45 N44 1.365 . S
N45 H65 0.862 . S
C46 C41 1.501 . S
C46 H47 0.961 . S
C46 H48 0.961 . S
C46 H49 0.960 . S
H47 C46 0.961 . S
H48 C46 0.961 . S
H49 C46 0.960 . S
C50 N51 1.342 . S
C50 C54 1.401 . S
C50 C55 1.499 . S
N51 Co34 1.989 . S
N51 C50 1.342 . S
N51 N52 1.388 . S
N52 Co35 1.993 . S
N52 N51 1.388 . S
N52 C53 1.346 . S
C53 N52 1.346 . S
C53 C54 1.396 . S
C53 C63 1.510 . S
C54 C50 1.401 . S
C54 C53 1.396 . S
C55 C50 1.499 . S
C55 H56 0.959 . S
C55 H57 0.960 . S
C55 H58 0.961 . S
H56 C55 0.959 . S
H57 C55 0.960 . S
H58 C55 0.961 . S
O59 Co34 1.967 . S
O59 C67 1.258 . S
O60 Co35 1.941 . S
O60 C67 1.266 . S
H61 C63 0.959 . S
H62 C63 0.961 . S
C63 C53 1.510 . S
C63 H61 0.959 . S
C63 H62 0.961 . S
C63 H64 0.960 . S
H64 C63 0.960 . S
H65 N45 0.862 . S
O66 Co34 1.920 . S
O66 C39 1.289 . S
C67 O59 1.258 . S
C67 O60 1.266 . S
Co68 O71 1.970 . S
Co68 N85 1.989 . S
Co68 O93 1.967 . S
Co68 O100 1.920 . S
Co69 O72 1.966 . S
Co69 N78 2.022 . S
Co69 N86 1.993 . S
Co69 O94 1.941 . S
C70 O71 1.258 . S
C70 O72 1.263 . S
O71 Co68 1.970 . S
O71 C70 1.258 . S
O72 Co69 1.966 . S
O72 C70 1.263 . S
C73 O74 1.235 . S
C73 O100 1.289 . S
O74 C73 1.235 . S
C75 C77 1.400 . S
C75 N78 1.351 . S
C75 C80 1.501 . S
C76 C77 1.387 . S
C76 N79 1.341 . S
C77 C75 1.400 . S
C77 C76 1.387 . S
N78 Co69 2.022 . S
N78 C75 1.351 . S
N78 N79 1.365 . S
N79 C76 1.341 . S
N79 N78 1.365 . S
N79 H99 0.862 . S
C80 C75 1.501 . S
C80 H81 0.961 . S
C80 H82 0.961 . S
C80 H83 0.960 . S
H81 C80 0.961 . S
H82 C80 0.961 . S
H83 C80 0.960 . S
C84 N85 1.342 . S
C84 C88 1.401 . S
C84 C89 1.499 . S
N85 Co68 1.989 . S
N85 C84 1.342 . S
N85 N86 1.388 . S
N86 Co69 1.993 . S
N86 N85 1.388 . S
N86 C87 1.346 . S
C87 N86 1.346 . S
C87 C88 1.396 . S
C87 C97 1.510 . S
C88 C84 1.401 . S
C88 C87 1.396 . S
C89 C84 1.499 . S
C89 H90 0.959 . S
C89 H91 0.960 . S
C89 H92 0.961 . S
H90 C89 0.959 . S
H91 C89 0.960 . S
H92 C89 0.961 . S
O93 Co68 1.967 . S
O93 C101 1.258 . S
O94 Co69 1.941 . S
O94 C101 1.266 . S
H95 C97 0.959 . S
H96 C97 0.961 . S
C97 C87 1.510 . S
C97 H95 0.959 . S
C97 H96 0.961 . S
C97 H98 0.960 . S
H98 C97 0.960 . S
H99 N79 0.862 . S
O100 Co68 1.920 . S
O100 C73 1.289 . S
C101 O93 1.258 . S
C101 O94 1.266 . S
Co102 O105 1.970 . S
Co102 N119 1.989 . S
Co102 O127 1.967 . S
Co102 O134 1.920 . S
Co103 O106 1.966 . S
Co103 N112 2.022 . S
Co103 N120 1.993 . S
Co103 O128 1.941 . S
C104 O105 1.258 . S
C104 O106 1.263 . S
O105 Co102 1.970 . S
O105 C104 1.258 . S
O106 Co103 1.966 . S
O106 C104 1.263 . S
C107 O108 1.235 . S
C107 O134 1.289 . S
O108 C107 1.235 . S
C109 C111 1.400 . S
C109 N112 1.351 . S
C109 C114 1.501 . S
C110 C111 1.387 . S
C110 N113 1.341 . S
C111 C109 1.400 . S
C111 C110 1.387 . S
N112 Co103 2.022 . S
N112 C109 1.351 . S
N112 N113 1.365 . S
N113 C110 1.341 . S
N113 N112 1.365 . S
N113 H133 0.862 . S
C114 C109 1.501 . S
C114 H115 0.961 . S
C114 H116 0.961 . S
C114 H117 0.960 . S
H115 C114 0.961 . S
H116 C114 0.961 . S
H117 C114 0.960 . S
C118 N119 1.342 . S
C118 C122 1.401 . S
C118 C123 1.499 . S
N119 Co102 1.989 . S
N119 C118 1.342 . S
N119 N120 1.388 . S
N120 Co103 1.993 . S
N120 N119 1.388 . S
N120 C121 1.346 . S
C121 N120 1.346 . S
C121 C122 1.396 . S
C121 C131 1.510 . S
C122 C118 1.401 . S
C122 C121 1.396 . S
C123 C118 1.499 . S
C123 H124 0.959 . S
C123 H125 0.960 . S
C123 H126 0.961 . S
H124 C123 0.959 . S
H125 C123 0.960 . S
H126 C123 0.961 . S
O127 Co102 1.967 . S
O127 C135 1.258 . S
O128 Co103 1.941 . S
O128 C135 1.266 . S
H129 C131 0.959 . S
H130 C131 0.961 . S
C131 C121 1.510 . S
C131 H129 0.959 . S
C131 H130 0.961 . S
C131 H132 0.960 . S
H132 C131 0.960 . S
H133 N113 0.862 . S
O134 Co102 1.920 . S
O134 C107 1.289 . S
C135 O127 1.258 . S
C135 O128 1.266 . S
Co136 O139 1.970 . S
Co136 N153 1.989 . S
Co136 O161 1.967 . S
Co136 O168 1.920 . S
Co137 O140 1.966 . S
Co137 N146 2.022 . S
Co137 N154 1.993 . S
Co137 O162 1.941 . S
C138 O139 1.258 . S
C138 O140 1.263 . S
O139 Co136 1.970 . S
O139 C138 1.258 . S
O140 Co137 1.966 . S
O140 C138 1.263 . S
C141 O142 1.235 . S
C141 O168 1.289 . S
O142 C141 1.235 . S
C143 C145 1.400 . S
C143 N146 1.351 . S
C143 C148 1.501 . S
C144 C145 1.387 . S
C144 N147 1.341 . S
C145 C143 1.400 . S
C145 C144 1.387 . S
N146 Co137 2.022 . S
N146 C143 1.351 . S
N146 N147 1.365 . S
N147 C144 1.341 . S
N147 N146 1.365 . S
N147 H167 0.862 . S
C148 C143 1.501 . S
C148 H149 0.961 . S
C148 H150 0.961 . S
C148 H151 0.960 . S
H149 C148 0.961 . S
H150 C148 0.961 . S
H151 C148 0.960 . S
C152 N153 1.342 . S
C152 C156 1.401 . S
C152 C157 1.499 . S
N153 Co136 1.989 . S
N153 C152 1.342 . S
N153 N154 1.388 . S
N154 Co137 1.993 . S
N154 N153 1.388 . S
N154 C155 1.346 . S
C155 N154 1.346 . S
C155 C156 1.396 . S
C155 C165 1.510 . S
C156 C152 1.401 . S
C156 C155 1.396 . S
C157 C152 1.499 . S
C157 H158 0.959 . S
C157 H159 0.960 . S
C157 H160 0.961 . S
H158 C157 0.959 . S
H159 C157 0.960 . S
H160 C157 0.961 . S
O161 Co136 1.967 . S
O161 C169 1.258 . S
O162 Co137 1.941 . S
O162 C169 1.266 . S
H163 C165 0.959 . S
H164 C165 0.961 . S
C165 C155 1.510 . S
C165 H163 0.959 . S
C165 H164 0.961 . S
C165 H166 0.960 . S
H166 C165 0.960 . S
H167 N147 0.862 . S
O168 Co136 1.920 . S
O168 C141 1.289 . S
C169 O161 1.258 . S
C169 O162 1.266 . S
Co170 O173 1.970 . S
Co170 N187 1.989 . S
Co170 O195 1.967 . S
Co170 O202 1.920 . S
Co171 O174 1.966 . S
Co171 N180 2.022 . S
Co171 N188 1.993 . S
Co171 O196 1.941 . S
C172 O173 1.258 . S
C172 O174 1.263 . S
O173 Co170 1.970 . S
O173 C172 1.258 . S
O174 Co171 1.966 . S
O174 C172 1.263 . S
C175 O176 1.235 . S
C175 O202 1.289 . S
O176 C175 1.235 . S
C177 C179 1.400 . S
C177 N180 1.351 . S
C177 C182 1.501 . S
C178 C179 1.387 . S
C178 N181 1.341 . S
C179 C177 1.400 . S
C179 C178 1.387 . S
N180 Co171 2.022 . S
N180 C177 1.351 . S
N180 N181 1.365 . S
N181 C178 1.341 . S
N181 N180 1.365 . S
N181 H201 0.862 . S
C182 C177 1.501 . S
C182 H183 0.961 . S
C182 H184 0.961 . S
C182 H185 0.960 . S
H183 C182 0.961 . S
H184 C182 0.961 . S
H185 C182 0.960 . S
C186 N187 1.342 . S
C186 C190 1.401 . S
C186 C191 1.499 . S
N187 Co170 1.989 . S
N187 C186 1.342 . S
N187 N188 1.388 . S
N188 Co171 1.993 . S
N188 N187 1.388 . S
N188 C189 1.346 . S
C189 N188 1.346 . S
C189 C190 1.396 . S
C189 C199 1.510 . S
C190 C186 1.401 . S
C190 C189 1.396 . S
C191 C186 1.499 . S
C191 H192 0.959 . S
C191 H193 0.960 . S
C191 H194 0.961 . S
H192 C191 0.959 . S
H193 C191 0.960 . S
H194 C191 0.961 . S
O195 Co170 1.967 . S
O195 C203 1.258 . S
O196 Co171 1.941 . S
O196 C203 1.266 . S
H197 C199 0.959 . S
H198 C199 0.961 . S
C199 C189 1.510 . S
C199 H197 0.959 . S
C199 H198 0.961 . S
C199 H200 0.960 . S
H200 C199 0.960 . S
H201 N181 0.862 . S
O202 Co170 1.920 . S
O202 C175 1.289 . S
C203 O195 1.258 . S
C203 O196 1.266 . S
Co204 O207 1.970 . S
Co204 N221 1.989 . S
Co204 O229 1.967 . S
Co204 O236 1.920 . S
Co205 O208 1.966 . S
Co205 N214 2.022 . S
Co205 N222 1.993 . S
Co205 O230 1.941 . S
C206 O207 1.258 . S
C206 O208 1.263 . S
O207 Co204 1.970 . S
O207 C206 1.258 . S
O208 Co205 1.966 . S
O208 C206 1.263 . S
C209 O210 1.235 . S
C209 O236 1.289 . S
O210 C209 1.235 . S
C211 C213 1.400 . S
C211 N214 1.351 . S
C211 C216 1.501 . S
C212 C213 1.387 . S
C212 N215 1.341 . S
C213 C211 1.400 . S
C213 C212 1.387 . S
N214 Co205 2.022 . S
N214 C211 1.351 . S
N214 N215 1.365 . S
N215 C212 1.341 . S
N215 N214 1.365 . S
N215 H235 0.862 . S
C216 C211 1.501 . S
C216 H217 0.961 . S
C216 H218 0.961 . S
C216 H219 0.960 . S
H217 C216 0.961 . S
H218 C216 0.961 . S
H219 C216 0.960 . S
C220 N221 1.342 . S
C220 C224 1.401 . S
C220 C225 1.499 . S
N221 Co204 1.989 . S
N221 C220 1.342 . S
N221 N222 1.388 . S
N222 Co205 1.993 . S
N222 N221 1.388 . S
N222 C223 1.346 . S
C223 N222 1.346 . S
C223 C224 1.396 . S
C223 C233 1.510 . S
C224 C220 1.401 . S
C224 C223 1.396 . S
C225 C220 1.499 . S
C225 H226 0.959 . S
C225 H227 0.960 . S
C225 H228 0.961 . S
H226 C225 0.959 . S
H227 C225 0.960 . S
H228 C225 0.961 . S
O229 Co204 1.967 . S
O229 C237 1.258 . S
O230 Co205 1.941 . S
O230 C237 1.266 . S
H231 C233 0.959 . S
H232 C233 0.961 . S
C233 C223 1.510 . S
C233 H231 0.959 . S
C233 H232 0.961 . S
C233 H234 0.960 . S
H234 C233 0.960 . S
H235 N215 0.862 . S
O236 Co204 1.920 . S
O236 C209 1.289 . S
C237 O229 1.258 . S
C237 O230 1.266 . S
Co238 O241 1.970 . S
Co238 N255 1.989 . S
Co238 O263 1.967 . S
Co238 O270 1.920 . S
Co239 O242 1.966 . S
Co239 N248 2.022 . S
Co239 N256 1.993 . S
Co239 O264 1.941 . S
C240 O241 1.258 . S
C240 O242 1.263 . S
O241 Co238 1.970 . S
O241 C240 1.258 . S
O242 Co239 1.966 . S
O242 C240 1.263 . S
C243 O244 1.235 . S
C243 O270 1.289 . S
O244 C243 1.235 . S
C245 C247 1.400 . S
C245 N248 1.351 . S
C245 C250 1.501 . S
C246 C247 1.387 . S
C246 N249 1.341 . S
C247 C245 1.400 . S
C247 C246 1.387 . S
N248 Co239 2.022 . S
N248 C245 1.351 . S
N248 N249 1.365 . S
N249 C246 1.341 . S
N249 N248 1.365 . S
N249 H269 0.862 . S
C250 C245 1.501 . S
C250 H251 0.961 . S
C250 H252 0.961 . S
C250 H253 0.960 . S
H251 C250 0.961 . S
H252 C250 0.961 . S
H253 C250 0.960 . S
C254 N255 1.342 . S
C254 C258 1.401 . S
C254 C259 1.499 . S
N255 Co238 1.989 . S
N255 C254 1.342 . S
N255 N256 1.388 . S
N256 Co239 1.993 . S
N256 N255 1.388 . S
N256 C257 1.346 . S
C257 N256 1.346 . S
C257 C258 1.396 . S
C257 C267 1.510 . S
C258 C254 1.401 . S
C258 C257 1.396 . S
C259 C254 1.499 . S
C259 H260 0.959 . S
C259 H261 0.960 . S
C259 H262 0.961 . S
H260 C259 0.959 . S
H261 C259 0.960 . S
H262 C259 0.961 . S
O263 Co238 1.967 . S
O263 C271 1.258 . S
O264 Co239 1.941 . S
O264 C271 1.266 . S
H265 C267 0.959 . S
H266 C267 0.961 . S
C267 C257 1.510 . S
C267 H265 0.959 . S
C267 H266 0.961 . S
C267 H268 0.960 . S
H268 C267 0.960 . S
H269 N249 0.862 . S
O270 Co238 1.920 . S
O270 C243 1.289 . S
C271 O263 1.258 . S
C271 O264 1.266 . S
Co272 O275 1.970 . S
Co272 N289 1.989 . S
Co272 O297 1.967 . S
Co272 O304 1.920 . S
Co273 O276 1.966 . S
Co273 N282 2.022 . S
Co273 N290 1.993 . S
Co273 O298 1.941 . S
C274 O275 1.258 . S
C274 O276 1.263 . S
O275 Co272 1.970 . S
O275 C274 1.258 . S
O276 Co273 1.966 . S
O276 C274 1.263 . S
C277 O278 1.235 . S
C277 O304 1.289 . S
O278 C277 1.235 . S
C279 C281 1.400 . S
C279 N282 1.351 . S
C279 C284 1.501 . S
C280 C281 1.387 . S
C280 N283 1.341 . S
C281 C279 1.400 . S
C281 C280 1.387 . S
N282 Co273 2.022 . S
N282 C279 1.351 . S
N282 N283 1.365 . S
N283 C280 1.341 . S
N283 N282 1.365 . S
N283 H303 0.862 . S
C284 C279 1.501 . S
C284 H285 0.961 . S
C284 H286 0.961 . S
C284 H287 0.960 . S
H285 C284 0.961 . S
H286 C284 0.961 . S
H287 C284 0.960 . S
C288 N289 1.342 . S
C288 C292 1.401 . S
C288 C293 1.499 . S
N289 Co272 1.989 . S
N289 C288 1.342 . S
N289 N290 1.388 . S
N290 Co273 1.993 . S
N290 N289 1.388 . S
N290 C291 1.346 . S
C291 N290 1.346 . S
C291 C292 1.396 . S
C291 C301 1.510 . S
C292 C288 1.401 . S
C292 C291 1.396 . S
C293 C288 1.499 . S
C293 H294 0.959 . S
C293 H295 0.960 . S
C293 H296 0.961 . S
H294 C293 0.959 . S
H295 C293 0.960 . S
H296 C293 0.961 . S
O297 Co272 1.967 . S
O297 C305 1.258 . S
O298 Co273 1.941 . S
O298 C305 1.266 . S
H299 C301 0.959 . S
H300 C301 0.961 . S
C301 C291 1.510 . S
C301 H299 0.959 . S
C301 H300 0.961 . S
C301 H302 0.960 . S
H302 C301 0.960 . S
H303 N283 0.862 . S
O304 Co272 1.920 . S
O304 C277 1.289 . S
C305 O297 1.258 . S
C305 O298 1.266 . S
Co306 O309 1.970 . S
Co306 N323 1.989 . S
Co306 O331 1.967 . S
Co306 O338 1.920 . S
Co307 O310 1.966 . S
Co307 N316 2.022 . S
Co307 N324 1.993 . S
Co307 O332 1.941 . S
C308 O309 1.258 . S
C308 O310 1.263 . S
O309 Co306 1.970 . S
O309 C308 1.258 . S
O310 Co307 1.966 . S
O310 C308 1.263 . S
C311 O312 1.235 . S
C311 O338 1.289 . S
O312 C311 1.235 . S
C313 C315 1.400 . S
C313 N316 1.351 . S
C313 C318 1.501 . S
C314 C315 1.387 . S
C314 N317 1.341 . S
C315 C313 1.400 . S
C315 C314 1.387 . S
N316 Co307 2.022 . S
N316 C313 1.351 . S
N316 N317 1.365 . S
N317 C314 1.341 . S
N317 N316 1.365 . S
N317 H337 0.862 . S
C318 C313 1.501 . S
C318 H319 0.961 . S
C318 H320 0.961 . S
C318 H321 0.960 . S
H319 C318 0.961 . S
H320 C318 0.961 . S
H321 C318 0.960 . S
C322 N323 1.342 . S
C322 C326 1.401 . S
C322 C327 1.499 . S
N323 Co306 1.989 . S
N323 C322 1.342 . S
N323 N324 1.388 . S
N324 Co307 1.993 . S
N324 N323 1.388 . S
N324 C325 1.346 . S
C325 N324 1.346 . S
C325 C326 1.396 . S
C325 C335 1.510 . S
C326 C322 1.401 . S
C326 C325 1.396 . S
C327 C322 1.499 . S
C327 H328 0.959 . S
C327 H329 0.960 . S
C327 H330 0.961 . S
H328 C327 0.959 . S
H329 C327 0.960 . S
H330 C327 0.961 . S
O331 Co306 1.967 . S
O331 C339 1.258 . S
O332 Co307 1.941 . S
O332 C339 1.266 . S
H333 C335 0.959 . S
H334 C335 0.961 . S
C335 C325 1.510 . S
C335 H333 0.959 . S
C335 H334 0.961 . S
C335 H336 0.960 . S
H336 C335 0.960 . S
H337 N317 0.862 . S
O338 Co306 1.920 . S
O338 C311 1.289 . S
C339 O331 1.258 . S
C339 O332 1.266 . S
Co340 O343 1.970 . S
Co340 N357 1.989 . S
Co340 O365 1.967 . S
Co340 O372 1.920 . S
Co341 O344 1.966 . S
Co341 N350 2.022 . S
Co341 N358 1.993 . S
Co341 O366 1.941 . S
C342 O343 1.258 . S
C342 O344 1.263 . S
O343 Co340 1.970 . S
O343 C342 1.258 . S
O344 Co341 1.966 . S
O344 C342 1.263 . S
C345 O346 1.235 . S
C345 O372 1.289 . S
O346 C345 1.235 . S
C347 C349 1.400 . S
C347 N350 1.351 . S
C347 C352 1.501 . S
C348 C349 1.387 . S
C348 N351 1.341 . S
C349 C347 1.400 . S
C349 C348 1.387 . S
N350 Co341 2.022 . S
N350 C347 1.351 . S
N350 N351 1.365 . S
N351 C348 1.341 . S
N351 N350 1.365 . S
N351 H371 0.862 . S
C352 C347 1.501 . S
C352 H353 0.961 . S
C352 H354 0.961 . S
C352 H355 0.960 . S
H353 C352 0.961 . S
H354 C352 0.961 . S
H355 C352 0.960 . S
C356 N357 1.342 . S
C356 C360 1.401 . S
C356 C361 1.499 . S
N357 Co340 1.989 . S
N357 C356 1.342 . S
N357 N358 1.388 . S
N358 Co341 1.993 . S
N358 N357 1.388 . S
N358 C359 1.346 . S
C359 N358 1.346 . S
C359 C360 1.396 . S
C359 C369 1.510 . S
C360 C356 1.401 . S
C360 C359 1.396 . S
C361 C356 1.499 . S
C361 H362 0.959 . S
C361 H363 0.960 . S
C361 H364 0.961 . S
H362 C361 0.959 . S
H363 C361 0.960 . S
H364 C361 0.961 . S
O365 Co340 1.967 . S
O365 C373 1.258 . S
O366 Co341 1.941 . S
O366 C373 1.266 . S
H367 C369 0.959 . S
H368 C369 0.961 . S
C369 C359 1.510 . S
C369 H367 0.959 . S
C369 H368 0.961 . S
C369 H370 0.960 . S
H370 C369 0.960 . S
H371 N351 0.862 . S
O372 Co340 1.920 . S
O372 C345 1.289 . S
C373 O365 1.258 . S
C373 O366 1.266 . S
Co374 O377 1.970 . S
Co374 N391 1.989 . S
Co374 O399 1.967 . S
Co374 O406 1.920 . S
Co375 O378 1.966 . S
Co375 N384 2.022 . S
Co375 N392 1.993 . S
Co375 O400 1.941 . S
C376 O377 1.258 . S
C376 O378 1.263 . S
O377 Co374 1.970 . S
O377 C376 1.258 . S
O378 Co375 1.966 . S
O378 C376 1.263 . S
C379 O380 1.235 . S
C379 O406 1.289 . S
O380 C379 1.235 . S
C381 C383 1.400 . S
C381 N384 1.351 . S
C381 C386 1.501 . S
C382 C383 1.387 . S
C382 N385 1.341 . S
C383 C381 1.400 . S
C383 C382 1.387 . S
N384 Co375 2.022 . S
N384 C381 1.351 . S
N384 N385 1.365 . S
N385 C382 1.341 . S
N385 N384 1.365 . S
N385 H405 0.862 . S
C386 C381 1.501 . S
C386 H387 0.961 . S
C386 H388 0.961 . S
C386 H389 0.960 . S
H387 C386 0.961 . S
H388 C386 0.961 . S
H389 C386 0.960 . S
C390 N391 1.342 . S
C390 C394 1.401 . S
C390 C395 1.499 . S
N391 Co374 1.989 . S
N391 C390 1.342 . S
N391 N392 1.388 . S
N392 Co375 1.993 . S
N392 N391 1.388 . S
N392 C393 1.346 . S
C393 N392 1.346 . S
C393 C394 1.396 . S
C393 C403 1.510 . S
C394 C390 1.401 . S
C394 C393 1.396 . S
C395 C390 1.499 . S
C395 H396 0.959 . S
C395 H397 0.960 . S
C395 H398 0.961 . S
H396 C395 0.959 . S
H397 C395 0.960 . S
H398 C395 0.961 . S
O399 Co374 1.967 . S
O399 C407 1.258 . S
O400 Co375 1.941 . S
O400 C407 1.266 . S
H401 C403 0.959 . S
H402 C403 0.961 . S
C403 C393 1.510 . S
C403 H401 0.959 . S
C403 H402 0.961 . S
C403 H404 0.960 . S
H404 C403 0.960 . S
H405 N385 0.862 . S
O406 Co374 1.920 . S
O406 C379 1.289 . S
C407 O399 1.258 . S
C407 O400 1.266 . S
Co408 O411 1.970 . S
Co408 N425 1.989 . S
Co408 O433 1.967 . S
Co408 O440 1.920 . S
Co409 O412 1.966 . S
Co409 N418 2.022 . S
Co409 N426 1.993 . S
Co409 O434 1.941 . S
C410 O411 1.258 . S
C410 O412 1.263 . S
O411 Co408 1.970 . S
O411 C410 1.258 . S
O412 Co409 1.966 . S
O412 C410 1.263 . S
C413 O414 1.235 . S
C413 O440 1.289 . S
O414 C413 1.235 . S
C415 C417 1.400 . S
C415 N418 1.351 . S
C415 C420 1.501 . S
C416 C417 1.387 . S
C416 N419 1.341 . S
C417 C415 1.400 . S
C417 C416 1.387 . S
N418 Co409 2.022 . S
N418 C415 1.351 . S
N418 N419 1.365 . S
N419 C416 1.341 . S
N419 N418 1.365 . S
N419 H439 0.862 . S
C420 C415 1.501 . S
C420 H421 0.961 . S
C420 H422 0.961 . S
C420 H423 0.960 . S
H421 C420 0.961 . S
H422 C420 0.961 . S
H423 C420 0.960 . S
C424 N425 1.342 . S
C424 C428 1.401 . S
C424 C429 1.499 . S
N425 Co408 1.989 . S
N425 C424 1.342 . S
N425 N426 1.388 . S
N426 Co409 1.993 . S
N426 N425 1.388 . S
N426 C427 1.346 . S
C427 N426 1.346 . S
C427 C428 1.396 . S
C427 C437 1.510 . S
C428 C424 1.401 . S
C428 C427 1.396 . S
C429 C424 1.499 . S
C429 H430 0.959 . S
C429 H431 0.960 . S
C429 H432 0.961 . S
H430 C429 0.959 . S
H431 C429 0.960 . S
H432 C429 0.961 . S
O433 Co408 1.967 . S
O433 C441 1.258 . S
O434 Co409 1.941 . S
O434 C441 1.266 . S
H435 C437 0.959 . S
H436 C437 0.961 . S
C437 C427 1.510 . S
C437 H435 0.959 . S
C437 H436 0.961 . S
C437 H438 0.960 . S
H438 C437 0.960 . S
H439 N419 0.862 . S
O440 Co408 1.920 . S
O440 C413 1.289 . S
C441 O433 1.258 . S
C441 O434 1.266 . S
Co442 O445 1.970 . S
Co442 N459 1.989 . S
Co442 O467 1.967 . S
Co442 O474 1.920 . S
Co443 O446 1.966 . S
Co443 N452 2.022 . S
Co443 N460 1.993 . S
Co443 O468 1.941 . S
C444 O445 1.258 . S
C444 O446 1.263 . S
O445 Co442 1.970 . S
O445 C444 1.258 . S
O446 Co443 1.966 . S
O446 C444 1.263 . S
C447 O448 1.235 . S
C447 O474 1.289 . S
O448 C447 1.235 . S
C449 C451 1.400 . S
C449 N452 1.351 . S
C449 C454 1.501 . S
C450 C451 1.387 . S
C450 N453 1.341 . S
C451 C449 1.400 . S
C451 C450 1.387 . S
N452 Co443 2.022 . S
N452 C449 1.351 . S
N452 N453 1.365 . S
N453 C450 1.341 . S
N453 N452 1.365 . S
N453 H473 0.862 . S
C454 C449 1.501 . S
C454 H455 0.961 . S
C454 H456 0.961 . S
C454 H457 0.960 . S
H455 C454 0.961 . S
H456 C454 0.961 . S
H457 C454 0.960 . S
C458 N459 1.342 . S
C458 C462 1.401 . S
C458 C463 1.499 . S
N459 Co442 1.989 . S
N459 C458 1.342 . S
N459 N460 1.388 . S
N460 Co443 1.993 . S
N460 N459 1.388 . S
N460 C461 1.346 . S
C461 N460 1.346 . S
C461 C462 1.396 . S
C461 C471 1.510 . S
C462 C458 1.401 . S
C462 C461 1.396 . S
C463 C458 1.499 . S
C463 H464 0.959 . S
C463 H465 0.960 . S
C463 H466 0.961 . S
H464 C463 0.959 . S
H465 C463 0.960 . S
H466 C463 0.961 . S
O467 Co442 1.967 . S
O467 C475 1.258 . S
O468 Co443 1.941 . S
O468 C475 1.266 . S
H469 C471 0.959 . S
H470 C471 0.961 . S
C471 C461 1.510 . S
C471 H469 0.959 . S
C471 H470 0.961 . S
C471 H472 0.960 . S
H472 C471 0.960 . S
H473 N453 0.862 . S
O474 Co442 1.920 . S
O474 C447 1.289 . S
C475 O467 1.258 . S
C475 O468 1.266 . S
Co476 O479 1.970 . S
Co476 N493 1.989 . S
Co476 O501 1.967 . S
Co476 O508 1.920 . S
Co477 O480 1.966 . S
Co477 N486 2.022 . S
Co477 N494 1.993 . S
Co477 O502 1.941 . S
C478 O479 1.258 . S
C478 O480 1.263 . S
O479 Co476 1.970 . S
O479 C478 1.258 . S
O480 Co477 1.966 . S
O480 C478 1.263 . S
C481 O482 1.235 . S
C481 O508 1.289 . S
O482 C481 1.235 . S
C483 C485 1.400 . S
C483 N486 1.351 . S
C483 C488 1.501 . S
C484 C485 1.387 . S
C484 N487 1.341 . S
C485 C483 1.400 . S
C485 C484 1.387 . S
N486 Co477 2.022 . S
N486 C483 1.351 . S
N486 N487 1.365 . S
N487 C484 1.341 . S
N487 N486 1.365 . S
N487 H507 0.862 . S
C488 C483 1.501 . S
C488 H489 0.961 . S
C488 H490 0.961 . S
C488 H491 0.960 . S
H489 C488 0.961 . S
H490 C488 0.961 . S
H491 C488 0.960 . S
C492 N493 1.342 . S
C492 C496 1.401 . S
C492 C497 1.499 . S
N493 Co476 1.989 . S
N493 C492 1.342 . S
N493 N494 1.388 . S
N494 Co477 1.993 . S
N494 N493 1.388 . S
N494 C495 1.346 . S
C495 N494 1.346 . S
C495 C496 1.396 . S
C495 C505 1.510 . S
C496 C492 1.401 . S
C496 C495 1.396 . S
C497 C492 1.499 . S
C497 H498 0.959 . S
C497 H499 0.960 . S
C497 H500 0.961 . S
H498 C497 0.959 . S
H499 C497 0.960 . S
H500 C497 0.961 . S
O501 Co476 1.967 . S
O501 C509 1.258 . S
O502 Co477 1.941 . S
O502 C509 1.266 . S
H503 C505 0.959 . S
H504 C505 0.961 . S
C505 C495 1.510 . S
C505 H503 0.959 . S
C505 H504 0.961 . S
C505 H506 0.960 . S
H506 C505 0.960 . S
H507 N487 0.862 . S
O508 Co476 1.920 . S
O508 C481 1.289 . S
C509 O501 1.258 . S
C509 O502 1.266 . S
Co510 O513 1.970 . S
Co510 N527 1.989 . S
Co510 O535 1.967 . S
Co510 O542 1.920 . S
Co511 O514 1.966 . S
Co511 N520 2.022 . S
Co511 N528 1.993 . S
Co511 O536 1.941 . S
C512 O513 1.258 . S
C512 O514 1.263 . S
O513 Co510 1.970 . S
O513 C512 1.258 . S
O514 Co511 1.966 . S
O514 C512 1.263 . S
C515 O516 1.235 . S
C515 O542 1.289 . S
O516 C515 1.235 . S
C517 C519 1.400 . S
C517 N520 1.351 . S
C517 C522 1.501 . S
C518 C519 1.387 . S
C518 N521 1.341 . S
C519 C517 1.400 . S
C519 C518 1.387 . S
N520 Co511 2.022 . S
N520 C517 1.351 . S
N520 N521 1.365 . S
N521 C518 1.341 . S
N521 N520 1.365 . S
N521 H541 0.862 . S
C522 C517 1.501 . S
C522 H523 0.961 . S
C522 H524 0.961 . S
C522 H525 0.960 . S
H523 C522 0.961 . S
H524 C522 0.961 . S
H525 C522 0.960 . S
C526 N527 1.342 . S
C526 C530 1.401 . S
C526 C531 1.499 . S
N527 Co510 1.989 . S
N527 C526 1.342 . S
N527 N528 1.388 . S
N528 Co511 1.993 . S
N528 N527 1.388 . S
N528 C529 1.346 . S
C529 N528 1.346 . S
C529 C530 1.396 . S
C529 C539 1.510 . S
C530 C526 1.401 . S
C530 C529 1.396 . S
C531 C526 1.499 . S
C531 H532 0.959 . S
C531 H533 0.960 . S
C531 H534 0.961 . S
H532 C531 0.959 . S
H533 C531 0.960 . S
H534 C531 0.961 . S
O535 Co510 1.967 . S
O535 C543 1.258 . S
O536 Co511 1.941 . S
O536 C543 1.266 . S
H537 C539 0.959 . S
H538 C539 0.961 . S
C539 C529 1.510 . S
C539 H537 0.959 . S
C539 H538 0.961 . S
C539 H540 0.960 . S
H540 C539 0.960 . S
H541 N521 0.862 . S
O542 Co510 1.920 . S
O542 C515 1.289 . S
C543 O535 1.258 . S
C543 O536 1.266 . S
Co544 O547 1.970 . S
Co544 N561 1.989 . S
Co544 O569 1.967 . S
Co544 O576 1.920 . S
Co545 O548 1.966 . S
Co545 N554 2.022 . S
Co545 N562 1.993 . S
Co545 O570 1.941 . S
C546 O547 1.258 . S
C546 O548 1.263 . S
O547 Co544 1.970 . S
O547 C546 1.258 . S
O548 Co545 1.966 . S
O548 C546 1.263 . S
C549 O550 1.235 . S
C549 O576 1.289 . S
O550 C549 1.235 . S
C551 C553 1.400 . S
C551 N554 1.351 . S
C551 C556 1.501 . S
C552 C553 1.387 . S
C552 N555 1.341 . S
C553 C551 1.400 . S
C553 C552 1.387 . S
N554 Co545 2.022 . S
N554 C551 1.351 . S
N554 N555 1.365 . S
N555 C552 1.341 . S
N555 N554 1.365 . S
N555 H575 0.862 . S
C556 C551 1.501 . S
C556 H557 0.961 . S
C556 H558 0.961 . S
C556 H559 0.960 . S
H557 C556 0.961 . S
H558 C556 0.961 . S
H559 C556 0.960 . S
C560 N561 1.342 . S
C560 C564 1.401 . S
C560 C565 1.499 . S
N561 Co544 1.989 . S
N561 C560 1.342 . S
N561 N562 1.388 . S
N562 Co545 1.993 . S
N562 N561 1.388 . S
N562 C563 1.346 . S
C563 N562 1.346 . S
C563 C564 1.396 . S
C563 C573 1.510 . S
C564 C560 1.401 . S
C564 C563 1.396 . S
C565 C560 1.499 . S
C565 H566 0.959 . S
C565 H567 0.960 . S
C565 H568 0.961 . S
H566 C565 0.959 . S
H567 C565 0.960 . S
H568 C565 0.961 . S
O569 Co544 1.967 . S
O569 C577 1.258 . S
O570 Co545 1.941 . S
O570 C577 1.266 . S
H571 C573 0.959 . S
H572 C573 0.961 . S
C573 C563 1.510 . S
C573 H571 0.959 . S
C573 H572 0.961 . S
C573 H574 0.960 . S
H574 C573 0.960 . S
H575 N555 0.862 . S
O576 Co544 1.920 . S
O576 C549 1.289 . S
C577 O569 1.258 . S
C577 O570 1.266 . S
Co578 O581 1.970 . S
Co578 N595 1.989 . S
Co578 O603 1.967 . S
Co578 O610 1.920 . S
Co579 O582 1.966 . S
Co579 N588 2.022 . S
Co579 N596 1.993 . S
Co579 O604 1.941 . S
C580 O581 1.258 . S
C580 O582 1.263 . S
O581 Co578 1.970 . S
O581 C580 1.258 . S
O582 Co579 1.966 . S
O582 C580 1.263 . S
C583 O584 1.235 . S
C583 O610 1.289 . S
O584 C583 1.235 . S
C585 C587 1.400 . S
C585 N588 1.351 . S
C585 C590 1.501 . S
C586 C587 1.387 . S
C586 N589 1.341 . S
C587 C585 1.400 . S
C587 C586 1.387 . S
N588 Co579 2.022 . S
N588 C585 1.351 . S
N588 N589 1.365 . S
N589 C586 1.341 . S
N589 N588 1.365 . S
N589 H609 0.862 . S
C590 C585 1.501 . S
C590 H591 0.961 . S
C590 H592 0.961 . S
C590 H593 0.960 . S
H591 C590 0.961 . S
H592 C590 0.961 . S
H593 C590 0.960 . S
C594 N595 1.342 . S
C594 C598 1.401 . S
C594 C599 1.499 . S
N595 Co578 1.989 . S
N595 C594 1.342 . S
N595 N596 1.388 . S
N596 Co579 1.993 . S
N596 N595 1.388 . S
N596 C597 1.346 . S
C597 N596 1.346 . S
C597 C598 1.396 . S
C597 C607 1.510 . S
C598 C594 1.401 . S
C598 C597 1.396 . S
C599 C594 1.499 . S
C599 H600 0.959 . S
C599 H601 0.960 . S
C599 H602 0.961 . S
H600 C599 0.959 . S
H601 C599 0.960 . S
H602 C599 0.961 . S
O603 Co578 1.967 . S
O603 C611 1.258 . S
O604 Co579 1.941 . S
O604 C611 1.266 . S
H605 C607 0.959 . S
H606 C607 0.961 . S
C607 C597 1.510 . S
C607 H605 0.959 . S
C607 H606 0.961 . S
C607 H608 0.960 . S
H608 C607 0.960 . S
H609 N589 0.862 . S
O610 Co578 1.920 . S
O610 C583 1.289 . S
C611 O603 1.258 . S
C611 O604 1.266 . S
Co612 O615 1.970 . S
Co612 N629 1.989 . S
Co612 O637 1.967 . S
Co612 O644 1.920 . S
Co613 O616 1.966 . S
Co613 N622 2.022 . S
Co613 N630 1.993 . S
Co613 O638 1.941 . S
C614 O615 1.258 . S
C614 O616 1.263 . S
O615 Co612 1.970 . S
O615 C614 1.258 . S
O616 Co613 1.966 . S
O616 C614 1.263 . S
C617 O618 1.235 . S
C617 O644 1.289 . S
O618 C617 1.235 . S
C619 C621 1.400 . S
C619 N622 1.351 . S
C619 C624 1.501 . S
C620 C621 1.387 . S
C620 N623 1.341 . S
C621 C619 1.400 . S
C621 C620 1.387 . S
N622 Co613 2.022 . S
N622 C619 1.351 . S
N622 N623 1.365 . S
N623 C620 1.341 . S
N623 N622 1.365 . S
N623 H643 0.862 . S
C624 C619 1.501 . S
C624 H625 0.961 . S
C624 H626 0.961 . S
C624 H627 0.960 . S
H625 C624 0.961 . S
H626 C624 0.961 . S
H627 C624 0.960 . S
C628 N629 1.342 . S
C628 C632 1.401 . S
C628 C633 1.499 . S
N629 Co612 1.989 . S
N629 C628 1.342 . S
N629 N630 1.388 . S
N630 Co613 1.993 . S
N630 N629 1.388 . S
N630 C631 1.346 . S
C631 N630 1.346 . S
C631 C632 1.396 . S
C631 C641 1.510 . S
C632 C628 1.401 . S
C632 C631 1.396 . S
C633 C628 1.499 . S
C633 H634 0.959 . S
C633 H635 0.960 . S
C633 H636 0.961 . S
H634 C633 0.959 . S
H635 C633 0.960 . S
H636 C633 0.961 . S
O637 Co612 1.967 . S
O637 C645 1.258 . S
O638 Co613 1.941 . S
O638 C645 1.266 . S
H639 C641 0.959 . S
H640 C641 0.961 . S
C641 C631 1.510 . S
C641 H639 0.959 . S
C641 H640 0.961 . S
C641 H642 0.960 . S
H642 C641 0.960 . S
H643 N623 0.862 . S
O644 Co612 1.920 . S
O644 C617 1.289 . S
C645 O637 1.258 . S
C645 O638 1.266 . S
Co646 O649 1.970 . S
Co646 N663 1.989 . S
Co646 O671 1.967 . S
Co646 O678 1.920 . S
Co647 O650 1.966 . S
Co647 N656 2.022 . S
Co647 N664 1.993 . S
Co647 O672 1.941 . S
C648 O649 1.258 . S
C648 O650 1.263 . S
O649 Co646 1.970 . S
O649 C648 1.258 . S
O650 Co647 1.966 . S
O650 C648 1.263 . S
C651 O652 1.235 . S
C651 O678 1.289 . S
O652 C651 1.235 . S
C653 C655 1.400 . S
C653 N656 1.351 . S
C653 C658 1.501 . S
C654 C655 1.387 . S
C654 N657 1.341 . S
C655 C653 1.400 . S
C655 C654 1.387 . S
N656 Co647 2.022 . S
N656 C653 1.351 . S
N656 N657 1.365 . S
N657 C654 1.341 . S
N657 N656 1.365 . S
N657 H677 0.862 . S
C658 C653 1.501 . S
C658 H659 0.961 . S
C658 H660 0.961 . S
C658 H661 0.960 . S
H659 C658 0.961 . S
H660 C658 0.961 . S
H661 C658 0.960 . S
C662 N663 1.342 . S
C662 C666 1.401 . S
C662 C667 1.499 . S
N663 Co646 1.989 . S
N663 C662 1.342 . S
N663 N664 1.388 . S
N664 Co647 1.993 . S
N664 N663 1.388 . S
N664 C665 1.346 . S
C665 N664 1.346 . S
C665 C666 1.396 . S
C665 C675 1.510 . S
C666 C662 1.401 . S
C666 C665 1.396 . S
C667 C662 1.499 . S
C667 H668 0.959 . S
C667 H669 0.960 . S
C667 H670 0.961 . S
H668 C667 0.959 . S
H669 C667 0.960 . S
H670 C667 0.961 . S
O671 Co646 1.967 . S
O671 C679 1.258 . S
O672 Co647 1.941 . S
O672 C679 1.266 . S
H673 C675 0.959 . S
H674 C675 0.961 . S
C675 C665 1.510 . S
C675 H673 0.959 . S
C675 H674 0.961 . S
C675 H676 0.960 . S
H676 C675 0.960 . S
H677 N657 0.862 . S
O678 Co646 1.920 . S
O678 C651 1.289 . S
C679 O671 1.258 . S
C679 O672 1.266 . S
Co680 O683 1.970 . S
Co680 N697 1.989 . S
Co680 O705 1.967 . S
Co680 O712 1.920 . S
Co681 O684 1.966 . S
Co681 N690 2.022 . S
Co681 N698 1.993 . S
Co681 O706 1.941 . S
C682 O683 1.258 . S
C682 O684 1.263 . S
O683 Co680 1.970 . S
O683 C682 1.258 . S
O684 Co681 1.966 . S
O684 C682 1.263 . S
C685 O686 1.235 . S
C685 O712 1.289 . S
O686 C685 1.235 . S
C687 C689 1.400 . S
C687 N690 1.351 . S
C687 C692 1.501 . S
C688 C689 1.387 . S
C688 N691 1.341 . S
C689 C687 1.400 . S
C689 C688 1.387 . S
N690 Co681 2.022 . S
N690 C687 1.351 . S
N690 N691 1.365 . S
N691 C688 1.341 . S
N691 N690 1.365 . S
N691 H711 0.862 . S
C692 C687 1.501 . S
C692 H693 0.961 . S
C692 H694 0.961 . S
C692 H695 0.960 . S
H693 C692 0.961 . S
H694 C692 0.961 . S
H695 C692 0.960 . S
C696 N697 1.342 . S
C696 C700 1.401 . S
C696 C701 1.499 . S
N697 Co680 1.989 . S
N697 C696 1.342 . S
N697 N698 1.388 . S
N698 Co681 1.993 . S
N698 N697 1.388 . S
N698 C699 1.346 . S
C699 N698 1.346 . S
C699 C700 1.396 . S
C699 C709 1.510 . S
C700 C696 1.401 . S
C700 C699 1.396 . S
C701 C696 1.499 . S
C701 H702 0.959 . S
C701 H703 0.960 . S
C701 H704 0.961 . S
H702 C701 0.959 . S
H703 C701 0.960 . S
H704 C701 0.961 . S
O705 Co680 1.967 . S
O705 C713 1.258 . S
O706 Co681 1.941 . S
O706 C713 1.266 . S
H707 C709 0.959 . S
H708 C709 0.961 . S
C709 C699 1.510 . S
C709 H707 0.959 . S
C709 H708 0.961 . S
C709 H710 0.960 . S
H710 C709 0.960 . S
H711 N691 0.862 . S
O712 Co680 1.920 . S
O712 C685 1.289 . S
C713 O705 1.258 . S
C713 O706 1.266 . S
Co714 O717 1.970 . S
Co714 N731 1.989 . S
Co714 O739 1.967 . S
Co714 O746 1.920 . S
Co715 O718 1.966 . S
Co715 N724 2.022 . S
Co715 N732 1.993 . S
Co715 O740 1.941 . S
C716 O717 1.258 . S
C716 O718 1.263 . S
O717 Co714 1.970 . S
O717 C716 1.258 . S
O718 Co715 1.966 . S
O718 C716 1.263 . S
C719 O720 1.235 . S
C719 O746 1.289 . S
O720 C719 1.235 . S
C721 C723 1.400 . S
C721 N724 1.351 . S
C721 C726 1.501 . S
C722 C723 1.387 . S
C722 N725 1.341 . S
C723 C721 1.400 . S
C723 C722 1.387 . S
N724 Co715 2.022 . S
N724 C721 1.351 . S
N724 N725 1.365 . S
N725 C722 1.341 . S
N725 N724 1.365 . S
N725 H745 0.862 . S
C726 C721 1.501 . S
C726 H727 0.961 . S
C726 H728 0.961 . S
C726 H729 0.960 . S
H727 C726 0.961 . S
H728 C726 0.961 . S
H729 C726 0.960 . S
C730 N731 1.342 . S
C730 C734 1.401 . S
C730 C735 1.499 . S
N731 Co714 1.989 . S
N731 C730 1.342 . S
N731 N732 1.388 . S
N732 Co715 1.993 . S
N732 N731 1.388 . S
N732 C733 1.346 . S
C733 N732 1.346 . S
C733 C734 1.396 . S
C733 C743 1.510 . S
C734 C730 1.401 . S
C734 C733 1.396 . S
C735 C730 1.499 . S
C735 H736 0.959 . S
C735 H737 0.960 . S
C735 H738 0.961 . S
H736 C735 0.959 . S
H737 C735 0.960 . S
H738 C735 0.961 . S
O739 Co714 1.967 . S
O739 C747 1.258 . S
O740 Co715 1.941 . S
O740 C747 1.266 . S
H741 C743 0.959 . S
H742 C743 0.961 . S
C743 C733 1.510 . S
C743 H741 0.959 . S
C743 H742 0.961 . S
C743 H744 0.960 . S
H744 C743 0.960 . S
H745 N725 0.862 . S
O746 Co714 1.920 . S
O746 C719 1.289 . S
C747 O739 1.258 . S
C747 O740 1.266 . S
Co748 O751 1.970 . S
Co748 N765 1.989 . S
Co748 O773 1.967 . S
Co748 O780 1.920 . S
Co749 O752 1.966 . S
Co749 N758 2.022 . S
Co749 N766 1.993 . S
Co749 O774 1.941 . S
C750 O751 1.258 . S
C750 O752 1.263 . S
O751 Co748 1.970 . S
O751 C750 1.258 . S
O752 Co749 1.966 . S
O752 C750 1.263 . S
C753 O754 1.235 . S
C753 O780 1.289 . S
O754 C753 1.235 . S
C755 C757 1.400 . S
C755 N758 1.351 . S
C755 C760 1.501 . S
C756 C757 1.387 . S
C756 N759 1.341 . S
C757 C755 1.400 . S
C757 C756 1.387 . S
N758 Co749 2.022 . S
N758 C755 1.351 . S
N758 N759 1.365 . S
N759 C756 1.341 . S
N759 N758 1.365 . S
N759 H779 0.862 . S
C760 C755 1.501 . S
C760 H761 0.961 . S
C760 H762 0.961 . S
C760 H763 0.960 . S
H761 C760 0.961 . S
H762 C760 0.961 . S
H763 C760 0.960 . S
C764 N765 1.342 . S
C764 C768 1.401 . S
C764 C769 1.499 . S
N765 Co748 1.989 . S
N765 C764 1.342 . S
N765 N766 1.388 . S
N766 Co749 1.993 . S
N766 N765 1.388 . S
N766 C767 1.346 . S
C767 N766 1.346 . S
C767 C768 1.396 . S
C767 C777 1.510 . S
C768 C764 1.401 . S
C768 C767 1.396 . S
C769 C764 1.499 . S
C769 H770 0.959 . S
C769 H771 0.960 . S
C769 H772 0.961 . S
H770 C769 0.959 . S
H771 C769 0.960 . S
H772 C769 0.961 . S
O773 Co748 1.967 . S
O773 C781 1.258 . S
O774 Co749 1.941 . S
O774 C781 1.266 . S
H775 C777 0.959 . S
H776 C777 0.961 . S
C777 C767 1.510 . S
C777 H775 0.959 . S
C777 H776 0.961 . S
C777 H778 0.960 . S
H778 C777 0.960 . S
H779 N759 0.862 . S
O780 Co748 1.920 . S
O780 C753 1.289 . S
C781 O773 1.258 . S
C781 O774 1.266 . S
Co782 O785 1.970 . S
Co782 N799 1.989 . S
Co782 O807 1.967 . S
Co782 O814 1.920 . S
Co783 O786 1.966 . S
Co783 N792 2.022 . S
Co783 N800 1.993 . S
Co783 O808 1.941 . S
C784 O785 1.258 . S
C784 O786 1.263 . S
O785 Co782 1.970 . S
O785 C784 1.258 . S
O786 Co783 1.966 . S
O786 C784 1.263 . S
C787 O788 1.235 . S
C787 O814 1.289 . S
O788 C787 1.235 . S
C789 C791 1.400 . S
C789 N792 1.351 . S
C789 C794 1.501 . S
C790 C791 1.387 . S
C790 N793 1.341 . S
C791 C789 1.400 . S
C791 C790 1.387 . S
N792 Co783 2.022 . S
N792 C789 1.351 . S
N792 N793 1.365 . S
N793 C790 1.341 . S
N793 N792 1.365 . S
N793 H813 0.862 . S
C794 C789 1.501 . S
C794 H795 0.961 . S
C794 H796 0.961 . S
C794 H797 0.960 . S
H795 C794 0.961 . S
H796 C794 0.961 . S
H797 C794 0.960 . S
C798 N799 1.342 . S
C798 C802 1.401 . S
C798 C803 1.499 . S
N799 Co782 1.989 . S
N799 C798 1.342 . S
N799 N800 1.388 . S
N800 Co783 1.993 . S
N800 N799 1.388 . S
N800 C801 1.346 . S
C801 N800 1.346 . S
C801 C802 1.396 . S
C801 C811 1.510 . S
C802 C798 1.401 . S
C802 C801 1.396 . S
C803 C798 1.499 . S
C803 H804 0.959 . S
C803 H805 0.960 . S
C803 H806 0.961 . S
H804 C803 0.959 . S
H805 C803 0.960 . S
H806 C803 0.961 . S
O807 Co782 1.967 . S
O807 C815 1.258 . S
O808 Co783 1.941 . S
O808 C815 1.266 . S
H809 C811 0.959 . S
H810 C811 0.961 . S
C811 C801 1.510 . S
C811 H809 0.959 . S
C811 H810 0.961 . S
C811 H812 0.960 . S
H812 C811 0.960 . S
H813 N793 0.862 . S
O814 Co782 1.920 . S
O814 C787 1.289 . S
C815 O807 1.258 . S
C815 O808 1.266 . S
C816 C817 1.369 . S
C816 C818 1.419 1_655 S
C816 H820 0.930 . S
C817 C816 1.369 . S
C817 C826 1.429 . S
C818 C816 1.419 1_455 S
C818 C819 1.363 . S
C818 H821 0.929 . S
C819 C818 1.363 . S
C819 C825 1.428 . S
H820 C816 0.930 . S
H821 C818 0.929 . S
S822 N823 1.613 1_455 S
S822 N824 1.610 . S
N823 S822 1.613 1_655 S
N823 C826 1.350 . S
N824 S822 1.610 . S
N824 C825 1.351 . S
C825 C819 1.428 . S
C825 N824 1.351 . S
C825 C826 1.434 1_455 S
C826 C817 1.429 . S
C826 N823 1.350 . S
C826 C825 1.434 1_655 S
C827 C828 1.369 . S
C827 C829 1.419 1_565 S
C827 H831 0.930 . S
C828 C827 1.369 . S
C828 C837 1.429 . S
C829 C827 1.419 1_545 S
C829 C830 1.363 . S
C829 H832 0.929 . S
C830 C829 1.363 . S
C830 C836 1.428 . S
H831 C827 0.930 . S
H832 C829 0.929 . S
S833 N834 1.613 1_545 S
S833 N835 1.610 . S
N834 S833 1.613 1_565 S
N834 C837 1.350 . S
N835 S833 1.610 . S
N835 C836 1.351 . S
C836 C830 1.428 . S
C836 N835 1.351 . S
C836 C837 1.434 1_545 S
C837 C828 1.429 . S
C837 N834 1.350 . S
C837 C836 1.434 1_565 S
C838 C839 1.369 . S
C838 C840 1.419 1_455 S
C838 H842 0.930 . S
C839 C838 1.369 . S
C839 C848 1.429 . S
C840 C838 1.419 1_655 S
C840 C841 1.363 . S
C840 H843 0.929 . S
C841 C840 1.363 . S
C841 C847 1.428 . S
H842 C838 0.930 . S
H843 C840 0.929 . S
S844 N845 1.613 . S
S844 N846 1.610 1_455 S
N845 S844 1.613 . S
N845 C848 1.350 . S
N846 S844 1.610 1_655 S
N846 C847 1.351 . S
C847 C841 1.428 . S
C847 N846 1.351 . S
C847 C848 1.434 1_655 S
C848 C839 1.429 . S
C848 N845 1.350 . S
C848 C847 1.434 1_455 S
C849 C850 1.369 . S
C849 C851 1.419 1_565 S
C849 H853 0.930 . S
C850 C849 1.369 . S
C850 C859 1.429 . S
C851 C849 1.419 1_545 S
C851 C852 1.363 . S
C851 H854 0.929 . S
C852 C851 1.363 . S
C852 C858 1.428 . S
H853 C849 0.930 . S
H854 C851 0.929 . S
S855 N856 1.613 1_545 S
S855 N857 1.610 . S
N856 S855 1.613 1_565 S
N856 C859 1.350 . S
N857 S855 1.610 . S
N857 C858 1.351 . S
C858 C852 1.428 . S
C858 N857 1.351 . S
C858 C859 1.434 1_545 S
C859 C850 1.429 . S
C859 N856 1.350 . S
C859 C858 1.434 1_565 S
C860 C861 1.369 . S
C860 C862 1.419 1_655 S
C860 H864 0.930 . S
C861 C860 1.369 . S
C861 C870 1.429 . S
C862 C860 1.419 1_455 S
C862 C863 1.363 . S
C862 H865 0.929 . S
C863 C862 1.363 . S
C863 C869 1.428 . S
H864 C860 0.930 . S
H865 C862 0.929 . S
S866 N867 1.613 1_455 S
S866 N868 1.610 . S
N867 S866 1.613 1_655 S
N867 C870 1.350 . S
N868 S866 1.610 . S
N868 C869 1.351 . S
C869 C863 1.428 . S
C869 N868 1.351 . S
C869 C870 1.434 1_455 S
C870 C861 1.429 . S
C870 N867 1.350 . S
C870 C869 1.434 1_655 S
C871 C872 1.369 . S
C871 C873 1.419 1_545 S
C871 H875 0.930 . S
C872 C871 1.369 . S
C872 C881 1.429 . S
C873 C871 1.419 1_565 S
C873 C874 1.363 . S
C873 H876 0.929 . S
C874 C873 1.363 . S
C874 C880 1.428 . S
H875 C871 0.930 . S
H876 C873 0.929 . S
S877 N878 1.613 1_565 S
S877 N879 1.610 . S
N878 S877 1.613 1_545 S
N878 C881 1.350 . S
N879 S877 1.610 . S
N879 C880 1.351 . S
C880 C874 1.428 . S
C880 N879 1.351 . S
C880 C881 1.434 1_565 S
C881 C872 1.429 . S
C881 N878 1.350 . S
C881 C880 1.434 1_545 S
C882 C883 1.369 . S
C882 C884 1.419 1_655 S
C882 H886 0.930 . S
C883 C882 1.369 . S
C883 C892 1.429 . S
C884 C882 1.419 1_455 S
C884 C885 1.363 . S
C884 H887 0.929 . S
C885 C884 1.363 . S
C885 C891 1.428 . S
H886 C882 0.930 . S
H887 C884 0.929 . S
S888 N889 1.613 . S
S888 N890 1.610 1_655 S
N889 S888 1.613 . S
N889 C892 1.350 . S
N890 S888 1.610 1_455 S
N890 C891 1.351 . S
C891 C885 1.428 . S
C891 N890 1.351 . S
C891 C892 1.434 1_455 S
C892 C883 1.429 . S
C892 N889 1.350 . S
C892 C891 1.434 1_655 S
C893 C894 1.369 . S
C893 C895 1.419 1_565 S
C893 H897 0.930 . S
C894 C893 1.369 . S
C894 C903 1.429 . S
C895 C893 1.419 1_545 S
C895 C896 1.363 . S
C895 H898 0.929 . S
C896 C895 1.363 . S
C896 C902 1.428 . S
H897 C893 0.930 . S
H898 C895 0.929 . S
S899 N900 1.613 1_545 S
S899 N901 1.610 . S
N900 S899 1.613 1_565 S
N900 C903 1.350 . S
N901 S899 1.610 . S
N901 C902 1.351 . S
C902 C896 1.428 . S
C902 N901 1.351 . S
C902 C903 1.434 1_545 S
C903 C894 1.429 . S
C903 N900 1.350 . S
C903 C902 1.434 1_565 S
C904 C905 1.369 . S
C904 C906 1.419 1_554 S
C904 H908 0.930 . S
C905 C904 1.369 . S
C905 C914 1.429 . S
C906 C904 1.419 1_556 S
C906 C907 1.363 . S
C906 H909 0.929 . S
C907 C906 1.363 . S
C907 C913 1.428 . S
H908 C904 0.930 . S
H909 C906 0.929 . S
S910 N911 1.613 1_556 S
S910 N912 1.610 . S
N911 S910 1.613 1_554 S
N911 C914 1.350 . S
N912 S910 1.610 . S
N912 C913 1.351 . S
C913 C907 1.428 . S
C913 N912 1.351 . S
C913 C914 1.434 1_556 S
C914 C905 1.429 . S
C914 N911 1.350 . S
C914 C913 1.434 1_554 S
C915 C916 1.369 . S
C915 C917 1.419 1_554 S
C915 H919 0.930 . S
C916 C915 1.369 . S
C916 C925 1.429 . S
C917 C915 1.419 1_556 S
C917 C918 1.363 . S
C917 H920 0.929 . S
C918 C917 1.363 . S
C918 C924 1.428 . S
H919 C915 0.930 . S
H920 C917 0.929 . S
S921 N922 1.613 1_556 S
S921 N923 1.610 . S
N922 S921 1.613 1_554 S
N922 C925 1.350 . S
N923 S921 1.610 . S
N923 C924 1.351 . S
C924 C918 1.428 . S
C924 N923 1.351 . S
C924 C925 1.434 1_556 S
C925 C916 1.429 . S
C925 N922 1.350 . S
C925 C924 1.434 1_554 S
C926 C927 1.369 . S
C926 C928 1.419 1_556 S
C926 H930 0.930 . S
C927 C926 1.369 . S
C927 C936 1.429 . S
C928 C926 1.419 1_554 S
C928 C929 1.363 . S
C928 H931 0.929 . S
C929 C928 1.363 . S
C929 C935 1.428 . S
H930 C926 0.930 . S
H931 C928 0.929 . S
S932 N933 1.613 . S
S932 N934 1.610 1_556 S
N933 S932 1.613 . S
N933 C936 1.350 . S
N934 S932 1.610 1_554 S
N934 C935 1.351 . S
C935 C929 1.428 . S
C935 N934 1.351 . S
C935 C936 1.434 1_554 S
C936 C927 1.429 . S
C936 N933 1.350 . S
C936 C935 1.434 1_556 S
C937 C938 1.369 . S
C937 C939 1.419 1_554 S
C937 H941 0.930 . S
C938 C937 1.369 . S
C938 C947 1.429 . S
C939 C937 1.419 1_556 S
C939 C940 1.363 . S
C939 H942 0.929 . S
C940 C939 1.363 . S
C940 C946 1.428 . S
H941 C937 0.930 . S
H942 C939 0.929 . S
S943 N944 1.613 . S
S943 N945 1.610 1_554 S
N944 S943 1.613 . S
N944 C947 1.350 . S
N945 S943 1.610 1_556 S
N945 C946 1.351 . S
C946 C940 1.428 . S
C946 N945 1.351 . S
C946 C947 1.434 1_556 S
C947 C938 1.429 . S
C947 N944 1.350 . S
C947 C946 1.434 1_554 S
C948 C949 1.369 . S
C948 C950 1.419 . S
C948 H952 0.930 . S
C949 C948 1.369 . S
C949 C958 1.429 . S
C950 C948 1.419 . S
C950 C951 1.363 . S
C950 H953 0.929 . S
C951 C950 1.363 . S
C951 C957 1.428 . S
H952 C948 0.930 . S
H953 C950 0.929 . S
S954 N955 1.613 . S
S954 N956 1.610 . S
N955 S954 1.613 . S
N955 C958 1.350 . S
N956 S954 1.610 . S
N956 C957 1.351 . S
C957 C951 1.428 . S
C957 N956 1.351 . S
C957 C958 1.434 . S
C958 C949 1.429 . S
C958 N955 1.350 . S
C958 C957 1.434 . S
C959 C960 1.369 . S
C959 C961 1.419 . S
C959 H963 0.930 . S
C960 C959 1.369 . S
C960 C969 1.429 . S
C961 C959 1.419 . S
C961 C962 1.363 . S
C961 H964 0.929 . S
C962 C961 1.363 . S
C962 C968 1.428 . S
H963 C959 0.930 . S
H964 C961 0.929 . S
S965 N966 1.613 . S
S965 N967 1.610 . S
N966 S965 1.613 . S
N966 C969 1.350 . S
N967 S965 1.610 . S
N967 C968 1.351 . S
C968 C962 1.428 . S
C968 N967 1.351 . S
C968 C969 1.434 . S
C969 C960 1.429 . S
C969 N966 1.350 . S
C969 C968 1.434 . S
C970 C971 1.369 . S
C970 C972 1.419 . S
C970 H974 0.930 . S
C971 C970 1.369 . S
C971 C980 1.429 . S
C972 C970 1.419 . S
C972 C973 1.363 . S
C972 H975 0.929 . S
C973 C972 1.363 . S
C973 C979 1.428 . S
H974 C970 0.930 . S
H975 C972 0.929 . S
S976 N977 1.613 . S
S976 N978 1.610 . S
N977 S976 1.613 . S
N977 C980 1.350 . S
N978 S976 1.610 . S
N978 C979 1.351 . S
C979 C973 1.428 . S
C979 N978 1.351 . S
C979 C980 1.434 . S
C980 C971 1.429 . S
C980 N977 1.350 . S
C980 C979 1.434 . S
C981 C982 1.369 . S
C981 C983 1.419 . S
C981 H985 0.930 . S
C982 C981 1.369 . S
C982 C991 1.429 . S
C983 C981 1.419 . S
C983 C984 1.363 . S
C983 H986 0.929 . S
C984 C983 1.363 . S
C984 C990 1.428 . S
H985 C981 0.930 . S
H986 C983 0.929 . S
S987 N988 1.613 . S
S987 N989 1.610 . S
N988 S987 1.613 . S
N988 C991 1.350 . S
N989 S987 1.610 . S
N989 C990 1.351 . S
C990 C984 1.428 . S
C990 N989 1.351 . S
C990 C991 1.434 . S
C991 C982 1.429 . S
C991 N988 1.350 . S
C991 C990 1.434 . S
C992 C993 1.369 . S
C992 C994 1.419 . S
C992 H996 0.930 . S
C993 C992 1.369 . S
C993 C1002 1.429 . S
C994 C992 1.419 . S
C994 C995 1.363 . S
C994 H997 0.929 . S
C995 C994 1.363 . S
C995 C1001 1.428 . S
H996 C992 0.930 . S
H997 C994 0.929 . S
S998 N999 1.613 . S
S998 N1000 1.610 . S
N999 S998 1.613 . S
N999 C1002 1.350 . S
N1000 S998 1.610 . S
N1000 C1001 1.351 . S
C1001 C995 1.428 . S
C1001 N1000 1.351 . S
C1001 C1002 1.434 . S
C1002 C993 1.429 . S
C1002 N999 1.350 . S
C1002 C1001 1.434 . S
C1003 C1004 1.369 . S
C1003 C1005 1.419 . S
C1003 H1007 0.930 . S
C1004 C1003 1.369 . S
C1004 C1013 1.429 . S
C1005 C1003 1.419 . S
C1005 C1006 1.363 . S
C1005 H1008 0.929 . S
C1006 C1005 1.363 . S
C1006 C1012 1.428 . S
H1007 C1003 0.930 . S
H1008 C1005 0.929 . S
S1009 N1010 1.613 . S
S1009 N1011 1.610 . S
N1010 S1009 1.613 . S
N1010 C1013 1.350 . S
N1011 S1009 1.610 . S
N1011 C1012 1.351 . S
C1012 C1006 1.428 . S
C1012 N1011 1.351 . S
C1012 C1013 1.434 . S
C1013 C1004 1.429 . S
C1013 N1010 1.350 . S
C1013 C1012 1.434 . S
C1014 C1015 1.369 . S
C1014 C1016 1.419 . S
C1014 H1018 0.930 . S
C1015 C1014 1.369 . S
C1015 C1024 1.429 . S
C1016 C1014 1.419 . S
C1016 C1017 1.363 . S
C1016 H1019 0.929 . S
C1017 C1016 1.363 . S
C1017 C1023 1.428 . S
H1018 C1014 0.930 . S
H1019 C1016 0.929 . S
S1020 N1021 1.613 . S
S1020 N1022 1.610 . S
N1021 S1020 1.613 . S
N1021 C1024 1.350 . S
N1022 S1020 1.610 . S
N1022 C1023 1.351 . S
C1023 C1017 1.428 . S
C1023 N1022 1.351 . S
C1023 C1024 1.434 . S
C1024 C1015 1.429 . S
C1024 N1021 1.350 . S
C1024 C1023 1.434 . S
C1025 C1026 1.369 . S
C1025 C1027 1.419 . S
C1025 H1029 0.930 . S
C1026 C1025 1.369 . S
C1026 C1035 1.429 . S
C1027 C1025 1.419 . S
C1027 C1028 1.363 . S
C1027 H1030 0.929 . S
C1028 C1027 1.363 . S
C1028 C1034 1.428 . S
H1029 C1025 0.930 . S
H1030 C1027 0.929 . S
S1031 N1032 1.613 . S
S1031 N1033 1.610 . S
N1032 S1031 1.613 . S
N1032 C1035 1.350 . S
N1033 S1031 1.610 . S
N1033 C1034 1.351 . S
C1034 C1028 1.428 . S
C1034 N1033 1.351 . S
C1034 C1035 1.434 . S
C1035 C1026 1.429 . S
C1035 N1032 1.350 . S
C1035 C1034 1.434 . S
C1036 C1037 1.369 . S
C1036 C1038 1.419 . S
C1036 H1040 0.930 . S
C1037 C1036 1.369 . S
C1037 C1046 1.429 . S
C1038 C1036 1.419 . S
C1038 C1039 1.363 . S
C1038 H1041 0.929 . S
C1039 C1038 1.363 . S
C1039 C1045 1.428 . S
H1040 C1036 0.930 . S
H1041 C1038 0.929 . S
S1042 N1043 1.613 . S
S1042 N1044 1.610 . S
N1043 S1042 1.613 . S
N1043 C1046 1.350 . S
N1044 S1042 1.610 . S
N1044 C1045 1.351 . S
C1045 C1039 1.428 . S
C1045 N1044 1.351 . S
C1045 C1046 1.434 . S
C1046 C1037 1.429 . S
C1046 N1043 1.350 . S
C1046 C1045 1.434 . S
C1047 C1048 1.369 . S
C1047 C1049 1.419 . S
C1047 H1051 0.930 . S
C1048 C1047 1.369 . S
C1048 C1057 1.429 . S
C1049 C1047 1.419 . S
C1049 C1050 1.363 . S
C1049 H1052 0.929 . S
C1050 C1049 1.363 . S
C1050 C1056 1.428 . S
H1051 C1047 0.930 . S
H1052 C1049 0.929 . S
S1053 N1054 1.613 . S
S1053 N1055 1.610 . S
N1054 S1053 1.613 . S
N1054 C1057 1.350 . S
N1055 S1053 1.610 . S
N1055 C1056 1.351 . S
C1056 C1050 1.428 . S
C1056 N1055 1.351 . S
C1056 C1057 1.434 . S
C1057 C1048 1.429 . S
C1057 N1054 1.350 . S
C1057 C1056 1.434 . S
C1058 C1059 1.369 . S
C1058 C1060 1.419 . S
C1058 H1062 0.930 . S
C1059 C1058 1.369 . S
C1059 C1068 1.429 . S
C1060 C1058 1.419 . S
C1060 C1061 1.363 . S
C1060 H1063 0.929 . S
C1061 C1060 1.363 . S
C1061 C1067 1.428 . S
H1062 C1058 0.930 . S
H1063 C1060 0.929 . S
S1064 N1065 1.613 . S
S1064 N1066 1.610 . S
N1065 S1064 1.613 . S
N1065 C1068 1.350 . S
N1066 S1064 1.610 . S
N1066 C1067 1.351 . S
C1067 C1061 1.428 . S
C1067 N1066 1.351 . S
C1067 C1068 1.434 . S
C1068 C1059 1.429 . S
C1068 N1065 1.350 . S
C1068 C1067 1.434 . S
C1069 C1070 1.369 . S
C1069 C1071 1.419 . S
C1069 H1073 0.930 . S
C1070 C1069 1.369 . S
C1070 C1079 1.429 . S
C1071 C1069 1.419 . S
C1071 C1072 1.363 . S
C1071 H1074 0.929 . S
C1072 C1071 1.363 . S
C1072 C1078 1.428 . S
H1073 C1069 0.930 . S
H1074 C1071 0.929 . S
S1075 N1076 1.613 . S
S1075 N1077 1.610 . S
N1076 S1075 1.613 . S
N1076 C1079 1.350 . S
N1077 S1075 1.610 . S
N1077 C1078 1.351 . S
C1078 C1072 1.428 . S
C1078 N1077 1.351 . S
C1078 C1079 1.434 . S
C1079 C1070 1.429 . S
C1079 N1076 1.350 . S
C1079 C1078 1.434 . S
C1080 C1081 1.369 . S
C1080 C1082 1.419 . S
C1080 H1084 0.930 . S
C1081 C1080 1.369 . S
C1081 C1090 1.429 . S
C1082 C1080 1.419 . S
C1082 C1083 1.363 . S
C1082 H1085 0.929 . S
C1083 C1082 1.363 . S
C1083 C1089 1.428 . S
H1084 C1080 0.930 . S
H1085 C1082 0.929 . S
S1086 N1087 1.613 . S
S1086 N1088 1.610 . S
N1087 S1086 1.613 . S
N1087 C1090 1.350 . S
N1088 S1086 1.610 . S
N1088 C1089 1.351 . S
C1089 C1083 1.428 . S
C1089 N1088 1.351 . S
C1089 C1090 1.434 . S
C1090 C1081 1.429 . S
C1090 N1087 1.350 . S
C1090 C1089 1.434 . S
C1091 C1092 1.369 . S
C1091 C1093 1.419 . S
C1091 H1095 0.930 . S
C1092 C1091 1.369 . S
C1092 C1101 1.429 . S
C1093 C1091 1.419 . S
C1093 C1094 1.363 . S
C1093 H1096 0.929 . S
C1094 C1093 1.363 . S
C1094 C1100 1.428 . S
H1095 C1091 0.930 . S
H1096 C1093 0.929 . S
S1097 N1098 1.613 . S
S1097 N1099 1.610 . S
N1098 S1097 1.613 . S
N1098 C1101 1.350 . S
N1099 S1097 1.610 . S
N1099 C1100 1.351 . S
C1100 C1094 1.428 . S
C1100 N1099 1.351 . S
C1100 C1101 1.434 . S
C1101 C1092 1.429 . S
C1101 N1098 1.350 . S
C1101 C1100 1.434 . S
C1102 C1103 1.369 . S
C1102 C1104 1.419 . S
C1102 H1106 0.930 . S
C1103 C1102 1.369 . S
C1103 C1112 1.429 . S
C1104 C1102 1.419 . S
C1104 C1105 1.363 . S
C1104 H1107 0.929 . S
C1105 C1104 1.363 . S
C1105 C1111 1.428 . S
H1106 C1102 0.930 . S
H1107 C1104 0.929 . S
S1108 N1109 1.613 . S
S1108 N1110 1.610 . S
N1109 S1108 1.613 . S
N1109 C1112 1.350 . S
N1110 S1108 1.610 . S
N1110 C1111 1.351 . S
C1111 C1105 1.428 . S
C1111 N1110 1.351 . S
C1111 C1112 1.434 . S
C1112 C1103 1.429 . S
C1112 N1109 1.350 . S
C1112 C1111 1.434 . S
C1113 C1114 1.369 . S
C1113 C1115 1.419 . S
C1113 H1117 0.930 . S
C1114 C1113 1.369 . S
C1114 C1123 1.429 . S
C1115 C1113 1.419 . S
C1115 C1116 1.363 . S
C1115 H1118 0.929 . S
C1116 C1115 1.363 . S
C1116 C1122 1.428 . S
H1117 C1113 0.930 . S
H1118 C1115 0.929 . S
S1119 N1120 1.613 . S
S1119 N1121 1.610 . S
N1120 S1119 1.613 . S
N1120 C1123 1.350 . S
N1121 S1119 1.610 . S
N1121 C1122 1.351 . S
C1122 C1116 1.428 . S
C1122 N1121 1.351 . S
C1122 C1123 1.434 . S
C1123 C1114 1.429 . S
C1123 N1120 1.350 . S
C1123 C1122 1.434 . S
C1124 C1125 1.369 . S
C1124 C1126 1.419 . S
C1124 H1128 0.930 . S
C1125 C1124 1.369 . S
C1125 C1134 1.429 . S
C1126 C1124 1.419 . S
C1126 C1127 1.363 . S
C1126 H1129 0.929 . S
C1127 C1126 1.363 . S
C1127 C1133 1.428 . S
H1128 C1124 0.930 . S
H1129 C1126 0.929 . S
S1130 N1131 1.613 . S
S1130 N1132 1.610 . S
N1131 S1130 1.613 . S
N1131 C1134 1.350 . S
N1132 S1130 1.610 . S
N1132 C1133 1.351 . S
C1133 C1127 1.428 . S
C1133 N1132 1.351 . S
C1133 C1134 1.434 . S
C1134 C1125 1.429 . S
C1134 N1131 1.350 . S
C1134 C1133 1.434 . S
C1135 C1136 1.369 . S
C1135 C1137 1.419 . S
C1135 H1139 0.930 . S
C1136 C1135 1.369 . S
C1136 C1145 1.429 . S
C1137 C1135 1.419 . S
C1137 C1138 1.363 . S
C1137 H1140 0.929 . S
C1138 C1137 1.363 . S
C1138 C1144 1.428 . S
H1139 C1135 0.930 . S
H1140 C1137 0.929 . S
S1141 N1142 1.613 . S
S1141 N1143 1.610 . S
N1142 S1141 1.613 . S
N1142 C1145 1.350 . S
N1143 S1141 1.610 . S
N1143 C1144 1.351 . S
C1144 C1138 1.428 . S
C1144 N1143 1.351 . S
C1144 C1145 1.434 . S
C1145 C1136 1.429 . S
C1145 N1142 1.350 . S
C1145 C1144 1.434 . S
C1146 C1147 1.369 . S
C1146 C1148 1.419 . S
C1146 H1150 0.930 . S
C1147 C1146 1.369 . S
C1147 C1156 1.429 . S
C1148 C1146 1.419 . S
C1148 C1149 1.363 . S
C1148 H1151 0.929 . S
C1149 C1148 1.363 . S
C1149 C1155 1.428 . S
H1150 C1146 0.930 . S
H1151 C1148 0.929 . S
S1152 N1153 1.613 . S
S1152 N1154 1.610 . S
N1153 S1152 1.613 . S
N1153 C1156 1.350 . S
N1154 S1152 1.610 . S
N1154 C1155 1.351 . S
C1155 C1149 1.428 . S
C1155 N1154 1.351 . S
C1155 C1156 1.434 . S
C1156 C1147 1.429 . S
C1156 N1153 1.350 . S
C1156 C1155 1.434 . S
C1157 C1158 1.369 . S
C1157 C1159 1.419 . S
C1157 H1161 0.930 . S
C1158 C1157 1.369 . S
C1158 C1167 1.429 . S
C1159 C1157 1.419 . S
C1159 C1160 1.363 . S
C1159 H1162 0.929 . S
C1160 C1159 1.363 . S
C1160 C1166 1.428 . S
H1161 C1157 0.930 . S
H1162 C1159 0.929 . S
S1163 N1164 1.613 . S
S1163 N1165 1.610 . S
N1164 S1163 1.613 . S
N1164 C1167 1.350 . S
N1165 S1163 1.610 . S
N1165 C1166 1.351 . S
C1166 C1160 1.428 . S
C1166 N1165 1.351 . S
C1166 C1167 1.434 . S
C1167 C1158 1.429 . S
C1167 N1164 1.350 . S
C1167 C1166 1.434 . S
C1168 C1169 1.369 . S
C1168 C1170 1.419 . S
C1168 H1172 0.930 . S
C1169 C1168 1.369 . S
C1169 C1178 1.429 . S
C1170 C1168 1.419 . S
C1170 C1171 1.363 . S
C1170 H1173 0.929 . S
C1171 C1170 1.363 . S
C1171 C1177 1.428 . S
H1172 C1168 0.930 . S
H1173 C1170 0.929 . S
S1174 N1175 1.613 . S
S1174 N1176 1.610 . S
N1175 S1174 1.613 . S
N1175 C1178 1.350 . S
N1176 S1174 1.610 . S
N1176 C1177 1.351 . S
C1177 C1171 1.428 . S
C1177 N1176 1.351 . S
C1177 C1178 1.434 . S
C1178 C1169 1.429 . S
C1178 N1175 1.350 . S
C1178 C1177 1.434 . S
C1179 C1180 1.369 . S
C1179 C1181 1.419 . S
C1179 H1183 0.930 . S
C1180 C1179 1.369 . S
C1180 C1189 1.429 . S
C1181 C1179 1.419 . S
C1181 C1182 1.363 . S
C1181 H1184 0.929 . S
C1182 C1181 1.363 . S
C1182 C1188 1.428 . S
H1183 C1179 0.930 . S
H1184 C1181 0.929 . S
S1185 N1186 1.613 . S
S1185 N1187 1.610 . S
N1186 S1185 1.613 . S
N1186 C1189 1.350 . S
N1187 S1185 1.610 . S
N1187 C1188 1.351 . S
C1188 C1182 1.428 . S
C1188 N1187 1.351 . S
C1188 C1189 1.434 . S
C1189 C1180 1.429 . S
C1189 N1186 1.350 . S
C1189 C1188 1.434 . S
C1190 C1191 1.369 . S
C1190 C1192 1.419 . S
C1190 H1194 0.930 . S
C1191 C1190 1.369 . S
C1191 C1200 1.429 . S
C1192 C1190 1.419 . S
C1192 C1193 1.363 . S
C1192 H1195 0.929 . S
C1193 C1192 1.363 . S
C1193 C1199 1.428 . S
H1194 C1190 0.930 . S
H1195 C1192 0.929 . S
S1196 N1197 1.613 . S
S1196 N1198 1.610 . S
N1197 S1196 1.613 . S
N1197 C1200 1.350 . S
N1198 S1196 1.610 . S
N1198 C1199 1.351 . S
C1199 C1193 1.428 . S
C1199 N1198 1.351 . S
C1199 C1200 1.434 . S
C1200 C1191 1.429 . S
C1200 N1197 1.350 . S
C1200 C1199 1.434 . S
C1201 C1202 1.369 . S
C1201 C1203 1.419 . S
C1201 H1205 0.930 . S
C1202 C1201 1.369 . S
C1202 C1211 1.429 . S
C1203 C1201 1.419 . S
C1203 C1204 1.363 . S
C1203 H1206 0.929 . S
C1204 C1203 1.363 . S
C1204 C1210 1.428 . S
H1205 C1201 0.930 . S
H1206 C1203 0.929 . S
S1207 N1208 1.613 . S
S1207 N1209 1.610 . S
N1208 S1207 1.613 . S
N1208 C1211 1.350 . S
N1209 S1207 1.610 . S
N1209 C1210 1.351 . S
C1210 C1204 1.428 . S
C1210 N1209 1.351 . S
C1210 C1211 1.434 . S
C1211 C1202 1.429 . S
C1211 N1208 1.350 . S
C1211 C1210 1.434 . S
C1212 C1213 1.369 . S
C1212 C1214 1.419 . S
C1212 H1216 0.930 . S
C1213 C1212 1.369 . S
C1213 C1222 1.429 . S
C1214 C1212 1.419 . S
C1214 C1215 1.363 . S
C1214 H1217 0.929 . S
C1215 C1214 1.363 . S
C1215 C1221 1.428 . S
H1216 C1212 0.930 . S
H1217 C1214 0.929 . S
S1218 N1219 1.613 . S
S1218 N1220 1.610 . S
N1219 S1218 1.613 . S
N1219 C1222 1.350 . S
N1220 S1218 1.610 . S
N1220 C1221 1.351 . S
C1221 C1215 1.428 . S
C1221 N1220 1.351 . S
C1221 C1222 1.434 . S
C1222 C1213 1.429 . S
C1222 N1219 1.350 . S
C1222 C1221 1.434 . S
C1223 C1224 1.369 . S
C1223 C1225 1.419 . S
C1223 H1227 0.930 . S
C1224 C1223 1.369 . S
C1224 C1233 1.429 . S
C1225 C1223 1.419 . S
C1225 C1226 1.363 . S
C1225 H1228 0.929 . S
C1226 C1225 1.363 . S
C1226 C1232 1.428 . S
H1227 C1223 0.930 . S
H1228 C1225 0.929 . S
S1229 N1230 1.613 . S
S1229 N1231 1.610 . S
N1230 S1229 1.613 . S
N1230 C1233 1.350 . S
N1231 S1229 1.610 . S
N1231 C1232 1.351 . S
C1232 C1226 1.428 . S
C1232 N1231 1.351 . S
C1232 C1233 1.434 . S
C1233 C1224 1.429 . S
C1233 N1230 1.350 . S
C1233 C1232 1.434 . S
C1234 C1235 1.369 . S
C1234 C1236 1.419 . S
C1234 H1238 0.930 . S
C1235 C1234 1.369 . S
C1235 C1244 1.429 . S
C1236 C1234 1.419 . S
C1236 C1237 1.363 . S
C1236 H1239 0.929 . S
C1237 C1236 1.363 . S
C1237 C1243 1.428 . S
H1238 C1234 0.930 . S
H1239 C1236 0.929 . S
S1240 N1241 1.613 . S
S1240 N1242 1.610 . S
N1241 S1240 1.613 . S
N1241 C1244 1.350 . S
N1242 S1240 1.610 . S
N1242 C1243 1.351 . S
C1243 C1237 1.428 . S
C1243 N1242 1.351 . S
C1243 C1244 1.434 . S
C1244 C1235 1.429 . S
C1244 N1241 1.350 . S
C1244 C1243 1.434 . S
C1245 C1246 1.369 . S
C1245 C1247 1.419 . S
C1245 H1249 0.930 . S
C1246 C1245 1.369 . S
C1246 C1255 1.429 . S
C1247 C1245 1.419 . S
C1247 C1248 1.363 . S
C1247 H1250 0.929 . S
C1248 C1247 1.363 . S
C1248 C1254 1.428 . S
H1249 C1245 0.930 . S
H1250 C1247 0.929 . S
S1251 N1252 1.613 . S
S1251 N1253 1.610 . S
N1252 S1251 1.613 . S
N1252 C1255 1.350 . S
N1253 S1251 1.610 . S
N1253 C1254 1.351 . S
C1254 C1248 1.428 . S
C1254 N1253 1.351 . S
C1254 C1255 1.434 . S
C1255 C1246 1.429 . S
C1255 N1252 1.350 . S
C1255 C1254 1.434 . S
C1256 C1257 1.369 . S
C1256 C1258 1.419 . S
C1256 H1260 0.930 . S
C1257 C1256 1.369 . S
C1257 C1266 1.429 . S
C1258 C1256 1.419 . S
C1258 C1259 1.363 . S
C1258 H1261 0.929 . S
C1259 C1258 1.363 . S
C1259 C1265 1.428 . S
H1260 C1256 0.930 . S
H1261 C1258 0.929 . S
S1262 N1263 1.613 . S
S1262 N1264 1.610 . S
N1263 S1262 1.613 . S
N1263 C1266 1.350 . S
N1264 S1262 1.610 . S
N1264 C1265 1.351 . S
C1265 C1259 1.428 . S
C1265 N1264 1.351 . S
C1265 C1266 1.434 . S
C1266 C1257 1.429 . S
C1266 N1263 1.350 . S
C1266 C1265 1.434 . S
C1267 C1268 1.369 . S
C1267 C1269 1.419 . S
C1267 H1271 0.930 . S
C1268 C1267 1.369 . S
C1268 C1277 1.429 . S
C1269 C1267 1.419 . S
C1269 C1270 1.363 . S
C1269 H1272 0.929 . S
C1270 C1269 1.363 . S
C1270 C1276 1.428 . S
H1271 C1267 0.930 . S
H1272 C1269 0.929 . S
S1273 N1274 1.613 . S
S1273 N1275 1.610 . S
N1274 S1273 1.613 . S
N1274 C1277 1.350 . S
N1275 S1273 1.610 . S
N1275 C1276 1.351 . S
C1276 C1270 1.428 . S
C1276 N1275 1.351 . S
C1276 C1277 1.434 . S
C1277 C1268 1.429 . S
C1277 N1274 1.350 . S
C1277 C1276 1.434 . S
C1278 C1279 1.369 . S
C1278 C1280 1.419 . S
C1278 H1282 0.930 . S
C1279 C1278 1.369 . S
C1279 C1288 1.429 . S
C1280 C1278 1.419 . S
C1280 C1281 1.363 . S
C1280 H1283 0.929 . S
C1281 C1280 1.363 . S
C1281 C1287 1.428 . S
H1282 C1278 0.930 . S
H1283 C1280 0.929 . S
S1284 N1285 1.613 . S
S1284 N1286 1.610 . S
N1285 S1284 1.613 . S
N1285 C1288 1.350 . S
N1286 S1284 1.610 . S
N1286 C1287 1.351 . S
C1287 C1281 1.428 . S
C1287 N1286 1.351 . S
C1287 C1288 1.434 . S
C1288 C1279 1.429 . S
C1288 N1285 1.350 . S
C1288 C1287 1.434 . S
C1289 C1290 1.369 . S
C1289 C1291 1.419 . S
C1289 H1293 0.930 . S
C1290 C1289 1.369 . S
C1290 C1299 1.429 . S
C1291 C1289 1.419 . S
C1291 C1292 1.363 . S
C1291 H1294 0.929 . S
C1292 C1291 1.363 . S
C1292 C1298 1.428 . S
H1293 C1289 0.930 . S
H1294 C1291 0.929 . S
S1295 N1296 1.613 . S
S1295 N1297 1.610 . S
N1296 S1295 1.613 . S
N1296 C1299 1.350 . S
N1297 S1295 1.610 . S
N1297 C1298 1.351 . S
C1298 C1292 1.428 . S
C1298 N1297 1.351 . S
C1298 C1299 1.434 . S
C1299 C1290 1.429 . S
C1299 N1296 1.350 . S
C1299 C1298 1.434 . S
C1300 C1301 1.369 . S
C1300 C1302 1.419 . S
C1300 H1304 0.930 . S
C1301 C1300 1.369 . S
C1301 C1310 1.429 . S
C1302 C1300 1.419 . S
C1302 C1303 1.363 . S
C1302 H1305 0.929 . S
C1303 C1302 1.363 . S
C1303 C1309 1.428 . S
H1304 C1300 0.930 . S
H1305 C1302 0.929 . S
S1306 N1307 1.613 . S
S1306 N1308 1.610 . S
N1307 S1306 1.613 . S
N1307 C1310 1.350 . S
N1308 S1306 1.610 . S
N1308 C1309 1.351 . S
C1309 C1303 1.428 . S
C1309 N1308 1.351 . S
C1309 C1310 1.434 . S
C1310 C1301 1.429 . S
C1310 N1307 1.350 . S
C1310 C1309 1.434 . S
C1311 C1312 1.369 . S
C1311 C1313 1.419 . S
C1311 H1315 0.930 . S
C1312 C1311 1.369 . S
C1312 C1321 1.429 . S
C1313 C1311 1.419 . S
C1313 C1314 1.363 . S
C1313 H1316 0.929 . S
C1314 C1313 1.363 . S
C1314 C1320 1.428 . S
H1315 C1311 0.930 . S
H1316 C1313 0.929 . S
S1317 N1318 1.613 . S
S1317 N1319 1.610 . S
N1318 S1317 1.613 . S
N1318 C1321 1.350 . S
N1319 S1317 1.610 . S
N1319 C1320 1.351 . S
C1320 C1314 1.428 . S
C1320 N1319 1.351 . S
C1320 C1321 1.434 . S
C1321 C1312 1.429 . S
C1321 N1318 1.350 . S
C1321 C1320 1.434 . S
C1322 C1323 1.369 . S
C1322 C1324 1.419 . S
C1322 H1326 0.930 . S
C1323 C1322 1.369 . S
C1323 C1332 1.429 . S
C1324 C1322 1.419 . S
C1324 C1325 1.363 . S
C1324 H1327 0.929 . S
C1325 C1324 1.363 . S
C1325 C1331 1.428 . S
H1326 C1322 0.930 . S
H1327 C1324 0.929 . S
S1328 N1329 1.613 . S
S1328 N1330 1.610 . S
N1329 S1328 1.613 . S
N1329 C1332 1.350 . S
N1330 S1328 1.610 . S
N1330 C1331 1.351 . S
C1331 C1325 1.428 . S
C1331 N1330 1.351 . S
C1331 C1332 1.434 . S
C1332 C1323 1.429 . S
C1332 N1329 1.350 . S
C1332 C1331 1.434 . S
C1333 C1334 1.369 . S
C1333 C1335 1.419 . S
C1333 H1337 0.930 . S
C1334 C1333 1.369 . S
C1334 C1343 1.429 . S
C1335 C1333 1.419 . S
C1335 C1336 1.363 . S
C1335 H1338 0.929 . S
C1336 C1335 1.363 . S
C1336 C1342 1.428 . S
H1337 C1333 0.930 . S
H1338 C1335 0.929 . S
S1339 N1340 1.613 . S
S1339 N1341 1.610 . S
N1340 S1339 1.613 . S
N1340 C1343 1.350 . S
N1341 S1339 1.610 . S
N1341 C1342 1.351 . S
C1342 C1336 1.428 . S
C1342 N1341 1.351 . S
C1342 C1343 1.434 . S
C1343 C1334 1.429 . S
C1343 N1340 1.350 . S
C1343 C1342 1.434 . S
C1344 C1345 1.369 . S
C1344 C1346 1.419 1_455 S
C1344 H1348 0.930 . S
C1345 C1344 1.369 . S
C1345 C1354 1.429 . S
C1346 C1344 1.419 1_655 S
C1346 C1347 1.363 . S
C1346 H1349 0.929 . S
C1347 C1346 1.363 . S
C1347 C1353 1.428 . S
H1348 C1344 0.930 . S
H1349 C1346 0.929 . S
S1350 N1351 1.613 1_655 S
S1350 N1352 1.610 . S
N1351 S1350 1.613 1_455 S
N1351 C1354 1.350 . S
N1352 S1350 1.610 . S
N1352 C1353 1.351 . S
C1353 C1347 1.428 . S
C1353 N1352 1.351 . S
C1353 C1354 1.434 1_655 S
C1354 C1345 1.429 . S
C1354 N1351 1.350 . S
C1354 C1353 1.434 1_455 S
C1355 C1356 1.369 . S
C1355 C1357 1.419 1_545 S
C1355 H1359 0.930 . S
C1356 C1355 1.369 . S
C1356 C1365 1.429 . S
C1357 C1355 1.419 1_565 S
C1357 C1358 1.363 . S
C1357 H1360 0.929 . S
C1358 C1357 1.363 . S
C1358 C1364 1.428 . S
H1359 C1355 0.930 . S
H1360 C1357 0.929 . S
S1361 N1362 1.613 1_565 S
S1361 N1363 1.610 . S
N1362 S1361 1.613 1_545 S
N1362 C1365 1.350 . S
N1363 S1361 1.610 . S
N1363 C1364 1.351 . S
C1364 C1358 1.428 . S
C1364 N1363 1.351 . S
C1364 C1365 1.434 1_565 S
C1365 C1356 1.429 . S
C1365 N1362 1.350 . S
C1365 C1364 1.434 1_545 S
C1366 C1367 1.369 . S
C1366 C1368 1.419 1_455 S
C1366 H1370 0.930 . S
C1367 C1366 1.369 . S
C1367 C1376 1.429 . S
C1368 C1366 1.419 1_655 S
C1368 C1369 1.363 . S
C1368 H1371 0.929 . S
C1369 C1368 1.363 . S
C1369 C1375 1.428 . S
H1370 C1366 0.930 . S
H1371 C1368 0.929 . S
S1372 N1373 1.613 . S
S1372 N1374 1.610 . S
N1373 S1372 1.613 . S
N1373 C1376 1.350 1_655 S
N1374 S1372 1.610 . S
N1374 C1375 1.351 . S
C1375 C1369 1.428 . S
C1375 N1374 1.351 . S
C1375 C1376 1.434 1_655 S
C1376 C1367 1.429 . S
C1376 N1373 1.350 1_455 S
C1376 C1375 1.434 1_455 S
C1377 C1378 1.369 . S
C1377 C1379 1.419 1_565 S
C1377 H1381 0.930 . S
C1378 C1377 1.369 . S
C1378 C1387 1.429 . S
C1379 C1377 1.419 1_545 S
C1379 C1380 1.363 . S
C1379 H1382 0.929 . S
C1380 C1379 1.363 . S
C1380 C1386 1.428 . S
H1381 C1377 0.930 . S
H1382 C1379 0.929 . S
S1383 N1384 1.613 1_545 S
S1383 N1385 1.610 . S
N1384 S1383 1.613 1_565 S
N1384 C1387 1.350 . S
N1385 S1383 1.610 . S
N1385 C1386 1.351 . S
C1386 C1380 1.428 . S
C1386 N1385 1.351 . S
C1386 C1387 1.434 1_545 S
C1387 C1378 1.429 . S
C1387 N1384 1.350 . S
C1387 C1386 1.434 1_565 S
C1388 C1389 1.369 . S
C1388 C1390 1.419 1_565 S
C1388 H1392 0.930 . S
C1389 C1388 1.369 . S
C1389 C1398 1.429 . S
C1390 C1388 1.419 1_545 S
C1390 C1391 1.363 . S
C1390 H1393 0.929 . S
C1391 C1390 1.363 . S
C1391 C1397 1.455 . S
H1392 C1388 0.930 . S
H1393 C1390 0.929 . S
S1394 N1395 1.613 . S
S1394 N1396 1.610 . S
N1395 S1394 1.613 . S
N1395 C1398 1.350 . S
N1396 S1394 1.610 . S
N1396 C1397 1.348 1_565 S
C1397 C1391 1.455 . S
C1397 N1396 1.348 1_545 S
C1397 C1398 1.407 1_545 S
C1398 C1389 1.429 . S
C1398 N1395 1.350 . S
C1398 C1397 1.407 1_565 S
C1399 C1400 1.369 . S
C1399 C1401 1.419 1_455 S
C1399 H1403 0.930 . S
C1400 C1399 1.369 . S
C1400 C1409 1.429 . S
C1401 C1399 1.419 1_655 S
C1401 C1402 1.363 . S
C1401 H1404 0.929 . S
C1402 C1401 1.363 . S
C1402 C1408 1.428 . S
H1403 C1399 0.930 . S
H1404 C1401 0.929 . S
S1405 N1406 1.613 . S
S1405 N1407 1.610 1_455 S
N1406 S1405 1.613 . S
N1406 C1409 1.350 . S
N1407 S1405 1.610 1_655 S
N1407 C1408 1.351 . S
C1408 C1402 1.428 . S
C1408 N1407 1.351 . S
C1408 C1409 1.434 1_655 S
C1409 C1400 1.429 . S
C1409 N1406 1.350 . S
C1409 C1408 1.434 1_455 S
C1410 C1411 1.369 . S
C1410 C1412 1.419 1_545 S
C1410 H1414 0.930 . S
C1411 C1410 1.369 . S
C1411 C1420 1.429 . S
C1412 C1410 1.419 1_565 S
C1412 C1413 1.363 . S
C1412 H1415 0.929 . S
C1413 C1412 1.363 . S
C1413 C1419 1.428 . S
H1414 C1410 0.930 . S
H1415 C1412 0.929 . S
S1416 N1417 1.613 . S
S1416 N1418 1.610 1_545 S
N1417 S1416 1.613 . S
N1417 C1420 1.350 . S
N1418 S1416 1.610 1_565 S
N1418 C1419 1.351 . S
C1419 C1413 1.428 . S
C1419 N1418 1.351 . S
C1419 C1420 1.434 1_565 S
C1420 C1411 1.429 . S
C1420 N1417 1.350 . S
C1420 C1419 1.434 1_545 S
C1421 C1422 1.369 . S
C1421 C1423 1.419 1_655 S
C1421 H1425 0.930 . S
C1422 C1421 1.369 . S
C1422 C1431 1.429 . S
C1423 C1421 1.419 1_455 S
C1423 C1424 1.363 . S
C1423 H1426 0.929 . S
C1424 C1423 1.363 . S
C1424 C1430 1.428 . S
H1425 C1421 0.930 . S
H1426 C1423 0.929 . S
S1427 N1428 1.613 . S
S1427 N1429 1.610 . S
N1428 S1427 1.613 . S
N1428 C1431 1.350 . S
N1429 S1427 1.610 . S
N1429 C1430 1.351 1_655 S
C1430 C1424 1.428 . S
C1430 N1429 1.351 1_455 S
C1430 C1431 1.434 1_455 S
C1431 C1422 1.429 . S
C1431 N1428 1.350 . S
C1431 C1430 1.434 1_655 S
C1432 C1433 1.369 . S
C1432 C1434 1.419 1_556 S
C1432 H1436 0.930 . S
C1433 C1432 1.369 . S
C1433 C1442 1.429 . S
C1434 C1432 1.419 1_554 S
C1434 C1435 1.363 . S
C1434 H1437 0.929 . S
C1435 C1434 1.363 . S
C1435 C1441 1.428 . S
H1436 C1432 0.930 . S
H1437 C1434 0.929 . S
S1438 N1439 1.613 . S
S1438 N1440 1.610 1_556 S
N1439 S1438 1.613 . S
N1439 C1442 1.350 . S
N1440 S1438 1.610 1_554 S
N1440 C1441 1.351 . S
C1441 C1435 1.428 . S
C1441 N1440 1.351 . S
C1441 C1442 1.434 1_554 S
C1442 C1433 1.429 . S
C1442 N1439 1.350 . S
C1442 C1441 1.434 1_556 S
C1443 C1444 1.369 . S
C1443 C1445 1.419 1_554 S
C1443 H1447 0.930 . S
C1444 C1443 1.369 . S
C1444 C1453 1.429 . S
C1445 C1443 1.419 1_556 S
C1445 C1446 1.363 . S
C1445 H1448 0.929 . S
C1446 C1445 1.363 . S
C1446 C1452 1.428 . S
H1447 C1443 0.930 . S
H1448 C1445 0.929 . S
S1449 N1450 1.613 . S
S1449 N1451 1.610 1_554 S
N1450 S1449 1.613 . S
N1450 C1453 1.350 . S
N1451 S1449 1.610 1_556 S
N1451 C1452 1.351 . S
C1452 C1446 1.428 . S
C1452 N1451 1.351 . S
C1452 C1453 1.434 1_556 S
C1453 C1444 1.429 . S
C1453 N1450 1.350 . S
C1453 C1452 1.434 1_554 S
C1454 C1455 1.369 . S
C1454 C1456 1.419 1_556 S
C1454 H1458 0.930 . S
C1455 C1454 1.369 . S
C1455 C1464 1.429 . S
C1456 C1454 1.419 1_554 S
C1456 C1457 1.363 . S
C1456 H1459 0.929 . S
C1457 C1456 1.363 . S
C1457 C1463 1.456 . S
H1458 C1454 0.930 . S
H1459 C1456 0.929 . S
S1460 N1461 1.613 . S
S1460 N1462 1.610 . S
N1461 S1460 1.613 . S
N1461 C1464 1.350 . S
N1462 S1460 1.610 . S
N1462 C1463 1.348 1_556 S
C1463 C1457 1.456 . S
C1463 N1462 1.348 1_554 S
C1463 C1464 1.406 1_554 S
C1464 C1455 1.429 . S
C1464 N1461 1.350 . S
C1464 C1463 1.406 1_556 S
C1465 C1466 1.369 . S
C1465 C1467 1.419 1_554 S
C1465 H1469 0.930 . S
C1466 C1465 1.369 . S
C1466 C1475 1.429 . S
C1467 C1465 1.419 1_556 S
C1467 C1468 1.363 . S
C1467 H1470 0.929 . S
C1468 C1467 1.363 . S
C1468 C1474 1.428 . S
H1469 C1465 0.930 . S
H1470 C1467 0.929 . S
S1471 N1472 1.613 1_556 S
S1471 N1473 1.610 . S
N1472 S1471 1.613 1_554 S
N1472 C1475 1.350 . S
N1473 S1471 1.610 . S
N1473 C1474 1.351 . S
C1474 C1468 1.428 . S
C1474 N1473 1.351 . S
C1474 C1475 1.434 1_556 S
C1475 C1466 1.429 . S
C1475 N1472 1.350 . S
C1475 C1474 1.434 1_554 S
C817 C326 1.857 . S
C819 C20 1.858 . S
C828 C360 1.851 . S
C830 C54 1.854 . S
C839 C394 1.859 . S
C841 C88 1.857 . S
C850 C122 1.851 . S
C852 C292 1.852 . S
C861 C530 1.853 . S
C863 C156 1.857 . S
C872 C190 1.857 . S
C874 C428 1.858 . S
C883 C224 1.858 . S
C885 C462 1.858 . S
C894 C258 1.851 . S
C896 C496 1.852 . S
C905 C564 1.856 . S
C907 C632 1.858 . S
C916 C768 1.856 . S
C918 C598 1.858 . S
C927 C666 1.858 . S
C929 C802 1.854 . S
C938 C734 1.854 . S
C940 C700 1.852 . S
C949 C781 2.013 . S
C951 C33 2.011 . S
C960 C577 2.010 . S
C962 C67 2.017 . S
C971 C815 2.019 . S
C973 C101 2.010 . S
C982 C135 2.017 . S
C984 C747 2.012 . S
C993 C645 2.008 . S
C995 C169 2.018 . S
C1004 C679 2.019 . S
C1006 C203 2.008 . S
C1015 C713 2.007 . S
C1017 C237 2.018 . S
C1026 C611 2.010 . S
C1028 C271 2.013 . S
C1037 C305 2.013 . S
C1039 C475 2.015 . S
C1048 C509 2.007 . S
C1050 C339 2.018 . S
C1059 C543 2.019 . S
C1061 C373 2.010 . S
C1070 C441 2.011 . S
C1072 C407 2.016 . S
C1081 C444 2.084 . S
C1083 C9 2.038 . S
C1092 C43 2.037 . S
C1094 C478 2.087 . S
C1103 C512 2.085 . S
C1105 C77 2.038 . S
C1114 C410 2.087 . S
C1116 C111 2.033 . S
C1125 C376 2.084 . S
C1127 C145 2.033 . S
C1136 C179 2.038 . S
C1138 C274 2.086 . S
C1147 C308 2.083 . S
C1149 C213 2.038 . S
C1158 C342 2.083 . S
C1160 C247 2.038 . S
C1169 C281 2.032 . S
C1171 C36 2.086 . S
C1180 C70 2.086 . S
C1182 C315 2.037 . S
C1191 C349 2.038 . S
C1193 C104 2.084 . S
C1202 C2 2.087 . S
C1204 C383 2.033 . S
C1213 C417 2.034 . S
C1215 C240 2.087 . S
C1224 C138 2.087 . S
C1226 C451 2.033 . S
C1235 C172 2.087 . S
C1237 C485 2.033 . S
C1246 C519 2.037 . S
C1248 C206 2.083 . S
C1257 C553 2.035 . S
C1259 C750 2.083 . S
C1268 C587 2.032 . S
C1270 C614 2.085 . S
C1279 C621 2.037 . S
C1281 C648 2.086 . S
C1290 C682 2.085 . S
C1292 C655 2.038 . S
C1301 C580 2.086 . S
C1303 C689 2.037 . S
C1312 C784 2.084 . S
C1314 C723 2.038 . S
C1323 C757 2.032 . S
C1325 C716 2.085 . S
C1334 C546 2.084 . S
C1336 C791 2.038 . S
C1345 C5 1.042 . S
C1347 C73 1.042 . S
C1356 C39 1.029 . S
C1358 C107 1.032 . S
C1367 C141 1.040 . S
C1369 C209 1.040 . S
C1378 C243 1.042 . S
C1380 C175 1.042 . S
C1389 C413 1.035 . S
C1391 C277 1.033 . S
C1400 C447 1.029 . S
C1402 C311 1.030 . S
C1411 C481 1.041 . S
C1413 C345 1.038 . S
C1422 C515 1.037 . S
C1424 C379 1.035 . S
C1433 C651 1.027 . S
C1435 C549 1.029 . S
C1444 C719 1.027 . S
C1446 C583 1.029 . S
C1455 C617 1.035 . S
C1457 C753 1.033 . S
C1466 C787 1.030 . S
C1468 C685 1.033 . S
