# Generated by pormake.
# Topology hbo, (4)-cn, num edge types: 1
# Building blocks:
#     Node 0, Type 0, BuildingBlock: CEKHIL_clean_sbu_0, # of connection points: 4
#     Node 1, Type 0, BuildingBlock: CEKHIL_clean_sbu_0, # of connection points: 4
#     Node 2, Type 0, BuildingBlock: CEKHIL_clean_sbu_0, # of connection points: 4
#     Node 3, Type 0, BuildingBlock: CEKHIL_clean_sbu_0, # of connection points: 4
#     Node 4, Type 0, BuildingBlock: CEKHIL_clean_sbu_0, # of connection points: 4
#     Node 5, Type 0, BuildingBlock: CEKHIL_clean_sbu_0, # of connection points: 4
#     Node 6, Type 0, BuildingBlock: CEKHIL_clean_sbu_0, # of connection points: 4
#     Node 7, Type 0, BuildingBlock: CEKHIL_clean_sbu_0, # of connection points: 4
#     Node 8, Type 0, BuildingBlock: CEKHIL_clean_sbu_0, # of connection points: 4
#     Node 9, Type 0, BuildingBlock: CEKHIL_clean_sbu_0, # of connection points: 4
#     Node 10, Type 0, BuildingBlock: CEKHIL_clean_sbu_0, # of connection points: 4
#     Node 11, Type 0, BuildingBlock: CEKHIL_clean_sbu_0, # of connection points: 4
#     Node 12, Type 0, BuildingBlock: CEKHIL_clean_sbu_0, # of connection points: 4
#     Node 13, Type 0, BuildingBlock: CEKHIL_clean_sbu_0, # of connection points: 4
#     Node 14, Type 0, BuildingBlock: CEKHIL_clean_sbu_0, # of connection points: 4
#     Node 15, Type 0, BuildingBlock: CEKHIL_clean_sbu_0, # of connection points: 4
#     Node 16, Type 0, BuildingBlock: CEKHIL_clean_sbu_0, # of connection points: 4
#     Node 17, Type 0, BuildingBlock: CEKHIL_clean_sbu_0, # of connection points: 4
#     Node 18, Type 0, BuildingBlock: CEKHIL_clean_sbu_0, # of connection points: 4
#     Node 19, Type 0, BuildingBlock: CEKHIL_clean_sbu_0, # of connection points: 4
#     Node 20, Type 0, BuildingBlock: CEKHIL_clean_sbu_0, # of connection points: 4
#     Node 21, Type 0, BuildingBlock: CEKHIL_clean_sbu_0, # of connection points: 4
#     Node 22, Type 0, BuildingBlock: CEKHIL_clean_sbu_0, # of connection points: 4
#     Node 23, Type 0, BuildingBlock: CEKHIL_clean_sbu_0, # of connection points: 4
#     Edge 24, Type (0, 0), BuildingBlock: XIVTED_clean_linker_0, # of connection points: 2
#     Edge 25, Type (0, 0), BuildingBlock: XIVTED_clean_linker_0, # of connection points: 2
#     Edge 26, Type (0, 0), BuildingBlock: XIVTED_clean_linker_0, # of connection points: 2
#     Edge 27, Type (0, 0), BuildingBlock: XIVTED_clean_linker_0, # of connection points: 2
#     Edge 28, Type (0, 0), BuildingBlock: XIVTED_clean_linker_0, # of connection points: 2
#     Edge 29, Type (0, 0), BuildingBlock: XIVTED_clean_linker_0, # of connection points: 2
#     Edge 30, Type (0, 0), BuildingBlock: XIVTED_clean_linker_0, # of connection points: 2
#     Edge 31, Type (0, 0), BuildingBlock: XIVTED_clean_linker_0, # of connection points: 2
#     Edge 32, Type (0, 0), BuildingBlock: XIVTED_clean_linker_0, # of connection points: 2
#     Edge 33, Type (0, 0), BuildingBlock: XIVTED_clean_linker_0, # of connection points: 2
#     Edge 34, Type (0, 0), BuildingBlock: XIVTED_clean_linker_0, # of connection points: 2
#     Edge 35, Type (0, 0), BuildingBlock: XIVTED_clean_linker_0, # of connection points: 2
#     Edge 36, Type (0, 0), BuildingBlock: XIVTED_clean_linker_0, # of connection points: 2
#     Edge 37, Type (0, 0), BuildingBlock: XIVTED_clean_linker_0, # of connection points: 2
#     Edge 38, Type (0, 0), BuildingBlock: XIVTED_clean_linker_0, # of connection points: 2
#     Edge 39, Type (0, 0), BuildingBlock: XIVTED_clean_linker_0, # of connection points: 2
#     Edge 40, Type (0, 0), BuildingBlock: XIVTED_clean_linker_0, # of connection points: 2
#     Edge 41, Type (0, 0), BuildingBlock: XIVTED_clean_linker_0, # of connection points: 2
#     Edge 42, Type (0, 0), BuildingBlock: XIVTED_clean_linker_0, # of connection points: 2
#     Edge 43, Type (0, 0), BuildingBlock: XIVTED_clean_linker_0, # of connection points: 2
#     Edge 44, Type (0, 0), BuildingBlock: XIVTED_clean_linker_0, # of connection points: 2
#     Edge 45, Type (0, 0), BuildingBlock: XIVTED_clean_linker_0, # of connection points: 2
#     Edge 46, Type (0, 0), BuildingBlock: XIVTED_clean_linker_0, # of connection points: 2
#     Edge 47, Type (0, 0), BuildingBlock: XIVTED_clean_linker_0, # of connection points: 2
#     Edge 48, Type (0, 0), BuildingBlock: XIVTED_clean_linker_0, # of connection points: 2
#     Edge 49, Type (0, 0), BuildingBlock: XIVTED_clean_linker_0, # of connection points: 2
#     Edge 50, Type (0, 0), BuildingBlock: XIVTED_clean_linker_0, # of connection points: 2
#     Edge 51, Type (0, 0), BuildingBlock: XIVTED_clean_linker_0, # of connection points: 2
#     Edge 52, Type (0, 0), BuildingBlock: XIVTED_clean_linker_0, # of connection points: 2
#     Edge 53, Type (0, 0), BuildingBlock: XIVTED_clean_linker_0, # of connection points: 2
#     Edge 54, Type (0, 0), BuildingBlock: XIVTED_clean_linker_0, # of connection points: 2
#     Edge 55, Type (0, 0), BuildingBlock: XIVTED_clean_linker_0, # of connection points: 2
#     Edge 56, Type (0, 0), BuildingBlock: XIVTED_clean_linker_0, # of connection points: 2
#     Edge 57, Type (0, 0), BuildingBlock: XIVTED_clean_linker_0, # of connection points: 2
#     Edge 58, Type (0, 0), BuildingBlock: XIVTED_clean_linker_0, # of connection points: 2
#     Edge 59, Type (0, 0), BuildingBlock: XIVTED_clean_linker_0, # of connection points: 2
#     Edge 60, Type (0, 0), BuildingBlock: XIVTED_clean_linker_0, # of connection points: 2
#     Edge 61, Type (0, 0), BuildingBlock: XIVTED_clean_linker_0, # of connection points: 2
#     Edge 62, Type (0, 0), BuildingBlock: XIVTED_clean_linker_0, # of connection points: 2
#     Edge 63, Type (0, 0), BuildingBlock: XIVTED_clean_linker_0, # of connection points: 2
#     Edge 64, Type (0, 0), BuildingBlock: XIVTED_clean_linker_0, # of connection points: 2
#     Edge 65, Type (0, 0), BuildingBlock: XIVTED_clean_linker_0, # of connection points: 2
#     Edge 66, Type (0, 0), BuildingBlock: XIVTED_clean_linker_0, # of connection points: 2
#     Edge 67, Type (0, 0), BuildingBlock: XIVTED_clean_linker_0, # of connection points: 2
#     Edge 68, Type (0, 0), BuildingBlock: XIVTED_clean_linker_0, # of connection points: 2
#     Edge 69, Type (0, 0), BuildingBlock: XIVTED_clean_linker_0, # of connection points: 2
#     Edge 70, Type (0, 0), BuildingBlock: XIVTED_clean_linker_0, # of connection points: 2
#     Edge 71, Type (0, 0), BuildingBlock: XIVTED_clean_linker_0, # of connection points: 2
# Relax obj value: 0.228
# Max RMSD: 0.244
# Mean RMSD: 0.240
data_MOF--net-hbo--node1-CEKHIL_clean_sbu_0--edge1-XIVTED_clean_linker_0
_symmetry_space_group_name_H-M    P1
_symmetry_Int_Tables_number       1
_symmetry_cell_setting            triclinic
loop_
_symmetry_equiv_pos_as_xyz
'x, y, z'
_cell_length_a     52.616484
_cell_length_b     51.764795
_cell_length_c     51.772694
_cell_angle_alpha  89.843501
_cell_angle_beta   89.834996
_cell_angle_gamma 89.105138
loop_
_atom_site_label
_atom_site_type_symbol
_atom_site_fract_x
_atom_site_fract_y
_atom_site_fract_z
_atom_type_partial_charge
Co0 Co 0.1216 0.3436 0.23495 0.0
O1 O 0.08643 0.35251 0.23885 0.0
O2 O 0.10603 0.34626 0.20121 0.0
C3 C 0.12357 0.31199 0.26449 0.0
O4 O 0.15755 0.33343 0.22406 0.0
Co5 Co 0.15775 0.35383 0.28106 0.0
O6 O 0.18301 0.33552 0.25893 0.0
C7 C 0.138 0.39738 0.25077 0.0
C8 C 0.08527 0.35187 0.21385 0.0
C9 C 0.17916 0.32998 0.23529 0.0
O10 O 0.12994 0.38123 0.23404 0.0
O11 O 0.14765 0.39045 0.27242 0.0
O12 O 0.11476 0.30751 0.24156 0.0
O13 O 0.12754 0.33602 0.26982 0.0
Co14 Co 0.11351 0.67066 0.72255 0.0
O15 O 0.07811 0.66687 0.71462 0.0
O16 O 0.09446 0.66733 0.75411 0.0
C17 C 0.12302 0.70373 0.69653 0.0
O18 O 0.1485 0.67522 0.73826 0.0
Co19 Co 0.15434 0.6583 0.681 0.0
O20 O 0.17809 0.67252 0.70687 0.0
C21 C 0.12764 0.61574 0.70525 0.0
C22 C 0.07461 0.66514 0.73945 0.0
C23 C 0.17155 0.67714 0.73014 0.0
O24 O 0.11814 0.63209 0.72133 0.0
O25 O 0.14124 0.62241 0.68591 0.0
O26 O 0.11108 0.70781 0.7182 0.0
O27 O 0.12471 0.67976 0.68941 0.0
Co28 Co 0.88071 0.64059 0.23659 0.0
O29 O 0.91629 0.63243 0.23679 0.0
O30 O 0.89147 0.63142 0.20211 0.0
C31 C 0.88241 0.67711 0.2596 0.0
O32 O 0.84364 0.64892 0.22878 0.0
Co33 Co 0.84956 0.64192 0.28774 0.0
O34 O 0.82242 0.65716 0.26574 0.0
C35 C 0.8684 0.59242 0.26689 0.0
C36 C 0.91393 0.62838 0.21217 0.0
C37 C 0.82371 0.65671 0.24116 0.0
O38 O 0.87335 0.60348 0.2452 0.0
O39 O 0.86096 0.60485 0.28694 0.0
O40 O 0.88759 0.67746 0.23504 0.0
O41 O 0.87925 0.65454 0.26969 0.0
Co42 Co 0.88091 0.32845 0.71333 0.0
O43 O 0.91645 0.33349 0.70674 0.0
O44 O 0.89876 0.33065 0.74561 0.0
C45 C 0.87318 0.2965 0.68556 0.0
O46 O 0.8455 0.32232 0.72766 0.0
Co47 Co 0.8413 0.34209 0.67114 0.0
O48 O 0.81682 0.32652 0.69569 0.0
C49 C 0.86633 0.38388 0.69806 0.0
C50 C 0.91903 0.3341 0.73171 0.0
C51 C 0.82272 0.32068 0.71886 0.0
O52 O 0.87546 0.36689 0.71372 0.0
O53 O 0.85356 0.37797 0.678 0.0
O54 O 0.88442 0.29165 0.70741 0.0
O55 O 0.87107 0.32077 0.67946 0.0
Co56 Co 0.22831 0.12783 0.36793 0.0
O57 O 0.21343 0.1265 0.40152 0.0
O58 O 0.25482 0.12315 0.39357 0.0
C59 C 0.20622 0.16265 0.35427 0.0
O60 O 0.25015 0.12933 0.33538 0.0
Co61 Co 0.19366 0.11876 0.32054 0.0
O62 O 0.22442 0.12825 0.30069 0.0
C63 C 0.20802 0.07505 0.35381 0.0
C64 C 0.23633 0.12365 0.41035 0.0
C65 C 0.24634 0.13043 0.31082 0.0
O66 O 0.22449 0.08939 0.36482 0.0
O67 O 0.19211 0.08368 0.33711 0.0
O68 O 0.22654 0.16536 0.36812 0.0
O69 O 0.19862 0.1392 0.35138 0.0
Co70 Co 0.3599 0.76403 0.85305 0.0
O71 O 0.3931 0.76508 0.86787 0.0
O72 O 0.37236 0.72917 0.85893 0.0
C73 C 0.36711 0.79301 0.82177 0.0
O74 O 0.32574 0.75561 0.83694 0.0
Co75 Co 0.32507 0.81335 0.85271 0.0
O76 O 0.30265 0.79214 0.83105 0.0
C77 C 0.3339 0.78444 0.90109 0.0
C78 C 0.39281 0.74003 0.86748 0.0
C79 C 0.30596 0.76785 0.82845 0.0
O80 O 0.34454 0.76581 0.88851 0.0
O81 O 0.32681 0.80578 0.89061 0.0
O82 O 0.3741 0.76903 0.8187 0.0
O83 O 0.35822 0.79898 0.84426 0.0
Co84 Co 0.77755 0.86028 0.36291 0.0
O85 O 0.79288 0.85934 0.39627 0.0
O86 O 0.75134 0.86122 0.38925 0.0
C87 C 0.80109 0.82818 0.34592 0.0
O88 O 0.75515 0.86039 0.33095 0.0
Co89 Co 0.81029 0.8755 0.3155 0.0
O90 O 0.77971 0.86577 0.29572 0.0
C91 C 0.79323 0.91554 0.3518 0.0
C92 C 0.77001 0.85992 0.40567 0.0
C93 C 0.75826 0.86153 0.3063 0.0
O94 O 0.77893 0.89891 0.36281 0.0
O95 O 0.80901 0.90967 0.33381 0.0
O96 O 0.78131 0.82317 0.36003 0.0
O97 O 0.8075 0.85218 0.34472 0.0
Co98 Co 0.63709 0.2301 0.84787 0.0
O99 O 0.60492 0.22734 0.86492 0.0
O100 O 0.62052 0.26366 0.84901 0.0
C101 C 0.63275 0.19591 0.82187 0.0
O102 O 0.66925 0.23998 0.82837 0.0
Co103 Co 0.67776 0.18599 0.85366 0.0
O104 O 0.69632 0.20586 0.8272 0.0
C105 C 0.66892 0.22275 0.89622 0.0
C106 C 0.60197 0.25189 0.86053 0.0
C107 C 0.69008 0.2289 0.82087 0.0
O108 O 0.65399 0.23637 0.88187 0.0
O109 O 0.6788 0.20111 0.8892 0.0
O110 O 0.62234 0.21802 0.81589 0.0
O111 O 0.64301 0.19451 0.84448 0.0
Co112 Co 0.27302 0.88151 0.63763 0.0
O113 O 0.28111 0.91543 0.62536 0.0
O114 O 0.24215 0.90135 0.6329 0.0
C115 C 0.302 0.88035 0.66935 0.0
O116 O 0.25698 0.84862 0.6509 0.0
Co117 Co 0.31239 0.83591 0.63699 0.0
O118 O 0.28548 0.81602 0.65457 0.0
C119 C 0.28499 0.851 0.58919 0.0
C120 C 0.25682 0.92027 0.62638 0.0
C121 C 0.26298 0.82519 0.65691 0.0
O122 O 0.27155 0.86795 0.60144 0.0
O123 O 0.30317 0.83791 0.59951 0.0
O124 O 0.28027 0.89209 0.67279 0.0
O125 O 0.3063 0.87158 0.64641 0.0
Co126 Co 0.62652 0.7675 0.14968 0.0
O127 O 0.59179 0.77595 0.14251 0.0
O128 O 0.60747 0.73604 0.14732 0.0
C129 C 0.63357 0.79635 0.18091 0.0
O130 O 0.66112 0.75167 0.15767 0.0
Co131 Co 0.66767 0.80789 0.13696 0.0
O132 O 0.69106 0.78198 0.153 0.0
C133 C 0.64087 0.78272 0.095 0.0
C134 C 0.58825 0.75118 0.14194 0.0
C135 C 0.68422 0.75926 0.15923 0.0
O136 O 0.6331 0.76609 0.11154 0.0
O137 O 0.6532 0.8028 0.10143 0.0
O138 O 0.62214 0.77488 0.18628 0.0
O139 O 0.6369 0.80107 0.15659 0.0
Co140 Co 0.72769 0.11162 0.63359 0.0
O141 O 0.71845 0.07734 0.62374 0.0
O142 O 0.75776 0.09229 0.62367 0.0
C143 C 0.7044 0.1124 0.66995 0.0
O144 O 0.74489 0.14512 0.64306 0.0
Co145 Co 0.68766 0.1562 0.63917 0.0
O146 O 0.71658 0.1771 0.65107 0.0
C147 C 0.70494 0.13927 0.58741 0.0
C148 C 0.7426 0.073 0.62028 0.0
C149 C 0.73935 0.16848 0.64963 0.0
O150 O 0.72213 0.12439 0.59737 0.0
O151 O 0.68826 0.15161 0.60078 0.0
O152 O 0.72683 0.10156 0.66988 0.0
O153 O 0.69623 0.12078 0.64796 0.0
Co154 Co 0.379 0.22086 0.15006 0.0
O155 O 0.41441 0.21369 0.14491 0.0
O156 O 0.39685 0.25299 0.14659 0.0
C157 C 0.37141 0.19342 0.18264 0.0
O158 O 0.34335 0.23544 0.15553 0.0
Co159 Co 0.34045 0.178 0.1376 0.0
O160 O 0.31528 0.20327 0.15174 0.0
C161 C 0.36669 0.20354 0.09524 0.0
C162 C 0.41695 0.23854 0.14282 0.0
C163 C 0.32063 0.22667 0.15677 0.0
O164 O 0.3743 0.22022 0.11165 0.0
O165 O 0.35441 0.18341 0.10179 0.0
O166 O 0.38179 0.2156 0.18717 0.0
O167 O 0.36962 0.1872 0.15851 0.0
Co168 Co 0.85051 0.60098 0.78321 0.0
O169 O 0.85924 0.56526 0.78853 0.0
O170 O 0.85745 0.58488 0.75037 0.0
C171 C 0.81601 0.60295 0.80853 0.0
O172 O 0.84142 0.63705 0.77029 0.0
Co173 Co 0.85384 0.63954 0.82878 0.0
O174 O 0.83807 0.66425 0.80402 0.0
C175 C 0.90071 0.62303 0.80251 0.0
C176 C 0.86144 0.5638 0.76357 0.0
C177 C 0.83616 0.65939 0.77999 0.0
O178 O 0.88712 0.61056 0.78638 0.0
O179 O 0.89133 0.6347 0.8222 0.0
O180 O 0.81474 0.59332 0.78546 0.0
O181 O 0.83869 0.6077 0.81685 0.0
Co182 Co 0.87052 0.35012 0.24971 0.0
O183 O 0.90658 0.34467 0.25185 0.0
O184 O 0.88579 0.35766 0.21667 0.0
C185 C 0.85846 0.31381 0.26969 0.0
O186 O 0.83363 0.35607 0.23975 0.0
Co187 Co 0.83772 0.35763 0.29921 0.0
O188 O 0.80901 0.35231 0.2751 0.0
C189 C 0.86831 0.40058 0.2802 0.0
C190 C 0.90717 0.35136 0.22766 0.0
C191 C 0.81175 0.35407 0.25069 0.0
O192 O 0.874 0.38735 0.25997 0.0
O193 O 0.85571 0.39143 0.29922 0.0
O194 O 0.8656 0.3132 0.24564 0.0
O195 O 0.86222 0.33536 0.2816 0.0
Co196 Co 0.1418 0.39459 0.78121 0.0
O197 O 0.13445 0.43032 0.78795 0.0
O198 O 0.13538 0.41238 0.74905 0.0
C199 C 0.17622 0.39033 0.80631 0.0
O200 O 0.14935 0.35878 0.76685 0.0
Co201 Co 0.13718 0.35436 0.82542 0.0
O202 O 0.15179 0.33012 0.79955 0.0
C203 C 0.09084 0.3736 0.80004 0.0
C204 C 0.1321 0.43295 0.76311 0.0
C205 C 0.15367 0.33586 0.77566 0.0
O206 O 0.10482 0.38637 0.78434 0.0
O207 O 0.09986 0.3607 0.81915 0.0
O208 O 0.17793 0.40062 0.78349 0.0
O209 O 0.15335 0.3861 0.81451 0.0
Co210 Co 0.1379 0.62634 0.1923 0.0
O211 O 0.14077 0.59134 0.18033 0.0
O212 O 0.12967 0.60319 0.22004 0.0
C213 C 0.17438 0.64096 0.1764 0.0
O214 O 0.13436 0.66001 0.21219 0.0
Co215 Co 0.1318 0.67178 0.15382 0.0
O216 O 0.13879 0.69327 0.18463 0.0
C217 C 0.08882 0.63793 0.16278 0.0
C218 C 0.13426 0.58473 0.20365 0.0
C219 C 0.13742 0.68419 0.20749 0.0
O220 O 0.10145 0.62749 0.18134 0.0
O221 O 0.09793 0.65532 0.14795 0.0
O222 O 0.17414 0.62749 0.19761 0.0
O223 O 0.15315 0.64219 0.16371 0.0
Co224 Co 0.75827 0.83307 0.64009 0.0
O225 O 0.77831 0.83263 0.60933 0.0
O226 O 0.7362 0.83517 0.61025 0.0
C227 C 0.77833 0.80056 0.66048 0.0
O228 O 0.73166 0.83262 0.66876 0.0
Co229 Co 0.78465 0.84881 0.69097 0.0
O230 O 0.75207 0.8378 0.70658 0.0
C231 C 0.77405 0.88819 0.65199 0.0
C232 C 0.75711 0.83452 0.59672 0.0
C233 C 0.73209 0.83307 0.69365 0.0
O234 O 0.75995 0.87177 0.64059 0.0
O235 O 0.78775 0.88234 0.67158 0.0
O236 O 0.76124 0.79583 0.64312 0.0
O237 O 0.78499 0.82446 0.66242 0.0
Co238 Co 0.62835 0.25518 0.12864 0.0
O239 O 0.59774 0.24618 0.11143 0.0
O240 O 0.6085 0.2862 0.1215 0.0
C241 C 0.62544 0.22503 0.15974 0.0
O242 O 0.6582 0.27149 0.14697 0.0
Co243 Co 0.67287 0.21462 0.13256 0.0
O244 O 0.68904 0.24146 0.15366 0.0
C245 C 0.66308 0.24243 0.08355 0.0
C246 C 0.5919 0.2706 0.1118 0.0
C247 C 0.67997 0.26431 0.15593 0.0
O248 O 0.64646 0.25728 0.0945 0.0
O249 O 0.67397 0.22327 0.09491 0.0
O250 O 0.61318 0.24688 0.16199 0.0
O251 O 0.6371 0.22137 0.13809 0.0
Co252 Co 0.23014 0.15982 0.64209 0.0
O253 O 0.21274 0.1548 0.61023 0.0
O254 O 0.25465 0.15676 0.61429 0.0
C255 C 0.20588 0.1921 0.65763 0.0
O256 O 0.25427 0.16578 0.6721 0.0
Co257 Co 0.20153 0.14691 0.69287 0.0
O258 O 0.23169 0.16279 0.70901 0.0
C259 C 0.2178 0.10509 0.65878 0.0
C260 C 0.23503 0.15337 0.59948 0.0
C261 C 0.2521 0.16795 0.6968 0.0
O262 O 0.23181 0.12141 0.64698 0.0
O263 O 0.20209 0.11165 0.67659 0.0
O264 O 0.22355 0.19681 0.64071 0.0
O265 O 0.20128 0.16793 0.66168 0.0
Co266 Co 0.37544 0.76518 0.13968 0.0
O267 O 0.4095 0.77071 0.12854 0.0
O268 O 0.39101 0.73239 0.13047 0.0
C269 C 0.3766 0.78957 0.17535 0.0
O270 O 0.34077 0.75233 0.15043 0.0
Co271 Co 0.33713 0.81177 0.14238 0.0
O272 O 0.31368 0.78585 0.15682 0.0
C273 C 0.34999 0.78829 0.09214 0.0
C274 C 0.41101 0.7459 0.12522 0.0
C275 C 0.31887 0.76171 0.15684 0.0
O276 O 0.363 0.77041 0.1035 0.0
O277 O 0.33995 0.80758 0.104 0.0
O278 O 0.38575 0.76611 0.17571 0.0
O279 O 0.36999 0.79833 0.15295 0.0
Co280 Co 0.71727 0.13429 0.34568 0.0
O281 O 0.71039 0.09989 0.3575 0.0
O282 O 0.7488 0.11607 0.35124 0.0
C283 C 0.68927 0.13551 0.31328 0.0
O284 O 0.73225 0.16777 0.33287 0.0
Co285 Co 0.67684 0.17853 0.34784 0.0
O286 O 0.7028 0.19956 0.33 0.0
C287 C 0.70074 0.15947 0.39563 0.0
C288 C 0.73494 0.09659 0.35791 0.0
C289 C 0.72539 0.19091 0.32685 0.0
O290 O 0.71717 0.14676 0.38218 0.0
O291 O 0.68174 0.17157 0.38569 0.0
O292 O 0.71127 0.12411 0.31024 0.0
O293 O 0.68398 0.1434 0.33637 0.0
Co294 Co 0.3685 0.27673 0.87288 0.0
O295 O 0.3737 0.28362 0.90881 0.0
O296 O 0.37446 0.24463 0.89109 0.0
C297 C 0.33402 0.30215 0.86789 0.0
O298 O 0.36272 0.26202 0.837 0.0
Co299 Co 0.37411 0.3201 0.83224 0.0
O300 O 0.35952 0.2945 0.80823 0.0
C301 C 0.41969 0.2984 0.85696 0.0
C302 C 0.37622 0.25879 0.9117 0.0
C303 C 0.3579 0.27067 0.81417 0.0
O304 O 0.4059 0.28048 0.86655 0.0
O305 O 0.41047 0.31743 0.84401 0.0
O306 O 0.33202 0.27909 0.87755 0.0
O307 O 0.35697 0.31009 0.86403 0.0
Co308 Co 0.24179 0.84528 0.35414 0.0
O309 O 0.25262 0.87783 0.36747 0.0
O310 O 0.21274 0.86814 0.35828 0.0
C311 C 0.27216 0.84211 0.32388 0.0
O312 O 0.22354 0.81439 0.33895 0.0
Co313 Co 0.27691 0.79642 0.35675 0.0
O314 O 0.25025 0.78011 0.33589 0.0
C315 C 0.25301 0.81746 0.40395 0.0
C316 C 0.22895 0.88513 0.36613 0.0
C317 C 0.22876 0.79105 0.33196 0.0
O318 O 0.23812 0.83192 0.39035 0.0
O319 O 0.27102 0.80367 0.39425 0.0
O320 O 0.25167 0.85574 0.3195 0.0
O321 O 0.2744 0.83248 0.34679 0.0
Co322 Co 0.62324 0.72016 0.87017 0.0
O323 O 0.62107 0.71072 0.90586 0.0
O324 O 0.61705 0.75073 0.89073 0.0
C325 C 0.65849 0.69694 0.8616 0.0
O326 O 0.62562 0.73736 0.83483 0.0
Co327 Co 0.61696 0.67917 0.8278 0.0
O328 O 0.62824 0.70689 0.80408 0.0
C329 C 0.57245 0.69613 0.85758 0.0
C330 C 0.61758 0.73514 0.91049 0.0
C331 C 0.62912 0.7304 0.81122 0.0
O332 O 0.5858 0.71454 0.86669 0.0
O333 O 0.58167 0.67851 0.84284 0.0
O334 O 0.65991 0.71972 0.8719 0.0
O335 O 0.6358 0.68794 0.85885 0.0
H336 H 0.13055 0.56483 0.25246 0.0
H337 H 0.12592 0.41888 0.20412 0.0
H338 H 0.1349 0.54258 0.17225 0.0
H339 H 0.14587 0.43917 0.28233 0.0
H340 H 0.12332 0.46454 0.19314 0.0
H341 H 0.13031 0.51907 0.26468 0.0
C342 C 0.1313 0.55032 0.23743 0.0
C343 C 0.13286 0.55741 0.21131 0.0
C344 C 0.1283 0.45901 0.2127 0.0
C345 C 0.13251 0.50533 0.22511 0.0
C346 C 0.12974 0.43292 0.21904 0.0
C347 C 0.13628 0.42513 0.2442 0.0
C348 C 0.1332 0.47755 0.23164 0.0
C349 C 0.14095 0.44429 0.26266 0.0
C350 C 0.13128 0.52427 0.24443 0.0
C351 C 0.13383 0.53791 0.19261 0.0
N352 N 0.13928 0.46968 0.25601 0.0
N353 N 0.13361 0.51273 0.19989 0.0
H354 H 0.9269 0.60148 0.76219 0.0
H355 H 0.05884 0.66925 0.78979 0.0
H356 H 0.93684 0.65122 0.82822 0.0
H357 H 0.03352 0.64683 0.71398 0.0
H358 H 0.01735 0.65698 0.8075 0.0
H359 H 0.96987 0.61097 0.74825 0.0
C360 C 0.93816 0.61422 0.77396 0.0
C361 C 0.92801 0.62586 0.79628 0.0
C362 C 0.02096 0.65485 0.787 0.0
C363 C 0.9774 0.63682 0.78019 0.0
C364 C 0.04454 0.66182 0.7769 0.0
C365 C 0.04951 0.65914 0.75038 0.0
C366 C 0.00255 0.64469 0.7705 0.0
C367 C 0.03041 0.64939 0.7345 0.0
C368 C 0.96269 0.61972 0.76585 0.0
C369 C 0.94378 0.64196 0.81079 0.0
N370 N 0.00783 0.64237 0.74484 0.0
N371 N 0.96772 0.64711 0.8024 0.0
H372 H 0.86175 0.43507 0.31978 0.0
H373 H 0.88516 0.55809 0.22988 0.0
H374 H 0.88798 0.42969 0.24077 0.0
H375 H 0.85922 0.56205 0.30908 0.0
H376 H 0.88985 0.51122 0.23435 0.0
H377 H 0.86523 0.48184 0.31736 0.0
C378 C 0.86852 0.44367 0.302 0.0
C379 C 0.8742 0.4284 0.28032 0.0
C380 C 0.88324 0.52241 0.25075 0.0
C381 C 0.87795 0.48208 0.27734 0.0
C382 C 0.88044 0.54916 0.24819 0.0
C383 C 0.87153 0.56406 0.26905 0.0
C384 C 0.87706 0.51051 0.27432 0.0
C385 C 0.86597 0.55141 0.29238 0.0
C386 C 0.87045 0.47043 0.30061 0.0
C387 C 0.88315 0.44068 0.25791 0.0
N388 N 0.86872 0.52541 0.29432 0.0
N389 N 0.88445 0.46685 0.25689 0.0
H390 H 0.06502 0.39873 0.76155 0.0
H391 H 0.9334 0.32731 0.78216 0.0
H392 H 0.05423 0.3441 0.82377 0.0
H393 H 0.96016 0.35548 0.70856 0.0
H394 H 0.97401 0.3395 0.80164 0.0
H395 H 0.02218 0.39039 0.74664 0.0
C396 C 0.05359 0.38517 0.77232 0.0
C397 C 0.06349 0.37177 0.79376 0.0
C398 C 0.9709 0.34295 0.78124 0.0
C399 C 0.01428 0.36213 0.77656 0.0
C400 C 0.94782 0.33601 0.77012 0.0
C401 C 0.94355 0.34026 0.74369 0.0
C402 C 0.98948 0.35465 0.76586 0.0
C403 C 0.96277 0.35164 0.72896 0.0
C404 C 0.02914 0.38035 0.76366 0.0
C405 C 0.0475 0.35471 0.80703 0.0
N406 N 0.98484 0.35857 0.74028 0.0
N407 N 0.02368 0.35021 0.79809 0.0
H408 H 0.13942 0.44837 0.71296 0.0
H409 H 0.09892 0.59451 0.7436 0.0
H410 H 0.11316 0.47562 0.78724 0.0
H411 H 0.14702 0.57357 0.67892 0.0
H412 H 0.09582 0.54909 0.75498 0.0
H413 H 0.13442 0.49245 0.69579 0.0
C414 C 0.13231 0.46355 0.72553 0.0
C415 C 0.12691 0.4585 0.7516 0.0
C416 C 0.10694 0.55441 0.73821 0.0
C417 C 0.12105 0.50855 0.73217 0.0
C418 C 0.10874 0.58038 0.73165 0.0
C419 C 0.12366 0.58798 0.7105 0.0
C420 C 0.12007 0.53577 0.72354 0.0
C421 C 0.13556 0.56864 0.69556 0.0
C422 C 0.12957 0.48864 0.71577 0.0
C423 C 0.11779 0.47877 0.7671 0.0
N424 N 0.13369 0.54337 0.7025 0.0
N425 N 0.11521 0.50291 0.75716 0.0
H426 H 0.92581 0.64674 0.16418 0.0
H427 H 0.0677 0.59315 0.17899 0.0
H428 H 0.95315 0.59673 0.22511 0.0
H429 H 0.04914 0.66491 0.14019 0.0
H430 H 0.02258 0.58411 0.18265 0.0
H431 H 0.9678 0.64341 0.14317 0.0
C432 C 0.94044 0.63446 0.17266 0.0
C433 C 0.93639 0.62222 0.19647 0.0
C434 C 0.02838 0.60162 0.17294 0.0
C435 C 0.98377 0.61818 0.17271 0.0
C436 C 0.05412 0.60686 0.17089 0.0
C437 C 0.06211 0.63022 0.15997 0.0
C438 C 0.01046 0.61994 0.16423 0.0
C439 C 0.04372 0.64689 0.14914 0.0
C440 C 0.9643 0.63269 0.16078 0.0
C441 C 0.95578 0.60669 0.20689 0.0
N442 N 0.01859 0.64169 0.15203 0.0
N443 N 0.97872 0.60524 0.19502 0.0
H444 H 0.85381 0.55067 0.71297 0.0
H445 H 0.89467 0.40336 0.73731 0.0
H446 H 0.88109 0.52024 0.78565 0.0
H447 H 0.84663 0.42722 0.67372 0.0
H448 H 0.89766 0.44817 0.75058 0.0
H449 H 0.85872 0.50743 0.69402 0.0
C450 C 0.86116 0.53497 0.72481 0.0
C451 C 0.86686 0.53888 0.75095 0.0
C452 C 0.88656 0.44363 0.73364 0.0
C453 C 0.87256 0.48975 0.72949 0.0
C454 C 0.88481 0.41801 0.72601 0.0
C455 C 0.86998 0.41139 0.70457 0.0
C456 C 0.87345 0.46293 0.7198 0.0
C457 C 0.85804 0.43138 0.69052 0.0
C458 C 0.86383 0.51036 0.71403 0.0
C459 C 0.87625 0.51798 0.76548 0.0
N460 N 0.85986 0.4563 0.69851 0.0
N461 N 0.87873 0.4943 0.75457 0.0
H462 H 0.92806 0.39216 0.20255 0.0
H463 H 0.06045 0.31718 0.18447 0.0
H464 H 0.94105 0.31205 0.22197 0.0
H465 H 0.05403 0.39375 0.21645 0.0
H466 H 0.01437 0.31788 0.17657 0.0
H467 H 0.97226 0.39454 0.18683 0.0
C468 C 0.94003 0.37493 0.2027 0.0
C469 C 0.93134 0.35195 0.21368 0.0
C470 C 0.0233 0.33488 0.18434 0.0
C471 C 0.98098 0.35433 0.1954 0.0
C472 C 0.04948 0.33457 0.18866 0.0
C473 C 0.06069 0.35542 0.20116 0.0
C474 C 0.00865 0.35635 0.19227 0.0
C475 C 0.04582 0.37734 0.2068 0.0
C476 C 0.96507 0.37629 0.19379 0.0
C477 C 0.94736 0.33014 0.21379 0.0
N478 N 0.02038 0.37716 0.20256 0.0
N479 N 0.97155 0.33187 0.2049 0.0
H480 H 0.19837 0.13412 0.56892 0.0
H481 H 0.27874 0.13686 0.43826 0.0
H482 H 0.27722 0.15593 0.5678 0.0
H483 H 0.20279 0.10756 0.44613 0.0
H484 H 0.28094 0.14112 0.4856 0.0
H485 H 0.20151 0.12223 0.52387 0.0
C486 C 0.21639 0.13653 0.55911 0.0
C487 C 0.23748 0.14634 0.57203 0.0
C488 C 0.26399 0.13341 0.4769 0.0
C489 C 0.2413 0.13263 0.52004 0.0
C490 C 0.26279 0.13086 0.44998 0.0
C491 C 0.24041 0.12223 0.4384 0.0
C492 C 0.24266 0.12718 0.492 0.0
C493 C 0.22024 0.11473 0.45428 0.0
C494 C 0.21824 0.12955 0.53333 0.0
C495 C 0.26046 0.1486 0.5584 0.0
N496 N 0.22179 0.11759 0.48018 0.0
N497 N 0.26173 0.14202 0.53296 0.0
H498 H 0.30809 0.81663 0.93413 0.0
H499 H 0.36694 0.74986 0.05983 0.0
H500 H 0.35401 0.74668 0.93248 0.0
H501 H 0.3226 0.82087 0.06068 0.0
H502 H 0.35901 0.74604 0.01367 0.0
H503 H 0.30907 0.81555 0.9811 0.0
C504 C 0.31819 0.8009 0.94363 0.0
C505 C 0.33134 0.78194 0.92933 0.0
C506 C 0.35097 0.76241 0.02399 0.0
C507 C 0.3327 0.78075 0.98312 0.0
C508 C 0.35557 0.76469 0.05034 0.0
C509 C 0.34563 0.78588 0.06414 0.0
C510 C 0.33638 0.78147 0.01134 0.0
C511 C 0.33085 0.80433 0.05083 0.0
C512 C 0.31876 0.80032 0.97047 0.0
C513 C 0.34379 0.76183 0.94271 0.0
N514 N 0.32676 0.80174 0.02513 0.0
N515 N 0.34441 0.76193 0.9689 0.0
H516 H 0.72486 0.85681 0.43277 0.0
H517 H 0.79834 0.83146 0.56548 0.0
H518 H 0.8063 0.85816 0.44259 0.0
H519 H 0.71699 0.84367 0.56344 0.0
H520 H 0.80021 0.83829 0.5193 0.0
H521 H 0.72017 0.85027 0.47968 0.0
C522 C 0.74168 0.85591 0.44477 0.0
C523 C 0.766 0.85789 0.43379 0.0
C524 C 0.78187 0.83952 0.5288 0.0
C525 C 0.76082 0.85022 0.48696 0.0
C526 C 0.78077 0.83552 0.55527 0.0
C527 C 0.75747 0.8371 0.56836 0.0
C528 C 0.7595 0.84518 0.51508 0.0
C529 C 0.73535 0.8423 0.55401 0.0
C530 C 0.73899 0.85213 0.47144 0.0
C531 C 0.78717 0.8566 0.45012 0.0
N532 N 0.73689 0.84623 0.52801 0.0
N533 N 0.78406 0.85274 0.47577 0.0
H534 H 0.6391 0.27497 0.0491 0.0
H535 H 0.70494 0.20479 0.93005 0.0
H536 H 0.70121 0.21972 0.05538 0.0
H537 H 0.64439 0.26164 0.92252 0.0
H538 H 0.70903 0.21617 0.9754 0.0
H539 H 0.64594 0.2766 0.00245 0.0
C540 C 0.65438 0.26346 0.04075 0.0
C541 C 0.66918 0.24668 0.05608 0.0
C542 C 0.69505 0.22639 0.96378 0.0
C543 C 0.677 0.24837 0.00284 0.0
C544 C 0.69265 0.21983 0.93788 0.0
C545 C 0.6739 0.23186 0.92263 0.0
C546 C 0.67836 0.24487 0.97459 0.0
C547 C 0.65887 0.2516 0.93367 0.0
C548 C 0.65828 0.2644 0.01412 0.0
C549 C 0.68892 0.23247 0.04426 0.0
N550 N 0.66114 0.25719 0.95913 0.0
N551 N 0.69201 0.23337 0.0183 0.0
H552 H 0.22711 0.8532 0.4334 0.0
H553 H 0.30333 0.81135 0.55957 0.0
H554 H 0.27531 0.78509 0.43914 0.0
H555 H 0.25055 0.87616 0.55779 0.0
H556 H 0.2908 0.80019 0.51603 0.0
H557 H 0.23178 0.85981 0.47985 0.0
C558 C 0.23824 0.83935 0.44448 0.0
C559 C 0.25122 0.81882 0.43231 0.0
C560 C 0.28188 0.81683 0.52513 0.0
C561 C 0.25691 0.8265 0.48521 0.0
C562 C 0.28919 0.82337 0.54998 0.0
C563 C 0.27816 0.84491 0.56231 0.0
C564 C 0.26353 0.83202 0.5123 0.0
C565 C 0.25967 0.85949 0.54896 0.0
C566 C 0.24102 0.84323 0.47096 0.0
C567 C 0.26534 0.80145 0.44762 0.0
N568 N 0.25303 0.85285 0.52456 0.0
N569 N 0.26805 0.80588 0.47321 0.0
H570 H 0.65304 0.81251 0.05261 0.0
H571 H 0.6048 0.70746 0.95293 0.0
H572 H 0.61507 0.74231 0.07458 0.0
H573 H 0.62722 0.78367 0.92887 0.0
H574 H 0.60762 0.72089 -0.00219 0.0
H575 H 0.64353 0.80323 0.00728 0.0
C576 C 0.64273 0.7952 0.04796 0.0
C577 C 0.63517 0.77801 0.06746 0.0
C578 C 0.61169 0.73483 0.98279 0.0
C579 C 0.62416 0.76741 0.01579 0.0
C580 C 0.61009 0.72715 0.95715 0.0
C581 C 0.61597 0.74445 0.93726 0.0
C582 C 0.61966 0.7599 0.98864 0.0
C583 C 0.62253 0.76978 0.94374 0.0
C584 C 0.6372 0.79 0.02211 0.0
C585 C 0.62161 0.75601 0.06029 0.0
N586 N 0.62455 0.77669 0.96898 0.0
N587 N 0.61671 0.7513 0.03508 0.0
H588 H 0.67233 0.16967 0.55914 0.0
H589 H 0.73776 0.13511 0.42413 0.0
H590 H 0.73744 0.11829 0.55131 0.0
H591 H 0.66989 0.18266 0.43181 0.0
H592 H 0.73993 0.13153 0.47095 0.0
H593 H 0.67288 0.17684 0.51273 0.0
C594 C 0.68673 0.15981 0.54769 0.0
C595 C 0.70481 0.14321 0.55918 0.0
C596 C 0.72463 0.14283 0.46239 0.0
C597 C 0.70554 0.1515 0.50593 0.0
C598 C 0.72338 0.14496 0.43563 0.0
C599 C 0.70345 0.15903 0.42397 0.0
C600 C 0.70582 0.15483 0.47762 0.0
C601 C 0.68549 0.17146 0.43992 0.0
C602 C 0.68704 0.164 0.52115 0.0
C603 C 0.72306 0.13114 0.5433 0.0
N604 N 0.68703 0.16894 0.46595 0.0
N605 N 0.72293 0.1355 0.51744 0.0
H606 H 0.39611 0.24156 0.07507 0.0
H607 H 0.36721 0.20909 0.92735 0.0
H608 H 0.34995 0.17716 0.05239 0.0
H609 H 0.3926 0.28291 0.9549 0.0
H610 H 0.36834 0.19263 0.97192 0.0
H611 H 0.40261 0.25215 0.02986 0.0
C612 C 0.38732 0.22956 0.0606 0.0
C613 C 0.37202 0.20867 0.06763 0.0
C614 C 0.37387 0.21233 0.96808 0.0
C615 C 0.37958 0.22079 0.01558 0.0
C616 C 0.37336 0.22168 0.94272 0.0
C617 C 0.37959 0.24745 0.93758 0.0
C618 C 0.38098 0.22884 0.9882 0.0
C619 C 0.38738 0.263 0.95809 0.0
C620 C 0.39111 0.23565 0.03474 0.0
C621 C 0.36163 0.1936 0.04788 0.0
N622 N 0.38778 0.25348 0.9825 0.0
N623 N 0.36544 0.20009 0.02268 0.0
H624 H 0.56243 0.3063 0.13718 0.0
H625 H 0.44963 0.21575 0.1096 0.0
H626 H 0.56157 0.25166 0.07456 0.0
H627 H 0.43784 0.28588 0.15306 0.0
H628 H 0.48961 0.23226 0.09354 0.0
H629 H 0.51589 0.30495 0.13916 0.0
C630 C 0.55235 0.29499 0.12304 0.0
C631 C 0.56567 0.27862 0.10603 0.0
C632 C 0.4783 0.24428 0.1064 0.0
C633 C 0.51295 0.27643 0.10863 0.0
C634 C 0.45562 0.23466 0.11584 0.0
C635 C 0.44083 0.24926 0.1331 0.0
C636 C 0.48672 0.26845 0.11479 0.0
C637 C 0.44903 0.27395 0.14002 0.0
C638 C 0.52582 0.294 0.12435 0.0
C639 C 0.55188 0.26418 0.08826 0.0
N640 N 0.47181 0.28262 0.13125 0.0
N641 N 0.52627 0.26295 0.0904 0.0
H642 H 0.54925 0.72063 0.89786 0.0
H643 H 0.40948 0.6942 0.84673 0.0
H644 H 0.5336 0.67078 0.83327 0.0
H645 H 0.42921 0.753 0.90165 0.0
H646 H 0.45309 0.67672 0.84933 0.0
H647 H 0.50396 0.72396 0.90679 0.0
C648 C 0.53627 0.71029 0.88556 0.0
C649 C 0.54518 0.69591 0.86438 0.0
C650 C 0.44766 0.69308 0.86123 0.0
C651 C 0.49312 0.69973 0.87452 0.0
C652 C 0.42278 0.7029 0.85992 0.0
C653 C 0.41604 0.72525 0.87372 0.0
C654 C 0.46559 0.7057 0.8766 0.0
C655 C 0.43387 0.73594 0.89042 0.0
C656 C 0.51038 0.71211 0.89077 0.0
C657 C 0.52749 0.68237 0.84958 0.0
N658 N 0.45792 0.72625 0.89116 0.0
N659 N 0.50219 0.68496 0.85467 0.0
H660 H 0.81922 0.95765 0.33388 0.0
H661 H 0.71243 0.05518 0.38059 0.0
H662 H 0.75874 0.93606 0.38592 0.0
H663 H 0.78374 0.08052 0.34869 0.0
H664 H 0.73044 0.01168 0.38518 0.0
H665 H 0.80838 0.00306 0.34139 0.0
C666 C 0.80389 0.96241 0.34712 0.0
C667 C 0.78956 0.94297 0.35887 0.0
C668 C 0.74229 0.02683 0.37752 0.0
C669 C 0.77698 0.99482 0.36738 0.0
C670 C 0.73198 0.05162 0.37482 0.0
C671 C 0.74653 0.07129 0.36392 0.0
C672 C 0.76716 0.02165 0.36881 0.0
C673 C 0.77183 0.06578 0.35701 0.0
C674 C 0.79776 0.98835 0.35145 0.0
C675 C 0.77009 0.95034 0.37609 0.0
N676 N 0.78125 0.04131 0.35917 0.0
N677 N 0.76412 0.97567 0.3795 0.0
H678 H 0.45762 0.32595 0.83314 0.0
H679 H 0.56638 0.23694 0.89522 0.0
H680 H 0.44514 0.26656 0.89037 0.0
H681 H 0.58164 0.29555 0.8381 0.0
H682 H 0.52273 0.25285 0.89846 0.0
H683 H 0.50358 0.31979 0.83867 0.0
C684 C 0.4645 0.31178 0.84699 0.0
C685 C 0.44748 0.29645 0.86099 0.0
C686 C 0.53562 0.26251 0.88542 0.0
C687 C 0.49989 0.28945 0.86749 0.0
C688 C 0.56058 0.25345 0.88363 0.0
C689 C 0.57745 0.26475 0.86612 0.0
C690 C 0.52732 0.28275 0.86925 0.0
C691 C 0.5691 0.28626 0.85177 0.0
C692 C 0.49072 0.30832 0.85015 0.0
C693 C 0.45748 0.27852 0.87879 0.0
N694 N 0.54441 0.29432 0.85329 0.0
N695 N 0.48296 0.27543 0.88137 0.0
H696 H 0.18476 0.9101 0.35228 0.0
H697 H 0.23986 0.04882 0.38683 0.0
H698 H 0.25674 0.92205 0.38982 0.0
H699 H 0.17631 0.03758 0.33559 0.0
H700 H 0.24152 0.00247 0.39504 0.0
H701 H 0.17652 0.95681 0.35347 0.0
C702 C 0.19859 0.9225 0.36121 0.0
C703 C 0.2216 0.9123 0.37069 0.0
C704 C 0.22712 0.01017 0.38212 0.0
C705 C 0.21242 0.96553 0.37194 0.0
C706 C 0.22615 0.03667 0.37737 0.0
C707 C 0.20813 0.04715 0.36018 0.0
C708 C 0.20993 0.99395 0.36964 0.0
C709 C 0.19071 0.03037 0.34876 0.0
C710 C 0.19396 0.94913 0.36174 0.0
C711 C 0.23889 0.92918 0.38202 0.0
N712 N 0.19216 0.00457 0.35357 0.0
N713 N 0.23404 0.95499 0.38214 0.0
H714 H 0.5625 0.76773 0.10028 0.0
H715 H 0.43568 0.70513 0.14803 0.0
H716 H 0.55994 0.71162 0.16182 0.0
H717 H 0.4419 0.76113 0.08674 0.0
H718 H 0.4817 0.69685 0.14519 0.0
H719 H 0.52006 0.75548 0.08707 0.0
C720 C 0.55287 0.75268 0.11092 0.0
C721 C 0.56416 0.74113 0.13254 0.0
C722 C 0.47287 0.7103 0.13177 0.0
C723 C 0.51538 0.72734 0.11802 0.0
C724 C 0.44663 0.71483 0.13325 0.0
C725 C 0.43539 0.73413 0.11787 0.0
C726 C 0.48755 0.72526 0.11481 0.0
C727 C 0.45014 0.74639 0.09917 0.0
C728 C 0.52872 0.74554 0.10332 0.0
C729 C 0.55145 0.72122 0.14529 0.0
N730 N 0.47556 0.74205 0.09844 0.0
N731 N 0.52731 0.71536 0.13824 0.0
H732 H 0.74536 0.90805 0.61251 0.0
H733 H 0.78942 0.05339 0.63302 0.0
H734 H 0.80158 0.92975 0.66882 0.0
H735 H 0.71737 0.0322 0.60034 0.0
H736 H 0.80122 0.00745 0.63615 0.0
H737 H 0.74215 0.95287 0.59847 0.0
C738 C 0.75716 0.92217 0.62189 0.0
C739 C 0.77345 0.91512 0.64228 0.0
C740 C 0.78304 0.01295 0.62786 0.0
C741 C 0.76992 0.96655 0.62597 0.0
C742 C 0.7764 0.0391 0.62584 0.0
C743 C 0.75229 0.04646 0.61666 0.0
C744 C 0.76555 0.99424 0.6203 0.0
C745 C 0.73604 0.02726 0.60778 0.0
C746 C 0.75532 0.94777 0.61377 0.0
C747 C 0.7885 0.93433 0.65332 0.0
N748 N 0.74289 0.00198 0.61001 0.0
N749 N 0.78623 0.95926 0.64514 0.0
H750 H 0.19134 0.06325 0.67712 0.0
H751 H 0.28036 0.96148 0.60468 0.0
H752 H 0.24995 0.0843 0.62267 0.0
H753 H 0.2115 0.93979 0.64408 0.0
H754 H 0.26792 0.00682 0.60918 0.0
H755 H 0.19719 0.018 0.66439 0.0
C756 C 0.20538 0.05842 0.6625 0.0
C757 C 0.22039 0.07762 0.65123 0.0
C758 C 0.25529 0.99217 0.61651 0.0
C759 C 0.22706 0.02602 0.63652 0.0
C760 C 0.26238 0.96629 0.61386 0.0
C761 C 0.24702 0.94695 0.6242 0.0
C762 C 0.23293 -0.00125 0.63002 0.0
C763 C 0.22388 0.95418 0.63585 0.0
C764 C 0.20859 0.03262 0.65513 0.0
C765 C 0.23811 0.07022 0.63217 0.0
N766 N 0.21772 0.97958 0.63886 0.0
N767 N 0.24106 0.04503 0.6256 0.0
H768 H 0.11206 0.26135 0.25959 0.0
H769 H 0.2162 0.2137 0.36118 0.0
H770 H 0.15483 0.31364 0.3068 0.0
H771 H 0.1652 0.16245 0.32203 0.0
H772 H 0.19356 0.25064 0.34219 0.0
H773 H 0.13035 0.225 0.28344 0.0
C774 C 0.12515 0.26518 0.27518 0.0
C775 C 0.13213 0.2905 0.28112 0.0
C776 C 0.18724 0.23133 0.33786 0.0
C777 C 0.15339 0.24895 0.30832 0.0
C778 C 0.20021 0.21023 0.34859 0.0
C779 C 0.1926 0.18501 0.34303 0.0
C780 C 0.16663 0.22713 0.32132 0.0
C781 C 0.17172 0.18159 0.32674 0.0
C782 C 0.1356 0.24441 0.28879 0.0
C783 C 0.14902 0.29439 0.30158 0.0
N784 N 0.15953 0.20244 0.31634 0.0
N785 N 0.15932 0.27377 0.3143 0.0
H786 H 0.25635 0.78248 0.82246 0.0
H787 H 0.16394 0.7016 0.77636 0.0
H788 H 0.30917 0.72004 0.80561 0.0
H789 H 0.22337 0.67554 0.72444 0.0
H790 H 0.19596 0.72232 0.80295 0.0
H791 H 0.22281 0.75857 0.80132 0.0
C792 C 0.26088 0.76366 0.81441 0.0
C793 C 0.28561 0.75319 0.81585 0.0
C794 C 0.20193 0.71211 0.78569 0.0
C795 C 0.24712 0.72555 0.79199 0.0
C796 C 0.18372 0.70002 0.77066 0.0
C797 C 0.19095 0.68707 0.74796 0.0
C798 C 0.22754 0.71115 0.77803 0.0
C799 C 0.21692 0.68561 0.74161 0.0
C800 C 0.24162 0.74989 0.80264 0.0
C801 C 0.29033 0.72872 0.80507 0.0
N802 N 0.23432 0.69756 0.75657 0.0
N803 N 0.27128 0.7158 0.79328 0.0
H804 H 0.86773 0.68075 0.30981 0.0
H805 H 0.83625 0.83201 0.30684 0.0
H806 H 0.88107 0.72709 0.24177 0.0
H807 H 0.79934 0.77711 0.35677 0.0
H808 H 0.86002 0.79608 0.2865 0.0
H809 H 0.85076 0.71884 0.33173 0.0
C810 C 0.86732 0.69901 0.29955 0.0
C811 C 0.87546 0.70074 0.27383 0.0
C812 C 0.84675 0.79206 0.30197 0.0
C813 C 0.85602 0.74435 0.29879 0.0
C814 C 0.83326 0.81245 0.31355 0.0
C815 C 0.8158 0.80739 0.33338 0.0
C816 C 0.84295 0.76671 0.31073 0.0
C817 C 0.81251 0.78181 0.34141 0.0
C818 C 0.85755 0.72072 0.31205 0.0
C819 C 0.87476 0.72496 0.26158 0.0
N820 N 0.82602 0.76244 0.33012 0.0
N821 N 0.86498 0.74591 0.27414 0.0
H822 H 0.82917 0.29233 0.76297 0.0
H823 H 0.68179 0.27291 0.79191 0.0
H824 H 0.77099 0.32425 0.71302 0.0
H825 H 0.74075 0.21894 0.81555 0.0
H826 H 0.71385 0.29745 0.76792 0.0
H827 H 0.79625 0.27131 0.78842 0.0
C828 C 0.80946 0.29519 0.75753 0.0
C829 C 0.80282 0.30998 0.73577 0.0
C830 C 0.71961 0.2802 0.77838 0.0
C831 C 0.76512 0.28594 0.76479 0.0
C832 C 0.7014 0.26624 0.79205 0.0
C833 C 0.70859 0.2438 0.80564 0.0
C834 C 0.74514 0.27188 0.77881 0.0
C835 C 0.73427 0.236 0.80519 0.0
C836 C 0.79072 0.28304 0.77196 0.0
C837 C 0.77694 0.31287 0.72956 0.0
N838 N 0.75161 0.25009 0.79214 0.0
N839 N 0.75898 0.30094 0.74403 0.0
H840 H 0.26358 0.77238 0.655 0.0
H841 H 0.12418 0.75467 0.70957 0.0
H842 H 0.21505 0.83768 0.67405 0.0
H843 H 0.16117 0.69808 0.6606 0.0
H844 H 0.15797 0.785 0.69966 0.0
H845 H 0.22765 0.74377 0.66174 0.0
C846 C 0.24547 0.78069 0.66093 0.0
C847 C 0.24232 0.80749 0.66399 0.0
C848 C 0.15852 0.76604 0.69088 0.0
C849 C 0.20114 0.77486 0.67143 0.0
C850 C 0.1392 0.74875 0.69641 0.0
C851 C 0.14008 0.72365 0.68622 0.0
C852 C 0.17903 0.75803 0.67535 0.0
C853 C 0.1599 0.71709 0.66916 0.0
C854 C 0.22492 0.76437 0.66445 0.0
C855 C 0.21832 0.81716 0.67143 0.0
N856 N 0.17887 0.73404 0.66461 0.0
N857 N 0.19864 0.80083 0.67498 0.0
H858 H 0.6775 0.71784 0.19132 0.0
H859 H 0.8241 0.67616 0.19206 0.0
H860 H 0.73526 0.75925 0.1496 0.0
H861 H 0.7741 0.66191 0.25666 0.0
H862 H 0.78912 0.6985 0.16984 0.0
H863 H 0.71066 0.68929 0.20928 0.0
C864 C 0.69711 0.72075 0.18574 0.0
C865 C 0.70371 0.74102 0.16909 0.0
C866 C 0.78581 0.69023 0.18877 0.0
C867 C 0.74146 0.70838 0.18925 0.0
C868 C 0.80567 0.67735 0.20139 0.0
C869 C 0.80202 0.66733 0.22632 0.0
C870 C 0.76208 0.69275 0.201 0.0
C871 C 0.77777 0.66957 0.23755 0.0
C872 C 0.71596 0.70455 0.19606 0.0
C873 C 0.7294 0.74401 0.16257 0.0
N874 N 0.75869 0.6821 0.22481 0.0
N875 N 0.74736 0.72783 0.17263 0.0
H876 H 0.78897 0.15679 0.66113 0.0
H877 H 0.83481 0.30276 0.65007 0.0
H878 H 0.73784 0.22125 0.64674 0.0
H879 H 0.87511 0.24468 0.69456 0.0
H880 H 0.80277 0.27074 0.63931 0.0
H881 H 0.82401 0.18704 0.66541 0.0
C882 C 0.7851 0.17729 0.65893 0.0
C883 C 0.76041 0.18654 0.65377 0.0
C884 C 0.81882 0.26501 0.65119 0.0
C885 C 0.80044 0.22107 0.65805 0.0
C886 C 0.83719 0.2832 0.65719 0.0
C887 C 0.85732 0.27651 0.67371 0.0
C888 C 0.82097 0.2399 0.66135 0.0
C889 C 0.85966 0.25075 0.68206 0.0
C890 C 0.8051 0.19449 0.6613 0.0
C891 C 0.75651 0.2133 0.65102 0.0
N892 N 0.84157 0.23341 0.67596 0.0
N893 N 0.77635 0.22963 0.65308 0.0
H894 H 0.22986 0.33306 0.24557 0.0
H895 H 0.26957 0.22077 0.1496 0.0
H896 H 0.17695 0.29996 0.19185 0.0
H897 H 0.32413 0.27252 0.1827 0.0
H898 H 0.23521 0.24864 0.16574 0.0
H899 H 0.26464 0.31033 0.22361 0.0
C900 C 0.22558 0.32114 0.22903 0.0
C901 C 0.20045 0.31825 0.22061 0.0
C902 C 0.25471 0.25401 0.16924 0.0
C903 C 0.24015 0.29202 0.19557 0.0
C904 C 0.27434 0.23805 0.16016 0.0
C905 C 0.29977 0.24425 0.16496 0.0
C906 C 0.26053 0.27609 0.18358 0.0
C907 C 0.30481 0.267 0.17856 0.0
C908 C 0.24546 0.30826 0.21645 0.0
C909 C 0.19604 0.30273 0.19895 0.0
N910 N 0.28534 0.28196 0.18767 0.0
N911 N 0.21569 0.2899 0.18736 0.0
H912 H 0.37156 0.20305 0.23452 0.0
H913 H 0.24982 0.11847 0.2597 0.0
H914 H 0.34013 0.15204 0.17752 0.0
H915 H 0.29215 0.15274 0.32178 0.0
H916 H 0.28375 0.12951 0.22976 0.0
H917 H 0.34417 0.1837 0.26731 0.0
C918 C 0.35915 0.18753 0.22898 0.0
C919 C 0.35789 0.17934 0.2032 0.0
C920 C 0.28581 0.13439 0.24997 0.0
C921 C 0.32634 0.15736 0.24051 0.0
C922 C 0.26636 0.1282 0.26708 0.0
C923 C 0.26804 0.13493 0.29325 0.0
C924 C 0.30699 0.14781 0.25893 0.0
C925 C 0.29007 0.14724 0.30175 0.0
C926 C 0.34353 0.1765 0.24771 0.0
C927 C 0.34157 0.1591 0.19711 0.0
N928 N 0.30856 0.15363 0.28455 0.0
N929 N 0.32618 0.14905 0.21556 0.0
H930 H 0.34883 0.84256 0.82222 0.0
H931 H 0.34464 0.84963 0.66876 0.0
H932 H 0.38162 0.78463 0.77179 0.0
H933 H 0.29728 0.89592 0.71942 0.0
H934 H 0.36798 0.8334 0.70631 0.0
H935 H 0.33983 0.86974 0.78466 0.0
C936 C 0.35445 0.83571 0.80326 0.0
C937 C 0.3654 0.81109 0.79994 0.0
C938 C 0.35272 0.84739 0.70914 0.0
C939 C 0.3552 0.84199 0.75708 0.0
C940 C 0.33938 0.85665 0.68776 0.0
C941 C 0.31863 0.87363 0.69114 0.0
C942 C 0.34521 0.85527 0.73396 0.0
C943 C 0.31287 0.88244 0.71607 0.0
C944 C 0.34932 0.85124 0.78187 0.0
C945 C 0.37271 0.80333 0.77508 0.0
N946 N 0.3259 0.87288 0.73662 0.0
N947 N 0.36714 0.81861 0.75448 0.0
H948 H 0.75315 0.8753 0.25565 0.0
H949 H 0.6325 0.78841 0.23314 0.0
H950 H 0.71337 0.83773 0.318 0.0
H951 H 0.66449 0.8378 0.17457 0.0
H952 H 0.65941 0.80882 0.26537 0.0
H953 H 0.7188 0.86428 0.22648 0.0
C954 C 0.73709 0.86484 0.26325 0.0
C955 C 0.7363 0.85711 0.28924 0.0
C956 C 0.66028 0.81545 0.24554 0.0
C957 C 0.69687 0.84426 0.25583 0.0
C958 C 0.64492 0.80381 0.22713 0.0
C959 C 0.64657 0.81118 0.20109 0.0
C960 C 0.67755 0.83438 0.23776 0.0
C961 C 0.66284 0.83132 0.19439 0.0
C962 C 0.7174 0.85865 0.24659 0.0
C963 C 0.71482 0.84394 0.29808 0.0
N964 N 0.67796 0.84198 0.21255 0.0
N965 N 0.6961 0.8376 0.2813 0.0
H966 H 0.71887 0.10198 0.71973 0.0
H967 H 0.60932 0.19206 0.77543 0.0
H968 H 0.65706 0.1336 0.67434 0.0
H969 H 0.66587 0.15459 0.82342 0.0
H970 H 0.62223 0.16442 0.73962 0.0
H971 H 0.69622 0.11501 0.75906 0.0
C972 C 0.70041 0.1114 0.71808 0.0
C973 C 0.69002 0.11727 0.69384 0.0
C974 C 0.63162 0.16193 0.75806 0.0
C975 C 0.66411 0.13215 0.73848 0.0
C976 C 0.62424 0.17773 0.7785 0.0
C977 C 0.63702 0.17601 0.80213 0.0
C978 C 0.65224 0.14465 0.7612 0.0
C979 C 0.65587 0.15684 0.8053 0.0
C980 C 0.68746 0.11875 0.7405 0.0
C981 C 0.66596 0.12917 0.69268 0.0
N982 N 0.66332 0.14221 0.78483 0.0
N983 N 0.65396 0.13652 0.7147 0.0
H984 H 0.77308 0.74889 0.65436 0.0
H985 H 0.83311 0.71119 0.79054 0.0
H986 H 0.80567 0.80528 0.70524 0.0
H987 H 0.82103 0.65596 0.72955 0.0
H988 H 0.82016 0.74594 0.76116 0.0
H989 H 0.78776 0.71457 0.68326 0.0
C990 C 0.78342 0.75403 0.67162 0.0
C991 C 0.7882 0.77993 0.67746 0.0
C992 C 0.82043 0.72622 0.75423 0.0
C993 C 0.80487 0.74075 0.71071 0.0
C994 C 0.82768 0.70633 0.771 0.0
C995 C 0.82812 0.68057 0.76251 0.0
C996 C 0.81329 0.72029 0.72888 0.0
C997 C 0.82103 0.6755 0.73694 0.0
C998 C 0.79183 0.73443 0.68806 0.0
C999 C 0.80169 0.78552 0.70002 0.0
N1000 N 0.81379 0.69518 0.72107 0.0
N1001 N 0.80945 0.76605 0.71598 0.0
H1002 H 0.66737 0.30199 0.19117 0.0
H1003 H 0.81053 0.34999 0.19807 0.0
H1004 H 0.72988 0.27041 0.14668 0.0
H1005 H 0.76175 0.34948 0.26538 0.0
H1006 H 0.77536 0.33439 0.17222 0.0
H1007 H 0.69715 0.33169 0.21225 0.0
C1008 C 0.68725 0.30162 0.18565 0.0
C1009 C 0.69643 0.28365 0.16755 0.0
C1010 C 0.77229 0.33818 0.19258 0.0
C1011 C 0.72994 0.31758 0.19067 0.0
C1012 C 0.79231 0.34716 0.20737 0.0
C1013 C 0.78929 0.35046 0.2341 0.0
C1014 C 0.74907 0.33261 0.20453 0.0
C1015 C 0.76507 0.34674 0.24492 0.0
C1016 C 0.70411 0.31844 0.1976 0.0
C1017 C 0.72223 0.28377 0.16089 0.0
N1018 N 0.74591 0.33762 0.23014 0.0
N1019 N 0.73809 0.30048 0.17244 0.0
H1020 H 0.16716 0.34028 0.72464 0.0
H1021 H 0.17746 0.18768 0.70178 0.0
H1022 H 0.15466 0.28373 0.78469 0.0
H1023 H 0.20938 0.24392 0.64977 0.0
H1024 H 0.16301 0.22289 0.72998 0.0
H1025 H 0.1773 0.30521 0.69462 0.0
C1026 C 0.16654 0.32052 0.73153 0.0
C1027 C 0.1602 0.31497 0.75728 0.0
C1028 C 0.17307 0.22749 0.71231 0.0
C1029 C 0.17155 0.2748 0.72298 0.0
C1030 C 0.18119 0.20743 0.69618 0.0
C1031 C 0.19478 0.21294 0.67355 0.0
C1032 C 0.17839 0.25316 0.70559 0.0
C1033 C 0.19911 0.23885 0.66717 0.0
C1034 C 0.17233 0.30053 0.71438 0.0
C1035 C 0.15965 0.28897 0.76508 0.0
N1036 N 0.19099 0.25802 0.68315 0.0
N1037 N 0.16522 0.26985 0.74799 0.0
H1038 H 0.17596 0.68398 0.14542 0.0
H1039 H 0.32239 0.7107 0.1707 0.0
H1040 H 0.22249 0.63493 0.19422 0.0
H1041 H 0.2679 0.77143 0.15301 0.0
H1042 H 0.28746 0.68012 0.17379 0.0
H1043 H 0.21162 0.71365 0.14111 0.0
C1044 C 0.19375 0.6793 0.15492 0.0
C1045 C 0.1963 0.65716 0.17036 0.0
C1046 C 0.28323 0.70019 0.16938 0.0
C1047 C 0.23689 0.69073 0.1655 0.0
C1048 C 0.30309 0.71763 0.16768 0.0
C1049 C 0.29802 0.74363 0.16167 0.0
C1050 C 0.25825 0.70877 0.16454 0.0
C1051 C 0.27266 0.75159 0.15789 0.0
C1052 C 0.21397 0.69629 0.15263 0.0
C1053 C 0.21974 0.65194 0.18228 0.0
N1054 N 0.25371 0.73415 0.15915 0.0
N1055 N 0.23917 0.66863 0.1796 0.0
H1056 H 0.83022 0.31591 0.31411 0.0
H1057 H 0.76818 0.17824 0.29955 0.0
H1058 H 0.84787 0.26669 0.24909 0.0
H1059 H 0.72751 0.24325 0.33268 0.0
H1060 H 0.80225 0.2073 0.28637 0.0
H1061 H 0.79754 0.28563 0.32764 0.0
C1062 C 0.82743 0.29862 0.30283 0.0
C1063 C 0.84153 0.29395 0.28024 0.0
C1064 C 0.78579 0.21513 0.29643 0.0
C1065 C 0.80448 0.25925 0.29579 0.0
C1066 C 0.76641 0.19864 0.30396 0.0
C1067 C 0.74504 0.20844 0.31716 0.0
C1068 C 0.784 0.24141 0.30274 0.0
C1069 C 0.7436 0.23499 0.32236 0.0
C1070 C 0.80869 0.28147 0.31048 0.0
C1071 C 0.83727 0.27109 0.26652 0.0
N1072 N 0.763 0.25056 0.31537 0.0
N1073 N 0.81908 0.25452 0.27452 0.0
H1074 H 0.17944 0.35664 0.84723 0.0
H1075 H 0.33155 0.3479 0.84122 0.0
H1076 H 0.22521 0.40213 0.79549 0.0
H1077 H 0.28487 0.29195 0.88007 0.0
H1078 H 0.29304 0.37239 0.82951 0.0
H1079 H 0.21839 0.3373 0.86515 0.0
C1080 C 0.19767 0.36279 0.8399 0.0
C1081 C 0.19916 0.38078 0.81971 0.0
C1082 C 0.29127 0.35481 0.84071 0.0
C1083 C 0.24361 0.3588 0.83995 0.0
C1084 C 0.31322 0.34088 0.84739 0.0
C1085 C 0.31132 0.31782 0.86144 0.0
C1086 C 0.26736 0.34565 0.8483 0.0
C1087 C 0.28714 0.30955 0.86903 0.0
C1088 C 0.21987 0.35168 0.85002 0.0
C1089 C 0.22324 0.38811 0.81089 0.0
N1090 N 0.26609 0.32343 0.86231 0.0
N1091 N 0.24453 0.37699 0.82097 0.0
H1092 H 0.22277 0.73897 0.33233 0.0
H1093 H 0.13961 0.73717 0.20713 0.0
H1094 H 0.19096 0.80926 0.30008 0.0
H1095 H 0.14746 0.67104 0.25771 0.0
H1096 H 0.15629 0.76451 0.24136 0.0
H1097 H 0.19398 0.714 0.30574 0.0
C1098 C 0.20952 0.74914 0.31979 0.0
C1099 C 0.20937 0.77618 0.31818 0.0
C1100 C 0.15387 0.7441 0.24511 0.0
C1101 C 0.17657 0.74772 0.28746 0.0
C1102 C 0.14439 0.72845 0.22557 0.0
C1103 C 0.1425 0.70167 0.22939 0.0
C1104 C 0.1619 0.7328 0.26843 0.0
C1105 C 0.14878 0.69152 0.25376 0.0
C1106 C 0.19298 0.73489 0.30472 0.0
C1107 C 0.19166 0.78841 0.30183 0.0
N1108 N 0.15865 0.70702 0.27217 0.0
N1109 N 0.17623 0.77405 0.28669 0.0
H1110 H 0.76763 0.58891 0.79845 0.0
H1111 H 0.70735 0.70918 0.87259 0.0
H1112 H 0.81132 0.63897 0.84717 0.0
H1113 H 0.66213 0.64981 0.8378 0.0
H1114 H 0.7456 0.68351 0.86372 0.0
H1115 H 0.72869 0.60991 0.81382 0.0
C1116 C 0.76899 0.60412 0.81269 0.0
C1117 C 0.79271 0.61246 0.82135 0.0
C1118 C 0.72732 0.676 0.85815 0.0
C1119 C 0.74826 0.63685 0.8387 0.0
C1120 C 0.70548 0.69072 0.86304 0.0
C1121 C 0.68157 0.68161 0.85579 0.0
C1122 C 0.72528 0.65211 0.84569 0.0
C1123 C 0.68023 0.65753 0.84363 0.0
C1124 C 0.74675 0.61612 0.82142 0.0
C1125 C 0.79341 0.63207 0.83991 0.0
N1126 N 0.70185 0.64365 0.83881 0.0
N1127 N 0.77147 0.6439 0.84771 0.0
H1128 H 0.71892 0.84651 0.74285 0.0
H1129 H 0.63094 0.72556 0.75849 0.0
H1130 H 0.69402 0.80109 0.6782 0.0
H1131 H 0.64402 0.78021 0.81973 0.0
H1132 H 0.64924 0.75585 0.72768 0.0
H1133 H 0.68699 0.8261 0.76996 0.0
C1134 C 0.70638 0.83256 0.73424 0.0
C1135 C 0.70936 0.8252 0.70833 0.0
C1136 C 0.64774 0.76141 0.74779 0.0
C1137 C 0.67305 0.80133 0.73941 0.0
C1138 C 0.63735 0.74407 0.76544 0.0
C1139 C 0.63635 0.75013 0.79186 0.0
C1140 C 0.65753 0.78485 0.75663 0.0
C1141 C 0.64463 0.77456 0.79962 0.0
C1142 C 0.68813 0.8209 0.74974 0.0
C1143 C 0.69243 0.80725 0.69811 0.0
N1144 N 0.65526 0.79083 0.78216 0.0
N1145 N 0.67532 0.79551 0.71382 0.0
H1146 H 0.6467 0.16645 0.31284 0.0
H1147 H 0.64979 0.17827 0.15953 0.0
H1148 H 0.69608 0.12137 0.26309 0.0
H1149 H 0.60815 0.23077 0.20926 0.0
H1150 H 0.65939 0.151 0.19681 0.0
H1151 H 0.62501 0.18374 0.27472 0.0
C1152 C 0.65274 0.15992 0.29391 0.0
C1153 C 0.67354 0.14291 0.291 0.0
C1154 C 0.64792 0.16834 0.19955 0.0
C1155 C 0.64892 0.16255 0.24749 0.0
C1156 C 0.64247 0.18393 0.17829 0.0
C1157 C 0.6286 0.20703 0.18149 0.0
C1158 C 0.63957 0.17604 0.22416 0.0
C1159 C 0.61922 0.21326 0.20609 0.0
C1160 C 0.64037 0.1698 0.27218 0.0
C1161 C 0.6804 0.13481 0.26611 0.0
N1162 N 0.62517 0.19799 0.22662 0.0
N1163 N 0.6683 0.14496 0.24526 0.0
H1164 H 0.2937 0.19408 0.67885 0.0
H1165 H 0.35296 0.27891 0.76208 0.0
H1166 H 0.2591 0.16602 0.74904 0.0
H1167 H 0.34107 0.22128 0.82117 0.0
H1168 H 0.33235 0.25107 0.73091 0.0
H1169 H 0.32534 0.21632 0.70482 0.0
C1170 C 0.29288 0.19241 0.69969 0.0
C1171 C 0.27343 0.17855 0.71179 0.0
C1172 C 0.33487 0.24412 0.75047 0.0
C1173 C 0.30914 0.20445 0.74162 0.0
C1174 C 0.34643 0.26018 0.76841 0.0
C1175 C 0.3486 0.25254 0.79437 0.0
C1176 C 0.32522 0.22027 0.75858 0.0
C1177 C 0.3398 0.22802 0.8014 0.0
C1178 C 0.31077 0.20539 0.71452 0.0
C1179 C 0.27345 0.17687 0.73887 0.0
N1180 N 0.32812 0.21297 0.7837 0.0
N1181 N 0.29091 0.18979 0.75285 0.0
H1182 H 0.31423 0.81077 0.32674 0.0
H1183 H 0.35272 0.83645 0.17992 0.0
H1184 H 0.2745 0.8638 0.27592 0.0
H1185 H 0.38125 0.77198 0.22493 0.0
H1186 H 0.33133 0.85331 0.21834 0.0
H1187 H 0.34546 0.80245 0.2926 0.0
C1188 C 0.31216 0.82074 0.30843 0.0
C1189 C 0.2916 0.83769 0.30392 0.0
C1190 C 0.34255 0.83565 0.21987 0.0
C1191 C 0.32725 0.82848 0.26505 0.0
C1192 C 0.35481 0.82606 0.19799 0.0
C1193 C 0.36824 0.80249 0.19919 0.0
C1194 C 0.34377 0.82154 0.24303 0.0
C1195 C 0.37072 0.79003 0.22314 0.0
C1196 C 0.33 0.81604 0.28902 0.0
C1197 C 0.28991 0.85031 0.28001 0.0
N1198 N 0.35825 0.79953 0.24411 0.0
N1199 N 0.30745 0.84533 0.26137 0.0
loop_
_geom_bond_atom_site_label_1
_geom_bond_atom_site_label_2
_geom_bond_distance
_geom_bond_site_symmetry_2
_ccdc_geom_bond_type
Co0 O1 2.216 . S
Co0 O2 2.091 . S
Co0 O4 2.004 . S
Co0 O10 2.021 . S
Co0 O12 2.137 . S
Co0 O13 2.244 . S
O1 Co0 2.216 . S
O1 C8 1.247 . S
O2 Co0 2.091 . S
O2 C8 1.261 . S
C3 O12 1.247 . S
C3 O13 1.272 . S
O4 Co0 2.004 . S
O4 C9 1.259 . S
Co5 O6 2.061 . S
Co5 O11 2.052 . S
Co5 O13 2.135 . S
O6 Co5 2.061 . S
O6 C9 1.235 . S
C7 O10 1.238 . S
C7 O11 1.241 . S
C8 O1 1.247 . S
C8 O2 1.261 . S
C9 O4 1.259 . S
C9 O6 1.235 . S
O10 Co0 2.021 . S
O10 C7 1.238 . S
O11 Co5 2.052 . S
O11 C7 1.241 . S
O12 Co0 2.137 . S
O12 C3 1.247 . S
O13 Co0 2.244 . S
O13 C3 1.272 . S
O13 Co5 2.135 . S
Co14 O15 2.216 . S
Co14 O16 2.091 . S
Co14 O18 2.004 . S
Co14 O24 2.021 . S
Co14 O26 2.137 . S
Co14 O27 2.244 . S
O15 Co14 2.216 . S
O15 C22 1.247 . S
O16 Co14 2.091 . S
O16 C22 1.261 . S
C17 O26 1.247 . S
C17 O27 1.272 . S
O18 Co14 2.004 . S
O18 C23 1.259 . S
Co19 O20 2.061 . S
Co19 O25 2.052 . S
Co19 O27 2.135 . S
O20 Co19 2.061 . S
O20 C23 1.235 . S
C21 O24 1.238 . S
C21 O25 1.241 . S
C22 O15 1.247 . S
C22 O16 1.261 . S
C23 O18 1.259 . S
C23 O20 1.235 . S
O24 Co14 2.021 . S
O24 C21 1.238 . S
O25 Co19 2.052 . S
O25 C21 1.241 . S
O26 Co14 2.137 . S
O26 C17 1.247 . S
O27 Co14 2.244 . S
O27 C17 1.272 . S
O27 Co19 2.135 . S
Co28 O29 2.216 . S
Co28 O30 2.091 . S
Co28 O32 2.004 . S
Co28 O38 2.021 . S
Co28 O40 2.137 . S
Co28 O41 2.244 . S
O29 Co28 2.216 . S
O29 C36 1.247 . S
O30 Co28 2.091 . S
O30 C36 1.261 . S
C31 O40 1.247 . S
C31 O41 1.272 . S
O32 Co28 2.004 . S
O32 C37 1.259 . S
Co33 O34 2.061 . S
Co33 O39 2.052 . S
Co33 O41 2.135 . S
O34 Co33 2.061 . S
O34 C37 1.235 . S
C35 O38 1.238 . S
C35 O39 1.241 . S
C36 O29 1.247 . S
C36 O30 1.261 . S
C37 O32 1.259 . S
C37 O34 1.235 . S
O38 Co28 2.021 . S
O38 C35 1.238 . S
O39 Co33 2.052 . S
O39 C35 1.241 . S
O40 Co28 2.137 . S
O40 C31 1.247 . S
O41 Co28 2.244 . S
O41 C31 1.272 . S
O41 Co33 2.135 . S
Co42 O43 2.216 . S
Co42 O44 2.091 . S
Co42 O46 2.004 . S
Co42 O52 2.021 . S
Co42 O54 2.137 . S
Co42 O55 2.244 . S
O43 Co42 2.216 . S
O43 C50 1.247 . S
O44 Co42 2.091 . S
O44 C50 1.261 . S
C45 O54 1.247 . S
C45 O55 1.272 . S
O46 Co42 2.004 . S
O46 C51 1.259 . S
Co47 O48 2.061 . S
Co47 O53 2.052 . S
Co47 O55 2.135 . S
O48 Co47 2.061 . S
O48 C51 1.235 . S
C49 O52 1.238 . S
C49 O53 1.241 . S
C50 O43 1.247 . S
C50 O44 1.261 . S
C51 O46 1.259 . S
C51 O48 1.235 . S
O52 Co42 2.021 . S
O52 C49 1.238 . S
O53 Co47 2.052 . S
O53 C49 1.241 . S
O54 Co42 2.137 . S
O54 C45 1.247 . S
O55 Co42 2.244 . S
O55 C45 1.272 . S
O55 Co47 2.135 . S
Co56 O57 2.216 . S
Co56 O58 2.091 . S
Co56 O60 2.004 . S
Co56 O66 2.021 . S
Co56 O68 2.137 . S
Co56 O69 2.244 . S
O57 Co56 2.216 . S
O57 C64 1.247 . S
O58 Co56 2.091 . S
O58 C64 1.261 . S
C59 O68 1.247 . S
C59 O69 1.272 . S
O60 Co56 2.004 . S
O60 C65 1.259 . S
Co61 O62 2.061 . S
Co61 O67 2.052 . S
Co61 O69 2.135 . S
O62 Co61 2.061 . S
O62 C65 1.235 . S
C63 O66 1.238 . S
C63 O67 1.241 . S
C64 O57 1.247 . S
C64 O58 1.261 . S
C65 O60 1.259 . S
C65 O62 1.235 . S
O66 Co56 2.021 . S
O66 C63 1.238 . S
O67 Co61 2.052 . S
O67 C63 1.241 . S
O68 Co56 2.137 . S
O68 C59 1.247 . S
O69 Co56 2.244 . S
O69 C59 1.272 . S
O69 Co61 2.135 . S
Co70 O71 2.216 . S
Co70 O72 2.091 . S
Co70 O74 2.004 . S
Co70 O80 2.021 . S
Co70 O82 2.137 . S
Co70 O83 2.244 . S
O71 Co70 2.216 . S
O71 C78 1.247 . S
O72 Co70 2.091 . S
O72 C78 1.261 . S
C73 O82 1.247 . S
C73 O83 1.272 . S
O74 Co70 2.004 . S
O74 C79 1.259 . S
Co75 O76 2.061 . S
Co75 O81 2.052 . S
Co75 O83 2.135 . S
O76 Co75 2.061 . S
O76 C79 1.235 . S
C77 O80 1.238 . S
C77 O81 1.241 . S
C78 O71 1.247 . S
C78 O72 1.261 . S
C79 O74 1.259 . S
C79 O76 1.235 . S
O80 Co70 2.021 . S
O80 C77 1.238 . S
O81 Co75 2.052 . S
O81 C77 1.241 . S
O82 Co70 2.137 . S
O82 C73 1.247 . S
O83 Co70 2.244 . S
O83 C73 1.272 . S
O83 Co75 2.135 . S
Co84 O85 2.216 . S
Co84 O86 2.091 . S
Co84 O88 2.004 . S
Co84 O94 2.021 . S
Co84 O96 2.137 . S
Co84 O97 2.244 . S
O85 Co84 2.216 . S
O85 C92 1.247 . S
O86 Co84 2.091 . S
O86 C92 1.261 . S
C87 O96 1.247 . S
C87 O97 1.272 . S
O88 Co84 2.004 . S
O88 C93 1.259 . S
Co89 O90 2.061 . S
Co89 O95 2.052 . S
Co89 O97 2.135 . S
O90 Co89 2.061 . S
O90 C93 1.235 . S
C91 O94 1.238 . S
C91 O95 1.241 . S
C92 O85 1.247 . S
C92 O86 1.261 . S
C93 O88 1.259 . S
C93 O90 1.235 . S
O94 Co84 2.021 . S
O94 C91 1.238 . S
O95 Co89 2.052 . S
O95 C91 1.241 . S
O96 Co84 2.137 . S
O96 C87 1.247 . S
O97 Co84 2.244 . S
O97 C87 1.272 . S
O97 Co89 2.135 . S
Co98 O99 2.216 . S
Co98 O100 2.091 . S
Co98 O102 2.004 . S
Co98 O108 2.021 . S
Co98 O110 2.137 . S
Co98 O111 2.244 . S
O99 Co98 2.216 . S
O99 C106 1.247 . S
O100 Co98 2.091 . S
O100 C106 1.261 . S
C101 O110 1.247 . S
C101 O111 1.272 . S
O102 Co98 2.004 . S
O102 C107 1.259 . S
Co103 O104 2.061 . S
Co103 O109 2.052 . S
Co103 O111 2.135 . S
O104 Co103 2.061 . S
O104 C107 1.235 . S
C105 O108 1.238 . S
C105 O109 1.241 . S
C106 O99 1.247 . S
C106 O100 1.261 . S
C107 O102 1.259 . S
C107 O104 1.235 . S
O108 Co98 2.021 . S
O108 C105 1.238 . S
O109 Co103 2.052 . S
O109 C105 1.241 . S
O110 Co98 2.137 . S
O110 C101 1.247 . S
O111 Co98 2.244 . S
O111 C101 1.272 . S
O111 Co103 2.135 . S
Co112 O113 2.216 . S
Co112 O114 2.091 . S
Co112 O116 2.004 . S
Co112 O122 2.021 . S
Co112 O124 2.137 . S
Co112 O125 2.244 . S
O113 Co112 2.216 . S
O113 C120 1.247 . S
O114 Co112 2.091 . S
O114 C120 1.261 . S
C115 O124 1.247 . S
C115 O125 1.272 . S
O116 Co112 2.004 . S
O116 C121 1.259 . S
Co117 O118 2.061 . S
Co117 O123 2.052 . S
Co117 O125 2.135 . S
O118 Co117 2.061 . S
O118 C121 1.235 . S
C119 O122 1.238 . S
C119 O123 1.241 . S
C120 O113 1.247 . S
C120 O114 1.261 . S
C121 O116 1.259 . S
C121 O118 1.235 . S
O122 Co112 2.021 . S
O122 C119 1.238 . S
O123 Co117 2.052 . S
O123 C119 1.241 . S
O124 Co112 2.137 . S
O124 C115 1.247 . S
O125 Co112 2.244 . S
O125 C115 1.272 . S
O125 Co117 2.135 . S
Co126 O127 2.216 . S
Co126 O128 2.091 . S
Co126 O130 2.004 . S
Co126 O136 2.021 . S
Co126 O138 2.137 . S
Co126 O139 2.244 . S
O127 Co126 2.216 . S
O127 C134 1.247 . S
O128 Co126 2.091 . S
O128 C134 1.261 . S
C129 O138 1.247 . S
C129 O139 1.272 . S
O130 Co126 2.004 . S
O130 C135 1.259 . S
Co131 O132 2.061 . S
Co131 O137 2.052 . S
Co131 O139 2.135 . S
O132 Co131 2.061 . S
O132 C135 1.235 . S
C133 O136 1.238 . S
C133 O137 1.241 . S
C134 O127 1.247 . S
C134 O128 1.261 . S
C135 O130 1.259 . S
C135 O132 1.235 . S
O136 Co126 2.021 . S
O136 C133 1.238 . S
O137 Co131 2.052 . S
O137 C133 1.241 . S
O138 Co126 2.137 . S
O138 C129 1.247 . S
O139 Co126 2.244 . S
O139 C129 1.272 . S
O139 Co131 2.135 . S
Co140 O141 2.216 . S
Co140 O142 2.091 . S
Co140 O144 2.004 . S
Co140 O150 2.021 . S
Co140 O152 2.137 . S
Co140 O153 2.244 . S
O141 Co140 2.216 . S
O141 C148 1.247 . S
O142 Co140 2.091 . S
O142 C148 1.261 . S
C143 O152 1.247 . S
C143 O153 1.272 . S
O144 Co140 2.004 . S
O144 C149 1.259 . S
Co145 O146 2.061 . S
Co145 O151 2.052 . S
Co145 O153 2.135 . S
O146 Co145 2.061 . S
O146 C149 1.235 . S
C147 O150 1.238 . S
C147 O151 1.241 . S
C148 O141 1.247 . S
C148 O142 1.261 . S
C149 O144 1.259 . S
C149 O146 1.235 . S
O150 Co140 2.021 . S
O150 C147 1.238 . S
O151 Co145 2.052 . S
O151 C147 1.241 . S
O152 Co140 2.137 . S
O152 C143 1.247 . S
O153 Co140 2.244 . S
O153 C143 1.272 . S
O153 Co145 2.135 . S
Co154 O155 2.216 . S
Co154 O156 2.091 . S
Co154 O158 2.004 . S
Co154 O164 2.021 . S
Co154 O166 2.137 . S
Co154 O167 2.244 . S
O155 Co154 2.216 . S
O155 C162 1.247 . S
O156 Co154 2.091 . S
O156 C162 1.261 . S
C157 O166 1.247 . S
C157 O167 1.272 . S
O158 Co154 2.004 . S
O158 C163 1.259 . S
Co159 O160 2.061 . S
Co159 O165 2.052 . S
Co159 O167 2.135 . S
O160 Co159 2.061 . S
O160 C163 1.235 . S
C161 O164 1.238 . S
C161 O165 1.241 . S
C162 O155 1.247 . S
C162 O156 1.261 . S
C163 O158 1.259 . S
C163 O160 1.235 . S
O164 Co154 2.021 . S
O164 C161 1.238 . S
O165 Co159 2.052 . S
O165 C161 1.241 . S
O166 Co154 2.137 . S
O166 C157 1.247 . S
O167 Co154 2.244 . S
O167 C157 1.272 . S
O167 Co159 2.135 . S
Co168 O169 2.216 . S
Co168 O170 2.091 . S
Co168 O172 2.004 . S
Co168 O178 2.021 . S
Co168 O180 2.137 . S
Co168 O181 2.244 . S
O169 Co168 2.216 . S
O169 C176 1.247 . S
O170 Co168 2.091 . S
O170 C176 1.261 . S
C171 O180 1.247 . S
C171 O181 1.272 . S
O172 Co168 2.004 . S
O172 C177 1.259 . S
Co173 O174 2.061 . S
Co173 O179 2.052 . S
Co173 O181 2.135 . S
O174 Co173 2.061 . S
O174 C177 1.235 . S
C175 O178 1.238 . S
C175 O179 1.241 . S
C176 O169 1.247 . S
C176 O170 1.261 . S
C177 O172 1.259 . S
C177 O174 1.235 . S
O178 Co168 2.021 . S
O178 C175 1.238 . S
O179 Co173 2.052 . S
O179 C175 1.241 . S
O180 Co168 2.137 . S
O180 C171 1.247 . S
O181 Co168 2.244 . S
O181 C171 1.272 . S
O181 Co173 2.135 . S
Co182 O183 2.216 . S
Co182 O184 2.091 . S
Co182 O186 2.004 . S
Co182 O192 2.021 . S
Co182 O194 2.137 . S
Co182 O195 2.244 . S
O183 Co182 2.216 . S
O183 C190 1.247 . S
O184 Co182 2.091 . S
O184 C190 1.261 . S
C185 O194 1.247 . S
C185 O195 1.272 . S
O186 Co182 2.004 . S
O186 C191 1.259 . S
Co187 O188 2.061 . S
Co187 O193 2.052 . S
Co187 O195 2.135 . S
O188 Co187 2.061 . S
O188 C191 1.235 . S
C189 O192 1.238 . S
C189 O193 1.241 . S
C190 O183 1.247 . S
C190 O184 1.261 . S
C191 O186 1.259 . S
C191 O188 1.235 . S
O192 Co182 2.021 . S
O192 C189 1.238 . S
O193 Co187 2.052 . S
O193 C189 1.241 . S
O194 Co182 2.137 . S
O194 C185 1.247 . S
O195 Co182 2.244 . S
O195 C185 1.272 . S
O195 Co187 2.135 . S
Co196 O197 2.216 . S
Co196 O198 2.091 . S
Co196 O200 2.004 . S
Co196 O206 2.021 . S
Co196 O208 2.137 . S
Co196 O209 2.244 . S
O197 Co196 2.216 . S
O197 C204 1.247 . S
O198 Co196 2.091 . S
O198 C204 1.261 . S
C199 O208 1.247 . S
C199 O209 1.272 . S
O200 Co196 2.004 . S
O200 C205 1.259 . S
Co201 O202 2.061 . S
Co201 O207 2.052 . S
Co201 O209 2.135 . S
O202 Co201 2.061 . S
O202 C205 1.235 . S
C203 O206 1.238 . S
C203 O207 1.241 . S
C204 O197 1.247 . S
C204 O198 1.261 . S
C205 O200 1.259 . S
C205 O202 1.235 . S
O206 Co196 2.021 . S
O206 C203 1.238 . S
O207 Co201 2.052 . S
O207 C203 1.241 . S
O208 Co196 2.137 . S
O208 C199 1.247 . S
O209 Co196 2.244 . S
O209 C199 1.272 . S
O209 Co201 2.135 . S
Co210 O211 2.216 . S
Co210 O212 2.091 . S
Co210 O214 2.004 . S
Co210 O220 2.021 . S
Co210 O222 2.137 . S
Co210 O223 2.244 . S
O211 Co210 2.216 . S
O211 C218 1.247 . S
O212 Co210 2.091 . S
O212 C218 1.261 . S
C213 O222 1.247 . S
C213 O223 1.272 . S
O214 Co210 2.004 . S
O214 C219 1.259 . S
Co215 O216 2.061 . S
Co215 O221 2.052 . S
Co215 O223 2.135 . S
O216 Co215 2.061 . S
O216 C219 1.235 . S
C217 O220 1.238 . S
C217 O221 1.241 . S
C218 O211 1.247 . S
C218 O212 1.261 . S
C219 O214 1.259 . S
C219 O216 1.235 . S
O220 Co210 2.021 . S
O220 C217 1.238 . S
O221 Co215 2.052 . S
O221 C217 1.241 . S
O222 Co210 2.137 . S
O222 C213 1.247 . S
O223 Co210 2.244 . S
O223 C213 1.272 . S
O223 Co215 2.135 . S
Co224 O225 2.216 . S
Co224 O226 2.091 . S
Co224 O228 2.004 . S
Co224 O234 2.021 . S
Co224 O236 2.137 . S
Co224 O237 2.244 . S
O225 Co224 2.216 . S
O225 C232 1.247 . S
O226 Co224 2.091 . S
O226 C232 1.261 . S
C227 O236 1.247 . S
C227 O237 1.272 . S
O228 Co224 2.004 . S
O228 C233 1.259 . S
Co229 O230 2.061 . S
Co229 O235 2.052 . S
Co229 O237 2.135 . S
O230 Co229 2.061 . S
O230 C233 1.235 . S
C231 O234 1.238 . S
C231 O235 1.241 . S
C232 O225 1.247 . S
C232 O226 1.261 . S
C233 O228 1.259 . S
C233 O230 1.235 . S
O234 Co224 2.021 . S
O234 C231 1.238 . S
O235 Co229 2.052 . S
O235 C231 1.241 . S
O236 Co224 2.137 . S
O236 C227 1.247 . S
O237 Co224 2.244 . S
O237 C227 1.272 . S
O237 Co229 2.135 . S
Co238 O239 2.216 . S
Co238 O240 2.091 . S
Co238 O242 2.004 . S
Co238 O248 2.021 . S
Co238 O250 2.137 . S
Co238 O251 2.244 . S
O239 Co238 2.216 . S
O239 C246 1.247 . S
O240 Co238 2.091 . S
O240 C246 1.261 . S
C241 O250 1.247 . S
C241 O251 1.272 . S
O242 Co238 2.004 . S
O242 C247 1.259 . S
Co243 O244 2.061 . S
Co243 O249 2.052 . S
Co243 O251 2.135 . S
O244 Co243 2.061 . S
O244 C247 1.235 . S
C245 O248 1.238 . S
C245 O249 1.241 . S
C246 O239 1.247 . S
C246 O240 1.261 . S
C247 O242 1.259 . S
C247 O244 1.235 . S
O248 Co238 2.021 . S
O248 C245 1.238 . S
O249 Co243 2.052 . S
O249 C245 1.241 . S
O250 Co238 2.137 . S
O250 C241 1.247 . S
O251 Co238 2.244 . S
O251 C241 1.272 . S
O251 Co243 2.135 . S
Co252 O253 2.216 . S
Co252 O254 2.091 . S
Co252 O256 2.004 . S
Co252 O262 2.021 . S
Co252 O264 2.137 . S
Co252 O265 2.244 . S
O253 Co252 2.216 . S
O253 C260 1.247 . S
O254 Co252 2.091 . S
O254 C260 1.261 . S
C255 O264 1.247 . S
C255 O265 1.272 . S
O256 Co252 2.004 . S
O256 C261 1.259 . S
Co257 O258 2.061 . S
Co257 O263 2.052 . S
Co257 O265 2.135 . S
O258 Co257 2.061 . S
O258 C261 1.235 . S
C259 O262 1.238 . S
C259 O263 1.241 . S
C260 O253 1.247 . S
C260 O254 1.261 . S
C261 O256 1.259 . S
C261 O258 1.235 . S
O262 Co252 2.021 . S
O262 C259 1.238 . S
O263 Co257 2.052 . S
O263 C259 1.241 . S
O264 Co252 2.137 . S
O264 C255 1.247 . S
O265 Co252 2.244 . S
O265 C255 1.272 . S
O265 Co257 2.135 . S
Co266 O267 2.216 . S
Co266 O268 2.091 . S
Co266 O270 2.004 . S
Co266 O276 2.021 . S
Co266 O278 2.137 . S
Co266 O279 2.244 . S
O267 Co266 2.216 . S
O267 C274 1.247 . S
O268 Co266 2.091 . S
O268 C274 1.261 . S
C269 O278 1.247 . S
C269 O279 1.272 . S
O270 Co266 2.004 . S
O270 C275 1.259 . S
Co271 O272 2.061 . S
Co271 O277 2.052 . S
Co271 O279 2.135 . S
O272 Co271 2.061 . S
O272 C275 1.235 . S
C273 O276 1.238 . S
C273 O277 1.241 . S
C274 O267 1.247 . S
C274 O268 1.261 . S
C275 O270 1.259 . S
C275 O272 1.235 . S
O276 Co266 2.021 . S
O276 C273 1.238 . S
O277 Co271 2.052 . S
O277 C273 1.241 . S
O278 Co266 2.137 . S
O278 C269 1.247 . S
O279 Co266 2.244 . S
O279 C269 1.272 . S
O279 Co271 2.135 . S
Co280 O281 2.216 . S
Co280 O282 2.091 . S
Co280 O284 2.004 . S
Co280 O290 2.021 . S
Co280 O292 2.137 . S
Co280 O293 2.244 . S
O281 Co280 2.216 . S
O281 C288 1.247 . S
O282 Co280 2.091 . S
O282 C288 1.261 . S
C283 O292 1.247 . S
C283 O293 1.272 . S
O284 Co280 2.004 . S
O284 C289 1.259 . S
Co285 O286 2.061 . S
Co285 O291 2.052 . S
Co285 O293 2.135 . S
O286 Co285 2.061 . S
O286 C289 1.235 . S
C287 O290 1.238 . S
C287 O291 1.241 . S
C288 O281 1.247 . S
C288 O282 1.261 . S
C289 O284 1.259 . S
C289 O286 1.235 . S
O290 Co280 2.021 . S
O290 C287 1.238 . S
O291 Co285 2.052 . S
O291 C287 1.241 . S
O292 Co280 2.137 . S
O292 C283 1.247 . S
O293 Co280 2.244 . S
O293 C283 1.272 . S
O293 Co285 2.135 . S
Co294 O295 2.216 . S
Co294 O296 2.091 . S
Co294 O298 2.004 . S
Co294 O304 2.021 . S
Co294 O306 2.137 . S
Co294 O307 2.244 . S
O295 Co294 2.216 . S
O295 C302 1.247 . S
O296 Co294 2.091 . S
O296 C302 1.261 . S
C297 O306 1.247 . S
C297 O307 1.272 . S
O298 Co294 2.004 . S
O298 C303 1.259 . S
Co299 O300 2.061 . S
Co299 O305 2.052 . S
Co299 O307 2.135 . S
O300 Co299 2.061 . S
O300 C303 1.235 . S
C301 O304 1.238 . S
C301 O305 1.241 . S
C302 O295 1.247 . S
C302 O296 1.261 . S
C303 O298 1.259 . S
C303 O300 1.235 . S
O304 Co294 2.021 . S
O304 C301 1.238 . S
O305 Co299 2.052 . S
O305 C301 1.241 . S
O306 Co294 2.137 . S
O306 C297 1.247 . S
O307 Co294 2.244 . S
O307 C297 1.272 . S
O307 Co299 2.135 . S
Co308 O309 2.216 . S
Co308 O310 2.091 . S
Co308 O312 2.004 . S
Co308 O318 2.021 . S
Co308 O320 2.137 . S
Co308 O321 2.244 . S
O309 Co308 2.216 . S
O309 C316 1.247 . S
O310 Co308 2.091 . S
O310 C316 1.261 . S
C311 O320 1.247 . S
C311 O321 1.272 . S
O312 Co308 2.004 . S
O312 C317 1.259 . S
Co313 O314 2.061 . S
Co313 O319 2.052 . S
Co313 O321 2.135 . S
O314 Co313 2.061 . S
O314 C317 1.235 . S
C315 O318 1.238 . S
C315 O319 1.241 . S
C316 O309 1.247 . S
C316 O310 1.261 . S
C317 O312 1.259 . S
C317 O314 1.235 . S
O318 Co308 2.021 . S
O318 C315 1.238 . S
O319 Co313 2.052 . S
O319 C315 1.241 . S
O320 Co308 2.137 . S
O320 C311 1.247 . S
O321 Co308 2.244 . S
O321 C311 1.272 . S
O321 Co313 2.135 . S
Co322 O323 2.216 . S
Co322 O324 2.091 . S
Co322 O326 2.004 . S
Co322 O332 2.021 . S
Co322 O334 2.137 . S
Co322 O335 2.244 . S
O323 Co322 2.216 . S
O323 C330 1.247 . S
O324 Co322 2.091 . S
O324 C330 1.261 . S
C325 O334 1.247 . S
C325 O335 1.272 . S
O326 Co322 2.004 . S
O326 C331 1.259 . S
Co327 O328 2.061 . S
Co327 O333 2.052 . S
Co327 O335 2.135 . S
O328 Co327 2.061 . S
O328 C331 1.235 . S
C329 O332 1.238 . S
C329 O333 1.241 . S
C330 O323 1.247 . S
C330 O324 1.261 . S
C331 O326 1.259 . S
C331 O328 1.235 . S
O332 Co322 2.021 . S
O332 C329 1.238 . S
O333 Co327 2.052 . S
O333 C329 1.241 . S
O334 Co322 2.137 . S
O334 C325 1.247 . S
O335 Co322 2.244 . S
O335 C325 1.272 . S
O335 Co327 2.135 . S
H336 C342 0.930 . S
H337 C346 0.930 . S
H338 C351 0.929 . S
H339 C349 0.929 . S
H340 C344 0.929 . S
H341 C350 0.929 . S
C342 H336 0.930 . S
C342 C343 1.367 . S
C342 C350 1.378 . S
C343 C342 1.367 . S
C343 C351 1.433 . S
C344 H340 0.929 . S
C344 C346 1.378 . S
C344 C348 1.350 . S
C345 C348 1.463 . S
C345 C350 1.350 . S
C345 N353 1.427 . S
C346 H337 0.930 . S
C346 C344 1.378 . S
C346 C347 1.367 . S
C347 C346 1.367 . S
C347 C349 1.433 . S
C348 C344 1.350 . S
C348 C345 1.463 . S
C348 N352 1.427 . S
C349 H339 0.929 . S
C349 C347 1.433 . S
C349 N352 1.384 . S
C350 H341 0.929 . S
C350 C342 1.378 . S
C350 C345 1.350 . S
C351 H338 0.929 . S
C351 C343 1.433 . S
C351 N353 1.384 . S
N352 C348 1.427 . S
N352 C349 1.384 . S
N353 C345 1.427 . S
N353 C351 1.384 . S
H354 C360 0.930 . S
H355 C364 0.930 . S
H356 C369 0.929 . S
H357 C367 0.929 . S
H358 C362 0.929 . S
H359 C368 0.929 . S
C360 H354 0.930 . S
C360 C361 1.367 . S
C360 C368 1.378 . S
C361 C360 1.367 . S
C361 C369 1.433 . S
C362 H358 0.929 . S
C362 C364 1.378 . S
C362 C366 1.350 . S
C363 C366 1.463 1_655 S
C363 C368 1.350 . S
C363 N371 1.427 . S
C364 H355 0.930 . S
C364 C362 1.378 . S
C364 C365 1.367 . S
C365 C364 1.367 . S
C365 C367 1.433 . S
C366 C362 1.350 . S
C366 C363 1.463 1_455 S
C366 N370 1.427 . S
C367 H357 0.929 . S
C367 C365 1.433 . S
C367 N370 1.384 . S
C368 H359 0.929 . S
C368 C360 1.378 . S
C368 C363 1.350 . S
C369 H356 0.929 . S
C369 C361 1.433 . S
C369 N371 1.384 . S
N370 C366 1.427 . S
N370 C367 1.384 . S
N371 C363 1.427 . S
N371 C369 1.384 . S
H372 C378 0.930 . S
H373 C382 0.930 . S
H374 C387 0.929 . S
H375 C385 0.929 . S
H376 C380 0.929 . S
H377 C386 0.929 . S
C378 H372 0.930 . S
C378 C379 1.367 . S
C378 C386 1.378 . S
C379 C378 1.367 . S
C379 C387 1.433 . S
C380 H376 0.929 . S
C380 C382 1.378 . S
C380 C384 1.350 . S
C381 C384 1.463 . S
C381 C386 1.350 . S
C381 N389 1.427 . S
C382 H373 0.930 . S
C382 C380 1.378 . S
C382 C383 1.367 . S
C383 C382 1.367 . S
C383 C385 1.433 . S
C384 C380 1.350 . S
C384 C381 1.463 . S
C384 N388 1.427 . S
C385 H375 0.929 . S
C385 C383 1.433 . S
C385 N388 1.384 . S
C386 H377 0.929 . S
C386 C378 1.378 . S
C386 C381 1.350 . S
C387 H374 0.929 . S
C387 C379 1.433 . S
C387 N389 1.384 . S
N388 C384 1.427 . S
N388 C385 1.384 . S
N389 C381 1.427 . S
N389 C387 1.384 . S
H390 C396 0.930 . S
H391 C400 0.930 . S
H392 C405 0.929 . S
H393 C403 0.929 . S
H394 C398 0.929 . S
H395 C404 0.929 . S
C396 H390 0.930 . S
C396 C397 1.367 . S
C396 C404 1.378 . S
C397 C396 1.367 . S
C397 C405 1.433 . S
C398 H394 0.929 . S
C398 C400 1.378 . S
C398 C402 1.350 . S
C399 C402 1.463 1_455 S
C399 C404 1.350 . S
C399 N407 1.427 . S
C400 H391 0.930 . S
C400 C398 1.378 . S
C400 C401 1.367 . S
C401 C400 1.367 . S
C401 C403 1.433 . S
C402 C398 1.350 . S
C402 C399 1.463 1_655 S
C402 N406 1.427 . S
C403 H393 0.929 . S
C403 C401 1.433 . S
C403 N406 1.384 . S
C404 H395 0.929 . S
C404 C396 1.378 . S
C404 C399 1.350 . S
C405 H392 0.929 . S
C405 C397 1.433 . S
C405 N407 1.384 . S
N406 C402 1.427 . S
N406 C403 1.384 . S
N407 C399 1.427 . S
N407 C405 1.384 . S
H408 C414 0.930 . S
H409 C418 0.930 . S
H410 C423 0.929 . S
H411 C421 0.929 . S
H412 C416 0.929 . S
H413 C422 0.929 . S
C414 H408 0.930 . S
C414 C415 1.367 . S
C414 C422 1.378 . S
C415 C414 1.367 . S
C415 C423 1.433 . S
C416 H412 0.929 . S
C416 C418 1.378 . S
C416 C420 1.350 . S
C417 C420 1.463 . S
C417 C422 1.350 . S
C417 N425 1.427 . S
C418 H409 0.930 . S
C418 C416 1.378 . S
C418 C419 1.367 . S
C419 C418 1.367 . S
C419 C421 1.433 . S
C420 C416 1.350 . S
C420 C417 1.463 . S
C420 N424 1.427 . S
C421 H411 0.929 . S
C421 C419 1.433 . S
C421 N424 1.384 . S
C422 H413 0.929 . S
C422 C414 1.378 . S
C422 C417 1.350 . S
C423 H410 0.929 . S
C423 C415 1.433 . S
C423 N425 1.384 . S
N424 C420 1.427 . S
N424 C421 1.384 . S
N425 C417 1.427 . S
N425 C423 1.384 . S
H426 C432 0.930 . S
H427 C436 0.930 . S
H428 C441 0.929 . S
H429 C439 0.929 . S
H430 C434 0.929 . S
H431 C440 0.929 . S
C432 H426 0.930 . S
C432 C433 1.367 . S
C432 C440 1.378 . S
C433 C432 1.367 . S
C433 C441 1.433 . S
C434 H430 0.929 . S
C434 C436 1.378 . S
C434 C438 1.350 . S
C435 C438 1.463 1_655 S
C435 C440 1.350 . S
C435 N443 1.427 . S
C436 H427 0.930 . S
C436 C434 1.378 . S
C436 C437 1.367 . S
C437 C436 1.367 . S
C437 C439 1.433 . S
C438 C434 1.350 . S
C438 C435 1.463 1_455 S
C438 N442 1.427 . S
C439 H429 0.929 . S
C439 C437 1.433 . S
C439 N442 1.384 . S
C440 H431 0.929 . S
C440 C432 1.378 . S
C440 C435 1.350 . S
C441 H428 0.929 . S
C441 C433 1.433 . S
C441 N443 1.384 . S
N442 C438 1.427 . S
N442 C439 1.384 . S
N443 C435 1.427 . S
N443 C441 1.384 . S
H444 C450 0.930 . S
H445 C454 0.930 . S
H446 C459 0.929 . S
H447 C457 0.929 . S
H448 C452 0.929 . S
H449 C458 0.929 . S
C450 H444 0.930 . S
C450 C451 1.367 . S
C450 C458 1.378 . S
C451 C450 1.367 . S
C451 C459 1.433 . S
C452 H448 0.929 . S
C452 C454 1.378 . S
C452 C456 1.350 . S
C453 C456 1.463 . S
C453 C458 1.350 . S
C453 N461 1.427 . S
C454 H445 0.930 . S
C454 C452 1.378 . S
C454 C455 1.367 . S
C455 C454 1.367 . S
C455 C457 1.433 . S
C456 C452 1.350 . S
C456 C453 1.463 . S
C456 N460 1.427 . S
C457 H447 0.929 . S
C457 C455 1.433 . S
C457 N460 1.384 . S
C458 H449 0.929 . S
C458 C450 1.378 . S
C458 C453 1.350 . S
C459 H446 0.929 . S
C459 C451 1.433 . S
C459 N461 1.384 . S
N460 C456 1.427 . S
N460 C457 1.384 . S
N461 C453 1.427 . S
N461 C459 1.384 . S
H462 C468 0.930 . S
H463 C472 0.930 . S
H464 C477 0.929 . S
H465 C475 0.929 . S
H466 C470 0.929 . S
H467 C476 0.929 . S
C468 H462 0.930 . S
C468 C469 1.367 . S
C468 C476 1.378 . S
C469 C468 1.367 . S
C469 C477 1.433 . S
C470 H466 0.929 . S
C470 C472 1.378 . S
C470 C474 1.350 . S
C471 C474 1.463 1_655 S
C471 C476 1.350 . S
C471 N479 1.427 . S
C472 H463 0.930 . S
C472 C470 1.378 . S
C472 C473 1.367 . S
C473 C472 1.367 . S
C473 C475 1.433 . S
C474 C470 1.350 . S
C474 C471 1.463 1_455 S
C474 N478 1.427 . S
C475 H465 0.929 . S
C475 C473 1.433 . S
C475 N478 1.384 . S
C476 H467 0.929 . S
C476 C468 1.378 . S
C476 C471 1.350 . S
C477 H464 0.929 . S
C477 C469 1.433 . S
C477 N479 1.384 . S
N478 C474 1.427 . S
N478 C475 1.384 . S
N479 C471 1.427 . S
N479 C477 1.384 . S
H480 C486 0.930 . S
H481 C490 0.930 . S
H482 C495 0.929 . S
H483 C493 0.929 . S
H484 C488 0.929 . S
H485 C494 0.929 . S
C486 H480 0.930 . S
C486 C487 1.367 . S
C486 C494 1.378 . S
C487 C486 1.367 . S
C487 C495 1.433 . S
C488 H484 0.929 . S
C488 C490 1.378 . S
C488 C492 1.350 . S
C489 C492 1.463 . S
C489 C494 1.350 . S
C489 N497 1.427 . S
C490 H481 0.930 . S
C490 C488 1.378 . S
C490 C491 1.367 . S
C491 C490 1.367 . S
C491 C493 1.433 . S
C492 C488 1.350 . S
C492 C489 1.463 . S
C492 N496 1.427 . S
C493 H483 0.929 . S
C493 C491 1.433 . S
C493 N496 1.384 . S
C494 H485 0.929 . S
C494 C486 1.378 . S
C494 C489 1.350 . S
C495 H482 0.929 . S
C495 C487 1.433 . S
C495 N497 1.384 . S
N496 C492 1.427 . S
N496 C493 1.384 . S
N497 C489 1.427 . S
N497 C495 1.384 . S
H498 C504 0.930 . S
H499 C508 0.930 . S
H500 C513 0.929 . S
H501 C511 0.929 . S
H502 C506 0.929 . S
H503 C512 0.929 . S
C504 H498 0.930 . S
C504 C505 1.367 . S
C504 C512 1.378 . S
C505 C504 1.367 . S
C505 C513 1.433 . S
C506 H502 0.929 . S
C506 C508 1.378 . S
C506 C510 1.350 . S
C507 C510 1.463 1_556 S
C507 C512 1.350 . S
C507 N515 1.427 . S
C508 H499 0.930 . S
C508 C506 1.378 . S
C508 C509 1.367 . S
C509 C508 1.367 . S
C509 C511 1.433 . S
C510 C506 1.350 . S
C510 C507 1.463 1_554 S
C510 N514 1.427 . S
C511 H501 0.929 . S
C511 C509 1.433 . S
C511 N514 1.384 . S
C512 H503 0.929 . S
C512 C504 1.378 . S
C512 C507 1.350 . S
C513 H500 0.929 . S
C513 C505 1.433 . S
C513 N515 1.384 . S
N514 C510 1.427 . S
N514 C511 1.384 . S
N515 C507 1.427 . S
N515 C513 1.384 . S
H516 C522 0.930 . S
H517 C526 0.930 . S
H518 C531 0.929 . S
H519 C529 0.929 . S
H520 C524 0.929 . S
H521 C530 0.929 . S
C522 H516 0.930 . S
C522 C523 1.367 . S
C522 C530 1.378 . S
C523 C522 1.367 . S
C523 C531 1.433 . S
C524 H520 0.929 . S
C524 C526 1.378 . S
C524 C528 1.350 . S
C525 C528 1.463 . S
C525 C530 1.350 . S
C525 N533 1.427 . S
C526 H517 0.930 . S
C526 C524 1.378 . S
C526 C527 1.367 . S
C527 C526 1.367 . S
C527 C529 1.433 . S
C528 C524 1.350 . S
C528 C525 1.463 . S
C528 N532 1.427 . S
C529 H519 0.929 . S
C529 C527 1.433 . S
C529 N532 1.384 . S
C530 H521 0.929 . S
C530 C522 1.378 . S
C530 C525 1.350 . S
C531 H518 0.929 . S
C531 C523 1.433 . S
C531 N533 1.384 . S
N532 C528 1.427 . S
N532 C529 1.384 . S
N533 C525 1.427 . S
N533 C531 1.384 . S
H534 C540 0.930 . S
H535 C544 0.930 . S
H536 C549 0.929 . S
H537 C547 0.929 . S
H538 C542 0.929 . S
H539 C548 0.929 . S
C540 H534 0.930 . S
C540 C541 1.367 . S
C540 C548 1.378 . S
C541 C540 1.367 . S
C541 C549 1.433 . S
C542 H538 0.929 . S
C542 C544 1.378 . S
C542 C546 1.350 . S
C543 C546 1.463 1_554 S
C543 C548 1.350 . S
C543 N551 1.427 . S
C544 H535 0.930 . S
C544 C542 1.378 . S
C544 C545 1.367 . S
C545 C544 1.367 . S
C545 C547 1.433 . S
C546 C542 1.350 . S
C546 C543 1.463 1_556 S
C546 N550 1.427 . S
C547 H537 0.929 . S
C547 C545 1.433 . S
C547 N550 1.384 . S
C548 H539 0.929 . S
C548 C540 1.378 . S
C548 C543 1.350 . S
C549 H536 0.929 . S
C549 C541 1.433 . S
C549 N551 1.384 . S
N550 C546 1.427 . S
N550 C547 1.384 . S
N551 C543 1.427 . S
N551 C549 1.384 . S
H552 C558 0.930 . S
H553 C562 0.930 . S
H554 C567 0.929 . S
H555 C565 0.929 . S
H556 C560 0.929 . S
H557 C566 0.929 . S
C558 H552 0.930 . S
C558 C559 1.367 . S
C558 C566 1.378 . S
C559 C558 1.367 . S
C559 C567 1.433 . S
C560 H556 0.929 . S
C560 C562 1.378 . S
C560 C564 1.350 . S
C561 C564 1.463 . S
C561 C566 1.350 . S
C561 N569 1.427 . S
C562 H553 0.930 . S
C562 C560 1.378 . S
C562 C563 1.367 . S
C563 C562 1.367 . S
C563 C565 1.433 . S
C564 C560 1.350 . S
C564 C561 1.463 . S
C564 N568 1.427 . S
C565 H555 0.929 . S
C565 C563 1.433 . S
C565 N568 1.384 . S
C566 H557 0.929 . S
C566 C558 1.378 . S
C566 C561 1.350 . S
C567 H554 0.929 . S
C567 C559 1.433 . S
C567 N569 1.384 . S
N568 C564 1.427 . S
N568 C565 1.384 . S
N569 C561 1.427 . S
N569 C567 1.384 . S
H570 C576 0.930 . S
H571 C580 0.930 . S
H572 C585 0.929 . S
H573 C583 0.929 . S
H574 C578 0.929 . S
H575 C584 0.929 . S
C576 H570 0.930 . S
C576 C577 1.367 . S
C576 C584 1.378 . S
C577 C576 1.367 . S
C577 C585 1.433 . S
C578 H574 0.929 . S
C578 C580 1.378 . S
C578 C582 1.350 . S
C579 C582 1.463 1_554 S
C579 C584 1.350 . S
C579 N587 1.427 . S
C580 H571 0.930 . S
C580 C578 1.378 . S
C580 C581 1.367 . S
C581 C580 1.367 . S
C581 C583 1.433 . S
C582 C578 1.350 . S
C582 C579 1.463 1_556 S
C582 N586 1.427 . S
C583 H573 0.929 . S
C583 C581 1.433 . S
C583 N586 1.384 . S
C584 H575 0.929 . S
C584 C576 1.378 . S
C584 C579 1.350 . S
C585 H572 0.929 . S
C585 C577 1.433 . S
C585 N587 1.384 . S
N586 C582 1.427 . S
N586 C583 1.384 . S
N587 C579 1.427 . S
N587 C585 1.384 . S
H588 C594 0.930 . S
H589 C598 0.930 . S
H590 C603 0.929 . S
H591 C601 0.929 . S
H592 C596 0.929 . S
H593 C602 0.929 . S
C594 H588 0.930 . S
C594 C595 1.367 . S
C594 C602 1.378 . S
C595 C594 1.367 . S
C595 C603 1.433 . S
C596 H592 0.929 . S
C596 C598 1.378 . S
C596 C600 1.350 . S
C597 C600 1.463 . S
C597 C602 1.350 . S
C597 N605 1.427 . S
C598 H589 0.930 . S
C598 C596 1.378 . S
C598 C599 1.367 . S
C599 C598 1.367 . S
C599 C601 1.433 . S
C600 C596 1.350 . S
C600 C597 1.463 . S
C600 N604 1.427 . S
C601 H591 0.929 . S
C601 C599 1.433 . S
C601 N604 1.384 . S
C602 H593 0.929 . S
C602 C594 1.378 . S
C602 C597 1.350 . S
C603 H590 0.929 . S
C603 C595 1.433 . S
C603 N605 1.384 . S
N604 C600 1.427 . S
N604 C601 1.384 . S
N605 C597 1.427 . S
N605 C603 1.384 . S
H606 C612 0.930 . S
H607 C616 0.930 . S
H608 C621 0.929 . S
H609 C619 0.929 . S
H610 C614 0.929 . S
H611 C620 0.929 . S
C612 H606 0.930 . S
C612 C613 1.367 . S
C612 C620 1.378 . S
C613 C612 1.367 . S
C613 C621 1.433 . S
C614 H610 0.929 . S
C614 C616 1.378 . S
C614 C618 1.350 . S
C615 C618 1.463 1_554 S
C615 C620 1.350 . S
C615 N623 1.427 . S
C616 H607 0.930 . S
C616 C614 1.378 . S
C616 C617 1.367 . S
C617 C616 1.367 . S
C617 C619 1.433 . S
C618 C614 1.350 . S
C618 C615 1.463 1_556 S
C618 N622 1.427 . S
C619 H609 0.929 . S
C619 C617 1.433 . S
C619 N622 1.384 . S
C620 H611 0.929 . S
C620 C612 1.378 . S
C620 C615 1.350 . S
C621 H608 0.929 . S
C621 C613 1.433 . S
C621 N623 1.384 . S
N622 C618 1.427 . S
N622 C619 1.384 . S
N623 C615 1.427 . S
N623 C621 1.384 . S
H624 C630 0.930 . S
H625 C634 0.930 . S
H626 C639 0.929 . S
H627 C637 0.929 . S
H628 C632 0.929 . S
H629 C638 0.929 . S
C630 H624 0.930 . S
C630 C631 1.367 . S
C630 C638 1.378 . S
C631 C630 1.367 . S
C631 C639 1.433 . S
C632 H628 0.929 . S
C632 C634 1.378 . S
C632 C636 1.350 . S
C633 C636 1.463 . S
C633 C638 1.350 . S
C633 N641 1.427 . S
C634 H625 0.930 . S
C634 C632 1.378 . S
C634 C635 1.367 . S
C635 C634 1.367 . S
C635 C637 1.433 . S
C636 C632 1.350 . S
C636 C633 1.463 . S
C636 N640 1.427 . S
C637 H627 0.929 . S
C637 C635 1.433 . S
C637 N640 1.384 . S
C638 H629 0.929 . S
C638 C630 1.378 . S
C638 C633 1.350 . S
C639 H626 0.929 . S
C639 C631 1.433 . S
C639 N641 1.384 . S
N640 C636 1.427 . S
N640 C637 1.384 . S
N641 C633 1.427 . S
N641 C639 1.384 . S
H642 C648 0.930 . S
H643 C652 0.930 . S
H644 C657 0.929 . S
H645 C655 0.929 . S
H646 C650 0.929 . S
H647 C656 0.929 . S
C648 H642 0.930 . S
C648 C649 1.367 . S
C648 C656 1.378 . S
C649 C648 1.367 . S
C649 C657 1.433 . S
C650 H646 0.929 . S
C650 C652 1.378 . S
C650 C654 1.350 . S
C651 C654 1.463 . S
C651 C656 1.350 . S
C651 N659 1.427 . S
C652 H643 0.930 . S
C652 C650 1.378 . S
C652 C653 1.367 . S
C653 C652 1.367 . S
C653 C655 1.433 . S
C654 C650 1.350 . S
C654 C651 1.463 . S
C654 N658 1.427 . S
C655 H645 0.929 . S
C655 C653 1.433 . S
C655 N658 1.384 . S
C656 H647 0.929 . S
C656 C648 1.378 . S
C656 C651 1.350 . S
C657 H644 0.929 . S
C657 C649 1.433 . S
C657 N659 1.384 . S
N658 C654 1.427 . S
N658 C655 1.384 . S
N659 C651 1.427 . S
N659 C657 1.384 . S
H660 C666 0.930 . S
H661 C670 0.930 . S
H662 C675 0.929 . S
H663 C673 0.929 . S
H664 C668 0.929 . S
H665 C674 0.929 . S
C666 H660 0.930 . S
C666 C667 1.367 . S
C666 C674 1.378 . S
C667 C666 1.367 . S
C667 C675 1.433 . S
C668 H664 0.929 . S
C668 C670 1.378 . S
C668 C672 1.350 . S
C669 C672 1.463 1_565 S
C669 C674 1.350 . S
C669 N677 1.427 . S
C670 H661 0.930 . S
C670 C668 1.378 . S
C670 C671 1.367 . S
C671 C670 1.367 . S
C671 C673 1.433 . S
C672 C668 1.350 . S
C672 C669 1.463 1_545 S
C672 N676 1.427 . S
C673 H663 0.929 . S
C673 C671 1.433 . S
C673 N676 1.384 . S
C674 H665 0.929 . S
C674 C666 1.378 . S
C674 C669 1.350 . S
C675 H662 0.929 . S
C675 C667 1.433 . S
C675 N677 1.384 . S
N676 C672 1.427 . S
N676 C673 1.384 . S
N677 C669 1.427 . S
N677 C675 1.384 . S
H678 C684 0.930 . S
H679 C688 0.930 . S
H680 C693 0.929 . S
H681 C691 0.929 . S
H682 C686 0.929 . S
H683 C692 0.929 . S
C684 H678 0.930 . S
C684 C685 1.367 . S
C684 C692 1.378 . S
C685 C684 1.367 . S
C685 C693 1.433 . S
C686 H682 0.929 . S
C686 C688 1.378 . S
C686 C690 1.350 . S
C687 C690 1.463 . S
C687 C692 1.350 . S
C687 N695 1.427 . S
C688 H679 0.930 . S
C688 C686 1.378 . S
C688 C689 1.367 . S
C689 C688 1.367 . S
C689 C691 1.433 . S
C690 C686 1.350 . S
C690 C687 1.463 . S
C690 N694 1.427 . S
C691 H681 0.929 . S
C691 C689 1.433 . S
C691 N694 1.384 . S
C692 H683 0.929 . S
C692 C684 1.378 . S
C692 C687 1.350 . S
C693 H680 0.929 . S
C693 C685 1.433 . S
C693 N695 1.384 . S
N694 C690 1.427 . S
N694 C691 1.384 . S
N695 C687 1.427 . S
N695 C693 1.384 . S
H696 C702 0.930 . S
H697 C706 0.930 . S
H698 C711 0.929 . S
H699 C709 0.929 . S
H700 C704 0.929 . S
H701 C710 0.929 . S
C702 H696 0.930 . S
C702 C703 1.367 . S
C702 C710 1.378 . S
C703 C702 1.367 . S
C703 C711 1.433 . S
C704 H700 0.929 . S
C704 C706 1.378 . S
C704 C708 1.350 . S
C705 C708 1.463 1_565 S
C705 C710 1.350 . S
C705 N713 1.427 . S
C706 H697 0.930 . S
C706 C704 1.378 . S
C706 C707 1.367 . S
C707 C706 1.367 . S
C707 C709 1.433 . S
C708 C704 1.350 . S
C708 C705 1.463 1_545 S
C708 N712 1.427 . S
C709 H699 0.929 . S
C709 C707 1.433 . S
C709 N712 1.384 . S
C710 H701 0.929 . S
C710 C702 1.378 . S
C710 C705 1.350 . S
C711 H698 0.929 . S
C711 C703 1.433 . S
C711 N713 1.384 . S
N712 C708 1.427 . S
N712 C709 1.384 . S
N713 C705 1.427 . S
N713 C711 1.384 . S
H714 C720 0.930 . S
H715 C724 0.930 . S
H716 C729 0.929 . S
H717 C727 0.929 . S
H718 C722 0.929 . S
H719 C728 0.929 . S
C720 H714 0.930 . S
C720 C721 1.367 . S
C720 C728 1.378 . S
C721 C720 1.367 . S
C721 C729 1.433 . S
C722 H718 0.929 . S
C722 C724 1.378 . S
C722 C726 1.350 . S
C723 C726 1.463 . S
C723 C728 1.350 . S
C723 N731 1.427 . S
C724 H715 0.930 . S
C724 C722 1.378 . S
C724 C725 1.367 . S
C725 C724 1.367 . S
C725 C727 1.433 . S
C726 C722 1.350 . S
C726 C723 1.463 . S
C726 N730 1.427 . S
C727 H717 0.929 . S
C727 C725 1.433 . S
C727 N730 1.384 . S
C728 H719 0.929 . S
C728 C720 1.378 . S
C728 C723 1.350 . S
C729 H716 0.929 . S
C729 C721 1.433 . S
C729 N731 1.384 . S
N730 C726 1.427 . S
N730 C727 1.384 . S
N731 C723 1.427 . S
N731 C729 1.384 . S
H732 C738 0.930 . S
H733 C742 0.930 . S
H734 C747 0.929 . S
H735 C745 0.929 . S
H736 C740 0.929 . S
H737 C746 0.929 . S
C738 H732 0.930 . S
C738 C739 1.367 . S
C738 C746 1.378 . S
C739 C738 1.367 . S
C739 C747 1.433 . S
C740 H736 0.929 . S
C740 C742 1.378 . S
C740 C744 1.350 . S
C741 C744 1.463 1_565 S
C741 C746 1.350 . S
C741 N749 1.427 . S
C742 H733 0.930 . S
C742 C740 1.378 . S
C742 C743 1.367 . S
C743 C742 1.367 . S
C743 C745 1.433 . S
C744 C740 1.350 . S
C744 C741 1.463 1_545 S
C744 N748 1.427 . S
C745 H735 0.929 . S
C745 C743 1.433 . S
C745 N748 1.384 . S
C746 H737 0.929 . S
C746 C738 1.378 . S
C746 C741 1.350 . S
C747 H734 0.929 . S
C747 C739 1.433 . S
C747 N749 1.384 . S
N748 C744 1.427 . S
N748 C745 1.384 . S
N749 C741 1.427 . S
N749 C747 1.384 . S
H750 C756 0.930 . S
H751 C760 0.930 . S
H752 C765 0.929 . S
H753 C763 0.929 . S
H754 C758 0.929 . S
H755 C764 0.929 . S
C756 H750 0.930 . S
C756 C757 1.367 . S
C756 C764 1.378 . S
C757 C756 1.367 . S
C757 C765 1.433 . S
C758 H754 0.929 . S
C758 C760 1.378 . S
C758 C762 1.350 . S
C759 C762 1.463 1_545 S
C759 C764 1.350 . S
C759 N767 1.427 . S
C760 H751 0.930 . S
C760 C758 1.378 . S
C760 C761 1.367 . S
C761 C760 1.367 . S
C761 C763 1.433 . S
C762 C758 1.350 . S
C762 C759 1.463 1_565 S
C762 N766 1.427 . S
C763 H753 0.929 . S
C763 C761 1.433 . S
C763 N766 1.384 . S
C764 H755 0.929 . S
C764 C756 1.378 . S
C764 C759 1.350 . S
C765 H752 0.929 . S
C765 C757 1.433 . S
C765 N767 1.384 . S
N766 C762 1.427 . S
N766 C763 1.384 . S
N767 C759 1.427 . S
N767 C765 1.384 . S
H768 C774 0.930 . S
H769 C778 0.930 . S
H770 C783 0.929 . S
H771 C781 0.929 . S
H772 C776 0.929 . S
H773 C782 0.929 . S
C774 H768 0.930 . S
C774 C775 1.367 . S
C774 C782 1.378 . S
C775 C774 1.367 . S
C775 C783 1.433 . S
C776 H772 0.929 . S
C776 C778 1.378 . S
C776 C780 1.350 . S
C777 C780 1.463 . S
C777 C782 1.350 . S
C777 N785 1.427 . S
C778 H769 0.930 . S
C778 C776 1.378 . S
C778 C779 1.367 . S
C779 C778 1.367 . S
C779 C781 1.433 . S
C780 C776 1.350 . S
C780 C777 1.463 . S
C780 N784 1.427 . S
C781 H771 0.929 . S
C781 C779 1.433 . S
C781 N784 1.384 . S
C782 H773 0.929 . S
C782 C774 1.378 . S
C782 C777 1.350 . S
C783 H770 0.929 . S
C783 C775 1.433 . S
C783 N785 1.384 . S
N784 C780 1.427 . S
N784 C781 1.384 . S
N785 C777 1.427 . S
N785 C783 1.384 . S
H786 C792 0.930 . S
H787 C796 0.930 . S
H788 C801 0.929 . S
H789 C799 0.929 . S
H790 C794 0.929 . S
H791 C800 0.929 . S
C792 H786 0.930 . S
C792 C793 1.367 . S
C792 C800 1.378 . S
C793 C792 1.367 . S
C793 C801 1.433 . S
C794 H790 0.929 . S
C794 C796 1.378 . S
C794 C798 1.350 . S
C795 C798 1.463 . S
C795 C800 1.350 . S
C795 N803 1.427 . S
C796 H787 0.930 . S
C796 C794 1.378 . S
C796 C797 1.367 . S
C797 C796 1.367 . S
C797 C799 1.433 . S
C798 C794 1.350 . S
C798 C795 1.463 . S
C798 N802 1.427 . S
C799 H789 0.929 . S
C799 C797 1.433 . S
C799 N802 1.384 . S
C800 H791 0.929 . S
C800 C792 1.378 . S
C800 C795 1.350 . S
C801 H788 0.929 . S
C801 C793 1.433 . S
C801 N803 1.384 . S
N802 C798 1.427 . S
N802 C799 1.384 . S
N803 C795 1.427 . S
N803 C801 1.384 . S
H804 C810 0.930 . S
H805 C814 0.930 . S
H806 C819 0.929 . S
H807 C817 0.929 . S
H808 C812 0.929 . S
H809 C818 0.929 . S
C810 H804 0.930 . S
C810 C811 1.367 . S
C810 C818 1.378 . S
C811 C810 1.367 . S
C811 C819 1.433 . S
C812 H808 0.929 . S
C812 C814 1.378 . S
C812 C816 1.350 . S
C813 C816 1.463 . S
C813 C818 1.350 . S
C813 N821 1.427 . S
C814 H805 0.930 . S
C814 C812 1.378 . S
C814 C815 1.367 . S
C815 C814 1.367 . S
C815 C817 1.433 . S
C816 C812 1.350 . S
C816 C813 1.463 . S
C816 N820 1.427 . S
C817 H807 0.929 . S
C817 C815 1.433 . S
C817 N820 1.384 . S
C818 H809 0.929 . S
C818 C810 1.378 . S
C818 C813 1.350 . S
C819 H806 0.929 . S
C819 C811 1.433 . S
C819 N821 1.384 . S
N820 C816 1.427 . S
N820 C817 1.384 . S
N821 C813 1.427 . S
N821 C819 1.384 . S
H822 C828 0.930 . S
H823 C832 0.930 . S
H824 C837 0.929 . S
H825 C835 0.929 . S
H826 C830 0.929 . S
H827 C836 0.929 . S
C828 H822 0.930 . S
C828 C829 1.367 . S
C828 C836 1.378 . S
C829 C828 1.367 . S
C829 C837 1.433 . S
C830 H826 0.929 . S
C830 C832 1.378 . S
C830 C834 1.350 . S
C831 C834 1.463 . S
C831 C836 1.350 . S
C831 N839 1.427 . S
C832 H823 0.930 . S
C832 C830 1.378 . S
C832 C833 1.367 . S
C833 C832 1.367 . S
C833 C835 1.433 . S
C834 C830 1.350 . S
C834 C831 1.463 . S
C834 N838 1.427 . S
C835 H825 0.929 . S
C835 C833 1.433 . S
C835 N838 1.384 . S
C836 H827 0.929 . S
C836 C828 1.378 . S
C836 C831 1.350 . S
C837 H824 0.929 . S
C837 C829 1.433 . S
C837 N839 1.384 . S
N838 C834 1.427 . S
N838 C835 1.384 . S
N839 C831 1.427 . S
N839 C837 1.384 . S
H840 C846 0.930 . S
H841 C850 0.930 . S
H842 C855 0.929 . S
H843 C853 0.929 . S
H844 C848 0.929 . S
H845 C854 0.929 . S
C846 H840 0.930 . S
C846 C847 1.367 . S
C846 C854 1.378 . S
C847 C846 1.367 . S
C847 C855 1.433 . S
C848 H844 0.929 . S
C848 C850 1.378 . S
C848 C852 1.350 . S
C849 C852 1.463 . S
C849 C854 1.350 . S
C849 N857 1.427 . S
C850 H841 0.930 . S
C850 C848 1.378 . S
C850 C851 1.367 . S
C851 C850 1.367 . S
C851 C853 1.433 . S
C852 C848 1.350 . S
C852 C849 1.463 . S
C852 N856 1.427 . S
C853 H843 0.929 . S
C853 C851 1.433 . S
C853 N856 1.384 . S
C854 H845 0.929 . S
C854 C846 1.378 . S
C854 C849 1.350 . S
C855 H842 0.929 . S
C855 C847 1.433 . S
C855 N857 1.384 . S
N856 C852 1.427 . S
N856 C853 1.384 . S
N857 C849 1.427 . S
N857 C855 1.384 . S
H858 C864 0.930 . S
H859 C868 0.930 . S
H860 C873 0.929 . S
H861 C871 0.929 . S
H862 C866 0.929 . S
H863 C872 0.929 . S
C864 H858 0.930 . S
C864 C865 1.367 . S
C864 C872 1.378 . S
C865 C864 1.367 . S
C865 C873 1.433 . S
C866 H862 0.929 . S
C866 C868 1.378 . S
C866 C870 1.350 . S
C867 C870 1.463 . S
C867 C872 1.350 . S
C867 N875 1.427 . S
C868 H859 0.930 . S
C868 C866 1.378 . S
C868 C869 1.367 . S
C869 C868 1.367 . S
C869 C871 1.433 . S
C870 C866 1.350 . S
C870 C867 1.463 . S
C870 N874 1.427 . S
C871 H861 0.929 . S
C871 C869 1.433 . S
C871 N874 1.384 . S
C872 H863 0.929 . S
C872 C864 1.378 . S
C872 C867 1.350 . S
C873 H860 0.929 . S
C873 C865 1.433 . S
C873 N875 1.384 . S
N874 C870 1.427 . S
N874 C871 1.384 . S
N875 C867 1.427 . S
N875 C873 1.384 . S
H876 C882 0.930 . S
H877 C886 0.930 . S
H878 C891 0.929 . S
H879 C889 0.929 . S
H880 C884 0.929 . S
H881 C890 0.929 . S
C882 H876 0.930 . S
C882 C883 1.367 . S
C882 C890 1.378 . S
C883 C882 1.367 . S
C883 C891 1.433 . S
C884 H880 0.929 . S
C884 C886 1.378 . S
C884 C888 1.350 . S
C885 C888 1.463 . S
C885 C890 1.350 . S
C885 N893 1.427 . S
C886 H877 0.930 . S
C886 C884 1.378 . S
C886 C887 1.367 . S
C887 C886 1.367 . S
C887 C889 1.433 . S
C888 C884 1.350 . S
C888 C885 1.463 . S
C888 N892 1.427 . S
C889 H879 0.929 . S
C889 C887 1.433 . S
C889 N892 1.384 . S
C890 H881 0.929 . S
C890 C882 1.378 . S
C890 C885 1.350 . S
C891 H878 0.929 . S
C891 C883 1.433 . S
C891 N893 1.384 . S
N892 C888 1.427 . S
N892 C889 1.384 . S
N893 C885 1.427 . S
N893 C891 1.384 . S
H894 C900 0.930 . S
H895 C904 0.930 . S
H896 C909 0.929 . S
H897 C907 0.929 . S
H898 C902 0.929 . S
H899 C908 0.929 . S
C900 H894 0.930 . S
C900 C901 1.367 . S
C900 C908 1.378 . S
C901 C900 1.367 . S
C901 C909 1.433 . S
C902 H898 0.929 . S
C902 C904 1.378 . S
C902 C906 1.350 . S
C903 C906 1.463 . S
C903 C908 1.350 . S
C903 N911 1.427 . S
C904 H895 0.930 . S
C904 C902 1.378 . S
C904 C905 1.367 . S
C905 C904 1.367 . S
C905 C907 1.433 . S
C906 C902 1.350 . S
C906 C903 1.463 . S
C906 N910 1.427 . S
C907 H897 0.929 . S
C907 C905 1.433 . S
C907 N910 1.384 . S
C908 H899 0.929 . S
C908 C900 1.378 . S
C908 C903 1.350 . S
C909 H896 0.929 . S
C909 C901 1.433 . S
C909 N911 1.384 . S
N910 C906 1.427 . S
N910 C907 1.384 . S
N911 C903 1.427 . S
N911 C909 1.384 . S
H912 C918 0.930 . S
H913 C922 0.930 . S
H914 C927 0.929 . S
H915 C925 0.929 . S
H916 C920 0.929 . S
H917 C926 0.929 . S
C918 H912 0.930 . S
C918 C919 1.367 . S
C918 C926 1.378 . S
C919 C918 1.367 . S
C919 C927 1.433 . S
C920 H916 0.929 . S
C920 C922 1.378 . S
C920 C924 1.350 . S
C921 C924 1.463 . S
C921 C926 1.350 . S
C921 N929 1.427 . S
C922 H913 0.930 . S
C922 C920 1.378 . S
C922 C923 1.367 . S
C923 C922 1.367 . S
C923 C925 1.433 . S
C924 C920 1.350 . S
C924 C921 1.463 . S
C924 N928 1.427 . S
C925 H915 0.929 . S
C925 C923 1.433 . S
C925 N928 1.384 . S
C926 H917 0.929 . S
C926 C918 1.378 . S
C926 C921 1.350 . S
C927 H914 0.929 . S
C927 C919 1.433 . S
C927 N929 1.384 . S
N928 C924 1.427 . S
N928 C925 1.384 . S
N929 C921 1.427 . S
N929 C927 1.384 . S
H930 C936 0.930 . S
H931 C940 0.930 . S
H932 C945 0.929 . S
H933 C943 0.929 . S
H934 C938 0.929 . S
H935 C944 0.929 . S
C936 H930 0.930 . S
C936 C937 1.367 . S
C936 C944 1.378 . S
C937 C936 1.367 . S
C937 C945 1.433 . S
C938 H934 0.929 . S
C938 C940 1.378 . S
C938 C942 1.350 . S
C939 C942 1.463 . S
C939 C944 1.350 . S
C939 N947 1.427 . S
C940 H931 0.930 . S
C940 C938 1.378 . S
C940 C941 1.367 . S
C941 C940 1.367 . S
C941 C943 1.433 . S
C942 C938 1.350 . S
C942 C939 1.463 . S
C942 N946 1.427 . S
C943 H933 0.929 . S
C943 C941 1.433 . S
C943 N946 1.384 . S
C944 H935 0.929 . S
C944 C936 1.378 . S
C944 C939 1.350 . S
C945 H932 0.929 . S
C945 C937 1.433 . S
C945 N947 1.384 . S
N946 C942 1.427 . S
N946 C943 1.384 . S
N947 C939 1.427 . S
N947 C945 1.384 . S
H948 C954 0.930 . S
H949 C958 0.930 . S
H950 C963 0.929 . S
H951 C961 0.929 . S
H952 C956 0.929 . S
H953 C962 0.929 . S
C954 H948 0.930 . S
C954 C955 1.367 . S
C954 C962 1.378 . S
C955 C954 1.367 . S
C955 C963 1.433 . S
C956 H952 0.929 . S
C956 C958 1.378 . S
C956 C960 1.350 . S
C957 C960 1.463 . S
C957 C962 1.350 . S
C957 N965 1.427 . S
C958 H949 0.930 . S
C958 C956 1.378 . S
C958 C959 1.367 . S
C959 C958 1.367 . S
C959 C961 1.433 . S
C960 C956 1.350 . S
C960 C957 1.463 . S
C960 N964 1.427 . S
C961 H951 0.929 . S
C961 C959 1.433 . S
C961 N964 1.384 . S
C962 H953 0.929 . S
C962 C954 1.378 . S
C962 C957 1.350 . S
C963 H950 0.929 . S
C963 C955 1.433 . S
C963 N965 1.384 . S
N964 C960 1.427 . S
N964 C961 1.384 . S
N965 C957 1.427 . S
N965 C963 1.384 . S
H966 C972 0.930 . S
H967 C976 0.930 . S
H968 C981 0.929 . S
H969 C979 0.929 . S
H970 C974 0.929 . S
H971 C980 0.929 . S
C972 H966 0.930 . S
C972 C973 1.367 . S
C972 C980 1.378 . S
C973 C972 1.367 . S
C973 C981 1.433 . S
C974 H970 0.929 . S
C974 C976 1.378 . S
C974 C978 1.350 . S
C975 C978 1.463 . S
C975 C980 1.350 . S
C975 N983 1.427 . S
C976 H967 0.930 . S
C976 C974 1.378 . S
C976 C977 1.367 . S
C977 C976 1.367 . S
C977 C979 1.433 . S
C978 C974 1.350 . S
C978 C975 1.463 . S
C978 N982 1.427 . S
C979 H969 0.929 . S
C979 C977 1.433 . S
C979 N982 1.384 . S
C980 H971 0.929 . S
C980 C972 1.378 . S
C980 C975 1.350 . S
C981 H968 0.929 . S
C981 C973 1.433 . S
C981 N983 1.384 . S
N982 C978 1.427 . S
N982 C979 1.384 . S
N983 C975 1.427 . S
N983 C981 1.384 . S
H984 C990 0.930 . S
H985 C994 0.930 . S
H986 C999 0.929 . S
H987 C997 0.929 . S
H988 C992 0.929 . S
H989 C998 0.929 . S
C990 H984 0.930 . S
C990 C991 1.367 . S
C990 C998 1.378 . S
C991 C990 1.367 . S
C991 C999 1.433 . S
C992 H988 0.929 . S
C992 C994 1.378 . S
C992 C996 1.350 . S
C993 C996 1.463 . S
C993 C998 1.350 . S
C993 N1001 1.427 . S
C994 H985 0.930 . S
C994 C992 1.378 . S
C994 C995 1.367 . S
C995 C994 1.367 . S
C995 C997 1.433 . S
C996 C992 1.350 . S
C996 C993 1.463 . S
C996 N1000 1.427 . S
C997 H987 0.929 . S
C997 C995 1.433 . S
C997 N1000 1.384 . S
C998 H989 0.929 . S
C998 C990 1.378 . S
C998 C993 1.350 . S
C999 H986 0.929 . S
C999 C991 1.433 . S
C999 N1001 1.384 . S
N1000 C996 1.427 . S
N1000 C997 1.384 . S
N1001 C993 1.427 . S
N1001 C999 1.384 . S
H1002 C1008 0.930 . S
H1003 C1012 0.930 . S
H1004 C1017 0.929 . S
H1005 C1015 0.929 . S
H1006 C1010 0.929 . S
H1007 C1016 0.929 . S
C1008 H1002 0.930 . S
C1008 C1009 1.367 . S
C1008 C1016 1.378 . S
C1009 C1008 1.367 . S
C1009 C1017 1.433 . S
C1010 H1006 0.929 . S
C1010 C1012 1.378 . S
C1010 C1014 1.350 . S
C1011 C1014 1.463 . S
C1011 C1016 1.350 . S
C1011 N1019 1.427 . S
C1012 H1003 0.930 . S
C1012 C1010 1.378 . S
C1012 C1013 1.367 . S
C1013 C1012 1.367 . S
C1013 C1015 1.433 . S
C1014 C1010 1.350 . S
C1014 C1011 1.463 . S
C1014 N1018 1.427 . S
C1015 H1005 0.929 . S
C1015 C1013 1.433 . S
C1015 N1018 1.384 . S
C1016 H1007 0.929 . S
C1016 C1008 1.378 . S
C1016 C1011 1.350 . S
C1017 H1004 0.929 . S
C1017 C1009 1.433 . S
C1017 N1019 1.384 . S
N1018 C1014 1.427 . S
N1018 C1015 1.384 . S
N1019 C1011 1.427 . S
N1019 C1017 1.384 . S
H1020 C1026 0.930 . S
H1021 C1030 0.930 . S
H1022 C1035 0.929 . S
H1023 C1033 0.929 . S
H1024 C1028 0.929 . S
H1025 C1034 0.929 . S
C1026 H1020 0.930 . S
C1026 C1027 1.367 . S
C1026 C1034 1.378 . S
C1027 C1026 1.367 . S
C1027 C1035 1.433 . S
C1028 H1024 0.929 . S
C1028 C1030 1.378 . S
C1028 C1032 1.350 . S
C1029 C1032 1.463 . S
C1029 C1034 1.350 . S
C1029 N1037 1.427 . S
C1030 H1021 0.930 . S
C1030 C1028 1.378 . S
C1030 C1031 1.367 . S
C1031 C1030 1.367 . S
C1031 C1033 1.433 . S
C1032 C1028 1.350 . S
C1032 C1029 1.463 . S
C1032 N1036 1.427 . S
C1033 H1023 0.929 . S
C1033 C1031 1.433 . S
C1033 N1036 1.384 . S
C1034 H1025 0.929 . S
C1034 C1026 1.378 . S
C1034 C1029 1.350 . S
C1035 H1022 0.929 . S
C1035 C1027 1.433 . S
C1035 N1037 1.384 . S
N1036 C1032 1.427 . S
N1036 C1033 1.384 . S
N1037 C1029 1.427 . S
N1037 C1035 1.384 . S
H1038 C1044 0.930 . S
H1039 C1048 0.930 . S
H1040 C1053 0.929 . S
H1041 C1051 0.929 . S
H1042 C1046 0.929 . S
H1043 C1052 0.929 . S
C1044 H1038 0.930 . S
C1044 C1045 1.367 . S
C1044 C1052 1.378 . S
C1045 C1044 1.367 . S
C1045 C1053 1.433 . S
C1046 H1042 0.929 . S
C1046 C1048 1.378 . S
C1046 C1050 1.350 . S
C1047 C1050 1.463 . S
C1047 C1052 1.350 . S
C1047 N1055 1.427 . S
C1048 H1039 0.930 . S
C1048 C1046 1.378 . S
C1048 C1049 1.367 . S
C1049 C1048 1.367 . S
C1049 C1051 1.433 . S
C1050 C1046 1.350 . S
C1050 C1047 1.463 . S
C1050 N1054 1.427 . S
C1051 H1041 0.929 . S
C1051 C1049 1.433 . S
C1051 N1054 1.384 . S
C1052 H1043 0.929 . S
C1052 C1044 1.378 . S
C1052 C1047 1.350 . S
C1053 H1040 0.929 . S
C1053 C1045 1.433 . S
C1053 N1055 1.384 . S
N1054 C1050 1.427 . S
N1054 C1051 1.384 . S
N1055 C1047 1.427 . S
N1055 C1053 1.384 . S
H1056 C1062 0.930 . S
H1057 C1066 0.930 . S
H1058 C1071 0.929 . S
H1059 C1069 0.929 . S
H1060 C1064 0.929 . S
H1061 C1070 0.929 . S
C1062 H1056 0.930 . S
C1062 C1063 1.367 . S
C1062 C1070 1.378 . S
C1063 C1062 1.367 . S
C1063 C1071 1.433 . S
C1064 H1060 0.929 . S
C1064 C1066 1.378 . S
C1064 C1068 1.350 . S
C1065 C1068 1.463 . S
C1065 C1070 1.350 . S
C1065 N1073 1.427 . S
C1066 H1057 0.930 . S
C1066 C1064 1.378 . S
C1066 C1067 1.367 . S
C1067 C1066 1.367 . S
C1067 C1069 1.433 . S
C1068 C1064 1.350 . S
C1068 C1065 1.463 . S
C1068 N1072 1.427 . S
C1069 H1059 0.929 . S
C1069 C1067 1.433 . S
C1069 N1072 1.384 . S
C1070 H1061 0.929 . S
C1070 C1062 1.378 . S
C1070 C1065 1.350 . S
C1071 H1058 0.929 . S
C1071 C1063 1.433 . S
C1071 N1073 1.384 . S
N1072 C1068 1.427 . S
N1072 C1069 1.384 . S
N1073 C1065 1.427 . S
N1073 C1071 1.384 . S
H1074 C1080 0.930 . S
H1075 C1084 0.930 . S
H1076 C1089 0.929 . S
H1077 C1087 0.929 . S
H1078 C1082 0.929 . S
H1079 C1088 0.929 . S
C1080 H1074 0.930 . S
C1080 C1081 1.367 . S
C1080 C1088 1.378 . S
C1081 C1080 1.367 . S
C1081 C1089 1.433 . S
C1082 H1078 0.929 . S
C1082 C1084 1.378 . S
C1082 C1086 1.350 . S
C1083 C1086 1.463 . S
C1083 C1088 1.350 . S
C1083 N1091 1.427 . S
C1084 H1075 0.930 . S
C1084 C1082 1.378 . S
C1084 C1085 1.367 . S
C1085 C1084 1.367 . S
C1085 C1087 1.433 . S
C1086 C1082 1.350 . S
C1086 C1083 1.463 . S
C1086 N1090 1.427 . S
C1087 H1077 0.929 . S
C1087 C1085 1.433 . S
C1087 N1090 1.384 . S
C1088 H1079 0.929 . S
C1088 C1080 1.378 . S
C1088 C1083 1.350 . S
C1089 H1076 0.929 . S
C1089 C1081 1.433 . S
C1089 N1091 1.384 . S
N1090 C1086 1.427 . S
N1090 C1087 1.384 . S
N1091 C1083 1.427 . S
N1091 C1089 1.384 . S
H1092 C1098 0.930 . S
H1093 C1102 0.930 . S
H1094 C1107 0.929 . S
H1095 C1105 0.929 . S
H1096 C1100 0.929 . S
H1097 C1106 0.929 . S
C1098 H1092 0.930 . S
C1098 C1099 1.367 . S
C1098 C1106 1.378 . S
C1099 C1098 1.367 . S
C1099 C1107 1.433 . S
C1100 H1096 0.929 . S
C1100 C1102 1.378 . S
C1100 C1104 1.350 . S
C1101 C1104 1.463 . S
C1101 C1106 1.350 . S
C1101 N1109 1.427 . S
C1102 H1093 0.930 . S
C1102 C1100 1.378 . S
C1102 C1103 1.367 . S
C1103 C1102 1.367 . S
C1103 C1105 1.433 . S
C1104 C1100 1.350 . S
C1104 C1101 1.463 . S
C1104 N1108 1.427 . S
C1105 H1095 0.929 . S
C1105 C1103 1.433 . S
C1105 N1108 1.384 . S
C1106 H1097 0.929 . S
C1106 C1098 1.378 . S
C1106 C1101 1.350 . S
C1107 H1094 0.929 . S
C1107 C1099 1.433 . S
C1107 N1109 1.384 . S
N1108 C1104 1.427 . S
N1108 C1105 1.384 . S
N1109 C1101 1.427 . S
N1109 C1107 1.384 . S
H1110 C1116 0.930 . S
H1111 C1120 0.930 . S
H1112 C1125 0.929 . S
H1113 C1123 0.929 . S
H1114 C1118 0.929 . S
H1115 C1124 0.929 . S
C1116 H1110 0.930 . S
C1116 C1117 1.367 . S
C1116 C1124 1.378 . S
C1117 C1116 1.367 . S
C1117 C1125 1.433 . S
C1118 H1114 0.929 . S
C1118 C1120 1.378 . S
C1118 C1122 1.350 . S
C1119 C1122 1.463 . S
C1119 C1124 1.350 . S
C1119 N1127 1.427 . S
C1120 H1111 0.930 . S
C1120 C1118 1.378 . S
C1120 C1121 1.367 . S
C1121 C1120 1.367 . S
C1121 C1123 1.433 . S
C1122 C1118 1.350 . S
C1122 C1119 1.463 . S
C1122 N1126 1.427 . S
C1123 H1113 0.929 . S
C1123 C1121 1.433 . S
C1123 N1126 1.384 . S
C1124 H1115 0.929 . S
C1124 C1116 1.378 . S
C1124 C1119 1.350 . S
C1125 H1112 0.929 . S
C1125 C1117 1.433 . S
C1125 N1127 1.384 . S
N1126 C1122 1.427 . S
N1126 C1123 1.384 . S
N1127 C1119 1.427 . S
N1127 C1125 1.384 . S
H1128 C1134 0.930 . S
H1129 C1138 0.930 . S
H1130 C1143 0.929 . S
H1131 C1141 0.929 . S
H1132 C1136 0.929 . S
H1133 C1142 0.929 . S
C1134 H1128 0.930 . S
C1134 C1135 1.367 . S
C1134 C1142 1.378 . S
C1135 C1134 1.367 . S
C1135 C1143 1.433 . S
C1136 H1132 0.929 . S
C1136 C1138 1.378 . S
C1136 C1140 1.350 . S
C1137 C1140 1.463 . S
C1137 C1142 1.350 . S
C1137 N1145 1.427 . S
C1138 H1129 0.930 . S
C1138 C1136 1.378 . S
C1138 C1139 1.367 . S
C1139 C1138 1.367 . S
C1139 C1141 1.433 . S
C1140 C1136 1.350 . S
C1140 C1137 1.463 . S
C1140 N1144 1.427 . S
C1141 H1131 0.929 . S
C1141 C1139 1.433 . S
C1141 N1144 1.384 . S
C1142 H1133 0.929 . S
C1142 C1134 1.378 . S
C1142 C1137 1.350 . S
C1143 H1130 0.929 . S
C1143 C1135 1.433 . S
C1143 N1145 1.384 . S
N1144 C1140 1.427 . S
N1144 C1141 1.384 . S
N1145 C1137 1.427 . S
N1145 C1143 1.384 . S
H1146 C1152 0.930 . S
H1147 C1156 0.930 . S
H1148 C1161 0.929 . S
H1149 C1159 0.929 . S
H1150 C1154 0.929 . S
H1151 C1160 0.929 . S
C1152 H1146 0.930 . S
C1152 C1153 1.367 . S
C1152 C1160 1.378 . S
C1153 C1152 1.367 . S
C1153 C1161 1.433 . S
C1154 H1150 0.929 . S
C1154 C1156 1.378 . S
C1154 C1158 1.350 . S
C1155 C1158 1.463 . S
C1155 C1160 1.350 . S
C1155 N1163 1.427 . S
C1156 H1147 0.930 . S
C1156 C1154 1.378 . S
C1156 C1157 1.367 . S
C1157 C1156 1.367 . S
C1157 C1159 1.433 . S
C1158 C1154 1.350 . S
C1158 C1155 1.463 . S
C1158 N1162 1.427 . S
C1159 H1149 0.929 . S
C1159 C1157 1.433 . S
C1159 N1162 1.384 . S
C1160 H1151 0.929 . S
C1160 C1152 1.378 . S
C1160 C1155 1.350 . S
C1161 H1148 0.929 . S
C1161 C1153 1.433 . S
C1161 N1163 1.384 . S
N1162 C1158 1.427 . S
N1162 C1159 1.384 . S
N1163 C1155 1.427 . S
N1163 C1161 1.384 . S
H1164 C1170 0.930 . S
H1165 C1174 0.930 . S
H1166 C1179 0.929 . S
H1167 C1177 0.929 . S
H1168 C1172 0.929 . S
H1169 C1178 0.929 . S
C1170 H1164 0.930 . S
C1170 C1171 1.367 . S
C1170 C1178 1.378 . S
C1171 C1170 1.367 . S
C1171 C1179 1.433 . S
C1172 H1168 0.929 . S
C1172 C1174 1.378 . S
C1172 C1176 1.350 . S
C1173 C1176 1.463 . S
C1173 C1178 1.350 . S
C1173 N1181 1.427 . S
C1174 H1165 0.930 . S
C1174 C1172 1.378 . S
C1174 C1175 1.367 . S
C1175 C1174 1.367 . S
C1175 C1177 1.433 . S
C1176 C1172 1.350 . S
C1176 C1173 1.463 . S
C1176 N1180 1.427 . S
C1177 H1167 0.929 . S
C1177 C1175 1.433 . S
C1177 N1180 1.384 . S
C1178 H1169 0.929 . S
C1178 C1170 1.378 . S
C1178 C1173 1.350 . S
C1179 H1166 0.929 . S
C1179 C1171 1.433 . S
C1179 N1181 1.384 . S
N1180 C1176 1.427 . S
N1180 C1177 1.384 . S
N1181 C1173 1.427 . S
N1181 C1179 1.384 . S
H1182 C1188 0.930 . S
H1183 C1192 0.930 . S
H1184 C1197 0.929 . S
H1185 C1195 0.929 . S
H1186 C1190 0.929 . S
H1187 C1196 0.929 . S
C1188 H1182 0.930 . S
C1188 C1189 1.367 . S
C1188 C1196 1.378 . S
C1189 C1188 1.367 . S
C1189 C1197 1.433 . S
C1190 H1186 0.929 . S
C1190 C1192 1.378 . S
C1190 C1194 1.350 . S
C1191 C1194 1.463 . S
C1191 C1196 1.350 . S
C1191 N1199 1.427 . S
C1192 H1183 0.930 . S
C1192 C1190 1.378 . S
C1192 C1193 1.367 . S
C1193 C1192 1.367 . S
C1193 C1195 1.433 . S
C1194 C1190 1.350 . S
C1194 C1191 1.463 . S
C1194 N1198 1.427 . S
C1195 H1185 0.929 . S
C1195 C1193 1.433 . S
C1195 N1198 1.384 . S
C1196 H1187 0.929 . S
C1196 C1188 1.378 . S
C1196 C1191 1.350 . S
C1197 H1184 0.929 . S
C1197 C1189 1.433 . S
C1197 N1199 1.384 . S
N1198 C1194 1.427 . S
N1198 C1195 1.384 . S
N1199 C1191 1.427 . S
N1199 C1197 1.384 . S
C343 C218 1.244 . S
C347 C7 1.237 . S
C361 C175 1.342 . S
C365 C22 1.352 . S
C379 C189 1.342 . S
C383 C35 1.343 . S
C397 C203 1.344 . S
C401 C50 1.356 . S
C415 C204 1.342 . S
C419 C21 1.323 . S
C433 C36 1.341 . S
C437 C217 1.332 . S
C451 C176 1.337 . S
C455 C49 1.319 . S
C469 C190 1.233 . S
C473 C8 1.232 . S
C487 C260 1.175 . S
C491 C64 1.176 . S
C505 C77 1.411 . S
C509 C273 1.425 . S
C523 C92 1.199 . S
C527 C232 1.198 . S
C541 C245 1.408 . S
C545 C105 1.404 . S
C559 C315 1.456 . S
C563 C119 1.451 . S
C577 C133 1.196 . S
C581 C330 1.211 . S
C595 C147 1.463 . S
C599 C287 1.469 . S
C613 C161 1.180 . S
C617 C302 1.189 . S
C631 C246 1.234 . S
C635 C162 1.233 . S
C649 C329 1.387 . S
C653 C78 1.398 . S
C667 C91 1.347 . S
C671 C288 1.360 . S
C685 C301 1.371 . S
C689 C106 1.387 . S
C703 C316 1.299 . S
C707 C63 1.293 . S
C721 C134 1.296 . S
C725 C274 1.297 . S
C739 C231 1.315 . S
C743 C148 1.322 . S
C757 C259 1.300 . S
C761 C120 1.316 . S
C775 C3 0.874 . S
C779 C59 0.862 . S
C793 C79 0.917 . S
C797 C23 0.896 . S
C811 C31 0.947 . S
C815 C87 0.940 . S
C829 C51 0.913 . S
C833 C107 0.912 . S
C847 C121 0.914 . S
C851 C17 0.930 . S
C865 C135 0.878 . S
C869 C37 0.887 . S
C883 C149 0.930 . S
C887 C45 0.946 . S
C901 C9 0.827 . S
C905 C163 0.805 . S
C919 C157 0.819 . S
C923 C65 0.826 . S
C937 C73 1.009 . S
C941 C115 0.997 . S
C955 C93 0.840 . S
C959 C129 0.829 . S
C973 C143 0.992 . S
C977 C101 1.002 . S
C991 C227 0.871 . S
C995 C177 0.873 . S
C1009 C247 0.857 . S
C1013 C191 0.877 . S
C1027 C205 0.886 . S
C1031 C255 0.887 . S
C1045 C213 0.905 . S
C1049 C275 0.912 . S
C1063 C185 0.934 . S
C1067 C289 0.931 . S
C1081 C199 0.964 . S
C1085 C297 0.972 . S
C1099 C317 0.887 . S
C1103 C219 0.869 . S
C1117 C171 0.964 . S
C1121 C325 0.951 . S
C1135 C233 0.837 . S
C1139 C331 0.819 . S
C1153 C283 0.974 . S
C1157 C241 0.985 . S
C1171 C261 0.801 . S
C1175 C303 0.824 . S
C1189 C311 0.979 . S
C1193 C269 0.985 . S
