# Generated by pormake.
# Topology ung, (4)-cn, num edge types: 1
# Building blocks:
#     Node 0, Type 0, BuildingBlock: QUQFOY_clean_sbu_3, # of connection points: 4
#     Node 1, Type 0, BuildingBlock: QUQFOY_clean_sbu_3, # of connection points: 4
#     Node 2, Type 0, BuildingBlock: QUQFOY_clean_sbu_3, # of connection points: 4
#     Node 3, Type 0, BuildingBlock: QUQFOY_clean_sbu_3, # of connection points: 4
#     Node 4, Type 0, BuildingBlock: QUQFOY_clean_sbu_3, # of connection points: 4
#     Node 5, Type 0, BuildingBlock: QUQFOY_clean_sbu_3, # of connection points: 4
#     Node 6, Type 0, BuildingBlock: QUQFOY_clean_sbu_3, # of connection points: 4
#     Node 7, Type 0, BuildingBlock: QUQFOY_clean_sbu_3, # of connection points: 4
#     Node 8, Type 0, BuildingBlock: QUQFOY_clean_sbu_3, # of connection points: 4
#     Node 9, Type 0, BuildingBlock: QUQFOY_clean_sbu_3, # of connection points: 4
#     Node 10, Type 0, BuildingBlock: QUQFOY_clean_sbu_3, # of connection points: 4
#     Node 11, Type 0, BuildingBlock: QUQFOY_clean_sbu_3, # of connection points: 4
#     Node 12, Type 0, BuildingBlock: QUQFOY_clean_sbu_3, # of connection points: 4
#     Node 13, Type 0, BuildingBlock: QUQFOY_clean_sbu_3, # of connection points: 4
#     Node 14, Type 0, BuildingBlock: QUQFOY_clean_sbu_3, # of connection points: 4
#     Node 15, Type 0, BuildingBlock: QUQFOY_clean_sbu_3, # of connection points: 4
#     Node 16, Type 0, BuildingBlock: QUQFOY_clean_sbu_3, # of connection points: 4
#     Node 17, Type 0, BuildingBlock: QUQFOY_clean_sbu_3, # of connection points: 4
#     Edge 18, Type (0, 0), BuildingBlock: CIFDUS_clean_linker_0, # of connection points: 2
#     Edge 19, Type (0, 0), BuildingBlock: CIFDUS_clean_linker_0, # of connection points: 2
#     Edge 20, Type (0, 0), BuildingBlock: CIFDUS_clean_linker_0, # of connection points: 2
#     Edge 21, Type (0, 0), BuildingBlock: CIFDUS_clean_linker_0, # of connection points: 2
#     Edge 22, Type (0, 0), BuildingBlock: CIFDUS_clean_linker_0, # of connection points: 2
#     Edge 23, Type (0, 0), BuildingBlock: CIFDUS_clean_linker_0, # of connection points: 2
#     Edge 24, Type (0, 0), BuildingBlock: CIFDUS_clean_linker_0, # of connection points: 2
#     Edge 25, Type (0, 0), BuildingBlock: CIFDUS_clean_linker_0, # of connection points: 2
#     Edge 26, Type (0, 0), BuildingBlock: CIFDUS_clean_linker_0, # of connection points: 2
#     Edge 27, Type (0, 0), BuildingBlock: CIFDUS_clean_linker_0, # of connection points: 2
#     Edge 28, Type (0, 0), BuildingBlock: CIFDUS_clean_linker_0, # of connection points: 2
#     Edge 29, Type (0, 0), BuildingBlock: CIFDUS_clean_linker_0, # of connection points: 2
#     Edge 30, Type (0, 0), BuildingBlock: CIFDUS_clean_linker_0, # of connection points: 2
#     Edge 31, Type (0, 0), BuildingBlock: CIFDUS_clean_linker_0, # of connection points: 2
#     Edge 32, Type (0, 0), BuildingBlock: CIFDUS_clean_linker_0, # of connection points: 2
#     Edge 33, Type (0, 0), BuildingBlock: CIFDUS_clean_linker_0, # of connection points: 2
#     Edge 34, Type (0, 0), BuildingBlock: CIFDUS_clean_linker_0, # of connection points: 2
#     Edge 35, Type (0, 0), BuildingBlock: CIFDUS_clean_linker_0, # of connection points: 2
#     Edge 36, Type (0, 0), BuildingBlock: CIFDUS_clean_linker_0, # of connection points: 2
#     Edge 37, Type (0, 0), BuildingBlock: CIFDUS_clean_linker_0, # of connection points: 2
#     Edge 38, Type (0, 0), BuildingBlock: CIFDUS_clean_linker_0, # of connection points: 2
#     Edge 39, Type (0, 0), BuildingBlock: CIFDUS_clean_linker_0, # of connection points: 2
#     Edge 40, Type (0, 0), BuildingBlock: CIFDUS_clean_linker_0, # of connection points: 2
#     Edge 41, Type (0, 0), BuildingBlock: CIFDUS_clean_linker_0, # of connection points: 2
#     Edge 42, Type (0, 0), BuildingBlock: CIFDUS_clean_linker_0, # of connection points: 2
#     Edge 43, Type (0, 0), BuildingBlock: CIFDUS_clean_linker_0, # of connection points: 2
#     Edge 44, Type (0, 0), BuildingBlock: CIFDUS_clean_linker_0, # of connection points: 2
#     Edge 45, Type (0, 0), BuildingBlock: CIFDUS_clean_linker_0, # of connection points: 2
#     Edge 46, Type (0, 0), BuildingBlock: CIFDUS_clean_linker_0, # of connection points: 2
#     Edge 47, Type (0, 0), BuildingBlock: CIFDUS_clean_linker_0, # of connection points: 2
#     Edge 48, Type (0, 0), BuildingBlock: CIFDUS_clean_linker_0, # of connection points: 2
#     Edge 49, Type (0, 0), BuildingBlock: CIFDUS_clean_linker_0, # of connection points: 2
#     Edge 50, Type (0, 0), BuildingBlock: CIFDUS_clean_linker_0, # of connection points: 2
#     Edge 51, Type (0, 0), BuildingBlock: CIFDUS_clean_linker_0, # of connection points: 2
#     Edge 52, Type (0, 0), BuildingBlock: CIFDUS_clean_linker_0, # of connection points: 2
#     Edge 53, Type (0, 0), BuildingBlock: CIFDUS_clean_linker_0, # of connection points: 2
# Relax obj value: 0.078
# Max RMSD: 0.195
# Mean RMSD: 0.192
data_MOF--net-ung--node1-QUQFOY_clean_sbu_3--edge1-CIFDUS_clean_linker_0
_symmetry_space_group_name_H-M    P1
_symmetry_Int_Tables_number       1
_symmetry_cell_setting            triclinic
loop_
_symmetry_equiv_pos_as_xyz
'x, y, z'
_cell_length_a     66.070929
_cell_length_b     66.184978
_cell_length_c     20.517945
_cell_angle_alpha  88.796232
_cell_angle_beta   91.792459
_cell_angle_gamma 121.18124
loop_
_atom_site_label
_atom_site_type_symbol
_atom_site_fract_x
_atom_site_fract_y
_atom_site_fract_z
_atom_type_partial_charge
C0 C 0.09292 0.65063 0.30107 0.0
O1 O 0.09658 0.64616 0.24423 0.0
Cd2 Cd 0.06805 0.60854 0.19382 0.0
O3 O 0.07462 0.63569 0.33141 0.0
Cd4 Cd 0.03925 0.59641 0.32722 0.0
C5 C 0.01746 0.61181 0.19802 0.0
O6 O 0.05563 0.57647 0.27 0.0
O7 O 0.01779 0.55689 0.28354 0.0
O8 O 0.05637 0.59867 0.43236 0.0
C9 C 0.03578 0.55745 0.26152 0.0
O10 O 0.03323 0.61086 0.16637 0.0
C11 C 0.03732 0.58855 0.4636 0.0
O12 O 0.01651 0.60947 0.26002 0.0
O13 O 0.01819 0.58222 0.43123 0.0
C14 C 0.46356 0.43294 0.20539 0.0
O15 O 0.46994 0.43456 0.26502 0.0
Cd16 Cd 0.48068 0.46983 0.32615 0.0
O17 O 0.46257 0.44969 0.17725 0.0
Cd18 Cd 0.46993 0.4894 0.19599 0.0
C19 C 0.42873 0.46999 0.31153 0.0
O20 O 0.50599 0.50396 0.26154 0.0
O21 O 0.49097 0.52625 0.25623 0.0
O22 O 0.48679 0.49361 0.09215 0.0
C23 C 0.50775 0.52342 0.27554 0.0
O24 O 0.44396 0.46855 0.34772 0.0
C25 C 0.4789 0.50562 0.06514 0.0
O26 O 0.43241 0.47525 0.25115 0.0
O27 O 0.46563 0.50979 0.09891 0.0
C28 C 0.60712 -0.00619 0.24943 0.0
O29 O 0.60466 -0.0106 0.18882 0.0
Cd30 Cd 0.60092 0.01468 0.1086 0.0
O31 O 0.60725 0.01181 0.27042 0.0
Cd32 Cd 0.6034 0.04461 0.22835 0.0
C33 C 0.65255 0.06705 0.14121 0.0
O34 O 0.57405 0.02647 0.13961 0.0
O35 O 0.59529 0.06469 0.14234 0.0
O36 O 0.57424 0.03553 0.30927 0.0
C37 C 0.57824 0.04623 0.11658 0.0
O38 O 0.63948 0.05051 0.10152 0.0
C39 C 0.58476 0.05576 0.33547 0.0
O40 O 0.64506 0.06822 0.19676 0.0
O41 O 0.60486 0.07101 0.3133 0.0
C42 C 0.09908 0.48702 0.79787 0.0
O43 O 0.10105 0.49543 0.74066 0.0
Cd44 Cd 0.06901 0.49923 0.6933 0.0
O45 O 0.08091 0.48132 0.83081 0.0
Cd46 Cd 0.04375 0.48073 0.83253 0.0
C47 C 0.02395 0.44082 0.71137 0.0
O48 O 0.05517 0.51613 0.76936 0.0
O49 O 0.0177 0.49309 0.78572 0.0
O50 O 0.06278 0.49961 0.93237 0.0
C51 C 0.03424 0.51215 0.76171 0.0
O52 O 0.03749 0.45844 0.67554 0.0
C53 C 0.04479 0.48899 0.96783 0.0
O54 O 0.02361 0.44302 0.77302 0.0
O55 O 0.0255 0.47326 0.9406 0.0
C56 C 0.6529 0.60881 0.704 0.0
O57 O 0.64949 0.59859 0.75914 0.0
Cd58 Cd 0.61562 0.58969 0.82343 0.0
O59 O 0.63799 0.61372 0.68005 0.0
Cd60 Cd 0.59956 0.60916 0.70002 0.0
C61 C 0.62458 0.64588 0.82833 0.0
O62 O 0.58048 0.57137 0.75637 0.0
O63 O 0.56297 0.59137 0.75845 0.0
O64 O 0.5937 0.59394 0.59314 0.0
C65 C 0.56282 0.57261 0.77342 0.0
O66 O 0.62346 0.6282 0.85779 0.0
C67 C 0.58344 0.60414 0.56865 0.0
O68 O 0.61867 0.64481 0.76802 0.0
O69 O 0.58131 0.6182 0.60537 0.0
C70 C 0.47719 0.12165 0.7037 0.0
O71 O 0.4822 0.12681 0.7636 0.0
Cd72 Cd 0.49336 0.10528 0.83882 0.0
O73 O 0.47838 0.10478 0.67968 0.0
Cd74 Cd 0.4887 0.07574 0.71585 0.0
C75 C 0.44444 0.04969 0.82167 0.0
O76 O 0.5209 0.09592 0.79762 0.0
O77 O 0.50138 0.05765 0.79456 0.0
O78 O 0.51571 0.08607 0.62798 0.0
C79 C 0.51846 0.07652 0.81843 0.0
O80 O 0.45798 0.06729 0.85781 0.0
C81 C 0.50533 0.06577 0.6022 0.0
O82 O 0.44958 0.04886 0.76267 0.0
O83 O 0.48614 0.04995 0.62766 0.0
C84 C 0.65039 0.94544 0.54453 0.0
O85 O 0.64595 0.9428 0.60488 0.0
Cd86 Cd 0.66971 0.93569 0.68378 0.0
O87 O 0.6676 0.94422 0.52346 0.0
Cd88 Cd 0.69862 0.93727 0.56443 0.0
C89 C 0.7246 0.98487 0.66024 0.0
O90 O 0.67916 0.90727 0.64987 0.0
O91 O 0.7175 0.92691 0.64841 0.0
O92 O 0.68773 0.90823 0.48035 0.0
C93 C 0.69867 0.91027 0.67267 0.0
O94 O 0.70748 0.97211 0.6977 0.0
C95 C 0.70783 0.91812 0.45431 0.0
O96 O 0.7251 0.97812 0.60281 0.0
O97 O 0.72384 0.93776 0.47823 0.0
C98 C 0.15011 0.76158 0.53218 0.0
O99 O 0.15797 0.76531 0.59069 0.0
Cd100 Cd 0.16323 0.79927 0.64975 0.0
O101 O 0.14581 0.77608 0.50289 0.0
Cd102 Cd 0.14854 0.81395 0.51728 0.0
C103 C 0.10665 0.78884 0.63077 0.0
O104 O 0.18323 0.83551 0.58875 0.0
O105 O 0.15986 0.8493 0.57684 0.0
O106 O 0.17068 0.82276 0.42107 0.0
C107 C 0.17888 0.85167 0.6009 0.0
O108 O 0.12332 0.79055 0.66772 0.0
C109 C 0.15978 0.83065 0.3876 0.0
O110 O 0.10993 0.79426 0.57028 0.0
O111 O 0.14235 0.83023 0.41404 0.0
C112 C 0.31413 0.41726 0.52237 0.0
O113 O 0.30935 0.42065 0.57908 0.0
Cd114 Cd 0.27216 0.39044 0.62553 0.0
O115 O 0.29936 0.39905 0.49044 0.0
Cd116 Cd 0.26023 0.36363 0.48799 0.0
C117 C 0.27993 0.34285 0.60902 0.0
O118 O 0.23959 0.37815 0.54907 0.0
O119 O 0.22112 0.34039 0.53313 0.0
O120 O 0.26199 0.38258 0.38699 0.0
C121 C 0.221 0.35796 0.55616 0.0
O122 O 0.27822 0.35744 0.64455 0.0
C123 C 0.25273 0.3643 0.35172 0.0
O124 O 0.27604 0.34207 0.54751 0.0
O125 O 0.24689 0.34474 0.37994 0.0
C126 C 0.77468 0.81387 0.10717 0.0
O127 O 0.78217 0.81936 0.04948 0.0
Cd128 Cd 0.76046 0.82693 0.96447 0.0
O129 O 0.75572 0.81286 0.12246 0.0
Cd130 Cd 0.72571 0.81982 0.07354 0.0
C131 C 0.70623 0.77542 0.96746 0.0
O132 O 0.74643 0.85221 -0.00559 0.0
O133 O 0.7081 0.83043 -0.01224 0.0
O134 O 0.73465 0.84752 0.15859 0.0
C135 C 0.72702 0.84828 0.96793 0.0
O136 O 0.72493 0.7899 0.93744 0.0
C137 C 0.71416 0.83747 0.18222 0.0
O138 O 0.70236 0.78006 0.02428 0.0
O139 O 0.69846 0.81801 0.15649 0.0
C140 C 0.3355 0.96386 0.0403 0.0
O141 O 0.3341 0.95605 0.09808 0.0
Cd142 Cd 0.2972 0.93892 0.15581 0.0
O143 O 0.31728 0.96164 0.01082 0.0
Cd144 Cd 0.27492 0.94483 0.02183 0.0
C145 C 0.28797 0.98558 0.13693 0.0
O146 O 0.26431 0.91057 0.0907 0.0
O147 O 0.23846 0.92125 0.07876 0.0
O148 O 0.27489 0.92682 0.92247 0.0
C149 C 0.24378 0.90667 0.10231 0.0
O150 O 0.29223 0.97231 0.17334 0.0
C151 C 0.26102 0.93139 0.89043 0.0
O152 O 0.28282 0.98111 0.07636 0.0
O153 O 0.25387 0.94338 0.91914 0.0
C154 C 0.15593 0.42793 0.00722 0.0
O155 O 0.16549 0.43064 0.06353 0.0
Cd156 Cd 0.16983 0.39921 0.11158 0.0
O157 O 0.14897 0.40909 0.97549 0.0
Cd158 Cd 0.14696 0.37123 0.97571 0.0
C159 C 0.11095 0.35381 0.10394 0.0
O160 O 0.18398 0.38334 0.03356 0.0
O161 O 0.16048 0.34582 0.01979 0.0
O162 O 0.16234 0.38779 0.87186 0.0
C163 C 0.18001 0.36252 0.04225 0.0
O164 O 0.12972 0.36806 0.13604 0.0
C165 C 0.15117 0.36885 0.8395 0.0
O166 O 0.11099 0.35233 0.04191 0.0
O167 O 0.13659 0.35021 0.87032 0.0
C168 C 0.41441 0.32861 0.95012 0.0
O169 O 0.41984 0.32699 0.89244 0.0
Cd170 Cd 0.39431 0.2913 0.83024 0.0
O171 O 0.39599 0.31165 0.97539 0.0
Cd172 Cd 0.36284 0.27166 0.95691 0.0
C173 C 0.34208 0.29115 0.83478 0.0
O174 O 0.38332 0.2567 0.89574 0.0
O175 O 0.34523 0.23441 0.90048 0.0
O176 O 0.37622 0.26947 0.06438 0.0
C177 C 0.36461 0.23724 0.88142 0.0
O178 O 0.35903 0.29285 0.80229 0.0
C179 C 0.356 0.25751 0.08935 0.0
O180 O 0.33995 0.28549 0.89509 0.0
O181 O 0.33809 0.25212 0.05234 0.0
C182 C 0.8079 0.09807 0.87211 0.0
O183 O 0.81548 0.10009 0.93068 0.0
Cd184 Cd 0.82741 0.13521 -0.00666 0.0
O185 O 0.80791 0.11528 0.84345 0.0
Cd186 Cd 0.81989 0.15653 0.86223 0.0
C187 C 0.77593 0.13581 0.96949 0.0
O188 O 0.85428 0.17012 0.93447 0.0
O189 O 0.83841 0.1917 0.92912 0.0
O190 O 0.84087 0.16369 0.76351 0.0
C191 C 0.85515 0.18904 0.95015 0.0
O192 O 0.79018 0.13366 0.00817 0.0
C193 C 0.83307 0.17558 0.7351 0.0
O194 O 0.78135 0.14244 0.91049 0.0
O195 O 0.81791 0.17804 0.76525 0.0
C196 C 0.95109 0.64847 0.93751 0.0
O197 O 0.94435 0.64251 0.87876 0.0
Cd198 Cd 0.93722 0.66789 0.80616 0.0
O199 O 0.9522 0.66666 0.96046 0.0
Cd200 Cd 0.94292 0.6967 0.93071 0.0
C201 C -0.01055 0.72058 0.83362 0.0
O202 O 0.91222 0.6811 0.84448 0.0
O203 O 0.93374 0.71915 0.85782 0.0
O204 O 0.91442 0.67826 0.01377 0.0
C205 C 0.91659 0.70172 0.82861 0.0
O206 O 0.97526 0.70373 0.79616 0.0
C207 C 0.92071 0.69681 0.04605 0.0
O208 O -0.01622 0.72195 0.8917 0.0
O209 O 0.93867 0.71596 0.02632 0.0
C210 C 0.40488 0.15051 0.44381 0.0
O211 O 0.40747 0.15697 0.38444 0.0
Cd212 Cd 0.37565 0.15835 0.32677 0.0
O213 O 0.38592 0.14495 0.47265 0.0
Cd214 Cd 0.34745 0.14188 0.46163 0.0
C215 C 0.33061 0.10011 0.34723 0.0
O216 O 0.36084 0.17663 0.39463 0.0
O217 O 0.32289 0.15412 0.40275 0.0
O218 O 0.36326 0.1618 0.56216 0.0
C219 C 0.34035 0.17306 0.38131 0.0
O220 O 0.34477 0.1172 0.31083 0.0
C221 C 0.34432 0.15144 0.59385 0.0
O222 O 0.32904 0.10326 0.40764 0.0
O223 O 0.32592 0.13523 0.56439 0.0
C224 C 0.0081 0.29606 0.3619 0.0
O225 O 0.00769 0.28844 0.41946 0.0
Cd226 Cd 0.97445 0.27703 0.48928 0.0
O227 O -0.00943 0.29706 0.33887 0.0
Cd228 Cd 0.95068 0.28714 0.36658 0.0
C229 C 0.97274 0.32827 0.48447 0.0
O230 O 0.93779 0.25164 0.43283 0.0
O231 O 0.91615 0.26746 0.43312 0.0
O232 O 0.94254 0.26741 0.26521 0.0
C233 C 0.91912 0.25071 0.45122 0.0
O234 O 0.97583 0.3133 0.51631 0.0
C235 C 0.93003 0.27501 0.23957 0.0
O236 O 0.96547 0.32462 0.42502 0.0
O237 O 0.92754 0.28964 0.27267 0.0
C238 C 0.8103 0.76005 0.4062 0.0
O239 O 0.81269 0.76367 0.4672 0.0
Cd240 Cd 0.81675 0.73649 0.54056 0.0
O241 O 0.81081 0.74273 0.38291 0.0
Cd242 Cd 0.81693 0.71078 0.416 0.0
C243 C 0.76698 0.68353 0.49821 0.0
O244 O 0.84448 0.72556 0.51025 0.0
O245 O 0.82415 0.68775 0.4927 0.0
O246 O 0.84816 0.72949 0.33971 0.0
C247 C 0.84012 0.70492 0.52555 0.0
O248 O 0.77941 0.6995 0.53994 0.0
C249 C 0.84245 0.71118 0.30709 0.0
O250 O 0.77466 0.68404 0.44145 0.0
O251 O 0.82379 0.69208 0.32351 0.0
H252 H 0.00849 0.48225 0.04281 0.0
H253 H 0.08444 0.51503 0.04224 0.0
H254 H 0.08826 0.53742 0.1393 0.0
H255 H 0.07056 0.55223 0.21332 0.0
H256 H -0.00531 0.52023 0.213 0.0
H257 H -0.00969 0.49293 0.12801 0.0
C258 C 0.02579 0.49379 0.06507 0.0
C259 C 0.04615 0.4973 0.03485 0.0
C260 C 0.02794 0.50711 0.12008 0.0
C261 C 0.06849 0.51228 0.06419 0.0
C262 C 0.07073 0.52519 0.11953 0.0
C263 C 0.05306 0.53904 0.19536 0.0
C264 C 0.03306 0.53858 0.2184 0.0
C265 C 0.05066 0.52353 0.14607 0.0
C266 C 0.01044 0.52114 0.19549 0.0
C267 C 0.00789 0.50552 0.14677 0.0
H268 H 0.52684 0.574 0.82928 0.0
H269 H 0.55828 0.53109 0.81474 0.0
H270 H 0.53183 0.50418 0.89759 0.0
H271 H 0.50366 0.49584 0.98294 0.0
H272 H 0.47377 0.53988 0.0031 0.0
H273 H 0.49537 0.5631 0.90783 0.0
C274 C 0.52769 0.55859 0.84362 0.0
C275 C 0.54475 0.55474 0.81675 0.0
C276 C 0.51278 0.54347 0.89225 0.0
C277 C 0.54549 0.53459 0.83528 0.0
C278 C 0.53039 0.5192 0.88264 0.0
C279 C 0.50154 0.51029 0.96595 0.0
C280 C 0.48746 0.51641 0.00055 0.0
C281 C 0.51454 0.52392 0.91282 0.0
C282 C 0.48462 0.53492 0.97741 0.0
C283 C 0.49709 0.54829 0.92329 0.0
H284 H 0.5846 0.08616 0.05844 0.0
H285 H 0.54238 0.01008 0.04692 0.0
H286 H 0.52076 0.01305 0.95214 0.0
H287 H 0.51366 0.03708 0.87409 0.0
H288 H 0.55528 0.11317 0.88559 0.0
H289 H 0.57762 0.11035 0.97924 0.0
C290 C 0.57067 0.07022 0.0352 0.0
C291 C 0.56505 0.04791 0.05963 0.0
C292 C 0.55833 0.07206 0.98092 0.0
C293 C 0.54699 0.02743 0.02905 0.0
C294 C 0.53466 0.02912 0.97489 0.0
C295 C 0.52767 0.05311 0.89684 0.0
C296 C 0.53282 0.07532 0.87305 0.0
C297 C 0.54018 0.05133 0.9506 0.0
C298 C 0.55101 0.09587 0.90307 0.0
C299 C 0.56372 0.09426 0.95659 0.0
H300 H 0.54107 0.02709 0.38353 0.0
H301 H 0.60271 0.0971 0.40249 0.0
H302 H 0.58297 0.10662 0.48474 0.0
H303 H 0.54841 0.09494 0.55131 0.0
H304 H 0.48692 0.0248 0.53311 0.0
H305 H 0.50639 0.01552 0.44949 0.0
C306 C 0.55026 0.04442 0.40579 0.0
C307 C 0.57337 0.06135 0.38713 0.0
C308 C 0.53877 0.04978 0.45262 0.0
C309 C 0.58495 0.08374 0.4162 0.0
C310 C 0.57365 0.08921 0.46304 0.0
C311 C 0.53916 0.07767 0.52873 0.0
C312 C 0.51621 0.06059 0.54826 0.0
C313 C 0.55056 0.07237 0.48147 0.0
C314 C 0.50456 0.03826 0.51881 0.0
C315 C 0.51571 0.03292 0.47121 0.0
H316 H 0.00144 0.55293 0.53155 0.0
H317 H 0.07471 0.60868 0.54842 0.0
H318 H 0.07948 0.59117 0.64892 0.0
H319 H 0.06479 0.5566 0.72049 0.0
H320 H -0.00815 0.5002 0.70308 0.0
H321 H -0.01507 0.52143 0.61491 0.0
C322 C 0.0182 0.5616 0.55841 0.0
C323 C 0.03779 0.58176 0.53216 0.0
C324 C 0.02103 0.55106 0.61533 0.0
C325 C 0.05945 0.5929 0.56734 0.0
C326 C 0.06225 0.58285 0.62461 0.0
C327 C 0.0473 0.54916 0.69806 0.0
C328 C 0.02903 0.5267 0.71709 0.0
C329 C 0.0435 0.56134 0.64715 0.0
C330 C 0.0063 0.51741 0.68868 0.0
C331 C 0.00232 0.5295 0.63815 0.0
H332 H 0.5897 0.5784 0.48073 0.0
H333 H 0.55077 0.61321 0.51155 0.0
H334 H 0.52523 0.59301 0.41652 0.0
H335 H 0.51054 0.56106 0.33569 0.0
H336 H 0.54813 0.5244 0.31221 0.0
H337 H 0.57765 0.54973 0.39377 0.0
C338 C 0.57588 0.58192 0.46608 0.0
C339 C 0.57185 0.59697 0.50365 0.0
C340 C 0.5608 0.56958 0.41346 0.0
C341 C 0.55415 0.60163 0.4835 0.0
C342 C 0.53942 0.58991 0.42958 0.0
C343 C 0.52539 0.55886 0.34779 0.0
C344 C 0.52698 0.54065 0.31878 0.0
C345 C 0.54201 0.57313 0.39593 0.0
C346 C 0.54635 0.53807 0.33457 0.0
C347 C 0.56325 0.55256 0.38109 0.0
H348 H 0.74405 0.88021 0.23515 0.0
H349 H 0.67267 0.82057 0.24707 0.0
H350 H 0.6643 0.84071 0.33145 0.0
H351 H 0.67737 0.87526 0.40123 0.0
H352 H 0.7488 0.93481 0.38823 0.0
H353 H 0.75699 0.91466 0.30391 0.0
C354 C 0.72666 0.87151 0.2563 0.0
C355 C 0.70901 0.84887 0.23505 0.0
C356 C 0.72196 0.88324 0.3041 0.0
C357 C 0.68656 0.83795 0.26275 0.0
C358 C 0.68177 0.84948 0.31081 0.0
C359 C 0.69471 0.8839 0.37974 0.0
C360 C 0.71246 0.90653 0.4009 0.0
C361 C 0.69933 0.87215 0.33165 0.0
C362 C 0.73483 0.91743 0.37272 0.0
C363 C 0.73954 0.9059 0.32467 0.0
H364 H 0.19412 0.8303 0.32113 0.0
H365 H 0.14653 0.85674 0.31174 0.0
H366 H 0.16723 0.8811 0.21699 0.0
H367 H 0.20164 0.89815 0.14586 0.0
H368 H 0.25029 0.87299 0.16054 0.0
H369 H 0.22625 0.84473 0.24459 0.0
C370 C 0.18803 0.84115 0.29792 0.0
C371 C 0.16902 0.84198 0.32389 0.0
C372 C 0.20038 0.85551 0.24505 0.0
C373 C 0.16117 0.85588 0.29276 0.0
C374 C 0.1731 0.8699 0.23892 0.0
C375 C 0.20685 0.8863 0.16693 0.0
C376 C 0.22789 0.88787 0.14766 0.0
C377 C 0.19318 0.87041 0.21606 0.0
C378 C 0.2343 0.87229 0.17501 0.0
C379 C 0.22058 0.85613 0.22304 0.0
H380 H 0.2197 0.32912 0.27394 0.0
H381 H 0.27206 0.40363 0.27598 0.0
H382 H 0.25587 0.40916 0.17353 0.0
H383 H 0.22301 0.39411 0.09398 0.0
H384 H 0.16977 0.31987 0.09301 0.0
H385 H 0.19026 0.31291 0.18362 0.0
C386 C 0.22794 0.3464 0.25092 0.0
C387 C 0.24671 0.36599 0.28291 0.0
C388 C 0.21813 0.34961 0.19274 0.0
C389 C 0.25731 0.38832 0.25263 0.0
C390 C 0.24803 0.39154 0.19418 0.0
C391 C 0.21613 0.37635 0.11286 0.0
C392 C 0.19468 0.35767 0.08791 0.0
C393 C 0.22779 0.37252 0.1655 0.0
C394 C 0.18615 0.33465 0.112 0.0
C395 C 0.19781 0.33064 0.16396 0.0
H396 H 0.14649 0.33142 0.77333 0.0
H397 H 0.17243 0.40597 0.75611 0.0
H398 H 0.19461 0.40866 0.66034 0.0
H399 H 0.21186 0.39133 0.59381 0.0
H400 H 0.18682 0.31701 0.61184 0.0
H401 H 0.159 0.31269 0.69448 0.0
C402 C 0.15637 0.34805 0.74727 0.0
C403 C 0.15816 0.36853 0.77222 0.0
C404 C 0.16969 0.34964 0.69327 0.0
C405 C 0.17104 0.39001 0.73814 0.0
C406 C 0.18386 0.39161 0.68365 0.0
C407 C 0.20006 0.37413 0.61516 0.0
C408 C 0.20172 0.35466 0.5979 0.0
C409 C 0.18424 0.3718 0.66285 0.0
C410 C 0.18603 0.33236 0.62491 0.0
C411 C 0.17014 0.32986 0.67226 0.0
H412 H 0.68775 0.84294 0.90715 0.0
H413 H 0.76404 0.886 0.9072 0.0
H414 H 0.76179 0.90896 0.81519 0.0
H415 H 0.73814 0.91632 0.73469 0.0
H416 H 0.66186 0.8732 0.73519 0.0
H417 H 0.66416 0.85051 0.82765 0.0
C418 C 0.70394 0.85737 0.88719 0.0
C419 C 0.72606 0.86277 0.91381 0.0
C420 C 0.70249 0.87035 0.83453 0.0
C421 C 0.74682 0.88153 0.88751 0.0
C422 C 0.74553 0.89461 0.83493 0.0
C423 C 0.72199 0.90194 0.75494 0.0
C424 C 0.69984 0.89638 0.72812 0.0
C425 C 0.72346 0.88909 0.808 0.0
C426 C 0.6791 0.87778 0.75499 0.0
C427 C 0.68041 0.86484 0.80779 0.0
H428 H 0.22352 0.92811 0.8217 0.0
H429 H 0.27743 0.90991 0.81521 0.0
H430 H 0.25762 0.88488 0.72096 0.0
H431 H 0.22258 0.86444 0.649 0.0
H432 H 0.16837 0.88221 0.65563 0.0
H433 H 0.19074 0.91114 0.74075 0.0
C434 C 0.23118 0.91908 0.79874 0.0
C435 C 0.25168 0.92058 0.82595 0.0
C436 C 0.21947 0.90431 0.74516 0.0
C437 C 0.26147 0.90882 0.79561 0.0
C438 C 0.25013 0.89441 0.74183 0.0
C439 C 0.21579 0.87482 0.66865 0.0
C440 C 0.19372 0.87091 0.64691 0.0
C441 C 0.22869 0.89137 0.7177 0.0
C442 C 0.18528 0.88474 0.67201 0.0
C443 C 0.19803 0.90129 0.72075 0.0
H444 H 0.32679 0.19691 0.83359 0.0
H445 H 0.40311 0.2388 0.83114 0.0
H446 H 0.40338 0.21303 0.74826 0.0
H447 H 0.38192 0.18193 0.6679 0.0
H448 H 0.30556 0.14135 0.66469 0.0
H449 H 0.30532 0.16295 0.75989 0.0
C450 C 0.3435 0.20023 0.81553 0.0
C451 C 0.3649 0.21996 0.83771 0.0
C452 C 0.3435 0.18562 0.76694 0.0
C453 C 0.38641 0.2239 0.81433 0.0
C454 C 0.38657 0.20918 0.76695 0.0
C455 C 0.36519 0.17751 0.68858 0.0
C456 C 0.34377 0.16033 0.65876 0.0
C457 C 0.36521 0.19047 0.74159 0.0
C458 C 0.32228 0.15457 0.68667 0.0
C459 C 0.32215 0.16705 0.74072 0.0
H460 H 0.86541 0.17288 0.66459 0.0
H461 H 0.82406 0.20632 0.66729 0.0
H462 H 0.846 0.23133 0.57493 0.0
H463 H 0.87952 0.2463 0.50151 0.0
H464 H 0.92186 0.21385 0.50288 0.0
H465 H 0.89679 0.18571 0.58588 0.0
C466 C 0.86094 0.18542 0.64451 0.0
C467 C 0.84331 0.18793 0.67316 0.0
C468 C 0.87397 0.20006 0.59274 0.0
C469 C 0.83762 0.20411 0.64622 0.0
C470 C 0.85024 0.21849 0.59369 0.0
C471 C 0.88315 0.23294 0.51954 0.0
C472 C 0.9027 0.23233 0.4967 0.0
C473 C 0.86889 0.21705 0.56787 0.0
C474 C 0.90704 0.2148 0.52007 0.0
C475 C 0.89273 0.19872 0.56752 0.0
H476 H 0.88285 0.66932 0.74625 0.0
H477 H 0.92094 0.74355 0.79316 0.0
H478 H 0.90071 0.7512 0.70364 0.0
H479 H 0.87269 0.73701 0.61069 0.0
H480 H 0.83469 0.66281 0.56341 0.0
H481 H 0.85441 0.65503 0.65413 0.0
C482 C 0.8866 0.68712 0.73703 0.0
C483 C 0.90336 0.70579 0.77613 0.0
C484 C 0.87502 0.69148 0.68518 0.0
C485 C 0.90812 0.72882 0.76359 0.0
C486 C 0.89659 0.73326 0.71237 0.0
C487 C 0.86876 0.71916 0.62025 0.0
C488 C 0.85234 0.70058 0.58036 0.0
C489 C 0.88012 0.71476 0.67258 0.0
C490 C 0.84733 0.67749 0.59342 0.0
C491 C 0.85856 0.67298 0.64533 0.0
H492 H 0.84397 0.67459 0.25508 0.0
H493 H 0.87645 0.75033 0.24535 0.0
H494 H 0.90474 0.7529 0.16702 0.0
H495 H 0.92023 0.73362 0.10077 0.0
H496 H 0.88778 0.65788 0.11089 0.0
H497 H 0.85988 0.6554 0.19031 0.0
C498 C 0.85709 0.6916 0.23525 0.0
C499 C 0.85803 0.71218 0.25557 0.0
C500 C 0.87357 0.69302 0.19103 0.0
C501 C 0.87534 0.73418 0.23026 0.0
C502 C 0.8916 0.73571 0.1857 0.0
C503 C 0.90727 0.71664 0.12112 0.0
C504 C 0.90611 0.69601 0.10014 0.0
C505 C 0.89099 0.71526 0.16602 0.0
C506 C 0.88904 0.67406 0.12631 0.0
C507 C 0.87299 0.67258 0.17149 0.0
H508 H 0.37269 0.21796 0.34976 0.0
H509 H 0.30064 0.16259 0.30917 0.0
H510 H 0.29765 0.18602 0.21972 0.0
H511 H 0.31767 0.21969 0.14358 0.0
H512 H 0.39013 0.27429 0.18414 0.0
H513 H 0.39063 0.25398 0.28391 0.0
C514 C 0.35623 0.21118 0.32187 0.0
C515 C 0.33711 0.18847 0.33491 0.0
C516 C 0.35474 0.22458 0.27042 0.0
C517 C 0.3157 0.18001 0.29947 0.0
C518 C 0.314 0.19335 0.24825 0.0
C519 C 0.33332 0.22741 0.17524 0.0
C520 C 0.35395 0.24818 0.15611 0.0
C521 C 0.3337 0.21531 0.23186 0.0
C522 C 0.37413 0.25809 0.19749 0.0
C523 C 0.37448 0.24647 0.25441 0.0
H524 H 0.93461 0.24544 0.16173 0.0
H525 H 0.89628 0.28161 0.1783 0.0
H526 H 0.87072 0.25932 0.08528 0.0
H527 H 0.85687 0.22664 0.00731 0.0
H528 H 0.89431 0.18932 -0.00343 0.0
H529 H 0.92269 0.21505 0.07977 0.0
C530 C 0.92086 0.24872 0.14463 0.0
C531 C 0.91717 0.26497 0.17727 0.0
C532 C 0.90592 0.23542 0.09278 0.0
C533 C 0.89943 0.26915 0.15404 0.0
C534 C 0.88474 0.2563 0.10119 0.0
C535 C 0.87138 0.2243 0.02275 0.0
C536 C 0.87335 0.20593 -0.00363 0.0
C537 C 0.88741 0.23891 0.07146 0.0
C538 C 0.89227 0.20316 0.01659 0.0
C539 C 0.90852 0.21788 0.06408 0.0
H540 H 0.10393 0.65799 0.42936 0.0
H541 H 0.11809 0.69425 0.24414 0.0
H542 H 0.1393 0.73241 0.30001 0.0
H543 H 0.14959 0.75502 0.4021 0.0
H544 H 0.13641 0.71859 0.58703 0.0
H545 H 0.11929 0.6808 0.53063 0.0
C546 C 0.112 0.67428 0.40124 0.0
C547 C 0.10922 0.67343 0.3329 0.0
C548 C 0.12417 0.69601 0.43364 0.0
C549 C 0.12001 0.69454 0.2968 0.0
C550 C 0.13199 0.71631 0.32876 0.0
C551 C 0.1433 0.73882 0.42998 0.0
C552 C 0.14393 0.7395 0.49861 0.0
C553 C 0.13355 0.71721 0.39722 0.0
C554 C 0.13609 0.71849 0.53421 0.0
C555 C 0.12617 0.69689 0.50199 0.0
H556 H 0.42006 0.47221 0.43875 0.0
H557 H 0.38624 0.45392 0.24798 0.0
H558 H 0.34761 0.43825 0.29693 0.0
H559 H 0.32334 0.42573 0.3944 0.0
H560 H 0.3569 0.44428 0.58529 0.0
H561 H 0.39592 0.46432 0.53571 0.0
C562 C 0.40425 0.46503 0.40785 0.0
C563 C 0.40593 0.46383 0.33994 0.0
C564 C 0.38213 0.45608 0.43633 0.0
C565 C 0.38539 0.45493 0.30036 0.0
C566 C 0.3633 0.44589 0.32834 0.0
C567 C 0.33922 0.4345 0.4251 0.0
C568 C 0.33734 0.43329 0.49337 0.0
C569 C 0.36145 0.44577 0.39632 0.0
C570 C 0.35795 0.445 0.53263 0.0
C571 C 0.38022 0.45627 0.5043 0.0
H572 H 0.64595 0.93938 0.41367 0.0
H573 H 0.62454 0.96562 0.5719 0.0
H574 H 0.60726 0.98124 0.49376 0.0
H575 H 0.60201 -0.00908 0.38059 0.0
H576 H 0.62302 0.96422 0.22252 0.0
H577 H 0.63646 0.94502 0.30069 0.0
C578 C 0.63726 0.94829 0.43108 0.0
C579 C 0.63683 0.95167 0.49838 0.0
C580 C 0.62744 0.95724 0.38598 0.0
C581 C 0.62516 0.96286 0.52032 0.0
C582 C 0.61539 0.9719 0.47567 0.0
C583 C 0.60928 0.98067 0.36323 0.0
C584 C 0.61185 0.97928 0.2959 0.0
C585 C 0.61701 0.96974 0.4084 0.0
C586 C 0.62093 0.96562 0.27408 0.0
C587 C 0.62873 0.95474 0.31875 0.0
H588 H 0.66712 0.08262 0.01943 0.0
H589 H 0.69224 0.0907 0.21925 0.0
H590 H 0.73317 0.11525 0.18363 0.0
H591 H 0.76162 0.13048 0.09462 0.0
H592 H 0.7361 0.12259 0.89495 0.0
H593 H 0.69537 0.10222 0.93176 0.0
C594 C 0.68157 0.08998 0.05521 0.0
C595 C 0.67683 0.08457 0.12169 0.0
C596 C 0.70489 0.10402 0.0344 0.0
C597 C 0.69556 0.09457 0.16779 0.0
C598 C 0.71891 0.1085 0.1474 0.0
C599 C 0.74715 0.12461 0.0592 0.0
C600 C 0.75185 0.1277 -0.00792 0.0
C601 C 0.72378 0.11276 0.08068 0.0
C602 C 0.73297 0.12037 0.94684 0.0
C603 C 0.70967 0.10858 0.96782 0.0
H604 H 0.9554 0.64929 0.0693 0.0
H605 H 0.96607 0.61915 0.89867 0.0
H606 H -0.01388 0.60352 0.96607 0.0
H607 H 0.00406 0.60204 0.07121 0.0
H608 H -0.00675 0.63193 0.24205 0.0
H609 H 0.96956 0.64396 0.17666 0.0
C610 C 0.96186 0.63905 0.04692 0.0
C611 C 0.95956 0.63566 0.97892 0.0
C612 C 0.97348 0.63029 0.08585 0.0
C613 C 0.96766 0.62205 0.95082 0.0
C614 C 0.97925 0.61324 -0.01072 0.0
C615 C -0.00364 0.61103 0.09427 0.0
C616 C 0.00071 0.61647 0.16112 0.0
C617 C -0.01717 0.61785 0.05646 0.0
C618 C -0.00976 0.62766 0.19064 0.0
C619 C 0.97679 0.63461 0.15323 0.0
H620 H 0.41908 0.33217 0.08125 0.0
H621 H 0.44131 0.3739 0.90475 0.0
H622 H 0.45977 0.41019 0.96917 0.0
H623 H 0.46637 0.42973 0.07507 0.0
H624 H 0.44526 0.38794 0.25163 0.0
H625 H 0.42964 0.35184 0.18765 0.0
C626 C 0.42819 0.34923 0.05693 0.0
C627 C 0.4286 0.35043 -0.01163 0.0
C628 C 0.43877 0.3699 0.09421 0.0
C629 C 0.44078 0.37257 0.95745 0.0
C630 C 0.45119 0.39328 -0.00576 0.0
C631 C 0.45851 0.41271 0.09954 0.0
C632 C 0.45662 0.41141 0.16786 0.0
C633 C 0.44978 0.39212 0.06253 0.0
C634 C 0.44683 0.38935 0.19911 0.0
C635 C 0.43783 0.36873 0.16255 0.0
H636 H 0.9759 0.336 0.61449 0.0
H637 H -0.01674 0.3704 0.42822 0.0
H638 H -0.00203 0.40813 0.48315 0.0
H639 H 0.01198 0.43172 0.58317 0.0
H640 H 0.00449 0.39726 0.76945 0.0
H641 H -0.01376 0.35898 0.71525 0.0
C642 C 0.98056 0.35172 0.58586 0.0
C643 C 0.97884 0.35049 0.51727 0.0
C644 C -0.01098 0.37328 0.61771 0.0
C645 C -0.01549 0.3709 0.48099 0.0
C646 C -0.007 0.39248 0.51237 0.0
C647 C 0.00617 0.41581 0.61205 0.0
C648 C 0.0099 0.41737 0.68022 0.0
C649 C -0.00417 0.39394 0.58057 0.0
C650 C 0.00189 0.39656 0.71697 0.0
C651 C -0.00843 0.37469 0.68596 0.0
H652 H 0.66109 0.62047 0.57571 0.0
H653 H 0.69475 0.61584 0.75451 0.0
H654 H 0.73311 0.63615 0.70228 0.0
H655 H 0.75749 0.65989 0.61117 0.0
H656 H 0.72443 0.66476 0.43203 0.0
H657 H 0.68519 0.63928 0.47865 0.0
C658 C 0.67678 0.62359 0.60295 0.0
C659 C 0.67516 0.61706 0.6693 0.0
C660 C 0.6988 0.63539 0.57267 0.0
C661 C 0.69554 0.62081 0.7036 0.0
C662 C 0.71749 0.63252 0.67385 0.0
C663 C 0.74162 0.65493 0.58197 0.0
C664 C 0.74364 0.66428 0.51876 0.0
C665 C 0.71938 0.64058 0.60925 0.0
C666 C 0.72316 0.65765 0.48078 0.0
C667 C 0.70081 0.64329 0.50767 0.0
H668 H 0.41565 0.15879 0.57185 0.0
H669 H 0.43555 0.13834 0.39821 0.0
H670 H 0.46191 0.12969 0.46353 0.0
H671 H 0.47564 0.12385 0.57142 0.0
H672 H 0.45626 0.14533 0.7444 0.0
H673 H 0.43361 0.15809 0.67767 0.0
C674 C 0.42601 0.15271 0.54828 0.0
C675 C 0.42346 0.14881 0.48065 0.0
C676 C 0.4411 0.14791 0.58598 0.0
C677 C 0.43723 0.14139 0.4503 0.0
C678 C 0.45218 0.13634 0.48765 0.0
C679 C 0.46675 0.13166 0.59439 0.0
C680 C 0.46732 0.13331 0.66281 0.0
C681 C 0.45372 0.13892 0.55574 0.0
C682 C 0.45605 0.1438 0.69188 0.0
C683 C 0.44296 0.15097 0.6538 0.0
H684 H 0.34285 0.97142 0.91057 0.0
H685 H 0.3797 0.98653 0.09714 0.0
H686 H 0.41707 0.01358 0.04447 0.0
H687 H 0.43842 0.0355 0.94721 0.0
H688 H 0.40203 0.01991 0.7601 0.0
H689 H 0.36514 -0.00975 0.81127 0.0
C690 C 0.35911 0.98044 0.93963 0.0
C691 C 0.35849 0.97724 0.00779 0.0
C692 C 0.38047 -0.00403 0.90905 0.0
C693 C 0.37972 -0.01128 0.04467 0.0
C694 C 0.40104 0.00429 0.01463 0.0
C695 C 0.42242 0.0255 0.91758 0.0
C696 C 0.42274 0.0301 0.85024 0.0
C697 C 0.40148 0.00848 0.94719 0.0
C698 C 0.40211 0.01671 0.81208 0.0
C699 C 0.38106 -0.00015 0.84135 0.0
H700 H 0.11205 0.48886 0.92466 0.0
H701 H 0.12484 0.47257 0.73343 0.0
H702 H 0.1465 0.45499 0.78242 0.0
H703 H 0.15636 0.43916 0.87987 0.0
H704 H 0.14424 0.45608 0.07108 0.0
H705 H 0.12801 0.47891 0.0219 0.0
C706 C 0.12005 0.4819 0.89376 0.0
C707 C 0.11662 0.48163 0.82569 0.0
C708 C 0.13233 0.47179 0.92227 0.0
C709 C 0.12728 0.47293 0.78594 0.0
C710 C 0.13948 0.46273 0.81397 0.0
C711 C 0.15058 0.44826 0.91069 0.0
C712 C 0.15108 0.4457 0.97886 0.0
C713 C 0.14129 0.46127 0.88208 0.0
C714 C 0.14396 0.45781 0.01849 0.0
C715 C 0.13454 0.47071 -0.00963 0.0
H716 H 0.64653 0.69018 0.7775 0.0
H717 H 0.62623 0.65196 0.95986 0.0
H718 H 0.64787 0.68902 0.02006 0.0
H719 H 0.67573 0.73219 0.02076 0.0
H720 H 0.69804 0.76955 0.83746 0.0
H721 H 0.67244 0.73314 0.77807 0.0
C722 C 0.64649 0.69 0.83038 0.0
C723 C 0.63488 0.66839 0.8641 0.0
C724 C 0.65959 0.71128 0.86468 0.0
C725 C 0.63519 0.66841 0.93272 0.0
C726 C 0.64759 0.68958 0.96723 0.0
C727 C 0.67469 0.73232 0.9679 0.0
C728 C 0.68888 0.75343 0.93357 0.0
C729 C 0.66036 0.71111 0.93375 0.0
C730 C 0.6875 0.75341 0.86501 0.0
C731 C 0.67283 0.73262 0.83092 0.0
H732 H 0.74275 -0.00693 0.78223 0.0
H733 H 0.7501 0.02707 0.59565 0.0
H734 H 0.77873 0.06544 0.64414 0.0
H735 H 0.7983 0.08942 0.74227 0.0
H736 H 0.79134 0.0547 0.92793 0.0
H737 H 0.76618 0.01632 0.87675 0.0
C738 C 0.75082 0.00888 0.7521 0.0
C739 C 0.74412 0.00746 0.68589 0.0
C740 C 0.76725 0.03064 0.78014 0.0
C741 C 0.75498 0.02786 0.64684 0.0
C742 C 0.77123 0.04974 0.67462 0.0
C743 C 0.79156 0.07343 0.77134 0.0
C744 C 0.7964 0.07494 0.83904 0.0
C745 C 0.77702 0.05139 0.74161 0.0
C746 C 0.78784 0.05406 0.87586 0.0
C747 C 0.77332 0.0321 0.8467 0.0
H748 H 0.09608 0.78528 0.75891 0.0
H749 H 0.06405 0.77046 0.56564 0.0
H750 H 0.02475 0.74984 0.61268 0.0
H751 H -0.00019 0.73289 0.70783 0.0
H752 H 0.03142 0.74738 0.90134 0.0
H753 H 0.07079 0.77167 0.85491 0.0
C754 C 0.08051 0.77771 0.72701 0.0
C755 C 0.08298 0.77906 0.65878 0.0
C756 C 0.058 0.7658 0.75439 0.0
C757 C 0.06264 0.76956 0.61821 0.0
C758 C 0.04018 0.7577 0.64508 0.0
C759 C 0.01531 0.74153 0.73996 0.0
C760 C 0.01283 0.73807 0.80785 0.0
C761 C 0.0377 0.75522 0.71296 0.0
C762 C 0.03294 0.74975 0.84895 0.0
C763 C 0.05541 0.76349 0.82237 0.0
H764 H 0.27912 0.33193 0.73723 0.0
H765 H 0.3002 0.32109 0.55039 0.0
H766 H 0.3198 0.30223 0.60421 0.0
H767 H 0.33423 0.29259 0.70475 0.0
H768 H 0.31312 0.30346 0.89153 0.0
H769 H 0.29002 0.31843 0.83706 0.0
C770 C 0.28779 0.32522 0.70817 0.0
C771 C 0.28852 0.32822 0.63998 0.0
C772 C 0.29914 0.31459 0.73941 0.0
C773 C 0.29945 0.31906 0.60294 0.0
C774 C 0.31077 0.30841 0.63371 0.0
C775 C 0.32441 0.29805 0.73357 0.0
C776 C 0.32569 0.29728 0.80212 0.0
C777 C 0.31126 0.30668 0.70198 0.0
C778 C 0.31252 0.30398 0.83873 0.0
C779 C 0.29939 0.31262 0.80763 0.0
H780 H 0.01044 0.30205 0.23041 0.0
H781 H 0.053 0.30894 0.40211 0.0
H782 H 0.08837 0.32617 0.33606 0.0
H783 H 0.10744 0.34156 0.23131 0.0
H784 H 0.06509 0.33416 0.05887 0.0
H785 H 0.02921 0.31452 0.12357 0.0
C786 C 0.02744 0.30721 0.25337 0.0
C787 C 0.02915 0.30449 0.32127 0.0
C788 C 0.04767 0.31701 0.21507 0.0
C789 C 0.05122 0.31091 0.35006 0.0
C790 C 0.07145 0.32082 0.31235 0.0
C791 C 0.09034 0.33554 0.20772 0.0
C792 C 0.08893 0.33958 0.14054 0.0
C793 C 0.06992 0.32431 0.2451 0.0
C794 C 0.06663 0.33129 0.11049 0.0
C795 C 0.04616 0.32018 0.14753 0.0
H796 H 0.82123 0.76829 0.27893 0.0
H797 H 0.78947 0.78546 0.43218 0.0
H798 H 0.77713 0.80544 0.35291 0.0
H799 H 0.77211 0.81446 0.2387 0.0
H800 H 0.80462 0.79789 0.08606 0.0
H801 H 0.82021 0.7814 0.16679 0.0
C802 C 0.81182 0.77663 0.29508 0.0
C803 C 0.80593 0.77513 0.36105 0.0
C804 C 0.80484 0.78804 0.24939 0.0
C805 C 0.79414 0.78636 0.38161 0.0
C806 C 0.78699 0.79765 0.33627 0.0
C807 C 0.78282 0.80746 0.22319 0.0
C808 C 0.78693 0.80707 0.15641 0.0
C809 C 0.79172 0.79805 0.26983 0.0
C810 C 0.80116 0.79834 0.13711 0.0
C811 C 0.80998 0.78881 0.1832 0.0
H812 H 0.28709 -0.00558 0.2648 0.0
H813 H 0.29631 0.02585 0.07327 0.0
H814 H 0.30819 0.0639 0.12234 0.0
H815 H 0.32021 0.08896 0.21941 0.0
H816 H 0.3112 0.05758 0.41094 0.0
H817 H 0.29468 0.0186 0.36192 0.0
C818 C 0.29143 0.00953 0.23371 0.0
C819 C 0.29119 0.00742 0.16548 0.0
C820 C 0.29843 0.03134 0.26224 0.0
C821 C 0.29643 0.02703 0.12587 0.0
C822 C 0.30336 0.04881 0.15392 0.0
C823 C 0.3144 0.07355 0.25051 0.0
C824 C 0.31729 0.07619 0.31871 0.0
C825 C 0.3051 0.05129 0.22201 0.0
C826 C 0.30926 0.05603 0.35835 0.0
C827 C 0.29993 0.03377 0.33033 0.0
loop_
_geom_bond_atom_site_label_1
_geom_bond_atom_site_label_2
_geom_bond_distance
_geom_bond_site_symmetry_2
_ccdc_geom_bond_type
C0 O1 1.306 . S
C0 O3 1.160 . S
O1 C0 1.306 . S
O1 Cd2 2.228 . S
Cd2 O1 2.228 . S
Cd2 O6 2.273 . S
Cd2 O10 2.277 . S
O3 C0 1.160 . S
O3 Cd4 2.203 . S
Cd4 O3 2.203 . S
Cd4 O6 2.411 . S
Cd4 O7 2.333 . S
Cd4 O8 2.352 . S
Cd4 O12 2.277 . S
Cd4 O13 2.356 . S
C5 O10 1.209 . S
C5 O12 1.226 . S
O6 Cd2 2.273 . S
O6 Cd4 2.411 . S
O6 C9 1.320 . S
O7 Cd4 2.333 . S
O7 C9 1.214 . S
O8 Cd4 2.352 . S
O8 C11 1.258 . S
C9 O6 1.320 . S
C9 O7 1.214 . S
O10 Cd2 2.277 . S
O10 C5 1.209 . S
C11 O8 1.258 . S
C11 O13 1.282 . S
O12 Cd4 2.277 . S
O12 C5 1.226 . S
O13 Cd4 2.356 . S
O13 C11 1.282 . S
C14 O15 1.306 . S
C14 O17 1.160 . S
O15 C14 1.306 . S
O15 Cd16 2.228 . S
Cd16 O15 2.228 . S
Cd16 O20 2.273 . S
Cd16 O24 2.277 . S
O17 C14 1.160 . S
O17 Cd18 2.203 . S
Cd18 O17 2.203 . S
Cd18 O20 2.411 . S
Cd18 O21 2.333 . S
Cd18 O22 2.352 . S
Cd18 O26 2.277 . S
Cd18 O27 2.356 . S
C19 O24 1.209 . S
C19 O26 1.226 . S
O20 Cd16 2.273 . S
O20 Cd18 2.411 . S
O20 C23 1.320 . S
O21 Cd18 2.333 . S
O21 C23 1.214 . S
O22 Cd18 2.352 . S
O22 C25 1.258 . S
C23 O20 1.320 . S
C23 O21 1.214 . S
O24 Cd16 2.277 . S
O24 C19 1.209 . S
C25 O22 1.258 . S
C25 O27 1.282 . S
O26 Cd18 2.277 . S
O26 C19 1.226 . S
O27 Cd18 2.356 . S
O27 C25 1.282 . S
C28 O29 1.306 . S
C28 O31 1.160 . S
O29 C28 1.306 . S
O29 Cd30 2.228 . S
Cd30 O29 2.228 . S
Cd30 O34 2.273 . S
Cd30 O38 2.277 . S
O31 C28 1.160 . S
O31 Cd32 2.203 . S
Cd32 O31 2.203 . S
Cd32 O34 2.411 . S
Cd32 O35 2.333 . S
Cd32 O36 2.352 . S
Cd32 O40 2.277 . S
Cd32 O41 2.356 . S
C33 O38 1.209 . S
C33 O40 1.226 . S
O34 Cd30 2.273 . S
O34 Cd32 2.411 . S
O34 C37 1.320 . S
O35 Cd32 2.333 . S
O35 C37 1.214 . S
O36 Cd32 2.352 . S
O36 C39 1.258 . S
C37 O34 1.320 . S
C37 O35 1.214 . S
O38 Cd30 2.277 . S
O38 C33 1.209 . S
C39 O36 1.258 . S
C39 O41 1.282 . S
O40 Cd32 2.277 . S
O40 C33 1.226 . S
O41 Cd32 2.356 . S
O41 C39 1.282 . S
C42 O43 1.306 . S
C42 O45 1.160 . S
O43 C42 1.306 . S
O43 Cd44 2.228 . S
Cd44 O43 2.228 . S
Cd44 O48 2.273 . S
Cd44 O52 2.277 . S
O45 C42 1.160 . S
O45 Cd46 2.203 . S
Cd46 O45 2.203 . S
Cd46 O48 2.411 . S
Cd46 O49 2.333 . S
Cd46 O50 2.352 . S
Cd46 O54 2.277 . S
Cd46 O55 2.356 . S
C47 O52 1.209 . S
C47 O54 1.226 . S
O48 Cd44 2.273 . S
O48 Cd46 2.411 . S
O48 C51 1.320 . S
O49 Cd46 2.333 . S
O49 C51 1.214 . S
O50 Cd46 2.352 . S
O50 C53 1.258 . S
C51 O48 1.320 . S
C51 O49 1.214 . S
O52 Cd44 2.277 . S
O52 C47 1.209 . S
C53 O50 1.258 . S
C53 O55 1.282 . S
O54 Cd46 2.277 . S
O54 C47 1.226 . S
O55 Cd46 2.356 . S
O55 C53 1.282 . S
C56 O57 1.306 . S
C56 O59 1.160 . S
O57 C56 1.306 . S
O57 Cd58 2.228 . S
Cd58 O57 2.228 . S
Cd58 O62 2.273 . S
Cd58 O66 2.277 . S
O59 C56 1.160 . S
O59 Cd60 2.203 . S
Cd60 O59 2.203 . S
Cd60 O62 2.411 . S
Cd60 O63 2.333 . S
Cd60 O64 2.352 . S
Cd60 O68 2.277 . S
Cd60 O69 2.356 . S
C61 O66 1.209 . S
C61 O68 1.226 . S
O62 Cd58 2.273 . S
O62 Cd60 2.411 . S
O62 C65 1.320 . S
O63 Cd60 2.333 . S
O63 C65 1.214 . S
O64 Cd60 2.352 . S
O64 C67 1.258 . S
C65 O62 1.320 . S
C65 O63 1.214 . S
O66 Cd58 2.277 . S
O66 C61 1.209 . S
C67 O64 1.258 . S
C67 O69 1.282 . S
O68 Cd60 2.277 . S
O68 C61 1.226 . S
O69 Cd60 2.356 . S
O69 C67 1.282 . S
C70 O71 1.306 . S
C70 O73 1.160 . S
O71 C70 1.306 . S
O71 Cd72 2.228 . S
Cd72 O71 2.228 . S
Cd72 O76 2.273 . S
Cd72 O80 2.277 . S
O73 C70 1.160 . S
O73 Cd74 2.203 . S
Cd74 O73 2.203 . S
Cd74 O76 2.411 . S
Cd74 O77 2.333 . S
Cd74 O78 2.352 . S
Cd74 O82 2.277 . S
Cd74 O83 2.356 . S
C75 O80 1.209 . S
C75 O82 1.226 . S
O76 Cd72 2.273 . S
O76 Cd74 2.411 . S
O76 C79 1.320 . S
O77 Cd74 2.333 . S
O77 C79 1.214 . S
O78 Cd74 2.352 . S
O78 C81 1.258 . S
C79 O76 1.320 . S
C79 O77 1.214 . S
O80 Cd72 2.277 . S
O80 C75 1.209 . S
C81 O78 1.258 . S
C81 O83 1.282 . S
O82 Cd74 2.277 . S
O82 C75 1.226 . S
O83 Cd74 2.356 . S
O83 C81 1.282 . S
C84 O85 1.306 . S
C84 O87 1.160 . S
O85 C84 1.306 . S
O85 Cd86 2.228 . S
Cd86 O85 2.228 . S
Cd86 O90 2.273 . S
Cd86 O94 2.277 . S
O87 C84 1.160 . S
O87 Cd88 2.203 . S
Cd88 O87 2.203 . S
Cd88 O90 2.411 . S
Cd88 O91 2.333 . S
Cd88 O92 2.352 . S
Cd88 O96 2.277 . S
Cd88 O97 2.356 . S
C89 O94 1.209 . S
C89 O96 1.226 . S
O90 Cd86 2.273 . S
O90 Cd88 2.411 . S
O90 C93 1.320 . S
O91 Cd88 2.333 . S
O91 C93 1.214 . S
O92 Cd88 2.352 . S
O92 C95 1.258 . S
C93 O90 1.320 . S
C93 O91 1.214 . S
O94 Cd86 2.277 . S
O94 C89 1.209 . S
C95 O92 1.258 . S
C95 O97 1.282 . S
O96 Cd88 2.277 . S
O96 C89 1.226 . S
O97 Cd88 2.356 . S
O97 C95 1.282 . S
C98 O99 1.306 . S
C98 O101 1.160 . S
O99 C98 1.306 . S
O99 Cd100 2.228 . S
Cd100 O99 2.228 . S
Cd100 O104 2.273 . S
Cd100 O108 2.277 . S
O101 C98 1.160 . S
O101 Cd102 2.203 . S
Cd102 O101 2.203 . S
Cd102 O104 2.411 . S
Cd102 O105 2.333 . S
Cd102 O106 2.352 . S
Cd102 O110 2.277 . S
Cd102 O111 2.356 . S
C103 O108 1.209 . S
C103 O110 1.226 . S
O104 Cd100 2.273 . S
O104 Cd102 2.411 . S
O104 C107 1.320 . S
O105 Cd102 2.333 . S
O105 C107 1.214 . S
O106 Cd102 2.352 . S
O106 C109 1.258 . S
C107 O104 1.320 . S
C107 O105 1.214 . S
O108 Cd100 2.277 . S
O108 C103 1.209 . S
C109 O106 1.258 . S
C109 O111 1.282 . S
O110 Cd102 2.277 . S
O110 C103 1.226 . S
O111 Cd102 2.356 . S
O111 C109 1.282 . S
C112 O113 1.306 . S
C112 O115 1.160 . S
O113 C112 1.306 . S
O113 Cd114 2.228 . S
Cd114 O113 2.228 . S
Cd114 O118 2.273 . S
Cd114 O122 2.277 . S
O115 C112 1.160 . S
O115 Cd116 2.203 . S
Cd116 O115 2.203 . S
Cd116 O118 2.411 . S
Cd116 O119 2.333 . S
Cd116 O120 2.352 . S
Cd116 O124 2.277 . S
Cd116 O125 2.356 . S
C117 O122 1.209 . S
C117 O124 1.226 . S
O118 Cd114 2.273 . S
O118 Cd116 2.411 . S
O118 C121 1.320 . S
O119 Cd116 2.333 . S
O119 C121 1.214 . S
O120 Cd116 2.352 . S
O120 C123 1.258 . S
C121 O118 1.320 . S
C121 O119 1.214 . S
O122 Cd114 2.277 . S
O122 C117 1.209 . S
C123 O120 1.258 . S
C123 O125 1.282 . S
O124 Cd116 2.277 . S
O124 C117 1.226 . S
O125 Cd116 2.356 . S
O125 C123 1.282 . S
C126 O127 1.306 . S
C126 O129 1.160 . S
O127 C126 1.306 . S
O127 Cd128 2.228 1_554 S
Cd128 O127 2.228 1_556 S
Cd128 O132 2.273 1_556 S
Cd128 O136 2.277 . S
O129 C126 1.160 . S
O129 Cd130 2.203 . S
Cd130 O129 2.203 . S
Cd130 O132 2.411 . S
Cd130 O133 2.333 . S
Cd130 O134 2.352 . S
Cd130 O138 2.277 . S
Cd130 O139 2.356 . S
C131 O136 1.209 1_554 S
C131 O138 1.226 . S
O132 Cd128 2.273 1_554 S
O132 Cd130 2.411 . S
O132 C135 1.320 1_554 S
O133 Cd130 2.333 . S
O133 C135 1.214 1_554 S
O134 Cd130 2.352 . S
O134 C137 1.258 . S
C135 O132 1.320 1_556 S
C135 O133 1.214 1_556 S
O136 Cd128 2.277 . S
O136 C131 1.209 1_556 S
C137 O134 1.258 . S
C137 O139 1.282 . S
O138 Cd130 2.277 . S
O138 C131 1.226 . S
O139 Cd130 2.356 . S
O139 C137 1.282 . S
C140 O141 1.306 . S
C140 O143 1.160 . S
O141 C140 1.306 . S
O141 Cd142 2.228 . S
Cd142 O141 2.228 . S
Cd142 O146 2.273 . S
Cd142 O150 2.277 . S
O143 C140 1.160 . S
O143 Cd144 2.203 . S
Cd144 O143 2.203 . S
Cd144 O146 2.411 . S
Cd144 O147 2.333 . S
Cd144 O148 2.352 1_554 S
Cd144 O152 2.277 . S
Cd144 O153 2.356 1_554 S
C145 O150 1.209 1_545 S
C145 O152 1.226 1_545 S
O146 Cd142 2.273 . S
O146 Cd144 2.411 . S
O146 C149 1.320 . S
O147 Cd144 2.333 . S
O147 C149 1.214 . S
O148 Cd144 2.352 1_556 S
O148 C151 1.258 . S
C149 O146 1.320 . S
C149 O147 1.214 . S
O150 Cd142 2.277 . S
O150 C145 1.209 1_565 S
C151 O148 1.258 . S
C151 O153 1.282 . S
O152 Cd144 2.277 . S
O152 C145 1.226 1_565 S
O153 Cd144 2.356 1_556 S
O153 C151 1.282 . S
C154 O155 1.306 . S
C154 O157 1.160 . S
O155 C154 1.306 . S
O155 Cd156 2.228 . S
Cd156 O155 2.228 . S
Cd156 O160 2.273 . S
Cd156 O164 2.277 . S
O157 C154 1.160 . S
O157 Cd158 2.203 . S
Cd158 O157 2.203 . S
Cd158 O160 2.411 . S
Cd158 O161 2.333 . S
Cd158 O162 2.352 1_554 S
Cd158 O166 2.277 . S
Cd158 O167 2.356 1_554 S
C159 O164 1.209 . S
C159 O166 1.226 . S
O160 Cd156 2.273 . S
O160 Cd158 2.411 . S
O160 C163 1.320 . S
O161 Cd158 2.333 . S
O161 C163 1.214 . S
O162 Cd158 2.352 1_556 S
O162 C165 1.258 . S
C163 O160 1.320 . S
C163 O161 1.214 . S
O164 Cd156 2.277 . S
O164 C159 1.209 . S
C165 O162 1.258 . S
C165 O167 1.282 . S
O166 Cd158 2.277 . S
O166 C159 1.226 . S
O167 Cd158 2.356 1_556 S
O167 C165 1.282 . S
C168 O169 1.306 . S
C168 O171 1.160 1_556 S
O169 C168 1.306 . S
O169 Cd170 2.228 . S
Cd170 O169 2.228 . S
Cd170 O174 2.273 . S
Cd170 O178 2.277 . S
O171 C168 1.160 1_554 S
O171 Cd172 2.203 1_554 S
Cd172 O171 2.203 1_556 S
Cd172 O174 2.411 . S
Cd172 O175 2.333 . S
Cd172 O176 2.352 1_556 S
Cd172 O180 2.277 . S
Cd172 O181 2.356 1_556 S
C173 O178 1.209 . S
C173 O180 1.226 . S
O174 Cd170 2.273 . S
O174 Cd172 2.411 . S
O174 C177 1.320 . S
O175 Cd172 2.333 . S
O175 C177 1.214 . S
O176 Cd172 2.352 1_554 S
O176 C179 1.258 . S
C177 O174 1.320 . S
C177 O175 1.214 . S
O178 Cd170 2.277 . S
O178 C173 1.209 . S
C179 O176 1.258 . S
C179 O181 1.282 . S
O180 Cd172 2.277 . S
O180 C173 1.226 . S
O181 Cd172 2.356 1_554 S
O181 C179 1.282 . S
C182 O183 1.306 . S
C182 O185 1.160 . S
O183 C182 1.306 . S
O183 Cd184 2.228 1_556 S
Cd184 O183 2.228 1_554 S
Cd184 O188 2.273 1_554 S
Cd184 O192 2.277 1_554 S
O185 C182 1.160 . S
O185 Cd186 2.203 . S
Cd186 O185 2.203 . S
Cd186 O188 2.411 . S
Cd186 O189 2.333 . S
Cd186 O190 2.352 . S
Cd186 O194 2.277 . S
Cd186 O195 2.356 . S
C187 O192 1.209 . S
C187 O194 1.226 . S
O188 Cd184 2.273 1_556 S
O188 Cd186 2.411 . S
O188 C191 1.320 1_556 S
O189 Cd186 2.333 . S
O189 C191 1.214 1_556 S
O190 Cd186 2.352 . S
O190 C193 1.258 . S
C191 O188 1.320 1_554 S
C191 O189 1.214 1_554 S
O192 Cd184 2.277 1_556 S
O192 C187 1.209 . S
C193 O190 1.258 . S
C193 O195 1.282 . S
O194 Cd186 2.277 . S
O194 C187 1.226 . S
O195 Cd186 2.356 . S
O195 C193 1.282 . S
C196 O197 1.306 . S
C196 O199 1.160 . S
O197 C196 1.306 . S
O197 Cd198 2.228 . S
Cd198 O197 2.228 . S
Cd198 O202 2.273 . S
Cd198 O206 2.277 . S
O199 C196 1.160 . S
O199 Cd200 2.203 . S
Cd200 O199 2.203 . S
Cd200 O202 2.411 . S
Cd200 O203 2.333 . S
Cd200 O204 2.352 . S
Cd200 O208 2.277 . S
Cd200 O209 2.356 . S
C201 O206 1.209 1_455 S
C201 O208 1.226 1_455 S
O202 Cd198 2.273 . S
O202 Cd200 2.411 . S
O202 C205 1.320 . S
O203 Cd200 2.333 . S
O203 C205 1.214 . S
O204 Cd200 2.352 . S
O204 C207 1.258 1_556 S
C205 O202 1.320 . S
C205 O203 1.214 . S
O206 Cd198 2.277 . S
O206 C201 1.209 1_655 S
C207 O204 1.258 1_554 S
C207 O209 1.282 1_554 S
O208 Cd200 2.277 . S
O208 C201 1.226 1_655 S
O209 Cd200 2.356 . S
O209 C207 1.282 1_556 S
C210 O211 1.306 . S
C210 O213 1.160 . S
O211 C210 1.306 . S
O211 Cd212 2.228 . S
Cd212 O211 2.228 . S
Cd212 O216 2.273 . S
Cd212 O220 2.277 . S
O213 C210 1.160 . S
O213 Cd214 2.203 . S
Cd214 O213 2.203 . S
Cd214 O216 2.411 . S
Cd214 O217 2.333 . S
Cd214 O218 2.352 . S
Cd214 O222 2.277 . S
Cd214 O223 2.356 . S
C215 O220 1.209 . S
C215 O222 1.226 . S
O216 Cd212 2.273 . S
O216 Cd214 2.411 . S
O216 C219 1.320 . S
O217 Cd214 2.333 . S
O217 C219 1.214 . S
O218 Cd214 2.352 . S
O218 C221 1.258 . S
C219 O216 1.320 . S
C219 O217 1.214 . S
O220 Cd212 2.277 . S
O220 C215 1.209 . S
C221 O218 1.258 . S
C221 O223 1.282 . S
O222 Cd214 2.277 . S
O222 C215 1.226 . S
O223 Cd214 2.356 . S
O223 C221 1.282 . S
C224 O225 1.306 . S
C224 O227 1.160 1_455 S
O225 C224 1.306 . S
O225 Cd226 2.231 . S
Cd226 O225 2.231 . S
Cd226 O230 2.268 1_455 S
Cd226 O234 2.270 1_455 S
O227 C224 1.160 1_655 S
O227 Cd228 2.203 . S
Cd228 O227 2.203 . S
Cd228 O230 2.411 . S
Cd228 O231 2.333 . S
Cd228 O232 2.352 . S
Cd228 O236 2.277 . S
Cd228 O237 2.356 . S
C229 O234 1.209 . S
C229 O236 1.226 . S
O230 Cd226 2.268 1_655 S
O230 Cd228 2.411 . S
O230 C233 1.320 . S
O231 Cd228 2.333 . S
O231 C233 1.214 . S
O232 Cd228 2.352 . S
O232 C235 1.258 . S
C233 O230 1.320 . S
C233 O231 1.214 . S
O234 Cd226 2.270 1_655 S
O234 C229 1.209 . S
C235 O232 1.258 . S
C235 O237 1.282 . S
O236 Cd228 2.277 . S
O236 C229 1.226 . S
O237 Cd228 2.356 . S
O237 C235 1.282 . S
C238 O239 1.306 . S
C238 O241 1.160 . S
O239 C238 1.306 . S
O239 Cd240 2.228 . S
Cd240 O239 2.228 . S
Cd240 O244 2.273 . S
Cd240 O248 2.277 . S
O241 C238 1.160 . S
O241 Cd242 2.203 . S
Cd242 O241 2.203 . S
Cd242 O244 2.411 . S
Cd242 O245 2.333 . S
Cd242 O246 2.352 . S
Cd242 O250 2.277 . S
Cd242 O251 2.356 . S
C243 O248 1.209 . S
C243 O250 1.226 . S
O244 Cd240 2.273 . S
O244 Cd242 2.411 . S
O244 C247 1.320 . S
O245 Cd242 2.333 . S
O245 C247 1.214 . S
O246 Cd242 2.352 . S
O246 C249 1.258 . S
C247 O244 1.320 . S
C247 O245 1.214 . S
O248 Cd240 2.277 . S
O248 C243 1.209 . S
C249 O246 1.258 . S
C249 O251 1.282 . S
O250 Cd242 2.277 . S
O250 C243 1.226 . S
O251 Cd242 2.356 . S
O251 C249 1.282 . S
H252 C258 0.930 . S
H253 C261 0.930 . S
H254 C262 0.930 . S
H255 C263 0.930 . S
H256 C266 0.930 . S
H257 C267 0.930 . S
C258 H252 0.930 . S
C258 C259 1.355 . S
C258 C260 1.415 1_556 S
C259 C258 1.355 . S
C259 C261 1.419 . S
C260 C258 1.415 1_554 S
C260 C265 1.422 1_554 S
C260 C267 1.409 . S
C261 H253 0.930 . S
C261 C259 1.419 . S
C261 C262 1.362 . S
C262 H254 0.930 . S
C262 C261 1.362 . S
C262 C265 1.420 . S
C263 H255 0.930 . S
C263 C264 1.355 . S
C263 C265 1.407 1_554 S
C264 C263 1.355 . S
C264 C266 1.419 . S
C265 C260 1.422 1_556 S
C265 C262 1.420 . S
C265 C263 1.407 1_556 S
C266 H256 0.930 . S
C266 C264 1.419 . S
C266 C267 1.362 . S
C267 H257 0.930 . S
C267 C260 1.409 . S
C267 C266 1.362 . S
H268 C274 0.930 . S
H269 C277 0.930 . S
H270 C278 0.930 . S
H271 C279 0.930 . S
H272 C282 0.930 . S
H273 C283 0.930 . S
C274 H268 0.930 . S
C274 C275 1.355 . S
C274 C276 1.415 . S
C275 C274 1.355 . S
C275 C277 1.419 . S
C276 C274 1.415 . S
C276 C281 1.425 . S
C276 C283 1.409 1_556 S
C277 H269 0.930 . S
C277 C275 1.419 . S
C277 C278 1.362 . S
C278 H270 0.930 . S
C278 C277 1.362 . S
C278 C281 1.409 . S
C279 H271 0.930 . S
C279 C280 1.355 . S
C279 C281 1.415 1_554 S
C280 C279 1.355 . S
C280 C282 1.419 . S
C281 C276 1.425 . S
C281 C278 1.409 . S
C281 C279 1.415 1_556 S
C282 H272 0.930 . S
C282 C280 1.419 . S
C282 C283 1.362 . S
C283 H273 0.930 . S
C283 C276 1.409 1_554 S
C283 C282 1.362 . S
H284 C290 0.930 . S
H285 C293 0.930 . S
H286 C294 0.930 . S
H287 C295 0.930 . S
H288 C298 0.930 . S
H289 C299 0.930 . S
C290 H284 0.930 . S
C290 C291 1.355 . S
C290 C292 1.415 . S
C291 C290 1.355 . S
C291 C293 1.419 . S
C292 C290 1.415 . S
C292 C297 1.425 . S
C292 C299 1.409 1_554 S
C293 H285 0.930 . S
C293 C291 1.419 . S
C293 C294 1.362 . S
C294 H286 0.930 . S
C294 C293 1.362 . S
C294 C297 1.409 . S
C295 H287 0.930 . S
C295 C296 1.355 . S
C295 C297 1.415 1_556 S
C296 C295 1.355 . S
C296 C298 1.419 . S
C297 C292 1.425 . S
C297 C294 1.409 . S
C297 C295 1.415 1_554 S
C298 H288 0.930 . S
C298 C296 1.419 . S
C298 C299 1.362 . S
C299 H289 0.930 . S
C299 C292 1.409 1_556 S
C299 C298 1.362 . S
H300 C306 0.930 . S
H301 C309 0.930 . S
H302 C310 0.930 . S
H303 C311 0.930 . S
H304 C314 0.930 . S
H305 C315 0.930 . S
C306 H300 0.930 . S
C306 C307 1.355 . S
C306 C308 1.415 . S
C307 C306 1.355 . S
C307 C309 1.419 . S
C308 C306 1.415 . S
C308 C313 1.425 . S
C308 C315 1.409 . S
C309 H301 0.930 . S
C309 C307 1.419 . S
C309 C310 1.362 . S
C310 H302 0.930 . S
C310 C309 1.362 . S
C310 C313 1.409 . S
C311 H303 0.930 . S
C311 C312 1.355 . S
C311 C313 1.415 . S
C312 C311 1.355 . S
C312 C314 1.419 . S
C313 C308 1.425 . S
C313 C310 1.409 . S
C313 C311 1.415 . S
C314 H304 0.930 . S
C314 C312 1.419 . S
C314 C315 1.362 . S
C315 H305 0.930 . S
C315 C308 1.409 . S
C315 C314 1.362 . S
H316 C322 0.930 . S
H317 C325 0.930 . S
H318 C326 0.930 . S
H319 C327 0.930 . S
H320 C330 0.930 . S
H321 C331 0.930 . S
C322 H316 0.930 . S
C322 C323 1.355 . S
C322 C324 1.415 . S
C323 C322 1.355 . S
C323 C325 1.419 . S
C324 C322 1.415 . S
C324 C329 1.425 . S
C324 C331 1.409 . S
C325 H317 0.930 . S
C325 C323 1.419 . S
C325 C326 1.362 . S
C326 H318 0.930 . S
C326 C325 1.362 . S
C326 C329 1.409 . S
C327 H319 0.930 . S
C327 C328 1.355 . S
C327 C329 1.415 . S
C328 C327 1.355 . S
C328 C330 1.419 . S
C329 C324 1.425 . S
C329 C326 1.409 . S
C329 C327 1.415 . S
C330 H320 0.930 . S
C330 C328 1.419 . S
C330 C331 1.362 . S
C331 H321 0.930 . S
C331 C324 1.409 . S
C331 C330 1.362 . S
H332 C338 0.930 . S
H333 C341 0.930 . S
H334 C342 0.930 . S
H335 C343 0.930 . S
H336 C346 0.930 . S
H337 C347 0.930 . S
C338 H332 0.930 . S
C338 C339 1.355 . S
C338 C340 1.415 . S
C339 C338 1.355 . S
C339 C341 1.419 . S
C340 C338 1.415 . S
C340 C345 1.425 . S
C340 C347 1.409 . S
C341 H333 0.930 . S
C341 C339 1.419 . S
C341 C342 1.362 . S
C342 H334 0.930 . S
C342 C341 1.362 . S
C342 C345 1.409 . S
C343 H335 0.930 . S
C343 C344 1.355 . S
C343 C345 1.415 . S
C344 C343 1.355 . S
C344 C346 1.419 . S
C345 C340 1.425 . S
C345 C342 1.409 . S
C345 C343 1.415 . S
C346 H336 0.930 . S
C346 C344 1.419 . S
C346 C347 1.362 . S
C347 H337 0.930 . S
C347 C340 1.409 . S
C347 C346 1.362 . S
H348 C354 0.930 . S
H349 C357 0.930 . S
H350 C358 0.930 . S
H351 C359 0.930 . S
H352 C362 0.930 . S
H353 C363 0.930 . S
C354 H348 0.930 . S
C354 C355 1.355 . S
C354 C356 1.415 . S
C355 C354 1.355 . S
C355 C357 1.419 . S
C356 C354 1.415 . S
C356 C361 1.425 . S
C356 C363 1.409 . S
C357 H349 0.930 . S
C357 C355 1.419 . S
C357 C358 1.362 . S
C358 H350 0.930 . S
C358 C357 1.362 . S
C358 C361 1.409 . S
C359 H351 0.930 . S
C359 C360 1.355 . S
C359 C361 1.415 . S
C360 C359 1.355 . S
C360 C362 1.419 . S
C361 C356 1.425 . S
C361 C358 1.409 . S
C361 C359 1.415 . S
C362 H352 0.930 . S
C362 C360 1.419 . S
C362 C363 1.362 . S
C363 H353 0.930 . S
C363 C356 1.409 . S
C363 C362 1.362 . S
H364 C370 0.930 . S
H365 C373 0.930 . S
H366 C374 0.930 . S
H367 C375 0.930 . S
H368 C378 0.930 . S
H369 C379 0.930 . S
C370 H364 0.930 . S
C370 C371 1.355 . S
C370 C372 1.415 . S
C371 C370 1.355 . S
C371 C373 1.419 . S
C372 C370 1.415 . S
C372 C377 1.425 . S
C372 C379 1.409 . S
C373 H365 0.930 . S
C373 C371 1.419 . S
C373 C374 1.362 . S
C374 H366 0.930 . S
C374 C373 1.362 . S
C374 C377 1.409 . S
C375 H367 0.930 . S
C375 C376 1.355 . S
C375 C377 1.415 . S
C376 C375 1.355 . S
C376 C378 1.419 . S
C377 C372 1.425 . S
C377 C374 1.409 . S
C377 C375 1.415 . S
C378 H368 0.930 . S
C378 C376 1.419 . S
C378 C379 1.362 . S
C379 H369 0.930 . S
C379 C372 1.409 . S
C379 C378 1.362 . S
H380 C386 0.930 . S
H381 C389 0.930 . S
H382 C390 0.930 . S
H383 C391 0.930 . S
H384 C394 0.930 . S
H385 C395 0.930 . S
C386 H380 0.930 . S
C386 C387 1.355 . S
C386 C388 1.415 . S
C387 C386 1.355 . S
C387 C389 1.419 . S
C388 C386 1.415 . S
C388 C393 1.425 . S
C388 C395 1.409 . S
C389 H381 0.930 . S
C389 C387 1.419 . S
C389 C390 1.362 . S
C390 H382 0.930 . S
C390 C389 1.362 . S
C390 C393 1.409 . S
C391 H383 0.930 . S
C391 C392 1.355 . S
C391 C393 1.415 . S
C392 C391 1.355 . S
C392 C394 1.419 . S
C393 C388 1.425 . S
C393 C390 1.409 . S
C393 C391 1.415 . S
C394 H384 0.930 . S
C394 C392 1.419 . S
C394 C395 1.362 . S
C395 H385 0.930 . S
C395 C388 1.409 . S
C395 C394 1.362 . S
H396 C402 0.930 . S
H397 C405 0.930 . S
H398 C406 0.930 . S
H399 C407 0.930 . S
H400 C410 0.930 . S
H401 C411 0.930 . S
C402 H396 0.930 . S
C402 C403 1.355 . S
C402 C404 1.415 . S
C403 C402 1.355 . S
C403 C405 1.419 . S
C404 C402 1.415 . S
C404 C409 1.425 . S
C404 C411 1.409 . S
C405 H397 0.930 . S
C405 C403 1.419 . S
C405 C406 1.362 . S
C406 H398 0.930 . S
C406 C405 1.362 . S
C406 C409 1.409 . S
C407 H399 0.930 . S
C407 C408 1.355 . S
C407 C409 1.415 . S
C408 C407 1.355 . S
C408 C410 1.419 . S
C409 C404 1.425 . S
C409 C406 1.409 . S
C409 C407 1.415 . S
C410 H400 0.930 . S
C410 C408 1.419 . S
C410 C411 1.362 . S
C411 H401 0.930 . S
C411 C404 1.409 . S
C411 C410 1.362 . S
H412 C418 0.930 . S
H413 C421 0.930 . S
H414 C422 0.930 . S
H415 C423 0.930 . S
H416 C426 0.930 . S
H417 C427 0.930 . S
C418 H412 0.930 . S
C418 C419 1.355 . S
C418 C420 1.415 . S
C419 C418 1.355 . S
C419 C421 1.419 . S
C420 C418 1.415 . S
C420 C425 1.425 . S
C420 C427 1.409 . S
C421 H413 0.930 . S
C421 C419 1.419 . S
C421 C422 1.362 . S
C422 H414 0.930 . S
C422 C421 1.362 . S
C422 C425 1.409 . S
C423 H415 0.930 . S
C423 C424 1.355 . S
C423 C425 1.415 . S
C424 C423 1.355 . S
C424 C426 1.419 . S
C425 C420 1.425 . S
C425 C422 1.409 . S
C425 C423 1.415 . S
C426 H416 0.930 . S
C426 C424 1.419 . S
C426 C427 1.362 . S
C427 H417 0.930 . S
C427 C420 1.409 . S
C427 C426 1.362 . S
H428 C434 0.930 . S
H429 C437 0.930 . S
H430 C438 0.930 . S
H431 C439 0.930 . S
H432 C442 0.930 . S
H433 C443 0.930 . S
C434 H428 0.930 . S
C434 C435 1.355 . S
C434 C436 1.415 . S
C435 C434 1.355 . S
C435 C437 1.419 . S
C436 C434 1.415 . S
C436 C441 1.425 . S
C436 C443 1.409 . S
C437 H429 0.930 . S
C437 C435 1.419 . S
C437 C438 1.362 . S
C438 H430 0.930 . S
C438 C437 1.362 . S
C438 C441 1.409 . S
C439 H431 0.930 . S
C439 C440 1.355 . S
C439 C441 1.415 . S
C440 C439 1.355 . S
C440 C442 1.419 . S
C441 C436 1.425 . S
C441 C438 1.409 . S
C441 C439 1.415 . S
C442 H432 0.930 . S
C442 C440 1.419 . S
C442 C443 1.362 . S
C443 H433 0.930 . S
C443 C436 1.409 . S
C443 C442 1.362 . S
H444 C450 0.930 . S
H445 C453 0.930 . S
H446 C454 0.930 . S
H447 C455 0.930 . S
H448 C458 0.930 . S
H449 C459 0.930 . S
C450 H444 0.930 . S
C450 C451 1.355 . S
C450 C452 1.415 . S
C451 C450 1.355 . S
C451 C453 1.419 . S
C452 C450 1.415 . S
C452 C457 1.425 . S
C452 C459 1.409 . S
C453 H445 0.930 . S
C453 C451 1.419 . S
C453 C454 1.362 . S
C454 H446 0.930 . S
C454 C453 1.362 . S
C454 C457 1.409 . S
C455 H447 0.930 . S
C455 C456 1.355 . S
C455 C457 1.415 . S
C456 C455 1.355 . S
C456 C458 1.419 . S
C457 C452 1.425 . S
C457 C454 1.409 . S
C457 C455 1.415 . S
C458 H448 0.930 . S
C458 C456 1.419 . S
C458 C459 1.362 . S
C459 H449 0.930 . S
C459 C452 1.409 . S
C459 C458 1.362 . S
H460 C466 0.930 . S
H461 C469 0.930 . S
H462 C470 0.930 . S
H463 C471 0.930 . S
H464 C474 0.930 . S
H465 C475 0.930 . S
C466 H460 0.930 . S
C466 C467 1.355 . S
C466 C468 1.415 . S
C467 C466 1.355 . S
C467 C469 1.419 . S
C468 C466 1.415 . S
C468 C473 1.425 . S
C468 C475 1.409 . S
C469 H461 0.930 . S
C469 C467 1.419 . S
C469 C470 1.362 . S
C470 H462 0.930 . S
C470 C469 1.362 . S
C470 C473 1.409 . S
C471 H463 0.930 . S
C471 C472 1.355 . S
C471 C473 1.415 . S
C472 C471 1.355 . S
C472 C474 1.419 . S
C473 C468 1.425 . S
C473 C470 1.409 . S
C473 C471 1.415 . S
C474 H464 0.930 . S
C474 C472 1.419 . S
C474 C475 1.362 . S
C475 H465 0.930 . S
C475 C468 1.409 . S
C475 C474 1.362 . S
H476 C482 0.930 . S
H477 C485 0.930 . S
H478 C486 0.930 . S
H479 C487 0.930 . S
H480 C490 0.930 . S
H481 C491 0.930 . S
C482 H476 0.930 . S
C482 C483 1.355 . S
C482 C484 1.415 . S
C483 C482 1.355 . S
C483 C485 1.419 . S
C484 C482 1.415 . S
C484 C489 1.425 . S
C484 C491 1.409 . S
C485 H477 0.930 . S
C485 C483 1.419 . S
C485 C486 1.362 . S
C486 H478 0.930 . S
C486 C485 1.362 . S
C486 C489 1.409 . S
C487 H479 0.930 . S
C487 C488 1.355 . S
C487 C489 1.415 . S
C488 C487 1.355 . S
C488 C490 1.419 . S
C489 C484 1.425 . S
C489 C486 1.409 . S
C489 C487 1.415 . S
C490 H480 0.930 . S
C490 C488 1.419 . S
C490 C491 1.362 . S
C491 H481 0.930 . S
C491 C484 1.409 . S
C491 C490 1.362 . S
H492 C498 0.930 . S
H493 C501 0.930 . S
H494 C502 0.930 . S
H495 C503 0.930 . S
H496 C506 0.930 . S
H497 C507 0.930 . S
C498 H492 0.930 . S
C498 C499 1.355 . S
C498 C500 1.415 . S
C499 C498 1.355 . S
C499 C501 1.419 . S
C500 C498 1.415 . S
C500 C505 1.425 . S
C500 C507 1.409 . S
C501 H493 0.930 . S
C501 C499 1.419 . S
C501 C502 1.362 . S
C502 H494 0.930 . S
C502 C501 1.362 . S
C502 C505 1.409 . S
C503 H495 0.930 . S
C503 C504 1.355 . S
C503 C505 1.415 . S
C504 C503 1.355 . S
C504 C506 1.419 . S
C505 C500 1.425 . S
C505 C502 1.409 . S
C505 C503 1.415 . S
C506 H496 0.930 . S
C506 C504 1.419 . S
C506 C507 1.362 . S
C507 H497 0.930 . S
C507 C500 1.409 . S
C507 C506 1.362 . S
H508 C514 0.930 . S
H509 C517 0.930 . S
H510 C518 0.930 . S
H511 C519 0.930 . S
H512 C522 0.930 . S
H513 C523 0.930 . S
C514 H508 0.930 . S
C514 C515 1.355 . S
C514 C516 1.415 . S
C515 C514 1.355 . S
C515 C517 1.419 . S
C516 C514 1.415 . S
C516 C521 1.425 . S
C516 C523 1.409 . S
C517 H509 0.930 . S
C517 C515 1.419 . S
C517 C518 1.362 . S
C518 H510 0.930 . S
C518 C517 1.362 . S
C518 C521 1.409 . S
C519 H511 0.930 . S
C519 C520 1.355 . S
C519 C521 1.415 . S
C520 C519 1.355 . S
C520 C522 1.419 . S
C521 C516 1.425 . S
C521 C518 1.409 . S
C521 C519 1.415 . S
C522 H512 0.930 . S
C522 C520 1.419 . S
C522 C523 1.362 . S
C523 H513 0.930 . S
C523 C516 1.409 . S
C523 C522 1.362 . S
H524 C530 0.930 . S
H525 C533 0.930 . S
H526 C534 0.930 . S
H527 C535 0.930 . S
H528 C538 0.930 1_556 S
H529 C539 0.930 . S
C530 H524 0.930 . S
C530 C531 1.355 . S
C530 C532 1.415 . S
C531 C530 1.355 . S
C531 C533 1.419 . S
C532 C530 1.415 . S
C532 C537 1.425 . S
C532 C539 1.409 . S
C533 H525 0.930 . S
C533 C531 1.419 . S
C533 C534 1.362 . S
C534 H526 0.930 . S
C534 C533 1.362 . S
C534 C537 1.409 . S
C535 H527 0.930 . S
C535 C536 1.355 . S
C535 C537 1.415 . S
C536 C535 1.355 . S
C536 C538 1.419 . S
C537 C532 1.425 . S
C537 C534 1.409 . S
C537 C535 1.415 . S
C538 H528 0.930 1_554 S
C538 C536 1.419 . S
C538 C539 1.362 . S
C539 H529 0.930 . S
C539 C532 1.409 . S
C539 C538 1.362 . S
H540 C546 0.930 . S
H541 C549 0.930 . S
H542 C550 0.930 . S
H543 C551 0.930 . S
H544 C554 0.930 . S
H545 C555 0.930 . S
C546 H540 0.930 . S
C546 C547 1.355 . S
C546 C548 1.415 . S
C547 C546 1.355 . S
C547 C549 1.419 . S
C548 C546 1.415 . S
C548 C553 1.425 . S
C548 C555 1.409 . S
C549 H541 0.930 . S
C549 C547 1.419 . S
C549 C550 1.362 . S
C550 H542 0.930 . S
C550 C549 1.362 . S
C550 C553 1.409 . S
C551 H543 0.930 . S
C551 C552 1.355 . S
C551 C553 1.415 . S
C552 C551 1.355 . S
C552 C554 1.419 . S
C553 C548 1.425 . S
C553 C550 1.409 . S
C553 C551 1.415 . S
C554 H544 0.930 . S
C554 C552 1.419 . S
C554 C555 1.362 . S
C555 H545 0.930 . S
C555 C548 1.409 . S
C555 C554 1.362 . S
H556 C562 0.930 . S
H557 C565 0.930 . S
H558 C566 0.930 . S
H559 C567 0.930 . S
H560 C570 0.930 . S
H561 C571 0.930 . S
C562 H556 0.930 . S
C562 C563 1.355 . S
C562 C564 1.415 . S
C563 C562 1.355 . S
C563 C565 1.419 . S
C564 C562 1.415 . S
C564 C569 1.425 . S
C564 C571 1.409 . S
C565 H557 0.930 . S
C565 C563 1.419 . S
C565 C566 1.362 . S
C566 H558 0.930 . S
C566 C565 1.362 . S
C566 C569 1.409 . S
C567 H559 0.930 . S
C567 C568 1.355 . S
C567 C569 1.415 . S
C568 C567 1.355 . S
C568 C570 1.419 . S
C569 C564 1.425 . S
C569 C566 1.409 . S
C569 C567 1.415 . S
C570 H560 0.930 . S
C570 C568 1.419 . S
C570 C571 1.362 . S
C571 H561 0.930 . S
C571 C564 1.409 . S
C571 C570 1.362 . S
H572 C578 0.930 . S
H573 C581 0.937 1_545 S
H574 C582 0.930 . S
H575 C583 0.930 . S
H576 C586 0.930 . S
H577 C587 0.930 . S
C578 H572 0.930 . S
C578 C579 1.355 . S
C578 C580 1.415 . S
C579 C578 1.355 . S
C579 C581 1.447 . S
C580 C578 1.415 . S
C580 C585 1.425 1_565 S
C580 C587 1.409 . S
C581 H573 0.937 1_565 S
C581 C579 1.447 . S
C581 C582 1.329 1_565 S
C582 H574 0.930 . S
C582 C581 1.329 1_545 S
C582 C585 1.409 . S
C583 H575 0.930 . S
C583 C584 1.355 . S
C583 C585 1.415 . S
C584 C583 1.355 . S
C584 C586 1.419 1_545 S
C585 C580 1.425 1_545 S
C585 C582 1.409 . S
C585 C583 1.415 . S
C586 H576 0.930 . S
C586 C584 1.419 1_565 S
C586 C587 1.362 . S
C587 H577 0.930 . S
C587 C580 1.409 . S
C587 C586 1.362 . S
H588 C594 0.930 . S
H589 C597 0.930 . S
H590 C598 0.930 . S
H591 C599 0.930 . S
H592 C602 0.930 1_556 S
H593 C603 0.930 . S
C594 H588 0.930 . S
C594 C595 1.355 . S
C594 C596 1.415 . S
C595 C594 1.355 . S
C595 C597 1.419 . S
C596 C594 1.415 . S
C596 C601 1.425 . S
C596 C603 1.409 . S
C597 H589 0.930 . S
C597 C595 1.419 . S
C597 C598 1.362 . S
C598 H590 0.930 . S
C598 C597 1.362 . S
C598 C601 1.409 . S
C599 H591 0.930 . S
C599 C600 1.355 . S
C599 C601 1.415 . S
C600 C599 1.355 . S
C600 C602 1.419 . S
C601 C596 1.425 . S
C601 C598 1.409 . S
C601 C599 1.415 . S
C602 H592 0.930 1_554 S
C602 C600 1.419 . S
C602 C603 1.362 . S
C603 H593 0.930 . S
C603 C596 1.409 . S
C603 C602 1.362 . S
H604 C610 0.930 . S
H605 C613 0.930 . S
H606 C614 0.930 . S
H607 C615 0.930 . S
H608 C618 0.930 . S
H609 C619 0.930 . S
C610 H604 0.930 . S
C610 C611 1.355 1_554 S
C610 C612 1.415 . S
C611 C610 1.355 1_556 S
C611 C613 1.419 1_655 S
C612 C610 1.415 . S
C612 C617 1.425 1_655 S
C612 C619 1.409 . S
C613 H605 0.930 . S
C613 C611 1.419 1_455 S
C613 C614 1.362 . S
C614 H606 0.930 . S
C614 C613 1.362 . S
C614 C617 1.409 1_556 S
C615 H607 0.930 . S
C615 C616 1.355 . S
C615 C617 1.415 . S
C616 C615 1.355 . S
C616 C618 1.419 1_455 S
C617 C612 1.425 1_455 S
C617 C614 1.409 1_554 S
C617 C615 1.415 . S
C618 H608 0.930 . S
C618 C616 1.419 1_655 S
C618 C619 1.362 . S
C619 H609 0.930 . S
C619 C612 1.409 . S
C619 C618 1.362 . S
H620 C626 0.930 . S
H621 C629 0.930 . S
H622 C630 0.930 . S
H623 C631 0.930 . S
H624 C634 0.930 . S
H625 C635 0.930 . S
C626 H620 0.930 . S
C626 C627 1.355 . S
C626 C628 1.415 . S
C627 C626 1.355 . S
C627 C629 1.419 1_554 S
C628 C626 1.415 . S
C628 C633 1.425 . S
C628 C635 1.409 . S
C629 H621 0.930 . S
C629 C627 1.419 1_556 S
C629 C630 1.362 1_556 S
C630 H622 0.930 . S
C630 C629 1.362 1_554 S
C630 C633 1.409 . S
C631 H623 0.930 . S
C631 C632 1.355 . S
C631 C633 1.415 . S
C632 C631 1.355 . S
C632 C634 1.419 . S
C633 C628 1.425 . S
C633 C630 1.409 . S
C633 C631 1.415 . S
C634 H624 0.930 . S
C634 C632 1.419 . S
C634 C635 1.362 . S
C635 H625 0.930 . S
C635 C628 1.409 . S
C635 C634 1.362 . S
H636 C642 0.930 . S
H637 C645 0.930 . S
H638 C646 0.930 . S
H639 C647 0.930 . S
H640 C650 0.930 . S
H641 C651 0.930 . S
C642 H636 0.930 . S
C642 C643 1.355 . S
C642 C644 1.415 . S
C643 C642 1.355 . S
C643 C645 1.419 1_655 S
C644 C642 1.415 . S
C644 C649 1.425 1_655 S
C644 C651 1.409 . S
C645 H637 0.930 . S
C645 C643 1.419 1_455 S
C645 C646 1.362 . S
C646 H638 0.930 . S
C646 C645 1.362 . S
C646 C649 1.409 . S
C647 H639 0.930 . S
C647 C648 1.355 . S
C647 C649 1.415 . S
C648 C647 1.355 . S
C648 C650 1.419 1_455 S
C649 C644 1.425 1_455 S
C649 C646 1.409 . S
C649 C647 1.415 . S
C650 H640 0.930 . S
C650 C648 1.419 1_655 S
C650 C651 1.362 . S
C651 H641 0.930 . S
C651 C644 1.409 . S
C651 C650 1.362 . S
H652 C658 0.930 . S
H653 C661 0.930 . S
H654 C662 0.930 . S
H655 C663 0.930 . S
H656 C666 0.930 . S
H657 C667 0.930 . S
C658 H652 0.930 . S
C658 C659 1.355 . S
C658 C660 1.415 . S
C659 C658 1.355 . S
C659 C661 1.419 . S
C660 C658 1.415 . S
C660 C665 1.425 . S
C660 C667 1.409 . S
C661 H653 0.930 . S
C661 C659 1.419 . S
C661 C662 1.362 . S
C662 H654 0.930 . S
C662 C661 1.362 . S
C662 C665 1.409 . S
C663 H655 0.930 . S
C663 C664 1.355 . S
C663 C665 1.415 . S
C664 C663 1.355 . S
C664 C666 1.419 . S
C665 C660 1.425 . S
C665 C662 1.409 . S
C665 C663 1.415 . S
C666 H656 0.930 . S
C666 C664 1.419 . S
C666 C667 1.362 . S
C667 H657 0.930 . S
C667 C660 1.409 . S
C667 C666 1.362 . S
H668 C674 0.930 . S
H669 C677 0.930 . S
H670 C678 0.930 . S
H671 C679 0.930 . S
H672 C682 0.930 . S
H673 C683 0.930 . S
C674 H668 0.930 . S
C674 C675 1.355 . S
C674 C676 1.415 . S
C675 C674 1.355 . S
C675 C677 1.419 . S
C676 C674 1.415 . S
C676 C681 1.425 . S
C676 C683 1.409 . S
C677 H669 0.930 . S
C677 C675 1.419 . S
C677 C678 1.362 . S
C678 H670 0.930 . S
C678 C677 1.362 . S
C678 C681 1.409 . S
C679 H671 0.930 . S
C679 C680 1.355 . S
C679 C681 1.415 . S
C680 C679 1.355 . S
C680 C682 1.419 . S
C681 C676 1.425 . S
C681 C678 1.409 . S
C681 C679 1.415 . S
C682 H672 0.930 . S
C682 C680 1.419 . S
C682 C683 1.362 . S
C683 H673 0.930 . S
C683 C676 1.409 . S
C683 C682 1.362 . S
H684 C690 0.930 . S
H685 C693 0.930 1_554 S
H686 C694 0.930 . S
H687 C695 0.930 . S
H688 C698 0.930 . S
H689 C699 0.930 . S
C690 H684 0.930 . S
C690 C691 1.355 1_556 S
C690 C692 1.415 . S
C691 C690 1.355 1_554 S
C691 C693 1.419 1_564 S
C692 C690 1.415 . S
C692 C697 1.425 1_565 S
C692 C699 1.409 . S
C693 H685 0.930 1_556 S
C693 C691 1.419 1_546 S
C693 C694 1.362 . S
C694 H686 0.930 . S
C694 C693 1.362 . S
C694 C697 1.409 . S
C695 H687 0.930 . S
C695 C696 1.355 . S
C695 C697 1.415 . S
C696 C695 1.355 . S
C696 C698 1.419 1_545 S
C697 C692 1.425 1_545 S
C697 C694 1.409 . S
C697 C695 1.415 . S
C698 H688 0.930 . S
C698 C696 1.419 1_565 S
C698 C699 1.362 . S
C699 H689 0.930 . S
C699 C692 1.409 . S
C699 C698 1.362 . S
H700 C706 0.930 . S
H701 C709 0.930 . S
H702 C710 0.930 . S
H703 C711 0.930 . S
H704 C714 0.930 . S
H705 C715 0.930 . S
C706 H700 0.930 . S
C706 C707 1.355 . S
C706 C708 1.415 . S
C707 C706 1.355 . S
C707 C709 1.419 . S
C708 C706 1.415 . S
C708 C713 1.425 . S
C708 C715 1.409 . S
C709 H701 0.930 . S
C709 C707 1.419 . S
C709 C710 1.362 . S
C710 H702 0.930 . S
C710 C709 1.362 . S
C710 C713 1.409 . S
C711 H703 0.930 . S
C711 C712 1.355 . S
C711 C713 1.415 . S
C712 C711 1.355 . S
C712 C714 1.419 . S
C713 C708 1.425 . S
C713 C710 1.409 . S
C713 C711 1.415 . S
C714 H704 0.930 . S
C714 C712 1.419 . S
C714 C715 1.362 . S
C715 H705 0.930 . S
C715 C708 1.409 . S
C715 C714 1.362 . S
H716 C722 0.930 . S
H717 C725 0.930 . S
H718 C726 0.930 . S
H719 C727 0.930 . S
H720 C730 0.930 . S
H721 C731 0.930 . S
C722 H716 0.930 . S
C722 C723 1.355 . S
C722 C724 1.415 . S
C723 C722 1.355 . S
C723 C725 1.419 . S
C724 C722 1.415 . S
C724 C729 1.425 . S
C724 C731 1.409 . S
C725 H717 0.930 . S
C725 C723 1.419 . S
C725 C726 1.362 . S
C726 H718 0.930 . S
C726 C725 1.362 . S
C726 C729 1.409 . S
C727 H719 0.930 . S
C727 C728 1.355 . S
C727 C729 1.415 . S
C728 C727 1.355 . S
C728 C730 1.419 . S
C729 C724 1.425 . S
C729 C726 1.409 . S
C729 C727 1.415 . S
C730 H720 0.930 . S
C730 C728 1.419 . S
C730 C731 1.362 . S
C731 H721 0.930 . S
C731 C724 1.409 . S
C731 C730 1.362 . S
H732 C738 0.930 . S
H733 C741 0.930 . S
H734 C742 0.930 . S
H735 C743 0.930 . S
H736 C746 0.930 . S
H737 C747 0.930 . S
C738 H732 0.930 . S
C738 C739 1.355 . S
C738 C740 1.415 . S
C739 C738 1.355 . S
C739 C741 1.419 . S
C740 C738 1.415 . S
C740 C745 1.425 . S
C740 C747 1.409 . S
C741 H733 0.930 . S
C741 C739 1.419 . S
C741 C742 1.362 . S
C742 H734 0.930 . S
C742 C741 1.362 . S
C742 C745 1.409 . S
C743 H735 0.930 . S
C743 C744 1.355 . S
C743 C745 1.415 . S
C744 C743 1.355 . S
C744 C746 1.419 . S
C745 C740 1.425 . S
C745 C742 1.409 . S
C745 C743 1.415 . S
C746 H736 0.930 . S
C746 C744 1.419 . S
C746 C747 1.362 . S
C747 H737 0.930 . S
C747 C740 1.409 . S
C747 C746 1.362 . S
H748 C754 0.930 . S
H749 C757 0.930 . S
H750 C758 0.930 . S
H751 C759 0.930 . S
H752 C762 0.930 . S
H753 C763 0.930 . S
C754 H748 0.930 . S
C754 C755 1.355 . S
C754 C756 1.415 . S
C755 C754 1.355 . S
C755 C757 1.419 . S
C756 C754 1.415 . S
C756 C761 1.425 . S
C756 C763 1.409 . S
C757 H749 0.930 . S
C757 C755 1.419 . S
C757 C758 1.362 . S
C758 H750 0.930 . S
C758 C757 1.362 . S
C758 C761 1.409 . S
C759 H751 0.930 . S
C759 C760 1.355 . S
C759 C761 1.415 . S
C760 C759 1.355 . S
C760 C762 1.419 . S
C761 C756 1.425 . S
C761 C758 1.409 . S
C761 C759 1.415 . S
C762 H752 0.930 . S
C762 C760 1.419 . S
C762 C763 1.362 . S
C763 H753 0.930 . S
C763 C756 1.409 . S
C763 C762 1.362 . S
H764 C770 0.930 . S
H765 C773 0.930 . S
H766 C774 0.930 . S
H767 C775 0.930 . S
H768 C778 0.930 . S
H769 C779 0.930 . S
C770 H764 0.930 . S
C770 C771 1.355 . S
C770 C772 1.415 . S
C771 C770 1.355 . S
C771 C773 1.419 . S
C772 C770 1.415 . S
C772 C777 1.425 . S
C772 C779 1.409 . S
C773 H765 0.930 . S
C773 C771 1.419 . S
C773 C774 1.362 . S
C774 H766 0.930 . S
C774 C773 1.362 . S
C774 C777 1.409 . S
C775 H767 0.930 . S
C775 C776 1.355 . S
C775 C777 1.415 . S
C776 C775 1.355 . S
C776 C778 1.419 . S
C777 C772 1.425 . S
C777 C774 1.409 . S
C777 C775 1.415 . S
C778 H768 0.930 . S
C778 C776 1.419 . S
C778 C779 1.362 . S
C779 H769 0.930 . S
C779 C772 1.409 . S
C779 C778 1.362 . S
H780 C786 0.930 . S
H781 C789 0.930 . S
H782 C790 0.930 . S
H783 C791 0.930 . S
H784 C794 0.930 . S
H785 C795 0.930 . S
C786 H780 0.930 . S
C786 C787 1.355 . S
C786 C788 1.415 . S
C787 C786 1.355 . S
C787 C789 1.419 . S
C788 C786 1.415 . S
C788 C793 1.425 . S
C788 C795 1.409 . S
C789 H781 0.930 . S
C789 C787 1.419 . S
C789 C790 1.362 . S
C790 H782 0.930 . S
C790 C789 1.362 . S
C790 C793 1.409 . S
C791 H783 0.930 . S
C791 C792 1.355 . S
C791 C793 1.415 . S
C792 C791 1.355 . S
C792 C794 1.419 . S
C793 C788 1.425 . S
C793 C790 1.409 . S
C793 C791 1.415 . S
C794 H784 0.930 . S
C794 C792 1.419 . S
C794 C795 1.362 . S
C795 H785 0.930 . S
C795 C788 1.409 . S
C795 C794 1.362 . S
H796 C802 0.930 . S
H797 C805 0.930 . S
H798 C806 0.930 . S
H799 C807 0.930 . S
H800 C810 0.930 . S
H801 C811 0.930 . S
C802 H796 0.930 . S
C802 C803 1.355 . S
C802 C804 1.415 . S
C803 C802 1.355 . S
C803 C805 1.419 . S
C804 C802 1.415 . S
C804 C809 1.425 . S
C804 C811 1.409 . S
C805 H797 0.930 . S
C805 C803 1.419 . S
C805 C806 1.362 . S
C806 H798 0.930 . S
C806 C805 1.362 . S
C806 C809 1.409 . S
C807 H799 0.930 . S
C807 C808 1.355 . S
C807 C809 1.415 . S
C808 C807 1.355 . S
C808 C810 1.419 . S
C809 C804 1.425 . S
C809 C806 1.409 . S
C809 C807 1.415 . S
C810 H800 0.930 . S
C810 C808 1.419 . S
C810 C811 1.362 . S
C811 H801 0.930 . S
C811 C804 1.409 . S
C811 C810 1.362 . S
H812 C818 0.930 . S
H813 C821 0.930 . S
H814 C822 0.930 . S
H815 C823 0.930 . S
H816 C826 0.930 . S
H817 C827 0.930 . S
C818 H812 0.930 . S
C818 C819 1.355 . S
C818 C820 1.415 . S
C819 C818 1.355 . S
C819 C821 1.419 . S
C820 C818 1.415 . S
C820 C825 1.425 . S
C820 C827 1.409 . S
C821 H813 0.930 . S
C821 C819 1.419 . S
C821 C822 1.362 . S
C822 H814 0.930 . S
C822 C821 1.362 . S
C822 C825 1.409 . S
C823 H815 0.930 . S
C823 C824 1.355 . S
C823 C825 1.415 . S
C824 C823 1.355 . S
C824 C826 1.419 . S
C825 C820 1.425 . S
C825 C822 1.409 . S
C825 C823 1.415 . S
C826 H816 0.930 . S
C826 C824 1.419 . S
C826 C827 1.362 . S
C827 H817 0.930 . S
C827 C820 1.409 . S
C827 C826 1.362 . S
C259 C53 1.391 . S
C264 C9 1.346 . S
C275 C65 1.400 . S
C280 C25 1.422 . S
C291 C37 1.382 . S
C296 C79 1.380 . S
C307 C39 1.343 . S
C312 C81 1.343 . S
C323 C11 1.323 . S
C328 C51 1.278 . S
C339 C67 1.365 . S
C344 C23 1.349 . S
C355 C137 1.295 . S
C360 C95 1.295 . S
C371 C109 1.337 . S
C376 C149 1.313 . S
C387 C123 1.298 . S
C392 C163 1.251 . S
C403 C165 1.433 . S
C408 C121 1.389 . S
C419 C135 1.448 . S
C424 C93 1.447 . S
C435 C151 1.436 . S
C440 C107 1.393 . S
C451 C177 1.407 . S
C456 C221 1.425 . S
C467 C193 1.417 . S
C472 C233 1.374 . S
C483 C205 1.358 . S
C488 C247 1.361 . S
C499 C249 1.326 . S
C504 C207 1.326 . S
C515 C219 1.301 . S
C520 C179 1.333 . S
C531 C235 1.363 . S
C536 C191 1.328 . S
C547 C0 1.310 . S
C552 C98 1.285 . S
C563 C19 1.307 . S
C568 C112 1.347 . S
C579 C84 1.276 . S
C584 C28 1.314 . S
C595 C33 1.317 . S
C600 C187 1.347 1_554 S
C611 C196 1.283 . S
C616 C5 1.320 . S
C627 C168 1.247 1_554 S
C632 C14 1.277 . S
C643 C229 1.336 . S
C648 C47 1.346 . S
C659 C56 1.304 . S
C664 C243 1.309 . S
C675 C210 1.278 . S
C680 C70 1.251 . S
C691 C140 1.255 . S
C696 C75 1.290 . S
C707 C42 1.215 . S
C712 C154 1.251 1_556 S
C723 C61 1.311 . S
C728 C131 1.283 1_556 S
C739 C89 1.287 1_545 S
C744 C182 1.259 . S
C755 C103 1.320 . S
C760 C201 1.304 . S
C771 C117 1.320 . S
C776 C173 1.295 . S
C787 C224 1.323 . S
C792 C159 1.347 . S
C803 C238 1.307 . S
C808 C126 1.286 . S
C819 C145 1.373 . S
C824 C215 1.368 . S
