# Generated by pormake.
# Topology umx, (4)-cn, num edge types: 1
# Building blocks:
#     Node 0, Type 0, BuildingBlock: QUQFOY_clean_sbu_3, # of connection points: 4
#     Node 1, Type 0, BuildingBlock: QUQFOY_clean_sbu_3, # of connection points: 4
#     Node 2, Type 0, BuildingBlock: QUQFOY_clean_sbu_3, # of connection points: 4
#     Node 3, Type 0, BuildingBlock: QUQFOY_clean_sbu_3, # of connection points: 4
#     Node 4, Type 0, BuildingBlock: QUQFOY_clean_sbu_3, # of connection points: 4
#     Node 5, Type 0, BuildingBlock: QUQFOY_clean_sbu_3, # of connection points: 4
#     Node 6, Type 0, BuildingBlock: QUQFOY_clean_sbu_3, # of connection points: 4
#     Node 7, Type 0, BuildingBlock: QUQFOY_clean_sbu_3, # of connection points: 4
#     Edge 8, Type (0, 0), BuildingBlock: EZIPEK_clean_linker_0, # of connection points: 2
#     Edge 9, Type (0, 0), BuildingBlock: EZIPEK_clean_linker_0, # of connection points: 2
#     Edge 10, Type (0, 0), BuildingBlock: EZIPEK_clean_linker_0, # of connection points: 2
#     Edge 11, Type (0, 0), BuildingBlock: EZIPEK_clean_linker_0, # of connection points: 2
#     Edge 12, Type (0, 0), BuildingBlock: EZIPEK_clean_linker_0, # of connection points: 2
#     Edge 13, Type (0, 0), BuildingBlock: EZIPEK_clean_linker_0, # of connection points: 2
#     Edge 14, Type (0, 0), BuildingBlock: EZIPEK_clean_linker_0, # of connection points: 2
#     Edge 15, Type (0, 0), BuildingBlock: EZIPEK_clean_linker_0, # of connection points: 2
#     Edge 16, Type (0, 0), BuildingBlock: EZIPEK_clean_linker_0, # of connection points: 2
#     Edge 17, Type (0, 0), BuildingBlock: EZIPEK_clean_linker_0, # of connection points: 2
#     Edge 18, Type (0, 0), BuildingBlock: EZIPEK_clean_linker_0, # of connection points: 2
#     Edge 19, Type (0, 0), BuildingBlock: EZIPEK_clean_linker_0, # of connection points: 2
#     Edge 20, Type (0, 0), BuildingBlock: EZIPEK_clean_linker_0, # of connection points: 2
#     Edge 21, Type (0, 0), BuildingBlock: EZIPEK_clean_linker_0, # of connection points: 2
#     Edge 22, Type (0, 0), BuildingBlock: EZIPEK_clean_linker_0, # of connection points: 2
#     Edge 23, Type (0, 0), BuildingBlock: EZIPEK_clean_linker_0, # of connection points: 2
# Relax obj value: 0.077
# Max RMSD: 0.190
# Mean RMSD: 0.190
data_MOF--net-umx--node1-QUQFOY_clean_sbu_3--edge1-EZIPEK_clean_linker_0
_symmetry_space_group_name_H-M    P1
_symmetry_Int_Tables_number       1
_symmetry_cell_setting            triclinic
loop_
_symmetry_equiv_pos_as_xyz
'x, y, z'
_cell_length_a     30.578546
_cell_length_b     30.552027
_cell_length_c     21.705525
_cell_angle_alpha  89.243215
_cell_angle_beta   90.45667
_cell_angle_gamma 89.924363
loop_
_atom_site_label
_atom_site_type_symbol
_atom_site_fract_x
_atom_site_fract_y
_atom_site_fract_z
_atom_type_partial_charge
C0 C 0.19481 0.48092 0.88208 0.0
O1 O 0.19689 0.51455 0.91577 0.0
Cd2 Cd 0.17338 0.51399 0.02202 0.0
O3 O 0.1839 0.44384 0.90437 0.0
Cd4 Cd 0.16602 0.40782 0.00318 0.0
C5 C 0.072 0.46787 -0.00459 0.0
O6 O 0.20572 0.45335 0.07682 0.0
O7 O 0.16209 0.40393 0.11345 0.0
O8 O 0.21996 0.35398 -0.02041 0.0
C9 C 0.18812 0.4353 0.12362 0.0
O10 O 0.09515 0.50119 0.00849 0.0
C11 C 0.19504 0.32116 -0.01323 0.0
O12 O 0.08914 0.43004 -0.01051 0.0
O13 O 0.15515 0.32825 -0.0005 0.0
C14 C 0.49045 0.19618 0.33635 0.0
O15 O 0.45414 0.19845 0.36399 0.0
Cd16 Cd 0.4475 0.17572 0.47057 0.0
O17 O 0.52525 0.1857 0.36554 0.0
Cd18 Cd 0.54954 0.17026 0.47275 0.0
C19 C 0.497 0.07415 0.46694 0.0
O20 O 0.49838 0.21293 0.53649 0.0
O21 O 0.53617 0.16146 0.58103 0.0
O22 O 0.60542 0.22489 0.46224 0.0
C23 C 0.50979 0.19319 0.58601 0.0
O24 O 0.46241 0.09687 0.47319 0.0
C25 C 0.63721 0.19975 0.47568 0.0
O26 O 0.53437 0.09215 0.46186 0.0
O27 O 0.62884 0.15972 0.48685 0.0
C28 C 0.76555 0.48908 0.83245 0.0
O29 O 0.76342 0.45265 0.86108 0.0
Cd30 Cd 0.78398 0.44423 0.96863 0.0
O31 O 0.77525 0.52398 0.86065 0.0
Cd32 Cd 0.7913 0.54856 0.96557 0.0
C33 C 0.88568 0.49145 0.96215 0.0
O34 O 0.75053 0.4978 0.0333 0.0
O35 O 0.80016 0.53912 0.07415 0.0
O36 O 0.73787 0.60551 0.95359 0.0
C37 C 0.77073 0.51042 0.08144 0.0
O38 O 0.86262 0.45724 0.97047 0.0
C39 C 0.76388 0.6368 0.96468 0.0
O40 O 0.86828 0.52909 0.95436 0.0
O41 O 0.80389 0.6276 -0.02545 0.0
C42 C 0.48476 0.76587 0.36692 0.0
O43 O 0.51785 0.76102 0.40209 0.0
Cd44 Cd 0.51747 0.78607 0.50728 0.0
O45 O 0.4481 0.77798 0.38812 0.0
Cd46 Cd 0.4128 0.79388 0.48693 0.0
C47 C 0.47015 0.88768 0.48085 0.0
O48 O 0.4582 0.75434 0.56301 0.0
O49 O 0.41337 0.80337 0.59638 0.0
O50 O 0.35916 0.73893 0.46598 0.0
C51 C 0.44231 0.77471 0.60843 0.0
O52 O 0.50347 0.86462 0.49554 0.0
C53 C 0.32625 0.76371 0.47273 0.0
O54 O 0.43267 0.87057 0.47191 0.0
O55 O 0.33321 0.80391 0.4836 0.0
C56 C 0.19147 0.48557 0.61611 0.0
O57 O 0.19004 0.44921 0.5885 0.0
Cd58 Cd 0.17127 0.44251 0.48047 0.0
O59 O 0.18538 0.52142 0.58686 0.0
Cd60 Cd 0.16974 0.54758 0.48141 0.0
C61 C 0.07234 0.49512 0.48505 0.0
O62 O 0.20862 0.49499 0.41627 0.0
O63 O 0.16239 0.53957 0.37256 0.0
O64 O 0.22496 0.60264 0.49252 0.0
C65 C 0.19017 0.50912 0.36708 0.0
O66 O 0.09354 0.45972 0.47767 0.0
C67 C 0.19988 0.63488 0.48095 0.0
O68 O 0.09169 0.53171 0.4919 0.0
O69 O 0.15966 0.62706 0.47101 0.0
C70 C 0.4867 0.20126 0.07053 0.0
O71 O 0.5199 0.20408 0.03583 0.0
Cd72 Cd 0.51905 0.18231 0.92856 0.0
O73 O 0.44952 0.19029 0.04923 0.0
Cd74 Cd 0.41238 0.17279 0.95184 0.0
C75 C 0.47479 0.07984 0.95195 0.0
O76 O 0.45661 0.21305 0.87694 0.0
O77 O 0.40422 0.17315 0.8415 0.0
O78 O 0.35691 0.22395 -0.02002 0.0
C79 C 0.43735 0.19673 0.83043 0.0
O80 O 0.5076 0.10371 0.93858 0.0
C81 C 0.32514 0.19761 -0.02624 0.0
O82 O 0.43697 0.09629 0.96071 0.0
O83 O 0.33376 0.15825 0.95975 0.0
C84 C 0.76298 0.48669 0.56692 0.0
O85 O 0.7594 0.51986 0.53128 0.0
Cd86 Cd 0.78341 0.51888 0.42509 0.0
O87 O 0.77503 0.44978 0.54671 0.0
Cd88 Cd 0.79345 0.41265 0.45081 0.0
C89 C 0.88581 0.4752 0.4545 0.0
O90 O 0.75338 0.45659 0.37411 0.0
O91 O 0.79728 0.40671 0.3409 0.0
O92 O 0.74015 0.35893 0.47882 0.0
C93 C 0.77143 0.43813 0.32859 0.0
O94 O 0.86195 0.50787 0.43922 0.0
C95 C 0.7654 0.32617 0.47406 0.0
O96 O 0.86953 0.43716 0.46325 0.0
O97 O 0.8053 0.33339 0.46119 0.0
C98 C 0.48744 0.77168 0.1011 0.0
O99 O 0.45138 0.77217 0.07165 0.0
Cd100 Cd 0.44582 0.79273 0.96348 0.0
O101 O 0.52328 0.77939 0.07377 0.0
Cd102 Cd 0.55154 0.79614 0.97093 0.0
C103 C 0.49696 0.89255 0.97216 0.0
O104 O 0.5004 0.75717 0.90302 0.0
O105 O 0.54603 0.80278 0.8615 0.0
O106 O 0.60634 0.74108 -0.01244 0.0
C107 C 0.51514 0.77566 0.85455 0.0
O108 O 0.46218 0.87075 0.96235 0.0
C109 C 0.63874 0.76597 -0.02255 0.0
O110 O 0.53382 0.87383 -0.01896 0.0
O111 O 0.6311 0.80621 0.96623 0.0
C112 C 0.23142 0.46288 0.2153 0.0
C113 C 0.19058 0.45442 0.18605 0.0
C114 C 0.15262 0.4711 0.28151 0.0
C115 C 0.19239 0.48553 0.30805 0.0
N116 N 0.26958 0.49974 0.29836 0.0
N117 N 0.1118 0.46163 0.18757 0.0
C118 C 0.23196 0.48252 0.27461 0.0
C119 C 0.15102 0.46156 0.21816 0.0
N120 N 0.26947 0.45084 0.18762 0.0
N121 N 0.1164 0.46554 0.31723 0.0
H122 H 0.10917 0.45762 0.14013 0.0
H123 H 0.08253 0.47089 0.208 0.0
H124 H 0.11684 0.47058 0.36459 0.0
H125 H 0.08764 0.45121 0.30119 0.0
H126 H 0.29988 0.45218 0.20947 0.0
H127 H 0.27029 0.436 0.14467 0.0
H128 H 0.29831 0.50292 0.27324 0.0
H129 H 0.2712 0.51368 0.34193 0.0
C130 C 0.46347 0.162 0.66832 0.0
C131 C 0.48603 0.19864 0.64451 0.0
C132 C 0.47163 0.23779 0.74025 0.0
C133 C 0.45586 0.19817 0.76727 0.0
N134 N 0.44912 0.11926 0.75939 0.0
N135 N 0.51528 0.27096 0.65901 0.0
C136 C 0.45507 0.15932 0.73195 0.0
C137 C 0.49107 0.23663 0.68068 0.0
N138 N 0.44932 0.12994 0.62984 0.0
N139 N 0.46658 0.27656 0.76998 0.0
H140 H 0.52884 0.27145 0.61505 0.0
H141 H 0.52414 0.29751 0.68602 0.0
H142 H 0.45133 0.27897 0.81257 0.0
H143 H 0.47379 0.30678 0.74978 0.0
H144 H 0.42935 0.10425 0.64449 0.0
H145 H 0.45332 0.13208 0.58224 0.0
H146 H 0.4521 0.09 0.73555 0.0
H147 H 0.44701 0.11475 0.80691 0.0
C148 C 0.7286 0.46615 0.23556 0.0
C149 C 0.76929 0.45658 0.265 0.0
C150 C 0.80722 0.47112 0.16831 0.0
C151 C 0.76788 0.48701 0.14146 0.0
N152 N 0.69131 0.50429 0.15141 0.0
N153 N 0.84829 0.46138 0.26232 0.0
C154 C 0.72842 0.48564 0.17542 0.0
C155 C 0.80889 0.46216 0.23216 0.0
N156 N 0.69029 0.45529 0.26383 0.0
N157 N 0.84294 0.46367 0.13249 0.0
H158 H 0.85119 0.45801 0.30998 0.0
H159 H 0.87766 0.46946 0.24094 0.0
H160 H 0.8423 0.46807 0.08482 0.0
H161 H 0.87124 0.44837 0.14907 0.0
H162 H 0.65991 0.45754 0.24198 0.0
H163 H 0.68914 0.44036 0.30725 0.0
H164 H 0.66289 0.50861 0.17679 0.0
H165 H 0.68993 0.51829 0.10736 0.0
C166 C 0.48263 0.813 0.76282 0.0
C167 C 0.49272 0.77318 0.79396 0.0
C168 C 0.46656 0.73258 0.70405 0.0
C169 C 0.46245 0.77273 0.67071 0.0
N170 N 0.47965 0.84984 0.66427 0.0
N171 N 0.4999 0.69451 0.7914 0.0
C172 C 0.47428 0.8126 0.69891 0.0
C173 C 0.4861 0.73263 0.76398 0.0
N174 N 0.4796 0.85118 0.79461 0.0
N175 N 0.45065 0.69479 0.67958 0.0
H176 H 0.51427 0.6933 0.8351 0.0
H177 H 0.50015 0.66462 0.76888 0.0
H178 H 0.4361 0.69356 0.63602 0.0
H179 H 0.4487 0.66546 0.70443 0.0
H180 H 0.46881 0.88044 0.7744 0.0
H181 H 0.48264 0.85235 0.84243 0.0
H182 H 0.49181 0.87886 0.68243 0.0
H183 H 0.47733 0.85018 0.61633 0.0
C184 C 0.72373 0.47716 0.66745 0.0
C185 C 0.76077 0.49205 0.63434 0.0
C186 C 0.80121 0.50232 0.73084 0.0
C187 C 0.76325 0.49027 0.76431 0.0
N188 N 0.68653 0.47249 0.76583 0.0
N189 N 0.83221 0.52561 0.63354 0.0
C190 C 0.72391 0.47939 0.733 0.0
C191 C 0.79859 0.50705 0.66583 0.0
N192 N 0.68883 0.46015 0.63622 0.0
N193 N 0.84052 0.50658 0.76079 0.0
H194 H 0.83249 0.52818 0.58559 0.0
H195 H 0.85834 0.54166 0.65437 0.0
H196 H 0.84438 0.50232 0.80826 0.0
H197 H 0.87022 0.51017 0.73816 0.0
H198 H 0.66293 0.44412 0.65762 0.0
H199 H 0.68695 0.45994 0.58819 0.0
H200 H 0.6558 0.46876 0.74562 0.0
H201 H 0.68567 0.47384 0.81381 0.0
C202 C 0.47089 0.73079 0.19993 0.0
C203 C 0.48773 0.76838 0.16926 0.0
C204 C 0.5109 0.79876 0.26817 0.0
C205 C 0.48974 0.76369 0.29929 0.0
N206 N 0.4462 0.69806 0.29612 0.0
N207 N 0.51489 0.84253 0.17492 0.0
C208 C 0.46866 0.73017 0.26551 0.0
C209 C 0.50562 0.80346 0.20352 0.0
N210 N 0.45851 0.69519 0.16657 0.0
N211 N 0.53579 0.82796 0.30025 0.0
H212 H 0.5098 0.84835 0.12798 0.0
H213 H 0.52316 0.87077 0.19869 0.0
H214 H 0.53939 0.82708 0.348 0.0
H215 H 0.55595 0.85101 0.27898 0.0
H216 H 0.45012 0.66519 0.18641 0.0
H217 H 0.46003 0.6945 0.1186 0.0
H218 H 0.42587 0.67568 0.27424 0.0
H219 H 0.44605 0.69525 0.34409 0.0
C220 C 0.23416 0.47466 0.78153 0.0
C221 C 0.19601 0.48614 0.81432 0.0
C222 C 0.15625 0.50007 0.71738 0.0
C223 C 0.19366 0.48613 0.68433 0.0
N224 N 0.26736 0.45818 0.68296 0.0
N225 N 0.1199 0.50684 0.81578 0.0
C226 C 0.23245 0.47284 0.71589 0.0
C227 C 0.15696 0.49854 0.78284 0.0
N228 N 0.27211 0.46648 0.81342 0.0
N229 N 0.11978 0.5144 0.68606 0.0
H230 H 0.11937 0.5079 0.86377 0.0
H231 H 0.08888 0.51043 0.79634 0.0
H232 H 0.11565 0.51165 0.63857 0.0
H233 H 0.09389 0.53072 0.70647 0.0
H234 H 0.3023 0.46148 0.79294 0.0
H235 H 0.27403 0.46749 0.86141 0.0
H236 H 0.29507 0.4438 0.70262 0.0
H237 H 0.26798 0.45862 0.63492 0.0
C238 C 0.4834 0.23944 0.23705 0.0
C239 C 0.49139 0.19904 0.26817 0.0
C240 C 0.50449 0.16327 0.16959 0.0
C241 C 0.49236 0.20247 0.13818 0.0
N242 N 0.46651 0.27689 0.14018 0.0
N243 N 0.50123 0.12077 0.26421 0.0
C244 C 0.4808 0.24039 0.17141 0.0
C245 C 0.50002 0.16051 0.2345 0.0
N246 N 0.47944 0.27694 0.27023 0.0
N247 N 0.52017 0.1285 0.13731 0.0
H248 H 0.49657 0.11719 0.31151 0.0
H249 H 0.50246 0.09098 0.24153 0.0
H250 H 0.52269 0.12857 0.08942 0.0
H251 H 0.53407 0.10087 0.15819 0.0
H252 H 0.47793 0.3081 0.25037 0.0
H253 H 0.4809 0.27715 0.31827 0.0
H254 H 0.45294 0.30397 0.16151 0.0
H255 H 0.46603 0.27909 0.09215 0.0
C256 C 0.95422 0.50278 0.02284 0.0
C257 C 0.93362 0.48761 0.9684 0.0
C258 C 0.00421 0.46234 0.92942 0.0
C259 C 0.0242 0.47388 -0.01371 0.0
N260 N 0.01714 0.49909 0.09077 0.0
N261 N 0.93706 0.44899 0.87244 0.0
C262 C -0.00104 0.49279 0.03383 0.0
C263 C 0.95805 0.46608 0.9225 0.0
N264 N 0.93101 0.52665 0.06435 0.0
N265 N 0.02952 0.44994 0.88097 0.0
H266 H 0.9037 0.45334 0.86396 0.0
H267 H 0.95208 0.42829 0.84127 0.0
H268 H 0.06344 0.44717 0.88372 0.0
H269 H 0.01746 0.44602 0.8364 0.0
H270 H 0.94542 0.54343 0.10066 0.0
H271 H 0.89751 0.53245 0.06047 0.0
H272 H -0.00075 0.50741 0.12952 0.0
H273 H 0.04972 0.49236 0.10095 0.0
C274 C 0.49406 0.95407 0.42138 0.0
C275 C 0.47548 0.93552 0.47543 0.0
C276 C 0.47901 0.00629 0.52628 0.0
C277 C 0.49344 0.0259 0.4705 0.0
N278 N 0.51266 0.01987 0.36349 0.0
N279 N 0.44369 0.94446 0.5758 0.0
C280 C 0.50071 0.00013 0.41762 0.0
C281 C 0.46585 0.96183 0.52681 0.0
N282 N 0.50561 0.92751 0.37398 0.0
N283 N 0.48014 0.02969 0.57951 0.0
H284 H 0.43355 0.91191 0.57782 0.0
H285 H 0.43188 0.96317 0.61184 0.0
H286 H 0.49236 0.06149 0.58119 0.0
H287 H 0.47383 0.01619 0.62283 0.0
H288 H 0.52396 0.93787 0.33635 0.0
H289 H 0.49849 0.89414 0.3737 0.0
H290 H 0.51338 0.00401 0.32137 0.0
H291 H 0.51998 0.05308 0.36007 0.0
C292 C 0.00396 0.50805 0.42416 0.0
C293 C 0.02424 0.49377 0.47987 0.0
C294 C 0.95301 0.47254 0.52165 0.0
C295 C 0.93339 0.48214 0.46347 0.0
N296 N 0.94068 0.50456 0.35689 0.0
N297 N 0.01979 0.45916 0.58005 0.0
C298 C 0.95892 0.4991 0.41419 0.0
C299 C -0.00075 0.47501 0.52818 0.0
N300 N 0.02777 0.53011 0.38062 0.0
N301 N 0.9273 0.46316 0.57139 0.0
H302 H 0.05331 0.4626 0.5879 0.0
H303 H 0.00414 0.44037 0.61359 0.0
H304 H 0.89325 0.462 0.56885 0.0
H305 H 0.93926 0.46049 0.61632 0.0
H306 H 0.01385 0.54597 0.3425 0.0
H307 H 0.06131 0.53554 0.3846 0.0
H308 H 0.95865 0.5113 0.31736 0.0
H309 H 0.90778 0.49904 0.34755 0.0
C310 C 0.50867 0.96314 0.91565 0.0
C311 C 0.49439 0.94075 0.96944 0.0
C312 C 0.47161 0.0102 0.01452 0.0
C313 C 0.48131 0.03192 0.95801 0.0
N314 N 0.50331 0.0283 0.85151 0.0
N315 N 0.45849 0.9413 0.06793 0.0
C316 C 0.49858 0.00825 0.90777 0.0
C317 C 0.47465 0.9638 0.01824 0.0
N318 N 0.53195 0.94134 0.87206 0.0
N319 N 0.46164 0.03401 0.06546 0.0
H320 H 0.46218 0.90755 0.07384 0.0
H321 H 0.43909 0.95561 0.10138 0.0
H322 H 0.45998 0.0681 0.06506 0.0
H323 H 0.45894 0.02039 0.10949 0.0
H324 H 0.54753 0.95691 0.83538 0.0
H325 H 0.53883 0.90795 0.875 0.0
H326 H 0.51059 0.01159 0.81137 0.0
H327 H 0.49628 0.06123 0.8435 0.0
C328 C 0.23226 0.25924 0.04088 0.0
C329 C 0.21383 0.27682 -0.01422 0.0
C330 C 0.25764 0.22748 0.92379 0.0
C331 C 0.28004 0.21411 -0.02166 0.0
N332 N 0.28143 0.20564 0.08833 0.0
N333 N 0.19794 0.26993 0.87803 0.0
C334 C 0.2645 0.22592 0.03696 0.0
C335 C 0.22262 0.25787 0.92818 0.0
N336 N 0.22078 0.27649 0.09626 0.0
N337 N 0.27192 0.21341 0.86791 0.0
H338 H 0.17215 0.29221 0.88124 0.0
H339 H 0.20043 0.25562 0.83498 0.0
H340 H 0.29654 0.18999 0.86372 0.0
H341 H 0.2604 0.22547 0.82578 0.0
H342 H 0.23623 0.2688 0.13788 0.0
H343 H 0.19593 0.29971 0.10023 0.0
H344 H 0.27001 0.21048 0.13274 0.0
H345 H 0.30498 0.18097 0.08552 0.0
C346 C 0.7293 0.26836 0.53631 0.0
C347 C 0.74709 0.28169 0.47915 0.0
C348 C 0.70616 0.22418 0.42672 0.0
C349 C 0.68159 0.21796 0.48097 0.0
N350 N 0.67159 0.22885 0.58948 0.0
N351 N 0.75669 0.27061 0.37032 0.0
C352 C 0.69445 0.23769 0.53693 0.0
C353 C 0.73778 0.25818 0.42464 0.0
N354 N 0.74553 0.28584 0.58938 0.0
N355 N 0.69827 0.1981 0.37722 0.0
H356 H 0.78098 0.29445 0.3677 0.0
H357 H 0.74749 0.2585 0.32756 0.0
H358 H 0.67498 0.17314 0.37845 0.0
H359 H 0.71697 0.19851 0.33738 0.0
H360 H 0.73622 0.27582 0.63334 0.0
H361 H 0.77137 0.30817 0.5891 0.0
H362 H 0.67585 0.24556 0.63054 0.0
H363 H 0.64712 0.20508 0.59135 0.0
C364 C 0.73543 0.705 0.9159 0.0
C365 C 0.74651 0.68148 0.97029 0.0
C366 C 0.70135 0.73046 0.03119 0.0
C367 C 0.68306 0.74716 -0.02434 0.0
N368 N 0.68457 0.75508 0.86513 0.0
N369 N 0.74522 0.67354 0.08072 0.0
C370 C 0.70155 0.73681 0.91793 0.0
C371 C 0.73192 0.69552 0.02859 0.0
N372 N 0.75687 0.696 0.86256 0.0
N373 N 0.68863 0.74775 0.08595 0.0
H374 H 0.76891 0.64894 0.08004 0.0
H375 H 0.73218 0.67863 0.12416 0.0
H376 H 0.66633 0.77361 0.08802 0.0
H377 H 0.70253 0.73931 0.12838 0.0
H378 H 0.75277 0.71378 0.82171 0.0
H379 H 0.78181 0.67267 0.86094 0.0
H380 H 0.69296 0.74534 0.82102 0.0
H381 H 0.66073 0.77952 0.8655 0.0
C382 C 0.26504 0.72874 0.4165 0.0
C383 C 0.28207 0.74465 0.47263 0.0
C384 C 0.22842 0.70179 0.53051 0.0
C385 C 0.21835 0.6792 0.47583 0.0
N386 N 0.22196 0.67286 0.36561 0.0
N387 N 0.27841 0.75068 0.58306 0.0
C388 C 0.23431 0.69395 0.41809 0.0
C389 C 0.26241 0.73341 0.52965 0.0
N390 N 0.27906 0.7467 0.36217 0.0
N391 N 0.20585 0.69214 0.58303 0.0
H392 H 0.30231 0.775 0.58359 0.0
H393 H 0.26922 0.74013 0.62684 0.0
H394 H 0.18082 0.66893 0.58391 0.0
H395 H 0.20914 0.70935 0.62385 0.0
H396 H 0.26615 0.73887 0.31922 0.0
H397 H 0.30147 0.77245 0.36082 0.0
H398 H 0.23588 0.67852 0.32266 0.0
H399 H 0.19815 0.64842 0.36551 0.0
loop_
_geom_bond_atom_site_label_1
_geom_bond_atom_site_label_2
_geom_bond_distance
_geom_bond_site_symmetry_2
_ccdc_geom_bond_type
C0 O1 1.306 . S
C0 O3 1.160 . S
O1 C0 1.306 . S
O1 Cd2 2.228 1_556 S
Cd2 O1 2.228 1_554 S
Cd2 O6 2.273 . S
Cd2 O10 2.277 . S
O3 C0 1.160 . S
O3 Cd4 2.203 1_556 S
Cd4 O3 2.203 1_554 S
Cd4 O6 2.411 . S
Cd4 O7 2.333 . S
Cd4 O8 2.352 1_554 S
Cd4 O12 2.277 1_554 S
Cd4 O13 2.356 . S
C5 O10 1.210 . S
C5 O12 1.226 1_554 S
O6 Cd2 2.273 . S
O6 Cd4 2.411 . S
O6 C9 1.320 . S
O7 Cd4 2.333 . S
O7 C9 1.214 . S
O8 Cd4 2.352 1_556 S
O8 C11 1.258 1_556 S
C9 O6 1.320 . S
C9 O7 1.214 . S
O10 Cd2 2.277 . S
O10 C5 1.210 . S
C11 O8 1.258 1_554 S
C11 O13 1.282 . S
O12 Cd4 2.277 1_556 S
O12 C5 1.226 1_556 S
O13 Cd4 2.356 . S
O13 C11 1.282 . S
C14 O15 1.306 . S
C14 O17 1.160 . S
O15 C14 1.306 . S
O15 Cd16 2.228 . S
Cd16 O15 2.228 . S
Cd16 O20 2.273 . S
Cd16 O24 2.277 . S
O17 C14 1.160 . S
O17 Cd18 2.203 . S
Cd18 O17 2.203 . S
Cd18 O20 2.411 . S
Cd18 O21 2.333 . S
Cd18 O22 2.352 . S
Cd18 O26 2.277 . S
Cd18 O27 2.356 . S
C19 O24 1.209 . S
C19 O26 1.226 . S
O20 Cd16 2.273 . S
O20 Cd18 2.411 . S
O20 C23 1.320 . S
O21 Cd18 2.333 . S
O21 C23 1.214 . S
O22 Cd18 2.352 . S
O22 C25 1.258 . S
C23 O20 1.320 . S
C23 O21 1.214 . S
O24 Cd16 2.277 . S
O24 C19 1.209 . S
C25 O22 1.258 . S
C25 O27 1.282 . S
O26 Cd18 2.277 . S
O26 C19 1.226 . S
O27 Cd18 2.356 . S
O27 C25 1.282 . S
C28 O29 1.306 . S
C28 O31 1.160 . S
O29 C28 1.306 . S
O29 Cd30 2.228 1_556 S
Cd30 O29 2.228 1_554 S
Cd30 O34 2.273 . S
Cd30 O38 2.277 . S
O31 C28 1.160 . S
O31 Cd32 2.203 1_556 S
Cd32 O31 2.203 1_554 S
Cd32 O34 2.411 . S
Cd32 O35 2.333 . S
Cd32 O36 2.352 1_554 S
Cd32 O40 2.277 1_554 S
Cd32 O41 2.356 . S
C33 O38 1.210 . S
C33 O40 1.226 1_554 S
O34 Cd30 2.273 . S
O34 Cd32 2.411 . S
O34 C37 1.320 . S
O35 Cd32 2.333 . S
O35 C37 1.214 . S
O36 Cd32 2.352 1_556 S
O36 C39 1.258 1_556 S
C37 O34 1.320 . S
C37 O35 1.214 . S
O38 Cd30 2.277 . S
O38 C33 1.210 . S
C39 O36 1.258 1_554 S
C39 O41 1.282 . S
O40 Cd32 2.277 1_556 S
O40 C33 1.226 1_556 S
O41 Cd32 2.356 . S
O41 C39 1.282 . S
C42 O43 1.306 . S
C42 O45 1.160 . S
O43 C42 1.306 . S
O43 Cd44 2.228 . S
Cd44 O43 2.228 . S
Cd44 O48 2.273 . S
Cd44 O52 2.277 . S
O45 C42 1.160 . S
O45 Cd46 2.203 . S
Cd46 O45 2.203 . S
Cd46 O48 2.411 . S
Cd46 O49 2.333 . S
Cd46 O50 2.352 . S
Cd46 O54 2.277 . S
Cd46 O55 2.356 . S
C47 O52 1.209 . S
C47 O54 1.226 . S
O48 Cd44 2.273 . S
O48 Cd46 2.411 . S
O48 C51 1.320 . S
O49 Cd46 2.333 . S
O49 C51 1.214 . S
O50 Cd46 2.352 . S
O50 C53 1.258 . S
C51 O48 1.320 . S
C51 O49 1.214 . S
O52 Cd44 2.277 . S
O52 C47 1.209 . S
C53 O50 1.258 . S
C53 O55 1.282 . S
O54 Cd46 2.277 . S
O54 C47 1.226 . S
O55 Cd46 2.356 . S
O55 C53 1.282 . S
C56 O57 1.306 . S
C56 O59 1.160 . S
O57 C56 1.306 . S
O57 Cd58 2.228 . S
Cd58 O57 2.228 . S
Cd58 O62 2.273 . S
Cd58 O66 2.277 . S
O59 C56 1.160 . S
O59 Cd60 2.203 . S
Cd60 O59 2.203 . S
Cd60 O62 2.411 . S
Cd60 O63 2.333 . S
Cd60 O64 2.352 . S
Cd60 O68 2.277 . S
Cd60 O69 2.356 . S
C61 O66 1.209 . S
C61 O68 1.226 . S
O62 Cd58 2.273 . S
O62 Cd60 2.411 . S
O62 C65 1.320 . S
O63 Cd60 2.333 . S
O63 C65 1.214 . S
O64 Cd60 2.352 . S
O64 C67 1.258 . S
C65 O62 1.320 . S
C65 O63 1.214 . S
O66 Cd58 2.277 . S
O66 C61 1.209 . S
C67 O64 1.258 . S
C67 O69 1.282 . S
O68 Cd60 2.277 . S
O68 C61 1.226 . S
O69 Cd60 2.356 . S
O69 C67 1.282 . S
C70 O71 1.306 . S
C70 O73 1.160 . S
O71 C70 1.306 . S
O71 Cd72 2.228 1_554 S
Cd72 O71 2.228 1_556 S
Cd72 O76 2.273 . S
Cd72 O80 2.277 . S
O73 C70 1.160 . S
O73 Cd74 2.203 1_554 S
Cd74 O73 2.203 1_556 S
Cd74 O76 2.411 . S
Cd74 O77 2.333 . S
Cd74 O78 2.352 1_556 S
Cd74 O82 2.277 1_556 S
Cd74 O83 2.356 . S
C75 O80 1.208 1_554 S
C75 O82 1.226 . S
O76 Cd72 2.273 . S
O76 Cd74 2.411 . S
O76 C79 1.320 . S
O77 Cd74 2.333 . S
O77 C79 1.214 . S
O78 Cd74 2.352 1_554 S
O78 C81 1.258 1_554 S
C79 O76 1.320 . S
C79 O77 1.214 . S
O80 Cd72 2.277 . S
O80 C75 1.208 1_556 S
C81 O78 1.258 1_556 S
C81 O83 1.282 . S
O82 Cd74 2.277 1_554 S
O82 C75 1.226 . S
O83 Cd74 2.356 . S
O83 C81 1.282 . S
C84 O85 1.306 . S
C84 O87 1.160 . S
O85 C84 1.306 . S
O85 Cd86 2.228 . S
Cd86 O85 2.228 . S
Cd86 O90 2.273 . S
Cd86 O94 2.277 . S
O87 C84 1.160 . S
O87 Cd88 2.203 . S
Cd88 O87 2.203 . S
Cd88 O90 2.411 . S
Cd88 O91 2.333 . S
Cd88 O92 2.352 . S
Cd88 O96 2.277 . S
Cd88 O97 2.356 . S
C89 O94 1.209 . S
C89 O96 1.226 . S
O90 Cd86 2.273 . S
O90 Cd88 2.411 . S
O90 C93 1.320 . S
O91 Cd88 2.333 . S
O91 C93 1.214 . S
O92 Cd88 2.352 . S
O92 C95 1.258 . S
C93 O90 1.320 . S
C93 O91 1.214 . S
O94 Cd86 2.277 . S
O94 C89 1.209 . S
C95 O92 1.258 . S
C95 O97 1.282 . S
O96 Cd88 2.277 . S
O96 C89 1.226 . S
O97 Cd88 2.356 . S
O97 C95 1.282 . S
C98 O99 1.306 . S
C98 O101 1.160 . S
O99 C98 1.306 . S
O99 Cd100 2.228 1_554 S
Cd100 O99 2.228 1_556 S
Cd100 O104 2.273 . S
Cd100 O108 2.277 . S
O101 C98 1.160 . S
O101 Cd102 2.203 1_554 S
Cd102 O101 2.203 1_556 S
Cd102 O104 2.411 . S
Cd102 O105 2.333 . S
Cd102 O106 2.352 1_556 S
Cd102 O110 2.277 1_556 S
Cd102 O111 2.356 . S
C103 O108 1.208 1_554 S
C103 O110 1.226 . S
O104 Cd100 2.273 . S
O104 Cd102 2.411 . S
O104 C107 1.320 . S
O105 Cd102 2.333 . S
O105 C107 1.214 . S
O106 Cd102 2.352 1_554 S
O106 C109 1.258 1_554 S
C107 O104 1.320 . S
C107 O105 1.214 . S
O108 Cd100 2.277 . S
O108 C103 1.208 1_556 S
C109 O106 1.258 1_556 S
C109 O111 1.282 . S
O110 Cd102 2.277 1_554 S
O110 C103 1.226 . S
O111 Cd102 2.356 . S
O111 C109 1.282 . S
C112 C113 1.363 . S
C112 C118 1.379 . S
C112 N120 1.356 . S
C113 C112 1.363 . S
C113 C119 1.363 . S
C114 C115 1.363 . S
C114 C119 1.379 . S
C114 N121 1.356 . S
C115 C114 1.363 . S
C115 C118 1.363 . S
N116 C118 1.356 . S
N116 H128 0.984 . S
N116 H129 0.985 . S
N117 C119 1.356 . S
N117 H122 0.984 . S
N117 H123 0.985 . S
C118 C112 1.379 . S
C118 C115 1.363 . S
C118 N116 1.356 . S
C119 C113 1.363 . S
C119 C114 1.379 . S
C119 N117 1.356 . S
N120 C112 1.356 . S
N120 H126 0.984 . S
N120 H127 0.984 . S
N121 C114 1.356 . S
N121 H124 0.984 . S
N121 H125 0.985 . S
H122 N117 0.984 . S
H123 N117 0.985 . S
H124 N121 0.984 . S
H125 N121 0.985 . S
H126 N120 0.984 . S
H127 N120 0.984 . S
H128 N116 0.984 . S
H129 N116 0.985 . S
C130 C131 1.363 . S
C130 C136 1.379 . S
C130 N138 1.356 . S
C131 C130 1.363 . S
C131 C137 1.363 . S
C132 C133 1.363 . S
C132 C137 1.379 . S
C132 N139 1.356 . S
C133 C132 1.363 . S
C133 C136 1.363 . S
N134 C136 1.356 . S
N134 H146 0.984 . S
N134 H147 0.985 . S
N135 C137 1.356 . S
N135 H140 0.984 . S
N135 H141 0.985 . S
C136 C130 1.379 . S
C136 C133 1.363 . S
C136 N134 1.356 . S
C137 C131 1.363 . S
C137 C132 1.379 . S
C137 N135 1.356 . S
N138 C130 1.356 . S
N138 H144 0.984 . S
N138 H145 0.984 . S
N139 C132 1.356 . S
N139 H142 0.984 . S
N139 H143 0.985 . S
H140 N135 0.984 . S
H141 N135 0.985 . S
H142 N139 0.984 . S
H143 N139 0.985 . S
H144 N138 0.984 . S
H145 N138 0.984 . S
H146 N134 0.984 . S
H147 N134 0.985 . S
C148 C149 1.363 . S
C148 C154 1.379 . S
C148 N156 1.356 . S
C149 C148 1.363 . S
C149 C155 1.363 . S
C150 C151 1.363 . S
C150 C155 1.379 . S
C150 N157 1.356 . S
C151 C150 1.363 . S
C151 C154 1.363 . S
N152 C154 1.356 . S
N152 H164 0.984 . S
N152 H165 0.985 . S
N153 C155 1.356 . S
N153 H158 0.984 . S
N153 H159 0.985 . S
C154 C148 1.379 . S
C154 C151 1.363 . S
C154 N152 1.356 . S
C155 C149 1.363 . S
C155 C150 1.379 . S
C155 N153 1.356 . S
N156 C148 1.356 . S
N156 H162 0.984 . S
N156 H163 0.984 . S
N157 C150 1.356 . S
N157 H160 0.984 . S
N157 H161 0.985 . S
H158 N153 0.984 . S
H159 N153 0.985 . S
H160 N157 0.984 . S
H161 N157 0.985 . S
H162 N156 0.984 . S
H163 N156 0.984 . S
H164 N152 0.984 . S
H165 N152 0.985 . S
C166 C167 1.363 . S
C166 C172 1.379 . S
C166 N174 1.356 . S
C167 C166 1.363 . S
C167 C173 1.363 . S
C168 C169 1.363 . S
C168 C173 1.379 . S
C168 N175 1.356 . S
C169 C168 1.363 . S
C169 C172 1.363 . S
N170 C172 1.356 . S
N170 H182 0.984 . S
N170 H183 0.985 . S
N171 C173 1.356 . S
N171 H176 0.984 . S
N171 H177 0.985 . S
C172 C166 1.379 . S
C172 C169 1.363 . S
C172 N170 1.356 . S
C173 C167 1.363 . S
C173 C168 1.379 . S
C173 N171 1.356 . S
N174 C166 1.356 . S
N174 H180 0.984 . S
N174 H181 0.984 . S
N175 C168 1.356 . S
N175 H178 0.984 . S
N175 H179 0.985 . S
H176 N171 0.984 . S
H177 N171 0.985 . S
H178 N175 0.984 . S
H179 N175 0.985 . S
H180 N174 0.984 . S
H181 N174 0.984 . S
H182 N170 0.984 . S
H183 N170 0.985 . S
C184 C185 1.363 . S
C184 C190 1.379 . S
C184 N192 1.356 . S
C185 C184 1.363 . S
C185 C191 1.363 . S
C186 C187 1.363 . S
C186 C191 1.379 . S
C186 N193 1.356 . S
C187 C186 1.363 . S
C187 C190 1.363 . S
N188 C190 1.356 . S
N188 H200 0.984 . S
N188 H201 0.985 . S
N189 C191 1.356 . S
N189 H194 0.984 . S
N189 H195 0.985 . S
C190 C184 1.379 . S
C190 C187 1.363 . S
C190 N188 1.356 . S
C191 C185 1.363 . S
C191 C186 1.379 . S
C191 N189 1.356 . S
N192 C184 1.356 . S
N192 H198 0.984 . S
N192 H199 0.984 . S
N193 C186 1.356 . S
N193 H196 0.984 . S
N193 H197 0.985 . S
H194 N189 0.984 . S
H195 N189 0.985 . S
H196 N193 0.984 . S
H197 N193 0.985 . S
H198 N192 0.984 . S
H199 N192 0.984 . S
H200 N188 0.984 . S
H201 N188 0.985 . S
C202 C203 1.363 . S
C202 C208 1.379 . S
C202 N210 1.356 . S
C203 C202 1.363 . S
C203 C209 1.363 . S
C204 C205 1.363 . S
C204 C209 1.379 . S
C204 N211 1.356 . S
C205 C204 1.363 . S
C205 C208 1.363 . S
N206 C208 1.356 . S
N206 H218 0.984 . S
N206 H219 0.985 . S
N207 C209 1.356 . S
N207 H212 0.984 . S
N207 H213 0.985 . S
C208 C202 1.379 . S
C208 C205 1.363 . S
C208 N206 1.356 . S
C209 C203 1.363 . S
C209 C204 1.379 . S
C209 N207 1.356 . S
N210 C202 1.356 . S
N210 H216 0.984 . S
N210 H217 0.984 . S
N211 C204 1.356 . S
N211 H214 0.984 . S
N211 H215 0.985 . S
H212 N207 0.984 . S
H213 N207 0.985 . S
H214 N211 0.984 . S
H215 N211 0.985 . S
H216 N210 0.984 . S
H217 N210 0.984 . S
H218 N206 0.984 . S
H219 N206 0.985 . S
C220 C221 1.363 . S
C220 C226 1.379 . S
C220 N228 1.356 . S
C221 C220 1.363 . S
C221 C227 1.363 . S
C222 C223 1.363 . S
C222 C227 1.379 . S
C222 N229 1.356 . S
C223 C222 1.363 . S
C223 C226 1.363 . S
N224 C226 1.356 . S
N224 H236 0.984 . S
N224 H237 0.985 . S
N225 C227 1.356 . S
N225 H230 0.984 . S
N225 H231 0.985 . S
C226 C220 1.379 . S
C226 C223 1.363 . S
C226 N224 1.356 . S
C227 C221 1.363 . S
C227 C222 1.379 . S
C227 N225 1.356 . S
N228 C220 1.356 . S
N228 H234 0.984 . S
N228 H235 0.984 . S
N229 C222 1.356 . S
N229 H232 0.984 . S
N229 H233 0.985 . S
H230 N225 0.984 . S
H231 N225 0.985 . S
H232 N229 0.984 . S
H233 N229 0.985 . S
H234 N228 0.984 . S
H235 N228 0.984 . S
H236 N224 0.984 . S
H237 N224 0.985 . S
C238 C239 1.363 . S
C238 C244 1.379 . S
C238 N246 1.356 . S
C239 C238 1.363 . S
C239 C245 1.363 . S
C240 C241 1.363 . S
C240 C245 1.379 . S
C240 N247 1.356 . S
C241 C240 1.363 . S
C241 C244 1.363 . S
N242 C244 1.356 . S
N242 H254 0.984 . S
N242 H255 0.985 . S
N243 C245 1.356 . S
N243 H248 0.984 . S
N243 H249 0.985 . S
C244 C238 1.379 . S
C244 C241 1.363 . S
C244 N242 1.356 . S
C245 C239 1.363 . S
C245 C240 1.379 . S
C245 N243 1.356 . S
N246 C238 1.356 . S
N246 H252 0.984 . S
N246 H253 0.984 . S
N247 C240 1.356 . S
N247 H250 0.984 . S
N247 H251 0.985 . S
H248 N243 0.984 . S
H249 N243 0.985 . S
H250 N247 0.984 . S
H251 N247 0.985 . S
H252 N246 0.984 . S
H253 N246 0.984 . S
H254 N242 0.984 . S
H255 N242 0.985 . S
C256 C257 1.365 . S
C256 C262 1.379 1_655 S
C256 N264 1.356 . S
C257 C256 1.365 . S
C257 C263 1.361 1_554 S
C258 C259 1.361 1_556 S
C258 C263 1.379 1_455 S
C258 N265 1.356 . S
C259 C258 1.361 1_554 S
C259 C262 1.365 . S
N260 C262 1.356 . S
N260 H272 0.984 . S
N260 H273 0.985 . S
N261 C263 1.356 . S
N261 H266 0.984 . S
N261 H267 0.985 . S
C262 C256 1.379 1_455 S
C262 C259 1.365 . S
C262 N260 1.356 . S
C263 C257 1.361 1_556 S
C263 C258 1.379 1_655 S
C263 N261 1.356 . S
N264 C256 1.356 . S
N264 H270 0.984 . S
N264 H271 0.984 . S
N265 C258 1.356 . S
N265 H268 0.984 . S
N265 H269 0.985 . S
H266 N261 0.984 . S
H267 N261 0.985 . S
H268 N265 0.984 . S
H269 N265 0.985 . S
H270 N264 0.984 . S
H271 N264 0.984 . S
H272 N260 0.984 . S
H273 N260 0.985 . S
C274 C275 1.363 . S
C274 C280 1.379 1_565 S
C274 N282 1.356 . S
C275 C274 1.363 . S
C275 C281 1.363 . S
C276 C277 1.363 . S
C276 C281 1.379 1_545 S
C276 N283 1.356 . S
C277 C276 1.363 . S
C277 C280 1.363 . S
N278 C280 1.356 . S
N278 H290 0.984 . S
N278 H291 0.985 . S
N279 C281 1.356 . S
N279 H284 0.984 . S
N279 H285 0.985 . S
C280 C274 1.379 1_545 S
C280 C277 1.363 . S
C280 N278 1.356 . S
C281 C275 1.363 . S
C281 C276 1.379 1_565 S
C281 N279 1.356 . S
N282 C274 1.356 . S
N282 H288 0.984 . S
N282 H289 0.984 . S
N283 C276 1.356 . S
N283 H286 0.984 . S
N283 H287 0.985 . S
H284 N279 0.984 . S
H285 N279 0.985 . S
H286 N283 0.984 . S
H287 N283 0.985 . S
H288 N282 0.984 . S
H289 N282 0.984 . S
H290 N278 0.984 . S
H291 N278 0.985 . S
C292 C293 1.363 . S
C292 C298 1.379 1_455 S
C292 N300 1.356 . S
C293 C292 1.363 . S
C293 C299 1.363 . S
C294 C295 1.363 . S
C294 C299 1.379 1_655 S
C294 N301 1.356 . S
C295 C294 1.363 . S
C295 C298 1.363 . S
N296 C298 1.356 . S
N296 H308 0.984 . S
N296 H309 0.985 . S
N297 C299 1.356 . S
N297 H302 0.984 . S
N297 H303 0.985 . S
C298 C292 1.379 1_655 S
C298 C295 1.363 . S
C298 N296 1.356 . S
C299 C293 1.363 . S
C299 C294 1.379 1_455 S
C299 N297 1.356 . S
N300 C292 1.356 . S
N300 H306 0.984 . S
N300 H307 0.984 . S
N301 C294 1.356 . S
N301 H304 0.984 . S
N301 H305 0.985 . S
H302 N297 0.984 . S
H303 N297 0.985 . S
H304 N301 0.984 . S
H305 N301 0.985 . S
H306 N300 0.984 . S
H307 N300 0.984 . S
H308 N296 0.984 . S
H309 N296 0.985 . S
C310 C311 1.354 1_556 S
C310 C316 1.379 1_565 S
C310 N318 1.356 . S
C311 C310 1.354 1_554 S
C311 C317 1.372 . S
C312 C313 1.372 . S
C312 C317 1.379 1_545 S
C312 N319 1.356 . S
C313 C312 1.372 . S
C313 C316 1.354 1_554 S
N314 C316 1.356 . S
N314 H326 0.984 . S
N314 H327 0.985 . S
N315 C317 1.356 . S
N315 H320 0.984 . S
N315 H321 0.985 . S
C316 C310 1.379 1_545 S
C316 C313 1.354 1_556 S
C316 N314 1.356 . S
C317 C311 1.372 . S
C317 C312 1.379 1_565 S
C317 N315 1.356 . S
N318 C310 1.356 . S
N318 H324 0.984 . S
N318 H325 0.984 . S
N319 C312 1.356 . S
N319 H322 0.984 . S
N319 H323 0.985 . S
H320 N315 0.984 . S
H321 N315 0.985 . S
H322 N319 0.984 . S
H323 N319 0.985 . S
H324 N318 0.984 . S
H325 N318 0.984 . S
H326 N314 0.984 . S
H327 N314 0.985 . S
C328 C329 1.363 . S
C328 C334 1.379 . S
C328 N336 1.356 . S
C329 C328 1.363 . S
C329 C335 1.363 1_554 S
C330 C331 1.363 . S
C330 C335 1.379 . S
C330 N337 1.356 . S
C331 C330 1.363 . S
C331 C334 1.363 1_556 S
N332 C334 1.356 . S
N332 H344 0.984 . S
N332 H345 0.985 . S
N333 C335 1.356 . S
N333 H338 0.984 . S
N333 H339 0.985 . S
C334 C328 1.379 . S
C334 C331 1.363 1_554 S
C334 N332 1.356 . S
C335 C329 1.363 1_556 S
C335 C330 1.379 . S
C335 N333 1.356 . S
N336 C328 1.356 . S
N336 H342 0.984 . S
N336 H343 0.984 . S
N337 C330 1.356 . S
N337 H340 0.984 . S
N337 H341 0.985 . S
H338 N333 0.984 . S
H339 N333 0.985 . S
H340 N337 0.984 . S
H341 N337 0.985 . S
H342 N336 0.984 . S
H343 N336 0.984 . S
H344 N332 0.984 . S
H345 N332 0.985 . S
C346 C347 1.363 . S
C346 C352 1.379 . S
C346 N354 1.356 . S
C347 C346 1.363 . S
C347 C353 1.363 . S
C348 C349 1.363 . S
C348 C353 1.379 . S
C348 N355 1.356 . S
C349 C348 1.363 . S
C349 C352 1.363 . S
N350 C352 1.356 . S
N350 H362 0.984 . S
N350 H363 0.985 . S
N351 C353 1.356 . S
N351 H356 0.984 . S
N351 H357 0.985 . S
C352 C346 1.379 . S
C352 C349 1.363 . S
C352 N350 1.356 . S
C353 C347 1.363 . S
C353 C348 1.379 . S
C353 N351 1.356 . S
N354 C346 1.356 . S
N354 H360 0.984 . S
N354 H361 0.984 . S
N355 C348 1.356 . S
N355 H358 0.984 . S
N355 H359 0.985 . S
H356 N351 0.984 . S
H357 N351 0.985 . S
H358 N355 0.984 . S
H359 N355 0.985 . S
H360 N354 0.984 . S
H361 N354 0.984 . S
H362 N350 0.984 . S
H363 N350 0.985 . S
C364 C365 1.363 1_556 S
C364 C370 1.379 . S
C364 N372 1.356 . S
C365 C364 1.363 1_554 S
C365 C371 1.363 . S
C366 C367 1.363 1_554 S
C366 C371 1.379 . S
C366 N373 1.356 . S
C367 C366 1.363 1_556 S
C367 C370 1.363 . S
N368 C370 1.356 . S
N368 H380 0.984 . S
N368 H381 0.985 . S
N369 C371 1.356 . S
N369 H374 0.984 . S
N369 H375 0.985 . S
C370 C364 1.379 . S
C370 C367 1.363 . S
C370 N368 1.356 . S
C371 C365 1.363 . S
C371 C366 1.379 . S
C371 N369 1.356 . S
N372 C364 1.356 . S
N372 H378 0.984 . S
N372 H379 0.984 . S
N373 C366 1.356 . S
N373 H376 0.984 . S
N373 H377 0.985 . S
H374 N369 0.984 . S
H375 N369 0.985 . S
H376 N373 0.984 . S
H377 N373 0.985 . S
H378 N372 0.984 . S
H379 N372 0.984 . S
H380 N368 0.984 . S
H381 N368 0.985 . S
C382 C383 1.363 . S
C382 C388 1.379 . S
C382 N390 1.356 . S
C383 C382 1.363 . S
C383 C389 1.363 . S
C384 C385 1.363 . S
C384 C389 1.379 . S
C384 N391 1.356 . S
C385 C384 1.363 . S
C385 C388 1.363 . S
N386 C388 1.356 . S
N386 H398 0.984 . S
N386 H399 0.985 . S
N387 C389 1.356 . S
N387 H392 0.984 . S
N387 H393 0.985 . S
C388 C382 1.379 . S
C388 C385 1.363 . S
C388 N386 1.356 . S
C389 C383 1.363 . S
C389 C384 1.379 . S
C389 N387 1.356 . S
N390 C382 1.356 . S
N390 H396 0.984 . S
N390 H397 0.984 . S
N391 C384 1.356 . S
N391 H394 0.984 . S
N391 H395 0.985 . S
H392 N387 0.984 . S
H393 N387 0.985 . S
H394 N391 0.984 . S
H395 N391 0.985 . S
H396 N390 0.984 . S
H397 N390 0.984 . S
H398 N386 0.984 . S
H399 N386 0.985 . S
C113 C9 1.390 . S
C115 C65 1.390 . S
C131 C23 1.390 . S
C133 C79 1.390 . S
C149 C93 1.390 . S
C151 C37 1.390 . S
C167 C107 1.390 . S
C169 C51 1.390 . S
C185 C84 1.371 . S
C187 C28 1.371 . S
C203 C98 1.370 . S
C205 C42 1.370 . S
C221 C0 1.371 . S
C223 C56 1.371 . S
C239 C14 1.370 . S
C241 C70 1.370 . S
C257 C33 1.429 . S
C259 C5 1.429 . S
C275 C47 1.429 . S
C277 C19 1.429 . S
C293 C61 1.429 . S
C295 C89 1.429 . S
C311 C103 1.429 . S
C313 C75 1.429 . S
C329 C11 1.393 . S
C331 C81 1.393 . S
C347 C95 1.393 . S
C349 C25 1.393 . S
C365 C39 1.393 . S
C367 C109 1.393 . S
C383 C53 1.393 . S
C385 C67 1.393 . S
