# Generated by pormake.
# Topology unu, (4)-cn, num edge types: 1
# Building blocks:
#     Node 0, Type 0, BuildingBlock: CEKHIL_clean_sbu_0, # of connection points: 4
#     Node 1, Type 0, BuildingBlock: CEKHIL_clean_sbu_0, # of connection points: 4
#     Node 2, Type 0, BuildingBlock: CEKHIL_clean_sbu_0, # of connection points: 4
#     Node 3, Type 0, BuildingBlock: CEKHIL_clean_sbu_0, # of connection points: 4
#     Node 4, Type 0, BuildingBlock: CEKHIL_clean_sbu_0, # of connection points: 4
#     Node 5, Type 0, BuildingBlock: CEKHIL_clean_sbu_0, # of connection points: 4
#     Node 6, Type 0, BuildingBlock: CEKHIL_clean_sbu_0, # of connection points: 4
#     Node 7, Type 0, BuildingBlock: CEKHIL_clean_sbu_0, # of connection points: 4
#     Node 8, Type 0, BuildingBlock: CEKHIL_clean_sbu_0, # of connection points: 4
#     Node 9, Type 0, BuildingBlock: CEKHIL_clean_sbu_0, # of connection points: 4
#     Node 10, Type 0, BuildingBlock: CEKHIL_clean_sbu_0, # of connection points: 4
#     Node 11, Type 0, BuildingBlock: CEKHIL_clean_sbu_0, # of connection points: 4
#     Node 12, Type 0, BuildingBlock: CEKHIL_clean_sbu_0, # of connection points: 4
#     Node 13, Type 0, BuildingBlock: CEKHIL_clean_sbu_0, # of connection points: 4
#     Node 14, Type 0, BuildingBlock: CEKHIL_clean_sbu_0, # of connection points: 4
#     Node 15, Type 0, BuildingBlock: CEKHIL_clean_sbu_0, # of connection points: 4
#     Node 16, Type 0, BuildingBlock: CEKHIL_clean_sbu_0, # of connection points: 4
#     Node 17, Type 0, BuildingBlock: CEKHIL_clean_sbu_0, # of connection points: 4
#     Node 18, Type 0, BuildingBlock: CEKHIL_clean_sbu_0, # of connection points: 4
#     Node 19, Type 0, BuildingBlock: CEKHIL_clean_sbu_0, # of connection points: 4
#     Node 20, Type 0, BuildingBlock: CEKHIL_clean_sbu_0, # of connection points: 4
#     Node 21, Type 0, BuildingBlock: CEKHIL_clean_sbu_0, # of connection points: 4
#     Node 22, Type 0, BuildingBlock: CEKHIL_clean_sbu_0, # of connection points: 4
#     Node 23, Type 0, BuildingBlock: CEKHIL_clean_sbu_0, # of connection points: 4
#     Node 24, Type 0, BuildingBlock: CEKHIL_clean_sbu_0, # of connection points: 4
#     Node 25, Type 0, BuildingBlock: CEKHIL_clean_sbu_0, # of connection points: 4
#     Node 26, Type 0, BuildingBlock: CEKHIL_clean_sbu_0, # of connection points: 4
#     Node 27, Type 0, BuildingBlock: CEKHIL_clean_sbu_0, # of connection points: 4
#     Node 28, Type 0, BuildingBlock: CEKHIL_clean_sbu_0, # of connection points: 4
#     Node 29, Type 0, BuildingBlock: CEKHIL_clean_sbu_0, # of connection points: 4
#     Node 30, Type 0, BuildingBlock: CEKHIL_clean_sbu_0, # of connection points: 4
#     Node 31, Type 0, BuildingBlock: CEKHIL_clean_sbu_0, # of connection points: 4
#     Node 32, Type 0, BuildingBlock: CEKHIL_clean_sbu_0, # of connection points: 4
#     Node 33, Type 0, BuildingBlock: CEKHIL_clean_sbu_0, # of connection points: 4
#     Node 34, Type 0, BuildingBlock: CEKHIL_clean_sbu_0, # of connection points: 4
#     Node 35, Type 0, BuildingBlock: CEKHIL_clean_sbu_0, # of connection points: 4
#     Edge 36, Type (0, 0), BuildingBlock: ZUJKAS_clean_linker_0, # of connection points: 2
#     Edge 37, Type (0, 0), BuildingBlock: ZUJKAS_clean_linker_0, # of connection points: 2
#     Edge 38, Type (0, 0), BuildingBlock: ZUJKAS_clean_linker_0, # of connection points: 2
#     Edge 39, Type (0, 0), BuildingBlock: ZUJKAS_clean_linker_0, # of connection points: 2
#     Edge 40, Type (0, 0), BuildingBlock: ZUJKAS_clean_linker_0, # of connection points: 2
#     Edge 41, Type (0, 0), BuildingBlock: ZUJKAS_clean_linker_0, # of connection points: 2
#     Edge 42, Type (0, 0), BuildingBlock: ZUJKAS_clean_linker_0, # of connection points: 2
#     Edge 43, Type (0, 0), BuildingBlock: ZUJKAS_clean_linker_0, # of connection points: 2
#     Edge 44, Type (0, 0), BuildingBlock: ZUJKAS_clean_linker_0, # of connection points: 2
#     Edge 45, Type (0, 0), BuildingBlock: ZUJKAS_clean_linker_0, # of connection points: 2
#     Edge 46, Type (0, 0), BuildingBlock: ZUJKAS_clean_linker_0, # of connection points: 2
#     Edge 47, Type (0, 0), BuildingBlock: ZUJKAS_clean_linker_0, # of connection points: 2
#     Edge 48, Type (0, 0), BuildingBlock: ZUJKAS_clean_linker_0, # of connection points: 2
#     Edge 49, Type (0, 0), BuildingBlock: ZUJKAS_clean_linker_0, # of connection points: 2
#     Edge 50, Type (0, 0), BuildingBlock: ZUJKAS_clean_linker_0, # of connection points: 2
#     Edge 51, Type (0, 0), BuildingBlock: ZUJKAS_clean_linker_0, # of connection points: 2
#     Edge 52, Type (0, 0), BuildingBlock: ZUJKAS_clean_linker_0, # of connection points: 2
#     Edge 53, Type (0, 0), BuildingBlock: ZUJKAS_clean_linker_0, # of connection points: 2
#     Edge 54, Type (0, 0), BuildingBlock: ZUJKAS_clean_linker_0, # of connection points: 2
#     Edge 55, Type (0, 0), BuildingBlock: ZUJKAS_clean_linker_0, # of connection points: 2
#     Edge 56, Type (0, 0), BuildingBlock: ZUJKAS_clean_linker_0, # of connection points: 2
#     Edge 57, Type (0, 0), BuildingBlock: ZUJKAS_clean_linker_0, # of connection points: 2
#     Edge 58, Type (0, 0), BuildingBlock: ZUJKAS_clean_linker_0, # of connection points: 2
#     Edge 59, Type (0, 0), BuildingBlock: ZUJKAS_clean_linker_0, # of connection points: 2
#     Edge 60, Type (0, 0), BuildingBlock: ZUJKAS_clean_linker_0, # of connection points: 2
#     Edge 61, Type (0, 0), BuildingBlock: ZUJKAS_clean_linker_0, # of connection points: 2
#     Edge 62, Type (0, 0), BuildingBlock: ZUJKAS_clean_linker_0, # of connection points: 2
#     Edge 63, Type (0, 0), BuildingBlock: ZUJKAS_clean_linker_0, # of connection points: 2
#     Edge 64, Type (0, 0), BuildingBlock: ZUJKAS_clean_linker_0, # of connection points: 2
#     Edge 65, Type (0, 0), BuildingBlock: ZUJKAS_clean_linker_0, # of connection points: 2
#     Edge 66, Type (0, 0), BuildingBlock: ZUJKAS_clean_linker_0, # of connection points: 2
#     Edge 67, Type (0, 0), BuildingBlock: ZUJKAS_clean_linker_0, # of connection points: 2
#     Edge 68, Type (0, 0), BuildingBlock: ZUJKAS_clean_linker_0, # of connection points: 2
#     Edge 69, Type (0, 0), BuildingBlock: ZUJKAS_clean_linker_0, # of connection points: 2
#     Edge 70, Type (0, 0), BuildingBlock: ZUJKAS_clean_linker_0, # of connection points: 2
#     Edge 71, Type (0, 0), BuildingBlock: ZUJKAS_clean_linker_0, # of connection points: 2
#     Edge 72, Type (0, 0), BuildingBlock: ZUJKAS_clean_linker_0, # of connection points: 2
#     Edge 73, Type (0, 0), BuildingBlock: ZUJKAS_clean_linker_0, # of connection points: 2
#     Edge 74, Type (0, 0), BuildingBlock: ZUJKAS_clean_linker_0, # of connection points: 2
#     Edge 75, Type (0, 0), BuildingBlock: ZUJKAS_clean_linker_0, # of connection points: 2
#     Edge 76, Type (0, 0), BuildingBlock: ZUJKAS_clean_linker_0, # of connection points: 2
#     Edge 77, Type (0, 0), BuildingBlock: ZUJKAS_clean_linker_0, # of connection points: 2
#     Edge 78, Type (0, 0), BuildingBlock: ZUJKAS_clean_linker_0, # of connection points: 2
#     Edge 79, Type (0, 0), BuildingBlock: ZUJKAS_clean_linker_0, # of connection points: 2
#     Edge 80, Type (0, 0), BuildingBlock: ZUJKAS_clean_linker_0, # of connection points: 2
#     Edge 81, Type (0, 0), BuildingBlock: ZUJKAS_clean_linker_0, # of connection points: 2
#     Edge 82, Type (0, 0), BuildingBlock: ZUJKAS_clean_linker_0, # of connection points: 2
#     Edge 83, Type (0, 0), BuildingBlock: ZUJKAS_clean_linker_0, # of connection points: 2
#     Edge 84, Type (0, 0), BuildingBlock: ZUJKAS_clean_linker_0, # of connection points: 2
#     Edge 85, Type (0, 0), BuildingBlock: ZUJKAS_clean_linker_0, # of connection points: 2
#     Edge 86, Type (0, 0), BuildingBlock: ZUJKAS_clean_linker_0, # of connection points: 2
#     Edge 87, Type (0, 0), BuildingBlock: ZUJKAS_clean_linker_0, # of connection points: 2
#     Edge 88, Type (0, 0), BuildingBlock: ZUJKAS_clean_linker_0, # of connection points: 2
#     Edge 89, Type (0, 0), BuildingBlock: ZUJKAS_clean_linker_0, # of connection points: 2
#     Edge 90, Type (0, 0), BuildingBlock: ZUJKAS_clean_linker_0, # of connection points: 2
#     Edge 91, Type (0, 0), BuildingBlock: ZUJKAS_clean_linker_0, # of connection points: 2
#     Edge 92, Type (0, 0), BuildingBlock: ZUJKAS_clean_linker_0, # of connection points: 2
#     Edge 93, Type (0, 0), BuildingBlock: ZUJKAS_clean_linker_0, # of connection points: 2
#     Edge 94, Type (0, 0), BuildingBlock: ZUJKAS_clean_linker_0, # of connection points: 2
#     Edge 95, Type (0, 0), BuildingBlock: ZUJKAS_clean_linker_0, # of connection points: 2
#     Edge 96, Type (0, 0), BuildingBlock: ZUJKAS_clean_linker_0, # of connection points: 2
#     Edge 97, Type (0, 0), BuildingBlock: ZUJKAS_clean_linker_0, # of connection points: 2
#     Edge 98, Type (0, 0), BuildingBlock: ZUJKAS_clean_linker_0, # of connection points: 2
#     Edge 99, Type (0, 0), BuildingBlock: ZUJKAS_clean_linker_0, # of connection points: 2
#     Edge 100, Type (0, 0), BuildingBlock: ZUJKAS_clean_linker_0, # of connection points: 2
#     Edge 101, Type (0, 0), BuildingBlock: ZUJKAS_clean_linker_0, # of connection points: 2
#     Edge 102, Type (0, 0), BuildingBlock: ZUJKAS_clean_linker_0, # of connection points: 2
#     Edge 103, Type (0, 0), BuildingBlock: ZUJKAS_clean_linker_0, # of connection points: 2
#     Edge 104, Type (0, 0), BuildingBlock: ZUJKAS_clean_linker_0, # of connection points: 2
#     Edge 105, Type (0, 0), BuildingBlock: ZUJKAS_clean_linker_0, # of connection points: 2
#     Edge 106, Type (0, 0), BuildingBlock: ZUJKAS_clean_linker_0, # of connection points: 2
#     Edge 107, Type (0, 0), BuildingBlock: ZUJKAS_clean_linker_0, # of connection points: 2
# Relax obj value: 0.188
# Max RMSD: 0.232
# Mean RMSD: 0.232
data_MOF--net-unu--node1-CEKHIL_clean_sbu_0--edge1-ZUJKAS_clean_linker_0
_symmetry_space_group_name_H-M    P1
_symmetry_Int_Tables_number       1
_symmetry_cell_setting            triclinic
loop_
_symmetry_equiv_pos_as_xyz
'x, y, z'
_cell_length_a     56.246684
_cell_length_b     56.253727
_cell_length_c     129.09707
_cell_angle_alpha  90.006756
_cell_angle_beta   89.99552
_cell_angle_gamma 120.01234
loop_
_atom_site_label
_atom_site_type_symbol
_atom_site_fract_x
_atom_site_fract_y
_atom_site_fract_z
_atom_type_partial_charge
Co0 Co 0.20712 0.02799 0.11596 0.0
O1 O 0.23207 0.01414 0.11611 0.0
O2 O 0.23764 0.04952 0.10668 0.0
C3 C 0.16807 0.98741 0.1142 0.0
O4 O 0.18478 0.04721 0.11388 0.0
Co5 Co 0.16545 0.01167 0.1341 0.0
O6 O 0.14836 0.02653 0.1246 0.0
C7 C 0.22285 0.05464 0.13746 0.0
C8 C 0.2467 0.03325 0.10949 0.0
C9 C 0.1613 0.04294 0.11718 0.0
O10 O 0.22768 0.05329 0.1278 0.0
O11 O 0.19969 0.03848 0.14172 0.0
O12 O 0.18319 0.99971 0.10618 0.0
O13 O 0.17883 0.99819 0.12306 0.0
Co14 Co 0.97289 0.18192 0.11765 0.0
O15 O 0.98713 0.22074 0.11684 0.0
O16 O 0.95055 0.18952 0.10831 0.0
C17 C 0.01292 0.18242 0.11571 0.0
O18 O 0.95309 0.14013 0.11649 0.0
Co19 Co 0.99012 0.15917 0.13633 0.0
O20 O 0.97339 0.12537 0.12778 0.0
C21 C 0.9483 0.17515 0.1394 0.0
C22 C 0.96731 0.21528 0.11041 0.0
C23 C 0.95685 0.1211 0.12033 0.0
O24 O 0.94887 0.17954 0.12961 0.0
O25 O 0.96455 0.16856 0.14384 0.0
O26 O -3e-05 0.18427 0.10771 0.0
O27 O 0.0032 0.18405 0.12462 0.0
Co28 Co 0.81931 0.7934 0.1159 0.0
O29 O 0.78036 0.77031 0.11484 0.0
O30 O 0.81072 0.76273 0.10676 0.0
C31 C 0.82083 0.83384 0.11368 0.0
O32 O 0.86121 0.81366 0.11521 0.0
Co33 Co 0.84149 0.83327 0.13471 0.0
O34 O 0.87711 0.8463 0.12761 0.0
C35 C 0.8237 0.7751 0.13788 0.0
C36 C 0.78511 0.75487 0.10873 0.0
C37 C 0.88097 0.83411 0.12002 0.0
O38 O 0.81984 0.77134 0.12807 0.0
O39 O 0.8305 0.79803 0.14228 0.0
O40 O 0.81903 0.81884 0.10573 0.0
O41 O 0.81806 0.8223 0.12261 0.0
Co42 Co 0.02915 0.20954 0.38274 0.0
O43 O 0.01383 0.23312 0.38325 0.0
O44 O 0.05109 0.24058 0.39179 0.0
C45 C 0.98946 0.16976 0.38492 0.0
O46 O 0.04974 0.18834 0.38415 0.0
Co47 Co 0.01207 0.16833 0.36443 0.0
O48 O 0.02839 0.15186 0.37351 0.0
C49 C 0.05397 0.22599 0.36095 0.0
C50 C 0.03344 0.24841 0.3896 0.0
C51 C 0.04548 0.16498 0.38073 0.0
O52 O 0.05282 0.23069 0.37063 0.0
O53 O 0.03815 0.2027 0.35672 0.0
O54 O 0.00241 0.18498 0.39284 0.0
O55 O 0.99907 0.1807 0.37597 0.0
Co56 Co 0.79269 0.82131 0.38348 0.0
O57 O 0.76862 0.78247 0.38446 0.0
O58 O 0.76316 0.81343 0.39311 0.0
C59 C 0.83256 0.82132 0.385 0.0
O60 O 0.81439 0.86317 0.38446 0.0
Co61 Co 0.83161 0.84389 0.36446 0.0
O62 O 0.84915 0.87768 0.37302 0.0
C63 C 0.7734 0.82707 0.36188 0.0
C64 C 0.75443 0.7877 0.39104 0.0
C65 C 0.83712 0.8821 0.38052 0.0
O66 O 0.77013 0.82305 0.3717 0.0
O67 O 0.79605 0.8337 0.35727 0.0
O68 O 0.81833 0.81963 0.39317 0.0
O69 O 0.82051 0.81931 0.37623 0.0
Co70 Co 0.18202 0.97307 0.38182 0.0
O71 O 0.2208 0.98818 0.3833 0.0
O72 O 0.1893 0.95052 0.3912 0.0
C73 C 0.18126 0.01243 0.38385 0.0
O74 O 0.14008 0.95221 0.38218 0.0
Co75 Co 0.16149 0.99123 0.36268 0.0
O76 O 0.12547 0.96977 0.36963 0.0
C77 C 0.17882 0.95038 0.35992 0.0
C78 C 0.21516 0.96794 0.38952 0.0
C79 C 0.12086 0.95362 0.37726 0.0
O80 O 0.1818 0.95025 0.36978 0.0
O81 O 0.17266 0.96679 0.35536 0.0
O82 O 0.18235 0.99906 0.39186 0.0
O83 O 0.18428 0.00354 0.37497 0.0
Co84 Co 0.79315 0.97344 0.88145 0.0
O85 O 0.76921 0.98847 0.88187 0.0
O86 O 0.76248 0.95167 0.89059 0.0
C87 C 0.833 0.01308 0.8835 0.0
O88 O 0.81429 0.95288 0.88301 0.0
Co89 Co 0.83419 0.98956 0.86316 0.0
O90 O 0.85059 0.97315 0.87225 0.0
C91 C 0.7763 0.9483 0.85974 0.0
C92 C 0.75414 0.96883 0.88826 0.0
C93 C 0.83741 0.95653 0.87958 0.0
O94 O 0.77187 0.94945 0.86944 0.0
O95 O 0.79956 0.96395 0.85545 0.0
O96 O 0.81773 0.00045 0.89145 0.0
O97 O 0.82202 0.00329 0.87456 0.0
Co98 Co 0.02708 0.82129 0.88201 0.0
O99 O 0.01451 0.78276 0.88257 0.0
O100 O 0.04978 0.8146 0.8915 0.0
C101 C 0.98589 0.81845 0.88365 0.0
O102 O 0.04515 0.86291 0.88346 0.0
Co103 Co 0.00923 0.84368 0.86338 0.0
O104 O 0.0242 0.87698 0.87218 0.0
C105 C 0.05335 0.83077 0.86049 0.0
C106 C 0.03408 0.78879 0.88918 0.0
C107 C 0.04065 0.88153 0.8797 0.0
O108 O 0.0523 0.82561 0.87023 0.0
O109 O 0.03662 0.83664 0.85601 0.0
O110 O 0.99879 0.81699 0.89174 0.0
O111 O 0.99657 0.81795 0.87482 0.0
Co112 Co 0.18131 0.20963 0.88245 0.0
O113 O 0.22006 0.23481 0.88243 0.0
O114 O 0.18982 0.23972 0.89187 0.0
C115 C 0.18291 0.17063 0.88402 0.0
O116 O 0.13973 0.187 0.88445 0.0
Co117 Co 0.15637 0.16867 0.86409 0.0
O118 O 0.12424 0.15108 0.87351 0.0
C119 C 0.17126 0.22622 0.861 0.0
C120 C 0.21523 0.2491 0.8891 0.0
C121 C 0.12064 0.1636 0.88104 0.0
O122 O 0.1767 0.23051 0.87072 0.0
O123 O 0.16456 0.2033 0.8566 0.0
O124 O 0.18567 0.18552 0.89211 0.0
O125 O 0.18303 0.18167 0.87521 0.0
Co126 Co 0.96924 0.78985 0.61676 0.0
O127 O 0.98271 0.76468 0.61575 0.0
O128 O 0.94649 0.76042 0.60728 0.0
C129 C 0.00973 0.82889 0.61495 0.0
O130 O 0.95024 0.81259 0.61573 0.0
Co131 Co 0.9873 0.82988 0.63544 0.0
O132 O 0.97182 0.84804 0.62679 0.0
C133 C 0.94422 0.77239 0.63845 0.0
C134 C 0.9629 0.75091 0.60925 0.0
C135 C 0.9549 0.83583 0.61943 0.0
O136 O 0.94496 0.76829 0.62868 0.0
O137 O 0.9607 0.7952 0.64286 0.0
O138 O 0.99655 0.81458 0.60688 0.0
O139 O -0.00012 0.81734 0.6238 0.0
Co140 Co 0.20633 0.17922 0.61666 0.0
O141 O 0.23122 0.21799 0.61739 0.0
O142 O 0.2377 0.18903 0.60777 0.0
C143 C 0.16747 0.18094 0.61456 0.0
O144 O 0.18445 0.13788 0.61401 0.0
Co145 Co 0.16267 0.15158 0.63402 0.0
O146 O 0.14624 0.12121 0.62379 0.0
C147 C 0.21973 0.1656 0.63809 0.0
C148 C 0.2465 0.21409 0.61088 0.0
C149 C 0.16035 0.11852 0.61664 0.0
O150 O 0.22571 0.17337 0.62862 0.0
O151 O 0.196 0.15764 0.64202 0.0
O152 O 0.18335 0.1845 0.60671 0.0
O153 O 0.17728 0.17991 0.62351 0.0
Co154 Co 0.82032 0.02823 0.61517 0.0
O155 O 0.78141 0.01372 0.61514 0.0
O156 O 0.81115 0.04972 0.60597 0.0
C157 C 0.81955 0.98807 0.61334 0.0
O158 O 0.86191 0.04816 0.61318 0.0
Co159 Co 0.84617 0.01237 0.63324 0.0
O160 O 0.87821 0.02778 0.62376 0.0
C161 C 0.83066 0.0545 0.6367 0.0
C162 C 0.78575 0.03295 0.60859 0.0
C163 C 0.88137 0.04422 0.61639 0.0
O164 O 0.82436 0.05308 0.62706 0.0
O165 O 0.83816 0.03869 0.64092 0.0
O166 O 0.8167 0.00037 0.60533 0.0
O167 O 0.81924 0.9986 0.62222 0.0
Co168 Co 0.87554 0.36203 0.44811 0.0
O169 O 0.89888 0.34644 0.44734 0.0
O170 O 0.90623 0.3838 0.4389 0.0
C171 C 0.83542 0.32263 0.44613 0.0
O172 O 0.85457 0.3829 0.4469 0.0
Co173 Co 0.83509 0.34553 0.46666 0.0
O174 O 0.81831 0.36172 0.45765 0.0
C175 C 0.8932 0.38635 0.4699 0.0
C176 C 0.91403 0.36607 0.44098 0.0
C177 C 0.83125 0.37865 0.45037 0.0
O178 O 0.89737 0.38555 0.46015 0.0
O179 O 0.87003 0.37066 0.47424 0.0
O180 O 0.85036 0.33535 0.43811 0.0
O181 O 0.84685 0.33222 0.45502 0.0
Co182 Co 0.63656 0.5107 0.44915 0.0
O183 O 0.6507 0.54944 0.44832 0.0
O184 O 0.6139 0.51818 0.43987 0.0
C185 C 0.67663 0.51131 0.44706 0.0
O186 O 0.61679 0.46881 0.44829 0.0
Co187 Co 0.65546 0.49007 0.4681 0.0
O188 O 0.63477 0.45449 0.4608 0.0
C189 C 0.61305 0.5052 0.47106 0.0
C190 C 0.63059 0.54391 0.44206 0.0
C191 C 0.61871 0.44976 0.45312 0.0
O192 O 0.6129 0.50856 0.46122 0.0
O193 O 0.63009 0.4998 0.47555 0.0
O194 O 0.66336 0.51278 0.43909 0.0
O195 O 0.66722 0.51334 0.45596 0.0
Co196 Co 0.4859 0.12232 0.44854 0.0
O197 O 0.44754 0.09598 0.44777 0.0
O198 O 0.48015 0.0928 0.43926 0.0
C199 C 0.48298 0.1605 0.4465 0.0
O200 O 0.52758 0.14636 0.44747 0.0
Co201 Co 0.50636 0.16279 0.46716 0.0
O202 O 0.54024 0.18138 0.45867 0.0
C203 C 0.49309 0.10583 0.47045 0.0
C204 C 0.45423 0.08237 0.44146 0.0
C205 C 0.54561 0.16971 0.4513 0.0
O206 O 0.48958 0.10179 0.46063 0.0
O207 O 0.49806 0.12833 0.47479 0.0
O208 O 0.48203 0.14603 0.43851 0.0
O209 O 0.48174 0.14934 0.4554 0.0
Co210 Co 0.69701 0.5402 0.7173 0.0
O211 O 0.67956 0.56155 0.71915 0.0
O212 O 0.71886 0.57085 0.72652 0.0
C213 C 0.65919 0.49881 0.71954 0.0
O214 O 0.72009 0.52146 0.71725 0.0
Co215 Co 0.67942 0.50145 0.69816 0.0
O216 O 0.70325 0.48915 0.70473 0.0
C217 C 0.71778 0.56027 0.69523 0.0
C218 C 0.6998 0.57729 0.72518 0.0
C219 C 0.71966 0.50145 0.71222 0.0
O220 O 0.71816 0.56351 0.7051 0.0
O221 O 0.70206 0.53733 0.69076 0.0
O222 O 0.67265 0.51353 0.72749 0.0
O223 O 0.66704 0.51095 0.71066 0.0
Co224 Co 0.4543 0.15145 0.71595 0.0
O225 O 0.43317 0.11245 0.71741 0.0
O226 O 0.42382 0.14174 0.72535 0.0
C227 C 0.49608 0.15571 0.71775 0.0
O228 O 0.47272 0.19326 0.71635 0.0
Co229 Co 0.49227 0.17422 0.69664 0.0
O230 O 0.50457 0.20981 0.70365 0.0
C231 C 0.43323 0.15273 0.69411 0.0
C232 C 0.41732 0.11637 0.72361 0.0
C233 C 0.49252 0.21328 0.71139 0.0
O234 O 0.4305 0.14971 0.70399 0.0
O235 O 0.45604 0.16046 0.68946 0.0
O236 O 0.4814 0.15344 0.72586 0.0
O237 O 0.4836 0.1517 0.70896 0.0
Co238 Co 0.84687 0.30161 0.71632 0.0
O239 O 0.88561 0.31694 0.71789 0.0
O240 O 0.85426 0.27913 0.72574 0.0
C241 C 0.84592 0.34086 0.71834 0.0
O242 O 0.80488 0.28071 0.71647 0.0
Co243 Co 0.8275 0.32047 0.69699 0.0
O244 O 0.7912 0.29859 0.70369 0.0
C245 C 0.84487 0.27965 0.69437 0.0
C246 C 0.8801 0.29673 0.7241 0.0
C247 C 0.78606 0.28232 0.71132 0.0
O248 O 0.84713 0.27906 0.70426 0.0
O249 O 0.83919 0.29635 0.68977 0.0
O250 O 0.84673 0.32738 0.72637 0.0
O251 O 0.84936 0.33216 0.7095 0.0
Co252 Co 0.45783 0.30095 0.21654 0.0
O253 O 0.43662 0.31867 0.21809 0.0
O254 O 0.42746 0.28014 0.22604 0.0
C255 C 0.49932 0.33893 0.21831 0.0
O256 O 0.47663 0.27785 0.21686 0.0
Co257 Co 0.49579 0.31665 0.19723 0.0
O258 O 0.50916 0.29447 0.20442 0.0
C259 C 0.4368 0.27839 0.19474 0.0
C260 C 0.42106 0.29911 0.2244 0.0
C261 C 0.49701 0.27844 0.21203 0.0
O262 O 0.434 0.27875 0.20461 0.0
O263 O 0.45958 0.29364 0.19009 0.0
O264 O 0.48488 0.32621 0.22642 0.0
O265 O 0.48685 0.33028 0.20953 0.0
Co266 Co 0.69704 0.15345 0.21803 0.0
O267 O 0.6839 0.11482 0.21847 0.0
O268 O 0.71965 0.14616 0.22738 0.0
C269 C 0.65616 0.15125 0.21986 0.0
O270 O 0.71581 0.19512 0.21945 0.0
Co271 Co 0.67919 0.17659 0.19965 0.0
O272 O 0.69308 0.20895 0.20894 0.0
C273 C 0.72256 0.16264 0.19639 0.0
C274 C 0.70367 0.12048 0.22493 0.0
C275 C 0.71034 0.21347 0.21614 0.0
O276 O 0.72171 0.15729 0.2061 0.0
O277 O 0.7061 0.16915 0.19207 0.0
O278 O 0.66917 0.14969 0.22791 0.0
O279 O 0.66655 0.15058 0.21099 0.0
Co280 Co 0.84774 0.54428 0.2145 0.0
O281 O 0.88632 0.56897 0.21605 0.0
O282 O 0.85388 0.5734 0.22407 0.0
C283 C 0.84814 0.50474 0.21633 0.0
O284 O 0.80583 0.52181 0.2148 0.0
Co285 Co 0.82833 0.506 0.19525 0.0
O286 O 0.79323 0.48805 0.20302 0.0
C287 C 0.84346 0.5637 0.19272 0.0
C288 C 0.87992 0.58273 0.22241 0.0
C289 C 0.78759 0.49938 0.21044 0.0
O290 O 0.84673 0.56676 0.20258 0.0
O291 O 0.8378 0.54137 0.18807 0.0
O292 O 0.84881 0.51883 0.22441 0.0
O293 O 0.85125 0.51693 0.20751 0.0
Co294 Co 0.63898 0.12344 0.94769 0.0
O295 O 0.6507 0.09713 0.94579 0.0
O296 O 0.61401 0.09482 0.93833 0.0
C297 C 0.67985 0.16173 0.94547 0.0
O298 O 0.62146 0.14765 0.94786 0.0
Co299 Co 0.66124 0.16203 0.9668 0.0
O300 O 0.64527 0.18158 0.95934 0.0
C301 C 0.6173 0.10501 0.96975 0.0
C302 C 0.62964 0.08415 0.93975 0.0
C303 C 0.62735 0.17064 0.95218 0.0
O304 O 0.61608 0.10181 0.95987 0.0
O305 O 0.63522 0.1271 0.97422 0.0
O306 O 0.66534 0.14801 0.93752 0.0
O307 O 0.67108 0.14976 0.95434 0.0
Co308 Co 0.87586 0.51282 0.94764 0.0
O309 O 0.90106 0.55154 0.94751 0.0
O310 O 0.90597 0.52093 0.93829 0.0
C311 C 0.83701 0.5147 0.94594 0.0
O312 O 0.85334 0.47123 0.94586 0.0
Co313 Co 0.83431 0.48811 0.96584 0.0
O314 O 0.81649 0.4562 0.95631 0.0
C315 C 0.89198 0.50344 0.96924 0.0
C316 C 0.91536 0.54643 0.94094 0.0
C317 C 0.82955 0.45242 0.94902 0.0
O318 O 0.89659 0.50864 0.95952 0.0
O319 O 0.86887 0.4967 0.9735 0.0
O320 O 0.85173 0.51688 0.93786 0.0
O321 O 0.84798 0.5149 0.95477 0.0
Co322 Co 0.48914 0.36434 0.95086 0.0
O323 O 0.45026 0.3489 0.94946 0.0
O324 O 0.48147 0.38612 0.94125 0.0
C325 C 0.49032 0.32512 0.94918 0.0
O326 O 0.53103 0.38538 0.95032 0.0
Co327 Co 0.51073 0.34743 0.97007 0.0
O328 O 0.54627 0.36805 0.96271 0.0
C329 C 0.4929 0.38802 0.9726 0.0
C330 C 0.45568 0.36862 0.943 0.0
C331 C 0.55049 0.38397 0.95503 0.0
O332 O 0.48957 0.38777 0.96274 0.0
O333 O 0.49928 0.37184 0.97721 0.0
O334 O 0.48881 0.33788 0.94106 0.0
O335 O 0.48734 0.3344 0.95797 0.0
Co336 Co 0.54429 0.69519 0.78231 0.0
O337 O 0.56765 0.6796 0.78185 0.0
O338 O 0.57498 0.71648 0.77306 0.0
C339 C 0.50413 0.65569 0.7805 0.0
O340 O 0.52336 0.716 0.78076 0.0
Co341 Co 0.50385 0.6799 0.80078 0.0
O342 O 0.48643 0.69425 0.79118 0.0
C343 C 0.56193 0.72108 0.80389 0.0
C344 C 0.58285 0.69893 0.77539 0.0
C345 C 0.49958 0.71109 0.78391 0.0
O346 O 0.56609 0.71941 0.7942 0.0
O347 O 0.53873 0.70583 0.80828 0.0
O348 O 0.51916 0.66799 0.77245 0.0
O349 O 0.5155 0.66573 0.78937 0.0
Co350 Co 0.30199 0.84527 0.78296 0.0
O351 O 0.31995 0.88402 0.78086 0.0
O352 O 0.28054 0.85414 0.77354 0.0
C353 C 0.33929 0.84081 0.78096 0.0
O354 O 0.27841 0.80345 0.7833 0.0
Co355 Co 0.31895 0.82467 0.80239 0.0
O356 O 0.29572 0.78843 0.79579 0.0
C357 C 0.28147 0.84629 0.80491 0.0
C358 C 0.29979 0.87961 0.7748 0.0
C359 C 0.2791 0.784 0.78834 0.0
O360 O 0.28109 0.8485 0.79501 0.0
O361 O 0.29689 0.83896 0.80955 0.0
O362 O 0.32599 0.8419 0.77292 0.0
O363 O 0.33172 0.84591 0.78975 0.0
Co364 Co 0.15461 0.45883 0.78215 0.0
O365 O 0.1161 0.43291 0.78149 0.0
O366 O 0.14801 0.42974 0.77248 0.0
C367 C 0.15183 0.49727 0.78082 0.0
O368 O 0.19632 0.48247 0.78092 0.0
Co369 Co 0.17628 0.49802 0.80112 0.0
O370 O 0.20991 0.51681 0.7925 0.0
C371 C 0.16204 0.44051 0.80366 0.0
C372 C 0.12223 0.41944 0.7749 0.0
C373 C 0.21476 0.5054 0.78489 0.0
O374 O 0.15833 0.43724 0.79383 0.0
O375 O 0.16747 0.4628 0.80829 0.0
O376 O 0.15068 0.48345 0.77259 0.0
O377 O 0.15104 0.48554 0.78953 0.0
Co378 Co 0.36421 0.87538 0.04823 0.0
O379 O 0.35017 0.90011 0.04911 0.0
O380 O 0.38591 0.90458 0.05797 0.0
C381 C 0.32383 0.83598 0.04964 0.0
O382 O 0.38354 0.85289 0.0494 0.0
Co383 Co 0.34775 0.83645 0.02921 0.0
O384 O 0.36353 0.81853 0.03779 0.0
C385 C 0.39023 0.89433 0.02675 0.0
C386 C 0.36933 0.91379 0.05585 0.0
C387 C 0.37965 0.83018 0.04542 0.0
O388 O 0.38919 0.89767 0.03656 0.0
O389 O 0.37399 0.87182 0.02211 0.0
O390 O 0.33631 0.85015 0.05782 0.0
O391 O 0.33426 0.84789 0.04089 0.0
Co392 Co 0.12227 0.48677 0.04954 0.0
O393 O 0.09607 0.44837 0.05044 0.0
O394 O 0.09349 0.48093 0.05924 0.0
C395 C 0.16048 0.48367 0.05103 0.0
O396 O 0.14626 0.52847 0.05055 0.0
Co397 Co 0.16146 0.50745 0.03055 0.0
O398 O 0.18068 0.54126 0.03905 0.0
C399 C 0.10416 0.49401 0.02797 0.0
C400 C 0.08301 0.45501 0.05704 0.0
C401 C 0.16935 0.54656 0.04657 0.0
O402 O 0.1008 0.49038 0.03781 0.0
O403 O 0.12639 0.49911 0.02337 0.0
O404 O 0.14665 0.48288 0.0592 0.0
O405 O 0.14883 0.48263 0.04227 0.0
Co406 Co 0.5096 0.63392 0.05271 0.0
O407 O 0.54793 0.64672 0.0545 0.0
O408 O 0.51431 0.6097 0.06211 0.0
C409 C 0.51131 0.67448 0.0548 0.0
O410 O 0.46778 0.61525 0.05269 0.0
Co411 Co 0.49157 0.65479 0.03364 0.0
O412 O 0.45605 0.63764 0.04114 0.0
C413 C 0.50655 0.61215 0.0307 0.0
C414 C 0.54049 0.62589 0.06061 0.0
C415 C 0.44991 0.62002 0.04836 0.0
O416 O 0.5087 0.61105 0.04058 0.0
O417 O 0.50171 0.62964 0.02625 0.0
O418 O 0.51097 0.66031 0.0628 0.0
O419 O 0.51427 0.66547 0.04595 0.0
Co420 Co 0.12144 0.63632 0.54923 0.0
O421 O 0.09619 0.6498 0.54912 0.0
O422 O 0.09099 0.61436 0.55845 0.0
C423 C 0.16036 0.67695 0.55108 0.0
O424 O 0.144 0.61736 0.55129 0.0
Co425 Co 0.16342 0.65295 0.5312 0.0
O426 O 0.18119 0.63945 0.54101 0.0
C427 C 0.10608 0.61001 0.5277 0.0
C428 C 0.08165 0.63042 0.55567 0.0
C429 C 0.16803 0.62268 0.54829 0.0
O430 O 0.10113 0.61121 0.53734 0.0
O431 O 0.12932 0.62615 0.52349 0.0
O432 O 0.14515 0.66454 0.55907 0.0
O433 O 0.14969 0.66627 0.54219 0.0
Co434 Co 0.36335 0.48688 0.54949 0.0
O435 O 0.34811 0.44837 0.5518 0.0
O436 O 0.38621 0.4808 0.55916 0.0
C437 C 0.32439 0.48845 0.55135 0.0
O438 O 0.38429 0.5288 0.54895 0.0
Co439 Co 0.34398 0.50442 0.52984 0.0
O440 O 0.3653 0.54127 0.53621 0.0
C441 C 0.38473 0.48675 0.52761 0.0
C442 C 0.36854 0.45477 0.55801 0.0
C443 C 0.3821 0.54714 0.54371 0.0
O444 O 0.38546 0.48518 0.53753 0.0
O445 O 0.36799 0.49217 0.52289 0.0
O446 O 0.33814 0.48841 0.55942 0.0
O447 O 0.3325 0.48367 0.54261 0.0
Co448 Co 0.51005 0.87525 0.55095 0.0
O449 O 0.5484 0.90161 0.55175 0.0
O450 O 0.51596 0.90368 0.56083 0.0
C451 C 0.51339 0.83709 0.55202 0.0
O452 O 0.46839 0.85096 0.55208 0.0
Co453 Co 0.48913 0.83662 0.53178 0.0
O454 O 0.45556 0.817 0.54038 0.0
C455 C 0.50221 0.8939 0.52957 0.0
C456 C 0.54183 0.91445 0.55848 0.0
C457 C 0.45031 0.82796 0.54804 0.0
O458 O 0.50598 0.89702 0.53941 0.0
O459 O 0.49721 0.87185 0.52484 0.0
O460 O 0.51433 0.8505 0.56035 0.0
O461 O 0.51422 0.84918 0.5434 0.0
Co462 Co 0.30294 0.45682 0.28236 0.0
O463 O 0.32039 0.43544 0.28065 0.0
O464 O 0.28126 0.42599 0.27314 0.0
C465 C 0.34074 0.49817 0.28006 0.0
O466 O 0.28004 0.47588 0.28237 0.0
Co467 Co 0.3209 0.4954 0.30158 0.0
O468 O 0.29843 0.50879 0.29465 0.0
C469 C 0.28194 0.43676 0.30443 0.0
C470 C 0.30033 0.41959 0.27458 0.0
C471 C 0.28151 0.49658 0.28729 0.0
O472 O 0.28169 0.43363 0.29456 0.0
O473 O 0.29771 0.45961 0.30895 0.0
O474 O 0.32733 0.48327 0.27214 0.0
O475 O 0.33296 0.4861 0.28896 0.0
Co476 Co 0.54063 0.84619 0.28413 0.0
O477 O 0.56596 0.88489 0.28366 0.0
O478 O 0.57038 0.85373 0.27469 0.0
C479 C 0.5017 0.84793 0.28246 0.0
O480 O 0.51772 0.80455 0.28253 0.0
Co481 Co 0.50035 0.82277 0.30271 0.0
O482 O 0.48224 0.79 0.29363 0.0
C483 C 0.55773 0.83695 0.30565 0.0
C484 C 0.57992 0.87945 0.27704 0.0
C485 C 0.49438 0.78581 0.28611 0.0
O486 O 0.5618 0.84223 0.29592 0.0
O487 O 0.53496 0.83052 0.31012 0.0
O488 O 0.51639 0.85001 0.27439 0.0
O489 O 0.51291 0.84863 0.2913 0.0
Co490 Co 0.15292 0.69515 0.28235 0.0
O491 O 0.11435 0.68246 0.28216 0.0
O492 O 0.14546 0.71715 0.27276 0.0
C493 C 0.15025 0.65398 0.28098 0.0
O494 O 0.1945 0.71324 0.28061 0.0
Co495 Co 0.1764 0.67843 0.30098 0.0
O496 O 0.20898 0.69246 0.29182 0.0
C497 C 0.16329 0.72249 0.3037 0.0
C498 C 0.11988 0.70165 0.27544 0.0
C499 C 0.2132 0.70865 0.28424 0.0
O500 O 0.15781 0.72105 0.29397 0.0
O501 O 0.16941 0.70601 0.30823 0.0
O502 O 0.14819 0.66628 0.27281 0.0
O503 O 0.15012 0.66516 0.28973 0.0
H504 H 0.22072 0.06711 0.1579 0.0
H505 H 0.25589 0.10602 0.16775 0.0
H506 H 0.30957 0.1315 0.1412 0.0
H507 H 0.27466 0.09294 0.13126 0.0
H508 H 0.31096 0.12031 0.17218 0.0
H509 H 0.30579 0.20064 0.14893 0.0
H510 H 0.27949 0.16489 0.14841 0.0
H511 H 0.31111 0.17678 0.14145 0.0
C512 C 0.24003 0.0809 0.15415 0.0
C513 C 0.24472 0.07695 0.14374 0.0
C514 C 0.26008 0.10314 0.15979 0.0
C515 C 0.28506 0.12189 0.15513 0.0
C516 C 0.29016 0.11759 0.14487 0.0
H517 H 0.43509 0.26613 0.17407 0.0
H518 H 0.39727 0.22852 0.16464 0.0
C519 C 0.27019 0.09539 0.13922 0.0
C520 C 0.30599 0.14587 0.161 0.0
H521 H 0.34245 0.21597 0.16102 0.0
C522 C 0.31773 0.14124 0.1698 0.0
C523 C 0.31474 0.17311 0.15785 0.0
C524 C 0.30199 0.17927 0.1487 0.0
C525 C 0.33856 0.16317 0.17539 0.0
C526 C 0.34748 0.19042 0.17218 0.0
C527 C 0.33557 0.19505 0.16344 0.0
C528 C 0.36953 0.21435 0.17772 0.0
C529 C 0.3514 0.15697 0.1845 0.0
C530 C 0.36609 0.21935 0.1881 0.0
C531 C 0.38763 0.2408 0.19352 0.0
C532 C 0.41301 0.25779 0.18864 0.0
C533 C 0.41591 0.25346 0.17809 0.0
C534 C 0.39432 0.23195 0.17268 0.0
H535 H 0.34694 0.13537 0.18441 0.0
H536 H 0.37401 0.17082 0.18457 0.0
H537 H 0.34299 0.16025 0.19179 0.0
H538 H 0.34688 0.20636 0.19206 0.0
H539 H 0.38452 0.24364 0.20161 0.0
H540 H 0.76006 0.14814 0.20262 0.0
H541 H 0.79839 0.15109 0.19274 0.0
H542 H 0.77351 0.17937 0.16606 0.0
H543 H 0.73518 0.17691 0.17592 0.0
H544 H 0.79869 0.12521 0.1743 0.0
H545 H 0.8543 0.23872 0.16999 0.0
H546 H 0.82644 0.22085 0.17905 0.0
H547 H 0.81938 0.22153 0.16552 0.0
C548 C 0.76261 0.15497 0.19464 0.0
C549 C 0.74459 0.16252 0.1901 0.0
C550 C 0.78457 0.1566 0.18901 0.0
C551 C 0.78907 0.16591 0.17874 0.0
C552 C 0.77071 0.17269 0.17405 0.0
H553 H 0.91149 0.19037 0.13293 0.0
H554 H 0.87342 0.18839 0.1427 0.0
C555 C 0.74869 0.17107 0.17968 0.0
C556 C 0.81301 0.16845 0.17299 0.0
H557 H 0.8728 0.21474 0.16115 0.0
C558 C 0.81494 0.14478 0.17145 0.0
C559 C 0.83417 0.19404 0.1693 0.0
C560 C 0.83371 0.22031 0.17111 0.0
C561 C 0.8373 0.14592 0.16616 0.0
C562 C 0.8585 0.17152 0.1625 0.0
C563 C 0.85654 0.19518 0.16401 0.0
C564 C 0.88256 0.17401 0.15685 0.0
C565 C 0.83775 0.11965 0.16435 0.0
C566 C 0.90078 0.16727 0.16168 0.0
C567 C 0.92264 0.16834 0.15612 0.0
C568 C 0.92672 0.17628 0.14563 0.0
C569 C 0.90894 0.18397 0.14097 0.0
C570 C 0.88713 0.1829 0.14653 0.0
H571 H 0.81714 0.10124 0.16543 0.0
H572 H 0.84511 0.11914 0.15642 0.0
H573 H 0.85201 0.11837 0.16997 0.0
H574 H 0.8979 0.16089 0.16971 0.0
H575 H 0.93598 0.16242 0.15998 0.0
H576 H 0.85742 0.61506 0.1996 0.0
H577 H 0.85377 0.65075 0.19023 0.0
H578 H 0.82797 0.60022 0.16281 0.0
H579 H 0.83119 0.56407 0.17214 0.0
H580 H 0.87905 0.67923 0.17176 0.0
H581 H 0.76552 0.61711 0.16804 0.0
H582 H 0.78473 0.60801 0.17679 0.0
H583 H 0.78395 0.60101 0.16317 0.0
C584 C 0.85112 0.6115 0.19155 0.0
C585 C 0.8443 0.5865 0.18666 0.0
C586 C 0.84907 0.63198 0.18622 0.0
C587 C 0.84008 0.62786 0.17591 0.0
C588 C 0.83441 0.60351 0.17084 0.0
H589 H 0.80854 0.72308 0.13146 0.0
H590 H 0.81206 0.68769 0.14109 0.0
C591 C 0.83646 0.58297 0.17617 0.0
C592 C 0.83619 0.64892 0.17056 0.0
H593 H 0.78751 0.66013 0.15952 0.0
C594 C 0.85905 0.67514 0.1691 0.0
C595 C 0.81002 0.64345 0.16716 0.0
C596 C 0.78457 0.61596 0.16893 0.0
C597 C 0.85655 0.69594 0.16411 0.0
C598 C 0.83038 0.69045 0.16069 0.0
C599 C 0.80751 0.66425 0.16218 0.0
C600 C 0.8265 0.71138 0.15522 0.0
C601 C 0.88204 0.72337 0.1623 0.0
C602 C 0.83261 0.7361 0.16009 0.0
C603 C 0.83067 0.75649 0.1546 0.0
C604 C 0.82246 0.75243 0.14415 0.0
C605 C 0.81512 0.72706 0.13947 0.0
C606 C 0.8171 0.70675 0.14496 0.0
H607 H 0.90105 0.72216 0.16317 0.0
H608 H 0.88185 0.7313 0.15444 0.0
H609 H 0.88276 0.73838 0.16806 0.0
H610 H 0.83933 0.73979 0.16809 0.0
H611 H 0.83634 0.77569 0.15847 0.0
H612 H 0.06794 0.22343 0.34075 0.0
H613 H 0.10743 0.25858 0.33114 0.0
H614 H 0.12945 0.31355 0.3572 0.0
H615 H 0.09031 0.27866 0.36691 0.0
H616 H 0.12212 0.31332 0.32594 0.0
H617 H 0.19956 0.30971 0.35156 0.0
H618 H 0.16379 0.28339 0.35165 0.0
H619 H 0.17479 0.31544 0.35819 0.0
C620 C 0.08103 0.24305 0.34442 0.0
C621 C 0.07603 0.24807 0.35465 0.0
C622 C 0.10362 0.26308 0.33892 0.0
C623 C 0.12164 0.28838 0.34355 0.0
C624 C 0.11613 0.29389 0.35358 0.0
H625 H 0.26863 0.43668 0.3249 0.0
H626 H 0.23017 0.39976 0.33433 0.0
C627 C 0.0936 0.27393 0.35909 0.0
C628 C 0.1463 0.30906 0.33792 0.0
H629 H 0.21636 0.3453 0.339 0.0
C630 C 0.14274 0.32021 0.32874 0.0
C631 C 0.17314 0.31798 0.34164 0.0
C632 C 0.17818 0.30587 0.35125 0.0
C633 C 0.16534 0.34059 0.32328 0.0
C634 C 0.19219 0.34959 0.32701 0.0
C635 C 0.19575 0.33833 0.33617 0.0
C636 C 0.21679 0.37099 0.32157 0.0
C637 C 0.16024 0.35281 0.31371 0.0
C638 C 0.22258 0.36665 0.31141 0.0
C639 C 0.24451 0.38767 0.30599 0.0
C640 C 0.26121 0.41342 0.31066 0.0
C641 C 0.2562 0.41717 0.32105 0.0
C642 C 0.23419 0.39612 0.32645 0.0
H643 H 0.13876 0.34867 0.31336 0.0
H644 H 0.17437 0.37536 0.31342 0.0
H645 H 0.16395 0.34361 0.30673 0.0
H646 H 0.20979 0.34715 0.3076 0.0
H647 H 0.2479 0.3839 0.29805 0.0
H648 H 0.77219 0.83709 0.34111 0.0
H649 H 0.73513 0.83787 0.33149 0.0
H650 H 0.68548 0.81473 0.35913 0.0
H651 H 0.72212 0.8135 0.3688 0.0
H652 H 0.65668 0.78619 0.34124 0.0
H653 H 0.71572 0.89891 0.33474 0.0
H654 H 0.73257 0.8807 0.33044 0.0
H655 H 0.72618 0.88191 0.34402 0.0
C656 C 0.75334 0.83198 0.34515 0.0
C657 C 0.7503 0.82548 0.35577 0.0
C658 C 0.73225 0.83261 0.33964 0.0
C659 C 0.70782 0.82689 0.34466 0.0
C660 C 0.70429 0.81942 0.35514 0.0
H661 H 0.55743 0.82449 0.32626 0.0
H662 H 0.59363 0.82217 0.33593 0.0
C663 C 0.72531 0.81876 0.36065 0.0
C664 C 0.68601 0.82903 0.33904 0.0
H665 H 0.67254 0.87435 0.32643 0.0
C666 C 0.66007 0.80546 0.33802 0.0
C667 C 0.69055 0.85424 0.33489 0.0
C668 C 0.71767 0.88047 0.33613 0.0
C669 C 0.63864 0.80629 0.33277 0.0
C670 C 0.6432 0.8315 0.32861 0.0
C671 C 0.66913 0.85508 0.32965 0.0
C672 C 0.62153 0.83375 0.32293 0.0
C673 C 0.61154 0.78007 0.33151 0.0
C674 C 0.62562 0.84196 0.31252 0.0
C675 C 0.60513 0.84355 0.307 0.0
C676 C 0.58009 0.83703 0.31178 0.0
C677 C 0.57636 0.82951 0.32231 0.0
C678 C 0.59694 0.82796 0.32783 0.0
H679 H 0.61351 0.76162 0.33288 0.0
H680 H 0.59664 0.77978 0.33721 0.0
H681 H 0.60302 0.77867 0.32363 0.0
H682 H 0.64455 0.8467 0.30861 0.0
H683 H 0.60884 0.84952 0.29892 0.0
H684 H 0.16705 0.93816 0.33929 0.0
H685 H 0.16538 0.89973 0.32976 0.0
H686 H 0.19305 0.87611 0.35695 0.0
H687 H 0.1946 0.91417 0.36658 0.0
H688 H 0.20647 0.88535 0.32594 0.0
H689 H 0.12035 0.8065 0.34946 0.0
H690 H 0.12985 0.84227 0.3496 0.0
H691 H 0.14953 0.83081 0.35685 0.0
C692 C 0.17303 0.92497 0.34323 0.0
C693 C 0.18067 0.92914 0.35374 0.0
C694 C 0.17201 0.90299 0.33777 0.0
C695 C 0.17853 0.88479 0.34273 0.0
C696 C 0.18734 0.88958 0.35306 0.0
H697 H 0.17757 0.73592 0.32411 0.0
H698 H 0.18146 0.77546 0.33354 0.0
C699 C 0.18834 0.91147 0.35853 0.0
C700 C 0.17569 0.8605 0.33716 0.0
H701 H 0.14099 0.79039 0.33748 0.0
C702 C 0.1921 0.86458 0.32842 0.0
C703 C 0.15691 0.83345 0.34045 0.0
C704 C 0.13796 0.82787 0.34955 0.0
C705 C 0.19058 0.84227 0.32297 0.0
C706 C 0.17179 0.81523 0.32626 0.0
C707 C 0.1554 0.81116 0.335 0.0
C708 C 0.16861 0.79088 0.32063 0.0
C709 C 0.20945 0.84782 0.31385 0.0
C710 C 0.15942 0.78611 0.31034 0.0
C711 C 0.15712 0.76357 0.30493 0.0
C712 C 0.16386 0.74522 0.30973 0.0
C713 C 0.17228 0.74963 0.32016 0.0
C714 C 0.17455 0.77223 0.32556 0.0
H715 H 0.22715 0.86913 0.31397 0.0
H716 H 0.21738 0.83328 0.31374 0.0
H717 H 0.19786 0.84507 0.30657 0.0
H718 H 0.15413 0.79994 0.30648 0.0
H719 H 0.15035 0.76076 0.29695 0.0
H720 H 0.61428 0.75667 0.79738 0.0
H721 H 0.65083 0.7948 0.80696 0.0
H722 H 0.5982 0.77371 0.83372 0.0
H723 H 0.56139 0.73524 0.82423 0.0
H724 H 0.64804 0.83925 0.81551 0.0
H725 H 0.66988 0.78208 0.84556 0.0
H726 H 0.65094 0.76598 0.83389 0.0
H727 H 0.63438 0.77265 0.84448 0.0
C728 C 0.61045 0.75986 0.80534 0.0
C729 C 0.58479 0.7428 0.81003 0.0
C730 C 0.63141 0.78174 0.81079 0.0
C731 C 0.62729 0.78694 0.82106 0.0
C732 C 0.60194 0.76976 0.82585 0.0
H733 H 0.72376 0.91246 0.86595 0.0
H734 H 0.68769 0.87445 0.85617 0.0
C735 C 0.58089 0.74782 0.8204 0.0
C736 C 0.64912 0.81113 0.82656 0.0
H737 H 0.69133 0.83036 0.84764 0.0
C738 C 0.65763 0.83735 0.82251 0.0
C739 C 0.66152 0.80851 0.83569 0.0
C740 C 0.65395 0.7808 0.84013 0.0
C741 C 0.67789 0.86111 0.82746 0.0
C742 C 0.69022 0.85849 0.8366 0.0
C743 C 0.68177 0.83227 0.84064 0.0
C744 C 0.71178 0.88268 0.8422 0.0
C745 C 0.68549 0.88883 0.82302 0.0
C746 C 0.73726 0.90006 0.83754 0.0
C747 C 0.75804 0.92195 0.84311 0.0
C748 C 0.75372 0.9267 0.85346 0.0
C749 C 0.72791 0.90947 0.858 0.0
C750 C 0.70722 0.88765 0.85244 0.0
H751 H 0.66973 0.88753 0.81749 0.0
H752 H 0.68818 0.90354 0.82926 0.0
H753 H 0.70524 0.89712 0.81878 0.0
H754 H 0.74132 0.8963 0.82969 0.0
H755 H 0.77767 0.93468 0.83938 0.0
H756 H 0.06557 0.84357 0.8399 0.0
H757 H 0.10478 0.84714 0.8303 0.0
H758 H 0.13201 0.82386 0.85771 0.0
H759 H 0.09289 0.81979 0.86731 0.0
H760 H 0.16063 0.88164 0.83477 0.0
H761 H 0.13289 0.77215 0.83576 0.0
H762 H 0.10856 0.78323 0.8387 0.0
H763 H 0.13305 0.78607 0.84829 0.0
C764 C 0.07969 0.83888 0.84386 0.0
C765 C 0.07595 0.8313 0.85438 0.0
C766 C 0.10213 0.84102 0.83837 0.0
C767 C 0.12108 0.83545 0.84327 0.0
C768 C 0.11733 0.82773 0.85373 0.0
H769 H 0.27105 0.8382 0.82577 0.0
H770 H 0.23356 0.83839 0.83529 0.0
C771 C 0.09495 0.82554 0.85921 0.0
C772 C 0.1454 0.83867 0.8376 0.0
H773 H 0.1783 0.80421 0.83036 0.0
C774 C 0.16445 0.8647 0.83374 0.0
C775 C 0.15032 0.81653 0.83631 0.0
C776 C 0.13001 0.78786 0.8399 0.0
C777 C 0.18864 0.86932 0.82879 0.0
C778 C 0.19364 0.84722 0.82758 0.0
C779 C 0.17451 0.82117 0.83139 0.0
C780 C 0.21814 0.85028 0.8221 0.0
C781 C 0.20888 0.8979 0.82511 0.0
C782 C 0.2221 0.85731 0.81157 0.0
C783 C 0.24353 0.85732 0.80611 0.0
C784 C 0.2613 0.85003 0.81106 0.0
C785 C 0.25783 0.84394 0.82171 0.0
C786 C 0.23636 0.84396 0.82716 0.0
H787 H 0.20578 0.91368 0.82908 0.0
H788 H 0.23034 0.90268 0.82643 0.0
H789 H 0.20603 0.89935 0.81668 0.0
H790 H 0.20799 0.86178 0.80747 0.0
H791 H 0.24552 0.86209 0.79792 0.0
H792 H 0.15875 0.22554 0.84038 0.0
H793 H 0.15765 0.26207 0.83048 0.0
H794 H 0.18287 0.31366 0.85762 0.0
H795 H 0.18448 0.27765 0.86754 0.0
H796 H 0.12554 0.28624 0.83454 0.0
H797 H 0.23653 0.36387 0.83556 0.0
H798 H 0.22362 0.32822 0.83872 0.0
H799 H 0.22192 0.35099 0.84809 0.0
C800 C 0.16435 0.24475 0.84423 0.0
C801 C 0.17179 0.24863 0.85476 0.0
C802 C 0.16364 0.26557 0.83856 0.0
C803 C 0.17052 0.29066 0.84328 0.0
C804 C 0.17803 0.29465 0.85376 0.0
H805 H 0.1731 0.43987 0.82435 0.0
H806 H 0.17357 0.40275 0.83406 0.0
C807 C 0.17878 0.27392 0.85944 0.0
C808 C 0.16879 0.31234 0.8374 0.0
H809 H 0.20639 0.37913 0.82962 0.0
C810 C 0.14323 0.30651 0.8334 0.0
C811 C 0.19191 0.33876 0.83597 0.0
C812 C 0.22011 0.34583 0.83972 0.0
C813 C 0.14005 0.3266 0.82816 0.0
C814 C 0.16314 0.35306 0.82678 0.0
C815 C 0.18871 0.35886 0.83075 0.0
C816 C 0.1614 0.3749 0.82103 0.0
C817 C 0.1119 0.31954 0.82435 0.0
C818 C 0.15442 0.37149 0.8105 0.0
C819 C 0.15409 0.39259 0.80493 0.0
C820 C 0.16093 0.41765 0.80977 0.0
C821 C 0.16766 0.42087 0.82038 0.0
C822 C 0.168 0.39971 0.82593 0.0
H823 H 0.09542 0.30117 0.82834 0.0
H824 H 0.1082 0.33698 0.82552 0.0
H825 H 0.11041 0.31498 0.81594 0.0
H826 H 0.14976 0.35268 0.80652 0.0
H827 H 0.14885 0.38934 0.79678 0.0
H828 H 0.72831 0.56092 0.67444 0.0
H829 H 0.76612 0.59759 0.66468 0.0
H830 H 0.79206 0.64871 0.69194 0.0
H831 H 0.75421 0.61244 0.70175 0.0
H832 H 0.79351 0.67667 0.67349 0.0
H833 H 0.84622 0.61603 0.669 0.0
H834 H 0.81132 0.5992 0.66449 0.0
H835 H 0.81845 0.60668 0.67805 0.0
C836 C 0.74181 0.58006 0.67834 0.0
C837 C 0.73833 0.58356 0.68892 0.0
C838 C 0.76354 0.60092 0.67276 0.0
C839 C 0.78219 0.62558 0.67766 0.0
C840 C 0.778 0.62971 0.68805 0.0
H841 H 0.9321 0.77356 0.659 0.0
H842 H 0.89325 0.73803 0.66874 0.0
C843 C 0.75632 0.6089 0.69364 0.0
C844 C 0.80657 0.6468 0.67205 0.0
H845 H 0.86578 0.65861 0.6602 0.0
C846 C 0.80937 0.6728 0.6706 0.0
C847 C 0.82724 0.64165 0.66835 0.0
C848 C 0.8259 0.61448 0.67011 0.0
C849 C 0.83207 0.69367 0.66534 0.0
C850 C 0.8527 0.68847 0.66161 0.0
C851 C 0.84992 0.6625 0.66309 0.0
C852 C 0.87702 0.70952 0.65592 0.0
C853 C 0.83348 0.72087 0.6636 0.0
C854 C 0.88132 0.70481 0.64561 0.0
C855 C 0.90358 0.72493 0.64003 0.0
C856 C 0.9221 0.75019 0.64468 0.0
C857 C 0.91822 0.75445 0.65515 0.0
C858 C 0.8959 0.73426 0.66071 0.0
H859 H 0.81319 0.71936 0.66474 0.0
H860 H 0.84811 0.73611 0.66921 0.0
H861 H 0.84091 0.72867 0.65567 0.0
H862 H 0.86708 0.68574 0.6418 0.0
H863 H 0.90594 0.72082 0.63201 0.0
H864 H 0.38029 0.132 0.70078 0.0
H865 H 0.34207 0.13074 0.69134 0.0
H866 H 0.39363 0.16481 0.66443 0.0
H867 H 0.43192 0.1658 0.67372 0.0
H868 H 0.34134 0.17578 0.68355 0.0
H869 H 0.32411 0.10187 0.65204 0.0
H870 H 0.3441 0.10499 0.66344 0.0
H871 H 0.35909 0.12916 0.65298 0.0
C872 C 0.38346 0.13885 0.69279 0.0
C873 C 0.40926 0.14904 0.68802 0.0
C874 C 0.36156 0.13813 0.68742 0.0
C875 C 0.36493 0.14745 0.67716 0.0
C876 C 0.3904 0.15699 0.67227 0.0
H877 H 0.27311 0.18319 0.63285 0.0
H878 H 0.30736 0.1786 0.64284 0.0
C879 C 0.41233 0.15764 0.67762 0.0
C880 C 0.34243 0.14906 0.67184 0.0
H881 H 0.3026 0.12896 0.65009 0.0
C882 C 0.33265 0.16533 0.67628 0.0
C883 C 0.33119 0.13543 0.66236 0.0
C884 C 0.33996 0.11667 0.65747 0.0
C885 C 0.31249 0.169 0.67135 0.0
C886 C 0.3016 0.15575 0.66179 0.0
C887 C 0.31109 0.13917 0.65741 0.0
C888 C 0.28088 0.15938 0.65603 0.0
C889 C 0.30362 0.18769 0.67623 0.0
C890 C 0.25463 0.15019 0.66017 0.0
C891 C 0.2349 0.15283 0.65448 0.0
C892 C 0.24106 0.16456 0.64452 0.0
C893 C 0.26756 0.17403 0.64048 0.0
C894 C 0.2872 0.17139 0.64617 0.0
H895 H 0.3182 0.20098 0.68231 0.0
H896 H 0.30177 0.20097 0.6703 0.0
H897 H 0.28319 0.17506 0.67989 0.0
H898 H 0.24923 0.14048 0.66772 0.0
H899 H 0.21468 0.14515 0.65781 0.0
H900 H 0.83375 0.26802 0.67369 0.0
H901 H 0.83235 0.22987 0.66407 0.0
H902 H 0.85932 0.20553 0.69127 0.0
H903 H 0.86052 0.2433 0.701 0.0
H904 H 0.87308 0.21572 0.66016 0.0
H905 H 0.78728 0.13601 0.68354 0.0
H906 H 0.79674 0.17175 0.68391 0.0
H907 H 0.81648 0.16005 0.69098 0.0
C908 C 0.83963 0.25473 0.67761 0.0
C909 C 0.84696 0.25859 0.68816 0.0
C910 C 0.83877 0.23291 0.6721 0.0
C911 C 0.84515 0.21458 0.67703 0.0
C912 C 0.85368 0.21909 0.6874 0.0
H913 H 0.84546 0.06717 0.65711 0.0
H914 H 0.84908 0.10608 0.66693 0.0
C915 C 0.85449 0.24081 0.69293 0.0
C916 C 0.84246 0.19047 0.67137 0.0
H917 H 0.8079 0.12036 0.67136 0.0
C918 C 0.85879 0.19487 0.66258 0.0
C919 C 0.82377 0.16331 0.67457 0.0
C920 C 0.80487 0.15738 0.68371 0.0
C921 C 0.85721 0.17277 0.65696 0.0
C922 C 0.83849 0.14563 0.66015 0.0
C923 C 0.82225 0.14122 0.66897 0.0
C924 C 0.83524 0.12152 0.65434 0.0
C925 C 0.87588 0.17862 0.64776 0.0
C926 C 0.82554 0.11697 0.64412 0.0
C927 C 0.82335 0.09477 0.6385 0.0
C928 C 0.83077 0.0766 0.643 0.0
C929 C 0.83964 0.08076 0.65338 0.0
C930 C 0.84178 0.10299 0.659 0.0
H931 H 0.89347 0.2 0.64787 0.0
H932 H 0.88398 0.16423 0.64752 0.0
H933 H 0.86407 0.17586 0.64053 0.0
H934 H 0.81984 0.13073 0.64047 0.0
H935 H 0.81625 0.09216 0.63056 0.0
H936 H 0.05336 0.57361 0.53355 0.0
H937 H 0.01805 0.53551 0.52355 0.0
H938 H 0.07309 0.55834 0.49747 0.0
H939 H 0.10886 0.59644 0.50746 0.0
H940 H 0.99394 0.53596 0.50453 0.0
H941 H 0.04876 0.47688 0.50216 0.0
H942 H 0.05868 0.50499 0.51109 0.0
H943 H 0.06796 0.51171 0.49765 0.0
C944 C 0.05806 0.57064 0.52568 0.0
C945 C 0.08411 0.58803 0.52134 0.0
C946 C 0.03779 0.54883 0.51998 0.0
C947 C 0.04314 0.54386 0.50985 0.0
C948 C 0.06878 0.56154 0.50537 0.0
H949 H 0.94601 0.42175 0.46379 0.0
H950 H 0.98218 0.45951 0.47368 0.0
C951 C 0.08912 0.58342 0.51106 0.0
C952 C 0.02174 0.52014 0.50401 0.0
H953 H 0.00722 0.45943 0.49273 0.0
C954 C 0.99678 0.51918 0.50197 0.0
C955 C 0.02557 0.4983 0.50071 0.0
C956 C 0.05158 0.49777 0.50307 0.0
C957 C 0.97562 0.4971 0.49655 0.0
C958 C 0.97942 0.47523 0.49328 0.0
C959 C 0.00441 0.47622 0.49529 0.0
C960 C 0.95782 0.45137 0.48757 0.0
C961 C 0.94961 0.49763 0.4942 0.0
C962 C 0.93238 0.43384 0.49222 0.0
C963 C 0.91158 0.41217 0.4866 0.0
C964 C 0.91591 0.40761 0.47622 0.0
C965 C 0.94184 0.4247 0.47174 0.0
C966 C 0.96259 0.44631 0.47737 0.0
H967 H 0.95247 0.51855 0.49507 0.0
H968 H 0.94243 0.4903 0.4862 0.0
H969 H 0.93327 0.48379 0.49965 0.0
H970 H 0.92851 0.43713 0.50016 0.0
H971 H 0.89195 0.39939 0.49032 0.0
H972 H 0.39447 0.49432 0.5067 0.0
H973 H 0.43267 0.49579 0.49712 0.0
H974 H 0.46151 0.47649 0.52506 0.0
H975 H 0.42332 0.47461 0.5347 0.0
H976 H 0.48823 0.53214 0.50157 0.0
H977 H 0.46418 0.42378 0.50383 0.0
H978 H 0.43891 0.43388 0.50639 0.0
H979 H 0.46387 0.43871 0.51609 0.0
C980 C 0.40862 0.48989 0.51079 0.0
C981 C 0.40579 0.4844 0.5215 0.0
C982 C 0.43049 0.49082 0.5053 0.0
C983 C 0.44978 0.48605 0.51037 0.0
C984 C 0.44659 0.47978 0.52097 0.0
H985 H 0.60265 0.49485 0.49186 0.0
H986 H 0.56404 0.49194 0.50166 0.0
C987 C 0.42477 0.47886 0.52647 0.0
C988 C 0.47429 0.48958 0.50476 0.0
H989 H 0.50852 0.45634 0.49764 0.0
C990 C 0.49261 0.51554 0.50065 0.0
C991 C 0.48003 0.46795 0.50367 0.0
C992 C 0.46062 0.43943 0.50764 0.0
C993 C 0.51675 0.52056 0.49558 0.0
C994 C 0.52243 0.49888 0.49443 0.0
C995 C 0.50415 0.47294 0.49857 0.0
C996 C 0.54675 0.50241 0.48867 0.0
C997 C 0.5362 0.54915 0.49167 0.0
C998 C 0.54986 0.50939 0.47813 0.0
C999 C 0.57192 0.5112 0.47252 0.0
C1000 C 0.59122 0.5058 0.47731 0.0
C1001 C 0.58827 0.49924 0.48792 0.0
C1002 C 0.56616 0.49746 0.49354 0.0
H1003 H 0.53299 0.56478 0.49569 0.0
H1004 H 0.55791 0.55449 0.49271 0.0
H1005 H 0.53253 0.5502 0.48328 0.0
H1006 H 0.53483 0.51278 0.47418 0.0
H1007 H 0.57342 0.51622 0.46436 0.0
H1008 H 0.50438 0.10724 0.49122 0.0
H1009 H 0.50632 0.07164 0.50146 0.0
H1010 H 0.48228 0.01889 0.47466 0.0
H1011 H 0.4805 0.05426 0.46433 0.0
H1012 H 0.46513 0.01653 0.50535 0.0
H1013 H 0.55385 0.02252 0.48413 0.0
H1014 H 0.54434 0.0487 0.48312 0.0
H1015 H 0.52568 0.01715 0.476 0.0
C1016 C 0.4994 0.08805 0.4875 0.0
C1017 C 0.49254 0.08376 0.47691 0.0
C1018 C 0.50055 0.06775 0.49337 0.0
C1019 C 0.49497 0.0429 0.48876 0.0
C1020 C 0.48727 0.0382 0.4783 0.0
H1021 H 0.4911 0.89448 0.5089 0.0
H1022 H 0.48949 0.93105 0.49926 0.0
C1023 C 0.48613 0.05843 0.47242 0.0
C1024 C 0.49717 0.02182 0.49486 0.0
H1025 H 0.53108 0.98574 0.49604 0.0
C1026 C 0.47965 0.00989 0.50337 0.0
C1027 C 0.51615 0.01325 0.49223 0.0
C1028 C 0.53627 0.02621 0.48343 0.0
C1029 C 0.48013 0.98906 0.50919 0.0
C1030 C 0.49897 0.98035 0.50651 0.0
C1031 C 0.51662 0.99243 0.49805 0.0
C1032 C 0.50057 0.95857 0.51236 0.0
C1033 C 0.45999 0.97606 0.51798 0.0
C1034 C 0.50792 0.96221 0.52286 0.0
C1035 C 0.50886 0.94138 0.52841 0.0
C1036 C 0.50263 0.91653 0.52353 0.0
C1037 C 0.49596 0.91328 0.51292 0.0
C1038 C 0.49501 0.93414 0.50739 0.0
H1039 H 0.44266 0.98017 0.5174 0.0
H1040 H 0.45155 0.9535 0.51816 0.0
H1041 H 0.47069 0.98469 0.52544 0.0
H1042 H 0.51289 0.98118 0.52678 0.0
H1043 H 0.51431 0.94474 0.53654 0.0
H1044 H 0.42861 0.94526 0.03375 0.0
H1045 H 0.46726 0.98131 0.02421 0.0
H1046 H 0.441 0.9315 0.99661 0.0
H1047 H 0.40235 0.895 0.00611 0.0
H1048 H 0.4967 0.953 0.00133 0.0
H1049 H 0.46825 0.03433 0.00231 0.0
H1050 H 0.46836 0.02018 0.01476 0.0
H1051 H 0.44398 0.9988 0.00511 0.0
C1052 C 0.43079 0.94199 0.02562 0.0
C1053 C 0.41229 0.91714 0.02071 0.0
C1054 C 0.45287 0.96273 0.02017 0.0
C1055 C 0.45681 0.95919 0.00969 0.0
C1056 C 0.43823 0.93465 0.0047 0.0
H1057 H 0.57845 0.05374 0.96332 0.0
H1058 H 0.54076 0.01817 0.97337 0.0
C1059 C 0.41611 0.91385 0.01015 0.0
C1060 C 0.48113 0.98049 0.00407 0.0
H1061 H 0.51313 0.04751 0.99637 0.0
C1062 C 0.50025 0.97364 0.0002 0.0
C1063 C 0.48575 0.00742 0.00268 0.0
C1064 C 0.46541 0.01564 0.00635 0.0
C1065 C 0.52408 0.99311 0.99506 0.0
C1066 C 0.52865 0.01999 0.99362 0.0
C1067 C 0.5096 0.0269 0.99754 0.0
C1068 C 0.55253 0.04102 0.98774 0.0
C1069 C 0.54438 0.98487 0.99134 0.0
C1070 C 0.57155 0.0658 0.99247 0.0
C1071 C 0.59316 0.08634 0.98673 0.0
C1072 C 0.59593 0.08253 0.97612 0.0
C1073 C 0.57701 0.05743 0.97147 0.0
C1074 C 0.5555 0.03695 0.97721 0.0
H1075 H 0.54177 0.96637 0.99547 0.0
H1076 H 0.54111 0.97999 0.98296 0.0
H1077 H 0.56582 0.00182 0.99244 0.0
H1078 H 0.56949 0.06935 0.00059 0.0
H1079 H 0.60726 0.1054 0.99056 0.0
H1080 H 0.89118 0.49304 0.99008 0.0
H1081 H 0.92746 0.49249 0.00035 0.0
H1082 H 0.97898 0.51433 0.97324 0.0
H1083 H 0.94325 0.51542 0.96295 0.0
H1084 H 0.9505 0.45935 0.9972 0.0
H1085 H 0.03011 0.56942 0.99464 0.0
H1086 H 0.99461 0.55696 0.99134 0.0
H1087 H 0.01709 0.55368 0.98227 0.0
C1088 C 0.91033 0.49802 0.98631 0.0
C1089 C 0.91426 0.50434 0.97568 0.0
C1090 C 0.93101 0.49765 0.9922 0.0
C1091 C 0.95602 0.50373 0.98758 0.0
C1092 C 0.96006 0.51015 0.97701 0.0
H1093 H 0.10327 0.5035 0.00714 0.0
H1094 H 0.06655 0.50454 0.99735 0.0
C1095 C 0.93948 0.5106 0.97112 0.0
C1096 C 0.97742 0.50208 0.99368 0.0
H1097 H 0.04454 0.53905 0.00115 0.0
C1098 C 0.97101 0.47681 0.99814 0.0
C1099 C 0.00417 0.52489 0.99484 0.0
C1100 C 0.01189 0.55284 0.99061 0.0
C1101 C 0.99083 0.47355 0.00355 0.0
C1102 C 0.01763 0.4963 0.00464 0.0
C1103 C 0.024 0.52161 0.00023 0.0
C1104 C 0.03927 0.49446 0.01049 0.0
C1105 C 0.9831 0.44566 0.00785 0.0
C1106 C 0.03605 0.48849 0.0211 0.0
C1107 C 0.0569 0.4878 0.02672 0.0
C1108 C 0.08153 0.49329 0.02183 0.0
C1109 C 0.08459 0.49909 0.01115 0.0
C1110 C 0.06366 0.49976 0.00555 0.0
H1111 H 0.96437 0.42907 0.00408 0.0
H1112 H 0.0001 0.44121 0.00685 0.0
H1113 H 0.97885 0.44526 0.01626 0.0
H1114 H 0.01759 0.48485 0.0251 0.0
H1115 H 0.05381 0.48335 0.03493 0.0
H1116 H 0.50046 0.39737 0.99353 0.0
H1117 H 0.50205 0.43543 0.00326 0.0
H1118 H 0.48441 0.46581 0.97535 0.0
H1119 H 0.48231 0.42773 0.96557 0.0
H1120 H 0.53826 0.491 -0.00037 0.0
H1121 H 0.43013 0.46698 0.99599 0.0
H1122 H 0.44061 0.44209 0.99325 0.0
H1123 H 0.44626 0.46802 0.98386 0.0
C1124 C 0.49649 0.41188 0.98947 0.0
C1125 C 0.49124 0.40941 0.97875 0.0
C1126 C 0.4975 0.43367 0.99505 0.0
C1127 C 0.4931 0.45327 0.99004 0.0
C1128 C 0.48735 0.45062 0.9794 0.0
H1129 H 0.49913 0.60401 0.0097 0.0
H1130 H 0.498 0.56671 -0.00044 0.0
C1131 C 0.48629 0.42884 0.97382 0.0
C1132 C 0.49608 0.47735 0.99581 0.0
H1133 H 0.46198 0.51085 0.00276 0.0
C1134 C 0.52156 0.49529 0.00037 0.0
C1135 C 0.4743 0.48296 0.99669 0.0
C1136 C 0.4462 0.46389 0.99227 0.0
C1137 C 0.52596 0.51892 0.00567 0.0
C1138 C 0.50415 0.52447 0.00658 0.0
C1139 C 0.4787 0.5066 0.002 0.0
C1140 C 0.50691 0.54818 0.01257 0.0
C1141 C 0.55404 0.53797 0.01011 0.0
C1142 C 0.51244 0.55016 0.02322 0.0
C1143 C 0.5132 0.57146 0.02903 0.0
C1144 C 0.50817 0.59109 0.02431 0.0
C1145 C 0.50313 0.58931 0.01358 0.0
C1146 C 0.50241 0.56797 0.00778 0.0
H1147 H 0.57015 0.53514 0.00628 0.0
H1148 H 0.55949 0.55977 0.00928 0.0
H1149 H 0.55407 0.53352 0.01848 0.0
H1150 H 0.51546 0.53481 0.0271 0.0
H1151 H 0.5171 0.57209 0.03727 0.0
H1152 H 0.28271 0.02256 0.11934 0.0
H1153 H 0.31816 0.01549 0.11147 0.0
H1154 H 0.30042 0.0377 0.08163 0.0
H1155 H 0.2659 0.04621 0.08966 0.0
H1156 H 0.30486 0.97611 0.09861 0.0
H1157 H 0.38139 0.07078 0.07886 0.0
H1158 H 0.35775 0.07076 0.08833 0.0
H1159 H 0.34725 0.06171 0.07504 0.0
C1160 C 0.28708 0.02683 0.11116 0.0
C1161 C 0.27159 0.03481 0.10508 0.0
C1162 C 0.30733 0.02279 0.10667 0.0
C1163 C 0.31212 0.0261 0.09595 0.0
C1164 C 0.2977 0.03565 0.08995 0.0
H1165 H 0.34616 0.9437 0.04971 0.0
H1166 H 0.33953 0.97619 0.06009 0.0
C1167 C 0.27782 0.04034 0.09452 0.0
C1168 C 0.32841 0.01511 0.09091 0.0
H1169 H 0.37656 0.02803 0.07226 0.0
C1170 C 0.32104 0.98778 0.09306 0.0
C1171 C 0.34946 0.03018 0.0836 0.0
C1172 C 0.3596 0.06007 0.08141 0.0
C1173 C 0.33303 0.97469 0.08776 0.0
C1174 C 0.35306 0.98933 0.08011 0.0
C1175 C 0.36125 0.01693 0.07817 0.0
C1176 C 0.36274 0.97491 0.07321 0.0
C1177 C 0.32304 0.94478 0.08996 0.0
C1178 C 0.37895 0.96431 0.07702 0.0
C1179 C 0.38285 0.94569 0.07108 0.0
C1180 C 0.37033 0.93732 0.06131 0.0
C1181 C 0.35581 0.94956 0.05726 0.0
C1182 C 0.35215 0.96827 0.06315 0.0
H1183 H 0.30517 0.93561 0.09531 0.0
H1184 H 0.31709 0.93279 0.08265 0.0
H1185 H 0.33987 0.94275 0.09354 0.0
H1186 H 0.38731 0.96928 0.08479 0.0
H1187 H 0.39415 0.9366 0.07438 0.0
H1188 H 0.07197 0.4483 0.07769 0.0
H1189 H 0.03782 0.40564 0.08612 0.0
H1190 H 0.0041 0.37062 0.05624 0.0
H1191 H 0.03932 0.41254 0.04781 0.0
H1192 H 0.98249 0.37022 0.0873 0.0
H1193 H 0.03313 0.32211 0.06567 0.0
H1194 H 0.04642 0.3586 0.06567 0.0
H1195 H 0.01771 0.33652 0.05755 0.0
C1196 C 0.05675 0.43173 0.07297 0.0
C1197 C 0.05832 0.43335 0.06214 0.0
C1198 C 0.03727 0.40738 0.07778 0.0
C1199 C 0.01897 0.38465 0.07178 0.0
C1200 C 0.01859 0.38758 0.06099 0.0
H1201 H 0.94048 0.21352 0.09246 0.0
H1202 H 0.94473 0.25306 0.08278 0.0
C1203 C 0.03852 0.41155 0.05619 0.0
C1204 C 0.00319 0.35716 0.07665 0.0
H1205 H 0.99804 0.29406 0.07708 0.0
C1206 C 0.98561 0.35345 0.08499 0.0
C1207 C 0.0074 0.33527 0.07366 0.0
C1208 C 0.02736 0.3383 0.06522 0.0
C1209 C 0.97273 0.32869 0.09058 0.0
C1210 C 0.9776 0.30723 0.08775 0.0
C1211 C 0.99409 0.31047 0.07913 0.0
C1212 C 0.96955 0.28296 0.09441 0.0
C1213 C 0.95455 0.32589 0.09963 0.0
C1214 C 0.9817 0.28669 0.1042 0.0
C1215 C 0.97964 0.26432 0.10963 0.0
C1216 C 0.96531 0.23778 0.1054 0.0
C1217 C 0.9516 0.23376 0.0959 0.0
C1218 C 0.95395 0.25628 0.09039 0.0
H1219 H 0.94602 0.33986 0.09883 0.0
H1220 H 0.93733 0.30446 0.1004 0.0
H1221 H 0.96685 0.33146 0.10686 0.0
H1222 H 0.99432 0.30712 0.10735 0.0
H1223 H 0.9903 0.26801 0.11696 0.0
H1224 H 0.55204 0.6301 0.08112 0.0
H1225 H 0.5952 0.63768 0.08877 0.0
H1226 H 0.6194 0.62063 0.05922 0.0
H1227 H 0.57694 0.61467 0.05147 0.0
H1228 H 0.62635 0.61282 0.09109 0.0
H1229 H 0.67595 0.70001 0.06328 0.0
H1230 H 0.63927 0.68024 0.06486 0.0
H1231 H 0.65695 0.66665 0.05749 0.0
C1232 C 0.56625 0.62714 0.07638 0.0
C1233 C 0.56149 0.62197 0.06575 0.0
C1234 C 0.59089 0.63149 0.08072 0.0
C1235 C 0.61086 0.63047 0.07449 0.0
C1236 C 0.60463 0.62228 0.0641 0.0
H1237 H 0.78524 0.72538 0.09176 0.0
H1238 H 0.7448 0.68788 0.08316 0.0
C1239 C 0.58033 0.61862 0.05971 0.0
C1240 C 0.63922 0.64177 0.07849 0.0
H1241 H 0.7039 0.69669 0.07577 0.0
C1242 C 0.64343 0.63088 0.08765 0.0
C1243 C 0.66158 0.66536 0.07398 0.0
C1244 C 0.6583 0.67894 0.06441 0.0
C1245 C 0.66903 0.6437 0.09266 0.0
C1246 C 0.69084 0.6681 0.08845 0.0
C1247 C 0.68717 0.67788 0.07895 0.0
C1248 C 0.71575 0.68649 0.0945 0.0
C1249 C 0.67224 0.63155 0.10261 0.0
C1250 C 0.71282 0.69789 0.10373 0.0
C1251 C 0.73565 0.71934 0.10853 0.0
C1252 C 0.76196 0.7299 0.10421 0.0
C1253 C 0.76519 0.7176 0.09525 0.0
C1254 C 0.74216 0.69617 0.09037 0.0
H1255 H 0.65832 0.60895 0.10278 0.0
H1256 H 0.69371 0.63612 0.10369 0.0
H1257 H 0.6667 0.64042 0.10923 0.0
H1258 H 0.69265 0.6913 0.10692 0.0
H1259 H 0.73252 0.72829 0.11546 0.0
H1260 H 0.95669 0.4085 0.43027 0.0
H1261 H 0.99574 0.40773 0.42199 0.0
H1262 H 0.96369 0.32412 0.43224 0.0
H1263 H 0.92602 0.32525 0.44081 0.0
H1264 H 0.01774 0.35207 0.43436 0.0
H1265 H 0.99052 0.37124 0.39489 0.0
H1266 H -0.00023 0.39743 0.40454 0.0
H1267 H 0.96828 0.36528 0.40581 0.0
C1268 C 0.95823 0.3901 0.43078 0.0
C1269 C 0.93822 0.36688 0.43613 0.0
C1270 C 0.98046 0.38963 0.42602 0.0
C1271 C 0.98254 0.36573 0.42637 0.0
C1272 C 0.96277 0.34289 0.4319 0.0
H1273 H 0.9923 0.25988 0.38975 0.0
H1274 H 0.99078 0.29741 0.39824 0.0
C1275 C 0.94105 0.34351 0.43676 0.0
C1276 C 0.00379 0.36283 0.42057 0.0
H1277 H 0.01791 0.35128 0.396 0.0
C1278 C 0.01837 0.35246 0.42596 0.0
C1279 C 0.00509 0.36398 0.40962 0.0
C1280 C 0.99006 0.37496 0.40332 0.0
C1281 C 0.03066 0.33946 0.42074 0.0
C1282 C 0.02933 0.33794 0.40979 0.0
C1283 C 0.01844 0.35206 0.4044 0.0
C1284 C 0.03251 0.31681 0.40403 0.0
C1285 C 0.04224 0.32499 0.42704 0.0
C1286 C 0.05661 0.31507 0.40435 0.0
C1287 C 0.0573 0.2929 0.39964 0.0
C1288 C 0.03412 0.27262 0.39437 0.0
C1289 C 0.01055 0.27513 0.39374 0.0
C1290 C 0.00971 0.29677 0.39856 0.0
H1291 H 0.03869 0.32558 0.43548 0.0
H1292 H 0.03287 0.30319 0.42463 0.0
H1293 H 0.06471 0.33506 0.42575 0.0
H1294 H 0.07469 0.33057 0.40833 0.0
H1295 H 0.07584 0.2916 0.40014 0.0
H1296 H 0.63527 0.58781 0.45226 0.0
H1297 H 0.64178 0.63043 0.44467 0.0
H1298 H 0.62954 0.59465 0.41417 0.0
H1299 H 0.62145 0.5514 0.42187 0.0
H1300 H 0.68413 0.65946 0.43353 0.0
H1301 H 0.59463 0.64036 0.40988 0.0
H1302 H 0.59294 0.61593 0.41935 0.0
H1303 H 0.60592 0.6167 0.4065 0.0
C1304 C 0.63291 0.58878 0.44397 0.0
C1305 C 0.6279 0.5665 0.43762 0.0
C1306 C 0.63666 0.61312 0.43963 0.0
C1307 C 0.63613 0.61588 0.42884 0.0
C1308 C 0.62939 0.59294 0.42252 0.0
H1309 H 0.72597 0.73464 0.38482 0.0
H1310 H 0.69186 0.69532 0.39465 0.0
C1311 C 0.62492 0.56825 0.42691 0.0
C1312 C 0.64748 0.64369 0.42422 0.0
H1313 H 0.63856 0.67962 0.40474 0.0
C1314 C 0.67376 0.66406 0.42743 0.0
C1315 C 0.63411 0.64978 0.41623 0.0
C1316 C 0.60522 0.62957 0.41288 0.0
C1317 C 0.68768 0.68962 0.4225 0.0
C1318 C 0.67496 0.69511 0.41413 0.0
C1319 C 0.64821 0.67533 0.41119 0.0
C1320 C 0.69088 0.71948 0.40749 0.0
C1321 C 0.71664 0.70991 0.42584 0.0
C1322 C 0.70085 0.74621 0.41131 0.0
C1323 C 0.72048 0.76888 0.40568 0.0
C1324 C 0.73044 0.76495 0.39622 0.0
C1325 C 0.71894 0.73828 0.39214 0.0
C1326 C 0.69929 0.71579 0.39771 0.0
H1327 H 0.72464 0.70113 0.43167 0.0
H1328 H 0.73065 0.71689 0.41905 0.0
H1329 H 0.71712 0.7282 0.4293 0.0
H1330 H 0.69446 0.74942 0.41884 0.0
H1331 H 0.72893 0.78922 0.40898 0.0
H1332 H 0.4119 0.04026 0.45136 0.0
H1333 H 0.3702 0.00342 0.44346 0.0
H1334 H 0.40504 0.03239 0.41311 0.0
H1335 H 0.44743 0.06809 0.42109 0.0
H1336 H 0.33946 0.01588 0.43339 0.0
H1337 H 0.36199 0.95296 0.40692 0.0
H1338 H 0.38629 0.97481 0.4166 0.0
H1339 H 0.38458 0.98856 0.40417 0.0
C1340 C 0.41098 0.03793 0.44301 0.0
C1341 C 0.43266 0.05684 0.43679 0.0
C1342 C 0.38718 0.01693 0.4385 0.0
C1343 C 0.38433 0.01497 0.42767 0.0
C1344 C 0.40684 0.03286 0.42147 0.0
H1345 H 0.26898 0.99494 0.38423 0.0
H1346 H 0.30732 0.99779 0.39402 0.0
C1347 C 0.43104 0.05343 0.42601 0.0
C1348 C 0.3566 0.99833 0.42301 0.0
H1349 H 0.32244 0.95808 0.40222 0.0
C1350 C 0.33553 0.00253 0.42678 0.0
C1351 C 0.35134 0.98093 0.41435 0.0
C1352 C 0.37224 0.97385 0.41037 0.0
C1353 C 0.31019 0.99155 0.42172 0.0
C1354 C 0.30566 0.97579 0.41265 0.0
C1355 C 0.32602 0.97019 0.40919 0.0
C1356 C 0.28194 0.9691 0.40586 0.0
C1357 C 0.28919 0.9986 0.42568 0.0
C1358 C 0.25486 0.95125 0.40911 0.0
C1359 C 0.23273 0.94961 0.40351 0.0
C1360 C 0.23755 0.96595 0.39466 0.0
C1361 C 0.26462 0.98237 0.3911 0.0
C1362 C 0.28658 0.98386 0.39663 0.0
H1363 H 0.29718 0.01355 0.43218 0.0
H1364 H 0.28257 0.00737 0.41935 0.0
H1365 H 0.27081 0.97967 0.42846 0.0
H1366 H 0.25092 0.93959 0.4162 0.0
H1367 H 0.21206 0.93667 0.40639 0.0
H1368 H 0.72939 0.99763 0.88255 0.0
H1369 H 0.69351 0.00117 0.89177 0.0
H1370 H 0.68694 0.94051 0.91378 0.0
H1371 H 0.72332 0.93698 0.90459 0.0
H1372 H 0.63773 0.96309 0.89883 0.0
H1373 H 0.71432 0.0126 0.9306 0.0
H1374 H 0.72406 0.00683 0.91795 0.0
H1375 H 0.70588 0.97858 0.9267 0.0
C1376 C 0.72006 0.98468 0.88926 0.0
C1377 C 0.72952 0.96739 0.89297 0.0
C1378 C 0.69938 0.98659 0.89447 0.0
C1379 C 0.68782 0.97134 0.90351 0.0
C1380 C 0.69583 0.95261 0.90685 0.0
H1381 H 0.62553 0.03926 0.94895 0.0
H1382 H 0.62992 0.00269 0.94053 0.0
C1383 C 0.71657 0.95062 0.9016 0.0
C1384 C 0.67048 0.97822 0.91003 0.0
H1385 H 0.67475 0.01573 0.93136 0.0
C1386 C 0.64543 0.9741 0.90607 0.0
C1387 C 0.68063 0.99256 0.91946 0.0
C1388 C 0.70774 0.99813 0.92395 0.0
C1389 C 0.63074 0.98487 0.91113 0.0
C1390 C 0.64183 0.00076 0.92021 0.0
C1391 C 0.66612 0.00351 0.92442 0.0
C1392 C 0.63077 0.01733 0.92494 0.0
C1393 C 0.60379 0.97947 0.90659 0.0
C1394 C 0.6282 0.03688 0.91898 0.0
C1395 C 0.62486 0.05732 0.9238 0.0
C1396 C 0.6248 0.05884 0.93463 0.0
C1397 C 0.62545 0.03831 0.94056 0.0
C1398 C 0.62801 0.01749 0.93575 0.0
H1399 H 0.59319 0.95924 0.90262 0.0
H1400 H 0.58992 0.97989 0.91262 0.0
H1401 H 0.60774 0.99542 0.90071 0.0
H1402 H 0.631 0.03778 0.91066 0.0
H1403 H 0.62486 0.07329 0.91911 0.0
H1404 H 0.95535 0.59029 0.95104 0.0
H1405 H 0.99085 0.63314 0.94327 0.0
H1406 H 0.96525 0.59773 0.91282 0.0
H1407 H 0.93078 0.5542 0.92065 0.0
H1408 H 0.02039 0.63525 0.91336 0.0
H1409 H 0.96068 0.67868 0.93148 0.0
H1410 H 0.97499 0.66531 0.94062 0.0
H1411 H 0.94906 0.6425 0.93165 0.0
C1412 C 0.95795 0.59145 0.9427 0.0
C1413 C 0.94029 0.56925 0.9364 0.0
C1414 C 0.97807 0.61594 0.93827 0.0
C1415 C 0.98003 0.61892 0.92746 0.0
C1416 C 0.96395 0.59594 0.92118 0.0
H1417 H 0.0151 0.73702 0.8821 0.0
H1418 H 0.01067 0.69787 0.89184 0.0
C1419 C 0.94429 0.57111 0.92564 0.0
C1420 C 0.99591 0.64657 0.92274 0.0
H1421 H 0.99848 0.70842 0.9214 0.0
C1422 C 0.01584 0.65137 0.9152 0.0
C1423 C 0.9898 0.66757 0.92509 0.0
C1424 C 0.96731 0.66326 0.93257 0.0
C1425 C 0.02938 0.67641 0.90979 0.0
C1426 C 0.02279 0.69704 0.91202 0.0
C1427 C 0.00376 0.69267 0.91984 0.0
C1428 C 0.03191 0.72157 0.90541 0.0
C1429 C 0.05015 0.68043 0.9016 0.0
C1430 C 0.04583 0.74802 0.90974 0.0
C1431 C 0.04847 0.77055 0.90416 0.0
C1432 C 0.03666 0.76672 0.89427 0.0
C1433 C 0.02426 0.74052 0.88974 0.0
C1434 C 0.02197 0.71815 0.89525 0.0
H1435 H 0.05881 0.66673 0.90289 0.0
H1436 H 0.03997 0.67544 0.8939 0.0
H1437 H 0.06719 0.70207 0.90141 0.0
H1438 H 0.05332 0.75097 0.91764 0.0
H1439 H 0.05805 0.79053 0.90784 0.0
H1440 H 0.40197 0.34279 0.94849 0.0
H1441 H 0.36335 0.33739 0.93811 0.0
H1442 H 0.41932 0.39062 0.91469 0.0
H1443 H 0.45839 0.39625 0.92512 0.0
H1444 H 0.34882 0.3765 0.92733 0.0
H1445 H 0.37236 0.31084 0.9018 0.0
H1446 H 0.38624 0.32011 0.91472 0.0
H1447 H 0.3994 0.34523 0.90456 0.0
C1448 C 0.40615 0.35383 0.94123 0.0
C1449 C 0.43316 0.36961 0.93753 0.0
C1450 C 0.38405 0.35087 0.93535 0.0
C1451 C 0.38853 0.36346 0.92563 0.0
C1452 C 0.41553 0.38074 0.92219 0.0
H1453 H 0.26107 0.28679 0.87922 0.0
H1454 H 0.30337 0.32256 0.88714 0.0
C1455 C 0.43778 0.38392 0.92814 0.0
C1456 C 0.36483 0.35494 0.91863 0.0
H1457 H 0.33087 0.30963 0.89917 0.0
C1458 C 0.34502 0.36231 0.92101 0.0
C1459 C 0.36002 0.33643 0.91044 0.0
C1460 C 0.38046 0.32747 0.9077 0.0
C1461 C 0.32007 0.35099 0.91555 0.0
C1462 C 0.31456 0.33119 0.90775 0.0
C1463 C 0.33501 0.32484 0.90511 0.0
C1464 C 0.28721 0.31482 0.90277 0.0
C1465 C 0.29987 0.36022 0.91827 0.0
C1466 C 0.26355 0.29935 0.90883 0.0
C1467 C 0.23908 0.27936 0.90425 0.0
C1468 C 0.23824 0.27402 0.8936 0.0
C1469 C 0.26133 0.2905 0.88747 0.0
C1470 C 0.28548 0.31092 0.89199 0.0
H1471 H 0.31065 0.38176 0.9211 0.0
H1472 H 0.28691 0.35867 0.91153 0.0
H1473 H 0.28633 0.34713 0.92461 0.0
H1474 H 0.26443 0.30134 0.91718 0.0
H1475 H 0.22158 0.26665 0.90913 0.0
H1476 H 0.9866 0.72117 0.61495 0.0
H1477 H 0.99115 0.68747 0.60455 0.0
H1478 H 0.93976 0.6926 0.58091 0.0
H1479 H 0.93505 0.72656 0.59134 0.0
H1480 H 0.95258 0.63486 0.59338 0.0
H1481 H 0.01955 0.72497 0.56845 0.0
H1482 H 0.00957 0.72909 0.58131 0.0
H1483 H 0.98506 0.71763 0.57094 0.0
C1484 C 0.97574 0.7147 0.60764 0.0
C1485 C 0.96085 0.72681 0.60386 0.0
C1486 C 0.9782 0.69528 0.60175 0.0
C1487 C 0.96599 0.68778 0.59195 0.0
C1488 C 0.94937 0.69825 0.58846 0.0
H1489 H 0.04428 0.63873 0.54563 0.0
H1490 H 0.00798 0.64468 0.5534 0.0
C1491 C 0.94672 0.71761 0.59442 0.0
C1492 C 0.97455 0.67274 0.58489 0.0
H1493 H 0.02043 0.68464 0.56559 0.0
C1494 C 0.96698 0.64544 0.58714 0.0
C1495 C 0.99335 0.68669 0.5768 0.0
C1496 C 0.00258 0.71625 0.5742 0.0
C1497 C 0.97841 0.63194 0.58166 0.0
C1498 C 0.99849 0.64649 0.57397 0.0
C1499 C 0.005 0.67338 0.57145 0.0
C1500 C 0.01506 0.63569 0.56903 0.0
C1501 C 0.96902 0.60241 0.58424 0.0
C1502 C 0.03032 0.62733 0.57514 0.0
C1503 C 0.05062 0.62321 0.57064 0.0
C1504 C 0.05646 0.62819 0.56004 0.0
C1505 C 0.04018 0.63491 0.55385 0.0
C1506 C 0.01945 0.6383 0.55828 0.0
H1507 H 0.94735 0.59157 0.58694 0.0
H1508 H 0.97082 0.59123 0.57748 0.0
H1509 H 0.98183 0.6017 0.59064 0.0
H1510 H 0.02794 0.62588 0.58347 0.0
H1511 H 0.06316 0.6183 0.57557 0.0
H1512 H 0.26741 0.222 0.59131 0.0
H1513 H 0.303 0.2655 0.58399 0.0
H1514 H 0.31852 0.3027 0.61432 0.0
H1515 H 0.28186 0.25972 0.62149 0.0
H1516 H 0.30763 0.33076 0.60183 0.0
H1517 H 0.3838 0.31248 0.58203 0.0
H1518 H 0.34995 0.28808 0.5777 0.0
H1519 H 0.35923 0.28809 0.59108 0.0
C1520 C 0.27904 0.23927 0.59644 0.0
C1521 C 0.27185 0.2377 0.60692 0.0
C1522 C 0.29957 0.26411 0.59227 0.0
C1523 C 0.31372 0.28747 0.59861 0.0
C1524 C 0.30793 0.28507 0.60926 0.0
H1525 H 0.39511 0.45901 0.57636 0.0
H1526 H 0.38972 0.42063 0.58721 0.0
C1527 C 0.28699 0.26052 0.61335 0.0
C1528 C 0.33075 0.31512 0.59393 0.0
H1529 H 0.37877 0.35041 0.57526 0.0
C1530 C 0.32377 0.33528 0.59626 0.0
C1531 C 0.35182 0.32116 0.58662 0.0
C1532 C 0.3618 0.30134 0.58431 0.0
C1533 C 0.33587 0.36045 0.59103 0.0
C1534 C 0.35557 0.36572 0.58325 0.0
C1535 C 0.36366 0.34627 0.58125 0.0
C1536 C 0.36433 0.38922 0.57613 0.0
C1537 C 0.32613 0.38051 0.59336 0.0
C1538 C 0.35274 0.3842 0.56621 0.0
C1539 C 0.35554 0.40587 0.5601 0.0
C1540 C 0.37021 0.43301 0.56377 0.0
C1541 C 0.38368 0.43827 0.57337 0.0
C1542 C 0.38061 0.41643 0.57956 0.0
H1543 H 0.30891 0.37219 0.599 0.0
H1544 H 0.34335 0.39964 0.59663 0.0
H1545 H 0.31931 0.38601 0.58613 0.0
H1546 H 0.34005 0.36335 0.56345 0.0
H1547 H 0.34518 0.40124 0.55268 0.0
H1548 H 0.73274 0.00571 0.61502 0.0
H1549 H 0.6927 0.00102 0.60591 0.0
H1550 H 0.74528 0.058 0.5826 0.0
H1551 H 0.78579 0.06267 0.59169 0.0
H1552 H 0.67459 0.03804 0.59789 0.0
H1553 H 0.69923 0.98313 0.56751 0.0
H1554 H 0.71558 0.99095 0.58004 0.0
H1555 H 0.72522 0.01767 0.57061 0.0
C1556 C 0.7359 0.01765 0.60805 0.0
C1557 C 0.76237 0.03417 0.60396 0.0
C1558 C 0.71297 0.0151 0.6029 0.0
C1559 C 0.71603 0.02891 0.59353 0.0
C1560 C 0.74254 0.047 0.58979 0.0
H1561 H 0.58391 0.9574 0.54885 0.0
H1562 H 0.62569 0.99373 0.55689 0.0
C1563 C 0.76562 0.04966 0.59498 0.0
C1564 C 0.69137 0.02102 0.58713 0.0
H1565 H 0.65679 0.98054 0.56656 0.0
C1566 C 0.67079 0.02593 0.5909 0.0
C1567 C 0.68652 0.0052 0.57806 0.0
C1568 C 0.70764 0.99869 0.5738 0.0
C1569 C 0.64509 0.01467 0.58598 0.0
C1570 C 0.6397 0.99749 0.57725 0.0
C1571 C 0.66084 0.99377 0.57323 0.0
C1572 C 0.6119 0.9809 0.57263 0.0
C1573 C 0.62397 0.02104 0.59028 0.0
C1574 C 0.58958 0.96243 0.57879 0.0
C1575 C 0.56534 0.94212 0.57417 0.0
C1576 C 0.56349 0.93958 0.56336 0.0
C1577 C 0.585 0.95905 0.55722 0.0
C1578 C 0.60885 0.97975 0.56181 0.0
H1579 H 0.63398 0.04168 0.59394 0.0
H1580 H 0.6097 0.02025 0.58417 0.0
H1581 H 0.61188 0.0058 0.59636 0.0
H1582 H 0.59157 0.96231 0.58713 0.0
H1583 H 0.54909 0.92703 0.57903 0.0
H1584 H 0.74335 0.62256 0.73434 0.0
H1585 H 0.74234 0.66188 0.74231 0.0
H1586 H 0.6557 0.62363 0.7356 0.0
H1587 H 0.65682 0.58547 0.72743 0.0
H1588 H 0.68234 0.67773 0.73085 0.0
H1589 H 0.71131 0.66211 0.77053 0.0
H1590 H 0.73484 0.6687 0.76004 0.0
H1591 H 0.70293 0.63681 0.76051 0.0
C1592 C 0.72418 0.62271 0.7346 0.0
C1593 C 0.70016 0.60096 0.73028 0.0
C1594 C 0.72361 0.64511 0.73916 0.0
C1595 C 0.6989 0.64568 0.73959 0.0
C1596 C 0.67508 0.62387 0.73527 0.0
H1597 H 0.59642 0.65926 0.77649 0.0
H1598 H 0.63394 0.65763 0.76802 0.0
C1599 C 0.67573 0.60193 0.73064 0.0
C1600 C 0.69645 0.66788 0.7448 0.0
H1601 H 0.68847 0.68687 0.76905 0.0
C1602 C 0.68432 0.68044 0.73918 0.0
C1603 C 0.69963 0.67181 0.75564 0.0
C1604 C 0.7128 0.65916 0.7621 0.0
C1605 C 0.67156 0.69322 0.74422 0.0
C1606 C 0.67203 0.6944 0.75518 0.0
C1607 C 0.68779 0.68552 0.76066 0.0
C1608 C 0.65134 0.69799 0.76107 0.0
C1609 C 0.65521 0.70248 0.73783 0.0
C1610 C 0.64861 0.72143 0.76012 0.0
C1611 C 0.62647 0.72215 0.76484 0.0
C1612 C 0.60719 0.69968 0.77072 0.0
C1613 C 0.61082 0.67692 0.77201 0.0
C1614 C 0.63248 0.67603 0.7672 0.0
H1615 H 0.65458 0.6972 0.7295 0.0
H1616 H 0.63379 0.69291 0.74072 0.0
H1617 H 0.66462 0.72509 0.73844 0.0
H1618 H 0.66322 0.73889 0.75562 0.0
H1619 H 0.62433 0.7401 0.76383 0.0
H1620 H 0.40353 0.06305 0.72214 0.0
H1621 H 0.36567 0.02358 0.73029 0.0
H1622 H 0.33762 0.07544 0.74376 0.0
H1623 H 0.37665 0.11583 0.73575 0.0
H1624 H 0.33795 0.04304 0.75782 0.0
H1625 H 0.28639 0.97666 0.72468 0.0
H1626 H 0.32211 0.988 0.72321 0.0
H1627 H 0.31061 0.01281 0.72303 0.0
C1628 C 0.3892 0.06619 0.72672 0.0
C1629 C 0.39314 0.09262 0.72831 0.0
C1630 C 0.36718 0.04341 0.73126 0.0
C1631 C 0.34813 0.04626 0.73738 0.0
C1632 C 0.35177 0.07264 0.73893 0.0
H1633 H 0.25813 0.88018 0.76362 0.0
H1634 H 0.25942 0.92043 0.75545 0.0
C1635 C 0.37412 0.09569 0.7344 0.0
C1636 C 0.32704 0.02192 0.74312 0.0
H1637 H 0.29056 0.95235 0.74036 0.0
C1638 C 0.32673 0.02331 0.75397 0.0
C1639 C 0.31122 0.99613 0.73821 0.0
C1640 C 0.30738 0.99347 0.72663 0.0
C1641 C 0.31455 0.99933 0.75998 0.0
C1642 C 0.30341 0.9735 0.755 0.0
C1643 C 0.30002 0.97212 0.74421 0.0
C1644 C 0.30079 0.94915 0.76051 0.0
C1645 C 0.31541 0.00202 0.77161 0.0
C1646 C 0.32372 0.95178 0.76583 0.0
C1647 C 0.32301 0.92914 0.77045 0.0
C1648 C 0.2995 0.90303 0.76974 0.0
C1649 C 0.27651 0.90009 0.7643 0.0
C1650 C 0.27718 0.92304 0.75969 0.0
H1651 H 0.31232 0.01928 0.77397 0.0
H1652 H 0.2995 0.9829 0.7754 0.0
H1653 H 0.33595 0.00678 0.77446 0.0
H1654 H 0.34261 0.97135 0.7662 0.0
H1655 H 0.34123 0.93215 0.77446 0.0
H1656 H 0.87817 0.26774 0.74156 0.0
H1657 H 0.91784 0.27245 0.75137 0.0
H1658 H 0.97245 0.32717 0.72794 0.0
H1659 H 0.93333 0.32246 0.71817 0.0
H1660 H 0.9895 0.29073 0.73696 0.0
H1661 H 0.96367 0.34804 0.76589 0.0
H1662 H 0.93785 0.31329 0.76297 0.0
H1663 H 0.94793 0.33942 0.75325 0.0
C1664 C 0.89861 0.28022 0.73842 0.0
C1665 C 0.90273 0.29515 0.72922 0.0
C1666 C 0.92121 0.28292 0.74401 0.0
C1667 C 0.94805 0.30045 0.74042 0.0
C1668 C 0.95193 0.31356 0.73084 0.0
H1669 H 0.11445 0.40446 0.75455 0.0
H1670 H 0.07188 0.3681 0.74687 0.0
C1671 C 0.92952 0.31101 0.72531 0.0
C1672 C 0.97231 0.30864 0.74711 0.0
H1673 H 0.00647 0.35158 0.76717 0.0
C1674 C 0.99308 0.30353 0.74373 0.0
C1675 C 0.97691 0.32538 0.7559 0.0
C1676 C 0.95557 0.33209 0.75974 0.0
C1677 C 0.01877 0.31561 0.74869 0.0
C1678 C 0.02396 0.33382 0.75707 0.0
C1679 C 0.00259 0.33762 0.76077 0.0
C1680 C 0.05176 0.35133 0.76157 0.0
C1681 C 0.04011 0.30905 0.7448 0.0
C1682 C 0.05493 0.35393 0.77238 0.0
C1683 C 0.07882 0.37525 0.77672 0.0
C1684 C 0.10026 0.39392 0.77035 0.0
C1685 C 0.09825 0.39002 0.75959 0.0
C1686 C 0.07397 0.36909 0.75522 0.0
H1687 H 0.03031 0.28796 0.74154 0.0
H1688 H 0.05203 0.32353 0.73848 0.0
H1689 H 0.05451 0.31086 0.75104 0.0
H1690 H 0.03819 0.34054 0.77746 0.0
H1691 H 0.08004 0.37791 0.78505 0.0
H1692 H 0.41247 0.34209 0.22543 0.0
H1693 H 0.37514 0.34456 0.23369 0.0
H1694 H 0.33831 0.25954 0.24279 0.0
H1695 H 0.37683 0.25722 0.23472 0.0
H1696 H 0.3206 0.31745 0.23016 0.0
H1697 H 0.34197 0.29565 0.27018 0.0
H1698 H 0.36568 0.30207 0.25972 0.0
H1699 H 0.33384 0.2701 0.26034 0.0
C1700 C 0.39649 0.32381 0.22917 0.0
C1701 C 0.39769 0.29948 0.22947 0.0
C1702 C 0.375 0.32522 0.23386 0.0
C1703 C 0.35387 0.30229 0.2389 0.0
C1704 C 0.35458 0.27764 0.23908 0.0
H1705 H 0.25863 0.37643 0.2637 0.0
H1706 H 0.26069 0.33794 0.25546 0.0
C1707 C 0.37653 0.27631 0.23446 0.0
C1708 C 0.33238 0.30569 0.24426 0.0
H1709 H 0.31601 0.31715 0.26847 0.0
C1710 C 0.31891 0.31674 0.23854 0.0
C1711 C 0.3298 0.30425 0.25517 0.0
C1712 C 0.3436 0.29249 0.26177 0.0
C1713 C 0.30629 0.32984 0.24345 0.0
C1714 C 0.30634 0.331 0.25439 0.0
C1715 C 0.31634 0.31651 0.26008 0.0
C1716 C 0.30283 0.35218 0.25995 0.0
C1717 C 0.29571 0.34477 0.23689 0.0
C1718 C 0.32545 0.37249 0.2654 0.0
C1719 C 0.32419 0.39397 0.27016 0.0
C1720 C 0.30032 0.39597 0.26955 0.0
C1721 C 0.27738 0.37551 0.26421 0.0
C1722 C 0.27856 0.35359 0.25949 0.0
H1723 H 0.29971 0.34398 0.2285 0.0
H1724 H 0.27321 0.3353 0.23799 0.0
H1725 H 0.30545 0.36664 0.23927 0.0
H1726 H 0.34449 0.37209 0.2658 0.0
H1727 H 0.34228 0.40933 0.27419 0.0
H1728 H 0.60858 0.9327 0.28314 0.0
H1729 H 0.6432 0.97161 0.27327 0.0
H1730 H 0.6412 0.91657 0.24959 0.0
H1731 H 0.60622 0.87723 0.25947 0.0
H1732 H 0.69682 0.98702 0.2633 0.0
H1733 H 0.61065 0.96394 0.23619 0.0
H1734 H 0.6047 0.94883 0.24893 0.0
H1735 H 0.61822 0.93703 0.23883 0.0
C1736 C 0.61587 0.92876 0.27593 0.0
C1737 C 0.60435 0.90197 0.27197 0.0
C1738 C 0.63583 0.95103 0.27035 0.0
C1739 C 0.64451 0.94695 0.26068 0.0
C1740 C 0.6346 0.92008 0.25704 0.0
H1741 H 0.69896 0.07616 0.21497 0.0
H1742 H 0.69308 0.03405 0.22283 0.0
C1743 C 0.61465 0.89767 0.26267 0.0
C1744 C 0.66041 0.97098 0.25389 0.0
H1745 H 0.65115 0.00544 0.23407 0.0
C1746 C 0.68716 0.99092 0.25676 0.0
C1747 C 0.64766 0.97596 0.2454 0.0
C1748 C 0.61868 0.95548 0.24213 0.0
C1749 C 0.70124 0.01616 0.2515 0.0
C1750 C 0.68783 0.02177 0.24338 0.0
C1751 C 0.66155 0.00121 0.24026 0.0
C1752 C 0.69904 0.04933 0.23857 0.0
C1753 C 0.73015 0.03656 0.25478 0.0
C1754 C 0.70578 0.07252 0.24473 0.0
C1755 C 0.70991 0.09691 0.24019 0.0
C1756 C 0.70653 0.09809 0.22947 0.0
C1757 C 0.70156 0.0756 0.22326 0.0
C1758 C 0.6982 0.05157 0.22776 0.0
H1759 H 0.7408 0.02592 0.25786 0.0
H1760 H 0.74235 0.04997 0.24825 0.0
H1761 H 0.72947 0.04963 0.26108 0.0
H1762 H 0.70585 0.07122 0.25309 0.0
H1763 H 0.71341 0.11394 0.24512 0.0
H1764 H 0.87697 0.60458 0.24102 0.0
H1765 H 0.91598 0.63887 0.25125 0.0
H1766 H 0.97091 0.64899 0.22616 0.0
H1767 H 0.93236 0.61492 0.21602 0.0
H1768 H 0.95749 0.62664 0.25599 0.0
H1769 H 0.00248 0.72799 0.23685 0.0
H1770 H 0.96727 0.70124 0.23487 0.0
H1771 H 0.99466 0.70051 0.22795 0.0
C1772 C 0.89726 0.61481 0.2376 0.0
C1773 C 0.90175 0.60695 0.22779 0.0
C1774 C 0.91949 0.63438 0.24342 0.0
C1775 C 0.94629 0.6467 0.23941 0.0
C1776 C 0.95039 0.64022 0.22933 0.0
H1777 H 0.11205 0.70832 0.25506 0.0
H1778 H 0.06889 0.70033 0.24722 0.0
C1779 C 0.92835 0.62049 0.22358 0.0
C1780 C 0.97042 0.66198 0.24624 0.0
H1781 H 0.03333 0.72009 0.24746 0.0
C1782 C 0.97382 0.64736 0.25433 0.0
C1783 C 0.99177 0.68881 0.24391 0.0
C1784 C 0.9888 0.70566 0.23547 0.0
C1785 C 0.99872 0.65801 0.2597 0.0
C1786 C 0.02055 0.68458 0.25717 0.0
C1787 C 0.01663 0.6998 0.24941 0.0
C1788 C 0.04816 0.69553 0.26188 0.0
C1789 C 0.00194 0.63974 0.26749 0.0
C1790 C 0.05134 0.6971 0.27268 0.0
C1791 C 0.07559 0.70085 0.27712 0.0
C1792 C 0.09742 0.70425 0.27083 0.0
C1793 C 0.09545 0.70581 0.26005 0.0
C1794 C 0.07082 0.70124 0.25559 0.0
H1795 H 0.98576 0.61787 0.26662 0.0
H1796 H 0.02225 0.64114 0.2667 0.0
H1797 H 0.00028 0.64629 0.27544 0.0
H1798 H 0.03445 0.69365 0.27768 0.0
H1799 H 0.07687 0.69988 0.28547 0.0
H1800 H 0.03529 0.16505 0.13069 0.0
H1801 H 0.06675 0.14739 0.12811 0.0
H1802 H 0.07068 0.1652 0.09545 0.0
H1803 H 0.03866 0.1821 0.09793 0.0
H1804 H 0.06005 0.11431 0.09846 0.0
H1805 H 0.14811 0.18353 0.1231 0.0
H1806 H 0.11655 0.16856 0.13024 0.0
H1807 H 0.12161 0.19118 0.11954 0.0
C1808 C 0.04322 0.16561 0.123 0.0
C1809 C 0.03445 0.17488 0.11451 0.0
C1810 C 0.06136 0.15568 0.12153 0.0
C1811 C 0.07142 0.15532 0.1116 0.0
C1812 C 0.0633 0.16537 0.10318 0.0
H1813 H 0.18797 0.094 0.10813 0.0
H1814 H 0.16832 0.12344 0.10428 0.0
C1815 C 0.045 0.17504 0.10462 0.0
C1816 C 0.08832 0.14217 0.10985 0.0
H1817 H 0.14402 0.13972 0.11895 0.0
C1818 C 0.07869 0.12021 0.10282 0.0
C1819 C 0.11297 0.15017 0.11533 0.0
C1820 C 0.12558 0.17485 0.12238 0.0
C1821 C 0.09205 0.10498 0.10162 0.0
C1822 C 0.11533 0.1115 0.10777 0.0
C1823 C 0.126 0.13453 0.1143 0.0
C1824 C 0.12682 0.09289 0.10851 0.0
C1825 C 0.08075 0.08167 0.09392 0.0
C1826 C 0.10995 0.06588 0.11196 0.0
C1827 C 0.12104 0.04916 0.11414 0.0
C1828 C 0.14933 0.05912 0.11298 0.0
C1829 C 0.16607 0.08571 0.10902 0.0
C1830 C 0.15491 0.10258 0.10688 0.0
H1831 H 0.07013 0.08554 0.08743 0.0
H1832 H 0.09722 0.07846 0.09068 0.0
H1833 H 0.06546 0.0625 0.09784 0.0
H1834 H 0.08835 0.05811 0.11348 0.0
H1835 H 0.10757 0.02874 0.11715 0.0
H1836 H 0.9669 0.07922 0.12364 0.0
H1837 H 0.93847 0.03129 0.11889 0.0
H1838 H 0.88154 0.04966 0.10347 0.0
H1839 H 0.90999 0.09823 0.10835 0.0
H1840 H 0.85657 0.00516 0.11734 0.0
H1841 H 0.92718 0.99289 0.09105 0.0
H1842 H 0.94389 0.00938 0.10291 0.0
H1843 H 0.93161 0.0261 0.09432 0.0
C1844 C 0.94851 0.07328 0.11914 0.0
C1845 C 0.94069 0.09261 0.1164 0.0
C1846 C 0.93237 0.04583 0.11635 0.0
C1847 C 0.90812 0.03699 0.1107 0.0
C1848 C 0.90035 0.05618 0.10776 0.0
H1849 H 0.82782 0.86188 0.09568 0.0
H1850 H 0.84403 0.91084 0.09361 0.0
C1851 C 0.91665 0.08389 0.11053 0.0
C1852 C 0.89028 0.00729 0.10864 0.0
H1853 H 0.89321 0.95171 0.09981 0.0
C1854 C 0.86426 0.99346 0.1133 0.0
C1855 C 0.90015 0.9921 0.10324 0.0
C1856 C 0.92713 0.00594 0.0975 0.0
C1857 C 0.84875 0.96466 0.11336 0.0
C1858 C 0.85982 0.94944 0.10879 0.0
C1859 C 0.8849 0.96335 0.10346 0.0
C1860 C 0.84691 0.9193 0.11005 0.0
C1861 C 0.82093 0.95081 0.11849 0.0
C1862 C 0.84303 0.90776 0.11999 0.0
C1863 C 0.83373 0.87977 0.1212 0.0
C1864 C 0.82842 0.8629 0.11249 0.0
C1865 C 0.83176 0.87437 0.10255 0.0
C1866 C 0.84098 0.90233 0.10134 0.0
H1867 H 0.81168 0.96424 0.1184 0.0
H1868 H 0.80664 0.9311 0.11462 0.0
H1869 H 0.82323 0.94648 0.1267 0.0
H1870 H 0.84814 0.92058 0.12682 0.0
H1871 H 0.83148 0.87153 0.12895 0.0
H1872 H 0.90217 0.83156 0.10103 0.0
H1873 H 0.95106 0.84992 0.09673 0.0
H1874 H 0.973 0.87538 0.12846 0.0
H1875 H 0.92496 0.85771 0.13275 0.0
H1876 H 0.99483 0.90931 0.10136 0.0
H1877 H 0.01344 0.83162 0.12025 0.0
H1878 H 0.97988 0.82414 0.11583 0.0
H1879 H 0.99338 0.84196 0.12785 0.0
C1880 C 0.91748 0.84086 0.10707 0.0
C1881 C 0.90979 0.8434 0.1172 0.0
C1882 C 0.94529 0.8513 0.10461 0.0
C1883 C 0.96548 0.86368 0.11232 0.0
C1884 C 0.95768 0.86559 0.12244 0.0
H1885 H 0.12987 0.96212 0.12947 0.0
H1886 H 0.08091 0.92918 0.12731 0.0
C1887 C 0.9302 0.85567 0.12485 0.0
C1888 C 0.99508 0.87667 0.10993 0.0
H1889 H 0.05285 0.87646 0.11784 0.0
C1890 C 0.00759 0.90185 0.10468 0.0
C1891 C 0.01151 0.86689 0.11438 0.0
C1892 C 0.9989 0.83953 0.11982 0.0
C1893 C 0.0363 0.91853 0.10442 0.0
C1894 C 0.05275 0.90941 0.10938 0.0
C1895 C 0.04019 0.88345 0.11409 0.0
C1896 C 0.08277 0.92755 0.11059 0.0
C1897 C 0.0487 0.94655 0.09947 0.0
C1898 C 0.10011 0.93699 0.10193 0.0
C1899 C 0.12805 0.95588 0.10315 0.0
C1900 C 0.13914 0.96551 0.11305 0.0
C1901 C 0.12192 0.95515 0.12175 0.0
C1902 C 0.09397 0.93632 0.12052 0.0
H1903 H 0.03298 0.95238 0.09766 0.0
H1904 H 0.06441 0.96244 0.10463 0.0
H1905 H 0.05895 0.94655 0.09213 0.0
H1906 H 0.09195 0.9301 0.09422 0.0
H1907 H 0.14085 0.96335 0.0963 0.0
H1908 H 0.09584 0.19113 0.39049 0.0
H1909 H 0.12525 0.17143 0.3944 0.0
H1910 H 0.0618 0.09253 0.38339 0.0
H1911 H 0.0324 0.11166 0.37972 0.0
H1912 H 0.08715 0.08845 0.40089 0.0
H1913 H 0.16332 0.15382 0.37097 0.0
H1914 H 0.15666 0.17126 0.38125 0.0
H1915 H 0.13011 0.15117 0.37208 0.0
C1916 C 0.08804 0.16948 0.3891 0.0
C1917 C 0.06197 0.15305 0.38465 0.0
C1918 C 0.10494 0.15833 0.39125 0.0
C1919 C 0.0959 0.13065 0.38898 0.0
C1920 C 0.06927 0.11397 0.38514 0.0
H1921 H 0.16355 0.03415 0.36878 0.0
H1922 H 0.14643 0.06615 0.37119 0.0
C1923 C 0.05252 0.12501 0.383 0.0
C1924 C 0.11414 0.1188 0.38994 0.0
H1925 H 0.16883 0.11888 0.3784 0.0
C1926 C 0.10531 0.09534 0.39612 0.0
C1927 C 0.1376 0.1277 0.38359 0.0
C1928 C 0.14751 0.15224 0.37653 0.0
C1929 C 0.11843 0.07972 0.39575 0.0
C1930 C 0.14154 0.08827 0.38922 0.0
C1931 C 0.15116 0.11244 0.3834 0.0
C1932 C 0.1545 0.07115 0.38768 0.0
C1933 C 0.10634 0.05333 0.40187 0.0
C1934 C 0.16547 0.064 0.39608 0.0
C1935 C 0.17485 0.04543 0.39474 0.0
C1936 C 0.17393 0.0341 0.38494 0.0
C1937 C 0.16443 0.04249 0.37642 0.0
C1938 C 0.15469 0.0608 0.37779 0.0
H1939 H 0.08511 0.0466 0.40452 0.0
H1940 H 0.10593 0.03657 0.39718 0.0
H1941 H 0.11915 0.05647 0.40883 0.0
H1942 H 0.16619 0.07228 0.40372 0.0
H1943 H 0.18242 0.0396 0.40143 0.0
H1944 H 0.96334 0.13122 0.36981 0.0
H1945 H 0.93093 0.08226 0.37219 0.0
H1946 H 0.93426 0.09389 0.4053 0.0
H1947 H 0.96704 0.14276 0.40299 0.0
H1948 H 0.94309 0.05276 0.39998 0.0
H1949 H 0.85027 0.03892 0.37988 0.0
H1950 H 0.88017 0.05616 0.37183 0.0
H1951 H 0.87811 0.0723 0.38357 0.0
C1952 C 0.95683 0.12342 0.37758 0.0
C1953 C 0.96778 0.1408 0.38621 0.0
C1954 C 0.93814 0.09547 0.37894 0.0
C1955 C 0.92984 0.08448 0.38893 0.0
C1956 C 0.94023 0.10196 0.39753 0.0
H1957 H 0.81286 0.90604 0.3917 0.0
H1958 H 0.83327 0.95493 0.39613 0.0
C1959 C 0.95898 0.12987 0.39618 0.0
C1960 C 0.91256 0.0544 0.3904 0.0
H1961 H 0.85403 0.99812 0.38187 0.0
C1962 C 0.92335 0.04086 0.39619 0.0
C1963 C 0.88656 0.03888 0.38564 0.0
C1964 C 0.87296 0.05236 0.37998 0.0
C1965 C 0.90976 0.01213 0.39673 0.0
C1966 C 0.885 0.99656 0.39119 0.0
C1967 C 0.87319 0.01009 0.38602 0.0
C1968 C 0.87304 0.96666 0.38955 0.0
C1969 C 0.92249 0.99871 0.403 0.0
C1970 C 0.88866 0.95716 0.38444 0.0
C1971 C 0.87717 0.92951 0.38191 0.0
C1972 C 0.84964 0.91067 0.38436 0.0
C1973 C 0.83415 0.92002 0.38976 0.0
C1974 C 0.84572 0.94791 0.39226 0.0
H1975 H 0.93513 0.01221 0.40944 0.0
H1976 H 0.90658 0.97877 0.40627 0.0
H1977 H 0.93621 0.99495 0.39793 0.0
H1978 H 0.90958 0.97132 0.38209 0.0
H1979 H 0.88975 0.92304 0.3778 0.0
H1980 H 0.09921 0.92902 0.39608 0.0
H1981 H 0.05015 0.89984 0.40041 0.0
H1982 H 0.02844 0.90708 0.36902 0.0
H1983 H 0.0767 0.93615 0.36469 0.0
H1984 H 0.00721 0.91846 0.39587 0.0
H1985 H 0.98675 0.82147 0.3769 0.0
H1986 H 0.02031 0.84668 0.38165 0.0
H1987 H 0.00784 0.85225 0.36961 0.0
C1988 C 0.08391 0.92417 0.39012 0.0
C1989 C 0.09179 0.93502 0.38007 0.0
C1990 C 0.05601 0.90757 0.39259 0.0
C1991 C 0.03585 0.9012 0.38498 0.0
C1992 C 0.04375 0.91159 0.37495 0.0
H1993 H 0.86931 0.83318 0.36924 0.0
H1994 H 0.9186 0.85007 0.37078 0.0
C1995 C 0.07137 0.92837 0.37252 0.0
C1996 C 0.00625 0.88509 0.3874 0.0
H1997 H 0.94787 0.82705 0.37996 0.0
C1998 C 0.99415 0.89816 0.39265 0.0
C1999 C 0.98947 0.85881 0.38307 0.0
C2000 C 0.00168 0.84379 0.37755 0.0
C2001 C 0.96549 0.88633 0.39311 0.0
C2002 C 0.94864 0.86053 0.38835 0.0
C2003 C 0.96083 0.84685 0.38357 0.0
C2004 C 0.9185 0.84846 0.38753 0.0
C2005 C 0.95354 0.90234 0.39808 0.0
C2006 C 0.90204 0.84137 0.39643 0.0
C2007 C 0.87393 0.83187 0.39557 0.0
C2008 C 0.86176 0.82907 0.38579 0.0
C2009 C 0.8781 0.83518 0.37687 0.0
C2010 C 0.90624 0.84479 0.37774 0.0
H2011 H 0.96939 0.9241 0.39951 0.0
H2012 H 0.93717 0.90191 0.39314 0.0
H2013 H 0.94426 0.89287 0.40564 0.0
H2014 H 0.911 0.84355 0.40404 0.0
H2015 H 0.86182 0.82714 0.40258 0.0
H2016 H 0.81005 0.90624 0.8892 0.0
H2017 H 0.82872 0.8762 0.89354 0.0
H2018 H 0.90877 0.93873 0.88314 0.0
H2019 H 0.89054 0.96867 0.87892 0.0
H2020 H 0.85239 0.85737 0.87911 0.0
H2021 H 0.92645 0.91432 0.9103 0.0
H2022 H 0.89928 0.92102 0.90673 0.0
H2023 H 0.93092 0.93625 0.89951 0.0
C2024 C 0.83175 0.91376 0.88809 0.0
C2025 C 0.8488 0.93975 0.88368 0.0
C2026 C 0.84235 0.89657 0.89052 0.0
C2027 C 0.87018 0.90537 0.88876 0.0
C2028 C 0.88736 0.93171 0.88475 0.0
H2029 H 0.96238 0.83371 0.86841 0.0
H2030 H 0.92967 0.8499 0.87068 0.0
C2031 C 0.87683 0.94873 0.88226 0.0
C2032 C 0.88116 0.88648 0.89005 0.0
H2033 H 0.93614 0.8842 0.89995 0.0
C2034 C 0.87034 0.86284 0.88384 0.0
C2035 C 0.9043 0.89341 0.89633 0.0
C2036 C 0.91572 0.91749 0.90367 0.0
C2037 C 0.88326 0.84703 0.88321 0.0
C2038 C 0.90787 0.85545 0.88878 0.0
C2039 C 0.91751 0.87795 0.89554 0.0
C2040 C 0.92503 0.84254 0.88722 0.0
C2041 C 0.8707 0.82181 0.87643 0.0
C2042 C 0.93349 0.83321 0.89576 0.0
C2043 C 0.95249 0.82436 0.8945 0.0
C2044 C 0.96344 0.8247 0.88467 0.0
C2045 C 0.95421 0.83308 0.87606 0.0
C2046 C 0.93534 0.84214 0.87734 0.0
H2047 H 0.84814 0.81298 0.87572 0.0
H2048 H 0.87962 0.82753 0.86854 0.0
H2049 H 0.87481 0.80579 0.87952 0.0
H2050 H 0.92592 0.83345 0.90346 0.0
H2051 H 0.95917 0.81794 0.90128 0.0
H2052 H 0.02941 0.92271 0.87656 0.0
H2053 H 0.05855 0.9712 0.88044 0.0
H2054 H 0.11686 0.9542 0.89553 0.0
H2055 H 0.08784 0.90521 0.89146 0.0
H2056 H 0.0792 0.0006 0.89855 0.0
H2057 H 0.16255 0.00922 0.87275 0.0
H2058 H 0.1287 0.97926 0.87282 0.0
H2059 H 0.15228 0.98483 0.88316 0.0
C2060 C 0.04831 0.92913 0.88078 0.0
C2061 C 0.05651 0.91011 0.88355 0.0
C2062 C 0.06491 0.9569 0.88303 0.0
C2063 C 0.09009 0.96636 0.8881 0.0
C2064 C 0.09771 0.94734 0.89143 0.0
H2065 H 0.1804 0.1432 0.90176 0.0
H2066 H 0.16158 0.09377 0.90387 0.0
C2067 C 0.08102 0.91936 0.88918 0.0
C2068 C 0.1086 0.99635 0.88925 0.0
H2069 H 0.16775 0.0501 0.87969 0.0
C2070 C 0.0988 0.01145 0.89458 0.0
C2071 C 0.13397 0.01038 0.88393 0.0
C2072 C 0.14504 0.99523 0.87777 0.0
C2073 C 0.11311 0.04025 0.8944 0.0
C2074 C 0.13822 0.05428 0.88893 0.0
C2075 C 0.14856 0.03921 0.88392 0.0
C2076 C 0.15275 0.08446 0.88759 0.0
C2077 C 0.10044 0.05534 0.89958 0.0
C2078 C 0.15522 0.0957 0.87767 0.0
C2079 C 0.16622 0.12397 0.87642 0.0
C2080 C 0.17486 0.14141 0.88508 0.0
C2081 C 0.17366 0.13023 0.89494 0.0
C2082 C 0.1628 0.102 0.89618 0.0
H2083 H 0.07854 0.0414 0.90161 0.0
H2084 H 0.11177 0.06497 0.90684 0.0
H2085 H 0.10179 0.07188 0.89449 0.0
H2086 H 0.14767 0.08248 0.87093 0.0
H2087 H 0.167 0.13198 0.86872 0.0
H2088 H 0.09616 0.1893 0.89078 0.0
H2089 H 0.04719 0.16897 0.895 0.0
H2090 H 0.03289 0.0899 0.88474 0.0
H2091 H 0.08138 0.10977 0.88068 0.0
H2092 H 0.0061 0.14534 0.88053 0.0
H2093 H 0.98825 0.06963 0.9111 0.0
H2094 H 0.0222 0.09714 0.90783 0.0
H2095 H 0.00635 0.06586 0.90038 0.0
C2096 C 0.08266 0.16744 0.88971 0.0
C2097 C 0.09256 0.15116 0.88534 0.0
C2098 C 0.05471 0.1559 0.89208 0.0
C2099 C 0.03643 0.12787 0.89027 0.0
C2100 C 0.04663 0.11143 0.88639 0.0
H2101 H 0.87274 0.03618 0.86857 0.0
H2102 H 0.92181 0.06779 0.87119 0.0
C2103 C 0.07437 0.12291 0.88399 0.0
C2104 C 0.00634 0.11608 0.89125 0.0
H2105 H 0.94886 0.05984 0.90041 0.0
C2106 C 0.99356 0.12698 0.88505 0.0
C2107 C 0.98998 0.09236 0.89725 0.0
C2108 C 0.00245 0.08077 0.9046 0.0
C2109 C 0.96486 0.11373 0.88418 0.0
C2110 C 0.94859 0.08868 0.88948 0.0
C2111 C 0.96132 0.07881 0.89621 0.0
C2112 C 0.91856 0.07155 0.88776 0.0
C2113 C 0.9523 0.12651 0.87747 0.0
C2114 C 0.90044 0.06285 0.8962 0.0
C2115 C 0.87248 0.0445 0.89474 0.0
C2116 C 0.86209 0.03445 0.8848 0.0
C2117 C 0.88011 0.04371 0.87631 0.0
C2118 C 0.90814 0.06193 0.87779 0.0
H2119 H 0.96595 0.14912 0.87691 0.0
H2120 H 0.94936 0.11797 0.86952 0.0
H2121 H 0.93203 0.12214 0.88051 0.0
H2122 H 0.90803 0.06988 0.90397 0.0
H2123 H 0.8591 0.03776 0.90144 0.0
H2124 H 0.82419 0.96502 0.59543 0.0
H2125 H 0.8408 0.93255 0.59341 0.0
H2126 H 0.84928 0.93069 0.62656 0.0
H2127 H 0.83228 0.96278 0.62866 0.0
H2128 H 0.89125 0.94215 0.599 0.0
H2129 H 0.81202 0.84969 0.61924 0.0
H2130 H 0.80636 0.87726 0.61525 0.0
H2131 H 0.82436 0.87986 0.62712 0.0
C2132 C 0.82915 0.95732 0.60231 0.0
C2133 C 0.82696 0.96645 0.61221 0.0
C2134 C 0.83863 0.93878 0.60113 0.0
C2135 C 0.84591 0.92891 0.60983 0.0
C2136 C 0.84315 0.93752 0.61975 0.0
H2137 H 0.96703 0.8887 0.62205 0.0
H2138 H 0.93906 0.90889 0.61744 0.0
C2139 C 0.83362 0.95603 0.62093 0.0
C2140 C 0.85887 0.91173 0.60855 0.0
H2141 H 0.85664 0.85357 0.61747 0.0
C2142 C 0.88339 0.92252 0.60287 0.0
C2143 C 0.84837 0.88589 0.61342 0.0
C2144 C 0.82116 0.87235 0.619 0.0
C2145 C 0.89866 0.90903 0.60254 0.0
C2146 C 0.88937 0.8844 0.60818 0.0
C2147 C 0.86389 0.87263 0.61325 0.0
C2148 C 0.90718 0.87238 0.60995 0.0
C2149 C 0.92499 0.9217 0.59639 0.0
C2150 C 0.89847 0.845 0.60733 0.0
C2151 C 0.91448 0.83324 0.61001 0.0
C2152 C 0.9392 0.84861 0.6155 0.0
C2153 C 0.94807 0.87621 0.61786 0.0
C2154 C 0.9322 0.88791 0.61515 0.0
H2155 H 0.92436 0.93432 0.58989 0.0
H2156 H 0.94234 0.93541 0.60152 0.0
H2157 H 0.92909 0.90575 0.59321 0.0
H2158 H 0.87908 0.83262 0.60339 0.0
H2159 H 0.90704 0.8119 0.60811 0.0
H2160 H 0.10791 0.08328 0.61091 0.0
H2161 H 0.08716 0.03372 0.60846 0.0
H2162 H 0.16692 0.04089 0.61128 0.0
H2163 H 0.18795 0.09082 0.61331 0.0
H2164 H 0.13291 0.99933 0.59775 0.0
H2165 H 0.07979 0.99121 0.63481 0.0
H2166 H 0.07194 0.00896 0.62507 0.0
H2167 H 0.10656 0.02353 0.62982 0.0
C2168 C 0.12109 0.07436 0.61066 0.0
C2169 C 0.14944 0.09071 0.61238 0.0
C2170 C 0.10922 0.04606 0.60936 0.0
C2171 C 0.12539 0.03356 0.61005 0.0
C2172 C 0.15405 0.05013 0.61083 0.0
H2173 H 0.04455 0.86256 0.62997 0.0
H2174 H 0.07703 0.91191 0.62863 0.0
C2175 C 0.16605 0.07862 0.61193 0.0
C2176 C 0.11205 0.0033 0.61104 0.0
H2177 H 0.0647 0.94966 0.62548 0.0
C2178 C 0.11813 0.98841 0.60384 0.0
C2179 C 0.09342 0.98917 0.6192 0.0
C2180 C 0.08775 0.00405 0.62773 0.0
C2181 C 0.10516 0.95961 0.60434 0.0
C2182 C 0.08511 0.94539 0.61208 0.0
C2183 C 0.07987 0.96045 0.61948 0.0
C2184 C 0.06834 0.91495 0.61249 0.0
C2185 C 0.11334 0.94484 0.59662 0.0
C2186 C 0.05286 0.90013 0.60385 0.0
C2187 C 0.03468 0.87192 0.60457 0.0
C2188 C 0.03113 0.85805 0.614 0.0
C2189 C 0.0469 0.87273 0.6226 0.0
C2190 C 0.06544 0.90091 0.62184 0.0
H2191 H 0.13478 0.95821 0.59391 0.0
H2192 H 0.11153 0.92583 0.59997 0.0
H2193 H 0.09973 0.93922 0.58975 0.0
H2194 H 0.05397 0.91052 0.59666 0.0
H2195 H 0.02258 0.86121 0.59783 0.0
H2196 H 0.14298 0.18241 0.59655 0.0
H2197 H 0.09441 0.16697 0.59369 0.0
H2198 H 0.07826 0.14767 0.62618 0.0
H2199 H 0.12688 0.16373 0.62913 0.0
H2200 H 0.05286 0.11615 0.59638 0.0
H2201 H 0.03526 0.18613 0.62099 0.0
H2202 H 0.06929 0.19314 0.61755 0.0
H2203 H 0.05119 0.17068 0.62824 0.0
C2204 C 0.12916 0.17534 0.60312 0.0
C2205 C 0.13872 0.17425 0.61307 0.0
C2206 C 0.10141 0.16652 0.60146 0.0
C2207 C 0.08273 0.15651 0.60973 0.0
C2208 C 0.09238 0.15598 0.61972 0.0
H2209 H 0.92162 0.03102 0.61631 0.0
H2210 H 0.96985 0.06071 0.6121 0.0
C2211 C 0.12016 0.16496 0.62139 0.0
C2212 C 0.05285 0.14413 0.6078 0.0
H2213 H 0.99509 0.14211 0.6171 0.0
C2214 C 0.0403 0.12222 0.60076 0.0
C2215 C 0.03643 0.15237 0.61331 0.0
C2216 C 0.0488 0.17708 0.62035 0.0
C2217 C 0.01166 0.10706 0.59967 0.0
C2218 C 0.99515 0.11366 0.60594 0.0
C2219 C 0.00774 0.13684 0.61239 0.0
C2220 C 0.96519 0.0948 0.60699 0.0
C2221 C 0.99934 0.08361 0.59204 0.0
C2222 C 0.94639 0.10403 0.60548 0.0
C2223 C 0.91857 0.08697 0.60792 0.0
C2224 C 0.90935 0.06068 0.61208 0.0
C2225 C 0.92809 0.05121 0.61316 0.0
C2226 C 0.95568 0.06809 0.61067 0.0
H2227 H 0.01354 0.08739 0.58547 0.0
H2228 H 0.99566 0.06453 0.59598 0.0
H2229 H 0.97949 0.0803 0.58894 0.0
H2230 H 0.95338 0.12468 0.60272 0.0
H2231 H 0.90464 0.09488 0.60706 0.0
H2232 H 0.70063 0.49619 0.46216 0.0
H2233 H 0.7335 0.48023 0.45974 0.0
H2234 H 0.73525 0.49508 0.42689 0.0
H2235 H 0.70184 0.51033 0.42922 0.0
H2236 H 0.72703 0.44524 0.43051 0.0
H2237 H 0.81481 0.519 0.45425 0.0
H2238 H 0.78358 0.50373 0.46161 0.0
H2239 H 0.78723 0.52494 0.45058 0.0
C2240 C 0.70835 0.49646 0.45445 0.0
C2241 C 0.69863 0.50446 0.44588 0.0
C2242 C 0.72731 0.48753 0.45308 0.0
C2243 C 0.73721 0.48687 0.44315 0.0
C2244 C 0.72803 0.49555 0.43462 0.0
H2245 H 0.85725 0.42941 0.44099 0.0
H2246 H 0.83685 0.458 0.43672 0.0
C2247 C 0.70893 0.50425 0.43597 0.0
C2248 C 0.75506 0.47473 0.44155 0.0
H2249 H 0.81211 0.47533 0.45091 0.0
C2250 C 0.74592 0.45218 0.43483 0.0
C2251 C 0.78004 0.48408 0.44698 0.0
C2252 C 0.79214 0.50947 0.45366 0.0
C2253 C 0.76005 0.43762 0.43395 0.0
C2254 C 0.7836 0.44545 0.44011 0.0
C2255 C 0.79385 0.46914 0.44627 0.0
C2256 C 0.79568 0.42747 0.44132 0.0
C2257 C 0.74918 0.41355 0.42661 0.0
C2258 C 0.77927 0.40084 0.4452 0.0
C2259 C 0.79076 0.38464 0.44764 0.0
C2260 C 0.81904 0.39475 0.44632 0.0
C2261 C 0.83538 0.42104 0.44204 0.0
C2262 C 0.8238 0.4374 0.43964 0.0
H2263 H 0.73819 0.41636 0.41999 0.0
H2264 H 0.76594 0.41055 0.42354 0.0
H2265 H 0.73429 0.39464 0.43078 0.0
H2266 H 0.75767 0.39294 0.44677 0.0
H2267 H 0.77756 0.36442 0.45087 0.0
H2268 H 0.49093 0.18939 0.4286 0.0
H2269 H 0.51046 0.23911 0.42683 0.0
H2270 H 0.51294 0.24729 0.46006 0.0
H2271 H 0.49332 0.19765 0.46193 0.0
H2272 H 0.49281 0.27899 0.43785 0.0
H2273 H 0.59547 0.29221 0.44689 0.0
H2274 H 0.56769 0.26061 0.44174 0.0
H2275 H 0.56754 0.26914 0.45512 0.0
C2276 C 0.49516 0.20171 0.43553 0.0
C2277 C 0.49084 0.18967 0.44542 0.0
C2278 C 0.50625 0.23006 0.43449 0.0
C2279 C 0.51321 0.24671 0.44331 0.0
C2280 C 0.50768 0.23464 0.45317 0.0
H2281 H 0.60086 0.40597 0.4658 0.0
H2282 H 0.57426 0.35763 0.46142 0.0
C2283 C 0.49651 0.20632 0.45423 0.0
C2284 C 0.52855 0.2769 0.44233 0.0
H2285 H 0.59163 0.33227 0.44702 0.0
C2286 C 0.5145 0.29078 0.43969 0.0
C2287 C 0.55686 0.29197 0.44462 0.0
C2288 C 0.57295 0.27784 0.44718 0.0
C2289 C 0.52781 0.31964 0.43996 0.0
C2290 C 0.55582 0.33468 0.44282 0.0
C2291 C 0.57013 0.32067 0.44485 0.0
C2292 C 0.56989 0.3644 0.44521 0.0
C2293 C 0.51158 0.33377 0.43776 0.0
C2294 C 0.57585 0.38441 0.43756 0.0
C2295 C 0.59108 0.41245 0.44008 0.0
C2296 C 0.60081 0.42063 0.45024 0.0
C2297 C 0.59409 0.40041 0.45786 0.0
C2298 C 0.57879 0.37271 0.45538 0.0
H2299 H 0.48929 0.31895 0.43686 0.0
H2300 H 0.51443 0.3483 0.4441 0.0
H2301 H 0.51917 0.3458 0.43049 0.0
H2302 H 0.5694 0.37839 0.42962 0.0
H2303 H 0.596 0.42761 0.43406 0.0
H2304 H 0.80713 0.30016 0.42827 0.0
H2305 H 0.75768 0.26919 0.42634 0.0
H2306 H 0.74792 0.26766 0.45951 0.0
H2307 H 0.79744 0.29816 0.46153 0.0
H2308 H 0.71626 0.21622 0.45017 0.0
H2309 H 0.70353 0.29697 0.43035 0.0
H2310 H 0.7274 0.28877 0.42439 0.0
H2311 H 0.73473 0.30442 0.43699 0.0
C2312 C 0.79449 0.293 0.43516 0.0
C2313 C 0.80609 0.3018 0.44505 0.0
C2314 C 0.76624 0.27542 0.43403 0.0
C2315 C 0.74911 0.26657 0.44277 0.0
C2316 C 0.7608 0.27437 0.45267 0.0
H2317 H 0.58582 0.22234 0.45491 0.0
H2318 H 0.63445 0.24325 0.45102 0.0
C2319 C 0.78907 0.29183 0.45381 0.0
C2320 C 0.71889 0.25029 0.44163 0.0
H2321 H 0.66365 0.25438 0.43305 0.0
C2322 C 0.70469 0.22436 0.44634 0.0
C2323 C 0.70396 0.26115 0.43667 0.0
C2324 C 0.71807 0.28943 0.43188 0.0
C2325 C 0.67587 0.20933 0.44651 0.0
C2326 C 0.66093 0.22038 0.44168 0.0
C2327 C 0.67518 0.24587 0.43665 0.0
C2328 C 0.63084 0.2078 0.44301 0.0
C2329 C 0.66172 0.18252 0.45236 0.0
C2330 C 0.61242 0.18112 0.43951 0.0
C2331 C 0.58436 0.16889 0.44179 0.0
C2332 C 0.57439 0.18324 0.4476 0.0
C2333 C 0.59279 0.21049 0.45057 0.0
C2334 C 0.62065 0.22257 0.44831 0.0
H2335 H 0.67629 0.17938 0.45718 0.0
H2336 H 0.64541 0.18163 0.45747 0.0
H2337 H 0.65191 0.16529 0.44677 0.0
H2338 H 0.61981 0.16958 0.43521 0.0
H2339 H 0.5707 0.14795 0.43934 0.0
H2340 H 0.74234 0.50203 0.73119 0.0
H2341 H 0.7718 0.48236 0.73529 0.0
H2342 H 0.77059 0.46088 0.70315 0.0
H2343 H 0.74127 0.47995 0.69906 0.0
H2344 H 0.75474 0.42426 0.73025 0.0
H2345 H 0.8533 0.49895 0.71192 0.0
H2346 H 0.82802 0.50789 0.71602 0.0
H2347 H 0.82376 0.49006 0.70399 0.0
C2348 C 0.74877 0.49347 0.72501 0.0
C2349 C 0.7394 0.49233 0.71482 0.0
C2350 C 0.76552 0.48227 0.72735 0.0
C2351 C 0.77357 0.47051 0.71949 0.0
C2352 C 0.76493 0.47023 0.7093 0.0
H2353 H 0.83529 0.36732 0.70283 0.0
H2354 H 0.82035 0.4012 0.70469 0.0
C2355 C 0.74799 0.48094 0.70699 0.0
C2356 C 0.78878 0.45602 0.7218 0.0
H2357 H 0.84529 0.45304 0.71416 0.0
C2358 C 0.77486 0.43079 0.72699 0.0
C2359 C 0.81488 0.46461 0.71745 0.0
C2360 C 0.83102 0.49199 0.71211 0.0
C2361 C 0.78553 0.41295 0.7273 0.0
C2362 C 0.81104 0.42094 0.72246 0.0
C2363 C 0.82567 0.4469 0.7178 0.0
C2364 C 0.82182 0.40183 0.72145 0.0
C2365 C 0.76855 0.385 0.73218 0.0
C2366 C 0.82813 0.39142 0.73025 0.0
C2367 C 0.83645 0.37195 0.7292 0.0
C2368 C 0.83889 0.36277 0.71933 0.0
C2369 C 0.83353 0.37396 0.71052 0.0
C2370 C 0.82505 0.39333 0.71158 0.0
H2371 H 0.74706 0.37998 0.73363 0.0
H2372 H 0.76819 0.36877 0.72717 0.0
H2373 H 0.77779 0.38457 0.73972 0.0
H2374 H 0.8263 0.39812 0.73792 0.0
H2375 H 0.84067 0.36385 0.73613 0.0
H2376 H 0.4941 0.23391 0.73088 0.0
H2377 H 0.51509 0.28277 0.73568 0.0
H2378 H 0.53303 0.30548 0.70352 0.0
H2379 H 0.51261 0.25735 0.69873 0.0
H2380 H 0.57236 0.32291 0.73034 0.0
H2381 H 0.49888 0.35157 0.71431 0.0
H2382 H 0.48917 0.31662 0.7176 0.0
H2383 H 0.50632 0.33133 0.70555 0.0
C2384 C 0.50209 0.24939 0.72485 0.0
C2385 C 0.50189 0.24191 0.71445 0.0
C2386 C 0.51407 0.27718 0.7276 0.0
C2387 C 0.52527 0.29763 0.71993 0.0
C2388 C 0.5241 0.29001 0.70953 0.0
H2389 H 0.63134 0.46208 0.7041 0.0
H2390 H 0.59681 0.4135 0.70596 0.0
C2391 C 0.51261 0.26249 0.70682 0.0
C2392 C 0.54081 0.32713 0.7226 0.0
H2393 H 0.54576 0.38823 0.71611 0.0
C2394 C 0.56632 0.33727 0.7275 0.0
C2395 C 0.53284 0.34567 0.71882 0.0
C2396 C 0.50517 0.33576 0.71386 0.0
C2397 C 0.58502 0.36559 0.72801 0.0
C2398 C 0.57766 0.38413 0.72367 0.0
C2399 C 0.55143 0.37397 0.71935 0.0
C2400 C 0.59767 0.41385 0.72272 0.0
C2401 C 0.61314 0.3753 0.73255 0.0
C2402 C 0.60928 0.43022 0.73154 0.0
C2403 C 0.62914 0.45793 0.73049 0.0
C2404 C 0.63752 0.46978 0.72061 0.0
C2405 C 0.62534 0.45351 0.7118 0.0
C2406 C 0.60558 0.42579 0.71286 0.0
H2407 H 0.61734 0.35817 0.73369 0.0
H2408 H 0.62935 0.39093 0.72746 0.0
H2409 H 0.61459 0.38493 0.7402 0.0
H2410 H 0.60309 0.42153 0.73922 0.0
H2411 H 0.63802 0.47002 0.73742 0.0
H2412 H 0.76244 0.26248 0.73045 0.0
H2413 H 0.71288 0.23764 0.73442 0.0
H2414 H 0.69473 0.23678 0.70191 0.0
H2415 H 0.74352 0.26164 0.69797 0.0
H2416 H 0.67123 0.26004 0.71504 0.0
H2417 H 0.64998 0.15717 0.72865 0.0
H2418 H 0.67836 0.18724 0.73433 0.0
H2419 H 0.67994 0.17925 0.72099 0.0
C2420 C 0.74776 0.25649 0.72418 0.0
C2421 C 0.75678 0.26426 0.71393 0.0
C2422 C 0.71954 0.2423 0.72644 0.0
C2423 C 0.70019 0.23544 0.71844 0.0
C2424 C 0.70931 0.24202 0.7082 0.0
H2425 H 0.53285 0.16814 0.70199 0.0
H2426 H 0.58249 0.18697 0.70346 0.0
C2427 C 0.73722 0.25629 0.70596 0.0
C2428 C 0.6705 0.22355 0.72055 0.0
H2429 H 0.61207 0.16394 0.7268 0.0
C2430 C 0.65833 0.23913 0.71773 0.0
C2431 C 0.65381 0.19636 0.72412 0.0
C2432 C 0.666 0.17883 0.72717 0.0
C2433 C 0.62981 0.2279 0.71797 0.0
C2434 C 0.613 0.20028 0.72101 0.0
C2435 C 0.62513 0.18505 0.72437 0.0
C2436 C 0.58277 0.18673 0.72022 0.0
C2437 C 0.61778 0.24548 0.71474 0.0
C2438 C 0.56655 0.17983 0.72916 0.0
C2439 C 0.5382 0.16917 0.72835 0.0
C2440 C 0.52568 0.16508 0.71857 0.0
C2441 C 0.54191 0.17114 0.70963 0.0
C2442 C 0.57024 0.18191 0.71045 0.0
H2443 H 0.63336 0.2677 0.71493 0.0
H2444 H 0.60985 0.24008 0.70671 0.0
H2445 H 0.60039 0.2418 0.71986 0.0
H2446 H 0.57591 0.18341 0.73676 0.0
H2447 H 0.52619 0.1646 0.73538 0.0
H2448 H 0.63488 0.15894 0.23771 0.0
H2449 H 0.60026 0.1729 0.23943 0.0
H2450 H 0.59264 0.17243 0.20618 0.0
H2451 H 0.62704 0.15823 0.2044 0.0
H2452 H 0.60484 0.22063 0.23183 0.0
H2453 H 0.51263 0.13113 0.2155 0.0
H2454 H 0.54249 0.12948 0.2196 0.0
H2455 H 0.54176 0.14311 0.20706 0.0
C2456 C 0.62552 0.1614 0.23076 0.0
C2457 C 0.63364 0.15745 0.22091 0.0
C2458 C 0.60575 0.16938 0.23177 0.0
C2459 C 0.59356 0.17329 0.22295 0.0
C2460 C 0.6013 0.1689 0.21311 0.0
H2461 H 0.52514 0.26149 0.19998 0.0
H2462 H 0.54446 0.23287 0.20478 0.0
C2463 C 0.6211 0.16097 0.21209 0.0
C2464 C 0.57455 0.18426 0.22393 0.0
H2465 H 0.51272 0.17423 0.21543 0.0
C2466 C 0.5844 0.21018 0.22849 0.0
C2467 C 0.54781 0.1705 0.21965 0.0
C2468 C 0.53543 0.14188 0.21528 0.0
C2469 C 0.56901 0.22358 0.22818 0.0
C2470 C 0.54317 0.21064 0.22322 0.0
C2471 C 0.53257 0.18404 0.21924 0.0
C2472 C 0.52934 0.22625 0.22051 0.0
C2473 C 0.58118 0.25225 0.23249 0.0
C2474 C 0.51406 0.23167 0.22778 0.0
C2475 C 0.50272 0.24807 0.22503 0.0
C2476 C 0.50691 0.25947 0.21503 0.0
C2477 C 0.52177 0.25335 0.20778 0.0
C2478 C 0.53273 0.23686 0.21048 0.0
H2479 H 0.60132 0.25926 0.2363 0.0
H2480 H 0.584 0.26676 0.22614 0.0
H2481 H 0.56688 0.25305 0.23821 0.0
H2482 H 0.51129 0.22357 0.23557 0.0
H2483 H 0.4914 0.25244 0.23078 0.0
H2484 H 0.76567 0.24362 0.21901 0.0
H2485 H 0.79284 0.29364 0.22078 0.0
H2486 H 0.71821 0.29733 0.2233 0.0
H2487 H 0.69116 0.24761 0.22099 0.0
H2488 H 0.74875 0.3297 0.20872 0.0
H2489 H 0.81475 0.3496 0.24317 0.0
H2490 H 0.81825 0.32776 0.23392 0.0
H2491 H 0.78589 0.31612 0.24036 0.0
C2492 C 0.75518 0.25511 0.22029 0.0
C2493 C 0.72641 0.24192 0.21987 0.0
C2494 C 0.7707 0.28369 0.22132 0.0
C2495 C 0.75761 0.29933 0.22222 0.0
C2496 C 0.72879 0.28576 0.22257 0.0
H2497 H 0.82866 0.47269 0.23351 0.0
H2498 H 0.80877 0.42307 0.23466 0.0
C2499 C 0.71335 0.25737 0.2213 0.0
C2500 C 0.77344 0.32977 0.2215 0.0
H2501 H 0.82683 0.38774 0.23192 0.0
C2502 C 0.76572 0.34236 0.21385 0.0
C2503 C 0.79555 0.34635 0.22819 0.0
C2504 C 0.80394 0.33429 0.23694 0.0
C2505 C 0.77919 0.37096 0.21276 0.0
C2506 C 0.80187 0.38752 0.21922 0.0
C2507 C 0.80972 0.37499 0.22686 0.0
C2508 C 0.81643 0.41793 0.21861 0.0
C2509 C 0.76828 0.3831 0.20494 0.0
C2510 C 0.82807 0.43171 0.20927 0.0
C2511 C 0.83909 0.46014 0.20854 0.0
C2512 C 0.83916 0.47526 0.2172 0.0
C2513 C 0.82888 0.46161 0.22668 0.0
C2514 C 0.81754 0.43322 0.22736 0.0
H2515 H 0.74673 0.36829 0.20272 0.0
H2516 H 0.76909 0.40194 0.20799 0.0
H2517 H 0.78098 0.38859 0.19781 0.0
H2518 H 0.8281 0.42042 0.20248 0.0
H2519 H 0.8471 0.47018 0.20116 0.0
H2520 H 0.76328 0.51931 0.22379 0.0
H2521 H 0.71427 0.49734 0.22833 0.0
H2522 H 0.69751 0.42812 0.20903 0.0
H2523 H 0.74576 0.44941 0.20454 0.0
H2524 H 0.66825 0.47874 0.21334 0.0
H2525 H 0.66175 0.39429 0.23751 0.0
H2526 H 0.69367 0.42575 0.23518 0.0
H2527 H 0.67994 0.39905 0.22556 0.0
C2528 C 0.74916 0.4993 0.2206 0.0
C2529 C 0.75852 0.48617 0.2138 0.0
C2530 C 0.72122 0.48685 0.22318 0.0
C2531 C 0.70243 0.46102 0.21909 0.0
C2532 C 0.71177 0.44788 0.21239 0.0
H2533 H 0.53538 0.36628 0.2026 0.0
H2534 H 0.58439 0.39973 0.20412 0.0
C2535 C 0.73944 0.46022 0.20979 0.0
C2536 C 0.67274 0.44766 0.22137 0.0
H2537 H 0.61958 0.38705 0.23003 0.0
C2538 C 0.65756 0.45897 0.21718 0.0
C2539 C 0.65895 0.42205 0.22648 0.0
C2540 C 0.67441 0.40964 0.23153 0.0
C2541 C 0.62872 0.44438 0.21739 0.0
C2542 C 0.6149 0.41775 0.22176 0.0
C2543 C 0.63018 0.40733 0.22656 0.0
C2544 C 0.58478 0.39953 0.22089 0.0
C2545 C 0.61333 0.45736 0.21275 0.0
C2546 C 0.56882 0.388 0.2298 0.0
C2547 C 0.54091 0.3687 0.22894 0.0
C2548 C 0.52847 0.36046 0.21915 0.0
C2549 C 0.54437 0.37233 0.21024 0.0
C2550 C 0.57232 0.39162 0.2111 0.0
H2551 H 0.62597 0.48013 0.21282 0.0
H2552 H 0.60822 0.45068 0.20457 0.0
H2553 H 0.5939 0.45109 0.21699 0.0
H2554 H 0.57808 0.39364 0.23742 0.0
H2555 H 0.52918 0.35992 0.23596 0.0
H2556 H 0.64011 0.22275 0.95712 0.0
H2557 H 0.61262 0.24445 0.95429 0.0
H2558 H 0.55238 0.17283 0.93778 0.0
H2559 H 0.57969 0.15043 0.94078 0.0
H2560 H 0.59442 0.25729 0.93649 0.0
H2561 H 0.50727 0.18224 0.96079 0.0
H2562 H 0.54024 0.18411 0.96075 0.0
H2563 H 0.51691 0.16824 0.95014 0.0
C2564 C 0.62106 0.21151 0.95285 0.0
C2565 C 0.61191 0.18463 0.94931 0.0
C2566 C 0.60541 0.22404 0.95121 0.0
C2567 C 0.58025 0.21008 0.94599 0.0
C2568 C 0.57152 0.18373 0.94201 0.0
H2569 H 0.49639 0.30206 0.93157 0.0
H2570 H 0.51528 0.27141 0.92995 0.0
C2571 C 0.58724 0.17107 0.94366 0.0
C2572 C 0.56316 0.22323 0.9451 0.0
H2573 H 0.50412 0.21937 0.954 0.0
C2574 C 0.57451 0.24887 0.94019 0.0
C2575 C 0.53738 0.2123 0.95009 0.0
C2576 C 0.52471 0.18532 0.95582 0.0
C2577 C 0.56115 0.26427 0.94037 0.0
C2578 C 0.53545 0.25343 0.94541 0.0
C2579 C 0.52376 0.22749 0.9501 0.0
C2580 C 0.5213 0.26954 0.94642 0.0
C2581 C 0.57529 0.29256 0.93559 0.0
C2582 C 0.5173 0.27764 0.95625 0.0
C2583 C 0.50626 0.29495 0.95721 0.0
C2584 C 0.49908 0.30444 0.94835 0.0
C2585 C 0.50199 0.2953 0.93854 0.0
C2586 C 0.51288 0.27789 0.93759 0.0
H2587 H 0.59743 0.30019 0.93413 0.0
H2588 H 0.56544 0.29184 0.92806 0.0
H2589 H 0.57344 0.30749 0.94066 0.0
H2590 H 0.52357 0.27129 0.96316 0.0
H2591 H 0.50416 0.30157 0.96487 0.0
H2592 H 0.85569 0.42366 0.94494 0.0
H2593 H 0.83381 0.37394 0.94234 0.0
H2594 H 0.75439 0.36824 0.94138 0.0
H2595 H 0.77612 0.41759 0.9445 0.0
H2596 H 0.75448 0.33487 0.95518 0.0
H2597 H 0.79925 0.32014 0.91922 0.0
H2598 H 0.82495 0.34153 0.92845 0.0
H2599 H 0.80311 0.35291 0.92279 0.0
C2600 C 0.83366 0.41183 0.94385 0.0
C2601 C 0.81752 0.4243 0.94494 0.0
C2602 C 0.82115 0.38343 0.94234 0.0
C2603 C 0.79241 0.36728 0.94162 0.0
C2604 C 0.77656 0.3802 0.94196 0.0
H2605 H 0.69109 0.19458 0.92857 0.0
H2606 H 0.72077 0.24431 0.92772 0.0
C2607 C 0.78897 0.40839 0.9437 0.0
C2608 C 0.77849 0.33682 0.94186 0.0
H2609 H 0.77456 0.28065 0.93001 0.0
C2610 C 0.7588 0.32305 0.94962 0.0
C2611 C 0.78403 0.32134 0.9346 0.0
C2612 C 0.80379 0.33472 0.92574 0.0
C2613 C 0.74432 0.29436 0.9503 0.0
C2614 C 0.75049 0.27889 0.94328 0.0
C2615 C 0.7702 0.29257 0.9355 0.0
C2616 C 0.73532 0.24844 0.9435 0.0
C2617 C 0.72187 0.28095 0.95832 0.0
C2618 C 0.73435 0.23406 0.95255 0.0
C2619 C 0.717 0.20562 0.95311 0.0
C2620 C 0.70083 0.19105 0.94456 0.0
C2621 C 0.70325 0.20525 0.9353 0.0
C2622 C 0.72026 0.23369 0.93479 0.0
H2623 H 0.71484 0.29512 0.96109 0.0
H2624 H 0.70385 0.26221 0.95519 0.0
H2625 H 0.72981 0.27499 0.96512 0.0
H2626 H 0.74637 0.24496 0.95927 0.0
H2627 H 0.71573 0.19515 0.96031 0.0
H2628 H 0.79996 0.50338 0.96148 0.0
H2629 H 0.75098 0.48747 0.95972 0.0
H2630 H 0.7598 0.49508 0.92651 0.0
H2631 H 0.80878 0.51052 0.92819 0.0
H2632 H 0.72231 0.51107 0.95054 0.0
H2633 H 0.70107 0.41438 0.93071 0.0
H2634 H 0.73313 0.43629 0.93723 0.0
H2635 H 0.72635 0.4459 0.92478 0.0
C2636 C 0.79153 0.50187 0.9538 0.0
C2637 C 0.80813 0.50791 0.94497 0.0
C2638 C 0.76357 0.49284 0.95281 0.0
C2639 C 0.75172 0.48971 0.94297 0.0
C2640 C 0.76846 0.49687 0.93415 0.0
H2641 H 0.57034 0.41104 0.93646 0.0
H2642 H 0.61891 0.44028 0.93151 0.0
C2643 C 0.79645 0.50581 0.93514 0.0
C2644 C 0.72163 0.47775 0.94207 0.0
H2645 H 0.66316 0.41927 0.9349 0.0
C2646 C 0.70938 0.49124 0.94695 0.0
C2647 C 0.70483 0.45186 0.93736 0.0
C2648 C 0.71687 0.43607 0.93228 0.0
C2649 C 0.68074 0.47892 0.94768 0.0
C2650 C 0.66406 0.45251 0.94344 0.0
C2651 C 0.67616 0.43968 0.93803 0.0
C2652 C 0.63477 0.43598 0.94622 0.0
C2653 C 0.66842 0.49348 0.95344 0.0
C2654 C 0.62794 0.42395 0.95605 0.0
C2655 C 0.60058 0.40718 0.95883 0.0
C2656 C 0.57936 0.40218 0.95185 0.0
C2657 C 0.58623 0.41457 0.942 0.0
C2658 C 0.61386 0.43121 0.93917 0.0
H2659 H 0.68334 0.51573 0.95437 0.0
H2660 H 0.64995 0.49098 0.94932 0.0
H2661 H 0.66189 0.48425 0.96125 0.0
H2662 H 0.64388 0.42733 0.96156 0.0
H2663 H 0.5961 0.39821 0.96651 0.0
H2664 H 0.34952 0.81786 0.76422 0.0
H2665 H 0.38067 0.79947 0.7632 0.0
H2666 H 0.40703 0.82573 0.7946 0.0
H2667 H 0.37508 0.84327 0.79579 0.0
H2668 H 0.43577 0.82101 0.76524 0.0
H2669 H 0.38047 0.74476 0.7963 0.0
H2670 H 0.36715 0.76494 0.79056 0.0
H2671 H 0.39338 0.77958 0.80037 0.0
C2672 C 0.36203 0.81982 0.7709 0.0
C2673 C 0.35966 0.83169 0.78014 0.0
C2674 C 0.3799 0.80939 0.77029 0.0
C2675 C 0.39581 0.81079 0.77888 0.0
C2676 C 0.39444 0.82383 0.78796 0.0
H2677 H 0.52399 0.76632 0.78051 0.0
H2678 H 0.50005 0.79227 0.77784 0.0
C2679 C 0.37628 0.83393 0.78862 0.0
C2680 C 0.41272 0.79735 0.77847 0.0
H2681 H 0.42132 0.74774 0.79007 0.0
C2682 C 0.43264 0.80495 0.77065 0.0
C2683 C 0.40827 0.77611 0.78544 0.0
C2684 C 0.38599 0.76564 0.79357 0.0
C2685 C 0.4483 0.79191 0.76965 0.0
C2686 C 0.44426 0.77115 0.77678 0.0
C2687 C 0.42443 0.76369 0.7846 0.0
C2688 C 0.45973 0.75619 0.77631 0.0
C2689 C 0.46847 0.79998 0.76082 0.0
C2690 C 0.44518 0.72739 0.77611 0.0
C2691 C 0.4587 0.71269 0.77783 0.0
C2692 C 0.4871 0.72651 0.77963 0.0
C2693 C 0.50211 0.75527 0.779 0.0
C2694 C 0.48844 0.77007 0.77746 0.0
H2695 H 0.46368 0.81034 0.75451 0.0
H2696 H 0.48939 0.8145 0.76372 0.0
H2697 H 0.46861 0.78178 0.75757 0.0
H2698 H 0.42306 0.71624 0.7752 0.0
H2699 H 0.44673 0.69049 0.77828 0.0
H2700 H 0.26309 0.73976 0.80081 0.0
H2701 H 0.23358 0.69153 0.79657 0.0
H2702 H 0.22118 0.71341 0.76586 0.0
H2703 H 0.25099 0.7624 0.77006 0.0
H2704 H 0.17539 0.66341 0.78805 0.0
H2705 H 0.2546 0.65962 0.76319 0.0
H2706 H 0.26399 0.68627 0.77276 0.0
H2707 H 0.24633 0.6864 0.76123 0.0
C2708 C 0.25409 0.73448 0.79314 0.0
C2709 C 0.25962 0.75495 0.78573 0.0
C2710 C 0.23708 0.70687 0.79077 0.0
C2711 C 0.22536 0.69898 0.78091 0.0
C2712 C 0.23018 0.71921 0.77351 0.0
H2713 H 0.15544 0.52616 0.76335 0.0
H2714 H 0.16847 0.57458 0.76209 0.0
C2715 C 0.24711 0.7471 0.77593 0.0
C2716 C 0.2093 0.66937 0.77849 0.0
H2717 H 0.21675 0.61766 0.76817 0.0
C2718 C 0.18408 0.65335 0.78351 0.0
C2719 C 0.22073 0.65643 0.77257 0.0
C2720 C 0.24793 0.67289 0.76711 0.0
C2721 C 0.17052 0.62457 0.78315 0.0
C2722 C 0.18293 0.61158 0.77784 0.0
C2723 C 0.20734 0.62765 0.77229 0.0
C2724 C 0.17231 0.58162 0.77864 0.0
C2725 C 0.14333 0.60839 0.78863 0.0
C2726 C 0.17009 0.56946 0.78836 0.0
C2727 C 0.16256 0.54178 0.78911 0.0
C2728 C 0.15744 0.52584 0.78013 0.0
C2729 C 0.15923 0.53792 0.77041 0.0
C2730 C 0.16667 0.56557 0.76967 0.0
H2731 H 0.13242 0.62026 0.78911 0.0
H2732 H 0.12985 0.58862 0.78464 0.0
H2733 H 0.14696 0.60392 0.79666 0.0
H2734 H 0.17504 0.5816 0.79537 0.0
H2735 H 0.16152 0.53311 0.7967 0.0
H2736 H 0.46601 0.63109 0.79588 0.0
H2737 H 0.41657 0.60026 0.79383 0.0
H2738 H 0.42648 0.60244 0.76065 0.0
H2739 H 0.47582 0.63363 0.76263 0.0
H2740 H 0.38657 0.61324 0.76639 0.0
H2741 H 0.3711 0.51948 0.78631 0.0
H2742 H 0.38929 0.54954 0.79422 0.0
H2743 H 0.4046 0.54666 0.78239 0.0
C2744 C 0.45772 0.62466 0.78816 0.0
C2745 C 0.47479 0.6348 0.77942 0.0
C2746 C 0.42948 0.60689 0.787 0.0
C2747 C 0.41788 0.59873 0.77709 0.0
C2748 C 0.43501 0.60834 0.76837 0.0
H2749 H 0.23974 0.48245 0.7736 0.0
H2750 H 0.28886 0.50367 0.76948 0.0
C2751 C 0.46321 0.62615 0.76952 0.0
C2752 C 0.38767 0.58216 0.7758 0.0
H2753 H 0.33085 0.52379 0.78412 0.0
C2754 C 0.37441 0.59346 0.77013 0.0
C2755 C 0.37182 0.55612 0.7805 0.0
C2756 C 0.38495 0.54209 0.7861 0.0
C2757 C 0.34569 0.58019 0.76954 0.0
C2758 C 0.32981 0.55521 0.77492 0.0
C2759 C 0.34305 0.54307 0.78007 0.0
C2760 C 0.29977 0.543 0.77628 0.0
C2761 C 0.33261 0.59337 0.76334 0.0
C2762 C 0.28968 0.55814 0.78137 0.0
C2763 C 0.26185 0.54618 0.78372 0.0
C2764 C 0.24343 0.51867 0.78109 0.0
C2765 C 0.25337 0.50372 0.77567 0.0
C2766 C 0.28141 0.51576 0.77335 0.0
H2767 H 0.34641 0.60641 0.75703 0.0
H2768 H 0.31281 0.5777 0.75989 0.0
H2769 H 0.32862 0.60676 0.76851 0.0
H2770 H 0.30351 0.57899 0.78389 0.0
H2771 H 0.25493 0.55834 0.78787 0.0
H2772 H 0.36963 0.77854 0.04134 0.0
H2773 H 0.39669 0.75777 0.04639 0.0
H2774 H 0.4518 0.83063 0.06354 0.0
H2775 H 0.42478 0.85208 0.05835 0.0
H2776 H 0.47857 0.81213 0.05019 0.0
H2777 H 0.40211 0.72644 0.0741 0.0
H2778 H 0.38802 0.72799 0.06183 0.0
H2779 H 0.39877 0.75589 0.07089 0.0
C2780 C 0.38734 0.79021 0.04627 0.0
C2781 C 0.39506 0.81708 0.04942 0.0
C2782 C 0.40267 0.77814 0.04922 0.0
C2783 C 0.42599 0.79247 0.05547 0.0
C2784 C 0.43369 0.81916 0.05878 0.0
H2785 H 0.50156 0.69455 0.07253 0.0
H2786 H 0.4854 0.72746 0.07406 0.0
C2787 C 0.41821 0.83133 0.05584 0.0
C2788 C 0.44298 0.7798 0.05783 0.0
H2789 H 0.43754 0.71987 0.06631 0.0
C2790 C 0.46986 0.79222 0.05392 0.0
C2791 C 0.43175 0.75403 0.06281 0.0
C2792 C 0.40367 0.74046 0.06774 0.0
C2793 C 0.48508 0.77863 0.05424 0.0
C2794 C 0.47288 0.75182 0.05842 0.0
C2795 C 0.44676 0.74026 0.06296 0.0
C2796 C 0.48589 0.73457 0.05757 0.0
C2797 C 0.51386 0.7929 0.04993 0.0
C2798 C 0.49173 0.72778 0.04779 0.0
C2799 C 0.50102 0.70899 0.04689 0.0
C2800 C 0.50436 0.69648 0.05575 0.0
C2801 C 0.49919 0.70386 0.06555 0.0
C2802 C 0.48996 0.72266 0.06644 0.0
H2803 H 0.52321 0.81558 0.05025 0.0
H2804 H 0.52722 0.78699 0.05423 0.0
H2805 H 0.51321 0.787 0.04169 0.0
H2806 H 0.48812 0.7362 0.04082 0.0
H2807 H 0.50471 0.70362 0.03923 0.0
H2808 H 0.22297 0.58553 0.04425 0.0
H2809 H 0.2442 0.63447 0.04772 0.0
H2810 H 0.16797 0.62237 0.06038 0.0
H2811 H 0.14624 0.57293 0.0568 0.0
H2812 H 0.19056 0.66317 0.04513 0.0
H2813 H 0.26909 0.67919 0.07434 0.0
H2814 H 0.27021 0.66024 0.06336 0.0
H2815 H 0.2402 0.64569 0.07151 0.0
C2816 C 0.21075 0.59313 0.04792 0.0
C2817 C 0.18286 0.57535 0.0502 0.0
C2818 C 0.22301 0.62113 0.04997 0.0
C2819 C 0.20776 0.63202 0.0544 0.0
C2820 C 0.18013 0.61429 0.05701 0.0
H2821 H 0.29846 0.80807 0.06718 0.0
H2822 H 0.26637 0.75894 0.06901 0.0
C2823 C 0.1678 0.58608 0.05501 0.0
C2824 C 0.22033 0.66218 0.05535 0.0
H2825 H 0.2776 0.71892 0.06435 0.0
C2826 C 0.20931 0.6754 0.04949 0.0
C2827 C 0.24462 0.67808 0.06112 0.0
C2828 C 0.25657 0.66505 0.06802 0.0
C2829 C 0.22279 0.70416 0.04879 0.0
C2830 C 0.24814 0.71998 0.05396 0.0
C2831 C 0.25834 0.70677 0.06028 0.0
C2832 C 0.26509 0.75015 0.05264 0.0
C2833 C 0.20992 0.71727 0.04244 0.0
C2834 C 0.27482 0.76161 0.0428 0.0
C2835 C 0.29309 0.78978 0.04172 0.0
C2836 C 0.30219 0.80686 0.05048 0.0
C2837 C 0.29187 0.79543 0.06028 0.0
C2838 C 0.27353 0.76735 0.06135 0.0
H2839 H 0.18734 0.70359 0.04179 0.0
H2840 H 0.21413 0.73712 0.04586 0.0
H2841 H 0.21863 0.72122 0.0345 0.0
H2842 H 0.26908 0.74864 0.036 0.0
H2843 H 0.30082 0.79797 0.03408 0.0
H2844 H 0.40941 0.63172 0.04431 0.0
H2845 H 0.36042 0.60293 0.04741 0.0
H2846 H 0.37438 0.54209 0.06206 0.0
H2847 H 0.42393 0.57089 0.05888 0.0
H2848 H 0.33281 0.52112 0.04648 0.0
H2849 H 0.31697 0.58631 0.07454 0.0
H2850 H 0.33587 0.60507 0.06332 0.0
H2851 H 0.35042 0.59053 0.07191 0.0
C2852 C 0.40223 0.61236 0.04829 0.0
C2853 C 0.42062 0.60359 0.05133 0.0
C2854 C 0.37418 0.596 0.05012 0.0
C2855 C 0.36383 0.57055 0.05506 0.0
C2856 C 0.38206 0.56179 0.05828 0.0
H2857 H 0.18833 0.48632 0.06862 0.0
H2858 H 0.23733 0.50248 0.07038 0.0
C2859 C 0.41032 0.57831 0.0565 0.0
C2860 C 0.33378 0.55271 0.05621 0.0
H2861 H 0.27709 0.55342 0.06511 0.0
C2862 C 0.32058 0.52785 0.05071 0.0
C2863 C 0.31792 0.56141 0.06182 0.0
C2864 C 0.33103 0.58716 0.06832 0.0
C2865 C 0.2918 0.51225 0.0502 0.0
C2866 C 0.27598 0.52203 0.0552 0.0
C2867 C 0.28922 0.54607 0.06118 0.0
C2868 C 0.24579 0.50863 0.05395 0.0
C2869 C 0.27864 0.48566 0.04422 0.0
C2870 C 0.23419 0.50632 0.0441 0.0
C2871 C 0.20611 0.49696 0.04307 0.0
C2872 C 0.18929 0.49009 0.05188 0.0
C2873 C 0.20079 0.49153 0.06169 0.0
C2874 C 0.22878 0.50076 0.06271 0.0
H2875 H 0.29244 0.47687 0.04374 0.0
H2876 H 0.25895 0.47026 0.04781 0.0
H2877 H 0.27437 0.48959 0.0362 0.0
H2878 H 0.24702 0.51286 0.03725 0.0
H2879 H 0.19785 0.49616 0.03541 0.0
H2880 H 0.14343 0.56748 0.55144 0.0
H2881 H 0.16699 0.54121 0.55401 0.0
H2882 H 0.24418 0.61684 0.55719 0.0
H2883 H 0.22084 0.64297 0.55412 0.0
H2884 H 0.24757 0.58652 0.54271 0.0
H2885 H 0.20057 0.52066 0.57713 0.0
H2886 H 0.17559 0.51667 0.56762 0.0
H2887 H 0.19555 0.54915 0.57408 0.0
C2888 C 0.16527 0.57838 0.55305 0.0
C2889 C 0.18041 0.60715 0.55258 0.0
C2890 C 0.17873 0.56338 0.55453 0.0
C2891 C 0.20739 0.57702 0.55583 0.0
C2892 C 0.2221 0.60585 0.55617 0.0
H2893 H 0.31206 0.50894 0.5683 0.0
H2894 H 0.28194 0.52848 0.56921 0.0
C2895 C 0.20877 0.62077 0.55446 0.0
C2896 C 0.22261 0.56177 0.55542 0.0
H2897 H 0.22786 0.50921 0.56628 0.0
C2898 C 0.24334 0.56973 0.54793 0.0
C2899 C 0.21716 0.53989 0.56222 0.0
C2900 C 0.19619 0.53125 0.57078 0.0
C2901 C 0.25888 0.55665 0.54707 0.0
C2902 C 0.25286 0.53419 0.55363 0.0
C2903 C 0.23215 0.52616 0.56114 0.0
C2904 C 0.26902 0.51994 0.55319 0.0
C2905 C 0.28217 0.56766 0.53935 0.0
C2906 C 0.27123 0.50796 0.54395 0.0
C2907 C 0.28879 0.49711 0.54336 0.0
C2908 C 0.304 0.4976 0.55207 0.0
C2909 C 0.30066 0.50833 0.56144 0.0
C2910 C 0.28339 0.51944 0.56199 0.0
H2911 H 0.28868 0.58908 0.53702 0.0
H2912 H 0.30027 0.56723 0.54256 0.0
H2913 H 0.27534 0.55476 0.53226 0.0
H2914 H 0.25979 0.50751 0.53714 0.0
H2915 H 0.29077 0.48874 0.53607 0.0
H2916 H 0.39633 0.59001 0.53073 0.0
H2917 H 0.42287 0.63872 0.53459 0.0
H2918 H 0.43466 0.62047 0.56599 0.0
H2919 H 0.40824 0.57102 0.56209 0.0
H2920 H 0.40816 0.66471 0.54928 0.0
H2921 H 0.51237 0.68014 0.55713 0.0
H2922 H 0.48608 0.64989 0.55066 0.0
H2923 H 0.48425 0.65371 0.56439 0.0
C2924 C 0.40466 0.59622 0.53846 0.0
C2925 C 0.39998 0.57661 0.54614 0.0
C2926 C 0.41991 0.62413 0.54064 0.0
C2927 C 0.43078 0.63324 0.55056 0.0
C2928 C 0.42676 0.61385 0.55823 0.0
H2929 H 0.50632 0.80612 0.56927 0.0
H2930 H 0.48814 0.75644 0.57004 0.0
C2931 C 0.4116 0.58566 0.55601 0.0
C2932 C 0.44477 0.66307 0.55276 0.0
H2933 H 0.50745 0.71941 0.55759 0.0
C2934 C 0.42981 0.67662 0.5512 0.0
C2935 C 0.47299 0.67852 0.55531 0.0
C2936 C 0.49003 0.66498 0.55692 0.0
C2937 C 0.44249 0.70526 0.55173 0.0
C2938 C 0.47087 0.72075 0.55385 0.0
C2939 C 0.48569 0.7073 0.55589 0.0
C2940 C 0.48541 0.75101 0.55342 0.0
C2941 C 0.42564 0.71891 0.54977 0.0
C2942 C 0.49049 0.7643 0.54381 0.0
C2943 C 0.50088 0.79261 0.54334 0.0
C2944 C 0.5062 0.80801 0.55248 0.0
C2945 C 0.50233 0.79478 0.5621 0.0
C2946 C 0.49202 0.76645 0.56256 0.0
H2947 H 0.40324 0.70401 0.54999 0.0
H2948 H 0.43047 0.73523 0.5556 0.0
H2949 H 0.43081 0.72874 0.54201 0.0
H2950 H 0.48548 0.7526 0.53669 0.0
H2951 H 0.50375 0.80222 0.53582 0.0
H2952 H 0.41039 0.77523 0.54439 0.0
H2953 H 0.36156 0.75434 0.54795 0.0
H2954 H 0.37565 0.82777 0.56381 0.0
H2955 H 0.42495 0.84935 0.56002 0.0
H2956 H 0.33079 0.74297 0.5656 0.0
H2957 H 0.3214 0.81921 0.54103 0.0
H2958 H 0.35199 0.81645 0.54117 0.0
H2959 H 0.34496 0.83288 0.55171 0.0
C2960 C 0.40325 0.787 0.5487 0.0
C2961 C 0.42154 0.81419 0.55175 0.0
C2962 C 0.37528 0.77492 0.55077 0.0
C2963 C 0.36489 0.78969 0.55595 0.0
C2964 C 0.38321 0.81624 0.55959 0.0
H2965 H 0.18775 0.6999 0.56906 0.0
H2966 H 0.23717 0.73027 0.57132 0.0
C2967 C 0.41138 0.82844 0.55751 0.0
C2968 C 0.33473 0.7774 0.5569 0.0
H2969 H 0.28062 0.78272 0.54771 0.0
C2970 C 0.31979 0.75183 0.56183 0.0
C2971 C 0.32048 0.78886 0.55183 0.0
C2972 C 0.33541 0.81575 0.54606 0.0
C2973 C 0.291 0.73695 0.56152 0.0
C2974 C 0.27677 0.74828 0.55635 0.0
C2975 C 0.29165 0.77423 0.55172 0.0
C2976 C 0.24659 0.7325 0.55498 0.0
C2977 C 0.27613 0.70861 0.56626 0.0
C2978 C 0.2354 0.72475 0.545 0.0
C2979 C 0.20713 0.70761 0.54367 0.0
C2980 C 0.18962 0.69793 0.5523 0.0
C2981 C 0.20075 0.70684 0.56225 0.0
C2982 C 0.22899 0.72406 0.56357 0.0
H2983 H 0.29026 0.70069 0.56799 0.0
H2984 H 0.26637 0.70936 0.57363 0.0
H2985 H 0.25971 0.69389 0.561 0.0
H2986 H 0.24865 0.73118 0.53826 0.0
H2987 H 0.19916 0.70121 0.53591 0.0
H2988 H 0.26714 0.52594 0.29977 0.0
H2989 H 0.23992 0.5471 0.29556 0.0
H2990 H 0.22577 0.51271 0.26482 0.0
H2991 H 0.25332 0.49094 0.26902 0.0
H2992 H 0.25455 0.58563 0.27824 0.0
H2993 H 0.14798 0.4962 0.27647 0.0
H2994 H 0.17473 0.49446 0.28359 0.0
H2995 H 0.17528 0.49472 0.26971 0.0
C2996 C 0.25821 0.52264 0.29211 0.0
C2997 C 0.2627 0.50699 0.28468 0.0
C2998 C 0.24255 0.53472 0.28974 0.0
C2999 C 0.23093 0.53153 0.2799 0.0
C3000 C 0.23448 0.51523 0.27249 0.0
H3001 H 0.15383 0.6292 0.26335 0.0
H3002 H 0.17115 0.59715 0.26169 0.0
C3003 C 0.2502 0.50286 0.2749 0.0
C3004 C 0.21671 0.54698 0.27748 0.0
H3005 H 0.15302 0.54042 0.27616 0.0
C3006 C 0.23239 0.57576 0.27757 0.0
C3007 C 0.18782 0.53398 0.27666 0.0
C3008 C 0.17026 0.50313 0.27662 0.0
C3009 C 0.21985 0.59189 0.27735 0.0
C3010 C 0.19094 0.57889 0.27708 0.0
C3011 C 0.17522 0.55018 0.27644 0.0
C3012 C 0.17704 0.59511 0.27814 0.0
C3013 C 0.23746 0.62275 0.27784 0.0
C3014 C 0.17418 0.60403 0.28796 0.0
C3015 C 0.1643 0.6223 0.28896 0.0
C3016 C 0.15729 0.63203 0.28012 0.0
C3017 C 0.15913 0.62212 0.27031 0.0
C3018 C 0.16893 0.60377 0.26933 0.0
H3019 H 0.25961 0.62976 0.27679 0.0
H3020 H 0.23101 0.63239 0.27179 0.0
H3021 H 0.2347 0.6301 0.28548 0.0
H3022 H 0.18049 0.59756 0.29483 0.0
H3023 H 0.16309 0.62952 0.29661 0.0
H3024 H 0.51828 0.76157 0.27494 0.0
H3025 H 0.49698 0.71293 0.27004 0.0
H3026 H 0.42017 0.69794 0.28317 0.0
H3027 H 0.44091 0.74605 0.2879 0.0
H3028 H 0.47502 0.66982 0.28389 0.0
H3029 H 0.39539 0.65725 0.2559 0.0
H3030 H 0.42387 0.69052 0.25932 0.0
H3031 H 0.39375 0.67421 0.26741 0.0
C3032 C 0.4967 0.74799 0.27656 0.0
C3033 C 0.48132 0.75762 0.28186 0.0
C3034 C 0.48461 0.72023 0.27379 0.0
C3035 C 0.45691 0.70191 0.27614 0.0
C3036 C 0.44139 0.71178 0.28108 0.0
H3037 H 0.36607 0.53634 0.29536 0.0
H3038 H 0.39786 0.58554 0.29321 0.0
C3039 C 0.4534 0.7393 0.28388 0.0
C3040 C 0.44456 0.67198 0.27445 0.0
H3041 H 0.38633 0.61635 0.26543 0.0
C3042 C 0.45593 0.65811 0.27966 0.0
C3043 C 0.4199 0.65674 0.26881 0.0
C3044 C 0.4077 0.67051 0.26246 0.0
C3045 C 0.44228 0.62932 0.27998 0.0
C3046 C 0.41636 0.61412 0.27513 0.0
C3047 C 0.40597 0.62799 0.26931 0.0
C3048 C 0.3989 0.58401 0.27645 0.0
C3049 C 0.45556 0.61552 0.28564 0.0
C3050 C 0.38853 0.56686 0.26776 0.0
C3051 C 0.37008 0.53883 0.26898 0.0
C3052 C 0.36162 0.52744 0.27891 0.0
C3053 C 0.37237 0.54451 0.28762 0.0
C3054 C 0.39071 0.5726 0.2864 0.0
H3055 H 0.47827 0.62873 0.28576 0.0
H3056 H 0.44832 0.61178 0.2938 0.0
H3057 H 0.4502 0.59553 0.28204 0.0
H3058 H 0.39441 0.57524 0.26002 0.0
H3059 H 0.36214 0.52618 0.26211 0.0
H3060 H 0.47507 0.84672 0.26471 0.0
H3061 H 0.42599 0.8293 0.2624 0.0
H3062 H 0.41328 0.81361 0.29522 0.0
H3063 H 0.46253 0.83163 0.29762 0.0
H3064 H 0.38624 0.77768 0.26624 0.0
H3065 H 0.36737 0.84915 0.28951 0.0
H3066 H 0.40145 0.85689 0.28577 0.0
H3067 H 0.38483 0.83539 0.29683 0.0
C3068 C 0.46191 0.84003 0.27147 0.0
C3069 C 0.47264 0.84048 0.28136 0.0
C3070 C 0.43386 0.83007 0.27013 0.0
C3071 C 0.41598 0.82041 0.27864 0.0
C3072 C 0.42675 0.82154 0.28857 0.0
H3073 H 0.25259 0.69429 0.28539 0.0
H3074 H 0.30138 0.72307 0.28184 0.0
C3075 C 0.45489 0.83168 0.28993 0.0
C3076 C 0.38588 0.8068 0.27701 0.0
H3077 H 0.32777 0.8051 0.28573 0.0
C3078 C 0.3735 0.78398 0.27037 0.0
C3079 C 0.36926 0.81528 0.28223 0.0
C3080 C 0.38144 0.84071 0.2889 0.0
C3081 C 0.34488 0.76846 0.26929 0.0
C3082 C 0.32819 0.77568 0.27515 0.0
C3083 C 0.34059 0.79944 0.2813 0.0
C3084 C 0.29807 0.7573 0.27591 0.0
C3085 C 0.33279 0.74418 0.26204 0.0
C3086 C 0.27986 0.76689 0.27371 0.0
C3087 C 0.25175 0.7504 0.27578 0.0
C3088 C 0.2416 0.72428 0.28024 0.0
C3089 C 0.25978 0.71437 0.282 0.0
C3090 C 0.28769 0.73073 0.27989 0.0
H3091 H 0.3473 0.74704 0.25568 0.0
H3092 H 0.32865 0.7255 0.2664 0.0
H3093 H 0.31321 0.74071 0.2586 0.0
H3094 H 0.28752 0.78742 0.27069 0.0
H3095 H 0.23828 0.75865 0.2744 0.0
loop_
_geom_bond_atom_site_label_1
_geom_bond_atom_site_label_2
_geom_bond_distance
_geom_bond_site_symmetry_2
_ccdc_geom_bond_type
Co0 O1 2.216 . S
Co0 O2 2.091 . S
Co0 O4 2.004 . S
Co0 O10 2.021 . S
Co0 O12 2.137 . S
Co0 O13 2.244 . S
O1 Co0 2.216 . S
O1 C8 1.247 . S
O2 Co0 2.091 . S
O2 C8 1.261 . S
C3 O12 1.247 . S
C3 O13 1.272 . S
O4 Co0 2.004 . S
O4 C9 1.259 . S
Co5 O6 2.061 . S
Co5 O11 2.052 . S
Co5 O13 2.135 . S
O6 Co5 2.061 . S
O6 C9 1.235 . S
C7 O10 1.238 . S
C7 O11 1.241 . S
C8 O1 1.247 . S
C8 O2 1.261 . S
C9 O4 1.259 . S
C9 O6 1.235 . S
O10 Co0 2.021 . S
O10 C7 1.238 . S
O11 Co5 2.052 . S
O11 C7 1.241 . S
O12 Co0 2.137 . S
O12 C3 1.247 . S
O13 Co0 2.244 . S
O13 C3 1.272 . S
O13 Co5 2.135 . S
Co14 O15 2.216 . S
Co14 O16 2.091 . S
Co14 O18 2.004 . S
Co14 O24 2.021 . S
Co14 O26 2.137 . S
Co14 O27 2.244 . S
O15 Co14 2.216 . S
O15 C22 1.247 . S
O16 Co14 2.091 . S
O16 C22 1.261 . S
C17 O26 1.247 . S
C17 O27 1.272 . S
O18 Co14 2.004 . S
O18 C23 1.259 . S
Co19 O20 2.061 . S
Co19 O25 2.052 . S
Co19 O27 2.135 . S
O20 Co19 2.061 . S
O20 C23 1.235 . S
C21 O24 1.238 . S
C21 O25 1.241 . S
C22 O15 1.247 . S
C22 O16 1.261 . S
C23 O18 1.259 . S
C23 O20 1.235 . S
O24 Co14 2.021 . S
O24 C21 1.238 . S
O25 Co19 2.052 . S
O25 C21 1.241 . S
O26 Co14 2.137 . S
O26 C17 1.247 . S
O27 Co14 2.244 . S
O27 C17 1.272 . S
O27 Co19 2.135 . S
Co28 O29 2.216 . S
Co28 O30 2.091 . S
Co28 O32 2.004 . S
Co28 O38 2.021 . S
Co28 O40 2.137 . S
Co28 O41 2.244 . S
O29 Co28 2.216 . S
O29 C36 1.247 . S
O30 Co28 2.091 . S
O30 C36 1.261 . S
C31 O40 1.247 . S
C31 O41 1.272 . S
O32 Co28 2.004 . S
O32 C37 1.259 . S
Co33 O34 2.061 . S
Co33 O39 2.052 . S
Co33 O41 2.135 . S
O34 Co33 2.061 . S
O34 C37 1.235 . S
C35 O38 1.238 . S
C35 O39 1.241 . S
C36 O29 1.247 . S
C36 O30 1.261 . S
C37 O32 1.259 . S
C37 O34 1.235 . S
O38 Co28 2.021 . S
O38 C35 1.238 . S
O39 Co33 2.052 . S
O39 C35 1.241 . S
O40 Co28 2.137 . S
O40 C31 1.247 . S
O41 Co28 2.244 . S
O41 C31 1.272 . S
O41 Co33 2.135 . S
Co42 O43 2.216 . S
Co42 O44 2.091 . S
Co42 O46 2.004 . S
Co42 O52 2.021 . S
Co42 O54 2.137 . S
Co42 O55 2.244 . S
O43 Co42 2.216 . S
O43 C50 1.247 . S
O44 Co42 2.091 . S
O44 C50 1.261 . S
C45 O54 1.247 . S
C45 O55 1.272 . S
O46 Co42 2.004 . S
O46 C51 1.259 . S
Co47 O48 2.061 . S
Co47 O53 2.052 . S
Co47 O55 2.135 . S
O48 Co47 2.061 . S
O48 C51 1.235 . S
C49 O52 1.238 . S
C49 O53 1.241 . S
C50 O43 1.247 . S
C50 O44 1.261 . S
C51 O46 1.259 . S
C51 O48 1.235 . S
O52 Co42 2.021 . S
O52 C49 1.238 . S
O53 Co47 2.052 . S
O53 C49 1.241 . S
O54 Co42 2.137 . S
O54 C45 1.247 . S
O55 Co42 2.244 . S
O55 C45 1.272 . S
O55 Co47 2.135 . S
Co56 O57 2.216 . S
Co56 O58 2.091 . S
Co56 O60 2.004 . S
Co56 O66 2.021 . S
Co56 O68 2.137 . S
Co56 O69 2.244 . S
O57 Co56 2.216 . S
O57 C64 1.247 . S
O58 Co56 2.091 . S
O58 C64 1.261 . S
C59 O68 1.247 . S
C59 O69 1.272 . S
O60 Co56 2.004 . S
O60 C65 1.259 . S
Co61 O62 2.061 . S
Co61 O67 2.052 . S
Co61 O69 2.135 . S
O62 Co61 2.061 . S
O62 C65 1.235 . S
C63 O66 1.238 . S
C63 O67 1.241 . S
C64 O57 1.247 . S
C64 O58 1.261 . S
C65 O60 1.259 . S
C65 O62 1.235 . S
O66 Co56 2.021 . S
O66 C63 1.238 . S
O67 Co61 2.052 . S
O67 C63 1.241 . S
O68 Co56 2.137 . S
O68 C59 1.247 . S
O69 Co56 2.244 . S
O69 C59 1.272 . S
O69 Co61 2.135 . S
Co70 O71 2.216 . S
Co70 O72 2.091 . S
Co70 O74 2.004 . S
Co70 O80 2.021 . S
Co70 O82 2.137 . S
Co70 O83 2.244 . S
O71 Co70 2.216 . S
O71 C78 1.247 . S
O72 Co70 2.091 . S
O72 C78 1.261 . S
C73 O82 1.247 . S
C73 O83 1.272 . S
O74 Co70 2.004 . S
O74 C79 1.259 . S
Co75 O76 2.061 . S
Co75 O81 2.052 . S
Co75 O83 2.135 . S
O76 Co75 2.061 . S
O76 C79 1.235 . S
C77 O80 1.238 . S
C77 O81 1.241 . S
C78 O71 1.247 . S
C78 O72 1.261 . S
C79 O74 1.259 . S
C79 O76 1.235 . S
O80 Co70 2.021 . S
O80 C77 1.238 . S
O81 Co75 2.052 . S
O81 C77 1.241 . S
O82 Co70 2.137 . S
O82 C73 1.247 . S
O83 Co70 2.244 . S
O83 C73 1.272 . S
O83 Co75 2.135 . S
Co84 O85 2.216 . S
Co84 O86 2.091 . S
Co84 O88 2.004 . S
Co84 O94 2.021 . S
Co84 O96 2.137 . S
Co84 O97 2.244 . S
O85 Co84 2.216 . S
O85 C92 1.247 . S
O86 Co84 2.091 . S
O86 C92 1.261 . S
C87 O96 1.247 . S
C87 O97 1.272 . S
O88 Co84 2.004 . S
O88 C93 1.259 . S
Co89 O90 2.061 . S
Co89 O95 2.052 . S
Co89 O97 2.135 . S
O90 Co89 2.061 . S
O90 C93 1.235 . S
C91 O94 1.238 . S
C91 O95 1.241 . S
C92 O85 1.247 . S
C92 O86 1.261 . S
C93 O88 1.259 . S
C93 O90 1.235 . S
O94 Co84 2.021 . S
O94 C91 1.238 . S
O95 Co89 2.052 . S
O95 C91 1.241 . S
O96 Co84 2.137 . S
O96 C87 1.247 . S
O97 Co84 2.244 . S
O97 C87 1.272 . S
O97 Co89 2.135 . S
Co98 O99 2.216 . S
Co98 O100 2.091 . S
Co98 O102 2.004 . S
Co98 O108 2.021 . S
Co98 O110 2.137 . S
Co98 O111 2.244 . S
O99 Co98 2.216 . S
O99 C106 1.247 . S
O100 Co98 2.091 . S
O100 C106 1.261 . S
C101 O110 1.247 . S
C101 O111 1.272 . S
O102 Co98 2.004 . S
O102 C107 1.259 . S
Co103 O104 2.061 . S
Co103 O109 2.052 . S
Co103 O111 2.135 . S
O104 Co103 2.061 . S
O104 C107 1.235 . S
C105 O108 1.238 . S
C105 O109 1.241 . S
C106 O99 1.247 . S
C106 O100 1.261 . S
C107 O102 1.259 . S
C107 O104 1.235 . S
O108 Co98 2.021 . S
O108 C105 1.238 . S
O109 Co103 2.052 . S
O109 C105 1.241 . S
O110 Co98 2.137 . S
O110 C101 1.247 . S
O111 Co98 2.244 . S
O111 C101 1.272 . S
O111 Co103 2.135 . S
Co112 O113 2.216 . S
Co112 O114 2.091 . S
Co112 O116 2.004 . S
Co112 O122 2.021 . S
Co112 O124 2.137 . S
Co112 O125 2.244 . S
O113 Co112 2.216 . S
O113 C120 1.247 . S
O114 Co112 2.091 . S
O114 C120 1.261 . S
C115 O124 1.247 . S
C115 O125 1.272 . S
O116 Co112 2.004 . S
O116 C121 1.259 . S
Co117 O118 2.061 . S
Co117 O123 2.052 . S
Co117 O125 2.135 . S
O118 Co117 2.061 . S
O118 C121 1.235 . S
C119 O122 1.238 . S
C119 O123 1.241 . S
C120 O113 1.247 . S
C120 O114 1.261 . S
C121 O116 1.259 . S
C121 O118 1.235 . S
O122 Co112 2.021 . S
O122 C119 1.238 . S
O123 Co117 2.052 . S
O123 C119 1.241 . S
O124 Co112 2.137 . S
O124 C115 1.247 . S
O125 Co112 2.244 . S
O125 C115 1.272 . S
O125 Co117 2.135 . S
Co126 O127 2.216 . S
Co126 O128 2.091 . S
Co126 O130 2.004 . S
Co126 O136 2.021 . S
Co126 O138 2.137 . S
Co126 O139 2.244 . S
O127 Co126 2.216 . S
O127 C134 1.247 . S
O128 Co126 2.091 . S
O128 C134 1.261 . S
C129 O138 1.247 . S
C129 O139 1.272 . S
O130 Co126 2.004 . S
O130 C135 1.259 . S
Co131 O132 2.061 . S
Co131 O137 2.052 . S
Co131 O139 2.135 . S
O132 Co131 2.061 . S
O132 C135 1.235 . S
C133 O136 1.238 . S
C133 O137 1.241 . S
C134 O127 1.247 . S
C134 O128 1.261 . S
C135 O130 1.259 . S
C135 O132 1.235 . S
O136 Co126 2.021 . S
O136 C133 1.238 . S
O137 Co131 2.052 . S
O137 C133 1.241 . S
O138 Co126 2.137 . S
O138 C129 1.247 . S
O139 Co126 2.244 . S
O139 C129 1.272 . S
O139 Co131 2.135 . S
Co140 O141 2.216 . S
Co140 O142 2.091 . S
Co140 O144 2.004 . S
Co140 O150 2.021 . S
Co140 O152 2.137 . S
Co140 O153 2.244 . S
O141 Co140 2.216 . S
O141 C148 1.247 . S
O142 Co140 2.091 . S
O142 C148 1.261 . S
C143 O152 1.247 . S
C143 O153 1.272 . S
O144 Co140 2.004 . S
O144 C149 1.259 . S
Co145 O146 2.061 . S
Co145 O151 2.052 . S
Co145 O153 2.135 . S
O146 Co145 2.061 . S
O146 C149 1.235 . S
C147 O150 1.238 . S
C147 O151 1.241 . S
C148 O141 1.247 . S
C148 O142 1.261 . S
C149 O144 1.259 . S
C149 O146 1.235 . S
O150 Co140 2.021 . S
O150 C147 1.238 . S
O151 Co145 2.052 . S
O151 C147 1.241 . S
O152 Co140 2.137 . S
O152 C143 1.247 . S
O153 Co140 2.244 . S
O153 C143 1.272 . S
O153 Co145 2.135 . S
Co154 O155 2.216 . S
Co154 O156 2.091 . S
Co154 O158 2.004 . S
Co154 O164 2.021 . S
Co154 O166 2.137 . S
Co154 O167 2.244 . S
O155 Co154 2.216 . S
O155 C162 1.247 . S
O156 Co154 2.091 . S
O156 C162 1.261 . S
C157 O166 1.247 . S
C157 O167 1.272 . S
O158 Co154 2.004 . S
O158 C163 1.259 . S
Co159 O160 2.061 . S
Co159 O165 2.052 . S
Co159 O167 2.135 . S
O160 Co159 2.061 . S
O160 C163 1.235 . S
C161 O164 1.238 . S
C161 O165 1.241 . S
C162 O155 1.247 . S
C162 O156 1.261 . S
C163 O158 1.259 . S
C163 O160 1.235 . S
O164 Co154 2.021 . S
O164 C161 1.238 . S
O165 Co159 2.052 . S
O165 C161 1.241 . S
O166 Co154 2.137 . S
O166 C157 1.247 . S
O167 Co154 2.244 . S
O167 C157 1.272 . S
O167 Co159 2.135 . S
Co168 O169 2.216 . S
Co168 O170 2.091 . S
Co168 O172 2.004 . S
Co168 O178 2.021 . S
Co168 O180 2.137 . S
Co168 O181 2.244 . S
O169 Co168 2.216 . S
O169 C176 1.247 . S
O170 Co168 2.091 . S
O170 C176 1.261 . S
C171 O180 1.247 . S
C171 O181 1.272 . S
O172 Co168 2.004 . S
O172 C177 1.259 . S
Co173 O174 2.061 . S
Co173 O179 2.052 . S
Co173 O181 2.135 . S
O174 Co173 2.061 . S
O174 C177 1.235 . S
C175 O178 1.238 . S
C175 O179 1.241 . S
C176 O169 1.247 . S
C176 O170 1.261 . S
C177 O172 1.259 . S
C177 O174 1.235 . S
O178 Co168 2.021 . S
O178 C175 1.238 . S
O179 Co173 2.052 . S
O179 C175 1.241 . S
O180 Co168 2.137 . S
O180 C171 1.247 . S
O181 Co168 2.244 . S
O181 C171 1.272 . S
O181 Co173 2.135 . S
Co182 O183 2.216 . S
Co182 O184 2.091 . S
Co182 O186 2.004 . S
Co182 O192 2.021 . S
Co182 O194 2.137 . S
Co182 O195 2.244 . S
O183 Co182 2.216 . S
O183 C190 1.247 . S
O184 Co182 2.091 . S
O184 C190 1.261 . S
C185 O194 1.247 . S
C185 O195 1.272 . S
O186 Co182 2.004 . S
O186 C191 1.259 . S
Co187 O188 2.061 . S
Co187 O193 2.052 . S
Co187 O195 2.135 . S
O188 Co187 2.061 . S
O188 C191 1.235 . S
C189 O192 1.238 . S
C189 O193 1.241 . S
C190 O183 1.247 . S
C190 O184 1.261 . S
C191 O186 1.259 . S
C191 O188 1.235 . S
O192 Co182 2.021 . S
O192 C189 1.238 . S
O193 Co187 2.052 . S
O193 C189 1.241 . S
O194 Co182 2.137 . S
O194 C185 1.247 . S
O195 Co182 2.244 . S
O195 C185 1.272 . S
O195 Co187 2.135 . S
Co196 O197 2.216 . S
Co196 O198 2.091 . S
Co196 O200 2.004 . S
Co196 O206 2.021 . S
Co196 O208 2.137 . S
Co196 O209 2.244 . S
O197 Co196 2.216 . S
O197 C204 1.247 . S
O198 Co196 2.091 . S
O198 C204 1.261 . S
C199 O208 1.247 . S
C199 O209 1.272 . S
O200 Co196 2.004 . S
O200 C205 1.259 . S
Co201 O202 2.061 . S
Co201 O207 2.052 . S
Co201 O209 2.135 . S
O202 Co201 2.061 . S
O202 C205 1.235 . S
C203 O206 1.238 . S
C203 O207 1.241 . S
C204 O197 1.247 . S
C204 O198 1.261 . S
C205 O200 1.259 . S
C205 O202 1.235 . S
O206 Co196 2.021 . S
O206 C203 1.238 . S
O207 Co201 2.052 . S
O207 C203 1.241 . S
O208 Co196 2.137 . S
O208 C199 1.247 . S
O209 Co196 2.244 . S
O209 C199 1.272 . S
O209 Co201 2.135 . S
Co210 O211 2.216 . S
Co210 O212 2.091 . S
Co210 O214 2.004 . S
Co210 O220 2.021 . S
Co210 O222 2.137 . S
Co210 O223 2.244 . S
O211 Co210 2.216 . S
O211 C218 1.247 . S
O212 Co210 2.091 . S
O212 C218 1.261 . S
C213 O222 1.247 . S
C213 O223 1.272 . S
O214 Co210 2.004 . S
O214 C219 1.259 . S
Co215 O216 2.061 . S
Co215 O221 2.052 . S
Co215 O223 2.135 . S
O216 Co215 2.061 . S
O216 C219 1.235 . S
C217 O220 1.238 . S
C217 O221 1.241 . S
C218 O211 1.247 . S
C218 O212 1.261 . S
C219 O214 1.259 . S
C219 O216 1.235 . S
O220 Co210 2.021 . S
O220 C217 1.238 . S
O221 Co215 2.052 . S
O221 C217 1.241 . S
O222 Co210 2.137 . S
O222 C213 1.247 . S
O223 Co210 2.244 . S
O223 C213 1.272 . S
O223 Co215 2.135 . S
Co224 O225 2.216 . S
Co224 O226 2.091 . S
Co224 O228 2.004 . S
Co224 O234 2.021 . S
Co224 O236 2.137 . S
Co224 O237 2.244 . S
O225 Co224 2.216 . S
O225 C232 1.247 . S
O226 Co224 2.091 . S
O226 C232 1.261 . S
C227 O236 1.247 . S
C227 O237 1.272 . S
O228 Co224 2.004 . S
O228 C233 1.259 . S
Co229 O230 2.061 . S
Co229 O235 2.052 . S
Co229 O237 2.135 . S
O230 Co229 2.061 . S
O230 C233 1.235 . S
C231 O234 1.238 . S
C231 O235 1.241 . S
C232 O225 1.247 . S
C232 O226 1.261 . S
C233 O228 1.259 . S
C233 O230 1.235 . S
O234 Co224 2.021 . S
O234 C231 1.238 . S
O235 Co229 2.052 . S
O235 C231 1.241 . S
O236 Co224 2.137 . S
O236 C227 1.247 . S
O237 Co224 2.244 . S
O237 C227 1.272 . S
O237 Co229 2.135 . S
Co238 O239 2.216 . S
Co238 O240 2.091 . S
Co238 O242 2.004 . S
Co238 O248 2.021 . S
Co238 O250 2.137 . S
Co238 O251 2.244 . S
O239 Co238 2.216 . S
O239 C246 1.247 . S
O240 Co238 2.091 . S
O240 C246 1.261 . S
C241 O250 1.247 . S
C241 O251 1.272 . S
O242 Co238 2.004 . S
O242 C247 1.259 . S
Co243 O244 2.061 . S
Co243 O249 2.052 . S
Co243 O251 2.135 . S
O244 Co243 2.061 . S
O244 C247 1.235 . S
C245 O248 1.238 . S
C245 O249 1.241 . S
C246 O239 1.247 . S
C246 O240 1.261 . S
C247 O242 1.259 . S
C247 O244 1.235 . S
O248 Co238 2.021 . S
O248 C245 1.238 . S
O249 Co243 2.052 . S
O249 C245 1.241 . S
O250 Co238 2.137 . S
O250 C241 1.247 . S
O251 Co238 2.244 . S
O251 C241 1.272 . S
O251 Co243 2.135 . S
Co252 O253 2.216 . S
Co252 O254 2.091 . S
Co252 O256 2.004 . S
Co252 O262 2.021 . S
Co252 O264 2.137 . S
Co252 O265 2.244 . S
O253 Co252 2.216 . S
O253 C260 1.247 . S
O254 Co252 2.091 . S
O254 C260 1.261 . S
C255 O264 1.247 . S
C255 O265 1.272 . S
O256 Co252 2.004 . S
O256 C261 1.259 . S
Co257 O258 2.061 . S
Co257 O263 2.052 . S
Co257 O265 2.135 . S
O258 Co257 2.061 . S
O258 C261 1.235 . S
C259 O262 1.238 . S
C259 O263 1.241 . S
C260 O253 1.247 . S
C260 O254 1.261 . S
C261 O256 1.259 . S
C261 O258 1.235 . S
O262 Co252 2.021 . S
O262 C259 1.238 . S
O263 Co257 2.052 . S
O263 C259 1.241 . S
O264 Co252 2.137 . S
O264 C255 1.247 . S
O265 Co252 2.244 . S
O265 C255 1.272 . S
O265 Co257 2.135 . S
Co266 O267 2.216 . S
Co266 O268 2.091 . S
Co266 O270 2.004 . S
Co266 O276 2.021 . S
Co266 O278 2.137 . S
Co266 O279 2.244 . S
O267 Co266 2.216 . S
O267 C274 1.247 . S
O268 Co266 2.091 . S
O268 C274 1.261 . S
C269 O278 1.247 . S
C269 O279 1.272 . S
O270 Co266 2.004 . S
O270 C275 1.259 . S
Co271 O272 2.061 . S
Co271 O277 2.052 . S
Co271 O279 2.135 . S
O272 Co271 2.061 . S
O272 C275 1.235 . S
C273 O276 1.238 . S
C273 O277 1.241 . S
C274 O267 1.247 . S
C274 O268 1.261 . S
C275 O270 1.259 . S
C275 O272 1.235 . S
O276 Co266 2.021 . S
O276 C273 1.238 . S
O277 Co271 2.052 . S
O277 C273 1.241 . S
O278 Co266 2.137 . S
O278 C269 1.247 . S
O279 Co266 2.244 . S
O279 C269 1.272 . S
O279 Co271 2.135 . S
Co280 O281 2.216 . S
Co280 O282 2.091 . S
Co280 O284 2.004 . S
Co280 O290 2.021 . S
Co280 O292 2.137 . S
Co280 O293 2.244 . S
O281 Co280 2.216 . S
O281 C288 1.247 . S
O282 Co280 2.091 . S
O282 C288 1.261 . S
C283 O292 1.247 . S
C283 O293 1.272 . S
O284 Co280 2.004 . S
O284 C289 1.259 . S
Co285 O286 2.061 . S
Co285 O291 2.052 . S
Co285 O293 2.135 . S
O286 Co285 2.061 . S
O286 C289 1.235 . S
C287 O290 1.238 . S
C287 O291 1.241 . S
C288 O281 1.247 . S
C288 O282 1.261 . S
C289 O284 1.259 . S
C289 O286 1.235 . S
O290 Co280 2.021 . S
O290 C287 1.238 . S
O291 Co285 2.052 . S
O291 C287 1.241 . S
O292 Co280 2.137 . S
O292 C283 1.247 . S
O293 Co280 2.244 . S
O293 C283 1.272 . S
O293 Co285 2.135 . S
Co294 O295 2.216 . S
Co294 O296 2.091 . S
Co294 O298 2.004 . S
Co294 O304 2.021 . S
Co294 O306 2.137 . S
Co294 O307 2.244 . S
O295 Co294 2.216 . S
O295 C302 1.247 . S
O296 Co294 2.091 . S
O296 C302 1.261 . S
C297 O306 1.247 . S
C297 O307 1.272 . S
O298 Co294 2.004 . S
O298 C303 1.259 . S
Co299 O300 2.061 . S
Co299 O305 2.052 . S
Co299 O307 2.135 . S
O300 Co299 2.061 . S
O300 C303 1.235 . S
C301 O304 1.238 . S
C301 O305 1.241 . S
C302 O295 1.247 . S
C302 O296 1.261 . S
C303 O298 1.259 . S
C303 O300 1.235 . S
O304 Co294 2.021 . S
O304 C301 1.238 . S
O305 Co299 2.052 . S
O305 C301 1.241 . S
O306 Co294 2.137 . S
O306 C297 1.247 . S
O307 Co294 2.244 . S
O307 C297 1.272 . S
O307 Co299 2.135 . S
Co308 O309 2.216 . S
Co308 O310 2.091 . S
Co308 O312 2.004 . S
Co308 O318 2.021 . S
Co308 O320 2.137 . S
Co308 O321 2.244 . S
O309 Co308 2.216 . S
O309 C316 1.247 . S
O310 Co308 2.091 . S
O310 C316 1.261 . S
C311 O320 1.247 . S
C311 O321 1.272 . S
O312 Co308 2.004 . S
O312 C317 1.259 . S
Co313 O314 2.061 . S
Co313 O319 2.052 . S
Co313 O321 2.135 . S
O314 Co313 2.061 . S
O314 C317 1.235 . S
C315 O318 1.238 . S
C315 O319 1.241 . S
C316 O309 1.247 . S
C316 O310 1.261 . S
C317 O312 1.259 . S
C317 O314 1.235 . S
O318 Co308 2.021 . S
O318 C315 1.238 . S
O319 Co313 2.052 . S
O319 C315 1.241 . S
O320 Co308 2.137 . S
O320 C311 1.247 . S
O321 Co308 2.244 . S
O321 C311 1.272 . S
O321 Co313 2.135 . S
Co322 O323 2.216 . S
Co322 O324 2.091 . S
Co322 O326 2.004 . S
Co322 O332 2.021 . S
Co322 O334 2.137 . S
Co322 O335 2.244 . S
O323 Co322 2.216 . S
O323 C330 1.247 . S
O324 Co322 2.091 . S
O324 C330 1.261 . S
C325 O334 1.247 . S
C325 O335 1.272 . S
O326 Co322 2.004 . S
O326 C331 1.259 . S
Co327 O328 2.061 . S
Co327 O333 2.052 . S
Co327 O335 2.135 . S
O328 Co327 2.061 . S
O328 C331 1.235 . S
C329 O332 1.238 . S
C329 O333 1.241 . S
C330 O323 1.247 . S
C330 O324 1.261 . S
C331 O326 1.259 . S
C331 O328 1.235 . S
O332 Co322 2.021 . S
O332 C329 1.238 . S
O333 Co327 2.052 . S
O333 C329 1.241 . S
O334 Co322 2.137 . S
O334 C325 1.247 . S
O335 Co322 2.244 . S
O335 C325 1.272 . S
O335 Co327 2.135 . S
Co336 O337 2.216 . S
Co336 O338 2.091 . S
Co336 O340 2.004 . S
Co336 O346 2.021 . S
Co336 O348 2.137 . S
Co336 O349 2.244 . S
O337 Co336 2.216 . S
O337 C344 1.247 . S
O338 Co336 2.091 . S
O338 C344 1.261 . S
C339 O348 1.247 . S
C339 O349 1.272 . S
O340 Co336 2.004 . S
O340 C345 1.259 . S
Co341 O342 2.061 . S
Co341 O347 2.052 . S
Co341 O349 2.135 . S
O342 Co341 2.061 . S
O342 C345 1.235 . S
C343 O346 1.238 . S
C343 O347 1.241 . S
C344 O337 1.247 . S
C344 O338 1.261 . S
C345 O340 1.259 . S
C345 O342 1.235 . S
O346 Co336 2.021 . S
O346 C343 1.238 . S
O347 Co341 2.052 . S
O347 C343 1.241 . S
O348 Co336 2.137 . S
O348 C339 1.247 . S
O349 Co336 2.244 . S
O349 C339 1.272 . S
O349 Co341 2.135 . S
Co350 O351 2.216 . S
Co350 O352 2.091 . S
Co350 O354 2.004 . S
Co350 O360 2.021 . S
Co350 O362 2.137 . S
Co350 O363 2.244 . S
O351 Co350 2.216 . S
O351 C358 1.247 . S
O352 Co350 2.091 . S
O352 C358 1.261 . S
C353 O362 1.247 . S
C353 O363 1.272 . S
O354 Co350 2.004 . S
O354 C359 1.259 . S
Co355 O356 2.061 . S
Co355 O361 2.052 . S
Co355 O363 2.135 . S
O356 Co355 2.061 . S
O356 C359 1.235 . S
C357 O360 1.238 . S
C357 O361 1.241 . S
C358 O351 1.247 . S
C358 O352 1.261 . S
C359 O354 1.259 . S
C359 O356 1.235 . S
O360 Co350 2.021 . S
O360 C357 1.238 . S
O361 Co355 2.052 . S
O361 C357 1.241 . S
O362 Co350 2.137 . S
O362 C353 1.247 . S
O363 Co350 2.244 . S
O363 C353 1.272 . S
O363 Co355 2.135 . S
Co364 O365 2.216 . S
Co364 O366 2.091 . S
Co364 O368 2.004 . S
Co364 O374 2.021 . S
Co364 O376 2.137 . S
Co364 O377 2.244 . S
O365 Co364 2.216 . S
O365 C372 1.247 . S
O366 Co364 2.091 . S
O366 C372 1.261 . S
C367 O376 1.247 . S
C367 O377 1.272 . S
O368 Co364 2.004 . S
O368 C373 1.259 . S
Co369 O370 2.061 . S
Co369 O375 2.052 . S
Co369 O377 2.135 . S
O370 Co369 2.061 . S
O370 C373 1.235 . S
C371 O374 1.238 . S
C371 O375 1.241 . S
C372 O365 1.247 . S
C372 O366 1.261 . S
C373 O368 1.259 . S
C373 O370 1.235 . S
O374 Co364 2.021 . S
O374 C371 1.238 . S
O375 Co369 2.052 . S
O375 C371 1.241 . S
O376 Co364 2.137 . S
O376 C367 1.247 . S
O377 Co364 2.244 . S
O377 C367 1.272 . S
O377 Co369 2.135 . S
Co378 O379 2.216 . S
Co378 O380 2.091 . S
Co378 O382 2.004 . S
Co378 O388 2.021 . S
Co378 O390 2.137 . S
Co378 O391 2.244 . S
O379 Co378 2.216 . S
O379 C386 1.247 . S
O380 Co378 2.091 . S
O380 C386 1.261 . S
C381 O390 1.247 . S
C381 O391 1.272 . S
O382 Co378 2.004 . S
O382 C387 1.259 . S
Co383 O384 2.061 . S
Co383 O389 2.052 . S
Co383 O391 2.135 . S
O384 Co383 2.061 . S
O384 C387 1.235 . S
C385 O388 1.238 . S
C385 O389 1.241 . S
C386 O379 1.247 . S
C386 O380 1.261 . S
C387 O382 1.259 . S
C387 O384 1.235 . S
O388 Co378 2.021 . S
O388 C385 1.238 . S
O389 Co383 2.052 . S
O389 C385 1.241 . S
O390 Co378 2.137 . S
O390 C381 1.247 . S
O391 Co378 2.244 . S
O391 C381 1.272 . S
O391 Co383 2.135 . S
Co392 O393 2.216 . S
Co392 O394 2.091 . S
Co392 O396 2.004 . S
Co392 O402 2.021 . S
Co392 O404 2.137 . S
Co392 O405 2.244 . S
O393 Co392 2.216 . S
O393 C400 1.247 . S
O394 Co392 2.091 . S
O394 C400 1.261 . S
C395 O404 1.247 . S
C395 O405 1.272 . S
O396 Co392 2.004 . S
O396 C401 1.259 . S
Co397 O398 2.061 . S
Co397 O403 2.052 . S
Co397 O405 2.135 . S
O398 Co397 2.061 . S
O398 C401 1.235 . S
C399 O402 1.238 . S
C399 O403 1.241 . S
C400 O393 1.247 . S
C400 O394 1.261 . S
C401 O396 1.259 . S
C401 O398 1.235 . S
O402 Co392 2.021 . S
O402 C399 1.238 . S
O403 Co397 2.052 . S
O403 C399 1.241 . S
O404 Co392 2.137 . S
O404 C395 1.247 . S
O405 Co392 2.244 . S
O405 C395 1.272 . S
O405 Co397 2.135 . S
Co406 O407 2.216 . S
Co406 O408 2.091 . S
Co406 O410 2.004 . S
Co406 O416 2.021 . S
Co406 O418 2.137 . S
Co406 O419 2.244 . S
O407 Co406 2.216 . S
O407 C414 1.247 . S
O408 Co406 2.091 . S
O408 C414 1.261 . S
C409 O418 1.247 . S
C409 O419 1.272 . S
O410 Co406 2.004 . S
O410 C415 1.259 . S
Co411 O412 2.061 . S
Co411 O417 2.052 . S
Co411 O419 2.135 . S
O412 Co411 2.061 . S
O412 C415 1.235 . S
C413 O416 1.238 . S
C413 O417 1.241 . S
C414 O407 1.247 . S
C414 O408 1.261 . S
C415 O410 1.259 . S
C415 O412 1.235 . S
O416 Co406 2.021 . S
O416 C413 1.238 . S
O417 Co411 2.052 . S
O417 C413 1.241 . S
O418 Co406 2.137 . S
O418 C409 1.247 . S
O419 Co406 2.244 . S
O419 C409 1.272 . S
O419 Co411 2.135 . S
Co420 O421 2.216 . S
Co420 O422 2.091 . S
Co420 O424 2.004 . S
Co420 O430 2.021 . S
Co420 O432 2.137 . S
Co420 O433 2.244 . S
O421 Co420 2.216 . S
O421 C428 1.247 . S
O422 Co420 2.091 . S
O422 C428 1.261 . S
C423 O432 1.247 . S
C423 O433 1.272 . S
O424 Co420 2.004 . S
O424 C429 1.259 . S
Co425 O426 2.061 . S
Co425 O431 2.052 . S
Co425 O433 2.135 . S
O426 Co425 2.061 . S
O426 C429 1.235 . S
C427 O430 1.238 . S
C427 O431 1.241 . S
C428 O421 1.247 . S
C428 O422 1.261 . S
C429 O424 1.259 . S
C429 O426 1.235 . S
O430 Co420 2.021 . S
O430 C427 1.238 . S
O431 Co425 2.052 . S
O431 C427 1.241 . S
O432 Co420 2.137 . S
O432 C423 1.247 . S
O433 Co420 2.244 . S
O433 C423 1.272 . S
O433 Co425 2.135 . S
Co434 O435 2.216 . S
Co434 O436 2.091 . S
Co434 O438 2.004 . S
Co434 O444 2.021 . S
Co434 O446 2.137 . S
Co434 O447 2.244 . S
O435 Co434 2.216 . S
O435 C442 1.247 . S
O436 Co434 2.091 . S
O436 C442 1.261 . S
C437 O446 1.247 . S
C437 O447 1.272 . S
O438 Co434 2.004 . S
O438 C443 1.259 . S
Co439 O440 2.061 . S
Co439 O445 2.052 . S
Co439 O447 2.135 . S
O440 Co439 2.061 . S
O440 C443 1.235 . S
C441 O444 1.238 . S
C441 O445 1.241 . S
C442 O435 1.247 . S
C442 O436 1.261 . S
C443 O438 1.259 . S
C443 O440 1.235 . S
O444 Co434 2.021 . S
O444 C441 1.238 . S
O445 Co439 2.052 . S
O445 C441 1.241 . S
O446 Co434 2.137 . S
O446 C437 1.247 . S
O447 Co434 2.244 . S
O447 C437 1.272 . S
O447 Co439 2.135 . S
Co448 O449 2.216 . S
Co448 O450 2.091 . S
Co448 O452 2.004 . S
Co448 O458 2.021 . S
Co448 O460 2.137 . S
Co448 O461 2.244 . S
O449 Co448 2.216 . S
O449 C456 1.247 . S
O450 Co448 2.091 . S
O450 C456 1.261 . S
C451 O460 1.247 . S
C451 O461 1.272 . S
O452 Co448 2.004 . S
O452 C457 1.259 . S
Co453 O454 2.061 . S
Co453 O459 2.052 . S
Co453 O461 2.135 . S
O454 Co453 2.061 . S
O454 C457 1.235 . S
C455 O458 1.238 . S
C455 O459 1.241 . S
C456 O449 1.247 . S
C456 O450 1.261 . S
C457 O452 1.259 . S
C457 O454 1.235 . S
O458 Co448 2.021 . S
O458 C455 1.238 . S
O459 Co453 2.052 . S
O459 C455 1.241 . S
O460 Co448 2.137 . S
O460 C451 1.247 . S
O461 Co448 2.244 . S
O461 C451 1.272 . S
O461 Co453 2.135 . S
Co462 O463 2.216 . S
Co462 O464 2.091 . S
Co462 O466 2.004 . S
Co462 O472 2.021 . S
Co462 O474 2.137 . S
Co462 O475 2.244 . S
O463 Co462 2.216 . S
O463 C470 1.247 . S
O464 Co462 2.091 . S
O464 C470 1.261 . S
C465 O474 1.247 . S
C465 O475 1.272 . S
O466 Co462 2.004 . S
O466 C471 1.259 . S
Co467 O468 2.061 . S
Co467 O473 2.052 . S
Co467 O475 2.135 . S
O468 Co467 2.061 . S
O468 C471 1.235 . S
C469 O472 1.238 . S
C469 O473 1.241 . S
C470 O463 1.247 . S
C470 O464 1.261 . S
C471 O466 1.259 . S
C471 O468 1.235 . S
O472 Co462 2.021 . S
O472 C469 1.238 . S
O473 Co467 2.052 . S
O473 C469 1.241 . S
O474 Co462 2.137 . S
O474 C465 1.247 . S
O475 Co462 2.244 . S
O475 C465 1.272 . S
O475 Co467 2.135 . S
Co476 O477 2.216 . S
Co476 O478 2.091 . S
Co476 O480 2.004 . S
Co476 O486 2.021 . S
Co476 O488 2.137 . S
Co476 O489 2.244 . S
O477 Co476 2.216 . S
O477 C484 1.247 . S
O478 Co476 2.091 . S
O478 C484 1.261 . S
C479 O488 1.247 . S
C479 O489 1.272 . S
O480 Co476 2.004 . S
O480 C485 1.259 . S
Co481 O482 2.061 . S
Co481 O487 2.052 . S
Co481 O489 2.135 . S
O482 Co481 2.061 . S
O482 C485 1.235 . S
C483 O486 1.238 . S
C483 O487 1.241 . S
C484 O477 1.247 . S
C484 O478 1.261 . S
C485 O480 1.259 . S
C485 O482 1.235 . S
O486 Co476 2.021 . S
O486 C483 1.238 . S
O487 Co481 2.052 . S
O487 C483 1.241 . S
O488 Co476 2.137 . S
O488 C479 1.247 . S
O489 Co476 2.244 . S
O489 C479 1.272 . S
O489 Co481 2.135 . S
Co490 O491 2.216 . S
Co490 O492 2.091 . S
Co490 O494 2.004 . S
Co490 O500 2.021 . S
Co490 O502 2.137 . S
Co490 O503 2.244 . S
O491 Co490 2.216 . S
O491 C498 1.247 . S
O492 Co490 2.091 . S
O492 C498 1.261 . S
C493 O502 1.247 . S
C493 O503 1.272 . S
O494 Co490 2.004 . S
O494 C499 1.259 . S
Co495 O496 2.061 . S
Co495 O501 2.052 . S
Co495 O503 2.135 . S
O496 Co495 2.061 . S
O496 C499 1.235 . S
C497 O500 1.238 . S
C497 O501 1.241 . S
C498 O491 1.247 . S
C498 O492 1.261 . S
C499 O494 1.259 . S
C499 O496 1.235 . S
O500 Co490 2.021 . S
O500 C497 1.238 . S
O501 Co495 2.052 . S
O501 C497 1.241 . S
O502 Co490 2.137 . S
O502 C493 1.247 . S
O503 Co490 2.244 . S
O503 C493 1.272 . S
O503 Co495 2.135 . S
H504 C512 0.929 . S
H505 C514 0.930 . S
H506 C516 0.930 . S
H507 C519 0.929 . S
H508 C522 0.930 . S
H509 C524 0.960 . S
H510 C524 0.960 . S
H511 C524 0.960 . S
C512 H504 0.929 . S
C512 C513 1.377 . S
C512 C514 1.384 . S
C513 C512 1.377 . S
C513 C519 1.390 . S
C514 H505 0.930 . S
C514 C512 1.384 . S
C514 C515 1.372 . S
C515 C514 1.372 . S
C515 C516 1.400 . S
C515 C520 1.490 . S
C516 H506 0.930 . S
C516 C515 1.400 . S
C516 C519 1.386 . S
H517 C533 0.930 . S
H518 C534 0.931 . S
C519 H507 0.929 . S
C519 C513 1.390 . S
C519 C516 1.386 . S
C520 C515 1.490 . S
C520 C522 1.395 . S
C520 C523 1.403 . S
H521 C527 0.930 . S
C522 H508 0.930 . S
C522 C520 1.395 . S
C522 C525 1.403 . S
C523 C520 1.403 . S
C523 C524 1.524 . S
C523 C527 1.400 . S
C524 H509 0.960 . S
C524 H510 0.960 . S
C524 H511 0.960 . S
C524 C523 1.524 . S
C525 C522 1.403 . S
C525 C526 1.392 . S
C525 C529 1.495 . S
C526 C525 1.392 . S
C526 C527 1.385 . S
C526 C528 1.478 . S
C527 H521 0.930 . S
C527 C523 1.400 . S
C527 C526 1.385 . S
C528 C526 1.478 . S
C528 C530 1.381 . S
C528 C534 1.383 . S
C529 C525 1.495 . S
C529 H535 0.959 . S
C529 H536 0.961 . S
C529 H537 0.960 . S
C530 C528 1.381 . S
C530 C531 1.394 . S
C530 H538 0.930 . S
C531 C530 1.394 . S
C531 C532 1.383 . S
C531 H539 0.929 . S
C532 C531 1.383 . S
C532 C533 1.377 . S
C533 H517 0.930 . S
C533 C532 1.377 . S
C533 C534 1.379 . S
C534 H518 0.931 . S
C534 C528 1.383 . S
C534 C533 1.379 . S
H535 C529 0.959 . S
H536 C529 0.961 . S
H537 C529 0.960 . S
H538 C530 0.930 . S
H539 C531 0.929 . S
H540 C548 0.929 . S
H541 C550 0.930 . S
H542 C552 0.930 . S
H543 C555 0.929 . S
H544 C558 0.930 . S
H545 C560 0.960 . S
H546 C560 0.960 . S
H547 C560 0.960 . S
C548 H540 0.929 . S
C548 C549 1.377 . S
C548 C550 1.384 . S
C549 C548 1.377 . S
C549 C555 1.390 . S
C550 H541 0.930 . S
C550 C548 1.384 . S
C550 C551 1.372 . S
C551 C550 1.372 . S
C551 C552 1.400 . S
C551 C556 1.490 . S
C552 H542 0.930 . S
C552 C551 1.400 . S
C552 C555 1.386 . S
H553 C569 0.930 . S
H554 C570 0.931 . S
C555 H543 0.929 . S
C555 C549 1.390 . S
C555 C552 1.386 . S
C556 C551 1.490 . S
C556 C558 1.395 . S
C556 C559 1.403 . S
H557 C563 0.930 . S
C558 H544 0.930 . S
C558 C556 1.395 . S
C558 C561 1.403 . S
C559 C556 1.403 . S
C559 C560 1.524 . S
C559 C563 1.400 . S
C560 H545 0.960 . S
C560 H546 0.960 . S
C560 H547 0.960 . S
C560 C559 1.524 . S
C561 C558 1.403 . S
C561 C562 1.392 . S
C561 C565 1.495 . S
C562 C561 1.392 . S
C562 C563 1.385 . S
C562 C564 1.478 . S
C563 H557 0.930 . S
C563 C559 1.400 . S
C563 C562 1.385 . S
C564 C562 1.478 . S
C564 C566 1.381 . S
C564 C570 1.383 . S
C565 C561 1.495 . S
C565 H571 0.959 . S
C565 H572 0.961 . S
C565 H573 0.960 . S
C566 C564 1.381 . S
C566 C567 1.394 . S
C566 H574 0.930 . S
C567 C566 1.394 . S
C567 C568 1.383 . S
C567 H575 0.929 . S
C568 C567 1.383 . S
C568 C569 1.377 . S
C569 H553 0.930 . S
C569 C568 1.377 . S
C569 C570 1.379 . S
C570 H554 0.931 . S
C570 C564 1.383 . S
C570 C569 1.379 . S
H571 C565 0.959 . S
H572 C565 0.961 . S
H573 C565 0.960 . S
H574 C566 0.930 . S
H575 C567 0.929 . S
H576 C584 0.929 . S
H577 C586 0.930 . S
H578 C588 0.930 . S
H579 C591 0.929 . S
H580 C594 0.930 . S
H581 C596 0.960 . S
H582 C596 0.960 . S
H583 C596 0.960 . S
C584 H576 0.929 . S
C584 C585 1.377 . S
C584 C586 1.384 . S
C585 C584 1.377 . S
C585 C591 1.390 . S
C586 H577 0.930 . S
C586 C584 1.384 . S
C586 C587 1.372 . S
C587 C586 1.372 . S
C587 C588 1.400 . S
C587 C592 1.490 . S
C588 H578 0.930 . S
C588 C587 1.400 . S
C588 C591 1.386 . S
H589 C605 0.930 . S
H590 C606 0.931 . S
C591 H579 0.929 . S
C591 C585 1.390 . S
C591 C588 1.386 . S
C592 C587 1.490 . S
C592 C594 1.395 . S
C592 C595 1.403 . S
H593 C599 0.930 . S
C594 H580 0.930 . S
C594 C592 1.395 . S
C594 C597 1.403 . S
C595 C592 1.403 . S
C595 C596 1.524 . S
C595 C599 1.400 . S
C596 H581 0.960 . S
C596 H582 0.960 . S
C596 H583 0.960 . S
C596 C595 1.524 . S
C597 C594 1.403 . S
C597 C598 1.392 . S
C597 C601 1.495 . S
C598 C597 1.392 . S
C598 C599 1.385 . S
C598 C600 1.478 . S
C599 H593 0.930 . S
C599 C595 1.400 . S
C599 C598 1.385 . S
C600 C598 1.478 . S
C600 C602 1.381 . S
C600 C606 1.383 . S
C601 C597 1.495 . S
C601 H607 0.959 . S
C601 H608 0.961 . S
C601 H609 0.960 . S
C602 C600 1.381 . S
C602 C603 1.394 . S
C602 H610 0.930 . S
C603 C602 1.394 . S
C603 C604 1.383 . S
C603 H611 0.929 . S
C604 C603 1.383 . S
C604 C605 1.377 . S
C605 H589 0.930 . S
C605 C604 1.377 . S
C605 C606 1.379 . S
C606 H590 0.931 . S
C606 C600 1.383 . S
C606 C605 1.379 . S
H607 C601 0.959 . S
H608 C601 0.961 . S
H609 C601 0.960 . S
H610 C602 0.930 . S
H611 C603 0.929 . S
H612 C620 0.929 . S
H613 C622 0.930 . S
H614 C624 0.930 . S
H615 C627 0.929 . S
H616 C630 0.930 . S
H617 C632 0.960 . S
H618 C632 0.960 . S
H619 C632 0.960 . S
C620 H612 0.929 . S
C620 C621 1.377 . S
C620 C622 1.384 . S
C621 C620 1.377 . S
C621 C627 1.390 . S
C622 H613 0.930 . S
C622 C620 1.384 . S
C622 C623 1.372 . S
C623 C622 1.372 . S
C623 C624 1.400 . S
C623 C628 1.490 . S
C624 H614 0.930 . S
C624 C623 1.400 . S
C624 C627 1.386 . S
H625 C641 0.930 . S
H626 C642 0.931 . S
C627 H615 0.929 . S
C627 C621 1.390 . S
C627 C624 1.386 . S
C628 C623 1.490 . S
C628 C630 1.395 . S
C628 C631 1.403 . S
H629 C635 0.930 . S
C630 H616 0.930 . S
C630 C628 1.395 . S
C630 C633 1.403 . S
C631 C628 1.403 . S
C631 C632 1.524 . S
C631 C635 1.400 . S
C632 H617 0.960 . S
C632 H618 0.960 . S
C632 H619 0.960 . S
C632 C631 1.524 . S
C633 C630 1.403 . S
C633 C634 1.392 . S
C633 C637 1.495 . S
C634 C633 1.392 . S
C634 C635 1.385 . S
C634 C636 1.478 . S
C635 H629 0.930 . S
C635 C631 1.400 . S
C635 C634 1.385 . S
C636 C634 1.478 . S
C636 C638 1.381 . S
C636 C642 1.383 . S
C637 C633 1.495 . S
C637 H643 0.959 . S
C637 H644 0.961 . S
C637 H645 0.960 . S
C638 C636 1.381 . S
C638 C639 1.394 . S
C638 H646 0.930 . S
C639 C638 1.394 . S
C639 C640 1.383 . S
C639 H647 0.929 . S
C640 C639 1.383 . S
C640 C641 1.377 . S
C641 H625 0.930 . S
C641 C640 1.377 . S
C641 C642 1.379 . S
C642 H626 0.931 . S
C642 C636 1.383 . S
C642 C641 1.379 . S
H643 C637 0.959 . S
H644 C637 0.961 . S
H645 C637 0.960 . S
H646 C638 0.930 . S
H647 C639 0.929 . S
H648 C656 0.929 . S
H649 C658 0.930 . S
H650 C660 0.930 . S
H651 C663 0.929 . S
H652 C666 0.930 . S
H653 C668 0.960 . S
H654 C668 0.960 . S
H655 C668 0.960 . S
C656 H648 0.929 . S
C656 C657 1.377 . S
C656 C658 1.384 . S
C657 C656 1.377 . S
C657 C663 1.390 . S
C658 H649 0.930 . S
C658 C656 1.384 . S
C658 C659 1.372 . S
C659 C658 1.372 . S
C659 C660 1.400 . S
C659 C664 1.490 . S
C660 H650 0.930 . S
C660 C659 1.400 . S
C660 C663 1.386 . S
H661 C677 0.930 . S
H662 C678 0.931 . S
C663 H651 0.929 . S
C663 C657 1.390 . S
C663 C660 1.386 . S
C664 C659 1.490 . S
C664 C666 1.395 . S
C664 C667 1.403 . S
H665 C671 0.930 . S
C666 H652 0.930 . S
C666 C664 1.395 . S
C666 C669 1.403 . S
C667 C664 1.403 . S
C667 C668 1.524 . S
C667 C671 1.400 . S
C668 H653 0.960 . S
C668 H654 0.960 . S
C668 H655 0.960 . S
C668 C667 1.524 . S
C669 C666 1.403 . S
C669 C670 1.392 . S
C669 C673 1.495 . S
C670 C669 1.392 . S
C670 C671 1.385 . S
C670 C672 1.478 . S
C671 H665 0.930 . S
C671 C667 1.400 . S
C671 C670 1.385 . S
C672 C670 1.478 . S
C672 C674 1.381 . S
C672 C678 1.383 . S
C673 C669 1.495 . S
C673 H679 0.959 . S
C673 H680 0.961 . S
C673 H681 0.960 . S
C674 C672 1.381 . S
C674 C675 1.394 . S
C674 H682 0.930 . S
C675 C674 1.394 . S
C675 C676 1.383 . S
C675 H683 0.929 . S
C676 C675 1.383 . S
C676 C677 1.377 . S
C677 H661 0.930 . S
C677 C676 1.377 . S
C677 C678 1.379 . S
C678 H662 0.931 . S
C678 C672 1.383 . S
C678 C677 1.379 . S
H679 C673 0.959 . S
H680 C673 0.961 . S
H681 C673 0.960 . S
H682 C674 0.930 . S
H683 C675 0.929 . S
H684 C692 0.929 . S
H685 C694 0.930 . S
H686 C696 0.930 . S
H687 C699 0.929 . S
H688 C702 0.930 . S
H689 C704 0.960 . S
H690 C704 0.960 . S
H691 C704 0.960 . S
C692 H684 0.929 . S
C692 C693 1.377 . S
C692 C694 1.384 . S
C693 C692 1.377 . S
C693 C699 1.390 . S
C694 H685 0.930 . S
C694 C692 1.384 . S
C694 C695 1.372 . S
C695 C694 1.372 . S
C695 C696 1.400 . S
C695 C700 1.490 . S
C696 H686 0.930 . S
C696 C695 1.400 . S
C696 C699 1.386 . S
H697 C713 0.930 . S
H698 C714 0.931 . S
C699 H687 0.929 . S
C699 C693 1.390 . S
C699 C696 1.386 . S
C700 C695 1.490 . S
C700 C702 1.395 . S
C700 C703 1.403 . S
H701 C707 0.930 . S
C702 H688 0.930 . S
C702 C700 1.395 . S
C702 C705 1.403 . S
C703 C700 1.403 . S
C703 C704 1.524 . S
C703 C707 1.400 . S
C704 H689 0.960 . S
C704 H690 0.960 . S
C704 H691 0.960 . S
C704 C703 1.524 . S
C705 C702 1.403 . S
C705 C706 1.392 . S
C705 C709 1.495 . S
C706 C705 1.392 . S
C706 C707 1.385 . S
C706 C708 1.478 . S
C707 H701 0.930 . S
C707 C703 1.400 . S
C707 C706 1.385 . S
C708 C706 1.478 . S
C708 C710 1.381 . S
C708 C714 1.383 . S
C709 C705 1.495 . S
C709 H715 0.959 . S
C709 H716 0.961 . S
C709 H717 0.960 . S
C710 C708 1.381 . S
C710 C711 1.394 . S
C710 H718 0.930 . S
C711 C710 1.394 . S
C711 C712 1.383 . S
C711 H719 0.929 . S
C712 C711 1.383 . S
C712 C713 1.377 . S
C713 H697 0.930 . S
C713 C712 1.377 . S
C713 C714 1.379 . S
C714 H698 0.931 . S
C714 C708 1.383 . S
C714 C713 1.379 . S
H715 C709 0.959 . S
H716 C709 0.961 . S
H717 C709 0.960 . S
H718 C710 0.930 . S
H719 C711 0.929 . S
H720 C728 0.929 . S
H721 C730 0.930 . S
H722 C732 0.930 . S
H723 C735 0.929 . S
H724 C738 0.930 . S
H725 C740 0.960 . S
H726 C740 0.960 . S
H727 C740 0.960 . S
C728 H720 0.929 . S
C728 C729 1.377 . S
C728 C730 1.384 . S
C729 C728 1.377 . S
C729 C735 1.390 . S
C730 H721 0.930 . S
C730 C728 1.384 . S
C730 C731 1.372 . S
C731 C730 1.372 . S
C731 C732 1.400 . S
C731 C736 1.490 . S
C732 H722 0.930 . S
C732 C731 1.400 . S
C732 C735 1.386 . S
H733 C749 0.930 . S
H734 C750 0.931 . S
C735 H723 0.929 . S
C735 C729 1.390 . S
C735 C732 1.386 . S
C736 C731 1.490 . S
C736 C738 1.395 . S
C736 C739 1.403 . S
H737 C743 0.930 . S
C738 H724 0.930 . S
C738 C736 1.395 . S
C738 C741 1.403 . S
C739 C736 1.403 . S
C739 C740 1.524 . S
C739 C743 1.400 . S
C740 H725 0.960 . S
C740 H726 0.960 . S
C740 H727 0.960 . S
C740 C739 1.524 . S
C741 C738 1.403 . S
C741 C742 1.392 . S
C741 C745 1.495 . S
C742 C741 1.392 . S
C742 C743 1.385 . S
C742 C744 1.478 . S
C743 H737 0.930 . S
C743 C739 1.400 . S
C743 C742 1.385 . S
C744 C742 1.478 . S
C744 C746 1.381 . S
C744 C750 1.383 . S
C745 C741 1.495 . S
C745 H751 0.959 . S
C745 H752 0.961 . S
C745 H753 0.960 . S
C746 C744 1.381 . S
C746 C747 1.394 . S
C746 H754 0.930 . S
C747 C746 1.394 . S
C747 C748 1.383 . S
C747 H755 0.929 . S
C748 C747 1.383 . S
C748 C749 1.377 . S
C749 H733 0.930 . S
C749 C748 1.377 . S
C749 C750 1.379 . S
C750 H734 0.931 . S
C750 C744 1.383 . S
C750 C749 1.379 . S
H751 C745 0.959 . S
H752 C745 0.961 . S
H753 C745 0.960 . S
H754 C746 0.930 . S
H755 C747 0.929 . S
H756 C764 0.929 . S
H757 C766 0.930 . S
H758 C768 0.930 . S
H759 C771 0.929 . S
H760 C774 0.930 . S
H761 C776 0.960 . S
H762 C776 0.960 . S
H763 C776 0.960 . S
C764 H756 0.929 . S
C764 C765 1.377 . S
C764 C766 1.384 . S
C765 C764 1.377 . S
C765 C771 1.390 . S
C766 H757 0.930 . S
C766 C764 1.384 . S
C766 C767 1.372 . S
C767 C766 1.372 . S
C767 C768 1.400 . S
C767 C772 1.490 . S
C768 H758 0.930 . S
C768 C767 1.400 . S
C768 C771 1.386 . S
H769 C785 0.930 . S
H770 C786 0.931 . S
C771 H759 0.929 . S
C771 C765 1.390 . S
C771 C768 1.386 . S
C772 C767 1.490 . S
C772 C774 1.395 . S
C772 C775 1.403 . S
H773 C779 0.930 . S
C774 H760 0.930 . S
C774 C772 1.395 . S
C774 C777 1.403 . S
C775 C772 1.403 . S
C775 C776 1.524 . S
C775 C779 1.400 . S
C776 H761 0.960 . S
C776 H762 0.960 . S
C776 H763 0.960 . S
C776 C775 1.524 . S
C777 C774 1.403 . S
C777 C778 1.392 . S
C777 C781 1.495 . S
C778 C777 1.392 . S
C778 C779 1.385 . S
C778 C780 1.478 . S
C779 H773 0.930 . S
C779 C775 1.400 . S
C779 C778 1.385 . S
C780 C778 1.478 . S
C780 C782 1.381 . S
C780 C786 1.383 . S
C781 C777 1.495 . S
C781 H787 0.959 . S
C781 H788 0.961 . S
C781 H789 0.960 . S
C782 C780 1.381 . S
C782 C783 1.394 . S
C782 H790 0.930 . S
C783 C782 1.394 . S
C783 C784 1.383 . S
C783 H791 0.929 . S
C784 C783 1.383 . S
C784 C785 1.377 . S
C785 H769 0.930 . S
C785 C784 1.377 . S
C785 C786 1.379 . S
C786 H770 0.931 . S
C786 C780 1.383 . S
C786 C785 1.379 . S
H787 C781 0.959 . S
H788 C781 0.961 . S
H789 C781 0.960 . S
H790 C782 0.930 . S
H791 C783 0.929 . S
H792 C800 0.929 . S
H793 C802 0.930 . S
H794 C804 0.930 . S
H795 C807 0.929 . S
H796 C810 0.930 . S
H797 C812 0.960 . S
H798 C812 0.960 . S
H799 C812 0.960 . S
C800 H792 0.929 . S
C800 C801 1.377 . S
C800 C802 1.384 . S
C801 C800 1.377 . S
C801 C807 1.390 . S
C802 H793 0.930 . S
C802 C800 1.384 . S
C802 C803 1.372 . S
C803 C802 1.372 . S
C803 C804 1.400 . S
C803 C808 1.490 . S
C804 H794 0.930 . S
C804 C803 1.400 . S
C804 C807 1.386 . S
H805 C821 0.930 . S
H806 C822 0.931 . S
C807 H795 0.929 . S
C807 C801 1.390 . S
C807 C804 1.386 . S
C808 C803 1.490 . S
C808 C810 1.395 . S
C808 C811 1.403 . S
H809 C815 0.930 . S
C810 H796 0.930 . S
C810 C808 1.395 . S
C810 C813 1.403 . S
C811 C808 1.403 . S
C811 C812 1.524 . S
C811 C815 1.400 . S
C812 H797 0.960 . S
C812 H798 0.960 . S
C812 H799 0.960 . S
C812 C811 1.524 . S
C813 C810 1.403 . S
C813 C814 1.392 . S
C813 C817 1.495 . S
C814 C813 1.392 . S
C814 C815 1.385 . S
C814 C816 1.478 . S
C815 H809 0.930 . S
C815 C811 1.400 . S
C815 C814 1.385 . S
C816 C814 1.478 . S
C816 C818 1.381 . S
C816 C822 1.383 . S
C817 C813 1.495 . S
C817 H823 0.959 . S
C817 H824 0.961 . S
C817 H825 0.960 . S
C818 C816 1.381 . S
C818 C819 1.394 . S
C818 H826 0.930 . S
C819 C818 1.394 . S
C819 C820 1.383 . S
C819 H827 0.929 . S
C820 C819 1.383 . S
C820 C821 1.377 . S
C821 H805 0.930 . S
C821 C820 1.377 . S
C821 C822 1.379 . S
C822 H806 0.931 . S
C822 C816 1.383 . S
C822 C821 1.379 . S
H823 C817 0.959 . S
H824 C817 0.961 . S
H825 C817 0.960 . S
H826 C818 0.930 . S
H827 C819 0.929 . S
H828 C836 0.929 . S
H829 C838 0.930 . S
H830 C840 0.930 . S
H831 C843 0.929 . S
H832 C846 0.930 . S
H833 C848 0.960 . S
H834 C848 0.960 . S
H835 C848 0.960 . S
C836 H828 0.929 . S
C836 C837 1.377 . S
C836 C838 1.384 . S
C837 C836 1.377 . S
C837 C843 1.390 . S
C838 H829 0.930 . S
C838 C836 1.384 . S
C838 C839 1.372 . S
C839 C838 1.372 . S
C839 C840 1.400 . S
C839 C844 1.490 . S
C840 H830 0.930 . S
C840 C839 1.400 . S
C840 C843 1.386 . S
H841 C857 0.930 . S
H842 C858 0.931 . S
C843 H831 0.929 . S
C843 C837 1.390 . S
C843 C840 1.386 . S
C844 C839 1.490 . S
C844 C846 1.395 . S
C844 C847 1.403 . S
H845 C851 0.930 . S
C846 H832 0.930 . S
C846 C844 1.395 . S
C846 C849 1.403 . S
C847 C844 1.403 . S
C847 C848 1.524 . S
C847 C851 1.400 . S
C848 H833 0.960 . S
C848 H834 0.960 . S
C848 H835 0.960 . S
C848 C847 1.524 . S
C849 C846 1.403 . S
C849 C850 1.392 . S
C849 C853 1.495 . S
C850 C849 1.392 . S
C850 C851 1.385 . S
C850 C852 1.478 . S
C851 H845 0.930 . S
C851 C847 1.400 . S
C851 C850 1.385 . S
C852 C850 1.478 . S
C852 C854 1.381 . S
C852 C858 1.383 . S
C853 C849 1.495 . S
C853 H859 0.959 . S
C853 H860 0.961 . S
C853 H861 0.960 . S
C854 C852 1.381 . S
C854 C855 1.394 . S
C854 H862 0.930 . S
C855 C854 1.394 . S
C855 C856 1.383 . S
C855 H863 0.929 . S
C856 C855 1.383 . S
C856 C857 1.377 . S
C857 H841 0.930 . S
C857 C856 1.377 . S
C857 C858 1.379 . S
C858 H842 0.931 . S
C858 C852 1.383 . S
C858 C857 1.379 . S
H859 C853 0.959 . S
H860 C853 0.961 . S
H861 C853 0.960 . S
H862 C854 0.930 . S
H863 C855 0.929 . S
H864 C872 0.929 . S
H865 C874 0.930 . S
H866 C876 0.930 . S
H867 C879 0.929 . S
H868 C882 0.930 . S
H869 C884 0.960 . S
H870 C884 0.960 . S
H871 C884 0.960 . S
C872 H864 0.929 . S
C872 C873 1.377 . S
C872 C874 1.384 . S
C873 C872 1.377 . S
C873 C879 1.390 . S
C874 H865 0.930 . S
C874 C872 1.384 . S
C874 C875 1.372 . S
C875 C874 1.372 . S
C875 C876 1.400 . S
C875 C880 1.490 . S
C876 H866 0.930 . S
C876 C875 1.400 . S
C876 C879 1.386 . S
H877 C893 0.930 . S
H878 C894 0.931 . S
C879 H867 0.929 . S
C879 C873 1.390 . S
C879 C876 1.386 . S
C880 C875 1.490 . S
C880 C882 1.395 . S
C880 C883 1.403 . S
H881 C887 0.930 . S
C882 H868 0.930 . S
C882 C880 1.395 . S
C882 C885 1.403 . S
C883 C880 1.403 . S
C883 C884 1.524 . S
C883 C887 1.400 . S
C884 H869 0.960 . S
C884 H870 0.960 . S
C884 H871 0.960 . S
C884 C883 1.524 . S
C885 C882 1.403 . S
C885 C886 1.392 . S
C885 C889 1.495 . S
C886 C885 1.392 . S
C886 C887 1.385 . S
C886 C888 1.478 . S
C887 H881 0.930 . S
C887 C883 1.400 . S
C887 C886 1.385 . S
C888 C886 1.478 . S
C888 C890 1.381 . S
C888 C894 1.383 . S
C889 C885 1.495 . S
C889 H895 0.959 . S
C889 H896 0.961 . S
C889 H897 0.960 . S
C890 C888 1.381 . S
C890 C891 1.394 . S
C890 H898 0.930 . S
C891 C890 1.394 . S
C891 C892 1.383 . S
C891 H899 0.929 . S
C892 C891 1.383 . S
C892 C893 1.377 . S
C893 H877 0.930 . S
C893 C892 1.377 . S
C893 C894 1.379 . S
C894 H878 0.931 . S
C894 C888 1.383 . S
C894 C893 1.379 . S
H895 C889 0.959 . S
H896 C889 0.961 . S
H897 C889 0.960 . S
H898 C890 0.930 . S
H899 C891 0.929 . S
H900 C908 0.929 . S
H901 C910 0.930 . S
H902 C912 0.930 . S
H903 C915 0.929 . S
H904 C918 0.930 . S
H905 C920 0.960 . S
H906 C920 0.960 . S
H907 C920 0.960 . S
C908 H900 0.929 . S
C908 C909 1.377 . S
C908 C910 1.384 . S
C909 C908 1.377 . S
C909 C915 1.390 . S
C910 H901 0.930 . S
C910 C908 1.384 . S
C910 C911 1.372 . S
C911 C910 1.372 . S
C911 C912 1.400 . S
C911 C916 1.490 . S
C912 H902 0.930 . S
C912 C911 1.400 . S
C912 C915 1.386 . S
H913 C929 0.930 . S
H914 C930 0.931 . S
C915 H903 0.929 . S
C915 C909 1.390 . S
C915 C912 1.386 . S
C916 C911 1.490 . S
C916 C918 1.395 . S
C916 C919 1.403 . S
H917 C923 0.930 . S
C918 H904 0.930 . S
C918 C916 1.395 . S
C918 C921 1.403 . S
C919 C916 1.403 . S
C919 C920 1.524 . S
C919 C923 1.400 . S
C920 H905 0.960 . S
C920 H906 0.960 . S
C920 H907 0.960 . S
C920 C919 1.524 . S
C921 C918 1.403 . S
C921 C922 1.392 . S
C921 C925 1.495 . S
C922 C921 1.392 . S
C922 C923 1.385 . S
C922 C924 1.478 . S
C923 H917 0.930 . S
C923 C919 1.400 . S
C923 C922 1.385 . S
C924 C922 1.478 . S
C924 C926 1.381 . S
C924 C930 1.383 . S
C925 C921 1.495 . S
C925 H931 0.959 . S
C925 H932 0.961 . S
C925 H933 0.960 . S
C926 C924 1.381 . S
C926 C927 1.394 . S
C926 H934 0.930 . S
C927 C926 1.394 . S
C927 C928 1.383 . S
C927 H935 0.929 . S
C928 C927 1.383 . S
C928 C929 1.377 . S
C929 H913 0.930 . S
C929 C928 1.377 . S
C929 C930 1.379 . S
C930 H914 0.931 . S
C930 C924 1.383 . S
C930 C929 1.379 . S
H931 C925 0.959 . S
H932 C925 0.961 . S
H933 C925 0.960 . S
H934 C926 0.930 . S
H935 C927 0.929 . S
H936 C944 0.929 . S
H937 C946 0.930 . S
H938 C948 0.930 . S
H939 C951 0.929 . S
H940 C954 0.930 . S
H941 C956 0.960 . S
H942 C956 0.960 . S
H943 C956 0.960 . S
C944 H936 0.929 . S
C944 C945 1.377 . S
C944 C946 1.384 . S
C945 C944 1.377 . S
C945 C951 1.390 . S
C946 H937 0.930 . S
C946 C944 1.384 . S
C946 C947 1.372 . S
C947 C946 1.372 . S
C947 C948 1.400 . S
C947 C952 1.490 . S
C948 H938 0.930 . S
C948 C947 1.400 . S
C948 C951 1.386 . S
H949 C965 0.930 . S
H950 C966 0.931 . S
C951 H939 0.929 . S
C951 C945 1.390 . S
C951 C948 1.386 . S
C952 C947 1.490 . S
C952 C954 1.395 . S
C952 C955 1.403 . S
H953 C959 0.930 . S
C954 H940 0.930 . S
C954 C952 1.395 . S
C954 C957 1.403 1_455 S
C955 C952 1.403 . S
C955 C956 1.524 . S
C955 C959 1.400 1_455 S
C956 H941 0.960 . S
C956 H942 0.960 . S
C956 H943 0.960 . S
C956 C955 1.524 . S
C957 C954 1.403 1_655 S
C957 C958 1.392 . S
C957 C961 1.495 . S
C958 C957 1.392 . S
C958 C959 1.385 . S
C958 C960 1.478 . S
C959 H953 0.930 . S
C959 C955 1.400 1_655 S
C959 C958 1.385 . S
C960 C958 1.478 . S
C960 C962 1.381 . S
C960 C966 1.383 . S
C961 C957 1.495 . S
C961 H967 0.959 . S
C961 H968 0.961 . S
C961 H969 0.960 . S
C962 C960 1.381 . S
C962 C963 1.394 . S
C962 H970 0.930 . S
C963 C962 1.394 . S
C963 C964 1.383 . S
C963 H971 0.929 . S
C964 C963 1.383 . S
C964 C965 1.377 . S
C965 H949 0.930 . S
C965 C964 1.377 . S
C965 C966 1.379 . S
C966 H950 0.931 . S
C966 C960 1.383 . S
C966 C965 1.379 . S
H967 C961 0.959 . S
H968 C961 0.961 . S
H969 C961 0.960 . S
H970 C962 0.930 . S
H971 C963 0.929 . S
H972 C980 0.929 . S
H973 C982 0.930 . S
H974 C984 0.930 . S
H975 C987 0.929 . S
H976 C990 0.930 . S
H977 C992 0.960 . S
H978 C992 0.960 . S
H979 C992 0.960 . S
C980 H972 0.929 . S
C980 C981 1.377 . S
C980 C982 1.384 . S
C981 C980 1.377 . S
C981 C987 1.390 . S
C982 H973 0.930 . S
C982 C980 1.384 . S
C982 C983 1.372 . S
C983 C982 1.372 . S
C983 C984 1.400 . S
C983 C988 1.490 . S
C984 H974 0.930 . S
C984 C983 1.400 . S
C984 C987 1.386 . S
H985 C1001 0.930 . S
H986 C1002 0.931 . S
C987 H975 0.929 . S
C987 C981 1.390 . S
C987 C984 1.386 . S
C988 C983 1.490 . S
C988 C990 1.395 . S
C988 C991 1.403 . S
H989 C995 0.930 . S
C990 H976 0.930 . S
C990 C988 1.395 . S
C990 C993 1.403 . S
C991 C988 1.403 . S
C991 C992 1.524 . S
C991 C995 1.400 . S
C992 H977 0.960 . S
C992 H978 0.960 . S
C992 H979 0.960 . S
C992 C991 1.524 . S
C993 C990 1.403 . S
C993 C994 1.392 . S
C993 C997 1.495 . S
C994 C993 1.392 . S
C994 C995 1.385 . S
C994 C996 1.478 . S
C995 H989 0.930 . S
C995 C991 1.400 . S
C995 C994 1.385 . S
C996 C994 1.478 . S
C996 C998 1.381 . S
C996 C1002 1.383 . S
C997 C993 1.495 . S
C997 H1003 0.959 . S
C997 H1004 0.961 . S
C997 H1005 0.960 . S
C998 C996 1.381 . S
C998 C999 1.394 . S
C998 H1006 0.930 . S
C999 C998 1.394 . S
C999 C1000 1.383 . S
C999 H1007 0.929 . S
C1000 C999 1.383 . S
C1000 C1001 1.377 . S
C1001 H985 0.930 . S
C1001 C1000 1.377 . S
C1001 C1002 1.379 . S
C1002 H986 0.931 . S
C1002 C996 1.383 . S
C1002 C1001 1.379 . S
H1003 C997 0.959 . S
H1004 C997 0.961 . S
H1005 C997 0.960 . S
H1006 C998 0.930 . S
H1007 C999 0.929 . S
H1008 C1016 0.929 . S
H1009 C1018 0.930 . S
H1010 C1020 0.930 . S
H1011 C1023 0.929 . S
H1012 C1026 0.930 . S
H1013 C1028 0.960 . S
H1014 C1028 0.960 . S
H1015 C1028 0.960 . S
C1016 H1008 0.929 . S
C1016 C1017 1.377 . S
C1016 C1018 1.384 . S
C1017 C1016 1.377 . S
C1017 C1023 1.390 . S
C1018 H1009 0.930 . S
C1018 C1016 1.384 . S
C1018 C1019 1.372 . S
C1019 C1018 1.372 . S
C1019 C1020 1.400 . S
C1019 C1024 1.490 . S
C1020 H1010 0.930 . S
C1020 C1019 1.400 . S
C1020 C1023 1.386 . S
H1021 C1037 0.930 . S
H1022 C1038 0.931 . S
C1023 H1011 0.929 . S
C1023 C1017 1.390 . S
C1023 C1020 1.386 . S
C1024 C1019 1.490 . S
C1024 C1026 1.395 . S
C1024 C1027 1.403 1_545 S
H1025 C1031 0.930 . S
C1026 H1012 0.930 . S
C1026 C1024 1.395 . S
C1026 C1029 1.403 . S
C1027 C1024 1.403 1_565 S
C1027 C1028 1.524 . S
C1027 C1031 1.400 . S
C1028 H1013 0.960 . S
C1028 H1014 0.960 . S
C1028 H1015 0.960 . S
C1028 C1027 1.524 . S
C1029 C1026 1.403 . S
C1029 C1030 1.392 1_545 S
C1029 C1033 1.495 . S
C1030 C1029 1.392 1_565 S
C1030 C1031 1.385 . S
C1030 C1032 1.478 . S
C1031 H1025 0.930 . S
C1031 C1027 1.400 . S
C1031 C1030 1.385 . S
C1032 C1030 1.478 . S
C1032 C1034 1.381 . S
C1032 C1038 1.383 . S
C1033 C1029 1.495 . S
C1033 H1039 0.959 . S
C1033 H1040 0.961 . S
C1033 H1041 0.960 . S
C1034 C1032 1.381 . S
C1034 C1035 1.394 . S
C1034 H1042 0.930 . S
C1035 C1034 1.394 . S
C1035 C1036 1.383 . S
C1035 H1043 0.929 . S
C1036 C1035 1.383 . S
C1036 C1037 1.377 . S
C1037 H1021 0.930 . S
C1037 C1036 1.377 . S
C1037 C1038 1.379 . S
C1038 H1022 0.931 . S
C1038 C1032 1.383 . S
C1038 C1037 1.379 . S
H1039 C1033 0.959 . S
H1040 C1033 0.961 . S
H1041 C1033 0.960 . S
H1042 C1034 0.930 . S
H1043 C1035 0.929 . S
H1044 C1052 0.929 . S
H1045 C1054 0.930 . S
H1046 C1056 0.930 . S
H1047 C1059 0.929 . S
H1048 C1062 0.930 . S
H1049 C1064 0.960 . S
H1050 C1064 0.960 . S
H1051 C1064 0.960 1_565 S
C1052 H1044 0.929 . S
C1052 C1053 1.377 . S
C1052 C1054 1.384 . S
C1053 C1052 1.377 . S
C1053 C1059 1.390 . S
C1054 H1045 0.930 . S
C1054 C1052 1.384 . S
C1054 C1055 1.372 . S
C1055 C1054 1.372 . S
C1055 C1056 1.400 . S
C1055 C1060 1.490 . S
C1056 H1046 0.930 . S
C1056 C1055 1.400 . S
C1056 C1059 1.386 . S
H1057 C1073 0.930 . S
H1058 C1074 0.931 . S
C1059 H1047 0.929 . S
C1059 C1053 1.390 . S
C1059 C1056 1.386 . S
C1060 C1055 1.490 . S
C1060 C1062 1.395 . S
C1060 C1063 1.403 1_565 S
H1061 C1067 0.930 . S
C1062 H1048 0.930 . S
C1062 C1060 1.395 . S
C1062 C1065 1.403 1_554 S
C1063 C1060 1.403 1_545 S
C1063 C1064 1.524 . S
C1063 C1067 1.400 1_554 S
C1064 H1049 0.960 . S
C1064 H1050 0.960 . S
C1064 H1051 0.960 1_545 S
C1064 C1063 1.524 . S
C1065 C1062 1.403 1_556 S
C1065 C1066 1.392 1_565 S
C1065 C1069 1.495 . S
C1066 C1065 1.392 1_545 S
C1066 C1067 1.385 . S
C1066 C1068 1.478 . S
C1067 H1061 0.930 . S
C1067 C1063 1.400 1_556 S
C1067 C1066 1.385 . S
C1068 C1066 1.478 . S
C1068 C1070 1.381 . S
C1068 C1074 1.383 . S
C1069 C1065 1.495 . S
C1069 H1075 0.959 . S
C1069 H1076 0.961 . S
C1069 H1077 0.960 1_565 S
C1070 C1068 1.381 . S
C1070 C1071 1.394 . S
C1070 H1078 0.930 . S
C1071 C1070 1.394 . S
C1071 C1072 1.383 . S
C1071 H1079 0.929 . S
C1072 C1071 1.383 . S
C1072 C1073 1.377 . S
C1073 H1057 0.930 . S
C1073 C1072 1.377 . S
C1073 C1074 1.379 . S
C1074 H1058 0.931 . S
C1074 C1068 1.383 . S
C1074 C1073 1.379 . S
H1075 C1069 0.959 . S
H1076 C1069 0.961 . S
H1077 C1069 0.960 1_545 S
H1078 C1070 0.930 . S
H1079 C1071 0.929 . S
H1080 C1088 0.929 . S
H1081 C1090 0.930 . S
H1082 C1092 0.930 . S
H1083 C1095 0.929 . S
H1084 C1098 0.930 . S
H1085 C1100 0.960 . S
H1086 C1100 0.960 . S
H1087 C1100 0.960 . S
C1088 H1080 0.929 . S
C1088 C1089 1.377 . S
C1088 C1090 1.384 . S
C1089 C1088 1.377 . S
C1089 C1095 1.390 . S
C1090 H1081 0.930 . S
C1090 C1088 1.384 . S
C1090 C1091 1.372 . S
C1091 C1090 1.372 . S
C1091 C1092 1.400 . S
C1091 C1096 1.490 . S
C1092 H1082 0.930 . S
C1092 C1091 1.400 . S
C1092 C1095 1.386 . S
H1093 C1109 0.930 . S
H1094 C1110 0.931 . S
C1095 H1083 0.929 . S
C1095 C1089 1.390 . S
C1095 C1092 1.386 . S
C1096 C1091 1.490 . S
C1096 C1098 1.395 1_556 S
C1096 C1099 1.403 1_655 S
H1097 C1103 0.930 . S
C1098 H1084 0.930 . S
C1098 C1096 1.395 1_554 S
C1098 C1101 1.403 . S
C1099 C1096 1.403 1_455 S
C1099 C1100 1.524 . S
C1099 C1103 1.400 . S
C1100 H1085 0.960 . S
C1100 H1086 0.960 . S
C1100 H1087 0.960 . S
C1100 C1099 1.524 . S
C1101 C1098 1.403 . S
C1101 C1102 1.392 1_655 S
C1101 C1105 1.495 . S
C1102 C1101 1.392 1_455 S
C1102 C1103 1.385 1_554 S
C1102 C1104 1.478 . S
C1103 H1097 0.930 . S
C1103 C1099 1.400 . S
C1103 C1102 1.385 1_556 S
C1104 C1102 1.478 . S
C1104 C1106 1.381 . S
C1104 C1110 1.383 . S
C1105 C1101 1.495 . S
C1105 H1111 0.959 . S
C1105 H1112 0.961 . S
C1105 H1113 0.960 . S
C1106 C1104 1.381 . S
C1106 C1107 1.394 . S
C1106 H1114 0.930 . S
C1107 C1106 1.394 . S
C1107 C1108 1.383 . S
C1107 H1115 0.929 . S
C1108 C1107 1.383 . S
C1108 C1109 1.377 . S
C1109 H1093 0.930 . S
C1109 C1108 1.377 . S
C1109 C1110 1.379 . S
C1110 H1094 0.931 . S
C1110 C1104 1.383 . S
C1110 C1109 1.379 . S
H1111 C1105 0.959 . S
H1112 C1105 0.961 . S
H1113 C1105 0.960 . S
H1114 C1106 0.930 . S
H1115 C1107 0.929 . S
H1116 C1124 0.929 . S
H1117 C1126 0.930 . S
H1118 C1128 0.930 . S
H1119 C1131 0.929 . S
H1120 C1134 0.930 . S
H1121 C1136 0.960 . S
H1122 C1136 0.960 . S
H1123 C1136 0.960 . S
C1124 H1116 0.929 . S
C1124 C1125 1.377 . S
C1124 C1126 1.384 . S
C1125 C1124 1.377 . S
C1125 C1131 1.390 . S
C1126 H1117 0.930 . S
C1126 C1124 1.384 . S
C1126 C1127 1.372 . S
C1127 C1126 1.372 . S
C1127 C1128 1.400 . S
C1127 C1132 1.490 . S
C1128 H1118 0.930 . S
C1128 C1127 1.400 . S
C1128 C1131 1.386 . S
H1129 C1145 0.930 . S
H1130 C1146 0.931 . S
C1131 H1119 0.929 . S
C1131 C1125 1.390 . S
C1131 C1128 1.386 . S
C1132 C1127 1.490 . S
C1132 C1134 1.395 1_556 S
C1132 C1135 1.403 . S
H1133 C1139 0.930 . S
C1134 H1120 0.930 . S
C1134 C1132 1.395 1_554 S
C1134 C1137 1.403 . S
C1135 C1132 1.403 . S
C1135 C1136 1.524 . S
C1135 C1139 1.400 . S
C1136 H1121 0.960 . S
C1136 H1122 0.960 . S
C1136 H1123 0.960 . S
C1136 C1135 1.524 . S
C1137 C1134 1.403 . S
C1137 C1138 1.392 . S
C1137 C1141 1.495 . S
C1138 C1137 1.392 . S
C1138 C1139 1.385 1_554 S
C1138 C1140 1.478 . S
C1139 H1133 0.930 . S
C1139 C1135 1.400 . S
C1139 C1138 1.385 1_556 S
C1140 C1138 1.478 . S
C1140 C1142 1.381 . S
C1140 C1146 1.383 . S
C1141 C1137 1.495 . S
C1141 H1147 0.959 . S
C1141 H1148 0.961 . S
C1141 H1149 0.960 . S
C1142 C1140 1.381 . S
C1142 C1143 1.394 . S
C1142 H1150 0.930 . S
C1143 C1142 1.394 . S
C1143 C1144 1.383 . S
C1143 H1151 0.929 . S
C1144 C1143 1.383 . S
C1144 C1145 1.377 . S
C1145 H1129 0.930 . S
C1145 C1144 1.377 . S
C1145 C1146 1.379 . S
C1146 H1130 0.931 . S
C1146 C1140 1.383 . S
C1146 C1145 1.379 . S
H1147 C1141 0.959 . S
H1148 C1141 0.961 . S
H1149 C1141 0.960 . S
H1150 C1142 0.930 . S
H1151 C1143 0.929 . S
H1152 C1160 0.929 1_565 S
H1153 C1162 0.930 . S
H1154 C1164 0.930 . S
H1155 C1167 0.929 . S
H1156 C1170 0.930 . S
H1157 C1172 0.960 . S
H1158 C1172 0.960 . S
H1159 C1172 0.960 . S
C1160 H1152 0.929 1_545 S
C1160 C1161 1.377 . S
C1160 C1162 1.384 1_545 S
C1161 C1160 1.377 . S
C1161 C1167 1.390 . S
C1162 H1153 0.930 . S
C1162 C1160 1.384 1_565 S
C1162 C1163 1.372 . S
C1163 C1162 1.372 . S
C1163 C1164 1.400 1_565 S
C1163 C1168 1.490 . S
C1164 H1154 0.930 . S
C1164 C1163 1.400 1_545 S
C1164 C1167 1.386 . S
H1165 C1181 0.930 . S
H1166 C1182 0.931 . S
C1167 H1155 0.929 . S
C1167 C1161 1.390 . S
C1167 C1164 1.386 . S
C1168 C1163 1.490 . S
C1168 C1170 1.395 . S
C1168 C1171 1.403 . S
H1169 C1175 0.930 . S
C1170 H1156 0.930 . S
C1170 C1168 1.395 . S
C1170 C1173 1.403 . S
C1171 C1168 1.403 . S
C1171 C1172 1.524 1_565 S
C1171 C1175 1.400 . S
C1172 H1157 0.960 . S
C1172 H1158 0.960 . S
C1172 H1159 0.960 . S
C1172 C1171 1.524 1_545 S
C1173 C1170 1.403 . S
C1173 C1174 1.392 . S
C1173 C1177 1.495 . S
C1174 C1173 1.392 . S
C1174 C1175 1.385 . S
C1174 C1176 1.478 . S
C1175 H1169 0.930 . S
C1175 C1171 1.400 . S
C1175 C1174 1.385 . S
C1176 C1174 1.478 . S
C1176 C1178 1.381 . S
C1176 C1182 1.383 . S
C1177 C1173 1.495 . S
C1177 H1183 0.959 . S
C1177 H1184 0.961 . S
C1177 H1185 0.960 . S
C1178 C1176 1.381 . S
C1178 C1179 1.394 . S
C1178 H1186 0.930 . S
C1179 C1178 1.394 . S
C1179 C1180 1.383 . S
C1179 H1187 0.929 . S
C1180 C1179 1.383 . S
C1180 C1181 1.377 . S
C1181 H1165 0.930 . S
C1181 C1180 1.377 . S
C1181 C1182 1.379 . S
C1182 H1166 0.931 . S
C1182 C1176 1.383 . S
C1182 C1181 1.379 . S
H1183 C1177 0.959 . S
H1184 C1177 0.961 . S
H1185 C1177 0.960 . S
H1186 C1178 0.930 . S
H1187 C1179 0.929 . S
H1188 C1196 0.929 . S
H1189 C1198 0.930 . S
H1190 C1200 0.930 . S
H1191 C1203 0.929 . S
H1192 C1206 0.930 . S
H1193 C1208 0.960 . S
H1194 C1208 0.960 . S
H1195 C1208 0.960 . S
C1196 H1188 0.929 . S
C1196 C1197 1.377 . S
C1196 C1198 1.384 . S
C1197 C1196 1.377 . S
C1197 C1203 1.390 . S
C1198 H1189 0.930 . S
C1198 C1196 1.384 . S
C1198 C1199 1.372 . S
C1199 C1198 1.372 . S
C1199 C1200 1.400 . S
C1199 C1204 1.490 . S
C1200 H1190 0.930 . S
C1200 C1199 1.400 . S
C1200 C1203 1.386 . S
H1201 C1217 0.930 . S
H1202 C1218 0.931 . S
C1203 H1191 0.929 . S
C1203 C1197 1.390 . S
C1203 C1200 1.386 . S
C1204 C1199 1.490 . S
C1204 C1206 1.395 . S
C1204 C1207 1.403 . S
H1205 C1211 0.930 . S
C1206 H1192 0.930 . S
C1206 C1204 1.395 . S
C1206 C1209 1.403 . S
C1207 C1204 1.403 . S
C1207 C1208 1.524 . S
C1207 C1211 1.400 . S
C1208 H1193 0.960 . S
C1208 H1194 0.960 . S
C1208 H1195 0.960 . S
C1208 C1207 1.524 . S
C1209 C1206 1.403 . S
C1209 C1210 1.392 . S
C1209 C1213 1.495 . S
C1210 C1209 1.392 . S
C1210 C1211 1.385 . S
C1210 C1212 1.478 . S
C1211 H1205 0.930 . S
C1211 C1207 1.400 . S
C1211 C1210 1.385 . S
C1212 C1210 1.478 . S
C1212 C1214 1.381 . S
C1212 C1218 1.383 1_455 S
C1213 C1209 1.495 . S
C1213 H1219 0.959 . S
C1213 H1220 0.957 . S
C1213 H1221 0.960 . S
C1214 C1212 1.381 . S
C1214 C1215 1.394 . S
C1214 H1222 0.930 . S
C1215 C1214 1.394 . S
C1215 C1216 1.383 1_455 S
C1215 H1223 0.929 . S
C1216 C1215 1.383 1_655 S
C1216 C1217 1.377 . S
C1217 H1201 0.930 . S
C1217 C1216 1.377 . S
C1217 C1218 1.379 . S
C1218 H1202 0.931 . S
C1218 C1212 1.383 1_655 S
C1218 C1217 1.379 . S
H1219 C1213 0.959 . S
H1220 C1213 0.957 . S
H1221 C1213 0.960 . S
H1222 C1214 0.930 . S
H1223 C1215 0.929 . S
H1224 C1232 0.929 . S
H1225 C1234 0.930 . S
H1226 C1236 0.930 . S
H1227 C1239 0.929 . S
H1228 C1242 0.930 . S
H1229 C1244 0.960 . S
H1230 C1244 0.960 . S
H1231 C1244 0.960 . S
C1232 H1224 0.929 . S
C1232 C1233 1.377 . S
C1232 C1234 1.384 . S
C1233 C1232 1.377 . S
C1233 C1239 1.390 . S
C1234 H1225 0.930 . S
C1234 C1232 1.384 . S
C1234 C1235 1.372 . S
C1235 C1234 1.372 . S
C1235 C1236 1.400 . S
C1235 C1240 1.490 . S
C1236 H1226 0.930 . S
C1236 C1235 1.400 . S
C1236 C1239 1.386 . S
H1237 C1253 0.930 . S
H1238 C1254 0.931 . S
C1239 H1227 0.929 . S
C1239 C1233 1.390 . S
C1239 C1236 1.386 . S
C1240 C1235 1.490 . S
C1240 C1242 1.395 . S
C1240 C1243 1.403 . S
H1241 C1247 0.930 . S
C1242 H1228 0.930 . S
C1242 C1240 1.395 . S
C1242 C1245 1.403 . S
C1243 C1240 1.403 . S
C1243 C1244 1.524 . S
C1243 C1247 1.400 . S
C1244 H1229 0.960 . S
C1244 H1230 0.960 . S
C1244 H1231 0.960 . S
C1244 C1243 1.524 . S
C1245 C1242 1.403 . S
C1245 C1246 1.392 . S
C1245 C1249 1.495 . S
C1246 C1245 1.392 . S
C1246 C1247 1.385 . S
C1246 C1248 1.478 . S
C1247 H1241 0.930 . S
C1247 C1243 1.400 . S
C1247 C1246 1.385 . S
C1248 C1246 1.478 . S
C1248 C1250 1.381 . S
C1248 C1254 1.383 . S
C1249 C1245 1.495 . S
C1249 H1255 0.959 . S
C1249 H1256 0.961 . S
C1249 H1257 0.960 . S
C1250 C1248 1.381 . S
C1250 C1251 1.394 . S
C1250 H1258 0.930 . S
C1251 C1250 1.394 . S
C1251 C1252 1.383 . S
C1251 H1259 0.929 . S
C1252 C1251 1.383 . S
C1252 C1253 1.377 . S
C1253 H1237 0.930 . S
C1253 C1252 1.377 . S
C1253 C1254 1.379 . S
C1254 H1238 0.931 . S
C1254 C1248 1.383 . S
C1254 C1253 1.379 . S
H1255 C1249 0.959 . S
H1256 C1249 0.961 . S
H1257 C1249 0.960 . S
H1258 C1250 0.930 . S
H1259 C1251 0.929 . S
H1260 C1268 0.929 . S
H1261 C1270 0.930 . S
H1262 C1272 0.930 . S
H1263 C1275 0.929 . S
H1264 C1278 0.930 . S
H1265 C1280 0.960 . S
H1266 C1280 0.960 . S
H1267 C1280 0.960 . S
C1268 H1260 0.929 . S
C1268 C1269 1.377 . S
C1268 C1270 1.384 . S
C1269 C1268 1.377 . S
C1269 C1275 1.390 . S
C1270 H1261 0.930 . S
C1270 C1268 1.384 . S
C1270 C1271 1.372 . S
C1271 C1270 1.372 . S
C1271 C1272 1.400 . S
C1271 C1276 1.490 . S
C1272 H1262 0.930 . S
C1272 C1271 1.400 . S
C1272 C1275 1.386 . S
H1273 C1289 0.930 . S
H1274 C1290 0.931 . S
C1275 H1263 0.929 . S
C1275 C1269 1.390 . S
C1275 C1272 1.386 . S
C1276 C1271 1.490 . S
C1276 C1278 1.395 . S
C1276 C1279 1.403 . S
H1277 C1283 0.930 . S
C1278 H1264 0.930 . S
C1278 C1276 1.395 . S
C1278 C1281 1.403 . S
C1279 C1276 1.403 . S
C1279 C1280 1.524 . S
C1279 C1283 1.400 . S
C1280 H1265 0.960 . S
C1280 H1266 0.960 . S
C1280 H1267 0.960 . S
C1280 C1279 1.524 . S
C1281 C1278 1.403 . S
C1281 C1282 1.392 . S
C1281 C1285 1.495 1_655 S
C1282 C1281 1.392 . S
C1282 C1283 1.385 . S
C1282 C1284 1.478 1_655 S
C1283 H1277 0.930 . S
C1283 C1279 1.400 . S
C1283 C1282 1.385 . S
C1284 C1282 1.478 1_455 S
C1284 C1286 1.381 . S
C1284 C1290 1.383 1_455 S
C1285 C1281 1.495 1_455 S
C1285 H1291 0.959 . S
C1285 H1292 0.961 . S
C1285 H1293 0.960 . S
C1286 C1284 1.381 . S
C1286 C1287 1.394 . S
C1286 H1294 0.930 . S
C1287 C1286 1.394 . S
C1287 C1288 1.383 . S
C1287 H1295 0.929 . S
C1288 C1287 1.383 . S
C1288 C1289 1.377 1_455 S
C1289 H1273 0.930 . S
C1289 C1288 1.377 1_655 S
C1289 C1290 1.379 . S
C1290 H1274 0.931 . S
C1290 C1284 1.383 1_655 S
C1290 C1289 1.379 . S
H1291 C1285 0.959 . S
H1292 C1285 0.961 . S
H1293 C1285 0.960 . S
H1294 C1286 0.930 . S
H1295 C1287 0.929 . S
H1296 C1304 0.929 . S
H1297 C1306 0.930 . S
H1298 C1308 0.930 . S
H1299 C1311 0.929 . S
H1300 C1314 0.930 . S
H1301 C1316 0.960 . S
H1302 C1316 0.960 . S
H1303 C1316 0.960 . S
C1304 H1296 0.929 . S
C1304 C1305 1.377 . S
C1304 C1306 1.384 . S
C1305 C1304 1.377 . S
C1305 C1311 1.390 . S
C1306 H1297 0.930 . S
C1306 C1304 1.384 . S
C1306 C1307 1.372 . S
C1307 C1306 1.372 . S
C1307 C1308 1.400 . S
C1307 C1312 1.490 . S
C1308 H1298 0.930 . S
C1308 C1307 1.400 . S
C1308 C1311 1.386 . S
H1309 C1325 0.930 . S
H1310 C1326 0.931 . S
C1311 H1299 0.929 . S
C1311 C1305 1.390 . S
C1311 C1308 1.386 . S
C1312 C1307 1.490 . S
C1312 C1314 1.395 . S
C1312 C1315 1.403 . S
H1313 C1319 0.930 . S
C1314 H1300 0.930 . S
C1314 C1312 1.395 . S
C1314 C1317 1.403 . S
C1315 C1312 1.403 . S
C1315 C1316 1.524 . S
C1315 C1319 1.400 . S
C1316 H1301 0.960 . S
C1316 H1302 0.960 . S
C1316 H1303 0.960 . S
C1316 C1315 1.524 . S
C1317 C1314 1.403 . S
C1317 C1318 1.392 . S
C1317 C1321 1.495 . S
C1318 C1317 1.392 . S
C1318 C1319 1.385 . S
C1318 C1320 1.478 . S
C1319 H1313 0.930 . S
C1319 C1315 1.400 . S
C1319 C1318 1.385 . S
C1320 C1318 1.478 . S
C1320 C1322 1.381 . S
C1320 C1326 1.383 . S
C1321 C1317 1.495 . S
C1321 H1327 0.959 . S
C1321 H1328 0.961 . S
C1321 H1329 0.960 . S
C1322 C1320 1.381 . S
C1322 C1323 1.394 . S
C1322 H1330 0.930 . S
C1323 C1322 1.394 . S
C1323 C1324 1.383 . S
C1323 H1331 0.929 . S
C1324 C1323 1.383 . S
C1324 C1325 1.377 . S
C1325 H1309 0.930 . S
C1325 C1324 1.377 . S
C1325 C1326 1.379 . S
C1326 H1310 0.931 . S
C1326 C1320 1.383 . S
C1326 C1325 1.379 . S
H1327 C1321 0.959 . S
H1328 C1321 0.961 . S
H1329 C1321 0.960 . S
H1330 C1322 0.930 . S
H1331 C1323 0.929 . S
H1332 C1340 0.929 . S
H1333 C1342 0.930 . S
H1334 C1344 0.930 . S
H1335 C1347 0.929 . S
H1336 C1350 0.930 . S
H1337 C1352 0.960 . S
H1338 C1352 0.960 . S
H1339 C1352 0.960 . S
C1340 H1332 0.929 . S
C1340 C1341 1.377 . S
C1340 C1342 1.384 . S
C1341 C1340 1.377 . S
C1341 C1347 1.390 . S
C1342 H1333 0.930 . S
C1342 C1340 1.384 . S
C1342 C1343 1.372 . S
C1343 C1342 1.372 . S
C1343 C1344 1.400 . S
C1343 C1348 1.490 . S
C1344 H1334 0.930 . S
C1344 C1343 1.400 . S
C1344 C1347 1.386 . S
H1345 C1361 0.930 . S
H1346 C1362 0.931 . S
C1347 H1335 0.929 . S
C1347 C1341 1.390 . S
C1347 C1344 1.386 . S
C1348 C1343 1.490 . S
C1348 C1350 1.395 . S
C1348 C1351 1.403 . S
H1349 C1355 0.930 . S
C1350 H1336 0.930 . S
C1350 C1348 1.395 . S
C1350 C1353 1.403 . S
C1351 C1348 1.403 . S
C1351 C1352 1.524 . S
C1351 C1355 1.400 . S
C1352 H1337 0.960 . S
C1352 H1338 0.960 . S
C1352 H1339 0.960 . S
C1352 C1351 1.524 . S
C1353 C1350 1.403 . S
C1353 C1354 1.392 . S
C1353 C1357 1.495 . S
C1354 C1353 1.392 . S
C1354 C1355 1.385 . S
C1354 C1356 1.478 . S
C1355 H1349 0.930 . S
C1355 C1351 1.400 . S
C1355 C1354 1.385 . S
C1356 C1354 1.478 . S
C1356 C1358 1.381 1_545 S
C1356 C1362 1.383 . S
C1357 C1353 1.495 . S
C1357 H1363 0.959 . S
C1357 H1364 0.961 . S
C1357 H1365 0.960 . S
C1358 C1356 1.381 1_565 S
C1358 C1359 1.394 . S
C1358 H1366 0.930 . S
C1359 C1358 1.394 . S
C1359 C1360 1.383 . S
C1359 H1367 0.929 . S
C1360 C1359 1.383 . S
C1360 C1361 1.377 1_565 S
C1361 H1345 0.930 . S
C1361 C1360 1.377 1_545 S
C1361 C1362 1.379 . S
C1362 H1346 0.931 . S
C1362 C1356 1.383 . S
C1362 C1361 1.379 . S
H1363 C1357 0.959 . S
H1364 C1357 0.961 . S
H1365 C1357 0.960 . S
H1366 C1358 0.930 . S
H1367 C1359 0.929 . S
H1368 C1376 0.929 1_545 S
H1369 C1378 0.930 . S
H1370 C1380 0.930 . S
H1371 C1383 0.929 . S
H1372 C1386 0.930 . S
H1373 C1388 0.960 . S
H1374 C1388 0.960 . S
H1375 C1388 0.960 . S
C1376 H1368 0.929 1_565 S
C1376 C1377 1.380 . S
C1376 C1378 1.381 1_565 S
C1377 C1376 1.380 . S
C1377 C1383 1.390 . S
C1378 H1369 0.930 . S
C1378 C1376 1.381 1_545 S
C1378 C1379 1.372 . S
C1379 C1378 1.372 . S
C1379 C1380 1.400 1_545 S
C1379 C1384 1.490 . S
C1380 H1370 0.930 . S
C1380 C1379 1.400 1_565 S
C1380 C1383 1.386 . S
H1381 C1397 0.930 . S
H1382 C1398 0.931 . S
C1383 H1371 0.929 . S
C1383 C1377 1.390 . S
C1383 C1380 1.386 . S
C1384 C1379 1.490 . S
C1384 C1386 1.395 . S
C1384 C1387 1.403 . S
H1385 C1391 0.930 . S
C1386 H1372 0.930 . S
C1386 C1384 1.395 . S
C1386 C1389 1.403 . S
C1387 C1384 1.403 . S
C1387 C1388 1.524 . S
C1387 C1391 1.400 . S
C1388 H1373 0.960 . S
C1388 H1374 0.960 . S
C1388 H1375 0.960 . S
C1388 C1387 1.524 . S
C1389 C1386 1.403 . S
C1389 C1390 1.392 . S
C1389 C1393 1.495 . S
C1390 C1389 1.392 . S
C1390 C1391 1.385 . S
C1390 C1392 1.478 . S
C1391 H1385 0.930 . S
C1391 C1387 1.400 . S
C1391 C1390 1.385 . S
C1392 C1390 1.478 . S
C1392 C1394 1.381 . S
C1392 C1398 1.383 . S
C1393 C1389 1.495 . S
C1393 H1399 0.959 . S
C1393 H1400 0.961 . S
C1393 H1401 0.960 . S
C1394 C1392 1.381 . S
C1394 C1395 1.394 . S
C1394 H1402 0.930 . S
C1395 C1394 1.394 . S
C1395 C1396 1.383 . S
C1395 H1403 0.929 . S
C1396 C1395 1.383 . S
C1396 C1397 1.377 . S
C1397 H1381 0.930 . S
C1397 C1396 1.377 . S
C1397 C1398 1.379 . S
C1398 H1382 0.931 . S
C1398 C1392 1.383 . S
C1398 C1397 1.379 . S
H1399 C1393 0.959 . S
H1400 C1393 0.961 . S
H1401 C1393 0.960 . S
H1402 C1394 0.930 . S
H1403 C1395 0.929 . S
H1404 C1412 0.929 . S
H1405 C1414 0.930 . S
H1406 C1416 0.930 . S
H1407 C1419 0.929 . S
H1408 C1422 0.930 . S
H1409 C1424 0.960 . S
H1410 C1424 0.960 . S
H1411 C1424 0.960 . S
C1412 H1404 0.929 . S
C1412 C1413 1.377 . S
C1412 C1414 1.384 . S
C1413 C1412 1.377 . S
C1413 C1419 1.390 . S
C1414 H1405 0.930 . S
C1414 C1412 1.384 . S
C1414 C1415 1.372 . S
C1415 C1414 1.372 . S
C1415 C1416 1.400 . S
C1415 C1420 1.490 . S
C1416 H1406 0.930 . S
C1416 C1415 1.400 . S
C1416 C1419 1.386 . S
H1417 C1433 0.930 1_655 S
H1418 C1434 0.931 . S
C1419 H1407 0.929 . S
C1419 C1413 1.390 . S
C1419 C1416 1.386 . S
C1420 C1415 1.490 . S
C1420 C1422 1.395 . S
C1420 C1423 1.403 . S
H1421 C1427 0.930 . S
C1422 H1408 0.930 . S
C1422 C1420 1.395 . S
C1422 C1425 1.402 1_655 S
C1423 C1420 1.403 . S
C1423 C1424 1.524 . S
C1423 C1427 1.400 . S
C1424 H1409 0.960 . S
C1424 H1410 0.960 . S
C1424 H1411 0.960 . S
C1424 C1423 1.524 . S
C1425 C1422 1.402 1_455 S
C1425 C1426 1.370 1_455 S
C1425 C1429 1.519 . S
C1426 C1425 1.370 1_655 S
C1426 C1427 1.385 . S
C1426 C1428 1.478 1_655 S
C1427 H1421 0.930 . S
C1427 C1423 1.400 . S
C1427 C1426 1.385 . S
C1428 C1426 1.478 1_455 S
C1428 C1430 1.381 . S
C1428 C1434 1.383 1_455 S
C1429 C1425 1.519 . S
C1429 H1435 0.959 . S
C1429 H1436 0.961 . S
C1429 H1437 0.960 . S
C1430 C1428 1.381 . S
C1430 C1431 1.394 . S
C1430 H1438 0.930 . S
C1431 C1430 1.394 . S
C1431 C1432 1.383 . S
C1431 H1439 0.929 . S
C1432 C1431 1.383 . S
C1432 C1433 1.377 . S
C1433 H1417 0.930 1_455 S
C1433 C1432 1.377 . S
C1433 C1434 1.379 1_455 S
C1434 H1418 0.931 . S
C1434 C1428 1.383 1_655 S
C1434 C1433 1.379 1_655 S
H1435 C1429 0.959 . S
H1436 C1429 0.961 . S
H1437 C1429 0.960 . S
H1438 C1430 0.930 . S
H1439 C1431 0.929 . S
H1440 C1448 0.929 . S
H1441 C1450 0.930 . S
H1442 C1452 0.930 . S
H1443 C1455 0.929 . S
H1444 C1458 0.930 . S
H1445 C1460 0.960 . S
H1446 C1460 0.960 . S
H1447 C1460 0.960 . S
C1448 H1440 0.929 . S
C1448 C1449 1.377 . S
C1448 C1450 1.384 . S
C1449 C1448 1.377 . S
C1449 C1455 1.390 . S
C1450 H1441 0.930 . S
C1450 C1448 1.384 . S
C1450 C1451 1.372 . S
C1451 C1450 1.372 . S
C1451 C1452 1.400 . S
C1451 C1456 1.490 . S
C1452 H1442 0.930 . S
C1452 C1451 1.400 . S
C1452 C1455 1.386 . S
H1453 C1469 0.930 . S
H1454 C1470 0.931 . S
C1455 H1443 0.929 . S
C1455 C1449 1.390 . S
C1455 C1452 1.386 . S
C1456 C1451 1.490 . S
C1456 C1458 1.395 . S
C1456 C1459 1.403 . S
H1457 C1463 0.930 . S
C1458 H1444 0.930 . S
C1458 C1456 1.395 . S
C1458 C1461 1.403 . S
C1459 C1456 1.403 . S
C1459 C1460 1.524 . S
C1459 C1463 1.400 . S
C1460 H1445 0.960 . S
C1460 H1446 0.960 . S
C1460 H1447 0.960 . S
C1460 C1459 1.524 . S
C1461 C1458 1.403 . S
C1461 C1462 1.392 . S
C1461 C1465 1.495 . S
C1462 C1461 1.392 . S
C1462 C1463 1.385 . S
C1462 C1464 1.478 . S
C1463 H1457 0.930 . S
C1463 C1459 1.400 . S
C1463 C1462 1.385 . S
C1464 C1462 1.478 . S
C1464 C1466 1.381 . S
C1464 C1470 1.383 . S
C1465 C1461 1.495 . S
C1465 H1471 0.959 . S
C1465 H1472 0.961 . S
C1465 H1473 0.960 . S
C1466 C1464 1.381 . S
C1466 C1467 1.394 . S
C1466 H1474 0.930 . S
C1467 C1466 1.394 . S
C1467 C1468 1.383 . S
C1467 H1475 0.929 . S
C1468 C1467 1.383 . S
C1468 C1469 1.377 . S
C1469 H1453 0.930 . S
C1469 C1468 1.377 . S
C1469 C1470 1.379 . S
C1470 H1454 0.931 . S
C1470 C1464 1.383 . S
C1470 C1469 1.379 . S
H1471 C1465 0.959 . S
H1472 C1465 0.961 . S
H1473 C1465 0.960 . S
H1474 C1466 0.930 . S
H1475 C1467 0.929 . S
H1476 C1484 0.929 . S
H1477 C1486 0.915 1_455 S
H1478 C1488 0.930 . S
H1479 C1491 0.929 . S
H1480 C1494 0.930 1_655 S
H1481 C1496 0.960 . S
H1482 C1496 0.960 . S
H1483 C1496 0.960 . S
C1484 H1476 0.929 . S
C1484 C1485 1.377 . S
C1484 C1486 1.403 . S
C1485 C1484 1.377 . S
C1485 C1491 1.390 . S
C1486 H1477 0.915 1_655 S
C1486 C1484 1.403 . S
C1486 C1487 1.368 1_655 S
C1487 C1486 1.368 1_455 S
C1487 C1488 1.400 1_455 S
C1487 C1492 1.490 . S
C1488 H1478 0.930 . S
C1488 C1487 1.400 1_655 S
C1488 C1491 1.386 . S
H1489 C1505 0.930 . S
H1490 C1506 0.931 . S
C1491 H1479 0.929 . S
C1491 C1485 1.390 . S
C1491 C1488 1.386 . S
C1492 C1487 1.490 . S
C1492 C1494 1.395 . S
C1492 C1495 1.403 . S
H1493 C1499 0.930 . S
C1494 H1480 0.930 1_455 S
C1494 C1492 1.395 . S
C1494 C1497 1.403 . S
C1495 C1492 1.403 . S
C1495 C1496 1.524 . S
C1495 C1499 1.400 . S
C1496 H1481 0.960 . S
C1496 H1482 0.960 . S
C1496 H1483 0.960 . S
C1496 C1495 1.524 . S
C1497 C1494 1.403 . S
C1497 C1498 1.392 . S
C1497 C1501 1.495 . S
C1498 C1497 1.392 . S
C1498 C1499 1.385 . S
C1498 C1500 1.478 . S
C1499 H1493 0.930 . S
C1499 C1495 1.400 . S
C1499 C1498 1.385 . S
C1500 C1498 1.478 . S
C1500 C1502 1.381 . S
C1500 C1506 1.383 . S
C1501 C1497 1.495 . S
C1501 H1507 0.959 1_455 S
C1501 H1508 0.961 1_455 S
C1501 H1509 0.960 . S
C1502 C1500 1.381 . S
C1502 C1503 1.394 . S
C1502 H1510 0.930 . S
C1503 C1502 1.394 . S
C1503 C1504 1.383 . S
C1503 H1511 0.929 . S
C1504 C1503 1.383 . S
C1504 C1505 1.377 . S
C1505 H1489 0.930 . S
C1505 C1504 1.377 . S
C1505 C1506 1.379 . S
C1506 H1490 0.931 . S
C1506 C1500 1.383 . S
C1506 C1505 1.379 . S
H1507 C1501 0.959 1_655 S
H1508 C1501 0.961 1_655 S
H1509 C1501 0.960 . S
H1510 C1502 0.930 . S
H1511 C1503 0.929 . S
H1512 C1520 0.929 . S
H1513 C1522 0.930 . S
H1514 C1524 0.930 . S
H1515 C1527 0.929 . S
H1516 C1530 0.930 . S
H1517 C1532 0.960 . S
H1518 C1532 0.960 . S
H1519 C1532 0.960 . S
C1520 H1512 0.929 . S
C1520 C1521 1.377 . S
C1520 C1522 1.384 . S
C1521 C1520 1.377 . S
C1521 C1527 1.390 . S
C1522 H1513 0.930 . S
C1522 C1520 1.384 . S
C1522 C1523 1.372 . S
C1523 C1522 1.372 . S
C1523 C1524 1.400 . S
C1523 C1528 1.490 . S
C1524 H1514 0.930 . S
C1524 C1523 1.400 . S
C1524 C1527 1.386 . S
H1525 C1541 0.930 . S
H1526 C1542 0.931 . S
C1527 H1515 0.929 . S
C1527 C1521 1.390 . S
C1527 C1524 1.386 . S
C1528 C1523 1.490 . S
C1528 C1530 1.395 . S
C1528 C1531 1.403 . S
H1529 C1535 0.930 . S
C1530 H1516 0.930 . S
C1530 C1528 1.395 . S
C1530 C1533 1.403 . S
C1531 C1528 1.403 . S
C1531 C1532 1.524 . S
C1531 C1535 1.400 . S
C1532 H1517 0.960 . S
C1532 H1518 0.960 . S
C1532 H1519 0.960 . S
C1532 C1531 1.524 . S
C1533 C1530 1.403 . S
C1533 C1534 1.392 . S
C1533 C1537 1.495 . S
C1534 C1533 1.392 . S
C1534 C1535 1.385 . S
C1534 C1536 1.478 . S
C1535 H1529 0.930 . S
C1535 C1531 1.400 . S
C1535 C1534 1.385 . S
C1536 C1534 1.478 . S
C1536 C1538 1.381 . S
C1536 C1542 1.383 . S
C1537 C1533 1.495 . S
C1537 H1543 0.959 . S
C1537 H1544 0.961 . S
C1537 H1545 0.960 . S
C1538 C1536 1.381 . S
C1538 C1539 1.394 . S
C1538 H1546 0.930 . S
C1539 C1538 1.394 . S
C1539 C1540 1.383 . S
C1539 H1547 0.929 . S
C1540 C1539 1.383 . S
C1540 C1541 1.377 . S
C1541 H1525 0.930 . S
C1541 C1540 1.377 . S
C1541 C1542 1.379 . S
C1542 H1526 0.931 . S
C1542 C1536 1.383 . S
C1542 C1541 1.379 . S
H1543 C1537 0.959 . S
H1544 C1537 0.961 . S
H1545 C1537 0.960 . S
H1546 C1538 0.930 . S
H1547 C1539 0.929 . S
H1548 C1556 0.929 . S
H1549 C1558 0.930 . S
H1550 C1560 0.930 . S
H1551 C1563 0.929 . S
H1552 C1566 0.930 . S
H1553 C1568 0.960 . S
H1554 C1568 0.960 . S
H1555 C1568 0.960 1_545 S
C1556 H1548 0.929 . S
C1556 C1557 1.377 1_565 S
C1556 C1558 1.384 . S
C1557 C1556 1.377 1_545 S
C1557 C1563 1.390 . S
C1558 H1549 0.930 . S
C1558 C1556 1.384 . S
C1558 C1559 1.372 . S
C1559 C1558 1.372 . S
C1559 C1560 1.400 1_565 S
C1559 C1564 1.490 . S
C1560 H1550 0.930 . S
C1560 C1559 1.400 1_545 S
C1560 C1563 1.386 . S
H1561 C1577 0.930 . S
H1562 C1578 0.931 . S
C1563 H1551 0.929 . S
C1563 C1557 1.390 . S
C1563 C1560 1.386 . S
C1564 C1559 1.490 . S
C1564 C1566 1.395 . S
C1564 C1567 1.403 . S
H1565 C1571 0.930 . S
C1566 H1552 0.930 . S
C1566 C1564 1.395 . S
C1566 C1569 1.403 . S
C1567 C1564 1.403 . S
C1567 C1568 1.524 . S
C1567 C1571 1.400 . S
C1568 H1553 0.960 . S
C1568 H1554 0.960 . S
C1568 H1555 0.960 1_565 S
C1568 C1567 1.524 . S
C1569 C1566 1.403 . S
C1569 C1570 1.392 . S
C1569 C1573 1.495 . S
C1570 C1569 1.392 . S
C1570 C1571 1.385 . S
C1570 C1572 1.478 . S
C1571 H1565 0.930 . S
C1571 C1567 1.400 . S
C1571 C1570 1.385 . S
C1572 C1570 1.478 . S
C1572 C1574 1.381 . S
C1572 C1578 1.383 . S
C1573 C1569 1.495 . S
C1573 H1579 0.959 . S
C1573 H1580 0.961 . S
C1573 H1581 0.960 . S
C1574 C1572 1.381 . S
C1574 C1575 1.394 . S
C1574 H1582 0.930 . S
C1575 C1574 1.394 . S
C1575 C1576 1.383 . S
C1575 H1583 0.929 . S
C1576 C1575 1.383 . S
C1576 C1577 1.377 . S
C1577 H1561 0.930 . S
C1577 C1576 1.377 . S
C1577 C1578 1.379 . S
C1578 H1562 0.931 . S
C1578 C1572 1.383 . S
C1578 C1577 1.379 . S
H1579 C1573 0.959 . S
H1580 C1573 0.961 . S
H1581 C1573 0.960 . S
H1582 C1574 0.930 . S
H1583 C1575 0.929 . S
H1584 C1592 0.929 . S
H1585 C1594 0.930 . S
H1586 C1596 0.930 . S
H1587 C1599 0.929 . S
H1588 C1602 0.930 . S
H1589 C1604 0.960 . S
H1590 C1604 0.960 . S
H1591 C1604 0.960 . S
C1592 H1584 0.929 . S
C1592 C1593 1.377 . S
C1592 C1594 1.384 . S
C1593 C1592 1.377 . S
C1593 C1599 1.390 . S
C1594 H1585 0.930 . S
C1594 C1592 1.384 . S
C1594 C1595 1.372 . S
C1595 C1594 1.372 . S
C1595 C1596 1.400 . S
C1595 C1600 1.490 . S
C1596 H1586 0.930 . S
C1596 C1595 1.400 . S
C1596 C1599 1.386 . S
H1597 C1613 0.930 . S
H1598 C1614 0.931 . S
C1599 H1587 0.929 . S
C1599 C1593 1.390 . S
C1599 C1596 1.386 . S
C1600 C1595 1.490 . S
C1600 C1602 1.395 . S
C1600 C1603 1.403 . S
H1601 C1607 0.930 . S
C1602 H1588 0.930 . S
C1602 C1600 1.395 . S
C1602 C1605 1.403 . S
C1603 C1600 1.403 . S
C1603 C1604 1.524 . S
C1603 C1607 1.400 . S
C1604 H1589 0.960 . S
C1604 H1590 0.960 . S
C1604 H1591 0.960 . S
C1604 C1603 1.524 . S
C1605 C1602 1.403 . S
C1605 C1606 1.392 . S
C1605 C1609 1.495 . S
C1606 C1605 1.392 . S
C1606 C1607 1.385 . S
C1606 C1608 1.478 . S
C1607 H1601 0.930 . S
C1607 C1603 1.400 . S
C1607 C1606 1.385 . S
C1608 C1606 1.478 . S
C1608 C1610 1.381 . S
C1608 C1614 1.383 . S
C1609 C1605 1.495 . S
C1609 H1615 0.959 . S
C1609 H1616 0.961 . S
C1609 H1617 0.960 . S
C1610 C1608 1.381 . S
C1610 C1611 1.394 . S
C1610 H1618 0.930 . S
C1611 C1610 1.394 . S
C1611 C1612 1.383 . S
C1611 H1619 0.929 . S
C1612 C1611 1.383 . S
C1612 C1613 1.377 . S
C1613 H1597 0.930 . S
C1613 C1612 1.377 . S
C1613 C1614 1.379 . S
C1614 H1598 0.931 . S
C1614 C1608 1.383 . S
C1614 C1613 1.379 . S
H1615 C1609 0.959 . S
H1616 C1609 0.961 . S
H1617 C1609 0.960 . S
H1618 C1610 0.930 . S
H1619 C1611 0.929 . S
H1620 C1628 0.929 . S
H1621 C1630 0.930 . S
H1622 C1632 0.930 . S
H1623 C1635 0.929 . S
H1624 C1638 0.930 . S
H1625 C1640 0.960 1_565 S
H1626 C1640 0.960 . S
H1627 C1640 0.960 . S
C1628 H1620 0.929 . S
C1628 C1629 1.377 . S
C1628 C1630 1.384 . S
C1629 C1628 1.377 . S
C1629 C1635 1.390 . S
C1630 H1621 0.930 . S
C1630 C1628 1.384 . S
C1630 C1631 1.372 . S
C1631 C1630 1.372 . S
C1631 C1632 1.400 . S
C1631 C1636 1.490 . S
C1632 H1622 0.930 . S
C1632 C1631 1.400 . S
C1632 C1635 1.386 . S
H1633 C1649 0.930 . S
H1634 C1650 0.931 . S
C1635 H1623 0.929 . S
C1635 C1629 1.390 . S
C1635 C1632 1.386 . S
C1636 C1631 1.490 . S
C1636 C1638 1.395 . S
C1636 C1639 1.403 . S
H1637 C1643 0.930 . S
C1638 H1624 0.930 . S
C1638 C1636 1.395 . S
C1638 C1641 1.403 1_545 S
C1639 C1636 1.403 . S
C1639 C1640 1.524 . S
C1639 C1643 1.400 1_545 S
C1640 H1625 0.960 1_545 S
C1640 H1626 0.960 . S
C1640 H1627 0.960 . S
C1640 C1639 1.524 . S
C1641 C1638 1.403 1_565 S
C1641 C1642 1.392 . S
C1641 C1645 1.495 . S
C1642 C1641 1.392 . S
C1642 C1643 1.385 . S
C1642 C1644 1.478 . S
C1643 H1637 0.930 . S
C1643 C1639 1.400 1_565 S
C1643 C1642 1.385 . S
C1644 C1642 1.478 . S
C1644 C1646 1.381 . S
C1644 C1650 1.383 . S
C1645 C1641 1.495 . S
C1645 H1651 0.959 1_565 S
C1645 H1652 0.961 . S
C1645 H1653 0.960 . S
C1646 C1644 1.381 . S
C1646 C1647 1.394 . S
C1646 H1654 0.930 . S
C1647 C1646 1.394 . S
C1647 C1648 1.383 . S
C1647 H1655 0.929 . S
C1648 C1647 1.383 . S
C1648 C1649 1.377 . S
C1649 H1633 0.930 . S
C1649 C1648 1.377 . S
C1649 C1650 1.379 . S
C1650 H1634 0.931 . S
C1650 C1644 1.383 . S
C1650 C1649 1.379 . S
H1651 C1645 0.959 1_545 S
H1652 C1645 0.961 . S
H1653 C1645 0.960 . S
H1654 C1646 0.930 . S
H1655 C1647 0.929 . S
H1656 C1664 0.929 . S
H1657 C1666 0.930 . S
H1658 C1668 0.930 . S
H1659 C1671 0.929 . S
H1660 C1674 0.930 . S
H1661 C1676 0.960 . S
H1662 C1676 0.960 . S
H1663 C1676 0.960 . S
C1664 H1656 0.929 . S
C1664 C1665 1.377 . S
C1664 C1666 1.384 . S
C1665 C1664 1.377 . S
C1665 C1671 1.390 . S
C1666 H1657 0.930 . S
C1666 C1664 1.384 . S
C1666 C1667 1.372 . S
C1667 C1666 1.372 . S
C1667 C1668 1.400 . S
C1667 C1672 1.490 . S
C1668 H1658 0.930 . S
C1668 C1667 1.400 . S
C1668 C1671 1.386 . S
H1669 C1685 0.930 . S
H1670 C1686 0.931 . S
C1671 H1659 0.929 . S
C1671 C1665 1.390 . S
C1671 C1668 1.386 . S
C1672 C1667 1.490 . S
C1672 C1674 1.395 . S
C1672 C1675 1.403 . S
H1673 C1679 0.930 . S
C1674 H1660 0.930 . S
C1674 C1672 1.395 . S
C1674 C1677 1.403 1_655 S
C1675 C1672 1.403 . S
C1675 C1676 1.524 . S
C1675 C1679 1.400 1_655 S
C1676 H1661 0.960 . S
C1676 H1662 0.960 . S
C1676 H1663 0.960 . S
C1676 C1675 1.524 . S
C1677 C1674 1.403 1_455 S
C1677 C1678 1.392 . S
C1677 C1681 1.495 . S
C1678 C1677 1.392 . S
C1678 C1679 1.385 . S
C1678 C1680 1.478 . S
C1679 H1673 0.930 . S
C1679 C1675 1.400 1_455 S
C1679 C1678 1.385 . S
C1680 C1678 1.478 . S
C1680 C1682 1.381 . S
C1680 C1686 1.383 . S
C1681 C1677 1.495 . S
C1681 H1687 0.959 . S
C1681 H1688 0.961 . S
C1681 H1689 0.960 . S
C1682 C1680 1.381 . S
C1682 C1683 1.394 . S
C1682 H1690 0.930 . S
C1683 C1682 1.394 . S
C1683 C1684 1.383 . S
C1683 H1691 0.929 . S
C1684 C1683 1.383 . S
C1684 C1685 1.377 . S
C1685 H1669 0.930 . S
C1685 C1684 1.377 . S
C1685 C1686 1.379 . S
C1686 H1670 0.931 . S
C1686 C1680 1.383 . S
C1686 C1685 1.379 . S
H1687 C1681 0.959 . S
H1688 C1681 0.961 . S
H1689 C1681 0.960 . S
H1690 C1682 0.930 . S
H1691 C1683 0.929 . S
H1692 C1700 0.929 . S
H1693 C1702 0.930 . S
H1694 C1704 0.930 . S
H1695 C1707 0.929 . S
H1696 C1710 0.930 . S
H1697 C1712 0.960 . S
H1698 C1712 0.960 . S
H1699 C1712 0.960 . S
C1700 H1692 0.929 . S
C1700 C1701 1.377 . S
C1700 C1702 1.384 . S
C1701 C1700 1.377 . S
C1701 C1707 1.390 . S
C1702 H1693 0.930 . S
C1702 C1700 1.384 . S
C1702 C1703 1.372 . S
C1703 C1702 1.372 . S
C1703 C1704 1.400 . S
C1703 C1708 1.490 . S
C1704 H1694 0.930 . S
C1704 C1703 1.400 . S
C1704 C1707 1.386 . S
H1705 C1721 0.930 . S
H1706 C1722 0.931 . S
C1707 H1695 0.929 . S
C1707 C1701 1.390 . S
C1707 C1704 1.386 . S
C1708 C1703 1.490 . S
C1708 C1710 1.395 . S
C1708 C1711 1.403 . S
H1709 C1715 0.930 . S
C1710 H1696 0.930 . S
C1710 C1708 1.395 . S
C1710 C1713 1.403 . S
C1711 C1708 1.403 . S
C1711 C1712 1.524 . S
C1711 C1715 1.400 . S
C1712 H1697 0.960 . S
C1712 H1698 0.960 . S
C1712 H1699 0.960 . S
C1712 C1711 1.524 . S
C1713 C1710 1.403 . S
C1713 C1714 1.392 . S
C1713 C1717 1.495 . S
C1714 C1713 1.392 . S
C1714 C1715 1.385 . S
C1714 C1716 1.478 . S
C1715 H1709 0.930 . S
C1715 C1711 1.400 . S
C1715 C1714 1.385 . S
C1716 C1714 1.478 . S
C1716 C1718 1.381 . S
C1716 C1722 1.383 . S
C1717 C1713 1.495 . S
C1717 H1723 0.959 . S
C1717 H1724 0.961 . S
C1717 H1725 0.960 . S
C1718 C1716 1.381 . S
C1718 C1719 1.394 . S
C1718 H1726 0.930 . S
C1719 C1718 1.394 . S
C1719 C1720 1.383 . S
C1719 H1727 0.929 . S
C1720 C1719 1.383 . S
C1720 C1721 1.377 . S
C1721 H1705 0.930 . S
C1721 C1720 1.377 . S
C1721 C1722 1.379 . S
C1722 H1706 0.931 . S
C1722 C1716 1.383 . S
C1722 C1721 1.379 . S
H1723 C1717 0.959 . S
H1724 C1717 0.961 . S
H1725 C1717 0.960 . S
H1726 C1718 0.930 . S
H1727 C1719 0.929 . S
H1728 C1736 0.929 . S
H1729 C1738 0.930 . S
H1730 C1740 0.930 . S
H1731 C1743 0.929 . S
H1732 C1746 0.930 . S
H1733 C1748 0.960 . S
H1734 C1748 0.960 . S
H1735 C1748 0.960 . S
C1736 H1728 0.929 . S
C1736 C1737 1.377 . S
C1736 C1738 1.384 . S
C1737 C1736 1.377 . S
C1737 C1743 1.390 . S
C1738 H1729 0.930 . S
C1738 C1736 1.384 . S
C1738 C1739 1.372 . S
C1739 C1738 1.372 . S
C1739 C1740 1.400 . S
C1739 C1744 1.490 . S
C1740 H1730 0.930 . S
C1740 C1739 1.400 . S
C1740 C1743 1.386 . S
H1741 C1757 0.930 . S
H1742 C1758 0.931 . S
C1743 H1731 0.929 . S
C1743 C1737 1.390 . S
C1743 C1740 1.386 . S
C1744 C1739 1.490 . S
C1744 C1746 1.395 . S
C1744 C1747 1.403 . S
H1745 C1751 0.930 . S
C1746 H1732 0.930 . S
C1746 C1744 1.395 . S
C1746 C1749 1.403 1_565 S
C1747 C1744 1.403 . S
C1747 C1748 1.524 . S
C1747 C1751 1.400 1_565 S
C1748 H1733 0.960 . S
C1748 H1734 0.960 . S
C1748 H1735 0.960 . S
C1748 C1747 1.524 . S
C1749 C1746 1.403 1_545 S
C1749 C1750 1.392 . S
C1749 C1753 1.495 . S
C1750 C1749 1.392 . S
C1750 C1751 1.385 . S
C1750 C1752 1.478 . S
C1751 H1745 0.930 . S
C1751 C1747 1.400 1_545 S
C1751 C1750 1.385 . S
C1752 C1750 1.478 . S
C1752 C1754 1.381 . S
C1752 C1758 1.383 . S
C1753 C1749 1.495 . S
C1753 H1759 0.959 . S
C1753 H1760 0.961 . S
C1753 H1761 0.960 . S
C1754 C1752 1.381 . S
C1754 C1755 1.394 . S
C1754 H1762 0.930 . S
C1755 C1754 1.394 . S
C1755 C1756 1.383 . S
C1755 H1763 0.929 . S
C1756 C1755 1.383 . S
C1756 C1757 1.377 . S
C1757 H1741 0.930 . S
C1757 C1756 1.377 . S
C1757 C1758 1.379 . S
C1758 H1742 0.931 . S
C1758 C1752 1.383 . S
C1758 C1757 1.379 . S
H1759 C1753 0.959 . S
H1760 C1753 0.961 . S
H1761 C1753 0.960 . S
H1762 C1754 0.930 . S
H1763 C1755 0.929 . S
H1764 C1772 0.929 . S
H1765 C1774 0.930 . S
H1766 C1776 0.930 . S
H1767 C1779 0.929 . S
H1768 C1782 0.930 . S
H1769 C1784 0.960 1_455 S
H1770 C1784 0.960 . S
H1771 C1784 0.960 . S
C1772 H1764 0.929 . S
C1772 C1773 1.377 . S
C1772 C1774 1.384 . S
C1773 C1772 1.377 . S
C1773 C1779 1.390 . S
C1774 H1765 0.930 . S
C1774 C1772 1.384 . S
C1774 C1775 1.372 . S
C1775 C1774 1.372 . S
C1775 C1776 1.400 . S
C1775 C1780 1.490 . S
C1776 H1766 0.930 . S
C1776 C1775 1.400 . S
C1776 C1779 1.386 . S
H1777 C1793 0.930 . S
H1778 C1794 0.931 . S
C1779 H1767 0.929 . S
C1779 C1773 1.390 . S
C1779 C1776 1.386 . S
C1780 C1775 1.490 . S
C1780 C1782 1.395 . S
C1780 C1783 1.403 . S
H1781 C1787 0.930 . S
C1782 H1768 0.930 . S
C1782 C1780 1.395 . S
C1782 C1785 1.403 1_655 S
C1783 C1780 1.403 . S
C1783 C1784 1.524 . S
C1783 C1787 1.400 1_655 S
C1784 H1769 0.960 1_655 S
C1784 H1770 0.960 . S
C1784 H1771 0.960 . S
C1784 C1783 1.524 . S
C1785 C1782 1.403 1_455 S
C1785 C1786 1.392 . S
C1785 C1789 1.495 . S
C1786 C1785 1.392 . S
C1786 C1787 1.385 . S
C1786 C1788 1.478 . S
C1787 H1781 0.930 . S
C1787 C1783 1.400 1_455 S
C1787 C1786 1.385 . S
C1788 C1786 1.478 . S
C1788 C1790 1.381 . S
C1788 C1794 1.383 . S
C1789 C1785 1.495 . S
C1789 H1795 0.959 1_455 S
C1789 H1796 0.961 . S
C1789 H1797 0.960 . S
C1790 C1788 1.381 . S
C1790 C1791 1.394 . S
C1790 H1798 0.930 . S
C1791 C1790 1.394 . S
C1791 C1792 1.383 . S
C1791 H1799 0.929 . S
C1792 C1791 1.383 . S
C1792 C1793 1.377 . S
C1793 H1777 0.930 . S
C1793 C1792 1.377 . S
C1793 C1794 1.379 . S
C1794 H1778 0.931 . S
C1794 C1788 1.383 . S
C1794 C1793 1.379 . S
H1795 C1789 0.959 1_655 S
H1796 C1789 0.961 . S
H1797 C1789 0.960 . S
H1798 C1790 0.930 . S
H1799 C1791 0.929 . S
H1800 C1808 0.921 1_655 S
H1801 C1810 0.930 . S
H1802 C1812 0.930 . S
H1803 C1815 0.929 . S
H1804 C1818 0.930 . S
H1805 C1820 0.960 . S
H1806 C1820 0.960 . S
H1807 C1820 0.960 . S
C1808 H1800 0.921 1_455 S
C1808 C1809 1.374 . S
C1808 C1810 1.395 . S
C1809 C1808 1.374 . S
C1809 C1815 1.390 . S
C1810 H1801 0.930 . S
C1810 C1808 1.395 . S
C1810 C1811 1.372 . S
C1811 C1810 1.372 . S
C1811 C1812 1.400 . S
C1811 C1816 1.490 . S
C1812 H1802 0.930 . S
C1812 C1811 1.400 . S
C1812 C1815 1.386 . S
H1813 C1829 0.930 . S
H1814 C1830 0.931 . S
C1815 H1803 0.929 . S
C1815 C1809 1.390 . S
C1815 C1812 1.386 . S
C1816 C1811 1.490 . S
C1816 C1818 1.395 . S
C1816 C1819 1.403 . S
H1817 C1823 0.930 . S
C1818 H1804 0.930 . S
C1818 C1816 1.395 . S
C1818 C1821 1.403 . S
C1819 C1816 1.403 . S
C1819 C1820 1.524 . S
C1819 C1823 1.400 . S
C1820 H1805 0.960 . S
C1820 H1806 0.960 . S
C1820 H1807 0.960 . S
C1820 C1819 1.524 . S
C1821 C1818 1.403 . S
C1821 C1822 1.392 . S
C1821 C1825 1.495 . S
C1822 C1821 1.392 . S
C1822 C1823 1.385 . S
C1822 C1824 1.478 . S
C1823 H1817 0.930 . S
C1823 C1819 1.400 . S
C1823 C1822 1.385 . S
C1824 C1822 1.478 . S
C1824 C1826 1.381 . S
C1824 C1830 1.383 . S
C1825 C1821 1.495 . S
C1825 H1831 0.959 . S
C1825 H1832 0.961 . S
C1825 H1833 0.960 . S
C1826 C1824 1.381 . S
C1826 C1827 1.394 . S
C1826 H1834 0.930 . S
C1827 C1826 1.394 . S
C1827 C1828 1.383 . S
C1827 H1835 0.929 . S
C1828 C1827 1.383 . S
C1828 C1829 1.377 . S
C1829 H1813 0.930 . S
C1829 C1828 1.377 . S
C1829 C1830 1.379 . S
C1830 H1814 0.931 . S
C1830 C1824 1.383 . S
C1830 C1829 1.379 . S
H1831 C1825 0.959 . S
H1832 C1825 0.961 . S
H1833 C1825 0.960 . S
H1834 C1826 0.930 . S
H1835 C1827 0.929 . S
H1836 C1844 0.929 . S
H1837 C1846 0.930 . S
H1838 C1848 0.930 . S
H1839 C1851 0.929 . S
H1840 C1854 0.930 . S
H1841 C1856 0.960 1_565 S
H1842 C1856 0.960 . S
H1843 C1856 0.960 . S
C1844 H1836 0.929 . S
C1844 C1845 1.377 . S
C1844 C1846 1.384 . S
C1845 C1844 1.377 . S
C1845 C1851 1.390 . S
C1846 H1837 0.930 . S
C1846 C1844 1.384 . S
C1846 C1847 1.372 . S
C1847 C1846 1.372 . S
C1847 C1848 1.400 . S
C1847 C1852 1.490 1_545 S
C1848 H1838 0.930 . S
C1848 C1847 1.400 . S
C1848 C1851 1.386 . S
H1849 C1865 0.930 . S
H1850 C1866 0.931 . S
C1851 H1839 0.929 . S
C1851 C1845 1.390 . S
C1851 C1848 1.386 . S
C1852 C1847 1.490 1_565 S
C1852 C1854 1.395 . S
C1852 C1855 1.403 . S
H1853 C1859 0.930 . S
C1854 H1840 0.930 . S
C1854 C1852 1.395 . S
C1854 C1857 1.403 . S
C1855 C1852 1.403 . S
C1855 C1856 1.524 1_565 S
C1855 C1859 1.400 . S
C1856 H1841 0.960 1_545 S
C1856 H1842 0.960 . S
C1856 H1843 0.960 . S
C1856 C1855 1.524 1_545 S
C1857 C1854 1.403 . S
C1857 C1858 1.392 . S
C1857 C1861 1.495 . S
C1858 C1857 1.392 . S
C1858 C1859 1.385 . S
C1858 C1860 1.478 . S
C1859 H1853 0.930 . S
C1859 C1855 1.400 . S
C1859 C1858 1.385 . S
C1860 C1858 1.478 . S
C1860 C1862 1.381 . S
C1860 C1866 1.383 . S
C1861 C1857 1.495 . S
C1861 H1867 0.959 . S
C1861 H1868 0.961 . S
C1861 H1869 0.960 . S
C1862 C1860 1.381 . S
C1862 C1863 1.394 . S
C1862 H1870 0.930 . S
C1863 C1862 1.394 . S
C1863 C1864 1.383 . S
C1863 H1871 0.929 . S
C1864 C1863 1.383 . S
C1864 C1865 1.377 . S
C1865 H1849 0.930 . S
C1865 C1864 1.377 . S
C1865 C1866 1.379 . S
C1866 H1850 0.931 . S
C1866 C1860 1.383 . S
C1866 C1865 1.379 . S
H1867 C1861 0.959 . S
H1868 C1861 0.961 . S
H1869 C1861 0.960 . S
H1870 C1862 0.930 . S
H1871 C1863 0.929 . S
H1872 C1880 0.929 . S
H1873 C1882 0.930 . S
H1874 C1884 0.930 . S
H1875 C1887 0.929 . S
H1876 C1890 0.930 1_655 S
H1877 C1892 0.960 . S
H1878 C1892 0.960 . S
H1879 C1892 0.960 . S
C1880 H1872 0.929 . S
C1880 C1881 1.377 . S
C1880 C1882 1.384 . S
C1881 C1880 1.377 . S
C1881 C1887 1.390 . S
C1882 H1873 0.930 . S
C1882 C1880 1.384 . S
C1882 C1883 1.372 . S
C1883 C1882 1.372 . S
C1883 C1884 1.400 . S
C1883 C1888 1.490 1_655 S
C1884 H1874 0.930 . S
C1884 C1883 1.400 . S
C1884 C1887 1.386 . S
H1885 C1901 0.930 . S
H1886 C1902 0.931 . S
C1887 H1875 0.929 . S
C1887 C1881 1.390 . S
C1887 C1884 1.386 . S
C1888 C1883 1.490 1_455 S
C1888 C1890 1.395 . S
C1888 C1891 1.403 . S
H1889 C1895 0.930 . S
C1890 H1876 0.930 1_455 S
C1890 C1888 1.395 . S
C1890 C1893 1.403 . S
C1891 C1888 1.403 . S
C1891 C1892 1.524 . S
C1891 C1895 1.400 . S
C1892 H1877 0.960 . S
C1892 H1878 0.960 . S
C1892 H1879 0.960 . S
C1892 C1891 1.524 . S
C1893 C1890 1.403 . S
C1893 C1894 1.392 . S
C1893 C1897 1.495 . S
C1894 C1893 1.392 . S
C1894 C1895 1.385 . S
C1894 C1896 1.478 . S
C1895 H1889 0.930 . S
C1895 C1891 1.400 . S
C1895 C1894 1.385 . S
C1896 C1894 1.478 . S
C1896 C1898 1.381 . S
C1896 C1902 1.383 . S
C1897 C1893 1.495 . S
C1897 H1903 0.959 . S
C1897 H1904 0.961 . S
C1897 H1905 0.960 . S
C1898 C1896 1.381 . S
C1898 C1899 1.394 . S
C1898 H1906 0.930 . S
C1899 C1898 1.394 . S
C1899 C1900 1.383 . S
C1899 H1907 0.929 1_565 S
C1900 C1899 1.383 . S
C1900 C1901 1.377 . S
C1901 H1885 0.930 . S
C1901 C1900 1.377 . S
C1901 C1902 1.379 . S
C1902 H1886 0.931 . S
C1902 C1896 1.383 . S
C1902 C1901 1.379 . S
H1903 C1897 0.959 . S
H1904 C1897 0.961 . S
H1905 C1897 0.960 . S
H1906 C1898 0.930 . S
H1907 C1899 0.929 1_545 S
H1908 C1916 0.929 . S
H1909 C1918 0.930 . S
H1910 C1920 0.930 . S
H1911 C1923 0.929 . S
H1912 C1926 0.930 . S
H1913 C1928 0.960 . S
H1914 C1928 0.960 . S
H1915 C1928 0.960 . S
C1916 H1908 0.929 . S
C1916 C1917 1.377 . S
C1916 C1918 1.384 . S
C1917 C1916 1.377 . S
C1917 C1923 1.390 . S
C1918 H1909 0.930 . S
C1918 C1916 1.384 . S
C1918 C1919 1.372 . S
C1919 C1918 1.372 . S
C1919 C1920 1.400 . S
C1919 C1924 1.490 . S
C1920 H1910 0.930 . S
C1920 C1919 1.400 . S
C1920 C1923 1.386 . S
H1921 C1937 0.930 1_565 S
H1922 C1938 0.931 . S
C1923 H1911 0.929 . S
C1923 C1917 1.390 . S
C1923 C1920 1.386 . S
C1924 C1919 1.490 . S
C1924 C1926 1.395 . S
C1924 C1927 1.403 . S
H1925 C1931 0.930 . S
C1926 H1912 0.930 . S
C1926 C1924 1.395 . S
C1926 C1929 1.403 . S
C1927 C1924 1.403 . S
C1927 C1928 1.524 . S
C1927 C1931 1.400 . S
C1928 H1913 0.960 . S
C1928 H1914 0.960 . S
C1928 H1915 0.960 . S
C1928 C1927 1.524 . S
C1929 C1926 1.403 . S
C1929 C1930 1.392 . S
C1929 C1933 1.495 . S
C1930 C1929 1.392 . S
C1930 C1931 1.385 . S
C1930 C1932 1.478 . S
C1931 H1925 0.930 . S
C1931 C1927 1.400 . S
C1931 C1930 1.385 . S
C1932 C1930 1.478 . S
C1932 C1934 1.381 . S
C1932 C1938 1.383 . S
C1933 C1929 1.495 . S
C1933 H1939 0.959 . S
C1933 H1940 0.961 . S
C1933 H1941 0.960 . S
C1934 C1932 1.381 . S
C1934 C1935 1.394 . S
C1934 H1942 0.930 . S
C1935 C1934 1.394 . S
C1935 C1936 1.383 . S
C1935 H1943 0.929 . S
C1936 C1935 1.383 . S
C1936 C1937 1.377 . S
C1937 H1921 0.930 1_545 S
C1937 C1936 1.377 . S
C1937 C1938 1.379 . S
C1938 H1922 0.931 . S
C1938 C1932 1.383 . S
C1938 C1937 1.379 . S
H1939 C1933 0.959 . S
H1940 C1933 0.961 . S
H1941 C1933 0.960 . S
H1942 C1934 0.930 . S
H1943 C1935 0.929 . S
H1944 C1952 0.929 . S
H1945 C1954 0.930 . S
H1946 C1956 0.930 . S
H1947 C1959 0.929 . S
H1948 C1962 0.930 . S
H1949 C1964 0.960 . S
H1950 C1964 0.960 . S
H1951 C1964 0.960 . S
C1952 H1944 0.929 . S
C1952 C1953 1.377 . S
C1952 C1954 1.384 . S
C1953 C1952 1.377 . S
C1953 C1959 1.390 . S
C1954 H1945 0.930 . S
C1954 C1952 1.384 . S
C1954 C1955 1.372 . S
C1955 C1954 1.372 . S
C1955 C1956 1.400 . S
C1955 C1960 1.490 . S
C1956 H1946 0.930 . S
C1956 C1955 1.400 . S
C1956 C1959 1.386 . S
H1957 C1973 0.930 . S
H1958 C1974 0.931 . S
C1959 H1947 0.929 . S
C1959 C1953 1.390 . S
C1959 C1956 1.386 . S
C1960 C1955 1.490 . S
C1960 C1962 1.395 . S
C1960 C1963 1.403 . S
H1961 C1967 0.930 . S
C1962 H1948 0.930 . S
C1962 C1960 1.395 . S
C1962 C1965 1.403 . S
C1963 C1960 1.403 . S
C1963 C1964 1.524 . S
C1963 C1967 1.400 . S
C1964 H1949 0.960 . S
C1964 H1950 0.960 . S
C1964 H1951 0.960 . S
C1964 C1963 1.524 . S
C1965 C1962 1.403 . S
C1965 C1966 1.392 . S
C1965 C1969 1.495 1_545 S
C1966 C1965 1.392 . S
C1966 C1967 1.385 . S
C1966 C1968 1.478 1_545 S
C1967 H1961 0.930 . S
C1967 C1963 1.400 . S
C1967 C1966 1.385 . S
C1968 C1966 1.478 1_565 S
C1968 C1970 1.381 . S
C1968 C1974 1.383 . S
C1969 C1965 1.495 1_565 S
C1969 H1975 0.959 . S
C1969 H1976 0.961 . S
C1969 H1977 0.960 . S
C1970 C1968 1.381 . S
C1970 C1971 1.394 . S
C1970 H1978 0.930 . S
C1971 C1970 1.394 . S
C1971 C1972 1.383 . S
C1971 H1979 0.929 . S
C1972 C1971 1.383 . S
C1972 C1973 1.377 . S
C1973 H1957 0.930 . S
C1973 C1972 1.377 . S
C1973 C1974 1.379 . S
C1974 H1958 0.931 . S
C1974 C1968 1.383 . S
C1974 C1973 1.379 . S
H1975 C1969 0.959 . S
H1976 C1969 0.961 . S
H1977 C1969 0.960 . S
H1978 C1970 0.930 . S
H1979 C1971 0.929 . S
H1980 C1988 0.929 . S
H1981 C1990 0.930 . S
H1982 C1992 0.930 . S
H1983 C1995 0.929 . S
H1984 C1998 0.930 1_455 S
H1985 C2000 0.960 . S
H1986 C2000 0.960 . S
H1987 C2000 0.960 . S
C1988 H1980 0.929 . S
C1988 C1989 1.377 . S
C1988 C1990 1.384 . S
C1989 C1988 1.377 . S
C1989 C1995 1.390 . S
C1990 H1981 0.930 . S
C1990 C1988 1.384 . S
C1990 C1991 1.372 . S
C1991 C1990 1.372 . S
C1991 C1992 1.400 . S
C1991 C1996 1.490 1_455 S
C1992 H1982 0.930 . S
C1992 C1991 1.400 . S
C1992 C1995 1.386 . S
H1993 C2009 0.930 . S
H1994 C2010 0.931 . S
C1995 H1983 0.929 . S
C1995 C1989 1.390 . S
C1995 C1992 1.386 . S
C1996 C1991 1.490 1_655 S
C1996 C1998 1.395 . S
C1996 C1999 1.403 . S
H1997 C2003 0.930 . S
C1998 H1984 0.930 1_655 S
C1998 C1996 1.395 . S
C1998 C2001 1.403 . S
C1999 C1996 1.403 . S
C1999 C2000 1.524 . S
C1999 C2003 1.400 . S
C2000 H1985 0.960 . S
C2000 H1986 0.960 . S
C2000 H1987 0.960 . S
C2000 C1999 1.524 . S
C2001 C1998 1.403 . S
C2001 C2002 1.392 . S
C2001 C2005 1.495 . S
C2002 C2001 1.392 . S
C2002 C2003 1.385 . S
C2002 C2004 1.478 . S
C2003 H1997 0.930 . S
C2003 C1999 1.400 . S
C2003 C2002 1.385 . S
C2004 C2002 1.478 . S
C2004 C2006 1.381 . S
C2004 C2010 1.383 . S
C2005 C2001 1.495 . S
C2005 H2011 0.959 . S
C2005 H2012 0.961 . S
C2005 H2013 0.960 . S
C2006 C2004 1.381 . S
C2006 C2007 1.394 . S
C2006 H2014 0.930 . S
C2007 C2006 1.394 . S
C2007 C2008 1.383 . S
C2007 H2015 0.929 . S
C2008 C2007 1.383 . S
C2008 C2009 1.377 . S
C2009 H1993 0.930 . S
C2009 C2008 1.377 . S
C2009 C2010 1.379 . S
C2010 H1994 0.931 . S
C2010 C2004 1.383 . S
C2010 C2009 1.379 . S
H2011 C2005 0.959 . S
H2012 C2005 0.961 . S
H2013 C2005 0.960 . S
H2014 C2006 0.930 . S
H2015 C2007 0.929 . S
H2016 C2024 0.929 . S
H2017 C2026 0.930 . S
H2018 C2028 0.930 . S
H2019 C2031 0.929 . S
H2020 C2034 0.930 . S
H2021 C2036 0.960 . S
H2022 C2036 0.960 . S
H2023 C2036 0.960 . S
C2024 H2016 0.929 . S
C2024 C2025 1.377 . S
C2024 C2026 1.384 . S
C2025 C2024 1.377 . S
C2025 C2031 1.390 . S
C2026 H2017 0.930 . S
C2026 C2024 1.384 . S
C2026 C2027 1.372 . S
C2027 C2026 1.372 . S
C2027 C2028 1.400 . S
C2027 C2032 1.490 . S
C2028 H2018 0.930 . S
C2028 C2027 1.400 . S
C2028 C2031 1.386 . S
H2029 C2045 0.930 1_455 S
H2030 C2046 0.931 . S
C2031 H2019 0.929 . S
C2031 C2025 1.390 . S
C2031 C2028 1.386 . S
C2032 C2027 1.490 . S
C2032 C2034 1.395 . S
C2032 C2035 1.403 . S
H2033 C2039 0.930 . S
C2034 H2020 0.930 . S
C2034 C2032 1.395 . S
C2034 C2037 1.403 . S
C2035 C2032 1.403 . S
C2035 C2036 1.524 . S
C2035 C2039 1.400 . S
C2036 H2021 0.960 . S
C2036 H2022 0.960 . S
C2036 H2023 0.960 . S
C2036 C2035 1.524 . S
C2037 C2034 1.403 . S
C2037 C2038 1.392 . S
C2037 C2041 1.495 . S
C2038 C2037 1.392 . S
C2038 C2039 1.385 . S
C2038 C2040 1.478 . S
C2039 H2033 0.930 . S
C2039 C2035 1.400 . S
C2039 C2038 1.385 . S
C2040 C2038 1.478 . S
C2040 C2042 1.381 . S
C2040 C2046 1.383 . S
C2041 C2037 1.495 . S
C2041 H2047 0.959 . S
C2041 H2048 0.961 . S
C2041 H2049 0.960 . S
C2042 C2040 1.381 . S
C2042 C2043 1.394 . S
C2042 H2050 0.930 . S
C2043 C2042 1.394 . S
C2043 C2044 1.383 . S
C2043 H2051 0.929 . S
C2044 C2043 1.383 . S
C2044 C2045 1.377 . S
C2045 H2029 0.930 1_655 S
C2045 C2044 1.377 . S
C2045 C2046 1.379 . S
C2046 H2030 0.931 . S
C2046 C2040 1.383 . S
C2046 C2045 1.379 . S
H2047 C2041 0.959 . S
H2048 C2041 0.961 . S
H2049 C2041 0.960 . S
H2050 C2042 0.930 . S
H2051 C2043 0.929 . S
H2052 C2060 0.929 . S
H2053 C2062 0.930 . S
H2054 C2064 0.930 . S
H2055 C2067 0.929 . S
H2056 C2070 0.930 1_565 S
H2057 C2072 0.960 . S
H2058 C2072 0.960 . S
H2059 C2072 0.960 . S
C2060 H2052 0.929 . S
C2060 C2061 1.377 . S
C2060 C2062 1.384 . S
C2061 C2060 1.377 . S
C2061 C2067 1.390 . S
C2062 H2053 0.930 . S
C2062 C2060 1.384 . S
C2062 C2063 1.372 . S
C2063 C2062 1.372 . S
C2063 C2064 1.400 . S
C2063 C2068 1.490 1_565 S
C2064 H2054 0.930 . S
C2064 C2063 1.400 . S
C2064 C2067 1.386 . S
H2065 C2081 0.930 . S
H2066 C2082 0.931 . S
C2067 H2055 0.929 . S
C2067 C2061 1.390 . S
C2067 C2064 1.386 . S
C2068 C2063 1.490 1_545 S
C2068 C2070 1.395 . S
C2068 C2071 1.403 . S
H2069 C2075 0.930 . S
C2070 H2056 0.930 1_545 S
C2070 C2068 1.395 . S
C2070 C2073 1.403 . S
C2071 C2068 1.403 . S
C2071 C2072 1.524 . S
C2071 C2075 1.400 . S
C2072 H2057 0.960 . S
C2072 H2058 0.960 . S
C2072 H2059 0.960 . S
C2072 C2071 1.524 . S
C2073 C2070 1.403 . S
C2073 C2074 1.392 . S
C2073 C2077 1.495 . S
C2074 C2073 1.392 . S
C2074 C2075 1.385 . S
C2074 C2076 1.478 . S
C2075 H2069 0.930 . S
C2075 C2071 1.400 . S
C2075 C2074 1.385 . S
C2076 C2074 1.478 . S
C2076 C2078 1.381 . S
C2076 C2082 1.383 . S
C2077 C2073 1.495 . S
C2077 H2083 0.959 . S
C2077 H2084 0.961 . S
C2077 H2085 0.960 . S
C2078 C2076 1.381 . S
C2078 C2079 1.394 . S
C2078 H2086 0.930 . S
C2079 C2078 1.394 . S
C2079 C2080 1.383 . S
C2079 H2087 0.929 . S
C2080 C2079 1.383 . S
C2080 C2081 1.377 . S
C2081 H2065 0.930 . S
C2081 C2080 1.377 . S
C2081 C2082 1.379 . S
C2082 H2066 0.931 . S
C2082 C2076 1.383 . S
C2082 C2081 1.379 . S
H2083 C2077 0.959 . S
H2084 C2077 0.961 . S
H2085 C2077 0.960 . S
H2086 C2078 0.930 . S
H2087 C2079 0.929 . S
H2088 C2096 0.929 . S
H2089 C2098 0.930 . S
H2090 C2100 0.930 . S
H2091 C2103 0.929 . S
H2092 C2106 0.930 . S
H2093 C2108 0.969 . S
H2094 C2108 0.963 1_455 S
H2095 C2108 0.919 1_455 S
C2096 H2088 0.929 . S
C2096 C2097 1.377 . S
C2096 C2098 1.384 . S
C2097 C2096 1.377 . S
C2097 C2103 1.390 . S
C2098 H2089 0.930 . S
C2098 C2096 1.384 . S
C2098 C2099 1.372 . S
C2099 C2098 1.372 . S
C2099 C2100 1.400 . S
C2099 C2104 1.490 1_455 S
C2100 H2090 0.930 . S
C2100 C2099 1.400 . S
C2100 C2103 1.386 . S
H2101 C2117 0.930 1_565 S
H2102 C2118 0.931 . S
C2103 H2091 0.929 . S
C2103 C2097 1.390 . S
C2103 C2100 1.386 . S
C2104 C2099 1.490 1_655 S
C2104 C2106 1.395 . S
C2104 C2107 1.403 . S
H2105 C2111 0.930 . S
C2106 H2092 0.930 . S
C2106 C2104 1.395 . S
C2106 C2109 1.403 . S
C2107 C2104 1.403 . S
C2107 C2108 1.556 . S
C2107 C2111 1.400 . S
C2108 H2093 0.969 . S
C2108 H2094 0.963 1_655 S
C2108 H2095 0.919 1_655 S
C2108 C2107 1.556 . S
C2109 C2106 1.403 . S
C2109 C2110 1.392 . S
C2109 C2113 1.495 . S
C2110 C2109 1.392 . S
C2110 C2111 1.385 . S
C2110 C2112 1.478 . S
C2111 H2105 0.930 . S
C2111 C2107 1.400 . S
C2111 C2110 1.385 . S
C2112 C2110 1.478 . S
C2112 C2114 1.381 . S
C2112 C2118 1.383 . S
C2113 C2109 1.495 . S
C2113 H2119 0.959 . S
C2113 H2120 0.961 . S
C2113 H2121 0.960 . S
C2114 C2112 1.381 . S
C2114 C2115 1.394 . S
C2114 H2122 0.930 . S
C2115 C2114 1.394 . S
C2115 C2116 1.383 . S
C2115 H2123 0.929 . S
C2116 C2115 1.383 . S
C2116 C2117 1.377 . S
C2117 H2101 0.930 1_545 S
C2117 C2116 1.377 . S
C2117 C2118 1.379 . S
C2118 H2102 0.931 . S
C2118 C2112 1.383 . S
C2118 C2117 1.379 . S
H2119 C2113 0.959 . S
H2120 C2113 0.961 . S
H2121 C2113 0.960 . S
H2122 C2114 0.930 . S
H2123 C2115 0.929 . S
H2124 C2132 0.929 1_545 S
H2125 C2134 0.930 . S
H2126 C2136 0.930 . S
H2127 C2139 0.929 . S
H2128 C2142 0.930 . S
H2129 C2144 0.960 . S
H2130 C2144 0.960 . S
H2131 C2144 0.960 . S
C2132 H2124 0.929 1_565 S
C2132 C2133 1.377 . S
C2132 C2134 1.384 . S
C2133 C2132 1.377 . S
C2133 C2139 1.390 . S
C2134 H2125 0.930 . S
C2134 C2132 1.384 . S
C2134 C2135 1.372 . S
C2135 C2134 1.372 . S
C2135 C2136 1.400 . S
C2135 C2140 1.490 . S
C2136 H2126 0.930 . S
C2136 C2135 1.400 . S
C2136 C2139 1.386 . S
H2137 C2153 0.930 . S
H2138 C2154 0.931 . S
C2139 H2127 0.929 . S
C2139 C2133 1.390 . S
C2139 C2136 1.386 . S
C2140 C2135 1.490 . S
C2140 C2142 1.395 . S
C2140 C2143 1.403 . S
H2141 C2147 0.930 . S
C2142 H2128 0.930 . S
C2142 C2140 1.395 . S
C2142 C2145 1.403 . S
C2143 C2140 1.403 . S
C2143 C2144 1.524 . S
C2143 C2147 1.400 . S
C2144 H2129 0.960 . S
C2144 H2130 0.960 . S
C2144 H2131 0.960 . S
C2144 C2143 1.524 . S
C2145 C2142 1.403 . S
C2145 C2146 1.392 . S
C2145 C2149 1.495 . S
C2146 C2145 1.392 . S
C2146 C2147 1.385 . S
C2146 C2148 1.478 . S
C2147 H2141 0.930 . S
C2147 C2143 1.400 . S
C2147 C2146 1.385 . S
C2148 C2146 1.478 . S
C2148 C2150 1.381 . S
C2148 C2154 1.383 . S
C2149 C2145 1.495 . S
C2149 H2155 0.959 . S
C2149 H2156 0.961 . S
C2149 H2157 0.960 . S
C2150 C2148 1.381 . S
C2150 C2151 1.394 . S
C2150 H2158 0.930 . S
C2151 C2150 1.394 . S
C2151 C2152 1.383 . S
C2151 H2159 0.929 . S
C2152 C2151 1.383 . S
C2152 C2153 1.377 . S
C2153 H2137 0.930 . S
C2153 C2152 1.377 . S
C2153 C2154 1.379 . S
C2154 H2138 0.931 . S
C2154 C2148 1.383 . S
C2154 C2153 1.379 . S
H2155 C2149 0.959 . S
H2156 C2149 0.961 . S
H2157 C2149 0.960 . S
H2158 C2150 0.930 . S
H2159 C2151 0.929 . S
H2160 C2168 0.929 . S
H2161 C2170 0.930 . S
H2162 C2172 0.930 . S
H2163 C2175 0.929 . S
H2164 C2178 0.930 . S
H2165 C2180 0.947 1_565 S
H2166 C2180 0.997 . S
H2167 C2180 0.958 . S
C2168 H2160 0.929 . S
C2168 C2169 1.377 . S
C2168 C2170 1.384 . S
C2169 C2168 1.377 . S
C2169 C2175 1.390 . S
C2170 H2161 0.930 . S
C2170 C2168 1.384 . S
C2170 C2171 1.372 . S
C2171 C2170 1.372 . S
C2171 C2172 1.400 . S
C2171 C2176 1.490 1_545 S
C2172 H2162 0.930 . S
C2172 C2171 1.400 . S
C2172 C2175 1.386 . S
H2173 C2189 0.930 . S
H2174 C2190 0.931 . S
C2175 H2163 0.929 . S
C2175 C2169 1.390 . S
C2175 C2172 1.386 . S
C2176 C2171 1.490 1_565 S
C2176 C2178 1.395 . S
C2176 C2179 1.403 . S
H2177 C2183 0.930 . S
C2178 H2164 0.930 . S
C2178 C2176 1.395 . S
C2178 C2181 1.403 . S
C2179 C2176 1.403 . S
C2179 C2180 1.504 1_565 S
C2179 C2183 1.400 . S
C2180 H2165 0.947 1_545 S
C2180 H2166 0.997 . S
C2180 H2167 0.958 . S
C2180 C2179 1.504 1_545 S
C2181 C2178 1.403 . S
C2181 C2182 1.392 . S
C2181 C2185 1.495 . S
C2182 C2181 1.392 . S
C2182 C2183 1.385 . S
C2182 C2184 1.478 . S
C2183 H2177 0.930 . S
C2183 C2179 1.400 . S
C2183 C2182 1.385 . S
C2184 C2182 1.478 . S
C2184 C2186 1.381 . S
C2184 C2190 1.383 . S
C2185 C2181 1.495 . S
C2185 H2191 0.959 . S
C2185 H2192 0.961 . S
C2185 H2193 0.960 . S
C2186 C2184 1.381 . S
C2186 C2187 1.394 . S
C2186 H2194 0.930 . S
C2187 C2186 1.394 . S
C2187 C2188 1.383 . S
C2187 H2195 0.929 1_455 S
C2188 C2187 1.383 . S
C2188 C2189 1.377 . S
C2189 H2173 0.930 . S
C2189 C2188 1.377 . S
C2189 C2190 1.379 . S
C2190 H2174 0.931 . S
C2190 C2184 1.383 . S
C2190 C2189 1.379 . S
H2191 C2185 0.959 . S
H2192 C2185 0.961 . S
H2193 C2185 0.960 . S
H2194 C2186 0.930 . S
H2195 C2187 0.929 1_655 S
H2196 C2204 0.929 . S
H2197 C2206 0.930 . S
H2198 C2208 0.930 . S
H2199 C2211 0.929 . S
H2200 C2214 0.930 . S
H2201 C2216 0.960 . S
H2202 C2216 0.960 . S
H2203 C2216 0.960 . S
C2204 H2196 0.929 . S
C2204 C2205 1.377 . S
C2204 C2206 1.384 . S
C2205 C2204 1.377 . S
C2205 C2211 1.390 . S
C2206 H2197 0.930 . S
C2206 C2204 1.384 . S
C2206 C2207 1.372 . S
C2207 C2206 1.372 . S
C2207 C2208 1.400 . S
C2207 C2212 1.490 . S
C2208 H2198 0.930 . S
C2208 C2207 1.400 . S
C2208 C2211 1.386 . S
H2209 C2225 0.930 . S
H2210 C2226 0.931 . S
C2211 H2199 0.929 . S
C2211 C2205 1.390 . S
C2211 C2208 1.386 . S
C2212 C2207 1.490 . S
C2212 C2214 1.395 . S
C2212 C2215 1.403 . S
H2213 C2219 0.930 . S
C2214 H2200 0.930 . S
C2214 C2212 1.395 . S
C2214 C2217 1.403 . S
C2215 C2212 1.403 . S
C2215 C2216 1.524 . S
C2215 C2219 1.400 . S
C2216 H2201 0.960 . S
C2216 H2202 0.960 . S
C2216 H2203 0.960 . S
C2216 C2215 1.524 . S
C2217 C2214 1.403 . S
C2217 C2218 1.392 . S
C2217 C2221 1.495 . S
C2218 C2217 1.392 . S
C2218 C2219 1.385 . S
C2218 C2220 1.478 1_455 S
C2219 H2213 0.930 . S
C2219 C2215 1.400 . S
C2219 C2218 1.385 . S
C2220 C2218 1.478 1_655 S
C2220 C2222 1.381 . S
C2220 C2226 1.383 . S
C2221 C2217 1.495 . S
C2221 H2227 0.959 . S
C2221 H2228 0.961 1_455 S
C2221 H2229 0.960 . S
C2222 C2220 1.381 . S
C2222 C2223 1.394 . S
C2222 H2230 0.930 . S
C2223 C2222 1.394 . S
C2223 C2224 1.383 . S
C2223 H2231 0.929 . S
C2224 C2223 1.383 . S
C2224 C2225 1.377 . S
C2225 H2209 0.930 . S
C2225 C2224 1.377 . S
C2225 C2226 1.379 . S
C2226 H2210 0.931 . S
C2226 C2220 1.383 . S
C2226 C2225 1.379 . S
H2227 C2221 0.959 . S
H2228 C2221 0.961 1_655 S
H2229 C2221 0.960 . S
H2230 C2222 0.930 . S
H2231 C2223 0.929 . S
H2232 C2240 0.929 . S
H2233 C2242 0.930 . S
H2234 C2244 0.930 . S
H2235 C2247 0.929 . S
H2236 C2250 0.930 . S
H2237 C2252 0.960 . S
H2238 C2252 0.960 . S
H2239 C2252 0.960 . S
C2240 H2232 0.929 . S
C2240 C2241 1.377 . S
C2240 C2242 1.384 . S
C2241 C2240 1.377 . S
C2241 C2247 1.390 . S
C2242 H2233 0.930 . S
C2242 C2240 1.384 . S
C2242 C2243 1.372 . S
C2243 C2242 1.372 . S
C2243 C2244 1.400 . S
C2243 C2248 1.490 . S
C2244 H2234 0.930 . S
C2244 C2243 1.400 . S
C2244 C2247 1.386 . S
H2245 C2261 0.930 . S
H2246 C2262 0.931 . S
C2247 H2235 0.929 . S
C2247 C2241 1.390 . S
C2247 C2244 1.386 . S
C2248 C2243 1.490 . S
C2248 C2250 1.395 . S
C2248 C2251 1.403 . S
H2249 C2255 0.930 . S
C2250 H2236 0.930 . S
C2250 C2248 1.395 . S
C2250 C2253 1.403 . S
C2251 C2248 1.403 . S
C2251 C2252 1.524 . S
C2251 C2255 1.400 . S
C2252 H2237 0.960 . S
C2252 H2238 0.960 . S
C2252 H2239 0.960 . S
C2252 C2251 1.524 . S
C2253 C2250 1.403 . S
C2253 C2254 1.392 . S
C2253 C2257 1.495 . S
C2254 C2253 1.392 . S
C2254 C2255 1.385 . S
C2254 C2256 1.478 . S
C2255 H2249 0.930 . S
C2255 C2251 1.400 . S
C2255 C2254 1.385 . S
C2256 C2254 1.478 . S
C2256 C2258 1.381 . S
C2256 C2262 1.383 . S
C2257 C2253 1.495 . S
C2257 H2263 0.959 . S
C2257 H2264 0.961 . S
C2257 H2265 0.960 . S
C2258 C2256 1.381 . S
C2258 C2259 1.394 . S
C2258 H2266 0.930 . S
C2259 C2258 1.394 . S
C2259 C2260 1.383 . S
C2259 H2267 0.929 . S
C2260 C2259 1.383 . S
C2260 C2261 1.377 . S
C2261 H2245 0.930 . S
C2261 C2260 1.377 . S
C2261 C2262 1.379 . S
C2262 H2246 0.931 . S
C2262 C2256 1.383 . S
C2262 C2261 1.379 . S
H2263 C2257 0.959 . S
H2264 C2257 0.961 . S
H2265 C2257 0.960 . S
H2266 C2258 0.930 . S
H2267 C2259 0.929 . S
H2268 C2276 0.929 . S
H2269 C2278 0.930 . S
H2270 C2280 0.930 . S
H2271 C2283 0.929 . S
H2272 C2286 0.930 . S
H2273 C2288 0.960 . S
H2274 C2288 0.960 . S
H2275 C2288 0.960 . S
C2276 H2268 0.929 . S
C2276 C2277 1.377 . S
C2276 C2278 1.384 . S
C2277 C2276 1.377 . S
C2277 C2283 1.390 . S
C2278 H2269 0.930 . S
C2278 C2276 1.384 . S
C2278 C2279 1.372 . S
C2279 C2278 1.372 . S
C2279 C2280 1.400 . S
C2279 C2284 1.490 . S
C2280 H2270 0.930 . S
C2280 C2279 1.400 . S
C2280 C2283 1.386 . S
H2281 C2297 0.930 . S
H2282 C2298 0.931 . S
C2283 H2271 0.929 . S
C2283 C2277 1.390 . S
C2283 C2280 1.386 . S
C2284 C2279 1.490 . S
C2284 C2286 1.395 . S
C2284 C2287 1.403 . S
H2285 C2291 0.930 . S
C2286 H2272 0.930 . S
C2286 C2284 1.395 . S
C2286 C2289 1.403 . S
C2287 C2284 1.403 . S
C2287 C2288 1.524 . S
C2287 C2291 1.400 . S
C2288 H2273 0.960 . S
C2288 H2274 0.960 . S
C2288 H2275 0.960 . S
C2288 C2287 1.524 . S
C2289 C2286 1.403 . S
C2289 C2290 1.392 . S
C2289 C2293 1.495 . S
C2290 C2289 1.392 . S
C2290 C2291 1.385 . S
C2290 C2292 1.478 . S
C2291 H2285 0.930 . S
C2291 C2287 1.400 . S
C2291 C2290 1.385 . S
C2292 C2290 1.478 . S
C2292 C2294 1.381 . S
C2292 C2298 1.383 . S
C2293 C2289 1.495 . S
C2293 H2299 0.959 . S
C2293 H2300 0.961 . S
C2293 H2301 0.960 . S
C2294 C2292 1.381 . S
C2294 C2295 1.394 . S
C2294 H2302 0.930 . S
C2295 C2294 1.394 . S
C2295 C2296 1.383 . S
C2295 H2303 0.929 . S
C2296 C2295 1.383 . S
C2296 C2297 1.377 . S
C2297 H2281 0.930 . S
C2297 C2296 1.377 . S
C2297 C2298 1.379 . S
C2298 H2282 0.931 . S
C2298 C2292 1.383 . S
C2298 C2297 1.379 . S
H2299 C2293 0.959 . S
H2300 C2293 0.961 . S
H2301 C2293 0.960 . S
H2302 C2294 0.930 . S
H2303 C2295 0.929 . S
H2304 C2312 0.929 . S
H2305 C2314 0.930 . S
H2306 C2316 0.930 . S
H2307 C2319 0.929 . S
H2308 C2322 0.930 . S
H2309 C2324 0.960 . S
H2310 C2324 0.960 . S
H2311 C2324 0.960 . S
C2312 H2304 0.929 . S
C2312 C2313 1.377 . S
C2312 C2314 1.384 . S
C2313 C2312 1.377 . S
C2313 C2319 1.390 . S
C2314 H2305 0.930 . S
C2314 C2312 1.384 . S
C2314 C2315 1.372 . S
C2315 C2314 1.372 . S
C2315 C2316 1.400 . S
C2315 C2320 1.490 . S
C2316 H2306 0.930 . S
C2316 C2315 1.400 . S
C2316 C2319 1.386 . S
H2317 C2333 0.930 . S
H2318 C2334 0.931 . S
C2319 H2307 0.929 . S
C2319 C2313 1.390 . S
C2319 C2316 1.386 . S
C2320 C2315 1.490 . S
C2320 C2322 1.395 . S
C2320 C2323 1.403 . S
H2321 C2327 0.930 . S
C2322 H2308 0.930 . S
C2322 C2320 1.395 . S
C2322 C2325 1.403 . S
C2323 C2320 1.403 . S
C2323 C2324 1.524 . S
C2323 C2327 1.400 . S
C2324 H2309 0.960 . S
C2324 H2310 0.960 . S
C2324 H2311 0.960 . S
C2324 C2323 1.524 . S
C2325 C2322 1.403 . S
C2325 C2326 1.392 . S
C2325 C2329 1.495 . S
C2326 C2325 1.392 . S
C2326 C2327 1.385 . S
C2326 C2328 1.478 . S
C2327 H2321 0.930 . S
C2327 C2323 1.400 . S
C2327 C2326 1.385 . S
C2328 C2326 1.478 . S
C2328 C2330 1.381 . S
C2328 C2334 1.383 . S
C2329 C2325 1.495 . S
C2329 H2335 0.959 . S
C2329 H2336 0.961 . S
C2329 H2337 0.960 . S
C2330 C2328 1.381 . S
C2330 C2331 1.394 . S
C2330 H2338 0.930 . S
C2331 C2330 1.394 . S
C2331 C2332 1.383 . S
C2331 H2339 0.929 . S
C2332 C2331 1.383 . S
C2332 C2333 1.377 . S
C2333 H2317 0.930 . S
C2333 C2332 1.377 . S
C2333 C2334 1.379 . S
C2334 H2318 0.931 . S
C2334 C2328 1.383 . S
C2334 C2333 1.379 . S
H2335 C2329 0.959 . S
H2336 C2329 0.961 . S
H2337 C2329 0.960 . S
H2338 C2330 0.930 . S
H2339 C2331 0.929 . S
H2340 C2348 0.929 . S
H2341 C2350 0.930 . S
H2342 C2352 0.930 . S
H2343 C2355 0.929 . S
H2344 C2358 0.930 . S
H2345 C2360 0.960 . S
H2346 C2360 0.960 . S
H2347 C2360 0.960 . S
C2348 H2340 0.929 . S
C2348 C2349 1.377 . S
C2348 C2350 1.384 . S
C2349 C2348 1.377 . S
C2349 C2355 1.390 . S
C2350 H2341 0.930 . S
C2350 C2348 1.384 . S
C2350 C2351 1.372 . S
C2351 C2350 1.372 . S
C2351 C2352 1.400 . S
C2351 C2356 1.490 . S
C2352 H2342 0.930 . S
C2352 C2351 1.400 . S
C2352 C2355 1.386 . S
H2353 C2369 0.930 . S
H2354 C2370 0.931 . S
C2355 H2343 0.929 . S
C2355 C2349 1.390 . S
C2355 C2352 1.386 . S
C2356 C2351 1.490 . S
C2356 C2358 1.395 . S
C2356 C2359 1.403 . S
H2357 C2363 0.930 . S
C2358 H2344 0.930 . S
C2358 C2356 1.395 . S
C2358 C2361 1.403 . S
C2359 C2356 1.403 . S
C2359 C2360 1.524 . S
C2359 C2363 1.400 . S
C2360 H2345 0.960 . S
C2360 H2346 0.960 . S
C2360 H2347 0.960 . S
C2360 C2359 1.524 . S
C2361 C2358 1.403 . S
C2361 C2362 1.392 . S
C2361 C2365 1.495 . S
C2362 C2361 1.392 . S
C2362 C2363 1.385 . S
C2362 C2364 1.478 . S
C2363 H2357 0.930 . S
C2363 C2359 1.400 . S
C2363 C2362 1.385 . S
C2364 C2362 1.478 . S
C2364 C2366 1.381 . S
C2364 C2370 1.383 . S
C2365 C2361 1.495 . S
C2365 H2371 0.959 . S
C2365 H2372 0.961 . S
C2365 H2373 0.960 . S
C2366 C2364 1.381 . S
C2366 C2367 1.394 . S
C2366 H2374 0.930 . S
C2367 C2366 1.394 . S
C2367 C2368 1.383 . S
C2367 H2375 0.929 . S
C2368 C2367 1.383 . S
C2368 C2369 1.377 . S
C2369 H2353 0.930 . S
C2369 C2368 1.377 . S
C2369 C2370 1.379 . S
C2370 H2354 0.931 . S
C2370 C2364 1.383 . S
C2370 C2369 1.379 . S
H2371 C2365 0.959 . S
H2372 C2365 0.961 . S
H2373 C2365 0.960 . S
H2374 C2366 0.930 . S
H2375 C2367 0.929 . S
H2376 C2384 0.929 . S
H2377 C2386 0.930 . S
H2378 C2388 0.930 . S
H2379 C2391 0.929 . S
H2380 C2394 0.930 . S
H2381 C2396 0.960 . S
H2382 C2396 0.960 . S
H2383 C2396 0.960 . S
C2384 H2376 0.929 . S
C2384 C2385 1.377 . S
C2384 C2386 1.384 . S
C2385 C2384 1.377 . S
C2385 C2391 1.390 . S
C2386 H2377 0.930 . S
C2386 C2384 1.384 . S
C2386 C2387 1.372 . S
C2387 C2386 1.372 . S
C2387 C2388 1.400 . S
C2387 C2392 1.490 . S
C2388 H2378 0.930 . S
C2388 C2387 1.400 . S
C2388 C2391 1.386 . S
H2389 C2405 0.930 . S
H2390 C2406 0.931 . S
C2391 H2379 0.929 . S
C2391 C2385 1.390 . S
C2391 C2388 1.386 . S
C2392 C2387 1.490 . S
C2392 C2394 1.395 . S
C2392 C2395 1.403 . S
H2393 C2399 0.930 . S
C2394 H2380 0.930 . S
C2394 C2392 1.395 . S
C2394 C2397 1.403 . S
C2395 C2392 1.403 . S
C2395 C2396 1.524 . S
C2395 C2399 1.400 . S
C2396 H2381 0.960 . S
C2396 H2382 0.960 . S
C2396 H2383 0.960 . S
C2396 C2395 1.524 . S
C2397 C2394 1.403 . S
C2397 C2398 1.392 . S
C2397 C2401 1.495 . S
C2398 C2397 1.392 . S
C2398 C2399 1.385 . S
C2398 C2400 1.478 . S
C2399 H2393 0.930 . S
C2399 C2395 1.400 . S
C2399 C2398 1.385 . S
C2400 C2398 1.478 . S
C2400 C2402 1.381 . S
C2400 C2406 1.383 . S
C2401 C2397 1.495 . S
C2401 H2407 0.959 . S
C2401 H2408 0.961 . S
C2401 H2409 0.960 . S
C2402 C2400 1.381 . S
C2402 C2403 1.394 . S
C2402 H2410 0.930 . S
C2403 C2402 1.394 . S
C2403 C2404 1.383 . S
C2403 H2411 0.929 . S
C2404 C2403 1.383 . S
C2404 C2405 1.377 . S
C2405 H2389 0.930 . S
C2405 C2404 1.377 . S
C2405 C2406 1.379 . S
C2406 H2390 0.931 . S
C2406 C2400 1.383 . S
C2406 C2405 1.379 . S
H2407 C2401 0.959 . S
H2408 C2401 0.961 . S
H2409 C2401 0.960 . S
H2410 C2402 0.930 . S
H2411 C2403 0.929 . S
H2412 C2420 0.929 . S
H2413 C2422 0.930 . S
H2414 C2424 0.930 . S
H2415 C2427 0.929 . S
H2416 C2430 0.930 . S
H2417 C2432 0.960 . S
H2418 C2432 0.960 . S
H2419 C2432 0.960 . S
C2420 H2412 0.929 . S
C2420 C2421 1.377 . S
C2420 C2422 1.384 . S
C2421 C2420 1.377 . S
C2421 C2427 1.390 . S
C2422 H2413 0.930 . S
C2422 C2420 1.384 . S
C2422 C2423 1.372 . S
C2423 C2422 1.372 . S
C2423 C2424 1.400 . S
C2423 C2428 1.490 . S
C2424 H2414 0.930 . S
C2424 C2423 1.400 . S
C2424 C2427 1.386 . S
H2425 C2441 0.930 . S
H2426 C2442 0.931 . S
C2427 H2415 0.929 . S
C2427 C2421 1.390 . S
C2427 C2424 1.386 . S
C2428 C2423 1.490 . S
C2428 C2430 1.395 . S
C2428 C2431 1.403 . S
H2429 C2435 0.930 . S
C2430 H2416 0.930 . S
C2430 C2428 1.395 . S
C2430 C2433 1.403 . S
C2431 C2428 1.403 . S
C2431 C2432 1.524 . S
C2431 C2435 1.400 . S
C2432 H2417 0.960 . S
C2432 H2418 0.960 . S
C2432 H2419 0.960 . S
C2432 C2431 1.524 . S
C2433 C2430 1.403 . S
C2433 C2434 1.392 . S
C2433 C2437 1.495 . S
C2434 C2433 1.392 . S
C2434 C2435 1.385 . S
C2434 C2436 1.478 . S
C2435 H2429 0.930 . S
C2435 C2431 1.400 . S
C2435 C2434 1.385 . S
C2436 C2434 1.478 . S
C2436 C2438 1.381 . S
C2436 C2442 1.383 . S
C2437 C2433 1.495 . S
C2437 H2443 0.959 . S
C2437 H2444 0.961 . S
C2437 H2445 0.960 . S
C2438 C2436 1.381 . S
C2438 C2439 1.394 . S
C2438 H2446 0.930 . S
C2439 C2438 1.394 . S
C2439 C2440 1.383 . S
C2439 H2447 0.929 . S
C2440 C2439 1.383 . S
C2440 C2441 1.377 . S
C2441 H2425 0.930 . S
C2441 C2440 1.377 . S
C2441 C2442 1.379 . S
C2442 H2426 0.931 . S
C2442 C2436 1.383 . S
C2442 C2441 1.379 . S
H2443 C2437 0.959 . S
H2444 C2437 0.961 . S
H2445 C2437 0.960 . S
H2446 C2438 0.930 . S
H2447 C2439 0.929 . S
H2448 C2456 0.929 . S
H2449 C2458 0.930 . S
H2450 C2460 0.930 . S
H2451 C2463 0.929 . S
H2452 C2466 0.930 . S
H2453 C2468 0.960 . S
H2454 C2468 0.960 . S
H2455 C2468 0.960 . S
C2456 H2448 0.929 . S
C2456 C2457 1.377 . S
C2456 C2458 1.384 . S
C2457 C2456 1.377 . S
C2457 C2463 1.390 . S
C2458 H2449 0.930 . S
C2458 C2456 1.384 . S
C2458 C2459 1.372 . S
C2459 C2458 1.372 . S
C2459 C2460 1.400 . S
C2459 C2464 1.490 . S
C2460 H2450 0.930 . S
C2460 C2459 1.400 . S
C2460 C2463 1.386 . S
H2461 C2477 0.930 . S
H2462 C2478 0.931 . S
C2463 H2451 0.929 . S
C2463 C2457 1.390 . S
C2463 C2460 1.386 . S
C2464 C2459 1.490 . S
C2464 C2466 1.395 . S
C2464 C2467 1.403 . S
H2465 C2471 0.930 . S
C2466 H2452 0.930 . S
C2466 C2464 1.395 . S
C2466 C2469 1.403 . S
C2467 C2464 1.403 . S
C2467 C2468 1.524 . S
C2467 C2471 1.400 . S
C2468 H2453 0.960 . S
C2468 H2454 0.960 . S
C2468 H2455 0.960 . S
C2468 C2467 1.524 . S
C2469 C2466 1.403 . S
C2469 C2470 1.392 . S
C2469 C2473 1.495 . S
C2470 C2469 1.392 . S
C2470 C2471 1.385 . S
C2470 C2472 1.478 . S
C2471 H2465 0.930 . S
C2471 C2467 1.400 . S
C2471 C2470 1.385 . S
C2472 C2470 1.478 . S
C2472 C2474 1.381 . S
C2472 C2478 1.383 . S
C2473 C2469 1.495 . S
C2473 H2479 0.959 . S
C2473 H2480 0.961 . S
C2473 H2481 0.960 . S
C2474 C2472 1.381 . S
C2474 C2475 1.394 . S
C2474 H2482 0.930 . S
C2475 C2474 1.394 . S
C2475 C2476 1.383 . S
C2475 H2483 0.929 . S
C2476 C2475 1.383 . S
C2476 C2477 1.377 . S
C2477 H2461 0.930 . S
C2477 C2476 1.377 . S
C2477 C2478 1.379 . S
C2478 H2462 0.931 . S
C2478 C2472 1.383 . S
C2478 C2477 1.379 . S
H2479 C2473 0.959 . S
H2480 C2473 0.961 . S
H2481 C2473 0.960 . S
H2482 C2474 0.930 . S
H2483 C2475 0.929 . S
H2484 C2492 0.929 . S
H2485 C2494 0.930 . S
H2486 C2496 0.930 . S
H2487 C2499 0.929 . S
H2488 C2502 0.930 . S
H2489 C2504 0.960 . S
H2490 C2504 0.960 . S
H2491 C2504 0.960 . S
C2492 H2484 0.929 . S
C2492 C2493 1.377 . S
C2492 C2494 1.384 . S
C2493 C2492 1.377 . S
C2493 C2499 1.390 . S
C2494 H2485 0.930 . S
C2494 C2492 1.384 . S
C2494 C2495 1.372 . S
C2495 C2494 1.372 . S
C2495 C2496 1.400 . S
C2495 C2500 1.490 . S
C2496 H2486 0.930 . S
C2496 C2495 1.400 . S
C2496 C2499 1.386 . S
H2497 C2513 0.930 . S
H2498 C2514 0.931 . S
C2499 H2487 0.929 . S
C2499 C2493 1.390 . S
C2499 C2496 1.386 . S
C2500 C2495 1.490 . S
C2500 C2502 1.395 . S
C2500 C2503 1.403 . S
H2501 C2507 0.930 . S
C2502 H2488 0.930 . S
C2502 C2500 1.395 . S
C2502 C2505 1.403 . S
C2503 C2500 1.403 . S
C2503 C2504 1.524 . S
C2503 C2507 1.400 . S
C2504 H2489 0.960 . S
C2504 H2490 0.960 . S
C2504 H2491 0.960 . S
C2504 C2503 1.524 . S
C2505 C2502 1.403 . S
C2505 C2506 1.392 . S
C2505 C2509 1.495 . S
C2506 C2505 1.392 . S
C2506 C2507 1.385 . S
C2506 C2508 1.478 . S
C2507 H2501 0.930 . S
C2507 C2503 1.400 . S
C2507 C2506 1.385 . S
C2508 C2506 1.478 . S
C2508 C2510 1.381 . S
C2508 C2514 1.383 . S
C2509 C2505 1.495 . S
C2509 H2515 0.959 . S
C2509 H2516 0.961 . S
C2509 H2517 0.960 . S
C2510 C2508 1.381 . S
C2510 C2511 1.394 . S
C2510 H2518 0.930 . S
C2511 C2510 1.394 . S
C2511 C2512 1.383 . S
C2511 H2519 0.929 . S
C2512 C2511 1.383 . S
C2512 C2513 1.377 . S
C2513 H2497 0.930 . S
C2513 C2512 1.377 . S
C2513 C2514 1.379 . S
C2514 H2498 0.931 . S
C2514 C2508 1.383 . S
C2514 C2513 1.379 . S
H2515 C2509 0.959 . S
H2516 C2509 0.961 . S
H2517 C2509 0.960 . S
H2518 C2510 0.930 . S
H2519 C2511 0.929 . S
H2520 C2528 0.929 . S
H2521 C2530 0.930 . S
H2522 C2532 0.930 . S
H2523 C2535 0.929 . S
H2524 C2538 0.930 . S
H2525 C2540 0.960 . S
H2526 C2540 0.960 . S
H2527 C2540 0.960 . S
C2528 H2520 0.929 . S
C2528 C2529 1.377 . S
C2528 C2530 1.384 . S
C2529 C2528 1.377 . S
C2529 C2535 1.390 . S
C2530 H2521 0.930 . S
C2530 C2528 1.384 . S
C2530 C2531 1.372 . S
C2531 C2530 1.372 . S
C2531 C2532 1.400 . S
C2531 C2536 1.490 . S
C2532 H2522 0.930 . S
C2532 C2531 1.400 . S
C2532 C2535 1.386 . S
H2533 C2549 0.930 . S
H2534 C2550 0.931 . S
C2535 H2523 0.929 . S
C2535 C2529 1.390 . S
C2535 C2532 1.386 . S
C2536 C2531 1.490 . S
C2536 C2538 1.395 . S
C2536 C2539 1.403 . S
H2537 C2543 0.930 . S
C2538 H2524 0.930 . S
C2538 C2536 1.395 . S
C2538 C2541 1.403 . S
C2539 C2536 1.403 . S
C2539 C2540 1.524 . S
C2539 C2543 1.400 . S
C2540 H2525 0.960 . S
C2540 H2526 0.960 . S
C2540 H2527 0.960 . S
C2540 C2539 1.524 . S
C2541 C2538 1.403 . S
C2541 C2542 1.392 . S
C2541 C2545 1.495 . S
C2542 C2541 1.392 . S
C2542 C2543 1.385 . S
C2542 C2544 1.478 . S
C2543 H2537 0.930 . S
C2543 C2539 1.400 . S
C2543 C2542 1.385 . S
C2544 C2542 1.478 . S
C2544 C2546 1.381 . S
C2544 C2550 1.383 . S
C2545 C2541 1.495 . S
C2545 H2551 0.959 . S
C2545 H2552 0.961 . S
C2545 H2553 0.960 . S
C2546 C2544 1.381 . S
C2546 C2547 1.394 . S
C2546 H2554 0.930 . S
C2547 C2546 1.394 . S
C2547 C2548 1.383 . S
C2547 H2555 0.929 . S
C2548 C2547 1.383 . S
C2548 C2549 1.377 . S
C2549 H2533 0.930 . S
C2549 C2548 1.377 . S
C2549 C2550 1.379 . S
C2550 H2534 0.931 . S
C2550 C2544 1.383 . S
C2550 C2549 1.379 . S
H2551 C2545 0.959 . S
H2552 C2545 0.961 . S
H2553 C2545 0.960 . S
H2554 C2546 0.930 . S
H2555 C2547 0.929 . S
H2556 C2564 0.929 . S
H2557 C2566 0.930 . S
H2558 C2568 0.930 . S
H2559 C2571 0.929 . S
H2560 C2574 0.930 . S
H2561 C2576 0.960 . S
H2562 C2576 0.960 . S
H2563 C2576 0.960 . S
C2564 H2556 0.929 . S
C2564 C2565 1.377 . S
C2564 C2566 1.384 . S
C2565 C2564 1.377 . S
C2565 C2571 1.390 . S
C2566 H2557 0.930 . S
C2566 C2564 1.384 . S
C2566 C2567 1.372 . S
C2567 C2566 1.372 . S
C2567 C2568 1.400 . S
C2567 C2572 1.490 . S
C2568 H2558 0.930 . S
C2568 C2567 1.400 . S
C2568 C2571 1.386 . S
H2569 C2585 0.930 . S
H2570 C2586 0.931 . S
C2571 H2559 0.929 . S
C2571 C2565 1.390 . S
C2571 C2568 1.386 . S
C2572 C2567 1.490 . S
C2572 C2574 1.395 . S
C2572 C2575 1.403 . S
H2573 C2579 0.930 . S
C2574 H2560 0.930 . S
C2574 C2572 1.395 . S
C2574 C2577 1.403 . S
C2575 C2572 1.403 . S
C2575 C2576 1.524 . S
C2575 C2579 1.400 . S
C2576 H2561 0.960 . S
C2576 H2562 0.960 . S
C2576 H2563 0.960 . S
C2576 C2575 1.524 . S
C2577 C2574 1.403 . S
C2577 C2578 1.392 . S
C2577 C2581 1.495 . S
C2578 C2577 1.392 . S
C2578 C2579 1.385 . S
C2578 C2580 1.478 . S
C2579 H2573 0.930 . S
C2579 C2575 1.400 . S
C2579 C2578 1.385 . S
C2580 C2578 1.478 . S
C2580 C2582 1.381 . S
C2580 C2586 1.383 . S
C2581 C2577 1.495 . S
C2581 H2587 0.959 . S
C2581 H2588 0.961 . S
C2581 H2589 0.960 . S
C2582 C2580 1.381 . S
C2582 C2583 1.394 . S
C2582 H2590 0.930 . S
C2583 C2582 1.394 . S
C2583 C2584 1.383 . S
C2583 H2591 0.929 . S
C2584 C2583 1.383 . S
C2584 C2585 1.377 . S
C2585 H2569 0.930 . S
C2585 C2584 1.377 . S
C2585 C2586 1.379 . S
C2586 H2570 0.931 . S
C2586 C2580 1.383 . S
C2586 C2585 1.379 . S
H2587 C2581 0.959 . S
H2588 C2581 0.961 . S
H2589 C2581 0.960 . S
H2590 C2582 0.930 . S
H2591 C2583 0.929 . S
H2592 C2600 0.929 . S
H2593 C2602 0.930 . S
H2594 C2604 0.930 . S
H2595 C2607 0.929 . S
H2596 C2610 0.930 . S
H2597 C2612 0.960 . S
H2598 C2612 0.960 . S
H2599 C2612 0.960 . S
C2600 H2592 0.929 . S
C2600 C2601 1.377 . S
C2600 C2602 1.384 . S
C2601 C2600 1.377 . S
C2601 C2607 1.390 . S
C2602 H2593 0.930 . S
C2602 C2600 1.384 . S
C2602 C2603 1.372 . S
C2603 C2602 1.372 . S
C2603 C2604 1.400 . S
C2603 C2608 1.490 . S
C2604 H2594 0.930 . S
C2604 C2603 1.400 . S
C2604 C2607 1.386 . S
H2605 C2621 0.930 . S
H2606 C2622 0.931 . S
C2607 H2595 0.929 . S
C2607 C2601 1.390 . S
C2607 C2604 1.386 . S
C2608 C2603 1.490 . S
C2608 C2610 1.395 . S
C2608 C2611 1.403 . S
H2609 C2615 0.930 . S
C2610 H2596 0.930 . S
C2610 C2608 1.395 . S
C2610 C2613 1.403 . S
C2611 C2608 1.403 . S
C2611 C2612 1.524 . S
C2611 C2615 1.400 . S
C2612 H2597 0.960 . S
C2612 H2598 0.960 . S
C2612 H2599 0.960 . S
C2612 C2611 1.524 . S
C2613 C2610 1.403 . S
C2613 C2614 1.392 . S
C2613 C2617 1.495 . S
C2614 C2613 1.392 . S
C2614 C2615 1.385 . S
C2614 C2616 1.478 . S
C2615 H2609 0.930 . S
C2615 C2611 1.400 . S
C2615 C2614 1.385 . S
C2616 C2614 1.478 . S
C2616 C2618 1.381 . S
C2616 C2622 1.383 . S
C2617 C2613 1.495 . S
C2617 H2623 0.959 . S
C2617 H2624 0.961 . S
C2617 H2625 0.960 . S
C2618 C2616 1.381 . S
C2618 C2619 1.394 . S
C2618 H2626 0.930 . S
C2619 C2618 1.394 . S
C2619 C2620 1.383 . S
C2619 H2627 0.929 . S
C2620 C2619 1.383 . S
C2620 C2621 1.377 . S
C2621 H2605 0.930 . S
C2621 C2620 1.377 . S
C2621 C2622 1.379 . S
C2622 H2606 0.931 . S
C2622 C2616 1.383 . S
C2622 C2621 1.379 . S
H2623 C2617 0.959 . S
H2624 C2617 0.961 . S
H2625 C2617 0.960 . S
H2626 C2618 0.930 . S
H2627 C2619 0.929 . S
H2628 C2636 0.929 . S
H2629 C2638 0.930 . S
H2630 C2640 0.930 . S
H2631 C2643 0.929 . S
H2632 C2646 0.930 . S
H2633 C2648 0.960 . S
H2634 C2648 0.960 . S
H2635 C2648 0.960 . S
C2636 H2628 0.929 . S
C2636 C2637 1.377 . S
C2636 C2638 1.384 . S
C2637 C2636 1.377 . S
C2637 C2643 1.390 . S
C2638 H2629 0.930 . S
C2638 C2636 1.384 . S
C2638 C2639 1.372 . S
C2639 C2638 1.372 . S
C2639 C2640 1.400 . S
C2639 C2644 1.490 . S
C2640 H2630 0.930 . S
C2640 C2639 1.400 . S
C2640 C2643 1.386 . S
H2641 C2657 0.930 . S
H2642 C2658 0.931 . S
C2643 H2631 0.929 . S
C2643 C2637 1.390 . S
C2643 C2640 1.386 . S
C2644 C2639 1.490 . S
C2644 C2646 1.395 . S
C2644 C2647 1.403 . S
H2645 C2651 0.930 . S
C2646 H2632 0.930 . S
C2646 C2644 1.395 . S
C2646 C2649 1.403 . S
C2647 C2644 1.403 . S
C2647 C2648 1.524 . S
C2647 C2651 1.400 . S
C2648 H2633 0.960 . S
C2648 H2634 0.960 . S
C2648 H2635 0.960 . S
C2648 C2647 1.524 . S
C2649 C2646 1.403 . S
C2649 C2650 1.392 . S
C2649 C2653 1.495 . S
C2650 C2649 1.392 . S
C2650 C2651 1.385 . S
C2650 C2652 1.478 . S
C2651 H2645 0.930 . S
C2651 C2647 1.400 . S
C2651 C2650 1.385 . S
C2652 C2650 1.478 . S
C2652 C2654 1.381 . S
C2652 C2658 1.383 . S
C2653 C2649 1.495 . S
C2653 H2659 0.959 . S
C2653 H2660 0.961 . S
C2653 H2661 0.960 . S
C2654 C2652 1.381 . S
C2654 C2655 1.394 . S
C2654 H2662 0.930 . S
C2655 C2654 1.394 . S
C2655 C2656 1.383 . S
C2655 H2663 0.929 . S
C2656 C2655 1.383 . S
C2656 C2657 1.377 . S
C2657 H2641 0.930 . S
C2657 C2656 1.377 . S
C2657 C2658 1.379 . S
C2658 H2642 0.931 . S
C2658 C2652 1.383 . S
C2658 C2657 1.379 . S
H2659 C2653 0.959 . S
H2660 C2653 0.961 . S
H2661 C2653 0.960 . S
H2662 C2654 0.930 . S
H2663 C2655 0.929 . S
H2664 C2672 0.929 . S
H2665 C2674 0.930 . S
H2666 C2676 0.930 . S
H2667 C2679 0.929 . S
H2668 C2682 0.930 . S
H2669 C2684 0.960 . S
H2670 C2684 0.960 . S
H2671 C2684 0.960 . S
C2672 H2664 0.929 . S
C2672 C2673 1.377 . S
C2672 C2674 1.384 . S
C2673 C2672 1.377 . S
C2673 C2679 1.390 . S
C2674 H2665 0.930 . S
C2674 C2672 1.384 . S
C2674 C2675 1.372 . S
C2675 C2674 1.372 . S
C2675 C2676 1.400 . S
C2675 C2680 1.490 . S
C2676 H2666 0.930 . S
C2676 C2675 1.400 . S
C2676 C2679 1.386 . S
H2677 C2693 0.930 . S
H2678 C2694 0.931 . S
C2679 H2667 0.929 . S
C2679 C2673 1.390 . S
C2679 C2676 1.386 . S
C2680 C2675 1.490 . S
C2680 C2682 1.395 . S
C2680 C2683 1.403 . S
H2681 C2687 0.930 . S
C2682 H2668 0.930 . S
C2682 C2680 1.395 . S
C2682 C2685 1.403 . S
C2683 C2680 1.403 . S
C2683 C2684 1.524 . S
C2683 C2687 1.400 . S
C2684 H2669 0.960 . S
C2684 H2670 0.960 . S
C2684 H2671 0.960 . S
C2684 C2683 1.524 . S
C2685 C2682 1.403 . S
C2685 C2686 1.392 . S
C2685 C2689 1.495 . S
C2686 C2685 1.392 . S
C2686 C2687 1.385 . S
C2686 C2688 1.478 . S
C2687 H2681 0.930 . S
C2687 C2683 1.400 . S
C2687 C2686 1.385 . S
C2688 C2686 1.478 . S
C2688 C2690 1.381 . S
C2688 C2694 1.383 . S
C2689 C2685 1.495 . S
C2689 H2695 0.959 . S
C2689 H2696 0.961 . S
C2689 H2697 0.960 . S
C2690 C2688 1.381 . S
C2690 C2691 1.394 . S
C2690 H2698 0.930 . S
C2691 C2690 1.394 . S
C2691 C2692 1.383 . S
C2691 H2699 0.929 . S
C2692 C2691 1.383 . S
C2692 C2693 1.377 . S
C2693 H2677 0.930 . S
C2693 C2692 1.377 . S
C2693 C2694 1.379 . S
C2694 H2678 0.931 . S
C2694 C2688 1.383 . S
C2694 C2693 1.379 . S
H2695 C2689 0.959 . S
H2696 C2689 0.961 . S
H2697 C2689 0.960 . S
H2698 C2690 0.930 . S
H2699 C2691 0.929 . S
H2700 C2708 0.929 . S
H2701 C2710 0.930 . S
H2702 C2712 0.930 . S
H2703 C2715 0.929 . S
H2704 C2718 0.930 . S
H2705 C2720 0.960 . S
H2706 C2720 0.960 . S
H2707 C2720 0.960 . S
C2708 H2700 0.929 . S
C2708 C2709 1.377 . S
C2708 C2710 1.384 . S
C2709 C2708 1.377 . S
C2709 C2715 1.390 . S
C2710 H2701 0.930 . S
C2710 C2708 1.384 . S
C2710 C2711 1.372 . S
C2711 C2710 1.372 . S
C2711 C2712 1.400 . S
C2711 C2716 1.490 . S
C2712 H2702 0.930 . S
C2712 C2711 1.400 . S
C2712 C2715 1.386 . S
H2713 C2729 0.930 . S
H2714 C2730 0.931 . S
C2715 H2703 0.929 . S
C2715 C2709 1.390 . S
C2715 C2712 1.386 . S
C2716 C2711 1.490 . S
C2716 C2718 1.395 . S
C2716 C2719 1.403 . S
H2717 C2723 0.930 . S
C2718 H2704 0.930 . S
C2718 C2716 1.395 . S
C2718 C2721 1.403 . S
C2719 C2716 1.403 . S
C2719 C2720 1.524 . S
C2719 C2723 1.400 . S
C2720 H2705 0.960 . S
C2720 H2706 0.960 . S
C2720 H2707 0.960 . S
C2720 C2719 1.524 . S
C2721 C2718 1.403 . S
C2721 C2722 1.392 . S
C2721 C2725 1.495 . S
C2722 C2721 1.392 . S
C2722 C2723 1.385 . S
C2722 C2724 1.478 . S
C2723 H2717 0.930 . S
C2723 C2719 1.400 . S
C2723 C2722 1.385 . S
C2724 C2722 1.478 . S
C2724 C2726 1.381 . S
C2724 C2730 1.383 . S
C2725 C2721 1.495 . S
C2725 H2731 0.959 . S
C2725 H2732 0.961 . S
C2725 H2733 0.960 . S
C2726 C2724 1.381 . S
C2726 C2727 1.394 . S
C2726 H2734 0.930 . S
C2727 C2726 1.394 . S
C2727 C2728 1.383 . S
C2727 H2735 0.929 . S
C2728 C2727 1.383 . S
C2728 C2729 1.377 . S
C2729 H2713 0.930 . S
C2729 C2728 1.377 . S
C2729 C2730 1.379 . S
C2730 H2714 0.931 . S
C2730 C2724 1.383 . S
C2730 C2729 1.379 . S
H2731 C2725 0.959 . S
H2732 C2725 0.961 . S
H2733 C2725 0.960 . S
H2734 C2726 0.930 . S
H2735 C2727 0.929 . S
H2736 C2744 0.929 . S
H2737 C2746 0.930 . S
H2738 C2748 0.930 . S
H2739 C2751 0.929 . S
H2740 C2754 0.930 . S
H2741 C2756 0.960 . S
H2742 C2756 0.960 . S
H2743 C2756 0.960 . S
C2744 H2736 0.929 . S
C2744 C2745 1.377 . S
C2744 C2746 1.384 . S
C2745 C2744 1.377 . S
C2745 C2751 1.390 . S
C2746 H2737 0.930 . S
C2746 C2744 1.384 . S
C2746 C2747 1.372 . S
C2747 C2746 1.372 . S
C2747 C2748 1.400 . S
C2747 C2752 1.490 . S
C2748 H2738 0.930 . S
C2748 C2747 1.400 . S
C2748 C2751 1.386 . S
H2749 C2765 0.930 . S
H2750 C2766 0.931 . S
C2751 H2739 0.929 . S
C2751 C2745 1.390 . S
C2751 C2748 1.386 . S
C2752 C2747 1.490 . S
C2752 C2754 1.395 . S
C2752 C2755 1.403 . S
H2753 C2759 0.930 . S
C2754 H2740 0.930 . S
C2754 C2752 1.395 . S
C2754 C2757 1.403 . S
C2755 C2752 1.403 . S
C2755 C2756 1.524 . S
C2755 C2759 1.400 . S
C2756 H2741 0.960 . S
C2756 H2742 0.960 . S
C2756 H2743 0.960 . S
C2756 C2755 1.524 . S
C2757 C2754 1.403 . S
C2757 C2758 1.392 . S
C2757 C2761 1.495 . S
C2758 C2757 1.392 . S
C2758 C2759 1.385 . S
C2758 C2760 1.478 . S
C2759 H2753 0.930 . S
C2759 C2755 1.400 . S
C2759 C2758 1.385 . S
C2760 C2758 1.478 . S
C2760 C2762 1.381 . S
C2760 C2766 1.383 . S
C2761 C2757 1.495 . S
C2761 H2767 0.959 . S
C2761 H2768 0.961 . S
C2761 H2769 0.960 . S
C2762 C2760 1.381 . S
C2762 C2763 1.394 . S
C2762 H2770 0.930 . S
C2763 C2762 1.394 . S
C2763 C2764 1.383 . S
C2763 H2771 0.929 . S
C2764 C2763 1.383 . S
C2764 C2765 1.377 . S
C2765 H2749 0.930 . S
C2765 C2764 1.377 . S
C2765 C2766 1.379 . S
C2766 H2750 0.931 . S
C2766 C2760 1.383 . S
C2766 C2765 1.379 . S
H2767 C2761 0.959 . S
H2768 C2761 0.961 . S
H2769 C2761 0.960 . S
H2770 C2762 0.930 . S
H2771 C2763 0.929 . S
H2772 C2780 0.929 . S
H2773 C2782 0.930 . S
H2774 C2784 0.930 . S
H2775 C2787 0.929 . S
H2776 C2790 0.930 . S
H2777 C2792 0.960 . S
H2778 C2792 0.960 . S
H2779 C2792 0.960 . S
C2780 H2772 0.929 . S
C2780 C2781 1.377 . S
C2780 C2782 1.384 . S
C2781 C2780 1.377 . S
C2781 C2787 1.390 . S
C2782 H2773 0.930 . S
C2782 C2780 1.384 . S
C2782 C2783 1.372 . S
C2783 C2782 1.372 . S
C2783 C2784 1.400 . S
C2783 C2788 1.490 . S
C2784 H2774 0.930 . S
C2784 C2783 1.400 . S
C2784 C2787 1.386 . S
H2785 C2801 0.930 . S
H2786 C2802 0.931 . S
C2787 H2775 0.929 . S
C2787 C2781 1.390 . S
C2787 C2784 1.386 . S
C2788 C2783 1.490 . S
C2788 C2790 1.395 . S
C2788 C2791 1.403 . S
H2789 C2795 0.930 . S
C2790 H2776 0.930 . S
C2790 C2788 1.395 . S
C2790 C2793 1.403 . S
C2791 C2788 1.403 . S
C2791 C2792 1.524 . S
C2791 C2795 1.400 . S
C2792 H2777 0.960 . S
C2792 H2778 0.960 . S
C2792 H2779 0.960 . S
C2792 C2791 1.524 . S
C2793 C2790 1.403 . S
C2793 C2794 1.392 . S
C2793 C2797 1.495 . S
C2794 C2793 1.392 . S
C2794 C2795 1.385 . S
C2794 C2796 1.478 . S
C2795 H2789 0.930 . S
C2795 C2791 1.400 . S
C2795 C2794 1.385 . S
C2796 C2794 1.478 . S
C2796 C2798 1.381 . S
C2796 C2802 1.383 . S
C2797 C2793 1.495 . S
C2797 H2803 0.959 . S
C2797 H2804 0.961 . S
C2797 H2805 0.960 . S
C2798 C2796 1.381 . S
C2798 C2799 1.394 . S
C2798 H2806 0.930 . S
C2799 C2798 1.394 . S
C2799 C2800 1.383 . S
C2799 H2807 0.929 . S
C2800 C2799 1.383 . S
C2800 C2801 1.377 . S
C2801 H2785 0.930 . S
C2801 C2800 1.377 . S
C2801 C2802 1.379 . S
C2802 H2786 0.931 . S
C2802 C2796 1.383 . S
C2802 C2801 1.379 . S
H2803 C2797 0.959 . S
H2804 C2797 0.961 . S
H2805 C2797 0.960 . S
H2806 C2798 0.930 . S
H2807 C2799 0.929 . S
H2808 C2816 0.929 . S
H2809 C2818 0.930 . S
H2810 C2820 0.930 . S
H2811 C2823 0.929 . S
H2812 C2826 0.930 . S
H2813 C2828 0.960 . S
H2814 C2828 0.960 . S
H2815 C2828 0.960 . S
C2816 H2808 0.929 . S
C2816 C2817 1.377 . S
C2816 C2818 1.384 . S
C2817 C2816 1.377 . S
C2817 C2823 1.390 . S
C2818 H2809 0.930 . S
C2818 C2816 1.384 . S
C2818 C2819 1.372 . S
C2819 C2818 1.372 . S
C2819 C2820 1.400 . S
C2819 C2824 1.490 . S
C2820 H2810 0.930 . S
C2820 C2819 1.400 . S
C2820 C2823 1.386 . S
H2821 C2837 0.930 . S
H2822 C2838 0.931 . S
C2823 H2811 0.929 . S
C2823 C2817 1.390 . S
C2823 C2820 1.386 . S
C2824 C2819 1.490 . S
C2824 C2826 1.395 . S
C2824 C2827 1.403 . S
H2825 C2831 0.930 . S
C2826 H2812 0.930 . S
C2826 C2824 1.395 . S
C2826 C2829 1.403 . S
C2827 C2824 1.403 . S
C2827 C2828 1.524 . S
C2827 C2831 1.400 . S
C2828 H2813 0.960 . S
C2828 H2814 0.960 . S
C2828 H2815 0.960 . S
C2828 C2827 1.524 . S
C2829 C2826 1.403 . S
C2829 C2830 1.392 . S
C2829 C2833 1.495 . S
C2830 C2829 1.392 . S
C2830 C2831 1.385 . S
C2830 C2832 1.478 . S
C2831 H2825 0.930 . S
C2831 C2827 1.400 . S
C2831 C2830 1.385 . S
C2832 C2830 1.478 . S
C2832 C2834 1.381 . S
C2832 C2838 1.383 . S
C2833 C2829 1.495 . S
C2833 H2839 0.959 . S
C2833 H2840 0.961 . S
C2833 H2841 0.960 . S
C2834 C2832 1.381 . S
C2834 C2835 1.394 . S
C2834 H2842 0.930 . S
C2835 C2834 1.394 . S
C2835 C2836 1.383 . S
C2835 H2843 0.929 . S
C2836 C2835 1.383 . S
C2836 C2837 1.377 . S
C2837 H2821 0.930 . S
C2837 C2836 1.377 . S
C2837 C2838 1.379 . S
C2838 H2822 0.931 . S
C2838 C2832 1.383 . S
C2838 C2837 1.379 . S
H2839 C2833 0.959 . S
H2840 C2833 0.961 . S
H2841 C2833 0.960 . S
H2842 C2834 0.930 . S
H2843 C2835 0.929 . S
H2844 C2852 0.929 . S
H2845 C2854 0.930 . S
H2846 C2856 0.930 . S
H2847 C2859 0.929 . S
H2848 C2862 0.930 . S
H2849 C2864 0.960 . S
H2850 C2864 0.960 . S
H2851 C2864 0.960 . S
C2852 H2844 0.929 . S
C2852 C2853 1.377 . S
C2852 C2854 1.384 . S
C2853 C2852 1.377 . S
C2853 C2859 1.390 . S
C2854 H2845 0.930 . S
C2854 C2852 1.384 . S
C2854 C2855 1.372 . S
C2855 C2854 1.372 . S
C2855 C2856 1.400 . S
C2855 C2860 1.490 . S
C2856 H2846 0.930 . S
C2856 C2855 1.400 . S
C2856 C2859 1.386 . S
H2857 C2873 0.930 . S
H2858 C2874 0.931 . S
C2859 H2847 0.929 . S
C2859 C2853 1.390 . S
C2859 C2856 1.386 . S
C2860 C2855 1.490 . S
C2860 C2862 1.395 . S
C2860 C2863 1.403 . S
H2861 C2867 0.930 . S
C2862 H2848 0.930 . S
C2862 C2860 1.395 . S
C2862 C2865 1.403 . S
C2863 C2860 1.403 . S
C2863 C2864 1.524 . S
C2863 C2867 1.400 . S
C2864 H2849 0.960 . S
C2864 H2850 0.960 . S
C2864 H2851 0.960 . S
C2864 C2863 1.524 . S
C2865 C2862 1.403 . S
C2865 C2866 1.392 . S
C2865 C2869 1.495 . S
C2866 C2865 1.392 . S
C2866 C2867 1.385 . S
C2866 C2868 1.478 . S
C2867 H2861 0.930 . S
C2867 C2863 1.400 . S
C2867 C2866 1.385 . S
C2868 C2866 1.478 . S
C2868 C2870 1.381 . S
C2868 C2874 1.383 . S
C2869 C2865 1.495 . S
C2869 H2875 0.959 . S
C2869 H2876 0.961 . S
C2869 H2877 0.960 . S
C2870 C2868 1.381 . S
C2870 C2871 1.394 . S
C2870 H2878 0.930 . S
C2871 C2870 1.394 . S
C2871 C2872 1.383 . S
C2871 H2879 0.929 . S
C2872 C2871 1.383 . S
C2872 C2873 1.377 . S
C2873 H2857 0.930 . S
C2873 C2872 1.377 . S
C2873 C2874 1.379 . S
C2874 H2858 0.931 . S
C2874 C2868 1.383 . S
C2874 C2873 1.379 . S
H2875 C2869 0.959 . S
H2876 C2869 0.961 . S
H2877 C2869 0.960 . S
H2878 C2870 0.930 . S
H2879 C2871 0.929 . S
H2880 C2888 0.929 . S
H2881 C2890 0.930 . S
H2882 C2892 0.930 . S
H2883 C2895 0.929 . S
H2884 C2898 0.930 . S
H2885 C2900 0.960 . S
H2886 C2900 0.960 . S
H2887 C2900 0.960 . S
C2888 H2880 0.929 . S
C2888 C2889 1.377 . S
C2888 C2890 1.384 . S
C2889 C2888 1.377 . S
C2889 C2895 1.390 . S
C2890 H2881 0.930 . S
C2890 C2888 1.384 . S
C2890 C2891 1.372 . S
C2891 C2890 1.372 . S
C2891 C2892 1.400 . S
C2891 C2896 1.490 . S
C2892 H2882 0.930 . S
C2892 C2891 1.400 . S
C2892 C2895 1.386 . S
H2893 C2909 0.930 . S
H2894 C2910 0.931 . S
C2895 H2883 0.929 . S
C2895 C2889 1.390 . S
C2895 C2892 1.386 . S
C2896 C2891 1.490 . S
C2896 C2898 1.395 . S
C2896 C2899 1.403 . S
H2897 C2903 0.930 . S
C2898 H2884 0.930 . S
C2898 C2896 1.395 . S
C2898 C2901 1.403 . S
C2899 C2896 1.403 . S
C2899 C2900 1.524 . S
C2899 C2903 1.400 . S
C2900 H2885 0.960 . S
C2900 H2886 0.960 . S
C2900 H2887 0.960 . S
C2900 C2899 1.524 . S
C2901 C2898 1.403 . S
C2901 C2902 1.392 . S
C2901 C2905 1.495 . S
C2902 C2901 1.392 . S
C2902 C2903 1.385 . S
C2902 C2904 1.478 . S
C2903 H2897 0.930 . S
C2903 C2899 1.400 . S
C2903 C2902 1.385 . S
C2904 C2902 1.478 . S
C2904 C2906 1.381 . S
C2904 C2910 1.383 . S
C2905 C2901 1.495 . S
C2905 H2911 0.959 . S
C2905 H2912 0.961 . S
C2905 H2913 0.960 . S
C2906 C2904 1.381 . S
C2906 C2907 1.394 . S
C2906 H2914 0.930 . S
C2907 C2906 1.394 . S
C2907 C2908 1.383 . S
C2907 H2915 0.929 . S
C2908 C2907 1.383 . S
C2908 C2909 1.377 . S
C2909 H2893 0.930 . S
C2909 C2908 1.377 . S
C2909 C2910 1.379 . S
C2910 H2894 0.931 . S
C2910 C2904 1.383 . S
C2910 C2909 1.379 . S
H2911 C2905 0.959 . S
H2912 C2905 0.961 . S
H2913 C2905 0.960 . S
H2914 C2906 0.930 . S
H2915 C2907 0.929 . S
H2916 C2924 0.929 . S
H2917 C2926 0.930 . S
H2918 C2928 0.930 . S
H2919 C2931 0.929 . S
H2920 C2934 0.930 . S
H2921 C2936 0.960 . S
H2922 C2936 0.960 . S
H2923 C2936 0.960 . S
C2924 H2916 0.929 . S
C2924 C2925 1.377 . S
C2924 C2926 1.384 . S
C2925 C2924 1.377 . S
C2925 C2931 1.390 . S
C2926 H2917 0.930 . S
C2926 C2924 1.384 . S
C2926 C2927 1.372 . S
C2927 C2926 1.372 . S
C2927 C2928 1.400 . S
C2927 C2932 1.490 . S
C2928 H2918 0.930 . S
C2928 C2927 1.400 . S
C2928 C2931 1.386 . S
H2929 C2945 0.930 . S
H2930 C2946 0.931 . S
C2931 H2919 0.929 . S
C2931 C2925 1.390 . S
C2931 C2928 1.386 . S
C2932 C2927 1.490 . S
C2932 C2934 1.395 . S
C2932 C2935 1.403 . S
H2933 C2939 0.930 . S
C2934 H2920 0.930 . S
C2934 C2932 1.395 . S
C2934 C2937 1.403 . S
C2935 C2932 1.403 . S
C2935 C2936 1.524 . S
C2935 C2939 1.400 . S
C2936 H2921 0.960 . S
C2936 H2922 0.960 . S
C2936 H2923 0.960 . S
C2936 C2935 1.524 . S
C2937 C2934 1.403 . S
C2937 C2938 1.392 . S
C2937 C2941 1.495 . S
C2938 C2937 1.392 . S
C2938 C2939 1.385 . S
C2938 C2940 1.478 . S
C2939 H2933 0.930 . S
C2939 C2935 1.400 . S
C2939 C2938 1.385 . S
C2940 C2938 1.478 . S
C2940 C2942 1.381 . S
C2940 C2946 1.383 . S
C2941 C2937 1.495 . S
C2941 H2947 0.959 . S
C2941 H2948 0.961 . S
C2941 H2949 0.960 . S
C2942 C2940 1.381 . S
C2942 C2943 1.394 . S
C2942 H2950 0.930 . S
C2943 C2942 1.394 . S
C2943 C2944 1.383 . S
C2943 H2951 0.929 . S
C2944 C2943 1.383 . S
C2944 C2945 1.377 . S
C2945 H2929 0.930 . S
C2945 C2944 1.377 . S
C2945 C2946 1.379 . S
C2946 H2930 0.931 . S
C2946 C2940 1.383 . S
C2946 C2945 1.379 . S
H2947 C2941 0.959 . S
H2948 C2941 0.961 . S
H2949 C2941 0.960 . S
H2950 C2942 0.930 . S
H2951 C2943 0.929 . S
H2952 C2960 0.929 . S
H2953 C2962 0.930 . S
H2954 C2964 0.930 . S
H2955 C2967 0.929 . S
H2956 C2970 0.930 . S
H2957 C2972 0.960 . S
H2958 C2972 0.960 . S
H2959 C2972 0.960 . S
C2960 H2952 0.929 . S
C2960 C2961 1.377 . S
C2960 C2962 1.384 . S
C2961 C2960 1.377 . S
C2961 C2967 1.390 . S
C2962 H2953 0.930 . S
C2962 C2960 1.384 . S
C2962 C2963 1.372 . S
C2963 C2962 1.372 . S
C2963 C2964 1.400 . S
C2963 C2968 1.490 . S
C2964 H2954 0.930 . S
C2964 C2963 1.400 . S
C2964 C2967 1.386 . S
H2965 C2981 0.930 . S
H2966 C2982 0.931 . S
C2967 H2955 0.929 . S
C2967 C2961 1.390 . S
C2967 C2964 1.386 . S
C2968 C2963 1.490 . S
C2968 C2970 1.395 . S
C2968 C2971 1.403 . S
H2969 C2975 0.930 . S
C2970 H2956 0.930 . S
C2970 C2968 1.395 . S
C2970 C2973 1.403 . S
C2971 C2968 1.403 . S
C2971 C2972 1.524 . S
C2971 C2975 1.400 . S
C2972 H2957 0.960 . S
C2972 H2958 0.960 . S
C2972 H2959 0.960 . S
C2972 C2971 1.524 . S
C2973 C2970 1.403 . S
C2973 C2974 1.392 . S
C2973 C2977 1.495 . S
C2974 C2973 1.392 . S
C2974 C2975 1.385 . S
C2974 C2976 1.478 . S
C2975 H2969 0.930 . S
C2975 C2971 1.400 . S
C2975 C2974 1.385 . S
C2976 C2974 1.478 . S
C2976 C2978 1.381 . S
C2976 C2982 1.383 . S
C2977 C2973 1.495 . S
C2977 H2983 0.959 . S
C2977 H2984 0.961 . S
C2977 H2985 0.960 . S
C2978 C2976 1.381 . S
C2978 C2979 1.394 . S
C2978 H2986 0.930 . S
C2979 C2978 1.394 . S
C2979 C2980 1.383 . S
C2979 H2987 0.929 . S
C2980 C2979 1.383 . S
C2980 C2981 1.377 . S
C2981 H2965 0.930 . S
C2981 C2980 1.377 . S
C2981 C2982 1.379 . S
C2982 H2966 0.931 . S
C2982 C2976 1.383 . S
C2982 C2981 1.379 . S
H2983 C2977 0.959 . S
H2984 C2977 0.961 . S
H2985 C2977 0.960 . S
H2986 C2978 0.930 . S
H2987 C2979 0.929 . S
H2988 C2996 0.929 . S
H2989 C2998 0.930 . S
H2990 C3000 0.930 . S
H2991 C3003 0.929 . S
H2992 C3006 0.930 . S
H2993 C3008 0.960 . S
H2994 C3008 0.960 . S
H2995 C3008 0.960 . S
C2996 H2988 0.929 . S
C2996 C2997 1.377 . S
C2996 C2998 1.384 . S
C2997 C2996 1.377 . S
C2997 C3003 1.390 . S
C2998 H2989 0.930 . S
C2998 C2996 1.384 . S
C2998 C2999 1.372 . S
C2999 C2998 1.372 . S
C2999 C3000 1.400 . S
C2999 C3004 1.490 . S
C3000 H2990 0.930 . S
C3000 C2999 1.400 . S
C3000 C3003 1.386 . S
H3001 C3017 0.930 . S
H3002 C3018 0.931 . S
C3003 H2991 0.929 . S
C3003 C2997 1.390 . S
C3003 C3000 1.386 . S
C3004 C2999 1.490 . S
C3004 C3006 1.395 . S
C3004 C3007 1.403 . S
H3005 C3011 0.930 . S
C3006 H2992 0.930 . S
C3006 C3004 1.395 . S
C3006 C3009 1.403 . S
C3007 C3004 1.403 . S
C3007 C3008 1.524 . S
C3007 C3011 1.400 . S
C3008 H2993 0.960 . S
C3008 H2994 0.960 . S
C3008 H2995 0.960 . S
C3008 C3007 1.524 . S
C3009 C3006 1.403 . S
C3009 C3010 1.392 . S
C3009 C3013 1.495 . S
C3010 C3009 1.392 . S
C3010 C3011 1.385 . S
C3010 C3012 1.478 . S
C3011 H3005 0.930 . S
C3011 C3007 1.400 . S
C3011 C3010 1.385 . S
C3012 C3010 1.478 . S
C3012 C3014 1.381 . S
C3012 C3018 1.383 . S
C3013 C3009 1.495 . S
C3013 H3019 0.959 . S
C3013 H3020 0.961 . S
C3013 H3021 0.960 . S
C3014 C3012 1.381 . S
C3014 C3015 1.394 . S
C3014 H3022 0.930 . S
C3015 C3014 1.394 . S
C3015 C3016 1.383 . S
C3015 H3023 0.929 . S
C3016 C3015 1.383 . S
C3016 C3017 1.377 . S
C3017 H3001 0.930 . S
C3017 C3016 1.377 . S
C3017 C3018 1.379 . S
C3018 H3002 0.931 . S
C3018 C3012 1.383 . S
C3018 C3017 1.379 . S
H3019 C3013 0.959 . S
H3020 C3013 0.961 . S
H3021 C3013 0.960 . S
H3022 C3014 0.930 . S
H3023 C3015 0.929 . S
H3024 C3032 0.929 . S
H3025 C3034 0.930 . S
H3026 C3036 0.930 . S
H3027 C3039 0.929 . S
H3028 C3042 0.930 . S
H3029 C3044 0.960 . S
H3030 C3044 0.960 . S
H3031 C3044 0.960 . S
C3032 H3024 0.929 . S
C3032 C3033 1.377 . S
C3032 C3034 1.384 . S
C3033 C3032 1.377 . S
C3033 C3039 1.390 . S
C3034 H3025 0.930 . S
C3034 C3032 1.384 . S
C3034 C3035 1.372 . S
C3035 C3034 1.372 . S
C3035 C3036 1.400 . S
C3035 C3040 1.490 . S
C3036 H3026 0.930 . S
C3036 C3035 1.400 . S
C3036 C3039 1.386 . S
H3037 C3053 0.930 . S
H3038 C3054 0.931 . S
C3039 H3027 0.929 . S
C3039 C3033 1.390 . S
C3039 C3036 1.386 . S
C3040 C3035 1.490 . S
C3040 C3042 1.395 . S
C3040 C3043 1.403 . S
H3041 C3047 0.930 . S
C3042 H3028 0.930 . S
C3042 C3040 1.395 . S
C3042 C3045 1.403 . S
C3043 C3040 1.403 . S
C3043 C3044 1.524 . S
C3043 C3047 1.400 . S
C3044 H3029 0.960 . S
C3044 H3030 0.960 . S
C3044 H3031 0.960 . S
C3044 C3043 1.524 . S
C3045 C3042 1.403 . S
C3045 C3046 1.392 . S
C3045 C3049 1.495 . S
C3046 C3045 1.392 . S
C3046 C3047 1.385 . S
C3046 C3048 1.478 . S
C3047 H3041 0.930 . S
C3047 C3043 1.400 . S
C3047 C3046 1.385 . S
C3048 C3046 1.478 . S
C3048 C3050 1.381 . S
C3048 C3054 1.383 . S
C3049 C3045 1.495 . S
C3049 H3055 0.959 . S
C3049 H3056 0.961 . S
C3049 H3057 0.960 . S
C3050 C3048 1.381 . S
C3050 C3051 1.394 . S
C3050 H3058 0.930 . S
C3051 C3050 1.394 . S
C3051 C3052 1.383 . S
C3051 H3059 0.929 . S
C3052 C3051 1.383 . S
C3052 C3053 1.377 . S
C3053 H3037 0.930 . S
C3053 C3052 1.377 . S
C3053 C3054 1.379 . S
C3054 H3038 0.931 . S
C3054 C3048 1.383 . S
C3054 C3053 1.379 . S
H3055 C3049 0.959 . S
H3056 C3049 0.961 . S
H3057 C3049 0.960 . S
H3058 C3050 0.930 . S
H3059 C3051 0.929 . S
H3060 C3068 0.929 . S
H3061 C3070 0.930 . S
H3062 C3072 0.930 . S
H3063 C3075 0.929 . S
H3064 C3078 0.930 . S
H3065 C3080 0.960 . S
H3066 C3080 0.960 . S
H3067 C3080 0.960 . S
C3068 H3060 0.929 . S
C3068 C3069 1.377 . S
C3068 C3070 1.384 . S
C3069 C3068 1.377 . S
C3069 C3075 1.390 . S
C3070 H3061 0.930 . S
C3070 C3068 1.384 . S
C3070 C3071 1.372 . S
C3071 C3070 1.372 . S
C3071 C3072 1.400 . S
C3071 C3076 1.490 . S
C3072 H3062 0.930 . S
C3072 C3071 1.400 . S
C3072 C3075 1.386 . S
H3073 C3089 0.930 . S
H3074 C3090 0.931 . S
C3075 H3063 0.929 . S
C3075 C3069 1.390 . S
C3075 C3072 1.386 . S
C3076 C3071 1.490 . S
C3076 C3078 1.395 . S
C3076 C3079 1.403 . S
H3077 C3083 0.930 . S
C3078 H3064 0.930 . S
C3078 C3076 1.395 . S
C3078 C3081 1.403 . S
C3079 C3076 1.403 . S
C3079 C3080 1.524 . S
C3079 C3083 1.400 . S
C3080 H3065 0.960 . S
C3080 H3066 0.960 . S
C3080 H3067 0.960 . S
C3080 C3079 1.524 . S
C3081 C3078 1.403 . S
C3081 C3082 1.392 . S
C3081 C3085 1.495 . S
C3082 C3081 1.392 . S
C3082 C3083 1.385 . S
C3082 C3084 1.478 . S
C3083 H3077 0.930 . S
C3083 C3079 1.400 . S
C3083 C3082 1.385 . S
C3084 C3082 1.478 . S
C3084 C3086 1.381 . S
C3084 C3090 1.383 . S
C3085 C3081 1.495 . S
C3085 H3091 0.959 . S
C3085 H3092 0.961 . S
C3085 H3093 0.960 . S
C3086 C3084 1.381 . S
C3086 C3087 1.394 . S
C3086 H3094 0.930 . S
C3087 C3086 1.394 . S
C3087 C3088 1.383 . S
C3087 H3095 0.929 . S
C3088 C3087 1.383 . S
C3088 C3089 1.377 . S
C3089 H3073 0.930 . S
C3089 C3088 1.377 . S
C3089 C3090 1.379 . S
C3090 H3074 0.931 . S
C3090 C3084 1.383 . S
C3090 C3089 1.379 . S
H3091 C3085 0.959 . S
H3092 C3085 0.961 . S
H3093 C3085 0.960 . S
H3094 C3086 0.930 . S
H3095 C3087 0.929 . S
C513 C7 1.381 . S
C532 C259 1.368 . S
C549 C273 1.384 . S
C568 C21 1.360 . S
C585 C287 1.383 . S
C604 C35 1.360 . S
C621 C49 1.384 . S
C640 C469 1.397 . S
C657 C63 1.385 . S
C676 C483 1.361 . S
C693 C77 1.381 . S
C712 C497 1.373 . S
C729 C343 1.390 . S
C748 C91 1.398 . S
C765 C105 1.390 . S
C784 C357 1.403 . S
C801 C119 1.387 . S
C820 C371 1.404 . S
C837 C217 1.382 . S
C856 C133 1.362 . S
C873 C231 1.387 . S
C892 C147 1.366 . S
C909 C245 1.381 . S
C928 C161 1.367 . S
C945 C427 1.388 . S
C964 C175 1.371 . S
C981 C441 1.389 . S
C1000 C189 1.404 . S
C1017 C203 1.384 . S
C1036 C455 1.396 . S
C1053 C385 1.390 . S
C1072 C301 1.403 . S
C1089 C315 1.390 . S
C1108 C399 1.403 . S
C1125 C329 1.390 . S
C1144 C413 1.399 . S
C1161 C8 1.356 . S
C1180 C386 1.343 . S
C1197 C400 1.354 . S
C1216 C22 1.350 . S
C1233 C414 1.354 . S
C1252 C36 1.349 . S
C1269 C176 1.359 . S
C1288 C50 1.364 . S
C1305 C190 1.358 . S
C1324 C64 1.350 . S
C1341 C204 1.359 . S
C1360 C78 1.357 . S
C1377 C92 1.354 . S
C1396 C302 1.364 . S
C1413 C316 1.355 . S
C1432 C106 1.361 . S
C1449 C330 1.354 . S
C1468 C120 1.366 . S
C1485 C134 1.354 . S
C1504 C428 1.366 . S
C1521 C148 1.358 . S
C1540 C442 1.347 . S
C1557 C162 1.355 . S
C1576 C456 1.363 . S
C1593 C218 1.359 . S
C1612 C344 1.360 . S
C1629 C232 1.354 . S
C1648 C358 1.342 . S
C1665 C246 1.359 . S
C1684 C372 1.366 . S
C1701 C260 1.356 . S
C1720 C470 1.358 . S
C1737 C484 1.354 . S
C1756 C274 1.366 . S
C1773 C288 1.358 . S
C1792 C498 1.344 . S
C1809 C17 0.873 1_455 S
C1828 C9 0.867 . S
C1845 C23 0.834 . S
C1864 C31 0.893 . S
C1881 C37 0.859 . S
C1900 C3 0.853 1_565 S
C1917 C51 0.848 . S
C1936 C73 0.848 1_545 S
C1953 C45 0.877 1_655 S
C1972 C65 0.804 . S
C1989 C79 0.860 . S
C2008 C59 0.846 . S
C2025 C93 0.856 . S
C2044 C101 0.898 1_655 S
C2061 C107 0.837 . S
C2080 C115 0.839 . S
C2097 C121 0.859 . S
C2116 C87 0.901 1_545 S
C2133 C157 0.867 1_565 S
C2152 C135 0.798 . S
C2169 C149 0.837 . S
C2188 C129 0.850 1_455 S
C2205 C143 0.876 . S
C2224 C163 0.881 . S
C2241 C185 0.876 . S
C2260 C177 0.842 . S
C2277 C199 0.867 . S
C2296 C191 0.906 . S
C2313 C171 0.864 . S
C2332 C205 0.885 . S
C2349 C219 0.860 . S
C2368 C241 0.852 . S
C2385 C233 0.860 . S
C2404 C213 0.840 . S
C2421 C247 0.852 . S
C2440 C227 0.879 . S
C2457 C269 0.866 . S
C2476 C261 0.789 . S
C2493 C275 0.858 . S
C2512 C283 0.892 . S
C2529 C289 0.850 . S
C2548 C255 0.886 . S
C2565 C303 0.839 . S
C2584 C325 0.842 . S
C2601 C317 0.860 . S
C2620 C297 0.901 . S
C2637 C311 0.871 . S
C2656 C331 0.869 . S
C2673 C353 0.873 . S
C2692 C345 0.869 . S
C2709 C359 0.834 . S
C2728 C367 0.891 . S
C2745 C339 0.877 . S
C2764 C373 0.809 . S
C2781 C387 0.837 . S
C2800 C409 0.875 . S
C2817 C401 0.840 . S
C2836 C381 0.900 . S
C2853 C415 0.835 . S
C2872 C395 0.901 . S
C2889 C429 0.858 . S
C2908 C437 0.890 . S
C2925 C443 0.856 . S
C2944 C451 0.883 . S
C2961 C457 0.839 . S
C2980 C423 0.843 . S
C2997 C471 0.847 . S
C3016 C493 0.860 . S
C3033 C485 0.854 . S
C3052 C465 0.894 . S
C3069 C479 0.873 . S
C3088 C499 0.851 . S
