# Generated by pormake.
# Topology ung, (4)-cn, num edge types: 1
# Building blocks:
#     Node 0, Type 0, BuildingBlock: GALJAG_clean_sbu_0, # of connection points: 4
#     Node 1, Type 0, BuildingBlock: GALJAG_clean_sbu_0, # of connection points: 4
#     Node 2, Type 0, BuildingBlock: GALJAG_clean_sbu_0, # of connection points: 4
#     Node 3, Type 0, BuildingBlock: GALJAG_clean_sbu_0, # of connection points: 4
#     Node 4, Type 0, BuildingBlock: GALJAG_clean_sbu_0, # of connection points: 4
#     Node 5, Type 0, BuildingBlock: GALJAG_clean_sbu_0, # of connection points: 4
#     Node 6, Type 0, BuildingBlock: GALJAG_clean_sbu_0, # of connection points: 4
#     Node 7, Type 0, BuildingBlock: GALJAG_clean_sbu_0, # of connection points: 4
#     Node 8, Type 0, BuildingBlock: GALJAG_clean_sbu_0, # of connection points: 4
#     Node 9, Type 0, BuildingBlock: GALJAG_clean_sbu_0, # of connection points: 4
#     Node 10, Type 0, BuildingBlock: GALJAG_clean_sbu_0, # of connection points: 4
#     Node 11, Type 0, BuildingBlock: GALJAG_clean_sbu_0, # of connection points: 4
#     Node 12, Type 0, BuildingBlock: GALJAG_clean_sbu_0, # of connection points: 4
#     Node 13, Type 0, BuildingBlock: GALJAG_clean_sbu_0, # of connection points: 4
#     Node 14, Type 0, BuildingBlock: GALJAG_clean_sbu_0, # of connection points: 4
#     Node 15, Type 0, BuildingBlock: GALJAG_clean_sbu_0, # of connection points: 4
#     Node 16, Type 0, BuildingBlock: GALJAG_clean_sbu_0, # of connection points: 4
#     Node 17, Type 0, BuildingBlock: GALJAG_clean_sbu_0, # of connection points: 4
#     Edge 18, Type (0, 0), BuildingBlock: MIFKUJ_clean_linker_0, # of connection points: 2
#     Edge 19, Type (0, 0), BuildingBlock: MIFKUJ_clean_linker_0, # of connection points: 2
#     Edge 20, Type (0, 0), BuildingBlock: MIFKUJ_clean_linker_0, # of connection points: 2
#     Edge 21, Type (0, 0), BuildingBlock: MIFKUJ_clean_linker_0, # of connection points: 2
#     Edge 22, Type (0, 0), BuildingBlock: MIFKUJ_clean_linker_0, # of connection points: 2
#     Edge 23, Type (0, 0), BuildingBlock: MIFKUJ_clean_linker_0, # of connection points: 2
#     Edge 24, Type (0, 0), BuildingBlock: MIFKUJ_clean_linker_0, # of connection points: 2
#     Edge 25, Type (0, 0), BuildingBlock: MIFKUJ_clean_linker_0, # of connection points: 2
#     Edge 26, Type (0, 0), BuildingBlock: MIFKUJ_clean_linker_0, # of connection points: 2
#     Edge 27, Type (0, 0), BuildingBlock: MIFKUJ_clean_linker_0, # of connection points: 2
#     Edge 28, Type (0, 0), BuildingBlock: MIFKUJ_clean_linker_0, # of connection points: 2
#     Edge 29, Type (0, 0), BuildingBlock: MIFKUJ_clean_linker_0, # of connection points: 2
#     Edge 30, Type (0, 0), BuildingBlock: MIFKUJ_clean_linker_0, # of connection points: 2
#     Edge 31, Type (0, 0), BuildingBlock: MIFKUJ_clean_linker_0, # of connection points: 2
#     Edge 32, Type (0, 0), BuildingBlock: MIFKUJ_clean_linker_0, # of connection points: 2
#     Edge 33, Type (0, 0), BuildingBlock: MIFKUJ_clean_linker_0, # of connection points: 2
#     Edge 34, Type (0, 0), BuildingBlock: MIFKUJ_clean_linker_0, # of connection points: 2
#     Edge 35, Type (0, 0), BuildingBlock: MIFKUJ_clean_linker_0, # of connection points: 2
#     Edge 36, Type (0, 0), BuildingBlock: MIFKUJ_clean_linker_0, # of connection points: 2
#     Edge 37, Type (0, 0), BuildingBlock: MIFKUJ_clean_linker_0, # of connection points: 2
#     Edge 38, Type (0, 0), BuildingBlock: MIFKUJ_clean_linker_0, # of connection points: 2
#     Edge 39, Type (0, 0), BuildingBlock: MIFKUJ_clean_linker_0, # of connection points: 2
#     Edge 40, Type (0, 0), BuildingBlock: MIFKUJ_clean_linker_0, # of connection points: 2
#     Edge 41, Type (0, 0), BuildingBlock: MIFKUJ_clean_linker_0, # of connection points: 2
#     Edge 42, Type (0, 0), BuildingBlock: MIFKUJ_clean_linker_0, # of connection points: 2
#     Edge 43, Type (0, 0), BuildingBlock: MIFKUJ_clean_linker_0, # of connection points: 2
#     Edge 44, Type (0, 0), BuildingBlock: MIFKUJ_clean_linker_0, # of connection points: 2
#     Edge 45, Type (0, 0), BuildingBlock: MIFKUJ_clean_linker_0, # of connection points: 2
#     Edge 46, Type (0, 0), BuildingBlock: MIFKUJ_clean_linker_0, # of connection points: 2
#     Edge 47, Type (0, 0), BuildingBlock: MIFKUJ_clean_linker_0, # of connection points: 2
#     Edge 48, Type (0, 0), BuildingBlock: MIFKUJ_clean_linker_0, # of connection points: 2
#     Edge 49, Type (0, 0), BuildingBlock: MIFKUJ_clean_linker_0, # of connection points: 2
#     Edge 50, Type (0, 0), BuildingBlock: MIFKUJ_clean_linker_0, # of connection points: 2
#     Edge 51, Type (0, 0), BuildingBlock: MIFKUJ_clean_linker_0, # of connection points: 2
#     Edge 52, Type (0, 0), BuildingBlock: MIFKUJ_clean_linker_0, # of connection points: 2
#     Edge 53, Type (0, 0), BuildingBlock: MIFKUJ_clean_linker_0, # of connection points: 2
# Relax obj value: 0.030
# Max RMSD: 0.132
# Mean RMSD: 0.132
data_MOF--net-ung--node1-GALJAG_clean_sbu_0--edge1-MIFKUJ_clean_linker_0
_symmetry_space_group_name_H-M    P1
_symmetry_Int_Tables_number       1
_symmetry_cell_setting            triclinic
loop_
_symmetry_equiv_pos_as_xyz
'x, y, z'
_cell_length_a     101.75532
_cell_length_b     101.75699
_cell_length_c     26.169918
_cell_angle_alpha  89.976899
_cell_angle_beta   90.030963
_cell_angle_gamma 119.97923
loop_
_atom_site_label
_atom_site_type_symbol
_atom_site_fract_x
_atom_site_fract_y
_atom_site_fract_z
_atom_type_partial_charge
In0 In 0.09078 0.66481 0.2438 0.0
O1 O 0.10346 0.66111 0.17836 0.0
O2 O 0.07964 0.64612 0.18552 0.0
C3 C 0.1117 0.68978 0.2922 0.0
C4 C 0.08899 0.64445 0.31214 0.0
C5 C 0.07165 0.67412 0.21237 0.0
O6 O 0.11325 0.68725 0.24587 0.0
O7 O 0.09965 0.67984 0.31334 0.0
O8 O 0.06741 0.66306 0.24282 0.0
O9 O 0.08536 0.68034 0.1988 0.0
C10 C 0.09171 0.64949 0.16183 0.0
O11 O 0.07851 0.64767 0.30781 0.0
O12 O 0.1001 0.65151 0.28229 0.0
In13 In 0.52693 0.52351 0.25438 0.0
O14 O 0.53148 0.53886 0.18502 0.0
O15 O 0.55032 0.54182 0.22906 0.0
C16 C 0.49964 0.52119 0.26887 0.0
C17 C 0.54047 0.53064 0.34666 0.0
C18 C 0.52192 0.4971 0.2138 0.0
O19 O 0.50125 0.50989 0.26019 0.0
O20 O 0.5118 0.53382 0.2684 0.0
O21 O 0.52042 0.49862 0.26096 0.0
O22 O 0.52612 0.50891 0.1875 0.0
C23 C 0.54569 0.54595 0.19105 0.0
O24 O 0.54446 0.52478 0.31188 0.0
O25 O 0.52934 0.53226 0.33537 0.0
In26 In 0.66315 0.09296 0.246 0.0
O27 O 0.64745 0.08015 0.179 0.0
O28 O 0.6558 0.1039 0.18674 0.0
C29 C 0.66807 0.07274 0.29572 0.0
C30 C 0.64574 0.0963 0.31574 0.0
C31 C 0.69107 0.11158 0.21007 0.0
O32 O 0.65972 0.06906 0.25638 0.0
O33 O 0.67369 0.08639 0.3094 0.0
O34 O 0.68429 0.11633 0.23858 0.0
O35 O 0.68376 0.09756 0.20015 0.0
C36 C 0.64758 0.09188 0.16204 0.0
O37 O 0.65977 0.10574 0.31199 0.0
O38 O 0.64074 0.08537 0.28475 0.0
In39 In 0.09626 0.52449 0.74911 0.0
O40 O 0.10689 0.54122 0.68303 0.0
O41 O 0.08536 0.53657 0.71194 0.0
C42 C 0.11762 0.51799 0.7788 0.0
C43 C 0.09524 0.5396 0.83151 0.0
C44 C 0.07581 0.49852 0.70431 0.0
O45 O 0.12041 0.5283 0.74646 0.0
O46 O 0.10411 0.5109 0.79467 0.0
O47 O 0.0744 0.50145 0.7503 0.0
O48 O 0.08756 0.5085 0.68191 0.0
C49 C 0.09591 0.54374 0.68023 0.0
O50 O 0.08371 0.52751 0.81651 0.0
O51 O 0.10713 0.54364 0.80579 0.0
In52 In 0.66103 0.66843 0.7362 0.0
O53 O 0.6589 0.65365 0.80509 0.0
O54 O 0.63903 0.65321 0.77646 0.0
C55 C 0.68931 0.67788 0.70308 0.0
C56 C 0.64492 0.65032 0.65891 0.0
C57 C 0.66364 0.69436 0.77239 0.0
O58 O 0.68418 0.66997 0.74318 0.0
O59 O 0.68031 0.68117 0.68103 0.0
O60 O 0.66005 0.69034 0.72644 0.0
O61 O 0.66577 0.68533 0.7993 0.0
C62 C 0.64471 0.6483 0.80886 0.0
O63 O 0.6424 0.6605 0.67591 0.0
O64 O 0.6557 0.64965 0.68011 0.0
In65 In 0.52226 0.09233 0.75509 0.0
O66 O 0.53688 0.10464 0.82475 0.0
O67 O 0.5264 0.08057 0.82076 0.0
C68 C 0.52109 0.11446 0.70279 0.0
C69 C 0.54178 0.08894 0.69575 0.0
C70 C 0.49276 0.07312 0.7741 0.0
O71 O 0.52291 0.11513 0.75075 0.0
O72 O 0.51993 0.10276 0.68189 0.0
O73 O 0.50091 0.0689 0.75092 0.0
O74 O 0.49947 0.08693 0.78667 0.0
C75 C 0.53506 0.09254 0.84498 0.0
O76 O 0.52759 0.08006 0.69267 0.0
O77 O 0.54593 0.09934 0.72862 0.0
In78 In 0.75903 0.99598 0.5916 0.0
O79 O 0.74748 0.98241 0.6641 0.0
O80 O 0.77097 0.99031 0.6528 0.0
C81 C 0.7381 0.00056 0.5455 0.0
C82 C 0.75904 0.97546 0.52736 0.0
C83 C 0.78022 0.02478 0.6115 0.0
O84 O 0.73616 0.99517 0.59025 0.0
O85 O 0.75048 0.00356 0.5247 0.0
O86 O 0.78322 0.01597 0.5865 0.0
O87 O 0.7666 0.01909 0.62574 0.0
C88 C 0.75944 0.98296 0.68051 0.0
O89 O 0.76986 0.98902 0.52867 0.0
O90 O 0.74833 0.97244 0.55795 0.0
In91 In 0.19034 0.85783 0.5875 0.0
O92 O 0.19851 0.87462 0.52102 0.0
O93 O 0.21191 0.86481 0.54436 0.0
C94 C 0.16247 0.8518 0.61515 0.0
C95 C 0.20655 0.87441 0.66777 0.0
C96 C 0.18332 0.83095 0.54748 0.0
O97 O 0.17026 0.8622 0.58335 0.0
O98 O 0.16873 0.84465 0.63187 0.0
O99 O 0.18975 0.83515 0.59067 0.0
O100 O 0.18033 0.84022 0.52548 0.0
C101 C 0.21033 0.87363 0.51429 0.0
O102 O 0.20276 0.86057 0.66347 0.0
O103 O 0.20212 0.87958 0.63211 0.0
In104 In 0.33745 0.4342 0.57278 0.0
O105 O 0.32213 0.42147 0.50524 0.0
O106 O 0.33139 0.44541 0.51027 0.0
C107 C 0.34001 0.41252 0.62249 0.0
C108 C 0.31783 0.43669 0.63443 0.0
C109 C 0.36606 0.45396 0.54459 0.0
O110 O 0.33718 0.41163 0.57518 0.0
O111 O 0.34171 0.42434 0.64413 0.0
O112 O 0.35884 0.45774 0.57495 0.0
O113 O 0.35901 0.44027 0.53066 0.0
C114 C 0.32296 0.4333 0.48629 0.0
O115 O 0.33192 0.44615 0.63617 0.0
O116 O 0.3139 0.42618 0.60214 0.0
In117 In 0.76368 0.85616 0.08982 0.0
O118 O 0.77612 0.8754 0.03204 0.0
O119 O 0.75319 0.86847 0.05203 0.0
C120 C 0.78271 0.84704 0.12412 0.0
C121 C 0.76219 0.87015 0.17427 0.0
C122 C 0.74374 0.83188 0.03635 0.0
O123 O 0.78677 0.85721 0.09012 0.0
O124 O 0.76916 0.84143 0.13891 0.0
O125 O 0.74099 0.83425 0.08152 0.0
O126 O 0.75659 0.84152 0.0191 0.0
C127 C 0.76477 0.87726 0.02619 0.0
O128 O 0.75086 0.85798 0.15856 0.0
O129 O 0.77407 0.8749 0.14782 0.0
In130 In 0.32949 0.99195 0.10214 0.0
O131 O 0.32228 0.96783 0.12603 0.0
O132 O 0.33044 0.98477 0.18377 0.0
C133 C 0.35564 0.00105 0.05001 0.0
C134 C 0.30436 0.97795 0.04369 0.0
C135 C 0.33033 0.01583 0.14958 0.0
O136 O 0.34802 0.9879 0.06838 0.0
O137 O 0.35028 0.00958 0.05895 0.0
O138 O 0.32367 0.01093 0.10727 0.0
O139 O 0.3364 0.00866 0.16767 0.0
C140 C 0.32473 0.97089 0.17299 0.0
O141 O 0.31736 0.98648 0.02517 0.0
O142 O 0.30395 0.97709 0.09173 0.0
In143 In 0.19484 0.43259 0.07968 0.0
O144 O 0.19844 0.42023 0.01277 0.0
O145 O 0.21731 0.44052 0.04152 0.0
C146 C 0.16661 0.41459 0.11447 0.0
C147 C 0.21038 0.43261 0.16216 0.0
C148 C 0.19163 0.45401 0.03118 0.0
O149 O 0.173 0.40962 0.08498 0.0
O150 O 0.17441 0.42849 0.12545 0.0
O151 O 0.19833 0.45656 0.07388 0.0
O152 O 0.18653 0.44075 0.01398 0.0
C153 C 0.21245 0.42985 0.00951 0.0
O154 O 0.2107 0.44457 0.14683 0.0
O155 O 0.20196 0.42082 0.13666 0.0
In156 In 0.42358 0.32877 0.91383 0.0
O157 O 0.41141 0.31096 0.97602 0.0
O158 O 0.43467 0.31838 0.96013 0.0
C159 C 0.40299 0.33525 0.87596 0.0
C160 C 0.42505 0.31239 0.83662 0.0
C161 C 0.44316 0.35546 0.95657 0.0
O162 O 0.40088 0.3283 0.91795 0.0
O163 O 0.41541 0.33896 0.85408 0.0
O164 O 0.44588 0.35151 0.91382 0.0
O165 O 0.43064 0.3461 0.97651 0.0
C166 C 0.42301 0.30987 0.98606 0.0
O167 O 0.43641 0.32496 0.84939 0.0
O168 O 0.41315 0.30844 0.86227 0.0
In169 In 0.85971 0.18986 0.91344 0.0
O170 O 0.87623 0.19186 0.9763 0.0
O171 O 0.86601 0.20574 0.98022 0.0
C172 C 0.85446 0.16558 0.85786 0.0
C173 C 0.87775 0.21211 0.84885 0.0
C174 C 0.83195 0.18053 0.95078 0.0
O175 O 0.86219 0.16904 0.89859 0.0
O176 O 0.84952 0.17433 0.84579 0.0
O177 O 0.83886 0.19245 0.92403 0.0
O178 O 0.83898 0.17337 0.95761 0.0
C179 C 0.87507 0.20211 -0.00018 0.0
O180 O 0.86372 0.20759 0.8522 0.0
O181 O 0.88243 0.20542 0.87782 0.0
In182 In 0.00143 0.77116 0.92436 0.0
O183 O 0.99431 0.78091 0.99091 0.0
O184 O 0.97731 0.7654 0.94 0.0
C185 C 0.03068 0.79146 0.90598 0.0
C186 C 0.99156 0.77052 0.82895 0.0
C187 C 0.00264 0.74878 0.97481 0.0
O188 O 0.02165 0.79543 0.92388 0.0
O189 O 0.02505 0.77736 0.89978 0.0
O190 O -0.00165 0.74734 0.92876 0.0
O191 O 0.00621 0.7614 0.99488 0.0
C192 C 0.9804 0.77359 0.97917 0.0
O193 O 0.98874 0.7585 0.85236 0.0
O194 O -0.00058 0.78265 0.85358 0.0
In195 In 0.42518 0.18579 0.4164 0.0
O196 O 0.41369 0.19103 0.48185 0.0
O197 O 0.43705 0.20648 0.46638 0.0
C198 C 0.4031 0.15908 0.3805 0.0
C199 C 0.42576 0.20466 0.34408 0.0
C200 C 0.44627 0.17907 0.44783 0.0
O201 O 0.40331 0.16292 0.42655 0.0
O202 O 0.41406 0.16848 0.35362 0.0
O203 O 0.44726 0.18524 0.40495 0.0
O204 O 0.4346 0.17604 0.47337 0.0
C205 C 0.42555 0.20333 0.49323 0.0
O206 O 0.43692 0.20261 0.35127 0.0
O207 O 0.41452 0.19714 0.37299 0.0
In208 In 0.9962 0.33407 0.40024 0.0
O209 O 0.99264 0.31771 0.46574 0.0
O210 O 0.97333 0.3173 0.43224 0.0
C211 C 0.02538 0.34491 0.37488 0.0
C212 C 0.98233 0.32049 0.31277 0.0
C213 C 0.99781 0.35819 0.44766 0.0
O214 O 0.01778 0.33234 0.39764 0.0
O215 O 0.01833 0.35194 0.36624 0.0
O216 O 0.99454 0.35563 0.40071 0.0
O217 O 0.0001 0.34855 0.47019 0.0
C218 C 0.97836 0.31194 0.46535 0.0
O219 O 0.9795 0.32978 0.33538 0.0
O220 O 0.99242 0.31857 0.33346 0.0
In221 In 0.86066 0.76151 0.42139 0.0
O222 O 0.87055 0.74859 0.38152 0.0
O223 O 0.8593 0.75695 0.33516 0.0
C224 C 0.83372 0.74188 0.46338 0.0
C225 C 0.88361 0.76707 0.48522 0.0
C226 C 0.85992 0.78708 0.39997 0.0
O227 O 0.83574 0.74276 0.41559 0.0
O228 O 0.84518 0.75081 0.4893 0.0
O229 O 0.86957 0.78423 0.38065 0.0
O230 O 0.85121 0.77743 0.43219 0.0
C231 C 0.86701 0.75038 0.33707 0.0
O232 O 0.88325 0.77762 0.46097 0.0
O233 O 0.87231 0.75407 0.47817 0.0
H234 H 0.11898 0.56507 0.87099 0.0
H235 H 0.118 0.58317 0.9295 0.0
H236 H 0.06947 0.55444 0.94247 0.0
H237 H 0.07034 0.53628 0.88296 0.0
H238 H 0.07747 0.58347 0.92056 0.0
H239 H 0.09258 0.55839 0.04212 0.0
H240 H 0.10813 0.54793 0.07547 0.0
H241 H 0.14764 0.59234 0.07281 0.0
H242 H 0.13237 0.60304 0.0387 0.0
H243 H 0.06778 0.62405 0.12288 0.0
H244 H 0.06852 0.60543 0.06629 0.0
H245 H 0.11717 0.63335 0.05448 0.0
H246 H 0.11655 0.652 0.11227 0.0
H247 H 0.10891 0.60447 0.07647 0.0
H248 H 0.09405 0.62951 0.95367 0.0
H249 H 0.07871 0.64004 0.91897 0.0
H250 H 0.03894 0.59582 0.92308 0.0
H251 H 0.054 0.58506 0.95847 0.0
C252 C 0.10811 0.56247 0.88689 0.0
C253 C 0.09472 0.54929 0.87236 0.0
C254 C 0.10759 0.57281 0.92048 0.0
C255 C 0.09368 0.57011 0.9405 0.0
C256 C 0.08032 0.55671 0.92739 0.0
C257 C 0.08084 0.54632 0.89368 0.0
C258 C 0.09306 0.58182 0.97226 0.0
C259 C 0.08413 0.58789 0.95518 0.0
C260 C 0.10215 0.58788 0.01642 0.0
C261 C 0.11134 0.5815 0.03744 0.0
C262 C 0.1046 0.56591 0.04829 0.0
C263 C 0.11337 0.55994 0.06739 0.0
C264 C 0.12887 0.56946 0.07614 0.0
C265 C 0.13563 0.58498 0.06596 0.0
C266 C 0.12692 0.59101 0.04681 0.0
C267 C 0.07863 0.62636 0.10763 0.0
C268 C 0.09212 0.63947 0.12198 0.0
C269 C 0.07902 0.61572 0.07516 0.0
C270 C 0.09289 0.61805 0.05595 0.0
C271 C 0.10635 0.63135 0.06896 0.0
C272 C 0.10598 0.64203 0.10165 0.0
C273 C 0.09333 0.60615 0.02473 0.0
C274 C 0.10223 0.60004 0.04191 0.0
C275 C 0.08423 0.60006 0.98059 0.0
C276 C 0.07514 0.6065 0.95916 0.0
C277 C 0.08201 0.62205 0.94756 0.0
C278 C 0.07337 0.62806 0.92769 0.0
C279 C 0.05785 0.61861 0.91894 0.0
C280 C 0.05095 0.60313 0.92992 0.0
C281 C 0.05954 0.59706 0.94983 0.0
H282 H 0.05118 0.62329 0.90356 0.0
H283 H 0.13564 0.56481 0.09088 0.0
H284 H 0.65409 0.64058 0.89617 0.0
H285 H 0.63797 0.62354 0.96411 0.0
H286 H 0.59805 0.61417 0.87773 0.0
H287 H 0.61403 0.6314 0.81075 0.0
H288 H 0.59512 0.62023 0.97339 0.0
H289 H 0.61044 0.58828 0.88736 0.0
H290 H 0.6287 0.58147 0.85185 0.0
H291 H 0.64804 0.58545 0.00085 0.0
H292 H 0.63002 0.59248 0.03714 0.0
H293 H 0.53877 0.55483 0.10143 0.0
H294 H 0.55653 0.57301 0.03939 0.0
H295 H 0.59407 0.58156 0.13763 0.0
H296 H 0.57639 0.5632 0.1994 0.0
H297 H 0.59924 0.5768 0.04019 0.0
H298 H 0.58259 0.60756 0.12628 0.0
H299 H 0.56377 0.6138 0.16037 0.0
H300 H 0.54631 0.61148 0.0092 0.0
H301 H 0.56489 0.60502 0.97427 0.0
C302 C 0.64188 0.63478 0.89167 0.0
C303 C 0.63529 0.63735 0.84845 0.0
C304 C 0.63269 0.62504 0.93036 0.0
C305 C 0.6168 0.61756 0.92587 0.0
C306 C 0.61027 0.61991 0.88215 0.0
C307 C 0.61942 0.62973 0.84387 0.0
C308 C 0.60688 0.6076 0.96718 0.0
C309 C 0.59591 0.61063 0.98762 0.0
C310 C 0.60818 0.59533 0.98659 0.0
C311 C 0.61899 0.59106 0.96486 0.0
C312 C 0.61867 0.58782 0.91248 0.0
C313 C 0.62896 0.5839 0.89223 0.0
C314 C 0.63955 0.58307 0.92405 0.0
C315 C 0.63985 0.58612 0.97623 0.0
C316 C 0.62959 0.59006 0.99667 0.0
C317 C 0.5508 0.56069 0.10996 0.0
C318 C 0.55622 0.55763 0.15516 0.0
C319 C 0.56092 0.57109 0.07459 0.0
C320 C 0.5766 0.5787 0.08413 0.0
C321 C 0.58201 0.57578 0.12956 0.0
C322 C 0.5719 0.56535 0.16483 0.0
C323 C 0.58738 0.58933 0.0459 0.0
C324 C 0.59851 0.58645 0.02613 0.0
C325 C 0.58617 0.60169 0.02684 0.0
C326 C 0.57506 0.60569 0.04773 0.0
C327 C 0.57467 0.60828 0.10035 0.0
C328 C 0.56406 0.61187 0.11981 0.0
C329 C 0.55383 0.613 0.08699 0.0
C330 C 0.55423 0.61059 0.03459 0.0
C331 C 0.56481 0.60698 0.01493 0.0
H332 H 0.54562 0.61578 0.10213 0.0
H333 H 0.64751 0.58003 0.9083 0.0
H334 H 0.6464 0.11586 0.12229 0.0
H335 H 0.62687 0.11513 0.0665 0.0
H336 H 0.60644 0.0666 0.05259 0.0
H337 H 0.62598 0.06716 0.10936 0.0
H338 H 0.60763 0.08526 0.95701 0.0
H339 H 0.59025 0.07373 0.13213 0.0
H340 H 0.59475 0.07844 0.22466 0.0
H341 H 0.60196 0.12346 0.20468 0.0
H342 H 0.5977 0.11906 0.11181 0.0
H343 H 0.53442 0.06789 0.88731 0.0
H344 H 0.5532 0.06776 0.94483 0.0
H345 H 0.57527 0.11643 0.95837 0.0
H346 H 0.55659 0.11675 0.89965 0.0
H347 H 0.57292 0.09714 0.05458 0.0
H348 H 0.59099 0.10908 0.88016 0.0
H349 H 0.58723 0.10493 0.78723 0.0
H350 H 0.57921 0.05957 0.80542 0.0
H351 H 0.58269 0.06339 0.89879 0.0
C352 C 0.63796 0.10504 0.10658 0.0
C353 C 0.63757 0.09152 0.12069 0.0
C354 C 0.62685 0.10467 0.07462 0.0
C355 C 0.61522 0.09081 0.056 0.0
C356 C 0.6154 0.07739 0.0667 0.0
C357 C 0.62651 0.07773 0.09914 0.0
C358 C 0.60201 0.09033 0.03099 0.0
C359 C 0.59991 0.08763 0.97835 0.0
C360 C 0.59216 0.09372 0.05894 0.0
C361 C 0.59377 0.09611 0.11504 0.0
C362 C 0.59281 0.08464 0.14749 0.0
C363 C 0.59532 0.08725 0.19996 0.0
C364 C 0.59868 0.10125 0.22051 0.0
C365 C 0.59936 0.11261 0.18869 0.0
C366 C 0.59687 0.11006 0.13613 0.0
C367 C 0.54302 0.07856 0.90345 0.0
C368 C 0.54418 0.09237 0.88847 0.0
C369 C 0.55372 0.07844 0.93636 0.0
C370 C 0.56562 0.09208 0.95525 0.0
C371 C 0.56609 0.1058 0.94405 0.0
C372 C 0.55546 0.10596 0.91051 0.0
C373 C 0.57854 0.09207 0.9806 0.0
C374 C 0.58059 0.09469 0.03329 0.0
C375 C 0.58835 0.08862 0.95267 0.0
C376 C 0.58693 0.08646 0.89646 0.0
C377 C 0.58834 0.09819 0.86437 0.0
C378 C 0.58626 0.0959 0.81165 0.0
C379 C 0.58289 0.08197 0.79047 0.0
C380 C 0.58177 0.07034 0.82194 0.0
C381 C 0.58381 0.07256 0.87477 0.0
H382 H 0.58117 0.0802 0.74969 0.0
H383 H 0.60079 0.10328 0.26106 0.0
H384 H 0.615 0.08124 0.31603 0.0
H385 H 0.59827 0.08137 0.38244 0.0
H386 H 0.63714 0.11394 0.46873 0.0
H387 H 0.65405 0.11387 0.40194 0.0
H388 H 0.6171 0.08959 0.52678 0.0
H389 H 0.61508 0.12521 0.41406 0.0
H390 H 0.61182 0.13595 0.33376 0.0
H391 H 0.56597 0.09916 0.32146 0.0
H392 H 0.569 0.08808 0.40136 0.0
H393 H 0.57251 0.1044 0.70394 0.0
H394 H 0.59088 0.10547 0.64166 0.0
H395 H 0.55431 0.07293 0.54708 0.0
H396 H 0.53581 0.07181 0.60942 0.0
H397 H 0.57423 0.09869 0.49508 0.0
H398 H 0.57697 0.06269 0.60741 0.0
H399 H 0.58032 0.05291 0.68972 0.0
H400 H 0.62511 0.09145 0.70413 0.0
H401 H 0.62199 0.10154 0.62205 0.0
C402 C 0.62 0.08853 0.34894 0.0
C403 C 0.63581 0.09749 0.3541 0.0
C404 C 0.61042 0.08865 0.38669 0.0
C405 C 0.61648 0.09771 0.43032 0.0
C406 C 0.63227 0.10689 0.43522 0.0
C407 C 0.64189 0.10688 0.39709 0.0
C408 C 0.60623 0.09683 0.47184 0.0
C409 C 0.60788 0.09184 0.52017 0.0
C410 C 0.59402 0.09943 0.46268 0.0
C411 C 0.59231 0.10576 0.41359 0.0
C412 C 0.60435 0.11931 0.39396 0.0
C413 C 0.60252 0.1255 0.34863 0.0
C414 C 0.58867 0.11828 0.32269 0.0
C415 C 0.57667 0.10478 0.34175 0.0
C416 C 0.57844 0.09854 0.38706 0.0
C417 C 0.56839 0.0973 0.67023 0.0
C418 C 0.55275 0.08809 0.66124 0.0
C419 C 0.57889 0.09788 0.63482 0.0
C420 C 0.57393 0.08927 0.58986 0.0
C421 C 0.55833 0.07967 0.58162 0.0
C422 C 0.5478 0.079 0.61724 0.0
C423 C 0.58495 0.09121 0.54969 0.0
C424 C 0.58347 0.09646 0.50166 0.0
C425 C 0.59733 0.08892 0.55924 0.0
C426 C 0.5992 0.08293 0.60877 0.0
C427 C 0.58749 0.06914 0.62829 0.0
C428 C 0.58937 0.06351 0.6748 0.0
C429 C 0.60292 0.07154 0.70209 0.0
C430 C 0.61463 0.08523 0.68291 0.0
C431 C 0.61282 0.09089 0.63635 0.0
H432 H 0.60434 0.06718 0.73815 0.0
H433 H 0.58726 0.12312 0.28772 0.0
H434 H 0.06733 0.62835 0.38451 0.0
H435 H 0.0676 0.61055 0.44733 0.0
H436 H 0.11031 0.61827 0.38669 0.0
H437 H 0.11004 0.63579 0.32387 0.0
H438 H 0.09117 0.58861 0.4029 0.0
H439 H 0.10913 0.63545 0.49551 0.0
H440 H 0.10775 0.6574 0.52875 0.0
H441 H 0.0671 0.62745 0.61101 0.0
H442 H 0.06812 0.6053 0.57765 0.0
H443 H 0.11638 0.55996 0.60506 0.0
H444 H 0.1145 0.57679 0.54205 0.0
H445 H 0.07178 0.5675 0.60749 0.0
H446 H 0.07365 0.55088 0.67065 0.0
H447 H 0.08989 0.59734 0.5889 0.0
H448 H 0.07244 0.55048 0.49817 0.0
H449 H 0.07406 0.52863 0.46524 0.0
H450 H 0.11391 0.55869 0.37955 0.0
H451 H 0.11266 0.58075 0.41256 0.0
C452 C 0.07673 0.62618 0.38459 0.0
C453 C 0.08868 0.63347 0.34951 0.0
C454 C 0.07689 0.61608 0.42049 0.0
C455 C 0.08905 0.61321 0.4218 0.0
C456 C 0.10083 0.62032 0.38624 0.0
C457 C 0.10067 0.63037 0.35051 0.0
C458 C 0.0897 0.60296 0.46046 0.0
C459 C 0.09103 0.59059 0.44358 0.0
C460 C 0.08922 0.60541 0.51344 0.0
C461 C 0.08861 0.61872 0.53362 0.0
C462 C 0.09983 0.63354 0.52034 0.0
C463 C 0.09912 0.64602 0.53927 0.0
C464 C 0.08732 0.64382 0.57185 0.0
C465 C 0.07622 0.62914 0.58569 0.0
C466 C 0.07686 0.61662 0.56681 0.0
C467 C 0.10662 0.56155 0.60598 0.0
C468 C 0.09514 0.55409 0.64256 0.0
C469 C 0.10553 0.5711 0.56994 0.0
C470 C 0.09292 0.57325 0.56992 0.0
C471 C 0.08158 0.56598 0.6069 0.0
C472 C 0.08266 0.55646 0.64282 0.0
C473 C 0.09146 0.58305 0.53132 0.0
C474 C 0.08997 0.59533 0.54821 0.0
C475 C 0.0918 0.58052 0.47834 0.0
C476 C 0.09254 0.56727 0.45824 0.0
C477 C 0.08162 0.55244 0.47262 0.0
C478 C 0.08246 0.54001 0.45389 0.0
C479 C 0.0941 0.54227 0.42043 0.0
C480 C 0.10491 0.55696 0.40552 0.0
C481 C 0.10414 0.56943 0.4242 0.0
H482 H 0.09473 0.53264 0.40596 0.0
H483 H 0.08679 0.6535 0.58648 0.0
H484 H 0.61586 0.64224 0.63349 0.0
H485 H 0.59816 0.62008 0.58302 0.0
H486 H 0.6339 0.61019 0.55094 0.0
H487 H 0.65158 0.63216 0.60183 0.0
H488 H 0.61438 0.60673 0.4655 0.0
H489 H 0.61231 0.5918 0.64147 0.0
H490 H 0.6097 0.59434 0.73408 0.0
H491 H 0.56484 0.58726 0.71081 0.0
H492 H 0.5673 0.58496 0.61788 0.0
H493 H 0.56819 0.53414 0.37002 0.0
H494 H 0.58635 0.55234 0.43117 0.0
H495 H 0.55223 0.5623 0.48538 0.0
H496 H 0.53398 0.54397 0.42514 0.0
H497 H 0.57184 0.56512 0.56162 0.0
H498 H 0.57398 0.58175 0.38768 0.0
H499 H 0.57623 0.58035 0.29424 0.0
H500 H 0.62044 0.58535 0.31267 0.0
H501 H 0.61831 0.58647 0.40634 0.0
C502 C 0.62 0.63552 0.61476 0.0
C503 C 0.63502 0.63881 0.62165 0.0
C504 C 0.60988 0.62285 0.58628 0.0
C505 C 0.61475 0.61347 0.56398 0.0
C506 C 0.62998 0.6173 0.56811 0.0
C507 C 0.64002 0.62981 0.59715 0.0
C508 C 0.60376 0.59915 0.539 0.0
C509 C 0.6052 0.59753 0.48653 0.0
C510 C 0.5917 0.58733 0.56664 0.0
C511 C 0.59005 0.58836 0.62264 0.0
C512 C 0.60193 0.5909 0.65604 0.0
C513 C 0.60048 0.59228 0.7086 0.0
C514 C 0.58713 0.591 0.7283 0.0
C515 C 0.57518 0.58827 0.69549 0.0
C516 C 0.5766 0.58692 0.64286 0.0
C517 C 0.56441 0.5398 0.39624 0.0
C518 C 0.54981 0.53791 0.39218 0.0
C519 C 0.5748 0.55023 0.43097 0.0
C520 C 0.57071 0.55893 0.46169 0.0
C521 C 0.55564 0.55579 0.46166 0.0
C522 C 0.54524 0.54535 0.42709 0.0
C523 C 0.58244 0.57266 0.48795 0.0
C524 C 0.58111 0.57423 0.54064 0.0
C525 C 0.59454 0.58453 0.46041 0.0
C526 C 0.59591 0.58402 0.40405 0.0
C527 C 0.58413 0.58243 0.37183 0.0
C528 C 0.58539 0.58169 0.31883 0.0
C529 C 0.59846 0.58273 0.29755 0.0
C530 C 0.61031 0.58452 0.32922 0.0
C531 C 0.60908 0.5852 0.38227 0.0
H532 H 0.59944 0.58219 0.25652 0.0
H533 H 0.58603 0.5921 0.769 0.0
H534 H 0.73814 0.86301 0.23786 0.0
H535 H 0.73679 0.87902 0.30532 0.0
H536 H 0.78322 0.91321 0.27484 0.0
H537 H 0.78476 0.89719 0.20882 0.0
H538 H 0.77821 0.9109 0.37387 0.0
H539 H 0.75302 0.91524 0.22377 0.0
H540 H 0.73411 0.90559 0.15427 0.0
H541 H 0.69803 0.8874 0.2645 0.0
H542 H 0.71675 0.89678 0.33468 0.0
H543 H 0.78153 0.97828 0.46342 0.0
H544 H 0.78127 0.95856 0.40903 0.0
H545 H 0.73607 0.92674 0.4611 0.0
H546 H 0.73621 0.94637 0.51527 0.0
H547 H 0.73903 0.92609 0.3571 0.0
H548 H 0.76523 0.9244 0.50749 0.0
H549 H 0.78479 0.93515 0.57477 0.0
H550 H 0.81978 0.9496 0.46126 0.0
H551 H 0.80043 0.93912 0.39321 0.0
C552 C 0.74809 0.87386 0.2461 0.0
C553 C 0.76151 0.87892 0.21792 0.0
C554 C 0.74729 0.88301 0.28441 0.0
C555 C 0.75984 0.8974 0.2945 0.0
C556 C 0.7734 0.90216 0.26769 0.0
C557 C 0.77424 0.893 0.22981 0.0
C558 C 0.75879 0.90791 0.33111 0.0
C559 C 0.76969 0.91429 0.37004 0.0
C560 C 0.74753 0.91214 0.32657 0.0
C561 C 0.73627 0.90655 0.28443 0.0
C562 C 0.74105 0.90908 0.23316 0.0
C563 C 0.73037 0.90368 0.19366 0.0
C564 C 0.71488 0.89585 0.20496 0.0
C565 C 0.71003 0.89344 0.2558 0.0
C566 C 0.72067 0.8988 0.29546 0.0
C567 C 0.77155 0.96709 0.46316 0.0
C568 C 0.75891 0.96383 0.49358 0.0
C569 C 0.77143 0.95584 0.43233 0.0
C570 C 0.7587 0.94118 0.43158 0.0
C571 C 0.746 0.93798 0.46132 0.0
C572 C 0.74612 0.94919 0.49225 0.0
C573 C 0.75856 0.92921 0.39932 0.0
C574 C 0.74744 0.92257 0.36125 0.0
C575 C 0.76971 0.92487 0.40432 0.0
C576 C 0.78137 0.93108 0.44522 0.0
C577 C 0.7771 0.92996 0.49684 0.0
C578 C 0.78815 0.93599 0.53513 0.0
C579 C 0.80352 0.94308 0.52229 0.0
C580 C 0.80787 0.94412 0.47115 0.0
C581 C 0.79686 0.93812 0.43271 0.0
H582 H 0.81206 0.94774 0.55199 0.0
H583 H 0.70662 0.89168 0.17432 0.0
H584 H 0.22906 0.86571 0.46759 0.0
H585 H 0.24991 0.88103 0.40926 0.0
H586 H 0.23912 0.91697 0.41786 0.0
H587 H 0.21765 0.90123 0.4742 0.0
H588 H 0.24719 0.91553 0.32579 0.0
H589 H 0.2684 0.91662 0.49122 0.0
H590 H 0.27248 0.90536 0.56888 0.0
H591 H 0.29132 0.88365 0.47817 0.0
H592 H 0.28718 0.89462 0.3999 0.0
H593 H 0.3267 0.97456 0.27657 0.0
H594 H 0.30941 0.95611 0.33897 0.0
H595 H 0.29001 0.92218 0.22072 0.0
H596 H 0.3073 0.94044 0.15824 0.0
H597 H 0.2982 0.92365 0.37037 0.0
H598 H 0.25367 0.91382 0.21963 0.0
H599 H 0.25087 0.92715 0.14509 0.0
H600 H 0.28013 0.9701 0.2163 0.0
H601 H 0.28295 0.95702 0.29132 0.0
C602 C 0.23106 0.87682 0.45652 0.0
C603 C 0.22189 0.8824 0.47554 0.0
C604 C 0.24303 0.8856 0.42351 0.0
C605 C 0.24637 0.90033 0.41035 0.0
C606 C 0.23682 0.90568 0.42777 0.0
C607 C 0.22458 0.89671 0.45988 0.0
C608 C 0.26001 0.91024 0.37943 0.0
C609 C 0.2583 0.91726 0.33575 0.0
C610 C 0.27463 0.91273 0.39256 0.0
C611 C 0.27738 0.90635 0.43969 0.0
C612 C 0.27336 0.90939 0.48784 0.0
C613 C 0.27568 0.90307 0.53196 0.0
C614 C 0.28213 0.89378 0.52845 0.0
C615 C 0.28632 0.89084 0.48083 0.0
C616 C 0.284 0.89712 0.43659 0.0
C617 C 0.31918 0.963 0.2643 0.0
C618 C 0.31814 0.95899 0.21244 0.0
C619 C 0.30935 0.95248 0.30001 0.0
C620 C 0.29835 0.93793 0.28404 0.0
C621 C 0.29842 0.93342 0.23349 0.0
C622 C 0.30831 0.94388 0.19789 0.0
C623 C 0.28518 0.92857 0.31698 0.0
C624 C 0.28702 0.92176 0.36076 0.0
C625 C 0.27075 0.92656 0.30486 0.0
C626 C 0.26857 0.93445 0.26082 0.0
C627 C 0.2594 0.9261 0.21945 0.0
C628 C 0.25783 0.93361 0.17712 0.0
C629 C 0.26531 0.94946 0.17598 0.0
C630 C 0.27435 0.95783 0.21719 0.0
C631 C 0.27595 0.95038 0.25957 0.0
H632 H 0.26409 0.95525 0.1432 0.0
H633 H 0.2839 0.88887 0.56264 0.0
H634 H 0.32282 0.4574 0.44248 0.0
H635 H 0.30364 0.45676 0.38499 0.0
H636 H 0.2818 0.40797 0.37759 0.0
H637 H 0.30098 0.40847 0.43568 0.0
H638 H 0.28268 0.42297 0.28208 0.0
H639 H 0.26821 0.42072 0.45794 0.0
H640 H 0.27244 0.42913 0.54779 0.0
H641 H 0.27884 0.47252 0.50256 0.0
H642 H 0.27494 0.46446 0.41224 0.0
H643 H 0.21106 0.40813 0.20006 0.0
H644 H 0.23022 0.40818 0.25622 0.0
H645 H 0.25169 0.4568 0.27119 0.0
H646 H 0.23245 0.45687 0.21478 0.0
H647 H 0.25089 0.44159 0.36312 0.0
H648 H 0.2654 0.44383 0.18721 0.0
H649 H 0.26139 0.43548 0.0973 0.0
H650 H 0.25497 0.3921 0.14262 0.0
H651 H 0.25867 0.4001 0.23298 0.0
C652 C 0.31412 0.44654 0.42786 0.0
C653 C 0.31325 0.43295 0.44403 0.0
C654 C 0.30318 0.44621 0.3951 0.0
C655 C 0.29123 0.43231 0.37794 0.0
C656 C 0.29095 0.41879 0.39077 0.0
C657 C 0.30188 0.41909 0.42388 0.0
C658 C 0.27839 0.43192 0.35054 0.0
C659 C 0.27559 0.42684 0.29988 0.0
C660 C 0.26937 0.43725 0.37385 0.0
C661 C 0.27144 0.44204 0.42824 0.0
C662 C 0.27064 0.4321 0.46709 0.0
C663 C 0.27297 0.4368 0.51811 0.0
C664 C 0.27594 0.45136 0.53086 0.0
C665 C 0.27655 0.46124 0.49261 0.0
C666 C 0.27428 0.45662 0.44149 0.0
C667 C 0.2197 0.41882 0.21597 0.0
C668 C 0.22039 0.43254 0.20264 0.0
C669 C 0.23064 0.41882 0.24792 0.0
C670 C 0.24246 0.43252 0.26695 0.0
C671 C 0.24264 0.44613 0.25655 0.0
C672 C 0.23168 0.44616 0.22439 0.0
C673 C 0.25518 0.43266 0.29455 0.0
C674 C 0.25795 0.4377 0.34529 0.0
C675 C 0.26417 0.42728 0.27132 0.0
C676 C 0.26216 0.42251 0.21693 0.0
C677 C 0.26301 0.43247 0.17806 0.0
C678 C 0.26081 0.4278 0.127 0.0
C679 C 0.25789 0.41326 0.11427 0.0
C680 C 0.25722 0.40336 0.15256 0.0
C681 C 0.25937 0.40795 0.2037 0.0
H682 H 0.25619 0.40966 0.07472 0.0
H683 H 0.27775 0.45498 0.57039 0.0
H684 H 0.24304 0.44729 0.00495 0.0
H685 H 0.25986 0.44813 0.93726 0.0
H686 H 0.22166 0.41235 0.85708 0.0
H687 H 0.20465 0.4113 0.92557 0.0
H688 H 0.24643 0.4085 0.85637 0.0
H689 H 0.2359 0.44814 0.81724 0.0
H690 H 0.23344 0.47063 0.83482 0.0
H691 H 0.28096 0.49655 0.8701 0.0
H692 H 0.28366 0.47416 0.85335 0.0
H693 H 0.28717 0.41985 0.62742 0.0
H694 H 0.26844 0.41895 0.68759 0.0
H695 H 0.30427 0.45367 0.77896 0.0
H696 H 0.32318 0.45477 0.71825 0.0
H697 H 0.2794 0.45768 0.76972 0.0
H698 H 0.28933 0.41731 0.81237 0.0
H699 H 0.29152 0.3947 0.79399 0.0
H700 H 0.24454 0.36998 0.75073 0.0
H701 H 0.24213 0.39253 0.76816 0.0
C702 C 0.2382 0.43954 0.97304 0.0
C703 C 0.22252 0.42932 0.97019 0.0
C704 C 0.24782 0.44008 0.93432 0.0
C705 C 0.24194 0.43053 0.89173 0.0
C706 C 0.22637 0.41989 0.88956 0.0
C707 C 0.21669 0.4193 0.92859 0.0
C708 C 0.25218 0.43186 0.84952 0.0
C709 C 0.25345 0.41917 0.83676 0.0
C710 C 0.26151 0.44589 0.8247 0.0
C711 C 0.25996 0.45943 0.8344 0.0
C712 C 0.24581 0.45861 0.82908 0.0
C713 C 0.24437 0.47134 0.83884 0.0
C714 C 0.25703 0.485 0.85367 0.0
C715 C 0.27116 0.48596 0.85863 0.0
C716 C 0.27266 0.47326 0.84893 0.0
C717 C 0.29108 0.42738 0.66015 0.0
C718 C 0.30664 0.43726 0.66861 0.0
C719 C 0.28036 0.42683 0.69446 0.0
C720 C 0.28501 0.43604 0.7381 0.0
C721 C 0.30049 0.44642 0.74553 0.0
C722 C 0.31126 0.44702 0.71098 0.0
C723 C 0.27375 0.43436 0.77699 0.0
C724 C 0.2723 0.44698 0.78909 0.0
C725 C 0.2642 0.42026 0.80105 0.0
C726 C 0.2656 0.40665 0.79109 0.0
C727 C 0.2795 0.40708 0.79859 0.0
C728 C 0.28077 0.39428 0.7884 0.0
C729 C 0.26818 0.38093 0.77108 0.0
C730 C 0.25428 0.38034 0.76408 0.0
C731 C 0.25296 0.39312 0.77415 0.0
H732 H 0.26919 0.37103 0.7632 0.0
H733 H 0.25589 0.49484 0.86123 0.0
H734 H 0.74066 0.88051 0.00197 0.0
H735 H 0.7402 0.89965 0.94727 0.0
H736 H 0.78818 0.91944 0.91929 0.0
H737 H 0.78876 0.90016 0.97445 0.0
H738 H 0.77899 0.94087 0.94259 0.0
H739 H 0.76507 0.89893 0.82915 0.0
H740 H 0.75056 0.87222 0.80155 0.0
H741 H 0.70926 0.87391 0.80662 0.0
H742 H 0.72349 0.90058 0.83502 0.0
H743 H 0.78432 0.98435 0.72384 0.0
H744 H 0.78503 0.96768 0.78923 0.0
H745 H 0.73633 0.94548 0.80406 0.0
H746 H 0.73552 0.96208 0.7376 0.0
H747 H 0.74573 0.92543 0.78959 0.0
H748 H 0.75961 0.96763 0.90036 0.0
H749 H 0.77401 0.9943 0.92837 0.0
H750 H 0.81517 0.99229 0.92883 0.0
H751 H 0.80105 0.96565 0.9001 0.0
C752 C 0.75114 0.88891 0.98417 0.0
C753 C 0.76476 0.88882 0.99228 0.0
C754 C 0.75084 0.89982 0.95287 0.0
C755 C 0.76413 0.91086 0.92904 0.0
C756 C 0.77781 0.91096 0.93742 0.0
C757 C 0.77811 0.89994 0.96862 0.0
C758 C 0.76355 0.92219 0.89522 0.0
C759 C 0.7719 0.93757 0.90869 0.0
C760 C 0.75392 0.91774 0.85199 0.0
C761 C 0.74533 0.90171 0.83472 0.0
C762 C 0.75287 0.89357 0.82482 0.0
C763 C 0.74471 0.87844 0.80894 0.0
C764 C 0.729 0.87136 0.80246 0.0
C765 C 0.72143 0.8794 0.81172 0.0
C766 C 0.72954 0.89453 0.82767 0.0
C767 C 0.77377 0.9761 0.74162 0.0
C768 C 0.75985 0.97445 0.7255 0.0
C769 C 0.77421 0.96663 0.77921 0.0
C770 C 0.76075 0.95539 0.8017 0.0
C771 C 0.74685 0.9541 0.78715 0.0
C772 C 0.74641 0.96361 0.74943 0.0
C773 C 0.76115 0.9442 0.83687 0.0
C774 C 0.75277 0.92879 0.82359 0.0
C775 C 0.77074 0.94865 0.88027 0.0
C776 C 0.77928 0.96467 0.89764 0.0
C777 C 0.77175 0.97291 0.90602 0.0
C778 C 0.77986 0.98801 0.92211 0.0
C779 C 0.7955 0.995 0.93026 0.0
C780 C 0.80305 0.98687 0.92245 0.0
C781 C 0.795 0.97176 0.90632 0.0
H782 H 0.80176 0.00669 0.94273 0.0
H783 H 0.72269 0.85965 0.79016 0.0
H784 H 0.3 0.98174 0.94328 0.0
H785 H 0.28012 0.96315 0.88701 0.0
H786 H 0.25994 0.93272 0.01461 0.0
H787 H 0.27957 0.95138 0.07128 0.0
H788 H 0.26898 0.92155 0.92146 0.0
H789 H 0.23996 0.9447 0.97527 0.0
H790 H 0.23585 0.96626 0.99099 0.0
H791 H 0.24315 0.97812 0.83193 0.0
H792 H 0.24753 0.95675 0.81537 0.0
H793 H 0.21046 0.86572 0.7631 0.0
H794 H 0.22452 0.88241 0.83482 0.0
H795 H 0.23728 0.92159 0.73926 0.0
H796 H 0.22275 0.90505 0.66889 0.0
H797 H 0.22977 0.92687 0.82603 0.0
H798 H 0.262 0.90765 0.77065 0.0
H799 H 0.2687 0.88812 0.74946 0.0
H800 H 0.25856 0.87117 0.90317 0.0
H801 H 0.25161 0.8905 0.9251 0.0
C802 C 0.29111 0.97124 0.95947 0.0
C803 C 0.29124 0.968 0.01155 0.0
C804 C 0.27981 0.96065 0.9274 0.0
C805 C 0.26865 0.94662 0.94686 0.0
C806 C 0.26847 0.94354 -0.00088 0.0
C807 C 0.2796 0.95424 0.0314 0.0
C808 C 0.25799 0.93477 0.91163 0.0
C809 C 0.26017 0.92248 0.90123 0.0
C810 C 0.24692 0.93638 0.88437 0.0
C811 C 0.2442 0.94919 0.89418 0.0
C812 C 0.24082 0.95198 0.94372 0.0
C813 C 0.23841 0.96415 0.95276 0.0
C814 C 0.23927 0.97357 0.9125 0.0
C815 C 0.2425 0.97081 0.86308 0.0
C816 C 0.24493 0.95866 0.85384 0.0
C817 C 0.21633 0.87789 0.75762 0.0
C818 C 0.21554 0.88412 0.71063 0.0
C819 C 0.22438 0.88742 0.79846 0.0
C820 C 0.23207 0.90328 0.79238 0.0
C821 C 0.23136 0.90942 0.74513 0.0
C822 C 0.22311 0.89995 0.70482 0.0
C823 C 0.24088 0.91365 0.83481 0.0
C824 C 0.2384 0.92571 0.84662 0.0
C825 C 0.25198 0.91205 0.86244 0.0
C826 C 0.2561 0.90039 0.84932 0.0
C827 C 0.26107 0.89968 0.79981 0.0
C828 C 0.26494 0.88866 0.78769 0.0
C829 C 0.264 0.87837 0.8249 0.0
C830 C 0.25924 0.87912 0.87435 0.0
C831 C 0.25534 0.89011 0.88666 0.0
H832 H 0.26701 0.86985 0.81545 0.0
H833 H 0.2374 0.98299 0.91958 0.0
H834 H 0.40152 0.28621 0.8005 0.0
H835 H 0.40256 0.26819 0.74173 0.0
H836 H 0.45088 0.29764 0.72534 0.0
H837 H 0.4499 0.31594 0.78411 0.0
H838 H 0.4365 0.28485 0.63363 0.0
H839 H 0.43837 0.26828 0.80341 0.0
H840 H 0.42994 0.2614 0.89264 0.0
H841 H 0.38704 0.22506 0.84079 0.0
H842 H 0.39512 0.23188 0.75119 0.0
H843 H 0.45015 0.22937 0.52552 0.0
H844 H 0.45065 0.24808 0.58493 0.0
H845 H 0.40241 0.22007 0.60847 0.0
H846 H 0.40184 0.20111 0.54929 0.0
H847 H 0.41777 0.23251 0.69764 0.0
H848 H 0.41563 0.24954 0.52803 0.0
H849 H 0.42396 0.2565 0.43874 0.0
H850 H 0.46738 0.292 0.49035 0.0
H851 H 0.45938 0.2851 0.58001 0.0
C852 C 0.41236 0.28894 0.78407 0.0
C853 C 0.42567 0.30241 0.79717 0.0
C854 C 0.41293 0.27861 0.75066 0.0
C855 C 0.42683 0.28148 0.73006 0.0
C856 C 0.44006 0.29522 0.74119 0.0
C857 C 0.43949 0.30563 0.77468 0.0
C858 C 0.42749 0.26984 0.69825 0.0
C859 C 0.43264 0.27348 0.64778 0.0
C860 C 0.42215 0.25493 0.71667 0.0
C861 C 0.41731 0.25068 0.77056 0.0
C862 C 0.4271 0.25889 0.81102 0.0
C863 C 0.42239 0.255 0.86167 0.0
C864 C 0.40795 0.24282 0.87238 0.0
C865 C 0.39821 0.2345 0.83244 0.0
C866 C 0.40286 0.23837 0.78171 0.0
C867 C 0.43966 0.22712 0.54366 0.0
C868 C 0.42592 0.21385 0.53255 0.0
C869 C 0.43997 0.23785 0.57742 0.0
C870 C 0.42653 0.23556 0.60031 0.0
C871 C 0.41289 0.22204 0.59092 0.0
C872 C 0.41257 0.21125 0.55715 0.0
C873 C 0.42669 0.24749 0.63288 0.0
C874 C 0.42169 0.2439 0.68353 0.0
C875 C 0.43218 0.26244 0.61462 0.0
C876 C 0.43696 0.2667 0.56073 0.0
C877 C 0.427 0.25876 0.52034 0.0
C878 C 0.43165 0.2627 0.46966 0.0
C879 C 0.4462 0.27466 0.45888 0.0
C880 C 0.45612 0.28273 0.49876 0.0
C881 C 0.45153 0.27881 0.54952 0.0
H882 H 0.44979 0.2777 0.41962 0.0
H883 H 0.40432 0.23983 0.91162 0.0
H884 H 0.87012 0.22396 0.76783 0.0
H885 H 0.88735 0.24145 0.70277 0.0
H886 H 0.92555 0.24375 0.7827 0.0
H887 H 0.9085 0.22645 0.84772 0.0
H888 H 0.93165 0.27145 0.74749 0.0
H889 H 0.91068 0.22052 0.68293 0.0
H890 H 0.89003 0.19506 0.65893 0.0
H891 H 0.87342 0.21483 0.54989 0.0
H892 H 0.89385 0.24044 0.57381 0.0
H893 H 0.98616 0.30118 0.54904 0.0
H894 H 0.96899 0.2839 0.61453 0.0
H895 H 0.93058 0.27994 0.53107 0.0
H896 H 0.94757 0.29689 0.46533 0.0
H897 H 0.92452 0.25312 0.56834 0.0
H898 H 0.94537 0.304 0.63223 0.0
H899 H 0.96586 0.32954 0.65622 0.0
H900 H 0.98249 0.31008 0.7664 0.0
H901 H 0.96222 0.28439 0.74251 0.0
C902 C 0.88221 0.22836 0.77174 0.0
C903 C 0.88798 0.22375 0.81237 0.0
C904 C 0.89201 0.23827 0.73454 0.0
C905 C 0.90768 0.24368 0.73765 0.0
C906 C 0.91349 0.23963 0.77953 0.0
C907 C 0.90373 0.2297 0.81648 0.0
C908 C 0.91801 0.25303 0.69626 0.0
C909 C 0.9302 0.2674 0.70839 0.0
C910 C 0.91593 0.24779 0.64521 0.0
C911 C 0.90369 0.2324 0.63056 0.0
C912 C 0.90255 0.21944 0.65413 0.0
C913 C 0.8909 0.20498 0.6405 0.0
C914 C 0.88039 0.20333 0.60301 0.0
C915 C 0.88155 0.21613 0.57898 0.0
C916 C 0.89316 0.23062 0.59254 0.0
C917 C 0.97405 0.29647 0.54448 0.0
C918 C 0.9682 0.30048 0.50249 0.0
C919 C 0.96427 0.28669 0.58196 0.0
C920 C 0.94855 0.28088 0.57805 0.0
C921 C 0.94268 0.28436 0.53496 0.0
C922 C 0.95241 0.2941 0.49755 0.0
C923 C 0.93818 0.27157 0.6195 0.0
C924 C 0.92598 0.25719 0.6074 0.0
C925 C 0.94023 0.27683 0.67056 0.0
C926 C 0.95237 0.29227 0.6852 0.0
C927 C 0.95347 0.30516 0.6613 0.0
C928 C 0.96503 0.31967 0.67491 0.0
C929 C 0.97549 0.32143 0.71271 0.0
C930 C 0.97439 0.30869 0.73707 0.0
C931 C 0.96286 0.29416 0.72353 0.0
H932 H 0.98444 0.33267 0.7232 0.0
H933 H 0.87138 0.19212 0.59251 0.0
H934 H 0.96771 0.74668 0.78149 0.0
H935 H 0.95324 0.74806 0.70925 0.0
H936 H 0.98546 0.79583 0.69267 0.0
H937 H -0.00025 0.79456 0.76574 0.0
H938 H 0.95801 0.7915 0.70087 0.0
H939 H 0.98099 0.76995 0.59874 0.0
H940 H 0.98966 0.75204 0.5757 0.0
H941 H 0.94361 0.71527 0.57621 0.0
H942 H 0.93466 0.73292 0.60003 0.0
H943 H 0.91108 0.79304 0.49757 0.0
H944 H 0.93315 0.79568 0.54472 0.0
H945 H 0.90741 0.74863 0.5895 0.0
H946 H 0.88553 0.74588 0.54233 0.0
H947 H 0.93531 0.75587 0.55549 0.0
H948 H 0.91336 0.77686 0.67194 0.0
H949 H 0.9046 0.79458 0.69711 0.0
H950 H 0.94916 0.83239 0.66983 0.0
H951 H 0.95813 0.81488 0.64389 0.0
C952 C 0.97192 0.75737 0.76156 0.0
C953 C 0.98472 0.77054 0.77944 0.0
C954 C 0.96368 0.75815 0.72014 0.0
C955 C 0.96828 0.77207 0.69552 0.0
C956 C 0.98168 0.78501 0.71126 0.0
C957 C 0.98983 0.78426 0.75292 0.0
C958 C 0.95814 0.77345 0.65801 0.0
C959 C 0.95334 0.78396 0.66829 0.0
C960 C 0.95185 0.76344 0.61609 0.0
C961 C 0.95716 0.75277 0.60146 0.0
C962 C 0.97271 0.75803 0.59429 0.0
C963 C 0.97768 0.74792 0.58103 0.0
C964 C 0.9672 0.73252 0.57455 0.0
C965 C 0.95172 0.7272 0.58123 0.0
C966 C 0.94669 0.73726 0.59453 0.0
C967 C 0.91014 0.78332 0.51785 0.0
C968 C 0.89661 0.76927 0.51643 0.0
C969 C 0.92273 0.78483 0.54459 0.0
C970 C 0.92189 0.77233 0.57045 0.0
C971 C 0.90833 0.75837 0.56942 0.0
C972 C 0.89581 0.75686 0.54275 0.0
C973 C 0.93498 0.77361 0.59934 0.0
C974 C 0.94029 0.76362 0.58741 0.0
C975 C 0.94175 0.78408 0.63979 0.0
C976 C 0.93636 0.79458 0.65536 0.0
C977 C 0.92125 0.78896 0.67089 0.0
C978 C 0.91626 0.79896 0.68538 0.0
C979 C 0.92631 0.8146 0.6849 0.0
C980 C 0.94138 0.82027 0.67007 0.0
C981 C 0.94643 0.81032 0.65549 0.0
H982 H 0.92242 0.82232 0.69615 0.0
H983 H 0.97107 0.72471 0.5643 0.0
H984 H 0.86381 0.75622 0.23708 0.0
H985 H 0.88084 0.75878 0.16656 0.0
H986 H 0.9042 0.74319 0.26505 0.0
H987 H 0.88713 0.74025 0.33512 0.0
H988 H 0.91941 0.77745 0.20959 0.0
H989 H 0.8931 0.7215 0.19431 0.0
H990 H 0.87001 0.6968 0.17965 0.0
H991 H 0.86308 0.71269 0.03568 0.0
H992 H 0.88603 0.73758 0.04995 0.0
H993 H 0.98114 0.77919 0.08122 0.0
H994 H 0.95974 0.7749 0.13509 0.0
H995 H 0.93115 0.76352 0.00144 0.0
H996 H 0.95234 0.76698 0.948 0.0
H997 H 0.91659 0.74367 0.06829 0.0
H998 H 0.94372 0.79759 0.07323 0.0
H999 H 0.96565 0.82333 0.08403 0.0
H1000 H 0.96977 0.81359 0.24097 0.0
H1001 H 0.94799 0.78772 0.23095 0.0
C1002 C 0.87222 0.75281 0.24312 0.0
C1003 C 0.87423 0.74814 0.29166 0.0
C1004 C 0.88194 0.75433 0.20292 0.0
C1005 C 0.89372 0.75121 0.211 0.0
C1006 C 0.89508 0.74557 0.25828 0.0
C1007 C 0.8853 0.74387 0.29818 0.0
C1008 C 0.90591 0.75582 0.17303 0.0
C1009 C 0.91892 0.77009 0.17874 0.0
C1010 C 0.90487 0.74638 0.13204 0.0
C1011 C 0.89113 0.73145 0.12355 0.0
C1012 C 0.88655 0.71979 0.15986 0.0
C1013 C 0.87352 0.70574 0.15153 0.0
C1014 C 0.86505 0.7032 0.10686 0.0
C1015 C 0.86962 0.71469 0.07033 0.0
C1016 C 0.88264 0.72876 0.07851 0.0
C1017 C 0.97035 0.77604 0.06338 0.0
C1018 C 0.96834 0.77341 0.01062 0.0
C1019 C 0.95812 0.77364 0.09411 0.0
C1020 C 0.94381 0.76902 0.07233 0.0
C1021 C 0.94203 0.76701 0.01921 0.0
C1022 C 0.95415 0.76906 0.9887 0.0
C1023 C 0.93052 0.76531 0.10523 0.0
C1024 C 0.9172 0.75122 0.09861 0.0
C1025 C 0.93118 0.77508 0.14493 0.0
C1026 C 0.94428 0.79066 0.1512 0.0
C1027 C 0.94936 0.8009 0.10995 0.0
C1028 C 0.96176 0.81552 0.11595 0.0
C1029 C 0.96912 0.82008 0.16313 0.0
C1030 C 0.96407 0.81004 0.20444 0.0
C1031 C 0.95168 0.7954 0.19864 0.0
H1032 H 0.97872 0.83141 0.16769 0.0
H1033 H 0.85497 0.69231 0.10046 0.0
H1034 H 0.40247 0.20942 0.32096 0.0
H1035 H 0.40225 0.22719 0.25897 0.0
H1036 H 0.44857 0.24154 0.21806 0.0
H1037 H 0.44892 0.22375 0.2807 0.0
H1038 H 0.44364 0.2655 0.23377 0.0
H1039 H 0.42064 0.219 0.13891 0.0
H1040 H 0.40252 0.19192 0.12359 0.0
H1041 H 0.36531 0.20036 0.13621 0.0
H1042 H 0.3832 0.22748 0.15237 0.0
H1043 H 0.44656 0.30562 0.0102 0.0
H1044 H 0.44685 0.28772 0.07138 0.0
H1045 H 0.40009 0.27219 0.10948 0.0
H1046 H 0.39964 0.29004 0.04734 0.0
H1047 H 0.40531 0.24879 0.09508 0.0
H1048 H 0.42814 0.29516 0.19041 0.0
H1049 H 0.44614 0.32224 0.20635 0.0
H1050 H 0.48352 0.31405 0.19361 0.0
H1051 H 0.46574 0.28694 0.17686 0.0
C1052 C 0.41261 0.2163 0.29866 0.0
C1053 C 0.42572 0.21518 0.30549 0.0
C1054 C 0.41243 0.2264 0.26314 0.0
C1055 C 0.42533 0.23553 0.23363 0.0
C1056 C 0.43849 0.23452 0.24046 0.0
C1057 C 0.43866 0.22435 0.27603 0.0
C1058 C 0.42508 0.24635 0.19649 0.0
C1059 C 0.43543 0.26185 0.20292 0.0
C1060 C 0.41406 0.24155 0.15728 0.0
C1061 C 0.40326 0.22525 0.14732 0.0
C1062 C 0.40859 0.21507 0.13883 0.0
C1063 C 0.39835 0.19971 0.12992 0.0
C1064 C 0.38277 0.19442 0.12905 0.0
C1065 C 0.37738 0.20448 0.13695 0.0
C1066 C 0.38757 0.21985 0.14594 0.0
C1067 C 0.43633 0.29845 0.03172 0.0
C1068 C 0.42308 0.29925 0.0242 0.0
C1069 C 0.43655 0.28827 0.0668 0.0
C1070 C 0.42355 0.27879 0.09539 0.0
C1071 C 0.41025 0.27948 0.08783 0.0
C1072 C 0.41001 0.28968 0.05254 0.0
C1073 C 0.42387 0.26795 0.13235 0.0
C1074 C 0.41353 0.25244 0.12591 0.0
C1075 C 0.43488 0.27275 0.17162 0.0
C1076 C 0.44561 0.28904 0.18191 0.0
C1077 C 0.4402 0.29915 0.19061 0.0
C1078 C 0.45037 0.3145 0.19986 0.0
C1079 C 0.46597 0.31987 0.20087 0.0
C1080 C 0.47143 0.30988 0.19276 0.0
C1081 C 0.46131 0.29452 0.18344 0.0
H1082 H 0.47382 0.33176 0.20803 0.0
H1083 H 0.37487 0.18252 0.12215 0.0
H1084 H 0.95476 0.31566 0.28068 0.0
H1085 H 0.93692 0.29502 0.22529 0.0
H1086 H 0.97077 0.28226 0.19603 0.0
H1087 H 0.98863 0.30282 0.2514 0.0
H1088 H 0.95229 0.27911 0.10994 0.0
H1089 H 0.94793 0.26527 0.28769 0.0
H1090 H 0.94514 0.26886 0.37941 0.0
H1091 H 0.90181 0.26502 0.3505 0.0
H1092 H 0.9045 0.26172 0.25837 0.0
H1093 H 0.90215 0.20469 0.02738 0.0
H1094 H 0.92107 0.22397 0.08451 0.0
H1095 H 0.88941 0.23885 0.12386 0.0
H1096 H 0.87054 0.2197 0.06702 0.0
H1097 H 0.90756 0.24029 0.20605 0.0
H1098 H 0.91228 0.2554 0.02895 0.0
H1099 H 0.91491 0.25223 0.93677 0.0
H1100 H 0.95736 0.25397 0.96415 0.0
H1101 H 0.95482 0.25685 0.0567 0.0
C1102 C 0.95853 0.30874 0.26124 0.0
C1103 C 0.97298 0.31069 0.2707 0.0
C1104 C 0.94833 0.29693 0.22987 0.0
C1105 C 0.9525 0.28702 0.20746 0.0
C1106 C 0.96735 0.28978 0.21325 0.0
C1107 C 0.97751 0.30149 0.24492 0.0
C1108 C 0.94097 0.27288 0.1828 0.0
C1109 C 0.94261 0.27053 0.131 0.0
C1110 C 0.92831 0.26179 0.21048 0.0
C1111 C 0.92649 0.2634 0.26604 0.0
C1112 C 0.93786 0.2653 0.30083 0.0
C1113 C 0.93629 0.26728 0.35289 0.0
C1114 C 0.92332 0.26721 0.37076 0.0
C1115 C 0.91187 0.2651 0.33659 0.0
C1116 C 0.9134 0.26317 0.28444 0.0
C1117 C 0.8991 0.21177 0.04946 0.0
C1118 C 0.885 0.21088 0.04245 0.0
C1119 C 0.90991 0.2228 0.08181 0.0
C1120 C 0.90667 0.23296 0.10757 0.0
C1121 C 0.89212 0.23114 0.10412 0.0
C1122 C 0.88138 0.22024 0.07154 0.0
C1123 C 0.91883 0.24655 0.13308 0.0
C1124 C 0.9173 0.24881 0.18507 0.0
C1125 C 0.93157 0.25757 0.10554 0.0
C1126 C 0.93328 0.25616 0.04981 0.0
C1127 C 0.92212 0.255 0.01536 0.0
C1128 C 0.92359 0.25326 0.96304 0.0
C1129 C 0.93627 0.25286 0.94463 0.0
C1130 C 0.94753 0.25425 0.97848 0.0
C1131 C 0.94608 0.25593 0.03088 0.0
H1132 H 0.93739 0.2515 0.90411 0.0
H1133 H 0.92214 0.26876 0.41108 0.0
H1134 H 0.13108 0.71769 0.25253 0.0
H1135 H 0.14694 0.74107 0.30027 0.0
H1136 H 0.13342 0.7158 0.44172 0.0
H1137 H 0.11689 0.69267 0.39417 0.0
H1138 H 0.13059 0.73861 0.45317 0.0
H1139 H 0.17108 0.73277 0.38888 0.0
H1140 H 0.18636 0.72859 0.32478 0.0
H1141 H 0.1952 0.76926 0.2463 0.0
H1142 H 0.1798 0.77359 0.30952 0.0
H1143 H 0.18039 0.80556 0.59419 0.0
H1144 H 0.17192 0.78069 0.55461 0.0
H1145 H 0.16946 0.79877 0.4081 0.0
H1146 H 0.17759 0.82345 0.44735 0.0
H1147 H 0.18266 0.77889 0.40737 0.0
H1148 H 0.13877 0.78172 0.46869 0.0
H1149 H 0.12409 0.78569 0.53575 0.0
H1150 H 0.12292 0.74961 0.62448 0.0
H1151 H 0.13781 0.74559 0.5582 0.0
C1152 C 0.13171 0.71715 0.29375 0.0
C1153 C 0.12275 0.70347 0.31981 0.0
C1154 C 0.14085 0.73048 0.32106 0.0
C1155 C 0.14153 0.73023 0.37474 0.0
C1156 C 0.13306 0.71635 0.40043 0.0
C1157 C 0.12364 0.70313 0.37327 0.0
C1158 C 0.14989 0.74455 0.40436 0.0
C1159 C 0.14212 0.74721 0.44376 0.0
C1160 C 0.16487 0.75597 0.39191 0.0
C1161 C 0.17418 0.75344 0.35379 0.0
C1162 C 0.17619 0.74077 0.35776 0.0
C1163 C 0.18489 0.73838 0.32161 0.0
C1164 C 0.19172 0.74864 0.28144 0.0
C1165 C 0.1899 0.76132 0.27742 0.0
C1166 C 0.1812 0.76376 0.31345 0.0
C1167 C 0.17819 0.80423 0.55348 0.0
C1168 C 0.17948 0.81633 0.52385 0.0
C1169 C 0.1734 0.79008 0.53098 0.0
C1170 C 0.17009 0.78798 0.47852 0.0
C1171 C 0.17204 0.80023 0.44858 0.0
C1172 C 0.17656 0.81427 0.47113 0.0
C1173 C 0.16327 0.77274 0.45532 0.0
C1174 C 0.17128 0.77002 0.41713 0.0
C1175 C 0.14861 0.76115 0.46929 0.0
C1176 C 0.13956 0.76348 0.50884 0.0
C1177 C 0.1355 0.77473 0.50271 0.0
C1178 C 0.12712 0.77697 0.54053 0.0
C1179 C 0.12261 0.76794 0.58443 0.0
C1180 C 0.12644 0.75662 0.59051 0.0
C1181 C 0.13485 0.75435 0.55284 0.0
H1182 H 0.11612 0.76969 0.61366 0.0
H1183 H 0.19846 0.74677 0.25349 0.0
H1184 H 0.49472 0.54219 0.31689 0.0
H1185 H 0.47151 0.53729 0.36152 0.0
H1186 H 0.44875 0.49124 0.30561 0.0
H1187 H 0.4718 0.49605 0.26117 0.0
H1188 H 0.42968 0.5033 0.30986 0.0
H1189 H 0.46708 0.49943 0.41707 0.0
H1190 H 0.49241 0.51008 0.45645 0.0
H1191 H 0.48651 0.54449 0.53012 0.0
H1192 H 0.46122 0.53416 0.49045 0.0
H1193 H 0.38213 0.44779 0.476 0.0
H1194 H 0.40471 0.46578 0.42934 0.0
H1195 H 0.40617 0.50282 0.51407 0.0
H1196 H 0.3832 0.48473 0.56114 0.0
H1197 H 0.43567 0.50299 0.49813 0.0
H1198 H 0.39459 0.50136 0.40601 0.0
H1199 H 0.3691 0.48909 0.36732 0.0
H1200 H 0.38165 0.46412 0.26554 0.0
H1201 H 0.40715 0.47603 0.30422 0.0
C1202 C 0.48462 0.53117 0.31297 0.0
C1203 C 0.48507 0.51943 0.2861 0.0
C1204 C 0.47141 0.52838 0.33859 0.0
C1205 C 0.45851 0.51386 0.33734 0.0
C1206 C 0.4586 0.50253 0.30704 0.0
C1207 C 0.47179 0.50527 0.28183 0.0
C1208 C 0.44555 0.50966 0.37209 0.0
C1209 C 0.43097 0.50338 0.35103 0.0
C1210 C 0.44731 0.51012 0.42589 0.0
C1211 C 0.46238 0.51616 0.45031 0.0
C1212 C 0.47124 0.50933 0.4414 0.0
C1213 C 0.48558 0.5153 0.46378 0.0
C1214 C 0.49109 0.52798 0.49563 0.0
C1215 C 0.48225 0.53469 0.50532 0.0
C1216 C 0.46791 0.52879 0.48289 0.0
C1217 C 0.3873 0.45973 0.48528 0.0
C1218 C 0.38084 0.46487 0.52201 0.0
C1219 C 0.40017 0.46999 0.45843 0.0
C1220 C 0.40691 0.48559 0.46782 0.0
C1221 C 0.40102 0.49079 0.50622 0.0
C1222 C 0.38796 0.48047 0.53303 0.0
C1223 C 0.41982 0.49616 0.43568 0.0
C1224 C 0.43438 0.50352 0.45714 0.0
C1225 C 0.41805 0.49664 0.38221 0.0
C1226 C 0.40279 0.48957 0.3582 0.0
C1227 C 0.39189 0.49318 0.3756 0.0
C1228 C 0.37744 0.48629 0.35364 0.0
C1229 C 0.37375 0.47583 0.31402 0.0
C1230 C 0.38453 0.47224 0.29622 0.0
C1231 C 0.399 0.47908 0.3181 0.0
H1232 H 0.36255 0.4705 0.29709 0.0
H1233 H 0.5022 0.53259 0.5129 0.0
H1234 H 0.74152 0.0143 0.4537 0.0
H1235 H 0.72462 0.0217 0.41349 0.0
H1236 H 0.69274 0.00124 0.53741 0.0
H1237 H 0.70995 0.99416 0.57887 0.0
H1238 H 0.69717 0.00826 0.37649 0.0
H1239 H 0.67636 0.02299 0.5601 0.0
H1240 H 0.68416 0.02992 0.64997 0.0
H1241 H 0.73094 0.04924 0.6069 0.0
H1242 H 0.72342 0.0426 0.51679 0.0
H1243 H 0.65362 0.04165 0.28923 0.0
H1244 H 0.66021 0.02468 0.33525 0.0
H1245 H 0.69751 0.06349 0.40807 0.0
H1246 H 0.69059 0.08022 0.36436 0.0
H1247 H 0.68503 0.04255 0.47451 0.0
H1248 H 0.70131 0.04462 0.29839 0.0
H1249 H 0.69737 0.04104 0.20524 0.0
H1250 H 0.66602 0.99359 0.22778 0.0
H1251 H 0.66967 0.99694 0.32114 0.0
C1252 C 0.73086 0.01127 0.4723 0.0
C1253 C 0.72712 0.00381 0.51972 0.0
C1254 C 0.72115 0.01542 0.44906 0.0
C1255 C 0.70746 0.01215 0.47258 0.0
C1256 C 0.70335 0.00406 0.51889 0.0
C1257 C 0.71316 1e-05 0.5425 0.0
C1258 C 0.69826 0.01829 0.45001 0.0
C1259 C 0.69434 0.01561 0.39807 0.0
C1260 C 0.69465 0.02797 0.47797 0.0
C1261 C 0.6993 0.0321 0.53194 0.0
C1262 C 0.6883 0.02873 0.56988 0.0
C1263 C 0.69268 0.03261 0.62082 0.0
C1264 C 0.70803 0.03995 0.63417 0.0
C1265 C 0.71905 0.0435 0.59656 0.0
C1266 C 0.71474 0.03967 0.54557 0.0
C1267 C 0.66315 0.04648 0.31534 0.0
C1268 C 0.67162 0.06223 0.32318 0.0
C1269 C 0.66693 0.0368 0.3415 0.0
C1270 C 0.67945 0.0428 0.37488 0.0
C1271 C 0.68774 0.05854 0.38292 0.0
C1272 C 0.68382 0.06812 0.35764 0.0
C1273 C 0.6845 0.03303 0.4004 0.0
C1274 C 0.6875 0.03491 0.45311 0.0
C1275 C 0.68778 0.02307 0.37268 0.0
C1276 C 0.68561 0.02106 0.31666 0.0
C1277 C 0.6935 0.03345 0.28345 0.0
C1278 C 0.69133 0.03146 0.23065 0.0
C1279 C 0.68141 0.01711 0.21062 0.0
C1280 C 0.67367 0.00471 0.24336 0.0
C1281 C 0.67578 0.00664 0.2962 0.0
H1282 H 0.67975 0.01559 0.16973 0.0
H1283 H 0.71139 0.04294 0.67363 0.0
H1284 H 0.70595 0.14248 0.19944 0.0
H1285 H 0.73088 0.15854 0.15948 0.0
H1286 H 0.7353 0.11904 0.13427 0.0
H1287 H 0.71044 0.10299 0.1729 0.0
H1288 H 0.76167 0.1454 0.17829 0.0
H1289 H 0.72436 0.13059 0.03994 0.0
H1290 H 0.70213 0.12974 -0.00114 0.0
H1291 H 0.72467 0.17841 -0.00017 0.0
H1292 H 0.74697 0.17953 0.04163 0.0
H1293 H 0.81329 0.15327 0.9943 0.0
H1294 H 0.79009 0.14577 0.0422 0.0
H1295 H 0.79425 0.18942 0.01266 0.0
H1296 H 0.81745 0.1969 0.96313 0.0
H1297 H 0.76515 0.16709 0.00555 0.0
H1298 H 0.80416 0.18249 0.12854 0.0
H1299 H 0.82665 0.18417 0.17046 0.0
H1300 H 0.8017 0.13642 0.2027 0.0
H1301 H 0.77912 0.13439 0.16025 0.0
C1302 C 0.71233 0.13729 0.18562 0.0
C1303 C 0.70631 0.12152 0.18903 0.0
C1304 C 0.72649 0.14644 0.1628 0.0
C1305 C 0.73483 0.13991 0.14404 0.0
C1306 C 0.729 0.12425 0.1487 0.0
C1307 C 0.7148 0.11511 0.17056 0.0
C1308 C 0.74952 0.14913 0.11806 0.0
C1309 C 0.7625 0.15018 0.14057 0.0
C1310 C 0.75059 0.15584 0.0698 0.0
C1311 C 0.73723 0.15514 0.04451 0.0
C1312 C 0.72451 0.1411 0.03185 0.0
C1313 C 0.71192 0.14057 0.00834 0.0
C1314 C 0.71197 0.15401 0.99691 0.0
C1315 C 0.72464 0.16801 0.00882 0.0
C1316 C 0.73725 0.1686 0.0324 0.0
C1317 C 0.80922 0.16124 0.99763 0.0
C1318 C 0.81722 0.1757 0.97542 0.0
C1319 C 0.79601 0.15698 0.02527 0.0
C1320 C 0.79068 0.16719 0.03212 0.0
C1321 C 0.79827 0.18144 0.0082 0.0
C1322 C 0.81148 0.18567 0.97994 0.0
C1323 C 0.77725 0.1628 0.06485 0.0
C1324 C 0.76451 0.16268 0.04378 0.0
C1325 C 0.77643 0.15713 0.1149 0.0
C1326 C 0.78995 0.15828 0.14097 0.0
C1327 C 0.80349 0.17232 0.14429 0.0
C1328 C 0.81625 0.17334 0.16818 0.0
C1329 C 0.81561 0.16041 0.18918 0.0
C1330 C 0.80218 0.14643 0.18643 0.0
C1331 C 0.78938 0.14535 0.16252 0.0
H1332 H 0.82551 0.16121 0.20765 0.0
H1333 H 0.70221 0.15358 0.97869 0.0
H1334 H 0.01344 0.75066 0.07108 0.0
H1335 H 0.01979 0.73315 0.11274 0.0
H1336 H 0.00204 0.70286 0.98355 0.0
H1337 H 0.99601 0.72065 0.94082 0.0
H1338 H 0.0064 0.70465 0.14496 0.0
H1339 H 0.02573 0.68896 0.96045 0.0
H1340 H 0.0338 0.69862 0.87278 0.0
H1341 H 0.05061 0.74423 0.92555 0.0
H1342 H 0.04281 0.73484 0.01355 0.0
H1343 H 0.04053 0.65954 0.21648 0.0
H1344 H 0.02398 0.66782 0.17671 0.0
H1345 H 0.06347 0.70868 0.12408 0.0
H1346 H 0.07987 0.70034 0.16217 0.0
H1347 H 0.04405 0.69681 0.04964 0.0
H1348 H 0.04186 0.70789 0.22885 0.0
H1349 H 0.03643 0.70138 0.32014 0.0
H1350 H 0.98977 0.6701 0.28444 0.0
H1351 H 0.99498 0.67631 0.19281 0.0
C1352 C 0.01069 0.74018 0.05175 0.0
C1353 C 0.00446 0.73713 0.00234 0.0
C1354 C 0.01423 0.73012 0.07582 0.0
C1355 C 0.01157 0.71679 0.05102 0.0
C1356 C 0.00438 0.7132 0.00307 0.0
C1357 C 0.00094 0.72335 0.97872 0.0
C1358 C 0.01794 0.70774 0.07313 0.0
C1359 C 0.01448 0.70273 0.12395 0.0
C1360 C 0.02861 0.70539 0.04593 0.0
C1361 C 0.0335 0.71117 0.99333 0.0
C1362 C 0.03117 0.70104 0.95328 0.0
C1363 C 0.0357 0.70647 0.90357 0.0
C1364 C 0.04265 0.72202 0.89357 0.0
C1365 C 0.04517 0.73218 0.93331 0.0
C1366 C 0.04069 0.72682 0.98309 0.0
C1367 C 0.04561 0.67032 0.19665 0.0
C1368 C 0.06146 0.67928 0.19223 0.0
C1369 C 0.03617 0.67504 0.17399 0.0
C1370 C 0.0425 0.68887 0.1473 0.0
C1371 C 0.05833 0.6979 0.14396 0.0
C1372 C 0.0677 0.69315 0.16599 0.0
C1373 C 0.03289 0.69412 0.12206 0.0
C1374 C 0.03568 0.69834 0.0704 0.0
C1375 C 0.02198 0.69614 0.14901 0.0
C1376 C 0.01885 0.69242 0.20399 0.0
C1377 C 0.03047 0.69953 0.24045 0.0
C1378 C 0.02743 0.69592 0.29224 0.0
C1379 C 0.01278 0.68529 0.30806 0.0
C1380 C 0.00112 0.6783 0.27212 0.0
C1381 C 0.00411 0.68187 0.22027 0.0
H1382 H 0.01044 0.68251 0.34817 0.0
H1383 H 0.04613 0.72619 0.85505 0.0
H1384 H 0.4416 0.36313 0.05444 0.0
H1385 H 0.45782 0.38721 0.09689 0.0
H1386 H 0.48449 0.40461 0.95954 0.0
H1387 H 0.46838 0.38017 0.91685 0.0
H1388 H 0.50233 0.41373 0.0449 0.0
H1389 H 0.45818 0.41412 0.98679 0.0
H1390 H 0.43083 0.40432 0.97414 0.0
H1391 H 0.42448 0.40385 0.13647 0.0
H1392 H 0.45178 0.41344 0.15014 0.0
H1393 H 0.52853 0.49189 0.11768 0.0
H1394 H 0.51817 0.46734 0.07445 0.0
H1395 H 0.4947 0.44459 0.21252 0.0
H1396 H 0.50521 0.46907 0.25628 0.0
H1397 H 0.4762 0.43901 0.12235 0.0
H1398 H 0.52141 0.43917 0.17798 0.0
H1399 H 0.54902 0.44983 0.18685 0.0
H1400 H 0.55368 0.4508 0.02362 0.0
H1401 H 0.5261 0.44034 0.01374 0.0
C1402 C 0.45095 0.37204 0.03323 0.0
C1403 C 0.45363 0.36987 0.98213 0.0
C1404 C 0.4602 0.3858 0.05755 0.0
C1405 C 0.47216 0.39778 0.03104 0.0
C1406 C 0.47525 0.39551 0.98054 0.0
C1407 C 0.46604 0.3816 0.95619 0.0
C1408 C 0.48089 0.41279 0.05592 0.0
C1409 C 0.49667 0.41939 0.0612 0.0
C1410 C 0.47345 0.42009 0.07751 0.0
C1411 C 0.45702 0.41438 0.06949 0.0
C1412 C 0.45094 0.41182 0.01981 0.0
C1413 C 0.43544 0.40632 0.01246 0.0
C1414 C 0.42592 0.40343 0.05448 0.0
C1415 C 0.43188 0.40608 0.10395 0.0
C1416 C 0.44736 0.41156 0.11153 0.0
C1417 C 0.52141 0.48162 0.13908 0.0
C1418 C 0.51758 0.48234 0.19019 0.0
C1419 C 0.51557 0.46764 0.11442 0.0
C1420 C 0.50569 0.45423 0.1404 0.0
C1421 C 0.50234 0.45487 0.19201 0.0
C1422 C 0.50837 0.46882 0.21692 0.0
C1423 C 0.49756 0.43975 0.1123 0.0
C1424 C 0.48186 0.43334 0.10606 0.0
C1425 C 0.50513 0.43283 0.08925 0.0
C1426 C 0.52171 0.43913 0.09512 0.0
C1427 C 0.52834 0.4418 0.14395 0.0
C1428 C 0.54398 0.44777 0.14917 0.0
C1429 C 0.5531 0.45104 0.10582 0.0
C1430 C 0.5466 0.44829 0.05716 0.0
C1431 C 0.53096 0.44233 0.05174 0.0
H1432 H 0.56521 0.45565 0.10995 0.0
H1433 H 0.41392 0.39918 0.0487 0.0
H1434 H 0.00257 0.38453 0.40366 0.0
H1435 H 0.01158 0.40897 0.44661 0.0
H1436 H 0.0079 0.38768 0.59253 0.0
H1437 H -0.00092 0.36329 0.54992 0.0
H1438 H -0.00015 0.41174 0.59218 0.0
H1439 H 0.0396 0.40111 0.54014 0.0
H1440 H 0.0527 0.39395 0.47618 0.0
H1441 H 0.06142 0.43249 0.38453 0.0
H1442 H 0.04811 0.43972 0.4476 0.0
H1443 H 0.05503 0.47145 0.74691 0.0
H1444 H 0.038 0.44787 0.70172 0.0
H1445 H 0.0541 0.47096 0.55723 0.0
H1446 H 0.07159 0.49422 0.60219 0.0
H1447 H 0.05427 0.44626 0.55277 0.0
H1448 H 0.01719 0.45897 0.60747 0.0
H1449 H 0.00329 0.46604 0.66834 0.0
H1450 H 0.98882 0.42462 0.75127 0.0
H1451 H 0.00281 0.41739 0.69128 0.0
C1452 C 0.00331 0.385 0.44497 0.0
C1453 C 0.00034 0.37211 0.47349 0.0
C1454 C 0.00843 0.39893 0.4694 0.0
C1455 C 0.01048 0.40007 0.5226 0.0
C1456 C 0.00634 0.38698 0.55146 0.0
C1457 C 0.00141 0.3731 0.52704 0.0
C1458 C 0.01898 0.41508 0.54728 0.0
C1459 C 0.01176 0.41933 0.58388 0.0
C1460 C 0.03442 0.42499 0.53556 0.0
C1461 C 0.04272 0.42085 0.49826 0.0
C1462 C 0.04422 0.40799 0.50617 0.0
C1463 C 0.05169 0.40392 0.4701 0.0
C1464 C 0.05785 0.41273 0.42624 0.0
C1465 C 0.05661 0.42566 0.41847 0.0
C1466 C 0.04911 0.42975 0.45436 0.0
C1467 C 0.0548 0.47146 0.70552 0.0
C1468 C 0.06466 0.48457 0.67796 0.0
C1469 C 0.045 0.45803 0.6797 0.0
C1470 C 0.04463 0.45764 0.62595 0.0
C1471 C 0.05419 0.47093 0.59863 0.0
C1472 C 0.06418 0.48422 0.62435 0.0
C1473 C 0.03519 0.44321 0.59798 0.0
C1474 C 0.04229 0.43892 0.56085 0.0
C1475 C 0.01961 0.4334 0.60897 0.0
C1476 C 0.01116 0.4377 0.6451 0.0
C1477 C 0.01114 0.45142 0.6389 0.0
C1478 C 0.00322 0.45545 0.67322 0.0
C1479 C 0.9952 0.44581 0.71372 0.0
C1480 C 0.99505 0.43209 0.71991 0.0
C1481 C 0.00295 0.42801 0.68573 0.0
H1482 H 0.98908 0.44895 0.74024 0.0
H1483 H 0.06361 0.40956 0.39834 0.0
H1484 H 0.6995 0.68899 0.60824 0.0
H1485 H 0.72428 0.69647 0.57134 0.0
H1486 H 0.7381 0.68485 0.71211 0.0
H1487 H 0.71307 0.67706 0.74937 0.0
H1488 H 0.75896 0.71453 0.66967 0.0
H1489 H 0.73158 0.66223 0.61977 0.0
H1490 H 0.70999 0.63929 0.58298 0.0
H1491 H 0.71752 0.66161 0.43781 0.0
H1492 H 0.73902 0.68478 0.47393 0.0
H1493 H 0.82874 0.73156 0.561 0.0
H1494 H 0.80436 0.71724 0.60457 0.0
H1495 H 0.78114 0.71611 0.46506 0.0
H1496 H 0.80556 0.72981 0.42068 0.0
H1497 H 0.76527 0.69058 0.51346 0.0
H1498 H 0.7894 0.74316 0.56162 0.0
H1499 H 0.80999 0.76739 0.59534 0.0
H1500 H 0.8075 0.74619 0.7397 0.0
H1501 H 0.78702 0.72177 0.70658 0.0
C1502 C 0.70779 0.68799 0.63141 0.0
C1503 C 0.7044 0.68247 0.68171 0.0
C1504 C 0.72189 0.69219 0.61015 0.0
C1505 C 0.73291 0.69106 0.6389 0.0
C1506 C 0.72966 0.6857 0.68935 0.0
C1507 C 0.71541 0.68127 0.7105 0.0
C1508 C 0.74798 0.6961 0.61628 0.0
C1509 C 0.76046 0.70912 0.63622 0.0
C1510 C 0.7497 0.68926 0.5717 0.0
C1511 C 0.73686 0.67529 0.54969 0.0
C1512 C 0.72857 0.66229 0.5801 0.0
C1513 C 0.71635 0.64923 0.55934 0.0
C1514 C 0.71237 0.649 0.50811 0.0
C1515 C 0.72062 0.66181 0.4775 0.0
C1516 C 0.73283 0.6749 0.49808 0.0
C1517 C 0.8184 0.72806 0.53951 0.0
C1518 C 0.81897 0.73189 0.48768 0.0
C1519 C 0.8045 0.71995 0.56447 0.0
C1520 C 0.79094 0.71594 0.53846 0.0
C1521 C 0.79146 0.71914 0.48599 0.0
C1522 C 0.80539 0.72698 0.46068 0.0
C1523 C 0.77632 0.70918 0.56647 0.0
C1524 C 0.76388 0.69587 0.54743 0.0
C1525 C 0.77454 0.71593 0.6114 0.0
C1526 C 0.78681 0.73061 0.63144 0.0
C1527 C 0.79332 0.74365 0.60044 0.0
C1528 C 0.80496 0.75741 0.61945 0.0
C1529 C 0.81008 0.75832 0.66958 0.0
C1530 C 0.80354 0.74546 0.70085 0.0
C1531 C 0.79192 0.73166 0.68199 0.0
H1532 H 0.81909 0.76899 0.68424 0.0
H1533 H 0.70291 0.63888 0.49212 0.0
H1534 H 0.46859 0.17719 0.39512 0.0
H1535 H 0.487 0.17062 0.43033 0.0
H1536 H 0.46876 0.16778 0.58127 0.0
H1537 H 0.4503 0.17402 0.54654 0.0
H1538 H 0.50152 0.18321 0.57627 0.0
H1539 H 0.45623 0.13671 0.51938 0.0
H1540 H 0.4377 0.12071 0.45378 0.0
H1541 H 0.47367 0.12266 0.36235 0.0
H1542 H 0.49244 0.13887 0.4272 0.0
H1543 H 0.51209 0.13398 0.73769 0.0
H1544 H 0.50503 0.14949 0.68602 0.0
H1545 H 0.5192 0.13611 0.54958 0.0
H1546 H 0.52553 0.12 0.60101 0.0
H1547 H 0.49307 0.13205 0.53385 0.0
H1548 H 0.53797 0.17405 0.59735 0.0
H1549 H 0.5571 0.19044 0.66074 0.0
H1550 H 0.52406 0.19824 0.73554 0.0
H1551 H 0.50466 0.18172 0.67306 0.0
C1552 C 0.46863 0.17527 0.43582 0.0
C1553 C 0.45796 0.17595 0.46808 0.0
C1554 C 0.47914 0.17157 0.45583 0.0
C1555 C 0.47921 0.16876 0.50836 0.0
C1556 C 0.46893 0.17 0.54071 0.0
C1557 C 0.45831 0.17343 0.52072 0.0
C1558 C 0.48905 0.1633 0.52978 0.0
C1559 C 0.49977 0.17205 0.56711 0.0
C1560 C 0.48703 0.14896 0.51644 0.0
C1561 C 0.47574 0.13914 0.47775 0.0
C1562 C 0.4602 0.13383 0.48508 0.0
C1563 C 0.44965 0.12471 0.44809 0.0
C1564 C 0.45451 0.12071 0.40383 0.0
C1565 C 0.46993 0.1258 0.39658 0.0
C1566 C 0.48052 0.13494 0.43343 0.0
C1567 C 0.51398 0.13461 0.6968 0.0
C1568 C 0.51925 0.12574 0.67323 0.0
C1569 C 0.51003 0.14356 0.66723 0.0
C1570 C 0.51168 0.1441 0.61376 0.0
C1571 C 0.51776 0.13586 0.59065 0.0
C1572 C 0.5214 0.12668 0.62006 0.0
C1573 C 0.50547 0.1518 0.58174 0.0
C1574 C 0.4953 0.14342 0.54239 0.0
C1575 C 0.50819 0.16658 0.59286 0.0
C1576 C 0.51982 0.17656 0.63061 0.0
C1577 C 0.53474 0.17917 0.62752 0.0
C1578 C 0.54564 0.1885 0.66327 0.0
C1579 C 0.54179 0.19536 0.70218 0.0
C1580 C 0.52703 0.19292 0.70537 0.0
C1581 C 0.51608 0.18359 0.66974 0.0
H1582 H 0.55025 0.20258 0.72982 0.0
H1583 H 0.44633 0.11365 0.37523 0.0
H1584 H 0.36752 0.9838 0.01511 0.0
H1585 H 0.38919 0.99182 0.95728 0.0
H1586 H 0.3959 0.03719 0.95526 0.0
H1587 H 0.37422 0.02921 0.01197 0.0
H1588 H 0.397 0.02781 0.86072 0.0
H1589 H 0.41835 0.02763 0.02705 0.0
H1590 H 0.42 0.01573 0.10714 0.0
H1591 H 0.42644 0.98342 0.02138 0.0
H1592 H 0.42466 0.99503 0.94073 0.0
H1593 H 0.47235 0.08075 0.80842 0.0
H1594 H 0.44708 0.06391 0.84225 0.0
H1595 H 0.45202 0.0251 0.80852 0.0
H1596 H 0.47754 0.04204 0.77428 0.0
H1597 H 0.44292 0.02531 0.90793 0.0
H1598 H 0.42674 0.02943 0.74183 0.0
H1599 H 0.42592 0.04225 0.66295 0.0
H1600 H 0.41016 0.06772 0.74825 0.0
H1601 H 0.4111 0.05523 0.8278 0.0
C1602 C 0.37371 0.9955 0.00251 0.0
C1603 C 0.36922 0.0059 0.01802 0.0
C1604 C 0.38606 6e-05 0.96952 0.0
C1605 C 0.39415 0.0151 0.95201 0.0
C1606 C 0.38975 0.0255 0.96801 0.0
C1607 C 0.37741 0.02095 0.00066 0.0
C1608 C 0.40724 0.02026 0.91696 0.0
C1609 C 0.40706 0.0273 0.87103 0.0
C1610 C 0.42011 0.01902 0.92948 0.0
C1611 C 0.42117 0.01206 0.97792 0.0
C1612 C 0.41999 0.0179 0.02529 0.0
C1613 C 0.42098 0.01123 0.07077 0.0
C1614 C 0.42327 -0.0012 0.06935 0.0
C1615 C 0.42463 0.99303 0.02242 0.0
C1616 C 0.42364 -0.00035 0.97683 0.0
C1617 C 0.46799 0.06862 0.80745 0.0
C1618 C 0.47689 0.06269 0.78884 0.0
C1619 C 0.45351 0.059 0.82656 0.0
C1620 C 0.44764 0.04326 0.82748 0.0
C1621 C 0.45635 0.03723 0.80785 0.0
C1622 C 0.47086 0.04689 0.7882 0.0
C1623 C 0.43292 0.03346 0.85286 0.0
C1624 C 0.43274 0.0255 0.89688 0.0
C1625 C 0.41973 0.0339 0.83871 0.0
C1626 C 0.41905 0.04141 0.79088 0.0
C1627 C 0.42319 0.03783 0.74385 0.0
C1628 C 0.42269 0.04503 0.69899 0.0
C1629 C 0.418 0.0558 0.70059 0.0
C1630 C 0.41378 0.05937 0.74706 0.0
C1631 C 0.41427 0.05221 0.79204 0.0
H1632 H 0.41763 0.06137 0.66582 0.0
H1633 H 0.42403 0.99365 0.1046 0.0
H1634 H 0.11318 0.49501 0.84187 0.0
H1635 H 0.1323 0.49096 0.88306 0.0
H1636 H 0.16771 0.53013 0.80577 0.0
H1637 H 0.14844 0.53419 0.76346 0.0
H1638 H 0.17339 0.50657 0.80731 0.0
H1639 H 0.16237 0.53378 0.92861 0.0
H1640 H 0.14651 0.54083 0.97986 0.0
H1641 H 0.12573 0.49744 0.05434 0.0
H1642 H 0.14128 0.49001 0.00299 0.0
H1643 H 0.20055 0.48324 0.05987 0.0
H1644 H 0.19552 0.50139 0.01439 0.0
H1645 H 0.17263 0.46833 0.89523 0.0
H1646 H 0.17786 0.45046 0.93951 0.0
H1647 H 0.16934 0.499 0.99528 0.0
H1648 H 0.17483 0.48352 0.78286 0.0
H1649 H 0.19197 0.47788 0.73307 0.0
H1650 H 0.22741 0.5017 0.84311 0.0
H1651 H 0.21059 0.50775 0.89313 0.0
C1652 C 0.12502 0.50274 0.8333 0.0
C1653 C 0.12933 0.51498 0.79973 0.0
C1654 C 0.13594 0.50046 0.85713 0.0
C1655 C 0.15142 0.51046 0.84838 0.0
C1656 C 0.15581 0.52239 0.81336 0.0
C1657 C 0.14482 0.52467 0.78922 0.0
C1658 C 0.16276 0.50814 0.87632 0.0
C1659 C 0.1727 0.5051 0.84845 0.0
C1660 C 0.16231 0.5069 0.93023 0.0
C1661 C 0.153 0.51133 0.96181 0.0
C1662 C 0.15437 0.5257 0.95573 0.0
C1663 C 0.14543 0.52977 0.98482 0.0
C1664 C 0.13512 0.51959 0.02032 0.0
C1665 C 0.13374 0.50532 0.02687 0.0
C1666 C 0.14264 0.50119 0.99784 0.0
C1667 C 0.19464 0.47998 0.0236 0.0
C1668 C 0.18954 0.46543 0.0033 0.0
C1669 C 0.1918 0.49034 0.99766 0.0
C1670 C 0.18391 0.48631 0.95099 0.0
C1671 C 0.17908 0.47187 0.93045 0.0
C1672 C 0.18194 0.46158 0.95614 0.0
C1673 C 0.17916 0.49634 0.92591 0.0
C1674 C 0.17045 0.50089 0.95433 0.0
C1675 C 0.18107 0.49932 0.87272 0.0
C1676 C 0.19139 0.49606 0.84189 0.0
C1677 C 0.18632 0.4877 0.79623 0.0
C1678 C 0.19598 0.4844 0.76801 0.0
C1679 C 0.21076 0.48941 0.78495 0.0
C1680 C 0.21594 0.4978 0.83007 0.0
C1681 C 0.20635 0.50116 0.85839 0.0
H1682 H 0.2182 0.4868 0.76313 0.0
H1683 H 0.1282 0.52275 0.04278 0.0
H1684 H 0.66243 0.70131 0.87147 0.0
H1685 H 0.67171 0.72653 0.90781 0.0
H1686 H 0.68142 0.74589 0.75641 0.0
H1687 H 0.67182 0.72049 0.71959 0.0
H1688 H 0.70658 0.75716 0.82435 0.0
H1689 H 0.65624 0.74928 0.8213 0.0
H1690 H 0.62864 0.73533 0.83638 0.0
H1691 H 0.63619 0.73587 0.99798 0.0
H1692 H 0.66385 0.74962 0.98386 0.0
H1693 H 0.74257 0.82988 0.933 0.0
H1694 H 0.72518 0.80822 0.88077 0.0
H1695 H 0.70318 0.78294 0.01734 0.0
H1696 H 0.72011 0.80498 0.06967 0.0
H1697 H 0.68279 0.77625 0.94678 0.0
H1698 H 0.73134 0.77909 0.95251 0.0
H1699 H 0.75908 0.79109 0.94262 0.0
H1700 H 0.75504 0.79762 0.78249 0.0
H1701 H 0.72727 0.78583 0.7916 0.0
C1702 C 0.66617 0.71089 0.84586 0.0
C1703 C 0.66653 0.70903 0.79282 0.0
C1704 C 0.67138 0.72527 0.86664 0.0
C1705 C 0.6772 0.73803 0.83474 0.0
C1706 C 0.67686 0.73612 0.78152 0.0
C1707 C 0.67137 0.72166 0.7606 0.0
C1708 C 0.68562 0.75331 0.85769 0.0
C1709 C 0.70134 0.76157 0.85007 0.0
C1710 C 0.67879 0.75865 0.89273 0.0
C1711 C 0.66214 0.75041 0.90145 0.0
C1712 C 0.65203 0.74632 0.86003 0.0
C1713 C 0.63636 0.73847 0.86842 0.0
C1714 C 0.63066 0.7347 0.9181 0.0
C1715 C 0.64062 0.7388 0.95952 0.0
C1716 C 0.6563 0.74664 0.95134 0.0
C1717 C 0.73395 0.81972 0.95182 0.0
C1718 C 0.73278 0.81897 0.00531 0.0
C1719 C 0.72404 0.80735 0.92197 0.0
C1720 C 0.71309 0.79382 0.94513 0.0
C1721 C 0.71156 0.79324 0.99859 0.0
C1722 C 0.72127 0.80578 0.02847 0.0
C1723 C 0.70382 0.78004 0.91389 0.0
C1724 C 0.68799 0.77203 0.92021 0.0
C1725 C 0.71057 0.77467 0.87844 0.0
C1726 C 0.72726 0.78175 0.87286 0.0
C1727 C 0.73638 0.78319 0.91528 0.0
C1728 C 0.7521 0.78994 0.9098 0.0
C1729 C 0.75882 0.79516 0.86199 0.0
C1730 C 0.74983 0.79361 0.81952 0.0
C1731 C 0.7341 0.78689 0.82481 0.0
H1732 H 0.771 0.80037 0.85783 0.0
H1733 H 0.61853 0.72862 0.92451 0.0
H1734 H 0.77574 0.04832 0.63214 0.0
H1735 H 0.7944 0.07348 0.6637 0.0
H1736 H 0.82924 0.06119 0.65733 0.0
H1737 H 0.81064 0.03602 0.62394 0.0
H1738 H 0.82241 0.0731 0.75907 0.0
H1739 H 0.83669 0.08503 0.58323 0.0
H1740 H 0.83183 0.08549 0.49112 0.0
H1741 H 0.81015 0.11167 0.52062 0.0
H1742 H 0.81466 0.11117 0.61302 0.0
H1743 H 0.86741 0.14758 0.86315 0.0
H1744 H 0.86066 0.1248 0.8123 0.0
H1745 H 0.8263 0.13025 0.73409 0.0
H1746 H 0.83343 0.15319 0.78283 0.0
H1747 H 0.83926 0.1218 0.66858 0.0
H1748 H 0.81882 0.10523 0.83908 0.0
H1749 H 0.82032 0.10363 0.93278 0.0
H1750 H 0.84997 0.08524 0.91565 0.0
H1751 H 0.84877 0.08691 0.82179 0.0
C1752 C 0.78742 0.05106 0.6367 0.0
C1753 C 0.7918 0.0403 0.6257 0.0
C1754 C 0.79805 0.06541 0.65457 0.0
C1755 C 0.81313 0.0691 0.66263 0.0
C1756 C 0.81763 0.05848 0.65101 0.0
C1757 C 0.80705 0.0442 0.63187 0.0
C1758 C 0.8237 0.08374 0.68675 0.0
C1759 C 0.82652 0.08381 0.73917 0.0
C1760 C 0.8286 0.09756 0.66072 0.0
C1761 C 0.82594 0.09798 0.60512 0.0
C1762 C 0.83077 0.09078 0.57014 0.0
C1763 C 0.8281 0.09107 0.51785 0.0
C1764 C 0.82067 0.09858 0.50003 0.0
C1765 C 0.81591 0.10585 0.53447 0.0
C1766 C 0.81854 0.10559 0.5868 0.0
C1767 C 0.8585 0.14392 0.83481 0.0
C1768 C 0.85088 0.15207 0.82706 0.0
C1769 C 0.85463 0.13091 0.80588 0.0
C1770 C 0.84285 0.1257 0.7697 0.0
C1771 C 0.83548 0.13406 0.76149 0.0
C1772 C 0.8395 0.14714 0.78963 0.0
C1773 C 0.83754 0.11124 0.74165 0.0
C1774 C 0.83563 0.11117 0.68843 0.0
C1775 C 0.83312 0.09736 0.76722 0.0
C1776 C 0.83388 0.09639 0.82354 0.0
C1777 C 0.82575 0.10096 0.85535 0.0
C1778 C 0.82653 0.10002 0.90845 0.0
C1779 C 0.83528 0.09439 0.93016 0.0
C1780 C 0.84323 0.08964 0.89878 0.0
C1781 C 0.84251 0.09058 0.84565 0.0
H1782 H 0.83587 0.09366 0.97128 0.0
H1783 H 0.81861 0.09879 0.45954 0.0
H1784 H 0.15078 0.87091 0.622 0.0
H1785 H 0.12718 0.86557 0.66584 0.0
H1786 H 0.11714 0.81971 0.69463 0.0
H1787 H 0.14055 0.825 0.65194 0.0
H1788 H 0.0917 0.82157 0.66484 0.0
H1789 H 0.135 0.8459 0.78271 0.0
H1790 H 0.15964 0.86729 0.8102 0.0
H1791 H 0.14069 0.89671 0.81128 0.0
H1792 H 0.11598 0.8755 0.78309 0.0
H1793 H 0.05274 0.78539 0.87855 0.0
H1794 H 0.07485 0.80113 0.82576 0.0
H1795 H 0.06477 0.83752 0.83188 0.0
H1796 H 0.04243 0.82172 0.88523 0.0
H1797 H 0.098 0.84609 0.83411 0.0
H1798 H 0.0528 0.81947 0.73491 0.0
H1799 H 0.02822 0.79724 0.71191 0.0
H1800 H 0.05055 0.77207 0.67567 0.0
H1801 H 0.07523 0.79405 0.69949 0.0
C1802 C 0.14334 0.85963 0.63686 0.0
C1803 C 0.14746 0.84837 0.63395 0.0
C1804 C 0.12994 0.85662 0.66198 0.0
C1805 C 0.12049 0.84227 0.68362 0.0
C1806 C 0.12426 0.83084 0.67808 0.0
C1807 C 0.13766 0.8339 0.65387 0.0
C1808 C 0.10726 0.83912 0.71562 0.0
C1809 C 0.09301 0.82706 0.70154 0.0
C1810 C 0.10893 0.84653 0.76298 0.0
C1811 C 0.12373 0.8592 0.78015 0.0
C1812 C 0.13613 0.85697 0.7884 0.0
C1813 C 0.1501 0.86904 0.80418 0.0
C1814 C 0.15174 0.88336 0.81231 0.0
C1815 C 0.13941 0.88562 0.80483 0.0
C1816 C 0.12543 0.87358 0.78896 0.0
C1817 C 0.05542 0.79688 0.86986 0.0
C1818 C 0.04578 0.80228 0.88543 0.0
C1819 C 0.06805 0.80584 0.83967 0.0
C1820 C 0.07122 0.82034 0.82432 0.0
C1821 C 0.06242 0.82632 0.84333 0.0
C1822 C 0.04971 0.81731 0.8738 0.0
C1823 C 0.08266 0.82821 0.78394 0.0
C1824 C 0.09652 0.84105 0.79652 0.0
C1825 C 0.08065 0.82156 0.73501 0.0
C1826 C 0.06588 0.80841 0.7192 0.0
C1827 C 0.05247 0.80917 0.7223 0.0
C1828 C 0.03851 0.79661 0.70912 0.0
C1829 C 0.03782 0.78325 0.69235 0.0
C1830 C 0.0511 0.78244 0.68863 0.0
C1831 C 0.06508 0.79495 0.70191 0.0
H1832 H 0.02701 0.77354 0.6822 0.0
H1833 H 0.16256 0.8927 0.82454 0.0
H1834 H 0.33485 0.40575 0.72333 0.0
H1835 H 0.33979 0.38816 0.772 0.0
H1836 H 0.35479 0.37634 0.63406 0.0
H1837 H 0.34895 0.39326 0.58485 0.0
H1838 H 0.3412 0.35249 0.69038 0.0
H1839 H 0.37985 0.40433 0.72214 0.0
H1840 H 0.38979 0.43092 0.74846 0.0
H1841 H 0.37093 0.41616 0.89831 0.0
H1842 H 0.36072 0.38945 0.87263 0.0
H1843 H 0.40096 0.34163 0.77687 0.0
H1844 H 0.38438 0.35007 0.74007 0.0
H1845 H 0.36399 0.34637 0.88773 0.0
H1846 H 0.38046 0.33757 0.92486 0.0
H1847 H 0.37634 0.37541 0.83708 0.0
H1848 H 0.34227 0.3229 0.80362 0.0
H1849 H 0.33501 0.29725 0.7729 0.0
H1850 H 0.34847 0.31446 0.62058 0.0
H1851 H 0.35602 0.34026 0.65049 0.0
C1852 C 0.33902 0.39923 0.70341 0.0
C1853 C 0.34172 0.40095 0.65058 0.0
C1854 C 0.34189 0.38923 0.73122 0.0
C1855 C 0.34806 0.38122 0.70697 0.0
C1856 C 0.35009 0.38243 0.65369 0.0
C1857 C 0.34682 0.39213 0.62562 0.0
C1858 C 0.35335 0.37242 0.73732 0.0
C1859 C 0.34892 0.35752 0.72234 0.0
C1860 C 0.36321 0.37886 0.77975 0.0
C1861 C 0.36937 0.3949 0.79529 0.0
C1862 C 0.37774 0.40676 0.76059 0.0
C1863 C 0.38343 0.42184 0.7754 0.0
C1864 C 0.38095 0.42522 0.82497 0.0
C1865 C 0.37281 0.41352 0.85989 0.0
C1866 C 0.36707 0.39841 0.84524 0.0
C1867 C 0.3928 0.34241 0.80139 0.0
C1868 C 0.39201 0.33904 0.85372 0.0
C1869 C 0.38328 0.34713 0.78025 0.0
C1870 C 0.37292 0.34873 0.81117 0.0
C1871 C 0.37186 0.34508 0.86331 0.0
C1872 C 0.38124 0.34007 0.88438 0.0
C1873 C 0.36442 0.35566 0.78944 0.0
C1874 C 0.36833 0.37026 0.80589 0.0
C1875 C 0.35442 0.34908 0.74766 0.0
C1876 C 0.34979 0.33355 0.72941 0.0
C1877 C 0.34379 0.32124 0.76364 0.0
C1878 C 0.3396 0.30667 0.74635 0.0
C1879 C 0.3413 0.30423 0.69484 0.0
C1880 C 0.34716 0.31636 0.66048 0.0
C1881 C 0.35137 0.33096 0.67757 0.0
H1882 H 0.33806 0.29294 0.68154 0.0
H1883 H 0.38536 0.43691 0.83637 0.0
H1884 H 0.0397 0.32865 0.35698 0.0
H1885 H 0.06366 0.33742 0.31082 0.0
H1886 H 0.06959 0.38244 0.30208 0.0
H1887 H 0.04561 0.37367 0.34672 0.0
H1888 H 0.0726 0.37326 0.21106 0.0
H1889 H 0.09136 0.37329 0.38121 0.0
H1890 H 0.09202 0.36182 0.46352 0.0
H1891 H 0.10023 0.32957 0.38498 0.0
H1892 H 0.09943 0.34074 0.30212 0.0
H1893 H 0.14885 0.42402 0.15967 0.0
H1894 H 0.12421 0.4085 0.2001 0.0
H1895 H 0.12537 0.36794 0.16059 0.0
H1896 H 0.15017 0.38353 0.11916 0.0
H1897 H 0.11755 0.37013 0.26688 0.0
H1898 H 0.10212 0.37297 0.09697 0.0
H1899 H 0.10231 0.38557 0.01627 0.0
H1900 H 0.08832 0.41336 0.09626 0.0
H1901 H 0.08826 0.40108 0.17761 0.0
C1902 C 0.0463 0.34047 0.34598 0.0
C1903 C 0.04081 0.35048 0.35502 0.0
C1904 C 0.05996 0.34546 0.31962 0.0
C1905 C 0.06837 0.36057 0.30278 0.0
C1906 C 0.06321 0.3707 0.31423 0.0
C1907 C 0.04954 0.3657 0.33991 0.0
C1908 C 0.08205 0.3658 0.2705 0.0
C1909 C 0.08245 0.37264 0.22348 0.0
C1910 C 0.09467 0.36444 0.2857 0.0
C1911 C 0.09514 0.35773 0.33547 0.0
C1912 C 0.09317 0.36367 0.38148 0.0
C1913 C 0.0936 0.35724 0.42823 0.0
C1914 C 0.09611 0.34494 0.42947 0.0
C1915 C 0.09825 0.33908 0.38396 0.0
C1916 C 0.09782 0.34546 0.3371 0.0
C1917 C 0.14384 0.4118 0.15924 0.0
C1918 C 0.15138 0.40496 0.13622 0.0
C1919 C 0.12977 0.40296 0.18229 0.0
C1920 C 0.123 0.38711 0.18308 0.0
C1921 C 0.13046 0.38018 0.16021 0.0
C1922 C 0.14453 0.38905 0.13641 0.0
C1923 C 0.10821 0.37807 0.20874 0.0
C1924 C 0.10757 0.37047 0.25422 0.0
C1925 C 0.09536 0.3788 0.19241 0.0
C1926 C 0.09527 0.38615 0.14347 0.0
C1927 C 0.09919 0.38184 0.09743 0.0
C1928 C 0.09926 0.38891 0.05155 0.0
C1929 C 0.09535 0.40027 0.05114 0.0
C1930 C 0.09134 0.40456 0.09662 0.0
C1931 C 0.09127 0.39753 0.14263 0.0
H1932 H 0.09542 0.40573 0.01558 0.0
H1933 H 0.09644 0.33998 0.4657 0.0
H1934 H 0.83758 0.79292 0.4278 0.0
H1935 H 0.82864 0.80733 0.37867 0.0
H1936 H 0.86638 0.82205 0.27524 0.0
H1937 H 0.87541 0.80754 0.3241 0.0
H1938 H 0.85473 0.8443 0.29903 0.0
H1939 H 0.83969 0.79377 0.23643 0.0
H1940 H 0.83003 0.76644 0.24941 0.0
H1941 H 0.78857 0.76122 0.31092 0.0
H1942 H 0.79813 0.78859 0.29921 0.0
H1943 H 0.81269 0.8571 0.10162 0.0
H1944 H 0.82962 0.84993 0.14514 0.0
H1945 H 0.79285 0.82009 0.24452 0.0
H1946 H 0.77599 0.82682 0.2008 0.0
H1947 H 0.80717 0.80643 0.2134 0.0
H1948 H 0.82162 0.85604 0.28192 0.0
H1949 H 0.83095 0.88351 0.27675 0.0
H1950 H 0.87258 0.89076 0.20982 0.0
H1951 H 0.8634 0.86328 0.21401 0.0
C1952 C 0.84428 0.79962 0.39564 0.0
C1953 C 0.85705 0.79892 0.37928 0.0
C1954 C 0.83916 0.80786 0.36766 0.0
C1955 C 0.84678 0.81556 0.32311 0.0
C1956 C 0.86039 0.81617 0.3096 0.0
C1957 C 0.86549 0.80784 0.33746 0.0
C1958 C 0.83907 0.82058 0.2867 0.0
C1959 C 0.84447 0.83609 0.27951 0.0
C1960 C 0.82564 0.80979 0.2618 0.0
C1961 C 0.81967 0.79324 0.26731 0.0
C1962 C 0.82856 0.78681 0.25302 0.0
C1963 C 0.8231 0.77131 0.26013 0.0
C1964 C 0.8087 0.7621 0.28107 0.0
C1965 C 0.79972 0.76837 0.29474 0.0
C1966 C 0.80515 0.78387 0.28784 0.0
C1967 C 0.80825 0.84893 0.13251 0.0
C1968 C 0.79302 0.8425 0.14775 0.0
C1969 C 0.81794 0.84492 0.15754 0.0
C1970 C 0.81253 0.83456 0.19841 0.0
C1971 C 0.79728 0.82806 0.21303 0.0
C1972 C 0.78764 0.83195 0.18797 0.0
C1973 C 0.8225 0.83027 0.22652 0.0
C1974 C 0.81755 0.81476 0.23207 0.0
C1975 C 0.83623 0.8411 0.25016 0.0
C1976 C 0.84175 0.8576 0.24767 0.0
C1977 C 0.83271 0.86348 0.2657 0.0
C1978 C 0.83798 0.87905 0.26303 0.0
C1979 C 0.85233 0.88887 0.24281 0.0
C1980 C 0.86146 0.88314 0.22536 0.0
C1981 C 0.85623 0.86757 0.22789 0.0
H1982 H 0.8564 0.90093 0.24078 0.0
H1983 H 0.8045 0.75011 0.28661 0.0
H1984 H 0.33686 0.02384 0.24923 0.0
H1985 H 0.34345 0.04826 0.28792 0.0
H1986 H 0.33496 0.0635 0.14435 0.0
H1987 H 0.328 0.0389 0.10559 0.0
H1988 H 0.36503 0.08141 0.18729 0.0
H1989 H 0.31302 0.06058 0.23463 0.0
H1990 H 0.28857 0.0416 0.27199 0.0
H1991 H 0.30958 0.0481 0.41922 0.0
H1992 H 0.33422 0.06697 0.3826 0.0
H1993 H 0.39247 0.15421 0.28371 0.0
H1994 H 0.37466 0.13 0.24421 0.0
H1995 H 0.36973 0.10726 0.38823 0.0
H1996 H 0.3869 0.13174 0.42862 0.0
H1997 H 0.34392 0.09351 0.33936 0.0
H1998 H 0.39566 0.11012 0.29411 0.0
H1999 H 0.42117 0.12786 0.26056 0.0
H2000 H 0.402 0.12761 0.11408 0.0
H2001 H 0.37635 0.11 0.147 0.0
C2002 C 0.33607 0.03228 0.22625 0.0
C2003 C 0.33203 0.02957 0.1744 0.0
C2004 C 0.33975 0.04616 0.24845 0.0
C2005 C 0.33963 0.05761 0.21896 0.0
C2006 C 0.335 0.05473 0.1677 0.0
C2007 C 0.33103 0.04071 0.14568 0.0
C2008 C 0.34634 0.07311 0.23998 0.0
C2009 C 0.36025 0.0842 0.21975 0.0
C2010 C 0.34032 0.07644 0.28351 0.0
C2011 C 0.32551 0.06512 0.30574 0.0
C2012 C 0.31246 0.05787 0.27488 0.0
C2013 C 0.29856 0.04715 0.29595 0.0
C2014 C 0.29753 0.04362 0.34792 0.0
C2015 C 0.3104 0.05084 0.37896 0.0
C2016 C 0.32433 0.06156 0.35807 0.0
C2017 C 0.38738 0.14405 0.30704 0.0
C2018 C 0.39116 0.14471 0.35891 0.0
C2019 C 0.37725 0.13023 0.28446 0.0
C2020 C 0.37121 0.11674 0.31286 0.0
C2021 C 0.37433 0.1175 0.36547 0.0
C2022 C 0.38416 0.13145 0.38848 0.0
C2023 C 0.36271 0.10183 0.28682 0.0
C2024 C 0.34857 0.09083 0.3063 0.0
C2025 C 0.36866 0.09838 0.24316 0.0
C2026 C 0.38408 0.10888 0.22317 0.0
C2027 C 0.39689 0.11393 0.25484 0.0
C2028 C 0.41136 0.12395 0.23593 0.0
C2029 C 0.4132 0.1289 0.18526 0.0
C2030 C 0.40056 0.12379 0.15335 0.0
C2031 C 0.38605 0.11379 0.17209 0.0
H2032 H 0.42442 0.13666 0.17069 0.0
H2033 H 0.28675 0.03532 0.36416 0.0
loop_
_geom_bond_atom_site_label_1
_geom_bond_atom_site_label_2
_geom_bond_distance
_geom_bond_site_symmetry_2
_ccdc_geom_bond_type
In0 O1 2.294 . S
In0 O2 2.326 . S
In0 O6 2.266 . S
In0 O7 2.326 . S
In0 O8 2.266 . S
In0 O9 2.326 . S
In0 O11 2.294 . S
In0 O12 2.326 . S
O1 In0 2.294 . S
O1 C10 1.240 . S
O2 In0 2.326 . S
O2 C10 1.252 . S
C3 O6 1.252 . S
C3 O7 1.260 . S
C4 O11 1.240 . S
C4 O12 1.252 . S
C5 O8 1.252 . S
C5 O9 1.260 . S
O6 In0 2.266 . S
O6 C3 1.252 . S
O7 In0 2.326 . S
O7 C3 1.260 . S
O8 In0 2.266 . S
O8 C5 1.252 . S
O9 In0 2.326 . S
O9 C5 1.260 . S
C10 O1 1.240 . S
C10 O2 1.252 . S
O11 In0 2.294 . S
O11 C4 1.240 . S
O12 In0 2.326 . S
O12 C4 1.252 . S
In13 O14 2.294 . S
In13 O15 2.326 . S
In13 O19 2.266 . S
In13 O20 2.326 . S
In13 O21 2.266 . S
In13 O22 2.326 . S
In13 O24 2.294 . S
In13 O25 2.326 . S
O14 In13 2.294 . S
O14 C23 1.240 . S
O15 In13 2.326 . S
O15 C23 1.252 . S
C16 O19 1.252 . S
C16 O20 1.260 . S
C17 O24 1.240 . S
C17 O25 1.252 . S
C18 O21 1.252 . S
C18 O22 1.260 . S
O19 In13 2.266 . S
O19 C16 1.252 . S
O20 In13 2.326 . S
O20 C16 1.260 . S
O21 In13 2.266 . S
O21 C18 1.252 . S
O22 In13 2.326 . S
O22 C18 1.260 . S
C23 O14 1.240 . S
C23 O15 1.252 . S
O24 In13 2.294 . S
O24 C17 1.240 . S
O25 In13 2.326 . S
O25 C17 1.252 . S
In26 O27 2.294 . S
In26 O28 2.326 . S
In26 O32 2.266 . S
In26 O33 2.326 . S
In26 O34 2.266 . S
In26 O35 2.326 . S
In26 O37 2.294 . S
In26 O38 2.326 . S
O27 In26 2.294 . S
O27 C36 1.240 . S
O28 In26 2.326 . S
O28 C36 1.252 . S
C29 O32 1.252 . S
C29 O33 1.260 . S
C30 O37 1.240 . S
C30 O38 1.252 . S
C31 O34 1.252 . S
C31 O35 1.260 . S
O32 In26 2.266 . S
O32 C29 1.252 . S
O33 In26 2.326 . S
O33 C29 1.260 . S
O34 In26 2.266 . S
O34 C31 1.252 . S
O35 In26 2.326 . S
O35 C31 1.260 . S
C36 O27 1.240 . S
C36 O28 1.252 . S
O37 In26 2.294 . S
O37 C30 1.240 . S
O38 In26 2.326 . S
O38 C30 1.252 . S
In39 O40 2.294 . S
In39 O41 2.326 . S
In39 O45 2.266 . S
In39 O46 2.326 . S
In39 O47 2.266 . S
In39 O48 2.326 . S
In39 O50 2.294 . S
In39 O51 2.326 . S
O40 In39 2.294 . S
O40 C49 1.240 . S
O41 In39 2.326 . S
O41 C49 1.252 . S
C42 O45 1.252 . S
C42 O46 1.260 . S
C43 O50 1.240 . S
C43 O51 1.252 . S
C44 O47 1.252 . S
C44 O48 1.260 . S
O45 In39 2.266 . S
O45 C42 1.252 . S
O46 In39 2.326 . S
O46 C42 1.260 . S
O47 In39 2.266 . S
O47 C44 1.252 . S
O48 In39 2.326 . S
O48 C44 1.260 . S
C49 O40 1.240 . S
C49 O41 1.252 . S
O50 In39 2.294 . S
O50 C43 1.240 . S
O51 In39 2.326 . S
O51 C43 1.252 . S
In52 O53 2.294 . S
In52 O54 2.326 . S
In52 O58 2.266 . S
In52 O59 2.326 . S
In52 O60 2.266 . S
In52 O61 2.326 . S
In52 O63 2.294 . S
In52 O64 2.326 . S
O53 In52 2.294 . S
O53 C62 1.240 . S
O54 In52 2.326 . S
O54 C62 1.252 . S
C55 O58 1.252 . S
C55 O59 1.260 . S
C56 O63 1.240 . S
C56 O64 1.252 . S
C57 O60 1.252 . S
C57 O61 1.260 . S
O58 In52 2.266 . S
O58 C55 1.252 . S
O59 In52 2.326 . S
O59 C55 1.260 . S
O60 In52 2.266 . S
O60 C57 1.252 . S
O61 In52 2.326 . S
O61 C57 1.260 . S
C62 O53 1.240 . S
C62 O54 1.252 . S
O63 In52 2.294 . S
O63 C56 1.240 . S
O64 In52 2.326 . S
O64 C56 1.252 . S
In65 O66 2.294 . S
In65 O67 2.326 . S
In65 O71 2.266 . S
In65 O72 2.326 . S
In65 O73 2.266 . S
In65 O74 2.326 . S
In65 O76 2.294 . S
In65 O77 2.326 . S
O66 In65 2.294 . S
O66 C75 1.240 . S
O67 In65 2.326 . S
O67 C75 1.252 . S
C68 O71 1.252 . S
C68 O72 1.260 . S
C69 O76 1.240 . S
C69 O77 1.252 . S
C70 O73 1.252 . S
C70 O74 1.260 . S
O71 In65 2.266 . S
O71 C68 1.252 . S
O72 In65 2.326 . S
O72 C68 1.260 . S
O73 In65 2.266 . S
O73 C70 1.252 . S
O74 In65 2.326 . S
O74 C70 1.260 . S
C75 O66 1.240 . S
C75 O67 1.252 . S
O76 In65 2.294 . S
O76 C69 1.240 . S
O77 In65 2.326 . S
O77 C69 1.252 . S
In78 O79 2.328 . S
In78 O80 2.374 . S
In78 O84 2.198 1_565 S
In78 O85 2.280 1_565 S
In78 O86 2.233 1_565 S
In78 O87 2.280 1_565 S
In78 O89 2.328 . S
In78 O90 2.374 . S
O79 In78 2.328 . S
O79 C88 1.240 . S
O80 In78 2.374 . S
O80 C88 1.252 . S
C81 O84 1.290 . S
C81 O85 1.260 . S
C82 O89 1.240 . S
C82 O90 1.252 . S
C83 O86 1.252 . S
C83 O87 1.260 . S
O84 In78 2.198 1_545 S
O84 C81 1.290 . S
O85 In78 2.280 1_545 S
O85 C81 1.260 . S
O86 In78 2.233 1_545 S
O86 C83 1.252 . S
O87 In78 2.280 1_545 S
O87 C83 1.260 . S
C88 O79 1.240 . S
C88 O80 1.252 . S
O89 In78 2.328 . S
O89 C82 1.240 . S
O90 In78 2.374 . S
O90 C82 1.252 . S
In91 O92 2.294 . S
In91 O93 2.326 . S
In91 O97 2.266 . S
In91 O98 2.326 . S
In91 O99 2.266 . S
In91 O100 2.326 . S
In91 O102 2.294 . S
In91 O103 2.326 . S
O92 In91 2.294 . S
O92 C101 1.240 . S
O93 In91 2.326 . S
O93 C101 1.252 . S
C94 O97 1.252 . S
C94 O98 1.260 . S
C95 O102 1.240 . S
C95 O103 1.252 . S
C96 O99 1.252 . S
C96 O100 1.260 . S
O97 In91 2.266 . S
O97 C94 1.252 . S
O98 In91 2.326 . S
O98 C94 1.260 . S
O99 In91 2.266 . S
O99 C96 1.252 . S
O100 In91 2.326 . S
O100 C96 1.260 . S
C101 O92 1.240 . S
C101 O93 1.252 . S
O102 In91 2.294 . S
O102 C95 1.240 . S
O103 In91 2.326 . S
O103 C95 1.252 . S
In104 O105 2.294 . S
In104 O106 2.326 . S
In104 O110 2.266 . S
In104 O111 2.326 . S
In104 O112 2.266 . S
In104 O113 2.326 . S
In104 O115 2.294 . S
In104 O116 2.326 . S
O105 In104 2.294 . S
O105 C114 1.240 . S
O106 In104 2.326 . S
O106 C114 1.252 . S
C107 O110 1.252 . S
C107 O111 1.260 . S
C108 O115 1.240 . S
C108 O116 1.252 . S
C109 O112 1.252 . S
C109 O113 1.260 . S
O110 In104 2.266 . S
O110 C107 1.252 . S
O111 In104 2.326 . S
O111 C107 1.260 . S
O112 In104 2.266 . S
O112 C109 1.252 . S
O113 In104 2.326 . S
O113 C109 1.260 . S
C114 O105 1.240 . S
C114 O106 1.252 . S
O115 In104 2.294 . S
O115 C108 1.240 . S
O116 In104 2.326 . S
O116 C108 1.252 . S
In117 O118 2.294 . S
In117 O119 2.326 . S
In117 O123 2.266 . S
In117 O124 2.326 . S
In117 O125 2.266 . S
In117 O126 2.326 . S
In117 O128 2.294 . S
In117 O129 2.326 . S
O118 In117 2.294 . S
O118 C127 1.240 . S
O119 In117 2.326 . S
O119 C127 1.252 . S
C120 O123 1.252 . S
C120 O124 1.260 . S
C121 O128 1.240 . S
C121 O129 1.252 . S
C122 O125 1.252 . S
C122 O126 1.260 . S
O123 In117 2.266 . S
O123 C120 1.252 . S
O124 In117 2.326 . S
O124 C120 1.260 . S
O125 In117 2.266 . S
O125 C122 1.252 . S
O126 In117 2.326 . S
O126 C122 1.260 . S
C127 O118 1.240 . S
C127 O119 1.252 . S
O128 In117 2.294 . S
O128 C121 1.240 . S
O129 In117 2.326 . S
O129 C121 1.252 . S
In130 O131 2.343 . S
In130 O132 2.333 . S
In130 O136 2.327 1_565 S
In130 O137 2.310 1_565 S
In130 O138 2.202 1_565 S
In130 O139 2.295 1_565 S
In130 O141 2.281 . S
In130 O142 2.371 . S
O131 In130 2.343 . S
O131 C140 1.240 . S
O132 In130 2.333 . S
O132 C140 1.252 . S
C133 O136 1.289 . S
C133 O137 1.260 . S
C134 O141 1.240 . S
C134 O142 1.252 . S
C135 O138 1.252 . S
C135 O139 1.260 . S
O136 In130 2.327 1_545 S
O136 C133 1.289 . S
O137 In130 2.310 1_545 S
O137 C133 1.260 . S
O138 In130 2.202 1_545 S
O138 C135 1.252 . S
O139 In130 2.295 1_545 S
O139 C135 1.260 . S
C140 O131 1.240 . S
C140 O132 1.252 . S
O141 In130 2.281 . S
O141 C134 1.240 . S
O142 In130 2.371 . S
O142 C134 1.252 . S
In143 O144 2.294 . S
In143 O145 2.326 . S
In143 O149 2.266 . S
In143 O150 2.326 . S
In143 O151 2.266 . S
In143 O152 2.326 . S
In143 O154 2.294 . S
In143 O155 2.326 . S
O144 In143 2.294 . S
O144 C153 1.240 . S
O145 In143 2.326 . S
O145 C153 1.252 . S
C146 O149 1.252 . S
C146 O150 1.260 . S
C147 O154 1.240 . S
C147 O155 1.252 . S
C148 O151 1.252 . S
C148 O152 1.260 . S
O149 In143 2.266 . S
O149 C146 1.252 . S
O150 In143 2.326 . S
O150 C146 1.260 . S
O151 In143 2.266 . S
O151 C148 1.252 . S
O152 In143 2.326 . S
O152 C148 1.260 . S
C153 O144 1.240 . S
C153 O145 1.252 . S
O154 In143 2.294 . S
O154 C147 1.240 . S
O155 In143 2.326 . S
O155 C147 1.252 . S
In156 O157 2.294 . S
In156 O158 2.326 . S
In156 O162 2.266 . S
In156 O163 2.326 . S
In156 O164 2.266 . S
In156 O165 2.326 . S
In156 O167 2.294 . S
In156 O168 2.326 . S
O157 In156 2.294 . S
O157 C166 1.240 . S
O158 In156 2.326 . S
O158 C166 1.252 . S
C159 O162 1.252 . S
C159 O163 1.260 . S
C160 O167 1.240 . S
C160 O168 1.252 . S
C161 O164 1.252 . S
C161 O165 1.260 . S
O162 In156 2.266 . S
O162 C159 1.252 . S
O163 In156 2.326 . S
O163 C159 1.260 . S
O164 In156 2.266 . S
O164 C161 1.252 . S
O165 In156 2.326 . S
O165 C161 1.260 . S
C166 O157 1.240 . S
C166 O158 1.252 . S
O167 In156 2.294 . S
O167 C160 1.240 . S
O168 In156 2.326 . S
O168 C160 1.252 . S
In169 O170 2.294 . S
In169 O171 2.326 . S
In169 O175 2.266 . S
In169 O176 2.326 . S
In169 O177 2.266 . S
In169 O178 2.326 . S
In169 O180 2.294 . S
In169 O181 2.326 . S
O170 In169 2.294 . S
O170 C179 1.240 . S
O171 In169 2.326 . S
O171 C179 1.252 . S
C172 O175 1.252 . S
C172 O176 1.260 . S
C173 O180 1.240 . S
C173 O181 1.252 . S
C174 O177 1.252 . S
C174 O178 1.260 . S
O175 In169 2.266 . S
O175 C172 1.252 . S
O176 In169 2.326 . S
O176 C172 1.260 . S
O177 In169 2.266 . S
O177 C174 1.252 . S
O178 In169 2.326 . S
O178 C174 1.260 . S
C179 O170 1.240 . S
C179 O171 1.252 . S
O180 In169 2.294 . S
O180 C173 1.240 . S
O181 In169 2.326 . S
O181 C173 1.252 . S
In182 O183 2.329 . S
In182 O184 2.375 . S
In182 O188 2.232 1_655 S
In182 O189 2.279 1_655 S
In182 O190 2.198 1_655 S
In182 O191 2.279 1_655 S
In182 O193 2.329 . S
In182 O194 2.375 . S
O183 In182 2.329 . S
O183 C192 1.240 . S
O184 In182 2.375 . S
O184 C192 1.252 . S
C185 O188 1.252 . S
C185 O189 1.260 . S
C186 O193 1.240 . S
C186 O194 1.252 . S
C187 O190 1.289 . S
C187 O191 1.260 . S
O188 In182 2.232 1_455 S
O188 C185 1.252 . S
O189 In182 2.279 1_455 S
O189 C185 1.260 . S
O190 In182 2.198 1_455 S
O190 C187 1.289 . S
O191 In182 2.279 1_455 S
O191 C187 1.260 . S
C192 O183 1.240 . S
C192 O184 1.252 . S
O193 In182 2.329 . S
O193 C186 1.240 . S
O194 In182 2.375 . S
O194 C186 1.252 . S
In195 O196 2.294 . S
In195 O197 2.326 . S
In195 O201 2.266 . S
In195 O202 2.326 . S
In195 O203 2.266 . S
In195 O204 2.326 . S
In195 O206 2.294 . S
In195 O207 2.326 . S
O196 In195 2.294 . S
O196 C205 1.240 . S
O197 In195 2.326 . S
O197 C205 1.252 . S
C198 O201 1.252 . S
C198 O202 1.260 . S
C199 O206 1.240 . S
C199 O207 1.252 . S
C200 O203 1.252 . S
C200 O204 1.260 . S
O201 In195 2.266 . S
O201 C198 1.252 . S
O202 In195 2.326 . S
O202 C198 1.260 . S
O203 In195 2.266 . S
O203 C200 1.252 . S
O204 In195 2.326 . S
O204 C200 1.260 . S
C205 O196 1.240 . S
C205 O197 1.252 . S
O206 In195 2.294 . S
O206 C199 1.240 . S
O207 In195 2.326 . S
O207 C199 1.252 . S
In208 O209 2.281 . S
In208 O210 2.371 . S
In208 O214 2.201 1_655 S
In208 O215 2.294 1_655 S
In208 O216 2.327 1_655 S
In208 O217 2.310 1_655 S
In208 O219 2.344 . S
In208 O220 2.333 . S
O209 In208 2.281 . S
O209 C218 1.240 . S
O210 In208 2.371 . S
O210 C218 1.252 . S
C211 O214 1.252 . S
C211 O215 1.260 . S
C212 O219 1.240 . S
C212 O220 1.252 . S
C213 O216 1.289 . S
C213 O217 1.260 . S
O214 In208 2.201 1_455 S
O214 C211 1.252 . S
O215 In208 2.294 1_455 S
O215 C211 1.260 . S
O216 In208 2.327 1_455 S
O216 C213 1.289 . S
O217 In208 2.310 1_455 S
O217 C213 1.260 . S
C218 O209 1.240 . S
C218 O210 1.252 . S
O219 In208 2.344 . S
O219 C212 1.240 . S
O220 In208 2.333 . S
O220 C212 1.252 . S
In221 O222 2.294 . S
In221 O223 2.326 . S
In221 O227 2.266 . S
In221 O228 2.326 . S
In221 O229 2.266 . S
In221 O230 2.326 . S
In221 O232 2.294 . S
In221 O233 2.326 . S
O222 In221 2.294 . S
O222 C231 1.240 . S
O223 In221 2.326 . S
O223 C231 1.252 . S
C224 O227 1.252 . S
C224 O228 1.260 . S
C225 O232 1.240 . S
C225 O233 1.252 . S
C226 O229 1.252 . S
C226 O230 1.260 . S
O227 In221 2.266 . S
O227 C224 1.252 . S
O228 In221 2.326 . S
O228 C224 1.260 . S
O229 In221 2.266 . S
O229 C226 1.252 . S
O230 In221 2.326 . S
O230 C226 1.260 . S
C231 O222 1.240 . S
C231 O223 1.252 . S
O232 In221 2.294 . S
O232 C225 1.240 . S
O233 In221 2.326 . S
O233 C225 1.252 . S
H234 C252 0.951 . S
H235 C254 0.951 . S
H236 C256 0.950 . S
H237 C257 0.950 . S
H238 C259 0.950 . S
H239 C262 0.950 . S
H240 C263 0.950 . S
H241 C265 0.950 . S
H242 C266 0.950 . S
H243 C267 0.951 . S
H244 C269 0.951 . S
H245 C271 0.950 . S
H246 C272 0.950 . S
H247 C274 0.950 . S
H248 C277 0.950 . S
H249 C278 0.950 . S
H250 C280 0.950 . S
H251 C281 0.950 . S
C252 H234 0.951 . S
C252 C253 1.366 . S
C252 C254 1.388 . S
C253 C252 1.366 . S
C253 C257 1.385 . S
C254 H235 0.951 . S
C254 C252 1.388 . S
C254 C255 1.366 . S
C255 C254 1.366 . S
C255 C256 1.414 . S
C255 C258 1.499 . S
C256 H236 0.950 . S
C256 C255 1.414 . S
C256 C257 1.374 . S
C257 H237 0.950 . S
C257 C253 1.385 . S
C257 C256 1.374 . S
C258 C255 1.499 . S
C258 C259 1.373 . S
C258 C260 1.389 . S
C259 H238 0.950 . S
C259 C258 1.373 . S
C259 C275 1.377 1_556 S
C260 C258 1.389 . S
C260 C261 1.524 . S
C260 C274 1.377 1_556 S
C261 C260 1.524 . S
C261 C262 1.397 . S
C261 C266 1.363 . S
C262 H239 0.950 . S
C262 C261 1.397 . S
C262 C263 1.334 . S
C263 H240 0.950 . S
C263 C262 1.334 . S
C263 C264 1.287 . S
C264 C263 1.287 . S
C264 C265 1.524 . S
C264 H283 0.913 . S
C265 H241 0.950 . S
C265 C264 1.524 . S
C265 C266 1.415 . S
C266 H242 0.950 . S
C266 C261 1.363 . S
C266 C265 1.415 . S
C267 H243 0.951 . S
C267 C268 1.366 . S
C267 C269 1.388 . S
C268 C267 1.366 . S
C268 C272 1.385 . S
C269 H244 0.951 . S
C269 C267 1.388 . S
C269 C270 1.366 . S
C270 C269 1.366 . S
C270 C271 1.414 . S
C270 C273 1.499 . S
C271 H245 0.950 . S
C271 C270 1.414 . S
C271 C272 1.374 . S
C272 H246 0.950 . S
C272 C268 1.385 . S
C272 C271 1.374 . S
C273 C270 1.499 . S
C273 C274 1.373 . S
C273 C275 1.389 . S
C274 H247 0.950 . S
C274 C260 1.377 1_554 S
C274 C273 1.373 . S
C275 C259 1.377 1_554 S
C275 C273 1.389 . S
C275 C276 1.524 . S
C276 C275 1.524 . S
C276 C277 1.397 . S
C276 C281 1.363 . S
C277 H248 0.950 . S
C277 C276 1.397 . S
C277 C278 1.334 . S
C278 H249 0.950 . S
C278 C277 1.334 . S
C278 C279 1.287 . S
C279 C278 1.287 . S
C279 C280 1.524 . S
C279 H282 0.999 . S
C280 H250 0.950 . S
C280 C279 1.524 . S
C280 C281 1.415 . S
C281 H251 0.950 . S
C281 C276 1.363 . S
C281 C280 1.415 . S
H282 C279 0.999 . S
H283 C264 0.913 . S
H284 C302 0.951 . S
H285 C304 0.951 . S
H286 C306 0.950 . S
H287 C307 0.950 . S
H288 C309 0.950 . S
H289 C312 0.950 . S
H290 C313 0.950 . S
H291 C315 0.950 . S
H292 C316 0.950 . S
H293 C317 0.951 . S
H294 C319 0.951 . S
H295 C321 0.950 . S
H296 C322 0.950 . S
H297 C324 0.950 . S
H298 C327 0.950 . S
H299 C328 0.950 . S
H300 C330 0.950 . S
H301 C331 0.950 . S
C302 H284 0.951 . S
C302 C303 1.366 . S
C302 C304 1.388 . S
C303 C302 1.366 . S
C303 C307 1.385 . S
C304 H285 0.951 . S
C304 C302 1.388 . S
C304 C305 1.366 . S
C305 C304 1.366 . S
C305 C306 1.414 . S
C305 C308 1.499 . S
C306 H286 0.950 . S
C306 C305 1.414 . S
C306 C307 1.374 . S
C307 H287 0.950 . S
C307 C303 1.385 . S
C307 C306 1.374 . S
C308 C305 1.499 . S
C308 C309 1.373 . S
C308 C310 1.389 1_556 S
C309 H288 0.950 . S
C309 C308 1.373 . S
C309 C325 1.377 . S
C310 C308 1.389 1_554 S
C310 C311 1.524 . S
C310 C324 1.377 . S
C311 C310 1.524 . S
C311 C312 1.397 1_554 S
C311 C316 1.363 . S
C312 H289 0.950 . S
C312 C311 1.397 1_556 S
C312 C313 1.334 . S
C313 H290 0.950 . S
C313 C312 1.334 . S
C313 C314 1.287 1_556 S
C314 C313 1.287 1_554 S
C314 C315 1.524 . S
C314 H333 0.913 . S
C315 H291 0.950 . S
C315 C314 1.524 . S
C315 C316 1.415 . S
C316 H292 0.950 . S
C316 C311 1.363 . S
C316 C315 1.415 . S
C317 H293 0.951 . S
C317 C318 1.366 . S
C317 C319 1.388 . S
C318 C317 1.366 . S
C318 C322 1.385 . S
C319 H294 0.951 . S
C319 C317 1.388 . S
C319 C320 1.366 . S
C320 C319 1.366 . S
C320 C321 1.414 . S
C320 C323 1.499 . S
C321 H295 0.950 . S
C321 C320 1.414 . S
C321 C322 1.374 . S
C322 H296 0.950 . S
C322 C318 1.385 . S
C322 C321 1.374 . S
C323 C320 1.499 . S
C323 C324 1.373 . S
C323 C325 1.389 1_554 S
C324 H297 0.950 . S
C324 C310 1.377 . S
C324 C323 1.373 . S
C325 C309 1.377 . S
C325 C323 1.389 1_556 S
C325 C326 1.524 . S
C326 C325 1.524 . S
C326 C327 1.397 1_556 S
C326 C331 1.363 . S
C327 H298 0.950 . S
C327 C326 1.397 1_554 S
C327 C328 1.334 . S
C328 H299 0.950 . S
C328 C327 1.334 . S
C328 C329 1.287 1_554 S
C329 C328 1.287 1_556 S
C329 C330 1.524 . S
C329 H332 0.999 . S
C330 H300 0.950 . S
C330 C329 1.524 . S
C330 C331 1.415 . S
C331 H301 0.950 . S
C331 C326 1.363 . S
C331 C330 1.415 . S
H332 C329 0.999 . S
H333 C314 0.913 . S
H334 C352 0.951 . S
H335 C354 0.951 . S
H336 C356 0.950 . S
H337 C357 0.950 . S
H338 C359 0.950 . S
H339 C362 0.950 . S
H340 C363 0.950 . S
H341 C365 0.950 . S
H342 C366 0.950 . S
H343 C367 0.951 . S
H344 C369 0.951 . S
H345 C371 0.950 . S
H346 C372 0.950 . S
H347 C374 0.950 . S
H348 C377 0.950 . S
H349 C378 0.950 . S
H350 C380 0.950 . S
H351 C381 0.950 . S
C352 H334 0.951 . S
C352 C353 1.366 . S
C352 C354 1.388 . S
C353 C352 1.366 . S
C353 C357 1.385 . S
C354 H335 0.951 . S
C354 C352 1.388 . S
C354 C355 1.366 . S
C355 C354 1.366 . S
C355 C356 1.414 . S
C355 C358 1.499 . S
C356 H336 0.950 . S
C356 C355 1.414 . S
C356 C357 1.374 . S
C357 H337 0.950 . S
C357 C353 1.385 . S
C357 C356 1.374 . S
C358 C355 1.499 . S
C358 C359 1.373 1_554 S
C358 C360 1.389 . S
C359 H338 0.950 . S
C359 C358 1.373 1_556 S
C359 C375 1.377 . S
C360 C358 1.389 . S
C360 C361 1.524 . S
C360 C374 1.377 . S
C361 C360 1.524 . S
C361 C362 1.397 . S
C361 C366 1.363 . S
C362 H339 0.950 . S
C362 C361 1.397 . S
C362 C363 1.334 . S
C363 H340 0.950 . S
C363 C362 1.334 . S
C363 C364 1.287 . S
C364 C363 1.287 . S
C364 C365 1.524 . S
C364 H383 0.913 . S
C365 H341 0.950 . S
C365 C364 1.524 . S
C365 C366 1.415 . S
C366 H342 0.950 . S
C366 C361 1.363 . S
C366 C365 1.415 . S
C367 H343 0.951 . S
C367 C368 1.366 . S
C367 C369 1.388 . S
C368 C367 1.366 . S
C368 C372 1.385 . S
C369 H344 0.951 . S
C369 C367 1.388 . S
C369 C370 1.366 . S
C370 C369 1.366 . S
C370 C371 1.414 . S
C370 C373 1.499 . S
C371 H345 0.950 . S
C371 C370 1.414 . S
C371 C372 1.374 . S
C372 H346 0.950 . S
C372 C368 1.385 . S
C372 C371 1.374 . S
C373 C370 1.499 . S
C373 C374 1.373 1_556 S
C373 C375 1.389 . S
C374 H347 0.950 . S
C374 C360 1.377 . S
C374 C373 1.373 1_554 S
C375 C359 1.377 . S
C375 C373 1.389 . S
C375 C376 1.524 . S
C376 C375 1.524 . S
C376 C377 1.397 . S
C376 C381 1.363 . S
C377 H348 0.950 . S
C377 C376 1.397 . S
C377 C378 1.334 . S
C378 H349 0.950 . S
C378 C377 1.334 . S
C378 C379 1.287 . S
C379 C378 1.287 . S
C379 C380 1.524 . S
C379 H382 0.999 . S
C380 H350 0.950 . S
C380 C379 1.524 . S
C380 C381 1.415 . S
C381 H351 0.950 . S
C381 C376 1.363 . S
C381 C380 1.415 . S
H382 C379 0.999 . S
H383 C364 0.913 . S
H384 C402 0.951 . S
H385 C404 0.951 . S
H386 C406 0.950 . S
H387 C407 0.950 . S
H388 C409 0.950 . S
H389 C412 0.950 . S
H390 C413 0.950 . S
H391 C415 0.950 . S
H392 C416 0.950 . S
H393 C417 0.951 . S
H394 C419 0.951 . S
H395 C421 0.950 . S
H396 C422 0.950 . S
H397 C424 0.950 . S
H398 C427 0.950 . S
H399 C428 0.950 . S
H400 C430 0.950 . S
H401 C431 0.950 . S
C402 H384 0.951 . S
C402 C403 1.366 . S
C402 C404 1.388 . S
C403 C402 1.366 . S
C403 C407 1.385 . S
C404 H385 0.951 . S
C404 C402 1.388 . S
C404 C405 1.366 . S
C405 C404 1.366 . S
C405 C406 1.414 . S
C405 C408 1.499 . S
C406 H386 0.950 . S
C406 C405 1.414 . S
C406 C407 1.374 . S
C407 H387 0.950 . S
C407 C403 1.385 . S
C407 C406 1.374 . S
C408 C405 1.499 . S
C408 C409 1.373 . S
C408 C410 1.389 . S
C409 H388 0.950 . S
C409 C408 1.373 . S
C409 C425 1.377 . S
C410 C408 1.389 . S
C410 C411 1.524 . S
C410 C424 1.377 . S
C411 C410 1.524 . S
C411 C412 1.397 . S
C411 C416 1.363 . S
C412 H389 0.950 . S
C412 C411 1.397 . S
C412 C413 1.334 . S
C413 H390 0.950 . S
C413 C412 1.334 . S
C413 C414 1.287 . S
C414 C413 1.287 . S
C414 C415 1.524 . S
C414 H433 0.913 . S
C415 H391 0.950 . S
C415 C414 1.524 . S
C415 C416 1.415 . S
C416 H392 0.950 . S
C416 C411 1.363 . S
C416 C415 1.415 . S
C417 H393 0.951 . S
C417 C418 1.366 . S
C417 C419 1.388 . S
C418 C417 1.366 . S
C418 C422 1.385 . S
C419 H394 0.951 . S
C419 C417 1.388 . S
C419 C420 1.366 . S
C420 C419 1.366 . S
C420 C421 1.414 . S
C420 C423 1.499 . S
C421 H395 0.950 . S
C421 C420 1.414 . S
C421 C422 1.374 . S
C422 H396 0.950 . S
C422 C418 1.385 . S
C422 C421 1.374 . S
C423 C420 1.499 . S
C423 C424 1.373 . S
C423 C425 1.389 . S
C424 H397 0.950 . S
C424 C410 1.377 . S
C424 C423 1.373 . S
C425 C409 1.377 . S
C425 C423 1.389 . S
C425 C426 1.524 . S
C426 C425 1.524 . S
C426 C427 1.397 . S
C426 C431 1.363 . S
C427 H398 0.950 . S
C427 C426 1.397 . S
C427 C428 1.334 . S
C428 H399 0.950 . S
C428 C427 1.334 . S
C428 C429 1.287 . S
C429 C428 1.287 . S
C429 C430 1.524 . S
C429 H432 0.999 . S
C430 H400 0.950 . S
C430 C429 1.524 . S
C430 C431 1.415 . S
C431 H401 0.950 . S
C431 C426 1.363 . S
C431 C430 1.415 . S
H432 C429 0.999 . S
H433 C414 0.913 . S
H434 C452 0.951 . S
H435 C454 0.951 . S
H436 C456 0.950 . S
H437 C457 0.950 . S
H438 C459 0.950 . S
H439 C462 0.950 . S
H440 C463 0.950 . S
H441 C465 0.950 . S
H442 C466 0.950 . S
H443 C467 0.951 . S
H444 C469 0.951 . S
H445 C471 0.950 . S
H446 C472 0.950 . S
H447 C474 0.950 . S
H448 C477 0.950 . S
H449 C478 0.950 . S
H450 C480 0.950 . S
H451 C481 0.950 . S
C452 H434 0.951 . S
C452 C453 1.366 . S
C452 C454 1.388 . S
C453 C452 1.366 . S
C453 C457 1.385 . S
C454 H435 0.951 . S
C454 C452 1.388 . S
C454 C455 1.366 . S
C455 C454 1.366 . S
C455 C456 1.414 . S
C455 C458 1.499 . S
C456 H436 0.950 . S
C456 C455 1.414 . S
C456 C457 1.374 . S
C457 H437 0.950 . S
C457 C453 1.385 . S
C457 C456 1.374 . S
C458 C455 1.499 . S
C458 C459 1.373 . S
C458 C460 1.389 . S
C459 H438 0.950 . S
C459 C458 1.373 . S
C459 C475 1.377 . S
C460 C458 1.389 . S
C460 C461 1.524 . S
C460 C474 1.377 . S
C461 C460 1.524 . S
C461 C462 1.397 . S
C461 C466 1.363 . S
C462 H439 0.950 . S
C462 C461 1.397 . S
C462 C463 1.334 . S
C463 H440 0.950 . S
C463 C462 1.334 . S
C463 C464 1.287 . S
C464 C463 1.287 . S
C464 C465 1.524 . S
C464 H483 0.913 . S
C465 H441 0.950 . S
C465 C464 1.524 . S
C465 C466 1.415 . S
C466 H442 0.950 . S
C466 C461 1.363 . S
C466 C465 1.415 . S
C467 H443 0.951 . S
C467 C468 1.366 . S
C467 C469 1.388 . S
C468 C467 1.366 . S
C468 C472 1.385 . S
C469 H444 0.951 . S
C469 C467 1.388 . S
C469 C470 1.366 . S
C470 C469 1.366 . S
C470 C471 1.414 . S
C470 C473 1.499 . S
C471 H445 0.950 . S
C471 C470 1.414 . S
C471 C472 1.374 . S
C472 H446 0.950 . S
C472 C468 1.385 . S
C472 C471 1.374 . S
C473 C470 1.499 . S
C473 C474 1.373 . S
C473 C475 1.389 . S
C474 H447 0.950 . S
C474 C460 1.377 . S
C474 C473 1.373 . S
C475 C459 1.377 . S
C475 C473 1.389 . S
C475 C476 1.524 . S
C476 C475 1.524 . S
C476 C477 1.397 . S
C476 C481 1.363 . S
C477 H448 0.950 . S
C477 C476 1.397 . S
C477 C478 1.334 . S
C478 H449 0.950 . S
C478 C477 1.334 . S
C478 C479 1.287 . S
C479 C478 1.287 . S
C479 C480 1.524 . S
C479 H482 0.999 . S
C480 H450 0.950 . S
C480 C479 1.524 . S
C480 C481 1.415 . S
C481 H451 0.950 . S
C481 C476 1.363 . S
C481 C480 1.415 . S
H482 C479 0.999 . S
H483 C464 0.913 . S
H484 C502 0.951 . S
H485 C504 0.951 . S
H486 C506 0.950 . S
H487 C507 0.950 . S
H488 C509 0.950 . S
H489 C512 0.950 . S
H490 C513 0.950 . S
H491 C515 0.950 . S
H492 C516 0.950 . S
H493 C517 0.951 . S
H494 C519 0.951 . S
H495 C521 0.950 . S
H496 C522 0.950 . S
H497 C524 0.950 . S
H498 C527 0.950 . S
H499 C528 0.950 . S
H500 C530 0.950 . S
H501 C531 0.950 . S
C502 H484 0.951 . S
C502 C503 1.366 . S
C502 C504 1.388 . S
C503 C502 1.366 . S
C503 C507 1.385 . S
C504 H485 0.951 . S
C504 C502 1.388 . S
C504 C505 1.366 . S
C505 C504 1.366 . S
C505 C506 1.414 . S
C505 C508 1.499 . S
C506 H486 0.950 . S
C506 C505 1.414 . S
C506 C507 1.374 . S
C507 H487 0.950 . S
C507 C503 1.385 . S
C507 C506 1.374 . S
C508 C505 1.499 . S
C508 C509 1.373 . S
C508 C510 1.389 . S
C509 H488 0.950 . S
C509 C508 1.373 . S
C509 C525 1.377 . S
C510 C508 1.389 . S
C510 C511 1.524 . S
C510 C524 1.377 . S
C511 C510 1.524 . S
C511 C512 1.397 . S
C511 C516 1.363 . S
C512 H489 0.950 . S
C512 C511 1.397 . S
C512 C513 1.334 . S
C513 H490 0.950 . S
C513 C512 1.334 . S
C513 C514 1.287 . S
C514 C513 1.287 . S
C514 C515 1.524 . S
C514 H533 0.913 . S
C515 H491 0.950 . S
C515 C514 1.524 . S
C515 C516 1.415 . S
C516 H492 0.950 . S
C516 C511 1.363 . S
C516 C515 1.415 . S
C517 H493 0.951 . S
C517 C518 1.366 . S
C517 C519 1.388 . S
C518 C517 1.366 . S
C518 C522 1.385 . S
C519 H494 0.951 . S
C519 C517 1.388 . S
C519 C520 1.366 . S
C520 C519 1.366 . S
C520 C521 1.414 . S
C520 C523 1.499 . S
C521 H495 0.950 . S
C521 C520 1.414 . S
C521 C522 1.374 . S
C522 H496 0.950 . S
C522 C518 1.385 . S
C522 C521 1.374 . S
C523 C520 1.499 . S
C523 C524 1.373 . S
C523 C525 1.389 . S
C524 H497 0.950 . S
C524 C510 1.377 . S
C524 C523 1.373 . S
C525 C509 1.377 . S
C525 C523 1.389 . S
C525 C526 1.524 . S
C526 C525 1.524 . S
C526 C527 1.397 . S
C526 C531 1.363 . S
C527 H498 0.950 . S
C527 C526 1.397 . S
C527 C528 1.334 . S
C528 H499 0.950 . S
C528 C527 1.334 . S
C528 C529 1.287 . S
C529 C528 1.287 . S
C529 C530 1.524 . S
C529 H532 0.999 . S
C530 H500 0.950 . S
C530 C529 1.524 . S
C530 C531 1.415 . S
C531 H501 0.950 . S
C531 C526 1.363 . S
C531 C530 1.415 . S
H532 C529 0.999 . S
H533 C514 0.913 . S
H534 C552 0.951 . S
H535 C554 0.951 . S
H536 C556 0.950 . S
H537 C557 0.950 . S
H538 C559 0.950 . S
H539 C562 0.950 . S
H540 C563 0.950 . S
H541 C565 0.950 . S
H542 C566 0.950 . S
H543 C567 0.951 . S
H544 C569 0.951 . S
H545 C571 0.950 . S
H546 C572 0.950 . S
H547 C574 0.950 . S
H548 C577 0.950 . S
H549 C578 0.950 . S
H550 C580 0.950 . S
H551 C581 0.950 . S
C552 H534 0.951 . S
C552 C553 1.366 . S
C552 C554 1.388 . S
C553 C552 1.366 . S
C553 C557 1.385 . S
C554 H535 0.951 . S
C554 C552 1.388 . S
C554 C555 1.366 . S
C555 C554 1.366 . S
C555 C556 1.414 . S
C555 C558 1.499 . S
C556 H536 0.950 . S
C556 C555 1.414 . S
C556 C557 1.374 . S
C557 H537 0.950 . S
C557 C553 1.385 . S
C557 C556 1.374 . S
C558 C555 1.499 . S
C558 C559 1.373 . S
C558 C560 1.389 . S
C559 H538 0.950 . S
C559 C558 1.373 . S
C559 C575 1.377 . S
C560 C558 1.389 . S
C560 C561 1.524 . S
C560 C574 1.377 . S
C561 C560 1.524 . S
C561 C562 1.397 . S
C561 C566 1.363 . S
C562 H539 0.950 . S
C562 C561 1.397 . S
C562 C563 1.334 . S
C563 H540 0.950 . S
C563 C562 1.334 . S
C563 C564 1.287 . S
C564 C563 1.287 . S
C564 C565 1.524 . S
C564 H583 0.913 . S
C565 H541 0.950 . S
C565 C564 1.524 . S
C565 C566 1.415 . S
C566 H542 0.950 . S
C566 C561 1.363 . S
C566 C565 1.415 . S
C567 H543 0.951 . S
C567 C568 1.366 . S
C567 C569 1.388 . S
C568 C567 1.366 . S
C568 C572 1.385 . S
C569 H544 0.951 . S
C569 C567 1.388 . S
C569 C570 1.366 . S
C570 C569 1.366 . S
C570 C571 1.414 . S
C570 C573 1.499 . S
C571 H545 0.950 . S
C571 C570 1.414 . S
C571 C572 1.374 . S
C572 H546 0.950 . S
C572 C568 1.385 . S
C572 C571 1.374 . S
C573 C570 1.499 . S
C573 C574 1.373 . S
C573 C575 1.389 . S
C574 H547 0.950 . S
C574 C560 1.377 . S
C574 C573 1.373 . S
C575 C559 1.377 . S
C575 C573 1.389 . S
C575 C576 1.524 . S
C576 C575 1.524 . S
C576 C577 1.397 . S
C576 C581 1.363 . S
C577 H548 0.950 . S
C577 C576 1.397 . S
C577 C578 1.334 . S
C578 H549 0.950 . S
C578 C577 1.334 . S
C578 C579 1.287 . S
C579 C578 1.287 . S
C579 C580 1.524 . S
C579 H582 0.999 . S
C580 H550 0.950 . S
C580 C579 1.524 . S
C580 C581 1.415 . S
C581 H551 0.950 . S
C581 C576 1.363 . S
C581 C580 1.415 . S
H582 C579 0.999 . S
H583 C564 0.913 . S
H584 C602 0.951 . S
H585 C604 0.951 . S
H586 C606 0.950 . S
H587 C607 0.950 . S
H588 C609 0.950 . S
H589 C612 0.950 . S
H590 C613 0.950 . S
H591 C615 0.950 . S
H592 C616 0.950 . S
H593 C617 0.951 . S
H594 C619 0.951 . S
H595 C621 0.950 . S
H596 C622 0.950 . S
H597 C624 0.950 . S
H598 C627 0.950 . S
H599 C628 0.950 . S
H600 C630 0.950 . S
H601 C631 0.950 . S
C602 H584 0.951 . S
C602 C603 1.366 . S
C602 C604 1.388 . S
C603 C602 1.366 . S
C603 C607 1.385 . S
C604 H585 0.951 . S
C604 C602 1.388 . S
C604 C605 1.366 . S
C605 C604 1.366 . S
C605 C606 1.414 . S
C605 C608 1.499 . S
C606 H586 0.950 . S
C606 C605 1.414 . S
C606 C607 1.374 . S
C607 H587 0.950 . S
C607 C603 1.385 . S
C607 C606 1.374 . S
C608 C605 1.499 . S
C608 C609 1.373 . S
C608 C610 1.389 . S
C609 H588 0.950 . S
C609 C608 1.373 . S
C609 C625 1.377 . S
C610 C608 1.389 . S
C610 C611 1.524 . S
C610 C624 1.377 . S
C611 C610 1.524 . S
C611 C612 1.397 . S
C611 C616 1.363 . S
C612 H589 0.950 . S
C612 C611 1.397 . S
C612 C613 1.334 . S
C613 H590 0.950 . S
C613 C612 1.334 . S
C613 C614 1.287 . S
C614 C613 1.287 . S
C614 C615 1.524 . S
C614 H633 0.913 . S
C615 H591 0.950 . S
C615 C614 1.524 . S
C615 C616 1.415 . S
C616 H592 0.950 . S
C616 C611 1.363 . S
C616 C615 1.415 . S
C617 H593 0.951 . S
C617 C618 1.366 . S
C617 C619 1.388 . S
C618 C617 1.366 . S
C618 C622 1.385 . S
C619 H594 0.951 . S
C619 C617 1.388 . S
C619 C620 1.366 . S
C620 C619 1.366 . S
C620 C621 1.414 . S
C620 C623 1.499 . S
C621 H595 0.950 . S
C621 C620 1.414 . S
C621 C622 1.374 . S
C622 H596 0.950 . S
C622 C618 1.385 . S
C622 C621 1.374 . S
C623 C620 1.499 . S
C623 C624 1.373 . S
C623 C625 1.389 . S
C624 H597 0.950 . S
C624 C610 1.377 . S
C624 C623 1.373 . S
C625 C609 1.377 . S
C625 C623 1.389 . S
C625 C626 1.524 . S
C626 C625 1.524 . S
C626 C627 1.397 . S
C626 C631 1.363 . S
C627 H598 0.950 . S
C627 C626 1.397 . S
C627 C628 1.334 . S
C628 H599 0.950 . S
C628 C627 1.334 . S
C628 C629 1.287 . S
C629 C628 1.287 . S
C629 C630 1.524 . S
C629 H632 0.999 . S
C630 H600 0.950 . S
C630 C629 1.524 . S
C630 C631 1.415 . S
C631 H601 0.950 . S
C631 C626 1.363 . S
C631 C630 1.415 . S
H632 C629 0.999 . S
H633 C614 0.913 . S
H634 C652 0.951 . S
H635 C654 0.951 . S
H636 C656 0.950 . S
H637 C657 0.950 . S
H638 C659 0.950 . S
H639 C662 0.950 . S
H640 C663 0.950 . S
H641 C665 0.950 . S
H642 C666 0.950 . S
H643 C667 0.951 . S
H644 C669 0.951 . S
H645 C671 0.950 . S
H646 C672 0.950 . S
H647 C674 0.950 . S
H648 C677 0.950 . S
H649 C678 0.950 . S
H650 C680 0.950 . S
H651 C681 0.950 . S
C652 H634 0.951 . S
C652 C653 1.366 . S
C652 C654 1.388 . S
C653 C652 1.366 . S
C653 C657 1.385 . S
C654 H635 0.951 . S
C654 C652 1.388 . S
C654 C655 1.366 . S
C655 C654 1.366 . S
C655 C656 1.414 . S
C655 C658 1.499 . S
C656 H636 0.950 . S
C656 C655 1.414 . S
C656 C657 1.374 . S
C657 H637 0.950 . S
C657 C653 1.385 . S
C657 C656 1.374 . S
C658 C655 1.499 . S
C658 C659 1.373 . S
C658 C660 1.389 . S
C659 H638 0.950 . S
C659 C658 1.373 . S
C659 C675 1.377 . S
C660 C658 1.389 . S
C660 C661 1.524 . S
C660 C674 1.377 . S
C661 C660 1.524 . S
C661 C662 1.397 . S
C661 C666 1.363 . S
C662 H639 0.950 . S
C662 C661 1.397 . S
C662 C663 1.334 . S
C663 H640 0.950 . S
C663 C662 1.334 . S
C663 C664 1.287 . S
C664 C663 1.287 . S
C664 C665 1.524 . S
C664 H683 0.913 . S
C665 H641 0.950 . S
C665 C664 1.524 . S
C665 C666 1.415 . S
C666 H642 0.950 . S
C666 C661 1.363 . S
C666 C665 1.415 . S
C667 H643 0.951 . S
C667 C668 1.366 . S
C667 C669 1.388 . S
C668 C667 1.366 . S
C668 C672 1.385 . S
C669 H644 0.951 . S
C669 C667 1.388 . S
C669 C670 1.366 . S
C670 C669 1.366 . S
C670 C671 1.414 . S
C670 C673 1.499 . S
C671 H645 0.950 . S
C671 C670 1.414 . S
C671 C672 1.374 . S
C672 H646 0.950 . S
C672 C668 1.385 . S
C672 C671 1.374 . S
C673 C670 1.499 . S
C673 C674 1.373 . S
C673 C675 1.389 . S
C674 H647 0.950 . S
C674 C660 1.377 . S
C674 C673 1.373 . S
C675 C659 1.377 . S
C675 C673 1.389 . S
C675 C676 1.524 . S
C676 C675 1.524 . S
C676 C677 1.397 . S
C676 C681 1.363 . S
C677 H648 0.950 . S
C677 C676 1.397 . S
C677 C678 1.334 . S
C678 H649 0.950 . S
C678 C677 1.334 . S
C678 C679 1.287 . S
C679 C678 1.287 . S
C679 C680 1.524 . S
C679 H682 0.999 . S
C680 H650 0.950 . S
C680 C679 1.524 . S
C680 C681 1.415 . S
C681 H651 0.950 . S
C681 C676 1.363 . S
C681 C680 1.415 . S
H682 C679 0.999 . S
H683 C664 0.913 . S
H684 C702 0.951 1_554 S
H685 C704 0.951 . S
H686 C706 0.950 . S
H687 C707 0.950 . S
H688 C709 0.950 . S
H689 C712 0.950 . S
H690 C713 0.950 . S
H691 C715 0.950 . S
H692 C716 0.950 . S
H693 C717 0.951 . S
H694 C719 0.951 . S
H695 C721 0.950 . S
H696 C722 0.950 . S
H697 C724 0.950 . S
H698 C727 0.950 . S
H699 C728 0.950 . S
H700 C730 0.950 . S
H701 C731 0.950 . S
C702 H684 0.951 1_556 S
C702 C703 1.366 . S
C702 C704 1.388 . S
C703 C702 1.366 . S
C703 C707 1.385 . S
C704 H685 0.951 . S
C704 C702 1.388 . S
C704 C705 1.366 . S
C705 C704 1.366 . S
C705 C706 1.414 . S
C705 C708 1.499 . S
C706 H686 0.950 . S
C706 C705 1.414 . S
C706 C707 1.374 . S
C707 H687 0.950 . S
C707 C703 1.385 . S
C707 C706 1.374 . S
C708 C705 1.499 . S
C708 C709 1.373 . S
C708 C710 1.389 . S
C709 H688 0.950 . S
C709 C708 1.373 . S
C709 C725 1.377 . S
C710 C708 1.389 . S
C710 C711 1.524 . S
C710 C724 1.377 . S
C711 C710 1.524 . S
C711 C712 1.397 . S
C711 C716 1.363 . S
C712 H689 0.950 . S
C712 C711 1.397 . S
C712 C713 1.334 . S
C713 H690 0.950 . S
C713 C712 1.334 . S
C713 C714 1.287 . S
C714 C713 1.287 . S
C714 C715 1.524 . S
C714 H733 0.913 . S
C715 H691 0.950 . S
C715 C714 1.524 . S
C715 C716 1.415 . S
C716 H692 0.950 . S
C716 C711 1.363 . S
C716 C715 1.415 . S
C717 H693 0.951 . S
C717 C718 1.366 . S
C717 C719 1.388 . S
C718 C717 1.366 . S
C718 C722 1.385 . S
C719 H694 0.951 . S
C719 C717 1.388 . S
C719 C720 1.366 . S
C720 C719 1.366 . S
C720 C721 1.414 . S
C720 C723 1.499 . S
C721 H695 0.950 . S
C721 C720 1.414 . S
C721 C722 1.374 . S
C722 H696 0.950 . S
C722 C718 1.385 . S
C722 C721 1.374 . S
C723 C720 1.499 . S
C723 C724 1.373 . S
C723 C725 1.389 . S
C724 H697 0.950 . S
C724 C710 1.377 . S
C724 C723 1.373 . S
C725 C709 1.377 . S
C725 C723 1.389 . S
C725 C726 1.524 . S
C726 C725 1.524 . S
C726 C727 1.397 . S
C726 C731 1.363 . S
C727 H698 0.950 . S
C727 C726 1.397 . S
C727 C728 1.334 . S
C728 H699 0.950 . S
C728 C727 1.334 . S
C728 C729 1.287 . S
C729 C728 1.287 . S
C729 C730 1.524 . S
C729 H732 0.999 . S
C730 H700 0.950 . S
C730 C729 1.524 . S
C730 C731 1.415 . S
C731 H701 0.950 . S
C731 C726 1.363 . S
C731 C730 1.415 . S
H732 C729 0.999 . S
H733 C714 0.913 . S
H734 C752 0.951 . S
H735 C754 0.951 . S
H736 C756 0.950 . S
H737 C757 0.950 . S
H738 C759 0.950 . S
H739 C762 0.950 . S
H740 C763 0.950 . S
H741 C765 0.950 . S
H742 C766 0.950 . S
H743 C767 0.951 . S
H744 C769 0.951 . S
H745 C771 0.950 . S
H746 C772 0.950 . S
H747 C774 0.950 . S
H748 C777 0.950 . S
H749 C778 0.950 . S
H750 C780 0.950 . S
H751 C781 0.950 . S
C752 H734 0.951 . S
C752 C753 1.366 . S
C752 C754 1.388 . S
C753 C752 1.366 . S
C753 C757 1.385 . S
C754 H735 0.951 . S
C754 C752 1.388 . S
C754 C755 1.366 . S
C755 C754 1.366 . S
C755 C756 1.414 . S
C755 C758 1.499 . S
C756 H736 0.950 . S
C756 C755 1.414 . S
C756 C757 1.374 . S
C757 H737 0.950 . S
C757 C753 1.385 . S
C757 C756 1.374 . S
C758 C755 1.499 . S
C758 C759 1.373 . S
C758 C760 1.389 . S
C759 H738 0.950 . S
C759 C758 1.373 . S
C759 C775 1.377 . S
C760 C758 1.389 . S
C760 C761 1.524 . S
C760 C774 1.377 . S
C761 C760 1.524 . S
C761 C762 1.397 . S
C761 C766 1.363 . S
C762 H739 0.950 . S
C762 C761 1.397 . S
C762 C763 1.334 . S
C763 H740 0.950 . S
C763 C762 1.334 . S
C763 C764 1.287 . S
C764 C763 1.287 . S
C764 C765 1.524 . S
C764 H783 0.913 . S
C765 H741 0.950 . S
C765 C764 1.524 . S
C765 C766 1.415 . S
C766 H742 0.950 . S
C766 C761 1.363 . S
C766 C765 1.415 . S
C767 H743 0.951 . S
C767 C768 1.366 . S
C767 C769 1.388 . S
C768 C767 1.366 . S
C768 C772 1.385 . S
C769 H744 0.951 . S
C769 C767 1.388 . S
C769 C770 1.366 . S
C770 C769 1.366 . S
C770 C771 1.414 . S
C770 C773 1.499 . S
C771 H745 0.950 . S
C771 C770 1.414 . S
C771 C772 1.374 . S
C772 H746 0.950 . S
C772 C768 1.385 . S
C772 C771 1.374 . S
C773 C770 1.499 . S
C773 C774 1.373 . S
C773 C775 1.389 . S
C774 H747 0.950 . S
C774 C760 1.377 . S
C774 C773 1.373 . S
C775 C759 1.377 . S
C775 C773 1.389 . S
C775 C776 1.524 . S
C776 C775 1.524 . S
C776 C777 1.397 . S
C776 C781 1.363 . S
C777 H748 0.950 . S
C777 C776 1.397 . S
C777 C778 1.334 . S
C778 H749 0.950 . S
C778 C777 1.334 . S
C778 C779 1.287 . S
C779 C778 1.287 . S
C779 C780 1.524 . S
C779 H782 0.998 . S
C780 H750 0.950 . S
C780 C779 1.524 . S
C780 C781 1.415 . S
C781 H751 0.950 . S
C781 C776 1.363 . S
C781 C780 1.415 . S
H782 C779 0.998 . S
H783 C764 0.913 . S
H784 C802 0.951 . S
H785 C804 0.951 . S
H786 C806 0.950 . S
H787 C807 0.950 1_554 S
H788 C809 0.950 . S
H789 C812 0.950 . S
H790 C813 0.950 . S
H791 C815 0.950 . S
H792 C816 0.950 . S
H793 C817 0.951 . S
H794 C819 0.951 . S
H795 C821 0.950 . S
H796 C822 0.950 . S
H797 C824 0.950 . S
H798 C827 0.950 . S
H799 C828 0.950 . S
H800 C830 0.950 . S
H801 C831 0.950 . S
C802 H784 0.951 . S
C802 C803 1.366 . S
C802 C804 1.388 . S
C803 C802 1.366 . S
C803 C807 1.385 . S
C804 H785 0.951 . S
C804 C802 1.388 . S
C804 C805 1.366 . S
C805 C804 1.366 . S
C805 C806 1.414 . S
C805 C808 1.499 . S
C806 H786 0.950 . S
C806 C805 1.414 . S
C806 C807 1.374 . S
C807 H787 0.950 1_556 S
C807 C803 1.385 . S
C807 C806 1.374 . S
C808 C805 1.499 . S
C808 C809 1.373 . S
C808 C810 1.389 . S
C809 H788 0.950 . S
C809 C808 1.373 . S
C809 C825 1.377 . S
C810 C808 1.389 . S
C810 C811 1.524 . S
C810 C824 1.377 . S
C811 C810 1.524 . S
C811 C812 1.397 . S
C811 C816 1.363 . S
C812 H789 0.950 . S
C812 C811 1.397 . S
C812 C813 1.334 . S
C813 H790 0.950 . S
C813 C812 1.334 . S
C813 C814 1.287 . S
C814 C813 1.287 . S
C814 C815 1.524 . S
C814 H833 0.913 . S
C815 H791 0.950 . S
C815 C814 1.524 . S
C815 C816 1.415 . S
C816 H792 0.950 . S
C816 C811 1.363 . S
C816 C815 1.415 . S
C817 H793 0.951 . S
C817 C818 1.366 . S
C817 C819 1.388 . S
C818 C817 1.366 . S
C818 C822 1.385 . S
C819 H794 0.951 . S
C819 C817 1.388 . S
C819 C820 1.366 . S
C820 C819 1.366 . S
C820 C821 1.414 . S
C820 C823 1.499 . S
C821 H795 0.950 . S
C821 C820 1.414 . S
C821 C822 1.374 . S
C822 H796 0.950 . S
C822 C818 1.385 . S
C822 C821 1.374 . S
C823 C820 1.499 . S
C823 C824 1.373 . S
C823 C825 1.389 . S
C824 H797 0.950 . S
C824 C810 1.377 . S
C824 C823 1.373 . S
C825 C809 1.377 . S
C825 C823 1.389 . S
C825 C826 1.524 . S
C826 C825 1.524 . S
C826 C827 1.397 . S
C826 C831 1.363 . S
C827 H798 0.950 . S
C827 C826 1.397 . S
C827 C828 1.334 . S
C828 H799 0.950 . S
C828 C827 1.334 . S
C828 C829 1.287 . S
C829 C828 1.287 . S
C829 C830 1.524 . S
C829 H832 0.999 . S
C830 H800 0.950 . S
C830 C829 1.524 . S
C830 C831 1.415 . S
C831 H801 0.950 . S
C831 C826 1.363 . S
C831 C830 1.415 . S
H832 C829 0.999 . S
H833 C814 0.913 . S
H834 C852 0.951 . S
H835 C854 0.951 . S
H836 C856 0.950 . S
H837 C857 0.950 . S
H838 C859 0.950 . S
H839 C862 0.950 . S
H840 C863 0.950 . S
H841 C865 0.950 . S
H842 C866 0.950 . S
H843 C867 0.951 . S
H844 C869 0.951 . S
H845 C871 0.950 . S
H846 C872 0.950 . S
H847 C874 0.950 . S
H848 C877 0.950 . S
H849 C878 0.950 . S
H850 C880 0.950 . S
H851 C881 0.950 . S
C852 H834 0.951 . S
C852 C853 1.366 . S
C852 C854 1.388 . S
C853 C852 1.366 . S
C853 C857 1.385 . S
C854 H835 0.951 . S
C854 C852 1.388 . S
C854 C855 1.366 . S
C855 C854 1.366 . S
C855 C856 1.414 . S
C855 C858 1.499 . S
C856 H836 0.950 . S
C856 C855 1.414 . S
C856 C857 1.374 . S
C857 H837 0.950 . S
C857 C853 1.385 . S
C857 C856 1.374 . S
C858 C855 1.499 . S
C858 C859 1.373 . S
C858 C860 1.389 . S
C859 H838 0.950 . S
C859 C858 1.373 . S
C859 C875 1.377 . S
C860 C858 1.389 . S
C860 C861 1.524 . S
C860 C874 1.377 . S
C861 C860 1.524 . S
C861 C862 1.397 . S
C861 C866 1.363 . S
C862 H839 0.950 . S
C862 C861 1.397 . S
C862 C863 1.334 . S
C863 H840 0.950 . S
C863 C862 1.334 . S
C863 C864 1.287 . S
C864 C863 1.287 . S
C864 C865 1.524 . S
C864 H883 0.913 . S
C865 H841 0.950 . S
C865 C864 1.524 . S
C865 C866 1.415 . S
C866 H842 0.950 . S
C866 C861 1.363 . S
C866 C865 1.415 . S
C867 H843 0.951 . S
C867 C868 1.366 . S
C867 C869 1.388 . S
C868 C867 1.366 . S
C868 C872 1.385 . S
C869 H844 0.951 . S
C869 C867 1.388 . S
C869 C870 1.366 . S
C870 C869 1.366 . S
C870 C871 1.414 . S
C870 C873 1.499 . S
C871 H845 0.950 . S
C871 C870 1.414 . S
C871 C872 1.374 . S
C872 H846 0.950 . S
C872 C868 1.385 . S
C872 C871 1.374 . S
C873 C870 1.499 . S
C873 C874 1.373 . S
C873 C875 1.389 . S
C874 H847 0.950 . S
C874 C860 1.377 . S
C874 C873 1.373 . S
C875 C859 1.377 . S
C875 C873 1.389 . S
C875 C876 1.524 . S
C876 C875 1.524 . S
C876 C877 1.397 . S
C876 C881 1.363 . S
C877 H848 0.950 . S
C877 C876 1.397 . S
C877 C878 1.334 . S
C878 H849 0.950 . S
C878 C877 1.334 . S
C878 C879 1.287 . S
C879 C878 1.287 . S
C879 C880 1.524 . S
C879 H882 0.999 . S
C880 H850 0.950 . S
C880 C879 1.524 . S
C880 C881 1.415 . S
C881 H851 0.950 . S
C881 C876 1.363 . S
C881 C880 1.415 . S
H882 C879 0.999 . S
H883 C864 0.913 . S
H884 C902 0.951 . S
H885 C904 0.951 . S
H886 C906 0.950 . S
H887 C907 0.950 . S
H888 C909 0.950 . S
H889 C912 0.950 . S
H890 C913 0.950 . S
H891 C915 0.950 . S
H892 C916 0.950 . S
H893 C917 0.951 . S
H894 C919 0.951 . S
H895 C921 0.950 . S
H896 C922 0.950 . S
H897 C924 0.950 . S
H898 C927 0.950 . S
H899 C928 0.950 . S
H900 C930 0.950 . S
H901 C931 0.950 . S
C902 H884 0.951 . S
C902 C903 1.366 . S
C902 C904 1.388 . S
C903 C902 1.366 . S
C903 C907 1.385 . S
C904 H885 0.951 . S
C904 C902 1.388 . S
C904 C905 1.366 . S
C905 C904 1.366 . S
C905 C906 1.414 . S
C905 C908 1.499 . S
C906 H886 0.950 . S
C906 C905 1.414 . S
C906 C907 1.374 . S
C907 H887 0.950 . S
C907 C903 1.385 . S
C907 C906 1.374 . S
C908 C905 1.499 . S
C908 C909 1.373 . S
C908 C910 1.389 . S
C909 H888 0.950 . S
C909 C908 1.373 . S
C909 C925 1.377 . S
C910 C908 1.389 . S
C910 C911 1.524 . S
C910 C924 1.377 . S
C911 C910 1.524 . S
C911 C912 1.397 . S
C911 C916 1.363 . S
C912 H889 0.950 . S
C912 C911 1.397 . S
C912 C913 1.334 . S
C913 H890 0.950 . S
C913 C912 1.334 . S
C913 C914 1.287 . S
C914 C913 1.287 . S
C914 C915 1.524 . S
C914 H933 0.913 . S
C915 H891 0.950 . S
C915 C914 1.524 . S
C915 C916 1.415 . S
C916 H892 0.950 . S
C916 C911 1.363 . S
C916 C915 1.415 . S
C917 H893 0.951 . S
C917 C918 1.366 . S
C917 C919 1.388 . S
C918 C917 1.366 . S
C918 C922 1.385 . S
C919 H894 0.951 . S
C919 C917 1.388 . S
C919 C920 1.366 . S
C920 C919 1.366 . S
C920 C921 1.414 . S
C920 C923 1.499 . S
C921 H895 0.950 . S
C921 C920 1.414 . S
C921 C922 1.374 . S
C922 H896 0.950 . S
C922 C918 1.385 . S
C922 C921 1.374 . S
C923 C920 1.499 . S
C923 C924 1.373 . S
C923 C925 1.389 . S
C924 H897 0.950 . S
C924 C910 1.377 . S
C924 C923 1.373 . S
C925 C909 1.377 . S
C925 C923 1.389 . S
C925 C926 1.524 . S
C926 C925 1.524 . S
C926 C927 1.397 . S
C926 C931 1.363 . S
C927 H898 0.950 . S
C927 C926 1.397 . S
C927 C928 1.334 . S
C928 H899 0.950 . S
C928 C927 1.334 . S
C928 C929 1.287 . S
C929 C928 1.287 . S
C929 C930 1.524 . S
C929 H932 0.999 . S
C930 H900 0.950 . S
C930 C929 1.524 . S
C930 C931 1.415 . S
C931 H901 0.950 . S
C931 C926 1.363 . S
C931 C930 1.415 . S
H932 C929 0.999 . S
H933 C914 0.913 . S
H934 C952 0.951 . S
H935 C954 0.951 . S
H936 C956 0.950 . S
H937 C957 0.950 . S
H938 C959 0.950 . S
H939 C962 0.950 . S
H940 C963 0.950 . S
H941 C965 0.950 . S
H942 C966 0.950 . S
H943 C967 0.951 . S
H944 C969 0.951 . S
H945 C971 0.950 . S
H946 C972 0.950 . S
H947 C974 0.950 . S
H948 C977 0.950 . S
H949 C978 0.950 . S
H950 C980 0.950 . S
H951 C981 0.950 . S
C952 H934 0.951 . S
C952 C953 1.366 . S
C952 C954 1.388 . S
C953 C952 1.366 . S
C953 C957 1.385 . S
C954 H935 0.951 . S
C954 C952 1.388 . S
C954 C955 1.366 . S
C955 C954 1.366 . S
C955 C956 1.414 . S
C955 C958 1.499 . S
C956 H936 0.950 . S
C956 C955 1.414 . S
C956 C957 1.374 . S
C957 H937 0.950 . S
C957 C953 1.385 . S
C957 C956 1.374 . S
C958 C955 1.499 . S
C958 C959 1.373 . S
C958 C960 1.389 . S
C959 H938 0.950 . S
C959 C958 1.373 . S
C959 C975 1.377 . S
C960 C958 1.389 . S
C960 C961 1.524 . S
C960 C974 1.377 . S
C961 C960 1.524 . S
C961 C962 1.397 . S
C961 C966 1.363 . S
C962 H939 0.950 . S
C962 C961 1.397 . S
C962 C963 1.334 . S
C963 H940 0.950 . S
C963 C962 1.334 . S
C963 C964 1.287 . S
C964 C963 1.287 . S
C964 C965 1.524 . S
C964 H983 0.913 . S
C965 H941 0.950 . S
C965 C964 1.524 . S
C965 C966 1.415 . S
C966 H942 0.950 . S
C966 C961 1.363 . S
C966 C965 1.415 . S
C967 H943 0.951 . S
C967 C968 1.366 . S
C967 C969 1.388 . S
C968 C967 1.366 . S
C968 C972 1.385 . S
C969 H944 0.951 . S
C969 C967 1.388 . S
C969 C970 1.366 . S
C970 C969 1.366 . S
C970 C971 1.414 . S
C970 C973 1.499 . S
C971 H945 0.950 . S
C971 C970 1.414 . S
C971 C972 1.374 . S
C972 H946 0.950 . S
C972 C968 1.385 . S
C972 C971 1.374 . S
C973 C970 1.499 . S
C973 C974 1.373 . S
C973 C975 1.389 . S
C974 H947 0.950 . S
C974 C960 1.377 . S
C974 C973 1.373 . S
C975 C959 1.377 . S
C975 C973 1.389 . S
C975 C976 1.524 . S
C976 C975 1.524 . S
C976 C977 1.397 . S
C976 C981 1.363 . S
C977 H948 0.950 . S
C977 C976 1.397 . S
C977 C978 1.334 . S
C978 H949 0.950 . S
C978 C977 1.334 . S
C978 C979 1.287 . S
C979 C978 1.287 . S
C979 C980 1.524 . S
C979 H982 0.999 . S
C980 H950 0.950 . S
C980 C979 1.524 . S
C980 C981 1.415 . S
C981 H951 0.950 . S
C981 C976 1.363 . S
C981 C980 1.415 . S
H982 C979 0.999 . S
H983 C964 0.913 . S
H984 C1002 0.951 . S
H985 C1004 0.951 . S
H986 C1006 0.950 . S
H987 C1007 0.950 . S
H988 C1009 0.950 . S
H989 C1012 0.950 . S
H990 C1013 0.950 . S
H991 C1015 0.950 . S
H992 C1016 0.950 . S
H993 C1017 0.951 . S
H994 C1019 0.951 . S
H995 C1021 0.950 . S
H996 C1022 0.950 1_556 S
H997 C1024 0.950 . S
H998 C1027 0.950 . S
H999 C1028 0.950 . S
H1000 C1030 0.950 . S
H1001 C1031 0.950 . S
C1002 H984 0.951 . S
C1002 C1003 1.366 . S
C1002 C1004 1.388 . S
C1003 C1002 1.366 . S
C1003 C1007 1.385 . S
C1004 H985 0.951 . S
C1004 C1002 1.388 . S
C1004 C1005 1.366 . S
C1005 C1004 1.366 . S
C1005 C1006 1.414 . S
C1005 C1008 1.499 . S
C1006 H986 0.950 . S
C1006 C1005 1.414 . S
C1006 C1007 1.374 . S
C1007 H987 0.950 . S
C1007 C1003 1.385 . S
C1007 C1006 1.374 . S
C1008 C1005 1.499 . S
C1008 C1009 1.373 . S
C1008 C1010 1.389 . S
C1009 H988 0.950 . S
C1009 C1008 1.373 . S
C1009 C1025 1.377 . S
C1010 C1008 1.389 . S
C1010 C1011 1.524 . S
C1010 C1024 1.377 . S
C1011 C1010 1.524 . S
C1011 C1012 1.397 . S
C1011 C1016 1.363 . S
C1012 H989 0.950 . S
C1012 C1011 1.397 . S
C1012 C1013 1.334 . S
C1013 H990 0.950 . S
C1013 C1012 1.334 . S
C1013 C1014 1.287 . S
C1014 C1013 1.287 . S
C1014 C1015 1.524 . S
C1014 H1033 0.913 . S
C1015 H991 0.950 . S
C1015 C1014 1.524 . S
C1015 C1016 1.415 . S
C1016 H992 0.950 . S
C1016 C1011 1.363 . S
C1016 C1015 1.415 . S
C1017 H993 0.951 . S
C1017 C1018 1.366 . S
C1017 C1019 1.388 . S
C1018 C1017 1.366 . S
C1018 C1022 1.385 . S
C1019 H994 0.951 . S
C1019 C1017 1.388 . S
C1019 C1020 1.366 . S
C1020 C1019 1.366 . S
C1020 C1021 1.414 . S
C1020 C1023 1.499 . S
C1021 H995 0.950 . S
C1021 C1020 1.414 . S
C1021 C1022 1.374 . S
C1022 H996 0.950 1_554 S
C1022 C1018 1.385 . S
C1022 C1021 1.374 . S
C1023 C1020 1.499 . S
C1023 C1024 1.373 . S
C1023 C1025 1.389 . S
C1024 H997 0.950 . S
C1024 C1010 1.377 . S
C1024 C1023 1.373 . S
C1025 C1009 1.377 . S
C1025 C1023 1.389 . S
C1025 C1026 1.524 . S
C1026 C1025 1.524 . S
C1026 C1027 1.397 . S
C1026 C1031 1.363 . S
C1027 H998 0.950 . S
C1027 C1026 1.397 . S
C1027 C1028 1.334 . S
C1028 H999 0.950 . S
C1028 C1027 1.334 . S
C1028 C1029 1.287 . S
C1029 C1028 1.287 . S
C1029 C1030 1.524 . S
C1029 H1032 0.999 . S
C1030 H1000 0.950 . S
C1030 C1029 1.524 . S
C1030 C1031 1.415 . S
C1031 H1001 0.950 . S
C1031 C1026 1.363 . S
C1031 C1030 1.415 . S
H1032 C1029 0.999 . S
H1033 C1014 0.913 . S
H1034 C1052 0.951 . S
H1035 C1054 0.951 . S
H1036 C1056 0.950 . S
H1037 C1057 0.950 . S
H1038 C1059 0.950 . S
H1039 C1062 0.950 . S
H1040 C1063 0.950 . S
H1041 C1065 0.950 . S
H1042 C1066 0.950 . S
H1043 C1067 0.951 . S
H1044 C1069 0.951 . S
H1045 C1071 0.950 . S
H1046 C1072 0.950 . S
H1047 C1074 0.950 . S
H1048 C1077 0.950 . S
H1049 C1078 0.950 . S
H1050 C1080 0.950 . S
H1051 C1081 0.950 . S
C1052 H1034 0.951 . S
C1052 C1053 1.366 . S
C1052 C1054 1.388 . S
C1053 C1052 1.366 . S
C1053 C1057 1.385 . S
C1054 H1035 0.951 . S
C1054 C1052 1.388 . S
C1054 C1055 1.366 . S
C1055 C1054 1.366 . S
C1055 C1056 1.414 . S
C1055 C1058 1.499 . S
C1056 H1036 0.950 . S
C1056 C1055 1.414 . S
C1056 C1057 1.374 . S
C1057 H1037 0.950 . S
C1057 C1053 1.385 . S
C1057 C1056 1.374 . S
C1058 C1055 1.499 . S
C1058 C1059 1.373 . S
C1058 C1060 1.389 . S
C1059 H1038 0.950 . S
C1059 C1058 1.373 . S
C1059 C1075 1.377 . S
C1060 C1058 1.389 . S
C1060 C1061 1.524 . S
C1060 C1074 1.377 . S
C1061 C1060 1.524 . S
C1061 C1062 1.397 . S
C1061 C1066 1.363 . S
C1062 H1039 0.950 . S
C1062 C1061 1.397 . S
C1062 C1063 1.334 . S
C1063 H1040 0.950 . S
C1063 C1062 1.334 . S
C1063 C1064 1.287 . S
C1064 C1063 1.287 . S
C1064 C1065 1.524 . S
C1064 H1083 0.913 . S
C1065 H1041 0.950 . S
C1065 C1064 1.524 . S
C1065 C1066 1.415 . S
C1066 H1042 0.950 . S
C1066 C1061 1.363 . S
C1066 C1065 1.415 . S
C1067 H1043 0.951 . S
C1067 C1068 1.366 . S
C1067 C1069 1.388 . S
C1068 C1067 1.366 . S
C1068 C1072 1.385 . S
C1069 H1044 0.951 . S
C1069 C1067 1.388 . S
C1069 C1070 1.366 . S
C1070 C1069 1.366 . S
C1070 C1071 1.414 . S
C1070 C1073 1.499 . S
C1071 H1045 0.950 . S
C1071 C1070 1.414 . S
C1071 C1072 1.374 . S
C1072 H1046 0.950 . S
C1072 C1068 1.385 . S
C1072 C1071 1.374 . S
C1073 C1070 1.499 . S
C1073 C1074 1.373 . S
C1073 C1075 1.389 . S
C1074 H1047 0.950 . S
C1074 C1060 1.377 . S
C1074 C1073 1.373 . S
C1075 C1059 1.377 . S
C1075 C1073 1.389 . S
C1075 C1076 1.524 . S
C1076 C1075 1.524 . S
C1076 C1077 1.397 . S
C1076 C1081 1.363 . S
C1077 H1048 0.950 . S
C1077 C1076 1.397 . S
C1077 C1078 1.334 . S
C1078 H1049 0.950 . S
C1078 C1077 1.334 . S
C1078 C1079 1.287 . S
C1079 C1078 1.287 . S
C1079 C1080 1.524 . S
C1079 H1082 0.999 . S
C1080 H1050 0.950 . S
C1080 C1079 1.524 . S
C1080 C1081 1.415 . S
C1081 H1051 0.950 . S
C1081 C1076 1.363 . S
C1081 C1080 1.415 . S
H1082 C1079 0.999 . S
H1083 C1064 0.913 . S
H1084 C1102 0.951 . S
H1085 C1104 0.951 . S
H1086 C1106 0.950 . S
H1087 C1107 0.950 . S
H1088 C1109 0.950 . S
H1089 C1112 0.950 . S
H1090 C1113 0.950 . S
H1091 C1115 0.950 . S
H1092 C1116 0.950 . S
H1093 C1117 0.951 . S
H1094 C1119 0.951 . S
H1095 C1121 0.950 . S
H1096 C1122 0.950 . S
H1097 C1124 0.950 . S
H1098 C1127 0.950 . S
H1099 C1128 0.950 . S
H1100 C1130 0.950 . S
H1101 C1131 0.950 . S
C1102 H1084 0.951 . S
C1102 C1103 1.366 . S
C1102 C1104 1.388 . S
C1103 C1102 1.366 . S
C1103 C1107 1.385 . S
C1104 H1085 0.951 . S
C1104 C1102 1.388 . S
C1104 C1105 1.366 . S
C1105 C1104 1.366 . S
C1105 C1106 1.414 . S
C1105 C1108 1.499 . S
C1106 H1086 0.950 . S
C1106 C1105 1.414 . S
C1106 C1107 1.374 . S
C1107 H1087 0.950 . S
C1107 C1103 1.385 . S
C1107 C1106 1.374 . S
C1108 C1105 1.499 . S
C1108 C1109 1.373 . S
C1108 C1110 1.389 . S
C1109 H1088 0.950 . S
C1109 C1108 1.373 . S
C1109 C1125 1.377 . S
C1110 C1108 1.389 . S
C1110 C1111 1.524 . S
C1110 C1124 1.377 . S
C1111 C1110 1.524 . S
C1111 C1112 1.397 . S
C1111 C1116 1.363 . S
C1112 H1089 0.950 . S
C1112 C1111 1.397 . S
C1112 C1113 1.334 . S
C1113 H1090 0.950 . S
C1113 C1112 1.334 . S
C1113 C1114 1.287 . S
C1114 C1113 1.287 . S
C1114 C1115 1.524 . S
C1114 H1133 0.913 . S
C1115 H1091 0.950 . S
C1115 C1114 1.524 . S
C1115 C1116 1.415 . S
C1116 H1092 0.950 . S
C1116 C1111 1.363 . S
C1116 C1115 1.415 . S
C1117 H1093 0.951 . S
C1117 C1118 1.366 . S
C1117 C1119 1.388 . S
C1118 C1117 1.366 . S
C1118 C1122 1.385 . S
C1119 H1094 0.951 . S
C1119 C1117 1.388 . S
C1119 C1120 1.366 . S
C1120 C1119 1.366 . S
C1120 C1121 1.414 . S
C1120 C1123 1.499 . S
C1121 H1095 0.950 . S
C1121 C1120 1.414 . S
C1121 C1122 1.374 . S
C1122 H1096 0.950 . S
C1122 C1118 1.385 . S
C1122 C1121 1.374 . S
C1123 C1120 1.499 . S
C1123 C1124 1.373 . S
C1123 C1125 1.389 . S
C1124 H1097 0.950 . S
C1124 C1110 1.377 . S
C1124 C1123 1.373 . S
C1125 C1109 1.377 . S
C1125 C1123 1.389 . S
C1125 C1126 1.524 . S
C1126 C1125 1.524 . S
C1126 C1127 1.397 . S
C1126 C1131 1.363 . S
C1127 H1098 0.950 . S
C1127 C1126 1.397 . S
C1127 C1128 1.334 1_554 S
C1128 H1099 0.950 . S
C1128 C1127 1.334 1_556 S
C1128 C1129 1.287 . S
C1129 C1128 1.287 . S
C1129 C1130 1.524 1_556 S
C1129 H1132 0.999 . S
C1130 H1100 0.950 . S
C1130 C1129 1.524 1_554 S
C1130 C1131 1.415 . S
C1131 H1101 0.950 . S
C1131 C1126 1.363 . S
C1131 C1130 1.415 . S
H1132 C1129 0.999 . S
H1133 C1114 0.913 . S
H1134 C1152 0.951 . S
H1135 C1154 0.951 . S
H1136 C1156 0.950 . S
H1137 C1157 0.950 . S
H1138 C1159 0.950 . S
H1139 C1162 0.950 . S
H1140 C1163 0.950 . S
H1141 C1165 0.950 . S
H1142 C1166 0.950 . S
H1143 C1167 0.951 . S
H1144 C1169 0.951 . S
H1145 C1171 0.950 . S
H1146 C1172 0.950 . S
H1147 C1174 0.950 . S
H1148 C1177 0.950 . S
H1149 C1178 0.950 . S
H1150 C1180 0.950 . S
H1151 C1181 0.950 . S
C1152 H1134 0.951 . S
C1152 C1153 1.366 . S
C1152 C1154 1.388 . S
C1153 C1152 1.366 . S
C1153 C1157 1.385 . S
C1154 H1135 0.951 . S
C1154 C1152 1.388 . S
C1154 C1155 1.366 . S
C1155 C1154 1.366 . S
C1155 C1156 1.414 . S
C1155 C1158 1.499 . S
C1156 H1136 0.950 . S
C1156 C1155 1.414 . S
C1156 C1157 1.374 . S
C1157 H1137 0.950 . S
C1157 C1153 1.385 . S
C1157 C1156 1.374 . S
C1158 C1155 1.499 . S
C1158 C1159 1.373 . S
C1158 C1160 1.389 . S
C1159 H1138 0.950 . S
C1159 C1158 1.373 . S
C1159 C1175 1.377 . S
C1160 C1158 1.389 . S
C1160 C1161 1.524 . S
C1160 C1174 1.377 . S
C1161 C1160 1.524 . S
C1161 C1162 1.397 . S
C1161 C1166 1.363 . S
C1162 H1139 0.950 . S
C1162 C1161 1.397 . S
C1162 C1163 1.334 . S
C1163 H1140 0.950 . S
C1163 C1162 1.334 . S
C1163 C1164 1.287 . S
C1164 C1163 1.287 . S
C1164 C1165 1.524 . S
C1164 H1183 0.913 . S
C1165 H1141 0.950 . S
C1165 C1164 1.524 . S
C1165 C1166 1.415 . S
C1166 H1142 0.950 . S
C1166 C1161 1.363 . S
C1166 C1165 1.415 . S
C1167 H1143 0.951 . S
C1167 C1168 1.366 . S
C1167 C1169 1.388 . S
C1168 C1167 1.366 . S
C1168 C1172 1.385 . S
C1169 H1144 0.951 . S
C1169 C1167 1.388 . S
C1169 C1170 1.366 . S
C1170 C1169 1.366 . S
C1170 C1171 1.414 . S
C1170 C1173 1.499 . S
C1171 H1145 0.950 . S
C1171 C1170 1.414 . S
C1171 C1172 1.374 . S
C1172 H1146 0.950 . S
C1172 C1168 1.385 . S
C1172 C1171 1.374 . S
C1173 C1170 1.499 . S
C1173 C1174 1.373 . S
C1173 C1175 1.389 . S
C1174 H1147 0.950 . S
C1174 C1160 1.377 . S
C1174 C1173 1.373 . S
C1175 C1159 1.377 . S
C1175 C1173 1.389 . S
C1175 C1176 1.524 . S
C1176 C1175 1.524 . S
C1176 C1177 1.397 . S
C1176 C1181 1.363 . S
C1177 H1148 0.950 . S
C1177 C1176 1.397 . S
C1177 C1178 1.334 . S
C1178 H1149 0.950 . S
C1178 C1177 1.334 . S
C1178 C1179 1.287 . S
C1179 C1178 1.287 . S
C1179 C1180 1.524 . S
C1179 H1182 0.999 . S
C1180 H1150 0.950 . S
C1180 C1179 1.524 . S
C1180 C1181 1.415 . S
C1181 H1151 0.950 . S
C1181 C1176 1.363 . S
C1181 C1180 1.415 . S
H1182 C1179 0.999 . S
H1183 C1164 0.913 . S
H1184 C1202 0.951 . S
H1185 C1204 0.951 . S
H1186 C1206 0.950 . S
H1187 C1207 0.950 . S
H1188 C1209 0.950 . S
H1189 C1212 0.950 . S
H1190 C1213 0.950 . S
H1191 C1215 0.950 . S
H1192 C1216 0.950 . S
H1193 C1217 0.951 . S
H1194 C1219 0.951 . S
H1195 C1221 0.950 . S
H1196 C1222 0.950 . S
H1197 C1224 0.950 . S
H1198 C1227 0.950 . S
H1199 C1228 0.950 . S
H1200 C1230 0.950 . S
H1201 C1231 0.950 . S
C1202 H1184 0.951 . S
C1202 C1203 1.366 . S
C1202 C1204 1.388 . S
C1203 C1202 1.366 . S
C1203 C1207 1.385 . S
C1204 H1185 0.951 . S
C1204 C1202 1.388 . S
C1204 C1205 1.366 . S
C1205 C1204 1.366 . S
C1205 C1206 1.414 . S
C1205 C1208 1.499 . S
C1206 H1186 0.950 . S
C1206 C1205 1.414 . S
C1206 C1207 1.374 . S
C1207 H1187 0.950 . S
C1207 C1203 1.385 . S
C1207 C1206 1.374 . S
C1208 C1205 1.499 . S
C1208 C1209 1.373 . S
C1208 C1210 1.389 . S
C1209 H1188 0.950 . S
C1209 C1208 1.373 . S
C1209 C1225 1.377 . S
C1210 C1208 1.389 . S
C1210 C1211 1.524 . S
C1210 C1224 1.377 . S
C1211 C1210 1.524 . S
C1211 C1212 1.397 . S
C1211 C1216 1.363 . S
C1212 H1189 0.950 . S
C1212 C1211 1.397 . S
C1212 C1213 1.334 . S
C1213 H1190 0.950 . S
C1213 C1212 1.334 . S
C1213 C1214 1.287 . S
C1214 C1213 1.287 . S
C1214 C1215 1.524 . S
C1214 H1233 0.913 . S
C1215 H1191 0.950 . S
C1215 C1214 1.524 . S
C1215 C1216 1.415 . S
C1216 H1192 0.950 . S
C1216 C1211 1.363 . S
C1216 C1215 1.415 . S
C1217 H1193 0.951 . S
C1217 C1218 1.366 . S
C1217 C1219 1.388 . S
C1218 C1217 1.366 . S
C1218 C1222 1.385 . S
C1219 H1194 0.951 . S
C1219 C1217 1.388 . S
C1219 C1220 1.366 . S
C1220 C1219 1.366 . S
C1220 C1221 1.414 . S
C1220 C1223 1.499 . S
C1221 H1195 0.950 . S
C1221 C1220 1.414 . S
C1221 C1222 1.374 . S
C1222 H1196 0.950 . S
C1222 C1218 1.385 . S
C1222 C1221 1.374 . S
C1223 C1220 1.499 . S
C1223 C1224 1.373 . S
C1223 C1225 1.389 . S
C1224 H1197 0.950 . S
C1224 C1210 1.377 . S
C1224 C1223 1.373 . S
C1225 C1209 1.377 . S
C1225 C1223 1.389 . S
C1225 C1226 1.524 . S
C1226 C1225 1.524 . S
C1226 C1227 1.397 . S
C1226 C1231 1.363 . S
C1227 H1198 0.950 . S
C1227 C1226 1.397 . S
C1227 C1228 1.334 . S
C1228 H1199 0.950 . S
C1228 C1227 1.334 . S
C1228 C1229 1.287 . S
C1229 C1228 1.287 . S
C1229 C1230 1.524 . S
C1229 H1232 0.999 . S
C1230 H1200 0.950 . S
C1230 C1229 1.524 . S
C1230 C1231 1.415 . S
C1231 H1201 0.950 . S
C1231 C1226 1.363 . S
C1231 C1230 1.415 . S
H1232 C1229 0.999 . S
H1233 C1214 0.913 . S
H1234 C1252 0.951 . S
H1235 C1254 0.951 . S
H1236 C1256 0.950 . S
H1237 C1257 0.950 . S
H1238 C1259 0.950 . S
H1239 C1262 0.950 . S
H1240 C1263 0.950 . S
H1241 C1265 0.950 . S
H1242 C1266 0.950 . S
H1243 C1267 0.951 . S
H1244 C1269 0.951 . S
H1245 C1271 0.950 . S
H1246 C1272 0.950 . S
H1247 C1274 0.950 . S
H1248 C1277 0.950 . S
H1249 C1278 0.950 . S
H1250 C1280 0.928 1_565 S
H1251 C1281 0.950 . S
C1252 H1234 0.951 . S
C1252 C1253 1.366 . S
C1252 C1254 1.388 . S
C1253 C1252 1.366 . S
C1253 C1257 1.385 . S
C1254 H1235 0.951 . S
C1254 C1252 1.388 . S
C1254 C1255 1.366 . S
C1255 C1254 1.366 . S
C1255 C1256 1.414 . S
C1255 C1258 1.499 . S
C1256 H1236 0.950 . S
C1256 C1255 1.414 . S
C1256 C1257 1.374 . S
C1257 H1237 0.950 . S
C1257 C1253 1.385 . S
C1257 C1256 1.374 . S
C1258 C1255 1.499 . S
C1258 C1259 1.373 . S
C1258 C1260 1.389 . S
C1259 H1238 0.950 . S
C1259 C1258 1.373 . S
C1259 C1275 1.377 . S
C1260 C1258 1.389 . S
C1260 C1261 1.524 . S
C1260 C1274 1.377 . S
C1261 C1260 1.524 . S
C1261 C1262 1.397 . S
C1261 C1266 1.363 . S
C1262 H1239 0.950 . S
C1262 C1261 1.397 . S
C1262 C1263 1.334 . S
C1263 H1240 0.950 . S
C1263 C1262 1.334 . S
C1263 C1264 1.287 . S
C1264 C1263 1.287 . S
C1264 C1265 1.524 . S
C1264 H1283 0.913 . S
C1265 H1241 0.950 . S
C1265 C1264 1.524 . S
C1265 C1266 1.415 . S
C1266 H1242 0.950 . S
C1266 C1261 1.363 . S
C1266 C1265 1.415 . S
C1267 H1243 0.951 . S
C1267 C1268 1.366 . S
C1267 C1269 1.388 . S
C1268 C1267 1.366 . S
C1268 C1272 1.385 . S
C1269 H1244 0.951 . S
C1269 C1267 1.388 . S
C1269 C1270 1.366 . S
C1270 C1269 1.366 . S
C1270 C1271 1.414 . S
C1270 C1273 1.499 . S
C1271 H1245 0.950 . S
C1271 C1270 1.414 . S
C1271 C1272 1.374 . S
C1272 H1246 0.950 . S
C1272 C1268 1.385 . S
C1272 C1271 1.374 . S
C1273 C1270 1.499 . S
C1273 C1274 1.373 . S
C1273 C1275 1.389 . S
C1274 H1247 0.950 . S
C1274 C1260 1.377 . S
C1274 C1273 1.373 . S
C1275 C1259 1.377 . S
C1275 C1273 1.389 . S
C1275 C1276 1.524 . S
C1276 C1275 1.524 . S
C1276 C1277 1.397 . S
C1276 C1281 1.363 . S
C1277 H1248 0.950 . S
C1277 C1276 1.397 . S
C1277 C1278 1.334 . S
C1278 H1249 0.950 . S
C1278 C1277 1.334 . S
C1278 C1279 1.287 . S
C1279 C1278 1.287 . S
C1279 C1280 1.536 . S
C1279 H1282 0.999 1_545 S
C1280 H1250 0.928 1_545 S
C1280 C1279 1.536 . S
C1280 C1281 1.430 . S
C1281 H1251 0.950 . S
C1281 C1276 1.363 . S
C1281 C1280 1.430 . S
H1282 C1279 0.999 1_565 S
H1283 C1264 0.913 . S
H1284 C1302 0.951 . S
H1285 C1304 0.951 . S
H1286 C1306 0.950 . S
H1287 C1307 0.950 . S
H1288 C1309 0.950 . S
H1289 C1312 0.950 . S
H1290 C1313 0.950 . S
H1291 C1315 0.950 . S
H1292 C1316 0.950 . S
H1293 C1317 0.951 . S
H1294 C1319 0.951 . S
H1295 C1321 0.950 . S
H1296 C1322 0.950 . S
H1297 C1324 0.950 . S
H1298 C1327 0.950 . S
H1299 C1328 0.950 . S
H1300 C1330 0.950 . S
H1301 C1331 0.950 . S
C1302 H1284 0.951 . S
C1302 C1303 1.366 . S
C1302 C1304 1.388 . S
C1303 C1302 1.366 . S
C1303 C1307 1.385 . S
C1304 H1285 0.951 . S
C1304 C1302 1.388 . S
C1304 C1305 1.366 . S
C1305 C1304 1.366 . S
C1305 C1306 1.414 . S
C1305 C1308 1.499 . S
C1306 H1286 0.950 . S
C1306 C1305 1.414 . S
C1306 C1307 1.374 . S
C1307 H1287 0.950 . S
C1307 C1303 1.385 . S
C1307 C1306 1.374 . S
C1308 C1305 1.499 . S
C1308 C1309 1.373 . S
C1308 C1310 1.389 . S
C1309 H1288 0.950 . S
C1309 C1308 1.373 . S
C1309 C1325 1.377 . S
C1310 C1308 1.389 . S
C1310 C1311 1.524 . S
C1310 C1324 1.377 . S
C1311 C1310 1.524 . S
C1311 C1312 1.397 . S
C1311 C1316 1.363 . S
C1312 H1289 0.950 . S
C1312 C1311 1.397 . S
C1312 C1313 1.334 . S
C1313 H1290 0.950 . S
C1313 C1312 1.334 . S
C1313 C1314 1.287 . S
C1314 C1313 1.287 . S
C1314 C1315 1.524 . S
C1314 H1333 0.913 . S
C1315 H1291 0.950 . S
C1315 C1314 1.524 . S
C1315 C1316 1.415 . S
C1316 H1292 0.950 . S
C1316 C1311 1.363 . S
C1316 C1315 1.415 . S
C1317 H1293 0.951 . S
C1317 C1318 1.366 . S
C1317 C1319 1.388 1_556 S
C1318 C1317 1.366 . S
C1318 C1322 1.385 1_556 S
C1319 H1294 0.951 . S
C1319 C1317 1.388 1_554 S
C1319 C1320 1.366 . S
C1320 C1319 1.366 . S
C1320 C1321 1.414 . S
C1320 C1323 1.499 . S
C1321 H1295 0.950 . S
C1321 C1320 1.414 . S
C1321 C1322 1.374 . S
C1322 H1296 0.950 . S
C1322 C1318 1.385 1_554 S
C1322 C1321 1.374 . S
C1323 C1320 1.499 . S
C1323 C1324 1.373 . S
C1323 C1325 1.389 . S
C1324 H1297 0.950 . S
C1324 C1310 1.377 . S
C1324 C1323 1.373 . S
C1325 C1309 1.377 . S
C1325 C1323 1.389 . S
C1325 C1326 1.524 . S
C1326 C1325 1.524 . S
C1326 C1327 1.397 . S
C1326 C1331 1.363 . S
C1327 H1298 0.950 . S
C1327 C1326 1.397 . S
C1327 C1328 1.334 . S
C1328 H1299 0.950 . S
C1328 C1327 1.334 . S
C1328 C1329 1.287 . S
C1329 C1328 1.287 . S
C1329 C1330 1.524 . S
C1329 H1332 0.999 . S
C1330 H1300 0.950 . S
C1330 C1329 1.524 . S
C1330 C1331 1.415 . S
C1331 H1301 0.950 . S
C1331 C1326 1.363 . S
C1331 C1330 1.415 . S
H1332 C1329 0.999 . S
H1333 C1314 0.913 . S
H1334 C1352 0.951 . S
H1335 C1354 0.951 . S
H1336 C1356 0.950 . S
H1337 C1357 0.950 1_655 S
H1338 C1359 0.950 . S
H1339 C1362 0.950 . S
H1340 C1363 0.950 . S
H1341 C1365 0.950 . S
H1342 C1366 0.950 1_554 S
H1343 C1367 0.951 . S
H1344 C1369 0.951 . S
H1345 C1371 0.950 . S
H1346 C1372 0.950 . S
H1347 C1374 0.950 . S
H1348 C1377 0.950 . S
H1349 C1378 0.950 . S
H1350 C1380 0.950 1_655 S
H1351 C1381 0.950 . S
C1352 H1334 0.951 . S
C1352 C1353 1.366 . S
C1352 C1354 1.388 1_556 S
C1353 C1352 1.366 . S
C1353 C1357 1.385 . S
C1354 H1335 0.951 . S
C1354 C1352 1.388 1_554 S
C1354 C1355 1.366 . S
C1355 C1354 1.366 . S
C1355 C1356 1.414 . S
C1355 C1358 1.499 . S
C1356 H1336 0.950 . S
C1356 C1355 1.414 . S
C1356 C1357 1.374 1_554 S
C1357 H1337 0.950 1_455 S
C1357 C1353 1.385 . S
C1357 C1356 1.374 1_556 S
C1358 C1355 1.499 . S
C1358 C1359 1.373 . S
C1358 C1360 1.389 . S
C1359 H1338 0.950 . S
C1359 C1358 1.373 . S
C1359 C1375 1.377 . S
C1360 C1358 1.389 . S
C1360 C1361 1.524 1_554 S
C1360 C1374 1.377 . S
C1361 C1360 1.524 1_556 S
C1361 C1362 1.397 . S
C1361 C1366 1.363 . S
C1362 H1339 0.950 . S
C1362 C1361 1.397 . S
C1362 C1363 1.334 . S
C1363 H1340 0.950 . S
C1363 C1362 1.334 . S
C1363 C1364 1.287 . S
C1364 C1363 1.287 . S
C1364 C1365 1.524 . S
C1364 H1383 0.913 . S
C1365 H1341 0.950 . S
C1365 C1364 1.524 . S
C1365 C1366 1.415 . S
C1366 H1342 0.950 1_556 S
C1366 C1361 1.363 . S
C1366 C1365 1.415 . S
C1367 H1343 0.951 . S
C1367 C1368 1.366 . S
C1367 C1369 1.388 . S
C1368 C1367 1.366 . S
C1368 C1372 1.385 . S
C1369 H1344 0.951 . S
C1369 C1367 1.388 . S
C1369 C1370 1.366 . S
C1370 C1369 1.366 . S
C1370 C1371 1.414 . S
C1370 C1373 1.499 . S
C1371 H1345 0.950 . S
C1371 C1370 1.414 . S
C1371 C1372 1.374 . S
C1372 H1346 0.950 . S
C1372 C1368 1.385 . S
C1372 C1371 1.374 . S
C1373 C1370 1.499 . S
C1373 C1374 1.373 . S
C1373 C1375 1.389 . S
C1374 H1347 0.950 . S
C1374 C1360 1.377 . S
C1374 C1373 1.373 . S
C1375 C1359 1.377 . S
C1375 C1373 1.389 . S
C1375 C1376 1.524 . S
C1376 C1375 1.524 . S
C1376 C1377 1.397 . S
C1376 C1381 1.363 . S
C1377 H1348 0.950 . S
C1377 C1376 1.397 . S
C1377 C1378 1.334 . S
C1378 H1349 0.950 . S
C1378 C1377 1.334 . S
C1378 C1379 1.287 . S
C1379 C1378 1.287 . S
C1379 C1380 1.524 . S
C1379 H1382 0.999 . S
C1380 H1350 0.950 1_455 S
C1380 C1379 1.524 . S
C1380 C1381 1.415 . S
C1381 H1351 0.950 . S
C1381 C1376 1.363 . S
C1381 C1380 1.415 . S
H1382 C1379 0.999 . S
H1383 C1364 0.913 . S
H1384 C1402 0.951 . S
H1385 C1404 0.951 . S
H1386 C1406 0.950 . S
H1387 C1407 0.950 . S
H1388 C1409 0.950 . S
H1389 C1412 0.950 . S
H1390 C1413 0.950 . S
H1391 C1415 0.950 . S
H1392 C1416 0.950 . S
H1393 C1417 0.951 . S
H1394 C1419 0.951 . S
H1395 C1421 0.950 . S
H1396 C1422 0.950 . S
H1397 C1424 0.950 . S
H1398 C1427 0.950 . S
H1399 C1428 0.950 . S
H1400 C1430 0.950 . S
H1401 C1431 0.950 . S
C1402 H1384 0.951 . S
C1402 C1403 1.366 1_554 S
C1402 C1404 1.388 . S
C1403 C1402 1.366 1_556 S
C1403 C1407 1.385 . S
C1404 H1385 0.951 . S
C1404 C1402 1.388 . S
C1404 C1405 1.366 . S
C1405 C1404 1.366 . S
C1405 C1406 1.414 1_554 S
C1405 C1408 1.499 . S
C1406 H1386 0.950 . S
C1406 C1405 1.414 1_556 S
C1406 C1407 1.374 . S
C1407 H1387 0.950 . S
C1407 C1403 1.385 . S
C1407 C1406 1.374 . S
C1408 C1405 1.499 . S
C1408 C1409 1.373 . S
C1408 C1410 1.389 . S
C1409 H1388 0.950 . S
C1409 C1408 1.373 . S
C1409 C1425 1.377 . S
C1410 C1408 1.389 . S
C1410 C1411 1.524 . S
C1410 C1424 1.377 . S
C1411 C1410 1.524 . S
C1411 C1412 1.397 1_554 S
C1411 C1416 1.363 . S
C1412 H1389 0.950 . S
C1412 C1411 1.397 1_556 S
C1412 C1413 1.334 . S
C1413 H1390 0.950 . S
C1413 C1412 1.334 . S
C1413 C1414 1.287 . S
C1414 C1413 1.287 . S
C1414 C1415 1.524 1_556 S
C1414 H1433 0.913 . S
C1415 H1391 0.950 . S
C1415 C1414 1.524 1_554 S
C1415 C1416 1.415 . S
C1416 H1392 0.950 . S
C1416 C1411 1.363 . S
C1416 C1415 1.415 . S
C1417 H1393 0.951 . S
C1417 C1418 1.366 . S
C1417 C1419 1.388 . S
C1418 C1417 1.366 . S
C1418 C1422 1.385 . S
C1419 H1394 0.951 . S
C1419 C1417 1.388 . S
C1419 C1420 1.366 . S
C1420 C1419 1.366 . S
C1420 C1421 1.414 . S
C1420 C1423 1.499 . S
C1421 H1395 0.950 . S
C1421 C1420 1.414 . S
C1421 C1422 1.374 . S
C1422 H1396 0.950 . S
C1422 C1418 1.385 . S
C1422 C1421 1.374 . S
C1423 C1420 1.499 . S
C1423 C1424 1.373 . S
C1423 C1425 1.389 . S
C1424 H1397 0.950 . S
C1424 C1410 1.377 . S
C1424 C1423 1.373 . S
C1425 C1409 1.377 . S
C1425 C1423 1.389 . S
C1425 C1426 1.524 . S
C1426 C1425 1.524 . S
C1426 C1427 1.397 . S
C1426 C1431 1.363 . S
C1427 H1398 0.950 . S
C1427 C1426 1.397 . S
C1427 C1428 1.334 . S
C1428 H1399 0.950 . S
C1428 C1427 1.334 . S
C1428 C1429 1.287 . S
C1429 C1428 1.287 . S
C1429 C1430 1.524 . S
C1429 H1432 0.999 . S
C1430 H1400 0.950 . S
C1430 C1429 1.524 . S
C1430 C1431 1.415 . S
C1431 H1401 0.950 . S
C1431 C1426 1.363 . S
C1431 C1430 1.415 . S
H1432 C1429 0.999 . S
H1433 C1414 0.913 . S
H1434 C1452 0.951 . S
H1435 C1454 0.951 . S
H1436 C1456 0.950 . S
H1437 C1457 0.950 . S
H1438 C1459 0.950 . S
H1439 C1462 0.950 . S
H1440 C1463 0.950 . S
H1441 C1465 0.950 . S
H1442 C1466 0.950 . S
H1443 C1467 0.951 . S
H1444 C1469 0.951 . S
H1445 C1471 0.950 . S
H1446 C1472 0.950 . S
H1447 C1474 0.950 . S
H1448 C1477 0.950 . S
H1449 C1478 0.950 . S
H1450 C1480 0.950 . S
H1451 C1481 0.950 . S
C1452 H1434 0.951 . S
C1452 C1453 1.366 . S
C1452 C1454 1.388 . S
C1453 C1452 1.366 . S
C1453 C1457 1.385 . S
C1454 H1435 0.951 . S
C1454 C1452 1.388 . S
C1454 C1455 1.366 . S
C1455 C1454 1.366 . S
C1455 C1456 1.414 . S
C1455 C1458 1.499 . S
C1456 H1436 0.950 . S
C1456 C1455 1.414 . S
C1456 C1457 1.374 . S
C1457 H1437 0.950 . S
C1457 C1453 1.385 . S
C1457 C1456 1.374 . S
C1458 C1455 1.499 . S
C1458 C1459 1.373 . S
C1458 C1460 1.389 . S
C1459 H1438 0.950 . S
C1459 C1458 1.373 . S
C1459 C1475 1.377 . S
C1460 C1458 1.389 . S
C1460 C1461 1.524 . S
C1460 C1474 1.377 . S
C1461 C1460 1.524 . S
C1461 C1462 1.397 . S
C1461 C1466 1.363 . S
C1462 H1439 0.950 . S
C1462 C1461 1.397 . S
C1462 C1463 1.334 . S
C1463 H1440 0.950 . S
C1463 C1462 1.334 . S
C1463 C1464 1.287 . S
C1464 C1463 1.287 . S
C1464 C1465 1.524 . S
C1464 H1483 0.913 . S
C1465 H1441 0.950 . S
C1465 C1464 1.524 . S
C1465 C1466 1.415 . S
C1466 H1442 0.950 . S
C1466 C1461 1.363 . S
C1466 C1465 1.415 . S
C1467 H1443 0.951 . S
C1467 C1468 1.366 . S
C1467 C1469 1.388 . S
C1468 C1467 1.366 . S
C1468 C1472 1.385 . S
C1469 H1444 0.951 . S
C1469 C1467 1.388 . S
C1469 C1470 1.366 . S
C1470 C1469 1.366 . S
C1470 C1471 1.414 . S
C1470 C1473 1.499 . S
C1471 H1445 0.950 . S
C1471 C1470 1.414 . S
C1471 C1472 1.374 . S
C1472 H1446 0.950 . S
C1472 C1468 1.385 . S
C1472 C1471 1.374 . S
C1473 C1470 1.499 . S
C1473 C1474 1.373 . S
C1473 C1475 1.389 . S
C1474 H1447 0.950 . S
C1474 C1460 1.377 . S
C1474 C1473 1.373 . S
C1475 C1459 1.377 . S
C1475 C1473 1.389 . S
C1475 C1476 1.524 . S
C1476 C1475 1.524 . S
C1476 C1477 1.397 . S
C1476 C1481 1.363 . S
C1477 H1448 0.950 . S
C1477 C1476 1.397 . S
C1477 C1478 1.334 . S
C1478 H1449 0.950 . S
C1478 C1477 1.334 . S
C1478 C1479 1.287 . S
C1479 C1478 1.287 . S
C1479 C1480 1.524 . S
C1479 H1482 0.999 . S
C1480 H1450 0.950 . S
C1480 C1479 1.524 . S
C1480 C1481 1.415 . S
C1481 H1451 0.950 . S
C1481 C1476 1.363 . S
C1481 C1480 1.415 . S
H1482 C1479 0.999 . S
H1483 C1464 0.913 . S
H1484 C1502 0.951 . S
H1485 C1504 0.951 . S
H1486 C1506 0.950 . S
H1487 C1507 0.950 . S
H1488 C1509 0.950 . S
H1489 C1512 0.950 . S
H1490 C1513 0.950 . S
H1491 C1515 0.950 . S
H1492 C1516 0.950 . S
H1493 C1517 0.951 . S
H1494 C1519 0.951 . S
H1495 C1521 0.950 . S
H1496 C1522 0.950 . S
H1497 C1524 0.950 . S
H1498 C1527 0.950 . S
H1499 C1528 0.950 . S
H1500 C1530 0.950 . S
H1501 C1531 0.950 . S
C1502 H1484 0.951 . S
C1502 C1503 1.366 . S
C1502 C1504 1.388 . S
C1503 C1502 1.366 . S
C1503 C1507 1.385 . S
C1504 H1485 0.951 . S
C1504 C1502 1.388 . S
C1504 C1505 1.366 . S
C1505 C1504 1.366 . S
C1505 C1506 1.414 . S
C1505 C1508 1.499 . S
C1506 H1486 0.950 . S
C1506 C1505 1.414 . S
C1506 C1507 1.374 . S
C1507 H1487 0.950 . S
C1507 C1503 1.385 . S
C1507 C1506 1.374 . S
C1508 C1505 1.499 . S
C1508 C1509 1.373 . S
C1508 C1510 1.389 . S
C1509 H1488 0.950 . S
C1509 C1508 1.373 . S
C1509 C1525 1.377 . S
C1510 C1508 1.389 . S
C1510 C1511 1.524 . S
C1510 C1524 1.377 . S
C1511 C1510 1.524 . S
C1511 C1512 1.397 . S
C1511 C1516 1.363 . S
C1512 H1489 0.950 . S
C1512 C1511 1.397 . S
C1512 C1513 1.334 . S
C1513 H1490 0.950 . S
C1513 C1512 1.334 . S
C1513 C1514 1.287 . S
C1514 C1513 1.287 . S
C1514 C1515 1.524 . S
C1514 H1533 0.913 . S
C1515 H1491 0.950 . S
C1515 C1514 1.524 . S
C1515 C1516 1.415 . S
C1516 H1492 0.950 . S
C1516 C1511 1.363 . S
C1516 C1515 1.415 . S
C1517 H1493 0.951 . S
C1517 C1518 1.366 . S
C1517 C1519 1.388 . S
C1518 C1517 1.366 . S
C1518 C1522 1.385 . S
C1519 H1494 0.951 . S
C1519 C1517 1.388 . S
C1519 C1520 1.366 . S
C1520 C1519 1.366 . S
C1520 C1521 1.414 . S
C1520 C1523 1.499 . S
C1521 H1495 0.950 . S
C1521 C1520 1.414 . S
C1521 C1522 1.374 . S
C1522 H1496 0.950 . S
C1522 C1518 1.385 . S
C1522 C1521 1.374 . S
C1523 C1520 1.499 . S
C1523 C1524 1.373 . S
C1523 C1525 1.389 . S
C1524 H1497 0.950 . S
C1524 C1510 1.377 . S
C1524 C1523 1.373 . S
C1525 C1509 1.377 . S
C1525 C1523 1.389 . S
C1525 C1526 1.524 . S
C1526 C1525 1.524 . S
C1526 C1527 1.397 . S
C1526 C1531 1.363 . S
C1527 H1498 0.950 . S
C1527 C1526 1.397 . S
C1527 C1528 1.334 . S
C1528 H1499 0.950 . S
C1528 C1527 1.334 . S
C1528 C1529 1.287 . S
C1529 C1528 1.287 . S
C1529 C1530 1.524 . S
C1529 H1532 0.999 . S
C1530 H1500 0.950 . S
C1530 C1529 1.524 . S
C1530 C1531 1.415 . S
C1531 H1501 0.950 . S
C1531 C1526 1.363 . S
C1531 C1530 1.415 . S
H1532 C1529 0.999 . S
H1533 C1514 0.913 . S
H1534 C1552 0.951 . S
H1535 C1554 0.951 . S
H1536 C1556 0.950 . S
H1537 C1557 0.950 . S
H1538 C1559 0.950 . S
H1539 C1562 0.950 . S
H1540 C1563 0.950 . S
H1541 C1565 0.950 . S
H1542 C1566 0.950 . S
H1543 C1567 0.951 . S
H1544 C1569 0.951 . S
H1545 C1571 0.950 . S
H1546 C1572 0.950 . S
H1547 C1574 0.950 . S
H1548 C1577 0.950 . S
H1549 C1578 0.950 . S
H1550 C1580 0.950 . S
H1551 C1581 0.950 . S
C1552 H1534 0.951 . S
C1552 C1553 1.366 . S
C1552 C1554 1.388 . S
C1553 C1552 1.366 . S
C1553 C1557 1.385 . S
C1554 H1535 0.951 . S
C1554 C1552 1.388 . S
C1554 C1555 1.366 . S
C1555 C1554 1.366 . S
C1555 C1556 1.414 . S
C1555 C1558 1.499 . S
C1556 H1536 0.950 . S
C1556 C1555 1.414 . S
C1556 C1557 1.374 . S
C1557 H1537 0.950 . S
C1557 C1553 1.385 . S
C1557 C1556 1.374 . S
C1558 C1555 1.499 . S
C1558 C1559 1.373 . S
C1558 C1560 1.389 . S
C1559 H1538 0.950 . S
C1559 C1558 1.373 . S
C1559 C1575 1.377 . S
C1560 C1558 1.389 . S
C1560 C1561 1.524 . S
C1560 C1574 1.377 . S
C1561 C1560 1.524 . S
C1561 C1562 1.397 . S
C1561 C1566 1.363 . S
C1562 H1539 0.950 . S
C1562 C1561 1.397 . S
C1562 C1563 1.334 . S
C1563 H1540 0.950 . S
C1563 C1562 1.334 . S
C1563 C1564 1.287 . S
C1564 C1563 1.287 . S
C1564 C1565 1.524 . S
C1564 H1583 0.913 . S
C1565 H1541 0.950 . S
C1565 C1564 1.524 . S
C1565 C1566 1.415 . S
C1566 H1542 0.950 . S
C1566 C1561 1.363 . S
C1566 C1565 1.415 . S
C1567 H1543 0.951 . S
C1567 C1568 1.366 . S
C1567 C1569 1.388 . S
C1568 C1567 1.366 . S
C1568 C1572 1.385 . S
C1569 H1544 0.951 . S
C1569 C1567 1.388 . S
C1569 C1570 1.366 . S
C1570 C1569 1.366 . S
C1570 C1571 1.414 . S
C1570 C1573 1.499 . S
C1571 H1545 0.950 . S
C1571 C1570 1.414 . S
C1571 C1572 1.374 . S
C1572 H1546 0.950 . S
C1572 C1568 1.385 . S
C1572 C1571 1.374 . S
C1573 C1570 1.499 . S
C1573 C1574 1.373 . S
C1573 C1575 1.389 . S
C1574 H1547 0.950 . S
C1574 C1560 1.377 . S
C1574 C1573 1.373 . S
C1575 C1559 1.377 . S
C1575 C1573 1.389 . S
C1575 C1576 1.524 . S
C1576 C1575 1.524 . S
C1576 C1577 1.397 . S
C1576 C1581 1.363 . S
C1577 H1548 0.950 . S
C1577 C1576 1.397 . S
C1577 C1578 1.334 . S
C1578 H1549 0.950 . S
C1578 C1577 1.334 . S
C1578 C1579 1.287 . S
C1579 C1578 1.287 . S
C1579 C1580 1.524 . S
C1579 H1582 0.999 . S
C1580 H1550 0.950 . S
C1580 C1579 1.524 . S
C1580 C1581 1.415 . S
C1581 H1551 0.950 . S
C1581 C1576 1.363 . S
C1581 C1580 1.415 . S
H1582 C1579 0.999 . S
H1583 C1564 0.913 . S
H1584 C1602 0.951 1_565 S
H1585 C1604 0.951 . S
H1586 C1606 0.950 . S
H1587 C1607 0.950 . S
H1588 C1609 0.950 . S
H1589 C1612 0.950 . S
H1590 C1613 0.950 . S
H1591 C1615 0.950 . S
H1592 C1616 0.950 . S
H1593 C1617 0.951 . S
H1594 C1619 0.951 . S
H1595 C1621 0.950 . S
H1596 C1622 0.950 . S
H1597 C1624 0.950 . S
H1598 C1627 0.950 . S
H1599 C1628 0.950 . S
H1600 C1630 0.950 . S
H1601 C1631 0.950 . S
C1602 H1584 0.951 1_545 S
C1602 C1603 1.366 1_556 S
C1602 C1604 1.388 . S
C1603 C1602 1.366 1_554 S
C1603 C1607 1.385 . S
C1604 H1585 0.951 . S
C1604 C1602 1.388 . S
C1604 C1605 1.366 . S
C1605 C1604 1.366 . S
C1605 C1606 1.414 1_556 S
C1605 C1608 1.499 . S
C1606 H1586 0.950 . S
C1606 C1605 1.414 1_554 S
C1606 C1607 1.374 . S
C1607 H1587 0.950 . S
C1607 C1603 1.385 . S
C1607 C1606 1.374 . S
C1608 C1605 1.499 . S
C1608 C1609 1.373 . S
C1608 C1610 1.389 . S
C1609 H1588 0.950 . S
C1609 C1608 1.373 . S
C1609 C1625 1.377 . S
C1610 C1608 1.389 . S
C1610 C1611 1.524 . S
C1610 C1624 1.377 . S
C1611 C1610 1.524 . S
C1611 C1612 1.397 1_556 S
C1611 C1616 1.363 . S
C1612 H1589 0.950 . S
C1612 C1611 1.397 1_554 S
C1612 C1613 1.334 . S
C1613 H1590 0.950 . S
C1613 C1612 1.334 . S
C1613 C1614 1.287 1_545 S
C1614 C1613 1.287 1_565 S
C1614 C1615 1.524 1_554 S
C1614 H1633 0.913 . S
C1615 H1591 0.950 . S
C1615 C1614 1.524 1_556 S
C1615 C1616 1.415 1_565 S
C1616 H1592 0.950 . S
C1616 C1611 1.363 . S
C1616 C1615 1.415 1_545 S
C1617 H1593 0.951 . S
C1617 C1618 1.366 . S
C1617 C1619 1.388 . S
C1618 C1617 1.366 . S
C1618 C1622 1.385 . S
C1619 H1594 0.951 . S
C1619 C1617 1.388 . S
C1619 C1620 1.366 . S
C1620 C1619 1.366 . S
C1620 C1621 1.414 . S
C1620 C1623 1.499 . S
C1621 H1595 0.950 . S
C1621 C1620 1.414 . S
C1621 C1622 1.374 . S
C1622 H1596 0.950 . S
C1622 C1618 1.385 . S
C1622 C1621 1.374 . S
C1623 C1620 1.499 . S
C1623 C1624 1.373 . S
C1623 C1625 1.389 . S
C1624 H1597 0.950 . S
C1624 C1610 1.377 . S
C1624 C1623 1.373 . S
C1625 C1609 1.377 . S
C1625 C1623 1.389 . S
C1625 C1626 1.524 . S
C1626 C1625 1.524 . S
C1626 C1627 1.397 . S
C1626 C1631 1.363 . S
C1627 H1598 0.950 . S
C1627 C1626 1.397 . S
C1627 C1628 1.334 . S
C1628 H1599 0.950 . S
C1628 C1627 1.334 . S
C1628 C1629 1.287 . S
C1629 C1628 1.287 . S
C1629 C1630 1.524 . S
C1629 H1632 0.999 . S
C1630 H1600 0.950 . S
C1630 C1629 1.524 . S
C1630 C1631 1.415 . S
C1631 H1601 0.950 . S
C1631 C1626 1.363 . S
C1631 C1630 1.415 . S
H1632 C1629 0.999 . S
H1633 C1614 0.913 . S
H1634 C1652 0.951 . S
H1635 C1654 0.951 . S
H1636 C1656 0.950 . S
H1637 C1657 0.950 . S
H1638 C1659 0.950 . S
H1639 C1662 0.950 . S
H1640 C1663 0.950 . S
H1641 C1665 0.950 . S
H1642 C1666 0.950 . S
H1643 C1667 0.951 . S
H1644 C1669 0.951 . S
H1645 C1671 0.950 . S
H1646 C1672 0.950 . S
H1647 C1674 0.950 . S
H1648 C1677 0.950 . S
H1649 C1678 0.950 . S
H1650 C1680 0.950 . S
H1651 C1681 0.950 . S
C1652 H1634 0.951 . S
C1652 C1653 1.366 . S
C1652 C1654 1.388 . S
C1653 C1652 1.366 . S
C1653 C1657 1.385 . S
C1654 H1635 0.951 . S
C1654 C1652 1.388 . S
C1654 C1655 1.366 . S
C1655 C1654 1.366 . S
C1655 C1656 1.414 . S
C1655 C1658 1.499 . S
C1656 H1636 0.950 . S
C1656 C1655 1.414 . S
C1656 C1657 1.374 . S
C1657 H1637 0.950 . S
C1657 C1653 1.385 . S
C1657 C1656 1.374 . S
C1658 C1655 1.499 . S
C1658 C1659 1.373 . S
C1658 C1660 1.389 . S
C1659 H1638 0.950 . S
C1659 C1658 1.373 . S
C1659 C1675 1.377 . S
C1660 C1658 1.389 . S
C1660 C1661 1.524 . S
C1660 C1674 1.377 . S
C1661 C1660 1.524 . S
C1661 C1662 1.397 . S
C1661 C1666 1.363 . S
C1662 H1639 0.950 . S
C1662 C1661 1.397 . S
C1662 C1663 1.334 . S
C1663 H1640 0.950 . S
C1663 C1662 1.334 . S
C1663 C1664 1.287 . S
C1664 C1663 1.287 . S
C1664 C1665 1.524 . S
C1664 H1683 0.913 . S
C1665 H1641 0.950 . S
C1665 C1664 1.524 . S
C1665 C1666 1.415 . S
C1666 H1642 0.950 . S
C1666 C1661 1.363 . S
C1666 C1665 1.415 . S
C1667 H1643 0.951 . S
C1667 C1668 1.366 . S
C1667 C1669 1.388 1_554 S
C1668 C1667 1.366 . S
C1668 C1672 1.385 1_554 S
C1669 H1644 0.951 . S
C1669 C1667 1.388 1_556 S
C1669 C1670 1.366 . S
C1670 C1669 1.366 . S
C1670 C1671 1.414 . S
C1670 C1673 1.499 . S
C1671 H1645 0.950 . S
C1671 C1670 1.414 . S
C1671 C1672 1.374 . S
C1672 H1646 0.950 . S
C1672 C1668 1.385 1_556 S
C1672 C1671 1.374 . S
C1673 C1670 1.499 . S
C1673 C1674 1.373 . S
C1673 C1675 1.389 . S
C1674 H1647 0.950 . S
C1674 C1660 1.377 . S
C1674 C1673 1.373 . S
C1675 C1659 1.377 . S
C1675 C1673 1.389 . S
C1675 C1676 1.524 . S
C1676 C1675 1.524 . S
C1676 C1677 1.397 . S
C1676 C1681 1.363 . S
C1677 H1648 0.950 . S
C1677 C1676 1.397 . S
C1677 C1678 1.334 . S
C1678 H1649 0.950 . S
C1678 C1677 1.334 . S
C1678 C1679 1.287 . S
C1679 C1678 1.287 . S
C1679 C1680 1.524 . S
C1679 H1682 0.999 . S
C1680 H1650 0.950 . S
C1680 C1679 1.524 . S
C1680 C1681 1.415 . S
C1681 H1651 0.950 . S
C1681 C1676 1.363 . S
C1681 C1680 1.415 . S
H1682 C1679 0.999 . S
H1683 C1664 0.913 . S
H1684 C1702 0.951 . S
H1685 C1704 0.951 . S
H1686 C1706 0.950 . S
H1687 C1707 0.950 . S
H1688 C1709 0.950 . S
H1689 C1712 0.950 . S
H1690 C1713 0.950 . S
H1691 C1715 0.950 . S
H1692 C1716 0.950 1_554 S
H1693 C1717 0.951 . S
H1694 C1719 0.951 . S
H1695 C1721 0.950 . S
H1696 C1722 0.950 . S
H1697 C1724 0.950 . S
H1698 C1727 0.950 . S
H1699 C1728 0.950 . S
H1700 C1730 0.950 . S
H1701 C1731 0.950 . S
C1702 H1684 0.951 . S
C1702 C1703 1.366 . S
C1702 C1704 1.388 . S
C1703 C1702 1.366 . S
C1703 C1707 1.385 . S
C1704 H1685 0.951 . S
C1704 C1702 1.388 . S
C1704 C1705 1.366 . S
C1705 C1704 1.366 . S
C1705 C1706 1.414 . S
C1705 C1708 1.499 . S
C1706 H1686 0.950 . S
C1706 C1705 1.414 . S
C1706 C1707 1.374 . S
C1707 H1687 0.950 . S
C1707 C1703 1.385 . S
C1707 C1706 1.374 . S
C1708 C1705 1.499 . S
C1708 C1709 1.373 . S
C1708 C1710 1.389 . S
C1709 H1688 0.950 . S
C1709 C1708 1.373 . S
C1709 C1725 1.377 . S
C1710 C1708 1.389 . S
C1710 C1711 1.524 . S
C1710 C1724 1.377 . S
C1711 C1710 1.524 . S
C1711 C1712 1.397 . S
C1711 C1716 1.363 . S
C1712 H1689 0.950 . S
C1712 C1711 1.397 . S
C1712 C1713 1.334 . S
C1713 H1690 0.950 . S
C1713 C1712 1.334 . S
C1713 C1714 1.287 . S
C1714 C1713 1.287 . S
C1714 C1715 1.524 1_556 S
C1714 H1733 0.913 . S
C1715 H1691 0.950 . S
C1715 C1714 1.524 1_554 S
C1715 C1716 1.415 1_554 S
C1716 H1692 0.950 1_556 S
C1716 C1711 1.363 . S
C1716 C1715 1.415 1_556 S
C1717 H1693 0.951 . S
C1717 C1718 1.366 1_556 S
C1717 C1719 1.388 . S
C1718 C1717 1.366 1_554 S
C1718 C1722 1.385 . S
C1719 H1694 0.951 . S
C1719 C1717 1.388 . S
C1719 C1720 1.366 . S
C1720 C1719 1.366 . S
C1720 C1721 1.414 1_556 S
C1720 C1723 1.499 . S
C1721 H1695 0.950 . S
C1721 C1720 1.414 1_554 S
C1721 C1722 1.374 . S
C1722 H1696 0.950 . S
C1722 C1718 1.385 . S
C1722 C1721 1.374 . S
C1723 C1720 1.499 . S
C1723 C1724 1.373 . S
C1723 C1725 1.389 . S
C1724 H1697 0.950 . S
C1724 C1710 1.377 . S
C1724 C1723 1.373 . S
C1725 C1709 1.377 . S
C1725 C1723 1.389 . S
C1725 C1726 1.524 . S
C1726 C1725 1.524 . S
C1726 C1727 1.397 . S
C1726 C1731 1.363 . S
C1727 H1698 0.950 . S
C1727 C1726 1.397 . S
C1727 C1728 1.334 . S
C1728 H1699 0.950 . S
C1728 C1727 1.334 . S
C1728 C1729 1.287 . S
C1729 C1728 1.287 . S
C1729 C1730 1.524 . S
C1729 H1732 0.999 . S
C1730 H1700 0.950 . S
C1730 C1729 1.524 . S
C1730 C1731 1.415 . S
C1731 H1701 0.950 . S
C1731 C1726 1.363 . S
C1731 C1730 1.415 . S
H1732 C1729 0.999 . S
H1733 C1714 0.913 . S
H1734 C1752 0.951 . S
H1735 C1754 0.951 . S
H1736 C1756 0.950 . S
H1737 C1757 0.950 . S
H1738 C1759 0.950 . S
H1739 C1762 0.950 . S
H1740 C1763 0.950 . S
H1741 C1765 0.950 . S
H1742 C1766 0.950 . S
H1743 C1767 0.951 . S
H1744 C1769 0.951 . S
H1745 C1771 0.950 . S
H1746 C1772 0.950 . S
H1747 C1774 0.950 . S
H1748 C1777 0.950 . S
H1749 C1778 0.950 . S
H1750 C1780 0.950 . S
H1751 C1781 0.950 . S
C1752 H1734 0.951 . S
C1752 C1753 1.366 . S
C1752 C1754 1.388 . S
C1753 C1752 1.366 . S
C1753 C1757 1.385 . S
C1754 H1735 0.951 . S
C1754 C1752 1.388 . S
C1754 C1755 1.366 . S
C1755 C1754 1.366 . S
C1755 C1756 1.414 . S
C1755 C1758 1.499 . S
C1756 H1736 0.950 . S
C1756 C1755 1.414 . S
C1756 C1757 1.374 . S
C1757 H1737 0.950 . S
C1757 C1753 1.385 . S
C1757 C1756 1.374 . S
C1758 C1755 1.499 . S
C1758 C1759 1.373 . S
C1758 C1760 1.389 . S
C1759 H1738 0.950 . S
C1759 C1758 1.373 . S
C1759 C1775 1.377 . S
C1760 C1758 1.389 . S
C1760 C1761 1.524 . S
C1760 C1774 1.377 . S
C1761 C1760 1.524 . S
C1761 C1762 1.397 . S
C1761 C1766 1.363 . S
C1762 H1739 0.950 . S
C1762 C1761 1.397 . S
C1762 C1763 1.334 . S
C1763 H1740 0.950 . S
C1763 C1762 1.334 . S
C1763 C1764 1.287 . S
C1764 C1763 1.287 . S
C1764 C1765 1.524 . S
C1764 H1783 0.913 . S
C1765 H1741 0.950 . S
C1765 C1764 1.524 . S
C1765 C1766 1.415 . S
C1766 H1742 0.950 . S
C1766 C1761 1.363 . S
C1766 C1765 1.415 . S
C1767 H1743 0.951 . S
C1767 C1768 1.366 . S
C1767 C1769 1.388 . S
C1768 C1767 1.366 . S
C1768 C1772 1.385 . S
C1769 H1744 0.951 . S
C1769 C1767 1.388 . S
C1769 C1770 1.366 . S
C1770 C1769 1.366 . S
C1770 C1771 1.414 . S
C1770 C1773 1.499 . S
C1771 H1745 0.950 . S
C1771 C1770 1.414 . S
C1771 C1772 1.374 . S
C1772 H1746 0.950 . S
C1772 C1768 1.385 . S
C1772 C1771 1.374 . S
C1773 C1770 1.499 . S
C1773 C1774 1.373 . S
C1773 C1775 1.389 . S
C1774 H1747 0.950 . S
C1774 C1760 1.377 . S
C1774 C1773 1.373 . S
C1775 C1759 1.377 . S
C1775 C1773 1.389 . S
C1775 C1776 1.524 . S
C1776 C1775 1.524 . S
C1776 C1777 1.397 . S
C1776 C1781 1.363 . S
C1777 H1748 0.950 . S
C1777 C1776 1.397 . S
C1777 C1778 1.334 . S
C1778 H1749 0.950 . S
C1778 C1777 1.334 . S
C1778 C1779 1.287 . S
C1779 C1778 1.287 . S
C1779 C1780 1.524 . S
C1779 H1782 0.999 . S
C1780 H1750 0.950 . S
C1780 C1779 1.524 . S
C1780 C1781 1.415 . S
C1781 H1751 0.950 . S
C1781 C1776 1.363 . S
C1781 C1780 1.415 . S
H1782 C1779 0.999 . S
H1783 C1764 0.913 . S
H1784 C1802 0.951 . S
H1785 C1804 0.951 . S
H1786 C1806 0.950 . S
H1787 C1807 0.950 . S
H1788 C1809 0.950 . S
H1789 C1812 0.950 . S
H1790 C1813 0.950 . S
H1791 C1815 0.950 . S
H1792 C1816 0.950 . S
H1793 C1817 0.951 . S
H1794 C1819 0.951 . S
H1795 C1821 0.950 . S
H1796 C1822 0.950 . S
H1797 C1824 0.950 . S
H1798 C1827 0.950 . S
H1799 C1828 0.950 . S
H1800 C1830 0.950 . S
H1801 C1831 0.950 . S
C1802 H1784 0.951 . S
C1802 C1803 1.366 . S
C1802 C1804 1.388 . S
C1803 C1802 1.366 . S
C1803 C1807 1.385 . S
C1804 H1785 0.951 . S
C1804 C1802 1.388 . S
C1804 C1805 1.366 . S
C1805 C1804 1.366 . S
C1805 C1806 1.414 . S
C1805 C1808 1.499 . S
C1806 H1786 0.950 . S
C1806 C1805 1.414 . S
C1806 C1807 1.374 . S
C1807 H1787 0.950 . S
C1807 C1803 1.385 . S
C1807 C1806 1.374 . S
C1808 C1805 1.499 . S
C1808 C1809 1.373 . S
C1808 C1810 1.389 . S
C1809 H1788 0.950 . S
C1809 C1808 1.373 . S
C1809 C1825 1.377 . S
C1810 C1808 1.389 . S
C1810 C1811 1.524 . S
C1810 C1824 1.377 . S
C1811 C1810 1.524 . S
C1811 C1812 1.397 . S
C1811 C1816 1.363 . S
C1812 H1789 0.950 . S
C1812 C1811 1.397 . S
C1812 C1813 1.334 . S
C1813 H1790 0.950 . S
C1813 C1812 1.334 . S
C1813 C1814 1.287 . S
C1814 C1813 1.287 . S
C1814 C1815 1.524 . S
C1814 H1833 0.913 . S
C1815 H1791 0.950 . S
C1815 C1814 1.524 . S
C1815 C1816 1.415 . S
C1816 H1792 0.950 . S
C1816 C1811 1.363 . S
C1816 C1815 1.415 . S
C1817 H1793 0.951 . S
C1817 C1818 1.366 . S
C1817 C1819 1.388 . S
C1818 C1817 1.366 . S
C1818 C1822 1.385 . S
C1819 H1794 0.951 . S
C1819 C1817 1.388 . S
C1819 C1820 1.366 . S
C1820 C1819 1.366 . S
C1820 C1821 1.414 . S
C1820 C1823 1.499 . S
C1821 H1795 0.950 . S
C1821 C1820 1.414 . S
C1821 C1822 1.374 . S
C1822 H1796 0.950 . S
C1822 C1818 1.385 . S
C1822 C1821 1.374 . S
C1823 C1820 1.499 . S
C1823 C1824 1.373 . S
C1823 C1825 1.389 . S
C1824 H1797 0.950 . S
C1824 C1810 1.377 . S
C1824 C1823 1.373 . S
C1825 C1809 1.377 . S
C1825 C1823 1.389 . S
C1825 C1826 1.524 . S
C1826 C1825 1.524 . S
C1826 C1827 1.397 . S
C1826 C1831 1.363 . S
C1827 H1798 0.950 . S
C1827 C1826 1.397 . S
C1827 C1828 1.334 . S
C1828 H1799 0.950 . S
C1828 C1827 1.334 . S
C1828 C1829 1.287 . S
C1829 C1828 1.287 . S
C1829 C1830 1.524 . S
C1829 H1832 0.999 . S
C1830 H1800 0.950 . S
C1830 C1829 1.524 . S
C1830 C1831 1.415 . S
C1831 H1801 0.950 . S
C1831 C1826 1.363 . S
C1831 C1830 1.415 . S
H1832 C1829 0.999 . S
H1833 C1814 0.913 . S
H1834 C1852 0.951 . S
H1835 C1854 0.951 . S
H1836 C1856 0.950 . S
H1837 C1857 0.950 . S
H1838 C1859 0.950 . S
H1839 C1862 0.950 . S
H1840 C1863 0.950 . S
H1841 C1865 0.950 . S
H1842 C1866 0.950 . S
H1843 C1867 0.951 . S
H1844 C1869 0.951 . S
H1845 C1871 0.950 . S
H1846 C1872 0.950 . S
H1847 C1874 0.950 . S
H1848 C1877 0.950 . S
H1849 C1878 0.950 . S
H1850 C1880 0.950 . S
H1851 C1881 0.950 . S
C1852 H1834 0.951 . S
C1852 C1853 1.366 . S
C1852 C1854 1.388 . S
C1853 C1852 1.366 . S
C1853 C1857 1.385 . S
C1854 H1835 0.951 . S
C1854 C1852 1.388 . S
C1854 C1855 1.366 . S
C1855 C1854 1.366 . S
C1855 C1856 1.414 . S
C1855 C1858 1.499 . S
C1856 H1836 0.950 . S
C1856 C1855 1.414 . S
C1856 C1857 1.374 . S
C1857 H1837 0.950 . S
C1857 C1853 1.385 . S
C1857 C1856 1.374 . S
C1858 C1855 1.499 . S
C1858 C1859 1.373 . S
C1858 C1860 1.389 . S
C1859 H1838 0.950 . S
C1859 C1858 1.373 . S
C1859 C1875 1.377 . S
C1860 C1858 1.389 . S
C1860 C1861 1.524 . S
C1860 C1874 1.377 . S
C1861 C1860 1.524 . S
C1861 C1862 1.397 . S
C1861 C1866 1.363 . S
C1862 H1839 0.950 . S
C1862 C1861 1.397 . S
C1862 C1863 1.334 . S
C1863 H1840 0.950 . S
C1863 C1862 1.334 . S
C1863 C1864 1.287 . S
C1864 C1863 1.287 . S
C1864 C1865 1.524 . S
C1864 H1883 0.913 . S
C1865 H1841 0.950 . S
C1865 C1864 1.524 . S
C1865 C1866 1.415 . S
C1866 H1842 0.950 . S
C1866 C1861 1.363 . S
C1866 C1865 1.415 . S
C1867 H1843 0.951 . S
C1867 C1868 1.366 . S
C1867 C1869 1.388 . S
C1868 C1867 1.366 . S
C1868 C1872 1.385 . S
C1869 H1844 0.951 . S
C1869 C1867 1.388 . S
C1869 C1870 1.366 . S
C1870 C1869 1.366 . S
C1870 C1871 1.414 . S
C1870 C1873 1.499 . S
C1871 H1845 0.950 . S
C1871 C1870 1.414 . S
C1871 C1872 1.374 . S
C1872 H1846 0.950 . S
C1872 C1868 1.385 . S
C1872 C1871 1.374 . S
C1873 C1870 1.499 . S
C1873 C1874 1.373 . S
C1873 C1875 1.389 . S
C1874 H1847 0.950 . S
C1874 C1860 1.377 . S
C1874 C1873 1.373 . S
C1875 C1859 1.377 . S
C1875 C1873 1.389 . S
C1875 C1876 1.524 . S
C1876 C1875 1.524 . S
C1876 C1877 1.397 . S
C1876 C1881 1.363 . S
C1877 H1848 0.950 . S
C1877 C1876 1.397 . S
C1877 C1878 1.334 . S
C1878 H1849 0.950 . S
C1878 C1877 1.334 . S
C1878 C1879 1.287 . S
C1879 C1878 1.287 . S
C1879 C1880 1.524 . S
C1879 H1882 0.999 . S
C1880 H1850 0.950 . S
C1880 C1879 1.524 . S
C1880 C1881 1.415 . S
C1881 H1851 0.950 . S
C1881 C1876 1.363 . S
C1881 C1880 1.415 . S
H1882 C1879 0.999 . S
H1883 C1864 0.913 . S
H1884 C1902 0.951 . S
H1885 C1904 0.951 . S
H1886 C1906 0.950 . S
H1887 C1907 0.950 . S
H1888 C1909 0.950 . S
H1889 C1912 0.950 . S
H1890 C1913 0.950 . S
H1891 C1915 0.950 . S
H1892 C1916 0.950 . S
H1893 C1917 0.951 . S
H1894 C1919 0.951 . S
H1895 C1921 0.950 . S
H1896 C1922 0.950 . S
H1897 C1924 0.950 . S
H1898 C1927 0.950 . S
H1899 C1928 0.950 . S
H1900 C1930 0.950 . S
H1901 C1931 0.950 . S
C1902 H1884 0.951 . S
C1902 C1903 1.366 . S
C1902 C1904 1.388 . S
C1903 C1902 1.366 . S
C1903 C1907 1.385 . S
C1904 H1885 0.951 . S
C1904 C1902 1.388 . S
C1904 C1905 1.366 . S
C1905 C1904 1.366 . S
C1905 C1906 1.414 . S
C1905 C1908 1.499 . S
C1906 H1886 0.950 . S
C1906 C1905 1.414 . S
C1906 C1907 1.374 . S
C1907 H1887 0.950 . S
C1907 C1903 1.385 . S
C1907 C1906 1.374 . S
C1908 C1905 1.499 . S
C1908 C1909 1.373 . S
C1908 C1910 1.389 . S
C1909 H1888 0.950 . S
C1909 C1908 1.373 . S
C1909 C1925 1.377 . S
C1910 C1908 1.389 . S
C1910 C1911 1.524 . S
C1910 C1924 1.377 . S
C1911 C1910 1.524 . S
C1911 C1912 1.397 . S
C1911 C1916 1.363 . S
C1912 H1889 0.950 . S
C1912 C1911 1.397 . S
C1912 C1913 1.334 . S
C1913 H1890 0.950 . S
C1913 C1912 1.334 . S
C1913 C1914 1.287 . S
C1914 C1913 1.287 . S
C1914 C1915 1.524 . S
C1914 H1933 0.913 . S
C1915 H1891 0.950 . S
C1915 C1914 1.524 . S
C1915 C1916 1.415 . S
C1916 H1892 0.950 . S
C1916 C1911 1.363 . S
C1916 C1915 1.415 . S
C1917 H1893 0.951 . S
C1917 C1918 1.366 . S
C1917 C1919 1.388 . S
C1918 C1917 1.366 . S
C1918 C1922 1.385 . S
C1919 H1894 0.951 . S
C1919 C1917 1.388 . S
C1919 C1920 1.366 . S
C1920 C1919 1.366 . S
C1920 C1921 1.414 . S
C1920 C1923 1.499 . S
C1921 H1895 0.950 . S
C1921 C1920 1.414 . S
C1921 C1922 1.374 . S
C1922 H1896 0.950 . S
C1922 C1918 1.385 . S
C1922 C1921 1.374 . S
C1923 C1920 1.499 . S
C1923 C1924 1.373 . S
C1923 C1925 1.389 . S
C1924 H1897 0.950 . S
C1924 C1910 1.377 . S
C1924 C1923 1.373 . S
C1925 C1909 1.377 . S
C1925 C1923 1.389 . S
C1925 C1926 1.524 . S
C1926 C1925 1.524 . S
C1926 C1927 1.397 . S
C1926 C1931 1.363 . S
C1927 H1898 0.950 . S
C1927 C1926 1.397 . S
C1927 C1928 1.334 . S
C1928 H1899 0.950 . S
C1928 C1927 1.334 . S
C1928 C1929 1.287 . S
C1929 C1928 1.287 . S
C1929 C1930 1.524 . S
C1929 H1932 0.999 . S
C1930 H1900 0.950 . S
C1930 C1929 1.524 . S
C1930 C1931 1.415 . S
C1931 H1901 0.950 . S
C1931 C1926 1.363 . S
C1931 C1930 1.415 . S
H1932 C1929 0.999 . S
H1933 C1914 0.913 . S
H1934 C1952 0.951 . S
H1935 C1954 0.951 . S
H1936 C1956 0.950 . S
H1937 C1957 0.950 . S
H1938 C1959 0.950 . S
H1939 C1962 0.950 . S
H1940 C1963 0.950 . S
H1941 C1965 0.950 . S
H1942 C1966 0.950 . S
H1943 C1967 0.951 . S
H1944 C1969 0.951 . S
H1945 C1971 0.950 . S
H1946 C1972 0.950 . S
H1947 C1974 0.950 . S
H1948 C1977 0.950 . S
H1949 C1978 0.950 . S
H1950 C1980 0.950 . S
H1951 C1981 0.950 . S
C1952 H1934 0.951 . S
C1952 C1953 1.366 . S
C1952 C1954 1.388 . S
C1953 C1952 1.366 . S
C1953 C1957 1.385 . S
C1954 H1935 0.951 . S
C1954 C1952 1.388 . S
C1954 C1955 1.366 . S
C1955 C1954 1.366 . S
C1955 C1956 1.414 . S
C1955 C1958 1.499 . S
C1956 H1936 0.950 . S
C1956 C1955 1.414 . S
C1956 C1957 1.374 . S
C1957 H1937 0.950 . S
C1957 C1953 1.385 . S
C1957 C1956 1.374 . S
C1958 C1955 1.499 . S
C1958 C1959 1.373 . S
C1958 C1960 1.389 . S
C1959 H1938 0.950 . S
C1959 C1958 1.373 . S
C1959 C1975 1.377 . S
C1960 C1958 1.389 . S
C1960 C1961 1.524 . S
C1960 C1974 1.377 . S
C1961 C1960 1.524 . S
C1961 C1962 1.397 . S
C1961 C1966 1.363 . S
C1962 H1939 0.950 . S
C1962 C1961 1.397 . S
C1962 C1963 1.334 . S
C1963 H1940 0.950 . S
C1963 C1962 1.334 . S
C1963 C1964 1.287 . S
C1964 C1963 1.287 . S
C1964 C1965 1.524 . S
C1964 H1983 0.913 . S
C1965 H1941 0.950 . S
C1965 C1964 1.524 . S
C1965 C1966 1.415 . S
C1966 H1942 0.950 . S
C1966 C1961 1.363 . S
C1966 C1965 1.415 . S
C1967 H1943 0.951 . S
C1967 C1968 1.366 . S
C1967 C1969 1.388 . S
C1968 C1967 1.366 . S
C1968 C1972 1.385 . S
C1969 H1944 0.951 . S
C1969 C1967 1.388 . S
C1969 C1970 1.366 . S
C1970 C1969 1.366 . S
C1970 C1971 1.414 . S
C1970 C1973 1.499 . S
C1971 H1945 0.950 . S
C1971 C1970 1.414 . S
C1971 C1972 1.374 . S
C1972 H1946 0.950 . S
C1972 C1968 1.385 . S
C1972 C1971 1.374 . S
C1973 C1970 1.499 . S
C1973 C1974 1.373 . S
C1973 C1975 1.389 . S
C1974 H1947 0.950 . S
C1974 C1960 1.377 . S
C1974 C1973 1.373 . S
C1975 C1959 1.377 . S
C1975 C1973 1.389 . S
C1975 C1976 1.524 . S
C1976 C1975 1.524 . S
C1976 C1977 1.397 . S
C1976 C1981 1.363 . S
C1977 H1948 0.950 . S
C1977 C1976 1.397 . S
C1977 C1978 1.334 . S
C1978 H1949 0.950 . S
C1978 C1977 1.334 . S
C1978 C1979 1.287 . S
C1979 C1978 1.287 . S
C1979 C1980 1.524 . S
C1979 H1982 0.999 . S
C1980 H1950 0.950 . S
C1980 C1979 1.524 . S
C1980 C1981 1.415 . S
C1981 H1951 0.950 . S
C1981 C1976 1.363 . S
C1981 C1980 1.415 . S
H1982 C1979 0.999 . S
H1983 C1964 0.913 . S
H1984 C2002 0.951 . S
H1985 C2004 0.951 . S
H1986 C2006 0.950 . S
H1987 C2007 0.950 . S
H1988 C2009 0.950 . S
H1989 C2012 0.950 . S
H1990 C2013 0.950 . S
H1991 C2015 0.950 . S
H1992 C2016 0.950 . S
H1993 C2017 0.951 . S
H1994 C2019 0.951 . S
H1995 C2021 0.950 . S
H1996 C2022 0.950 . S
H1997 C2024 0.950 . S
H1998 C2027 0.950 . S
H1999 C2028 0.950 . S
H2000 C2030 0.950 . S
H2001 C2031 0.950 . S
C2002 H1984 0.951 . S
C2002 C2003 1.366 . S
C2002 C2004 1.388 . S
C2003 C2002 1.366 . S
C2003 C2007 1.385 . S
C2004 H1985 0.951 . S
C2004 C2002 1.388 . S
C2004 C2005 1.366 . S
C2005 C2004 1.366 . S
C2005 C2006 1.414 . S
C2005 C2008 1.499 . S
C2006 H1986 0.950 . S
C2006 C2005 1.414 . S
C2006 C2007 1.374 . S
C2007 H1987 0.950 . S
C2007 C2003 1.385 . S
C2007 C2006 1.374 . S
C2008 C2005 1.499 . S
C2008 C2009 1.373 . S
C2008 C2010 1.389 . S
C2009 H1988 0.950 . S
C2009 C2008 1.373 . S
C2009 C2025 1.377 . S
C2010 C2008 1.389 . S
C2010 C2011 1.524 . S
C2010 C2024 1.377 . S
C2011 C2010 1.524 . S
C2011 C2012 1.397 . S
C2011 C2016 1.363 . S
C2012 H1989 0.950 . S
C2012 C2011 1.397 . S
C2012 C2013 1.334 . S
C2013 H1990 0.950 . S
C2013 C2012 1.334 . S
C2013 C2014 1.287 . S
C2014 C2013 1.287 . S
C2014 C2015 1.524 . S
C2014 H2033 0.913 . S
C2015 H1991 0.950 . S
C2015 C2014 1.524 . S
C2015 C2016 1.415 . S
C2016 H1992 0.950 . S
C2016 C2011 1.363 . S
C2016 C2015 1.415 . S
C2017 H1993 0.951 . S
C2017 C2018 1.366 . S
C2017 C2019 1.388 . S
C2018 C2017 1.366 . S
C2018 C2022 1.385 . S
C2019 H1994 0.951 . S
C2019 C2017 1.388 . S
C2019 C2020 1.366 . S
C2020 C2019 1.366 . S
C2020 C2021 1.414 . S
C2020 C2023 1.499 . S
C2021 H1995 0.950 . S
C2021 C2020 1.414 . S
C2021 C2022 1.374 . S
C2022 H1996 0.950 . S
C2022 C2018 1.385 . S
C2022 C2021 1.374 . S
C2023 C2020 1.499 . S
C2023 C2024 1.373 . S
C2023 C2025 1.389 . S
C2024 H1997 0.950 . S
C2024 C2010 1.377 . S
C2024 C2023 1.373 . S
C2025 C2009 1.377 . S
C2025 C2023 1.389 . S
C2025 C2026 1.524 . S
C2026 C2025 1.524 . S
C2026 C2027 1.397 . S
C2026 C2031 1.363 . S
C2027 H1998 0.950 . S
C2027 C2026 1.397 . S
C2027 C2028 1.334 . S
C2028 H1999 0.950 . S
C2028 C2027 1.334 . S
C2028 C2029 1.287 . S
C2029 C2028 1.287 . S
C2029 C2030 1.524 . S
C2029 H2032 0.999 . S
C2030 H2000 0.950 . S
C2030 C2029 1.524 . S
C2030 C2031 1.415 . S
C2031 H2001 0.950 . S
C2031 C2026 1.363 . S
C2031 C2030 1.415 . S
H2032 C2029 0.999 . S
H2033 C2014 0.913 . S
C253 C43 1.308 . S
C268 C10 1.308 . S
C303 C62 1.307 . S
C318 C23 1.307 . S
C353 C36 1.307 . S
C368 C75 1.307 . S
C403 C30 1.308 . S
C418 C69 1.308 . S
C453 C4 1.307 . S
C468 C49 1.307 . S
C503 C56 1.308 . S
C518 C17 1.308 . S
C553 C121 1.306 . S
C568 C82 1.306 . S
C603 C101 1.308 . S
C618 C140 1.308 . S
C653 C114 1.308 . S
C668 C147 1.308 . S
C703 C153 1.307 1_556 S
C718 C108 1.307 . S
C753 C127 1.308 1_556 S
C768 C88 1.308 . S
C803 C134 1.307 1_556 S
C818 C95 1.307 . S
C853 C160 1.307 . S
C868 C205 1.307 . S
C903 C173 1.307 . S
C918 C218 1.307 . S
C953 C186 1.308 . S
C968 C225 1.308 . S
C1003 C231 1.307 . S
C1018 C192 1.307 1_554 S
C1053 C199 1.307 . S
C1068 C166 1.307 1_554 S
C1103 C212 1.308 . S
C1118 C179 1.308 1_554 S
C1153 C3 1.282 . S
C1168 C96 1.283 . S
C1203 C16 1.283 . S
C1218 C109 1.282 . S
C1253 C81 1.282 . S
C1268 C29 1.282 . S
C1303 C31 1.282 . S
C1318 C174 1.283 . S
C1353 C187 1.282 . S
C1368 C5 1.282 . S
C1403 C161 1.282 . S
C1418 C18 1.282 . S
C1453 C213 1.282 . S
C1468 C44 1.282 . S
C1503 C55 1.282 . S
C1518 C224 1.283 . S
C1553 C200 1.283 . S
C1568 C68 1.282 . S
C1603 C133 1.282 . S
C1618 C70 1.282 . S
C1653 C42 1.283 . S
C1668 C148 1.282 . S
C1703 C57 1.282 . S
C1718 C122 1.283 . S
C1753 C83 1.282 . S
C1768 C172 1.282 . S
C1803 C94 1.282 . S
C1818 C185 1.282 . S
C1853 C107 1.283 . S
C1868 C159 1.282 . S
C1903 C211 1.282 . S
C1918 C146 1.282 . S
C1953 C226 1.283 . S
C1968 C120 1.282 . S
C2003 C135 1.282 . S
C2018 C198 1.283 . S
