# Generated by pormake.
# Topology wjf, (4)-cn, num edge types: 1
# Building blocks:
#     Node 0, Type 0, BuildingBlock: CEKHIL_clean_sbu_0, # of connection points: 4
#     Node 1, Type 0, BuildingBlock: CEKHIL_clean_sbu_0, # of connection points: 4
#     Node 2, Type 0, BuildingBlock: CEKHIL_clean_sbu_0, # of connection points: 4
#     Node 3, Type 0, BuildingBlock: CEKHIL_clean_sbu_0, # of connection points: 4
#     Node 4, Type 0, BuildingBlock: CEKHIL_clean_sbu_0, # of connection points: 4
#     Node 5, Type 0, BuildingBlock: CEKHIL_clean_sbu_0, # of connection points: 4
#     Node 6, Type 0, BuildingBlock: CEKHIL_clean_sbu_0, # of connection points: 4
#     Node 7, Type 0, BuildingBlock: CEKHIL_clean_sbu_0, # of connection points: 4
#     Node 8, Type 0, BuildingBlock: CEKHIL_clean_sbu_0, # of connection points: 4
#     Node 9, Type 0, BuildingBlock: CEKHIL_clean_sbu_0, # of connection points: 4
#     Node 10, Type 0, BuildingBlock: CEKHIL_clean_sbu_0, # of connection points: 4
#     Node 11, Type 0, BuildingBlock: CEKHIL_clean_sbu_0, # of connection points: 4
#     Edge 12, Type (0, 0), BuildingBlock: XIVTED_clean_linker_0, # of connection points: 2
#     Edge 13, Type (0, 0), BuildingBlock: XIVTED_clean_linker_0, # of connection points: 2
#     Edge 14, Type (0, 0), BuildingBlock: XIVTED_clean_linker_0, # of connection points: 2
#     Edge 15, Type (0, 0), BuildingBlock: XIVTED_clean_linker_0, # of connection points: 2
#     Edge 16, Type (0, 0), BuildingBlock: XIVTED_clean_linker_0, # of connection points: 2
#     Edge 17, Type (0, 0), BuildingBlock: XIVTED_clean_linker_0, # of connection points: 2
#     Edge 18, Type (0, 0), BuildingBlock: XIVTED_clean_linker_0, # of connection points: 2
#     Edge 19, Type (0, 0), BuildingBlock: XIVTED_clean_linker_0, # of connection points: 2
#     Edge 20, Type (0, 0), BuildingBlock: XIVTED_clean_linker_0, # of connection points: 2
#     Edge 21, Type (0, 0), BuildingBlock: XIVTED_clean_linker_0, # of connection points: 2
#     Edge 22, Type (0, 0), BuildingBlock: XIVTED_clean_linker_0, # of connection points: 2
#     Edge 23, Type (0, 0), BuildingBlock: XIVTED_clean_linker_0, # of connection points: 2
#     Edge 24, Type (0, 0), BuildingBlock: XIVTED_clean_linker_0, # of connection points: 2
#     Edge 25, Type (0, 0), BuildingBlock: XIVTED_clean_linker_0, # of connection points: 2
#     Edge 26, Type (0, 0), BuildingBlock: XIVTED_clean_linker_0, # of connection points: 2
#     Edge 27, Type (0, 0), BuildingBlock: XIVTED_clean_linker_0, # of connection points: 2
#     Edge 28, Type (0, 0), BuildingBlock: XIVTED_clean_linker_0, # of connection points: 2
#     Edge 29, Type (0, 0), BuildingBlock: XIVTED_clean_linker_0, # of connection points: 2
#     Edge 30, Type (0, 0), BuildingBlock: XIVTED_clean_linker_0, # of connection points: 2
#     Edge 31, Type (0, 0), BuildingBlock: XIVTED_clean_linker_0, # of connection points: 2
#     Edge 32, Type (0, 0), BuildingBlock: XIVTED_clean_linker_0, # of connection points: 2
#     Edge 33, Type (0, 0), BuildingBlock: XIVTED_clean_linker_0, # of connection points: 2
#     Edge 34, Type (0, 0), BuildingBlock: XIVTED_clean_linker_0, # of connection points: 2
#     Edge 35, Type (0, 0), BuildingBlock: XIVTED_clean_linker_0, # of connection points: 2
# Relax obj value: 0.111
# Max RMSD: 0.133
# Mean RMSD: 0.133
data_MOF--net-wjf--node1-CEKHIL_clean_sbu_0--edge1-XIVTED_clean_linker_0
_symmetry_space_group_name_H-M    P1
_symmetry_Int_Tables_number       1
_symmetry_cell_setting            triclinic
loop_
_symmetry_equiv_pos_as_xyz
'x, y, z'
_cell_length_a     50.948205
_cell_length_b     50.940067
_cell_length_c     27.513553
_cell_angle_alpha  89.970484
_cell_angle_beta   89.906426
_cell_angle_gamma 119.98829
loop_
_atom_site_label
_atom_site_type_symbol
_atom_site_fract_x
_atom_site_fract_y
_atom_site_fract_z
_atom_type_partial_charge
Co0 Co 0.32749 0.38565 0.07553 0.0
O1 O 0.28422 0.36699 0.07247 0.0
O2 O 0.31638 0.41277 0.04398 0.0
C3 C 0.33068 0.3743 0.15323 0.0
O4 O 0.37358 0.41234 0.07383 0.0
Co5 Co 0.3566 0.3453 0.09318 0.0
O6 O 0.39455 0.38487 0.09896 0.0
C7 C 0.33029 0.34439 -0.00202 0.0
C8 C 0.28845 0.3913 0.05031 0.0
C9 C 0.39673 0.40991 0.08593 0.0
O10 O 0.32736 0.36702 0.01105 0.0
O11 O 0.33928 0.33074 0.02674 0.0
O12 O 0.32756 0.39751 0.14296 0.0
O13 O 0.32823 0.35711 0.11704 0.0
Co14 Co 0.94015 0.32792 0.41177 0.0
O15 O 0.9167 0.28447 0.40921 0.0
O16 O 0.90229 0.31549 0.37847 0.0
C17 C 0.95335 0.33177 0.49029 0.0
O18 O 0.95785 0.37375 0.40876 0.0
Co19 Co 0.00938 0.35991 0.43208 0.0
O20 O 0.00548 0.39661 0.43811 0.0
C21 C 0.98639 0.33293 0.33616 0.0
C22 C 0.89648 0.28786 0.3858 0.0
C23 C 0.98228 0.39742 0.42302 0.0
O24 O 0.96001 0.32818 0.34843 0.0
O25 O 0.00889 0.34353 0.36543 0.0
O26 O 0.92693 0.32777 0.47847 0.0
O27 O 0.96939 0.33013 0.45528 0.0
Co28 Co 0.61126 0.94233 0.73985 0.0
O29 O 0.63114 0.91877 0.73726 0.0
O30 O 0.58519 0.90381 0.70854 0.0
C31 C 0.62226 0.95704 0.81761 0.0
O32 O 0.58323 0.96022 0.73762 0.0
Co33 Co 0.64858 0.0119 0.75816 0.0
O34 O 0.6079 0.00664 0.77152 0.0
C35 C 0.65168 0.98742 0.66275 0.0
C36 C 0.60711 0.89808 0.71539 0.0
C37 C 0.58384 0.98395 0.75529 0.0
O38 O 0.62988 0.96122 0.67549 0.0
O39 O 0.6639 0.01015 0.69161 0.0
O40 O 0.5995 0.93042 0.80743 0.0
O41 O 0.63907 0.97221 0.78127 0.0
Co42 Co 0.676 0.61624 0.07621 0.0
O43 O 0.71934 0.63534 0.0739 0.0
O44 O 0.68784 0.58968 0.04464 0.0
C45 C 0.67199 0.62693 0.15402 0.0
O46 O 0.62995 0.58917 0.07382 0.0
Co47 Co 0.64633 0.65609 0.09338 0.0
O48 O 0.6085 0.61635 0.09833 0.0
C49 C 0.67331 0.65758 -0.00157 0.0
C50 C 0.71563 0.61129 0.05159 0.0
C51 C 0.60659 0.59142 0.08542 0.0
O52 O 0.67647 0.63512 0.01174 0.0
O53 O 0.6639 0.67096 0.02699 0.0
O54 O 0.67548 0.60398 0.14351 0.0
O55 O 0.67457 0.64434 0.11801 0.0
Co56 Co 0.06015 0.67374 0.40632 0.0
O57 O 0.08919 0.71645 0.40597 0.0
O58 O 0.09652 0.68093 0.37277 0.0
C59 C 0.04648 0.67037 0.48475 0.0
O60 O 0.03643 0.62761 0.40169 0.0
Co61 Co 0.99181 0.64979 0.4264 0.0
O62 O 0.99128 0.61104 0.43824 0.0
C63 C 0.0173 0.6753 0.33028 0.0
C64 C 0.10685 0.70945 0.38211 0.0
C65 C 0.01159 0.60635 0.42008 0.0
O66 O 0.04265 0.67766 0.34309 0.0
O67 O 0.99466 0.6664 0.35915 0.0
O68 O 0.07125 0.67043 0.47301 0.0
O69 O 0.03282 0.6755 0.44966 0.0
Co70 Co 0.37872 0.05538 0.74432 0.0
O71 O 0.36127 0.08113 0.7417 0.0
O72 O 0.40604 0.09291 0.71093 0.0
C73 C 0.36844 0.0424 0.82295 0.0
O74 O 0.40435 0.03487 0.74166 0.0
Co75 Co 0.33853 0.98673 0.76611 0.0
O76 O 0.37828 0.98974 0.77935 0.0
C77 C 0.33712 0.0098 0.66847 0.0
C78 C 0.38541 0.10045 0.71828 0.0
C79 C 0.40264 0.01103 0.761 0.0
O80 O 0.35856 0.03621 0.68099 0.0
O81 O 0.32474 0.98729 0.69786 0.0
O82 O 0.39234 0.06781 0.81093 0.0
O83 O 0.35029 0.02731 0.78794 0.0
Co84 Co 0.61806 0.67676 0.5657 0.0
O85 O 0.63653 0.72008 0.56708 0.0
O86 O 0.59125 0.68819 0.59747 0.0
C87 C 0.62838 0.67252 0.48775 0.0
O88 O 0.59156 0.63066 0.56922 0.0
Co89 Co 0.6584 0.64769 0.54804 0.0
O90 O 0.6189 0.60953 0.54407 0.0
C91 C 0.65993 0.67466 0.64297 0.0
C92 C 0.61242 0.71608 0.58965 0.0
C93 C 0.59397 0.60739 0.55771 0.0
O94 O 0.63749 0.67788 0.62984 0.0
O95 O 0.67323 0.66516 0.61436 0.0
O96 O 0.60524 0.67563 0.49864 0.0
O97 O 0.64614 0.67555 0.5234 0.0
Co98 Co 0.9439 0.61536 0.89783 0.0
O99 O 0.91975 0.63465 0.89998 0.0
O100 O 0.90552 0.58895 0.92936 0.0
C101 C 0.9587 0.62616 0.81988 0.0
O102 O 0.96224 0.58777 0.90074 0.0
Co103 Co 0.01344 0.65314 0.87927 0.0
O104 O 0.00861 0.61258 0.86646 0.0
C105 C 0.98881 0.65593 0.97486 0.0
C106 C 0.89929 0.61049 0.92209 0.0
C107 C 0.98605 0.58852 0.88312 0.0
O108 O 0.96258 0.63427 0.96207 0.0
O109 O 0.01161 0.66813 0.946 0.0
O110 O 0.93218 0.60329 0.83038 0.0
O111 O 0.97371 0.64324 0.85597 0.0
Co112 Co 0.32656 0.93758 0.23363 0.0
O113 O 0.28383 0.90867 0.23179 0.0
O114 O 0.31871 0.9003 0.26472 0.0
C115 C 0.33098 0.95318 0.15619 0.0
O116 O 0.37248 0.96064 0.24001 0.0
Co117 Co 0.35144 0.00619 0.21854 0.0
O118 O 0.39153 0.00863 0.21429 0.0
C119 C 0.3237 0.97835 0.31238 0.0
C120 C 0.29034 0.89038 0.25471 0.0
C121 C 0.39499 0.98674 0.22851 0.0
O122 O 0.32163 0.95334 0.29813 0.0
O123 O 0.33305 0.0016 0.28481 0.0
O124 O 0.33125 0.9284 0.16646 0.0
O125 O 0.32531 0.96604 0.19193 0.0
Co126 Co 0.38788 0.3278 0.56474 0.0
O127 O 0.3688 0.28443 0.56563 0.0
O128 O 0.4144 0.31555 0.5953 0.0
C129 C 0.3771 0.33258 0.48735 0.0
O130 O 0.41497 0.37385 0.56849 0.0
Co131 Co 0.34813 0.35781 0.54903 0.0
O132 O 0.38789 0.3957 0.5455 0.0
C133 C 0.34635 0.32962 0.64293 0.0
C134 C 0.39283 0.28784 0.58756 0.0
C135 C 0.41277 0.39739 0.55811 0.0
O136 O 0.36891 0.32665 0.62947 0.0
O137 O 0.33303 0.33925 0.61471 0.0
O138 O 0.40011 0.32904 0.49711 0.0
O139 O 0.35981 0.32969 0.52368 0.0
Co140 Co 0.059 0.38458 0.90046 0.0
O141 O 0.08479 0.36721 0.90021 0.0
O142 O 0.09757 0.41236 0.93028 0.0
C143 C 0.0432 0.3733 0.8232 0.0
O144 O 0.03849 0.41014 0.90524 0.0
Co145 Co 0.9896 0.34352 0.8856 0.0
O146 O 0.99184 0.383 0.87294 0.0
C147 C 0.01658 0.34363 0.98029 0.0
C148 C 0.10491 0.3917 0.92176 0.0
C149 C 0.01374 0.4078 0.88878 0.0
O150 O 0.0422 0.36545 0.96546 0.0
O151 O 0.99317 0.33034 0.95299 0.0
O152 O 0.06914 0.39714 0.8329 0.0
O153 O 0.02941 0.35564 0.85956 0.0
Co154 Co 0.67428 0.05973 0.22972 0.0
O155 O 0.71767 0.08426 0.23098 0.0
O156 O 0.68597 0.09811 0.26075 0.0
C157 C 0.66963 0.04454 0.15214 0.0
O158 O 0.62834 0.04087 0.2334 0.0
Co159 Co 0.64416 0.99012 0.21333 0.0
O160 O 0.60632 0.99211 0.20972 0.0
C161 C 0.67188 0.01591 0.30762 0.0
C162 C 0.71379 0.10456 0.25314 0.0
C163 C 0.60476 0.01533 0.22268 0.0
O164 O 0.67517 0.04159 0.29425 0.0
O165 O 0.66222 0.99305 0.27922 0.0
O166 O 0.67321 0.07106 0.16234 0.0
O167 O 0.67254 0.02995 0.18816 0.0
H168 H 0.35149 0.3363 0.17925 0.0
H169 H 0.34127 0.35617 0.46269 0.0
H170 H 0.32824 0.40053 0.23845 0.0
H171 H 0.40056 0.32717 0.40113 0.0
H172 H 0.33143 0.3681 0.38101 0.0
H173 H 0.36471 0.32787 0.26082 0.0
C174 C 0.34916 0.34863 0.20942 0.0
C175 C 0.33873 0.36912 0.20222 0.0
C176 C 0.3467 0.35927 0.38547 0.0
C177 C 0.35354 0.35937 0.29541 0.0
C178 C 0.35223 0.35234 0.43197 0.0
C179 C 0.37168 0.34059 0.4385 0.0
C180 C 0.36026 0.35383 0.34527 0.0
C181 C 0.38542 0.3362 0.39754 0.0
C182 C 0.35685 0.3439 0.25586 0.0
C183 C 0.33622 0.38454 0.24254 0.0
N184 N 0.37921 0.34255 0.35248 0.0
N185 N 0.34334 0.37916 0.28762 0.0
H186 H 0.93426 0.29263 0.56635 0.0
H187 H 0.06199 0.41182 0.74544 0.0
H188 H 0.9975 0.38514 0.52745 0.0
H189 H 0.99253 0.32268 0.79091 0.0
H190 H 0.03863 0.4023 0.66512 0.0
H191 H 0.95511 0.30283 0.64906 0.0
C192 C 0.9524 0.31513 0.57552 0.0
C193 C 0.96449 0.33805 0.54036 0.0
C194 C 0.02847 0.38481 0.69264 0.0
C195 C 0.98832 0.34999 0.63412 0.0
C196 C 0.04186 0.3902 0.73843 0.0
C197 C 0.02927 0.36792 0.77467 0.0
C198 C 0.00242 0.35682 0.68293 0.0
C199 C 0.003 0.34044 0.76386 0.0
C200 C 0.9643 0.32097 0.62251 0.0
C201 C 0.988 0.36679 0.55342 0.0
N202 N 0.99051 0.33559 0.71884 0.0
N203 N 0.99921 0.37196 0.5993 0.0
H204 H 0.65835 0.01618 0.84327 0.0
H205 H 0.64723 0.98535 0.12653 0.0
H206 H 0.5983 0.92767 0.9036 0.0
H207 H 0.67197 0.07315 0.06697 0.0
H208 H 0.63337 0.96361 0.04501 0.0
H209 H 0.66791 0.03752 0.92504 0.0
C210 C 0.64714 0.00123 0.87374 0.0
C211 C 0.62756 0.9701 0.86677 0.0
C212 C 0.64169 0.98759 0.0499 0.0
C213 C 0.63868 0.99433 0.96031 0.0
C214 C 0.64974 1.00005 0.0963 0.0
C215 C 0.66086 0.03111 0.10335 0.0
C216 C 0.64534 0.00646 0.01027 0.0
C217 C 0.66352 0.04909 0.063 0.0
C218 C 0.65252 0.01346 0.92034 0.0
C219 C 0.61356 0.9518 0.90751 0.0
N220 N 0.65607 0.03655 0.01801 0.0
N221 N 0.61963 0.96416 0.95274 0.0
H222 H 0.67642 0.60161 0.23883 0.0
H223 H 0.6022 0.67601 0.40336 0.0
H224 H 0.64965 0.66353 0.18117 0.0
H225 H 0.66531 0.65063 0.46023 0.0
H226 H 0.6113 0.66335 0.32142 0.0
H227 H 0.66427 0.61123 0.32079 0.0
C228 C 0.66789 0.61713 0.24343 0.0
C229 C 0.66421 0.63197 0.20335 0.0
C230 C 0.6231 0.66057 0.35194 0.0
C231 C 0.65001 0.64273 0.29644 0.0
C232 C 0.61788 0.66769 0.39859 0.0
C233 C 0.63319 0.66452 0.43844 0.0
C234 C 0.64335 0.64974 0.34539 0.0
C235 C 0.65322 0.6536 0.43039 0.0
C236 C 0.66107 0.62266 0.2901 0.0
C237 C 0.65303 0.65181 0.21119 0.0
N238 N 0.65766 0.64647 0.38472 0.0
N239 N 0.6462 0.65655 0.2569 0.0
H240 H 0.01816 0.66094 0.79412 0.0
H241 H 0.98851 0.65298 0.51185 0.0
H242 H 0.92935 0.60261 0.73402 0.0
H243 H 0.07411 0.66911 0.5692 0.0
H244 H 0.96676 0.63978 0.59348 0.0
H245 H 0.03968 0.6696 0.71227 0.0
C246 C 0.00318 0.64993 0.76371 0.0
C247 C 0.9719 0.63108 0.77075 0.0
C248 C 0.99025 0.64606 0.58809 0.0
C249 C 0.99634 0.64125 0.67722 0.0
C250 C 0.00274 0.65374 0.54161 0.0
C251 C 0.03318 0.6622 0.53384 0.0
C252 C 0.00852 0.64753 0.62721 0.0
C253 C 0.05054 0.66271 0.57371 0.0
C254 C 0.01552 0.65478 0.71711 0.0
C255 C 0.95358 0.61731 0.73008 0.0
N256 N 0.03804 0.65579 0.61891 0.0
N257 N 0.96604 0.62294 0.68486 0.0
H258 H 0.36948 0.95189 0.08811 0.0
H259 H 0.31469 0.01078 0.87004 0.0
H260 H 0.30742 0.98484 0.11352 0.0
H261 H 0.41059 0.04568 0.88762 0.0
H262 H 0.30621 0.98954 0.95255 0.0
H263 H 0.3801 0.97513 0.00657 0.0
C264 C 0.35801 0.96385 0.07633 0.0
C265 C 0.33753 0.9665 0.10718 0.0
C266 C 0.32907 0.00191 0.93821 0.0
C267 C 0.34901 0.99227 0.0147 0.0
C268 C 0.3339 0.01391 0.89137 0.0
C269 C 0.36337 0.03016 0.87259 0.0
C270 C 0.35378 0.00532 0.96554 0.0
C271 C 0.38758 0.03358 0.90135 0.0
C272 C 0.3642 0.97718 0.03022 0.0
C273 C 0.3234 0.98241 0.09067 0.0
N274 N 0.38223 0.02089 0.94642 0.0
N275 N 0.32908 0.99437 0.04518 0.0
H276 H 0.15405 0.44082 0.96409 0.0
H277 H 0.2319 0.34456 0.03386 0.0
H278 H 0.12188 0.34909 0.91588 0.0
H279 H 0.28566 0.44195 0.02244 0.0
H280 H 0.18872 0.34654 0.00068 0.0
H281 H 0.20055 0.44276 -0.0058 0.0
C282 C 0.15681 0.42122 0.95961 0.0
C283 C 0.13398 0.39468 0.93772 0.0
C284 C 0.20994 0.36753 0.00534 0.0
C285 C 0.18654 0.39666 0.97237 0.0
C286 C 0.23458 0.36644 0.02458 0.0
C287 C 0.2624 0.39314 0.03094 0.0
C288 C 0.21282 0.39557 -0.00705 0.0
C289 C 0.26457 0.42084 0.01792 0.0
C290 C 0.1833 0.42238 0.97665 0.0
C291 C 0.13873 0.36997 0.9327 0.0
N292 N 0.23995 0.4214 -0.00023 0.0
N293 N 0.16428 0.37148 0.95027 0.0
H294 H 0.88581 0.23021 0.37746 0.0
H295 H 0.71497 0.15575 0.28826 0.0
H296 H 0.84458 0.28503 0.35052 0.0
H297 H 0.77239 0.11771 0.25874 0.0
H298 H 0.75928 0.20155 0.32024 0.0
H299 H 0.84104 0.18643 0.34422 0.0
C300 C 0.86725 0.23301 0.36473 0.0
C301 C 0.86892 0.26131 0.36671 0.0
C302 C 0.76206 0.18317 0.30648 0.0
C303 C 0.81747 0.21114 0.32868 0.0
C304 C 0.73685 0.15706 0.28838 0.0
C305 C 0.74003 0.13291 0.27087 0.0
C306 C 0.79037 0.18473 0.3078 0.0
C307 C 0.76888 0.13578 0.27178 0.0
C308 C 0.84176 0.20803 0.34551 0.0
C309 C 0.8442 0.2636 0.34948 0.0
N310 N 0.79283 0.16107 0.29028 0.0
N311 N 0.81933 0.23874 0.33135 0.0
H312 H 0.55764 0.84568 0.682 0.0
H313 H 0.65779 0.77462 0.59462 0.0
H314 H 0.65372 0.88681 0.70807 0.0
H315 H 0.56235 0.71753 0.62459 0.0
H316 H 0.6552 0.81808 0.62517 0.0
H317 H 0.55739 0.80016 0.65113 0.0
C318 C 0.57861 0.84513 0.68128 0.0
C319 C 0.60575 0.87004 0.69761 0.0
C320 C 0.63479 0.79606 0.62514 0.0
C321 C 0.60566 0.81855 0.662 0.0
C322 C 0.6362 0.77122 0.60747 0.0
C323 C 0.61025 0.74237 0.60717 0.0
C324 C 0.60714 0.79227 0.64219 0.0
C325 C 0.58291 0.7394 0.6244 0.0
C326 C 0.57842 0.81918 0.66385 0.0
C327 C 0.63227 0.86814 0.69599 0.0
N328 N 0.582 0.76413 0.6411 0.0
N329 N 0.63158 0.84299 0.67821 0.0
H330 H 0.77331 0.65788 0.04255 0.0
H331 H 0.84799 0.56066 0.95773 0.0
H332 H 0.71832 0.56158 0.01824 0.0
H333 H 0.88609 0.65596 0.92675 0.0
H334 H 0.80201 0.55931 -0.01104 0.0
H335 H 0.81706 0.65642 0.01034 0.0
C336 C 0.77045 0.63634 0.03062 0.0
C337 C 0.7421 0.6098 0.03305 0.0
C338 C 0.82045 0.5804 0.97505 0.0
C339 C 0.79234 0.608 -0.00389 0.0
C340 C 0.84666 0.58123 0.9574 0.0
C341 C 0.8709 0.60848 0.9397 0.0
C342 C 0.81884 0.60713 0.97571 0.0
C343 C 0.868 0.63444 0.93999 0.0
C344 C 0.79545 0.63557 0.01197 0.0
C345 C 0.73979 0.58257 0.01683 0.0
N346 N 0.84259 0.63317 0.95803 0.0
N347 N 0.76469 0.58231 -0.0008 0.0
H348 H 0.147 0.76061 0.42987 0.0
H349 H 0.23881 0.85151 0.20634 0.0
H350 H 0.13417 0.7124 0.29526 0.0
H351 H 0.28676 0.86178 0.34035 0.0
H352 H 0.19634 0.80388 0.2374 0.0
H353 H 0.19508 0.80212 0.39826 0.0
C354 C 0.15449 0.75874 0.39381 0.0
C355 C 0.13682 0.73319 0.36503 0.0
C356 C 0.21637 0.81642 0.25961 0.0
C357 C 0.19093 0.78059 0.3285 0.0
C358 C 0.24044 0.84353 0.2421 0.0
C359 C 0.26619 0.86038 0.27091 0.0
C360 C 0.2177 0.80682 0.30685 0.0
C361 C 0.26731 0.84922 0.317 0.0
C362 C 0.18185 0.78225 0.37599 0.0
C363 C 0.14737 0.73173 0.31856 0.0
N364 N 0.24306 0.82338 0.33408 0.0
N365 N 0.17353 0.75546 0.30123 0.0
H366 H 0.34047 0.11396 0.7096 0.0
H367 H 0.44193 0.28512 0.62398 0.0
H368 H 0.43623 0.15152 0.68364 0.0
H369 H 0.34679 0.22957 0.59099 0.0
H370 H 0.44188 0.23973 0.65535 0.0
H371 H 0.34386 0.15995 0.67699 0.0
C372 C 0.3623 0.13197 0.6972 0.0
C373 C 0.38811 0.12887 0.69927 0.0
C374 C 0.42115 0.23763 0.64092 0.0
C375 C 0.39214 0.18184 0.6619 0.0
C376 C 0.42113 0.26344 0.62319 0.0
C377 C 0.39431 0.26111 0.60493 0.0
C378 C 0.39405 0.2096 0.64113 0.0
C379 C 0.368 0.2325 0.60466 0.0
C380 C 0.36417 0.15819 0.67833 0.0
C381 C 0.41577 0.15299 0.68248 0.0
N382 N 0.3685 0.20801 0.62282 0.0
N383 N 0.41713 0.17865 0.66465 0.0
H384 H 0.36323 0.30235 0.71232 0.0
H385 H 0.30282 0.36078 0.9284 0.0
H386 H 0.30775 0.34355 0.69108 0.0
H387 H 0.34549 0.30669 0.94999 0.0
H388 H 0.29987 0.35021 0.84157 0.0
H389 H 0.35252 0.29904 0.79923 0.0
C390 C 0.34856 0.31045 0.72582 0.0
C391 C 0.33684 0.32378 0.69443 0.0
C392 C 0.30956 0.34035 0.86536 0.0
C393 C 0.32465 0.32021 0.79396 0.0
C394 C 0.31135 0.34647 0.91497 0.0
C395 C 0.32494 0.33507 0.94645 0.0
C396 C 0.32177 0.32301 0.84697 0.0
C397 C 0.33513 0.31624 0.92705 0.0
C398 C 0.34239 0.30847 0.77548 0.0
C399 C 0.31759 0.33343 0.71394 0.0
N400 N 0.33374 0.31117 0.87844 0.0
N401 N 0.31246 0.33185 0.76256 0.0
H402 H 0.94332 0.30059 0.2677 0.0
H403 H 0.06131 0.36333 0.04921 0.0
H404 H 0.04027 0.35265 0.28786 0.0
H405 H 0.96489 0.30467 0.03038 0.0
H406 H 0.05475 0.35457 0.13665 0.0
H407 H 0.95135 0.29675 0.18127 0.0
C408 C 0.96633 0.31106 0.25403 0.0
C409 C 0.99116 0.32745 0.28498 0.0
C410 C 0.03507 0.34334 0.11334 0.0
C411 C 0.0005 0.32326 0.18581 0.0
C412 C 0.03878 0.34835 0.06333 0.0
C413 C 0.01352 0.33517 0.03234 0.0
C414 C 0.00588 0.3252 0.13264 0.0
C415 C 0.98498 0.31564 0.0528 0.0
C416 C 0.9709 0.30877 0.20462 0.0
C417 C 0.02044 0.34005 0.2653 0.0
N418 N 0.9819 0.31158 0.10171 0.0
N419 N 0.02429 0.33805 0.21682 0.0
H420 H 0.69133 0.04061 0.61681 0.0
H421 H 0.65876 0.96329 0.35495 0.0
H422 H 0.63598 0.94428 0.59199 0.0
H423 H 0.69706 0.05947 0.37826 0.0
H424 H 0.66088 0.95637 0.44233 0.0
H425 H 0.70377 0.04783 0.53033 0.0
C426 C 0.68199 0.02093 0.59335 0.0
C427 C 0.66206 0.99184 0.61161 0.0
C428 C 0.6691 0.97902 0.42821 0.0
C429 C 0.67628 1.00003 0.51263 0.0
C430 C 0.66798 0.98303 0.37828 0.0
C431 C 0.67714 0.01194 0.35927 0.0
C432 C 0.67951 0.00408 0.45932 0.0
C433 C 0.68919 0.03667 0.39134 0.0
C434 C 0.68911 0.0251 0.54396 0.0
C435 C 0.65099 0.96719 0.57945 0.0
N436 N 0.68971 0.03213 0.43986 0.0
N437 N 0.65803 0.97189 0.53145 0.0
H438 H 0.64408 0.7028 0.71232 0.0
H439 H 0.70072 0.6409 0.92898 0.0
H440 H 0.69696 0.65876 0.69137 0.0
H441 H 0.65888 0.6958 0.95016 0.0
H442 H 0.70433 0.65181 0.84217 0.0
H443 H 0.65406 0.70529 0.79933 0.0
C444 C 0.65803 0.69389 0.72592 0.0
C445 C 0.66923 0.68004 0.69455 0.0
C446 C 0.69467 0.66176 0.86586 0.0
C447 C 0.68057 0.68265 0.79426 0.0
C448 C 0.6925 0.65546 0.91548 0.0
C449 C 0.67897 0.66701 0.94686 0.0
C450 C 0.68293 0.67947 0.84734 0.0
C451 C 0.66919 0.68613 0.92732 0.0
C452 C 0.66378 0.6954 0.77565 0.0
C453 C 0.68757 0.66935 0.7142 0.0
N454 N 0.67098 0.69141 0.87871 0.0
N455 N 0.69229 0.67049 0.7629 0.0
H456 H 0.96484 0.66287 0.28328 0.0
H457 H 0.04205 0.69499 0.02078 0.0
H458 H 0.06081 0.69993 0.25924 0.0
H459 H 0.94566 0.64023 0.04592 0.0
H460 H 0.04931 0.70701 0.1073 0.0
H461 H 0.95792 0.66491 0.19584 0.0
C462 C 0.98453 0.67183 0.25978 0.0
C463 C 0.01338 0.68069 0.27863 0.0
C464 C 0.02656 0.69258 0.09375 0.0
C465 C 0.00553 0.68295 0.17852 0.0
C466 C 0.02236 0.6857 0.04432 0.0
C467 C 0.99324 0.66608 0.0261 0.0
C468 C 0.00147 0.67983 0.1252 0.0
C469 C 0.96858 0.65503 0.0584 0.0
C470 C 0.98052 0.67288 0.20982 0.0
C471 C 0.03807 0.69235 0.24633 0.0
N472 N 0.9733 0.66185 0.10645 0.0
N473 N 0.03352 0.69284 0.19781 0.0
H474 H 0.3001 0.93386 0.38228 0.0
H475 H 0.34946 0.05257 0.59821 0.0
H476 H 0.33318 0.02939 0.36089 0.0
H477 H 0.30368 0.95572 0.62075 0.0
H478 H 0.33933 0.044 0.51137 0.0
H479 H 0.29668 0.94064 0.46942 0.0
C480 C 0.30634 0.95621 0.39575 0.0
C481 C 0.31742 0.98119 0.36414 0.0
C482 C 0.33119 0.02459 0.53534 0.0
C483 C 0.31376 0.98911 0.46407 0.0
C484 C 0.33705 0.02947 0.58499 0.0
C485 C 0.32781 0.00483 0.61681 0.0
C486 C 0.31632 0.99486 0.51717 0.0
C487 C 0.31143 0.97542 0.59758 0.0
C488 C 0.30434 0.96004 0.44558 0.0
C489 C 0.32481 0.00951 0.38379 0.0
N490 N 0.30659 0.97126 0.54892 0.0
N491 N 0.32324 0.01276 0.43251 0.0
H492 H 0.41239 0.46959 0.07306 0.0
H493 H 0.59124 0.53155 0.07699 0.0
H494 H 0.45134 0.41212 0.09431 0.0
H495 H 0.55189 0.58925 0.08893 0.0
H496 H 0.5401 0.48729 0.07533 0.0
H497 H 0.46355 0.51371 0.07092 0.0
C498 C 0.43163 0.4662 0.07719 0.0
C499 C 0.42746 0.43705 0.08406 0.0
C500 C 0.54273 0.50968 0.07829 0.0
C501 C 0.48608 0.48744 0.08143 0.0
C502 C 0.57192 0.53495 0.0791 0.0
C503 C 0.57595 0.5642 0.08333 0.0
C504 C 0.5174 0.51369 0.08125 0.0
C505 C 0.54998 0.56717 0.08599 0.0
C506 C 0.46084 0.49141 0.07607 0.0
C507 C 0.45334 0.43412 0.08921 0.0
N508 N 0.52188 0.54229 0.08483 0.0
N509 N 0.48149 0.45895 0.08771 0.0
H510 H 0.98852 0.56552 0.4938 0.0
H511 H 0.96522 0.42207 0.34984 0.0
H512 H 0.02221 0.57647 0.34696 0.0
H513 H 0.00367 0.44012 0.49378 0.0
H514 H 0.97193 0.47351 0.34777 0.0
H515 H 0.97988 0.51354 0.49432 0.0
C516 C 0.99388 0.55684 0.46162 0.0
C517 C 0.00619 0.57514 0.42034 0.0
C518 C 0.97869 0.46597 0.37976 0.0
C519 C 0.99564 0.51593 0.42033 0.0
C520 C 0.97469 0.43675 0.38111 0.0
C521 C 0.98396 0.42709 0.42203 0.0
C522 C 0.99106 0.48501 0.42021 0.0
C523 C 0.99638 0.4469 0.46155 0.0
C524 C 0.98904 0.52738 0.46202 0.0
C525 C 0.01291 0.56302 0.37956 0.0
N526 N 0.9993 0.47489 0.4599 0.0
N527 N 0.00723 0.53393 0.38033 0.0
H528 H 0.54209 0.96889 0.68276 0.0
H529 H 0.42273 0.98994 0.83438 0.0
H530 H 0.56268 0.0037 0.82898 0.0
H531 H 0.44322 0.02343 0.6872 0.0
H532 H 0.46675 0.9824 0.83303 0.0
H533 H 0.49764 0.97602 0.68334 0.0
C534 C 0.53698 0.97764 0.7151 0.0
C535 C 0.55588 0.98574 0.75591 0.0
C536 C 0.46153 0.9914 0.80113 0.0
C537 C 0.50536 0.99341 0.75701 0.0
C538 C 0.43652 0.99565 0.80181 0.0
C539 C 0.4296 0.00746 0.76092 0.0
C540 C 0.47905 0.99808 0.75874 0.0
C541 C 0.4481 0.01454 0.71957 0.0
C542 C 0.5119 0.98191 0.71524 0.0
C543 C 0.54861 0.99729 0.7968 0.0
N544 N 0.47186 0.00939 0.71926 0.0
N545 N 0.5237 0.00051 0.79654 0.0
H546 H 0.53443 0.5916 0.57294 0.0
H547 H 0.47265 0.41269 0.56611 0.0
H548 H 0.59188 0.55279 0.54976 0.0
H549 H 0.41489 0.4521 0.55753 0.0
H550 H 0.51689 0.46384 0.56893 0.0
H551 H 0.49044 0.54038 0.57614 0.0
C552 C 0.53785 0.57238 0.56863 0.0
C553 C 0.56695 0.57662 0.56077 0.0
C554 C 0.49449 0.46122 0.56648 0.0
C555 C 0.51669 0.51792 0.56458 0.0
C556 C 0.46923 0.43202 0.56499 0.0
C557 C 0.43997 0.42801 0.56124 0.0
C558 C 0.49045 0.48657 0.56466 0.0
C559 C 0.43697 0.45399 0.55997 0.0
C560 C 0.51271 0.54314 0.57037 0.0
C561 C 0.56991 0.55075 0.55553 0.0
N562 N 0.46184 0.48209 0.56168 0.0
N563 N 0.54515 0.52257 0.55754 0.0
H564 H 0.00239 0.56519 0.80811 0.0
H565 H 0.03072 0.4513 0.95904 0.0
H566 H 0.97512 0.54953 0.95862 0.0
H567 H 0.98803 0.42499 0.81848 0.0
H568 H 0.0221 0.4948 0.95869 0.0
H569 H 0.00853 0.5203 0.80971 0.0
C570 C 0.99764 0.55218 0.84139 0.0
C571 C 0.98805 0.56072 0.88321 0.0
C572 C 0.01469 0.47941 0.92805 0.0
C573 C 0.99597 0.51042 0.88567 0.0
C574 C 0.01978 0.45486 0.92804 0.0
C575 C 0.01004 0.43469 0.88871 0.0
C576 C 0.00069 0.48417 0.88781 0.0
C577 C 0.99574 0.44004 0.84953 0.0
C578 C 0.0011 0.52671 0.84225 0.0
C579 C 0.98225 0.54333 0.92557 0.0
N580 N 0.99182 0.46452 0.84976 0.0
N581 N 0.98673 0.51913 0.92599 0.0
H582 H 0.59017 0.06035 0.2325 0.0
H583 H 0.41162 0.94395 0.24422 0.0
H584 H 0.54977 0.96318 0.22105 0.0
H585 H 0.44932 0.0399 0.21912 0.0
H586 H 0.46277 0.95146 0.24559 0.0
H587 H 0.53924 0.05404 0.23689 0.0
C588 C 0.57067 0.03772 0.23102 0.0
C589 C 0.57432 0.01229 0.22613 0.0
C590 C 0.45987 0.97089 0.23984 0.0
C591 C 0.5161 0.00494 0.23142 0.0
C592 C 0.43063 0.96665 0.2392 0.0
C593 C 0.42606 0.9913 0.23129 0.0
C594 C 0.48486 1.00004 0.23284 0.0
C595 C 0.4517 0.02018 0.22504 0.0
C596 C 0.54163 0.03416 0.23341 0.0
C597 C 0.54816 0.9835 0.22442 0.0
N598 N 0.48 0.02375 0.22594 0.0
N599 N 0.52025 0.98064 0.22714 0.0
loop_
_geom_bond_atom_site_label_1
_geom_bond_atom_site_label_2
_geom_bond_distance
_geom_bond_site_symmetry_2
_ccdc_geom_bond_type
Co0 O1 2.216 . S
Co0 O2 2.091 . S
Co0 O4 2.004 . S
Co0 O10 2.021 . S
Co0 O12 2.137 . S
Co0 O13 2.244 . S
O1 Co0 2.216 . S
O1 C8 1.247 . S
O2 Co0 2.091 . S
O2 C8 1.261 . S
C3 O12 1.247 . S
C3 O13 1.272 . S
O4 Co0 2.004 . S
O4 C9 1.259 . S
Co5 O6 2.061 . S
Co5 O11 2.052 . S
Co5 O13 2.135 . S
O6 Co5 2.061 . S
O6 C9 1.235 . S
C7 O10 1.238 1_556 S
C7 O11 1.241 1_556 S
C8 O1 1.247 . S
C8 O2 1.261 . S
C9 O4 1.259 . S
C9 O6 1.235 . S
O10 Co0 2.021 . S
O10 C7 1.238 1_554 S
O11 Co5 2.052 . S
O11 C7 1.241 1_554 S
O12 Co0 2.137 . S
O12 C3 1.247 . S
O13 Co0 2.244 . S
O13 C3 1.272 . S
O13 Co5 2.135 . S
Co14 O15 2.216 . S
Co14 O16 2.091 . S
Co14 O18 2.004 . S
Co14 O24 2.021 . S
Co14 O26 2.137 . S
Co14 O27 2.244 . S
O15 Co14 2.216 . S
O15 C22 1.247 . S
O16 Co14 2.091 . S
O16 C22 1.261 . S
C17 O26 1.247 . S
C17 O27 1.272 . S
O18 Co14 2.004 . S
O18 C23 1.259 . S
Co19 O20 2.061 . S
Co19 O25 2.052 . S
Co19 O27 2.135 1_455 S
O20 Co19 2.061 . S
O20 C23 1.235 1_455 S
C21 O24 1.238 . S
C21 O25 1.241 1_655 S
C22 O15 1.247 . S
C22 O16 1.261 . S
C23 O18 1.259 . S
C23 O20 1.235 1_655 S
O24 Co14 2.021 . S
O24 C21 1.238 . S
O25 Co19 2.052 . S
O25 C21 1.241 1_455 S
O26 Co14 2.137 . S
O26 C17 1.247 . S
O27 Co14 2.244 . S
O27 C17 1.272 . S
O27 Co19 2.135 1_655 S
Co28 O29 2.216 . S
Co28 O30 2.091 . S
Co28 O32 2.004 . S
Co28 O38 2.021 . S
Co28 O40 2.137 . S
Co28 O41 2.244 . S
O29 Co28 2.216 . S
O29 C36 1.247 . S
O30 Co28 2.091 . S
O30 C36 1.261 . S
C31 O40 1.247 . S
C31 O41 1.272 . S
O32 Co28 2.004 . S
O32 C37 1.259 . S
Co33 O34 2.061 . S
Co33 O39 2.052 . S
Co33 O41 2.135 1_545 S
O34 Co33 2.061 . S
O34 C37 1.235 1_545 S
C35 O38 1.238 . S
C35 O39 1.241 1_565 S
C36 O29 1.247 . S
C36 O30 1.261 . S
C37 O32 1.259 . S
C37 O34 1.235 1_565 S
O38 Co28 2.021 . S
O38 C35 1.238 . S
O39 Co33 2.052 . S
O39 C35 1.241 1_545 S
O40 Co28 2.137 . S
O40 C31 1.247 . S
O41 Co28 2.244 . S
O41 C31 1.272 . S
O41 Co33 2.135 1_565 S
Co42 O43 2.216 . S
Co42 O44 2.091 . S
Co42 O46 2.004 . S
Co42 O52 2.021 . S
Co42 O54 2.137 . S
Co42 O55 2.244 . S
O43 Co42 2.216 . S
O43 C50 1.247 . S
O44 Co42 2.091 . S
O44 C50 1.261 . S
C45 O54 1.247 . S
C45 O55 1.272 . S
O46 Co42 2.004 . S
O46 C51 1.259 . S
Co47 O48 2.061 . S
Co47 O53 2.052 . S
Co47 O55 2.135 . S
O48 Co47 2.061 . S
O48 C51 1.235 . S
C49 O52 1.238 1_556 S
C49 O53 1.241 1_556 S
C50 O43 1.247 . S
C50 O44 1.261 . S
C51 O46 1.259 . S
C51 O48 1.235 . S
O52 Co42 2.021 . S
O52 C49 1.238 1_554 S
O53 Co47 2.052 . S
O53 C49 1.241 1_554 S
O54 Co42 2.137 . S
O54 C45 1.247 . S
O55 Co42 2.244 . S
O55 C45 1.272 . S
O55 Co47 2.135 . S
Co56 O57 2.216 . S
Co56 O58 2.091 . S
Co56 O60 2.004 . S
Co56 O66 2.021 . S
Co56 O68 2.137 . S
Co56 O69 2.244 . S
O57 Co56 2.216 . S
O57 C64 1.247 . S
O58 Co56 2.091 . S
O58 C64 1.261 . S
C59 O68 1.247 . S
C59 O69 1.272 . S
O60 Co56 2.004 . S
O60 C65 1.259 . S
Co61 O62 2.061 . S
Co61 O67 2.052 . S
Co61 O69 2.135 1_655 S
O62 Co61 2.061 . S
O62 C65 1.235 1_655 S
C63 O66 1.238 . S
C63 O67 1.241 1_455 S
C64 O57 1.247 . S
C64 O58 1.261 . S
C65 O60 1.259 . S
C65 O62 1.235 1_455 S
O66 Co56 2.021 . S
O66 C63 1.238 . S
O67 Co61 2.052 . S
O67 C63 1.241 1_655 S
O68 Co56 2.137 . S
O68 C59 1.247 . S
O69 Co56 2.244 . S
O69 C59 1.272 . S
O69 Co61 2.135 1_455 S
Co70 O71 2.216 . S
Co70 O72 2.091 . S
Co70 O74 2.004 . S
Co70 O80 2.021 . S
Co70 O82 2.137 . S
Co70 O83 2.244 . S
O71 Co70 2.216 . S
O71 C78 1.247 . S
O72 Co70 2.091 . S
O72 C78 1.261 . S
C73 O82 1.247 . S
C73 O83 1.272 . S
O74 Co70 2.004 . S
O74 C79 1.259 . S
Co75 O76 2.061 . S
Co75 O81 2.052 . S
Co75 O83 2.135 1_565 S
O76 Co75 2.061 . S
O76 C79 1.235 1_565 S
C77 O80 1.238 . S
C77 O81 1.241 1_545 S
C78 O71 1.247 . S
C78 O72 1.261 . S
C79 O74 1.259 . S
C79 O76 1.235 1_545 S
O80 Co70 2.021 . S
O80 C77 1.238 . S
O81 Co75 2.052 . S
O81 C77 1.241 1_565 S
O82 Co70 2.137 . S
O82 C73 1.247 . S
O83 Co70 2.244 . S
O83 C73 1.272 . S
O83 Co75 2.135 1_545 S
Co84 O85 2.216 . S
Co84 O86 2.091 . S
Co84 O88 2.004 . S
Co84 O94 2.021 . S
Co84 O96 2.137 . S
Co84 O97 2.244 . S
O85 Co84 2.216 . S
O85 C92 1.247 . S
O86 Co84 2.091 . S
O86 C92 1.261 . S
C87 O96 1.247 . S
C87 O97 1.272 . S
O88 Co84 2.004 . S
O88 C93 1.259 . S
Co89 O90 2.061 . S
Co89 O95 2.052 . S
Co89 O97 2.135 . S
O90 Co89 2.061 . S
O90 C93 1.235 . S
C91 O94 1.238 . S
C91 O95 1.241 . S
C92 O85 1.247 . S
C92 O86 1.261 . S
C93 O88 1.259 . S
C93 O90 1.235 . S
O94 Co84 2.021 . S
O94 C91 1.238 . S
O95 Co89 2.052 . S
O95 C91 1.241 . S
O96 Co84 2.137 . S
O96 C87 1.247 . S
O97 Co84 2.244 . S
O97 C87 1.272 . S
O97 Co89 2.135 . S
Co98 O99 2.216 . S
Co98 O100 2.091 . S
Co98 O102 2.004 . S
Co98 O108 2.021 . S
Co98 O110 2.137 . S
Co98 O111 2.244 . S
O99 Co98 2.216 . S
O99 C106 1.247 . S
O100 Co98 2.091 . S
O100 C106 1.261 . S
C101 O110 1.247 . S
C101 O111 1.272 . S
O102 Co98 2.004 . S
O102 C107 1.259 . S
Co103 O104 2.061 . S
Co103 O109 2.052 . S
Co103 O111 2.135 1_455 S
O104 Co103 2.061 . S
O104 C107 1.235 1_455 S
C105 O108 1.238 1_554 S
C105 O109 1.241 1_654 S
C106 O99 1.247 . S
C106 O100 1.261 . S
C107 O102 1.259 . S
C107 O104 1.235 1_655 S
O108 Co98 2.021 . S
O108 C105 1.238 1_556 S
O109 Co103 2.052 . S
O109 C105 1.241 1_456 S
O110 Co98 2.137 . S
O110 C101 1.247 . S
O111 Co98 2.244 . S
O111 C101 1.272 . S
O111 Co103 2.135 1_655 S
Co112 O113 2.216 . S
Co112 O114 2.091 . S
Co112 O116 2.004 . S
Co112 O122 2.021 . S
Co112 O124 2.137 . S
Co112 O125 2.244 . S
O113 Co112 2.216 . S
O113 C120 1.247 . S
O114 Co112 2.091 . S
O114 C120 1.261 . S
C115 O124 1.247 . S
C115 O125 1.272 . S
O116 Co112 2.004 . S
O116 C121 1.259 . S
Co117 O118 2.061 . S
Co117 O123 2.052 . S
Co117 O125 2.135 1_545 S
O118 Co117 2.061 . S
O118 C121 1.235 1_545 S
C119 O122 1.238 . S
C119 O123 1.241 1_565 S
C120 O113 1.247 . S
C120 O114 1.261 . S
C121 O116 1.259 . S
C121 O118 1.235 1_565 S
O122 Co112 2.021 . S
O122 C119 1.238 . S
O123 Co117 2.052 . S
O123 C119 1.241 1_545 S
O124 Co112 2.137 . S
O124 C115 1.247 . S
O125 Co112 2.244 . S
O125 C115 1.272 . S
O125 Co117 2.135 1_565 S
Co126 O127 2.216 . S
Co126 O128 2.091 . S
Co126 O130 2.004 . S
Co126 O136 2.021 . S
Co126 O138 2.137 . S
Co126 O139 2.244 . S
O127 Co126 2.216 . S
O127 C134 1.247 . S
O128 Co126 2.091 . S
O128 C134 1.261 . S
C129 O138 1.247 . S
C129 O139 1.272 . S
O130 Co126 2.004 . S
O130 C135 1.259 . S
Co131 O132 2.061 . S
Co131 O137 2.052 . S
Co131 O139 2.135 . S
O132 Co131 2.061 . S
O132 C135 1.235 . S
C133 O136 1.238 . S
C133 O137 1.241 . S
C134 O127 1.247 . S
C134 O128 1.261 . S
C135 O130 1.259 . S
C135 O132 1.235 . S
O136 Co126 2.021 . S
O136 C133 1.238 . S
O137 Co131 2.052 . S
O137 C133 1.241 . S
O138 Co126 2.137 . S
O138 C129 1.247 . S
O139 Co126 2.244 . S
O139 C129 1.272 . S
O139 Co131 2.135 . S
Co140 O141 2.216 . S
Co140 O142 2.091 . S
Co140 O144 2.004 . S
Co140 O150 2.021 . S
Co140 O152 2.137 . S
Co140 O153 2.244 . S
O141 Co140 2.216 . S
O141 C148 1.247 . S
O142 Co140 2.091 . S
O142 C148 1.261 . S
C143 O152 1.247 . S
C143 O153 1.272 . S
O144 Co140 2.004 . S
O144 C149 1.259 . S
Co145 O146 2.061 . S
Co145 O151 2.052 . S
Co145 O153 2.135 1_655 S
O146 Co145 2.061 . S
O146 C149 1.235 1_655 S
C147 O150 1.238 1_554 S
C147 O151 1.241 1_454 S
C148 O141 1.247 . S
C148 O142 1.261 . S
C149 O144 1.259 . S
C149 O146 1.235 1_455 S
O150 Co140 2.021 . S
O150 C147 1.238 1_556 S
O151 Co145 2.052 . S
O151 C147 1.241 1_656 S
O152 Co140 2.137 . S
O152 C143 1.247 . S
O153 Co140 2.244 . S
O153 C143 1.272 . S
O153 Co145 2.135 1_455 S
Co154 O155 2.216 . S
Co154 O156 2.091 . S
Co154 O158 2.004 . S
Co154 O164 2.021 . S
Co154 O166 2.137 . S
Co154 O167 2.244 . S
O155 Co154 2.216 . S
O155 C162 1.247 . S
O156 Co154 2.091 . S
O156 C162 1.261 . S
C157 O166 1.247 . S
C157 O167 1.272 . S
O158 Co154 2.004 . S
O158 C163 1.259 . S
Co159 O160 2.061 . S
Co159 O165 2.052 . S
Co159 O167 2.135 1_565 S
O160 Co159 2.061 . S
O160 C163 1.235 1_565 S
C161 O164 1.238 . S
C161 O165 1.241 1_545 S
C162 O155 1.247 . S
C162 O156 1.261 . S
C163 O158 1.259 . S
C163 O160 1.235 1_545 S
O164 Co154 2.021 . S
O164 C161 1.238 . S
O165 Co159 2.052 . S
O165 C161 1.241 1_565 S
O166 Co154 2.137 . S
O166 C157 1.247 . S
O167 Co154 2.244 . S
O167 C157 1.272 . S
O167 Co159 2.135 1_545 S
H168 C174 0.930 . S
H169 C178 0.930 . S
H170 C183 0.929 . S
H171 C181 0.929 . S
H172 C176 0.929 . S
H173 C182 0.929 . S
C174 H168 0.930 . S
C174 C175 1.367 . S
C174 C182 1.378 . S
C175 C174 1.367 . S
C175 C183 1.433 . S
C176 H172 0.929 . S
C176 C178 1.378 . S
C176 C180 1.350 . S
C177 C180 1.463 . S
C177 C182 1.350 . S
C177 N185 1.427 . S
C178 H169 0.930 . S
C178 C176 1.378 . S
C178 C179 1.367 . S
C179 C178 1.367 . S
C179 C181 1.433 . S
C180 C176 1.350 . S
C180 C177 1.463 . S
C180 N184 1.427 . S
C181 H171 0.929 . S
C181 C179 1.433 . S
C181 N184 1.384 . S
C182 H173 0.929 . S
C182 C174 1.378 . S
C182 C177 1.350 . S
C183 H170 0.929 . S
C183 C175 1.433 . S
C183 N185 1.384 . S
N184 C180 1.427 . S
N184 C181 1.384 . S
N185 C177 1.427 . S
N185 C183 1.384 . S
H186 C192 0.930 . S
H187 C196 0.930 . S
H188 C201 0.929 . S
H189 C199 0.929 . S
H190 C194 0.929 . S
H191 C200 0.929 . S
C192 H186 0.930 . S
C192 C193 1.367 . S
C192 C200 1.378 . S
C193 C192 1.367 . S
C193 C201 1.433 1_655 S
C194 H190 0.929 . S
C194 C196 1.378 . S
C194 C198 1.350 . S
C195 C198 1.463 1_655 S
C195 C200 1.350 . S
C195 N203 1.427 1_655 S
C196 H187 0.930 . S
C196 C194 1.378 . S
C196 C197 1.367 . S
C197 C196 1.367 . S
C197 C199 1.433 1_455 S
C198 C194 1.350 . S
C198 C195 1.463 1_455 S
C198 N202 1.427 1_455 S
C199 H189 0.929 . S
C199 C197 1.433 1_655 S
C199 N202 1.384 . S
C200 H191 0.929 . S
C200 C192 1.378 . S
C200 C195 1.350 . S
C201 H188 0.929 . S
C201 C193 1.433 1_455 S
C201 N203 1.384 . S
N202 C198 1.427 1_655 S
N202 C199 1.384 . S
N203 C195 1.427 1_455 S
N203 C201 1.384 . S
H204 C210 0.930 . S
H205 C214 0.930 . S
H206 C219 0.929 . S
H207 C217 0.929 . S
H208 C212 0.929 . S
H209 C218 0.929 . S
C210 H204 0.930 . S
C210 C211 1.367 1_545 S
C210 C218 1.378 . S
C211 C210 1.367 1_565 S
C211 C219 1.433 . S
C212 H208 0.929 . S
C212 C214 1.378 . S
C212 C216 1.350 1_565 S
C213 C216 1.463 1_566 S
C213 C218 1.350 1_565 S
C213 N221 1.427 . S
C214 H205 0.930 . S
C214 C212 1.378 . S
C214 C215 1.367 1_565 S
C215 C214 1.367 1_545 S
C215 C217 1.433 . S
C216 C212 1.350 1_545 S
C216 C213 1.463 1_544 S
C216 N220 1.427 . S
C217 H207 0.929 . S
C217 C215 1.433 . S
C217 N220 1.384 . S
C218 H209 0.929 . S
C218 C210 1.378 . S
C218 C213 1.350 1_545 S
C219 H206 0.929 . S
C219 C211 1.433 . S
C219 N221 1.384 . S
N220 C216 1.427 . S
N220 C217 1.384 . S
N221 C213 1.427 . S
N221 C219 1.384 . S
H222 C228 0.930 . S
H223 C232 0.930 . S
H224 C237 0.929 . S
H225 C235 0.929 . S
H226 C230 0.929 . S
H227 C236 0.929 . S
C228 H222 0.930 . S
C228 C229 1.367 . S
C228 C236 1.378 . S
C229 C228 1.367 . S
C229 C237 1.433 . S
C230 H226 0.929 . S
C230 C232 1.378 . S
C230 C234 1.350 . S
C231 C234 1.463 . S
C231 C236 1.350 . S
C231 N239 1.427 . S
C232 H223 0.930 . S
C232 C230 1.378 . S
C232 C233 1.367 . S
C233 C232 1.367 . S
C233 C235 1.433 . S
C234 C230 1.350 . S
C234 C231 1.463 . S
C234 N238 1.427 . S
C235 H225 0.929 . S
C235 C233 1.433 . S
C235 N238 1.384 . S
C236 H227 0.929 . S
C236 C228 1.378 . S
C236 C231 1.350 . S
C237 H224 0.929 . S
C237 C229 1.433 . S
C237 N239 1.384 . S
N238 C234 1.427 . S
N238 C235 1.384 . S
N239 C231 1.427 . S
N239 C237 1.384 . S
H240 C246 0.930 . S
H241 C250 0.930 . S
H242 C255 0.929 . S
H243 C253 0.929 . S
H244 C248 0.929 . S
H245 C254 0.929 . S
C246 H240 0.930 . S
C246 C247 1.367 1_455 S
C246 C254 1.378 . S
C247 C246 1.367 1_655 S
C247 C255 1.433 . S
C248 H244 0.929 . S
C248 C250 1.378 . S
C248 C252 1.350 1_655 S
C249 C252 1.463 1_655 S
C249 C254 1.350 1_655 S
C249 N257 1.427 . S
C250 H241 0.930 . S
C250 C248 1.378 . S
C250 C251 1.367 1_655 S
C251 C250 1.367 1_455 S
C251 C253 1.433 . S
C252 C248 1.350 1_455 S
C252 C249 1.463 1_455 S
C252 N256 1.427 . S
C253 H243 0.929 . S
C253 C251 1.433 . S
C253 N256 1.384 . S
C254 H245 0.929 . S
C254 C246 1.378 . S
C254 C249 1.350 1_455 S
C255 H242 0.929 . S
C255 C247 1.433 . S
C255 N257 1.384 . S
N256 C252 1.427 . S
N256 C253 1.384 . S
N257 C249 1.427 . S
N257 C255 1.384 . S
H258 C264 0.920 . S
H259 C268 0.921 . S
H260 C273 0.929 . S
H261 C271 0.929 . S
H262 C266 0.929 . S
H263 C272 0.929 . S
C264 H258 0.920 . S
C264 C265 1.367 . S
C264 C272 1.378 1_565 S
C265 C264 1.367 . S
C265 C273 1.433 . S
C266 H262 0.929 . S
C266 C268 1.378 1_565 S
C266 C270 1.350 1_565 S
C267 C270 1.463 1_564 S
C267 C272 1.350 1_565 S
C267 N275 1.427 . S
C268 H259 0.921 . S
C268 C266 1.378 1_545 S
C268 C269 1.367 . S
C269 C268 1.367 . S
C269 C271 1.433 . S
C270 C266 1.350 1_545 S
C270 C267 1.463 1_546 S
C270 N274 1.427 . S
C271 H261 0.929 . S
C271 C269 1.433 . S
C271 N274 1.384 . S
C272 H263 0.929 . S
C272 C264 1.378 1_545 S
C272 C267 1.350 1_545 S
C273 H260 0.929 . S
C273 C265 1.433 . S
C273 N275 1.384 . S
N274 C270 1.427 . S
N274 C271 1.384 . S
N275 C267 1.427 . S
N275 C273 1.384 . S
H276 C282 0.930 . S
H277 C286 0.930 . S
H278 C291 0.929 . S
H279 C289 0.929 . S
H280 C284 0.929 . S
H281 C290 0.929 . S
C282 H276 0.930 . S
C282 C283 1.367 1_554 S
C282 C290 1.378 . S
C283 C282 1.367 1_556 S
C283 C291 1.433 . S
C284 H280 0.929 . S
C284 C286 1.378 . S
C284 C288 1.350 1_556 S
C285 C288 1.463 1_556 S
C285 C290 1.350 1_556 S
C285 N293 1.427 . S
C286 H277 0.930 . S
C286 C284 1.378 . S
C286 C287 1.367 1_556 S
C287 C286 1.367 1_554 S
C287 C289 1.433 . S
C288 C284 1.350 1_554 S
C288 C285 1.463 1_554 S
C288 N292 1.427 . S
C289 H279 0.929 . S
C289 C287 1.433 . S
C289 N292 1.384 . S
C290 H281 0.929 . S
C290 C282 1.378 . S
C290 C285 1.350 1_554 S
C291 H278 0.929 . S
C291 C283 1.433 . S
C291 N293 1.384 . S
N292 C288 1.427 . S
N292 C289 1.384 . S
N293 C285 1.427 . S
N293 C291 1.384 . S
H294 C300 0.930 . S
H295 C304 0.930 . S
H296 C309 0.929 . S
H297 C307 0.929 . S
H298 C302 0.929 . S
H299 C308 0.929 . S
C300 H294 0.930 . S
C300 C301 1.367 . S
C300 C308 1.378 . S
C301 C300 1.367 . S
C301 C309 1.433 . S
C302 H298 0.929 . S
C302 C304 1.378 . S
C302 C306 1.350 . S
C303 C306 1.463 . S
C303 C308 1.350 . S
C303 N311 1.427 . S
C304 H295 0.930 . S
C304 C302 1.378 . S
C304 C305 1.367 . S
C305 C304 1.367 . S
C305 C307 1.433 . S
C306 C302 1.350 . S
C306 C303 1.463 . S
C306 N310 1.427 . S
C307 H297 0.929 . S
C307 C305 1.433 . S
C307 N310 1.384 . S
C308 H299 0.929 . S
C308 C300 1.378 . S
C308 C303 1.350 . S
C309 H296 0.929 . S
C309 C301 1.433 . S
C309 N311 1.384 . S
N310 C306 1.427 . S
N310 C307 1.384 . S
N311 C303 1.427 . S
N311 C309 1.384 . S
H312 C318 0.930 . S
H313 C322 0.930 . S
H314 C327 0.929 . S
H315 C325 0.929 . S
H316 C320 0.929 . S
H317 C326 0.929 . S
C318 H312 0.930 . S
C318 C319 1.367 . S
C318 C326 1.378 . S
C319 C318 1.367 . S
C319 C327 1.433 . S
C320 H316 0.929 . S
C320 C322 1.378 . S
C320 C324 1.350 . S
C321 C324 1.463 . S
C321 C326 1.350 . S
C321 N329 1.427 . S
C322 H313 0.930 . S
C322 C320 1.378 . S
C322 C323 1.367 . S
C323 C322 1.367 . S
C323 C325 1.433 . S
C324 C320 1.350 . S
C324 C321 1.463 . S
C324 N328 1.427 . S
C325 H315 0.929 . S
C325 C323 1.433 . S
C325 N328 1.384 . S
C326 H317 0.929 . S
C326 C318 1.378 . S
C326 C321 1.350 . S
C327 H314 0.929 . S
C327 C319 1.433 . S
C327 N329 1.384 . S
N328 C324 1.427 . S
N328 C325 1.384 . S
N329 C321 1.427 . S
N329 C327 1.384 . S
H330 C336 0.930 1_556 S
H331 C340 0.930 1_554 S
H332 C345 0.929 . S
H333 C343 0.929 . S
H334 C338 0.929 . S
H335 C344 0.929 . S
C336 H330 0.930 1_554 S
C336 C337 1.367 . S
C336 C344 1.378 1_554 S
C337 C336 1.367 . S
C337 C345 1.433 . S
C338 H334 0.929 . S
C338 C340 1.378 1_554 S
C338 C342 1.350 1_554 S
C339 C342 1.463 1_554 S
C339 C344 1.350 1_554 S
C339 N347 1.427 . S
C340 H331 0.930 1_556 S
C340 C338 1.378 1_556 S
C340 C341 1.367 . S
C341 C340 1.367 . S
C341 C343 1.433 . S
C342 C338 1.350 1_556 S
C342 C339 1.463 1_556 S
C342 N346 1.427 . S
C343 H333 0.929 . S
C343 C341 1.433 . S
C343 N346 1.384 . S
C344 H335 0.929 . S
C344 C336 1.378 1_556 S
C344 C339 1.350 1_556 S
C345 H332 0.929 . S
C345 C337 1.433 . S
C345 N347 1.384 . S
N346 C342 1.427 . S
N346 C343 1.384 . S
N347 C339 1.427 . S
N347 C345 1.384 . S
H348 C354 0.930 . S
H349 C358 0.930 . S
H350 C363 0.929 . S
H351 C361 0.929 . S
H352 C356 0.929 . S
H353 C362 0.929 . S
C354 H348 0.930 . S
C354 C355 1.367 . S
C354 C362 1.378 . S
C355 C354 1.367 . S
C355 C363 1.433 . S
C356 H352 0.929 . S
C356 C358 1.378 . S
C356 C360 1.350 . S
C357 C360 1.463 . S
C357 C362 1.350 . S
C357 N365 1.427 . S
C358 H349 0.930 . S
C358 C356 1.378 . S
C358 C359 1.367 . S
C359 C358 1.367 . S
C359 C361 1.433 . S
C360 C356 1.350 . S
C360 C357 1.463 . S
C360 N364 1.427 . S
C361 H351 0.929 . S
C361 C359 1.433 . S
C361 N364 1.384 . S
C362 H353 0.929 . S
C362 C354 1.378 . S
C362 C357 1.350 . S
C363 H350 0.929 . S
C363 C355 1.433 . S
C363 N365 1.384 . S
N364 C360 1.427 . S
N364 C361 1.384 . S
N365 C357 1.427 . S
N365 C363 1.384 . S
H366 C372 0.930 . S
H367 C376 0.930 . S
H368 C381 0.929 . S
H369 C379 0.929 . S
H370 C374 0.929 . S
H371 C380 0.929 . S
C372 H366 0.930 . S
C372 C373 1.367 . S
C372 C380 1.378 . S
C373 C372 1.367 . S
C373 C381 1.433 . S
C374 H370 0.929 . S
C374 C376 1.378 . S
C374 C378 1.350 . S
C375 C378 1.463 . S
C375 C380 1.350 . S
C375 N383 1.427 . S
C376 H367 0.930 . S
C376 C374 1.378 . S
C376 C377 1.367 . S
C377 C376 1.367 . S
C377 C379 1.433 . S
C378 C374 1.350 . S
C378 C375 1.463 . S
C378 N382 1.427 . S
C379 H369 0.929 . S
C379 C377 1.433 . S
C379 N382 1.384 . S
C380 H371 0.929 . S
C380 C372 1.378 . S
C380 C375 1.350 . S
C381 H368 0.929 . S
C381 C373 1.433 . S
C381 N383 1.384 . S
N382 C378 1.427 . S
N382 C379 1.384 . S
N383 C375 1.427 . S
N383 C381 1.384 . S
H384 C390 0.930 . S
H385 C394 0.930 . S
H386 C399 0.929 . S
H387 C397 0.929 . S
H388 C392 0.929 . S
H389 C398 0.929 . S
C390 H384 0.930 . S
C390 C391 1.367 . S
C390 C398 1.378 . S
C391 C390 1.367 . S
C391 C399 1.433 . S
C392 H388 0.929 . S
C392 C394 1.378 . S
C392 C396 1.350 . S
C393 C396 1.463 . S
C393 C398 1.350 . S
C393 N401 1.427 . S
C394 H385 0.930 . S
C394 C392 1.378 . S
C394 C395 1.367 . S
C395 C394 1.367 . S
C395 C397 1.433 . S
C396 C392 1.350 . S
C396 C393 1.463 . S
C396 N400 1.427 . S
C397 H387 0.929 . S
C397 C395 1.433 . S
C397 N400 1.384 . S
C398 H389 0.929 . S
C398 C390 1.378 . S
C398 C393 1.350 . S
C399 H386 0.929 . S
C399 C391 1.433 . S
C399 N401 1.384 . S
N400 C396 1.427 . S
N400 C397 1.384 . S
N401 C393 1.427 . S
N401 C399 1.384 . S
H402 C408 0.930 . S
H403 C412 0.930 . S
H404 C417 0.929 . S
H405 C415 0.929 . S
H406 C410 0.929 . S
H407 C416 0.929 . S
C408 H402 0.930 . S
C408 C409 1.367 . S
C408 C416 1.378 . S
C409 C408 1.367 . S
C409 C417 1.433 1_655 S
C410 H406 0.929 . S
C410 C412 1.378 . S
C410 C414 1.350 . S
C411 C414 1.463 1_655 S
C411 C416 1.350 . S
C411 N419 1.427 1_655 S
C412 H403 0.930 . S
C412 C410 1.378 . S
C412 C413 1.367 . S
C413 C412 1.367 . S
C413 C415 1.433 1_455 S
C414 C410 1.350 . S
C414 C411 1.463 1_455 S
C414 N418 1.427 1_455 S
C415 H405 0.929 . S
C415 C413 1.433 1_655 S
C415 N418 1.384 . S
C416 H407 0.929 . S
C416 C408 1.378 . S
C416 C411 1.350 . S
C417 H404 0.929 . S
C417 C409 1.433 1_455 S
C417 N419 1.384 . S
N418 C414 1.427 1_655 S
N418 C415 1.384 . S
N419 C411 1.427 1_455 S
N419 C417 1.384 . S
H420 C426 0.930 . S
H421 C430 0.930 . S
H422 C435 0.929 . S
H423 C433 0.929 . S
H424 C428 0.929 . S
H425 C434 0.929 . S
C426 H420 0.930 . S
C426 C427 1.367 1_545 S
C426 C434 1.378 . S
C427 C426 1.367 1_565 S
C427 C435 1.433 . S
C428 H424 0.929 . S
C428 C430 1.378 . S
C428 C432 1.348 1_565 S
C429 C432 1.462 1_565 S
C429 C434 1.348 1_565 S
C429 N437 1.429 . S
C430 H421 0.930 . S
C430 C428 1.378 . S
C430 C431 1.367 1_565 S
C431 C430 1.367 1_545 S
C431 C433 1.433 . S
C432 C428 1.348 1_545 S
C432 C429 1.462 1_545 S
C432 N436 1.429 . S
C433 H423 0.929 . S
C433 C431 1.433 . S
C433 N436 1.384 . S
C434 H425 0.929 . S
C434 C426 1.378 . S
C434 C429 1.348 1_545 S
C435 H422 0.929 . S
C435 C427 1.433 . S
C435 N437 1.384 . S
N436 C432 1.429 . S
N436 C433 1.384 . S
N437 C429 1.429 . S
N437 C435 1.384 . S
H438 C444 0.930 . S
H439 C448 0.930 . S
H440 C453 0.929 . S
H441 C451 0.929 . S
H442 C446 0.929 . S
H443 C452 0.929 . S
C444 H438 0.930 . S
C444 C445 1.367 . S
C444 C452 1.378 . S
C445 C444 1.367 . S
C445 C453 1.433 . S
C446 H442 0.929 . S
C446 C448 1.378 . S
C446 C450 1.350 . S
C447 C450 1.463 . S
C447 C452 1.350 . S
C447 N455 1.427 . S
C448 H439 0.930 . S
C448 C446 1.378 . S
C448 C449 1.367 . S
C449 C448 1.367 . S
C449 C451 1.433 . S
C450 C446 1.350 . S
C450 C447 1.463 . S
C450 N454 1.427 . S
C451 H441 0.929 . S
C451 C449 1.433 . S
C451 N454 1.384 . S
C452 H443 0.929 . S
C452 C444 1.378 . S
C452 C447 1.350 . S
C453 H440 0.929 . S
C453 C445 1.433 . S
C453 N455 1.384 . S
N454 C450 1.427 . S
N454 C451 1.384 . S
N455 C447 1.427 . S
N455 C453 1.384 . S
H456 C462 0.930 . S
H457 C466 0.930 . S
H458 C471 0.929 . S
H459 C469 0.929 . S
H460 C464 0.929 . S
H461 C470 0.929 . S
C462 H456 0.930 . S
C462 C463 1.367 1_655 S
C462 C470 1.378 . S
C463 C462 1.367 1_455 S
C463 C471 1.433 . S
C464 H460 0.929 . S
C464 C466 1.378 . S
C464 C468 1.330 1_455 S
C465 C468 1.463 1_455 S
C465 C470 1.330 1_455 S
C465 N473 1.450 . S
C466 H457 0.930 . S
C466 C464 1.378 . S
C466 C467 1.367 1_455 S
C467 C466 1.367 1_655 S
C467 C469 1.433 . S
C468 C464 1.330 1_655 S
C468 C465 1.463 1_655 S
C468 N472 1.450 . S
C469 H459 0.929 . S
C469 C467 1.433 . S
C469 N472 1.384 . S
C470 H461 0.929 . S
C470 C462 1.378 . S
C470 C465 1.330 1_655 S
C471 H458 0.929 . S
C471 C463 1.433 . S
C471 N473 1.384 . S
N472 C468 1.450 . S
N472 C469 1.384 . S
N473 C465 1.450 . S
N473 C471 1.384 . S
H474 C480 0.930 . S
H475 C484 0.930 . S
H476 C489 0.929 . S
H477 C487 0.929 . S
H478 C482 0.929 . S
H479 C488 0.929 . S
C480 H474 0.930 . S
C480 C481 1.367 . S
C480 C488 1.378 . S
C481 C480 1.367 . S
C481 C489 1.433 1_565 S
C482 H478 0.929 . S
C482 C484 1.378 . S
C482 C486 1.350 . S
C483 C486 1.463 1_565 S
C483 C488 1.350 . S
C483 N491 1.427 1_565 S
C484 H475 0.930 . S
C484 C482 1.378 . S
C484 C485 1.367 . S
C485 C484 1.367 . S
C485 C487 1.433 1_545 S
C486 C482 1.350 . S
C486 C483 1.463 1_545 S
C486 N490 1.427 1_545 S
C487 H477 0.929 . S
C487 C485 1.433 1_565 S
C487 N490 1.384 . S
C488 H479 0.929 . S
C488 C480 1.378 . S
C488 C483 1.350 . S
C489 H476 0.929 . S
C489 C481 1.433 1_545 S
C489 N491 1.384 . S
N490 C486 1.427 1_565 S
N490 C487 1.384 . S
N491 C483 1.427 1_545 S
N491 C489 1.384 . S
H492 C498 0.930 . S
H493 C502 0.930 . S
H494 C507 0.929 . S
H495 C505 0.929 . S
H496 C500 0.929 . S
H497 C506 0.929 . S
C498 H492 0.930 . S
C498 C499 1.367 . S
C498 C506 1.378 . S
C499 C498 1.367 . S
C499 C507 1.433 . S
C500 H496 0.929 . S
C500 C502 1.378 . S
C500 C504 1.350 . S
C501 C504 1.463 . S
C501 C506 1.350 . S
C501 N509 1.427 . S
C502 H493 0.930 . S
C502 C500 1.378 . S
C502 C503 1.367 . S
C503 C502 1.367 . S
C503 C505 1.433 . S
C504 C500 1.350 . S
C504 C501 1.463 . S
C504 N508 1.427 . S
C505 H495 0.929 . S
C505 C503 1.433 . S
C505 N508 1.384 . S
C506 H497 0.929 . S
C506 C498 1.378 . S
C506 C501 1.350 . S
C507 H494 0.929 . S
C507 C499 1.433 . S
C507 N509 1.384 . S
N508 C504 1.427 . S
N508 C505 1.384 . S
N509 C501 1.427 . S
N509 C507 1.384 . S
H510 C516 0.930 . S
H511 C520 0.930 . S
H512 C525 0.929 . S
H513 C523 0.929 . S
H514 C518 0.929 . S
H515 C524 0.929 . S
C516 H510 0.930 . S
C516 C517 1.367 . S
C516 C524 1.378 . S
C517 C516 1.367 . S
C517 C525 1.433 . S
C518 H514 0.929 . S
C518 C520 1.378 . S
C518 C522 1.350 . S
C519 C522 1.463 1_455 S
C519 C524 1.350 . S
C519 N527 1.427 . S
C520 H511 0.930 . S
C520 C518 1.378 . S
C520 C521 1.367 . S
C521 C520 1.367 . S
C521 C523 1.433 . S
C522 C518 1.350 . S
C522 C519 1.463 1_655 S
C522 N526 1.427 . S
C523 H513 0.929 . S
C523 C521 1.433 . S
C523 N526 1.384 . S
C524 H515 0.929 . S
C524 C516 1.378 . S
C524 C519 1.350 . S
C525 H512 0.929 . S
C525 C517 1.433 . S
C525 N527 1.384 . S
N526 C522 1.427 . S
N526 C523 1.384 . S
N527 C519 1.427 . S
N527 C525 1.384 . S
H528 C534 0.930 . S
H529 C538 0.930 . S
H530 C543 0.929 . S
H531 C541 0.929 . S
H532 C536 0.929 . S
H533 C542 0.929 . S
C534 H528 0.930 . S
C534 C535 1.367 . S
C534 C542 1.378 . S
C535 C534 1.367 . S
C535 C543 1.433 . S
C536 H532 0.929 . S
C536 C538 1.378 . S
C536 C540 1.350 . S
C537 C540 1.463 1_565 S
C537 C542 1.350 . S
C537 N545 1.427 . S
C538 H529 0.930 . S
C538 C536 1.378 . S
C538 C539 1.367 . S
C539 C538 1.367 . S
C539 C541 1.433 . S
C540 C536 1.350 . S
C540 C537 1.463 1_545 S
C540 N544 1.427 . S
C541 H531 0.929 . S
C541 C539 1.433 . S
C541 N544 1.384 . S
C542 H533 0.929 . S
C542 C534 1.378 . S
C542 C537 1.350 . S
C543 H530 0.929 . S
C543 C535 1.433 . S
C543 N545 1.384 . S
N544 C540 1.427 . S
N544 C541 1.384 . S
N545 C537 1.427 . S
N545 C543 1.384 . S
H546 C552 0.930 . S
H547 C556 0.930 . S
H548 C561 0.929 . S
H549 C559 0.929 . S
H550 C554 0.929 . S
H551 C560 0.929 . S
C552 H546 0.930 . S
C552 C553 1.367 . S
C552 C560 1.378 . S
C553 C552 1.367 . S
C553 C561 1.433 . S
C554 H550 0.929 . S
C554 C556 1.378 . S
C554 C558 1.350 . S
C555 C558 1.463 . S
C555 C560 1.350 . S
C555 N563 1.427 . S
C556 H547 0.930 . S
C556 C554 1.378 . S
C556 C557 1.367 . S
C557 C556 1.367 . S
C557 C559 1.433 . S
C558 C554 1.350 . S
C558 C555 1.463 . S
C558 N562 1.427 . S
C559 H549 0.929 . S
C559 C557 1.433 . S
C559 N562 1.384 . S
C560 H551 0.929 . S
C560 C552 1.378 . S
C560 C555 1.350 . S
C561 H548 0.929 . S
C561 C553 1.433 . S
C561 N563 1.384 . S
N562 C558 1.427 . S
N562 C559 1.384 . S
N563 C555 1.427 . S
N563 C561 1.384 . S
H564 C570 0.930 . S
H565 C574 0.930 1_554 S
H566 C579 0.929 1_554 S
H567 C577 0.929 . S
H568 C572 0.929 1_554 S
H569 C578 0.929 . S
C570 H564 0.930 . S
C570 C571 1.367 . S
C570 C578 1.378 . S
C571 C570 1.367 . S
C571 C579 1.433 . S
C572 H568 0.929 1_556 S
C572 C574 1.378 . S
C572 C576 1.350 . S
C573 C576 1.463 1_655 S
C573 C578 1.350 . S
C573 N581 1.427 . S
C574 H565 0.930 1_556 S
C574 C572 1.378 . S
C574 C575 1.367 . S
C575 C574 1.367 . S
C575 C577 1.433 . S
C576 C572 1.350 . S
C576 C573 1.463 1_455 S
C576 N580 1.427 . S
C577 H567 0.929 . S
C577 C575 1.433 . S
C577 N580 1.384 . S
C578 H569 0.929 . S
C578 C570 1.378 . S
C578 C573 1.350 . S
C579 H566 0.929 1_556 S
C579 C571 1.433 . S
C579 N581 1.384 . S
N580 C576 1.427 . S
N580 C577 1.384 . S
N581 C573 1.427 . S
N581 C579 1.384 . S
H582 C588 0.930 . S
H583 C592 0.930 . S
H584 C597 0.929 . S
H585 C595 0.929 . S
H586 C590 0.929 . S
H587 C596 0.929 . S
C588 H582 0.930 . S
C588 C589 1.367 . S
C588 C596 1.378 . S
C589 C588 1.367 . S
C589 C597 1.433 1_545 S
C590 H586 0.929 . S
C590 C592 1.378 . S
C590 C594 1.350 . S
C591 C594 1.463 1_545 S
C591 C596 1.350 . S
C591 N599 1.427 1_545 S
C592 H583 0.930 . S
C592 C590 1.378 . S
C592 C593 1.367 . S
C593 C592 1.367 . S
C593 C595 1.433 1_565 S
C594 C590 1.350 . S
C594 C591 1.463 1_565 S
C594 N598 1.427 1_565 S
C595 H585 0.929 . S
C595 C593 1.433 1_545 S
C595 N598 1.384 . S
C596 H587 0.929 . S
C596 C588 1.378 . S
C596 C591 1.350 . S
C597 H584 0.929 . S
C597 C589 1.433 1_565 S
C597 N599 1.384 . S
N598 C594 1.427 1_545 S
N598 C595 1.384 . S
N599 C591 1.427 1_565 S
N599 C597 1.384 . S
C175 C3 1.499 . S
C179 C129 1.493 . S
C193 C17 1.496 . S
C197 C143 1.489 . S
C211 C31 1.494 . S
C215 C157 1.500 . S
C229 C45 1.489 . S
C233 C87 1.493 . S
C247 C101 1.496 . S
C251 C59 1.499 . S
C265 C115 1.492 . S
C269 C73 1.499 . S
C283 C148 1.582 . S
C287 C8 1.583 . S
C301 C22 1.584 . S
C305 C162 1.582 . S
C319 C36 1.585 . S
C323 C92 1.587 . S
C337 C50 1.584 . S
C341 C106 1.582 . S
C355 C64 1.587 . S
C359 C120 1.587 . S
C373 C78 1.586 . S
C377 C134 1.583 . S
C391 C133 0.752 . S
C395 C7 0.734 . S
C409 C21 0.746 . S
C413 C147 0.739 . S
C427 C35 0.748 . S
C431 C161 0.739 . S
C445 C91 0.749 . S
C449 C49 0.737 . S
C463 C63 0.752 . S
C467 C105 0.734 . S
C481 C119 0.738 . S
C485 C77 0.747 . S
C499 C9 1.516 . S
C503 C51 1.516 . S
C517 C65 1.514 . S
C521 C23 1.515 . S
C535 C37 1.514 . S
C539 C79 1.513 . S
C553 C93 1.516 . S
C557 C135 1.515 . S
C571 C107 1.514 . S
C575 C149 1.514 . S
C589 C163 1.518 . S
C593 C121 1.518 . S
