# Generated by pormake.
# Topology wjg, (4)-cn, num edge types: 1
# Building blocks:
#     Node 0, Type 0, BuildingBlock: KUFVIS_clean_sbu_0, # of connection points: 4
#     Node 1, Type 0, BuildingBlock: KUFVIS_clean_sbu_0, # of connection points: 4
#     Node 2, Type 0, BuildingBlock: KUFVIS_clean_sbu_0, # of connection points: 4
#     Node 3, Type 0, BuildingBlock: KUFVIS_clean_sbu_0, # of connection points: 4
#     Node 4, Type 0, BuildingBlock: KUFVIS_clean_sbu_0, # of connection points: 4
#     Node 5, Type 0, BuildingBlock: KUFVIS_clean_sbu_0, # of connection points: 4
#     Node 6, Type 0, BuildingBlock: KUFVIS_clean_sbu_0, # of connection points: 4
#     Node 7, Type 0, BuildingBlock: KUFVIS_clean_sbu_0, # of connection points: 4
#     Node 8, Type 0, BuildingBlock: KUFVIS_clean_sbu_0, # of connection points: 4
#     Node 9, Type 0, BuildingBlock: KUFVIS_clean_sbu_0, # of connection points: 4
#     Node 10, Type 0, BuildingBlock: KUFVIS_clean_sbu_0, # of connection points: 4
#     Node 11, Type 0, BuildingBlock: KUFVIS_clean_sbu_0, # of connection points: 4
#     Edge 12, Type (0, 0), BuildingBlock: EYOCIG_clean_linker_4, # of connection points: 2
#     Edge 13, Type (0, 0), BuildingBlock: EYOCIG_clean_linker_4, # of connection points: 2
#     Edge 14, Type (0, 0), BuildingBlock: EYOCIG_clean_linker_4, # of connection points: 2
#     Edge 15, Type (0, 0), BuildingBlock: EYOCIG_clean_linker_4, # of connection points: 2
#     Edge 16, Type (0, 0), BuildingBlock: EYOCIG_clean_linker_4, # of connection points: 2
#     Edge 17, Type (0, 0), BuildingBlock: EYOCIG_clean_linker_4, # of connection points: 2
#     Edge 18, Type (0, 0), BuildingBlock: EYOCIG_clean_linker_4, # of connection points: 2
#     Edge 19, Type (0, 0), BuildingBlock: EYOCIG_clean_linker_4, # of connection points: 2
#     Edge 20, Type (0, 0), BuildingBlock: EYOCIG_clean_linker_4, # of connection points: 2
#     Edge 21, Type (0, 0), BuildingBlock: EYOCIG_clean_linker_4, # of connection points: 2
#     Edge 22, Type (0, 0), BuildingBlock: EYOCIG_clean_linker_4, # of connection points: 2
#     Edge 23, Type (0, 0), BuildingBlock: EYOCIG_clean_linker_4, # of connection points: 2
#     Edge 24, Type (0, 0), BuildingBlock: EYOCIG_clean_linker_4, # of connection points: 2
#     Edge 25, Type (0, 0), BuildingBlock: EYOCIG_clean_linker_4, # of connection points: 2
#     Edge 26, Type (0, 0), BuildingBlock: EYOCIG_clean_linker_4, # of connection points: 2
#     Edge 27, Type (0, 0), BuildingBlock: EYOCIG_clean_linker_4, # of connection points: 2
#     Edge 28, Type (0, 0), BuildingBlock: EYOCIG_clean_linker_4, # of connection points: 2
#     Edge 29, Type (0, 0), BuildingBlock: EYOCIG_clean_linker_4, # of connection points: 2
#     Edge 30, Type (0, 0), BuildingBlock: EYOCIG_clean_linker_4, # of connection points: 2
#     Edge 31, Type (0, 0), BuildingBlock: EYOCIG_clean_linker_4, # of connection points: 2
#     Edge 32, Type (0, 0), BuildingBlock: EYOCIG_clean_linker_4, # of connection points: 2
#     Edge 33, Type (0, 0), BuildingBlock: EYOCIG_clean_linker_4, # of connection points: 2
#     Edge 34, Type (0, 0), BuildingBlock: EYOCIG_clean_linker_4, # of connection points: 2
#     Edge 35, Type (0, 0), BuildingBlock: EYOCIG_clean_linker_4, # of connection points: 2
# Relax obj value: 0.311
# Max RMSD: 0.127
# Mean RMSD: 0.118
data_MOF--net-wjg--node1-KUFVIS_clean_sbu_0--edge1-EYOCIG_clean_linker_4
_symmetry_space_group_name_H-M    P1
_symmetry_Int_Tables_number       1
_symmetry_cell_setting            triclinic
loop_
_symmetry_equiv_pos_as_xyz
'x, y, z'
_cell_length_a     24.677907
_cell_length_b     24.507266
_cell_length_c     31.964009
_cell_angle_alpha  90.089028
_cell_angle_beta   89.948516
_cell_angle_gamma 120.23601
loop_
_atom_site_label
_atom_site_type_symbol
_atom_site_fract_x
_atom_site_fract_y
_atom_site_fract_z
_atom_type_partial_charge
Mn0 Mn 0.12125 0.38198 0.34705 0.0
Mn1 Mn 0.26165 0.41327 0.40807 0.0
C2 C 0.14478 0.30139 0.35933 0.0
C3 C 0.07781 0.37709 0.27811 0.0
C4 C 0.13547 0.39553 0.42865 0.0
O5 O 0.18489 0.47859 0.34948 0.0
O6 O 0.27894 0.49 0.37508 0.0
C7 C 0.39397 0.47323 0.36549 0.0
N8 N 0.35211 0.42991 0.4037 0.0
C9 C 0.331 0.30459 0.38554 0.0
C10 C 0.35716 0.31792 0.33865 0.0
C11 C 0.40786 0.43775 0.32151 0.0
C12 C 0.33061 0.35955 0.41509 0.0
H13 H 0.403 0.52094 0.36312 0.0
C14 C 0.2442 0.51094 0.35896 0.0
O15 O 0.05344 0.38438 0.31201 0.0
O16 O 0.13034 0.37783 0.28347 0.0
N17 N 0.23951 0.33931 0.443 0.0
C18 C 0.18141 0.29321 0.45627 0.0
C19 C 0.17344 0.23875 0.47636 0.0
C20 C 0.22403 0.22953 0.48155 0.0
C21 C 0.28034 0.27174 0.46268 0.0
C22 C 0.28768 0.32903 0.44549 0.0
H23 H 0.13997 0.29545 0.4498 0.0
O24 O 0.0893 0.2886 0.34736 0.0
O25 O 0.18409 0.36027 0.36873 0.0
O26 O 0.08765 0.38264 0.40781 0.0
O27 O 0.17811 0.39724 0.40687 0.0
C28 C 0.31753 0.24734 0.44842 0.0
C29 C 0.33661 0.25877 0.40725 0.0
H30 H 0.37065 0.34472 0.32918 0.0
H31 H 0.43295 0.46597 0.29416 0.0
H32 H 0.12731 0.2014 0.485 0.0
H33 H 0.21602 0.18463 0.49356 0.0
H34 H 0.31794 0.20833 0.46403 0.0
H35 H 0.35875 0.23485 0.39344 0.0
Mn36 Mn 0.74573 0.1245 0.67966 0.0
Mn37 Mn 0.85752 0.27141 0.73628 0.0
C38 C 0.85052 0.15171 0.68914 0.0
C39 C 0.70534 0.07669 0.60936 0.0
C40 C 0.75676 0.14625 0.76232 0.0
O41 O 0.71 0.18522 0.6821 0.0
O42 O 0.7919 0.28247 0.7061 0.0
C43 C 0.91613 0.38885 0.68964 0.0
N44 N 0.92397 0.36414 0.73578 0.0
C45 C 0.04794 0.36613 0.73249 0.0
C46 C 0.05846 0.37612 0.67999 0.0
C47 C 0.96822 0.39843 0.64669 0.0
C48 C 0.98194 0.35909 0.75729 0.0
H49 H 0.87349 0.38894 0.68257 0.0
C50 C 0.7357 0.24501 0.69103 0.0
O51 O 0.67549 0.05231 0.64403 0.0
O52 O 0.75558 0.1311 0.61484 0.0
N53 N 0.91403 0.25411 0.76926 0.0
C54 C 0.90567 0.19531 0.77735 0.0
C55 C 0.94966 0.1874 0.79959 0.0
C56 C 0.00478 0.23965 0.81258 0.0
C57 C 0.01669 0.2997 0.80158 0.0
C58 C 0.96777 0.3063 0.78115 0.0
H59 H 0.86458 0.15284 0.76762 0.0
O60 O 0.80746 0.09483 0.67905 0.0
O61 O 0.83184 0.19213 0.69812 0.0
O62 O 0.71901 0.09563 0.74388 0.0
O63 O 0.79199 0.18685 0.73678 0.0
C64 C 0.08033 0.34562 0.79631 0.0
C65 C 0.09691 0.37495 0.75785 0.0
H66 H 0.10183 0.38487 0.66912 0.0
H67 H 0.96295 0.41364 0.61563 0.0
H68 H 0.9417 0.14044 0.80547 0.0
H69 H 0.04107 0.23255 0.82613 0.0
H70 H 0.11675 0.34369 0.81409 0.0
H71 H 0.14453 0.39638 0.74624 0.0
Mn72 Mn 0.61718 0.74168 1.00261 0.0
Mn73 Mn 0.58806 0.83669 0.06742 0.0
C74 C 0.69406 0.84532 0.01527 0.0
C75 C 0.62288 0.70097 0.93448 0.0
C76 C 0.60911 0.73523 0.09744 0.0
O77 O 0.51972 0.69775 1.00558 0.0
O78 O 0.50804 0.77054 0.04299 0.0
C79 C 0.52117 0.88107 0.01177 0.0
N80 N 0.57809 0.90032 0.04287 0.0
C81 C 0.65474 0.03317 0.03743 0.0
C82 C 0.57104 0.01723 0.97962 0.0
C83 C 0.51323 0.93323 0.97842 0.0
C84 C 0.63614 0.96323 0.0577 0.0
H85 H 0.5039 0.8991 0.98988 0.0
C86 C 0.48622 0.7196 0.02144 0.0
O87 O 0.61966 0.67178 0.96904 0.0
O88 O 0.61805 0.75093 0.93899 0.0
N89 N 0.66608 0.90191 0.09272 0.0
C90 C 0.71051 0.89486 0.11362 0.0
C91 C 0.76384 0.94764 0.13025 0.0
C92 C 0.77256 0.00788 0.1243 0.0
C93 C 0.72956 0.015 0.10004 0.0
C94 C 0.67643 0.96023 0.08486 0.0
H95 H 0.70684 0.84957 0.11651 0.0
O96 O 0.70862 0.80398 1.0027 0.0
O97 O 0.63474 0.82612 0.0201 0.0
O98 O 0.62455 0.71687 0.06442 0.0
O99 O 0.59162 0.77476 0.09741 0.0
C100 C 0.74143 0.07527 0.08932 0.0
C101 C 0.7073 0.08505 0.0587 0.0
H102 H 0.57668 0.05987 0.95621 0.0
H103 H 0.53868 0.98108 0.97305 0.0
H104 H 0.79873 0.94192 0.147 0.0
H105 H 0.81433 0.04868 0.13655 0.0
H106 H 0.78111 0.11654 0.10308 0.0
H107 H 0.72386 0.13452 0.05376 0.0
Mn108 Mn 0.87447 0.61738 0.34695 0.0
Mn109 Mn 0.7337 0.58687 0.40741 0.0
C110 C 0.85162 0.69848 0.35887 0.0
C111 C 0.91826 0.62235 0.27819 0.0
C112 C 0.8584 0.6032 0.42805 0.0
O113 O 0.81006 0.52089 0.34876 0.0
O114 O 0.71607 0.51014 0.37403 0.0
C115 C 0.60084 0.52647 0.3661 0.0
N116 N 0.64303 0.56966 0.40425 0.0
C117 C 0.66464 0.6952 0.3865 0.0
C118 C 0.63828 0.682 0.33964 0.0
C119 C 0.58694 0.56207 0.32233 0.0
C120 C 0.66483 0.64005 0.41583 0.0
H121 H 0.59152 0.47867 0.36368 0.0
C122 C 0.75057 0.48891 0.35781 0.0
O123 O 0.94213 0.61446 0.31208 0.0
O124 O 0.86593 0.62209 0.28342 0.0
N125 N 0.75629 0.66066 0.44278 0.0
C126 C 0.81456 0.70695 0.45566 0.0
C127 C 0.82266 0.76139 0.47597 0.0
C128 C 0.77195 0.77023 0.48196 0.0
C129 C 0.7153 0.72769 0.46361 0.0
C130 C 0.70794 0.67049 0.4461 0.0
H131 H 0.85597 0.70478 0.44876 0.0
O132 O 0.90722 0.71096 0.34739 0.0
O133 O 0.81208 0.63971 0.36853 0.0
O134 O 0.9068 0.61571 0.408 0.0
O135 O 0.81714 0.603 0.40559 0.0
C136 C 0.67784 0.7519 0.44973 0.0
C137 C 0.65888 0.74079 0.40854 0.0
H138 H 0.62466 0.65523 0.33016 0.0
H139 H 0.5616 0.53386 0.295 0.0
H140 H 0.8689 0.79903 0.48414 0.0
H141 H 0.77997 0.81511 0.4941 0.0
H142 H 0.67728 0.79072 0.46559 0.0
H143 H 0.63639 0.76451 0.39512 0.0
Mn144 Mn 0.24868 0.87447 0.67951 0.0
Mn145 Mn 0.13596 0.72683 0.73543 0.0
C146 C 0.14413 0.84819 0.68995 0.0
C147 C 0.28839 0.9217 0.60897 0.0
C148 C 0.23818 0.85095 0.76162 0.0
O149 O 0.28349 0.81301 0.68097 0.0
O150 O 0.20123 0.71578 0.70452 0.0
C151 C 0.07787 0.6093 0.68982 0.0
N152 N 0.07018 0.6339 0.73611 0.0
C153 C 0.94624 0.6321 0.73318 0.0
C154 C 0.93564 0.62226 0.68065 0.0
C155 C 0.02582 0.60004 0.64698 0.0
C156 C 0.0123 0.63903 0.75782 0.0
H157 H 0.1203 0.60882 0.6827 0.0
C158 C 0.25748 0.75313 0.6895 0.0
O159 O 0.31887 0.94593 0.64348 0.0
O160 O 0.23763 0.86782 0.61472 0.0
N161 N 0.0804 0.74421 0.76955 0.0
C162 C 0.08969 0.80313 0.77859 0.0
C163 C 0.04586 0.81127 0.80093 0.0
C164 C 0.99026 0.75916 0.81339 0.0
C165 C 0.97796 0.69904 0.80213 0.0
C166 C 0.02665 0.69214 0.78154 0.0
H167 H 0.13109 0.84551 0.76914 0.0
O168 O 0.18724 0.90494 0.67969 0.0
O169 O 0.163 0.80797 0.69897 0.0
O170 O 0.27644 0.90202 0.74381 0.0
O171 O 0.20164 0.81164 0.73571 0.0
C172 C 0.91424 0.65328 0.79697 0.0
C173 C 0.89742 0.62353 0.75862 0.0
H174 H 0.89196 0.61283 0.66991 0.0
H175 H 0.03091 0.58474 0.61586 0.0
H176 H 0.05426 0.85831 0.80722 0.0
H177 H 0.9541 0.76652 0.82695 0.0
H178 H 0.87797 0.65551 0.8148 0.0
H179 H 0.84978 0.60219 0.74708 0.0
Mn180 Mn 0.37806 0.25759 1.00266 0.0
Mn181 Mn 0.40727 0.16296 0.06782 0.0
C182 C 0.30099 0.15399 0.01611 0.0
C183 C 0.37178 0.29746 0.93427 0.0
C184 C 0.38711 0.26533 0.0976 0.0
O185 O 0.47544 0.30112 1.00493 0.0
O186 O 0.4872 0.22915 0.04313 0.0
C187 C 0.47382 0.11833 0.01182 0.0
N188 N 0.41718 0.09924 0.04316 0.0
C189 C 0.34035 0.96635 0.03773 0.0
C190 C 0.42363 0.98204 0.97956 0.0
C191 C 0.48146 0.06602 0.9783 0.0
C192 C 0.35917 0.03639 0.05809 0.0
H193 H 0.49092 0.1002 0.9898 0.0
C194 C 0.50896 0.27958 0.02109 0.0
O195 O 0.37557 0.32722 0.96874 0.0
O196 O 0.37616 0.24731 0.93901 0.0
N197 N 0.32962 0.0979 0.09343 0.0
C198 C 0.2859 0.10526 0.11512 0.0
C199 C 0.23252 0.05256 0.13168 0.0
C200 C 0.22332 0.99219 0.12525 0.0
C201 C 0.26599 0.98486 0.10067 0.0
C202 C 0.31906 0.03952 0.08539 0.0
H203 H 0.29035 0.15083 0.11887 0.0
O204 O 0.28648 0.1953 1.00349 0.0
O205 O 0.36033 0.17318 0.02062 0.0
O206 O 0.37237 0.28409 0.06449 0.0
O207 O 0.40302 0.2246 0.09771 0.0
C208 C 0.25388 0.92452 0.08978 0.0
C209 C 0.28777 0.91457 0.05899 0.0
H210 H 0.41786 0.9393 0.95611 0.0
H211 H 0.45593 0.01815 0.97294 0.0
H212 H 0.19805 0.05846 0.14891 0.0
H213 H 0.18155 0.95147 0.13753 0.0
H214 H 0.2142 0.88333 0.10358 0.0
H215 H 0.27098 0.86507 0.05387 0.0
Mn216 Mn 0.62063 0.87293 0.34413 0.0
Mn217 Mn 0.58434 0.72739 0.28603 0.0
C218 C 0.69753 0.8451 0.33359 0.0
C219 C 0.62837 0.92082 0.41451 0.0
C220 C 0.60975 0.85313 0.26076 0.0
O221 O 0.52417 0.81307 0.34196 0.0
O222 O 0.50793 0.71613 0.31668 0.0
C223 C 0.52701 0.61057 0.33436 0.0
N224 N 0.55952 0.63515 0.28817 0.0
C225 C 0.68146 0.63319 0.29123 0.0
C226 C 0.68202 0.62324 0.3437 0.0
C227 C 0.56951 0.60095 0.37718 0.0
C228 C 0.62249 0.64018 0.26655 0.0
H229 H 0.48449 0.61084 0.34159 0.0
C230 C 0.4897 0.75348 0.33266 0.0
O231 O 0.62326 0.94539 0.37985 0.0
O232 O 0.62399 0.86632 0.40897 0.0
N233 N 0.65846 0.74463 0.2533 0.0
C234 C 0.70895 0.80341 0.24517 0.0
C235 C 0.76109 0.81129 0.22317 0.0
C236 C 0.76421 0.75903 0.21055 0.0
C237 C 0.71623 0.69905 0.22181 0.0
C238 C 0.66059 0.69247 0.24213 0.0
H239 H 0.71032 0.8459 0.25485 0.0
O240 O 0.71163 0.90198 0.344 0.0
O241 O 0.63817 0.8042 0.32585 0.0
O242 O 0.62328 0.90321 0.28012 0.0
O243 O 0.60291 0.81141 0.28551 0.0
C244 C 0.73415 0.65334 0.22728 0.0
C245 C 0.72165 0.62439 0.26585 0.0
H246 H 0.7177 0.61634 0.35466 0.0
H247 H 0.54924 0.58625 0.40836 0.0
H248 H 0.80009 0.85824 0.21724 0.0
H249 H 0.80774 0.76616 0.19714 0.0
H250 H 0.7725 0.65523 0.20946 0.0
H251 H 0.74801 0.60318 0.27747 0.0
Mn252 Mn 0.73922 0.61675 0.67647 0.0
Mn253 Mn 0.84688 0.58478 0.61462 0.0
C254 C 0.8431 0.69701 0.66351 0.0
C255 C 0.70167 0.62235 0.74556 0.0
C256 C 0.738 0.60292 0.59444 0.0
O257 O 0.70573 0.52012 0.67429 0.0
O258 O 0.7877 0.50824 0.64792 0.0
C259 C 0.91997 0.52563 0.65783 0.0
N260 N 0.92125 0.56916 0.61981 0.0
C261 C 0.02515 0.69451 0.63816 0.0
C262 C 0.03818 0.68092 0.68488 0.0
C263 C 0.9695 0.561 0.70176 0.0
C264 C 0.96982 0.63966 0.60862 0.0
H265 H 0.88128 0.47792 0.66017 0.0
C266 C 0.7324 0.48757 0.66463 0.0
O267 O 0.66965 0.61494 0.71187 0.0
O268 O 0.75327 0.62131 0.73993 0.0
N269 N 0.89875 0.65869 0.57965 0.0
C270 C 0.8864 0.7043 0.56589 0.0
C271 C 0.93301 0.75908 0.54611 0.0
C272 C 0.99322 0.76907 0.54164 0.0
C273 C 0.00748 0.72733 0.56093 0.0
C274 C 0.95757 0.66987 0.57798 0.0
H275 H 0.84242 0.70162 0.57191 0.0
O276 O 0.8005 0.70989 0.67559 0.0
O277 O 0.82361 0.63805 0.65455 0.0
O278 O 0.70402 0.6161 0.61614 0.0
O279 O 0.77907 0.60031 0.61537 0.0
C280 C 0.069 0.75206 0.57535 0.0
C281 C 0.07654 0.74051 0.61647 0.0
H282 H 0.02497 0.65403 0.69424 0.0
H283 H 0.96654 0.53271 0.72901 0.0
H284 H 0.92396 0.79612 0.53723 0.0
H285 H 0.03005 0.81414 0.52978 0.0
H286 H 0.10843 0.79116 0.55978 0.0
H287 H 0.12261 0.76434 0.6302 0.0
Mn288 Mn 0.12017 0.7413 0.02058 0.0
Mn289 Mn 0.24384 0.83663 0.95559 0.0
C290 C 0.14634 0.84485 1.00757 0.0
C291 C 0.07381 0.7008 0.08871 0.0
C292 C 0.12157 0.73402 0.9257 0.0
O293 O 0.17422 0.69805 0.01808 0.0
O294 O 0.25776 0.77037 0.97987 0.0
C295 C 0.35506 0.88105 1.01144 0.0
N296 N 0.3174 0.90022 0.98032 0.0
C297 C 0.3736 0.03309 0.98583 0.0
C298 C 0.44148 0.01732 0.04362 0.0
C299 C 0.41523 0.93332 0.0448 0.0
C300 C 0.3222 0.96309 0.96555 0.0
H301 H 0.39039 0.89915 0.03335 0.0
C302 C 0.22925 0.7198 1.00179 0.0
O303 O 0.04828 0.67137 0.05414 0.0
O304 O 0.1283 0.7513 0.08431 0.0
N305 N 0.23107 0.90167 0.93031 0.0
C306 C 0.18012 0.89427 0.90849 0.0
C307 C 0.1794 0.947 0.89207 0.0
C308 C 0.23043 0.00739 0.89872 0.0
C309 C 0.28039 0.01469 0.92327 0.0
C310 C 0.27882 0.96002 0.93844 0.0
H311 H 0.13919 0.84861 0.90442 0.0
O312 O 0.09047 0.80326 0.01998 0.0
O313 O 0.18668 0.82593 1.00291 0.0
O314 O 0.08796 0.71466 0.95876 0.0
O315 O 0.17798 0.77531 0.92576 0.0
C316 C 0.32871 0.075 0.9341 0.0
C317 C 0.37278 0.08489 0.96466 0.0
H318 H 0.47853 0.06003 0.06703 0.0
H319 H 0.43767 0.9812 0.05017 0.0
H320 H 0.13915 0.9411 0.87473 0.0
H321 H 0.22939 0.04813 0.8865 0.0
H322 H 0.33024 0.11621 0.92037 0.0
H323 H 0.40567 0.13438 0.96966 0.0
Mn324 Mn 0.37361 0.12388 0.34355 0.0
Mn325 Mn 0.4078 0.27178 0.28819 0.0
C326 C 0.29507 0.15005 0.3341 0.0
C327 C 0.36631 0.07642 0.41394 0.0
C328 C 0.38594 0.14789 0.26166 0.0
O329 O 0.46997 0.18566 0.34168 0.0
O330 O 0.48441 0.28288 0.3186 0.0
C331 C 0.46836 0.38987 0.33304 0.0
N332 N 0.43559 0.3649 0.28694 0.0
C333 C 0.31329 0.36629 0.2906 0.0
C334 C 0.31299 0.37627 0.34311 0.0
C335 C 0.42586 0.39915 0.37617 0.0
C336 C 0.37231 0.35955 0.2656 0.0
H337 H 0.51146 0.39061 0.33987 0.0
C338 C 0.50365 0.2456 0.33315 0.0
O339 O 0.37257 0.05232 0.37934 0.0
O340 O 0.36954 0.13036 0.40835 0.0
N341 N 0.33472 0.25427 0.25431 0.0
C342 C 0.28491 0.19535 0.24552 0.0
C343 C 0.23304 0.18724 0.22312 0.0
C344 C 0.22977 0.23938 0.21047 0.0
C345 C 0.27771 0.2995 0.22161 0.0
C346 C 0.3333 0.30634 0.24208 0.0
H347 H 0.28385 0.15298 0.25507 0.0
O348 O 0.28161 0.09325 0.344 0.0
O349 O 0.35401 0.19019 0.32445 0.0
O350 O 0.37348 0.09671 0.27915 0.0
O351 O 0.38849 0.18686 0.28786 0.0
C352 C 0.25982 0.34528 0.22696 0.0
C353 C 0.27281 0.37481 0.26541 0.0
H354 H 0.27794 0.38414 0.35421 0.0
H355 H 0.44641 0.41434 0.40724 0.0
H356 H 0.19432 0.14021 0.21693 0.0
H357 H 0.18629 0.23208 0.19693 0.0
H358 H 0.22128 0.34313 0.20928 0.0
H359 H 0.24653 0.39608 0.27715 0.0
Mn360 Mn 0.25549 0.38177 0.67625 0.0
Mn361 Mn 0.14694 0.41323 0.61486 0.0
C362 C 0.15155 0.30124 0.66341 0.0
C363 C 0.29347 0.3764 0.74529 0.0
C364 C 0.25558 0.39542 0.59454 0.0
O365 O 0.28858 0.47841 0.67408 0.0
O366 O 0.20623 0.48993 0.64808 0.0
C367 C 0.07408 0.47284 0.6576 0.0
N368 N 0.0729 0.42954 0.6194 0.0
C369 C 0.96897 0.3041 0.63734 0.0
C370 C 0.95595 0.31739 0.6842 0.0
C371 C 0.02457 0.43727 0.70149 0.0
C372 C 0.0243 0.35914 0.60794 0.0
H373 H 0.11279 0.5205 0.66009 0.0
C374 C 0.26175 0.51082 0.66448 0.0
O375 O 0.32539 0.38391 0.7115 0.0
O376 O 0.24178 0.37729 0.7398 0.0
N377 N 0.09521 0.33927 0.57976 0.0
C378 C 0.10725 0.29321 0.56642 0.0
C379 C 0.0607 0.2386 0.54638 0.0
C380 C 0.00084 0.22928 0.54123 0.0
C381 C 0.98676 0.27154 0.56007 0.0
C382 C 0.03671 0.32884 0.57737 0.0
H383 H 0.15099 0.29555 0.57285 0.0
O384 O 0.19419 0.28845 0.67548 0.0
O385 O 0.17105 0.36016 0.65434 0.0
O386 O 0.29023 0.38252 0.61565 0.0
O387 O 0.21457 0.3974 0.61603 0.0
C388 C 0.92516 0.2472 0.57424 0.0
C389 C 0.91749 0.25852 0.61544 0.0
H390 H 0.96914 0.34421 0.69368 0.0
H391 H 0.02753 0.46546 0.72886 0.0
H392 H 0.0695 0.20125 0.53774 0.0
H393 H 0.96393 0.18431 0.52924 0.0
H394 H 0.88571 0.20831 0.55851 0.0
H395 H 0.87134 0.2348 0.62907 0.0
Mn396 Mn 0.87457 0.25757 0.02076 0.0
Mn397 Mn 0.75098 0.16278 0.95551 0.0
C398 C 0.84808 0.15409 1.00783 0.0
C399 C 0.92086 0.29866 0.08895 0.0
C400 C 0.87387 0.26422 0.92581 0.0
O401 O 0.82122 0.30163 0.01748 0.0
O402 O 0.73703 0.22892 0.97989 0.0
C403 C 0.6398 0.11833 1.01142 0.0
N404 N 0.67731 0.09911 0.98011 0.0
C405 C 0.62116 0.96625 0.98551 0.0
C406 C 0.55367 0.98216 0.04366 0.0
C407 C 0.57987 0.06616 0.04493 0.0
C408 C 0.67238 0.0362 0.96517 0.0
H409 H 0.6046 0.10029 0.03342 0.0
C410 C 0.76604 0.27987 1.00143 0.0
O411 O 0.94654 0.3274 0.0543 0.0
O412 O 0.86596 0.24851 0.08466 0.0
N413 N 0.76374 0.09753 0.93016 0.0
C414 C 0.8152 0.10457 0.90917 0.0
C415 C 0.8157 0.05179 0.89248 0.0
C416 C 0.7641 0.99157 0.89837 0.0
C417 C 0.71396 0.98444 0.92268 0.0
C418 C 0.71565 0.03921 0.93794 0.0
H419 H 0.85685 0.14985 0.90627 0.0
O420 O 0.90375 0.19531 0.0208 0.0
O421 O 0.80798 0.17327 1.00291 0.0
O422 O 0.90729 0.28247 0.95899 0.0
O423 O 0.81676 0.22478 0.92557 0.0
C424 C 0.66559 0.92416 0.93344 0.0
C425 C 0.62181 0.91437 0.96421 0.0
H426 H 0.51673 0.93951 0.06711 0.0
H427 H 0.5575 0.01831 0.05029 0.0
H428 H 0.85632 0.0575 0.8757 0.0
H429 H 0.76504 0.95076 0.88608 0.0
H430 H 0.66399 0.8829 0.91964 0.0
H431 H 0.58905 0.86488 0.9693 0.0
C432 C 0.31237 0.63231 0.34808 0.0
C433 C 0.27538 0.57706 0.35136 0.0
C434 C 0.36928 0.689 0.34466 0.0
C435 C 0.42437 0.7249 0.34091 0.0
C436 C 0.67971 0.30972 0.68018 0.0
C437 C 0.69886 0.27372 0.68351 0.0
C438 C 0.67952 0.36643 0.67668 0.0
C439 C 0.69769 0.4216 0.67291 0.0
C440 C 0.36547 0.67724 0.01189 0.0
C441 C 0.41956 0.68917 0.01327 0.0
C442 C 0.30776 0.6775 1.01134 0.0
C443 C 0.2658 0.68971 1.00994 0.0
C444 C 0.62462 0.31088 0.34298 0.0
C445 C 0.56942 0.27462 0.34009 0.0
C446 C 0.68163 0.36767 0.34602 0.0
C447 C 0.71893 0.42282 0.3497 0.0
C448 C 0.31374 0.68861 0.67856 0.0
C449 C 0.2943 0.72437 0.68195 0.0
C450 C 0.31452 0.63215 0.67547 0.0
C451 C 0.29663 0.57696 0.67222 0.0
C452 C 0.68773 0.32241 1.0106 0.0
C453 C 0.72984 0.31039 1.00939 0.0
C454 C 0.62976 0.32213 1.01113 0.0
C455 C 0.57556 0.30983 0.01268 0.0
C456 C 0.18282 0.22065 0.3484 0.0
C457 C 0.16463 0.25698 0.35324 0.0
C458 C 0.21351 0.18734 0.34021 0.0
C459 C 0.24924 0.16821 0.33775 0.0
C460 C 0.96909 0.18797 0.68321 0.0
C461 C 0.91442 0.16964 0.68564 0.0
C462 C 0.03293 0.22068 0.67473 0.0
C463 C 0.08739 0.25693 0.66972 0.0
C464 C 0.80894 0.03273 1.00962 0.0
C465 C 0.82867 0.08856 1.00909 0.0
C466 C 0.77603 0.96671 0.01269 0.0
C467 C 0.74009 0.91085 0.01358 0.0
C468 C 0.78072 0.8099 0.33819 0.0
C469 C 0.7438 0.82752 0.33632 0.0
C470 C 0.81291 0.77824 0.34645 0.0
C471 C 0.83188 0.74271 0.35188 0.0
C472 C 0.02514 0.81057 0.68572 0.0
C473 C 0.0801 0.83008 0.6873 0.0
C474 C 0.96132 0.77691 0.67718 0.0
C475 C 0.90708 0.74083 0.67105 0.0
C476 C 0.219 0.03243 0.01387 0.0
C477 C 0.25491 0.08836 0.0146 0.0
C478 C 0.18588 0.96635 1.01055 0.0
C479 C 0.16576 0.91042 1.00949 0.0
C480 C 0.98108 0.33255 0.16413 0.0
C481 C 0.95467 0.31808 0.12968 0.0
C482 C 0.01535 0.34961 0.2038 0.0
C483 C 0.04427 0.36204 0.23731 0.0
C484 C 0.67233 0.01518 0.53262 0.0
C485 C 0.6869 0.04265 0.56747 0.0
C486 C 0.65597 0.98197 0.49136 0.0
C487 C 0.64348 0.95465 0.45647 0.0
C488 C 0.64985 0.66649 0.85976 0.0
C489 C 0.6376 0.68253 0.89353 0.0
C490 C 0.66729 0.64976 0.82009 0.0
C491 C 0.68351 0.63736 0.78647 0.0
C492 C 0.01347 0.66668 0.16376 0.0
C493 C 0.04041 0.68172 0.12953 0.0
C494 C 0.97997 0.64992 0.20366 0.0
C495 C 0.95202 0.63739 0.23753 0.0
C496 C 0.33811 0.01528 0.49072 0.0
C497 C 0.35088 0.04255 0.45584 0.0
C498 C 0.32144 0.98229 0.532 0.0
C499 C 0.30697 0.95533 0.56699 0.0
C500 C 0.34518 0.33214 0.8595 0.0
C501 C 0.35726 0.31575 0.89319 0.0
C502 C 0.32796 0.34898 0.81978 0.0
C503 C 0.31179 0.36139 0.78615 0.0
C504 C 0.17739 0.40622 0.49984 0.0
C505 C 0.14257 0.4011 0.47233 0.0
C506 C 0.22515 0.40608 0.52317 0.0
C507 C 0.25455 0.40086 0.55083 0.0
C508 C 0.86491 0.2405 0.85352 0.0
C509 C 0.89572 0.27072 0.88368 0.0
C510 C 0.8107 0.19284 0.83162 0.0
C511 C 0.77266 0.15759 0.80605 0.0
C512 C 0.61771 0.80804 0.19121 0.0
C513 C 0.61508 0.84326 0.21689 0.0
C514 C 0.62385 0.75991 0.16956 0.0
C515 C 0.62434 0.72918 0.13966 0.0
C516 C 0.81377 0.59139 0.49877 0.0
C517 C 0.84916 0.59653 0.47157 0.0
C518 C 0.76648 0.59205 0.52242 0.0
C519 C 0.73801 0.59759 0.55065 0.0
C520 C 0.13165 0.75378 0.85285 0.0
C521 C 0.10059 0.72473 0.88324 0.0
C522 C 0.18559 0.80149 0.83074 0.0
C523 C 0.22327 0.83767 0.80536 0.0
C524 C 0.38247 0.19763 0.19269 0.0
C525 C 0.38418 0.16154 0.21802 0.0
C526 C 0.37618 0.24516 0.17046 0.0
C527 C 0.37452 0.27418 0.13997 0.0
loop_
_geom_bond_atom_site_label_1
_geom_bond_atom_site_label_2
_geom_bond_distance
_geom_bond_site_symmetry_2
_ccdc_geom_bond_type
Mn0 O5 2.095 . S
Mn0 O15 2.162 . S
Mn0 O16 2.297 . S
Mn0 O24 2.385 . S
Mn0 O25 2.209 . S
Mn0 O26 2.094 . S
Mn1 O6 2.121 . S
Mn1 N8 2.257 . S
Mn1 N17 2.282 . S
Mn1 O25 2.215 . S
Mn1 O27 2.117 . S
C2 O24 1.234 . S
C2 O25 1.283 . S
C3 O15 1.281 . S
C3 O16 1.236 . S
C4 O26 1.240 . S
C4 O27 1.264 . S
O5 Mn0 2.095 . S
O5 C14 1.250 . S
O6 Mn1 2.121 . S
O6 C14 1.258 . S
C7 N8 1.326 . S
C7 C11 1.460 . S
C7 H13 0.929 . S
N8 Mn1 2.257 . S
N8 C7 1.326 . S
N8 C12 1.362 . S
C9 C10 1.258 . S
C9 C12 1.431 . S
C9 C29 1.449 . S
C10 C9 1.258 . S
C10 C11 1.477 . S
C10 H30 0.931 . S
C11 C7 1.460 . S
C11 C10 1.477 . S
C11 H31 0.930 . S
C12 N8 1.362 . S
C12 C9 1.431 . S
C12 C22 1.476 . S
H13 C7 0.929 . S
C14 O5 1.250 . S
C14 O6 1.258 . S
O15 Mn0 2.162 . S
O15 C3 1.281 . S
O16 Mn0 2.297 . S
O16 C3 1.236 . S
N17 Mn1 2.282 . S
N17 C18 1.328 . S
N17 C22 1.318 . S
C18 N17 1.328 . S
C18 C19 1.457 . S
C18 H23 0.929 . S
C19 C18 1.457 . S
C19 C20 1.291 . S
C19 H32 0.931 . S
C20 C19 1.291 . S
C20 C21 1.373 . S
C20 H33 0.929 . S
C21 C20 1.373 . S
C21 C22 1.396 . S
C21 C28 1.403 . S
C22 C12 1.476 . S
C22 N17 1.318 . S
C22 C21 1.396 . S
H23 C18 0.929 . S
O24 Mn0 2.385 . S
O24 C2 1.234 . S
O25 Mn0 2.209 . S
O25 Mn1 2.215 . S
O25 C2 1.283 . S
O26 Mn0 2.094 . S
O26 C4 1.240 . S
O27 Mn1 2.117 . S
O27 C4 1.264 . S
C28 C21 1.403 . S
C28 C29 1.399 . S
C28 H34 0.929 . S
C29 C9 1.449 . S
C29 C28 1.399 . S
C29 H35 0.930 . S
H30 C10 0.931 . S
H31 C11 0.930 . S
H32 C19 0.931 . S
H33 C20 0.929 . S
H34 C28 0.929 . S
H35 C29 0.930 . S
Mn36 O41 2.095 . S
Mn36 O51 2.162 . S
Mn36 O52 2.297 . S
Mn36 O60 2.385 . S
Mn36 O61 2.209 . S
Mn36 O62 2.094 . S
Mn37 O42 2.121 . S
Mn37 N44 2.257 . S
Mn37 N53 2.282 . S
Mn37 O61 2.215 . S
Mn37 O63 2.117 . S
C38 O60 1.234 . S
C38 O61 1.283 . S
C39 O51 1.281 . S
C39 O52 1.236 . S
C40 O62 1.240 . S
C40 O63 1.264 . S
O41 Mn36 2.095 . S
O41 C50 1.250 . S
O42 Mn37 2.121 . S
O42 C50 1.258 . S
C43 N44 1.326 . S
C43 C47 1.460 . S
C43 H49 0.929 . S
N44 Mn37 2.257 . S
N44 C43 1.326 . S
N44 C48 1.362 . S
C45 C46 1.258 . S
C45 C48 1.431 1_455 S
C45 C65 1.449 . S
C46 C45 1.258 . S
C46 C47 1.477 1_455 S
C46 H66 0.931 . S
C47 C43 1.460 . S
C47 C46 1.477 1_655 S
C47 H67 0.930 . S
C48 N44 1.362 . S
C48 C45 1.431 1_655 S
C48 C58 1.476 . S
H49 C43 0.929 . S
C50 O41 1.250 . S
C50 O42 1.258 . S
O51 Mn36 2.162 . S
O51 C39 1.281 . S
O52 Mn36 2.297 . S
O52 C39 1.236 . S
N53 Mn37 2.282 . S
N53 C54 1.328 . S
N53 C58 1.318 . S
C54 N53 1.328 . S
C54 C55 1.457 . S
C54 H59 0.929 . S
C55 C54 1.457 . S
C55 C56 1.291 1_655 S
C55 H68 0.931 . S
C56 C55 1.291 1_455 S
C56 C57 1.373 . S
C56 H69 0.929 . S
C57 C56 1.373 . S
C57 C58 1.396 1_455 S
C57 C64 1.403 . S
C58 C48 1.476 . S
C58 N53 1.318 . S
C58 C57 1.396 1_655 S
H59 C54 0.929 . S
O60 Mn36 2.385 . S
O60 C38 1.234 . S
O61 Mn36 2.209 . S
O61 Mn37 2.215 . S
O61 C38 1.283 . S
O62 Mn36 2.094 . S
O62 C40 1.240 . S
O63 Mn37 2.117 . S
O63 C40 1.264 . S
C64 C57 1.403 . S
C64 C65 1.399 . S
C64 H70 0.929 . S
C65 C45 1.449 . S
C65 C64 1.399 . S
C65 H71 0.930 . S
H66 C46 0.931 . S
H67 C47 0.930 . S
H68 C55 0.931 . S
H69 C56 0.929 . S
H70 C64 0.929 . S
H71 C65 0.930 . S
Mn72 O77 2.095 1_556 S
Mn72 O87 2.162 . S
Mn72 O88 2.297 . S
Mn72 O96 2.385 . S
Mn72 O97 2.209 . S
Mn72 O98 2.094 1_556 S
Mn73 O78 2.121 . S
Mn73 N80 2.257 . S
Mn73 N89 2.282 . S
Mn73 O97 2.215 1_554 S
Mn73 O99 2.117 . S
C74 O96 1.234 . S
C74 O97 1.283 . S
C75 O87 1.281 . S
C75 O88 1.236 . S
C76 O98 1.240 . S
C76 O99 1.264 . S
O77 Mn72 2.095 1_554 S
O77 C86 1.250 1_554 S
O78 Mn73 2.121 . S
O78 C86 1.258 1_554 S
C79 N80 1.326 1_556 S
C79 C83 1.460 . S
C79 H85 0.929 . S
N80 Mn73 2.257 . S
N80 C79 1.326 1_554 S
N80 C84 1.362 . S
C81 C82 1.258 . S
C81 C84 1.431 1_545 S
C81 C101 1.449 . S
C82 C81 1.258 . S
C82 C83 1.477 1_544 S
C82 H102 0.931 1_554 S
C83 C79 1.460 . S
C83 C82 1.477 1_566 S
C83 H103 0.930 . S
C84 N80 1.362 . S
C84 C81 1.431 1_565 S
C84 C94 1.476 . S
H85 C79 0.929 . S
C86 O77 1.250 1_556 S
C86 O78 1.258 1_556 S
O87 Mn72 2.162 . S
O87 C75 1.281 . S
O88 Mn72 2.297 . S
O88 C75 1.236 . S
N89 Mn73 2.282 . S
N89 C90 1.328 . S
N89 C94 1.318 . S
C90 N89 1.328 . S
C90 C91 1.457 . S
C90 H95 0.929 . S
C91 C90 1.457 . S
C91 C92 1.291 1_565 S
C91 H104 0.931 . S
C92 C91 1.291 1_545 S
C92 C93 1.373 . S
C92 H105 0.929 . S
C93 C92 1.373 . S
C93 C94 1.396 1_545 S
C93 C100 1.403 . S
C94 C84 1.476 . S
C94 N89 1.318 . S
C94 C93 1.396 1_565 S
H95 C90 0.929 . S
O96 Mn72 2.385 . S
O96 C74 1.234 . S
O97 Mn72 2.209 . S
O97 Mn73 2.215 1_556 S
O97 C74 1.283 . S
O98 Mn72 2.094 1_554 S
O98 C76 1.240 . S
O99 Mn73 2.117 . S
O99 C76 1.264 . S
C100 C93 1.403 . S
C100 C101 1.399 . S
C100 H106 0.929 . S
C101 C81 1.449 . S
C101 C100 1.399 . S
C101 H107 0.930 . S
H102 C82 0.931 1_556 S
H103 C83 0.930 . S
H104 C91 0.931 . S
H105 C92 0.929 . S
H106 C100 0.929 . S
H107 C101 0.930 . S
Mn108 O113 2.095 . S
Mn108 O123 2.162 . S
Mn108 O124 2.297 . S
Mn108 O132 2.385 . S
Mn108 O133 2.209 . S
Mn108 O134 2.094 . S
Mn109 O114 2.121 . S
Mn109 N116 2.257 . S
Mn109 N125 2.282 . S
Mn109 O133 2.215 . S
Mn109 O135 2.117 . S
C110 O132 1.234 . S
C110 O133 1.283 . S
C111 O123 1.281 . S
C111 O124 1.236 . S
C112 O134 1.240 . S
C112 O135 1.264 . S
O113 Mn108 2.095 . S
O113 C122 1.250 . S
O114 Mn109 2.121 . S
O114 C122 1.258 . S
C115 N116 1.326 . S
C115 C119 1.460 . S
C115 H121 0.929 . S
N116 Mn109 2.257 . S
N116 C115 1.326 . S
N116 C120 1.362 . S
C117 C118 1.258 . S
C117 C120 1.431 . S
C117 C137 1.449 . S
C118 C117 1.258 . S
C118 C119 1.477 . S
C118 H138 0.931 . S
C119 C115 1.460 . S
C119 C118 1.477 . S
C119 H139 0.930 . S
C120 N116 1.362 . S
C120 C117 1.431 . S
C120 C130 1.476 . S
H121 C115 0.929 . S
C122 O113 1.250 . S
C122 O114 1.258 . S
O123 Mn108 2.162 . S
O123 C111 1.281 . S
O124 Mn108 2.297 . S
O124 C111 1.236 . S
N125 Mn109 2.282 . S
N125 C126 1.328 . S
N125 C130 1.318 . S
C126 N125 1.328 . S
C126 C127 1.457 . S
C126 H131 0.929 . S
C127 C126 1.457 . S
C127 C128 1.291 . S
C127 H140 0.931 . S
C128 C127 1.291 . S
C128 C129 1.373 . S
C128 H141 0.929 . S
C129 C128 1.373 . S
C129 C130 1.396 . S
C129 C136 1.403 . S
C130 C120 1.476 . S
C130 N125 1.318 . S
C130 C129 1.396 . S
H131 C126 0.929 . S
O132 Mn108 2.385 . S
O132 C110 1.234 . S
O133 Mn108 2.209 . S
O133 Mn109 2.215 . S
O133 C110 1.283 . S
O134 Mn108 2.094 . S
O134 C112 1.240 . S
O135 Mn109 2.117 . S
O135 C112 1.264 . S
C136 C129 1.403 . S
C136 C137 1.399 . S
C136 H142 0.929 . S
C137 C117 1.449 . S
C137 C136 1.399 . S
C137 H143 0.930 . S
H138 C118 0.931 . S
H139 C119 0.930 . S
H140 C127 0.931 . S
H141 C128 0.929 . S
H142 C136 0.929 . S
H143 C137 0.930 . S
Mn144 O149 2.095 . S
Mn144 O159 2.162 . S
Mn144 O160 2.297 . S
Mn144 O168 2.385 . S
Mn144 O169 2.209 . S
Mn144 O170 2.094 . S
Mn145 O150 2.121 . S
Mn145 N152 2.257 . S
Mn145 N161 2.282 . S
Mn145 O169 2.215 . S
Mn145 O171 2.117 . S
C146 O168 1.234 . S
C146 O169 1.283 . S
C147 O159 1.281 . S
C147 O160 1.236 . S
C148 O170 1.240 . S
C148 O171 1.264 . S
O149 Mn144 2.095 . S
O149 C158 1.250 . S
O150 Mn145 2.121 . S
O150 C158 1.258 . S
C151 N152 1.326 . S
C151 C155 1.460 . S
C151 H157 0.929 . S
N152 Mn145 2.257 . S
N152 C151 1.326 . S
N152 C156 1.362 . S
C153 C154 1.258 . S
C153 C156 1.431 1_655 S
C153 C173 1.449 . S
C154 C153 1.258 . S
C154 C155 1.477 1_655 S
C154 H174 0.931 . S
C155 C151 1.460 . S
C155 C154 1.477 1_455 S
C155 H175 0.930 . S
C156 N152 1.362 . S
C156 C153 1.431 1_455 S
C156 C166 1.476 . S
H157 C151 0.929 . S
C158 O149 1.250 . S
C158 O150 1.258 . S
O159 Mn144 2.162 . S
O159 C147 1.281 . S
O160 Mn144 2.297 . S
O160 C147 1.236 . S
N161 Mn145 2.282 . S
N161 C162 1.328 . S
N161 C166 1.318 . S
C162 N161 1.328 . S
C162 C163 1.457 . S
C162 H167 0.929 . S
C163 C162 1.457 . S
C163 C164 1.291 1_455 S
C163 H176 0.931 . S
C164 C163 1.291 1_655 S
C164 C165 1.373 . S
C164 H177 0.929 . S
C165 C164 1.373 . S
C165 C166 1.396 1_655 S
C165 C172 1.403 . S
C166 C156 1.476 . S
C166 N161 1.318 . S
C166 C165 1.396 1_455 S
H167 C162 0.929 . S
O168 Mn144 2.385 . S
O168 C146 1.234 . S
O169 Mn144 2.209 . S
O169 Mn145 2.215 . S
O169 C146 1.283 . S
O170 Mn144 2.094 . S
O170 C148 1.240 . S
O171 Mn145 2.117 . S
O171 C148 1.264 . S
C172 C165 1.403 . S
C172 C173 1.399 . S
C172 H178 0.929 . S
C173 C153 1.449 . S
C173 C172 1.399 . S
C173 H179 0.930 . S
H174 C154 0.931 . S
H175 C155 0.930 . S
H176 C163 0.931 . S
H177 C164 0.929 . S
H178 C172 0.929 . S
H179 C173 0.930 . S
Mn180 O185 2.095 1_556 S
Mn180 O195 2.162 . S
Mn180 O196 2.297 . S
Mn180 O204 2.385 . S
Mn180 O205 2.209 . S
Mn180 O206 2.094 1_556 S
Mn181 O186 2.121 . S
Mn181 N188 2.257 . S
Mn181 N197 2.282 . S
Mn181 O205 2.215 1_554 S
Mn181 O207 2.117 . S
C182 O204 1.234 . S
C182 O205 1.283 . S
C183 O195 1.281 . S
C183 O196 1.236 . S
C184 O206 1.240 . S
C184 O207 1.264 . S
O185 Mn180 2.095 1_554 S
O185 C194 1.250 1_554 S
O186 Mn181 2.121 . S
O186 C194 1.258 1_554 S
C187 N188 1.326 1_556 S
C187 C191 1.460 . S
C187 H193 0.929 . S
N188 Mn181 2.257 . S
N188 C187 1.326 1_554 S
N188 C192 1.362 . S
C189 C190 1.258 . S
C189 C192 1.431 1_565 S
C189 C209 1.449 . S
C190 C189 1.258 . S
C190 C191 1.477 1_564 S
C190 H210 0.931 1_554 S
C191 C187 1.460 . S
C191 C190 1.477 1_546 S
C191 H211 0.930 . S
C192 N188 1.362 . S
C192 C189 1.431 1_545 S
C192 C202 1.476 . S
H193 C187 0.929 . S
C194 O185 1.250 1_556 S
C194 O186 1.258 1_556 S
O195 Mn180 2.162 . S
O195 C183 1.281 . S
O196 Mn180 2.297 . S
O196 C183 1.236 . S
N197 Mn181 2.282 . S
N197 C198 1.328 . S
N197 C202 1.318 . S
C198 N197 1.328 . S
C198 C199 1.457 . S
C198 H203 0.929 . S
C199 C198 1.457 . S
C199 C200 1.291 1_545 S
C199 H212 0.931 . S
C200 C199 1.291 1_565 S
C200 C201 1.373 . S
C200 H213 0.929 . S
C201 C200 1.373 . S
C201 C202 1.396 1_565 S
C201 C208 1.403 . S
C202 C192 1.476 . S
C202 N197 1.318 . S
C202 C201 1.396 1_545 S
H203 C198 0.929 . S
O204 Mn180 2.385 . S
O204 C182 1.234 . S
O205 Mn180 2.209 . S
O205 Mn181 2.215 1_556 S
O205 C182 1.283 . S
O206 Mn180 2.094 1_554 S
O206 C184 1.240 . S
O207 Mn181 2.117 . S
O207 C184 1.264 . S
C208 C201 1.403 . S
C208 C209 1.399 . S
C208 H214 0.929 . S
C209 C189 1.449 . S
C209 C208 1.399 . S
C209 H215 0.930 . S
H210 C190 0.931 1_556 S
H211 C191 0.930 . S
H212 C199 0.931 . S
H213 C200 0.929 . S
H214 C208 0.929 . S
H215 C209 0.930 . S
Mn216 O221 2.095 . S
Mn216 O231 2.162 . S
Mn216 O232 2.297 . S
Mn216 O240 2.385 . S
Mn216 O241 2.209 . S
Mn216 O242 2.094 . S
Mn217 O222 2.121 . S
Mn217 N224 2.257 . S
Mn217 N233 2.282 . S
Mn217 O241 2.215 . S
Mn217 O243 2.117 . S
C218 O240 1.234 . S
C218 O241 1.283 . S
C219 O231 1.281 . S
C219 O232 1.236 . S
C220 O242 1.240 . S
C220 O243 1.264 . S
O221 Mn216 2.095 . S
O221 C230 1.250 . S
O222 Mn217 2.121 . S
O222 C230 1.258 . S
C223 N224 1.326 . S
C223 C227 1.460 . S
C223 H229 0.929 . S
N224 Mn217 2.257 . S
N224 C223 1.326 . S
N224 C228 1.362 . S
C225 C226 1.258 . S
C225 C228 1.431 . S
C225 C245 1.449 . S
C226 C225 1.258 . S
C226 C227 1.477 . S
C226 H246 0.931 . S
C227 C223 1.460 . S
C227 C226 1.477 . S
C227 H247 0.930 . S
C228 N224 1.362 . S
C228 C225 1.431 . S
C228 C238 1.476 . S
H229 C223 0.929 . S
C230 O221 1.250 . S
C230 O222 1.258 . S
O231 Mn216 2.162 . S
O231 C219 1.281 . S
O232 Mn216 2.297 . S
O232 C219 1.236 . S
N233 Mn217 2.282 . S
N233 C234 1.328 . S
N233 C238 1.318 . S
C234 N233 1.328 . S
C234 C235 1.457 . S
C234 H239 0.929 . S
C235 C234 1.457 . S
C235 C236 1.291 . S
C235 H248 0.931 . S
C236 C235 1.291 . S
C236 C237 1.373 . S
C236 H249 0.929 . S
C237 C236 1.373 . S
C237 C238 1.396 . S
C237 C244 1.403 . S
C238 C228 1.476 . S
C238 N233 1.318 . S
C238 C237 1.396 . S
H239 C234 0.929 . S
O240 Mn216 2.385 . S
O240 C218 1.234 . S
O241 Mn216 2.209 . S
O241 Mn217 2.215 . S
O241 C218 1.283 . S
O242 Mn216 2.094 . S
O242 C220 1.240 . S
O243 Mn217 2.117 . S
O243 C220 1.264 . S
C244 C237 1.403 . S
C244 C245 1.399 . S
C244 H250 0.929 . S
C245 C225 1.449 . S
C245 C244 1.399 . S
C245 H251 0.930 . S
H246 C226 0.931 . S
H247 C227 0.930 . S
H248 C235 0.931 . S
H249 C236 0.929 . S
H250 C244 0.929 . S
H251 C245 0.930 . S
Mn252 O257 2.095 . S
Mn252 O267 2.162 . S
Mn252 O268 2.297 . S
Mn252 O276 2.385 . S
Mn252 O277 2.209 . S
Mn252 O278 2.094 . S
Mn253 O258 2.121 . S
Mn253 N260 2.257 . S
Mn253 N269 2.282 . S
Mn253 O277 2.215 . S
Mn253 O279 2.117 . S
C254 O276 1.234 . S
C254 O277 1.283 . S
C255 O267 1.281 . S
C255 O268 1.236 . S
C256 O278 1.240 . S
C256 O279 1.264 . S
O257 Mn252 2.095 . S
O257 C266 1.250 . S
O258 Mn253 2.121 . S
O258 C266 1.258 . S
C259 N260 1.326 . S
C259 C263 1.460 . S
C259 H265 0.929 . S
N260 Mn253 2.257 . S
N260 C259 1.326 . S
N260 C264 1.362 . S
C261 C262 1.258 . S
C261 C264 1.431 1_455 S
C261 C281 1.449 . S
C262 C261 1.258 . S
C262 C263 1.477 1_455 S
C262 H282 0.931 . S
C263 C259 1.460 . S
C263 C262 1.477 1_655 S
C263 H283 0.930 . S
C264 N260 1.362 . S
C264 C261 1.431 1_655 S
C264 C274 1.476 . S
H265 C259 0.929 . S
C266 O257 1.250 . S
C266 O258 1.258 . S
O267 Mn252 2.162 . S
O267 C255 1.281 . S
O268 Mn252 2.297 . S
O268 C255 1.236 . S
N269 Mn253 2.282 . S
N269 C270 1.328 . S
N269 C274 1.318 . S
C270 N269 1.328 . S
C270 C271 1.457 . S
C270 H275 0.929 . S
C271 C270 1.457 . S
C271 C272 1.291 1_655 S
C271 H284 0.931 . S
C272 C271 1.291 1_455 S
C272 C273 1.373 . S
C272 H285 0.929 . S
C273 C272 1.373 . S
C273 C274 1.396 1_455 S
C273 C280 1.403 . S
C274 C264 1.476 . S
C274 N269 1.318 . S
C274 C273 1.396 1_655 S
H275 C270 0.929 . S
O276 Mn252 2.385 . S
O276 C254 1.234 . S
O277 Mn252 2.209 . S
O277 Mn253 2.215 . S
O277 C254 1.283 . S
O278 Mn252 2.094 . S
O278 C256 1.240 . S
O279 Mn253 2.117 . S
O279 C256 1.264 . S
C280 C273 1.403 . S
C280 C281 1.399 . S
C280 H286 0.929 . S
C281 C261 1.449 . S
C281 C280 1.399 . S
C281 H287 0.930 . S
H282 C262 0.931 . S
H283 C263 0.930 . S
H284 C271 0.931 . S
H285 C272 0.929 . S
H286 C280 0.929 . S
H287 C281 0.930 . S
Mn288 O293 2.095 1_554 S
Mn288 O303 2.162 . S
Mn288 O304 2.297 . S
Mn288 O312 2.385 . S
Mn288 O313 2.209 . S
Mn288 O314 2.094 1_554 S
Mn289 O294 2.121 . S
Mn289 N296 2.257 . S
Mn289 N305 2.282 . S
Mn289 O313 2.215 1_556 S
Mn289 O315 2.117 . S
C290 O312 1.234 . S
C290 O313 1.283 . S
C291 O303 1.281 . S
C291 O304 1.236 . S
C292 O314 1.240 . S
C292 O315 1.264 . S
O293 Mn288 2.095 1_556 S
O293 C302 1.250 1_556 S
O294 Mn289 2.121 . S
O294 C302 1.258 1_556 S
C295 N296 1.326 1_554 S
C295 C299 1.460 . S
C295 H301 0.929 . S
N296 Mn289 2.257 . S
N296 C295 1.326 1_556 S
N296 C300 1.362 . S
C297 C298 1.258 . S
C297 C300 1.431 1_545 S
C297 C317 1.449 . S
C298 C297 1.258 . S
C298 C299 1.477 1_546 S
C298 H318 0.931 1_556 S
C299 C295 1.460 . S
C299 C298 1.477 1_564 S
C299 H319 0.930 . S
C300 N296 1.362 . S
C300 C297 1.431 1_565 S
C300 C310 1.476 . S
H301 C295 0.929 . S
C302 O293 1.250 1_554 S
C302 O294 1.258 1_554 S
O303 Mn288 2.162 . S
O303 C291 1.281 . S
O304 Mn288 2.297 . S
O304 C291 1.236 . S
N305 Mn289 2.282 . S
N305 C306 1.328 . S
N305 C310 1.318 . S
C306 N305 1.328 . S
C306 C307 1.457 . S
C306 H311 0.929 . S
C307 C306 1.457 . S
C307 C308 1.291 1_565 S
C307 H320 0.931 . S
C308 C307 1.291 1_545 S
C308 C309 1.373 . S
C308 H321 0.929 . S
C309 C308 1.373 . S
C309 C310 1.396 1_545 S
C309 C316 1.403 . S
C310 C300 1.476 . S
C310 N305 1.318 . S
C310 C309 1.396 1_565 S
H311 C306 0.929 . S
O312 Mn288 2.385 . S
O312 C290 1.234 . S
O313 Mn288 2.209 . S
O313 Mn289 2.215 1_554 S
O313 C290 1.283 . S
O314 Mn288 2.094 1_556 S
O314 C292 1.240 . S
O315 Mn289 2.117 . S
O315 C292 1.264 . S
C316 C309 1.403 . S
C316 C317 1.399 . S
C316 H322 0.929 . S
C317 C297 1.449 . S
C317 C316 1.399 . S
C317 H323 0.930 . S
H318 C298 0.931 1_554 S
H319 C299 0.930 . S
H320 C307 0.931 . S
H321 C308 0.929 . S
H322 C316 0.929 . S
H323 C317 0.930 . S
Mn324 O329 2.095 . S
Mn324 O339 2.162 . S
Mn324 O340 2.297 . S
Mn324 O348 2.385 . S
Mn324 O349 2.209 . S
Mn324 O350 2.094 . S
Mn325 O330 2.121 . S
Mn325 N332 2.257 . S
Mn325 N341 2.282 . S
Mn325 O349 2.215 . S
Mn325 O351 2.117 . S
C326 O348 1.234 . S
C326 O349 1.283 . S
C327 O339 1.281 . S
C327 O340 1.236 . S
C328 O350 1.240 . S
C328 O351 1.264 . S
O329 Mn324 2.095 . S
O329 C338 1.250 . S
O330 Mn325 2.121 . S
O330 C338 1.258 . S
C331 N332 1.326 . S
C331 C335 1.460 . S
C331 H337 0.929 . S
N332 Mn325 2.257 . S
N332 C331 1.326 . S
N332 C336 1.362 . S
C333 C334 1.258 . S
C333 C336 1.431 . S
C333 C353 1.449 . S
C334 C333 1.258 . S
C334 C335 1.477 . S
C334 H354 0.931 . S
C335 C331 1.460 . S
C335 C334 1.477 . S
C335 H355 0.930 . S
C336 N332 1.362 . S
C336 C333 1.431 . S
C336 C346 1.476 . S
H337 C331 0.929 . S
C338 O329 1.250 . S
C338 O330 1.258 . S
O339 Mn324 2.162 . S
O339 C327 1.281 . S
O340 Mn324 2.297 . S
O340 C327 1.236 . S
N341 Mn325 2.282 . S
N341 C342 1.328 . S
N341 C346 1.318 . S
C342 N341 1.328 . S
C342 C343 1.457 . S
C342 H347 0.929 . S
C343 C342 1.457 . S
C343 C344 1.291 . S
C343 H356 0.931 . S
C344 C343 1.291 . S
C344 C345 1.373 . S
C344 H357 0.929 . S
C345 C344 1.373 . S
C345 C346 1.396 . S
C345 C352 1.403 . S
C346 C336 1.476 . S
C346 N341 1.318 . S
C346 C345 1.396 . S
H347 C342 0.929 . S
O348 Mn324 2.385 . S
O348 C326 1.234 . S
O349 Mn324 2.209 . S
O349 Mn325 2.215 . S
O349 C326 1.283 . S
O350 Mn324 2.094 . S
O350 C328 1.240 . S
O351 Mn325 2.117 . S
O351 C328 1.264 . S
C352 C345 1.403 . S
C352 C353 1.399 . S
C352 H358 0.929 . S
C353 C333 1.449 . S
C353 C352 1.399 . S
C353 H359 0.930 . S
H354 C334 0.931 . S
H355 C335 0.930 . S
H356 C343 0.931 . S
H357 C344 0.929 . S
H358 C352 0.929 . S
H359 C353 0.930 . S
Mn360 O365 2.095 . S
Mn360 O375 2.162 . S
Mn360 O376 2.297 . S
Mn360 O384 2.385 . S
Mn360 O385 2.209 . S
Mn360 O386 2.094 . S
Mn361 O366 2.121 . S
Mn361 N368 2.257 . S
Mn361 N377 2.282 . S
Mn361 O385 2.215 . S
Mn361 O387 2.117 . S
C362 O384 1.234 . S
C362 O385 1.283 . S
C363 O375 1.281 . S
C363 O376 1.236 . S
C364 O386 1.240 . S
C364 O387 1.264 . S
O365 Mn360 2.095 . S
O365 C374 1.250 . S
O366 Mn361 2.121 . S
O366 C374 1.258 . S
C367 N368 1.326 . S
C367 C371 1.460 . S
C367 H373 0.929 . S
N368 Mn361 2.257 . S
N368 C367 1.326 . S
N368 C372 1.362 . S
C369 C370 1.258 . S
C369 C372 1.431 1_655 S
C369 C389 1.449 . S
C370 C369 1.258 . S
C370 C371 1.477 1_655 S
C370 H390 0.931 . S
C371 C367 1.460 . S
C371 C370 1.477 1_455 S
C371 H391 0.930 . S
C372 N368 1.362 . S
C372 C369 1.431 1_455 S
C372 C382 1.476 . S
H373 C367 0.929 . S
C374 O365 1.250 . S
C374 O366 1.258 . S
O375 Mn360 2.162 . S
O375 C363 1.281 . S
O376 Mn360 2.297 . S
O376 C363 1.236 . S
N377 Mn361 2.282 . S
N377 C378 1.328 . S
N377 C382 1.318 . S
C378 N377 1.328 . S
C378 C379 1.457 . S
C378 H383 0.929 . S
C379 C378 1.457 . S
C379 C380 1.291 1_455 S
C379 H392 0.931 . S
C380 C379 1.291 1_655 S
C380 C381 1.373 . S
C380 H393 0.929 . S
C381 C380 1.373 . S
C381 C382 1.396 1_655 S
C381 C388 1.403 . S
C382 C372 1.476 . S
C382 N377 1.318 . S
C382 C381 1.396 1_455 S
H383 C378 0.929 . S
O384 Mn360 2.385 . S
O384 C362 1.234 . S
O385 Mn360 2.209 . S
O385 Mn361 2.215 . S
O385 C362 1.283 . S
O386 Mn360 2.094 . S
O386 C364 1.240 . S
O387 Mn361 2.117 . S
O387 C364 1.264 . S
C388 C381 1.403 . S
C388 C389 1.399 . S
C388 H394 0.929 . S
C389 C369 1.449 . S
C389 C388 1.399 . S
C389 H395 0.930 . S
H390 C370 0.931 . S
H391 C371 0.930 . S
H392 C379 0.931 . S
H393 C380 0.929 . S
H394 C388 0.929 . S
H395 C389 0.930 . S
Mn396 O401 2.095 1_554 S
Mn396 O411 2.162 . S
Mn396 O412 2.297 . S
Mn396 O420 2.385 . S
Mn396 O421 2.209 . S
Mn396 O422 2.094 1_554 S
Mn397 O402 2.121 . S
Mn397 N404 2.257 . S
Mn397 N413 2.282 . S
Mn397 O421 2.215 1_556 S
Mn397 O423 2.117 . S
C398 O420 1.234 . S
C398 O421 1.283 . S
C399 O411 1.281 . S
C399 O412 1.236 . S
C400 O422 1.240 . S
C400 O423 1.264 . S
O401 Mn396 2.095 1_556 S
O401 C410 1.250 1_556 S
O402 Mn397 2.121 . S
O402 C410 1.258 1_556 S
C403 N404 1.326 1_554 S
C403 C407 1.460 . S
C403 H409 0.929 . S
N404 Mn397 2.257 . S
N404 C403 1.326 1_556 S
N404 C408 1.362 . S
C405 C406 1.258 . S
C405 C408 1.431 1_565 S
C405 C425 1.449 . S
C406 C405 1.258 . S
C406 C407 1.477 1_566 S
C406 H426 0.931 1_556 S
C407 C403 1.460 . S
C407 C406 1.477 1_544 S
C407 H427 0.930 . S
C408 N404 1.362 . S
C408 C405 1.431 1_545 S
C408 C418 1.476 . S
H409 C403 0.929 . S
C410 O401 1.250 1_554 S
C410 O402 1.258 1_554 S
O411 Mn396 2.162 . S
O411 C399 1.281 . S
O412 Mn396 2.297 . S
O412 C399 1.236 . S
N413 Mn397 2.282 . S
N413 C414 1.328 . S
N413 C418 1.318 . S
C414 N413 1.328 . S
C414 C415 1.457 . S
C414 H419 0.929 . S
C415 C414 1.457 . S
C415 C416 1.291 1_545 S
C415 H428 0.931 . S
C416 C415 1.291 1_565 S
C416 C417 1.373 . S
C416 H429 0.929 . S
C417 C416 1.373 . S
C417 C418 1.396 1_565 S
C417 C424 1.403 . S
C418 C408 1.476 . S
C418 N413 1.318 . S
C418 C417 1.396 1_545 S
H419 C414 0.929 . S
O420 Mn396 2.385 . S
O420 C398 1.234 . S
O421 Mn396 2.209 . S
O421 Mn397 2.215 1_554 S
O421 C398 1.283 . S
O422 Mn396 2.094 1_556 S
O422 C400 1.240 . S
O423 Mn397 2.117 . S
O423 C400 1.264 . S
C424 C417 1.403 . S
C424 C425 1.399 . S
C424 H430 0.929 . S
C425 C405 1.449 . S
C425 C424 1.399 . S
C425 H431 0.930 . S
H426 C406 0.931 1_554 S
H427 C407 0.930 . S
H428 C415 0.931 . S
H429 C416 0.929 . S
H430 C424 0.929 . S
H431 C425 0.930 . S
C432 C433 1.170 . S
C432 C434 1.380 . S
C433 C432 1.170 . S
C434 C432 1.380 . S
C434 C435 1.170 . S
C435 C434 1.170 . S
C436 C437 1.170 . S
C436 C438 1.380 . S
C437 C436 1.170 . S
C438 C436 1.380 . S
C438 C439 1.170 . S
C439 C438 1.170 . S
C440 C441 1.170 . S
C440 C442 1.380 1_556 S
C441 C440 1.170 . S
C442 C440 1.380 1_554 S
C442 C443 1.170 . S
C443 C442 1.170 . S
C444 C445 1.170 . S
C444 C446 1.380 . S
C445 C444 1.170 . S
C446 C444 1.380 . S
C446 C447 1.170 . S
C447 C446 1.170 . S
C448 C449 1.170 . S
C448 C450 1.380 . S
C449 C448 1.170 . S
C450 C448 1.380 . S
C450 C451 1.170 . S
C451 C450 1.170 . S
C452 C453 1.168 1_556 S
C452 C454 1.382 . S
C453 C452 1.168 1_554 S
C454 C452 1.382 . S
C454 C455 1.170 . S
C455 C454 1.170 . S
C456 C457 1.170 . S
C456 C458 1.380 . S
C457 C456 1.170 . S
C458 C456 1.380 . S
C458 C459 1.170 . S
C459 C458 1.170 . S
C460 C461 1.170 . S
C460 C462 1.380 1_655 S
C461 C460 1.170 . S
C462 C460 1.380 1_455 S
C462 C463 1.170 . S
C463 C462 1.170 . S
C464 C465 1.174 . S
C464 C466 1.377 1_544 S
C465 C464 1.174 . S
C466 C464 1.377 1_566 S
C466 C467 1.170 . S
C467 C466 1.170 . S
C468 C469 1.170 . S
C468 C470 1.380 . S
C469 C468 1.170 . S
C470 C468 1.380 . S
C470 C471 1.170 . S
C471 C470 1.170 . S
C472 C473 1.170 . S
C472 C474 1.380 1_455 S
C473 C472 1.170 . S
C474 C472 1.380 1_655 S
C474 C475 1.170 . S
C475 C474 1.170 . S
C476 C477 1.175 . S
C476 C478 1.376 1_546 S
C477 C476 1.175 . S
C478 C476 1.376 1_564 S
C478 C479 1.170 . S
C479 C478 1.170 . S
C480 C481 1.170 . S
C480 C482 1.380 . S
C481 C480 1.170 . S
C482 C480 1.380 . S
C482 C483 1.170 1_655 S
C483 C482 1.170 1_455 S
C484 C485 1.170 . S
C484 C486 1.380 1_545 S
C485 C484 1.170 . S
C486 C484 1.380 1_565 S
C486 C487 1.170 . S
C487 C486 1.170 . S
C488 C489 1.170 . S
C488 C490 1.380 . S
C489 C488 1.170 . S
C490 C488 1.380 . S
C490 C491 1.170 . S
C491 C490 1.170 . S
C492 C493 1.170 . S
C492 C494 1.385 . S
C493 C492 1.170 . S
C494 C492 1.385 . S
C494 C495 1.165 1_455 S
C495 C494 1.165 1_655 S
C496 C497 1.170 . S
C496 C498 1.380 1_545 S
C497 C496 1.170 . S
C498 C496 1.380 1_565 S
C498 C499 1.170 . S
C499 C498 1.170 . S
C500 C501 1.170 . S
C500 C502 1.380 . S
C501 C500 1.170 . S
C502 C500 1.380 . S
C502 C503 1.170 . S
C503 C502 1.170 . S
C504 C505 1.170 . S
C504 C506 1.380 . S
C505 C504 1.170 . S
C506 C504 1.380 . S
C506 C507 1.170 . S
C507 C506 1.170 . S
C508 C509 1.170 . S
C508 C510 1.380 . S
C509 C508 1.170 . S
C510 C508 1.380 . S
C510 C511 1.170 . S
C511 C510 1.170 . S
C512 C513 1.170 . S
C512 C514 1.380 . S
C513 C512 1.170 . S
C514 C512 1.380 . S
C514 C515 1.170 . S
C515 C514 1.170 . S
C516 C517 1.170 . S
C516 C518 1.380 . S
C517 C516 1.170 . S
C518 C516 1.380 . S
C518 C519 1.170 . S
C519 C518 1.170 . S
C520 C521 1.170 . S
C520 C522 1.380 . S
C521 C520 1.170 . S
C522 C520 1.380 . S
C522 C523 1.170 . S
C523 C522 1.170 . S
C524 C525 1.170 . S
C524 C526 1.380 . S
C525 C524 1.170 . S
C526 C524 1.380 . S
C526 C527 1.170 . S
C527 C526 1.170 . S
C433 C14 1.399 . S
C435 C230 1.461 . S
C437 C50 1.438 . S
C439 C266 1.448 . S
C441 C86 1.356 . S
C443 C302 1.362 . S
C445 C338 1.406 . S
C447 C122 1.439 . S
C449 C158 1.442 . S
C451 C374 1.394 . S
C453 C410 1.341 . S
C455 C194 1.395 . S
C457 C2 1.115 . S
C459 C326 1.134 . S
C461 C38 1.132 . S
C463 C362 1.112 . S
C465 C398 1.088 . S
C467 C74 1.114 . S
C469 C218 1.128 . S
C471 C110 1.129 . S
C473 C146 1.111 . S
C475 C254 1.128 . S
C477 C182 1.080 . S
C479 C290 1.104 . S
C481 C399 1.736 . S
C483 C3 1.754 . S
C485 C39 1.876 . S
C487 C219 1.857 . S
C489 C75 1.747 . S
C491 C255 1.747 . S
C493 C291 1.737 . S
C495 C111 1.754 . S
C497 C327 1.875 . S
C499 C147 1.859 . S
C501 C183 1.740 . S
C503 C363 1.753 . S
C505 C4 1.114 . S
C507 C364 1.176 . S
C509 C400 1.192 . S
C511 C40 1.222 . S
C513 C220 1.238 . S
C515 C76 1.180 . S
C517 C112 1.109 . S
C519 C256 1.179 . S
C521 C292 1.251 . S
C523 C148 1.199 . S
C525 C328 1.188 . S
C527 C184 1.258 . S
