# Generated by pormake.
# Topology rob, (6)-cn, num edge types: 1
# Building blocks:
#     Node 0, Type 0, BuildingBlock: BETDAH_clean_sbu_0, # of connection points: 6
#     Node 1, Type 0, BuildingBlock: BETDAH_clean_sbu_0, # of connection points: 6
#     Node 2, Type 0, BuildingBlock: BETDAH_clean_sbu_0, # of connection points: 6
#     Node 3, Type 0, BuildingBlock: BETDAH_clean_sbu_0, # of connection points: 6
#     Edge 4, Type (0, 0), BuildingBlock: FUNLAD_clean_linker_0, # of connection points: 2
#     Edge 5, Type (0, 0), BuildingBlock: FUNLAD_clean_linker_0, # of connection points: 2
#     Edge 6, Type (0, 0), BuildingBlock: FUNLAD_clean_linker_0, # of connection points: 2
#     Edge 7, Type (0, 0), BuildingBlock: FUNLAD_clean_linker_0, # of connection points: 2
#     Edge 8, Type (0, 0), BuildingBlock: FUNLAD_clean_linker_0, # of connection points: 2
#     Edge 9, Type (0, 0), BuildingBlock: FUNLAD_clean_linker_0, # of connection points: 2
#     Edge 10, Type (0, 0), BuildingBlock: FUNLAD_clean_linker_0, # of connection points: 2
#     Edge 11, Type (0, 0), BuildingBlock: FUNLAD_clean_linker_0, # of connection points: 2
#     Edge 12, Type (0, 0), BuildingBlock: FUNLAD_clean_linker_0, # of connection points: 2
#     Edge 13, Type (0, 0), BuildingBlock: FUNLAD_clean_linker_0, # of connection points: 2
#     Edge 14, Type (0, 0), BuildingBlock: FUNLAD_clean_linker_0, # of connection points: 2
#     Edge 15, Type (0, 0), BuildingBlock: FUNLAD_clean_linker_0, # of connection points: 2
# Relax obj value: 0.118
# Max RMSD: 0.179
# Mean RMSD: 0.179
data_MOF--net-rob--node1-BETDAH_clean_sbu_0--edge1-FUNLAD_clean_linker_0
_symmetry_space_group_name_H-M    P1
_symmetry_Int_Tables_number       1
_symmetry_cell_setting            triclinic
loop_
_symmetry_equiv_pos_as_xyz
'x, y, z'
_cell_length_a     17.860882
_cell_length_b     28.246759
_cell_length_c     41.86411
_cell_angle_alpha  89.970354
_cell_angle_beta   122.23667
_cell_angle_gamma 90.061809
loop_
_atom_site_label
_atom_site_type_symbol
_atom_site_fract_x
_atom_site_fract_y
_atom_site_fract_z
_atom_type_partial_charge
Ho0 Ho 0.19063 0.27765 -0.00323 0.0
Ho1 Ho 0.3599 0.24866 -0.0007 0.0
C2 C 0.37114 0.24802 0.07645 0.0
C3 C 0.06491 0.28367 0.00997 0.0
C4 C 0.06166 0.2829 0.04469 0.0
C5 C 0.09103 0.24351 0.06905 0.0
C6 C 0.09026 0.24439 0.10236 0.0
C7 C 0.0607 0.28474 0.11219 0.0
C8 C 0.03076 0.32388 0.08764 0.0
C9 C 0.0309 0.32286 0.05424 0.0
C10 C 0.29367 0.34954 -6e-05 0.0
C11 C 0.17981 0.27861 0.9199 0.0
C12 C 0.48557 0.24235 0.98609 0.0
C13 C 0.4898 0.24824 0.95191 0.0
C14 C 0.45091 0.28734 0.92773 0.0
C15 C 0.45112 0.29077 0.89439 0.0
C16 C 0.49024 0.25521 0.88441 0.0
C17 C 0.52994 0.2164 0.90897 0.0
C18 C 0.52971 0.21302 0.94229 0.0
C19 C 0.25753 0.17694 -0.00307 0.0
O20 O 0.28378 0.25116 0.05596 0.0
O21 O 0.42007 0.25276 0.06159 0.0
O22 O 0.10316 0.32058 0.00583 0.0
O23 O 0.08589 0.24423 0.00018 0.0
O24 O 0.20786 0.35121 0.981 0.0
O25 O 0.32054 0.31106 0.01783 0.0
O26 O 0.26731 0.27715 0.94068 0.0
O27 O 0.13091 0.2722 0.9346 0.0
O28 O 0.44011 0.20592 0.98584 0.0
O29 O 0.47109 0.28038 -0.00011 0.0
O30 O 0.34338 0.17552 0.01594 0.0
O31 O 0.23037 0.21511 0.97856 0.0
H32 H 0.11558 0.21217 0.06268 0.0
H33 H 0.11459 0.21384 0.12082 0.0
H34 H 0.00662 0.35529 0.09414 0.0
H35 H 0.00762 0.35363 0.03596 0.0
H36 H 0.41961 0.31511 0.93439 0.0
H37 H 0.42097 0.3215 0.87655 0.0
H38 H 0.55959 0.18798 0.90208 0.0
H39 H 0.55962 0.18239 0.96033 0.0
Ho40 Ho 0.64492 0.79761 0.98401 0.0
Ho41 Ho 0.81911 0.76407 0.99254 0.0
C42 C 0.82075 0.77775 0.06744 0.0
C43 C 0.51189 0.80803 0.9919 0.0
C44 C 0.50093 0.80385 0.0243 0.0
C45 C 0.54882 0.77018 0.05284 0.0
C46 C 0.54103 0.76823 0.08434 0.0
C47 C 0.48538 0.8 0.08802 0.0
C48 C 0.43732 0.83352 0.05921 0.0
C49 C 0.44504 0.83536 0.02769 0.0
C50 C 0.74551 0.86613 0.98078 0.0
C51 C 0.64104 0.7843 0.90919 0.0
C52 C 0.95153 0.75311 0.98409 0.0
C53 C 0.96354 0.75553 0.95177 0.0
C54 C 0.92111 0.79028 0.92359 0.0
C55 C 0.93075 0.79075 0.89248 0.0
C56 C 0.98302 0.75648 0.88884 0.0
C57 C 0.02557 0.7219 0.91728 0.0
C58 C 0.01591 0.72148 0.94834 0.0
C59 C 0.71763 0.69552 -0.00478 0.0
O60 O 0.73358 0.77969 0.04542 0.0
O61 O 0.87269 0.77651 0.05382 0.0
O62 O 0.56128 0.84327 -0.00651 0.0
O63 O 0.52802 0.76879 0.98001 0.0
O64 O 0.65956 0.86663 0.96103 0.0
O65 O 0.77352 0.83097 0.00275 0.0
O66 O 0.72858 0.7824 0.93073 0.0
O67 O 0.59056 0.78413 0.9234 0.0
O68 O 0.90304 0.71801 0.98348 0.0
O69 O 0.93452 0.79287 -0.00494 0.0
O70 O 0.80358 0.69475 0.01508 0.0
O71 O 0.69054 0.73089 0.97352 0.0
H72 H 0.59282 0.74557 0.05098 0.0
H73 H 0.57828 0.74161 0.10568 0.0
H74 H 0.395 0.85907 0.06132 0.0
H75 H 0.4082 0.86189 0.00616 0.0
H76 H 0.88008 0.81695 0.92547 0.0
H77 H 0.89782 0.81827 0.87147 0.0
H78 H 0.06519 0.69449 0.91524 0.0
H79 H 0.04872 0.69414 0.96957 0.0
Ho80 Ho 0.32535 0.77262 0.49048 0.0
Ho81 Ho 0.15521 0.74081 0.48627 0.0
C82 C 0.14876 0.74401 0.40986 0.0
C83 C 0.45474 0.78328 0.48013 0.0
C84 C 0.46438 0.78008 0.44726 0.0
C85 C 0.43513 0.74018 0.42348 0.0
C86 C 0.44219 0.73886 0.39176 0.0
C87 C 0.47775 0.77754 0.38299 0.0
C88 C 0.50708 0.8173 0.40688 0.0
C89 C 0.50076 0.81844 0.43875 0.0
C90 C 0.22153 0.84243 0.48977 0.0
C91 C 0.33701 0.76494 0.56739 0.0
C92 C 0.02552 0.73395 0.49695 0.0
C93 C 0.01657 0.7383 0.53 0.0
C94 C 0.06341 0.77287 0.55793 0.0
C95 C 0.05555 0.77561 0.58945 0.0
C96 C 1.00069 0.74385 0.59378 0.0
C97 C 0.95408 0.70927 0.56568 0.0
C98 C 0.96196 0.70659 0.5342 0.0
C99 C 0.25617 0.67058 0.48586 0.0
O100 O 0.23606 0.74673 0.43097 0.0
O101 O 0.0986 0.7477 0.42425 0.0
O102 O 0.40638 0.81838 0.4795 0.0
O103 O 0.43979 0.74385 0.49229 0.0
O104 O 0.30736 0.84403 0.50954 0.0
O105 O 0.19544 0.80514 0.47031 0.0
O106 O 0.24941 0.76265 0.547 0.0
O107 O 0.38488 0.76327 0.55197 0.0
O108 O 0.07071 0.69751 0.49705 0.0
O109 O 0.04389 0.7727 0.48527 0.0
O110 O 0.17026 0.66904 0.46718 0.0
O111 O 0.28401 0.70771 0.50561 0.0
H112 H 0.406 0.71021 0.42912 0.0
H113 H 0.41823 0.70795 0.37366 0.0
H114 H 0.5356 0.84742 0.40108 0.0
H115 H 0.52365 0.84957 0.45663 0.0
H116 H 0.10627 0.79776 0.55547 0.0
H117 H 0.09171 0.80304 0.61019 0.0
H118 H 0.91236 0.6837 0.56824 0.0
H119 H 0.92573 0.67942 0.51317 0.0
Ho120 Ho 0.86248 0.28497 0.50475 0.0
Ho121 Ho 0.68067 0.25319 0.49004 0.0
C122 C 0.69111 0.26883 0.41861 0.0
C123 C 0.99769 0.29296 0.49811 0.0
C124 C 0.00681 0.28697 0.4652 0.0
C125 C 0.96226 0.25036 0.43894 0.0
C126 C 0.96557 0.2472 0.40635 0.0
C127 C 0.01318 0.28068 0.39907 0.0
C128 C 0.05874 0.31689 0.42575 0.0
C129 C 0.05549 0.31998 0.45841 0.0
C130 C 0.76205 0.35425 0.50658 0.0
C131 C 0.85179 0.26914 0.5763 0.0
C132 C 0.54481 0.24438 0.49618 0.0
C133 C 0.53434 0.24659 0.52899 0.0
C134 C 0.57 0.2842 0.55503 0.0
C135 C 0.56494 0.28396 0.5873 0.0
C136 C 0.52485 0.24597 0.59443 0.0
C137 C 0.48823 0.20874 0.56808 0.0
C138 C 0.49272 0.20916 0.53568 0.0
C139 C 0.78345 0.18401 0.48934 0.0
O140 O 0.77791 0.26937 0.44247 0.0
O141 O 0.63499 0.2678 0.43005 0.0
O142 O 0.94993 0.32911 0.49635 0.0
O143 O 0.98074 0.25471 0.51087 0.0
O144 O 0.84796 0.35371 0.52785 0.0
O145 O 0.73443 0.31988 0.48378 0.0
O146 O 0.76496 0.2679 0.55246 0.0
O147 O 0.90792 0.2708 0.56484 0.0
O148 O 0.58984 0.20825 0.49563 0.0
O149 O 0.56503 0.28389 0.4861 0.0
O150 O 0.69762 0.18402 0.46762 0.0
O151 O 0.809 0.21878 0.51158 0.0
H152 H 0.92359 0.22451 0.44324 0.0
H153 H 0.93068 0.21843 0.38685 0.0
H154 H 0.09513 0.34367 0.42097 0.0
H155 H 0.08964 0.34877 0.47805 0.0
H156 H 0.60352 0.31335 0.55095 0.0
H157 H 0.59477 0.31287 0.60724 0.0
H158 H 0.45613 0.17919 0.57253 0.0
H159 H 0.46493 0.17973 0.51612 0.0
C160 C 0.69768 0.62009 0.02108 0.0
C161 C 0.66056 0.65755 -0.00487 0.0
C162 C 0.64425 0.58347 0.02061 0.0
C163 C 0.55236 0.58351 -0.00604 0.0
C164 C 0.51537 0.62154 0.9685 0.0
C165 C 0.56889 0.65802 0.96889 0.0
C166 C 0.49253 0.54543 0.99231 0.0
C167 C 0.51956 0.50097 0.00523 0.0
C168 C 0.45957 0.46261 0.00317 0.0
C169 C 0.49688 0.42285 0.02675 0.0
C170 C 0.44324 0.38599 0.02578 0.0
C171 C 0.35106 0.38796 0.00096 0.0
H172 H 0.33528 0.49291 0.95819 0.0
C173 C 0.31357 0.4272 0.97695 0.0
C174 C 0.36706 0.46402 0.97786 0.0
H175 H 0.24268 0.42935 0.9572 0.0
H176 H 0.76815 0.61909 0.04186 0.0
H177 H 0.67526 0.5558 0.04157 0.0
H178 H 0.44482 0.62276 0.94786 0.0
H179 H 0.53855 0.68632 0.9484 0.0
H180 H 0.42331 0.55472 0.97922 0.0
H181 H 0.58888 0.49186 0.01822 0.0
H182 H 0.56784 0.42046 0.04629 0.0
H183 H 0.47391 0.35613 0.04464 0.0
C184 C 0.40445 0.63344 0.51008 0.0
C185 C 0.31236 0.63324 0.48469 0.0
C186 C 0.45674 0.59723 0.50911 0.0
C187 C 0.4176 0.5601 0.48268 0.0
C188 C 0.3257 0.56074 0.45683 0.0
C189 C 0.27356 0.5967 0.45797 0.0
C190 C 0.46997 0.52072 0.48044 0.0
C191 C 0.54823 0.50587 0.51006 0.0
C192 C 0.60059 0.46609 0.50819 0.0
C193 C 0.69114 0.4632 0.53613 0.0
C194 C 0.7433 0.42675 0.5356 0.0
C195 C 0.70589 0.39206 0.50725 0.0
H196 H 0.49292 0.43051 0.45868 0.0
C197 C 0.61515 0.39422 0.47959 0.0
C198 C 0.56281 0.43073 0.48009 0.0
H199 H 0.58463 0.36785 0.45743 0.0
H200 H 0.43603 0.66139 0.53084 0.0
H201 H 0.5276 0.59895 0.52873 0.0
H202 H 0.29386 0.53296 0.43592 0.0
H203 H 0.20273 0.5959 0.43784 0.0
H204 H 0.44117 0.5029 0.45343 0.0
H205 H 0.57637 0.52377 0.53703 0.0
H206 H 0.72199 0.48954 0.55833 0.0
H207 H 0.81307 0.42579 0.55742 0.0
C208 C 0.10858 0.14038 0.97289 0.0
C209 C 0.20089 0.1394 -0.00232 0.0
C210 C 0.05579 0.10442 0.97392 0.0
C211 C 0.09463 0.06667 -0.00022 0.0
C212 C 0.18688 0.06632 0.02482 0.0
C213 C 0.23947 0.10207 0.02365 0.0
C214 C 0.04178 0.02782 0.0025 0.0
C215 C 0.96081 1.01458 0.97382 0.0
C216 C 0.90799 0.97557 0.97649 0.0
C217 C 0.81622 0.97447 0.95024 0.0
C218 C 0.76366 0.93884 0.95164 0.0
C219 C 0.80183 0.90319 0.97917 0.0
H220 H 0.01701 0.93762 0.02379 0.0
C221 C 0.89366 0.90359 0.00511 0.0
C222 C 0.94639 0.93925 0.00374 0.0
H223 H 0.92481 0.87645 0.02661 0.0
H224 H 0.07717 0.16891 0.95269 0.0
H225 H 0.98482 0.10692 0.95489 0.0
H226 H 0.21862 0.03803 0.04525 0.0
H227 H 0.31047 0.10057 0.04327 0.0
H228 H 0.07233 1.00913 0.02922 0.0
H229 H 0.9306 0.03334 0.94712 0.0
H230 H 0.78478 1.00159 0.92872 0.0
H231 H 0.69302 0.93925 0.93113 0.0
C232 C 0.80791 0.11004 0.46328 0.0
C233 C 0.84199 0.14637 0.49034 0.0
C234 C 0.86319 0.07396 0.46459 0.0
C235 C 0.95382 0.07346 0.49318 0.0
C236 C 0.98776 0.11034 0.5198 0.0
C237 C 0.93241 0.1462 0.51858 0.0
C238 C 0.01559 0.03603 0.4958 0.0
C239 C 0.98975 0.9919 0.48173 0.0
C240 C 0.05146 0.95408 0.48469 0.0
C241 C 0.01635 0.91503 0.46018 0.0
C242 C 0.07145 0.87867 0.46185 0.0
C243 C 0.16297 0.88038 0.48831 0.0
H244 H 0.17322 0.98367 0.53197 0.0
C245 C 0.1983 0.91891 0.51324 0.0
C246 C 0.14326 0.95529 0.51162 0.0
H247 H 0.2686 0.92085 0.53418 0.0
H248 H 0.7385 0.10957 0.44099 0.0
H249 H 0.83474 0.04715 0.44279 0.0
H250 H 0.05728 0.11111 0.54197 0.0
H251 H 0.96038 0.17356 0.54 0.0
H252 H 0.08513 0.04544 0.51065 0.0
H253 H 0.92006 0.98271 0.46704 0.0
H254 H 0.94599 0.91281 0.43937 0.0
H255 H 0.04242 0.84942 0.44219 0.0
C256 C 0.57185 0.25417 0.35098 0.0
C257 C 0.65832 0.26869 0.37798 0.0
C258 C 0.54389 0.25199 0.3128 0.0
C259 C 0.60208 0.26447 0.30109 0.0
C260 C 0.68732 0.28041 0.32799 0.0
C261 C 0.71544 0.28218 0.36603 0.0
C262 C 0.57534 0.26291 0.26102 0.0
C263 C 0.51528 0.23206 0.23606 0.0
C264 C 0.48368 0.23285 0.19541 0.0
C265 C 0.39674 0.21828 0.1695 0.0
C266 C 0.36146 0.22204 0.13087 0.0
C267 C 0.41288 0.23987 0.11728 0.0
H268 H 0.60525 0.25854 0.2012 0.0
C269 C 0.50161 0.25197 0.1431 0.0
C270 C 0.53683 0.24859 0.18194 0.0
H271 H 0.54289 0.26541 0.13336 0.0
H272 H 0.52629 0.24389 0.35935 0.0
H273 H 0.47652 0.24113 0.2926 0.0
H274 H 0.73278 0.29097 0.31961 0.0
H275 H 0.78215 0.29427 0.38608 0.0
H276 H 0.60692 0.28793 0.25211 0.0
H277 H 0.48398 0.20704 0.2451 0.0
H278 H 0.35486 0.20545 0.17914 0.0
H279 H 0.29318 0.21164 0.11165 0.0
C280 C 0.55291 0.78961 0.15802 0.0
C281 C 0.47808 0.79856 0.12188 0.0
C282 C 0.54618 0.78895 0.18984 0.0
C283 C 0.46434 0.79725 0.18625 0.0
C284 C 0.38988 0.80652 0.15027 0.0
C285 C 0.39641 0.80683 0.11844 0.0
C286 C 0.45489 0.79858 0.21948 0.0
C287 C 0.5073 0.774 0.25151 0.0
C288 C 0.49718 0.77542 0.28457 0.0
C289 C 0.52405 0.73617 0.30885 0.0
C290 C 0.51673 0.73657 0.34051 0.0
C291 C 0.48389 0.77665 0.34896 0.0
H292 H 0.44526 0.84703 0.27564 0.0
C293 C 0.45797 0.81618 0.32493 0.0
C294 C 0.4644 0.8156 0.29307 0.0
H295 H 0.43221 0.84755 0.33068 0.0
H296 H 0.61728 0.78416 0.16191 0.0
H297 H 0.60568 0.78316 0.21723 0.0
H298 H 0.32611 0.81325 0.14669 0.0
H299 H 0.33712 0.81323 0.09107 0.0
H300 H 0.39989 0.81881 0.21659 0.0
H301 H 0.55672 0.75008 0.25307 0.0
H302 H 0.55042 0.70496 0.30322 0.0
H303 H 0.53827 0.70581 0.35876 0.0
C304 C 0.65158 0.79081 0.85228 0.0
C305 C 0.59911 0.78744 0.86795 0.0
C306 C 0.61238 0.79347 0.8133 0.0
C307 C 0.5197 0.79231 0.78916 0.0
C308 C 0.46729 0.79009 0.80484 0.0
C309 C 0.50653 0.78751 0.84387 0.0
C310 C 0.47526 0.79333 0.74759 0.0
C311 C 0.51352 0.77735 0.72936 0.0
C312 C 0.46665 0.77537 0.68773 0.0
C313 C 0.51632 0.77645 0.67073 0.0
C314 C 0.47438 0.77345 0.63156 0.0
C315 C 0.38191 0.76887 0.60873 0.0
H316 H 0.33378 0.76739 0.67693 0.0
C317 C 0.33234 0.7673 0.62581 0.0
C318 C 0.37418 0.77029 0.66488 0.0
H319 H 0.26113 0.76309 0.60911 0.0
H320 H 0.72309 0.79154 0.87005 0.0
H321 H 0.6551 0.79695 0.80242 0.0
H322 H 0.39572 0.78957 0.78682 0.0
H323 H 0.4642 0.78525 0.85507 0.0
H324 H 0.40746 0.806 0.73164 0.0
H325 H 0.5814 0.76483 0.74517 0.0
H326 H 0.58776 0.7798 0.68781 0.0
H327 H 0.5145 0.77458 0.61926 0.0
C328 C 0.5028 0.28497 0.64304 0.0
C329 C 0.52355 0.24443 0.62975 0.0
C330 C 0.5028 0.28343 0.67653 0.0
C331 C 0.52401 0.24125 0.69762 0.0
C332 C 0.54561 0.20098 0.68447 0.0
C333 C 0.54477 0.2024 0.65087 0.0
C334 C 0.52814 0.23827 0.73415 0.0
C335 C 0.48178 0.26663 0.74343 0.0
C336 C 0.48555 0.26287 0.77986 0.0
C337 C 0.41316 0.27866 0.78154 0.0
C338 C 0.41449 0.27613 0.81526 0.0
C339 C 0.48893 0.25824 0.84843 0.0
H340 H 0.61878 0.23432 0.81338 0.0
C341 C 0.56198 0.24308 0.84686 0.0
C342 C 0.56042 0.24538 0.81307 0.0
H343 H 0.62126 0.2301 0.87194 0.0
H344 H 0.48612 0.31789 0.62743 0.0
H345 H 0.488 0.31559 0.68611 0.0
H346 H 0.56316 0.16815 0.70026 0.0
H347 H 0.56246 0.17074 0.64179 0.0
H348 H 0.5678 0.20991 0.75325 0.0
H349 H 0.43565 0.29207 0.72291 0.0
H350 H 0.35474 0.29254 0.75651 0.0
H351 H 0.35648 0.2876 0.81512 0.0
C352 C 0.9442 0.75991 0.13392 0.0
C353 C 0.85844 0.7768 0.1085 0.0
C354 C 0.97573 0.75666 0.17248 0.0
C355 C 0.92185 0.77053 0.18607 0.0
C356 C 0.83753 0.78884 0.16074 0.0
C357 C 0.80592 0.79167 0.1224 0.0
C358 C 0.95145 0.76771 0.22645 0.0
C359 C 0.0099 0.73551 0.25034 0.0
C360 C 0.04055 0.73429 0.29089 0.0
C361 C 0.12717 0.71939 0.31682 0.0
C362 C 0.16107 0.72131 0.35543 0.0
C363 C 0.10849 0.73756 0.36893 0.0
H364 H 0.91798 0.75845 0.28485 0.0
C365 C 0.02004 0.7499 0.34299 0.0
C366 C 0.98625 0.74836 0.30421 0.0
H367 H 0.97787 0.76213 0.35261 0.0
H368 H 0.9862 0.74847 0.12399 0.0
H369 H 0.04232 0.7438 0.19146 0.0
H370 H 0.79522 0.80031 0.17053 0.0
H371 H 0.7399 0.80554 0.10365 0.0
H372 H 0.92225 0.79266 0.23648 0.0
H373 H 0.03971 0.71066 0.24052 0.0
H374 H 0.16983 0.70776 0.30725 0.0
H375 H 0.2292 0.71078 0.37472 0.0
C376 C 0.09096 0.28936 0.36362 0.0
C377 C 0.01403 0.27821 0.36357 0.0
C378 C 0.09154 0.28696 0.3303 0.0
C379 C 0.01495 0.27344 0.29597 0.0
C380 C 0.93846 0.26195 0.296 0.0
C381 C 0.93774 0.26455 0.32923 0.0
C382 C 0.013 0.26925 0.25996 0.0
C383 C 0.06712 0.2937 0.25259 0.0
C384 C 0.06364 0.29033 0.21622 0.0
C385 C 0.09434 0.32866 0.20489 0.0
C386 C 0.09294 0.3269 0.17116 0.0
C387 C 0.06205 0.28638 0.14811 0.0
H388 H 0.01138 0.21872 0.20149 0.0
C389 C 0.03276 0.2476 0.15972 0.0
C390 C 0.03334 0.24953 0.19332 0.0
H391 H 0.0085 0.21587 0.1426 0.0
H392 H 0.1515 0.29908 0.3896 0.0
H393 H 0.15272 0.29469 0.33184 0.0
H394 H 0.87854 0.25126 0.27009 0.0
H395 H 0.87685 0.25631 0.32783 0.0
H396 H 0.96173 0.24697 0.23805 0.0
H397 H 0.11283 0.31932 0.2731 0.0
H398 H 0.11903 0.36032 0.2221 0.0
H399 H 0.11727 0.35712 0.16338 0.0
C400 C 0.9728 0.2801 0.64424 0.0
C401 C 0.88468 0.2686 0.61697 0.0
C402 C 1.0016 0.28072 0.68254 0.0
C403 C 0.94258 0.26973 0.69412 0.0
C404 C 0.85533 0.25713 0.66691 0.0
C405 C 0.82644 0.25688 0.62875 0.0
C406 C 0.9704 0.26937 0.73434 0.0
C407 C 0.03381 0.29809 0.76021 0.0
C408 C 0.06616 0.2958 0.80093 0.0
C409 C 0.15342 0.30985 0.82689 0.0
C410 C 0.18907 0.30535 0.8655 0.0
C411 C 0.13794 0.28708 0.87908 0.0
H412 H 0.94469 0.26996 0.79523 0.0
C413 C 0.04908 0.27522 0.85325 0.0
C414 C 0.01334 0.27951 0.81442 0.0
H415 H 0.00792 0.2615 0.86295 0.0
H416 H 0.01926 0.28895 0.63603 0.0
H417 H 0.07027 0.28904 0.70294 0.0
H418 H 0.80898 0.24796 0.67514 0.0
H419 H 0.75828 0.24724 0.60853 0.0
H420 H 0.9367 0.2448 0.74249 0.0
H421 H 0.06686 0.3227 0.75172 0.0
H422 H 0.19513 0.32308 0.81729 0.0
H423 H 0.2573 0.3157 0.88468 0.0
C424 C 0.06495 0.75755 0.66341 0.0
C425 C 0.99169 0.74674 0.62727 0.0
C426 C 0.05631 0.75997 0.69477 0.0
C427 C 0.97401 0.75128 0.69085 0.0
C428 C 0.90084 0.74098 0.65464 0.0
C429 C 0.90945 0.73868 0.62335 0.0
C430 C 0.96023 0.75345 0.72314 0.0
C431 C 0.02604 0.75402 0.76002 0.0
C432 C 0.01191 0.75517 0.79223 0.0
C433 C 0.08379 0.74459 0.82868 0.0
C434 C 0.07457 0.74519 0.85985 0.0
C435 C 0.99299 0.75657 0.85555 0.0
H436 H 0.87354 0.77692 0.76078 0.0
C437 C 0.92115 0.76777 0.81916 0.0
C438 C 0.93042 0.76728 0.78795 0.0
H439 H 0.85711 0.77642 0.81464 0.0
H440 H 0.12952 0.76368 0.66765 0.0
H441 H 0.11437 0.76913 0.72172 0.0
H442 H 0.83635 0.73458 0.65045 0.0
H443 H 0.85108 0.73115 0.59594 0.0
H444 H 0.89212 0.75269 0.71577 0.0
H445 H 0.09412 0.75165 0.76751 0.0
H446 H 0.14769 0.73564 0.83314 0.0
H447 H 0.13192 0.73723 0.88745 0.0
loop_
_geom_bond_atom_site_label_1
_geom_bond_atom_site_label_2
_geom_bond_distance
_geom_bond_site_symmetry_2
_ccdc_geom_bond_type
Ho0 C3 2.815 . S
Ho0 O20 2.324 . S
Ho0 O22 2.382 . S
Ho0 O23 2.528 . S
Ho0 O24 2.380 . S
Ho0 O25 2.667 1_554 S
Ho0 O27 2.341 1_554 S
Ho0 O31 2.304 . S
Ho1 C12 2.807 1_554 S
Ho1 O21 2.349 . S
Ho1 O25 2.305 1_554 S
Ho1 O26 2.320 1_554 S
Ho1 O28 2.375 1_554 S
Ho1 O29 2.520 1_554 S
Ho1 O30 2.382 1_554 S
Ho1 O31 2.672 . S
C2 O20 1.259 . S
C2 O21 1.268 . S
C3 Ho0 2.815 . S
C3 C4 1.488 . S
C3 O22 1.215 . S
C3 O23 1.289 . S
C4 C3 1.488 . S
C4 C5 1.348 . S
C4 C9 1.413 . S
C5 C4 1.348 . S
C5 C6 1.442 . S
C5 H32 0.930 . S
C6 C5 1.442 . S
C6 C7 1.381 . S
C6 H33 0.931 . S
C7 C6 1.381 . S
C7 C8 1.321 . S
C8 C7 1.321 . S
C8 C9 1.403 . S
C8 H34 0.934 . S
C9 C4 1.413 . S
C9 C8 1.403 . S
C9 H35 0.930 . S
C10 O24 1.275 . S
C10 O25 1.256 1_554 S
C11 O26 1.259 . S
C11 O27 1.268 . S
C12 Ho1 2.807 1_556 S
C12 C13 1.488 . S
C12 O28 1.215 . S
C12 O29 1.289 . S
C13 C12 1.488 . S
C13 C14 1.348 . S
C13 C18 1.413 . S
C14 C13 1.348 . S
C14 C15 1.442 . S
C14 H36 0.930 . S
C15 C14 1.442 . S
C15 C16 1.381 . S
C15 H37 0.931 . S
C16 C15 1.381 . S
C16 C17 1.321 . S
C17 C16 1.321 . S
C17 C18 1.403 . S
C17 H38 0.934 . S
C18 C13 1.413 . S
C18 C17 1.403 . S
C18 H39 0.930 . S
C19 O30 1.275 . S
C19 O31 1.256 1_556 S
O20 Ho0 2.324 . S
O20 C2 1.259 . S
O21 Ho1 2.349 . S
O21 C2 1.268 . S
O22 Ho0 2.382 . S
O22 C3 1.215 . S
O23 Ho0 2.528 . S
O23 C3 1.289 . S
O24 Ho0 2.380 . S
O24 C10 1.275 . S
O25 Ho0 2.667 1_556 S
O25 Ho1 2.305 1_556 S
O25 C10 1.256 1_556 S
O26 Ho1 2.320 1_556 S
O26 C11 1.259 . S
O27 Ho0 2.341 1_556 S
O27 C11 1.268 . S
O28 Ho1 2.375 1_556 S
O28 C12 1.215 . S
O29 Ho1 2.520 1_556 S
O29 C12 1.289 . S
O30 Ho1 2.382 1_556 S
O30 C19 1.275 . S
O31 Ho0 2.304 . S
O31 Ho1 2.672 . S
O31 C19 1.256 1_554 S
H32 C5 0.930 . S
H33 C6 0.931 . S
H34 C8 0.934 . S
H35 C9 0.930 . S
H36 C14 0.930 . S
H37 C15 0.931 . S
H38 C17 0.934 . S
H39 C18 0.930 . S
Ho40 C43 2.815 . S
Ho40 O60 2.324 . S
Ho40 O62 2.382 . S
Ho40 O63 2.528 . S
Ho40 O64 2.380 . S
Ho40 O65 2.667 1_554 S
Ho40 O67 2.341 1_554 S
Ho40 O71 2.304 . S
Ho41 C52 2.807 1_554 S
Ho41 O61 2.349 . S
Ho41 O65 2.305 1_554 S
Ho41 O66 2.320 1_554 S
Ho41 O68 2.375 1_554 S
Ho41 O69 2.520 1_554 S
Ho41 O70 2.382 1_554 S
Ho41 O71 2.672 . S
C42 O60 1.259 . S
C42 O61 1.268 . S
C43 Ho40 2.815 . S
C43 C44 1.488 . S
C43 O62 1.215 . S
C43 O63 1.289 . S
C44 C43 1.488 . S
C44 C45 1.348 . S
C44 C49 1.413 . S
C45 C44 1.348 . S
C45 C46 1.442 . S
C45 H72 0.930 . S
C46 C45 1.442 . S
C46 C47 1.381 . S
C46 H73 0.931 . S
C47 C46 1.381 . S
C47 C48 1.321 . S
C48 C47 1.321 . S
C48 C49 1.403 . S
C48 H74 0.934 . S
C49 C44 1.413 . S
C49 C48 1.403 . S
C49 H75 0.930 . S
C50 O64 1.275 . S
C50 O65 1.256 1_554 S
C51 O66 1.259 . S
C51 O67 1.268 . S
C52 Ho41 2.807 1_556 S
C52 C53 1.488 . S
C52 O68 1.215 . S
C52 O69 1.289 . S
C53 C52 1.488 . S
C53 C54 1.348 . S
C53 C58 1.413 . S
C54 C53 1.348 . S
C54 C55 1.442 . S
C54 H76 0.930 . S
C55 C54 1.442 . S
C55 C56 1.381 . S
C55 H77 0.931 . S
C56 C55 1.381 . S
C56 C57 1.321 . S
C57 C56 1.321 . S
C57 C58 1.403 . S
C57 H78 0.934 . S
C58 C53 1.413 . S
C58 C57 1.403 . S
C58 H79 0.930 . S
C59 O70 1.275 . S
C59 O71 1.256 1_556 S
O60 Ho40 2.324 . S
O60 C42 1.259 . S
O61 Ho41 2.349 . S
O61 C42 1.268 . S
O62 Ho40 2.382 . S
O62 C43 1.215 . S
O63 Ho40 2.528 . S
O63 C43 1.289 . S
O64 Ho40 2.380 . S
O64 C50 1.275 . S
O65 Ho40 2.667 1_556 S
O65 Ho41 2.305 1_556 S
O65 C50 1.256 1_556 S
O66 Ho41 2.320 1_556 S
O66 C51 1.259 . S
O67 Ho40 2.341 1_556 S
O67 C51 1.268 . S
O68 Ho41 2.375 1_556 S
O68 C52 1.215 . S
O69 Ho41 2.520 1_556 S
O69 C52 1.289 . S
O70 Ho41 2.382 1_556 S
O70 C59 1.275 . S
O71 Ho40 2.304 . S
O71 Ho41 2.672 . S
O71 C59 1.256 1_554 S
H72 C45 0.930 . S
H73 C46 0.931 . S
H74 C48 0.934 . S
H75 C49 0.930 . S
H76 C54 0.930 . S
H77 C55 0.931 . S
H78 C57 0.934 . S
H79 C58 0.930 . S
Ho80 C83 2.811 . S
Ho80 O100 2.322 . S
Ho80 O102 2.378 . S
Ho80 O103 2.524 . S
Ho80 O104 2.381 . S
Ho80 O105 2.669 . S
Ho80 O107 2.346 . S
Ho80 O111 2.305 . S
Ho81 C92 2.811 . S
Ho81 O101 2.346 . S
Ho81 O105 2.305 . S
Ho81 O106 2.322 . S
Ho81 O108 2.378 . S
Ho81 O109 2.524 . S
Ho81 O110 2.381 . S
Ho81 O111 2.669 . S
C82 O100 1.259 . S
C82 O101 1.268 . S
C83 Ho80 2.811 . S
C83 C84 1.488 . S
C83 O102 1.215 . S
C83 O103 1.289 . S
C84 C83 1.488 . S
C84 C85 1.348 . S
C84 C89 1.413 . S
C85 C84 1.348 . S
C85 C86 1.442 . S
C85 H112 0.930 . S
C86 C85 1.442 . S
C86 C87 1.381 . S
C86 H113 0.931 . S
C87 C86 1.381 . S
C87 C88 1.321 . S
C88 C87 1.321 . S
C88 C89 1.403 . S
C88 H114 0.934 . S
C89 C84 1.413 . S
C89 C88 1.403 . S
C89 H115 0.930 . S
C90 O104 1.275 . S
C90 O105 1.256 . S
C91 O106 1.259 . S
C91 O107 1.268 . S
C92 Ho81 2.811 . S
C92 C93 1.488 . S
C92 O108 1.215 . S
C92 O109 1.289 . S
C93 C92 1.488 . S
C93 C94 1.348 . S
C93 C98 1.413 . S
C94 C93 1.348 . S
C94 C95 1.442 . S
C94 H116 0.930 . S
C95 C94 1.442 . S
C95 C96 1.381 . S
C95 H117 0.931 . S
C96 C95 1.381 . S
C96 C97 1.321 . S
C97 C96 1.321 . S
C97 C98 1.403 . S
C97 H118 0.934 . S
C98 C93 1.413 . S
C98 C97 1.403 . S
C98 H119 0.930 . S
C99 O110 1.275 . S
C99 O111 1.256 . S
O100 Ho80 2.322 . S
O100 C82 1.259 . S
O101 Ho81 2.346 . S
O101 C82 1.268 . S
O102 Ho80 2.378 . S
O102 C83 1.215 . S
O103 Ho80 2.524 . S
O103 C83 1.289 . S
O104 Ho80 2.381 . S
O104 C90 1.275 . S
O105 Ho80 2.669 . S
O105 Ho81 2.305 . S
O105 C90 1.256 . S
O106 Ho81 2.322 . S
O106 C91 1.259 . S
O107 Ho80 2.346 . S
O107 C91 1.268 . S
O108 Ho81 2.378 . S
O108 C92 1.215 . S
O109 Ho81 2.524 . S
O109 C92 1.289 . S
O110 Ho81 2.381 . S
O110 C99 1.275 . S
O111 Ho80 2.305 . S
O111 Ho81 2.669 . S
O111 C99 1.256 . S
H112 C85 0.930 . S
H113 C86 0.931 . S
H114 C88 0.934 . S
H115 C89 0.930 . S
H116 C94 0.930 . S
H117 C95 0.931 . S
H118 C97 0.934 . S
H119 C98 0.930 . S
Ho120 C123 2.811 . S
Ho120 O140 2.322 . S
Ho120 O142 2.378 . S
Ho120 O143 2.524 . S
Ho120 O144 2.381 . S
Ho120 O145 2.669 . S
Ho120 O147 2.346 . S
Ho120 O151 2.305 . S
Ho121 C132 2.811 . S
Ho121 O141 2.346 . S
Ho121 O145 2.305 . S
Ho121 O146 2.322 . S
Ho121 O148 2.378 . S
Ho121 O149 2.524 . S
Ho121 O150 2.381 . S
Ho121 O151 2.669 . S
C122 O140 1.259 . S
C122 O141 1.268 . S
C123 Ho120 2.811 . S
C123 C124 1.488 . S
C123 O142 1.215 . S
C123 O143 1.289 . S
C124 C123 1.488 . S
C124 C125 1.348 . S
C124 C129 1.413 . S
C125 C124 1.348 . S
C125 C126 1.442 . S
C125 H152 0.930 . S
C126 C125 1.442 . S
C126 C127 1.381 . S
C126 H153 0.931 . S
C127 C126 1.381 . S
C127 C128 1.321 . S
C128 C127 1.321 . S
C128 C129 1.403 . S
C128 H154 0.934 . S
C129 C124 1.413 . S
C129 C128 1.403 . S
C129 H155 0.930 . S
C130 O144 1.275 . S
C130 O145 1.256 . S
C131 O146 1.259 . S
C131 O147 1.268 . S
C132 Ho121 2.811 . S
C132 C133 1.488 . S
C132 O148 1.215 . S
C132 O149 1.289 . S
C133 C132 1.488 . S
C133 C134 1.348 . S
C133 C138 1.413 . S
C134 C133 1.348 . S
C134 C135 1.442 . S
C134 H156 0.930 . S
C135 C134 1.442 . S
C135 C136 1.381 . S
C135 H157 0.931 . S
C136 C135 1.381 . S
C136 C137 1.321 . S
C137 C136 1.321 . S
C137 C138 1.403 . S
C137 H158 0.934 . S
C138 C133 1.413 . S
C138 C137 1.403 . S
C138 H159 0.930 . S
C139 O150 1.275 . S
C139 O151 1.256 . S
O140 Ho120 2.322 . S
O140 C122 1.259 . S
O141 Ho121 2.346 . S
O141 C122 1.268 . S
O142 Ho120 2.378 . S
O142 C123 1.215 . S
O143 Ho120 2.524 . S
O143 C123 1.289 . S
O144 Ho120 2.381 . S
O144 C130 1.275 . S
O145 Ho120 2.669 . S
O145 Ho121 2.305 . S
O145 C130 1.256 . S
O146 Ho121 2.322 . S
O146 C131 1.259 . S
O147 Ho120 2.346 . S
O147 C131 1.268 . S
O148 Ho121 2.378 . S
O148 C132 1.215 . S
O149 Ho121 2.524 . S
O149 C132 1.289 . S
O150 Ho121 2.381 . S
O150 C139 1.275 . S
O151 Ho120 2.305 . S
O151 Ho121 2.669 . S
O151 C139 1.256 . S
H152 C125 0.930 . S
H153 C126 0.931 . S
H154 C128 0.934 . S
H155 C129 0.930 . S
H156 C134 0.930 . S
H157 C135 0.931 . S
H158 C137 0.934 . S
H159 C138 0.930 . S
C160 C161 1.390 . S
C160 C162 1.383 . S
C160 H176 0.951 . S
C161 C160 1.390 . S
C161 C165 1.374 1_556 S
C162 C160 1.383 . S
C162 C163 1.402 1_556 S
C162 H177 0.951 . S
C163 C162 1.402 1_554 S
C163 C164 1.375 . S
C163 C166 1.481 . S
C164 C163 1.375 . S
C164 C165 1.367 . S
C164 H178 0.951 . S
C165 C161 1.374 1_554 S
C165 C164 1.367 . S
C165 H179 0.950 . S
C166 C163 1.481 . S
C166 C167 1.297 . S
C166 H180 0.950 . S
C167 C166 1.297 . S
C167 C168 1.479 . S
C167 H181 0.950 1_554 S
C168 C167 1.479 . S
C168 C169 1.375 1_554 S
C168 C174 1.404 . S
C169 C168 1.375 1_556 S
C169 C170 1.369 . S
C169 H182 0.950 . S
C170 C169 1.369 . S
C170 C171 1.392 1_556 S
C170 H183 0.951 . S
C171 C170 1.392 1_554 S
C171 C173 1.384 . S
H172 C174 0.949 . S
C173 C171 1.384 . S
C173 C174 1.385 . S
C173 H175 0.950 . S
C174 C168 1.404 . S
C174 H172 0.949 . S
C174 C173 1.385 . S
H175 C173 0.950 . S
H176 C160 0.951 . S
H177 C162 0.951 . S
H178 C164 0.951 . S
H179 C165 0.950 . S
H180 C166 0.950 . S
H181 C167 0.950 1_556 S
H182 C169 0.950 . S
H183 C170 0.951 . S
C184 C185 1.386 . S
C184 C186 1.383 . S
C184 H200 0.951 . S
C185 C184 1.386 . S
C185 C189 1.383 . S
C186 C184 1.383 . S
C186 C187 1.402 . S
C186 H201 0.951 . S
C187 C186 1.402 . S
C187 C188 1.375 . S
C187 C190 1.481 . S
C188 C187 1.375 . S
C188 C189 1.367 . S
C188 H202 0.951 . S
C189 C185 1.383 . S
C189 C188 1.367 . S
C189 H203 0.950 . S
C190 C187 1.481 . S
C190 C191 1.297 . S
C190 H204 0.950 . S
C191 C190 1.297 . S
C191 C192 1.479 . S
C191 H205 0.950 . S
C192 C191 1.479 . S
C192 C193 1.375 . S
C192 C198 1.404 . S
C193 C192 1.375 . S
C193 C194 1.369 . S
C193 H206 0.950 . S
C194 C193 1.369 . S
C194 C195 1.392 . S
C194 H207 0.951 . S
C195 C194 1.392 . S
C195 C197 1.384 . S
H196 C198 0.949 . S
C197 C195 1.384 . S
C197 C198 1.385 . S
C197 H199 0.950 . S
C198 C192 1.404 . S
C198 H196 0.949 . S
C198 C197 1.385 . S
H199 C197 0.950 . S
H200 C184 0.951 . S
H201 C186 0.951 . S
H202 C188 0.951 . S
H203 C189 0.950 . S
H204 C190 0.950 . S
H205 C191 0.950 . S
H206 C193 0.950 . S
H207 C194 0.951 . S
C208 C209 1.386 . S
C208 C210 1.383 . S
C208 H224 0.951 . S
C209 C208 1.386 . S
C209 C213 1.383 1_556 S
C210 C208 1.383 . S
C210 C211 1.402 1_556 S
C210 H225 0.951 1_455 S
C211 C210 1.402 1_554 S
C211 C212 1.375 . S
C211 C214 1.481 1_545 S
C212 C211 1.375 . S
C212 C213 1.367 . S
C212 H226 0.951 . S
C213 C209 1.383 1_554 S
C213 C212 1.367 . S
C213 H227 0.950 . S
C214 C211 1.481 1_565 S
C214 C215 1.297 1_454 S
C214 H228 0.950 . S
C215 C214 1.297 1_656 S
C215 C216 1.479 . S
C215 H229 0.950 . S
C216 C215 1.479 . S
C216 C217 1.375 . S
C216 C222 1.404 1_556 S
C217 C216 1.375 . S
C217 C218 1.369 . S
C217 H230 0.950 . S
C218 C217 1.369 . S
C218 C219 1.378 1_556 S
C218 H231 0.951 . S
C219 C218 1.378 1_554 S
C219 C221 1.386 . S
H220 C222 0.949 1_455 S
C221 C219 1.386 . S
C221 C222 1.385 . S
C221 H223 0.950 . S
C222 C216 1.404 1_554 S
C222 H220 0.949 1_655 S
C222 C221 1.385 . S
H223 C221 0.950 . S
H224 C208 0.951 . S
H225 C210 0.951 1_655 S
H226 C212 0.951 . S
H227 C213 0.950 . S
H228 C214 0.950 . S
H229 C215 0.950 . S
H230 C217 0.950 . S
H231 C218 0.951 . S
C232 C233 1.386 . S
C232 C234 1.383 . S
C232 H248 0.951 . S
C233 C232 1.386 . S
C233 C237 1.383 . S
C234 C232 1.383 . S
C234 C235 1.402 . S
C234 H249 0.951 . S
C235 C234 1.402 . S
C235 C236 1.375 1_655 S
C235 C238 1.481 1_655 S
C236 C235 1.375 1_455 S
C236 C237 1.367 1_455 S
C236 H250 0.951 . S
C237 C233 1.383 . S
C237 C236 1.367 1_655 S
C237 H251 0.950 . S
C238 C235 1.481 1_455 S
C238 C239 1.297 1_545 S
C238 H252 0.950 . S
C239 C238 1.297 1_565 S
C239 C240 1.479 . S
C239 H253 0.947 1_465 S
C240 C239 1.479 . S
C240 C241 1.375 . S
C240 C246 1.404 . S
C241 C240 1.375 . S
C241 C242 1.369 . S
C241 H254 0.950 1_455 S
C242 C241 1.369 . S
C242 C243 1.392 . S
C242 H255 0.951 . S
C243 C242 1.392 . S
C243 C245 1.384 . S
H244 C246 0.949 . S
C245 C243 1.384 . S
C245 C246 1.385 . S
C245 H247 0.950 . S
C246 C240 1.404 . S
C246 H244 0.949 . S
C246 C245 1.385 . S
H247 C245 0.950 . S
H248 C232 0.951 . S
H249 C234 0.951 . S
H250 C236 0.951 . S
H251 C237 0.950 . S
H252 C238 0.950 . S
H253 C239 0.947 1_645 S
H254 C241 0.950 1_655 S
H255 C242 0.951 . S
C256 C257 1.386 . S
C256 C258 1.383 . S
C256 H272 0.951 . S
C257 C256 1.386 . S
C257 C261 1.383 . S
C258 C256 1.383 . S
C258 C259 1.402 . S
C258 H273 0.951 . S
C259 C258 1.402 . S
C259 C260 1.375 . S
C259 C262 1.481 . S
C260 C259 1.375 . S
C260 C261 1.367 . S
C260 H274 0.951 . S
C261 C257 1.383 . S
C261 C260 1.367 . S
C261 H275 0.950 . S
C262 C259 1.481 . S
C262 C263 1.297 . S
C262 H276 0.950 . S
C263 C262 1.297 . S
C263 C264 1.479 . S
C263 H277 0.950 . S
C264 C263 1.479 . S
C264 C265 1.375 . S
C264 C270 1.404 . S
C265 C264 1.375 . S
C265 C266 1.369 . S
C265 H278 0.950 . S
C266 C265 1.369 . S
C266 C267 1.392 . S
C266 H279 0.951 . S
C267 C266 1.392 . S
C267 C269 1.384 . S
H268 C270 0.949 . S
C269 C267 1.384 . S
C269 C270 1.385 . S
C269 H271 0.950 . S
C270 C264 1.404 . S
C270 H268 0.949 . S
C270 C269 1.385 . S
H271 C269 0.950 . S
H272 C256 0.951 . S
H273 C258 0.951 . S
H274 C260 0.951 . S
H275 C261 0.950 . S
H276 C262 0.950 . S
H277 C263 0.950 . S
H278 C265 0.950 . S
H279 C266 0.951 . S
C280 C281 1.386 . S
C280 C282 1.383 . S
C280 H296 0.951 . S
C281 C280 1.386 . S
C281 C285 1.383 . S
C282 C280 1.383 . S
C282 C283 1.402 . S
C282 H297 0.951 . S
C283 C282 1.402 . S
C283 C284 1.375 . S
C283 C286 1.481 . S
C284 C283 1.375 . S
C284 C285 1.367 . S
C284 H298 0.951 . S
C285 C281 1.383 . S
C285 C284 1.367 . S
C285 H299 0.950 . S
C286 C283 1.481 . S
C286 C287 1.297 . S
C286 H300 0.950 . S
C287 C286 1.297 . S
C287 C288 1.479 . S
C287 H301 0.950 . S
C288 C287 1.479 . S
C288 C289 1.375 . S
C288 C294 1.404 . S
C289 C288 1.375 . S
C289 C290 1.369 . S
C289 H302 0.950 . S
C290 C289 1.369 . S
C290 C291 1.392 . S
C290 H303 0.951 . S
C291 C290 1.392 . S
C291 C293 1.384 . S
H292 C294 0.949 . S
C293 C291 1.384 . S
C293 C294 1.385 . S
C293 H295 0.950 . S
C294 C288 1.404 . S
C294 H292 0.949 . S
C294 C293 1.385 . S
H295 C293 0.950 . S
H296 C280 0.951 . S
H297 C282 0.951 . S
H298 C284 0.951 . S
H299 C285 0.950 . S
H300 C286 0.950 . S
H301 C287 0.950 . S
H302 C289 0.950 . S
H303 C290 0.951 . S
C304 C305 1.386 . S
C304 C306 1.383 . S
C304 H320 0.951 . S
C305 C304 1.386 . S
C305 C309 1.383 . S
C306 C304 1.383 . S
C306 C307 1.402 . S
C306 H321 0.951 . S
C307 C306 1.402 . S
C307 C308 1.375 . S
C307 C310 1.481 . S
C308 C307 1.375 . S
C308 C309 1.367 . S
C308 H322 0.951 . S
C309 C305 1.383 . S
C309 C308 1.367 . S
C309 H323 0.950 . S
C310 C307 1.481 . S
C310 C311 1.297 . S
C310 H324 0.950 . S
C311 C310 1.297 . S
C311 C312 1.479 . S
C311 H325 0.950 . S
C312 C311 1.479 . S
C312 C313 1.375 . S
C312 C318 1.404 . S
C313 C312 1.375 . S
C313 C314 1.369 . S
C313 H326 0.950 . S
C314 C313 1.369 . S
C314 C315 1.392 . S
C314 H327 0.951 . S
C315 C314 1.392 . S
C315 C317 1.384 . S
H316 C318 0.949 . S
C317 C315 1.384 . S
C317 C318 1.385 . S
C317 H319 0.950 . S
C318 C312 1.404 . S
C318 H316 0.949 . S
C318 C317 1.385 . S
H319 C317 0.950 . S
H320 C304 0.951 . S
H321 C306 0.951 . S
H322 C308 0.951 . S
H323 C309 0.950 . S
H324 C310 0.950 . S
H325 C311 0.950 . S
H326 C313 0.950 . S
H327 C314 0.951 . S
C328 C329 1.386 . S
C328 C330 1.383 . S
C328 H344 0.951 . S
C329 C328 1.386 . S
C329 C333 1.383 . S
C330 C328 1.383 . S
C330 C331 1.402 . S
C330 H345 0.951 . S
C331 C330 1.402 . S
C331 C332 1.375 . S
C331 C334 1.481 . S
C332 C331 1.375 . S
C332 C333 1.367 . S
C332 H346 0.951 . S
C333 C329 1.383 . S
C333 C332 1.367 . S
C333 H347 0.950 . S
C334 C331 1.481 . S
C334 C335 1.297 . S
C334 H348 0.950 . S
C335 C334 1.297 . S
C335 C336 1.479 . S
C335 H349 0.950 . S
C336 C335 1.479 . S
C336 C337 1.375 . S
C336 C342 1.404 . S
C337 C336 1.375 . S
C337 C338 1.369 . S
C337 H350 0.950 . S
C338 C337 1.369 . S
C338 C339 1.392 . S
C338 H351 0.951 . S
C339 C338 1.392 . S
C339 C341 1.384 . S
H340 C342 0.949 . S
C341 C339 1.384 . S
C341 C342 1.385 . S
C341 H343 0.950 . S
C342 C336 1.404 . S
C342 H340 0.949 . S
C342 C341 1.385 . S
H343 C341 0.950 . S
H344 C328 0.951 . S
H345 C330 0.951 . S
H346 C332 0.951 . S
H347 C333 0.950 . S
H348 C334 0.950 . S
H349 C335 0.950 . S
H350 C337 0.950 . S
H351 C338 0.951 . S
C352 C353 1.386 . S
C352 C354 1.383 . S
C352 H368 0.951 . S
C353 C352 1.386 . S
C353 C357 1.383 . S
C354 C352 1.383 . S
C354 C355 1.402 . S
C354 H369 0.951 1_655 S
C355 C354 1.402 . S
C355 C356 1.375 . S
C355 C358 1.481 . S
C356 C355 1.375 . S
C356 C357 1.367 . S
C356 H370 0.951 . S
C357 C353 1.383 . S
C357 C356 1.367 . S
C357 H371 0.950 . S
C358 C355 1.481 . S
C358 C359 1.297 1_655 S
C358 H372 0.950 . S
C359 C358 1.297 1_455 S
C359 C360 1.479 . S
C359 H373 0.950 . S
C360 C359 1.479 . S
C360 C361 1.375 . S
C360 C366 1.404 . S
C361 C360 1.375 . S
C361 C362 1.369 . S
C361 H374 0.950 . S
C362 C361 1.369 . S
C362 C363 1.392 . S
C362 H375 0.951 . S
C363 C362 1.392 . S
C363 C365 1.384 . S
H364 C366 0.949 . S
C365 C363 1.384 . S
C365 C366 1.385 . S
C365 H367 0.950 . S
C366 C360 1.404 . S
C366 H364 0.949 . S
C366 C365 1.385 . S
H367 C365 0.950 . S
H368 C352 0.951 . S
H369 C354 0.951 1_455 S
H370 C356 0.951 . S
H371 C357 0.950 . S
H372 C358 0.950 . S
H373 C359 0.950 . S
H374 C361 0.950 . S
H375 C362 0.951 . S
C376 C377 1.386 1_455 S
C376 C378 1.383 . S
C376 H392 0.951 . S
C377 C376 1.386 1_655 S
C377 C381 1.383 . S
C378 C376 1.383 . S
C378 C379 1.402 1_455 S
C378 H393 0.951 . S
C379 C378 1.402 1_655 S
C379 C380 1.375 . S
C379 C382 1.481 . S
C380 C379 1.375 . S
C380 C381 1.367 . S
C380 H394 0.951 . S
C381 C377 1.383 . S
C381 C380 1.367 . S
C381 H395 0.950 . S
C382 C379 1.481 . S
C382 C383 1.297 1_655 S
C382 H396 0.950 . S
C383 C382 1.297 1_455 S
C383 C384 1.479 . S
C383 H397 0.950 . S
C384 C383 1.479 . S
C384 C385 1.375 . S
C384 C390 1.405 . S
C385 C384 1.375 . S
C385 C386 1.369 . S
C385 H398 0.950 . S
C386 C385 1.369 . S
C386 C387 1.392 . S
C386 H399 0.951 . S
C387 C386 1.392 . S
C387 C389 1.379 1_455 S
H388 C390 0.940 1_655 S
C389 C387 1.379 1_655 S
C389 C390 1.397 1_655 S
C389 H391 0.951 . S
C390 C384 1.405 . S
C390 H388 0.940 1_455 S
C390 C389 1.397 1_455 S
H391 C389 0.951 . S
H392 C376 0.951 . S
H393 C378 0.951 . S
H394 C380 0.951 . S
H395 C381 0.950 . S
H396 C382 0.950 . S
H397 C383 0.950 . S
H398 C385 0.950 . S
H399 C386 0.951 . S
C400 C401 1.386 . S
C400 C402 1.383 . S
C400 H416 0.951 1_655 S
C401 C400 1.386 . S
C401 C405 1.383 . S
C402 C400 1.383 . S
C402 C403 1.402 . S
C402 H417 0.951 1_655 S
C403 C402 1.402 . S
C403 C404 1.375 . S
C403 C406 1.481 . S
C404 C403 1.375 . S
C404 C405 1.367 . S
C404 H418 0.951 . S
C405 C401 1.383 . S
C405 C404 1.367 . S
C405 H419 0.950 . S
C406 C403 1.481 . S
C406 C407 1.297 1_655 S
C406 H420 0.950 . S
C407 C406 1.297 1_455 S
C407 C408 1.479 . S
C407 H421 0.950 . S
C408 C407 1.479 . S
C408 C409 1.375 . S
C408 C414 1.390 1_455 S
C409 C408 1.375 . S
C409 C410 1.369 . S
C409 H422 0.950 . S
C410 C409 1.369 . S
C410 C411 1.392 . S
C410 H423 0.951 . S
C411 C410 1.392 . S
C411 C413 1.384 . S
H412 C414 0.958 . S
C413 C411 1.384 . S
C413 C414 1.390 1_455 S
C413 H415 0.950 1_455 S
C414 C408 1.390 1_655 S
C414 H412 0.958 . S
C414 C413 1.390 1_655 S
H415 C413 0.950 1_655 S
H416 C400 0.951 1_455 S
H417 C402 0.951 1_455 S
H418 C404 0.951 . S
H419 C405 0.950 . S
H420 C406 0.950 . S
H421 C407 0.950 . S
H422 C409 0.950 . S
H423 C410 0.951 . S
C424 C425 1.386 . S
C424 C426 1.383 . S
C424 H440 0.951 . S
C425 C424 1.386 . S
C425 C429 1.383 1_455 S
C426 C424 1.383 . S
C426 C427 1.402 1_455 S
C426 H441 0.951 . S
C427 C426 1.402 1_655 S
C427 C428 1.375 . S
C427 C430 1.481 . S
C428 C427 1.375 . S
C428 C429 1.367 . S
C428 H442 0.951 . S
C429 C425 1.383 1_655 S
C429 C428 1.367 . S
C429 H443 0.950 . S
C430 C427 1.481 . S
C430 C431 1.297 1_655 S
C430 H444 0.950 . S
C431 C430 1.297 1_455 S
C431 C432 1.481 . S
C431 H445 0.950 . S
C432 C431 1.481 . S
C432 C433 1.376 . S
C432 C438 1.402 1_455 S
C433 C432 1.376 . S
C433 C434 1.369 . S
C433 H446 0.950 . S
C434 C433 1.369 . S
C434 C435 1.392 1_455 S
C434 H447 0.951 . S
C435 C434 1.392 1_655 S
C435 C437 1.384 . S
H436 C438 0.949 . S
C437 C435 1.384 . S
C437 C438 1.385 . S
C437 H439 0.950 . S
C438 C432 1.402 1_655 S
C438 H436 0.949 . S
C438 C437 1.385 . S
H439 C437 0.950 . S
H440 C424 0.951 . S
H441 C426 0.951 . S
H442 C428 0.951 . S
H443 C429 0.950 . S
H444 C430 0.950 . S
H445 C431 0.950 . S
H446 C433 0.950 . S
H447 C434 0.951 . S
C161 C59 1.548 . S
C171 C10 1.557 . S
C185 C99 1.542 . S
C195 C130 1.559 . S
C209 C19 1.534 . S
C219 C50 1.564 . S
C233 C139 1.558 . S
C243 C90 1.524 . S
C257 C122 1.591 . S
C267 C2 1.576 . S
C281 C47 0.969 . S
C291 C87 0.979 . S
C305 C51 1.591 . S
C315 C91 1.594 . S
C329 C136 0.959 . S
C339 C16 0.944 . S
C353 C42 1.590 . S
C363 C82 1.587 . S
C377 C127 0.932 . S
C387 C7 0.907 . S
C401 C131 1.611 . S
C411 C11 1.614 . S
C425 C96 0.948 . S
C435 C56 0.926 . S
