# Generated by pormake.
# Topology smg, (6)-cn, num edge types: 1
# Building blocks:
#     Node 0, Type 0, BuildingBlock: OJICUG_clean_sbu_0, # of connection points: 6
#     Node 1, Type 0, BuildingBlock: OJICUG_clean_sbu_0, # of connection points: 6
#     Node 2, Type 0, BuildingBlock: OJICUG_clean_sbu_0, # of connection points: 6
#     Node 3, Type 0, BuildingBlock: OJICUG_clean_sbu_0, # of connection points: 6
#     Node 4, Type 0, BuildingBlock: OJICUG_clean_sbu_0, # of connection points: 6
#     Node 5, Type 0, BuildingBlock: OJICUG_clean_sbu_0, # of connection points: 6
#     Node 6, Type 0, BuildingBlock: OJICUG_clean_sbu_0, # of connection points: 6
#     Node 7, Type 0, BuildingBlock: OJICUG_clean_sbu_0, # of connection points: 6
#     Node 8, Type 0, BuildingBlock: OJICUG_clean_sbu_0, # of connection points: 6
#     Node 9, Type 0, BuildingBlock: OJICUG_clean_sbu_0, # of connection points: 6
#     Node 10, Type 0, BuildingBlock: OJICUG_clean_sbu_0, # of connection points: 6
#     Node 11, Type 0, BuildingBlock: OJICUG_clean_sbu_0, # of connection points: 6
#     Node 12, Type 0, BuildingBlock: OJICUG_clean_sbu_0, # of connection points: 6
#     Node 13, Type 0, BuildingBlock: OJICUG_clean_sbu_0, # of connection points: 6
#     Node 14, Type 0, BuildingBlock: OJICUG_clean_sbu_0, # of connection points: 6
#     Node 15, Type 0, BuildingBlock: OJICUG_clean_sbu_0, # of connection points: 6
#     Node 16, Type 0, BuildingBlock: OJICUG_clean_sbu_0, # of connection points: 6
#     Node 17, Type 0, BuildingBlock: OJICUG_clean_sbu_0, # of connection points: 6
#     Edge 18, Type (0, 0), BuildingBlock: AJUNOK_clean_linker_0, # of connection points: 2
#     Edge 19, Type (0, 0), BuildingBlock: AJUNOK_clean_linker_0, # of connection points: 2
#     Edge 20, Type (0, 0), BuildingBlock: AJUNOK_clean_linker_0, # of connection points: 2
#     Edge 21, Type (0, 0), BuildingBlock: AJUNOK_clean_linker_0, # of connection points: 2
#     Edge 22, Type (0, 0), BuildingBlock: AJUNOK_clean_linker_0, # of connection points: 2
#     Edge 23, Type (0, 0), BuildingBlock: AJUNOK_clean_linker_0, # of connection points: 2
#     Edge 24, Type (0, 0), BuildingBlock: AJUNOK_clean_linker_0, # of connection points: 2
#     Edge 25, Type (0, 0), BuildingBlock: AJUNOK_clean_linker_0, # of connection points: 2
#     Edge 26, Type (0, 0), BuildingBlock: AJUNOK_clean_linker_0, # of connection points: 2
#     Edge 27, Type (0, 0), BuildingBlock: AJUNOK_clean_linker_0, # of connection points: 2
#     Edge 28, Type (0, 0), BuildingBlock: AJUNOK_clean_linker_0, # of connection points: 2
#     Edge 29, Type (0, 0), BuildingBlock: AJUNOK_clean_linker_0, # of connection points: 2
#     Edge 30, Type (0, 0), BuildingBlock: AJUNOK_clean_linker_0, # of connection points: 2
#     Edge 31, Type (0, 0), BuildingBlock: AJUNOK_clean_linker_0, # of connection points: 2
#     Edge 32, Type (0, 0), BuildingBlock: AJUNOK_clean_linker_0, # of connection points: 2
#     Edge 33, Type (0, 0), BuildingBlock: AJUNOK_clean_linker_0, # of connection points: 2
#     Edge 34, Type (0, 0), BuildingBlock: AJUNOK_clean_linker_0, # of connection points: 2
#     Edge 35, Type (0, 0), BuildingBlock: AJUNOK_clean_linker_0, # of connection points: 2
#     Edge 36, Type (0, 0), BuildingBlock: AJUNOK_clean_linker_0, # of connection points: 2
#     Edge 37, Type (0, 0), BuildingBlock: AJUNOK_clean_linker_0, # of connection points: 2
#     Edge 38, Type (0, 0), BuildingBlock: AJUNOK_clean_linker_0, # of connection points: 2
#     Edge 39, Type (0, 0), BuildingBlock: AJUNOK_clean_linker_0, # of connection points: 2
#     Edge 40, Type (0, 0), BuildingBlock: AJUNOK_clean_linker_0, # of connection points: 2
#     Edge 41, Type (0, 0), BuildingBlock: AJUNOK_clean_linker_0, # of connection points: 2
#     Edge 42, Type (0, 0), BuildingBlock: AJUNOK_clean_linker_0, # of connection points: 2
#     Edge 43, Type (0, 0), BuildingBlock: AJUNOK_clean_linker_0, # of connection points: 2
#     Edge 44, Type (0, 0), BuildingBlock: AJUNOK_clean_linker_0, # of connection points: 2
#     Edge 45, Type (0, 0), BuildingBlock: AJUNOK_clean_linker_0, # of connection points: 2
#     Edge 46, Type (0, 0), BuildingBlock: AJUNOK_clean_linker_0, # of connection points: 2
#     Edge 47, Type (0, 0), BuildingBlock: AJUNOK_clean_linker_0, # of connection points: 2
#     Edge 48, Type (0, 0), BuildingBlock: AJUNOK_clean_linker_0, # of connection points: 2
#     Edge 49, Type (0, 0), BuildingBlock: AJUNOK_clean_linker_0, # of connection points: 2
#     Edge 50, Type (0, 0), BuildingBlock: AJUNOK_clean_linker_0, # of connection points: 2
#     Edge 51, Type (0, 0), BuildingBlock: AJUNOK_clean_linker_0, # of connection points: 2
#     Edge 52, Type (0, 0), BuildingBlock: AJUNOK_clean_linker_0, # of connection points: 2
#     Edge 53, Type (0, 0), BuildingBlock: AJUNOK_clean_linker_0, # of connection points: 2
#     Edge 54, Type (0, 0), BuildingBlock: AJUNOK_clean_linker_0, # of connection points: 2
#     Edge 55, Type (0, 0), BuildingBlock: AJUNOK_clean_linker_0, # of connection points: 2
#     Edge 56, Type (0, 0), BuildingBlock: AJUNOK_clean_linker_0, # of connection points: 2
#     Edge 57, Type (0, 0), BuildingBlock: AJUNOK_clean_linker_0, # of connection points: 2
#     Edge 58, Type (0, 0), BuildingBlock: AJUNOK_clean_linker_0, # of connection points: 2
#     Edge 59, Type (0, 0), BuildingBlock: AJUNOK_clean_linker_0, # of connection points: 2
#     Edge 60, Type (0, 0), BuildingBlock: AJUNOK_clean_linker_0, # of connection points: 2
#     Edge 61, Type (0, 0), BuildingBlock: AJUNOK_clean_linker_0, # of connection points: 2
#     Edge 62, Type (0, 0), BuildingBlock: AJUNOK_clean_linker_0, # of connection points: 2
#     Edge 63, Type (0, 0), BuildingBlock: AJUNOK_clean_linker_0, # of connection points: 2
#     Edge 64, Type (0, 0), BuildingBlock: AJUNOK_clean_linker_0, # of connection points: 2
#     Edge 65, Type (0, 0), BuildingBlock: AJUNOK_clean_linker_0, # of connection points: 2
#     Edge 66, Type (0, 0), BuildingBlock: AJUNOK_clean_linker_0, # of connection points: 2
#     Edge 67, Type (0, 0), BuildingBlock: AJUNOK_clean_linker_0, # of connection points: 2
#     Edge 68, Type (0, 0), BuildingBlock: AJUNOK_clean_linker_0, # of connection points: 2
#     Edge 69, Type (0, 0), BuildingBlock: AJUNOK_clean_linker_0, # of connection points: 2
#     Edge 70, Type (0, 0), BuildingBlock: AJUNOK_clean_linker_0, # of connection points: 2
#     Edge 71, Type (0, 0), BuildingBlock: AJUNOK_clean_linker_0, # of connection points: 2
# Relax obj value: 0.210
# Max RMSD: 0.238
# Mean RMSD: 0.238
data_MOF--net-smg--node1-OJICUG_clean_sbu_0--edge1-AJUNOK_clean_linker_0
_symmetry_space_group_name_H-M    P1
_symmetry_Int_Tables_number       1
_symmetry_cell_setting            triclinic
loop_
_symmetry_equiv_pos_as_xyz
'x, y, z'
_cell_length_a     34.474783
_cell_length_b     34.48555
_cell_length_c     34.647604
_cell_angle_alpha  90.099363
_cell_angle_beta   89.892991
_cell_angle_gamma 119.89161
loop_
_atom_site_label
_atom_site_type_symbol
_atom_site_fract_x
_atom_site_fract_y
_atom_site_fract_z
_atom_type_partial_charge
Sc0 Sc -0.00391 0.67364 0.2407 0.0
Sc1 Sc 0.94713 0.56151 0.2198 0.0
Sc2 Sc 0.05225 0.61708 0.26288 0.0
O3 O -0.00142 0.61682 0.24132 0.0
C4 C 0.09883 0.71235 0.22752 0.0
C5 C 0.9679 0.63739 0.15819 0.0
C6 C 0.02983 0.55451 0.18865 0.0
C7 C 0.89509 0.60365 0.25482 0.0
C8 C 0.0251 0.66927 0.32422 0.0
C9 C 0.97434 0.52323 0.2921 0.0
O10 O 0.06732 0.7177 0.24006 0.0
O11 O 0.94099 0.59932 0.17291 0.0
O12 O 0.05474 0.57593 0.21708 0.0
O13 O 0.92421 0.64092 0.24102 0.0
O14 O 0.05254 0.65763 0.31102 0.0
O15 O 0.94895 0.51898 0.26397 0.0
O16 O -0.00282 0.67342 0.30292 0.0
O17 O 0.90092 0.57018 0.2556 0.0
O18 O 0.01187 0.55854 0.29777 0.0
O19 O -0.00457 0.67065 0.17856 0.0
O20 O 0.09657 0.6745 0.22822 0.0
O21 O 0.99077 0.54908 0.1839 0.0
Sc22 Sc 0.43687 0.3863 0.21814 0.0
Sc23 Sc 0.38543 0.44004 0.26126 0.0
Sc24 Sc 0.32495 0.32791 0.24072 0.0
O25 O 0.38316 0.38545 0.23978 0.0
C26 C 0.35815 0.33351 0.15725 0.0
C27 C 0.45011 0.47869 0.1883 0.0
C28 C 0.29207 0.39536 0.22516 0.0
C29 C 0.47577 0.44966 0.292 0.0
C30 C 0.39084 0.29182 0.25331 0.0
C31 C 0.33503 0.36437 0.32326 0.0
O32 O 0.3968 0.34421 0.17073 0.0
O33 O 0.42959 0.48322 0.21694 0.0
O34 O 0.28466 0.35964 0.24181 0.0
O35 O 0.47998 0.42892 0.26332 0.0
O36 O 0.35413 0.28544 0.23957 0.0
O37 O 0.34157 0.40087 0.30799 0.0
O38 O 0.42549 0.33023 0.25355 0.0
O39 O 0.44139 0.4537 0.2973 0.0
O40 O 0.32931 0.33106 0.30285 0.0
O41 O 0.45269 0.44353 0.18268 0.0
O42 O 0.32586 0.3291 0.17853 0.0
O43 O 0.33073 0.42964 0.22489 0.0
Sc44 Sc 0.61347 0.05376 0.21813 0.0
Sc45 Sc 0.55886 0.94812 0.26008 0.0
Sc46 Sc 0.67106 -0.00105 0.23941 0.0
O47 O 0.61374 0.00042 0.23934 0.0
C48 C 0.66262 0.02488 0.1559 0.0
C49 C 0.52097 0.97463 0.18683 0.0
C50 C 0.60445 0.89891 0.22483 0.0
C51 C 0.54938 0.02965 0.29147 0.0
C52 C 0.70861 0.1008 0.25241 0.0
C53 C 0.63581 0.973 0.32257 0.0
O54 O 0.65434 0.05439 0.17001 0.0
O55 O 0.51661 0.94841 0.2144 0.0
O56 O 0.63987 0.92732 0.24157 0.0
O57 O 0.57193 0.05555 0.26392 0.0
O58 O 0.71415 0.07038 0.23756 0.0
O59 O 0.59761 0.94508 0.30829 0.0
O60 O 0.67043 0.09775 0.25329 0.0
O61 O 0.54357 0.99033 0.29528 0.0
O62 O 0.66889 5e-05 0.30161 0.0
O63 O 0.55543 0.01323 0.183 0.0
O64 O 0.66788 -0.00245 0.17714 0.0
O65 O 0.57006 0.90324 0.2243 0.0
Sc66 Sc 0.00375 0.33102 0.739 0.0
Sc67 Sc 0.05205 0.44358 0.75716 0.0
Sc68 Sc 0.94406 0.38447 0.71957 0.0
O69 O -0.00028 0.38694 0.7385 0.0
C70 C 0.97138 0.33439 0.65617 0.0
C71 C 0.10245 0.40113 0.71962 0.0
C72 C 0.01842 0.47858 0.68707 0.0
C73 C 0.03562 0.36991 0.82019 0.0
C74 C 0.90144 0.28979 0.75554 0.0
C75 C 0.96962 0.44777 0.79344 0.0
O76 O -2e-05 0.33044 0.67677 0.0
O77 O 0.0963 0.43439 0.71913 0.0
O78 O 0.98083 0.4428 0.68437 0.0
O79 O 0.00713 0.33579 0.80114 0.0
O80 O 0.9024 0.32695 0.75464 0.0
O81 O 0.00997 0.45606 0.7949 0.0
O82 O 0.93299 0.28533 0.74179 0.0
O83 O 0.06127 0.40763 0.80422 0.0
O84 O 0.94255 0.42478 0.76666 0.0
O85 O 0.07555 0.36521 0.73667 0.0
O86 O 0.94341 0.34479 0.67044 0.0
O87 O 0.04706 0.48453 0.71283 0.0
Sc88 Sc 0.5624 0.61716 0.76168 0.0
Sc89 Sc 0.61317 0.56159 0.71987 0.0
Sc90 Sc 0.67525 0.67389 0.74096 0.0
O91 O 0.61623 0.61695 0.74079 0.0
C92 C 0.61112 0.7126 0.72747 0.0
C93 C 0.52338 0.55405 0.68775 0.0
C94 C 0.66939 0.63841 0.65829 0.0
C95 C 0.54794 0.52408 0.79261 0.0
C96 C 0.63991 0.66799 0.82413 0.0
C97 C 0.70742 0.60477 0.75522 0.0
O98 O 0.57578 0.67468 0.72725 0.0
O99 O 0.55666 0.54779 0.68417 0.0
O100 O 0.67428 0.6714 0.67875 0.0
O101 O 0.54415 0.5588 0.79659 0.0
O102 O 0.67248 0.67259 0.80317 0.0
O103 O 0.66841 0.571 0.7555 0.0
O104 O 0.6015 0.65747 0.81023 0.0
O105 O 0.56978 0.51955 0.76508 0.0
O106 O 0.71522 0.64197 0.74156 0.0
O107 O 0.51973 0.57634 0.71543 0.0
O108 O 0.64773 0.71778 0.74031 0.0
O109 O 0.6562 0.59943 0.67213 0.0
Sc110 Sc 0.38782 0.94961 0.75981 0.0
Sc111 Sc 0.44351 0.05668 0.72022 0.0
Sc112 Sc 0.33087 0.00512 0.73848 0.0
O113 O 0.3881 0.00362 0.73957 0.0
C114 C 0.29271 0.90273 0.72559 0.0
C115 C 0.45311 0.97582 0.68697 0.0
C116 C 0.36958 0.03261 0.65621 0.0
C117 C 0.47996 0.02774 0.79271 0.0
C118 C 0.33623 0.97619 0.82206 0.0
C119 C 0.39713 0.10474 0.75571 0.0
O120 O 0.33086 0.90575 0.72467 0.0
O121 O 0.45941 0.01544 0.68417 0.0
O122 O 0.3354 0.0053 0.67604 0.0
O123 O 0.44547 0.98906 0.79548 0.0
O124 O 0.33156 0.00417 0.80107 0.0
O125 O 0.43149 0.10038 0.75685 0.0
O126 O 0.34672 0.94822 0.808 0.0
O127 O 0.48488 0.05493 0.76587 0.0
O128 O 0.36236 0.07685 0.73784 0.0
O129 O 0.4297 0.94898 0.71372 0.0
O130 O 0.2874 0.93392 0.73887 0.0
O131 O 0.40594 0.06189 0.67219 0.0
Sc132 Sc 0.67254 0.00915 0.57334 0.0
Sc133 Sc 0.61831 0.89591 0.55467 0.0
Sc134 Sc 0.72571 0.94966 0.59407 0.0
O135 O 0.67213 0.95089 0.57395 0.0
C136 C 0.77385 0.04297 0.55679 0.0
C137 C 0.64169 0.9715 0.49081 0.0
C138 C 0.69722 0.88218 0.523 0.0
C139 C 0.57089 0.94408 0.58987 0.0
C140 C 0.70453 0.00538 0.65557 0.0
C141 C 0.64538 0.86053 0.6292 0.0
O142 O 0.74418 0.05023 0.57092 0.0
O143 O 0.61518 0.93307 0.5054 0.0
O144 O 0.72422 0.90527 0.54965 0.0
O145 O 0.60116 0.98052 0.57578 0.0
O146 O 0.73133 0.99375 0.64107 0.0
O147 O 0.6186 0.8553 0.60181 0.0
O148 O 0.67557 0.00925 0.63554 0.0
O149 O 0.57407 0.90903 0.58942 0.0
O150 O 0.68483 0.89404 0.6314 0.0
O151 O 0.66926 0.00491 0.51114 0.0
O152 O 0.76966 0.00432 0.55691 0.0
O153 O 0.65836 0.87757 0.51968 0.0
Sc154 Sc -0.00466 0.66579 0.57475 0.0
Sc155 Sc 0.10692 0.72445 0.55572 0.0
Sc156 Sc 0.05207 0.77668 0.59634 0.0
O157 O 0.05268 0.72352 0.57555 0.0
C158 C 0.95839 0.72691 0.56203 0.0
C159 C 0.0301 0.67831 0.49193 0.0
C160 C 0.11833 0.81671 0.52488 0.0
C161 C 0.05689 0.6292 0.58752 0.0
C162 C 0.00525 0.69822 0.658 0.0
C163 C 0.14317 0.78732 0.62971 0.0
O164 O 0.9557 0.6966 0.58377 0.0
O165 O 0.06738 0.68533 0.50642 0.0
O166 O 0.0941 0.81971 0.55114 0.0
O167 O 0.02645 0.62639 0.56584 0.0
O168 O 0.01105 0.73522 0.64397 0.0
O169 O 0.14786 0.76473 0.60283 0.0
O170 O 0.00115 0.666 0.63662 0.0
O171 O 0.09271 0.66639 0.5908 0.0
O172 O 0.10979 0.79368 0.63191 0.0
O173 O -0.00292 0.673 0.51288 0.0
O174 O -0.00469 0.76316 0.55958 0.0
O175 O 0.12492 0.78354 0.52186 0.0
Sc176 Sc 0.34042 0.33844 0.57483 0.0
Sc177 Sc 0.28366 0.39296 0.54956 0.0
Sc178 Sc 0.22737 0.28687 0.59072 0.0
O179 O 0.28309 0.33949 0.57161 0.0
C180 C 0.27423 0.23769 0.55905 0.0
C181 C 0.33789 0.36666 0.491 0.0
C182 C 0.19346 0.31394 0.51529 0.0
C183 C 0.37617 0.44003 0.58842 0.0
C184 C 0.29978 0.31137 0.65625 0.0
C185 C 0.21628 0.36779 0.62026 0.0
O186 O 0.30939 0.2667 0.57582 0.0
O187 O 0.32834 0.39555 0.50431 0.0
O188 O 0.18729 0.2881 0.54367 0.0
O189 O 0.38286 0.40994 0.57445 0.0
O190 O 0.26358 0.28226 0.63999 0.0
O191 O 0.23895 0.39348 0.59269 0.0
O192 O 0.33432 0.33866 0.63688 0.0
O193 O 0.33798 0.43688 0.587 0.0
O194 O 0.21119 0.32889 0.62506 0.0
O195 O 0.3413 0.33841 0.51252 0.0
O196 O 0.24017 0.2424 0.55614 0.0
O197 O 0.22828 0.35232 0.51184 0.0
Sc198 Sc 0.7205 0.77256 0.09615 0.0
Sc199 Sc 0.61516 0.72003 0.05366 0.0
Sc200 Sc 0.6673 0.66013 0.0751 0.0
O201 O 0.66766 0.71831 0.07528 0.0
C202 C 0.76889 0.72553 0.06153 0.0
C203 C 0.69619 0.80947 0.02113 0.0
C204 C 0.6403 0.66853 -0.00775 0.0
C205 C 0.64103 0.78615 0.1256 0.0
C206 C 0.69463 0.69495 0.15841 0.0
C207 C 0.56676 0.62697 0.09062 0.0
O208 O 0.76517 0.76028 0.06109 0.0
O209 O 0.65743 0.7754 0.0169 0.0
O210 O 0.66811 0.66332 0.01279 0.0
O211 O 0.67909 0.7894 0.13105 0.0
O212 O 0.66729 0.66218 0.13734 0.0
O213 O 0.57089 0.6656 0.09059 0.0
O214 O 0.72229 0.73345 0.1445 0.0
O215 O 0.61581 0.76469 0.09742 0.0
O216 O 0.59541 0.61955 0.07448 0.0
O217 O 0.72124 0.81475 0.04995 0.0
O218 O 0.73884 0.68921 0.07596 0.0
O219 O 0.61054 0.6756 0.00738 0.0
Sc220 Sc 0.22203 0.94895 0.0932 0.0
Sc221 Sc 0.27653 0.89558 0.05425 0.0
Sc222 Sc 0.33479 0.0088 0.07382 0.0
O223 O 0.27717 0.95037 0.07374 0.0
C224 C 0.26777 0.04307 0.05728 0.0
C225 C 0.18417 0.88168 0.02197 0.0
C226 C 0.32826 0.97188 -0.00932 0.0
C227 C 0.21283 0.85937 0.12813 0.0
C228 C 0.29768 0.00377 0.15597 0.0
C229 C 0.37173 0.94389 0.08995 0.0
O230 O 0.23347 0.00437 0.05656 0.0
O231 O 0.21833 0.87683 0.01909 0.0
O232 O 0.33422 0.00514 0.01144 0.0
O233 O 0.20646 0.89269 0.12996 0.0
O234 O 0.33108 0.00836 0.13618 0.0
O235 O 0.33368 0.90874 0.08916 0.0
O236 O 0.25959 0.99203 0.14084 0.0
O237 O 0.23534 0.85448 0.10126 0.0
O238 O 0.37779 0.98037 0.07601 0.0
O239 O 0.18011 0.90524 0.04819 0.0
O240 O 0.30426 0.04998 0.07188 0.0
O241 O 0.31685 0.93341 0.00504 0.0
Sc242 Sc 0.05494 0.28687 0.0921 0.0
Sc243 Sc 0.11014 0.39348 0.05181 0.0
Sc244 Sc -0.00263 0.34188 0.06968 0.0
O245 O 0.05468 0.34055 0.07142 0.0
C246 C 0.96094 0.23958 0.05487 0.0
C247 C 0.11845 0.31247 0.01816 0.0
C248 C 0.03728 0.37274 0.98835 0.0
C249 C 0.14674 0.36475 0.12412 0.0
C250 C 0.00015 0.31081 0.15314 0.0
C251 C 0.06503 0.44171 0.08893 0.0
O252 O -0.00099 0.24252 0.05667 0.0
O253 O 0.12375 0.35161 0.01451 0.0
O254 O 0.00313 0.34422 0.00738 0.0
O255 O 0.11158 0.3269 0.12838 0.0
O256 O -0.00447 0.33871 0.1321 0.0
O257 O 0.09926 0.43704 0.08932 0.0
O258 O 0.01264 0.28419 0.1396 0.0
O259 O 0.15208 0.39067 0.09613 0.0
O260 O 0.02933 0.41378 0.07201 0.0
O261 O 0.09763 0.28682 0.04643 0.0
O262 O 0.95447 0.27058 0.06694 0.0
O263 O 0.07305 0.40138 0.00522 0.0
Sc264 Sc 0.33119 0.3412 0.90664 0.0
Sc265 Sc 0.27873 0.22895 0.8846 0.0
Sc266 Sc 0.38405 0.28188 0.92744 0.0
O267 O 0.33132 0.28326 0.90587 0.0
C268 C 0.43205 0.37583 0.89154 0.0
C269 C 0.30342 0.30779 0.82341 0.0
C270 C 0.35913 0.21668 0.85495 0.0
C271 C 0.22939 0.27517 0.91888 0.0
C272 C 0.35757 0.33189 0.98943 0.0
C273 C 0.30317 0.1913 0.95919 0.0
O274 O 0.40293 0.38239 0.90784 0.0
O275 O 0.27698 0.26846 0.83643 0.0
O276 O 0.38437 0.23841 0.88302 0.0
O277 O 0.25972 0.3118 0.90522 0.0
O278 O 0.38755 0.32506 0.9744 0.0
O279 O 0.2779 0.1864 0.93062 0.0
O280 O 0.32986 0.33717 0.96883 0.0
O281 O 0.23332 0.24054 0.91941 0.0
O282 O 0.34193 0.22542 0.96344 0.0
O283 O 0.33139 0.34012 0.84449 0.0
O284 O 0.42845 0.3374 0.89128 0.0
O285 O 0.32069 0.2127 0.84978 0.0
Sc286 Sc 0.77798 0.05068 0.88712 0.0
Sc287 Sc 0.72179 0.10194 0.92634 0.0
Sc288 Sc 0.66502 0.9898 0.90444 0.0
O289 O 0.72231 0.04821 0.90628 0.0
C290 C 0.70533 0.00129 0.823 0.0
C291 C 0.78732 0.14055 0.85375 0.0
C292 C 0.62799 0.05465 0.88923 0.0
C293 C 0.81344 0.1159 0.95986 0.0
C294 C 0.73241 0.95652 0.92158 0.0
C295 C 0.6681 0.02377 0.98767 0.0
O296 O 0.74091 0.00707 0.83952 0.0
O297 O 0.76466 0.14447 0.88097 0.0
O298 O 0.62184 0.01812 0.90318 0.0
O299 O 0.819 0.09444 0.93257 0.0
O300 O 0.69669 0.94948 0.90519 0.0
O301 O 0.67923 0.06228 0.9736 0.0
O302 O 0.76625 -0.00459 0.92368 0.0
O303 O 0.77844 0.11929 0.96299 0.0
O304 O 0.664 0.99118 0.96691 0.0
O305 O 0.7932 0.10699 0.85061 0.0
O306 O 0.67081 0.99441 0.84227 0.0
O307 O 0.66609 0.08968 0.89008 0.0
Sc308 Sc 0.94345 0.71525 0.88681 0.0
Sc309 Sc 0.88997 0.6091 0.9279 0.0
Sc310 Sc 0.0027 0.66215 0.90813 0.0
O311 O 0.94461 0.66204 0.90734 0.0
C312 C -0.00225 0.69122 0.82541 0.0
C313 C 0.85299 0.63531 0.85412 0.0
C314 C 0.93624 0.56053 0.89341 0.0
C315 C 0.87942 0.68941 0.96027 0.0
C316 C 0.0372 0.76299 0.92369 0.0
C317 C 0.96586 0.63466 -0.00949 0.0
O318 O 0.98625 0.71847 0.83933 0.0
O319 O 0.84768 0.60938 0.88222 0.0
O320 O 0.97262 0.59039 0.90803 0.0
O321 O 0.90036 0.71527 0.93218 0.0
O322 O 0.04437 0.73379 0.90842 0.0
O323 O 0.92855 0.60555 0.97574 0.0
O324 O -0.00123 0.75928 0.92307 0.0
O325 O 0.8745 0.65048 0.96379 0.0
O326 O -0.00096 0.66202 0.96999 0.0
O327 O 0.88713 0.67411 0.85059 0.0
O328 O 0.0022 0.66307 0.84611 0.0
O329 O 0.90178 0.56472 0.89236 0.0
Sc330 Sc 0.33161 -0.00262 0.40543 0.0
Sc331 Sc 0.38653 0.10995 0.42682 0.0
Sc332 Sc 0.27868 0.05743 0.38867 0.0
O333 O 0.33244 0.0557 0.40724 0.0
C334 C 0.29941 0.00547 0.32446 0.0
C335 C 0.43322 0.06263 0.38904 0.0
C336 C 0.35835 0.14629 0.35354 0.0
C337 C 0.36419 0.03224 0.48833 0.0
C338 C 0.23191 0.96444 0.42554 0.0
C339 C 0.30849 0.12325 0.4608 0.0
O340 O 0.32852 0.0003 0.34307 0.0
O341 O 0.43015 0.09773 0.39033 0.0
O342 O 0.31909 0.11256 0.35103 0.0
O343 O 0.33548 -0.00038 0.46784 0.0
O344 O 0.23623 0.00313 0.42643 0.0
O345 O 0.347 0.127 0.4638 0.0
O346 O 0.25985 0.95707 0.408 0.0
O347 O 0.39045 0.0712 0.47454 0.0
O348 O 0.28172 0.10212 0.43339 0.0
O349 O 0.40292 0.02586 0.40259 0.0
O350 O 0.27085 0.01259 0.34178 0.0
O351 O 0.38514 0.15166 0.381 0.0
Sc352 Sc 0.89315 0.27886 0.42465 0.0
Sc353 Sc 0.94911 0.22844 0.38341 0.0
Sc354 Sc 0.0052 0.3406 0.40478 0.0
O355 O 0.94841 0.28169 0.40442 0.0
C356 C 0.93825 0.37337 0.39006 0.0
C357 C 0.85674 0.21469 0.35123 0.0
C358 C -0.00347 0.30606 0.32122 0.0
C359 C 0.88556 0.18914 0.45692 0.0
C360 C 0.96911 0.33014 0.48773 0.0
C361 C 0.04428 0.27749 0.41709 0.0
O362 O 0.90418 0.33459 0.38872 0.0
O363 O 0.89127 0.21048 0.34802 0.0
O364 O 0.00154 0.33867 0.34246 0.0
O365 O 0.87872 0.22207 0.46008 0.0
O366 O 0.00262 0.33652 0.46706 0.0
O367 O 0.00633 0.24225 0.41853 0.0
O368 O 0.93145 0.321 0.47288 0.0
O369 O 0.90783 0.18517 0.42933 0.0
O370 O 0.04904 0.31304 0.40217 0.0
O371 O 0.8514 0.23604 0.3788 0.0
O372 O 0.97317 0.38036 0.40769 0.0
O373 O 0.98983 0.26892 0.33545 0.0
Sc374 Sc 0.71688 0.60745 0.42743 0.0
Sc375 Sc 0.77148 0.71455 0.38839 0.0
Sc376 Sc 0.65923 0.66253 0.40924 0.0
O377 O 0.71666 0.66155 0.40831 0.0
C378 C 0.62335 0.56213 0.3916 0.0
C379 C 0.78027 0.63424 0.35385 0.0
C380 C 0.69495 0.69142 0.32663 0.0
C381 C 0.80885 0.68465 0.45969 0.0
C382 C 0.66907 0.63404 0.49113 0.0
C383 C 0.72645 0.76293 0.42566 0.0
O384 O 0.66156 0.56543 0.39089 0.0
O385 O 0.78553 0.67337 0.35088 0.0
O386 O 0.66169 0.66356 0.34698 0.0
O387 O 0.77347 0.64687 0.46334 0.0
O388 O 0.663 0.66188 0.47141 0.0
O389 O 0.76076 0.75842 0.42575 0.0
O390 O 0.67424 0.60346 0.47518 0.0
O391 O 0.81426 0.71207 0.43281 0.0
O392 O 0.69042 0.7343 0.40969 0.0
O393 O 0.7595 0.60806 0.38174 0.0
O394 O 0.61683 0.59082 0.40877 0.0
O395 O 0.7324 0.71989 0.34172 0.0
C396 C 0.03313 0.49131 0.10063 0.0
C397 C 0.0641 0.47789 0.11102 0.0
C398 C 0.02405 0.51806 0.12508 0.0
C399 C 0.04551 0.53243 0.161 0.0
H400 H 0.01427 0.47948 0.07404 0.0
H401 H -0.00123 0.52614 0.11627 0.0
S402 S 0.13236 0.50955 0.20028 0.0
N403 N 0.11865 0.48344 0.15829 0.0
N404 N 0.10176 0.53394 0.20449 0.0
C405 C 0.07874 0.52166 0.17068 0.0
C406 C 0.08803 0.49435 0.14561 0.0
C407 C 0.48889 0.50974 0.12557 0.0
C408 C 0.47418 0.51679 0.16141 0.0
C409 C 0.51652 0.54561 0.10161 0.0
C410 C 0.53039 0.58995 0.11241 0.0
H411 H 0.48021 0.47633 0.11636 0.0
H412 H 0.52847 0.53861 0.07501 0.0
S413 S 0.49932 0.62673 0.20211 0.0
N414 N 0.47377 0.57171 0.2056 0.0
N415 N 0.52577 0.63906 0.16028 0.0
C416 C 0.51404 0.59749 0.14709 0.0
C417 C 0.48594 0.56092 0.17168 0.0
C418 C 0.48949 0.98742 0.12636 0.0
C419 C 0.48335 0.96104 0.15923 0.0
C420 C 0.45353 0.97953 0.10262 0.0
C421 C 0.40981 0.94483 0.11058 0.0
H422 H 0.5221 0.01553 0.11951 0.0
H423 H 0.45985 0.00205 0.07864 0.0
S424 S 0.3761 0.86277 0.19048 0.0
N425 N 0.43042 0.896 0.19649 0.0
N426 N 0.36285 0.88142 0.15172 0.0
C427 C 0.40351 0.91621 0.14173 0.0
C428 C 0.44024 0.92428 0.1661 0.0
C429 C 0.48121 0.02886 0.37747 0.0
C430 C 0.47038 0.06204 0.36823 0.0
C431 C 0.50873 0.02032 0.35349 0.0
C432 C 0.5265 0.04452 0.31915 0.0
H433 H 0.46671 0.00787 0.40264 0.0
H434 H 0.51467 0.99331 0.3613 0.0
S435 S 0.51195 0.13828 0.28397 0.0
N436 N 0.48243 0.12184 0.32422 0.0
N437 N 0.53439 0.10599 0.27889 0.0
C438 C 0.51848 0.07999 0.31093 0.0
C439 C 0.4904 0.08873 0.33555 0.0
C440 C 0.97944 0.49123 0.35531 0.0
C441 C 0.96027 0.48463 0.31841 0.0
C442 C 0.96973 0.45496 0.37939 0.0
C443 C 0.9404 0.4107 0.36759 0.0
H444 H 0.00295 0.5246 0.36541 0.0
H445 H 0.98653 0.4616 0.40704 0.0
S446 S 0.88102 0.37501 0.27392 0.0
N447 N 0.90977 0.43013 0.27146 0.0
N448 N 0.89169 0.36215 0.31696 0.0
C449 C 0.91963 0.40358 0.33143 0.0
C450 C 0.92958 0.4405 0.30676 0.0
C451 C 0.50621 0.48663 0.35537 0.0
C452 C 0.51348 0.47252 0.3193 0.0
C453 C 0.54193 0.51349 0.37973 0.0
C454 C 0.58623 0.52702 0.36909 0.0
H455 H 0.47278 0.47809 0.36443 0.0
H456 H 0.53487 0.52502 0.40654 0.0
S457 S 0.6234 0.49743 0.27876 0.0
N458 N 0.56844 0.47247 0.27495 0.0
N459 N 0.63553 0.52288 0.32104 0.0
C460 C 0.59392 0.51127 0.33412 0.0
C461 C 0.55754 0.48403 0.30913 0.0
C462 C 0.91384 0.5079 0.83777 0.0
C463 C 0.93696 0.52344 0.87286 0.0
C464 C 0.92263 0.48099 0.81304 0.0
C465 C 0.9548 0.46883 0.82267 0.0
H466 H 0.89122 0.51914 0.82807 0.0
H467 H 0.90616 0.47207 0.78521 0.0
S468 S 0.01711 0.49304 0.91496 0.0
N469 N 0.98814 0.51923 0.91864 0.0
N470 N 0.00442 0.46839 0.8723 0.0
C471 C 0.9751 0.48088 0.85919 0.0
C472 C 0.96621 0.50826 0.88427 0.0
C473 C 0.50463 0.49309 0.85362 0.0
C474 C 0.52401 0.48658 0.82026 0.0
C475 C 0.47735 0.45741 0.87789 0.0
C476 C 0.46823 0.41361 0.86995 0.0
H477 H 0.50935 0.52581 0.86056 0.0
H478 H 0.4619 0.46406 0.90236 0.0
S479 S 0.51414 0.37892 0.7885 0.0
N480 N 0.53499 0.43318 0.78227 0.0
N481 N 0.48343 0.36613 0.82804 0.0
C482 C 0.48954 0.40692 0.83811 0.0
C483 C 0.51742 0.44336 0.81323 0.0
C484 C 0.51081 0.01143 0.8517 0.0
C485 C 0.51704 0.04012 0.82057 0.0
C486 C 0.54648 0.01825 0.87527 0.0
C487 C 0.59001 0.05411 0.86887 0.0
H488 H 0.4784 0.98235 0.85721 0.0
H489 H 0.54008 0.99405 0.89783 0.0
S490 S 0.62352 0.1425 0.79452 0.0
N491 N 0.56956 0.1087 0.78709 0.0
N492 N 0.63668 0.12128 0.83155 0.0
C493 C 0.59628 0.08499 0.83969 0.0
C494 C 0.55982 0.07804 0.81549 0.0
C495 C 0.52438 0.97954 0.60221 0.0
C496 C 0.53368 0.94503 0.61043 0.0
C497 C 0.49643 0.98767 0.62602 0.0
C498 C 0.47658 0.9617 0.65917 0.0
H499 H 0.54034 0.00179 0.57801 0.0
H500 H 0.49176 0.01568 0.61906 0.0
S501 S 0.48638 0.86408 0.69121 0.0
N502 N 0.51787 0.8822 0.65213 0.0
N503 N 0.46509 0.89726 0.69703 0.0
C504 C 0.4831 0.92505 0.66627 0.0
C505 C 0.51166 0.91675 0.64186 0.0
C506 C 0.0725 0.55037 0.65408 0.0
C507 C 0.02815 0.51584 0.6604 0.0
C508 C 0.08195 0.58688 0.63015 0.0
C509 C 0.04738 0.59002 0.61166 0.0
H510 H 0.10015 0.54927 0.66777 0.0
H511 H 0.11648 0.61276 0.62616 0.0
S512 S 0.92523 0.51018 0.62129 0.0
N513 N 0.94929 0.48844 0.64774 0.0
N514 N 0.9667 0.5564 0.603 0.0
C515 C 0.00283 0.5558 0.61807 0.0
C516 C -0.00669 0.51888 0.64233 0.0
C517 C 0.45762 0.48753 0.60078 0.0
C518 C 0.41355 0.47689 0.60961 0.0
C519 C 0.4932 0.51453 0.6252 0.0
C520 C 0.48624 0.53196 0.65959 0.0
H521 H 0.46447 0.47321 0.57561 0.0
H522 H 0.52618 0.52028 0.6177 0.0
S523 S 0.3777 0.51806 0.69367 0.0
N524 N 0.36527 0.48899 0.65319 0.0
N525 N 0.43221 0.53999 0.69935 0.0
C526 C 0.44276 0.52427 0.66736 0.0
C527 C 0.40641 0.4967 0.64229 0.0
C528 C 0.69265 0.8108 0.43817 0.0
C529 C 0.72597 0.79994 0.44686 0.0
C530 C 0.68504 0.83901 0.46203 0.0
C531 C 0.71042 0.8576 0.49568 0.0
H532 H 0.67097 0.796 0.41343 0.0
H533 H 0.65802 0.84508 0.45459 0.0
S534 S 0.80476 0.84312 0.5294 0.0
N535 N 0.78692 0.81262 0.48976 0.0
N536 N 0.77286 0.86595 0.53481 0.0
C537 C 0.74582 0.84933 0.50344 0.0
C538 C 0.75357 0.82048 0.47897 0.0
C539 C 0.18465 0.88297 0.4381 0.0
C540 C 0.19615 0.92712 0.44762 0.0
C541 C 0.15792 0.84729 0.46251 0.0
C542 C 0.14154 0.85427 0.49746 0.0
H543 H 0.19783 0.87603 0.41221 0.0
H544 H 0.15117 0.81414 0.45439 0.0
S545 S 0.15899 0.96314 0.53426 0.0
N546 N 0.18675 0.97561 0.49308 0.0
N547 N 0.13621 0.90846 0.53915 0.0
C548 C 0.15051 0.89792 0.50627 0.0
C549 C 0.17785 0.93437 0.48128 0.0
C550 C 0.07677 0.25705 0.47229 0.0
C551 C 0.08314 0.28014 0.43741 0.0
C552 C 0.11301 0.26678 0.49651 0.0
C553 C 0.15694 0.2999 0.48667 0.0
H554 H 0.04333 0.23337 0.48217 0.0
H555 H 0.1061 0.24974 0.52404 0.0
S556 S 0.19201 0.36363 0.39482 0.0
N557 N 0.137 0.33314 0.39168 0.0
N558 N 0.20521 0.35117 0.43698 0.0
C559 C 0.16403 0.32069 0.45042 0.0
C560 C 0.12712 0.31085 0.42584 0.0
C561 C 0.15459 0.37232 0.70864 0.0
C562 C 0.13898 0.4013 0.69739 0.0
C563 C 0.18127 0.3633 0.68411 0.0
C564 C 0.19341 0.38292 0.64736 0.0
H565 H 0.14445 0.35484 0.736 0.0
H566 H 0.19123 0.33963 0.69361 0.0
S567 S 0.16422 0.46416 0.60544 0.0
N568 N 0.13993 0.45199 0.64826 0.0
N569 N 0.19051 0.43529 0.60192 0.0
C570 C 0.18048 0.41428 0.63669 0.0
C571 C 0.15318 0.42345 0.66181 0.0
C572 C 0.58836 0.74448 0.67332 0.0
C573 C 0.61249 0.75113 0.70767 0.0
C574 C 0.59756 0.78051 0.64899 0.0
C575 C 0.63118 0.82441 0.65821 0.0
H576 H 0.56445 0.71095 0.66383 0.0
H577 H 0.57992 0.77343 0.62175 0.0
S578 S 0.69678 0.86033 0.74907 0.0
N579 N 0.66638 0.80537 0.75263 0.0
N580 N 0.68342 0.87314 0.70714 0.0
C581 C 0.65265 0.83185 0.69416 0.0
C582 C 0.64334 0.79519 0.71884 0.0
C583 C 0.22357 0.8199 0.64838 0.0
C584 C 0.17981 0.80989 0.65811 0.0
C585 C 0.26003 0.84717 0.67213 0.0
C586 C 0.25392 0.86531 0.70639 0.0
H587 H 0.23018 0.80876 0.62117 0.0
H588 H 0.2934 0.85652 0.66226 0.0
S589 S 0.14534 0.84147 0.74897 0.0
N590 N 0.13185 0.8145 0.70737 0.0
N591 N 0.20038 0.86594 0.75186 0.0
C592 C 0.21001 0.8524 0.71808 0.0
C593 C 0.17295 0.82466 0.69397 0.0
C594 C 0.63666 0.84946 0.21339 0.0
C595 C 0.60627 0.86343 0.20239 0.0
C596 C 0.64641 0.82312 0.18897 0.0
C597 C 0.62625 0.80977 0.15246 0.0
H598 H 0.65436 0.86037 0.2406 0.0
H599 H 0.67087 0.81419 0.19843 0.0
S600 S 0.54305 0.83636 0.11051 0.0
N601 N 0.55484 0.8608 0.15324 0.0
N602 N 0.57299 0.81118 0.1071 0.0
C603 C 0.59419 0.82181 0.14179 0.0
C604 C 0.5842 0.84862 0.16683 0.0
C605 C 0.15287 0.74339 0.17268 0.0
C606 C 0.1358 0.75054 0.20717 0.0
C607 C 0.17978 0.77917 0.14808 0.0
C608 C 0.19053 0.82328 0.15716 0.0
H609 H 0.14297 0.70971 0.16336 0.0
H610 H 0.19009 0.77178 0.12079 0.0
S611 S 0.16129 0.86037 0.24784 0.0
N612 N 0.13652 0.80541 0.25175 0.0
N613 N 0.18737 0.87263 0.20582 0.0
C614 C 0.17662 0.83114 0.19309 0.0
C615 C 0.14921 0.79477 0.21801 0.0
C616 C 0.17585 0.35391 0.18659 0.0
C617 C 0.18373 0.37809 0.15205 0.0
C618 C 0.21092 0.36191 0.21142 0.0
C619 C 0.25528 0.39449 0.20281 0.0
H620 H 0.14249 0.32753 0.19406 0.0
H621 H 0.20335 0.34116 0.23689 0.0
S622 S 0.29367 0.46982 0.1178 0.0
N623 N 0.23909 0.43844 0.11191 0.0
N624 N 0.30503 0.45326 0.15877 0.0
C625 C 0.26344 0.42086 0.16964 0.0
C626 C 0.22766 0.41269 0.1442 0.0
C627 C 0.15264 0.26568 0.00029 0.0
C628 C 0.13981 0.29709 0.98954 0.0
C629 C 0.17857 0.2554 0.97563 0.0
C630 C 0.19244 0.27618 0.93945 0.0
H631 H 0.14484 0.25082 0.02878 0.0
H632 H 0.19043 0.23357 0.98611 0.0
S633 S 0.16015 0.35353 0.89453 0.0
N634 N 0.13727 0.34354 0.9379 0.0
N635 N 0.18628 0.32444 0.89177 0.0
C636 C 0.17673 0.30469 0.92711 0.0
C637 C 0.15037 0.31514 0.95212 0.0
C638 C 0.74156 0.89037 0.00383 0.0
C639 C 0.71151 0.84601 -0.00739 0.0
C640 C 0.75131 0.92629 0.97923 0.0
C641 C 0.73131 0.91895 0.94266 0.0
H642 H 0.75566 0.89767 0.03262 0.0
H643 H 0.77213 0.96002 0.98997 0.0
S644 S 0.65783 0.80896 0.89661 0.0
N645 N 0.66738 0.79654 0.94029 0.0
N646 N 0.68545 0.86413 0.89419 0.0
C647 C 0.70422 0.87469 0.9299 0.0
C648 C 0.69434 0.83816 0.95486 0.0
C649 C 0.15409 0.83998 0.96024 0.0
C650 C 0.14663 0.85684 -0.00527 0.0
C651 C 0.1186 0.81185 0.93614 0.0
C652 C 0.07419 0.79952 0.94546 0.0
H653 H 0.18753 0.84747 0.95225 0.0
H654 H 0.1259 0.79839 0.91064 0.0
S655 S 0.03651 0.83614 0.0314 0.0
N656 N 0.09138 0.86072 0.03609 0.0
N657 N 0.02469 0.80774 -0.00941 0.0
C658 C 0.06632 0.81788 0.97878 0.0
C659 C 0.10253 0.84654 0.00348 0.0
C660 C 0.35306 0.17871 0.79198 0.0
C661 C 0.37425 0.19345 0.82795 0.0
C662 C 0.36306 0.15252 0.76761 0.0
C663 C 0.39468 0.13996 0.77814 0.0
H664 H 0.32759 0.18641 0.78291 0.0
H665 H 0.34458 0.14063 0.74084 0.0
S666 S 0.46156 0.17173 0.86819 0.0
N667 N 0.43025 0.1954 0.87204 0.0
N668 N 0.44878 0.14593 0.82605 0.0
C669 C 0.41788 0.15631 0.81305 0.0
C670 C 0.40769 0.18305 0.83801 0.0
C671 C 0.83205 0.17223 0.79356 0.0
C672 C 0.81017 0.17771 0.82566 0.0
C673 C 0.85908 0.20817 0.76947 0.0
C674 C 0.86537 0.25116 0.77633 0.0
H675 H 0.82971 0.14029 0.78765 0.0
H676 H 0.87664 0.20249 0.74613 0.0
S677 S 0.81142 0.28252 0.85356 0.0
N678 N 0.79321 0.22885 0.86077 0.0
N679 N 0.84432 0.29645 0.81536 0.0
C680 C 0.84126 0.25658 0.80659 0.0
C681 C 0.81365 0.21987 0.8313 0.0
C682 C 0.77204 0.59114 0.83635 0.0
C683 C 0.81662 0.621 0.82553 0.0
C684 C 0.7364 0.58269 0.81179 0.0
C685 C 0.7443 0.60384 0.77571 0.0
H686 H 0.7644 0.57628 0.86486 0.0
H687 H 0.70251 0.56211 0.8223 0.0
S688 S 0.85488 0.67722 0.73061 0.0
N689 N 0.86676 0.66604 0.77389 0.0
N690 N 0.79972 0.65046 0.72797 0.0
C691 C 0.78872 0.63063 0.76325 0.0
C692 C 0.82493 0.63917 0.78813 0.0
C693 C 0.84447 0.73534 0.97885 0.0
C694 C 0.85784 0.70425 0.98914 0.0
C695 C 0.81856 0.74517 0.00395 0.0
C696 C 0.80522 0.72421 0.04013 0.0
H697 H 0.85193 0.75037 0.95041 0.0
H698 H 0.80642 0.76692 -0.00612 0.0
S699 S 0.83887 0.6473 0.08384 0.0
N700 N 0.86137 0.65779 0.04031 0.0
N701 N 0.81227 0.6759 0.08719 0.0
C702 C 0.8213 0.69584 0.05195 0.0
C703 C 0.84771 0.68592 0.02652 0.0
C704 C 0.25776 0.11006 0.97603 0.0
C705 C 0.28804 0.15435 0.9874 0.0
C706 C 0.24808 0.07383 0.00032 0.0
C707 C 0.26837 0.08075 0.03672 0.0
H708 H 0.24338 0.10307 0.94735 0.0
H709 H 0.22711 0.0402 0.98942 0.0
S710 S 0.34278 0.19028 0.08313 0.0
N711 N 0.33286 0.20318 0.03978 0.0
N712 N 0.31493 0.1351 0.0852 0.0
C713 C 0.29574 0.12492 0.04964 0.0
C714 C 0.30555 0.16173 0.02502 0.0
C715 C 0.84377 0.16286 0.01905 0.0
C716 C 0.85047 0.14094 0.98763 0.0
C717 C 0.87941 0.19245 0.04226 0.0
C718 C 0.92327 0.20129 0.03521 0.0
H719 H 0.81102 0.15864 0.02497 0.0
H720 H 0.87273 0.20995 0.065 0.0
S721 S 0.95823 0.14826 0.95998 0.0
N722 N 0.90393 0.12665 0.95325 0.0
N723 N 0.97095 0.18255 -0.00291 0.0
C724 C 0.93009 0.17716 0.00584 0.0
C725 C 0.8937 0.14695 0.98199 0.0
C726 C 0.26294 0.1586 0.47895 0.0
C727 C 0.2951 0.14657 0.48911 0.0
C728 C 0.25368 0.18551 0.50321 0.0
C729 C 0.27624 0.20126 0.53848 0.0
H730 H 0.24638 0.14913 0.45117 0.0
H731 H 0.23083 0.19628 0.49313 0.0
S732 S 0.35684 0.17217 0.58182 0.0
N733 N 0.34472 0.14723 0.5393 0.0
N734 N 0.32743 0.19794 0.58484 0.0
C735 C 0.30586 0.18665 0.55031 0.0
C736 C 0.3153 0.1593 0.52563 0.0
C737 C 0.85037 0.10823 0.47468 0.0
C738 C 0.86438 0.15268 0.48553 0.0
C739 C 0.82397 0.07247 0.49945 0.0
C740 C 0.81088 0.08013 0.5358 0.0
H741 H 0.8575 0.10079 0.44602 0.0
H742 H 0.81115 0.03863 0.48897 0.0
S743 S 0.8465 0.1905 0.58085 0.0
N744 N 0.86897 0.20255 0.53731 0.0
N745 N 0.81912 0.13536 0.58365 0.0
C746 C 0.82783 0.1245 0.54819 0.0
C747 C 0.85464 0.1608 0.52309 0.0
C748 C 0.91707 0.75049 0.51651 0.0
C749 C 0.91959 0.71669 0.53706 0.0
C750 C 0.8809 0.74014 0.49178 0.0
C751 C 0.84614 0.69565 0.48674 0.0
H752 H 0.94318 0.78507 0.51947 0.0
H753 H 0.88021 0.76717 0.47651 0.0
S754 S 0.83876 0.59435 0.53156 0.0
N755 N 0.88496 0.63647 0.54915 0.0
N756 N 0.81789 0.61741 0.50289 0.0
C757 C 0.8486 0.66158 0.50686 0.0
C758 C 0.88509 0.672 0.53193 0.0
C759 C 0.84361 0.58112 0.31106 0.0
C760 C 0.85704 0.60248 0.27509 0.0
C761 C 0.81646 0.58963 0.33569 0.0
C762 C 0.80201 0.61979 0.32505 0.0
H763 H 0.85682 0.5604 0.32148 0.0
H764 H 0.80918 0.57467 0.36416 0.0
S765 S 0.8201 0.67631 0.23033 0.0
N766 N 0.84838 0.64934 0.22748 0.0
N767 N 0.79703 0.66512 0.27366 0.0
C768 C 0.81187 0.63805 0.28771 0.0
C769 C 0.83947 0.6294 0.26272 0.0
C770 C 0.41288 0.26211 0.30942 0.0
C771 C 0.39027 0.25431 0.27407 0.0
C772 C 0.40405 0.22661 0.33427 0.0
C773 C 0.37233 0.18222 0.32452 0.0
H774 H 0.43519 0.29599 0.31916 0.0
H775 H 0.42032 0.23435 0.36219 0.0
S776 S 0.31131 0.14382 0.2316 0.0
N777 N 0.33992 0.19886 0.22802 0.0
N778 N 0.32356 0.13203 0.27447 0.0
C779 C 0.35241 0.17381 0.28779 0.0
C780 C 0.36135 0.20991 0.26261 0.0
C781 C 0.77587 0.1796 0.33291 0.0
C782 C 0.8201 0.19163 0.32282 0.0
C783 C 0.73988 0.15283 0.3085 0.0
C784 C 0.74688 0.13713 0.27318 0.0
H785 H 0.76865 0.189 0.36072 0.0
H786 H 0.70621 0.14209 0.31847 0.0
S787 S 0.85663 0.16592 0.23008 0.0
N788 N 0.8692 0.19087 0.2726 0.0
N789 N 0.80154 0.14021 0.22701 0.0
C790 C 0.7911 0.15158 0.26151 0.0
C791 C 0.82771 0.17889 0.28625 0.0
C792 C 0.06497 0.68629 0.42731 0.0
C793 C 0.02671 0.67692 0.4491 0.0
C794 C 0.06433 0.68579 0.38713 0.0
C795 C 0.02547 0.67594 0.36649 0.0
H796 H 0.09608 0.69392 0.44125 0.0
H797 H 0.09466 0.6925 0.37211 0.0
S798 S 0.91655 0.65143 0.409 0.0
N799 N 0.94902 0.65955 0.44671 0.0
N800 N 0.94778 0.65815 0.37058 0.0
C801 C 0.98714 0.66789 0.38755 0.0
C802 C 0.98774 0.66839 0.42891 0.0
C803 C 0.34881 0.40285 0.4271 0.0
C804 C 0.34206 0.36541 0.44851 0.0
C805 C 0.34568 0.40146 0.38703 0.0
C806 C 0.33592 0.36262 0.36609 0.0
H807 H 0.35571 0.43359 0.44143 0.0
H808 H 0.35101 0.43153 0.37252 0.0
S809 S 0.31813 0.25586 0.40809 0.0
N810 N 0.32676 0.28849 0.44586 0.0
N811 N 0.32183 0.2861 0.36986 0.0
C812 C 0.33054 0.32513 0.38691 0.0
C813 C 0.33354 0.32652 0.42819 0.0
C814 C 0.60514 0.94134 0.42738 0.0
C815 C 0.64103 0.9754 0.44811 0.0
C816 C 0.60469 0.94061 0.38714 0.0
C817 C 0.64006 0.97399 0.36535 0.0
H818 H 0.57692 0.91446 0.4423 0.0
H819 H 0.57594 0.91336 0.37312 0.0
S820 S 0.74221 0.07143 0.40534 0.0
N821 N 0.71327 0.04382 0.44378 0.0
N822 N 0.71208 0.0429 0.3677 0.0
C823 C 0.67625 0.00868 0.38555 0.0
C824 C 0.67674 0.00938 0.42693 0.0
C825 C 0.65888 0.05255 0.05078 0.0
C826 C 0.66265 0.01932 0.0303 0.0
C827 C 0.65988 0.05416 0.09095 0.0
C828 C 0.66435 0.0224 0.11306 0.0
H829 H 0.65583 0.07839 0.03568 0.0
H830 H 0.65709 0.08093 0.10463 0.0
S831 S 0.67287 0.92646 0.07389 0.0
N832 N 0.66971 0.95267 0.03518 0.0
N833 N 0.67048 0.95499 0.1113 0.0
C834 C 0.66696 0.98801 0.09317 0.0
C835 C 0.66619 0.98652 0.05176 0.0
C836 C 0.93323 0.60506 0.09489 0.0
C837 C 0.96771 0.64069 0.11557 0.0
C838 C 0.93394 0.60316 0.05481 0.0
C839 C 0.96897 0.63698 0.03318 0.0
H840 H 0.90539 0.57766 0.10972 0.0
H841 H 0.90642 0.57464 0.04078 0.0
S842 S 0.06641 0.73935 0.0729 0.0
N843 N 0.03754 0.71165 0.11133 0.0
N844 N 0.03834 0.70867 0.03534 0.0
C845 C 0.00338 0.67357 0.05323 0.0
C846 C 0.00277 0.67538 0.09449 0.0
C847 C 0.3833 0.32119 0.09366 0.0
C848 C 0.35282 0.32864 0.11481 0.0
C849 C 0.38454 0.32296 0.05352 0.0
C850 C 0.35521 0.33208 0.03227 0.0
H851 H 0.40723 0.31465 0.10826 0.0
H852 H 0.40908 0.31706 0.03918 0.0
S853 S 0.26661 0.35121 0.07368 0.0
N854 N 0.29107 0.34382 0.11168 0.0
N855 N 0.29276 0.3463 0.03559 0.0
C856 C 0.32332 0.33815 0.0529 0.0
C857 C 0.32218 0.33648 0.09423 0.0
C858 C 0.93483 0.32581 0.59237 0.0
C859 C 0.97148 0.32987 0.61347 0.0
C860 C 0.93517 0.32687 0.55213 0.0
C861 C 0.97215 0.3319 0.53066 0.0
H862 H 0.90545 0.32228 0.60702 0.0
H863 H 0.90577 0.32364 0.53787 0.0
S864 S 0.07633 0.34196 0.57167 0.0
N865 N 0.04582 0.33814 0.60983 0.0
N866 N 0.04614 0.33931 0.53374 0.0
C867 C 0.00892 0.33511 0.55122 0.0
C868 C 0.0086 0.33413 0.59261 0.0
C869 C 0.65774 0.66512 0.59461 0.0
C870 C 0.67577 0.64331 0.61614 0.0
C871 C 0.65571 0.66227 0.5541 0.0
C872 C 0.67155 0.6374 0.5339 0.0
H873 H 0.64322 0.68271 0.60919 0.0
H874 H 0.64066 0.67872 0.53865 0.0
S875 S 0.72829 0.5802 0.57742 0.0
N876 N 0.71392 0.60027 0.6146 0.0
N877 N 0.71079 0.59506 0.53891 0.0
C878 C 0.69191 0.61757 0.55534 0.0
C879 C 0.69386 0.6205 0.59633 0.0
C880 C 0.32759 0.00589 0.5931 0.0
C881 C 0.36829 0.03056 0.61319 0.0
C882 C 0.32646 0.00415 0.55247 0.0
C883 C 0.36601 0.02693 0.53055 0.0
H884 H 0.29628 0.98857 0.60878 0.0
H885 H 0.29431 0.98647 0.53814 0.0
S886 S 0.48165 0.09103 0.56856 0.0
N887 N 0.44963 0.07456 0.60735 0.0
N888 N 0.447 0.07131 0.53162 0.0
C889 C 0.40691 0.04989 0.55019 0.0
C890 C 0.40819 0.05171 0.59129 0.0
C891 C 0.32908 0.94019 0.88597 0.0
C892 C 0.33169 0.97626 0.86485 0.0
C893 C 0.32935 0.94011 0.92623 0.0
C894 C 0.33202 0.97599 0.94779 0.0
H895 H 0.32713 0.91148 0.87135 0.0
H896 H 0.32722 0.91116 0.94045 0.0
S897 S 0.33889 0.07886 0.90686 0.0
N898 N 0.33705 0.04929 0.86863 0.0
N899 N 0.33663 0.04878 0.94476 0.0
C900 C 0.33434 0.01242 0.92723 0.0
C901 C 0.33421 0.01255 0.88578 0.0
C902 C -0.00053 0.33998 0.92478 0.0
C903 C 0.03695 0.37234 0.94536 0.0
C904 C -0.00015 0.33779 0.88426 0.0
C905 C 0.03776 0.36782 0.86282 0.0
H906 H 0.96951 0.31617 0.94 0.0
H907 H 0.96976 0.31327 0.86964 0.0
S908 S 0.14578 0.45696 0.90244 0.0
N909 N 0.11388 0.43407 0.94063 0.0
N910 N 0.11456 0.42921 0.86518 0.0
C911 C 0.07582 0.39948 0.88303 0.0
C912 C 0.0754 0.40199 0.92405 0.0
C913 C 0.61232 0.67658 0.88804 0.0
C914 C 0.64455 0.67202 0.86675 0.0
C915 C 0.61112 0.6745 0.9282 0.0
C916 C 0.64224 0.66797 0.94936 0.0
H917 H 0.58708 0.68121 0.8736 0.0
H918 H 0.58523 0.67818 0.94262 0.0
S919 S 0.73538 0.65639 0.90769 0.0
N920 N 0.70956 0.66192 0.86977 0.0
N921 N 0.70788 0.6589 0.94583 0.0
C922 C 0.67562 0.66449 0.92862 0.0
C923 C 0.67673 0.66647 0.88727 0.0
C924 C 0.66546 0.99346 0.7191 0.0
C925 C 0.70553 0.01053 0.69792 0.0
C926 C 0.66541 0.99037 0.75957 0.0
C927 C 0.70541 0.00412 0.78017 0.0
H928 H 0.63376 0.98062 0.70425 0.0
H929 H 0.63372 0.97633 0.77467 0.0
S930 S 0.81987 0.05666 0.7378 0.0
N931 N 0.78638 0.04503 0.70036 0.0
N932 N 0.78676 0.03955 0.77591 0.0
C933 C 0.74589 0.02312 0.75913 0.0
C934 C 0.74582 0.02627 0.71817 0.0
C935 C 0.01405 0.73242 0.72291 0.0
C936 C 0.00411 0.69431 0.7007 0.0
C937 C 0.01402 0.73135 0.76306 0.0
C938 C 0.00408 0.69215 0.78314 0.0
H939 H 0.02187 0.76377 0.70935 0.0
H940 H 0.0212 0.76156 0.77849 0.0
S941 S 0.97798 0.58342 0.73932 0.0
N942 N 0.986 0.6164 0.70203 0.0
N943 N 0.98546 0.6143 0.77812 0.0
C944 C -0.00458 0.65395 0.76164 0.0
C945 C -0.00455 0.65502 0.72032 0.0
C946 C 0.34133 0.33597 0.71945 0.0
C947 C 0.30063 0.31297 0.69912 0.0
C948 C 0.34212 0.33661 0.76003 0.0
C949 C 0.30223 0.3143 0.7815 0.0
H950 H 0.37284 0.35264 0.704 0.0
H951 H 0.37416 0.3529 0.77463 0.0
S952 S 0.18675 0.25538 0.74282 0.0
N953 N 0.21913 0.27176 0.70423 0.0
N954 N 0.22114 0.27282 0.78001 0.0
C955 C 0.26141 0.29332 0.76168 0.0
C956 C 0.26046 0.29268 0.72063 0.0
C957 C 0.9876 0.27215 0.21613 0.0
C958 C -0.00589 0.31007 0.19563 0.0
C959 C 0.98901 0.27186 0.2563 0.0
C960 C -0.0032 0.30944 0.27834 0.0
H961 H 0.98224 0.24235 0.20098 0.0
H962 H 0.98405 0.24152 0.27003 0.0
S963 S 0.01227 0.41646 0.23893 0.0
N964 N 0.00645 0.38585 0.20031 0.0
N965 N 0.00814 0.38506 0.27642 0.0
C966 C 0.00162 0.34725 0.25839 0.0
C967 C 0.00035 0.34758 0.217 0.0
C968 C 0.72812 0.72436 0.2628 0.0
C969 C 0.69198 0.69083 0.28379 0.0
C970 C 0.72909 0.724 0.22262 0.0
C971 C 0.69385 0.69027 0.20108 0.0
H972 H 0.75644 0.75143 0.27743 0.0
H973 H 0.75788 0.751 0.20839 0.0
S974 S 0.59146 0.59355 0.24155 0.0
N975 N 0.62023 0.62174 0.27985 0.0
N976 N 0.6216 0.62167 0.20376 0.0
C977 C 0.65746 0.65601 0.22144 0.0
C978 C 0.65655 0.65625 0.26281 0.0
C979 C 0.33119 0.00028 0.26013 0.0
C980 C 0.29875 0.00479 0.28141 0.0
C981 C 0.3322 0.00208 0.21953 0.0
C982 C 0.30091 0.00866 0.19866 0.0
H983 H 0.35598 -0.0048 0.27487 0.0
H984 H 0.35686 -0.00298 0.20442 0.0
S985 S 0.21085 0.02539 0.24024 0.0
N986 N 0.23541 0.01782 0.27791 0.0
N987 N 0.23818 0.02222 0.20243 0.0
C988 C 0.26916 0.01449 0.2196 0.0
C989 C 0.2678 0.01223 0.26067 0.0
loop_
_geom_bond_atom_site_label_1
_geom_bond_atom_site_label_2
_geom_bond_distance
_geom_bond_site_symmetry_2
_ccdc_geom_bond_type
Sc0 O3 2.025 . S
Sc0 O10 2.105 . S
Sc0 O13 2.105 1_455 S
Sc0 O16 2.105 . S
Sc0 O19 2.105 1_455 S
Sc1 O3 2.025 1_655 S
Sc1 O11 2.105 . S
Sc1 O15 2.105 . S
Sc1 O17 2.105 . S
Sc1 O21 2.105 . S
Sc2 O3 2.025 . S
Sc2 O12 2.105 . S
Sc2 O14 2.105 . S
Sc2 O18 2.105 . S
Sc2 O20 2.105 . S
O3 Sc0 2.025 . S
O3 Sc1 2.025 1_455 S
O3 Sc2 2.025 . S
C4 O10 1.268 . S
C4 O20 1.268 . S
C5 O11 1.268 . S
C5 O19 1.268 . S
C6 O12 1.268 . S
C6 O21 1.268 1_455 S
C7 O13 1.268 . S
C7 O17 1.268 . S
C8 O14 1.268 . S
C8 O16 1.268 . S
C9 O15 1.268 . S
C9 O18 1.268 1_655 S
O10 Sc0 2.105 . S
O10 C4 1.268 . S
O11 Sc1 2.105 . S
O11 C5 1.268 . S
O12 Sc2 2.105 . S
O12 C6 1.268 . S
O13 Sc0 2.105 1_655 S
O13 C7 1.268 . S
O14 Sc2 2.105 . S
O14 C8 1.268 . S
O15 Sc1 2.105 . S
O15 C9 1.268 . S
O16 Sc0 2.105 . S
O16 C8 1.268 . S
O17 Sc1 2.105 . S
O17 C7 1.268 . S
O18 Sc2 2.105 . S
O18 C9 1.268 1_455 S
O19 Sc0 2.105 1_655 S
O19 C5 1.268 . S
O20 Sc2 2.105 . S
O20 C4 1.268 . S
O21 Sc1 2.105 . S
O21 C6 1.268 1_655 S
Sc22 O25 2.025 . S
Sc22 O32 2.105 . S
Sc22 O35 2.105 . S
Sc22 O38 2.105 . S
Sc22 O41 2.105 . S
Sc23 O25 2.025 . S
Sc23 O33 2.105 . S
Sc23 O37 2.105 . S
Sc23 O39 2.105 . S
Sc23 O43 2.105 . S
Sc24 O25 2.025 . S
Sc24 O34 2.105 . S
Sc24 O36 2.105 . S
Sc24 O40 2.105 . S
Sc24 O42 2.105 . S
O25 Sc22 2.025 . S
O25 Sc23 2.025 . S
O25 Sc24 2.025 . S
C26 O32 1.268 . S
C26 O42 1.268 . S
C27 O33 1.268 . S
C27 O41 1.268 . S
C28 O34 1.268 . S
C28 O43 1.268 . S
C29 O35 1.268 . S
C29 O39 1.268 . S
C30 O36 1.268 . S
C30 O38 1.268 . S
C31 O37 1.268 . S
C31 O40 1.268 . S
O32 Sc22 2.105 . S
O32 C26 1.268 . S
O33 Sc23 2.105 . S
O33 C27 1.268 . S
O34 Sc24 2.105 . S
O34 C28 1.268 . S
O35 Sc22 2.105 . S
O35 C29 1.268 . S
O36 Sc24 2.105 . S
O36 C30 1.268 . S
O37 Sc23 2.105 . S
O37 C31 1.268 . S
O38 Sc22 2.105 . S
O38 C30 1.268 . S
O39 Sc23 2.105 . S
O39 C29 1.268 . S
O40 Sc24 2.105 . S
O40 C31 1.268 . S
O41 Sc22 2.105 . S
O41 C27 1.268 . S
O42 Sc24 2.105 . S
O42 C26 1.268 . S
O43 Sc23 2.105 . S
O43 C28 1.268 . S
Sc44 O47 2.025 . S
Sc44 O54 2.105 . S
Sc44 O57 2.105 . S
Sc44 O60 2.105 . S
Sc44 O63 2.105 . S
Sc45 O47 2.025 1_565 S
Sc45 O55 2.105 . S
Sc45 O59 2.105 . S
Sc45 O61 2.105 . S
Sc45 O65 2.105 . S
Sc46 O47 2.025 . S
Sc46 O56 2.105 1_545 S
Sc46 O58 2.105 . S
Sc46 O62 2.105 1_545 S
Sc46 O64 2.105 . S
O47 Sc44 2.025 . S
O47 Sc45 2.025 1_545 S
O47 Sc46 2.025 . S
C48 O54 1.268 . S
C48 O64 1.268 . S
C49 O55 1.268 . S
C49 O63 1.268 1_565 S
C50 O56 1.268 . S
C50 O65 1.268 . S
C51 O57 1.268 . S
C51 O61 1.268 1_545 S
C52 O58 1.268 . S
C52 O60 1.268 . S
C53 O59 1.268 . S
C53 O62 1.268 . S
O54 Sc44 2.105 . S
O54 C48 1.268 . S
O55 Sc45 2.105 . S
O55 C49 1.268 . S
O56 Sc46 2.105 1_565 S
O56 C50 1.268 . S
O57 Sc44 2.105 . S
O57 C51 1.268 . S
O58 Sc46 2.105 . S
O58 C52 1.268 . S
O59 Sc45 2.105 . S
O59 C53 1.268 . S
O60 Sc44 2.105 . S
O60 C52 1.268 . S
O61 Sc45 2.105 . S
O61 C51 1.268 1_565 S
O62 Sc46 2.105 1_565 S
O62 C53 1.268 . S
O63 Sc44 2.105 . S
O63 C49 1.268 1_545 S
O64 Sc46 2.105 . S
O64 C48 1.268 . S
O65 Sc45 2.105 . S
O65 C50 1.268 . S
Sc66 O69 2.025 . S
Sc66 O76 2.105 1_455 S
Sc66 O79 2.105 . S
Sc66 O82 2.105 1_455 S
Sc66 O85 2.105 . S
Sc67 O69 2.025 . S
Sc67 O77 2.105 . S
Sc67 O81 2.105 . S
Sc67 O83 2.105 . S
Sc67 O87 2.105 . S
Sc68 O69 2.025 1_655 S
Sc68 O78 2.105 . S
Sc68 O80 2.105 . S
Sc68 O84 2.105 . S
Sc68 O86 2.105 . S
O69 Sc66 2.025 . S
O69 Sc67 2.025 . S
O69 Sc68 2.025 1_455 S
C70 O76 1.268 . S
C70 O86 1.268 . S
C71 O77 1.268 . S
C71 O85 1.268 . S
C72 O78 1.268 1_455 S
C72 O87 1.268 . S
C73 O79 1.268 . S
C73 O83 1.268 . S
C74 O80 1.268 . S
C74 O82 1.268 . S
C75 O81 1.268 1_655 S
C75 O84 1.268 . S
O76 Sc66 2.105 1_655 S
O76 C70 1.268 . S
O77 Sc67 2.105 . S
O77 C71 1.268 . S
O78 Sc68 2.105 . S
O78 C72 1.268 1_655 S
O79 Sc66 2.105 . S
O79 C73 1.268 . S
O80 Sc68 2.105 . S
O80 C74 1.268 . S
O81 Sc67 2.105 . S
O81 C75 1.268 1_455 S
O82 Sc66 2.105 1_655 S
O82 C74 1.268 . S
O83 Sc67 2.105 . S
O83 C73 1.268 . S
O84 Sc68 2.105 . S
O84 C75 1.268 . S
O85 Sc66 2.105 . S
O85 C71 1.268 . S
O86 Sc68 2.105 . S
O86 C70 1.268 . S
O87 Sc67 2.105 . S
O87 C72 1.268 . S
Sc88 O91 2.025 . S
Sc88 O98 2.105 . S
Sc88 O101 2.105 . S
Sc88 O104 2.105 . S
Sc88 O107 2.105 . S
Sc89 O91 2.025 . S
Sc89 O99 2.105 . S
Sc89 O103 2.105 . S
Sc89 O105 2.105 . S
Sc89 O109 2.105 . S
Sc90 O91 2.025 . S
Sc90 O100 2.105 . S
Sc90 O102 2.105 . S
Sc90 O106 2.105 . S
Sc90 O108 2.105 . S
O91 Sc88 2.025 . S
O91 Sc89 2.025 . S
O91 Sc90 2.025 . S
C92 O98 1.268 . S
C92 O108 1.268 . S
C93 O99 1.268 . S
C93 O107 1.268 . S
C94 O100 1.268 . S
C94 O109 1.268 . S
C95 O101 1.268 . S
C95 O105 1.268 . S
C96 O102 1.268 . S
C96 O104 1.268 . S
C97 O103 1.268 . S
C97 O106 1.268 . S
O98 Sc88 2.105 . S
O98 C92 1.268 . S
O99 Sc89 2.105 . S
O99 C93 1.268 . S
O100 Sc90 2.105 . S
O100 C94 1.268 . S
O101 Sc88 2.105 . S
O101 C95 1.268 . S
O102 Sc90 2.105 . S
O102 C96 1.268 . S
O103 Sc89 2.105 . S
O103 C97 1.268 . S
O104 Sc88 2.105 . S
O104 C96 1.268 . S
O105 Sc89 2.105 . S
O105 C95 1.268 . S
O106 Sc90 2.105 . S
O106 C97 1.268 . S
O107 Sc88 2.105 . S
O107 C93 1.268 . S
O108 Sc90 2.105 . S
O108 C92 1.268 . S
O109 Sc89 2.105 . S
O109 C94 1.268 . S
Sc110 O113 2.025 1_565 S
Sc110 O120 2.105 . S
Sc110 O123 2.105 . S
Sc110 O126 2.105 . S
Sc110 O129 2.105 . S
Sc111 O113 2.025 . S
Sc111 O121 2.105 . S
Sc111 O125 2.105 . S
Sc111 O127 2.105 . S
Sc111 O131 2.105 . S
Sc112 O113 2.025 . S
Sc112 O122 2.105 . S
Sc112 O124 2.105 1_545 S
Sc112 O128 2.105 . S
Sc112 O130 2.105 1_545 S
O113 Sc110 2.025 1_545 S
O113 Sc111 2.025 . S
O113 Sc112 2.025 . S
C114 O120 1.268 . S
C114 O130 1.268 . S
C115 O121 1.268 1_565 S
C115 O129 1.268 . S
C116 O122 1.268 . S
C116 O131 1.268 . S
C117 O123 1.268 1_545 S
C117 O127 1.268 . S
C118 O124 1.268 . S
C118 O126 1.268 . S
C119 O125 1.268 . S
C119 O128 1.268 . S
O120 Sc110 2.105 . S
O120 C114 1.268 . S
O121 Sc111 2.105 . S
O121 C115 1.268 1_545 S
O122 Sc112 2.105 . S
O122 C116 1.268 . S
O123 Sc110 2.105 . S
O123 C117 1.268 1_565 S
O124 Sc112 2.105 1_565 S
O124 C118 1.268 . S
O125 Sc111 2.105 . S
O125 C119 1.268 . S
O126 Sc110 2.105 . S
O126 C118 1.268 . S
O127 Sc111 2.105 . S
O127 C117 1.268 . S
O128 Sc112 2.105 . S
O128 C119 1.268 . S
O129 Sc110 2.105 . S
O129 C115 1.268 . S
O130 Sc112 2.105 1_565 S
O130 C114 1.268 . S
O131 Sc111 2.105 . S
O131 C116 1.268 . S
Sc132 O135 2.025 . S
Sc132 O142 2.105 1_565 S
Sc132 O145 2.105 . S
Sc132 O148 2.105 1_565 S
Sc132 O151 2.105 . S
Sc133 O135 2.025 . S
Sc133 O143 2.105 . S
Sc133 O147 2.105 . S
Sc133 O149 2.105 . S
Sc133 O153 2.105 . S
Sc134 O135 2.025 . S
Sc134 O144 2.105 . S
Sc134 O146 2.105 . S
Sc134 O150 2.105 . S
Sc134 O152 2.105 . S
O135 Sc132 2.025 . S
O135 Sc133 2.025 . S
O135 Sc134 2.025 . S
C136 O142 1.268 . S
C136 O152 1.268 1_545 S
C137 O143 1.268 . S
C137 O151 1.268 . S
C138 O144 1.268 . S
C138 O153 1.268 . S
C139 O145 1.268 . S
C139 O149 1.268 . S
C140 O146 1.268 . S
C140 O148 1.268 1_565 S
C141 O147 1.268 . S
C141 O150 1.268 . S
O142 Sc132 2.105 1_545 S
O142 C136 1.268 . S
O143 Sc133 2.105 . S
O143 C137 1.268 . S
O144 Sc134 2.105 . S
O144 C138 1.268 . S
O145 Sc132 2.105 . S
O145 C139 1.268 . S
O146 Sc134 2.105 . S
O146 C140 1.268 . S
O147 Sc133 2.105 . S
O147 C141 1.268 . S
O148 Sc132 2.105 1_545 S
O148 C140 1.268 1_545 S
O149 Sc133 2.105 . S
O149 C139 1.268 . S
O150 Sc134 2.105 . S
O150 C141 1.268 . S
O151 Sc132 2.105 . S
O151 C137 1.268 . S
O152 Sc134 2.105 . S
O152 C136 1.268 1_565 S
O153 Sc133 2.105 . S
O153 C138 1.268 . S
Sc154 O157 2.025 . S
Sc154 O164 2.105 1_455 S
Sc154 O167 2.105 . S
Sc154 O170 2.105 . S
Sc154 O173 2.105 . S
Sc155 O157 2.025 . S
Sc155 O165 2.105 . S
Sc155 O169 2.105 . S
Sc155 O171 2.105 . S
Sc155 O175 2.105 . S
Sc156 O157 2.025 . S
Sc156 O166 2.105 . S
Sc156 O168 2.105 . S
Sc156 O172 2.105 . S
Sc156 O174 2.105 . S
O157 Sc154 2.025 . S
O157 Sc155 2.025 . S
O157 Sc156 2.025 . S
C158 O164 1.268 . S
C158 O174 1.268 1_655 S
C159 O165 1.268 . S
C159 O173 1.268 . S
C160 O166 1.268 . S
C160 O175 1.268 . S
C161 O167 1.268 . S
C161 O171 1.268 . S
C162 O168 1.268 . S
C162 O170 1.268 . S
C163 O169 1.268 . S
C163 O172 1.268 . S
O164 Sc154 2.105 1_655 S
O164 C158 1.268 . S
O165 Sc155 2.105 . S
O165 C159 1.268 . S
O166 Sc156 2.105 . S
O166 C160 1.268 . S
O167 Sc154 2.105 . S
O167 C161 1.268 . S
O168 Sc156 2.105 . S
O168 C162 1.268 . S
O169 Sc155 2.105 . S
O169 C163 1.268 . S
O170 Sc154 2.105 . S
O170 C162 1.268 . S
O171 Sc155 2.105 . S
O171 C161 1.268 . S
O172 Sc156 2.105 . S
O172 C163 1.268 . S
O173 Sc154 2.105 . S
O173 C159 1.268 . S
O174 Sc156 2.105 . S
O174 C158 1.268 1_455 S
O175 Sc155 2.105 . S
O175 C160 1.268 . S
Sc176 O179 2.025 . S
Sc176 O186 2.105 . S
Sc176 O189 2.105 . S
Sc176 O192 2.105 . S
Sc176 O195 2.105 . S
Sc177 O179 2.025 . S
Sc177 O187 2.105 . S
Sc177 O191 2.105 . S
Sc177 O193 2.105 . S
Sc177 O197 2.105 . S
Sc178 O179 2.025 . S
Sc178 O188 2.105 . S
Sc178 O190 2.105 . S
Sc178 O194 2.105 . S
Sc178 O196 2.105 . S
O179 Sc176 2.025 . S
O179 Sc177 2.025 . S
O179 Sc178 2.025 . S
C180 O186 1.268 . S
C180 O196 1.268 . S
C181 O187 1.268 . S
C181 O195 1.268 . S
C182 O188 1.268 . S
C182 O197 1.268 . S
C183 O189 1.268 . S
C183 O193 1.268 . S
C184 O190 1.268 . S
C184 O192 1.268 . S
C185 O191 1.268 . S
C185 O194 1.268 . S
O186 Sc176 2.105 . S
O186 C180 1.268 . S
O187 Sc177 2.105 . S
O187 C181 1.268 . S
O188 Sc178 2.105 . S
O188 C182 1.268 . S
O189 Sc176 2.105 . S
O189 C183 1.268 . S
O190 Sc178 2.105 . S
O190 C184 1.268 . S
O191 Sc177 2.105 . S
O191 C185 1.268 . S
O192 Sc176 2.105 . S
O192 C184 1.268 . S
O193 Sc177 2.105 . S
O193 C183 1.268 . S
O194 Sc178 2.105 . S
O194 C185 1.268 . S
O195 Sc176 2.105 . S
O195 C181 1.268 . S
O196 Sc178 2.105 . S
O196 C180 1.268 . S
O197 Sc177 2.105 . S
O197 C182 1.268 . S
Sc198 O201 2.025 . S
Sc198 O208 2.105 . S
Sc198 O211 2.105 . S
Sc198 O214 2.105 . S
Sc198 O217 2.105 . S
Sc199 O201 2.025 . S
Sc199 O209 2.105 . S
Sc199 O213 2.105 . S
Sc199 O215 2.105 . S
Sc199 O219 2.105 . S
Sc200 O201 2.025 . S
Sc200 O210 2.105 . S
Sc200 O212 2.105 . S
Sc200 O216 2.105 . S
Sc200 O218 2.105 . S
O201 Sc198 2.025 . S
O201 Sc199 2.025 . S
O201 Sc200 2.025 . S
C202 O208 1.268 . S
C202 O218 1.268 . S
C203 O209 1.268 . S
C203 O217 1.268 . S
C204 O210 1.268 . S
C204 O219 1.268 . S
C205 O211 1.268 . S
C205 O215 1.268 . S
C206 O212 1.268 . S
C206 O214 1.268 . S
C207 O213 1.268 . S
C207 O216 1.268 . S
O208 Sc198 2.105 . S
O208 C202 1.268 . S
O209 Sc199 2.105 . S
O209 C203 1.268 . S
O210 Sc200 2.105 . S
O210 C204 1.268 . S
O211 Sc198 2.105 . S
O211 C205 1.268 . S
O212 Sc200 2.105 . S
O212 C206 1.268 . S
O213 Sc199 2.105 . S
O213 C207 1.268 . S
O214 Sc198 2.105 . S
O214 C206 1.268 . S
O215 Sc199 2.105 . S
O215 C205 1.268 . S
O216 Sc200 2.105 . S
O216 C207 1.268 . S
O217 Sc198 2.105 . S
O217 C203 1.268 . S
O218 Sc200 2.105 . S
O218 C202 1.268 . S
O219 Sc199 2.105 . S
O219 C204 1.268 . S
Sc220 O223 2.025 . S
Sc220 O230 2.105 . S
Sc220 O233 2.105 . S
Sc220 O236 2.105 . S
Sc220 O239 2.105 . S
Sc221 O223 2.025 . S
Sc221 O231 2.105 . S
Sc221 O235 2.105 . S
Sc221 O237 2.105 . S
Sc221 O241 2.105 . S
Sc222 O223 2.025 . S
Sc222 O232 2.105 . S
Sc222 O234 2.105 1_565 S
Sc222 O238 2.105 . S
Sc222 O240 2.105 1_565 S
O223 Sc220 2.025 . S
O223 Sc221 2.025 . S
O223 Sc222 2.025 . S
C224 O230 1.268 1_545 S
C224 O240 1.268 . S
C225 O231 1.268 . S
C225 O239 1.268 . S
C226 O232 1.268 . S
C226 O241 1.268 . S
C227 O233 1.268 . S
C227 O237 1.268 . S
C228 O234 1.268 1_565 S
C228 O236 1.268 . S
C229 O235 1.268 . S
C229 O238 1.268 . S
O230 Sc220 2.105 . S
O230 C224 1.268 1_565 S
O231 Sc221 2.105 . S
O231 C225 1.268 . S
O232 Sc222 2.105 . S
O232 C226 1.268 . S
O233 Sc220 2.105 . S
O233 C227 1.268 . S
O234 Sc222 2.105 1_545 S
O234 C228 1.268 1_545 S
O235 Sc221 2.105 . S
O235 C229 1.268 . S
O236 Sc220 2.105 . S
O236 C228 1.268 . S
O237 Sc221 2.105 . S
O237 C227 1.268 . S
O238 Sc222 2.105 . S
O238 C229 1.268 . S
O239 Sc220 2.105 . S
O239 C225 1.268 . S
O240 Sc222 2.105 1_545 S
O240 C224 1.268 . S
O241 Sc221 2.105 . S
O241 C226 1.268 . S
Sc242 O245 2.025 . S
Sc242 O252 2.105 . S
Sc242 O255 2.105 . S
Sc242 O258 2.105 . S
Sc242 O261 2.105 . S
Sc243 O245 2.025 . S
Sc243 O253 2.105 . S
Sc243 O257 2.105 . S
Sc243 O259 2.105 . S
Sc243 O263 2.105 . S
Sc244 O245 2.025 . S
Sc244 O254 2.105 . S
Sc244 O256 2.105 . S
Sc244 O260 2.105 . S
Sc244 O262 2.105 1_455 S
O245 Sc242 2.025 . S
O245 Sc243 2.025 . S
O245 Sc244 2.025 . S
C246 O252 1.268 1_655 S
C246 O262 1.268 . S
C247 O253 1.268 . S
C247 O261 1.268 . S
C248 O254 1.268 . S
C248 O263 1.268 . S
C249 O255 1.268 . S
C249 O259 1.268 . S
C250 O256 1.268 . S
C250 O258 1.268 . S
C251 O257 1.268 . S
C251 O260 1.268 . S
O252 Sc242 2.105 . S
O252 C246 1.268 1_455 S
O253 Sc243 2.105 . S
O253 C247 1.268 . S
O254 Sc244 2.105 . S
O254 C248 1.268 . S
O255 Sc242 2.105 . S
O255 C249 1.268 . S
O256 Sc244 2.105 . S
O256 C250 1.268 . S
O257 Sc243 2.105 . S
O257 C251 1.268 . S
O258 Sc242 2.105 . S
O258 C250 1.268 . S
O259 Sc243 2.105 . S
O259 C249 1.268 . S
O260 Sc244 2.105 . S
O260 C251 1.268 . S
O261 Sc242 2.105 . S
O261 C247 1.268 . S
O262 Sc244 2.105 1_655 S
O262 C246 1.268 . S
O263 Sc243 2.105 . S
O263 C248 1.268 . S
Sc264 O267 2.025 . S
Sc264 O274 2.105 . S
Sc264 O277 2.105 . S
Sc264 O280 2.105 . S
Sc264 O283 2.105 . S
Sc265 O267 2.025 . S
Sc265 O275 2.105 . S
Sc265 O279 2.105 . S
Sc265 O281 2.105 . S
Sc265 O285 2.105 . S
Sc266 O267 2.025 . S
Sc266 O276 2.105 . S
Sc266 O278 2.105 . S
Sc266 O282 2.105 . S
Sc266 O284 2.105 . S
O267 Sc264 2.025 . S
O267 Sc265 2.025 . S
O267 Sc266 2.025 . S
C268 O274 1.268 . S
C268 O284 1.268 . S
C269 O275 1.268 . S
C269 O283 1.268 . S
C270 O276 1.268 . S
C270 O285 1.268 . S
C271 O277 1.268 . S
C271 O281 1.268 . S
C272 O278 1.268 . S
C272 O280 1.268 . S
C273 O279 1.268 . S
C273 O282 1.268 . S
O274 Sc264 2.105 . S
O274 C268 1.268 . S
O275 Sc265 2.105 . S
O275 C269 1.268 . S
O276 Sc266 2.105 . S
O276 C270 1.268 . S
O277 Sc264 2.105 . S
O277 C271 1.268 . S
O278 Sc266 2.105 . S
O278 C272 1.268 . S
O279 Sc265 2.105 . S
O279 C273 1.268 . S
O280 Sc264 2.105 . S
O280 C272 1.268 . S
O281 Sc265 2.105 . S
O281 C271 1.268 . S
O282 Sc266 2.105 . S
O282 C273 1.268 . S
O283 Sc264 2.105 . S
O283 C269 1.268 . S
O284 Sc266 2.105 . S
O284 C268 1.268 . S
O285 Sc265 2.105 . S
O285 C270 1.268 . S
Sc286 O289 2.025 . S
Sc286 O296 2.105 . S
Sc286 O299 2.105 . S
Sc286 O302 2.105 . S
Sc286 O305 2.105 . S
Sc287 O289 2.025 . S
Sc287 O297 2.105 . S
Sc287 O301 2.105 . S
Sc287 O303 2.105 . S
Sc287 O307 2.105 . S
Sc288 O289 2.025 . S
Sc288 O298 2.105 . S
Sc288 O300 2.105 1_545 S
Sc288 O304 2.105 . S
Sc288 O306 2.105 . S
O289 Sc286 2.025 . S
O289 Sc287 2.025 . S
O289 Sc288 2.025 . S
C290 O296 1.268 . S
C290 O306 1.268 . S
C291 O297 1.268 . S
C291 O305 1.268 . S
C292 O298 1.268 . S
C292 O307 1.268 . S
C293 O299 1.268 . S
C293 O303 1.268 . S
C294 O300 1.268 . S
C294 O302 1.268 1_565 S
C295 O301 1.268 . S
C295 O304 1.268 . S
O296 Sc286 2.105 . S
O296 C290 1.268 . S
O297 Sc287 2.105 . S
O297 C291 1.268 . S
O298 Sc288 2.105 . S
O298 C292 1.268 . S
O299 Sc286 2.105 . S
O299 C293 1.268 . S
O300 Sc288 2.105 1_565 S
O300 C294 1.268 . S
O301 Sc287 2.105 . S
O301 C295 1.268 . S
O302 Sc286 2.105 . S
O302 C294 1.268 1_545 S
O303 Sc287 2.105 . S
O303 C293 1.268 . S
O304 Sc288 2.105 . S
O304 C295 1.268 . S
O305 Sc286 2.105 . S
O305 C291 1.268 . S
O306 Sc288 2.105 . S
O306 C290 1.268 . S
O307 Sc287 2.105 . S
O307 C292 1.268 . S
Sc308 O311 2.025 . S
Sc308 O318 2.105 . S
Sc308 O321 2.105 . S
Sc308 O324 2.105 . S
Sc308 O327 2.105 . S
Sc309 O311 2.025 . S
Sc309 O319 2.105 . S
Sc309 O323 2.105 . S
Sc309 O325 2.105 . S
Sc309 O329 2.105 . S
Sc310 O311 2.025 . S
Sc310 O320 2.105 . S
Sc310 O322 2.105 1_655 S
Sc310 O326 2.105 . S
Sc310 O328 2.105 1_655 S
O311 Sc308 2.025 . S
O311 Sc309 2.025 . S
O311 Sc310 2.025 . S
C312 O318 1.268 . S
C312 O328 1.268 1_655 S
C313 O319 1.268 . S
C313 O327 1.268 . S
C314 O320 1.268 . S
C314 O329 1.268 . S
C315 O321 1.268 . S
C315 O325 1.268 . S
C316 O322 1.268 . S
C316 O324 1.268 1_455 S
C317 O323 1.268 . S
C317 O326 1.268 . S
O318 Sc308 2.105 . S
O318 C312 1.268 . S
O319 Sc309 2.105 . S
O319 C313 1.268 . S
O320 Sc310 2.105 . S
O320 C314 1.268 . S
O321 Sc308 2.105 . S
O321 C315 1.268 . S
O322 Sc310 2.105 1_455 S
O322 C316 1.268 . S
O323 Sc309 2.105 . S
O323 C317 1.268 . S
O324 Sc308 2.105 . S
O324 C316 1.268 1_655 S
O325 Sc309 2.105 . S
O325 C315 1.268 . S
O326 Sc310 2.105 . S
O326 C317 1.268 . S
O327 Sc308 2.105 . S
O327 C313 1.268 . S
O328 Sc310 2.105 1_455 S
O328 C312 1.268 1_455 S
O329 Sc309 2.105 . S
O329 C314 1.268 . S
Sc330 O333 2.025 . S
Sc330 O340 2.105 . S
Sc330 O343 2.105 . S
Sc330 O346 2.105 1_545 S
Sc330 O349 2.105 . S
Sc331 O333 2.025 . S
Sc331 O341 2.105 . S
Sc331 O345 2.105 . S
Sc331 O347 2.105 . S
Sc331 O351 2.105 . S
Sc332 O333 2.025 . S
Sc332 O342 2.105 . S
Sc332 O344 2.105 . S
Sc332 O348 2.105 . S
Sc332 O350 2.105 . S
O333 Sc330 2.025 . S
O333 Sc331 2.025 . S
O333 Sc332 2.025 . S
C334 O340 1.268 . S
C334 O350 1.268 . S
C335 O341 1.268 . S
C335 O349 1.268 . S
C336 O342 1.268 . S
C336 O351 1.268 . S
C337 O343 1.268 . S
C337 O347 1.268 . S
C338 O344 1.268 1_565 S
C338 O346 1.268 . S
C339 O345 1.268 . S
C339 O348 1.268 . S
O340 Sc330 2.105 . S
O340 C334 1.268 . S
O341 Sc331 2.105 . S
O341 C335 1.268 . S
O342 Sc332 2.105 . S
O342 C336 1.268 . S
O343 Sc330 2.105 . S
O343 C337 1.268 . S
O344 Sc332 2.105 . S
O344 C338 1.268 1_545 S
O345 Sc331 2.105 . S
O345 C339 1.268 . S
O346 Sc330 2.105 1_565 S
O346 C338 1.268 . S
O347 Sc331 2.105 . S
O347 C337 1.268 . S
O348 Sc332 2.105 . S
O348 C339 1.268 . S
O349 Sc330 2.105 . S
O349 C335 1.268 . S
O350 Sc332 2.105 . S
O350 C334 1.268 . S
O351 Sc331 2.105 . S
O351 C336 1.268 . S
Sc352 O355 2.025 . S
Sc352 O362 2.105 . S
Sc352 O365 2.105 . S
Sc352 O368 2.105 . S
Sc352 O371 2.105 . S
Sc353 O355 2.025 . S
Sc353 O363 2.105 . S
Sc353 O367 2.105 . S
Sc353 O369 2.105 . S
Sc353 O373 2.105 . S
Sc354 O355 2.025 . S
Sc354 O364 2.105 1_655 S
Sc354 O366 2.105 . S
Sc354 O370 2.105 1_655 S
Sc354 O372 2.105 . S
O355 Sc352 2.025 . S
O355 Sc353 2.025 . S
O355 Sc354 2.025 . S
C356 O362 1.268 . S
C356 O372 1.268 . S
C357 O363 1.268 . S
C357 O371 1.268 . S
C358 O364 1.268 1_655 S
C358 O373 1.268 . S
C359 O365 1.268 . S
C359 O369 1.268 . S
C360 O366 1.268 . S
C360 O368 1.268 . S
C361 O367 1.268 1_455 S
C361 O370 1.268 . S
O362 Sc352 2.105 . S
O362 C356 1.268 . S
O363 Sc353 2.105 . S
O363 C357 1.268 . S
O364 Sc354 2.105 1_455 S
O364 C358 1.268 1_455 S
O365 Sc352 2.105 . S
O365 C359 1.268 . S
O366 Sc354 2.105 . S
O366 C360 1.268 . S
O367 Sc353 2.105 . S
O367 C361 1.268 1_655 S
O368 Sc352 2.105 . S
O368 C360 1.268 . S
O369 Sc353 2.105 . S
O369 C359 1.268 . S
O370 Sc354 2.105 1_455 S
O370 C361 1.268 . S
O371 Sc352 2.105 . S
O371 C357 1.268 . S
O372 Sc354 2.105 . S
O372 C356 1.268 . S
O373 Sc353 2.105 . S
O373 C358 1.268 . S
Sc374 O377 2.025 . S
Sc374 O384 2.105 . S
Sc374 O387 2.105 . S
Sc374 O390 2.105 . S
Sc374 O393 2.105 . S
Sc375 O377 2.025 . S
Sc375 O385 2.105 . S
Sc375 O389 2.105 . S
Sc375 O391 2.105 . S
Sc375 O395 2.105 . S
Sc376 O377 2.025 . S
Sc376 O386 2.105 . S
Sc376 O388 2.105 . S
Sc376 O392 2.105 . S
Sc376 O394 2.105 . S
O377 Sc374 2.025 . S
O377 Sc375 2.025 . S
O377 Sc376 2.025 . S
C378 O384 1.268 . S
C378 O394 1.268 . S
C379 O385 1.268 . S
C379 O393 1.268 . S
C380 O386 1.268 . S
C380 O395 1.268 . S
C381 O387 1.268 . S
C381 O391 1.268 . S
C382 O388 1.268 . S
C382 O390 1.268 . S
C383 O389 1.268 . S
C383 O392 1.268 . S
O384 Sc374 2.105 . S
O384 C378 1.268 . S
O385 Sc375 2.105 . S
O385 C379 1.268 . S
O386 Sc376 2.105 . S
O386 C380 1.268 . S
O387 Sc374 2.105 . S
O387 C381 1.268 . S
O388 Sc376 2.105 . S
O388 C382 1.268 . S
O389 Sc375 2.105 . S
O389 C383 1.268 . S
O390 Sc374 2.105 . S
O390 C382 1.268 . S
O391 Sc375 2.105 . S
O391 C381 1.268 . S
O392 Sc376 2.105 . S
O392 C383 1.268 . S
O393 Sc374 2.105 . S
O393 C379 1.268 . S
O394 Sc376 2.105 . S
O394 C378 1.268 . S
O395 Sc375 2.105 . S
O395 C380 1.268 . S
C396 C397 1.369 . S
C396 C398 1.419 . S
C396 H400 0.930 . S
C397 C396 1.369 . S
C397 C406 1.429 . S
C398 C396 1.419 . S
C398 C399 1.363 . S
C398 H401 0.929 1_455 S
C399 C398 1.363 . S
C399 C405 1.428 . S
H400 C396 0.930 . S
H401 C398 0.929 1_655 S
S402 N403 1.613 . S
S402 N404 1.610 . S
N403 S402 1.613 . S
N403 C406 1.350 . S
N404 S402 1.610 . S
N404 C405 1.351 . S
C405 C399 1.428 . S
C405 N404 1.351 . S
C405 C406 1.434 . S
C406 C397 1.429 . S
C406 N403 1.350 . S
C406 C405 1.434 . S
C407 C408 1.369 . S
C407 C409 1.419 . S
C407 H411 0.930 . S
C408 C407 1.369 . S
C408 C417 1.429 . S
C409 C407 1.419 . S
C409 C410 1.363 . S
C409 H412 0.929 . S
C410 C409 1.363 . S
C410 C416 1.428 . S
H411 C407 0.930 . S
H412 C409 0.929 . S
S413 N414 1.613 . S
S413 N415 1.610 . S
N414 S413 1.613 . S
N414 C417 1.350 . S
N415 S413 1.610 . S
N415 C416 1.351 . S
C416 C410 1.428 . S
C416 N415 1.351 . S
C416 C417 1.434 . S
C417 C408 1.429 . S
C417 N414 1.350 . S
C417 C416 1.434 . S
C418 C419 1.369 . S
C418 C420 1.419 . S
C418 H422 0.930 1_565 S
C419 C418 1.369 . S
C419 C428 1.429 . S
C420 C418 1.419 . S
C420 C421 1.363 . S
C420 H423 0.929 . S
C421 C420 1.363 . S
C421 C427 1.428 . S
H422 C418 0.930 1_545 S
H423 C420 0.929 . S
S424 N425 1.613 . S
S424 N426 1.610 . S
N425 S424 1.613 . S
N425 C428 1.350 . S
N426 S424 1.610 . S
N426 C427 1.351 . S
C427 C421 1.428 . S
C427 N426 1.351 . S
C427 C428 1.434 . S
C428 C419 1.429 . S
C428 N425 1.350 . S
C428 C427 1.434 . S
C429 C430 1.369 . S
C429 C431 1.419 . S
C429 H433 0.930 . S
C430 C429 1.369 . S
C430 C439 1.429 . S
C431 C429 1.419 . S
C431 C432 1.363 . S
C431 H434 0.929 . S
C432 C431 1.363 . S
C432 C438 1.428 . S
H433 C429 0.930 . S
H434 C431 0.929 . S
S435 N436 1.613 . S
S435 N437 1.610 . S
N436 S435 1.613 . S
N436 C439 1.350 . S
N437 S435 1.610 . S
N437 C438 1.351 . S
C438 C432 1.428 . S
C438 N437 1.351 . S
C438 C439 1.434 . S
C439 C430 1.429 . S
C439 N436 1.350 . S
C439 C438 1.434 . S
C440 C441 1.369 . S
C440 C442 1.419 . S
C440 H444 0.930 . S
C441 C440 1.369 . S
C441 C450 1.429 . S
C442 C440 1.419 . S
C442 C443 1.363 . S
C442 H445 0.929 . S
C443 C442 1.363 . S
C443 C449 1.428 . S
H444 C440 0.930 . S
H445 C442 0.929 . S
S446 N447 1.613 . S
S446 N448 1.610 . S
N447 S446 1.613 . S
N447 C450 1.350 . S
N448 S446 1.610 . S
N448 C449 1.351 . S
C449 C443 1.428 . S
C449 N448 1.351 . S
C449 C450 1.434 . S
C450 C441 1.429 . S
C450 N447 1.350 . S
C450 C449 1.434 . S
C451 C452 1.369 . S
C451 C453 1.419 . S
C451 H455 0.930 . S
C452 C451 1.369 . S
C452 C461 1.429 . S
C453 C451 1.419 . S
C453 C454 1.363 . S
C453 H456 0.929 . S
C454 C453 1.363 . S
C454 C460 1.428 . S
H455 C451 0.930 . S
H456 C453 0.929 . S
S457 N458 1.613 . S
S457 N459 1.610 . S
N458 S457 1.613 . S
N458 C461 1.350 . S
N459 S457 1.610 . S
N459 C460 1.351 . S
C460 C454 1.428 . S
C460 N459 1.351 . S
C460 C461 1.434 . S
C461 C452 1.429 . S
C461 N458 1.350 . S
C461 C460 1.434 . S
C462 C463 1.369 . S
C462 C464 1.419 . S
C462 H466 0.930 . S
C463 C462 1.369 . S
C463 C472 1.429 . S
C464 C462 1.419 . S
C464 C465 1.363 . S
C464 H467 0.929 . S
C465 C464 1.363 . S
C465 C471 1.428 . S
H466 C462 0.930 . S
H467 C464 0.929 . S
S468 N469 1.613 1_455 S
S468 N470 1.610 . S
N469 S468 1.613 1_655 S
N469 C472 1.350 . S
N470 S468 1.610 . S
N470 C471 1.351 1_455 S
C471 C465 1.428 . S
C471 N470 1.351 1_655 S
C471 C472 1.434 . S
C472 C463 1.429 . S
C472 N469 1.350 . S
C472 C471 1.434 . S
C473 C474 1.369 . S
C473 C475 1.419 . S
C473 H477 0.930 . S
C474 C473 1.369 . S
C474 C483 1.429 . S
C475 C473 1.419 . S
C475 C476 1.363 . S
C475 H478 0.929 . S
C476 C475 1.363 . S
C476 C482 1.428 . S
H477 C473 0.930 . S
H478 C475 0.929 . S
S479 N480 1.613 . S
S479 N481 1.610 . S
N480 S479 1.613 . S
N480 C483 1.350 . S
N481 S479 1.610 . S
N481 C482 1.351 . S
C482 C476 1.428 . S
C482 N481 1.351 . S
C482 C483 1.434 . S
C483 C474 1.429 . S
C483 N480 1.350 . S
C483 C482 1.434 . S
C484 C485 1.369 . S
C484 C486 1.419 . S
C484 H488 0.930 . S
C485 C484 1.369 . S
C485 C494 1.429 . S
C486 C484 1.419 . S
C486 C487 1.363 . S
C486 H489 0.929 . S
C487 C486 1.363 . S
C487 C493 1.428 . S
H488 C484 0.930 . S
H489 C486 0.929 . S
S490 N491 1.613 . S
S490 N492 1.610 . S
N491 S490 1.613 . S
N491 C494 1.350 . S
N492 S490 1.610 . S
N492 C493 1.351 . S
C493 C487 1.428 . S
C493 N492 1.351 . S
C493 C494 1.434 . S
C494 C485 1.429 . S
C494 N491 1.350 . S
C494 C493 1.434 . S
C495 C496 1.369 . S
C495 C497 1.419 . S
C495 H499 0.930 . S
C496 C495 1.369 . S
C496 C505 1.429 . S
C497 C495 1.419 . S
C497 C498 1.363 . S
C497 H500 0.929 . S
C498 C497 1.363 . S
C498 C504 1.428 . S
H499 C495 0.930 . S
H500 C497 0.929 . S
S501 N502 1.613 . S
S501 N503 1.610 . S
N502 S501 1.613 . S
N502 C505 1.350 . S
N503 S501 1.610 . S
N503 C504 1.351 . S
C504 C498 1.428 . S
C504 N503 1.351 . S
C504 C505 1.434 . S
C505 C496 1.429 . S
C505 N502 1.350 . S
C505 C504 1.434 . S
C506 C507 1.369 . S
C506 C508 1.419 . S
C506 H510 0.930 . S
C507 C506 1.369 . S
C507 C516 1.429 . S
C508 C506 1.419 . S
C508 C509 1.363 . S
C508 H511 0.929 . S
C509 C508 1.363 . S
C509 C515 1.428 . S
H510 C506 0.930 . S
H511 C508 0.929 . S
S512 N513 1.613 . S
S512 N514 1.610 1_655 S
N513 S512 1.613 . S
N513 C516 1.350 1_655 S
N514 S512 1.610 1_455 S
N514 C515 1.351 . S
C515 C509 1.428 . S
C515 N514 1.351 . S
C515 C516 1.434 . S
C516 C507 1.429 . S
C516 N513 1.350 1_455 S
C516 C515 1.434 . S
C517 C518 1.369 . S
C517 C519 1.419 . S
C517 H521 0.930 . S
C518 C517 1.369 . S
C518 C527 1.429 . S
C519 C517 1.419 . S
C519 C520 1.363 . S
C519 H522 0.929 . S
C520 C519 1.363 . S
C520 C526 1.428 . S
H521 C517 0.930 . S
H522 C519 0.929 . S
S523 N524 1.613 . S
S523 N525 1.610 . S
N524 S523 1.613 . S
N524 C527 1.350 . S
N525 S523 1.610 . S
N525 C526 1.351 . S
C526 C520 1.428 . S
C526 N525 1.351 . S
C526 C527 1.434 . S
C527 C518 1.429 . S
C527 N524 1.350 . S
C527 C526 1.434 . S
C528 C529 1.369 . S
C528 C530 1.419 . S
C528 H532 0.930 . S
C529 C528 1.369 . S
C529 C538 1.429 . S
C530 C528 1.419 . S
C530 C531 1.363 . S
C530 H533 0.929 . S
C531 C530 1.363 . S
C531 C537 1.428 . S
H532 C528 0.930 . S
H533 C530 0.929 . S
S534 N535 1.613 . S
S534 N536 1.610 . S
N535 S534 1.613 . S
N535 C538 1.350 . S
N536 S534 1.610 . S
N536 C537 1.351 . S
C537 C531 1.428 . S
C537 N536 1.351 . S
C537 C538 1.434 . S
C538 C529 1.429 . S
C538 N535 1.350 . S
C538 C537 1.434 . S
C539 C540 1.369 . S
C539 C541 1.419 . S
C539 H543 0.930 . S
C540 C539 1.369 . S
C540 C549 1.429 . S
C541 C539 1.419 . S
C541 C542 1.363 . S
C541 H544 0.929 . S
C542 C541 1.363 . S
C542 C548 1.428 . S
H543 C539 0.930 . S
H544 C541 0.929 . S
S545 N546 1.613 . S
S545 N547 1.610 . S
N546 S545 1.613 . S
N546 C549 1.350 . S
N547 S545 1.610 . S
N547 C548 1.351 . S
C548 C542 1.428 . S
C548 N547 1.351 . S
C548 C549 1.434 . S
C549 C540 1.429 . S
C549 N546 1.350 . S
C549 C548 1.434 . S
C550 C551 1.369 . S
C550 C552 1.419 . S
C550 H554 0.930 . S
C551 C550 1.369 . S
C551 C560 1.429 . S
C552 C550 1.419 . S
C552 C553 1.363 . S
C552 H555 0.929 . S
C553 C552 1.363 . S
C553 C559 1.428 . S
H554 C550 0.930 . S
H555 C552 0.929 . S
S556 N557 1.613 . S
S556 N558 1.610 . S
N557 S556 1.613 . S
N557 C560 1.350 . S
N558 S556 1.610 . S
N558 C559 1.351 . S
C559 C553 1.428 . S
C559 N558 1.351 . S
C559 C560 1.434 . S
C560 C551 1.429 . S
C560 N557 1.350 . S
C560 C559 1.434 . S
C561 C562 1.369 . S
C561 C563 1.419 . S
C561 H565 0.930 . S
C562 C561 1.369 . S
C562 C571 1.429 . S
C563 C561 1.419 . S
C563 C564 1.363 . S
C563 H566 0.929 . S
C564 C563 1.363 . S
C564 C570 1.428 . S
H565 C561 0.930 . S
H566 C563 0.929 . S
S567 N568 1.613 . S
S567 N569 1.610 . S
N568 S567 1.613 . S
N568 C571 1.350 . S
N569 S567 1.610 . S
N569 C570 1.351 . S
C570 C564 1.428 . S
C570 N569 1.351 . S
C570 C571 1.434 . S
C571 C562 1.429 . S
C571 N568 1.350 . S
C571 C570 1.434 . S
C572 C573 1.369 . S
C572 C574 1.419 . S
C572 H576 0.930 . S
C573 C572 1.369 . S
C573 C582 1.429 . S
C574 C572 1.419 . S
C574 C575 1.363 . S
C574 H577 0.929 . S
C575 C574 1.363 . S
C575 C581 1.428 . S
H576 C572 0.930 . S
H577 C574 0.929 . S
S578 N579 1.613 . S
S578 N580 1.610 . S
N579 S578 1.613 . S
N579 C582 1.350 . S
N580 S578 1.610 . S
N580 C581 1.351 . S
C581 C575 1.428 . S
C581 N580 1.351 . S
C581 C582 1.434 . S
C582 C573 1.429 . S
C582 N579 1.350 . S
C582 C581 1.434 . S
C583 C584 1.369 . S
C583 C585 1.419 . S
C583 H587 0.930 . S
C584 C583 1.369 . S
C584 C593 1.429 . S
C585 C583 1.419 . S
C585 C586 1.363 . S
C585 H588 0.929 . S
C586 C585 1.363 . S
C586 C592 1.428 . S
H587 C583 0.930 . S
H588 C585 0.929 . S
S589 N590 1.613 . S
S589 N591 1.610 . S
N590 S589 1.613 . S
N590 C593 1.350 . S
N591 S589 1.610 . S
N591 C592 1.351 . S
C592 C586 1.428 . S
C592 N591 1.351 . S
C592 C593 1.434 . S
C593 C584 1.429 . S
C593 N590 1.350 . S
C593 C592 1.434 . S
C594 C595 1.369 . S
C594 C596 1.419 . S
C594 H598 0.930 . S
C595 C594 1.369 . S
C595 C604 1.429 . S
C596 C594 1.419 . S
C596 C597 1.363 . S
C596 H599 0.929 . S
C597 C596 1.363 . S
C597 C603 1.428 . S
H598 C594 0.930 . S
H599 C596 0.929 . S
S600 N601 1.613 . S
S600 N602 1.610 . S
N601 S600 1.613 . S
N601 C604 1.350 . S
N602 S600 1.610 . S
N602 C603 1.351 . S
C603 C597 1.428 . S
C603 N602 1.351 . S
C603 C604 1.434 . S
C604 C595 1.429 . S
C604 N601 1.350 . S
C604 C603 1.434 . S
C605 C606 1.369 . S
C605 C607 1.419 . S
C605 H609 0.930 . S
C606 C605 1.369 . S
C606 C615 1.429 . S
C607 C605 1.419 . S
C607 C608 1.363 . S
C607 H610 0.929 . S
C608 C607 1.363 . S
C608 C614 1.428 . S
H609 C605 0.930 . S
H610 C607 0.929 . S
S611 N612 1.613 . S
S611 N613 1.610 . S
N612 S611 1.613 . S
N612 C615 1.350 . S
N613 S611 1.610 . S
N613 C614 1.351 . S
C614 C608 1.428 . S
C614 N613 1.351 . S
C614 C615 1.434 . S
C615 C606 1.429 . S
C615 N612 1.350 . S
C615 C614 1.434 . S
C616 C617 1.369 . S
C616 C618 1.419 . S
C616 H620 0.930 . S
C617 C616 1.369 . S
C617 C626 1.429 . S
C618 C616 1.419 . S
C618 C619 1.363 . S
C618 H621 0.929 . S
C619 C618 1.363 . S
C619 C625 1.428 . S
H620 C616 0.930 . S
H621 C618 0.929 . S
S622 N623 1.613 . S
S622 N624 1.610 . S
N623 S622 1.613 . S
N623 C626 1.350 . S
N624 S622 1.610 . S
N624 C625 1.351 . S
C625 C619 1.428 . S
C625 N624 1.351 . S
C625 C626 1.434 . S
C626 C617 1.429 . S
C626 N623 1.350 . S
C626 C625 1.434 . S
C627 C628 1.369 . S
C627 C629 1.419 . S
C627 H631 0.930 . S
C628 C627 1.369 . S
C628 C637 1.429 1_554 S
C629 C627 1.419 . S
C629 C630 1.363 1_554 S
C629 H632 0.929 . S
C630 C629 1.363 1_556 S
C630 C636 1.428 . S
H631 C627 0.930 . S
H632 C629 0.929 . S
S633 N634 1.613 . S
S633 N635 1.610 . S
N634 S633 1.613 . S
N634 C637 1.350 . S
N635 S633 1.610 . S
N635 C636 1.351 . S
C636 C630 1.428 . S
C636 N635 1.351 . S
C636 C637 1.434 . S
C637 C628 1.429 1_556 S
C637 N634 1.350 . S
C637 C636 1.434 . S
C638 C639 1.369 . S
C638 C640 1.419 . S
C638 H642 0.930 . S
C639 C638 1.369 . S
C639 C648 1.429 1_554 S
C640 C638 1.419 . S
C640 C641 1.363 1_554 S
C640 H643 0.929 . S
C641 C640 1.363 1_556 S
C641 C647 1.428 . S
H642 C638 0.930 . S
H643 C640 0.929 . S
S644 N645 1.613 . S
S644 N646 1.610 . S
N645 S644 1.613 . S
N645 C648 1.350 . S
N646 S644 1.610 . S
N646 C647 1.351 . S
C647 C641 1.428 . S
C647 N646 1.351 . S
C647 C648 1.434 . S
C648 C639 1.429 1_556 S
C648 N645 1.350 . S
C648 C647 1.434 . S
C649 C650 1.369 1_556 S
C649 C651 1.419 . S
C649 H653 0.930 . S
C650 C649 1.369 1_554 S
C650 C659 1.429 . S
C651 C649 1.419 . S
C651 C652 1.363 . S
C651 H654 0.929 . S
C652 C651 1.363 . S
C652 C658 1.428 1_556 S
H653 C649 0.930 . S
H654 C651 0.929 . S
S655 N656 1.613 . S
S655 N657 1.610 . S
N656 S655 1.613 . S
N656 C659 1.350 . S
N657 S655 1.610 . S
N657 C658 1.351 . S
C658 C652 1.428 1_554 S
C658 N657 1.351 . S
C658 C659 1.434 . S
C659 C650 1.429 . S
C659 N656 1.350 . S
C659 C658 1.434 . S
C660 C661 1.369 . S
C660 C662 1.419 . S
C660 H664 0.930 . S
C661 C660 1.369 . S
C661 C670 1.429 . S
C662 C660 1.419 . S
C662 C663 1.363 . S
C662 H665 0.929 . S
C663 C662 1.363 . S
C663 C669 1.428 . S
H664 C660 0.930 . S
H665 C662 0.929 . S
S666 N667 1.613 . S
S666 N668 1.610 . S
N667 S666 1.613 . S
N667 C670 1.350 . S
N668 S666 1.610 . S
N668 C669 1.351 . S
C669 C663 1.428 . S
C669 N668 1.351 . S
C669 C670 1.434 . S
C670 C661 1.429 . S
C670 N667 1.350 . S
C670 C669 1.434 . S
C671 C672 1.369 . S
C671 C673 1.419 . S
C671 H675 0.930 . S
C672 C671 1.369 . S
C672 C681 1.429 . S
C673 C671 1.419 . S
C673 C674 1.363 . S
C673 H676 0.929 . S
C674 C673 1.363 . S
C674 C680 1.428 . S
H675 C671 0.930 . S
H676 C673 0.929 . S
S677 N678 1.613 . S
S677 N679 1.610 . S
N678 S677 1.613 . S
N678 C681 1.350 . S
N679 S677 1.610 . S
N679 C680 1.351 . S
C680 C674 1.428 . S
C680 N679 1.351 . S
C680 C681 1.434 . S
C681 C672 1.429 . S
C681 N678 1.350 . S
C681 C680 1.434 . S
C682 C683 1.369 . S
C682 C684 1.419 . S
C682 H686 0.930 . S
C683 C682 1.369 . S
C683 C692 1.429 . S
C684 C682 1.419 . S
C684 C685 1.363 . S
C684 H687 0.929 . S
C685 C684 1.363 . S
C685 C691 1.428 . S
H686 C682 0.930 . S
H687 C684 0.929 . S
S688 N689 1.613 . S
S688 N690 1.610 . S
N689 S688 1.613 . S
N689 C692 1.350 . S
N690 S688 1.610 . S
N690 C691 1.351 . S
C691 C685 1.428 . S
C691 N690 1.351 . S
C691 C692 1.434 . S
C692 C683 1.429 . S
C692 N689 1.350 . S
C692 C691 1.434 . S
C693 C694 1.369 . S
C693 C695 1.419 1_556 S
C693 H697 0.930 . S
C694 C693 1.369 . S
C694 C703 1.429 1_556 S
C695 C693 1.419 1_554 S
C695 C696 1.363 . S
C695 H698 0.929 1_554 S
C696 C695 1.363 . S
C696 C702 1.428 . S
H697 C693 0.930 . S
H698 C695 0.929 1_556 S
S699 N700 1.613 . S
S699 N701 1.610 . S
N700 S699 1.613 . S
N700 C703 1.350 . S
N701 S699 1.610 . S
N701 C702 1.351 . S
C702 C696 1.428 . S
C702 N701 1.351 . S
C702 C703 1.434 . S
C703 C694 1.429 1_554 S
C703 N700 1.350 . S
C703 C702 1.434 . S
C704 C705 1.369 . S
C704 C706 1.419 . S
C704 H708 0.930 . S
C705 C704 1.369 . S
C705 C714 1.429 1_556 S
C706 C704 1.419 . S
C706 C707 1.363 1_556 S
C706 H709 0.929 . S
C707 C706 1.363 1_554 S
C707 C713 1.428 . S
H708 C704 0.930 . S
H709 C706 0.929 . S
S710 N711 1.613 . S
S710 N712 1.610 . S
N711 S710 1.613 . S
N711 C714 1.350 . S
N712 S710 1.610 . S
N712 C713 1.351 . S
C713 C707 1.428 . S
C713 N712 1.351 . S
C713 C714 1.434 . S
C714 C705 1.429 1_554 S
C714 N711 1.350 . S
C714 C713 1.434 . S
C715 C716 1.369 . S
C715 C717 1.419 1_556 S
C715 H719 0.930 . S
C716 C715 1.369 . S
C716 C725 1.429 1_556 S
C717 C715 1.419 1_554 S
C717 C718 1.363 . S
C717 H720 0.929 . S
C718 C717 1.363 . S
C718 C724 1.428 . S
H719 C715 0.930 . S
H720 C717 0.929 . S
S721 N722 1.613 . S
S721 N723 1.610 . S
N722 S721 1.613 . S
N722 C725 1.350 . S
N723 S721 1.610 . S
N723 C724 1.351 . S
C724 C718 1.428 . S
C724 N723 1.351 . S
C724 C725 1.434 . S
C725 C716 1.429 1_554 S
C725 N722 1.350 . S
C725 C724 1.434 . S
C726 C727 1.369 . S
C726 C728 1.419 . S
C726 H730 0.930 . S
C727 C726 1.369 . S
C727 C736 1.429 . S
C728 C726 1.419 . S
C728 C729 1.363 . S
C728 H731 0.929 . S
C729 C728 1.363 . S
C729 C735 1.428 . S
H730 C726 0.930 . S
H731 C728 0.929 . S
S732 N733 1.613 . S
S732 N734 1.610 . S
N733 S732 1.613 . S
N733 C736 1.350 . S
N734 S732 1.610 . S
N734 C735 1.351 . S
C735 C729 1.428 . S
C735 N734 1.351 . S
C735 C736 1.434 . S
C736 C727 1.429 . S
C736 N733 1.350 . S
C736 C735 1.434 . S
C737 C738 1.369 . S
C737 C739 1.419 . S
C737 H741 0.930 . S
C738 C737 1.369 . S
C738 C747 1.429 . S
C739 C737 1.419 . S
C739 C740 1.363 . S
C739 H742 0.929 . S
C740 C739 1.363 . S
C740 C746 1.428 . S
H741 C737 0.930 . S
H742 C739 0.929 . S
S743 N744 1.613 . S
S743 N745 1.610 . S
N744 S743 1.613 . S
N744 C747 1.350 . S
N745 S743 1.610 . S
N745 C746 1.351 . S
C746 C740 1.428 . S
C746 N745 1.351 . S
C746 C747 1.434 . S
C747 C738 1.429 . S
C747 N744 1.350 . S
C747 C746 1.434 . S
C748 C749 1.369 . S
C748 C750 1.419 . S
C748 H752 0.930 . S
C749 C748 1.369 . S
C749 C758 1.429 . S
C750 C748 1.419 . S
C750 C751 1.363 . S
C750 H753 0.929 . S
C751 C750 1.363 . S
C751 C757 1.428 . S
H752 C748 0.930 . S
H753 C750 0.929 . S
S754 N755 1.613 . S
S754 N756 1.610 . S
N755 S754 1.613 . S
N755 C758 1.350 . S
N756 S754 1.610 . S
N756 C757 1.351 . S
C757 C751 1.428 . S
C757 N756 1.351 . S
C757 C758 1.434 . S
C758 C749 1.429 . S
C758 N755 1.350 . S
C758 C757 1.434 . S
C759 C760 1.369 . S
C759 C761 1.419 . S
C759 H763 0.930 . S
C760 C759 1.369 . S
C760 C769 1.429 . S
C761 C759 1.419 . S
C761 C762 1.363 . S
C761 H764 0.929 . S
C762 C761 1.363 . S
C762 C768 1.428 . S
H763 C759 0.930 . S
H764 C761 0.929 . S
S765 N766 1.613 . S
S765 N767 1.610 . S
N766 S765 1.613 . S
N766 C769 1.350 . S
N767 S765 1.610 . S
N767 C768 1.351 . S
C768 C762 1.428 . S
C768 N767 1.351 . S
C768 C769 1.434 . S
C769 C760 1.429 . S
C769 N766 1.350 . S
C769 C768 1.434 . S
C770 C771 1.369 . S
C770 C772 1.419 . S
C770 H774 0.930 . S
C771 C770 1.369 . S
C771 C780 1.429 . S
C772 C770 1.419 . S
C772 C773 1.363 . S
C772 H775 0.929 . S
C773 C772 1.363 . S
C773 C779 1.428 . S
H774 C770 0.930 . S
H775 C772 0.929 . S
S776 N777 1.613 . S
S776 N778 1.610 . S
N777 S776 1.613 . S
N777 C780 1.350 . S
N778 S776 1.610 . S
N778 C779 1.351 . S
C779 C773 1.428 . S
C779 N778 1.351 . S
C779 C780 1.434 . S
C780 C771 1.429 . S
C780 N777 1.350 . S
C780 C779 1.434 . S
C781 C782 1.369 . S
C781 C783 1.419 . S
C781 H785 0.930 . S
C782 C781 1.369 . S
C782 C791 1.429 . S
C783 C781 1.419 . S
C783 C784 1.363 . S
C783 H786 0.929 . S
C784 C783 1.363 . S
C784 C790 1.428 . S
H785 C781 0.930 . S
H786 C783 0.929 . S
S787 N788 1.613 . S
S787 N789 1.610 . S
N788 S787 1.613 . S
N788 C791 1.350 . S
N789 S787 1.610 . S
N789 C790 1.351 . S
C790 C784 1.428 . S
C790 N789 1.351 . S
C790 C791 1.434 . S
C791 C782 1.429 . S
C791 N788 1.350 . S
C791 C790 1.434 . S
C792 C793 1.369 . S
C792 C794 1.419 . S
C792 H796 0.930 . S
C793 C792 1.369 . S
C793 C802 1.429 . S
C794 C792 1.419 . S
C794 C795 1.363 . S
C794 H797 0.929 . S
C795 C794 1.363 . S
C795 C801 1.428 . S
H796 C792 0.930 . S
H797 C794 0.929 . S
S798 N799 1.613 1_655 S
S798 N800 1.610 1_655 S
N799 S798 1.613 1_455 S
N799 C802 1.350 . S
N800 S798 1.610 1_455 S
N800 C801 1.351 . S
C801 C795 1.428 . S
C801 N800 1.351 . S
C801 C802 1.434 . S
C802 C793 1.429 . S
C802 N799 1.350 . S
C802 C801 1.434 . S
C803 C804 1.369 . S
C803 C805 1.419 . S
C803 H807 0.930 . S
C804 C803 1.369 . S
C804 C813 1.429 . S
C805 C803 1.419 . S
C805 C806 1.363 . S
C805 H808 0.929 . S
C806 C805 1.363 . S
C806 C812 1.428 . S
H807 C803 0.930 . S
H808 C805 0.929 . S
S809 N810 1.613 . S
S809 N811 1.610 . S
N810 S809 1.613 . S
N810 C813 1.350 . S
N811 S809 1.610 . S
N811 C812 1.351 . S
C812 C806 1.428 . S
C812 N811 1.351 . S
C812 C813 1.434 . S
C813 C804 1.429 . S
C813 N810 1.350 . S
C813 C812 1.434 . S
C814 C815 1.369 . S
C814 C816 1.419 . S
C814 H818 0.930 . S
C815 C814 1.369 . S
C815 C824 1.429 . S
C816 C814 1.419 . S
C816 C817 1.363 . S
C816 H819 0.929 . S
C817 C816 1.363 . S
C817 C823 1.428 . S
H818 C814 0.930 . S
H819 C816 0.929 . S
S820 N821 1.613 . S
S820 N822 1.610 . S
N821 S820 1.613 . S
N821 C824 1.350 . S
N822 S820 1.610 . S
N822 C823 1.351 . S
C823 C817 1.428 . S
C823 N822 1.351 . S
C823 C824 1.434 . S
C824 C815 1.429 . S
C824 N821 1.350 . S
C824 C823 1.434 . S
C825 C826 1.369 . S
C825 C827 1.419 . S
C825 H829 0.930 . S
C826 C825 1.369 . S
C826 C835 1.429 . S
C827 C825 1.419 . S
C827 C828 1.363 . S
C827 H830 0.929 . S
C828 C827 1.363 . S
C828 C834 1.428 . S
H829 C825 0.930 . S
H830 C827 0.929 . S
S831 N832 1.613 1_565 S
S831 N833 1.610 1_565 S
N832 S831 1.613 1_545 S
N832 C835 1.350 . S
N833 S831 1.610 1_545 S
N833 C834 1.351 . S
C834 C828 1.428 . S
C834 N833 1.351 . S
C834 C835 1.434 . S
C835 C826 1.429 . S
C835 N832 1.350 . S
C835 C834 1.434 . S
C836 C837 1.369 . S
C836 C838 1.419 . S
C836 H840 0.930 . S
C837 C836 1.369 . S
C837 C846 1.429 . S
C838 C836 1.419 . S
C838 C839 1.363 . S
C838 H841 0.929 . S
C839 C838 1.363 . S
C839 C845 1.428 . S
H840 C836 0.930 . S
H841 C838 0.929 . S
S842 N843 1.613 . S
S842 N844 1.610 . S
N843 S842 1.613 . S
N843 C846 1.350 1_455 S
N844 S842 1.610 . S
N844 C845 1.351 1_455 S
C845 C839 1.428 . S
C845 N844 1.351 1_655 S
C845 C846 1.434 . S
C846 C837 1.429 . S
C846 N843 1.350 1_655 S
C846 C845 1.434 . S
C847 C848 1.369 . S
C847 C849 1.419 . S
C847 H851 0.930 . S
C848 C847 1.369 . S
C848 C857 1.429 . S
C849 C847 1.419 . S
C849 C850 1.363 . S
C849 H852 0.929 . S
C850 C849 1.363 . S
C850 C856 1.428 . S
H851 C847 0.930 . S
H852 C849 0.929 . S
S853 N854 1.613 . S
S853 N855 1.610 . S
N854 S853 1.613 . S
N854 C857 1.350 . S
N855 S853 1.610 . S
N855 C856 1.351 . S
C856 C850 1.428 . S
C856 N855 1.351 . S
C856 C857 1.434 . S
C857 C848 1.429 . S
C857 N854 1.350 . S
C857 C856 1.434 . S
C858 C859 1.369 . S
C858 C860 1.419 . S
C858 H862 0.930 . S
C859 C858 1.369 . S
C859 C868 1.429 . S
C860 C858 1.419 . S
C860 C861 1.363 . S
C860 H863 0.929 . S
C861 C860 1.363 . S
C861 C867 1.428 . S
H862 C858 0.930 . S
H863 C860 0.929 . S
S864 N865 1.613 . S
S864 N866 1.610 . S
N865 S864 1.613 . S
N865 C868 1.350 1_455 S
N866 S864 1.610 . S
N866 C867 1.351 1_455 S
C867 C861 1.428 . S
C867 N866 1.351 1_655 S
C867 C868 1.434 . S
C868 C859 1.429 . S
C868 N865 1.350 1_655 S
C868 C867 1.434 . S
C869 C870 1.369 . S
C869 C871 1.419 . S
C869 H873 0.930 . S
C870 C869 1.369 . S
C870 C879 1.429 . S
C871 C869 1.419 . S
C871 C872 1.363 . S
C871 H874 0.929 . S
C872 C871 1.363 . S
C872 C878 1.428 . S
H873 C869 0.930 . S
H874 C871 0.929 . S
S875 N876 1.613 . S
S875 N877 1.610 . S
N876 S875 1.613 . S
N876 C879 1.350 . S
N877 S875 1.610 . S
N877 C878 1.351 . S
C878 C872 1.428 . S
C878 N877 1.351 . S
C878 C879 1.434 . S
C879 C870 1.429 . S
C879 N876 1.350 . S
C879 C878 1.434 . S
C880 C881 1.369 . S
C880 C882 1.419 . S
C880 H884 0.930 . S
C881 C880 1.369 . S
C881 C890 1.429 . S
C882 C880 1.419 . S
C882 C883 1.363 . S
C882 H885 0.929 . S
C883 C882 1.363 . S
C883 C889 1.428 . S
H884 C880 0.930 . S
H885 C882 0.929 . S
S886 N887 1.613 . S
S886 N888 1.610 . S
N887 S886 1.613 . S
N887 C890 1.350 . S
N888 S886 1.610 . S
N888 C889 1.351 . S
C889 C883 1.428 . S
C889 N888 1.351 . S
C889 C890 1.434 . S
C890 C881 1.429 . S
C890 N887 1.350 . S
C890 C889 1.434 . S
C891 C892 1.369 . S
C891 C893 1.419 . S
C891 H895 0.930 . S
C892 C891 1.369 . S
C892 C901 1.429 . S
C893 C891 1.419 . S
C893 C894 1.363 . S
C893 H896 0.929 . S
C894 C893 1.363 . S
C894 C900 1.428 . S
H895 C891 0.930 . S
H896 C893 0.929 . S
S897 N898 1.613 . S
S897 N899 1.610 . S
N898 S897 1.613 . S
N898 C901 1.350 1_545 S
N899 S897 1.610 . S
N899 C900 1.351 1_545 S
C900 C894 1.428 . S
C900 N899 1.351 1_565 S
C900 C901 1.434 . S
C901 C892 1.429 . S
C901 N898 1.350 1_565 S
C901 C900 1.434 . S
C902 C903 1.369 . S
C902 C904 1.419 . S
C902 H906 0.930 1_455 S
C903 C902 1.369 . S
C903 C912 1.429 . S
C904 C902 1.419 . S
C904 C905 1.363 . S
C904 H907 0.929 1_455 S
C905 C904 1.363 . S
C905 C911 1.428 . S
H906 C902 0.930 1_655 S
H907 C904 0.929 1_655 S
S908 N909 1.613 . S
S908 N910 1.610 . S
N909 S908 1.613 . S
N909 C912 1.350 . S
N910 S908 1.610 . S
N910 C911 1.351 . S
C911 C905 1.428 . S
C911 N910 1.351 . S
C911 C912 1.434 . S
C912 C903 1.429 . S
C912 N909 1.350 . S
C912 C911 1.434 . S
C913 C914 1.369 . S
C913 C915 1.419 . S
C913 H917 0.930 . S
C914 C913 1.369 . S
C914 C923 1.429 . S
C915 C913 1.419 . S
C915 C916 1.363 . S
C915 H918 0.929 . S
C916 C915 1.363 . S
C916 C922 1.428 . S
H917 C913 0.930 . S
H918 C915 0.929 . S
S919 N920 1.613 . S
S919 N921 1.610 . S
N920 S919 1.613 . S
N920 C923 1.350 . S
N921 S919 1.610 . S
N921 C922 1.351 . S
C922 C916 1.428 . S
C922 N921 1.351 . S
C922 C923 1.434 . S
C923 C914 1.429 . S
C923 N920 1.350 . S
C923 C922 1.434 . S
C924 C925 1.369 1_565 S
C924 C926 1.419 . S
C924 H928 0.930 . S
C925 C924 1.369 1_545 S
C925 C934 1.429 . S
C926 C924 1.419 . S
C926 C927 1.363 1_565 S
C926 H929 0.929 . S
C927 C926 1.363 1_545 S
C927 C933 1.428 . S
H928 C924 0.930 . S
H929 C926 0.929 . S
S930 N931 1.613 . S
S930 N932 1.610 . S
N931 S930 1.613 . S
N931 C934 1.350 . S
N932 S930 1.610 . S
N932 C933 1.351 . S
C933 C927 1.428 . S
C933 N932 1.351 . S
C933 C934 1.434 . S
C934 C925 1.429 . S
C934 N931 1.350 . S
C934 C933 1.434 . S
C935 C936 1.369 . S
C935 C937 1.420 . S
C935 H939 0.930 . S
C936 C935 1.369 . S
C936 C945 1.429 . S
C937 C935 1.420 . S
C937 C938 1.370 . S
C937 H940 0.921 1_455 S
C938 C937 1.370 . S
C938 C944 1.428 . S
H939 C935 0.930 . S
H940 C937 0.921 1_655 S
S941 N942 1.613 . S
S941 N943 1.610 . S
N942 S941 1.613 . S
N942 C945 1.350 . S
N943 S941 1.610 . S
N943 C944 1.351 . S
C944 C938 1.428 . S
C944 N943 1.351 . S
C944 C945 1.434 . S
C945 C936 1.429 . S
C945 N942 1.350 . S
C945 C944 1.434 . S
C946 C947 1.369 . S
C946 C948 1.419 . S
C946 H950 0.930 . S
C947 C946 1.369 . S
C947 C956 1.429 . S
C948 C946 1.419 . S
C948 C949 1.363 . S
C948 H951 0.929 . S
C949 C948 1.363 . S
C949 C955 1.428 . S
H950 C946 0.930 . S
H951 C948 0.929 . S
S952 N953 1.613 . S
S952 N954 1.610 . S
N953 S952 1.613 . S
N953 C956 1.350 . S
N954 S952 1.610 . S
N954 C955 1.351 . S
C955 C949 1.428 . S
C955 N954 1.351 . S
C955 C956 1.434 . S
C956 C947 1.429 . S
C956 N953 1.350 . S
C956 C955 1.434 . S
C957 C958 1.369 1_655 S
C957 C959 1.419 . S
C957 H961 0.930 . S
C958 C957 1.369 1_455 S
C958 C967 1.429 . S
C959 C957 1.419 . S
C959 C960 1.363 1_655 S
C959 H962 0.929 . S
C960 C959 1.363 1_455 S
C960 C966 1.428 . S
H961 C957 0.930 . S
H962 C959 0.929 . S
S963 N964 1.613 . S
S963 N965 1.610 . S
N964 S963 1.613 . S
N964 C967 1.350 . S
N965 S963 1.610 . S
N965 C966 1.351 . S
C966 C960 1.428 . S
C966 N965 1.351 . S
C966 C967 1.434 . S
C967 C958 1.429 . S
C967 N964 1.350 . S
C967 C966 1.434 . S
C968 C969 1.369 . S
C968 C970 1.419 . S
C968 H972 0.930 . S
C969 C968 1.369 . S
C969 C978 1.429 . S
C970 C968 1.419 . S
C970 C971 1.363 . S
C970 H973 0.929 . S
C971 C970 1.363 . S
C971 C977 1.428 . S
H972 C968 0.930 . S
H973 C970 0.929 . S
S974 N975 1.613 . S
S974 N976 1.610 . S
N975 S974 1.613 . S
N975 C978 1.350 . S
N976 S974 1.610 . S
N976 C977 1.351 . S
C977 C971 1.428 . S
C977 N976 1.351 . S
C977 C978 1.434 . S
C978 C969 1.429 . S
C978 N975 1.350 . S
C978 C977 1.434 . S
C979 C980 1.369 1_565 S
C979 C981 1.419 . S
C979 H983 0.930 . S
C980 C979 1.369 1_545 S
C980 C989 1.429 . S
C981 C979 1.419 . S
C981 C982 1.363 1_565 S
C981 H984 0.929 . S
C982 C981 1.363 1_545 S
C982 C988 1.428 . S
H983 C979 0.930 . S
H984 C981 0.929 . S
S985 N986 1.613 . S
S985 N987 1.610 . S
N986 S985 1.613 . S
N986 C989 1.350 . S
N987 S985 1.610 . S
N987 C988 1.351 . S
C988 C982 1.428 . S
C988 N987 1.351 . S
C988 C989 1.434 . S
C989 C980 1.429 . S
C989 N986 1.350 . S
C989 C988 1.434 . S
C397 C251 1.302 . S
C399 C6 1.309 . S
C408 C27 1.316 . S
C410 C207 1.298 . S
C419 C49 1.313 . S
C421 C229 1.301 . S
C430 C335 1.295 . S
C432 C51 1.309 . S
C441 C9 1.308 . S
C443 C356 1.301 . S
C452 C29 1.313 . S
C454 C378 1.301 . S
C463 C314 1.291 . S
C465 C75 1.313 . S
C474 C95 1.308 . S
C476 C268 1.296 . S
C485 C117 1.314 . S
C487 C292 1.300 . S
C496 C139 1.302 . S
C498 C115 1.309 . S
C507 C72 1.313 . S
C509 C161 1.293 . S
C518 C183 1.301 . S
C520 C93 1.308 . S
C529 C383 1.302 . S
C531 C138 1.309 . S
C540 C338 1.302 . S
C542 C160 1.309 . S
C551 C361 1.293 . S
C553 C182 1.315 . S
C562 C71 1.300 . S
C564 C185 1.308 . S
C573 C92 1.291 . S
C575 C141 1.314 . S
C584 C163 1.308 . S
C586 C114 1.296 . S
C595 C50 1.302 . S
C597 C205 1.312 . S
C606 C4 1.294 . S
C608 C227 1.310 . S
C617 C249 1.308 . S
C619 C28 1.301 . S
C628 C247 1.316 . S
C630 C271 1.296 . S
C639 C203 1.317 . S
C641 C294 1.295 . S
C650 C225 1.308 . S
C652 C316 1.301 . S
C661 C270 1.313 . S
C663 C119 1.301 . S
C672 C291 1.307 . S
C674 C74 1.300 . S
C683 C313 1.315 . S
C685 C97 1.293 . S
C694 C315 1.317 . S
C696 C202 1.296 . S
C705 C273 1.316 . S
C707 C224 1.293 . S
C716 C293 1.316 . S
C718 C246 1.297 . S
C727 C339 1.317 . S
C729 C180 1.294 . S
C738 C359 1.315 . S
C740 C136 1.298 . S
C749 C158 1.295 . S
C751 C381 1.309 . S
C760 C7 1.295 . S
C762 C379 1.309 . S
C771 C30 1.293 . S
C773 C336 1.316 . S
C782 C357 1.315 . S
C784 C52 1.298 . S
C793 C159 1.514 . S
C795 C8 1.512 . S
C804 C181 1.512 . S
C806 C31 1.514 . S
C815 C137 1.512 . S
C817 C53 1.514 . S
C826 C295 1.514 1_554 S
C828 C48 1.514 . S
C837 C5 1.514 . S
C839 C317 1.513 1_554 S
C848 C26 1.514 . S
C850 C272 1.513 1_554 S
C859 C70 1.512 . S
C861 C360 1.514 . S
C870 C94 1.514 . S
C872 C382 1.512 . S
C881 C116 1.513 . S
C883 C337 1.513 . S
C892 C118 1.514 . S
C894 C226 1.513 1_556 S
C903 C248 1.512 1_556 S
C905 C73 1.513 . S
C914 C96 1.512 . S
C916 C204 1.514 1_556 S
C925 C140 1.513 1_545 S
C927 C290 1.512 . S
C936 C162 1.514 . S
C938 C312 1.513 1_455 S
C947 C184 1.512 . S
C949 C269 1.514 . S
C958 C250 1.512 . S
C960 C358 1.514 1_455 S
C969 C380 1.512 . S
C971 C206 1.514 . S
C980 C334 1.512 . S
C982 C228 1.514 1_545 S
