# Generated by pormake.
# Topology upc, (4)-cn, num edge types: 1
# Building blocks:
#     Node 0, Type 0, BuildingBlock: KOZSID_clean_sbu_0, # of connection points: 4
#     Node 1, Type 0, BuildingBlock: KOZSID_clean_sbu_0, # of connection points: 4
#     Node 2, Type 0, BuildingBlock: KOZSID_clean_sbu_0, # of connection points: 4
#     Node 3, Type 0, BuildingBlock: KOZSID_clean_sbu_0, # of connection points: 4
#     Node 4, Type 0, BuildingBlock: KOZSID_clean_sbu_0, # of connection points: 4
#     Node 5, Type 0, BuildingBlock: KOZSID_clean_sbu_0, # of connection points: 4
#     Node 6, Type 0, BuildingBlock: KOZSID_clean_sbu_0, # of connection points: 4
#     Node 7, Type 0, BuildingBlock: KOZSID_clean_sbu_0, # of connection points: 4
#     Node 8, Type 0, BuildingBlock: KOZSID_clean_sbu_0, # of connection points: 4
#     Node 9, Type 0, BuildingBlock: KOZSID_clean_sbu_0, # of connection points: 4
#     Node 10, Type 0, BuildingBlock: KOZSID_clean_sbu_0, # of connection points: 4
#     Node 11, Type 0, BuildingBlock: KOZSID_clean_sbu_0, # of connection points: 4
#     Node 12, Type 0, BuildingBlock: KOZSID_clean_sbu_0, # of connection points: 4
#     Node 13, Type 0, BuildingBlock: KOZSID_clean_sbu_0, # of connection points: 4
#     Node 14, Type 0, BuildingBlock: KOZSID_clean_sbu_0, # of connection points: 4
#     Node 15, Type 0, BuildingBlock: KOZSID_clean_sbu_0, # of connection points: 4
#     Edge 16, Type (0, 0), BuildingBlock: ZUJKAS_clean_linker_0, # of connection points: 2
#     Edge 17, Type (0, 0), BuildingBlock: ZUJKAS_clean_linker_0, # of connection points: 2
#     Edge 18, Type (0, 0), BuildingBlock: ZUJKAS_clean_linker_0, # of connection points: 2
#     Edge 19, Type (0, 0), BuildingBlock: ZUJKAS_clean_linker_0, # of connection points: 2
#     Edge 20, Type (0, 0), BuildingBlock: ZUJKAS_clean_linker_0, # of connection points: 2
#     Edge 21, Type (0, 0), BuildingBlock: ZUJKAS_clean_linker_0, # of connection points: 2
#     Edge 22, Type (0, 0), BuildingBlock: ZUJKAS_clean_linker_0, # of connection points: 2
#     Edge 23, Type (0, 0), BuildingBlock: ZUJKAS_clean_linker_0, # of connection points: 2
#     Edge 24, Type (0, 0), BuildingBlock: ZUJKAS_clean_linker_0, # of connection points: 2
#     Edge 25, Type (0, 0), BuildingBlock: ZUJKAS_clean_linker_0, # of connection points: 2
#     Edge 26, Type (0, 0), BuildingBlock: ZUJKAS_clean_linker_0, # of connection points: 2
#     Edge 27, Type (0, 0), BuildingBlock: ZUJKAS_clean_linker_0, # of connection points: 2
#     Edge 28, Type (0, 0), BuildingBlock: ZUJKAS_clean_linker_0, # of connection points: 2
#     Edge 29, Type (0, 0), BuildingBlock: ZUJKAS_clean_linker_0, # of connection points: 2
#     Edge 30, Type (0, 0), BuildingBlock: ZUJKAS_clean_linker_0, # of connection points: 2
#     Edge 31, Type (0, 0), BuildingBlock: ZUJKAS_clean_linker_0, # of connection points: 2
#     Edge 32, Type (0, 0), BuildingBlock: ZUJKAS_clean_linker_0, # of connection points: 2
#     Edge 33, Type (0, 0), BuildingBlock: ZUJKAS_clean_linker_0, # of connection points: 2
#     Edge 34, Type (0, 0), BuildingBlock: ZUJKAS_clean_linker_0, # of connection points: 2
#     Edge 35, Type (0, 0), BuildingBlock: ZUJKAS_clean_linker_0, # of connection points: 2
#     Edge 36, Type (0, 0), BuildingBlock: ZUJKAS_clean_linker_0, # of connection points: 2
#     Edge 37, Type (0, 0), BuildingBlock: ZUJKAS_clean_linker_0, # of connection points: 2
#     Edge 38, Type (0, 0), BuildingBlock: ZUJKAS_clean_linker_0, # of connection points: 2
#     Edge 39, Type (0, 0), BuildingBlock: ZUJKAS_clean_linker_0, # of connection points: 2
#     Edge 40, Type (0, 0), BuildingBlock: ZUJKAS_clean_linker_0, # of connection points: 2
#     Edge 41, Type (0, 0), BuildingBlock: ZUJKAS_clean_linker_0, # of connection points: 2
#     Edge 42, Type (0, 0), BuildingBlock: ZUJKAS_clean_linker_0, # of connection points: 2
#     Edge 43, Type (0, 0), BuildingBlock: ZUJKAS_clean_linker_0, # of connection points: 2
#     Edge 44, Type (0, 0), BuildingBlock: ZUJKAS_clean_linker_0, # of connection points: 2
#     Edge 45, Type (0, 0), BuildingBlock: ZUJKAS_clean_linker_0, # of connection points: 2
#     Edge 46, Type (0, 0), BuildingBlock: ZUJKAS_clean_linker_0, # of connection points: 2
#     Edge 47, Type (0, 0), BuildingBlock: ZUJKAS_clean_linker_0, # of connection points: 2
# Relax obj value: 0.163
# Max RMSD: 0.237
# Mean RMSD: 0.234
data_MOF--net-upc--node1-KOZSID_clean_sbu_0--edge1-ZUJKAS_clean_linker_0
_symmetry_space_group_name_H-M    P1
_symmetry_Int_Tables_number       1
_symmetry_cell_setting            triclinic
loop_
_symmetry_equiv_pos_as_xyz
'x, y, z'
_cell_length_a     55.75789
_cell_length_b     55.718404
_cell_length_c     57.18507
_cell_angle_alpha  90.019668
_cell_angle_beta   89.990007
_cell_angle_gamma 90.037933
loop_
_atom_site_label
_atom_site_type_symbol
_atom_site_fract_x
_atom_site_fract_y
_atom_site_fract_z
_atom_type_partial_charge
C0 C 0.18025 0.63814 0.1267 0.0
C1 C 0.20182 0.62996 0.11776 0.0
C2 C 0.20069 0.60525 0.11816 0.0
C3 C 0.1785 0.59967 0.12725 0.0
N4 N 0.16561 0.61936 0.13223 0.0
Co5 Co 0.13421 0.61994 0.14856 0.0
N6 N 0.13856 0.58726 0.16186 0.0
C7 C 0.15448 0.57103 0.15384 0.0
C8 C 0.15285 0.54937 0.16516 0.0
C9 C 0.13448 0.55197 0.18094 0.0
C10 C 0.12582 0.57519 0.17847 0.0
N11 N 0.10283 0.6214 0.16507 0.0
C12 C 0.09314 0.6068 0.18166 0.0
C13 C 0.07024 0.61449 0.18763 0.0
C14 C 0.0652 0.63392 0.17378 0.0
C15 C 0.08525 0.63723 0.16024 0.0
N16 N 0.13039 0.65262 0.13511 0.0
C17 C 0.10962 0.66459 0.13287 0.0
C18 C 0.11294 0.68767 0.12498 0.0
C19 C 0.13731 0.6904 0.12241 0.0
C20 C 0.14761 0.66875 0.12882 0.0
N21 N 0.11784 0.60533 0.1212 0.0
C22 C 0.09307 0.583 0.08377 0.0
C23 C 0.11084 0.60051 0.07956 0.0
C24 C 0.1229 0.61159 0.09854 0.0
C25 C 0.08849 0.57685 0.10702 0.0
C26 C 0.1009 0.58798 0.12516 0.0
N27 N 0.15024 0.6339 0.17568 0.0
C28 C 0.15514 0.66761 0.20132 0.0
C29 C 0.1782 0.65974 0.20749 0.0
C30 C 0.18614 0.63766 0.19877 0.0
C31 C 0.17179 0.62492 0.18305 0.0
C32 C 0.14142 0.65436 0.18558 0.0
H33 H 0.17879 0.6085 0.17585 0.0
H34 H 0.12429 0.66146 0.1803 0.0
H35 H 0.13624 0.62518 0.09496 0.0
H36 H 0.09656 0.5822 0.14248 0.0
C37 C 0.17202 0.57758 0.1373 0.0
C38 C 0.17366 0.66376 0.12905 0.0
C39 C 0.10345 0.58376 0.18964 0.0
C40 C 0.08913 0.65624 0.14455 0.0
H41 H 0.21691 0.64071 0.1121 0.0
H42 H 0.2151 0.59294 0.11407 0.0
H43 H 0.16375 0.53356 0.16234 0.0
H44 H 0.12768 0.53806 0.19237 0.0
H45 H 0.0581 0.60639 0.20011 0.0
H46 H 0.0489 0.64446 0.17371 0.0
H47 H 0.09949 0.70156 0.12326 0.0
H48 H 0.14638 0.70672 0.11725 0.0
H49 H 0.1151 0.60587 0.06185 0.0
H50 H 0.07546 0.56312 0.11135 0.0
H51 H 0.14823 0.68465 0.20744 0.0
H52 H 0.20362 0.63067 0.20339 0.0
C53 C 0.88637 0.17924 0.12643 0.0
C54 C 0.89468 0.20096 0.11783 0.0
C55 C 0.91935 0.19972 0.11808 0.0
C56 C 0.92486 0.17741 0.12689 0.0
N57 N 0.90514 0.16453 0.13184 0.0
Co58 Co 0.90469 0.13286 0.14784 0.0
N59 N 0.93738 0.13712 0.16112 0.0
C60 C 0.95353 0.15322 0.15329 0.0
C61 C 0.97519 0.15156 0.16458 0.0
C62 C 0.97266 0.13298 0.18016 0.0
C63 C 0.94947 0.12423 0.17759 0.0
N64 N 0.90345 0.10114 0.1637 0.0
C65 C 0.91817 0.09115 0.18001 0.0
C66 C 0.91061 0.06806 0.18548 0.0
C67 C 0.89112 0.06323 0.17162 0.0
C68 C 0.88765 0.08359 0.15855 0.0
N69 N 0.8719 0.12933 0.13472 0.0
C70 C 0.85984 0.10862 0.1322 0.0
C71 C 0.83664 0.11221 0.12475 0.0
C72 C 0.83395 0.13669 0.12283 0.0
C73 C 0.85568 0.14674 0.12931 0.0
N74 N 0.91919 0.117 0.12012 0.0
C75 C 0.94309 0.09481 0.08216 0.0
C76 C 0.92376 0.11062 0.07835 0.0
C77 C 0.91217 0.12172 0.0976 0.0
C78 C 0.94956 0.09001 0.10524 0.0
C79 C 0.93744 0.10094 0.12368 0.0
N80 N 0.89088 0.14833 0.1753 0.0
C81 C 0.85738 0.15231 0.20133 0.0
C82 C 0.8644 0.1758 0.2068 0.0
C83 C 0.88609 0.18442 0.19786 0.0
C84 C 0.89928 0.17022 0.18241 0.0
C85 C 0.8709 0.13886 0.18558 0.0
H86 H 0.91542 0.17765 0.17503 0.0
H87 H 0.86426 0.12147 0.1805 0.0
H88 H 0.89775 0.13424 0.09434 0.0
H89 H 0.94332 0.09633 0.1409 0.0
C90 C 0.94693 0.17087 0.1369 0.0
C91 C 0.86074 0.17279 0.12951 0.0
C92 C 0.94105 0.10157 0.18835 0.0
C93 C 0.86839 0.08782 0.14322 0.0
H94 H 0.88416 0.21637 0.1127 0.0
H95 H 0.9317 0.21419 0.11425 0.0
H96 H 0.99096 0.16255 0.16187 0.0
H97 H 0.9866 0.12607 0.19147 0.0
H98 H 0.91875 0.0557 0.19772 0.0
H99 H 0.88061 0.0469 0.17131 0.0
H100 H 0.82271 0.09882 0.1228 0.0
H101 H 0.81776 0.1461 0.11786 0.0
H102 H 0.91807 0.11481 0.06071 0.0
H103 H 0.96405 0.07769 0.10913 0.0
H104 H 0.84067 0.14496 0.20782 0.0
H105 H 0.8923 0.20236 0.20199 0.0
C106 C 0.34187 0.88886 0.12427 0.0
C107 C 0.32005 0.89729 0.1161 0.0
C108 C 0.32104 0.92193 0.11737 0.0
C109 C 0.34331 0.9273 0.12633 0.0
N110 N 0.35642 0.90753 0.1304 0.0
Co111 Co 0.38807 0.90666 0.14641 0.0
N112 N 0.3836 0.93881 0.16085 0.0
C113 C 0.36709 0.95499 0.154 0.0
C114 C 0.36828 0.97603 0.16644 0.0
C115 C 0.38702 0.97311 0.18173 0.0
C116 C 0.39646 0.95042 0.17768 0.0
N117 N 0.41983 0.90508 0.16223 0.0
C118 C 0.42986 0.91943 0.17887 0.0
C119 C 0.45332 0.91238 0.18335 0.0
C120 C 0.45818 0.89342 0.1688 0.0
C121 C 0.43757 0.88985 0.15618 0.0
N122 N 0.39185 0.87443 0.13212 0.0
C123 C 0.41263 0.86268 0.12906 0.0
C124 C 0.4092 0.83973 0.12077 0.0
C125 C 0.38474 0.83691 0.11882 0.0
C126 C 0.37457 0.85829 0.12612 0.0
N127 N 0.40384 0.92216 0.11923 0.0
C128 C 0.4289 0.94449 0.08207 0.0
C129 C 0.41146 0.92671 0.0777 0.0
C130 C 0.39923 0.91565 0.09655 0.0
C131 C 0.43285 0.95107 0.10532 0.0
C132 C 0.42032 0.93991 0.12334 0.0
N133 N 0.37274 0.89154 0.17332 0.0
C134 C 0.36972 0.85673 0.19777 0.0
C135 C 0.34596 0.86258 0.20336 0.0
C136 C 0.3366 0.88432 0.1952 0.0
C137 C 0.35049 0.89878 0.18051 0.0
C138 C 0.38279 0.87145 0.18281 0.0
H139 H 0.3426 0.91501 0.17377 0.0
H140 H 0.4004 0.86561 0.17762 0.0
H141 H 0.38622 0.90176 0.09287 0.0
H142 H 0.42435 0.94581 0.1407 0.0
C143 C 0.3495 0.94892 0.1374 0.0
C144 C 0.34854 0.86321 0.12646 0.0
C145 C 0.41935 0.94197 0.18792 0.0
C146 C 0.43344 0.87111 0.14018 0.0
H147 H 0.30466 0.88687 0.11069 0.0
H148 H 0.30643 0.93428 0.11417 0.0
H149 H 0.35681 0.99159 0.16474 0.0
H150 H 0.39348 0.98648 0.19393 0.0
H151 H 0.466 0.92067 0.19519 0.0
H152 H 0.47479 0.88345 0.1676 0.0
H153 H 0.42269 0.82602 0.11821 0.0
H154 H 0.37544 0.82085 0.11323 0.0
H155 H 0.40767 0.92105 0.05997 0.0
H156 H 0.44559 0.96505 0.10973 0.0
H157 H 0.37769 0.84005 0.20359 0.0
H158 H 0.31847 0.88971 0.19951 0.0
C159 C 0.63648 0.34191 0.12887 0.0
C160 C 0.62838 0.32021 0.12009 0.0
C161 C 0.6037 0.32127 0.1204 0.0
C162 C 0.59805 0.34354 0.12927 0.0
N163 N 0.61767 0.35658 0.1342 0.0
Co164 Co 0.61804 0.38831 0.15007 0.0
N165 N 0.58519 0.38416 0.16304 0.0
C166 C 0.5692 0.36779 0.15539 0.0
C167 C 0.54756 0.36927 0.16674 0.0
C168 C 0.54988 0.38805 0.18211 0.0
C169 C 0.57286 0.39722 0.17923 0.0
N170 N 0.61925 0.42004 0.16608 0.0
C171 C 0.60428 0.43018 0.18215 0.0
C172 C 0.61149 0.4535 0.18715 0.0
C173 C 0.63118 0.45818 0.17353 0.0
C174 C 0.63501 0.4376 0.16091 0.0
N175 N 0.65089 0.39187 0.137 0.0
C176 C 0.66288 0.41263 0.13453 0.0
C177 C 0.686 0.4092 0.12681 0.0
C178 C 0.68872 0.38476 0.12457 0.0
C179 C 0.66705 0.37456 0.13105 0.0
N180 N 0.60376 0.40423 0.12225 0.0
C181 C 0.58198 0.42878 0.08436 0.0
C182 C 0.59952 0.41097 0.08048 0.0
C183 C 0.61034 0.39902 0.0997 0.0
C184 C 0.57548 0.43344 0.10749 0.0
C185 C 0.58633 0.42115 0.12583 0.0
N186 N 0.63165 0.37284 0.1777 0.0
C187 C 0.66406 0.3695 0.20514 0.0
C188 C 0.65611 0.34664 0.2119 0.0
C189 C 0.63477 0.33788 0.20223 0.0
C190 C 0.62269 0.35136 0.18535 0.0
C191 C 0.65156 0.38229 0.18811 0.0
H192 H 0.60673 0.34384 0.1777 0.0
H193 H 0.65873 0.39931 0.1825 0.0
H194 H 0.62399 0.38568 0.09639 0.0
H195 H 0.58026 0.42564 0.14301 0.0
C196 C 0.57594 0.35 0.13919 0.0
C197 C 0.66206 0.3485 0.13138 0.0
C198 C 0.58107 0.42003 0.18992 0.0
C199 C 0.65428 0.43338 0.14559 0.0
H200 H 0.63917 0.30507 0.11464 0.0
H201 H 0.59144 0.30677 0.11641 0.0
H202 H 0.53197 0.35795 0.16428 0.0
H203 H 0.53597 0.39469 0.19361 0.0
H204 H 0.60283 0.46624 0.19866 0.0
H205 H 0.64143 0.47468 0.17288 0.0
H206 H 0.69986 0.42266 0.12486 0.0
H207 H 0.70497 0.37555 0.11947 0.0
H208 H 0.60512 0.40662 0.06286 0.0
H209 H 0.5617 0.44649 0.11157 0.0
H210 H 0.68059 0.37694 0.21197 0.0
H211 H 0.62783 0.32044 0.20718 0.0
C212 C 0.17975 0.88489 0.3765 0.0
C213 C 0.20135 0.89271 0.38568 0.0
C214 C 0.20056 0.91743 0.38554 0.0
C215 C 0.17852 0.92339 0.37635 0.0
N216 N 0.16539 0.90392 0.37109 0.0
Co217 Co 0.13412 0.90394 0.35448 0.0
N218 N 0.13897 0.93674 0.34164 0.0
C219 C 0.15521 0.9526 0.34978 0.0
C220 C 0.15429 0.97425 0.33836 0.0
C221 C 0.13603 0.97205 0.3224 0.0
C222 C 0.12659 0.94913 0.32502 0.0
N223 N 0.10288 0.90306 0.33767 0.0
C224 C 0.09346 0.91802 0.32121 0.0
C225 C 0.07018 0.91112 0.31565 0.0
C226 C 0.06482 0.89162 0.32931 0.0
C227 C 0.08496 0.88759 0.3425 0.0
N228 N 0.1298 0.87114 0.36751 0.0
C229 C 0.10883 0.85945 0.36951 0.0
C230 C 0.11175 0.83621 0.37707 0.0
C231 C 0.13607 0.83307 0.37969 0.0
C232 C 0.14675 0.85468 0.37367 0.0
N233 N 0.11767 0.91842 0.38189 0.0
C234 C 0.0927 0.94055 0.41933 0.0
C235 C 0.11023 0.92281 0.42351 0.0
C236 C 0.12238 0.91183 0.40453 0.0
C237 C 0.08849 0.94704 0.39611 0.0
C238 C 0.10099 0.93601 0.37797 0.0
N239 N 0.15021 0.89013 0.32733 0.0
C240 C 0.15494 0.85656 0.30149 0.0
C241 C 0.17819 0.86417 0.29565 0.0
C242 C 0.1863 0.88611 0.30457 0.0
C243 C 0.17195 0.89891 0.32024 0.0
C244 C 0.1412 0.86988 0.31716 0.0
H245 H 0.1791 0.91517 0.32764 0.0
H246 H 0.12391 0.86297 0.32221 0.0
H247 H 0.13551 0.89804 0.40809 0.0
H248 H 0.09692 0.94207 0.36067 0.0
C249 C 0.17252 0.94563 0.36638 0.0
C250 C 0.17289 0.85936 0.37377 0.0
C251 C 0.10423 0.94095 0.31346 0.0
C252 C 0.08849 0.86834 0.35797 0.0
H253 H 0.21626 0.88171 0.39131 0.0
H254 H 0.21512 0.92951 0.38982 0.0
H255 H 0.1657 0.98972 0.34111 0.0
H256 H 0.12996 0.98597 0.31063 0.0
H257 H 0.05793 0.91985 0.30372 0.0
H258 H 0.04818 0.8816 0.32957 0.0
H259 H 0.09807 0.8225 0.37855 0.0
H260 H 0.14482 0.81654 0.38464 0.0
H261 H 0.11421 0.91718 0.44121 0.0
H262 H 0.07567 0.96096 0.39181 0.0
H263 H 0.14786 0.83965 0.2952 0.0
H264 H 0.20393 0.89293 0.30019 0.0
C265 C 0.636 0.18227 0.37356 0.0
C266 C 0.62722 0.20385 0.38206 0.0
C267 C 0.6026 0.20195 0.38209 0.0
C268 C 0.59755 0.17943 0.3735 0.0
N269 N 0.61753 0.16704 0.36842 0.0
Co270 Co 0.61862 0.13544 0.35231 0.0
N271 N 0.58575 0.13887 0.33931 0.0
C272 C 0.56926 0.1545 0.34733 0.0
C273 C 0.54754 0.15228 0.33623 0.0
C274 C 0.55041 0.13382 0.32058 0.0
C275 C 0.57384 0.1257 0.32291 0.0
N276 N 0.62058 0.10384 0.33623 0.0
C277 C 0.60605 0.0936 0.3199 0.0
C278 C 0.61415 0.07075 0.31424 0.0
C279 C 0.63379 0.06632 0.32803 0.0
C280 C 0.6368 0.08667 0.34123 0.0
N281 N 0.65153 0.13268 0.36522 0.0
C282 C 0.66406 0.11226 0.36767 0.0
C283 C 0.68721 0.1164 0.37502 0.0
C284 C 0.68936 0.14093 0.37692 0.0
C285 C 0.66739 0.15047 0.37053 0.0
N286 N 0.6047 0.11905 0.38005 0.0
C287 C 0.58306 0.09424 0.41789 0.0
C288 C 0.60027 0.11238 0.4218 0.0
C289 C 0.61103 0.12444 0.40261 0.0
C290 C 0.57687 0.0893 0.39473 0.0
C291 C 0.58764 0.10173 0.3764 0.0
N292 N 0.63187 0.15137 0.32482 0.0
C293 C 0.66468 0.15572 0.29802 0.0
C294 C 0.65701 0.17893 0.29231 0.0
C295 C 0.63548 0.18732 0.30181 0.0
C296 C 0.62295 0.17305 0.31775 0.0
C297 C 0.65187 0.14225 0.31428 0.0
H298 H 0.60681 0.18021 0.3254 0.0
H299 H 0.65899 0.12508 0.3194 0.0
H300 H 0.62439 0.13808 0.40597 0.0
H301 H 0.58179 0.09708 0.35917 0.0
C302 C 0.57557 0.17232 0.36368 0.0
C303 C 0.66177 0.17639 0.37028 0.0
C304 C 0.58279 0.10338 0.31189 0.0
C305 C 0.65598 0.09129 0.35657 0.0
H306 H 0.63733 0.21965 0.38688 0.0
H307 H 0.58993 0.21614 0.3859 0.0
H308 H 0.53153 0.16285 0.33911 0.0
H309 H 0.53655 0.12659 0.30935 0.0
H310 H 0.60623 0.05824 0.30198 0.0
H311 H 0.64468 0.05025 0.32822 0.0
H312 H 0.70145 0.10334 0.37688 0.0
H313 H 0.70537 0.15072 0.3818 0.0
H314 H 0.60565 0.11695 0.43944 0.0
H315 H 0.56335 0.07598 0.39061 0.0
H316 H 0.68133 0.14859 0.29117 0.0
H317 H 0.6288 0.20504 0.29756 0.0
C318 C 0.3405 0.63339 0.37801 0.0
C319 C 0.31835 0.62488 0.38535 0.0
C320 C 0.32 0.60021 0.3859 0.0
C321 C 0.34294 0.59491 0.37872 0.0
N322 N 0.35568 0.61467 0.3738 0.0
Co323 Co 0.38848 0.61486 0.36033 0.0
N324 N 0.38539 0.58189 0.34735 0.0
C325 C 0.3704 0.56546 0.35663 0.0
C326 C 0.37588 0.54251 0.35012 0.0
C327 C 0.39555 0.54459 0.33591 0.0
C328 C 0.40046 0.56899 0.33324 0.0
N329 N 0.4215 0.61577 0.34726 0.0
C330 C 0.43341 0.59968 0.33346 0.0
C331 C 0.45805 0.60279 0.33634 0.0
C332 C 0.46144 0.62241 0.35037 0.0
C333 C 0.4389 0.62962 0.35658 0.0
N334 N 0.39087 0.64777 0.37325 0.0
C335 C 0.41136 0.65926 0.37822 0.0
C336 C 0.40749 0.68245 0.38561 0.0
C337 C 0.38297 0.68559 0.38511 0.0
C338 C 0.37322 0.66413 0.37736 0.0
N339 N 0.40198 0.60085 0.38953 0.0
C340 C 0.42224 0.57876 0.42944 0.0
C341 C 0.40611 0.59807 0.43174 0.0
C342 C 0.39597 0.60875 0.41149 0.0
C343 C 0.42814 0.57122 0.40697 0.0
C344 C 0.41816 0.58243 0.38759 0.0
N345 N 0.37543 0.62829 0.33163 0.0
C346 C 0.37299 0.66252 0.30638 0.0
C347 C 0.34977 0.65578 0.29953 0.0
C348 C 0.34072 0.63374 0.30733 0.0
C349 C 0.35404 0.62006 0.32314 0.0
C350 C 0.38558 0.64843 0.32232 0.0
H351 H 0.34623 0.60374 0.32985 0.0
H352 H 0.4027 0.65481 0.32856 0.0
H353 H 0.38331 0.62328 0.41355 0.0
H354 H 0.42387 0.57579 0.371 0.0
C355 C 0.35132 0.57243 0.37125 0.0
C356 C 0.3472 0.6591 0.37573 0.0
C357 C 0.42213 0.57887 0.32105 0.0
C358 C 0.43327 0.64932 0.37102 0.0
H359 H 0.30248 0.63519 0.38941 0.0
H360 H 0.30566 0.58767 0.38958 0.0
H361 H 0.36741 0.52609 0.35597 0.0
H362 H 0.40617 0.52948 0.33025 0.0
H363 H 0.47238 0.59112 0.33067 0.0
H364 H 0.47836 0.62976 0.35627 0.0
H365 H 0.42087 0.69589 0.38968 0.0
H366 H 0.37338 0.70176 0.38984 0.0
H367 H 0.40109 0.60454 0.4489 0.0
H368 H 0.44071 0.55664 0.4043 0.0
H369 H 0.38075 0.6794 0.30081 0.0
H370 H 0.32312 0.6276 0.30201 0.0
C371 C 0.88464 0.34679 0.37732 0.0
C372 C 0.89224 0.32506 0.38643 0.0
C373 C 0.91693 0.32556 0.38613 0.0
C374 C 0.92312 0.34756 0.37695 0.0
N375 N 0.90381 0.36094 0.37183 0.0
Co376 Co 0.90416 0.39232 0.35541 0.0
N377 N 0.93678 0.38709 0.34233 0.0
C378 C 0.95245 0.3706 0.35029 0.0
C379 C 0.97402 0.3713 0.33872 0.0
C380 C 0.97196 0.38967 0.32285 0.0
C381 C 0.94921 0.39939 0.32567 0.0
N382 N 0.90366 0.42371 0.33883 0.0
C383 C 0.91863 0.43301 0.32232 0.0
C384 C 0.91207 0.45643 0.31694 0.0
C385 C 0.89277 0.462 0.33077 0.0
C386 C 0.88853 0.44183 0.34388 0.0
N387 N 0.8715 0.39696 0.36864 0.0
C388 C 0.86012 0.41809 0.37078 0.0
C389 C 0.83684 0.41541 0.37827 0.0
C390 C 0.83336 0.39111 0.38071 0.0
C391 C 0.85482 0.38015 0.3747 0.0
N392 N 0.919 0.40843 0.38283 0.0
C393 C 0.94134 0.43329 0.42022 0.0
C394 C 0.92337 0.41599 0.42443 0.0
C395 C 0.91229 0.40388 0.40546 0.0
C396 C 0.948 0.43728 0.397 0.0
C397 C 0.93687 0.42483 0.37889 0.0
N398 N 0.88997 0.37664 0.32821 0.0
C399 C 0.8562 0.37275 0.30253 0.0
C400 C 0.86311 0.34927 0.29676 0.0
C401 C 0.88495 0.34067 0.30545 0.0
C402 C 0.89821 0.35474 0.321 0.0
C403 C 0.86995 0.38616 0.31813 0.0
H404 H 0.91434 0.34721 0.32831 0.0
H405 H 0.86346 0.4036 0.32324 0.0
H406 H 0.8983 0.39095 0.40904 0.0
H407 H 0.94301 0.42878 0.36159 0.0
C408 C 0.94537 0.35332 0.36686 0.0
C409 C 0.8592 0.35391 0.37475 0.0
C410 C 0.94128 0.42191 0.3143 0.0
C411 C 0.86928 0.43841 0.35938 0.0
H412 H 0.88109 0.31026 0.3921 0.0
H413 H 0.92885 0.31084 0.39032 0.0
H414 H 0.98934 0.35969 0.34131 0.0
H415 H 0.98588 0.39564 0.31102 0.0
H416 H 0.92089 0.46862 0.30499 0.0
H417 H 0.883 0.47878 0.33119 0.0
H418 H 0.82333 0.42926 0.3798 0.0
H419 H 0.81665 0.38261 0.38551 0.0
H420 H 0.91762 0.41217 0.44213 0.0
H421 H 0.9621 0.44992 0.39269 0.0
H422 H 0.83941 0.3802 0.29641 0.0
H423 H 0.89122 0.32282 0.30111 0.0
C424 C 0.91799 0.3674 0.84983 0.0
C425 C 0.89858 0.3727 0.83552 0.0
C426 C 0.88409 0.38811 0.84786 0.0
C427 C 0.89537 0.39139 0.86897 0.0
N428 N 0.91618 0.37922 0.87047 0.0
Co429 Co 0.93719 0.37809 0.89833 0.0
N430 N 0.92253 0.40735 0.91193 0.0
C431 C 0.9011 0.41665 0.90616 0.0
C432 C 0.89672 0.43803 0.9174 0.0
C433 C 0.91669 0.44235 0.93095 0.0
C434 C 0.93217 0.42324 0.92731 0.0
N435 N 0.95795 0.37709 0.92632 0.0
C436 C 0.96446 0.39523 0.94074 0.0
C437 C 0.97991 0.38713 0.95801 0.0
C438 C 0.98335 0.36307 0.95393 0.0
C439 C 0.96977 0.35784 0.93451 0.0
N440 N 0.95252 0.34903 0.88512 0.0
C441 C 0.9656 0.33292 0.89719 0.0
C442 C 0.97397 0.31457 0.88343 0.0
C443 C 0.96533 0.31927 0.86146 0.0
C444 C 0.95201 0.3403 0.86303 0.0
N445 N 0.9607 0.39811 0.88182 0.0
C446 C 0.99061 0.42063 0.84899 0.0
C447 C 0.99945 0.40229 0.86345 0.0
C448 C 0.9842 0.3913 0.87984 0.0
C449 C 0.96719 0.42876 0.85286 0.0
C450 C 0.95265 0.41739 0.86931 0.0
N451 N 0.91273 0.35761 0.91373 0.0
C452 C 0.88349 0.32601 0.90861 0.0
C453 C 0.87186 0.33215 0.9294 0.0
C454 C 0.8822 0.35043 0.94315 0.0
C455 C 0.90269 0.36296 0.93499 0.0
C456 C 0.90353 0.33878 0.90118 0.0
H457 H 0.90982 0.3775 0.94539 0.0
H458 H 0.91071 0.3339 0.88444 0.0
H459 H 0.991 0.37647 0.88998 0.0
H460 H 0.93438 0.4234 0.87085 0.0
C461 C 0.88886 0.40801 0.88638 0.0
C462 C 0.93637 0.3493 0.84426 0.0
C463 C 0.95561 0.41995 0.93886 0.0
C464 C 0.97231 0.33742 0.92042 0.0
H465 H 0.89506 0.36581 0.81816 0.0
H466 H 0.8676 0.39632 0.84192 0.0
H467 H 0.88161 0.44993 0.91486 0.0
H468 H 0.9196 0.45799 0.94178 0.0
H469 H 0.98809 0.39761 0.97183 0.0
H470 H 0.99554 0.35125 0.9631 0.0
H471 H 0.9854 0.2998 0.88861 0.0
H472 H 0.96795 0.3081 0.84618 0.0
H473 H 0.01754 0.3956 0.86127 0.0
H474 H 0.95979 0.44335 0.84264 0.0
H475 H 0.87675 0.31167 0.89763 0.0
H476 H 0.874 0.35567 0.95954 0.0
C477 C 0.15822 0.91679 0.84995 0.0
C478 C 0.15337 0.89767 0.83511 0.0
C479 C 0.1378 0.88277 0.8468 0.0
C480 C 0.13398 0.89355 0.86808 0.0
N481 N 0.14597 0.91442 0.87028 0.0
Co482 Co 0.14637 0.93478 0.89861 0.0
N483 N 0.11691 0.91962 0.91131 0.0
C484 C 0.10776 0.89835 0.90475 0.0
C485 C 0.08605 0.89372 0.91525 0.0
C486 C 0.08135 0.91337 0.92913 0.0
C487 C 0.10059 0.92891 0.92649 0.0
N488 N 0.14675 0.95479 0.92713 0.0
C489 C 0.12837 0.96077 0.94145 0.0
C490 C 0.13615 0.97564 0.95936 0.0
C491 C 0.16024 0.97931 0.95577 0.0
C492 C 0.16582 0.96642 0.936 0.0
N493 N 0.17547 0.95078 0.88626 0.0
C494 C 0.19127 0.96367 0.89892 0.0
C495 C 0.20976 0.9726 0.88568 0.0
C496 C 0.20547 0.96453 0.8634 0.0
C497 C 0.18452 0.951 0.86429 0.0
N498 N 0.12649 0.95856 0.88232 0.0
C499 C 0.10448 0.98899 0.84962 0.0
C500 C 0.12241 0.99769 0.86466 0.0
C501 C 0.13314 0.98217 0.88098 0.0
C502 C 0.09644 0.96542 0.85286 0.0
C503 C 0.10757 0.95062 0.86923 0.0
N504 N 0.16675 0.90997 0.91373 0.0
C505 C 0.19936 0.88185 0.90861 0.0
C506 C 0.19201 0.86823 0.92785 0.0
C507 C 0.17262 0.87718 0.9411 0.0
C508 C 0.16036 0.89819 0.93385 0.0
C509 C 0.18653 0.90207 0.90175 0.0
H510 H 0.14512 0.90425 0.94391 0.0
H511 H 0.19219 0.91037 0.88578 0.0
H512 H 0.14768 0.98889 0.89158 0.0
H513 H 0.10168 0.93226 0.87023 0.0
C514 C 0.11694 0.88659 0.88492 0.0
C515 C 0.17605 0.93565 0.84504 0.0
C516 C 0.10365 0.95206 0.9388 0.0
C517 C 0.18641 0.96958 0.92229 0.0
H518 H 0.16058 0.89464 0.81778 0.0
H519 H 0.12979 0.86638 0.8403 0.0
H520 H 0.07419 0.87871 0.91196 0.0
H521 H 0.06535 0.91602 0.93948 0.0
H522 H 0.12545 0.98333 0.97326 0.0
H523 H 0.17186 0.99125 0.96551 0.0
H524 H 0.22437 0.98396 0.8914 0.0
H525 H 0.2169 0.96761 0.8484 0.0
H526 H 0.12901 0.01589 0.86299 0.0
H527 H 0.08214 0.9581 0.8422 0.0
H528 H 0.21469 0.87656 0.89818 0.0
H529 H 0.1663 0.86756 0.95635 0.0
C530 C 0.60763 0.15579 0.84927 0.0
C531 C 0.62609 0.14965 0.8341 0.0
C532 C 0.64074 0.13399 0.84594 0.0
C533 C 0.63044 0.13131 0.8676 0.0
N534 N 0.6101 0.1441 0.8699 0.0
Co535 Co 0.5901 0.14568 0.89841 0.0
N536 N 0.60437 0.11597 0.91135 0.0
C537 C 0.62534 0.10611 0.90489 0.0
C538 C 0.62941 0.08452 0.91585 0.0
C539 C 0.60972 0.08066 0.92991 0.0
C540 C 0.5947 0.10023 0.92683 0.0
N541 N 0.57032 0.14711 0.92702 0.0
C542 C 0.56363 0.12902 0.94138 0.0
C543 C 0.54901 0.13741 0.95921 0.0
C544 C 0.54633 0.16165 0.95555 0.0
C545 C 0.5595 0.16667 0.9358 0.0
N546 N 0.57521 0.17524 0.88593 0.0
C547 C 0.56342 0.19183 0.89864 0.0
C548 C 0.55546 0.21073 0.88538 0.0
C549 C 0.56299 0.20583 0.86305 0.0
C550 C 0.57517 0.18406 0.86388 0.0
N551 N 0.56548 0.12643 0.88258 0.0
C552 C 0.53328 0.1041 0.85158 0.0
C553 C 0.52583 0.12313 0.86601 0.0
C554 C 0.54214 0.13391 0.88151 0.0
C555 C 0.55678 0.09562 0.85426 0.0
C556 C 0.57244 0.10689 0.86981 0.0
N557 N 0.61557 0.16538 0.91316 0.0
C558 C 0.64526 0.19648 0.90768 0.0
C559 C 0.65694 0.19031 0.92844 0.0
C560 C 0.64647 0.17218 0.94229 0.0
C561 C 0.62574 0.15993 0.93433 0.0
C562 C 0.625 0.18394 0.90041 0.0
H563 H 0.61845 0.14555 0.94484 0.0
H564 H 0.61771 0.18884 0.88372 0.0
H565 H 0.5362 0.14899 0.89184 0.0
H566 H 0.59065 0.10054 0.87045 0.0
C567 C 0.63712 0.11445 0.88473 0.0
C568 C 0.58936 0.17424 0.84438 0.0
C569 C 0.57163 0.10408 0.93891 0.0
C570 C 0.55734 0.18738 0.92206 0.0
H571 H 0.62885 0.15604 0.81643 0.0
H572 H 0.65658 0.1251 0.83927 0.0
H573 H 0.64407 0.07219 0.91276 0.0
H574 H 0.60664 0.06502 0.94068 0.0
H575 H 0.54091 0.12703 0.97313 0.0
H576 H 0.53488 0.17377 0.96525 0.0
H577 H 0.54504 0.22602 0.89113 0.0
H578 H 0.5604 0.21738 0.84805 0.0
H579 H 0.50771 0.13001 0.86498 0.0
H580 H 0.56361 0.08117 0.8435 0.0
H581 H 0.65205 0.21073 0.89662 0.0
H582 H 0.6547 0.16687 0.95863 0.0
C583 C 0.36458 0.60527 0.85179 0.0
C584 C 0.36958 0.62464 0.8373 0.0
C585 C 0.38567 0.63892 0.84903 0.0
C586 C 0.38959 0.62759 0.87001 0.0
N587 N 0.37719 0.60694 0.87199 0.0
Co588 Co 0.37678 0.58604 0.89995 0.0
N589 N 0.40671 0.60037 0.9125 0.0
C590 C 0.41614 0.62163 0.90626 0.0
C591 C 0.43795 0.6258 0.91674 0.0
C592 C 0.44242 0.60588 0.9303 0.0
C593 C 0.42297 0.59064 0.92745 0.0
N594 N 0.37648 0.56539 0.92808 0.0
C595 C 0.39496 0.55882 0.94204 0.0
C596 C 0.3872 0.54362 0.95969 0.0
C597 C 0.36302 0.54037 0.95632 0.0
C598 C 0.35737 0.55382 0.93693 0.0
N599 N 0.34709 0.57098 0.88776 0.0
C600 C 0.33138 0.5579 0.90034 0.0
C601 C 0.31269 0.54934 0.88715 0.0
C602 C 0.31671 0.55789 0.86501 0.0
C603 C 0.33763 0.57146 0.86596 0.0
N604 N 0.39593 0.56217 0.88295 0.0
C605 C 0.41851 0.5308 0.85137 0.0
C606 C 0.39972 0.5228 0.86577 0.0
C607 C 0.38885 0.53869 0.88161 0.0
C608 C 0.42656 0.55444 0.8542 0.0
C609 C 0.41509 0.56973 0.86996 0.0
N610 N 0.35715 0.61078 0.91599 0.0
C611 C 0.32425 0.63896 0.91327 0.0
C612 C 0.33123 0.65029 0.9339 0.0
C613 C 0.35122 0.64107 0.94591 0.0
C614 C 0.36371 0.621 0.93685 0.0
C615 C 0.33745 0.61968 0.90455 0.0
H616 H 0.37901 0.6142 0.94635 0.0
H617 H 0.33195 0.61272 0.8879 0.0
H618 H 0.37409 0.53227 0.89208 0.0
H619 H 0.42108 0.58808 0.87076 0.0
C620 C 0.40696 0.63391 0.88676 0.0
C621 C 0.34596 0.58717 0.84691 0.0
C622 C 0.41972 0.56736 0.93939 0.0
C623 C 0.33656 0.55129 0.92345 0.0
H624 H 0.36205 0.62831 0.82023 0.0
H625 H 0.39387 0.65532 0.84279 0.0
H626 H 0.44996 0.64074 0.91369 0.0
H627 H 0.45837 0.60284 0.94062 0.0
H628 H 0.39795 0.53546 0.97328 0.0
H629 H 0.35135 0.52838 0.96593 0.0
H630 H 0.29817 0.5378 0.89278 0.0
H631 H 0.30519 0.55499 0.85005 0.0
H632 H 0.39316 0.50455 0.86452 0.0
H633 H 0.44086 0.56158 0.84343 0.0
H634 H 0.3091 0.64559 0.90332 0.0
H635 H 0.35718 0.64932 0.96204 0.0
C636 C 0.91726 0.16022 0.65089 0.0
C637 C 0.89758 0.15573 0.66513 0.0
C638 C 0.88313 0.13989 0.65325 0.0
C639 C 0.89468 0.1356 0.63245 0.0
N640 N 0.91561 0.14754 0.63072 0.0
Co641 Co 0.93701 0.1473 0.60312 0.0
N642 N 0.92229 0.11754 0.59054 0.0
C643 C 0.90076 0.10859 0.59649 0.0
C644 C 0.89629 0.08682 0.586 0.0
C645 C 0.91631 0.08188 0.57274 0.0
C646 C 0.93191 0.10101 0.57577 0.0
N647 N 0.95811 0.147 0.57532 0.0
C648 C 0.96448 0.12832 0.56151 0.0
C649 C 0.98012 0.13567 0.54406 0.0
C650 C 0.98382 0.15981 0.54738 0.0
C651 C 0.97021 0.16583 0.56655 0.0
N652 N 0.95249 0.17674 0.61538 0.0
C653 C 0.96604 0.19215 0.60292 0.0
C654 C 0.9747 0.21078 0.61615 0.0
C655 C 0.96575 0.20703 0.63818 0.0
C656 C 0.95189 0.1863 0.63714 0.0
N657 N 0.96013 0.12779 0.62068 0.0
C658 C 0.98961 0.10618 0.65443 0.0
C659 C 0.99876 0.1238 0.63931 0.0
C660 C 0.98372 0.13435 0.62248 0.0
C661 C 0.96606 0.09827 0.65084 0.0
C662 C 0.95174 0.10918 0.63394 0.0
N663 N 0.91293 0.16732 0.58661 0.0
C664 C 0.88513 0.20057 0.58903 0.0
C665 C 0.87355 0.19332 0.56863 0.0
C666 C 0.88254 0.1731 0.5568 0.0
C667 C 0.90256 0.16058 0.56587 0.0
C668 C 0.90434 0.18734 0.59778 0.0
H669 H 0.90912 0.14505 0.55655 0.0
H670 H 0.91141 0.193 0.61434 0.0
H671 H 0.99079 0.14866 0.61179 0.0
H672 H 0.93339 0.10336 0.63256 0.0
C673 C 0.88831 0.1182 0.61572 0.0
C674 C 0.9358 0.17831 0.65601 0.0
C675 C 0.95539 0.10375 0.56413 0.0
C676 C 0.97292 0.18671 0.57994 0.0
H677 H 0.89388 0.16339 0.68214 0.0
H678 H 0.86649 0.13206 0.65931 0.0
H679 H 0.88104 0.07515 0.58883 0.0
H680 H 0.91917 0.06586 0.56243 0.0
H681 H 0.98824 0.12467 0.53062 0.0
H682 H 0.99619 0.17119 0.53789 0.0
H683 H 0.98656 0.22508 0.61061 0.0
H684 H 0.96857 0.21861 0.65312 0.0
H685 H 0.01696 0.1303 0.64126 0.0
H686 H 0.9584 0.08421 0.66159 0.0
H687 H 0.87869 0.21593 0.59882 0.0
H688 H 0.87409 0.16694 0.54084 0.0
C689 C 0.36513 0.92104 0.65187 0.0
C690 C 0.36954 0.90154 0.66637 0.0
C691 C 0.38512 0.88674 0.65462 0.0
C692 C 0.38936 0.89791 0.63362 0.0
N693 N 0.37764 0.91895 0.63164 0.0
Co694 Co 0.37765 0.93965 0.60354 0.0
N695 N 0.40699 0.92429 0.59082 0.0
C696 C 0.41586 0.90285 0.59716 0.0
C697 C 0.43746 0.898 0.58653 0.0
C698 C 0.4424 0.91769 0.57278 0.0
C699 C 0.42343 0.93349 0.5757 0.0
N700 N 0.37768 0.95997 0.57519 0.0
C701 C 0.39621 0.96585 0.561 0.0
C702 C 0.3888 0.98116 0.54332 0.0
C703 C 0.36478 0.98522 0.54691 0.0
C704 C 0.35889 0.97213 0.56647 0.0
N705 N 0.34874 0.95595 0.61599 0.0
C706 C 0.33345 0.96963 0.60355 0.0
C707 C 0.31538 0.97912 0.61696 0.0
C708 C 0.31935 0.97054 0.63908 0.0
C709 C 0.33959 0.95602 0.63792 0.0
N710 N 0.39781 0.963 0.62015 0.0
C711 C 0.41993 0.99302 0.65316 0.0
C712 C 0.40252 1.00208 0.63778 0.0
C713 C 0.39169 0.98677 0.62134 0.0
C714 C 0.42745 0.96926 0.65015 0.0
C715 C 0.41632 0.95469 0.63355 0.0
N716 N 0.35699 0.91522 0.58808 0.0
C717 C 0.3239 0.88755 0.59285 0.0
C718 C 0.33156 0.87349 0.57402 0.0
C719 C 0.35131 0.88208 0.56103 0.0
C720 C 0.36362 0.90311 0.56822 0.0
C721 C 0.33682 0.90773 0.59971 0.0
H722 H 0.37911 0.90886 0.55835 0.0
H723 H 0.33091 0.91627 0.61546 0.0
H724 H 0.37749 0.99378 0.61052 0.0
H725 H 0.42184 0.93621 0.63261 0.0
C726 C 0.40643 0.89097 0.61679 0.0
C727 C 0.34719 0.93977 0.65682 0.0
C728 C 0.42075 0.95677 0.56365 0.0
C729 C 0.33846 0.97571 0.58027 0.0
H730 H 0.36194 0.89813 0.68347 0.0
H731 H 0.39277 0.87009 0.66086 0.0
H732 H 0.44905 0.88275 0.58958 0.0
H733 H 0.45831 0.92023 0.56227 0.0
H734 H 0.39971 0.98893 0.52962 0.0
H735 H 0.35346 0.9976 0.53739 0.0
H736 H 0.30129 0.99121 0.61145 0.0
H737 H 0.30815 0.97397 0.65418 0.0
H738 H 0.39635 0.02044 0.63931 0.0
H739 H 0.4413 0.96166 0.66116 0.0
H740 H 0.30828 0.88259 0.60302 0.0
H741 H 0.35788 0.87215 0.54607 0.0
C742 C 0.60588 0.36728 0.65558 0.0
C743 C 0.62417 0.37311 0.67107 0.0
C744 C 0.63899 0.38897 0.65969 0.0
C745 C 0.62896 0.39208 0.63797 0.0
N746 N 0.60861 0.37936 0.63521 0.0
Co747 Co 0.58909 0.37825 0.60639 0.0
N748 N 0.6037 0.40809 0.59404 0.0
C749 C 0.62457 0.41784 0.60096 0.0
C750 C 0.62873 0.43971 0.59054 0.0
C751 C 0.60919 0.44387 0.57638 0.0
C752 C 0.59417 0.42419 0.57883 0.0
N753 N 0.56985 0.37727 0.57744 0.0
C754 C 0.56337 0.39562 0.56332 0.0
C755 C 0.54901 0.38758 0.54516 0.0
C756 C 0.54622 0.36328 0.54837 0.0
C757 C 0.55908 0.35788 0.56822 0.0
N758 N 0.57373 0.34864 0.6183 0.0
C759 C 0.56196 0.33232 0.60522 0.0
C760 C 0.55356 0.31335 0.61813 0.0
C761 C 0.56079 0.31788 0.64062 0.0
C762 C 0.57326 0.33952 0.64023 0.0
N763 N 0.56429 0.39745 0.62201 0.0
C764 C 0.53162 0.4199 0.65237 0.0
C765 C 0.52438 0.40079 0.63798 0.0
C766 C 0.54092 0.38999 0.62272 0.0
C767 C 0.55515 0.42839 0.65005 0.0
C768 C 0.57109 0.41698 0.6349 0.0
N769 N 0.61478 0.35856 0.59188 0.0
C770 C 0.64355 0.3266 0.59734 0.0
C771 C 0.65661 0.33357 0.57759 0.0
C772 C 0.64717 0.35256 0.5641 0.0
C773 C 0.62615 0.36472 0.57147 0.0
C774 C 0.62327 0.3393 0.60425 0.0
H775 H 0.61965 0.37963 0.56119 0.0
H776 H 0.61524 0.33389 0.62045 0.0
H777 H 0.5351 0.37494 0.61228 0.0
H778 H 0.58934 0.42327 0.63461 0.0
C779 C 0.63598 0.40917 0.62118 0.0
C780 C 0.58753 0.34874 0.65996 0.0
C781 C 0.57119 0.42056 0.56648 0.0
C782 C 0.55643 0.33706 0.58172 0.0
H783 H 0.62671 0.36636 0.68864 0.0
H784 H 0.65479 0.39768 0.66668 0.0
H785 H 0.64329 0.45202 0.59412 0.0
H786 H 0.6062 0.45979 0.566 0.0
H787 H 0.54107 0.39823 0.53136 0.0
H788 H 0.53481 0.35136 0.53838 0.0
H789 H 0.5431 0.29822 0.61203 0.0
H790 H 0.55789 0.30614 0.65543 0.0
H791 H 0.50625 0.39387 0.63885 0.0
H792 H 0.56171 0.44296 0.66084 0.0
H793 H 0.64926 0.31161 0.60803 0.0
H794 H 0.65638 0.35859 0.54851 0.0
C795 C 0.15976 0.61063 0.65105 0.0
C796 C 0.15492 0.63022 0.66529 0.0
C797 C 0.13921 0.64461 0.65321 0.0
C798 C 0.1353 0.63308 0.63232 0.0
N799 N 0.14739 0.61224 0.63072 0.0
Co800 Co 0.14759 0.59078 0.60318 0.0
N801 N 0.11785 0.60516 0.59035 0.0
C802 C 0.10867 0.62664 0.59617 0.0
C803 C 0.08695 0.63084 0.58552 0.0
C804 C 0.08229 0.6107 0.5723 0.0
C805 C 0.10154 0.5953 0.57551 0.0
N806 N 0.14775 0.5696 0.57544 0.0
C807 C 0.12924 0.56292 0.56157 0.0
C808 C 0.13688 0.54732 0.54421 0.0
C809 C 0.16104 0.54398 0.54765 0.0
C810 C 0.16679 0.55776 0.56681 0.0
N811 N 0.17704 0.57565 0.61569 0.0
C812 C 0.19284 0.56251 0.60329 0.0
C813 C 0.2116 0.55435 0.61662 0.0
C814 C 0.20748 0.56318 0.63865 0.0
C815 C 0.18634 0.57636 0.63754 0.0
N816 N 0.12817 0.56746 0.62061 0.0
C817 C 0.10655 0.53766 0.65411 0.0
C818 C 0.12437 0.52871 0.6391 0.0
C819 C 0.13493 0.54392 0.6224 0.0
C820 C 0.09849 0.56117 0.65055 0.0
C821 C 0.1094 0.57565 0.63375 0.0
N822 N 0.16752 0.61504 0.58677 0.0
C823 C 0.2006 0.64307 0.58928 0.0
C824 C 0.1936 0.65437 0.56865 0.0
C825 C 0.17354 0.64516 0.55672 0.0
C826 C 0.16098 0.62517 0.56587 0.0
C827 C 0.18732 0.6239 0.59811 0.0
H828 H 0.14561 0.61841 0.55644 0.0
H829 H 0.19278 0.61704 0.61481 0.0
H830 H 0.14939 0.53702 0.61182 0.0
H831 H 0.10345 0.59396 0.63237 0.0
C832 C 0.118 0.63926 0.61544 0.0
C833 C 0.17762 0.59198 0.65646 0.0
C834 C 0.10457 0.57177 0.564 0.0
C835 C 0.18765 0.55549 0.58028 0.0
H836 H 0.16221 0.63387 0.68247 0.0
H837 H 0.13112 0.66115 0.65924 0.0
H838 H 0.07513 0.64598 0.58823 0.0
H839 H 0.06638 0.60763 0.56192 0.0
H840 H 0.12607 0.53899 0.53074 0.0
H841 H 0.17263 0.53175 0.53824 0.0
H842 H 0.22626 0.54293 0.61114 0.0
H843 H 0.21907 0.56074 0.65364 0.0
H844 H 0.13099 0.51056 0.64106 0.0
H845 H 0.0843 0.56866 0.66123 0.0
H846 H 0.2158 0.64969 0.59919 0.0
H847 H 0.16756 0.65338 0.54058 0.0
H848 H 0.18414 0.69719 0.09456 0.0
H849 H 0.2135 0.7301 0.09551 0.0
H850 H 0.23469 0.70884 0.16497 0.0
H851 H 0.20564 0.67567 0.1636 0.0
H852 H 0.21833 0.76915 0.12091 0.0
H853 H 0.29974 0.71539 0.13866 0.0
H854 H 0.27149 0.70156 0.13132 0.0
H855 H 0.27709 0.71199 0.16066 0.0
C856 C 0.19512 0.69949 0.11002 0.0
C857 C 0.19235 0.6837 0.12909 0.0
C858 C 0.21203 0.71845 0.1106 0.0
C859 C 0.22701 0.72227 0.13019 0.0
C860 C 0.22415 0.7064 0.14928 0.0
H861 H 0.34047 0.83028 0.16127 0.0
H862 H 0.311 0.79765 0.1628 0.0
C863 C 0.20731 0.68737 0.14861 0.0
C864 C 0.24495 0.74306 0.13064 0.0
H865 H 0.30426 0.75761 0.13986 0.0
C866 C 0.23714 0.76643 0.12493 0.0
C867 C 0.26969 0.74021 0.1362 0.0
C868 C 0.28009 0.71592 0.14186 0.0
C869 C 0.25287 0.78653 0.12472 0.0
C870 C 0.2777 0.78357 0.12969 0.0
C871 C 0.28545 0.76029 0.1358 0.0
C872 C 0.2958 0.80419 0.12865 0.0
C873 C 0.24235 0.81095 0.11984 0.0
C874 C 0.29793 0.81916 0.1088 0.0
C875 C 0.31477 0.83819 0.10802 0.0
C876 C 0.33023 0.84292 0.12698 0.0
C877 C 0.32865 0.82756 0.14649 0.0
C878 C 0.31173 0.80867 0.14733 0.0
H879 H 0.22292 0.81153 0.12409 0.0
H880 H 0.25161 0.82515 0.13004 0.0
H881 H 0.24431 0.81506 0.10095 0.0
H882 H 0.2868 0.81595 0.09363 0.0
H883 H 0.31593 0.849 0.09233 0.0
H884 H 0.82931 0.18372 0.16513 0.0
H885 H 0.79612 0.21287 0.1656 0.0
H886 H 0.81244 0.23239 0.09447 0.0
H887 H 0.84555 0.20327 0.09406 0.0
H888 H 0.79401 0.26268 0.15934 0.0
H889 H 0.74106 0.2192 0.08923 0.0
H890 H 0.76597 0.20441 0.10329 0.0
H891 H 0.77123 0.22634 0.08078 0.0
C892 C 0.82589 0.1943 0.1496 0.0
C893 C 0.8405 0.19122 0.12967 0.0
C894 C 0.80677 0.21106 0.14986 0.0
C895 C 0.80113 0.22498 0.12997 0.0
C896 C 0.81578 0.22185 0.11003 0.0
H897 H 0.69231 0.33575 0.09497 0.0
H898 H 0.72525 0.3063 0.09491 0.0
C899 C 0.83504 0.20528 0.10987 0.0
C900 C 0.7802 0.2427 0.13009 0.0
H901 H 0.7277 0.25753 0.10179 0.0
C902 C 0.7795 0.26136 0.14678 0.0
C903 C 0.76096 0.24153 0.11376 0.0
C904 C 0.75962 0.22169 0.09587 0.0
C905 C 0.76091 0.27885 0.14713 0.0
C906 C 0.74154 0.27752 0.13099 0.0
C907 C 0.74221 0.25884 0.11435 0.0
C908 C 0.72075 0.29541 0.13098 0.0
C909 C 0.76276 0.29933 0.16424 0.0
C910 C 0.70644 0.29929 0.15105 0.0
C911 C 0.68743 0.31615 0.151 0.0
C912 C 0.68202 0.32984 0.13096 0.0
C913 C 0.69599 0.32572 0.11079 0.0
C914 C 0.7149 0.30874 0.11076 0.0
H915 H 0.78148 0.30194 0.17035 0.0
H916 H 0.75641 0.31638 0.15634 0.0
H917 H 0.75136 0.29536 0.17962 0.0
H918 H 0.70986 0.28915 0.16685 0.0
H919 H 0.67703 0.31868 0.1668 0.0
H920 H 0.18184 0.82454 0.40744 0.0
H921 H 0.21106 0.79154 0.40646 0.0
H922 H 0.23527 0.81532 0.33873 0.0
H923 H 0.20628 0.84852 0.34011 0.0
H924 H 0.21699 0.75333 0.37972 0.0
H925 H 0.29911 0.80777 0.36781 0.0
H926 H 0.27053 0.82127 0.37441 0.0
H927 H 0.27754 0.81209 0.34497 0.0
C928 C 0.19338 0.82273 0.39232 0.0
C929 C 0.19143 0.83923 0.37372 0.0
C930 C 0.21025 0.80374 0.39174 0.0
C931 C 0.22606 0.80059 0.37266 0.0
C932 C 0.22405 0.81719 0.35405 0.0
H933 H 0.34086 0.69379 0.34215 0.0
H934 H 0.31202 0.72703 0.34122 0.0
C935 C 0.20724 0.83624 0.35471 0.0
C936 C 0.24402 0.7798 0.37222 0.0
H937 H 0.30371 0.76562 0.36508 0.0
C938 C 0.23596 0.75621 0.37665 0.0
C939 C 0.269 0.78286 0.3679 0.0
C940 C 0.27964 0.80737 0.36371 0.0
C941 C 0.25167 0.7361 0.37676 0.0
C942 C 0.27673 0.73923 0.37303 0.0
C943 C 0.28474 0.76276 0.36819 0.0
C944 C 0.29478 0.71853 0.37397 0.0
C945 C 0.24092 0.7115 0.38014 0.0
C946 C 0.29586 0.70251 0.39311 0.0
C947 C 0.31259 0.68339 0.39376 0.0
C948 C 0.3289 0.67944 0.37528 0.0
C949 C 0.32837 0.69584 0.35652 0.0
C950 C 0.31171 0.71498 0.35594 0.0
H951 H 0.22171 0.71113 0.37499 0.0
H952 H 0.25064 0.69774 0.36978 0.0
H953 H 0.24196 0.70657 0.39891 0.0
H954 H 0.28401 0.70499 0.4079 0.0
H955 H 0.313 0.6719 0.40901 0.0
H956 H 0.85126 0.31865 0.34239 0.0
H957 H 0.81794 0.28962 0.33954 0.0
H958 H 0.78914 0.31687 0.40421 0.0
H959 H 0.82205 0.346 0.40651 0.0
H960 H 0.80253 0.25314 0.36299 0.0
H961 H 0.72882 0.31873 0.36788 0.0
H962 H 0.75961 0.32785 0.36434 0.0
H963 H 0.74787 0.32115 0.393 0.0
C964 C 0.83755 0.3186 0.35574 0.0
C965 C 0.83898 0.33542 0.37407 0.0
C966 C 0.81844 0.30189 0.35422 0.0
C967 C 0.80003 0.30118 0.3712 0.0
C968 C 0.80213 0.31735 0.39016 0.0
H969 H 0.67541 0.20952 0.40422 0.0
H970 H 0.70808 0.23911 0.40294 0.0
C971 C 0.82116 0.33414 0.39154 0.0
C972 C 0.77927 0.28322 0.36949 0.0
H973 H 0.71789 0.27773 0.37414 0.0
C974 C 0.78405 0.25871 0.36528 0.0
C975 C 0.75475 0.28993 0.37206 0.0
C976 C 0.7474 0.31587 0.3743 0.0
C977 C 0.76561 0.24104 0.36459 0.0
C978 C 0.74122 0.24766 0.36807 0.0
C979 C 0.73638 0.27221 0.37179 0.0
C980 C 0.72062 0.22953 0.36837 0.0
C981 C 0.77264 0.2152 0.3608 0.0
C982 C 0.71597 0.21404 0.34932 0.0
C983 C 0.69701 0.19711 0.35 0.0
C984 C 0.68169 0.19521 0.36957 0.0
C985 C 0.68626 0.21073 0.38856 0.0
C986 C 0.7052 0.22767 0.38789 0.0
H987 H 0.79192 0.21212 0.36465 0.0
H988 H 0.76177 0.203 0.37191 0.0
H989 H 0.76948 0.21039 0.34222 0.0
H990 H 0.72693 0.21511 0.33372 0.0
H991 H 0.69422 0.1855 0.33505 0.0
H992 H 0.85678 0.31313 0.97183 0.0
H993 H 0.82066 0.28852 0.97908 0.0
H994 H 0.79882 0.29831 0.90749 0.0
H995 H 0.83429 0.32291 0.90023 0.0
H996 H 0.763 0.30237 0.95974 0.0
H997 H 0.81015 0.22014 0.92913 0.0
H998 H 0.82578 0.24416 0.94397 0.0
H999 H 0.81604 0.24812 0.91436 0.0
C1000 C 0.84404 0.3104 0.95779 0.0
C1001 C 0.84868 0.3198 0.93537 0.0
C1002 C 0.82345 0.29625 0.96192 0.0
C1003 C 0.80709 0.29141 0.94375 0.0
C1004 C 0.81119 0.30166 0.92174 0.0
H1005 H 0.694 0.20052 0.89886 0.0
H1006 H 0.72993 0.2241 0.90633 0.0
C1007 C 0.83161 0.31566 0.91761 0.0
C1008 C 0.78635 0.27469 0.9469 0.0
H1009 H 0.76821 0.21759 0.93376 0.0
C1010 C 0.76416 0.28369 0.95452 0.0
C1011 C 0.78781 0.25042 0.93982 0.0
C1012 C 0.81119 0.23992 0.93141 0.0
C1013 C 0.74323 0.26933 0.95435 0.0
C1014 C 0.74455 0.24513 0.94663 0.0
C1015 C 0.76702 0.23601 0.93979 0.0
C1016 C 0.72266 0.22978 0.94307 0.0
C1017 C 0.71967 0.28062 0.96118 0.0
C1018 C 0.70651 0.22437 0.96132 0.0
C1019 C 0.68555 0.21084 0.95701 0.0
C1020 C 0.68028 0.20246 0.93434 0.0
C1021 C 0.69706 0.20708 0.91645 0.0
C1022 C 0.71782 0.2205 0.92073 0.0
H1023 H 0.72086 0.30051 0.96194 0.0
H1024 H 0.70533 0.27559 0.94863 0.0
H1025 H 0.71436 0.27406 0.97875 0.0
H1026 H 0.71 0.23073 0.97888 0.0
H1027 H 0.67314 0.2076 0.97124 0.0
H1028 H 0.34677 0.69689 0.93452 0.0
H1029 H 0.32222 0.73313 0.93883 0.0
H1030 H 0.26042 0.68918 0.95408 0.0
H1031 H 0.28478 0.65305 0.94852 0.0
H1032 H 0.24764 0.71977 0.92428 0.0
H1033 H 0.29677 0.77181 0.99088 0.0
H1034 H 0.31603 0.76467 0.96679 0.0
H1035 H 0.30388 0.7409 0.98463 0.0
C1036 C 0.32811 0.69505 0.93949 0.0
C1037 C 0.31781 0.67212 0.9416 0.0
C1038 C 0.314 0.71585 0.94202 0.0
C1039 C 0.28931 0.71425 0.9472 0.0
C1040 C 0.27932 0.6912 0.95015 0.0
H1041 H 0.20271 0.84648 0.97051 0.0
H1042 H 0.22435 0.80855 0.97707 0.0
C1043 C 0.29331 0.67047 0.94719 0.0
C1044 C 0.27344 0.73618 0.94737 0.0
H1045 H 0.26884 0.79414 0.96716 0.0
C1046 C 0.25226 0.73586 0.93396 0.0
C1047 C 0.27885 0.75733 0.96022 0.0
C1048 C 0.29998 0.75862 0.97664 0.0
C1049 C 0.237 0.75596 0.93244 0.0
C1050 C 0.24333 0.77766 0.94389 0.0
C1051 C 0.264 0.77779 0.95802 0.0
C1052 C 0.22945 0.80056 0.94034 0.0
C1053 C 0.21402 0.75346 0.9187 0.0
C1054 C 0.22501 0.809 0.91762 0.0
C1055 C 0.21231 0.8303 0.91385 0.0
C1056 C 0.20413 0.84451 0.93268 0.0
C1057 C 0.20852 0.8361 0.95553 0.0
C1058 C 0.22112 0.81445 0.95931 0.0
H1059 H 0.20752 0.7346 0.91879 0.0
H1060 H 0.19962 0.76513 0.9258 0.0
H1061 H 0.21737 0.7585 0.90021 0.0
H1062 H 0.23161 0.79919 0.90259 0.0
H1063 H 0.20899 0.83563 0.89594 0.0
H1064 H 0.6902 0.31753 0.60894 0.0
H1065 H 0.72636 0.29462 0.60177 0.0
H1066 H 0.71465 0.29983 0.52745 0.0
H1067 H 0.67701 0.32174 0.53461 0.0
H1068 H 0.72918 0.25558 0.53804 0.0
H1069 H 0.79046 0.31792 0.583 0.0
H1070 H 0.76714 0.30866 0.60255 0.0
H1071 H 0.75977 0.32578 0.57675 0.0
C1072 C 0.69497 0.31371 0.59097 0.0
C1073 C 0.68019 0.32139 0.57238 0.0
C1074 C 0.71611 0.30084 0.58688 0.0
C1075 C 0.72379 0.29573 0.56404 0.0
C1076 C 0.70933 0.30358 0.54529 0.0
H1077 H 0.87063 0.23936 0.55276 0.0
H1078 H 0.83448 0.26379 0.54762 0.0
C1079 C 0.68786 0.31634 0.5494 0.0
C1080 C 0.74649 0.28164 0.56014 0.0
H1081 H 0.80493 0.27756 0.57803 0.0
C1082 C 0.74583 0.26059 0.54654 0.0
C1083 C 0.76856 0.28817 0.57075 0.0
C1084 C 0.7716 0.31151 0.58384 0.0
C1085 C 0.76612 0.24557 0.54407 0.0
C1086 C 0.78768 0.25123 0.55612 0.0
C1087 C 0.78853 0.27277 0.56898 0.0
C1088 C 0.80952 0.23524 0.55601 0.0
C1089 C 0.76421 0.224 0.52824 0.0
C1090 C 0.80795 0.2107 0.56189 0.0
C1091 C 0.82872 0.19653 0.56417 0.0
C1092 C 0.85162 0.20663 0.5611 0.0
C1093 C 0.85322 0.23097 0.55481 0.0
C1094 C 0.83249 0.24501 0.5521 0.0
H1095 H 0.7506 0.22691 0.51433 0.0
H1096 H 0.78164 0.21979 0.51981 0.0
H1097 H 0.7584 0.20825 0.53866 0.0
H1098 H 0.79075 0.20267 0.56582 0.0
H1099 H 0.82695 0.17802 0.5697 0.0
H1100 H 0.17759 0.70077 0.56634 0.0
H1101 H 0.20191 0.7372 0.56203 0.0
H1102 H 0.26468 0.69366 0.54997 0.0
H1103 H 0.24052 0.65738 0.55553 0.0
H1104 H 0.27601 0.72506 0.57954 0.0
H1105 H 0.22896 0.77494 0.51007 0.0
H1106 H 0.20891 0.76816 0.53364 0.0
H1107 H 0.2219 0.7441 0.51676 0.0
C1108 C 0.19644 0.69905 0.56208 0.0
C1109 C 0.20705 0.67619 0.56091 0.0
C1110 C 0.21042 0.71995 0.55954 0.0
C1111 C 0.23531 0.71853 0.55527 0.0
C1112 C 0.24563 0.69554 0.5532 0.0
H1113 H 0.32211 0.85063 0.53159 0.0
H1114 H 0.30069 0.8125 0.52531 0.0
C1115 C 0.23176 0.67472 0.55617 0.0
C1116 C 0.25097 0.74063 0.55517 0.0
H1117 H 0.25593 0.79808 0.53411 0.0
C1118 C 0.27164 0.74085 0.56931 0.0
C1119 C 0.24589 0.76138 0.54163 0.0
C1120 C 0.22536 0.76206 0.52448 0.0
C1121 C 0.28672 0.76111 0.57086 0.0
C1122 C 0.28068 0.78244 0.55865 0.0
C1123 C 0.26053 0.78202 0.54383 0.0
C1124 C 0.29433 0.80553 0.56204 0.0
C1125 C 0.3092 0.75916 0.58543 0.0
C1126 C 0.29798 0.81461 0.58467 0.0
C1127 C 0.31057 0.83602 0.5883 0.0
C1128 C 0.31942 0.84971 0.5694 0.0
C1129 C 0.31578 0.84068 0.54663 0.0
C1130 C 0.3033 0.81891 0.54301 0.0
H1131 H 0.31579 0.74035 0.58606 0.0
H1132 H 0.32379 0.77073 0.57851 0.0
H1133 H 0.30516 0.76471 0.60365 0.0
H1134 H 0.29087 0.80521 0.59972 0.0
H1135 H 0.31332 0.84181 0.60617 0.0
H1136 H 0.98273 0.44297 0.3301 0.0
H1137 H 1.01035 0.46959 0.3089 0.0
H1138 H 0.96711 0.46226 0.24682 0.0
H1139 H 0.93939 0.43576 0.26815 0.0
H1140 H 0.03848 0.46328 0.27 0.0
H1141 H 0.97178 0.53455 0.25199 0.0
H1142 H 0.96605 0.51043 0.27229 0.0
H1143 H 0.96298 0.50555 0.24134 0.0
C1144 C 0.97926 0.44688 0.31186 0.0
C1145 C 0.95896 0.43705 0.30075 0.0
C1146 C 0.99504 0.4622 0.29973 0.0
C1147 C 0.99083 0.46842 0.27622 0.0
C1148 C 0.97068 0.4583 0.26502 0.0
H1149 H 0.0633 0.56068 0.17368 0.0
H1150 H 0.03695 0.53264 0.19463 0.0
C1151 C 0.9549 0.44293 0.27716 0.0
C1152 C 1.00753 0.48534 0.26354 0.0
H1153 H 1.00959 0.53852 0.23336 0.0
C1154 C 0.03212 0.47977 0.26209 0.0
C1155 C 0.9995 0.50701 0.25311 0.0
C1156 C 0.97369 0.51492 0.2549 0.0
C1157 C 0.04859 0.49478 0.25021 0.0
C1158 C 0.04055 0.51644 0.23974 0.0
C1159 C 0.01596 0.52202 0.24124 0.0
C1160 C 0.05714 0.53338 0.22694 0.0
C1161 C 0.07439 0.48688 0.24842 0.0
C1162 C 0.07743 0.54352 0.23792 0.0
C1163 C 0.09256 0.55961 0.22587 0.0
C1164 C 0.08769 0.56618 0.20261 0.0
C1165 C 0.06747 0.55606 0.19162 0.0
C1166 C 0.05237 0.54001 0.20364 0.0
H1167 H 0.07629 0.46724 0.25125 0.0
H1168 H 0.08207 0.49145 0.23107 0.0
H1169 H 0.08508 0.49618 0.26205 0.0
H1170 H 0.08141 0.53928 0.25598 0.0
H1171 H 0.10794 0.56715 0.23481 0.0
H1172 H 0.96425 0.06131 0.17267 0.0
H1173 H 0.99203 0.03499 0.19393 0.0
H1174 H 0.98612 0.08054 0.25462 0.0
H1175 H 0.95793 0.10662 0.23338 0.0
H1176 H 0.03576 0.0426 0.21333 0.0
H1177 H 0.97292 0.01584 0.2837 0.0
H1178 H 0.96307 0.03132 0.25771 0.0
H1179 H 0.97684 0.04771 0.28127 0.0
C1180 C 0.96877 0.06559 0.19062 0.0
C1181 C 0.95858 0.08587 0.20146 0.0
C1182 C 0.98475 0.05055 0.20278 0.0
C1183 C 0.99101 0.05528 0.2262 0.0
C1184 C 0.98124 0.07593 0.23685 0.0
H1185 H 0.08287 0.98229 0.32922 0.0
H1186 H 0.05654 1.01001 0.30789 0.0
C1187 C 0.96523 0.09099 0.22465 0.0
C1188 C 1.00795 0.0388 0.23916 0.0
H1189 H 0.01337 1.00361 0.28813 0.0
C1190 C 0.03076 0.03404 0.22965 0.0
C1191 C 1.00172 0.02745 0.26054 0.0
C1192 C 0.97724 0.03061 0.27134 0.0
C1193 C 0.04746 0.01883 0.24096 0.0
C1194 C 0.04121 1.00743 0.26232 0.0
C1195 C 0.0184 0.01222 0.27185 0.0
C1196 C 0.05798 0.99062 0.27511 0.0
C1197 C 0.07193 0.01571 0.23015 0.0
C1198 C 0.06767 0.97012 0.26413 0.0
C1199 C 0.08298 0.95435 0.27633 0.0
C1200 C 0.08896 0.95853 0.29989 0.0
C1201 C 0.07904 0.9788 0.31096 0.0
C1202 C 0.0638 0.99459 0.29877 0.0
H1203 H 0.0764 0.03076 0.21817 0.0
H1204 H 0.08608 0.0145 0.24376 0.0
H1205 H 0.07217 0.99889 0.21976 0.0
H1206 H 0.06308 0.96603 0.24618 0.0
H1207 H 0.08994 0.93866 0.26743 0.0
H1208 H 0.56518 0.10785 0.26708 0.0
H1209 H 0.53694 0.0812 0.24643 0.0
H1210 H 0.53335 0.03559 0.30722 0.0
H1211 H 0.56111 0.06242 0.32786 0.0
H1212 H 0.54008 0.03365 0.23431 0.0
H1213 H 0.46293 0.04495 0.29423 0.0
H1214 H 0.48887 0.0643 0.29527 0.0
H1215 H 0.48966 0.03517 0.30883 0.0
C1216 C 0.55824 0.09218 0.276 0.0
C1217 C 0.56545 0.08722 0.29907 0.0
C1218 C 0.5421 0.07688 0.2642 0.0
C1219 C 0.53252 0.05638 0.27524 0.0
C1220 C 0.53987 0.05144 0.29831 0.0
H1221 H 0.43534 0.93906 0.23342 0.0
H1222 H 0.46277 0.96642 0.25417 0.0
C1223 C 0.55596 0.06671 0.31008 0.0
C1224 C 0.51537 0.0399 0.26255 0.0
H1225 H 0.45971 0.01377 0.266 0.0
C1226 C 0.52245 0.02947 0.24121 0.0
C1227 C 0.49228 0.03413 0.27141 0.0
C1228 C 0.48284 0.04539 0.29357 0.0
C1229 C 0.50751 0.01328 0.2289 0.0
C1230 C 0.4844 1.00753 0.23774 0.0
C1231 C 0.47732 0.01796 0.25908 0.0
C1232 C 0.46732 0.99091 0.22512 0.0
C1233 C 0.51703 1.00192 0.20682 0.0
C1234 C 0.46019 0.99549 0.20191 0.0
C1235 C 0.44453 0.97983 0.19007 0.0
C1236 C 0.43523 0.95927 0.20116 0.0
C1237 C 0.44205 0.9548 0.22445 0.0
C1238 C 0.45777 0.97047 0.2363 0.0
H1239 H 0.53694 1.00234 0.20622 0.0
H1240 H 0.51102 0.98299 0.20518 0.0
H1241 H 0.51028 1.01206 0.19148 0.0
H1242 H 0.46668 1.01129 0.19288 0.0
H1243 H 0.43979 0.9837 0.17209 0.0
H1244 H 0.58202 0.43635 0.23539 0.0
H1245 H 0.55401 0.46403 0.25481 0.0
H1246 H 0.51222 0.46832 0.19153 0.0
H1247 H 0.54057 0.44115 0.17204 0.0
H1248 H 0.51711 0.51217 0.21021 0.0
H1249 H 0.48835 0.45055 0.28072 0.0
H1250 H 0.5202 0.45507 0.28014 0.0
H1251 H 0.50561 0.44046 0.25592 0.0
C1252 C 0.56672 0.44304 0.22574 0.0
C1253 C 0.56331 0.43616 0.2023 0.0
C1254 C 0.55057 0.45882 0.23689 0.0
C1255 C 0.53047 0.4681 0.22494 0.0
C1256 C 0.52732 0.46144 0.20137 0.0
H1257 H 0.40783 0.53829 0.29355 0.0
H1258 H 0.43357 0.51182 0.27118 0.0
C1259 C 0.54348 0.44572 0.19023 0.0
C1260 C 0.51304 0.48505 0.23673 0.0
H1261 H 0.47626 0.4913 0.28446 0.0
C1262 C 0.50817 0.5075 0.22643 0.0
C1263 C 0.50083 0.47912 0.25774 0.0
C1264 C 0.50378 0.45491 0.26918 0.0
C1265 C 0.49207 0.52413 0.23665 0.0
C1266 C 0.48059 0.51856 0.25815 0.0
C1267 C 0.48508 0.49591 0.26817 0.0
C1268 C 0.46404 0.53577 0.27074 0.0
C1269 C 0.48717 0.54731 0.22392 0.0
C1270 C 0.47142 0.55903 0.27697 0.0
C1271 C 0.45675 0.57391 0.29085 0.0
C1272 C 0.43503 0.56548 0.30083 0.0
C1273 C 0.42613 0.54389 0.29096 0.0
C1274 C 0.44067 0.52889 0.27705 0.0
H1275 H 0.49063 0.54552 0.20487 0.0
H1276 H 0.46835 0.55328 0.22646 0.0
H1277 H 0.49931 0.56146 0.23075 0.0
H1278 H 0.4888 0.56564 0.27154 0.0
H1279 H 0.46282 0.59206 0.29355 0.0
H1280 H 0.0998 0.55316 0.6988 0.0
H1281 H 0.08304 0.53119 0.73187 0.0
H1282 H 0.07537 0.4682 0.68866 0.0
H1283 H 0.09254 0.49017 0.65537 0.0
H1284 H 0.03916 0.51269 0.73587 0.0
H1285 H 0.10597 0.43987 0.74666 0.0
H1286 H 0.11151 0.46592 0.72868 0.0
H1287 H 0.0935 0.44159 0.71776 0.0
C1288 C 0.09457 0.53461 0.69629 0.0
C1289 C 0.09731 0.52349 0.67434 0.0
C1290 C 0.08508 0.52202 0.71528 0.0
C1291 C 0.07808 0.49793 0.71293 0.0
C1292 C 0.08109 0.4866 0.69112 0.0
H1293 H 0.975 0.42906 0.80461 0.0
H1294 H 0.99694 0.44689 0.77204 0.0
C1295 C 0.0908 0.4992 0.67205 0.0
C1296 C 0.06638 0.48544 0.73302 0.0
H1297 H 0.07003 0.43646 0.76898 0.0
C1298 C 0.046 0.49605 0.74311 0.0
C1299 C 0.07541 0.46388 0.74277 0.0
C1300 C 0.09793 0.45223 0.73359 0.0
C1301 C 0.03429 0.48567 0.76237 0.0
C1302 C 0.04278 0.46368 0.7716 0.0
C1303 C 0.06338 0.4532 0.7618 0.0
C1304 C 0.03014 0.45126 0.79114 0.0
C1305 C 0.01311 0.49864 0.7729 0.0
C1306 C 0.04174 0.44681 0.81255 0.0
C1307 C 0.02918 0.43644 0.83132 0.0
C1308 C 1.00478 0.43042 0.829 0.0
C1309 C 0.99358 0.43409 0.80723 0.0
C1310 C 1.00612 0.44427 0.78854 0.0
H1311 H 0.01323 0.51804 0.7684 0.0
H1312 H 0.99628 0.49077 0.76592 0.0
H1313 H 0.01291 0.49684 0.79224 0.0
H1314 H 0.06034 0.4519 0.81492 0.0
H1315 H 0.03836 0.43378 0.8478 0.0
H1316 H 0.09117 0.03674 0.84893 0.0
H1317 H 0.07349 0.05912 0.81609 0.0
H1318 H 0.07955 0.99639 0.77235 0.0
H1319 H 0.097 0.97407 0.80483 0.0
H1320 H 0.08971 0.06936 0.77011 0.0
H1321 H 1.00818 0.01242 0.76844 0.0
H1322 H 0.02907 0.0121 0.79253 0.0
H1323 H 0.03551 0.99558 0.76624 0.0
C1324 C 0.08885 0.02781 0.83226 0.0
C1325 C 0.09505 1.00347 0.82967 0.0
C1326 C 0.07873 0.04059 0.81352 0.0
C1327 C 0.07469 0.02928 0.79187 0.0
C1328 C 0.08187 1.00534 0.78902 0.0
H1329 H 0.03701 0.09201 0.65602 0.0
H1330 H 0.05867 0.07482 0.68948 0.0
C1331 C 0.09182 0.99258 0.80767 0.0
C1332 C 0.06245 0.04209 0.77235 0.0
H1333 H 0.01377 0.03866 0.7362 0.0
C1334 C 0.07304 0.06275 0.76275 0.0
C1335 C 0.04054 0.03364 0.76289 0.0
C1336 C 0.02751 0.01236 0.77318 0.0
C1337 C 0.06255 0.07488 0.74368 0.0
C1338 C 0.04108 0.06589 0.73371 0.0
C1339 C 0.03035 0.04546 0.74362 0.0
C1340 C 0.02881 0.07768 0.71356 0.0
C1341 C 0.07432 0.09743 0.73468 0.0
C1342 C 1.00477 0.0848 0.71575 0.0
C1343 C 0.99237 0.09432 0.69667 0.0
C1344 C 1.00362 0.09696 0.67478 0.0
C1345 C 0.02787 0.09034 0.67265 0.0
C1346 C 0.0403 0.08062 0.69182 0.0
H1347 H 0.08664 0.10538 0.74785 0.0
H1348 H 0.08501 0.09305 0.71888 0.0
H1349 H 0.06071 0.11107 0.72978 0.0
H1350 H 0.99549 0.08281 0.73229 0.0
H1351 H 0.97385 0.09964 0.69907 0.0
H1352 H 0.52936 0.05721 0.83697 0.0
H1353 H 0.50788 0.04186 0.80282 0.0
H1354 H 0.47969 0.11244 0.78923 0.0
H1355 H 0.50177 0.12826 0.82296 0.0
H1356 H 0.44567 0.06639 0.78743 0.0
H1357 H 0.52801 0.06518 0.73236 0.0
H1358 H 0.53038 0.05368 0.76172 0.0
H1359 H 0.52472 0.08501 0.75718 0.0
C1360 C 0.51864 0.06956 0.82677 0.0
C1361 C 0.51756 0.09409 0.83271 0.0
C1362 C 0.50628 0.06069 0.80729 0.0
C1363 C 0.4924 0.07606 0.79338 0.0
C1364 C 0.49036 0.1003 0.79974 0.0
H1365 H 0.43583 0.0399 0.65368 0.0
H1366 H 0.45209 0.06237 0.68723 0.0
C1367 C 0.50286 0.10926 0.81917 0.0
C1368 C 0.48076 0.06682 0.7718 0.0
H1369 H 0.49322 0.04712 0.71648 0.0
C1370 C 0.45599 0.06235 0.77185 0.0
C1371 C 0.49424 0.06175 0.75143 0.0
C1372 C 0.52081 0.06673 0.75042 0.0
C1373 C 0.44451 0.05218 0.75227 0.0
C1374 C 0.45815 0.04633 0.73218 0.0
C1375 C 0.48278 0.05159 0.73187 0.0
C1376 C 0.44751 0.03332 0.71194 0.0
C1377 C 0.41787 0.04759 0.75325 0.0
C1378 C 0.4397 1.00956 0.71467 0.0
C1379 C 0.43064 0.99672 0.6956 0.0
C1380 C 0.42914 1.00733 0.67331 0.0
C1381 C 0.43667 0.03128 0.67063 0.0
C1382 C 0.44602 0.04408 0.68975 0.0
H1383 H 0.40909 0.05818 0.76732 0.0
H1384 H 0.40927 0.05201 0.73628 0.0
H1385 H 0.41469 0.02827 0.75684 0.0
H1386 H 0.44091 1.0008 0.73153 0.0
H1387 H 0.42472 0.97842 0.69835 0.0
H1388 H 0.52566 0.46708 0.6649 0.0
H1389 H 0.50386 0.48294 0.69867 0.0
H1390 H 0.47947 0.41162 0.7157 0.0
H1391 H 0.50174 0.39551 0.68224 0.0
H1392 H 0.45539 0.48127 0.71182 0.0
H1393 H 0.51312 0.4337 0.776 0.0
H1394 H 0.52103 0.43647 0.74551 0.0
H1395 H 0.499 0.41483 0.75455 0.0
C1396 C 0.51561 0.45475 0.67578 0.0
C1397 C 0.51565 0.42996 0.67093 0.0
C1398 C 0.50306 0.46387 0.69504 0.0
C1399 C 0.49038 0.44844 0.71001 0.0
C1400 C 0.48948 0.42383 0.70466 0.0
H1401 H 0.39457 0.50083 0.8212 0.0
H1402 H 0.41096 0.47911 0.78752 0.0
C1403 C 0.50199 0.41468 0.68533 0.0
C1404 C 0.47875 0.45814 0.73151 0.0
H1405 H 0.48096 0.45635 0.79128 0.0
C1406 C 0.46086 0.47572 0.7292 0.0
C1407 C 0.48614 0.45114 0.7542 0.0
C1408 C 0.50601 0.43316 0.75785 0.0
C1409 C 0.4502 0.48647 0.7489 0.0
C1410 C 0.45739 0.47927 0.7716 0.0
C1411 C 0.47527 0.46168 0.77391 0.0
C1412 C 0.44754 0.49076 0.7931 0.0
C1413 C 0.43187 0.50603 0.74525 0.0
C1414 C 0.46276 0.50373 0.80804 0.0
C1415 C 0.45349 0.51597 0.82742 0.0
C1416 C 0.42876 0.51542 0.83243 0.0
C1417 C 0.4137 0.50154 0.81799 0.0
C1418 C 0.423 0.48935 0.79854 0.0
H1419 H 0.43223 0.5131 0.72709 0.0
H1420 H 0.41369 0.49871 0.74864 0.0
H1421 H 0.43495 0.52115 0.75755 0.0
H1422 H 0.48178 0.50493 0.80433 0.0
H1423 H 0.46567 0.52619 0.83832 0.0
H1424 H 0.16682 0.68787 0.24494 0.0
H1425 H 0.19006 0.72124 0.26026 0.0
H1426 H 0.25006 0.70107 0.21684 0.0
H1427 H 0.2264 0.668 0.2006 0.0
H1428 H 0.23367 0.72964 0.28173 0.0
H1429 H 0.23421 0.76664 0.19099 0.0
H1430 H 0.21666 0.74035 0.19769 0.0
H1431 H 0.24882 0.73862 0.1971 0.0
C1432 C 0.18504 0.69032 0.23879 0.0
C1433 C 0.19441 0.67579 0.22096 0.0
C1434 C 0.19845 0.70928 0.24775 0.0
C1435 C 0.22159 0.71404 0.23923 0.0
C1436 C 0.23202 0.69807 0.22323 0.0
H1437 H 0.22628 0.85563 0.30288 0.0
H1438 H 0.24982 0.8224 0.28688 0.0
C1439 C 0.21849 0.67905 0.21412 0.0
C1440 C 0.23252 0.73754 0.24497 0.0
H1441 H 0.23362 0.79391 0.22184 0.0
C1442 C 0.23449 0.74373 0.26867 0.0
C1443 C 0.23437 0.75575 0.22778 0.0
C1444 C 0.23342 0.75019 0.20195 0.0
C1445 C 0.23421 0.76781 0.27581 0.0
C1446 C 0.23235 0.78601 0.25861 0.0
C1447 C 0.23447 0.77983 0.23491 0.0
C1448 C 0.22144 0.80953 0.26432 0.0
C1449 C 0.23325 0.77336 0.30164 0.0
C1450 C 0.1984 0.8144 0.25562 0.0
C1451 C 0.18505 0.83346 0.26445 0.0
C1452 C 0.19437 0.84798 0.28233 0.0
C1453 C 0.21838 0.84458 0.28935 0.0
C1454 C 0.23185 0.82547 0.28036 0.0
H1455 H 0.23379 0.75689 0.31259 0.0
H1456 H 0.24882 0.78471 0.30652 0.0
H1457 H 0.21663 0.78341 0.30589 0.0
H1458 H 0.19004 0.80246 0.24306 0.0
H1459 H 0.16691 0.836 0.25814 0.0
H1460 H 0.85116 0.22117 0.19456 0.0
H1461 H 0.81716 0.24392 0.20985 0.0
H1462 H 0.80477 0.18861 0.26131 0.0
H1463 H 0.83894 0.16618 0.2464 0.0
H1464 H 0.77382 0.22874 0.20636 0.0
H1465 H 0.78776 0.24551 0.29958 0.0
H1466 H 0.81246 0.23756 0.28057 0.0
H1467 H 0.79478 0.21461 0.29476 0.0
C1468 C 0.84181 0.21443 0.20981 0.0
C1469 C 0.84763 0.19189 0.21931 0.0
C1470 C 0.82233 0.22745 0.21852 0.0
C1471 C 0.80858 0.21829 0.23705 0.0
C1472 C 0.81545 0.19651 0.24749 0.0
H1473 H 0.68038 0.16839 0.25182 0.0
H1474 H 0.71396 0.19024 0.23505 0.0
C1475 C 0.83481 0.18348 0.23876 0.0
C1476 C 0.78468 0.22844 0.24263 0.0
H1477 H 0.74628 0.23195 0.2887 0.0
C1478 C 0.76791 0.23025 0.22438 0.0
C1479 C 0.77685 0.23156 0.26595 0.0
C1480 C 0.7941 0.23248 0.28623 0.0
C1481 C 0.74327 0.23135 0.22904 0.0
C1482 C 0.73532 0.23002 0.25249 0.0
C1483 C 0.7522 0.23215 0.27063 0.0
C1484 C 0.7112 0.22067 0.25859 0.0
C1485 C 0.72615 0.23223 0.20867 0.0
C1486 C 0.69804 0.23055 0.2772 0.0
C1487 C 0.67896 0.21776 0.28708 0.0
C1488 C 0.67288 0.19487 0.27855 0.0
C1489 C 0.6848 0.18593 0.25879 0.0
C1490 C 0.70382 0.19864 0.24898 0.0
H1491 H 0.73212 0.24608 0.19595 0.0
H1492 H 0.72641 0.21471 0.19942 0.0
H1493 H 0.7075 0.23628 0.21413 0.0
H1494 H 0.70355 0.24734 0.28508 0.0
H1495 H 0.67023 0.22496 0.30248 0.0
H1496 H 0.36285 0.68349 0.26237 0.0
H1497 H 0.34064 0.71686 0.24557 0.0
H1498 H 0.27964 0.69977 0.28896 0.0
H1499 H 0.30243 0.66693 0.30688 0.0
H1500 H 0.29773 0.72287 0.22246 0.0
H1501 H 0.29438 0.76767 0.30969 0.0
H1502 H 0.31403 0.74256 0.30454 0.0
H1503 H 0.28206 0.73807 0.30623 0.0
C1504 C 0.34466 0.68669 0.26824 0.0
C1505 C 0.33457 0.67281 0.28619 0.0
C1506 C 0.33186 0.70565 0.25848 0.0
C1507 C 0.30861 0.71111 0.26632 0.0
C1508 C 0.29772 0.6962 0.283 0.0
H1509 H 0.29989 0.84872 0.19304 0.0
H1510 H 0.2782 0.81416 0.20925 0.0
C1511 C 0.31067 0.67725 0.29298 0.0
C1512 C 0.2976 0.73394 0.25845 0.0
H1513 H 0.29368 0.79203 0.27682 0.0
C1514 C 0.29604 0.738 0.2343 0.0
C1515 C 0.29482 0.75352 0.274 0.0
C1516 C 0.29634 0.75042 0.30011 0.0
C1517 C 0.29585 0.76138 0.22524 0.0
C1518 C 0.29636 0.78108 0.2409 0.0
C1519 C 0.29377 0.77685 0.26493 0.0
C1520 C 0.30625 0.80465 0.23371 0.0
C1521 C 0.29842 0.76463 0.19922 0.0
C1522 C 0.3284 0.81174 0.24318 0.0
C1523 C 0.34047 0.83165 0.23442 0.0
C1524 C 0.33078 0.84486 0.21583 0.0
C1525 C 0.30778 0.83888 0.20744 0.0
C1526 C 0.29552 0.81893 0.21642 0.0
H1527 H 0.29783 0.74732 0.1896 0.0
H1528 H 0.28376 0.77616 0.19248 0.0
H1529 H 0.31583 0.77348 0.19546 0.0
H1530 H 0.33702 0.80109 0.25663 0.0
H1531 H 0.35796 0.83606 0.2415 0.0
H1532 H 0.66699 0.29908 0.20625 0.0
H1533 H 0.69921 0.27697 0.22556 0.0
H1534 H 0.71283 0.33794 0.27012 0.0
H1535 H 0.68033 0.35979 0.25141 0.0
H1536 H 0.74258 0.29152 0.21972 0.0
H1537 H 0.7301 0.28477 0.31394 0.0
H1538 H 0.70516 0.29156 0.29486 0.0
H1539 H 0.72348 0.31533 0.30687 0.0
C1540 C 0.67619 0.3074 0.22083 0.0
C1541 C 0.6714 0.33136 0.22707 0.0
C1542 C 0.69462 0.29469 0.23185 0.0
C1543 C 0.70844 0.30563 0.2494 0.0
C1544 C 0.7022 0.32879 0.257 0.0
H1545 H 0.83417 0.3602 0.25965 0.0
H1546 H 0.79914 0.33774 0.24673 0.0
C1547 C 0.68383 0.34149 0.24601 0.0
C1548 C 0.73232 0.29591 0.25583 0.0
H1549 H 0.77178 0.29863 0.30124 0.0
C1550 C 0.74883 0.29222 0.23763 0.0
C1551 C 0.74061 0.29572 0.27921 0.0
C1552 C 0.72371 0.29679 0.29975 0.0
C1553 C 0.77355 0.29245 0.2419 0.0
C1554 C 0.78181 0.29662 0.26484 0.0
C1555 C 0.7654 0.29623 0.28347 0.0
C1556 C 0.80578 0.30707 0.26909 0.0
C1557 C 0.79063 0.29039 0.22159 0.0
C1558 C 0.82159 0.29698 0.28536 0.0
C1559 C 0.84187 0.30974 0.29257 0.0
C1560 C 0.84605 0.33322 0.28436 0.0
C1561 C 0.83117 0.34242 0.26671 0.0
C1562 C 0.81124 0.32947 0.25916 0.0
H1563 H 0.78352 0.27778 0.20825 0.0
H1564 H 0.79261 0.30824 0.21321 0.0
H1565 H 0.8086 0.28413 0.22729 0.0
H1566 H 0.81766 0.27981 0.29331 0.0
H1567 H 0.85324 0.30184 0.30581 0.0
H1568 H 0.9132 0.22128 0.65665 0.0
H1569 H 0.91169 0.25048 0.68868 0.0
H1570 H 0.94901 0.20054 0.73343 0.0
H1571 H 0.95125 0.17164 0.70092 0.0
H1572 H 0.89259 0.25066 0.73114 0.0
H1573 H 0.99138 0.2587 0.73898 0.0
H1574 H 0.9772 0.24288 0.71519 0.0
H1575 H 0.98072 0.22863 0.74323 0.0
C1576 C 0.92094 0.2166 0.67342 0.0
C1577 C 0.93256 0.19448 0.67643 0.0
C1578 C 0.92009 0.23322 0.69169 0.0
C1579 C 0.93073 0.22798 0.71335 0.0
C1580 C 0.94129 0.20529 0.7167 0.0
H1581 H 0.9081 0.31 0.84089 0.0
H1582 H 0.90591 0.2812 0.80857 0.0
C1583 C 0.94236 0.18871 0.69828 0.0
C1584 C 0.93098 0.2465 0.73213 0.0
H1585 H 0.96819 0.27867 0.76782 0.0
C1586 C 0.90914 0.25681 0.73913 0.0
C1587 C 0.9526 0.25494 0.74223 0.0
C1588 C 0.97682 0.24591 0.73438 0.0
C1589 C 0.90828 0.27503 0.75612 0.0
C1590 C 0.9298 0.28276 0.76691 0.0
C1591 C 0.95167 0.27267 0.75969 0.0
C1592 C 0.93008 0.30095 0.78598 0.0
C1593 C 0.88433 0.28618 0.76189 0.0
C1594 C 0.94473 0.32147 0.78432 0.0
C1595 C 0.9462 0.33776 0.80294 0.0
C1596 C 0.933 0.33377 0.82342 0.0
C1597 C 0.9181 0.31353 0.825 0.0
C1598 C 0.91679 0.29717 0.80653 0.0
H1599 H 0.87141 0.28409 0.74724 0.0
H1600 H 0.87661 0.27703 0.7774 0.0
H1601 H 0.88618 0.30558 0.76595 0.0
H1602 H 0.95528 0.32469 0.76872 0.0
H1603 H 0.958 0.35315 0.80158 0.0
H1604 H 0.35516 0.95189 0.70254 0.0
H1605 H 0.32684 0.94843 0.73543 0.0
H1606 H 0.27397 0.91801 0.6889 0.0
H1607 H 0.30251 0.92061 0.65649 0.0
H1608 H 0.28456 0.96965 0.74131 0.0
H1609 H 0.27005 0.87151 0.74187 0.0
H1610 H 0.29391 0.88536 0.72538 0.0
H1611 H 0.26393 0.88414 0.71368 0.0
C1612 C 0.33759 0.94415 0.69958 0.0
C1613 C 0.33086 0.93656 0.67715 0.0
C1614 C 0.32141 0.94224 0.71827 0.0
C1615 C 0.29833 0.93264 0.71476 0.0
C1616 C 0.29181 0.92489 0.69227 0.0
H1617 H 0.17452 0.96115 0.80429 0.0
H1618 H 0.20377 0.95997 0.77208 0.0
C1619 C 0.30801 0.92656 0.67372 0.0
C1620 C 0.28058 0.93189 0.73421 0.0
H1621 H 0.24107 0.89511 0.76259 0.0
C1622 C 0.2752 0.9533 0.74609 0.0
C1623 C 0.26852 0.91052 0.7407 0.0
C1624 C 0.27458 0.88656 0.7299 0.0
C1625 C 0.25781 0.95403 0.76387 0.0
C1626 C 0.24488 0.93291 0.76951 0.0
C1627 C 0.25063 0.9114 0.758 0.0
C1628 C 0.22601 0.93254 0.78793 0.0
C1629 C 0.25387 0.97734 0.77676 0.0
C1630 C 0.22808 0.91672 0.80695 0.0
C1631 C 0.21116 0.91707 0.82498 0.0
C1632 C 0.19185 0.9332 0.82429 0.0
C1633 C 0.18926 0.94851 0.80502 0.0
C1634 C 0.2061 0.94802 0.78683 0.0
H1635 H 0.2696 0.98948 0.77516 0.0
H1636 H 0.23814 0.98671 0.76917 0.0
H1637 H 0.25032 0.97415 0.79562 0.0
H1638 H 0.24318 0.90457 0.80818 0.0
H1639 H 0.21354 0.9053 0.83988 0.0
H1640 H 0.62533 0.20475 0.83264 0.0
H1641 H 0.62564 0.23417 0.80076 0.0
H1642 H 0.55698 0.20791 0.77716 0.0
H1643 H 0.55689 0.17813 0.80895 0.0
H1644 H 0.58978 0.21784 0.74046 0.0
H1645 H 0.5823 0.29388 0.80273 0.0
H1646 H 0.60721 0.27429 0.80831 0.0
H1647 H 0.5771 0.26312 0.81126 0.0
C1648 C 0.61064 0.20491 0.82024 0.0
C1649 C 0.59125 0.18906 0.82289 0.0
C1650 C 0.61067 0.22188 0.80226 0.0
C1651 C 0.59114 0.22349 0.78686 0.0
C1652 C 0.57218 0.207 0.78892 0.0
H1653 H 0.55545 0.34395 0.69569 0.0
H1654 H 0.5561 0.3137 0.72706 0.0
C1655 C 0.57217 0.18997 0.80692 0.0
C1656 C 0.5902 0.24288 0.76911 0.0
H1657 H 0.58957 0.3039 0.76294 0.0
C1658 C 0.58968 0.23665 0.74535 0.0
C1659 C 0.58965 0.26741 0.77556 0.0
C1660 C 0.58886 0.27516 0.80085 0.0
C1661 C 0.58921 0.25432 0.72783 0.0
C1662 C 0.58963 0.27886 0.73428 0.0
C1663 C 0.58955 0.28509 0.75805 0.0
C1664 C 0.59007 0.29829 0.71654 0.0
C1665 C 0.58797 0.24657 0.70257 0.0
C1666 C 0.60928 0.3001 0.70077 0.0
C1667 C 0.60894 0.31734 0.68305 0.0
C1668 C 0.58954 0.33325 0.681 0.0
C1669 C 0.57072 0.33205 0.69724 0.0
C1670 C 0.57105 0.31475 0.715 0.0
H1671 H 0.58149 0.22779 0.70082 0.0
H1672 H 0.57595 0.25851 0.69238 0.0
H1673 H 0.60617 0.24757 0.69477 0.0
H1674 H 0.62431 0.28785 0.70188 0.0
H1675 H 0.62344 0.31775 0.67043 0.0
H1676 H 0.35392 0.5738 0.80156 0.0
H1677 H 0.32607 0.5775 0.76833 0.0
H1678 H 0.27395 0.61093 0.81366 0.0
H1679 H 0.30208 0.60808 0.84639 0.0
H1680 H 0.2832 0.5576 0.76259 0.0
H1681 H 0.27199 0.6561 0.75954 0.0
H1682 H 0.29521 0.64192 0.7766 0.0
H1683 H 0.26517 0.64439 0.78796 0.0
C1684 C 0.33664 0.58226 0.80416 0.0
C1685 C 0.32999 0.59061 0.82636 0.0
C1686 C 0.32072 0.5843 0.78529 0.0
C1687 C 0.29797 0.5948 0.78836 0.0
C1688 C 0.29155 0.60335 0.81061 0.0
H1689 H 0.17453 0.56775 0.69783 0.0
H1690 H 0.20319 0.569 0.73053 0.0
C1691 C 0.30751 0.60153 0.82935 0.0
C1692 C 0.28042 0.59563 0.76875 0.0
H1693 H 0.24249 0.63293 0.73906 0.0
C1694 C 0.27445 0.57412 0.75733 0.0
C1695 C 0.26916 0.61721 0.76163 0.0
C1696 C 0.2759 0.64123 0.77191 0.0
C1697 C 0.25726 0.57349 0.73937 0.0
C1698 C 0.24511 0.59486 0.73308 0.0
C1699 C 0.25144 0.61646 0.74415 0.0
C1700 C 0.22652 0.59536 0.71439 0.0
C1701 C 0.2527 0.54999 0.72698 0.0
C1702 C 0.22937 0.61064 0.69504 0.0
C1703 C 0.21278 0.61027 0.67673 0.0
C1704 C 0.19303 0.59466 0.67746 0.0
C1705 C 0.18963 0.57997 0.69706 0.0
C1706 C 0.20613 0.58049 0.71553 0.0
H1707 H 0.26801 0.53741 0.72906 0.0
H1708 H 0.23659 0.54132 0.73461 0.0
H1709 H 0.2495 0.55281 0.70802 0.0
H1710 H 0.24484 0.62233 0.69377 0.0
H1711 H 0.21577 0.62158 0.66159 0.0
H1712 H 0.10938 0.56367 0.04206 0.0
H1713 H 0.08664 0.53904 0.01397 0.0
H1714 H 0.02265 0.54876 0.05518 0.0
H1715 H 0.04491 0.57369 0.08266 0.0
H1716 H 0.06371 0.49635 0.02187 0.0
H1717 H 0.99655 0.56199 0.99105 0.0
H1718 H 0.023 0.57091 0.00702 0.0
H1719 H 0.99702 0.55984 0.02232 0.0
C1720 C 0.09034 0.56104 0.04479 0.0
C1721 C 0.07907 0.57072 0.06472 0.0
C1722 C 0.07735 0.54676 0.02881 0.0
C1723 C 0.05272 0.54211 0.03217 0.0
C1724 C 0.04141 0.55233 0.05174 0.0
H1725 H 0.94195 0.44707 0.97702 0.0
H1726 H 0.96589 0.47708 0.99824 0.0
C1727 C 0.05431 0.56647 0.06765 0.0
C1728 C 0.03906 0.52549 0.01627 0.0
H1729 H 0.98744 0.52054 0.984 0.0
C1730 C 0.04721 0.50178 0.01334 0.0
C1731 C 0.01737 0.53232 0.00513 0.0
C1732 C 1.00809 0.55772 0.00633 0.0
C1733 C 0.034 0.48469 1.0004 0.0
C1734 C 0.01209 0.49142 0.98965 0.0
C1735 C 1.00411 0.51521 0.99227 0.0
C1736 C 0.99708 0.47399 0.97591 0.0
C1737 C 0.04324 0.45928 0.99908 0.0
C1738 C 1.00627 0.46248 0.95592 0.0
C1739 C 0.99248 0.44554 0.94364 0.0
C1740 C 0.96902 0.43986 0.95082 0.0
C1741 C 0.95967 0.45157 0.97062 0.0
C1742 C 0.97346 0.46858 0.98289 0.0
H1743 H 0.0567 0.45553 0.01293 0.0
H1744 H 0.02834 0.44615 1.00076 0.0
H1745 H 0.05199 0.45643 0.98188 0.0
H1746 H 0.02423 0.4665 0.94986 0.0
H1747 H 1.00025 0.43661 0.92861 0.0
H1748 H 0.08916 0.99795 0.93093 0.0
H1749 H 0.06007 0.02194 0.95307 0.0
H1750 H 0.044 0.96043 0.99607 0.0
H1751 H 0.07405 0.9369 0.97476 0.0
H1752 H 0.01318 0.02046 0.96102 0.0
H1753 H 0.05949 1.00805 0.04575 0.0
H1754 H 0.07253 0.99849 0.01846 0.0
H1755 H 0.05041 0.98014 0.03289 0.0
C1756 C 0.07922 0.98951 0.94498 0.0
C1757 C 0.08358 0.96534 0.95071 0.0
C1758 C 0.06255 1.00325 0.95767 0.0
C1759 C 0.04988 0.99328 0.97662 0.0
C1760 C 0.05375 0.96887 0.98192 0.0
H1761 H 0.92716 0.06552 0.04641 0.0
H1762 H 0.9518 0.04112 0.01978 0.0
C1763 C 0.07062 0.95519 0.96936 0.0
C1764 C 0.03322 1.00862 0.99105 0.0
H1765 H 0.02162 0.02719 0.04703 0.0
C1766 C 0.01507 0.02192 0.97984 0.0
C1767 C 0.03572 1.01104 0.01563 0.0
C1768 C 0.05573 0.99888 0.02888 0.0
C1769 C 0.99947 0.03727 0.99238 0.0
C1770 C 1.00153 0.0391 0.01705 0.0
C1771 C 0.01971 0.02582 0.02821 0.0
C1772 C 0.98589 0.05529 0.03171 0.0
C1773 C 0.98147 0.05195 0.97888 0.0
C1774 C 0.99648 0.07149 0.04752 0.0
C1775 C 0.98242 0.08515 0.06289 0.0
C1776 C 0.95724 0.08325 0.0629 0.0
C1777 C 0.94645 0.06776 0.04655 0.0
C1778 C 0.96061 0.05378 0.03127 0.0
H1779 H 0.98681 0.054 0.96027 0.0
H1780 H 0.96384 0.04271 0.97927 0.0
H1781 H 0.97927 0.07008 0.98664 0.0
H1782 H 0.01582 0.07322 0.04835 0.0
H1783 H 0.99133 0.09682 0.07532 0.0
H1784 H 0.47699 0.9541 0.08193 0.0
H1785 H 0.49976 0.97871 0.0545 0.0
H1786 H 0.43678 0.98678 0.01153 0.0
H1787 H 0.41355 0.96254 0.0395 0.0
H1788 H 0.51099 0.97496 0.00844 0.0
H1789 H 0.45536 0.05632 0.02249 0.0
H1790 H 0.45291 0.03012 0.04085 0.0
H1791 H 0.43906 0.03049 0.01247 0.0
C1792 C 0.46789 0.96107 0.06664 0.0
C1793 C 0.44325 0.95657 0.06319 0.0
C1794 C 0.48103 0.97511 0.05086 0.0
C1795 C 0.47 0.9852 0.0311 0.0
C1796 C 0.44567 0.97977 0.0269 0.0
H1797 H 0.52639 0.08911 0.92887 0.0
H1798 H 0.50181 0.05937 0.94969 0.0
C1799 C 0.43244 0.96561 0.04276 0.0
C1800 C 0.48407 1.00169 0.01546 0.0
H1801 H 0.48685 0.05949 0.99515 0.0
C1802 C 0.50562 0.99342 0.0055 0.0
C1803 C 0.47728 0.02589 0.01156 0.0
C1804 C 0.45502 0.03638 0.02254 0.0
C1805 C 0.52038 1.00848 0.99182 0.0
C1806 C 0.51377 0.03277 0.98822 0.0
C1807 C 0.49203 0.04094 0.99784 0.0
C1808 C 0.52925 0.05009 0.97488 0.0
C1809 C 0.54281 0.9981 0.9811 0.0
C1810 C 0.5529 0.05509 0.98205 0.0
C1811 C 0.56698 0.07205 0.97007 0.0
C1812 C 0.55778 0.08437 0.95059 0.0
C1813 C 0.5341 0.07953 0.94354 0.0
C1814 C 0.52002 0.06261 0.95551 0.0
H1815 H 0.54175 0.97824 0.97967 0.0
H1816 H 0.54611 1.00567 0.96343 0.0
H1817 H 0.5584 1.00255 0.99235 0.0
H1818 H 0.56031 0.04632 0.99732 0.0
H1819 H 0.58482 0.07605 0.97648 0.0
H1820 H 0.43586 0.52217 0.93036 0.0
H1821 H 0.46514 0.49834 0.95255 0.0
H1822 H 0.4773 0.55855 0.99844 0.0
H1823 H 0.44744 0.58202 0.97675 0.0
H1824 H 0.51288 0.50303 0.96248 0.0
H1825 H 0.46106 0.5068 0.04497 0.0
H1826 H 0.44873 0.51653 0.01741 0.0
H1827 H 0.46827 0.536 0.0338 0.0
C1828 C 0.44502 0.53037 0.94505 0.0
C1829 C 0.43968 0.55415 0.95149 0.0
C1830 C 0.46175 0.51672 0.95776 0.0
C1831 C 0.47336 0.52639 0.97749 0.0
C1832 C 0.4684 0.55039 0.9836 0.0
H1833 H 0.57374 0.47708 0.08284 0.0
H1834 H 0.54861 0.49951 0.05562 0.0
C1835 C 0.4516 0.56401 0.97092 0.0
C1836 C 0.49018 0.51126 0.99186 0.0
H1837 H 0.50054 0.49103 0.04753 0.0
C1838 C 0.51008 0.50032 0.98106 0.0
C1839 C 0.4866 0.50738 0.01613 0.0
C1840 C 0.46489 0.51707 0.02874 0.0
C1841 C 0.52675 0.48643 0.99389 0.0
C1842 C 0.5234 0.48301 0.01824 0.0
C1843 C 0.50333 0.49366 0.02894 0.0
C1844 C 0.54073 0.46923 0.03327 0.0
C1845 C 0.5482 0.47609 0.9814 0.0
C1846 C 0.54533 0.44459 0.02972 0.0
C1847 C 0.55987 0.43156 0.04544 0.0
C1848 C 0.56997 0.44283 0.06518 0.0
C1849 C 0.56609 0.46767 0.06804 0.0
C1850 C 0.55166 0.48059 0.05243 0.0
H1851 H 0.55119 0.48478 0.96416 0.0
H1852 H 0.56467 0.47813 0.99213 0.0
H1853 H 0.54522 0.45664 0.97838 0.0
H1854 H 0.53691 0.4352 0.01532 0.0
H1855 H 0.56221 0.41246 0.04279 0.0
H1856 H 0.1087 0.95945 0.46135 0.0
H1857 H 0.08584 0.98398 0.48942 0.0
H1858 H 0.0222 0.97489 0.44758 0.0
H1859 H 0.0446 0.9501 0.42008 0.0
H1860 H 0.06312 0.02691 0.48151 0.0
H1861 H 0.99547 0.96125 0.51151 0.0
H1862 H 0.02206 0.95236 0.49574 0.0
H1863 H 0.99629 0.96359 0.48025 0.0
C1864 C 0.08971 0.9622 0.45847 0.0
C1865 C 0.07858 0.95274 0.43837 0.0
C1866 C 0.07665 0.97642 0.47445 0.0
C1867 C 0.05208 0.98122 0.47091 0.0
C1868 C 0.0409 0.97121 0.45116 0.0
H1869 H 0.9413 0.07615 0.52642 0.0
H1870 H 0.96506 0.046 0.50522 0.0
C1871 C 0.05388 0.95714 0.43525 0.0
C1872 C 0.03835 0.99779 0.48682 0.0
H1873 H 0.98659 1.00264 0.51891 0.0
C1874 C 0.04656 0.02146 0.48993 0.0
C1875 C 0.01657 0.99094 0.49781 0.0
C1876 C 1.00719 0.96558 0.49637 0.0
C1877 C 0.03333 0.03851 0.50291 0.0
C1878 C 1.01135 0.03175 0.51357 0.0
C1879 C 1.00331 1.008 0.51074 0.0
C1880 C 0.99636 0.04913 0.5274 0.0
C1881 C 0.04264 0.0639 0.50436 0.0
C1882 C 1.00564 0.06067 0.54735 0.0
C1883 C 0.99194 0.0777 0.55961 0.0
C1884 C 0.96849 0.08344 0.55248 0.0
C1885 C 0.95902 0.07162 0.53279 0.0
C1886 C 0.97271 0.05453 0.52053 0.0
H1887 H 0.05605 0.06772 0.49048 0.0
H1888 H 0.02778 0.07707 0.50285 0.0
H1889 H 0.05149 0.06661 0.52154 0.0
H1890 H 0.0236 0.05665 0.55336 0.0
H1891 H 0.99983 0.08672 0.57453 0.0
H1892 H 0.5634 0.11068 0.45944 0.0
H1893 H 0.53907 0.08783 0.4877 0.0
H1894 H 0.55004 0.0235 0.44723 0.0
H1895 H 0.57466 0.04589 0.41959 0.0
H1896 H 0.49686 0.06417 0.48 0.0
H1897 H 0.56321 0.99811 0.51158 0.0
H1898 H 0.57184 0.02452 0.49536 0.0
H1899 H 0.56111 0.99821 0.4803 0.0
C1900 C 0.56112 0.09155 0.45692 0.0
C1901 C 0.57106 0.08022 0.43714 0.0
C1902 C 0.54701 0.07849 0.473 0.0
C1903 C 0.54278 0.05372 0.4699 0.0
C1904 C 0.55327 0.04237 0.45049 0.0
H1905 H 0.44876 0.94237 0.52633 0.0
H1906 H 0.4788 0.96616 0.50499 0.0
C1907 C 0.56725 0.05534 0.43449 0.0
C1908 C 0.52628 0.03995 0.48588 0.0
H1909 H 0.5219 0.98857 0.51868 0.0
C1910 C 0.50248 0.04782 0.48869 0.0
C1911 C 0.53334 0.01843 0.49724 0.0
C1912 C 0.55883 1.00944 0.49618 0.0
C1913 C 0.48554 0.03452 0.50174 0.0
C1914 C 0.49251 0.0128 0.51276 0.0
C1915 C 0.51638 1.00509 0.51023 0.0
C1916 C 0.47524 0.99777 0.52672 0.0
C1917 C 0.46002 0.04347 0.50289 0.0
C1918 C 0.46351 1.0072 0.54648 0.0
C1919 C 0.44655 0.99349 0.55883 0.0
C1920 C 0.44106 0.96986 0.55198 0.0
C1921 C 0.4531 0.96022 0.5325 0.0
C1922 C 0.47013 0.97394 0.52015 0.0
H1923 H 0.45612 0.05662 0.48881 0.0
H1924 H 0.44709 0.02837 0.50148 0.0
H1925 H 0.45707 0.05253 0.51993 0.0
H1926 H 0.46731 0.02531 0.55227 0.0
H1927 H 0.43737 1.00151 0.57359 0.0
H1928 H 0.58424 0.45119 0.53071 0.0
H1929 H 0.55928 0.48143 0.51116 0.0
H1930 H 0.50001 0.46295 0.55615 0.0
H1931 H 0.52528 0.43346 0.57626 0.0
H1932 H 0.52006 0.47569 0.48609 0.0
H1933 H 0.4963 0.53463 0.56033 0.0
H1934 H 0.51964 0.51231 0.5623 0.0
H1935 H 0.48867 0.50388 0.56584 0.0
C1936 C 0.56616 0.45421 0.53696 0.0
C1937 C 0.55699 0.44052 0.55558 0.0
C1938 C 0.55175 0.47132 0.52557 0.0
C1939 C 0.52775 0.47507 0.5324 0.0
C1940 C 0.51858 0.46117 0.55091 0.0
H1941 H 0.41704 0.53168 0.44052 0.0
H1942 H 0.44203 0.50767 0.46679 0.0
C1943 C 0.53301 0.44416 0.56235 0.0
C1944 C 0.51193 0.49222 0.51918 0.0
H1945 H 0.47273 0.53925 0.52556 0.0
C1946 C 0.50988 0.48966 0.4948 0.0
C1947 C 0.49872 0.51082 0.53025 0.0
C1948 C 0.5011 0.51578 0.55608 0.0
C1949 C 0.49474 0.50455 0.48141 0.0
C1950 C 0.48062 0.52234 0.49262 0.0
C1951 C 0.48316 0.52543 0.5169 0.0
C1952 C 0.46314 0.53764 0.47929 0.0
C1953 C 0.49429 0.50122 0.45521 0.0
C1954 C 0.46543 0.56282 0.4786 0.0
C1955 C 0.45072 0.57673 0.46381 0.0
C1956 C 0.43337 0.5657 0.44953 0.0
C1957 C 0.43014 0.54072 0.45141 0.0
C1958 C 0.44467 0.52692 0.46621 0.0
H1959 H 0.51081 0.49219 0.44882 0.0
H1960 H 0.47876 0.48977 0.45041 0.0
H1961 H 0.49245 0.51869 0.44606 0.0
H1962 H 0.47939 0.57162 0.4886 0.0
H1963 H 0.4539 0.59585 0.46247 0.0
H1964 H 0.96012 0.41743 0.46232 0.0
H1965 H 0.98473 0.44038 0.49027 0.0
H1966 H 0.97592 0.50387 0.44812 0.0
H1967 H 0.95108 0.48138 0.42073 0.0
H1968 H 0.02777 0.46303 0.48215 0.0
H1969 H 0.96233 0.53091 0.51198 0.0
H1970 H 0.95337 0.50421 0.49638 0.0
H1971 H 0.9646 0.52991 0.48072 0.0
C1972 C 0.96295 0.43641 0.45935 0.0
C1973 C 0.95355 0.44747 0.4392 0.0
C1974 C 0.97722 0.44952 0.47525 0.0
C1975 C 0.98212 0.47408 0.47159 0.0
C1976 C 0.97217 0.48518 0.45179 0.0
H1977 H 0.07701 0.58538 0.52615 0.0
H1978 H 0.04694 0.56132 0.50517 0.0
C1979 C 0.95805 0.47215 0.43595 0.0
C1980 C 0.99873 0.48786 0.48742 0.0
H1981 H 1.00374 0.53985 0.51919 0.0
C1982 C 0.02237 0.47966 0.4905 0.0
C1983 C 0.99194 0.50972 0.49831 0.0
C1984 C 0.96661 0.5191 0.49689 0.0
C1985 C 0.03947 0.49297 0.50335 0.0
C1986 C 0.03278 0.51504 0.51388 0.0
C1987 C 1.00904 0.52306 0.51111 0.0
C1988 C 0.05022 0.53016 0.52753 0.0
C1989 C 0.06483 0.48367 0.50477 0.0
C1990 C 0.06184 0.52106 0.54749 0.0
C1991 C 0.07884 0.53492 0.55962 0.0
C1992 C 0.08445 0.55838 0.55235 0.0
C1993 C 0.07258 0.56767 0.53262 0.0
C1994 C 0.05552 0.5538 0.52049 0.0
H1995 H 0.06859 0.47015 0.49096 0.0
H1996 H 0.07801 0.49853 0.50311 0.0
H1997 H 0.06758 0.47493 0.52199 0.0
H1998 H 0.05788 0.50311 0.55363 0.0
H1999 H 0.0879 0.52719 0.57459 0.0
loop_
_geom_bond_atom_site_label_1
_geom_bond_atom_site_label_2
_geom_bond_distance
_geom_bond_site_symmetry_2
_ccdc_geom_bond_type
C0 C1 1.443 . S
C0 N4 1.376 . S
C0 C38 1.389 . S
C1 C0 1.443 . S
C1 C2 1.340 . S
C1 H41 0.951 . S
C2 C1 1.340 . S
C2 C3 1.439 . S
C2 H42 0.950 . S
C3 C2 1.439 . S
C3 N4 1.374 . S
C3 C37 1.395 . S
N4 C0 1.376 . S
N4 C3 1.374 . S
N4 Co5 2.008 . S
Co5 N4 2.008 . S
Co5 N6 1.995 . S
Co5 N11 2.008 . S
Co5 N16 1.995 . S
Co5 N21 2.282 . S
Co5 N27 2.282 . S
N6 Co5 1.995 . S
N6 C7 1.376 . S
N6 C10 1.383 . S
C7 N6 1.376 . S
C7 C8 1.446 . S
C7 C37 1.391 . S
C8 C7 1.446 . S
C8 C9 1.339 . S
C8 H43 0.949 . S
C9 C8 1.339 . S
C9 C10 1.439 . S
C9 H44 0.950 . S
C10 N6 1.383 . S
C10 C9 1.439 . S
C10 C39 1.392 . S
N11 Co5 2.008 . S
N11 C12 1.376 . S
N11 C15 1.374 . S
C12 N11 1.376 . S
C12 C13 1.443 . S
C12 C39 1.389 . S
C13 C12 1.443 . S
C13 C14 1.340 . S
C13 H45 0.951 . S
C14 C13 1.340 . S
C14 C15 1.439 . S
C14 H46 0.950 . S
C15 N11 1.374 . S
C15 C14 1.439 . S
C15 C40 1.395 . S
N16 Co5 1.995 . S
N16 C17 1.376 . S
N16 C20 1.383 . S
C17 N16 1.376 . S
C17 C18 1.446 . S
C17 C40 1.391 . S
C18 C17 1.446 . S
C18 C19 1.339 . S
C18 H47 0.949 . S
C19 C18 1.339 . S
C19 C20 1.439 . S
C19 H48 0.950 . S
C20 N16 1.383 . S
C20 C19 1.439 . S
C20 C38 1.392 . S
N21 Co5 2.282 . S
N21 C24 1.332 . S
N21 C26 1.332 . S
C22 C23 1.386 . S
C22 C25 1.388 . S
C23 C22 1.386 . S
C23 C24 1.382 . S
C23 H49 0.950 . S
C24 N21 1.332 . S
C24 C23 1.382 . S
C24 H35 0.952 . S
C25 C22 1.388 . S
C25 C26 1.382 . S
C25 H50 0.950 . S
C26 N21 1.332 . S
C26 C25 1.382 . S
C26 H36 0.948 . S
N27 Co5 2.282 . S
N27 C31 1.332 . S
N27 C32 1.332 . S
C28 C29 1.388 . S
C28 C32 1.382 . S
C28 H51 0.950 . S
C29 C28 1.388 . S
C29 C30 1.386 . S
C30 C29 1.386 . S
C30 C31 1.382 . S
C30 H52 0.950 . S
C31 N27 1.332 . S
C31 C30 1.382 . S
C31 H33 0.952 . S
C32 N27 1.332 . S
C32 C28 1.382 . S
C32 H34 0.948 . S
H33 C31 0.952 . S
H34 C32 0.948 . S
H35 C24 0.952 . S
H36 C26 0.948 . S
C37 C3 1.395 . S
C37 C7 1.391 . S
C38 C0 1.389 . S
C38 C20 1.392 . S
C39 C10 1.392 . S
C39 C12 1.389 . S
C40 C15 1.395 . S
C40 C17 1.391 . S
H41 C1 0.951 . S
H42 C2 0.950 . S
H43 C8 0.949 . S
H44 C9 0.950 . S
H45 C13 0.951 . S
H46 C14 0.950 . S
H47 C18 0.949 . S
H48 C19 0.950 . S
H49 C23 0.950 . S
H50 C25 0.950 . S
H51 C28 0.950 . S
H52 C30 0.950 . S
C53 C54 1.443 . S
C53 N57 1.376 . S
C53 C91 1.389 . S
C54 C53 1.443 . S
C54 C55 1.340 . S
C54 H94 0.951 . S
C55 C54 1.340 . S
C55 C56 1.439 . S
C55 H95 0.950 . S
C56 C55 1.439 . S
C56 N57 1.374 . S
C56 C90 1.395 . S
N57 C53 1.376 . S
N57 C56 1.374 . S
N57 Co58 2.008 . S
Co58 N57 2.008 . S
Co58 N59 1.995 . S
Co58 N64 2.008 . S
Co58 N69 1.995 . S
Co58 N74 2.282 . S
Co58 N80 2.282 . S
N59 Co58 1.995 . S
N59 C60 1.376 . S
N59 C63 1.383 . S
C60 N59 1.376 . S
C60 C61 1.446 . S
C60 C90 1.391 . S
C61 C60 1.446 . S
C61 C62 1.339 . S
C61 H96 0.949 . S
C62 C61 1.339 . S
C62 C63 1.439 . S
C62 H97 0.950 . S
C63 N59 1.383 . S
C63 C62 1.439 . S
C63 C92 1.392 . S
N64 Co58 2.008 . S
N64 C65 1.376 . S
N64 C68 1.374 . S
C65 N64 1.376 . S
C65 C66 1.443 . S
C65 C92 1.389 . S
C66 C65 1.443 . S
C66 C67 1.340 . S
C66 H98 0.951 . S
C67 C66 1.340 . S
C67 C68 1.439 . S
C67 H99 0.950 . S
C68 N64 1.374 . S
C68 C67 1.439 . S
C68 C93 1.395 . S
N69 Co58 1.995 . S
N69 C70 1.376 . S
N69 C73 1.383 . S
C70 N69 1.376 . S
C70 C71 1.446 . S
C70 C93 1.391 . S
C71 C70 1.446 . S
C71 C72 1.339 . S
C71 H100 0.949 . S
C72 C71 1.339 . S
C72 C73 1.439 . S
C72 H101 0.950 . S
C73 N69 1.383 . S
C73 C72 1.439 . S
C73 C91 1.392 . S
N74 Co58 2.282 . S
N74 C77 1.332 . S
N74 C79 1.332 . S
C75 C76 1.386 . S
C75 C78 1.388 . S
C76 C75 1.386 . S
C76 C77 1.382 . S
C76 H102 0.950 . S
C77 N74 1.332 . S
C77 C76 1.382 . S
C77 H88 0.952 . S
C78 C75 1.388 . S
C78 C79 1.382 . S
C78 H103 0.950 . S
C79 N74 1.332 . S
C79 C78 1.382 . S
C79 H89 0.948 . S
N80 Co58 2.282 . S
N80 C84 1.332 . S
N80 C85 1.332 . S
C81 C82 1.388 . S
C81 C85 1.382 . S
C81 H104 0.950 . S
C82 C81 1.388 . S
C82 C83 1.386 . S
C83 C82 1.386 . S
C83 C84 1.382 . S
C83 H105 0.950 . S
C84 N80 1.332 . S
C84 C83 1.382 . S
C84 H86 0.952 . S
C85 N80 1.332 . S
C85 C81 1.382 . S
C85 H87 0.948 . S
H86 C84 0.952 . S
H87 C85 0.948 . S
H88 C77 0.952 . S
H89 C79 0.948 . S
C90 C56 1.395 . S
C90 C60 1.391 . S
C91 C53 1.389 . S
C91 C73 1.392 . S
C92 C63 1.392 . S
C92 C65 1.389 . S
C93 C68 1.395 . S
C93 C70 1.391 . S
H94 C54 0.951 . S
H95 C55 0.950 . S
H96 C61 0.949 . S
H97 C62 0.950 . S
H98 C66 0.951 . S
H99 C67 0.950 . S
H100 C71 0.949 . S
H101 C72 0.950 . S
H102 C76 0.950 . S
H103 C78 0.950 . S
H104 C81 0.950 . S
H105 C83 0.950 . S
C106 C107 1.443 . S
C106 N110 1.376 . S
C106 C144 1.389 . S
C107 C106 1.443 . S
C107 C108 1.340 . S
C107 H147 0.951 . S
C108 C107 1.340 . S
C108 C109 1.439 . S
C108 H148 0.950 . S
C109 C108 1.439 . S
C109 N110 1.374 . S
C109 C143 1.395 . S
N110 C106 1.376 . S
N110 C109 1.374 . S
N110 Co111 2.008 . S
Co111 N110 2.008 . S
Co111 N112 1.995 . S
Co111 N117 2.008 . S
Co111 N122 1.995 . S
Co111 N127 2.282 . S
Co111 N133 2.282 . S
N112 Co111 1.995 . S
N112 C113 1.376 . S
N112 C116 1.383 . S
C113 N112 1.376 . S
C113 C114 1.446 . S
C113 C143 1.391 . S
C114 C113 1.446 . S
C114 C115 1.339 . S
C114 H149 0.949 . S
C115 C114 1.339 . S
C115 C116 1.439 . S
C115 H150 0.950 . S
C116 N112 1.383 . S
C116 C115 1.439 . S
C116 C145 1.392 . S
N117 Co111 2.008 . S
N117 C118 1.376 . S
N117 C121 1.374 . S
C118 N117 1.376 . S
C118 C119 1.443 . S
C118 C145 1.389 . S
C119 C118 1.443 . S
C119 C120 1.340 . S
C119 H151 0.951 . S
C120 C119 1.340 . S
C120 C121 1.439 . S
C120 H152 0.950 . S
C121 N117 1.374 . S
C121 C120 1.439 . S
C121 C146 1.395 . S
N122 Co111 1.995 . S
N122 C123 1.376 . S
N122 C126 1.383 . S
C123 N122 1.376 . S
C123 C124 1.446 . S
C123 C146 1.391 . S
C124 C123 1.446 . S
C124 C125 1.339 . S
C124 H153 0.949 . S
C125 C124 1.339 . S
C125 C126 1.439 . S
C125 H154 0.950 . S
C126 N122 1.383 . S
C126 C125 1.439 . S
C126 C144 1.392 . S
N127 Co111 2.282 . S
N127 C130 1.332 . S
N127 C132 1.332 . S
C128 C129 1.386 . S
C128 C131 1.388 . S
C129 C128 1.386 . S
C129 C130 1.382 . S
C129 H155 0.950 . S
C130 N127 1.332 . S
C130 C129 1.382 . S
C130 H141 0.952 . S
C131 C128 1.388 . S
C131 C132 1.382 . S
C131 H156 0.950 . S
C132 N127 1.332 . S
C132 C131 1.382 . S
C132 H142 0.948 . S
N133 Co111 2.282 . S
N133 C137 1.332 . S
N133 C138 1.332 . S
C134 C135 1.388 . S
C134 C138 1.382 . S
C134 H157 0.950 . S
C135 C134 1.388 . S
C135 C136 1.386 . S
C136 C135 1.386 . S
C136 C137 1.382 . S
C136 H158 0.950 . S
C137 N133 1.332 . S
C137 C136 1.382 . S
C137 H139 0.952 . S
C138 N133 1.332 . S
C138 C134 1.382 . S
C138 H140 0.948 . S
H139 C137 0.952 . S
H140 C138 0.948 . S
H141 C130 0.952 . S
H142 C132 0.948 . S
C143 C109 1.395 . S
C143 C113 1.391 . S
C144 C106 1.389 . S
C144 C126 1.392 . S
C145 C116 1.392 . S
C145 C118 1.389 . S
C146 C121 1.395 . S
C146 C123 1.391 . S
H147 C107 0.951 . S
H148 C108 0.950 . S
H149 C114 0.949 . S
H150 C115 0.950 . S
H151 C119 0.951 . S
H152 C120 0.950 . S
H153 C124 0.949 . S
H154 C125 0.950 . S
H155 C129 0.950 . S
H156 C131 0.950 . S
H157 C134 0.950 . S
H158 C136 0.950 . S
C159 C160 1.443 . S
C159 N163 1.376 . S
C159 C197 1.389 . S
C160 C159 1.443 . S
C160 C161 1.340 . S
C160 H200 0.951 . S
C161 C160 1.340 . S
C161 C162 1.439 . S
C161 H201 0.950 . S
C162 C161 1.439 . S
C162 N163 1.374 . S
C162 C196 1.395 . S
N163 C159 1.376 . S
N163 C162 1.374 . S
N163 Co164 2.008 . S
Co164 N163 2.008 . S
Co164 N165 1.995 . S
Co164 N170 2.008 . S
Co164 N175 1.995 . S
Co164 N180 2.282 . S
Co164 N186 2.282 . S
N165 Co164 1.995 . S
N165 C166 1.376 . S
N165 C169 1.383 . S
C166 N165 1.376 . S
C166 C167 1.446 . S
C166 C196 1.391 . S
C167 C166 1.446 . S
C167 C168 1.339 . S
C167 H202 0.949 . S
C168 C167 1.339 . S
C168 C169 1.439 . S
C168 H203 0.950 . S
C169 N165 1.383 . S
C169 C168 1.439 . S
C169 C198 1.392 . S
N170 Co164 2.008 . S
N170 C171 1.376 . S
N170 C174 1.374 . S
C171 N170 1.376 . S
C171 C172 1.443 . S
C171 C198 1.389 . S
C172 C171 1.443 . S
C172 C173 1.340 . S
C172 H204 0.951 . S
C173 C172 1.340 . S
C173 C174 1.439 . S
C173 H205 0.950 . S
C174 N170 1.374 . S
C174 C173 1.439 . S
C174 C199 1.395 . S
N175 Co164 1.995 . S
N175 C176 1.376 . S
N175 C179 1.383 . S
C176 N175 1.376 . S
C176 C177 1.446 . S
C176 C199 1.391 . S
C177 C176 1.446 . S
C177 C178 1.339 . S
C177 H206 0.949 . S
C178 C177 1.339 . S
C178 C179 1.439 . S
C178 H207 0.950 . S
C179 N175 1.383 . S
C179 C178 1.439 . S
C179 C197 1.392 . S
N180 Co164 2.282 . S
N180 C183 1.332 . S
N180 C185 1.332 . S
C181 C182 1.386 . S
C181 C184 1.388 . S
C182 C181 1.386 . S
C182 C183 1.382 . S
C182 H208 0.950 . S
C183 N180 1.332 . S
C183 C182 1.382 . S
C183 H194 0.952 . S
C184 C181 1.388 . S
C184 C185 1.382 . S
C184 H209 0.950 . S
C185 N180 1.332 . S
C185 C184 1.382 . S
C185 H195 0.948 . S
N186 Co164 2.282 . S
N186 C190 1.332 . S
N186 C191 1.332 . S
C187 C188 1.388 . S
C187 C191 1.382 . S
C187 H210 0.950 . S
C188 C187 1.388 . S
C188 C189 1.386 . S
C189 C188 1.386 . S
C189 C190 1.382 . S
C189 H211 0.950 . S
C190 N186 1.332 . S
C190 C189 1.382 . S
C190 H192 0.952 . S
C191 N186 1.332 . S
C191 C187 1.382 . S
C191 H193 0.948 . S
H192 C190 0.952 . S
H193 C191 0.948 . S
H194 C183 0.952 . S
H195 C185 0.948 . S
C196 C162 1.395 . S
C196 C166 1.391 . S
C197 C159 1.389 . S
C197 C179 1.392 . S
C198 C169 1.392 . S
C198 C171 1.389 . S
C199 C174 1.395 . S
C199 C176 1.391 . S
H200 C160 0.951 . S
H201 C161 0.950 . S
H202 C167 0.949 . S
H203 C168 0.950 . S
H204 C172 0.951 . S
H205 C173 0.950 . S
H206 C177 0.949 . S
H207 C178 0.950 . S
H208 C182 0.950 . S
H209 C184 0.950 . S
H210 C187 0.950 . S
H211 C189 0.950 . S
C212 C213 1.443 . S
C212 N216 1.376 . S
C212 C250 1.389 . S
C213 C212 1.443 . S
C213 C214 1.340 . S
C213 H253 0.951 . S
C214 C213 1.340 . S
C214 C215 1.439 . S
C214 H254 0.950 . S
C215 C214 1.439 . S
C215 N216 1.374 . S
C215 C249 1.395 . S
N216 C212 1.376 . S
N216 C215 1.374 . S
N216 Co217 2.008 . S
Co217 N216 2.008 . S
Co217 N218 1.995 . S
Co217 N223 2.008 . S
Co217 N228 1.995 . S
Co217 N233 2.282 . S
Co217 N239 2.282 . S
N218 Co217 1.995 . S
N218 C219 1.376 . S
N218 C222 1.383 . S
C219 N218 1.376 . S
C219 C220 1.446 . S
C219 C249 1.391 . S
C220 C219 1.446 . S
C220 C221 1.339 . S
C220 H255 0.949 . S
C221 C220 1.339 . S
C221 C222 1.439 . S
C221 H256 0.950 . S
C222 N218 1.383 . S
C222 C221 1.439 . S
C222 C251 1.392 . S
N223 Co217 2.008 . S
N223 C224 1.376 . S
N223 C227 1.374 . S
C224 N223 1.376 . S
C224 C225 1.443 . S
C224 C251 1.389 . S
C225 C224 1.443 . S
C225 C226 1.340 . S
C225 H257 0.951 . S
C226 C225 1.340 . S
C226 C227 1.439 . S
C226 H258 0.950 . S
C227 N223 1.374 . S
C227 C226 1.439 . S
C227 C252 1.395 . S
N228 Co217 1.995 . S
N228 C229 1.376 . S
N228 C232 1.383 . S
C229 N228 1.376 . S
C229 C230 1.446 . S
C229 C252 1.391 . S
C230 C229 1.446 . S
C230 C231 1.339 . S
C230 H259 0.949 . S
C231 C230 1.339 . S
C231 C232 1.439 . S
C231 H260 0.950 . S
C232 N228 1.383 . S
C232 C231 1.439 . S
C232 C250 1.392 . S
N233 Co217 2.282 . S
N233 C236 1.332 . S
N233 C238 1.332 . S
C234 C235 1.386 . S
C234 C237 1.388 . S
C235 C234 1.386 . S
C235 C236 1.382 . S
C235 H261 0.950 . S
C236 N233 1.332 . S
C236 C235 1.382 . S
C236 H247 0.952 . S
C237 C234 1.388 . S
C237 C238 1.382 . S
C237 H262 0.950 . S
C238 N233 1.332 . S
C238 C237 1.382 . S
C238 H248 0.948 . S
N239 Co217 2.282 . S
N239 C243 1.332 . S
N239 C244 1.332 . S
C240 C241 1.388 . S
C240 C244 1.382 . S
C240 H263 0.950 . S
C241 C240 1.388 . S
C241 C242 1.386 . S
C242 C241 1.386 . S
C242 C243 1.382 . S
C242 H264 0.950 . S
C243 N239 1.332 . S
C243 C242 1.382 . S
C243 H245 0.952 . S
C244 N239 1.332 . S
C244 C240 1.382 . S
C244 H246 0.948 . S
H245 C243 0.952 . S
H246 C244 0.948 . S
H247 C236 0.952 . S
H248 C238 0.948 . S
C249 C215 1.395 . S
C249 C219 1.391 . S
C250 C212 1.389 . S
C250 C232 1.392 . S
C251 C222 1.392 . S
C251 C224 1.389 . S
C252 C227 1.395 . S
C252 C229 1.391 . S
H253 C213 0.951 . S
H254 C214 0.950 . S
H255 C220 0.949 . S
H256 C221 0.950 . S
H257 C225 0.951 . S
H258 C226 0.950 . S
H259 C230 0.949 . S
H260 C231 0.950 . S
H261 C235 0.950 . S
H262 C237 0.950 . S
H263 C240 0.950 . S
H264 C242 0.950 . S
C265 C266 1.443 . S
C265 N269 1.376 . S
C265 C303 1.389 . S
C266 C265 1.443 . S
C266 C267 1.340 . S
C266 H306 0.951 . S
C267 C266 1.340 . S
C267 C268 1.439 . S
C267 H307 0.950 . S
C268 C267 1.439 . S
C268 N269 1.374 . S
C268 C302 1.395 . S
N269 C265 1.376 . S
N269 C268 1.374 . S
N269 Co270 2.008 . S
Co270 N269 2.008 . S
Co270 N271 1.995 . S
Co270 N276 2.008 . S
Co270 N281 1.995 . S
Co270 N286 2.282 . S
Co270 N292 2.282 . S
N271 Co270 1.995 . S
N271 C272 1.376 . S
N271 C275 1.383 . S
C272 N271 1.376 . S
C272 C273 1.446 . S
C272 C302 1.391 . S
C273 C272 1.446 . S
C273 C274 1.339 . S
C273 H308 0.949 . S
C274 C273 1.339 . S
C274 C275 1.439 . S
C274 H309 0.950 . S
C275 N271 1.383 . S
C275 C274 1.439 . S
C275 C304 1.392 . S
N276 Co270 2.008 . S
N276 C277 1.376 . S
N276 C280 1.374 . S
C277 N276 1.376 . S
C277 C278 1.443 . S
C277 C304 1.389 . S
C278 C277 1.443 . S
C278 C279 1.340 . S
C278 H310 0.951 . S
C279 C278 1.340 . S
C279 C280 1.439 . S
C279 H311 0.950 . S
C280 N276 1.374 . S
C280 C279 1.439 . S
C280 C305 1.395 . S
N281 Co270 1.995 . S
N281 C282 1.376 . S
N281 C285 1.383 . S
C282 N281 1.376 . S
C282 C283 1.446 . S
C282 C305 1.391 . S
C283 C282 1.446 . S
C283 C284 1.339 . S
C283 H312 0.949 . S
C284 C283 1.339 . S
C284 C285 1.439 . S
C284 H313 0.950 . S
C285 N281 1.383 . S
C285 C284 1.439 . S
C285 C303 1.392 . S
N286 Co270 2.282 . S
N286 C289 1.332 . S
N286 C291 1.332 . S
C287 C288 1.386 . S
C287 C290 1.388 . S
C288 C287 1.386 . S
C288 C289 1.382 . S
C288 H314 0.950 . S
C289 N286 1.332 . S
C289 C288 1.382 . S
C289 H300 0.952 . S
C290 C287 1.388 . S
C290 C291 1.382 . S
C290 H315 0.950 . S
C291 N286 1.332 . S
C291 C290 1.382 . S
C291 H301 0.948 . S
N292 Co270 2.282 . S
N292 C296 1.332 . S
N292 C297 1.332 . S
C293 C294 1.388 . S
C293 C297 1.382 . S
C293 H316 0.950 . S
C294 C293 1.388 . S
C294 C295 1.386 . S
C295 C294 1.386 . S
C295 C296 1.382 . S
C295 H317 0.950 . S
C296 N292 1.332 . S
C296 C295 1.382 . S
C296 H298 0.952 . S
C297 N292 1.332 . S
C297 C293 1.382 . S
C297 H299 0.948 . S
H298 C296 0.952 . S
H299 C297 0.948 . S
H300 C289 0.952 . S
H301 C291 0.948 . S
C302 C268 1.395 . S
C302 C272 1.391 . S
C303 C265 1.389 . S
C303 C285 1.392 . S
C304 C275 1.392 . S
C304 C277 1.389 . S
C305 C280 1.395 . S
C305 C282 1.391 . S
H306 C266 0.951 . S
H307 C267 0.950 . S
H308 C273 0.949 . S
H309 C274 0.950 . S
H310 C278 0.951 . S
H311 C279 0.950 . S
H312 C283 0.949 . S
H313 C284 0.950 . S
H314 C288 0.950 . S
H315 C290 0.950 . S
H316 C293 0.950 . S
H317 C295 0.950 . S
C318 C319 1.443 . S
C318 N322 1.376 . S
C318 C356 1.389 . S
C319 C318 1.443 . S
C319 C320 1.340 . S
C319 H359 0.951 . S
C320 C319 1.340 . S
C320 C321 1.439 . S
C320 H360 0.950 . S
C321 C320 1.439 . S
C321 N322 1.374 . S
C321 C355 1.395 . S
N322 C318 1.376 . S
N322 C321 1.374 . S
N322 Co323 2.008 . S
Co323 N322 2.008 . S
Co323 N324 1.995 . S
Co323 N329 2.008 . S
Co323 N334 1.995 . S
Co323 N339 2.282 . S
Co323 N345 2.282 . S
N324 Co323 1.995 . S
N324 C325 1.376 . S
N324 C328 1.383 . S
C325 N324 1.376 . S
C325 C326 1.446 . S
C325 C355 1.391 . S
C326 C325 1.446 . S
C326 C327 1.339 . S
C326 H361 0.949 . S
C327 C326 1.339 . S
C327 C328 1.439 . S
C327 H362 0.950 . S
C328 N324 1.383 . S
C328 C327 1.439 . S
C328 C357 1.392 . S
N329 Co323 2.008 . S
N329 C330 1.376 . S
N329 C333 1.374 . S
C330 N329 1.376 . S
C330 C331 1.443 . S
C330 C357 1.389 . S
C331 C330 1.443 . S
C331 C332 1.340 . S
C331 H363 0.951 . S
C332 C331 1.340 . S
C332 C333 1.439 . S
C332 H364 0.950 . S
C333 N329 1.374 . S
C333 C332 1.439 . S
C333 C358 1.395 . S
N334 Co323 1.995 . S
N334 C335 1.376 . S
N334 C338 1.383 . S
C335 N334 1.376 . S
C335 C336 1.446 . S
C335 C358 1.391 . S
C336 C335 1.446 . S
C336 C337 1.339 . S
C336 H365 0.949 . S
C337 C336 1.339 . S
C337 C338 1.439 . S
C337 H366 0.950 . S
C338 N334 1.383 . S
C338 C337 1.439 . S
C338 C356 1.392 . S
N339 Co323 2.282 . S
N339 C342 1.332 . S
N339 C344 1.332 . S
C340 C341 1.386 . S
C340 C343 1.388 . S
C341 C340 1.386 . S
C341 C342 1.382 . S
C341 H367 0.950 . S
C342 N339 1.332 . S
C342 C341 1.382 . S
C342 H353 0.952 . S
C343 C340 1.388 . S
C343 C344 1.382 . S
C343 H368 0.950 . S
C344 N339 1.332 . S
C344 C343 1.382 . S
C344 H354 0.948 . S
N345 Co323 2.282 . S
N345 C349 1.332 . S
N345 C350 1.332 . S
C346 C347 1.388 . S
C346 C350 1.382 . S
C346 H369 0.950 . S
C347 C346 1.388 . S
C347 C348 1.386 . S
C348 C347 1.386 . S
C348 C349 1.382 . S
C348 H370 0.950 . S
C349 N345 1.332 . S
C349 C348 1.382 . S
C349 H351 0.952 . S
C350 N345 1.332 . S
C350 C346 1.382 . S
C350 H352 0.948 . S
H351 C349 0.952 . S
H352 C350 0.948 . S
H353 C342 0.952 . S
H354 C344 0.948 . S
C355 C321 1.395 . S
C355 C325 1.391 . S
C356 C318 1.389 . S
C356 C338 1.392 . S
C357 C328 1.392 . S
C357 C330 1.389 . S
C358 C333 1.395 . S
C358 C335 1.391 . S
H359 C319 0.951 . S
H360 C320 0.950 . S
H361 C326 0.949 . S
H362 C327 0.950 . S
H363 C331 0.951 . S
H364 C332 0.950 . S
H365 C336 0.949 . S
H366 C337 0.950 . S
H367 C341 0.950 . S
H368 C343 0.950 . S
H369 C346 0.950 . S
H370 C348 0.950 . S
C371 C372 1.443 . S
C371 N375 1.376 . S
C371 C409 1.389 . S
C372 C371 1.443 . S
C372 C373 1.340 . S
C372 H412 0.951 . S
C373 C372 1.340 . S
C373 C374 1.439 . S
C373 H413 0.950 . S
C374 C373 1.439 . S
C374 N375 1.374 . S
C374 C408 1.395 . S
N375 C371 1.376 . S
N375 C374 1.374 . S
N375 Co376 2.008 . S
Co376 N375 2.008 . S
Co376 N377 1.995 . S
Co376 N382 2.008 . S
Co376 N387 1.995 . S
Co376 N392 2.282 . S
Co376 N398 2.282 . S
N377 Co376 1.995 . S
N377 C378 1.376 . S
N377 C381 1.383 . S
C378 N377 1.376 . S
C378 C379 1.446 . S
C378 C408 1.391 . S
C379 C378 1.446 . S
C379 C380 1.339 . S
C379 H414 0.949 . S
C380 C379 1.339 . S
C380 C381 1.439 . S
C380 H415 0.950 . S
C381 N377 1.383 . S
C381 C380 1.439 . S
C381 C410 1.392 . S
N382 Co376 2.008 . S
N382 C383 1.376 . S
N382 C386 1.374 . S
C383 N382 1.376 . S
C383 C384 1.443 . S
C383 C410 1.389 . S
C384 C383 1.443 . S
C384 C385 1.340 . S
C384 H416 0.951 . S
C385 C384 1.340 . S
C385 C386 1.439 . S
C385 H417 0.950 . S
C386 N382 1.374 . S
C386 C385 1.439 . S
C386 C411 1.395 . S
N387 Co376 1.995 . S
N387 C388 1.376 . S
N387 C391 1.383 . S
C388 N387 1.376 . S
C388 C389 1.446 . S
C388 C411 1.391 . S
C389 C388 1.446 . S
C389 C390 1.339 . S
C389 H418 0.949 . S
C390 C389 1.339 . S
C390 C391 1.439 . S
C390 H419 0.950 . S
C391 N387 1.383 . S
C391 C390 1.439 . S
C391 C409 1.392 . S
N392 Co376 2.282 . S
N392 C395 1.332 . S
N392 C397 1.332 . S
C393 C394 1.386 . S
C393 C396 1.388 . S
C394 C393 1.386 . S
C394 C395 1.382 . S
C394 H420 0.950 . S
C395 N392 1.332 . S
C395 C394 1.382 . S
C395 H406 0.952 . S
C396 C393 1.388 . S
C396 C397 1.382 . S
C396 H421 0.950 . S
C397 N392 1.332 . S
C397 C396 1.382 . S
C397 H407 0.948 . S
N398 Co376 2.282 . S
N398 C402 1.332 . S
N398 C403 1.332 . S
C399 C400 1.388 . S
C399 C403 1.382 . S
C399 H422 0.950 . S
C400 C399 1.388 . S
C400 C401 1.386 . S
C401 C400 1.386 . S
C401 C402 1.382 . S
C401 H423 0.950 . S
C402 N398 1.332 . S
C402 C401 1.382 . S
C402 H404 0.952 . S
C403 N398 1.332 . S
C403 C399 1.382 . S
C403 H405 0.948 . S
H404 C402 0.952 . S
H405 C403 0.948 . S
H406 C395 0.952 . S
H407 C397 0.948 . S
C408 C374 1.395 . S
C408 C378 1.391 . S
C409 C371 1.389 . S
C409 C391 1.392 . S
C410 C381 1.392 . S
C410 C383 1.389 . S
C411 C386 1.395 . S
C411 C388 1.391 . S
H412 C372 0.951 . S
H413 C373 0.950 . S
H414 C379 0.949 . S
H415 C380 0.950 . S
H416 C384 0.951 . S
H417 C385 0.950 . S
H418 C389 0.949 . S
H419 C390 0.950 . S
H420 C394 0.950 . S
H421 C396 0.950 . S
H422 C399 0.950 . S
H423 C401 0.950 . S
C424 C425 1.443 . S
C424 N428 1.376 . S
C424 C462 1.389 . S
C425 C424 1.443 . S
C425 C426 1.340 . S
C425 H465 0.951 . S
C426 C425 1.340 . S
C426 C427 1.439 . S
C426 H466 0.950 . S
C427 C426 1.439 . S
C427 N428 1.374 . S
C427 C461 1.395 . S
N428 C424 1.376 . S
N428 C427 1.374 . S
N428 Co429 2.008 . S
Co429 N428 2.008 . S
Co429 N430 1.995 . S
Co429 N435 2.008 . S
Co429 N440 1.995 . S
Co429 N445 2.282 . S
Co429 N451 2.282 . S
N430 Co429 1.995 . S
N430 C431 1.376 . S
N430 C434 1.383 . S
C431 N430 1.376 . S
C431 C432 1.446 . S
C431 C461 1.391 . S
C432 C431 1.446 . S
C432 C433 1.339 . S
C432 H467 0.949 . S
C433 C432 1.339 . S
C433 C434 1.439 . S
C433 H468 0.950 . S
C434 N430 1.383 . S
C434 C433 1.439 . S
C434 C463 1.392 . S
N435 Co429 2.008 . S
N435 C436 1.376 . S
N435 C439 1.374 . S
C436 N435 1.376 . S
C436 C437 1.443 . S
C436 C463 1.389 . S
C437 C436 1.443 . S
C437 C438 1.340 . S
C437 H469 0.951 . S
C438 C437 1.340 . S
C438 C439 1.439 . S
C438 H470 0.950 . S
C439 N435 1.374 . S
C439 C438 1.439 . S
C439 C464 1.395 . S
N440 Co429 1.995 . S
N440 C441 1.376 . S
N440 C444 1.383 . S
C441 N440 1.376 . S
C441 C442 1.446 . S
C441 C464 1.391 . S
C442 C441 1.446 . S
C442 C443 1.339 . S
C442 H471 0.949 . S
C443 C442 1.339 . S
C443 C444 1.439 . S
C443 H472 0.950 . S
C444 N440 1.383 . S
C444 C443 1.439 . S
C444 C462 1.392 . S
N445 Co429 2.282 . S
N445 C448 1.332 . S
N445 C450 1.332 . S
C446 C447 1.386 . S
C446 C449 1.388 . S
C447 C446 1.386 . S
C447 C448 1.382 . S
C447 H473 0.950 . S
C448 N445 1.332 . S
C448 C447 1.382 . S
C448 H459 0.952 . S
C449 C446 1.388 . S
C449 C450 1.382 . S
C449 H474 0.950 . S
C450 N445 1.332 . S
C450 C449 1.382 . S
C450 H460 0.948 . S
N451 Co429 2.282 . S
N451 C455 1.332 . S
N451 C456 1.332 . S
C452 C453 1.388 . S
C452 C456 1.382 . S
C452 H475 0.950 . S
C453 C452 1.388 . S
C453 C454 1.386 . S
C454 C453 1.386 . S
C454 C455 1.382 . S
C454 H476 0.950 . S
C455 N451 1.332 . S
C455 C454 1.382 . S
C455 H457 0.952 . S
C456 N451 1.332 . S
C456 C452 1.382 . S
C456 H458 0.948 . S
H457 C455 0.952 . S
H458 C456 0.948 . S
H459 C448 0.952 . S
H460 C450 0.948 . S
C461 C427 1.395 . S
C461 C431 1.391 . S
C462 C424 1.389 . S
C462 C444 1.392 . S
C463 C434 1.392 . S
C463 C436 1.389 . S
C464 C439 1.395 . S
C464 C441 1.391 . S
H465 C425 0.951 . S
H466 C426 0.950 . S
H467 C432 0.949 . S
H468 C433 0.950 . S
H469 C437 0.951 . S
H470 C438 0.950 . S
H471 C442 0.949 . S
H472 C443 0.950 . S
H473 C447 0.950 . S
H474 C449 0.950 . S
H475 C452 0.950 . S
H476 C454 0.950 . S
C477 C478 1.443 . S
C477 N481 1.376 . S
C477 C515 1.389 . S
C478 C477 1.443 . S
C478 C479 1.340 . S
C478 H518 0.951 . S
C479 C478 1.340 . S
C479 C480 1.439 . S
C479 H519 0.950 . S
C480 C479 1.439 . S
C480 N481 1.374 . S
C480 C514 1.395 . S
N481 C477 1.376 . S
N481 C480 1.374 . S
N481 Co482 2.008 . S
Co482 N481 2.008 . S
Co482 N483 1.995 . S
Co482 N488 2.008 . S
Co482 N493 1.995 . S
Co482 N498 2.282 . S
Co482 N504 2.282 . S
N483 Co482 1.995 . S
N483 C484 1.376 . S
N483 C487 1.383 . S
C484 N483 1.376 . S
C484 C485 1.446 . S
C484 C514 1.391 . S
C485 C484 1.446 . S
C485 C486 1.339 . S
C485 H520 0.949 . S
C486 C485 1.339 . S
C486 C487 1.439 . S
C486 H521 0.950 . S
C487 N483 1.383 . S
C487 C486 1.439 . S
C487 C516 1.392 . S
N488 Co482 2.008 . S
N488 C489 1.376 . S
N488 C492 1.374 . S
C489 N488 1.376 . S
C489 C490 1.443 . S
C489 C516 1.389 . S
C490 C489 1.443 . S
C490 C491 1.340 . S
C490 H522 0.951 . S
C491 C490 1.340 . S
C491 C492 1.439 . S
C491 H523 0.950 . S
C492 N488 1.374 . S
C492 C491 1.439 . S
C492 C517 1.395 . S
N493 Co482 1.995 . S
N493 C494 1.376 . S
N493 C497 1.383 . S
C494 N493 1.376 . S
C494 C495 1.446 . S
C494 C517 1.391 . S
C495 C494 1.446 . S
C495 C496 1.339 . S
C495 H524 0.949 . S
C496 C495 1.339 . S
C496 C497 1.439 . S
C496 H525 0.950 . S
C497 N493 1.383 . S
C497 C496 1.439 . S
C497 C515 1.392 . S
N498 Co482 2.282 . S
N498 C501 1.332 . S
N498 C503 1.332 . S
C499 C500 1.386 . S
C499 C502 1.388 . S
C500 C499 1.386 . S
C500 C501 1.382 . S
C500 H526 0.950 . S
C501 N498 1.332 . S
C501 C500 1.382 . S
C501 H512 0.952 . S
C502 C499 1.388 . S
C502 C503 1.382 . S
C502 H527 0.950 . S
C503 N498 1.332 . S
C503 C502 1.382 . S
C503 H513 0.948 . S
N504 Co482 2.282 . S
N504 C508 1.332 . S
N504 C509 1.332 . S
C505 C506 1.388 . S
C505 C509 1.382 . S
C505 H528 0.950 . S
C506 C505 1.388 . S
C506 C507 1.386 . S
C507 C506 1.386 . S
C507 C508 1.382 . S
C507 H529 0.950 . S
C508 N504 1.332 . S
C508 C507 1.382 . S
C508 H510 0.952 . S
C509 N504 1.332 . S
C509 C505 1.382 . S
C509 H511 0.948 . S
H510 C508 0.952 . S
H511 C509 0.948 . S
H512 C501 0.952 . S
H513 C503 0.948 . S
C514 C480 1.395 . S
C514 C484 1.391 . S
C515 C477 1.389 . S
C515 C497 1.392 . S
C516 C487 1.392 . S
C516 C489 1.389 . S
C517 C492 1.395 . S
C517 C494 1.391 . S
H518 C478 0.951 . S
H519 C479 0.950 . S
H520 C485 0.949 . S
H521 C486 0.950 . S
H522 C490 0.951 . S
H523 C491 0.950 . S
H524 C495 0.949 . S
H525 C496 0.950 . S
H526 C500 0.950 . S
H527 C502 0.950 . S
H528 C505 0.950 . S
H529 C507 0.950 . S
C530 C531 1.443 . S
C530 N534 1.376 . S
C530 C568 1.389 . S
C531 C530 1.443 . S
C531 C532 1.340 . S
C531 H571 0.951 . S
C532 C531 1.340 . S
C532 C533 1.439 . S
C532 H572 0.950 . S
C533 C532 1.439 . S
C533 N534 1.374 . S
C533 C567 1.395 . S
N534 C530 1.376 . S
N534 C533 1.374 . S
N534 Co535 2.008 . S
Co535 N534 2.008 . S
Co535 N536 1.995 . S
Co535 N541 2.008 . S
Co535 N546 1.995 . S
Co535 N551 2.282 . S
Co535 N557 2.282 . S
N536 Co535 1.995 . S
N536 C537 1.376 . S
N536 C540 1.383 . S
C537 N536 1.376 . S
C537 C538 1.446 . S
C537 C567 1.391 . S
C538 C537 1.446 . S
C538 C539 1.339 . S
C538 H573 0.949 . S
C539 C538 1.339 . S
C539 C540 1.439 . S
C539 H574 0.950 . S
C540 N536 1.383 . S
C540 C539 1.439 . S
C540 C569 1.392 . S
N541 Co535 2.008 . S
N541 C542 1.376 . S
N541 C545 1.374 . S
C542 N541 1.376 . S
C542 C543 1.443 . S
C542 C569 1.389 . S
C543 C542 1.443 . S
C543 C544 1.340 . S
C543 H575 0.951 . S
C544 C543 1.340 . S
C544 C545 1.439 . S
C544 H576 0.950 . S
C545 N541 1.374 . S
C545 C544 1.439 . S
C545 C570 1.395 . S
N546 Co535 1.995 . S
N546 C547 1.376 . S
N546 C550 1.383 . S
C547 N546 1.376 . S
C547 C548 1.446 . S
C547 C570 1.391 . S
C548 C547 1.446 . S
C548 C549 1.339 . S
C548 H577 0.949 . S
C549 C548 1.339 . S
C549 C550 1.439 . S
C549 H578 0.950 . S
C550 N546 1.383 . S
C550 C549 1.439 . S
C550 C568 1.392 . S
N551 Co535 2.282 . S
N551 C554 1.332 . S
N551 C556 1.332 . S
C552 C553 1.386 . S
C552 C555 1.388 . S
C553 C552 1.386 . S
C553 C554 1.382 . S
C553 H579 0.950 . S
C554 N551 1.332 . S
C554 C553 1.382 . S
C554 H565 0.952 . S
C555 C552 1.388 . S
C555 C556 1.382 . S
C555 H580 0.950 . S
C556 N551 1.332 . S
C556 C555 1.382 . S
C556 H566 0.948 . S
N557 Co535 2.282 . S
N557 C561 1.332 . S
N557 C562 1.332 . S
C558 C559 1.388 . S
C558 C562 1.382 . S
C558 H581 0.950 . S
C559 C558 1.388 . S
C559 C560 1.386 . S
C560 C559 1.386 . S
C560 C561 1.382 . S
C560 H582 0.950 . S
C561 N557 1.332 . S
C561 C560 1.382 . S
C561 H563 0.952 . S
C562 N557 1.332 . S
C562 C558 1.382 . S
C562 H564 0.948 . S
H563 C561 0.952 . S
H564 C562 0.948 . S
H565 C554 0.952 . S
H566 C556 0.948 . S
C567 C533 1.395 . S
C567 C537 1.391 . S
C568 C530 1.389 . S
C568 C550 1.392 . S
C569 C540 1.392 . S
C569 C542 1.389 . S
C570 C545 1.395 . S
C570 C547 1.391 . S
H571 C531 0.951 . S
H572 C532 0.950 . S
H573 C538 0.949 . S
H574 C539 0.950 . S
H575 C543 0.951 . S
H576 C544 0.950 . S
H577 C548 0.949 . S
H578 C549 0.950 . S
H579 C553 0.950 . S
H580 C555 0.950 . S
H581 C558 0.950 . S
H582 C560 0.950 . S
C583 C584 1.443 . S
C583 N587 1.376 . S
C583 C621 1.389 . S
C584 C583 1.443 . S
C584 C585 1.340 . S
C584 H624 0.951 . S
C585 C584 1.340 . S
C585 C586 1.439 . S
C585 H625 0.950 . S
C586 C585 1.439 . S
C586 N587 1.374 . S
C586 C620 1.395 . S
N587 C583 1.376 . S
N587 C586 1.374 . S
N587 Co588 2.008 . S
Co588 N587 2.008 . S
Co588 N589 1.995 . S
Co588 N594 2.008 . S
Co588 N599 1.995 . S
Co588 N604 2.282 . S
Co588 N610 2.282 . S
N589 Co588 1.995 . S
N589 C590 1.376 . S
N589 C593 1.383 . S
C590 N589 1.376 . S
C590 C591 1.446 . S
C590 C620 1.391 . S
C591 C590 1.446 . S
C591 C592 1.339 . S
C591 H626 0.949 . S
C592 C591 1.339 . S
C592 C593 1.439 . S
C592 H627 0.950 . S
C593 N589 1.383 . S
C593 C592 1.439 . S
C593 C622 1.392 . S
N594 Co588 2.008 . S
N594 C595 1.376 . S
N594 C598 1.374 . S
C595 N594 1.376 . S
C595 C596 1.443 . S
C595 C622 1.389 . S
C596 C595 1.443 . S
C596 C597 1.340 . S
C596 H628 0.951 . S
C597 C596 1.340 . S
C597 C598 1.439 . S
C597 H629 0.950 . S
C598 N594 1.374 . S
C598 C597 1.439 . S
C598 C623 1.395 . S
N599 Co588 1.995 . S
N599 C600 1.376 . S
N599 C603 1.383 . S
C600 N599 1.376 . S
C600 C601 1.446 . S
C600 C623 1.391 . S
C601 C600 1.446 . S
C601 C602 1.339 . S
C601 H630 0.949 . S
C602 C601 1.339 . S
C602 C603 1.439 . S
C602 H631 0.950 . S
C603 N599 1.383 . S
C603 C602 1.439 . S
C603 C621 1.392 . S
N604 Co588 2.282 . S
N604 C607 1.332 . S
N604 C609 1.332 . S
C605 C606 1.386 . S
C605 C608 1.388 . S
C606 C605 1.386 . S
C606 C607 1.382 . S
C606 H632 0.950 . S
C607 N604 1.332 . S
C607 C606 1.382 . S
C607 H618 0.952 . S
C608 C605 1.388 . S
C608 C609 1.382 . S
C608 H633 0.950 . S
C609 N604 1.332 . S
C609 C608 1.382 . S
C609 H619 0.948 . S
N610 Co588 2.282 . S
N610 C614 1.332 . S
N610 C615 1.332 . S
C611 C612 1.388 . S
C611 C615 1.382 . S
C611 H634 0.950 . S
C612 C611 1.388 . S
C612 C613 1.386 . S
C613 C612 1.386 . S
C613 C614 1.382 . S
C613 H635 0.950 . S
C614 N610 1.332 . S
C614 C613 1.382 . S
C614 H616 0.952 . S
C615 N610 1.332 . S
C615 C611 1.382 . S
C615 H617 0.948 . S
H616 C614 0.952 . S
H617 C615 0.948 . S
H618 C607 0.952 . S
H619 C609 0.948 . S
C620 C586 1.395 . S
C620 C590 1.391 . S
C621 C583 1.389 . S
C621 C603 1.392 . S
C622 C593 1.392 . S
C622 C595 1.389 . S
C623 C598 1.395 . S
C623 C600 1.391 . S
H624 C584 0.951 . S
H625 C585 0.950 . S
H626 C591 0.949 . S
H627 C592 0.950 . S
H628 C596 0.951 . S
H629 C597 0.950 . S
H630 C601 0.949 . S
H631 C602 0.950 . S
H632 C606 0.950 . S
H633 C608 0.950 . S
H634 C611 0.950 . S
H635 C613 0.950 . S
C636 C637 1.443 . S
C636 N640 1.376 . S
C636 C674 1.389 . S
C637 C636 1.443 . S
C637 C638 1.340 . S
C637 H677 0.951 . S
C638 C637 1.340 . S
C638 C639 1.439 . S
C638 H678 0.950 . S
C639 C638 1.439 . S
C639 N640 1.374 . S
C639 C673 1.395 . S
N640 C636 1.376 . S
N640 C639 1.374 . S
N640 Co641 2.008 . S
Co641 N640 2.008 . S
Co641 N642 1.995 . S
Co641 N647 2.008 . S
Co641 N652 1.995 . S
Co641 N657 2.282 . S
Co641 N663 2.282 . S
N642 Co641 1.995 . S
N642 C643 1.376 . S
N642 C646 1.383 . S
C643 N642 1.376 . S
C643 C644 1.446 . S
C643 C673 1.391 . S
C644 C643 1.446 . S
C644 C645 1.339 . S
C644 H679 0.949 . S
C645 C644 1.339 . S
C645 C646 1.439 . S
C645 H680 0.950 . S
C646 N642 1.383 . S
C646 C645 1.439 . S
C646 C675 1.392 . S
N647 Co641 2.008 . S
N647 C648 1.376 . S
N647 C651 1.374 . S
C648 N647 1.376 . S
C648 C649 1.443 . S
C648 C675 1.389 . S
C649 C648 1.443 . S
C649 C650 1.340 . S
C649 H681 0.951 . S
C650 C649 1.340 . S
C650 C651 1.439 . S
C650 H682 0.950 . S
C651 N647 1.374 . S
C651 C650 1.439 . S
C651 C676 1.395 . S
N652 Co641 1.995 . S
N652 C653 1.376 . S
N652 C656 1.383 . S
C653 N652 1.376 . S
C653 C654 1.446 . S
C653 C676 1.391 . S
C654 C653 1.446 . S
C654 C655 1.339 . S
C654 H683 0.949 . S
C655 C654 1.339 . S
C655 C656 1.439 . S
C655 H684 0.950 . S
C656 N652 1.383 . S
C656 C655 1.439 . S
C656 C674 1.392 . S
N657 Co641 2.282 . S
N657 C660 1.332 . S
N657 C662 1.332 . S
C658 C659 1.386 . S
C658 C661 1.388 . S
C659 C658 1.386 . S
C659 C660 1.382 . S
C659 H685 0.950 . S
C660 N657 1.332 . S
C660 C659 1.382 . S
C660 H671 0.952 . S
C661 C658 1.388 . S
C661 C662 1.382 . S
C661 H686 0.950 . S
C662 N657 1.332 . S
C662 C661 1.382 . S
C662 H672 0.948 . S
N663 Co641 2.282 . S
N663 C667 1.332 . S
N663 C668 1.332 . S
C664 C665 1.388 . S
C664 C668 1.382 . S
C664 H687 0.950 . S
C665 C664 1.388 . S
C665 C666 1.386 . S
C666 C665 1.386 . S
C666 C667 1.382 . S
C666 H688 0.950 . S
C667 N663 1.332 . S
C667 C666 1.382 . S
C667 H669 0.952 . S
C668 N663 1.332 . S
C668 C664 1.382 . S
C668 H670 0.948 . S
H669 C667 0.952 . S
H670 C668 0.948 . S
H671 C660 0.952 . S
H672 C662 0.948 . S
C673 C639 1.395 . S
C673 C643 1.391 . S
C674 C636 1.389 . S
C674 C656 1.392 . S
C675 C646 1.392 . S
C675 C648 1.389 . S
C676 C651 1.395 . S
C676 C653 1.391 . S
H677 C637 0.951 . S
H678 C638 0.950 . S
H679 C644 0.949 . S
H680 C645 0.950 . S
H681 C649 0.951 . S
H682 C650 0.950 . S
H683 C654 0.949 . S
H684 C655 0.950 . S
H685 C659 0.950 . S
H686 C661 0.950 . S
H687 C664 0.950 . S
H688 C666 0.950 . S
C689 C690 1.443 . S
C689 N693 1.376 . S
C689 C727 1.389 . S
C690 C689 1.443 . S
C690 C691 1.340 . S
C690 H730 0.951 . S
C691 C690 1.340 . S
C691 C692 1.439 . S
C691 H731 0.950 . S
C692 C691 1.439 . S
C692 N693 1.374 . S
C692 C726 1.395 . S
N693 C689 1.376 . S
N693 C692 1.374 . S
N693 Co694 2.008 . S
Co694 N693 2.008 . S
Co694 N695 1.995 . S
Co694 N700 2.008 . S
Co694 N705 1.995 . S
Co694 N710 2.282 . S
Co694 N716 2.282 . S
N695 Co694 1.995 . S
N695 C696 1.376 . S
N695 C699 1.383 . S
C696 N695 1.376 . S
C696 C697 1.446 . S
C696 C726 1.391 . S
C697 C696 1.446 . S
C697 C698 1.339 . S
C697 H732 0.949 . S
C698 C697 1.339 . S
C698 C699 1.439 . S
C698 H733 0.950 . S
C699 N695 1.383 . S
C699 C698 1.439 . S
C699 C728 1.392 . S
N700 Co694 2.008 . S
N700 C701 1.376 . S
N700 C704 1.374 . S
C701 N700 1.376 . S
C701 C702 1.443 . S
C701 C728 1.389 . S
C702 C701 1.443 . S
C702 C703 1.340 . S
C702 H734 0.951 . S
C703 C702 1.340 . S
C703 C704 1.439 . S
C703 H735 0.950 . S
C704 N700 1.374 . S
C704 C703 1.439 . S
C704 C729 1.395 . S
N705 Co694 1.995 . S
N705 C706 1.376 . S
N705 C709 1.383 . S
C706 N705 1.376 . S
C706 C707 1.446 . S
C706 C729 1.391 . S
C707 C706 1.446 . S
C707 C708 1.339 . S
C707 H736 0.949 . S
C708 C707 1.339 . S
C708 C709 1.439 . S
C708 H737 0.950 . S
C709 N705 1.383 . S
C709 C708 1.439 . S
C709 C727 1.392 . S
N710 Co694 2.282 . S
N710 C713 1.332 . S
N710 C715 1.332 . S
C711 C712 1.386 . S
C711 C714 1.388 . S
C712 C711 1.386 . S
C712 C713 1.382 . S
C712 H738 0.950 . S
C713 N710 1.332 . S
C713 C712 1.382 . S
C713 H724 0.952 . S
C714 C711 1.388 . S
C714 C715 1.382 . S
C714 H739 0.950 . S
C715 N710 1.332 . S
C715 C714 1.382 . S
C715 H725 0.948 . S
N716 Co694 2.282 . S
N716 C720 1.332 . S
N716 C721 1.332 . S
C717 C718 1.388 . S
C717 C721 1.382 . S
C717 H740 0.950 . S
C718 C717 1.388 . S
C718 C719 1.386 . S
C719 C718 1.386 . S
C719 C720 1.382 . S
C719 H741 0.950 . S
C720 N716 1.332 . S
C720 C719 1.382 . S
C720 H722 0.952 . S
C721 N716 1.332 . S
C721 C717 1.382 . S
C721 H723 0.948 . S
H722 C720 0.952 . S
H723 C721 0.948 . S
H724 C713 0.952 . S
H725 C715 0.948 . S
C726 C692 1.395 . S
C726 C696 1.391 . S
C727 C689 1.389 . S
C727 C709 1.392 . S
C728 C699 1.392 . S
C728 C701 1.389 . S
C729 C704 1.395 . S
C729 C706 1.391 . S
H730 C690 0.951 . S
H731 C691 0.950 . S
H732 C697 0.949 . S
H733 C698 0.950 . S
H734 C702 0.951 . S
H735 C703 0.950 . S
H736 C707 0.949 . S
H737 C708 0.950 . S
H738 C712 0.950 . S
H739 C714 0.950 . S
H740 C717 0.950 . S
H741 C719 0.950 . S
C742 C743 1.443 . S
C742 N746 1.376 . S
C742 C780 1.389 . S
C743 C742 1.443 . S
C743 C744 1.340 . S
C743 H783 0.951 . S
C744 C743 1.340 . S
C744 C745 1.439 . S
C744 H784 0.950 . S
C745 C744 1.439 . S
C745 N746 1.374 . S
C745 C779 1.395 . S
N746 C742 1.376 . S
N746 C745 1.374 . S
N746 Co747 2.008 . S
Co747 N746 2.008 . S
Co747 N748 1.995 . S
Co747 N753 2.008 . S
Co747 N758 1.995 . S
Co747 N763 2.282 . S
Co747 N769 2.282 . S
N748 Co747 1.995 . S
N748 C749 1.376 . S
N748 C752 1.383 . S
C749 N748 1.376 . S
C749 C750 1.446 . S
C749 C779 1.391 . S
C750 C749 1.446 . S
C750 C751 1.339 . S
C750 H785 0.949 . S
C751 C750 1.339 . S
C751 C752 1.439 . S
C751 H786 0.950 . S
C752 N748 1.383 . S
C752 C751 1.439 . S
C752 C781 1.392 . S
N753 Co747 2.008 . S
N753 C754 1.376 . S
N753 C757 1.374 . S
C754 N753 1.376 . S
C754 C755 1.443 . S
C754 C781 1.389 . S
C755 C754 1.443 . S
C755 C756 1.340 . S
C755 H787 0.951 . S
C756 C755 1.340 . S
C756 C757 1.439 . S
C756 H788 0.950 . S
C757 N753 1.374 . S
C757 C756 1.439 . S
C757 C782 1.395 . S
N758 Co747 1.995 . S
N758 C759 1.376 . S
N758 C762 1.383 . S
C759 N758 1.376 . S
C759 C760 1.446 . S
C759 C782 1.391 . S
C760 C759 1.446 . S
C760 C761 1.339 . S
C760 H789 0.949 . S
C761 C760 1.339 . S
C761 C762 1.439 . S
C761 H790 0.950 . S
C762 N758 1.383 . S
C762 C761 1.439 . S
C762 C780 1.392 . S
N763 Co747 2.282 . S
N763 C766 1.332 . S
N763 C768 1.332 . S
C764 C765 1.386 . S
C764 C767 1.388 . S
C765 C764 1.386 . S
C765 C766 1.382 . S
C765 H791 0.950 . S
C766 N763 1.332 . S
C766 C765 1.382 . S
C766 H777 0.952 . S
C767 C764 1.388 . S
C767 C768 1.382 . S
C767 H792 0.950 . S
C768 N763 1.332 . S
C768 C767 1.382 . S
C768 H778 0.948 . S
N769 Co747 2.282 . S
N769 C773 1.332 . S
N769 C774 1.332 . S
C770 C771 1.388 . S
C770 C774 1.382 . S
C770 H793 0.950 . S
C771 C770 1.388 . S
C771 C772 1.386 . S
C772 C771 1.386 . S
C772 C773 1.382 . S
C772 H794 0.950 . S
C773 N769 1.332 . S
C773 C772 1.382 . S
C773 H775 0.952 . S
C774 N769 1.332 . S
C774 C770 1.382 . S
C774 H776 0.948 . S
H775 C773 0.952 . S
H776 C774 0.948 . S
H777 C766 0.952 . S
H778 C768 0.948 . S
C779 C745 1.395 . S
C779 C749 1.391 . S
C780 C742 1.389 . S
C780 C762 1.392 . S
C781 C752 1.392 . S
C781 C754 1.389 . S
C782 C757 1.395 . S
C782 C759 1.391 . S
H783 C743 0.951 . S
H784 C744 0.950 . S
H785 C750 0.949 . S
H786 C751 0.950 . S
H787 C755 0.951 . S
H788 C756 0.950 . S
H789 C760 0.949 . S
H790 C761 0.950 . S
H791 C765 0.950 . S
H792 C767 0.950 . S
H793 C770 0.950 . S
H794 C772 0.950 . S
C795 C796 1.443 . S
C795 N799 1.376 . S
C795 C833 1.389 . S
C796 C795 1.443 . S
C796 C797 1.340 . S
C796 H836 0.951 . S
C797 C796 1.340 . S
C797 C798 1.439 . S
C797 H837 0.950 . S
C798 C797 1.439 . S
C798 N799 1.374 . S
C798 C832 1.395 . S
N799 C795 1.376 . S
N799 C798 1.374 . S
N799 Co800 2.008 . S
Co800 N799 2.008 . S
Co800 N801 1.995 . S
Co800 N806 2.008 . S
Co800 N811 1.995 . S
Co800 N816 2.282 . S
Co800 N822 2.282 . S
N801 Co800 1.995 . S
N801 C802 1.376 . S
N801 C805 1.383 . S
C802 N801 1.376 . S
C802 C803 1.446 . S
C802 C832 1.391 . S
C803 C802 1.446 . S
C803 C804 1.339 . S
C803 H838 0.949 . S
C804 C803 1.339 . S
C804 C805 1.439 . S
C804 H839 0.950 . S
C805 N801 1.383 . S
C805 C804 1.439 . S
C805 C834 1.392 . S
N806 Co800 2.008 . S
N806 C807 1.376 . S
N806 C810 1.374 . S
C807 N806 1.376 . S
C807 C808 1.443 . S
C807 C834 1.389 . S
C808 C807 1.443 . S
C808 C809 1.340 . S
C808 H840 0.951 . S
C809 C808 1.340 . S
C809 C810 1.439 . S
C809 H841 0.950 . S
C810 N806 1.374 . S
C810 C809 1.439 . S
C810 C835 1.395 . S
N811 Co800 1.995 . S
N811 C812 1.376 . S
N811 C815 1.383 . S
C812 N811 1.376 . S
C812 C813 1.446 . S
C812 C835 1.391 . S
C813 C812 1.446 . S
C813 C814 1.339 . S
C813 H842 0.949 . S
C814 C813 1.339 . S
C814 C815 1.439 . S
C814 H843 0.950 . S
C815 N811 1.383 . S
C815 C814 1.439 . S
C815 C833 1.392 . S
N816 Co800 2.282 . S
N816 C819 1.332 . S
N816 C821 1.332 . S
C817 C818 1.386 . S
C817 C820 1.388 . S
C818 C817 1.386 . S
C818 C819 1.382 . S
C818 H844 0.950 . S
C819 N816 1.332 . S
C819 C818 1.382 . S
C819 H830 0.952 . S
C820 C817 1.388 . S
C820 C821 1.382 . S
C820 H845 0.950 . S
C821 N816 1.332 . S
C821 C820 1.382 . S
C821 H831 0.948 . S
N822 Co800 2.282 . S
N822 C826 1.332 . S
N822 C827 1.332 . S
C823 C824 1.388 . S
C823 C827 1.382 . S
C823 H846 0.950 . S
C824 C823 1.388 . S
C824 C825 1.386 . S
C825 C824 1.386 . S
C825 C826 1.382 . S
C825 H847 0.950 . S
C826 N822 1.332 . S
C826 C825 1.382 . S
C826 H828 0.952 . S
C827 N822 1.332 . S
C827 C823 1.382 . S
C827 H829 0.948 . S
H828 C826 0.952 . S
H829 C827 0.948 . S
H830 C819 0.952 . S
H831 C821 0.948 . S
C832 C798 1.395 . S
C832 C802 1.391 . S
C833 C795 1.389 . S
C833 C815 1.392 . S
C834 C805 1.392 . S
C834 C807 1.389 . S
C835 C810 1.395 . S
C835 C812 1.391 . S
H836 C796 0.951 . S
H837 C797 0.950 . S
H838 C803 0.949 . S
H839 C804 0.950 . S
H840 C808 0.951 . S
H841 C809 0.950 . S
H842 C813 0.949 . S
H843 C814 0.950 . S
H844 C818 0.950 . S
H845 C820 0.950 . S
H846 C823 0.950 . S
H847 C825 0.950 . S
H848 C856 0.929 . S
H849 C858 0.930 . S
H850 C860 0.930 . S
H851 C863 0.929 . S
H852 C866 0.930 . S
H853 C868 0.960 . S
H854 C868 0.960 . S
H855 C868 0.960 . S
C856 H848 0.929 . S
C856 C857 1.377 . S
C856 C858 1.384 . S
C857 C856 1.377 . S
C857 C863 1.390 . S
C858 H849 0.930 . S
C858 C856 1.384 . S
C858 C859 1.372 . S
C859 C858 1.372 . S
C859 C860 1.400 . S
C859 C864 1.490 . S
C860 H850 0.930 . S
C860 C859 1.400 . S
C860 C863 1.386 . S
H861 C877 0.930 . S
H862 C878 0.931 . S
C863 H851 0.929 . S
C863 C857 1.390 . S
C863 C860 1.386 . S
C864 C859 1.490 . S
C864 C866 1.395 . S
C864 C867 1.403 . S
H865 C871 0.930 . S
C866 H852 0.930 . S
C866 C864 1.395 . S
C866 C869 1.403 . S
C867 C864 1.403 . S
C867 C868 1.524 . S
C867 C871 1.400 . S
C868 H853 0.960 . S
C868 H854 0.960 . S
C868 H855 0.960 . S
C868 C867 1.524 . S
C869 C866 1.403 . S
C869 C870 1.392 . S
C869 C873 1.495 . S
C870 C869 1.392 . S
C870 C871 1.385 . S
C870 C872 1.478 . S
C871 H865 0.930 . S
C871 C867 1.400 . S
C871 C870 1.385 . S
C872 C870 1.478 . S
C872 C874 1.381 . S
C872 C878 1.383 . S
C873 C869 1.495 . S
C873 H879 0.959 . S
C873 H880 0.961 . S
C873 H881 0.960 . S
C874 C872 1.381 . S
C874 C875 1.394 . S
C874 H882 0.930 . S
C875 C874 1.394 . S
C875 C876 1.383 . S
C875 H883 0.929 . S
C876 C875 1.383 . S
C876 C877 1.377 . S
C877 H861 0.930 . S
C877 C876 1.377 . S
C877 C878 1.379 . S
C878 H862 0.931 . S
C878 C872 1.383 . S
C878 C877 1.379 . S
H879 C873 0.959 . S
H880 C873 0.961 . S
H881 C873 0.960 . S
H882 C874 0.930 . S
H883 C875 0.929 . S
H884 C892 0.929 . S
H885 C894 0.930 . S
H886 C896 0.930 . S
H887 C899 0.929 . S
H888 C902 0.930 . S
H889 C904 0.960 . S
H890 C904 0.960 . S
H891 C904 0.960 . S
C892 H884 0.929 . S
C892 C893 1.377 . S
C892 C894 1.384 . S
C893 C892 1.377 . S
C893 C899 1.390 . S
C894 H885 0.930 . S
C894 C892 1.384 . S
C894 C895 1.372 . S
C895 C894 1.372 . S
C895 C896 1.400 . S
C895 C900 1.490 . S
C896 H886 0.930 . S
C896 C895 1.400 . S
C896 C899 1.386 . S
H897 C913 0.930 . S
H898 C914 0.931 . S
C899 H887 0.929 . S
C899 C893 1.390 . S
C899 C896 1.386 . S
C900 C895 1.490 . S
C900 C902 1.395 . S
C900 C903 1.403 . S
H901 C907 0.930 . S
C902 H888 0.930 . S
C902 C900 1.395 . S
C902 C905 1.403 . S
C903 C900 1.403 . S
C903 C904 1.524 . S
C903 C907 1.400 . S
C904 H889 0.960 . S
C904 H890 0.960 . S
C904 H891 0.960 . S
C904 C903 1.524 . S
C905 C902 1.403 . S
C905 C906 1.392 . S
C905 C909 1.495 . S
C906 C905 1.392 . S
C906 C907 1.385 . S
C906 C908 1.478 . S
C907 H901 0.930 . S
C907 C903 1.400 . S
C907 C906 1.385 . S
C908 C906 1.478 . S
C908 C910 1.381 . S
C908 C914 1.383 . S
C909 C905 1.495 . S
C909 H915 0.959 . S
C909 H916 0.961 . S
C909 H917 0.960 . S
C910 C908 1.381 . S
C910 C911 1.394 . S
C910 H918 0.930 . S
C911 C910 1.394 . S
C911 C912 1.383 . S
C911 H919 0.929 . S
C912 C911 1.383 . S
C912 C913 1.377 . S
C913 H897 0.930 . S
C913 C912 1.377 . S
C913 C914 1.379 . S
C914 H898 0.931 . S
C914 C908 1.383 . S
C914 C913 1.379 . S
H915 C909 0.959 . S
H916 C909 0.961 . S
H917 C909 0.960 . S
H918 C910 0.930 . S
H919 C911 0.929 . S
H920 C928 0.929 . S
H921 C930 0.930 . S
H922 C932 0.930 . S
H923 C935 0.929 . S
H924 C938 0.930 . S
H925 C940 0.960 . S
H926 C940 0.960 . S
H927 C940 0.960 . S
C928 H920 0.929 . S
C928 C929 1.377 . S
C928 C930 1.384 . S
C929 C928 1.377 . S
C929 C935 1.390 . S
C930 H921 0.930 . S
C930 C928 1.384 . S
C930 C931 1.372 . S
C931 C930 1.372 . S
C931 C932 1.400 . S
C931 C936 1.490 . S
C932 H922 0.930 . S
C932 C931 1.400 . S
C932 C935 1.386 . S
H933 C949 0.930 . S
H934 C950 0.931 . S
C935 H923 0.929 . S
C935 C929 1.390 . S
C935 C932 1.386 . S
C936 C931 1.490 . S
C936 C938 1.395 . S
C936 C939 1.403 . S
H937 C943 0.930 . S
C938 H924 0.930 . S
C938 C936 1.395 . S
C938 C941 1.403 . S
C939 C936 1.403 . S
C939 C940 1.524 . S
C939 C943 1.400 . S
C940 H925 0.960 . S
C940 H926 0.960 . S
C940 H927 0.960 . S
C940 C939 1.524 . S
C941 C938 1.403 . S
C941 C942 1.392 . S
C941 C945 1.495 . S
C942 C941 1.392 . S
C942 C943 1.385 . S
C942 C944 1.478 . S
C943 H937 0.930 . S
C943 C939 1.400 . S
C943 C942 1.385 . S
C944 C942 1.478 . S
C944 C946 1.381 . S
C944 C950 1.383 . S
C945 C941 1.495 . S
C945 H951 0.959 . S
C945 H952 0.961 . S
C945 H953 0.960 . S
C946 C944 1.381 . S
C946 C947 1.394 . S
C946 H954 0.930 . S
C947 C946 1.394 . S
C947 C948 1.383 . S
C947 H955 0.929 . S
C948 C947 1.383 . S
C948 C949 1.377 . S
C949 H933 0.930 . S
C949 C948 1.377 . S
C949 C950 1.379 . S
C950 H934 0.931 . S
C950 C944 1.383 . S
C950 C949 1.379 . S
H951 C945 0.959 . S
H952 C945 0.961 . S
H953 C945 0.960 . S
H954 C946 0.930 . S
H955 C947 0.929 . S
H956 C964 0.929 . S
H957 C966 0.930 . S
H958 C968 0.930 . S
H959 C971 0.929 . S
H960 C974 0.930 . S
H961 C976 0.960 . S
H962 C976 0.960 . S
H963 C976 0.960 . S
C964 H956 0.929 . S
C964 C965 1.377 . S
C964 C966 1.384 . S
C965 C964 1.377 . S
C965 C971 1.390 . S
C966 H957 0.930 . S
C966 C964 1.384 . S
C966 C967 1.372 . S
C967 C966 1.372 . S
C967 C968 1.400 . S
C967 C972 1.490 . S
C968 H958 0.930 . S
C968 C967 1.400 . S
C968 C971 1.386 . S
H969 C985 0.930 . S
H970 C986 0.931 . S
C971 H959 0.929 . S
C971 C965 1.390 . S
C971 C968 1.386 . S
C972 C967 1.490 . S
C972 C974 1.395 . S
C972 C975 1.403 . S
H973 C979 0.930 . S
C974 H960 0.930 . S
C974 C972 1.395 . S
C974 C977 1.403 . S
C975 C972 1.403 . S
C975 C976 1.524 . S
C975 C979 1.400 . S
C976 H961 0.960 . S
C976 H962 0.960 . S
C976 H963 0.960 . S
C976 C975 1.524 . S
C977 C974 1.403 . S
C977 C978 1.392 . S
C977 C981 1.495 . S
C978 C977 1.392 . S
C978 C979 1.385 . S
C978 C980 1.478 . S
C979 H973 0.930 . S
C979 C975 1.400 . S
C979 C978 1.385 . S
C980 C978 1.478 . S
C980 C982 1.381 . S
C980 C986 1.383 . S
C981 C977 1.495 . S
C981 H987 0.959 . S
C981 H988 0.961 . S
C981 H989 0.960 . S
C982 C980 1.381 . S
C982 C983 1.394 . S
C982 H990 0.930 . S
C983 C982 1.394 . S
C983 C984 1.383 . S
C983 H991 0.929 . S
C984 C983 1.383 . S
C984 C985 1.377 . S
C985 H969 0.930 . S
C985 C984 1.377 . S
C985 C986 1.379 . S
C986 H970 0.931 . S
C986 C980 1.383 . S
C986 C985 1.379 . S
H987 C981 0.959 . S
H988 C981 0.961 . S
H989 C981 0.960 . S
H990 C982 0.930 . S
H991 C983 0.929 . S
H992 C1000 0.929 . S
H993 C1002 0.930 . S
H994 C1004 0.930 . S
H995 C1007 0.929 . S
H996 C1010 0.930 . S
H997 C1012 0.960 . S
H998 C1012 0.960 . S
H999 C1012 0.960 . S
C1000 H992 0.929 . S
C1000 C1001 1.377 . S
C1000 C1002 1.384 . S
C1001 C1000 1.377 . S
C1001 C1007 1.390 . S
C1002 H993 0.930 . S
C1002 C1000 1.384 . S
C1002 C1003 1.372 . S
C1003 C1002 1.372 . S
C1003 C1004 1.400 . S
C1003 C1008 1.490 . S
C1004 H994 0.930 . S
C1004 C1003 1.400 . S
C1004 C1007 1.386 . S
H1005 C1021 0.930 . S
H1006 C1022 0.931 . S
C1007 H995 0.929 . S
C1007 C1001 1.390 . S
C1007 C1004 1.386 . S
C1008 C1003 1.490 . S
C1008 C1010 1.395 . S
C1008 C1011 1.403 . S
H1009 C1015 0.930 . S
C1010 H996 0.930 . S
C1010 C1008 1.395 . S
C1010 C1013 1.403 . S
C1011 C1008 1.403 . S
C1011 C1012 1.524 . S
C1011 C1015 1.400 . S
C1012 H997 0.960 . S
C1012 H998 0.960 . S
C1012 H999 0.960 . S
C1012 C1011 1.524 . S
C1013 C1010 1.403 . S
C1013 C1014 1.392 . S
C1013 C1017 1.495 . S
C1014 C1013 1.392 . S
C1014 C1015 1.385 . S
C1014 C1016 1.478 . S
C1015 H1009 0.930 . S
C1015 C1011 1.400 . S
C1015 C1014 1.385 . S
C1016 C1014 1.478 . S
C1016 C1018 1.381 . S
C1016 C1022 1.383 . S
C1017 C1013 1.495 . S
C1017 H1023 0.959 . S
C1017 H1024 0.961 . S
C1017 H1025 0.960 . S
C1018 C1016 1.381 . S
C1018 C1019 1.394 . S
C1018 H1026 0.930 . S
C1019 C1018 1.394 . S
C1019 C1020 1.383 . S
C1019 H1027 0.929 . S
C1020 C1019 1.383 . S
C1020 C1021 1.377 . S
C1021 H1005 0.930 . S
C1021 C1020 1.377 . S
C1021 C1022 1.379 . S
C1022 H1006 0.931 . S
C1022 C1016 1.383 . S
C1022 C1021 1.379 . S
H1023 C1017 0.959 . S
H1024 C1017 0.961 . S
H1025 C1017 0.960 . S
H1026 C1018 0.930 . S
H1027 C1019 0.929 . S
H1028 C1036 0.929 . S
H1029 C1038 0.930 . S
H1030 C1040 0.930 . S
H1031 C1043 0.929 . S
H1032 C1046 0.930 . S
H1033 C1048 0.960 . S
H1034 C1048 0.960 . S
H1035 C1048 0.960 . S
C1036 H1028 0.929 . S
C1036 C1037 1.377 . S
C1036 C1038 1.384 . S
C1037 C1036 1.377 . S
C1037 C1043 1.390 . S
C1038 H1029 0.930 . S
C1038 C1036 1.384 . S
C1038 C1039 1.372 . S
C1039 C1038 1.372 . S
C1039 C1040 1.400 . S
C1039 C1044 1.490 . S
C1040 H1030 0.930 . S
C1040 C1039 1.400 . S
C1040 C1043 1.386 . S
H1041 C1057 0.930 . S
H1042 C1058 0.931 . S
C1043 H1031 0.929 . S
C1043 C1037 1.390 . S
C1043 C1040 1.386 . S
C1044 C1039 1.490 . S
C1044 C1046 1.395 . S
C1044 C1047 1.403 . S
H1045 C1051 0.930 . S
C1046 H1032 0.930 . S
C1046 C1044 1.395 . S
C1046 C1049 1.403 . S
C1047 C1044 1.403 . S
C1047 C1048 1.524 . S
C1047 C1051 1.400 . S
C1048 H1033 0.960 . S
C1048 H1034 0.960 . S
C1048 H1035 0.960 . S
C1048 C1047 1.524 . S
C1049 C1046 1.403 . S
C1049 C1050 1.392 . S
C1049 C1053 1.495 . S
C1050 C1049 1.392 . S
C1050 C1051 1.385 . S
C1050 C1052 1.478 . S
C1051 H1045 0.930 . S
C1051 C1047 1.400 . S
C1051 C1050 1.385 . S
C1052 C1050 1.478 . S
C1052 C1054 1.381 . S
C1052 C1058 1.383 . S
C1053 C1049 1.495 . S
C1053 H1059 0.959 . S
C1053 H1060 0.961 . S
C1053 H1061 0.960 . S
C1054 C1052 1.381 . S
C1054 C1055 1.394 . S
C1054 H1062 0.930 . S
C1055 C1054 1.394 . S
C1055 C1056 1.383 . S
C1055 H1063 0.929 . S
C1056 C1055 1.383 . S
C1056 C1057 1.377 . S
C1057 H1041 0.930 . S
C1057 C1056 1.377 . S
C1057 C1058 1.379 . S
C1058 H1042 0.931 . S
C1058 C1052 1.383 . S
C1058 C1057 1.379 . S
H1059 C1053 0.959 . S
H1060 C1053 0.961 . S
H1061 C1053 0.960 . S
H1062 C1054 0.930 . S
H1063 C1055 0.929 . S
H1064 C1072 0.929 . S
H1065 C1074 0.930 . S
H1066 C1076 0.930 . S
H1067 C1079 0.929 . S
H1068 C1082 0.930 . S
H1069 C1084 0.960 . S
H1070 C1084 0.960 . S
H1071 C1084 0.960 . S
C1072 H1064 0.929 . S
C1072 C1073 1.377 . S
C1072 C1074 1.384 . S
C1073 C1072 1.377 . S
C1073 C1079 1.390 . S
C1074 H1065 0.930 . S
C1074 C1072 1.384 . S
C1074 C1075 1.372 . S
C1075 C1074 1.372 . S
C1075 C1076 1.400 . S
C1075 C1080 1.490 . S
C1076 H1066 0.930 . S
C1076 C1075 1.400 . S
C1076 C1079 1.386 . S
H1077 C1093 0.930 . S
H1078 C1094 0.931 . S
C1079 H1067 0.929 . S
C1079 C1073 1.390 . S
C1079 C1076 1.386 . S
C1080 C1075 1.490 . S
C1080 C1082 1.395 . S
C1080 C1083 1.403 . S
H1081 C1087 0.930 . S
C1082 H1068 0.930 . S
C1082 C1080 1.395 . S
C1082 C1085 1.403 . S
C1083 C1080 1.403 . S
C1083 C1084 1.524 . S
C1083 C1087 1.400 . S
C1084 H1069 0.960 . S
C1084 H1070 0.960 . S
C1084 H1071 0.960 . S
C1084 C1083 1.524 . S
C1085 C1082 1.403 . S
C1085 C1086 1.392 . S
C1085 C1089 1.495 . S
C1086 C1085 1.392 . S
C1086 C1087 1.385 . S
C1086 C1088 1.478 . S
C1087 H1081 0.930 . S
C1087 C1083 1.400 . S
C1087 C1086 1.385 . S
C1088 C1086 1.478 . S
C1088 C1090 1.381 . S
C1088 C1094 1.383 . S
C1089 C1085 1.495 . S
C1089 H1095 0.959 . S
C1089 H1096 0.961 . S
C1089 H1097 0.960 . S
C1090 C1088 1.381 . S
C1090 C1091 1.394 . S
C1090 H1098 0.930 . S
C1091 C1090 1.394 . S
C1091 C1092 1.383 . S
C1091 H1099 0.929 . S
C1092 C1091 1.383 . S
C1092 C1093 1.377 . S
C1093 H1077 0.930 . S
C1093 C1092 1.377 . S
C1093 C1094 1.379 . S
C1094 H1078 0.931 . S
C1094 C1088 1.383 . S
C1094 C1093 1.379 . S
H1095 C1089 0.959 . S
H1096 C1089 0.961 . S
H1097 C1089 0.960 . S
H1098 C1090 0.930 . S
H1099 C1091 0.929 . S
H1100 C1108 0.929 . S
H1101 C1110 0.930 . S
H1102 C1112 0.930 . S
H1103 C1115 0.929 . S
H1104 C1118 0.930 . S
H1105 C1120 0.960 . S
H1106 C1120 0.960 . S
H1107 C1120 0.960 . S
C1108 H1100 0.929 . S
C1108 C1109 1.377 . S
C1108 C1110 1.384 . S
C1109 C1108 1.377 . S
C1109 C1115 1.390 . S
C1110 H1101 0.930 . S
C1110 C1108 1.384 . S
C1110 C1111 1.372 . S
C1111 C1110 1.372 . S
C1111 C1112 1.400 . S
C1111 C1116 1.490 . S
C1112 H1102 0.930 . S
C1112 C1111 1.400 . S
C1112 C1115 1.386 . S
H1113 C1129 0.930 . S
H1114 C1130 0.931 . S
C1115 H1103 0.929 . S
C1115 C1109 1.390 . S
C1115 C1112 1.386 . S
C1116 C1111 1.490 . S
C1116 C1118 1.395 . S
C1116 C1119 1.403 . S
H1117 C1123 0.930 . S
C1118 H1104 0.930 . S
C1118 C1116 1.395 . S
C1118 C1121 1.403 . S
C1119 C1116 1.403 . S
C1119 C1120 1.524 . S
C1119 C1123 1.400 . S
C1120 H1105 0.960 . S
C1120 H1106 0.960 . S
C1120 H1107 0.960 . S
C1120 C1119 1.524 . S
C1121 C1118 1.403 . S
C1121 C1122 1.392 . S
C1121 C1125 1.495 . S
C1122 C1121 1.392 . S
C1122 C1123 1.385 . S
C1122 C1124 1.478 . S
C1123 H1117 0.930 . S
C1123 C1119 1.400 . S
C1123 C1122 1.385 . S
C1124 C1122 1.478 . S
C1124 C1126 1.381 . S
C1124 C1130 1.383 . S
C1125 C1121 1.495 . S
C1125 H1131 0.959 . S
C1125 H1132 0.961 . S
C1125 H1133 0.960 . S
C1126 C1124 1.381 . S
C1126 C1127 1.394 . S
C1126 H1134 0.930 . S
C1127 C1126 1.394 . S
C1127 C1128 1.383 . S
C1127 H1135 0.929 . S
C1128 C1127 1.383 . S
C1128 C1129 1.377 . S
C1129 H1113 0.930 . S
C1129 C1128 1.377 . S
C1129 C1130 1.379 . S
C1130 H1114 0.931 . S
C1130 C1124 1.383 . S
C1130 C1129 1.379 . S
H1131 C1125 0.959 . S
H1132 C1125 0.961 . S
H1133 C1125 0.960 . S
H1134 C1126 0.930 . S
H1135 C1127 0.929 . S
H1136 C1144 0.929 . S
H1137 C1146 0.930 . S
H1138 C1148 0.930 . S
H1139 C1151 0.929 . S
H1140 C1154 0.930 . S
H1141 C1156 0.960 . S
H1142 C1156 0.960 . S
H1143 C1156 0.960 . S
C1144 H1136 0.929 . S
C1144 C1145 1.377 . S
C1144 C1146 1.384 1_655 S
C1145 C1144 1.377 . S
C1145 C1151 1.390 . S
C1146 H1137 0.930 . S
C1146 C1144 1.384 1_455 S
C1146 C1147 1.372 1_455 S
C1147 C1146 1.372 1_655 S
C1147 C1148 1.400 . S
C1147 C1152 1.490 1_655 S
C1148 H1138 0.930 . S
C1148 C1147 1.400 . S
C1148 C1151 1.386 . S
H1149 C1165 0.930 . S
H1150 C1166 0.931 . S
C1151 H1139 0.929 . S
C1151 C1145 1.390 . S
C1151 C1148 1.386 . S
C1152 C1147 1.490 1_455 S
C1152 C1154 1.395 . S
C1152 C1155 1.403 1_455 S
H1153 C1159 0.930 . S
C1154 H1140 0.930 . S
C1154 C1152 1.395 . S
C1154 C1157 1.403 . S
C1155 C1152 1.403 1_655 S
C1155 C1156 1.524 . S
C1155 C1159 1.400 1_655 S
C1156 H1141 0.960 . S
C1156 H1142 0.960 . S
C1156 H1143 0.960 . S
C1156 C1155 1.524 . S
C1157 C1154 1.403 . S
C1157 C1158 1.392 . S
C1157 C1161 1.495 . S
C1158 C1157 1.392 . S
C1158 C1159 1.385 . S
C1158 C1160 1.478 . S
C1159 H1153 0.930 . S
C1159 C1155 1.400 1_455 S
C1159 C1158 1.385 . S
C1160 C1158 1.478 . S
C1160 C1162 1.381 . S
C1160 C1166 1.383 . S
C1161 C1157 1.495 . S
C1161 H1167 0.959 . S
C1161 H1168 0.961 . S
C1161 H1169 0.960 . S
C1162 C1160 1.381 . S
C1162 C1163 1.394 . S
C1162 H1170 0.930 . S
C1163 C1162 1.394 . S
C1163 C1164 1.383 . S
C1163 H1171 0.929 . S
C1164 C1163 1.383 . S
C1164 C1165 1.377 . S
C1165 H1149 0.930 . S
C1165 C1164 1.377 . S
C1165 C1166 1.379 . S
C1166 H1150 0.931 . S
C1166 C1160 1.383 . S
C1166 C1165 1.379 . S
H1167 C1161 0.959 . S
H1168 C1161 0.961 . S
H1169 C1161 0.960 . S
H1170 C1162 0.930 . S
H1171 C1163 0.929 . S
H1172 C1180 0.929 . S
H1173 C1182 0.930 . S
H1174 C1184 0.930 . S
H1175 C1187 0.929 . S
H1176 C1190 0.930 . S
H1177 C1192 0.960 . S
H1178 C1192 0.960 . S
H1179 C1192 0.960 . S
C1180 H1172 0.929 . S
C1180 C1181 1.377 . S
C1180 C1182 1.384 . S
C1181 C1180 1.377 . S
C1181 C1187 1.390 . S
C1182 H1173 0.930 . S
C1182 C1180 1.384 . S
C1182 C1183 1.372 . S
C1183 C1182 1.372 . S
C1183 C1184 1.400 . S
C1183 C1188 1.490 1_655 S
C1184 H1174 0.930 . S
C1184 C1183 1.400 . S
C1184 C1187 1.386 . S
H1185 C1201 0.930 . S
H1186 C1202 0.931 . S
C1187 H1175 0.929 . S
C1187 C1181 1.390 . S
C1187 C1184 1.386 . S
C1188 C1183 1.490 1_455 S
C1188 C1190 1.395 . S
C1188 C1191 1.403 1_455 S
H1189 C1195 0.930 . S
C1190 H1176 0.930 . S
C1190 C1188 1.395 . S
C1190 C1193 1.403 . S
C1191 C1188 1.403 1_655 S
C1191 C1192 1.524 . S
C1191 C1195 1.400 1_655 S
C1192 H1177 0.960 . S
C1192 H1178 0.960 . S
C1192 H1179 0.960 . S
C1192 C1191 1.524 . S
C1193 C1190 1.403 . S
C1193 C1194 1.392 . S
C1193 C1197 1.495 . S
C1194 C1193 1.392 . S
C1194 C1195 1.385 . S
C1194 C1196 1.478 1_545 S
C1195 H1189 0.930 . S
C1195 C1191 1.400 1_455 S
C1195 C1194 1.385 . S
C1196 C1194 1.478 1_565 S
C1196 C1198 1.381 . S
C1196 C1202 1.383 1_565 S
C1197 C1193 1.495 . S
C1197 H1203 0.959 . S
C1197 H1204 0.961 . S
C1197 H1205 0.960 1_545 S
C1198 C1196 1.381 . S
C1198 C1199 1.394 . S
C1198 H1206 0.930 . S
C1199 C1198 1.394 . S
C1199 C1200 1.383 . S
C1199 H1207 0.929 . S
C1200 C1199 1.383 . S
C1200 C1201 1.377 . S
C1201 H1185 0.930 . S
C1201 C1200 1.377 . S
C1201 C1202 1.379 1_565 S
C1202 H1186 0.931 . S
C1202 C1196 1.383 1_545 S
C1202 C1201 1.379 1_545 S
H1203 C1197 0.959 . S
H1204 C1197 0.961 . S
H1205 C1197 0.960 1_565 S
H1206 C1198 0.930 . S
H1207 C1199 0.929 . S
H1208 C1216 0.929 . S
H1209 C1218 0.930 . S
H1210 C1220 0.930 . S
H1211 C1223 0.929 . S
H1212 C1226 0.930 . S
H1213 C1228 0.960 . S
H1214 C1228 0.960 . S
H1215 C1228 0.960 . S
C1216 H1208 0.929 . S
C1216 C1217 1.377 . S
C1216 C1218 1.384 . S
C1217 C1216 1.377 . S
C1217 C1223 1.390 . S
C1218 H1209 0.930 . S
C1218 C1216 1.384 . S
C1218 C1219 1.372 . S
C1219 C1218 1.372 . S
C1219 C1220 1.400 . S
C1219 C1224 1.490 . S
C1220 H1210 0.930 . S
C1220 C1219 1.400 . S
C1220 C1223 1.386 . S
H1221 C1237 0.930 . S
H1222 C1238 0.931 . S
C1223 H1211 0.929 . S
C1223 C1217 1.390 . S
C1223 C1220 1.386 . S
C1224 C1219 1.490 . S
C1224 C1226 1.395 . S
C1224 C1227 1.403 . S
H1225 C1231 0.930 . S
C1226 H1212 0.930 . S
C1226 C1224 1.395 . S
C1226 C1229 1.403 . S
C1227 C1224 1.403 . S
C1227 C1228 1.524 . S
C1227 C1231 1.400 . S
C1228 H1213 0.960 . S
C1228 H1214 0.960 . S
C1228 H1215 0.960 . S
C1228 C1227 1.524 . S
C1229 C1226 1.403 . S
C1229 C1230 1.392 . S
C1229 C1233 1.495 . S
C1230 C1229 1.392 . S
C1230 C1231 1.385 . S
C1230 C1232 1.478 1_545 S
C1231 H1225 0.930 . S
C1231 C1227 1.400 . S
C1231 C1230 1.385 . S
C1232 C1230 1.478 1_565 S
C1232 C1234 1.381 1_565 S
C1232 C1238 1.383 . S
C1233 C1229 1.495 . S
C1233 H1239 0.959 . S
C1233 H1240 0.961 1_545 S
C1233 H1241 0.960 . S
C1234 C1232 1.381 1_545 S
C1234 C1235 1.394 1_545 S
C1234 H1242 0.930 . S
C1235 C1234 1.394 1_565 S
C1235 C1236 1.383 . S
C1235 H1243 0.929 . S
C1236 C1235 1.383 . S
C1236 C1237 1.377 . S
C1237 H1221 0.930 . S
C1237 C1236 1.377 . S
C1237 C1238 1.379 . S
C1238 H1222 0.931 . S
C1238 C1232 1.383 . S
C1238 C1237 1.379 . S
H1239 C1233 0.959 . S
H1240 C1233 0.961 1_565 S
H1241 C1233 0.960 . S
H1242 C1234 0.930 . S
H1243 C1235 0.929 . S
H1244 C1252 0.929 . S
H1245 C1254 0.930 . S
H1246 C1256 0.930 . S
H1247 C1259 0.929 . S
H1248 C1262 0.930 . S
H1249 C1264 0.960 . S
H1250 C1264 0.960 . S
H1251 C1264 0.960 . S
C1252 H1244 0.929 . S
C1252 C1253 1.377 . S
C1252 C1254 1.384 . S
C1253 C1252 1.377 . S
C1253 C1259 1.390 . S
C1254 H1245 0.930 . S
C1254 C1252 1.384 . S
C1254 C1255 1.372 . S
C1255 C1254 1.372 . S
C1255 C1256 1.400 . S
C1255 C1260 1.490 . S
C1256 H1246 0.930 . S
C1256 C1255 1.400 . S
C1256 C1259 1.386 . S
H1257 C1273 0.930 . S
H1258 C1274 0.931 . S
C1259 H1247 0.929 . S
C1259 C1253 1.390 . S
C1259 C1256 1.386 . S
C1260 C1255 1.490 . S
C1260 C1262 1.395 . S
C1260 C1263 1.403 . S
H1261 C1267 0.930 . S
C1262 H1248 0.930 . S
C1262 C1260 1.395 . S
C1262 C1265 1.403 . S
C1263 C1260 1.403 . S
C1263 C1264 1.524 . S
C1263 C1267 1.400 . S
C1264 H1249 0.960 . S
C1264 H1250 0.960 . S
C1264 H1251 0.960 . S
C1264 C1263 1.524 . S
C1265 C1262 1.403 . S
C1265 C1266 1.392 . S
C1265 C1269 1.495 . S
C1266 C1265 1.392 . S
C1266 C1267 1.385 . S
C1266 C1268 1.478 . S
C1267 H1261 0.930 . S
C1267 C1263 1.400 . S
C1267 C1266 1.385 . S
C1268 C1266 1.478 . S
C1268 C1270 1.381 . S
C1268 C1274 1.383 . S
C1269 C1265 1.495 . S
C1269 H1275 0.959 . S
C1269 H1276 0.961 . S
C1269 H1277 0.960 . S
C1270 C1268 1.381 . S
C1270 C1271 1.394 . S
C1270 H1278 0.930 . S
C1271 C1270 1.394 . S
C1271 C1272 1.383 . S
C1271 H1279 0.929 . S
C1272 C1271 1.383 . S
C1272 C1273 1.377 . S
C1273 H1257 0.930 . S
C1273 C1272 1.377 . S
C1273 C1274 1.379 . S
C1274 H1258 0.931 . S
C1274 C1268 1.383 . S
C1274 C1273 1.379 . S
H1275 C1269 0.959 . S
H1276 C1269 0.961 . S
H1277 C1269 0.960 . S
H1278 C1270 0.930 . S
H1279 C1271 0.929 . S
H1280 C1288 0.929 . S
H1281 C1290 0.930 . S
H1282 C1292 0.930 . S
H1283 C1295 0.929 . S
H1284 C1298 0.930 . S
H1285 C1300 0.960 . S
H1286 C1300 0.960 . S
H1287 C1300 0.960 . S
C1288 H1280 0.929 . S
C1288 C1289 1.377 . S
C1288 C1290 1.384 . S
C1289 C1288 1.377 . S
C1289 C1295 1.390 . S
C1290 H1281 0.930 . S
C1290 C1288 1.384 . S
C1290 C1291 1.372 . S
C1291 C1290 1.372 . S
C1291 C1292 1.400 . S
C1291 C1296 1.490 . S
C1292 H1282 0.930 . S
C1292 C1291 1.400 . S
C1292 C1295 1.386 . S
H1293 C1309 0.930 . S
H1294 C1310 0.931 . S
C1295 H1283 0.929 . S
C1295 C1289 1.390 . S
C1295 C1292 1.386 . S
C1296 C1291 1.490 . S
C1296 C1298 1.395 . S
C1296 C1299 1.403 . S
H1297 C1303 0.930 . S
C1298 H1284 0.930 . S
C1298 C1296 1.395 . S
C1298 C1301 1.403 1_455 S
C1299 C1296 1.403 . S
C1299 C1300 1.524 . S
C1299 C1303 1.400 . S
C1300 H1285 0.960 . S
C1300 H1286 0.960 . S
C1300 H1287 0.960 . S
C1300 C1299 1.524 . S
C1301 C1298 1.403 1_655 S
C1301 C1302 1.392 . S
C1301 C1305 1.495 . S
C1302 C1301 1.392 . S
C1302 C1303 1.385 1_655 S
C1302 C1304 1.478 . S
C1303 H1297 0.930 . S
C1303 C1299 1.400 . S
C1303 C1302 1.385 1_455 S
C1304 C1302 1.478 . S
C1304 C1306 1.381 . S
C1304 C1310 1.383 . S
C1305 C1301 1.495 . S
C1305 H1311 0.959 . S
C1305 H1312 0.961 . S
C1305 H1313 0.960 . S
C1306 C1304 1.381 . S
C1306 C1307 1.394 . S
C1306 H1314 0.930 1_655 S
C1307 C1306 1.394 . S
C1307 C1308 1.383 . S
C1307 H1315 0.929 . S
C1308 C1307 1.383 . S
C1308 C1309 1.377 . S
C1309 H1293 0.930 . S
C1309 C1308 1.377 . S
C1309 C1310 1.379 . S
C1310 H1294 0.931 . S
C1310 C1304 1.383 . S
C1310 C1309 1.379 . S
H1311 C1305 0.959 . S
H1312 C1305 0.961 . S
H1313 C1305 0.960 . S
H1314 C1306 0.930 1_455 S
H1315 C1307 0.929 . S
H1316 C1324 0.929 . S
H1317 C1326 0.930 1_545 S
H1318 C1328 0.930 . S
H1319 C1331 0.929 . S
H1320 C1334 0.930 . S
H1321 C1336 0.959 1_655 S
H1322 C1336 0.958 1_655 S
H1323 C1336 0.963 . S
C1324 H1316 0.929 . S
C1324 C1325 1.377 . S
C1324 C1326 1.384 . S
C1325 C1324 1.377 . S
C1325 C1331 1.390 . S
C1326 H1317 0.930 1_565 S
C1326 C1324 1.384 . S
C1326 C1327 1.372 . S
C1327 C1326 1.372 . S
C1327 C1328 1.400 . S
C1327 C1332 1.490 . S
C1328 H1318 0.930 . S
C1328 C1327 1.400 . S
C1328 C1331 1.386 . S
H1329 C1345 0.930 . S
H1330 C1346 0.931 1_455 S
C1331 H1319 0.929 . S
C1331 C1325 1.390 . S
C1331 C1328 1.386 . S
C1332 C1327 1.490 . S
C1332 C1334 1.395 1_565 S
C1332 C1335 1.403 . S
H1333 C1339 0.947 . S
C1334 H1320 0.930 . S
C1334 C1332 1.395 1_545 S
C1334 C1337 1.403 . S
C1335 C1332 1.403 . S
C1335 C1336 1.524 . S
C1335 C1339 1.418 1_455 S
C1336 H1321 0.959 1_455 S
C1336 H1322 0.958 1_455 S
C1336 H1323 0.963 . S
C1336 C1335 1.524 . S
C1337 C1334 1.403 . S
C1337 C1338 1.392 1_455 S
C1337 C1341 1.495 . S
C1338 C1337 1.392 1_655 S
C1338 C1339 1.352 1_545 S
C1338 C1340 1.478 . S
C1339 H1333 0.947 . S
C1339 C1335 1.418 1_655 S
C1339 C1338 1.352 1_565 S
C1340 C1338 1.478 . S
C1340 C1342 1.381 . S
C1340 C1346 1.383 . S
C1341 C1337 1.495 . S
C1341 H1347 0.959 . S
C1341 H1348 0.961 . S
C1341 H1349 0.959 1_455 S
C1342 C1340 1.381 . S
C1342 C1343 1.394 . S
C1342 H1350 0.930 . S
C1343 C1342 1.394 . S
C1343 C1344 1.383 . S
C1343 H1351 0.929 . S
C1344 C1343 1.383 . S
C1344 C1345 1.377 . S
C1345 H1329 0.930 . S
C1345 C1344 1.377 . S
C1345 C1346 1.379 . S
C1346 H1330 0.931 1_655 S
C1346 C1340 1.383 . S
C1346 C1345 1.379 . S
H1347 C1341 0.959 . S
H1348 C1341 0.961 . S
H1349 C1341 0.959 1_655 S
H1350 C1342 0.930 . S
H1351 C1343 0.929 . S
H1352 C1360 0.929 . S
H1353 C1362 0.930 . S
H1354 C1364 0.930 . S
H1355 C1367 0.929 . S
H1356 C1370 0.930 . S
H1357 C1372 0.960 . S
H1358 C1372 0.960 . S
H1359 C1372 0.960 . S
C1360 H1352 0.929 . S
C1360 C1361 1.377 . S
C1360 C1362 1.384 . S
C1361 C1360 1.377 . S
C1361 C1367 1.390 . S
C1362 H1353 0.930 . S
C1362 C1360 1.384 . S
C1362 C1363 1.372 . S
C1363 C1362 1.372 . S
C1363 C1364 1.400 . S
C1363 C1368 1.490 . S
C1364 H1354 0.930 . S
C1364 C1363 1.400 . S
C1364 C1367 1.386 . S
H1365 C1381 0.930 . S
H1366 C1382 0.931 1_545 S
C1367 H1355 0.929 . S
C1367 C1361 1.390 . S
C1367 C1364 1.386 . S
C1368 C1363 1.490 . S
C1368 C1370 1.395 . S
C1368 C1371 1.403 . S
H1369 C1375 0.923 1_565 S
C1370 H1356 0.930 . S
C1370 C1368 1.395 . S
C1370 C1373 1.417 . S
C1371 C1368 1.403 . S
C1371 C1372 1.524 . S
C1371 C1375 1.400 . S
C1372 H1357 0.960 . S
C1372 H1358 0.960 . S
C1372 H1359 0.960 . S
C1372 C1371 1.524 . S
C1373 C1370 1.417 . S
C1373 C1374 1.387 1_545 S
C1373 C1377 1.489 1_545 S
C1374 C1373 1.387 1_565 S
C1374 C1375 1.385 1_565 S
C1374 C1376 1.478 . S
C1375 H1369 0.923 1_545 S
C1375 C1371 1.400 . S
C1375 C1374 1.385 1_545 S
C1376 C1374 1.478 . S
C1376 C1378 1.381 . S
C1376 C1382 1.383 . S
C1377 C1373 1.489 1_565 S
C1377 H1383 0.970 . S
C1377 H1384 0.961 1_565 S
C1377 H1385 0.960 . S
C1378 C1376 1.381 . S
C1378 C1379 1.394 . S
C1378 H1386 0.930 . S
C1379 C1378 1.394 . S
C1379 C1380 1.383 . S
C1379 H1387 0.929 . S
C1380 C1379 1.383 . S
C1380 C1381 1.377 . S
C1381 H1365 0.930 . S
C1381 C1380 1.377 . S
C1381 C1382 1.379 . S
C1382 H1366 0.931 1_565 S
C1382 C1376 1.383 . S
C1382 C1381 1.379 . S
H1383 C1377 0.970 . S
H1384 C1377 0.961 1_545 S
H1385 C1377 0.960 . S
H1386 C1378 0.930 . S
H1387 C1379 0.929 . S
H1388 C1396 0.929 . S
H1389 C1398 0.930 . S
H1390 C1400 0.930 . S
H1391 C1403 0.929 . S
H1392 C1406 0.930 . S
H1393 C1408 0.960 . S
H1394 C1408 0.960 . S
H1395 C1408 0.960 . S
C1396 H1388 0.929 . S
C1396 C1397 1.377 . S
C1396 C1398 1.384 . S
C1397 C1396 1.377 . S
C1397 C1403 1.390 . S
C1398 H1389 0.930 . S
C1398 C1396 1.384 . S
C1398 C1399 1.372 . S
C1399 C1398 1.372 . S
C1399 C1400 1.400 . S
C1399 C1404 1.490 . S
C1400 H1390 0.930 . S
C1400 C1399 1.400 . S
C1400 C1403 1.386 . S
H1401 C1417 0.930 . S
H1402 C1418 0.931 . S
C1403 H1391 0.929 . S
C1403 C1397 1.390 . S
C1403 C1400 1.386 . S
C1404 C1399 1.490 . S
C1404 C1406 1.395 . S
C1404 C1407 1.403 . S
H1405 C1411 0.930 . S
C1406 H1392 0.930 . S
C1406 C1404 1.395 . S
C1406 C1409 1.403 . S
C1407 C1404 1.403 . S
C1407 C1408 1.524 . S
C1407 C1411 1.400 . S
C1408 H1393 0.960 . S
C1408 H1394 0.960 . S
C1408 H1395 0.960 . S
C1408 C1407 1.524 . S
C1409 C1406 1.403 . S
C1409 C1410 1.392 . S
C1409 C1413 1.495 . S
C1410 C1409 1.392 . S
C1410 C1411 1.385 . S
C1410 C1412 1.478 . S
C1411 H1405 0.930 . S
C1411 C1407 1.400 . S
C1411 C1410 1.385 . S
C1412 C1410 1.478 . S
C1412 C1414 1.381 . S
C1412 C1418 1.383 . S
C1413 C1409 1.495 . S
C1413 H1419 0.959 . S
C1413 H1420 0.961 . S
C1413 H1421 0.960 . S
C1414 C1412 1.381 . S
C1414 C1415 1.394 . S
C1414 H1422 0.930 . S
C1415 C1414 1.394 . S
C1415 C1416 1.383 . S
C1415 H1423 0.929 . S
C1416 C1415 1.383 . S
C1416 C1417 1.377 . S
C1417 H1401 0.930 . S
C1417 C1416 1.377 . S
C1417 C1418 1.379 . S
C1418 H1402 0.931 . S
C1418 C1412 1.383 . S
C1418 C1417 1.379 . S
H1419 C1413 0.959 . S
H1420 C1413 0.961 . S
H1421 C1413 0.960 . S
H1422 C1414 0.930 . S
H1423 C1415 0.929 . S
H1424 C1432 0.929 . S
H1425 C1434 0.930 . S
H1426 C1436 0.930 . S
H1427 C1439 0.929 . S
H1428 C1442 0.930 . S
H1429 C1444 0.960 . S
H1430 C1444 0.960 . S
H1431 C1444 0.960 . S
C1432 H1424 0.929 . S
C1432 C1433 1.377 . S
C1432 C1434 1.384 . S
C1433 C1432 1.377 . S
C1433 C1439 1.390 . S
C1434 H1425 0.930 . S
C1434 C1432 1.384 . S
C1434 C1435 1.372 . S
C1435 C1434 1.372 . S
C1435 C1436 1.400 . S
C1435 C1440 1.490 . S
C1436 H1426 0.930 . S
C1436 C1435 1.400 . S
C1436 C1439 1.386 . S
H1437 C1453 0.930 . S
H1438 C1454 0.931 . S
C1439 H1427 0.929 . S
C1439 C1433 1.390 . S
C1439 C1436 1.386 . S
C1440 C1435 1.490 . S
C1440 C1442 1.395 . S
C1440 C1443 1.403 . S
H1441 C1447 0.930 . S
C1442 H1428 0.930 . S
C1442 C1440 1.395 . S
C1442 C1445 1.403 . S
C1443 C1440 1.403 . S
C1443 C1444 1.524 . S
C1443 C1447 1.400 . S
C1444 H1429 0.960 . S
C1444 H1430 0.960 . S
C1444 H1431 0.960 . S
C1444 C1443 1.524 . S
C1445 C1442 1.403 . S
C1445 C1446 1.392 . S
C1445 C1449 1.495 . S
C1446 C1445 1.392 . S
C1446 C1447 1.385 . S
C1446 C1448 1.478 . S
C1447 H1441 0.930 . S
C1447 C1443 1.400 . S
C1447 C1446 1.385 . S
C1448 C1446 1.478 . S
C1448 C1450 1.381 . S
C1448 C1454 1.383 . S
C1449 C1445 1.495 . S
C1449 H1455 0.959 . S
C1449 H1456 0.961 . S
C1449 H1457 0.960 . S
C1450 C1448 1.381 . S
C1450 C1451 1.394 . S
C1450 H1458 0.930 . S
C1451 C1450 1.394 . S
C1451 C1452 1.383 . S
C1451 H1459 0.929 . S
C1452 C1451 1.383 . S
C1452 C1453 1.377 . S
C1453 H1437 0.930 . S
C1453 C1452 1.377 . S
C1453 C1454 1.379 . S
C1454 H1438 0.931 . S
C1454 C1448 1.383 . S
C1454 C1453 1.379 . S
H1455 C1449 0.959 . S
H1456 C1449 0.961 . S
H1457 C1449 0.960 . S
H1458 C1450 0.930 . S
H1459 C1451 0.929 . S
H1460 C1468 0.929 . S
H1461 C1470 0.930 . S
H1462 C1472 0.930 . S
H1463 C1475 0.929 . S
H1464 C1478 0.930 . S
H1465 C1480 0.960 . S
H1466 C1480 0.960 . S
H1467 C1480 0.960 . S
C1468 H1460 0.929 . S
C1468 C1469 1.377 . S
C1468 C1470 1.384 . S
C1469 C1468 1.377 . S
C1469 C1475 1.390 . S
C1470 H1461 0.930 . S
C1470 C1468 1.384 . S
C1470 C1471 1.372 . S
C1471 C1470 1.372 . S
C1471 C1472 1.400 . S
C1471 C1476 1.490 . S
C1472 H1462 0.930 . S
C1472 C1471 1.400 . S
C1472 C1475 1.386 . S
H1473 C1489 0.930 . S
H1474 C1490 0.931 . S
C1475 H1463 0.929 . S
C1475 C1469 1.390 . S
C1475 C1472 1.386 . S
C1476 C1471 1.490 . S
C1476 C1478 1.395 . S
C1476 C1479 1.403 . S
H1477 C1483 0.930 . S
C1478 H1464 0.930 . S
C1478 C1476 1.395 . S
C1478 C1481 1.403 . S
C1479 C1476 1.403 . S
C1479 C1480 1.524 . S
C1479 C1483 1.400 . S
C1480 H1465 0.960 . S
C1480 H1466 0.960 . S
C1480 H1467 0.960 . S
C1480 C1479 1.524 . S
C1481 C1478 1.403 . S
C1481 C1482 1.392 . S
C1481 C1485 1.495 . S
C1482 C1481 1.392 . S
C1482 C1483 1.385 . S
C1482 C1484 1.478 . S
C1483 H1477 0.930 . S
C1483 C1479 1.400 . S
C1483 C1482 1.385 . S
C1484 C1482 1.478 . S
C1484 C1486 1.381 . S
C1484 C1490 1.383 . S
C1485 C1481 1.495 . S
C1485 H1491 0.959 . S
C1485 H1492 0.961 . S
C1485 H1493 0.960 . S
C1486 C1484 1.381 . S
C1486 C1487 1.394 . S
C1486 H1494 0.930 . S
C1487 C1486 1.394 . S
C1487 C1488 1.383 . S
C1487 H1495 0.929 . S
C1488 C1487 1.383 . S
C1488 C1489 1.377 . S
C1489 H1473 0.930 . S
C1489 C1488 1.377 . S
C1489 C1490 1.379 . S
C1490 H1474 0.931 . S
C1490 C1484 1.383 . S
C1490 C1489 1.379 . S
H1491 C1485 0.959 . S
H1492 C1485 0.961 . S
H1493 C1485 0.960 . S
H1494 C1486 0.930 . S
H1495 C1487 0.929 . S
H1496 C1504 0.929 . S
H1497 C1506 0.930 . S
H1498 C1508 0.930 . S
H1499 C1511 0.929 . S
H1500 C1514 0.930 . S
H1501 C1516 0.960 . S
H1502 C1516 0.960 . S
H1503 C1516 0.960 . S
C1504 H1496 0.929 . S
C1504 C1505 1.377 . S
C1504 C1506 1.384 . S
C1505 C1504 1.377 . S
C1505 C1511 1.390 . S
C1506 H1497 0.930 . S
C1506 C1504 1.384 . S
C1506 C1507 1.372 . S
C1507 C1506 1.372 . S
C1507 C1508 1.400 . S
C1507 C1512 1.490 . S
C1508 H1498 0.930 . S
C1508 C1507 1.400 . S
C1508 C1511 1.386 . S
H1509 C1525 0.930 . S
H1510 C1526 0.931 . S
C1511 H1499 0.929 . S
C1511 C1505 1.390 . S
C1511 C1508 1.386 . S
C1512 C1507 1.490 . S
C1512 C1514 1.395 . S
C1512 C1515 1.403 . S
H1513 C1519 0.930 . S
C1514 H1500 0.930 . S
C1514 C1512 1.395 . S
C1514 C1517 1.403 . S
C1515 C1512 1.403 . S
C1515 C1516 1.524 . S
C1515 C1519 1.400 . S
C1516 H1501 0.960 . S
C1516 H1502 0.960 . S
C1516 H1503 0.960 . S
C1516 C1515 1.524 . S
C1517 C1514 1.403 . S
C1517 C1518 1.392 . S
C1517 C1521 1.495 . S
C1518 C1517 1.392 . S
C1518 C1519 1.385 . S
C1518 C1520 1.478 . S
C1519 H1513 0.930 . S
C1519 C1515 1.400 . S
C1519 C1518 1.385 . S
C1520 C1518 1.478 . S
C1520 C1522 1.381 . S
C1520 C1526 1.383 . S
C1521 C1517 1.495 . S
C1521 H1527 0.959 . S
C1521 H1528 0.961 . S
C1521 H1529 0.960 . S
C1522 C1520 1.381 . S
C1522 C1523 1.394 . S
C1522 H1530 0.930 . S
C1523 C1522 1.394 . S
C1523 C1524 1.383 . S
C1523 H1531 0.929 . S
C1524 C1523 1.383 . S
C1524 C1525 1.377 . S
C1525 H1509 0.930 . S
C1525 C1524 1.377 . S
C1525 C1526 1.379 . S
C1526 H1510 0.931 . S
C1526 C1520 1.383 . S
C1526 C1525 1.379 . S
H1527 C1521 0.959 . S
H1528 C1521 0.961 . S
H1529 C1521 0.960 . S
H1530 C1522 0.930 . S
H1531 C1523 0.929 . S
H1532 C1540 0.929 . S
H1533 C1542 0.930 . S
H1534 C1544 0.930 . S
H1535 C1547 0.929 . S
H1536 C1550 0.930 . S
H1537 C1552 0.960 . S
H1538 C1552 0.960 . S
H1539 C1552 0.960 . S
C1540 H1532 0.929 . S
C1540 C1541 1.377 . S
C1540 C1542 1.384 . S
C1541 C1540 1.377 . S
C1541 C1547 1.390 . S
C1542 H1533 0.930 . S
C1542 C1540 1.384 . S
C1542 C1543 1.372 . S
C1543 C1542 1.372 . S
C1543 C1544 1.400 . S
C1543 C1548 1.490 . S
C1544 H1534 0.930 . S
C1544 C1543 1.400 . S
C1544 C1547 1.386 . S
H1545 C1561 0.930 . S
H1546 C1562 0.931 . S
C1547 H1535 0.929 . S
C1547 C1541 1.390 . S
C1547 C1544 1.386 . S
C1548 C1543 1.490 . S
C1548 C1550 1.395 . S
C1548 C1551 1.403 . S
H1549 C1555 0.930 . S
C1550 H1536 0.930 . S
C1550 C1548 1.395 . S
C1550 C1553 1.403 . S
C1551 C1548 1.403 . S
C1551 C1552 1.524 . S
C1551 C1555 1.400 . S
C1552 H1537 0.960 . S
C1552 H1538 0.960 . S
C1552 H1539 0.960 . S
C1552 C1551 1.524 . S
C1553 C1550 1.403 . S
C1553 C1554 1.392 . S
C1553 C1557 1.495 . S
C1554 C1553 1.392 . S
C1554 C1555 1.385 . S
C1554 C1556 1.478 . S
C1555 H1549 0.930 . S
C1555 C1551 1.400 . S
C1555 C1554 1.385 . S
C1556 C1554 1.478 . S
C1556 C1558 1.381 . S
C1556 C1562 1.383 . S
C1557 C1553 1.495 . S
C1557 H1563 0.959 . S
C1557 H1564 0.961 . S
C1557 H1565 0.960 . S
C1558 C1556 1.381 . S
C1558 C1559 1.394 . S
C1558 H1566 0.930 . S
C1559 C1558 1.394 . S
C1559 C1560 1.383 . S
C1559 H1567 0.929 . S
C1560 C1559 1.383 . S
C1560 C1561 1.377 . S
C1561 H1545 0.930 . S
C1561 C1560 1.377 . S
C1561 C1562 1.379 . S
C1562 H1546 0.931 . S
C1562 C1556 1.383 . S
C1562 C1561 1.379 . S
H1563 C1557 0.959 . S
H1564 C1557 0.961 . S
H1565 C1557 0.960 . S
H1566 C1558 0.930 . S
H1567 C1559 0.929 . S
H1568 C1576 0.929 . S
H1569 C1578 0.930 . S
H1570 C1580 0.930 . S
H1571 C1583 0.929 . S
H1572 C1586 0.930 . S
H1573 C1588 0.960 . S
H1574 C1588 0.960 . S
H1575 C1588 0.960 . S
C1576 H1568 0.929 . S
C1576 C1577 1.377 . S
C1576 C1578 1.384 . S
C1577 C1576 1.377 . S
C1577 C1583 1.390 . S
C1578 H1569 0.930 . S
C1578 C1576 1.384 . S
C1578 C1579 1.372 . S
C1579 C1578 1.372 . S
C1579 C1580 1.400 . S
C1579 C1584 1.490 . S
C1580 H1570 0.930 . S
C1580 C1579 1.400 . S
C1580 C1583 1.386 . S
H1581 C1597 0.930 . S
H1582 C1598 0.931 . S
C1583 H1571 0.929 . S
C1583 C1577 1.390 . S
C1583 C1580 1.386 . S
C1584 C1579 1.490 . S
C1584 C1586 1.395 . S
C1584 C1587 1.403 . S
H1585 C1591 0.930 . S
C1586 H1572 0.930 . S
C1586 C1584 1.395 . S
C1586 C1589 1.403 . S
C1587 C1584 1.403 . S
C1587 C1588 1.524 . S
C1587 C1591 1.400 . S
C1588 H1573 0.960 . S
C1588 H1574 0.960 . S
C1588 H1575 0.960 . S
C1588 C1587 1.524 . S
C1589 C1586 1.403 . S
C1589 C1590 1.392 . S
C1589 C1593 1.495 . S
C1590 C1589 1.392 . S
C1590 C1591 1.385 . S
C1590 C1592 1.478 . S
C1591 H1585 0.930 . S
C1591 C1587 1.400 . S
C1591 C1590 1.385 . S
C1592 C1590 1.478 . S
C1592 C1594 1.381 . S
C1592 C1598 1.383 . S
C1593 C1589 1.495 . S
C1593 H1599 0.959 . S
C1593 H1600 0.961 . S
C1593 H1601 0.960 . S
C1594 C1592 1.381 . S
C1594 C1595 1.394 . S
C1594 H1602 0.930 . S
C1595 C1594 1.394 . S
C1595 C1596 1.383 . S
C1595 H1603 0.929 . S
C1596 C1595 1.383 . S
C1596 C1597 1.377 . S
C1597 H1581 0.930 . S
C1597 C1596 1.377 . S
C1597 C1598 1.379 . S
C1598 H1582 0.931 . S
C1598 C1592 1.383 . S
C1598 C1597 1.379 . S
H1599 C1593 0.959 . S
H1600 C1593 0.961 . S
H1601 C1593 0.960 . S
H1602 C1594 0.930 . S
H1603 C1595 0.929 . S
H1604 C1612 0.929 . S
H1605 C1614 0.930 . S
H1606 C1616 0.930 . S
H1607 C1619 0.929 . S
H1608 C1622 0.930 . S
H1609 C1624 0.960 . S
H1610 C1624 0.960 . S
H1611 C1624 0.960 . S
C1612 H1604 0.929 . S
C1612 C1613 1.377 . S
C1612 C1614 1.384 . S
C1613 C1612 1.377 . S
C1613 C1619 1.390 . S
C1614 H1605 0.930 . S
C1614 C1612 1.384 . S
C1614 C1615 1.372 . S
C1615 C1614 1.372 . S
C1615 C1616 1.400 . S
C1615 C1620 1.490 . S
C1616 H1606 0.930 . S
C1616 C1615 1.400 . S
C1616 C1619 1.386 . S
H1617 C1633 0.930 . S
H1618 C1634 0.931 . S
C1619 H1607 0.929 . S
C1619 C1613 1.390 . S
C1619 C1616 1.386 . S
C1620 C1615 1.490 . S
C1620 C1622 1.395 . S
C1620 C1623 1.403 . S
H1621 C1627 0.930 . S
C1622 H1608 0.930 . S
C1622 C1620 1.395 . S
C1622 C1625 1.403 . S
C1623 C1620 1.403 . S
C1623 C1624 1.524 . S
C1623 C1627 1.400 . S
C1624 H1609 0.960 . S
C1624 H1610 0.960 . S
C1624 H1611 0.960 . S
C1624 C1623 1.524 . S
C1625 C1622 1.403 . S
C1625 C1626 1.392 . S
C1625 C1629 1.495 . S
C1626 C1625 1.392 . S
C1626 C1627 1.385 . S
C1626 C1628 1.478 . S
C1627 H1621 0.930 . S
C1627 C1623 1.400 . S
C1627 C1626 1.385 . S
C1628 C1626 1.478 . S
C1628 C1630 1.381 . S
C1628 C1634 1.383 . S
C1629 C1625 1.495 . S
C1629 H1635 0.959 . S
C1629 H1636 0.961 . S
C1629 H1637 0.960 . S
C1630 C1628 1.381 . S
C1630 C1631 1.394 . S
C1630 H1638 0.930 . S
C1631 C1630 1.394 . S
C1631 C1632 1.383 . S
C1631 H1639 0.929 . S
C1632 C1631 1.383 . S
C1632 C1633 1.377 . S
C1633 H1617 0.930 . S
C1633 C1632 1.377 . S
C1633 C1634 1.379 . S
C1634 H1618 0.931 . S
C1634 C1628 1.383 . S
C1634 C1633 1.379 . S
H1635 C1629 0.959 . S
H1636 C1629 0.961 . S
H1637 C1629 0.960 . S
H1638 C1630 0.930 . S
H1639 C1631 0.929 . S
H1640 C1648 0.929 . S
H1641 C1650 0.930 . S
H1642 C1652 0.930 . S
H1643 C1655 0.929 . S
H1644 C1658 0.930 . S
H1645 C1660 0.960 . S
H1646 C1660 0.960 . S
H1647 C1660 0.960 . S
C1648 H1640 0.929 . S
C1648 C1649 1.377 . S
C1648 C1650 1.384 . S
C1649 C1648 1.377 . S
C1649 C1655 1.390 . S
C1650 H1641 0.930 . S
C1650 C1648 1.384 . S
C1650 C1651 1.372 . S
C1651 C1650 1.372 . S
C1651 C1652 1.400 . S
C1651 C1656 1.490 . S
C1652 H1642 0.930 . S
C1652 C1651 1.400 . S
C1652 C1655 1.386 . S
H1653 C1669 0.930 . S
H1654 C1670 0.931 . S
C1655 H1643 0.929 . S
C1655 C1649 1.390 . S
C1655 C1652 1.386 . S
C1656 C1651 1.490 . S
C1656 C1658 1.395 . S
C1656 C1659 1.403 . S
H1657 C1663 0.930 . S
C1658 H1644 0.930 . S
C1658 C1656 1.395 . S
C1658 C1661 1.403 . S
C1659 C1656 1.403 . S
C1659 C1660 1.524 . S
C1659 C1663 1.400 . S
C1660 H1645 0.960 . S
C1660 H1646 0.960 . S
C1660 H1647 0.960 . S
C1660 C1659 1.524 . S
C1661 C1658 1.403 . S
C1661 C1662 1.392 . S
C1661 C1665 1.495 . S
C1662 C1661 1.392 . S
C1662 C1663 1.385 . S
C1662 C1664 1.478 . S
C1663 H1657 0.930 . S
C1663 C1659 1.400 . S
C1663 C1662 1.385 . S
C1664 C1662 1.478 . S
C1664 C1666 1.381 . S
C1664 C1670 1.383 . S
C1665 C1661 1.495 . S
C1665 H1671 0.959 . S
C1665 H1672 0.961 . S
C1665 H1673 0.960 . S
C1666 C1664 1.381 . S
C1666 C1667 1.394 . S
C1666 H1674 0.930 . S
C1667 C1666 1.394 . S
C1667 C1668 1.383 . S
C1667 H1675 0.929 . S
C1668 C1667 1.383 . S
C1668 C1669 1.377 . S
C1669 H1653 0.930 . S
C1669 C1668 1.377 . S
C1669 C1670 1.379 . S
C1670 H1654 0.931 . S
C1670 C1664 1.383 . S
C1670 C1669 1.379 . S
H1671 C1665 0.959 . S
H1672 C1665 0.961 . S
H1673 C1665 0.960 . S
H1674 C1666 0.930 . S
H1675 C1667 0.929 . S
H1676 C1684 0.929 . S
H1677 C1686 0.930 . S
H1678 C1688 0.930 . S
H1679 C1691 0.929 . S
H1680 C1694 0.930 . S
H1681 C1696 0.960 . S
H1682 C1696 0.960 . S
H1683 C1696 0.960 . S
C1684 H1676 0.929 . S
C1684 C1685 1.377 . S
C1684 C1686 1.384 . S
C1685 C1684 1.377 . S
C1685 C1691 1.390 . S
C1686 H1677 0.930 . S
C1686 C1684 1.384 . S
C1686 C1687 1.372 . S
C1687 C1686 1.372 . S
C1687 C1688 1.400 . S
C1687 C1692 1.490 . S
C1688 H1678 0.930 . S
C1688 C1687 1.400 . S
C1688 C1691 1.386 . S
H1689 C1705 0.930 . S
H1690 C1706 0.931 . S
C1691 H1679 0.929 . S
C1691 C1685 1.390 . S
C1691 C1688 1.386 . S
C1692 C1687 1.490 . S
C1692 C1694 1.395 . S
C1692 C1695 1.403 . S
H1693 C1699 0.930 . S
C1694 H1680 0.930 . S
C1694 C1692 1.395 . S
C1694 C1697 1.403 . S
C1695 C1692 1.403 . S
C1695 C1696 1.524 . S
C1695 C1699 1.400 . S
C1696 H1681 0.960 . S
C1696 H1682 0.960 . S
C1696 H1683 0.960 . S
C1696 C1695 1.524 . S
C1697 C1694 1.403 . S
C1697 C1698 1.392 . S
C1697 C1701 1.495 . S
C1698 C1697 1.392 . S
C1698 C1699 1.385 . S
C1698 C1700 1.478 . S
C1699 H1693 0.930 . S
C1699 C1695 1.400 . S
C1699 C1698 1.385 . S
C1700 C1698 1.478 . S
C1700 C1702 1.381 . S
C1700 C1706 1.383 . S
C1701 C1697 1.495 . S
C1701 H1707 0.959 . S
C1701 H1708 0.961 . S
C1701 H1709 0.960 . S
C1702 C1700 1.381 . S
C1702 C1703 1.394 . S
C1702 H1710 0.930 . S
C1703 C1702 1.394 . S
C1703 C1704 1.383 . S
C1703 H1711 0.929 . S
C1704 C1703 1.383 . S
C1704 C1705 1.377 . S
C1705 H1689 0.930 . S
C1705 C1704 1.377 . S
C1705 C1706 1.379 . S
C1706 H1690 0.931 . S
C1706 C1700 1.383 . S
C1706 C1705 1.379 . S
H1707 C1701 0.959 . S
H1708 C1701 0.961 . S
H1709 C1701 0.960 . S
H1710 C1702 0.930 . S
H1711 C1703 0.929 . S
H1712 C1720 0.929 . S
H1713 C1722 0.930 1_556 S
H1714 C1724 0.930 . S
H1715 C1727 0.929 . S
H1716 C1730 0.930 . S
H1717 C1732 0.960 . S
H1718 C1732 0.952 1_455 S
H1719 C1732 0.960 1_455 S
C1720 H1712 0.929 . S
C1720 C1721 1.377 . S
C1720 C1722 1.384 . S
C1721 C1720 1.377 . S
C1721 C1727 1.390 . S
C1722 H1713 0.930 1_554 S
C1722 C1720 1.384 . S
C1722 C1723 1.372 . S
C1723 C1722 1.372 . S
C1723 C1724 1.400 . S
C1723 C1728 1.490 . S
C1724 H1714 0.930 . S
C1724 C1723 1.400 . S
C1724 C1727 1.386 . S
H1725 C1741 0.930 . S
H1726 C1742 0.931 . S
C1727 H1715 0.929 . S
C1727 C1721 1.390 . S
C1727 C1724 1.386 . S
C1728 C1723 1.490 . S
C1728 C1730 1.395 1_554 S
C1728 C1731 1.403 . S
H1729 C1735 0.930 . S
C1730 H1716 0.930 . S
C1730 C1728 1.395 1_556 S
C1730 C1733 1.403 . S
C1731 C1728 1.403 . S
C1731 C1732 1.524 1_455 S
C1731 C1735 1.400 1_454 S
C1732 H1717 0.960 . S
C1732 H1718 0.952 1_655 S
C1732 H1719 0.960 1_655 S
C1732 C1731 1.524 1_655 S
C1733 C1730 1.403 . S
C1733 C1734 1.392 1_455 S
C1733 C1737 1.495 . S
C1734 C1733 1.392 1_655 S
C1734 C1735 1.385 . S
C1734 C1736 1.478 . S
C1735 H1729 0.930 . S
C1735 C1731 1.400 1_656 S
C1735 C1734 1.385 . S
C1736 C1734 1.478 . S
C1736 C1738 1.381 . S
C1736 C1742 1.383 . S
C1737 C1733 1.495 . S
C1737 H1743 0.959 . S
C1737 H1744 0.961 . S
C1737 H1745 0.960 . S
C1738 C1736 1.381 . S
C1738 C1739 1.394 . S
C1738 H1746 0.930 . S
C1739 C1738 1.394 . S
C1739 C1740 1.383 . S
C1739 H1747 0.929 . S
C1740 C1739 1.383 . S
C1740 C1741 1.377 . S
C1741 H1725 0.930 . S
C1741 C1740 1.377 . S
C1741 C1742 1.379 . S
C1742 H1726 0.931 . S
C1742 C1736 1.383 . S
C1742 C1741 1.379 . S
H1743 C1737 0.959 . S
H1744 C1737 0.961 . S
H1745 C1737 0.960 . S
H1746 C1738 0.930 . S
H1747 C1739 0.929 . S
H1748 C1756 0.929 . S
H1749 C1758 0.930 . S
H1750 C1760 0.930 . S
H1751 C1763 0.929 . S
H1752 C1766 0.930 . S
H1753 C1768 0.960 . S
H1754 C1768 0.960 . S
H1755 C1768 0.960 . S
C1756 H1748 0.929 . S
C1756 C1757 1.377 . S
C1756 C1758 1.384 . S
C1757 C1756 1.377 . S
C1757 C1763 1.390 . S
C1758 H1749 0.930 . S
C1758 C1756 1.384 . S
C1758 C1759 1.372 . S
C1759 C1758 1.372 . S
C1759 C1760 1.400 . S
C1759 C1764 1.490 . S
C1760 H1750 0.930 . S
C1760 C1759 1.400 . S
C1760 C1763 1.386 . S
H1761 C1777 0.930 . S
H1762 C1778 0.931 . S
C1763 H1751 0.929 . S
C1763 C1757 1.390 . S
C1763 C1760 1.386 . S
C1764 C1759 1.490 . S
C1764 C1766 1.395 1_565 S
C1764 C1767 1.379 1_556 S
H1765 C1771 0.930 . S
C1766 H1752 0.930 . S
C1766 C1764 1.395 1_545 S
C1766 C1769 1.403 . S
C1767 C1764 1.379 1_554 S
C1767 C1768 1.537 . S
C1767 C1771 1.411 1_565 S
C1768 H1753 0.960 . S
C1768 H1754 0.960 . S
C1768 H1755 0.960 . S
C1768 C1767 1.537 . S
C1769 C1766 1.403 . S
C1769 C1770 1.407 . S
C1769 C1773 1.495 1_455 S
C1770 C1769 1.407 . S
C1770 C1771 1.378 1_556 S
C1770 C1772 1.454 1_456 S
C1771 H1765 0.930 . S
C1771 C1767 1.411 1_545 S
C1771 C1770 1.378 1_554 S
C1772 C1770 1.454 1_654 S
C1772 C1774 1.366 1_655 S
C1772 C1778 1.414 . S
C1773 C1769 1.495 1_655 S
C1773 H1779 0.957 1_655 S
C1773 H1780 0.961 . S
C1773 H1781 0.960 1_655 S
C1774 C1772 1.366 1_455 S
C1774 C1775 1.394 1_455 S
C1774 H1782 0.930 . S
C1775 C1774 1.394 1_655 S
C1775 C1776 1.384 . S
C1775 H1783 0.929 1_655 S
C1776 C1775 1.384 . S
C1776 C1777 1.377 . S
C1777 H1761 0.930 . S
C1777 C1776 1.377 . S
C1777 C1778 1.379 . S
C1778 H1762 0.931 . S
C1778 C1772 1.414 . S
C1778 C1777 1.379 . S
H1779 C1773 0.957 1_455 S
H1780 C1773 0.961 . S
H1781 C1773 0.960 1_455 S
H1782 C1774 0.930 . S
H1783 C1775 0.929 1_455 S
H1784 C1792 0.929 . S
H1785 C1794 0.930 . S
H1786 C1796 0.918 1_546 S
H1787 C1799 0.929 . S
H1788 C1802 0.930 1_554 S
H1789 C1804 0.960 1_556 S
H1790 C1804 0.960 . S
H1791 C1804 0.960 1_556 S
C1792 H1784 0.929 . S
C1792 C1793 1.377 . S
C1792 C1794 1.384 . S
C1793 C1792 1.377 . S
C1793 C1799 1.390 . S
C1794 H1785 0.930 . S
C1794 C1792 1.384 . S
C1794 C1795 1.362 1_565 S
C1795 C1794 1.362 1_545 S
C1795 C1796 1.397 1_545 S
C1795 C1800 1.501 . S
C1796 H1786 0.918 1_564 S
C1796 C1795 1.397 1_565 S
C1796 C1799 1.401 . S
H1797 C1813 0.930 . S
H1798 C1814 0.931 . S
C1799 H1787 0.929 . S
C1799 C1793 1.390 . S
C1799 C1796 1.401 . S
C1800 C1795 1.501 . S
C1800 C1802 1.395 1_544 S
C1800 C1803 1.403 1_554 S
H1801 C1807 0.930 . S
C1802 H1788 0.930 1_556 S
C1802 C1800 1.395 1_566 S
C1802 C1805 1.403 1_565 S
C1803 C1800 1.403 1_556 S
C1803 C1804 1.524 1_556 S
C1803 C1807 1.400 . S
C1804 H1789 0.960 1_554 S
C1804 H1790 0.960 . S
C1804 H1791 0.960 1_554 S
C1804 C1803 1.524 1_554 S
C1805 C1802 1.403 1_545 S
C1805 C1806 1.392 . S
C1805 C1809 1.495 1_545 S
C1806 C1805 1.392 . S
C1806 C1807 1.385 . S
C1806 C1808 1.478 . S
C1807 H1801 0.930 . S
C1807 C1803 1.400 . S
C1807 C1806 1.385 . S
C1808 C1806 1.478 . S
C1808 C1810 1.381 . S
C1808 C1814 1.383 . S
C1809 C1805 1.495 1_565 S
C1809 H1815 0.959 . S
C1809 H1816 0.961 . S
C1809 H1817 0.960 . S
C1810 C1808 1.381 . S
C1810 C1811 1.394 . S
C1810 H1818 0.930 . S
C1811 C1810 1.394 . S
C1811 C1812 1.383 . S
C1811 H1819 0.929 . S
C1812 C1811 1.383 . S
C1812 C1813 1.377 . S
C1813 H1797 0.930 . S
C1813 C1812 1.377 . S
C1813 C1814 1.379 . S
C1814 H1798 0.931 . S
C1814 C1808 1.383 . S
C1814 C1813 1.379 . S
H1815 C1809 0.959 . S
H1816 C1809 0.961 . S
H1817 C1809 0.960 . S
H1818 C1810 0.930 . S
H1819 C1811 0.929 . S
H1820 C1828 0.929 . S
H1821 C1830 0.930 . S
H1822 C1832 0.930 . S
H1823 C1835 0.929 . S
H1824 C1838 0.930 . S
H1825 C1840 0.960 . S
H1826 C1840 0.960 . S
H1827 C1840 0.960 . S
C1828 H1820 0.929 . S
C1828 C1829 1.377 . S
C1828 C1830 1.384 . S
C1829 C1828 1.377 . S
C1829 C1835 1.390 . S
C1830 H1821 0.930 . S
C1830 C1828 1.384 . S
C1830 C1831 1.372 . S
C1831 C1830 1.372 . S
C1831 C1832 1.400 . S
C1831 C1836 1.490 . S
C1832 H1822 0.930 . S
C1832 C1831 1.400 . S
C1832 C1835 1.386 . S
H1833 C1849 0.930 . S
H1834 C1850 0.931 . S
C1835 H1823 0.929 . S
C1835 C1829 1.390 . S
C1835 C1832 1.386 . S
C1836 C1831 1.490 . S
C1836 C1838 1.395 . S
C1836 C1839 1.403 . S
H1837 C1843 0.930 . S
C1838 H1824 0.930 . S
C1838 C1836 1.395 . S
C1838 C1841 1.379 1_556 S
C1839 C1836 1.403 . S
C1839 C1840 1.524 . S
C1839 C1843 1.400 . S
C1840 H1825 0.960 . S
C1840 H1826 0.960 . S
C1840 H1827 0.960 . S
C1840 C1839 1.524 . S
C1841 C1838 1.379 1_554 S
C1841 C1842 1.399 . S
C1841 C1845 1.515 . S
C1842 C1841 1.399 . S
C1842 C1843 1.385 1_554 S
C1842 C1844 1.478 . S
C1843 H1837 0.930 . S
C1843 C1839 1.400 . S
C1843 C1842 1.385 1_556 S
C1844 C1842 1.478 . S
C1844 C1846 1.381 . S
C1844 C1850 1.383 . S
C1845 C1841 1.515 . S
C1845 H1851 0.959 . S
C1845 H1852 0.961 . S
C1845 H1853 0.960 . S
C1846 C1844 1.381 . S
C1846 C1847 1.394 . S
C1846 H1854 0.930 1_554 S
C1847 C1846 1.394 . S
C1847 C1848 1.383 . S
C1847 H1855 0.929 . S
C1848 C1847 1.383 . S
C1848 C1849 1.377 . S
C1849 H1833 0.930 . S
C1849 C1848 1.377 . S
C1849 C1850 1.379 . S
C1850 H1834 0.931 . S
C1850 C1844 1.383 . S
C1850 C1849 1.379 . S
H1851 C1845 0.959 . S
H1852 C1845 0.961 . S
H1853 C1845 0.960 . S
H1854 C1846 0.930 1_556 S
H1855 C1847 0.929 . S
H1856 C1864 0.929 . S
H1857 C1866 0.930 . S
H1858 C1868 0.930 1_545 S
H1859 C1871 0.929 . S
H1860 C1874 0.930 . S
H1861 C1876 0.960 . S
H1862 C1876 0.960 1_455 S
H1863 C1876 0.954 1_455 S
C1864 H1856 0.929 . S
C1864 C1865 1.377 . S
C1864 C1866 1.384 . S
C1865 C1864 1.377 . S
C1865 C1871 1.390 . S
C1866 H1857 0.930 . S
C1866 C1864 1.384 . S
C1866 C1867 1.370 1_565 S
C1867 C1866 1.370 1_545 S
C1867 C1868 1.399 1_545 S
C1867 C1872 1.493 . S
C1868 H1858 0.930 1_565 S
C1868 C1867 1.399 1_565 S
C1868 C1871 1.386 . S
H1869 C1885 0.930 . S
H1870 C1886 0.931 . S
C1871 H1859 0.929 . S
C1871 C1865 1.390 . S
C1871 C1868 1.386 . S
C1872 C1867 1.493 . S
C1872 C1874 1.395 . S
C1872 C1875 1.424 . S
H1873 C1879 0.930 . S
C1874 H1860 0.930 . S
C1874 C1872 1.395 . S
C1874 C1877 1.403 . S
C1875 C1872 1.424 . S
C1875 C1876 1.481 1_445 S
C1875 C1879 1.424 1_455 S
C1876 H1861 0.960 . S
C1876 H1862 0.960 1_655 S
C1876 H1863 0.954 1_655 S
C1876 C1875 1.481 1_665 S
C1877 C1874 1.403 . S
C1877 C1878 1.392 1_455 S
C1877 C1881 1.495 . S
C1878 C1877 1.392 1_655 S
C1878 C1879 1.385 . S
C1878 C1880 1.478 . S
C1879 H1873 0.930 . S
C1879 C1875 1.424 1_655 S
C1879 C1878 1.385 . S
C1880 C1878 1.478 . S
C1880 C1882 1.381 . S
C1880 C1886 1.383 . S
C1881 C1877 1.495 . S
C1881 H1887 0.959 . S
C1881 H1888 0.961 . S
C1881 H1889 0.960 . S
C1882 C1880 1.381 . S
C1882 C1883 1.394 . S
C1882 H1890 0.930 . S
C1883 C1882 1.394 . S
C1883 C1884 1.383 . S
C1883 H1891 0.929 . S
C1884 C1883 1.383 . S
C1884 C1885 1.377 . S
C1885 H1869 0.930 . S
C1885 C1884 1.377 . S
C1885 C1886 1.379 . S
C1886 H1870 0.931 . S
C1886 C1880 1.383 . S
C1886 C1885 1.379 . S
H1887 C1881 0.959 . S
H1888 C1881 0.961 . S
H1889 C1881 0.960 . S
H1890 C1882 0.930 . S
H1891 C1883 0.929 . S
H1892 C1900 0.929 . S
H1893 C1902 0.930 . S
H1894 C1904 0.930 . S
H1895 C1907 0.929 . S
H1896 C1910 0.930 . S
H1897 C1912 0.960 . S
H1898 C1912 0.960 1_545 S
H1899 C1912 0.958 1_545 S
C1900 H1892 0.929 . S
C1900 C1901 1.377 . S
C1900 C1902 1.384 . S
C1901 C1900 1.377 . S
C1901 C1907 1.390 . S
C1902 H1893 0.930 . S
C1902 C1900 1.384 . S
C1902 C1903 1.372 . S
C1903 C1902 1.372 . S
C1903 C1904 1.400 . S
C1903 C1908 1.490 . S
C1904 H1894 0.930 . S
C1904 C1903 1.400 . S
C1904 C1907 1.386 . S
H1905 C1921 0.930 . S
H1906 C1922 0.931 . S
C1907 H1895 0.929 . S
C1907 C1901 1.390 . S
C1907 C1904 1.386 . S
C1908 C1903 1.490 . S
C1908 C1910 1.395 . S
C1908 C1911 1.403 . S
H1909 C1915 0.930 . S
C1910 H1896 0.930 . S
C1910 C1908 1.395 . S
C1910 C1913 1.403 . S
C1911 C1908 1.403 . S
C1911 C1912 1.524 1_545 S
C1911 C1915 1.400 1_545 S
C1912 H1897 0.960 . S
C1912 H1898 0.960 1_565 S
C1912 H1899 0.958 1_565 S
C1912 C1911 1.524 1_565 S
C1913 C1910 1.403 . S
C1913 C1914 1.392 1_545 S
C1913 C1917 1.495 . S
C1914 C1913 1.392 1_565 S
C1914 C1915 1.385 . S
C1914 C1916 1.478 . S
C1915 H1909 0.930 . S
C1915 C1911 1.400 1_565 S
C1915 C1914 1.385 . S
C1916 C1914 1.478 . S
C1916 C1918 1.381 . S
C1916 C1922 1.383 . S
C1917 C1913 1.495 . S
C1917 H1923 0.959 . S
C1917 H1924 0.961 . S
C1917 H1925 0.960 . S
C1918 C1916 1.381 . S
C1918 C1919 1.394 . S
C1918 H1926 0.930 . S
C1919 C1918 1.394 . S
C1919 C1920 1.383 . S
C1919 H1927 0.929 . S
C1920 C1919 1.383 . S
C1920 C1921 1.377 . S
C1921 H1905 0.930 . S
C1921 C1920 1.377 . S
C1921 C1922 1.379 . S
C1922 H1906 0.931 . S
C1922 C1916 1.383 . S
C1922 C1921 1.379 . S
H1923 C1917 0.959 . S
H1924 C1917 0.961 . S
H1925 C1917 0.960 . S
H1926 C1918 0.930 . S
H1927 C1919 0.929 . S
H1928 C1936 0.929 . S
H1929 C1938 0.930 . S
H1930 C1940 0.930 . S
H1931 C1943 0.929 . S
H1932 C1946 0.930 . S
H1933 C1948 0.960 . S
H1934 C1948 0.960 . S
H1935 C1948 0.960 . S
C1936 H1928 0.929 . S
C1936 C1937 1.377 . S
C1936 C1938 1.384 . S
C1937 C1936 1.377 . S
C1937 C1943 1.390 . S
C1938 H1929 0.930 . S
C1938 C1936 1.384 . S
C1938 C1939 1.372 . S
C1939 C1938 1.372 . S
C1939 C1940 1.400 . S
C1939 C1944 1.490 . S
C1940 H1930 0.930 . S
C1940 C1939 1.400 . S
C1940 C1943 1.386 . S
H1941 C1957 0.930 . S
H1942 C1958 0.931 . S
C1943 H1931 0.929 . S
C1943 C1937 1.390 . S
C1943 C1940 1.386 . S
C1944 C1939 1.490 . S
C1944 C1946 1.395 . S
C1944 C1947 1.403 . S
H1945 C1951 0.930 . S
C1946 H1932 0.930 . S
C1946 C1944 1.395 . S
C1946 C1949 1.403 . S
C1947 C1944 1.403 . S
C1947 C1948 1.524 . S
C1947 C1951 1.400 . S
C1948 H1933 0.960 . S
C1948 H1934 0.960 . S
C1948 H1935 0.960 . S
C1948 C1947 1.524 . S
C1949 C1946 1.403 . S
C1949 C1950 1.392 . S
C1949 C1953 1.495 . S
C1950 C1949 1.392 . S
C1950 C1951 1.385 . S
C1950 C1952 1.478 . S
C1951 H1945 0.930 . S
C1951 C1947 1.400 . S
C1951 C1950 1.385 . S
C1952 C1950 1.478 . S
C1952 C1954 1.381 . S
C1952 C1958 1.383 . S
C1953 C1949 1.495 . S
C1953 H1959 0.959 . S
C1953 H1960 0.961 . S
C1953 H1961 0.960 . S
C1954 C1952 1.381 . S
C1954 C1955 1.394 . S
C1954 H1962 0.930 . S
C1955 C1954 1.394 . S
C1955 C1956 1.383 . S
C1955 H1963 0.929 . S
C1956 C1955 1.383 . S
C1956 C1957 1.377 . S
C1957 H1941 0.930 . S
C1957 C1956 1.377 . S
C1957 C1958 1.379 . S
C1958 H1942 0.931 . S
C1958 C1952 1.383 . S
C1958 C1957 1.379 . S
H1959 C1953 0.959 . S
H1960 C1953 0.961 . S
H1961 C1953 0.960 . S
H1962 C1954 0.930 . S
H1963 C1955 0.929 . S
H1964 C1972 0.929 . S
H1965 C1974 0.930 . S
H1966 C1976 0.930 . S
H1967 C1979 0.929 . S
H1968 C1982 0.930 . S
H1969 C1984 0.960 . S
H1970 C1984 0.960 . S
H1971 C1984 0.960 . S
C1972 H1964 0.929 . S
C1972 C1973 1.377 . S
C1972 C1974 1.384 1_655 S
C1973 C1972 1.377 . S
C1973 C1979 1.390 . S
C1974 H1965 0.930 . S
C1974 C1972 1.384 1_455 S
C1974 C1975 1.377 . S
C1975 C1974 1.377 . S
C1975 C1976 1.378 1_455 S
C1975 C1980 1.509 . S
C1976 H1966 0.930 . S
C1976 C1975 1.378 1_655 S
C1976 C1979 1.386 . S
H1977 C1993 0.930 . S
H1978 C1994 0.931 . S
C1979 H1967 0.929 . S
C1979 C1973 1.390 . S
C1979 C1976 1.386 . S
C1980 C1975 1.509 . S
C1980 C1982 1.395 . S
C1980 C1983 1.403 1_455 S
H1981 C1987 0.930 . S
C1982 H1968 0.930 . S
C1982 C1980 1.395 . S
C1982 C1985 1.403 . S
C1983 C1980 1.403 1_655 S
C1983 C1984 1.524 . S
C1983 C1987 1.400 1_655 S
C1984 H1969 0.960 . S
C1984 H1970 0.960 . S
C1984 H1971 0.960 . S
C1984 C1983 1.524 . S
C1985 C1982 1.403 . S
C1985 C1986 1.392 . S
C1985 C1989 1.495 . S
C1986 C1985 1.392 . S
C1986 C1987 1.385 . S
C1986 C1988 1.478 . S
C1987 H1981 0.930 . S
C1987 C1983 1.400 1_455 S
C1987 C1986 1.385 . S
C1988 C1986 1.478 . S
C1988 C1990 1.381 . S
C1988 C1994 1.383 . S
C1989 C1985 1.495 . S
C1989 H1995 0.959 . S
C1989 H1996 0.961 . S
C1989 H1997 0.960 . S
C1990 C1988 1.381 . S
C1990 C1991 1.394 . S
C1990 H1998 0.930 . S
C1991 C1990 1.394 . S
C1991 C1992 1.383 . S
C1991 H1999 0.929 . S
C1992 C1991 1.383 . S
C1992 C1993 1.377 . S
C1993 H1977 0.930 . S
C1993 C1992 1.377 . S
C1993 C1994 1.379 . S
C1994 H1978 0.931 . S
C1994 C1988 1.383 . S
C1994 C1993 1.379 . S
H1995 C1989 0.959 . S
H1996 C1989 0.961 . S
H1997 C1989 0.960 . S
H1998 C1990 0.930 . S
H1999 C1991 0.929 . S
C857 C38 2.420 . S
C876 C144 2.419 . S
C893 C91 2.416 . S
C912 C197 2.405 . S
C929 C250 2.420 . S
C948 C356 2.420 . S
C965 C409 2.416 . S
C984 C303 2.409 . S
C1001 C453 0.890 . S
C1020 C559 0.901 . S
C1037 C612 0.885 . S
C1056 C506 0.865 . S
C1073 C771 0.880 . S
C1092 C665 0.900 . S
C1109 C824 0.889 . S
C1128 C718 0.856 . S
C1145 C410 2.391 . S
C1164 C39 2.388 . S
C1181 C92 2.389 . S
C1200 C251 2.377 . S
C1217 C304 2.390 . S
C1236 C145 2.394 . S
C1253 C198 2.387 . S
C1272 C357 2.374 . S
C1289 C817 0.897 . S
C1308 C446 0.913 . S
C1325 C499 0.907 . S
C1344 C658 0.888 . S
C1361 C552 0.904 . S
C1380 C711 0.871 . S
C1397 C764 0.896 . S
C1416 C605 0.859 . S
C1433 C29 0.630 . S
C1452 C241 0.595 . S
C1469 C82 0.646 . S
C1488 C294 0.674 . S
C1505 C347 0.629 . S
C1524 C135 0.591 . S
C1541 C188 0.646 . S
C1560 C400 0.682 . S
C1577 C674 1.258 . S
C1596 C462 1.275 . S
C1613 C727 1.264 . S
C1632 C515 1.248 . S
C1649 C568 1.262 . S
C1668 C780 1.262 . S
C1685 C621 1.265 . S
C1704 C833 1.244 . S
C1721 C22 2.354 . S
C1740 C463 2.332 . S
C1757 C516 2.352 . S
C1776 C75 2.359 . S
C1793 C128 2.356 . S
C1812 C569 2.365 . S
C1829 C622 2.352 . S
C1848 C181 2.335 . S
C1865 C234 2.355 . S
C1884 C675 2.332 . S
C1901 C287 2.354 . S
C1920 C728 2.332 . S
C1937 C781 2.356 . S
C1956 C340 2.343 . S
C1973 C393 2.357 . S
C1992 C834 2.337 . S
