# Generated by pormake.
# Topology umd, (4)-cn, num edge types: 1
# Building blocks:
#     Node 0, Type 0, BuildingBlock: CEKHIL_clean_sbu_0, # of connection points: 4
#     Node 1, Type 0, BuildingBlock: CEKHIL_clean_sbu_0, # of connection points: 4
#     Node 2, Type 0, BuildingBlock: CEKHIL_clean_sbu_0, # of connection points: 4
#     Node 3, Type 0, BuildingBlock: CEKHIL_clean_sbu_0, # of connection points: 4
#     Node 4, Type 0, BuildingBlock: CEKHIL_clean_sbu_0, # of connection points: 4
#     Node 5, Type 0, BuildingBlock: CEKHIL_clean_sbu_0, # of connection points: 4
#     Node 6, Type 0, BuildingBlock: CEKHIL_clean_sbu_0, # of connection points: 4
#     Node 7, Type 0, BuildingBlock: CEKHIL_clean_sbu_0, # of connection points: 4
#     Node 8, Type 0, BuildingBlock: CEKHIL_clean_sbu_0, # of connection points: 4
#     Node 9, Type 0, BuildingBlock: CEKHIL_clean_sbu_0, # of connection points: 4
#     Node 10, Type 0, BuildingBlock: CEKHIL_clean_sbu_0, # of connection points: 4
#     Node 11, Type 0, BuildingBlock: CEKHIL_clean_sbu_0, # of connection points: 4
#     Node 12, Type 0, BuildingBlock: CEKHIL_clean_sbu_0, # of connection points: 4
#     Node 13, Type 0, BuildingBlock: CEKHIL_clean_sbu_0, # of connection points: 4
#     Node 14, Type 0, BuildingBlock: CEKHIL_clean_sbu_0, # of connection points: 4
#     Node 15, Type 0, BuildingBlock: CEKHIL_clean_sbu_0, # of connection points: 4
#     Edge 16, Type (0, 0), BuildingBlock: MIFKUJ_clean_linker_0, # of connection points: 2
#     Edge 17, Type (0, 0), BuildingBlock: MIFKUJ_clean_linker_0, # of connection points: 2
#     Edge 18, Type (0, 0), BuildingBlock: MIFKUJ_clean_linker_0, # of connection points: 2
#     Edge 19, Type (0, 0), BuildingBlock: MIFKUJ_clean_linker_0, # of connection points: 2
#     Edge 20, Type (0, 0), BuildingBlock: MIFKUJ_clean_linker_0, # of connection points: 2
#     Edge 21, Type (0, 0), BuildingBlock: MIFKUJ_clean_linker_0, # of connection points: 2
#     Edge 22, Type (0, 0), BuildingBlock: MIFKUJ_clean_linker_0, # of connection points: 2
#     Edge 23, Type (0, 0), BuildingBlock: MIFKUJ_clean_linker_0, # of connection points: 2
#     Edge 24, Type (0, 0), BuildingBlock: MIFKUJ_clean_linker_0, # of connection points: 2
#     Edge 25, Type (0, 0), BuildingBlock: MIFKUJ_clean_linker_0, # of connection points: 2
#     Edge 26, Type (0, 0), BuildingBlock: MIFKUJ_clean_linker_0, # of connection points: 2
#     Edge 27, Type (0, 0), BuildingBlock: MIFKUJ_clean_linker_0, # of connection points: 2
#     Edge 28, Type (0, 0), BuildingBlock: MIFKUJ_clean_linker_0, # of connection points: 2
#     Edge 29, Type (0, 0), BuildingBlock: MIFKUJ_clean_linker_0, # of connection points: 2
#     Edge 30, Type (0, 0), BuildingBlock: MIFKUJ_clean_linker_0, # of connection points: 2
#     Edge 31, Type (0, 0), BuildingBlock: MIFKUJ_clean_linker_0, # of connection points: 2
#     Edge 32, Type (0, 0), BuildingBlock: MIFKUJ_clean_linker_0, # of connection points: 2
#     Edge 33, Type (0, 0), BuildingBlock: MIFKUJ_clean_linker_0, # of connection points: 2
#     Edge 34, Type (0, 0), BuildingBlock: MIFKUJ_clean_linker_0, # of connection points: 2
#     Edge 35, Type (0, 0), BuildingBlock: MIFKUJ_clean_linker_0, # of connection points: 2
#     Edge 36, Type (0, 0), BuildingBlock: MIFKUJ_clean_linker_0, # of connection points: 2
#     Edge 37, Type (0, 0), BuildingBlock: MIFKUJ_clean_linker_0, # of connection points: 2
#     Edge 38, Type (0, 0), BuildingBlock: MIFKUJ_clean_linker_0, # of connection points: 2
#     Edge 39, Type (0, 0), BuildingBlock: MIFKUJ_clean_linker_0, # of connection points: 2
#     Edge 40, Type (0, 0), BuildingBlock: MIFKUJ_clean_linker_0, # of connection points: 2
#     Edge 41, Type (0, 0), BuildingBlock: MIFKUJ_clean_linker_0, # of connection points: 2
#     Edge 42, Type (0, 0), BuildingBlock: MIFKUJ_clean_linker_0, # of connection points: 2
#     Edge 43, Type (0, 0), BuildingBlock: MIFKUJ_clean_linker_0, # of connection points: 2
#     Edge 44, Type (0, 0), BuildingBlock: MIFKUJ_clean_linker_0, # of connection points: 2
#     Edge 45, Type (0, 0), BuildingBlock: MIFKUJ_clean_linker_0, # of connection points: 2
#     Edge 46, Type (0, 0), BuildingBlock: MIFKUJ_clean_linker_0, # of connection points: 2
#     Edge 47, Type (0, 0), BuildingBlock: MIFKUJ_clean_linker_0, # of connection points: 2
# Relax obj value: 0.093
# Max RMSD: 0.228
# Mean RMSD: 0.228
data_MOF--net-umd--node1-CEKHIL_clean_sbu_0--edge1-MIFKUJ_clean_linker_0
_symmetry_space_group_name_H-M    P1
_symmetry_Int_Tables_number       1
_symmetry_cell_setting            triclinic
loop_
_symmetry_equiv_pos_as_xyz
'x, y, z'
_cell_length_a     49.930231
_cell_length_b     49.928942
_cell_length_c     72.917113
_cell_angle_alpha  90.076589
_cell_angle_beta   89.932686
_cell_angle_gamma 90.006283
loop_
_atom_site_label
_atom_site_type_symbol
_atom_site_fract_x
_atom_site_fract_y
_atom_site_fract_z
_atom_type_partial_charge
Co0 Co 0.19484 0.44871 0.12077 0.0
O1 O 0.22886 0.43087 0.12044 0.0
O2 O 0.19179 0.4144 0.10822 0.0
C3 C 0.19546 0.46038 0.15056 0.0
O4 O 0.156 0.46179 0.11915 0.0
Co5 Co 0.19464 0.50997 0.12811 0.0
O6 O 0.15525 0.50557 0.12693 0.0
C7 C 0.21181 0.49033 0.09216 0.0
C8 C 0.21726 0.41159 0.11158 0.0
C9 C 0.14348 0.48398 0.1222 0.0
O10 O 0.20405 0.46679 0.09693 0.0
O11 O 0.21192 0.51028 0.1032 0.0
O12 O 0.18807 0.43649 0.14564 0.0
O13 O 0.20508 0.47525 0.13761 0.0
Co14 Co 0.54967 0.19684 0.61768 0.0
O15 O 0.56833 0.23024 0.61561 0.0
O16 O 0.5836 0.19142 0.60511 0.0
C17 C 0.53878 0.20074 0.64747 0.0
O18 O 0.53565 0.15831 0.61791 0.0
Co19 Co 0.48865 0.19835 0.62576 0.0
O20 O 0.49277 0.15898 0.62759 0.0
C21 C 0.50778 0.21204 0.58892 0.0
C22 C 0.58712 0.21707 0.60729 0.0
C23 C 0.51375 0.14636 0.62258 0.0
O24 O 0.5313 0.20422 0.59368 0.0
O25 O 0.48811 0.21334 0.60016 0.0
O26 O 0.56235 0.19229 0.64265 0.0
O27 O 0.52374 0.20935 0.63429 0.0
Co28 Co 0.80592 0.55171 0.1185 0.0
O29 O 0.77195 0.56927 0.11615 0.0
O30 O 0.81022 0.5857 0.10577 0.0
C31 C 0.80159 0.54114 0.14827 0.0
O32 O 0.84495 0.53886 0.11918 0.0
Co33 Co 0.8065 0.4908 0.12727 0.0
O34 O 0.84502 0.49763 0.13169 0.0
C35 C 0.79332 0.50857 0.08996 0.0
C36 C 0.78446 0.58851 0.10787 0.0
C37 C 0.85732 0.51829 0.1258 0.0
O38 O 0.79952 0.53265 0.09458 0.0
O39 O 0.79302 0.48904 0.10133 0.0
O40 O 0.80952 0.56489 0.14349 0.0
O41 O 0.7939 0.52568 0.13505 0.0
Co42 Co 0.45017 0.80925 0.62078 0.0
O43 O 0.43006 0.77669 0.6223 0.0
O44 O 0.41591 0.81333 0.60829 0.0
C45 C 0.46203 0.81018 0.6505 0.0
O46 O 0.46563 0.84697 0.61759 0.0
Co47 Co 0.51124 0.80687 0.62811 0.0
O48 O 0.50777 0.84638 0.62857 0.0
C49 C 0.49072 0.7884 0.5926 0.0
C50 C 0.41125 0.78872 0.61331 0.0
C51 C 0.48751 0.85893 0.62232 0.0
O52 O 0.46731 0.79673 0.59728 0.0
O53 O 0.51085 0.78888 0.60345 0.0
O54 O 0.43879 0.8191 0.64538 0.0
O55 O 0.47608 0.7986 0.63786 0.0
Co56 Co 0.1956 0.55099 0.36954 0.0
O57 O 0.22919 0.56942 0.36937 0.0
O58 O 0.19201 0.58546 0.38181 0.0
C59 C 0.19597 0.53882 0.33984 0.0
O60 O 0.15709 0.5373 0.37155 0.0
Co61 Co 0.1962 0.48968 0.36269 0.0
O62 O 0.15675 0.49372 0.36332 0.0
C63 C 0.21418 0.5103 0.3982 0.0
C64 C 0.21736 0.58864 0.37816 0.0
C65 C 0.14475 0.51512 0.36818 0.0
O66 O 0.20573 0.53359 0.39343 0.0
O67 O 0.21419 0.49015 0.38732 0.0
O68 O 0.18811 0.56261 0.34466 0.0
O69 O 0.20612 0.52437 0.35282 0.0
Co70 Co 0.44859 0.19197 0.86665 0.0
O71 O 0.43194 0.22644 0.86605 0.0
O72 O 0.41369 0.19046 0.87858 0.0
C73 C 0.46138 0.19164 0.83706 0.0
O74 O 0.46025 0.1529 0.86898 0.0
Co75 Co 0.50988 0.189 0.86039 0.0
O76 O 0.50214 0.15018 0.85748 0.0
C77 C 0.48959 0.20776 0.89588 0.0
C78 C 0.41182 0.21583 0.87459 0.0
C79 C 0.48072 0.13938 0.86345 0.0
O80 O 0.46592 0.2011 0.89071 0.0
O81 O 0.51002 0.20672 0.88527 0.0
O82 O 0.43718 0.18488 0.84166 0.0
O83 O 0.47608 0.20102 0.8502 0.0
Co84 Co 0.80703 0.45145 0.3673 0.0
O85 O 0.77294 0.43424 0.36928 0.0
O86 O 0.81081 0.41715 0.3798 0.0
C87 C 0.80329 0.46258 0.33759 0.0
O88 O 0.84604 0.46415 0.36695 0.0
Co89 Co 0.80762 0.51248 0.35926 0.0
O90 O 0.84626 0.50575 0.35503 0.0
C91 C 0.79416 0.49392 0.39629 0.0
C92 C 0.78502 0.41477 0.37756 0.0
C93 C 0.85848 0.48491 0.36069 0.0
O94 O 0.80047 0.47002 0.39134 0.0
O95 O 0.79374 0.51373 0.38517 0.0
O96 O 0.81111 0.43875 0.34227 0.0
O97 O 0.79529 0.47777 0.35089 0.0
Co98 Co 0.54929 0.8023 0.86967 0.0
O99 O 0.56521 0.76747 0.87096 0.0
O100 O 0.58406 0.80447 0.88156 0.0
C101 C 0.53706 0.79939 0.84015 0.0
O102 O 0.53879 0.84192 0.86991 0.0
Co103 Co 0.48829 0.80724 0.86254 0.0
O104 O 0.49797 0.8449 0.85696 0.0
C105 C 0.50708 0.79221 0.89931 0.0
C106 C 0.58566 0.77877 0.8787 0.0
C107 C 0.51941 0.85562 0.86295 0.0
O108 O 0.53126 0.79636 0.89394 0.0
O109 O 0.48686 0.79378 0.88857 0.0
O110 O 0.56139 0.80594 0.84451 0.0
O111 O 0.52169 0.79228 0.85359 0.0
Co112 Co 0.80987 0.54578 0.86854 0.0
O113 O 0.7758 0.56323 0.86813 0.0
O114 O 0.81212 0.58017 0.88106 0.0
C115 C 0.81005 0.53426 0.83874 0.0
O116 O 0.84873 0.53329 0.87083 0.0
Co117 Co 0.81198 0.48481 0.86097 0.0
O118 O 0.85115 0.49094 0.86031 0.0
C119 C 0.79359 0.50372 0.89693 0.0
C120 C 0.78685 0.5828 0.877 0.0
C121 C 0.86221 0.51225 0.86628 0.0
O122 O 0.79995 0.52767 0.89217 0.0
O123 O 0.79515 0.48367 0.88603 0.0
O124 O 0.81746 0.55806 0.84384 0.0
O125 O 0.80032 0.51919 0.85154 0.0
Co126 Co 0.45478 0.80782 0.37069 0.0
O127 O 0.43718 0.77383 0.37151 0.0
O128 O 0.4201 0.81139 0.38269 0.0
C129 C 0.46702 0.80558 0.3411 0.0
O130 O 0.46755 0.84675 0.37144 0.0
Co131 Co 0.51616 0.8082 0.36401 0.0
O132 O 0.51111 0.8475 0.36314 0.0
C133 C 0.49566 0.79213 0.39998 0.0
C134 C 0.41749 0.78578 0.37972 0.0
C135 C 0.48943 0.85933 0.36761 0.0
O136 O 0.47226 0.79981 0.3949 0.0
O137 O 0.51588 0.79179 0.38918 0.0
O138 O 0.44304 0.81318 0.34561 0.0
O139 O 0.48176 0.79681 0.35439 0.0
Co140 Co 0.19965 0.45908 0.86834 0.0
O141 O 0.23251 0.43958 0.86655 0.0
O142 O 0.19575 0.42405 0.87975 0.0
C143 C 0.19872 0.47299 0.83916 0.0
O144 O 0.16179 0.47374 0.8719 0.0
Co145 Co 0.20143 0.52041 0.86343 0.0
O146 O 0.16186 0.51718 0.86367 0.0
C147 C 0.2192 0.49765 0.89828 0.0
C148 C 0.2207 0.42023 0.87518 0.0
C149 C 0.1496 0.49603 0.86873 0.0
O150 O 0.21148 0.47461 0.89245 0.0
O151 O 0.21873 0.51869 0.88829 0.0
O152 O 0.18999 0.44933 0.84347 0.0
O153 O 0.21042 0.48632 0.85211 0.0
Co154 Co 0.54975 0.19664 0.36718 0.0
O155 O 0.56712 0.23033 0.37119 0.0
O156 O 0.58333 0.19121 0.3802 0.0
C157 C 0.54006 0.20312 0.33739 0.0
O158 O 0.5369 0.15795 0.36486 0.0
Co159 Co 0.48902 0.19754 0.35772 0.0
O160 O 0.49509 0.15875 0.35327 0.0
C161 C 0.50609 0.20783 0.39548 0.0
C162 C 0.5861 0.21712 0.37922 0.0
C163 C 0.5159 0.14607 0.35851 0.0
O164 O 0.52996 0.20067 0.39104 0.0
O165 O 0.48714 0.21066 0.38383 0.0
O166 O 0.56369 0.19499 0.34227 0.0
O167 O 0.52429 0.20995 0.35068 0.0
Co168 Co 0.80814 0.45163 0.61864 0.0
O169 O 0.77425 0.43416 0.61582 0.0
O170 O 0.81296 0.41745 0.60624 0.0
C171 C 0.8029 0.46266 0.64826 0.0
O172 O 0.84709 0.46433 0.61973 0.0
Co173 Co 0.80861 0.51265 0.62685 0.0
O174 O 0.84742 0.50653 0.63065 0.0
C175 C 0.79594 0.49402 0.58967 0.0
C176 C 0.78712 0.41482 0.60788 0.0
C177 C 0.85958 0.48538 0.62545 0.0
O178 O 0.8026 0.47021 0.59454 0.0
O179 O 0.79495 0.51374 0.6009 0.0
O180 O 0.81092 0.43884 0.64369 0.0
O181 O 0.79566 0.47801 0.63488 0.0
Co182 Co 0.55104 0.80733 0.12114 0.0
O183 O 0.56965 0.7738 0.12011 0.0
O184 O 0.58456 0.81141 0.10772 0.0
C185 C 0.54117 0.80599 0.15119 0.0
O186 O 0.53684 0.84584 0.12022 0.0
Co187 Co 0.49039 0.80608 0.13026 0.0
O188 O 0.49517 0.84538 0.13208 0.0
C189 C 0.50799 0.79059 0.09343 0.0
C190 C 0.58813 0.78596 0.11084 0.0
C191 C 0.51548 0.85794 0.12585 0.0
O192 O 0.53183 0.79793 0.09779 0.0
O193 O 0.48848 0.79052 0.10484 0.0
O194 O 0.56451 0.8142 0.14568 0.0
O195 O 0.52586 0.79605 0.13859 0.0
Co196 Co 0.19551 0.55045 0.61836 0.0
O197 O 0.22763 0.57108 0.62106 0.0
O198 O 0.19165 0.5848 0.60604 0.0
C199 C 0.19264 0.53799 0.64792 0.0
O200 O 0.15819 0.53477 0.61396 0.0
Co201 Co 0.19791 0.48935 0.62501 0.0
O202 O 0.15839 0.49193 0.62364 0.0
C203 C 0.21846 0.51072 0.59032 0.0
C204 C 0.21578 0.58983 0.61188 0.0
C205 C 0.14616 0.51252 0.61762 0.0
O206 O 0.20977 0.53397 0.59505 0.0
O207 O 0.21737 0.49032 0.60091 0.0
O208 O 0.18385 0.56121 0.64266 0.0
O209 O 0.20535 0.52426 0.6356 0.0
Co210 Co 0.4534 0.19605 0.1177 0.0
O211 O 0.43551 0.22981 0.1147 0.0
O212 O 0.41944 0.191 0.10502 0.0
C213 C 0.4642 0.20122 0.14745 0.0
O214 O 0.46658 0.15729 0.11891 0.0
Co215 Co 0.51448 0.19715 0.12595 0.0
O216 O 0.5098 0.15779 0.1279 0.0
C217 C 0.496 0.20861 0.08878 0.0
C218 C 0.41646 0.21683 0.10654 0.0
C219 C 0.48851 0.14527 0.1234 0.0
O220 O 0.47232 0.20138 0.09364 0.0
O221 O 0.51547 0.21104 0.10005 0.0
O222 O 0.44044 0.19312 0.14278 0.0
O223 O 0.4794 0.20885 0.13407 0.0
H224 H 0.11535 0.52415 0.10659 0.0
H225 H 0.06686 0.5298 0.10554 0.0
H226 H 0.05665 0.45367 0.13265 0.0
H227 H 0.1055 0.44733 0.13279 0.0
H228 H 0.01873 0.45943 0.10885 0.0
H229 H 0.05362 0.51642 0.15601 0.0
H230 H 0.08283 0.55124 0.16926 0.0
H231 H 0.05048 0.60932 0.13198 0.0
H232 H 0.02131 0.57475 0.11834 0.0
H233 H 0.88907 0.48185 0.14314 0.0
H234 H 0.93739 0.47686 0.14116 0.0
H235 H 0.94206 0.54679 0.10668 0.0
H236 H 0.8932 0.55213 0.10862 0.0
H237 H 0.98226 0.54479 0.13335 0.0
H238 H 0.94544 0.48595 0.08746 0.0
H239 H 0.91548 0.45028 0.07621 0.0
H240 H 0.95095 0.39452 0.11381 0.0
H241 H 0.98087 0.42997 0.12547 0.0
C242 C 0.10272 0.50847 0.11214 0.0
C243 C 0.11412 0.4854 0.11992 0.0
C244 C 0.075 0.51181 0.11167 0.0
C245 C 0.058 0.4926 0.11956 0.0
C246 C 0.06931 0.46892 0.12662 0.0
C247 C 0.09718 0.46526 0.12668 0.0
C248 C 0.02861 0.49765 0.1208 0.0
C249 C 0.01082 0.47797 0.11442 0.0
C250 C 0.01809 0.52205 0.12777 0.0
C251 C 0.03546 0.54293 0.13605 0.0
C252 C 0.05285 0.53658 0.15056 0.0
C253 C 0.06939 0.55627 0.15815 0.0
C254 C 0.06856 0.58246 0.15144 0.0
C255 C 0.05112 0.58902 0.13716 0.0
C256 C 0.03457 0.56939 0.1295 0.0
C257 C 0.90023 0.49634 0.13515 0.0
C258 C 0.88708 0.51727 0.12585 0.0
C259 C 0.92794 0.49335 0.13401 0.0
C260 C 0.94328 0.51109 0.12347 0.0
C261 C 0.93053 0.53273 0.11478 0.0
C262 C 0.90262 0.53578 0.11592 0.0
C263 C 0.97256 0.50659 0.12143 0.0
C264 C 0.99028 0.52634 0.1277 0.0
C265 C 0.98298 0.48211 0.11463 0.0
C266 C 0.96527 0.46067 0.10743 0.0
C267 C 0.94674 0.46613 0.0934 0.0
C268 C 0.92978 0.44594 0.08694 0.0
C269 C 0.93128 0.42017 0.09431 0.0
C270 C 0.9498 0.4145 0.10812 0.0
C271 C 0.96679 0.43462 0.11464 0.0
H272 H 0.91811 0.40457 0.0893 0.0
H273 H 0.08138 0.59768 0.15733 0.0
H274 H 0.44769 0.89599 0.6157 0.0
H275 H 0.45234 0.94488 0.61455 0.0
H276 H 0.53739 0.93738 0.62355 0.0
H277 H 0.53292 0.88899 0.62507 0.0
H278 H 0.51823 0.97463 0.64499 0.0
H279 H 0.5109 0.95334 0.58107 0.0
H280 H 0.49038 0.93363 0.55343 0.0
H281 H 0.42015 0.98189 0.56147 0.0
H282 H 0.44011 0.00163 0.58932 0.0
H283 H 0.55484 0.10955 0.622 0.0
H284 H 0.55085 0.06051 0.62092 0.0
H285 H 0.4648 0.06742 0.61961 0.0
H286 H 0.4685 0.11604 0.62083 0.0
H287 H 0.48482 0.03086 0.59388 0.0
H288 H 0.49256 0.05115 0.65832 0.0
H289 H 0.51365 0.07061 0.68584 0.0
H290 H 0.58457 0.02406 0.67606 0.0
H291 H 0.56396 0.0045 0.64835 0.0
C292 C 0.46738 0.90477 0.61732 0.0
C293 C 0.48987 0.88849 0.62055 0.0
C294 C 0.47004 0.93272 0.6166 0.0
C295 C 0.49527 0.94485 0.61889 0.0
C296 C 0.51771 0.92857 0.62185 0.0
C297 C 0.51507 0.9008 0.62268 0.0
C298 C 0.49846 0.97449 0.61871 0.0
C299 C 0.51124 0.98683 0.63367 0.0
C300 C 0.48895 0.99057 0.60413 0.0
C301 C 0.47689 0.97874 0.58739 0.0
C302 C 0.49098 0.95958 0.57703 0.0
C303 C 0.47947 0.94844 0.56131 0.0
C304 C 0.45394 0.95645 0.55572 0.0
C305 C 0.4399 0.97567 0.56583 0.0
C306 C 0.45131 0.98686 0.58158 0.0
C307 C 0.53511 0.1006 0.62144 0.0
C308 C 0.51202 0.11673 0.62161 0.0
C309 C 0.53284 0.07261 0.62087 0.0
C310 C 0.5075 0.06037 0.62024 0.0
C311 C 0.48452 0.07645 0.62006 0.0
C312 C 0.48673 0.10427 0.62088 0.0
C313 C 0.50468 0.03079 0.62007 0.0
C314 C 0.49191 0.01853 0.60511 0.0
C315 C 0.51435 0.01474 0.63458 0.0
C316 C 0.52684 0.0266 0.65115 0.0
C317 C 0.51275 0.04526 0.66194 0.0
C318 C 0.52459 0.05626 0.6776 0.0
C319 C 0.55048 0.04865 0.68266 0.0
C320 C 0.56454 0.02997 0.6721 0.0
C321 C 0.55278 0.0189 0.65643 0.0
H322 H 0.55961 0.05714 0.6948 0.0
H323 H 0.44507 0.94781 0.54354 0.0
H324 H 0.11553 0.47324 0.38064 0.0
H325 H 0.06695 0.46832 0.38073 0.0
H326 H 0.05874 0.54816 0.35879 0.0
H327 H 0.10765 0.55361 0.35956 0.0
H328 H 0.02021 0.5395 0.38206 0.0
H329 H 0.05499 0.49025 0.33108 0.0
H330 H 0.0842 0.45764 0.31537 0.0
H331 H 0.05098 0.39401 0.34779 0.0
H332 H 0.02179 0.42631 0.36385 0.0
H333 H 0.89063 0.52322 0.34559 0.0
H334 H 0.93899 0.52758 0.34798 0.0
H335 H 0.9428 0.45366 0.37835 0.0
H336 H 0.89393 0.44901 0.37608 0.0
H337 H 0.98306 0.45894 0.35125 0.0
H338 H 0.94647 0.51087 0.4012 0.0
H339 H 0.91685 0.54503 0.41486 0.0
H340 H 0.95323 0.60569 0.38138 0.0
H341 H 0.98282 0.5718 0.36733 0.0
C342 C 0.10335 0.48986 0.37601 0.0
C343 C 0.11531 0.51373 0.36993 0.0
C344 C 0.07557 0.48696 0.37594 0.0
C345 C 0.05914 0.50754 0.36924 0.0
C346 C 0.07099 0.5319 0.36389 0.0
C347 C 0.09889 0.53503 0.36435 0.0
C348 C 0.02975 0.50324 0.3674 0.0
C349 C 0.01214 0.52204 0.37512 0.0
C350 C 0.01907 0.48026 0.35856 0.0
C351 C 0.03637 0.46073 0.34877 0.0
C352 C 0.05401 0.46932 0.33492 0.0
C353 C 0.07056 0.4509 0.32595 0.0
C354 C 0.06948 0.42378 0.33061 0.0
C355 C 0.0518 0.41502 0.3442 0.0
C356 C 0.03523 0.43337 0.35323 0.0
C357 C 0.9016 0.50774 0.35277 0.0
C358 C 0.88823 0.48586 0.36084 0.0
C359 C 0.92933 0.51035 0.35413 0.0
C360 C 0.94442 0.49122 0.36363 0.0
C361 C 0.93143 0.46875 0.37107 0.0
C362 C 0.90353 0.46611 0.36975 0.0
C363 C 0.97369 0.49514 0.36593 0.0
C364 C 0.99123 0.4763 0.35825 0.0
C365 C 0.98427 0.51831 0.3745 0.0
C366 C 0.96672 0.53875 0.38311 0.0
C367 C 0.94803 0.53146 0.39666 0.0
C368 C 0.93127 0.55078 0.40449 0.0
C369 C 0.93312 0.5775 0.39897 0.0
C370 C 0.9518 0.58498 0.38564 0.0
C371 C 0.9686 0.56573 0.37776 0.0
H372 H 0.92011 0.59243 0.40503 0.0
H373 H 0.08232 0.40954 0.32366 0.0
H374 H 0.53903 0.889 0.88952 0.0
H375 H 0.53419 0.93804 0.89085 0.0
H376 H 0.49776 0.93747 0.83727 0.0
H377 H 0.50179 0.88863 0.83611 0.0
H378 H 0.53887 0.97989 0.84469 0.0
H379 H 0.45718 0.93936 0.86881 0.0
H380 H 0.43266 0.90966 0.88998 0.0
H381 H 0.46442 0.95281 0.93607 0.0
H382 H 0.48948 0.98252 0.91514 0.0
H383 H 0.47761 0.10459 0.83514 0.0
H384 H 0.48481 0.05608 0.83616 0.0
H385 H 0.49336 0.06021 0.89503 0.0
H386 H 0.48466 0.10861 0.89399 0.0
H387 H 0.46979 0.01591 0.88708 0.0
H388 H 0.54874 0.05842 0.86487 0.0
H389 H 0.57586 0.08806 0.8452 0.0
H390 H 0.55391 0.04186 0.79784 0.0
H391 H 0.52635 0.01215 0.81719 0.0
C392 C 0.53048 0.89946 0.87791 0.0
C393 C 0.52074 0.88514 0.86273 0.0
C394 C 0.5276 0.92736 0.87872 0.0
C395 C 0.51549 0.94125 0.86419 0.0
C396 C 0.50715 0.92708 0.8486 0.0
C397 C 0.50943 0.89924 0.84798 0.0
C398 C 0.50993 0.97031 0.86552 0.0
C399 C 0.52368 0.98784 0.85385 0.0
C400 C 0.49067 0.98062 0.87788 0.0
C401 C 0.47545 0.96293 0.89043 0.0
C402 C 0.45914 0.94234 0.88346 0.0
C403 C 0.4451 0.92555 0.89541 0.0
C404 C 0.44705 0.92929 0.91436 0.0
C405 C 0.46297 0.9499 0.92139 0.0
C406 C 0.47708 0.96672 0.90949 0.0
C407 C 0.48035 0.0949 0.8483 0.0
C408 C 0.48037 0.11003 0.86449 0.0
C409 C 0.48482 0.0673 0.84888 0.0
C410 C 0.49043 0.05452 0.86563 0.0
C411 C 0.48924 0.06956 0.88194 0.0
C412 C 0.48418 0.09714 0.88137 0.0
C413 C 0.49845 0.02578 0.86599 0.0
C414 C 0.48519 0.00821 0.87799 0.0
C415 C 0.51859 0.0155 0.85416 0.0
C416 C 0.5353 0.0332 0.84247 0.0
C417 C 0.54956 0.05468 0.85024 0.0
C418 C 0.56503 0.07148 0.83915 0.0
C419 C 0.56656 0.06688 0.82028 0.0
C420 C 0.55269 0.04541 0.81246 0.0
C421 C 0.53716 0.02857 0.82349 0.0
H422 H 0.57854 0.07992 0.81171 0.0
H423 H 0.43616 0.91627 0.92359 0.0
H424 H 0.89559 0.46913 0.86394 0.0
H425 H 0.94407 0.46817 0.8669 0.0
H426 H 0.94495 0.55345 0.87625 0.0
H427 H 0.89598 0.55472 0.87327 0.0
H428 H 0.98279 0.5363 0.85051 0.0
H429 H 0.95521 0.51284 0.91131 0.0
H430 H 0.92954 0.48752 0.93443 0.0
H431 H 0.9671 0.41451 0.91684 0.0
H432 H 0.99265 0.43931 0.89339 0.0
H433 H 0.11942 0.54109 0.87297 0.0
H434 H 0.07089 0.54461 0.875 0.0
H435 H 0.06408 0.45863 0.87131 0.0
H436 H 0.11302 0.45486 0.86977 0.0
H437 H 0.02892 0.47787 0.89553 0.0
H438 H 0.05364 0.49932 0.83372 0.0
H439 H 0.07841 0.52304 0.80939 0.0
H440 H 0.04545 0.59795 0.82757 0.0
H441 H 0.02077 0.57471 0.85219 0.0
C442 C 0.90595 0.48778 0.86665 0.0
C443 C 0.89179 0.51206 0.86835 0.0
C444 C 0.93373 0.48711 0.86845 0.0
C445 C 0.94808 0.51066 0.87199 0.0
C446 C 0.93418 0.53502 0.8736 0.0
C447 C 0.90622 0.5357 0.87193 0.0
C448 C 0.9777 0.50968 0.87343 0.0
C449 C 0.99293 0.52396 0.86058 0.0
C450 C 0.9908 0.49286 0.88621 0.0
C451 C 0.97572 0.47793 0.90048 0.0
C452 C 0.95786 0.49136 0.91228 0.0
C453 C 0.94334 0.4771 0.92545 0.0
C454 C 0.94665 0.44942 0.92708 0.0
C455 C 0.96454 0.43595 0.91556 0.0
C456 C 0.97907 0.4501 0.90233 0.0
C457 C 0.10768 0.52286 0.87263 0.0
C458 C 0.12012 0.49768 0.87099 0.0
C459 C 0.07986 0.52493 0.87376 0.0
C460 C 0.06376 0.50194 0.87291 0.0
C461 C 0.0761 0.47667 0.8719 0.0
C462 C 0.10406 0.47454 0.87099 0.0
C463 C 0.03408 0.50447 0.87256 0.0
C464 C 0.01883 0.49042 0.88556 0.0
C465 C 0.02089 0.52129 0.85979 0.0
C466 C 0.03557 0.5353 0.84492 0.0
C467 C 0.05182 0.52087 0.83262 0.0
C468 C 0.06583 0.53423 0.81876 0.0
C469 C 0.06356 0.56199 0.81697 0.0
C470 C 0.04722 0.57645 0.82899 0.0
C471 C 0.0332 0.5632 0.84289 0.0
H472 H 0.07442 0.5723 0.80623 0.0
H473 H 0.9354 0.43842 0.93728 0.0
H474 H 0.55229 0.11008 0.37255 0.0
H475 H 0.54775 0.06128 0.37413 0.0
H476 H 0.47238 0.06604 0.34549 0.0
H477 H 0.47656 0.11454 0.34394 0.0
H478 H 0.46853 0.03479 0.37562 0.0
H479 H 0.52835 0.04353 0.32393 0.0
H480 H 0.5692 0.05886 0.30805 0.0
H481 H 0.61786 0.01636 0.34684 0.0
H482 H 0.57729 1.00105 0.36309 0.0
H483 H 0.45019 0.89506 0.35795 0.0
H484 H 0.45431 0.94398 0.35631 0.0
H485 H 0.53452 0.93878 0.37811 0.0
H486 H 0.5309 0.89012 0.37883 0.0
H487 H 0.53569 0.97077 0.3513 0.0
H488 H 0.47738 0.96238 0.40353 0.0
H489 H 0.43728 0.94747 0.42047 0.0
H490 H 0.38687 0.9895 0.3825 0.0
H491 H 0.42666 0.0044 0.3652 0.0
C492 C 0.53489 0.10073 0.36641 0.0
C493 C 0.51477 0.11634 0.35817 0.0
C494 C 0.53233 0.07282 0.36732 0.0
C495 C 0.50971 0.06002 0.35992 0.0
C496 C 0.48992 0.07549 0.35139 0.0
C497 C 0.49243 0.10328 0.35047 0.0
C498 C 0.50615 0.03058 0.36142 0.0
C499 C 0.48307 0.02074 0.37013 0.0
C500 C 0.5254 0.0123 0.35466 0.0
C501 C 0.54979 0.02136 0.34482 0.0
C502 C 0.54777 0.03761 0.32915 0.0
C503 C 0.57087 0.04627 0.32007 0.0
C504 C 0.59611 0.03864 0.32646 0.0
C505 C 0.5983 0.02227 0.34192 0.0
C506 C 0.57526 0.01358 0.35106 0.0
C507 C 0.46852 0.90449 0.36259 0.0
C508 C 0.49022 0.88887 0.36849 0.0
C509 C 0.47088 0.93244 0.3617 0.0
C510 C 0.4947 0.94522 0.36722 0.0
C511 C 0.51602 0.92951 0.37364 0.0
C512 C 0.51389 0.90168 0.37412 0.0
C513 C 0.49809 0.97479 0.36568 0.0
C514 C 0.52113 0.98471 0.35688 0.0
C515 C 0.47893 0.99315 0.37256 0.0
C516 C 0.45499 0.98429 0.38298 0.0
C517 C 0.45773 0.96829 0.39873 0.0
C518 C 0.43506 0.95986 0.4084 0.0
C519 C 0.40954 0.96747 0.40253 0.0
C520 C 0.40664 0.98359 0.38701 0.0
C521 C 0.42925 0.99205 0.37728 0.0
H522 H 0.39201 0.96092 0.41004 0.0
H523 H 0.61398 0.04537 0.31942 0.0
H524 H 0.89196 0.52717 0.63511 0.0
H525 H 0.94038 0.53037 0.63238 0.0
H526 H 0.94378 0.44926 0.61219 0.0
H527 H 0.89486 0.44573 0.61482 0.0
H528 H 0.98361 0.46229 0.63896 0.0
H529 H 0.94868 0.49771 0.5823 0.0
H530 H 0.91947 0.52698 0.56385 0.0
H531 H 0.95541 0.5965 0.5883 0.0
H532 H 0.98456 0.56763 0.60711 0.0
H533 H 0.11735 0.46761 0.61019 0.0
H534 H 0.0688 0.46257 0.60981 0.0
H535 H 0.05969 0.54712 0.62045 0.0
H536 H 0.10856 0.55246 0.62014 0.0
H537 H 0.02218 0.53148 0.59782 0.0
H538 H 0.05535 0.49934 0.65484 0.0
H539 H 0.08399 0.47269 0.67529 0.0
H540 H 0.05063 0.40008 0.65342 0.0
H541 H 0.02218 0.42639 0.63245 0.0
C542 C 0.90284 0.50985 0.63016 0.0
C543 C 0.88934 0.4862 0.62504 0.0
C544 C 0.9306 0.51181 0.62855 0.0
C545 C 0.9456 0.49022 0.62182 0.0
C546 C 0.93248 0.46621 0.61732 0.0
C547 C 0.90454 0.46424 0.61882 0.0
C548 C 0.97494 0.49313 0.61928 0.0
C549 C 0.99211 0.47704 0.62971 0.0
C550 C 0.9859 0.5131 0.60773 0.0
C551 C 0.96867 0.53049 0.59621 0.0
C552 C 0.95024 0.51924 0.58383 0.0
C553 C 0.93371 0.53575 0.57329 0.0
C554 C 0.93555 0.56358 0.57492 0.0
C555 C 0.95399 0.57494 0.58706 0.0
C556 C 0.97055 0.55851 0.59764 0.0
C557 C 0.10502 0.48522 0.61226 0.0
C558 C 0.11677 0.51042 0.61536 0.0
C559 C 0.07724 0.48227 0.61213 0.0
C560 C 0.06052 0.50431 0.61559 0.0
C561 C 0.07216 0.52977 0.61786 0.0
C562 C 0.10007 0.53282 0.61767 0.0
C563 C 0.03106 0.50052 0.61745 0.0
C564 C 0.0138 0.51652 0.60696 0.0
C565 C 0.01999 0.48078 0.62923 0.0
C566 C 0.03684 0.46484 0.64193 0.0
C567 C 0.05426 0.47768 0.65428 0.0
C568 C 0.07046 0.46262 0.66598 0.0
C569 C 0.06917 0.43467 0.66567 0.0
C570 C 0.05164 0.42173 0.65364 0.0
C571 C 0.03548 0.43672 0.64182 0.0
H572 H 0.0817 0.42304 0.67477 0.0
H573 H 0.92272 0.57633 0.56677 0.0
H574 H 0.53313 0.11477 0.11882 0.0
H575 H 0.53656 0.06609 0.11801 0.0
H576 H 0.45122 0.05949 0.12579 0.0
H577 H 0.44745 0.10864 0.12633 0.0
H578 H 0.48446 0.02654 0.14985 0.0
H579 H 0.47238 0.04603 0.08599 0.0
H580 H 0.4818 0.06907 0.05681 0.0
H581 H 0.56218 0.03852 0.05721 0.0
H582 H 0.55337 0.01562 0.08657 0.0
H583 H 0.47178 0.88883 0.13342 0.0
H584 H 0.46771 0.93719 0.13215 0.0
H585 H 0.55013 0.94358 0.11496 0.0
H586 H 0.55437 0.89456 0.11586 0.0
H587 H 0.51849 0.97702 0.09554 0.0
H588 H 0.53199 0.95817 0.15891 0.0
H589 H 0.52428 0.9357 0.18853 0.0
H590 H 0.44374 0.96578 0.18986 0.0
H591 H 0.45083 0.98812 0.16009 0.0
C592 C 0.51501 0.10305 0.12036 0.0
C593 C 0.48998 0.11561 0.12271 0.0
C594 C 0.51704 0.0752 0.11979 0.0
C595 C 0.49416 0.05922 0.12176 0.0
C596 C 0.46911 0.07155 0.12421 0.0
C597 C 0.46697 0.09957 0.12446 0.0
C598 C 0.49682 0.02963 0.12167 0.0
C599 C 0.49143 0.01561 0.1379 0.0
C600 C 0.50692 0.01561 0.10626 0.0
C601 C 0.51229 0.02933 0.08859 0.0
C602 C 0.49215 0.04443 0.07996 0.0
C603 C 0.49736 0.05743 0.06336 0.0
C604 C 0.5226 0.05532 0.05519 0.0
C605 C 0.54265 0.04016 0.06357 0.0
C606 C 0.53755 0.02715 0.08019 0.0
C607 C 0.4892 0.90034 0.12939 0.0
C608 C 0.51354 0.88764 0.12488 0.0
C609 C 0.48679 0.92813 0.12873 0.0
C610 C 0.50871 0.94411 0.12378 0.0
C611 C 0.53296 0.93163 0.11892 0.0
C612 C 0.53539 0.90363 0.11949 0.0
C613 C 0.50596 0.97379 0.12373 0.0
C614 C 0.51144 0.98788 0.1075 0.0
C615 C 0.4962 0.98795 0.13922 0.0
C616 C 0.49187 0.97462 0.15717 0.0
C617 C 0.51256 0.95982 0.16544 0.0
C618 C 0.50831 0.94713 0.18227 0.0
C619 C 0.48351 0.94926 0.19105 0.0
C620 C 0.46293 0.96413 0.18303 0.0
C621 C 0.46706 0.97683 0.16619 0.0
H622 H 0.48027 0.93942 0.20409 0.0
H623 H 0.52659 0.06538 0.04233 0.0
H624 H 0.182 0.56845 0.31016 0.0
H625 H 0.18057 0.55436 0.27819 0.0
H626 H 0.20414 0.47448 0.29396 0.0
H627 H 0.20638 0.48878 0.32612 0.0
H628 H 0.23147 0.48953 0.26506 0.0
H629 H 0.13918 0.48915 0.28103 0.0
H630 H 0.09688 0.50667 0.29374 0.0
H631 H 0.09757 0.57043 0.25428 0.0
H632 H 0.1401 0.55352 0.2415 0.0
H633 H 0.1914 0.42862 0.18057 0.0
H634 H 0.19065 0.44236 0.21276 0.0
H635 H 0.19523 0.52522 0.19648 0.0
H636 H 0.19672 0.51156 0.16407 0.0
H637 H 0.1529 0.50768 0.22532 0.0
H638 H 0.24765 0.50617 0.21044 0.0
H639 H 0.28856 0.48526 0.19798 0.0
H640 H 0.2806 0.42031 0.23614 0.0
H641 H 0.23937 0.44064 0.24863 0.0
C642 C 0.18676 0.54783 0.30686 0.0
C643 C 0.19425 0.52967 0.32064 0.0
C644 C 0.1858 0.53977 0.28857 0.0
C645 C 0.19185 0.51326 0.28368 0.0
C646 C 0.19933 0.49503 0.29743 0.0
C647 C 0.20053 0.50318 0.31578 0.0
C648 C 0.19115 0.50495 0.26414 0.0
C649 C 0.21412 0.49318 0.25648 0.0
C650 C 0.16865 0.50999 0.25282 0.0
C651 C 0.14298 0.5202 0.26041 0.0
C652 C 0.13043 0.50703 0.27515 0.0
C653 C 0.10639 0.51683 0.28236 0.0
C654 C 0.09458 0.53969 0.27485 0.0
C655 C 0.10676 0.55275 0.26009 0.0
C656 C 0.13082 0.54304 0.25285 0.0
C657 C 0.19218 0.44979 0.18382 0.0
C658 C 0.19421 0.46906 0.16986 0.0
C659 C 0.19177 0.45756 0.20219 0.0
C660 C 0.19293 0.48474 0.2069 0.0
C661 C 0.19432 0.50413 0.19302 0.0
C662 C 0.19528 0.49632 0.17459 0.0
C663 C 0.19323 0.49264 0.22641 0.0
C664 C 0.17017 0.50416 0.23401 0.0
C665 C 0.21542 0.48694 0.23775 0.0
C666 C 0.24027 0.47477 0.23032 0.0
C667 C 0.25447 0.48729 0.21604 0.0
C668 C 0.27775 0.47558 0.209 0.0
C669 C 0.28713 0.45143 0.21623 0.0
C670 C 0.27329 0.43899 0.23054 0.0
C671 C 0.24998 0.45061 0.23761 0.0
H672 H 0.30516 0.4424 0.21076 0.0
H673 H 0.07597 0.54725 0.28045 0.0
H674 H 0.57084 0.20276 0.67732 0.0
H675 H 0.55766 0.20123 0.7095 0.0
H676 H 0.4746 0.19548 0.69353 0.0
H677 H 0.48778 0.19857 0.66117 0.0
H678 H 0.47785 0.22618 0.7216 0.0
H679 H 0.51358 0.14009 0.70771 0.0
H680 H 0.54685 0.10793 0.69595 0.0
H681 H 0.60343 0.13424 0.73644 0.0
H682 H 0.57075 0.16716 0.74812 0.0
H683 H 0.43184 0.17785 0.80723 0.0
H684 H 0.44555 0.1786 0.7751 0.0
H685 H 0.52501 0.20314 0.79104 0.0
H686 H 0.51137 0.20255 0.82341 0.0
H687 H 0.52303 0.16203 0.76332 0.0
H688 H 0.48481 0.24919 0.77626 0.0
H689 H 0.44939 0.27941 0.7876 0.0
H690 H 0.39417 0.24661 0.74844 0.0
H691 H 0.42918 0.21591 0.73704 0.0
C692 C 0.54975 0.20125 0.68068 0.0
C693 C 0.5303 0.20057 0.66681 0.0
C694 C 0.54224 0.2002 0.69909 0.0
C695 C 0.51517 0.19751 0.70399 0.0
C696 C 0.49563 0.1974 0.6901 0.0
C697 C 0.50313 0.19912 0.67164 0.0
C698 C 0.50739 0.19483 0.72358 0.0
C699 C 0.4875 0.21186 0.73061 0.0
C700 C 0.52017 0.17637 0.73549 0.0
C701 C 0.53976 0.15627 0.7287 0.0
C702 C 0.53317 0.13915 0.71404 0.0
C703 C 0.55193 0.12076 0.70739 0.0
C704 C 0.57722 0.11898 0.71546 0.0
C705 C 0.58382 0.13563 0.7302 0.0
C706 C 0.5652 0.15419 0.73683 0.0
C707 C 0.4523 0.18325 0.80395 0.0
C708 C 0.4705 0.19036 0.81782 0.0
C709 C 0.46006 0.18371 0.78558 0.0
C710 C 0.48617 0.19122 0.78073 0.0
C711 C 0.50473 0.19738 0.79455 0.0
C712 C 0.49691 0.19711 0.81299 0.0
C713 C 0.49371 0.19342 0.76116 0.0
C714 C 0.51348 0.17627 0.7542 0.0
C715 C 0.48048 0.21138 0.74923 0.0
C716 C 0.45955 0.23011 0.7559 0.0
C717 C 0.46506 0.2483 0.77015 0.0
C718 C 0.44507 0.26553 0.77657 0.0
C719 C 0.41953 0.26489 0.76877 0.0
C720 C 0.41396 0.24707 0.75448 0.0
C721 C 0.43387 0.22977 0.74802 0.0
H722 H 0.40407 0.27823 0.77377 0.0
H723 H 0.5917 0.10471 0.71029 0.0
H724 H 0.80508 0.49036 0.16188 0.0
H725 H 0.80574 0.47704 0.19416 0.0
H726 H 0.79638 0.55979 0.21031 0.0
H727 H 0.79752 0.5732 0.17813 0.0
H728 H 0.83019 0.53905 0.23148 0.0
H729 H 0.74324 0.51049 0.21107 0.0
H730 H 0.71089 0.4867 0.19136 0.0
H731 H 0.74712 0.41149 0.2054 0.0
H732 H 0.7799 0.43486 0.22502 0.0
H733 H 0.79067 0.51202 0.32396 0.0
H734 H 0.79006 0.52569 0.29168 0.0
H735 H 0.81516 0.4464 0.27554 0.0
H736 H 0.81574 0.43261 0.30765 0.0
H737 H 0.77287 0.46547 0.25488 0.0
H738 H 0.8594 0.49602 0.27604 0.0
H739 H 0.88938 0.52103 0.29677 0.0
H740 H 0.8506 0.59466 0.282 0.0
H741 H 0.82008 0.57002 0.26142 0.0
C742 C 0.80316 0.50562 0.17237 0.0
C743 C 0.80122 0.53276 0.1676 0.0
C744 C 0.80334 0.49802 0.1908 0.0
C745 C 0.8006 0.51735 0.20474 0.0
C746 C 0.79857 0.54448 0.19987 0.0
C747 C 0.79914 0.55213 0.18149 0.0
C748 C 0.80034 0.50953 0.22439 0.0
C749 C 0.81732 0.52322 0.23659 0.0
C750 C 0.78393 0.48856 0.23112 0.0
C751 C 0.76417 0.47446 0.21938 0.0
C752 C 0.74441 0.4889 0.20986 0.0
C753 C 0.72599 0.47549 0.19872 0.0
C754 C 0.72699 0.44761 0.1971 0.0
C755 C 0.74638 0.43308 0.20666 0.0
C756 C 0.76487 0.4464 0.2178 0.0
C757 C 0.7961 0.49756 0.31352 0.0
C758 C 0.80328 0.47128 0.31829 0.0
C759 C 0.79579 0.50539 0.29512 0.0
C760 C 0.80268 0.48705 0.28128 0.0
C761 C 0.80973 0.4608 0.28604 0.0
C762 C 0.81016 0.45301 0.30439 0.0
C763 C 0.80254 0.49508 0.26178 0.0
C764 C 0.78557 0.48138 0.24967 0.0
C765 C 0.81862 0.51628 0.25519 0.0
C766 C 0.83729 0.53114 0.26732 0.0
C767 C 0.85714 0.51752 0.27731 0.0
C768 C 0.87425 0.53163 0.28902 0.0
C769 C 0.87186 0.55941 0.29073 0.0
C770 C 0.85241 0.57314 0.28068 0.0
C771 C 0.83522 0.55911 0.26898 0.0
H772 H 0.88511 0.57029 0.29981 0.0
H773 H 0.71272 0.43727 0.18846 0.0
H774 H 0.56699 0.78777 0.81036 0.0
H775 H 0.55358 0.78955 0.77825 0.0
H776 H 0.47435 0.81506 0.79448 0.0
H777 H 0.48729 0.81118 0.82682 0.0
H778 H 0.46945 0.78361 0.76747 0.0
H779 H 0.52602 0.85973 0.77763 0.0
H780 H 0.56677 0.88344 0.78774 0.0
H781 H 0.61377 0.83882 0.74895 0.0
H782 H 0.57336 0.8146 0.73877 0.0
H783 H 0.43488 0.83185 0.67929 0.0
H784 H 0.4476 0.83126 0.71163 0.0
H785 H 0.52127 0.79087 0.69773 0.0
H786 H 0.50876 0.79156 0.66525 0.0
H787 H 0.52807 0.83154 0.72336 0.0
H788 H 0.46954 0.75545 0.71386 0.0
H789 H 0.42765 0.73385 0.70374 0.0
H790 H 0.38272 0.78218 0.74159 0.0
H791 H 0.42433 0.80434 0.75175 0.0
C792 C 0.54667 0.79362 0.80704 0.0
C793 C 0.52821 0.79962 0.82096 0.0
C794 C 0.53907 0.79487 0.78868 0.0
C795 C 0.5132 0.80333 0.78386 0.0
C796 C 0.4945 0.8087 0.79783 0.0
C797 C 0.50187 0.80656 0.81628 0.0
C798 C 0.50578 0.80651 0.76425 0.0
C799 C 0.4821 0.79448 0.75793 0.0
C800 C 0.52242 0.82036 0.75164 0.0
C801 C 0.54668 0.83523 0.75753 0.0
C802 C 0.54506 0.8549 0.77131 0.0
C803 C 0.5681 0.86843 0.77705 0.0
C804 C 0.59285 0.86261 0.76901 0.0
C805 C 0.59459 0.84331 0.75516 0.0
C806 C 0.57162 0.8297 0.74939 0.0
C807 C 0.45388 0.823 0.68309 0.0
C808 C 0.47075 0.81154 0.66978 0.0
C809 C 0.46106 0.82261 0.70157 0.0
C810 C 0.48516 0.81066 0.70706 0.0
C811 C 0.50252 0.80008 0.69374 0.0
C812 C 0.49533 0.80044 0.67523 0.0
C813 C 0.49194 0.80861 0.72674 0.0
C814 C 0.51546 0.82084 0.73302 0.0
C815 C 0.47497 0.79534 0.73935 0.0
C816 C 0.45002 0.7817 0.73345 0.0
C817 C 0.45071 0.76158 0.71994 0.0
C818 C 0.42702 0.74922 0.71421 0.0
C819 C 0.40253 0.75668 0.72199 0.0
C820 C 0.4017 0.77644 0.73556 0.0
C821 C 0.42533 0.78888 0.74133 0.0
H822 H 0.38421 0.74711 0.71752 0.0
H823 H 0.61066 0.87308 0.77349 0.0
H824 H 0.82515 0.56455 0.80956 0.0
H825 H 0.82355 0.55239 0.77714 0.0
H826 H 0.79472 0.47369 0.79144 0.0
H827 H 0.79629 0.48572 0.82406 0.0
H828 H 0.83523 0.47358 0.76463 0.0
H829 H 0.75138 0.51857 0.77671 0.0
H830 H 0.7238 0.55604 0.78811 0.0
H831 H 0.76173 0.60926 0.74985 0.0
H832 H 0.78983 0.57216 0.7384 0.0
H833 H 0.79528 0.43072 0.67767 0.0
H834 H 0.79517 0.44349 0.70995 0.0
H835 H 0.80929 0.52589 0.69483 0.0
H836 H 0.80773 0.51327 0.66229 0.0
H837 H 0.77675 0.52485 0.72231 0.0
H838 H 0.86084 0.48233 0.71019 0.0
H839 H 0.89074 0.4466 0.6989 0.0
H840 H 0.85583 0.39118 0.73705 0.0
H841 H 0.82547 0.4265 0.7484 0.0
C842 C 0.8186 0.54459 0.80584 0.0
C843 C 0.81069 0.5261 0.81932 0.0
C844 C 0.81761 0.53773 0.78731 0.0
C845 C 0.80868 0.5123 0.78194 0.0
C846 C 0.80156 0.49347 0.79537 0.0
C847 C 0.80243 0.50037 0.81395 0.0
C848 C 0.80652 0.50551 0.76226 0.0
C849 C 0.82219 0.48451 0.75538 0.0
C850 C 0.79015 0.52043 0.75019 0.0
C851 C 0.77287 0.54263 0.75681 0.0
C852 C 0.75395 0.53829 0.7708 0.0
C853 C 0.73821 0.55946 0.77727 0.0
C854 C 0.74106 0.58503 0.76974 0.0
C855 C 0.75957 0.58945 0.75568 0.0
C856 C 0.77538 0.56835 0.74918 0.0
C857 C 0.79823 0.45159 0.68125 0.0
C858 C 0.80181 0.47101 0.66758 0.0
C859 C 0.79832 0.45885 0.6997 0.0
C860 C 0.80302 0.48553 0.70487 0.0
C861 C 0.80582 0.50514 0.69118 0.0
C862 C 0.80499 0.49795 0.67263 0.0
C863 C 0.80541 0.49273 0.72456 0.0
C864 C 0.78983 0.51386 0.73148 0.0
C865 C 0.82222 0.47819 0.73665 0.0
C866 C 0.84075 0.45701 0.73005 0.0
C867 C 0.85946 0.46249 0.71611 0.0
C868 C 0.87649 0.44231 0.70971 0.0
C869 C 0.87515 0.41662 0.71723 0.0
C870 C 0.85684 0.41108 0.73123 0.0
C871 C 0.83974 0.43118 0.73767 0.0
H872 H 0.88833 0.40102 0.71224 0.0
H873 H 0.7289 0.60141 0.77479 0.0
H874 H 0.51818 0.80874 0.32775 0.0
H875 H 0.5318 0.80967 0.29528 0.0
H876 H 0.44919 0.80212 0.27892 0.0
H877 H 0.43541 0.80215 0.31112 0.0
H878 H 0.49365 0.76431 0.26215 0.0
H879 H 0.46447 0.85624 0.27303 0.0
H880 H 0.4652 0.89882 0.29018 0.0
H881 H 0.54946 0.90682 0.27966 0.0
H882 H 0.54929 0.86398 0.2627 0.0
H883 H 0.49428 0.78906 0.16677 0.0
H884 H 0.48246 0.78969 0.19938 0.0
H885 H 0.55847 0.8264 0.21206 0.0
H886 H 0.57023 0.82618 0.17954 0.0
H887 H 0.51926 0.84925 0.23146 0.0
H888 H 0.54928 0.76034 0.21901 0.0
H889 H 0.55097 0.71699 0.20282 0.0
H890 H 0.46891 0.70192 0.21716 0.0
H891 H 0.46661 0.7454 0.23321 0.0
C892 C 0.50302 0.80727 0.31719 0.0
C893 C 0.47579 0.80547 0.32185 0.0
C894 C 0.51078 0.80783 0.29874 0.0
C895 C 0.49142 0.80597 0.28486 0.0
C896 C 0.46433 0.80358 0.28952 0.0
C897 C 0.45653 0.80371 0.30787 0.0
C898 C 0.49924 0.80677 0.26538 0.0
C899 C 0.49903 0.78285 0.25533 0.0
C900 C 0.50684 0.83092 0.25679 0.0
C901 C 0.50694 0.85674 0.26684 0.0
C902 C 0.48322 0.86691 0.27456 0.0
C903 C 0.48351 0.89113 0.28421 0.0
C904 C 0.50739 0.90547 0.28608 0.0
C905 C 0.531 0.89566 0.27824 0.0
C906 C 0.53081 0.87141 0.26861 0.0
C907 C 0.50839 0.79737 0.17651 0.0
C908 C 0.53325 0.80737 0.17065 0.0
C909 C 0.50167 0.79764 0.19512 0.0
C910 C 0.51977 0.80776 0.20815 0.0
C911 C 0.54426 0.81844 0.20224 0.0
C912 C 0.55097 0.81821 0.18367 0.0
C913 C 0.51342 0.80673 0.22799 0.0
C914 C 0.51396 0.83061 0.23818 0.0
C915 C 0.50641 0.78243 0.23678 0.0
C916 C 0.50769 0.75626 0.22715 0.0
C917 C 0.53152 0.74789 0.21857 0.0
C918 C 0.53261 0.72328 0.20945 0.0
C919 C 0.51004 0.70674 0.20892 0.0
C920 C 0.48636 0.71477 0.21755 0.0
C921 C 0.48516 0.73939 0.22668 0.0
H922 H 0.51093 0.68769 0.20185 0.0
H923 H 0.50758 0.92422 0.29355 0.0
H924 H 0.238 0.49621 0.81888 0.0
H925 H 0.23643 0.50679 0.78613 0.0
H926 H 0.15311 0.48343 0.78461 0.0
H927 H 0.1555 0.4708 0.81697 0.0
H928 H 0.1745 0.46391 0.75688 0.0
H929 H 0.17869 0.55293 0.78316 0.0
H930 H 0.19781 0.58908 0.80219 0.0
H931 H 0.27119 0.58521 0.77152 0.0
H932 H 0.25259 0.54886 0.75244 0.0
H933 H 0.1655 0.56301 0.67533 0.0
H934 H 0.16473 0.55132 0.70782 0.0
H935 H 0.21379 0.48206 0.69671 0.0
H936 H 0.21441 0.49349 0.66402 0.0
H937 H 0.20946 0.54826 0.73013 0.0
H938 H 0.19993 0.43952 0.71898 0.0
H939 H 0.17565 0.40599 0.70034 0.0
H940 H 0.10472 0.45455 0.70245 0.0
H941 H 0.1289 0.48867 0.72055 0.0
C942 C 0.21933 0.49372 0.81151 0.0
C943 C 0.19683 0.48287 0.82028 0.0
C944 C 0.21837 0.49985 0.79283 0.0
C945 C 0.19452 0.4963 0.78283 0.0
C946 C 0.17179 0.48623 0.79191 0.0
C947 C 0.17307 0.47921 0.8104 0.0
C948 C 0.19338 0.50193 0.76281 0.0
C949 C 0.18216 0.48245 0.75116 0.0
C950 C 0.20324 0.52606 0.7551 0.0
C951 C 0.21432 0.54805 0.76648 0.0
C952 C 0.19894 0.55971 0.78055 0.0
C953 C 0.20968 0.58025 0.79133 0.0
C954 C 0.23572 0.5894 0.78809 0.0
C955 C 0.25103 0.5781 0.77402 0.0
C956 C 0.24039 0.55756 0.76321 0.0
C957 C 0.17587 0.5451 0.67975 0.0
C958 C 0.19015 0.52923 0.66716 0.0
C959 C 0.17542 0.53848 0.69832 0.0
C960 C 0.18912 0.51582 0.70464 0.0
C961 C 0.20276 0.49944 0.69205 0.0
C962 C 0.2032 0.50604 0.67341 0.0
C963 C 0.19049 0.51041 0.72455 0.0
C964 C 0.20191 0.52981 0.73606 0.0
C965 C 0.18036 0.48659 0.73222 0.0
C966 C 0.16618 0.46656 0.72094 0.0
C967 C 0.1792 0.44303 0.71532 0.0
C968 C 0.16551 0.42403 0.70479 0.0
C969 C 0.1387 0.42823 0.70009 0.0
C970 C 0.12557 0.45149 0.70585 0.0
C971 C 0.13929 0.47072 0.71615 0.0
H972 H 0.12808 0.41342 0.69205 0.0
H973 H 0.244 0.60527 0.79646 0.0
H974 H 0.57268 0.20135 0.3076 0.0
H975 H 0.55976 0.20199 0.27526 0.0
H976 H 0.47654 0.20669 0.29082 0.0
H977 H 0.48937 0.20653 0.32333 0.0
H978 H 0.49038 0.1661 0.26331 0.0
H979 H 0.50224 0.2603 0.27612 0.0
H980 H 0.52729 0.29947 0.28752 0.0
H981 H 0.59005 0.28399 0.24862 0.0
H982 H 0.56553 0.24446 0.23716 0.0
H983 H 0.43303 0.19412 0.17759 0.0
H984 H 0.44666 0.19494 0.20966 0.0
H985 H 0.52847 0.2095 0.19329 0.0
H986 H 0.51468 0.20957 0.16101 0.0
H987 H 0.51647 0.23992 0.22141 0.0
H988 H 0.50715 0.14708 0.20816 0.0
H989 H 0.48528 0.10602 0.1968 0.0
H990 H 0.42206 0.11599 0.23619 0.0
H991 H 0.44334 0.15736 0.24761 0.0
C992 C 0.55162 0.20259 0.30414 0.0
C993 C 0.53199 0.20392 0.31795 0.0
C994 C 0.54431 0.20301 0.28569 0.0
C995 C 0.51724 0.20448 0.28072 0.0
C996 C 0.49754 0.20559 0.29445 0.0
C997 C 0.50488 0.20559 0.31296 0.0
C998 C 0.50961 0.20452 0.26114 0.0
C999 C 0.49567 0.18239 0.25416 0.0
C1000 C 0.51755 0.22532 0.24917 0.0
C1001 C 0.53217 0.24926 0.25591 0.0
C1002 C 0.52148 0.26511 0.2701 0.0
C1003 C 0.53557 0.28741 0.27655 0.0
C1004 C 0.56028 0.29417 0.26884 0.0
C1005 C 0.57092 0.2787 0.2546 0.0
C1006 C 0.55692 0.25637 0.24811 0.0
C1007 C 0.45395 0.19746 0.1808 0.0
C1008 C 0.47284 0.20165 0.1668 0.0
C1009 C 0.46174 0.1978 0.19915 0.0
C1010 C 0.48868 0.2018 0.20391 0.0
C1011 C 0.50758 0.20629 0.18995 0.0
C1012 C 0.49971 0.20626 0.17152 0.0
C1013 C 0.49689 0.20155 0.22348 0.0
C1014 C 0.51108 0.22358 0.23049 0.0
C1015 C 0.48959 0.18039 0.23543 0.0
C1016 C 0.47672 0.15548 0.22863 0.0
C1017 C 0.48847 0.14064 0.21431 0.0
C1018 C 0.4762 0.11729 0.20787 0.0
C1019 C 0.45226 0.10844 0.21574 0.0
C1020 C 0.44058 0.12289 0.23009 0.0
C1021 C 0.45276 0.14628 0.23656 0.0
H1022 H 0.44279 0.09035 0.21074 0.0
H1023 H 0.57117 0.31143 0.27386 0.0
H1024 H 0.23405 0.54286 0.91752 0.0
H1025 H 0.23942 0.54694 0.95087 0.0
H1026 H 0.22569 0.46215 0.95674 0.0
H1027 H 0.22068 0.45769 0.92372 0.0
H1028 H 0.18985 0.49722 0.97679 0.0
H1029 H 0.28421 0.48225 0.96456 0.0
H1030 H 0.32786 0.49276 0.95047 0.0
H1031 H 0.3278 0.56981 0.97669 0.0
H1032 H 0.28392 0.55989 0.99075 0.0
H1033 H 0.21301 0.45308 0.06476 0.0
H1034 H 0.22005 0.46063 0.03217 0.0
H1035 H 0.23458 0.54443 0.04238 0.0
H1036 H 0.22739 0.5372 0.0753 0.0
H1037 H 0.26968 0.51879 0.01453 0.0
H1038 H 0.17755 0.53316 0.02866 0.0
H1039 H 0.13394 0.52329 0.04302 0.0
H1040 H 0.12902 0.44953 0.01287 0.0
H1041 H 0.17286 0.45873 -0.00145 0.0
C1042 C 0.23269 0.525 0.92587 0.0
C1043 C 0.22656 0.5 0.91792 0.0
C1044 C 0.23581 0.52739 0.9449 0.0
C1045 C 0.23274 0.50486 0.95618 0.0
C1046 C 0.22799 0.47977 0.94822 0.0
C1047 C 0.22513 0.47731 0.9293 0.0
C1048 C 0.23174 0.50743 0.97636 0.0
C1049 C 0.20732 0.50186 0.98504 0.0
C1050 C 0.25432 0.51449 0.987 0.0
C1051 C 0.28061 0.52048 0.97849 0.0
C1052 C 0.29334 0.50156 0.96715 0.0
C1053 C 0.31817 0.50737 0.95921 0.0
C1054 C 0.33055 0.53198 0.96262 0.0
C1055 C 0.31816 0.55079 0.97402 0.0
C1056 C 0.29332 0.54508 0.98198 0.0
C1057 C 0.21798 0.47313 0.06022 0.0
C1058 C 0.21925 0.49462 0.07269 0.0
C1059 C 0.22206 0.47736 0.04155 0.0
C1060 C 0.22755 0.50311 0.03491 0.0
C1061 C 0.23034 0.52442 0.0473 0.0
C1062 C 0.22611 0.52024 0.06608 0.0
C1063 C 0.228 0.50765 0.01488 0.0
C1064 C 0.25214 0.51463 0.00624 0.0
C1065 C 0.20508 0.50214 0.00416 0.0
C1066 C 0.17861 0.49654 0.01265 0.0
C1067 C 0.16729 0.51472 0.02521 0.0
C1068 C 0.14251 0.50926 0.03332 0.0
C1069 C 0.12874 0.48577 0.02889 0.0
C1070 C 0.13972 0.46771 0.0163 0.0
C1071 C 0.16453 0.47305 0.00817 0.0
H1072 H 0.10955 0.48159 0.03518 0.0
H1073 H 0.34978 0.53643 0.95648 0.0
H1074 H 0.47361 0.24537 0.4116 0.0
H1075 H 0.46663 0.25241 0.44474 0.0
H1076 H 0.51767 0.18491 0.45637 0.0
H1077 H 0.52555 0.17846 0.42356 0.0
H1078 H 0.46126 0.19166 0.47643 0.0
H1079 H 0.54995 0.23066 0.46192 0.0
H1080 H 0.57838 0.26124 0.44383 0.0
H1081 H 0.52907 0.32777 0.45987 0.0
H1082 H 0.50008 0.29741 0.4778 0.0
H1083 H 0.54508 0.21407 0.56155 0.0
H1084 H 0.53749 0.2204 0.52892 0.0
H1085 H 0.45309 0.23183 0.53893 0.0
H1086 H 0.46039 0.22497 0.57181 0.0
H1087 H 0.51815 0.2595 0.50745 0.0
H1088 H 0.41958 0.20235 0.50275 0.0
H1089 H 0.3929 0.16943 0.5202 0.0
H1090 H 0.46495 0.13587 0.54261 0.0
H1091 H 0.49203 0.16841 0.52513 0.0
C1092 C 0.48316 0.232 0.42128 0.0
C1093 C 0.50026 0.21152 0.41512 0.0
C1094 C 0.47914 0.23601 0.44011 0.0
C1095 C 0.4916 0.21908 0.45285 0.0
C1096 C 0.50785 0.19806 0.44667 0.0
C1097 C 0.51245 0.19454 0.42798 0.0
C1098 C 0.48932 0.22393 0.47275 0.0
C1099 C 0.47324 0.20682 0.48325 0.0
C1100 C 0.50515 0.24352 0.48152 0.0
C1101 C 0.52269 0.26177 0.47096 0.0
C1102 C 0.54504 0.25177 0.46142 0.0
C1103 C 0.56128 0.26906 0.45124 0.0
C1104 C 0.55549 0.29643 0.45065 0.0
C1105 C 0.53349 0.30656 0.4603 0.0
C1106 C 0.51715 0.28933 0.47047 0.0
C1107 C 0.52487 0.21811 0.55692 0.0
C1108 C 0.50328 0.21861 0.56933 0.0
C1109 C 0.52061 0.22193 0.53822 0.0
C1110 C 0.49471 0.22633 0.53146 0.0
C1111 C 0.47322 0.22815 0.54385 0.0
C1112 C 0.47745 0.22425 0.56263 0.0
C1113 C 0.49039 0.22686 0.51135 0.0
C1114 C 0.50535 0.24494 0.50071 0.0
C1115 C 0.47369 0.20792 0.50247 0.0
C1116 C 0.45775 0.18798 0.51282 0.0
C1117 C 0.4297 0.18788 0.51137 0.0
C1118 C 0.41452 0.16931 0.52126 0.0
C1119 C 0.42722 0.15063 0.53255 0.0
C1120 C 0.45514 0.15041 0.53391 0.0
C1121 C 0.4704 0.16892 0.52402 0.0
H1122 H 0.41543 0.1363 0.54022 0.0
H1123 H 0.56808 0.30978 0.44276 0.0
H1124 H 0.78278 0.54527 0.06322 0.0
H1125 H 0.77504 0.53701 0.03074 0.0
H1126 H 0.78173 0.45192 0.03975 0.0
H1127 H 0.78968 0.45997 0.07246 0.0
H1128 H 0.81274 0.46937 0.01105 0.0
H1129 H 0.7219 0.47764 0.02992 0.0
H1130 H 0.68327 0.49796 0.04576 0.0
H1131 H 0.69118 0.56877 0.01287 0.0
H1132 H 0.73024 0.54915 -0.00291 0.0
H1133 H 0.78884 0.4559 0.91528 0.0
H1134 H 0.78082 0.44957 0.94814 0.0
H1135 H 0.77279 0.535 0.95508 0.0
H1136 H 0.7804 0.54153 0.92241 0.0
H1137 H 0.73694 0.50815 0.97605 0.0
H1138 H 0.8321 0.50462 0.96262 0.0
H1139 H 0.87234 0.48673 0.94722 0.0
H1140 H 0.85707 0.40908 0.97021 0.0
H1141 H 0.81653 0.42646 0.98557 0.0
C1142 C 0.78244 0.52475 0.05839 0.0
C1143 C 0.78696 0.50328 0.07046 0.0
C1144 C 0.77781 0.52007 0.03981 0.0
C1145 C 0.77754 0.49384 0.03288 0.0
C1146 C 0.78173 0.4723 0.04487 0.0
C1147 C 0.78621 0.47695 0.06355 0.0
C1148 C 0.77459 0.48936 0.01291 0.0
C1149 C 0.79583 0.4772 0.00342 0.0
C1150 C 0.75274 0.50005 0.00298 0.0
C1151 C 0.72914 0.51194 0.01238 0.0
C1152 C 0.71556 0.49764 0.02616 0.0
C1153 C 0.69358 0.50904 0.03513 0.0
C1154 C 0.68484 0.53468 0.03037 0.0
C1155 C 0.69803 0.54895 0.01659 0.0
C1156 C 0.72008 0.53768 0.0076 0.0
C1157 C 0.78493 0.4733 0.92375 0.0
C1158 C 0.78561 0.49925 0.91625 0.0
C1159 C 0.78043 0.46964 0.94252 0.0
C1160 C 0.77655 0.49185 0.95405 0.0
C1161 C 0.77576 0.51759 0.94642 0.0
C1162 C 0.78031 0.52128 0.92774 0.0
C1163 C 0.7754 0.48884 0.97424 0.0
C1164 C 0.75346 0.49965 0.98374 0.0
C1165 C 0.79672 0.47717 0.98421 0.0
C1166 C 0.82112 0.46674 0.97504 0.0
C1167 C 0.83722 0.48368 0.96427 0.0
C1168 C 0.86009 0.47365 0.95557 0.0
C1169 C 0.8672 0.44676 0.95768 0.0
C1170 C 0.8515 0.42988 0.96855 0.0
C1171 C 0.82858 0.43981 0.97726 0.0
H1172 H 0.88492 0.43904 0.95094 0.0
H1173 H 0.66781 0.54348 0.03732 0.0
H1174 H 0.53802 0.7756 0.57538 0.0
H1175 H 0.54481 0.76656 0.54272 0.0
H1176 H 0.4597 0.77285 0.53359 0.0
H1177 H 0.45263 0.78147 0.56612 0.0
H1178 H 0.48157 0.73319 0.51293 0.0
H1179 H 0.50056 0.82652 0.52729 0.0
H1180 H 0.52439 0.86279 0.5435 0.0
H1181 H 0.59942 0.83408 0.52237 0.0
H1182 H 0.57602 0.79743 0.50622 0.0
H1183 H 0.45671 0.78491 0.42578 0.0
H1184 H 0.46229 0.7748 0.45814 0.0
H1185 H 0.54796 0.77087 0.45088 0.0
H1186 H 0.54262 0.78142 0.41827 0.0
H1187 H 0.53448 0.80187 0.47966 0.0
H1188 H 0.51295 0.71391 0.45986 0.0
H1189 H 0.48789 0.67909 0.44311 0.0
H1190 H 0.41696 0.69801 0.47386 0.0
H1191 H 0.44148 0.73321 0.49063 0.0
C1192 C 0.52069 0.77464 0.56649 0.0
C1193 C 0.4948 0.77963 0.57336 0.0
C1194 C 0.52463 0.76953 0.54781 0.0
C1195 C 0.50279 0.76941 0.53571 0.0
C1196 C 0.47685 0.77288 0.54269 0.0
C1197 C 0.47287 0.77798 0.56131 0.0
C1198 C 0.50682 0.76792 0.51559 0.0
C1199 C 0.49314 0.74816 0.50562 0.0
C1200 C 0.52257 0.78701 0.50612 0.0
C1201 C 0.5366 0.80907 0.51576 0.0
C1202 C 0.52216 0.82784 0.52623 0.0
C1203 C 0.53558 0.84847 0.53538 0.0
C1204 C 0.56341 0.85068 0.53402 0.0
C1205 C 0.57787 0.83231 0.52345 0.0
C1206 C 0.56454 0.81161 0.51429 0.0
C1207 C 0.47678 0.78171 0.43095 0.0
C1208 C 0.49923 0.78412 0.41939 0.0
C1209 C 0.47991 0.77569 0.44948 0.0
C1210 C 0.50552 0.77173 0.45689 0.0
C1211 C 0.528 0.7737 0.4454 0.0
C1212 C 0.5249 0.7797 0.42677 0.0
C1213 C 0.50854 0.76761 0.47691 0.0
C1214 C 0.52351 0.78638 0.48691 0.0
C1215 C 0.49389 0.74766 0.48637 0.0
C1216 C 0.47906 0.7263 0.47646 0.0
C1217 C 0.49197 0.71076 0.46298 0.0
C1218 C 0.47786 0.69093 0.45349 0.0
C1219 C 0.45085 0.68636 0.45741 0.0
C1220 C 0.4379 0.70156 0.47085 0.0
C1221 C 0.45191 0.72142 0.48038 0.0
H1222 H 0.43995 0.67101 0.45003 0.0
H1223 H 0.57376 0.86667 0.54111 0.0
H1224 H 0.22598 0.46326 0.41601 0.0
H1225 H 0.23684 0.45755 0.44851 0.0
H1226 H 0.23325 0.54312 0.4563 0.0
H1227 H 0.22275 0.5491 0.42396 0.0
H1228 H 0.27446 0.52065 0.47558 0.0
H1229 H 0.17938 0.50421 0.46547 0.0
H1230 H 0.14129 0.48069 0.45117 0.0
H1231 H 0.16964 0.40586 0.47266 0.0
H1232 H 0.20812 0.42894 0.4869 0.0
H1233 H 0.22911 0.54955 0.56489 0.0
H1234 H 0.23904 0.54339 0.53243 0.0
H1235 H 0.23975 0.4577 0.53985 0.0
H1236 H 0.22955 0.46362 0.57241 0.0
H1237 H 0.2071 0.47172 0.51271 0.0
H1238 H 0.29642 0.49109 0.52913 0.0
H1239 H 0.33443 0.51486 0.54323 0.0
H1240 H 0.31846 0.58377 0.50983 0.0
H1241 H 0.27977 0.56084 0.496 0.0
C1242 C 0.22783 0.48089 0.42458 0.0
C1243 C 0.22314 0.50662 0.4174 0.0
C1244 C 0.23401 0.47757 0.44315 0.0
C1245 C 0.23556 0.4999 0.45484 0.0
C1246 C 0.23215 0.52562 0.44752 0.0
C1247 C 0.22594 0.52897 0.42902 0.0
C1248 C 0.23868 0.49669 0.47493 0.0
C1249 C 0.25976 0.51004 0.48378 0.0
C1250 C 0.21997 0.48203 0.48548 0.0
C1251 C 0.19676 0.46823 0.47705 0.0
C1252 C 0.17758 0.48271 0.46703 0.0
C1253 C 0.15591 0.46947 0.45896 0.0
C1254 C 0.15309 0.44178 0.46096 0.0
C1255 C 0.17189 0.42729 0.47109 0.0
C1256 C 0.19362 0.44044 0.47917 0.0
C1257 C 0.23178 0.52937 0.55973 0.0
C1258 C 0.22825 0.50707 0.57126 0.0
C1259 C 0.23768 0.52589 0.54115 0.0
C1260 C 0.24026 0.50008 0.53371 0.0
C1261 C 0.23788 0.4778 0.54532 0.0
C1262 C 0.23209 0.48125 0.56394 0.0
C1263 C 0.24245 0.49651 0.51356 0.0
C1264 C 0.22228 0.48188 0.50463 0.0
C1265 C 0.26201 0.51007 0.50299 0.0
C1266 C 0.28496 0.52425 0.51161 0.0
C1267 C 0.30073 0.51145 0.52497 0.0
C1268 C 0.32244 0.52479 0.53292 0.0
C1269 C 0.32879 0.55085 0.52749 0.0
C1270 C 0.31346 0.56362 0.51409 0.0
C1271 C 0.29159 0.55048 0.50621 0.0
H1272 H 0.34564 0.56113 0.53364 0.0
H1273 H 0.13631 0.43157 0.45469 0.0
H1274 H 0.52915 0.23898 0.91125 0.0
H1275 H 0.53481 0.25005 0.94384 0.0
H1276 H 0.46459 0.20325 0.95685 0.0
H1277 H 0.45812 0.19349 0.92456 0.0
H1278 H 0.46367 0.24496 0.97685 0.0
H1279 H 0.53484 0.18042 0.96049 0.0
H1280 H 0.57533 0.16668 0.94344 0.0
H1281 H 0.6174 0.23561 0.96377 0.0
H1282 H 0.57707 0.24983 0.98081 0.0
H1283 H 0.46992 0.18517 0.06053 0.0
H1284 H 0.4754 0.19364 0.02791 0.0
H1285 H 0.53788 0.2509 0.03944 0.0
H1286 H 0.53313 0.24169 0.07247 0.0
H1287 H 0.54794 0.21845 0.00799 0.0
H1288 H 0.47845 0.27584 0.03031 0.0
H1289 H 0.43989 0.28218 0.05103 0.0
H1290 H 0.39496 0.22384 0.02064 0.0
H1291 H 0.43337 0.21688 -0.00016 0.0
C1292 C 0.51488 0.23125 0.92111 0.0
C1293 C 0.49324 0.21531 0.91535 0.0
C1294 C 0.51817 0.2375 0.93973 0.0
C1295 C 0.50033 0.22722 0.95292 0.0
C1296 C 0.47856 0.21163 0.94703 0.0
C1297 C 0.47493 0.20594 0.9285 0.0
C1298 C 0.50434 0.23138 0.97294 0.0
C1299 C 0.48219 0.23933 0.98358 0.0
C1300 C 0.52875 0.22499 0.98189 0.0
C1301 C 0.55291 0.21632 0.97172 0.0
C1302 C 0.5527 0.19268 0.96123 0.0
C1303 C 0.57562 0.18481 0.95159 0.0
C1304 C 0.5989 0.20031 0.95247 0.0
C1305 C 0.59935 0.22366 0.96306 0.0
C1306 C 0.57648 0.23162 0.97271 0.0
C1307 C 0.48492 0.19952 0.05618 0.0
C1308 C 0.50078 0.21313 0.06905 0.0
C1309 C 0.48806 0.2043 0.03753 0.0
C1310 C 0.50659 0.22336 0.03131 0.0
C1311 C 0.52334 0.23625 0.04401 0.0
C1312 C 0.52054 0.23106 0.06282 0.0
C1313 C 0.5069 0.23045 0.0116 0.0
C1314 C 0.52978 0.22492 0.00114 0.0
C1315 C 0.48319 0.23899 0.00277 0.0
C1316 C 0.45882 0.24581 0.01353 0.0
C1317 C 0.46023 0.26458 0.02791 0.0
C1318 C 0.43847 0.26817 0.03974 0.0
C1319 C 0.41512 0.25323 0.03725 0.0
C1320 C 0.41314 0.2353 0.02258 0.0
C1321 C 0.43486 0.23161 0.01071 0.0
H1322 H 0.39864 0.25549 0.04677 0.0
H1323 H 0.61661 0.19419 0.94499 0.0
H1324 H 0.79271 0.45674 0.42363 0.0
H1325 H 0.78505 0.46405 0.45611 0.0
H1326 H 0.77365 0.54849 0.44641 0.0
H1327 H 0.78191 0.54147 0.41359 0.0
H1328 H 0.80671 0.5397 0.47506 0.0
H1329 H 0.72003 0.50939 0.45778 0.0
H1330 H 0.68721 0.48025 0.44228 0.0
H1331 H 0.71408 0.41306 0.474 0.0
H1332 H 0.74731 0.44168 0.48953 0.0
H1333 H 0.78351 0.54153 0.57248 0.0
H1334 H 0.77512 0.54851 0.53972 0.0
H1335 H 0.78644 0.46406 0.52983 0.0
H1336 H 0.79431 0.45679 0.56229 0.0
H1337 H 0.7445 0.48261 0.51094 0.0
H1338 H 0.83674 0.51032 0.52255 0.0
H1339 H 0.87137 0.53809 0.53742 0.0
H1340 H 0.83467 0.60921 0.51595 0.0
H1341 H 0.79962 0.58184 0.50114 0.0
C1342 C 0.78841 0.4769 0.42827 0.0
C1343 C 0.78795 0.49852 0.41593 0.0
C1344 C 0.78382 0.48101 0.4469 0.0
C1345 C 0.77832 0.50674 0.45366 0.0
C1346 C 0.77769 0.52843 0.44144 0.0
C1347 C 0.78236 0.52436 0.4227 0.0
C1348 C 0.77478 0.51073 0.47366 0.0
C1349 C 0.79261 0.52777 0.4829 0.0
C1350 C 0.75655 0.49496 0.48388 0.0
C1351 C 0.73623 0.47772 0.4748 0.0
C1352 C 0.71902 0.48838 0.46141 0.0
C1353 C 0.70033 0.47195 0.45261 0.0
C1354 C 0.69857 0.44482 0.45714 0.0
C1355 C 0.71544 0.43408 0.47052 0.0
C1356 C 0.73417 0.45042 0.47935 0.0
C1357 C 0.78404 0.52443 0.56334 0.0
C1358 C 0.78978 0.49862 0.57004 0.0
C1359 C 0.77929 0.52848 0.54462 0.0
C1360 C 0.78035 0.50683 0.53233 0.0
C1361 C 0.78544 0.48105 0.53907 0.0
C1362 C 0.7901 0.47697 0.55768 0.0
C1363 C 0.77721 0.51064 0.5123 0.0
C1364 C 0.75805 0.49512 0.50307 0.0
C1365 C 0.79429 0.52769 0.50211 0.0
C1366 C 0.81539 0.54408 0.51095 0.0
C1367 C 0.83595 0.53189 0.52113 0.0
C1368 C 0.85567 0.54755 0.52952 0.0
C1369 C 0.85517 0.5754 0.52769 0.0
C1370 C 0.83499 0.58764 0.5174 0.0
C1371 C 0.81521 0.57207 0.509 0.0
H1372 H 0.87045 0.5875 0.53419 0.0
H1373 H 0.68412 0.43213 0.4503 0.0
H1374 H 0.54509 0.78091 0.06683 0.0
H1375 H 0.53749 0.77643 0.03403 0.0
H1376 H 0.45216 0.78016 0.04273 0.0
H1377 H 0.45951 0.78471 0.07588 0.0
H1378 H 0.47118 0.7423 0.01353 0.0
H1379 H 0.4759 0.8344 0.03169 0.0
H1380 H 0.49471 0.87291 0.0485 0.0
H1381 H 0.56933 0.86361 0.01985 0.0
H1382 H 0.55109 0.82473 0.00308 0.0
H1383 H 0.4593 0.78462 0.9176 0.0
H1384 H 0.45284 0.77967 0.9508 0.0
H1385 H 0.53834 0.7826 0.95877 0.0
H1386 H 0.54508 0.78743 0.92594 0.0
H1387 H 0.51038 0.81935 0.97993 0.0
H1388 H 0.50647 0.72525 0.96357 0.0
H1389 H 0.48812 0.68601 0.94731 0.0
H1390 H 0.41136 0.69935 0.97232 0.0
H1391 H 0.42919 0.73892 0.98855 0.0
C1392 C 0.52464 0.78042 0.0619 0.0
C1393 C 0.50291 0.78368 0.07398 0.0
C1394 C 0.52036 0.77773 0.04313 0.0
C1395 C 0.49431 0.77832 0.03601 0.0
C1396 C 0.47241 0.77968 0.04804 0.0
C1397 C 0.47668 0.78237 0.06694 0.0
C1398 C 0.49065 0.78062 0.01596 0.0
C1399 C 0.47921 0.75934 0.00613 0.0
C1400 C 0.50126 0.80285 0.00642 0.0
C1401 C 0.51218 0.82654 0.01622 0.0
C1402 C 0.49638 0.84045 0.02906 0.0
C1403 C 0.50693 0.86236 0.03857 0.0
C1404 C 0.53321 0.87068 0.03527 0.0
C1405 C 0.54897 0.85714 0.0224 0.0
C1406 C 0.53853 0.83518 0.01287 0.0
C1407 C 0.47673 0.7839 0.92641 0.0
C1408 C 0.5027 0.78671 0.91907 0.0
C1409 C 0.47298 0.78101 0.94535 0.0
C1410 C 0.49512 0.7809 0.95719 0.0
C1411 C 0.521 0.7828 0.94985 0.0
C1412 C 0.52477 0.78556 0.93103 0.0
C1413 C 0.49175 0.78061 0.97734 0.0
C1414 C 0.50184 0.80247 0.98725 0.0
C1415 C 0.47977 0.75899 0.98684 0.0
C1416 C 0.46906 0.73525 0.97707 0.0
C1417 C 0.48561 0.71999 0.96545 0.0
C1418 C 0.47532 0.69764 0.95628 0.0
C1419 C 0.44856 0.69025 0.95873 0.0
C1420 C 0.43206 0.70514 0.9704 0.0
C1421 C 0.44225 0.72752 0.9796 0.0
H1422 H 0.44063 0.67294 0.95162 0.0
H1423 H 0.54135 0.88764 0.04265 0.0
H1424 H 0.19936 0.36058 0.10396 0.0
H1425 H 0.22711 0.32104 0.09689 0.0
H1426 H 0.29806 0.37023 0.09882 0.0
H1427 H 0.27078 0.4093 0.10612 0.0
H1428 H 0.29733 0.33398 0.06896 0.0
H1429 H 0.2822 0.33587 0.13507 0.0
H1430 H 0.25361 0.33538 0.16268 0.0
H1431 H 0.22029 0.25982 0.14617 0.0
H1432 H 0.24845 0.26007 0.11831 0.0
H1433 H 0.41333 0.2692 0.09724 0.0
H1434 H 0.37333 0.29531 0.09069 0.0
H1435 H 0.32497 0.22394 0.09471 0.0
H1436 H 0.36544 0.19745 0.10126 0.0
H1437 H 0.30589 0.26341 0.11642 0.0
H1438 H 0.32462 0.25794 0.05247 0.0
H1439 H 0.35077 0.25872 0.02374 0.0
H1440 H 0.37629 0.33909 0.03534 0.0
H1441 H 0.34988 0.33895 0.06398 0.0
C1442 C 0.22084 0.3629 0.10266 0.0
C1443 C 0.23294 0.38795 0.1057 0.0
C1444 C 0.23665 0.34036 0.09868 0.0
C1445 C 0.26466 0.34273 0.09738 0.0
C1446 C 0.27651 0.36795 0.0997 0.0
C1447 C 0.26088 0.39024 0.10397 0.0
C1448 C 0.28219 0.31904 0.09462 0.0
C1449 C 0.29915 0.31846 0.07928 0.0
C1450 C 0.28398 0.29832 0.10778 0.0
C1451 C 0.26711 0.29817 0.1245 0.0
C1452 C 0.26858 0.31928 0.13725 0.0
C1453 C 0.2525 0.31902 0.15295 0.0
C1454 C 0.23507 0.29763 0.15614 0.0
C1455 C 0.23374 0.27641 0.14366 0.0
C1456 C 0.24975 0.2766 0.12791 0.0
C1457 C 0.39426 0.25892 0.0964 0.0
C1458 C 0.39247 0.23131 0.09991 0.0
C1459 C 0.37137 0.27386 0.09247 0.0
C1460 C 0.34607 0.26162 0.09204 0.0
C1461 C 0.34429 0.2338 0.09485 0.0
C1462 C 0.36739 0.21868 0.09856 0.0
C1463 C 0.32169 0.27872 0.09097 0.0
C1464 C 0.30354 0.27829 0.10571 0.0
C1465 C 0.31867 0.29843 0.07719 0.0
C1466 C 0.33539 0.29837 0.06038 0.0
C1467 C 0.33591 0.27572 0.04892 0.0
C1468 C 0.35057 0.27614 0.03258 0.0
C1469 C 0.36517 0.29894 0.02771 0.0
C1470 C 0.36496 0.32145 0.03911 0.0
C1471 C 0.34999 0.32129 0.05533 0.0
H1472 H 0.3767 0.29912 0.01513 0.0
H1473 H 0.22264 0.29746 0.16832 0.0
H1474 H 0.80192 0.3621 0.61072 0.0
H1475 H 0.77244 0.32308 0.60655 0.0
H1476 H 0.70982 0.37523 0.58685 0.0
H1477 H 0.73866 0.41396 0.59179 0.0
H1478 H 0.69234 0.34676 0.614 0.0
H1479 H 0.74429 0.32714 0.55919 0.0
H1480 H 0.786 0.31732 0.54231 0.0
H1481 H 0.799 0.24779 0.57573 0.0
H1482 H 0.75752 0.25738 0.59295 0.0
H1483 H 0.58897 0.26445 0.58978 0.0
H1484 H 0.62816 0.29288 0.58509 0.0
H1485 H 0.67888 0.23119 0.60761 0.0
H1486 H 0.63949 0.202 0.61146 0.0
H1487 H 0.70557 0.26059 0.58128 0.0
H1488 H 0.65445 0.27898 0.6355 0.0
H1489 H 0.61338 0.28813 0.65325 0.0
H1490 H 0.60035 0.36008 0.62233 0.0
H1491 H 0.64114 0.35116 0.6042 0.0
C1492 C 0.78209 0.36499 0.60505 0.0
C1493 C 0.77239 0.39092 0.60168 0.0
C1494 C 0.76527 0.34273 0.60265 0.0
C1495 C 0.7388 0.34619 0.59645 0.0
C1496 C 0.73002 0.37202 0.59181 0.0
C1497 C 0.74651 0.39415 0.59458 0.0
C1498 C 0.71902 0.3239 0.59678 0.0
C1499 C 0.69517 0.32811 0.60658 0.0
C1500 C 0.72315 0.29896 0.58793 0.0
C1501 C 0.74794 0.29312 0.57746 0.0
C1502 C 0.75614 0.30986 0.56302 0.0
C1503 C 0.77972 0.30432 0.55337 0.0
C1504 C 0.79517 0.28198 0.55797 0.0
C1505 C 0.78703 0.26509 0.57219 0.0
C1506 C 0.76347 0.27056 0.58188 0.0
C1507 C 0.60859 0.25669 0.59323 0.0
C1508 C 0.61132 0.23123 0.6011 0.0
C1509 C 0.63095 0.27294 0.59062 0.0
C1510 C 0.65635 0.26446 0.59649 0.0
C1511 C 0.65945 0.23819 0.60308 0.0
C1512 C 0.63701 0.22156 0.60528 0.0
C1513 C 0.67855 0.28422 0.5977 0.0
C1514 C 0.70285 0.27935 0.58856 0.0
C1515 C 0.67507 0.30864 0.60731 0.0
C1516 C 0.65076 0.3143 0.61842 0.0
C1517 C 0.64276 0.29669 0.63243 0.0
C1518 C 0.61953 0.30183 0.64256 0.0
C1519 C 0.60424 0.32465 0.6389 0.0
C1520 C 0.6122 0.34241 0.62514 0.0
C1521 C 0.63539 0.33733 0.61495 0.0
H1522 H 0.58625 0.32859 0.64675 0.0
H1523 H 0.81343 0.27773 0.5505 0.0
H1524 H 0.73129 0.59191 0.10127 0.0
H1525 H 0.70497 0.63181 0.09484 0.0
H1526 H 0.77688 0.6797 0.09484 0.0
H1527 H 0.80365 0.63932 0.10126 0.0
H1528 H 0.73653 0.70035 0.11727 0.0
H1529 H 0.74459 0.67256 0.05536 0.0
H1530 H 0.74468 0.64087 0.02942 0.0
H1531 H 0.66145 0.6239 0.03863 0.0
H1532 H 0.66092 0.65522 0.06481 0.0
H1533 H 0.63879 0.80482 0.10318 0.0
H1534 H 0.67875 0.77769 0.09609 0.0
H1535 H 0.63037 0.70612 0.09699 0.0
H1536 H 0.59091 0.7328 0.10423 0.0
H1537 H 0.66745 0.70581 0.06855 0.0
H1538 H 0.66328 0.72336 0.13415 0.0
H1539 H 0.66225 0.75261 0.16142 0.0
H1540 H 0.73771 0.78701 0.14575 0.0
H1541 H 0.73897 0.75816 0.11823 0.0
C1542 C 0.74163 0.61084 0.09964 0.0
C1543 C 0.76954 0.61251 0.10181 0.0
C1544 C 0.72654 0.63364 0.09586 0.0
C1545 C 0.73895 0.65874 0.0942 0.0
C1546 C 0.76694 0.66049 0.09596 0.0
C1547 C 0.78219 0.63745 0.09954 0.0
C1548 C 0.72199 0.683 0.09211 0.0
C1549 C 0.72199 0.70207 0.10628 0.0
C1550 C 0.7027 0.68497 0.07796 0.0
C1551 C 0.70275 0.66624 0.06211 0.0
C1552 C 0.72633 0.66197 0.05193 0.0
C1553 C 0.72646 0.64408 0.03717 0.0
C1554 C 0.70309 0.63038 0.03238 0.0
C1555 C 0.67953 0.63456 0.04234 0.0
C1556 C 0.67929 0.65244 0.05712 0.0
C1557 C 0.63673 0.78335 0.10156 0.0
C1558 C 0.61183 0.77087 0.1044 0.0
C1559 C 0.65951 0.7679 0.09757 0.0
C1560 C 0.65753 0.73986 0.09608 0.0
C1561 C 0.63239 0.72769 0.09801 0.0
C1562 C 0.60986 0.74297 0.10226 0.0
C1563 C 0.68155 0.72257 0.09398 0.0
C1564 C 0.6827 0.70471 0.07911 0.0
C1565 C 0.70179 0.72157 0.10753 0.0
C1566 C 0.70102 0.73893 0.12401 0.0
C1567 C 0.67951 0.73735 0.13643 0.0
C1568 C 0.67891 0.75381 0.15195 0.0
C1569 C 0.69985 0.77174 0.15528 0.0
C1570 C 0.72147 0.77318 0.14312 0.0
C1571 C 0.72213 0.75679 0.12756 0.0
H1572 H 0.69937 0.78445 0.16731 0.0
H1573 H 0.70323 0.61658 0.02093 0.0
H1574 H 0.21038 0.62555 0.58332 0.0
H1575 H 0.23614 0.66723 0.57873 0.0
H1576 H 0.27668 0.65413 0.63014 0.0
H1577 H 0.25185 0.6126 0.63449 0.0
H1578 H 0.25847 0.70805 0.62463 0.0
H1579 H 0.30818 0.63636 0.59504 0.0
H1580 H 0.31335 0.59934 0.57289 0.0
H1581 H 0.29687 0.65319 0.52845 0.0
H1582 H 0.2912 0.6905 0.55041 0.0
H1583 H 0.39078 0.74809 0.63317 0.0
H1584 H 0.34965 0.72311 0.62792 0.0
H1585 H 0.33252 0.77168 0.58052 0.0
H1586 H 0.37396 0.79757 0.586 0.0
H1587 H 0.3303 0.70909 0.57753 0.0
H1588 H 0.29295 0.78363 0.6098 0.0
H1589 H 0.29134 0.81812 0.634 0.0
H1590 H 0.28737 0.75691 0.67522 0.0
H1591 H 0.28938 0.72203 0.65128 0.0
C1592 C 0.22463 0.63181 0.59366 0.0
C1593 C 0.22926 0.61586 0.6092 0.0
C1594 C 0.23931 0.65551 0.59103 0.0
C1595 C 0.25823 0.66375 0.60414 0.0
C1596 C 0.26208 0.64823 0.61991 0.0
C1597 C 0.24799 0.62441 0.62232 0.0
C1598 C 0.27541 0.68762 0.60135 0.0
C1599 C 0.27394 0.70853 0.61417 0.0
C1600 C 0.29535 0.68836 0.58756 0.0
C1601 C 0.29882 0.66608 0.57435 0.0
C1602 C 0.30537 0.64023 0.58056 0.0
C1603 C 0.30845 0.61923 0.56805 0.0
C1604 C 0.3053 0.6239 0.54929 0.0
C1605 C 0.29919 0.64961 0.54299 0.0
C1606 C 0.29603 0.67069 0.55546 0.0
C1607 C 0.37828 0.75363 0.62164 0.0
C1608 C 0.38559 0.77477 0.60996 0.0
C1609 C 0.35474 0.73935 0.6187 0.0
C1610 C 0.33807 0.7456 0.60388 0.0
C1611 C 0.34518 0.76665 0.59206 0.0
C1612 C 0.3687 0.78144 0.59523 0.0
C1613 C 0.31365 0.72927 0.60104 0.0
C1614 C 0.314 0.70945 0.58738 0.0
C1615 C 0.29286 0.72933 0.61423 0.0
C1616 C 0.2914 0.75021 0.62872 0.0
C1617 C 0.29191 0.77752 0.62403 0.0
C1618 C 0.2909 0.79714 0.6377 0.0
C1619 C 0.28927 0.78971 0.65614 0.0
C1620 C 0.28861 0.76264 0.66093 0.0
C1621 C 0.28963 0.74293 0.64731 0.0
H1622 H 0.2885 0.80494 0.6667 0.0
H1623 H 0.30766 0.60763 0.53965 0.0
H1624 H 0.36676 0.8046 0.38767 0.0
H1625 H 0.32579 0.7774 0.39099 0.0
H1626 H 0.37296 0.70541 0.38586 0.0
H1627 H 0.41337 0.73205 0.3825 0.0
H1628 H 0.33185 0.70899 0.3605 0.0
H1629 H 0.34665 0.72196 0.42597 0.0
H1630 H 0.35104 0.74948 0.45392 0.0
H1631 H 0.27199 0.78106 0.4456 0.0
H1632 H 0.26728 0.75396 0.41745 0.0
H1633 H 0.2708 0.59208 0.38284 0.0
H1634 H 0.29772 0.63227 0.38674 0.0
H1635 H 0.22609 0.68046 0.38856 0.0
H1636 H 0.19863 0.6397 0.38493 0.0
H1637 H 0.27035 0.69766 0.41344 0.0
H1638 H 0.25381 0.67908 0.34994 0.0
H1639 H 0.25004 0.65009 0.32266 0.0
H1640 H 0.33317 0.62916 0.32724 0.0
H1641 H 0.33734 0.65769 0.35472 0.0
C1642 C 0.36833 0.78297 0.38761 0.0
C1643 C 0.39318 0.77044 0.38456 0.0
C1644 C 0.34497 0.76749 0.3895 0.0
C1645 C 0.34637 0.73941 0.38847 0.0
C1646 C 0.3714 0.72704 0.3865 0.0
C1647 C 0.3945 0.74234 0.38457 0.0
C1648 C 0.32205 0.72241 0.38777 0.0
C1649 C 0.31835 0.70661 0.37206 0.0
C1650 C 0.30388 0.72001 0.40258 0.0
C1651 C 0.30676 0.73623 0.41948 0.0
C1652 C 0.33031 0.73498 0.43 0.0
C1653 C 0.33284 0.75045 0.4459 0.0
C1654 C 0.31185 0.76709 0.4515 0.0
C1655 C 0.28826 0.76822 0.44123 0.0
C1656 C 0.28565 0.7528 0.42531 0.0
C1657 C 0.26066 0.61114 0.38435 0.0
C1658 C 0.23264 0.61284 0.38329 0.0
C1659 C 0.27609 0.63409 0.38664 0.0
C1660 C 0.26391 0.65935 0.38763 0.0
C1661 C 0.23583 0.66111 0.38778 0.0
C1662 C 0.22021 0.63789 0.38567 0.0
C1663 C 0.2811 0.6835 0.3865 0.0
C1664 C 0.2834 0.70063 0.40172 0.0
C1665 C 0.29814 0.68727 0.37121 0.0
C1666 C 0.29585 0.67048 0.35444 0.0
C1667 C 0.27126 0.6682 0.34519 0.0
C1668 C 0.26905 0.65185 0.32968 0.0
C1669 C 0.29135 0.63778 0.32323 0.0
C1670 C 0.31592 0.64008 0.33224 0.0
C1671 C 0.31823 0.65638 0.34777 0.0
H1672 H 0.28959 0.62511 0.31123 0.0
H1673 H 0.31383 0.77904 0.46381 0.0
H1674 H 0.40545 0.26862 0.86759 0.0
H1675 H 0.36745 0.29701 0.87464 0.0
H1676 H 0.32636 0.23008 0.89925 0.0
H1677 H 0.36485 0.20093 0.89197 0.0
H1678 H 0.29371 0.2613 0.87566 0.0
H1679 H 0.34985 0.27639 0.92734 0.0
H1680 H 0.39253 0.28456 0.94338 0.0
H1681 H 0.40152 0.3594 0.91511 0.0
H1682 H 0.35911 0.35154 0.89869 0.0
H1683 H 0.20249 0.37366 0.89151 0.0
H1684 H 0.22898 0.3332 0.89831 0.0
H1685 H 0.29912 0.37114 0.8755 0.0
H1686 H 0.27327 0.41102 0.86884 0.0
H1687 H 0.31006 0.34729 0.90793 0.0
H1688 H 0.26245 0.32597 0.85099 0.0
H1689 H 0.2216 0.31806 0.83277 0.0
H1690 H 0.19781 0.25567 0.86986 0.0
H1691 H 0.23842 0.26346 0.88842 0.0
C1692 C 0.38846 0.25976 0.87456 0.0
C1693 C 0.38826 0.23249 0.8793 0.0
C1694 C 0.36673 0.27613 0.87866 0.0
C1695 C 0.34427 0.2658 0.88776 0.0
C1696 C 0.34364 0.23847 0.89234 0.0
C1697 C 0.36561 0.2219 0.88822 0.0
C1698 C 0.32162 0.28407 0.89192 0.0
C1699 C 0.29693 0.27976 0.8832 0.0
C1700 C 0.32591 0.30823 0.90166 0.0
C1701 C 0.35123 0.31335 0.91178 0.0
C1702 C 0.36096 0.29456 0.9245 0.0
C1703 C 0.38512 0.29914 0.93366 0.0
C1704 C 0.39972 0.32249 0.93028 0.0
C1705 C 0.39016 0.34135 0.91775 0.0
C1706 C 0.36602 0.33687 0.90855 0.0
C1707 C 0.22357 0.37328 0.88802 0.0
C1708 C 0.23576 0.39553 0.87962 0.0
C1709 C 0.23865 0.35019 0.89188 0.0
C1710 C 0.26606 0.3492 0.88744 0.0
C1711 C 0.27809 0.3715 0.87919 0.0
C1712 C 0.26317 0.3943 0.8753 0.0
C1713 C 0.28278 0.32513 0.89084 0.0
C1714 C 0.30639 0.32838 0.90103 0.0
C1715 C 0.27755 0.30016 0.88235 0.0
C1716 C 0.25322 0.29554 0.87121 0.0
C1717 C 0.24838 0.31073 0.85534 0.0
C1718 C 0.22531 0.30624 0.84494 0.0
C1719 C 0.20707 0.28645 0.8502 0.0
C1720 C 0.21192 0.27104 0.86584 0.0
C1721 C 0.23495 0.27548 0.87629 0.0
H1722 H 0.18922 0.28299 0.84212 0.0
H1723 H 0.41844 0.32598 0.93736 0.0
H1724 H 0.58826 0.26831 0.39102 0.0
H1725 H 0.62814 0.29564 0.39554 0.0
H1726 H 0.67817 0.22655 0.38623 0.0
H1727 H 0.63788 0.1987 0.38195 0.0
H1728 H 0.69847 0.26758 0.41378 0.0
H1729 H 0.66864 0.25922 0.35118 0.0
H1730 H 0.6344 0.25854 0.32684 0.0
H1731 H 0.61314 0.33983 0.33947 0.0
H1732 H 0.64694 0.34083 0.36412 0.0
H1733 H 0.80253 0.363 0.38341 0.0
H1734 H 0.77402 0.32324 0.38806 0.0
H1735 H 0.7041 0.37396 0.38949 0.0
H1736 H 0.73208 0.41317 0.38469 0.0
H1737 H 0.69998 0.3351 0.3639 0.0
H1738 H 0.7265 0.34289 0.42761 0.0
H1739 H 0.75903 0.34411 0.45301 0.0
H1740 H 0.78624 0.26519 0.43876 0.0
H1741 H 0.75408 0.26365 0.4131 0.0
C1742 C 0.60771 0.25874 0.39039 0.0
C1743 C 0.61004 0.2315 0.38586 0.0
C1744 C 0.63048 0.27436 0.39305 0.0
C1745 C 0.65607 0.26319 0.39094 0.0
C1746 C 0.65856 0.2355 0.38793 0.0
C1747 C 0.63559 0.21966 0.38545 0.0
C1748 C 0.67935 0.28142 0.38909 0.0
C1749 C 0.69921 0.28204 0.4027 0.0
C1750 C 0.68015 0.30035 0.37468 0.0
C1751 C 0.66023 0.30004 0.35956 0.0
C1752 C 0.65656 0.2769 0.34883 0.0
C1753 C 0.63723 0.27646 0.33498 0.0
C1754 C 0.62158 0.29912 0.33162 0.0
C1755 C 0.62528 0.32229 0.34208 0.0
C1756 C 0.64454 0.32282 0.35598 0.0
C1757 C 0.78114 0.36558 0.38511 0.0
C1758 C 0.76946 0.39109 0.38344 0.0
C1759 C 0.76489 0.34291 0.38775 0.0
C1760 C 0.73689 0.34564 0.38893 0.0
C1761 C 0.7256 0.37133 0.38841 0.0
C1762 C 0.74165 0.39374 0.38566 0.0
C1763 C 0.71869 0.3221 0.38897 0.0
C1764 C 0.69972 0.32039 0.37484 0.0
C1765 C 0.71884 0.30236 0.40289 0.0
C1766 C 0.73814 0.3033 0.41829 0.0
C1767 C 0.73961 0.32591 0.42978 0.0
C1768 C 0.75793 0.32663 0.44425 0.0
C1769 C 0.77476 0.30478 0.44746 0.0
C1770 C 0.77324 0.28212 0.43623 0.0
C1771 C 0.75495 0.28131 0.42173 0.0
H1772 H 0.78893 0.30537 0.45867 0.0
H1773 H 0.60661 0.29873 0.3209 0.0
H1774 H 0.73354 0.58935 0.87232 0.0
H1775 H 0.70728 0.62986 0.87622 0.0
H1776 H 0.77719 0.67204 0.89545 0.0
H1777 H 0.80413 0.63099 0.8915 0.0
H1778 H 0.72366 0.68173 0.91543 0.0
H1779 H 0.76452 0.68673 0.85609 0.0
H1780 H 0.77955 0.6685 0.82637 0.0
H1781 H 0.69824 0.64988 0.81211 0.0
H1782 H 0.68275 0.6676 0.84188 0.0
H1783 H 0.6331 0.79546 0.89446 0.0
H1784 H 0.67444 0.76893 0.89788 0.0
H1785 H 0.6344 0.7003 0.8747 0.0
H1786 H 0.59347 0.72613 0.87148 0.0
H1787 H 0.68365 0.71439 0.85734 0.0
H1788 H 0.64453 0.70023 0.91779 0.0
H1789 H 0.6279 0.71515 0.94798 0.0
H1790 H 0.70467 0.74961 0.96013 0.0
H1791 H 0.72164 0.7352 0.92986 0.0
C1792 C 0.74346 0.60709 0.87755 0.0
C1793 C 0.77103 0.60703 0.8814 0.0
C1794 C 0.72834 0.63024 0.8798 0.0
C1795 C 0.74036 0.65395 0.88592 0.0
C1796 C 0.76762 0.65386 0.89068 0.0
C1797 C 0.78294 0.63048 0.88837 0.0
C1798 C 0.72419 0.67879 0.88596 0.0
C1799 C 0.71549 0.68954 0.90274 0.0
C1800 C 0.71335 0.68864 0.86938 0.0
C1801 C 0.72249 0.67844 0.85127 0.0
C1802 C 0.74986 0.67862 0.84666 0.0
C1803 C 0.75846 0.66838 0.8298 0.0
C1804 C 0.73987 0.65802 0.81737 0.0
C1805 C 0.71262 0.65794 0.82175 0.0
C1806 C 0.70391 0.66813 0.83861 0.0
C1807 C 0.63311 0.77462 0.89032 0.0
C1808 C 0.61006 0.76295 0.88261 0.0
C1809 C 0.65669 0.75955 0.89227 0.0
C1810 C 0.65745 0.73275 0.88639 0.0
C1811 C 0.63426 0.721 0.87919 0.0
C1812 C 0.61082 0.73584 0.87741 0.0
C1813 C 0.68239 0.71671 0.88681 0.0
C1814 C 0.6926 0.70748 0.87003 0.0
C1815 C 0.69445 0.70828 0.90336 0.0
C1816 C 0.68421 0.71703 0.92147 0.0
C1817 C 0.65777 0.71127 0.92681 0.0
C1818 C 0.6483 0.71956 0.94396 0.0
C1819 C 0.66519 0.73342 0.95594 0.0
C1820 C 0.69159 0.73895 0.95081 0.0
C1821 C 0.70114 0.73073 0.93367 0.0
H1822 H 0.65783 0.7398 0.96921 0.0
H1823 H 0.74657 0.65006 0.80433 0.0
loop_
_geom_bond_atom_site_label_1
_geom_bond_atom_site_label_2
_geom_bond_distance
_geom_bond_site_symmetry_2
_ccdc_geom_bond_type
Co0 O1 2.216 . S
Co0 O2 2.091 . S
Co0 O4 2.004 . S
Co0 O10 2.021 . S
Co0 O12 2.137 . S
Co0 O13 2.244 . S
O1 Co0 2.216 . S
O1 C8 1.247 . S
O2 Co0 2.091 . S
O2 C8 1.261 . S
C3 O12 1.247 . S
C3 O13 1.272 . S
O4 Co0 2.004 . S
O4 C9 1.259 . S
Co5 O6 2.061 . S
Co5 O11 2.052 . S
Co5 O13 2.135 . S
O6 Co5 2.061 . S
O6 C9 1.235 . S
C7 O10 1.238 . S
C7 O11 1.241 . S
C8 O1 1.247 . S
C8 O2 1.261 . S
C9 O4 1.259 . S
C9 O6 1.235 . S
O10 Co0 2.021 . S
O10 C7 1.238 . S
O11 Co5 2.052 . S
O11 C7 1.241 . S
O12 Co0 2.137 . S
O12 C3 1.247 . S
O13 Co0 2.244 . S
O13 C3 1.272 . S
O13 Co5 2.135 . S
Co14 O15 2.216 . S
Co14 O16 2.091 . S
Co14 O18 2.004 . S
Co14 O24 2.021 . S
Co14 O26 2.137 . S
Co14 O27 2.244 . S
O15 Co14 2.216 . S
O15 C22 1.247 . S
O16 Co14 2.091 . S
O16 C22 1.261 . S
C17 O26 1.247 . S
C17 O27 1.272 . S
O18 Co14 2.004 . S
O18 C23 1.259 . S
Co19 O20 2.061 . S
Co19 O25 2.052 . S
Co19 O27 2.135 . S
O20 Co19 2.061 . S
O20 C23 1.235 . S
C21 O24 1.238 . S
C21 O25 1.241 . S
C22 O15 1.247 . S
C22 O16 1.261 . S
C23 O18 1.259 . S
C23 O20 1.235 . S
O24 Co14 2.021 . S
O24 C21 1.238 . S
O25 Co19 2.052 . S
O25 C21 1.241 . S
O26 Co14 2.137 . S
O26 C17 1.247 . S
O27 Co14 2.244 . S
O27 C17 1.272 . S
O27 Co19 2.135 . S
Co28 O29 2.216 . S
Co28 O30 2.091 . S
Co28 O32 2.004 . S
Co28 O38 2.021 . S
Co28 O40 2.137 . S
Co28 O41 2.244 . S
O29 Co28 2.216 . S
O29 C36 1.247 . S
O30 Co28 2.091 . S
O30 C36 1.261 . S
C31 O40 1.247 . S
C31 O41 1.272 . S
O32 Co28 2.004 . S
O32 C37 1.259 . S
Co33 O34 2.061 . S
Co33 O39 2.052 . S
Co33 O41 2.135 . S
O34 Co33 2.061 . S
O34 C37 1.235 . S
C35 O38 1.238 . S
C35 O39 1.241 . S
C36 O29 1.247 . S
C36 O30 1.261 . S
C37 O32 1.259 . S
C37 O34 1.235 . S
O38 Co28 2.021 . S
O38 C35 1.238 . S
O39 Co33 2.052 . S
O39 C35 1.241 . S
O40 Co28 2.137 . S
O40 C31 1.247 . S
O41 Co28 2.244 . S
O41 C31 1.272 . S
O41 Co33 2.135 . S
Co42 O43 2.216 . S
Co42 O44 2.091 . S
Co42 O46 2.004 . S
Co42 O52 2.021 . S
Co42 O54 2.137 . S
Co42 O55 2.244 . S
O43 Co42 2.216 . S
O43 C50 1.247 . S
O44 Co42 2.091 . S
O44 C50 1.261 . S
C45 O54 1.247 . S
C45 O55 1.272 . S
O46 Co42 2.004 . S
O46 C51 1.259 . S
Co47 O48 2.061 . S
Co47 O53 2.052 . S
Co47 O55 2.135 . S
O48 Co47 2.061 . S
O48 C51 1.235 . S
C49 O52 1.238 . S
C49 O53 1.241 . S
C50 O43 1.247 . S
C50 O44 1.261 . S
C51 O46 1.259 . S
C51 O48 1.235 . S
O52 Co42 2.021 . S
O52 C49 1.238 . S
O53 Co47 2.052 . S
O53 C49 1.241 . S
O54 Co42 2.137 . S
O54 C45 1.247 . S
O55 Co42 2.244 . S
O55 C45 1.272 . S
O55 Co47 2.135 . S
Co56 O57 2.216 . S
Co56 O58 2.091 . S
Co56 O60 2.004 . S
Co56 O66 2.021 . S
Co56 O68 2.137 . S
Co56 O69 2.244 . S
O57 Co56 2.216 . S
O57 C64 1.247 . S
O58 Co56 2.091 . S
O58 C64 1.261 . S
C59 O68 1.247 . S
C59 O69 1.272 . S
O60 Co56 2.004 . S
O60 C65 1.259 . S
Co61 O62 2.061 . S
Co61 O67 2.052 . S
Co61 O69 2.135 . S
O62 Co61 2.061 . S
O62 C65 1.235 . S
C63 O66 1.238 . S
C63 O67 1.241 . S
C64 O57 1.247 . S
C64 O58 1.261 . S
C65 O60 1.259 . S
C65 O62 1.235 . S
O66 Co56 2.021 . S
O66 C63 1.238 . S
O67 Co61 2.052 . S
O67 C63 1.241 . S
O68 Co56 2.137 . S
O68 C59 1.247 . S
O69 Co56 2.244 . S
O69 C59 1.272 . S
O69 Co61 2.135 . S
Co70 O71 2.216 . S
Co70 O72 2.091 . S
Co70 O74 2.004 . S
Co70 O80 2.021 . S
Co70 O82 2.137 . S
Co70 O83 2.244 . S
O71 Co70 2.216 . S
O71 C78 1.247 . S
O72 Co70 2.091 . S
O72 C78 1.261 . S
C73 O82 1.247 . S
C73 O83 1.272 . S
O74 Co70 2.004 . S
O74 C79 1.259 . S
Co75 O76 2.061 . S
Co75 O81 2.052 . S
Co75 O83 2.135 . S
O76 Co75 2.061 . S
O76 C79 1.235 . S
C77 O80 1.238 . S
C77 O81 1.241 . S
C78 O71 1.247 . S
C78 O72 1.261 . S
C79 O74 1.259 . S
C79 O76 1.235 . S
O80 Co70 2.021 . S
O80 C77 1.238 . S
O81 Co75 2.052 . S
O81 C77 1.241 . S
O82 Co70 2.137 . S
O82 C73 1.247 . S
O83 Co70 2.244 . S
O83 C73 1.272 . S
O83 Co75 2.135 . S
Co84 O85 2.216 . S
Co84 O86 2.091 . S
Co84 O88 2.004 . S
Co84 O94 2.021 . S
Co84 O96 2.137 . S
Co84 O97 2.244 . S
O85 Co84 2.216 . S
O85 C92 1.247 . S
O86 Co84 2.091 . S
O86 C92 1.261 . S
C87 O96 1.247 . S
C87 O97 1.272 . S
O88 Co84 2.004 . S
O88 C93 1.259 . S
Co89 O90 2.061 . S
Co89 O95 2.052 . S
Co89 O97 2.135 . S
O90 Co89 2.061 . S
O90 C93 1.235 . S
C91 O94 1.238 . S
C91 O95 1.241 . S
C92 O85 1.247 . S
C92 O86 1.261 . S
C93 O88 1.259 . S
C93 O90 1.235 . S
O94 Co84 2.021 . S
O94 C91 1.238 . S
O95 Co89 2.052 . S
O95 C91 1.241 . S
O96 Co84 2.137 . S
O96 C87 1.247 . S
O97 Co84 2.244 . S
O97 C87 1.272 . S
O97 Co89 2.135 . S
Co98 O99 2.216 . S
Co98 O100 2.091 . S
Co98 O102 2.004 . S
Co98 O108 2.021 . S
Co98 O110 2.137 . S
Co98 O111 2.244 . S
O99 Co98 2.216 . S
O99 C106 1.247 . S
O100 Co98 2.091 . S
O100 C106 1.261 . S
C101 O110 1.247 . S
C101 O111 1.272 . S
O102 Co98 2.004 . S
O102 C107 1.259 . S
Co103 O104 2.061 . S
Co103 O109 2.052 . S
Co103 O111 2.135 . S
O104 Co103 2.061 . S
O104 C107 1.235 . S
C105 O108 1.238 . S
C105 O109 1.241 . S
C106 O99 1.247 . S
C106 O100 1.261 . S
C107 O102 1.259 . S
C107 O104 1.235 . S
O108 Co98 2.021 . S
O108 C105 1.238 . S
O109 Co103 2.052 . S
O109 C105 1.241 . S
O110 Co98 2.137 . S
O110 C101 1.247 . S
O111 Co98 2.244 . S
O111 C101 1.272 . S
O111 Co103 2.135 . S
Co112 O113 2.216 . S
Co112 O114 2.091 . S
Co112 O116 2.004 . S
Co112 O122 2.021 . S
Co112 O124 2.137 . S
Co112 O125 2.244 . S
O113 Co112 2.216 . S
O113 C120 1.247 . S
O114 Co112 2.091 . S
O114 C120 1.261 . S
C115 O124 1.247 . S
C115 O125 1.272 . S
O116 Co112 2.004 . S
O116 C121 1.259 . S
Co117 O118 2.061 . S
Co117 O123 2.052 . S
Co117 O125 2.135 . S
O118 Co117 2.061 . S
O118 C121 1.235 . S
C119 O122 1.238 . S
C119 O123 1.241 . S
C120 O113 1.247 . S
C120 O114 1.261 . S
C121 O116 1.259 . S
C121 O118 1.235 . S
O122 Co112 2.021 . S
O122 C119 1.238 . S
O123 Co117 2.052 . S
O123 C119 1.241 . S
O124 Co112 2.137 . S
O124 C115 1.247 . S
O125 Co112 2.244 . S
O125 C115 1.272 . S
O125 Co117 2.135 . S
Co126 O127 2.216 . S
Co126 O128 2.091 . S
Co126 O130 2.004 . S
Co126 O136 2.021 . S
Co126 O138 2.137 . S
Co126 O139 2.244 . S
O127 Co126 2.216 . S
O127 C134 1.247 . S
O128 Co126 2.091 . S
O128 C134 1.261 . S
C129 O138 1.247 . S
C129 O139 1.272 . S
O130 Co126 2.004 . S
O130 C135 1.259 . S
Co131 O132 2.061 . S
Co131 O137 2.052 . S
Co131 O139 2.135 . S
O132 Co131 2.061 . S
O132 C135 1.235 . S
C133 O136 1.238 . S
C133 O137 1.241 . S
C134 O127 1.247 . S
C134 O128 1.261 . S
C135 O130 1.259 . S
C135 O132 1.235 . S
O136 Co126 2.021 . S
O136 C133 1.238 . S
O137 Co131 2.052 . S
O137 C133 1.241 . S
O138 Co126 2.137 . S
O138 C129 1.247 . S
O139 Co126 2.244 . S
O139 C129 1.272 . S
O139 Co131 2.135 . S
Co140 O141 2.216 . S
Co140 O142 2.091 . S
Co140 O144 2.004 . S
Co140 O150 2.021 . S
Co140 O152 2.137 . S
Co140 O153 2.244 . S
O141 Co140 2.216 . S
O141 C148 1.247 . S
O142 Co140 2.091 . S
O142 C148 1.261 . S
C143 O152 1.247 . S
C143 O153 1.272 . S
O144 Co140 2.004 . S
O144 C149 1.259 . S
Co145 O146 2.061 . S
Co145 O151 2.052 . S
Co145 O153 2.135 . S
O146 Co145 2.061 . S
O146 C149 1.235 . S
C147 O150 1.238 . S
C147 O151 1.241 . S
C148 O141 1.247 . S
C148 O142 1.261 . S
C149 O144 1.259 . S
C149 O146 1.235 . S
O150 Co140 2.021 . S
O150 C147 1.238 . S
O151 Co145 2.052 . S
O151 C147 1.241 . S
O152 Co140 2.137 . S
O152 C143 1.247 . S
O153 Co140 2.244 . S
O153 C143 1.272 . S
O153 Co145 2.135 . S
Co154 O155 2.216 . S
Co154 O156 2.091 . S
Co154 O158 2.004 . S
Co154 O164 2.021 . S
Co154 O166 2.137 . S
Co154 O167 2.244 . S
O155 Co154 2.216 . S
O155 C162 1.247 . S
O156 Co154 2.091 . S
O156 C162 1.261 . S
C157 O166 1.247 . S
C157 O167 1.272 . S
O158 Co154 2.004 . S
O158 C163 1.259 . S
Co159 O160 2.061 . S
Co159 O165 2.052 . S
Co159 O167 2.135 . S
O160 Co159 2.061 . S
O160 C163 1.235 . S
C161 O164 1.238 . S
C161 O165 1.241 . S
C162 O155 1.247 . S
C162 O156 1.261 . S
C163 O158 1.259 . S
C163 O160 1.235 . S
O164 Co154 2.021 . S
O164 C161 1.238 . S
O165 Co159 2.052 . S
O165 C161 1.241 . S
O166 Co154 2.137 . S
O166 C157 1.247 . S
O167 Co154 2.244 . S
O167 C157 1.272 . S
O167 Co159 2.135 . S
Co168 O169 2.216 . S
Co168 O170 2.091 . S
Co168 O172 2.004 . S
Co168 O178 2.021 . S
Co168 O180 2.137 . S
Co168 O181 2.244 . S
O169 Co168 2.216 . S
O169 C176 1.247 . S
O170 Co168 2.091 . S
O170 C176 1.261 . S
C171 O180 1.247 . S
C171 O181 1.272 . S
O172 Co168 2.004 . S
O172 C177 1.259 . S
Co173 O174 2.061 . S
Co173 O179 2.052 . S
Co173 O181 2.135 . S
O174 Co173 2.061 . S
O174 C177 1.235 . S
C175 O178 1.238 . S
C175 O179 1.241 . S
C176 O169 1.247 . S
C176 O170 1.261 . S
C177 O172 1.259 . S
C177 O174 1.235 . S
O178 Co168 2.021 . S
O178 C175 1.238 . S
O179 Co173 2.052 . S
O179 C175 1.241 . S
O180 Co168 2.137 . S
O180 C171 1.247 . S
O181 Co168 2.244 . S
O181 C171 1.272 . S
O181 Co173 2.135 . S
Co182 O183 2.216 . S
Co182 O184 2.091 . S
Co182 O186 2.004 . S
Co182 O192 2.021 . S
Co182 O194 2.137 . S
Co182 O195 2.244 . S
O183 Co182 2.216 . S
O183 C190 1.247 . S
O184 Co182 2.091 . S
O184 C190 1.261 . S
C185 O194 1.247 . S
C185 O195 1.272 . S
O186 Co182 2.004 . S
O186 C191 1.259 . S
Co187 O188 2.061 . S
Co187 O193 2.052 . S
Co187 O195 2.135 . S
O188 Co187 2.061 . S
O188 C191 1.235 . S
C189 O192 1.238 . S
C189 O193 1.241 . S
C190 O183 1.247 . S
C190 O184 1.261 . S
C191 O186 1.259 . S
C191 O188 1.235 . S
O192 Co182 2.021 . S
O192 C189 1.238 . S
O193 Co187 2.052 . S
O193 C189 1.241 . S
O194 Co182 2.137 . S
O194 C185 1.247 . S
O195 Co182 2.244 . S
O195 C185 1.272 . S
O195 Co187 2.135 . S
Co196 O197 2.216 . S
Co196 O198 2.091 . S
Co196 O200 2.004 . S
Co196 O206 2.021 . S
Co196 O208 2.137 . S
Co196 O209 2.244 . S
O197 Co196 2.216 . S
O197 C204 1.247 . S
O198 Co196 2.091 . S
O198 C204 1.261 . S
C199 O208 1.247 . S
C199 O209 1.272 . S
O200 Co196 2.004 . S
O200 C205 1.259 . S
Co201 O202 2.061 . S
Co201 O207 2.052 . S
Co201 O209 2.135 . S
O202 Co201 2.061 . S
O202 C205 1.235 . S
C203 O206 1.238 . S
C203 O207 1.241 . S
C204 O197 1.247 . S
C204 O198 1.261 . S
C205 O200 1.259 . S
C205 O202 1.235 . S
O206 Co196 2.021 . S
O206 C203 1.238 . S
O207 Co201 2.052 . S
O207 C203 1.241 . S
O208 Co196 2.137 . S
O208 C199 1.247 . S
O209 Co196 2.244 . S
O209 C199 1.272 . S
O209 Co201 2.135 . S
Co210 O211 2.216 . S
Co210 O212 2.091 . S
Co210 O214 2.004 . S
Co210 O220 2.021 . S
Co210 O222 2.137 . S
Co210 O223 2.244 . S
O211 Co210 2.216 . S
O211 C218 1.247 . S
O212 Co210 2.091 . S
O212 C218 1.261 . S
C213 O222 1.247 . S
C213 O223 1.272 . S
O214 Co210 2.004 . S
O214 C219 1.259 . S
Co215 O216 2.061 . S
Co215 O221 2.052 . S
Co215 O223 2.135 . S
O216 Co215 2.061 . S
O216 C219 1.235 . S
C217 O220 1.238 . S
C217 O221 1.241 . S
C218 O211 1.247 . S
C218 O212 1.261 . S
C219 O214 1.259 . S
C219 O216 1.235 . S
O220 Co210 2.021 . S
O220 C217 1.238 . S
O221 Co215 2.052 . S
O221 C217 1.241 . S
O222 Co210 2.137 . S
O222 C213 1.247 . S
O223 Co210 2.244 . S
O223 C213 1.272 . S
O223 Co215 2.135 . S
H224 C242 0.951 . S
H225 C244 0.951 . S
H226 C246 0.950 . S
H227 C247 0.950 . S
H228 C249 0.950 . S
H229 C252 0.950 . S
H230 C253 0.950 . S
H231 C255 0.950 . S
H232 C256 0.950 . S
H233 C257 0.951 . S
H234 C259 0.951 . S
H235 C261 0.950 . S
H236 C262 0.950 . S
H237 C264 0.950 . S
H238 C267 0.950 . S
H239 C268 0.950 . S
H240 C270 0.950 . S
H241 C271 0.950 . S
C242 H224 0.951 . S
C242 C243 1.366 . S
C242 C244 1.388 . S
C243 C242 1.366 . S
C243 C247 1.385 . S
C244 H225 0.951 . S
C244 C242 1.388 . S
C244 C245 1.366 . S
C245 C244 1.366 . S
C245 C246 1.414 . S
C245 C248 1.499 . S
C246 H226 0.950 . S
C246 C245 1.414 . S
C246 C247 1.374 . S
C247 H227 0.950 . S
C247 C243 1.385 . S
C247 C246 1.374 . S
C248 C245 1.499 . S
C248 C249 1.373 . S
C248 C250 1.389 . S
C249 H228 0.950 . S
C249 C248 1.373 . S
C249 C265 1.377 1_455 S
C250 C248 1.389 . S
C250 C251 1.524 . S
C250 C264 1.377 1_455 S
C251 C250 1.524 . S
C251 C252 1.397 . S
C251 C256 1.363 . S
C252 H229 0.950 . S
C252 C251 1.397 . S
C252 C253 1.334 . S
C253 H230 0.950 . S
C253 C252 1.334 . S
C253 C254 1.287 . S
C254 C253 1.287 . S
C254 C255 1.524 . S
C254 H273 0.913 . S
C255 H231 0.950 . S
C255 C254 1.524 . S
C255 C256 1.415 . S
C256 H232 0.950 . S
C256 C251 1.363 . S
C256 C255 1.415 . S
C257 H233 0.951 . S
C257 C258 1.366 . S
C257 C259 1.388 . S
C258 C257 1.366 . S
C258 C262 1.385 . S
C259 H234 0.951 . S
C259 C257 1.388 . S
C259 C260 1.366 . S
C260 C259 1.366 . S
C260 C261 1.414 . S
C260 C263 1.499 . S
C261 H235 0.950 . S
C261 C260 1.414 . S
C261 C262 1.374 . S
C262 H236 0.950 . S
C262 C258 1.385 . S
C262 C261 1.374 . S
C263 C260 1.499 . S
C263 C264 1.373 . S
C263 C265 1.389 . S
C264 H237 0.950 . S
C264 C250 1.377 1_655 S
C264 C263 1.373 . S
C265 C249 1.377 1_655 S
C265 C263 1.389 . S
C265 C266 1.524 . S
C266 C265 1.524 . S
C266 C267 1.397 . S
C266 C271 1.363 . S
C267 H238 0.950 . S
C267 C266 1.397 . S
C267 C268 1.334 . S
C268 H239 0.950 . S
C268 C267 1.334 . S
C268 C269 1.287 . S
C269 C268 1.287 . S
C269 C270 1.524 . S
C269 H272 0.999 . S
C270 H240 0.950 . S
C270 C269 1.524 . S
C270 C271 1.415 . S
C271 H241 0.950 . S
C271 C266 1.363 . S
C271 C270 1.415 . S
H272 C269 0.999 . S
H273 C254 0.913 . S
H274 C292 0.951 . S
H275 C294 0.951 . S
H276 C296 0.950 . S
H277 C297 0.950 . S
H278 C299 0.950 . S
H279 C302 0.950 . S
H280 C303 0.950 . S
H281 C305 0.950 . S
H282 C306 0.950 1_545 S
H283 C307 0.951 . S
H284 C309 0.951 . S
H285 C311 0.950 . S
H286 C312 0.950 . S
H287 C314 0.950 . S
H288 C317 0.950 . S
H289 C318 0.950 . S
H290 C320 0.950 . S
H291 C321 0.950 1_565 S
C292 H274 0.951 . S
C292 C293 1.366 . S
C292 C294 1.388 . S
C293 C292 1.366 . S
C293 C297 1.385 . S
C294 H275 0.951 . S
C294 C292 1.388 . S
C294 C295 1.366 . S
C295 C294 1.366 . S
C295 C296 1.414 . S
C295 C298 1.499 . S
C296 H276 0.950 . S
C296 C295 1.414 . S
C296 C297 1.374 . S
C297 H277 0.950 . S
C297 C293 1.385 . S
C297 C296 1.374 . S
C298 C295 1.499 . S
C298 C299 1.373 . S
C298 C300 1.389 . S
C299 H278 0.950 . S
C299 C298 1.373 . S
C299 C315 1.377 1_565 S
C300 C298 1.389 . S
C300 C301 1.524 . S
C300 C314 1.377 1_565 S
C301 C300 1.524 . S
C301 C302 1.397 . S
C301 C306 1.363 . S
C302 H279 0.950 . S
C302 C301 1.397 . S
C302 C303 1.334 . S
C303 H280 0.950 . S
C303 C302 1.334 . S
C303 C304 1.287 . S
C304 C303 1.287 . S
C304 C305 1.524 . S
C304 H323 0.913 . S
C305 H281 0.950 . S
C305 C304 1.524 . S
C305 C306 1.415 . S
C306 H282 0.950 1_565 S
C306 C301 1.363 . S
C306 C305 1.415 . S
C307 H283 0.951 . S
C307 C308 1.366 . S
C307 C309 1.388 . S
C308 C307 1.366 . S
C308 C312 1.385 . S
C309 H284 0.951 . S
C309 C307 1.388 . S
C309 C310 1.366 . S
C310 C309 1.366 . S
C310 C311 1.414 . S
C310 C313 1.499 . S
C311 H285 0.950 . S
C311 C310 1.414 . S
C311 C312 1.374 . S
C312 H286 0.950 . S
C312 C308 1.385 . S
C312 C311 1.374 . S
C313 C310 1.499 . S
C313 C314 1.373 . S
C313 C315 1.389 . S
C314 H287 0.950 . S
C314 C300 1.377 1_545 S
C314 C313 1.373 . S
C315 C299 1.377 1_545 S
C315 C313 1.389 . S
C315 C316 1.524 . S
C316 C315 1.524 . S
C316 C317 1.397 . S
C316 C321 1.363 . S
C317 H288 0.950 . S
C317 C316 1.397 . S
C317 C318 1.334 . S
C318 H289 0.950 . S
C318 C317 1.334 . S
C318 C319 1.287 . S
C319 C318 1.287 . S
C319 C320 1.524 . S
C319 H322 0.999 . S
C320 H290 0.950 . S
C320 C319 1.524 . S
C320 C321 1.415 . S
C321 H291 0.950 1_545 S
C321 C316 1.363 . S
C321 C320 1.415 . S
H322 C319 0.999 . S
H323 C304 0.913 . S
H324 C342 0.951 . S
H325 C344 0.951 . S
H326 C346 0.950 . S
H327 C347 0.950 . S
H328 C349 0.950 . S
H329 C352 0.950 . S
H330 C353 0.950 . S
H331 C355 0.950 . S
H332 C356 0.950 . S
H333 C357 0.951 . S
H334 C359 0.951 . S
H335 C361 0.950 . S
H336 C362 0.950 . S
H337 C364 0.950 . S
H338 C367 0.950 . S
H339 C368 0.950 . S
H340 C370 0.950 . S
H341 C371 0.950 . S
C342 H324 0.951 . S
C342 C343 1.366 . S
C342 C344 1.388 . S
C343 C342 1.366 . S
C343 C347 1.385 . S
C344 H325 0.951 . S
C344 C342 1.388 . S
C344 C345 1.366 . S
C345 C344 1.366 . S
C345 C346 1.414 . S
C345 C348 1.499 . S
C346 H326 0.950 . S
C346 C345 1.414 . S
C346 C347 1.374 . S
C347 H327 0.950 . S
C347 C343 1.385 . S
C347 C346 1.374 . S
C348 C345 1.499 . S
C348 C349 1.373 . S
C348 C350 1.389 . S
C349 H328 0.950 . S
C349 C348 1.373 . S
C349 C365 1.377 1_455 S
C350 C348 1.389 . S
C350 C351 1.524 . S
C350 C364 1.377 1_455 S
C351 C350 1.524 . S
C351 C352 1.397 . S
C351 C356 1.363 . S
C352 H329 0.950 . S
C352 C351 1.397 . S
C352 C353 1.334 . S
C353 H330 0.950 . S
C353 C352 1.334 . S
C353 C354 1.287 . S
C354 C353 1.287 . S
C354 C355 1.524 . S
C354 H373 0.913 . S
C355 H331 0.950 . S
C355 C354 1.524 . S
C355 C356 1.415 . S
C356 H332 0.950 . S
C356 C351 1.363 . S
C356 C355 1.415 . S
C357 H333 0.951 . S
C357 C358 1.366 . S
C357 C359 1.388 . S
C358 C357 1.366 . S
C358 C362 1.385 . S
C359 H334 0.951 . S
C359 C357 1.388 . S
C359 C360 1.366 . S
C360 C359 1.366 . S
C360 C361 1.414 . S
C360 C363 1.499 . S
C361 H335 0.950 . S
C361 C360 1.414 . S
C361 C362 1.374 . S
C362 H336 0.950 . S
C362 C358 1.385 . S
C362 C361 1.374 . S
C363 C360 1.499 . S
C363 C364 1.373 . S
C363 C365 1.389 . S
C364 H337 0.950 . S
C364 C350 1.377 1_655 S
C364 C363 1.373 . S
C365 C349 1.377 1_655 S
C365 C363 1.389 . S
C365 C366 1.524 . S
C366 C365 1.524 . S
C366 C367 1.397 . S
C366 C371 1.363 . S
C367 H338 0.950 . S
C367 C366 1.397 . S
C367 C368 1.334 . S
C368 H339 0.950 . S
C368 C367 1.334 . S
C368 C369 1.287 . S
C369 C368 1.287 . S
C369 C370 1.524 . S
C369 H372 0.999 . S
C370 H340 0.950 . S
C370 C369 1.524 . S
C370 C371 1.415 . S
C371 H341 0.950 . S
C371 C366 1.363 . S
C371 C370 1.415 . S
H372 C369 0.999 . S
H373 C354 0.913 . S
H374 C392 0.951 . S
H375 C394 0.951 . S
H376 C396 0.950 . S
H377 C397 0.950 . S
H378 C399 0.950 . S
H379 C402 0.950 . S
H380 C403 0.950 . S
H381 C405 0.950 . S
H382 C406 0.950 . S
H383 C407 0.951 . S
H384 C409 0.951 . S
H385 C411 0.950 . S
H386 C412 0.950 . S
H387 C414 0.950 . S
H388 C417 0.950 . S
H389 C418 0.950 . S
H390 C420 0.950 . S
H391 C421 0.950 . S
C392 H374 0.951 . S
C392 C393 1.366 . S
C392 C394 1.388 . S
C393 C392 1.366 . S
C393 C397 1.385 . S
C394 H375 0.951 . S
C394 C392 1.388 . S
C394 C395 1.366 . S
C395 C394 1.366 . S
C395 C396 1.414 . S
C395 C398 1.499 . S
C396 H376 0.950 . S
C396 C395 1.414 . S
C396 C397 1.374 . S
C397 H377 0.950 . S
C397 C393 1.385 . S
C397 C396 1.374 . S
C398 C395 1.499 . S
C398 C399 1.373 . S
C398 C400 1.389 . S
C399 H378 0.950 . S
C399 C398 1.373 . S
C399 C415 1.377 1_565 S
C400 C398 1.389 . S
C400 C401 1.524 . S
C400 C414 1.377 1_565 S
C401 C400 1.524 . S
C401 C402 1.397 . S
C401 C406 1.363 . S
C402 H379 0.950 . S
C402 C401 1.397 . S
C402 C403 1.334 . S
C403 H380 0.950 . S
C403 C402 1.334 . S
C403 C404 1.287 . S
C404 C403 1.287 . S
C404 C405 1.524 . S
C404 H423 0.913 . S
C405 H381 0.950 . S
C405 C404 1.524 . S
C405 C406 1.415 . S
C406 H382 0.950 . S
C406 C401 1.363 . S
C406 C405 1.415 . S
C407 H383 0.951 . S
C407 C408 1.366 . S
C407 C409 1.388 . S
C408 C407 1.366 . S
C408 C412 1.385 . S
C409 H384 0.951 . S
C409 C407 1.388 . S
C409 C410 1.366 . S
C410 C409 1.366 . S
C410 C411 1.414 . S
C410 C413 1.499 . S
C411 H385 0.950 . S
C411 C410 1.414 . S
C411 C412 1.374 . S
C412 H386 0.950 . S
C412 C408 1.385 . S
C412 C411 1.374 . S
C413 C410 1.499 . S
C413 C414 1.373 . S
C413 C415 1.389 . S
C414 H387 0.950 . S
C414 C400 1.377 1_545 S
C414 C413 1.373 . S
C415 C399 1.377 1_545 S
C415 C413 1.389 . S
C415 C416 1.524 . S
C416 C415 1.524 . S
C416 C417 1.397 . S
C416 C421 1.363 . S
C417 H388 0.950 . S
C417 C416 1.397 . S
C417 C418 1.334 . S
C418 H389 0.950 . S
C418 C417 1.334 . S
C418 C419 1.287 . S
C419 C418 1.287 . S
C419 C420 1.524 . S
C419 H422 0.999 . S
C420 H390 0.950 . S
C420 C419 1.524 . S
C420 C421 1.415 . S
C421 H391 0.950 . S
C421 C416 1.363 . S
C421 C420 1.415 . S
H422 C419 0.999 . S
H423 C404 0.913 . S
H424 C442 0.951 . S
H425 C444 0.951 . S
H426 C446 0.950 . S
H427 C447 0.950 . S
H428 C449 0.950 . S
H429 C452 0.950 . S
H430 C453 0.950 . S
H431 C455 0.950 . S
H432 C456 0.950 . S
H433 C457 0.951 . S
H434 C459 0.951 . S
H435 C461 0.950 . S
H436 C462 0.950 . S
H437 C464 0.950 . S
H438 C467 0.950 . S
H439 C468 0.950 . S
H440 C470 0.950 . S
H441 C471 0.950 . S
C442 H424 0.951 . S
C442 C443 1.366 . S
C442 C444 1.388 . S
C443 C442 1.366 . S
C443 C447 1.385 . S
C444 H425 0.951 . S
C444 C442 1.388 . S
C444 C445 1.366 . S
C445 C444 1.366 . S
C445 C446 1.414 . S
C445 C448 1.499 . S
C446 H426 0.950 . S
C446 C445 1.414 . S
C446 C447 1.374 . S
C447 H427 0.950 . S
C447 C443 1.385 . S
C447 C446 1.374 . S
C448 C445 1.499 . S
C448 C449 1.373 . S
C448 C450 1.389 . S
C449 H428 0.950 . S
C449 C448 1.373 . S
C449 C465 1.377 1_655 S
C450 C448 1.389 . S
C450 C451 1.524 . S
C450 C464 1.377 1_655 S
C451 C450 1.524 . S
C451 C452 1.397 . S
C451 C456 1.363 . S
C452 H429 0.950 . S
C452 C451 1.397 . S
C452 C453 1.334 . S
C453 H430 0.950 . S
C453 C452 1.334 . S
C453 C454 1.287 . S
C454 C453 1.287 . S
C454 C455 1.524 . S
C454 H473 0.913 . S
C455 H431 0.950 . S
C455 C454 1.524 . S
C455 C456 1.415 . S
C456 H432 0.950 . S
C456 C451 1.363 . S
C456 C455 1.415 . S
C457 H433 0.951 . S
C457 C458 1.366 . S
C457 C459 1.388 . S
C458 C457 1.366 . S
C458 C462 1.385 . S
C459 H434 0.951 . S
C459 C457 1.388 . S
C459 C460 1.366 . S
C460 C459 1.366 . S
C460 C461 1.414 . S
C460 C463 1.499 . S
C461 H435 0.950 . S
C461 C460 1.414 . S
C461 C462 1.374 . S
C462 H436 0.950 . S
C462 C458 1.385 . S
C462 C461 1.374 . S
C463 C460 1.499 . S
C463 C464 1.373 . S
C463 C465 1.389 . S
C464 H437 0.950 . S
C464 C450 1.377 1_455 S
C464 C463 1.373 . S
C465 C449 1.377 1_455 S
C465 C463 1.389 . S
C465 C466 1.524 . S
C466 C465 1.524 . S
C466 C467 1.397 . S
C466 C471 1.363 . S
C467 H438 0.950 . S
C467 C466 1.397 . S
C467 C468 1.334 . S
C468 H439 0.950 . S
C468 C467 1.334 . S
C468 C469 1.287 . S
C469 C468 1.287 . S
C469 C470 1.524 . S
C469 H472 0.999 . S
C470 H440 0.950 . S
C470 C469 1.524 . S
C470 C471 1.415 . S
C471 H441 0.950 . S
C471 C466 1.363 . S
C471 C470 1.415 . S
H472 C469 0.999 . S
H473 C454 0.913 . S
H474 C492 0.951 . S
H475 C494 0.951 . S
H476 C496 0.950 . S
H477 C497 0.950 . S
H478 C499 0.950 . S
H479 C502 0.950 . S
H480 C503 0.950 . S
H481 C505 0.950 . S
H482 C506 0.950 1_565 S
H483 C507 0.951 . S
H484 C509 0.951 . S
H485 C511 0.950 . S
H486 C512 0.950 . S
H487 C514 0.950 . S
H488 C517 0.950 . S
H489 C518 0.950 . S
H490 C520 0.950 . S
H491 C521 0.950 1_545 S
C492 H474 0.951 . S
C492 C493 1.366 . S
C492 C494 1.388 . S
C493 C492 1.366 . S
C493 C497 1.385 . S
C494 H475 0.951 . S
C494 C492 1.388 . S
C494 C495 1.366 . S
C495 C494 1.366 . S
C495 C496 1.414 . S
C495 C498 1.499 . S
C496 H476 0.950 . S
C496 C495 1.414 . S
C496 C497 1.374 . S
C497 H477 0.950 . S
C497 C493 1.385 . S
C497 C496 1.374 . S
C498 C495 1.499 . S
C498 C499 1.373 . S
C498 C500 1.389 . S
C499 H478 0.950 . S
C499 C498 1.373 . S
C499 C515 1.377 1_545 S
C500 C498 1.389 . S
C500 C501 1.524 . S
C500 C514 1.377 1_545 S
C501 C500 1.524 . S
C501 C502 1.397 . S
C501 C506 1.363 . S
C502 H479 0.950 . S
C502 C501 1.397 . S
C502 C503 1.334 . S
C503 H480 0.950 . S
C503 C502 1.334 . S
C503 C504 1.287 . S
C504 C503 1.287 . S
C504 C505 1.524 . S
C504 H523 0.913 . S
C505 H481 0.950 . S
C505 C504 1.524 . S
C505 C506 1.415 . S
C506 H482 0.950 1_545 S
C506 C501 1.363 . S
C506 C505 1.415 . S
C507 H483 0.951 . S
C507 C508 1.366 . S
C507 C509 1.388 . S
C508 C507 1.366 . S
C508 C512 1.385 . S
C509 H484 0.951 . S
C509 C507 1.388 . S
C509 C510 1.366 . S
C510 C509 1.366 . S
C510 C511 1.414 . S
C510 C513 1.499 . S
C511 H485 0.950 . S
C511 C510 1.414 . S
C511 C512 1.374 . S
C512 H486 0.950 . S
C512 C508 1.385 . S
C512 C511 1.374 . S
C513 C510 1.499 . S
C513 C514 1.373 . S
C513 C515 1.389 . S
C514 H487 0.950 . S
C514 C500 1.377 1_565 S
C514 C513 1.373 . S
C515 C499 1.377 1_565 S
C515 C513 1.389 . S
C515 C516 1.524 . S
C516 C515 1.524 . S
C516 C517 1.397 . S
C516 C521 1.363 . S
C517 H488 0.950 . S
C517 C516 1.397 . S
C517 C518 1.334 . S
C518 H489 0.950 . S
C518 C517 1.334 . S
C518 C519 1.287 . S
C519 C518 1.287 . S
C519 C520 1.524 . S
C519 H522 0.999 . S
C520 H490 0.950 . S
C520 C519 1.524 . S
C520 C521 1.415 . S
C521 H491 0.950 1_565 S
C521 C516 1.363 . S
C521 C520 1.415 . S
H522 C519 0.999 . S
H523 C504 0.913 . S
H524 C542 0.951 . S
H525 C544 0.951 . S
H526 C546 0.950 . S
H527 C547 0.950 . S
H528 C549 0.950 . S
H529 C552 0.950 . S
H530 C553 0.950 . S
H531 C555 0.950 . S
H532 C556 0.950 . S
H533 C557 0.951 . S
H534 C559 0.951 . S
H535 C561 0.950 . S
H536 C562 0.950 . S
H537 C564 0.950 . S
H538 C567 0.950 . S
H539 C568 0.950 . S
H540 C570 0.950 . S
H541 C571 0.950 . S
C542 H524 0.951 . S
C542 C543 1.366 . S
C542 C544 1.388 . S
C543 C542 1.366 . S
C543 C547 1.385 . S
C544 H525 0.951 . S
C544 C542 1.388 . S
C544 C545 1.366 . S
C545 C544 1.366 . S
C545 C546 1.414 . S
C545 C548 1.499 . S
C546 H526 0.950 . S
C546 C545 1.414 . S
C546 C547 1.374 . S
C547 H527 0.950 . S
C547 C543 1.385 . S
C547 C546 1.374 . S
C548 C545 1.499 . S
C548 C549 1.373 . S
C548 C550 1.389 . S
C549 H528 0.950 . S
C549 C548 1.373 . S
C549 C565 1.377 1_655 S
C550 C548 1.389 . S
C550 C551 1.524 . S
C550 C564 1.377 1_655 S
C551 C550 1.524 . S
C551 C552 1.397 . S
C551 C556 1.363 . S
C552 H529 0.950 . S
C552 C551 1.397 . S
C552 C553 1.334 . S
C553 H530 0.950 . S
C553 C552 1.334 . S
C553 C554 1.287 . S
C554 C553 1.287 . S
C554 C555 1.524 . S
C554 H573 0.913 . S
C555 H531 0.950 . S
C555 C554 1.524 . S
C555 C556 1.415 . S
C556 H532 0.950 . S
C556 C551 1.363 . S
C556 C555 1.415 . S
C557 H533 0.951 . S
C557 C558 1.366 . S
C557 C559 1.388 . S
C558 C557 1.366 . S
C558 C562 1.385 . S
C559 H534 0.951 . S
C559 C557 1.388 . S
C559 C560 1.366 . S
C560 C559 1.366 . S
C560 C561 1.414 . S
C560 C563 1.499 . S
C561 H535 0.950 . S
C561 C560 1.414 . S
C561 C562 1.374 . S
C562 H536 0.950 . S
C562 C558 1.385 . S
C562 C561 1.374 . S
C563 C560 1.499 . S
C563 C564 1.373 . S
C563 C565 1.389 . S
C564 H537 0.950 . S
C564 C550 1.377 1_455 S
C564 C563 1.373 . S
C565 C549 1.377 1_455 S
C565 C563 1.389 . S
C565 C566 1.524 . S
C566 C565 1.524 . S
C566 C567 1.397 . S
C566 C571 1.363 . S
C567 H538 0.950 . S
C567 C566 1.397 . S
C567 C568 1.334 . S
C568 H539 0.950 . S
C568 C567 1.334 . S
C568 C569 1.287 . S
C569 C568 1.287 . S
C569 C570 1.524 . S
C569 H572 0.999 . S
C570 H540 0.950 . S
C570 C569 1.524 . S
C570 C571 1.415 . S
C571 H541 0.950 . S
C571 C566 1.363 . S
C571 C570 1.415 . S
H572 C569 0.999 . S
H573 C554 0.913 . S
H574 C592 0.951 . S
H575 C594 0.951 . S
H576 C596 0.950 . S
H577 C597 0.950 . S
H578 C599 0.950 . S
H579 C602 0.950 . S
H580 C603 0.950 . S
H581 C605 0.950 . S
H582 C606 0.950 . S
H583 C607 0.951 . S
H584 C609 0.951 . S
H585 C611 0.950 . S
H586 C612 0.950 . S
H587 C614 0.950 . S
H588 C617 0.950 . S
H589 C618 0.950 . S
H590 C620 0.950 . S
H591 C621 0.950 . S
C592 H574 0.951 . S
C592 C593 1.366 . S
C592 C594 1.388 . S
C593 C592 1.366 . S
C593 C597 1.385 . S
C594 H575 0.951 . S
C594 C592 1.388 . S
C594 C595 1.366 . S
C595 C594 1.366 . S
C595 C596 1.414 . S
C595 C598 1.499 . S
C596 H576 0.950 . S
C596 C595 1.414 . S
C596 C597 1.374 . S
C597 H577 0.950 . S
C597 C593 1.385 . S
C597 C596 1.374 . S
C598 C595 1.499 . S
C598 C599 1.373 . S
C598 C600 1.389 . S
C599 H578 0.950 . S
C599 C598 1.373 . S
C599 C615 1.377 1_545 S
C600 C598 1.389 . S
C600 C601 1.524 . S
C600 C614 1.377 1_545 S
C601 C600 1.524 . S
C601 C602 1.397 . S
C601 C606 1.363 . S
C602 H579 0.950 . S
C602 C601 1.397 . S
C602 C603 1.334 . S
C603 H580 0.950 . S
C603 C602 1.334 . S
C603 C604 1.287 . S
C604 C603 1.287 . S
C604 C605 1.524 . S
C604 H623 0.913 . S
C605 H581 0.950 . S
C605 C604 1.524 . S
C605 C606 1.415 . S
C606 H582 0.950 . S
C606 C601 1.363 . S
C606 C605 1.415 . S
C607 H583 0.951 . S
C607 C608 1.366 . S
C607 C609 1.388 . S
C608 C607 1.366 . S
C608 C612 1.385 . S
C609 H584 0.951 . S
C609 C607 1.388 . S
C609 C610 1.366 . S
C610 C609 1.366 . S
C610 C611 1.414 . S
C610 C613 1.499 . S
C611 H585 0.950 . S
C611 C610 1.414 . S
C611 C612 1.374 . S
C612 H586 0.950 . S
C612 C608 1.385 . S
C612 C611 1.374 . S
C613 C610 1.499 . S
C613 C614 1.373 . S
C613 C615 1.389 . S
C614 H587 0.950 . S
C614 C600 1.377 1_565 S
C614 C613 1.373 . S
C615 C599 1.377 1_565 S
C615 C613 1.389 . S
C615 C616 1.524 . S
C616 C615 1.524 . S
C616 C617 1.397 . S
C616 C621 1.363 . S
C617 H588 0.950 . S
C617 C616 1.397 . S
C617 C618 1.334 . S
C618 H589 0.950 . S
C618 C617 1.334 . S
C618 C619 1.287 . S
C619 C618 1.287 . S
C619 C620 1.524 . S
C619 H622 0.999 . S
C620 H590 0.950 . S
C620 C619 1.524 . S
C620 C621 1.415 . S
C621 H591 0.950 . S
C621 C616 1.363 . S
C621 C620 1.415 . S
H622 C619 0.999 . S
H623 C604 0.913 . S
H624 C642 0.951 . S
H625 C644 0.951 . S
H626 C646 0.950 . S
H627 C647 0.950 . S
H628 C649 0.950 . S
H629 C652 0.950 . S
H630 C653 0.950 . S
H631 C655 0.950 . S
H632 C656 0.950 . S
H633 C657 0.951 . S
H634 C659 0.951 . S
H635 C661 0.950 . S
H636 C662 0.950 . S
H637 C664 0.950 . S
H638 C667 0.950 . S
H639 C668 0.950 . S
H640 C670 0.950 . S
H641 C671 0.950 . S
C642 H624 0.951 . S
C642 C643 1.366 . S
C642 C644 1.388 . S
C643 C642 1.366 . S
C643 C647 1.385 . S
C644 H625 0.951 . S
C644 C642 1.388 . S
C644 C645 1.366 . S
C645 C644 1.366 . S
C645 C646 1.414 . S
C645 C648 1.499 . S
C646 H626 0.950 . S
C646 C645 1.414 . S
C646 C647 1.374 . S
C647 H627 0.950 . S
C647 C643 1.385 . S
C647 C646 1.374 . S
C648 C645 1.499 . S
C648 C649 1.373 . S
C648 C650 1.389 . S
C649 H628 0.950 . S
C649 C648 1.373 . S
C649 C665 1.377 . S
C650 C648 1.389 . S
C650 C651 1.524 . S
C650 C664 1.377 . S
C651 C650 1.524 . S
C651 C652 1.397 . S
C651 C656 1.363 . S
C652 H629 0.950 . S
C652 C651 1.397 . S
C652 C653 1.334 . S
C653 H630 0.950 . S
C653 C652 1.334 . S
C653 C654 1.287 . S
C654 C653 1.287 . S
C654 C655 1.524 . S
C654 H673 0.913 . S
C655 H631 0.950 . S
C655 C654 1.524 . S
C655 C656 1.415 . S
C656 H632 0.950 . S
C656 C651 1.363 . S
C656 C655 1.415 . S
C657 H633 0.951 . S
C657 C658 1.366 . S
C657 C659 1.388 . S
C658 C657 1.366 . S
C658 C662 1.385 . S
C659 H634 0.951 . S
C659 C657 1.388 . S
C659 C660 1.366 . S
C660 C659 1.366 . S
C660 C661 1.414 . S
C660 C663 1.499 . S
C661 H635 0.950 . S
C661 C660 1.414 . S
C661 C662 1.374 . S
C662 H636 0.950 . S
C662 C658 1.385 . S
C662 C661 1.374 . S
C663 C660 1.499 . S
C663 C664 1.373 . S
C663 C665 1.389 . S
C664 H637 0.950 . S
C664 C650 1.377 . S
C664 C663 1.373 . S
C665 C649 1.377 . S
C665 C663 1.389 . S
C665 C666 1.524 . S
C666 C665 1.524 . S
C666 C667 1.397 . S
C666 C671 1.363 . S
C667 H638 0.950 . S
C667 C666 1.397 . S
C667 C668 1.334 . S
C668 H639 0.950 . S
C668 C667 1.334 . S
C668 C669 1.287 . S
C669 C668 1.287 . S
C669 C670 1.524 . S
C669 H672 0.999 . S
C670 H640 0.950 . S
C670 C669 1.524 . S
C670 C671 1.415 . S
C671 H641 0.950 . S
C671 C666 1.363 . S
C671 C670 1.415 . S
H672 C669 0.999 . S
H673 C654 0.913 . S
H674 C692 0.951 . S
H675 C694 0.951 . S
H676 C696 0.950 . S
H677 C697 0.950 . S
H678 C699 0.950 . S
H679 C702 0.950 . S
H680 C703 0.950 . S
H681 C705 0.950 . S
H682 C706 0.950 . S
H683 C707 0.951 . S
H684 C709 0.951 . S
H685 C711 0.950 . S
H686 C712 0.950 . S
H687 C714 0.950 . S
H688 C717 0.950 . S
H689 C718 0.950 . S
H690 C720 0.950 . S
H691 C721 0.950 . S
C692 H674 0.951 . S
C692 C693 1.366 . S
C692 C694 1.388 . S
C693 C692 1.366 . S
C693 C697 1.385 . S
C694 H675 0.951 . S
C694 C692 1.388 . S
C694 C695 1.366 . S
C695 C694 1.366 . S
C695 C696 1.414 . S
C695 C698 1.499 . S
C696 H676 0.950 . S
C696 C695 1.414 . S
C696 C697 1.374 . S
C697 H677 0.950 . S
C697 C693 1.385 . S
C697 C696 1.374 . S
C698 C695 1.499 . S
C698 C699 1.373 . S
C698 C700 1.389 . S
C699 H678 0.950 . S
C699 C698 1.373 . S
C699 C715 1.377 . S
C700 C698 1.389 . S
C700 C701 1.524 . S
C700 C714 1.377 . S
C701 C700 1.524 . S
C701 C702 1.397 . S
C701 C706 1.363 . S
C702 H679 0.950 . S
C702 C701 1.397 . S
C702 C703 1.334 . S
C703 H680 0.950 . S
C703 C702 1.334 . S
C703 C704 1.287 . S
C704 C703 1.287 . S
C704 C705 1.524 . S
C704 H723 0.913 . S
C705 H681 0.950 . S
C705 C704 1.524 . S
C705 C706 1.415 . S
C706 H682 0.950 . S
C706 C701 1.363 . S
C706 C705 1.415 . S
C707 H683 0.951 . S
C707 C708 1.366 . S
C707 C709 1.388 . S
C708 C707 1.366 . S
C708 C712 1.385 . S
C709 H684 0.951 . S
C709 C707 1.388 . S
C709 C710 1.366 . S
C710 C709 1.366 . S
C710 C711 1.414 . S
C710 C713 1.499 . S
C711 H685 0.950 . S
C711 C710 1.414 . S
C711 C712 1.374 . S
C712 H686 0.950 . S
C712 C708 1.385 . S
C712 C711 1.374 . S
C713 C710 1.499 . S
C713 C714 1.373 . S
C713 C715 1.389 . S
C714 H687 0.950 . S
C714 C700 1.377 . S
C714 C713 1.373 . S
C715 C699 1.377 . S
C715 C713 1.389 . S
C715 C716 1.524 . S
C716 C715 1.524 . S
C716 C717 1.397 . S
C716 C721 1.363 . S
C717 H688 0.950 . S
C717 C716 1.397 . S
C717 C718 1.334 . S
C718 H689 0.950 . S
C718 C717 1.334 . S
C718 C719 1.287 . S
C719 C718 1.287 . S
C719 C720 1.524 . S
C719 H722 0.999 . S
C720 H690 0.950 . S
C720 C719 1.524 . S
C720 C721 1.415 . S
C721 H691 0.950 . S
C721 C716 1.363 . S
C721 C720 1.415 . S
H722 C719 0.999 . S
H723 C704 0.913 . S
H724 C742 0.951 . S
H725 C744 0.951 . S
H726 C746 0.950 . S
H727 C747 0.950 . S
H728 C749 0.950 . S
H729 C752 0.950 . S
H730 C753 0.950 . S
H731 C755 0.950 . S
H732 C756 0.950 . S
H733 C757 0.951 . S
H734 C759 0.951 . S
H735 C761 0.950 . S
H736 C762 0.950 . S
H737 C764 0.950 . S
H738 C767 0.950 . S
H739 C768 0.950 . S
H740 C770 0.950 . S
H741 C771 0.950 . S
C742 H724 0.951 . S
C742 C743 1.366 . S
C742 C744 1.388 . S
C743 C742 1.366 . S
C743 C747 1.385 . S
C744 H725 0.951 . S
C744 C742 1.388 . S
C744 C745 1.366 . S
C745 C744 1.366 . S
C745 C746 1.414 . S
C745 C748 1.499 . S
C746 H726 0.950 . S
C746 C745 1.414 . S
C746 C747 1.374 . S
C747 H727 0.950 . S
C747 C743 1.385 . S
C747 C746 1.374 . S
C748 C745 1.499 . S
C748 C749 1.373 . S
C748 C750 1.389 . S
C749 H728 0.950 . S
C749 C748 1.373 . S
C749 C765 1.377 . S
C750 C748 1.389 . S
C750 C751 1.524 . S
C750 C764 1.377 . S
C751 C750 1.524 . S
C751 C752 1.397 . S
C751 C756 1.363 . S
C752 H729 0.950 . S
C752 C751 1.397 . S
C752 C753 1.334 . S
C753 H730 0.950 . S
C753 C752 1.334 . S
C753 C754 1.287 . S
C754 C753 1.287 . S
C754 C755 1.524 . S
C754 H773 0.913 . S
C755 H731 0.950 . S
C755 C754 1.524 . S
C755 C756 1.415 . S
C756 H732 0.950 . S
C756 C751 1.363 . S
C756 C755 1.415 . S
C757 H733 0.951 . S
C757 C758 1.366 . S
C757 C759 1.388 . S
C758 C757 1.366 . S
C758 C762 1.385 . S
C759 H734 0.951 . S
C759 C757 1.388 . S
C759 C760 1.366 . S
C760 C759 1.366 . S
C760 C761 1.414 . S
C760 C763 1.499 . S
C761 H735 0.950 . S
C761 C760 1.414 . S
C761 C762 1.374 . S
C762 H736 0.950 . S
C762 C758 1.385 . S
C762 C761 1.374 . S
C763 C760 1.499 . S
C763 C764 1.373 . S
C763 C765 1.389 . S
C764 H737 0.950 . S
C764 C750 1.377 . S
C764 C763 1.373 . S
C765 C749 1.377 . S
C765 C763 1.389 . S
C765 C766 1.524 . S
C766 C765 1.524 . S
C766 C767 1.397 . S
C766 C771 1.363 . S
C767 H738 0.950 . S
C767 C766 1.397 . S
C767 C768 1.334 . S
C768 H739 0.950 . S
C768 C767 1.334 . S
C768 C769 1.287 . S
C769 C768 1.287 . S
C769 C770 1.524 . S
C769 H772 0.999 . S
C770 H740 0.950 . S
C770 C769 1.524 . S
C770 C771 1.415 . S
C771 H741 0.950 . S
C771 C766 1.363 . S
C771 C770 1.415 . S
H772 C769 0.999 . S
H773 C754 0.913 . S
H774 C792 0.951 . S
H775 C794 0.951 . S
H776 C796 0.950 . S
H777 C797 0.950 . S
H778 C799 0.950 . S
H779 C802 0.950 . S
H780 C803 0.950 . S
H781 C805 0.950 . S
H782 C806 0.950 . S
H783 C807 0.951 . S
H784 C809 0.951 . S
H785 C811 0.950 . S
H786 C812 0.950 . S
H787 C814 0.950 . S
H788 C817 0.950 . S
H789 C818 0.950 . S
H790 C820 0.950 . S
H791 C821 0.950 . S
C792 H774 0.951 . S
C792 C793 1.366 . S
C792 C794 1.388 . S
C793 C792 1.366 . S
C793 C797 1.385 . S
C794 H775 0.951 . S
C794 C792 1.388 . S
C794 C795 1.366 . S
C795 C794 1.366 . S
C795 C796 1.414 . S
C795 C798 1.499 . S
C796 H776 0.950 . S
C796 C795 1.414 . S
C796 C797 1.374 . S
C797 H777 0.950 . S
C797 C793 1.385 . S
C797 C796 1.374 . S
C798 C795 1.499 . S
C798 C799 1.373 . S
C798 C800 1.389 . S
C799 H778 0.950 . S
C799 C798 1.373 . S
C799 C815 1.377 . S
C800 C798 1.389 . S
C800 C801 1.524 . S
C800 C814 1.377 . S
C801 C800 1.524 . S
C801 C802 1.397 . S
C801 C806 1.363 . S
C802 H779 0.950 . S
C802 C801 1.397 . S
C802 C803 1.334 . S
C803 H780 0.950 . S
C803 C802 1.334 . S
C803 C804 1.287 . S
C804 C803 1.287 . S
C804 C805 1.524 . S
C804 H823 0.913 . S
C805 H781 0.950 . S
C805 C804 1.524 . S
C805 C806 1.415 . S
C806 H782 0.950 . S
C806 C801 1.363 . S
C806 C805 1.415 . S
C807 H783 0.951 . S
C807 C808 1.366 . S
C807 C809 1.388 . S
C808 C807 1.366 . S
C808 C812 1.385 . S
C809 H784 0.951 . S
C809 C807 1.388 . S
C809 C810 1.366 . S
C810 C809 1.366 . S
C810 C811 1.414 . S
C810 C813 1.499 . S
C811 H785 0.950 . S
C811 C810 1.414 . S
C811 C812 1.374 . S
C812 H786 0.950 . S
C812 C808 1.385 . S
C812 C811 1.374 . S
C813 C810 1.499 . S
C813 C814 1.373 . S
C813 C815 1.389 . S
C814 H787 0.950 . S
C814 C800 1.377 . S
C814 C813 1.373 . S
C815 C799 1.377 . S
C815 C813 1.389 . S
C815 C816 1.524 . S
C816 C815 1.524 . S
C816 C817 1.397 . S
C816 C821 1.363 . S
C817 H788 0.950 . S
C817 C816 1.397 . S
C817 C818 1.334 . S
C818 H789 0.950 . S
C818 C817 1.334 . S
C818 C819 1.287 . S
C819 C818 1.287 . S
C819 C820 1.524 . S
C819 H822 0.999 . S
C820 H790 0.950 . S
C820 C819 1.524 . S
C820 C821 1.415 . S
C821 H791 0.950 . S
C821 C816 1.363 . S
C821 C820 1.415 . S
H822 C819 0.999 . S
H823 C804 0.913 . S
H824 C842 0.951 . S
H825 C844 0.951 . S
H826 C846 0.950 . S
H827 C847 0.950 . S
H828 C849 0.950 . S
H829 C852 0.950 . S
H830 C853 0.950 . S
H831 C855 0.950 . S
H832 C856 0.950 . S
H833 C857 0.951 . S
H834 C859 0.951 . S
H835 C861 0.950 . S
H836 C862 0.950 . S
H837 C864 0.950 . S
H838 C867 0.950 . S
H839 C868 0.950 . S
H840 C870 0.950 . S
H841 C871 0.950 . S
C842 H824 0.951 . S
C842 C843 1.366 . S
C842 C844 1.388 . S
C843 C842 1.366 . S
C843 C847 1.385 . S
C844 H825 0.951 . S
C844 C842 1.388 . S
C844 C845 1.366 . S
C845 C844 1.366 . S
C845 C846 1.414 . S
C845 C848 1.499 . S
C846 H826 0.950 . S
C846 C845 1.414 . S
C846 C847 1.374 . S
C847 H827 0.950 . S
C847 C843 1.385 . S
C847 C846 1.374 . S
C848 C845 1.499 . S
C848 C849 1.373 . S
C848 C850 1.389 . S
C849 H828 0.950 . S
C849 C848 1.373 . S
C849 C865 1.377 . S
C850 C848 1.389 . S
C850 C851 1.524 . S
C850 C864 1.377 . S
C851 C850 1.524 . S
C851 C852 1.397 . S
C851 C856 1.363 . S
C852 H829 0.950 . S
C852 C851 1.397 . S
C852 C853 1.334 . S
C853 H830 0.950 . S
C853 C852 1.334 . S
C853 C854 1.287 . S
C854 C853 1.287 . S
C854 C855 1.524 . S
C854 H873 0.913 . S
C855 H831 0.950 . S
C855 C854 1.524 . S
C855 C856 1.415 . S
C856 H832 0.950 . S
C856 C851 1.363 . S
C856 C855 1.415 . S
C857 H833 0.951 . S
C857 C858 1.366 . S
C857 C859 1.388 . S
C858 C857 1.366 . S
C858 C862 1.385 . S
C859 H834 0.951 . S
C859 C857 1.388 . S
C859 C860 1.366 . S
C860 C859 1.366 . S
C860 C861 1.414 . S
C860 C863 1.499 . S
C861 H835 0.950 . S
C861 C860 1.414 . S
C861 C862 1.374 . S
C862 H836 0.950 . S
C862 C858 1.385 . S
C862 C861 1.374 . S
C863 C860 1.499 . S
C863 C864 1.373 . S
C863 C865 1.389 . S
C864 H837 0.950 . S
C864 C850 1.377 . S
C864 C863 1.373 . S
C865 C849 1.377 . S
C865 C863 1.389 . S
C865 C866 1.524 . S
C866 C865 1.524 . S
C866 C867 1.397 . S
C866 C871 1.363 . S
C867 H838 0.950 . S
C867 C866 1.397 . S
C867 C868 1.334 . S
C868 H839 0.950 . S
C868 C867 1.334 . S
C868 C869 1.287 . S
C869 C868 1.287 . S
C869 C870 1.524 . S
C869 H872 0.999 . S
C870 H840 0.950 . S
C870 C869 1.524 . S
C870 C871 1.415 . S
C871 H841 0.950 . S
C871 C866 1.363 . S
C871 C870 1.415 . S
H872 C869 0.999 . S
H873 C854 0.913 . S
H874 C892 0.951 . S
H875 C894 0.951 . S
H876 C896 0.950 . S
H877 C897 0.950 . S
H878 C899 0.950 . S
H879 C902 0.950 . S
H880 C903 0.950 . S
H881 C905 0.950 . S
H882 C906 0.950 . S
H883 C907 0.951 . S
H884 C909 0.951 . S
H885 C911 0.950 . S
H886 C912 0.950 . S
H887 C914 0.950 . S
H888 C917 0.950 . S
H889 C918 0.950 . S
H890 C920 0.950 . S
H891 C921 0.950 . S
C892 H874 0.951 . S
C892 C893 1.366 . S
C892 C894 1.388 . S
C893 C892 1.366 . S
C893 C897 1.385 . S
C894 H875 0.951 . S
C894 C892 1.388 . S
C894 C895 1.366 . S
C895 C894 1.366 . S
C895 C896 1.414 . S
C895 C898 1.499 . S
C896 H876 0.950 . S
C896 C895 1.414 . S
C896 C897 1.374 . S
C897 H877 0.950 . S
C897 C893 1.385 . S
C897 C896 1.374 . S
C898 C895 1.499 . S
C898 C899 1.373 . S
C898 C900 1.389 . S
C899 H878 0.950 . S
C899 C898 1.373 . S
C899 C915 1.377 . S
C900 C898 1.389 . S
C900 C901 1.524 . S
C900 C914 1.377 . S
C901 C900 1.524 . S
C901 C902 1.397 . S
C901 C906 1.363 . S
C902 H879 0.950 . S
C902 C901 1.397 . S
C902 C903 1.334 . S
C903 H880 0.950 . S
C903 C902 1.334 . S
C903 C904 1.287 . S
C904 C903 1.287 . S
C904 C905 1.524 . S
C904 H923 0.913 . S
C905 H881 0.950 . S
C905 C904 1.524 . S
C905 C906 1.415 . S
C906 H882 0.950 . S
C906 C901 1.363 . S
C906 C905 1.415 . S
C907 H883 0.951 . S
C907 C908 1.366 . S
C907 C909 1.388 . S
C908 C907 1.366 . S
C908 C912 1.385 . S
C909 H884 0.951 . S
C909 C907 1.388 . S
C909 C910 1.366 . S
C910 C909 1.366 . S
C910 C911 1.414 . S
C910 C913 1.499 . S
C911 H885 0.950 . S
C911 C910 1.414 . S
C911 C912 1.374 . S
C912 H886 0.950 . S
C912 C908 1.385 . S
C912 C911 1.374 . S
C913 C910 1.499 . S
C913 C914 1.373 . S
C913 C915 1.389 . S
C914 H887 0.950 . S
C914 C900 1.377 . S
C914 C913 1.373 . S
C915 C899 1.377 . S
C915 C913 1.389 . S
C915 C916 1.524 . S
C916 C915 1.524 . S
C916 C917 1.397 . S
C916 C921 1.363 . S
C917 H888 0.950 . S
C917 C916 1.397 . S
C917 C918 1.334 . S
C918 H889 0.950 . S
C918 C917 1.334 . S
C918 C919 1.287 . S
C919 C918 1.287 . S
C919 C920 1.524 . S
C919 H922 0.999 . S
C920 H890 0.950 . S
C920 C919 1.524 . S
C920 C921 1.415 . S
C921 H891 0.950 . S
C921 C916 1.363 . S
C921 C920 1.415 . S
H922 C919 0.999 . S
H923 C904 0.913 . S
H924 C942 0.951 . S
H925 C944 0.951 . S
H926 C946 0.950 . S
H927 C947 0.950 . S
H928 C949 0.950 . S
H929 C952 0.950 . S
H930 C953 0.950 . S
H931 C955 0.950 . S
H932 C956 0.950 . S
H933 C957 0.951 . S
H934 C959 0.951 . S
H935 C961 0.950 . S
H936 C962 0.950 . S
H937 C964 0.950 . S
H938 C967 0.950 . S
H939 C968 0.950 . S
H940 C970 0.950 . S
H941 C971 0.950 . S
C942 H924 0.951 . S
C942 C943 1.366 . S
C942 C944 1.388 . S
C943 C942 1.366 . S
C943 C947 1.385 . S
C944 H925 0.951 . S
C944 C942 1.388 . S
C944 C945 1.366 . S
C945 C944 1.366 . S
C945 C946 1.414 . S
C945 C948 1.499 . S
C946 H926 0.950 . S
C946 C945 1.414 . S
C946 C947 1.374 . S
C947 H927 0.950 . S
C947 C943 1.385 . S
C947 C946 1.374 . S
C948 C945 1.499 . S
C948 C949 1.373 . S
C948 C950 1.389 . S
C949 H928 0.950 . S
C949 C948 1.373 . S
C949 C965 1.377 . S
C950 C948 1.389 . S
C950 C951 1.524 . S
C950 C964 1.377 . S
C951 C950 1.524 . S
C951 C952 1.397 . S
C951 C956 1.363 . S
C952 H929 0.950 . S
C952 C951 1.397 . S
C952 C953 1.334 . S
C953 H930 0.950 . S
C953 C952 1.334 . S
C953 C954 1.287 . S
C954 C953 1.287 . S
C954 C955 1.524 . S
C954 H973 0.913 . S
C955 H931 0.950 . S
C955 C954 1.524 . S
C955 C956 1.415 . S
C956 H932 0.950 . S
C956 C951 1.363 . S
C956 C955 1.415 . S
C957 H933 0.951 . S
C957 C958 1.366 . S
C957 C959 1.388 . S
C958 C957 1.366 . S
C958 C962 1.385 . S
C959 H934 0.951 . S
C959 C957 1.388 . S
C959 C960 1.366 . S
C960 C959 1.366 . S
C960 C961 1.414 . S
C960 C963 1.499 . S
C961 H935 0.950 . S
C961 C960 1.414 . S
C961 C962 1.374 . S
C962 H936 0.950 . S
C962 C958 1.385 . S
C962 C961 1.374 . S
C963 C960 1.499 . S
C963 C964 1.373 . S
C963 C965 1.389 . S
C964 H937 0.950 . S
C964 C950 1.377 . S
C964 C963 1.373 . S
C965 C949 1.377 . S
C965 C963 1.389 . S
C965 C966 1.524 . S
C966 C965 1.524 . S
C966 C967 1.397 . S
C966 C971 1.363 . S
C967 H938 0.950 . S
C967 C966 1.397 . S
C967 C968 1.334 . S
C968 H939 0.950 . S
C968 C967 1.334 . S
C968 C969 1.287 . S
C969 C968 1.287 . S
C969 C970 1.524 . S
C969 H972 0.999 . S
C970 H940 0.950 . S
C970 C969 1.524 . S
C970 C971 1.415 . S
C971 H941 0.950 . S
C971 C966 1.363 . S
C971 C970 1.415 . S
H972 C969 0.999 . S
H973 C954 0.913 . S
H974 C992 0.951 . S
H975 C994 0.951 . S
H976 C996 0.950 . S
H977 C997 0.950 . S
H978 C999 0.950 . S
H979 C1002 0.950 . S
H980 C1003 0.950 . S
H981 C1005 0.950 . S
H982 C1006 0.950 . S
H983 C1007 0.951 . S
H984 C1009 0.951 . S
H985 C1011 0.950 . S
H986 C1012 0.950 . S
H987 C1014 0.950 . S
H988 C1017 0.950 . S
H989 C1018 0.950 . S
H990 C1020 0.950 . S
H991 C1021 0.950 . S
C992 H974 0.951 . S
C992 C993 1.366 . S
C992 C994 1.388 . S
C993 C992 1.366 . S
C993 C997 1.385 . S
C994 H975 0.951 . S
C994 C992 1.388 . S
C994 C995 1.366 . S
C995 C994 1.366 . S
C995 C996 1.414 . S
C995 C998 1.499 . S
C996 H976 0.950 . S
C996 C995 1.414 . S
C996 C997 1.374 . S
C997 H977 0.950 . S
C997 C993 1.385 . S
C997 C996 1.374 . S
C998 C995 1.499 . S
C998 C999 1.373 . S
C998 C1000 1.389 . S
C999 H978 0.950 . S
C999 C998 1.373 . S
C999 C1015 1.377 . S
C1000 C998 1.389 . S
C1000 C1001 1.524 . S
C1000 C1014 1.377 . S
C1001 C1000 1.524 . S
C1001 C1002 1.397 . S
C1001 C1006 1.363 . S
C1002 H979 0.950 . S
C1002 C1001 1.397 . S
C1002 C1003 1.334 . S
C1003 H980 0.950 . S
C1003 C1002 1.334 . S
C1003 C1004 1.287 . S
C1004 C1003 1.287 . S
C1004 C1005 1.524 . S
C1004 H1023 0.913 . S
C1005 H981 0.950 . S
C1005 C1004 1.524 . S
C1005 C1006 1.415 . S
C1006 H982 0.950 . S
C1006 C1001 1.363 . S
C1006 C1005 1.415 . S
C1007 H983 0.951 . S
C1007 C1008 1.366 . S
C1007 C1009 1.388 . S
C1008 C1007 1.366 . S
C1008 C1012 1.385 . S
C1009 H984 0.951 . S
C1009 C1007 1.388 . S
C1009 C1010 1.366 . S
C1010 C1009 1.366 . S
C1010 C1011 1.414 . S
C1010 C1013 1.499 . S
C1011 H985 0.950 . S
C1011 C1010 1.414 . S
C1011 C1012 1.374 . S
C1012 H986 0.950 . S
C1012 C1008 1.385 . S
C1012 C1011 1.374 . S
C1013 C1010 1.499 . S
C1013 C1014 1.373 . S
C1013 C1015 1.389 . S
C1014 H987 0.950 . S
C1014 C1000 1.377 . S
C1014 C1013 1.373 . S
C1015 C999 1.377 . S
C1015 C1013 1.389 . S
C1015 C1016 1.524 . S
C1016 C1015 1.524 . S
C1016 C1017 1.397 . S
C1016 C1021 1.363 . S
C1017 H988 0.950 . S
C1017 C1016 1.397 . S
C1017 C1018 1.334 . S
C1018 H989 0.950 . S
C1018 C1017 1.334 . S
C1018 C1019 1.287 . S
C1019 C1018 1.287 . S
C1019 C1020 1.524 . S
C1019 H1022 0.999 . S
C1020 H990 0.950 . S
C1020 C1019 1.524 . S
C1020 C1021 1.415 . S
C1021 H991 0.950 . S
C1021 C1016 1.363 . S
C1021 C1020 1.415 . S
H1022 C1019 0.999 . S
H1023 C1004 0.913 . S
H1024 C1042 0.951 . S
H1025 C1044 0.951 . S
H1026 C1046 0.950 . S
H1027 C1047 0.950 . S
H1028 C1049 0.950 . S
H1029 C1052 0.950 . S
H1030 C1053 0.950 . S
H1031 C1055 0.950 . S
H1032 C1056 0.950 . S
H1033 C1057 0.951 . S
H1034 C1059 0.951 . S
H1035 C1061 0.950 . S
H1036 C1062 0.950 . S
H1037 C1064 0.950 . S
H1038 C1067 0.950 . S
H1039 C1068 0.950 . S
H1040 C1070 0.950 . S
H1041 C1071 0.950 . S
C1042 H1024 0.951 . S
C1042 C1043 1.366 . S
C1042 C1044 1.388 . S
C1043 C1042 1.366 . S
C1043 C1047 1.385 . S
C1044 H1025 0.951 . S
C1044 C1042 1.388 . S
C1044 C1045 1.366 . S
C1045 C1044 1.366 . S
C1045 C1046 1.414 . S
C1045 C1048 1.499 . S
C1046 H1026 0.950 . S
C1046 C1045 1.414 . S
C1046 C1047 1.374 . S
C1047 H1027 0.950 . S
C1047 C1043 1.385 . S
C1047 C1046 1.374 . S
C1048 C1045 1.499 . S
C1048 C1049 1.373 . S
C1048 C1050 1.389 . S
C1049 H1028 0.950 . S
C1049 C1048 1.373 . S
C1049 C1065 1.377 1_556 S
C1050 C1048 1.389 . S
C1050 C1051 1.524 . S
C1050 C1064 1.377 1_556 S
C1051 C1050 1.524 . S
C1051 C1052 1.397 . S
C1051 C1056 1.363 . S
C1052 H1029 0.950 . S
C1052 C1051 1.397 . S
C1052 C1053 1.334 . S
C1053 H1030 0.950 . S
C1053 C1052 1.334 . S
C1053 C1054 1.287 . S
C1054 C1053 1.287 . S
C1054 C1055 1.524 . S
C1054 H1073 0.913 . S
C1055 H1031 0.950 . S
C1055 C1054 1.524 . S
C1055 C1056 1.415 . S
C1056 H1032 0.950 . S
C1056 C1051 1.363 . S
C1056 C1055 1.415 . S
C1057 H1033 0.951 . S
C1057 C1058 1.366 . S
C1057 C1059 1.388 . S
C1058 C1057 1.366 . S
C1058 C1062 1.385 . S
C1059 H1034 0.951 . S
C1059 C1057 1.388 . S
C1059 C1060 1.366 . S
C1060 C1059 1.366 . S
C1060 C1061 1.414 . S
C1060 C1063 1.499 . S
C1061 H1035 0.950 . S
C1061 C1060 1.414 . S
C1061 C1062 1.374 . S
C1062 H1036 0.950 . S
C1062 C1058 1.385 . S
C1062 C1061 1.374 . S
C1063 C1060 1.499 . S
C1063 C1064 1.373 . S
C1063 C1065 1.389 . S
C1064 H1037 0.950 . S
C1064 C1050 1.377 1_554 S
C1064 C1063 1.373 . S
C1065 C1049 1.377 1_554 S
C1065 C1063 1.389 . S
C1065 C1066 1.524 . S
C1066 C1065 1.524 . S
C1066 C1067 1.397 . S
C1066 C1071 1.363 . S
C1067 H1038 0.950 . S
C1067 C1066 1.397 . S
C1067 C1068 1.334 . S
C1068 H1039 0.950 . S
C1068 C1067 1.334 . S
C1068 C1069 1.287 . S
C1069 C1068 1.287 . S
C1069 C1070 1.524 . S
C1069 H1072 0.999 . S
C1070 H1040 0.950 . S
C1070 C1069 1.524 . S
C1070 C1071 1.415 . S
C1071 H1041 0.950 . S
C1071 C1066 1.363 . S
C1071 C1070 1.415 . S
H1072 C1069 0.999 . S
H1073 C1054 0.913 . S
H1074 C1092 0.951 . S
H1075 C1094 0.951 . S
H1076 C1096 0.950 . S
H1077 C1097 0.950 . S
H1078 C1099 0.950 . S
H1079 C1102 0.950 . S
H1080 C1103 0.950 . S
H1081 C1105 0.950 . S
H1082 C1106 0.950 . S
H1083 C1107 0.951 . S
H1084 C1109 0.951 . S
H1085 C1111 0.950 . S
H1086 C1112 0.950 . S
H1087 C1114 0.950 . S
H1088 C1117 0.950 . S
H1089 C1118 0.950 . S
H1090 C1120 0.950 . S
H1091 C1121 0.950 . S
C1092 H1074 0.951 . S
C1092 C1093 1.366 . S
C1092 C1094 1.388 . S
C1093 C1092 1.366 . S
C1093 C1097 1.385 . S
C1094 H1075 0.951 . S
C1094 C1092 1.388 . S
C1094 C1095 1.366 . S
C1095 C1094 1.366 . S
C1095 C1096 1.414 . S
C1095 C1098 1.499 . S
C1096 H1076 0.950 . S
C1096 C1095 1.414 . S
C1096 C1097 1.374 . S
C1097 H1077 0.950 . S
C1097 C1093 1.385 . S
C1097 C1096 1.374 . S
C1098 C1095 1.499 . S
C1098 C1099 1.373 . S
C1098 C1100 1.389 . S
C1099 H1078 0.950 . S
C1099 C1098 1.373 . S
C1099 C1115 1.377 . S
C1100 C1098 1.389 . S
C1100 C1101 1.524 . S
C1100 C1114 1.377 . S
C1101 C1100 1.524 . S
C1101 C1102 1.397 . S
C1101 C1106 1.363 . S
C1102 H1079 0.950 . S
C1102 C1101 1.397 . S
C1102 C1103 1.334 . S
C1103 H1080 0.950 . S
C1103 C1102 1.334 . S
C1103 C1104 1.287 . S
C1104 C1103 1.287 . S
C1104 C1105 1.524 . S
C1104 H1123 0.913 . S
C1105 H1081 0.950 . S
C1105 C1104 1.524 . S
C1105 C1106 1.415 . S
C1106 H1082 0.950 . S
C1106 C1101 1.363 . S
C1106 C1105 1.415 . S
C1107 H1083 0.951 . S
C1107 C1108 1.366 . S
C1107 C1109 1.388 . S
C1108 C1107 1.366 . S
C1108 C1112 1.385 . S
C1109 H1084 0.951 . S
C1109 C1107 1.388 . S
C1109 C1110 1.366 . S
C1110 C1109 1.366 . S
C1110 C1111 1.414 . S
C1110 C1113 1.499 . S
C1111 H1085 0.950 . S
C1111 C1110 1.414 . S
C1111 C1112 1.374 . S
C1112 H1086 0.950 . S
C1112 C1108 1.385 . S
C1112 C1111 1.374 . S
C1113 C1110 1.499 . S
C1113 C1114 1.373 . S
C1113 C1115 1.389 . S
C1114 H1087 0.950 . S
C1114 C1100 1.377 . S
C1114 C1113 1.373 . S
C1115 C1099 1.377 . S
C1115 C1113 1.389 . S
C1115 C1116 1.524 . S
C1116 C1115 1.524 . S
C1116 C1117 1.397 . S
C1116 C1121 1.363 . S
C1117 H1088 0.950 . S
C1117 C1116 1.397 . S
C1117 C1118 1.334 . S
C1118 H1089 0.950 . S
C1118 C1117 1.334 . S
C1118 C1119 1.287 . S
C1119 C1118 1.287 . S
C1119 C1120 1.524 . S
C1119 H1122 0.999 . S
C1120 H1090 0.950 . S
C1120 C1119 1.524 . S
C1120 C1121 1.415 . S
C1121 H1091 0.950 . S
C1121 C1116 1.363 . S
C1121 C1120 1.415 . S
H1122 C1119 0.999 . S
H1123 C1104 0.913 . S
H1124 C1142 0.951 . S
H1125 C1144 0.951 . S
H1126 C1146 0.950 . S
H1127 C1147 0.950 . S
H1128 C1149 0.950 . S
H1129 C1152 0.950 . S
H1130 C1153 0.950 . S
H1131 C1155 0.950 . S
H1132 C1156 0.950 . S
H1133 C1157 0.951 . S
H1134 C1159 0.951 . S
H1135 C1161 0.950 . S
H1136 C1162 0.950 . S
H1137 C1164 0.950 . S
H1138 C1167 0.950 . S
H1139 C1168 0.950 . S
H1140 C1170 0.950 . S
H1141 C1171 0.950 . S
C1142 H1124 0.951 . S
C1142 C1143 1.366 . S
C1142 C1144 1.388 . S
C1143 C1142 1.366 . S
C1143 C1147 1.385 . S
C1144 H1125 0.951 . S
C1144 C1142 1.388 . S
C1144 C1145 1.366 . S
C1145 C1144 1.366 . S
C1145 C1146 1.414 . S
C1145 C1148 1.499 . S
C1146 H1126 0.950 . S
C1146 C1145 1.414 . S
C1146 C1147 1.374 . S
C1147 H1127 0.950 . S
C1147 C1143 1.385 . S
C1147 C1146 1.374 . S
C1148 C1145 1.499 . S
C1148 C1149 1.373 . S
C1148 C1150 1.389 . S
C1149 H1128 0.950 . S
C1149 C1148 1.373 . S
C1149 C1165 1.377 1_554 S
C1150 C1148 1.389 . S
C1150 C1151 1.524 . S
C1150 C1164 1.377 1_554 S
C1151 C1150 1.524 . S
C1151 C1152 1.397 . S
C1151 C1156 1.363 . S
C1152 H1129 0.950 . S
C1152 C1151 1.397 . S
C1152 C1153 1.334 . S
C1153 H1130 0.950 . S
C1153 C1152 1.334 . S
C1153 C1154 1.287 . S
C1154 C1153 1.287 . S
C1154 C1155 1.524 . S
C1154 H1173 0.913 . S
C1155 H1131 0.950 . S
C1155 C1154 1.524 . S
C1155 C1156 1.415 . S
C1156 H1132 0.950 . S
C1156 C1151 1.363 . S
C1156 C1155 1.415 . S
C1157 H1133 0.951 . S
C1157 C1158 1.366 . S
C1157 C1159 1.388 . S
C1158 C1157 1.366 . S
C1158 C1162 1.385 . S
C1159 H1134 0.951 . S
C1159 C1157 1.388 . S
C1159 C1160 1.366 . S
C1160 C1159 1.366 . S
C1160 C1161 1.414 . S
C1160 C1163 1.499 . S
C1161 H1135 0.950 . S
C1161 C1160 1.414 . S
C1161 C1162 1.374 . S
C1162 H1136 0.950 . S
C1162 C1158 1.385 . S
C1162 C1161 1.374 . S
C1163 C1160 1.499 . S
C1163 C1164 1.373 . S
C1163 C1165 1.389 . S
C1164 H1137 0.950 . S
C1164 C1150 1.377 1_556 S
C1164 C1163 1.373 . S
C1165 C1149 1.377 1_556 S
C1165 C1163 1.389 . S
C1165 C1166 1.524 . S
C1166 C1165 1.524 . S
C1166 C1167 1.397 . S
C1166 C1171 1.363 . S
C1167 H1138 0.950 . S
C1167 C1166 1.397 . S
C1167 C1168 1.334 . S
C1168 H1139 0.950 . S
C1168 C1167 1.334 . S
C1168 C1169 1.287 . S
C1169 C1168 1.287 . S
C1169 C1170 1.524 . S
C1169 H1172 0.999 . S
C1170 H1140 0.950 . S
C1170 C1169 1.524 . S
C1170 C1171 1.415 . S
C1171 H1141 0.950 . S
C1171 C1166 1.363 . S
C1171 C1170 1.415 . S
H1172 C1169 0.999 . S
H1173 C1154 0.913 . S
H1174 C1192 0.951 . S
H1175 C1194 0.951 . S
H1176 C1196 0.950 . S
H1177 C1197 0.950 . S
H1178 C1199 0.950 . S
H1179 C1202 0.950 . S
H1180 C1203 0.950 . S
H1181 C1205 0.950 . S
H1182 C1206 0.950 . S
H1183 C1207 0.951 . S
H1184 C1209 0.951 . S
H1185 C1211 0.950 . S
H1186 C1212 0.950 . S
H1187 C1214 0.950 . S
H1188 C1217 0.950 . S
H1189 C1218 0.950 . S
H1190 C1220 0.950 . S
H1191 C1221 0.950 . S
C1192 H1174 0.951 . S
C1192 C1193 1.366 . S
C1192 C1194 1.388 . S
C1193 C1192 1.366 . S
C1193 C1197 1.385 . S
C1194 H1175 0.951 . S
C1194 C1192 1.388 . S
C1194 C1195 1.366 . S
C1195 C1194 1.366 . S
C1195 C1196 1.414 . S
C1195 C1198 1.499 . S
C1196 H1176 0.950 . S
C1196 C1195 1.414 . S
C1196 C1197 1.374 . S
C1197 H1177 0.950 . S
C1197 C1193 1.385 . S
C1197 C1196 1.374 . S
C1198 C1195 1.499 . S
C1198 C1199 1.373 . S
C1198 C1200 1.389 . S
C1199 H1178 0.950 . S
C1199 C1198 1.373 . S
C1199 C1215 1.377 . S
C1200 C1198 1.389 . S
C1200 C1201 1.524 . S
C1200 C1214 1.377 . S
C1201 C1200 1.524 . S
C1201 C1202 1.397 . S
C1201 C1206 1.363 . S
C1202 H1179 0.950 . S
C1202 C1201 1.397 . S
C1202 C1203 1.334 . S
C1203 H1180 0.950 . S
C1203 C1202 1.334 . S
C1203 C1204 1.287 . S
C1204 C1203 1.287 . S
C1204 C1205 1.524 . S
C1204 H1223 0.913 . S
C1205 H1181 0.950 . S
C1205 C1204 1.524 . S
C1205 C1206 1.415 . S
C1206 H1182 0.950 . S
C1206 C1201 1.363 . S
C1206 C1205 1.415 . S
C1207 H1183 0.951 . S
C1207 C1208 1.366 . S
C1207 C1209 1.388 . S
C1208 C1207 1.366 . S
C1208 C1212 1.385 . S
C1209 H1184 0.951 . S
C1209 C1207 1.388 . S
C1209 C1210 1.366 . S
C1210 C1209 1.366 . S
C1210 C1211 1.414 . S
C1210 C1213 1.499 . S
C1211 H1185 0.950 . S
C1211 C1210 1.414 . S
C1211 C1212 1.374 . S
C1212 H1186 0.950 . S
C1212 C1208 1.385 . S
C1212 C1211 1.374 . S
C1213 C1210 1.499 . S
C1213 C1214 1.373 . S
C1213 C1215 1.389 . S
C1214 H1187 0.950 . S
C1214 C1200 1.377 . S
C1214 C1213 1.373 . S
C1215 C1199 1.377 . S
C1215 C1213 1.389 . S
C1215 C1216 1.524 . S
C1216 C1215 1.524 . S
C1216 C1217 1.397 . S
C1216 C1221 1.363 . S
C1217 H1188 0.950 . S
C1217 C1216 1.397 . S
C1217 C1218 1.334 . S
C1218 H1189 0.950 . S
C1218 C1217 1.334 . S
C1218 C1219 1.287 . S
C1219 C1218 1.287 . S
C1219 C1220 1.524 . S
C1219 H1222 0.999 . S
C1220 H1190 0.950 . S
C1220 C1219 1.524 . S
C1220 C1221 1.415 . S
C1221 H1191 0.950 . S
C1221 C1216 1.363 . S
C1221 C1220 1.415 . S
H1222 C1219 0.999 . S
H1223 C1204 0.913 . S
H1224 C1242 0.951 . S
H1225 C1244 0.951 . S
H1226 C1246 0.950 . S
H1227 C1247 0.950 . S
H1228 C1249 0.950 . S
H1229 C1252 0.950 . S
H1230 C1253 0.950 . S
H1231 C1255 0.950 . S
H1232 C1256 0.950 . S
H1233 C1257 0.951 . S
H1234 C1259 0.951 . S
H1235 C1261 0.950 . S
H1236 C1262 0.950 . S
H1237 C1264 0.950 . S
H1238 C1267 0.950 . S
H1239 C1268 0.950 . S
H1240 C1270 0.950 . S
H1241 C1271 0.950 . S
C1242 H1224 0.951 . S
C1242 C1243 1.366 . S
C1242 C1244 1.388 . S
C1243 C1242 1.366 . S
C1243 C1247 1.385 . S
C1244 H1225 0.951 . S
C1244 C1242 1.388 . S
C1244 C1245 1.366 . S
C1245 C1244 1.366 . S
C1245 C1246 1.414 . S
C1245 C1248 1.499 . S
C1246 H1226 0.950 . S
C1246 C1245 1.414 . S
C1246 C1247 1.374 . S
C1247 H1227 0.950 . S
C1247 C1243 1.385 . S
C1247 C1246 1.374 . S
C1248 C1245 1.499 . S
C1248 C1249 1.373 . S
C1248 C1250 1.389 . S
C1249 H1228 0.950 . S
C1249 C1248 1.373 . S
C1249 C1265 1.377 . S
C1250 C1248 1.389 . S
C1250 C1251 1.524 . S
C1250 C1264 1.377 . S
C1251 C1250 1.524 . S
C1251 C1252 1.397 . S
C1251 C1256 1.363 . S
C1252 H1229 0.950 . S
C1252 C1251 1.397 . S
C1252 C1253 1.334 . S
C1253 H1230 0.950 . S
C1253 C1252 1.334 . S
C1253 C1254 1.287 . S
C1254 C1253 1.287 . S
C1254 C1255 1.524 . S
C1254 H1273 0.913 . S
C1255 H1231 0.950 . S
C1255 C1254 1.524 . S
C1255 C1256 1.415 . S
C1256 H1232 0.950 . S
C1256 C1251 1.363 . S
C1256 C1255 1.415 . S
C1257 H1233 0.951 . S
C1257 C1258 1.366 . S
C1257 C1259 1.388 . S
C1258 C1257 1.366 . S
C1258 C1262 1.385 . S
C1259 H1234 0.951 . S
C1259 C1257 1.388 . S
C1259 C1260 1.366 . S
C1260 C1259 1.366 . S
C1260 C1261 1.414 . S
C1260 C1263 1.499 . S
C1261 H1235 0.950 . S
C1261 C1260 1.414 . S
C1261 C1262 1.374 . S
C1262 H1236 0.950 . S
C1262 C1258 1.385 . S
C1262 C1261 1.374 . S
C1263 C1260 1.499 . S
C1263 C1264 1.373 . S
C1263 C1265 1.389 . S
C1264 H1237 0.950 . S
C1264 C1250 1.377 . S
C1264 C1263 1.373 . S
C1265 C1249 1.377 . S
C1265 C1263 1.389 . S
C1265 C1266 1.524 . S
C1266 C1265 1.524 . S
C1266 C1267 1.397 . S
C1266 C1271 1.363 . S
C1267 H1238 0.950 . S
C1267 C1266 1.397 . S
C1267 C1268 1.334 . S
C1268 H1239 0.950 . S
C1268 C1267 1.334 . S
C1268 C1269 1.287 . S
C1269 C1268 1.287 . S
C1269 C1270 1.524 . S
C1269 H1272 0.999 . S
C1270 H1240 0.950 . S
C1270 C1269 1.524 . S
C1270 C1271 1.415 . S
C1271 H1241 0.950 . S
C1271 C1266 1.363 . S
C1271 C1270 1.415 . S
H1272 C1269 0.999 . S
H1273 C1254 0.913 . S
H1274 C1292 0.951 . S
H1275 C1294 0.951 . S
H1276 C1296 0.950 . S
H1277 C1297 0.950 . S
H1278 C1299 0.950 . S
H1279 C1302 0.950 . S
H1280 C1303 0.950 . S
H1281 C1305 0.950 . S
H1282 C1306 0.950 . S
H1283 C1307 0.951 . S
H1284 C1309 0.951 . S
H1285 C1311 0.950 . S
H1286 C1312 0.950 . S
H1287 C1314 0.950 . S
H1288 C1317 0.950 . S
H1289 C1318 0.950 . S
H1290 C1320 0.950 . S
H1291 C1321 0.950 . S
C1292 H1274 0.951 . S
C1292 C1293 1.366 . S
C1292 C1294 1.388 . S
C1293 C1292 1.366 . S
C1293 C1297 1.385 . S
C1294 H1275 0.951 . S
C1294 C1292 1.388 . S
C1294 C1295 1.366 . S
C1295 C1294 1.366 . S
C1295 C1296 1.414 . S
C1295 C1298 1.499 . S
C1296 H1276 0.950 . S
C1296 C1295 1.414 . S
C1296 C1297 1.374 . S
C1297 H1277 0.950 . S
C1297 C1293 1.385 . S
C1297 C1296 1.374 . S
C1298 C1295 1.499 . S
C1298 C1299 1.373 . S
C1298 C1300 1.389 . S
C1299 H1278 0.950 . S
C1299 C1298 1.373 . S
C1299 C1315 1.377 1_556 S
C1300 C1298 1.389 . S
C1300 C1301 1.524 . S
C1300 C1314 1.377 1_556 S
C1301 C1300 1.524 . S
C1301 C1302 1.397 . S
C1301 C1306 1.363 . S
C1302 H1279 0.950 . S
C1302 C1301 1.397 . S
C1302 C1303 1.334 . S
C1303 H1280 0.950 . S
C1303 C1302 1.334 . S
C1303 C1304 1.287 . S
C1304 C1303 1.287 . S
C1304 C1305 1.524 . S
C1304 H1323 0.913 . S
C1305 H1281 0.950 . S
C1305 C1304 1.524 . S
C1305 C1306 1.415 . S
C1306 H1282 0.950 . S
C1306 C1301 1.363 . S
C1306 C1305 1.415 . S
C1307 H1283 0.951 . S
C1307 C1308 1.366 . S
C1307 C1309 1.388 . S
C1308 C1307 1.366 . S
C1308 C1312 1.385 . S
C1309 H1284 0.951 . S
C1309 C1307 1.388 . S
C1309 C1310 1.366 . S
C1310 C1309 1.366 . S
C1310 C1311 1.414 . S
C1310 C1313 1.499 . S
C1311 H1285 0.950 . S
C1311 C1310 1.414 . S
C1311 C1312 1.374 . S
C1312 H1286 0.950 . S
C1312 C1308 1.385 . S
C1312 C1311 1.374 . S
C1313 C1310 1.499 . S
C1313 C1314 1.373 . S
C1313 C1315 1.389 . S
C1314 H1287 0.950 . S
C1314 C1300 1.377 1_554 S
C1314 C1313 1.373 . S
C1315 C1299 1.377 1_554 S
C1315 C1313 1.389 . S
C1315 C1316 1.524 . S
C1316 C1315 1.524 . S
C1316 C1317 1.397 . S
C1316 C1321 1.363 . S
C1317 H1288 0.950 . S
C1317 C1316 1.397 . S
C1317 C1318 1.334 . S
C1318 H1289 0.950 . S
C1318 C1317 1.334 . S
C1318 C1319 1.287 . S
C1319 C1318 1.287 . S
C1319 C1320 1.524 . S
C1319 H1322 0.999 . S
C1320 H1290 0.950 . S
C1320 C1319 1.524 . S
C1320 C1321 1.415 . S
C1321 H1291 0.950 . S
C1321 C1316 1.363 . S
C1321 C1320 1.415 . S
H1322 C1319 0.999 . S
H1323 C1304 0.913 . S
H1324 C1342 0.951 . S
H1325 C1344 0.951 . S
H1326 C1346 0.950 . S
H1327 C1347 0.950 . S
H1328 C1349 0.950 . S
H1329 C1352 0.950 . S
H1330 C1353 0.950 . S
H1331 C1355 0.950 . S
H1332 C1356 0.950 . S
H1333 C1357 0.951 . S
H1334 C1359 0.951 . S
H1335 C1361 0.950 . S
H1336 C1362 0.950 . S
H1337 C1364 0.950 . S
H1338 C1367 0.950 . S
H1339 C1368 0.950 . S
H1340 C1370 0.950 . S
H1341 C1371 0.950 . S
C1342 H1324 0.951 . S
C1342 C1343 1.366 . S
C1342 C1344 1.388 . S
C1343 C1342 1.366 . S
C1343 C1347 1.385 . S
C1344 H1325 0.951 . S
C1344 C1342 1.388 . S
C1344 C1345 1.366 . S
C1345 C1344 1.366 . S
C1345 C1346 1.414 . S
C1345 C1348 1.499 . S
C1346 H1326 0.950 . S
C1346 C1345 1.414 . S
C1346 C1347 1.374 . S
C1347 H1327 0.950 . S
C1347 C1343 1.385 . S
C1347 C1346 1.374 . S
C1348 C1345 1.499 . S
C1348 C1349 1.373 . S
C1348 C1350 1.389 . S
C1349 H1328 0.950 . S
C1349 C1348 1.373 . S
C1349 C1365 1.377 . S
C1350 C1348 1.389 . S
C1350 C1351 1.524 . S
C1350 C1364 1.377 . S
C1351 C1350 1.524 . S
C1351 C1352 1.397 . S
C1351 C1356 1.363 . S
C1352 H1329 0.950 . S
C1352 C1351 1.397 . S
C1352 C1353 1.334 . S
C1353 H1330 0.950 . S
C1353 C1352 1.334 . S
C1353 C1354 1.287 . S
C1354 C1353 1.287 . S
C1354 C1355 1.524 . S
C1354 H1373 0.913 . S
C1355 H1331 0.950 . S
C1355 C1354 1.524 . S
C1355 C1356 1.415 . S
C1356 H1332 0.950 . S
C1356 C1351 1.363 . S
C1356 C1355 1.415 . S
C1357 H1333 0.951 . S
C1357 C1358 1.366 . S
C1357 C1359 1.388 . S
C1358 C1357 1.366 . S
C1358 C1362 1.385 . S
C1359 H1334 0.951 . S
C1359 C1357 1.388 . S
C1359 C1360 1.366 . S
C1360 C1359 1.366 . S
C1360 C1361 1.414 . S
C1360 C1363 1.499 . S
C1361 H1335 0.950 . S
C1361 C1360 1.414 . S
C1361 C1362 1.374 . S
C1362 H1336 0.950 . S
C1362 C1358 1.385 . S
C1362 C1361 1.374 . S
C1363 C1360 1.499 . S
C1363 C1364 1.373 . S
C1363 C1365 1.389 . S
C1364 H1337 0.950 . S
C1364 C1350 1.377 . S
C1364 C1363 1.373 . S
C1365 C1349 1.377 . S
C1365 C1363 1.389 . S
C1365 C1366 1.524 . S
C1366 C1365 1.524 . S
C1366 C1367 1.397 . S
C1366 C1371 1.363 . S
C1367 H1338 0.950 . S
C1367 C1366 1.397 . S
C1367 C1368 1.334 . S
C1368 H1339 0.950 . S
C1368 C1367 1.334 . S
C1368 C1369 1.287 . S
C1369 C1368 1.287 . S
C1369 C1370 1.524 . S
C1369 H1372 0.999 . S
C1370 H1340 0.950 . S
C1370 C1369 1.524 . S
C1370 C1371 1.415 . S
C1371 H1341 0.950 . S
C1371 C1366 1.363 . S
C1371 C1370 1.415 . S
H1372 C1369 0.999 . S
H1373 C1354 0.913 . S
H1374 C1392 0.951 . S
H1375 C1394 0.951 . S
H1376 C1396 0.950 . S
H1377 C1397 0.950 . S
H1378 C1399 0.950 . S
H1379 C1402 0.950 . S
H1380 C1403 0.950 . S
H1381 C1405 0.950 . S
H1382 C1406 0.950 . S
H1383 C1407 0.951 . S
H1384 C1409 0.951 . S
H1385 C1411 0.950 . S
H1386 C1412 0.950 . S
H1387 C1414 0.950 . S
H1388 C1417 0.950 . S
H1389 C1418 0.950 . S
H1390 C1420 0.950 . S
H1391 C1421 0.950 . S
C1392 H1374 0.951 . S
C1392 C1393 1.366 . S
C1392 C1394 1.388 . S
C1393 C1392 1.366 . S
C1393 C1397 1.385 . S
C1394 H1375 0.951 . S
C1394 C1392 1.388 . S
C1394 C1395 1.366 . S
C1395 C1394 1.366 . S
C1395 C1396 1.414 . S
C1395 C1398 1.499 . S
C1396 H1376 0.950 . S
C1396 C1395 1.414 . S
C1396 C1397 1.374 . S
C1397 H1377 0.950 . S
C1397 C1393 1.385 . S
C1397 C1396 1.374 . S
C1398 C1395 1.499 . S
C1398 C1399 1.373 . S
C1398 C1400 1.389 . S
C1399 H1378 0.950 . S
C1399 C1398 1.373 . S
C1399 C1415 1.377 1_554 S
C1400 C1398 1.389 . S
C1400 C1401 1.524 . S
C1400 C1414 1.377 1_554 S
C1401 C1400 1.524 . S
C1401 C1402 1.397 . S
C1401 C1406 1.363 . S
C1402 H1379 0.950 . S
C1402 C1401 1.397 . S
C1402 C1403 1.334 . S
C1403 H1380 0.950 . S
C1403 C1402 1.334 . S
C1403 C1404 1.287 . S
C1404 C1403 1.287 . S
C1404 C1405 1.524 . S
C1404 H1423 0.913 . S
C1405 H1381 0.950 . S
C1405 C1404 1.524 . S
C1405 C1406 1.415 . S
C1406 H1382 0.950 . S
C1406 C1401 1.363 . S
C1406 C1405 1.415 . S
C1407 H1383 0.951 . S
C1407 C1408 1.366 . S
C1407 C1409 1.388 . S
C1408 C1407 1.366 . S
C1408 C1412 1.385 . S
C1409 H1384 0.951 . S
C1409 C1407 1.388 . S
C1409 C1410 1.366 . S
C1410 C1409 1.366 . S
C1410 C1411 1.414 . S
C1410 C1413 1.499 . S
C1411 H1385 0.950 . S
C1411 C1410 1.414 . S
C1411 C1412 1.374 . S
C1412 H1386 0.950 . S
C1412 C1408 1.385 . S
C1412 C1411 1.374 . S
C1413 C1410 1.499 . S
C1413 C1414 1.373 . S
C1413 C1415 1.389 . S
C1414 H1387 0.950 . S
C1414 C1400 1.377 1_556 S
C1414 C1413 1.373 . S
C1415 C1399 1.377 1_556 S
C1415 C1413 1.389 . S
C1415 C1416 1.524 . S
C1416 C1415 1.524 . S
C1416 C1417 1.397 . S
C1416 C1421 1.363 . S
C1417 H1388 0.950 . S
C1417 C1416 1.397 . S
C1417 C1418 1.334 . S
C1418 H1389 0.950 . S
C1418 C1417 1.334 . S
C1418 C1419 1.287 . S
C1419 C1418 1.287 . S
C1419 C1420 1.524 . S
C1419 H1422 0.999 . S
C1420 H1390 0.950 . S
C1420 C1419 1.524 . S
C1420 C1421 1.415 . S
C1421 H1391 0.950 . S
C1421 C1416 1.363 . S
C1421 C1420 1.415 . S
H1422 C1419 0.999 . S
H1423 C1404 0.913 . S
H1424 C1442 0.951 . S
H1425 C1444 0.951 . S
H1426 C1446 0.950 . S
H1427 C1447 0.950 . S
H1428 C1449 0.950 . S
H1429 C1452 0.950 . S
H1430 C1453 0.950 . S
H1431 C1455 0.950 . S
H1432 C1456 0.950 . S
H1433 C1457 0.951 . S
H1434 C1459 0.951 . S
H1435 C1461 0.950 . S
H1436 C1462 0.950 . S
H1437 C1464 0.950 . S
H1438 C1467 0.950 . S
H1439 C1468 0.950 . S
H1440 C1470 0.950 . S
H1441 C1471 0.950 . S
C1442 H1424 0.951 . S
C1442 C1443 1.366 . S
C1442 C1444 1.388 . S
C1443 C1442 1.366 . S
C1443 C1447 1.385 . S
C1444 H1425 0.951 . S
C1444 C1442 1.388 . S
C1444 C1445 1.366 . S
C1445 C1444 1.366 . S
C1445 C1446 1.414 . S
C1445 C1448 1.499 . S
C1446 H1426 0.950 . S
C1446 C1445 1.414 . S
C1446 C1447 1.374 . S
C1447 H1427 0.950 . S
C1447 C1443 1.385 . S
C1447 C1446 1.374 . S
C1448 C1445 1.499 . S
C1448 C1449 1.373 . S
C1448 C1450 1.389 . S
C1449 H1428 0.950 . S
C1449 C1448 1.373 . S
C1449 C1465 1.377 . S
C1450 C1448 1.389 . S
C1450 C1451 1.524 . S
C1450 C1464 1.377 . S
C1451 C1450 1.524 . S
C1451 C1452 1.397 . S
C1451 C1456 1.363 . S
C1452 H1429 0.950 . S
C1452 C1451 1.397 . S
C1452 C1453 1.334 . S
C1453 H1430 0.950 . S
C1453 C1452 1.334 . S
C1453 C1454 1.287 . S
C1454 C1453 1.287 . S
C1454 C1455 1.524 . S
C1454 H1473 0.913 . S
C1455 H1431 0.950 . S
C1455 C1454 1.524 . S
C1455 C1456 1.415 . S
C1456 H1432 0.950 . S
C1456 C1451 1.363 . S
C1456 C1455 1.415 . S
C1457 H1433 0.951 . S
C1457 C1458 1.366 . S
C1457 C1459 1.388 . S
C1458 C1457 1.366 . S
C1458 C1462 1.385 . S
C1459 H1434 0.951 . S
C1459 C1457 1.388 . S
C1459 C1460 1.366 . S
C1460 C1459 1.366 . S
C1460 C1461 1.414 . S
C1460 C1463 1.499 . S
C1461 H1435 0.950 . S
C1461 C1460 1.414 . S
C1461 C1462 1.374 . S
C1462 H1436 0.950 . S
C1462 C1458 1.385 . S
C1462 C1461 1.374 . S
C1463 C1460 1.499 . S
C1463 C1464 1.373 . S
C1463 C1465 1.389 . S
C1464 H1437 0.950 . S
C1464 C1450 1.377 . S
C1464 C1463 1.373 . S
C1465 C1449 1.377 . S
C1465 C1463 1.389 . S
C1465 C1466 1.524 . S
C1466 C1465 1.524 . S
C1466 C1467 1.397 . S
C1466 C1471 1.363 . S
C1467 H1438 0.950 . S
C1467 C1466 1.397 . S
C1467 C1468 1.334 . S
C1468 H1439 0.950 . S
C1468 C1467 1.334 . S
C1468 C1469 1.287 . S
C1469 C1468 1.287 . S
C1469 C1470 1.524 . S
C1469 H1472 0.999 . S
C1470 H1440 0.950 . S
C1470 C1469 1.524 . S
C1470 C1471 1.415 . S
C1471 H1441 0.950 . S
C1471 C1466 1.363 . S
C1471 C1470 1.415 . S
H1472 C1469 0.999 . S
H1473 C1454 0.913 . S
H1474 C1492 0.951 . S
H1475 C1494 0.951 . S
H1476 C1496 0.950 . S
H1477 C1497 0.950 . S
H1478 C1499 0.950 . S
H1479 C1502 0.950 . S
H1480 C1503 0.950 . S
H1481 C1505 0.950 . S
H1482 C1506 0.950 . S
H1483 C1507 0.951 . S
H1484 C1509 0.951 . S
H1485 C1511 0.950 . S
H1486 C1512 0.950 . S
H1487 C1514 0.950 . S
H1488 C1517 0.950 . S
H1489 C1518 0.950 . S
H1490 C1520 0.950 . S
H1491 C1521 0.950 . S
C1492 H1474 0.951 . S
C1492 C1493 1.366 . S
C1492 C1494 1.388 . S
C1493 C1492 1.366 . S
C1493 C1497 1.385 . S
C1494 H1475 0.951 . S
C1494 C1492 1.388 . S
C1494 C1495 1.366 . S
C1495 C1494 1.366 . S
C1495 C1496 1.414 . S
C1495 C1498 1.499 . S
C1496 H1476 0.950 . S
C1496 C1495 1.414 . S
C1496 C1497 1.374 . S
C1497 H1477 0.950 . S
C1497 C1493 1.385 . S
C1497 C1496 1.374 . S
C1498 C1495 1.499 . S
C1498 C1499 1.373 . S
C1498 C1500 1.389 . S
C1499 H1478 0.950 . S
C1499 C1498 1.373 . S
C1499 C1515 1.377 . S
C1500 C1498 1.389 . S
C1500 C1501 1.524 . S
C1500 C1514 1.377 . S
C1501 C1500 1.524 . S
C1501 C1502 1.397 . S
C1501 C1506 1.363 . S
C1502 H1479 0.950 . S
C1502 C1501 1.397 . S
C1502 C1503 1.334 . S
C1503 H1480 0.950 . S
C1503 C1502 1.334 . S
C1503 C1504 1.287 . S
C1504 C1503 1.287 . S
C1504 C1505 1.524 . S
C1504 H1523 0.913 . S
C1505 H1481 0.950 . S
C1505 C1504 1.524 . S
C1505 C1506 1.415 . S
C1506 H1482 0.950 . S
C1506 C1501 1.363 . S
C1506 C1505 1.415 . S
C1507 H1483 0.951 . S
C1507 C1508 1.366 . S
C1507 C1509 1.388 . S
C1508 C1507 1.366 . S
C1508 C1512 1.385 . S
C1509 H1484 0.951 . S
C1509 C1507 1.388 . S
C1509 C1510 1.366 . S
C1510 C1509 1.366 . S
C1510 C1511 1.414 . S
C1510 C1513 1.499 . S
C1511 H1485 0.950 . S
C1511 C1510 1.414 . S
C1511 C1512 1.374 . S
C1512 H1486 0.950 . S
C1512 C1508 1.385 . S
C1512 C1511 1.374 . S
C1513 C1510 1.499 . S
C1513 C1514 1.373 . S
C1513 C1515 1.389 . S
C1514 H1487 0.950 . S
C1514 C1500 1.377 . S
C1514 C1513 1.373 . S
C1515 C1499 1.377 . S
C1515 C1513 1.389 . S
C1515 C1516 1.524 . S
C1516 C1515 1.524 . S
C1516 C1517 1.397 . S
C1516 C1521 1.363 . S
C1517 H1488 0.950 . S
C1517 C1516 1.397 . S
C1517 C1518 1.334 . S
C1518 H1489 0.950 . S
C1518 C1517 1.334 . S
C1518 C1519 1.287 . S
C1519 C1518 1.287 . S
C1519 C1520 1.524 . S
C1519 H1522 0.999 . S
C1520 H1490 0.950 . S
C1520 C1519 1.524 . S
C1520 C1521 1.415 . S
C1521 H1491 0.950 . S
C1521 C1516 1.363 . S
C1521 C1520 1.415 . S
H1522 C1519 0.999 . S
H1523 C1504 0.913 . S
H1524 C1542 0.951 . S
H1525 C1544 0.951 . S
H1526 C1546 0.950 . S
H1527 C1547 0.950 . S
H1528 C1549 0.950 . S
H1529 C1552 0.950 . S
H1530 C1553 0.950 . S
H1531 C1555 0.950 . S
H1532 C1556 0.950 . S
H1533 C1557 0.951 . S
H1534 C1559 0.951 . S
H1535 C1561 0.950 . S
H1536 C1562 0.950 . S
H1537 C1564 0.950 . S
H1538 C1567 0.950 . S
H1539 C1568 0.950 . S
H1540 C1570 0.950 . S
H1541 C1571 0.950 . S
C1542 H1524 0.951 . S
C1542 C1543 1.366 . S
C1542 C1544 1.388 . S
C1543 C1542 1.366 . S
C1543 C1547 1.385 . S
C1544 H1525 0.951 . S
C1544 C1542 1.388 . S
C1544 C1545 1.366 . S
C1545 C1544 1.366 . S
C1545 C1546 1.414 . S
C1545 C1548 1.499 . S
C1546 H1526 0.950 . S
C1546 C1545 1.414 . S
C1546 C1547 1.374 . S
C1547 H1527 0.950 . S
C1547 C1543 1.385 . S
C1547 C1546 1.374 . S
C1548 C1545 1.499 . S
C1548 C1549 1.373 . S
C1548 C1550 1.389 . S
C1549 H1528 0.950 . S
C1549 C1548 1.373 . S
C1549 C1565 1.377 . S
C1550 C1548 1.389 . S
C1550 C1551 1.524 . S
C1550 C1564 1.377 . S
C1551 C1550 1.524 . S
C1551 C1552 1.397 . S
C1551 C1556 1.363 . S
C1552 H1529 0.950 . S
C1552 C1551 1.397 . S
C1552 C1553 1.334 . S
C1553 H1530 0.950 . S
C1553 C1552 1.334 . S
C1553 C1554 1.287 . S
C1554 C1553 1.287 . S
C1554 C1555 1.524 . S
C1554 H1573 0.913 . S
C1555 H1531 0.950 . S
C1555 C1554 1.524 . S
C1555 C1556 1.415 . S
C1556 H1532 0.950 . S
C1556 C1551 1.363 . S
C1556 C1555 1.415 . S
C1557 H1533 0.951 . S
C1557 C1558 1.366 . S
C1557 C1559 1.388 . S
C1558 C1557 1.366 . S
C1558 C1562 1.385 . S
C1559 H1534 0.951 . S
C1559 C1557 1.388 . S
C1559 C1560 1.366 . S
C1560 C1559 1.366 . S
C1560 C1561 1.414 . S
C1560 C1563 1.499 . S
C1561 H1535 0.950 . S
C1561 C1560 1.414 . S
C1561 C1562 1.374 . S
C1562 H1536 0.950 . S
C1562 C1558 1.385 . S
C1562 C1561 1.374 . S
C1563 C1560 1.499 . S
C1563 C1564 1.373 . S
C1563 C1565 1.389 . S
C1564 H1537 0.950 . S
C1564 C1550 1.377 . S
C1564 C1563 1.373 . S
C1565 C1549 1.377 . S
C1565 C1563 1.389 . S
C1565 C1566 1.524 . S
C1566 C1565 1.524 . S
C1566 C1567 1.397 . S
C1566 C1571 1.363 . S
C1567 H1538 0.950 . S
C1567 C1566 1.397 . S
C1567 C1568 1.334 . S
C1568 H1539 0.950 . S
C1568 C1567 1.334 . S
C1568 C1569 1.287 . S
C1569 C1568 1.287 . S
C1569 C1570 1.524 . S
C1569 H1572 0.999 . S
C1570 H1540 0.950 . S
C1570 C1569 1.524 . S
C1570 C1571 1.415 . S
C1571 H1541 0.950 . S
C1571 C1566 1.363 . S
C1571 C1570 1.415 . S
H1572 C1569 0.999 . S
H1573 C1554 0.913 . S
H1574 C1592 0.951 . S
H1575 C1594 0.951 . S
H1576 C1596 0.950 . S
H1577 C1597 0.950 . S
H1578 C1599 0.950 . S
H1579 C1602 0.950 . S
H1580 C1603 0.950 . S
H1581 C1605 0.950 . S
H1582 C1606 0.950 . S
H1583 C1607 0.951 . S
H1584 C1609 0.951 . S
H1585 C1611 0.950 . S
H1586 C1612 0.950 . S
H1587 C1614 0.950 . S
H1588 C1617 0.950 . S
H1589 C1618 0.950 . S
H1590 C1620 0.950 . S
H1591 C1621 0.950 . S
C1592 H1574 0.951 . S
C1592 C1593 1.366 . S
C1592 C1594 1.388 . S
C1593 C1592 1.366 . S
C1593 C1597 1.385 . S
C1594 H1575 0.951 . S
C1594 C1592 1.388 . S
C1594 C1595 1.366 . S
C1595 C1594 1.366 . S
C1595 C1596 1.414 . S
C1595 C1598 1.499 . S
C1596 H1576 0.950 . S
C1596 C1595 1.414 . S
C1596 C1597 1.374 . S
C1597 H1577 0.950 . S
C1597 C1593 1.385 . S
C1597 C1596 1.374 . S
C1598 C1595 1.499 . S
C1598 C1599 1.373 . S
C1598 C1600 1.389 . S
C1599 H1578 0.950 . S
C1599 C1598 1.373 . S
C1599 C1615 1.377 . S
C1600 C1598 1.389 . S
C1600 C1601 1.524 . S
C1600 C1614 1.377 . S
C1601 C1600 1.524 . S
C1601 C1602 1.397 . S
C1601 C1606 1.363 . S
C1602 H1579 0.950 . S
C1602 C1601 1.397 . S
C1602 C1603 1.334 . S
C1603 H1580 0.950 . S
C1603 C1602 1.334 . S
C1603 C1604 1.287 . S
C1604 C1603 1.287 . S
C1604 C1605 1.524 . S
C1604 H1623 0.913 . S
C1605 H1581 0.950 . S
C1605 C1604 1.524 . S
C1605 C1606 1.415 . S
C1606 H1582 0.950 . S
C1606 C1601 1.363 . S
C1606 C1605 1.415 . S
C1607 H1583 0.951 . S
C1607 C1608 1.366 . S
C1607 C1609 1.388 . S
C1608 C1607 1.366 . S
C1608 C1612 1.385 . S
C1609 H1584 0.951 . S
C1609 C1607 1.388 . S
C1609 C1610 1.366 . S
C1610 C1609 1.366 . S
C1610 C1611 1.414 . S
C1610 C1613 1.499 . S
C1611 H1585 0.950 . S
C1611 C1610 1.414 . S
C1611 C1612 1.374 . S
C1612 H1586 0.950 . S
C1612 C1608 1.385 . S
C1612 C1611 1.374 . S
C1613 C1610 1.499 . S
C1613 C1614 1.373 . S
C1613 C1615 1.389 . S
C1614 H1587 0.950 . S
C1614 C1600 1.377 . S
C1614 C1613 1.373 . S
C1615 C1599 1.377 . S
C1615 C1613 1.389 . S
C1615 C1616 1.524 . S
C1616 C1615 1.524 . S
C1616 C1617 1.397 . S
C1616 C1621 1.363 . S
C1617 H1588 0.950 . S
C1617 C1616 1.397 . S
C1617 C1618 1.334 . S
C1618 H1589 0.950 . S
C1618 C1617 1.334 . S
C1618 C1619 1.287 . S
C1619 C1618 1.287 . S
C1619 C1620 1.524 . S
C1619 H1622 0.999 . S
C1620 H1590 0.950 . S
C1620 C1619 1.524 . S
C1620 C1621 1.415 . S
C1621 H1591 0.950 . S
C1621 C1616 1.363 . S
C1621 C1620 1.415 . S
H1622 C1619 0.999 . S
H1623 C1604 0.913 . S
H1624 C1642 0.951 . S
H1625 C1644 0.951 . S
H1626 C1646 0.950 . S
H1627 C1647 0.950 . S
H1628 C1649 0.950 . S
H1629 C1652 0.950 . S
H1630 C1653 0.950 . S
H1631 C1655 0.950 . S
H1632 C1656 0.950 . S
H1633 C1657 0.951 . S
H1634 C1659 0.951 . S
H1635 C1661 0.950 . S
H1636 C1662 0.950 . S
H1637 C1664 0.950 . S
H1638 C1667 0.950 . S
H1639 C1668 0.950 . S
H1640 C1670 0.950 . S
H1641 C1671 0.950 . S
C1642 H1624 0.951 . S
C1642 C1643 1.366 . S
C1642 C1644 1.388 . S
C1643 C1642 1.366 . S
C1643 C1647 1.385 . S
C1644 H1625 0.951 . S
C1644 C1642 1.388 . S
C1644 C1645 1.366 . S
C1645 C1644 1.366 . S
C1645 C1646 1.414 . S
C1645 C1648 1.499 . S
C1646 H1626 0.950 . S
C1646 C1645 1.414 . S
C1646 C1647 1.374 . S
C1647 H1627 0.950 . S
C1647 C1643 1.385 . S
C1647 C1646 1.374 . S
C1648 C1645 1.499 . S
C1648 C1649 1.373 . S
C1648 C1650 1.389 . S
C1649 H1628 0.950 . S
C1649 C1648 1.373 . S
C1649 C1665 1.377 . S
C1650 C1648 1.389 . S
C1650 C1651 1.524 . S
C1650 C1664 1.377 . S
C1651 C1650 1.524 . S
C1651 C1652 1.397 . S
C1651 C1656 1.363 . S
C1652 H1629 0.950 . S
C1652 C1651 1.397 . S
C1652 C1653 1.334 . S
C1653 H1630 0.950 . S
C1653 C1652 1.334 . S
C1653 C1654 1.287 . S
C1654 C1653 1.287 . S
C1654 C1655 1.524 . S
C1654 H1673 0.913 . S
C1655 H1631 0.950 . S
C1655 C1654 1.524 . S
C1655 C1656 1.415 . S
C1656 H1632 0.950 . S
C1656 C1651 1.363 . S
C1656 C1655 1.415 . S
C1657 H1633 0.951 . S
C1657 C1658 1.366 . S
C1657 C1659 1.388 . S
C1658 C1657 1.366 . S
C1658 C1662 1.385 . S
C1659 H1634 0.951 . S
C1659 C1657 1.388 . S
C1659 C1660 1.366 . S
C1660 C1659 1.366 . S
C1660 C1661 1.414 . S
C1660 C1663 1.499 . S
C1661 H1635 0.950 . S
C1661 C1660 1.414 . S
C1661 C1662 1.374 . S
C1662 H1636 0.950 . S
C1662 C1658 1.385 . S
C1662 C1661 1.374 . S
C1663 C1660 1.499 . S
C1663 C1664 1.373 . S
C1663 C1665 1.389 . S
C1664 H1637 0.950 . S
C1664 C1650 1.377 . S
C1664 C1663 1.373 . S
C1665 C1649 1.377 . S
C1665 C1663 1.389 . S
C1665 C1666 1.524 . S
C1666 C1665 1.524 . S
C1666 C1667 1.397 . S
C1666 C1671 1.363 . S
C1667 H1638 0.950 . S
C1667 C1666 1.397 . S
C1667 C1668 1.334 . S
C1668 H1639 0.950 . S
C1668 C1667 1.334 . S
C1668 C1669 1.287 . S
C1669 C1668 1.287 . S
C1669 C1670 1.524 . S
C1669 H1672 0.999 . S
C1670 H1640 0.950 . S
C1670 C1669 1.524 . S
C1670 C1671 1.415 . S
C1671 H1641 0.950 . S
C1671 C1666 1.363 . S
C1671 C1670 1.415 . S
H1672 C1669 0.999 . S
H1673 C1654 0.913 . S
H1674 C1692 0.951 . S
H1675 C1694 0.951 . S
H1676 C1696 0.950 . S
H1677 C1697 0.950 . S
H1678 C1699 0.950 . S
H1679 C1702 0.950 . S
H1680 C1703 0.950 . S
H1681 C1705 0.950 . S
H1682 C1706 0.950 . S
H1683 C1707 0.951 . S
H1684 C1709 0.951 . S
H1685 C1711 0.950 . S
H1686 C1712 0.950 . S
H1687 C1714 0.950 . S
H1688 C1717 0.950 . S
H1689 C1718 0.950 . S
H1690 C1720 0.950 . S
H1691 C1721 0.950 . S
C1692 H1674 0.951 . S
C1692 C1693 1.366 . S
C1692 C1694 1.388 . S
C1693 C1692 1.366 . S
C1693 C1697 1.385 . S
C1694 H1675 0.951 . S
C1694 C1692 1.388 . S
C1694 C1695 1.366 . S
C1695 C1694 1.366 . S
C1695 C1696 1.414 . S
C1695 C1698 1.499 . S
C1696 H1676 0.950 . S
C1696 C1695 1.414 . S
C1696 C1697 1.374 . S
C1697 H1677 0.950 . S
C1697 C1693 1.385 . S
C1697 C1696 1.374 . S
C1698 C1695 1.499 . S
C1698 C1699 1.373 . S
C1698 C1700 1.389 . S
C1699 H1678 0.950 . S
C1699 C1698 1.373 . S
C1699 C1715 1.377 . S
C1700 C1698 1.389 . S
C1700 C1701 1.524 . S
C1700 C1714 1.377 . S
C1701 C1700 1.524 . S
C1701 C1702 1.397 . S
C1701 C1706 1.363 . S
C1702 H1679 0.950 . S
C1702 C1701 1.397 . S
C1702 C1703 1.334 . S
C1703 H1680 0.950 . S
C1703 C1702 1.334 . S
C1703 C1704 1.287 . S
C1704 C1703 1.287 . S
C1704 C1705 1.524 . S
C1704 H1723 0.913 . S
C1705 H1681 0.950 . S
C1705 C1704 1.524 . S
C1705 C1706 1.415 . S
C1706 H1682 0.950 . S
C1706 C1701 1.363 . S
C1706 C1705 1.415 . S
C1707 H1683 0.951 . S
C1707 C1708 1.366 . S
C1707 C1709 1.388 . S
C1708 C1707 1.366 . S
C1708 C1712 1.385 . S
C1709 H1684 0.951 . S
C1709 C1707 1.388 . S
C1709 C1710 1.366 . S
C1710 C1709 1.366 . S
C1710 C1711 1.414 . S
C1710 C1713 1.499 . S
C1711 H1685 0.950 . S
C1711 C1710 1.414 . S
C1711 C1712 1.374 . S
C1712 H1686 0.950 . S
C1712 C1708 1.385 . S
C1712 C1711 1.374 . S
C1713 C1710 1.499 . S
C1713 C1714 1.373 . S
C1713 C1715 1.389 . S
C1714 H1687 0.950 . S
C1714 C1700 1.377 . S
C1714 C1713 1.373 . S
C1715 C1699 1.377 . S
C1715 C1713 1.389 . S
C1715 C1716 1.524 . S
C1716 C1715 1.524 . S
C1716 C1717 1.397 . S
C1716 C1721 1.363 . S
C1717 H1688 0.950 . S
C1717 C1716 1.397 . S
C1717 C1718 1.334 . S
C1718 H1689 0.950 . S
C1718 C1717 1.334 . S
C1718 C1719 1.287 . S
C1719 C1718 1.287 . S
C1719 C1720 1.524 . S
C1719 H1722 0.999 . S
C1720 H1690 0.950 . S
C1720 C1719 1.524 . S
C1720 C1721 1.415 . S
C1721 H1691 0.950 . S
C1721 C1716 1.363 . S
C1721 C1720 1.415 . S
H1722 C1719 0.999 . S
H1723 C1704 0.913 . S
H1724 C1742 0.951 . S
H1725 C1744 0.951 . S
H1726 C1746 0.950 . S
H1727 C1747 0.950 . S
H1728 C1749 0.950 . S
H1729 C1752 0.950 . S
H1730 C1753 0.950 . S
H1731 C1755 0.950 . S
H1732 C1756 0.950 . S
H1733 C1757 0.951 . S
H1734 C1759 0.951 . S
H1735 C1761 0.950 . S
H1736 C1762 0.950 . S
H1737 C1764 0.950 . S
H1738 C1767 0.950 . S
H1739 C1768 0.950 . S
H1740 C1770 0.950 . S
H1741 C1771 0.950 . S
C1742 H1724 0.951 . S
C1742 C1743 1.366 . S
C1742 C1744 1.388 . S
C1743 C1742 1.366 . S
C1743 C1747 1.385 . S
C1744 H1725 0.951 . S
C1744 C1742 1.388 . S
C1744 C1745 1.366 . S
C1745 C1744 1.366 . S
C1745 C1746 1.414 . S
C1745 C1748 1.499 . S
C1746 H1726 0.950 . S
C1746 C1745 1.414 . S
C1746 C1747 1.374 . S
C1747 H1727 0.950 . S
C1747 C1743 1.385 . S
C1747 C1746 1.374 . S
C1748 C1745 1.499 . S
C1748 C1749 1.373 . S
C1748 C1750 1.389 . S
C1749 H1728 0.950 . S
C1749 C1748 1.373 . S
C1749 C1765 1.377 . S
C1750 C1748 1.389 . S
C1750 C1751 1.524 . S
C1750 C1764 1.377 . S
C1751 C1750 1.524 . S
C1751 C1752 1.397 . S
C1751 C1756 1.363 . S
C1752 H1729 0.950 . S
C1752 C1751 1.397 . S
C1752 C1753 1.334 . S
C1753 H1730 0.950 . S
C1753 C1752 1.334 . S
C1753 C1754 1.287 . S
C1754 C1753 1.287 . S
C1754 C1755 1.524 . S
C1754 H1773 0.913 . S
C1755 H1731 0.950 . S
C1755 C1754 1.524 . S
C1755 C1756 1.415 . S
C1756 H1732 0.950 . S
C1756 C1751 1.363 . S
C1756 C1755 1.415 . S
C1757 H1733 0.951 . S
C1757 C1758 1.366 . S
C1757 C1759 1.388 . S
C1758 C1757 1.366 . S
C1758 C1762 1.385 . S
C1759 H1734 0.951 . S
C1759 C1757 1.388 . S
C1759 C1760 1.366 . S
C1760 C1759 1.366 . S
C1760 C1761 1.414 . S
C1760 C1763 1.499 . S
C1761 H1735 0.950 . S
C1761 C1760 1.414 . S
C1761 C1762 1.374 . S
C1762 H1736 0.950 . S
C1762 C1758 1.385 . S
C1762 C1761 1.374 . S
C1763 C1760 1.499 . S
C1763 C1764 1.373 . S
C1763 C1765 1.389 . S
C1764 H1737 0.950 . S
C1764 C1750 1.377 . S
C1764 C1763 1.373 . S
C1765 C1749 1.377 . S
C1765 C1763 1.389 . S
C1765 C1766 1.524 . S
C1766 C1765 1.524 . S
C1766 C1767 1.397 . S
C1766 C1771 1.363 . S
C1767 H1738 0.950 . S
C1767 C1766 1.397 . S
C1767 C1768 1.334 . S
C1768 H1739 0.950 . S
C1768 C1767 1.334 . S
C1768 C1769 1.287 . S
C1769 C1768 1.287 . S
C1769 C1770 1.524 . S
C1769 H1772 0.999 . S
C1770 H1740 0.950 . S
C1770 C1769 1.524 . S
C1770 C1771 1.415 . S
C1771 H1741 0.950 . S
C1771 C1766 1.363 . S
C1771 C1770 1.415 . S
H1772 C1769 0.999 . S
H1773 C1754 0.913 . S
H1774 C1792 0.951 . S
H1775 C1794 0.951 . S
H1776 C1796 0.950 . S
H1777 C1797 0.950 . S
H1778 C1799 0.950 . S
H1779 C1802 0.950 . S
H1780 C1803 0.950 . S
H1781 C1805 0.950 . S
H1782 C1806 0.950 . S
H1783 C1807 0.951 . S
H1784 C1809 0.951 . S
H1785 C1811 0.950 . S
H1786 C1812 0.950 . S
H1787 C1814 0.950 . S
H1788 C1817 0.950 . S
H1789 C1818 0.950 . S
H1790 C1820 0.950 . S
H1791 C1821 0.950 . S
C1792 H1774 0.951 . S
C1792 C1793 1.366 . S
C1792 C1794 1.388 . S
C1793 C1792 1.366 . S
C1793 C1797 1.385 . S
C1794 H1775 0.951 . S
C1794 C1792 1.388 . S
C1794 C1795 1.366 . S
C1795 C1794 1.366 . S
C1795 C1796 1.414 . S
C1795 C1798 1.499 . S
C1796 H1776 0.950 . S
C1796 C1795 1.414 . S
C1796 C1797 1.374 . S
C1797 H1777 0.950 . S
C1797 C1793 1.385 . S
C1797 C1796 1.374 . S
C1798 C1795 1.499 . S
C1798 C1799 1.373 . S
C1798 C1800 1.389 . S
C1799 H1778 0.950 . S
C1799 C1798 1.373 . S
C1799 C1815 1.377 . S
C1800 C1798 1.389 . S
C1800 C1801 1.524 . S
C1800 C1814 1.377 . S
C1801 C1800 1.524 . S
C1801 C1802 1.397 . S
C1801 C1806 1.363 . S
C1802 H1779 0.950 . S
C1802 C1801 1.397 . S
C1802 C1803 1.334 . S
C1803 H1780 0.950 . S
C1803 C1802 1.334 . S
C1803 C1804 1.287 . S
C1804 C1803 1.287 . S
C1804 C1805 1.524 . S
C1804 H1823 0.913 . S
C1805 H1781 0.950 . S
C1805 C1804 1.524 . S
C1805 C1806 1.415 . S
C1806 H1782 0.950 . S
C1806 C1801 1.363 . S
C1806 C1805 1.415 . S
C1807 H1783 0.951 . S
C1807 C1808 1.366 . S
C1807 C1809 1.388 . S
C1808 C1807 1.366 . S
C1808 C1812 1.385 . S
C1809 H1784 0.951 . S
C1809 C1807 1.388 . S
C1809 C1810 1.366 . S
C1810 C1809 1.366 . S
C1810 C1811 1.414 . S
C1810 C1813 1.499 . S
C1811 H1785 0.950 . S
C1811 C1810 1.414 . S
C1811 C1812 1.374 . S
C1812 H1786 0.950 . S
C1812 C1808 1.385 . S
C1812 C1811 1.374 . S
C1813 C1810 1.499 . S
C1813 C1814 1.373 . S
C1813 C1815 1.389 . S
C1814 H1787 0.950 . S
C1814 C1800 1.377 . S
C1814 C1813 1.373 . S
C1815 C1799 1.377 . S
C1815 C1813 1.389 . S
C1815 C1816 1.524 . S
C1816 C1815 1.524 . S
C1816 C1817 1.397 . S
C1816 C1821 1.363 . S
C1817 H1788 0.950 . S
C1817 C1816 1.397 . S
C1817 C1818 1.334 . S
C1818 H1789 0.950 . S
C1818 C1817 1.334 . S
C1818 C1819 1.287 . S
C1819 C1818 1.287 . S
C1819 C1820 1.524 . S
C1819 H1822 0.999 . S
C1820 H1790 0.950 . S
C1820 C1819 1.524 . S
C1820 C1821 1.415 . S
C1821 H1791 0.950 . S
C1821 C1816 1.363 . S
C1821 C1820 1.415 . S
H1822 C1819 0.999 . S
H1823 C1804 0.913 . S
C243 C9 1.320 . S
C258 C37 1.320 . S
C293 C51 1.320 . S
C308 C23 1.320 . S
C343 C65 1.320 . S
C358 C93 1.320 . S
C393 C107 1.320 . S
C408 C79 1.320 . S
C443 C121 1.320 . S
C458 C149 1.320 . S
C493 C163 1.319 . S
C508 C135 1.319 . S
C543 C177 1.320 . S
C558 C205 1.320 . S
C593 C219 1.320 . S
C608 C191 1.320 . S
C643 C59 1.136 . S
C658 C3 1.136 . S
C693 C17 1.137 . S
C708 C73 1.136 . S
C743 C31 1.135 . S
C758 C87 1.136 . S
C793 C101 1.137 . S
C808 C45 1.136 . S
C843 C115 1.136 . S
C858 C171 1.137 . S
C893 C129 1.136 . S
C908 C185 1.136 . S
C943 C143 1.135 . S
C958 C199 1.135 . S
C993 C157 1.136 . S
C1008 C213 1.136 . S
C1043 C147 1.119 . S
C1058 C7 1.120 . S
C1093 C161 1.120 . S
C1108 C21 1.120 . S
C1143 C35 1.119 . S
C1158 C119 1.120 . S
C1193 C49 1.120 . S
C1208 C133 1.119 . S
C1243 C63 1.120 . S
C1258 C203 1.119 . S
C1293 C77 1.120 . S
C1308 C217 1.120 . S
C1343 C91 1.119 . S
C1358 C175 1.120 . S
C1393 C189 1.120 . S
C1408 C105 1.119 . S
C1443 C8 1.349 . S
C1458 C218 1.349 . S
C1493 C176 1.349 . S
C1508 C22 1.349 . S
C1543 C36 1.349 . S
C1558 C190 1.349 . S
C1593 C204 1.349 . S
C1608 C50 1.349 . S
C1643 C134 1.349 . S
C1658 C64 1.349 . S
C1693 C78 1.349 . S
C1708 C148 1.349 . S
C1743 C162 1.349 . S
C1758 C92 1.349 . S
C1793 C120 1.349 . S
C1808 C106 1.349 . S
