# Generated by pormake.
# Topology ukg, (4)-cn, num edge types: 1
# Building blocks:
#     Node 0, Type 0, BuildingBlock: GALJAG_clean_sbu_0, # of connection points: 4
#     Node 1, Type 0, BuildingBlock: GALJAG_clean_sbu_0, # of connection points: 4
#     Node 2, Type 0, BuildingBlock: GALJAG_clean_sbu_0, # of connection points: 4
#     Node 3, Type 0, BuildingBlock: GALJAG_clean_sbu_0, # of connection points: 4
#     Node 4, Type 0, BuildingBlock: GALJAG_clean_sbu_0, # of connection points: 4
#     Node 5, Type 0, BuildingBlock: GALJAG_clean_sbu_0, # of connection points: 4
#     Node 6, Type 0, BuildingBlock: GALJAG_clean_sbu_0, # of connection points: 4
#     Node 7, Type 0, BuildingBlock: GALJAG_clean_sbu_0, # of connection points: 4
#     Edge 8, Type (0, 0), BuildingBlock: XIVTED_clean_linker_0, # of connection points: 2
#     Edge 9, Type (0, 0), BuildingBlock: XIVTED_clean_linker_0, # of connection points: 2
#     Edge 10, Type (0, 0), BuildingBlock: XIVTED_clean_linker_0, # of connection points: 2
#     Edge 11, Type (0, 0), BuildingBlock: XIVTED_clean_linker_0, # of connection points: 2
#     Edge 12, Type (0, 0), BuildingBlock: XIVTED_clean_linker_0, # of connection points: 2
#     Edge 13, Type (0, 0), BuildingBlock: XIVTED_clean_linker_0, # of connection points: 2
#     Edge 14, Type (0, 0), BuildingBlock: XIVTED_clean_linker_0, # of connection points: 2
#     Edge 15, Type (0, 0), BuildingBlock: XIVTED_clean_linker_0, # of connection points: 2
#     Edge 16, Type (0, 0), BuildingBlock: XIVTED_clean_linker_0, # of connection points: 2
#     Edge 17, Type (0, 0), BuildingBlock: XIVTED_clean_linker_0, # of connection points: 2
#     Edge 18, Type (0, 0), BuildingBlock: XIVTED_clean_linker_0, # of connection points: 2
#     Edge 19, Type (0, 0), BuildingBlock: XIVTED_clean_linker_0, # of connection points: 2
#     Edge 20, Type (0, 0), BuildingBlock: XIVTED_clean_linker_0, # of connection points: 2
#     Edge 21, Type (0, 0), BuildingBlock: XIVTED_clean_linker_0, # of connection points: 2
#     Edge 22, Type (0, 0), BuildingBlock: XIVTED_clean_linker_0, # of connection points: 2
#     Edge 23, Type (0, 0), BuildingBlock: XIVTED_clean_linker_0, # of connection points: 2
# Relax obj value: 0.111
# Max RMSD: 0.188
# Mean RMSD: 0.187
data_MOF--net-ukg--node1-GALJAG_clean_sbu_0--edge1-XIVTED_clean_linker_0
_symmetry_space_group_name_H-M    P1
_symmetry_Int_Tables_number       1
_symmetry_cell_setting            triclinic
loop_
_symmetry_equiv_pos_as_xyz
'x, y, z'
_cell_length_a     30.173765
_cell_length_b     30.196844
_cell_length_c     38.897027
_cell_angle_alpha  90.080589
_cell_angle_beta   89.978692
_cell_angle_gamma 90.023917
loop_
_atom_site_label
_atom_site_type_symbol
_atom_site_fract_x
_atom_site_fract_y
_atom_site_fract_z
_atom_type_partial_charge
In0 In -0.00088 0.66934 0.14556 0.0
O1 O 0.97989 0.64831 0.09076 0.0
O2 O 0.00159 0.59865 0.12533 0.0
C3 C 0.96228 0.75012 0.14994 0.0
C4 C 0.08512 0.69001 0.1397 0.0
C5 C 0.96178 0.64216 0.20484 0.0
O6 O 0.94334 0.71854 0.13431 0.0
O7 O 7e-05 0.74112 0.16189 0.0
O8 O 0.00309 0.63971 0.19996 0.0
O9 O 0.93984 0.65631 0.17962 0.0
C10 C 0.98874 0.60792 0.09542 0.0
O11 O 0.07139 0.66215 0.16146 0.0
O12 O 0.05567 0.70663 0.12066 0.0
In13 In 0.30369 0.49661 0.63801 0.0
O14 O 0.29355 0.56232 0.66622 0.0
O15 O 0.28002 0.55964 0.6126 0.0
C16 C 0.34026 0.46729 0.69718 0.0
C17 C 0.36554 0.49304 0.58798 0.0
C18 C 0.22851 0.44855 0.63176 0.0
O19 O 0.30044 0.4797 0.69548 0.0
O20 O 0.36149 0.47035 0.6694 0.0
O21 O 0.26585 0.43055 0.63627 0.0
O22 O 0.23005 0.48987 0.62772 0.0
C23 C 0.28081 0.58263 0.63965 0.0
O24 O 0.33086 0.46947 0.58673 0.0
O25 O 0.3685 0.51752 0.61411 0.0
In26 In 0.48302 0.81911 0.14637 0.0
O27 O 0.50064 0.83974 0.09122 0.0
O28 O 0.48155 0.88993 0.12634 0.0
C29 C 0.52047 0.73854 0.14994 0.0
C30 C 0.39704 0.79814 0.14075 0.0
C31 C 0.51984 0.84639 0.20588 0.0
O32 O 0.53948 0.7706 0.13505 0.0
O33 O 0.48245 0.74702 0.16173 0.0
O34 O 0.47856 0.84869 0.20081 0.0
O35 O 0.54203 0.83218 0.18076 0.0
C36 C 0.4929 0.88032 0.09611 0.0
O37 O 0.41069 0.82627 0.16238 0.0
O38 O 0.42654 0.78141 0.12178 0.0
In39 In 0.18291 0.99007 0.63914 0.0
O40 O 0.1838 0.92389 0.66699 0.0
O41 O 0.19897 0.92484 0.6134 0.0
C42 C 0.16146 0.03821 0.6951 0.0
C43 C 0.11704 -0.00208 0.59247 0.0
C44 C 0.26702 0.01973 0.63484 0.0
O45 O 0.15538 -0.00317 0.69395 0.0
O46 O 0.17647 0.05496 0.66783 0.0
O47 O 0.23499 0.04029 0.62134 0.0
O48 O 0.25674 0.98333 0.64847 0.0
C49 C 0.19459 0.90217 0.64046 0.0
O50 O 0.15727 0.00385 0.58481 0.0
O51 O 0.11011 0.98929 0.62371 0.0
In52 In 0.98919 0.31976 0.85599 0.0
O53 O 0.91569 0.32433 0.84237 0.0
O54 O 0.93644 0.27237 0.87545 0.0
C55 C 0.01017 0.34467 0.7913 0.0
C56 C 0.99364 0.3802 0.90741 0.0
C57 C 0.05028 0.25501 0.85815 0.0
O58 O 0.99366 0.30734 0.79805 0.0
O59 O 0.01448 0.37001 0.81688 0.0
O60 O 0.06073 0.29524 0.85422 0.0
O61 O 0.00967 0.24833 0.86382 0.0
C62 C 0.90494 0.29093 0.85992 0.0
O63 O 0.01091 0.34229 0.90998 0.0
O64 O 0.97501 0.38749 0.87905 0.0
In65 In 0.6752 0.48751 0.36604 0.0
O66 O 0.68432 0.42054 0.34049 0.0
O67 O 0.69327 0.42478 0.39478 0.0
C68 C 0.65 0.52674 0.30694 0.0
C69 C 0.60878 0.49727 0.41216 0.0
C70 C 0.75702 0.52304 0.36997 0.0
O71 O 0.64011 0.48704 0.31357 0.0
O72 O 0.67127 0.54641 0.33022 0.0
O73 O 0.72299 0.54344 0.38046 0.0
O74 O 0.7498 0.48416 0.35958 0.0
C75 C 0.69369 0.40078 0.36816 0.0
O76 O 0.64839 0.50744 0.41908 0.0
O77 O 0.60278 0.48339 0.38198 0.0
In78 In 0.50547 0.1683 0.85842 0.0
O79 O 0.48433 0.14902 0.91326 0.0
O80 O 0.50324 0.09792 0.87886 0.0
C81 C 0.47197 0.25027 0.85122 0.0
C82 C 0.59185 0.18645 0.86637 0.0
C83 C 0.47104 0.13916 0.79871 0.0
O84 O 0.45124 0.22041 0.86747 0.0
O85 O 0.50949 0.23886 0.83999 0.0
O86 O 0.51169 0.13479 0.80565 0.0
O87 O 0.44804 0.15652 0.82217 0.0
C88 C 0.49087 0.10814 0.90873 0.0
O89 O 0.57803 0.15985 0.84369 0.0
O90 O 0.56226 0.20301 0.88536 0.0
In91 In 0.80809 -0.00276 0.37014 0.0
O92 O 0.80053 0.06324 0.34295 0.0
O93 O 0.79004 0.06149 0.39711 0.0
C94 C 0.8356 0.95917 0.31115 0.0
C95 C 0.87248 0.98725 0.41797 0.0
C96 C 0.72656 0.96067 0.37251 0.0
O97 O 0.84553 -0.0014 0.31879 0.0
O98 O 0.81304 0.93907 0.33346 0.0
O99 O 0.76072 0.94019 0.38254 0.0
O100 O 0.73344 0.00013 0.36345 0.0
C101 C 0.79066 0.08432 0.36994 0.0
O102 O 0.83201 0.9816 0.42494 0.0
O103 O 0.88019 -0.00342 0.38702 0.0
H104 H 0.02531 0.37093 0.97309 0.0
H105 H 0.96207 0.61888 0.02862 0.0
H106 H 0.96196 0.46469 0.90546 0.0
H107 H 0.01182 0.52072 0.09927 0.0
H108 H 0.96322 0.56331 0.98274 0.0
H109 H 0.02292 0.4261 0.0193 0.0
C110 C 0.01105 0.40316 0.96796 0.0
C111 C 0.99384 0.41328 0.93543 0.0
C112 C 0.97373 0.55388 0.00831 0.0
C113 C 0.99086 0.47647 0.98807 0.0
C114 C 0.973 0.58558 0.0345 0.0
C115 C 0.98685 0.57438 0.06777 0.0
C116 C 0.98864 0.51073 0.01543 0.0
C117 C 0.00081 0.53076 0.07397 0.0
C118 C 0.00955 0.43459 0.99434 0.0
C119 C 0.97561 0.45549 0.93017 0.0
N120 N 0.0015 0.50059 0.04803 0.0
N121 N 0.97463 0.48552 0.95619 0.0
H122 H 0.36509 0.45138 0.52499 0.0
H123 H 0.61172 0.52943 0.47795 0.0
H124 H 0.44546 0.53441 0.5904 0.0
H125 H 0.52367 0.46812 0.40457 0.0
H126 H 0.55204 0.52833 0.52054 0.0
H127 H 0.42396 0.45334 0.48139 0.0
C128 C 0.39511 0.46989 0.53018 0.0
C129 C 0.40042 0.49275 0.56131 0.0
C130 C 0.54569 0.51527 0.49507 0.0
C131 C 0.46771 0.49512 0.51181 0.0
C132 C 0.57976 0.51593 0.47078 0.0
C133 C 0.57259 0.49891 0.43771 0.0
C134 C 0.50426 0.49712 0.48632 0.0
C135 C 0.53056 0.4817 0.42978 0.0
C136 C 0.42861 0.47114 0.5053 0.0
C137 C 0.43992 0.51635 0.56673 0.0
N138 N 0.49803 0.48106 0.45396 0.0
N139 N 0.47203 0.51683 0.5423 0.0
H140 H 0.51169 0.8675 0.02794 0.0
H141 H 0.47109 0.12162 0.97682 0.0
H142 H 0.47631 0.96897 0.10118 0.0
H143 H 0.50445 0.01915 0.90384 0.0
H144 H 0.47181 0.0662 0.02278 0.0
H145 H 0.50948 0.92287 0.98211 0.0
C146 C 0.50371 0.90149 0.03438 0.0
C147 C 0.49422 0.91368 0.06838 0.0
C148 C 0.47879 0.05583 0.99668 0.0
C149 C 0.49128 0.97718 0.0161 0.0
C150 C 0.47822 0.08743 0.97044 0.0
C151 C 0.48774 0.07496 0.9365 0.0
C152 C 0.48904 0.01151 0.98887 0.0
C153 C 0.49693 0.03023 0.92967 0.0
C154 C 0.50229 0.93307 0.00821 0.0
C155 C 0.4839 0.95815 0.0753 0.0
N156 N 0.49748 0.00019 0.95561 0.0
N157 N 0.48265 0.98827 0.04939 0.0
H158 H 0.86477 0.97318 0.4874 0.0
H159 H 0.12378 0.01192 0.52317 0.0
H160 H 0.96103 -0.00038 0.40796 0.0
H161 H 0.0286 0.9839 0.60307 0.0
H162 H 0.06423 0.00812 0.48064 0.0
H163 H 0.92417 0.97636 0.53029 0.0
C164 C 0.89843 0.97935 0.47898 0.0
C165 C 0.908 0.98613 0.4441 0.0
C166 C 0.05631 0.0029 0.50748 0.0
C167 C 0.976 0.9902 0.49293 0.0
C168 C 0.09029 0.00522 0.53177 0.0
C169 C 0.0811 -0.00175 0.56668 0.0
C170 C 0.01279 0.99352 0.51816 0.0
C171 C 0.03713 0.98953 0.57639 0.0
C172 C 0.9323 0.98132 0.50345 0.0
C173 C 0.95215 -0.00581 0.43459 0.0
N174 N 0.00463 0.98734 0.55226 0.0
N175 N 0.98445 -0.00391 0.45885 0.0
H176 H 0.15906 0.64312 0.15711 0.0
H177 H 0.32287 0.84507 0.15778 0.0
H178 H 0.11589 0.77033 0.11949 0.0
H179 H 0.36656 0.71764 0.12067 0.0
H180 H 0.24585 0.81835 0.156 0.0
H181 H 0.23607 0.66984 0.15597 0.0
C182 C 0.1659 0.67658 0.14861 0.0
C183 C 0.13146 0.7046 0.1382 0.0
C184 C 0.27246 0.79647 0.14818 0.0
C185 C 0.21836 0.73535 0.13772 0.0
C186 C 0.31615 0.81155 0.14928 0.0
C187 C 0.35072 0.78347 0.13918 0.0
C188 C 0.26383 0.75274 0.13795 0.0
C189 C 0.34059 0.74032 0.12838 0.0
C190 C 0.20958 0.69167 0.14788 0.0
C191 C 0.14176 0.74769 0.12742 0.0
N192 N 0.29796 0.72599 0.12843 0.0
N193 N 0.18438 0.76204 0.12785 0.0
H194 H 0.25834 0.63344 0.58469 0.0
H195 H 0.19932 0.84781 0.69657 0.0
H196 H 0.2717 0.63791 0.69512 0.0
H197 H 0.21146 0.84802 0.58601 0.0
H198 H 0.21912 0.76914 0.697 0.0
H199 H 0.23483 0.71064 0.58513 0.0
C200 C 0.25634 0.65074 0.60906 0.0
C201 C 0.26709 0.62939 0.63992 0.0
C202 C 0.21733 0.78643 0.67267 0.0
C203 C 0.24001 0.71771 0.64064 0.0
C204 C 0.20587 0.8312 0.6724 0.0
C205 C 0.20387 0.85434 0.64121 0.0
C206 C 0.22654 0.76477 0.64151 0.0
C207 C 0.21275 0.8314 0.61063 0.0
C208 C 0.24293 0.69482 0.60929 0.0
C209 C 0.26385 0.6533 0.67075 0.0
N210 N 0.22372 0.78787 0.61155 0.0
N211 N 0.25051 0.69628 0.67035 0.0
H212 H 0.62381 0.26382 0.89203 0.0
H213 H 0.87794 0.20675 0.87339 0.0
H214 H 0.66523 0.14099 0.84518 0.0
H215 H 0.82851 0.33776 0.85149 0.0
H216 H 0.80128 0.17968 0.87659 0.0
H217 H 0.70099 0.28925 0.89142 0.0
C218 C 0.64928 0.24203 0.88202 0.0
C219 C 0.63841 0.20033 0.86856 0.0
C220 C 0.80742 0.21431 0.87112 0.0
C221 C 0.72609 0.22892 0.86819 0.0
C222 C 0.8509 0.22978 0.86941 0.0
C223 C 0.85924 0.27445 0.86205 0.0
C224 C 0.77234 0.24407 0.86639 0.0
C225 C 0.82327 0.30302 0.857 0.0
C226 C 0.69304 0.25667 0.88148 0.0
C227 C 0.67244 0.17345 0.85565 0.0
N228 N 0.78118 0.2874 0.85959 0.0
N229 N 0.71502 0.18811 0.85597 0.0
H230 H 0.71209 0.3504 0.42457 0.0
H231 H 0.78239 0.13821 0.31408 0.0
H232 H 0.70535 0.34476 0.31381 0.0
H233 H 0.77043 0.1373 0.42467 0.0
H234 H 0.75836 0.21544 0.31361 0.0
H235 H 0.73681 0.27334 0.42531 0.0
C236 C 0.71565 0.33284 0.40042 0.0
C237 C 0.70666 0.35385 0.36908 0.0
C238 C 0.76103 0.19837 0.33798 0.0
C239 C 0.73518 0.266 0.36969 0.0
C240 C 0.7749 0.15437 0.33827 0.0
C241 C 0.77832 0.13144 0.36946 0.0
C242 C 0.75069 0.21957 0.36912 0.0
C243 C 0.76816 0.15385 0.40006 0.0
C244 C 0.72979 0.28891 0.40085 0.0
C245 C 0.71186 0.3297 0.33854 0.0
N246 N 0.75477 0.19674 0.39913 0.0
N247 N 0.72593 0.28705 0.3396 0.0
H248 H 0.83709 0.48558 0.35513 0.0
H249 H 0.88665 0.67798 0.23048 0.0
H250 H 0.77138 0.61191 0.36393 0.0
H251 H 0.98794 0.58186 0.25364 0.0
H252 H 0.84669 0.65595 0.28218 0.0
H253 H 0.89696 0.52119 0.323 0.0
C254 C 0.83602 0.52109 0.35128 0.0
C255 C 0.79891 0.54575 0.36163 0.0
C256 C 0.87799 0.64008 0.27637 0.0
C257 C 0.86643 0.58629 0.32416 0.0
C258 C 0.90056 0.65234 0.24668 0.0
C259 C 0.94018 0.63114 0.23765 0.0
C260 C 0.89449 0.60547 0.29672 0.0
C261 C 0.95723 0.59868 0.25971 0.0
C262 C 0.87014 0.54137 0.33286 0.0
C263 C 0.79921 0.59162 0.35614 0.0
N264 N 0.93374 0.58606 0.28796 0.0
N265 N 0.83185 0.61025 0.33692 0.0
H266 H 0.42766 0.45685 0.71166 0.0
H267 H 0.38427 0.2746 0.85313 0.0
H268 H 0.29729 0.43108 0.75251 0.0
H269 H 0.51412 0.32193 0.82475 0.0
H270 H 0.3513 0.33778 0.82292 0.0
H271 H 0.45982 0.4139 0.75835 0.0
C272 C 0.40585 0.44256 0.7308 0.0
C273 C 0.35981 0.44705 0.72809 0.0
C274 C 0.38704 0.33484 0.82397 0.0
C275 C 0.39624 0.39707 0.7814 0.0
C276 C 0.40584 0.29891 0.84134 0.0
C277 C 0.45191 0.29273 0.8409 0.0
C278 C 0.41463 0.36438 0.80599 0.0
C279 C 0.47838 0.3251 0.82523 0.0
C280 C 0.42419 0.41807 0.75754 0.0
C281 C 0.33302 0.42819 0.75369 0.0
N282 N 0.45935 0.3591 0.80797 0.0
N283 N 0.35159 0.40327 0.779 0.0
H284 H 0.49252 0.90646 0.25459 0.0
H285 H 0.71284 0.8718 0.3653 0.0
H286 H 0.59539 0.81173 0.2318 0.0
H287 H 0.64653 -0.0021 0.35703 0.0
H288 H 0.65282 0.83766 0.33234 0.0
H289 H 0.53377 0.92895 0.30647 0.0
C290 C 0.52338 0.89002 0.26082 0.0
C291 C 0.54114 0.85785 0.23875 0.0
C292 C 0.65088 0.87258 0.33857 0.0
C293 C 0.58741 0.88231 0.29793 0.0
C294 C 0.68489 0.89201 0.35764 0.0
C295 C 0.68498 0.93787 0.3633 0.0
C296 C 0.61673 0.89919 0.3254 0.0
C297 C 0.64796 0.96249 0.35272 0.0
C298 C 0.54676 0.90276 0.29031 0.0
C299 C 0.58105 0.83729 0.24789 0.0
N300 N 0.61557 0.94298 0.33373 0.0
N301 N 0.60292 0.84995 0.27673 0.0
H302 H 0.13246 0.261 0.82898 0.0
H303 H 0.11536 0.0155 0.7534 0.0
H304 H 0.03427 0.16607 0.86175 0.0
H305 H 0.18908 0.12241 0.70712 0.0
H306 H 0.09881 0.06373 0.80268 0.0
H307 H 0.16876 0.20298 0.79546 0.0
C308 C 0.11932 0.22764 0.83 0.0
C309 C 0.07981 0.2185 0.8476 0.0
C310 C 0.11899 0.07637 0.78186 0.0
C311 C 0.12054 0.15229 0.80874 0.0
C312 C 0.1283 0.04896 0.75376 0.0
C313 C 0.1529 0.06533 0.72595 0.0
C314 C 0.13484 0.12016 0.78216 0.0
C315 C 0.1693 0.10874 0.72778 0.0
C316 C 0.13979 0.19461 0.81057 0.0
C317 C 0.06434 0.17464 0.84809 0.0
N318 N 0.15977 0.1347 0.75528 0.0
N319 N 0.08426 0.14328 0.82835 0.0
H320 H 0.04385 0.28757 0.74358 0.0
H321 H 0.1457 0.48444 0.63224 0.0
H322 H 0.02119 0.42637 0.76297 0.0
H323 H 0.21525 0.36187 0.65059 0.0
H324 H 0.08129 0.45457 0.66234 0.0
H325 H 0.08856 0.30738 0.69304 0.0
C326 C 0.04722 0.32213 0.73659 0.0
C327 C 0.0292 0.35552 0.75747 0.0
C328 C 0.11027 0.43385 0.65897 0.0
C329 C 0.07951 0.37811 0.69988 0.0
C330 C 0.14699 0.45071 0.64162 0.0
C331 C 0.18626 0.42591 0.63958 0.0
C332 C 0.11269 0.3918 0.67405 0.0
C333 C 0.18582 0.38229 0.652 0.0
C334 C 0.07284 0.33332 0.70794 0.0
C335 C 0.03487 0.39974 0.74761 0.0
N336 N 0.1498 0.3668 0.66929 0.0
N337 N 0.05973 0.40979 0.71958 0.0
H338 H 0.68878 0.59912 0.27871 0.0
H339 H 0.48314 0.65983 0.16788 0.0
H340 H 0.58234 0.50598 0.26272 0.0
H341 H 0.60961 0.72402 0.1542 0.0
H342 H 0.52017 0.59902 0.19767 0.0
H343 H 0.66266 0.64199 0.22963 0.0
C344 C 0.66009 0.5875 0.26457 0.0
C345 C 0.63719 0.54942 0.27498 0.0
C346 C 0.54002 0.6258 0.18739 0.0
C347 C 0.60684 0.59849 0.21903 0.0
C348 C 0.5189 0.66048 0.17037 0.0
C349 C 0.54337 0.69715 0.15903 0.0
C350 C 0.58571 0.62847 0.1938 0.0
C351 C 0.58956 0.69639 0.16272 0.0
C352 C 0.64538 0.6118 0.23641 0.0
C353 C 0.60064 0.53541 0.25558 0.0
N354 N 0.60918 0.66307 0.18056 0.0
N355 N 0.58598 0.56049 0.22887 0.0
H356 H 0.49823 0.07367 0.75452 0.0
H357 H 0.28637 0.10796 0.63456 0.0
H358 H 0.3995 0.17552 0.76774 0.0
H359 H 0.34412 0.97985 0.65437 0.0
H360 H 0.34732 0.14257 0.66621 0.0
H361 H 0.45921 0.04851 0.70237 0.0
C362 C 0.46881 0.0911 0.74609 0.0
C363 C 0.45142 0.12608 0.7656 0.0
C364 C 0.34727 0.10697 0.66271 0.0
C365 C 0.40779 0.09856 0.70608 0.0
C366 C 0.31277 0.08723 0.64439 0.0
C367 C 0.30986 0.04096 0.6425 0.0
C368 C 0.37908 0.08019 0.67885 0.0
C369 C 0.34489 0.01566 0.65578 0.0
C370 C 0.44672 0.07685 0.71645 0.0
C371 C 0.41342 0.14784 0.75368 0.0
N372 N 0.37777 0.03556 0.67399 0.0
N373 N 0.39276 0.13362 0.72475 0.0
H374 H 0.8731 0.76483 0.15319 0.0
H375 H 0.90393 0.98218 0.26829 0.0
H376 H -0.00058 0.82793 0.17055 0.0
H377 H 0.79859 0.88695 0.28099 0.0
H378 H 0.93066 0.93999 0.21831 0.0
H379 H 0.83687 0.82503 0.18477 0.0
C380 C 0.89302 0.79209 0.16266 0.0
C381 C 0.93931 0.79122 0.15979 0.0
C382 C 0.9013 0.92885 0.2318 0.0
C383 C 0.89834 0.8596 0.196 0.0
C384 C 0.8861 0.95281 0.26022 0.0
C385 C 0.84956 0.93746 0.27901 0.0
C386 C 0.87925 0.88985 0.22195 0.0
C387 C 0.8274 0.8994 0.2675 0.0
C388 C 0.87241 0.82618 0.18091 0.0
C389 C 0.96365 0.8272 0.17267 0.0
N390 N 0.84274 0.87674 0.23981 0.0
N391 N 0.94292 0.85973 0.19065 0.0
loop_
_geom_bond_atom_site_label_1
_geom_bond_atom_site_label_2
_geom_bond_distance
_geom_bond_site_symmetry_2
_ccdc_geom_bond_type
In0 O1 2.293 1_455 S
In0 O2 2.327 . S
In0 O6 2.264 1_455 S
In0 O7 2.325 1_455 S
In0 O8 2.266 1_455 S
In0 O9 2.323 1_455 S
In0 O11 2.297 . S
In0 O12 2.329 . S
O1 In0 2.293 1_655 S
O1 C10 1.240 1_655 S
O2 In0 2.327 . S
O2 C10 1.252 . S
C3 O6 1.252 . S
C3 O7 1.260 . S
C4 O11 1.240 . S
C4 O12 1.252 . S
C5 O8 1.252 . S
C5 O9 1.260 . S
O6 In0 2.264 1_655 S
O6 C3 1.252 . S
O7 In0 2.325 1_655 S
O7 C3 1.260 . S
O8 In0 2.266 1_655 S
O8 C5 1.252 . S
O9 In0 2.323 1_655 S
O9 C5 1.260 . S
C10 O1 1.240 1_455 S
C10 O2 1.252 . S
O11 In0 2.297 . S
O11 C4 1.240 . S
O12 In0 2.329 . S
O12 C4 1.252 . S
In13 O14 2.294 . S
In13 O15 2.326 . S
In13 O19 2.266 . S
In13 O20 2.326 . S
In13 O21 2.266 . S
In13 O22 2.326 . S
In13 O24 2.294 . S
In13 O25 2.326 . S
O14 In13 2.294 . S
O14 C23 1.240 . S
O15 In13 2.326 . S
O15 C23 1.252 . S
C16 O19 1.252 . S
C16 O20 1.260 . S
C17 O24 1.240 . S
C17 O25 1.252 . S
C18 O21 1.252 . S
C18 O22 1.260 . S
O19 In13 2.266 . S
O19 C16 1.252 . S
O20 In13 2.326 . S
O20 C16 1.260 . S
O21 In13 2.266 . S
O21 C18 1.252 . S
O22 In13 2.326 . S
O22 C18 1.260 . S
C23 O14 1.240 . S
C23 O15 1.252 . S
O24 In13 2.294 . S
O24 C17 1.240 . S
O25 In13 2.326 . S
O25 C17 1.252 . S
In26 O27 2.294 . S
In26 O28 2.326 . S
In26 O32 2.266 . S
In26 O33 2.326 . S
In26 O34 2.266 . S
In26 O35 2.326 . S
In26 O37 2.294 . S
In26 O38 2.326 . S
O27 In26 2.294 . S
O27 C36 1.240 . S
O28 In26 2.326 . S
O28 C36 1.252 . S
C29 O32 1.252 . S
C29 O33 1.260 . S
C30 O37 1.240 . S
C30 O38 1.252 . S
C31 O34 1.252 . S
C31 O35 1.260 . S
O32 In26 2.266 . S
O32 C29 1.252 . S
O33 In26 2.326 . S
O33 C29 1.260 . S
O34 In26 2.266 . S
O34 C31 1.252 . S
O35 In26 2.326 . S
O35 C31 1.260 . S
C36 O27 1.240 . S
C36 O28 1.252 . S
O37 In26 2.294 . S
O37 C30 1.240 . S
O38 In26 2.326 . S
O38 C30 1.252 . S
In39 O40 2.297 . S
In39 O41 2.329 . S
In39 O45 2.266 1_565 S
In39 O46 2.323 1_565 S
In39 O47 2.264 1_565 S
In39 O48 2.325 1_565 S
In39 O50 2.293 1_565 S
In39 O51 2.327 . S
O40 In39 2.297 . S
O40 C49 1.240 . S
O41 In39 2.329 . S
O41 C49 1.252 . S
C42 O45 1.252 . S
C42 O46 1.260 . S
C43 O50 1.240 1_565 S
C43 O51 1.252 . S
C44 O47 1.252 . S
C44 O48 1.260 . S
O45 In39 2.266 1_545 S
O45 C42 1.252 . S
O46 In39 2.323 1_545 S
O46 C42 1.260 . S
O47 In39 2.264 1_545 S
O47 C44 1.252 . S
O48 In39 2.325 1_545 S
O48 C44 1.260 . S
C49 O40 1.240 . S
C49 O41 1.252 . S
O50 In39 2.293 1_545 S
O50 C43 1.240 1_545 S
O51 In39 2.327 . S
O51 C43 1.252 . S
In52 O53 2.297 . S
In52 O54 2.329 . S
In52 O58 2.266 1_655 S
In52 O59 2.323 1_655 S
In52 O60 2.264 1_655 S
In52 O61 2.325 1_655 S
In52 O63 2.293 1_655 S
In52 O64 2.327 . S
O53 In52 2.297 . S
O53 C62 1.240 . S
O54 In52 2.329 . S
O54 C62 1.252 . S
C55 O58 1.252 . S
C55 O59 1.260 . S
C56 O63 1.240 1_655 S
C56 O64 1.252 . S
C57 O60 1.252 . S
C57 O61 1.260 . S
O58 In52 2.266 1_455 S
O58 C55 1.252 . S
O59 In52 2.323 1_455 S
O59 C55 1.260 . S
O60 In52 2.264 1_455 S
O60 C57 1.252 . S
O61 In52 2.325 1_455 S
O61 C57 1.260 . S
C62 O53 1.240 . S
C62 O54 1.252 . S
O63 In52 2.293 1_455 S
O63 C56 1.240 1_455 S
O64 In52 2.327 . S
O64 C56 1.252 . S
In65 O66 2.294 . S
In65 O67 2.326 . S
In65 O71 2.266 . S
In65 O72 2.326 . S
In65 O73 2.266 . S
In65 O74 2.326 . S
In65 O76 2.294 . S
In65 O77 2.326 . S
O66 In65 2.294 . S
O66 C75 1.240 . S
O67 In65 2.326 . S
O67 C75 1.252 . S
C68 O71 1.252 . S
C68 O72 1.260 . S
C69 O76 1.240 . S
C69 O77 1.252 . S
C70 O73 1.252 . S
C70 O74 1.260 . S
O71 In65 2.266 . S
O71 C68 1.252 . S
O72 In65 2.326 . S
O72 C68 1.260 . S
O73 In65 2.266 . S
O73 C70 1.252 . S
O74 In65 2.326 . S
O74 C70 1.260 . S
C75 O66 1.240 . S
C75 O67 1.252 . S
O76 In65 2.294 . S
O76 C69 1.240 . S
O77 In65 2.326 . S
O77 C69 1.252 . S
In78 O79 2.294 . S
In78 O80 2.326 . S
In78 O84 2.266 . S
In78 O85 2.326 . S
In78 O86 2.266 . S
In78 O87 2.326 . S
In78 O89 2.294 . S
In78 O90 2.326 . S
O79 In78 2.294 . S
O79 C88 1.240 . S
O80 In78 2.326 . S
O80 C88 1.252 . S
C81 O84 1.252 . S
C81 O85 1.260 . S
C82 O89 1.240 . S
C82 O90 1.252 . S
C83 O86 1.252 . S
C83 O87 1.260 . S
O84 In78 2.266 . S
O84 C81 1.252 . S
O85 In78 2.326 . S
O85 C81 1.260 . S
O86 In78 2.266 . S
O86 C83 1.252 . S
O87 In78 2.326 . S
O87 C83 1.260 . S
C88 O79 1.240 . S
C88 O80 1.252 . S
O89 In78 2.294 . S
O89 C82 1.240 . S
O90 In78 2.326 . S
O90 C82 1.252 . S
In91 O92 2.297 . S
In91 O93 2.329 . S
In91 O97 2.266 1_545 S
In91 O98 2.323 1_545 S
In91 O99 2.264 1_545 S
In91 O100 2.325 1_545 S
In91 O102 2.293 1_545 S
In91 O103 2.327 . S
O92 In91 2.297 . S
O92 C101 1.240 . S
O93 In91 2.329 . S
O93 C101 1.252 . S
C94 O97 1.252 . S
C94 O98 1.260 . S
C95 O102 1.240 1_545 S
C95 O103 1.252 . S
C96 O99 1.252 . S
C96 O100 1.260 . S
O97 In91 2.266 1_565 S
O97 C94 1.252 . S
O98 In91 2.323 1_565 S
O98 C94 1.260 . S
O99 In91 2.264 1_565 S
O99 C96 1.252 . S
O100 In91 2.325 1_565 S
O100 C96 1.260 . S
C101 O92 1.240 . S
C101 O93 1.252 . S
O102 In91 2.293 1_565 S
O102 C95 1.240 1_565 S
O103 In91 2.327 . S
O103 C95 1.252 . S
H104 C110 0.941 . S
H105 C114 0.941 . S
H106 C119 0.929 . S
H107 C117 0.929 . S
H108 C112 0.929 . S
H109 C118 0.929 . S
C110 H104 0.941 . S
C110 C111 1.367 1_455 S
C110 C118 1.378 1_556 S
C111 C110 1.367 1_655 S
C111 C119 1.433 . S
C112 H108 0.929 . S
C112 C114 1.378 1_556 S
C112 C116 1.350 1_656 S
C113 C116 1.462 1_656 S
C113 C118 1.349 1_656 S
C113 N121 1.429 . S
C114 H105 0.941 . S
C114 C112 1.378 1_554 S
C114 C115 1.367 1_655 S
C115 C114 1.367 1_455 S
C115 C117 1.433 . S
C116 C112 1.350 1_454 S
C116 C113 1.462 1_454 S
C116 N120 1.428 . S
C117 H107 0.929 . S
C117 C115 1.433 . S
C117 N120 1.384 . S
C118 H109 0.929 . S
C118 C110 1.378 1_554 S
C118 C113 1.349 1_454 S
C119 H106 0.929 . S
C119 C111 1.433 . S
C119 N121 1.384 . S
N120 C116 1.428 . S
N120 C117 1.384 . S
N121 C113 1.429 . S
N121 C119 1.384 . S
H122 C128 0.930 . S
H123 C132 0.930 . S
H124 C137 0.929 . S
H125 C135 0.929 . S
H126 C130 0.929 . S
H127 C136 0.929 . S
C128 H122 0.930 . S
C128 C129 1.367 . S
C128 C136 1.378 . S
C129 C128 1.367 . S
C129 C137 1.433 . S
C130 H126 0.929 . S
C130 C132 1.378 . S
C130 C134 1.350 . S
C131 C134 1.463 . S
C131 C136 1.350 . S
C131 N139 1.427 . S
C132 H123 0.930 . S
C132 C130 1.378 . S
C132 C133 1.367 . S
C133 C132 1.367 . S
C133 C135 1.433 . S
C134 C130 1.350 . S
C134 C131 1.463 . S
C134 N138 1.427 . S
C135 H125 0.929 . S
C135 C133 1.433 . S
C135 N138 1.384 . S
C136 H127 0.929 . S
C136 C128 1.378 . S
C136 C131 1.350 . S
C137 H124 0.929 . S
C137 C129 1.433 . S
C137 N139 1.384 . S
N138 C134 1.427 . S
N138 C135 1.384 . S
N139 C131 1.427 . S
N139 C137 1.384 . S
H140 C146 0.930 . S
H141 C150 0.930 . S
H142 C155 0.929 . S
H143 C153 0.929 . S
H144 C148 0.929 . S
H145 C154 0.929 . S
C146 H140 0.930 . S
C146 C147 1.367 . S
C146 C154 1.378 . S
C147 C146 1.367 . S
C147 C155 1.433 . S
C148 H144 0.929 . S
C148 C150 1.378 . S
C148 C152 1.350 . S
C149 C152 1.463 1_564 S
C149 C154 1.350 . S
C149 N157 1.427 . S
C150 H141 0.930 . S
C150 C148 1.378 . S
C150 C151 1.367 . S
C151 C150 1.367 . S
C151 C153 1.433 . S
C152 C148 1.350 . S
C152 C149 1.463 1_546 S
C152 N156 1.427 . S
C153 H143 0.929 . S
C153 C151 1.433 . S
C153 N156 1.384 . S
C154 H145 0.929 . S
C154 C146 1.378 . S
C154 C149 1.350 . S
C155 H142 0.929 . S
C155 C147 1.433 . S
C155 N157 1.384 . S
N156 C152 1.427 . S
N156 C153 1.384 . S
N157 C149 1.427 . S
N157 C155 1.384 . S
H158 C164 0.930 . S
H159 C168 0.930 . S
H160 C173 0.929 . S
H161 C171 0.929 . S
H162 C166 0.929 . S
H163 C172 0.929 . S
C164 H158 0.930 . S
C164 C165 1.367 1_565 S
C164 C172 1.378 . S
C165 C164 1.367 1_545 S
C165 C173 1.433 . S
C166 H162 0.929 . S
C166 C168 1.378 . S
C166 C170 1.352 . S
C167 C170 1.462 1_665 S
C167 C172 1.350 . S
C167 N175 1.428 1_565 S
C168 H159 0.930 . S
C168 C166 1.378 . S
C168 C169 1.367 1_545 S
C169 C168 1.367 1_565 S
C169 C171 1.433 . S
C170 C166 1.352 . S
C170 C167 1.462 1_445 S
C170 N174 1.425 1_545 S
C171 H161 0.929 . S
C171 C169 1.433 . S
C171 N174 1.384 . S
C172 H163 0.929 . S
C172 C164 1.378 . S
C172 C167 1.350 . S
C173 H160 0.929 . S
C173 C165 1.433 . S
C173 N175 1.384 . S
N174 C170 1.425 1_565 S
N174 C171 1.384 . S
N175 C167 1.428 1_545 S
N175 C173 1.384 . S
H176 C182 0.930 . S
H177 C186 0.930 . S
H178 C191 0.929 . S
H179 C189 0.929 . S
H180 C184 0.929 . S
H181 C190 0.929 . S
C182 H176 0.930 . S
C182 C183 1.367 . S
C182 C190 1.378 . S
C183 C182 1.367 . S
C183 C191 1.433 . S
C184 H180 0.929 . S
C184 C186 1.378 . S
C184 C188 1.350 . S
C185 C188 1.463 . S
C185 C190 1.350 . S
C185 N193 1.427 . S
C186 H177 0.930 . S
C186 C184 1.378 . S
C186 C187 1.367 . S
C187 C186 1.367 . S
C187 C189 1.433 . S
C188 C184 1.350 . S
C188 C185 1.463 . S
C188 N192 1.427 . S
C189 H179 0.929 . S
C189 C187 1.433 . S
C189 N192 1.384 . S
C190 H181 0.929 . S
C190 C182 1.378 . S
C190 C185 1.350 . S
C191 H178 0.929 . S
C191 C183 1.433 . S
C191 N193 1.384 . S
N192 C188 1.427 . S
N192 C189 1.384 . S
N193 C185 1.427 . S
N193 C191 1.384 . S
H194 C200 0.930 . S
H195 C204 0.930 . S
H196 C209 0.929 . S
H197 C207 0.929 . S
H198 C202 0.929 . S
H199 C208 0.929 . S
C200 H194 0.930 . S
C200 C201 1.367 . S
C200 C208 1.378 . S
C201 C200 1.367 . S
C201 C209 1.433 . S
C202 H198 0.929 . S
C202 C204 1.378 . S
C202 C206 1.350 . S
C203 C206 1.463 . S
C203 C208 1.350 . S
C203 N211 1.427 . S
C204 H195 0.930 . S
C204 C202 1.378 . S
C204 C205 1.367 . S
C205 C204 1.367 . S
C205 C207 1.433 . S
C206 C202 1.350 . S
C206 C203 1.463 . S
C206 N210 1.427 . S
C207 H197 0.929 . S
C207 C205 1.433 . S
C207 N210 1.384 . S
C208 H199 0.929 . S
C208 C200 1.378 . S
C208 C203 1.350 . S
C209 H196 0.929 . S
C209 C201 1.433 . S
C209 N211 1.384 . S
N210 C206 1.427 . S
N210 C207 1.384 . S
N211 C203 1.427 . S
N211 C209 1.384 . S
H212 C218 0.930 . S
H213 C222 0.930 . S
H214 C227 0.929 . S
H215 C225 0.929 . S
H216 C220 0.929 . S
H217 C226 0.929 . S
C218 H212 0.930 . S
C218 C219 1.367 . S
C218 C226 1.378 . S
C219 C218 1.367 . S
C219 C227 1.433 . S
C220 H216 0.929 . S
C220 C222 1.378 . S
C220 C224 1.350 . S
C221 C224 1.463 . S
C221 C226 1.350 . S
C221 N229 1.427 . S
C222 H213 0.930 . S
C222 C220 1.378 . S
C222 C223 1.367 . S
C223 C222 1.367 . S
C223 C225 1.433 . S
C224 C220 1.350 . S
C224 C221 1.463 . S
C224 N228 1.427 . S
C225 H215 0.929 . S
C225 C223 1.433 . S
C225 N228 1.384 . S
C226 H217 0.929 . S
C226 C218 1.378 . S
C226 C221 1.350 . S
C227 H214 0.929 . S
C227 C219 1.433 . S
C227 N229 1.384 . S
N228 C224 1.427 . S
N228 C225 1.384 . S
N229 C221 1.427 . S
N229 C227 1.384 . S
H230 C236 0.930 . S
H231 C240 0.930 . S
H232 C245 0.929 . S
H233 C243 0.929 . S
H234 C238 0.929 . S
H235 C244 0.929 . S
C236 H230 0.930 . S
C236 C237 1.367 . S
C236 C244 1.378 . S
C237 C236 1.367 . S
C237 C245 1.433 . S
C238 H234 0.929 . S
C238 C240 1.378 . S
C238 C242 1.350 . S
C239 C242 1.463 . S
C239 C244 1.350 . S
C239 N247 1.427 . S
C240 H231 0.930 . S
C240 C238 1.378 . S
C240 C241 1.367 . S
C241 C240 1.367 . S
C241 C243 1.433 . S
C242 C238 1.350 . S
C242 C239 1.463 . S
C242 N246 1.427 . S
C243 H233 0.929 . S
C243 C241 1.433 . S
C243 N246 1.384 . S
C244 H235 0.929 . S
C244 C236 1.378 . S
C244 C239 1.350 . S
C245 H232 0.929 . S
C245 C237 1.433 . S
C245 N247 1.384 . S
N246 C242 1.427 . S
N246 C243 1.384 . S
N247 C239 1.427 . S
N247 C245 1.384 . S
H248 C254 0.930 . S
H249 C258 0.930 . S
H250 C263 0.929 . S
H251 C261 0.929 . S
H252 C256 0.929 . S
H253 C262 0.929 . S
C254 H248 0.930 . S
C254 C255 1.367 . S
C254 C262 1.378 . S
C255 C254 1.367 . S
C255 C263 1.433 . S
C256 H252 0.929 . S
C256 C258 1.378 . S
C256 C260 1.350 . S
C257 C260 1.463 . S
C257 C262 1.350 . S
C257 N265 1.427 . S
C258 H249 0.930 . S
C258 C256 1.378 . S
C258 C259 1.367 . S
C259 C258 1.367 . S
C259 C261 1.433 . S
C260 C256 1.350 . S
C260 C257 1.463 . S
C260 N264 1.427 . S
C261 H251 0.929 . S
C261 C259 1.433 . S
C261 N264 1.384 . S
C262 H253 0.929 . S
C262 C254 1.378 . S
C262 C257 1.350 . S
C263 H250 0.929 . S
C263 C255 1.433 . S
C263 N265 1.384 . S
N264 C260 1.427 . S
N264 C261 1.384 . S
N265 C257 1.427 . S
N265 C263 1.384 . S
H266 C272 0.930 . S
H267 C276 0.930 . S
H268 C281 0.929 . S
H269 C279 0.929 . S
H270 C274 0.929 . S
H271 C280 0.929 . S
C272 H266 0.930 . S
C272 C273 1.367 . S
C272 C280 1.378 . S
C273 C272 1.367 . S
C273 C281 1.433 . S
C274 H270 0.929 . S
C274 C276 1.378 . S
C274 C278 1.350 . S
C275 C278 1.463 . S
C275 C280 1.350 . S
C275 N283 1.427 . S
C276 H267 0.930 . S
C276 C274 1.378 . S
C276 C277 1.367 . S
C277 C276 1.367 . S
C277 C279 1.433 . S
C278 C274 1.350 . S
C278 C275 1.463 . S
C278 N282 1.427 . S
C279 H269 0.929 . S
C279 C277 1.433 . S
C279 N282 1.384 . S
C280 H271 0.929 . S
C280 C272 1.378 . S
C280 C275 1.350 . S
C281 H268 0.929 . S
C281 C273 1.433 . S
C281 N283 1.384 . S
N282 C278 1.427 . S
N282 C279 1.384 . S
N283 C275 1.427 . S
N283 C281 1.384 . S
H284 C290 0.930 . S
H285 C294 0.930 . S
H286 C299 0.929 . S
H287 C297 0.929 1_545 S
H288 C292 0.929 . S
H289 C298 0.929 . S
C290 H284 0.930 . S
C290 C291 1.367 . S
C290 C298 1.378 . S
C291 C290 1.367 . S
C291 C299 1.433 . S
C292 H288 0.929 . S
C292 C294 1.378 . S
C292 C296 1.350 . S
C293 C296 1.463 . S
C293 C298 1.350 . S
C293 N301 1.427 . S
C294 H285 0.930 . S
C294 C292 1.378 . S
C294 C295 1.367 . S
C295 C294 1.367 . S
C295 C297 1.433 . S
C296 C292 1.350 . S
C296 C293 1.463 . S
C296 N300 1.427 . S
C297 H287 0.929 1_565 S
C297 C295 1.433 . S
C297 N300 1.384 . S
C298 H289 0.929 . S
C298 C290 1.378 . S
C298 C293 1.350 . S
C299 H286 0.929 . S
C299 C291 1.433 . S
C299 N301 1.384 . S
N300 C296 1.427 . S
N300 C297 1.384 . S
N301 C293 1.427 . S
N301 C299 1.384 . S
H302 C308 0.930 . S
H303 C312 0.930 . S
H304 C317 0.929 . S
H305 C315 0.929 . S
H306 C310 0.929 . S
H307 C316 0.929 . S
C308 H302 0.930 . S
C308 C309 1.367 . S
C308 C316 1.378 . S
C309 C308 1.367 . S
C309 C317 1.433 . S
C310 H306 0.929 . S
C310 C312 1.378 . S
C310 C314 1.350 . S
C311 C314 1.463 . S
C311 C316 1.350 . S
C311 N319 1.427 . S
C312 H303 0.930 . S
C312 C310 1.378 . S
C312 C313 1.367 . S
C313 C312 1.367 . S
C313 C315 1.433 . S
C314 C310 1.350 . S
C314 C311 1.463 . S
C314 N318 1.427 . S
C315 H305 0.929 . S
C315 C313 1.433 . S
C315 N318 1.384 . S
C316 H307 0.929 . S
C316 C308 1.378 . S
C316 C311 1.350 . S
C317 H304 0.929 . S
C317 C309 1.433 . S
C317 N319 1.384 . S
N318 C314 1.427 . S
N318 C315 1.384 . S
N319 C311 1.427 . S
N319 C317 1.384 . S
H320 C326 0.930 . S
H321 C330 0.930 . S
H322 C335 0.929 . S
H323 C333 0.929 . S
H324 C328 0.929 . S
H325 C334 0.929 . S
C326 H320 0.930 . S
C326 C327 1.367 . S
C326 C334 1.378 . S
C327 C326 1.367 . S
C327 C335 1.433 . S
C328 H324 0.929 . S
C328 C330 1.378 . S
C328 C332 1.350 . S
C329 C332 1.463 . S
C329 C334 1.350 . S
C329 N337 1.427 . S
C330 H321 0.930 . S
C330 C328 1.378 . S
C330 C331 1.367 . S
C331 C330 1.367 . S
C331 C333 1.433 . S
C332 C328 1.350 . S
C332 C329 1.463 . S
C332 N336 1.427 . S
C333 H323 0.929 . S
C333 C331 1.433 . S
C333 N336 1.384 . S
C334 H325 0.929 . S
C334 C326 1.378 . S
C334 C329 1.350 . S
C335 H322 0.929 . S
C335 C327 1.433 . S
C335 N337 1.384 . S
N336 C332 1.427 . S
N336 C333 1.384 . S
N337 C329 1.427 . S
N337 C335 1.384 . S
H338 C344 0.930 . S
H339 C348 0.930 . S
H340 C353 0.929 . S
H341 C351 0.929 . S
H342 C346 0.929 . S
H343 C352 0.929 . S
C344 H338 0.930 . S
C344 C345 1.367 . S
C344 C352 1.378 . S
C345 C344 1.367 . S
C345 C353 1.433 . S
C346 H342 0.929 . S
C346 C348 1.378 . S
C346 C350 1.350 . S
C347 C350 1.463 . S
C347 C352 1.350 . S
C347 N355 1.427 . S
C348 H339 0.930 . S
C348 C346 1.378 . S
C348 C349 1.367 . S
C349 C348 1.367 . S
C349 C351 1.433 . S
C350 C346 1.350 . S
C350 C347 1.463 . S
C350 N354 1.427 . S
C351 H341 0.929 . S
C351 C349 1.433 . S
C351 N354 1.384 . S
C352 H343 0.929 . S
C352 C344 1.378 . S
C352 C347 1.350 . S
C353 H340 0.929 . S
C353 C345 1.433 . S
C353 N355 1.384 . S
N354 C350 1.427 . S
N354 C351 1.384 . S
N355 C347 1.427 . S
N355 C353 1.384 . S
H356 C362 0.930 . S
H357 C366 0.930 . S
H358 C371 0.929 . S
H359 C369 0.929 1_565 S
H360 C364 0.929 . S
H361 C370 0.929 . S
C362 H356 0.930 . S
C362 C363 1.367 . S
C362 C370 1.378 . S
C363 C362 1.367 . S
C363 C371 1.433 . S
C364 H360 0.929 . S
C364 C366 1.378 . S
C364 C368 1.350 . S
C365 C368 1.463 . S
C365 C370 1.350 . S
C365 N373 1.427 . S
C366 H357 0.930 . S
C366 C364 1.378 . S
C366 C367 1.367 . S
C367 C366 1.367 . S
C367 C369 1.433 . S
C368 C364 1.350 . S
C368 C365 1.463 . S
C368 N372 1.427 . S
C369 H359 0.929 1_545 S
C369 C367 1.433 . S
C369 N372 1.384 . S
C370 H361 0.929 . S
C370 C362 1.378 . S
C370 C365 1.350 . S
C371 H358 0.929 . S
C371 C363 1.433 . S
C371 N373 1.384 . S
N372 C368 1.427 . S
N372 C369 1.384 . S
N373 C365 1.427 . S
N373 C371 1.384 . S
H374 C380 0.930 . S
H375 C384 0.930 . S
H376 C389 0.929 . S
H377 C387 0.929 . S
H378 C382 0.929 . S
H379 C388 0.929 . S
C380 H374 0.930 . S
C380 C381 1.367 . S
C380 C388 1.378 . S
C381 C380 1.367 . S
C381 C389 1.433 . S
C382 H378 0.929 . S
C382 C384 1.378 . S
C382 C386 1.350 . S
C383 C386 1.463 . S
C383 C388 1.350 . S
C383 N391 1.427 . S
C384 H375 0.930 . S
C384 C382 1.378 . S
C384 C385 1.367 . S
C385 C384 1.367 . S
C385 C387 1.433 . S
C386 C382 1.350 . S
C386 C383 1.463 . S
C386 N390 1.427 . S
C387 H377 0.929 . S
C387 C385 1.433 . S
C387 N390 1.384 . S
C388 H379 0.929 . S
C388 C380 1.378 . S
C388 C383 1.350 . S
C389 H376 0.929 . S
C389 C381 1.433 . S
C389 N391 1.384 . S
N390 C386 1.427 . S
N390 C387 1.384 . S
N391 C383 1.427 . S
N391 C389 1.384 . S
C111 C56 1.734 . S
C115 C10 1.735 . S
C129 C17 1.740 . S
C133 C69 1.740 . S
C147 C36 1.723 . S
C151 C88 1.723 . S
C165 C95 1.723 . S
C169 C43 1.723 . S
C183 C4 1.679 . S
C187 C30 1.676 . S
C201 C23 1.677 . S
C205 C49 1.673 . S
C219 C82 1.676 . S
C223 C62 1.673 . S
C237 C75 1.676 . S
C241 C101 1.673 . S
C255 C70 1.063 . S
C259 C5 1.093 . S
C273 C16 1.104 . S
C277 C81 1.081 . S
C291 C31 1.095 . S
C295 C96 1.065 . S
C309 C57 1.049 . S
C313 C42 1.089 . S
C327 C55 1.091 . S
C331 C18 1.062 . S
C345 C68 1.099 . S
C349 C29 1.075 . S
C363 C83 1.095 . S
C367 C44 1.066 . S
C381 C3 1.046 . S
C385 C94 1.087 . S
