# Generated by pormake.
# Topology wjh, (4)-cn, num edge types: 1
# Building blocks:
#     Node 0, Type 0, BuildingBlock: QUQFOY_clean_sbu_3, # of connection points: 4
#     Node 1, Type 0, BuildingBlock: QUQFOY_clean_sbu_3, # of connection points: 4
#     Node 2, Type 0, BuildingBlock: QUQFOY_clean_sbu_3, # of connection points: 4
#     Node 3, Type 0, BuildingBlock: QUQFOY_clean_sbu_3, # of connection points: 4
#     Node 4, Type 0, BuildingBlock: QUQFOY_clean_sbu_3, # of connection points: 4
#     Node 5, Type 0, BuildingBlock: QUQFOY_clean_sbu_3, # of connection points: 4
#     Node 6, Type 0, BuildingBlock: QUQFOY_clean_sbu_3, # of connection points: 4
#     Node 7, Type 0, BuildingBlock: QUQFOY_clean_sbu_3, # of connection points: 4
#     Node 8, Type 0, BuildingBlock: QUQFOY_clean_sbu_3, # of connection points: 4
#     Node 9, Type 0, BuildingBlock: QUQFOY_clean_sbu_3, # of connection points: 4
#     Node 10, Type 0, BuildingBlock: QUQFOY_clean_sbu_3, # of connection points: 4
#     Node 11, Type 0, BuildingBlock: QUQFOY_clean_sbu_3, # of connection points: 4
#     Edge 12, Type (0, 0), BuildingBlock: AJUNOK_clean_linker_0, # of connection points: 2
#     Edge 13, Type (0, 0), BuildingBlock: AJUNOK_clean_linker_0, # of connection points: 2
#     Edge 14, Type (0, 0), BuildingBlock: AJUNOK_clean_linker_0, # of connection points: 2
#     Edge 15, Type (0, 0), BuildingBlock: AJUNOK_clean_linker_0, # of connection points: 2
#     Edge 16, Type (0, 0), BuildingBlock: AJUNOK_clean_linker_0, # of connection points: 2
#     Edge 17, Type (0, 0), BuildingBlock: AJUNOK_clean_linker_0, # of connection points: 2
#     Edge 18, Type (0, 0), BuildingBlock: AJUNOK_clean_linker_0, # of connection points: 2
#     Edge 19, Type (0, 0), BuildingBlock: AJUNOK_clean_linker_0, # of connection points: 2
#     Edge 20, Type (0, 0), BuildingBlock: AJUNOK_clean_linker_0, # of connection points: 2
#     Edge 21, Type (0, 0), BuildingBlock: AJUNOK_clean_linker_0, # of connection points: 2
#     Edge 22, Type (0, 0), BuildingBlock: AJUNOK_clean_linker_0, # of connection points: 2
#     Edge 23, Type (0, 0), BuildingBlock: AJUNOK_clean_linker_0, # of connection points: 2
#     Edge 24, Type (0, 0), BuildingBlock: AJUNOK_clean_linker_0, # of connection points: 2
#     Edge 25, Type (0, 0), BuildingBlock: AJUNOK_clean_linker_0, # of connection points: 2
#     Edge 26, Type (0, 0), BuildingBlock: AJUNOK_clean_linker_0, # of connection points: 2
#     Edge 27, Type (0, 0), BuildingBlock: AJUNOK_clean_linker_0, # of connection points: 2
#     Edge 28, Type (0, 0), BuildingBlock: AJUNOK_clean_linker_0, # of connection points: 2
#     Edge 29, Type (0, 0), BuildingBlock: AJUNOK_clean_linker_0, # of connection points: 2
#     Edge 30, Type (0, 0), BuildingBlock: AJUNOK_clean_linker_0, # of connection points: 2
#     Edge 31, Type (0, 0), BuildingBlock: AJUNOK_clean_linker_0, # of connection points: 2
#     Edge 32, Type (0, 0), BuildingBlock: AJUNOK_clean_linker_0, # of connection points: 2
#     Edge 33, Type (0, 0), BuildingBlock: AJUNOK_clean_linker_0, # of connection points: 2
#     Edge 34, Type (0, 0), BuildingBlock: AJUNOK_clean_linker_0, # of connection points: 2
#     Edge 35, Type (0, 0), BuildingBlock: AJUNOK_clean_linker_0, # of connection points: 2
# Relax obj value: 0.073
# Max RMSD: 0.098
# Mean RMSD: 0.098
data_MOF--net-wjh--node1-QUQFOY_clean_sbu_3--edge1-AJUNOK_clean_linker_0
_symmetry_space_group_name_H-M    P1
_symmetry_Int_Tables_number       1
_symmetry_cell_setting            triclinic
loop_
_symmetry_equiv_pos_as_xyz
'x, y, z'
_cell_length_a     49.132305
_cell_length_b     49.049775
_cell_length_c     20.939209
_cell_angle_alpha  89.643733
_cell_angle_beta   90.625214
_cell_angle_gamma 120.04253
loop_
_atom_site_label
_atom_site_type_symbol
_atom_site_fract_x
_atom_site_fract_y
_atom_site_fract_z
_atom_type_partial_charge
C0 C 0.5232 0.11732 0.91946 0.0
O1 O 0.53324 0.10267 0.95354 0.0
Cd2 Cd 0.51513 0.08162 0.05662 0.0
O3 O 0.5027 0.12363 0.9411 0.0
Cd4 Cd 0.47573 0.11799 0.04661 0.0
C5 C 0.43429 0.03932 0.02922 0.0
O6 O 0.51823 0.12372 0.11519 0.0
O7 O 0.47284 0.10354 0.15954 0.0
O8 O 0.49412 0.1737 0.05173 0.0
C9 C 0.5022 0.11465 0.16565 0.0
O10 O 0.46049 0.04102 0.04193 0.0
C11 C 0.46837 0.17153 0.0684 0.0
O12 O 0.43198 0.06401 0.02355 0.0
O13 O 0.44424 0.1441 0.06737 0.0
C14 C 0.37608 0.52768 0.08318 0.0
O15 O 0.39977 0.53938 0.12043 0.0
Cd16 Cd 0.40029 0.52506 0.22888 0.0
O17 O 0.34896 0.50695 0.1033 0.0
Cd18 Cd 0.3257 0.48174 0.20939 0.0
C19 C 0.36678 0.44396 0.21461 0.0
O20 O 0.35833 0.52665 0.27743 0.0
O21 O 0.33487 0.48156 0.32425 0.0
O22 O 0.28514 0.49574 0.19895 0.0
C23 C 0.35112 0.51124 0.32912 0.0
O24 O 0.38952 0.47099 0.22978 0.0
C25 C 0.26256 0.47001 0.21949 0.0
O26 O 0.34005 0.44016 0.19761 0.0
O27 O 0.2683 0.44769 0.22835 0.0
C28 C 0.82334 0.38823 0.25012 0.0
O29 O 0.83387 0.41242 0.28546 0.0
Cd30 Cd 0.84548 0.41491 0.39651 0.0
O31 O 0.81691 0.36158 0.27382 0.0
Cd32 Cd 0.81745 0.33997 0.38315 0.0
C33 C 0.89605 0.3846 0.39831 0.0
O34 O 0.80159 0.37197 0.44285 0.0
O35 O 0.8219 0.34937 0.49809 0.0
O36 O 0.76389 0.29786 0.36878 0.0
C37 C 0.80816 0.36539 0.49724 0.0
O38 O 0.88991 0.40654 0.40821 0.0
C39 C 0.7674 0.27605 0.39309 0.0
O40 O 0.87454 0.35715 0.38109 0.0
O41 O 0.7955 0.28288 0.40582 0.0
C42 C 0.40102 0.83545 0.42005 0.0
O43 O 0.38956 0.84817 0.45512 0.0
Cd44 Cd 0.40175 0.86119 0.56524 0.0
O45 O 0.41991 0.82715 0.44361 0.0
Cd46 Cd 0.44261 0.82697 0.55194 0.0
C47 C 0.48315 0.90597 0.55763 0.0
O48 O 0.3968 0.81588 0.61519 0.0
O49 O 0.44075 0.83401 0.66647 0.0
O50 O 0.42718 0.77213 0.53993 0.0
C51 C 0.41117 0.82198 0.66834 0.0
O52 O 0.45647 0.90287 0.57051 0.0
C53 C 0.4521 0.77403 0.56273 0.0
O54 O 0.48587 0.88232 0.54205 0.0
O55 O 0.47477 0.80166 0.57383 0.0
C56 C 0.54735 0.41671 0.58927 0.0
O57 O 0.52292 0.40554 0.62349 0.0
Cd58 Cd 0.5203 0.42251 0.72773 0.0
O59 O 0.57407 0.43771 0.61145 0.0
Cd60 Cd 0.5957 0.46412 0.71831 0.0
C61 C 0.55646 0.50351 0.70336 0.0
O62 O 0.56044 0.42049 0.78554 0.0
O63 O 0.58447 0.4658 0.83153 0.0
O64 O 0.63474 0.44797 0.72105 0.0
C65 C 0.56715 0.43621 0.83664 0.0
O66 O 0.53259 0.47681 0.71546 0.0
C67 C 0.65785 0.47415 0.73853 0.0
O68 O 0.58376 0.50683 0.69718 0.0
O69 O 0.65323 0.49744 0.73991 0.0
C70 C 0.11358 0.55887 0.75692 0.0
O71 O 0.10243 0.53417 0.79084 0.0
Cd72 Cd 0.07865 0.52882 0.89078 0.0
O73 O 0.11515 0.58397 0.77865 0.0
Cd74 Cd 0.10507 0.60186 0.8847 0.0
C75 C 0.02822 0.55815 0.85713 0.0
O76 O 0.11617 0.56972 0.95572 0.0
O77 O 0.08357 0.58324 -0.00843 0.0
O78 O 0.15874 0.64251 0.90254 0.0
C79 C 0.10164 0.57225 0.00262 0.0
O80 O 0.03363 0.53577 0.86865 0.0
C81 C 0.15345 0.66462 0.91544 0.0
O82 O 0.05035 0.58679 0.85695 0.0
O83 O 0.12539 0.65899 0.90731 0.0
C84 C 0.82171 0.41186 -0.02235 0.0
O85 O 0.83128 0.39826 0.94019 0.0
Cd86 Cd 0.84292 0.40957 0.82995 0.0
O87 O 0.81635 0.43334 0.95693 0.0
Cd88 Cd 0.81691 0.45775 0.85017 0.0
C89 C 0.8952 0.49034 0.83617 0.0
O90 O 0.79993 0.41118 0.78454 0.0
O91 O 0.82144 0.45557 0.73483 0.0
O92 O 0.76372 0.44682 0.86465 0.0
C93 C 0.80687 0.42579 0.73188 0.0
O94 O 0.8882 0.46218 0.82354 0.0
C95 C 0.76768 0.47277 0.84307 0.0
O96 O 0.87427 0.49667 0.85462 0.0
O97 O 0.79591 0.49404 0.83222 0.0
C98 C 0.37543 0.83565 0.1482 0.0
O99 O 0.39907 0.84707 0.11167 0.0
Cd100 Cd 0.39946 0.85953 0.00162 0.0
O101 O 0.34829 0.82887 0.12666 0.0
Cd102 Cd 0.32438 0.82898 0.01918 0.0
C103 C 0.36662 0.90792 0.0082 0.0
O104 O 0.35664 0.81457 0.95701 0.0
O105 O 0.33195 0.8329 0.90298 0.0
O106 O 0.28287 0.77569 0.04048 0.0
C107 C 0.34922 0.82054 0.90291 0.0
O108 O 0.38908 0.90303 -0.00485 0.0
C109 C 0.26051 0.77813 0.01571 0.0
O110 O 0.33987 0.88551 0.02581 0.0
O111 O 0.26709 0.80558 -0.00215 0.0
C112 C 0.52059 0.39162 0.31944 0.0
O113 O 0.53118 0.41654 0.28616 0.0
Cd114 Cd 0.51604 0.41973 0.17963 0.0
O115 O 0.50114 0.36481 0.29526 0.0
Cd116 Cd 0.47623 0.34336 0.18733 0.0
C117 C 0.43471 0.3808 0.19603 0.0
O118 O 0.52073 0.38062 0.1251 0.0
O119 O 0.47725 0.35481 0.07278 0.0
O120 O 0.49255 0.30436 0.19497 0.0
C121 C 0.50657 0.37402 0.07187 0.0
O122 O 0.46101 0.4054 0.18509 0.0
C123 C 0.46761 0.28135 0.1724 0.0
O124 O 0.43251 0.35396 0.20419 0.0
O125 O 0.44477 0.28614 0.16234 0.0
C126 C 0.11228 0.53518 0.48723 0.0
O127 O 0.10067 0.5486 0.45388 0.0
Cd128 Cd 0.07732 0.53069 0.35259 0.0
O129 O 0.11473 0.51244 0.46392 0.0
Cd130 Cd 0.10545 0.48553 0.35639 0.0
C131 C 0.02857 0.45026 0.38242 0.0
O132 O 0.11583 0.52953 0.2884 0.0
O133 O 0.08447 0.48361 0.24863 0.0
O134 O 0.15983 0.49967 0.34599 0.0
C135 C 0.10185 0.51298 0.23999 0.0
O136 O 0.03325 0.47787 0.37187 0.0
C137 C 0.15525 0.47306 0.32795 0.0
O138 O 0.0512 0.44455 0.38269 0.0
O139 O 0.12698 0.4504 0.32911 0.0
C140 C 0.54838 0.11717 0.65086 0.0
O141 O 0.52326 0.104 0.61773 0.0
Cd142 Cd 0.5176 0.08323 0.5136 0.0
O143 O 0.57449 0.1224 0.62722 0.0
Cd144 Cd 0.59406 0.11613 0.51996 0.0
C145 C 0.55283 0.03732 0.53625 0.0
O146 O 0.55781 0.12427 0.45521 0.0
O147 O 0.58089 0.10297 0.40676 0.0
O148 O 0.63406 0.17108 0.5152 0.0
C149 C 0.563 0.11463 0.40351 0.0
O150 O 0.52914 0.04074 0.52582 0.0
C151 C 0.65659 0.16717 0.49835 0.0
O152 O 0.58062 0.06095 0.54049 0.0
O153 O 0.65121 0.13896 0.49793 0.0
C154 C 0.40383 0.55315 0.81352 0.0
O155 O 0.39333 0.52852 0.77951 0.0
Cd156 Cd 0.40559 0.52608 0.67101 0.0
O157 O 0.42228 0.58029 0.7897 0.0
Cd158 Cd 0.44502 0.60171 0.68115 0.0
C159 C 0.48705 0.56473 0.67921 0.0
O160 O 0.3993 0.56507 0.61908 0.0
O161 O 0.44233 0.59067 0.56655 0.0
O162 O 0.42797 0.64005 0.68512 0.0
C163 C 0.41288 0.5721 0.56568 0.0
O164 O 0.46054 0.54047 0.66716 0.0
C165 C 0.45297 0.66321 0.66375 0.0
O166 O 0.48925 0.59108 0.69311 0.0
O167 O 0.47647 0.65919 0.65796 0.0
C168 C 0.54493 0.11324 0.22752 0.0
C169 C 0.51671 0.11402 0.22697 0.0
C170 C 0.55949 0.11297 0.28503 0.0
C171 C 0.54665 0.1141 0.34387 0.0
H172 H 0.55577 0.11261 0.18319 0.0
H173 H 0.58122 0.11237 0.28332 0.0
S174 S 0.47311 0.11645 0.36818 0.0
N175 N 0.47627 0.11566 0.28988 0.0
N176 N 0.50397 0.11578 0.39832 0.0
C177 C 0.51844 0.11494 0.34402 0.0
C178 C 0.50335 0.11469 0.28542 0.0
C179 C 0.39275 0.55658 0.39029 0.0
C180 C 0.36561 0.52659 0.39023 0.0
C181 C 0.4079 0.57111 0.44743 0.0
C182 C 0.39611 0.5564 0.50649 0.0
H183 H 0.40277 0.56873 0.34582 0.0
H184 H 0.42894 0.59408 0.44533 0.0
S185 S 0.32534 0.47811 0.53239 0.0
N186 N 0.32733 0.48277 0.4541 0.0
N187 N 0.35554 0.51036 0.56182 0.0
C188 C 0.36868 0.52664 0.50726 0.0
C189 C 0.35351 0.51164 0.44899 0.0
C190 C 0.8043 0.38088 0.67227 0.0
C191 C 0.8043 0.40953 0.6715 0.0
C192 C 0.80499 0.36649 0.6154 0.0
C193 C 0.80508 0.37994 0.5559 0.0
H194 H 0.8049 0.37003 0.7171 0.0
H195 H 0.80581 0.34485 0.61811 0.0
S196 S 0.80275 0.45357 0.5283 0.0
N197 N 0.80289 0.45012 0.60676 0.0
N198 N 0.80351 0.42271 0.49948 0.0
C199 C 0.80376 0.40793 0.55443 0.0
C200 C 0.80358 0.42285 0.61241 0.0
C201 C 0.36667 0.82034 0.72752 0.0
C202 C 0.39497 0.81972 0.72857 0.0
C203 C 0.35182 0.82017 0.78426 0.0
C204 C 0.36445 0.81881 0.84397 0.0
H205 H 0.35632 0.82182 0.68261 0.0
H206 H 0.33039 0.82132 0.78128 0.0
S207 S 0.4371 0.81475 0.87223 0.0
N208 N 0.43447 0.81645 0.7938 0.0
N209 N 0.4063 0.81555 0.90064 0.0
C210 C 0.39224 0.81715 0.8456 0.0
C211 C 0.40759 0.8178 0.78781 0.0
C212 C 0.50951 0.37693 0.95341 0.0
C213 C 0.52257 0.39048 0.01292 0.0
C214 C 0.52427 0.39184 0.8966 0.0
C215 C 0.55231 0.4211 0.89734 0.0
H216 H 0.48787 0.35447 0.95065 0.0
H217 H 0.51342 0.38048 0.85177 0.0
S218 S 0.59589 0.46668 0.04072 0.0
N219 N 0.56518 0.43484 0.06939 0.0
N220 N 0.59263 0.46314 0.96225 0.0
C221 C 0.56552 0.43506 0.95646 0.0
C222 C 0.55074 0.41964 0.0144 0.0
C223 C 0.07361 0.51982 0.14773 0.0
C224 C 0.10202 0.52799 0.17942 0.0
C225 C 0.07348 0.53506 0.09105 0.0
C226 C 0.10183 0.55805 0.06392 0.0
H227 H 0.05141 0.502 0.16743 0.0
H228 H 0.05124 0.52835 0.06758 0.0
S229 S 0.18222 0.58717 0.12801 0.0
N230 N 0.15895 0.56057 0.18043 0.0
N231 N 0.15878 0.58811 0.07194 0.0
C232 C 0.13031 0.56609 0.09475 0.0
C233 C 0.13039 0.55131 0.15323 0.0
C234 C 0.44006 0.22761 0.12072 0.0
C235 C 0.46688 0.25199 0.15139 0.0
C236 C 0.44041 0.20149 0.09398 0.0
C237 C 0.4678 0.19914 0.09569 0.0
H238 H 0.41877 0.22895 0.11633 0.0
H239 H 0.41931 0.18335 0.07075 0.0
S240 S 0.54343 0.25495 0.17517 0.0
N241 N 0.52089 0.27059 0.18563 0.0
N242 N 0.52169 0.22225 0.13453 0.0
C243 C 0.49446 0.2229 0.12758 0.0
C244 C 0.49396 0.24908 0.15566 0.0
C245 C 0.2326 0.49681 0.24724 0.0
C246 C 0.23312 0.4685 0.24163 0.0
C247 C 0.20754 0.49773 0.27602 0.0
C248 C 0.18142 0.47032 0.29975 0.0
H249 H 0.25221 0.51887 0.23098 0.0
H250 H 0.2087 0.52033 0.27927 0.0
S251 S 0.16999 0.38967 0.29411 0.0
N252 N 0.20465 0.41196 0.2609 0.0
N253 N 0.15688 0.41364 0.31342 0.0
C254 C 0.18095 0.44157 0.29278 0.0
C255 C 0.20693 0.44068 0.26419 0.0
C256 C 0.68452 0.22024 0.44835 0.0
C257 C 0.68579 0.19401 0.47215 0.0
C258 C 0.71061 0.24563 0.42013 0.0
C259 C 0.73955 0.24641 0.4153 0.0
H260 H 0.66297 0.22115 0.45082 0.0
H261 H 0.70815 0.26526 0.40359 0.0
S262 S 0.7554 0.18339 0.46913 0.0
N263 N 0.71813 0.1698 0.48727 0.0
N264 N 0.76782 0.21829 0.43603 0.0
C265 C 0.74125 0.22026 0.43843 0.0
C266 C 0.71425 0.19391 0.46632 0.0
C267 C 0.48079 0.74722 0.60681 0.0
C268 C 0.45281 0.74529 0.58362 0.0
C269 C 0.48092 0.72073 0.63293 0.0
C270 C 0.45294 0.69156 0.63837 0.0
H271 H 0.50272 0.76942 0.60534 0.0
H272 H 0.50297 0.72322 0.64981 0.0
S273 S 0.37361 0.67342 0.58211 0.0
N274 N 0.39659 0.71107 0.5655 0.0
N275 N 0.39678 0.66198 0.61558 0.0
C276 C 0.42494 0.68926 0.61467 0.0
C277 C 0.42489 0.71589 0.58701 0.0
C278 C 0.68502 0.44765 0.7866 0.0
C279 C 0.68686 0.47566 0.76454 0.0
C280 C 0.71087 0.44755 0.81479 0.0
C281 C 0.74012 0.47538 0.82134 0.0
H282 H 0.66321 0.4254 0.78278 0.0
H283 H 0.70796 0.42508 0.8299 0.0
S284 S 0.75747 0.55537 0.77262 0.0
N285 N 0.72007 0.53236 0.75303 0.0
N286 N 0.7693 0.53205 0.80422 0.0
C287 C 0.74238 0.50375 0.80003 0.0
C288 C 0.71565 0.50392 0.77215 0.0
C289 C 0.18332 0.72369 0.92941 0.0
C290 C 0.17829 0.69374 0.94624 0.0
C291 C 0.20898 0.75118 0.95513 0.0
C292 C 0.23005 0.74952 -0.00073 0.0
H293 H 0.16827 0.72593 0.89412 0.0
H294 H 0.21309 0.77381 0.9381 0.0
S295 S 0.22311 0.67618 0.06733 0.0
N296 N 0.19387 0.66384 0.01528 0.0
N297 N 0.24128 0.71499 0.0645 0.0
C298 C 0.2236 0.7195 0.01985 0.0
C299 C 0.19795 0.69175 -0.00695 0.0
C300 C 0.51884 0.12392 0.74005 0.0
C301 C 0.54593 0.1237 0.71908 0.0
C302 C 0.51271 0.12419 0.80517 0.0
C303 C 0.53327 0.12393 0.85194 0.0
H304 H 0.50146 0.12252 0.70592 0.0
H305 H 0.49077 0.12265 0.81878 0.0
S306 S 0.60983 0.12836 0.82278 0.0
N307 N 0.59531 0.12708 0.75068 0.0
N308 N 0.58374 0.12743 0.8731 0.0
C309 C 0.56158 0.12611 0.83177 0.0
C310 C 0.56796 0.1261 0.76536 0.0
C311 C 0.3687 0.52125 0.90288 0.0
C312 C 0.39508 0.54939 0.88201 0.0
C313 C 0.36165 0.51513 -0.03211 0.0
C314 C 0.38097 0.53673 0.01477 0.0
H315 H 0.35368 0.50334 0.86877 0.0
H316 H 0.34177 0.49268 -0.01847 0.0
S317 S 0.45093 0.61535 -0.01446 0.0
N318 N 0.43907 0.60019 0.91355 0.0
N319 N 0.42607 0.58861 0.0358 0.0
C320 C 0.40653 0.56564 -0.00544 0.0
C321 C 0.4135 0.57201 0.92822 0.0
C322 C 0.82049 0.42547 0.09222 0.0
C323 C 0.8186 0.40369 0.04662 0.0
C324 C 0.82116 0.41978 0.15773 0.0
C325 C 0.81965 0.39193 0.18053 0.0
H326 H 0.8226 0.44763 0.0773 0.0
H327 H 0.82346 0.43776 0.19072 0.0
S328 S 0.81117 0.32578 0.08076 0.0
N329 N 0.81284 0.35202 0.02881 0.0
N330 N 0.81395 0.34133 0.15189 0.0
C331 C 0.81624 0.36926 0.13549 0.0
C332 C 0.8158 0.37516 0.06864 0.0
C333 C 0.36711 0.83405 0.32839 0.0
C334 C 0.39311 0.83178 0.35073 0.0
C335 C 0.36067 0.83382 0.26291 0.0
C336 C 0.38022 0.83177 0.21704 0.0
H337 H 0.35186 0.83664 0.36173 0.0
H338 H 0.34095 0.83654 0.2482 0.0
S339 S 0.4496 0.82246 0.24994 0.0
N340 N 0.43719 0.82512 0.32132 0.0
N341 N 0.4253 0.825 0.19839 0.0
C342 C 0.40554 0.82819 0.23861 0.0
C343 C 0.4119 0.82807 0.30535 0.0
C344 C 0.56323 0.42872 0.47494 0.0
C345 C 0.54355 0.40722 0.5212 0.0
C346 C 0.55637 0.42269 0.40964 0.0
C347 C 0.52981 0.39475 0.38797 0.0
H348 H 0.58304 0.45117 0.48918 0.0
H349 H 0.57149 0.44065 0.37596 0.0
S350 S 0.47354 0.32875 0.48996 0.0
N351 N 0.49834 0.35536 0.54096 0.0
N352 N 0.48565 0.34396 0.41826 0.0
C353 C 0.51129 0.37203 0.43367 0.0
C354 C 0.51809 0.37831 0.50024 0.0
C355 C 0.11837 0.57078 0.57803 0.0
C356 C 0.11965 0.54438 0.5555 0.0
C357 C 0.11893 0.57683 0.64347 0.0
C358 C 0.12068 0.55665 0.68909 0.0
H359 H 0.11533 0.58616 0.54503 0.0
H360 H 0.11594 0.59629 0.65822 0.0
S361 S 0.13075 0.48791 0.65551 0.0
N362 N 0.1273 0.50054 0.58428 0.0
N363 N 0.12847 0.51192 0.70728 0.0
C364 C 0.12484 0.53183 0.66727 0.0
C365 C 0.12433 0.52571 0.60051 0.0
C366 C 0.38985 -0.01119 0.06836 0.0
C367 C 0.40741 0.00774 0.01675 0.0
C368 C 0.37291 0.95576 0.06314 0.0
C369 C 0.37367 0.94089 0.00652 0.0
H370 H 0.39152 -0.0006 0.11454 0.0
H371 H 0.36194 0.94185 0.1054 0.0
S372 S 0.41289 -0.01978 0.8558 0.0
N373 N 0.42165 0.00948 0.90572 0.0
N374 N 0.39038 0.94756 0.89607 0.0
C375 C 0.38886 0.95973 0.95319 0.0
C376 C 0.40567 -0.00682 0.9583 0.0
C377 C 0.39283 0.38957 0.15054 0.0
C378 C 0.40754 0.38527 0.20459 0.0
C379 C 0.37565 0.40536 0.15523 0.0
C380 C 0.37333 0.41777 0.21391 0.0
H381 H 0.39691 0.38317 0.10366 0.0
H382 H 0.36699 0.41066 0.11184 0.0
S383 S 0.40485 0.4098 0.37007 0.0
N384 N 0.41605 0.39184 0.31906 0.0
N385 N 0.38445 0.42208 0.32777 0.0
C386 C 0.38576 0.41132 0.26888 0.0
C387 C 0.40276 0.39491 0.26423 0.0
C388 C -0.02248 0.40355 0.34964 0.0
C389 C -0.00385 0.4256 0.3967 0.0
C390 C 0.94445 0.38724 0.35345 0.0
C391 C 0.92934 0.3929 0.40412 0.0
H392 H -0.01161 0.40093 0.30714 0.0
H393 H 0.93076 0.37246 0.31383 0.0
S394 S -0.032 0.44452 0.54401 0.0
N395 N -0.00261 0.44921 0.49884 0.0
N396 N 0.93558 0.41875 0.50625 0.0
C397 C 0.94794 0.41266 0.45413 0.0
C398 C -0.01868 0.42904 0.45029 0.0
C399 C 0.51465 0.95768 0.61036 0.0
C400 C 0.5103 0.93826 0.5576 0.0
C401 C 0.53248 -0.00948 0.60534 0.0
C402 C 0.54638 0.00502 0.5473 0.0
H403 H 0.50206 0.94749 0.65426 0.0
H404 H 0.5329 0.00467 0.64531 0.0
S405 S 0.54454 0.96474 0.397 0.0
N406 N 0.52368 0.93572 0.44737 0.0
N407 N 0.55687 -0.00228 0.43765 0.0
C408 C 0.54444 -0.01409 0.49582 0.0
C409 C 0.52648 0.95236 0.50109 0.0
C410 C 0.53717 0.53071 0.6331 0.0
C411 C 0.55061 0.52974 0.69195 0.0
C412 C 0.51938 0.54572 0.62732 0.0
C413 C 0.51465 0.56042 0.68009 0.0
H414 H 0.53777 0.51714 0.59303 0.0
H415 H 0.50696 0.54342 0.58278 0.0
S416 S 0.54805 0.56754 0.84251 0.0
N417 N 0.56055 0.54707 0.80231 0.0
N418 N 0.52747 0.57589 0.79113 0.0
C419 C 0.53055 0.56231 0.73743 0.0
C420 C 0.54844 0.5467 0.74349 0.0
C421 C -0.02309 0.55337 0.88715 0.0
C422 C -0.00444 0.54945 0.84171 0.0
C423 C 0.94383 0.53638 0.88218 0.0
C424 C 0.92874 0.51488 0.83194 0.0
H425 H -0.01223 0.56758 0.92929 0.0
H426 H 0.93013 0.53804 0.92055 0.0
S427 S -0.03245 0.50045 0.69573 0.0
N428 N -0.00311 0.52578 0.74138 0.0
N429 N 0.9351 0.49409 0.73159 0.0
C430 C 0.94739 0.51313 0.78344 0.0
C431 C -0.01924 0.53033 0.78852 0.0
loop_
_geom_bond_atom_site_label_1
_geom_bond_atom_site_label_2
_geom_bond_distance
_geom_bond_site_symmetry_2
_ccdc_geom_bond_type
C0 O1 1.306 . S
C0 O3 1.160 . S
O1 C0 1.306 . S
O1 Cd2 2.228 1_556 S
Cd2 O1 2.228 1_554 S
Cd2 O6 2.273 . S
Cd2 O10 2.277 . S
O3 C0 1.160 . S
O3 Cd4 2.203 1_556 S
Cd4 O3 2.203 1_554 S
Cd4 O6 2.411 . S
Cd4 O7 2.333 . S
Cd4 O8 2.352 . S
Cd4 O12 2.277 . S
Cd4 O13 2.356 . S
C5 O10 1.209 . S
C5 O12 1.226 . S
O6 Cd2 2.273 . S
O6 Cd4 2.411 . S
O6 C9 1.320 . S
O7 Cd4 2.333 . S
O7 C9 1.214 . S
O8 Cd4 2.352 . S
O8 C11 1.258 . S
C9 O6 1.320 . S
C9 O7 1.214 . S
O10 Cd2 2.277 . S
O10 C5 1.209 . S
C11 O8 1.258 . S
C11 O13 1.282 . S
O12 Cd4 2.277 . S
O12 C5 1.226 . S
O13 Cd4 2.356 . S
O13 C11 1.282 . S
C14 O15 1.306 . S
C14 O17 1.160 . S
O15 C14 1.306 . S
O15 Cd16 2.228 . S
Cd16 O15 2.228 . S
Cd16 O20 2.273 . S
Cd16 O24 2.277 . S
O17 C14 1.160 . S
O17 Cd18 2.203 . S
Cd18 O17 2.203 . S
Cd18 O20 2.411 . S
Cd18 O21 2.333 . S
Cd18 O22 2.352 . S
Cd18 O26 2.277 . S
Cd18 O27 2.356 . S
C19 O24 1.209 . S
C19 O26 1.226 . S
O20 Cd16 2.273 . S
O20 Cd18 2.411 . S
O20 C23 1.320 . S
O21 Cd18 2.333 . S
O21 C23 1.214 . S
O22 Cd18 2.352 . S
O22 C25 1.258 . S
C23 O20 1.320 . S
C23 O21 1.214 . S
O24 Cd16 2.277 . S
O24 C19 1.209 . S
C25 O22 1.258 . S
C25 O27 1.282 . S
O26 Cd18 2.277 . S
O26 C19 1.226 . S
O27 Cd18 2.356 . S
O27 C25 1.282 . S
C28 O29 1.306 . S
C28 O31 1.160 . S
O29 C28 1.306 . S
O29 Cd30 2.228 . S
Cd30 O29 2.228 . S
Cd30 O34 2.273 . S
Cd30 O38 2.277 . S
O31 C28 1.160 . S
O31 Cd32 2.203 . S
Cd32 O31 2.203 . S
Cd32 O34 2.411 . S
Cd32 O35 2.333 . S
Cd32 O36 2.352 . S
Cd32 O40 2.277 . S
Cd32 O41 2.356 . S
C33 O38 1.209 . S
C33 O40 1.226 . S
O34 Cd30 2.273 . S
O34 Cd32 2.411 . S
O34 C37 1.320 . S
O35 Cd32 2.333 . S
O35 C37 1.214 . S
O36 Cd32 2.352 . S
O36 C39 1.258 . S
C37 O34 1.320 . S
C37 O35 1.214 . S
O38 Cd30 2.277 . S
O38 C33 1.209 . S
C39 O36 1.258 . S
C39 O41 1.282 . S
O40 Cd32 2.277 . S
O40 C33 1.226 . S
O41 Cd32 2.356 . S
O41 C39 1.282 . S
C42 O43 1.306 . S
C42 O45 1.160 . S
O43 C42 1.306 . S
O43 Cd44 2.228 . S
Cd44 O43 2.228 . S
Cd44 O48 2.273 . S
Cd44 O52 2.277 . S
O45 C42 1.160 . S
O45 Cd46 2.203 . S
Cd46 O45 2.203 . S
Cd46 O48 2.411 . S
Cd46 O49 2.333 . S
Cd46 O50 2.352 . S
Cd46 O54 2.277 . S
Cd46 O55 2.356 . S
C47 O52 1.209 . S
C47 O54 1.226 . S
O48 Cd44 2.273 . S
O48 Cd46 2.411 . S
O48 C51 1.320 . S
O49 Cd46 2.333 . S
O49 C51 1.214 . S
O50 Cd46 2.352 . S
O50 C53 1.258 . S
C51 O48 1.320 . S
C51 O49 1.214 . S
O52 Cd44 2.277 . S
O52 C47 1.209 . S
C53 O50 1.258 . S
C53 O55 1.282 . S
O54 Cd46 2.277 . S
O54 C47 1.226 . S
O55 Cd46 2.356 . S
O55 C53 1.282 . S
C56 O57 1.306 . S
C56 O59 1.160 . S
O57 C56 1.306 . S
O57 Cd58 2.228 . S
Cd58 O57 2.228 . S
Cd58 O62 2.273 . S
Cd58 O66 2.277 . S
O59 C56 1.160 . S
O59 Cd60 2.203 . S
Cd60 O59 2.203 . S
Cd60 O62 2.411 . S
Cd60 O63 2.333 . S
Cd60 O64 2.352 . S
Cd60 O68 2.277 . S
Cd60 O69 2.356 . S
C61 O66 1.209 . S
C61 O68 1.226 . S
O62 Cd58 2.273 . S
O62 Cd60 2.411 . S
O62 C65 1.320 . S
O63 Cd60 2.333 . S
O63 C65 1.214 . S
O64 Cd60 2.352 . S
O64 C67 1.258 . S
C65 O62 1.320 . S
C65 O63 1.214 . S
O66 Cd58 2.277 . S
O66 C61 1.209 . S
C67 O64 1.258 . S
C67 O69 1.282 . S
O68 Cd60 2.277 . S
O68 C61 1.226 . S
O69 Cd60 2.356 . S
O69 C67 1.282 . S
C70 O71 1.306 . S
C70 O73 1.160 . S
O71 C70 1.306 . S
O71 Cd72 2.228 . S
Cd72 O71 2.228 . S
Cd72 O76 2.273 . S
Cd72 O80 2.277 . S
O73 C70 1.160 . S
O73 Cd74 2.203 . S
Cd74 O73 2.203 . S
Cd74 O76 2.411 . S
Cd74 O77 2.333 1_556 S
Cd74 O78 2.352 . S
Cd74 O82 2.277 . S
Cd74 O83 2.356 . S
C75 O80 1.209 . S
C75 O82 1.226 . S
O76 Cd72 2.273 . S
O76 Cd74 2.411 . S
O76 C79 1.320 1_556 S
O77 Cd74 2.333 1_554 S
O77 C79 1.214 . S
O78 Cd74 2.352 . S
O78 C81 1.258 . S
C79 O76 1.320 1_554 S
C79 O77 1.214 . S
O80 Cd72 2.277 . S
O80 C75 1.209 . S
C81 O78 1.258 . S
C81 O83 1.282 . S
O82 Cd74 2.277 . S
O82 C75 1.226 . S
O83 Cd74 2.356 . S
O83 C81 1.282 . S
C84 O85 1.306 1_554 S
C84 O87 1.160 1_554 S
O85 C84 1.306 1_556 S
O85 Cd86 2.228 . S
Cd86 O85 2.228 . S
Cd86 O90 2.273 . S
Cd86 O94 2.277 . S
O87 C84 1.160 1_556 S
O87 Cd88 2.203 . S
Cd88 O87 2.203 . S
Cd88 O90 2.411 . S
Cd88 O91 2.333 . S
Cd88 O92 2.352 . S
Cd88 O96 2.277 . S
Cd88 O97 2.356 . S
C89 O94 1.209 . S
C89 O96 1.226 . S
O90 Cd86 2.273 . S
O90 Cd88 2.411 . S
O90 C93 1.320 . S
O91 Cd88 2.333 . S
O91 C93 1.214 . S
O92 Cd88 2.352 . S
O92 C95 1.258 . S
C93 O90 1.320 . S
C93 O91 1.214 . S
O94 Cd86 2.277 . S
O94 C89 1.209 . S
C95 O92 1.258 . S
C95 O97 1.282 . S
O96 Cd88 2.277 . S
O96 C89 1.226 . S
O97 Cd88 2.356 . S
O97 C95 1.282 . S
C98 O99 1.306 . S
C98 O101 1.160 . S
O99 C98 1.306 . S
O99 Cd100 2.228 . S
Cd100 O99 2.228 . S
Cd100 O104 2.273 1_554 S
Cd100 O108 2.277 . S
O101 C98 1.160 . S
O101 Cd102 2.203 . S
Cd102 O101 2.203 . S
Cd102 O104 2.411 1_554 S
Cd102 O105 2.333 1_554 S
Cd102 O106 2.352 . S
Cd102 O110 2.277 . S
Cd102 O111 2.356 . S
C103 O108 1.209 . S
C103 O110 1.226 . S
O104 Cd100 2.273 1_556 S
O104 Cd102 2.411 1_556 S
O104 C107 1.320 . S
O105 Cd102 2.333 1_556 S
O105 C107 1.214 . S
O106 Cd102 2.352 . S
O106 C109 1.258 . S
C107 O104 1.320 . S
C107 O105 1.214 . S
O108 Cd100 2.277 . S
O108 C103 1.209 . S
C109 O106 1.258 . S
C109 O111 1.282 . S
O110 Cd102 2.277 . S
O110 C103 1.226 . S
O111 Cd102 2.356 . S
O111 C109 1.282 . S
C112 O113 1.306 . S
C112 O115 1.160 . S
O113 C112 1.306 . S
O113 Cd114 2.228 . S
Cd114 O113 2.228 . S
Cd114 O118 2.273 . S
Cd114 O122 2.277 . S
O115 C112 1.160 . S
O115 Cd116 2.203 . S
Cd116 O115 2.203 . S
Cd116 O118 2.411 . S
Cd116 O119 2.333 . S
Cd116 O120 2.352 . S
Cd116 O124 2.277 . S
Cd116 O125 2.356 . S
C117 O122 1.209 . S
C117 O124 1.226 . S
O118 Cd114 2.273 . S
O118 Cd116 2.411 . S
O118 C121 1.320 . S
O119 Cd116 2.333 . S
O119 C121 1.214 . S
O120 Cd116 2.352 . S
O120 C123 1.258 . S
C121 O118 1.320 . S
C121 O119 1.214 . S
O122 Cd114 2.277 . S
O122 C117 1.209 . S
C123 O120 1.258 . S
C123 O125 1.282 . S
O124 Cd116 2.277 . S
O124 C117 1.226 . S
O125 Cd116 2.356 . S
O125 C123 1.282 . S
C126 O127 1.306 . S
C126 O129 1.160 . S
O127 C126 1.306 . S
O127 Cd128 2.228 . S
Cd128 O127 2.228 . S
Cd128 O132 2.273 . S
Cd128 O136 2.277 . S
O129 C126 1.160 . S
O129 Cd130 2.203 . S
Cd130 O129 2.203 . S
Cd130 O132 2.411 . S
Cd130 O133 2.333 . S
Cd130 O134 2.352 . S
Cd130 O138 2.277 . S
Cd130 O139 2.356 . S
C131 O136 1.209 . S
C131 O138 1.226 . S
O132 Cd128 2.273 . S
O132 Cd130 2.411 . S
O132 C135 1.320 . S
O133 Cd130 2.333 . S
O133 C135 1.214 . S
O134 Cd130 2.352 . S
O134 C137 1.258 . S
C135 O132 1.320 . S
C135 O133 1.214 . S
O136 Cd128 2.277 . S
O136 C131 1.209 . S
C137 O134 1.258 . S
C137 O139 1.282 . S
O138 Cd130 2.277 . S
O138 C131 1.226 . S
O139 Cd130 2.356 . S
O139 C137 1.282 . S
C140 O141 1.306 . S
C140 O143 1.160 . S
O141 C140 1.306 . S
O141 Cd142 2.228 . S
Cd142 O141 2.228 . S
Cd142 O146 2.273 . S
Cd142 O150 2.277 . S
O143 C140 1.160 . S
O143 Cd144 2.203 . S
Cd144 O143 2.203 . S
Cd144 O146 2.411 . S
Cd144 O147 2.333 . S
Cd144 O148 2.352 . S
Cd144 O152 2.277 . S
Cd144 O153 2.356 . S
C145 O150 1.209 . S
C145 O152 1.226 . S
O146 Cd142 2.273 . S
O146 Cd144 2.411 . S
O146 C149 1.320 . S
O147 Cd144 2.333 . S
O147 C149 1.214 . S
O148 Cd144 2.352 . S
O148 C151 1.258 . S
C149 O146 1.320 . S
C149 O147 1.214 . S
O150 Cd142 2.277 . S
O150 C145 1.209 . S
C151 O148 1.258 . S
C151 O153 1.282 . S
O152 Cd144 2.277 . S
O152 C145 1.226 . S
O153 Cd144 2.356 . S
O153 C151 1.282 . S
C154 O155 1.306 . S
C154 O157 1.160 . S
O155 C154 1.306 . S
O155 Cd156 2.228 . S
Cd156 O155 2.228 . S
Cd156 O160 2.273 . S
Cd156 O164 2.277 . S
O157 C154 1.160 . S
O157 Cd158 2.203 . S
Cd158 O157 2.203 . S
Cd158 O160 2.411 . S
Cd158 O161 2.333 . S
Cd158 O162 2.352 . S
Cd158 O166 2.277 . S
Cd158 O167 2.356 . S
C159 O164 1.209 . S
C159 O166 1.226 . S
O160 Cd156 2.273 . S
O160 Cd158 2.411 . S
O160 C163 1.320 . S
O161 Cd158 2.333 . S
O161 C163 1.214 . S
O162 Cd158 2.352 . S
O162 C165 1.258 . S
C163 O160 1.320 . S
C163 O161 1.214 . S
O164 Cd156 2.277 . S
O164 C159 1.209 . S
C165 O162 1.258 . S
C165 O167 1.282 . S
O166 Cd158 2.277 . S
O166 C159 1.226 . S
O167 Cd158 2.356 . S
O167 C165 1.282 . S
C168 C169 1.369 . S
C168 C170 1.419 . S
C168 H172 0.930 . S
C169 C168 1.369 . S
C169 C178 1.429 . S
C170 C168 1.419 . S
C170 C171 1.363 . S
C170 H173 0.929 . S
C171 C170 1.363 . S
C171 C177 1.428 . S
H172 C168 0.930 . S
H173 C170 0.929 . S
S174 N175 1.613 . S
S174 N176 1.610 . S
N175 S174 1.613 . S
N175 C178 1.350 . S
N176 S174 1.610 . S
N176 C177 1.351 . S
C177 C171 1.428 . S
C177 N176 1.351 . S
C177 C178 1.434 . S
C178 C169 1.429 . S
C178 N175 1.350 . S
C178 C177 1.434 . S
C179 C180 1.369 . S
C179 C181 1.419 . S
C179 H183 0.930 . S
C180 C179 1.369 . S
C180 C189 1.429 . S
C181 C179 1.419 . S
C181 C182 1.363 . S
C181 H184 0.929 . S
C182 C181 1.363 . S
C182 C188 1.428 . S
H183 C179 0.930 . S
H184 C181 0.929 . S
S185 N186 1.613 . S
S185 N187 1.610 . S
N186 S185 1.613 . S
N186 C189 1.350 . S
N187 S185 1.610 . S
N187 C188 1.351 . S
C188 C182 1.428 . S
C188 N187 1.351 . S
C188 C189 1.434 . S
C189 C180 1.429 . S
C189 N186 1.350 . S
C189 C188 1.434 . S
C190 C191 1.369 . S
C190 C192 1.419 . S
C190 H194 0.930 . S
C191 C190 1.369 . S
C191 C200 1.429 . S
C192 C190 1.419 . S
C192 C193 1.363 . S
C192 H195 0.929 . S
C193 C192 1.363 . S
C193 C199 1.428 . S
H194 C190 0.930 . S
H195 C192 0.929 . S
S196 N197 1.613 . S
S196 N198 1.610 . S
N197 S196 1.613 . S
N197 C200 1.350 . S
N198 S196 1.610 . S
N198 C199 1.351 . S
C199 C193 1.428 . S
C199 N198 1.351 . S
C199 C200 1.434 . S
C200 C191 1.429 . S
C200 N197 1.350 . S
C200 C199 1.434 . S
C201 C202 1.369 . S
C201 C203 1.419 . S
C201 H205 0.930 . S
C202 C201 1.369 . S
C202 C211 1.429 . S
C203 C201 1.419 . S
C203 C204 1.363 . S
C203 H206 0.929 . S
C204 C203 1.363 . S
C204 C210 1.428 . S
H205 C201 0.930 . S
H206 C203 0.929 . S
S207 N208 1.613 . S
S207 N209 1.610 . S
N208 S207 1.613 . S
N208 C211 1.350 . S
N209 S207 1.610 . S
N209 C210 1.351 . S
C210 C204 1.428 . S
C210 N209 1.351 . S
C210 C211 1.434 . S
C211 C202 1.429 . S
C211 N208 1.350 . S
C211 C210 1.434 . S
C212 C213 1.369 1_556 S
C212 C214 1.419 . S
C212 H216 0.930 . S
C213 C212 1.369 1_554 S
C213 C222 1.429 . S
C214 C212 1.419 . S
C214 C215 1.363 . S
C214 H217 0.929 . S
C215 C214 1.363 . S
C215 C221 1.428 . S
H216 C212 0.930 . S
H217 C214 0.929 . S
S218 N219 1.613 . S
S218 N220 1.610 1_554 S
N219 S218 1.613 . S
N219 C222 1.350 . S
N220 S218 1.610 1_556 S
N220 C221 1.351 . S
C221 C215 1.428 . S
C221 N220 1.351 . S
C221 C222 1.434 1_556 S
C222 C213 1.429 . S
C222 N219 1.350 . S
C222 C221 1.434 1_554 S
C223 C224 1.369 . S
C223 C225 1.419 . S
C223 H227 0.930 . S
C224 C223 1.369 . S
C224 C233 1.429 . S
C225 C223 1.419 . S
C225 C226 1.363 . S
C225 H228 0.929 . S
C226 C225 1.363 . S
C226 C232 1.428 . S
H227 C223 0.930 . S
H228 C225 0.929 . S
S229 N230 1.613 . S
S229 N231 1.610 . S
N230 S229 1.613 . S
N230 C233 1.350 . S
N231 S229 1.610 . S
N231 C232 1.351 . S
C232 C226 1.428 . S
C232 N231 1.351 . S
C232 C233 1.434 . S
C233 C224 1.429 . S
C233 N230 1.350 . S
C233 C232 1.434 . S
C234 C235 1.369 . S
C234 C236 1.419 . S
C234 H238 0.930 . S
C235 C234 1.369 . S
C235 C244 1.429 . S
C236 C234 1.419 . S
C236 C237 1.363 . S
C236 H239 0.929 . S
C237 C236 1.363 . S
C237 C243 1.428 . S
H238 C234 0.930 . S
H239 C236 0.929 . S
S240 N241 1.613 . S
S240 N242 1.610 . S
N241 S240 1.613 . S
N241 C244 1.350 . S
N242 S240 1.610 . S
N242 C243 1.351 . S
C243 C237 1.428 . S
C243 N242 1.351 . S
C243 C244 1.434 . S
C244 C235 1.429 . S
C244 N241 1.350 . S
C244 C243 1.434 . S
C245 C246 1.369 . S
C245 C247 1.419 . S
C245 H249 0.930 . S
C246 C245 1.369 . S
C246 C255 1.429 . S
C247 C245 1.419 . S
C247 C248 1.363 . S
C247 H250 0.929 . S
C248 C247 1.363 . S
C248 C254 1.428 . S
H249 C245 0.930 . S
H250 C247 0.929 . S
S251 N252 1.613 . S
S251 N253 1.610 . S
N252 S251 1.613 . S
N252 C255 1.350 . S
N253 S251 1.610 . S
N253 C254 1.351 . S
C254 C248 1.428 . S
C254 N253 1.351 . S
C254 C255 1.434 . S
C255 C246 1.429 . S
C255 N252 1.350 . S
C255 C254 1.434 . S
C256 C257 1.369 . S
C256 C258 1.419 . S
C256 H260 0.930 . S
C257 C256 1.369 . S
C257 C266 1.429 . S
C258 C256 1.419 . S
C258 C259 1.363 . S
C258 H261 0.929 . S
C259 C258 1.363 . S
C259 C265 1.428 . S
H260 C256 0.930 . S
H261 C258 0.929 . S
S262 N263 1.613 . S
S262 N264 1.610 . S
N263 S262 1.613 . S
N263 C266 1.350 . S
N264 S262 1.610 . S
N264 C265 1.351 . S
C265 C259 1.428 . S
C265 N264 1.351 . S
C265 C266 1.434 . S
C266 C257 1.429 . S
C266 N263 1.350 . S
C266 C265 1.434 . S
C267 C268 1.369 . S
C267 C269 1.419 . S
C267 H271 0.930 . S
C268 C267 1.369 . S
C268 C277 1.429 . S
C269 C267 1.419 . S
C269 C270 1.363 . S
C269 H272 0.929 . S
C270 C269 1.363 . S
C270 C276 1.428 . S
H271 C267 0.930 . S
H272 C269 0.929 . S
S273 N274 1.613 . S
S273 N275 1.610 . S
N274 S273 1.613 . S
N274 C277 1.350 . S
N275 S273 1.610 . S
N275 C276 1.351 . S
C276 C270 1.428 . S
C276 N275 1.351 . S
C276 C277 1.434 . S
C277 C268 1.429 . S
C277 N274 1.350 . S
C277 C276 1.434 . S
C278 C279 1.369 . S
C278 C280 1.419 . S
C278 H282 0.930 . S
C279 C278 1.369 . S
C279 C288 1.429 . S
C280 C278 1.419 . S
C280 C281 1.363 . S
C280 H283 0.929 . S
C281 C280 1.363 . S
C281 C287 1.428 . S
H282 C278 0.930 . S
H283 C280 0.929 . S
S284 N285 1.613 . S
S284 N286 1.610 . S
N285 S284 1.613 . S
N285 C288 1.350 . S
N286 S284 1.610 . S
N286 C287 1.351 . S
C287 C281 1.428 . S
C287 N286 1.351 . S
C287 C288 1.434 . S
C288 C279 1.429 . S
C288 N285 1.350 . S
C288 C287 1.434 . S
C289 C290 1.369 . S
C289 C291 1.419 . S
C289 H293 0.930 . S
C290 C289 1.369 . S
C290 C299 1.429 1_556 S
C291 C289 1.419 . S
C291 C292 1.363 1_556 S
C291 H294 0.929 . S
C292 C291 1.363 1_554 S
C292 C298 1.428 . S
H293 C289 0.930 . S
H294 C291 0.929 . S
S295 N296 1.613 . S
S295 N297 1.610 . S
N296 S295 1.613 . S
N296 C299 1.350 . S
N297 S295 1.610 . S
N297 C298 1.351 . S
C298 C292 1.428 . S
C298 N297 1.351 . S
C298 C299 1.434 . S
C299 C290 1.429 1_554 S
C299 N296 1.350 . S
C299 C298 1.434 . S
C300 C301 1.369 . S
C300 C302 1.419 . S
C300 H304 0.930 . S
C301 C300 1.369 . S
C301 C310 1.429 . S
C302 C300 1.419 . S
C302 C303 1.363 . S
C302 H305 0.929 . S
C303 C302 1.363 . S
C303 C309 1.428 . S
H304 C300 0.930 . S
H305 C302 0.929 . S
S306 N307 1.613 . S
S306 N308 1.610 . S
N307 S306 1.613 . S
N307 C310 1.350 . S
N308 S306 1.610 . S
N308 C309 1.351 . S
C309 C303 1.428 . S
C309 N308 1.351 . S
C309 C310 1.434 . S
C310 C301 1.429 . S
C310 N307 1.350 . S
C310 C309 1.434 . S
C311 C312 1.369 . S
C311 C313 1.419 1_556 S
C311 H315 0.930 . S
C312 C311 1.369 . S
C312 C321 1.429 . S
C313 C311 1.419 1_554 S
C313 C314 1.363 . S
C313 H316 0.929 . S
C314 C313 1.363 . S
C314 C320 1.428 . S
H315 C311 0.930 . S
H316 C313 0.929 . S
S317 N318 1.613 . S
S317 N319 1.610 1_556 S
N318 S317 1.613 . S
N318 C321 1.350 . S
N319 S317 1.610 1_554 S
N319 C320 1.351 . S
C320 C314 1.428 . S
C320 N319 1.351 . S
C320 C321 1.434 1_554 S
C321 C312 1.429 . S
C321 N318 1.350 . S
C321 C320 1.434 1_556 S
C322 C323 1.369 . S
C322 C324 1.419 . S
C322 H326 0.930 . S
C323 C322 1.369 . S
C323 C332 1.429 . S
C324 C322 1.419 . S
C324 C325 1.363 . S
C324 H327 0.929 . S
C325 C324 1.363 . S
C325 C331 1.428 . S
H326 C322 0.930 . S
H327 C324 0.929 . S
S328 N329 1.613 . S
S328 N330 1.610 . S
N329 S328 1.613 . S
N329 C332 1.350 . S
N330 S328 1.610 . S
N330 C331 1.351 . S
C331 C325 1.428 . S
C331 N330 1.351 . S
C331 C332 1.434 . S
C332 C323 1.429 . S
C332 N329 1.350 . S
C332 C331 1.434 . S
C333 C334 1.369 . S
C333 C335 1.419 . S
C333 H337 0.930 . S
C334 C333 1.369 . S
C334 C343 1.429 . S
C335 C333 1.419 . S
C335 C336 1.363 . S
C335 H338 0.929 . S
C336 C335 1.363 . S
C336 C342 1.428 . S
H337 C333 0.930 . S
H338 C335 0.929 . S
S339 N340 1.613 . S
S339 N341 1.610 . S
N340 S339 1.613 . S
N340 C343 1.350 . S
N341 S339 1.610 . S
N341 C342 1.351 . S
C342 C336 1.428 . S
C342 N341 1.351 . S
C342 C343 1.434 . S
C343 C334 1.429 . S
C343 N340 1.350 . S
C343 C342 1.434 . S
C344 C345 1.369 . S
C344 C346 1.419 . S
C344 H348 0.930 . S
C345 C344 1.369 . S
C345 C354 1.429 . S
C346 C344 1.419 . S
C346 C347 1.363 . S
C346 H349 0.929 . S
C347 C346 1.363 . S
C347 C353 1.428 . S
H348 C344 0.930 . S
H349 C346 0.929 . S
S350 N351 1.613 . S
S350 N352 1.610 . S
N351 S350 1.613 . S
N351 C354 1.350 . S
N352 S350 1.610 . S
N352 C353 1.351 . S
C353 C347 1.428 . S
C353 N352 1.351 . S
C353 C354 1.434 . S
C354 C345 1.429 . S
C354 N351 1.350 . S
C354 C353 1.434 . S
C355 C356 1.369 . S
C355 C357 1.419 . S
C355 H359 0.930 . S
C356 C355 1.369 . S
C356 C365 1.429 . S
C357 C355 1.419 . S
C357 C358 1.363 . S
C357 H360 0.929 . S
C358 C357 1.363 . S
C358 C364 1.428 . S
H359 C355 0.930 . S
H360 C357 0.929 . S
S361 N362 1.613 . S
S361 N363 1.610 . S
N362 S361 1.613 . S
N362 C365 1.350 . S
N363 S361 1.610 . S
N363 C364 1.351 . S
C364 C358 1.428 . S
C364 N363 1.351 . S
C364 C365 1.434 . S
C365 C356 1.429 . S
C365 N362 1.350 . S
C365 C364 1.434 . S
C366 C367 1.369 . S
C366 C368 1.419 1_545 S
C366 H370 0.930 . S
C367 C366 1.369 . S
C367 C376 1.429 . S
C368 C366 1.419 1_565 S
C368 C369 1.363 . S
C368 H371 0.929 . S
C369 C368 1.363 . S
C369 C375 1.428 . S
H370 C366 0.930 . S
H371 C368 0.929 . S
S372 N373 1.613 1_565 S
S372 N374 1.610 . S
N373 S372 1.613 1_545 S
N373 C376 1.350 1_556 S
N374 S372 1.610 . S
N374 C375 1.351 1_556 S
C375 C369 1.428 . S
C375 N374 1.351 1_554 S
C375 C376 1.434 1_565 S
C376 C367 1.429 . S
C376 N373 1.350 1_554 S
C376 C375 1.434 1_545 S
C377 C378 1.369 . S
C377 C379 1.419 . S
C377 H381 0.930 . S
C378 C377 1.369 . S
C378 C387 1.429 . S
C379 C377 1.419 . S
C379 C380 1.363 . S
C379 H382 0.929 . S
C380 C379 1.363 . S
C380 C386 1.428 . S
H381 C377 0.930 . S
H382 C379 0.929 . S
S383 N384 1.613 . S
S383 N385 1.610 . S
N384 S383 1.613 . S
N384 C387 1.350 . S
N385 S383 1.610 . S
N385 C386 1.351 . S
C386 C380 1.428 . S
C386 N385 1.351 . S
C386 C387 1.434 . S
C387 C378 1.429 . S
C387 N384 1.350 . S
C387 C386 1.434 . S
C388 C389 1.369 . S
C388 C390 1.419 1_455 S
C388 H392 0.930 . S
C389 C388 1.369 . S
C389 C398 1.429 . S
C390 C388 1.419 1_655 S
C390 C391 1.363 . S
C390 H393 0.929 . S
C391 C390 1.363 . S
C391 C397 1.428 . S
H392 C388 0.930 . S
H393 C390 0.929 . S
S394 N395 1.613 . S
S394 N396 1.610 1_455 S
N395 S394 1.613 . S
N395 C398 1.350 . S
N396 S394 1.610 1_655 S
N396 C397 1.351 . S
C397 C391 1.428 . S
C397 N396 1.351 . S
C397 C398 1.434 1_655 S
C398 C389 1.429 . S
C398 N395 1.350 . S
C398 C397 1.434 1_455 S
C399 C400 1.369 . S
C399 C401 1.419 1_565 S
C399 H403 0.930 . S
C400 C399 1.369 . S
C400 C409 1.429 . S
C401 C399 1.419 1_545 S
C401 C402 1.363 . S
C401 H404 0.929 . S
C402 C401 1.363 . S
C402 C408 1.428 . S
H403 C399 0.930 . S
H404 C401 0.929 . S
S405 N406 1.613 . S
S405 N407 1.610 1_565 S
N406 S405 1.613 . S
N406 C409 1.350 . S
N407 S405 1.610 1_545 S
N407 C408 1.351 . S
C408 C402 1.428 . S
C408 N407 1.351 . S
C408 C409 1.434 1_545 S
C409 C400 1.429 . S
C409 N406 1.350 . S
C409 C408 1.434 1_565 S
C410 C411 1.369 . S
C410 C412 1.419 . S
C410 H414 0.930 . S
C411 C410 1.369 . S
C411 C420 1.429 . S
C412 C410 1.419 . S
C412 C413 1.363 . S
C412 H415 0.929 . S
C413 C412 1.363 . S
C413 C419 1.428 . S
H414 C410 0.930 . S
H415 C412 0.929 . S
S416 N417 1.613 . S
S416 N418 1.610 . S
N417 S416 1.613 . S
N417 C420 1.350 . S
N418 S416 1.610 . S
N418 C419 1.351 . S
C419 C413 1.428 . S
C419 N418 1.351 . S
C419 C420 1.434 . S
C420 C411 1.429 . S
C420 N417 1.350 . S
C420 C419 1.434 . S
C421 C422 1.369 . S
C421 C423 1.419 1_455 S
C421 H425 0.930 . S
C422 C421 1.369 . S
C422 C431 1.429 . S
C423 C421 1.419 1_655 S
C423 C424 1.363 . S
C423 H426 0.929 . S
C424 C423 1.363 . S
C424 C430 1.428 . S
H425 C421 0.930 . S
H426 C423 0.929 . S
S427 N428 1.613 . S
S427 N429 1.610 1_455 S
N428 S427 1.613 . S
N428 C431 1.350 . S
N429 S427 1.610 1_655 S
N429 C430 1.351 . S
C430 C424 1.428 . S
C430 N429 1.351 . S
C430 C431 1.434 1_655 S
C431 C422 1.429 . S
C431 N428 1.350 . S
C431 C430 1.434 1_455 S
C169 C9 1.233 . S
C171 C149 1.235 . S
C180 C23 1.234 . S
C182 C163 1.236 . S
C191 C93 1.233 . S
C193 C37 1.236 . S
C202 C51 1.233 . S
C204 C107 1.236 . S
C213 C121 1.236 . S
C215 C65 1.234 . S
C224 C135 1.235 . S
C226 C79 1.233 . S
C235 C123 1.425 . S
C237 C11 1.423 . S
C246 C25 1.424 . S
C248 C137 1.426 . S
C257 C151 1.428 . S
C259 C39 1.421 . S
C268 C53 1.423 . S
C270 C165 1.425 . S
C279 C67 1.423 . S
C281 C95 1.427 . S
C290 C81 1.421 . S
C292 C109 1.427 . S
C301 C140 1.577 . S
C303 C0 1.575 . S
C312 C154 1.580 . S
C314 C14 1.578 . S
C323 C84 1.577 . S
C325 C28 1.579 . S
C334 C42 1.580 . S
C336 C98 1.578 . S
C345 C56 1.577 . S
C347 C112 1.579 . S
C356 C126 1.578 . S
C358 C70 1.575 . S
C367 C5 1.376 . S
C369 C103 1.376 . S
C378 C117 1.376 . S
C380 C19 1.376 . S
C389 C131 1.377 . S
C391 C33 1.377 . S
C400 C47 1.377 . S
C402 C145 1.376 . S
C411 C61 1.377 . S
C413 C159 1.378 . S
C422 C75 1.376 . S
C424 C89 1.376 . S
