# Generated by pormake.
# Topology atn, (4)-cn, num edge types: 1
# Building blocks:
#     Node 0, Type 0, BuildingBlock: KUFVIS_clean_sbu_0, # of connection points: 4
#     Node 1, Type 0, BuildingBlock: KUFVIS_clean_sbu_0, # of connection points: 4
#     Node 2, Type 0, BuildingBlock: KUFVIS_clean_sbu_0, # of connection points: 4
#     Node 3, Type 0, BuildingBlock: KUFVIS_clean_sbu_0, # of connection points: 4
#     Node 4, Type 0, BuildingBlock: KUFVIS_clean_sbu_0, # of connection points: 4
#     Node 5, Type 0, BuildingBlock: KUFVIS_clean_sbu_0, # of connection points: 4
#     Node 6, Type 0, BuildingBlock: KUFVIS_clean_sbu_0, # of connection points: 4
#     Node 7, Type 0, BuildingBlock: KUFVIS_clean_sbu_0, # of connection points: 4
#     Node 8, Type 0, BuildingBlock: KUFVIS_clean_sbu_0, # of connection points: 4
#     Node 9, Type 0, BuildingBlock: KUFVIS_clean_sbu_0, # of connection points: 4
#     Node 10, Type 0, BuildingBlock: KUFVIS_clean_sbu_0, # of connection points: 4
#     Node 11, Type 0, BuildingBlock: KUFVIS_clean_sbu_0, # of connection points: 4
#     Node 12, Type 0, BuildingBlock: KUFVIS_clean_sbu_0, # of connection points: 4
#     Node 13, Type 0, BuildingBlock: KUFVIS_clean_sbu_0, # of connection points: 4
#     Node 14, Type 0, BuildingBlock: KUFVIS_clean_sbu_0, # of connection points: 4
#     Node 15, Type 0, BuildingBlock: KUFVIS_clean_sbu_0, # of connection points: 4
#     Edge 16, Type (0, 0), BuildingBlock: XUDNAN_clean_linker_2, # of connection points: 2
#     Edge 17, Type (0, 0), BuildingBlock: XUDNAN_clean_linker_2, # of connection points: 2
#     Edge 18, Type (0, 0), BuildingBlock: XUDNAN_clean_linker_2, # of connection points: 2
#     Edge 19, Type (0, 0), BuildingBlock: XUDNAN_clean_linker_2, # of connection points: 2
#     Edge 20, Type (0, 0), BuildingBlock: XUDNAN_clean_linker_2, # of connection points: 2
#     Edge 21, Type (0, 0), BuildingBlock: XUDNAN_clean_linker_2, # of connection points: 2
#     Edge 22, Type (0, 0), BuildingBlock: XUDNAN_clean_linker_2, # of connection points: 2
#     Edge 23, Type (0, 0), BuildingBlock: XUDNAN_clean_linker_2, # of connection points: 2
#     Edge 24, Type (0, 0), BuildingBlock: XUDNAN_clean_linker_2, # of connection points: 2
#     Edge 25, Type (0, 0), BuildingBlock: XUDNAN_clean_linker_2, # of connection points: 2
#     Edge 26, Type (0, 0), BuildingBlock: XUDNAN_clean_linker_2, # of connection points: 2
#     Edge 27, Type (0, 0), BuildingBlock: XUDNAN_clean_linker_2, # of connection points: 2
#     Edge 28, Type (0, 0), BuildingBlock: XUDNAN_clean_linker_2, # of connection points: 2
#     Edge 29, Type (0, 0), BuildingBlock: XUDNAN_clean_linker_2, # of connection points: 2
#     Edge 30, Type (0, 0), BuildingBlock: XUDNAN_clean_linker_2, # of connection points: 2
#     Edge 31, Type (0, 0), BuildingBlock: XUDNAN_clean_linker_2, # of connection points: 2
#     Edge 32, Type (0, 0), BuildingBlock: XUDNAN_clean_linker_2, # of connection points: 2
#     Edge 33, Type (0, 0), BuildingBlock: XUDNAN_clean_linker_2, # of connection points: 2
#     Edge 34, Type (0, 0), BuildingBlock: XUDNAN_clean_linker_2, # of connection points: 2
#     Edge 35, Type (0, 0), BuildingBlock: XUDNAN_clean_linker_2, # of connection points: 2
#     Edge 36, Type (0, 0), BuildingBlock: XUDNAN_clean_linker_2, # of connection points: 2
#     Edge 37, Type (0, 0), BuildingBlock: XUDNAN_clean_linker_2, # of connection points: 2
#     Edge 38, Type (0, 0), BuildingBlock: XUDNAN_clean_linker_2, # of connection points: 2
#     Edge 39, Type (0, 0), BuildingBlock: XUDNAN_clean_linker_2, # of connection points: 2
#     Edge 40, Type (0, 0), BuildingBlock: XUDNAN_clean_linker_2, # of connection points: 2
#     Edge 41, Type (0, 0), BuildingBlock: XUDNAN_clean_linker_2, # of connection points: 2
#     Edge 42, Type (0, 0), BuildingBlock: XUDNAN_clean_linker_2, # of connection points: 2
#     Edge 43, Type (0, 0), BuildingBlock: XUDNAN_clean_linker_2, # of connection points: 2
#     Edge 44, Type (0, 0), BuildingBlock: XUDNAN_clean_linker_2, # of connection points: 2
#     Edge 45, Type (0, 0), BuildingBlock: XUDNAN_clean_linker_2, # of connection points: 2
#     Edge 46, Type (0, 0), BuildingBlock: XUDNAN_clean_linker_2, # of connection points: 2
#     Edge 47, Type (0, 0), BuildingBlock: XUDNAN_clean_linker_2, # of connection points: 2
# Relax obj value: 0.056
# Max RMSD: 0.082
# Mean RMSD: 0.082
data_MOF--net-atn--node1-KUFVIS_clean_sbu_0--edge1-XUDNAN_clean_linker_2
_symmetry_space_group_name_H-M    P1
_symmetry_Int_Tables_number       1
_symmetry_cell_setting            triclinic
loop_
_symmetry_equiv_pos_as_xyz
'x, y, z'
_cell_length_a     60.676934
_cell_length_b     60.775178
_cell_length_c     26.348116
_cell_angle_alpha  89.897269
_cell_angle_beta   90.076749
_cell_angle_gamma 90.056758
loop_
_atom_site_label
_atom_site_type_symbol
_atom_site_fract_x
_atom_site_fract_y
_atom_site_fract_z
_atom_type_partial_charge
Mn0 Mn 0.20656 0.37188 0.0244 0.0
Mn1 Mn 0.15413 0.39018 0.01923 0.0
C2 C 0.18488 0.36995 0.0961 0.0
C3 C 0.2309 0.34258 0.01316 0.0
C4 C 0.19426 0.42038 0.02076 0.0
O5 O 0.19981 0.3728 0.94915 0.0
O6 O 0.16348 0.38088 0.9499 0.0
C7 C 0.12932 0.35013 0.99047 0.0
N8 N 0.13289 0.36703 0.02335 0.0
C9 C 0.10243 0.3557 0.0757 0.0
C10 C 0.09838 0.33822 0.04228 0.0
C11 C 0.11189 0.33542 0.99952 0.0
C12 C 0.1198 0.37006 0.06429 0.0
H13 H 0.13969 0.34789 0.9576 0.0
C14 C 0.18122 0.37504 0.92706 0.0
O15 O 0.2379 0.36281 0.01156 0.0
O16 O 0.21004 0.33965 0.0207 0.0
N17 N 0.14336 0.39901 0.08437 0.0
C18 C 0.15117 0.41497 0.11595 0.0
C19 C 0.14059 0.41876 0.1625 0.0
C20 C 0.12206 0.40619 0.17602 0.0
C21 C 0.11432 0.38987 0.1429 0.0
C22 C 0.1255 0.38687 0.09694 0.0
H23 H 0.1655 0.42457 0.10598 0.0
O24 O 0.20622 0.36996 0.09985 0.0
O25 O 0.17688 0.37156 0.05038 0.0
O26 O 0.2091 0.40572 0.02691 0.0
O27 O 0.1739 0.41575 0.01541 0.0
C28 C 0.09642 0.37597 0.15451 0.0
C29 C 0.09042 0.35896 0.12082 0.0
H30 H 0.08513 0.32667 0.04946 0.0
H31 H 0.10893 0.32191 0.9737 0.0
H32 H 0.14677 0.43126 0.18802 0.0
H33 H 0.11411 0.40899 0.21222 0.0
H34 H 0.08747 0.3779 0.18976 0.0
H35 H 0.07692 0.34809 0.13067 0.0
Mn36 Mn 0.63507 0.20838 0.02389 0.0
Mn37 Mn 0.61635 0.15611 0.02438 0.0
C38 C 0.63029 0.19021 0.10033 0.0
C39 C 0.66518 0.23244 0.018 0.0
C40 C 0.58682 0.1959 0.0064 0.0
O41 O 0.63978 0.19837 0.95132 0.0
O42 O 0.62989 0.16267 0.95691 0.0
C43 C 0.6577 0.1307 0.0144 0.0
N44 N 0.639 0.13548 0.04068 0.0
C45 C 0.64497 0.10516 0.09785 0.0
C46 C 0.66428 0.09987 0.07137 0.0
C47 C 0.67078 0.11282 0.02975 0.0
C48 C 0.63286 0.12341 0.08141 0.0
H49 H 0.66246 0.14031 0.98167 0.0
C50 C 0.63793 0.17911 0.93259 0.0
O51 O 0.64534 0.23902 0.00711 0.0
O52 O 0.66734 0.21214 0.0321 0.0
N53 N 0.60326 0.14754 0.08743 0.0
C54 C 0.58492 0.15565 0.11058 0.0
C55 C 0.57722 0.14565 0.15527 0.0
C56 C 0.58813 0.12713 0.17499 0.0
C57 C 0.60681 0.11893 0.15012 0.0
C58 C 0.61405 0.12993 0.10649 0.0
H59 H 0.57629 0.16968 0.0952 0.0
O60 O 0.63098 0.21155 0.09821 0.0
O61 O 0.63281 0.17995 0.05737 0.0
O62 O 0.60137 0.21089 0.01267 0.0
O63 O 0.59136 0.17543 0.00815 0.0
C64 C 0.61846 0.10022 0.16673 0.0
C65 C 0.63738 0.09317 0.14023 0.0
H66 H 0.67431 0.08598 0.08285 0.0
H67 H 0.68567 0.10886 0.00916 0.0
H68 H 0.56277 0.15206 0.17418 0.0
H69 H 0.58202 0.11932 0.20918 0.0
H70 H 0.61314 0.09123 0.20007 0.0
H71 H 0.64633 0.07889 0.15367 0.0
Mn72 Mn 0.80186 0.63478 0.02604 0.0
Mn73 Mn 0.85562 0.62029 0.0288 0.0
C74 C 0.82035 0.63329 0.10287 0.0
C75 C 0.77272 0.65968 0.01698 0.0
C76 C 0.81848 0.58731 0.01643 0.0
O77 O 0.81156 0.63936 0.95305 0.0
O78 O 0.8476 0.63074 0.95917 0.0
C79 C 0.87723 0.6632 0.00958 0.0
N80 N 0.8744 0.64509 0.03939 0.0
C81 C 0.90554 0.65487 0.09132 0.0
C82 C 0.90879 0.67365 0.06123 0.0
C83 C 0.89443 0.67795 0.02051 0.0
C84 C 0.88775 0.64113 0.07948 0.0
H85 H 0.86663 0.66621 0.97735 0.0
C86 C 0.83083 0.63764 0.93411 0.0
O87 O 0.77058 0.63889 0.00761 0.0
O88 O 0.79219 0.66643 0.03071 0.0
N89 N 0.86591 0.61026 0.09347 0.0
C90 C 0.85972 0.59212 0.1204 0.0
C91 C 0.87133 0.58645 0.16466 0.0
C92 C 0.8896 0.59906 0.17984 0.0
C93 C 0.89585 0.61745 0.15101 0.0
C94 C 0.88316 0.62276 0.10833 0.0
H95 H 0.846 0.58208 0.10825 0.0
O96 O 0.79903 0.63162 0.10058 0.0
O97 O 0.83055 0.63616 0.05978 0.0
O98 O 0.80287 0.60122 0.01859 0.0
O99 O 0.83869 0.5929 0.0186 0.0
C100 C 0.91431 0.6306 0.16262 0.0
C101 C 0.91924 0.64923 0.13259 0.0
H102 H 0.92222 0.68489 0.06909 0.0
H103 H 0.89685 0.69239 0.99707 0.0
H104 H 0.86644 0.57219 0.1866 0.0
H105 H 0.89874 0.59444 0.21355 0.0
H106 H 0.92464 0.62674 0.19499 0.0
H107 H 0.93327 0.65941 0.14237 0.0
Mn108 Mn 0.37567 0.80083 0.9983 0.0
Mn109 Mn 0.38803 0.85481 0.01193 0.0
C110 C 0.36872 0.81851 0.07421 0.0
C111 C 0.35243 0.77149 0.9779 0.0
C112 C 0.42264 0.81904 0.01247 0.0
O113 O 0.37762 0.81144 0.92487 0.0
O114 O 0.38559 0.84728 0.93898 0.0
C115 C 0.34683 0.87431 0.9717 0.0
N116 N 0.36182 0.87219 0.0099 0.0
C117 C 0.34253 0.89858 0.06132 0.0
C118 C 0.32694 0.90114 0.02241 0.0
C119 C 0.32908 0.88891 0.97747 0.0
C120 C 0.35995 0.88391 0.05325 0.0
H121 H 0.34841 0.86494 0.93711 0.0
C122 C 0.38169 0.83098 0.9095 0.0
O123 O 0.3737 0.76963 0.97736 0.0
O124 O 0.34448 0.79081 0.98825 0.0
N125 N 0.39064 0.86429 0.08078 0.0
C126 C 0.40594 0.85842 0.11618 0.0
C127 C 0.40542 0.86827 0.16429 0.0
C128 C 0.38927 0.88408 0.1753 0.0
C129 C 0.37388 0.89005 0.13811 0.0
C130 C 0.37526 0.87975 0.09078 0.0
H131 H 0.41832 0.8462 0.10787 0.0
O132 O 0.37173 0.79736 0.07326 0.0
O133 O 0.37049 0.82877 0.03107 0.0
O134 O 0.40927 0.80308 0.00644 0.0
O135 O 0.41637 0.839 0.01526 0.0
C136 C 0.35681 0.90529 0.1467 0.0
C137 C 0.34115 0.90957 0.10829 0.0
H138 H 0.31314 0.91226 0.02685 0.0
H139 H 0.31706 0.89071 0.94738 0.0
H140 H 0.41735 0.86359 0.19291 0.0
H141 H 0.38859 0.89131 0.21261 0.0
H142 H 0.3553 0.91345 0.18305 0.0
H143 H 0.32785 0.921 0.11565 0.0
Mn144 Mn 0.21155 0.62909 0.9885 0.0
Mn145 Mn 0.15782 0.61451 0.99147 0.0
C146 C 0.19206 0.62521 0.91371 0.0
C147 C 0.24038 0.65455 0.98963 0.0
C148 C 0.1951 0.58206 0.00709 0.0
O149 O 0.20285 0.63587 0.06117 0.0
O150 O 0.16687 0.6265 0.05878 0.0
C151 C 0.13667 0.65792 0.00619 0.0
N152 N 0.13907 0.63913 0.97866 0.0
C153 C 0.10796 0.64828 0.92602 0.0
C154 C 0.10514 0.66774 0.95378 0.0
C155 C 0.11969 0.67267 0.99373 0.0
C156 C 0.12549 0.63449 0.93939 0.0
H157 H 0.14746 0.66148 0.03775 0.0
C158 C 0.18387 0.63416 0.08168 0.0
O159 O 0.24313 0.63422 0.00308 0.0
O160 O 0.22053 0.6605 0.97709 0.0
N161 N 0.14671 0.60299 0.92895 0.0
C162 C 0.15243 0.58413 0.90435 0.0
C163 C 0.14054 0.57768 0.86109 0.0
C164 C 0.12253 0.59031 0.84448 0.0
C165 C 0.11676 0.60945 0.87095 0.0
C166 C 0.12963 0.61542 0.91283 0.0
H167 H 0.166 0.57415 0.91754 0.0
O168 O 0.21339 0.62353 0.91458 0.0
O169 O 0.18249 0.62939 0.95687 0.0
O170 O 0.21073 0.59586 1.0022 0.0
O171 O 0.17487 0.58752 0.00438 0.0
C172 C 0.09863 0.62275 0.85769 0.0
C173 C 0.09412 0.64206 0.88548 0.0
H174 H 0.09192 0.67904 0.94465 0.0
H175 H 0.11762 0.68765 0.01534 0.0
H176 H 0.14506 0.56285 0.84098 0.0
H177 H 0.11322 0.58513 0.81148 0.0
H178 H 0.0882 0.61842 0.82582 0.0
H179 H 0.08031 0.6523 0.87451 0.0
Mn180 Mn 0.37597 0.20512 0.98502 0.0
Mn181 Mn 0.39497 0.1531 0.98973 0.0
C182 C 0.37519 0.18391 0.91224 0.0
C183 C 0.34613 0.22897 0.99465 0.0
C184 C 0.42473 0.19365 0.99179 0.0
O185 O 0.37574 0.19778 0.06017 0.0
O186 O 0.38446 0.16168 0.05891 0.0
C187 C 0.35493 0.12742 0.01474 0.0
N188 N 0.37214 0.13162 0.98301 0.0
C189 C 0.36147 0.10199 0.92763 0.0
C190 C 0.34369 0.09731 0.95983 0.0
C191 C 0.34041 0.11009 0.00355 0.0
C192 C 0.37565 0.11921 0.9412 0.0
H193 H 0.35228 0.13724 0.0483 0.0
C194 C 0.37779 0.17908 0.08185 0.0
O195 O 0.36626 0.23619 0.99823 0.0
O196 O 0.3436 0.20815 0.98621 0.0
N197 N 0.40478 0.1431 0.92465 0.0
C198 C 0.42108 0.1514 0.89462 0.0
C199 C 0.42542 0.14155 0.84752 0.0
C200 C 0.41299 0.12329 0.83176 0.0
C201 C 0.39629 0.11506 0.86324 0.0
C202 C 0.39277 0.12548 0.90992 0.0
H203 H 0.43054 0.16557 0.90621 0.0
O204 O 0.37517 0.20524 0.90932 0.0
O205 O 0.37637 0.1757 0.95788 0.0
O206 O 0.40985 0.20823 0.98522 0.0
O207 O 0.42034 0.1732 0.99618 0.0
C208 C 0.38252 0.09737 0.84938 0.0
C209 C 0.36519 0.09078 0.88166 0.0
H210 H 0.33226 0.08416 0.95097 0.0
H211 H 0.32665 0.10665 0.02844 0.0
H212 H 0.43823 0.1481 0.82326 0.0
H213 H 0.41622 0.1159 0.79512 0.0
H214 H 0.38484 0.08901 0.8135 0.0
H215 H 0.35446 0.07743 0.87013 0.0
Mn216 Mn 0.80413 0.37726 0.99387 0.0
Mn217 Mn 0.8565 0.39577 0.98768 0.0
C218 C 0.82048 0.38248 0.91572 0.0
C219 C 0.78009 0.3472 1.00139 0.0
C220 C 0.8173 0.42536 0.01001 0.0
O221 O 0.8158 0.37202 0.06497 0.0
O222 O 0.85131 0.38231 0.05589 0.0
C223 C 0.88182 0.35429 0.9953 0.0
N224 N 0.8766 0.37298 0.96938 0.0
C225 C 0.90569 0.3668 0.90914 0.0
C226 C 0.91142 0.34749 0.93524 0.0
C227 C 0.8993 0.34111 0.97822 0.0
C228 C 0.88786 0.37902 0.92736 0.0
H229 H 0.87287 0.3496 0.02904 0.0
C230 C 0.83542 0.37405 0.08171 0.0
O231 O 0.7738 0.36693 0.01374 0.0
O232 O 0.80009 0.34512 0.98512 0.0
N233 N 0.86383 0.40877 0.92368 0.0
C234 C 0.85537 0.42714 0.90128 0.0
C235 C 0.86448 0.43475 0.85551 0.0
C236 C 0.88248 0.42369 0.83391 0.0
C237 C 0.89106 0.40497 0.85801 0.0
C238 C 0.88093 0.39783 0.90282 0.0
H239 H 0.84175 0.43589 0.9181 0.0
O240 O 0.79919 0.38189 0.92029 0.0
O241 O 0.83178 0.37959 0.9573 0.0
O242 O 0.80213 0.41084 0.00601 0.0
O243 O 0.83772 0.42085 0.00568 0.0
C244 C 0.90932 0.39317 0.8395 0.0
C245 C 0.91681 0.37425 0.86541 0.0
H246 H 0.925 0.33738 0.92241 0.0
H247 H 0.9036 0.32622 0.99851 0.0
H248 H 0.85778 0.44923 0.83721 0.0
H249 H 0.88962 0.42974 0.79889 0.0
H250 H 0.91763 0.3984 0.80516 0.0
H251 H 0.93074 0.36519 0.85054 0.0
Mn252 Mn 0.63208 0.8027 0.99447 0.0
Mn253 Mn 0.61827 0.85656 0.99155 0.0
C254 C 0.62966 0.82081 0.91757 0.0
C255 C 0.65708 0.77361 1.00233 0.0
C256 C 0.58498 0.82007 0.008 0.0
O257 O 0.63781 0.81258 0.06661 0.0
O258 O 0.6296 0.84868 0.06044 0.0
C259 C 0.66173 0.87772 0.00694 0.0
N260 N 0.64318 0.87493 0.97853 0.0
C261 C 0.65257 0.90566 0.92507 0.0
C262 C 0.67181 0.90887 0.9537 0.0
C263 C 0.67652 0.89468 0.99449 0.0
C264 C 0.6388 0.88811 0.9384 0.0
H265 H 0.66507 0.86727 0.03925 0.0
C266 C 0.63657 0.83189 0.08522 0.0
O267 O 0.63638 0.77149 0.01326 0.0
O268 O 0.66362 0.79297 0.98751 0.0
N269 N 0.60746 0.8666 0.92736 0.0
C270 C 0.58892 0.86041 0.90184 0.0
C271 C 0.58282 0.87177 0.85753 0.0
C272 C 0.59546 0.88976 0.84084 0.0
C273 C 0.61429 0.896 0.8682 0.0
C274 C 0.61997 0.88358 0.91101 0.0
H275 H 0.57889 0.8469 0.91518 0.0
O276 O 0.62774 0.79955 0.92045 0.0
O277 O 0.6333 0.83115 0.96012 0.0
O278 O 0.59862 0.80424 0.00479 0.0
O279 O 0.59081 0.84014 0.00456 0.0
C280 C 0.62753 0.91418 0.85499 0.0
C281 C 0.64656 0.91913 0.88368 0.0
H282 H 0.6831 0.92211 0.94463 0.0
H283 H 0.69131 0.89707 0.0168 0.0
H284 H 0.56824 0.86688 0.83671 0.0
H285 H 0.59052 0.8987 0.80709 0.0
H286 H 0.62339 0.92429 0.82245 0.0
H287 H 0.65679 0.93296 0.87272 0.0
Mn288 Mn 0.7098 0.87736 0.5219 0.0
Mn289 Mn 0.6555 0.88982 0.51976 0.0
C290 C 0.68901 0.8728 0.59439 0.0
C291 C 0.73973 0.8537 0.51106 0.0
C292 C 0.69168 0.92429 0.51885 0.0
O293 O 0.70211 0.87671 0.44683 0.0
O294 O 0.66527 0.88231 0.44961 0.0
C295 C 0.63531 0.84736 0.49019 0.0
N296 N 0.63716 0.8643 0.52368 0.0
C297 C 0.60845 0.84926 0.57636 0.0
C298 C 0.60619 0.83169 0.54232 0.0
C299 C 0.6197 0.83073 0.49911 0.0
C300 C 0.62407 0.86553 0.56512 0.0
H301 H 0.64565 0.84656 0.45691 0.0
C302 C 0.68315 0.87783 0.42572 0.0
O303 O 0.7417 0.87489 0.50785 0.0
O304 O 0.72005 0.84599 0.5192 0.0
N305 N 0.64433 0.89679 0.58575 0.0
C306 C 0.65055 0.91324 0.61781 0.0
C307 C 0.63992 0.91546 0.66484 0.0
C308 C 0.62294 0.90086 0.67829 0.0
C309 C 0.61682 0.88406 0.64465 0.0
C310 C 0.62802 0.88264 0.59829 0.0
H311 H 0.66369 0.92442 0.60781 0.0
O312 O 0.71017 0.87588 0.5975 0.0
O313 O 0.68053 0.87319 0.54895 0.0
O314 O 0.70767 0.91093 0.52329 0.0
O315 O 0.67172 0.91796 0.51589 0.0
C316 C 0.60062 0.86819 0.6561 0.0
C317 C 0.59637 0.85087 0.62187 0.0
H318 H 0.59435 0.81869 0.54936 0.0
H319 H 0.61811 0.81716 0.4728 0.0
H320 H 0.64487 0.92834 0.69079 0.0
H321 H 0.61496 0.90248 0.71485 0.0
H322 H 0.59171 0.86887 0.69166 0.0
H323 H 0.5842 0.83851 0.63159 0.0
Mn324 Mn 0.13894 0.70546 0.51947 0.0
Mn325 Mn 0.12042 0.6531 0.51344 0.0
C326 C 0.13957 0.6837 0.59155 0.0
C327 C 0.16886 0.72974 0.51133 0.0
C328 C 0.09017 0.69312 0.51225 0.0
O329 O 0.13942 0.69861 0.44406 0.0
O330 O 0.13049 0.6625 0.44462 0.0
C331 C 0.1609 0.62851 0.48715 0.0
N332 N 0.14362 0.632 0.51906 0.0
C333 C 0.15461 0.60178 0.57254 0.0
C334 C 0.17248 0.59782 0.54013 0.0
C335 C 0.17564 0.61125 0.49729 0.0
C336 C 0.14025 0.61899 0.56005 0.0
H337 H 0.16343 0.63882 0.45424 0.0
C338 C 0.13701 0.68006 0.42195 0.0
O339 O 0.14869 0.73681 0.50763 0.0
O340 O 0.17138 0.70887 0.51895 0.0
N341 N 0.11087 0.64228 0.5781 0.0
C342 C 0.09448 0.64996 0.6086 0.0
C343 C 0.09025 0.63944 0.65507 0.0
C344 C 0.10283 0.6211 0.66964 0.0
C345 C 0.1196 0.61348 0.63762 0.0
C346 C 0.12303 0.62459 0.59166 0.0
H347 H 0.08487 0.66416 0.59784 0.0
O348 O 0.13951 0.705 0.59525 0.0
O349 O 0.13866 0.67583 0.5457 0.0
O350 O 0.10488 0.70798 0.51865 0.0
O351 O 0.09483 0.67276 0.50805 0.0
C352 C 0.13354 0.59576 0.65031 0.0
C353 C 0.15096 0.58986 0.61769 0.0
H354 H 0.18406 0.58471 0.54817 0.0
H355 H 0.18946 0.60835 0.47226 0.0
H356 H 0.07739 0.64552 0.67976 0.0
H357 H 0.09969 0.61319 0.7058 0.0
H358 H 0.13128 0.58687 0.68561 0.0
H359 H 0.16183 0.5765 0.62837 0.0
Mn360 Mn 0.29754 0.1319 0.51371 0.0
Mn361 Mn 0.35157 0.11806 0.5141 0.0
C362 C 0.31676 0.13032 0.58965 0.0
C363 C 0.26808 0.15666 0.50635 0.0
C364 C 0.31475 0.0847 0.50239 0.0
O365 O 0.30664 0.13667 0.44017 0.0
O366 O 0.34284 0.12853 0.44526 0.0
C367 C 0.37234 0.16138 0.495 0.0
N368 N 0.37006 0.14309 0.52447 0.0
C369 C 0.40152 0.15308 0.57511 0.0
C370 C 0.4042 0.17205 0.54539 0.0
C371 C 0.38941 0.17634 0.50549 0.0
C372 C 0.38381 0.13915 0.56383 0.0
H373 H 0.36141 0.16436 0.46334 0.0
C374 C 0.32583 0.13508 0.42064 0.0
O375 O 0.26602 0.13587 0.49679 0.0
O376 O 0.28763 0.16347 0.51921 0.0
N377 N 0.36259 0.10786 0.57798 0.0
C378 C 0.35711 0.08933 0.60431 0.0
C379 C 0.3693 0.08353 0.64765 0.0
C380 C 0.38747 0.09639 0.66237 0.0
C381 C 0.39306 0.11512 0.634 0.0
C382 C 0.37979 0.12054 0.59233 0.0
H383 H 0.3435 0.07909 0.5924 0.0
O384 O 0.29542 0.12857 0.58851 0.0
O385 O 0.3265 0.13342 0.54615 0.0
O386 O 0.29891 0.09831 0.5058 0.0
O387 O 0.33488 0.0906 0.50387 0.0
C388 C 0.41144 0.12847 0.64498 0.0
C389 C 0.41573 0.14739 0.61541 0.0
H390 H 0.41755 0.18345 0.55287 0.0
H391 H 0.3914 0.19092 0.48232 0.0
H392 H 0.36494 0.06899 0.66918 0.0
H393 H 0.39706 0.09167 0.69533 0.0
H394 H 0.4222 0.12453 0.67655 0.0
H395 H 0.42971 0.15772 0.62473 0.0
Mn396 Mn 0.8772 0.3028 0.52008 0.0
Mn397 Mn 0.88519 0.35793 0.51879 0.0
C398 C 0.86898 0.3233 0.59118 0.0
C399 C 0.85521 0.27173 0.50677 0.0
C400 C 0.92251 0.32501 0.53041 0.0
O401 O 0.87848 0.30971 0.44502 0.0
O402 O 0.88355 0.34643 0.44776 0.0
C403 C 0.84305 0.37199 0.47197 0.0
N404 N 0.85796 0.37333 0.51055 0.0
C405 C 0.83736 0.4023 0.5507 0.0
C406 C 0.82188 0.40133 0.51119 0.0
C407 C 0.82471 0.38607 0.47175 0.0
C408 C 0.85544 0.38803 0.5486 0.0
H409 H 0.84516 0.36032 0.44152 0.0
C410 C 0.88052 0.3284 0.42343 0.0
O411 O 0.87657 0.27053 0.5071 0.0
O412 O 0.84663 0.2911 0.51264 0.0
N413 N 0.88639 0.37158 0.58426 0.0
C414 C 0.90045 0.36772 0.62357 0.0
C415 C 0.89905 0.38059 0.66766 0.0
C416 C 0.88305 0.39719 0.67109 0.0
C417 C 0.8683 0.40045 0.63074 0.0
C418 C 0.87062 0.38721 0.58756 0.0
H419 H 0.912 0.35437 0.62195 0.0
O420 O 0.87354 0.3025 0.59505 0.0
O421 O 0.86978 0.33179 0.54574 0.0
O422 O 0.91078 0.30765 0.52698 0.0
O423 O 0.91448 0.34439 0.52857 0.0
C424 C 0.85067 0.41549 0.63279 0.0
C425 C 0.83522 0.41642 0.59278 0.0
H426 H 0.80761 0.41203 0.51108 0.0
H427 H 0.81278 0.38514 0.44127 0.0
H428 H 0.91006 0.37751 0.69922 0.0
H429 H 0.88175 0.40681 0.70554 0.0
H430 H 0.84845 0.42593 0.66567 0.0
H431 H 0.82143 0.42767 0.59536 0.0
Mn432 Mn 0.71052 0.13324 0.49493 0.0
Mn433 Mn 0.65611 0.12103 0.49809 0.0
C434 C 0.68938 0.13749 0.42258 0.0
C435 C 0.7407 0.15682 0.50446 0.0
C436 C 0.69206 0.08638 0.49912 0.0
O437 O 0.70311 0.13432 0.57025 0.0
O438 O 0.66625 0.12864 0.56799 0.0
C439 C 0.63653 0.16376 0.52729 0.0
N440 N 0.63803 0.14669 0.49407 0.0
C441 C 0.60932 0.16188 0.44152 0.0
C442 C 0.60742 0.17959 0.47528 0.0
C443 C 0.6211 0.18054 0.51829 0.0
C444 C 0.62478 0.14548 0.45282 0.0
H445 H 0.64701 0.16456 0.5604 0.0
C446 C 0.68421 0.1332 0.59166 0.0
O447 O 0.74256 0.13564 0.50831 0.0
O448 O 0.72102 0.16454 0.49651 0.0
N449 N 0.64457 0.11395 0.43243 0.0
C450 C 0.65041 0.0973 0.40061 0.0
C451 C 0.63953 0.09502 0.35381 0.0
C452 C 0.6227 0.10977 0.34036 0.0
C453 C 0.61695 0.12676 0.37377 0.0
C454 C 0.62837 0.12822 0.4199 0.0
H455 H 0.66344 0.086 0.41061 0.0
O456 O 0.7105 0.13433 0.41916 0.0
O457 O 0.68115 0.13738 0.46819 0.0
O458 O 0.70812 0.09967 0.4945 0.0
O459 O 0.67213 0.09279 0.50204 0.0
C460 C 0.60091 0.14276 0.36228 0.0
C461 C 0.59703 0.16026 0.39624 0.0
H462 H 0.59572 0.1927 0.4682 0.0
H463 H 0.6198 0.19421 0.54439 0.0
H464 H 0.64419 0.08199 0.32804 0.0
H465 H 0.61453 0.1081 0.30398 0.0
H466 H 0.59183 0.14206 0.32688 0.0
H467 H 0.58499 0.17271 0.38647 0.0
Mn468 Mn 0.88016 0.71109 0.49887 0.0
Mn469 Mn 0.89369 0.6572 0.50077 0.0
C470 C 0.87615 0.69035 0.42592 0.0
C471 C 0.85577 0.74042 0.50943 0.0
C472 C 0.92758 0.69409 0.50258 0.0
O473 O 0.87927 0.70318 0.574 0.0
O474 O 0.88549 0.6665 0.57099 0.0
C475 C 0.85153 0.63589 0.52899 0.0
N476 N 0.86858 0.63832 0.49585 0.0
C477 C 0.85419 0.60981 0.44177 0.0
C478 C 0.83653 0.60696 0.47543 0.0
C479 C 0.8352 0.62007 0.51918 0.0
C480 C 0.87018 0.62559 0.45393 0.0
H481 H 0.85042 0.64594 0.56265 0.0
C482 C 0.88044 0.68419 0.59496 0.0
O483 O 0.87693 0.74285 0.51311 0.0
O484 O 0.84852 0.72062 0.50104 0.0
N485 N 0.90123 0.64649 0.43469 0.0
C486 C 0.91771 0.65321 0.40317 0.0
C487 C 0.92028 0.643 0.35576 0.0
C488 C 0.90594 0.62596 0.34133 0.0
C489 C 0.88909 0.61934 0.37439 0.0
C490 C 0.88735 0.6301 0.42121 0.0
H491 H 0.92867 0.66642 0.41387 0.0
O492 O 0.87892 0.71152 0.42311 0.0
O493 O 0.87663 0.68185 0.47135 0.0
O494 O 0.9139 0.7098 0.49794 0.0
O495 O 0.92154 0.67405 0.50556 0.0
C496 C 0.8735 0.60301 0.36198 0.0
C497 C 0.85613 0.59817 0.39576 0.0
H498 H 0.82374 0.59498 0.4677 0.0
H499 H 0.82156 0.61804 0.54521 0.0
H500 H 0.9332 0.64834 0.33027 0.0
H501 H 0.90782 0.61831 0.30448 0.0
H502 H 0.87443 0.59443 0.32604 0.0
H503 H 0.84398 0.58591 0.38532 0.0
Mn504 Mn 0.30767 0.87385 0.48386 0.0
Mn505 Mn 0.35849 0.89411 0.46051 0.0
C506 C 0.32045 0.87684 0.40114 0.0
C507 C 0.28473 0.84361 0.50021 0.0
C508 C 0.31926 0.92296 0.48653 0.0
O509 O 0.32254 0.87146 0.5533 0.0
O510 O 0.35617 0.88404 0.53175 0.0
C511 C 0.38533 0.85387 0.47346 0.0
N512 N 0.37882 0.87124 0.44441 0.0
C513 C 0.40749 0.86443 0.38358 0.0
C514 C 0.41452 0.84641 0.41274 0.0
C515 C 0.40322 0.84096 0.45757 0.0
C516 C 0.3891 0.87618 0.4004 0.0
H517 H 0.37715 0.8501 0.50881 0.0
C518 C 0.34257 0.87602 0.56396 0.0
O519 O 0.27855 0.86348 0.51146 0.0
O520 O 0.30424 0.84143 0.48108 0.0
N521 N 0.36338 0.90435 0.39285 0.0
C522 C 0.354 0.92176 0.36842 0.0
C523 C 0.36263 0.92871 0.32165 0.0
C524 C 0.38123 0.91815 0.30139 0.0
C525 C 0.39067 0.90034 0.32743 0.0
C526 C 0.38089 0.8937 0.37301 0.0
H527 H 0.34018 0.9304 0.38477 0.0
O528 O 0.29952 0.87588 0.41077 0.0
O529 O 0.3335 0.87579 0.4402 0.0
O530 O 0.30488 0.90768 0.49107 0.0
O531 O 0.33938 0.9192 0.47583 0.0
C532 C 0.40968 0.88921 0.31062 0.0
C533 C 0.41806 0.87125 0.33863 0.0
H534 H 0.42856 0.83667 0.40107 0.0
H535 H 0.40857 0.82712 0.48033 0.0
H536 H 0.3553 0.9425 0.30183 0.0
H537 H 0.3882 0.92399 0.26603 0.0
H538 H 0.41794 0.89425 0.27609 0.0
H539 H 0.43249 0.86264 0.32492 0.0
Mn540 Mn 0.12816 0.30078 0.49546 0.0
Mn541 Mn 0.11781 0.35545 0.49421 0.0
C542 C 0.12546 0.3193 0.41906 0.0
C543 C 0.15242 0.27088 0.50082 0.0
C544 C 0.08299 0.32095 0.51638 0.0
O545 O 0.13547 0.31031 0.56745 0.0
O546 O 0.13066 0.34707 0.5609 0.0
C547 C 0.16248 0.37465 0.50219 0.0
N548 N 0.14308 0.37253 0.47664 0.0
C549 C 0.15196 0.40298 0.42188 0.0
C550 C 0.17208 0.40548 0.44752 0.0
C551 C 0.17746 0.3911 0.48748 0.0
C552 C 0.13799 0.38592 0.43733 0.0
H553 H 0.16631 0.3641 0.53403 0.0
C554 C 0.1363 0.32977 0.58557 0.0
O555 O 0.13181 0.26923 0.51327 0.0
O556 O 0.15918 0.29009 0.48574 0.0
N557 N 0.10548 0.3658 0.43179 0.0
C558 C 0.08597 0.36035 0.40946 0.0
C559 C 0.07904 0.37184 0.36598 0.0
C560 C 0.09191 0.38923 0.34694 0.0
C561 C 0.11177 0.39472 0.3711 0.0
C562 C 0.1182 0.38216 0.41313 0.0
H563 H 0.07581 0.34732 0.4247 0.0
O564 O 0.12254 0.29814 0.42153 0.0
O565 O 0.13029 0.32916 0.46148 0.0
O566 O 0.09482 0.30396 0.50897 0.0
O567 O 0.09033 0.3405 0.51291 0.0
C568 C 0.12534 0.4123 0.35551 0.0
C569 C 0.1453 0.4166 0.3813 0.0
H570 H 0.18356 0.41832 0.43669 0.0
H571 H 0.19294 0.39295 0.50749 0.0
H572 H 0.06367 0.36754 0.34765 0.0
H573 H 0.08635 0.39829 0.31388 0.0
H574 H 0.12068 0.4225 0.3235 0.0
H575 H 0.1557 0.43001 0.36865 0.0
H576 H 0.16601 0.54777 0.01354 0.0
H577 H 0.23608 0.56235 0.01419 0.0
H578 H 0.24417 0.52247 0.01984 0.0
H579 H 0.16776 0.50205 0.10127 0.0
H580 H 0.14671 0.48703 0.06761 0.0
H581 H 0.14686 0.51666 0.06613 0.0
H582 H 0.1475 0.51585 0.9677 0.0
H583 H 0.14743 0.48624 0.96888 0.0
H584 H 0.16893 0.50079 0.93564 0.0
H585 H 0.24411 0.47988 0.02286 0.0
H586 H 0.23572 0.43986 0.02305 0.0
H587 H 0.16581 0.45504 0.01943 0.0
C588 C 0.18311 0.54274 0.01541 0.0
C589 C 0.20039 0.55832 0.01361 0.0
C590 C 0.22251 0.55079 0.0157 0.0
C591 C 0.22727 0.52815 0.01887 0.0
C592 C 0.20976 0.51325 0.01996 0.0
C593 C 0.18813 0.52037 0.01843 0.0
C594 C 0.17216 0.50131 0.01863 0.0
C595 C 0.15752 0.5018 0.06625 0.0
C596 C 0.15819 0.50104 0.96981 0.0
C597 C 0.1881 0.48226 0.02018 0.0
C598 C 0.20974 0.48928 0.02115 0.0
C599 C 0.22718 0.47427 0.02223 0.0
C600 C 0.22228 0.45156 0.02231 0.0
C601 C 0.20012 0.44416 0.02105 0.0
C602 C 0.18298 0.45992 0.02014 0.0
H603 H 0.46002 0.16601 0.98853 0.0
H604 H 0.44356 0.2354 0.99629 0.0
H605 H 0.48351 0.24453 0.99792 0.0
H606 H 0.50574 0.16728 0.07219 0.0
H607 H 0.52105 0.14715 0.0366 0.0
H608 H 0.4914 0.14677 0.0354 0.0
H609 H 0.492 0.14923 0.93708 0.0
H610 H 0.52167 0.14967 0.938 0.0
H611 H 0.50669 0.17143 0.90677 0.0
H612 H 0.52674 0.24517 1.00153 0.0
H613 H 0.56688 0.23721 0.00609 0.0
H614 H 0.55255 0.16744 0.99336 0.0
C615 C 0.46461 0.18321 0.99068 0.0
C616 C 0.44849 0.19997 0.99258 0.0
C617 C 0.45553 0.22222 0.99486 0.0
C618 C 0.47821 0.22754 0.99579 0.0
C619 C 0.49362 0.21045 0.99399 0.0
C620 C 0.48692 0.18875 0.9913 0.0
C621 C 0.50626 0.17317 0.98996 0.0
C622 C 0.5061 0.15769 0.03629 0.0
C623 C 0.50667 0.16011 0.93998 0.0
C624 C 0.52508 0.18937 0.99269 0.0
C625 C 0.51771 0.21084 0.99505 0.0
C626 C 0.53257 0.22837 0.99935 0.0
C627 C 0.55537 0.22372 1.00181 0.0
C628 C 0.56308 0.2017 0.99988 0.0
C629 C 0.5475 0.18451 0.99467 0.0
H630 H 0.84595 0.45948 0.02408 0.0
H631 H 0.77615 0.44532 0.00762 0.0
H632 H 0.76834 0.48541 0.00831 0.0
H633 H 0.84087 0.50678 0.10646 0.0
H634 H 0.86359 0.52089 0.07671 0.0
H635 H 0.86302 0.49127 0.07838 0.0
H636 H 0.86699 0.49029 0.98044 0.0
H637 H 0.86735 0.51989 0.97835 0.0
H638 H 0.84734 0.50484 0.94156 0.0
H639 H 0.76892 0.52792 0.00718 0.0
H640 H 0.77754 0.56775 0.0069 0.0
H641 H 0.84715 0.55253 0.0218 0.0
C642 C 0.82891 0.46461 0.02124 0.0
C643 C 0.81164 0.44908 0.01595 0.0
C644 C 0.78966 0.4568 0.01209 0.0
C645 C 0.7851 0.47956 0.01224 0.0
C646 C 0.80268 0.49435 0.0163 0.0
C647 C 0.82412 0.48705 0.02104 0.0
C648 C 0.84031 0.50598 0.02321 0.0
C649 C 0.85267 0.50624 0.07423 0.0
C650 C 0.85644 0.50519 0.97821 0.0
C651 C 0.82471 0.52524 0.01869 0.0
C652 C 0.80305 0.51833 0.01489 0.0
C653 C 0.78584 0.53342 0.01026 0.0
C654 C 0.79092 0.55604 0.01 0.0
C655 C 0.81306 0.56341 0.01412 0.0
C656 C 0.83006 0.54762 0.01827 0.0
H657 H 0.55065 0.84944 0.01343 0.0
H658 H 0.56496 0.77943 0.01402 0.0
H659 H 0.52507 0.77142 0.01808 0.0
H660 H 0.50406 0.84724 0.09994 0.0
H661 H 0.48904 0.86827 0.06623 0.0
H662 H 0.51873 0.86837 0.0657 0.0
H663 H 0.5184 0.86812 0.96732 0.0
H664 H 0.48873 0.86798 0.96754 0.0
H665 H 0.50358 0.84676 0.93433 0.0
H666 H 0.4832 0.77115 0.0181 0.0
H667 H 0.4432 0.77866 0.01557 0.0
H668 H 0.45673 0.84885 0.01571 0.0
C669 C 0.5455 0.83239 0.01497 0.0
C670 C 0.56109 0.81508 0.01355 0.0
C671 C 0.55345 0.79302 0.01523 0.0
C672 C 0.53078 0.78829 0.01752 0.0
C673 C 0.51592 0.80577 0.0183 0.0
C674 C 0.52301 0.82738 0.01732 0.0
C675 C 0.50373 0.8432 0.01723 0.0
C676 C 0.5039 0.85762 0.06513 0.0
C677 C 0.50361 0.85734 0.96872 0.0
C678 C 0.48464 0.82713 0.01784 0.0
C679 C 0.49197 0.80562 0.01853 0.0
C680 C 0.4773 0.78795 0.01788 0.0
C681 C 0.45457 0.79239 0.01637 0.0
C682 C 0.44668 0.81435 0.01556 0.0
C683 C 0.46208 0.83186 0.01659 0.0
H684 H 0.66212 0.05233 0.50286 0.0
H685 H 0.73243 0.06586 0.50073 0.0
H686 H 0.74 0.02602 0.50594 0.0
H687 H 0.66412 0.00752 0.59164 0.0
H688 H 0.64285 0.99192 0.5602 0.0
H689 H 0.64294 0.0215 0.556 0.0
H690 H 0.64296 0.0191 0.4578 0.0
H691 H 0.6428 0.98951 0.4617 0.0
H692 H 0.66409 1.00341 0.42632 0.0
H693 H 0.73991 0.98452 0.51231 0.0
H694 H 0.73216 0.9447 0.51747 0.0
H695 H 0.66191 0.95843 0.51514 0.0
C696 C 0.67914 0.04699 0.50349 0.0
C697 C 0.69667 0.06236 0.50146 0.0
C698 C 0.71868 0.05451 0.50221 0.0
C699 C 0.72316 0.03188 0.50523 0.0
C700 C 0.70549 0.01724 0.50739 0.0
C701 C 0.68392 0.02448 0.50642 0.0
C702 C 0.66791 0.00536 0.50901 0.0
C703 C 0.65362 0.00666 0.55708 0.0
C704 C 0.6536 0.00429 0.46083 0.0
C705 C 0.68384 0.98621 0.51166 0.0
C706 C 0.70544 0.9934 0.51076 0.0
C707 C 0.72305 0.97871 0.51298 0.0
C708 C 0.71846 0.95609 0.51598 0.0
C709 C 0.69641 0.9483 0.51665 0.0
C710 C 0.67895 0.96372 0.51458 0.0
H711 H 0.96202 0.66482 0.5046 0.0
H712 H 0.94785 0.73482 0.50375 0.0
H713 H 0.98784 0.7428 0.50632 0.0
H714 H 0.00796 0.66698 0.59017 0.0
H715 H 0.02305 0.6458 0.5574 0.0
H716 H 0.99338 0.64589 0.55567 0.0
H717 H 0.99429 0.64607 0.45728 0.0
H718 H 0.02396 0.64595 0.45871 0.0
H719 H 0.00952 0.66725 0.42456 0.0
H720 H 0.03047 0.74277 0.50964 0.0
H721 H 0.07054 0.73447 0.51195 0.0
H722 H 0.05532 0.66464 0.50987 0.0
C723 C 0.96721 0.68187 0.50507 0.0
C724 C 0.95163 0.69916 0.50409 0.0
C725 C 0.95936 0.72122 0.50448 0.0
C726 C 0.98209 0.72594 0.50598 0.0
C727 C 0.99697 0.70844 0.50697 0.0
C728 C 0.98973 0.68685 0.50645 0.0
C729 C 0.00885 0.67092 0.50739 0.0
C730 C 0.00827 0.65656 0.55552 0.0
C731 C 0.00917 0.65672 0.45911 0.0
C732 C 0.02802 0.68685 0.50849 0.0
C733 C 0.02101 0.70844 0.50837 0.0
C734 C 0.03608 0.72587 0.50964 0.0
C735 C 0.05883 0.72102 0.51098 0.0
C736 C 0.06628 0.69892 0.51085 0.0
C737 C 0.05044 0.68177 0.50966 0.0
H738 H 0.34435 0.05114 0.49105 0.0
H739 H 0.27427 0.06375 0.50669 0.0
H740 H 0.26712 0.0236 0.50543 0.0
H741 H 0.33963 0.00519 0.40601 0.0
H742 H 0.36261 0.99088 0.43416 0.0
H743 H 0.36169 0.02048 0.43535 0.0
H744 H 0.36588 0.01979 0.53335 0.0
H745 H 0.36669 0.99019 0.53247 0.0
H746 H 0.34657 1.00419 0.57092 0.0
H747 H 0.26825 0.98091 0.5039 0.0
H748 H 0.27759 0.94116 0.49935 0.0
H749 H 0.34679 0.95843 0.48546 0.0
C750 C 0.32742 0.04561 0.49393 0.0
C751 C 0.30989 0.06074 0.49889 0.0
C752 C 0.28803 0.05255 0.50265 0.0
C753 C 0.2838 0.02975 0.50211 0.0
C754 C 0.30158 0.01533 0.4977 0.0
C755 C 0.32294 0.02307 0.49342 0.0
C756 C 0.33931 0.00448 0.48929 0.0
C757 C 0.35152 0.00531 0.43816 0.0
C758 C 0.35556 0.00468 0.53419 0.0
C759 C 0.32393 0.98496 0.49207 0.0
C760 C 0.30221 0.99134 0.49693 0.0
C761 C 0.28524 0.9758 0.50004 0.0
C762 C 0.29069 0.95325 0.49759 0.0
C763 C 0.31292 0.9465 0.49204 0.0
C764 C 0.32959 0.96278 0.48965 0.0
H765 H 0.04926 0.29636 0.47327 0.0
H766 H 0.06461 0.34168 0.59529 0.0
H767 H 0.0253 0.34405 0.61713 0.0
H768 H 1.00218 0.32337 0.4318 0.0
H769 H 0.986 0.29932 0.41703 0.0
H770 H 0.01561 0.29793 0.41516 0.0
H771 H 0.01516 0.26546 0.47884 0.0
H772 H 0.98547 0.26659 0.48055 0.0
H773 H 1.00108 0.26849 0.53864 0.0
H774 H 0.98549 0.34694 0.617 0.0
H775 H 0.94594 0.34778 0.60038 0.0
H776 H 0.95361 0.29904 0.48169 0.0
C777 C 0.04428 0.30609 0.50566 0.0
C778 C 0.05991 0.31867 0.53312 0.0
C779 C 0.05286 0.33185 0.57414 0.0
C780 C 0.03059 0.33327 0.58685 0.0
C781 C 0.01546 0.32136 0.55822 0.0
C782 C 0.02184 0.30779 0.51886 0.0
C783 C 1.0017 0.29837 0.49193 0.0
C784 C 1.00136 0.30516 0.43565 0.0
C785 C 1.0008 0.27323 0.49786 0.0
C786 C 0.98318 0.3094 0.52134 0.0
C787 C 0.99172 0.32252 0.55939 0.0
C788 C 0.9785 0.33622 0.58844 0.0
C789 C 0.9559 0.3366 0.5786 0.0
C790 C 0.94645 0.32305 0.54075 0.0
C791 C 0.96029 0.30906 0.51197 0.0
H792 H 0.27664 0.34149 0.01024 0.0
H793 H 0.2183 0.30001 0.00456 0.0
H794 H 0.24167 0.26717 1.00007 0.0
H795 H 0.30966 0.30859 0.92315 0.0
H796 H 0.33501 0.31263 0.95765 0.0
H797 H 0.31383 0.33337 0.95945 0.0
H798 H 0.31359 0.33137 0.05765 0.0
H799 H 0.33467 0.31053 0.05614 0.0
H800 H 0.30905 0.30526 0.08851 0.0
H801 H 0.27026 0.23891 0.99811 0.0
H802 H 0.30344 0.21593 0.99555 0.0
H803 H 0.34449 0.27452 1.00227 0.0
C804 C 0.26885 0.32549 0.00766 0.0
C805 C 0.24561 0.32335 0.00783 0.0
C806 C 0.23603 0.30212 0.00467 0.0
C807 C 0.24916 0.28331 1.0021 0.0
C808 C 0.27191 0.28591 0.0027 0.0
C809 C 0.2818 0.30636 0.00514 0.0
C810 C 0.30676 0.30416 0.00549 0.0
C811 C 0.31691 0.31535 0.95864 0.0
C812 C 0.31659 0.31338 0.05489 0.0
C813 C 0.30918 0.2793 0.00296 0.0
C814 C 0.28877 0.26924 1.00145 0.0
C815 C 0.28638 0.24653 0.99911 0.0
C816 C 0.30539 0.23363 0.99771 0.0
C817 C 0.3266 0.2434 0.99863 0.0
C818 C 0.3285 0.26658 1.00163 0.0
H819 H 0.73448 0.34553 0.00951 0.0
H820 H 0.79295 0.30453 1.00165 0.0
H821 H 0.76979 0.27135 0.00498 0.0
H822 H 0.70325 0.31024 0.09515 0.0
H823 H 0.67725 0.31499 0.06385 0.0
H824 H 0.69834 0.33587 0.06249 0.0
H825 H 0.69671 0.33636 0.96427 0.0
H826 H 0.67568 0.31541 0.96533 0.0
H827 H 0.70064 0.31109 0.92972 0.0
H828 H 0.74109 0.24266 0.00944 0.0
H829 H 0.70785 0.21953 0.01324 0.0
H830 H 0.66688 0.27807 0.01491 0.0
C831 C 0.74235 0.32955 0.00891 0.0
C832 C 0.76557 0.32765 0.00546 0.0
C833 C 0.77524 0.30645 0.00417 0.0
C834 C 0.76222 0.28746 0.00611 0.0
C835 C 0.73946 0.28984 0.00897 0.0
C836 C 0.7295 0.31027 0.01023 0.0
C837 C 0.70455 0.30791 0.01216 0.0
C838 C 0.6953 0.31784 0.06134 0.0
C839 C 0.69376 0.31831 0.96506 0.0
C840 C 0.70217 0.283 0.01181 0.0
C841 C 0.72261 0.27302 0.01025 0.0
C842 C 0.72497 0.25025 0.01056 0.0
C843 C 0.70596 0.23725 0.01279 0.0
C844 C 0.68476 0.24696 0.01426 0.0
C845 C 0.68286 0.27018 0.01341 0.0
H846 H 0.77105 0.70548 0.01401 0.0
H847 H 0.73007 0.64681 0.01413 0.0
H848 H 0.69687 0.66976 0.01105 0.0
H849 H 0.73514 0.73921 0.09116 0.0
H850 H 0.73983 0.76412 0.05554 0.0
H851 H 0.76092 0.7433 0.05849 0.0
H852 H 0.76185 0.74159 0.96032 0.0
H853 H 0.74078 0.76243 0.95707 0.0
H854 H 0.7367 0.73638 0.92583 0.0
H855 H 0.66815 0.69803 0.01054 0.0
H856 H 0.64469 0.73089 0.00729 0.0
H857 H 0.70293 0.77249 0.00309 0.0
C858 C 0.75507 0.69755 0.01344 0.0
C859 C 0.7532 0.6743 0.0144 0.0
C860 C 0.732 0.66453 0.01323 0.0
C861 C 0.71297 0.67742 0.01164 0.0
C862 C 0.7153 0.70017 0.01071 0.0
C863 C 0.73571 0.71027 0.01111 0.0
C864 C 0.73318 0.73517 0.0086 0.0
C865 C 0.74284 0.74609 0.05629 0.0
C866 C 0.74376 0.74443 0.96006 0.0
C867 C 0.7082 0.73731 0.00706 0.0
C868 C 0.69837 0.71682 0.00872 0.0
C869 C 0.6756 0.7142 0.00895 0.0
C870 C 0.66241 0.73302 0.00724 0.0
C871 C 0.67193 0.75428 0.00481 0.0
C872 C 0.69519 0.75645 0.0046 0.0
H873 H 0.24098 0.70014 0.9888 0.0
H874 H 0.28316 0.64259 0.98063 0.0
H875 H 0.31562 0.66647 0.97086 0.0
H876 H 0.27126 0.73433 0.8992 0.0
H877 H 0.26782 0.75929 0.93515 0.0
H878 H 0.24735 0.73784 0.93891 0.0
H879 H 0.25174 0.73659 0.03668 0.0
H880 H 0.2721 0.75813 0.03323 0.0
H881 H 0.27871 0.73241 0.06383 0.0
H882 H 0.34342 0.69582 0.96162 0.0
H883 H 0.36596 0.72943 0.96233 0.0
H884 H 0.30686 0.7689 0.98084 0.0
C885 C 0.25706 0.69265 0.98472 0.0
C886 C 0.25954 0.6695 0.98526 0.0
C887 C 0.28086 0.66026 0.98049 0.0
C888 C 0.29941 0.67368 0.97458 0.0
C889 C 0.29647 0.69637 0.97406 0.0
C890 C 0.27594 0.70589 0.97966 0.0
C891 C 0.27778 0.73082 0.9807 0.0
C892 C 0.26531 0.74118 0.93581 0.0
C893 C 0.2696 0.74003 0.03164 0.0
C894 C 0.30253 0.73371 0.97497 0.0
C895 C 0.31285 0.71356 0.97049 0.0
C896 C 0.33557 0.71172 0.96515 0.0
C897 C 0.34824 0.73096 0.96549 0.0
C898 C 0.33822 0.75183 0.97167 0.0
C899 C 0.31499 0.7532 0.9758 0.0
H900 H 0.81008 0.74156 0.51038 0.0
H901 H 0.86826 0.78328 0.51292 0.0
H902 H 0.84474 0.81614 0.51187 0.0
H903 H 0.77747 0.77559 0.42746 0.0
H904 H 0.75191 0.77097 0.4606 0.0
H905 H 0.77312 0.75026 0.46175 0.0
H906 H 0.77296 0.7507 0.56005 0.0
H907 H 0.75165 0.77131 0.55919 0.0
H908 H 0.77699 0.77637 0.59299 0.0
H909 H 0.81579 0.84439 0.50745 0.0
H910 H 0.78236 0.86713 0.50675 0.0
H911 H 0.7419 0.80811 0.51025 0.0
C912 C 0.81781 0.75762 0.51096 0.0
C913 C 0.84105 0.75981 0.51165 0.0
C914 C 0.85054 0.78112 0.5125 0.0
C915 C 0.83732 0.79994 0.51173 0.0
C916 C 0.81457 0.79726 0.51053 0.0
C917 C 0.80478 0.77673 0.51071 0.0
C918 C 0.77981 0.77876 0.51019 0.0
C919 C 0.77001 0.76827 0.46213 0.0
C920 C 0.76977 0.76869 0.55849 0.0
C921 C 0.77723 0.80363 0.50943 0.0
C922 C 0.79757 0.81385 0.50925 0.0
C923 C 0.79974 0.83662 0.50786 0.0
C924 C 0.78059 0.8494 0.50731 0.0
C925 C 0.75947 0.83944 0.50854 0.0
C926 C 0.7578 0.8162 0.50936 0.0
H927 H 0.23933 0.84232 0.51269 0.0
H928 H 0.29726 0.80083 0.49947 0.0
H929 H 0.27373 0.76788 0.50119 0.0
H930 H 0.2081 0.80548 0.59699 0.0
H931 H 0.18202 0.81126 0.56702 0.0
H932 H 0.20339 0.83187 0.56759 0.0
H933 H 0.20118 0.83459 0.46964 0.0
H934 H 0.17995 0.81385 0.46872 0.0
H935 H 0.2047 0.81011 0.43197 0.0
H936 H 0.24473 0.7396 0.50113 0.0
H937 H 0.21134 0.71678 0.50209 0.0
H938 H 0.17093 0.77551 0.51403 0.0
C939 C 0.24702 0.82627 0.51097 0.0
C940 C 0.27018 0.82416 0.50613 0.0
C941 C 0.27961 0.80289 0.50319 0.0
C942 C 0.26637 0.78404 0.50412 0.0
C943 C 0.24365 0.78664 0.50786 0.0
C944 C 0.23395 0.80713 0.51149 0.0
C945 C 0.20897 0.80501 0.51381 0.0
C946 C 0.2001 0.81393 0.56437 0.0
C947 C 0.19806 0.81658 0.46832 0.0
C948 C 0.20627 0.78017 0.51055 0.0
C949 C 0.22659 0.77003 0.5073 0.0
C950 C 0.22871 0.74731 0.50387 0.0
C951 C 0.20957 0.73448 0.5044 0.0
C952 C 0.18846 0.7443 0.50817 0.0
C953 C 0.18681 0.76753 0.51088 0.0
H954 H 0.2662 0.20245 0.50564 0.0
H955 H 0.22538 0.1437 0.50388 0.0
H956 H 0.19207 0.16661 0.50314 0.0
H957 H 0.23072 0.23527 0.58575 0.0
H958 H 0.2352 0.26055 0.55137 0.0
H959 H 0.2563 0.23971 0.55254 0.0
H960 H 0.25668 0.23902 0.45428 0.0
H961 H 0.2356 0.25988 0.45282 0.0
H962 H 0.23134 0.23416 0.42026 0.0
H963 H 0.16315 0.19506 0.5054 0.0
H964 H 0.13975 0.22809 0.50458 0.0
H965 H 0.19812 0.26944 0.50022 0.0
C966 C 0.25023 0.19448 0.50512 0.0
C967 C 0.24845 0.17122 0.50493 0.0
C968 C 0.22725 0.16142 0.50389 0.0
C969 C 0.20816 0.1743 0.50362 0.0
C970 C 0.21042 0.19707 0.50388 0.0
C971 C 0.23083 0.20718 0.50411 0.0
C972 C 0.22828 0.23209 0.50305 0.0
C973 C 0.23821 0.24251 0.55104 0.0
C974 C 0.23859 0.24186 0.45472 0.0
C975 C 0.2033 0.23424 0.50239 0.0
C976 C 0.19344 0.21375 0.50337 0.0
C977 C 0.17065 0.21122 0.50432 0.0
C978 C 0.15748 0.23011 0.504 0.0
C979 C 0.16706 0.25135 0.50214 0.0
C980 C 0.19033 0.25341 0.50125 0.0
H981 H 0.80995 0.26929 0.50196 0.0
H982 H 0.86899 0.22898 0.50433 0.0
H983 H 0.84598 0.1955 0.50455 0.0
H984 H 0.77765 0.23565 0.5844 0.0
H985 H 0.7522 0.23966 0.55027 0.0
H986 H 0.77319 0.26063 0.54884 0.0
H987 H 0.77355 0.25936 0.45057 0.0
H988 H 0.75244 0.2385 0.45167 0.0
H989 H 0.778 0.23347 0.41892 0.0
H990 H 0.8169 0.16654 0.50843 0.0
H991 H 0.78348 0.14356 0.50971 0.0
H992 H 0.74284 0.20227 0.50273 0.0
C993 C 0.81803 0.25341 0.50209 0.0
C994 C 0.8413 0.25176 0.50314 0.0
C995 C 0.85123 0.23068 0.50339 0.0
C996 C 0.83829 0.21155 0.50367 0.0
C997 C 0.81544 0.21376 0.50337 0.0
C998 C 0.80535 0.23412 0.50208 0.0
C999 C 0.78044 0.2318 0.5019 0.0
C1000 C 0.77028 0.24258 0.54917 0.0
C1001 C 0.77053 0.24135 0.45284 0.0
C1002 C 0.77812 0.20696 0.50368 0.0
C1003 C 0.79855 0.19694 0.50474 0.0
C1004 C 0.8008 0.17418 0.5073 0.0
C1005 C 0.78168 0.16127 0.50819 0.0
C1006 C 0.76051 0.17109 0.50626 0.0
C1007 C 0.75877 0.19428 0.50418 0.0
H1008 H 0.1579 0.34754 0.38757 0.0
H1009 H 0.09978 0.31233 0.33689 0.0
H1010 H 0.10813 0.32254 0.24813 0.0
H1011 H 0.15701 0.3932 0.29335 0.0
H1012 H 0.18637 0.39271 0.28452 0.0
H1013 H 0.17517 0.38478 0.34475 0.0
H1014 H 0.19505 0.34768 0.34033 0.0
H1015 H 0.20649 0.35531 0.27976 0.0
H1016 H 0.19087 0.33022 0.28592 0.0
H1017 H 0.12746 0.32902 0.16571 0.0
H1018 H 0.15083 0.34089 0.09394 0.0
H1019 H 0.19257 0.37739 0.1966 0.0
C1020 C 0.14639 0.34296 0.35798 0.0
C1021 C 0.12785 0.32968 0.36889 0.0
C1022 C 0.11383 0.32282 0.32907 0.0
C1023 C 0.1185 0.32843 0.27869 0.0
C1024 C 0.13728 0.3409 0.26891 0.0
C1025 C 0.15075 0.3486 0.30738 0.0
C1026 C 0.1708 0.36027 0.28574 0.0
C1027 C 0.17234 0.38421 0.30325 0.0
C1028 C 0.19205 0.34761 0.29871 0.0
C1029 C 0.16578 0.35897 0.22969 0.0
C1030 C 0.14696 0.34679 0.22074 0.0
C1031 C 0.14121 0.34002 0.17209 0.0
C1032 C 0.15423 0.34721 0.13147 0.0
C1033 C 0.17165 0.36226 0.13935 0.0
C1034 C 0.17812 0.36741 0.18931 0.0
H1035 H 0.69434 0.1273 0.32172 0.0
H1036 H 0.66008 0.17112 0.4237 0.0
H1037 H 0.6373 0.18481 0.35265 0.0
H1038 H 0.69684 0.1715 0.22496 0.0
H1039 H 0.69675 0.15222 0.17308 0.0
H1040 H 0.70862 0.1445 0.23321 0.0
H1041 H 0.68277 0.11055 0.23803 0.0
H1042 H 0.6718 0.11835 0.17743 0.0
H1043 H 0.65351 0.11439 0.23114 0.0
H1044 H 0.61654 0.19147 0.27248 0.0
H1045 H 0.6072 0.2009 0.18387 0.0
H1046 H 0.65891 0.15761 0.13052 0.0
C1047 C 0.68169 0.13943 0.32901 0.0
C1048 C 0.67713 0.14649 0.37888 0.0
C1049 C 0.66209 0.16391 0.38649 0.0
C1050 C 0.64932 0.17197 0.34629 0.0
C1051 C 0.65281 0.16332 0.29814 0.0
C1052 C 0.66953 0.14849 0.28879 0.0
C1053 C 0.67248 0.14496 0.23234 0.0
C1054 C 0.695 0.15383 0.21488 0.0
C1055 C 0.6699 0.12059 0.21891 0.0
C1056 C 0.65373 0.15892 0.21153 0.0
C1057 C 0.64254 0.16919 0.25053 0.0
C1058 C 0.6252 0.18366 0.2415 0.0
C1059 C 0.6199 0.18878 0.19115 0.0
C1060 C 0.63195 0.17957 0.15052 0.0
C1061 C 0.64881 0.16411 0.1608 0.0
H1062 H 0.88408 0.6973 0.3244 0.0
H1063 H 0.84344 0.65988 0.4279 0.0
H1064 H 0.82899 0.63789 0.35652 0.0
H1065 H 0.8371 0.69979 0.23315 0.0
H1066 H 0.85519 0.70159 0.17911 0.0
H1067 H 0.86372 0.71271 0.23936 0.0
H1068 H 0.89878 0.68897 0.23654 0.0
H1069 H 0.89013 0.67768 0.17685 0.0
H1070 H 0.89638 0.65962 0.22996 0.0
H1071 H 0.82113 0.61849 0.27516 0.0
H1072 H 0.81091 0.60976 0.18676 0.0
H1073 H 0.85156 0.66369 0.13317 0.0
C1074 C 0.8725 0.68413 0.33192 0.0
C1075 C 0.86674 0.6784 0.38215 0.0
C1076 C 0.84991 0.66269 0.39023 0.0
C1077 C 0.84132 0.65044 0.34982 0.0
C1078 C 0.84867 0.65521 0.30104 0.0
C1079 C 0.86278 0.67256 0.29161 0.0
C1080 C 0.86489 0.67671 0.2351 0.0
C1081 C 0.85461 0.69902 0.22086 0.0
C1082 C 0.88903 0.6756 0.21856 0.0
C1083 C 0.85127 0.65775 0.21411 0.0
C1084 C 0.84207 0.64563 0.25318 0.0
C1085 C 0.8281 0.62789 0.24415 0.0
C1086 C 0.8225 0.62297 0.1939 0.0
C1087 C 0.83082 0.6357 0.15322 0.0
C1088 C 0.84566 0.65314 0.16342 0.0
H1089 H 0.35148 0.84778 0.36721 0.0
H1090 H 0.30461 0.89706 0.31722 0.0
H1091 H 0.31113 0.88638 0.22793 0.0
H1092 H 0.39045 0.85225 0.26422 0.0
H1093 H 0.39522 0.82316 0.25824 0.0
H1094 H 0.38777 0.83439 0.31884 0.0
H1095 H 0.3547 0.80858 0.32627 0.0
H1096 H 0.36184 0.79641 0.26619 0.0
H1097 H 0.33466 0.80756 0.27577 0.0
H1098 H 0.3185 0.86681 0.14644 0.0
H1099 H 0.33393 0.84632 0.07377 0.0
H1100 H 0.37837 0.8118 0.17485 0.0
C1101 C 0.34326 0.85684 0.33725 0.0
C1102 C 0.32795 0.87361 0.34864 0.0
C1103 C 0.31665 0.88442 0.30886 0.0
C1104 C 0.3201 0.87834 0.25826 0.0
C1105 C 0.33469 0.86122 0.24832 0.0
C1106 C 0.34645 0.85086 0.28645 0.0
C1107 C 0.36052 0.83241 0.26518 0.0
C1108 C 0.38497 0.8358 0.27736 0.0
C1109 C 0.35244 0.80991 0.28451 0.0
C1110 C 0.35591 0.83502 0.20904 0.0
C1111 C 0.34015 0.851 0.20052 0.0
C1112 C 0.33156 0.85496 0.15239 0.0
C1113 C 0.34054 0.84345 0.11139 0.0
C1114 C 0.35843 0.8289 0.11862 0.0
C1115 C 0.36547 0.82377 0.16827 0.0
H1116 H 0.13074 0.69035 0.69224 0.0
H1117 H 0.16934 0.65049 0.59002 0.0
H1118 H 0.1814 0.62716 0.66155 0.0
H1119 H 0.17679 0.69017 0.78249 0.0
H1120 H 0.15897 0.69312 0.83671 0.0
H1121 H 0.15084 0.70432 0.77622 0.0
H1122 H 0.11458 0.68213 0.77977 0.0
H1123 H 0.12281 0.67118 0.84017 0.0
H1124 H 0.11561 0.65279 0.78849 0.0
H1125 H 0.1885 0.6079 0.74318 0.0
H1126 H 0.19951 0.59994 0.83156 0.0
H1127 H 0.16163 0.65598 0.88339 0.0
C1128 C 0.14119 0.67627 0.685 0.0
C1129 C 0.14704 0.67041 0.63505 0.0
C1130 C 0.16262 0.65348 0.62736 0.0
C1131 C 0.16987 0.64044 0.66788 0.0
C1132 C 0.16254 0.6456 0.71641 0.0
C1133 C 0.14963 0.66387 0.72546 0.0
C1134 C 0.14788 0.66842 0.78175 0.0
C1135 C 0.1593 0.6903 0.79506 0.0
C1136 C 0.12375 0.66856 0.79861 0.0
C1137 C 0.16055 0.64894 0.80313 0.0
C1138 C 0.16877 0.63597 0.76446 0.0
C1139 C 0.18218 0.61785 0.7739 0.0
C1140 C 0.18825 0.6134 0.82411 0.0
C1141 C 0.18095 0.62699 0.86415 0.0
C1142 C 0.16662 0.64478 0.85365 0.0
H1143 H 0.34692 0.16138 0.62044 0.0
H1144 H 0.3099 0.10449 0.67141 0.0
H1145 H 0.32252 0.11098 0.75927 0.0
H1146 H 0.39461 0.15797 0.71097 0.0
H1147 H 0.39494 0.18728 0.71921 0.0
H1148 H 0.38551 0.17602 0.66004 0.0
H1149 H 0.34927 0.19789 0.67096 0.0
H1150 H 0.35862 0.20809 0.73142 0.0
H1151 H 0.33284 0.19347 0.72703 0.0
H1152 H 0.33231 0.12806 0.84207 0.0
H1153 H 0.34597 0.15003 0.91416 0.0
H1154 H 0.38157 0.19246 0.81124 0.0
C1155 C 0.34232 0.1498 0.64986 0.0
C1156 C 0.32794 0.13205 0.63921 0.0
C1157 C 0.3212 0.11791 0.67892 0.0
C1158 C 0.32822 0.12151 0.72884 0.0
C1159 C 0.34188 0.13945 0.73848 0.0
C1160 C 0.34923 0.15319 0.70016 0.0
C1161 C 0.36215 0.17243 0.72206 0.0
C1162 C 0.38574 0.17341 0.70169 0.0
C1163 C 0.34999 0.19425 0.71229 0.0
C1164 C 0.36193 0.16659 0.77792 0.0
C1165 C 0.34935 0.14803 0.78668 0.0
C1166 C 0.34355 0.14161 0.83558 0.0
C1167 C 0.35183 0.1538 0.87643 0.0
C1168 C 0.36704 0.17109 0.86853 0.0
C1169 C 0.37146 0.17809 0.81845 0.0
H1170 H 0.8519 0.35344 0.88312 0.0
H1171 H 0.8081 0.40535 0.83263 0.0
H1172 H 0.81544 0.39538 0.74334 0.0
H1173 H 0.89286 0.35771 0.77986 0.0
H1174 H 0.89633 0.32843 0.77376 0.0
H1175 H 0.88937 0.33977 0.83438 0.0
H1176 H 0.85535 0.31534 0.84174 0.0
H1177 H 0.86193 0.30305 0.78148 0.0
H1178 H 0.83523 0.31527 0.79134 0.0
H1179 H 0.82114 0.37462 0.6621 0.0
H1180 H 0.8348 0.35232 0.59015 0.0
H1181 H 0.87883 0.31751 0.69135 0.0
C1182 C 0.84481 0.36341 0.8532 0.0
C1183 C 0.82987 0.38054 0.86447 0.0
C1184 C 0.81987 0.39244 0.82446 0.0
C1185 C 0.82377 0.38677 0.7738 0.0
C1186 C 0.83775 0.36916 0.76391 0.0
C1187 C 0.84872 0.35807 0.80226 0.0
C1188 C 0.86206 0.3391 0.78096 0.0
C1189 C 0.88665 0.34148 0.79298 0.0
C1190 C 0.8531 0.31688 0.80002 0.0
C1191 C 0.85767 0.34198 0.72488 0.0
C1192 C 0.84276 0.35869 0.7161 0.0
C1193 C 0.83387 0.36243 0.66811 0.0
C1194 C 0.8419 0.34996 0.62745 0.0
C1195 C 0.85936 0.33493 0.63476 0.0
C1196 C 0.86651 0.33004 0.68443 0.0
H1197 H 0.6603 0.85151 0.88679 0.0
H1198 H 0.60624 0.81086 0.83378 0.0
H1199 H 0.61581 0.81984 0.7451 0.0
H1200 H 0.65665 0.89501 0.78807 0.0
H1201 H 0.68604 0.89756 0.78133 0.0
H1202 H 0.67482 0.88949 0.84146 0.0
H1203 H 0.69831 0.8547 0.84304 0.0
H1204 H 0.71016 0.86237 0.7829 0.0
H1205 H 0.6971 0.83591 0.79023 0.0
H1206 H 0.63642 0.82602 0.66436 0.0
H1207 H 0.65897 0.83971 0.59296 0.0
H1208 H 0.6954 0.88169 0.69539 0.0
C1209 C 0.64986 0.84542 0.85656 0.0
C1210 C 0.63221 0.83088 0.86696 0.0
C1211 C 0.61962 0.82224 0.8264 0.0
C1212 C 0.62502 0.82712 0.77603 0.0
C1213 C 0.64302 0.84074 0.76688 0.0
C1214 C 0.65487 0.85039 0.8058 0.0
C1215 C 0.67408 0.86365 0.78478 0.0
C1216 C 0.67273 0.88792 0.79987 0.0
C1217 C 0.69622 0.85355 0.80122 0.0
C1218 C 0.6704 0.86079 0.72839 0.0
C1219 C 0.65312 0.84656 0.71912 0.0
C1220 C 0.64888 0.83846 0.67075 0.0
C1221 C 0.66147 0.84658 0.63036 0.0
C1222 C 0.677 0.86359 0.6381 0.0
C1223 C 0.68234 0.86996 0.68808 0.0
H1224 H 0.89122 0.65225 0.66541 0.0
H1225 H 0.85111 0.71065 0.64376 0.0
H1226 H 0.83356 0.70431 0.72679 0.0
H1227 H 0.85117 0.61927 0.7265 0.0
H1228 H 0.86982 0.60702 0.77173 0.0
H1229 H 0.87995 0.61625 0.71108 0.0
H1230 H 0.90877 0.64108 0.75566 0.0
H1231 H 0.89898 0.63166 0.81646 0.0
H1232 H 0.89977 0.66069 0.80251 0.0
H1233 H 0.81773 0.68976 0.80778 0.0
H1234 H 0.8091 0.67163 0.88921 0.0
H1235 H 0.86143 0.62437 0.86306 0.0
C1236 C 0.879 0.66388 0.67855 0.0
C1237 C 0.87259 0.68198 0.64803 0.0
C1238 C 0.8565 0.69682 0.66659 0.0
C1239 C 0.84627 0.69325 0.71356 0.0
C1240 C 0.85257 0.675 0.7421 0.0
C1241 C 0.86894 0.66086 0.72602 0.0
C1242 C 0.87294 0.64281 0.76487 0.0
C1243 C 0.86818 0.61999 0.74217 0.0
C1244 C 0.89651 0.64415 0.78614 0.0
C1245 C 0.85601 0.64884 0.80483 0.0
C1246 C 0.84422 0.66727 0.79043 0.0
C1247 C 0.82704 0.67549 0.81981 0.0
C1248 C 0.82213 0.66495 0.86579 0.0
C1249 C 0.83459 0.6466 0.88251 0.0
C1250 C 0.85169 0.63841 0.85135 0.0
H1251 H 0.32509 0.84899 0.63887 0.0
H1252 H 0.38043 0.89206 0.605 0.0
H1253 H 0.39742 0.8825 0.68654 0.0
H1254 H 0.32262 0.8615 0.77293 0.0
H1255 H 0.31578 0.83378 0.79161 0.0
H1256 H 0.30779 0.8438 0.72992 0.0
H1257 H 0.32805 0.81099 0.68821 0.0
H1258 H 0.33639 0.80106 0.74981 0.0
H1259 H 0.35683 0.80653 0.70183 0.0
H1260 H 0.40835 0.86955 0.77103 0.0
H1261 H 0.41157 0.85515 0.85827 0.0
H1262 H 0.35022 0.8194 0.83934 0.0
C1263 C 0.34068 0.85651 0.64884 0.0
C1264 C 0.35141 0.87124 0.61526 0.0
C1265 C 0.37189 0.88064 0.62971 0.0
C1266 C 0.38176 0.87528 0.67598 0.0
C1267 C 0.37106 0.86042 0.70761 0.0
C1268 C 0.35093 0.85125 0.69513 0.0
C1269 C 0.34292 0.83606 0.7371 0.0
C1270 C 0.32098 0.84429 0.7592 0.0
C1271 C 0.34093 0.81225 0.71808 0.0
C1272 C 0.36162 0.83841 0.77509 0.0
C1273 C 0.37768 0.85249 0.75691 0.0
C1274 C 0.39604 0.85832 0.78562 0.0
C1275 C 0.39777 0.85002 0.83495 0.0
C1276 C 0.38136 0.83593 0.85489 0.0
C1277 C 0.36328 0.82966 0.82428 0.0
H1278 H 0.12388 0.36009 0.65639 0.0
H1279 H 0.16979 0.3067 0.62943 0.0
H1280 H 0.18772 0.31418 0.71202 0.0
H1281 H 0.16091 0.39685 0.7193 0.0
H1282 H 0.14099 0.40609 0.76524 0.0
H1283 H 0.13197 0.39693 0.70362 0.0
H1284 H 0.10604 0.36828 0.74554 0.0
H1285 H 0.11473 0.37757 0.80727 0.0
H1286 H 0.11718 0.34892 0.79067 0.0
H1287 H 0.20174 0.32874 0.79485 0.0
H1288 H 0.20745 0.34526 0.87917 0.0
H1289 H 0.15061 0.38742 0.85538 0.0
C1290 C 0.13766 0.34994 0.66807 0.0
C1291 C 0.14558 0.33289 0.6367 0.0
C1292 C 0.16345 0.31976 0.65323 0.0
C1293 C 0.17382 0.324 0.69977 0.0
C1294 C 0.16584 0.34118 0.7295 0.0
C1295 C 0.14788 0.35362 0.71489 0.0
C1296 C 0.14186 0.37035 0.75511 0.0
C1297 C 0.14407 0.39395 0.73457 0.0
C1298 C 0.11857 0.36601 0.77588 0.0
C1299 C 0.15935 0.36544 0.79454 0.0
C1300 C 0.17324 0.34883 0.77855 0.0
C1301 C 0.19091 0.34166 0.80795 0.0
C1302 C 0.19411 0.3513 0.85563 0.0
C1303 C 0.17948 0.36766 0.87381 0.0
C1304 C 0.16204 0.37496 0.84249 0.0
H1305 H 0.62427 0.14977 0.85939 0.0
H1306 H 0.67393 0.19919 0.89225 0.0
H1307 H 0.69248 0.19083 0.81127 0.0
H1308 H 0.65938 0.11062 0.79705 0.0
H1309 H 0.63949 0.10343 0.74898 0.0
H1310 H 0.63032 0.11262 0.8104 0.0
H1311 H 0.60736 0.14359 0.76812 0.0
H1312 H 0.61623 0.13431 0.70659 0.0
H1313 H 0.62066 0.1625 0.72514 0.0
H1314 H 0.70655 0.17614 0.72883 0.0
H1315 H 0.71211 0.16027 0.64373 0.0
H1316 H 0.65188 0.12233 0.66056 0.0
C1317 C 0.63902 0.15884 0.84936 0.0
C1318 C 0.64771 0.17509 0.88208 0.0
C1319 C 0.6669 0.18679 0.86755 0.0
C1320 C 0.67767 0.18203 0.82186 0.0
C1321 C 0.66884 0.16576 0.79068 0.0
C1322 C 0.64971 0.15466 0.80321 0.0
C1323 C 0.64304 0.13887 0.76138 0.0
C1324 C 0.64307 0.11497 0.78062 0.0
C1325 C 0.62049 0.14521 0.73898 0.0
C1326 C 0.66147 0.1428 0.72359 0.0
C1327 C 0.67638 0.15808 0.74173 0.0
C1328 C 0.69494 0.16423 0.71406 0.0
C1329 C 0.69804 0.15499 0.66588 0.0
C1330 C 0.68246 0.14004 0.64545 0.0
C1331 C 0.66409 0.1337 0.67513 0.0
H1332 H 0.8897 0.36259 0.35754 0.0
H1333 H 0.85971 0.29771 0.36488 0.0
H1334 H 0.84568 0.30237 0.27794 0.0
H1335 H 0.8477 0.38891 0.29082 0.0
H1336 H 0.86529 0.40547 0.251 0.0
H1337 H 0.87481 0.39665 0.3125 0.0
H1338 H 0.90911 0.37855 0.27177 0.0
H1339 H 0.89992 0.38764 0.21013 0.0
H1340 H 0.90551 0.35891 0.22122 0.0
H1341 H 0.83048 0.31589 0.19593 0.0
H1342 H 0.82027 0.33498 0.11656 0.0
H1343 H 0.86241 0.38986 0.15762 0.0
C1344 C 0.88063 0.34915 0.34042 0.0
C1345 C 0.87585 0.32977 0.36823 0.0
C1346 C 0.8638 0.31264 0.34444 0.0
C1347 C 0.85561 0.31517 0.29508 0.0
C1348 C 0.85995 0.33475 0.26948 0.0
C1349 C 0.87266 0.35122 0.29065 0.0
C1350 C 0.87465 0.3707 0.25478 0.0
C1351 C 0.86504 0.39167 0.27872 0.0
C1352 C 0.89873 0.37415 0.23851 0.0
C1353 C 0.86059 0.36279 0.2108 0.0
C1354 C 0.85208 0.3421 0.22048 0.0
C1355 C 0.83737 0.3319 0.18741 0.0
C1356 C 0.83151 0.34295 0.14272 0.0
C1357 C 0.84063 0.3638 0.13107 0.0
C1358 C 0.8554 0.37382 0.16552 0.0
H1359 H 0.62341 0.86175 0.15745 0.0
H1360 H 0.67143 0.81055 0.12728 0.0
H1361 H 0.68992 0.81868 0.20859 0.0
H1362 H 0.65952 0.89999 0.21935 0.0
H1363 H 0.63978 0.90812 0.26679 0.0
H1364 H 0.63044 0.89884 0.2055 0.0
H1365 H 0.60633 0.86888 0.24828 0.0
H1366 H 0.61535 0.87828 0.30968 0.0
H1367 H 0.61887 0.84984 0.2922 0.0
H1368 H 0.70433 0.83352 0.29043 0.0
H1369 H 0.71028 0.84977 0.375 0.0
H1370 H 0.65128 0.88936 0.35614 0.0
C1371 C 0.63775 0.85221 0.16821 0.0
C1372 C 0.64604 0.83555 0.13615 0.0
C1373 C 0.66472 0.82327 0.15153 0.0
C1374 C 0.67545 0.82789 0.19738 0.0
C1375 C 0.66707 0.84461 0.22781 0.0
C1376 C 0.64837 0.85625 0.21453 0.0
C1377 C 0.64213 0.87251 0.25564 0.0
C1378 C 0.64303 0.89627 0.23561 0.0
C1379 C 0.61932 0.86704 0.27776 0.0
C1380 C 0.66031 0.86823 0.29391 0.0
C1381 C 0.67475 0.85238 0.27656 0.0
C1382 C 0.69307 0.84586 0.30463 0.0
C1383 C 0.69641 0.85533 0.35247 0.0
C1384 C 0.68126 0.87084 0.37216 0.0
C1385 C 0.66313 0.87754 0.34208 0.0
H1386 H 0.12552 0.64873 0.35134 0.0
H1387 H 0.16666 0.70647 0.3732 0.0
H1388 H 0.1836 0.70044 0.28941 0.0
H1389 H 0.16494 0.61568 0.28928 0.0
H1390 H 0.1459 0.60372 0.24457 0.0
H1391 H 0.13623 0.61285 0.30558 0.0
H1392 H 0.10739 0.63805 0.26205 0.0
H1393 H 0.11673 0.62873 0.20089 0.0
H1394 H 0.11632 0.65773 0.21508 0.0
H1395 H 0.19849 0.68627 0.207 0.0
H1396 H 0.20631 0.66823 0.12504 0.0
H1397 H 0.15392 0.62116 0.15377 0.0
C1398 C 0.13786 0.66028 0.33816 0.0
C1399 C 0.14473 0.67808 0.36886 0.0
C1400 C 0.16094 0.69284 0.35023 0.0
C1401 C 0.17081 0.68946 0.30282 0.0
C1402 C 0.16405 0.67146 0.2741 0.0
C1403 C 0.14761 0.6574 0.29048 0.0
C1404 C 0.14318 0.63951 0.25176 0.0
C1405 C 0.14785 0.61659 0.27415 0.0
C1406 C 0.1195 0.64111 0.23122 0.0
C1407 C 0.15992 0.64556 0.21144 0.0
C1408 C 0.17199 0.66386 0.22542 0.0
C1409 C 0.18899 0.67207 0.19533 0.0
C1410 C 0.19343 0.6616 0.14908 0.0
C1411 C 0.1807 0.64334 0.13306 0.0
C1412 C 0.16384 0.63518 0.16494 0.0
H1413 H 0.35671 0.12138 0.35134 0.0
H1414 H 0.30323 0.16782 0.37253 0.0
H1415 H 0.31192 0.18492 0.28982 0.0
H1416 H 0.39451 0.15755 0.29111 0.0
H1417 H 0.40455 0.13763 0.24616 0.0
H1418 H 0.39412 0.12866 0.30676 0.0
H1419 H 0.36611 0.10298 0.26199 0.0
H1420 H 0.37668 0.11159 0.20127 0.0
H1421 H 0.3477 0.11421 0.21486 0.0
H1422 H 0.3282 0.19878 0.20864 0.0
H1423 H 0.34682 0.20489 0.12689 0.0
H1424 H 0.38811 0.14773 0.15428 0.0
C1425 C 0.34669 0.13499 0.33825 0.0
C1426 C 0.32929 0.1433 0.36835 0.0
C1427 C 0.31649 0.16107 0.3499 0.0
C1428 C 0.32142 0.171 0.30319 0.0
C1429 C 0.33896 0.16273 0.27497 0.0
C1430 C 0.35107 0.1448 0.29114 0.0
C1431 C 0.36859 0.13872 0.25258 0.0
C1432 C 0.39181 0.14077 0.27554 0.0
C1433 C 0.36452 0.1155 0.23142 0.0
C1434 C 0.3646 0.15621 0.2125 0.0
C1435 C 0.34766 0.17007 0.22668 0.0
C1436 C 0.34134 0.18791 0.19687 0.0
C1437 C 0.3522 0.19135 0.15064 0.0
C1438 C 0.36899 0.17681 0.13409 0.0
C1439 C 0.37535 0.15911 0.16582 0.0
loop_
_geom_bond_atom_site_label_1
_geom_bond_atom_site_label_2
_geom_bond_distance
_geom_bond_site_symmetry_2
_ccdc_geom_bond_type
Mn0 O5 2.095 1_554 S
Mn0 O15 2.160 1_554 S
Mn0 O16 2.297 . S
Mn0 O24 2.385 . S
Mn0 O25 2.209 . S
Mn0 O26 2.094 . S
Mn1 O6 2.121 1_554 S
Mn1 N8 2.257 . S
Mn1 N17 2.282 . S
Mn1 O25 2.215 . S
Mn1 O27 2.117 . S
C2 O24 1.234 . S
C2 O25 1.283 . S
C3 O15 1.280 1_554 S
C3 O16 1.236 . S
C4 O26 1.240 . S
C4 O27 1.264 . S
O5 Mn0 2.095 1_556 S
O5 C14 1.250 . S
O6 Mn1 2.121 1_556 S
O6 C14 1.258 . S
C7 N8 1.326 1_556 S
C7 C11 1.460 1_556 S
C7 H13 0.929 . S
N8 Mn1 2.257 . S
N8 C7 1.326 1_554 S
N8 C12 1.362 . S
C9 C10 1.258 . S
C9 C12 1.431 . S
C9 C29 1.449 . S
C10 C9 1.258 . S
C10 C11 1.477 . S
C10 H30 0.931 . S
C11 C7 1.460 1_554 S
C11 C10 1.477 . S
C11 H31 0.930 1_554 S
C12 N8 1.362 . S
C12 C9 1.431 . S
C12 C22 1.476 . S
H13 C7 0.929 . S
C14 O5 1.250 . S
C14 O6 1.258 . S
O15 Mn0 2.160 1_556 S
O15 C3 1.280 1_556 S
O16 Mn0 2.297 . S
O16 C3 1.236 . S
N17 Mn1 2.282 . S
N17 C18 1.328 . S
N17 C22 1.318 . S
C18 N17 1.328 . S
C18 C19 1.457 . S
C18 H23 0.929 . S
C19 C18 1.457 . S
C19 C20 1.291 . S
C19 H32 0.931 . S
C20 C19 1.291 . S
C20 C21 1.373 . S
C20 H33 0.929 . S
C21 C20 1.373 . S
C21 C22 1.396 . S
C21 C28 1.403 . S
C22 C12 1.476 . S
C22 N17 1.318 . S
C22 C21 1.396 . S
H23 C18 0.929 . S
O24 Mn0 2.385 . S
O24 C2 1.234 . S
O25 Mn0 2.209 . S
O25 Mn1 2.215 . S
O25 C2 1.283 . S
O26 Mn0 2.094 . S
O26 C4 1.240 . S
O27 Mn1 2.117 . S
O27 C4 1.264 . S
C28 C21 1.403 . S
C28 C29 1.399 . S
C28 H34 0.929 . S
C29 C9 1.449 . S
C29 C28 1.399 . S
C29 H35 0.930 . S
H30 C10 0.931 . S
H31 C11 0.930 1_556 S
H32 C19 0.931 . S
H33 C20 0.929 . S
H34 C28 0.929 . S
H35 C29 0.930 . S
Mn36 O41 2.095 1_554 S
Mn36 O51 2.160 1_554 S
Mn36 O52 2.297 . S
Mn36 O60 2.385 . S
Mn36 O61 2.209 . S
Mn36 O62 2.094 . S
Mn37 O42 2.121 1_554 S
Mn37 N44 2.257 . S
Mn37 N53 2.282 . S
Mn37 O61 2.215 . S
Mn37 O63 2.117 . S
C38 O60 1.234 . S
C38 O61 1.283 . S
C39 O51 1.280 1_554 S
C39 O52 1.236 . S
C40 O62 1.240 . S
C40 O63 1.264 . S
O41 Mn36 2.095 1_556 S
O41 C50 1.250 . S
O42 Mn37 2.121 1_556 S
O42 C50 1.258 . S
C43 N44 1.326 1_556 S
C43 C47 1.460 1_556 S
C43 H49 0.929 . S
N44 Mn37 2.257 . S
N44 C43 1.326 1_554 S
N44 C48 1.362 . S
C45 C46 1.258 . S
C45 C48 1.431 . S
C45 C65 1.449 . S
C46 C45 1.258 . S
C46 C47 1.477 . S
C46 H66 0.931 . S
C47 C43 1.460 1_554 S
C47 C46 1.477 . S
C47 H67 0.930 1_554 S
C48 N44 1.362 . S
C48 C45 1.431 . S
C48 C58 1.476 . S
H49 C43 0.929 . S
C50 O41 1.250 . S
C50 O42 1.258 . S
O51 Mn36 2.160 1_556 S
O51 C39 1.280 1_556 S
O52 Mn36 2.297 . S
O52 C39 1.236 . S
N53 Mn37 2.282 . S
N53 C54 1.328 . S
N53 C58 1.318 . S
C54 N53 1.328 . S
C54 C55 1.457 . S
C54 H59 0.929 . S
C55 C54 1.457 . S
C55 C56 1.291 . S
C55 H68 0.931 . S
C56 C55 1.291 . S
C56 C57 1.373 . S
C56 H69 0.929 . S
C57 C56 1.373 . S
C57 C58 1.396 . S
C57 C64 1.403 . S
C58 C48 1.476 . S
C58 N53 1.318 . S
C58 C57 1.396 . S
H59 C54 0.929 . S
O60 Mn36 2.385 . S
O60 C38 1.234 . S
O61 Mn36 2.209 . S
O61 Mn37 2.215 . S
O61 C38 1.283 . S
O62 Mn36 2.094 . S
O62 C40 1.240 . S
O63 Mn37 2.117 . S
O63 C40 1.264 . S
C64 C57 1.403 . S
C64 C65 1.399 . S
C64 H70 0.929 . S
C65 C45 1.449 . S
C65 C64 1.399 . S
C65 H71 0.930 . S
H66 C46 0.931 . S
H67 C47 0.930 1_556 S
H68 C55 0.931 . S
H69 C56 0.929 . S
H70 C64 0.929 . S
H71 C65 0.930 . S
Mn72 O77 2.095 1_554 S
Mn72 O87 2.160 1_554 S
Mn72 O88 2.297 . S
Mn72 O96 2.385 . S
Mn72 O97 2.209 . S
Mn72 O98 2.094 . S
Mn73 O78 2.121 1_554 S
Mn73 N80 2.257 . S
Mn73 N89 2.282 . S
Mn73 O97 2.215 . S
Mn73 O99 2.117 . S
C74 O96 1.234 . S
C74 O97 1.283 . S
C75 O87 1.280 1_554 S
C75 O88 1.236 . S
C76 O98 1.240 . S
C76 O99 1.264 . S
O77 Mn72 2.095 1_556 S
O77 C86 1.250 . S
O78 Mn73 2.121 1_556 S
O78 C86 1.258 . S
C79 N80 1.326 1_556 S
C79 C83 1.460 1_556 S
C79 H85 0.929 . S
N80 Mn73 2.257 . S
N80 C79 1.326 1_554 S
N80 C84 1.362 . S
C81 C82 1.258 . S
C81 C84 1.431 . S
C81 C101 1.449 . S
C82 C81 1.258 . S
C82 C83 1.477 . S
C82 H102 0.931 . S
C83 C79 1.460 1_554 S
C83 C82 1.477 . S
C83 H103 0.930 1_554 S
C84 N80 1.362 . S
C84 C81 1.431 . S
C84 C94 1.476 . S
H85 C79 0.929 . S
C86 O77 1.250 . S
C86 O78 1.258 . S
O87 Mn72 2.160 1_556 S
O87 C75 1.280 1_556 S
O88 Mn72 2.297 . S
O88 C75 1.236 . S
N89 Mn73 2.282 . S
N89 C90 1.328 . S
N89 C94 1.318 . S
C90 N89 1.328 . S
C90 C91 1.457 . S
C90 H95 0.929 . S
C91 C90 1.457 . S
C91 C92 1.291 . S
C91 H104 0.931 . S
C92 C91 1.291 . S
C92 C93 1.373 . S
C92 H105 0.929 . S
C93 C92 1.373 . S
C93 C94 1.396 . S
C93 C100 1.403 . S
C94 C84 1.476 . S
C94 N89 1.318 . S
C94 C93 1.396 . S
H95 C90 0.929 . S
O96 Mn72 2.385 . S
O96 C74 1.234 . S
O97 Mn72 2.209 . S
O97 Mn73 2.215 . S
O97 C74 1.283 . S
O98 Mn72 2.094 . S
O98 C76 1.240 . S
O99 Mn73 2.117 . S
O99 C76 1.264 . S
C100 C93 1.403 . S
C100 C101 1.399 . S
C100 H106 0.929 . S
C101 C81 1.449 . S
C101 C100 1.399 . S
C101 H107 0.930 . S
H102 C82 0.931 . S
H103 C83 0.930 1_556 S
H104 C91 0.931 . S
H105 C92 0.929 . S
H106 C100 0.929 . S
H107 C101 0.930 . S
Mn108 O113 2.095 1_554 S
Mn108 O123 2.160 1_554 S
Mn108 O124 2.297 . S
Mn108 O132 2.385 . S
Mn108 O133 2.209 . S
Mn108 O134 2.094 . S
Mn109 O114 2.121 1_554 S
Mn109 N116 2.257 . S
Mn109 N125 2.282 . S
Mn109 O133 2.215 . S
Mn109 O135 2.117 . S
C110 O132 1.234 . S
C110 O133 1.283 . S
C111 O123 1.280 1_554 S
C111 O124 1.236 . S
C112 O134 1.240 . S
C112 O135 1.264 . S
O113 Mn108 2.095 1_556 S
O113 C122 1.250 . S
O114 Mn109 2.121 1_556 S
O114 C122 1.258 . S
C115 N116 1.326 1_556 S
C115 C119 1.460 1_556 S
C115 H121 0.929 . S
N116 Mn109 2.257 . S
N116 C115 1.326 1_554 S
N116 C120 1.362 . S
C117 C118 1.258 . S
C117 C120 1.431 . S
C117 C137 1.449 . S
C118 C117 1.258 . S
C118 C119 1.477 . S
C118 H138 0.931 . S
C119 C115 1.460 1_554 S
C119 C118 1.477 . S
C119 H139 0.930 1_554 S
C120 N116 1.362 . S
C120 C117 1.431 . S
C120 C130 1.476 . S
H121 C115 0.929 . S
C122 O113 1.250 . S
C122 O114 1.258 . S
O123 Mn108 2.160 1_556 S
O123 C111 1.280 1_556 S
O124 Mn108 2.297 . S
O124 C111 1.236 . S
N125 Mn109 2.282 . S
N125 C126 1.328 . S
N125 C130 1.318 . S
C126 N125 1.328 . S
C126 C127 1.457 . S
C126 H131 0.929 . S
C127 C126 1.457 . S
C127 C128 1.291 . S
C127 H140 0.931 . S
C128 C127 1.291 . S
C128 C129 1.373 . S
C128 H141 0.929 . S
C129 C128 1.373 . S
C129 C130 1.396 . S
C129 C136 1.403 . S
C130 C120 1.476 . S
C130 N125 1.318 . S
C130 C129 1.396 . S
H131 C126 0.929 . S
O132 Mn108 2.385 . S
O132 C110 1.234 . S
O133 Mn108 2.209 . S
O133 Mn109 2.215 . S
O133 C110 1.283 . S
O134 Mn108 2.094 . S
O134 C112 1.240 . S
O135 Mn109 2.117 . S
O135 C112 1.264 . S
C136 C129 1.403 . S
C136 C137 1.399 . S
C136 H142 0.929 . S
C137 C117 1.449 . S
C137 C136 1.399 . S
C137 H143 0.930 . S
H138 C118 0.931 . S
H139 C119 0.930 1_556 S
H140 C127 0.931 . S
H141 C128 0.929 . S
H142 C136 0.929 . S
H143 C137 0.930 . S
Mn144 O149 2.095 1_556 S
Mn144 O159 2.162 1_556 S
Mn144 O160 2.297 . S
Mn144 O168 2.385 . S
Mn144 O169 2.209 . S
Mn144 O170 2.094 . S
Mn145 O150 2.121 1_556 S
Mn145 N152 2.257 . S
Mn145 N161 2.282 . S
Mn145 O169 2.215 . S
Mn145 O171 2.117 . S
C146 O168 1.234 . S
C146 O169 1.283 . S
C147 O159 1.279 1_556 S
C147 O160 1.237 . S
C148 O170 1.240 . S
C148 O171 1.264 . S
O149 Mn144 2.095 1_554 S
O149 C158 1.250 . S
O150 Mn145 2.121 1_554 S
O150 C158 1.258 . S
C151 N152 1.326 1_554 S
C151 C155 1.460 1_554 S
C151 H157 0.929 . S
N152 Mn145 2.257 . S
N152 C151 1.326 1_556 S
N152 C156 1.362 . S
C153 C154 1.258 . S
C153 C156 1.431 . S
C153 C173 1.449 . S
C154 C153 1.258 . S
C154 C155 1.477 . S
C154 H174 0.931 . S
C155 C151 1.460 1_556 S
C155 C154 1.477 . S
C155 H175 0.930 1_556 S
C156 N152 1.362 . S
C156 C153 1.431 . S
C156 C166 1.476 . S
H157 C151 0.929 . S
C158 O149 1.250 . S
C158 O150 1.258 . S
O159 Mn144 2.162 1_554 S
O159 C147 1.279 1_554 S
O160 Mn144 2.297 . S
O160 C147 1.237 . S
N161 Mn145 2.282 . S
N161 C162 1.328 . S
N161 C166 1.318 . S
C162 N161 1.328 . S
C162 C163 1.457 . S
C162 H167 0.929 . S
C163 C162 1.457 . S
C163 C164 1.291 . S
C163 H176 0.931 . S
C164 C163 1.291 . S
C164 C165 1.373 . S
C164 H177 0.929 . S
C165 C164 1.373 . S
C165 C166 1.396 . S
C165 C172 1.403 . S
C166 C156 1.476 . S
C166 N161 1.318 . S
C166 C165 1.396 . S
H167 C162 0.929 . S
O168 Mn144 2.385 . S
O168 C146 1.234 . S
O169 Mn144 2.209 . S
O169 Mn145 2.215 . S
O169 C146 1.283 . S
O170 Mn144 2.094 . S
O170 C148 1.240 . S
O171 Mn145 2.117 . S
O171 C148 1.264 . S
C172 C165 1.403 . S
C172 C173 1.399 . S
C172 H178 0.929 . S
C173 C153 1.449 . S
C173 C172 1.399 . S
C173 H179 0.930 . S
H174 C154 0.931 . S
H175 C155 0.930 1_554 S
H176 C163 0.931 . S
H177 C164 0.929 . S
H178 C172 0.929 . S
H179 C173 0.930 . S
Mn180 O185 2.095 1_556 S
Mn180 O195 2.162 1_556 S
Mn180 O196 2.297 . S
Mn180 O204 2.385 . S
Mn180 O205 2.209 . S
Mn180 O206 2.094 . S
Mn181 O186 2.121 1_556 S
Mn181 N188 2.257 . S
Mn181 N197 2.282 . S
Mn181 O205 2.215 . S
Mn181 O207 2.117 . S
C182 O204 1.234 . S
C182 O205 1.283 . S
C183 O195 1.279 1_556 S
C183 O196 1.237 . S
C184 O206 1.240 . S
C184 O207 1.264 . S
O185 Mn180 2.095 1_554 S
O185 C194 1.250 . S
O186 Mn181 2.121 1_554 S
O186 C194 1.258 . S
C187 N188 1.326 1_554 S
C187 C191 1.460 1_554 S
C187 H193 0.929 . S
N188 Mn181 2.257 . S
N188 C187 1.326 1_556 S
N188 C192 1.362 . S
C189 C190 1.258 . S
C189 C192 1.431 . S
C189 C209 1.449 . S
C190 C189 1.258 . S
C190 C191 1.477 . S
C190 H210 0.931 . S
C191 C187 1.460 1_556 S
C191 C190 1.477 . S
C191 H211 0.930 1_556 S
C192 N188 1.362 . S
C192 C189 1.431 . S
C192 C202 1.476 . S
H193 C187 0.929 . S
C194 O185 1.250 . S
C194 O186 1.258 . S
O195 Mn180 2.162 1_554 S
O195 C183 1.279 1_554 S
O196 Mn180 2.297 . S
O196 C183 1.237 . S
N197 Mn181 2.282 . S
N197 C198 1.328 . S
N197 C202 1.318 . S
C198 N197 1.328 . S
C198 C199 1.457 . S
C198 H203 0.929 . S
C199 C198 1.457 . S
C199 C200 1.291 . S
C199 H212 0.931 . S
C200 C199 1.291 . S
C200 C201 1.373 . S
C200 H213 0.929 . S
C201 C200 1.373 . S
C201 C202 1.396 . S
C201 C208 1.403 . S
C202 C192 1.476 . S
C202 N197 1.318 . S
C202 C201 1.396 . S
H203 C198 0.929 . S
O204 Mn180 2.385 . S
O204 C182 1.234 . S
O205 Mn180 2.209 . S
O205 Mn181 2.215 . S
O205 C182 1.283 . S
O206 Mn180 2.094 . S
O206 C184 1.240 . S
O207 Mn181 2.117 . S
O207 C184 1.264 . S
C208 C201 1.403 . S
C208 C209 1.399 . S
C208 H214 0.929 . S
C209 C189 1.449 . S
C209 C208 1.399 . S
C209 H215 0.930 . S
H210 C190 0.931 . S
H211 C191 0.930 1_554 S
H212 C199 0.931 . S
H213 C200 0.929 . S
H214 C208 0.929 . S
H215 C209 0.930 . S
Mn216 O221 2.095 1_556 S
Mn216 O231 2.162 1_556 S
Mn216 O232 2.297 . S
Mn216 O240 2.385 . S
Mn216 O241 2.209 . S
Mn216 O242 2.094 . S
Mn217 O222 2.121 1_556 S
Mn217 N224 2.257 . S
Mn217 N233 2.282 . S
Mn217 O241 2.215 . S
Mn217 O243 2.117 . S
C218 O240 1.234 . S
C218 O241 1.283 . S
C219 O231 1.279 1_556 S
C219 O232 1.237 . S
C220 O242 1.240 . S
C220 O243 1.264 . S
O221 Mn216 2.095 1_554 S
O221 C230 1.250 . S
O222 Mn217 2.121 1_554 S
O222 C230 1.258 . S
C223 N224 1.326 1_554 S
C223 C227 1.460 1_554 S
C223 H229 0.929 . S
N224 Mn217 2.257 . S
N224 C223 1.326 1_556 S
N224 C228 1.362 . S
C225 C226 1.258 . S
C225 C228 1.431 . S
C225 C245 1.449 . S
C226 C225 1.258 . S
C226 C227 1.477 . S
C226 H246 0.931 . S
C227 C223 1.460 1_556 S
C227 C226 1.477 . S
C227 H247 0.930 1_556 S
C228 N224 1.362 . S
C228 C225 1.431 . S
C228 C238 1.476 . S
H229 C223 0.929 . S
C230 O221 1.250 . S
C230 O222 1.258 . S
O231 Mn216 2.162 1_554 S
O231 C219 1.279 1_554 S
O232 Mn216 2.297 . S
O232 C219 1.237 . S
N233 Mn217 2.282 . S
N233 C234 1.328 . S
N233 C238 1.318 . S
C234 N233 1.328 . S
C234 C235 1.457 . S
C234 H239 0.929 . S
C235 C234 1.457 . S
C235 C236 1.291 . S
C235 H248 0.931 . S
C236 C235 1.291 . S
C236 C237 1.373 . S
C236 H249 0.929 . S
C237 C236 1.373 . S
C237 C238 1.396 . S
C237 C244 1.403 . S
C238 C228 1.476 . S
C238 N233 1.318 . S
C238 C237 1.396 . S
H239 C234 0.929 . S
O240 Mn216 2.385 . S
O240 C218 1.234 . S
O241 Mn216 2.209 . S
O241 Mn217 2.215 . S
O241 C218 1.283 . S
O242 Mn216 2.094 . S
O242 C220 1.240 . S
O243 Mn217 2.117 . S
O243 C220 1.264 . S
C244 C237 1.403 . S
C244 C245 1.399 . S
C244 H250 0.929 . S
C245 C225 1.449 . S
C245 C244 1.399 . S
C245 H251 0.930 . S
H246 C226 0.931 . S
H247 C227 0.930 1_554 S
H248 C235 0.931 . S
H249 C236 0.929 . S
H250 C244 0.929 . S
H251 C245 0.930 . S
Mn252 O257 2.095 1_556 S
Mn252 O267 2.162 1_556 S
Mn252 O268 2.297 . S
Mn252 O276 2.385 . S
Mn252 O277 2.209 . S
Mn252 O278 2.094 . S
Mn253 O258 2.121 1_556 S
Mn253 N260 2.257 . S
Mn253 N269 2.282 . S
Mn253 O277 2.215 . S
Mn253 O279 2.117 . S
C254 O276 1.234 . S
C254 O277 1.283 . S
C255 O267 1.279 1_556 S
C255 O268 1.237 . S
C256 O278 1.240 . S
C256 O279 1.264 . S
O257 Mn252 2.095 1_554 S
O257 C266 1.250 . S
O258 Mn253 2.121 1_554 S
O258 C266 1.258 . S
C259 N260 1.326 1_554 S
C259 C263 1.460 1_554 S
C259 H265 0.929 . S
N260 Mn253 2.257 . S
N260 C259 1.326 1_556 S
N260 C264 1.362 . S
C261 C262 1.258 . S
C261 C264 1.431 . S
C261 C281 1.449 . S
C262 C261 1.258 . S
C262 C263 1.477 . S
C262 H282 0.931 . S
C263 C259 1.460 1_556 S
C263 C262 1.477 . S
C263 H283 0.930 1_556 S
C264 N260 1.362 . S
C264 C261 1.431 . S
C264 C274 1.476 . S
H265 C259 0.929 . S
C266 O257 1.250 . S
C266 O258 1.258 . S
O267 Mn252 2.162 1_554 S
O267 C255 1.279 1_554 S
O268 Mn252 2.297 . S
O268 C255 1.237 . S
N269 Mn253 2.282 . S
N269 C270 1.328 . S
N269 C274 1.318 . S
C270 N269 1.328 . S
C270 C271 1.457 . S
C270 H275 0.929 . S
C271 C270 1.457 . S
C271 C272 1.291 . S
C271 H284 0.931 . S
C272 C271 1.291 . S
C272 C273 1.373 . S
C272 H285 0.929 . S
C273 C272 1.373 . S
C273 C274 1.396 . S
C273 C280 1.403 . S
C274 C264 1.476 . S
C274 N269 1.318 . S
C274 C273 1.396 . S
H275 C270 0.929 . S
O276 Mn252 2.385 . S
O276 C254 1.234 . S
O277 Mn252 2.209 . S
O277 Mn253 2.215 . S
O277 C254 1.283 . S
O278 Mn252 2.094 . S
O278 C256 1.240 . S
O279 Mn253 2.117 . S
O279 C256 1.264 . S
C280 C273 1.403 . S
C280 C281 1.399 . S
C280 H286 0.929 . S
C281 C261 1.449 . S
C281 C280 1.399 . S
C281 H287 0.930 . S
H282 C262 0.931 . S
H283 C263 0.930 1_554 S
H284 C271 0.931 . S
H285 C272 0.929 . S
H286 C280 0.929 . S
H287 C281 0.930 . S
Mn288 O293 2.095 . S
Mn288 O303 2.162 . S
Mn288 O304 2.297 . S
Mn288 O312 2.385 . S
Mn288 O313 2.209 . S
Mn288 O314 2.094 . S
Mn289 O294 2.121 . S
Mn289 N296 2.257 . S
Mn289 N305 2.282 . S
Mn289 O313 2.215 . S
Mn289 O315 2.117 . S
C290 O312 1.234 . S
C290 O313 1.283 . S
C291 O303 1.281 . S
C291 O304 1.236 . S
C292 O314 1.240 . S
C292 O315 1.264 . S
O293 Mn288 2.095 . S
O293 C302 1.250 . S
O294 Mn289 2.121 . S
O294 C302 1.258 . S
C295 N296 1.326 . S
C295 C299 1.460 . S
C295 H301 0.929 . S
N296 Mn289 2.257 . S
N296 C295 1.326 . S
N296 C300 1.362 . S
C297 C298 1.258 . S
C297 C300 1.431 . S
C297 C317 1.449 . S
C298 C297 1.258 . S
C298 C299 1.477 . S
C298 H318 0.931 . S
C299 C295 1.460 . S
C299 C298 1.477 . S
C299 H319 0.930 . S
C300 N296 1.362 . S
C300 C297 1.431 . S
C300 C310 1.476 . S
H301 C295 0.929 . S
C302 O293 1.250 . S
C302 O294 1.258 . S
O303 Mn288 2.162 . S
O303 C291 1.281 . S
O304 Mn288 2.297 . S
O304 C291 1.236 . S
N305 Mn289 2.282 . S
N305 C306 1.328 . S
N305 C310 1.318 . S
C306 N305 1.328 . S
C306 C307 1.457 . S
C306 H311 0.929 . S
C307 C306 1.457 . S
C307 C308 1.291 . S
C307 H320 0.931 . S
C308 C307 1.291 . S
C308 C309 1.373 . S
C308 H321 0.929 . S
C309 C308 1.373 . S
C309 C310 1.396 . S
C309 C316 1.403 . S
C310 C300 1.476 . S
C310 N305 1.318 . S
C310 C309 1.396 . S
H311 C306 0.929 . S
O312 Mn288 2.385 . S
O312 C290 1.234 . S
O313 Mn288 2.209 . S
O313 Mn289 2.215 . S
O313 C290 1.283 . S
O314 Mn288 2.094 . S
O314 C292 1.240 . S
O315 Mn289 2.117 . S
O315 C292 1.264 . S
C316 C309 1.403 . S
C316 C317 1.399 . S
C316 H322 0.929 . S
C317 C297 1.449 . S
C317 C316 1.399 . S
C317 H323 0.930 . S
H318 C298 0.931 . S
H319 C299 0.930 . S
H320 C307 0.931 . S
H321 C308 0.929 . S
H322 C316 0.929 . S
H323 C317 0.930 . S
Mn324 O329 2.095 . S
Mn324 O339 2.162 . S
Mn324 O340 2.297 . S
Mn324 O348 2.385 . S
Mn324 O349 2.209 . S
Mn324 O350 2.094 . S
Mn325 O330 2.121 . S
Mn325 N332 2.257 . S
Mn325 N341 2.282 . S
Mn325 O349 2.215 . S
Mn325 O351 2.117 . S
C326 O348 1.234 . S
C326 O349 1.283 . S
C327 O339 1.281 . S
C327 O340 1.236 . S
C328 O350 1.240 . S
C328 O351 1.264 . S
O329 Mn324 2.095 . S
O329 C338 1.250 . S
O330 Mn325 2.121 . S
O330 C338 1.258 . S
C331 N332 1.326 . S
C331 C335 1.460 . S
C331 H337 0.929 . S
N332 Mn325 2.257 . S
N332 C331 1.326 . S
N332 C336 1.362 . S
C333 C334 1.258 . S
C333 C336 1.431 . S
C333 C353 1.449 . S
C334 C333 1.258 . S
C334 C335 1.477 . S
C334 H354 0.931 . S
C335 C331 1.460 . S
C335 C334 1.477 . S
C335 H355 0.930 . S
C336 N332 1.362 . S
C336 C333 1.431 . S
C336 C346 1.476 . S
H337 C331 0.929 . S
C338 O329 1.250 . S
C338 O330 1.258 . S
O339 Mn324 2.162 . S
O339 C327 1.281 . S
O340 Mn324 2.297 . S
O340 C327 1.236 . S
N341 Mn325 2.282 . S
N341 C342 1.328 . S
N341 C346 1.318 . S
C342 N341 1.328 . S
C342 C343 1.457 . S
C342 H347 0.929 . S
C343 C342 1.457 . S
C343 C344 1.291 . S
C343 H356 0.931 . S
C344 C343 1.291 . S
C344 C345 1.373 . S
C344 H357 0.929 . S
C345 C344 1.373 . S
C345 C346 1.396 . S
C345 C352 1.403 . S
C346 C336 1.476 . S
C346 N341 1.318 . S
C346 C345 1.396 . S
H347 C342 0.929 . S
O348 Mn324 2.385 . S
O348 C326 1.234 . S
O349 Mn324 2.209 . S
O349 Mn325 2.215 . S
O349 C326 1.283 . S
O350 Mn324 2.094 . S
O350 C328 1.240 . S
O351 Mn325 2.117 . S
O351 C328 1.264 . S
C352 C345 1.403 . S
C352 C353 1.399 . S
C352 H358 0.929 . S
C353 C333 1.449 . S
C353 C352 1.399 . S
C353 H359 0.930 . S
H354 C334 0.931 . S
H355 C335 0.930 . S
H356 C343 0.931 . S
H357 C344 0.929 . S
H358 C352 0.929 . S
H359 C353 0.930 . S
Mn360 O365 2.095 . S
Mn360 O375 2.162 . S
Mn360 O376 2.297 . S
Mn360 O384 2.385 . S
Mn360 O385 2.209 . S
Mn360 O386 2.094 . S
Mn361 O366 2.121 . S
Mn361 N368 2.257 . S
Mn361 N377 2.282 . S
Mn361 O385 2.215 . S
Mn361 O387 2.117 . S
C362 O384 1.234 . S
C362 O385 1.283 . S
C363 O375 1.281 . S
C363 O376 1.236 . S
C364 O386 1.240 . S
C364 O387 1.264 . S
O365 Mn360 2.095 . S
O365 C374 1.250 . S
O366 Mn361 2.121 . S
O366 C374 1.258 . S
C367 N368 1.326 . S
C367 C371 1.460 . S
C367 H373 0.929 . S
N368 Mn361 2.257 . S
N368 C367 1.326 . S
N368 C372 1.362 . S
C369 C370 1.258 . S
C369 C372 1.431 . S
C369 C389 1.449 . S
C370 C369 1.258 . S
C370 C371 1.477 . S
C370 H390 0.931 . S
C371 C367 1.460 . S
C371 C370 1.477 . S
C371 H391 0.930 . S
C372 N368 1.362 . S
C372 C369 1.431 . S
C372 C382 1.476 . S
H373 C367 0.929 . S
C374 O365 1.250 . S
C374 O366 1.258 . S
O375 Mn360 2.162 . S
O375 C363 1.281 . S
O376 Mn360 2.297 . S
O376 C363 1.236 . S
N377 Mn361 2.282 . S
N377 C378 1.328 . S
N377 C382 1.318 . S
C378 N377 1.328 . S
C378 C379 1.457 . S
C378 H383 0.929 . S
C379 C378 1.457 . S
C379 C380 1.291 . S
C379 H392 0.931 . S
C380 C379 1.291 . S
C380 C381 1.373 . S
C380 H393 0.929 . S
C381 C380 1.373 . S
C381 C382 1.396 . S
C381 C388 1.403 . S
C382 C372 1.476 . S
C382 N377 1.318 . S
C382 C381 1.396 . S
H383 C378 0.929 . S
O384 Mn360 2.385 . S
O384 C362 1.234 . S
O385 Mn360 2.209 . S
O385 Mn361 2.215 . S
O385 C362 1.283 . S
O386 Mn360 2.094 . S
O386 C364 1.240 . S
O387 Mn361 2.117 . S
O387 C364 1.264 . S
C388 C381 1.403 . S
C388 C389 1.399 . S
C388 H394 0.929 . S
C389 C369 1.449 . S
C389 C388 1.399 . S
C389 H395 0.930 . S
H390 C370 0.931 . S
H391 C371 0.930 . S
H392 C379 0.931 . S
H393 C380 0.929 . S
H394 C388 0.929 . S
H395 C389 0.930 . S
Mn396 O401 2.095 . S
Mn396 O411 2.162 . S
Mn396 O412 2.297 . S
Mn396 O420 2.385 . S
Mn396 O421 2.209 . S
Mn396 O422 2.094 . S
Mn397 O402 2.121 . S
Mn397 N404 2.257 . S
Mn397 N413 2.282 . S
Mn397 O421 2.215 . S
Mn397 O423 2.117 . S
C398 O420 1.234 . S
C398 O421 1.283 . S
C399 O411 1.281 . S
C399 O412 1.236 . S
C400 O422 1.240 . S
C400 O423 1.264 . S
O401 Mn396 2.095 . S
O401 C410 1.250 . S
O402 Mn397 2.121 . S
O402 C410 1.258 . S
C403 N404 1.326 . S
C403 C407 1.460 . S
C403 H409 0.929 . S
N404 Mn397 2.257 . S
N404 C403 1.326 . S
N404 C408 1.362 . S
C405 C406 1.258 . S
C405 C408 1.431 . S
C405 C425 1.449 . S
C406 C405 1.258 . S
C406 C407 1.477 . S
C406 H426 0.931 . S
C407 C403 1.460 . S
C407 C406 1.477 . S
C407 H427 0.930 . S
C408 N404 1.362 . S
C408 C405 1.431 . S
C408 C418 1.476 . S
H409 C403 0.929 . S
C410 O401 1.250 . S
C410 O402 1.258 . S
O411 Mn396 2.162 . S
O411 C399 1.281 . S
O412 Mn396 2.297 . S
O412 C399 1.236 . S
N413 Mn397 2.282 . S
N413 C414 1.328 . S
N413 C418 1.318 . S
C414 N413 1.328 . S
C414 C415 1.457 . S
C414 H419 0.929 . S
C415 C414 1.457 . S
C415 C416 1.291 . S
C415 H428 0.931 . S
C416 C415 1.291 . S
C416 C417 1.373 . S
C416 H429 0.929 . S
C417 C416 1.373 . S
C417 C418 1.396 . S
C417 C424 1.403 . S
C418 C408 1.476 . S
C418 N413 1.318 . S
C418 C417 1.396 . S
H419 C414 0.929 . S
O420 Mn396 2.385 . S
O420 C398 1.234 . S
O421 Mn396 2.209 . S
O421 Mn397 2.215 . S
O421 C398 1.283 . S
O422 Mn396 2.094 . S
O422 C400 1.240 . S
O423 Mn397 2.117 . S
O423 C400 1.264 . S
C424 C417 1.403 . S
C424 C425 1.399 . S
C424 H430 0.929 . S
C425 C405 1.449 . S
C425 C424 1.399 . S
C425 H431 0.930 . S
H426 C406 0.931 . S
H427 C407 0.930 . S
H428 C415 0.931 . S
H429 C416 0.929 . S
H430 C424 0.929 . S
H431 C425 0.930 . S
Mn432 O437 2.095 . S
Mn432 O447 2.162 . S
Mn432 O448 2.297 . S
Mn432 O456 2.385 . S
Mn432 O457 2.209 . S
Mn432 O458 2.094 . S
Mn433 O438 2.121 . S
Mn433 N440 2.257 . S
Mn433 N449 2.282 . S
Mn433 O457 2.215 . S
Mn433 O459 2.117 . S
C434 O456 1.234 . S
C434 O457 1.283 . S
C435 O447 1.281 . S
C435 O448 1.236 . S
C436 O458 1.240 . S
C436 O459 1.264 . S
O437 Mn432 2.095 . S
O437 C446 1.250 . S
O438 Mn433 2.121 . S
O438 C446 1.258 . S
C439 N440 1.326 . S
C439 C443 1.460 . S
C439 H445 0.929 . S
N440 Mn433 2.257 . S
N440 C439 1.326 . S
N440 C444 1.362 . S
C441 C442 1.258 . S
C441 C444 1.431 . S
C441 C461 1.449 . S
C442 C441 1.258 . S
C442 C443 1.477 . S
C442 H462 0.931 . S
C443 C439 1.460 . S
C443 C442 1.477 . S
C443 H463 0.930 . S
C444 N440 1.362 . S
C444 C441 1.431 . S
C444 C454 1.476 . S
H445 C439 0.929 . S
C446 O437 1.250 . S
C446 O438 1.258 . S
O447 Mn432 2.162 . S
O447 C435 1.281 . S
O448 Mn432 2.297 . S
O448 C435 1.236 . S
N449 Mn433 2.282 . S
N449 C450 1.328 . S
N449 C454 1.318 . S
C450 N449 1.328 . S
C450 C451 1.457 . S
C450 H455 0.929 . S
C451 C450 1.457 . S
C451 C452 1.291 . S
C451 H464 0.931 . S
C452 C451 1.291 . S
C452 C453 1.373 . S
C452 H465 0.929 . S
C453 C452 1.373 . S
C453 C454 1.396 . S
C453 C460 1.403 . S
C454 C444 1.476 . S
C454 N449 1.318 . S
C454 C453 1.396 . S
H455 C450 0.929 . S
O456 Mn432 2.385 . S
O456 C434 1.234 . S
O457 Mn432 2.209 . S
O457 Mn433 2.215 . S
O457 C434 1.283 . S
O458 Mn432 2.094 . S
O458 C436 1.240 . S
O459 Mn433 2.117 . S
O459 C436 1.264 . S
C460 C453 1.403 . S
C460 C461 1.399 . S
C460 H466 0.929 . S
C461 C441 1.449 . S
C461 C460 1.399 . S
C461 H467 0.930 . S
H462 C442 0.931 . S
H463 C443 0.930 . S
H464 C451 0.931 . S
H465 C452 0.929 . S
H466 C460 0.929 . S
H467 C461 0.930 . S
Mn468 O473 2.095 . S
Mn468 O483 2.162 . S
Mn468 O484 2.297 . S
Mn468 O492 2.385 . S
Mn468 O493 2.209 . S
Mn468 O494 2.094 . S
Mn469 O474 2.121 . S
Mn469 N476 2.257 . S
Mn469 N485 2.282 . S
Mn469 O493 2.215 . S
Mn469 O495 2.117 . S
C470 O492 1.234 . S
C470 O493 1.283 . S
C471 O483 1.281 . S
C471 O484 1.236 . S
C472 O494 1.240 . S
C472 O495 1.264 . S
O473 Mn468 2.095 . S
O473 C482 1.250 . S
O474 Mn469 2.121 . S
O474 C482 1.258 . S
C475 N476 1.326 . S
C475 C479 1.460 . S
C475 H481 0.929 . S
N476 Mn469 2.257 . S
N476 C475 1.326 . S
N476 C480 1.362 . S
C477 C478 1.258 . S
C477 C480 1.431 . S
C477 C497 1.449 . S
C478 C477 1.258 . S
C478 C479 1.477 . S
C478 H498 0.931 . S
C479 C475 1.460 . S
C479 C478 1.477 . S
C479 H499 0.930 . S
C480 N476 1.362 . S
C480 C477 1.431 . S
C480 C490 1.476 . S
H481 C475 0.929 . S
C482 O473 1.250 . S
C482 O474 1.258 . S
O483 Mn468 2.162 . S
O483 C471 1.281 . S
O484 Mn468 2.297 . S
O484 C471 1.236 . S
N485 Mn469 2.282 . S
N485 C486 1.328 . S
N485 C490 1.318 . S
C486 N485 1.328 . S
C486 C487 1.457 . S
C486 H491 0.929 . S
C487 C486 1.457 . S
C487 C488 1.291 . S
C487 H500 0.931 . S
C488 C487 1.291 . S
C488 C489 1.373 . S
C488 H501 0.929 . S
C489 C488 1.373 . S
C489 C490 1.396 . S
C489 C496 1.403 . S
C490 C480 1.476 . S
C490 N485 1.318 . S
C490 C489 1.396 . S
H491 C486 0.929 . S
O492 Mn468 2.385 . S
O492 C470 1.234 . S
O493 Mn468 2.209 . S
O493 Mn469 2.215 . S
O493 C470 1.283 . S
O494 Mn468 2.094 . S
O494 C472 1.240 . S
O495 Mn469 2.117 . S
O495 C472 1.264 . S
C496 C489 1.403 . S
C496 C497 1.399 . S
C496 H502 0.929 . S
C497 C477 1.449 . S
C497 C496 1.399 . S
C497 H503 0.930 . S
H498 C478 0.931 . S
H499 C479 0.930 . S
H500 C487 0.931 . S
H501 C488 0.929 . S
H502 C496 0.929 . S
H503 C497 0.930 . S
Mn504 O509 2.095 . S
Mn504 O519 2.162 . S
Mn504 O520 2.297 . S
Mn504 O528 2.385 . S
Mn504 O529 2.209 . S
Mn504 O530 2.094 . S
Mn505 O510 2.121 . S
Mn505 N512 2.257 . S
Mn505 N521 2.282 . S
Mn505 O529 2.215 . S
Mn505 O531 2.117 . S
C506 O528 1.234 . S
C506 O529 1.283 . S
C507 O519 1.281 . S
C507 O520 1.236 . S
C508 O530 1.240 . S
C508 O531 1.264 . S
O509 Mn504 2.095 . S
O509 C518 1.250 . S
O510 Mn505 2.121 . S
O510 C518 1.258 . S
C511 N512 1.326 . S
C511 C515 1.460 . S
C511 H517 0.929 . S
N512 Mn505 2.257 . S
N512 C511 1.326 . S
N512 C516 1.362 . S
C513 C514 1.258 . S
C513 C516 1.431 . S
C513 C533 1.449 . S
C514 C513 1.258 . S
C514 C515 1.477 . S
C514 H534 0.931 . S
C515 C511 1.460 . S
C515 C514 1.477 . S
C515 H535 0.930 . S
C516 N512 1.362 . S
C516 C513 1.431 . S
C516 C526 1.476 . S
H517 C511 0.929 . S
C518 O509 1.250 . S
C518 O510 1.258 . S
O519 Mn504 2.162 . S
O519 C507 1.281 . S
O520 Mn504 2.297 . S
O520 C507 1.236 . S
N521 Mn505 2.282 . S
N521 C522 1.328 . S
N521 C526 1.318 . S
C522 N521 1.328 . S
C522 C523 1.457 . S
C522 H527 0.929 . S
C523 C522 1.457 . S
C523 C524 1.291 . S
C523 H536 0.931 . S
C524 C523 1.291 . S
C524 C525 1.373 . S
C524 H537 0.929 . S
C525 C524 1.373 . S
C525 C526 1.396 . S
C525 C532 1.403 . S
C526 C516 1.476 . S
C526 N521 1.318 . S
C526 C525 1.396 . S
H527 C522 0.929 . S
O528 Mn504 2.385 . S
O528 C506 1.234 . S
O529 Mn504 2.209 . S
O529 Mn505 2.215 . S
O529 C506 1.283 . S
O530 Mn504 2.094 . S
O530 C508 1.240 . S
O531 Mn505 2.117 . S
O531 C508 1.264 . S
C532 C525 1.403 . S
C532 C533 1.399 . S
C532 H538 0.929 . S
C533 C513 1.449 . S
C533 C532 1.399 . S
C533 H539 0.930 . S
H534 C514 0.931 . S
H535 C515 0.930 . S
H536 C523 0.931 . S
H537 C524 0.929 . S
H538 C532 0.929 . S
H539 C533 0.930 . S
Mn540 O545 2.095 . S
Mn540 O555 2.162 . S
Mn540 O556 2.297 . S
Mn540 O564 2.385 . S
Mn540 O565 2.209 . S
Mn540 O566 2.094 . S
Mn541 O546 2.121 . S
Mn541 N548 2.257 . S
Mn541 N557 2.282 . S
Mn541 O565 2.215 . S
Mn541 O567 2.117 . S
C542 O564 1.234 . S
C542 O565 1.283 . S
C543 O555 1.281 . S
C543 O556 1.236 . S
C544 O566 1.240 . S
C544 O567 1.264 . S
O545 Mn540 2.095 . S
O545 C554 1.250 . S
O546 Mn541 2.121 . S
O546 C554 1.258 . S
C547 N548 1.326 . S
C547 C551 1.460 . S
C547 H553 0.929 . S
N548 Mn541 2.257 . S
N548 C547 1.326 . S
N548 C552 1.362 . S
C549 C550 1.258 . S
C549 C552 1.431 . S
C549 C569 1.449 . S
C550 C549 1.258 . S
C550 C551 1.477 . S
C550 H570 0.931 . S
C551 C547 1.460 . S
C551 C550 1.477 . S
C551 H571 0.930 . S
C552 N548 1.362 . S
C552 C549 1.431 . S
C552 C562 1.476 . S
H553 C547 0.929 . S
C554 O545 1.250 . S
C554 O546 1.258 . S
O555 Mn540 2.162 . S
O555 C543 1.281 . S
O556 Mn540 2.297 . S
O556 C543 1.236 . S
N557 Mn541 2.282 . S
N557 C558 1.328 . S
N557 C562 1.318 . S
C558 N557 1.328 . S
C558 C559 1.457 . S
C558 H563 0.929 . S
C559 C558 1.457 . S
C559 C560 1.291 . S
C559 H572 0.931 . S
C560 C559 1.291 . S
C560 C561 1.373 . S
C560 H573 0.929 . S
C561 C560 1.373 . S
C561 C562 1.396 . S
C561 C568 1.403 . S
C562 C552 1.476 . S
C562 N557 1.318 . S
C562 C561 1.396 . S
H563 C558 0.929 . S
O564 Mn540 2.385 . S
O564 C542 1.234 . S
O565 Mn540 2.209 . S
O565 Mn541 2.215 . S
O565 C542 1.283 . S
O566 Mn540 2.094 . S
O566 C544 1.240 . S
O567 Mn541 2.117 . S
O567 C544 1.264 . S
C568 C561 1.403 . S
C568 C569 1.399 . S
C568 H574 0.929 . S
C569 C549 1.449 . S
C569 C568 1.399 . S
C569 H575 0.930 . S
H570 C550 0.931 . S
H571 C551 0.930 . S
H572 C559 0.931 . S
H573 C560 0.929 . S
H574 C568 0.929 . S
H575 C569 0.930 . S
H576 C588 0.930 . S
H577 C590 0.930 . S
H578 C591 0.930 . S
H579 C595 0.959 . S
H580 C595 0.959 . S
H581 C595 0.961 . S
H582 C596 0.960 . S
H583 C596 0.961 . S
H584 C596 0.959 . S
H585 C599 0.929 . S
H586 C600 0.931 . S
H587 C602 0.930 . S
C588 H576 0.930 . S
C588 C589 1.399 1_554 S
C588 C593 1.399 . S
C589 C588 1.399 1_556 S
C589 C590 1.376 . S
C590 H577 0.930 . S
C590 C589 1.376 . S
C590 C591 1.388 . S
C591 H578 0.930 . S
C591 C590 1.388 . S
C591 C592 1.390 . S
C592 C591 1.390 . S
C592 C593 1.394 1_556 S
C592 C598 1.465 . S
C593 C588 1.399 . S
C593 C592 1.394 1_554 S
C593 C594 1.516 . S
C594 C593 1.516 . S
C594 C595 1.502 . S
C594 C596 1.561 . S
C594 C597 1.526 . S
C595 H579 0.959 . S
C595 H580 0.959 . S
C595 H581 0.961 . S
C595 C594 1.502 . S
C596 H582 0.960 . S
C596 H583 0.961 . S
C596 H584 0.959 . S
C596 C594 1.561 . S
C597 C594 1.526 . S
C597 C598 1.396 1_554 S
C597 C602 1.390 . S
C598 C592 1.465 . S
C598 C597 1.396 1_556 S
C598 C599 1.399 . S
C599 H585 0.929 . S
C599 C598 1.399 . S
C599 C600 1.385 . S
C600 H586 0.931 . S
C600 C599 1.385 . S
C600 C601 1.389 . S
C601 C600 1.389 . S
C601 C602 1.387 1_556 S
C602 H587 0.930 . S
C602 C597 1.390 . S
C602 C601 1.387 1_554 S
H603 C615 0.930 . S
H604 C617 0.930 . S
H605 C618 0.930 . S
H606 C622 0.959 . S
H607 C622 0.959 . S
H608 C622 0.961 . S
H609 C623 0.960 . S
H610 C623 0.961 . S
H611 C623 0.959 . S
H612 C626 0.929 . S
H613 C627 0.931 . S
H614 C629 0.930 . S
C615 H603 0.930 . S
C615 C616 1.399 1_556 S
C615 C620 1.399 . S
C616 C615 1.399 1_554 S
C616 C617 1.376 . S
C617 H604 0.930 . S
C617 C616 1.376 . S
C617 C618 1.388 . S
C618 H605 0.930 . S
C618 C617 1.388 . S
C618 C619 1.390 . S
C619 C618 1.390 . S
C619 C620 1.394 1_554 S
C619 C625 1.465 . S
C620 C615 1.399 . S
C620 C619 1.394 1_556 S
C620 C621 1.516 . S
C621 C620 1.516 . S
C621 C622 1.502 . S
C621 C623 1.561 . S
C621 C624 1.526 . S
C622 H606 0.959 . S
C622 H607 0.959 . S
C622 H608 0.961 . S
C622 C621 1.502 . S
C623 H609 0.960 . S
C623 H610 0.961 . S
C623 H611 0.959 . S
C623 C621 1.561 . S
C624 C621 1.526 . S
C624 C625 1.396 1_556 S
C624 C629 1.390 . S
C625 C619 1.465 . S
C625 C624 1.396 1_554 S
C625 C626 1.399 . S
C626 H612 0.929 . S
C626 C625 1.399 . S
C626 C627 1.385 . S
C627 H613 0.931 . S
C627 C626 1.385 . S
C627 C628 1.389 . S
C628 C627 1.389 . S
C628 C629 1.387 1_554 S
C629 H614 0.930 . S
C629 C624 1.390 . S
C629 C628 1.387 1_556 S
H630 C642 0.930 . S
H631 C644 0.930 . S
H632 C645 0.930 . S
H633 C649 0.959 . S
H634 C649 0.959 . S
H635 C649 0.961 . S
H636 C650 0.960 . S
H637 C650 0.961 . S
H638 C650 0.959 . S
H639 C653 0.929 . S
H640 C654 0.931 . S
H641 C656 0.930 . S
C642 H630 0.930 . S
C642 C643 1.399 1_554 S
C642 C647 1.399 . S
C643 C642 1.399 1_556 S
C643 C644 1.376 . S
C644 H631 0.930 . S
C644 C643 1.376 . S
C644 C645 1.388 . S
C645 H632 0.930 . S
C645 C644 1.388 . S
C645 C646 1.390 . S
C646 C645 1.390 . S
C646 C647 1.394 1_556 S
C646 C652 1.465 . S
C647 C642 1.399 . S
C647 C646 1.394 1_554 S
C647 C648 1.516 . S
C648 C647 1.516 . S
C648 C649 1.502 . S
C648 C650 1.561 . S
C648 C651 1.526 . S
C649 H633 0.959 . S
C649 H634 0.959 . S
C649 H635 0.961 . S
C649 C648 1.502 . S
C650 H636 0.960 . S
C650 H637 0.961 . S
C650 H638 0.959 . S
C650 C648 1.561 . S
C651 C648 1.526 . S
C651 C652 1.396 1_554 S
C651 C656 1.390 . S
C652 C646 1.465 . S
C652 C651 1.396 1_556 S
C652 C653 1.399 . S
C653 H639 0.929 . S
C653 C652 1.399 . S
C653 C654 1.385 . S
C654 H640 0.931 . S
C654 C653 1.385 . S
C654 C655 1.389 . S
C655 C654 1.389 . S
C655 C656 1.387 1_556 S
C656 H641 0.930 . S
C656 C651 1.390 . S
C656 C655 1.387 1_554 S
H657 C669 0.930 . S
H658 C671 0.930 . S
H659 C672 0.930 . S
H660 C676 0.959 . S
H661 C676 0.959 . S
H662 C676 0.961 . S
H663 C677 0.960 . S
H664 C677 0.961 . S
H665 C677 0.959 . S
H666 C680 0.929 . S
H667 C681 0.931 . S
H668 C683 0.930 . S
C669 H657 0.930 . S
C669 C670 1.399 1_554 S
C669 C674 1.399 . S
C670 C669 1.399 1_556 S
C670 C671 1.376 . S
C671 H658 0.930 . S
C671 C670 1.376 . S
C671 C672 1.388 . S
C672 H659 0.930 . S
C672 C671 1.388 . S
C672 C673 1.390 . S
C673 C672 1.390 . S
C673 C674 1.394 1_556 S
C673 C679 1.465 . S
C674 C669 1.399 . S
C674 C673 1.394 1_554 S
C674 C675 1.516 . S
C675 C674 1.516 . S
C675 C676 1.502 . S
C675 C677 1.561 1_554 S
C675 C678 1.526 . S
C676 H660 0.959 . S
C676 H661 0.959 . S
C676 H662 0.961 . S
C676 C675 1.502 . S
C677 H663 0.960 . S
C677 H664 0.961 . S
C677 H665 0.959 . S
C677 C675 1.561 1_556 S
C678 C675 1.526 . S
C678 C679 1.396 1_554 S
C678 C683 1.390 . S
C679 C673 1.465 . S
C679 C678 1.396 1_556 S
C679 C680 1.399 . S
C680 H666 0.929 . S
C680 C679 1.399 . S
C680 C681 1.385 . S
C681 H667 0.931 . S
C681 C680 1.385 . S
C681 C682 1.389 . S
C682 C681 1.389 . S
C682 C683 1.387 1_556 S
C683 H668 0.930 . S
C683 C678 1.390 . S
C683 C682 1.387 1_554 S
H684 C696 0.930 . S
H685 C698 0.930 . S
H686 C699 0.930 . S
H687 C703 0.961 . S
H688 C703 0.972 . S
H689 C703 0.947 1_545 S
H690 C704 0.956 . S
H691 C704 0.964 1_565 S
H692 C704 0.959 1_565 S
H693 C707 0.929 . S
H694 C708 0.931 . S
H695 C710 0.930 . S
C696 H684 0.930 . S
C696 C697 1.399 . S
C696 C701 1.399 . S
C697 C696 1.399 . S
C697 C698 1.376 . S
C698 H685 0.930 . S
C698 C697 1.376 . S
C698 C699 1.388 . S
C699 H686 0.930 . S
C699 C698 1.388 . S
C699 C700 1.390 . S
C700 C699 1.390 . S
C700 C701 1.394 . S
C700 C706 1.465 1_545 S
C701 C696 1.399 . S
C701 C700 1.394 . S
C701 C702 1.513 . S
C702 C701 1.513 . S
C702 C703 1.502 1_545 S
C702 C704 1.561 . S
C702 C705 1.529 1_545 S
C703 H687 0.961 . S
C703 H688 0.972 . S
C703 H689 0.947 1_565 S
C703 C702 1.502 1_565 S
C704 H690 0.956 . S
C704 H691 0.964 1_545 S
C704 H692 0.959 1_545 S
C704 C702 1.561 . S
C705 C702 1.529 1_565 S
C705 C706 1.396 . S
C705 C710 1.390 . S
C706 C700 1.465 1_565 S
C706 C705 1.396 . S
C706 C707 1.399 . S
C707 H693 0.929 . S
C707 C706 1.399 . S
C707 C708 1.385 . S
C708 H694 0.931 . S
C708 C707 1.385 . S
C708 C709 1.389 . S
C709 C708 1.389 . S
C709 C710 1.387 . S
C710 H695 0.930 . S
C710 C705 1.390 . S
C710 C709 1.387 . S
H711 C723 0.930 . S
H712 C725 0.930 . S
H713 C726 0.930 . S
H714 C730 0.961 . S
H715 C730 0.971 . S
H716 C730 0.947 1_655 S
H717 C731 0.959 1_655 S
H718 C731 0.962 . S
H719 C731 0.959 . S
H720 C734 0.929 . S
H721 C735 0.931 . S
H722 C737 0.930 . S
C723 H711 0.930 . S
C723 C724 1.399 . S
C723 C728 1.399 . S
C724 C723 1.399 . S
C724 C725 1.376 . S
C725 H712 0.930 . S
C725 C724 1.376 . S
C725 C726 1.388 . S
C726 H713 0.930 . S
C726 C725 1.388 . S
C726 C727 1.390 . S
C727 C726 1.390 . S
C727 C728 1.394 . S
C727 C733 1.465 1_655 S
C728 C723 1.399 . S
C728 C727 1.394 . S
C728 C729 1.520 1_655 S
C729 C728 1.520 1_455 S
C729 C730 1.502 . S
C729 C731 1.561 . S
C729 C732 1.522 . S
C730 H714 0.961 . S
C730 H715 0.971 . S
C730 H716 0.947 1_455 S
C730 C729 1.502 . S
C731 H717 0.959 1_455 S
C731 H718 0.962 . S
C731 H719 0.959 . S
C731 C729 1.561 . S
C732 C729 1.522 . S
C732 C733 1.396 . S
C732 C737 1.390 . S
C733 C727 1.465 1_455 S
C733 C732 1.396 . S
C733 C734 1.399 . S
C734 H720 0.929 . S
C734 C733 1.399 . S
C734 C735 1.385 . S
C735 H721 0.931 . S
C735 C734 1.385 . S
C735 C736 1.389 . S
C736 C735 1.389 . S
C736 C737 1.387 . S
C737 H722 0.930 . S
C737 C732 1.390 . S
C737 C736 1.387 . S
H738 C750 0.930 . S
H739 C752 0.930 . S
H740 C753 0.930 . S
H741 C757 0.961 . S
H742 C757 0.972 . S
H743 C757 0.947 1_545 S
H744 C758 0.957 . S
H745 C758 0.964 1_565 S
H746 C758 0.959 1_565 S
H747 C761 0.929 . S
H748 C762 0.931 . S
H749 C764 0.930 . S
C750 H738 0.930 . S
C750 C751 1.399 . S
C750 C755 1.399 . S
C751 C750 1.399 . S
C751 C752 1.376 . S
C752 H739 0.930 . S
C752 C751 1.376 . S
C752 C753 1.388 . S
C753 H740 0.930 . S
C753 C752 1.388 . S
C753 C754 1.390 . S
C754 C753 1.390 . S
C754 C755 1.394 . S
C754 C760 1.465 1_545 S
C755 C750 1.399 . S
C755 C754 1.394 . S
C755 C756 1.512 . S
C756 C755 1.512 . S
C756 C757 1.502 1_545 S
C756 C758 1.561 . S
C756 C759 1.529 1_545 S
C757 H741 0.961 . S
C757 H742 0.972 . S
C757 H743 0.947 1_565 S
C757 C756 1.502 1_565 S
C758 H744 0.957 . S
C758 H745 0.964 1_545 S
C758 H746 0.959 1_545 S
C758 C756 1.561 . S
C759 C756 1.529 1_565 S
C759 C760 1.396 . S
C759 C764 1.390 . S
C760 C754 1.465 1_565 S
C760 C759 1.396 . S
C760 C761 1.399 . S
C761 H747 0.929 . S
C761 C760 1.399 . S
C761 C762 1.385 . S
C762 H748 0.931 . S
C762 C761 1.385 . S
C762 C763 1.389 . S
C763 C762 1.389 . S
C763 C764 1.387 . S
C764 H749 0.930 . S
C764 C759 1.390 . S
C764 C763 1.387 . S
H765 C777 0.930 . S
H766 C779 0.930 . S
H767 C780 0.930 . S
H768 C784 0.963 . S
H769 C784 0.983 . S
H770 C784 0.935 1_455 S
H771 C785 0.961 1_455 S
H772 C785 0.960 . S
H773 C785 0.959 . S
H774 C788 0.929 . S
H775 C789 0.931 . S
H776 C791 0.930 . S
C777 H765 0.930 . S
C777 C778 1.399 . S
C777 C782 1.399 . S
C778 C777 1.399 . S
C778 C779 1.376 . S
C779 H766 0.930 . S
C779 C778 1.376 . S
C779 C780 1.388 . S
C780 H767 0.930 . S
C780 C779 1.388 . S
C780 C781 1.390 . S
C781 C780 1.390 . S
C781 C782 1.394 . S
C781 C787 1.465 1_455 S
C782 C777 1.399 . S
C782 C781 1.394 . S
C782 C783 1.517 1_455 S
C783 C782 1.517 1_655 S
C783 C784 1.501 . S
C783 C785 1.561 . S
C783 C786 1.525 . S
C784 H768 0.963 . S
C784 H769 0.983 . S
C784 H770 0.935 1_655 S
C784 C783 1.501 . S
C785 H771 0.961 1_655 S
C785 H772 0.960 . S
C785 H773 0.959 . S
C785 C783 1.561 . S
C786 C783 1.525 . S
C786 C787 1.396 . S
C786 C791 1.390 . S
C787 C781 1.465 1_655 S
C787 C786 1.396 . S
C787 C788 1.399 . S
C788 H774 0.929 . S
C788 C787 1.399 . S
C788 C789 1.385 . S
C789 H775 0.931 . S
C789 C788 1.385 . S
C789 C790 1.389 . S
C790 C789 1.389 . S
C790 C791 1.387 . S
C791 H776 0.930 . S
C791 C786 1.390 . S
C791 C790 1.387 . S
H792 C804 0.930 . S
H793 C806 0.930 . S
H794 C807 0.930 . S
H795 C811 0.959 . S
H796 C811 0.959 . S
H797 C811 0.961 . S
H798 C812 0.960 . S
H799 C812 0.961 . S
H800 C812 0.959 . S
H801 C815 0.929 . S
H802 C816 0.931 . S
H803 C818 0.930 . S
C804 H792 0.930 . S
C804 C805 1.395 1_554 S
C804 C809 1.399 . S
C805 C804 1.395 1_556 S
C805 C806 1.382 . S
C806 H793 0.930 . S
C806 C805 1.382 . S
C806 C807 1.388 . S
C807 H794 0.930 . S
C807 C806 1.388 . S
C807 C808 1.390 . S
C808 C807 1.390 . S
C808 C809 1.394 1_556 S
C808 C814 1.465 . S
C809 C804 1.399 . S
C809 C808 1.394 1_554 S
C809 C810 1.516 . S
C810 C809 1.516 . S
C810 C811 1.502 . S
C810 C812 1.561 . S
C810 C813 1.526 . S
C811 H795 0.959 . S
C811 H796 0.959 . S
C811 H797 0.961 . S
C811 C810 1.502 . S
C812 H798 0.960 . S
C812 H799 0.961 . S
C812 H800 0.959 . S
C812 C810 1.561 . S
C813 C810 1.526 . S
C813 C814 1.396 1_554 S
C813 C818 1.390 . S
C814 C808 1.465 . S
C814 C813 1.396 1_556 S
C814 C815 1.399 . S
C815 H801 0.929 . S
C815 C814 1.399 . S
C815 C816 1.385 . S
C816 H802 0.931 . S
C816 C815 1.385 . S
C816 C817 1.389 . S
C817 C816 1.389 . S
C817 C818 1.387 1_556 S
C818 H803 0.930 . S
C818 C813 1.390 . S
C818 C817 1.387 1_554 S
H819 C831 0.930 . S
H820 C833 0.930 . S
H821 C834 0.930 . S
H822 C838 0.959 . S
H823 C838 0.959 . S
H824 C838 0.961 . S
H825 C839 0.960 . S
H826 C839 0.961 . S
H827 C839 0.959 . S
H828 C842 0.929 . S
H829 C843 0.931 . S
H830 C845 0.930 . S
C831 H819 0.930 . S
C831 C832 1.399 1_554 S
C831 C836 1.399 . S
C832 C831 1.399 1_556 S
C832 C833 1.376 . S
C833 H820 0.930 . S
C833 C832 1.376 . S
C833 C834 1.388 . S
C834 H821 0.930 . S
C834 C833 1.388 . S
C834 C835 1.390 . S
C835 C834 1.390 . S
C835 C836 1.394 1_556 S
C835 C841 1.465 . S
C836 C831 1.399 . S
C836 C835 1.394 1_554 S
C836 C837 1.516 . S
C837 C836 1.516 . S
C837 C838 1.502 . S
C837 C839 1.561 . S
C837 C840 1.526 . S
C838 H822 0.959 . S
C838 H823 0.959 . S
C838 H824 0.961 . S
C838 C837 1.502 . S
C839 H825 0.960 . S
C839 H826 0.961 . S
C839 H827 0.959 . S
C839 C837 1.561 . S
C840 C837 1.526 . S
C840 C841 1.396 1_554 S
C840 C845 1.390 . S
C841 C835 1.465 . S
C841 C840 1.396 1_556 S
C841 C842 1.399 . S
C842 H828 0.929 . S
C842 C841 1.399 . S
C842 C843 1.385 . S
C843 H829 0.931 . S
C843 C842 1.385 . S
C843 C844 1.389 . S
C844 C843 1.389 . S
C844 C845 1.387 1_556 S
C845 H830 0.930 . S
C845 C840 1.390 . S
C845 C844 1.387 1_554 S
H846 C858 0.930 . S
H847 C860 0.930 . S
H848 C861 0.930 . S
H849 C865 0.959 . S
H850 C865 0.959 . S
H851 C865 0.961 . S
H852 C866 0.960 . S
H853 C866 0.961 . S
H854 C866 0.959 . S
H855 C869 0.929 . S
H856 C870 0.931 . S
H857 C872 0.930 . S
C858 H846 0.930 . S
C858 C859 1.399 1_556 S
C858 C863 1.399 . S
C859 C858 1.399 1_554 S
C859 C860 1.376 . S
C860 H847 0.930 . S
C860 C859 1.376 . S
C860 C861 1.388 . S
C861 H848 0.930 . S
C861 C860 1.388 . S
C861 C862 1.390 . S
C862 C861 1.390 . S
C862 C863 1.394 1_554 S
C862 C868 1.465 . S
C863 C858 1.399 . S
C863 C862 1.394 1_556 S
C863 C864 1.516 . S
C864 C863 1.516 . S
C864 C865 1.502 . S
C864 C866 1.561 . S
C864 C867 1.526 . S
C865 H849 0.959 . S
C865 H850 0.959 . S
C865 H851 0.961 . S
C865 C864 1.502 . S
C866 H852 0.960 . S
C866 H853 0.961 . S
C866 H854 0.959 . S
C866 C864 1.561 . S
C867 C864 1.526 . S
C867 C868 1.396 1_556 S
C867 C872 1.390 . S
C868 C862 1.465 . S
C868 C867 1.396 1_554 S
C868 C869 1.399 . S
C869 H855 0.929 . S
C869 C868 1.399 . S
C869 C870 1.385 . S
C870 H856 0.931 . S
C870 C869 1.385 . S
C870 C871 1.389 . S
C871 C870 1.389 . S
C871 C872 1.387 1_554 S
C872 H857 0.930 . S
C872 C867 1.390 . S
C872 C871 1.387 1_556 S
H873 C885 0.930 . S
H874 C887 0.930 . S
H875 C888 0.930 . S
H876 C892 0.959 . S
H877 C892 0.959 . S
H878 C892 0.961 . S
H879 C893 0.960 . S
H880 C893 0.961 . S
H881 C893 0.959 . S
H882 C896 0.929 . S
H883 C897 0.931 . S
H884 C899 0.930 . S
C885 H873 0.930 . S
C885 C886 1.399 1_556 S
C885 C890 1.399 . S
C886 C885 1.399 1_554 S
C886 C887 1.376 . S
C887 H874 0.930 . S
C887 C886 1.376 . S
C887 C888 1.388 . S
C888 H875 0.930 . S
C888 C887 1.388 . S
C888 C889 1.390 . S
C889 C888 1.390 . S
C889 C890 1.394 1_554 S
C889 C895 1.465 . S
C890 C885 1.399 . S
C890 C889 1.394 1_556 S
C890 C891 1.516 . S
C891 C890 1.516 . S
C891 C892 1.502 . S
C891 C893 1.561 . S
C891 C894 1.526 . S
C892 H876 0.959 . S
C892 H877 0.959 . S
C892 H878 0.961 . S
C892 C891 1.502 . S
C893 H879 0.960 . S
C893 H880 0.961 . S
C893 H881 0.959 . S
C893 C891 1.561 . S
C894 C891 1.526 . S
C894 C895 1.396 1_556 S
C894 C899 1.390 . S
C895 C889 1.465 . S
C895 C894 1.396 1_554 S
C895 C896 1.399 . S
C896 H882 0.929 . S
C896 C895 1.399 . S
C896 C897 1.385 . S
C897 H883 0.931 . S
C897 C896 1.385 . S
C897 C898 1.389 . S
C898 C897 1.389 . S
C898 C899 1.387 1_554 S
C899 H884 0.930 . S
C899 C894 1.390 . S
C899 C898 1.387 1_556 S
H900 C912 0.930 . S
H901 C914 0.930 . S
H902 C915 0.930 . S
H903 C919 0.959 . S
H904 C919 0.959 . S
H905 C919 0.961 . S
H906 C920 0.960 . S
H907 C920 0.961 . S
H908 C920 0.959 . S
H909 C923 0.929 . S
H910 C924 0.931 . S
H911 C926 0.930 . S
C912 H900 0.930 . S
C912 C913 1.399 . S
C912 C917 1.399 . S
C913 C912 1.399 . S
C913 C914 1.376 . S
C914 H901 0.930 . S
C914 C913 1.376 . S
C914 C915 1.388 . S
C915 H902 0.930 . S
C915 C914 1.388 . S
C915 C916 1.390 . S
C916 C915 1.390 . S
C916 C917 1.394 . S
C916 C922 1.465 . S
C917 C912 1.399 . S
C917 C916 1.394 . S
C917 C918 1.516 . S
C918 C917 1.516 . S
C918 C919 1.502 . S
C918 C920 1.561 . S
C918 C921 1.526 . S
C919 H903 0.959 . S
C919 H904 0.959 . S
C919 H905 0.961 . S
C919 C918 1.502 . S
C920 H906 0.960 . S
C920 H907 0.961 . S
C920 H908 0.959 . S
C920 C918 1.561 . S
C921 C918 1.526 . S
C921 C922 1.396 . S
C921 C926 1.390 . S
C922 C916 1.465 . S
C922 C921 1.396 . S
C922 C923 1.399 . S
C923 H909 0.929 . S
C923 C922 1.399 . S
C923 C924 1.385 . S
C924 H910 0.931 . S
C924 C923 1.385 . S
C924 C925 1.389 . S
C925 C924 1.389 . S
C925 C926 1.387 . S
C926 H911 0.930 . S
C926 C921 1.390 . S
C926 C925 1.387 . S
H927 C939 0.930 . S
H928 C941 0.930 . S
H929 C942 0.930 . S
H930 C946 0.959 . S
H931 C946 0.959 . S
H932 C946 0.961 . S
H933 C947 0.960 . S
H934 C947 0.961 . S
H935 C947 0.959 . S
H936 C950 0.929 . S
H937 C951 0.931 . S
H938 C953 0.930 . S
C939 H927 0.930 . S
C939 C940 1.399 . S
C939 C944 1.399 . S
C940 C939 1.399 . S
C940 C941 1.376 . S
C941 H928 0.930 . S
C941 C940 1.376 . S
C941 C942 1.388 . S
C942 H929 0.930 . S
C942 C941 1.388 . S
C942 C943 1.390 . S
C943 C942 1.390 . S
C943 C944 1.394 . S
C943 C949 1.465 . S
C944 C939 1.399 . S
C944 C943 1.394 . S
C944 C945 1.516 . S
C945 C944 1.516 . S
C945 C946 1.502 . S
C945 C947 1.561 . S
C945 C948 1.526 . S
C946 H930 0.959 . S
C946 H931 0.959 . S
C946 H932 0.961 . S
C946 C945 1.502 . S
C947 H933 0.960 . S
C947 H934 0.961 . S
C947 H935 0.959 . S
C947 C945 1.561 . S
C948 C945 1.526 . S
C948 C949 1.396 . S
C948 C953 1.390 . S
C949 C943 1.465 . S
C949 C948 1.396 . S
C949 C950 1.399 . S
C950 H936 0.929 . S
C950 C949 1.399 . S
C950 C951 1.385 . S
C951 H937 0.931 . S
C951 C950 1.385 . S
C951 C952 1.389 . S
C952 C951 1.389 . S
C952 C953 1.387 . S
C953 H938 0.930 . S
C953 C948 1.390 . S
C953 C952 1.387 . S
H954 C966 0.930 . S
H955 C968 0.930 . S
H956 C969 0.930 . S
H957 C973 0.959 . S
H958 C973 0.959 . S
H959 C973 0.961 . S
H960 C974 0.960 . S
H961 C974 0.961 . S
H962 C974 0.959 . S
H963 C977 0.929 . S
H964 C978 0.931 . S
H965 C980 0.930 . S
C966 H954 0.930 . S
C966 C967 1.399 . S
C966 C971 1.399 . S
C967 C966 1.399 . S
C967 C968 1.376 . S
C968 H955 0.930 . S
C968 C967 1.376 . S
C968 C969 1.388 . S
C969 H956 0.930 . S
C969 C968 1.388 . S
C969 C970 1.390 . S
C970 C969 1.390 . S
C970 C971 1.394 . S
C970 C976 1.465 . S
C971 C966 1.399 . S
C971 C970 1.394 . S
C971 C972 1.516 . S
C972 C971 1.516 . S
C972 C973 1.502 . S
C972 C974 1.561 . S
C972 C975 1.526 . S
C973 H957 0.959 . S
C973 H958 0.959 . S
C973 H959 0.961 . S
C973 C972 1.502 . S
C974 H960 0.960 . S
C974 H961 0.961 . S
C974 H962 0.959 . S
C974 C972 1.561 . S
C975 C972 1.526 . S
C975 C976 1.396 . S
C975 C980 1.390 . S
C976 C970 1.465 . S
C976 C975 1.396 . S
C976 C977 1.399 . S
C977 H963 0.929 . S
C977 C976 1.399 . S
C977 C978 1.385 . S
C978 H964 0.931 . S
C978 C977 1.385 . S
C978 C979 1.389 . S
C979 C978 1.389 . S
C979 C980 1.387 . S
C980 H965 0.930 . S
C980 C975 1.390 . S
C980 C979 1.387 . S
H981 C993 0.930 . S
H982 C995 0.930 . S
H983 C996 0.930 . S
H984 C1000 0.959 . S
H985 C1000 0.959 . S
H986 C1000 0.961 . S
H987 C1001 0.960 . S
H988 C1001 0.961 . S
H989 C1001 0.959 . S
H990 C1004 0.929 . S
H991 C1005 0.931 . S
H992 C1007 0.930 . S
C993 H981 0.930 . S
C993 C994 1.399 . S
C993 C998 1.399 . S
C994 C993 1.399 . S
C994 C995 1.376 . S
C995 H982 0.930 . S
C995 C994 1.376 . S
C995 C996 1.388 . S
C996 H983 0.930 . S
C996 C995 1.388 . S
C996 C997 1.390 . S
C997 C996 1.390 . S
C997 C998 1.394 . S
C997 C1003 1.465 . S
C998 C993 1.399 . S
C998 C997 1.394 . S
C998 C999 1.516 . S
C999 C998 1.516 . S
C999 C1000 1.502 . S
C999 C1001 1.561 . S
C999 C1002 1.526 . S
C1000 H984 0.959 . S
C1000 H985 0.959 . S
C1000 H986 0.961 . S
C1000 C999 1.502 . S
C1001 H987 0.960 . S
C1001 H988 0.961 . S
C1001 H989 0.959 . S
C1001 C999 1.561 . S
C1002 C999 1.526 . S
C1002 C1003 1.396 . S
C1002 C1007 1.390 . S
C1003 C997 1.465 . S
C1003 C1002 1.396 . S
C1003 C1004 1.399 . S
C1004 H990 0.929 . S
C1004 C1003 1.399 . S
C1004 C1005 1.385 . S
C1005 H991 0.931 . S
C1005 C1004 1.385 . S
C1005 C1006 1.389 . S
C1006 C1005 1.389 . S
C1006 C1007 1.387 . S
C1007 H992 0.930 . S
C1007 C1002 1.390 . S
C1007 C1006 1.387 . S
H1008 C1020 0.930 . S
H1009 C1022 0.930 . S
H1010 C1023 0.930 . S
H1011 C1027 0.959 . S
H1012 C1027 0.959 . S
H1013 C1027 0.961 . S
H1014 C1028 0.960 . S
H1015 C1028 0.961 . S
H1016 C1028 0.959 . S
H1017 C1031 0.929 . S
H1018 C1032 0.931 . S
H1019 C1034 0.930 . S
C1020 H1008 0.930 . S
C1020 C1021 1.399 . S
C1020 C1025 1.399 . S
C1021 C1020 1.399 . S
C1021 C1022 1.376 . S
C1022 H1009 0.930 . S
C1022 C1021 1.376 . S
C1022 C1023 1.388 . S
C1023 H1010 0.930 . S
C1023 C1022 1.388 . S
C1023 C1024 1.390 . S
C1024 C1023 1.390 . S
C1024 C1025 1.394 . S
C1024 C1030 1.465 . S
C1025 C1020 1.399 . S
C1025 C1024 1.394 . S
C1025 C1026 1.516 . S
C1026 C1025 1.516 . S
C1026 C1027 1.502 . S
C1026 C1028 1.561 . S
C1026 C1029 1.526 . S
C1027 H1011 0.959 . S
C1027 H1012 0.959 . S
C1027 H1013 0.961 . S
C1027 C1026 1.502 . S
C1028 H1014 0.960 . S
C1028 H1015 0.961 . S
C1028 H1016 0.959 . S
C1028 C1026 1.561 . S
C1029 C1026 1.526 . S
C1029 C1030 1.396 . S
C1029 C1034 1.390 . S
C1030 C1024 1.465 . S
C1030 C1029 1.396 . S
C1030 C1031 1.399 . S
C1031 H1017 0.929 . S
C1031 C1030 1.399 . S
C1031 C1032 1.385 . S
C1032 H1018 0.931 . S
C1032 C1031 1.385 . S
C1032 C1033 1.389 . S
C1033 C1032 1.389 . S
C1033 C1034 1.387 . S
C1034 H1019 0.930 . S
C1034 C1029 1.390 . S
C1034 C1033 1.387 . S
H1035 C1047 0.930 . S
H1036 C1049 0.930 . S
H1037 C1050 0.930 . S
H1038 C1054 0.959 . S
H1039 C1054 0.959 . S
H1040 C1054 0.961 . S
H1041 C1055 0.960 . S
H1042 C1055 0.961 . S
H1043 C1055 0.959 . S
H1044 C1058 0.929 . S
H1045 C1059 0.931 . S
H1046 C1061 0.930 . S
C1047 H1035 0.930 . S
C1047 C1048 1.399 . S
C1047 C1052 1.399 . S
C1048 C1047 1.399 . S
C1048 C1049 1.376 . S
C1049 H1036 0.930 . S
C1049 C1048 1.376 . S
C1049 C1050 1.388 . S
C1050 H1037 0.930 . S
C1050 C1049 1.388 . S
C1050 C1051 1.390 . S
C1051 C1050 1.390 . S
C1051 C1052 1.394 . S
C1051 C1057 1.465 . S
C1052 C1047 1.399 . S
C1052 C1051 1.394 . S
C1052 C1053 1.516 . S
C1053 C1052 1.516 . S
C1053 C1054 1.502 . S
C1053 C1055 1.561 . S
C1053 C1056 1.526 . S
C1054 H1038 0.959 . S
C1054 H1039 0.959 . S
C1054 H1040 0.961 . S
C1054 C1053 1.502 . S
C1055 H1041 0.960 . S
C1055 H1042 0.961 . S
C1055 H1043 0.959 . S
C1055 C1053 1.561 . S
C1056 C1053 1.526 . S
C1056 C1057 1.396 . S
C1056 C1061 1.390 . S
C1057 C1051 1.465 . S
C1057 C1056 1.396 . S
C1057 C1058 1.399 . S
C1058 H1044 0.929 . S
C1058 C1057 1.399 . S
C1058 C1059 1.385 . S
C1059 H1045 0.931 . S
C1059 C1058 1.385 . S
C1059 C1060 1.389 . S
C1060 C1059 1.389 . S
C1060 C1061 1.387 . S
C1061 H1046 0.930 . S
C1061 C1056 1.390 . S
C1061 C1060 1.387 . S
H1062 C1074 0.930 . S
H1063 C1076 0.930 . S
H1064 C1077 0.930 . S
H1065 C1081 0.959 . S
H1066 C1081 0.959 . S
H1067 C1081 0.961 . S
H1068 C1082 0.960 . S
H1069 C1082 0.961 . S
H1070 C1082 0.959 . S
H1071 C1085 0.929 . S
H1072 C1086 0.931 . S
H1073 C1088 0.930 . S
C1074 H1062 0.930 . S
C1074 C1075 1.399 . S
C1074 C1079 1.399 . S
C1075 C1074 1.399 . S
C1075 C1076 1.376 . S
C1076 H1063 0.930 . S
C1076 C1075 1.376 . S
C1076 C1077 1.388 . S
C1077 H1064 0.930 . S
C1077 C1076 1.388 . S
C1077 C1078 1.390 . S
C1078 C1077 1.390 . S
C1078 C1079 1.394 . S
C1078 C1084 1.465 . S
C1079 C1074 1.399 . S
C1079 C1078 1.394 . S
C1079 C1080 1.516 . S
C1080 C1079 1.516 . S
C1080 C1081 1.502 . S
C1080 C1082 1.561 . S
C1080 C1083 1.526 . S
C1081 H1065 0.959 . S
C1081 H1066 0.959 . S
C1081 H1067 0.961 . S
C1081 C1080 1.502 . S
C1082 H1068 0.960 . S
C1082 H1069 0.961 . S
C1082 H1070 0.959 . S
C1082 C1080 1.561 . S
C1083 C1080 1.526 . S
C1083 C1084 1.396 . S
C1083 C1088 1.390 . S
C1084 C1078 1.465 . S
C1084 C1083 1.396 . S
C1084 C1085 1.399 . S
C1085 H1071 0.929 . S
C1085 C1084 1.399 . S
C1085 C1086 1.385 . S
C1086 H1072 0.931 . S
C1086 C1085 1.385 . S
C1086 C1087 1.389 . S
C1087 C1086 1.389 . S
C1087 C1088 1.387 . S
C1088 H1073 0.930 . S
C1088 C1083 1.390 . S
C1088 C1087 1.387 . S
H1089 C1101 0.930 . S
H1090 C1103 0.930 . S
H1091 C1104 0.930 . S
H1092 C1108 0.959 . S
H1093 C1108 0.959 . S
H1094 C1108 0.961 . S
H1095 C1109 0.960 . S
H1096 C1109 0.961 . S
H1097 C1109 0.959 . S
H1098 C1112 0.929 . S
H1099 C1113 0.931 . S
H1100 C1115 0.930 . S
C1101 H1089 0.930 . S
C1101 C1102 1.399 . S
C1101 C1106 1.399 . S
C1102 C1101 1.399 . S
C1102 C1103 1.376 . S
C1103 H1090 0.930 . S
C1103 C1102 1.376 . S
C1103 C1104 1.388 . S
C1104 H1091 0.930 . S
C1104 C1103 1.388 . S
C1104 C1105 1.390 . S
C1105 C1104 1.390 . S
C1105 C1106 1.394 . S
C1105 C1111 1.465 . S
C1106 C1101 1.399 . S
C1106 C1105 1.394 . S
C1106 C1107 1.516 . S
C1107 C1106 1.516 . S
C1107 C1108 1.502 . S
C1107 C1109 1.561 . S
C1107 C1110 1.526 . S
C1108 H1092 0.959 . S
C1108 H1093 0.959 . S
C1108 H1094 0.961 . S
C1108 C1107 1.502 . S
C1109 H1095 0.960 . S
C1109 H1096 0.961 . S
C1109 H1097 0.959 . S
C1109 C1107 1.561 . S
C1110 C1107 1.526 . S
C1110 C1111 1.396 . S
C1110 C1115 1.390 . S
C1111 C1105 1.465 . S
C1111 C1110 1.396 . S
C1111 C1112 1.399 . S
C1112 H1098 0.929 . S
C1112 C1111 1.399 . S
C1112 C1113 1.385 . S
C1113 H1099 0.931 . S
C1113 C1112 1.385 . S
C1113 C1114 1.389 . S
C1114 C1113 1.389 . S
C1114 C1115 1.387 . S
C1115 H1100 0.930 . S
C1115 C1110 1.390 . S
C1115 C1114 1.387 . S
H1116 C1128 0.930 . S
H1117 C1130 0.930 . S
H1118 C1131 0.930 . S
H1119 C1135 0.959 . S
H1120 C1135 0.959 . S
H1121 C1135 0.961 . S
H1122 C1136 0.960 . S
H1123 C1136 0.961 . S
H1124 C1136 0.959 . S
H1125 C1139 0.929 . S
H1126 C1140 0.931 . S
H1127 C1142 0.930 . S
C1128 H1116 0.930 . S
C1128 C1129 1.399 . S
C1128 C1133 1.399 . S
C1129 C1128 1.399 . S
C1129 C1130 1.376 . S
C1130 H1117 0.930 . S
C1130 C1129 1.376 . S
C1130 C1131 1.388 . S
C1131 H1118 0.930 . S
C1131 C1130 1.388 . S
C1131 C1132 1.390 . S
C1132 C1131 1.390 . S
C1132 C1133 1.394 . S
C1132 C1138 1.465 . S
C1133 C1128 1.399 . S
C1133 C1132 1.394 . S
C1133 C1134 1.516 . S
C1134 C1133 1.516 . S
C1134 C1135 1.502 . S
C1134 C1136 1.561 . S
C1134 C1137 1.526 . S
C1135 H1119 0.959 . S
C1135 H1120 0.959 . S
C1135 H1121 0.961 . S
C1135 C1134 1.502 . S
C1136 H1122 0.960 . S
C1136 H1123 0.961 . S
C1136 H1124 0.959 . S
C1136 C1134 1.561 . S
C1137 C1134 1.526 . S
C1137 C1138 1.396 . S
C1137 C1142 1.390 . S
C1138 C1132 1.465 . S
C1138 C1137 1.396 . S
C1138 C1139 1.399 . S
C1139 H1125 0.929 . S
C1139 C1138 1.399 . S
C1139 C1140 1.385 . S
C1140 H1126 0.931 . S
C1140 C1139 1.385 . S
C1140 C1141 1.389 . S
C1141 C1140 1.389 . S
C1141 C1142 1.387 . S
C1142 H1127 0.930 . S
C1142 C1137 1.390 . S
C1142 C1141 1.387 . S
H1143 C1155 0.930 . S
H1144 C1157 0.930 . S
H1145 C1158 0.930 . S
H1146 C1162 0.959 . S
H1147 C1162 0.959 . S
H1148 C1162 0.961 . S
H1149 C1163 0.960 . S
H1150 C1163 0.961 . S
H1151 C1163 0.959 . S
H1152 C1166 0.929 . S
H1153 C1167 0.931 . S
H1154 C1169 0.930 . S
C1155 H1143 0.930 . S
C1155 C1156 1.399 . S
C1155 C1160 1.399 . S
C1156 C1155 1.399 . S
C1156 C1157 1.376 . S
C1157 H1144 0.930 . S
C1157 C1156 1.376 . S
C1157 C1158 1.388 . S
C1158 H1145 0.930 . S
C1158 C1157 1.388 . S
C1158 C1159 1.390 . S
C1159 C1158 1.390 . S
C1159 C1160 1.394 . S
C1159 C1165 1.465 . S
C1160 C1155 1.399 . S
C1160 C1159 1.394 . S
C1160 C1161 1.516 . S
C1161 C1160 1.516 . S
C1161 C1162 1.502 . S
C1161 C1163 1.561 . S
C1161 C1164 1.526 . S
C1162 H1146 0.959 . S
C1162 H1147 0.959 . S
C1162 H1148 0.961 . S
C1162 C1161 1.502 . S
C1163 H1149 0.960 . S
C1163 H1150 0.961 . S
C1163 H1151 0.959 . S
C1163 C1161 1.561 . S
C1164 C1161 1.526 . S
C1164 C1165 1.396 . S
C1164 C1169 1.390 . S
C1165 C1159 1.465 . S
C1165 C1164 1.396 . S
C1165 C1166 1.399 . S
C1166 H1152 0.929 . S
C1166 C1165 1.399 . S
C1166 C1167 1.385 . S
C1167 H1153 0.931 . S
C1167 C1166 1.385 . S
C1167 C1168 1.389 . S
C1168 C1167 1.389 . S
C1168 C1169 1.387 . S
C1169 H1154 0.930 . S
C1169 C1164 1.390 . S
C1169 C1168 1.387 . S
H1170 C1182 0.930 . S
H1171 C1184 0.930 . S
H1172 C1185 0.930 . S
H1173 C1189 0.959 . S
H1174 C1189 0.959 . S
H1175 C1189 0.961 . S
H1176 C1190 0.960 . S
H1177 C1190 0.961 . S
H1178 C1190 0.959 . S
H1179 C1193 0.929 . S
H1180 C1194 0.931 . S
H1181 C1196 0.930 . S
C1182 H1170 0.930 . S
C1182 C1183 1.399 . S
C1182 C1187 1.399 . S
C1183 C1182 1.399 . S
C1183 C1184 1.376 . S
C1184 H1171 0.930 . S
C1184 C1183 1.376 . S
C1184 C1185 1.388 . S
C1185 H1172 0.930 . S
C1185 C1184 1.388 . S
C1185 C1186 1.390 . S
C1186 C1185 1.390 . S
C1186 C1187 1.394 . S
C1186 C1192 1.465 . S
C1187 C1182 1.399 . S
C1187 C1186 1.394 . S
C1187 C1188 1.516 . S
C1188 C1187 1.516 . S
C1188 C1189 1.502 . S
C1188 C1190 1.561 . S
C1188 C1191 1.526 . S
C1189 H1173 0.959 . S
C1189 H1174 0.959 . S
C1189 H1175 0.961 . S
C1189 C1188 1.502 . S
C1190 H1176 0.960 . S
C1190 H1177 0.961 . S
C1190 H1178 0.959 . S
C1190 C1188 1.561 . S
C1191 C1188 1.526 . S
C1191 C1192 1.396 . S
C1191 C1196 1.390 . S
C1192 C1186 1.465 . S
C1192 C1191 1.396 . S
C1192 C1193 1.399 . S
C1193 H1179 0.929 . S
C1193 C1192 1.399 . S
C1193 C1194 1.385 . S
C1194 H1180 0.931 . S
C1194 C1193 1.385 . S
C1194 C1195 1.389 . S
C1195 C1194 1.389 . S
C1195 C1196 1.387 . S
C1196 H1181 0.930 . S
C1196 C1191 1.390 . S
C1196 C1195 1.387 . S
H1197 C1209 0.930 . S
H1198 C1211 0.930 . S
H1199 C1212 0.930 . S
H1200 C1216 0.959 . S
H1201 C1216 0.959 . S
H1202 C1216 0.961 . S
H1203 C1217 0.960 . S
H1204 C1217 0.961 . S
H1205 C1217 0.959 . S
H1206 C1220 0.929 . S
H1207 C1221 0.931 . S
H1208 C1223 0.930 . S
C1209 H1197 0.930 . S
C1209 C1210 1.399 . S
C1209 C1214 1.399 . S
C1210 C1209 1.399 . S
C1210 C1211 1.376 . S
C1211 H1198 0.930 . S
C1211 C1210 1.376 . S
C1211 C1212 1.388 . S
C1212 H1199 0.930 . S
C1212 C1211 1.388 . S
C1212 C1213 1.390 . S
C1213 C1212 1.390 . S
C1213 C1214 1.394 . S
C1213 C1219 1.465 . S
C1214 C1209 1.399 . S
C1214 C1213 1.394 . S
C1214 C1215 1.516 . S
C1215 C1214 1.516 . S
C1215 C1216 1.502 . S
C1215 C1217 1.561 . S
C1215 C1218 1.526 . S
C1216 H1200 0.959 . S
C1216 H1201 0.959 . S
C1216 H1202 0.961 . S
C1216 C1215 1.502 . S
C1217 H1203 0.960 . S
C1217 H1204 0.961 . S
C1217 H1205 0.959 . S
C1217 C1215 1.561 . S
C1218 C1215 1.526 . S
C1218 C1219 1.396 . S
C1218 C1223 1.390 . S
C1219 C1213 1.465 . S
C1219 C1218 1.396 . S
C1219 C1220 1.399 . S
C1220 H1206 0.929 . S
C1220 C1219 1.399 . S
C1220 C1221 1.385 . S
C1221 H1207 0.931 . S
C1221 C1220 1.385 . S
C1221 C1222 1.389 . S
C1222 C1221 1.389 . S
C1222 C1223 1.387 . S
C1223 H1208 0.930 . S
C1223 C1218 1.390 . S
C1223 C1222 1.387 . S
H1224 C1236 0.930 . S
H1225 C1238 0.930 . S
H1226 C1239 0.930 . S
H1227 C1243 0.959 . S
H1228 C1243 0.959 . S
H1229 C1243 0.961 . S
H1230 C1244 0.960 . S
H1231 C1244 0.961 . S
H1232 C1244 0.959 . S
H1233 C1247 0.929 . S
H1234 C1248 0.931 . S
H1235 C1250 0.930 . S
C1236 H1224 0.930 . S
C1236 C1237 1.399 . S
C1236 C1241 1.399 . S
C1237 C1236 1.399 . S
C1237 C1238 1.376 . S
C1238 H1225 0.930 . S
C1238 C1237 1.376 . S
C1238 C1239 1.388 . S
C1239 H1226 0.930 . S
C1239 C1238 1.388 . S
C1239 C1240 1.390 . S
C1240 C1239 1.390 . S
C1240 C1241 1.394 . S
C1240 C1246 1.465 . S
C1241 C1236 1.399 . S
C1241 C1240 1.394 . S
C1241 C1242 1.516 . S
C1242 C1241 1.516 . S
C1242 C1243 1.502 . S
C1242 C1244 1.561 . S
C1242 C1245 1.526 . S
C1243 H1227 0.959 . S
C1243 H1228 0.959 . S
C1243 H1229 0.961 . S
C1243 C1242 1.502 . S
C1244 H1230 0.960 . S
C1244 H1231 0.961 . S
C1244 H1232 0.959 . S
C1244 C1242 1.561 . S
C1245 C1242 1.526 . S
C1245 C1246 1.396 . S
C1245 C1250 1.390 . S
C1246 C1240 1.465 . S
C1246 C1245 1.396 . S
C1246 C1247 1.399 . S
C1247 H1233 0.929 . S
C1247 C1246 1.399 . S
C1247 C1248 1.385 . S
C1248 H1234 0.931 . S
C1248 C1247 1.385 . S
C1248 C1249 1.389 . S
C1249 C1248 1.389 . S
C1249 C1250 1.387 . S
C1250 H1235 0.930 . S
C1250 C1245 1.390 . S
C1250 C1249 1.387 . S
H1251 C1263 0.930 . S
H1252 C1265 0.930 . S
H1253 C1266 0.930 . S
H1254 C1270 0.959 . S
H1255 C1270 0.959 . S
H1256 C1270 0.961 . S
H1257 C1271 0.960 . S
H1258 C1271 0.961 . S
H1259 C1271 0.959 . S
H1260 C1274 0.929 . S
H1261 C1275 0.931 . S
H1262 C1277 0.930 . S
C1263 H1251 0.930 . S
C1263 C1264 1.399 . S
C1263 C1268 1.399 . S
C1264 C1263 1.399 . S
C1264 C1265 1.376 . S
C1265 H1252 0.930 . S
C1265 C1264 1.376 . S
C1265 C1266 1.388 . S
C1266 H1253 0.930 . S
C1266 C1265 1.388 . S
C1266 C1267 1.390 . S
C1267 C1266 1.390 . S
C1267 C1268 1.394 . S
C1267 C1273 1.465 . S
C1268 C1263 1.399 . S
C1268 C1267 1.394 . S
C1268 C1269 1.516 . S
C1269 C1268 1.516 . S
C1269 C1270 1.502 . S
C1269 C1271 1.561 . S
C1269 C1272 1.526 . S
C1270 H1254 0.959 . S
C1270 H1255 0.959 . S
C1270 H1256 0.961 . S
C1270 C1269 1.502 . S
C1271 H1257 0.960 . S
C1271 H1258 0.961 . S
C1271 H1259 0.959 . S
C1271 C1269 1.561 . S
C1272 C1269 1.526 . S
C1272 C1273 1.396 . S
C1272 C1277 1.390 . S
C1273 C1267 1.465 . S
C1273 C1272 1.396 . S
C1273 C1274 1.399 . S
C1274 H1260 0.929 . S
C1274 C1273 1.399 . S
C1274 C1275 1.385 . S
C1275 H1261 0.931 . S
C1275 C1274 1.385 . S
C1275 C1276 1.389 . S
C1276 C1275 1.389 . S
C1276 C1277 1.387 . S
C1277 H1262 0.930 . S
C1277 C1272 1.390 . S
C1277 C1276 1.387 . S
H1278 C1290 0.930 . S
H1279 C1292 0.930 . S
H1280 C1293 0.930 . S
H1281 C1297 0.959 . S
H1282 C1297 0.959 . S
H1283 C1297 0.961 . S
H1284 C1298 0.960 . S
H1285 C1298 0.961 . S
H1286 C1298 0.959 . S
H1287 C1301 0.929 . S
H1288 C1302 0.931 . S
H1289 C1304 0.930 . S
C1290 H1278 0.930 . S
C1290 C1291 1.399 . S
C1290 C1295 1.399 . S
C1291 C1290 1.399 . S
C1291 C1292 1.376 . S
C1292 H1279 0.930 . S
C1292 C1291 1.376 . S
C1292 C1293 1.388 . S
C1293 H1280 0.930 . S
C1293 C1292 1.388 . S
C1293 C1294 1.390 . S
C1294 C1293 1.390 . S
C1294 C1295 1.394 . S
C1294 C1300 1.465 . S
C1295 C1290 1.399 . S
C1295 C1294 1.394 . S
C1295 C1296 1.516 . S
C1296 C1295 1.516 . S
C1296 C1297 1.502 . S
C1296 C1298 1.561 . S
C1296 C1299 1.526 . S
C1297 H1281 0.959 . S
C1297 H1282 0.959 . S
C1297 H1283 0.961 . S
C1297 C1296 1.502 . S
C1298 H1284 0.960 . S
C1298 H1285 0.961 . S
C1298 H1286 0.959 . S
C1298 C1296 1.561 . S
C1299 C1296 1.526 . S
C1299 C1300 1.396 . S
C1299 C1304 1.390 . S
C1300 C1294 1.465 . S
C1300 C1299 1.396 . S
C1300 C1301 1.399 . S
C1301 H1287 0.929 . S
C1301 C1300 1.399 . S
C1301 C1302 1.385 . S
C1302 H1288 0.931 . S
C1302 C1301 1.385 . S
C1302 C1303 1.389 . S
C1303 C1302 1.389 . S
C1303 C1304 1.387 . S
C1304 H1289 0.930 . S
C1304 C1299 1.390 . S
C1304 C1303 1.387 . S
H1305 C1317 0.930 . S
H1306 C1319 0.930 . S
H1307 C1320 0.930 . S
H1308 C1324 0.959 . S
H1309 C1324 0.959 . S
H1310 C1324 0.961 . S
H1311 C1325 0.960 . S
H1312 C1325 0.961 . S
H1313 C1325 0.959 . S
H1314 C1328 0.929 . S
H1315 C1329 0.931 . S
H1316 C1331 0.930 . S
C1317 H1305 0.930 . S
C1317 C1318 1.399 . S
C1317 C1322 1.399 . S
C1318 C1317 1.399 . S
C1318 C1319 1.376 . S
C1319 H1306 0.930 . S
C1319 C1318 1.376 . S
C1319 C1320 1.388 . S
C1320 H1307 0.930 . S
C1320 C1319 1.388 . S
C1320 C1321 1.390 . S
C1321 C1320 1.390 . S
C1321 C1322 1.394 . S
C1321 C1327 1.465 . S
C1322 C1317 1.399 . S
C1322 C1321 1.394 . S
C1322 C1323 1.516 . S
C1323 C1322 1.516 . S
C1323 C1324 1.502 . S
C1323 C1325 1.561 . S
C1323 C1326 1.526 . S
C1324 H1308 0.959 . S
C1324 H1309 0.959 . S
C1324 H1310 0.961 . S
C1324 C1323 1.502 . S
C1325 H1311 0.960 . S
C1325 H1312 0.961 . S
C1325 H1313 0.959 . S
C1325 C1323 1.561 . S
C1326 C1323 1.526 . S
C1326 C1327 1.396 . S
C1326 C1331 1.390 . S
C1327 C1321 1.465 . S
C1327 C1326 1.396 . S
C1327 C1328 1.399 . S
C1328 H1314 0.929 . S
C1328 C1327 1.399 . S
C1328 C1329 1.385 . S
C1329 H1315 0.931 . S
C1329 C1328 1.385 . S
C1329 C1330 1.389 . S
C1330 C1329 1.389 . S
C1330 C1331 1.387 . S
C1331 H1316 0.930 . S
C1331 C1326 1.390 . S
C1331 C1330 1.387 . S
H1332 C1344 0.930 . S
H1333 C1346 0.930 . S
H1334 C1347 0.930 . S
H1335 C1351 0.959 . S
H1336 C1351 0.959 . S
H1337 C1351 0.961 . S
H1338 C1352 0.960 . S
H1339 C1352 0.961 . S
H1340 C1352 0.959 . S
H1341 C1355 0.929 . S
H1342 C1356 0.931 . S
H1343 C1358 0.930 . S
C1344 H1332 0.930 . S
C1344 C1345 1.399 . S
C1344 C1349 1.399 . S
C1345 C1344 1.399 . S
C1345 C1346 1.376 . S
C1346 H1333 0.930 . S
C1346 C1345 1.376 . S
C1346 C1347 1.388 . S
C1347 H1334 0.930 . S
C1347 C1346 1.388 . S
C1347 C1348 1.390 . S
C1348 C1347 1.390 . S
C1348 C1349 1.394 . S
C1348 C1354 1.465 . S
C1349 C1344 1.399 . S
C1349 C1348 1.394 . S
C1349 C1350 1.516 . S
C1350 C1349 1.516 . S
C1350 C1351 1.502 . S
C1350 C1352 1.561 . S
C1350 C1353 1.526 . S
C1351 H1335 0.959 . S
C1351 H1336 0.959 . S
C1351 H1337 0.961 . S
C1351 C1350 1.502 . S
C1352 H1338 0.960 . S
C1352 H1339 0.961 . S
C1352 H1340 0.959 . S
C1352 C1350 1.561 . S
C1353 C1350 1.526 . S
C1353 C1354 1.396 . S
C1353 C1358 1.390 . S
C1354 C1348 1.465 . S
C1354 C1353 1.396 . S
C1354 C1355 1.399 . S
C1355 H1341 0.929 . S
C1355 C1354 1.399 . S
C1355 C1356 1.385 . S
C1356 H1342 0.931 . S
C1356 C1355 1.385 . S
C1356 C1357 1.389 . S
C1357 C1356 1.389 . S
C1357 C1358 1.387 . S
C1358 H1343 0.930 . S
C1358 C1353 1.390 . S
C1358 C1357 1.387 . S
H1359 C1371 0.930 . S
H1360 C1373 0.930 . S
H1361 C1374 0.930 . S
H1362 C1378 0.959 . S
H1363 C1378 0.959 . S
H1364 C1378 0.961 . S
H1365 C1379 0.960 . S
H1366 C1379 0.961 . S
H1367 C1379 0.959 . S
H1368 C1382 0.929 . S
H1369 C1383 0.931 . S
H1370 C1385 0.930 . S
C1371 H1359 0.930 . S
C1371 C1372 1.399 . S
C1371 C1376 1.399 . S
C1372 C1371 1.399 . S
C1372 C1373 1.376 . S
C1373 H1360 0.930 . S
C1373 C1372 1.376 . S
C1373 C1374 1.388 . S
C1374 H1361 0.930 . S
C1374 C1373 1.388 . S
C1374 C1375 1.390 . S
C1375 C1374 1.390 . S
C1375 C1376 1.394 . S
C1375 C1381 1.465 . S
C1376 C1371 1.399 . S
C1376 C1375 1.394 . S
C1376 C1377 1.516 . S
C1377 C1376 1.516 . S
C1377 C1378 1.502 . S
C1377 C1379 1.561 . S
C1377 C1380 1.526 . S
C1378 H1362 0.959 . S
C1378 H1363 0.959 . S
C1378 H1364 0.961 . S
C1378 C1377 1.502 . S
C1379 H1365 0.960 . S
C1379 H1366 0.961 . S
C1379 H1367 0.959 . S
C1379 C1377 1.561 . S
C1380 C1377 1.526 . S
C1380 C1381 1.396 . S
C1380 C1385 1.390 . S
C1381 C1375 1.465 . S
C1381 C1380 1.396 . S
C1381 C1382 1.399 . S
C1382 H1368 0.929 . S
C1382 C1381 1.399 . S
C1382 C1383 1.385 . S
C1383 H1369 0.931 . S
C1383 C1382 1.385 . S
C1383 C1384 1.389 . S
C1384 C1383 1.389 . S
C1384 C1385 1.387 . S
C1385 H1370 0.930 . S
C1385 C1380 1.390 . S
C1385 C1384 1.387 . S
H1386 C1398 0.930 . S
H1387 C1400 0.930 . S
H1388 C1401 0.930 . S
H1389 C1405 0.959 . S
H1390 C1405 0.959 . S
H1391 C1405 0.961 . S
H1392 C1406 0.960 . S
H1393 C1406 0.961 . S
H1394 C1406 0.959 . S
H1395 C1409 0.929 . S
H1396 C1410 0.931 . S
H1397 C1412 0.930 . S
C1398 H1386 0.930 . S
C1398 C1399 1.399 . S
C1398 C1403 1.399 . S
C1399 C1398 1.399 . S
C1399 C1400 1.376 . S
C1400 H1387 0.930 . S
C1400 C1399 1.376 . S
C1400 C1401 1.388 . S
C1401 H1388 0.930 . S
C1401 C1400 1.388 . S
C1401 C1402 1.390 . S
C1402 C1401 1.390 . S
C1402 C1403 1.394 . S
C1402 C1408 1.465 . S
C1403 C1398 1.399 . S
C1403 C1402 1.394 . S
C1403 C1404 1.516 . S
C1404 C1403 1.516 . S
C1404 C1405 1.502 . S
C1404 C1406 1.561 . S
C1404 C1407 1.526 . S
C1405 H1389 0.959 . S
C1405 H1390 0.959 . S
C1405 H1391 0.961 . S
C1405 C1404 1.502 . S
C1406 H1392 0.960 . S
C1406 H1393 0.961 . S
C1406 H1394 0.959 . S
C1406 C1404 1.561 . S
C1407 C1404 1.526 . S
C1407 C1408 1.396 . S
C1407 C1412 1.390 . S
C1408 C1402 1.465 . S
C1408 C1407 1.396 . S
C1408 C1409 1.399 . S
C1409 H1395 0.929 . S
C1409 C1408 1.399 . S
C1409 C1410 1.385 . S
C1410 H1396 0.931 . S
C1410 C1409 1.385 . S
C1410 C1411 1.389 . S
C1411 C1410 1.389 . S
C1411 C1412 1.387 . S
C1412 H1397 0.930 . S
C1412 C1407 1.390 . S
C1412 C1411 1.387 . S
H1413 C1425 0.930 . S
H1414 C1427 0.930 . S
H1415 C1428 0.930 . S
H1416 C1432 0.959 . S
H1417 C1432 0.959 . S
H1418 C1432 0.961 . S
H1419 C1433 0.960 . S
H1420 C1433 0.961 . S
H1421 C1433 0.959 . S
H1422 C1436 0.929 . S
H1423 C1437 0.931 . S
H1424 C1439 0.930 . S
C1425 H1413 0.930 . S
C1425 C1426 1.399 . S
C1425 C1430 1.399 . S
C1426 C1425 1.399 . S
C1426 C1427 1.376 . S
C1427 H1414 0.930 . S
C1427 C1426 1.376 . S
C1427 C1428 1.388 . S
C1428 H1415 0.930 . S
C1428 C1427 1.388 . S
C1428 C1429 1.390 . S
C1429 C1428 1.390 . S
C1429 C1430 1.394 . S
C1429 C1435 1.465 . S
C1430 C1425 1.399 . S
C1430 C1429 1.394 . S
C1430 C1431 1.516 . S
C1431 C1430 1.516 . S
C1431 C1432 1.502 . S
C1431 C1433 1.561 . S
C1431 C1434 1.526 . S
C1432 H1416 0.959 . S
C1432 H1417 0.959 . S
C1432 H1418 0.961 . S
C1432 C1431 1.502 . S
C1433 H1419 0.960 . S
C1433 H1420 0.961 . S
C1433 H1421 0.959 . S
C1433 C1431 1.561 . S
C1434 C1431 1.526 . S
C1434 C1435 1.396 . S
C1434 C1439 1.390 . S
C1435 C1429 1.465 . S
C1435 C1434 1.396 . S
C1435 C1436 1.399 . S
C1436 H1422 0.929 . S
C1436 C1435 1.399 . S
C1436 C1437 1.385 . S
C1437 H1423 0.931 . S
C1437 C1436 1.385 . S
C1437 C1438 1.389 . S
C1438 C1437 1.389 . S
C1438 C1439 1.387 . S
C1439 H1424 0.930 . S
C1439 C1434 1.390 . S
C1439 C1438 1.387 . S
C589 C148 1.320 . S
C601 C4 1.330 1_556 S
C616 C184 1.340 1_554 S
C628 C40 1.327 . S
C643 C220 1.323 . S
C655 C76 1.335 1_556 S
C670 C256 1.340 . S
C682 C112 1.349 1_556 S
C697 C436 1.321 . S
C709 C292 1.333 . S
C724 C472 1.337 . S
C736 C328 1.348 . S
C751 C364 1.321 . S
C763 C508 1.331 . S
C778 C544 1.326 . S
C790 C400 1.320 . S
C805 C3 1.437 1_556 S
C817 C183 1.456 . S
C832 C219 1.458 . S
C844 C39 1.440 1_556 S
C859 C75 1.455 . S
C871 C255 1.442 1_554 S
C886 C147 1.437 1_554 S
C898 C111 1.456 . S
C913 C471 1.456 . S
C925 C291 1.442 . S
C940 C507 1.456 . S
C952 C327 1.440 . S
C967 C363 1.437 . S
C979 C543 1.454 . S
C994 C399 1.456 . S
C1006 C435 1.441 . S
C1021 C542 1.413 . S
C1033 C2 1.459 . S
C1048 C434 1.458 . S
C1060 C38 1.412 . S
C1075 C470 1.445 . S
C1087 C74 1.445 . S
C1102 C506 1.407 . S
C1114 C110 1.452 . S
C1129 C326 1.460 . S
C1141 C146 1.416 . S
C1156 C362 1.412 . S
C1168 C182 1.459 . S
C1183 C218 1.408 . S
C1195 C398 1.453 . S
C1210 C254 1.414 . S
C1222 C290 1.434 . S
C1237 C482 1.322 . S
C1249 C86 1.315 . S
C1264 C518 1.286 . S
C1276 C122 1.289 . S
C1291 C554 1.318 . S
C1303 C14 1.326 . S
C1318 C50 1.322 . S
C1330 C446 1.315 . S
C1345 C410 1.316 . S
C1357 C230 1.323 . S
C1372 C266 1.319 . S
C1384 C302 1.327 . S
C1399 C338 1.297 . S
C1411 C158 1.304 . S
C1426 C374 1.341 . S
C1438 C194 1.339 . S
