# Generated by pormake.
# Topology rob, (6)-cn, num edge types: 1
# Building blocks:
#     Node 0, Type 0, BuildingBlock: JUFBIX_clean_sbu_0, # of connection points: 6
#     Node 1, Type 0, BuildingBlock: JUFBIX_clean_sbu_0, # of connection points: 6
#     Node 2, Type 0, BuildingBlock: JUFBIX_clean_sbu_0, # of connection points: 6
#     Node 3, Type 0, BuildingBlock: JUFBIX_clean_sbu_0, # of connection points: 6
#     Edge 4, Type (0, 0), BuildingBlock: TEMPAE_clean_linker_10, # of connection points: 2
#     Edge 5, Type (0, 0), BuildingBlock: TEMPAE_clean_linker_10, # of connection points: 2
#     Edge 6, Type (0, 0), BuildingBlock: TEMPAE_clean_linker_10, # of connection points: 2
#     Edge 7, Type (0, 0), BuildingBlock: TEMPAE_clean_linker_10, # of connection points: 2
#     Edge 8, Type (0, 0), BuildingBlock: TEMPAE_clean_linker_10, # of connection points: 2
#     Edge 9, Type (0, 0), BuildingBlock: TEMPAE_clean_linker_10, # of connection points: 2
#     Edge 10, Type (0, 0), BuildingBlock: TEMPAE_clean_linker_10, # of connection points: 2
#     Edge 11, Type (0, 0), BuildingBlock: TEMPAE_clean_linker_10, # of connection points: 2
#     Edge 12, Type (0, 0), BuildingBlock: TEMPAE_clean_linker_10, # of connection points: 2
#     Edge 13, Type (0, 0), BuildingBlock: TEMPAE_clean_linker_10, # of connection points: 2
#     Edge 14, Type (0, 0), BuildingBlock: TEMPAE_clean_linker_10, # of connection points: 2
#     Edge 15, Type (0, 0), BuildingBlock: TEMPAE_clean_linker_10, # of connection points: 2
# Relax obj value: 0.349
# Max RMSD: 0.258
# Mean RMSD: 0.258
data_MOF--net-rob--node1-JUFBIX_clean_sbu_0--edge1-TEMPAE_clean_linker_10
_symmetry_space_group_name_H-M    P1
_symmetry_Int_Tables_number       1
_symmetry_cell_setting            triclinic
loop_
_symmetry_equiv_pos_as_xyz
'x, y, z'
_cell_length_a     17.449437
_cell_length_b     24.710952
_cell_length_c     28.503728
_cell_angle_alpha  94.485072
_cell_angle_beta   89.876075
_cell_angle_gamma 89.984379
loop_
_atom_site_label
_atom_site_type_symbol
_atom_site_fract_x
_atom_site_fract_y
_atom_site_fract_z
_atom_type_partial_charge
Co0 Co 0.19813 0.26803 0.98442 0.0
C1 C 0.16791 0.16127 0.0027 0.0
Co2 Co 0.29638 0.22603 0.01481 0.0
C3 C 0.10937 0.31147 0.91025 0.0
C4 C 0.04686 0.31413 0.97491 0.0
N5 N 0.11601 0.30103 0.95588 0.0
N6 N 0.03887 0.3295 0.89988 0.0
C7 C 0.99951 0.33176 0.94065 0.0
H8 H 0.1545 0.30432 0.88449 0.0
H9 H 0.03027 0.3086 0.0108 0.0
C10 C 0.32652 0.33273 0.99635 0.0
N11 N 0.37642 0.1927 0.04395 0.0
C12 C 0.41256 0.21201 0.08354 0.0
C13 C 0.40342 0.14185 0.03502 0.0
N14 N 0.45985 0.17494 0.10064 0.0
C15 C 0.45461 0.1308 0.06976 0.0
C16 C 0.29793 0.21326 0.91872 0.0
O17 O 0.25771 0.33185 0.98171 0.0
O18 O 0.35507 0.29067 0.01262 0.0
O19 O 0.33502 0.20131 0.95479 0.0
O20 O 0.23682 0.24112 0.92422 0.0
O21 O 0.23728 0.16189 0.01608 0.0
H22 H 0.38412 0.1137 0.00651 0.0
H23 H 0.40195 0.25213 0.10021 0.0
O24 O 0.13858 0.20381 0.98783 0.0
O25 O 0.16204 0.29426 0.04456 0.0
O26 O 0.25671 0.25103 0.07524 0.0
C27 C 0.19761 0.28091 0.08065 0.0
H28 H 0.93937 0.34188 0.94471 0.0
H29 H 0.48232 0.09214 0.07319 0.0
Co30 Co 0.70823 0.76825 0.98027 0.0
C31 C 0.65938 0.66503 0.99509 0.0
Co32 Co 0.79431 0.72147 0.01675 0.0
C33 C 0.6053 0.79415 0.90692 0.0
C34 C 0.6189 0.86083 0.95871 0.0
N35 N 0.63934 0.80866 0.94838 0.0
N36 N 0.5653 0.83541 0.8903 0.0
C37 C 0.57342 0.8774 0.92311 0.0
H38 H 0.6113 0.75416 0.88897 0.0
H39 H 0.63829 0.88583 0.98923 0.0
C40 C 0.84299 0.82484 0.0019 0.0
N41 N 0.86333 0.68163 0.04887 0.0
C42 C 0.89735 0.69813 0.08984 0.0
C43 C 0.88435 0.62929 0.04021 0.0
N44 N 0.93766 0.65805 0.10789 0.0
C45 C 0.93021 0.61466 0.07647 0.0
C46 C 0.80989 0.7094 0.9204 0.0
O47 O 0.77754 0.82736 0.98288 0.0
O48 O 0.86318 0.78156 0.01982 0.0
O49 O 0.83829 0.69483 0.95845 0.0
O50 O 0.75277 0.7414 0.92232 0.0
O51 O 0.72492 0.66226 0.01406 0.0
H52 H 0.86514 0.60296 0.01045 0.0
H53 H 0.89108 0.73874 0.10653 0.0
O54 O 0.63933 0.70839 0.97723 0.0
O55 O 0.6643 0.79498 0.03905 0.0
O56 O 0.75001 0.74797 0.07446 0.0
C57 C 0.69305 0.77996 0.07688 0.0
H58 H 0.55099 0.91792 0.9208 0.0
H59 H 0.95329 0.5746 0.08033 0.0
Co60 Co 0.20177 0.73534 0.51739 0.0
C61 C 0.15653 0.8397 0.50083 0.0
Co62 Co 0.29021 0.78187 0.482 0.0
C63 C 0.1268 0.68532 0.59361 0.0
C64 C 0.05768 0.68141 0.53165 0.0
N65 N 0.12726 0.69724 0.54818 0.0
N66 N 0.05945 0.66393 0.60636 0.0
C67 C 0.01605 0.66085 0.56725 0.0
H68 H 0.17374 0.69424 0.61765 0.0
H69 H 0.03654 0.68733 0.49679 0.0
C70 C 0.33543 0.67756 0.49863 0.0
N71 N 0.36269 0.81997 0.45052 0.0
C72 C 0.39568 0.8032 0.40915 0.0
C73 C 0.38651 0.87161 0.45961 0.0
N74 N 0.43778 0.84251 0.39123 0.0
C75 C 0.43286 0.88559 0.4232 0.0
C76 C 0.30077 0.79422 0.57867 0.0
O77 O 0.26953 0.67532 0.51753 0.0
O78 O 0.35619 0.72054 0.48034 0.0
O79 O 0.33235 0.80792 0.54114 0.0
O80 O 0.24244 0.76347 0.57568 0.0
O81 O 0.22335 0.84239 0.48343 0.0
H82 H 0.36851 0.89812 0.48962 0.0
H83 H 0.38704 0.7631 0.3919 0.0
O84 O 0.13463 0.79611 0.51764 0.0
O85 O 0.16262 0.70758 0.45803 0.0
O86 O 0.24794 0.7558 0.42357 0.0
C87 C 0.1923 0.72277 0.42055 0.0
H88 H 0.95649 0.6486 0.56544 0.0
H89 H 0.45772 0.92516 0.41952 0.0
Co90 Co 0.70134 0.24032 0.51551 0.0
C91 C 0.67312 0.34723 0.49565 0.0
Co92 Co 0.8009 0.2823 0.48601 0.0
C93 C 0.6105 0.19787 0.58925 0.0
C94 C 0.54807 0.19707 0.5248 0.0
N95 N 0.61766 0.20856 0.54369 0.0
N96 N 0.53928 0.18131 0.59978 0.0
C97 C 0.49991 0.18018 0.55915 0.0
H98 H 0.65584 0.20384 0.61491 0.0
H99 H 0.5319 0.20326 0.48901 0.0
C100 C 0.82877 0.17517 0.50579 0.0
N101 N 0.88469 0.31374 0.4579 0.0
C102 C 0.89158 0.32433 0.41233 0.0
C103 C 0.9554 0.32255 0.47607 0.0
N104 N 0.9638 0.33773 0.40094 0.0
C105 C 0.00407 0.3374 0.44116 0.0
C106 C 0.79843 0.29621 0.582 0.0
O107 O 0.75908 0.17591 0.5189 0.0
O108 O 0.85848 0.21743 0.49053 0.0
O109 O 0.83579 0.30865 0.54619 0.0
O110 O 0.73862 0.26713 0.57614 0.0
O111 O 0.74275 0.3467 0.4823 0.0
H112 H 0.97197 0.31505 0.51152 0.0
H113 H 0.84545 0.31966 0.38711 0.0
O114 O 0.64392 0.30502 0.51128 0.0
O115 O 0.66619 0.21433 0.45494 0.0
O116 O 0.76423 0.25535 0.42556 0.0
C117 C 0.70416 0.22674 0.41931 0.0
H118 H 0.43938 0.17136 0.55528 0.0
H119 H 0.06543 0.34306 0.44423 0.0
C120 C 0.5625 0.6034 0.95493 0.0
C121 C 0.60706 0.61828 0.99464 0.0
C122 C 0.51563 0.55707 0.95348 0.0
C123 C 0.51123 0.52642 0.99341 0.0
C124 C 0.55442 0.54252 0.03413 0.0
C125 C 0.60302 0.58768 0.03388 0.0
C126 C 0.47248 0.54012 0.90889 0.0
C127 C 0.54934 0.51209 0.07797 0.0
C128 C 0.33988 0.43339 0.00487 0.0
C129 C 0.37303 0.38223 0.99449 0.0
C130 C 0.38426 0.48078 0.00489 0.0
C131 C 0.46282 0.4768 0.99244 0.0
C132 C 0.49586 0.42515 0.98053 0.0
C133 C 0.45083 0.37835 0.98262 0.0
C134 C 0.34764 0.53489 0.01944 0.0
C135 C 0.57873 0.41932 0.96559 0.0
H136 H 0.56629 0.62697 0.92448 0.0
H137 H 0.63714 0.59963 0.06473 0.0
H138 H 0.49017 0.49857 0.89559 0.0
H139 H 0.41008 0.5388 0.91613 0.0
H140 H 0.48271 0.56806 0.88082 0.0
H141 H 0.58252 0.53215 0.10767 0.0
H142 H 0.48862 0.50878 0.08906 0.0
H143 H 0.57148 0.47021 0.07058 0.0
H144 H 0.27972 0.43619 0.01437 0.0
H145 H 0.47612 0.33869 0.97416 0.0
H146 H 0.35279 0.56243 0.99069 0.0
H147 H 0.37803 0.55447 0.05045 0.0
H148 H 0.28604 0.53092 0.02849 0.0
H149 H 0.59064 0.44509 0.93622 0.0
H150 H 0.59399 0.37666 0.95411 0.0
H151 H 0.61664 0.43348 0.99521 0.0
C152 C 0.38999 0.59839 0.536 0.0
C153 C 0.38724 0.63045 0.49766 0.0
C154 C 0.43929 0.55349 0.53566 0.0
C155 C 0.48455 0.53924 0.49525 0.0
C156 C 0.48118 0.57125 0.45619 0.0
C157 C 0.43354 0.61717 0.45824 0.0
C158 C 0.44312 0.52144 0.57859 0.0
C159 C 0.52651 0.5563 0.41187 0.0
C160 C 0.65777 0.44772 0.50594 0.0
C161 C 0.62624 0.39651 0.49362 0.0
C162 C 0.61218 0.49464 0.50696 0.0
C163 C 0.53414 0.49017 0.49357 0.0
C164 C 0.50288 0.43854 0.47956 0.0
C165 C 0.54901 0.39216 0.48067 0.0
C166 C 0.64688 0.54872 0.52361 0.0
C167 C 0.42071 0.43225 0.46351 0.0
H168 H 0.35456 0.60909 0.56664 0.0
H169 H 0.4308 0.64185 0.42846 0.0
H170 H 0.42258 0.47944 0.5697 0.0
H171 H 0.50337 0.51863 0.59056 0.0
H172 H 0.40795 0.53994 0.60819 0.0
H173 H 0.51651 0.58498 0.38437 0.0
H174 H 0.58864 0.55576 0.41989 0.0
H175 H 0.51063 0.51482 0.39742 0.0
H176 H 0.71743 0.45084 0.51638 0.0
H177 H 0.52496 0.35244 0.47081 0.0
H178 H 0.61487 0.56661 0.55476 0.0
H179 H 0.64206 0.57746 0.49578 0.0
H180 H 0.70823 0.54514 0.53326 0.0
H181 H 0.3814 0.44476 0.49301 0.0
H182 H 0.40692 0.38979 0.45059 0.0
H183 H 0.40919 0.45912 0.43489 0.0
C184 C 0.15648 0.06059 0.99327 0.0
C185 C 0.12221 0.11132 0.00404 0.0
C186 C 0.1133 0.01266 0.99303 0.0
C187 C 0.03477 0.01558 0.00564 0.0
C188 C 0.00052 0.06677 0.01787 0.0
C189 C 0.04439 0.11418 0.01602 0.0
C190 C 0.1512 0.95908 0.97814 0.0
C191 C 0.91761 0.07146 0.03294 0.0
C192 C 0.89774 0.90299 0.96351 0.0
C193 C 0.89468 0.87195 0.00252 0.0
C194 C 0.94491 0.94891 0.96359 0.0
C195 C 0.98767 0.96532 0.00441 0.0
C196 C 0.98439 0.93418 0.04408 0.0
C197 C 0.93891 0.88713 0.04231 0.0
C198 C 0.94888 0.97987 0.92001 0.0
C199 C 0.02719 0.95135 0.08874 0.0
H200 H 0.21666 0.05855 0.9837 0.0
H201 H 0.01822 0.15349 0.02479 0.0
H202 H 0.147 0.93129 0.00674 0.0
H203 H 0.12108 0.93933 0.9471 0.0
H204 H 0.21261 0.96389 0.96897 0.0
H205 H 0.90131 0.11387 0.0446 0.0
H206 H 0.87989 0.05694 0.00333 0.0
H207 H 0.90657 0.04539 0.06221 0.0
H208 H 0.86382 0.89087 0.93262 0.0
H209 H 0.93582 0.86325 0.0726 0.0
H210 H 0.00943 0.98413 0.90888 0.0
H211 H 0.9256 0.02138 0.92773 0.0
H212 H 0.91611 0.95963 0.89021 0.0
H213 H 0.08951 0.95369 0.08149 0.0
H214 H 0.01794 0.92298 0.11659 0.0
H215 H 0.00829 0.99253 0.10235 0.0
C216 C 0.95179 0.12834 0.52036 0.0
C217 C 0.87458 0.1253 0.50721 0.0
C218 C 0.99641 0.08117 0.52127 0.0
C219 C 0.96365 0.03013 0.50681 0.0
C220 C 0.88569 0.02703 0.49309 0.0
C221 C 0.84162 0.07466 0.49435 0.0
C222 C 0.07854 0.08596 0.53766 0.0
C223 C 0.84944 0.97367 0.47587 0.0
C224 C 0.10434 0.91982 0.4639 0.0
C225 C 0.10538 0.88715 0.50187 0.0
C226 C 0.05674 0.96563 0.46451 0.0
C227 C 0.01156 0.9802 0.50489 0.0
C228 C 0.01312 0.94752 0.54356 0.0
C229 C 0.05899 0.90068 0.54118 0.0
C230 C 0.05468 0.99833 0.42193 0.0
C231 C 0.96785 0.96275 0.58784 0.0
H232 H 0.97694 0.16761 0.53062 0.0
H233 H 0.78198 0.07255 0.48376 0.0
H234 H 0.08876 0.05862 0.5661 0.0
H235 H 0.11782 0.0731 0.50825 0.0
H236 H 0.09354 0.12809 0.55094 0.0
H237 H 0.78843 0.97835 0.46589 0.0
H238 H 0.88141 0.95549 0.44481 0.0
H239 H 0.85271 0.94459 0.50351 0.0
H240 H 0.13995 0.90898 0.43337 0.0
H241 H 0.06054 0.87555 0.5707 0.0
H242 H 0.07678 0.03983 0.43128 0.0
H243 H 0.99471 1.00248 0.40982 0.0
H244 H 0.08944 0.97951 0.39228 0.0
H245 H 0.98511 1.00378 0.60272 0.0
H246 H 0.97645 0.93352 0.61507 0.0
H247 H 0.90585 0.96455 0.57966 0.0
C248 C 0.61377 0.17621 0.36344 0.0
C249 C 0.67636 0.21139 0.37101 0.0
C250 C 0.58269 0.16548 0.31825 0.0
C251 C 0.61421 0.19121 0.27992 0.0
C252 C 0.67924 0.22505 0.28704 0.0
C253 C 0.70983 0.23441 0.33242 0.0
C254 C 0.51433 0.1282 0.31187 0.0
C255 C 0.71432 0.25357 0.24722 0.0
C256 C 0.55951 0.14338 0.15423 0.0
C257 C 0.49998 0.17945 0.14519 0.0
C258 C 0.59685 0.14624 0.19802 0.0
C259 C 0.57512 0.18671 0.23342 0.0
C260 C 0.51577 0.22352 0.2245 0.0
C261 C 0.47861 0.21915 0.18082 0.0
C262 C 0.65915 0.10575 0.20652 0.0
C263 C 0.49118 0.26757 0.26123 0.0
H264 H 0.58803 0.15785 0.39299 0.0
H265 H 0.75839 0.26145 0.33783 0.0
H266 H 0.46301 0.152 0.30328 0.0
H267 H 0.52415 0.09737 0.28203 0.0
H268 H 0.50181 0.10698 0.34398 0.0
H269 H 0.7679 0.27545 0.2579 0.0
H270 H 0.72729 0.22402 0.21695 0.0
H271 H 0.67275 0.28331 0.23486 0.0
H272 H 0.57725 0.11286 0.12709 0.0
H273 H 0.43187 0.24659 0.17516 0.0
H274 H 0.64407 0.08301 0.23731 0.0
H275 H 0.7138 0.12724 0.21492 0.0
H276 H 0.66854 0.07622 0.17561 0.0
H277 H 0.46992 0.24916 0.29305 0.0
H278 H 0.44524 0.29377 0.24835 0.0
H279 H 0.54095 0.29353 0.27208 0.0
C280 C 0.60199 0.83688 0.1281 0.0
C281 C 0.65939 0.79708 0.12337 0.0
C282 C 0.56719 0.85068 0.17193 0.0
C283 C 0.5896 0.82338 0.21159 0.0
C284 C 0.64909 0.78438 0.20723 0.0
C285 C 0.68353 0.77199 0.16329 0.0
C286 C 0.50504 0.89331 0.17552 0.0
C287 C 0.67429 0.754 0.24854 0.0
C288 C 0.53665 0.87345 0.33697 0.0
C289 C 0.47393 0.84005 0.34554 0.0
C290 C 0.57336 0.87003 0.2929 0.0
C291 C 0.54706 0.83199 0.25678 0.0
C292 C 0.48257 0.79924 0.26482 0.0
C293 C 0.44661 0.80393 0.30891 0.0
C294 C 0.64139 0.9061 0.28537 0.0
C295 C 0.45266 0.75813 0.22725 0.0
H296 H 0.58364 0.85681 0.09747 0.0
H297 H 0.72805 0.74129 0.16004 0.0
H298 H 0.44924 0.87411 0.18279 0.0
H299 H 0.51683 0.92386 0.20526 0.0
H300 H 0.49962 0.91451 0.14272 0.0
H301 H 0.72464 0.72747 0.23997 0.0
H302 H 0.68914 0.7829 0.27889 0.0
H303 H 0.62644 0.72839 0.2598 0.0
H304 H 0.55815 0.9014 0.36502 0.0
H305 H 0.39683 0.77913 0.31458 0.0
H306 H 0.63364 0.92747 0.25289 0.0
H307 H 0.69396 0.881 0.28055 0.0
H308 H 0.65044 0.93677 0.31546 0.0
H309 H 0.4395 0.77817 0.19473 0.0
H310 H 0.40012 0.7373 0.23859 0.0
H311 H 0.49729 0.72703 0.21818 0.0
C312 C 0.47014 0.87433 0.83798 0.0
C313 C 0.52681 0.83555 0.84548 0.0
C314 C 0.43208 0.87449 0.79462 0.0
C315 C 0.4502 0.83435 0.75816 0.0
C316 C 0.50796 0.79562 0.76517 0.0
C317 C 0.54591 0.79699 0.8085 0.0
C318 C 0.37163 0.91699 0.78811 0.0
C319 C 0.52876 0.75195 0.72718 0.0
C320 C 0.30428 0.78827 0.66557 0.0
C321 C 0.33401 0.81027 0.62541 0.0
C322 C 0.33985 0.79763 0.70942 0.0
C323 C 0.40625 0.83048 0.71345 0.0
C324 C 0.43405 0.85544 0.67371 0.0
C325 C 0.39787 0.84472 0.62998 0.0
C326 C 0.30852 0.77005 0.75089 0.0
C327 C 0.50378 0.89168 0.67696 0.0
H328 H 0.45445 0.90414 0.86621 0.0
H329 H 0.59084 0.76774 0.81314 0.0
H330 H 0.38319 0.93763 0.75563 0.0
H331 H 0.31464 0.89736 0.78389 0.0
H332 H 0.36892 0.9481 0.8184 0.0
H333 H 0.57622 0.72562 0.7379 0.0
H334 H 0.47803 0.72606 0.71841 0.0
H335 H 0.54612 0.77059 0.69463 0.0
H336 H 0.25458 0.76198 0.66254 0.0
H337 H 0.42071 0.86231 0.59921 0.0
H338 H 0.2987 0.8002 0.7812 0.0
H339 H 0.35098 0.74023 0.76211 0.0
H340 H 0.25383 0.7484 0.74251 0.0
H341 H 0.49838 0.92249 0.70725 0.0
H342 H 0.51274 0.91286 0.64441 0.0
H343 H 0.55547 0.86704 0.68302 0.0
C344 C 0.4488 0.13981 0.65325 0.0
C345 C 0.50796 0.17667 0.6461 0.0
C346 C 0.41377 0.13819 0.69759 0.0
C347 C 0.43745 0.17519 0.73524 0.0
C348 C 0.49853 0.2115 0.72844 0.0
C349 C 0.53332 0.21151 0.68408 0.0
C350 C 0.35024 0.09792 0.70383 0.0
C351 C 0.52505 0.25207 0.76744 0.0
C352 C 0.29892 0.22357 0.83224 0.0
C353 C 0.32809 0.19833 0.87083 0.0
C354 C 0.33215 0.21468 0.78747 0.0
C355 C 0.39543 0.17898 0.78089 0.0
C356 C 0.42236 0.15093 0.81907 0.0
C357 C 0.38884 0.16135 0.86375 0.0
C358 C 0.30191 0.24573 0.74781 0.0
C359 C 0.48835 0.11146 0.81314 0.0
H360 H 0.4297 0.11253 0.624 0.0
H361 H 0.57826 0.2406 0.6786 0.0
H362 H 0.3614 0.07505 0.7351 0.0
H363 H 0.29518 0.11979 0.71006 0.0
H364 H 0.34371 0.06856 0.67254 0.0
H365 H 0.57561 0.27574 0.75702 0.0
H366 H 0.47782 0.2808 0.77749 0.0
H367 H 0.54015 0.23104 0.79913 0.0
H368 H 0.25191 0.25208 0.83731 0.0
H369 H 0.41113 0.14122 0.8933 0.0
H370 H 0.28926 0.21761 0.71655 0.0
H371 H 0.34623 0.27464 0.73727 0.0
H372 H 0.24902 0.26891 0.75787 0.0
H373 H 0.47904 0.08241 0.78199 0.0
H374 H 0.49634 0.08822 0.8446 0.0
H375 H 0.54205 0.13387 0.80696 0.0
C376 C 0.95167 0.69879 0.18915 0.0
C377 C 0.97522 0.66052 0.15302 0.0
C378 C 0.98913 0.70351 0.23261 0.0
C379 C 0.05108 0.66849 0.2406 0.0
C380 C 0.07359 0.62838 0.20507 0.0
C381 C 0.03562 0.62508 0.16152 0.0
C382 C 0.96327 0.74683 0.26966 0.0
C383 C 0.13863 0.58976 0.21271 0.0
C384 C 0.18902 0.72655 0.33345 0.0
C385 C 0.16115 0.70418 0.37389 0.0
C386 C 0.15602 0.71317 0.28933 0.0
C387 C 0.09407 0.67616 0.28549 0.0
C388 C 0.06841 0.65114 0.32569 0.0
C389 C 0.10199 0.66572 0.36957 0.0
C390 C 0.18493 0.74088 0.24732 0.0
C391 C 0.00343 0.61069 0.32272 0.0
H392 H 0.90363 0.72523 0.18364 0.0
H393 H 0.05427 0.59546 0.13384 0.0
H394 H 0.94806 0.72824 0.30261 0.0
H395 H 0.01081 0.77579 0.27803 0.0
H396 H 0.91293 0.76993 0.25819 0.0
H397 H 0.14494 0.55813 0.18304 0.0
H398 H 0.19318 0.61267 0.21675 0.0
H399 H 0.12936 0.56949 0.24565 0.0
H400 H 0.23517 0.75598 0.3364 0.0
H401 H 0.08081 0.64781 0.40061 0.0
H402 H 0.14006 0.76864 0.23559 0.0
H403 H 0.19702 0.71054 0.21747 0.0
H404 H 0.23782 0.76483 0.25538 0.0
H405 H 0.94902 0.63179 0.31568 0.0
H406 H 0.99663 0.59008 0.35575 0.0
H407 H 0.01297 0.57947 0.29315 0.0
C408 C 0.05763 0.37167 0.34528 0.0
C409 C 0.99487 0.33855 0.35416 0.0
C410 C 0.0924 0.36909 0.30062 0.0
C411 C 0.0646 0.33164 0.26446 0.0
C412 C 1.00007 0.29908 0.27299 0.0
C413 C 0.96577 0.30321 0.31759 0.0
C414 C 0.15985 0.40543 0.29245 0.0
C415 C 0.96903 0.25822 0.23559 0.0
C416 C 0.11171 0.33784 0.13494 0.0
C417 C 0.16875 0.29791 0.12839 0.0
C418 C 0.08009 0.35149 0.17965 0.0
C419 C 0.1051 0.32378 0.21846 0.0
C420 C 0.16455 0.28481 0.21233 0.0
C421 C 0.19607 0.27267 0.16743 0.0
C422 C 0.01816 0.39423 0.18503 0.0
C423 C 0.19245 0.25402 0.25274 0.0
H424 H 0.07975 0.39924 0.37346 0.0
H425 H 0.9181 0.27686 0.32443 0.0
H426 H 0.21229 0.38049 0.28623 0.0
H427 H 0.15035 0.42755 0.26054 0.0
H428 H 0.17021 0.43549 0.32283 0.0
H429 H 0.91713 0.2371 0.24754 0.0
H430 H 0.95435 0.27855 0.20346 0.0
H431 H 0.01356 0.22733 0.22563 0.0
H432 H 0.09098 0.35799 0.10499 0.0
H433 H 0.24033 0.24191 0.16267 0.0
H434 H 0.03128 0.42415 0.21501 0.0
H435 H 0.96268 0.37492 0.19285 0.0
H436 H 0.01131 0.4162 0.15275 0.0
H437 H 0.20877 0.28261 0.28299 0.0
H438 H 0.2425 0.22772 0.24282 0.0
H439 H 0.1455 0.22812 0.26478 0.0
C440 C 0.88728 0.34958 0.63683 0.0
C441 C 0.82718 0.31209 0.62994 0.0
C442 C 0.92038 0.36058 0.68143 0.0
C443 C 0.89364 0.33264 0.71976 0.0
C444 C 0.8306 0.29672 0.71346 0.0
C445 C 0.79781 0.28718 0.6687 0.0
C446 C 0.98607 0.40029 0.68704 0.0
C447 C 0.80037 0.266 0.75338 0.0
C448 C 0.03237 0.29964 0.81553 0.0
C449 C 0.00765 0.33458 0.85368 0.0
C450 C 0.99715 0.29984 0.77142 0.0
C451 C 0.93616 0.33636 0.76507 0.0
C452 C 0.91323 0.37355 0.80282 0.0
C453 C 0.94882 0.37183 0.84689 0.0
C454 C 0.02313 0.25926 0.73219 0.0
C455 C 0.84982 0.41404 0.79704 0.0
H456 H 0.90967 0.36951 0.60713 0.0
H457 H 0.75119 0.25837 0.66377 0.0
H458 H 0.97691 0.42923 0.71831 0.0
H459 H 0.04003 0.37802 0.69276 0.0
H460 H 0.99347 0.42368 0.65559 0.0
H461 H 0.74715 0.24313 0.74368 0.0
H462 H 0.84447 0.23682 0.76367 0.0
H463 H 0.78832 0.29426 0.78468 0.0
H464 H 0.07708 0.27029 0.82069 0.0
H465 H 0.93024 0.39926 0.87623 0.0
H466 H 0.03788 0.28032 0.70042 0.0
H467 H 0.97574 0.23063 0.72247 0.0
H468 H 0.07378 0.23549 0.74222 0.0
H469 H 0.86053 0.43675 0.76559 0.0
H470 H 0.84399 0.44355 0.82831 0.0
H471 H 0.79456 0.39235 0.79139 0.0
C472 C 0.05797 0.69448 0.69064 0.0
C473 C 0.0328 0.65824 0.65356 0.0
C474 C 0.02408 0.6953 0.73527 0.0
C475 C 0.96401 0.65857 0.74317 0.0
C476 C 0.94196 0.61933 0.70685 0.0
C477 C 0.97621 0.61998 0.66226 0.0
C478 C 0.0492 0.73792 0.773 0.0
C479 C 0.87953 0.57858 0.71429 0.0
C480 C 0.90563 0.65441 0.87126 0.0
C481 C 0.8448 0.6917 0.8744 0.0
C482 C 0.94278 0.64088 0.82814 0.0
C483 C 0.91903 0.66578 0.78754 0.0
C484 C 0.85569 0.70173 0.79018 0.0
C485 C 0.81917 0.71404 0.8335 0.0
C486 C 0.00906 0.6015 0.8264 0.0
C487 C 0.82852 0.72919 0.74768 0.0
H488 H 0.10107 0.72452 0.68411 0.0
H489 H 0.95744 0.59148 0.63378 0.0
H490 H 0.00203 0.76747 0.78059 0.0
H491 H 0.06201 0.71902 0.80614 0.0
H492 H 0.10076 0.76043 0.76245 0.0
H493 H 0.8779 0.54563 0.68545 0.0
H494 H 0.88754 0.56018 0.74822 0.0
H495 H 0.82315 0.59941 0.71581 0.0
H496 H 0.92522 0.63653 0.90264 0.0
H497 H 0.77188 0.7426 0.83552 0.0
H498 H 0.06321 0.62348 0.82044 0.0
H499 H 0.00211 0.57022 0.79661 0.0
H500 H 0.01457 0.58091 0.85951 0.0
H501 H 0.87408 0.75652 0.73606 0.0
H502 H 0.77566 0.75351 0.75504 0.0
H503 H 0.81695 0.69855 0.71801 0.0
loop_
_geom_bond_atom_site_label_1
_geom_bond_atom_site_label_2
_geom_bond_distance
_geom_bond_site_symmetry_2
_ccdc_geom_bond_type
Co0 N5 2.057 . S
Co0 O17 2.021 . S
Co0 O20 2.062 . S
Co0 O24 2.117 . S
Co0 O25 2.020 1_556 S
C1 O21 1.272 . S
C1 O24 1.245 1_554 S
Co2 N11 2.057 . S
Co2 O18 2.117 . S
Co2 O19 2.020 1_554 S
Co2 O21 2.021 . S
Co2 O26 2.062 . S
C3 N5 1.316 . S
C3 N6 1.347 . S
C3 H8 0.931 . S
C4 N5 1.375 . S
C4 C7 1.350 . S
C4 H9 0.930 . S
N5 Co0 2.057 . S
N5 C3 1.316 . S
N5 C4 1.375 . S
N6 C3 1.347 . S
N6 C7 1.373 . S
C7 C4 1.350 . S
C7 N6 1.373 . S
C7 H28 0.931 1_455 S
H8 C3 0.931 . S
H9 C4 0.930 . S
C10 O17 1.269 . S
C10 O18 1.249 1_556 S
N11 Co2 2.057 . S
N11 C12 1.316 . S
N11 C13 1.375 . S
C12 N11 1.316 . S
C12 N14 1.347 . S
C12 H23 0.931 . S
C13 N11 1.375 . S
C13 C15 1.350 . S
C13 H22 0.930 . S
N14 C12 1.347 . S
N14 C15 1.373 . S
C15 C13 1.350 . S
C15 N14 1.373 . S
C15 H29 0.931 . S
C16 O19 1.256 . S
C16 O20 1.255 . S
O17 Co0 2.021 . S
O17 C10 1.269 . S
O18 Co2 2.117 . S
O18 C10 1.249 1_554 S
O19 Co2 2.020 1_556 S
O19 C16 1.256 . S
O20 Co0 2.062 . S
O20 C16 1.255 . S
O21 C1 1.272 . S
O21 Co2 2.021 . S
H22 C13 0.930 . S
H23 C12 0.931 . S
O24 Co0 2.117 . S
O24 C1 1.245 1_556 S
O25 Co0 2.020 1_554 S
O25 C27 1.256 . S
O26 Co2 2.062 . S
O26 C27 1.255 . S
C27 O25 1.256 . S
C27 O26 1.255 . S
H28 C7 0.931 1_655 S
H29 C15 0.931 . S
Co30 N35 2.057 . S
Co30 O47 2.021 . S
Co30 O50 2.062 . S
Co30 O54 2.117 . S
Co30 O55 2.020 1_556 S
C31 O51 1.272 . S
C31 O54 1.245 1_554 S
Co32 N41 2.057 . S
Co32 O48 2.117 . S
Co32 O49 2.020 1_554 S
Co32 O51 2.021 . S
Co32 O56 2.062 . S
C33 N35 1.316 . S
C33 N36 1.347 . S
C33 H38 0.931 . S
C34 N35 1.375 . S
C34 C37 1.350 . S
C34 H39 0.930 . S
N35 Co30 2.057 . S
N35 C33 1.316 . S
N35 C34 1.375 . S
N36 C33 1.347 . S
N36 C37 1.373 . S
C37 C34 1.350 . S
C37 N36 1.373 . S
C37 H58 0.931 . S
H38 C33 0.931 . S
H39 C34 0.930 . S
C40 O47 1.269 . S
C40 O48 1.249 1_556 S
N41 Co32 2.057 . S
N41 C42 1.316 . S
N41 C43 1.375 . S
C42 N41 1.316 . S
C42 N44 1.347 . S
C42 H53 0.931 . S
C43 N41 1.375 . S
C43 C45 1.350 . S
C43 H52 0.930 . S
N44 C42 1.347 . S
N44 C45 1.373 . S
C45 C43 1.350 . S
C45 N44 1.373 . S
C45 H59 0.931 1_655 S
C46 O49 1.256 . S
C46 O50 1.255 . S
O47 Co30 2.021 . S
O47 C40 1.269 . S
O48 Co32 2.117 . S
O48 C40 1.249 1_554 S
O49 Co32 2.020 1_556 S
O49 C46 1.256 . S
O50 Co30 2.062 . S
O50 C46 1.255 . S
O51 C31 1.272 . S
O51 Co32 2.021 . S
H52 C43 0.930 . S
H53 C42 0.931 . S
O54 Co30 2.117 . S
O54 C31 1.245 1_556 S
O55 Co30 2.020 1_554 S
O55 C57 1.256 . S
O56 Co32 2.062 . S
O56 C57 1.255 . S
C57 O55 1.256 . S
C57 O56 1.255 . S
H58 C37 0.931 . S
H59 C45 0.931 1_455 S
Co60 N65 2.057 . S
Co60 O77 2.021 . S
Co60 O80 2.062 . S
Co60 O84 2.117 . S
Co60 O85 2.020 . S
C61 O81 1.259 . S
C61 O84 1.258 . S
Co62 N71 2.057 . S
Co62 O78 2.117 . S
Co62 O79 2.020 . S
Co62 O81 2.021 . S
Co62 O86 2.062 . S
C63 N65 1.316 . S
C63 N66 1.347 . S
C63 H68 0.931 . S
C64 N65 1.375 . S
C64 C67 1.350 . S
C64 H69 0.930 . S
N65 Co60 2.057 . S
N65 C63 1.316 . S
N65 C64 1.375 . S
N66 C63 1.347 . S
N66 C67 1.373 . S
C67 C64 1.350 . S
C67 N66 1.373 . S
C67 H88 0.931 1_455 S
H68 C63 0.931 . S
H69 C64 0.930 . S
C70 O77 1.259 . S
C70 O78 1.258 . S
N71 Co62 2.057 . S
N71 C72 1.316 . S
N71 C73 1.375 . S
C72 N71 1.316 . S
C72 N74 1.347 . S
C72 H83 0.931 . S
C73 N71 1.375 . S
C73 C75 1.350 . S
C73 H82 0.930 . S
N74 C72 1.347 . S
N74 C75 1.373 . S
C75 C73 1.350 . S
C75 N74 1.373 . S
C75 H89 0.931 . S
C76 O79 1.256 . S
C76 O80 1.255 . S
O77 Co60 2.021 . S
O77 C70 1.259 . S
O78 Co62 2.117 . S
O78 C70 1.258 . S
O79 Co62 2.020 . S
O79 C76 1.256 . S
O80 Co60 2.062 . S
O80 C76 1.255 . S
O81 C61 1.259 . S
O81 Co62 2.021 . S
H82 C73 0.930 . S
H83 C72 0.931 . S
O84 Co60 2.117 . S
O84 C61 1.258 . S
O85 Co60 2.020 . S
O85 C87 1.256 . S
O86 Co62 2.062 . S
O86 C87 1.255 . S
C87 O85 1.256 . S
C87 O86 1.255 . S
H88 C67 0.931 1_655 S
H89 C75 0.931 . S
Co90 N95 2.057 . S
Co90 O107 2.021 . S
Co90 O110 2.062 . S
Co90 O114 2.117 . S
Co90 O115 2.020 . S
C91 O111 1.259 . S
C91 O114 1.258 . S
Co92 N101 2.057 . S
Co92 O108 2.117 . S
Co92 O109 2.020 . S
Co92 O111 2.021 . S
Co92 O116 2.062 . S
C93 N95 1.316 . S
C93 N96 1.347 . S
C93 H98 0.931 . S
C94 N95 1.375 . S
C94 C97 1.350 . S
C94 H99 0.930 . S
N95 Co90 2.057 . S
N95 C93 1.316 . S
N95 C94 1.375 . S
N96 C93 1.347 . S
N96 C97 1.373 . S
C97 C94 1.350 . S
C97 N96 1.373 . S
C97 H118 0.931 . S
H98 C93 0.931 . S
H99 C94 0.930 . S
C100 O107 1.259 . S
C100 O108 1.258 . S
N101 Co92 2.057 . S
N101 C102 1.316 . S
N101 C103 1.375 . S
C102 N101 1.316 . S
C102 N104 1.347 . S
C102 H113 0.931 . S
C103 N101 1.375 . S
C103 C105 1.350 . S
C103 H112 0.930 . S
N104 C102 1.347 . S
N104 C105 1.373 . S
C105 C103 1.350 . S
C105 N104 1.373 . S
C105 H119 0.931 1_655 S
C106 O109 1.256 . S
C106 O110 1.255 . S
O107 Co90 2.021 . S
O107 C100 1.259 . S
O108 Co92 2.117 . S
O108 C100 1.258 . S
O109 Co92 2.020 . S
O109 C106 1.256 . S
O110 Co90 2.062 . S
O110 C106 1.255 . S
O111 C91 1.259 . S
O111 Co92 2.021 . S
H112 C103 0.930 . S
H113 C102 0.931 . S
O114 Co90 2.117 . S
O114 C91 1.258 . S
O115 Co90 2.020 . S
O115 C117 1.256 . S
O116 Co92 2.062 . S
O116 C117 1.255 . S
C117 O115 1.256 . S
C117 O116 1.255 . S
H118 C97 0.931 . S
H119 C105 0.931 1_455 S
C120 C121 1.374 1_556 S
C120 C122 1.394 . S
C120 H136 0.931 . S
C121 C120 1.374 1_554 S
C121 C125 1.395 . S
C122 C120 1.394 . S
C122 C123 1.369 1_556 S
C122 C126 1.531 . S
C123 C122 1.369 1_554 S
C123 C124 1.410 . S
C123 C131 1.503 . S
C124 C123 1.410 . S
C124 C125 1.392 . S
C124 C127 1.511 . S
C125 C121 1.395 . S
C125 C124 1.392 . S
C125 H137 0.929 . S
C126 C122 1.531 . S
C126 H138 0.960 . S
C126 H139 0.962 . S
C126 H140 0.960 . S
C127 C124 1.511 . S
C127 H141 0.961 . S
C127 H142 0.961 . S
C127 H143 0.961 . S
C128 C129 1.370 1_556 S
C128 C130 1.363 . S
C128 H144 0.931 . S
C129 C128 1.370 1_554 S
C129 C133 1.408 . S
C130 C128 1.363 . S
C130 C131 1.370 1_556 S
C130 C134 1.524 . S
C131 C123 1.503 . S
C131 C130 1.370 1_554 S
C131 C132 1.403 . S
C132 C131 1.403 . S
C132 C133 1.404 . S
C132 C135 1.539 . S
C133 C129 1.408 . S
C133 C132 1.404 . S
C133 H145 0.930 . S
C134 C130 1.524 . S
C134 H146 0.956 . S
C134 H147 0.961 . S
C134 H148 0.961 . S
C135 C132 1.539 . S
C135 H149 0.958 . S
C135 H150 0.961 . S
C135 H151 0.960 . S
H136 C120 0.931 . S
H137 C125 0.929 . S
H138 C126 0.960 . S
H139 C126 0.962 . S
H140 C126 0.960 . S
H141 C127 0.961 . S
H142 C127 0.961 . S
H143 C127 0.961 . S
H144 C128 0.931 . S
H145 C133 0.930 . S
H146 C134 0.956 . S
H147 C134 0.961 . S
H148 C134 0.961 . S
H149 C135 0.958 . S
H150 C135 0.961 . S
H151 C135 0.960 . S
C152 C153 1.391 . S
C152 C154 1.394 . S
C152 H168 0.931 . S
C153 C152 1.391 . S
C153 C157 1.376 . S
C154 C152 1.394 . S
C154 C155 1.369 . S
C154 C158 1.531 . S
C155 C154 1.369 . S
C155 C156 1.410 . S
C155 C163 1.503 . S
C156 C155 1.410 . S
C156 C157 1.392 . S
C156 C159 1.511 . S
C157 C153 1.376 . S
C157 C156 1.392 . S
C157 H169 0.929 . S
C158 C154 1.531 . S
C158 H170 0.960 . S
C158 H171 0.962 . S
C158 H172 0.960 . S
C159 C156 1.511 . S
C159 H173 0.961 . S
C159 H174 0.961 . S
C159 H175 0.961 . S
C160 C161 1.370 . S
C160 C162 1.363 . S
C160 H176 0.931 . S
C161 C160 1.370 . S
C161 C165 1.408 . S
C162 C160 1.363 . S
C162 C163 1.370 . S
C162 C166 1.524 . S
C163 C155 1.503 . S
C163 C162 1.370 . S
C163 C164 1.403 . S
C164 C163 1.403 . S
C164 C165 1.404 . S
C164 C167 1.539 . S
C165 C161 1.408 . S
C165 C164 1.404 . S
C165 H177 0.930 . S
C166 C162 1.524 . S
C166 H178 0.956 . S
C166 H179 0.961 . S
C166 H180 0.961 . S
C167 C164 1.539 . S
C167 H181 0.958 . S
C167 H182 0.961 . S
C167 H183 0.960 . S
H168 C152 0.931 . S
H169 C157 0.929 . S
H170 C158 0.960 . S
H171 C158 0.962 . S
H172 C158 0.960 . S
H173 C159 0.961 . S
H174 C159 0.961 . S
H175 C159 0.961 . S
H176 C160 0.931 . S
H177 C165 0.930 . S
H178 C166 0.956 . S
H179 C166 0.961 . S
H180 C166 0.961 . S
H181 C167 0.958 . S
H182 C167 0.961 . S
H183 C167 0.960 . S
C184 C185 1.391 . S
C184 C186 1.394 . S
C184 H200 0.931 . S
C185 C184 1.391 . S
C185 C189 1.376 . S
C186 C184 1.394 . S
C186 C187 1.369 . S
C186 C190 1.531 1_545 S
C187 C186 1.369 . S
C187 C188 1.410 . S
C187 C195 1.503 1_445 S
C188 C187 1.410 . S
C188 C189 1.392 . S
C188 C191 1.511 1_455 S
C189 C185 1.376 . S
C189 C188 1.392 . S
C189 H201 0.929 . S
C190 C186 1.531 1_565 S
C190 H202 0.960 . S
C190 H203 0.962 1_554 S
C190 H204 0.960 . S
C191 C188 1.511 1_655 S
C191 H205 0.961 1_554 S
C191 H206 0.961 1_554 S
C191 H207 0.961 . S
C192 C193 1.370 1_556 S
C192 C194 1.363 . S
C192 H208 0.931 . S
C193 C192 1.370 1_554 S
C193 C197 1.408 . S
C194 C192 1.363 . S
C194 C195 1.370 1_556 S
C194 C198 1.524 . S
C195 C187 1.503 1_665 S
C195 C194 1.370 1_554 S
C195 C196 1.403 . S
C196 C195 1.403 . S
C196 C197 1.404 . S
C196 C199 1.539 . S
C197 C193 1.408 . S
C197 C196 1.404 . S
C197 H209 0.930 . S
C198 C194 1.524 . S
C198 H210 0.956 1_655 S
C198 H211 0.961 1_565 S
C198 H212 0.961 . S
C199 C196 1.539 . S
C199 H213 0.958 . S
C199 H214 0.961 . S
C199 H215 0.960 1_565 S
H200 C184 0.931 . S
H201 C189 0.929 . S
H202 C190 0.960 . S
H203 C190 0.962 1_556 S
H204 C190 0.960 . S
H205 C191 0.961 1_556 S
H206 C191 0.961 1_556 S
H207 C191 0.961 . S
H208 C192 0.931 . S
H209 C197 0.930 . S
H210 C198 0.956 1_455 S
H211 C198 0.961 1_545 S
H212 C198 0.961 . S
H213 C199 0.958 . S
H214 C199 0.961 . S
H215 C199 0.960 1_545 S
C216 C217 1.391 . S
C216 C218 1.394 . S
C216 H232 0.931 . S
C217 C216 1.391 . S
C217 C221 1.376 . S
C218 C216 1.394 . S
C218 C219 1.369 . S
C218 C222 1.531 1_655 S
C219 C218 1.369 . S
C219 C220 1.410 . S
C219 C227 1.503 1_645 S
C220 C219 1.410 . S
C220 C221 1.392 . S
C220 C223 1.511 1_545 S
C221 C217 1.376 . S
C221 C220 1.392 . S
C221 H233 0.929 . S
C222 C218 1.531 1_455 S
C222 H234 0.960 . S
C222 H235 0.962 . S
C222 H236 0.960 . S
C223 C220 1.511 1_565 S
C223 H237 0.961 . S
C223 H238 0.961 . S
C223 H239 0.961 . S
C224 C225 1.370 . S
C224 C226 1.363 . S
C224 H240 0.931 . S
C225 C224 1.370 . S
C225 C229 1.408 . S
C226 C224 1.363 . S
C226 C227 1.370 . S
C226 C230 1.524 1_455 S
C227 C219 1.503 1_465 S
C227 C226 1.370 . S
C227 C228 1.403 . S
C228 C227 1.403 . S
C228 C229 1.404 . S
C228 C231 1.539 1_565 S
C229 C225 1.408 . S
C229 C228 1.404 . S
C229 H241 0.930 . S
C230 C226 1.524 1_655 S
C230 H242 0.956 . S
C230 H243 0.961 . S
C230 H244 0.961 . S
C231 C228 1.539 1_545 S
C231 H245 0.958 . S
C231 H246 0.961 1_545 S
C231 H247 0.960 . S
H232 C216 0.931 . S
H233 C221 0.929 . S
H234 C222 0.960 . S
H235 C222 0.962 . S
H236 C222 0.960 . S
H237 C223 0.961 . S
H238 C223 0.961 . S
H239 C223 0.961 . S
H240 C224 0.931 . S
H241 C229 0.930 . S
H242 C230 0.956 . S
H243 C230 0.961 . S
H244 C230 0.961 . S
H245 C231 0.958 . S
H246 C231 0.961 1_565 S
H247 C231 0.960 . S
C248 C249 1.391 . S
C248 C250 1.394 . S
C248 H264 0.931 . S
C249 C248 1.391 . S
C249 C253 1.376 . S
C250 C248 1.394 . S
C250 C251 1.369 . S
C250 C254 1.531 . S
C251 C250 1.369 . S
C251 C252 1.410 . S
C251 C259 1.503 . S
C252 C251 1.410 . S
C252 C253 1.392 . S
C252 C255 1.511 . S
C253 C249 1.376 . S
C253 C252 1.392 . S
C253 H265 0.929 . S
C254 C250 1.531 . S
C254 H266 0.960 . S
C254 H267 0.962 . S
C254 H268 0.960 . S
C255 C252 1.511 . S
C255 H269 0.961 . S
C255 H270 0.961 . S
C255 H271 0.961 . S
C256 C257 1.370 . S
C256 C258 1.363 . S
C256 H272 0.931 . S
C257 C256 1.370 . S
C257 C261 1.408 . S
C258 C256 1.363 . S
C258 C259 1.370 . S
C258 C262 1.524 . S
C259 C251 1.503 . S
C259 C258 1.370 . S
C259 C260 1.403 . S
C260 C259 1.403 . S
C260 C261 1.404 . S
C260 C263 1.539 . S
C261 C257 1.408 . S
C261 C260 1.404 . S
C261 H273 0.930 . S
C262 C258 1.524 . S
C262 H274 0.956 . S
C262 H275 0.961 . S
C262 H276 0.961 . S
C263 C260 1.539 . S
C263 H277 0.958 . S
C263 H278 0.961 . S
C263 H279 0.960 . S
H264 C248 0.931 . S
H265 C253 0.929 . S
H266 C254 0.960 . S
H267 C254 0.962 . S
H268 C254 0.960 . S
H269 C255 0.961 . S
H270 C255 0.961 . S
H271 C255 0.961 . S
H272 C256 0.931 . S
H273 C261 0.930 . S
H274 C262 0.956 . S
H275 C262 0.961 . S
H276 C262 0.961 . S
H277 C263 0.958 . S
H278 C263 0.961 . S
H279 C263 0.960 . S
C280 C281 1.391 . S
C280 C282 1.394 . S
C280 H296 0.931 . S
C281 C280 1.391 . S
C281 C285 1.376 . S
C282 C280 1.394 . S
C282 C283 1.369 . S
C282 C286 1.531 . S
C283 C282 1.369 . S
C283 C284 1.410 . S
C283 C291 1.503 . S
C284 C283 1.410 . S
C284 C285 1.392 . S
C284 C287 1.511 . S
C285 C281 1.376 . S
C285 C284 1.392 . S
C285 H297 0.929 . S
C286 C282 1.531 . S
C286 H298 0.960 . S
C286 H299 0.962 . S
C286 H300 0.960 . S
C287 C284 1.511 . S
C287 H301 0.961 . S
C287 H302 0.961 . S
C287 H303 0.961 . S
C288 C289 1.370 . S
C288 C290 1.363 . S
C288 H304 0.931 . S
C289 C288 1.370 . S
C289 C293 1.408 . S
C290 C288 1.363 . S
C290 C291 1.370 . S
C290 C294 1.524 . S
C291 C283 1.503 . S
C291 C290 1.370 . S
C291 C292 1.403 . S
C292 C291 1.403 . S
C292 C293 1.404 . S
C292 C295 1.539 . S
C293 C289 1.408 . S
C293 C292 1.404 . S
C293 H305 0.930 . S
C294 C290 1.524 . S
C294 H306 0.956 . S
C294 H307 0.961 . S
C294 H308 0.961 . S
C295 C292 1.539 . S
C295 H309 0.958 . S
C295 H310 0.961 . S
C295 H311 0.960 . S
H296 C280 0.931 . S
H297 C285 0.929 . S
H298 C286 0.960 . S
H299 C286 0.962 . S
H300 C286 0.960 . S
H301 C287 0.961 . S
H302 C287 0.961 . S
H303 C287 0.961 . S
H304 C288 0.931 . S
H305 C293 0.930 . S
H306 C294 0.956 . S
H307 C294 0.961 . S
H308 C294 0.961 . S
H309 C295 0.958 . S
H310 C295 0.961 . S
H311 C295 0.960 . S
C312 C313 1.391 . S
C312 C314 1.394 . S
C312 H328 0.931 . S
C313 C312 1.391 . S
C313 C317 1.376 . S
C314 C312 1.394 . S
C314 C315 1.369 . S
C314 C318 1.531 . S
C315 C314 1.369 . S
C315 C316 1.410 . S
C315 C323 1.503 . S
C316 C315 1.410 . S
C316 C317 1.392 . S
C316 C319 1.511 . S
C317 C313 1.376 . S
C317 C316 1.392 . S
C317 H329 0.929 . S
C318 C314 1.531 . S
C318 H330 0.960 . S
C318 H331 0.962 . S
C318 H332 0.960 . S
C319 C316 1.511 . S
C319 H333 0.961 . S
C319 H334 0.961 . S
C319 H335 0.961 . S
C320 C321 1.370 . S
C320 C322 1.363 . S
C320 H336 0.931 . S
C321 C320 1.370 . S
C321 C325 1.408 . S
C322 C320 1.363 . S
C322 C323 1.370 . S
C322 C326 1.524 . S
C323 C315 1.503 . S
C323 C322 1.370 . S
C323 C324 1.403 . S
C324 C323 1.403 . S
C324 C325 1.404 . S
C324 C327 1.539 . S
C325 C321 1.408 . S
C325 C324 1.404 . S
C325 H337 0.930 . S
C326 C322 1.524 . S
C326 H338 0.956 . S
C326 H339 0.961 . S
C326 H340 0.961 . S
C327 C324 1.539 . S
C327 H341 0.958 . S
C327 H342 0.961 . S
C327 H343 0.960 . S
H328 C312 0.931 . S
H329 C317 0.929 . S
H330 C318 0.960 . S
H331 C318 0.962 . S
H332 C318 0.960 . S
H333 C319 0.961 . S
H334 C319 0.961 . S
H335 C319 0.961 . S
H336 C320 0.931 . S
H337 C325 0.930 . S
H338 C326 0.956 . S
H339 C326 0.961 . S
H340 C326 0.961 . S
H341 C327 0.958 . S
H342 C327 0.961 . S
H343 C327 0.960 . S
C344 C345 1.391 . S
C344 C346 1.394 . S
C344 H360 0.931 . S
C345 C344 1.391 . S
C345 C349 1.376 . S
C346 C344 1.394 . S
C346 C347 1.369 . S
C346 C350 1.531 . S
C347 C346 1.369 . S
C347 C348 1.410 . S
C347 C355 1.503 . S
C348 C347 1.410 . S
C348 C349 1.392 . S
C348 C351 1.511 . S
C349 C345 1.376 . S
C349 C348 1.392 . S
C349 H361 0.929 . S
C350 C346 1.531 . S
C350 H362 0.960 . S
C350 H363 0.962 . S
C350 H364 0.960 . S
C351 C348 1.511 . S
C351 H365 0.961 . S
C351 H366 0.961 . S
C351 H367 0.961 . S
C352 C353 1.370 . S
C352 C354 1.363 . S
C352 H368 0.931 . S
C353 C352 1.370 . S
C353 C357 1.408 . S
C354 C352 1.363 . S
C354 C355 1.370 . S
C354 C358 1.524 . S
C355 C347 1.503 . S
C355 C354 1.370 . S
C355 C356 1.403 . S
C356 C355 1.403 . S
C356 C357 1.404 . S
C356 C359 1.539 . S
C357 C353 1.408 . S
C357 C356 1.404 . S
C357 H369 0.930 . S
C358 C354 1.524 . S
C358 H370 0.956 . S
C358 H371 0.961 . S
C358 H372 0.961 . S
C359 C356 1.539 . S
C359 H373 0.958 . S
C359 H374 0.961 . S
C359 H375 0.960 . S
H360 C344 0.931 . S
H361 C349 0.929 . S
H362 C350 0.960 . S
H363 C350 0.962 . S
H364 C350 0.960 . S
H365 C351 0.961 . S
H366 C351 0.961 . S
H367 C351 0.961 . S
H368 C352 0.931 . S
H369 C357 0.930 . S
H370 C358 0.956 . S
H371 C358 0.961 . S
H372 C358 0.961 . S
H373 C359 0.958 . S
H374 C359 0.961 . S
H375 C359 0.960 . S
C376 C377 1.391 . S
C376 C378 1.394 . S
C376 H392 0.931 . S
C377 C376 1.391 . S
C377 C381 1.376 1_655 S
C378 C376 1.394 . S
C378 C379 1.369 1_655 S
C378 C382 1.531 . S
C379 C378 1.369 1_455 S
C379 C380 1.410 . S
C379 C387 1.503 . S
C380 C379 1.410 . S
C380 C381 1.392 . S
C380 C383 1.511 . S
C381 C377 1.376 1_455 S
C381 C380 1.392 . S
C381 H393 0.929 . S
C382 C378 1.531 . S
C382 H394 0.960 . S
C382 H395 0.962 . S
C382 H396 0.960 . S
C383 C380 1.511 . S
C383 H397 0.961 . S
C383 H398 0.961 . S
C383 H399 0.961 . S
C384 C385 1.370 . S
C384 C386 1.363 . S
C384 H400 0.931 . S
C385 C384 1.370 . S
C385 C389 1.408 . S
C386 C384 1.363 . S
C386 C387 1.370 . S
C386 C390 1.524 1_455 S
C387 C379 1.503 . S
C387 C386 1.370 . S
C387 C388 1.403 . S
C388 C387 1.403 . S
C388 C389 1.404 . S
C388 C391 1.539 . S
C389 C385 1.408 . S
C389 C388 1.404 . S
C389 H401 0.930 . S
C390 C386 1.524 1_655 S
C390 H402 0.956 . S
C390 H403 0.961 1_655 S
C390 H404 0.961 . S
C391 C388 1.539 . S
C391 H405 0.958 . S
C391 H406 0.961 . S
C391 H407 0.960 . S
H392 C376 0.931 . S
H393 C381 0.929 . S
H394 C382 0.960 . S
H395 C382 0.962 . S
H396 C382 0.960 . S
H397 C383 0.961 . S
H398 C383 0.961 . S
H399 C383 0.961 . S
H400 C384 0.931 . S
H401 C389 0.930 . S
H402 C390 0.956 . S
H403 C390 0.961 1_455 S
H404 C390 0.961 . S
H405 C391 0.958 . S
H406 C391 0.961 . S
H407 C391 0.960 . S
C408 C409 1.391 1_455 S
C408 C410 1.394 . S
C408 H424 0.931 . S
C409 C408 1.391 1_655 S
C409 C413 1.376 . S
C410 C408 1.394 . S
C410 C411 1.369 . S
C410 C414 1.531 . S
C411 C410 1.369 . S
C411 C412 1.410 1_455 S
C411 C419 1.503 . S
C412 C411 1.410 1_655 S
C412 C413 1.392 . S
C412 C415 1.511 . S
C413 C409 1.376 . S
C413 C412 1.392 . S
C413 H425 0.929 . S
C414 C410 1.531 . S
C414 H426 0.960 . S
C414 H427 0.962 . S
C414 H428 0.960 . S
C415 C412 1.511 . S
C415 H429 0.961 . S
C415 H430 0.961 . S
C415 H431 0.961 . S
C416 C417 1.370 . S
C416 C418 1.363 . S
C416 H432 0.931 . S
C417 C416 1.370 . S
C417 C421 1.408 . S
C418 C416 1.363 . S
C418 C419 1.370 . S
C418 C422 1.524 . S
C419 C411 1.503 . S
C419 C418 1.370 . S
C419 C420 1.403 . S
C420 C419 1.403 . S
C420 C421 1.404 . S
C420 C423 1.539 . S
C421 C417 1.408 . S
C421 C420 1.404 . S
C421 H433 0.930 . S
C422 C418 1.524 . S
C422 H434 0.956 . S
C422 H435 0.961 . S
C422 H436 0.961 . S
C423 C420 1.539 . S
C423 H437 0.958 . S
C423 H438 0.961 . S
C423 H439 0.960 . S
H424 C408 0.931 . S
H425 C413 0.929 . S
H426 C414 0.960 . S
H427 C414 0.962 . S
H428 C414 0.960 . S
H429 C415 0.961 . S
H430 C415 0.961 . S
H431 C415 0.961 . S
H432 C416 0.931 . S
H433 C421 0.930 . S
H434 C422 0.956 . S
H435 C422 0.961 . S
H436 C422 0.961 . S
H437 C423 0.958 . S
H438 C423 0.961 . S
H439 C423 0.960 . S
C440 C441 1.391 . S
C440 C442 1.394 . S
C440 H456 0.931 . S
C441 C440 1.391 . S
C441 C445 1.376 . S
C442 C440 1.394 . S
C442 C443 1.369 . S
C442 C446 1.531 1_655 S
C443 C442 1.369 . S
C443 C444 1.410 . S
C443 C451 1.503 . S
C444 C443 1.410 . S
C444 C445 1.392 . S
C444 C447 1.511 . S
C445 C441 1.376 . S
C445 C444 1.392 . S
C445 H457 0.929 . S
C446 C442 1.531 1_455 S
C446 H458 0.960 . S
C446 H459 0.962 . S
C446 H460 0.960 . S
C447 C444 1.511 . S
C447 H461 0.961 . S
C447 H462 0.961 . S
C447 H463 0.961 . S
C448 C449 1.370 . S
C448 C450 1.363 . S
C448 H464 0.931 . S
C449 C448 1.370 . S
C449 C453 1.408 1_455 S
C450 C448 1.363 . S
C450 C451 1.370 1_455 S
C450 C454 1.524 . S
C451 C443 1.503 . S
C451 C450 1.370 1_655 S
C451 C452 1.403 . S
C452 C451 1.403 . S
C452 C453 1.404 . S
C452 C455 1.539 . S
C453 C449 1.408 1_655 S
C453 C452 1.404 . S
C453 H465 0.930 . S
C454 C450 1.524 . S
C454 H466 0.956 . S
C454 H467 0.961 1_455 S
C454 H468 0.961 . S
C455 C452 1.539 . S
C455 H469 0.958 . S
C455 H470 0.961 . S
C455 H471 0.960 . S
H456 C440 0.931 . S
H457 C445 0.929 . S
H458 C446 0.960 . S
H459 C446 0.962 . S
H460 C446 0.960 . S
H461 C447 0.961 . S
H462 C447 0.961 . S
H463 C447 0.961 . S
H464 C448 0.931 . S
H465 C453 0.930 . S
H466 C454 0.956 . S
H467 C454 0.961 1_655 S
H468 C454 0.961 . S
H469 C455 0.958 . S
H470 C455 0.961 . S
H471 C455 0.960 . S
C472 C473 1.391 . S
C472 C474 1.394 . S
C472 H488 0.931 . S
C473 C472 1.391 . S
C473 C477 1.376 1_455 S
C474 C472 1.394 . S
C474 C475 1.369 1_455 S
C474 C478 1.531 . S
C475 C474 1.369 1_655 S
C475 C476 1.410 . S
C475 C483 1.503 . S
C476 C475 1.410 . S
C476 C477 1.392 . S
C476 C479 1.511 . S
C477 C473 1.376 1_655 S
C477 C476 1.392 . S
C477 H489 0.929 . S
C478 C474 1.531 . S
C478 H490 0.960 . S
C478 H491 0.962 . S
C478 H492 0.960 . S
C479 C476 1.511 . S
C479 H493 0.961 . S
C479 H494 0.961 . S
C479 H495 0.961 . S
C480 C481 1.370 . S
C480 C482 1.363 . S
C480 H496 0.931 . S
C481 C480 1.370 . S
C481 C485 1.408 . S
C482 C480 1.363 . S
C482 C483 1.370 . S
C482 C486 1.524 1_655 S
C483 C475 1.503 . S
C483 C482 1.370 . S
C483 C484 1.403 . S
C484 C483 1.403 . S
C484 C485 1.404 . S
C484 C487 1.539 . S
C485 C481 1.408 . S
C485 C484 1.404 . S
C485 H497 0.930 . S
C486 C482 1.524 1_455 S
C486 H498 0.956 . S
C486 H499 0.961 1_455 S
C486 H500 0.961 . S
C487 C484 1.539 . S
C487 H501 0.958 . S
C487 H502 0.961 . S
C487 H503 0.960 . S
H488 C472 0.931 . S
H489 C477 0.929 . S
H490 C478 0.960 . S
H491 C478 0.962 . S
H492 C478 0.960 . S
H493 C479 0.961 . S
H494 C479 0.961 . S
H495 C479 0.961 . S
H496 C480 0.931 . S
H497 C485 0.930 . S
H498 C486 0.956 . S
H499 C486 0.961 1_655 S
H500 C486 0.961 . S
H501 C487 0.958 . S
H502 C487 0.961 . S
H503 C487 0.960 . S
C121 C31 1.666 . S
C129 C10 1.653 1_554 S
C153 C70 1.668 . S
C161 C91 1.651 . S
C185 C1 1.651 . S
C193 C40 1.660 1_554 S
C217 C100 1.644 . S
C225 C61 1.660 . S
C249 C117 1.011 . S
C257 N14 0.981 . S
C281 C57 1.013 . S
C289 N74 0.976 . S
C313 N36 0.998 . S
C321 C76 1.001 . S
C345 N96 1.009 . S
C353 C16 1.001 . S
C377 N44 1.001 . S
C385 C87 0.983 . S
C409 N104 0.912 . S
C417 C27 0.981 . S
C441 C106 0.987 . S
C449 N6 0.981 . S
C473 N66 0.917 . S
C481 C46 0.978 . S
