# Generated by pormake.
# Topology uoi, (4)-cn, num edge types: 1
# Building blocks:
#     Node 0, Type 0, BuildingBlock: GALJAG_clean_sbu_0, # of connection points: 4
#     Node 1, Type 0, BuildingBlock: GALJAG_clean_sbu_0, # of connection points: 4
#     Node 2, Type 0, BuildingBlock: GALJAG_clean_sbu_0, # of connection points: 4
#     Node 3, Type 0, BuildingBlock: GALJAG_clean_sbu_0, # of connection points: 4
#     Node 4, Type 0, BuildingBlock: GALJAG_clean_sbu_0, # of connection points: 4
#     Node 5, Type 0, BuildingBlock: GALJAG_clean_sbu_0, # of connection points: 4
#     Node 6, Type 0, BuildingBlock: GALJAG_clean_sbu_0, # of connection points: 4
#     Node 7, Type 0, BuildingBlock: GALJAG_clean_sbu_0, # of connection points: 4
#     Node 8, Type 0, BuildingBlock: GALJAG_clean_sbu_0, # of connection points: 4
#     Node 9, Type 0, BuildingBlock: GALJAG_clean_sbu_0, # of connection points: 4
#     Node 10, Type 0, BuildingBlock: GALJAG_clean_sbu_0, # of connection points: 4
#     Node 11, Type 0, BuildingBlock: GALJAG_clean_sbu_0, # of connection points: 4
#     Node 12, Type 0, BuildingBlock: GALJAG_clean_sbu_0, # of connection points: 4
#     Node 13, Type 0, BuildingBlock: GALJAG_clean_sbu_0, # of connection points: 4
#     Node 14, Type 0, BuildingBlock: GALJAG_clean_sbu_0, # of connection points: 4
#     Node 15, Type 0, BuildingBlock: GALJAG_clean_sbu_0, # of connection points: 4
#     Node 16, Type 0, BuildingBlock: GALJAG_clean_sbu_0, # of connection points: 4
#     Node 17, Type 0, BuildingBlock: GALJAG_clean_sbu_0, # of connection points: 4
#     Node 18, Type 0, BuildingBlock: GALJAG_clean_sbu_0, # of connection points: 4
#     Node 19, Type 0, BuildingBlock: GALJAG_clean_sbu_0, # of connection points: 4
#     Node 20, Type 0, BuildingBlock: GALJAG_clean_sbu_0, # of connection points: 4
#     Node 21, Type 0, BuildingBlock: GALJAG_clean_sbu_0, # of connection points: 4
#     Node 22, Type 0, BuildingBlock: GALJAG_clean_sbu_0, # of connection points: 4
#     Node 23, Type 0, BuildingBlock: GALJAG_clean_sbu_0, # of connection points: 4
#     Node 24, Type 0, BuildingBlock: GALJAG_clean_sbu_0, # of connection points: 4
#     Node 25, Type 0, BuildingBlock: GALJAG_clean_sbu_0, # of connection points: 4
#     Node 26, Type 0, BuildingBlock: GALJAG_clean_sbu_0, # of connection points: 4
#     Node 27, Type 0, BuildingBlock: GALJAG_clean_sbu_0, # of connection points: 4
#     Node 28, Type 0, BuildingBlock: GALJAG_clean_sbu_0, # of connection points: 4
#     Node 29, Type 0, BuildingBlock: GALJAG_clean_sbu_0, # of connection points: 4
#     Node 30, Type 0, BuildingBlock: GALJAG_clean_sbu_0, # of connection points: 4
#     Node 31, Type 0, BuildingBlock: GALJAG_clean_sbu_0, # of connection points: 4
#     Edge 32, Type (0, 0), None
#     Edge 33, Type (0, 0), None
#     Edge 34, Type (0, 0), None
#     Edge 35, Type (0, 0), None
#     Edge 36, Type (0, 0), None
#     Edge 37, Type (0, 0), None
#     Edge 38, Type (0, 0), None
#     Edge 39, Type (0, 0), None
#     Edge 40, Type (0, 0), None
#     Edge 41, Type (0, 0), None
#     Edge 42, Type (0, 0), None
#     Edge 43, Type (0, 0), None
#     Edge 44, Type (0, 0), None
#     Edge 45, Type (0, 0), None
#     Edge 46, Type (0, 0), None
#     Edge 47, Type (0, 0), None
#     Edge 48, Type (0, 0), None
#     Edge 49, Type (0, 0), None
#     Edge 50, Type (0, 0), None
#     Edge 51, Type (0, 0), None
#     Edge 52, Type (0, 0), None
#     Edge 53, Type (0, 0), None
#     Edge 54, Type (0, 0), None
#     Edge 55, Type (0, 0), None
#     Edge 56, Type (0, 0), None
#     Edge 57, Type (0, 0), None
#     Edge 58, Type (0, 0), None
#     Edge 59, Type (0, 0), None
#     Edge 60, Type (0, 0), None
#     Edge 61, Type (0, 0), None
#     Edge 62, Type (0, 0), None
#     Edge 63, Type (0, 0), None
#     Edge 64, Type (0, 0), None
#     Edge 65, Type (0, 0), None
#     Edge 66, Type (0, 0), None
#     Edge 67, Type (0, 0), None
#     Edge 68, Type (0, 0), None
#     Edge 69, Type (0, 0), None
#     Edge 70, Type (0, 0), None
#     Edge 71, Type (0, 0), None
#     Edge 72, Type (0, 0), None
#     Edge 73, Type (0, 0), None
#     Edge 74, Type (0, 0), None
#     Edge 75, Type (0, 0), None
#     Edge 76, Type (0, 0), None
#     Edge 77, Type (0, 0), None
#     Edge 78, Type (0, 0), None
#     Edge 79, Type (0, 0), None
#     Edge 80, Type (0, 0), None
#     Edge 81, Type (0, 0), None
#     Edge 82, Type (0, 0), None
#     Edge 83, Type (0, 0), None
#     Edge 84, Type (0, 0), None
#     Edge 85, Type (0, 0), None
#     Edge 86, Type (0, 0), None
#     Edge 87, Type (0, 0), None
#     Edge 88, Type (0, 0), None
#     Edge 89, Type (0, 0), None
#     Edge 90, Type (0, 0), None
#     Edge 91, Type (0, 0), None
#     Edge 92, Type (0, 0), None
#     Edge 93, Type (0, 0), None
#     Edge 94, Type (0, 0), None
#     Edge 95, Type (0, 0), None
# Relax obj value: 0.180
# Max RMSD: 0.416
# Mean RMSD: 0.267
data_MOF--net-uoi--node1-GALJAG_clean_sbu_0--edge1-none
_symmetry_space_group_name_H-M    P1
_symmetry_Int_Tables_number       1
_symmetry_cell_setting            triclinic
loop_
_symmetry_equiv_pos_as_xyz
'x, y, z'
_cell_length_a     20.02868
_cell_length_b     30.828144
_cell_length_c     10.524397
_cell_angle_alpha  89.993957
_cell_angle_beta   89.99938
_cell_angle_gamma 89.997086
loop_
_atom_site_label
_atom_site_type_symbol
_atom_site_fract_x
_atom_site_fract_y
_atom_site_fract_z
_atom_type_partial_charge
In0 In 0.34872 0.2031 0.25318 0.0
O1 O 0.24939 0.19095 0.15137 0.0
O2 O 0.30879 0.13612 0.2041 0.0
C3 C 0.41555 0.24974 0.42155 0.0
C4 C 0.40717 0.23737 0.05044 0.0
C5 C 0.2712 0.19547 0.44661 0.0
O6 O 0.37592 0.26626 0.34117 0.0
O7 O 0.42849 0.20942 0.40427 0.0
O8 O 0.3197 0.16907 0.43249 0.0
O9 O 0.26441 0.22551 0.36481 0.0
C10 C 0.25388 0.14993 0.15847 0.0
O11 O 0.42192 0.19882 0.08493 0.0
O12 O 0.36373 0.25627 0.11733 0.0
In13 In 0.10744 0.93467 0.51131 0.0
O14 O 0.15186 0.86822 0.46064 0.0
O15 O 0.20607 0.9237 0.40007 0.0
C16 C 0.0114 0.93035 0.68679 0.0
C17 C 0.03223 0.93291 0.30106 0.0
C18 C 0.16062 0.98769 0.69465 0.0
O19 O 0.05303 0.89966 0.67018 0.0
O20 O 0.0137 0.96072 0.60591 0.0
O21 O 0.14426 0.00186 0.58492 0.0
O22 O 0.15829 0.94699 0.70408 0.0
C23 C 0.20134 0.88269 0.39923 0.0
O24 O 0.06919 0.96528 0.32739 0.0
O25 O 0.03017 0.90358 0.3846 0.0
In26 In 0.1528 0.80027 0.75311 0.0
O27 O 0.07962 0.80455 0.58483 0.0
O28 O 0.13784 0.74711 0.61727 0.0
C29 C 0.23031 0.80792 0.94656 0.0
C30 C 0.24763 0.85346 0.65844 0.0
C31 C 0.08599 0.75361 0.92149 0.0
O32 O 0.18178 0.83431 0.93241 0.0
O33 O 0.23712 0.77789 0.86478 0.0
O34 O 0.12564 0.7371 0.84112 0.0
O35 O 0.07302 0.79393 0.90419 0.0
C36 C 0.0944 0.766 0.55035 0.0
O37 O 0.25213 0.81245 0.65133 0.0
O38 O 0.19271 0.86726 0.70405 0.0
In39 In 0.39407 0.06874 0.0113 0.0
O40 O 0.43231 0.03813 0.82739 0.0
O41 O 0.47134 0.09983 0.88456 0.0
C42 C 0.34088 0.01572 0.19465 0.0
C43 C 0.30017 0.12073 0.89924 0.0
C44 C 0.4901 0.07306 0.18678 0.0
O45 O 0.35723 1.00155 0.08493 0.0
O46 O 0.34322 0.05642 0.20406 0.0
O47 O 0.44848 0.10374 0.17014 0.0
O48 O 0.4878 0.04268 0.10591 0.0
C49 C 0.46927 0.0705 0.80104 0.0
O50 O 0.34965 0.13519 0.96065 0.0
O51 O 0.29543 0.07972 0.90007 0.0
In52 In 0.34872 0.80027 0.25216 0.0
O53 O 0.42192 0.80454 0.42042 0.0
O54 O 0.36371 0.7471 0.388 0.0
C55 C 0.27122 0.80792 0.0587 0.0
C56 C 0.25391 0.85346 0.34689 0.0
C57 C 0.41554 0.75363 0.08378 0.0
O58 O 0.31973 0.83432 0.07284 0.0
O59 O 0.26441 0.77789 0.14051 0.0
O60 O 0.37591 0.73711 0.16416 0.0
O61 O 0.42849 0.79394 0.10106 0.0
C62 C 0.40715 0.76599 0.4549 0.0
O63 O 0.2494 0.81245 0.35395 0.0
O64 O 0.30882 0.86727 0.30125 0.0
In65 In 0.3941 0.93467 0.49404 0.0
O66 O 0.34968 0.86821 0.54469 0.0
O67 O 0.29546 0.9237 0.60527 0.0
C68 C 0.49014 0.93035 0.31857 0.0
C69 C 0.46931 0.9329 0.7043 0.0
C70 C 0.34095 0.98766 0.31067 0.0
O71 O 0.44852 0.89966 0.33522 0.0
O72 O 0.48782 0.96073 0.39943 0.0
O73 O 0.35725 0.00185 0.42039 0.0
O74 O 0.34326 0.94696 0.30126 0.0
C75 C 0.30018 0.88269 0.60606 0.0
O76 O 0.43234 0.96528 0.67795 0.0
O77 O 0.47137 0.90357 0.62078 0.0
In78 In 0.1528 0.20316 0.75222 0.0
O79 O 0.07962 0.1989 0.92052 0.0
O80 O 0.13785 0.25633 0.88805 0.0
C81 C 0.23028 0.19549 0.55876 0.0
C82 C 0.2476 0.14996 0.84693 0.0
C83 C 0.086 0.24983 0.58384 0.0
O84 O 0.18175 0.1691 0.57293 0.0
O85 O 0.23712 0.22552 0.64053 0.0
O86 O 0.12565 0.26633 0.66421 0.0
O87 O 0.07302 0.20952 0.60115 0.0
C88 C 0.09441 0.23745 0.95498 0.0
O89 O 0.25212 0.19097 0.85399 0.0
O90 O 0.19268 0.13616 0.8013 0.0
In91 In 0.10741 0.06874 0.99403 0.0
O92 O 0.15183 0.13519 0.04471 0.0
O93 O 0.20604 0.0797 0.10527 0.0
C94 C 0.01136 0.07306 0.81857 0.0
C95 C 0.03219 0.0705 0.20429 0.0
C96 C 0.16055 0.01575 0.81066 0.0
O97 O 0.05298 0.10375 0.83519 0.0
O98 O 0.01368 0.04269 0.89945 0.0
O99 O 0.14424 1.00155 0.92039 0.0
O100 O 0.15825 0.05645 0.80124 0.0
C101 C 0.20132 0.12071 0.10607 0.0
O102 O 0.06916 0.03813 0.17795 0.0
O103 O 0.03013 0.09984 0.12076 0.0
In104 In 0.65281 0.80027 0.75231 0.0
O105 O 0.75214 0.81245 0.85409 0.0
O106 O 0.69272 0.86727 0.80135 0.0
C107 C 0.58601 0.75361 0.58397 0.0
C108 C 0.59439 0.766 0.95509 0.0
C109 C 0.7303 0.80793 0.55884 0.0
O110 O 0.62566 0.7371 0.66434 0.0
O111 O 0.57303 0.79392 0.60124 0.0
O112 O 0.68178 0.83432 0.57299 0.0
O113 O 0.73712 0.7779 0.64063 0.0
C114 C 0.74764 0.85346 0.84697 0.0
O115 O 0.57961 0.80455 0.92058 0.0
O116 O 0.63784 0.74712 0.88819 0.0
In117 In 0.89409 0.06873 0.49404 0.0
O118 O 0.93234 0.03813 0.67797 0.0
O119 O 0.97136 0.09983 0.62075 0.0
C120 C 0.84092 0.01572 0.3107 0.0
C121 C 0.80018 0.12072 0.60608 0.0
C122 C 0.99012 0.07305 0.31854 0.0
O123 O 0.85727 1.00154 0.42043 0.0
O124 O 0.84325 0.05642 0.30127 0.0
O125 O 0.9485 0.10374 0.33517 0.0
O126 O 0.98783 0.04268 0.39944 0.0
C127 C 0.96931 0.0705 0.70429 0.0
O128 O 0.84967 0.13519 0.54468 0.0
O129 O 0.79545 0.07971 0.60525 0.0
In130 In 0.84871 0.2031 0.25219 0.0
O131 O 0.9219 0.19882 0.42047 0.0
O132 O 0.86369 0.25627 0.38803 0.0
C133 C 0.7712 0.19546 0.05874 0.0
C134 C 0.75386 0.14993 0.34689 0.0
C135 C 0.91555 0.24974 0.08381 0.0
O136 O 0.81971 0.16906 0.0729 0.0
O137 O 0.76441 0.2255 0.14051 0.0
O138 O 0.87591 0.26626 0.16417 0.0
O139 O 0.92849 0.20943 0.10111 0.0
C140 C 0.90713 0.23738 0.45494 0.0
O141 O 0.74938 0.19095 0.35397 0.0
O142 O 0.80878 0.13612 0.30128 0.0
In143 In 0.60741 0.93467 0.99405 0.0
O144 O 0.56916 0.96528 0.17795 0.0
O145 O 0.53013 0.90358 0.12078 0.0
C146 C 0.66059 0.98768 0.81069 0.0
C147 C 0.70131 0.88269 0.10613 0.0
C148 C 0.51138 0.93035 0.81855 0.0
O149 O 0.64423 0.00186 0.92041 0.0
O150 O 0.65826 0.94698 0.80129 0.0
O151 O 0.553 0.89966 0.8352 0.0
O152 O 0.51367 0.96072 0.89943 0.0
C153 C 0.53219 0.93291 0.20429 0.0
O154 O 0.65183 0.86822 0.04474 0.0
O155 O 0.70604 0.9237 0.10528 0.0
In156 In 0.65281 0.20315 0.75312 0.0
O157 O 0.57961 0.19889 0.58485 0.0
O158 O 0.63785 0.25632 0.61726 0.0
C159 C 0.73029 0.19547 0.94658 0.0
C160 C 0.74761 0.14995 0.6584 0.0
C161 C 0.58602 0.24982 0.92148 0.0
O162 O 0.68177 0.16909 0.93243 0.0
O163 O 0.73713 0.2255 0.86479 0.0
O164 O 0.62567 0.26632 0.8411 0.0
O165 O 0.57304 0.20951 0.9042 0.0
C166 C 0.5944 0.23744 0.55036 0.0
O167 O 0.75213 0.19096 0.65133 0.0
O168 O 0.69269 0.13615 0.70403 0.0
In169 In 0.60738 0.06874 0.5113 0.0
O170 O 0.6518 0.13519 0.46063 0.0
O171 O 0.70602 0.0797 0.40008 0.0
C172 C 0.51135 0.07305 0.68678 0.0
C173 C 0.53216 0.0705 0.30105 0.0
C174 C 0.66052 0.01574 0.69468 0.0
O175 O 0.55295 0.10375 0.67013 0.0
O176 O 0.51365 0.04268 0.6059 0.0
O177 O 0.64421 1.00155 0.58495 0.0
O178 O 0.65822 0.05644 0.70408 0.0
C179 C 0.7013 0.12071 0.39928 0.0
O180 O 0.56914 0.03813 0.3274 0.0
O181 O 0.5301 0.09984 0.38456 0.0
In182 In 0.8487 0.80027 0.25322 0.0
O183 O 0.92189 0.80454 0.08493 0.0
O184 O 0.86367 0.7471 0.11739 0.0
C185 C 0.77121 0.80793 0.44668 0.0
C186 C 0.75388 0.85346 0.15848 0.0
C187 C 0.91552 0.75362 0.42161 0.0
O188 O 0.81972 0.83433 0.43251 0.0
O189 O 0.76439 0.7779 0.3649 0.0
O190 O 0.87589 0.73711 0.34124 0.0
O191 O 0.92848 0.79394 0.40431 0.0
C192 C 0.90712 0.76599 0.05047 0.0
O193 O 0.74938 0.81245 0.15144 0.0
O194 O 0.8088 0.86727 0.2041 0.0
In195 In 0.89412 0.93466 0.01133 0.0
O196 O 0.8497 0.86821 0.9607 0.0
O197 O 0.79548 0.9237 0.90012 0.0
C198 C 0.99016 0.93035 0.18681 0.0
C199 C 0.96934 0.9329 0.80107 0.0
C200 C 0.84099 0.98766 0.1947 0.0
O201 O 0.94855 0.89966 0.17017 0.0
O202 O 0.98785 0.96072 0.10591 0.0
O203 O 0.85729 0.00185 0.08496 0.0
O204 O 0.84329 0.94696 0.20412 0.0
C205 C 0.8002 0.88269 0.89934 0.0
O206 O 0.93236 0.96527 0.8274 0.0
O207 O 0.9714 0.90357 0.8846 0.0
In208 In 0.84872 0.70311 0.75326 0.0
O209 O 0.92194 0.69884 0.58501 0.0
O210 O 0.86368 0.75629 0.61743 0.0
C211 C 0.7712 0.69545 0.94668 0.0
C212 C 0.75391 0.64992 0.65851 0.0
C213 C 0.9155 0.74975 0.92155 0.0
O214 O 0.81973 0.66906 0.93256 0.0
O215 O 0.76439 0.72548 0.86489 0.0
O216 O 0.87585 0.76629 0.84124 0.0
O217 O 0.9285 0.70943 0.90436 0.0
C218 C 0.90711 0.73738 0.55053 0.0
O219 O 0.74941 0.69093 0.65144 0.0
O220 O 0.80883 0.63612 0.70414 0.0
In221 In 0.60749 0.43467 0.01133 0.0
O222 O 0.65191 0.36822 0.96066 0.0
O223 O 0.70613 0.4237 0.90011 0.0
C224 C 0.51145 0.43034 0.18681 0.0
C225 C 0.53228 0.4329 0.80107 0.0
C226 C 0.66066 0.48768 0.19468 0.0
O227 O 0.55308 0.39966 0.17019 0.0
O228 O 0.51375 0.46072 0.10593 0.0
O229 O 0.64431 0.50186 0.08495 0.0
O230 O 0.65833 0.44698 0.2041 0.0
C231 C 0.7014 0.38269 0.89926 0.0
O232 O 0.56924 0.46527 0.82741 0.0
O233 O 0.53022 0.40357 0.88461 0.0
In234 In 0.65284 0.3003 0.25314 0.0
O235 O 0.57964 0.3046 0.08488 0.0
O236 O 0.63787 0.24714 0.1173 0.0
C237 C 0.73034 0.30795 0.44658 0.0
C238 C 0.74771 0.35346 0.15845 0.0
C239 C 0.58602 0.25367 0.42142 0.0
O240 O 0.68183 0.33435 0.43242 0.0
O241 O 0.73714 0.2779 0.36483 0.0
O242 O 0.62567 0.23712 0.34113 0.0
O243 O 0.57304 0.29399 0.4042 0.0
C244 C 0.59445 0.26606 0.05039 0.0
O245 O 0.75218 0.31245 0.15135 0.0
O246 O 0.69279 0.36728 0.20406 0.0
In247 In 0.89417 0.56874 0.51134 0.0
O248 O 0.84973 0.6352 0.46071 0.0
O249 O 0.79553 0.57971 0.40013 0.0
C250 C 0.99021 0.57306 0.68681 0.0
C251 C 0.96937 0.5705 0.30107 0.0
C252 C 0.84099 0.51572 0.69469 0.0
O253 O 0.94858 0.60374 0.67018 0.0
O254 O 0.9879 0.54269 0.60594 0.0
O255 O 0.85734 0.50155 0.58496 0.0
O256 O 0.84333 0.55642 0.70411 0.0
C257 C 0.80025 0.62072 0.39931 0.0
O258 O 0.93241 0.53813 0.32743 0.0
O259 O 0.97144 0.59983 0.38459 0.0
In260 In 0.84876 0.30026 0.75216 0.0
O261 O 0.92197 0.30453 0.9204 0.0
O262 O 0.86371 0.24708 0.88798 0.0
C263 C 0.77126 0.30794 0.55872 0.0
C264 C 0.75396 0.35346 0.84692 0.0
C265 C 0.91552 0.25361 0.58387 0.0
O266 O 0.81978 0.33432 0.57286 0.0
O267 O 0.76443 0.27791 0.64052 0.0
O268 O 0.87587 0.23708 0.66418 0.0
O269 O 0.92853 0.29392 0.60105 0.0
C270 C 0.90714 0.26599 0.95489 0.0
O271 O 0.74945 0.31245 0.85397 0.0
O272 O 0.80888 0.36726 0.80128 0.0
In273 In 0.89421 0.43465 0.99407 0.0
O274 O 0.93244 0.46527 0.17797 0.0
O275 O 0.97147 0.40356 0.12083 0.0
C276 C 0.84107 0.48766 0.8107 0.0
C277 C 0.80027 0.38268 0.10607 0.0
C278 C 0.99025 0.43034 0.81861 0.0
O279 O 0.85737 0.50184 0.92043 0.0
O280 O 0.84338 0.44696 0.80128 0.0
O281 O 0.94864 0.39965 0.83525 0.0
O282 O 0.98793 0.46071 0.89947 0.0
C283 C 0.96941 0.43289 0.20433 0.0
O284 O 0.84977 0.3682 0.04471 0.0
O285 O 0.79556 0.42369 0.10528 0.0
In286 In 0.65281 0.70313 0.2523 0.0
O287 O 0.75215 0.69096 0.35407 0.0
O288 O 0.69276 0.63614 0.30137 0.0
C289 C 0.58601 0.74977 0.08403 0.0
C290 C 0.59443 0.73737 0.45506 0.0
C291 C 0.73029 0.69546 0.05883 0.0
O292 O 0.62567 0.76631 0.16431 0.0
O293 O 0.57301 0.70946 0.10124 0.0
O294 O 0.68177 0.66906 0.07301 0.0
O295 O 0.73711 0.7255 0.14058 0.0
C296 C 0.74767 0.64995 0.347 0.0
O297 O 0.57962 0.69883 0.42057 0.0
O298 O 0.63785 0.75628 0.38814 0.0
In299 In 0.60745 0.56873 0.49406 0.0
O300 O 0.5692 0.53812 0.67798 0.0
O301 O 0.53018 0.59983 0.62078 0.0
C302 C 0.66059 0.51574 0.31069 0.0
C303 C 0.70137 0.6207 0.60611 0.0
C304 C 0.5114 0.57305 0.31859 0.0
O305 O 0.64428 0.50154 0.42042 0.0
O306 O 0.65829 0.55644 0.30128 0.0
O307 O 0.55303 0.60374 0.33521 0.0
O308 O 0.51372 0.54268 0.39948 0.0
C309 C 0.53223 0.5705 0.70432 0.0
O310 O 0.65187 0.63518 0.54476 0.0
O311 O 0.70609 0.57969 0.60529 0.0
In312 In 0.15285 0.3003 0.25219 0.0
O313 O 0.25217 0.31246 0.35402 0.0
O314 O 0.19279 0.36729 0.30127 0.0
C315 C 0.08604 0.25369 0.08391 0.0
C316 C 0.09443 0.26606 0.45492 0.0
C317 C 0.23037 0.30794 0.05877 0.0
O318 O 0.12568 0.23713 0.16421 0.0
O319 O 0.07306 0.294 0.1011 0.0
O320 O 0.18186 0.33434 0.07289 0.0
O321 O 0.23716 0.2779 0.14056 0.0
C322 C 0.2477 0.35347 0.34691 0.0
O323 O 0.07964 0.30461 0.42042 0.0
O324 O 0.13785 0.24714 0.38803 0.0
In325 In 0.39413 0.56873 0.99406 0.0
O326 O 0.34971 0.63519 0.0447 0.0
O327 O 0.2955 0.57971 0.1053 0.0
C328 C 0.49016 0.57305 0.81857 0.0
C329 C 0.46935 0.57049 0.20431 0.0
C330 C 0.34096 0.51572 0.81072 0.0
O331 O 0.44855 0.60374 0.8352 0.0
O332 O 0.48786 0.54268 0.89947 0.0
O333 O 0.35731 0.50154 0.92045 0.0
O334 O 0.34329 0.55642 0.80129 0.0
C335 C 0.30023 0.62072 0.10612 0.0
O336 O 0.43237 0.53813 0.178 0.0
O337 O 0.47141 0.59982 0.12078 0.0
In338 In 0.34875 0.70313 0.75214 0.0
O339 O 0.42195 0.69884 0.9204 0.0
O340 O 0.36371 0.7563 0.88795 0.0
C341 C 0.27123 0.69547 0.55874 0.0
C342 C 0.25394 0.64994 0.84688 0.0
C343 C 0.41554 0.74975 0.58384 0.0
O344 O 0.31975 0.66908 0.57287 0.0
O345 O 0.26442 0.7255 0.64051 0.0
O346 O 0.37589 0.7663 0.66413 0.0
O347 O 0.42853 0.70944 0.60105 0.0
C348 C 0.40713 0.73739 0.95487 0.0
O349 O 0.24944 0.69095 0.85396 0.0
O350 O 0.30885 0.63613 0.80126 0.0
In351 In 0.10751 0.43467 0.49407 0.0
O352 O 0.15194 0.36821 0.54473 0.0
O353 O 0.20615 0.42369 0.60531 0.0
C354 C 0.01149 0.43035 0.31858 0.0
C355 C 0.0323 0.4329 0.70433 0.0
C356 C 0.16071 0.48768 0.31073 0.0
O357 O 0.05311 0.39966 0.33523 0.0
O358 O 0.01378 0.46072 0.39946 0.0
O359 O 0.14435 0.50186 0.42045 0.0
O360 O 0.15837 0.44699 0.30132 0.0
C361 C 0.20142 0.38268 0.60614 0.0
O362 O 0.06927 0.46527 0.67799 0.0
O363 O 0.03025 0.40357 0.62081 0.0
In364 In 0.15282 0.70313 0.25316 0.0
O365 O 0.07961 0.69883 0.08491 0.0
O366 O 0.13783 0.75629 0.11731 0.0
C367 C 0.23031 0.69547 0.4466 0.0
C368 C 0.24765 0.64995 0.15844 0.0
C369 C 0.08602 0.74977 0.42142 0.0
O370 O 0.18179 0.66908 0.43246 0.0
O371 O 0.23713 0.7255 0.36481 0.0
O372 O 0.12567 0.76631 0.34112 0.0
O373 O 0.07303 0.70945 0.40423 0.0
C374 C 0.09442 0.73738 0.05041 0.0
O375 O 0.25215 0.69096 0.15135 0.0
O376 O 0.19275 0.63614 0.20409 0.0
In377 In 0.10748 0.56873 0.01133 0.0
O378 O 0.15189 0.63518 0.96064 0.0
O379 O 0.20611 0.5797 0.90009 0.0
C380 C 0.01145 0.57305 0.18682 0.0
C381 C 0.03226 0.5705 0.80109 0.0
C382 C 0.16064 0.51574 0.19471 0.0
O383 O 0.05306 0.60374 0.17016 0.0
O384 O 0.01375 0.54267 0.10595 0.0
O385 O 0.14433 0.50155 0.08499 0.0
O386 O 0.15833 0.55644 0.20411 0.0
C387 C 0.20139 0.62071 0.89928 0.0
O388 O 0.06924 0.53813 0.82743 0.0
O389 O 0.03021 0.59983 0.8846 0.0
In390 In 0.34879 0.30025 0.7532 0.0
O391 O 0.42198 0.30452 0.58492 0.0
O392 O 0.36372 0.24707 0.61739 0.0
C393 C 0.27129 0.30793 0.94664 0.0
C394 C 0.25398 0.35345 0.65847 0.0
C395 C 0.41556 0.2536 0.92149 0.0
O396 O 0.31982 0.33431 0.93248 0.0
O397 O 0.26446 0.27789 0.86487 0.0
O398 O 0.37591 0.23706 0.8412 0.0
O399 O 0.42857 0.29391 0.90428 0.0
C400 C 0.40714 0.26598 0.55046 0.0
O401 O 0.24947 0.31243 0.65141 0.0
O402 O 0.3089 0.36725 0.7041 0.0
In403 In 0.39417 0.43466 0.51134 0.0
O404 O 0.43241 0.46527 0.32742 0.0
O405 O 0.47145 0.40357 0.38462 0.0
C406 C 0.34103 0.48766 0.69471 0.0
C407 C 0.30025 0.38269 0.3993 0.0
C408 C 0.4902 0.43035 0.68682 0.0
O409 O 0.35733 0.50185 0.58498 0.0
O410 O 0.34333 0.44696 0.70413 0.0
O411 O 0.4486 0.39965 0.67019 0.0
O412 O 0.4879 0.46072 0.60592 0.0
C413 C 0.46939 0.4329 0.30109 0.0
O414 O 0.34975 0.36821 0.46067 0.0
O415 O 0.29554 0.4237 0.4001 0.0
loop_
_geom_bond_atom_site_label_1
_geom_bond_atom_site_label_2
_geom_bond_distance
_geom_bond_site_symmetry_2
_ccdc_geom_bond_type
In0 O1 2.294 . S
In0 O2 2.326 . S
In0 O6 2.266 . S
In0 O7 2.326 . S
In0 O8 2.266 . S
In0 O9 2.326 . S
In0 O11 2.294 . S
In0 O12 2.326 . S
O1 In0 2.294 . S
O1 C10 1.240 . S
O2 In0 2.326 . S
O2 C10 1.252 . S
C3 O6 1.252 . S
C3 O7 1.260 . S
C4 O11 1.240 . S
C4 O12 1.252 . S
C5 O8 1.252 . S
C5 O9 1.260 . S
O6 In0 2.266 . S
O6 C3 1.252 . S
O7 In0 2.326 . S
O7 C3 1.260 . S
O8 In0 2.266 . S
O8 C5 1.252 . S
O9 In0 2.326 . S
O9 C5 1.260 . S
C10 O1 1.240 . S
C10 O2 1.252 . S
O11 In0 2.294 . S
O11 C4 1.240 . S
O12 In0 2.326 . S
O12 C4 1.252 . S
In13 O14 2.294 . S
In13 O15 2.326 . S
In13 O19 2.266 . S
In13 O20 2.326 . S
In13 O21 2.266 . S
In13 O22 2.326 . S
In13 O24 2.294 . S
In13 O25 2.326 . S
O14 In13 2.294 . S
O14 C23 1.240 . S
O15 In13 2.326 . S
O15 C23 1.252 . S
C16 O19 1.252 . S
C16 O20 1.260 . S
C17 O24 1.240 . S
C17 O25 1.252 . S
C18 O21 1.252 . S
C18 O22 1.260 . S
O19 In13 2.266 . S
O19 C16 1.252 . S
O20 In13 2.326 . S
O20 C16 1.260 . S
O21 In13 2.266 . S
O21 C18 1.252 . S
O22 In13 2.326 . S
O22 C18 1.260 . S
C23 O14 1.240 . S
C23 O15 1.252 . S
O24 In13 2.294 . S
O24 C17 1.240 . S
O25 In13 2.326 . S
O25 C17 1.252 . S
In26 O27 2.294 . S
In26 O28 2.326 . S
In26 O32 2.266 . S
In26 O33 2.326 . S
In26 O34 2.266 . S
In26 O35 2.326 . S
In26 O37 2.294 . S
In26 O38 2.326 . S
O27 In26 2.294 . S
O27 C36 1.240 . S
O28 In26 2.326 . S
O28 C36 1.252 . S
C29 O32 1.252 . S
C29 O33 1.260 . S
C30 O37 1.240 . S
C30 O38 1.252 . S
C31 O34 1.252 . S
C31 O35 1.260 . S
O32 In26 2.266 . S
O32 C29 1.252 . S
O33 In26 2.326 . S
O33 C29 1.260 . S
O34 In26 2.266 . S
O34 C31 1.252 . S
O35 In26 2.326 . S
O35 C31 1.260 . S
C36 O27 1.240 . S
C36 O28 1.252 . S
O37 In26 2.294 . S
O37 C30 1.240 . S
O38 In26 2.326 . S
O38 C30 1.252 . S
In39 O40 2.294 1_554 S
In39 O41 2.326 1_554 S
In39 O45 2.266 . S
In39 O46 2.326 . S
In39 O47 2.266 . S
In39 O48 2.326 . S
In39 O50 2.294 . S
In39 O51 2.326 1_554 S
O40 In39 2.294 1_556 S
O40 C49 1.240 . S
O41 In39 2.326 1_556 S
O41 C49 1.252 . S
C42 O45 1.252 . S
C42 O46 1.260 . S
C43 O50 1.240 1_556 S
C43 O51 1.252 . S
C44 O47 1.252 . S
C44 O48 1.260 . S
O45 In39 2.266 . S
O45 C42 1.252 . S
O46 In39 2.326 . S
O46 C42 1.260 . S
O47 In39 2.266 . S
O47 C44 1.252 . S
O48 In39 2.326 . S
O48 C44 1.260 . S
C49 O40 1.240 . S
C49 O41 1.252 . S
O50 In39 2.294 . S
O50 C43 1.240 1_554 S
O51 In39 2.326 1_556 S
O51 C43 1.252 . S
In52 O53 2.294 . S
In52 O54 2.326 . S
In52 O58 2.266 . S
In52 O59 2.326 . S
In52 O60 2.266 . S
In52 O61 2.326 . S
In52 O63 2.294 . S
In52 O64 2.326 . S
O53 In52 2.294 . S
O53 C62 1.240 . S
O54 In52 2.326 . S
O54 C62 1.252 . S
C55 O58 1.252 . S
C55 O59 1.260 . S
C56 O63 1.240 . S
C56 O64 1.252 . S
C57 O60 1.252 . S
C57 O61 1.260 . S
O58 In52 2.266 . S
O58 C55 1.252 . S
O59 In52 2.326 . S
O59 C55 1.260 . S
O60 In52 2.266 . S
O60 C57 1.252 . S
O61 In52 2.326 . S
O61 C57 1.260 . S
C62 O53 1.240 . S
C62 O54 1.252 . S
O63 In52 2.294 . S
O63 C56 1.240 . S
O64 In52 2.326 . S
O64 C56 1.252 . S
In65 O66 2.294 . S
In65 O67 2.326 . S
In65 O71 2.266 . S
In65 O72 2.326 . S
In65 O73 2.266 . S
In65 O74 2.326 . S
In65 O76 2.294 . S
In65 O77 2.326 . S
O66 In65 2.294 . S
O66 C75 1.240 . S
O67 In65 2.326 . S
O67 C75 1.252 . S
C68 O71 1.252 . S
C68 O72 1.260 . S
C69 O76 1.240 . S
C69 O77 1.252 . S
C70 O73 1.252 . S
C70 O74 1.260 . S
O71 In65 2.266 . S
O71 C68 1.252 . S
O72 In65 2.326 . S
O72 C68 1.260 . S
O73 In65 2.266 . S
O73 C70 1.252 . S
O74 In65 2.326 . S
O74 C70 1.260 . S
C75 O66 1.240 . S
C75 O67 1.252 . S
O76 In65 2.294 . S
O76 C69 1.240 . S
O77 In65 2.326 . S
O77 C69 1.252 . S
In78 O79 2.294 . S
In78 O80 2.326 . S
In78 O84 2.266 . S
In78 O85 2.326 . S
In78 O86 2.266 . S
In78 O87 2.326 . S
In78 O89 2.294 . S
In78 O90 2.326 . S
O79 In78 2.294 . S
O79 C88 1.240 . S
O80 In78 2.326 . S
O80 C88 1.252 . S
C81 O84 1.252 . S
C81 O85 1.260 . S
C82 O89 1.240 . S
C82 O90 1.252 . S
C83 O86 1.252 . S
C83 O87 1.260 . S
O84 In78 2.266 . S
O84 C81 1.252 . S
O85 In78 2.326 . S
O85 C81 1.260 . S
O86 In78 2.266 . S
O86 C83 1.252 . S
O87 In78 2.326 . S
O87 C83 1.260 . S
C88 O79 1.240 . S
C88 O80 1.252 . S
O89 In78 2.294 . S
O89 C82 1.240 . S
O90 In78 2.326 . S
O90 C82 1.252 . S
In91 O92 2.294 . S
In91 O93 2.326 1_556 S
In91 O97 2.266 . S
In91 O98 2.326 . S
In91 O99 2.266 . S
In91 O100 2.326 . S
In91 O102 2.294 1_556 S
In91 O103 2.326 1_556 S
O92 In91 2.294 . S
O92 C101 1.240 1_556 S
O93 In91 2.326 1_554 S
O93 C101 1.252 . S
C94 O97 1.252 . S
C94 O98 1.260 . S
C95 O102 1.240 . S
C95 O103 1.252 . S
C96 O99 1.252 . S
C96 O100 1.260 . S
O97 In91 2.266 . S
O97 C94 1.252 . S
O98 In91 2.326 . S
O98 C94 1.260 . S
O99 In91 2.266 . S
O99 C96 1.252 . S
O100 In91 2.326 . S
O100 C96 1.260 . S
C101 O92 1.240 1_554 S
C101 O93 1.252 . S
O102 In91 2.294 1_554 S
O102 C95 1.240 . S
O103 In91 2.326 1_554 S
O103 C95 1.252 . S
In104 O105 2.294 . S
In104 O106 2.326 . S
In104 O110 2.266 . S
In104 O111 2.326 . S
In104 O112 2.266 . S
In104 O113 2.326 . S
In104 O115 2.294 . S
In104 O116 2.326 . S
O105 In104 2.294 . S
O105 C114 1.240 . S
O106 In104 2.326 . S
O106 C114 1.252 . S
C107 O110 1.252 . S
C107 O111 1.260 . S
C108 O115 1.240 . S
C108 O116 1.252 . S
C109 O112 1.252 . S
C109 O113 1.260 . S
O110 In104 2.266 . S
O110 C107 1.252 . S
O111 In104 2.326 . S
O111 C107 1.260 . S
O112 In104 2.266 . S
O112 C109 1.252 . S
O113 In104 2.326 . S
O113 C109 1.260 . S
C114 O105 1.240 . S
C114 O106 1.252 . S
O115 In104 2.294 . S
O115 C108 1.240 . S
O116 In104 2.326 . S
O116 C108 1.252 . S
In117 O118 2.294 . S
In117 O119 2.326 . S
In117 O123 2.266 . S
In117 O124 2.326 . S
In117 O125 2.266 . S
In117 O126 2.326 . S
In117 O128 2.294 . S
In117 O129 2.326 . S
O118 In117 2.294 . S
O118 C127 1.240 . S
O119 In117 2.326 . S
O119 C127 1.252 . S
C120 O123 1.252 . S
C120 O124 1.260 . S
C121 O128 1.240 . S
C121 O129 1.252 . S
C122 O125 1.252 . S
C122 O126 1.260 . S
O123 In117 2.266 . S
O123 C120 1.252 . S
O124 In117 2.326 . S
O124 C120 1.260 . S
O125 In117 2.266 . S
O125 C122 1.252 . S
O126 In117 2.326 . S
O126 C122 1.260 . S
C127 O118 1.240 . S
C127 O119 1.252 . S
O128 In117 2.294 . S
O128 C121 1.240 . S
O129 In117 2.326 . S
O129 C121 1.252 . S
In130 O131 2.294 . S
In130 O132 2.326 . S
In130 O136 2.266 . S
In130 O137 2.326 . S
In130 O138 2.266 . S
In130 O139 2.326 . S
In130 O141 2.294 . S
In130 O142 2.326 . S
O131 In130 2.294 . S
O131 C140 1.240 . S
O132 In130 2.326 . S
O132 C140 1.252 . S
C133 O136 1.252 . S
C133 O137 1.260 . S
C134 O141 1.240 . S
C134 O142 1.252 . S
C135 O138 1.252 . S
C135 O139 1.260 . S
O136 In130 2.266 . S
O136 C133 1.252 . S
O137 In130 2.326 . S
O137 C133 1.260 . S
O138 In130 2.266 . S
O138 C135 1.252 . S
O139 In130 2.326 . S
O139 C135 1.260 . S
C140 O131 1.240 . S
C140 O132 1.252 . S
O141 In130 2.294 . S
O141 C134 1.240 . S
O142 In130 2.326 . S
O142 C134 1.252 . S
In143 O144 2.294 1_556 S
In143 O145 2.326 1_556 S
In143 O149 2.266 . S
In143 O150 2.326 . S
In143 O151 2.266 . S
In143 O152 2.326 . S
In143 O154 2.294 . S
In143 O155 2.326 1_556 S
O144 In143 2.294 1_554 S
O144 C153 1.240 . S
O145 In143 2.326 1_554 S
O145 C153 1.252 . S
C146 O149 1.252 . S
C146 O150 1.260 . S
C147 O154 1.240 1_554 S
C147 O155 1.252 . S
C148 O151 1.252 . S
C148 O152 1.260 . S
O149 In143 2.266 . S
O149 C146 1.252 . S
O150 In143 2.326 . S
O150 C146 1.260 . S
O151 In143 2.266 . S
O151 C148 1.252 . S
O152 In143 2.326 . S
O152 C148 1.260 . S
C153 O144 1.240 . S
C153 O145 1.252 . S
O154 In143 2.294 . S
O154 C147 1.240 1_556 S
O155 In143 2.326 1_554 S
O155 C147 1.252 . S
In156 O157 2.294 . S
In156 O158 2.326 . S
In156 O162 2.266 . S
In156 O163 2.326 . S
In156 O164 2.266 . S
In156 O165 2.326 . S
In156 O167 2.294 . S
In156 O168 2.326 . S
O157 In156 2.294 . S
O157 C166 1.240 . S
O158 In156 2.326 . S
O158 C166 1.252 . S
C159 O162 1.252 . S
C159 O163 1.260 . S
C160 O167 1.240 . S
C160 O168 1.252 . S
C161 O164 1.252 . S
C161 O165 1.260 . S
O162 In156 2.266 . S
O162 C159 1.252 . S
O163 In156 2.326 . S
O163 C159 1.260 . S
O164 In156 2.266 . S
O164 C161 1.252 . S
O165 In156 2.326 . S
O165 C161 1.260 . S
C166 O157 1.240 . S
C166 O158 1.252 . S
O167 In156 2.294 . S
O167 C160 1.240 . S
O168 In156 2.326 . S
O168 C160 1.252 . S
In169 O170 2.294 . S
In169 O171 2.326 . S
In169 O175 2.266 . S
In169 O176 2.326 . S
In169 O177 2.266 . S
In169 O178 2.326 . S
In169 O180 2.294 . S
In169 O181 2.326 . S
O170 In169 2.294 . S
O170 C179 1.240 . S
O171 In169 2.326 . S
O171 C179 1.252 . S
C172 O175 1.252 . S
C172 O176 1.260 . S
C173 O180 1.240 . S
C173 O181 1.252 . S
C174 O177 1.252 . S
C174 O178 1.260 . S
O175 In169 2.266 . S
O175 C172 1.252 . S
O176 In169 2.326 . S
O176 C172 1.260 . S
O177 In169 2.266 . S
O177 C174 1.252 . S
O178 In169 2.326 . S
O178 C174 1.260 . S
C179 O170 1.240 . S
C179 O171 1.252 . S
O180 In169 2.294 . S
O180 C173 1.240 . S
O181 In169 2.326 . S
O181 C173 1.252 . S
In182 O183 2.294 . S
In182 O184 2.326 . S
In182 O188 2.266 . S
In182 O189 2.326 . S
In182 O190 2.266 . S
In182 O191 2.326 . S
In182 O193 2.294 . S
In182 O194 2.326 . S
O183 In182 2.294 . S
O183 C192 1.240 . S
O184 In182 2.326 . S
O184 C192 1.252 . S
C185 O188 1.252 . S
C185 O189 1.260 . S
C186 O193 1.240 . S
C186 O194 1.252 . S
C187 O190 1.252 . S
C187 O191 1.260 . S
O188 In182 2.266 . S
O188 C185 1.252 . S
O189 In182 2.326 . S
O189 C185 1.260 . S
O190 In182 2.266 . S
O190 C187 1.252 . S
O191 In182 2.326 . S
O191 C187 1.260 . S
C192 O183 1.240 . S
C192 O184 1.252 . S
O193 In182 2.294 . S
O193 C186 1.240 . S
O194 In182 2.326 . S
O194 C186 1.252 . S
In195 O196 2.294 . S
In195 O197 2.326 1_554 S
In195 O201 2.266 . S
In195 O202 2.326 . S
In195 O203 2.266 . S
In195 O204 2.326 . S
In195 O206 2.294 1_554 S
In195 O207 2.326 1_554 S
O196 In195 2.294 . S
O196 C205 1.240 1_554 S
O197 In195 2.326 1_556 S
O197 C205 1.252 . S
C198 O201 1.252 . S
C198 O202 1.260 . S
C199 O206 1.240 . S
C199 O207 1.252 . S
C200 O203 1.252 . S
C200 O204 1.260 . S
O201 In195 2.266 . S
O201 C198 1.252 . S
O202 In195 2.326 . S
O202 C198 1.260 . S
O203 In195 2.266 . S
O203 C200 1.252 . S
O204 In195 2.326 . S
O204 C200 1.260 . S
C205 O196 1.240 1_556 S
C205 O197 1.252 . S
O206 In195 2.294 1_556 S
O206 C199 1.240 . S
O207 In195 2.326 1_556 S
O207 C199 1.252 . S
In208 O209 2.294 . S
In208 O210 2.326 . S
In208 O214 2.266 . S
In208 O215 2.326 . S
In208 O216 2.266 . S
In208 O217 2.326 . S
In208 O219 2.294 . S
In208 O220 2.326 . S
O209 In208 2.294 . S
O209 C218 1.240 . S
O210 In208 2.326 . S
O210 C218 1.252 . S
C211 O214 1.252 . S
C211 O215 1.260 . S
C212 O219 1.240 . S
C212 O220 1.252 . S
C213 O216 1.252 . S
C213 O217 1.260 . S
O214 In208 2.266 . S
O214 C211 1.252 . S
O215 In208 2.326 . S
O215 C211 1.260 . S
O216 In208 2.266 . S
O216 C213 1.252 . S
O217 In208 2.326 . S
O217 C213 1.260 . S
C218 O209 1.240 . S
C218 O210 1.252 . S
O219 In208 2.294 . S
O219 C212 1.240 . S
O220 In208 2.326 . S
O220 C212 1.252 . S
In221 O222 2.294 . S
In221 O223 2.326 1_554 S
In221 O227 2.266 . S
In221 O228 2.326 . S
In221 O229 2.266 . S
In221 O230 2.326 . S
In221 O232 2.294 1_554 S
In221 O233 2.326 1_554 S
O222 In221 2.294 . S
O222 C231 1.240 1_554 S
O223 In221 2.326 1_556 S
O223 C231 1.252 . S
C224 O227 1.252 . S
C224 O228 1.260 . S
C225 O232 1.240 . S
C225 O233 1.252 . S
C226 O229 1.252 . S
C226 O230 1.260 . S
O227 In221 2.266 . S
O227 C224 1.252 . S
O228 In221 2.326 . S
O228 C224 1.260 . S
O229 In221 2.266 . S
O229 C226 1.252 . S
O230 In221 2.326 . S
O230 C226 1.260 . S
C231 O222 1.240 1_556 S
C231 O223 1.252 . S
O232 In221 2.294 1_556 S
O232 C225 1.240 . S
O233 In221 2.326 1_556 S
O233 C225 1.252 . S
In234 O235 2.294 . S
In234 O236 2.326 . S
In234 O240 2.266 . S
In234 O241 2.326 . S
In234 O242 2.266 . S
In234 O243 2.326 . S
In234 O245 2.294 . S
In234 O246 2.326 . S
O235 In234 2.294 . S
O235 C244 1.240 . S
O236 In234 2.326 . S
O236 C244 1.252 . S
C237 O240 1.252 . S
C237 O241 1.260 . S
C238 O245 1.240 . S
C238 O246 1.252 . S
C239 O242 1.252 . S
C239 O243 1.260 . S
O240 In234 2.266 . S
O240 C237 1.252 . S
O241 In234 2.326 . S
O241 C237 1.260 . S
O242 In234 2.266 . S
O242 C239 1.252 . S
O243 In234 2.326 . S
O243 C239 1.260 . S
C244 O235 1.240 . S
C244 O236 1.252 . S
O245 In234 2.294 . S
O245 C238 1.240 . S
O246 In234 2.326 . S
O246 C238 1.252 . S
In247 O248 2.294 . S
In247 O249 2.326 . S
In247 O253 2.266 . S
In247 O254 2.326 . S
In247 O255 2.266 . S
In247 O256 2.326 . S
In247 O258 2.294 . S
In247 O259 2.326 . S
O248 In247 2.294 . S
O248 C257 1.240 . S
O249 In247 2.326 . S
O249 C257 1.252 . S
C250 O253 1.252 . S
C250 O254 1.260 . S
C251 O258 1.240 . S
C251 O259 1.252 . S
C252 O255 1.252 . S
C252 O256 1.260 . S
O253 In247 2.266 . S
O253 C250 1.252 . S
O254 In247 2.326 . S
O254 C250 1.260 . S
O255 In247 2.266 . S
O255 C252 1.252 . S
O256 In247 2.326 . S
O256 C252 1.260 . S
C257 O248 1.240 . S
C257 O249 1.252 . S
O258 In247 2.294 . S
O258 C251 1.240 . S
O259 In247 2.326 . S
O259 C251 1.252 . S
In260 O261 2.294 . S
In260 O262 2.326 . S
In260 O266 2.266 . S
In260 O267 2.326 . S
In260 O268 2.266 . S
In260 O269 2.326 . S
In260 O271 2.294 . S
In260 O272 2.326 . S
O261 In260 2.294 . S
O261 C270 1.240 . S
O262 In260 2.326 . S
O262 C270 1.252 . S
C263 O266 1.252 . S
C263 O267 1.260 . S
C264 O271 1.240 . S
C264 O272 1.252 . S
C265 O268 1.252 . S
C265 O269 1.260 . S
O266 In260 2.266 . S
O266 C263 1.252 . S
O267 In260 2.326 . S
O267 C263 1.260 . S
O268 In260 2.266 . S
O268 C265 1.252 . S
O269 In260 2.326 . S
O269 C265 1.260 . S
C270 O261 1.240 . S
C270 O262 1.252 . S
O271 In260 2.294 . S
O271 C264 1.240 . S
O272 In260 2.326 . S
O272 C264 1.252 . S
In273 O274 2.294 1_556 S
In273 O275 2.326 1_556 S
In273 O279 2.266 . S
In273 O280 2.326 . S
In273 O281 2.266 . S
In273 O282 2.326 . S
In273 O284 2.294 . S
In273 O285 2.326 1_556 S
O274 In273 2.294 1_554 S
O274 C283 1.240 . S
O275 In273 2.326 1_554 S
O275 C283 1.252 . S
C276 O279 1.252 . S
C276 O280 1.260 . S
C277 O284 1.240 1_554 S
C277 O285 1.252 . S
C278 O281 1.252 . S
C278 O282 1.260 . S
O279 In273 2.266 . S
O279 C276 1.252 . S
O280 In273 2.326 . S
O280 C276 1.260 . S
O281 In273 2.266 . S
O281 C278 1.252 . S
O282 In273 2.326 . S
O282 C278 1.260 . S
C283 O274 1.240 . S
C283 O275 1.252 . S
O284 In273 2.294 . S
O284 C277 1.240 1_556 S
O285 In273 2.326 1_554 S
O285 C277 1.252 . S
In286 O287 2.294 . S
In286 O288 2.326 . S
In286 O292 2.266 . S
In286 O293 2.326 . S
In286 O294 2.266 . S
In286 O295 2.326 . S
In286 O297 2.294 . S
In286 O298 2.326 . S
O287 In286 2.294 . S
O287 C296 1.240 . S
O288 In286 2.326 . S
O288 C296 1.252 . S
C289 O292 1.252 . S
C289 O293 1.260 . S
C290 O297 1.240 . S
C290 O298 1.252 . S
C291 O294 1.252 . S
C291 O295 1.260 . S
O292 In286 2.266 . S
O292 C289 1.252 . S
O293 In286 2.326 . S
O293 C289 1.260 . S
O294 In286 2.266 . S
O294 C291 1.252 . S
O295 In286 2.326 . S
O295 C291 1.260 . S
C296 O287 1.240 . S
C296 O288 1.252 . S
O297 In286 2.294 . S
O297 C290 1.240 . S
O298 In286 2.326 . S
O298 C290 1.252 . S
In299 O300 2.294 . S
In299 O301 2.326 . S
In299 O305 2.266 . S
In299 O306 2.326 . S
In299 O307 2.266 . S
In299 O308 2.326 . S
In299 O310 2.294 . S
In299 O311 2.326 . S
O300 In299 2.294 . S
O300 C309 1.240 . S
O301 In299 2.326 . S
O301 C309 1.252 . S
C302 O305 1.252 . S
C302 O306 1.260 . S
C303 O310 1.240 . S
C303 O311 1.252 . S
C304 O307 1.252 . S
C304 O308 1.260 . S
O305 In299 2.266 . S
O305 C302 1.252 . S
O306 In299 2.326 . S
O306 C302 1.260 . S
O307 In299 2.266 . S
O307 C304 1.252 . S
O308 In299 2.326 . S
O308 C304 1.260 . S
C309 O300 1.240 . S
C309 O301 1.252 . S
O310 In299 2.294 . S
O310 C303 1.240 . S
O311 In299 2.326 . S
O311 C303 1.252 . S
In312 O313 2.294 . S
In312 O314 2.326 . S
In312 O318 2.266 . S
In312 O319 2.326 . S
In312 O320 2.266 . S
In312 O321 2.326 . S
In312 O323 2.294 . S
In312 O324 2.326 . S
O313 In312 2.294 . S
O313 C322 1.240 . S
O314 In312 2.326 . S
O314 C322 1.252 . S
C315 O318 1.252 . S
C315 O319 1.260 . S
C316 O323 1.240 . S
C316 O324 1.252 . S
C317 O320 1.252 . S
C317 O321 1.260 . S
O318 In312 2.266 . S
O318 C315 1.252 . S
O319 In312 2.326 . S
O319 C315 1.260 . S
O320 In312 2.266 . S
O320 C317 1.252 . S
O321 In312 2.326 . S
O321 C317 1.260 . S
C322 O313 1.240 . S
C322 O314 1.252 . S
O323 In312 2.294 . S
O323 C316 1.240 . S
O324 In312 2.326 . S
O324 C316 1.252 . S
In325 O326 2.294 . S
In325 O327 2.326 1_556 S
In325 O331 2.266 . S
In325 O332 2.326 . S
In325 O333 2.266 . S
In325 O334 2.326 . S
In325 O336 2.294 1_556 S
In325 O337 2.326 1_556 S
O326 In325 2.294 . S
O326 C335 1.240 1_556 S
O327 In325 2.326 1_554 S
O327 C335 1.252 . S
C328 O331 1.252 . S
C328 O332 1.260 . S
C329 O336 1.240 . S
C329 O337 1.252 . S
C330 O333 1.252 . S
C330 O334 1.260 . S
O331 In325 2.266 . S
O331 C328 1.252 . S
O332 In325 2.326 . S
O332 C328 1.260 . S
O333 In325 2.266 . S
O333 C330 1.252 . S
O334 In325 2.326 . S
O334 C330 1.260 . S
C335 O326 1.240 1_554 S
C335 O327 1.252 . S
O336 In325 2.294 1_554 S
O336 C329 1.240 . S
O337 In325 2.326 1_554 S
O337 C329 1.252 . S
In338 O339 2.294 . S
In338 O340 2.326 . S
In338 O344 2.266 . S
In338 O345 2.326 . S
In338 O346 2.266 . S
In338 O347 2.326 . S
In338 O349 2.294 . S
In338 O350 2.326 . S
O339 In338 2.294 . S
O339 C348 1.240 . S
O340 In338 2.326 . S
O340 C348 1.252 . S
C341 O344 1.252 . S
C341 O345 1.260 . S
C342 O349 1.240 . S
C342 O350 1.252 . S
C343 O346 1.252 . S
C343 O347 1.260 . S
O344 In338 2.266 . S
O344 C341 1.252 . S
O345 In338 2.326 . S
O345 C341 1.260 . S
O346 In338 2.266 . S
O346 C343 1.252 . S
O347 In338 2.326 . S
O347 C343 1.260 . S
C348 O339 1.240 . S
C348 O340 1.252 . S
O349 In338 2.294 . S
O349 C342 1.240 . S
O350 In338 2.326 . S
O350 C342 1.252 . S
In351 O352 2.294 . S
In351 O353 2.326 . S
In351 O357 2.266 . S
In351 O358 2.326 . S
In351 O359 2.266 . S
In351 O360 2.326 . S
In351 O362 2.294 . S
In351 O363 2.326 . S
O352 In351 2.294 . S
O352 C361 1.240 . S
O353 In351 2.326 . S
O353 C361 1.252 . S
C354 O357 1.252 . S
C354 O358 1.260 . S
C355 O362 1.240 . S
C355 O363 1.252 . S
C356 O359 1.252 . S
C356 O360 1.260 . S
O357 In351 2.266 . S
O357 C354 1.252 . S
O358 In351 2.326 . S
O358 C354 1.260 . S
O359 In351 2.266 . S
O359 C356 1.252 . S
O360 In351 2.326 . S
O360 C356 1.260 . S
C361 O352 1.240 . S
C361 O353 1.252 . S
O362 In351 2.294 . S
O362 C355 1.240 . S
O363 In351 2.326 . S
O363 C355 1.252 . S
In364 O365 2.294 . S
In364 O366 2.326 . S
In364 O370 2.266 . S
In364 O371 2.326 . S
In364 O372 2.266 . S
In364 O373 2.326 . S
In364 O375 2.294 . S
In364 O376 2.326 . S
O365 In364 2.294 . S
O365 C374 1.240 . S
O366 In364 2.326 . S
O366 C374 1.252 . S
C367 O370 1.252 . S
C367 O371 1.260 . S
C368 O375 1.240 . S
C368 O376 1.252 . S
C369 O372 1.252 . S
C369 O373 1.260 . S
O370 In364 2.266 . S
O370 C367 1.252 . S
O371 In364 2.326 . S
O371 C367 1.260 . S
O372 In364 2.266 . S
O372 C369 1.252 . S
O373 In364 2.326 . S
O373 C369 1.260 . S
C374 O365 1.240 . S
C374 O366 1.252 . S
O375 In364 2.294 . S
O375 C368 1.240 . S
O376 In364 2.326 . S
O376 C368 1.252 . S
In377 O378 2.294 . S
In377 O379 2.326 1_554 S
In377 O383 2.266 . S
In377 O384 2.326 . S
In377 O385 2.266 . S
In377 O386 2.326 . S
In377 O388 2.294 1_554 S
In377 O389 2.326 1_554 S
O378 In377 2.294 . S
O378 C387 1.240 1_554 S
O379 In377 2.326 1_556 S
O379 C387 1.252 . S
C380 O383 1.252 . S
C380 O384 1.260 . S
C381 O388 1.240 . S
C381 O389 1.252 . S
C382 O385 1.252 . S
C382 O386 1.260 . S
O383 In377 2.266 . S
O383 C380 1.252 . S
O384 In377 2.326 . S
O384 C380 1.260 . S
O385 In377 2.266 . S
O385 C382 1.252 . S
O386 In377 2.326 . S
O386 C382 1.260 . S
C387 O378 1.240 1_556 S
C387 O379 1.252 . S
O388 In377 2.294 1_556 S
O388 C381 1.240 . S
O389 In377 2.326 1_556 S
O389 C381 1.252 . S
In390 O391 2.294 . S
In390 O392 2.326 . S
In390 O396 2.266 . S
In390 O397 2.326 . S
In390 O398 2.266 . S
In390 O399 2.326 . S
In390 O401 2.294 . S
In390 O402 2.326 . S
O391 In390 2.294 . S
O391 C400 1.240 . S
O392 In390 2.326 . S
O392 C400 1.252 . S
C393 O396 1.252 . S
C393 O397 1.260 . S
C394 O401 1.240 . S
C394 O402 1.252 . S
C395 O398 1.252 . S
C395 O399 1.260 . S
O396 In390 2.266 . S
O396 C393 1.252 . S
O397 In390 2.326 . S
O397 C393 1.260 . S
O398 In390 2.266 . S
O398 C395 1.252 . S
O399 In390 2.326 . S
O399 C395 1.260 . S
C400 O391 1.240 . S
C400 O392 1.252 . S
O401 In390 2.294 . S
O401 C394 1.240 . S
O402 In390 2.326 . S
O402 C394 1.252 . S
In403 O404 2.294 . S
In403 O405 2.326 . S
In403 O409 2.266 . S
In403 O410 2.326 . S
In403 O411 2.266 . S
In403 O412 2.326 . S
In403 O414 2.294 . S
In403 O415 2.326 . S
O404 In403 2.294 . S
O404 C413 1.240 . S
O405 In403 2.326 . S
O405 C413 1.252 . S
C406 O409 1.252 . S
C406 O410 1.260 . S
C407 O414 1.240 . S
C407 O415 1.252 . S
C408 O411 1.252 . S
C408 O412 1.260 . S
O409 In403 2.266 . S
O409 C406 1.252 . S
O410 In403 2.326 . S
O410 C406 1.260 . S
O411 In403 2.266 . S
O411 C408 1.252 . S
O412 In403 2.326 . S
O412 C408 1.260 . S
C413 O404 1.240 . S
C413 O405 1.252 . S
O414 In403 2.294 . S
O414 C407 1.240 . S
O415 In403 2.326 . S
O415 C407 1.252 . S
C81 C5 3.862 . S
C18 C96 1.621 1_565 S
C55 C29 3.862 1_554 S
C42 C70 1.621 1_545 S
C185 C109 3.862 . S
C120 C200 1.621 1_545 S
C159 C133 3.862 1_556 S
C146 C174 1.621 1_565 S
C211 C291 3.862 1_556 S
C302 C226 1.621 . S
C237 C263 3.862 . S
C276 C252 1.621 . S
C393 C317 3.862 1_556 S
C406 C330 1.621 . S
C367 C341 3.862 . S
C356 C382 1.621 . S
C101 C10 1.331 . S
C56 C23 1.331 . S
C75 C30 1.331 . S
C82 C43 1.331 . S
C205 C114 1.331 . S
C160 C121 1.331 . S
C179 C134 1.331 . S
C147 C186 1.331 . S
C303 C212 1.331 . S
C231 C264 1.331 . S
C238 C277 1.331 . S
C296 C257 1.331 . S
C407 C322 1.331 . S
C335 C368 1.331 . S
C342 C387 1.331 . S
C394 C361 1.331 . S
C4 C395 2.585 1_554 S
C198 C17 1.457 1_655 S
C369 C36 2.585 . S
C172 C49 1.457 . S
C343 C62 2.585 . S
C69 C148 1.457 . S
C88 C315 2.586 1_556 S
C95 C122 1.457 1_455 S
C108 C289 2.585 1_556 S
C94 C127 1.457 1_455 S
C265 C140 2.585 . S
C68 C153 1.457 . S
C239 C166 2.585 . S
C44 C173 1.457 . S
C192 C213 2.585 1_554 S
C16 C199 1.457 1_455 S
C187 C218 2.585 . S
C408 C225 1.457 . S
C244 C161 2.585 1_554 S
C251 C380 1.457 1_655 S
C270 C135 2.585 1_556 S
C283 C354 1.457 1_655 S
C290 C107 2.585 . S
C309 C328 1.457 . S
C83 C316 2.586 . S
C304 C329 1.457 . S
C57 C348 2.585 1_554 S
C355 C278 1.457 1_455 S
C374 C31 2.585 1_554 S
C250 C381 1.457 1_655 S
C400 C3 2.585 . S
C413 C224 1.457 . S
