# Generated by pormake.
# Topology sma, (6)-cn, num edge types: 1
# Building blocks:
#     Node 0, Type 0, BuildingBlock: VOLQOD_clean_sbu_1, # of connection points: 6
#     Node 1, Type 0, BuildingBlock: VOLQOD_clean_sbu_1, # of connection points: 6
#     Node 2, Type 0, BuildingBlock: VOLQOD_clean_sbu_1, # of connection points: 6
#     Edge 3, Type (0, 0), BuildingBlock: TEMPAE_clean_linker_10, # of connection points: 2
#     Edge 4, Type (0, 0), BuildingBlock: TEMPAE_clean_linker_10, # of connection points: 2
#     Edge 5, Type (0, 0), BuildingBlock: TEMPAE_clean_linker_10, # of connection points: 2
#     Edge 6, Type (0, 0), BuildingBlock: TEMPAE_clean_linker_10, # of connection points: 2
#     Edge 7, Type (0, 0), BuildingBlock: TEMPAE_clean_linker_10, # of connection points: 2
#     Edge 8, Type (0, 0), BuildingBlock: TEMPAE_clean_linker_10, # of connection points: 2
#     Edge 9, Type (0, 0), BuildingBlock: TEMPAE_clean_linker_10, # of connection points: 2
#     Edge 10, Type (0, 0), BuildingBlock: TEMPAE_clean_linker_10, # of connection points: 2
#     Edge 11, Type (0, 0), BuildingBlock: TEMPAE_clean_linker_10, # of connection points: 2
# Relax obj value: 0.284
# Max RMSD: 0.234
# Mean RMSD: 0.234
data_MOF--net-sma--node1-VOLQOD_clean_sbu_1--edge1-TEMPAE_clean_linker_10
_symmetry_space_group_name_H-M    P1
_symmetry_Int_Tables_number       1
_symmetry_cell_setting            triclinic
loop_
_symmetry_equiv_pos_as_xyz
'x, y, z'
_cell_length_a     31.112395
_cell_length_b     30.966978
_cell_length_c     16.889205
_cell_angle_alpha  90.110256
_cell_angle_beta   89.731317
_cell_angle_gamma 119.87585
loop_
_atom_site_label
_atom_site_type_symbol
_atom_site_fract_x
_atom_site_fract_y
_atom_site_fract_z
_atom_type_partial_charge
O0 O 0.02431 0.56778 -0.02307 0.0
Zn1 Zn 0.0168 0.58601 0.08535 0.0
O2 O 0.00422 0.531 0.15051 0.0
Zn3 Zn 0.06324 0.54724 0.20739 0.0
Zn4 Zn 0.98671 0.47309 0.08912 0.0
Zn5 Zn 0.94947 0.51694 0.21731 0.0
O6 O 0.04321 0.52847 0.31849 0.0
O7 O 0.97544 0.53598 0.32495 0.0
O8 O 0.07538 0.6493 0.12125 0.0
O9 O 0.10963 0.62091 0.20643 0.0
O10 O 0.09919 0.51368 0.16227 0.0
O11 O 0.044 0.46278 0.07537 0.0
O12 O 0.93177 0.41117 0.13746 0.0
O13 O 0.9594 0.59722 0.08316 0.0
O14 O 0.90235 0.44386 0.22435 0.0
O15 O 0.91124 0.54951 0.1805 0.0
C16 C -0.00161 0.52592 0.94287 0.0
C17 C 0.00954 0.53109 0.35779 0.0
C18 C 0.08617 0.48106 0.10787 0.0
C19 C 0.10918 0.65671 0.17035 0.0
C20 C 0.90093 0.40634 0.19112 0.0
C21 C 0.92019 0.58041 0.12463 0.0
O22 O 0.97235 0.48568 -0.01879 0.0
O23 O 0.49771 0.06079 0.2921 0.0
Zn24 Zn 0.47304 0.04962 0.40369 0.0
O25 O 0.50387 0.01928 0.46064 0.0
Zn26 Zn 0.54961 0.06348 0.53492 0.0
Zn27 Zn 0.53865 0.00144 0.38983 0.0
Zn28 Zn 0.45605 0.96178 0.51448 0.0
O29 O 0.5408 0.02746 0.63602 0.0
O30 O 0.45877 0.98034 0.62695 0.0
O31 O 0.48025 0.10989 0.4623 0.0
O32 O 0.529 0.11286 0.56091 0.0
O33 O 0.61939 0.09947 0.49084 0.0
O34 O 0.60769 0.05669 0.37981 0.0
O35 O 0.53893 0.94036 0.42603 0.0
O36 O 0.40106 3e-05 0.39081 0.0
O37 O 0.47521 0.909 0.50992 0.0
O38 O 0.38885 0.93676 0.46788 0.0
C39 C 0.4991 0.02616 0.25307 0.0
C40 C 0.4981 0.00268 0.66811 0.0
C41 C 0.63538 0.09273 0.42496 0.0
C42 C 0.50232 0.12798 0.5277 0.0
C43 C 0.51013 0.90669 0.47418 0.0
C44 C 0.37303 0.95664 0.41862 0.0
O45 O 0.50732 0.99412 0.28639 0.0
O46 O 0.45664 0.4929 0.65293 0.0
Zn47 Zn 0.4482 0.47324 0.76573 0.0
O48 O 0.5048 0.52347 0.81759 0.0
Zn49 Zn 0.49023 0.56956 0.86874 0.0
Zn50 Zn 0.55809 0.55506 0.74439 0.0
Zn51 Zn 0.523 0.49254 0.89389 0.0
O52 O 0.50411 0.57121 -0.01485 0.0
O53 O 0.49144 0.49393 -0.00593 0.0
O54 O 0.38629 0.46769 0.81122 0.0
O55 O 0.41708 0.54301 0.86485 0.0
O56 O 0.52454 0.63603 0.81338 0.0
O57 O 0.56694 0.62164 0.72077 0.0
O58 O 0.62271 0.56526 0.7893 0.0
O59 O 0.44666 0.40819 0.77129 0.0
O60 O 0.59535 0.5329 0.90898 0.0
O61 O 0.50565 0.42388 0.85896 0.0
C62 C 0.49513 0.50639 0.61022 0.0
C63 C 0.49355 0.53233 0.02556 0.0
C64 C 0.55237 0.64949 0.75214 0.0
C65 C 0.38047 0.50096 0.84581 0.0
C66 C 0.63053 0.55792 0.8607 0.0
C67 C 0.47335 0.39495 0.80941 0.0
O68 O 0.5375 0.51997 0.64054 0.0
C69 C 0.16678 0.48189 0.1134 0.0
C70 C 0.12275 0.46932 0.07346 0.0
C71 C 0.2052 0.47881 0.07508 0.0
C72 C 0.19957 0.46394 -0.00532 0.0
C73 C 0.15406 0.44819 0.95575 0.0
C74 C 0.11593 0.45056 -0.00401 0.0
C75 C 0.25294 0.49461 0.11896 0.0
C76 C 0.147 0.43287 0.86969 0.0
C77 C 0.31921 0.52717 0.87856 0.0
C78 C 0.33098 0.48919 0.87294 0.0
C79 C 0.27529 0.51861 0.91521 0.0
C80 C 0.24324 0.47129 0.94872 0.0
C81 C 0.25412 0.43225 0.94086 0.0
C82 C 0.29783 0.44156 0.90203 0.0
C83 C 0.26413 0.56077 0.92054 0.0
C84 C 0.2211 0.38164 -0.02296 0.0
H85 H 0.17192 0.49585 0.17356 0.0
H86 H 0.08195 0.44077 0.96463 0.0
H87 H 0.26587 0.46748 0.10902 0.0
H88 H 0.28216 0.53121 0.09617 0.0
H89 H 0.24882 0.49809 0.18367 0.0
H90 H 0.10758 0.41551 0.85139 0.0
H91 H 0.16921 0.46619 0.83218 0.0
H92 H 0.16032 0.40628 0.85772 0.0
H93 H 0.34493 0.56391 0.85565 0.0
H94 H 0.3074 0.4124 0.89845 0.0
H95 H 0.26549 0.57206 -0.01672 0.0
H96 H 0.2262 0.54843 0.89853 0.0
H97 H 0.29089 0.59391 0.88593 0.0
H98 H 0.22263 0.38489 0.04254 0.0
H99 H 0.23241 0.35414 0.95943 0.0
H100 H 0.18197 0.36718 0.9595 0.0
C101 C 0.71795 0.16952 0.44281 0.0
C102 C 0.68367 0.13154 0.39373 0.0
C103 C 0.75894 0.21162 0.41029 0.0
C104 C 0.76469 0.21609 0.32697 0.0
C105 C 0.73221 0.17631 0.27766 0.0
C106 C 0.69248 0.13418 0.31179 0.0
C107 C 0.79402 0.25274 0.46473 0.0
C108 C 0.73652 0.18005 0.18846 0.0
C109 C 0.81806 0.34629 0.24473 0.0
C110 C 0.86526 0.35657 0.22057 0.0
C111 C 0.78479 0.30031 0.2786 0.0
C112 C 0.79992 0.26462 0.29088 0.0
C113 C 0.84776 0.27496 0.26697 0.0
C114 C 0.87973 0.32074 0.23076 0.0
C115 C 0.73348 0.29 0.30126 0.0
C116 C 0.86548 0.23828 0.28138 0.0
H117 H 0.71165 0.16736 0.50623 0.0
H118 H 0.66624 0.10493 0.2733 0.0
H119 H 0.83303 0.26713 0.44586 0.0
H120 H 0.78651 0.28416 0.46201 0.0
H121 H 0.78981 0.24 0.52719 0.0
H122 H 0.71192 0.14384 0.15915 0.0
H123 H 0.72621 0.20763 0.16755 0.0
H124 H 0.77522 0.19332 0.16915 0.0
H125 H 0.80714 0.37423 0.23676 0.0
H126 H 0.91672 0.32929 0.21323 0.0
H127 H 0.72793 0.284 0.36609 0.0
H128 H 0.70508 0.25545 0.27188 0.0
H129 H 0.72703 0.321 0.28462 0.0
H130 H 0.86446 0.23074 0.34577 0.0
H131 H 0.90382 0.25212 0.25918 0.0
H132 H 0.84046 0.20229 0.25211 0.0
C133 C 0.48328 0.82153 0.52344 0.0
C134 C 0.52141 0.86791 0.498 0.0
C135 C 0.49406 0.78723 0.55877 0.0
C136 C 0.54417 0.80051 0.57086 0.0
C137 C 0.58282 0.84652 0.54235 0.0
C138 C 0.57091 0.87955 0.50516 0.0
C139 C 0.45184 0.7377 0.58623 0.0
C140 C 0.63661 0.86214 0.5555 0.0
C141 C 0.55712 0.73221 0.74572 0.0
C142 C 0.56031 0.69371 0.7078 0.0
C143 C 0.55553 0.76961 0.70148 0.0
C144 C 0.55558 0.76724 0.6177 0.0
C145 C 0.56138 0.7299 0.57927 0.0
C146 C 0.56438 0.69391 0.62496 0.0
C147 C 0.55084 0.80993 0.74431 0.0
C148 C 0.56039 0.72547 0.49008 0.0
H149 H 0.44503 0.81261 0.51747 0.0
H150 H 0.60042 0.91578 0.48626 0.0
H151 H 0.45724 0.70684 0.56474 0.0
H152 H 0.45104 0.73626 0.65188 0.0
H153 H 0.41532 0.73126 0.56521 0.0
H154 H 0.66207 0.89696 0.52323 0.0
H155 H 0.645 0.86834 0.61968 0.0
H156 H 0.64427 0.83234 0.53638 0.0
H157 H 0.55425 0.73218 0.80973 0.0
H158 H 0.56636 0.66386 0.59527 0.0
H159 H 0.51287 0.80393 0.73632 0.0
H160 H 0.57715 0.84703 0.71922 0.0
H161 H 0.55795 0.81031 0.80878 0.0
H162 H 0.5224 0.71341 0.4686 0.0
H163 H 0.57108 0.69799 0.46952 0.0
H164 H 0.58562 0.76201 0.46234 0.0
C165 C 0.71363 0.56564 0.85563 0.0
C166 C 0.68099 0.57878 0.89041 0.0
C167 C 0.75708 0.57531 0.89506 0.0
C168 C 0.76802 0.59962 0.9696 0.0
C169 C 0.73737 0.61722 0.00077 0.0
C170 C 0.69358 0.60576 0.96128 0.0
C171 C 0.78873 0.55553 0.86048 0.0
C172 C 0.74872 0.6447 0.07865 0.0
C173 C 0.83152 0.55562 0.11129 0.0
C174 C 0.88138 0.59108 0.09869 0.0
C175 C 0.79402 0.55908 0.07157 0.0
C176 C 0.80684 0.59969 0.0198 0.0
C177 C 0.85678 0.63786 0.01223 0.0
C178 C 0.89368 0.63278 0.05113 0.0
C179 C 0.74103 0.51745 0.08087 0.0
C180 C 0.87149 0.68256 0.95985 0.0
H181 H 0.7033 0.54445 0.80097 0.0
H182 H 0.66802 0.61601 -0.01247 0.0
H183 H 0.82838 0.58479 0.86062 0.0
H184 H 0.78502 0.52428 0.89755 0.0
H185 H 0.77784 0.54184 0.79891 0.0
H186 H 0.72703 0.66405 0.08657 0.0
H187 H 0.73936 0.61788 0.12807 0.0
H188 H 0.78878 0.67247 0.08303 0.0
H189 H 0.82194 0.52326 0.14776 0.0
H190 H 0.9323 0.6605 0.04195 0.0
H191 H 0.72719 0.49828 0.02324 0.0
H192 H 0.71685 0.53264 0.09884 0.0
H193 H 0.73724 0.48945 0.12551 0.0
H194 H 0.86852 0.67127 0.89685 0.0
H195 H 0.91017 0.71257 0.97096 0.0
H196 H 0.84621 0.69776 0.96915 0.0
C197 C 0.28704 0.88503 0.42297 0.0
C198 C 0.32483 0.92485 0.38106 0.0
C199 C 0.2467 0.84674 0.38299 0.0
C200 C 0.24536 0.84785 0.29924 0.0
C201 C 0.28114 0.89018 0.2574 0.0
C202 C 0.32026 0.92868 0.29917 0.0
C203 C 0.20815 0.8029 0.42981 0.0
C204 C 0.28144 0.89247 0.16808 0.0
C205 C 0.19386 0.71907 0.2132 0.0
C206 C 0.14604 0.70789 0.19199 0.0
C207 C 0.22752 0.76583 0.24393 0.0
C208 C 0.21223 0.80149 0.25591 0.0
C209 C 0.16454 0.79103 0.23183 0.0
C210 C 0.13205 0.74432 0.19907 0.0
C211 C 0.27873 0.77623 0.26669 0.0
C212 C 0.14676 0.82781 0.24506 0.0
H213 H 0.29048 0.88239 0.48641 0.0
H214 H 0.34971 0.95939 0.26656 0.0
H215 H 0.17041 0.79101 0.40735 0.0
H216 H 0.2147 0.77099 0.42304 0.0
H217 H 0.20948 0.81165 0.49388 0.0
H218 H 0.30552 0.93101 0.14586 0.0
H219 H 0.29574 0.86864 0.14397 0.0
H220 H 0.24348 0.87809 0.14467 0.0
H221 H 0.20461 0.69086 0.20707 0.0
H222 H 0.09475 0.73531 0.18325 0.0
H223 H 0.2826 0.77904 0.33205 0.0
H224 H 0.30735 0.81232 0.2414 0.0
H225 H 0.28629 0.74656 0.24605 0.0
H226 H 0.14056 0.83007 0.30933 0.0
H227 H 0.11153 0.81683 0.21349 0.0
H228 H 0.1751 0.86562 0.22533 0.0
C229 C 0.51655 0.34741 0.78315 0.0
C230 C 0.47227 0.34882 0.78536 0.0
C231 C 0.51897 0.30876 0.7442 0.0
C232 C 0.47568 0.27003 0.70894 0.0
C233 C 0.43004 0.26936 0.71621 0.0
C234 C 0.42904 0.30933 0.75337 0.0
C235 C 0.56849 0.31109 0.73644 0.0
C236 C 0.38282 0.22762 0.68184 0.0
C237 C 0.49405 0.20393 0.53412 0.0
C238 C 0.49286 0.16321 0.57167 0.0
C239 C 0.48805 0.23901 0.57825 0.0
C240 C 0.47898 0.2318 0.6609 0.0
C241 C 0.47551 0.18936 0.69815 0.0
C242 C 0.48334 0.15596 0.65317 0.0
C243 C 0.49311 0.28456 0.53706 0.0
C244 C 0.46426 0.17959 0.78554 0.0
H245 H 0.55013 0.37828 0.80707 0.0
H246 H 0.39476 0.31045 0.75539 0.0
H247 H 0.56585 0.27609 0.75821 0.0
H248 H 0.57946 0.31503 0.67308 0.0
H249 H 0.5982 0.3428 0.76978 0.0
H250 H 0.34964 0.2296 0.70105 0.0
H251 H 0.38488 0.22945 0.61626 0.0
H252 H 0.37799 0.19098 0.69962 0.0
H253 H 0.50147 0.20923 0.47104 0.0
H254 H 0.48168 0.12379 0.6817 0.0
H255 H 0.52425 0.31861 0.56334 0.0
H256 H 0.45899 0.28692 0.54581 0.0
H257 H 0.5 0.28441 0.47249 0.0
H258 H 0.49519 0.20876 0.82059 0.0
H259 H 0.45871 0.14268 0.80375 0.0
H260 H 0.43043 0.18132 0.80087 0.0
C261 C 0.01846 0.56758 0.81296 0.0
C262 C 0.00051 0.52376 0.85713 0.0
C263 C 0.02176 0.56642 0.73101 0.0
C264 C 0.00682 0.52034 0.69346 0.0
C265 C 0.98945 0.47607 0.73758 0.0
C266 C 0.98627 0.47827 0.81956 0.0
C267 C 0.04007 0.61419 0.68461 0.0
C268 C 0.97354 0.42654 0.69816 0.0
C269 C 0.96556 0.51615 0.48526 0.0
C270 C 0.00854 0.52624 0.4435 0.0
C271 C 0.96386 0.512 0.5672 0.0
C272 C 0.00628 0.51837 0.60738 0.0
C273 C 0.04927 0.52699 0.56573 0.0
C274 C 0.0499 0.53082 0.48355 0.0
C275 C 0.9174 0.50256 0.61082 0.0
C276 C 0.09497 0.53393 0.60806 0.0
H277 H 0.02941 0.60271 0.84232 0.0
H278 H 0.97304 0.4445 0.85417 0.0
H279 H 0.07152 0.62045 0.64579 0.0
H280 H 0.01008 0.61132 0.64579 0.0
H281 H 0.05233 0.64715 0.72366 0.0
H282 H 0.96377 0.3962 0.74181 0.0
H283 H 0.94084 0.41624 0.66016 0.0
H284 H 0.00358 0.42924 0.65919 0.0
H285 H 0.93323 0.51172 0.45405 0.0
H286 H 0.08304 0.53838 0.45097 0.0
H287 H 0.92541 0.53545 0.6476 0.0
H288 H 0.9048 0.47031 0.65138 0.0
H289 H 0.88661 0.49514 0.5699 0.0
H290 H 0.11138 0.56893 0.64293 0.0
H291 H 0.12356 0.53581 0.56631 0.0
H292 H 0.0851 0.50297 0.65033 0.0
C293 C 0.47775 0.97701 0.12998 0.0
C294 C 0.49066 0.02214 0.16776 0.0
C295 C 0.47356 0.97297 0.04804 0.0
C296 C 0.4826 0.01518 0.00342 0.0
C297 C 0.49275 0.06003 0.04123 0.0
C298 C 0.49662 0.063 0.1237 0.0
C299 C 0.46222 0.92442 0.00913 0.0
C300 C 0.50215 0.10548 -0.00551 0.0
C301 C 0.5359 0.0212 0.80136 0.0
C302 C 0.49376 0.00435 0.75406 0.0
C303 C 0.53283 0.02585 0.88296 0.0
C304 C 0.48656 0.01355 0.91722 0.0
C305 C 0.44392 -0.0032 0.86994 0.0
C306 C 0.44798 0.99212 0.78849 0.0
C307 C 0.57888 0.0433 0.93257 0.0
C308 C 0.39419 0.98367 0.9054 0.0
H309 H 0.47195 0.94499 0.16435 0.0
H310 H 0.50614 0.09774 0.15322 0.0
H311 H 0.43163 0.91264 0.96597 0.0
H312 H 0.49531 0.92957 0.9759 0.0
H313 H 0.4517 0.89398 0.05287 0.0
H314 H 0.50343 0.13521 0.03305 0.0
H315 H 0.5381 0.12069 0.96271 0.0
H316 H 0.47298 0.09552 0.9492 0.0
H317 H 0.57128 0.03067 0.77465 0.0
H318 H 0.41545 0.9797 0.75171 0.0
H319 H 0.5734 0.01371 0.97516 0.0
H320 H 0.58598 0.07654 0.96759 0.0
H321 H 0.61225 0.05286 0.89604 0.0
H322 H 0.38221 0.95236 0.94773 0.0
H323 H 0.36504 0.97286 0.85966 0.0
H324 H 0.39718 0.01581 0.93919 0.0
C325 C 0.45092 0.51361 0.49367 0.0
C326 C 0.49156 0.51148 0.52468 0.0
C327 C 0.44816 0.52129 0.41288 0.0
C328 C 0.48662 0.52618 0.36246 0.0
C329 C 0.52796 0.52454 0.39337 0.0
C330 C 0.53003 0.51737 0.47452 0.0
C331 C 0.40386 0.52338 0.38135 0.0
C332 C 0.56939 0.52916 0.34052 0.0
C333 C 0.46164 0.48577 0.15054 0.0
C334 C 0.48577 0.53166 0.11116 0.0
C335 C 0.45941 0.4836 0.23285 0.0
C336 C 0.48182 0.52848 0.27637 0.0
C337 C 0.50339 0.57499 0.23716 0.0
C338 C 0.50507 0.57607 0.15433 0.0
C339 C 0.43574 0.43331 0.2731 0.0
C340 C 0.52714 0.62344 0.28256 0.0
H341 H 0.42149 0.50994 0.53262 0.0
H342 H 0.56157 0.51597 0.49855 0.0
H343 H 0.41623 0.55765 0.34567 0.0
H344 H 0.38215 0.49119 0.34163 0.0
H345 H 0.37905 0.52269 0.42945 0.0
H346 H 0.59999 0.52949 0.37466 0.0
H347 H 0.55472 0.49748 0.29836 0.0
H348 H 0.58478 0.56385 0.30502 0.0
H349 H 0.44579 0.45136 0.11701 0.0
H350 H 0.52347 0.61155 0.1237 0.0
H351 H 0.40858 0.43054 0.31844 0.0
H352 H 0.46462 0.42872 0.30398 0.0
H353 H 0.4165 0.40211 0.23052 0.0
H354 H 0.50238 0.62229 0.33099 0.0
H355 H 0.53621 0.65584 0.24374 0.0
H356 H 0.5619 0.62927 0.31026 0.0
loop_
_geom_bond_atom_site_label_1
_geom_bond_atom_site_label_2
_geom_bond_distance
_geom_bond_site_symmetry_2
_ccdc_geom_bond_type
O0 Zn1 1.953 1_556 S
O0 C16 1.225 . S
Zn1 O0 1.953 1_554 S
Zn1 O2 1.949 . S
Zn1 O8 1.919 . S
Zn1 O13 1.924 1_455 S
O2 Zn1 1.949 . S
O2 Zn3 1.923 . S
O2 Zn4 1.950 1_455 S
O2 Zn5 1.945 1_455 S
Zn3 O2 1.923 . S
Zn3 O6 1.933 . S
Zn3 O9 1.941 . S
Zn3 O10 1.965 . S
Zn4 O2 1.950 1_655 S
Zn4 O11 1.938 1_655 S
Zn4 O12 1.906 . S
Zn4 O22 1.953 1_554 S
Zn5 O2 1.945 1_655 S
Zn5 O7 1.932 . S
Zn5 O14 1.977 . S
Zn5 O15 1.910 . S
O6 Zn3 1.933 . S
O6 C17 1.226 . S
O7 Zn5 1.932 . S
O7 C17 1.307 1_655 S
O8 Zn1 1.919 . S
O8 C19 1.253 . S
O9 Zn3 1.941 . S
O9 C19 1.283 . S
O10 Zn3 1.965 . S
O10 C18 1.303 . S
O11 Zn4 1.938 1_455 S
O11 C18 1.247 . S
O12 Zn4 1.906 . S
O12 C20 1.304 . S
O13 Zn1 1.924 1_655 S
O13 C21 1.311 . S
O14 Zn5 1.977 . S
O14 C20 1.272 . S
O15 Zn5 1.910 . S
O15 C21 1.231 . S
C16 O0 1.225 . S
C16 O22 1.298 1_455 S
C17 O6 1.226 . S
C17 O7 1.307 1_455 S
C18 O10 1.303 . S
C18 O11 1.247 . S
C19 O8 1.253 . S
C19 O9 1.283 . S
C20 O12 1.304 . S
C20 O14 1.272 . S
C21 O13 1.311 . S
C21 O15 1.231 . S
O22 Zn4 1.953 1_556 S
O22 C16 1.298 1_655 S
O23 Zn24 1.953 . S
O23 C39 1.225 . S
Zn24 O23 1.953 . S
Zn24 O25 1.949 . S
Zn24 O31 1.919 . S
Zn24 O36 1.924 1_545 S
O25 Zn24 1.949 . S
O25 Zn26 1.923 . S
O25 Zn27 1.950 . S
O25 Zn28 1.945 1_545 S
Zn26 O25 1.923 . S
Zn26 O29 1.933 . S
Zn26 O32 1.941 . S
Zn26 O33 1.965 . S
Zn27 O25 1.950 . S
Zn27 O34 1.938 . S
Zn27 O35 1.906 1_545 S
Zn27 O45 1.953 . S
Zn28 O25 1.945 1_565 S
Zn28 O30 1.932 . S
Zn28 O37 1.977 . S
Zn28 O38 1.910 . S
O29 Zn26 1.933 . S
O29 C40 1.226 . S
O30 Zn28 1.932 . S
O30 C40 1.307 1_565 S
O31 Zn24 1.919 . S
O31 C42 1.253 . S
O32 Zn26 1.941 . S
O32 C42 1.283 . S
O33 Zn26 1.965 . S
O33 C41 1.303 . S
O34 Zn27 1.938 . S
O34 C41 1.247 . S
O35 Zn27 1.906 1_565 S
O35 C43 1.304 . S
O36 Zn24 1.924 1_565 S
O36 C44 1.311 . S
O37 Zn28 1.977 . S
O37 C43 1.272 . S
O38 Zn28 1.910 . S
O38 C44 1.231 . S
C39 O23 1.225 . S
C39 O45 1.298 . S
C40 O29 1.226 . S
C40 O30 1.307 1_545 S
C41 O33 1.303 . S
C41 O34 1.247 . S
C42 O31 1.253 . S
C42 O32 1.283 . S
C43 O35 1.304 . S
C43 O37 1.272 . S
C44 O36 1.311 . S
C44 O38 1.231 . S
O45 Zn27 1.953 . S
O45 C39 1.298 . S
O46 Zn47 1.953 . S
O46 C62 1.225 . S
Zn47 O46 1.953 . S
Zn47 O48 1.949 . S
Zn47 O54 1.919 . S
Zn47 O59 1.924 . S
O48 Zn47 1.949 . S
O48 Zn49 1.923 . S
O48 Zn50 1.950 . S
O48 Zn51 1.945 . S
Zn49 O48 1.923 . S
Zn49 O52 1.933 1_556 S
Zn49 O55 1.941 . S
Zn49 O56 1.965 . S
Zn50 O48 1.950 . S
Zn50 O57 1.938 . S
Zn50 O58 1.906 . S
Zn50 O68 1.953 . S
Zn51 O48 1.945 . S
Zn51 O53 1.932 1_556 S
Zn51 O60 1.977 . S
Zn51 O61 1.910 . S
O52 Zn49 1.933 1_554 S
O52 C63 1.226 . S
O53 Zn51 1.932 1_554 S
O53 C63 1.307 . S
O54 Zn47 1.919 . S
O54 C65 1.253 . S
O55 Zn49 1.941 . S
O55 C65 1.283 . S
O56 Zn49 1.965 . S
O56 C64 1.303 . S
O57 Zn50 1.938 . S
O57 C64 1.247 . S
O58 Zn50 1.906 . S
O58 C66 1.304 . S
O59 Zn47 1.924 . S
O59 C67 1.311 . S
O60 Zn51 1.977 . S
O60 C66 1.272 . S
O61 Zn51 1.910 . S
O61 C67 1.231 . S
C62 O46 1.225 . S
C62 O68 1.298 . S
C63 O52 1.226 . S
C63 O53 1.307 . S
C64 O56 1.303 . S
C64 O57 1.247 . S
C65 O54 1.253 . S
C65 O55 1.283 . S
C66 O58 1.304 . S
C66 O60 1.272 . S
C67 O59 1.311 . S
C67 O61 1.231 . S
O68 Zn50 1.953 . S
O68 C62 1.298 . S
C69 C70 1.391 . S
C69 C71 1.394 . S
C69 H85 0.931 . S
C70 C69 1.391 . S
C70 C74 1.376 . S
C71 C69 1.394 . S
C71 C72 1.369 . S
C71 C75 1.531 . S
C72 C71 1.369 . S
C72 C73 1.410 1_554 S
C72 C80 1.503 1_554 S
C73 C72 1.410 1_556 S
C73 C74 1.392 1_556 S
C73 C76 1.511 . S
C74 C70 1.376 . S
C74 C73 1.392 1_554 S
C74 H86 0.929 . S
C75 C71 1.531 . S
C75 H87 0.960 . S
C75 H88 0.962 . S
C75 H89 0.960 . S
C76 C73 1.511 . S
C76 H90 0.961 . S
C76 H91 0.961 . S
C76 H92 0.961 . S
C77 C78 1.370 . S
C77 C79 1.363 1_556 S
C77 H93 0.931 1_556 S
C78 C77 1.370 . S
C78 C82 1.408 . S
C79 C77 1.363 1_554 S
C79 C80 1.370 1_554 S
C79 C83 1.524 . S
C80 C72 1.503 1_556 S
C80 C79 1.370 1_556 S
C80 C81 1.403 . S
C81 C80 1.403 . S
C81 C82 1.404 . S
C81 C84 1.539 . S
C82 C78 1.408 . S
C82 C81 1.404 . S
C82 H94 0.930 . S
C83 C79 1.524 . S
C83 H95 0.956 . S
C83 H96 0.961 . S
C83 H97 0.961 . S
C84 C81 1.539 . S
C84 H98 0.958 . S
C84 H99 0.961 . S
C84 H100 0.960 . S
H85 C69 0.931 . S
H86 C74 0.929 . S
H87 C75 0.960 . S
H88 C75 0.962 . S
H89 C75 0.960 . S
H90 C76 0.961 . S
H91 C76 0.961 . S
H92 C76 0.961 . S
H93 C77 0.931 1_554 S
H94 C82 0.930 . S
H95 C83 0.956 . S
H96 C83 0.961 . S
H97 C83 0.961 . S
H98 C84 0.958 . S
H99 C84 0.961 . S
H100 C84 0.960 . S
C101 C102 1.391 . S
C101 C103 1.394 . S
C101 H117 0.931 . S
C102 C101 1.391 . S
C102 C106 1.376 . S
C103 C101 1.394 . S
C103 C104 1.369 . S
C103 C107 1.531 . S
C104 C103 1.369 . S
C104 C105 1.410 . S
C104 C112 1.503 . S
C105 C104 1.410 . S
C105 C106 1.392 . S
C105 C108 1.511 . S
C106 C102 1.376 . S
C106 C105 1.392 . S
C106 H118 0.929 . S
C107 C103 1.531 . S
C107 H119 0.960 . S
C107 H120 0.962 . S
C107 H121 0.960 . S
C108 C105 1.511 . S
C108 H122 0.961 . S
C108 H123 0.961 . S
C108 H124 0.961 . S
C109 C110 1.370 . S
C109 C111 1.363 . S
C109 H125 0.931 . S
C110 C109 1.370 . S
C110 C114 1.408 . S
C111 C109 1.363 . S
C111 C112 1.370 . S
C111 C115 1.524 . S
C112 C104 1.503 . S
C112 C111 1.370 . S
C112 C113 1.403 . S
C113 C112 1.403 . S
C113 C114 1.404 . S
C113 C116 1.539 . S
C114 C110 1.408 . S
C114 C113 1.404 . S
C114 H126 0.930 . S
C115 C111 1.524 . S
C115 H127 0.956 . S
C115 H128 0.961 . S
C115 H129 0.961 . S
C116 C113 1.539 . S
C116 H130 0.958 . S
C116 H131 0.961 . S
C116 H132 0.960 . S
H117 C101 0.931 . S
H118 C106 0.929 . S
H119 C107 0.960 . S
H120 C107 0.962 . S
H121 C107 0.960 . S
H122 C108 0.961 . S
H123 C108 0.961 . S
H124 C108 0.961 . S
H125 C109 0.931 . S
H126 C114 0.930 . S
H127 C115 0.956 . S
H128 C115 0.961 . S
H129 C115 0.961 . S
H130 C116 0.958 . S
H131 C116 0.961 . S
H132 C116 0.960 . S
C133 C134 1.391 . S
C133 C135 1.394 . S
C133 H149 0.931 . S
C134 C133 1.391 . S
C134 C138 1.376 . S
C135 C133 1.394 . S
C135 C136 1.369 . S
C135 C139 1.531 . S
C136 C135 1.369 . S
C136 C137 1.410 . S
C136 C144 1.503 . S
C137 C136 1.410 . S
C137 C138 1.392 . S
C137 C140 1.511 . S
C138 C134 1.376 . S
C138 C137 1.392 . S
C138 H150 0.929 . S
C139 C135 1.531 . S
C139 H151 0.960 . S
C139 H152 0.962 . S
C139 H153 0.960 . S
C140 C137 1.511 . S
C140 H154 0.961 . S
C140 H155 0.961 . S
C140 H156 0.961 . S
C141 C142 1.370 . S
C141 C143 1.363 . S
C141 H157 0.931 . S
C142 C141 1.370 . S
C142 C146 1.408 . S
C143 C141 1.363 . S
C143 C144 1.370 . S
C143 C147 1.524 . S
C144 C136 1.503 . S
C144 C143 1.370 . S
C144 C145 1.403 . S
C145 C144 1.403 . S
C145 C146 1.404 . S
C145 C148 1.539 . S
C146 C142 1.408 . S
C146 C145 1.404 . S
C146 H158 0.930 . S
C147 C143 1.524 . S
C147 H159 0.956 . S
C147 H160 0.961 . S
C147 H161 0.961 . S
C148 C145 1.539 . S
C148 H162 0.958 . S
C148 H163 0.961 . S
C148 H164 0.960 . S
H149 C133 0.931 . S
H150 C138 0.929 . S
H151 C139 0.960 . S
H152 C139 0.962 . S
H153 C139 0.960 . S
H154 C140 0.961 . S
H155 C140 0.961 . S
H156 C140 0.961 . S
H157 C141 0.931 . S
H158 C146 0.930 . S
H159 C147 0.956 . S
H160 C147 0.961 . S
H161 C147 0.961 . S
H162 C148 0.958 . S
H163 C148 0.961 . S
H164 C148 0.960 . S
C165 C166 1.391 . S
C165 C167 1.394 . S
C165 H181 0.931 . S
C166 C165 1.391 . S
C166 C170 1.376 . S
C167 C165 1.394 . S
C167 C168 1.369 . S
C167 C171 1.531 . S
C168 C167 1.369 . S
C168 C169 1.410 1_556 S
C168 C176 1.503 1_556 S
C169 C168 1.410 1_554 S
C169 C170 1.392 1_554 S
C169 C172 1.511 . S
C170 C166 1.376 . S
C170 C169 1.392 1_556 S
C170 H182 0.929 1_556 S
C171 C167 1.531 . S
C171 H183 0.960 . S
C171 H184 0.962 . S
C171 H185 0.960 . S
C172 C169 1.511 . S
C172 H186 0.961 . S
C172 H187 0.961 . S
C172 H188 0.961 . S
C173 C174 1.370 . S
C173 C175 1.363 . S
C173 H189 0.931 . S
C174 C173 1.370 . S
C174 C178 1.408 . S
C175 C173 1.363 . S
C175 C176 1.370 . S
C175 C179 1.524 1_554 S
C176 C168 1.503 1_554 S
C176 C175 1.370 . S
C176 C177 1.403 . S
C177 C176 1.403 . S
C177 C178 1.404 . S
C177 C180 1.539 . S
C178 C174 1.408 . S
C178 C177 1.404 . S
C178 H190 0.930 . S
C179 C175 1.524 1_556 S
C179 H191 0.956 . S
C179 H192 0.961 . S
C179 H193 0.961 . S
C180 C177 1.539 . S
C180 H194 0.958 . S
C180 H195 0.961 . S
C180 H196 0.960 . S
H181 C165 0.931 . S
H182 C170 0.929 1_554 S
H183 C171 0.960 . S
H184 C171 0.962 . S
H185 C171 0.960 . S
H186 C172 0.961 . S
H187 C172 0.961 . S
H188 C172 0.961 . S
H189 C173 0.931 . S
H190 C178 0.930 . S
H191 C179 0.956 . S
H192 C179 0.961 . S
H193 C179 0.961 . S
H194 C180 0.958 . S
H195 C180 0.961 . S
H196 C180 0.960 . S
C197 C198 1.391 . S
C197 C199 1.394 . S
C197 H213 0.931 . S
C198 C197 1.391 . S
C198 C202 1.376 . S
C199 C197 1.394 . S
C199 C200 1.369 . S
C199 C203 1.531 . S
C200 C199 1.369 . S
C200 C201 1.410 . S
C200 C208 1.503 . S
C201 C200 1.410 . S
C201 C202 1.392 . S
C201 C204 1.511 . S
C202 C198 1.376 . S
C202 C201 1.392 . S
C202 H214 0.929 . S
C203 C199 1.531 . S
C203 H215 0.960 . S
C203 H216 0.962 . S
C203 H217 0.960 . S
C204 C201 1.511 . S
C204 H218 0.961 . S
C204 H219 0.961 . S
C204 H220 0.961 . S
C205 C206 1.370 . S
C205 C207 1.363 . S
C205 H221 0.931 . S
C206 C205 1.370 . S
C206 C210 1.408 . S
C207 C205 1.363 . S
C207 C208 1.370 . S
C207 C211 1.524 . S
C208 C200 1.503 . S
C208 C207 1.370 . S
C208 C209 1.403 . S
C209 C208 1.403 . S
C209 C210 1.404 . S
C209 C212 1.539 . S
C210 C206 1.408 . S
C210 C209 1.404 . S
C210 H222 0.930 . S
C211 C207 1.524 . S
C211 H223 0.956 . S
C211 H224 0.961 . S
C211 H225 0.961 . S
C212 C209 1.539 . S
C212 H226 0.958 . S
C212 H227 0.961 . S
C212 H228 0.960 . S
H213 C197 0.931 . S
H214 C202 0.929 . S
H215 C203 0.960 . S
H216 C203 0.962 . S
H217 C203 0.960 . S
H218 C204 0.961 . S
H219 C204 0.961 . S
H220 C204 0.961 . S
H221 C205 0.931 . S
H222 C210 0.930 . S
H223 C211 0.956 . S
H224 C211 0.961 . S
H225 C211 0.961 . S
H226 C212 0.958 . S
H227 C212 0.961 . S
H228 C212 0.960 . S
C229 C230 1.391 . S
C229 C231 1.394 . S
C229 H245 0.931 . S
C230 C229 1.391 . S
C230 C234 1.376 . S
C231 C229 1.394 . S
C231 C232 1.369 . S
C231 C235 1.531 . S
C232 C231 1.369 . S
C232 C233 1.410 . S
C232 C240 1.503 . S
C233 C232 1.410 . S
C233 C234 1.392 . S
C233 C236 1.511 . S
C234 C230 1.376 . S
C234 C233 1.392 . S
C234 H246 0.929 . S
C235 C231 1.531 . S
C235 H247 0.960 . S
C235 H248 0.962 . S
C235 H249 0.960 . S
C236 C233 1.511 . S
C236 H250 0.961 . S
C236 H251 0.961 . S
C236 H252 0.961 . S
C237 C238 1.370 . S
C237 C239 1.363 . S
C237 H253 0.931 . S
C238 C237 1.370 . S
C238 C242 1.408 . S
C239 C237 1.363 . S
C239 C240 1.370 . S
C239 C243 1.524 . S
C240 C232 1.503 . S
C240 C239 1.370 . S
C240 C241 1.403 . S
C241 C240 1.403 . S
C241 C242 1.404 . S
C241 C244 1.539 . S
C242 C238 1.408 . S
C242 C241 1.404 . S
C242 H254 0.930 . S
C243 C239 1.524 . S
C243 H255 0.956 . S
C243 H256 0.961 . S
C243 H257 0.961 . S
C244 C241 1.539 . S
C244 H258 0.958 . S
C244 H259 0.961 . S
C244 H260 0.960 . S
H245 C229 0.931 . S
H246 C234 0.929 . S
H247 C235 0.960 . S
H248 C235 0.962 . S
H249 C235 0.960 . S
H250 C236 0.961 . S
H251 C236 0.961 . S
H252 C236 0.961 . S
H253 C237 0.931 . S
H254 C242 0.930 . S
H255 C243 0.956 . S
H256 C243 0.961 . S
H257 C243 0.961 . S
H258 C244 0.958 . S
H259 C244 0.961 . S
H260 C244 0.960 . S
C261 C262 1.391 . S
C261 C263 1.394 . S
C261 H277 0.931 . S
C262 C261 1.391 . S
C262 C266 1.376 . S
C263 C261 1.394 . S
C263 C264 1.369 . S
C263 C267 1.531 . S
C264 C263 1.369 . S
C264 C265 1.410 . S
C264 C272 1.503 . S
C265 C264 1.410 . S
C265 C266 1.392 . S
C265 C268 1.511 . S
C266 C262 1.376 . S
C266 C265 1.392 . S
C266 H278 0.929 . S
C267 C263 1.531 . S
C267 H279 0.960 . S
C267 H280 0.962 . S
C267 H281 0.960 . S
C268 C265 1.511 . S
C268 H282 0.961 1_455 S
C268 H283 0.961 1_455 S
C268 H284 0.961 . S
C269 C270 1.370 1_655 S
C269 C271 1.363 . S
C269 H285 0.931 . S
C270 C269 1.370 1_455 S
C270 C274 1.408 . S
C271 C269 1.363 . S
C271 C272 1.370 1_655 S
C271 C275 1.524 . S
C272 C264 1.503 . S
C272 C271 1.370 1_455 S
C272 C273 1.403 . S
C273 C272 1.403 . S
C273 C274 1.404 . S
C273 C276 1.539 . S
C274 C270 1.408 . S
C274 C273 1.404 . S
C274 H286 0.930 . S
C275 C271 1.524 . S
C275 H287 0.956 . S
C275 H288 0.961 . S
C275 H289 0.961 . S
C276 C273 1.539 . S
C276 H290 0.958 . S
C276 H291 0.961 . S
C276 H292 0.960 . S
H277 C261 0.931 . S
H278 C266 0.929 . S
H279 C267 0.960 . S
H280 C267 0.962 . S
H281 C267 0.960 . S
H282 C268 0.961 1_655 S
H283 C268 0.961 1_655 S
H284 C268 0.961 . S
H285 C269 0.931 . S
H286 C274 0.930 . S
H287 C275 0.956 . S
H288 C275 0.961 . S
H289 C275 0.961 . S
H290 C276 0.958 . S
H291 C276 0.961 . S
H292 C276 0.960 . S
C293 C294 1.391 1_565 S
C293 C295 1.394 . S
C293 H309 0.931 . S
C294 C293 1.391 1_545 S
C294 C298 1.376 . S
C295 C293 1.394 . S
C295 C296 1.369 1_565 S
C295 C299 1.531 . S
C296 C295 1.369 1_545 S
C296 C297 1.410 . S
C296 C304 1.503 1_554 S
C297 C296 1.410 . S
C297 C298 1.392 . S
C297 C300 1.511 . S
C298 C294 1.376 . S
C298 C297 1.392 . S
C298 H310 0.929 . S
C299 C295 1.531 . S
C299 H311 0.960 1_554 S
C299 H312 0.962 . S
C299 H313 0.960 . S
C300 C297 1.511 . S
C300 H314 0.961 . S
C300 H315 0.961 1_554 S
C300 H316 0.961 . S
C301 C302 1.370 . S
C301 C303 1.363 . S
C301 H317 0.931 . S
C302 C301 1.370 . S
C302 C306 1.408 . S
C303 C301 1.363 . S
C303 C304 1.370 . S
C303 C307 1.524 . S
C304 C296 1.503 1_556 S
C304 C303 1.370 . S
C304 C305 1.403 . S
C305 C304 1.403 . S
C305 C306 1.404 . S
C305 C308 1.539 1_545 S
C306 C302 1.408 . S
C306 C305 1.404 . S
C306 H318 0.927 . S
C307 C303 1.524 . S
C307 H319 0.956 . S
C307 H320 0.961 1_556 S
C307 H321 0.961 . S
C308 C305 1.539 1_565 S
C308 H322 0.958 . S
C308 H323 0.961 1_565 S
C308 H324 0.960 1_566 S
H309 C293 0.931 . S
H310 C298 0.929 . S
H311 C299 0.960 1_556 S
H312 C299 0.962 . S
H313 C299 0.960 . S
H314 C300 0.961 . S
H315 C300 0.961 1_556 S
H316 C300 0.961 . S
H317 C301 0.931 . S
H318 C306 0.927 . S
H319 C307 0.956 . S
H320 C307 0.961 1_554 S
H321 C307 0.961 . S
H322 C308 0.958 . S
H323 C308 0.961 1_545 S
H324 C308 0.960 1_544 S
C325 C326 1.391 . S
C325 C327 1.394 . S
C325 H341 0.931 . S
C326 C325 1.391 . S
C326 C330 1.376 . S
C327 C325 1.394 . S
C327 C328 1.369 . S
C327 C331 1.531 . S
C328 C327 1.369 . S
C328 C329 1.410 . S
C328 C336 1.503 . S
C329 C328 1.410 . S
C329 C330 1.392 . S
C329 C332 1.511 . S
C330 C326 1.376 . S
C330 C329 1.392 . S
C330 H342 0.929 . S
C331 C327 1.531 . S
C331 H343 0.960 . S
C331 H344 0.962 . S
C331 H345 0.960 . S
C332 C329 1.511 . S
C332 H346 0.961 . S
C332 H347 0.961 . S
C332 H348 0.961 . S
C333 C334 1.370 . S
C333 C335 1.363 . S
C333 H349 0.931 . S
C334 C333 1.370 . S
C334 C338 1.408 . S
C335 C333 1.363 . S
C335 C336 1.370 . S
C335 C339 1.524 . S
C336 C328 1.503 . S
C336 C335 1.370 . S
C336 C337 1.403 . S
C337 C336 1.403 . S
C337 C338 1.404 . S
C337 C340 1.539 . S
C338 C334 1.408 . S
C338 C337 1.404 . S
C338 H350 0.930 . S
C339 C335 1.524 . S
C339 H351 0.956 . S
C339 H352 0.961 . S
C339 H353 0.961 . S
C340 C337 1.539 . S
C340 H354 0.958 . S
C340 H355 0.961 . S
C340 H356 0.960 . S
H341 C325 0.931 . S
H342 C330 0.929 . S
H343 C331 0.960 . S
H344 C331 0.962 . S
H345 C331 0.960 . S
H346 C332 0.961 . S
H347 C332 0.961 . S
H348 C332 0.961 . S
H349 C333 0.931 . S
H350 C338 0.930 . S
H351 C339 0.956 . S
H352 C339 0.961 . S
H353 C339 0.961 . S
H354 C340 0.958 . S
H355 C340 0.961 . S
H356 C340 0.960 . S
C70 C18 1.400 . S
C78 C65 1.394 . S
C102 C41 1.383 . S
C110 C20 1.373 . S
C134 C43 1.343 . S
C142 C64 1.362 . S
C166 C66 1.325 . S
C174 C21 1.339 . S
C198 C44 1.354 . S
C206 C19 1.341 . S
C230 C67 1.384 . S
C238 C42 1.368 . S
C262 C16 0.957 . S
C270 C17 0.956 . S
C294 C39 0.952 . S
C302 C40 0.962 . S
C326 C62 0.961 . S
C334 C63 0.955 . S
