# Generated by pormake.
# Topology unp, (4)-cn, num edge types: 1
# Building blocks:
#     Node 0, Type 0, BuildingBlock: CEKHIL_clean_sbu_0, # of connection points: 4
#     Node 1, Type 0, BuildingBlock: CEKHIL_clean_sbu_0, # of connection points: 4
#     Node 2, Type 0, BuildingBlock: CEKHIL_clean_sbu_0, # of connection points: 4
#     Node 3, Type 0, BuildingBlock: CEKHIL_clean_sbu_0, # of connection points: 4
#     Node 4, Type 0, BuildingBlock: CEKHIL_clean_sbu_0, # of connection points: 4
#     Node 5, Type 0, BuildingBlock: CEKHIL_clean_sbu_0, # of connection points: 4
#     Node 6, Type 0, BuildingBlock: CEKHIL_clean_sbu_0, # of connection points: 4
#     Node 7, Type 0, BuildingBlock: CEKHIL_clean_sbu_0, # of connection points: 4
#     Node 8, Type 0, BuildingBlock: CEKHIL_clean_sbu_0, # of connection points: 4
#     Node 9, Type 0, BuildingBlock: CEKHIL_clean_sbu_0, # of connection points: 4
#     Node 10, Type 0, BuildingBlock: CEKHIL_clean_sbu_0, # of connection points: 4
#     Node 11, Type 0, BuildingBlock: CEKHIL_clean_sbu_0, # of connection points: 4
#     Node 12, Type 0, BuildingBlock: CEKHIL_clean_sbu_0, # of connection points: 4
#     Node 13, Type 0, BuildingBlock: CEKHIL_clean_sbu_0, # of connection points: 4
#     Node 14, Type 0, BuildingBlock: CEKHIL_clean_sbu_0, # of connection points: 4
#     Node 15, Type 0, BuildingBlock: CEKHIL_clean_sbu_0, # of connection points: 4
#     Node 16, Type 0, BuildingBlock: CEKHIL_clean_sbu_0, # of connection points: 4
#     Node 17, Type 0, BuildingBlock: CEKHIL_clean_sbu_0, # of connection points: 4
#     Edge 18, Type (0, 0), BuildingBlock: CIFDUS_clean_linker_0, # of connection points: 2
#     Edge 19, Type (0, 0), BuildingBlock: CIFDUS_clean_linker_0, # of connection points: 2
#     Edge 20, Type (0, 0), BuildingBlock: CIFDUS_clean_linker_0, # of connection points: 2
#     Edge 21, Type (0, 0), BuildingBlock: CIFDUS_clean_linker_0, # of connection points: 2
#     Edge 22, Type (0, 0), BuildingBlock: CIFDUS_clean_linker_0, # of connection points: 2
#     Edge 23, Type (0, 0), BuildingBlock: CIFDUS_clean_linker_0, # of connection points: 2
#     Edge 24, Type (0, 0), BuildingBlock: CIFDUS_clean_linker_0, # of connection points: 2
#     Edge 25, Type (0, 0), BuildingBlock: CIFDUS_clean_linker_0, # of connection points: 2
#     Edge 26, Type (0, 0), BuildingBlock: CIFDUS_clean_linker_0, # of connection points: 2
#     Edge 27, Type (0, 0), BuildingBlock: CIFDUS_clean_linker_0, # of connection points: 2
#     Edge 28, Type (0, 0), BuildingBlock: CIFDUS_clean_linker_0, # of connection points: 2
#     Edge 29, Type (0, 0), BuildingBlock: CIFDUS_clean_linker_0, # of connection points: 2
#     Edge 30, Type (0, 0), BuildingBlock: CIFDUS_clean_linker_0, # of connection points: 2
#     Edge 31, Type (0, 0), BuildingBlock: CIFDUS_clean_linker_0, # of connection points: 2
#     Edge 32, Type (0, 0), BuildingBlock: CIFDUS_clean_linker_0, # of connection points: 2
#     Edge 33, Type (0, 0), BuildingBlock: CIFDUS_clean_linker_0, # of connection points: 2
#     Edge 34, Type (0, 0), BuildingBlock: CIFDUS_clean_linker_0, # of connection points: 2
#     Edge 35, Type (0, 0), BuildingBlock: CIFDUS_clean_linker_0, # of connection points: 2
#     Edge 36, Type (0, 0), BuildingBlock: CIFDUS_clean_linker_0, # of connection points: 2
#     Edge 37, Type (0, 0), BuildingBlock: CIFDUS_clean_linker_0, # of connection points: 2
#     Edge 38, Type (0, 0), BuildingBlock: CIFDUS_clean_linker_0, # of connection points: 2
#     Edge 39, Type (0, 0), BuildingBlock: CIFDUS_clean_linker_0, # of connection points: 2
#     Edge 40, Type (0, 0), BuildingBlock: CIFDUS_clean_linker_0, # of connection points: 2
#     Edge 41, Type (0, 0), BuildingBlock: CIFDUS_clean_linker_0, # of connection points: 2
#     Edge 42, Type (0, 0), BuildingBlock: CIFDUS_clean_linker_0, # of connection points: 2
#     Edge 43, Type (0, 0), BuildingBlock: CIFDUS_clean_linker_0, # of connection points: 2
#     Edge 44, Type (0, 0), BuildingBlock: CIFDUS_clean_linker_0, # of connection points: 2
#     Edge 45, Type (0, 0), BuildingBlock: CIFDUS_clean_linker_0, # of connection points: 2
#     Edge 46, Type (0, 0), BuildingBlock: CIFDUS_clean_linker_0, # of connection points: 2
#     Edge 47, Type (0, 0), BuildingBlock: CIFDUS_clean_linker_0, # of connection points: 2
#     Edge 48, Type (0, 0), BuildingBlock: CIFDUS_clean_linker_0, # of connection points: 2
#     Edge 49, Type (0, 0), BuildingBlock: CIFDUS_clean_linker_0, # of connection points: 2
#     Edge 50, Type (0, 0), BuildingBlock: CIFDUS_clean_linker_0, # of connection points: 2
#     Edge 51, Type (0, 0), BuildingBlock: CIFDUS_clean_linker_0, # of connection points: 2
#     Edge 52, Type (0, 0), BuildingBlock: CIFDUS_clean_linker_0, # of connection points: 2
#     Edge 53, Type (0, 0), BuildingBlock: CIFDUS_clean_linker_0, # of connection points: 2
# Relax obj value: 0.422
# Max RMSD: 0.187
# Mean RMSD: 0.187
data_MOF--net-unp--node1-CEKHIL_clean_sbu_0--edge1-CIFDUS_clean_linker_0
_symmetry_space_group_name_H-M    P1
_symmetry_Int_Tables_number       1
_symmetry_cell_setting            triclinic
loop_
_symmetry_equiv_pos_as_xyz
'x, y, z'
_cell_length_a     42.510357
_cell_length_b     42.542968
_cell_length_c     47.254487
_cell_angle_alpha  89.982095
_cell_angle_beta   90.03467
_cell_angle_gamma 120.0403
loop_
_atom_site_label
_atom_site_type_symbol
_atom_site_fract_x
_atom_site_fract_y
_atom_site_fract_z
_atom_type_partial_charge
Co0 Co 0.18281 0.15724 0.14792 0.0
O1 O 0.23463 0.18329 0.14611 0.0
O2 O 0.20096 0.20506 0.16399 0.0
C3 C 0.17637 0.10473 0.16487 0.0
O4 O 0.12885 0.13784 0.15419 0.0
Co5 Co 0.13767 0.08719 0.11227 0.0
O6 O 0.0981 0.08011 0.13868 0.0
C7 C 0.17602 0.15908 0.08475 0.0
C8 C 0.23294 0.20985 0.15808 0.0
C9 C 0.09981 0.10658 0.15262 0.0
O10 O 0.18064 0.17509 0.10876 0.0
O11 O 0.163 0.12482 0.08212 0.0
O12 O 0.18329 0.13123 0.18214 0.0
O13 O 0.17741 0.11239 0.13843 0.0
Co14 Co 0.85702 0.04185 0.14195 0.0
O15 O 0.83395 0.07041 0.14511 0.0
O16 O 0.80769 0.0113 0.15463 0.0
C17 C 0.90933 0.08158 0.16366 0.0
O18 O 0.87173 0.00341 0.14217 0.0
Co19 Co 0.92899 0.06847 0.10873 0.0
O20 O 0.92984 0.02737 0.12836 0.0
C21 C 0.86009 0.04598 0.07837 0.0
C22 C 0.80541 0.04057 0.15314 0.0
C23 C 0.90081 0.00171 0.13913 0.0
O24 O 0.8417 0.03144 0.10104 0.0
O25 O 0.89484 0.06504 0.07787 0.0
O26 O 0.88131 0.05937 0.17873 0.0
O27 O 0.90389 0.08071 0.13682 0.0
Co28 Co 0.97481 0.82641 0.13699 0.0
O29 O 0.93926 0.77614 0.13814 0.0
O30 O -0.00201 0.79899 0.14777 0.0
C31 C 0.94185 0.84608 0.16041 0.0
O32 O 0.01909 0.87706 0.13864 0.0
Co33 Co 0.95769 0.88069 0.10594 0.0
O34 O 0.00191 0.91746 0.12638 0.0
C35 C 0.96843 0.82746 0.07377 0.0
C36 C 0.96569 0.77074 0.14511 0.0
C37 C 0.02487 0.90967 0.13677 0.0
O38 O 0.9829 0.82148 0.09555 0.0
O39 O 0.95327 0.84695 0.07453 0.0
O40 O 0.96048 0.83472 0.17461 0.0
O41 O 0.94155 0.8422 0.13343 0.0
Co42 Co 0.15362 0.17263 0.86206 0.0
O43 O 0.16857 0.22289 0.85881 0.0
O44 O 0.20243 0.19848 0.84702 0.0
C45 C 0.09782 0.15193 0.84338 0.0
O46 O 0.14682 0.12196 0.86096 0.0
Co47 Co 0.08673 0.11993 0.89834 0.0
O48 O 0.0899 0.08248 0.87511 0.0
C49 C 0.15547 0.17354 0.92577 0.0
C50 C 0.19884 0.227 0.84886 0.0
C51 C 0.11955 0.08967 0.86298 0.0
O52 O 0.17266 0.18026 0.9021 0.0
O53 O 0.12096 0.15332 0.928 0.0
O54 O 0.12555 0.16177 0.82669 0.0
O55 O 0.10528 0.15744 0.8699 0.0
Co56 Co 0.81522 0.95785 0.86864 0.0
O57 O 0.7636 0.92764 0.86565 0.0
O58 O 0.79481 0.98602 0.85364 0.0
C59 C 0.82931 0.91781 0.84952 0.0
O60 O 0.8682 0.9975 0.86781 0.0
Co61 Co 0.86186 0.93508 0.90459 0.0
O62 O 0.90315 0.97538 0.88377 0.0
C63 C 0.81403 0.95776 0.93225 0.0
C64 C 0.76373 0.9562 0.85585 0.0
C65 C 0.89927 -3e-05 0.87158 0.0
O66 O 0.80988 0.97065 0.90879 0.0
O67 O 0.83035 0.93942 0.9342 0.0
O68 O 0.82271 0.9384 0.8331 0.0
O69 O 0.82457 0.92031 0.87611 0.0
Co70 Co 0.03147 0.84581 0.8579 0.0
O71 O 0.05728 0.81995 0.85632 0.0
O72 O -0.00158 0.79613 0.8467 0.0
C73 C 0.07329 0.8956 0.83462 0.0
O74 O 0.99618 0.86492 0.85611 0.0
Co75 Co 0.06456 0.91999 0.8891 0.0
O76 O 0.02688 0.92435 0.86714 0.0
C77 C 0.03773 0.85193 0.92125 0.0
C78 C 0.0267 0.7921 0.84874 0.0
C79 C -0.00083 0.89652 0.85689 0.0
O80 O 0.02082 0.83315 0.89928 0.0
O81 O 0.05947 0.88628 0.92071 0.0
O82 O 0.04981 0.86731 0.8204 0.0
O83 O 0.07257 0.89125 0.8616 0.0
Co84 Co 0.84445 0.47364 0.46453 0.0
O85 O 0.8961 0.49399 0.46269 0.0
O86 O 0.86782 0.51892 0.48491 0.0
C87 C 0.83053 0.41631 0.47518 0.0
O88 O 0.79254 0.46114 0.4719 0.0
Co89 Co 0.79143 0.41167 0.42451 0.0
O90 O 0.75369 0.40777 0.4516 0.0
C91 C 0.83816 0.48628 0.4028 0.0
C92 C 0.89803 0.52053 0.47762 0.0
C93 C 0.76048 0.43401 0.46822 0.0
O94 O 0.84583 0.49907 0.42811 0.0
O95 O 0.82018 0.45229 0.39714 0.0
O96 O 0.84015 0.44041 0.49518 0.0
O97 O 0.83231 0.42823 0.44987 0.0
Co98 Co 0.51525 0.35869 0.47761 0.0
O99 O 0.50121 0.39425 0.48306 0.0
O100 O 0.46427 0.33465 0.48773 0.0
C101 C 0.56747 0.38865 0.50229 0.0
O102 O 0.521 0.31419 0.47507 0.0
Co103 Co 0.58722 0.37848 0.44637 0.0
O104 O 0.57941 0.33286 0.46464 0.0
C105 C 0.52369 0.36979 0.41434 0.0
C106 C 0.46921 0.36736 0.48897 0.0
C107 C 0.54806 0.30877 0.47329 0.0
O108 O 0.50301 0.35545 0.43603 0.0
O109 O 0.55828 0.38389 0.41512 0.0
O110 O 0.53716 0.36825 0.51565 0.0
O111 O 0.56452 0.39195 0.47553 0.0
Co112 Co 0.62426 0.14141 0.46011 0.0
O113 O 0.59727 0.08956 0.46071 0.0
O114 O 0.65653 0.12315 0.46932 0.0
C115 C 0.58453 0.15056 0.48539 0.0
O116 O 0.66102 0.19555 0.46248 0.0
Co117 Co 0.59235 0.18535 0.43174 0.0
O118 O 0.63166 0.22622 0.45361 0.0
C119 C 0.61567 0.1431 0.39707 0.0
C120 C 0.62775 0.09121 0.46703 0.0
C121 C 0.65919 0.22483 0.4627 0.0
O122 O 0.63305 0.14014 0.41828 0.0
O123 O 0.59488 0.15674 0.39896 0.0
O124 O 0.60771 0.14412 0.4984 0.0
O125 O 0.58397 0.14747 0.45829 0.0
Co126 Co 0.80552 0.51175 0.18591 0.0
O127 O 0.82169 0.56224 0.18122 0.0
O128 O 0.85227 0.53497 0.16758 0.0
C129 C 0.74798 0.49124 0.17087 0.0
O130 O 0.79754 0.46065 0.18575 0.0
Co131 Co 0.74299 0.4634 0.22732 0.0
O132 O 0.74759 0.42288 0.21069 0.0
C133 C 0.81482 0.51768 0.24925 0.0
C134 C 0.85023 0.56435 0.16938 0.0
C135 C 0.77405 0.42893 0.19456 0.0
O136 O 0.82901 0.52135 0.22454 0.0
O137 O 0.78055 0.49961 0.25378 0.0
O138 O 0.77376 0.49935 0.15255 0.0
O139 O 0.75826 0.49824 0.19683 0.0
Co140 Co 0.4788 0.29204 0.20164 0.0
O141 O 0.42712 0.26877 0.19883 0.0
O142 O 0.46545 0.32637 0.18739 0.0
C143 C 0.48549 0.24775 0.18131 0.0
O144 O 0.53358 0.32483 0.20066 0.0
Co145 Co 0.51499 0.2577 0.23774 0.0
O146 O 0.5596 0.29372 0.21732 0.0
C147 C 0.47612 0.29028 0.26536 0.0
C148 C 0.43222 0.29966 0.18949 0.0
C149 C 0.56144 0.32106 0.20461 0.0
O150 O 0.47618 0.30599 0.24207 0.0
O151 O 0.48665 0.26695 0.26721 0.0
O152 O 0.48214 0.27101 0.16561 0.0
O153 O 0.48058 0.24971 0.20801 0.0
Co154 Co 0.69354 0.18295 0.18316 0.0
O155 O 0.72246 0.1603 0.18268 0.0
O156 O 0.6647 0.13402 0.1688 0.0
C157 C 0.7355 0.23603 0.16392 0.0
O158 O 0.65561 0.19853 0.17986 0.0
Co159 Co 0.71798 0.25371 0.21779 0.0
O160 O 0.68111 0.25684 0.19373 0.0
C161 C 0.6933 0.18361 0.24654 0.0
C162 C 0.69389 0.13196 0.17278 0.0
C163 C 0.65589 0.22884 0.18144 0.0
O164 O 0.67903 0.16619 0.22344 0.0
O165 O 0.71301 0.21822 0.24787 0.0
O166 O 0.71522 0.2087 0.1475 0.0
O167 O 0.73176 0.22909 0.19057 0.0
Co168 Co 0.50759 0.80759 0.82152 0.0
O169 O 0.55932 0.8308 0.82041 0.0
O170 O 0.52821 0.85673 0.83563 0.0
C171 C 0.49744 0.75499 0.8412 0.0
O172 O 0.45398 0.79133 0.82625 0.0
Co173 Co 0.4611 0.73651 0.78728 0.0
O174 O 0.42118 0.7334 0.81136 0.0
C175 C 0.50084 0.80682 0.75778 0.0
C176 C 0.55942 0.85908 0.83072 0.0
C177 C 0.42387 0.7611 0.82406 0.0
O178 O 0.50718 0.8239 0.78147 0.0
O179 O 0.48635 0.77229 0.75593 0.0
O180 O 0.5056 0.78293 0.85718 0.0
O181 O 0.49973 0.7612 0.8144 0.0
Co182 Co 0.18384 0.70113 0.79443 0.0
O183 O 0.16553 0.73317 0.78682 0.0
O184 O 0.13334 0.67782 0.80525 0.0
C185 C 0.23617 0.74269 0.81507 0.0
O186 O 0.19333 0.66064 0.80568 0.0
Co187 Co 0.25599 0.71399 0.76746 0.0
O188 O 0.25092 0.67631 0.7951 0.0
C189 C 0.19013 0.68915 0.73253 0.0
C190 C 0.13465 0.70736 0.79629 0.0
C191 C 0.22055 0.65542 0.80702 0.0
O192 O 0.17035 0.68122 0.75486 0.0
O193 O 0.22491 0.70575 0.73303 0.0
O194 O 0.20652 0.72639 0.82999 0.0
O195 O 0.23248 0.73542 0.78844 0.0
Co196 Co 0.28696 0.48355 0.80298 0.0
O197 O 0.25023 0.43425 0.79734 0.0
O198 O 0.30746 0.45251 0.80925 0.0
C199 C 0.25296 0.49941 0.82933 0.0
O200 O 0.33191 0.53226 0.81103 0.0
Co201 Co 0.27493 0.54532 0.77993 0.0
O202 O 0.31815 0.57637 0.80385 0.0
C203 C 0.28912 0.50003 0.74081 0.0
C204 C 0.27515 0.42606 0.8029 0.0
C205 C 0.33927 0.56539 0.81291 0.0
O206 O 0.29943 0.4877 0.7615 0.0
O207 O 0.27482 0.52006 0.74402 0.0
O208 O 0.26934 0.48407 0.84144 0.0
O209 O 0.2553 0.50154 0.8022 0.0
Co210 Co 0.47911 0.85472 0.53717 0.0
O211 O 0.50544 0.9061 0.54281 0.0
O212 O 0.52838 0.87409 0.5238 0.0
C213 C 0.42868 0.85108 0.5181 0.0
O214 O 0.45979 0.80168 0.52732 0.0
Co215 Co 0.40606 0.80716 0.56869 0.0
O216 O 0.40144 0.76953 0.54127 0.0
C217 C 0.47532 0.83963 0.59984 0.0
C218 C 0.533 0.90539 0.53174 0.0
C219 C 0.42869 0.77235 0.52771 0.0
O220 O 0.49309 0.84742 0.57642 0.0
O221 O 0.441 0.82713 0.60124 0.0
O222 O 0.45685 0.85964 0.50227 0.0
O223 O 0.4335 0.84897 0.54479 0.0
Co224 Co 0.15903 0.63951 0.50863 0.0
O225 O 0.10772 0.60799 0.5109 0.0
O226 O 0.13482 0.66474 0.49482 0.0
C227 C 0.17161 0.59875 0.48897 0.0
O228 O 0.21136 0.67956 0.50266 0.0
Co229 Co 0.21111 0.6206 0.54123 0.0
O230 O 0.24829 0.65851 0.51602 0.0
C231 C 0.16811 0.6467 0.57199 0.0
C232 C 0.10496 0.63463 0.50035 0.0
C233 C 0.24272 0.68198 0.50373 0.0
O234 O 0.15965 0.65636 0.54868 0.0
O235 O 0.18499 0.62886 0.57316 0.0
O236 O 0.16153 0.61701 0.47299 0.0
O237 O 0.17044 0.60343 0.51576 0.0
Co238 Co 0.38237 0.53922 0.52823 0.0
O239 O 0.41907 0.52687 0.53507 0.0
O240 O 0.36363 0.48873 0.51883 0.0
C241 C 0.41878 0.5923 0.50609 0.0
O242 O 0.33763 0.54251 0.51829 0.0
Co243 Co 0.38944 0.60927 0.55523 0.0
O244 O 0.34661 0.59745 0.53103 0.0
C245 C 0.37354 0.54611 0.5906 0.0
C246 C 0.39519 0.49426 0.52716 0.0
C247 C 0.32812 0.56679 0.51881 0.0
O248 O 0.36535 0.52589 0.56851 0.0
O249 O 0.38742 0.58061 0.58965 0.0
O250 O 0.40441 0.56218 0.49172 0.0
O251 O 0.41279 0.58882 0.53288 0.0
H252 H 0.37701 0.2939 0.22088 0.0
H253 H 0.41755 0.30867 0.13559 0.0
H254 H 0.35663 0.28855 0.117 0.0
H255 H 0.29083 0.2521 0.12577 0.0
H256 H 0.25017 0.23729 0.21104 0.0
H257 H 0.31223 0.27316 0.22919 0.0
C258 C 0.37261 0.29429 0.19829 0.0
C259 C 0.40112 0.30226 0.17948 0.0
C260 C 0.33751 0.28219 0.18789 0.0
C261 C 0.39569 0.30271 0.15028 0.0
C262 C 0.36085 0.29083 0.1397 0.0
C263 C 0.29567 0.25824 0.14818 0.0
C264 C 0.26653 0.24193 0.16721 0.0
C265 C 0.33131 0.27832 0.15834 0.0
C266 C 0.27251 0.24981 0.19616 0.0
C267 C 0.30795 0.26991 0.20651 0.0
H268 H 0.75934 0.04754 0.11846 0.0
H269 H 0.78011 0.03654 0.20605 0.0
H270 H 0.73811 0.05706 0.22075 0.0
H271 H 0.70792 0.09151 0.20807 0.0
H272 H 0.68785 0.10353 0.12054 0.0
H273 H 0.71608 0.06803 0.10608 0.0
C274 C 0.75338 0.04832 0.14069 0.0
C275 C 0.77259 0.04104 0.16128 0.0
C276 C 0.72967 0.06056 0.14884 0.0
C277 C 0.76524 0.04206 0.19004 0.0
C278 C 0.74153 0.05402 0.19838 0.0
C279 C 0.70831 0.0848 0.18595 0.0
C280 C 0.69632 0.1 0.16527 0.0
C281 C 0.72529 0.06527 0.17794 0.0
C282 C 0.69685 0.09168 0.13667 0.0
C283 C 0.7134 0.07186 0.12844 0.0
H284 H 0.91069 0.61669 0.19472 0.0
H285 H 0.84932 0.58815 0.11711 0.0
H286 H 0.88565 0.65059 0.10007 0.0
H287 H 0.92656 0.71446 0.11127 0.0
H288 H 0.98722 0.74448 0.18922 0.0
H289 H 0.96023 0.68015 0.20215 0.0
C290 C 0.9063 0.62417 0.17375 0.0
C291 C 0.87771 0.59851 0.15701 0.0
C292 C 0.92679 0.66024 0.16445 0.0
C293 C 0.8715 0.60789 0.13005 0.0
C294 C 0.89204 0.64348 0.12045 0.0
C295 C 0.93454 0.70671 0.13071 0.0
C296 C 0.95819 0.73361 0.14954 0.0
C297 C 0.91853 0.67009 0.13803 0.0
C298 C 0.96894 0.72385 0.17452 0.0
C299 C 0.95328 0.6872 0.18197 0.0
H300 H 0.30252 0.39296 0.836 0.0
H301 H 0.22675 0.37406 0.76845 0.0
H302 H 0.20101 0.30874 0.77322 0.0
H303 H 0.19239 0.25779 0.80232 0.0
H304 H 0.26414 0.27515 0.87225 0.0
H305 H 0.2997 0.34018 0.86078 0.0
C306 C 0.28107 0.37442 0.82192 0.0
C307 C 0.26598 0.38794 0.80228 0.0
C308 C 0.2655 0.33672 0.82546 0.0
C309 C 0.23822 0.36398 0.78405 0.0
C310 C 0.2235 0.32669 0.78676 0.0
C311 C 0.2166 0.27577 0.81436 0.0
C312 C 0.226 0.26234 0.8379 0.0
C313 C 0.23576 0.31284 0.80824 0.0
C314 C 0.25694 0.28534 0.8538 0.0
C315 C 0.27692 0.32243 0.84741 0.0
H316 H 0.70821 0.94836 0.88812 0.0
H317 H 0.74359 0.95589 0.80177 0.0
H318 H 0.68119 0.93218 0.78505 0.0
H319 H 0.616 0.89721 0.79627 0.0
H320 H 0.58033 0.88992 0.8825 0.0
H321 H 0.6435 0.9267 0.89826 0.0
C322 C 0.70224 0.94605 0.86564 0.0
C323 C 0.72985 0.95343 0.84606 0.0
C324 C 0.66636 0.93219 0.85633 0.0
C325 C 0.7224 0.9504 0.81701 0.0
C326 C 0.68679 0.9366 0.80753 0.0
C327 C 0.62218 0.90507 0.81832 0.0
C328 C 0.59409 0.89092 0.83834 0.0
C329 C 0.6584 0.92566 0.82711 0.0
C330 C 0.60184 0.90089 0.86685 0.0
C331 C 0.6379 0.92148 0.87585 0.0
H332 H 0.08614 0.68835 0.83897 0.0
H333 H 0.11402 0.7392 0.75687 0.0
H334 H 0.07149 0.76137 0.7633 0.0
H335 H 0.03855 0.77823 0.7965 0.0
H336 H 0.01874 0.73613 0.88137 0.0
H337 H 0.04461 0.69757 0.86975 0.0
C338 C 0.08187 0.70328 0.82224 0.0
C339 C 0.10321 0.71266 0.79768 0.0
C340 C 0.05891 0.71765 0.8268 0.0
C341 C 0.09801 0.73221 0.77608 0.0
C342 C 0.07378 0.74488 0.77977 0.0
C343 C 0.03834 0.75919 0.81191 0.0
C344 C 0.02658 0.75937 0.83951 0.0
C345 C 0.05571 0.73948 0.80564 0.0
C346 C 0.02719 0.73567 0.85982 0.0
C347 C 0.0425 0.71416 0.85328 0.0
H348 H 0.95394 0.5653 0.44432 0.0
H349 H 0.92036 0.5413 0.53138 0.0
H350 H 0.98305 0.58135 0.54708 0.0
H351 H 0.0482 0.61377 0.53518 0.0
H352 H 0.08166 0.63985 0.44828 0.0
H353 H 0.018 0.60932 0.43309 0.0
C354 C 0.96043 0.56974 0.4667 0.0
C355 C 0.93326 0.55027 0.48679 0.0
C356 C 0.99628 0.59301 0.47544 0.0
C357 C 0.94126 0.55615 0.51572 0.0
C358 C 0.97699 0.57884 0.52464 0.0
C359 C 0.04134 0.61392 0.51307 0.0
C360 C 0.06905 0.62862 0.49275 0.0
C361 C 0.00488 0.59615 0.50462 0.0
C362 C 0.06043 0.62883 0.46416 0.0
C363 C 0.02414 0.611 0.45549 0.0
H364 H 0.36907 0.43395 0.49381 0.0
H365 H 0.4412 0.48963 0.56366 0.0
H366 H 0.46465 0.44793 0.56188 0.0
H367 H 0.47276 0.40379 0.53513 0.0
H368 H 0.40542 0.35074 0.46278 0.0
H369 H 0.37117 0.38238 0.47107 0.0
C370 C 0.38934 0.4363 0.50894 0.0
C371 C 0.40409 0.46514 0.5284 0.0
C372 C 0.40358 0.41281 0.50722 0.0
C373 C 0.43016 0.46805 0.54807 0.0
C374 C 0.44348 0.44419 0.54715 0.0
C375 C 0.44967 0.39826 0.52187 0.0
C376 C 0.44129 0.37525 0.49855 0.0
C377 C 0.43157 0.41763 0.52605 0.0
C378 C 0.41178 0.36819 0.48111 0.0
C379 C 0.39265 0.38664 0.48564 0.0
H380 H 0.6339 0.06968 0.51871 0.0
H381 H 0.61815 0.03764 0.43117 0.0
H382 H 0.59557 0.97434 0.44471 0.0
H383 H 0.56603 0.92767 0.48141 0.0
H384 H 0.57199 0.95989 0.5685 0.0
H385 H 0.61338 0.02326 0.55575 0.0
C386 C 0.62707 0.04893 0.50272 0.0
C387 C 0.62778 0.05782 0.47412 0.0
C388 C 0.61165 0.01246 0.5108 0.0
C389 C 0.61804 0.03103 0.45333 0.0
C390 C 0.60478 0.99489 0.4611 0.0
C391 C 0.57777 0.94851 0.49761 0.0
C392 C 0.56628 0.93961 0.52574 0.0
C393 C 0.59933 0.98506 0.48978 0.0
C394 C 0.58075 0.96653 0.5467 0.0
C395 C 0.60411 0.00269 0.53937 0.0
H396 H 0.07453 0.15352 0.1519 0.0
H397 H 0.05016 0.04847 0.18287 0.0
H398 H 0.99063 0.03657 0.19918 0.0
H399 H 0.94028 0.04904 0.19234 0.0
H400 H 0.96252 0.15047 0.155 0.0
H401 H 0.02731 0.17066 0.15311 0.0
C402 C 0.05623 0.12822 0.16252 0.0
C403 C 0.06626 0.10163 0.16581 0.0
C404 C 0.02104 0.12043 0.16982 0.0
C405 C 0.04259 0.069 0.17966 0.0
C406 C 0.00843 0.06204 0.1887 0.0
C407 C 0.95964 0.07621 0.18511 0.0
C408 C 0.94694 0.09835 0.17385 0.0
C409 C 0.9965 0.08655 0.18225 0.0
C410 C 0.97196 0.13318 0.16391 0.0
C411 C 0.0089 0.14447 0.16243 0.0
H412 H 0.95139 0.9939 0.16813 0.0
H413 H 0.84675 0.93345 0.12808 0.0
H414 H 0.84625 0.87664 0.13728 0.0
H415 H 0.8801 0.84604 0.15024 0.0
H416 H 0.9826 0.90515 0.19347 0.0
H417 H 0.97892 0.96086 0.19102 0.0
C418 C 0.92833 0.96821 0.16202 0.0
C419 C 0.89955 0.9677 0.14707 0.0
C420 C 0.92772 0.93566 0.16828 0.0
C421 C 0.86938 0.93434 0.13937 0.0
C422 C 0.86902 0.90193 0.14471 0.0
C423 C 0.90072 0.87077 0.16032 0.0
C424 C 0.93188 0.87204 0.17155 0.0
C425 C 0.89851 0.90243 0.15843 0.0
C426 C 0.95848 0.9039 0.18466 0.0
C427 C 0.95664 0.93577 0.18279 0.0
H428 H 0.17708 0.04876 0.13952 0.0
H429 H 0.12708 0.07498 0.20783 0.0
H430 H 0.07573 0.01277 0.20759 0.0
H431 H 0.03938 0.95652 0.18006 0.0
H432 H 0.08946 0.93023 0.1119 0.0
H433 H 0.14648 0.98728 0.11948 0.0
C434 C 0.1556 0.04035 0.1551 0.0
C435 C 0.15538 0.06634 0.17331 0.0
C436 C 0.12567 0.00509 0.15405 0.0
C437 C 0.12779 0.05535 0.19365 0.0
C438 C 0.0981 0.01997 0.19312 0.0
C439 C 0.06311 0.96292 0.16746 0.0
C440 C 0.06043 0.93983 0.14521 0.0
C441 C 0.09574 0.99548 0.17216 0.0
C442 C 0.09119 0.94797 0.12903 0.0
C443 C 0.12365 0.9805 0.13335 0.0
H444 H 0.13545 0.95298 0.85188 0.0
H445 H 0.04583 0.92172 0.79446 0.0
H446 H 0.05633 0.98379 0.79502 0.0
H447 H 0.07949 0.04055 0.82274 0.0
H448 H 0.16886 0.07155 0.88038 0.0
H449 H 0.16907 0.01529 0.86988 0.0
C450 C 0.11918 0.96021 0.8386 0.0
C451 C 0.08938 0.93288 0.82377 0.0
C452 C 0.12399 0.99517 0.84041 0.0
C453 C 0.06883 0.94236 0.80617 0.0
C454 C 0.07429 0.97763 0.80705 0.0
C455 C 0.09952 0.03527 0.83239 0.0
C456 C 0.12355 0.05934 0.85277 0.0
C457 C 0.09979 0.00323 0.8259 0.0
C458 C 0.14986 0.05288 0.86491 0.0
C459 C 0.15 0.02086 0.85888 0.0
H460 H 0.03863 0.15288 0.86108 0.0
H461 H 0.07323 0.09268 0.80912 0.0
H462 H 0.01247 0.0388 0.81245 0.0
H463 H 0.95304 0.00697 0.83719 0.0
H464 H 0.91788 0.06835 0.88691 0.0
H465 H 0.97545 0.12412 0.87758 0.0
C466 C 0.03232 0.12837 0.84952 0.0
C467 C 0.06015 0.12631 0.83518 0.0
C468 C -0.00234 0.09771 0.85183 0.0
C469 C 0.052 0.09468 0.8202 0.0
C470 C 0.01749 0.0638 0.82249 0.0
C471 C 0.95799 0.03269 0.84549 0.0
C472 C 0.93196 0.03372 0.86308 0.0
C473 C 0.99073 0.06461 0.83942 0.0
C474 C 0.93791 0.06711 0.87351 0.0
C475 C 0.97071 0.09889 0.86816 0.0
H476 H 0.92692 0.84987 0.86299 0.0
H477 H 0.00402 0.95297 0.82661 0.0
H478 H 0.95483 0.9629 0.81164 0.0
H479 H 0.8919 0.94949 0.81967 0.0
H480 H 0.8165 0.85081 0.86256 0.0
H481 H 0.86228 0.83216 0.86473 0.0
C482 C 0.93278 0.87439 0.85165 0.0
C483 C 0.96899 0.90085 0.84612 0.0
C484 C 0.90451 0.88124 0.84512 0.0
C485 C 0.97638 0.93246 0.83138 0.0
C486 C 0.94824 0.93835 0.82313 0.0
C487 C 0.88516 0.92322 0.82832 0.0
C488 C 0.85103 0.9014 0.84082 0.0
C489 C 0.91242 0.91392 0.83126 0.0
C490 C 0.84266 0.86781 0.85263 0.0
C491 C 0.86897 0.85742 0.85424 0.0
H492 H 0.70586 0.3811 0.4989 0.0
H493 H 0.74746 0.48993 0.4678 0.0
H494 H 0.69222 0.48915 0.48338 0.0
H495 H 0.62815 0.45279 0.49706 0.0
H496 H 0.58692 0.34507 0.53032 0.0
H497 H 0.64675 0.35047 0.52419 0.0
C498 C 0.70297 0.40476 0.4962 0.0
C499 C 0.72994 0.43511 0.48172 0.0
C500 C 0.67153 0.40435 0.5058 0.0
C501 C 0.72663 0.46612 0.47864 0.0
C502 C 0.69517 0.4657 0.48757 0.0
C503 C 0.63287 0.43129 0.50433 0.0
C504 C 0.60336 0.39828 0.51342 0.0
C505 C 0.6669 0.43441 0.5001 0.0
C506 C 0.60944 0.3706 0.52306 0.0
C507 C 0.64341 0.37346 0.51904 0.0
H508 H 0.58565 0.29182 0.51053 0.0
H509 H 0.4974 0.24487 0.45063 0.0
H510 H 0.49464 0.18615 0.45484 0.0
H511 H 0.5254 0.15275 0.46866 0.0
H512 H 0.61355 0.19969 0.5287 0.0
H513 H 0.60615 0.25291 0.53341 0.0
C514 C 0.56527 0.26847 0.49899 0.0
C515 C 0.54228 0.27252 0.47984 0.0
C516 C 0.5635 0.2348 0.50192 0.0
C517 C 0.51556 0.24217 0.46524 0.0
C518 C 0.51399 0.20871 0.46767 0.0
C519 C 0.5421 0.17409 0.48356 0.0
C520 C 0.57053 0.17289 0.49777 0.0
C521 C 0.53891 0.20524 0.485 0.0
C522 C 0.59157 0.20014 0.51743 0.0
C523 C 0.58782 0.2309 0.51967 0.0
H524 H 0.7698 0.38113 0.50684 0.0
H525 H 0.84103 0.36426 0.45224 0.0
H526 H 0.79493 0.30019 0.44683 0.0
H527 H 0.73067 0.25219 0.45078 0.0
H528 H 0.65708 0.27299 0.49893 0.0
H529 H 0.70735 0.33097 0.51483 0.0
C530 C 0.7756 0.36297 0.49472 0.0
C531 C 0.80871 0.37702 0.4802 0.0
C532 C 0.748 0.32691 0.49004 0.0
C533 C 0.81576 0.35368 0.46386 0.0
C534 C 0.78924 0.31723 0.46045 0.0
C535 C 0.72588 0.26944 0.46492 0.0
C536 C 0.6903 0.25853 0.47364 0.0
C537 C 0.75463 0.30403 0.47226 0.0
C538 C 0.68421 0.28101 0.49183 0.0
C539 C 0.71295 0.31436 0.5007 0.0
H540 H 0.79211 0.29273 0.18796 0.0
H541 H 0.71205 0.26429 0.12223 0.0
H542 H 0.72084 0.32576 0.12359 0.0
H543 H 0.74161 0.38234 0.15084 0.0
H544 H 0.81714 0.40772 0.21965 0.0
H545 H 0.81966 0.35244 0.21014 0.0
C546 C 0.77765 0.30051 0.17317 0.0
C547 C 0.75121 0.27416 0.15529 0.0
C548 C 0.78108 0.33484 0.17548 0.0
C549 C 0.73273 0.28429 0.13605 0.0
C550 C 0.7372 0.31918 0.13729 0.0
C551 C 0.75882 0.37585 0.1635 0.0
C552 C 0.77857 0.39827 0.1863 0.0
C553 C 0.75959 0.3438 0.15815 0.0
C554 C 0.80144 0.3903 0.20226 0.0
C555 C 0.80293 0.35888 0.19676 0.0
H556 H 0.72004 0.42128 0.15844 0.0
H557 H 0.69084 0.50297 0.17309 0.0
H558 H 0.62752 0.45581 0.18151 0.0
H559 H 0.58356 0.39187 0.19289 0.0
H560 H 0.61928 0.31319 0.1914 0.0
H561 H 0.67715 0.35801 0.17087 0.0
C562 C 0.69955 0.42847 0.16297 0.0
C563 C 0.70972 0.46515 0.165 0.0
C564 C 0.66466 0.40154 0.17116 0.0
C565 C 0.68324 0.47468 0.1709 0.0
C566 C 0.64731 0.44777 0.17628 0.0
C567 C 0.60394 0.38453 0.18784 0.0
C568 C 0.59685 0.34899 0.19308 0.0
C569 C 0.63818 0.41119 0.17787 0.0
C570 C 0.6238 0.3401 0.18703 0.0
C571 C 0.65694 0.36576 0.17532 0.0
H572 H 0.54408 0.2761 0.14686 0.0
H573 H 0.47481 0.18219 0.19739 0.0
H574 H 0.52079 0.16376 0.19714 0.0
H575 H 0.58508 0.18174 0.19144 0.0
H576 H 0.65704 0.28073 0.14731 0.0
H577 H 0.60584 0.2893 0.13522 0.0
C578 C 0.53851 0.25077 0.15669 0.0
C579 C 0.50628 0.23046 0.17213 0.0
C580 C 0.56608 0.24176 0.1581 0.0
C581 C 0.49952 0.19811 0.18534 0.0
C582 C 0.52597 0.18784 0.18549 0.0
C583 C 0.58925 0.20474 0.1787 0.0
C584 C 0.62456 0.23081 0.17049 0.0
C585 C 0.56011 0.21063 0.17341 0.0
C586 C 0.62998 0.26059 0.15406 0.0
C587 C 0.60074 0.26544 0.14714 0.0
H588 H 0.26233 0.71219 0.85104 0.0
H589 H 0.29185 0.80976 0.80402 0.0
H590 H 0.35619 0.82835 0.80809 0.0
H591 H 0.40183 0.80977 0.81532 0.0
H592 H 0.37022 0.70698 0.8549 0.0
H593 H 0.3098 0.69799 0.86456 0.0
C594 C 0.28308 0.73824 0.84284 0.0
C595 C 0.27271 0.75976 0.82741 0.0
C596 C 0.3197 0.74723 0.8433 0.0
C597 C 0.29951 0.79306 0.81624 0.0
C598 C 0.3362 0.80339 0.81819 0.0
C599 C 0.38183 0.78582 0.82658 0.0
C600 C 0.39015 0.75894 0.83428 0.0
C601 C 0.34636 0.7796 0.83013 0.0
C602 C 0.36415 0.72782 0.84861 0.0
C603 C 0.32952 0.72254 0.85388 0.0
H604 H 0.18986 0.49844 0.82459 0.0
H605 H 0.29449 0.55511 0.86502 0.0
H606 H 0.29224 0.61152 0.86435 0.0
H607 H 0.26729 0.64624 0.84046 0.0
H608 H 0.16128 0.58863 0.80195 0.0
H609 H 0.15698 0.53068 0.81364 0.0
C610 C 0.21115 0.52269 0.83474 0.0
C611 C 0.2427 0.5232 0.84412 0.0
C612 C 0.20994 0.55496 0.83358 0.0
C613 C 0.27008 0.55439 0.85747 0.0
C614 C 0.2691 0.58678 0.85655 0.0
C615 C 0.24288 0.62097 0.83549 0.0
C616 C 0.21505 0.62151 0.81985 0.0
C617 C 0.24035 0.58777 0.84272 0.0
C618 C 0.18319 0.58873 0.81376 0.0
C619 C 0.18073 0.55563 0.82041 0.0
H620 H 0.49605 0.69557 0.82068 0.0
H621 H 0.44534 0.73066 0.8822 0.0
H622 H 0.39121 0.67023 0.88215 0.0
H623 H 0.35364 0.6138 0.85504 0.0
H624 H 0.40466 0.57846 0.79398 0.0
H625 H 0.46343 0.63286 0.80304 0.0
C626 C 0.47371 0.68943 0.83496 0.0
C627 C 0.47417 0.71746 0.85095 0.0
C628 C 0.44233 0.65515 0.834 0.0
C629 C 0.44549 0.70941 0.86968 0.0
C630 C 0.41426 0.67507 0.86922 0.0
C631 C 0.3779 0.61761 0.84442 0.0
C632 C 0.37506 0.59286 0.82352 0.0
C633 C 0.41152 0.64871 0.84995 0.0
C634 C 0.40647 0.59749 0.81003 0.0
C635 C 0.43995 0.62858 0.81514 0.0
H636 H 0.48066 0.75427 0.51783 0.0
H637 H 0.36691 0.71711 0.50539 0.0
H638 H 0.35777 0.66062 0.48521 0.0
H639 H 0.37911 0.61696 0.48071 0.0
H640 H 0.48801 0.64835 0.50607 0.0
H641 H 0.50318 0.7118 0.5096 0.0
C642 C 0.45408 0.73402 0.51013 0.0
C643 C 0.42451 0.73995 0.51284 0.0
C644 C 0.44842 0.70027 0.50064 0.0
C645 C 0.39011 0.71334 0.5032 0.0
C646 C 0.38484 0.68085 0.49179 0.0
C647 C 0.40639 0.63801 0.48612 0.0
C648 C 0.43228 0.62823 0.49341 0.0
C649 C 0.41339 0.67334 0.49162 0.0
C650 C 0.46776 0.65549 0.50011 0.0
C651 C 0.47613 0.69159 0.5028 0.0
H652 H 0.26328 0.75014 0.51962 0.0
H653 H 0.29399 0.68779 0.46641 0.0
H654 H 0.35377 0.74143 0.45849 0.0
H655 H 0.40128 0.80042 0.47678 0.0
H656 H 0.37267 0.85855 0.53639 0.0
H657 H 0.30841 0.813 0.53164 0.0
C658 C 0.28282 0.74876 0.50566 0.0
C659 C 0.27468 0.71536 0.4937 0.0
C660 C 0.31787 0.77892 0.50292 0.0
C661 C 0.30001 0.7134 0.47587 0.0
C662 C 0.33415 0.744 0.47146 0.0
C663 C 0.38073 0.80388 0.48764 0.0
C664 C 0.39141 0.8326 0.50691 0.0
C665 C 0.34414 0.7762 0.48634 0.0
C666 C 0.36482 0.83658 0.52141 0.0
C667 C 0.32817 0.81031 0.51895 0.0
H668 H 0.31486 0.60014 0.4755 0.0
H669 H 0.26244 0.51387 0.53642 0.0
H670 H 0.20388 0.50943 0.52626 0.0
H671 H 0.17187 0.53987 0.50833 0.0
H672 H 0.22464 0.62785 0.4488 0.0
H673 H 0.27863 0.62128 0.44921 0.0
C674 C 0.29041 0.57996 0.48602 0.0
C675 C 0.2927 0.55796 0.50711 0.0
C676 C 0.25708 0.57798 0.48029 0.0
C677 C 0.261 0.53114 0.52021 0.0
C678 C 0.22766 0.52875 0.5145 0.0
C679 C 0.1946 0.55639 0.49444 0.0
C680 C 0.19473 0.58456 0.47888 0.0
C681 C 0.22585 0.55333 0.4957 0.0
C682 C 0.224 0.60586 0.46083 0.0
C683 C 0.25511 0.60253 0.4615 0.0
H684 H 0.2172 0.16182 0.04059 0.0
H685 H 0.1463 0.20007 0.06979 0.0
H686 H 0.13897 0.21543 0.0212 0.0
H687 H 0.14204 0.20459 0.97032 0.0
H688 H 0.21314 0.16655 0.94114 0.0
H689 H 0.2321 0.16537 0.98985 0.0
C690 C 0.20133 0.17486 0.03631 0.0
C691 C 0.18194 0.17952 0.05839 0.0
C692 C 0.19699 0.18315 0.00838 0.0
C693 C 0.1615 0.19644 0.05296 0.0
C694 C 0.15703 0.20483 0.02519 0.0
C695 C 0.16273 0.19741 0.97465 0.0
C696 C 0.17587 0.18516 0.95248 0.0
C697 C 0.17304 0.19637 0.00266 0.0
C698 C 0.20279 0.17611 0.958 0.0
C699 C 0.21329 0.17505 0.98585 0.0
H700 H 0.8335 0.02544 0.94917 0.0
H701 H 0.7758 0.91361 0.97574 0.0
H702 H 0.7774 0.93231 0.02491 0.0
H703 H 0.80742 0.98014 0.06067 0.0
H704 H 0.87297 0.09148 0.03413 0.0
H705 H 0.85569 0.0738 0.98485 0.0
C706 C 0.82002 0.00529 0.96565 0.0
C707 C 0.80457 0.96833 0.95911 0.0
C708 C 0.82317 0.01633 0.99401 0.0
C709 C 0.78779 0.94226 0.98052 0.0
C710 C 0.78899 0.95296 0.0086 0.0
C711 C 0.81675 0.00058 0.04415 0.0
C712 C 0.84152 0.03693 0.05079 0.0
C713 C 0.80842 0.98989 0.01575 0.0
C714 C 0.85398 0.06327 0.02931 0.0
C715 C 0.84427 0.05314 0.00116 0.0
H716 H 0.97114 0.81078 0.94369 0.0
H717 H 0.08521 0.85743 0.96179 0.0
H718 H 0.07207 0.8453 0.01226 0.0
H719 H 0.02968 0.83384 0.05139 0.0
H720 H 0.91694 0.79576 0.03319 0.0
H721 H 0.92747 0.79125 0.98288 0.0
C722 C 0.99284 0.81692 0.95866 0.0
C723 C 0.02898 0.83488 0.94932 0.0
C724 C 0.98523 0.81193 0.98774 0.0
C725 C 0.05715 0.84351 0.96875 0.0
C726 C 0.04967 0.83684 0.99757 0.0
C727 C 0.00728 0.82332 0.03646 0.0
C728 C 0.97271 0.81527 0.0457 0.0
C729 C 0.01403 0.82288 0.00742 0.0
C730 C 0.94384 0.80222 0.0263 0.0
C731 C 0.94989 0.79984 0.99757 0.0
H732 H 0.80819 0.54951 0.29654 0.0
H733 H 0.87176 0.50718 0.25902 0.0
H734 H 0.89202 0.50049 0.30591 0.0
H735 H 0.87818 0.49191 0.35695 0.0
H736 H 0.81423 0.53371 0.39448 0.0
H737 H 0.80805 0.55617 0.3483 0.0
C738 C 0.82776 0.54035 0.29866 0.0
C739 C 0.83803 0.52822 0.2746 0.0
C740 C 0.83857 0.53585 0.32569 0.0
C741 C 0.86354 0.51666 0.27733 0.0
C742 C 0.87471 0.51237 0.30416 0.0
C743 C 0.86429 0.50738 0.35509 0.0
C744 C 0.84633 0.51096 0.37873 0.0
C745 C 0.86046 0.51965 0.32846 0.0
C746 C 0.82834 0.53089 0.37643 0.0
C747 C 0.82449 0.54334 0.35 0.0
H748 H 0.50614 0.35906 0.28418 0.0
H749 H 0.4306 0.24818 0.30684 0.0
H750 H 0.43185 0.26594 0.35622 0.0
H751 H 0.46503 0.31012 0.39375 0.0
H752 H 0.54738 0.41893 0.37152 0.0
H753 H 0.53255 0.40549 0.32139 0.0
C754 C 0.48893 0.33918 0.29982 0.0
C755 C 0.46835 0.30248 0.29216 0.0
C756 C 0.49161 0.34926 0.3284 0.0
C757 C 0.44662 0.27662 0.3125 0.0
C758 C 0.44756 0.28674 0.34071 0.0
C759 C 0.47867 0.33121 0.37795 0.0
C760 C 0.50733 0.36532 0.38611 0.0
C761 C 0.47151 0.32258 0.34913 0.0
C762 C 0.5253 0.39239 0.36555 0.0
C763 C 0.517 0.38463 0.33691 0.0
H764 H 0.67986 0.1558 0.37548 0.0
H765 H 0.56689 0.11232 0.35443 0.0
H766 H 0.5806 0.11272 0.3042 0.0
H767 H 0.62626 0.13765 0.26637 0.0
H768 H 0.73985 0.18872 0.28765 0.0
H769 H 0.72468 0.17246 0.33741 0.0
C770 C 0.65818 0.14529 0.35991 0.0
C771 C 0.62257 0.13443 0.36842 0.0
C772 C 0.66657 0.14742 0.331 0.0
C773 C 0.59461 0.12117 0.34817 0.0
C774 C 0.60245 0.12152 0.31947 0.0
C775 C 0.64748 0.14386 0.28182 0.0
C776 C 0.68399 0.16425 0.27366 0.0
C777 C 0.63856 0.13637 0.31057 0.0
C778 C 0.71152 0.17294 0.29372 0.0
C779 C 0.70285 0.16391 0.32214 0.0
H780 H 0.47227 0.87047 0.6488 0.0
H781 H 0.51875 0.81122 0.61029 0.0
H782 H 0.53606 0.79979 0.65698 0.0
H783 H 0.52811 0.79796 0.70874 0.0
H784 H 0.48356 0.85906 0.7472 0.0
H785 H 0.47604 0.87934 0.70051 0.0
C786 C 0.48713 0.85598 0.6507 0.0
C787 C 0.49393 0.84127 0.62645 0.0
C788 C 0.49699 0.84965 0.67752 0.0
C789 C 0.51339 0.82278 0.62883 0.0
C790 C 0.52298 0.81602 0.65549 0.0
C791 C 0.51774 0.81656 0.70684 0.0
C792 C 0.50589 0.82667 0.73113 0.0
C793 C 0.5135 0.82801 0.68 0.0
C794 C 0.49286 0.85102 0.72869 0.0
C795 C 0.48825 0.86232 0.70201 0.0
H796 H 0.13504 0.60696 0.6183 0.0
H797 H 0.19069 0.71645 0.58626 0.0
H798 H 0.19888 0.74025 0.63455 0.0
H799 H 0.19976 0.7293 0.68579 0.0
H800 H 0.14214 0.61983 0.7178 0.0
H801 H 0.12453 0.59629 0.66958 0.0
C802 C 0.14779 0.63597 0.62196 0.0
C803 C 0.1625 0.66005 0.59906 0.0
C804 C 0.15249 0.6493 0.64969 0.0
C805 C 0.17898 0.69756 0.60372 0.0
C806 C 0.18402 0.71111 0.6313 0.0
C807 C 0.1825 0.70039 0.68212 0.0
C808 C 0.17253 0.67614 0.70494 0.0
C809 C 0.17237 0.68722 0.65445 0.0
C810 C 0.14999 0.6388 0.70033 0.0
C811 C 0.14016 0.6254 0.67282 0.0
H812 H 0.306 0.50241 0.60975 0.0
H813 H 0.4187 0.55433 0.63387 0.0
H814 H 0.40149 0.53728 0.68338 0.0
H815 H 0.35459 0.51671 0.72032 0.0
H816 H 0.24258 0.47348 0.69654 0.0
H817 H 0.25875 0.47721 0.64644 0.0
C818 C 0.32658 0.50888 0.62584 0.0
C819 C 0.3634 0.52912 0.61853 0.0
C820 C 0.31645 0.50084 0.65432 0.0
C821 C 0.39017 0.53842 0.63932 0.0
C822 C 0.38032 0.52888 0.66754 0.0
C823 C 0.33374 0.5071 0.70408 0.0
C824 C 0.29754 0.49463 0.71177 0.0
C825 C 0.34359 0.51137 0.67542 0.0
C826 C 0.27061 0.48301 0.69082 0.0
C827 C 0.27988 0.48534 0.66227 0.0
loop_
_geom_bond_atom_site_label_1
_geom_bond_atom_site_label_2
_geom_bond_distance
_geom_bond_site_symmetry_2
_ccdc_geom_bond_type
Co0 O1 2.216 . S
Co0 O2 2.091 . S
Co0 O4 2.004 . S
Co0 O10 2.021 . S
Co0 O12 2.137 . S
Co0 O13 2.244 . S
O1 Co0 2.216 . S
O1 C8 1.247 . S
O2 Co0 2.091 . S
O2 C8 1.261 . S
C3 O12 1.247 . S
C3 O13 1.272 . S
O4 Co0 2.004 . S
O4 C9 1.259 . S
Co5 O6 2.061 . S
Co5 O11 2.052 . S
Co5 O13 2.135 . S
O6 Co5 2.061 . S
O6 C9 1.235 . S
C7 O10 1.238 . S
C7 O11 1.241 . S
C8 O1 1.247 . S
C8 O2 1.261 . S
C9 O4 1.259 . S
C9 O6 1.235 . S
O10 Co0 2.021 . S
O10 C7 1.238 . S
O11 Co5 2.052 . S
O11 C7 1.241 . S
O12 Co0 2.137 . S
O12 C3 1.247 . S
O13 Co0 2.244 . S
O13 C3 1.272 . S
O13 Co5 2.135 . S
Co14 O15 2.216 . S
Co14 O16 2.091 . S
Co14 O18 2.004 1_545 S
Co14 O24 2.021 1_545 S
Co14 O26 2.137 . S
Co14 O27 2.244 . S
O15 Co14 2.216 . S
O15 C22 1.247 . S
O16 Co14 2.091 . S
O16 C22 1.261 . S
C17 O26 1.247 . S
C17 O27 1.272 . S
O18 Co14 2.004 1_565 S
O18 C23 1.259 . S
Co19 O20 2.061 1_545 S
Co19 O25 2.052 . S
Co19 O27 2.135 . S
O20 Co19 2.061 1_565 S
O20 C23 1.235 . S
C21 O24 1.238 . S
C21 O25 1.241 1_565 S
C22 O15 1.247 . S
C22 O16 1.261 . S
C23 O18 1.259 . S
C23 O20 1.235 . S
O24 Co14 2.021 1_565 S
O24 C21 1.238 . S
O25 Co19 2.052 . S
O25 C21 1.241 1_545 S
O26 Co14 2.137 . S
O26 C17 1.247 . S
O27 Co14 2.244 . S
O27 C17 1.272 . S
O27 Co19 2.135 . S
Co28 O29 2.216 . S
Co28 O30 2.091 1_655 S
Co28 O32 2.004 1_655 S
Co28 O38 2.021 1_655 S
Co28 O40 2.137 . S
Co28 O41 2.244 . S
O29 Co28 2.216 . S
O29 C36 1.247 . S
O30 Co28 2.091 1_455 S
O30 C36 1.261 1_455 S
C31 O40 1.247 . S
C31 O41 1.272 . S
O32 Co28 2.004 1_455 S
O32 C37 1.259 . S
Co33 O34 2.047 1_655 S
Co33 O39 2.040 1_655 S
Co33 O41 2.140 . S
O34 Co33 2.047 1_455 S
O34 C37 1.235 . S
C35 O38 1.238 . S
C35 O39 1.248 . S
C36 O29 1.247 . S
C36 O30 1.261 1_655 S
C37 O32 1.259 . S
C37 O34 1.235 . S
O38 Co28 2.021 1_455 S
O38 C35 1.238 . S
O39 Co33 2.040 1_455 S
O39 C35 1.248 . S
O40 Co28 2.137 . S
O40 C31 1.247 . S
O41 Co28 2.244 . S
O41 C31 1.272 . S
O41 Co33 2.140 . S
Co42 O43 2.216 . S
Co42 O44 2.091 . S
Co42 O46 2.004 . S
Co42 O52 2.021 . S
Co42 O54 2.137 . S
Co42 O55 2.244 . S
O43 Co42 2.216 . S
O43 C50 1.247 . S
O44 Co42 2.091 . S
O44 C50 1.261 . S
C45 O54 1.247 . S
C45 O55 1.272 . S
O46 Co42 2.004 . S
O46 C51 1.259 . S
Co47 O48 2.061 . S
Co47 O53 2.052 . S
Co47 O55 2.135 . S
O48 Co47 2.061 . S
O48 C51 1.235 . S
C49 O52 1.238 . S
C49 O53 1.241 . S
C50 O43 1.247 . S
C50 O44 1.261 . S
C51 O46 1.259 . S
C51 O48 1.235 . S
O52 Co42 2.021 . S
O52 C49 1.238 . S
O53 Co47 2.052 . S
O53 C49 1.241 . S
O54 Co42 2.137 . S
O54 C45 1.247 . S
O55 Co42 2.244 . S
O55 C45 1.272 . S
O55 Co47 2.135 . S
Co56 O57 2.216 . S
Co56 O58 2.091 1_565 S
Co56 O60 2.004 1_565 S
Co56 O66 2.021 1_565 S
Co56 O68 2.137 . S
Co56 O69 2.244 . S
O57 Co56 2.216 . S
O57 C64 1.247 . S
O58 Co56 2.091 1_545 S
O58 C64 1.261 1_545 S
C59 O68 1.247 . S
C59 O69 1.272 . S
O60 Co56 2.004 1_545 S
O60 C65 1.259 . S
Co61 O62 2.046 1_565 S
Co61 O67 2.040 1_565 S
Co61 O69 2.141 . S
O62 Co61 2.046 1_545 S
O62 C65 1.235 . S
C63 O66 1.238 . S
C63 O67 1.247 . S
C64 O57 1.247 . S
C64 O58 1.261 1_565 S
C65 O60 1.259 . S
C65 O62 1.235 . S
O66 Co56 2.021 1_545 S
O66 C63 1.238 . S
O67 Co61 2.040 1_545 S
O67 C63 1.247 . S
O68 Co56 2.137 . S
O68 C59 1.247 . S
O69 Co56 2.244 . S
O69 C59 1.272 . S
O69 Co61 2.141 . S
Co70 O71 2.216 . S
Co70 O72 2.091 . S
Co70 O74 2.004 1_455 S
Co70 O80 2.021 1_455 S
Co70 O82 2.137 . S
Co70 O83 2.244 . S
O71 Co70 2.216 . S
O71 C78 1.247 . S
O72 Co70 2.091 . S
O72 C78 1.263 . S
C73 O82 1.247 . S
C73 O83 1.272 . S
O74 Co70 2.004 1_655 S
O74 C79 1.259 . S
Co75 O76 2.061 1_455 S
Co75 O81 2.052 . S
Co75 O83 2.135 . S
O76 Co75 2.061 1_655 S
O76 C79 1.235 . S
C77 O80 1.238 . S
C77 O81 1.241 1_655 S
C78 O71 1.247 . S
C78 O72 1.263 . S
C79 O74 1.259 . S
C79 O76 1.235 . S
O80 Co70 2.021 1_655 S
O80 C77 1.238 . S
O81 Co75 2.052 . S
O81 C77 1.241 1_455 S
O82 Co70 2.137 . S
O82 C73 1.247 . S
O83 Co70 2.244 . S
O83 C73 1.272 . S
O83 Co75 2.135 . S
Co84 O85 2.216 . S
Co84 O86 2.091 . S
Co84 O88 2.004 . S
Co84 O94 2.021 . S
Co84 O96 2.137 . S
Co84 O97 2.244 . S
O85 Co84 2.216 . S
O85 C92 1.247 . S
O86 Co84 2.091 . S
O86 C92 1.261 . S
C87 O96 1.247 . S
C87 O97 1.272 . S
O88 Co84 2.004 . S
O88 C93 1.259 . S
Co89 O90 2.061 . S
Co89 O95 2.052 . S
Co89 O97 2.135 . S
O90 Co89 2.061 . S
O90 C93 1.235 . S
C91 O94 1.238 . S
C91 O95 1.241 . S
C92 O85 1.247 . S
C92 O86 1.261 . S
C93 O88 1.259 . S
C93 O90 1.235 . S
O94 Co84 2.021 . S
O94 C91 1.238 . S
O95 Co89 2.052 . S
O95 C91 1.241 . S
O96 Co84 2.137 . S
O96 C87 1.247 . S
O97 Co84 2.244 . S
O97 C87 1.272 . S
O97 Co89 2.135 . S
Co98 O99 2.216 . S
Co98 O100 2.091 . S
Co98 O102 2.004 . S
Co98 O108 2.021 . S
Co98 O110 2.137 . S
Co98 O111 2.244 . S
O99 Co98 2.216 . S
O99 C106 1.247 . S
O100 Co98 2.091 . S
O100 C106 1.261 . S
C101 O110 1.247 . S
C101 O111 1.272 . S
O102 Co98 2.004 . S
O102 C107 1.259 . S
Co103 O104 2.061 . S
Co103 O109 2.052 . S
Co103 O111 2.135 . S
O104 Co103 2.061 . S
O104 C107 1.235 . S
C105 O108 1.238 . S
C105 O109 1.241 . S
C106 O99 1.247 . S
C106 O100 1.261 . S
C107 O102 1.259 . S
C107 O104 1.235 . S
O108 Co98 2.021 . S
O108 C105 1.238 . S
O109 Co103 2.052 . S
O109 C105 1.241 . S
O110 Co98 2.137 . S
O110 C101 1.247 . S
O111 Co98 2.244 . S
O111 C101 1.272 . S
O111 Co103 2.135 . S
Co112 O113 2.216 . S
Co112 O114 2.091 . S
Co112 O116 2.004 . S
Co112 O122 2.021 . S
Co112 O124 2.137 . S
Co112 O125 2.244 . S
O113 Co112 2.216 . S
O113 C120 1.247 . S
O114 Co112 2.091 . S
O114 C120 1.261 . S
C115 O124 1.247 . S
C115 O125 1.272 . S
O116 Co112 2.004 . S
O116 C121 1.259 . S
Co117 O118 2.061 . S
Co117 O123 2.052 . S
Co117 O125 2.135 . S
O118 Co117 2.061 . S
O118 C121 1.235 . S
C119 O122 1.238 . S
C119 O123 1.241 . S
C120 O113 1.247 . S
C120 O114 1.261 . S
C121 O116 1.259 . S
C121 O118 1.235 . S
O122 Co112 2.021 . S
O122 C119 1.238 . S
O123 Co117 2.052 . S
O123 C119 1.241 . S
O124 Co112 2.137 . S
O124 C115 1.247 . S
O125 Co112 2.244 . S
O125 C115 1.272 . S
O125 Co117 2.135 . S
Co126 O127 2.216 . S
Co126 O128 2.091 . S
Co126 O130 2.004 . S
Co126 O136 2.021 . S
Co126 O138 2.137 . S
Co126 O139 2.244 . S
O127 Co126 2.216 . S
O127 C134 1.247 . S
O128 Co126 2.091 . S
O128 C134 1.261 . S
C129 O138 1.247 . S
C129 O139 1.272 . S
O130 Co126 2.004 . S
O130 C135 1.259 . S
Co131 O132 2.061 . S
Co131 O137 2.052 . S
Co131 O139 2.135 . S
O132 Co131 2.061 . S
O132 C135 1.235 . S
C133 O136 1.238 . S
C133 O137 1.241 . S
C134 O127 1.247 . S
C134 O128 1.261 . S
C135 O130 1.259 . S
C135 O132 1.235 . S
O136 Co126 2.021 . S
O136 C133 1.238 . S
O137 Co131 2.052 . S
O137 C133 1.241 . S
O138 Co126 2.137 . S
O138 C129 1.247 . S
O139 Co126 2.244 . S
O139 C129 1.272 . S
O139 Co131 2.135 . S
Co140 O141 2.216 . S
Co140 O142 2.091 . S
Co140 O144 2.004 . S
Co140 O150 2.021 . S
Co140 O152 2.137 . S
Co140 O153 2.244 . S
O141 Co140 2.216 . S
O141 C148 1.247 . S
O142 Co140 2.091 . S
O142 C148 1.261 . S
C143 O152 1.247 . S
C143 O153 1.272 . S
O144 Co140 2.004 . S
O144 C149 1.259 . S
Co145 O146 2.061 . S
Co145 O151 2.052 . S
Co145 O153 2.135 . S
O146 Co145 2.061 . S
O146 C149 1.235 . S
C147 O150 1.238 . S
C147 O151 1.241 . S
C148 O141 1.247 . S
C148 O142 1.261 . S
C149 O144 1.259 . S
C149 O146 1.235 . S
O150 Co140 2.021 . S
O150 C147 1.238 . S
O151 Co145 2.052 . S
O151 C147 1.241 . S
O152 Co140 2.137 . S
O152 C143 1.247 . S
O153 Co140 2.244 . S
O153 C143 1.272 . S
O153 Co145 2.135 . S
Co154 O155 2.216 . S
Co154 O156 2.091 . S
Co154 O158 2.004 . S
Co154 O164 2.021 . S
Co154 O166 2.137 . S
Co154 O167 2.244 . S
O155 Co154 2.216 . S
O155 C162 1.247 . S
O156 Co154 2.091 . S
O156 C162 1.261 . S
C157 O166 1.247 . S
C157 O167 1.272 . S
O158 Co154 2.004 . S
O158 C163 1.259 . S
Co159 O160 2.061 . S
Co159 O165 2.052 . S
Co159 O167 2.135 . S
O160 Co159 2.061 . S
O160 C163 1.235 . S
C161 O164 1.238 . S
C161 O165 1.241 . S
C162 O155 1.247 . S
C162 O156 1.261 . S
C163 O158 1.259 . S
C163 O160 1.235 . S
O164 Co154 2.021 . S
O164 C161 1.238 . S
O165 Co159 2.052 . S
O165 C161 1.241 . S
O166 Co154 2.137 . S
O166 C157 1.247 . S
O167 Co154 2.244 . S
O167 C157 1.272 . S
O167 Co159 2.135 . S
Co168 O169 2.216 . S
Co168 O170 2.091 . S
Co168 O172 2.004 . S
Co168 O178 2.021 . S
Co168 O180 2.137 . S
Co168 O181 2.244 . S
O169 Co168 2.216 . S
O169 C176 1.247 . S
O170 Co168 2.091 . S
O170 C176 1.261 . S
C171 O180 1.247 . S
C171 O181 1.272 . S
O172 Co168 2.004 . S
O172 C177 1.259 . S
Co173 O174 2.061 . S
Co173 O179 2.052 . S
Co173 O181 2.135 . S
O174 Co173 2.061 . S
O174 C177 1.235 . S
C175 O178 1.238 . S
C175 O179 1.241 . S
C176 O169 1.247 . S
C176 O170 1.261 . S
C177 O172 1.259 . S
C177 O174 1.235 . S
O178 Co168 2.021 . S
O178 C175 1.238 . S
O179 Co173 2.052 . S
O179 C175 1.241 . S
O180 Co168 2.137 . S
O180 C171 1.247 . S
O181 Co168 2.244 . S
O181 C171 1.272 . S
O181 Co173 2.135 . S
Co182 O183 2.216 . S
Co182 O184 2.091 . S
Co182 O186 2.004 . S
Co182 O192 2.021 . S
Co182 O194 2.137 . S
Co182 O195 2.244 . S
O183 Co182 2.216 . S
O183 C190 1.247 . S
O184 Co182 2.091 . S
O184 C190 1.261 . S
C185 O194 1.247 . S
C185 O195 1.272 . S
O186 Co182 2.004 . S
O186 C191 1.259 . S
Co187 O188 2.061 . S
Co187 O193 2.052 . S
Co187 O195 2.135 . S
O188 Co187 2.061 . S
O188 C191 1.235 . S
C189 O192 1.238 . S
C189 O193 1.241 . S
C190 O183 1.247 . S
C190 O184 1.261 . S
C191 O186 1.259 . S
C191 O188 1.235 . S
O192 Co182 2.021 . S
O192 C189 1.238 . S
O193 Co187 2.052 . S
O193 C189 1.241 . S
O194 Co182 2.137 . S
O194 C185 1.247 . S
O195 Co182 2.244 . S
O195 C185 1.272 . S
O195 Co187 2.135 . S
Co196 O197 2.216 . S
Co196 O198 2.091 . S
Co196 O200 2.004 . S
Co196 O206 2.021 . S
Co196 O208 2.137 . S
Co196 O209 2.244 . S
O197 Co196 2.216 . S
O197 C204 1.247 . S
O198 Co196 2.091 . S
O198 C204 1.261 . S
C199 O208 1.247 . S
C199 O209 1.272 . S
O200 Co196 2.004 . S
O200 C205 1.259 . S
Co201 O202 2.061 . S
Co201 O207 2.052 . S
Co201 O209 2.135 . S
O202 Co201 2.061 . S
O202 C205 1.235 . S
C203 O206 1.238 . S
C203 O207 1.241 . S
C204 O197 1.247 . S
C204 O198 1.261 . S
C205 O200 1.259 . S
C205 O202 1.235 . S
O206 Co196 2.021 . S
O206 C203 1.238 . S
O207 Co201 2.052 . S
O207 C203 1.241 . S
O208 Co196 2.137 . S
O208 C199 1.247 . S
O209 Co196 2.244 . S
O209 C199 1.272 . S
O209 Co201 2.135 . S
Co210 O211 2.216 . S
Co210 O212 2.091 . S
Co210 O214 2.004 . S
Co210 O220 2.021 . S
Co210 O222 2.137 . S
Co210 O223 2.244 . S
O211 Co210 2.216 . S
O211 C218 1.247 . S
O212 Co210 2.091 . S
O212 C218 1.261 . S
C213 O222 1.247 . S
C213 O223 1.272 . S
O214 Co210 2.004 . S
O214 C219 1.259 . S
Co215 O216 2.061 . S
Co215 O221 2.052 . S
Co215 O223 2.135 . S
O216 Co215 2.061 . S
O216 C219 1.235 . S
C217 O220 1.238 . S
C217 O221 1.241 . S
C218 O211 1.247 . S
C218 O212 1.261 . S
C219 O214 1.259 . S
C219 O216 1.235 . S
O220 Co210 2.021 . S
O220 C217 1.238 . S
O221 Co215 2.052 . S
O221 C217 1.241 . S
O222 Co210 2.137 . S
O222 C213 1.247 . S
O223 Co210 2.244 . S
O223 C213 1.272 . S
O223 Co215 2.135 . S
Co224 O225 2.216 . S
Co224 O226 2.091 . S
Co224 O228 2.004 . S
Co224 O234 2.021 . S
Co224 O236 2.137 . S
Co224 O237 2.244 . S
O225 Co224 2.216 . S
O225 C232 1.247 . S
O226 Co224 2.091 . S
O226 C232 1.261 . S
C227 O236 1.247 . S
C227 O237 1.272 . S
O228 Co224 2.004 . S
O228 C233 1.259 . S
Co229 O230 2.061 . S
Co229 O235 2.052 . S
Co229 O237 2.135 . S
O230 Co229 2.061 . S
O230 C233 1.235 . S
C231 O234 1.238 . S
C231 O235 1.241 . S
C232 O225 1.247 . S
C232 O226 1.261 . S
C233 O228 1.259 . S
C233 O230 1.235 . S
O234 Co224 2.021 . S
O234 C231 1.238 . S
O235 Co229 2.052 . S
O235 C231 1.241 . S
O236 Co224 2.137 . S
O236 C227 1.247 . S
O237 Co224 2.244 . S
O237 C227 1.272 . S
O237 Co229 2.135 . S
Co238 O239 2.216 . S
Co238 O240 2.091 . S
Co238 O242 2.004 . S
Co238 O248 2.021 . S
Co238 O250 2.137 . S
Co238 O251 2.244 . S
O239 Co238 2.216 . S
O239 C246 1.247 . S
O240 Co238 2.091 . S
O240 C246 1.261 . S
C241 O250 1.247 . S
C241 O251 1.272 . S
O242 Co238 2.004 . S
O242 C247 1.259 . S
Co243 O244 2.061 . S
Co243 O249 2.052 . S
Co243 O251 2.135 . S
O244 Co243 2.061 . S
O244 C247 1.235 . S
C245 O248 1.238 . S
C245 O249 1.241 . S
C246 O239 1.247 . S
C246 O240 1.261 . S
C247 O242 1.259 . S
C247 O244 1.235 . S
O248 Co238 2.021 . S
O248 C245 1.238 . S
O249 Co243 2.052 . S
O249 C245 1.241 . S
O250 Co238 2.137 . S
O250 C241 1.247 . S
O251 Co238 2.244 . S
O251 C241 1.272 . S
O251 Co243 2.135 . S
H252 C258 0.930 . S
H253 C261 0.930 . S
H254 C262 0.930 . S
H255 C263 0.930 . S
H256 C266 0.930 . S
H257 C267 0.930 . S
C258 H252 0.930 . S
C258 C259 1.355 . S
C258 C260 1.415 . S
C259 C258 1.355 . S
C259 C261 1.419 . S
C260 C258 1.415 . S
C260 C265 1.425 . S
C260 C267 1.409 . S
C261 H253 0.930 . S
C261 C259 1.419 . S
C261 C262 1.362 . S
C262 H254 0.930 . S
C262 C261 1.362 . S
C262 C265 1.409 . S
C263 H255 0.930 . S
C263 C264 1.355 . S
C263 C265 1.415 . S
C264 C263 1.355 . S
C264 C266 1.419 . S
C265 C260 1.425 . S
C265 C262 1.409 . S
C265 C263 1.415 . S
C266 H256 0.930 . S
C266 C264 1.419 . S
C266 C267 1.362 . S
C267 H257 0.930 . S
C267 C260 1.409 . S
C267 C266 1.362 . S
H268 C274 0.930 . S
H269 C277 0.930 . S
H270 C278 0.930 . S
H271 C279 0.930 . S
H272 C282 0.930 . S
H273 C283 0.930 . S
C274 H268 0.930 . S
C274 C275 1.355 . S
C274 C276 1.415 . S
C275 C274 1.355 . S
C275 C277 1.419 . S
C276 C274 1.415 . S
C276 C281 1.425 . S
C276 C283 1.409 . S
C277 H269 0.930 . S
C277 C275 1.419 . S
C277 C278 1.362 . S
C278 H270 0.930 . S
C278 C277 1.362 . S
C278 C281 1.409 . S
C279 H271 0.930 . S
C279 C280 1.355 . S
C279 C281 1.415 . S
C280 C279 1.355 . S
C280 C282 1.419 . S
C281 C276 1.425 . S
C281 C278 1.409 . S
C281 C279 1.415 . S
C282 H272 0.930 . S
C282 C280 1.419 . S
C282 C283 1.362 . S
C283 H273 0.930 . S
C283 C276 1.409 . S
C283 C282 1.362 . S
H284 C290 0.930 . S
H285 C293 0.930 . S
H286 C294 0.930 . S
H287 C295 0.930 . S
H288 C298 0.930 1_455 S
H289 C299 0.930 . S
C290 H284 0.930 . S
C290 C291 1.355 . S
C290 C292 1.415 . S
C291 C290 1.355 . S
C291 C293 1.419 . S
C292 C290 1.415 . S
C292 C297 1.425 . S
C292 C299 1.409 . S
C293 H285 0.930 . S
C293 C291 1.419 . S
C293 C294 1.362 . S
C294 H286 0.930 . S
C294 C293 1.362 . S
C294 C297 1.409 . S
C295 H287 0.930 . S
C295 C296 1.355 . S
C295 C297 1.415 . S
C296 C295 1.355 . S
C296 C298 1.419 . S
C297 C292 1.425 . S
C297 C294 1.409 . S
C297 C295 1.415 . S
C298 H288 0.930 1_655 S
C298 C296 1.419 . S
C298 C299 1.362 . S
C299 H289 0.930 . S
C299 C292 1.409 . S
C299 C298 1.362 . S
H300 C306 0.930 . S
H301 C309 0.930 . S
H302 C310 0.930 . S
H303 C311 0.930 . S
H304 C314 0.930 . S
H305 C315 0.930 . S
C306 H300 0.930 . S
C306 C307 1.355 . S
C306 C308 1.415 . S
C307 C306 1.355 . S
C307 C309 1.419 . S
C308 C306 1.415 . S
C308 C313 1.425 . S
C308 C315 1.409 . S
C309 H301 0.930 . S
C309 C307 1.419 . S
C309 C310 1.362 . S
C310 H302 0.930 . S
C310 C309 1.362 . S
C310 C313 1.409 . S
C311 H303 0.930 . S
C311 C312 1.355 . S
C311 C313 1.415 . S
C312 C311 1.355 . S
C312 C314 1.419 . S
C313 C308 1.425 . S
C313 C310 1.409 . S
C313 C311 1.415 . S
C314 H304 0.930 . S
C314 C312 1.419 . S
C314 C315 1.362 . S
C315 H305 0.930 . S
C315 C308 1.409 . S
C315 C314 1.362 . S
H316 C322 0.930 . S
H317 C325 0.930 . S
H318 C326 0.930 . S
H319 C327 0.930 . S
H320 C330 0.930 . S
H321 C331 0.930 . S
C322 H316 0.930 . S
C322 C323 1.355 . S
C322 C324 1.415 . S
C323 C322 1.355 . S
C323 C325 1.419 . S
C324 C322 1.415 . S
C324 C329 1.425 . S
C324 C331 1.409 . S
C325 H317 0.930 . S
C325 C323 1.419 . S
C325 C326 1.362 . S
C326 H318 0.930 . S
C326 C325 1.362 . S
C326 C329 1.409 . S
C327 H319 0.930 . S
C327 C328 1.355 . S
C327 C329 1.415 . S
C328 C327 1.355 . S
C328 C330 1.419 . S
C329 C324 1.425 . S
C329 C326 1.409 . S
C329 C327 1.415 . S
C330 H320 0.930 . S
C330 C328 1.419 . S
C330 C331 1.362 . S
C331 H321 0.930 . S
C331 C324 1.409 . S
C331 C330 1.362 . S
H332 C338 0.930 . S
H333 C341 0.930 . S
H334 C342 0.930 . S
H335 C343 0.930 . S
H336 C346 0.930 . S
H337 C347 0.930 . S
C338 H332 0.930 . S
C338 C339 1.355 . S
C338 C340 1.415 . S
C339 C338 1.355 . S
C339 C341 1.419 . S
C340 C338 1.415 . S
C340 C345 1.425 . S
C340 C347 1.409 . S
C341 H333 0.930 . S
C341 C339 1.419 . S
C341 C342 1.362 . S
C342 H334 0.930 . S
C342 C341 1.362 . S
C342 C345 1.409 . S
C343 H335 0.930 . S
C343 C344 1.355 . S
C343 C345 1.415 . S
C344 C343 1.355 . S
C344 C346 1.419 . S
C345 C340 1.425 . S
C345 C342 1.409 . S
C345 C343 1.415 . S
C346 H336 0.930 . S
C346 C344 1.419 . S
C346 C347 1.362 . S
C347 H337 0.930 . S
C347 C340 1.409 . S
C347 C346 1.362 . S
H348 C354 0.930 . S
H349 C357 0.930 . S
H350 C358 0.930 . S
H351 C359 0.930 . S
H352 C362 0.930 . S
H353 C363 0.930 . S
C354 H348 0.930 . S
C354 C355 1.355 . S
C354 C356 1.415 . S
C355 C354 1.355 . S
C355 C357 1.419 . S
C356 C354 1.415 . S
C356 C361 1.425 1_655 S
C356 C363 1.409 1_655 S
C357 H349 0.930 . S
C357 C355 1.419 . S
C357 C358 1.362 . S
C358 H350 0.930 . S
C358 C357 1.362 . S
C358 C361 1.409 1_655 S
C359 H351 0.930 . S
C359 C360 1.355 . S
C359 C361 1.415 . S
C360 C359 1.355 . S
C360 C362 1.419 . S
C361 C356 1.425 1_455 S
C361 C358 1.409 1_455 S
C361 C359 1.415 . S
C362 H352 0.930 . S
C362 C360 1.419 . S
C362 C363 1.362 . S
C363 H353 0.930 . S
C363 C356 1.409 1_455 S
C363 C362 1.362 . S
H364 C370 0.930 . S
H365 C373 0.930 . S
H366 C374 0.930 . S
H367 C375 0.930 . S
H368 C378 0.930 . S
H369 C379 0.930 . S
C370 H364 0.930 . S
C370 C371 1.355 . S
C370 C372 1.415 . S
C371 C370 1.355 . S
C371 C373 1.419 . S
C372 C370 1.415 . S
C372 C377 1.425 . S
C372 C379 1.409 . S
C373 H365 0.930 . S
C373 C371 1.419 . S
C373 C374 1.362 . S
C374 H366 0.930 . S
C374 C373 1.362 . S
C374 C377 1.409 . S
C375 H367 0.930 . S
C375 C376 1.355 . S
C375 C377 1.415 . S
C376 C375 1.355 . S
C376 C378 1.419 . S
C377 C372 1.425 . S
C377 C374 1.409 . S
C377 C375 1.415 . S
C378 H368 0.930 . S
C378 C376 1.419 . S
C378 C379 1.362 . S
C379 H369 0.930 . S
C379 C372 1.409 . S
C379 C378 1.362 . S
H380 C386 0.930 . S
H381 C389 0.930 . S
H382 C390 0.930 . S
H383 C391 0.930 . S
H384 C394 0.930 . S
H385 C395 0.930 . S
C386 H380 0.930 . S
C386 C387 1.355 . S
C386 C388 1.415 . S
C387 C386 1.355 . S
C387 C389 1.419 . S
C388 C386 1.415 . S
C388 C393 1.425 1_545 S
C388 C395 1.409 1_545 S
C389 H381 0.930 . S
C389 C387 1.419 . S
C389 C390 1.362 . S
C390 H382 0.930 . S
C390 C389 1.362 . S
C390 C393 1.409 1_545 S
C391 H383 0.930 . S
C391 C392 1.355 . S
C391 C393 1.415 . S
C392 C391 1.355 . S
C392 C394 1.419 . S
C393 C388 1.425 1_565 S
C393 C390 1.409 1_565 S
C393 C391 1.415 . S
C394 H384 0.930 . S
C394 C392 1.419 . S
C394 C395 1.362 . S
C395 H385 0.930 . S
C395 C388 1.409 1_565 S
C395 C394 1.362 . S
H396 C402 0.930 . S
H397 C405 0.930 . S
H398 C406 0.930 . S
H399 C407 0.930 . S
H400 C410 0.930 . S
H401 C411 0.930 . S
C402 H396 0.930 . S
C402 C403 1.355 . S
C402 C404 1.415 . S
C403 C402 1.355 . S
C403 C405 1.419 . S
C404 C402 1.415 . S
C404 C409 1.425 1_455 S
C404 C411 1.409 1_455 S
C405 H397 0.930 . S
C405 C403 1.419 . S
C405 C406 1.362 . S
C406 H398 0.930 . S
C406 C405 1.362 . S
C406 C409 1.409 1_455 S
C407 H399 0.930 . S
C407 C408 1.355 . S
C407 C409 1.415 . S
C408 C407 1.355 . S
C408 C410 1.419 . S
C409 C404 1.425 1_655 S
C409 C406 1.409 1_655 S
C409 C407 1.415 . S
C410 H400 0.930 . S
C410 C408 1.419 . S
C410 C411 1.362 . S
C411 H401 0.930 . S
C411 C404 1.409 1_655 S
C411 C410 1.362 . S
H412 C418 0.930 . S
H413 C421 0.930 . S
H414 C422 0.930 . S
H415 C423 0.930 . S
H416 C426 0.930 . S
H417 C427 0.930 . S
C418 H412 0.930 . S
C418 C419 1.355 . S
C418 C420 1.415 . S
C419 C418 1.355 . S
C419 C421 1.419 . S
C420 C418 1.415 . S
C420 C425 1.425 . S
C420 C427 1.409 . S
C421 H413 0.930 . S
C421 C419 1.419 . S
C421 C422 1.362 . S
C422 H414 0.930 . S
C422 C421 1.362 . S
C422 C425 1.409 . S
C423 H415 0.930 . S
C423 C424 1.355 . S
C423 C425 1.415 . S
C424 C423 1.355 . S
C424 C426 1.419 . S
C425 C420 1.425 . S
C425 C422 1.409 . S
C425 C423 1.415 . S
C426 H416 0.930 . S
C426 C424 1.419 . S
C426 C427 1.362 . S
C427 H417 0.930 . S
C427 C420 1.409 . S
C427 C426 1.362 . S
H428 C434 0.930 . S
H429 C437 0.930 . S
H430 C438 0.930 . S
H431 C439 0.930 . S
H432 C442 0.930 . S
H433 C443 0.930 . S
C434 H428 0.930 . S
C434 C435 1.355 . S
C434 C436 1.415 . S
C435 C434 1.355 . S
C435 C437 1.419 . S
C436 C434 1.415 . S
C436 C441 1.425 1_545 S
C436 C443 1.409 1_545 S
C437 H429 0.930 . S
C437 C435 1.419 . S
C437 C438 1.362 . S
C438 H430 0.930 . S
C438 C437 1.362 . S
C438 C441 1.409 1_545 S
C439 H431 0.930 . S
C439 C440 1.355 . S
C439 C441 1.415 . S
C440 C439 1.355 . S
C440 C442 1.419 . S
C441 C436 1.425 1_565 S
C441 C438 1.409 1_565 S
C441 C439 1.415 . S
C442 H432 0.930 . S
C442 C440 1.419 . S
C442 C443 1.362 . S
C443 H433 0.930 . S
C443 C436 1.409 1_565 S
C443 C442 1.362 . S
H444 C450 0.930 . S
H445 C453 0.930 . S
H446 C454 0.930 . S
H447 C455 0.930 . S
H448 C458 0.930 . S
H449 C459 0.930 . S
C450 H444 0.930 . S
C450 C451 1.355 . S
C450 C452 1.415 . S
C451 C450 1.355 . S
C451 C453 1.419 . S
C452 C450 1.415 . S
C452 C457 1.425 1_565 S
C452 C459 1.409 1_565 S
C453 H445 0.930 . S
C453 C451 1.419 . S
C453 C454 1.362 . S
C454 H446 0.930 . S
C454 C453 1.362 . S
C454 C457 1.409 1_565 S
C455 H447 0.930 . S
C455 C456 1.355 . S
C455 C457 1.415 . S
C456 C455 1.355 . S
C456 C458 1.419 . S
C457 C452 1.425 1_545 S
C457 C454 1.409 1_545 S
C457 C455 1.415 . S
C458 H448 0.930 . S
C458 C456 1.419 . S
C458 C459 1.362 . S
C459 H449 0.930 . S
C459 C452 1.409 1_545 S
C459 C458 1.362 . S
H460 C466 0.930 . S
H461 C469 0.930 . S
H462 C470 0.930 . S
H463 C471 0.930 . S
H464 C474 0.930 . S
H465 C475 0.930 . S
C466 H460 0.930 . S
C466 C467 1.355 . S
C466 C468 1.415 . S
C467 C466 1.355 . S
C467 C469 1.419 . S
C468 C466 1.415 . S
C468 C473 1.425 1_455 S
C468 C475 1.409 1_455 S
C469 H461 0.930 . S
C469 C467 1.419 . S
C469 C470 1.362 . S
C470 H462 0.930 . S
C470 C469 1.362 . S
C470 C473 1.409 1_455 S
C471 H463 0.930 . S
C471 C472 1.355 . S
C471 C473 1.415 . S
C472 C471 1.355 . S
C472 C474 1.419 . S
C473 C468 1.425 1_655 S
C473 C470 1.409 1_655 S
C473 C471 1.415 . S
C474 H464 0.930 . S
C474 C472 1.419 . S
C474 C475 1.362 . S
C475 H465 0.930 . S
C475 C468 1.409 1_655 S
C475 C474 1.362 . S
H476 C482 0.930 . S
H477 C485 0.930 . S
H478 C486 0.930 . S
H479 C487 0.930 . S
H480 C490 0.930 . S
H481 C491 0.930 . S
C482 H476 0.930 . S
C482 C483 1.355 . S
C482 C484 1.415 . S
C483 C482 1.355 . S
C483 C485 1.419 . S
C484 C482 1.415 . S
C484 C489 1.425 . S
C484 C491 1.409 . S
C485 H477 0.930 . S
C485 C483 1.419 . S
C485 C486 1.362 . S
C486 H478 0.930 . S
C486 C485 1.362 . S
C486 C489 1.409 . S
C487 H479 0.930 . S
C487 C488 1.355 . S
C487 C489 1.415 . S
C488 C487 1.355 . S
C488 C490 1.419 . S
C489 C484 1.425 . S
C489 C486 1.409 . S
C489 C487 1.415 . S
C490 H480 0.930 . S
C490 C488 1.419 . S
C490 C491 1.362 . S
C491 H481 0.930 . S
C491 C484 1.409 . S
C491 C490 1.362 . S
H492 C498 0.930 . S
H493 C501 0.930 . S
H494 C502 0.930 . S
H495 C503 0.930 . S
H496 C506 0.930 . S
H497 C507 0.930 . S
C498 H492 0.930 . S
C498 C499 1.355 . S
C498 C500 1.415 . S
C499 C498 1.355 . S
C499 C501 1.419 . S
C500 C498 1.415 . S
C500 C505 1.425 . S
C500 C507 1.409 . S
C501 H493 0.930 . S
C501 C499 1.419 . S
C501 C502 1.362 . S
C502 H494 0.930 . S
C502 C501 1.362 . S
C502 C505 1.409 . S
C503 H495 0.930 . S
C503 C504 1.355 . S
C503 C505 1.415 . S
C504 C503 1.355 . S
C504 C506 1.419 . S
C505 C500 1.425 . S
C505 C502 1.409 . S
C505 C503 1.415 . S
C506 H496 0.930 . S
C506 C504 1.419 . S
C506 C507 1.362 . S
C507 H497 0.930 . S
C507 C500 1.409 . S
C507 C506 1.362 . S
H508 C514 0.930 . S
H509 C517 0.930 . S
H510 C518 0.930 . S
H511 C519 0.930 . S
H512 C522 0.930 . S
H513 C523 0.930 . S
C514 H508 0.930 . S
C514 C515 1.355 . S
C514 C516 1.415 . S
C515 C514 1.355 . S
C515 C517 1.419 . S
C516 C514 1.415 . S
C516 C521 1.425 . S
C516 C523 1.409 . S
C517 H509 0.930 . S
C517 C515 1.419 . S
C517 C518 1.362 . S
C518 H510 0.930 . S
C518 C517 1.362 . S
C518 C521 1.409 . S
C519 H511 0.930 . S
C519 C520 1.355 . S
C519 C521 1.415 . S
C520 C519 1.355 . S
C520 C522 1.419 . S
C521 C516 1.425 . S
C521 C518 1.409 . S
C521 C519 1.415 . S
C522 H512 0.930 . S
C522 C520 1.419 . S
C522 C523 1.362 . S
C523 H513 0.930 . S
C523 C516 1.409 . S
C523 C522 1.362 . S
H524 C530 0.930 . S
H525 C533 0.930 . S
H526 C534 0.930 . S
H527 C535 0.930 . S
H528 C538 0.930 . S
H529 C539 0.930 . S
C530 H524 0.930 . S
C530 C531 1.355 . S
C530 C532 1.415 . S
C531 C530 1.355 . S
C531 C533 1.419 . S
C532 C530 1.415 . S
C532 C537 1.425 . S
C532 C539 1.409 . S
C533 H525 0.930 . S
C533 C531 1.419 . S
C533 C534 1.362 . S
C534 H526 0.930 . S
C534 C533 1.362 . S
C534 C537 1.409 . S
C535 H527 0.930 . S
C535 C536 1.355 . S
C535 C537 1.415 . S
C536 C535 1.355 . S
C536 C538 1.419 . S
C537 C532 1.425 . S
C537 C534 1.409 . S
C537 C535 1.415 . S
C538 H528 0.930 . S
C538 C536 1.419 . S
C538 C539 1.362 . S
C539 H529 0.930 . S
C539 C532 1.409 . S
C539 C538 1.362 . S
H540 C546 0.930 . S
H541 C549 0.930 . S
H542 C550 0.930 . S
H543 C551 0.930 . S
H544 C554 0.930 . S
H545 C555 0.930 . S
C546 H540 0.930 . S
C546 C547 1.355 . S
C546 C548 1.415 . S
C547 C546 1.355 . S
C547 C549 1.419 . S
C548 C546 1.415 . S
C548 C553 1.425 . S
C548 C555 1.409 . S
C549 H541 0.930 . S
C549 C547 1.419 . S
C549 C550 1.362 . S
C550 H542 0.930 . S
C550 C549 1.362 . S
C550 C553 1.409 . S
C551 H543 0.930 . S
C551 C552 1.355 . S
C551 C553 1.415 . S
C552 C551 1.355 . S
C552 C554 1.419 . S
C553 C548 1.425 . S
C553 C550 1.409 . S
C553 C551 1.415 . S
C554 H544 0.930 . S
C554 C552 1.419 . S
C554 C555 1.362 . S
C555 H545 0.930 . S
C555 C548 1.409 . S
C555 C554 1.362 . S
H556 C562 0.930 . S
H557 C565 0.930 . S
H558 C566 0.930 . S
H559 C567 0.930 . S
H560 C570 0.930 . S
H561 C571 0.930 . S
C562 H556 0.930 . S
C562 C563 1.355 . S
C562 C564 1.415 . S
C563 C562 1.355 . S
C563 C565 1.419 . S
C564 C562 1.415 . S
C564 C569 1.425 . S
C564 C571 1.409 . S
C565 H557 0.930 . S
C565 C563 1.419 . S
C565 C566 1.362 . S
C566 H558 0.930 . S
C566 C565 1.362 . S
C566 C569 1.409 . S
C567 H559 0.930 . S
C567 C568 1.355 . S
C567 C569 1.415 . S
C568 C567 1.355 . S
C568 C570 1.419 . S
C569 C564 1.425 . S
C569 C566 1.409 . S
C569 C567 1.415 . S
C570 H560 0.930 . S
C570 C568 1.419 . S
C570 C571 1.362 . S
C571 H561 0.930 . S
C571 C564 1.409 . S
C571 C570 1.362 . S
H572 C578 0.930 . S
H573 C581 0.930 . S
H574 C582 0.930 . S
H575 C583 0.930 . S
H576 C586 0.930 . S
H577 C587 0.930 . S
C578 H572 0.930 . S
C578 C579 1.355 . S
C578 C580 1.415 . S
C579 C578 1.355 . S
C579 C581 1.419 . S
C580 C578 1.415 . S
C580 C585 1.425 . S
C580 C587 1.409 . S
C581 H573 0.930 . S
C581 C579 1.419 . S
C581 C582 1.362 . S
C582 H574 0.930 . S
C582 C581 1.362 . S
C582 C585 1.409 . S
C583 H575 0.930 . S
C583 C584 1.355 . S
C583 C585 1.415 . S
C584 C583 1.355 . S
C584 C586 1.419 . S
C585 C580 1.425 . S
C585 C582 1.409 . S
C585 C583 1.415 . S
C586 H576 0.930 . S
C586 C584 1.419 . S
C586 C587 1.362 . S
C587 H577 0.930 . S
C587 C580 1.409 . S
C587 C586 1.362 . S
H588 C594 0.930 . S
H589 C597 0.930 . S
H590 C598 0.930 . S
H591 C599 0.930 . S
H592 C602 0.930 . S
H593 C603 0.930 . S
C594 H588 0.930 . S
C594 C595 1.355 . S
C594 C596 1.415 . S
C595 C594 1.355 . S
C595 C597 1.419 . S
C596 C594 1.415 . S
C596 C601 1.425 . S
C596 C603 1.409 . S
C597 H589 0.930 . S
C597 C595 1.419 . S
C597 C598 1.362 . S
C598 H590 0.930 . S
C598 C597 1.362 . S
C598 C601 1.409 . S
C599 H591 0.930 . S
C599 C600 1.355 . S
C599 C601 1.415 . S
C600 C599 1.355 . S
C600 C602 1.419 . S
C601 C596 1.425 . S
C601 C598 1.409 . S
C601 C599 1.415 . S
C602 H592 0.930 . S
C602 C600 1.419 . S
C602 C603 1.362 . S
C603 H593 0.930 . S
C603 C596 1.409 . S
C603 C602 1.362 . S
H604 C610 0.930 . S
H605 C613 0.930 . S
H606 C614 0.930 . S
H607 C615 0.930 . S
H608 C618 0.930 . S
H609 C619 0.930 . S
C610 H604 0.930 . S
C610 C611 1.355 . S
C610 C612 1.415 . S
C611 C610 1.355 . S
C611 C613 1.419 . S
C612 C610 1.415 . S
C612 C617 1.425 . S
C612 C619 1.409 . S
C613 H605 0.930 . S
C613 C611 1.419 . S
C613 C614 1.362 . S
C614 H606 0.930 . S
C614 C613 1.362 . S
C614 C617 1.409 . S
C615 H607 0.930 . S
C615 C616 1.355 . S
C615 C617 1.415 . S
C616 C615 1.355 . S
C616 C618 1.419 . S
C617 C612 1.425 . S
C617 C614 1.409 . S
C617 C615 1.415 . S
C618 H608 0.930 . S
C618 C616 1.419 . S
C618 C619 1.362 . S
C619 H609 0.930 . S
C619 C612 1.409 . S
C619 C618 1.362 . S
H620 C626 0.930 . S
H621 C629 0.930 . S
H622 C630 0.930 . S
H623 C631 0.930 . S
H624 C634 0.930 . S
H625 C635 0.930 . S
C626 H620 0.930 . S
C626 C627 1.355 . S
C626 C628 1.415 . S
C627 C626 1.355 . S
C627 C629 1.419 . S
C628 C626 1.415 . S
C628 C633 1.425 . S
C628 C635 1.409 . S
C629 H621 0.930 . S
C629 C627 1.419 . S
C629 C630 1.362 . S
C630 H622 0.930 . S
C630 C629 1.362 . S
C630 C633 1.409 . S
C631 H623 0.930 . S
C631 C632 1.355 . S
C631 C633 1.415 . S
C632 C631 1.355 . S
C632 C634 1.419 . S
C633 C628 1.425 . S
C633 C630 1.409 . S
C633 C631 1.415 . S
C634 H624 0.930 . S
C634 C632 1.419 . S
C634 C635 1.362 . S
C635 H625 0.930 . S
C635 C628 1.409 . S
C635 C634 1.362 . S
H636 C642 0.930 . S
H637 C645 0.930 . S
H638 C646 0.930 . S
H639 C647 0.930 . S
H640 C650 0.930 . S
H641 C651 0.930 . S
C642 H636 0.930 . S
C642 C643 1.355 . S
C642 C644 1.415 . S
C643 C642 1.355 . S
C643 C645 1.419 . S
C644 C642 1.415 . S
C644 C649 1.425 . S
C644 C651 1.409 . S
C645 H637 0.930 . S
C645 C643 1.419 . S
C645 C646 1.362 . S
C646 H638 0.930 . S
C646 C645 1.362 . S
C646 C649 1.409 . S
C647 H639 0.930 . S
C647 C648 1.355 . S
C647 C649 1.415 . S
C648 C647 1.355 . S
C648 C650 1.419 . S
C649 C644 1.425 . S
C649 C646 1.409 . S
C649 C647 1.415 . S
C650 H640 0.930 . S
C650 C648 1.419 . S
C650 C651 1.362 . S
C651 H641 0.930 . S
C651 C644 1.409 . S
C651 C650 1.362 . S
H652 C658 0.930 . S
H653 C661 0.930 . S
H654 C662 0.930 . S
H655 C663 0.930 . S
H656 C666 0.930 . S
H657 C667 0.930 . S
C658 H652 0.930 . S
C658 C659 1.355 . S
C658 C660 1.415 . S
C659 C658 1.355 . S
C659 C661 1.419 . S
C660 C658 1.415 . S
C660 C665 1.425 . S
C660 C667 1.409 . S
C661 H653 0.930 . S
C661 C659 1.419 . S
C661 C662 1.362 . S
C662 H654 0.930 . S
C662 C661 1.362 . S
C662 C665 1.409 . S
C663 H655 0.930 . S
C663 C664 1.355 . S
C663 C665 1.415 . S
C664 C663 1.355 . S
C664 C666 1.419 . S
C665 C660 1.425 . S
C665 C662 1.409 . S
C665 C663 1.415 . S
C666 H656 0.930 . S
C666 C664 1.419 . S
C666 C667 1.362 . S
C667 H657 0.930 . S
C667 C660 1.409 . S
C667 C666 1.362 . S
H668 C674 0.930 . S
H669 C677 0.930 . S
H670 C678 0.930 . S
H671 C679 0.930 . S
H672 C682 0.930 . S
H673 C683 0.930 . S
C674 H668 0.930 . S
C674 C675 1.355 . S
C674 C676 1.415 . S
C675 C674 1.355 . S
C675 C677 1.419 . S
C676 C674 1.415 . S
C676 C681 1.425 . S
C676 C683 1.409 . S
C677 H669 0.930 . S
C677 C675 1.419 . S
C677 C678 1.362 . S
C678 H670 0.930 . S
C678 C677 1.362 . S
C678 C681 1.409 . S
C679 H671 0.930 . S
C679 C680 1.355 . S
C679 C681 1.415 . S
C680 C679 1.355 . S
C680 C682 1.419 . S
C681 C676 1.425 . S
C681 C678 1.409 . S
C681 C679 1.415 . S
C682 H672 0.930 . S
C682 C680 1.419 . S
C682 C683 1.362 . S
C683 H673 0.930 . S
C683 C676 1.409 . S
C683 C682 1.362 . S
H684 C690 0.930 . S
H685 C693 0.930 . S
H686 C694 0.946 . S
H687 C695 0.930 . S
H688 C698 0.930 . S
H689 C699 0.946 . S
C690 H684 0.930 . S
C690 C691 1.355 . S
C690 C692 1.415 . S
C691 C690 1.355 . S
C691 C693 1.419 . S
C692 C690 1.415 . S
C692 C697 1.425 1_554 S
C692 C699 1.409 1_554 S
C693 H685 0.930 . S
C693 C691 1.419 . S
C693 C694 1.362 . S
C694 H686 0.946 . S
C694 C693 1.362 . S
C694 C697 1.409 1_554 S
C695 H687 0.930 . S
C695 C696 1.355 . S
C695 C697 1.415 . S
C696 C695 1.355 . S
C696 C698 1.419 . S
C697 C692 1.425 1_556 S
C697 C694 1.409 1_556 S
C697 C695 1.415 . S
C698 H688 0.930 . S
C698 C696 1.419 . S
C698 C699 1.362 . S
C699 H689 0.946 . S
C699 C692 1.409 1_556 S
C699 C698 1.362 . S
H700 C706 0.930 . S
H701 C709 0.930 . S
H702 C710 0.930 . S
H703 C711 0.930 . S
H704 C714 0.930 . S
H705 C715 0.930 . S
C706 H700 0.930 . S
C706 C707 1.355 . S
C706 C708 1.415 . S
C707 C706 1.355 . S
C707 C709 1.419 1_545 S
C708 C706 1.415 . S
C708 C713 1.425 1_546 S
C708 C715 1.409 1_556 S
C709 H701 0.930 . S
C709 C707 1.419 1_565 S
C709 C710 1.362 . S
C710 H702 0.930 . S
C710 C709 1.362 . S
C710 C713 1.409 1_556 S
C711 H703 0.930 . S
C711 C712 1.355 . S
C711 C713 1.415 . S
C712 C711 1.355 . S
C712 C714 1.419 1_565 S
C713 C708 1.425 1_564 S
C713 C710 1.409 1_554 S
C713 C711 1.415 . S
C714 H704 0.930 . S
C714 C712 1.419 1_545 S
C714 C715 1.362 . S
C715 H705 0.930 . S
C715 C708 1.409 1_554 S
C715 C714 1.362 . S
H716 C722 0.930 . S
H717 C725 0.930 . S
H718 C726 0.930 . S
H719 C727 0.930 . S
H720 C730 0.930 . S
H721 C731 0.930 . S
C722 H716 0.930 . S
C722 C723 1.355 . S
C722 C724 1.415 . S
C723 C722 1.355 . S
C723 C725 1.419 1_655 S
C724 C722 1.415 . S
C724 C729 1.425 1_656 S
C724 C731 1.409 1_556 S
C725 H717 0.930 . S
C725 C723 1.419 1_455 S
C725 C726 1.362 . S
C726 H718 0.930 . S
C726 C725 1.362 . S
C726 C729 1.409 1_556 S
C727 H719 0.930 . S
C727 C728 1.355 . S
C727 C729 1.415 . S
C728 C727 1.355 . S
C728 C730 1.419 1_455 S
C729 C724 1.425 1_454 S
C729 C726 1.409 1_554 S
C729 C727 1.415 . S
C730 H720 0.930 . S
C730 C728 1.419 1_655 S
C730 C731 1.362 . S
C731 H721 0.930 . S
C731 C724 1.409 1_554 S
C731 C730 1.362 . S
H732 C738 0.930 . S
H733 C741 0.930 . S
H734 C742 0.930 . S
H735 C743 0.930 . S
H736 C746 0.930 . S
H737 C747 0.930 . S
C738 H732 0.930 . S
C738 C739 1.355 . S
C738 C740 1.415 . S
C739 C738 1.355 . S
C739 C741 1.419 . S
C740 C738 1.415 . S
C740 C745 1.425 . S
C740 C747 1.409 . S
C741 H733 0.930 . S
C741 C739 1.419 . S
C741 C742 1.362 . S
C742 H734 0.930 . S
C742 C741 1.362 . S
C742 C745 1.409 . S
C743 H735 0.930 . S
C743 C744 1.355 . S
C743 C745 1.415 . S
C744 C743 1.355 . S
C744 C746 1.419 . S
C745 C740 1.425 . S
C745 C742 1.409 . S
C745 C743 1.415 . S
C746 H736 0.930 . S
C746 C744 1.419 . S
C746 C747 1.362 . S
C747 H737 0.930 . S
C747 C740 1.409 . S
C747 C746 1.362 . S
H748 C754 0.930 . S
H749 C757 0.930 . S
H750 C758 0.930 . S
H751 C759 0.930 . S
H752 C762 0.930 . S
H753 C763 0.930 . S
C754 H748 0.930 . S
C754 C755 1.355 . S
C754 C756 1.415 . S
C755 C754 1.355 . S
C755 C757 1.419 . S
C756 C754 1.415 . S
C756 C761 1.425 . S
C756 C763 1.409 . S
C757 H749 0.930 . S
C757 C755 1.419 . S
C757 C758 1.362 . S
C758 H750 0.930 . S
C758 C757 1.362 . S
C758 C761 1.409 . S
C759 H751 0.930 . S
C759 C760 1.355 . S
C759 C761 1.415 . S
C760 C759 1.355 . S
C760 C762 1.419 . S
C761 C756 1.425 . S
C761 C758 1.409 . S
C761 C759 1.415 . S
C762 H752 0.930 . S
C762 C760 1.419 . S
C762 C763 1.362 . S
C763 H753 0.930 . S
C763 C756 1.409 . S
C763 C762 1.362 . S
H764 C770 0.930 . S
H765 C773 0.930 . S
H766 C774 0.930 . S
H767 C775 0.930 . S
H768 C778 0.930 . S
H769 C779 0.930 . S
C770 H764 0.930 . S
C770 C771 1.355 . S
C770 C772 1.415 . S
C771 C770 1.355 . S
C771 C773 1.419 . S
C772 C770 1.415 . S
C772 C777 1.425 . S
C772 C779 1.409 . S
C773 H765 0.930 . S
C773 C771 1.419 . S
C773 C774 1.362 . S
C774 H766 0.930 . S
C774 C773 1.362 . S
C774 C777 1.409 . S
C775 H767 0.930 . S
C775 C776 1.355 . S
C775 C777 1.415 . S
C776 C775 1.355 . S
C776 C778 1.419 . S
C777 C772 1.425 . S
C777 C774 1.409 . S
C777 C775 1.415 . S
C778 H768 0.930 . S
C778 C776 1.419 . S
C778 C779 1.362 . S
C779 H769 0.930 . S
C779 C772 1.409 . S
C779 C778 1.362 . S
H780 C786 0.930 . S
H781 C789 0.930 . S
H782 C790 0.930 . S
H783 C791 0.930 . S
H784 C794 0.930 . S
H785 C795 0.930 . S
C786 H780 0.930 . S
C786 C787 1.355 . S
C786 C788 1.415 . S
C787 C786 1.355 . S
C787 C789 1.419 . S
C788 C786 1.415 . S
C788 C793 1.425 . S
C788 C795 1.409 . S
C789 H781 0.930 . S
C789 C787 1.419 . S
C789 C790 1.362 . S
C790 H782 0.930 . S
C790 C789 1.362 . S
C790 C793 1.409 . S
C791 H783 0.930 . S
C791 C792 1.355 . S
C791 C793 1.415 . S
C792 C791 1.355 . S
C792 C794 1.419 . S
C793 C788 1.425 . S
C793 C790 1.409 . S
C793 C791 1.415 . S
C794 H784 0.930 . S
C794 C792 1.419 . S
C794 C795 1.362 . S
C795 H785 0.930 . S
C795 C788 1.409 . S
C795 C794 1.362 . S
H796 C802 0.930 . S
H797 C805 0.930 . S
H798 C806 0.930 . S
H799 C807 0.930 . S
H800 C810 0.930 . S
H801 C811 0.930 . S
C802 H796 0.930 . S
C802 C803 1.355 . S
C802 C804 1.415 . S
C803 C802 1.355 . S
C803 C805 1.419 . S
C804 C802 1.415 . S
C804 C809 1.425 . S
C804 C811 1.409 . S
C805 H797 0.930 . S
C805 C803 1.419 . S
C805 C806 1.362 . S
C806 H798 0.930 . S
C806 C805 1.362 . S
C806 C809 1.409 . S
C807 H799 0.930 . S
C807 C808 1.355 . S
C807 C809 1.415 . S
C808 C807 1.355 . S
C808 C810 1.419 . S
C809 C804 1.425 . S
C809 C806 1.409 . S
C809 C807 1.415 . S
C810 H800 0.930 . S
C810 C808 1.419 . S
C810 C811 1.362 . S
C811 H801 0.930 . S
C811 C804 1.409 . S
C811 C810 1.362 . S
H812 C818 0.930 . S
H813 C821 0.930 . S
H814 C822 0.930 . S
H815 C823 0.930 . S
H816 C826 0.930 . S
H817 C827 0.930 . S
C818 H812 0.930 . S
C818 C819 1.355 . S
C818 C820 1.415 . S
C819 C818 1.355 . S
C819 C821 1.419 . S
C820 C818 1.415 . S
C820 C825 1.425 . S
C820 C827 1.409 . S
C821 H813 0.930 . S
C821 C819 1.419 . S
C821 C822 1.362 . S
C822 H814 0.930 . S
C822 C821 1.362 . S
C822 C825 1.409 . S
C823 H815 0.930 . S
C823 C824 1.355 . S
C823 C825 1.415 . S
C824 C823 1.355 . S
C824 C826 1.419 . S
C825 C820 1.425 . S
C825 C822 1.409 . S
C825 C823 1.415 . S
C826 H816 0.930 . S
C826 C824 1.419 . S
C826 C827 1.362 . S
C827 H817 0.930 . S
C827 C820 1.409 . S
C827 C826 1.362 . S
C259 C148 1.214 . S
C264 C8 1.235 . S
C275 C22 1.205 . S
C280 C162 1.225 . S
C291 C134 1.217 . S
C296 C36 1.237 . S
C307 C204 1.196 . S
C312 C50 1.206 . S
C323 C64 1.209 . S
C328 C176 1.229 . S
C339 C190 1.197 . S
C344 C78 1.201 . S
C355 C92 1.214 . S
C360 C232 1.235 . S
C371 C246 1.207 . S
C376 C106 1.197 . S
C387 C120 1.221 . S
C392 C218 1.202 . S
C403 C9 1.018 . S
C408 C17 1.179 . S
C419 C23 1.078 . S
C424 C31 1.186 . S
C435 C3 1.157 . S
C440 C37 1.145 . S
C451 C73 1.147 . S
C456 C51 1.153 . S
C467 C45 1.186 . S
C472 C65 1.080 . S
C483 C79 1.041 . S
C488 C59 1.164 . S
C499 C93 1.141 . S
C504 C101 1.160 . S
C515 C107 1.154 . S
C520 C115 1.145 . S
C531 C87 1.151 . S
C536 C121 1.071 . S
C547 C157 1.139 . S
C552 C135 1.150 . S
C563 C129 1.176 . S
C568 C149 1.020 . S
C579 C143 1.153 . S
C584 C163 1.064 . S
C595 C185 1.192 . S
C600 C177 1.021 . S
C611 C199 1.137 . S
C616 C191 1.146 . S
C627 C171 1.138 . S
C632 C205 1.149 . S
C643 C219 1.019 . S
C648 C241 1.178 . S
C659 C233 1.016 . S
C664 C213 1.182 . S
C675 C247 1.113 . S
C680 C227 1.175 . S
C691 C7 1.629 . S
C696 C49 1.588 . S
C707 C63 1.568 . S
C712 C21 1.591 . S
C723 C77 1.610 . S
C728 C35 1.555 . S
C739 C133 1.610 . S
C744 C91 1.611 . S
C755 C147 1.556 . S
C760 C105 1.610 . S
C771 C119 1.561 . S
C776 C161 1.601 . S
C787 C217 1.583 . S
C792 C175 1.631 . S
C803 C231 1.635 . S
C808 C189 1.555 . S
C819 C245 1.565 . S
C824 C203 1.595 . S
