# Generated by pormake.
# Topology tzs, (4)-cn, num edge types: 1
# Building blocks:
#     Node 0, Type 0, BuildingBlock: ICAMEG_clean_sbu_1, # of connection points: 4
#     Node 1, Type 0, BuildingBlock: ICAMEG_clean_sbu_1, # of connection points: 4
#     Node 2, Type 0, BuildingBlock: ICAMEG_clean_sbu_1, # of connection points: 4
#     Node 3, Type 0, BuildingBlock: ICAMEG_clean_sbu_1, # of connection points: 4
#     Node 4, Type 0, BuildingBlock: ICAMEG_clean_sbu_1, # of connection points: 4
#     Node 5, Type 0, BuildingBlock: ICAMEG_clean_sbu_1, # of connection points: 4
#     Node 6, Type 0, BuildingBlock: ICAMEG_clean_sbu_1, # of connection points: 4
#     Node 7, Type 0, BuildingBlock: ICAMEG_clean_sbu_1, # of connection points: 4
#     Node 8, Type 0, BuildingBlock: ICAMEG_clean_sbu_1, # of connection points: 4
#     Node 9, Type 0, BuildingBlock: ICAMEG_clean_sbu_1, # of connection points: 4
#     Node 10, Type 0, BuildingBlock: ICAMEG_clean_sbu_1, # of connection points: 4
#     Node 11, Type 0, BuildingBlock: ICAMEG_clean_sbu_1, # of connection points: 4
#     Node 12, Type 0, BuildingBlock: ICAMEG_clean_sbu_1, # of connection points: 4
#     Node 13, Type 0, BuildingBlock: ICAMEG_clean_sbu_1, # of connection points: 4
#     Node 14, Type 0, BuildingBlock: ICAMEG_clean_sbu_1, # of connection points: 4
#     Node 15, Type 0, BuildingBlock: ICAMEG_clean_sbu_1, # of connection points: 4
#     Edge 16, Type (0, 0), BuildingBlock: UVAHIK_clean_linker_0, # of connection points: 2
#     Edge 17, Type (0, 0), BuildingBlock: UVAHIK_clean_linker_0, # of connection points: 2
#     Edge 18, Type (0, 0), BuildingBlock: UVAHIK_clean_linker_0, # of connection points: 2
#     Edge 19, Type (0, 0), BuildingBlock: UVAHIK_clean_linker_0, # of connection points: 2
#     Edge 20, Type (0, 0), BuildingBlock: UVAHIK_clean_linker_0, # of connection points: 2
#     Edge 21, Type (0, 0), BuildingBlock: UVAHIK_clean_linker_0, # of connection points: 2
#     Edge 22, Type (0, 0), BuildingBlock: UVAHIK_clean_linker_0, # of connection points: 2
#     Edge 23, Type (0, 0), BuildingBlock: UVAHIK_clean_linker_0, # of connection points: 2
#     Edge 24, Type (0, 0), BuildingBlock: UVAHIK_clean_linker_0, # of connection points: 2
#     Edge 25, Type (0, 0), BuildingBlock: UVAHIK_clean_linker_0, # of connection points: 2
#     Edge 26, Type (0, 0), BuildingBlock: UVAHIK_clean_linker_0, # of connection points: 2
#     Edge 27, Type (0, 0), BuildingBlock: UVAHIK_clean_linker_0, # of connection points: 2
#     Edge 28, Type (0, 0), BuildingBlock: UVAHIK_clean_linker_0, # of connection points: 2
#     Edge 29, Type (0, 0), BuildingBlock: UVAHIK_clean_linker_0, # of connection points: 2
#     Edge 30, Type (0, 0), BuildingBlock: UVAHIK_clean_linker_0, # of connection points: 2
#     Edge 31, Type (0, 0), BuildingBlock: UVAHIK_clean_linker_0, # of connection points: 2
#     Edge 32, Type (0, 0), BuildingBlock: UVAHIK_clean_linker_0, # of connection points: 2
#     Edge 33, Type (0, 0), BuildingBlock: UVAHIK_clean_linker_0, # of connection points: 2
#     Edge 34, Type (0, 0), BuildingBlock: UVAHIK_clean_linker_0, # of connection points: 2
#     Edge 35, Type (0, 0), BuildingBlock: UVAHIK_clean_linker_0, # of connection points: 2
#     Edge 36, Type (0, 0), BuildingBlock: UVAHIK_clean_linker_0, # of connection points: 2
#     Edge 37, Type (0, 0), BuildingBlock: UVAHIK_clean_linker_0, # of connection points: 2
#     Edge 38, Type (0, 0), BuildingBlock: UVAHIK_clean_linker_0, # of connection points: 2
#     Edge 39, Type (0, 0), BuildingBlock: UVAHIK_clean_linker_0, # of connection points: 2
#     Edge 40, Type (0, 0), BuildingBlock: UVAHIK_clean_linker_0, # of connection points: 2
#     Edge 41, Type (0, 0), BuildingBlock: UVAHIK_clean_linker_0, # of connection points: 2
#     Edge 42, Type (0, 0), BuildingBlock: UVAHIK_clean_linker_0, # of connection points: 2
#     Edge 43, Type (0, 0), BuildingBlock: UVAHIK_clean_linker_0, # of connection points: 2
#     Edge 44, Type (0, 0), BuildingBlock: UVAHIK_clean_linker_0, # of connection points: 2
#     Edge 45, Type (0, 0), BuildingBlock: UVAHIK_clean_linker_0, # of connection points: 2
#     Edge 46, Type (0, 0), BuildingBlock: UVAHIK_clean_linker_0, # of connection points: 2
#     Edge 47, Type (0, 0), BuildingBlock: UVAHIK_clean_linker_0, # of connection points: 2
# Relax obj value: 0.146
# Max RMSD: 0.174
# Mean RMSD: 0.174
data_MOF--net-tzs--node1-ICAMEG_clean_sbu_1--edge1-UVAHIK_clean_linker_0
_symmetry_space_group_name_H-M    P1
_symmetry_Int_Tables_number       1
_symmetry_cell_setting            triclinic
loop_
_symmetry_equiv_pos_as_xyz
'x, y, z'
_cell_length_a     63.61089
_cell_length_b     63.662704
_cell_length_c     56.491564
_cell_angle_alpha  89.964362
_cell_angle_beta   90.019583
_cell_angle_gamma 90.056873
loop_
_atom_site_label
_atom_site_type_symbol
_atom_site_fract_x
_atom_site_fract_y
_atom_site_fract_z
_atom_type_partial_charge
Co0 Co 0.1338 0.37652 0.16572 0.0
Co1 Co 0.14794 0.35033 0.21573 0.0
O2 O 0.14902 0.3534 0.18113 0.0
C3 C 0.13375 0.34108 0.12952 0.0
O4 O 0.14394 0.3282 0.14357 0.0
C5 C 0.19417 0.34455 0.20752 0.0
O6 O 0.19473 0.36171 0.19462 0.0
O7 O 0.15993 0.37905 0.21928 0.0
O8 O 0.13892 0.3954 0.19347 0.0
H9 H 0.13316 0.37498 0.29855 0.0
H10 H 0.17156 0.35614 0.14368 0.0
O11 O 0.12814 0.3592 0.13667 0.0
H12 H 0.18679 0.43197 0.14334 0.0
H13 H 0.11154 0.42235 0.09735 0.0
H14 H 0.10227 0.40746 0.18238 0.0
H15 H 0.15345 0.41873 0.1596 0.0
H16 H 0.13167 0.39403 0.11659 0.0
O17 O 0.17685 0.33799 0.21607 0.0
H18 H 0.13397 0.37782 0.25503 0.0
H19 H 0.16071 0.31689 0.24996 0.0
H20 H 0.082 0.43608 0.16388 0.0
H21 H 0.20484 0.36872 0.1269 0.0
H22 H 0.08657 0.44369 0.12106 0.0
H23 H 0.21275 0.40691 0.12665 0.0
O24 O 0.10701 0.36633 0.18015 0.0
H25 H 0.14445 0.27791 0.18073 0.0
H26 H 0.11136 0.32727 0.23665 0.0
H27 H 0.09599 0.29206 0.23113 0.0
H28 H 0.11258 0.26707 0.20304 0.0
H29 H 0.1592 0.31339 0.18665 0.0
H30 H 0.16038 0.31347 0.29343 0.0
H31 H 0.14644 0.34263 0.31804 0.0
O32 O 0.11875 0.3621 0.21712 0.0
C33 C 0.1523 0.39575 0.21029 0.0
C34 C 0.13924 0.36216 0.28802 0.0
C35 C 0.15454 0.32765 0.28515 0.0
N36 N 0.14732 0.34752 0.24994 0.0
C37 C 0.13971 0.36366 0.26336 0.0
C38 C 0.15476 0.32971 0.26054 0.0
C39 C 0.14671 0.34401 0.29895 0.0
C40 C 0.17448 0.37277 0.14321 0.0
N41 N 0.1601 0.38663 0.15206 0.0
C42 C 0.19355 0.37982 0.13386 0.0
C43 C 0.19801 0.40124 0.13379 0.0
C44 C 0.18346 0.41529 0.14314 0.0
C45 C 0.16456 0.40767 0.15232 0.0
C46 C 0.10942 0.41921 0.11603 0.0
C47 C 0.10444 0.41072 0.16377 0.0
C48 C 0.12072 0.40312 0.12702 0.0
N49 N 0.11825 0.39914 0.15065 0.0
C50 C 0.09288 0.42693 0.15337 0.0
C51 C 0.09543 0.43118 0.12934 0.0
C52 C 0.10375 0.36416 0.20231 0.0
C53 C 0.13707 0.28866 0.19302 0.0
C54 C 0.11859 0.31657 0.22425 0.0
C55 C 0.10985 0.29661 0.22128 0.0
C56 C 0.11918 0.28259 0.20553 0.0
N57 N 0.13612 0.32241 0.21189 0.0
C58 C 0.14537 0.30875 0.19646 0.0
Co59 Co 0.62196 0.14388 0.18587 0.0
Co60 Co 0.65926 0.15198 0.2282 0.0
O61 O 0.64805 0.15747 0.19652 0.0
C62 C 0.64885 0.13671 0.14267 0.0
O63 O 0.66247 0.12569 0.15496 0.0
C64 C 0.66147 0.1988 0.22621 0.0
O65 O 0.64285 0.19941 0.21621 0.0
O66 O 0.63217 0.16141 0.24232 0.0
O67 O 0.61008 0.14376 0.21864 0.0
H68 H 0.65593 0.12317 0.31092 0.0
H69 H 0.63665 0.18295 0.1624 0.0
O70 O 0.63259 0.14432 0.15255 0.0
H71 H 0.56589 0.19937 0.19282 0.0
H72 H 0.56204 0.13176 0.12915 0.0
H73 H 0.59486 0.10949 0.20415 0.0
H74 H 0.58111 0.16413 0.19839 0.0
H75 H 0.59424 0.14911 0.1436 0.0
O76 O 0.67026 0.18132 0.23077 0.0
H77 H 0.64273 0.13011 0.27061 0.0
H78 H 0.699 0.16278 0.25365 0.0
H79 H 0.56261 0.09182 0.19041 0.0
H80 H 0.62187 0.21831 0.15607 0.0
H81 H 0.54597 0.10294 0.15264 0.0
H82 H 0.58628 0.22674 0.17143 0.0
O83 O 0.63429 0.1155 0.19192 0.0
H84 H 0.71985 0.15843 0.17177 0.0
H85 H 0.68795 0.11518 0.23466 0.0
H86 H 0.7208 0.10341 0.21574 0.0
H87 H 0.73701 0.12513 0.18407 0.0
H88 H 0.68687 0.1695 0.19108 0.0
H89 H 0.71271 0.15638 0.29385 0.0
H90 H 0.69115 0.13635 0.32277 0.0
O91 O 0.64899 0.12224 0.22714 0.0
C92 C 0.614 0.15433 0.23724 0.0
C93 C 0.66549 0.13187 0.29846 0.0
C94 C 0.69735 0.15052 0.28889 0.0
N95 N 0.67013 0.14672 0.25974 0.0
C96 C 0.65812 0.13581 0.27559 0.0
C97 C 0.68948 0.15415 0.26617 0.0
C98 C 0.68525 0.13928 0.3051 0.0
C99 C 0.62106 0.18642 0.16891 0.0
N100 N 0.60976 0.17146 0.18071 0.0
C101 C 0.61281 0.2065 0.16536 0.0
C102 C 0.59285 0.21123 0.17401 0.0
C103 C 0.58141 0.19589 0.18601 0.0
C104 C 0.59015 0.17597 0.18919 0.0
C105 C 0.56914 0.12678 0.14563 0.0
C106 C 0.5877 0.11448 0.18774 0.0
C107 C 0.58742 0.13651 0.15388 0.0
N108 N 0.59643 0.13037 0.17475 0.0
C109 C 0.56944 0.10439 0.18003 0.0
C110 C 0.56013 0.11062 0.15883 0.0
C111 C 0.64201 0.10941 0.21166 0.0
C112 C 0.71296 0.14884 0.18557 0.0
C113 C 0.69482 0.12465 0.22082 0.0
C114 C 0.71348 0.11794 0.21022 0.0
C115 C 0.72257 0.13014 0.19246 0.0
N116 N 0.68552 0.14302 0.21399 0.0
C117 C 0.69433 0.15506 0.19659 0.0
Co118 Co 0.87004 0.6249 0.17053 0.0
Co119 Co 0.85798 0.66076 0.21304 0.0
O120 O 0.85552 0.65072 0.18036 0.0
C121 C 0.86975 0.65324 0.12719 0.0
O122 O 0.86237 0.66914 0.13936 0.0
C123 C 0.81113 0.66433 0.20857 0.0
O124 O 0.8098 0.64433 0.20305 0.0
O125 O 0.8463 0.63365 0.22453 0.0
O126 O 0.86638 0.61219 0.20276 0.0
H127 H 0.87653 0.65367 0.29914 0.0
H128 H 0.83219 0.64063 0.14468 0.0
O129 O 0.87415 0.63592 0.1374 0.0
H130 H 0.81506 0.56797 0.16776 0.0
H131 H 0.88839 0.56603 0.11463 0.0
H132 H 0.90236 0.59765 0.19274 0.0
H133 H 0.84944 0.58332 0.17792 0.0
H134 H 0.86943 0.59785 0.12729 0.0
O135 O 0.82901 0.67296 0.21157 0.0
H136 H 0.87393 0.64203 0.25762 0.0
H137 H 0.84607 0.70019 0.23834 0.0
H138 H 0.92153 0.56573 0.18085 0.0
H139 H 0.79781 0.62579 0.13387 0.0
H140 H 0.91459 0.5497 0.14154 0.0
H141 H 0.78898 0.5892 0.14545 0.0
O142 O 0.89749 0.63726 0.18054 0.0
H143 H 0.85923 0.72473 0.16095 0.0
H144 H 0.89553 0.68692 0.22524 0.0
H145 H 0.91039 0.72013 0.21026 0.0
H146 H 0.89218 0.73931 0.17791 0.0
H147 H 0.84502 0.69132 0.17631 0.0
H148 H 0.84818 0.71237 0.27969 0.0
H149 H 0.86358 0.68908 0.31041 0.0
O150 O 0.88727 0.64934 0.21588 0.0
C151 C 0.85373 0.6156 0.21979 0.0
C152 C 0.86983 0.66399 0.28591 0.0
C153 C 0.85389 0.69692 0.275 0.0
N154 N 0.85997 0.67045 0.24553 0.0
C155 C 0.86836 0.6575 0.26235 0.0
C156 C 0.85269 0.68991 0.25161 0.0
C157 C 0.86255 0.68385 0.29222 0.0
C158 C 0.82874 0.6246 0.14941 0.0
N159 N 0.84313 0.61276 0.16144 0.0
C160 C 0.80912 0.61631 0.14339 0.0
C161 C 0.80415 0.5958 0.14994 0.0
C162 C 0.81878 0.58388 0.16243 0.0
C163 C 0.83825 0.59267 0.16811 0.0
C164 C 0.89154 0.57286 0.13181 0.0
C165 C 0.89918 0.59074 0.17564 0.0
C166 C 0.8809 0.59093 0.13906 0.0
N167 N 0.88472 0.5996 0.16079 0.0
C168 C 0.91012 0.57268 0.16899 0.0
C169 C 0.90623 0.5637 0.14692 0.0
C170 C 0.90162 0.64359 0.20148 0.0
C171 C 0.86732 0.71651 0.17503 0.0
C172 C 0.88761 0.69504 0.211 0.0
C173 C 0.89605 0.71391 0.20267 0.0
C174 C 0.88582 0.72467 0.18455 0.0
N175 N 0.86949 0.68711 0.20153 0.0
C176 C 0.85933 0.69761 0.18382 0.0
Co177 Co 0.37848 0.87581 0.16966 0.0
Co178 Co 0.35235 0.85562 0.21686 0.0
O179 O 0.3577 0.85606 0.18268 0.0
C180 C 0.34633 0.86916 0.13046 0.0
O181 O 0.33428 0.85747 0.14397 0.0
C182 C 0.35296 0.81035 0.22826 0.0
O183 O 0.36825 0.8148 0.24308 0.0
O184 O 0.38265 0.84892 0.22194 0.0
O185 O 0.39569 0.87447 0.19931 0.0
H186 H 0.36919 0.8724 0.30166 0.0
H187 H 0.36794 0.8352 0.1456 0.0
O188 O 0.3627 0.878 0.13886 0.0
H189 H 0.44504 0.83544 0.15364 0.0
H190 H 0.42407 0.90773 0.1061 0.0
H191 H 0.40103 0.91281 0.18922 0.0
H192 H 0.42412 0.86524 0.16817 0.0
H193 H 0.39903 0.88202 0.12254 0.0
O194 O 0.34561 0.82473 0.21483 0.0
H195 H 0.37475 0.8729 0.25845 0.0
H196 H 0.31937 0.83669 0.24819 0.0
H197 H 0.42625 0.9387 0.17354 0.0
H198 H 0.38828 0.80532 0.13044 0.0
H199 H 0.43795 0.93627 0.13169 0.0
H200 H 0.42716 0.80523 0.13443 0.0
O201 O 0.36207 0.89958 0.18314 0.0
H202 H 0.28255 0.84646 0.17653 0.0
H203 H 0.32183 0.88694 0.2364 0.0
H204 H 0.28475 0.89563 0.22845 0.0
H205 H 0.26482 0.87528 0.19838 0.0
H206 H 0.31975 0.83844 0.18486 0.0
H207 H 0.31325 0.83575 0.29128 0.0
H208 H 0.33826 0.85371 0.31834 0.0
O209 O 0.35841 0.88659 0.21973 0.0
C210 C 0.39802 0.85993 0.21456 0.0
C211 C 0.35817 0.86452 0.29005 0.0
C212 C 0.32678 0.84396 0.28423 0.0
N213 N 0.34739 0.85489 0.25081 0.0
C214 C 0.36124 0.86476 0.26557 0.0
C215 C 0.33033 0.84455 0.25985 0.0
C216 C 0.34081 0.85404 0.2994 0.0
C217 C 0.38482 0.83562 0.14701 0.0
N218 N 0.39475 0.85236 0.15723 0.0
C219 C 0.39628 0.8185 0.13855 0.0
C220 C 0.41809 0.81843 0.14084 0.0
C221 C 0.42812 0.83537 0.15159 0.0
C222 C 0.41615 0.85224 0.15976 0.0
C223 C 0.4191 0.90895 0.12437 0.0
C224 C 0.40608 0.91156 0.17102 0.0
C225 C 0.40484 0.89449 0.13376 0.0
N226 N 0.39857 0.89585 0.15687 0.0
C227 C 0.42035 0.92631 0.16223 0.0
C228 C 0.42689 0.92495 0.13874 0.0
C229 C 0.35853 0.90202 0.20523 0.0
C230 C 0.29106 0.85544 0.18969 0.0
C231 C 0.31335 0.87812 0.22313 0.0
C232 C 0.29231 0.88306 0.21879 0.0
C233 C 0.28113 0.87162 0.20193 0.0
N234 N 0.32299 0.86221 0.21105 0.0
C235 C 0.31212 0.85094 0.1945 0.0
Co236 Co 0.13726 0.62299 0.3412 0.0
Co237 Co 0.15604 0.64945 0.2932 0.0
O238 O 0.1554 0.64484 0.32754 0.0
C239 C 0.13952 0.65732 0.37864 0.0
O240 O 0.15084 0.66971 0.36513 0.0
C241 C 0.20146 0.65161 0.28274 0.0
O242 O 0.19822 0.63584 0.26821 0.0
O243 O 0.16469 0.61964 0.28879 0.0
O244 O 0.14125 0.60459 0.31287 0.0
H245 H 0.14197 0.63002 0.20846 0.0
H246 H 0.17594 0.63858 0.36596 0.0
O247 O 0.13254 0.6399 0.37079 0.0
H248 H 0.18323 0.56162 0.36326 0.0
H249 H 0.10786 0.57761 0.40648 0.0
H250 H 0.10312 0.59621 0.3219 0.0
H251 H 0.15215 0.5788 0.34604 0.0
H252 H 0.13161 0.60418 0.38934 0.0
O253 O 0.18641 0.65828 0.29567 0.0
H254 H 0.14108 0.62518 0.25176 0.0
H255 H 0.17314 0.6831 0.26148 0.0
H256 H 0.07922 0.56939 0.33828 0.0
H257 H 0.20702 0.62204 0.38372 0.0
H258 H 0.08149 0.55993 0.38086 0.0
H259 H 0.21091 0.58325 0.38246 0.0
O260 O 0.11231 0.63636 0.32604 0.0
H261 H 0.15995 0.72049 0.33165 0.0
H262 H 0.12281 0.67724 0.27253 0.0
H263 H 0.11144 0.71372 0.27934 0.0
H264 H 0.1301 0.73566 0.30903 0.0
H265 H 0.17065 0.68383 0.32447 0.0
H266 H 0.17441 0.68854 0.21828 0.0
H267 H 0.15873 0.66189 0.19145 0.0
O268 O 0.12571 0.64114 0.2898 0.0
C269 C 0.15515 0.60349 0.29669 0.0
C270 C 0.14884 0.64175 0.21997 0.0
C271 C 0.16704 0.6746 0.22548 0.0
N272 N 0.15699 0.65385 0.25915 0.0
C273 C 0.14838 0.6391 0.2445 0.0
C274 C 0.16626 0.67143 0.24992 0.0
C275 C 0.15825 0.65964 0.21044 0.0
C276 C 0.17715 0.62172 0.36569 0.0
N277 N 0.16179 0.60974 0.35548 0.0
C278 C 0.19497 0.61242 0.37563 0.0
C279 C 0.19717 0.59066 0.37487 0.0
C280 C 0.18165 0.57853 0.36411 0.0
C281 C 0.16404 0.58838 0.35439 0.0
C282 C 0.10672 0.58158 0.38789 0.0
C283 C 0.10429 0.59213 0.34042 0.0
C284 C 0.12008 0.59669 0.37809 0.0
N285 N 0.11883 0.60171 0.35459 0.0
C286 C 0.09068 0.57695 0.34961 0.0
C287 C 0.09195 0.57166 0.37351 0.0
C288 C 0.11006 0.63953 0.30386 0.0
C289 C 0.1517 0.7111 0.31865 0.0
C290 C 0.1309 0.68659 0.28564 0.0
C291 C 0.12445 0.70729 0.28934 0.0
C292 C 0.13494 0.71959 0.30598 0.0
N293 N 0.14737 0.67837 0.29814 0.0
C294 C 0.15772 0.69034 0.31448 0.0
Co295 Co 0.37684 0.14019 0.33953 0.0
Co296 Co 0.35428 0.15718 0.28869 0.0
O297 O 0.35685 0.15839 0.32307 0.0
C298 C 0.35233 0.12533 0.38098 0.0
O299 O 0.35576 0.10599 0.37386 0.0
C300 C 0.35518 0.20212 0.27506 0.0
O301 O 0.37128 0.19759 0.26144 0.0
O302 O 0.3849 0.16378 0.28601 0.0
O303 O 0.39655 0.13998 0.31196 0.0
H304 H 0.37738 0.13642 0.20696 0.0
H305 H 0.36254 0.17994 0.36162 0.0
O306 O 0.35783 0.14068 0.36788 0.0
H307 H 0.43977 0.18569 0.35754 0.0
H308 H 0.4196 0.11589 0.40966 0.0
H309 H 0.40073 0.10193 0.32647 0.0
H310 H 0.42176 0.15391 0.34309 0.0
H311 H 0.39504 0.13921 0.38849 0.0
O312 O 0.3473 0.18798 0.28842 0.0
H313 H 0.37967 0.13799 0.25051 0.0
H314 H 0.32387 0.17449 0.25322 0.0
H315 H 0.42538 0.07825 0.34697 0.0
H316 H 0.37997 0.21188 0.37663 0.0
H317 H 0.43497 0.08516 0.38888 0.0
H318 H 0.41886 0.21493 0.37459 0.0
O319 O 0.36228 0.11505 0.32604 0.0
H320 H 0.28186 0.16693 0.32238 0.0
H321 H 0.32535 0.12506 0.26775 0.0
H322 H 0.28784 0.11635 0.27262 0.0
H323 H 0.26579 0.13742 0.30002 0.0
H324 H 0.31953 0.17495 0.3172 0.0
H325 H 0.32101 0.17338 0.2097 0.0
H326 H 0.34789 0.15421 0.18627 0.0
O327 O 0.36059 0.12626 0.28845 0.0
C328 C 0.39971 0.15309 0.29529 0.0
C329 C 0.36557 0.14482 0.21697 0.0
C330 C 0.33393 0.16555 0.2185 0.0
N331 N 0.35193 0.15629 0.2544 0.0
C332 C 0.36679 0.14576 0.24163 0.0
C333 C 0.33564 0.16613 0.24314 0.0
C334 C 0.34902 0.1548 0.20537 0.0
C335 C 0.37948 0.18106 0.36086 0.0
N336 N 0.39109 0.16498 0.35164 0.0
C337 C 0.38926 0.19922 0.36931 0.0
C338 C 0.41108 0.20093 0.36814 0.0
C339 C 0.42282 0.18454 0.35858 0.0
C340 C 0.41251 0.1666 0.35035 0.0
C341 C 0.41553 0.1127 0.3914 0.0
C342 C 0.40478 0.10504 0.34471 0.0
C343 C 0.40161 0.12584 0.37932 0.0
N344 N 0.39636 0.12191 0.35625 0.0
C345 C 0.41877 0.09158 0.35622 0.0
C346 C 0.42415 0.09547 0.37973 0.0
C347 C 0.36002 0.11155 0.30388 0.0
C348 C 0.29129 0.15768 0.31034 0.0
C349 C 0.31591 0.13423 0.27982 0.0
C350 C 0.29465 0.12926 0.28244 0.0
C351 C 0.28229 0.1411 0.29781 0.0
N352 N 0.32461 0.15059 0.29208 0.0
C353 C 0.31261 0.16219 0.30727 0.0
Co354 Co 0.86924 0.38469 0.34221 0.0
Co355 Co 0.8495 0.3604 0.29338 0.0
O356 O 0.8498 0.3641 0.32798 0.0
C357 C 0.86289 0.35113 0.38 0.0
O358 O 0.85084 0.33974 0.36619 0.0
C359 C 0.80437 0.35237 0.30892 0.0
O360 O 0.80861 0.35623 0.33121 0.0
O361 O 0.84237 0.39065 0.28989 0.0
O362 O 0.86764 0.40308 0.31344 0.0
H363 H 0.86774 0.38134 0.2101 0.0
H364 H 0.82922 0.37295 0.36722 0.0
O365 O 0.87175 0.36773 0.37221 0.0
H366 H 0.82782 0.45004 0.36067 0.0
H367 H 0.90028 0.42822 0.40807 0.0
H368 H 0.90594 0.40855 0.32391 0.0
H369 H 0.85774 0.42996 0.34499 0.0
H370 H 0.87502 0.40342 0.39033 0.0
O371 O 0.81861 0.35366 0.29314 0.0
H372 H 0.86805 0.38448 0.25361 0.0
H373 H 0.82965 0.3301 0.25964 0.0
H374 H 0.9314 0.43354 0.34091 0.0
H375 H 0.79923 0.39239 0.38344 0.0
H376 H 0.92867 0.44354 0.38329 0.0
H377 H 0.79829 0.43128 0.38022 0.0
O378 O 0.89337 0.36924 0.32806 0.0
H379 H 0.84318 0.28842 0.3299 0.0
H380 H 0.88024 0.33144 0.27055 0.0
H381 H 0.8898 0.29423 0.27539 0.0
H382 H 0.87115 0.27238 0.30517 0.0
H383 H 0.83431 0.3257 0.32467 0.0
H384 H 0.82877 0.32651 0.2162 0.0
H385 H 0.84799 0.35219 0.19112 0.0
O386 O 0.88043 0.36677 0.29138 0.0
C387 C 0.85343 0.40577 0.29782 0.0
C388 C 0.85935 0.37002 0.22084 0.0
C389 C 0.83745 0.33926 0.22426 0.0
N390 N 0.84902 0.35742 0.25917 0.0
C391 C 0.85951 0.37169 0.24549 0.0
C392 C 0.83797 0.34142 0.24885 0.0
C393 C 0.84825 0.35367 0.2102 0.0
C394 C 0.82925 0.38979 0.36599 0.0
N395 N 0.84555 0.40017 0.35543 0.0
C396 C 0.81207 0.40077 0.37512 0.0
C397 C 0.81152 0.42257 0.37326 0.0
C398 C 0.82807 0.4331 0.36231 0.0
C399 C 0.845 0.4216 0.35343 0.0
C400 C 0.90162 0.42399 0.38958 0.0
C401 C 0.90457 0.41286 0.34234 0.0
C402 C 0.88741 0.40989 0.37944 0.0
N403 N 0.88893 0.40456 0.35605 0.0
C404 C 0.91907 0.427 0.35188 0.0
C405 C 0.91754 0.43259 0.37566 0.0
C406 C 0.89585 0.36647 0.30586 0.0
C407 C 0.85134 0.29774 0.31677 0.0
C408 C 0.87205 0.32211 0.2836 0.0
C409 C 0.87753 0.301 0.28622 0.0
C410 C 0.86706 0.28875 0.30292 0.0
N411 N 0.85649 0.33082 0.29712 0.0
C412 C 0.84629 0.3189 0.31364 0.0
Co413 Co 0.6127 0.86462 0.32862 0.0
Co414 Co 0.65327 0.8537 0.29135 0.0
O415 O 0.63924 0.85016 0.32187 0.0
C416 C 0.63782 0.87085 0.37292 0.0
O417 O 0.65415 0.8765 0.36021 0.0
C418 C 0.65514 0.80647 0.29131 0.0
O419 O 0.63456 0.80527 0.29018 0.0
O420 O 0.62742 0.84376 0.27487 0.0
O421 O 0.60365 0.8628 0.2948 0.0
H422 H 0.65815 0.877 0.20654 0.0
H423 H 0.62488 0.82672 0.35592 0.0
O424 O 0.62048 0.86636 0.3629 0.0
H425 H 0.5564 0.80947 0.31984 0.0
H426 H 0.54836 0.88081 0.37725 0.0
H427 H 0.58809 0.89818 0.30489 0.0
H428 H 0.57255 0.84423 0.31358 0.0
H429 H 0.58129 0.86223 0.3678 0.0
O430 O 0.66427 0.82423 0.29314 0.0
H431 H 0.64119 0.87292 0.24552 0.0
H432 H 0.69488 0.84079 0.2717 0.0
H433 H 0.55517 0.91704 0.31358 0.0
H434 H 0.60916 0.79182 0.36288 0.0
H435 H 0.53506 0.9084 0.34999 0.0
H436 H 0.5747 0.78299 0.34472 0.0
O437 O 0.62613 0.89234 0.32186 0.0
H438 H 0.70905 0.85046 0.35419 0.0
H439 H 0.68252 0.89013 0.28542 0.0
H440 H 0.71384 0.90294 0.30672 0.0
H441 H 0.72734 0.88302 0.34135 0.0
H442 H 0.67762 0.83835 0.33252 0.0
H443 H 0.71234 0.84434 0.23294 0.0
H444 H 0.69398 0.86264 0.20005 0.0
O445 O 0.64329 0.88351 0.28871 0.0
C446 C 0.609 0.85124 0.27744 0.0
C447 C 0.66633 0.86904 0.22075 0.0
C448 C 0.69673 0.85069 0.23555 0.0
N449 N 0.66708 0.85675 0.26092 0.0
C450 C 0.65683 0.86673 0.24288 0.0
C451 C 0.68674 0.84868 0.25745 0.0
C452 C 0.68643 0.86097 0.21711 0.0
C453 C 0.6098 0.82306 0.34813 0.0
N454 N 0.59961 0.83755 0.33447 0.0
C455 C 0.601 0.80325 0.35207 0.0
C456 C 0.58168 0.7983 0.34185 0.0
C457 C 0.5714 0.81314 0.32791 0.0
C458 C 0.58065 0.8328 0.32439 0.0
C459 C 0.55699 0.88473 0.36133 0.0
C460 C 0.57942 0.89428 0.32074 0.0
C461 C 0.57569 0.87431 0.35593 0.0
N462 N 0.58662 0.87909 0.33579 0.0
C463 C 0.56079 0.90504 0.32558 0.0
C464 C 0.54952 0.90019 0.34602 0.0
C465 C 0.63536 0.89725 0.30254 0.0
C466 C 0.70334 0.85926 0.33911 0.0
C467 C 0.6882 0.88145 0.30056 0.0
C468 C 0.706 0.88874 0.3125 0.0
C469 C 0.71358 0.87754 0.33191 0.0
N470 N 0.67824 0.86351 0.30772 0.0
C471 C 0.6856 0.85244 0.32672 0.0
Co472 Co 0.87849 0.6353 0.83203 0.0
Co473 Co 0.84345 0.64646 0.7881 0.0
O474 O 0.85248 0.64901 0.8212 0.0
C475 C 0.84886 0.63421 0.87428 0.0
O476 O 0.83323 0.64187 0.86183 0.0
C477 C 0.83851 0.69288 0.79382 0.0
O478 O 0.85784 0.69422 0.80186 0.0
O479 O 0.87054 0.65899 0.77766 0.0
O480 O 0.89215 0.63996 0.80052 0.0
H481 H 0.85367 0.62868 0.70223 0.0
H482 H 0.86044 0.67229 0.85758 0.0
O483 O 0.86648 0.6302 0.86453 0.0
H484 H 0.93341 0.69203 0.83859 0.0
H485 H 0.93601 0.61817 0.8903 0.0
H486 H 0.9077 0.60441 0.81052 0.0
H487 H 0.91959 0.65739 0.82706 0.0
H488 H 0.90397 0.63617 0.87652 0.0
O489 O 0.83048 0.67505 0.78909 0.0
H490 H 0.864 0.63142 0.74418 0.0
H491 H 0.8043 0.657 0.76139 0.0
H492 H 0.93988 0.58622 0.82354 0.0
H493 H 0.87372 0.70691 0.86972 0.0
H494 H 0.95425 0.59305 0.8637 0.0
H495 H 0.91047 0.71706 0.86021 0.0
O496 O 0.86755 0.60756 0.82106 0.0
H497 H 0.7782 0.64321 0.83801 0.0
H498 H 0.81857 0.60833 0.77478 0.0
H499 H 0.78541 0.5925 0.78861 0.0
H500 H 0.76494 0.60999 0.82042 0.0
H501 H 0.8116 0.65839 0.82379 0.0
H502 H 0.7934 0.65475 0.71959 0.0
H503 H 0.81814 0.64041 0.68968 0.0
O504 O 0.85574 0.6176 0.78553 0.0
C505 C 0.88874 0.65244 0.78332 0.0
C506 C 0.84274 0.63493 0.71509 0.0
C507 C 0.80892 0.64958 0.72483 0.0
N508 N 0.83476 0.64432 0.75525 0.0
C509 C 0.84849 0.63649 0.73889 0.0
C510 C 0.81521 0.65089 0.74847 0.0
C511 C 0.82281 0.64153 0.70806 0.0
C512 C 0.87654 0.67629 0.85377 0.0
N513 N 0.88931 0.66248 0.84214 0.0
C514 C 0.88395 0.69606 0.86053 0.0
C515 C 0.90454 0.70177 0.85514 0.0
C516 C 0.91742 0.68773 0.84303 0.0
C517 C 0.90949 0.66809 0.83658 0.0
C518 C 0.92991 0.61507 0.87276 0.0
C519 C 0.91388 0.60755 0.82799 0.0
C520 C 0.91172 0.62516 0.86487 0.0
N521 N 0.90398 0.62142 0.84268 0.0
C522 C 0.9321 0.59716 0.83528 0.0
C523 C 0.94014 0.60099 0.85782 0.0
C524 C 0.8617 0.60338 0.79995 0.0
C525 C 0.78699 0.63543 0.82415 0.0
C526 C 0.80989 0.61594 0.7888 0.0
C527 C 0.79105 0.60695 0.79647 0.0
C528 C 0.77956 0.61678 0.81429 0.0
N529 N 0.8171 0.63421 0.7986 0.0
C530 C 0.80589 0.64397 0.81602 0.0
Co531 Co 0.36571 0.87812 0.83623 0.0
Co532 Co 0.35614 0.8431 0.79197 0.0
O533 O 0.35302 0.85175 0.82513 0.0
C534 C 0.36755 0.84835 0.87835 0.0
O535 O 0.36084 0.83242 0.86571 0.0
C536 C 0.31 0.83583 0.79819 0.0
O537 O 0.30776 0.85507 0.80616 0.0
O538 O 0.34258 0.86965 0.78159 0.0
O539 O 0.36078 0.89177 0.80473 0.0
H540 H 0.37397 0.85438 0.70623 0.0
H541 H 0.32917 0.8586 0.86129 0.0
O542 O 0.3709 0.86616 0.86871 0.0
H543 H 0.30708 0.93091 0.84277 0.0
H544 H 0.38039 0.93593 0.8949 0.0
H545 H 0.39577 0.90848 0.81516 0.0
H546 H 0.34225 0.91842 0.83136 0.0
H547 H 0.3636 0.90334 0.88081 0.0
O548 O 0.32814 0.82883 0.7929 0.0
H549 H 0.37054 0.86444 0.74819 0.0
H550 H 0.34718 0.80374 0.76504 0.0
H551 H 0.41274 0.94125 0.82848 0.0
H552 H 0.29402 0.87053 0.87329 0.0
H553 H 0.40509 0.95518 0.86862 0.0
H554 H 0.28269 0.90694 0.86402 0.0
O555 O 0.39392 0.86813 0.82552 0.0
H556 H 0.36216 0.77774 0.84137 0.0
H557 H 0.39549 0.82026 0.77876 0.0
H558 H 0.41279 0.78781 0.79242 0.0
H559 H 0.39609 0.76627 0.82391 0.0
H560 H 0.34549 0.81044 0.82734 0.0
H561 H 0.35015 0.79307 0.72322 0.0
H562 H 0.36372 0.81846 0.6935 0.0
O563 O 0.38446 0.85677 0.78959 0.0
C564 C 0.34858 0.88802 0.78734 0.0
C565 C 0.36807 0.84316 0.71902 0.0
C566 C 0.35468 0.80876 0.72855 0.0
N567 N 0.35877 0.83467 0.75909 0.0
C568 C 0.36614 0.84876 0.74282 0.0
C569 C 0.35297 0.81492 0.7522 0.0
C570 C 0.36231 0.82301 0.71189 0.0
C571 C 0.32464 0.87456 0.85757 0.0
N572 N 0.33809 0.88789 0.84614 0.0
C573 C 0.30458 0.8812 0.86425 0.0
C574 C 0.29821 0.90161 0.859 0.0
C575 C 0.31189 0.91506 0.8471 0.0
C576 C 0.33183 0.90788 0.84071 0.0
C577 C 0.38385 0.93002 0.87737 0.0
C578 C 0.39229 0.91447 0.83262 0.0
C579 C 0.37445 0.91152 0.86932 0.0
N580 N 0.37865 0.90401 0.84714 0.0
C581 C 0.40198 0.93302 0.84008 0.0
C582 C 0.39769 0.94082 0.86261 0.0
C583 C 0.39838 0.86292 0.80429 0.0
C584 C 0.3696 0.78699 0.82764 0.0
C585 C 0.3882 0.81109 0.79263 0.0
C586 C 0.39803 0.79267 0.80021 0.0
C587 C 0.38864 0.78058 0.81786 0.0
N588 N 0.36954 0.81731 0.80236 0.0
C589 C 0.36022 0.8055 0.81961 0.0
Co590 Co 0.1207 0.35965 0.83394 0.0
Co591 Co 0.1587 0.34907 0.79285 0.0
O592 O 0.14736 0.34614 0.82495 0.0
C593 C 0.14852 0.36184 0.87751 0.0
O594 O 0.16533 0.35728 0.86513 0.0
C595 C 0.16272 0.30223 0.79744 0.0
O596 O 0.14254 0.30048 0.80194 0.0
O597 O 0.13219 0.33729 0.77968 0.0
O598 O 0.10894 0.35538 0.80143 0.0
H599 H 0.15508 0.36925 0.70696 0.0
H600 H 0.1375 0.32302 0.86082 0.0
O601 O 0.13078 0.36415 0.86736 0.0
H602 H 0.0663 0.30213 0.83564 0.0
H603 H 0.05978 0.37557 0.88804 0.0
H604 H 0.09259 0.39065 0.8108 0.0
H605 H 0.08027 0.33708 0.82546 0.0
H606 H 0.09266 0.35794 0.87638 0.0
O607 O 0.17105 0.32023 0.79452 0.0
H608 H 0.14177 0.36584 0.74778 0.0
H609 H 0.19915 0.33758 0.76928 0.0
H610 H 0.05962 0.4085 0.82169 0.0
H611 H 0.12405 0.28804 0.87161 0.0
H612 H 0.04298 0.40101 0.86057 0.0
H613 H 0.08821 0.27734 0.85898 0.0
O614 O 0.13201 0.38761 0.82418 0.0
H615 H 0.22055 0.34952 0.84818 0.0
H616 H 0.18558 0.38658 0.7825 0.0
H617 H 0.21816 0.40119 0.79941 0.0
H618 H 0.23593 0.38258 0.83247 0.0
H619 H 0.18771 0.33567 0.83096 0.0
H620 H 0.21299 0.34049 0.72865 0.0
H621 H 0.19093 0.35651 0.69717 0.0
O622 O 0.14722 0.3783 0.79 0.0
C623 C 0.11361 0.34357 0.78404 0.0
C624 C 0.16486 0.36228 0.72053 0.0
C625 C 0.19735 0.34611 0.7327 0.0
N626 N 0.16969 0.35161 0.76093 0.0
C627 C 0.15742 0.36034 0.74369 0.0
C628 C 0.1894 0.34444 0.75566 0.0
C629 C 0.18497 0.35511 0.71505 0.0
C630 C 0.12179 0.31868 0.85554 0.0
N631 N 0.10959 0.33231 0.84287 0.0
C632 C 0.11429 0.29876 0.86159 0.0
C633 C 0.0942 0.29275 0.85446 0.0
C634 C 0.0819 0.30665 0.84139 0.0
C635 C 0.08991 0.32644 0.83569 0.0
C636 C 0.06687 0.37897 0.87105 0.0
C637 C 0.08543 0.38723 0.82771 0.0
C638 C 0.08554 0.36909 0.86437 0.0
N639 N 0.09455 0.37322 0.84289 0.0
C640 C 0.06676 0.39742 0.8338 0.0
C641 C 0.05745 0.39323 0.85562 0.0
C642 C 0.13972 0.39218 0.80394 0.0
C643 C 0.21292 0.35781 0.83382 0.0
C644 C 0.19298 0.37859 0.79712 0.0
C645 C 0.21155 0.38685 0.80651 0.0
C646 C 0.22153 0.37637 0.82502 0.0
N647 N 0.18455 0.36046 0.80594 0.0
C648 C 0.19434 0.35003 0.82397 0.0
Co649 Co 0.63296 0.12449 0.84845 0.0
Co650 Co 0.65359 0.1532 0.80322 0.0
O651 O 0.65312 0.14562 0.83689 0.0
C652 C 0.63916 0.15493 0.88939 0.0
O653 O 0.64951 0.16833 0.87612 0.0
C654 C 0.6987 0.15123 0.79119 0.0
O655 O 0.69342 0.13685 0.77563 0.0
O656 O 0.65906 0.12319 0.79542 0.0
O657 O 0.63372 0.1091 0.81762 0.0
H658 H 0.6354 0.14282 0.71747 0.0
H659 H 0.6731 0.13302 0.87413 0.0
O660 O 0.63125 0.13834 0.88041 0.0
H661 H 0.67316 0.05691 0.85837 0.0
H662 H 0.60114 0.0752 0.90846 0.0
H663 H 0.59529 0.10393 0.82766 0.0
H664 H 0.64345 0.07889 0.84549 0.0
H665 H 0.62706 0.10087 0.89374 0.0
O666 O 0.68479 0.15859 0.80525 0.0
H667 H 0.63501 0.1344 0.76009 0.0
H668 H 0.67357 0.18738 0.77451 0.0
H669 H 0.56916 0.07816 0.84161 0.0
H670 H 0.70292 0.11157 0.88765 0.0
H671 H 0.57197 0.06361 0.88229 0.0
H672 H 0.70314 0.0732 0.87976 0.0
O673 O 0.6093 0.14197 0.83637 0.0
H674 H 0.66604 0.21982 0.84874 0.0
H675 H 0.62305 0.18593 0.78693 0.0
H676 H 0.61589 0.22268 0.79795 0.0
H677 H 0.63752 0.2399 0.82901 0.0
H678 H 0.6725 0.18298 0.83737 0.0
H679 H 0.67443 0.19633 0.73204 0.0
H680 H 0.65522 0.17398 0.7032 0.0
O681 O 0.62241 0.1484 0.8003 0.0
C682 C 0.64759 0.10773 0.80148 0.0
C683 C 0.64381 0.15269 0.72987 0.0
C684 C 0.66571 0.18272 0.73804 0.0
N685 N 0.6542 0.16039 0.76978 0.0
C686 C 0.64365 0.148 0.75402 0.0
C687 C 0.66517 0.17757 0.76207 0.0
C688 C 0.65494 0.17017 0.72187 0.0
C689 C 0.67281 0.11633 0.87096 0.0
N690 N 0.65624 0.10724 0.85946 0.0
C691 C 0.68987 0.10425 0.87852 0.0
C692 C 0.69 0.08273 0.87405 0.0
C693 C 0.67319 0.07358 0.86207 0.0
C694 C 0.65639 0.08614 0.85482 0.0
C695 C 0.59973 0.08145 0.89071 0.0
C696 C 0.59668 0.09767 0.84537 0.0
C697 C 0.61431 0.09607 0.8823 0.0
N698 N 0.61271 0.10395 0.85984 0.0
C699 C 0.58181 0.08308 0.85318 0.0
C700 C 0.58338 0.07493 0.87601 0.0
C701 C 0.60693 0.14709 0.81465 0.0
C702 C 0.65652 0.21249 0.83517 0.0
C703 C 0.63241 0.19322 0.80063 0.0
C704 C 0.62834 0.21408 0.80671 0.0
C705 C 0.6405 0.22375 0.82411 0.0
N706 N 0.64816 0.18228 0.81155 0.0
C707 C 0.66013 0.19166 0.82862 0.0
Co708 Co 0.87769 0.35969 0.67123 0.0
Co709 Co 0.85811 0.34937 0.72577 0.0
O710 O 0.8567 0.3459 0.69135 0.0
C711 C 0.85266 0.37704 0.63161 0.0
O712 O 0.85938 0.39575 0.63785 0.0
C713 C 0.85069 0.30293 0.72176 0.0
O714 O 0.86576 0.30137 0.70598 0.0
O715 O 0.8872 0.33764 0.72566 0.0
O716 O 0.89974 0.35769 0.69639 0.0
H717 H 0.89278 0.37028 0.80216 0.0
H718 H 0.85484 0.32229 0.6535 0.0
O719 O 0.85637 0.36131 0.64497 0.0
H720 H 0.92986 0.30307 0.65025 0.0
H721 H 0.91734 0.37293 0.59525 0.0
H722 H 0.90848 0.39405 0.6786 0.0
H723 H 0.91904 0.3381 0.66417 0.0
H724 H 0.8914 0.35509 0.62066 0.0
O725 O 0.84599 0.3207 0.73058 0.0
H726 H 0.89013 0.36626 0.75886 0.0
H727 H 0.82957 0.33886 0.76607 0.0
H728 H 0.93467 0.41224 0.65382 0.0
H729 H 0.865 0.28717 0.63913 0.0
H730 H 0.93923 0.40173 0.6118 0.0
H731 H 0.90275 0.27735 0.63749 0.0
O732 O 0.86877 0.38758 0.68424 0.0
H733 H 0.78208 0.35114 0.7018 0.0
H734 H 0.83763 0.38707 0.74733 0.0
H735 H 0.80197 0.40214 0.7462 0.0
H736 H 0.77387 0.38411 0.72338 0.0
H737 H 0.81805 0.33671 0.70321 0.0
H738 H 0.83165 0.34239 0.80946 0.0
H739 H 0.86339 0.35829 0.82779 0.0
O740 O 0.86968 0.37849 0.72249 0.0
C741 C 0.9025 0.34546 0.71401 0.0
C742 C 0.87885 0.36335 0.79439 0.0
C743 C 0.84456 0.34767 0.79849 0.0
N744 N 0.8597 0.35239 0.75991 0.0
C745 C 0.87725 0.36106 0.76987 0.0
C746 C 0.84351 0.34564 0.7739 0.0
C747 C 0.86237 0.35661 0.80876 0.0
C748 C 0.87131 0.31822 0.65261 0.0
N749 N 0.88631 0.33232 0.65953 0.0
C750 C 0.87696 0.29827 0.64455 0.0
C751 C 0.89814 0.29276 0.64368 0.0
C752 C 0.91336 0.30718 0.65084 0.0
C753 C 0.90712 0.32698 0.65879 0.0
C754 C 0.91549 0.37767 0.61352 0.0
C755 C 0.91032 0.38938 0.66034 0.0
C756 C 0.9008 0.36765 0.62801 0.0
N757 N 0.89831 0.37358 0.65111 0.0
C758 C 0.9252 0.39974 0.64639 0.0
C759 C 0.92776 0.39383 0.62282 0.0
C760 C 0.86938 0.39238 0.7062 0.0
C761 C 0.79418 0.35912 0.71185 0.0
C762 C 0.82553 0.37917 0.73726 0.0
C763 C 0.80534 0.38776 0.73674 0.0
C764 C 0.78959 0.37763 0.72394 0.0
N765 N 0.8299 0.36097 0.7254 0.0
C766 C 0.81455 0.35099 0.71275 0.0
Co767 Co 0.63325 0.88952 0.67064 0.0
Co768 Co 0.65188 0.85382 0.71031 0.0
O769 O 0.65197 0.86588 0.67839 0.0
C770 C 0.63125 0.86168 0.62756 0.0
O771 O 0.63154 0.84475 0.64084 0.0
C772 C 0.69715 0.8527 0.72203 0.0
O773 O 0.69278 0.86596 0.73913 0.0
O774 O 0.65874 0.88204 0.72325 0.0
O775 O 0.63476 0.90081 0.70363 0.0
H776 H 0.63387 0.85318 0.7969 0.0
H777 H 0.67153 0.88184 0.642 0.0
O778 O 0.6313 0.87982 0.63699 0.0
H779 H 0.67908 0.95413 0.67217 0.0
H780 H 0.60547 0.94792 0.61917 0.0
H781 H 0.59677 0.90956 0.69439 0.0
H782 H 0.64765 0.93313 0.68179 0.0
H783 H 0.62947 0.919 0.62969 0.0
O784 O 0.68279 0.84722 0.70742 0.0
H785 H 0.63398 0.86731 0.75624 0.0
H786 H 0.6702 0.81535 0.73272 0.0
H787 H 0.57253 0.93846 0.68464 0.0
H788 H 0.70311 0.90241 0.63168 0.0
H789 H 0.57679 0.95788 0.64679 0.0
H790 H 0.70705 0.93881 0.64686 0.0
O791 O 0.6084 0.87228 0.67983 0.0
H792 H 0.66105 0.79386 0.65353 0.0
H793 H 0.61974 0.82076 0.72083 0.0
H794 H 0.61079 0.78635 0.70354 0.0
H795 H 0.63157 0.77264 0.6697 0.0
H796 H 0.66928 0.82835 0.67115 0.0
H797 H 0.67058 0.80072 0.77314 0.0
H798 H 0.65228 0.81966 0.80557 0.0
O799 O 0.62101 0.85973 0.71407 0.0
C800 C 0.64824 0.89877 0.7201 0.0
C801 C 0.64188 0.84477 0.78292 0.0
C802 C 0.66248 0.81533 0.76959 0.0
N803 N 0.65202 0.84215 0.7421 0.0
C804 C 0.64198 0.85269 0.75986 0.0
C805 C 0.66222 0.8237 0.74674 0.0
C806 C 0.65222 0.82596 0.78777 0.0
C807 C 0.67305 0.89773 0.64851 0.0
N808 N 0.65769 0.90629 0.66236 0.0
C809 C 0.691 0.90928 0.64267 0.0
C810 C 0.69321 0.92969 0.65121 0.0
C811 C 0.67752 0.9383 0.66541 0.0
C812 C 0.65978 0.9263 0.67084 0.0
C813 C 0.60344 0.93957 0.63571 0.0
C814 C 0.59877 0.91792 0.67789 0.0
C815 C 0.61693 0.92311 0.64172 0.0
N816 N 0.61454 0.91254 0.66263 0.0
C817 C 0.58498 0.93428 0.67246 0.0
C818 C 0.58736 0.94516 0.65122 0.0
C819 C 0.60567 0.8643 0.70037 0.0
C820 C 0.65192 0.79964 0.66831 0.0
C821 C 0.62876 0.815 0.70599 0.0
C822 C 0.62367 0.79545 0.69634 0.0
C823 C 0.63535 0.78776 0.67737 0.0
N824 N 0.64506 0.82654 0.69704 0.0
C825 C 0.65656 0.81911 0.67842 0.0
Co826 Co 0.11694 0.63024 0.66973 0.0
Co827 Co 0.14576 0.64755 0.71662 0.0
O828 O 0.13926 0.6482 0.68272 0.0
C829 C 0.14942 0.63455 0.6305 0.0
O830 O 0.16304 0.64357 0.64467 0.0
C831 C 0.1474 0.69275 0.72893 0.0
O832 O 0.1319 0.68918 0.74375 0.0
O833 O 0.11599 0.65529 0.72353 0.0
O834 O 0.10051 0.63196 0.69977 0.0
H835 H 0.13153 0.62906 0.80159 0.0
H836 H 0.13006 0.6699 0.64553 0.0
O837 O 0.13192 0.62778 0.63847 0.0
H838 H 0.0536 0.67638 0.6573 0.0
H839 H 0.06767 0.6038 0.60648 0.0
H840 H 0.09197 0.59456 0.68872 0.0
H841 H 0.07236 0.6447 0.67059 0.0
H842 H 0.09498 0.627 0.62306 0.0
O843 O 0.15371 0.67812 0.71521 0.0
H844 H 0.12438 0.62984 0.75867 0.0
H845 H 0.18045 0.66459 0.74694 0.0
H846 H 0.06449 0.57115 0.67291 0.0
H847 H 0.11187 0.70166 0.63161 0.0
H848 H 0.05216 0.57567 0.63149 0.0
H849 H 0.07334 0.70512 0.63749 0.0
O850 O 0.1317 0.60495 0.68213 0.0
H851 H 0.21444 0.65537 0.67359 0.0
H852 H 0.17584 0.61476 0.73385 0.0
H853 H 0.21226 0.60495 0.72403 0.0
H854 H 0.23187 0.62538 0.69374 0.0
H855 H 0.17786 0.66442 0.68372 0.0
H856 H 0.18815 0.66428 0.78971 0.0
H857 H 0.16361 0.64639 0.81736 0.0
O858 O 0.13852 0.6168 0.71873 0.0
C859 C 0.09979 0.64539 0.71642 0.0
C860 C 0.14235 0.6369 0.78972 0.0
C861 C 0.17413 0.65666 0.78306 0.0
N862 N 0.15197 0.64722 0.75031 0.0
C863 C 0.13838 0.63738 0.7654 0.0
C864 C 0.16967 0.6568 0.75885 0.0
C865 C 0.16035 0.64663 0.79856 0.0
C866 C 0.11328 0.67102 0.6478 0.0
N867 N 0.10229 0.65514 0.65841 0.0
C868 C 0.10306 0.68916 0.64003 0.0
C869 C 0.08145 0.69112 0.64337 0.0
C870 C 0.07037 0.67501 0.65447 0.0
C871 C 0.0811 0.65707 0.66196 0.0
C872 C 0.07293 0.60165 0.62455 0.0
C873 C 0.08668 0.59668 0.6707 0.0
C874 C 0.08847 0.61468 0.63401 0.0
N875 N 0.09513 0.61214 0.65685 0.0
C876 C 0.07112 0.58335 0.66183 0.0
C877 C 0.06422 0.58589 0.63859 0.0
C878 C 0.1362 0.60178 0.7039 0.0
C879 C 0.20606 0.64632 0.68679 0.0
C880 C 0.18412 0.62353 0.72042 0.0
C881 C 0.20482 0.618 0.71505 0.0
C882 C 0.21582 0.62949 0.69809 0.0
N883 N 0.17462 0.64004 0.70923 0.0
C884 C 0.18535 0.65139 0.69263 0.0
Co885 Co 0.37529 0.11906 0.67004 0.0
Co886 Co 0.35449 0.14408 0.71759 0.0
O887 O 0.35556 0.13961 0.6833 0.0
C888 C 0.36951 0.15232 0.63202 0.0
O889 O 0.35766 0.1639 0.64581 0.0
C890 C 0.30866 0.14399 0.72697 0.0
O891 O 0.31176 0.12757 0.74061 0.0
O892 O 0.34727 0.11384 0.72154 0.0
O893 O 0.3729 0.10087 0.69892 0.0
H894 H 0.36881 0.12481 0.80233 0.0
H895 H 0.33512 0.13079 0.64553 0.0
O896 O 0.37837 0.13579 0.63995 0.0
H897 H 0.33468 0.05352 0.6497 0.0
H898 H 0.40825 0.07529 0.60564 0.0
H899 H 0.41149 0.09547 0.68982 0.0
H900 H 0.36429 0.07365 0.66615 0.0
H901 H 0.38245 0.10008 0.62227 0.0
O902 O 0.32385 0.15146 0.71481 0.0
H903 H 0.37043 0.12041 0.75899 0.0
H904 H 0.33524 0.17643 0.74935 0.0
H905 H 0.43745 0.07046 0.67395 0.0
H906 H 0.30546 0.11128 0.6285 0.0
H907 H 0.43594 0.06021 0.63157 0.0
H908 H 0.30501 0.07232 0.63051 0.0
O909 O 0.39901 0.13478 0.68486 0.0
H910 H 0.34754 0.21505 0.67944 0.0
H911 H 0.38584 0.17351 0.73917 0.0
H912 H 0.39539 0.21061 0.73282 0.0
H913 H 0.37613 0.23168 0.70283 0.0
H914 H 0.33866 0.17781 0.68618 0.0
H915 H 0.33315 0.18138 0.79256 0.0
H916 H 0.35005 0.15547 0.81938 0.0
O917 O 0.38526 0.13744 0.72119 0.0
C918 C 0.35822 0.09848 0.71405 0.0
C919 C 0.3614 0.13621 0.79083 0.0
C920 C 0.34139 0.16796 0.78535 0.0
N921 N 0.35298 0.14814 0.75164 0.0
C922 C 0.36227 0.1338 0.76627 0.0
C923 C 0.34261 0.16506 0.76089 0.0
C924 C 0.35087 0.15342 0.80038 0.0
C925 C 0.33543 0.11389 0.64608 0.0
N926 N 0.3519 0.10348 0.65625 0.0
C927 C 0.3184 0.10289 0.63657 0.0
C928 C 0.31813 0.08104 0.63775 0.0
C929 C 0.33477 0.07049 0.64849 0.0
C930 C 0.35154 0.08202 0.65775 0.0
C931 C 0.40907 0.07963 0.62414 0.0
C932 C 0.41065 0.09103 0.67139 0.0
C933 C 0.39455 0.09373 0.63365 0.0
N934 N 0.39538 0.09918 0.65706 0.0
C935 C 0.42543 0.07689 0.66249 0.0
C936 C 0.42459 0.07116 0.6387 0.0
C937 C 0.40098 0.13781 0.7071 0.0
C938 C 0.35605 0.20604 0.69256 0.0
C939 C 0.37751 0.18249 0.72592 0.0
C940 C 0.38292 0.20353 0.72249 0.0
C941 C 0.3721 0.21535 0.70567 0.0
N942 N 0.36174 0.17345 0.71298 0.0
C943 C 0.35107 0.18495 0.69647 0.0
C944 C 0.32449 0.22559 0.28354 0.0
C945 C 0.34333 0.22192 0.27123 0.0
C946 C 0.31156 0.24248 0.27749 0.0
C947 C 0.29889 0.27672 0.22675 0.0
H948 H 0.26382 0.30454 0.27324 0.0
C949 C 0.23314 0.33769 0.20312 0.0
C950 C 0.21373 0.33317 0.21393 0.0
C951 C 0.25141 0.32689 0.20999 0.0
C952 C 0.27356 0.29694 0.26005 0.0
H953 H 0.36384 0.23387 0.24364 0.0
H954 H 0.34139 0.2636 0.23335 0.0
H955 H 0.29196 0.28133 0.28639 0.0
H956 H 0.19844 0.31369 0.24044 0.0
H957 H 0.22998 0.29528 0.25236 0.0
H958 H 0.28011 0.2922 0.20042 0.0
C959 C 0.33645 0.25314 0.24742 0.0
C960 C 0.28963 0.28358 0.26757 0.0
C961 C 0.34941 0.23619 0.25347 0.0
C962 C 0.21303 0.31767 0.23168 0.0
C963 C 0.2312 0.30717 0.2387 0.0
C964 C 0.28286 0.29025 0.21922 0.0
C965 C 0.31713 0.25624 0.25902 0.0
C966 C 0.30211 0.27278 0.25104 0.0
C967 C 0.25061 0.31167 0.22806 0.0
C968 C 0.26962 0.29999 0.2358 0.0
H969 H 0.31925 0.21491 0.29727 0.0
H970 H 0.2967 0.24415 0.28664 0.0
H971 H 0.30805 0.26855 0.21349 0.0
H972 H 0.23421 0.34951 0.18937 0.0
H973 H 0.26619 0.33063 0.20146 0.0
C974 C 0.77372 0.32881 0.31727 0.0
C975 C 0.78411 0.34277 0.30202 0.0
C976 C 0.7568 0.31675 0.30906 0.0
C977 C 0.73426 0.29725 0.25209 0.0
H978 H 0.69242 0.27322 0.29401 0.0
C979 C 0.66956 0.2374 0.22243 0.0
C980 C 0.67184 0.21824 0.23451 0.0
C981 C 0.68036 0.25535 0.23025 0.0
C982 C 0.70391 0.28 0.28208 0.0
H983 H 0.78409 0.35625 0.26683 0.0
H984 H 0.75384 0.33634 0.25291 0.0
H985 H 0.71587 0.30065 0.3087 0.0
H986 H 0.68641 0.20301 0.26472 0.0
H987 H 0.7046 0.23437 0.27864 0.0
H988 H 0.72197 0.27656 0.22547 0.0
C989 C 0.75922 0.33382 0.27087 0.0
C990 C 0.71753 0.29557 0.29052 0.0
C991 C 0.77642 0.34548 0.27892 0.0
C992 C 0.68451 0.21751 0.2549 0.0
C993 C 0.69479 0.23547 0.26301 0.0
C994 C 0.72033 0.28201 0.24355 0.0
C995 C 0.74959 0.31871 0.28553 0.0
C996 C 0.73331 0.30403 0.27584 0.0
C997 C 0.69302 0.25449 0.25065 0.0
C998 C 0.7054 0.27289 0.25862 0.0
H999 H 0.77949 0.32622 0.33509 0.0
H1000 H 0.75013 0.30515 0.32089 0.0
H1001 H 0.74635 0.30294 0.24024 0.0
H1002 H 0.6599 0.23836 0.20667 0.0
H1003 H 0.67884 0.26989 0.22041 0.0
C1004 C 0.79427 0.69757 0.22227 0.0
C1005 C 0.79208 0.6766 0.2148 0.0
C1006 C 0.77719 0.70856 0.23144 0.0
C1007 C 0.72064 0.71374 0.23329 0.0
H1008 H 0.7315 0.74013 0.29397 0.0
C1009 C 0.65979 0.76882 0.27852 0.0
C1010 C 0.66838 0.78764 0.28729 0.0
C1011 C 0.67296 0.75218 0.27177 0.0
C1012 C 0.72819 0.73296 0.27699 0.0
H1013 H 0.76974 0.6512 0.20985 0.0
H1014 H 0.73952 0.67086 0.22548 0.0
H1015 H 0.75797 0.71736 0.27639 0.0
H1016 H 0.6975 0.80335 0.29679 0.0
H1017 H 0.7202 0.77477 0.28493 0.0
H1018 H 0.69125 0.73021 0.23332 0.0
C1019 C 0.75472 0.6785 0.22445 0.0
C1020 C 0.74333 0.71986 0.26698 0.0
C1021 C 0.77199 0.6673 0.2155 0.0
C1022 C 0.69029 0.78911 0.29009 0.0
C1023 C 0.70336 0.77258 0.28342 0.0
C1024 C 0.7055 0.7271 0.24321 0.0
C1025 C 0.75736 0.69903 0.23312 0.0
C1026 C 0.73997 0.71057 0.24476 0.0
C1027 C 0.69495 0.75401 0.27382 0.0
C1028 C 0.70937 0.73735 0.26488 0.0
H1029 H 0.80938 0.7054 0.22176 0.0
H1030 H 0.77957 0.72451 0.23758 0.0
H1031 H 0.7177 0.70675 0.21612 0.0
H1032 H 0.64298 0.76719 0.27609 0.0
H1033 H 0.66595 0.73802 0.26467 0.0
C1034 C 0.34717 0.77579 0.24856 0.0
C1035 C 0.34126 0.7903 0.23099 0.0
C1036 C 0.33436 0.75854 0.25384 0.0
C1037 C 0.29672 0.73432 0.27293 0.0
H1038 H 0.26711 0.7023 0.22501 0.0
C1039 C 0.22323 0.68337 0.29269 0.0
C1040 C 0.22086 0.6644 0.28022 0.0
C1041 C 0.23995 0.69696 0.2876 0.0
C1042 C 0.27542 0.71093 0.23863 0.0
H1043 H 0.31769 0.79742 0.2044 0.0
H1044 H 0.29543 0.76729 0.21355 0.0
H1045 H 0.29283 0.72873 0.21307 0.0
H1046 H 0.23489 0.6444 0.25344 0.0
H1047 H 0.26405 0.66801 0.24475 0.0
H1048 H 0.27919 0.71663 0.29849 0.0
C1049 C 0.31 0.76923 0.22323 0.0
C1050 C 0.29001 0.72623 0.23177 0.0
C1051 C 0.32277 0.78654 0.218 0.0
C1052 C 0.23615 0.65891 0.26334 0.0
C1053 C 0.2528 0.67253 0.2582 0.0
C1054 C 0.28204 0.71911 0.2798 0.0
C1055 C 0.31539 0.75531 0.24161 0.0
C1056 C 0.30073 0.73821 0.24882 0.0
C1057 C 0.25464 0.69193 0.26988 0.0
C1058 C 0.27111 0.70732 0.26273 0.0
H1059 H 0.36133 0.77813 0.25889 0.0
H1060 H 0.33914 0.74792 0.26782 0.0
H1061 H 0.30452 0.74343 0.28653 0.0
H1062 H 0.21173 0.68815 0.30575 0.0
H1063 H 0.24082 0.71184 0.29683 0.0
C1064 C 0.71814 0.82038 0.71331 0.0
C1065 C 0.71688 0.84045 0.72352 0.0
C1066 C 0.73488 0.80702 0.71881 0.0
C1067 C 0.77396 0.79841 0.76654 0.0
H1068 H 0.79252 0.754 0.72459 0.0
C1069 C 0.83427 0.7323 0.79182 0.0
C1070 C 0.82656 0.712 0.78713 0.0
C1071 C 0.82344 0.75006 0.78355 0.0
C1072 C 0.78755 0.7664 0.73645 0.0
H1073 H 0.73302 0.86287 0.74596 0.0
H1074 H 0.76264 0.83991 0.75481 0.0
H1075 H 0.77011 0.78192 0.70924 0.0
H1076 H 0.80108 0.69461 0.77055 0.0
H1077 H 0.78268 0.72531 0.75596 0.0
H1078 H 0.79151 0.78265 0.79373 0.0
C1079 C 0.75035 0.83415 0.74323 0.0
C1080 C 0.7746 0.78234 0.72772 0.0
C1081 C 0.73346 0.84742 0.73797 0.0
C1082 C 0.80763 0.70991 0.77444 0.0
C1083 C 0.79709 0.72752 0.7659 0.0
C1084 C 0.78719 0.78259 0.77518 0.0
C1085 C 0.75093 0.8135 0.73439 0.0
C1086 C 0.7671 0.79824 0.7428 0.0
C1087 C 0.80497 0.74775 0.77011 0.0
C1088 C 0.79359 0.76613 0.76037 0.0
H1089 H 0.70555 0.81445 0.70226 0.0
H1090 H 0.73456 0.79119 0.71183 0.0
H1091 H 0.76834 0.81018 0.77883 0.0
H1092 H 0.84878 0.73446 0.80156 0.0
H1093 H 0.82975 0.76555 0.78711 0.0
C1094 C 0.1814 0.71183 0.72299 0.0
C1095 C 0.16095 0.71146 0.73245 0.0
C1096 C 0.19579 0.72716 0.73009 0.0
C1097 C 0.20363 0.77873 0.75656 0.0
H1098 H 0.25443 0.75388 0.78214 0.0
C1099 C 0.27086 0.82887 0.79854 0.0
C1100 C 0.29145 0.82235 0.79323 0.0
C1101 C 0.25359 0.81619 0.79251 0.0
C1102 C 0.2405 0.76117 0.7748 0.0
H1103 H 0.13914 0.72793 0.75538 0.0
H1104 H 0.16432 0.7551 0.76733 0.0
H1105 H 0.22681 0.73133 0.76667 0.0
H1106 H 0.30991 0.79733 0.77741 0.0
H1107 H 0.28024 0.77589 0.76643 0.0
H1108 H 0.21768 0.80867 0.76391 0.0
C1109 C 0.16915 0.74329 0.75466 0.0
C1110 C 0.22465 0.7482 0.76601 0.0
C1111 C 0.15479 0.72773 0.74782 0.0
C1112 C 0.29435 0.80289 0.78196 0.0
C1113 C 0.27722 0.79042 0.77578 0.0
C1114 C 0.21972 0.79182 0.76504 0.0
C1115 C 0.18998 0.74266 0.74649 0.0
C1116 C 0.20621 0.75682 0.7565 0.0
C1117 C 0.25658 0.79679 0.78098 0.0
C1118 C 0.23853 0.78318 0.77391 0.0
H1119 H 0.18674 0.69959 0.71111 0.0
H1120 H 0.21172 0.72649 0.72334 0.0
H1121 H 0.18949 0.78573 0.74937 0.0
H1122 H 0.26808 0.84378 0.80721 0.0
H1123 H 0.23794 0.82153 0.79698 0.0
C1124 C 0.1676 0.26296 0.79364 0.0
C1125 C 0.176 0.28341 0.79335 0.0
C1126 C 0.18025 0.24564 0.7878 0.0
C1127 C 0.23666 0.23053 0.77986 0.0
H1128 H 0.21435 0.18622 0.73997 0.0
C1129 C 0.28967 0.17825 0.72366 0.0
C1130 C 0.28958 0.15699 0.73049 0.0
C1131 C 0.27374 0.19177 0.73115 0.0
C1132 C 0.22066 0.19845 0.75123 0.0
H1133 H 0.20443 0.30153 0.78713 0.0
H1134 H 0.22593 0.2719 0.7764 0.0
H1135 H 0.19072 0.2135 0.75524 0.0
H1136 H 0.27181 0.13298 0.74904 0.0
H1137 H 0.24353 0.15672 0.76153 0.0
H1138 H 0.26671 0.21607 0.77486 0.0
C1139 C 0.20982 0.26892 0.78161 0.0
C1140 C 0.20717 0.21399 0.76013 0.0
C1141 C 0.19733 0.28606 0.78759 0.0
C1142 C 0.27236 0.14927 0.74351 0.0
C1143 C 0.25618 0.16279 0.75066 0.0
C1144 C 0.2501 0.2153 0.77064 0.0
C1145 C 0.20152 0.24845 0.78153 0.0
C1146 C 0.2151 0.23049 0.77418 0.0
C1147 C 0.25717 0.18428 0.74521 0.0
C1148 C 0.24231 0.19936 0.75595 0.0
H1149 H 0.15123 0.26036 0.798 0.0
H1150 H 0.17336 0.23008 0.78816 0.0
H1151 H 0.24329 0.24255 0.79117 0.0
H1152 H 0.30267 0.18479 0.7137 0.0
H1153 H 0.27474 0.20829 0.72665 0.0
C1154 C 0.7339 0.15522 0.77175 0.0
C1155 C 0.71919 0.16217 0.7886 0.0
C1156 C 0.75155 0.1674 0.76623 0.0
C1157 C 0.78344 0.21322 0.78598 0.0
H1158 H 0.79351 0.22087 0.71879 0.0
C1159 C 0.82475 0.28613 0.74904 0.0
C1160 C 0.83882 0.28419 0.72995 0.0
C1161 C 0.8131 0.26896 0.75693 0.0
C1162 C 0.7912 0.21864 0.73762 0.0
H1163 H 0.71214 0.18693 0.81374 0.0
H1164 H 0.74281 0.20816 0.80407 0.0
H1165 H 0.76805 0.19473 0.73206 0.0
H1166 H 0.85169 0.26245 0.70426 0.0
H1167 H 0.83106 0.23221 0.71808 0.0
H1168 H 0.80614 0.23757 0.7915 0.0
C1169 C 0.74082 0.19321 0.79521 0.0
C1170 C 0.77659 0.20364 0.74526 0.0
C1171 C 0.72317 0.18103 0.80074 0.0
C1172 C 0.84101 0.26448 0.71901 0.0
C1173 C 0.82915 0.2472 0.72686 0.0
C1174 C 0.79801 0.22822 0.77835 0.0
C1175 C 0.75494 0.18682 0.77743 0.0
C1176 C 0.77219 0.20106 0.76953 0.0
C1177 C 0.81507 0.24929 0.74596 0.0
C1178 C 0.8017 0.23146 0.75406 0.0
H1179 H 0.73141 0.14071 0.76214 0.0
H1180 H 0.7623 0.16182 0.75277 0.0
H1181 H 0.78075 0.21138 0.8048 0.0
H1182 H 0.82257 0.30102 0.75795 0.0
H1183 H 0.80214 0.27126 0.77137 0.0
C1184 C 0.13181 0.36807 0.91696 0.0
C1185 C 0.14895 0.36059 0.90373 0.0
C1186 C 0.13056 0.36438 0.9413 0.0
C1187 C 0.16147 0.34783 0.99405 0.0
H1188 H 0.1061 0.33518 0.01906 0.0
C1189 C 0.14834 0.32514 0.09235 0.0
C1190 C 0.13281 0.33718 0.1037 0.0
C1191 C 0.15003 0.32527 0.0676 0.0
C1192 C 0.12166 0.3387 0.01235 0.0
H1193 H 0.17859 0.34393 0.90593 0.0
H1194 H 0.1763 0.33724 0.94842 0.0
H1195 H 0.11041 0.34188 0.97689 0.0
H1196 H 0.10615 0.35775 0.09798 0.0
H1197 H 0.10879 0.3576 0.05499 0.0
H1198 H 0.17264 0.34458 0.02969 0.0
C1199 C 0.16391 0.34619 0.94001 0.0
C1200 C 0.12414 0.3427 0.98818 0.0
C1201 C 0.16524 0.35004 0.91562 0.0
C1202 C 0.11824 0.34825 0.08976 0.0
C1203 C 0.11975 0.34816 0.0651 0.0
C1204 C 0.159 0.34366 0.01825 0.0
C1205 C 0.14632 0.35294 0.95309 0.0
C1206 C 0.14402 0.34769 0.97874 0.0
C1207 C 0.13602 0.33716 0.05375 0.0
C1208 C 0.139 0.33937 0.02773 0.0
H1209 H 0.11906 0.37642 0.90842 0.0
H1210 H 0.11706 0.37035 0.95083 0.0
H1211 H 0.17698 0.35177 0.98751 0.0
H1212 H 0.15994 0.31663 0.1026 0.0
H1213 H 0.16261 0.31649 0.05932 0.0
C1214 C 0.62832 0.14231 0.92956 0.0
C1215 C 0.63988 0.15655 0.91563 0.0
C1216 C 0.63114 0.14144 0.95405 0.0
C1217 C 0.65079 0.17071 0.00581 0.0
H1218 H 0.65384 0.11518 0.03398 0.0
C1219 C 0.63942 0.15582 0.10553 0.0
C1220 C 0.65166 0.14041 0.11691 0.0
C1221 C 0.64069 0.15879 0.0811 0.0
C1222 C 0.6533 0.1308 0.02639 0.0
H1223 H 0.66283 0.18174 0.91685 0.0
H1224 H 0.66759 0.18037 0.95983 0.0
H1225 H 0.65021 0.11877 0.99117 0.0
H1226 H 0.67525 0.11638 0.11146 0.0
H1227 H 0.67737 0.12148 0.06845 0.0
H1228 H 0.6537 0.18271 0.0411 0.0
C1229 C 0.65639 0.16981 0.95165 0.0
C1230 C 0.65094 0.13287 1.00187 0.0
C1231 C 0.65362 0.17063 0.92702 0.0
C1232 C 0.66561 0.12835 0.10325 0.0
C1233 C 0.66673 0.13121 0.07862 0.0
C1234 C 0.65301 0.16863 0.03037 0.0
C1235 C 0.64553 0.15485 0.96537 0.0
C1236 C 0.64932 0.15284 0.99131 0.0
C1237 C 0.65414 0.14637 0.06726 0.0
C1238 C 0.65399 0.14864 0.04099 0.0
H1239 H 0.6174 0.13139 0.92149 0.0
H1240 H 0.62214 0.13009 0.96414 0.0
H1241 H 0.64956 0.1863 0.99827 0.0
H1242 H 0.62855 0.16549 0.11546 0.0
H1243 H 0.63057 0.17041 0.07295 0.0
C1244 C 0.86278 0.62242 0.91354 0.0
C1245 C 0.8478 0.63384 0.9005 0.0
C1246 C 0.86383 0.62423 0.93817 0.0
C1247 C 0.85275 0.6612 0.98604 0.0
H1248 H 0.86099 0.6129 0.02677 0.0
C1249 C 0.85642 0.66785 0.08865 0.0
C1250 C 0.86935 0.65364 0.10093 0.0
C1251 C 0.85361 0.66601 0.06413 0.0
C1252 C 0.85905 0.62663 0.01567 0.0
H1253 H 0.82184 0.65574 0.90326 0.0
H1254 H 0.82381 0.65901 0.94641 0.0
H1255 H 0.85533 0.60776 0.98454 0.0
H1256 H 0.8904 0.62711 0.09687 0.0
H1257 H 0.88621 0.62444 0.0542 0.0
H1258 H 0.85702 0.68015 0.01698 0.0
C1259 C 0.83472 0.64866 0.93745 0.0
C1260 C 0.85565 0.62363 0.99144 0.0
C1261 C 0.83346 0.64662 0.91278 0.0
C1262 C 0.88019 0.63823 0.08799 0.0
C1263 C 0.87758 0.63655 0.06349 0.0
C1264 C 0.85638 0.66423 0.01026 0.0
C1265 C 0.85012 0.6377 0.95037 0.0
C1266 C 0.85256 0.64087 0.97632 0.0
C1267 C 0.86383 0.65005 0.05126 0.0
C1268 C 0.85973 0.64699 0.02542 0.0
H1269 H 0.87409 0.61247 0.90463 0.0
H1270 H 0.87596 0.61568 0.94758 0.0
H1271 H 0.85069 0.67482 0.97478 0.0
H1272 H 0.84769 0.67978 0.09812 0.0
H1273 H 0.84277 0.67662 0.05545 0.0
C1274 C 0.33327 0.85193 0.09315 0.0
C1275 C 0.34418 0.86842 0.10431 0.0
C1276 C 0.33491 0.84896 0.06862 0.0
C1277 C 0.37146 0.86105 0.0195 0.0
H1278 H 0.3259 0.84268 0.97889 0.0
C1279 C 0.37689 0.86347 0.91783 0.0
C1280 C 0.36757 0.84725 0.90459 0.0
C1281 C 0.37451 0.86433 0.94239 0.0
C1282 C 0.33886 0.84751 0.99008 0.0
H1283 H 0.36404 0.89559 0.09818 0.0
H1284 H 0.36646 0.89073 0.05559 0.0
H1285 H 0.31934 0.84866 0.02101 0.0
H1286 H 0.34894 0.81878 0.90699 0.0
H1287 H 0.34489 0.8202 0.95007 0.0
H1288 H 0.39095 0.86011 0.98866 0.0
C1289 C 0.35717 0.87969 0.06578 0.0
C1290 C 0.33508 0.851 0.01421 0.0
C1291 C 0.35561 0.88261 0.09021 0.0
C1292 C 0.35642 0.83144 0.91665 0.0
C1293 C 0.3539 0.83238 0.9413 0.0
C1294 C 0.37522 0.85761 0.99545 0.0
C1295 C 0.34742 0.86244 0.05475 0.0
C1296 C 0.35129 0.8581 0.02916 0.0
C1297 C 0.36266 0.84902 0.95441 0.0
C1298 C 0.35893 0.85105 0.98035 0.0
H1299 H 0.32444 0.84064 0.1035 0.0
H1300 H 0.3272 0.8355 0.06072 0.0
H1301 H 0.38447 0.86596 0.03058 0.0
H1302 H 0.38558 0.87592 0.90914 0.0
H1303 H 0.38132 0.87747 0.95184 0.0
C1304 C 0.13774 0.62543 0.58951 0.0
C1305 C 0.15188 0.63608 0.60442 0.0
C1306 C 0.13729 0.62954 0.56525 0.0
C1307 C 0.16658 0.65249 0.5151 0.0
H1308 H 0.11071 0.65893 0.48855 0.0
C1309 C 0.15345 0.67343 0.41618 0.0
C1310 C 0.13854 0.66077 0.40458 0.0
C1311 C 0.15492 0.67331 0.44097 0.0
C1312 C 0.12643 0.65709 0.49562 0.0
H1313 H 0.17752 0.65857 0.60516 0.0
H1314 H 0.17682 0.66563 0.56255 0.0
H1315 H 0.1148 0.65166 0.5306 0.0
H1316 H 0.11269 0.63904 0.40998 0.0
H1317 H 0.11519 0.63886 0.45284 0.0
H1318 H 0.17816 0.65753 0.47991 0.0
C1319 C 0.16602 0.65413 0.56978 0.0
C1320 C 0.12878 0.65286 0.51974 0.0
C1321 C 0.16645 0.65004 0.59419 0.0
C1322 C 0.12438 0.64897 0.41832 0.0
C1323 C 0.12577 0.64893 0.44298 0.0
C1324 C 0.16422 0.65667 0.49087 0.0
C1325 C 0.15099 0.64438 0.55517 0.0
C1326 C 0.14885 0.65011 0.52971 0.0
C1327 C 0.14137 0.66068 0.45463 0.0
C1328 C 0.14408 0.65863 0.48075 0.0
H1329 H 0.12646 0.61438 0.59669 0.0
H1330 H 0.12588 0.62133 0.5544 0.0
H1331 H 0.18225 0.65041 0.52222 0.0
H1332 H 0.16468 0.68261 0.40613 0.0
H1333 H 0.16694 0.68275 0.4494 0.0
C1334 C 0.38364 0.14525 0.59151 0.0
C1335 C 0.3685 0.1549 0.60596 0.0
C1336 C 0.3807 0.1439 0.56704 0.0
C1337 C 0.34767 0.16312 0.5167 0.0
H1338 H 0.36597 0.1108 0.48839 0.0
C1339 C 0.34999 0.15005 0.41541 0.0
C1340 C 0.3478 0.12957 0.40635 0.0
C1341 C 0.34998 0.15367 0.43981 0.0
C1342 C 0.36041 0.12538 0.49598 0.0
H1343 H 0.33875 0.17147 0.60588 0.0
H1344 H 0.33336 0.16877 0.56327 0.0
H1345 H 0.37177 0.11684 0.53021 0.0
H1346 H 0.34226 0.09707 0.41595 0.0
H1347 H 0.34138 0.10348 0.4585 0.0
H1348 H 0.33563 0.1713 0.48252 0.0
C1349 C 0.34774 0.16254 0.57072 0.0
C1350 C 0.36415 0.12905 0.52 0.0
C1351 C 0.35084 0.16414 0.59522 0.0
C1352 C 0.34413 0.11301 0.42229 0.0
C1353 C 0.34389 0.11668 0.44674 0.0
C1354 C 0.34374 0.15935 0.49266 0.0
C1355 C 0.36235 0.15187 0.55637 0.0
C1356 C 0.35808 0.14807 0.53069 0.0
C1357 C 0.34752 0.13697 0.45588 0.0
C1358 C 0.35023 0.14049 0.48188 0.0
H1359 H 0.39747 0.13807 0.59924 0.0
H1360 H 0.39264 0.13614 0.55657 0.0
H1361 H 0.34282 0.178 0.52418 0.0
H1362 H 0.35289 0.16323 0.40374 0.0
H1363 H 0.35301 0.16948 0.44601 0.0
C1364 C 0.84436 0.33973 0.4171 0.0
C1365 C 0.86222 0.34828 0.40604 0.0
C1366 C 0.84182 0.3412 0.4417 0.0
C1367 C 0.86099 0.37334 0.49245 0.0
H1368 H 0.83083 0.3324 0.53019 0.0
C1369 C 0.84406 0.38988 0.59066 0.0
C1370 C 0.84691 0.37308 0.60648 0.0
C1371 C 0.84301 0.38632 0.56622 0.0
C1372 C 0.83942 0.34396 0.51999 0.0
H1373 H 0.89208 0.36372 0.41226 0.0
H1374 H 0.88822 0.36534 0.45506 0.0
H1375 H 0.83683 0.32569 0.48828 0.0
H1376 H 0.84965 0.33915 0.6089 0.0
H1377 H 0.84843 0.33304 0.56658 0.0
H1378 H 0.8645 0.39117 0.52418 0.0
C1379 C 0.8757 0.35826 0.4448 0.0
C1380 C 0.84267 0.34021 0.4958 0.0
C1381 C 0.87808 0.35708 0.42024 0.0
C1382 C 0.84738 0.35252 0.59732 0.0
C1383 C 0.84663 0.34899 0.57289 0.0
C1384 C 0.85795 0.37699 0.5166 0.0
C1385 C 0.8572 0.35104 0.45584 0.0
C1386 C 0.85363 0.35479 0.48169 0.0
C1387 C 0.84508 0.36589 0.55691 0.0
C1388 C 0.84717 0.36235 0.5308 0.0
H1389 H 0.83173 0.33309 0.40662 0.0
H1390 H 0.8273 0.33555 0.44943 0.0
H1391 H 0.86908 0.38523 0.4822 0.0
H1392 H 0.84349 0.4059 0.59707 0.0
H1393 H 0.84118 0.39972 0.55459 0.0
C1394 C 0.63092 0.87875 0.58769 0.0
C1395 C 0.63242 0.8603 0.60133 0.0
C1396 C 0.63333 0.87819 0.56317 0.0
C1397 C 0.63062 0.8434 0.51123 0.0
H1398 H 0.66058 0.88931 0.48108 0.0
C1399 C 0.6217 0.86184 0.41205 0.0
C1400 C 0.63933 0.86863 0.39906 0.0
C1401 C 0.6228 0.85924 0.43655 0.0
C1402 C 0.6524 0.87622 0.48917 0.0
H1403 H 0.63729 0.82664 0.59959 0.0
H1404 H 0.64148 0.82564 0.55645 0.0
H1405 H 0.65913 0.88729 0.52412 0.0
H1406 H 0.67204 0.87789 0.40184 0.0
H1407 H 0.67396 0.87334 0.44485 0.0
H1408 H 0.62391 0.83233 0.47624 0.0
C1409 C 0.63838 0.84056 0.56493 0.0
C1410 C 0.65135 0.87518 0.51388 0.0
C1411 C 0.63598 0.84113 0.58964 0.0
C1412 C 0.65814 0.87275 0.41129 0.0
C1413 C 0.65922 0.87017 0.43594 0.0
C1414 C 0.63166 0.84444 0.4865 0.0
C1415 C 0.63732 0.85916 0.55144 0.0
C1416 C 0.64008 0.85901 0.52523 0.0
C1417 C 0.64154 0.86334 0.44886 0.0
C1418 C 0.64221 0.86109 0.47514 0.0
H1419 H 0.628 0.89381 0.59595 0.0
H1420 H 0.63189 0.89273 0.55335 0.0
H1421 H 0.62178 0.83076 0.51935 0.0
H1422 H 0.60691 0.8585 0.40332 0.0
H1423 H 0.60876 0.85436 0.44591 0.0
C1424 C 0.17638 0.5792 0.27073 0.0
C1425 C 0.15999 0.58239 0.28705 0.0
C1426 C 0.18127 0.55889 0.2629 0.0
C1427 C 0.17662 0.51592 0.2385 0.0
H1428 H 0.17178 0.46933 0.28253 0.0
C1429 C 0.14943 0.43481 0.20984 0.0
C1430 C 0.15835 0.41661 0.21976 0.0
C1431 C 0.15509 0.45465 0.21793 0.0
C1432 C 0.17362 0.48213 0.27006 0.0
H1433 H 0.13564 0.56664 0.30748 0.0
H1434 H 0.14409 0.5317 0.29386 0.0
H1435 H 0.17213 0.50529 0.29745 0.0
H1436 H 0.18024 0.40511 0.24621 0.0
H1437 H 0.18991 0.44014 0.26077 0.0
H1438 H 0.17747 0.49277 0.21106 0.0
C1439 C 0.15348 0.54473 0.28746 0.0
C1440 C 0.1736 0.50273 0.27857 0.0
C1441 C 0.14853 0.56488 0.29511 0.0
C1442 C 0.17307 0.4188 0.23819 0.0
C1443 C 0.17863 0.43882 0.24649 0.0
C1444 C 0.17662 0.49532 0.23 0.0
C1445 C 0.16996 0.54143 0.2714 0.0
C1446 C 0.17424 0.51984 0.2628 0.0
C1447 C 0.16973 0.45694 0.23632 0.0
C1448 C 0.17426 0.47825 0.24562 0.0
H1449 H 0.18553 0.59232 0.26418 0.0
H1450 H 0.19401 0.5568 0.25041 0.0
H1451 H 0.17715 0.52876 0.22592 0.0
H1452 H 0.13787 0.43387 0.19581 0.0
H1453 H 0.14752 0.46823 0.21014 0.0
C1454 C 0.58778 0.17927 0.25335 0.0
C1455 C 0.59602 0.15885 0.25256 0.0
C1456 C 0.5673 0.18263 0.26162 0.0
C1457 C 0.52336 0.15833 0.29439 0.0
H1458 H 0.48739 0.18417 0.24714 0.0
C1459 C 0.43614 0.13964 0.29132 0.0
C1460 C 0.42168 0.15594 0.2875 0.0
C1461 C 0.45756 0.14296 0.28812 0.0
C1462 C 0.49723 0.17727 0.26072 0.0
H1463 H 0.59017 0.12615 0.26054 0.0
H1464 H 0.55482 0.13204 0.27596 0.0
H1465 H 0.52562 0.18574 0.24259 0.0
H1466 H 0.41823 0.1883 0.27628 0.0
H1467 H 0.45605 0.1942 0.27062 0.0
H1468 H 0.49516 0.14945 0.3123 0.0
C1469 C 0.56399 0.14547 0.27025 0.0
C1470 C 0.51911 0.17822 0.25816 0.0
C1471 C 0.58421 0.14208 0.26155 0.0
C1472 C 0.42903 0.17542 0.27918 0.0
C1473 C 0.45066 0.17881 0.27608 0.0
C1474 C 0.50158 0.15751 0.29703 0.0
C1475 C 0.55504 0.16564 0.26954 0.0
C1476 C 0.53233 0.16818 0.2746 0.0
C1477 C 0.46518 0.16274 0.28119 0.0
C1478 C 0.48824 0.1663 0.2798 0.0
H1479 H 0.59649 0.19231 0.24587 0.0
H1480 H 0.56075 0.19832 0.26089 0.0
H1481 H 0.53321 0.15069 0.30746 0.0
H1482 H 0.43093 0.12437 0.2975 0.0
H1483 H 0.46823 0.13004 0.29147 0.0
C1484 C 0.828 0.5891 0.23407 0.0
C1485 C 0.84834 0.5976 0.23471 0.0
C1486 C 0.8241 0.56924 0.24383 0.0
C1487 C 0.84546 0.52914 0.28419 0.0
H1488 H 0.82409 0.48826 0.23927 0.0
C1489 C 0.83115 0.4335 0.27831 0.0
C1490 C 0.85015 0.42739 0.289 0.0
C1491 C 0.82746 0.45468 0.27287 0.0
C1492 C 0.82969 0.49951 0.2522 0.0
H1493 H 0.88034 0.59282 0.2464 0.0
H1494 H 0.87345 0.55855 0.26426 0.0
H1495 H 0.8228 0.52572 0.22963 0.0
H1496 H 0.88059 0.4385 0.30113 0.0
H1497 H 0.87437 0.47496 0.29126 0.0
H1498 H 0.85279 0.5031 0.30656 0.0
C1499 C 0.8605 0.56706 0.25632 0.0
C1500 C 0.82892 0.52094 0.2467 0.0
C1501 C 0.86447 0.58663 0.24618 0.0
C1502 C 0.86566 0.44267 0.29319 0.0
C1503 C 0.86202 0.46366 0.28773 0.0
C1504 C 0.84609 0.50781 0.28975 0.0
C1505 C 0.84044 0.55791 0.25466 0.0
C1506 C 0.83745 0.53587 0.26233 0.0
C1507 C 0.84273 0.47003 0.27803 0.0
C1508 C 0.83895 0.4927 0.27345 0.0
H1509 H 0.81549 0.5972 0.22478 0.0
H1510 H 0.80852 0.56248 0.2423 0.0
H1511 H 0.85189 0.54037 0.29666 0.0
H1512 H 0.81887 0.42208 0.27497 0.0
H1513 H 0.81245 0.45912 0.26533 0.0
C1514 C 0.58155 0.86237 0.24938 0.0
C1515 C 0.59227 0.84599 0.26067 0.0
C1516 C 0.56166 0.85896 0.23976 0.0
C1517 C 0.51542 0.82815 0.25287 0.0
H1518 H 0.49317 0.85668 0.19766 0.0
C1519 C 0.42572 0.83555 0.23047 0.0
C1520 C 0.41968 0.85564 0.22272 0.0
C1521 C 0.44706 0.83076 0.2337 0.0
C1522 C 0.49915 0.84862 0.21316 0.0
H1523 H 0.59128 0.81309 0.2702 0.0
H1524 H 0.5562 0.80703 0.25339 0.0
H1525 H 0.53111 0.85358 0.20273 0.0
H1526 H 0.43105 0.88684 0.21389 0.0
H1527 H 0.46788 0.87862 0.21986 0.0
H1528 H 0.48336 0.82401 0.26377 0.0
C1529 C 0.56331 0.82243 0.25169 0.0
C1530 C 0.52085 0.84676 0.21597 0.0
C1531 C 0.58345 0.82579 0.26097 0.0
C1532 C 0.43519 0.87113 0.21962 0.0
C1533 C 0.45634 0.86637 0.2228 0.0
C1534 C 0.49363 0.83004 0.25006 0.0
C1535 C 0.55195 0.83918 0.24173 0.0
C1536 C 0.52923 0.83715 0.23624 0.0
C1537 C 0.46259 0.84599 0.22917 0.0
C1538 C 0.48533 0.84099 0.2306 0.0
H1539 H 0.58793 0.87817 0.24951 0.0
H1540 H 0.55322 0.87226 0.23249 0.0
H1541 H 0.52143 0.82083 0.26881 0.0
H1542 H 0.41412 0.82326 0.23282 0.0
H1543 H 0.45145 0.81495 0.23876 0.0
C1544 C 0.86998 0.56475 0.80482 0.0
C1545 C 0.86288 0.58152 0.79073 0.0
C1546 C 0.87135 0.54439 0.7954 0.0
C1547 C 0.87467 0.51575 0.73825 0.0
H1548 H 0.85522 0.46819 0.77503 0.0
C1549 C 0.86522 0.43143 0.69894 0.0
C1550 C 0.87059 0.41466 0.71396 0.0
C1551 C 0.86487 0.45212 0.70764 0.0
C1552 C 0.86097 0.48125 0.76458 0.0
H1553 H 0.85161 0.58981 0.75557 0.0
H1554 H 0.85389 0.55465 0.73951 0.0
H1555 H 0.85401 0.50326 0.79213 0.0
H1556 H 0.88088 0.40673 0.74958 0.0
H1557 H 0.88064 0.44234 0.76429 0.0
H1558 H 0.88168 0.49368 0.7107 0.0
C1559 C 0.85864 0.55718 0.7577 0.0
C1560 C 0.86028 0.50138 0.77444 0.0
C1561 C 0.85719 0.57739 0.76707 0.0
C1562 C 0.87632 0.41914 0.7375 0.0
C1563 C 0.87606 0.43964 0.74607 0.0
C1564 C 0.87542 0.49558 0.7284 0.0
C1565 C 0.86578 0.54041 0.77167 0.0
C1566 C 0.86711 0.51889 0.76142 0.0
C1567 C 0.86996 0.4564 0.73146 0.0
C1568 C 0.86865 0.47804 0.74147 0.0
H1569 H 0.87459 0.56734 0.82304 0.0
H1570 H 0.87707 0.53182 0.8066 0.0
H1571 H 0.88027 0.52888 0.72781 0.0
H1572 H 0.86072 0.42852 0.68075 0.0
H1573 H 0.86004 0.46467 0.69589 0.0
C1574 C 0.56631 0.86873 0.69718 0.0
C1575 C 0.58406 0.86256 0.71027 0.0
C1576 C 0.54631 0.86877 0.70763 0.0
C1577 C 0.5166 0.84889 0.76039 0.0
H1578 H 0.47794 0.89356 0.74381 0.0
C1579 C 0.43773 0.86334 0.81023 0.0
C1580 C 0.42017 0.86501 0.79526 0.0
C1581 C 0.45815 0.86379 0.80076 0.0
C1582 C 0.48858 0.88098 0.7486 0.0
H1583 H 0.59445 0.85117 0.74462 0.0
H1584 H 0.56004 0.85179 0.76278 0.0
H1585 H 0.51232 0.892 0.72483 0.0
H1586 H 0.41029 0.86935 0.75877 0.0
H1587 H 0.44562 0.87048 0.74254 0.0
H1588 H 0.49282 0.83815 0.78446 0.0
C1589 C 0.56133 0.85621 0.74433 0.0
C1590 C 0.50824 0.87995 0.73756 0.0
C1591 C 0.58121 0.85599 0.73387 0.0
C1592 C 0.42345 0.86785 0.77083 0.0
C1593 C 0.44372 0.86864 0.76149 0.0
C1594 C 0.49702 0.85008 0.77162 0.0
C1595 C 0.54358 0.86278 0.73148 0.0
C1596 C 0.52251 0.8638 0.74316 0.0
C1597 C 0.46131 0.86637 0.77625 0.0
C1598 C 0.48273 0.86603 0.76571 0.0
H1599 H 0.56788 0.87387 0.67899 0.0
H1600 H 0.53299 0.87356 0.69699 0.0
H1601 H 0.52694 0.83601 0.76495 0.0
H1602 H 0.43569 0.8611 0.8291 0.0
H1603 H 0.47146 0.8621 0.81257 0.0
C1604 C 0.12668 0.42968 0.80601 0.0
C1605 C 0.13912 0.4142 0.79512 0.0
C1606 C 0.12531 0.44995 0.79629 0.0
C1607 C 0.13673 0.47937 0.74005 0.0
H1608 H 0.13046 0.52821 0.78017 0.0
C1609 C 0.12856 0.56302 0.70034 0.0
C1610 C 0.13693 0.57995 0.71324 0.0
C1611 C 0.12776 0.54283 0.71026 0.0
C1612 C 0.13251 0.51481 0.76864 0.0
H1613 H 0.16011 0.40825 0.76554 0.0
H1614 H 0.15882 0.44337 0.74976 0.0
H1615 H 0.13169 0.49352 0.79794 0.0
H1616 H 0.15147 0.58865 0.74661 0.0
H1617 H 0.15133 0.5536 0.76312 0.0
H1618 H 0.13883 0.50062 0.7109 0.0
C1619 C 0.14941 0.43988 0.76523 0.0
C1620 C 0.13283 0.49476 0.77888 0.0
C1621 C 0.15044 0.41966 0.77462 0.0
C1622 C 0.14495 0.57606 0.73604 0.0
C1623 C 0.14456 0.55587 0.74574 0.0
C1624 C 0.1368 0.49939 0.72987 0.0
C1625 C 0.13659 0.4553 0.77563 0.0
C1626 C 0.13516 0.47672 0.76476 0.0
C1627 C 0.13568 0.53896 0.73319 0.0
C1628 C 0.13486 0.51747 0.74399 0.0
H1629 H 0.11758 0.426 0.82168 0.0
H1630 H 0.11507 0.46125 0.80473 0.0
H1631 H 0.13801 0.46593 0.72841 0.0
H1632 H 0.12208 0.56543 0.68282 0.0
H1633 H 0.12051 0.53039 0.70007 0.0
C1634 C 0.42464 0.14081 0.74243 0.0
C1635 C 0.42227 0.14034 0.71766 0.0
C1636 C 0.4445 0.1427 0.75277 0.0
C1637 C 0.50141 0.13605 0.7399 0.0
H1638 H 0.50798 0.16707 0.79854 0.0
C1639 C 0.5828 0.15328 0.78026 0.0
C1640 C 0.58539 0.14916 0.8046 0.0
C1641 C 0.56286 0.15326 0.76993 0.0
C1642 C 0.50635 0.15822 0.78227 0.0
H1643 H 0.43912 0.14176 0.68436 0.0
H1644 H 0.47383 0.14561 0.70239 0.0
H1645 H 0.47364 0.16553 0.77937 0.0
H1646 H 0.56871 0.14245 0.83723 0.0
H1647 H 0.53372 0.14272 0.81912 0.0
H1648 H 0.53425 0.12906 0.7427 0.0
C1649 C 0.46028 0.14407 0.71386 0.0
C1650 C 0.48665 0.15727 0.77126 0.0
C1651 C 0.44035 0.142 0.70348 0.0
C1652 C 0.56734 0.14574 0.81848 0.0
C1653 C 0.54729 0.1459 0.80811 0.0
C1654 C 0.52114 0.13718 0.75079 0.0
C1655 C 0.46264 0.14438 0.73868 0.0
C1656 C 0.48385 0.14606 0.74997 0.0
C1657 C 0.54488 0.1493 0.78363 0.0
C1658 C 0.52383 0.14822 0.77215 0.0
H1659 H 0.41115 0.13945 0.75402 0.0
H1660 H 0.4456 0.14243 0.77189 0.0
H1661 H 0.49988 0.12693 0.72381 0.0
H1662 H 0.59625 0.15611 0.76894 0.0
H1663 H 0.56152 0.15628 0.75112 0.0
C1664 C 0.67044 0.07997 0.78342 0.0
C1665 C 0.65046 0.08697 0.79046 0.0
C1666 C 0.67361 0.05879 0.77764 0.0
C1667 C 0.64944 0.00703 0.78941 0.0
H1668 H 0.68181 0.98738 0.7357 0.0
C1669 C 0.63468 0.92942 0.74221 0.0
C1670 C 0.65185 0.91705 0.73536 0.0
C1671 C 0.63791 0.94887 0.75286 0.0
C1672 C 0.6731 0.99266 0.75106 0.0
H1673 H 0.61788 0.07788 0.79526 0.0
H1674 H 0.62321 0.04139 0.78452 0.0
H1675 H 0.68077 0.02501 0.74475 0.0
H1676 H 0.68581 0.91487 0.73454 0.0
H1677 H 0.69153 0.94947 0.75285 0.0
H1678 H 0.6409 0.97489 0.795 0.0
C1679 C 0.63661 0.0519 0.78424 0.0
C1680 C 0.67245 0.01416 0.75619 0.0
C1681 C 0.63351 0.07286 0.79014 0.0
C1682 C 0.67236 0.92407 0.74007 0.0
C1683 C 0.67562 0.94384 0.75029 0.0
C1684 C 0.64996 0.98566 0.78419 0.0
C1685 C 0.6568 0.04443 0.77875 0.0
C1686 C 0.66001 0.02161 0.77494 0.0
C1687 C 0.65838 0.95651 0.7564 0.0
C1688 C 0.66127 0.97836 0.76457 0.0
H1689 H 0.68381 0.09052 0.78374 0.0
H1690 H 0.68933 0.05349 0.77337 0.0
H1691 H 0.64021 0.01223 0.80442 0.0
H1692 H 0.61873 0.92436 0.73853 0.0
H1693 H 0.62436 0.95843 0.75718 0.0
C1694 C 0.91655 0.67823 0.7733 0.0
C1695 C 0.90703 0.65867 0.76934 0.0
C1696 C 0.93694 0.68209 0.76505 0.0
C1697 C 0.97834 0.66164 0.72511 0.0
H1698 H 0.01724 0.67835 0.77462 0.0
C1699 C 0.06284 0.63472 0.7237 0.0
C1700 C 0.07886 0.6497 0.72663 0.0
C1701 C 0.04205 0.63975 0.72862 0.0
C1702 C 0.00654 0.67405 0.76051 0.0
H1703 H 0.91058 0.62807 0.75332 0.0
H1704 H 0.94588 0.63487 0.73827 0.0
H1705 H 0.97929 0.68126 0.78127 0.0
H1706 H 0.08581 0.68132 0.73852 0.0
H1707 H 0.04902 0.69008 0.74765 0.0
H1708 H 0.00546 0.65353 0.70477 0.0
C1709 C 0.93773 0.64735 0.74749 0.0
C1710 C 0.98484 0.67577 0.76424 0.0
C1711 C 0.91754 0.64343 0.75602 0.0
C1712 C 0.07379 0.66945 0.7362 0.0
C1713 C 0.05278 0.67449 0.74125 0.0
C1714 C 0.99992 0.6599 0.72142 0.0
C1715 C 0.94791 0.66646 0.75256 0.0
C1716 C 0.97055 0.66884 0.74688 0.0
C1717 C 0.0367 0.65988 0.73668 0.0
C1718 C 0.0142 0.66531 0.7394 0.0
H1719 H 0.90879 0.68997 0.78408 0.0
H1720 H 0.94441 0.69694 0.76917 0.0
H1721 H 0.9677 0.65653 0.71128 0.0
H1722 H 0.06625 0.61926 0.71666 0.0
H1723 H 0.03003 0.62799 0.72557 0.0
C1724 C 0.36811 0.06069 0.71694 0.0
C1725 C 0.35395 0.07689 0.72253 0.0
C1726 C 0.36326 0.03986 0.72206 0.0
C1727 C 0.33121 0.00557 0.75936 0.0
H1728 H 0.34555 0.96438 0.7114 0.0
C1729 C 0.32393 0.91681 0.77747 0.0
C1730 C 0.34265 0.90601 0.77273 0.0
C1731 C 0.32076 0.93696 0.76824 0.0
C1732 C 0.34138 0.97568 0.72492 0.0
H1733 H 0.32389 0.08389 0.73881 0.0
H1734 H 0.31549 0.0472 0.74807 0.0
H1735 H 0.34902 0.00172 0.7026 0.0
H1736 H 0.37243 0.90703 0.75438 0.0
H1737 H 0.36684 0.94198 0.73777 0.0
H1738 H 0.32425 0.97945 0.78196 0.0
C1739 C 0.33031 0.05081 0.73955 0.0
C1740 C 0.34343 0.99705 0.71993 0.0
C1741 C 0.33515 0.0718 0.73433 0.0
C1742 C 0.35767 0.91498 0.75772 0.0
C1743 C 0.35445 0.93499 0.7483 0.0
C1744 C 0.32915 0.98413 0.76437 0.0
C1745 C 0.34415 0.03461 0.73297 0.0
C1746 C 0.33903 0.0122 0.73734 0.0
C1747 C 0.33628 0.94648 0.75409 0.0
C1748 C 0.33483 0.96898 0.74742 0.0
H1749 H 0.38285 0.06401 0.7081 0.0
H1750 H 0.37451 0.02781 0.71735 0.0
H1751 H 0.32776 0.01687 0.77314 0.0
H1752 H 0.31237 0.91021 0.78945 0.0
H1753 H 0.30658 0.9454 0.7729 0.0
C1754 C 0.08607 0.35137 0.75447 0.0
C1755 C 0.09609 0.33674 0.76914 0.0
C1756 C 0.06617 0.34704 0.74524 0.0
C1757 C 0.01849 0.32055 0.76238 0.0
H1758 H 0.99985 0.33535 0.69922 0.0
C1759 C 0.92993 0.32389 0.73531 0.0
C1760 C 0.92451 0.34116 0.72105 0.0
C1761 C 0.95113 0.31938 0.73999 0.0
C1762 C 0.00477 0.33122 0.71698 0.0
H1763 H 0.09377 0.30608 0.78546 0.0
H1764 H 0.05863 0.29854 0.76956 0.0
H1765 H 0.03736 0.33403 0.70797 0.0
H1766 H 0.93707 0.36772 0.7014 0.0
H1767 H 0.97347 0.36022 0.70997 0.0
H1768 H 0.98589 0.31891 0.77178 0.0
C1769 C 0.0663 0.31316 0.76485 0.0
C1770 C 0.02625 0.33035 0.7219 0.0
C1771 C 0.08641 0.31735 0.7737 0.0
C1772 C 0.94062 0.3541 0.71219 0.0
C1773 C 0.9616 0.34968 0.71692 0.0
C1774 C 0.99693 0.32165 0.75752 0.0
C1775 C 0.05578 0.32822 0.75104 0.0
C1776 C 0.03331 0.32557 0.74479 0.0
C1777 C 0.96721 0.33209 0.73052 0.0
C1778 C 0.98984 0.32767 0.73495 0.0
H1779 H 0.09312 0.36662 0.75128 0.0
H1780 H 0.05832 0.35904 0.7349 0.0
H1781 H 0.02352 0.31699 0.78025 0.0
H1782 H 0.91787 0.31361 0.74232 0.0
H1783 H 0.95495 0.30572 0.75058 0.0
C1784 C 0.35843 0.0722 0.31029 0.0
C1785 C 0.35832 0.08962 0.29494 0.0
C1786 C 0.35765 0.05168 0.30119 0.0
C1787 C 0.36945 0.02171 0.2468 0.0
H1788 H 0.33264 0.97918 0.27314 0.0
C1789 C 0.35795 0.94146 0.20063 0.0
C1790 C 0.35659 0.92358 0.21517 0.0
C1791 C 0.35734 0.96165 0.2105 0.0
C1792 C 0.34321 0.99078 0.26571 0.0
H1793 H 0.35693 0.0989 0.2579 0.0
H1794 H 0.35561 0.0635 0.24236 0.0
H1795 H 0.33375 0.01412 0.29094 0.0
H1796 H 0.35322 0.91309 0.25159 0.0
H1797 H 0.35258 0.94802 0.26863 0.0
H1798 H 0.37919 0.99847 0.2218 0.0
C1799 C 0.35652 0.06561 0.26136 0.0
C1800 C 0.34382 0.01081 0.27596 0.0
C1801 C 0.35715 0.08598 0.27038 0.0
C1802 C 0.35426 0.92644 0.23975 0.0
C1803 C 0.35375 0.94656 0.24958 0.0
C1804 C 0.36895 0.00168 0.23667 0.0
C1805 C 0.35693 0.04818 0.27658 0.0
C1806 C 0.35684 0.02656 0.26651 0.0
C1807 C 0.35544 0.96448 0.23515 0.0
C1808 C 0.35575 0.98593 0.24589 0.0
H1809 H 0.35936 0.07439 0.32927 0.0
H1810 H 0.35807 0.03855 0.31337 0.0
H1811 H 0.3799 0.0334 0.23931 0.0
H1812 H 0.35972 0.93989 0.18165 0.0
H1813 H 0.35834 0.97506 0.19875 0.0
C1814 C 0.92001 0.36257 0.27111 0.0
C1815 C 0.91738 0.36488 0.29573 0.0
C1816 C 0.94003 0.36221 0.261 0.0
C1817 C 0.99518 0.37787 0.27254 0.0
H1818 H 0.00687 0.34177 0.21883 0.0
C1819 C 0.07894 0.36525 0.23666 0.0
C1820 C 0.08201 0.36489 0.21197 0.0
C1821 C 0.05876 0.3656 0.2463 0.0
C1822 C 0.00377 0.35213 0.23362 0.0
H1823 H 0.93402 0.36831 0.32901 0.0
H1824 H 0.9691 0.3673 0.31136 0.0
H1825 H 0.97233 0.34066 0.23755 0.0
H1826 H 0.066 0.3647 0.17808 0.0
H1827 H 0.03051 0.36522 0.19506 0.0
H1828 H 0.02673 0.38912 0.26875 0.0
C1829 C 0.95554 0.36609 0.29984 0.0
C1830 C 0.98397 0.35149 0.24441 0.0
C1831 C 0.93542 0.3665 0.31001 0.0
C1832 C 0.06424 0.36496 0.19715 0.0
C1833 C 0.04392 0.36515 0.20688 0.0
C1834 C 0.015 0.37842 0.26182 0.0
C1835 C 0.95809 0.36408 0.27516 0.0
C1836 C 0.97939 0.36436 0.26403 0.0
C1837 C 0.04098 0.36552 0.23159 0.0
C1838 C 0.01957 0.36553 0.24227 0.0
H1839 H 0.90656 0.36136 0.25943 0.0
H1840 H 0.94128 0.36098 0.24193 0.0
H1841 H 0.99214 0.38831 0.28727 0.0
H1842 H 0.09216 0.3652 0.24874 0.0
H1843 H 0.0571 0.36557 0.26538 0.0
C1844 C 0.64724 0.92498 0.27405 0.0
C1845 C 0.63555 0.91945 0.29429 0.0
C1846 C 0.64647 0.94531 0.26483 0.0
C1847 C 0.63266 1.00016 0.27991 0.0
H1848 H 0.63534 0.00752 0.21178 0.0
C1849 C 0.65197 0.08025 0.2391 0.0
C1850 C 0.64137 0.08683 0.21851 0.0
C1851 C 0.65001 0.05974 0.24746 0.0
C1852 C 0.63434 0.00578 0.23081 0.0
H1853 H 0.61394 0.9313 0.32077 0.0
H1854 H 0.61241 0.96688 0.30449 0.0
H1855 H 0.63344 0.97224 0.22846 0.0
H1856 H 0.62067 0.07657 0.19029 0.0
H1857 H 0.61706 0.04054 0.20512 0.0
H1858 H 0.63317 0.03367 0.28228 0.0
C1859 C 0.62241 0.95542 0.29592 0.0
C1860 C 0.63352 0.98551 0.24044 0.0
C1861 C 0.62327 0.935 0.30528 0.0
C1862 C 0.62915 0.07204 0.20612 0.0
C1863 C 0.62708 0.05139 0.21464 0.0
C1864 C 0.63339 0.0204 0.27029 0.0
C1865 C 0.63387 0.96078 0.27542 0.0
C1866 C 0.63307 0.98241 0.26515 0.0
C1867 C 0.63723 0.0451 0.23568 0.0
C1868 C 0.63467 0.0235 0.24563 0.0
H1869 H 0.65693 0.91353 0.26504 0.0
H1870 H 0.65591 0.94889 0.24941 0.0
H1871 H 0.63241 0.99846 0.29898 0.0
H1872 H 0.6616 0.09105 0.24918 0.0
H1873 H 0.65855 0.0554 0.26332 0.0
C1874 C 0.0862 0.64033 0.26854 0.0
C1875 C 0.08863 0.64007 0.29331 0.0
C1876 C 0.06624 0.64032 0.25822 0.0
C1877 C 0.01001 0.62894 0.27134 0.0
H1878 H 1.00058 0.66009 0.21324 0.0
C1879 C 0.92726 0.6461 0.23498 0.0
C1880 C 0.92354 0.64289 0.21065 0.0
C1881 C 0.94754 0.64508 0.24426 0.0
C1882 C 0.00304 0.65112 0.22931 0.0
H1883 H 0.07175 0.6398 0.32663 0.0
H1884 H 0.03684 0.64043 0.30865 0.0
H1885 H 0.03528 0.66043 0.23162 0.0
H1886 H 0.93854 0.63625 0.17703 0.0
H1887 H 0.97431 0.63485 0.19334 0.0
H1888 H 0.97753 0.62017 0.26928 0.0
C1889 C 0.05044 0.64015 0.29715 0.0
C1890 C 0.02296 0.65127 0.23989 0.0
C1891 C 0.07049 0.63996 0.30751 0.0
C1892 C 0.94081 0.63882 0.1958 0.0
C1893 C 0.96128 0.63806 0.20513 0.0
C1894 C 0.99006 0.62899 0.2609 0.0
C1895 C 0.04804 0.64027 0.27233 0.0
C1896 C 0.02674 0.64021 0.2611 0.0
C1897 C 0.9648 0.64103 0.22951 0.0
C1898 C 0.98632 0.64013 0.23981 0.0
H1899 H 0.09975 0.64026 0.25694 0.0
H1900 H 0.06515 0.63998 0.2391 0.0
H1901 H 0.01233 0.61986 0.28734 0.0
H1902 H 0.91444 0.64927 0.24706 0.0
H1903 H 0.94975 0.64772 0.26304 0.0
loop_
_geom_bond_atom_site_label_1
_geom_bond_atom_site_label_2
_geom_bond_distance
_geom_bond_site_symmetry_2
_ccdc_geom_bond_type
Co0 O2 2.143 . S
Co0 O8 2.074 . S
Co0 O11 2.093 . S
Co0 O24 2.097 . S
Co0 N41 2.151 . S
Co0 N49 2.214 . S
Co1 O2 2.160 . S
Co1 O7 2.058 . S
Co1 O17 2.057 . S
Co1 O32 2.037 . S
Co1 N36 2.145 . S
Co1 N57 2.257 . S
O2 Co0 2.143 . S
O2 Co1 2.160 . S
C3 O4 1.278 . S
C3 O11 1.224 . S
O4 C3 1.278 . S
C5 O6 1.245 . S
C5 O17 1.232 . S
O6 C5 1.245 . S
O7 Co1 2.058 . S
O7 C33 1.269 . S
O8 Co0 2.074 . S
O8 C33 1.257 . S
H9 C34 0.930 . S
H10 C40 0.930 . S
O11 Co0 2.093 . S
O11 C3 1.224 . S
H12 C44 0.929 . S
H13 C46 0.930 . S
H14 C47 0.930 . S
H15 C45 0.929 . S
H16 C48 0.928 . S
O17 Co1 2.057 . S
O17 C5 1.232 . S
H18 C37 0.929 . S
H19 C38 0.929 . S
H20 C50 0.931 . S
H21 C42 0.929 . S
H22 C51 0.930 . S
H23 C43 0.931 . S
O24 Co0 2.097 . S
O24 C52 1.214 . S
H25 C53 0.929 . S
H26 C54 0.929 . S
H27 C55 0.930 . S
H28 C56 0.929 . S
H29 C58 0.930 . S
H30 C35 0.930 . S
H31 C39 0.930 . S
O32 Co1 2.037 . S
O32 C52 1.234 . S
C33 O7 1.269 . S
C33 O8 1.257 . S
C34 H9 0.930 . S
C34 C37 1.388 . S
C34 C39 1.418 . S
C35 H30 0.930 . S
C35 C38 1.404 . S
C35 C39 1.353 . S
N36 Co1 2.145 . S
N36 C37 1.397 . S
N36 C38 1.334 . S
C37 H18 0.929 . S
C37 C34 1.388 . S
C37 N36 1.397 . S
C38 H19 0.929 . S
C38 C35 1.404 . S
C38 N36 1.334 . S
C39 H31 0.930 . S
C39 C34 1.418 . S
C39 C35 1.353 . S
C40 H10 0.930 . S
C40 N41 1.330 . S
C40 C42 1.446 . S
N41 Co0 2.151 . S
N41 C40 1.330 . S
N41 C45 1.418 . S
C42 H21 0.929 . S
C42 C40 1.446 . S
C42 C43 1.332 . S
C43 H23 0.931 . S
C43 C42 1.332 . S
C43 C44 1.267 . S
C44 H12 0.929 . S
C44 C43 1.267 . S
C44 C45 1.251 . S
C45 H15 0.929 . S
C45 N41 1.418 . S
C45 C44 1.251 . S
C46 H13 0.930 . S
C46 C48 1.406 . S
C46 C51 1.261 . S
C47 H14 0.930 . S
C47 N49 1.325 . S
C47 C50 1.357 . S
C48 H16 0.928 . S
C48 C46 1.406 . S
C48 N49 1.261 . S
N49 Co0 2.214 . S
N49 C47 1.325 . S
N49 C48 1.261 . S
C50 H20 0.931 . S
C50 C47 1.357 . S
C50 C51 1.312 . S
C51 H22 0.930 . S
C51 C46 1.261 . S
C51 C50 1.312 . S
C52 O24 1.214 . S
C52 O32 1.234 . S
C53 H25 0.929 . S
C53 C56 1.391 . S
C53 C58 1.391 . S
C54 H26 0.929 . S
C54 C55 1.390 . S
C54 N57 1.391 . S
C55 H27 0.930 . S
C55 C54 1.390 . S
C55 C56 1.392 . S
C56 H28 0.929 . S
C56 C53 1.391 . S
C56 C55 1.392 . S
N57 Co1 2.257 . S
N57 C54 1.391 . S
N57 C58 1.388 . S
C58 H29 0.930 . S
C58 C53 1.391 . S
C58 N57 1.388 . S
Co59 O61 2.143 . S
Co59 O67 2.074 . S
Co59 O70 2.093 . S
Co59 O83 2.097 . S
Co59 N100 2.151 . S
Co59 N108 2.214 . S
Co60 O61 2.160 . S
Co60 O66 2.058 . S
Co60 O76 2.057 . S
Co60 O91 2.037 . S
Co60 N95 2.145 . S
Co60 N116 2.257 . S
O61 Co59 2.143 . S
O61 Co60 2.160 . S
C62 O63 1.278 . S
C62 O70 1.224 . S
O63 C62 1.278 . S
C64 O65 1.245 . S
C64 O76 1.232 . S
O65 C64 1.245 . S
O66 Co60 2.058 . S
O66 C92 1.269 . S
O67 Co59 2.074 . S
O67 C92 1.257 . S
H68 C93 0.930 . S
H69 C99 0.930 . S
O70 Co59 2.093 . S
O70 C62 1.224 . S
H71 C103 0.929 . S
H72 C105 0.930 . S
H73 C106 0.930 . S
H74 C104 0.929 . S
H75 C107 0.928 . S
O76 Co60 2.057 . S
O76 C64 1.232 . S
H77 C96 0.929 . S
H78 C97 0.929 . S
H79 C109 0.931 . S
H80 C101 0.929 . S
H81 C110 0.930 . S
H82 C102 0.931 . S
O83 Co59 2.097 . S
O83 C111 1.214 . S
H84 C112 0.929 . S
H85 C113 0.929 . S
H86 C114 0.930 . S
H87 C115 0.929 . S
H88 C117 0.930 . S
H89 C94 0.930 . S
H90 C98 0.930 . S
O91 Co60 2.037 . S
O91 C111 1.234 . S
C92 O66 1.269 . S
C92 O67 1.257 . S
C93 H68 0.930 . S
C93 C96 1.388 . S
C93 C98 1.418 . S
C94 H89 0.930 . S
C94 C97 1.404 . S
C94 C98 1.353 . S
N95 Co60 2.145 . S
N95 C96 1.397 . S
N95 C97 1.334 . S
C96 H77 0.929 . S
C96 C93 1.388 . S
C96 N95 1.397 . S
C97 H78 0.929 . S
C97 C94 1.404 . S
C97 N95 1.334 . S
C98 H90 0.930 . S
C98 C93 1.418 . S
C98 C94 1.353 . S
C99 H69 0.930 . S
C99 N100 1.330 . S
C99 C101 1.446 . S
N100 Co59 2.151 . S
N100 C99 1.330 . S
N100 C104 1.418 . S
C101 H80 0.929 . S
C101 C99 1.446 . S
C101 C102 1.332 . S
C102 H82 0.931 . S
C102 C101 1.332 . S
C102 C103 1.267 . S
C103 H71 0.929 . S
C103 C102 1.267 . S
C103 C104 1.251 . S
C104 H74 0.929 . S
C104 N100 1.418 . S
C104 C103 1.251 . S
C105 H72 0.930 . S
C105 C107 1.406 . S
C105 C110 1.261 . S
C106 H73 0.930 . S
C106 N108 1.325 . S
C106 C109 1.357 . S
C107 H75 0.928 . S
C107 C105 1.406 . S
C107 N108 1.261 . S
N108 Co59 2.214 . S
N108 C106 1.325 . S
N108 C107 1.261 . S
C109 H79 0.931 . S
C109 C106 1.357 . S
C109 C110 1.312 . S
C110 H81 0.930 . S
C110 C105 1.261 . S
C110 C109 1.312 . S
C111 O83 1.214 . S
C111 O91 1.234 . S
C112 H84 0.929 . S
C112 C115 1.391 . S
C112 C117 1.391 . S
C113 H85 0.929 . S
C113 C114 1.390 . S
C113 N116 1.391 . S
C114 H86 0.930 . S
C114 C113 1.390 . S
C114 C115 1.392 . S
C115 H87 0.929 . S
C115 C112 1.391 . S
C115 C114 1.392 . S
N116 Co60 2.257 . S
N116 C113 1.391 . S
N116 C117 1.388 . S
C117 H88 0.930 . S
C117 C112 1.391 . S
C117 N116 1.388 . S
Co118 O120 2.143 . S
Co118 O126 2.074 . S
Co118 O129 2.093 . S
Co118 O142 2.097 . S
Co118 N159 2.151 . S
Co118 N167 2.214 . S
Co119 O120 2.160 . S
Co119 O125 2.058 . S
Co119 O135 2.057 . S
Co119 O150 2.037 . S
Co119 N154 2.145 . S
Co119 N175 2.257 . S
O120 Co118 2.143 . S
O120 Co119 2.160 . S
C121 O122 1.278 . S
C121 O129 1.224 . S
O122 C121 1.278 . S
C123 O124 1.245 . S
C123 O135 1.232 . S
O124 C123 1.245 . S
O125 Co119 2.058 . S
O125 C151 1.269 . S
O126 Co118 2.074 . S
O126 C151 1.257 . S
H127 C152 0.930 . S
H128 C158 0.930 . S
O129 Co118 2.093 . S
O129 C121 1.224 . S
H130 C162 0.929 . S
H131 C164 0.930 . S
H132 C165 0.930 . S
H133 C163 0.929 . S
H134 C166 0.928 . S
O135 Co119 2.057 . S
O135 C123 1.232 . S
H136 C155 0.929 . S
H137 C156 0.929 . S
H138 C168 0.931 . S
H139 C160 0.929 . S
H140 C169 0.930 . S
H141 C161 0.931 . S
O142 Co118 2.097 . S
O142 C170 1.214 . S
H143 C171 0.929 . S
H144 C172 0.929 . S
H145 C173 0.930 . S
H146 C174 0.929 . S
H147 C176 0.930 . S
H148 C153 0.930 . S
H149 C157 0.930 . S
O150 Co119 2.037 . S
O150 C170 1.234 . S
C151 O125 1.269 . S
C151 O126 1.257 . S
C152 H127 0.930 . S
C152 C155 1.388 . S
C152 C157 1.418 . S
C153 H148 0.930 . S
C153 C156 1.404 . S
C153 C157 1.353 . S
N154 Co119 2.145 . S
N154 C155 1.397 . S
N154 C156 1.334 . S
C155 H136 0.929 . S
C155 C152 1.388 . S
C155 N154 1.397 . S
C156 H137 0.929 . S
C156 C153 1.404 . S
C156 N154 1.334 . S
C157 H149 0.930 . S
C157 C152 1.418 . S
C157 C153 1.353 . S
C158 H128 0.930 . S
C158 N159 1.330 . S
C158 C160 1.446 . S
N159 Co118 2.151 . S
N159 C158 1.330 . S
N159 C163 1.418 . S
C160 H139 0.929 . S
C160 C158 1.446 . S
C160 C161 1.332 . S
C161 H141 0.931 . S
C161 C160 1.332 . S
C161 C162 1.267 . S
C162 H130 0.929 . S
C162 C161 1.267 . S
C162 C163 1.251 . S
C163 H133 0.929 . S
C163 N159 1.418 . S
C163 C162 1.251 . S
C164 H131 0.930 . S
C164 C166 1.406 . S
C164 C169 1.261 . S
C165 H132 0.930 . S
C165 N167 1.325 . S
C165 C168 1.357 . S
C166 H134 0.928 . S
C166 C164 1.406 . S
C166 N167 1.261 . S
N167 Co118 2.214 . S
N167 C165 1.325 . S
N167 C166 1.261 . S
C168 H138 0.931 . S
C168 C165 1.357 . S
C168 C169 1.312 . S
C169 H140 0.930 . S
C169 C164 1.261 . S
C169 C168 1.312 . S
C170 O142 1.214 . S
C170 O150 1.234 . S
C171 H143 0.929 . S
C171 C174 1.391 . S
C171 C176 1.391 . S
C172 H144 0.929 . S
C172 C173 1.390 . S
C172 N175 1.391 . S
C173 H145 0.930 . S
C173 C172 1.390 . S
C173 C174 1.392 . S
C174 H146 0.929 . S
C174 C171 1.391 . S
C174 C173 1.392 . S
N175 Co119 2.257 . S
N175 C172 1.391 . S
N175 C176 1.388 . S
C176 H147 0.930 . S
C176 C171 1.391 . S
C176 N175 1.388 . S
Co177 O179 2.143 . S
Co177 O185 2.074 . S
Co177 O188 2.093 . S
Co177 O201 2.097 . S
Co177 N218 2.151 . S
Co177 N226 2.214 . S
Co178 O179 2.160 . S
Co178 O184 2.058 . S
Co178 O194 2.057 . S
Co178 O209 2.037 . S
Co178 N213 2.145 . S
Co178 N234 2.257 . S
O179 Co177 2.143 . S
O179 Co178 2.160 . S
C180 O181 1.278 . S
C180 O188 1.224 . S
O181 C180 1.278 . S
C182 O183 1.245 . S
C182 O194 1.232 . S
O183 C182 1.245 . S
O184 Co178 2.058 . S
O184 C210 1.269 . S
O185 Co177 2.074 . S
O185 C210 1.257 . S
H186 C211 0.930 . S
H187 C217 0.930 . S
O188 Co177 2.093 . S
O188 C180 1.224 . S
H189 C221 0.929 . S
H190 C223 0.930 . S
H191 C224 0.930 . S
H192 C222 0.929 . S
H193 C225 0.928 . S
O194 Co178 2.057 . S
O194 C182 1.232 . S
H195 C214 0.929 . S
H196 C215 0.929 . S
H197 C227 0.931 . S
H198 C219 0.929 . S
H199 C228 0.930 . S
H200 C220 0.931 . S
O201 Co177 2.097 . S
O201 C229 1.214 . S
H202 C230 0.929 . S
H203 C231 0.929 . S
H204 C232 0.930 . S
H205 C233 0.929 . S
H206 C235 0.930 . S
H207 C212 0.930 . S
H208 C216 0.930 . S
O209 Co178 2.037 . S
O209 C229 1.234 . S
C210 O184 1.269 . S
C210 O185 1.257 . S
C211 H186 0.930 . S
C211 C214 1.388 . S
C211 C216 1.418 . S
C212 H207 0.930 . S
C212 C215 1.404 . S
C212 C216 1.353 . S
N213 Co178 2.145 . S
N213 C214 1.397 . S
N213 C215 1.334 . S
C214 H195 0.929 . S
C214 C211 1.388 . S
C214 N213 1.397 . S
C215 H196 0.929 . S
C215 C212 1.404 . S
C215 N213 1.334 . S
C216 H208 0.930 . S
C216 C211 1.418 . S
C216 C212 1.353 . S
C217 H187 0.930 . S
C217 N218 1.330 . S
C217 C219 1.446 . S
N218 Co177 2.151 . S
N218 C217 1.330 . S
N218 C222 1.418 . S
C219 H198 0.929 . S
C219 C217 1.446 . S
C219 C220 1.332 . S
C220 H200 0.931 . S
C220 C219 1.332 . S
C220 C221 1.267 . S
C221 H189 0.929 . S
C221 C220 1.267 . S
C221 C222 1.251 . S
C222 H192 0.929 . S
C222 N218 1.418 . S
C222 C221 1.251 . S
C223 H190 0.930 . S
C223 C225 1.406 . S
C223 C228 1.261 . S
C224 H191 0.930 . S
C224 N226 1.325 . S
C224 C227 1.357 . S
C225 H193 0.928 . S
C225 C223 1.406 . S
C225 N226 1.261 . S
N226 Co177 2.214 . S
N226 C224 1.325 . S
N226 C225 1.261 . S
C227 H197 0.931 . S
C227 C224 1.357 . S
C227 C228 1.312 . S
C228 H199 0.930 . S
C228 C223 1.261 . S
C228 C227 1.312 . S
C229 O201 1.214 . S
C229 O209 1.234 . S
C230 H202 0.929 . S
C230 C233 1.391 . S
C230 C235 1.391 . S
C231 H203 0.929 . S
C231 C232 1.390 . S
C231 N234 1.391 . S
C232 H204 0.930 . S
C232 C231 1.390 . S
C232 C233 1.392 . S
C233 H205 0.929 . S
C233 C230 1.391 . S
C233 C232 1.392 . S
N234 Co178 2.257 . S
N234 C231 1.391 . S
N234 C235 1.388 . S
C235 H206 0.930 . S
C235 C230 1.391 . S
C235 N234 1.388 . S
Co236 O238 2.143 . S
Co236 O244 2.074 . S
Co236 O247 2.093 . S
Co236 O260 2.097 . S
Co236 N277 2.151 . S
Co236 N285 2.214 . S
Co237 O238 2.160 . S
Co237 O243 2.058 . S
Co237 O253 2.057 . S
Co237 O268 2.037 . S
Co237 N272 2.145 . S
Co237 N293 2.257 . S
O238 Co236 2.143 . S
O238 Co237 2.160 . S
C239 O240 1.278 . S
C239 O247 1.224 . S
O240 C239 1.278 . S
C241 O242 1.245 . S
C241 O253 1.232 . S
O242 C241 1.245 . S
O243 Co237 2.058 . S
O243 C269 1.269 . S
O244 Co236 2.074 . S
O244 C269 1.257 . S
H245 C270 0.930 . S
H246 C276 0.930 . S
O247 Co236 2.093 . S
O247 C239 1.224 . S
H248 C280 0.929 . S
H249 C282 0.930 . S
H250 C283 0.930 . S
H251 C281 0.929 . S
H252 C284 0.928 . S
O253 Co237 2.057 . S
O253 C241 1.232 . S
H254 C273 0.929 . S
H255 C274 0.929 . S
H256 C286 0.931 . S
H257 C278 0.929 . S
H258 C287 0.930 . S
H259 C279 0.931 . S
O260 Co236 2.097 . S
O260 C288 1.214 . S
H261 C289 0.929 . S
H262 C290 0.929 . S
H263 C291 0.930 . S
H264 C292 0.929 . S
H265 C294 0.930 . S
H266 C271 0.930 . S
H267 C275 0.930 . S
O268 Co237 2.037 . S
O268 C288 1.234 . S
C269 O243 1.269 . S
C269 O244 1.257 . S
C270 H245 0.930 . S
C270 C273 1.388 . S
C270 C275 1.418 . S
C271 H266 0.930 . S
C271 C274 1.404 . S
C271 C275 1.353 . S
N272 Co237 2.145 . S
N272 C273 1.397 . S
N272 C274 1.334 . S
C273 H254 0.929 . S
C273 C270 1.388 . S
C273 N272 1.397 . S
C274 H255 0.929 . S
C274 C271 1.404 . S
C274 N272 1.334 . S
C275 H267 0.930 . S
C275 C270 1.418 . S
C275 C271 1.353 . S
C276 H246 0.930 . S
C276 N277 1.330 . S
C276 C278 1.446 . S
N277 Co236 2.151 . S
N277 C276 1.330 . S
N277 C281 1.418 . S
C278 H257 0.929 . S
C278 C276 1.446 . S
C278 C279 1.332 . S
C279 H259 0.931 . S
C279 C278 1.332 . S
C279 C280 1.267 . S
C280 H248 0.929 . S
C280 C279 1.267 . S
C280 C281 1.251 . S
C281 H251 0.929 . S
C281 N277 1.418 . S
C281 C280 1.251 . S
C282 H249 0.930 . S
C282 C284 1.406 . S
C282 C287 1.261 . S
C283 H250 0.930 . S
C283 N285 1.325 . S
C283 C286 1.357 . S
C284 H252 0.928 . S
C284 C282 1.406 . S
C284 N285 1.261 . S
N285 Co236 2.214 . S
N285 C283 1.325 . S
N285 C284 1.261 . S
C286 H256 0.931 . S
C286 C283 1.357 . S
C286 C287 1.312 . S
C287 H258 0.930 . S
C287 C282 1.261 . S
C287 C286 1.312 . S
C288 O260 1.214 . S
C288 O268 1.234 . S
C289 H261 0.929 . S
C289 C292 1.391 . S
C289 C294 1.391 . S
C290 H262 0.929 . S
C290 C291 1.390 . S
C290 N293 1.391 . S
C291 H263 0.930 . S
C291 C290 1.390 . S
C291 C292 1.392 . S
C292 H264 0.929 . S
C292 C289 1.391 . S
C292 C291 1.392 . S
N293 Co237 2.257 . S
N293 C290 1.391 . S
N293 C294 1.388 . S
C294 H265 0.930 . S
C294 C289 1.391 . S
C294 N293 1.388 . S
Co295 O297 2.143 . S
Co295 O303 2.074 . S
Co295 O306 2.093 . S
Co295 O319 2.097 . S
Co295 N336 2.151 . S
Co295 N344 2.214 . S
Co296 O297 2.160 . S
Co296 O302 2.058 . S
Co296 O312 2.057 . S
Co296 O327 2.037 . S
Co296 N331 2.145 . S
Co296 N352 2.257 . S
O297 Co295 2.143 . S
O297 Co296 2.160 . S
C298 O299 1.278 . S
C298 O306 1.224 . S
O299 C298 1.278 . S
C300 O301 1.245 . S
C300 O312 1.232 . S
O301 C300 1.245 . S
O302 Co296 2.058 . S
O302 C328 1.269 . S
O303 Co295 2.074 . S
O303 C328 1.257 . S
H304 C329 0.930 . S
H305 C335 0.930 . S
O306 Co295 2.093 . S
O306 C298 1.224 . S
H307 C339 0.929 . S
H308 C341 0.930 . S
H309 C342 0.930 . S
H310 C340 0.929 . S
H311 C343 0.928 . S
O312 Co296 2.057 . S
O312 C300 1.232 . S
H313 C332 0.929 . S
H314 C333 0.929 . S
H315 C345 0.931 . S
H316 C337 0.929 . S
H317 C346 0.930 . S
H318 C338 0.931 . S
O319 Co295 2.097 . S
O319 C347 1.214 . S
H320 C348 0.929 . S
H321 C349 0.929 . S
H322 C350 0.930 . S
H323 C351 0.929 . S
H324 C353 0.930 . S
H325 C330 0.930 . S
H326 C334 0.930 . S
O327 Co296 2.037 . S
O327 C347 1.234 . S
C328 O302 1.269 . S
C328 O303 1.257 . S
C329 H304 0.930 . S
C329 C332 1.388 . S
C329 C334 1.418 . S
C330 H325 0.930 . S
C330 C333 1.404 . S
C330 C334 1.353 . S
N331 Co296 2.145 . S
N331 C332 1.397 . S
N331 C333 1.334 . S
C332 H313 0.929 . S
C332 C329 1.388 . S
C332 N331 1.397 . S
C333 H314 0.929 . S
C333 C330 1.404 . S
C333 N331 1.334 . S
C334 H326 0.930 . S
C334 C329 1.418 . S
C334 C330 1.353 . S
C335 H305 0.930 . S
C335 N336 1.330 . S
C335 C337 1.446 . S
N336 Co295 2.151 . S
N336 C335 1.330 . S
N336 C340 1.418 . S
C337 H316 0.929 . S
C337 C335 1.446 . S
C337 C338 1.332 . S
C338 H318 0.931 . S
C338 C337 1.332 . S
C338 C339 1.267 . S
C339 H307 0.929 . S
C339 C338 1.267 . S
C339 C340 1.251 . S
C340 H310 0.929 . S
C340 N336 1.418 . S
C340 C339 1.251 . S
C341 H308 0.930 . S
C341 C343 1.406 . S
C341 C346 1.261 . S
C342 H309 0.930 . S
C342 N344 1.325 . S
C342 C345 1.357 . S
C343 H311 0.928 . S
C343 C341 1.406 . S
C343 N344 1.261 . S
N344 Co295 2.214 . S
N344 C342 1.325 . S
N344 C343 1.261 . S
C345 H315 0.931 . S
C345 C342 1.357 . S
C345 C346 1.312 . S
C346 H317 0.930 . S
C346 C341 1.261 . S
C346 C345 1.312 . S
C347 O319 1.214 . S
C347 O327 1.234 . S
C348 H320 0.929 . S
C348 C351 1.391 . S
C348 C353 1.391 . S
C349 H321 0.929 . S
C349 C350 1.390 . S
C349 N352 1.391 . S
C350 H322 0.930 . S
C350 C349 1.390 . S
C350 C351 1.392 . S
C351 H323 0.929 . S
C351 C348 1.391 . S
C351 C350 1.392 . S
N352 Co296 2.257 . S
N352 C349 1.391 . S
N352 C353 1.388 . S
C353 H324 0.930 . S
C353 C348 1.391 . S
C353 N352 1.388 . S
Co354 O356 2.143 . S
Co354 O362 2.074 . S
Co354 O365 2.093 . S
Co354 O378 2.097 . S
Co354 N395 2.151 . S
Co354 N403 2.214 . S
Co355 O356 2.160 . S
Co355 O361 2.058 . S
Co355 O371 2.057 . S
Co355 O386 2.037 . S
Co355 N390 2.145 . S
Co355 N411 2.257 . S
O356 Co354 2.143 . S
O356 Co355 2.160 . S
C357 O358 1.278 . S
C357 O365 1.224 . S
O358 C357 1.278 . S
C359 O360 1.245 . S
C359 O371 1.232 . S
O360 C359 1.245 . S
O361 Co355 2.058 . S
O361 C387 1.269 . S
O362 Co354 2.074 . S
O362 C387 1.257 . S
H363 C388 0.930 . S
H364 C394 0.930 . S
O365 Co354 2.093 . S
O365 C357 1.224 . S
H366 C398 0.929 . S
H367 C400 0.930 . S
H368 C401 0.930 . S
H369 C399 0.929 . S
H370 C402 0.928 . S
O371 Co355 2.057 . S
O371 C359 1.232 . S
H372 C391 0.929 . S
H373 C392 0.929 . S
H374 C404 0.931 . S
H375 C396 0.929 . S
H376 C405 0.930 . S
H377 C397 0.931 . S
O378 Co354 2.097 . S
O378 C406 1.214 . S
H379 C407 0.929 . S
H380 C408 0.929 . S
H381 C409 0.930 . S
H382 C410 0.929 . S
H383 C412 0.930 . S
H384 C389 0.930 . S
H385 C393 0.930 . S
O386 Co355 2.037 . S
O386 C406 1.234 . S
C387 O361 1.269 . S
C387 O362 1.257 . S
C388 H363 0.930 . S
C388 C391 1.388 . S
C388 C393 1.418 . S
C389 H384 0.930 . S
C389 C392 1.404 . S
C389 C393 1.353 . S
N390 Co355 2.145 . S
N390 C391 1.397 . S
N390 C392 1.334 . S
C391 H372 0.929 . S
C391 C388 1.388 . S
C391 N390 1.397 . S
C392 H373 0.929 . S
C392 C389 1.404 . S
C392 N390 1.334 . S
C393 H385 0.930 . S
C393 C388 1.418 . S
C393 C389 1.353 . S
C394 H364 0.930 . S
C394 N395 1.330 . S
C394 C396 1.446 . S
N395 Co354 2.151 . S
N395 C394 1.330 . S
N395 C399 1.418 . S
C396 H375 0.929 . S
C396 C394 1.446 . S
C396 C397 1.332 . S
C397 H377 0.931 . S
C397 C396 1.332 . S
C397 C398 1.267 . S
C398 H366 0.929 . S
C398 C397 1.267 . S
C398 C399 1.251 . S
C399 H369 0.929 . S
C399 N395 1.418 . S
C399 C398 1.251 . S
C400 H367 0.930 . S
C400 C402 1.406 . S
C400 C405 1.261 . S
C401 H368 0.930 . S
C401 N403 1.325 . S
C401 C404 1.357 . S
C402 H370 0.928 . S
C402 C400 1.406 . S
C402 N403 1.261 . S
N403 Co354 2.214 . S
N403 C401 1.325 . S
N403 C402 1.261 . S
C404 H374 0.931 . S
C404 C401 1.357 . S
C404 C405 1.312 . S
C405 H376 0.930 . S
C405 C400 1.261 . S
C405 C404 1.312 . S
C406 O378 1.214 . S
C406 O386 1.234 . S
C407 H379 0.929 . S
C407 C410 1.391 . S
C407 C412 1.391 . S
C408 H380 0.929 . S
C408 C409 1.390 . S
C408 N411 1.391 . S
C409 H381 0.930 . S
C409 C408 1.390 . S
C409 C410 1.392 . S
C410 H382 0.929 . S
C410 C407 1.391 . S
C410 C409 1.392 . S
N411 Co355 2.257 . S
N411 C408 1.391 . S
N411 C412 1.388 . S
C412 H383 0.930 . S
C412 C407 1.391 . S
C412 N411 1.388 . S
Co413 O415 2.143 . S
Co413 O421 2.074 . S
Co413 O424 2.093 . S
Co413 O437 2.097 . S
Co413 N454 2.151 . S
Co413 N462 2.214 . S
Co414 O415 2.160 . S
Co414 O420 2.058 . S
Co414 O430 2.057 . S
Co414 O445 2.037 . S
Co414 N449 2.145 . S
Co414 N470 2.257 . S
O415 Co413 2.143 . S
O415 Co414 2.160 . S
C416 O417 1.278 . S
C416 O424 1.224 . S
O417 C416 1.278 . S
C418 O419 1.245 . S
C418 O430 1.232 . S
O419 C418 1.245 . S
O420 Co414 2.058 . S
O420 C446 1.269 . S
O421 Co413 2.074 . S
O421 C446 1.257 . S
H422 C447 0.930 . S
H423 C453 0.930 . S
O424 Co413 2.093 . S
O424 C416 1.224 . S
H425 C457 0.929 . S
H426 C459 0.930 . S
H427 C460 0.930 . S
H428 C458 0.929 . S
H429 C461 0.928 . S
O430 Co414 2.057 . S
O430 C418 1.232 . S
H431 C450 0.929 . S
H432 C451 0.929 . S
H433 C463 0.931 . S
H434 C455 0.929 . S
H435 C464 0.930 . S
H436 C456 0.931 . S
O437 Co413 2.097 . S
O437 C465 1.214 . S
H438 C466 0.929 . S
H439 C467 0.929 . S
H440 C468 0.930 . S
H441 C469 0.929 . S
H442 C471 0.930 . S
H443 C448 0.930 . S
H444 C452 0.930 . S
O445 Co414 2.037 . S
O445 C465 1.234 . S
C446 O420 1.269 . S
C446 O421 1.257 . S
C447 H422 0.930 . S
C447 C450 1.388 . S
C447 C452 1.418 . S
C448 H443 0.930 . S
C448 C451 1.404 . S
C448 C452 1.353 . S
N449 Co414 2.145 . S
N449 C450 1.397 . S
N449 C451 1.334 . S
C450 H431 0.929 . S
C450 C447 1.388 . S
C450 N449 1.397 . S
C451 H432 0.929 . S
C451 C448 1.404 . S
C451 N449 1.334 . S
C452 H444 0.930 . S
C452 C447 1.418 . S
C452 C448 1.353 . S
C453 H423 0.930 . S
C453 N454 1.330 . S
C453 C455 1.446 . S
N454 Co413 2.151 . S
N454 C453 1.330 . S
N454 C458 1.418 . S
C455 H434 0.929 . S
C455 C453 1.446 . S
C455 C456 1.332 . S
C456 H436 0.931 . S
C456 C455 1.332 . S
C456 C457 1.267 . S
C457 H425 0.929 . S
C457 C456 1.267 . S
C457 C458 1.251 . S
C458 H428 0.929 . S
C458 N454 1.418 . S
C458 C457 1.251 . S
C459 H426 0.930 . S
C459 C461 1.406 . S
C459 C464 1.261 . S
C460 H427 0.930 . S
C460 N462 1.325 . S
C460 C463 1.357 . S
C461 H429 0.928 . S
C461 C459 1.406 . S
C461 N462 1.261 . S
N462 Co413 2.214 . S
N462 C460 1.325 . S
N462 C461 1.261 . S
C463 H433 0.931 . S
C463 C460 1.357 . S
C463 C464 1.312 . S
C464 H435 0.930 . S
C464 C459 1.261 . S
C464 C463 1.312 . S
C465 O437 1.214 . S
C465 O445 1.234 . S
C466 H438 0.929 . S
C466 C469 1.391 . S
C466 C471 1.391 . S
C467 H439 0.929 . S
C467 C468 1.390 . S
C467 N470 1.391 . S
C468 H440 0.930 . S
C468 C467 1.390 . S
C468 C469 1.392 . S
C469 H441 0.929 . S
C469 C466 1.391 . S
C469 C468 1.392 . S
N470 Co414 2.257 . S
N470 C467 1.391 . S
N470 C471 1.388 . S
C471 H442 0.930 . S
C471 C466 1.391 . S
C471 N470 1.388 . S
Co472 O474 2.143 . S
Co472 O480 2.074 . S
Co472 O483 2.093 . S
Co472 O496 2.097 . S
Co472 N513 2.151 . S
Co472 N521 2.214 . S
Co473 O474 2.160 . S
Co473 O479 2.058 . S
Co473 O489 2.057 . S
Co473 O504 2.037 . S
Co473 N508 2.145 . S
Co473 N529 2.257 . S
O474 Co472 2.143 . S
O474 Co473 2.160 . S
C475 O476 1.278 . S
C475 O483 1.224 . S
O476 C475 1.278 . S
C477 O478 1.245 . S
C477 O489 1.232 . S
O478 C477 1.245 . S
O479 Co473 2.058 . S
O479 C505 1.269 . S
O480 Co472 2.074 . S
O480 C505 1.257 . S
H481 C506 0.930 . S
H482 C512 0.930 . S
O483 Co472 2.093 . S
O483 C475 1.224 . S
H484 C516 0.929 . S
H485 C518 0.930 . S
H486 C519 0.930 . S
H487 C517 0.929 . S
H488 C520 0.928 . S
O489 Co473 2.057 . S
O489 C477 1.232 . S
H490 C509 0.929 . S
H491 C510 0.929 . S
H492 C522 0.931 . S
H493 C514 0.929 . S
H494 C523 0.930 . S
H495 C515 0.931 . S
O496 Co472 2.097 . S
O496 C524 1.214 . S
H497 C525 0.929 . S
H498 C526 0.929 . S
H499 C527 0.930 . S
H500 C528 0.929 . S
H501 C530 0.930 . S
H502 C507 0.930 . S
H503 C511 0.930 . S
O504 Co473 2.037 . S
O504 C524 1.234 . S
C505 O479 1.269 . S
C505 O480 1.257 . S
C506 H481 0.930 . S
C506 C509 1.388 . S
C506 C511 1.418 . S
C507 H502 0.930 . S
C507 C510 1.404 . S
C507 C511 1.353 . S
N508 Co473 2.145 . S
N508 C509 1.397 . S
N508 C510 1.334 . S
C509 H490 0.929 . S
C509 C506 1.388 . S
C509 N508 1.397 . S
C510 H491 0.929 . S
C510 C507 1.404 . S
C510 N508 1.334 . S
C511 H503 0.930 . S
C511 C506 1.418 . S
C511 C507 1.353 . S
C512 H482 0.930 . S
C512 N513 1.330 . S
C512 C514 1.446 . S
N513 Co472 2.151 . S
N513 C512 1.330 . S
N513 C517 1.418 . S
C514 H493 0.929 . S
C514 C512 1.446 . S
C514 C515 1.332 . S
C515 H495 0.931 . S
C515 C514 1.332 . S
C515 C516 1.267 . S
C516 H484 0.929 . S
C516 C515 1.267 . S
C516 C517 1.251 . S
C517 H487 0.929 . S
C517 N513 1.418 . S
C517 C516 1.251 . S
C518 H485 0.930 . S
C518 C520 1.406 . S
C518 C523 1.261 . S
C519 H486 0.930 . S
C519 N521 1.325 . S
C519 C522 1.357 . S
C520 H488 0.928 . S
C520 C518 1.406 . S
C520 N521 1.261 . S
N521 Co472 2.214 . S
N521 C519 1.325 . S
N521 C520 1.261 . S
C522 H492 0.931 . S
C522 C519 1.357 . S
C522 C523 1.312 . S
C523 H494 0.930 . S
C523 C518 1.261 . S
C523 C522 1.312 . S
C524 O496 1.214 . S
C524 O504 1.234 . S
C525 H497 0.929 . S
C525 C528 1.391 . S
C525 C530 1.391 . S
C526 H498 0.929 . S
C526 C527 1.390 . S
C526 N529 1.391 . S
C527 H499 0.930 . S
C527 C526 1.390 . S
C527 C528 1.392 . S
C528 H500 0.929 . S
C528 C525 1.391 . S
C528 C527 1.392 . S
N529 Co473 2.257 . S
N529 C526 1.391 . S
N529 C530 1.388 . S
C530 H501 0.930 . S
C530 C525 1.391 . S
C530 N529 1.388 . S
Co531 O533 2.143 . S
Co531 O539 2.074 . S
Co531 O542 2.093 . S
Co531 O555 2.097 . S
Co531 N572 2.151 . S
Co531 N580 2.214 . S
Co532 O533 2.160 . S
Co532 O538 2.058 . S
Co532 O548 2.057 . S
Co532 O563 2.037 . S
Co532 N567 2.145 . S
Co532 N588 2.257 . S
O533 Co531 2.143 . S
O533 Co532 2.160 . S
C534 O535 1.278 . S
C534 O542 1.224 . S
O535 C534 1.278 . S
C536 O537 1.245 . S
C536 O548 1.232 . S
O537 C536 1.245 . S
O538 Co532 2.058 . S
O538 C564 1.269 . S
O539 Co531 2.074 . S
O539 C564 1.257 . S
H540 C565 0.930 . S
H541 C571 0.930 . S
O542 Co531 2.093 . S
O542 C534 1.224 . S
H543 C575 0.929 . S
H544 C577 0.930 . S
H545 C578 0.930 . S
H546 C576 0.929 . S
H547 C579 0.928 . S
O548 Co532 2.057 . S
O548 C536 1.232 . S
H549 C568 0.929 . S
H550 C569 0.929 . S
H551 C581 0.931 . S
H552 C573 0.929 . S
H553 C582 0.930 . S
H554 C574 0.931 . S
O555 Co531 2.097 . S
O555 C583 1.214 . S
H556 C584 0.929 . S
H557 C585 0.929 . S
H558 C586 0.930 . S
H559 C587 0.929 . S
H560 C589 0.930 . S
H561 C566 0.930 . S
H562 C570 0.930 . S
O563 Co532 2.037 . S
O563 C583 1.234 . S
C564 O538 1.269 . S
C564 O539 1.257 . S
C565 H540 0.930 . S
C565 C568 1.388 . S
C565 C570 1.418 . S
C566 H561 0.930 . S
C566 C569 1.404 . S
C566 C570 1.353 . S
N567 Co532 2.145 . S
N567 C568 1.397 . S
N567 C569 1.334 . S
C568 H549 0.929 . S
C568 C565 1.388 . S
C568 N567 1.397 . S
C569 H550 0.929 . S
C569 C566 1.404 . S
C569 N567 1.334 . S
C570 H562 0.930 . S
C570 C565 1.418 . S
C570 C566 1.353 . S
C571 H541 0.930 . S
C571 N572 1.330 . S
C571 C573 1.446 . S
N572 Co531 2.151 . S
N572 C571 1.330 . S
N572 C576 1.418 . S
C573 H552 0.929 . S
C573 C571 1.446 . S
C573 C574 1.332 . S
C574 H554 0.931 . S
C574 C573 1.332 . S
C574 C575 1.267 . S
C575 H543 0.929 . S
C575 C574 1.267 . S
C575 C576 1.251 . S
C576 H546 0.929 . S
C576 N572 1.418 . S
C576 C575 1.251 . S
C577 H544 0.930 . S
C577 C579 1.406 . S
C577 C582 1.261 . S
C578 H545 0.930 . S
C578 N580 1.325 . S
C578 C581 1.357 . S
C579 H547 0.928 . S
C579 C577 1.406 . S
C579 N580 1.261 . S
N580 Co531 2.214 . S
N580 C578 1.325 . S
N580 C579 1.261 . S
C581 H551 0.931 . S
C581 C578 1.357 . S
C581 C582 1.312 . S
C582 H553 0.930 . S
C582 C577 1.261 . S
C582 C581 1.312 . S
C583 O555 1.214 . S
C583 O563 1.234 . S
C584 H556 0.929 . S
C584 C587 1.391 . S
C584 C589 1.391 . S
C585 H557 0.929 . S
C585 C586 1.390 . S
C585 N588 1.391 . S
C586 H558 0.930 . S
C586 C585 1.390 . S
C586 C587 1.392 . S
C587 H559 0.929 . S
C587 C584 1.391 . S
C587 C586 1.392 . S
N588 Co532 2.257 . S
N588 C585 1.391 . S
N588 C589 1.388 . S
C589 H560 0.930 . S
C589 C584 1.391 . S
C589 N588 1.388 . S
Co590 O592 2.143 . S
Co590 O598 2.074 . S
Co590 O601 2.093 . S
Co590 O614 2.097 . S
Co590 N631 2.151 . S
Co590 N639 2.214 . S
Co591 O592 2.160 . S
Co591 O597 2.058 . S
Co591 O607 2.057 . S
Co591 O622 2.037 . S
Co591 N626 2.145 . S
Co591 N647 2.257 . S
O592 Co590 2.143 . S
O592 Co591 2.160 . S
C593 O594 1.278 . S
C593 O601 1.224 . S
O594 C593 1.278 . S
C595 O596 1.245 . S
C595 O607 1.232 . S
O596 C595 1.245 . S
O597 Co591 2.058 . S
O597 C623 1.269 . S
O598 Co590 2.074 . S
O598 C623 1.257 . S
H599 C624 0.930 . S
H600 C630 0.930 . S
O601 Co590 2.093 . S
O601 C593 1.224 . S
H602 C634 0.929 . S
H603 C636 0.930 . S
H604 C637 0.930 . S
H605 C635 0.929 . S
H606 C638 0.928 . S
O607 Co591 2.057 . S
O607 C595 1.232 . S
H608 C627 0.929 . S
H609 C628 0.929 . S
H610 C640 0.931 . S
H611 C632 0.929 . S
H612 C641 0.930 . S
H613 C633 0.931 . S
O614 Co590 2.097 . S
O614 C642 1.214 . S
H615 C643 0.929 . S
H616 C644 0.929 . S
H617 C645 0.930 . S
H618 C646 0.929 . S
H619 C648 0.930 . S
H620 C625 0.930 . S
H621 C629 0.930 . S
O622 Co591 2.037 . S
O622 C642 1.234 . S
C623 O597 1.269 . S
C623 O598 1.257 . S
C624 H599 0.930 . S
C624 C627 1.388 . S
C624 C629 1.418 . S
C625 H620 0.930 . S
C625 C628 1.404 . S
C625 C629 1.353 . S
N626 Co591 2.145 . S
N626 C627 1.397 . S
N626 C628 1.334 . S
C627 H608 0.929 . S
C627 C624 1.388 . S
C627 N626 1.397 . S
C628 H609 0.929 . S
C628 C625 1.404 . S
C628 N626 1.334 . S
C629 H621 0.930 . S
C629 C624 1.418 . S
C629 C625 1.353 . S
C630 H600 0.930 . S
C630 N631 1.330 . S
C630 C632 1.446 . S
N631 Co590 2.151 . S
N631 C630 1.330 . S
N631 C635 1.418 . S
C632 H611 0.929 . S
C632 C630 1.446 . S
C632 C633 1.332 . S
C633 H613 0.931 . S
C633 C632 1.332 . S
C633 C634 1.267 . S
C634 H602 0.929 . S
C634 C633 1.267 . S
C634 C635 1.251 . S
C635 H605 0.929 . S
C635 N631 1.418 . S
C635 C634 1.251 . S
C636 H603 0.930 . S
C636 C638 1.406 . S
C636 C641 1.261 . S
C637 H604 0.930 . S
C637 N639 1.325 . S
C637 C640 1.357 . S
C638 H606 0.928 . S
C638 C636 1.406 . S
C638 N639 1.261 . S
N639 Co590 2.214 . S
N639 C637 1.325 . S
N639 C638 1.261 . S
C640 H610 0.931 . S
C640 C637 1.357 . S
C640 C641 1.312 . S
C641 H612 0.930 . S
C641 C636 1.261 . S
C641 C640 1.312 . S
C642 O614 1.214 . S
C642 O622 1.234 . S
C643 H615 0.929 . S
C643 C646 1.391 . S
C643 C648 1.391 . S
C644 H616 0.929 . S
C644 C645 1.390 . S
C644 N647 1.391 . S
C645 H617 0.930 . S
C645 C644 1.390 . S
C645 C646 1.392 . S
C646 H618 0.929 . S
C646 C643 1.391 . S
C646 C645 1.392 . S
N647 Co591 2.257 . S
N647 C644 1.391 . S
N647 C648 1.388 . S
C648 H619 0.930 . S
C648 C643 1.391 . S
C648 N647 1.388 . S
Co649 O651 2.143 . S
Co649 O657 2.074 . S
Co649 O660 2.093 . S
Co649 O673 2.097 . S
Co649 N690 2.151 . S
Co649 N698 2.214 . S
Co650 O651 2.160 . S
Co650 O656 2.058 . S
Co650 O666 2.057 . S
Co650 O681 2.037 . S
Co650 N685 2.145 . S
Co650 N706 2.257 . S
O651 Co649 2.143 . S
O651 Co650 2.160 . S
C652 O653 1.278 . S
C652 O660 1.224 . S
O653 C652 1.278 . S
C654 O655 1.245 . S
C654 O666 1.232 . S
O655 C654 1.245 . S
O656 Co650 2.058 . S
O656 C682 1.269 . S
O657 Co649 2.074 . S
O657 C682 1.257 . S
H658 C683 0.930 . S
H659 C689 0.930 . S
O660 Co649 2.093 . S
O660 C652 1.224 . S
H661 C693 0.929 . S
H662 C695 0.930 . S
H663 C696 0.930 . S
H664 C694 0.929 . S
H665 C697 0.928 . S
O666 Co650 2.057 . S
O666 C654 1.232 . S
H667 C686 0.929 . S
H668 C687 0.929 . S
H669 C699 0.931 . S
H670 C691 0.929 . S
H671 C700 0.930 . S
H672 C692 0.931 . S
O673 Co649 2.097 . S
O673 C701 1.214 . S
H674 C702 0.929 . S
H675 C703 0.929 . S
H676 C704 0.930 . S
H677 C705 0.929 . S
H678 C707 0.930 . S
H679 C684 0.930 . S
H680 C688 0.930 . S
O681 Co650 2.037 . S
O681 C701 1.234 . S
C682 O656 1.269 . S
C682 O657 1.257 . S
C683 H658 0.930 . S
C683 C686 1.388 . S
C683 C688 1.418 . S
C684 H679 0.930 . S
C684 C687 1.404 . S
C684 C688 1.353 . S
N685 Co650 2.145 . S
N685 C686 1.397 . S
N685 C687 1.334 . S
C686 H667 0.929 . S
C686 C683 1.388 . S
C686 N685 1.397 . S
C687 H668 0.929 . S
C687 C684 1.404 . S
C687 N685 1.334 . S
C688 H680 0.930 . S
C688 C683 1.418 . S
C688 C684 1.353 . S
C689 H659 0.930 . S
C689 N690 1.330 . S
C689 C691 1.446 . S
N690 Co649 2.151 . S
N690 C689 1.330 . S
N690 C694 1.418 . S
C691 H670 0.929 . S
C691 C689 1.446 . S
C691 C692 1.332 . S
C692 H672 0.931 . S
C692 C691 1.332 . S
C692 C693 1.267 . S
C693 H661 0.929 . S
C693 C692 1.267 . S
C693 C694 1.251 . S
C694 H664 0.929 . S
C694 N690 1.418 . S
C694 C693 1.251 . S
C695 H662 0.930 . S
C695 C697 1.406 . S
C695 C700 1.261 . S
C696 H663 0.930 . S
C696 N698 1.325 . S
C696 C699 1.357 . S
C697 H665 0.928 . S
C697 C695 1.406 . S
C697 N698 1.261 . S
N698 Co649 2.214 . S
N698 C696 1.325 . S
N698 C697 1.261 . S
C699 H669 0.931 . S
C699 C696 1.357 . S
C699 C700 1.312 . S
C700 H671 0.930 . S
C700 C695 1.261 . S
C700 C699 1.312 . S
C701 O673 1.214 . S
C701 O681 1.234 . S
C702 H674 0.929 . S
C702 C705 1.391 . S
C702 C707 1.391 . S
C703 H675 0.929 . S
C703 C704 1.390 . S
C703 N706 1.391 . S
C704 H676 0.930 . S
C704 C703 1.390 . S
C704 C705 1.392 . S
C705 H677 0.929 . S
C705 C702 1.391 . S
C705 C704 1.392 . S
N706 Co650 2.257 . S
N706 C703 1.391 . S
N706 C707 1.388 . S
C707 H678 0.930 . S
C707 C702 1.391 . S
C707 N706 1.388 . S
Co708 O710 2.143 . S
Co708 O716 2.074 . S
Co708 O719 2.093 . S
Co708 O732 2.097 . S
Co708 N749 2.151 . S
Co708 N757 2.214 . S
Co709 O710 2.160 . S
Co709 O715 2.058 . S
Co709 O725 2.057 . S
Co709 O740 2.037 . S
Co709 N744 2.145 . S
Co709 N765 2.257 . S
O710 Co708 2.143 . S
O710 Co709 2.160 . S
C711 O712 1.278 . S
C711 O719 1.224 . S
O712 C711 1.278 . S
C713 O714 1.245 . S
C713 O725 1.232 . S
O714 C713 1.245 . S
O715 Co709 2.058 . S
O715 C741 1.269 . S
O716 Co708 2.074 . S
O716 C741 1.257 . S
H717 C742 0.930 . S
H718 C748 0.930 . S
O719 Co708 2.093 . S
O719 C711 1.224 . S
H720 C752 0.929 . S
H721 C754 0.930 . S
H722 C755 0.930 . S
H723 C753 0.929 . S
H724 C756 0.928 . S
O725 Co709 2.057 . S
O725 C713 1.232 . S
H726 C745 0.929 . S
H727 C746 0.929 . S
H728 C758 0.931 . S
H729 C750 0.929 . S
H730 C759 0.930 . S
H731 C751 0.931 . S
O732 Co708 2.097 . S
O732 C760 1.214 . S
H733 C761 0.929 . S
H734 C762 0.929 . S
H735 C763 0.930 . S
H736 C764 0.929 . S
H737 C766 0.930 . S
H738 C743 0.930 . S
H739 C747 0.930 . S
O740 Co709 2.037 . S
O740 C760 1.234 . S
C741 O715 1.269 . S
C741 O716 1.257 . S
C742 H717 0.930 . S
C742 C745 1.388 . S
C742 C747 1.418 . S
C743 H738 0.930 . S
C743 C746 1.404 . S
C743 C747 1.353 . S
N744 Co709 2.145 . S
N744 C745 1.397 . S
N744 C746 1.334 . S
C745 H726 0.929 . S
C745 C742 1.388 . S
C745 N744 1.397 . S
C746 H727 0.929 . S
C746 C743 1.404 . S
C746 N744 1.334 . S
C747 H739 0.930 . S
C747 C742 1.418 . S
C747 C743 1.353 . S
C748 H718 0.930 . S
C748 N749 1.330 . S
C748 C750 1.446 . S
N749 Co708 2.151 . S
N749 C748 1.330 . S
N749 C753 1.418 . S
C750 H729 0.929 . S
C750 C748 1.446 . S
C750 C751 1.332 . S
C751 H731 0.931 . S
C751 C750 1.332 . S
C751 C752 1.267 . S
C752 H720 0.929 . S
C752 C751 1.267 . S
C752 C753 1.251 . S
C753 H723 0.929 . S
C753 N749 1.418 . S
C753 C752 1.251 . S
C754 H721 0.930 . S
C754 C756 1.406 . S
C754 C759 1.261 . S
C755 H722 0.930 . S
C755 N757 1.325 . S
C755 C758 1.357 . S
C756 H724 0.928 . S
C756 C754 1.406 . S
C756 N757 1.261 . S
N757 Co708 2.214 . S
N757 C755 1.325 . S
N757 C756 1.261 . S
C758 H728 0.931 . S
C758 C755 1.357 . S
C758 C759 1.312 . S
C759 H730 0.930 . S
C759 C754 1.261 . S
C759 C758 1.312 . S
C760 O732 1.214 . S
C760 O740 1.234 . S
C761 H733 0.929 . S
C761 C764 1.391 . S
C761 C766 1.391 . S
C762 H734 0.929 . S
C762 C763 1.390 . S
C762 N765 1.391 . S
C763 H735 0.930 . S
C763 C762 1.390 . S
C763 C764 1.392 . S
C764 H736 0.929 . S
C764 C761 1.391 . S
C764 C763 1.392 . S
N765 Co709 2.257 . S
N765 C762 1.391 . S
N765 C766 1.388 . S
C766 H737 0.930 . S
C766 C761 1.391 . S
C766 N765 1.388 . S
Co767 O769 2.143 . S
Co767 O775 2.074 . S
Co767 O778 2.093 . S
Co767 O791 2.097 . S
Co767 N808 2.151 . S
Co767 N816 2.214 . S
Co768 O769 2.160 . S
Co768 O774 2.058 . S
Co768 O784 2.057 . S
Co768 O799 2.037 . S
Co768 N803 2.145 . S
Co768 N824 2.257 . S
O769 Co767 2.143 . S
O769 Co768 2.160 . S
C770 O771 1.278 . S
C770 O778 1.224 . S
O771 C770 1.278 . S
C772 O773 1.245 . S
C772 O784 1.232 . S
O773 C772 1.245 . S
O774 Co768 2.058 . S
O774 C800 1.269 . S
O775 Co767 2.074 . S
O775 C800 1.257 . S
H776 C801 0.930 . S
H777 C807 0.930 . S
O778 Co767 2.093 . S
O778 C770 1.224 . S
H779 C811 0.929 . S
H780 C813 0.930 . S
H781 C814 0.930 . S
H782 C812 0.929 . S
H783 C815 0.928 . S
O784 Co768 2.057 . S
O784 C772 1.232 . S
H785 C804 0.929 . S
H786 C805 0.929 . S
H787 C817 0.931 . S
H788 C809 0.929 . S
H789 C818 0.930 . S
H790 C810 0.931 . S
O791 Co767 2.097 . S
O791 C819 1.214 . S
H792 C820 0.929 . S
H793 C821 0.929 . S
H794 C822 0.930 . S
H795 C823 0.929 . S
H796 C825 0.930 . S
H797 C802 0.930 . S
H798 C806 0.930 . S
O799 Co768 2.037 . S
O799 C819 1.234 . S
C800 O774 1.269 . S
C800 O775 1.257 . S
C801 H776 0.930 . S
C801 C804 1.388 . S
C801 C806 1.418 . S
C802 H797 0.930 . S
C802 C805 1.404 . S
C802 C806 1.353 . S
N803 Co768 2.145 . S
N803 C804 1.397 . S
N803 C805 1.334 . S
C804 H785 0.929 . S
C804 C801 1.388 . S
C804 N803 1.397 . S
C805 H786 0.929 . S
C805 C802 1.404 . S
C805 N803 1.334 . S
C806 H798 0.930 . S
C806 C801 1.418 . S
C806 C802 1.353 . S
C807 H777 0.930 . S
C807 N808 1.330 . S
C807 C809 1.446 . S
N808 Co767 2.151 . S
N808 C807 1.330 . S
N808 C812 1.418 . S
C809 H788 0.929 . S
C809 C807 1.446 . S
C809 C810 1.332 . S
C810 H790 0.931 . S
C810 C809 1.332 . S
C810 C811 1.267 . S
C811 H779 0.929 . S
C811 C810 1.267 . S
C811 C812 1.251 . S
C812 H782 0.929 . S
C812 N808 1.418 . S
C812 C811 1.251 . S
C813 H780 0.930 . S
C813 C815 1.406 . S
C813 C818 1.261 . S
C814 H781 0.930 . S
C814 N816 1.325 . S
C814 C817 1.357 . S
C815 H783 0.928 . S
C815 C813 1.406 . S
C815 N816 1.261 . S
N816 Co767 2.214 . S
N816 C814 1.325 . S
N816 C815 1.261 . S
C817 H787 0.931 . S
C817 C814 1.357 . S
C817 C818 1.312 . S
C818 H789 0.930 . S
C818 C813 1.261 . S
C818 C817 1.312 . S
C819 O791 1.214 . S
C819 O799 1.234 . S
C820 H792 0.929 . S
C820 C823 1.391 . S
C820 C825 1.391 . S
C821 H793 0.929 . S
C821 C822 1.390 . S
C821 N824 1.391 . S
C822 H794 0.930 . S
C822 C821 1.390 . S
C822 C823 1.392 . S
C823 H795 0.929 . S
C823 C820 1.391 . S
C823 C822 1.392 . S
N824 Co768 2.257 . S
N824 C821 1.391 . S
N824 C825 1.388 . S
C825 H796 0.930 . S
C825 C820 1.391 . S
C825 N824 1.388 . S
Co826 O828 2.143 . S
Co826 O834 2.074 . S
Co826 O837 2.093 . S
Co826 O850 2.097 . S
Co826 N867 2.151 . S
Co826 N875 2.214 . S
Co827 O828 2.160 . S
Co827 O833 2.058 . S
Co827 O843 2.057 . S
Co827 O858 2.037 . S
Co827 N862 2.145 . S
Co827 N883 2.257 . S
O828 Co826 2.143 . S
O828 Co827 2.160 . S
C829 O830 1.278 . S
C829 O837 1.224 . S
O830 C829 1.278 . S
C831 O832 1.245 . S
C831 O843 1.232 . S
O832 C831 1.245 . S
O833 Co827 2.058 . S
O833 C859 1.269 . S
O834 Co826 2.074 . S
O834 C859 1.257 . S
H835 C860 0.930 . S
H836 C866 0.930 . S
O837 Co826 2.093 . S
O837 C829 1.224 . S
H838 C870 0.929 . S
H839 C872 0.930 . S
H840 C873 0.930 . S
H841 C871 0.929 . S
H842 C874 0.928 . S
O843 Co827 2.057 . S
O843 C831 1.232 . S
H844 C863 0.929 . S
H845 C864 0.929 . S
H846 C876 0.931 . S
H847 C868 0.929 . S
H848 C877 0.930 . S
H849 C869 0.931 . S
O850 Co826 2.097 . S
O850 C878 1.214 . S
H851 C879 0.929 . S
H852 C880 0.929 . S
H853 C881 0.930 . S
H854 C882 0.929 . S
H855 C884 0.930 . S
H856 C861 0.930 . S
H857 C865 0.930 . S
O858 Co827 2.037 . S
O858 C878 1.234 . S
C859 O833 1.269 . S
C859 O834 1.257 . S
C860 H835 0.930 . S
C860 C863 1.388 . S
C860 C865 1.418 . S
C861 H856 0.930 . S
C861 C864 1.404 . S
C861 C865 1.353 . S
N862 Co827 2.145 . S
N862 C863 1.397 . S
N862 C864 1.334 . S
C863 H844 0.929 . S
C863 C860 1.388 . S
C863 N862 1.397 . S
C864 H845 0.929 . S
C864 C861 1.404 . S
C864 N862 1.334 . S
C865 H857 0.930 . S
C865 C860 1.418 . S
C865 C861 1.353 . S
C866 H836 0.930 . S
C866 N867 1.330 . S
C866 C868 1.446 . S
N867 Co826 2.151 . S
N867 C866 1.330 . S
N867 C871 1.418 . S
C868 H847 0.929 . S
C868 C866 1.446 . S
C868 C869 1.332 . S
C869 H849 0.931 . S
C869 C868 1.332 . S
C869 C870 1.267 . S
C870 H838 0.929 . S
C870 C869 1.267 . S
C870 C871 1.251 . S
C871 H841 0.929 . S
C871 N867 1.418 . S
C871 C870 1.251 . S
C872 H839 0.930 . S
C872 C874 1.406 . S
C872 C877 1.261 . S
C873 H840 0.930 . S
C873 N875 1.325 . S
C873 C876 1.357 . S
C874 H842 0.928 . S
C874 C872 1.406 . S
C874 N875 1.261 . S
N875 Co826 2.214 . S
N875 C873 1.325 . S
N875 C874 1.261 . S
C876 H846 0.931 . S
C876 C873 1.357 . S
C876 C877 1.312 . S
C877 H848 0.930 . S
C877 C872 1.261 . S
C877 C876 1.312 . S
C878 O850 1.214 . S
C878 O858 1.234 . S
C879 H851 0.929 . S
C879 C882 1.391 . S
C879 C884 1.391 . S
C880 H852 0.929 . S
C880 C881 1.390 . S
C880 N883 1.391 . S
C881 H853 0.930 . S
C881 C880 1.390 . S
C881 C882 1.392 . S
C882 H854 0.929 . S
C882 C879 1.391 . S
C882 C881 1.392 . S
N883 Co827 2.257 . S
N883 C880 1.391 . S
N883 C884 1.388 . S
C884 H855 0.930 . S
C884 C879 1.391 . S
C884 N883 1.388 . S
Co885 O887 2.143 . S
Co885 O893 2.074 . S
Co885 O896 2.093 . S
Co885 O909 2.097 . S
Co885 N926 2.151 . S
Co885 N934 2.214 . S
Co886 O887 2.160 . S
Co886 O892 2.058 . S
Co886 O902 2.057 . S
Co886 O917 2.037 . S
Co886 N921 2.145 . S
Co886 N942 2.257 . S
O887 Co885 2.143 . S
O887 Co886 2.160 . S
C888 O889 1.278 . S
C888 O896 1.224 . S
O889 C888 1.278 . S
C890 O891 1.245 . S
C890 O902 1.232 . S
O891 C890 1.245 . S
O892 Co886 2.058 . S
O892 C918 1.269 . S
O893 Co885 2.074 . S
O893 C918 1.257 . S
H894 C919 0.930 . S
H895 C925 0.930 . S
O896 Co885 2.093 . S
O896 C888 1.224 . S
H897 C929 0.929 . S
H898 C931 0.930 . S
H899 C932 0.930 . S
H900 C930 0.929 . S
H901 C933 0.928 . S
O902 Co886 2.057 . S
O902 C890 1.232 . S
H903 C922 0.929 . S
H904 C923 0.929 . S
H905 C935 0.931 . S
H906 C927 0.929 . S
H907 C936 0.930 . S
H908 C928 0.931 . S
O909 Co885 2.097 . S
O909 C937 1.214 . S
H910 C938 0.929 . S
H911 C939 0.929 . S
H912 C940 0.930 . S
H913 C941 0.929 . S
H914 C943 0.930 . S
H915 C920 0.930 . S
H916 C924 0.930 . S
O917 Co886 2.037 . S
O917 C937 1.234 . S
C918 O892 1.269 . S
C918 O893 1.257 . S
C919 H894 0.930 . S
C919 C922 1.388 . S
C919 C924 1.418 . S
C920 H915 0.930 . S
C920 C923 1.404 . S
C920 C924 1.353 . S
N921 Co886 2.145 . S
N921 C922 1.397 . S
N921 C923 1.334 . S
C922 H903 0.929 . S
C922 C919 1.388 . S
C922 N921 1.397 . S
C923 H904 0.929 . S
C923 C920 1.404 . S
C923 N921 1.334 . S
C924 H916 0.930 . S
C924 C919 1.418 . S
C924 C920 1.353 . S
C925 H895 0.930 . S
C925 N926 1.330 . S
C925 C927 1.446 . S
N926 Co885 2.151 . S
N926 C925 1.330 . S
N926 C930 1.418 . S
C927 H906 0.929 . S
C927 C925 1.446 . S
C927 C928 1.332 . S
C928 H908 0.931 . S
C928 C927 1.332 . S
C928 C929 1.267 . S
C929 H897 0.929 . S
C929 C928 1.267 . S
C929 C930 1.251 . S
C930 H900 0.929 . S
C930 N926 1.418 . S
C930 C929 1.251 . S
C931 H898 0.930 . S
C931 C933 1.406 . S
C931 C936 1.261 . S
C932 H899 0.930 . S
C932 N934 1.325 . S
C932 C935 1.357 . S
C933 H901 0.928 . S
C933 C931 1.406 . S
C933 N934 1.261 . S
N934 Co885 2.214 . S
N934 C932 1.325 . S
N934 C933 1.261 . S
C935 H905 0.931 . S
C935 C932 1.357 . S
C935 C936 1.312 . S
C936 H907 0.930 . S
C936 C931 1.261 . S
C936 C935 1.312 . S
C937 O909 1.214 . S
C937 O917 1.234 . S
C938 H910 0.929 . S
C938 C941 1.391 . S
C938 C943 1.391 . S
C939 H911 0.929 . S
C939 C940 1.390 . S
C939 N942 1.391 . S
C940 H912 0.930 . S
C940 C939 1.390 . S
C940 C941 1.392 . S
C941 H913 0.929 . S
C941 C938 1.391 . S
C941 C940 1.392 . S
N942 Co886 2.257 . S
N942 C939 1.391 . S
N942 C943 1.388 . S
C943 H914 0.930 . S
C943 C938 1.391 . S
C943 N942 1.388 . S
C944 C945 1.349 . S
C944 C946 1.327 . S
C944 H969 0.950 . S
C945 C944 1.349 . S
C945 C961 1.349 . S
C946 C944 1.327 . S
C946 C965 1.429 . S
C946 H970 0.950 . S
C947 C964 1.574 . S
C947 C966 1.368 . S
C947 H971 0.949 . S
H948 C952 0.949 . S
C949 C950 1.349 . S
C949 C951 1.327 . S
C949 H972 0.950 . S
C950 C949 1.349 . S
C950 C962 1.349 . S
C951 C949 1.327 . S
C951 C967 1.429 . S
C951 H973 0.950 . S
C952 H948 0.949 . S
C952 C960 1.574 . S
C952 C968 1.368 . S
H953 C961 0.950 . S
H954 C959 0.950 . S
H955 C960 0.949 . S
H956 C962 0.950 . S
H957 C963 0.950 . S
H958 C964 0.949 . S
C959 H954 0.950 . S
C959 C961 1.327 . S
C959 C965 1.429 . S
C960 C952 1.574 . S
C960 H955 0.949 . S
C960 C966 1.368 . S
C961 C945 1.349 . S
C961 H953 0.950 . S
C961 C959 1.327 . S
C962 C950 1.349 . S
C962 H956 0.950 . S
C962 C963 1.327 . S
C963 H957 0.950 . S
C963 C962 1.327 . S
C963 C967 1.429 . S
C964 C947 1.574 . S
C964 H958 0.949 . S
C964 C968 1.368 . S
C965 C946 1.429 . S
C965 C959 1.429 . S
C965 C966 1.523 . S
C966 C947 1.368 . S
C966 C960 1.368 . S
C966 C965 1.523 . S
C967 C951 1.429 . S
C967 C963 1.429 . S
C967 C968 1.523 . S
C968 C952 1.368 . S
C968 C964 1.368 . S
C968 C967 1.523 . S
H969 C944 0.950 . S
H970 C946 0.950 . S
H971 C947 0.949 . S
H972 C949 0.950 . S
H973 C951 0.950 . S
C974 C975 1.349 . S
C974 C976 1.327 . S
C974 H999 0.950 . S
C975 C974 1.349 . S
C975 C991 1.349 . S
C976 C974 1.327 . S
C976 C995 1.429 . S
C976 H1000 0.950 . S
C977 C994 1.574 . S
C977 C996 1.368 . S
C977 H1001 0.949 . S
H978 C982 0.949 . S
C979 C980 1.349 . S
C979 C981 1.327 . S
C979 H1002 0.950 . S
C980 C979 1.349 . S
C980 C992 1.349 . S
C981 C979 1.327 . S
C981 C997 1.429 . S
C981 H1003 0.950 . S
C982 H978 0.949 . S
C982 C990 1.574 . S
C982 C998 1.368 . S
H983 C991 0.950 . S
H984 C989 0.950 . S
H985 C990 0.949 . S
H986 C992 0.950 . S
H987 C993 0.950 . S
H988 C994 0.949 . S
C989 H984 0.950 . S
C989 C991 1.327 . S
C989 C995 1.429 . S
C990 C982 1.574 . S
C990 H985 0.949 . S
C990 C996 1.368 . S
C991 C975 1.349 . S
C991 H983 0.950 . S
C991 C989 1.327 . S
C992 C980 1.349 . S
C992 H986 0.950 . S
C992 C993 1.327 . S
C993 H987 0.950 . S
C993 C992 1.327 . S
C993 C997 1.429 . S
C994 C977 1.574 . S
C994 H988 0.949 . S
C994 C998 1.368 . S
C995 C976 1.429 . S
C995 C989 1.429 . S
C995 C996 1.523 . S
C996 C977 1.368 . S
C996 C990 1.368 . S
C996 C995 1.523 . S
C997 C981 1.429 . S
C997 C993 1.429 . S
C997 C998 1.523 . S
C998 C982 1.368 . S
C998 C994 1.368 . S
C998 C997 1.523 . S
H999 C974 0.950 . S
H1000 C976 0.950 . S
H1001 C977 0.949 . S
H1002 C979 0.950 . S
H1003 C981 0.950 . S
C1004 C1005 1.349 . S
C1004 C1006 1.327 . S
C1004 H1029 0.950 . S
C1005 C1004 1.349 . S
C1005 C1021 1.349 . S
C1006 C1004 1.327 . S
C1006 C1025 1.429 . S
C1006 H1030 0.950 . S
C1007 C1024 1.574 . S
C1007 C1026 1.368 . S
C1007 H1031 0.949 . S
H1008 C1012 0.949 . S
C1009 C1010 1.349 . S
C1009 C1011 1.327 . S
C1009 H1032 0.950 . S
C1010 C1009 1.349 . S
C1010 C1022 1.349 . S
C1011 C1009 1.327 . S
C1011 C1027 1.429 . S
C1011 H1033 0.950 . S
C1012 H1008 0.949 . S
C1012 C1020 1.574 . S
C1012 C1028 1.368 . S
H1013 C1021 0.950 . S
H1014 C1019 0.950 . S
H1015 C1020 0.949 . S
H1016 C1022 0.950 . S
H1017 C1023 0.950 . S
H1018 C1024 0.949 . S
C1019 H1014 0.950 . S
C1019 C1021 1.327 . S
C1019 C1025 1.429 . S
C1020 C1012 1.574 . S
C1020 H1015 0.949 . S
C1020 C1026 1.368 . S
C1021 C1005 1.349 . S
C1021 H1013 0.950 . S
C1021 C1019 1.327 . S
C1022 C1010 1.349 . S
C1022 H1016 0.950 . S
C1022 C1023 1.327 . S
C1023 H1017 0.950 . S
C1023 C1022 1.327 . S
C1023 C1027 1.429 . S
C1024 C1007 1.574 . S
C1024 H1018 0.949 . S
C1024 C1028 1.368 . S
C1025 C1006 1.429 . S
C1025 C1019 1.429 . S
C1025 C1026 1.523 . S
C1026 C1007 1.368 . S
C1026 C1020 1.368 . S
C1026 C1025 1.523 . S
C1027 C1011 1.429 . S
C1027 C1023 1.429 . S
C1027 C1028 1.523 . S
C1028 C1012 1.368 . S
C1028 C1024 1.368 . S
C1028 C1027 1.523 . S
H1029 C1004 0.950 . S
H1030 C1006 0.950 . S
H1031 C1007 0.949 . S
H1032 C1009 0.950 . S
H1033 C1011 0.950 . S
C1034 C1035 1.349 . S
C1034 C1036 1.327 . S
C1034 H1059 0.950 . S
C1035 C1034 1.349 . S
C1035 C1051 1.349 . S
C1036 C1034 1.327 . S
C1036 C1055 1.429 . S
C1036 H1060 0.950 . S
C1037 C1054 1.574 . S
C1037 C1056 1.368 . S
C1037 H1061 0.949 . S
H1038 C1042 0.949 . S
C1039 C1040 1.349 . S
C1039 C1041 1.327 . S
C1039 H1062 0.950 . S
C1040 C1039 1.349 . S
C1040 C1052 1.349 . S
C1041 C1039 1.327 . S
C1041 C1057 1.429 . S
C1041 H1063 0.950 . S
C1042 H1038 0.949 . S
C1042 C1050 1.574 . S
C1042 C1058 1.368 . S
H1043 C1051 0.950 . S
H1044 C1049 0.950 . S
H1045 C1050 0.949 . S
H1046 C1052 0.950 . S
H1047 C1053 0.950 . S
H1048 C1054 0.949 . S
C1049 H1044 0.950 . S
C1049 C1051 1.327 . S
C1049 C1055 1.429 . S
C1050 C1042 1.574 . S
C1050 H1045 0.949 . S
C1050 C1056 1.368 . S
C1051 C1035 1.349 . S
C1051 H1043 0.950 . S
C1051 C1049 1.327 . S
C1052 C1040 1.349 . S
C1052 H1046 0.950 . S
C1052 C1053 1.327 . S
C1053 H1047 0.950 . S
C1053 C1052 1.327 . S
C1053 C1057 1.429 . S
C1054 C1037 1.574 . S
C1054 H1048 0.949 . S
C1054 C1058 1.368 . S
C1055 C1036 1.429 . S
C1055 C1049 1.429 . S
C1055 C1056 1.523 . S
C1056 C1037 1.368 . S
C1056 C1050 1.368 . S
C1056 C1055 1.523 . S
C1057 C1041 1.429 . S
C1057 C1053 1.429 . S
C1057 C1058 1.523 . S
C1058 C1042 1.368 . S
C1058 C1054 1.368 . S
C1058 C1057 1.523 . S
H1059 C1034 0.950 . S
H1060 C1036 0.950 . S
H1061 C1037 0.949 . S
H1062 C1039 0.950 . S
H1063 C1041 0.950 . S
C1064 C1065 1.349 . S
C1064 C1066 1.327 . S
C1064 H1089 0.950 . S
C1065 C1064 1.349 . S
C1065 C1081 1.349 . S
C1066 C1064 1.327 . S
C1066 C1085 1.429 . S
C1066 H1090 0.950 . S
C1067 C1084 1.574 . S
C1067 C1086 1.368 . S
C1067 H1091 0.949 . S
H1068 C1072 0.949 . S
C1069 C1070 1.349 . S
C1069 C1071 1.327 . S
C1069 H1092 0.950 . S
C1070 C1069 1.349 . S
C1070 C1082 1.349 . S
C1071 C1069 1.327 . S
C1071 C1087 1.429 . S
C1071 H1093 0.950 . S
C1072 H1068 0.949 . S
C1072 C1080 1.574 . S
C1072 C1088 1.368 . S
H1073 C1081 0.950 . S
H1074 C1079 0.950 . S
H1075 C1080 0.949 . S
H1076 C1082 0.950 . S
H1077 C1083 0.950 . S
H1078 C1084 0.949 . S
C1079 H1074 0.950 . S
C1079 C1081 1.327 . S
C1079 C1085 1.429 . S
C1080 C1072 1.574 . S
C1080 H1075 0.949 . S
C1080 C1086 1.368 . S
C1081 C1065 1.349 . S
C1081 H1073 0.950 . S
C1081 C1079 1.327 . S
C1082 C1070 1.349 . S
C1082 H1076 0.950 . S
C1082 C1083 1.327 . S
C1083 H1077 0.950 . S
C1083 C1082 1.327 . S
C1083 C1087 1.429 . S
C1084 C1067 1.574 . S
C1084 H1078 0.949 . S
C1084 C1088 1.368 . S
C1085 C1066 1.429 . S
C1085 C1079 1.429 . S
C1085 C1086 1.523 . S
C1086 C1067 1.368 . S
C1086 C1080 1.368 . S
C1086 C1085 1.523 . S
C1087 C1071 1.429 . S
C1087 C1083 1.429 . S
C1087 C1088 1.523 . S
C1088 C1072 1.368 . S
C1088 C1084 1.368 . S
C1088 C1087 1.523 . S
H1089 C1064 0.950 . S
H1090 C1066 0.950 . S
H1091 C1067 0.949 . S
H1092 C1069 0.950 . S
H1093 C1071 0.950 . S
C1094 C1095 1.349 . S
C1094 C1096 1.327 . S
C1094 H1119 0.950 . S
C1095 C1094 1.349 . S
C1095 C1111 1.349 . S
C1096 C1094 1.327 . S
C1096 C1115 1.429 . S
C1096 H1120 0.950 . S
C1097 C1114 1.574 . S
C1097 C1116 1.368 . S
C1097 H1121 0.949 . S
H1098 C1102 0.949 . S
C1099 C1100 1.349 . S
C1099 C1101 1.327 . S
C1099 H1122 0.950 . S
C1100 C1099 1.349 . S
C1100 C1112 1.349 . S
C1101 C1099 1.327 . S
C1101 C1117 1.429 . S
C1101 H1123 0.950 . S
C1102 H1098 0.949 . S
C1102 C1110 1.574 . S
C1102 C1118 1.368 . S
H1103 C1111 0.950 . S
H1104 C1109 0.950 . S
H1105 C1110 0.949 . S
H1106 C1112 0.950 . S
H1107 C1113 0.950 . S
H1108 C1114 0.949 . S
C1109 H1104 0.950 . S
C1109 C1111 1.327 . S
C1109 C1115 1.429 . S
C1110 C1102 1.574 . S
C1110 H1105 0.949 . S
C1110 C1116 1.368 . S
C1111 C1095 1.349 . S
C1111 H1103 0.950 . S
C1111 C1109 1.327 . S
C1112 C1100 1.349 . S
C1112 H1106 0.950 . S
C1112 C1113 1.327 . S
C1113 H1107 0.950 . S
C1113 C1112 1.327 . S
C1113 C1117 1.429 . S
C1114 C1097 1.574 . S
C1114 H1108 0.949 . S
C1114 C1118 1.368 . S
C1115 C1096 1.429 . S
C1115 C1109 1.429 . S
C1115 C1116 1.523 . S
C1116 C1097 1.368 . S
C1116 C1110 1.368 . S
C1116 C1115 1.523 . S
C1117 C1101 1.429 . S
C1117 C1113 1.429 . S
C1117 C1118 1.523 . S
C1118 C1102 1.368 . S
C1118 C1114 1.368 . S
C1118 C1117 1.523 . S
H1119 C1094 0.950 . S
H1120 C1096 0.950 . S
H1121 C1097 0.949 . S
H1122 C1099 0.950 . S
H1123 C1101 0.950 . S
C1124 C1125 1.349 . S
C1124 C1126 1.327 . S
C1124 H1149 0.950 . S
C1125 C1124 1.349 . S
C1125 C1141 1.349 . S
C1126 C1124 1.327 . S
C1126 C1145 1.429 . S
C1126 H1150 0.950 . S
C1127 C1144 1.574 . S
C1127 C1146 1.368 . S
C1127 H1151 0.949 . S
H1128 C1132 0.949 . S
C1129 C1130 1.349 . S
C1129 C1131 1.327 . S
C1129 H1152 0.950 . S
C1130 C1129 1.349 . S
C1130 C1142 1.349 . S
C1131 C1129 1.327 . S
C1131 C1147 1.429 . S
C1131 H1153 0.950 . S
C1132 H1128 0.949 . S
C1132 C1140 1.574 . S
C1132 C1148 1.368 . S
H1133 C1141 0.950 . S
H1134 C1139 0.950 . S
H1135 C1140 0.949 . S
H1136 C1142 0.950 . S
H1137 C1143 0.950 . S
H1138 C1144 0.949 . S
C1139 H1134 0.950 . S
C1139 C1141 1.327 . S
C1139 C1145 1.429 . S
C1140 C1132 1.574 . S
C1140 H1135 0.949 . S
C1140 C1146 1.368 . S
C1141 C1125 1.349 . S
C1141 H1133 0.950 . S
C1141 C1139 1.327 . S
C1142 C1130 1.349 . S
C1142 H1136 0.950 . S
C1142 C1143 1.327 . S
C1143 H1137 0.950 . S
C1143 C1142 1.327 . S
C1143 C1147 1.429 . S
C1144 C1127 1.574 . S
C1144 H1138 0.949 . S
C1144 C1148 1.368 . S
C1145 C1126 1.429 . S
C1145 C1139 1.429 . S
C1145 C1146 1.523 . S
C1146 C1127 1.368 . S
C1146 C1140 1.368 . S
C1146 C1145 1.523 . S
C1147 C1131 1.429 . S
C1147 C1143 1.429 . S
C1147 C1148 1.523 . S
C1148 C1132 1.368 . S
C1148 C1144 1.368 . S
C1148 C1147 1.523 . S
H1149 C1124 0.950 . S
H1150 C1126 0.950 . S
H1151 C1127 0.949 . S
H1152 C1129 0.950 . S
H1153 C1131 0.950 . S
C1154 C1155 1.349 . S
C1154 C1156 1.327 . S
C1154 H1179 0.950 . S
C1155 C1154 1.349 . S
C1155 C1171 1.349 . S
C1156 C1154 1.327 . S
C1156 C1175 1.429 . S
C1156 H1180 0.950 . S
C1157 C1174 1.574 . S
C1157 C1176 1.368 . S
C1157 H1181 0.949 . S
H1158 C1162 0.949 . S
C1159 C1160 1.349 . S
C1159 C1161 1.327 . S
C1159 H1182 0.950 . S
C1160 C1159 1.349 . S
C1160 C1172 1.349 . S
C1161 C1159 1.327 . S
C1161 C1177 1.429 . S
C1161 H1183 0.950 . S
C1162 H1158 0.949 . S
C1162 C1170 1.574 . S
C1162 C1178 1.368 . S
H1163 C1171 0.950 . S
H1164 C1169 0.950 . S
H1165 C1170 0.949 . S
H1166 C1172 0.950 . S
H1167 C1173 0.950 . S
H1168 C1174 0.949 . S
C1169 H1164 0.950 . S
C1169 C1171 1.327 . S
C1169 C1175 1.429 . S
C1170 C1162 1.574 . S
C1170 H1165 0.949 . S
C1170 C1176 1.368 . S
C1171 C1155 1.349 . S
C1171 H1163 0.950 . S
C1171 C1169 1.327 . S
C1172 C1160 1.349 . S
C1172 H1166 0.950 . S
C1172 C1173 1.327 . S
C1173 H1167 0.950 . S
C1173 C1172 1.327 . S
C1173 C1177 1.429 . S
C1174 C1157 1.574 . S
C1174 H1168 0.949 . S
C1174 C1178 1.368 . S
C1175 C1156 1.429 . S
C1175 C1169 1.429 . S
C1175 C1176 1.523 . S
C1176 C1157 1.368 . S
C1176 C1170 1.368 . S
C1176 C1175 1.523 . S
C1177 C1161 1.429 . S
C1177 C1173 1.429 . S
C1177 C1178 1.523 . S
C1178 C1162 1.368 . S
C1178 C1174 1.368 . S
C1178 C1177 1.523 . S
H1179 C1154 0.950 . S
H1180 C1156 0.950 . S
H1181 C1157 0.949 . S
H1182 C1159 0.950 . S
H1183 C1161 0.950 . S
C1184 C1185 1.349 . S
C1184 C1186 1.327 . S
C1184 H1209 0.950 . S
C1185 C1184 1.349 . S
C1185 C1201 1.349 . S
C1186 C1184 1.327 . S
C1186 C1205 1.429 . S
C1186 H1210 0.950 . S
C1187 C1204 1.574 1_556 S
C1187 C1206 1.368 . S
C1187 H1211 0.949 . S
H1188 C1192 0.949 . S
C1189 C1190 1.349 . S
C1189 C1191 1.327 . S
C1189 H1212 0.950 . S
C1190 C1189 1.349 . S
C1190 C1202 1.349 . S
C1191 C1189 1.327 . S
C1191 C1207 1.429 . S
C1191 H1213 0.950 . S
C1192 H1188 0.949 . S
C1192 C1200 1.574 1_554 S
C1192 C1208 1.368 . S
H1193 C1201 0.950 . S
H1194 C1199 0.950 . S
H1195 C1200 0.949 . S
H1196 C1202 0.950 . S
H1197 C1203 0.950 . S
H1198 C1204 0.949 . S
C1199 H1194 0.950 . S
C1199 C1201 1.327 . S
C1199 C1205 1.429 . S
C1200 C1192 1.574 1_556 S
C1200 H1195 0.949 . S
C1200 C1206 1.368 . S
C1201 C1185 1.349 . S
C1201 H1193 0.950 . S
C1201 C1199 1.327 . S
C1202 C1190 1.349 . S
C1202 H1196 0.950 . S
C1202 C1203 1.327 . S
C1203 H1197 0.950 . S
C1203 C1202 1.327 . S
C1203 C1207 1.429 . S
C1204 C1187 1.574 1_554 S
C1204 H1198 0.949 . S
C1204 C1208 1.368 . S
C1205 C1186 1.429 . S
C1205 C1199 1.429 . S
C1205 C1206 1.523 . S
C1206 C1187 1.368 . S
C1206 C1200 1.368 . S
C1206 C1205 1.523 . S
C1207 C1191 1.429 . S
C1207 C1203 1.429 . S
C1207 C1208 1.523 . S
C1208 C1192 1.368 . S
C1208 C1204 1.368 . S
C1208 C1207 1.523 . S
H1209 C1184 0.950 . S
H1210 C1186 0.950 . S
H1211 C1187 0.949 . S
H1212 C1189 0.950 . S
H1213 C1191 0.950 . S
C1214 C1215 1.349 . S
C1214 C1216 1.327 . S
C1214 H1239 0.950 . S
C1215 C1214 1.349 . S
C1215 C1231 1.349 . S
C1216 C1214 1.327 . S
C1216 C1235 1.429 . S
C1216 H1240 0.950 . S
C1217 C1234 1.574 1_556 S
C1217 C1236 1.368 . S
C1217 H1241 0.949 . S
H1218 C1222 0.949 . S
C1219 C1220 1.349 . S
C1219 C1221 1.327 . S
C1219 H1242 0.950 . S
C1220 C1219 1.349 . S
C1220 C1232 1.349 . S
C1221 C1219 1.327 . S
C1221 C1237 1.429 . S
C1221 H1243 0.950 . S
C1222 H1218 0.949 . S
C1222 C1230 1.574 1_554 S
C1222 C1238 1.368 . S
H1223 C1231 0.950 . S
H1224 C1229 0.950 . S
H1225 C1230 0.949 . S
H1226 C1232 0.950 . S
H1227 C1233 0.950 . S
H1228 C1234 0.949 . S
C1229 H1224 0.950 . S
C1229 C1231 1.327 . S
C1229 C1235 1.429 . S
C1230 C1222 1.574 1_556 S
C1230 H1225 0.949 . S
C1230 C1236 1.368 . S
C1231 C1215 1.349 . S
C1231 H1223 0.950 . S
C1231 C1229 1.327 . S
C1232 C1220 1.349 . S
C1232 H1226 0.950 . S
C1232 C1233 1.327 . S
C1233 H1227 0.950 . S
C1233 C1232 1.327 . S
C1233 C1237 1.429 . S
C1234 C1217 1.574 1_554 S
C1234 H1228 0.949 . S
C1234 C1238 1.368 . S
C1235 C1216 1.429 . S
C1235 C1229 1.429 . S
C1235 C1236 1.523 . S
C1236 C1217 1.368 . S
C1236 C1230 1.368 . S
C1236 C1235 1.523 . S
C1237 C1221 1.429 . S
C1237 C1233 1.429 . S
C1237 C1238 1.523 . S
C1238 C1222 1.368 . S
C1238 C1234 1.368 . S
C1238 C1237 1.523 . S
H1239 C1214 0.950 . S
H1240 C1216 0.950 . S
H1241 C1217 0.949 . S
H1242 C1219 0.950 . S
H1243 C1221 0.950 . S
C1244 C1245 1.349 . S
C1244 C1246 1.327 . S
C1244 H1269 0.950 . S
C1245 C1244 1.349 . S
C1245 C1261 1.349 . S
C1246 C1244 1.327 . S
C1246 C1265 1.429 . S
C1246 H1270 0.950 . S
C1247 C1264 1.574 1_556 S
C1247 C1266 1.368 . S
C1247 H1271 0.949 . S
H1248 C1252 0.949 . S
C1249 C1250 1.349 . S
C1249 C1251 1.327 . S
C1249 H1272 0.950 . S
C1250 C1249 1.349 . S
C1250 C1262 1.349 . S
C1251 C1249 1.327 . S
C1251 C1267 1.429 . S
C1251 H1273 0.950 . S
C1252 H1248 0.949 . S
C1252 C1260 1.574 1_554 S
C1252 C1268 1.368 . S
H1253 C1261 0.950 . S
H1254 C1259 0.950 . S
H1255 C1260 0.949 . S
H1256 C1262 0.950 . S
H1257 C1263 0.950 . S
H1258 C1264 0.949 . S
C1259 H1254 0.950 . S
C1259 C1261 1.327 . S
C1259 C1265 1.429 . S
C1260 C1252 1.574 1_556 S
C1260 H1255 0.949 . S
C1260 C1266 1.368 . S
C1261 C1245 1.349 . S
C1261 H1253 0.950 . S
C1261 C1259 1.327 . S
C1262 C1250 1.349 . S
C1262 H1256 0.950 . S
C1262 C1263 1.327 . S
C1263 H1257 0.950 . S
C1263 C1262 1.327 . S
C1263 C1267 1.429 . S
C1264 C1247 1.574 1_554 S
C1264 H1258 0.949 . S
C1264 C1268 1.368 . S
C1265 C1246 1.429 . S
C1265 C1259 1.429 . S
C1265 C1266 1.523 . S
C1266 C1247 1.368 . S
C1266 C1260 1.368 . S
C1266 C1265 1.523 . S
C1267 C1251 1.429 . S
C1267 C1263 1.429 . S
C1267 C1268 1.523 . S
C1268 C1252 1.368 . S
C1268 C1264 1.368 . S
C1268 C1267 1.523 . S
H1269 C1244 0.950 . S
H1270 C1246 0.950 . S
H1271 C1247 0.949 . S
H1272 C1249 0.950 . S
H1273 C1251 0.950 . S
C1274 C1275 1.349 . S
C1274 C1276 1.327 . S
C1274 H1299 0.950 . S
C1275 C1274 1.349 . S
C1275 C1291 1.349 . S
C1276 C1274 1.327 . S
C1276 C1295 1.429 . S
C1276 H1300 0.950 . S
C1277 C1294 1.574 1_554 S
C1277 C1296 1.368 . S
C1277 H1301 0.949 . S
H1278 C1282 0.949 . S
C1279 C1280 1.349 . S
C1279 C1281 1.327 . S
C1279 H1302 0.950 . S
C1280 C1279 1.349 . S
C1280 C1292 1.349 . S
C1281 C1279 1.327 . S
C1281 C1297 1.429 . S
C1281 H1303 0.950 . S
C1282 H1278 0.949 . S
C1282 C1290 1.574 1_556 S
C1282 C1298 1.368 . S
H1283 C1291 0.950 . S
H1284 C1289 0.950 . S
H1285 C1290 0.949 . S
H1286 C1292 0.950 . S
H1287 C1293 0.950 . S
H1288 C1294 0.949 . S
C1289 H1284 0.950 . S
C1289 C1291 1.327 . S
C1289 C1295 1.429 . S
C1290 C1282 1.574 1_554 S
C1290 H1285 0.949 . S
C1290 C1296 1.368 . S
C1291 C1275 1.349 . S
C1291 H1283 0.950 . S
C1291 C1289 1.327 . S
C1292 C1280 1.349 . S
C1292 H1286 0.950 . S
C1292 C1293 1.327 . S
C1293 H1287 0.950 . S
C1293 C1292 1.327 . S
C1293 C1297 1.429 . S
C1294 C1277 1.574 1_556 S
C1294 H1288 0.949 . S
C1294 C1298 1.368 . S
C1295 C1276 1.429 . S
C1295 C1289 1.429 . S
C1295 C1296 1.523 . S
C1296 C1277 1.368 . S
C1296 C1290 1.368 . S
C1296 C1295 1.523 . S
C1297 C1281 1.429 . S
C1297 C1293 1.429 . S
C1297 C1298 1.523 . S
C1298 C1282 1.368 . S
C1298 C1294 1.368 . S
C1298 C1297 1.523 . S
H1299 C1274 0.950 . S
H1300 C1276 0.950 . S
H1301 C1277 0.949 . S
H1302 C1279 0.950 . S
H1303 C1281 0.950 . S
C1304 C1305 1.349 . S
C1304 C1306 1.327 . S
C1304 H1329 0.950 . S
C1305 C1304 1.349 . S
C1305 C1321 1.349 . S
C1306 C1304 1.327 . S
C1306 C1325 1.429 . S
C1306 H1330 0.950 . S
C1307 C1324 1.574 . S
C1307 C1326 1.368 . S
C1307 H1331 0.949 . S
H1308 C1312 0.949 . S
C1309 C1310 1.349 . S
C1309 C1311 1.327 . S
C1309 H1332 0.950 . S
C1310 C1309 1.349 . S
C1310 C1322 1.349 . S
C1311 C1309 1.327 . S
C1311 C1327 1.429 . S
C1311 H1333 0.950 . S
C1312 H1308 0.949 . S
C1312 C1320 1.574 . S
C1312 C1328 1.368 . S
H1313 C1321 0.950 . S
H1314 C1319 0.950 . S
H1315 C1320 0.949 . S
H1316 C1322 0.950 . S
H1317 C1323 0.950 . S
H1318 C1324 0.949 . S
C1319 H1314 0.950 . S
C1319 C1321 1.327 . S
C1319 C1325 1.429 . S
C1320 C1312 1.574 . S
C1320 H1315 0.949 . S
C1320 C1326 1.368 . S
C1321 C1305 1.349 . S
C1321 H1313 0.950 . S
C1321 C1319 1.327 . S
C1322 C1310 1.349 . S
C1322 H1316 0.950 . S
C1322 C1323 1.327 . S
C1323 H1317 0.950 . S
C1323 C1322 1.327 . S
C1323 C1327 1.429 . S
C1324 C1307 1.574 . S
C1324 H1318 0.949 . S
C1324 C1328 1.368 . S
C1325 C1306 1.429 . S
C1325 C1319 1.429 . S
C1325 C1326 1.523 . S
C1326 C1307 1.368 . S
C1326 C1320 1.368 . S
C1326 C1325 1.523 . S
C1327 C1311 1.429 . S
C1327 C1323 1.429 . S
C1327 C1328 1.523 . S
C1328 C1312 1.368 . S
C1328 C1324 1.368 . S
C1328 C1327 1.523 . S
H1329 C1304 0.950 . S
H1330 C1306 0.950 . S
H1331 C1307 0.949 . S
H1332 C1309 0.950 . S
H1333 C1311 0.950 . S
C1334 C1335 1.349 . S
C1334 C1336 1.327 . S
C1334 H1359 0.950 . S
C1335 C1334 1.349 . S
C1335 C1351 1.349 . S
C1336 C1334 1.327 . S
C1336 C1355 1.429 . S
C1336 H1360 0.950 . S
C1337 C1354 1.574 . S
C1337 C1356 1.368 . S
C1337 H1361 0.949 . S
H1338 C1342 0.949 . S
C1339 C1340 1.349 . S
C1339 C1341 1.327 . S
C1339 H1362 0.950 . S
C1340 C1339 1.349 . S
C1340 C1352 1.349 . S
C1341 C1339 1.327 . S
C1341 C1357 1.429 . S
C1341 H1363 0.950 . S
C1342 H1338 0.949 . S
C1342 C1350 1.574 . S
C1342 C1358 1.368 . S
H1343 C1351 0.950 . S
H1344 C1349 0.950 . S
H1345 C1350 0.949 . S
H1346 C1352 0.950 . S
H1347 C1353 0.950 . S
H1348 C1354 0.949 . S
C1349 H1344 0.950 . S
C1349 C1351 1.327 . S
C1349 C1355 1.429 . S
C1350 C1342 1.574 . S
C1350 H1345 0.949 . S
C1350 C1356 1.368 . S
C1351 C1335 1.349 . S
C1351 H1343 0.950 . S
C1351 C1349 1.327 . S
C1352 C1340 1.349 . S
C1352 H1346 0.950 . S
C1352 C1353 1.327 . S
C1353 H1347 0.950 . S
C1353 C1352 1.327 . S
C1353 C1357 1.429 . S
C1354 C1337 1.574 . S
C1354 H1348 0.949 . S
C1354 C1358 1.368 . S
C1355 C1336 1.429 . S
C1355 C1349 1.429 . S
C1355 C1356 1.523 . S
C1356 C1337 1.368 . S
C1356 C1350 1.368 . S
C1356 C1355 1.523 . S
C1357 C1341 1.429 . S
C1357 C1353 1.429 . S
C1357 C1358 1.523 . S
C1358 C1342 1.368 . S
C1358 C1354 1.368 . S
C1358 C1357 1.523 . S
H1359 C1334 0.950 . S
H1360 C1336 0.950 . S
H1361 C1337 0.949 . S
H1362 C1339 0.950 . S
H1363 C1341 0.950 . S
C1364 C1365 1.349 . S
C1364 C1366 1.327 . S
C1364 H1389 0.950 . S
C1365 C1364 1.349 . S
C1365 C1381 1.349 . S
C1366 C1364 1.327 . S
C1366 C1385 1.429 . S
C1366 H1390 0.950 . S
C1367 C1384 1.574 . S
C1367 C1386 1.368 . S
C1367 H1391 0.949 . S
H1368 C1372 0.949 . S
C1369 C1370 1.349 . S
C1369 C1371 1.327 . S
C1369 H1392 0.950 . S
C1370 C1369 1.349 . S
C1370 C1382 1.349 . S
C1371 C1369 1.327 . S
C1371 C1387 1.429 . S
C1371 H1393 0.950 . S
C1372 H1368 0.949 . S
C1372 C1380 1.574 . S
C1372 C1388 1.368 . S
H1373 C1381 0.950 . S
H1374 C1379 0.950 . S
H1375 C1380 0.949 . S
H1376 C1382 0.950 . S
H1377 C1383 0.950 . S
H1378 C1384 0.949 . S
C1379 H1374 0.950 . S
C1379 C1381 1.327 . S
C1379 C1385 1.429 . S
C1380 C1372 1.574 . S
C1380 H1375 0.949 . S
C1380 C1386 1.368 . S
C1381 C1365 1.349 . S
C1381 H1373 0.950 . S
C1381 C1379 1.327 . S
C1382 C1370 1.349 . S
C1382 H1376 0.950 . S
C1382 C1383 1.327 . S
C1383 H1377 0.950 . S
C1383 C1382 1.327 . S
C1383 C1387 1.429 . S
C1384 C1367 1.574 . S
C1384 H1378 0.949 . S
C1384 C1388 1.368 . S
C1385 C1366 1.429 . S
C1385 C1379 1.429 . S
C1385 C1386 1.523 . S
C1386 C1367 1.368 . S
C1386 C1380 1.368 . S
C1386 C1385 1.523 . S
C1387 C1371 1.429 . S
C1387 C1383 1.429 . S
C1387 C1388 1.523 . S
C1388 C1372 1.368 . S
C1388 C1384 1.368 . S
C1388 C1387 1.523 . S
H1389 C1364 0.950 . S
H1390 C1366 0.950 . S
H1391 C1367 0.949 . S
H1392 C1369 0.950 . S
H1393 C1371 0.950 . S
C1394 C1395 1.349 . S
C1394 C1396 1.327 . S
C1394 H1419 0.950 . S
C1395 C1394 1.349 . S
C1395 C1411 1.349 . S
C1396 C1394 1.327 . S
C1396 C1415 1.429 . S
C1396 H1420 0.950 . S
C1397 C1414 1.574 . S
C1397 C1416 1.368 . S
C1397 H1421 0.949 . S
H1398 C1402 0.949 . S
C1399 C1400 1.349 . S
C1399 C1401 1.327 . S
C1399 H1422 0.950 . S
C1400 C1399 1.349 . S
C1400 C1412 1.349 . S
C1401 C1399 1.327 . S
C1401 C1417 1.429 . S
C1401 H1423 0.950 . S
C1402 H1398 0.949 . S
C1402 C1410 1.574 . S
C1402 C1418 1.368 . S
H1403 C1411 0.950 . S
H1404 C1409 0.950 . S
H1405 C1410 0.949 . S
H1406 C1412 0.950 . S
H1407 C1413 0.950 . S
H1408 C1414 0.949 . S
C1409 H1404 0.950 . S
C1409 C1411 1.327 . S
C1409 C1415 1.429 . S
C1410 C1402 1.574 . S
C1410 H1405 0.949 . S
C1410 C1416 1.368 . S
C1411 C1395 1.349 . S
C1411 H1403 0.950 . S
C1411 C1409 1.327 . S
C1412 C1400 1.349 . S
C1412 H1406 0.950 . S
C1412 C1413 1.327 . S
C1413 H1407 0.950 . S
C1413 C1412 1.327 . S
C1413 C1417 1.429 . S
C1414 C1397 1.574 . S
C1414 H1408 0.949 . S
C1414 C1418 1.368 . S
C1415 C1396 1.429 . S
C1415 C1409 1.429 . S
C1415 C1416 1.523 . S
C1416 C1397 1.368 . S
C1416 C1410 1.368 . S
C1416 C1415 1.523 . S
C1417 C1401 1.429 . S
C1417 C1413 1.429 . S
C1417 C1418 1.523 . S
C1418 C1402 1.368 . S
C1418 C1414 1.368 . S
C1418 C1417 1.523 . S
H1419 C1394 0.950 . S
H1420 C1396 0.950 . S
H1421 C1397 0.949 . S
H1422 C1399 0.950 . S
H1423 C1401 0.950 . S
C1424 C1425 1.349 . S
C1424 C1426 1.327 . S
C1424 H1449 0.950 . S
C1425 C1424 1.349 . S
C1425 C1441 1.349 . S
C1426 C1424 1.327 . S
C1426 C1445 1.429 . S
C1426 H1450 0.950 . S
C1427 C1444 1.574 . S
C1427 C1446 1.368 . S
C1427 H1451 0.949 . S
H1428 C1432 0.949 . S
C1429 C1430 1.349 . S
C1429 C1431 1.327 . S
C1429 H1452 0.950 . S
C1430 C1429 1.349 . S
C1430 C1442 1.349 . S
C1431 C1429 1.327 . S
C1431 C1447 1.429 . S
C1431 H1453 0.950 . S
C1432 H1428 0.949 . S
C1432 C1440 1.574 . S
C1432 C1448 1.368 . S
H1433 C1441 0.950 . S
H1434 C1439 0.950 . S
H1435 C1440 0.949 . S
H1436 C1442 0.950 . S
H1437 C1443 0.950 . S
H1438 C1444 0.949 . S
C1439 H1434 0.950 . S
C1439 C1441 1.327 . S
C1439 C1445 1.429 . S
C1440 C1432 1.574 . S
C1440 H1435 0.949 . S
C1440 C1446 1.368 . S
C1441 C1425 1.349 . S
C1441 H1433 0.950 . S
C1441 C1439 1.327 . S
C1442 C1430 1.349 . S
C1442 H1436 0.950 . S
C1442 C1443 1.327 . S
C1443 H1437 0.950 . S
C1443 C1442 1.327 . S
C1443 C1447 1.429 . S
C1444 C1427 1.574 . S
C1444 H1438 0.949 . S
C1444 C1448 1.368 . S
C1445 C1426 1.429 . S
C1445 C1439 1.429 . S
C1445 C1446 1.523 . S
C1446 C1427 1.368 . S
C1446 C1440 1.368 . S
C1446 C1445 1.523 . S
C1447 C1431 1.429 . S
C1447 C1443 1.429 . S
C1447 C1448 1.523 . S
C1448 C1432 1.368 . S
C1448 C1444 1.368 . S
C1448 C1447 1.523 . S
H1449 C1424 0.950 . S
H1450 C1426 0.950 . S
H1451 C1427 0.949 . S
H1452 C1429 0.950 . S
H1453 C1431 0.950 . S
C1454 C1455 1.349 . S
C1454 C1456 1.327 . S
C1454 H1479 0.950 . S
C1455 C1454 1.349 . S
C1455 C1471 1.349 . S
C1456 C1454 1.327 . S
C1456 C1475 1.429 . S
C1456 H1480 0.950 . S
C1457 C1474 1.574 . S
C1457 C1476 1.368 . S
C1457 H1481 0.949 . S
H1458 C1462 0.949 . S
C1459 C1460 1.349 . S
C1459 C1461 1.327 . S
C1459 H1482 0.950 . S
C1460 C1459 1.349 . S
C1460 C1472 1.349 . S
C1461 C1459 1.327 . S
C1461 C1477 1.429 . S
C1461 H1483 0.950 . S
C1462 H1458 0.949 . S
C1462 C1470 1.574 . S
C1462 C1478 1.368 . S
H1463 C1471 0.950 . S
H1464 C1469 0.950 . S
H1465 C1470 0.949 . S
H1466 C1472 0.950 . S
H1467 C1473 0.950 . S
H1468 C1474 0.949 . S
C1469 H1464 0.950 . S
C1469 C1471 1.327 . S
C1469 C1475 1.429 . S
C1470 C1462 1.574 . S
C1470 H1465 0.949 . S
C1470 C1476 1.368 . S
C1471 C1455 1.349 . S
C1471 H1463 0.950 . S
C1471 C1469 1.327 . S
C1472 C1460 1.349 . S
C1472 H1466 0.950 . S
C1472 C1473 1.327 . S
C1473 H1467 0.950 . S
C1473 C1472 1.327 . S
C1473 C1477 1.429 . S
C1474 C1457 1.574 . S
C1474 H1468 0.949 . S
C1474 C1478 1.368 . S
C1475 C1456 1.429 . S
C1475 C1469 1.429 . S
C1475 C1476 1.523 . S
C1476 C1457 1.368 . S
C1476 C1470 1.368 . S
C1476 C1475 1.523 . S
C1477 C1461 1.429 . S
C1477 C1473 1.429 . S
C1477 C1478 1.523 . S
C1478 C1462 1.368 . S
C1478 C1474 1.368 . S
C1478 C1477 1.523 . S
H1479 C1454 0.950 . S
H1480 C1456 0.950 . S
H1481 C1457 0.949 . S
H1482 C1459 0.950 . S
H1483 C1461 0.950 . S
C1484 C1485 1.349 . S
C1484 C1486 1.327 . S
C1484 H1509 0.950 . S
C1485 C1484 1.349 . S
C1485 C1501 1.349 . S
C1486 C1484 1.327 . S
C1486 C1505 1.429 . S
C1486 H1510 0.950 . S
C1487 C1504 1.574 . S
C1487 C1506 1.368 . S
C1487 H1511 0.949 . S
H1488 C1492 0.949 . S
C1489 C1490 1.349 . S
C1489 C1491 1.327 . S
C1489 H1512 0.950 . S
C1490 C1489 1.349 . S
C1490 C1502 1.349 . S
C1491 C1489 1.327 . S
C1491 C1507 1.429 . S
C1491 H1513 0.950 . S
C1492 H1488 0.949 . S
C1492 C1500 1.574 . S
C1492 C1508 1.368 . S
H1493 C1501 0.950 . S
H1494 C1499 0.950 . S
H1495 C1500 0.949 . S
H1496 C1502 0.950 . S
H1497 C1503 0.950 . S
H1498 C1504 0.949 . S
C1499 H1494 0.950 . S
C1499 C1501 1.327 . S
C1499 C1505 1.429 . S
C1500 C1492 1.574 . S
C1500 H1495 0.949 . S
C1500 C1506 1.368 . S
C1501 C1485 1.349 . S
C1501 H1493 0.950 . S
C1501 C1499 1.327 . S
C1502 C1490 1.349 . S
C1502 H1496 0.950 . S
C1502 C1503 1.327 . S
C1503 H1497 0.950 . S
C1503 C1502 1.327 . S
C1503 C1507 1.429 . S
C1504 C1487 1.574 . S
C1504 H1498 0.949 . S
C1504 C1508 1.368 . S
C1505 C1486 1.429 . S
C1505 C1499 1.429 . S
C1505 C1506 1.523 . S
C1506 C1487 1.368 . S
C1506 C1500 1.368 . S
C1506 C1505 1.523 . S
C1507 C1491 1.429 . S
C1507 C1503 1.429 . S
C1507 C1508 1.523 . S
C1508 C1492 1.368 . S
C1508 C1504 1.368 . S
C1508 C1507 1.523 . S
H1509 C1484 0.950 . S
H1510 C1486 0.950 . S
H1511 C1487 0.949 . S
H1512 C1489 0.950 . S
H1513 C1491 0.950 . S
C1514 C1515 1.349 . S
C1514 C1516 1.327 . S
C1514 H1539 0.950 . S
C1515 C1514 1.349 . S
C1515 C1531 1.349 . S
C1516 C1514 1.327 . S
C1516 C1535 1.429 . S
C1516 H1540 0.950 . S
C1517 C1534 1.574 . S
C1517 C1536 1.368 . S
C1517 H1541 0.949 . S
H1518 C1522 0.949 . S
C1519 C1520 1.349 . S
C1519 C1521 1.327 . S
C1519 H1542 0.950 . S
C1520 C1519 1.349 . S
C1520 C1532 1.349 . S
C1521 C1519 1.327 . S
C1521 C1537 1.429 . S
C1521 H1543 0.950 . S
C1522 H1518 0.949 . S
C1522 C1530 1.574 . S
C1522 C1538 1.368 . S
H1523 C1531 0.950 . S
H1524 C1529 0.950 . S
H1525 C1530 0.949 . S
H1526 C1532 0.950 . S
H1527 C1533 0.950 . S
H1528 C1534 0.949 . S
C1529 H1524 0.950 . S
C1529 C1531 1.327 . S
C1529 C1535 1.429 . S
C1530 C1522 1.574 . S
C1530 H1525 0.949 . S
C1530 C1536 1.368 . S
C1531 C1515 1.349 . S
C1531 H1523 0.950 . S
C1531 C1529 1.327 . S
C1532 C1520 1.349 . S
C1532 H1526 0.950 . S
C1532 C1533 1.327 . S
C1533 H1527 0.950 . S
C1533 C1532 1.327 . S
C1533 C1537 1.429 . S
C1534 C1517 1.574 . S
C1534 H1528 0.949 . S
C1534 C1538 1.368 . S
C1535 C1516 1.429 . S
C1535 C1529 1.429 . S
C1535 C1536 1.523 . S
C1536 C1517 1.368 . S
C1536 C1530 1.368 . S
C1536 C1535 1.523 . S
C1537 C1521 1.429 . S
C1537 C1533 1.429 . S
C1537 C1538 1.523 . S
C1538 C1522 1.368 . S
C1538 C1534 1.368 . S
C1538 C1537 1.523 . S
H1539 C1514 0.950 . S
H1540 C1516 0.950 . S
H1541 C1517 0.949 . S
H1542 C1519 0.950 . S
H1543 C1521 0.950 . S
C1544 C1545 1.349 . S
C1544 C1546 1.327 . S
C1544 H1569 0.950 . S
C1545 C1544 1.349 . S
C1545 C1561 1.349 . S
C1546 C1544 1.327 . S
C1546 C1565 1.429 . S
C1546 H1570 0.950 . S
C1547 C1564 1.574 . S
C1547 C1566 1.368 . S
C1547 H1571 0.949 . S
H1548 C1552 0.949 . S
C1549 C1550 1.349 . S
C1549 C1551 1.327 . S
C1549 H1572 0.950 . S
C1550 C1549 1.349 . S
C1550 C1562 1.349 . S
C1551 C1549 1.327 . S
C1551 C1567 1.429 . S
C1551 H1573 0.950 . S
C1552 H1548 0.949 . S
C1552 C1560 1.574 . S
C1552 C1568 1.368 . S
H1553 C1561 0.950 . S
H1554 C1559 0.950 . S
H1555 C1560 0.949 . S
H1556 C1562 0.950 . S
H1557 C1563 0.950 . S
H1558 C1564 0.949 . S
C1559 H1554 0.950 . S
C1559 C1561 1.327 . S
C1559 C1565 1.429 . S
C1560 C1552 1.574 . S
C1560 H1555 0.949 . S
C1560 C1566 1.368 . S
C1561 C1545 1.349 . S
C1561 H1553 0.950 . S
C1561 C1559 1.327 . S
C1562 C1550 1.349 . S
C1562 H1556 0.950 . S
C1562 C1563 1.327 . S
C1563 H1557 0.950 . S
C1563 C1562 1.327 . S
C1563 C1567 1.429 . S
C1564 C1547 1.574 . S
C1564 H1558 0.949 . S
C1564 C1568 1.368 . S
C1565 C1546 1.429 . S
C1565 C1559 1.429 . S
C1565 C1566 1.523 . S
C1566 C1547 1.368 . S
C1566 C1560 1.368 . S
C1566 C1565 1.523 . S
C1567 C1551 1.429 . S
C1567 C1563 1.429 . S
C1567 C1568 1.523 . S
C1568 C1552 1.368 . S
C1568 C1564 1.368 . S
C1568 C1567 1.523 . S
H1569 C1544 0.950 . S
H1570 C1546 0.950 . S
H1571 C1547 0.949 . S
H1572 C1549 0.950 . S
H1573 C1551 0.950 . S
C1574 C1575 1.349 . S
C1574 C1576 1.327 . S
C1574 H1599 0.950 . S
C1575 C1574 1.349 . S
C1575 C1591 1.349 . S
C1576 C1574 1.327 . S
C1576 C1595 1.429 . S
C1576 H1600 0.950 . S
C1577 C1594 1.574 . S
C1577 C1596 1.368 . S
C1577 H1601 0.949 . S
H1578 C1582 0.949 . S
C1579 C1580 1.349 . S
C1579 C1581 1.327 . S
C1579 H1602 0.950 . S
C1580 C1579 1.349 . S
C1580 C1592 1.349 . S
C1581 C1579 1.327 . S
C1581 C1597 1.429 . S
C1581 H1603 0.950 . S
C1582 H1578 0.949 . S
C1582 C1590 1.574 . S
C1582 C1598 1.368 . S
H1583 C1591 0.950 . S
H1584 C1589 0.950 . S
H1585 C1590 0.949 . S
H1586 C1592 0.950 . S
H1587 C1593 0.950 . S
H1588 C1594 0.949 . S
C1589 H1584 0.950 . S
C1589 C1591 1.327 . S
C1589 C1595 1.429 . S
C1590 C1582 1.574 . S
C1590 H1585 0.949 . S
C1590 C1596 1.368 . S
C1591 C1575 1.349 . S
C1591 H1583 0.950 . S
C1591 C1589 1.327 . S
C1592 C1580 1.349 . S
C1592 H1586 0.950 . S
C1592 C1593 1.327 . S
C1593 H1587 0.950 . S
C1593 C1592 1.327 . S
C1593 C1597 1.429 . S
C1594 C1577 1.574 . S
C1594 H1588 0.949 . S
C1594 C1598 1.368 . S
C1595 C1576 1.429 . S
C1595 C1589 1.429 . S
C1595 C1596 1.523 . S
C1596 C1577 1.368 . S
C1596 C1590 1.368 . S
C1596 C1595 1.523 . S
C1597 C1581 1.429 . S
C1597 C1593 1.429 . S
C1597 C1598 1.523 . S
C1598 C1582 1.368 . S
C1598 C1594 1.368 . S
C1598 C1597 1.523 . S
H1599 C1574 0.950 . S
H1600 C1576 0.950 . S
H1601 C1577 0.949 . S
H1602 C1579 0.950 . S
H1603 C1581 0.950 . S
C1604 C1605 1.349 . S
C1604 C1606 1.327 . S
C1604 H1629 0.950 . S
C1605 C1604 1.349 . S
C1605 C1621 1.349 . S
C1606 C1604 1.327 . S
C1606 C1625 1.429 . S
C1606 H1630 0.950 . S
C1607 C1624 1.574 . S
C1607 C1626 1.368 . S
C1607 H1631 0.949 . S
H1608 C1612 0.949 . S
C1609 C1610 1.349 . S
C1609 C1611 1.327 . S
C1609 H1632 0.950 . S
C1610 C1609 1.349 . S
C1610 C1622 1.349 . S
C1611 C1609 1.327 . S
C1611 C1627 1.429 . S
C1611 H1633 0.950 . S
C1612 H1608 0.949 . S
C1612 C1620 1.574 . S
C1612 C1628 1.368 . S
H1613 C1621 0.950 . S
H1614 C1619 0.950 . S
H1615 C1620 0.949 . S
H1616 C1622 0.950 . S
H1617 C1623 0.950 . S
H1618 C1624 0.949 . S
C1619 H1614 0.950 . S
C1619 C1621 1.327 . S
C1619 C1625 1.429 . S
C1620 C1612 1.574 . S
C1620 H1615 0.949 . S
C1620 C1626 1.368 . S
C1621 C1605 1.349 . S
C1621 H1613 0.950 . S
C1621 C1619 1.327 . S
C1622 C1610 1.349 . S
C1622 H1616 0.950 . S
C1622 C1623 1.327 . S
C1623 H1617 0.950 . S
C1623 C1622 1.327 . S
C1623 C1627 1.429 . S
C1624 C1607 1.574 . S
C1624 H1618 0.949 . S
C1624 C1628 1.368 . S
C1625 C1606 1.429 . S
C1625 C1619 1.429 . S
C1625 C1626 1.523 . S
C1626 C1607 1.368 . S
C1626 C1620 1.368 . S
C1626 C1625 1.523 . S
C1627 C1611 1.429 . S
C1627 C1623 1.429 . S
C1627 C1628 1.523 . S
C1628 C1612 1.368 . S
C1628 C1624 1.368 . S
C1628 C1627 1.523 . S
H1629 C1604 0.950 . S
H1630 C1606 0.950 . S
H1631 C1607 0.949 . S
H1632 C1609 0.950 . S
H1633 C1611 0.950 . S
C1634 C1635 1.349 . S
C1634 C1636 1.327 . S
C1634 H1659 0.950 . S
C1635 C1634 1.349 . S
C1635 C1651 1.349 . S
C1636 C1634 1.327 . S
C1636 C1655 1.429 . S
C1636 H1660 0.950 . S
C1637 C1654 1.574 . S
C1637 C1656 1.368 . S
C1637 H1661 0.949 . S
H1638 C1642 0.949 . S
C1639 C1640 1.349 . S
C1639 C1641 1.327 . S
C1639 H1662 0.950 . S
C1640 C1639 1.349 . S
C1640 C1652 1.349 . S
C1641 C1639 1.327 . S
C1641 C1657 1.429 . S
C1641 H1663 0.950 . S
C1642 H1638 0.949 . S
C1642 C1650 1.574 . S
C1642 C1658 1.368 . S
H1643 C1651 0.950 . S
H1644 C1649 0.950 . S
H1645 C1650 0.949 . S
H1646 C1652 0.950 . S
H1647 C1653 0.950 . S
H1648 C1654 0.949 . S
C1649 H1644 0.950 . S
C1649 C1651 1.327 . S
C1649 C1655 1.429 . S
C1650 C1642 1.574 . S
C1650 H1645 0.949 . S
C1650 C1656 1.368 . S
C1651 C1635 1.349 . S
C1651 H1643 0.950 . S
C1651 C1649 1.327 . S
C1652 C1640 1.349 . S
C1652 H1646 0.950 . S
C1652 C1653 1.327 . S
C1653 H1647 0.950 . S
C1653 C1652 1.327 . S
C1653 C1657 1.429 . S
C1654 C1637 1.574 . S
C1654 H1648 0.949 . S
C1654 C1658 1.368 . S
C1655 C1636 1.429 . S
C1655 C1649 1.429 . S
C1655 C1656 1.523 . S
C1656 C1637 1.368 . S
C1656 C1650 1.368 . S
C1656 C1655 1.523 . S
C1657 C1641 1.429 . S
C1657 C1653 1.429 . S
C1657 C1658 1.523 . S
C1658 C1642 1.368 . S
C1658 C1654 1.368 . S
C1658 C1657 1.523 . S
H1659 C1634 0.950 . S
H1660 C1636 0.950 . S
H1661 C1637 0.949 . S
H1662 C1639 0.950 . S
H1663 C1641 0.950 . S
C1664 C1665 1.349 . S
C1664 C1666 1.327 . S
C1664 H1689 0.950 . S
C1665 C1664 1.349 . S
C1665 C1681 1.349 . S
C1666 C1664 1.327 . S
C1666 C1685 1.429 . S
C1666 H1690 0.950 . S
C1667 C1684 1.574 1_545 S
C1667 C1686 1.368 . S
C1667 H1691 0.949 . S
H1668 C1672 0.949 . S
C1669 C1670 1.349 . S
C1669 C1671 1.327 . S
C1669 H1692 0.950 . S
C1670 C1669 1.349 . S
C1670 C1682 1.349 . S
C1671 C1669 1.327 . S
C1671 C1687 1.429 . S
C1671 H1693 0.950 . S
C1672 H1668 0.949 . S
C1672 C1680 1.574 1_565 S
C1672 C1688 1.368 . S
H1673 C1681 0.950 . S
H1674 C1679 0.950 . S
H1675 C1680 0.949 . S
H1676 C1682 0.950 . S
H1677 C1683 0.950 . S
H1678 C1684 0.949 . S
C1679 H1674 0.950 . S
C1679 C1681 1.327 . S
C1679 C1685 1.429 . S
C1680 C1672 1.574 1_545 S
C1680 H1675 0.949 . S
C1680 C1686 1.368 . S
C1681 C1665 1.349 . S
C1681 H1673 0.950 . S
C1681 C1679 1.327 . S
C1682 C1670 1.349 . S
C1682 H1676 0.950 . S
C1682 C1683 1.327 . S
C1683 H1677 0.950 . S
C1683 C1682 1.327 . S
C1683 C1687 1.429 . S
C1684 C1667 1.574 1_565 S
C1684 H1678 0.949 . S
C1684 C1688 1.368 . S
C1685 C1666 1.429 . S
C1685 C1679 1.429 . S
C1685 C1686 1.523 . S
C1686 C1667 1.368 . S
C1686 C1680 1.368 . S
C1686 C1685 1.523 . S
C1687 C1671 1.429 . S
C1687 C1683 1.429 . S
C1687 C1688 1.523 . S
C1688 C1672 1.368 . S
C1688 C1684 1.368 . S
C1688 C1687 1.523 . S
H1689 C1664 0.950 . S
H1690 C1666 0.950 . S
H1691 C1667 0.949 . S
H1692 C1669 0.950 . S
H1693 C1671 0.950 . S
C1694 C1695 1.349 . S
C1694 C1696 1.327 . S
C1694 H1719 0.950 . S
C1695 C1694 1.349 . S
C1695 C1711 1.349 . S
C1696 C1694 1.327 . S
C1696 C1715 1.429 . S
C1696 H1720 0.950 . S
C1697 C1714 1.574 1_655 S
C1697 C1716 1.368 . S
C1697 H1721 0.949 . S
H1698 C1702 0.949 . S
C1699 C1700 1.349 . S
C1699 C1701 1.327 . S
C1699 H1722 0.950 . S
C1700 C1699 1.349 . S
C1700 C1712 1.349 . S
C1701 C1699 1.327 . S
C1701 C1717 1.429 . S
C1701 H1723 0.950 . S
C1702 H1698 0.949 . S
C1702 C1710 1.574 1_455 S
C1702 C1718 1.368 . S
H1703 C1711 0.950 . S
H1704 C1709 0.950 . S
H1705 C1710 0.949 . S
H1706 C1712 0.950 . S
H1707 C1713 0.950 . S
H1708 C1714 0.949 . S
C1709 H1704 0.950 . S
C1709 C1711 1.327 . S
C1709 C1715 1.429 . S
C1710 C1702 1.574 1_655 S
C1710 H1705 0.949 . S
C1710 C1716 1.368 . S
C1711 C1695 1.349 . S
C1711 H1703 0.950 . S
C1711 C1709 1.327 . S
C1712 C1700 1.349 . S
C1712 H1706 0.950 . S
C1712 C1713 1.327 . S
C1713 H1707 0.950 . S
C1713 C1712 1.327 . S
C1713 C1717 1.429 . S
C1714 C1697 1.574 1_455 S
C1714 H1708 0.949 . S
C1714 C1718 1.368 . S
C1715 C1696 1.429 . S
C1715 C1709 1.429 . S
C1715 C1716 1.523 . S
C1716 C1697 1.368 . S
C1716 C1710 1.368 . S
C1716 C1715 1.523 . S
C1717 C1701 1.429 . S
C1717 C1713 1.429 . S
C1717 C1718 1.523 . S
C1718 C1702 1.368 . S
C1718 C1714 1.368 . S
C1718 C1717 1.523 . S
H1719 C1694 0.950 . S
H1720 C1696 0.950 . S
H1721 C1697 0.949 . S
H1722 C1699 0.950 . S
H1723 C1701 0.950 . S
C1724 C1725 1.349 . S
C1724 C1726 1.327 . S
C1724 H1749 0.950 . S
C1725 C1724 1.349 . S
C1725 C1741 1.349 . S
C1726 C1724 1.327 . S
C1726 C1745 1.429 . S
C1726 H1750 0.950 . S
C1727 C1744 1.574 1_545 S
C1727 C1746 1.368 . S
C1727 H1751 0.949 . S
H1728 C1732 0.949 . S
C1729 C1730 1.349 . S
C1729 C1731 1.327 . S
C1729 H1752 0.950 . S
C1730 C1729 1.349 . S
C1730 C1742 1.349 . S
C1731 C1729 1.327 . S
C1731 C1747 1.429 . S
C1731 H1753 0.950 . S
C1732 H1728 0.949 . S
C1732 C1740 1.574 1_565 S
C1732 C1748 1.368 . S
H1733 C1741 0.950 . S
H1734 C1739 0.950 . S
H1735 C1740 0.949 . S
H1736 C1742 0.950 . S
H1737 C1743 0.950 . S
H1738 C1744 0.949 . S
C1739 H1734 0.950 . S
C1739 C1741 1.327 . S
C1739 C1745 1.429 . S
C1740 C1732 1.574 1_545 S
C1740 H1735 0.949 . S
C1740 C1746 1.368 . S
C1741 C1725 1.349 . S
C1741 H1733 0.950 . S
C1741 C1739 1.327 . S
C1742 C1730 1.349 . S
C1742 H1736 0.950 . S
C1742 C1743 1.327 . S
C1743 H1737 0.950 . S
C1743 C1742 1.327 . S
C1743 C1747 1.429 . S
C1744 C1727 1.574 1_565 S
C1744 H1738 0.949 . S
C1744 C1748 1.368 . S
C1745 C1726 1.429 . S
C1745 C1739 1.429 . S
C1745 C1746 1.523 . S
C1746 C1727 1.368 . S
C1746 C1740 1.368 . S
C1746 C1745 1.523 . S
C1747 C1731 1.429 . S
C1747 C1743 1.429 . S
C1747 C1748 1.523 . S
C1748 C1732 1.368 . S
C1748 C1744 1.368 . S
C1748 C1747 1.523 . S
H1749 C1724 0.950 . S
H1750 C1726 0.950 . S
H1751 C1727 0.949 . S
H1752 C1729 0.950 . S
H1753 C1731 0.950 . S
C1754 C1755 1.349 . S
C1754 C1756 1.327 . S
C1754 H1779 0.950 . S
C1755 C1754 1.349 . S
C1755 C1771 1.349 . S
C1756 C1754 1.327 . S
C1756 C1775 1.429 . S
C1756 H1780 0.950 . S
C1757 C1774 1.574 1_455 S
C1757 C1776 1.368 . S
C1757 H1781 0.949 . S
H1758 C1762 0.949 . S
C1759 C1760 1.349 . S
C1759 C1761 1.327 . S
C1759 H1782 0.950 . S
C1760 C1759 1.349 . S
C1760 C1772 1.349 . S
C1761 C1759 1.327 . S
C1761 C1777 1.429 . S
C1761 H1783 0.950 . S
C1762 H1758 0.949 . S
C1762 C1770 1.574 1_655 S
C1762 C1778 1.368 . S
H1763 C1771 0.950 . S
H1764 C1769 0.950 . S
H1765 C1770 0.949 . S
H1766 C1772 0.950 . S
H1767 C1773 0.950 . S
H1768 C1774 0.949 . S
C1769 H1764 0.950 . S
C1769 C1771 1.327 . S
C1769 C1775 1.429 . S
C1770 C1762 1.574 1_455 S
C1770 H1765 0.949 . S
C1770 C1776 1.368 . S
C1771 C1755 1.349 . S
C1771 H1763 0.950 . S
C1771 C1769 1.327 . S
C1772 C1760 1.349 . S
C1772 H1766 0.950 . S
C1772 C1773 1.327 . S
C1773 H1767 0.950 . S
C1773 C1772 1.327 . S
C1773 C1777 1.429 . S
C1774 C1757 1.574 1_655 S
C1774 H1768 0.949 . S
C1774 C1778 1.368 . S
C1775 C1756 1.429 . S
C1775 C1769 1.429 . S
C1775 C1776 1.523 . S
C1776 C1757 1.368 . S
C1776 C1770 1.368 . S
C1776 C1775 1.523 . S
C1777 C1761 1.429 . S
C1777 C1773 1.429 . S
C1777 C1778 1.523 . S
C1778 C1762 1.368 . S
C1778 C1774 1.368 . S
C1778 C1777 1.523 . S
H1779 C1754 0.950 . S
H1780 C1756 0.950 . S
H1781 C1757 0.949 . S
H1782 C1759 0.950 . S
H1783 C1761 0.950 . S
C1784 C1785 1.349 . S
C1784 C1786 1.327 . S
C1784 H1809 0.950 . S
C1785 C1784 1.349 . S
C1785 C1801 1.349 . S
C1786 C1784 1.327 . S
C1786 C1805 1.429 . S
C1786 H1810 0.950 . S
C1787 C1804 1.574 1_545 S
C1787 C1806 1.368 . S
C1787 H1811 0.949 . S
H1788 C1792 0.949 . S
C1789 C1790 1.349 . S
C1789 C1791 1.327 . S
C1789 H1812 0.950 . S
C1790 C1789 1.349 . S
C1790 C1802 1.349 . S
C1791 C1789 1.327 . S
C1791 C1807 1.429 . S
C1791 H1813 0.950 . S
C1792 H1788 0.949 . S
C1792 C1800 1.574 1_565 S
C1792 C1808 1.368 . S
H1793 C1801 0.950 . S
H1794 C1799 0.950 . S
H1795 C1800 0.949 . S
H1796 C1802 0.950 . S
H1797 C1803 0.950 . S
H1798 C1804 0.949 . S
C1799 H1794 0.950 . S
C1799 C1801 1.327 . S
C1799 C1805 1.429 . S
C1800 C1792 1.574 1_545 S
C1800 H1795 0.949 . S
C1800 C1806 1.368 . S
C1801 C1785 1.349 . S
C1801 H1793 0.950 . S
C1801 C1799 1.327 . S
C1802 C1790 1.349 . S
C1802 H1796 0.950 . S
C1802 C1803 1.327 . S
C1803 H1797 0.950 . S
C1803 C1802 1.327 . S
C1803 C1807 1.429 . S
C1804 C1787 1.574 1_565 S
C1804 H1798 0.949 . S
C1804 C1808 1.368 . S
C1805 C1786 1.429 . S
C1805 C1799 1.429 . S
C1805 C1806 1.523 . S
C1806 C1787 1.368 . S
C1806 C1800 1.368 . S
C1806 C1805 1.523 . S
C1807 C1791 1.429 . S
C1807 C1803 1.429 . S
C1807 C1808 1.523 . S
C1808 C1792 1.368 . S
C1808 C1804 1.368 . S
C1808 C1807 1.523 . S
H1809 C1784 0.950 . S
H1810 C1786 0.950 . S
H1811 C1787 0.949 . S
H1812 C1789 0.950 . S
H1813 C1791 0.950 . S
C1814 C1815 1.349 . S
C1814 C1816 1.327 . S
C1814 H1839 0.950 . S
C1815 C1814 1.349 . S
C1815 C1831 1.349 . S
C1816 C1814 1.327 . S
C1816 C1835 1.429 . S
C1816 H1840 0.950 . S
C1817 C1834 1.574 1_655 S
C1817 C1836 1.368 . S
C1817 H1841 0.949 . S
H1818 C1822 0.949 . S
C1819 C1820 1.349 . S
C1819 C1821 1.327 . S
C1819 H1842 0.950 . S
C1820 C1819 1.349 . S
C1820 C1832 1.349 . S
C1821 C1819 1.327 . S
C1821 C1837 1.429 . S
C1821 H1843 0.950 . S
C1822 H1818 0.949 . S
C1822 C1830 1.574 1_455 S
C1822 C1838 1.368 . S
H1823 C1831 0.950 . S
H1824 C1829 0.950 . S
H1825 C1830 0.949 . S
H1826 C1832 0.950 . S
H1827 C1833 0.950 . S
H1828 C1834 0.949 . S
C1829 H1824 0.950 . S
C1829 C1831 1.327 . S
C1829 C1835 1.429 . S
C1830 C1822 1.574 1_655 S
C1830 H1825 0.949 . S
C1830 C1836 1.368 . S
C1831 C1815 1.349 . S
C1831 H1823 0.950 . S
C1831 C1829 1.327 . S
C1832 C1820 1.349 . S
C1832 H1826 0.950 . S
C1832 C1833 1.327 . S
C1833 H1827 0.950 . S
C1833 C1832 1.327 . S
C1833 C1837 1.429 . S
C1834 C1817 1.574 1_455 S
C1834 H1828 0.949 . S
C1834 C1838 1.368 . S
C1835 C1816 1.429 . S
C1835 C1829 1.429 . S
C1835 C1836 1.523 . S
C1836 C1817 1.368 . S
C1836 C1830 1.368 . S
C1836 C1835 1.523 . S
C1837 C1821 1.429 . S
C1837 C1833 1.429 . S
C1837 C1838 1.523 . S
C1838 C1822 1.368 . S
C1838 C1834 1.368 . S
C1838 C1837 1.523 . S
H1839 C1814 0.950 . S
H1840 C1816 0.950 . S
H1841 C1817 0.949 . S
H1842 C1819 0.950 . S
H1843 C1821 0.950 . S
C1844 C1845 1.349 . S
C1844 C1846 1.327 . S
C1844 H1869 0.950 . S
C1845 C1844 1.349 . S
C1845 C1861 1.349 . S
C1846 C1844 1.327 . S
C1846 C1865 1.429 . S
C1846 H1870 0.950 . S
C1847 C1864 1.574 1_565 S
C1847 C1866 1.368 . S
C1847 H1871 0.949 . S
H1848 C1852 0.949 . S
C1849 C1850 1.349 . S
C1849 C1851 1.327 . S
C1849 H1872 0.950 . S
C1850 C1849 1.349 . S
C1850 C1862 1.349 . S
C1851 C1849 1.327 . S
C1851 C1867 1.429 . S
C1851 H1873 0.950 . S
C1852 H1848 0.949 . S
C1852 C1860 1.574 1_545 S
C1852 C1868 1.368 . S
H1853 C1861 0.950 . S
H1854 C1859 0.950 . S
H1855 C1860 0.949 . S
H1856 C1862 0.950 . S
H1857 C1863 0.950 . S
H1858 C1864 0.949 . S
C1859 H1854 0.950 . S
C1859 C1861 1.327 . S
C1859 C1865 1.429 . S
C1860 C1852 1.574 1_565 S
C1860 H1855 0.949 . S
C1860 C1866 1.368 . S
C1861 C1845 1.349 . S
C1861 H1853 0.950 . S
C1861 C1859 1.327 . S
C1862 C1850 1.349 . S
C1862 H1856 0.950 . S
C1862 C1863 1.327 . S
C1863 H1857 0.950 . S
C1863 C1862 1.327 . S
C1863 C1867 1.429 . S
C1864 C1847 1.574 1_545 S
C1864 H1858 0.949 . S
C1864 C1868 1.368 . S
C1865 C1846 1.429 . S
C1865 C1859 1.429 . S
C1865 C1866 1.523 . S
C1866 C1847 1.368 . S
C1866 C1860 1.368 . S
C1866 C1865 1.523 . S
C1867 C1851 1.429 . S
C1867 C1863 1.429 . S
C1867 C1868 1.523 . S
C1868 C1852 1.368 . S
C1868 C1864 1.368 . S
C1868 C1867 1.523 . S
H1869 C1844 0.950 . S
H1870 C1846 0.950 . S
H1871 C1847 0.949 . S
H1872 C1849 0.950 . S
H1873 C1851 0.950 . S
C1874 C1875 1.349 . S
C1874 C1876 1.327 . S
C1874 H1899 0.950 . S
C1875 C1874 1.349 . S
C1875 C1891 1.349 . S
C1876 C1874 1.327 . S
C1876 C1895 1.429 . S
C1876 H1900 0.950 . S
C1877 C1894 1.574 1_455 S
C1877 C1896 1.368 . S
C1877 H1901 0.949 . S
H1878 C1882 0.949 . S
C1879 C1880 1.349 . S
C1879 C1881 1.327 . S
C1879 H1902 0.950 . S
C1880 C1879 1.349 . S
C1880 C1892 1.349 . S
C1881 C1879 1.327 . S
C1881 C1897 1.429 . S
C1881 H1903 0.950 . S
C1882 H1878 0.949 . S
C1882 C1890 1.574 1_655 S
C1882 C1898 1.368 . S
H1883 C1891 0.950 . S
H1884 C1889 0.950 . S
H1885 C1890 0.949 . S
H1886 C1892 0.950 . S
H1887 C1893 0.950 . S
H1888 C1894 0.949 . S
C1889 H1884 0.950 . S
C1889 C1891 1.327 . S
C1889 C1895 1.429 . S
C1890 C1882 1.574 1_455 S
C1890 H1885 0.949 . S
C1890 C1896 1.368 . S
C1891 C1875 1.349 . S
C1891 H1883 0.950 . S
C1891 C1889 1.327 . S
C1892 C1880 1.349 . S
C1892 H1886 0.950 . S
C1892 C1893 1.327 . S
C1893 H1887 0.950 . S
C1893 C1892 1.327 . S
C1893 C1897 1.429 . S
C1894 C1877 1.574 1_655 S
C1894 H1888 0.949 . S
C1894 C1898 1.368 . S
C1895 C1876 1.429 . S
C1895 C1889 1.429 . S
C1895 C1896 1.523 . S
C1896 C1877 1.368 . S
C1896 C1890 1.368 . S
C1896 C1895 1.523 . S
C1897 C1881 1.429 . S
C1897 C1893 1.429 . S
C1897 C1898 1.523 . S
C1898 C1882 1.368 . S
C1898 C1894 1.368 . S
C1898 C1897 1.523 . S
H1899 C1874 0.950 . S
H1900 C1876 0.950 . S
H1901 C1877 0.949 . S
H1902 C1879 0.950 . S
H1903 C1881 0.950 . S
C945 C300 1.675 . S
C950 C5 1.675 . S
C975 C359 1.675 . S
C980 C64 1.675 . S
C1005 C123 1.675 . S
C1010 C418 1.675 . S
C1035 C182 1.675 . S
C1040 C241 1.675 . S
C1065 C772 1.675 . S
C1070 C477 1.675 . S
C1095 C831 1.675 . S
C1100 C536 1.675 . S
C1125 C595 1.675 . S
C1130 C890 1.675 . S
C1155 C654 1.675 . S
C1160 C713 1.675 . S
C1185 C593 1.564 . S
C1190 C3 1.564 . S
C1215 C652 1.564 . S
C1220 C62 1.564 . S
C1245 C475 1.564 . S
C1250 C121 1.564 . S
C1275 C180 1.564 . S
C1280 C534 1.564 . S
C1305 C829 1.564 . S
C1310 C239 1.564 . S
C1335 C888 1.564 . S
C1340 C298 1.564 . S
C1365 C357 1.564 . S
C1370 C711 1.564 . S
C1395 C770 1.564 . S
C1400 C416 1.564 . S
C1425 C269 0.490 . S
C1430 C33 0.490 . S
C1455 C92 0.490 . S
C1460 C328 0.490 . S
C1485 C151 0.490 . S
C1490 C387 0.490 . S
C1515 C446 0.490 . S
C1520 C210 0.490 . S
C1545 C524 2.458 . S
C1550 C760 2.458 . S
C1575 C819 2.458 . S
C1580 C583 2.458 . S
C1605 C642 2.458 . S
C1610 C878 2.458 . S
C1635 C937 2.458 . S
C1640 C701 2.458 . S
C1665 C682 0.490 . S
C1670 C800 0.490 . S
C1695 C505 0.490 . S
C1700 C859 0.490 . S
C1725 C918 0.490 . S
C1730 C564 0.490 . S
C1755 C623 0.490 . S
C1760 C741 0.490 . S
C1785 C347 2.458 . S
C1790 C229 2.458 . S
C1815 C406 2.458 . S
C1820 C52 2.458 . S
C1845 C465 2.458 . S
C1850 C111 2.458 . S
C1875 C288 2.458 . S
C1880 C170 2.458 . S
