# Generated by pormake.
# Topology unl, (4)-cn, num edge types: 1
# Building blocks:
#     Node 0, Type 0, BuildingBlock: QUQFOY_clean_sbu_1, # of connection points: 4
#     Node 1, Type 0, BuildingBlock: QUQFOY_clean_sbu_1, # of connection points: 4
#     Node 2, Type 0, BuildingBlock: QUQFOY_clean_sbu_1, # of connection points: 4
#     Node 3, Type 0, BuildingBlock: QUQFOY_clean_sbu_1, # of connection points: 4
#     Node 4, Type 0, BuildingBlock: QUQFOY_clean_sbu_1, # of connection points: 4
#     Node 5, Type 0, BuildingBlock: QUQFOY_clean_sbu_1, # of connection points: 4
#     Node 6, Type 0, BuildingBlock: QUQFOY_clean_sbu_1, # of connection points: 4
#     Node 7, Type 0, BuildingBlock: QUQFOY_clean_sbu_1, # of connection points: 4
#     Node 8, Type 0, BuildingBlock: QUQFOY_clean_sbu_1, # of connection points: 4
#     Node 9, Type 0, BuildingBlock: QUQFOY_clean_sbu_1, # of connection points: 4
#     Node 10, Type 0, BuildingBlock: QUQFOY_clean_sbu_1, # of connection points: 4
#     Node 11, Type 0, BuildingBlock: QUQFOY_clean_sbu_1, # of connection points: 4
#     Node 12, Type 0, BuildingBlock: QUQFOY_clean_sbu_1, # of connection points: 4
#     Node 13, Type 0, BuildingBlock: QUQFOY_clean_sbu_1, # of connection points: 4
#     Node 14, Type 0, BuildingBlock: QUQFOY_clean_sbu_1, # of connection points: 4
#     Node 15, Type 0, BuildingBlock: QUQFOY_clean_sbu_1, # of connection points: 4
#     Node 16, Type 0, BuildingBlock: QUQFOY_clean_sbu_1, # of connection points: 4
#     Node 17, Type 0, BuildingBlock: QUQFOY_clean_sbu_1, # of connection points: 4
#     Node 18, Type 0, BuildingBlock: QUQFOY_clean_sbu_1, # of connection points: 4
#     Node 19, Type 0, BuildingBlock: QUQFOY_clean_sbu_1, # of connection points: 4
#     Node 20, Type 0, BuildingBlock: QUQFOY_clean_sbu_1, # of connection points: 4
#     Node 21, Type 0, BuildingBlock: QUQFOY_clean_sbu_1, # of connection points: 4
#     Node 22, Type 0, BuildingBlock: QUQFOY_clean_sbu_1, # of connection points: 4
#     Node 23, Type 0, BuildingBlock: QUQFOY_clean_sbu_1, # of connection points: 4
#     Node 24, Type 0, BuildingBlock: QUQFOY_clean_sbu_1, # of connection points: 4
#     Node 25, Type 0, BuildingBlock: QUQFOY_clean_sbu_1, # of connection points: 4
#     Node 26, Type 0, BuildingBlock: QUQFOY_clean_sbu_1, # of connection points: 4
#     Node 27, Type 0, BuildingBlock: QUQFOY_clean_sbu_1, # of connection points: 4
#     Node 28, Type 0, BuildingBlock: QUQFOY_clean_sbu_1, # of connection points: 4
#     Node 29, Type 0, BuildingBlock: QUQFOY_clean_sbu_1, # of connection points: 4
#     Node 30, Type 0, BuildingBlock: QUQFOY_clean_sbu_1, # of connection points: 4
#     Node 31, Type 0, BuildingBlock: QUQFOY_clean_sbu_1, # of connection points: 4
#     Node 32, Type 0, BuildingBlock: QUQFOY_clean_sbu_1, # of connection points: 4
#     Node 33, Type 0, BuildingBlock: QUQFOY_clean_sbu_1, # of connection points: 4
#     Node 34, Type 0, BuildingBlock: QUQFOY_clean_sbu_1, # of connection points: 4
#     Node 35, Type 0, BuildingBlock: QUQFOY_clean_sbu_1, # of connection points: 4
#     Edge 36, Type (0, 0), BuildingBlock: TEMPAE_clean_linker_10, # of connection points: 2
#     Edge 37, Type (0, 0), BuildingBlock: TEMPAE_clean_linker_10, # of connection points: 2
#     Edge 38, Type (0, 0), BuildingBlock: TEMPAE_clean_linker_10, # of connection points: 2
#     Edge 39, Type (0, 0), BuildingBlock: TEMPAE_clean_linker_10, # of connection points: 2
#     Edge 40, Type (0, 0), BuildingBlock: TEMPAE_clean_linker_10, # of connection points: 2
#     Edge 41, Type (0, 0), BuildingBlock: TEMPAE_clean_linker_10, # of connection points: 2
#     Edge 42, Type (0, 0), BuildingBlock: TEMPAE_clean_linker_10, # of connection points: 2
#     Edge 43, Type (0, 0), BuildingBlock: TEMPAE_clean_linker_10, # of connection points: 2
#     Edge 44, Type (0, 0), BuildingBlock: TEMPAE_clean_linker_10, # of connection points: 2
#     Edge 45, Type (0, 0), BuildingBlock: TEMPAE_clean_linker_10, # of connection points: 2
#     Edge 46, Type (0, 0), BuildingBlock: TEMPAE_clean_linker_10, # of connection points: 2
#     Edge 47, Type (0, 0), BuildingBlock: TEMPAE_clean_linker_10, # of connection points: 2
#     Edge 48, Type (0, 0), BuildingBlock: TEMPAE_clean_linker_10, # of connection points: 2
#     Edge 49, Type (0, 0), BuildingBlock: TEMPAE_clean_linker_10, # of connection points: 2
#     Edge 50, Type (0, 0), BuildingBlock: TEMPAE_clean_linker_10, # of connection points: 2
#     Edge 51, Type (0, 0), BuildingBlock: TEMPAE_clean_linker_10, # of connection points: 2
#     Edge 52, Type (0, 0), BuildingBlock: TEMPAE_clean_linker_10, # of connection points: 2
#     Edge 53, Type (0, 0), BuildingBlock: TEMPAE_clean_linker_10, # of connection points: 2
#     Edge 54, Type (0, 0), BuildingBlock: TEMPAE_clean_linker_10, # of connection points: 2
#     Edge 55, Type (0, 0), BuildingBlock: TEMPAE_clean_linker_10, # of connection points: 2
#     Edge 56, Type (0, 0), BuildingBlock: TEMPAE_clean_linker_10, # of connection points: 2
#     Edge 57, Type (0, 0), BuildingBlock: TEMPAE_clean_linker_10, # of connection points: 2
#     Edge 58, Type (0, 0), BuildingBlock: TEMPAE_clean_linker_10, # of connection points: 2
#     Edge 59, Type (0, 0), BuildingBlock: TEMPAE_clean_linker_10, # of connection points: 2
#     Edge 60, Type (0, 0), BuildingBlock: TEMPAE_clean_linker_10, # of connection points: 2
#     Edge 61, Type (0, 0), BuildingBlock: TEMPAE_clean_linker_10, # of connection points: 2
#     Edge 62, Type (0, 0), BuildingBlock: TEMPAE_clean_linker_10, # of connection points: 2
#     Edge 63, Type (0, 0), BuildingBlock: TEMPAE_clean_linker_10, # of connection points: 2
#     Edge 64, Type (0, 0), BuildingBlock: TEMPAE_clean_linker_10, # of connection points: 2
#     Edge 65, Type (0, 0), BuildingBlock: TEMPAE_clean_linker_10, # of connection points: 2
#     Edge 66, Type (0, 0), BuildingBlock: TEMPAE_clean_linker_10, # of connection points: 2
#     Edge 67, Type (0, 0), BuildingBlock: TEMPAE_clean_linker_10, # of connection points: 2
#     Edge 68, Type (0, 0), BuildingBlock: TEMPAE_clean_linker_10, # of connection points: 2
#     Edge 69, Type (0, 0), BuildingBlock: TEMPAE_clean_linker_10, # of connection points: 2
#     Edge 70, Type (0, 0), BuildingBlock: TEMPAE_clean_linker_10, # of connection points: 2
#     Edge 71, Type (0, 0), BuildingBlock: TEMPAE_clean_linker_10, # of connection points: 2
#     Edge 72, Type (0, 0), BuildingBlock: TEMPAE_clean_linker_10, # of connection points: 2
#     Edge 73, Type (0, 0), BuildingBlock: TEMPAE_clean_linker_10, # of connection points: 2
#     Edge 74, Type (0, 0), BuildingBlock: TEMPAE_clean_linker_10, # of connection points: 2
#     Edge 75, Type (0, 0), BuildingBlock: TEMPAE_clean_linker_10, # of connection points: 2
#     Edge 76, Type (0, 0), BuildingBlock: TEMPAE_clean_linker_10, # of connection points: 2
#     Edge 77, Type (0, 0), BuildingBlock: TEMPAE_clean_linker_10, # of connection points: 2
#     Edge 78, Type (0, 0), BuildingBlock: TEMPAE_clean_linker_10, # of connection points: 2
#     Edge 79, Type (0, 0), BuildingBlock: TEMPAE_clean_linker_10, # of connection points: 2
#     Edge 80, Type (0, 0), BuildingBlock: TEMPAE_clean_linker_10, # of connection points: 2
#     Edge 81, Type (0, 0), BuildingBlock: TEMPAE_clean_linker_10, # of connection points: 2
#     Edge 82, Type (0, 0), BuildingBlock: TEMPAE_clean_linker_10, # of connection points: 2
#     Edge 83, Type (0, 0), BuildingBlock: TEMPAE_clean_linker_10, # of connection points: 2
#     Edge 84, Type (0, 0), BuildingBlock: TEMPAE_clean_linker_10, # of connection points: 2
#     Edge 85, Type (0, 0), BuildingBlock: TEMPAE_clean_linker_10, # of connection points: 2
#     Edge 86, Type (0, 0), BuildingBlock: TEMPAE_clean_linker_10, # of connection points: 2
#     Edge 87, Type (0, 0), BuildingBlock: TEMPAE_clean_linker_10, # of connection points: 2
#     Edge 88, Type (0, 0), BuildingBlock: TEMPAE_clean_linker_10, # of connection points: 2
#     Edge 89, Type (0, 0), BuildingBlock: TEMPAE_clean_linker_10, # of connection points: 2
#     Edge 90, Type (0, 0), BuildingBlock: TEMPAE_clean_linker_10, # of connection points: 2
#     Edge 91, Type (0, 0), BuildingBlock: TEMPAE_clean_linker_10, # of connection points: 2
#     Edge 92, Type (0, 0), BuildingBlock: TEMPAE_clean_linker_10, # of connection points: 2
#     Edge 93, Type (0, 0), BuildingBlock: TEMPAE_clean_linker_10, # of connection points: 2
#     Edge 94, Type (0, 0), BuildingBlock: TEMPAE_clean_linker_10, # of connection points: 2
#     Edge 95, Type (0, 0), BuildingBlock: TEMPAE_clean_linker_10, # of connection points: 2
#     Edge 96, Type (0, 0), BuildingBlock: TEMPAE_clean_linker_10, # of connection points: 2
#     Edge 97, Type (0, 0), BuildingBlock: TEMPAE_clean_linker_10, # of connection points: 2
#     Edge 98, Type (0, 0), BuildingBlock: TEMPAE_clean_linker_10, # of connection points: 2
#     Edge 99, Type (0, 0), BuildingBlock: TEMPAE_clean_linker_10, # of connection points: 2
#     Edge 100, Type (0, 0), BuildingBlock: TEMPAE_clean_linker_10, # of connection points: 2
#     Edge 101, Type (0, 0), BuildingBlock: TEMPAE_clean_linker_10, # of connection points: 2
#     Edge 102, Type (0, 0), BuildingBlock: TEMPAE_clean_linker_10, # of connection points: 2
#     Edge 103, Type (0, 0), BuildingBlock: TEMPAE_clean_linker_10, # of connection points: 2
#     Edge 104, Type (0, 0), BuildingBlock: TEMPAE_clean_linker_10, # of connection points: 2
#     Edge 105, Type (0, 0), BuildingBlock: TEMPAE_clean_linker_10, # of connection points: 2
#     Edge 106, Type (0, 0), BuildingBlock: TEMPAE_clean_linker_10, # of connection points: 2
#     Edge 107, Type (0, 0), BuildingBlock: TEMPAE_clean_linker_10, # of connection points: 2
# Relax obj value: 0.015
# Max RMSD: 0.070
# Mean RMSD: 0.070
data_MOF--net-unl--node1-QUQFOY_clean_sbu_1--edge1-TEMPAE_clean_linker_10
_symmetry_space_group_name_H-M    P1
_symmetry_Int_Tables_number       1
_symmetry_cell_setting            triclinic
loop_
_symmetry_equiv_pos_as_xyz
'x, y, z'
_cell_length_a     69.969946
_cell_length_b     69.972391
_cell_length_c     41.310331
_cell_angle_alpha  89.944728
_cell_angle_beta   90.045321
_cell_angle_gamma 120.00233
loop_
_atom_site_label
_atom_site_type_symbol
_atom_site_fract_x
_atom_site_fract_y
_atom_site_fract_z
_atom_type_partial_charge
O0 O 0.21756 0.1572 0.16219 0.0
Cd1 Cd 0.23735 0.15985 0.1236 0.0
Cd2 Cd 0.20044 0.1212 0.10536 0.0
O3 O 0.18766 0.12618 0.14787 0.0
O4 O 0.26877 0.17978 0.13675 0.0
O5 O 0.25463 0.14402 0.12755 0.0
C6 C 0.27123 0.1627 0.13636 0.0
C7 C 0.19248 0.08591 0.08923 0.0
C8 C 0.19767 0.14231 0.16735 0.0
C9 C 0.21609 0.16109 0.06145 0.0
O10 O 0.20267 0.14082 0.06678 0.0
O11 O 0.23175 0.17232 0.08113 0.0
O12 O 0.17777 0.09183 0.08848 0.0
O13 O 0.21162 0.09961 0.10106 0.0
O14 O 0.86888 0.07013 0.1544 0.0
Cd15 Cd 0.86408 0.08486 0.11403 0.0
Cd16 Cd 0.90356 0.08883 0.09944 0.0
O17 O 0.90222 0.0755 0.14445 0.0
O18 O 0.84183 0.09281 0.12924 0.0
O19 O 0.87548 0.11767 0.11344 0.0
C20 C 0.85663 0.11325 0.12533 0.0
C21 C 0.93576 0.11916 0.07931 0.0
C22 C 0.88527 0.06802 0.16248 0.0
C23 C 0.864 0.05845 0.05798 0.0
O24 O 0.88404 0.06572 0.06574 0.0
O25 O 0.85248 0.06518 0.07267 0.0
O26 O 0.93384 0.09992 0.08194 0.0
O27 O 0.91964 0.12156 0.08947 0.0
O28 O 0.95917 0.8009 0.14327 0.0
Cd29 Cd 0.93885 0.78387 0.10494 0.0
Cd30 Cd 0.93442 0.81905 0.10547 0.0
O31 O 0.94717 0.82413 0.15193 0.0
O32 O 0.92972 0.75233 0.11395 0.0
O33 O 0.90609 0.76466 0.11186 0.0
C34 C 0.90982 0.74863 0.11733 0.0
C35 C 0.90312 0.82126 0.09176 0.0
C36 C 0.95913 0.81601 0.16023 0.0
C37 C 0.96199 0.81474 0.05237 0.0
O38 O 0.95751 0.82733 0.06895 0.0
O39 O 0.9535 0.79444 0.05988 0.0
O40 O 0.92139 0.83858 0.09978 0.0
O41 O 0.90229 0.80241 0.09285 0.0
O42 O 0.1591 0.21826 0.34926 0.0
Cd43 Cd 0.16535 0.23794 0.3893 0.0
Cd44 Cd 0.12583 0.20292 0.40868 0.0
O45 O 0.12782 0.18938 0.36495 0.0
O46 O 0.18791 0.26773 0.37304 0.0
O47 O 0.15495 0.26016 0.39045 0.0
C48 C 0.17365 0.27403 0.37749 0.0
C49 C 0.09251 0.20021 0.4253 0.0
C50 C 0.14323 0.19885 0.34427 0.0
C51 C 0.16611 0.21397 0.44917 0.0
O52 O 0.14535 0.20215 0.44548 0.0
O53 O 0.17769 0.2295 0.42939 0.0
O54 O 0.09498 0.18317 0.42384 0.0
O55 O 0.10887 0.21897 0.41629 0.0
O56 O 0.80936 0.95082 0.34265 0.0
Cd57 Cd 0.78983 0.93548 0.3823 0.0
Cd58 Cd 0.82535 0.93139 0.39958 0.0
O59 O 0.83855 0.94846 0.35674 0.0
O60 O 0.75955 0.92731 0.36706 0.0
O61 O 0.76879 0.90257 0.38171 0.0
C62 C 0.7542 0.90688 0.37005 0.0
C63 C 0.82848 0.90062 0.41347 0.0
C64 C 0.82891 0.95493 0.33717 0.0
C65 C 0.81352 0.95855 0.44325 0.0
O66 O 0.82583 0.95032 0.43806 0.0
O67 O 0.79777 0.95476 0.42399 0.0
O68 O 0.84548 0.92016 0.4123 0.0
O69 O 0.80955 0.89829 0.40563 0.0
O70 O 0.06686 0.85329 0.36254 0.0
Cd71 Cd 0.08681 0.85523 0.40077 0.0
Cd72 Cd 0.09094 0.89511 0.40282 0.0
O73 O 0.07693 0.88844 0.35718 0.0
O74 O 0.09589 0.83306 0.38996 0.0
O75 O 0.11966 0.86883 0.39471 0.0
C76 C 0.11591 0.84923 0.38783 0.0
C77 C 0.12068 0.92957 0.41716 0.0
C78 C 0.06585 0.86859 0.3474 0.0
C79 C 0.06366 0.86105 0.45474 0.0
O80 O 0.06876 0.87886 0.43978 0.0
O81 O 0.07155 0.84903 0.44563 0.0
O82 O 0.10111 0.9266 0.41325 0.0
O83 O 0.12379 0.9132 0.41132 0.0
O84 O 0.79789 0.85336 0.85799 0.0
Cd85 Cd 0.78229 0.85599 0.89876 0.0
Cd86 Cd 0.81786 0.89593 0.9012 0.0
O87 O 0.82407 0.88842 0.85556 0.0
O88 O 0.74978 0.83511 0.89391 0.0
O89 O 0.76503 0.87149 0.89189 0.0
C90 C 0.74766 0.85221 0.88922 0.0
C91 C 0.81917 0.929 0.91511 0.0
C92 C 0.81445 0.86902 0.84381 0.0
C93 C 0.81391 0.86336 0.9519 0.0
O94 O 0.82629 0.88144 0.93737 0.0
O95 O 0.79397 0.85112 0.94285 0.0
O96 O 0.83679 0.92857 0.90729 0.0
O97 O 0.80055 0.91077 0.91355 0.0
O98 O 0.16918 0.95757 0.8555 0.0
Cd99 Cd 0.16523 0.93636 0.89255 0.0
Cd100 Cd 0.12519 0.93218 0.89624 0.0
O101 O 0.13398 0.94773 0.85116 0.0
O102 O 0.18526 0.92401 0.88521 0.0
O103 O 0.14879 0.90407 0.88179 0.0
C104 C 0.1678 0.90537 0.87891 0.0
C105 C 0.09074 0.90129 0.90733 0.0
C106 C 0.15379 0.95879 0.84102 0.0
C107 C 0.15764 0.95654 0.95025 0.0
O108 O 0.13957 0.9519 0.93645 0.0
O109 O 0.17028 0.95027 0.93807 0.0
O110 O 0.09277 0.92035 0.90168 0.0
O111 O 0.10813 0.89941 0.90474 0.0
O112 O 0.07446 0.2147 0.84637 0.0
Cd113 Cd 0.08899 0.23655 0.88398 0.0
Cd114 Cd 0.09247 0.20199 0.90848 0.0
O115 O 0.07478 0.18577 0.86717 0.0
O116 O 0.09771 0.26587 0.86419 0.0
O117 O 0.12189 0.25754 0.88464 0.0
C118 C 0.118 0.27148 0.86965 0.0
C119 C 0.12143 0.19715 0.92728 0.0
C120 C 0.06935 0.19457 0.84465 0.0
C121 C 0.0654 0.21736 0.94614 0.0
O122 O 0.07428 0.20539 0.94483 0.0
O123 O 0.06867 0.2312 0.92377 0.0
O124 O 0.10112 0.18172 0.92929 0.0
O125 O 0.12561 0.21529 0.91308 0.0
O126 O 0.85847 0.7974 0.6532 0.0
Cd127 Cd 0.86217 0.78225 0.61264 0.0
Cd128 Cd 0.90143 0.81887 0.61097 0.0
O129 O 0.89305 0.82464 0.65622 0.0
O130 O 0.84158 0.74968 0.61709 0.0
O131 O 0.87797 0.76532 0.61996 0.0
C132 C 0.85878 0.74778 0.6221 0.0
C133 C 0.93502 0.821 0.59822 0.0
C134 C 0.87356 0.8143 0.66757 0.0
C135 C 0.869 0.81349 0.55918 0.0
O136 O 0.88668 0.82647 0.57416 0.0
O137 O 0.85731 0.79347 0.56817 0.0
O138 O 0.93403 0.83842 0.60542 0.0
O139 O 0.91703 0.80215 0.59974 0.0
O140 O 0.22697 0.06432 0.63947 0.0
Cd141 Cd 0.24585 0.08469 0.60263 0.0
Cd142 Cd 0.2099 0.0886 0.59313 0.0
O143 O 0.20035 0.07261 0.63786 0.0
O144 O 0.27776 0.09688 0.61342 0.0
O145 O 0.26168 0.11729 0.61153 0.0
C146 C 0.27905 0.11579 0.61735 0.0
C147 C 0.20389 0.11763 0.57876 0.0
C148 C 0.2092 0.06238 0.65085 0.0
C149 C 0.22089 0.06339 0.54334 0.0
O150 O 0.20738 0.06901 0.55399 0.0
O151 O 0.23895 0.06926 0.55806 0.0
O152 O 0.18789 0.09759 0.58104 0.0
O153 O 0.2234 0.12161 0.58668 0.0
O154 O 0.95229 0.1514 0.66584 0.0
Cd155 Cd 0.93765 0.15717 0.62623 0.0
Cd156 Cd 0.93624 0.11885 0.60772 0.0
O157 O 0.94931 0.11942 0.65275 0.0
O158 O 0.92964 0.17896 0.64346 0.0
O159 O 0.90481 0.14595 0.62557 0.0
C160 C 0.9092 0.16445 0.63876 0.0
C161 C 0.90761 0.08638 0.58513 0.0
C162 C 0.95553 0.13546 0.67234 0.0
C163 C 0.96534 0.16066 0.56952 0.0
O164 O 0.95907 0.14056 0.57537 0.0
O165 O 0.95785 0.17091 0.5858 0.0
O166 O 0.9274 0.08968 0.58762 0.0
O167 O 0.90367 0.10118 0.59683 0.0
O168 O 0.8875 0.49079 0.48675 0.0
Cd169 Cd 0.9077 0.49413 0.44846 0.0
Cd170 Cd 0.87214 0.45559 0.42911 0.0
O171 O 0.85828 0.45959 0.47127 0.0
O172 O 0.9389 0.51423 0.46222 0.0
O173 O 0.92521 0.47859 0.45236 0.0
C174 C 0.94157 0.49728 0.46168 0.0
C175 C 0.86672 0.42107 0.41325 0.0
C176 C 0.86768 0.47553 0.49119 0.0
C177 C 0.88668 0.49554 0.38615 0.0
O178 O 0.87371 0.47507 0.39071 0.0
O179 O 0.90202 0.50677 0.40628 0.0
O180 O 0.85104 0.42564 0.41216 0.0
O181 O 0.88545 0.43576 0.42517 0.0
O182 O 0.52736 0.39939 0.47481 0.0
Cd183 Cd 0.52897 0.41922 0.43671 0.0
Cd184 Cd 0.56858 0.42325 0.43396 0.0
O185 O 0.56256 0.40961 0.47992 0.0
O186 O 0.50699 0.42842 0.44818 0.0
O187 O 0.54273 0.4521 0.44243 0.0
C188 C 0.52324 0.44843 0.44992 0.0
C189 C 0.60258 0.45309 0.41777 0.0
C190 C 0.54272 0.3984 0.48977 0.0
C191 C 0.53378 0.39516 0.38342 0.0
O192 O 0.55176 0.40041 0.398 0.0
O193 O 0.52205 0.40343 0.39229 0.0
O194 O 0.60003 0.43375 0.42259 0.0
O195 O 0.58607 0.45594 0.42389 0.0
O196 O 0.62597 0.13174 0.48104 0.0
Cd197 Cd 0.60577 0.11295 0.44411 0.0
Cd198 Cd 0.6009 0.14838 0.43705 0.0
O199 O 0.61704 0.15781 0.48167 0.0
O200 O 0.59627 0.08191 0.45694 0.0
O201 O 0.57294 0.09437 0.45065 0.0
C202 C 0.57639 0.0785 0.45881 0.0
C203 C 0.56955 0.15098 0.42498 0.0
C204 C 0.62774 0.14913 0.49347 0.0
C205 C 0.62636 0.13912 0.38547 0.0
O206 O 0.62052 0.15226 0.39715 0.0
O207 O 0.62098 0.1209 0.39944 0.0
O208 O 0.58862 0.16834 0.42892 0.0
O209 O 0.56796 0.13197 0.42951 0.0
O210 O 0.8251 0.5469 0.67605 0.0
Cd211 Cd 0.82982 0.56639 0.7164 0.0
Cd212 Cd 0.79136 0.52938 0.73209 0.0
O213 O 0.79246 0.51798 0.68659 0.0
O214 O 0.85162 0.59657 0.70051 0.0
O215 O 0.81802 0.58749 0.71683 0.0
C216 C 0.83669 0.602 0.70448 0.0
C217 C 0.75887 0.52558 0.75425 0.0
C218 C 0.80908 0.52812 0.6681 0.0
C219 C 0.83218 0.54088 0.772 0.0
O220 O 0.81237 0.52711 0.7645 0.0
O221 O 0.84264 0.55933 0.75739 0.0
O222 O 0.76185 0.50894 0.75101 0.0
O223 O 0.77403 0.5445 0.74351 0.0
O224 O 0.4727 0.28776 0.68889 0.0
Cd225 Cd 0.45529 0.26715 0.72681 0.0
Cd226 Cd 0.49065 0.26319 0.72688 0.0
O227 O 0.49613 0.27597 0.68043 0.0
O228 O 0.4238 0.25799 0.71732 0.0
O229 O 0.43618 0.23441 0.71958 0.0
C230 C 0.42014 0.2381 0.7139 0.0
C231 C 0.49303 0.23216 0.74174 0.0
C232 C 0.48805 0.28798 0.67219 0.0
C233 C 0.48571 0.29064 0.77941 0.0
O234 O 0.49854 0.28644 0.76293 0.0
O235 O 0.46537 0.28173 0.77198 0.0
O236 O 0.51033 0.25041 0.73354 0.0
O237 O 0.47411 0.23115 0.74002 0.0
O238 O 0.73569 0.18927 0.69552 0.0
Cd239 Cd 0.75647 0.19278 0.73354 0.0
Cd240 Cd 0.76004 0.23194 0.73444 0.0
O241 O 0.74692 0.22459 0.68816 0.0
O242 O 0.7678 0.17184 0.72683 0.0
O243 O 0.78897 0.20819 0.7239 0.0
C244 C 0.78692 0.18884 0.72119 0.0
C245 C 0.78954 0.26608 0.7506 0.0
C246 C 0.73527 0.20455 0.67931 0.0
C247 C 0.73306 0.19906 0.78677 0.0
O248 O 0.73708 0.21607 0.77047 0.0
O249 O 0.74215 0.18788 0.77902 0.0
O250 O 0.77038 0.26357 0.74419 0.0
O251 O 0.79251 0.24951 0.7457 0.0
O252 O 0.46743 0.18847 0.18774 0.0
Cd253 Cd 0.45114 0.18844 0.22953 0.0
Cd254 Cd 0.48747 0.2283 0.23541 0.0
O255 O 0.49545 0.22258 0.18998 0.0
O256 O 0.41978 0.16595 0.21991 0.0
O257 O 0.43093 0.20123 0.22846 0.0
C258 C 0.41531 0.18173 0.22064 0.0
C259 C 0.48987 0.26188 0.24896 0.0
C260 C 0.48503 0.2041 0.1757 0.0
C261 C 0.48146 0.19309 0.28341 0.0
O262 O 0.49402 0.2121 0.27143 0.0
O263 O 0.46206 0.18088 0.27221 0.0
O264 O 0.50726 0.26051 0.24324 0.0
O265 O 0.47087 0.24417 0.24621 0.0
O266 O 0.82834 0.28449 0.17977 0.0
Cd267 Cd 0.8311 0.26772 0.21879 0.0
Cd268 Cd 0.79223 0.26527 0.23638 0.0
O269 O 0.79716 0.28309 0.19388 0.0
O270 O 0.85149 0.25668 0.20634 0.0
O271 O 0.81578 0.23461 0.2154 0.0
C272 C 0.83463 0.23699 0.20694 0.0
C273 C 0.75713 0.23697 0.25154 0.0
C274 C 0.81333 0.2893 0.17444 0.0
C275 C 0.83164 0.29008 0.2807 0.0
O276 O 0.81129 0.2828 0.2753 0.0
O277 O 0.84315 0.286 0.26111 0.0
O278 O 0.76234 0.2574 0.25247 0.0
O279 O 0.77149 0.23229 0.24014 0.0
O280 O 0.74058 0.55202 0.18441 0.0
Cd281 Cd 0.75688 0.57204 0.22314 0.0
Cd282 Cd 0.76029 0.53667 0.24243 0.0
O283 O 0.74293 0.52299 0.19983 0.0
O284 O 0.76795 0.60336 0.20973 0.0
O285 O 0.78999 0.58979 0.21981 0.0
C286 C 0.78761 0.60612 0.21046 0.0
C287 C 0.78967 0.53162 0.25817 0.0
C288 C 0.73637 0.53233 0.17978 0.0
C289 C 0.73394 0.5502 0.28495 0.0
O290 O 0.74185 0.53756 0.2806 0.0
O291 O 0.73798 0.5656 0.26493 0.0
O292 O 0.7695 0.51575 0.25908 0.0
O293 O 0.79346 0.55037 0.2467 0.0
O294 O 0.52615 0.13159 0.98318 0.0
Cd295 Cd 0.52943 0.11615 0.94265 0.0
Cd296 Cd 0.5689 0.15259 0.9401 0.0
O297 O 0.56075 0.15888 0.98512 0.0
O298 O 0.50901 0.08358 0.94779 0.0
O299 O 0.54543 0.09937 0.94976 0.0
C300 C 0.5263 0.0818 0.95252 0.0
C301 C 0.6029 0.15546 0.92807 0.0
C302 C 0.5414 0.14868 0.99698 0.0
C303 C 0.5362 0.14701 0.88848 0.0
O304 O 0.55418 0.15988 0.90288 0.0
O305 O 0.52423 0.12718 0.89819 0.0
O306 O 0.60139 0.17266 0.93475 0.0
O307 O 0.58517 0.1364 0.92958 0.0
O308 O 0.88848 0.40385 0.99143 0.0
Cd309 Cd 0.90791 0.41834 0.95147 0.0
Cd310 Cd 0.87303 0.42298 0.93382 0.0
O311 O 0.85972 0.40694 0.97737 0.0
O312 O 0.93811 0.42642 0.96685 0.0
O313 O 0.92907 0.45118 0.95149 0.0
C314 C 0.94354 0.44686 0.96357 0.0
C315 C 0.87148 0.45443 0.91869 0.0
C316 C 0.86921 0.40045 0.99718 0.0
C317 C 0.88391 0.39467 0.89114 0.0
O318 O 0.87183 0.40319 0.89601 0.0
O319 O 0.89969 0.39851 0.91036 0.0
O320 O 0.85398 0.43525 0.9201 0.0
O321 O 0.89002 0.45603 0.92703 0.0
O322 O 0.62132 0.48796 0.99624 0.0
Cd323 Cd 0.60688 0.49214 0.95552 0.0
Cd324 Cd 0.60333 0.45251 0.93948 0.0
O325 O 0.61942 0.45646 0.9833 0.0
O326 O 0.5988 0.51451 0.96949 0.0
O327 O 0.57406 0.48059 0.95466 0.0
C328 C 0.57838 0.49958 0.96586 0.0
C329 C 0.57296 0.41852 0.92505 0.0
C330 C 0.62533 0.47256 1.00268 0.0
C331 C 0.63093 0.49151 0.89585 0.0
O332 O 0.62279 0.47101 0.90136 0.0
O333 O 0.6268 0.50345 0.91454 0.0
O334 O 0.59253 0.42119 0.92709 0.0
O335 O 0.57036 0.43503 0.9323 0.0
O336 O 0.54706 0.81749 0.83154 0.0
Cd337 Cd 0.56649 0.82185 0.79123 0.0
Cd338 Cd 0.53001 0.78281 0.77703 0.0
O339 O 0.51854 0.78438 0.82219 0.0
O340 O 0.59669 0.84403 0.80661 0.0
O341 O 0.58773 0.81022 0.79162 0.0
C342 C 0.6022 0.82909 0.80343 0.0
C343 C 0.52742 0.75035 0.75718 0.0
C344 C 0.52848 0.80137 0.84004 0.0
C345 C 0.54042 0.82258 0.73513 0.0
O346 O 0.52706 0.80279 0.74336 0.0
O347 O 0.55889 0.83364 0.74952 0.0
O348 O 0.51037 0.75276 0.75922 0.0
O349 O 0.54608 0.76614 0.76764 0.0
O350 O 0.18899 0.7322 0.81453 0.0
Cd351 Cd 0.1917 0.75201 0.77574 0.0
Cd352 Cd 0.231 0.75462 0.7746 0.0
O353 O 0.22383 0.74126 0.82062 0.0
O354 O 0.17002 0.7618 0.78589 0.0
O355 O 0.20595 0.78496 0.78124 0.0
C356 C 0.18648 0.78167 0.78793 0.0
C357 C 0.26617 0.78279 0.75957 0.0
C358 C 0.20389 0.73079 0.83019 0.0
C359 C 0.19649 0.72745 0.72307 0.0
O360 O 0.21409 0.73214 0.73833 0.0
O361 O 0.18505 0.73616 0.73136 0.0
O362 O 0.26207 0.7629 0.76438 0.0
O363 O 0.25057 0.78715 0.76493 0.0
O364 O 0.29504 0.46471 0.80608 0.0
Cd365 Cd 0.27457 0.44772 0.76826 0.0
Cd366 Cd 0.26993 0.48326 0.76441 0.0
O367 O 0.28518 0.49007 0.80972 0.0
O368 O 0.26219 0.4153 0.77541 0.0
O369 O 0.24207 0.43165 0.77752 0.0
C370 C 0.24338 0.41397 0.7808 0.0
C371 C 0.23844 0.48582 0.75336 0.0
C372 C 0.29612 0.4813 0.82034 0.0
C373 C 0.29562 0.4763 0.71131 0.0
O374 O 0.29026 0.48932 0.72469 0.0
O375 O 0.28949 0.45737 0.7234 0.0
O376 O 0.25723 0.50316 0.75914 0.0
O377 O 0.2372 0.46682 0.7555 0.0
O378 O 0.49068 0.88039 0.01754 0.0
Cd379 Cd 0.49847 0.90229 0.05518 0.0
Cd380 Cd 0.46064 0.8669 0.08066 0.0
O381 O 0.46286 0.85088 0.03982 0.0
O382 O 0.5195 0.93135 0.03499 0.0
O383 O 0.48739 0.924 0.0557 0.0
C384 C 0.50525 0.93752 0.04047 0.0
C385 C 0.42584 0.85961 0.09846 0.0
C386 C 0.47634 0.85999 0.01657 0.0
C387 C 0.50346 0.88365 0.11781 0.0
O388 O 0.48258 0.87175 0.1173 0.0
O389 O 0.5137 0.89691 0.09469 0.0
O390 O 0.43231 0.84543 0.10175 0.0
O391 O 0.43886 0.87794 0.08391 0.0
O392 O 0.13568 0.62235 0.03382 0.0
Cd393 Cd 0.11968 0.60024 0.07081 0.0
Cd394 Cd 0.15467 0.59616 0.06705 0.0
O395 O 0.15771 0.60943 0.02122 0.0
O396 O 0.08696 0.58758 0.0661 0.0
O397 O 0.1039 0.56845 0.05763 0.0
C398 C 0.08594 0.56941 0.05709 0.0
C399 C 0.15658 0.56441 0.07871 0.0
C400 C 0.14996 0.62208 0.0151 0.0
C401 C 0.15154 0.62202 0.1229 0.0
O402 O 0.16413 0.61881 0.10425 0.0
O403 O 0.13096 0.61276 0.11687 0.0
O404 O 0.17385 0.58247 0.06978 0.0
O405 O 0.13797 0.56406 0.07946 0.0
O406 O 0.40292 0.52041 0.02353 0.0
Cd407 Cd 0.42392 0.52458 0.06095 0.0
Cd408 Cd 0.42781 0.5645 0.06419 0.0
O409 O 0.41207 0.55543 0.01928 0.0
O410 O 0.43594 0.50425 0.05436 0.0
O411 O 0.45634 0.54067 0.05102 0.0
C412 C 0.4548 0.52154 0.04847 0.0
C413 C 0.45877 0.59908 0.07446 0.0
C414 C 0.40134 0.5356 0.0091 0.0
C415 C 0.40331 0.53211 0.1182 0.0
O416 O 0.4081 0.55026 0.1045 0.0
O417 O 0.40956 0.51945 0.10608 0.0
O418 O 0.43965 0.59697 0.06906 0.0
O419 O 0.46063 0.58167 0.07226 0.0
O420 O 0.13817 0.5266 0.5186 0.0
Cd421 Cd 0.12114 0.52549 0.56011 0.0
Cd422 Cd 0.15673 0.5656 0.5675 0.0
O423 O 0.16565 0.56093 0.52209 0.0
O424 O 0.09015 0.50252 0.5495 0.0
O425 O 0.10027 0.53748 0.55896 0.0
C426 C 0.08512 0.51791 0.55047 0.0
C427 C 0.15786 0.59845 0.58194 0.0
C428 C 0.15573 0.54264 0.5072 0.0
C429 C 0.15091 0.53003 0.61462 0.0
O430 O 0.1633 0.54929 0.60331 0.0
O431 O 0.13176 0.51765 0.60276 0.0
O432 O 0.17565 0.59776 0.57662 0.0
O433 O 0.13917 0.58049 0.57823 0.0
O434 O 0.50771 0.62473 0.52367 0.0
Cd435 Cd 0.50467 0.60338 0.56004 0.0
Cd436 Cd 0.46492 0.60071 0.56764 0.0
O437 O 0.47328 0.61799 0.52394 0.0
O438 O 0.52398 0.59066 0.54992 0.0
O439 O 0.48742 0.57096 0.54997 0.0
C440 C 0.50618 0.57203 0.54507 0.0
C441 C 0.42879 0.57306 0.57972 0.0
C442 C 0.49263 0.62773 0.51184 0.0
C443 C 0.50007 0.62328 0.62004 0.0
O444 O 0.48139 0.61849 0.60841 0.0
O445 O 0.51242 0.61762 0.60541 0.0
O446 O 0.43428 0.59357 0.5786 0.0
O447 O 0.44347 0.56787 0.57177 0.0
O448 O 0.4009 0.88813 0.53435 0.0
Cd449 Cd 0.4217 0.90578 0.57144 0.0
Cd450 Cd 0.42588 0.87017 0.57713 0.0
O451 O 0.4106 0.86261 0.5318 0.0
O452 O 0.43427 0.93808 0.56289 0.0
O453 O 0.45405 0.92132 0.56133 0.0
C454 C 0.45289 0.93903 0.55728 0.0
C455 C 0.45725 0.86769 0.58964 0.0
C456 C 0.39964 0.87126 0.52077 0.0
C457 C 0.40035 0.87833 0.62909 0.0
O458 O 0.40539 0.86489 0.61638 0.0
O459 O 0.40691 0.8972 0.61646 0.0
O460 O 0.43844 0.85029 0.58415 0.0
O461 O 0.4586 0.88667 0.58627 0.0
O462 O 0.1976 0.46972 0.31765 0.0
Cd463 Cd 0.1989 0.4526 0.27762 0.0
Cd464 Cd 0.23788 0.49001 0.27034 0.0
O465 O 0.2314 0.49851 0.31492 0.0
O466 O 0.17863 0.42045 0.28615 0.0
O467 O 0.21501 0.43578 0.28376 0.0
C468 C 0.19596 0.41852 0.28898 0.0
C469 C 0.27294 0.49703 0.255 0.0
C470 C 0.21281 0.48793 0.32902 0.0
C471 C 0.20174 0.48023 0.22159 0.0
O472 O 0.22034 0.49377 0.2337 0.0
O473 O 0.19041 0.46093 0.23342 0.0
O474 O 0.26852 0.51272 0.25818 0.0
O475 O 0.25777 0.47723 0.26232 0.0
O476 O 0.55929 0.73245 0.30595 0.0
Cd477 Cd 0.57633 0.75318 0.26785 0.0
Cd478 Cd 0.54125 0.75746 0.2676 0.0
O479 O 0.53612 0.74472 0.31413 0.0
O480 O 0.60876 0.76518 0.27448 0.0
O481 O 0.59273 0.78555 0.27805 0.0
C482 C 0.61031 0.78399 0.28073 0.0
C483 C 0.5378 0.78783 0.25222 0.0
C484 C 0.54417 0.73271 0.32272 0.0
C485 C 0.54604 0.73005 0.21493 0.0
O486 O 0.53332 0.73425 0.23158 0.0
O487 O 0.56638 0.73898 0.2223 0.0
O488 O 0.52075 0.76897 0.25878 0.0
O489 O 0.55705 0.78992 0.25628 0.0
O490 O 0.29074 0.8301 0.32023 0.0
Cd491 Cd 0.26933 0.82577 0.28327 0.0
Cd492 Cd 0.26637 0.78628 0.27943 0.0
O493 O 0.2818 0.79514 0.32451 0.0
O494 O 0.25702 0.84581 0.29059 0.0
O495 O 0.23698 0.80936 0.29391 0.0
C496 C 0.23833 0.82839 0.29678 0.0
C497 C 0.23636 0.7513 0.268 0.0
C498 C 0.2925 0.81498 0.33459 0.0
C499 C 0.29061 0.81933 0.22599 0.0
O500 O 0.28633 0.80133 0.23969 0.0
O501 O 0.28357 0.83141 0.23794 0.0
O502 O 0.25572 0.75411 0.2737 0.0
O503 O 0.23368 0.76821 0.27065 0.0
C504 C 0.17518 0.05827 0.04548 0.0
C505 C 0.18802 0.06508 0.07366 0.0
C506 C 0.17161 0.03942 0.02858 0.0
C507 C 0.18034 0.02646 0.04087 0.0
C508 C 0.1928 0.03288 0.06994 0.0
C509 C 0.19693 0.05246 0.08566 0.0
C510 C 0.15887 0.03368 0.99713 0.0
C511 C 0.2016 0.01902 0.08447 0.0
C512 C 0.15054 0.96972 1.00253 0.0
C513 C 0.16521 0.97202 0.97778 0.0
C514 C 0.15624 0.98654 0.02547 0.0
C515 C 0.1766 1.00654 0.02251 0.0
C516 C 0.19189 1.00844 0.99844 0.0
C517 C 0.18615 0.99095 0.97673 0.0
C518 C 0.13985 0.98345 0.05157 0.0
C519 C 0.21342 0.02968 0.99357 0.0
H520 H 0.16851 0.06818 0.03595 0.0
H521 H 0.2068 0.0577 0.10754 0.0
H522 H 0.16888 0.03237 0.97736 0.0
H523 H 0.14358 0.01743 0.99928 0.0
H524 H 0.15422 0.04615 0.99009 0.0
H525 H 0.20984 0.02558 0.10814 0.0
H526 H 0.18793 1.00183 0.08794 0.0
H527 H 0.21363 0.01833 0.06773 0.0
H528 H 0.13436 0.95503 0.00335 0.0
H529 H 0.19736 0.99282 0.95728 0.0
H530 H 0.13147 0.99285 0.04519 0.0
H531 H 0.14835 0.98987 0.07508 0.0
H532 H 0.12705 0.96582 0.05457 0.0
H533 H 0.20998 0.04247 0.98391 0.0
H534 H 0.22448 0.02769 0.97633 0.0
H535 H 0.22224 0.03588 0.01688 0.0
C536 C 0.96702 0.13215 0.04059 0.0
C537 C 0.95532 0.13731 0.06312 0.0
C538 C 0.98509 0.14873 0.02373 0.0
C539 C 0.99216 0.17119 0.03019 0.0
C540 C 0.98065 0.17658 0.05332 0.0
C541 C 0.9621 0.15953 0.06918 0.0
C542 C 0.99651 0.14215 0.99877 0.0
C543 C 0.98809 0.20029 0.06156 0.0
C544 C 0.05122 0.20582 1.00218 0.0
C545 C 0.0483 0.21194 0.97106 0.0
C546 C 0.03325 0.19462 0.02332 0.0
C547 C 1.01175 0.18868 0.01257 0.0
C548 C 1.00903 0.19641 0.98214 0.0
C549 C 0.02744 0.20825 0.96189 0.0
C550 C 0.03706 0.1874 0.05597 0.0
C551 C 0.98642 0.19012 0.96937 0.0
H552 H 0.9617 0.115 0.03553 0.0
H553 H 0.95313 0.16357 0.08667 0.0
H554 H 0.99692 0.14985 0.97508 0.0
H555 H 0.01384 0.14818 0.00616 0.0
H556 H 0.98822 0.12398 0.99543 0.0
H557 H 0.9775 0.20173 0.08028 0.0
H558 H 1.00535 0.20858 0.07053 0.0
H559 H 0.98791 0.20929 0.03956 0.0
H560 H 0.06737 0.2087 0.00931 0.0
H561 H 0.0251 0.21271 0.93767 0.0
H562 H 0.03211 0.16967 0.055 0.0
H563 H 0.02689 0.18937 0.07483 0.0
H564 H 0.05469 0.19692 0.06327 0.0
H565 H 0.97781 0.17252 0.96197 0.0
H566 H 0.98732 0.20025 0.94807 0.0
H567 H 0.97626 0.19195 0.98836 0.0
C568 C 0.84651 0.86279 0.97458 0.0
C569 C 0.82392 0.85568 0.97668 0.0
C570 C 0.85664 0.85514 0.99616 0.0
C571 C 0.84405 0.84044 0.02128 0.0
C572 C 0.82128 0.83348 0.02404 0.0
C573 C 0.81136 0.8409 1.00131 0.0
C574 C 0.88082 0.86262 0.99171 0.0
C575 C 0.8075 0.81834 0.05105 0.0
C576 C 0.87096 0.80898 0.05446 0.0
C577 C 0.88466 0.82348 0.07853 0.0
C578 C 0.85642 0.81347 0.0369 0.0
C579 C 0.85514 0.83259 0.04425 0.0
C580 C 0.86749 0.84614 0.07055 0.0
C581 C 0.88238 0.84164 0.08701 0.0
C582 C 0.84398 0.79884 0.00864 0.0
C583 C 0.86615 0.86629 0.07986 0.0
H584 H 0.85628 0.87396 0.95533 0.0
H585 H 0.79391 0.83539 0.00304 0.0
H586 H 0.89029 0.87195 0.01332 0.0
H587 H 0.88308 0.84808 0.98917 0.0
H588 H 0.88799 0.87331 0.97007 0.0
H589 H 0.7902 0.81493 0.05039 0.0
H590 H 0.80735 0.80244 0.04949 0.0
H591 H 0.81487 0.82583 0.07478 0.0
H592 H 0.87274 0.79498 0.04772 0.0
H593 H 0.8928 0.85277 0.10584 0.0
H594 H 0.85155 0.80768 0.98572 0.0
H595 H 0.82655 0.79493 0.00868 0.0
H596 H 0.84433 0.78314 0.00883 0.0
H597 H 0.87523 0.87957 0.06182 0.0
H598 H 0.87347 0.87264 0.1041 0.0
H599 H 0.84875 0.86254 0.07993 0.0
C600 C 0.98168 0.1802 0.5171 0.0
C601 C 0.98409 0.17252 0.54727 0.0
C602 C 0.99877 0.18785 0.49396 0.0
C603 C 0.01858 0.18788 0.50152 0.0
C604 C 0.02139 0.18134 0.5328 0.0
C605 C 1.00403 0.17355 0.55511 0.0
C606 C 0.9951 0.19459 0.46089 0.0
C607 C 0.04226 0.18132 0.54217 0.0
C608 C 0.053 0.17743 0.4413 0.0
C609 C 0.07212 0.19821 0.43938 0.0
C610 C 0.03464 0.17428 0.45927 0.0
C611 C 0.03552 0.19229 0.47623 0.0
C612 C 0.05419 0.21363 0.47257 0.0
C613 C 0.07226 0.21638 0.45398 0.0
C614 C 0.01494 0.1513 0.46199 0.0
C615 C 0.05581 0.23324 0.49025 0.0
H616 H 0.96611 0.17915 0.51102 0.0
H617 H 1.00577 0.16753 0.57851 0.0
H618 H 1.00986 0.21008 0.4529 0.0
H619 H 0.99236 0.18159 0.4431 0.0
H620 H 0.98054 0.19695 0.46043 0.0
H621 H 0.04265 0.17783 0.56833 0.0
H622 H 0.04357 0.16855 0.52802 0.0
H623 H 0.05696 0.19749 0.53645 0.0
H624 H 0.05268 0.16337 0.42972 0.0
H625 H 0.08699 0.23249 0.45257 0.0
H626 H 0.99938 0.15162 0.45855 0.0
H627 H 0.01449 0.14468 0.48657 0.0
H628 H 0.01553 0.13982 0.44398 0.0
H629 H 0.04011 0.23346 0.48839 0.0
H630 H 0.06944 0.24908 0.48076 0.0
H631 H 0.05891 0.23204 0.51632 0.0
C632 C 0.85031 0.88177 0.42191 0.0
C633 C 0.83067 0.88214 0.42654 0.0
C634 C 0.85454 0.86698 0.43914 0.0
C635 C 0.83911 0.8528 0.46247 0.0
C636 C 0.81861 0.85213 0.46567 0.0
C637 C 0.8145 0.86663 0.44726 0.0
C638 C 0.8763 0.86777 0.43417 0.0
C639 C 0.80188 0.83769 0.49071 0.0
C640 C 0.84873 0.81044 0.50717 0.0
C641 C 0.86103 0.82284 0.5339 0.0
C642 C 0.84152 0.81991 0.48339 0.0
C643 C 0.8461 0.84196 0.48717 0.0
C644 C 0.85803 0.85423 0.51463 0.0
C645 C 0.8656 0.84466 0.53727 0.0
C646 C 0.82942 0.80654 0.45399 0.0
C647 C 0.86283 0.87758 0.52021 0.0
H648 H 0.86276 0.89364 0.40565 0.0
H649 H 0.79935 0.867 0.45103 0.0
H650 H 0.88752 0.8767 0.45464 0.0
H651 H 0.87392 0.85086 0.43365 0.0
H652 H 0.88447 0.87638 0.41135 0.0
H653 H 0.78559 0.83646 0.48677 0.0
H654 H 0.79965 0.82085 0.49056 0.0
H655 H 0.80795 0.84477 0.51511 0.0
H656 H 0.8452 0.79357 0.50451 0.0
H657 H 0.87481 0.8542 0.55817 0.0
H658 H 0.839 0.81479 0.43185 0.0
H659 H 0.81319 0.80562 0.45167 0.0
H660 H 0.82674 0.78951 0.45495 0.0
H661 H 0.8737 0.88852 0.50072 0.0
H662 H 0.87102 0.8843 0.54385 0.0
H663 H 0.84728 0.87818 0.51941 0.0
C664 C 0.13294 0.96045 0.45609 0.0
C665 C 0.13827 0.95046 0.43106 0.0
C666 C 0.14924 0.97959 0.47132 0.0
C667 C 0.17136 0.98961 0.46033 0.0
C668 C 0.17676 0.97994 0.43434 0.0
C669 C 0.16019 0.96012 0.42047 0.0
C670 C 0.1428 0.98882 0.49967 0.0
C671 C 0.19992 0.99062 0.42105 0.0
C672 C 0.2028 0.04872 0.48996 0.0
C673 C 0.21333 0.04665 0.51747 0.0
C674 C 0.19093 0.03075 0.46903 0.0
C675 C 0.18861 0.00995 0.47681 0.0
C676 C 0.20025 1.00816 0.50366 0.0
C677 C 0.21283 0.02669 0.52332 0.0
C678 C 0.17959 0.03365 0.4399 0.0
C679 C 0.19765 0.98622 0.51365 0.0
H680 H 0.11602 0.95282 0.46453 0.0
H681 H 0.16426 0.95241 0.40098 0.0
H682 H 0.15309 0.99038 0.52107 0.0
H683 H 0.1458 1.00556 0.49377 0.0
H684 H 0.12515 0.9783 0.50637 0.0
H685 H 0.20117 0.98166 0.39971 0.0
H686 H 0.20545 1.00791 0.4139 0.0
H687 H 0.21145 0.99122 0.43997 0.0
H688 H 0.20314 0.06417 0.48551 0.0
H689 H 0.22066 0.025 0.54496 0.0
H690 H 0.16176 0.02656 0.44511 0.0
H691 H 0.18108 0.02479 0.41864 0.0
H692 H 0.18656 0.05133 0.43353 0.0
H693 H 0.18078 0.97557 0.52342 0.0
H694 H 0.20976 0.98807 0.53255 0.0
H695 H 0.19958 0.97755 0.49258 0.0
C696 C 0.83875 0.03847 0.01101 0.0
C697 C 0.85388 0.04002 0.03459 0.0
C698 C 0.83038 0.02124 0.98803 0.0
C699 C 0.8368 1.00496 0.98951 0.0
C700 C 0.85145 1.00616 0.01412 0.0
C701 C 0.86001 0.0238 0.03594 0.0
C702 C 0.81525 0.02081 0.96165 0.0
C703 C 0.85833 0.98891 0.01731 0.0
C704 C 0.80585 0.9477 0.95285 0.0
C705 C 0.82078 0.94926 0.92895 0.0
C706 C 0.8099 0.96622 0.97135 0.0
C707 C 0.82903 0.98685 0.96515 0.0
C708 C 0.84291 0.98888 0.93886 0.0
C709 C 0.83884 0.96999 0.92142 0.0
C710 C 0.79488 0.96315 0.99949 0.0
C711 C 0.8631 0.01067 0.93076 0.0
H712 H 0.83406 0.05106 0.00992 0.0
H713 H 0.87147 0.0248 0.05447 0.0
H714 H 0.82347 0.02326 0.93782 0.0
H715 H 0.79991 1.00451 0.96093 0.0
H716 H 0.81078 0.03385 0.96494 0.0
H717 H 0.86859 0.99145 0.03917 0.0
H718 H 0.84354 0.97219 0.01858 0.0
H719 H 0.86795 0.98937 0.99571 0.0
H720 H 0.7919 0.93168 0.95883 0.0
H721 H 0.85029 0.9713 0.9027 0.0
H722 H 0.79136 0.97692 1.00087 0.0
H723 H 0.8032 0.96315 0.02238 0.0
H724 H 0.779 0.94733 0.99787 0.0
H725 H 0.85929 0.02427 0.93169 0.0
H726 H 0.86969 0.01046 0.90638 0.0
H727 H 0.87622 0.01435 0.94887 0.0
C728 C 0.99544 0.84685 0.02921 0.0
C729 C 0.97898 0.82462 0.02665 0.0
C730 C 1.01261 0.85664 0.0066 0.0
C731 C 1.01307 0.84411 0.98002 0.0
C732 C 0.99622 0.82175 0.97679 0.0
C733 C 0.97954 0.81213 1.0005 0.0
C734 C 0.03048 0.88037 0.01153 0.0
C735 C 0.99579 0.80808 0.94829 0.0
C736 C 0.04979 0.88249 0.91399 0.0
C737 C 0.06979 0.88316 0.92043 0.0
C738 C 0.03051 0.86815 0.93115 0.0
C739 C 0.03146 0.85476 0.95611 0.0
C740 C 0.05131 0.85439 0.96128 0.0
C741 C 0.07017 0.86839 0.94302 0.0
C742 C 1.00954 0.86854 0.9241 0.0
C743 C 0.05326 0.84078 0.98808 0.0
H744 H 0.9953 0.85654 0.04958 0.0
H745 H 0.96681 0.79495 0.99839 0.0
H746 H 0.04688 0.88152 0.01247 0.0
H747 H 0.0307 0.8906 0.99085 0.0
H748 H 0.02815 0.88752 0.03417 0.0
H749 H 0.98114 0.79121 0.94866 0.0
H750 H 0.9957 0.81633 0.92537 0.0
H751 H 1.01089 0.80668 0.94817 0.0
H752 H 0.04939 0.89376 0.89635 0.0
H753 H 0.08563 0.86896 0.94824 0.0
H754 H 1.00671 0.87788 0.94338 0.0
H755 H 0.99513 0.85155 0.92392 0.0
H756 H 1.01034 0.87652 0.90048 0.0
H757 H 0.05319 0.84819 0.01179 0.0
H758 H 0.0687 0.84002 0.98621 0.0
H759 H 0.039 0.82373 0.98784 0.0
C760 C 0.16109 0.20671 0.93317 0.0
C761 C 0.13896 0.19436 0.94289 0.0
C762 C 0.17756 0.20397 0.9486 0.0
C763 C 0.17177 0.18906 0.9749 0.0
C764 C 0.14946 0.17683 0.98499 0.0
C765 C 0.13336 0.17941 0.9686 0.0
C766 C 0.20103 0.21679 0.93657 0.0
C767 C 0.14254 0.16108 0.01333 0.0
C768 C 0.20176 0.16042 0.00604 0.0
C769 C 0.21081 0.17189 0.03495 0.0
C770 C 0.19106 0.16737 0.98422 0.0
C771 C 0.18865 0.18574 0.99215 0.0
C772 C 0.19931 0.19839 0.02007 0.0
C773 C 0.21055 0.19146 0.04095 0.0
C774 C 0.18062 0.15383 0.95421 0.0
C775 C 0.19685 0.21783 0.02984 0.0
H776 H 0.16547 0.21824 0.91324 0.0
H777 H 0.11632 0.17 0.97648 0.0
H778 H 0.21211 0.22717 0.9563 0.0
H779 H 0.2067 0.20521 0.92913 0.0
H780 H 0.20281 0.22758 0.91569 0.0
H781 H 0.12472 0.1537 0.01911 0.0
H782 H 0.1459 0.14751 0.00795 0.0
H783 H 0.15226 0.16979 0.03514 0.0
H784 H 0.20201 0.1453 1.00132 0.0
H785 H 0.21732 0.20021 0.06349 0.0
H786 H 0.18292 0.16465 0.93318 0.0
H787 H 0.16261 0.14314 0.95815 0.0
H788 H 0.18762 0.14309 0.94819 0.0
H789 H 0.199 0.22851 0.00873 0.0
H790 H 0.20889 0.22796 0.04889 0.0
H791 H 0.17995 0.21171 0.03942 0.0
C792 C 0.97606 0.84171 0.59207 0.0
C793 C 0.95564 0.82302 0.58514 0.0
C794 C 0.99522 0.84589 0.57526 0.0
C795 C 0.99377 0.83141 0.55021 0.0
C796 C 0.97347 0.81174 0.54465 0.0
C797 C 0.9547 0.80764 0.56251 0.0
C798 C 0.01665 0.86669 0.58267 0.0
C799 C 0.971 0.79606 0.51778 0.0
C800 C 0.03023 0.85964 0.47766 0.0
C801 C 0.04639 0.85344 0.48005 0.0
C802 C 1.01297 0.85227 0.50006 0.0
C803 C 1.01208 0.8388 0.52627 0.0
C804 C 0.02852 0.83268 0.52921 0.0
C805 C 0.04533 0.83979 0.50569 0.0
C806 C 0.99554 0.85877 0.49538 0.0
C807 C 0.02845 0.81888 0.55733 0.0
H808 H 0.97691 0.85352 0.60981 0.0
H809 H 0.93893 0.7932 0.557 0.0
H810 H 0.0306 0.8634 0.58279 0.0
H811 H 0.02003 0.87916 0.56359 0.0
H812 H 0.01609 0.87386 0.6064 0.0
H813 H 0.9553 0.78009 0.51971 0.0
H814 H 0.9712 0.8037 0.49412 0.0
H815 H 0.98495 0.79279 0.51783 0.0
H816 H 0.03074 0.86992 0.45764 0.0
H817 H 0.05782 0.83499 0.50762 0.0
H818 H 0.99567 0.86884 0.5162 0.0
H819 H 0.97893 0.84381 0.49439 0.0
H820 H 0.99809 0.86844 0.47285 0.0
H821 H 0.02934 0.82738 0.58043 0.0
H822 H 0.04248 0.8157 0.55632 0.0
H823 H 1.01281 0.80283 0.55767 0.0
C824 C 0.1947 0.20452 0.46533 0.0
C825 C 0.17677 0.20713 0.47392 0.0
C826 C 0.2014 0.19266 0.48533 0.0
C827 C 0.19035 0.18387 0.51508 0.0
C828 C 0.17367 0.18838 0.5252 0.0
C829 C 0.16674 0.19954 0.50417 0.0
C830 C 0.21882 0.18776 0.47309 0.0
C831 C 0.16202 0.18008 0.55721 0.0
C832 C 0.18288 0.12865 0.54208 0.0
C833 C 0.20009 0.13486 0.5644 0.0
C834 C 0.17974 0.14446 0.52584 0.0
C835 C 0.19368 0.16715 0.53285 0.0
C836 C 0.21068 0.17355 0.55618 0.0
C837 C 0.21397 0.15732 0.57125 0.0
C838 C 0.16176 0.13685 0.50057 0.0
C839 C 0.22534 0.19747 0.56517 0.0
H840 H 0.20226 0.21012 0.44174 0.0
H841 H 0.15288 0.20158 0.51085 0.0
H842 H 0.23106 0.19067 0.49229 0.0
H843 H 0.2109 0.17009 0.46619 0.0
H844 H 0.22766 0.19794 0.45164 0.0
H845 H 0.15272 0.18847 0.5642 0.0
H846 H 0.15018 0.16211 0.55551 0.0
H847 H 0.174 0.18259 0.57666 0.0
H848 H 0.17226 0.11133 0.53638 0.0
H849 H 0.22726 0.16218 0.58856 0.0
H850 H 0.1689 0.14493 0.47704 0.0
H851 H 0.1495 0.14169 0.50773 0.0
H852 H 0.15298 0.11868 0.49703 0.0
H853 H 0.23517 0.20693 0.54387 0.0
H854 H 0.23685 0.19961 0.5852 0.0
H855 H 0.21511 0.20476 0.5726 0.0
C856 C 0.86805 0.05754 0.57454 0.0
C857 C 0.89057 0.06686 0.56743 0.0
C858 C 0.85207 0.03894 0.55745 0.0
C859 C 0.85878 0.03003 0.53198 0.0
C860 C 0.8815 0.03973 0.52442 0.0
C861 C 0.89708 0.05774 0.54256 0.0
C862 C 0.8281 0.02863 0.56691 0.0
C863 C 0.88942 0.0312 0.49695 0.0
C864 C 0.82798 0.97184 0.49879 0.0
C865 C 0.8199 0.97502 0.46944 0.0
C866 C 0.83879 0.98919 0.52104 0.0
C867 C 0.84239 0.01044 0.51311 0.0
C868 C 0.83304 0.01336 0.48438 0.0
C869 C 0.82158 0.99548 0.46309 0.0
C870 C 0.84778 0.98512 0.55189 0.0
C871 C 0.83691 0.0358 0.47451 0.0
H872 H 0.86299 0.06452 0.59386 0.0
H873 H 0.91446 0.06506 0.53672 0.0
H874 H 0.81818 0.02866 0.54599 0.0
H875 H 0.82164 0.01114 0.57392 0.0
H876 H 0.82559 0.03741 0.5874 0.0
H877 H 0.90751 0.0414 0.49303 0.0
H878 H 0.88538 0.01402 0.50208 0.0
H879 H 0.88087 0.03091 0.47417 0.0
H880 H 0.82664 0.95599 0.50374 0.0
H881 H 0.81559 0.99803 0.4402 0.0
H882 H 0.84488 0.99338 0.57267 0.0
H883 H 0.86587 0.99214 0.54955 0.0
H884 H 0.84018 0.96722 0.5573 0.0
H885 H 0.83404 0.04416 0.49514 0.0
H886 H 0.82613 0.03478 0.45405 0.0
H887 H 0.85438 0.04627 0.46694 0.0
C888 C 0.86137 0.32639 0.30085 0.0
C889 C 0.84217 0.30627 0.3071 0.0
C890 C 0.86799 0.34451 0.32169 0.0
C891 C 0.85543 0.34216 0.34987 0.0
C892 C 0.83747 0.32114 0.358 0.0
C893 C 0.83078 0.30355 0.33617 0.0
C894 C 0.88693 0.36667 0.31163 0.0
C895 C 0.8241 0.31766 0.38832 0.0
C896 C 0.87643 0.39106 0.40799 0.0
C897 C 0.86363 0.40042 0.39856 0.0
C898 C 0.87368 0.37176 0.39296 0.0
C899 C 0.85837 0.36215 0.36722 0.0
C900 C 0.8456 0.37174 0.35754 0.0
C901 C 0.84814 0.39048 0.37364 0.0
C902 C 0.88704 0.36159 0.40466 0.0
C903 C 0.82942 0.36242 0.32974 0.0
H904 H 0.87005 0.3286 0.27818 0.0
H905 H 0.81594 0.28796 0.34106 0.0
H906 H 0.88028 0.37713 0.30256 0.0
H907 H 0.89779 0.37534 0.33251 0.0
H908 H 0.89701 0.36514 0.29215 0.0
H909 H 0.81386 0.29988 0.39447 0.0
H910 H 0.83502 0.32645 0.40914 0.0
H911 H 0.81293 0.32446 0.38471 0.0
H912 H 0.88838 0.39867 0.42732 0.0
H913 H 0.83839 0.39779 0.36598 0.0
H914 H 0.89774 0.36159 0.38488 0.0
H915 H 0.87585 0.34413 0.41162 0.0
H916 H 0.89759 0.37054 0.42575 0.0
H917 H 0.83795 0.36157 0.30761 0.0
H918 H 0.82156 0.37247 0.32428 0.0
H919 H 0.81624 0.34538 0.33552 0.0
C920 C 0.63052 0.4931 0.40824 0.0
C921 C 0.62313 0.47068 0.40282 0.0
C922 C 0.64966 0.50962 0.39279 0.0
C923 C 0.66105 0.50352 0.37046 0.0
C924 C 0.65348 0.48086 0.36488 0.0
C925 C 0.63491 0.46479 0.38155 0.0
C926 C 0.65769 0.53355 0.40034 0.0
C927 C 0.66467 0.47351 0.34065 0.0
C928 C 0.69588 0.54007 0.3013 0.0
C929 C 0.71687 0.54399 0.31014 0.0
C930 C 0.6776 0.52805 0.32168 0.0
C931 C 0.68059 0.5205 0.3521 0.0
C932 C 0.70219 0.52645 0.36241 0.0
C933 C 0.72001 0.53766 0.34096 0.0
C934 C 0.65487 0.52154 0.30917 0.0
C935 C 0.70629 0.51956 0.39511 0.0
H936 H 0.62148 0.49769 0.42478 0.0
H937 H 0.62911 0.44748 0.377 0.0
H938 H 0.67529 0.54192 0.40772 0.0
H939 H 0.65662 0.54211 0.37839 0.0
H940 H 0.64795 0.53552 0.41995 0.0
H941 H 0.65613 0.45527 0.33811 0.0
H942 H 0.66519 0.4808 0.31656 0.0
H943 H 0.68196 0.47943 0.34814 0.0
H944 H 0.69339 0.54462 0.27722 0.0
H945 H 0.73624 0.54063 0.34776 0.0
H946 H 0.64511 0.52424 0.32786 0.0
H947 H 0.64595 0.50367 0.30327 0.0
H948 H 0.65552 0.53087 0.28703 0.0
H949 H 0.69633 0.52177 0.41405 0.0
H950 H 0.72399 0.52912 0.40203 0.0
H951 H 0.70128 0.50181 0.39455 0.0
C952 C 0.54962 0.17201 0.41847 0.0
C953 C 0.55093 0.15304 0.41205 0.0
C954 C 0.53472 0.1763 0.40157 0.0
C955 C 0.52142 0.16167 0.37682 0.0
C956 C 0.52172 0.14179 0.37169 0.0
C957 C 0.53626 0.13756 0.38974 0.0
C958 C 0.53445 0.19732 0.4086 0.0
C959 C 0.50826 0.12598 0.34508 0.0
C960 C 0.47832 0.17077 0.33321 0.0
C961 C 0.49089 0.18453 0.30768 0.0
C962 C 0.48797 0.16326 0.35627 0.0
C963 C 0.51042 0.16904 0.35289 0.0
C964 C 0.52288 0.18243 0.32655 0.0
C965 C 0.51308 0.19026 0.30468 0.0
C966 C 0.47437 0.14959 0.38455 0.0
C967 C 0.54665 0.18852 0.32134 0.0
H968 H 0.56082 0.18393 0.43591 0.0
H969 H 0.53735 0.12294 0.38455 0.0
H970 H 0.54345 0.20955 0.38921 0.0
H971 H 0.51727 0.19423 0.40896 0.0
H972 H 0.54244 0.20469 0.43213 0.0
H973 H 0.50775 0.1099 0.34732 0.0
H974 H 0.49113 0.12295 0.34511 0.0
H975 H 0.51567 0.13336 0.3213 0.0
H976 H 0.46117 0.16637 0.33559 0.0
H977 H 0.52277 0.20062 0.28468 0.0
H978 H 0.48191 0.1584 0.40749 0.0
H979 H 0.47423 0.13368 0.38539 0.0
H980 H 0.45706 0.14614 0.38338 0.0
H981 H 0.55694 0.19881 0.34176 0.0
H982 H 0.55355 0.19784 0.29848 0.0
H983 H 0.54805 0.17342 0.32066 0.0
C984 C 0.66797 0.52029 0.87634 0.0
C985 C 0.6475 0.50158 0.86983 0.0
C986 C 0.68586 0.52681 0.85507 0.0
C987 C 0.68294 0.51471 0.82619 0.0
C988 C 0.66168 0.49713 0.81813 0.0
C989 C 0.64432 0.49047 0.84038 0.0
C990 C 0.70832 0.54527 0.8651 0.0
C991 C 0.65761 0.48428 0.7871 0.0
C992 C 0.73017 0.53642 0.765 0.0
C993 C 0.73935 0.52307 0.7719 0.0
C994 C 0.71155 0.53376 0.78208 0.0
C995 C 0.70252 0.51795 0.80732 0.0
C996 C 0.7121 0.50479 0.81468 0.0
C997 C 0.73011 0.50725 0.79653 0.0
C998 C 0.70135 0.54756 0.77282 0.0
C999 C 0.70344 0.48814 0.84194 0.0
H1000 H 0.6705 0.52872 0.89932 0.0
H1001 H 0.62845 0.47602 0.83532 0.0
H1002 H 0.71873 0.53818 0.87253 0.0
H1003 H 0.71674 0.55663 0.84459 0.0
H1004 H 0.70731 0.55492 0.88569 0.0
H1005 H 0.63971 0.47407 0.78162 0.0
H1006 H 0.66594 0.49558 0.76645 0.0
H1007 H 0.66456 0.47314 0.78923 0.0
H1008 H 0.73726 0.54861 0.74586 0.0
H1009 H 0.73733 0.49709 0.8022 0.0
H1010 H 0.70136 0.55738 0.79387 0.0
H1011 H 0.68388 0.53664 0.76566 0.0
H1012 H 0.71023 0.55899 0.75248 0.0
H1013 H 0.70311 0.49627 0.86483 0.0
H1014 H 0.71359 0.48019 0.84577 0.0
H1015 H 0.68626 0.47506 0.83665 0.0
C1016 C 0.48091 0.20077 0.7805 0.0
C1017 C 0.49535 0.21401 0.75604 0.0
C1018 C 0.48555 0.18675 0.79913 0.0
C1019 C 0.50477 0.18551 0.79249 0.0
C1020 C 0.51826 0.19732 0.76582 0.0
C1021 C 0.51361 0.21173 0.74828 0.0
C1022 C 0.47097 0.17489 0.82773 0.0
C1023 C 0.53852 0.19597 0.75723 0.0
C1024 C 0.53524 0.17889 0.86366 0.0
C1025 C 0.52834 0.1563 0.86285 0.0
C1026 C 0.52744 0.18836 0.84117 0.0
C1027 C 0.51279 0.17511 0.81644 0.0
C1028 C 0.50602 0.15233 0.815 0.0
C1029 C 0.51361 0.14309 0.8386 0.0
C1030 C 0.53471 0.21258 0.84423 0.0
C1031 C 0.49094 0.13783 0.78845 0.0
H1032 H 0.46684 0.20258 0.7867 0.0
H1033 H 0.52471 0.2218 0.72917 0.0
H1034 H 0.46723 0.15752 0.82875 0.0
H1035 H 0.47978 0.18306 0.85042 0.0
H1036 H 0.45519 0.17506 0.82701 0.0
H1037 H 0.5448 0.20274 0.73272 0.0
H1038 H 0.55178 0.20557 0.77505 0.0
H1039 H 0.53492 0.17863 0.75821 0.0
H1040 H 0.54637 0.18917 0.88259 0.0
H1041 H 0.50826 0.12564 0.83785 0.0
H1042 H 0.52008 0.21474 0.84614 0.0
H1043 H 0.54399 0.22159 0.8223 0.0
H1044 H 0.54539 0.22033 0.8657 0.0
H1045 H 0.47496 0.13754 0.78953 0.0
H1046 H 0.4877 0.12062 0.79016 0.0
H1047 H 0.49837 0.14469 0.76448 0.0
C1048 C 0.87325 0.35669 0.87326 0.0
C1049 C 0.87726 0.37786 0.86546 0.0
C1050 C 0.8616 0.33892 0.85188 0.0
C1051 C 0.85452 0.34264 0.82154 0.0
C1052 C 0.86043 0.36444 0.81243 0.0
C1053 C 0.87125 0.38171 0.83482 0.0
C1054 C 0.8551 0.31592 0.86311 0.0
C1055 C 0.85402 0.36932 0.77987 0.0
C1056 C 0.82915 0.29428 0.76221 0.0
C1057 C 0.80656 0.28645 0.76662 0.0
C1058 C 0.84509 0.31306 0.77902 0.0
C1059 C 0.8382 0.32355 0.80177 0.0
C1060 C 0.81535 0.31552 0.80634 0.0
C1061 C 0.79989 0.29739 0.78827 0.0
C1062 C 0.86926 0.32166 0.7725 0.0
C1063 C 0.80716 0.32569 0.83101 0.0
H1064 H 0.87759 0.35367 0.89717 0.0
H1065 H 0.87435 0.39811 0.82881 0.0
H1066 H 0.83708 0.30661 0.86796 0.0
H1067 H 0.85849 0.30686 0.84408 0.0
H1068 H 0.8639 0.31605 0.88558 0.0
H1069 H 0.86338 0.38723 0.77411 0.0
H1070 H 0.85692 0.36013 0.76044 0.0
H1071 H 0.83617 0.3639 0.77983 0.0
H1072 H 0.83433 0.28585 0.74542 0.0
H1073 H 0.78243 0.29119 0.79208 0.0
H1074 H 0.87737 0.32004 0.79455 0.0
H1075 H 0.87755 0.33947 0.76633 0.0
H1076 H 0.87188 0.31268 0.7524 0.0
H1077 H 0.81393 0.32556 0.85527 0.0
H1078 H 0.78886 0.31683 0.83264 0.0
H1079 H 0.81299 0.34315 0.82466 0.0
C1080 C 0.53175 0.36101 0.36242 0.0
C1081 C 0.5255 0.37709 0.35931 0.0
C1082 C 0.5236 0.34292 0.34147 0.0
C1083 C 0.50925 0.34106 0.31597 0.0
C1084 C 0.50306 0.35739 0.31227 0.0
C1085 C 0.51099 0.37509 0.33439 0.0
C1086 C 0.53026 0.32566 0.34691 0.0
C1087 C 0.48831 0.35627 0.28482 0.0
C1088 C 0.51047 0.30296 0.2523 0.0
C1089 C 0.49207 0.28277 0.261 0.0
C1090 C 0.51499 0.32264 0.26778 0.0
C1091 C 0.5012 0.32196 0.29337 0.0
C1092 C 0.4818 0.30181 0.30078 0.0
C1093 C 0.4773 0.28247 0.28415 0.0
C1094 C 0.53548 0.34384 0.25842 0.0
C1095 C 0.46689 0.30019 0.32832 0.0
H1096 H 0.54268 0.36223 0.38194 0.0
H1097 H 0.50612 0.38749 0.33193 0.0
H1098 H 0.51537 0.30911 0.34937 0.0
H1099 H 0.53972 0.32508 0.32576 0.0
H1100 H 0.5406 0.32899 0.36891 0.0
H1101 H 0.48513 0.37032 0.28515 0.0
H1102 H 0.49603 0.35632 0.26134 0.0
H1103 H 0.47229 0.34064 0.28608 0.0
H1104 H 0.52179 0.30327 0.23412 0.0
H1105 H 0.4631 0.26685 0.291 0.0
H1106 H 0.54853 0.34794 0.27681 0.0
H1107 H 0.53208 0.35772 0.25762 0.0
H1108 H 0.54195 0.34251 0.23449 0.0
H1109 H 0.47522 0.30118 0.35165 0.0
H1110 H 0.45091 0.28442 0.3278 0.0
H1111 H 0.46357 0.3141 0.32767 0.0
C1112 C 0.7279 0.22552 0.29316 0.0
C1113 C 0.73623 0.21993 0.26621 0.0
C1114 C 0.70897 0.20964 0.3093 0.0
C1115 C 0.6975 0.18771 0.29748 0.0
C1116 C 0.70543 0.18207 0.26961 0.0
C1117 C 0.72504 0.19818 0.25466 0.0
C1118 C 0.70156 0.21629 0.3395 0.0
C1119 C 0.69318 0.15911 0.25557 0.0
C1120 C 0.66192 0.14633 0.36158 0.0
C1121 C 0.64231 0.14695 0.3585 0.0
C1122 C 0.67974 0.1585 0.34053 0.0
C1123 C 0.67752 0.17089 0.31512 0.0
C1124 C 0.65694 0.16975 0.31011 0.0
C1125 C 0.63973 0.15823 0.33237 0.0
C1126 C 0.70155 0.1598 0.34753 0.0
C1127 C 0.65356 0.18194 0.28258 0.0
H1128 H 0.73668 0.24226 0.30238 0.0
H1129 H 0.73144 0.19388 0.23373 0.0
H1130 H 0.68489 0.2141 0.33577 0.0
H1131 H 0.70045 0.20556 0.36006 0.0
H1132 H 0.71297 0.23375 0.34636 0.0
H1133 H 0.70075 0.15775 0.23269 0.0
H1134 H 0.69297 0.14705 0.2732 0.0
H1135 H 0.67576 0.15438 0.25077 0.0
H1136 H 0.66401 0.13785 0.38209 0.0
H1137 H 0.62452 0.15867 0.32999 0.0
H1138 H 0.7133 0.17642 0.35721 0.0
H1139 H 0.70886 0.15754 0.32509 0.0
H1140 H 0.69989 0.14727 0.36556 0.0
H1141 H 0.66175 0.19979 0.28839 0.0
H1142 H 0.63577 0.17592 0.27818 0.0
H1143 H 0.66107 0.18015 0.25997 0.0
C1144 C 0.87984 0.52544 0.36773 0.0
C1145 C 0.88101 0.50651 0.36039 0.0
C1146 C 0.86816 0.53227 0.34759 0.0
C1147 C 0.85804 0.52022 0.319 0.0
C1148 C 0.86139 0.50262 0.30975 0.0
C1149 C 0.87245 0.49568 0.3309 0.0
C1150 C 0.86464 0.55079 0.35884 0.0
C1151 C 0.85161 0.48984 0.27894 0.0
C1152 C 0.8021 0.51266 0.29651 0.0
C1153 C 0.80743 0.5286 0.27233 0.0
C1154 C 0.81848 0.51004 0.31195 0.0
C1155 C 0.8408 0.52323 0.30234 0.0
C1156 C 0.84629 0.53903 0.27735 0.0
C1157 C 0.82955 0.54181 0.26298 0.0
C1158 C 0.81185 0.49331 0.33897 0.0
C1159 C 0.86977 0.55288 0.26575 0.0
H1160 H 0.88621 0.53366 0.39073 0.0
H1161 H 0.87339 0.48105 0.32517 0.0
H1162 H 0.86664 0.56202 0.33854 0.0
H1163 H 0.84752 0.54375 0.36804 0.0
H1164 H 0.87622 0.56059 0.37855 0.0
H1165 H 0.85939 0.47996 0.27198 0.0
H1166 H 0.83368 0.47839 0.28241 0.0
H1167 H 0.85355 0.50113 0.25872 0.0
H1168 H 0.78507 0.50256 0.30409 0.0
H1169 H 0.83371 0.5541 0.2442 0.0
H1170 H 0.8212 0.50145 0.36131 0.0
H1171 H 0.81593 0.48042 0.33229 0.0
H1172 H 0.79393 0.48512 0.34449 0.0
H1173 H 0.88042 0.56326 0.28582 0.0
H1174 H 0.8712 0.5638 0.24524 0.0
H1175 H 0.87625 0.54203 0.25795 0.0
C1176 C 0.64397 0.17679 0.92325 0.0
C1177 C 0.62384 0.15797 0.91558 0.0
C1178 C 0.66345 0.18157 0.90688 0.0
C1179 C 0.6626 0.16756 0.88151 0.0
C1180 C 0.6426 0.14772 0.87525 0.0
C1181 C 0.6235 0.14302 0.8927 0.0
C1182 C 0.68455 0.20252 0.91504 0.0
C1183 C 0.64078 0.13253 0.84803 0.0
C1184 C 0.69935 0.19708 0.80979 0.0
C1185 C 0.71578 0.19124 0.81212 0.0
C1186 C 0.68196 0.18924 0.83201 0.0
C1187 C 0.68118 0.17563 0.85795 0.0
C1188 C 0.69793 0.16996 0.86092 0.0
C1189 C 0.7149 0.17756 0.83761 0.0
C1190 C 0.66423 0.19534 0.82738 0.0
C1191 C 0.69796 0.156 0.88876 0.0
H1192 H 0.64434 0.18827 0.94121 0.0
H1193 H 0.60794 0.12847 0.88663 0.0
H1194 H 0.69876 0.19962 0.91519 0.0
H1195 H 0.68785 0.2152 0.89634 0.0
H1196 H 0.68356 0.20922 0.93896 0.0
H1197 H 0.62527 0.11635 0.84941 0.0
H1198 H 0.64106 0.14037 0.82453 0.0
H1199 H 0.65498 0.12964 0.8482 0.0
H1200 H 0.69972 0.20739 0.78992 0.0
H1201 H 0.72759 0.17304 0.83952 0.0
H1202 H 0.66391 0.20497 0.84846 0.0
H1203 H 0.64779 0.18019 0.82583 0.0
H1204 H 0.6668 0.20529 0.80514 0.0
H1205 H 0.69807 0.16394 0.91205 0.0
H1206 H 0.71244 0.15351 0.88809 0.0
H1207 H 0.68269 0.13963 0.88828 0.0
C1208 C 0.88793 0.48972 0.8872 0.0
C1209 C 0.87024 0.47332 0.90496 0.0
C1210 C 0.88521 0.50491 0.86821 0.0
C1211 C 0.86445 0.50385 0.86753 0.0
C1212 C 0.84726 0.48868 0.88795 0.0
C1213 C 0.85028 0.47342 0.90607 0.0
C1214 C 0.9039 0.52067 0.84667 0.0
C1215 C 0.82503 0.48729 0.88863 0.0
C1216 C 0.85402 0.5456 0.82277 0.0
C1217 C 0.84341 0.53357 0.7949 0.0
C1218 C 0.86179 0.53657 0.84644 0.0
C1219 C 0.8592 0.51533 0.84154 0.0
C1220 C 0.84964 0.50384 0.8124 0.0
C1221 C 0.84164 0.51298 0.78973 0.0
C1222 C 0.8716 0.54919 0.87733 0.0
C1223 C 0.84693 0.48138 0.80572 0.0
H1224 H 0.9034 0.48969 0.88624 0.0
H1225 H 0.83665 0.46093 0.92011 0.0
H1226 H 0.90042 0.51447 0.8214 0.0
H1227 H 0.90545 0.53724 0.84678 0.0
H1228 H 0.91991 0.52231 0.85416 0.0
H1229 H 0.81483 0.47735 0.90942 0.0
H1230 H 0.827 0.50401 0.89001 0.0
H1231 H 0.81596 0.47948 0.86595 0.0
H1232 H 0.85523 0.56148 0.82679 0.0
H1233 H 0.83355 0.50378 0.76799 0.0
H1234 H 0.88693 0.54904 0.88369 0.0
H1235 H 0.85974 0.54108 0.89746 0.0
H1236 H 0.87537 0.56658 0.87553 0.0
H1237 H 0.8628 0.48173 0.80946 0.0
H1238 H 0.84113 0.47566 0.78065 0.0
H1239 H 0.83476 0.46911 0.82284 0.0
C1240 C 0.55483 0.37792 0.91609 0.0
C1241 C 0.55476 0.39775 0.91174 0.0
C1242 C 0.54023 0.35886 0.8988 0.0
C1243 C 0.52576 0.35989 0.87577 0.0
C1244 C 0.52468 0.37952 0.87281 0.0
C1245 C 0.53902 0.39816 0.89122 0.0
C1246 C 0.54148 0.33812 0.90348 0.0
C1247 C 0.50988 0.38153 0.84809 0.0
C1248 C 0.5171 0.32528 0.80082 0.0
C1249 C 0.49539 0.3079 0.8047 0.0
C1250 C 0.52683 0.34244 0.8234 0.0
C1251 C 0.51483 0.34197 0.85126 0.0
C1252 C 0.49292 0.32434 0.85559 0.0
C1253 C 0.48329 0.30765 0.83191 0.0
C1254 C 0.55001 0.36116 0.81728 0.0
C1255 C 0.47986 0.32295 0.88542 0.0
H1256 H 0.56687 0.37752 0.9322 0.0
H1257 H 0.53904 0.41353 0.88767 0.0
H1258 H 0.52469 0.3234 0.90436 0.0
H1259 H 0.55028 0.33599 0.88269 0.0
H1260 H 0.55043 0.33871 0.92602 0.0
H1261 H 0.50851 0.3965 0.85205 0.0
H1262 H 0.51673 0.3825 0.82353 0.0
H1263 H 0.49312 0.36681 0.84863 0.0
H1264 H 0.52641 0.32574 0.77957 0.0
H1265 H 0.46651 0.29421 0.83498 0.0
H1266 H 0.56124 0.36148 0.83651 0.0
H1267 H 0.55038 0.3772 0.81807 0.0
H1268 H 0.55655 0.3597 0.79348 0.0
H1269 H 0.48859 0.32205 0.90731 0.0
H1270 H 0.46298 0.30833 0.88504 0.0
H1271 H 0.47853 0.33804 0.88769 0.0
C1272 C 0.52842 0.6587 0.64412 0.0
C1273 C 0.50856 0.63874 0.64754 0.0
C1274 C 0.53382 0.67639 0.6653 0.0
C1275 C 0.51934 0.67369 0.69112 0.0
C1276 C 0.50043 0.65275 0.69655 0.0
C1277 C 0.49497 0.63567 0.6742 0.0
C1278 C 0.55375 0.69854 0.6579 0.0
C1279 C 0.48502 0.64888 0.72448 0.0
C1280 C 0.53753 0.72073 0.75196 0.0
C1281 C 0.52567 0.73074 0.741 0.0
C1282 C 0.53537 0.70181 0.73646 0.0
C1283 C 0.52178 0.69341 0.70865 0.0
C1284 C 0.51021 0.70389 0.69719 0.0
C1285 C 0.51197 0.72211 0.71389 0.0
C1286 C 0.54726 0.6906 0.75011 0.0
C1287 C 0.4961 0.696 0.66705 0.0
H1288 H 0.53873 0.66117 0.62316 0.0
H1289 H 0.47957 0.62021 0.67676 0.0
H1290 H 0.54819 0.70963 0.64768 0.0
H1291 H 0.56322 0.70643 0.68022 0.0
H1292 H 0.56493 0.6972 0.64012 0.0
H1293 H 0.47387 0.631 0.72914 0.0
H1294 H 0.49446 0.65675 0.74687 0.0
H1295 H 0.4747 0.6564 0.71893 0.0
H1296 H 0.54804 0.72737 0.77307 0.0
H1297 H 0.50298 0.73001 0.70521 0.0
H1298 H 0.55851 0.69009 0.73169 0.0
H1299 H 0.5351 0.67325 0.75643 0.0
H1300 H 0.55701 0.69905 0.77205 0.0
H1301 H 0.50587 0.69523 0.64646 0.0
H1302 H 0.48944 0.7069 0.66018 0.0
H1303 H 0.48202 0.67909 0.67093 0.0
C1304 C 0.38548 0.85894 0.68171 0.0
C1305 C 0.38363 0.87025 0.65501 0.0
C1306 C 0.3677 0.84755 0.70318 0.0
C1307 C 0.34729 0.84648 0.69667 0.0
C1308 C 0.34571 0.85867 0.67039 0.0
C1309 C 0.36409 0.87078 0.65026 0.0
C1310 C 0.3704 0.83562 0.73171 0.0
C1311 C 0.32411 0.85731 0.66167 0.0
C1312 C 0.29599 0.79275 0.71946 0.0
C1313 C 0.28734 0.79925 0.74496 0.0
C1314 C 0.31533 0.80803 0.70347 0.0
C1315 C 0.32692 0.83023 0.71419 0.0
C1316 C 0.31864 0.83675 0.74073 0.0
C1317 C 0.29859 0.82125 0.75534 0.0
C1318 C 0.32302 0.80048 0.67454 0.0
C1319 C 0.33101 0.85999 0.75375 0.0
H1320 H 0.40061 0.85852 0.68529 0.0
H1321 H 0.36258 0.87922 0.62923 0.0
H1322 H 0.36254 0.83784 0.75362 0.0
H1323 H 0.36213 0.81769 0.7265 0.0
H1324 H 0.38806 0.84153 0.73702 0.0
H1325 H 0.32612 0.86932 0.64247 0.0
H1326 H 0.31237 0.84043 0.65285 0.0
H1327 H 0.31656 0.86035 0.68319 0.0
H1328 H 0.28713 0.77576 0.71122 0.0
H1329 H 0.29191 0.82621 0.77521 0.0
H1330 H 0.33948 0.80242 0.67945 0.0
H1331 H 0.32473 0.81084 0.65316 0.0
H1332 H 0.31147 0.78294 0.6683 0.0
H1333 H 0.34827 0.86452 0.75951 0.0
H1334 H 0.32318 0.86201 0.77588 0.0
H1335 H 0.33175 0.87177 0.73515 0.0
C1336 C 0.18276 0.52796 0.63673 0.0
C1337 C 0.16032 0.52143 0.63885 0.0
C1338 C 0.19248 0.51987 0.65828 0.0
C1339 C 0.17964 0.50536 0.68345 0.0
C1340 C 0.15698 0.49888 0.68607 0.0
C1341 C 0.14744 0.50669 0.6633 0.0
C1342 C 0.21653 0.52676 0.65387 0.0
C1343 C 0.14296 0.48402 0.71317 0.0
C1344 C 0.20573 0.47335 0.71727 0.0
C1345 C 0.21983 0.48804 0.74084 0.0
C1346 C 0.19125 0.47793 0.69975 0.0
C1347 C 0.19041 0.49734 0.7067 0.0
C1348 C 0.20307 0.51104 0.73269 0.0
C1349 C 0.21795 0.50646 0.74904 0.0
C1350 C 0.17852 0.46314 0.67177 0.0
C1351 C 0.20215 0.53146 0.74168 0.0
H1352 H 0.19271 0.5391 0.61756 0.0
H1353 H 0.1301 0.50166 0.665 0.0
H1354 H 0.22617 0.53628 0.67526 0.0
H1355 H 0.21841 0.51197 0.6519 0.0
H1356 H 0.22381 0.5371 0.63195 0.0
H1357 H 0.12565 0.48052 0.71189 0.0
H1358 H 0.14291 0.46816 0.71246 0.0
H1359 H 0.15009 0.49186 0.73683 0.0
H1360 H 0.20724 0.45916 0.71073 0.0
H1361 H 0.2287 0.51775 0.76747 0.0
H1362 H 0.18627 0.47161 0.64869 0.0
H1363 H 0.16125 0.45973 0.67162 0.0
H1364 H 0.17837 0.4472 0.67249 0.0
H1365 H 0.21143 0.5446 0.72353 0.0
H1366 H 0.2095 0.53784 0.76588 0.0
H1367 H 0.18485 0.52803 0.74165 0.0
C1368 C 0.39804 0.84372 0.14233 0.0
C1369 C 0.40477 0.85527 0.11301 0.0
C1370 C 0.37835 0.83946 0.15733 0.0
C1371 C 0.36455 0.84619 0.14203 0.0
C1372 C 0.37109 0.8576 0.11209 0.0
C1373 C 0.39141 0.86241 0.09819 0.0
C1374 C 0.37243 0.82786 0.18974 0.0
C1375 C 0.35645 0.86431 0.09451 0.0
C1376 C 0.30676 0.81312 0.17601 0.0
C1377 C 0.30679 0.82767 0.19929 0.0
C1378 C 0.32464 0.81975 0.15473 0.0
C1379 C 0.34338 0.8411 0.15788 0.0
C1380 C 0.34289 0.85625 0.18013 0.0
C1381 C 0.32439 0.84945 0.2002 0.0
C1382 C 0.3241 0.80337 0.13049 0.0
C1383 C 0.36271 0.8789 0.18507 0.0
H1384 H 0.40849 0.83839 0.15396 0.0
H1385 H 0.39657 0.87122 0.07539 0.0
H1386 H 0.36931 0.83779 0.20768 0.0
H1387 H 0.35705 0.81169 0.18754 0.0
H1388 H 0.38564 0.825 0.19927 0.0
H1389 H 0.36381 0.87289 0.07132 0.0
H1390 H 0.34023 0.84948 0.08937 0.0
H1391 H 0.35326 0.87537 0.10996 0.0
H1392 H 0.2931 0.79629 0.17525 0.0
H1393 H 0.32455 0.86063 0.21849 0.0
H1394 H 0.33452 0.79662 0.1393 0.0
H1395 H 0.33087 0.81149 0.10685 0.0
H1396 H 0.30709 0.78937 0.12673 0.0
H1397 H 0.3759 0.87726 0.19749 0.0
H1398 H 0.35872 0.88964 0.20002 0.0
H1399 H 0.36947 0.88717 0.16155 0.0
C1400 C 0.17706 0.54374 0.08348 0.0
C1401 C 0.15866 0.54573 0.09141 0.0
C1402 C 0.18153 0.5289 0.10016 0.0
C1403 C 0.16766 0.51629 0.12604 0.0
C1404 C 0.14814 0.51702 0.13242 0.0
C1405 C 0.14374 0.53156 0.11473 0.0
C1406 C 0.20216 0.52816 0.09188 0.0
C1407 C 0.13307 0.50422 0.16012 0.0
C1408 C 0.17823 0.47501 0.17222 0.0
C1409 C 0.19254 0.48856 0.19659 0.0
C1410 C 0.17009 0.48373 0.14862 0.0
C1411 C 0.17587 0.50625 0.15025 0.0
C1412 C 0.18989 0.51973 0.17535 0.0
C1413 C 0.19824 0.51081 0.19781 0.0
C1414 C 0.15566 0.46903 0.12171 0.0
C1415 C 0.19609 0.54368 0.17867 0.0
H1416 H 0.1885 0.55446 0.06516 0.0
H1417 H 0.12948 0.53302 0.12098 0.0
H1418 H 0.21516 0.53781 0.11003 0.0
H1419 H 0.19896 0.51095 0.09258 0.0
H1420 H 0.20859 0.53524 0.06756 0.0
H1421 H 0.1169 0.50356 0.15846 0.0
H1422 H 0.13015 0.48713 0.16091 0.0
H1423 H 0.14103 0.51231 0.1833 0.0
H1424 H 0.17384 0.4578 0.17121 0.0
H1425 H 0.20901 0.5213 0.21691 0.0
H1426 H 0.16382 0.47566 0.09805 0.0
H1427 H 0.13973 0.46886 0.12124 0.0
H1428 H 0.15228 0.45181 0.12422 0.0
H1429 H 0.2056 0.55312 0.15714 0.0
H1430 H 0.20623 0.55154 0.20058 0.0
H1431 H 0.181 0.54508 0.17997 0.0
C1432 C 0.54863 0.71186 0.16364 0.0
C1433 C 0.53621 0.71271 0.18967 0.0
C1434 C 0.53897 0.69483 0.14045 0.0
C1435 C 0.51665 0.67794 0.14408 0.0
C1436 C 0.50421 0.6787 0.17055 0.0
C1437 C 0.51402 0.69618 0.19263 0.0
C1438 C 0.55255 0.69492 0.11203 0.0
C1439 C 0.48053 0.66083 0.17593 0.0
C1440 C 0.47774 0.64014 0.07947 0.0
C1441 C 0.47706 0.62024 0.08671 0.0
C1442 C 0.4923 0.65973 0.09579 0.0
C1443 C 0.50593 0.65921 0.12074 0.0
C1444 C 0.5063 0.63944 0.12666 0.0
C1445 C 0.49206 0.62025 0.10922 0.0
C1446 C 0.49187 0.68058 0.08794 0.0
C1447 C 0.52016 0.63794 0.1535 0.0
H1448 H 0.56578 0.72462 0.16122 0.0
H1449 H 0.50437 0.69653 0.21291 0.0
H1450 H 0.554 0.67985 0.11241 0.0
H1451 H 0.5442 0.69469 0.08907 0.0
H1452 H 0.5694 0.70961 0.11205 0.0
H1453 H 0.47346 0.6634 0.19847 0.0
H1454 H 0.47018 0.6603 0.15523 0.0
H1455 H 0.47945 0.64447 0.17736 0.0
H1456 H 0.46628 0.64024 0.06187 0.0
H1457 H 0.4915 0.60486 0.11504 0.0
H1458 H 0.50886 0.69499 0.08735 0.0
H1459 H 0.48263 0.6837 0.10704 0.0
H1460 H 0.48376 0.6794 0.06431 0.0
H1461 H 0.53718 0.65224 0.15282 0.0
H1462 H 0.52098 0.62251 0.15209 0.0
H1463 H 0.51289 0.6383 0.17721 0.0
C1464 C 0.14332 0.61763 0.6165 0.0
C1465 C 0.15922 0.61883 0.5947 0.0
C1466 C 0.14685 0.63633 0.63405 0.0
C1467 C 0.16649 0.65676 0.62902 0.0
C1468 C 0.18149 0.65843 0.60466 0.0
C1469 C 0.17784 0.63937 0.58815 0.0
C1470 C 0.1306 0.63368 0.66013 0.0
C1471 C 0.20233 0.67997 0.59785 0.0
C1472 C 0.17498 0.70868 0.67248 0.0
C1473 C 0.18843 0.70974 0.6984 0.0
C1474 C 0.16767 0.69159 0.6494 0.0
C1475 C 0.17345 0.67495 0.65303 0.0
C1476 C 0.18659 0.67577 0.67965 0.0
C1477 C 0.19411 0.69324 0.70164 0.0
C1478 C 0.15416 0.69153 0.62089 0.0
C1479 C 0.19277 0.65816 0.685 0.0
H1480 H 0.12891 0.60175 0.62166 0.0
H1481 H 0.19004 0.6404 0.57098 0.0
H1482 H 0.13767 0.63357 0.68415 0.0
H1483 H 0.12742 0.64769 0.65989 0.0
H1484 H 0.11465 0.61804 0.65742 0.0
H1485 H 0.20997 0.67954 0.57451 0.0
H1486 H 0.1989 0.69383 0.59727 0.0
H1487 H 0.21446 0.68339 0.61748 0.0
H1488 H 0.17056 0.72141 0.66992 0.0
H1489 H 0.2042 0.69374 0.72192 0.0
H1490 H 0.13834 0.67568 0.61978 0.0
H1491 H 0.16318 0.693 0.59809 0.0
H1492 H 0.15055 0.70527 0.622 0.0
H1493 H 0.17772 0.64161 0.68559 0.0
H1494 H 0.20201 0.66058 0.70794 0.0
H1495 H 0.20317 0.65825 0.66469 0.0
C1496 C 0.30987 0.49684 0.6593 0.0
C1497 C 0.31196 0.48484 0.68484 0.0
C1498 C 0.32728 0.50845 0.63733 0.0
C1499 C 0.34761 0.509 0.64215 0.0
C1500 C 0.3494 0.49611 0.66718 0.0
C1501 C 0.33137 0.48382 0.68782 0.0
C1502 C 0.32431 0.52115 0.61014 0.0
C1503 C 0.37096 0.49685 0.67411 0.0
C1504 C 0.39549 0.53498 0.58207 0.0
C1505 C 0.40732 0.55666 0.5937 0.0
C1506 C 0.37546 0.5194 0.59668 0.0
C1507 C 0.36779 0.52546 0.62444 0.0
C1508 C 0.37989 0.54735 0.6363 0.0
C1509 C 0.3992 0.56275 0.62037 0.0
C1510 C 0.36253 0.49654 0.58247 0.0
C1511 C 0.37286 0.5544 0.66648 0.0
H1512 H 0.29483 0.4976 0.65702 0.0
H1513 H 0.33308 0.4748 0.70792 0.0
H1514 H 0.33292 0.53897 0.61624 0.0
H1515 H 0.33166 0.51928 0.5874 0.0
H1516 H 0.30662 0.51561 0.60581 0.0
H1517 H 0.36908 0.48437 0.6924 0.0
H1518 H 0.37791 0.49406 0.65169 0.0
H1519 H 0.38312 0.51346 0.68334 0.0
H1520 H 0.40175 0.5303 0.56137 0.0
H1521 H 0.4085 0.57946 0.62965 0.0
H1522 H 0.34516 0.49226 0.57825 0.0
H1523 H 0.3622 0.48424 0.59975 0.0
H1524 H 0.36967 0.49504 0.55925 0.0
H1525 H 0.35641 0.55276 0.66276 0.0
H1526 H 0.38468 0.57175 0.67332 0.0
H1527 H 0.37138 0.54352 0.68704 0.0
C1528 C 0.51091 0.82883 0.71415 0.0
C1529 C 0.53264 0.83307 0.7115 0.0
C1530 C 0.50211 0.83733 0.69169 0.0
C1531 C 0.51513 0.84991 0.66516 0.0
C1532 C 0.53727 0.85453 0.66248 0.0
C1533 C 0.54592 0.8463 0.68606 0.0
C1534 C 0.47864 0.83244 0.69615 0.0
C1535 C 0.55148 0.86742 0.63415 0.0
C1536 C 0.47675 0.84635 0.598 0.0
C1537 C 0.47575 0.86562 0.60318 0.0
C1538 C 0.49138 0.84213 0.61574 0.0
C1539 C 0.50482 0.8572 0.63998 0.0
C1540 C 0.50501 0.87744 0.64362 0.0
C1541 C 0.49064 0.88152 0.62486 0.0
C1542 C 0.49112 0.82067 0.61033 0.0
C1543 C 0.51875 0.89382 0.66947 0.0
H1544 H 0.50071 0.81881 0.73406 0.0
H1545 H 0.5627 0.84947 0.68395 0.0
H1546 H 0.47802 0.84797 0.69549 0.0
H1547 H 0.46818 0.82185 0.67607 0.0
H1548 H 0.47137 0.82387 0.71939 0.0
H1549 H 0.56883 0.87122 0.63698 0.0
H1550 H 0.54465 0.85772 0.61162 0.0
H1551 H 0.55135 0.8831 0.63107 0.0
H1552 H 0.46544 0.83412 0.58099 0.0
H1553 H 0.48988 0.89642 0.62904 0.0
H1554 H 0.48188 0.80903 0.63025 0.0
H1555 H 0.50814 0.82335 0.61048 0.0
H1556 H 0.48308 0.81281 0.58705 0.0
H1557 H 0.51106 0.88739 0.69346 0.0
H1558 H 0.51997 0.91012 0.66566 0.0
H1559 H 0.53563 0.89616 0.67021 0.0
C1560 C 0.30177 0.51586 0.21328 0.0
C1561 C 0.29385 0.5015 0.2398 0.0
C1562 C 0.3207 0.51949 0.19654 0.0
C1563 C 0.33262 0.50926 0.20748 0.0
C1564 C 0.32511 0.49531 0.23504 0.0
C1565 C 0.30543 0.49114 0.25045 0.0
C1566 C 0.32758 0.53383 0.16659 0.0
C1567 C 0.33787 0.48489 0.24824 0.0
C1568 C 0.36779 0.50401 0.14223 0.0
C1569 C 0.38737 0.52428 0.14512 0.0
C1570 C 0.35009 0.49828 0.16351 0.0
C1571 C 0.35245 0.51282 0.18905 0.0
C1572 C 0.37298 0.5324 0.19372 0.0
C1573 C 0.39003 0.5382 0.17114 0.0
C1574 C 0.32829 0.47771 0.15675 0.0
C1575 C 0.37651 0.54786 0.22143 0.0
H1576 H 0.29264 0.52366 0.20482 0.0
H1577 H 0.2993 0.48011 0.27109 0.0
H1578 H 0.34415 0.54848 0.17017 0.0
H1579 H 0.32869 0.52452 0.14563 0.0
H1580 H 0.31585 0.53963 0.16043 0.0
H1581 H 0.33077 0.47589 0.27125 0.0
H1582 H 0.33799 0.47316 0.23033 0.0
H1583 H 0.35531 0.49778 0.25252 0.0
H1584 H 0.36567 0.49343 0.12176 0.0
H1585 H 0.40522 0.55389 0.17331 0.0
H1586 H 0.31623 0.48249 0.14815 0.0
H1587 H 0.32146 0.46784 0.17911 0.0
H1588 H 0.32977 0.46714 0.13803 0.0
H1589 H 0.36805 0.55734 0.21614 0.0
H1590 H 0.3943 0.55978 0.22543 0.0
H1591 H 0.36935 0.53846 0.24412 0.0
C1592 C 0.51666 0.8 0.2179 0.0
C1593 C 0.53515 0.80563 0.23733 0.0
C1594 C 0.51453 0.81615 0.20076 0.0
C1595 C 0.53092 0.83867 0.204 0.0
C1596 C 0.54925 0.84457 0.22462 0.0
C1597 C 0.55139 0.82791 0.24054 0.0
C1598 C 0.49499 0.80897 0.17843 0.0
C1599 C 0.56659 0.86842 0.22971 0.0
C1600 C 0.53128 0.87301 0.13266 0.0
C1601 C 0.51547 0.87849 0.14252 0.0
C1602 C 0.53778 0.86132 0.15335 0.0
C1603 C 0.52876 0.85565 0.18497 0.0
C1604 C 0.51467 0.86335 0.19611 0.0
C1605 C 0.50779 0.87425 0.17451 0.0
C1606 C 0.55237 0.85299 0.14007 0.0
C1607 C 0.50538 0.8585 0.23 0.0
H1608 H 0.5042 0.78278 0.21502 0.0
H1609 H 0.56568 0.8323 0.25564 0.0
H1610 H 0.48493 0.8163 0.18641 0.0
H1611 H 0.5008 0.81496 0.15349 0.0
H1612 H 0.4842 0.79074 0.17768 0.0
H1613 H 0.57879 0.87037 0.24851 0.0
H1614 H 0.57551 0.87559 0.20673 0.0
H1615 H 0.55868 0.8781 0.23698 0.0
H1616 H 0.53695 0.87596 0.10776 0.0
H1617 H 0.49551 0.87844 0.18212 0.0
H1618 H 0.54226 0.83497 0.13566 0.0
H1619 H 0.5654 0.85559 0.15771 0.0
H1620 H 0.56034 0.8612 0.11693 0.0
H1621 H 0.49182 0.8411 0.23147 0.0
H1622 H 0.49866 0.86932 0.23698 0.0
H1623 H 0.51822 0.86067 0.24777 0.0
C1624 C 0.2191 0.71048 0.26115 0.0
C1625 C 0.21876 0.73001 0.25495 0.0
C1626 C 0.20522 0.69098 0.24413 0.0
C1627 C 0.19121 0.69122 0.21956 0.0
C1628 C 0.18985 0.71056 0.21462 0.0
C1629 C 0.20344 0.72965 0.23272 0.0
C1630 C 0.20669 0.67055 0.25093 0.0
C1631 C 0.17554 0.71176 0.18825 0.0
C1632 C 0.18357 0.65559 0.14607 0.0
C1633 C 0.16154 0.63866 0.14908 0.0
C1634 C 0.19324 0.67271 0.16877 0.0
C1635 C 0.18084 0.67268 0.19585 0.0
C1636 C 0.15876 0.65529 0.19964 0.0
C1637 C 0.14923 0.63865 0.17588 0.0
C1638 C 0.21665 0.69115 0.16327 0.0
C1639 C 0.14525 0.65433 0.22869 0.0
H1640 H 0.23081 0.71064 0.27852 0.0
H1641 H 0.20322 0.74474 0.22768 0.0
H1642 H 0.19 0.6557 0.25151 0.0
H1643 H 0.21612 0.66817 0.2313 0.0
H1644 H 0.21512 0.67177 0.27428 0.0
H1645 H 0.1742 0.72688 0.19012 0.0
H1646 H 0.18274 0.71178 0.1643 0.0
H1647 H 0.15872 0.69713 0.18904 0.0
H1648 H 0.19313 0.6559 0.12524 0.0
H1649 H 0.13222 0.62558 0.17836 0.0
H1650 H 0.22731 0.69191 0.18369 0.0
H1651 H 0.21713 0.70723 0.16232 0.0
H1652 H 0.22379 0.68904 0.14045 0.0
H1653 H 0.15418 0.65507 0.25129 0.0
H1654 H 0.12881 0.63909 0.22904 0.0
H1655 H 0.14282 0.66882 0.22873 0.0
C1656 C 0.15468 0.19808 0.28747 0.0
C1657 C 0.14447 0.18664 0.31594 0.0
C1658 C 0.15992 0.1879 0.26254 0.0
C1659 C 0.15543 0.16592 0.26659 0.0
C1660 C 0.14403 0.1539 0.29456 0.0
C1661 C 0.13844 0.16435 0.3188 0.0
C1662 C 0.17149 0.20113 0.23271 0.0
C1663 C 0.13926 0.13059 0.30006 0.0
C1664 C 0.16338 0.13876 0.19199 0.0
C1665 C 0.18574 0.14507 0.19485 0.0
C1666 C 0.1529 0.14468 0.21577 0.0
C1667 C 0.16498 0.1567 0.24332 0.0
C1668 C 0.18715 0.16178 0.24725 0.0
C1669 C 0.19734 0.15618 0.22276 0.0
C1670 C 0.12939 0.1393 0.21038 0.0
C1671 C 0.20048 0.17406 0.27665 0.0
H1672 H 0.15926 0.2153 0.28517 0.0
H1673 H 0.13075 0.15554 0.34095 0.0
H1674 H 0.18897 0.20516 0.23292 0.0
H1675 H 0.16372 0.19138 0.21052 0.0
H1676 H 0.17114 0.21682 0.23136 0.0
H1677 H 0.12772 0.12253 0.3206 0.0
H1678 H 0.13215 0.12044 0.27801 0.0
H1679 H 0.15492 0.13085 0.30547 0.0
H1680 H 0.15442 0.13033 0.17028 0.0
H1681 H 0.2146 0.16093 0.22512 0.0
H1682 H 0.12917 0.15473 0.20498 0.0
H1683 H 0.11937 0.13205 0.23252 0.0
H1684 H 0.12147 0.12766 0.18992 0.0
H1685 H 0.20373 0.19129 0.2761 0.0
H1686 H 0.21656 0.17451 0.27778 0.0
H1687 H 0.19111 0.16626 0.29911 0.0
C1688 C 0.82999 0.96868 0.2812 0.0
C1689 C 0.84112 0.96963 0.30987 0.0
C1690 C 0.8402 0.98482 0.25711 0.0
C1691 C 0.86179 1.00277 0.26234 0.0
C1692 C 0.87342 1.00334 0.29074 0.0
C1693 C 0.86303 0.98654 0.314 0.0
C1694 C 0.82745 0.98319 0.22673 0.0
C1695 C 0.89622 0.02242 0.2976 0.0
C1696 C 0.89025 0.03876 0.18899 0.0
C1697 C 0.88304 0.05416 0.19081 0.0
C1698 C 0.88419 0.02233 0.21276 0.0
C1699 C 0.87116 0.02176 0.23938 0.0
C1700 C 0.86527 0.03833 0.24247 0.0
C1701 C 0.87094 0.05408 0.21784 0.0
C1702 C 0.89036 1.0047 0.20814 0.0
C1703 C 0.85199 0.03875 0.27097 0.0
H1704 H 0.81306 0.95558 0.27799 0.0
H1705 H 0.87155 0.98746 0.33639 0.0
H1706 H 0.82295 0.99631 0.2268 0.0
H1707 H 0.83778 0.98575 0.20499 0.0
H1708 H 0.81206 0.96695 0.2246 0.0
H1709 H 0.90397 0.01922 0.31886 0.0
H1710 H 0.90713 0.02599 0.2763 0.0
H1711 H 0.89515 0.03745 0.30249 0.0
H1712 H 0.89935 0.03861 0.16785 0.0
H1713 H 0.86539 0.06602 0.21928 0.0
H1714 H 0.87533 0.98885 0.20207 0.0
H1715 H 0.89724 1.00205 0.23078 0.0
H1716 H 0.90258 1.00887 0.18838 0.0
H1717 H 0.8349 0.02461 0.26937 0.0
H1718 H 0.85123 0.05423 0.27188 0.0
H1719 H 0.8592 0.03704 0.29398 0.0
C1720 C 0.99355 0.82327 0.18852 0.0
C1721 C 0.97454 0.82522 0.18794 0.0
C1722 C 1.00881 0.83215 0.2139 0.0
C1723 C 1.00477 0.84282 0.23986 0.0
C1724 C 0.98567 0.84499 0.23941 0.0
C1725 C 0.97089 0.83638 0.2132 0.0
C1726 C 0.02914 0.82982 0.21312 0.0
C1727 C 0.98058 0.85585 0.26701 0.0
C1728 C 0.03186 0.84126 0.31847 0.0
C1729 C 0.05023 0.86262 0.32 0.0
C1730 C 0.0165 0.83497 0.29323 0.0
C1731 C 0.01982 0.85024 0.26837 0.0
C1732 C 0.03824 0.87192 0.26981 0.0
C1733 C 0.05312 0.87795 0.29589 0.0
C1734 C 0.99688 0.81183 0.29296 0.0
C1735 C 0.04256 0.88849 0.24337 0.0
H1736 H 0.99668 0.81498 0.16881 0.0
H1737 H 0.95626 0.83797 0.2128 0.0
H1738 H 0.04418 0.84616 0.21654 0.0
H1739 H 0.02855 0.81906 0.23329 0.0
H1740 H 0.03071 0.82261 0.19001 0.0
H1741 H 0.96556 0.85703 0.26241 0.0
H1742 H 0.97808 0.84625 0.28958 0.0
H1743 H 0.99469 0.87267 0.27128 0.0
H1744 H 0.02932 0.82942 0.33731 0.0
H1745 H 0.06727 0.89448 0.29703 0.0
H1746 H 0.99805 0.80259 0.27198 0.0
H1747 H 0.98137 0.81236 0.29021 0.0
H1748 H 0.99576 0.80257 0.3154 0.0
H1749 H 0.04555 0.88244 0.22017 0.0
H1750 H 0.05706 0.90493 0.24875 0.0
H1751 H 0.0279 0.89042 0.23984 0.0
C1752 C 0.87205 0.84556 0.69307 0.0
C1753 C 0.86755 0.82371 0.69488 0.0
C1754 C 0.86394 0.85414 0.71658 0.0
C1755 C 0.85182 0.84079 0.74316 0.0
C1756 C 0.84808 0.81897 0.74575 0.0
C1757 C 0.85554 0.81049 0.72109 0.0
C1758 C 0.86753 0.87714 0.71223 0.0
C1759 C 0.83601 0.80451 0.77437 0.0
C1760 C 0.84654 0.86932 0.818 0.0
C1761 C 0.82439 0.86385 0.81629 0.0
C1762 C 0.8557 0.86186 0.79441 0.0
C1763 C 0.84259 0.84942 0.76784 0.0
C1764 C 0.82045 0.84475 0.76531 0.0
C1765 C 0.81144 0.85157 0.79006 0.0
C1766 C 0.87906 0.86644 0.79869 0.0
C1767 C 0.80621 0.83232 0.7367 0.0
H1768 H 0.88101 0.85559 0.67237 0.0
H1769 H 0.85203 0.79356 0.72227 0.0
H1770 H 0.85134 0.87639 0.71039 0.0
H1771 H 0.87617 0.88748 0.73357 0.0
H1772 H 0.87733 0.88538 0.69022 0.0
H1773 H 0.8363 0.78878 0.77423 0.0
H1774 H 0.84351 0.81337 0.7973 0.0
H1775 H 0.81857 0.80057 0.77419 0.0
H1776 H 0.85638 0.87847 0.83873 0.0
H1777 H 0.79427 0.84732 0.78895 0.0
H1778 H 0.88919 0.87529 0.77728 0.0
H1779 H 0.87904 0.85061 0.80062 0.0
H1780 H 0.88707 0.87644 0.82064 0.0
H1781 H 0.81494 0.84002 0.71376 0.0
H1782 H 0.79014 0.83193 0.73685 0.0
H1783 H 0.80294 0.81509 0.73692 0.0
C1784 C 0.20061 0.02822 0.68089 0.0
C1785 C 0.19831 0.04694 0.67807 0.0
C1786 C 0.19103 0.01339 0.70667 0.0
C1787 C 0.17934 0.01768 0.73083 0.0
C1788 C 0.17662 0.03637 0.72788 0.0
C1789 C 0.1859 0.05066 0.70121 0.0
C1790 C 0.19392 0.99341 0.70842 0.0
C1791 C 0.1647 0.04176 0.75353 0.0
C1792 C 0.14433 0.97032 0.78851 0.0
C1793 C 0.15948 0.9742 0.8134 0.0
C1794 C 0.15031 0.98462 0.7617 0.0
C1795 C 0.1717 1.0035 0.76031 0.0
C1796 C 0.18666 1.00793 0.78613 0.0
C1797 C 0.18047 0.99309 0.81208 0.0
C1798 C 0.13409 0.97908 0.73432 0.0
C1799 C 0.20945 0.02809 0.786 0.0
H1800 H 0.2099 0.02507 0.66275 0.0
H1801 H 0.18409 0.06512 0.69905 0.0
H1802 H 0.20455 0.99499 0.72936 0.0
H1803 H 0.17773 0.97825 0.7122 0.0
H1804 H 0.20158 0.99132 0.68615 0.0
H1805 H 0.1627 0.05601 0.74664 0.0
H1806 H 0.14816 0.02728 0.75819 0.0
H1807 H 0.17408 0.04572 0.77658 0.0
H1808 H 0.12808 0.95574 0.78949 0.0
H1809 H 0.19213 0.99637 0.83154 0.0
H1810 H 0.14057 0.97528 0.71221 0.0
H1811 H 0.13202 0.99343 0.72859 0.0
H1812 H 0.11766 0.96468 0.74002 0.0
H1813 H 0.21945 0.02667 0.76633 0.0
H1814 H 0.21825 0.03026 0.8093 0.0
H1815 H 0.20838 0.04313 0.78119 0.0
C1816 C 0.98399 0.12934 0.69953 0.0
C1817 C 0.96923 0.13739 0.70082 0.0
C1818 C 1.00039 0.13518 0.72332 0.0
C1819 C 1.00172 0.14901 0.74928 0.0
C1820 C 0.98571 0.15568 0.75197 0.0
C1821 C 0.96985 0.15003 0.72752 0.0
C1822 C 0.01726 0.12793 0.71931 0.0
C1823 C 0.98615 0.16996 0.77967 0.0
C1824 C 0.03755 0.15943 0.82394 0.0
C1825 C 0.05467 0.18103 0.81805 0.0
C1826 C 0.0206 0.14821 0.80111 0.0
C1827 C 0.02112 0.15872 0.77151 0.0
C1828 C 0.03934 0.17983 0.76452 0.0
C1829 C 0.05572 0.19083 0.78803 0.0
C1830 C 1.00137 0.12586 0.80969 0.0
C1831 C 0.04088 0.19142 0.73294 0.0
H1832 H 0.98371 0.11972 0.67879 0.0
H1833 H 0.95839 0.15617 0.7287 0.0
H1834 H 0.03322 0.14227 0.71171 0.0
H1835 H 0.02014 0.12185 0.74258 0.0
H1836 H 1.01216 0.11475 0.70079 0.0
H1837 H 0.97104 0.1714 0.78044 0.0
H1838 H 0.98779 0.16316 0.80311 0.0
H1839 H 1.00067 0.18677 0.77713 0.0
H1840 H 0.03656 0.15189 0.84728 0.0
H1841 H 0.069 0.20749 0.78336 0.0
H1842 H 0.997 0.11425 0.78909 0.0
H1843 H 0.98672 0.12753 0.815 0.0
H1844 H 1.00489 0.11862 0.83124 0.0
H1845 H 0.0378 0.18016 0.71222 0.0
H1846 H 0.05727 0.20646 0.72965 0.0
H1847 H 0.02806 0.19632 0.73228 0.0
C1848 C 0.82346 0.5297 0.61243 0.0
C1849 C 0.81145 0.5171 0.63915 0.0
C1850 C 0.82936 0.52025 0.58722 0.0
C1851 C 0.82373 0.49781 0.58932 0.0
C1852 C 0.81068 0.48474 0.61553 0.0
C1853 C 0.80444 0.4945 0.63997 0.0
C1854 C 0.84269 0.53461 0.55922 0.0
C1855 C 0.80473 0.46092 0.61906 0.0
C1856 C 0.83319 0.47263 0.51367 0.0
C1857 C 0.85511 0.47775 0.5182 0.0
C1858 C 0.82237 0.47839 0.53709 0.0
C1859 C 0.83359 0.48894 0.56599 0.0
C1860 C 0.85521 0.49276 0.57149 0.0
C1861 C 0.86584 0.48746 0.54729 0.0
C1862 C 0.79952 0.47448 0.52998 0.0
C1863 C 0.86755 0.50338 0.60236 0.0
H1864 H 0.82882 0.54717 0.61172 0.0
H1865 H 0.79536 0.48478 0.66082 0.0
H1866 H 0.85988 0.53782 0.56084 0.0
H1867 H 0.83574 0.5261 0.53588 0.0
H1868 H 0.84317 0.55073 0.559 0.0
H1869 H 0.79229 0.45232 0.6384 0.0
H1870 H 0.7982 0.45189 0.59597 0.0
H1871 H 0.81979 0.46017 0.62517 0.0
H1872 H 0.82497 0.46536 0.49098 0.0
H1873 H 0.88276 0.49134 0.55085 0.0
H1874 H 0.80039 0.49056 0.52581 0.0
H1875 H 0.78841 0.46654 0.55092 0.0
H1876 H 0.79215 0.46398 0.50823 0.0
H1877 H 0.87167 0.52088 0.6031 0.0
H1878 H 0.88311 0.50286 0.60445 0.0
H1879 H 0.85707 0.49498 0.62373 0.0
C1880 C 0.49583 0.32299 0.64531 0.0
C1881 C 0.49776 0.30397 0.64521 0.0
C1882 C 0.50522 0.33885 0.62076 0.0
C1883 C 0.51641 0.33541 0.59491 0.0
C1884 C 0.5186 0.31633 0.59471 0.0
C1885 C 0.50946 0.30093 0.62013 0.0
C1886 C 0.50283 0.35913 0.62223 0.0
C1887 C 0.53 0.31187 0.56718 0.0
C1888 C 0.51546 0.36378 0.51734 0.0
C1889 C 0.53672 0.38235 0.51662 0.0
C1890 C 0.50906 0.34795 0.54191 0.0
C1891 C 0.52409 0.35096 0.56697 0.0
C1892 C 0.54569 0.36957 0.56632 0.0
C1893 C 0.55187 0.38494 0.54085 0.0
C1894 C 0.48601 0.32817 0.5413 0.0
C1895 C 0.56201 0.37355 0.593 0.0
H1896 H 0.48715 0.32567 0.66493 0.0
H1897 H 0.51106 0.2863 0.62003 0.0
H1898 H 0.51918 0.37425 0.61946 0.0
H1899 H 0.49228 0.35885 0.60197 0.0
H1900 H 0.49533 0.36025 0.64534 0.0
H1901 H 0.53132 0.2969 0.57142 0.0
H1902 H 0.52069 0.30963 0.5444 0.0
H1903 H 0.54681 0.32618 0.56357 0.0
H1904 H 0.50377 0.36144 0.49836 0.0
H1905 H 0.56833 0.39923 0.54031 0.0
H1906 H 0.47643 0.32887 0.56219 0.0
H1907 H 0.48669 0.31272 0.54359 0.0
H1908 H 0.47699 0.32734 0.51872 0.0
H1909 H 0.55569 0.37615 0.61623 0.0
H1910 H 0.57847 0.38817 0.58815 0.0
H1911 H 0.56398 0.35889 0.59613 0.0
C1912 C 0.66241 0.15736 0.52165 0.0
C1913 C 0.64376 0.15989 0.52012 0.0
C1914 C 0.67784 0.1668 0.54671 0.0
C1915 C 0.67433 0.17865 0.57147 0.0
C1916 C 0.65572 0.18163 0.56986 0.0
C1917 C 0.64077 0.17244 0.54388 0.0
C1918 C 0.69766 0.16361 0.54706 0.0
C1919 C 0.65119 0.19378 0.59616 0.0
C1920 C 0.70068 0.17759 0.65115 0.0
C1921 C 0.71969 0.19853 0.65182 0.0
C1922 C 0.68531 0.17138 0.62591 0.0
C1923 C 0.68926 0.18626 0.60015 0.0
C1924 C 0.70834 0.20753 0.60075 0.0
C1925 C 0.72321 0.21353 0.62685 0.0
C1926 C 0.665 0.1487 0.62657 0.0
C1927 C 0.71338 0.22365 0.57336 0.0
H1928 H 0.66502 0.148 0.50302 0.0
H1929 H 0.6264 0.17445 0.54272 0.0
H1930 H 0.71304 0.17971 0.55016 0.0
H1931 H 0.69648 0.15303 0.56786 0.0
H1932 H 0.69905 0.15575 0.5245 0.0
H1933 H 0.63686 0.19591 0.59034 0.0
H1934 H 0.64779 0.18451 0.61924 0.0
H1935 H 0.66588 0.21028 0.60017 0.0
H1936 H 0.69765 0.16604 0.67067 0.0
H1937 H 0.73785 0.22975 0.62731 0.0
H1938 H 0.66572 0.1386 0.60644 0.0
H1939 H 0.64995 0.14996 0.62298 0.0
H1940 H 0.66337 0.1399 0.64969 0.0
H1941 H 0.71622 0.21685 0.55078 0.0
H1942 H 0.72821 0.23994 0.5783 0.0
H1943 H 0.69913 0.22611 0.56893 0.0
C1944 C 0.5415 0.18055 0.02332 0.0
C1945 C 0.53581 0.15832 0.02446 0.0
C1946 C 0.53398 0.18953 0.04709 0.0
C1947 C 0.52125 0.17614 0.07325 0.0
C1948 C 0.51631 0.15389 0.07518 0.0
C1949 C 0.52321 0.14508 0.05028 0.0
C1950 C 0.53885 0.21303 0.04347 0.0
C1951 C 0.50352 0.13933 0.10334 0.0
C1952 C 0.51684 0.20408 0.14937 0.0
C1953 C 0.49497 0.1995 0.14757 0.0
C1954 C 0.52569 0.19665 0.12527 0.0
C1955 C 0.51257 0.18516 0.09816 0.0
C1956 C 0.49081 0.18156 0.09547 0.0
C1957 C 0.48207 0.18831 0.12066 0.0
C1958 C 0.54863 0.20008 0.12965 0.0
C1959 C 0.47662 0.17018 0.06632 0.0
H1960 H 0.55093 0.19063 0.00294 0.0
H1961 H 0.51883 0.12787 0.05098 0.0
H1962 H 0.52313 0.21322 0.04138 0.0
H1963 H 0.54754 0.2228 0.06521 0.0
H1964 H 0.54912 0.22127 0.02182 0.0
H1965 H 0.50286 0.12314 0.10272 0.0
H1966 H 0.51113 0.14766 0.12655 0.0
H1967 H 0.48638 0.13632 0.10303 0.0
H1968 H 0.52663 0.21238 0.17058 0.0
H1969 H 0.46511 0.18474 0.11946 0.0
H1970 H 0.55906 0.20873 0.10838 0.0
H1971 H 0.54774 0.18383 0.13144 0.0
H1972 H 0.55685 0.20978 0.15174 0.0
H1973 H 0.48581 0.17794 0.04371 0.0
H1974 H 0.46106 0.17081 0.06633 0.0
H1975 H 0.47233 0.15263 0.06593 0.0
C1976 C 0.8349 0.37052 0.02282 0.0
C1977 C 0.85722 0.38674 0.02544 0.0
C1978 C 0.82457 0.3544 0.04704 0.0
C1979 C 0.83676 0.35493 0.07477 0.0
C1980 C 0.8588 0.37232 0.07855 0.0
C1981 C 0.86886 0.3878 0.05361 0.0
C1982 C 0.8012 0.33594 0.04179 0.0
C1983 C 0.87221 0.37389 0.10813 0.0
C1984 C 0.80984 0.32007 0.14973 0.0
C1985 C 0.816 0.3039 0.14685 0.0
C1986 C 0.81574 0.33642 0.12586 0.0
C1987 C 0.82755 0.3362 0.09817 0.0
C1988 C 0.83245 0.31899 0.09422 0.0
C1989 C 0.82691 0.30326 0.11882 0.0
C1990 C 0.81058 0.3547 0.13129 0.0
C1991 C 0.84449 0.31776 0.06467 0.0
H1992 H 0.82594 0.36953 1.00087 0.0
H1993 H 0.8861 0.4004 0.05571 0.0
H1994 H 0.80133 0.32046 0.03647 0.0
H1995 H 0.79116 0.33301 0.06394 0.0
H1996 H 0.79309 0.33941 0.02131 0.0
H1997 H 0.88799 0.38984 0.10927 0.0
H1998 H 0.86265 0.37201 0.13049 0.0
H1999 H 0.87607 0.36032 0.10779 0.0
H2000 H 0.80158 0.32072 0.17154 0.0
H2001 H 0.83156 0.29068 0.11646 0.0
H2002 H 0.8032 0.35745 0.10927 0.0
H2003 H 0.82612 0.37031 0.13638 0.0
H2004 H 0.79913 0.35114 0.15195 0.0
H2005 H 0.83664 0.3194 0.0423 0.0
H2006 H 0.84475 0.30203 0.06352 0.0
H2007 H 0.86178 0.33162 0.06501 0.0
C2008 C 0.65566 0.46928 0.0292 0.0
C2009 C 0.63916 0.47503 0.03116 0.0
C2010 C 0.67183 0.47573 0.05348 0.0
C2011 C 0.67107 0.48769 0.08062 0.0
C2012 C 0.65341 0.492 0.08379 0.0
C2013 C 0.63788 0.48592 0.05878 0.0
C2014 C 0.69057 0.47116 0.04887 0.0
C2015 C 0.6516 0.50415 0.11277 0.0
C2016 C 0.70611 0.49741 0.15594 0.0
C2017 C 0.72198 0.51978 0.15237 0.0
C2018 C 0.68981 0.48635 0.13219 0.0
C2019 C 0.6898 0.49785 0.10396 0.0
C2020 C 0.70674 0.52001 0.09934 0.0
C2021 C 0.72241 0.5308 0.12382 0.0
C2022 C 0.67182 0.46289 0.13832 0.0
C2023 C 0.70771 0.53271 0.0692 0.0
H2024 H 0.65682 0.46107 0.00767 0.0
H2025 H 0.62505 0.49028 0.06039 0.0
H2026 H 0.70589 0.48684 0.04314 0.0
H2027 H 0.69368 0.46453 0.07142 0.0
H2028 H 0.68729 0.4593 0.02887 0.0
H2029 H 0.6355 0.50368 0.11356 0.0
H2030 H 0.65365 0.49693 0.13553 0.0
H2031 H 0.66496 0.52166 0.1119 0.0
H2032 H 0.70562 0.48891 0.17816 0.0
H2033 H 0.73475 0.54806 0.12095 0.0
H2034 H 0.66922 0.45247 0.11671 0.0
H2035 H 0.65608 0.46259 0.14312 0.0
H2036 H 0.6756 0.45545 0.1594 0.0
H2037 H 0.70622 0.52292 0.04725 0.0
H2038 H 0.72329 0.54882 0.06764 0.0
H2039 H 0.69366 0.53585 0.06909 0.0
C2040 C 0.47398 0.82539 0.99561 0.0
C2041 C 0.47742 0.84662 0.98974 0.0
C2042 C 0.47952 0.81442 0.97216 0.0
C2043 C 0.48821 0.82478 0.94199 0.0
C2044 C 0.49004 0.84547 0.93514 0.0
C2045 C 0.48491 0.85627 0.95926 0.0
C2046 C 0.47763 0.79254 0.98058 0.0
C2047 C 0.49866 0.85685 0.90298 0.0
C2048 C 0.53029 0.81726 0.89464 0.0
C2049 C 0.51753 0.80381 0.86904 0.0
C2050 C 0.52059 0.82291 0.9198 0.0
C2051 C 0.49767 0.81541 0.91885 0.0
C2052 C 0.48452 0.80091 0.89389 0.0
C2053 C 0.4946 0.79507 0.86942 0.0
C2054 C 0.53514 0.83793 0.94643 0.0
C2055 C 0.46012 0.79285 0.89172 0.0
H2056 H 0.46839 0.81798 0.01929 0.0
H2057 H 0.48746 0.87264 0.95463 0.0
H2058 H 0.46989 0.78059 0.96048 0.0
H2059 H 0.49438 0.79491 0.98434 0.0
H2060 H 0.46784 0.78531 0.00297 0.0
H2061 H 0.49649 0.87144 0.90006 0.0
H2062 H 0.51651 0.86243 0.90097 0.0
H2063 H 0.49011 0.84523 0.88276 0.0
H2064 H 0.548 0.82393 0.89448 0.0
H2065 H 0.48472 0.78482 0.84948 0.0
H2066 H 0.52769 0.83129 0.97047 0.0
H2067 H 0.53663 0.85441 0.94385 0.0
H2068 H 0.55197 0.84006 0.94583 0.0
H2069 H 0.45205 0.78676 0.91555 0.0
H2070 H 0.45176 0.77946 0.87358 0.0
H2071 H 0.45767 0.80678 0.88464 0.0
C2072 C 0.21247 0.71739 0.88169 0.0
C2073 C 0.19729 0.71528 0.8578 0.0
C2074 C 0.20596 0.70235 0.90761 0.0
C2075 C 0.18394 0.68455 0.90911 0.0
C2076 C 0.16874 0.68211 0.88464 0.0
C2077 C 0.17553 0.69762 0.85955 0.0
C2078 C 0.22249 0.70572 0.93367 0.0
C2079 C 0.14524 0.66314 0.88498 0.0
C2080 C 0.16925 0.63426 0.96149 0.0
C2081 C 0.15876 0.63785 0.98778 0.0
C2082 C 0.17782 0.64947 0.93581 0.0
C2083 C 0.17632 0.66892 0.93691 0.0
C2084 C 0.16622 0.67283 0.96378 0.0
C2085 C 0.15735 0.65715 0.98866 0.0
C2086 C 0.18803 0.6445 0.9072 0.0
C2087 C 0.16462 0.69353 0.96614 0.0
H2088 H 0.22931 0.73099 0.8804 0.0
H2089 H 0.16378 0.69567 0.8409 0.0
H2090 H 0.21658 0.70819 0.95737 0.0
H2091 H 0.22414 0.69081 0.93591 0.0
H2092 H 0.23904 0.72018 0.92873 0.0
H2093 H 0.13586 0.6629 0.86312 0.0
H2094 H 0.14507 0.64722 0.88645 0.0
H2095 H 0.13654 0.66427 0.90668 0.0
H2096 H 0.17041 0.61939 0.96074 0.0
H2097 H 0.14957 0.6602 0.00915 0.0
H2098 H 0.2051 0.65825 0.90321 0.0
H2099 H 0.17846 0.64301 0.88498 0.0
H2100 H 0.1885 0.62898 0.91047 0.0
H2101 H 0.18117 0.70834 0.96304 0.0
H2102 H 0.15768 0.69482 0.98968 0.0
H2103 H 0.15395 0.69376 0.94644 0.0
C2104 C 0.38909 0.54471 0.95697 0.0
C2105 C 0.38572 0.52962 0.98172 0.0
C2106 C 0.37446 0.53854 0.93054 0.0
C2107 C 0.35577 0.51702 0.92944 0.0
C2108 C 0.3519 0.50208 0.95508 0.0
C2109 C 0.36706 0.50846 0.98062 0.0
C2110 C 0.37941 0.55474 0.90331 0.0
C2111 C 0.33193 0.47916 0.95525 0.0
C2112 C 0.30783 0.50311 0.87208 0.0
C2113 C 0.31144 0.49116 0.848 0.0
C2114 C 0.32231 0.51199 0.89861 0.0
C2115 C 0.34109 0.50934 0.9005 0.0
C2116 C 0.34515 0.49794 0.87561 0.0
C2117 C 0.33015 0.48877 0.84995 0.0
C2118 C 0.31716 0.52358 0.92507 0.0
C2119 C 0.3652 0.49513 0.8763 0.0
H2120 H 0.4035 0.56108 0.95778 0.0
H2121 H 0.36417 0.49685 0.99999 0.0
H2122 H 0.38269 0.54825 0.88077 0.0
H2123 H 0.36495 0.55682 0.8986 0.0
H2124 H 0.39395 0.57117 0.90858 0.0
H2125 H 0.33028 0.47029 0.97833 0.0
H2126 H 0.31669 0.48001 0.95134 0.0
H2127 H 0.33315 0.46933 0.93513 0.0
H2128 H 0.2934 0.50501 0.87063 0.0
H2129 H 0.33322 0.47986 0.83112 0.0
H2130 H 0.33148 0.5403 0.92922 0.0
H2131 H 0.31402 0.51427 0.94807 0.0
H2132 H 0.30249 0.52515 0.9193 0.0
H2133 H 0.38038 0.51136 0.87966 0.0
H2134 H 0.36692 0.48746 0.85377 0.0
H2135 H 0.36404 0.48456 0.89709 0.0
C2136 C 0.1882 0.54382 0.48109 0.0
C2137 C 0.16618 0.53876 0.47903 0.0
C2138 C 0.19748 0.53681 0.45703 0.0
C2139 C 0.18463 0.52526 0.42976 0.0
C2140 C 0.16275 0.52128 0.42675 0.0
C2141 C 0.1536 0.52762 0.45186 0.0
C2142 C 0.22054 0.54064 0.46174 0.0
C2143 C 0.14881 0.50977 0.39745 0.0
C2144 C 0.2135 0.52024 0.35512 0.0
C2145 C 0.20779 0.498 0.35658 0.0
C2146 C 0.20616 0.52942 0.37886 0.0
C2147 C 0.19355 0.51622 0.40524 0.0
C2148 C 0.18871 0.49403 0.4076 0.0
C2149 C 0.19548 0.48503 0.38281 0.0
C2150 C 0.21097 0.55287 0.37485 0.0
C2151 C 0.17602 0.47966 0.43598 0.0
H2152 H 0.19775 0.55208 0.50249 0.0
H2153 H 0.13653 0.52369 0.45046 0.0
H2154 H 0.21986 0.52452 0.4643 0.0
H2155 H 0.23091 0.549 0.4403 0.0
H2156 H 0.22868 0.55076 0.48355 0.0
H2157 H 0.13319 0.51028 0.39709 0.0
H2158 H 0.15813 0.51752 0.37492 0.0
H2159 H 0.14464 0.49226 0.39728 0.0
H2160 H 0.22272 0.53013 0.33447 0.0
H2161 H 0.19109 0.46782 0.38383 0.0
H2162 H 0.21925 0.56271 0.39676 0.0
H2163 H 0.19524 0.55294 0.37197 0.0
H2164 H 0.22158 0.56113 0.3535 0.0
H2165 H 0.18353 0.48825 0.45907 0.0
H2166 H 0.17559 0.46357 0.4358 0.0
H2167 H 0.1588 0.47642 0.43545 0.0
C2168 C 0.52 0.6613 0.48213 0.0
C2169 C 0.49831 0.64365 0.48493 0.0
C2170 C 0.52619 0.67653 0.45671 0.0
C2171 C 0.51044 0.67377 0.43292 0.0
C2172 C 0.4884 0.65616 0.43582 0.0
C2173 C 0.48251 0.64145 0.4621 0.0
C2174 C 0.54973 0.69533 0.45498 0.0
C2175 C 0.47127 0.65239 0.41055 0.0
C2176 C 0.52506 0.72242 0.3767 0.0
C2177 C 0.53497 0.71767 0.35083 0.0
C2178 C 0.51666 0.70813 0.4035 0.0
C2179 C 0.51766 0.68839 0.40391 0.0
C2180 C 0.527 0.68322 0.3773 0.0
C2181 C 0.53578 0.69805 0.35135 0.0
C2182 C 0.50731 0.71445 0.43177 0.0
C2183 C 0.52799 0.66215 0.37641 0.0
H2184 H 0.53221 0.66329 0.50002 0.0
H2185 H 0.46573 0.62782 0.46422 0.0
H2186 H 0.55804 0.69322 0.43354 0.0
H2187 H 0.55006 0.71126 0.45205 0.0
H2188 H 0.55938 0.6963 0.4769 0.0
H2189 H 0.45462 0.63872 0.41722 0.0
H2190 H 0.47037 0.66763 0.4069 0.0
H2191 H 0.47608 0.64837 0.38705 0.0
H2192 H 0.52439 0.73756 0.37636 0.0
H2193 H 0.54309 0.6941 0.33115 0.0
H2194 H 0.51749 0.71684 0.45364 0.0
H2195 H 0.49034 0.70099 0.43725 0.0
H2196 H 0.50687 0.72987 0.42715 0.0
H2197 H 0.53909 0.66243 0.39581 0.0
H2198 H 0.53411 0.65974 0.35282 0.0
H2199 H 0.51138 0.64773 0.38099 0.0
C2200 C 0.3655 0.86363 0.49137 0.0
C2201 C 0.38402 0.86094 0.49353 0.0
C2202 C 0.35024 0.85411 0.4661 0.0
C2203 C 0.35384 0.84202 0.44179 0.0
C2204 C 0.3724 0.83903 0.44392 0.0
C2205 C 0.38716 0.8483 0.47007 0.0
C2206 C 0.33045 0.85734 0.46514 0.0
C2207 C 0.37704 0.82667 0.41807 0.0
C2208 C 0.305 0.80635 0.38684 0.0
C2209 C 0.3084 0.8211 0.36159 0.0
C2210 C 0.31992 0.81269 0.41292 0.0
C2211 C 0.33893 0.83402 0.41312 0.0
C2212 C 0.34283 0.84857 0.38692 0.0
C2213 C 0.32738 0.84205 0.36177 0.0
C2214 C 0.31493 0.79692 0.44078 0.0
C2215 C 0.36311 0.87125 0.38577 0.0
H2216 H 0.36277 0.87307 0.50974 0.0
H2217 H 0.40144 0.84616 0.4717 0.0
H2218 H 0.33165 0.8676 0.44391 0.0
H2219 H 0.31507 0.8412 0.46239 0.0
H2220 H 0.32906 0.86554 0.48731 0.0
H2221 H 0.39152 0.82483 0.42408 0.0
H2222 H 0.36246 0.81003 0.41452 0.0
H2223 H 0.38024 0.83558 0.39469 0.0
H2224 H 0.29036 0.79013 0.38671 0.0
H2225 H 0.33027 0.85338 0.34198 0.0
H2226 H 0.31193 0.80393 0.46301 0.0
H2227 H 0.32927 0.79467 0.4457 0.0
H2228 H 0.30021 0.78051 0.43609 0.0
H2229 H 0.36232 0.88165 0.40539 0.0
H2230 H 0.36476 0.87969 0.36228 0.0
H2231 H 0.37818 0.87009 0.38983 0.0
C2232 C 0.31239 0.18299 0.13946 0.0
C2233 C 0.29214 0.16444 0.14743 0.0
C2234 C 0.33236 0.18539 0.15115 0.0
C2235 C 0.33197 0.16935 0.17254 0.0
C2236 C 0.31147 0.15069 0.18095 0.0
C2237 C 0.29182 0.14824 0.16774 0.0
C2238 C 0.35386 0.20504 0.14046 0.0
C2239 C 0.31023 0.13362 0.20456 0.0
C2240 C 0.38344 0.16445 0.18273 0.0
C2241 C 0.39352 0.17788 0.20975 0.0
C2242 C 0.36358 0.16176 0.17015 0.0
C2243 C 0.35303 0.17199 0.18582 0.0
C2244 C 0.36284 0.18504 0.21379 0.0
C2245 C 0.38327 0.18826 0.22498 0.0
C2246 C 0.35425 0.14851 0.13954 0.0
C2247 C 0.35175 0.19554 0.23194 0.0
H2248 H 0.31261 0.19551 0.12371 0.0
H2249 H 0.27611 0.13406 0.17431 0.0
H2250 H 0.36257 0.21558 0.1616 0.0
H2251 H 0.3648 0.19942 0.12996 0.0
H2252 H 0.35137 0.21526 0.1222 0.0
H2253 H 0.29296 0.12055 0.20954 0.0
H2254 H 0.3194 0.12573 0.19496 0.0
H2255 H 0.31817 0.14169 0.22776 0.0
H2256 H 0.39156 0.15669 0.17064 0.0
H2257 H 0.39107 0.19862 0.2459 0.0
H2258 H 0.35255 0.1589 0.12073 0.0
H2259 H 0.33753 0.13431 0.14415 0.0
H2260 H 0.3648 0.14214 0.12981 0.0
H2261 H 0.35084 0.208 0.2164 0.0
H2262 H 0.36065 0.20376 0.25456 0.0
H2263 H 0.33456 0.18287 0.23817 0.0
C2264 C 0.85594 0.21715 0.20393 0.0
C2265 C 0.83682 0.21797 0.19651 0.0
C2266 C 0.85878 0.19975 0.19277 0.0
C2267 C 0.84253 0.1833 0.17252 0.0
C2268 C 0.82326 0.1842 0.16474 0.0
C2269 C 0.82044 0.2013 0.17738 0.0
C2270 C 0.87914 0.19896 0.20272 0.0
C2271 C 0.80589 0.16745 0.14237 0.0
C2272 C 0.8617 0.15123 0.12006 0.0
C2273 C 0.85249 0.13098 0.13634 0.0
C2274 C 0.85804 0.16819 0.131 0.0
C2275 C 0.84567 0.16511 0.15966 0.0
C2276 C 0.83659 0.14474 0.17637 0.0
C2277 C 0.83975 0.12779 0.16415 0.0
C2278 C 0.86735 0.18936 0.11184 0.0
C2279 C 0.82402 0.14102 0.20763 0.0
H2280 H 0.8686 0.23004 0.21879 0.0
H2281 H 0.80579 0.20211 0.17125 0.0
H2282 H 0.87434 0.18277 0.21398 0.0
H2283 H 0.88926 0.20065 0.18111 0.0
H2284 H 0.88951 0.21224 0.22014 0.0
H2285 H 0.79221 0.17085 0.13793 0.0
H2286 H 0.81349 0.16743 0.1188 0.0
H2287 H 0.79888 0.15065 0.15276 0.0
H2288 H 0.87149 0.15368 0.09849 0.0
H2289 H 0.83284 0.11222 0.17702 0.0
H2290 H 0.87979 0.20331 0.12653 0.0
H2291 H 0.85404 0.19301 0.1059 0.0
H2292 H 0.87528 0.18858 0.08897 0.0
H2293 H 0.83459 0.1537 0.22565 0.0
H2294 H 0.8185 0.12443 0.21809 0.0
H2295 H 0.80932 0.1428 0.20356 0.0
C2296 C 0.82165 0.62633 0.17697 0.0
C2297 C 0.80657 0.62692 0.19865 0.0
C2298 C 0.83842 0.64581 0.16276 0.0
C2299 C 0.84074 0.66644 0.17156 0.0
C2300 C 0.82596 0.66712 0.1944 0.0
C2301 C 0.80872 0.64729 0.20706 0.0
C2302 C 0.85322 0.64424 0.13762 0.0
C2303 C 0.82838 0.68876 0.20552 0.0
C2304 C 0.89675 0.71749 0.1564 0.0
C2305 C 0.89228 0.72721 0.12996 0.0
C2306 C 0.88006 0.69795 0.17049 0.0
C2307 C 0.8586 0.68731 0.1569 0.0
C2308 C 0.85419 0.69677 0.12952 0.0
C2309 C 0.87097 0.71692 0.11687 0.0
C2310 C 0.88528 0.68902 0.20045 0.0
C2311 C 0.8318 0.68555 0.11349 0.0
H2312 H 0.81974 0.61052 0.17007 0.0
H2313 H 0.79703 0.64771 0.22383 0.0
H2314 H 0.85212 0.65188 0.11465 0.0
H2315 H 0.87066 0.65351 0.14569 0.0
H2316 H 0.8488 0.6269 0.13269 0.0
H2317 H 0.81658 0.68652 0.22514 0.0
H2318 H 0.84542 0.69981 0.2144 0.0
H2319 H 0.82557 0.69723 0.18492 0.0
H2320 H 0.91318 0.72565 0.16682 0.0
H2321 H 0.86754 0.72445 0.09639 0.0
H2322 H 0.88256 0.67225 0.19574 0.0
H2323 H 0.874 0.68756 0.22039 0.0
H2324 H 0.90257 0.69969 0.20869 0.0
H2325 H 0.82693 0.66827 0.1073 0.0
H2326 H 0.83152 0.69419 0.09108 0.0
H2327 H 0.81921 0.68491 0.13042 0.0
C2328 C 0.17527 0.37731 0.29229 0.0
C2329 C 0.19397 0.39749 0.30017 0.0
C2330 C 0.17245 0.3573 0.30454 0.0
C2331 C 0.18829 0.35756 0.32623 0.0
C2332 C 0.20717 0.37795 0.33436 0.0
C2333 C 0.20997 0.39763 0.32076 0.0
C2334 C 0.15251 0.3359 0.2943 0.0
C2335 C 0.22409 0.37905 0.35812 0.0
C2336 C 0.16845 0.30698 0.38055 0.0
C2337 C 0.17811 0.29588 0.36569 0.0
C2338 C 0.17216 0.3274 0.36855 0.0
C2339 C 0.18511 0.33648 0.34029 0.0
C2340 C 0.19472 0.32518 0.32508 0.0
C2341 C 0.19143 0.30525 0.3383 0.0
C2342 C 0.16219 0.33925 0.38609 0.0
C2343 C 0.208 0.33383 0.29433 0.0
H2344 H 0.16289 0.37717 0.27635 0.0
H2345 H 0.22428 0.41326 0.32728 0.0
H2346 H 0.15777 0.32455 0.28426 0.0
H2347 H 0.14192 0.32761 0.3156 0.0
H2348 H 0.14245 0.33844 0.27582 0.0
H2349 H 0.23759 0.39624 0.36242 0.0
H2350 H 0.21601 0.37174 0.38158 0.0
H2351 H 0.23143 0.36922 0.3491 0.0
H2352 H 0.1582 0.29981 0.40177 0.0
H2353 H 0.19869 0.29656 0.32646 0.0
H2354 H 0.15001 0.34041 0.37027 0.0
H2355 H 0.17523 0.35636 0.39196 0.0
H2356 H 0.1538 0.33075 0.40887 0.0
H2357 H 0.19773 0.33546 0.27525 0.0
H2358 H 0.21406 0.32288 0.28521 0.0
H2359 H 0.2224 0.3505 0.29847 0.0
C2360 C 0.63097 0.81765 0.31507 0.0
C2361 C 0.63129 0.80275 0.29268 0.0
C2362 C 0.65063 0.83446 0.32878 0.0
C2363 C 0.67116 0.83694 0.31902 0.0
C2364 C 0.67157 0.82228 0.29572 0.0
C2365 C 0.6516 0.80511 0.28331 0.0
C2366 C 0.64938 0.84927 0.35424 0.0
C2367 C 0.69309 0.82479 0.28379 0.0
C2368 C 0.72234 0.89317 0.33198 0.0
C2369 C 0.73255 0.88911 0.35821 0.0
C2370 C 0.70253 0.87631 0.31879 0.0
C2371 C 0.69222 0.855 0.33289 0.0
C2372 C 0.70217 0.85096 0.35998 0.0
C2373 C 0.72245 0.86796 0.37194 0.0
C2374 C 0.69292 0.88118 0.28929 0.0
C2375 C 0.69137 0.8287 0.37639 0.0
H2376 H 0.61527 0.81568 0.32272 0.0
H2377 H 0.65189 0.79364 0.26596 0.0
H2378 H 0.6575 0.84835 0.37681 0.0
H2379 H 0.65837 0.86668 0.34597 0.0
H2380 H 0.6321 0.84472 0.35994 0.0
H2381 H 0.69062 0.81271 0.26451 0.0
H2382 H 0.70376 0.8417 0.27416 0.0
H2383 H 0.70211 0.82252 0.30415 0.0
H2384 H 0.73024 0.90943 0.32102 0.0
H2385 H 0.73027 0.86479 0.39228 0.0
H2386 H 0.67615 0.87826 0.29473 0.0
H2387 H 0.69126 0.86986 0.2693 0.0
H2388 H 0.70325 0.89846 0.28075 0.0
H2389 H 0.67424 0.82387 0.38354 0.0
H2390 H 0.70055 0.82859 0.39828 0.0
H2391 H 0.69032 0.81598 0.35934 0.0
C2392 C 0.2161 0.8474 0.29773 0.0
C2393 C 0.21948 0.83038 0.30881 0.0
C2394 C 0.19892 0.85013 0.31021 0.0
C2395 C 0.18539 0.83608 0.33535 0.0
C2396 C 0.18892 0.81899 0.34681 0.0
C2397 C 0.20564 0.81608 0.33295 0.0
C2398 C 0.19521 0.868 0.2964 0.0
C2399 C 0.1754 0.80413 0.37428 0.0
C2400 C 0.1553 0.85792 0.38709 0.0
C2401 C 0.13365 0.8455 0.37555 0.0
C2402 C 0.17221 0.85461 0.37486 0.0
C2403 C 0.16749 0.8392 0.34952 0.0
C2404 C 0.14566 0.82689 0.33749 0.0
C2405 C 0.12894 0.82987 0.3511 0.0
C2406 C 0.19507 0.8675 0.38917 0.0
C2407 C 0.14005 0.81093 0.30972 0.0
H2408 H 0.22678 0.85844 0.27902 0.0
H2409 H 0.20845 0.80311 0.34188 0.0
H2410 H 0.17784 0.8608 0.28823 0.0
H2411 H 0.19804 0.88035 0.31536 0.0
H2412 H 0.2063 0.87664 0.27564 0.0
H2413 H 0.18068 0.7921 0.38108 0.0
H2414 H 0.17686 0.81423 0.39585 0.0
H2415 H 0.1577 0.79487 0.36748 0.0
H2416 H 0.15894 0.86997 0.40605 0.0
H2417 H 0.11224 0.82046 0.34182 0.0
H2418 H 0.20687 0.87843 0.37051 0.0
H2419 H 0.20074 0.85603 0.39731 0.0
H2420 H 0.19571 0.87779 0.41006 0.0
H2421 H 0.15046 0.81966 0.28843 0.0
H2422 H 0.12242 0.80316 0.3025 0.0
H2423 H 0.14365 0.7977 0.31643 0.0
C2424 C 0.70633 0.83137 0.88794 0.0
C2425 C 0.72634 0.84971 0.87844 0.0
C2426 C 0.68607 0.82821 0.8762 0.0
C2427 C 0.68588 0.84329 0.85344 0.0
C2428 C 0.7061 0.86177 0.84363 0.0
C2429 C 0.72604 0.86496 0.8567 0.0
C2430 C 0.66488 0.80875 0.88819 0.0
C2431 C 0.70671 0.87786 0.81871 0.0
C2432 C 0.63433 0.82254 0.80099 0.0
C2433 C 0.62392 0.83312 0.81519 0.0
C2434 C 0.65475 0.82608 0.81272 0.0
C2435 C 0.66453 0.83984 0.84006 0.0
C2436 C 0.65387 0.8503 0.85469 0.0
C2437 C 0.63392 0.84712 0.84173 0.0
C2438 C 0.66592 0.8152 0.79575 0.0
C2439 C 0.6633 0.8645 0.88447 0.0
H2440 H 0.70653 0.81957 0.90476 0.0
H2441 H 0.74152 0.87898 0.84892 0.0
H2442 H 0.65391 0.8145 0.89821 0.0
H2443 H 0.65597 0.79749 0.86778 0.0
H2444 H 0.66781 0.79926 0.90719 0.0
H2445 H 0.72382 0.89102 0.81297 0.0
H2446 H 0.69865 0.86895 0.79605 0.0
H2447 H 0.69734 0.88575 0.82751 0.0
H2448 H 0.62665 0.81175 0.78042 0.0
H2449 H 0.62577 0.85511 0.85305 0.0
H2450 H 0.66744 0.80363 0.81248 0.0
H2451 H 0.68288 0.82786 0.78846 0.0
H2452 H 0.65674 0.80592 0.77387 0.0
H2453 H 0.66541 0.85484 0.90404 0.0
H2454 H 0.65262 0.87089 0.89356 0.0
H2455 H 0.67985 0.87874 0.87906 0.0
C2456 C 0.19598 0.82131 0.78852 0.0
C2457 C 0.1832 0.7997 0.8001 0.0
C2458 C 0.19308 0.83848 0.8007 0.0
C2459 C 0.17773 0.83407 0.82603 0.0
C2460 C 0.16507 0.81229 0.83811 0.0
C2461 C 0.16765 0.79531 0.82455 0.0
C2462 C 0.20632 0.86129 0.78634 0.0
C2463 C 0.14915 0.80698 0.86587 0.0
C2464 C 0.18654 0.8829 0.8778 0.0
C2465 C 0.16968 0.88651 0.86671 0.0
C2466 C 0.18906 0.8656 0.86527 0.0
C2467 C 0.17496 0.8522 0.84008 0.0
C2468 C 0.15807 0.85601 0.82856 0.0
C2469 C 0.15536 0.87284 0.84247 0.0
C2470 C 0.20671 0.86157 0.87914 0.0
C2471 C 0.14317 0.84264 0.80103 0.0
H2472 H 0.20797 0.8247 0.76957 0.0
H2473 H 0.15797 0.77865 0.83386 0.0
H2474 H 0.19509 0.86723 0.77808 0.0
H2475 H 0.21734 0.87301 0.80501 0.0
H2476 H 0.21657 0.86171 0.76553 0.0
H2477 H 0.14114 0.78936 0.8732 0.0
H2478 H 0.15798 0.81739 0.8871 0.0
H2479 H 0.1361 0.81082 0.85906 0.0
H2480 H 0.1976 0.89346 0.89659 0.0
H2481 H 0.14251 0.87583 0.83354 0.0
H2482 H 0.21898 0.86413 0.86018 0.0
H2483 H 0.19926 0.84421 0.88746 0.0
H2484 H 0.2155 0.87267 0.89983 0.0
H2485 H 0.15325 0.84386 0.77957 0.0
H2486 H 0.13141 0.84823 0.79405 0.0
H2487 H 0.1336 0.82497 0.8079 0.0
C2488 C 0.2224 0.37272 0.78476 0.0
C2489 C 0.22428 0.3931 0.79242 0.0
C2490 C 0.20491 0.35288 0.79697 0.0
C2491 C 0.18935 0.3535 0.81824 0.0
C2492 C 0.19128 0.37409 0.8262 0.0
C2493 C 0.2085 0.3936 0.81277 0.0
C2494 C 0.20306 0.33126 0.78702 0.0
C2495 C 0.17542 0.37556 0.84944 0.0
C2496 C 0.13297 0.30221 0.82941 0.0
C2497 C 0.13617 0.29275 0.85736 0.0
C2498 C 0.15019 0.32178 0.81623 0.0
C2499 C 0.17095 0.33261 0.83196 0.0
C2500 C 0.17413 0.32338 0.86064 0.0
C2501 C 0.1568 0.30334 0.87268 0.0
C2502 C 0.14628 0.33065 0.7851 0.0
C2503 C 0.19578 0.33473 0.8787 0.0
H2504 H 0.23454 0.37226 0.76898 0.0
H2505 H 0.21005 0.40935 0.81909 0.0
H2506 H 0.20466 0.3227 0.80857 0.0
H2507 H 0.18657 0.32028 0.7763 0.0
H2508 H 0.2159 0.33354 0.76916 0.0
H2509 H 0.17953 0.39287 0.85383 0.0
H2510 H 0.15835 0.36619 0.83986 0.0
H2511 H 0.17561 0.36797 0.87295 0.0
H2512 H 0.11712 0.29394 0.81726 0.0
H2513 H 0.1593 0.29611 0.89436 0.0
H2514 H 0.1584 0.33211 0.76653 0.0
H2515 H 0.14877 0.34742 0.78906 0.0
H2516 H 0.12937 0.31994 0.7754 0.0
H2517 H 0.20917 0.33575 0.86316 0.0
H2518 H 0.19525 0.32598 0.90143 0.0
H2519 H 0.20011 0.35189 0.88476 0.0
C2520 C 0.83812 0.70646 0.62277 0.0
C2521 C 0.85643 0.72644 0.63244 0.0
C2522 C 0.83509 0.68615 0.63404 0.0
C2523 C 0.85029 0.68587 0.65646 0.0
C2524 C 0.86874 0.70605 0.66642 0.0
C2525 C 0.87179 0.72606 0.65385 0.0
C2526 C 0.81562 0.66501 0.62192 0.0
C2527 C 0.88499 0.70654 0.69097 0.0
C2528 C 0.82995 0.63397 0.70794 0.0
C2529 C 0.84051 0.62373 0.69316 0.0
C2530 C 0.83336 0.65445 0.69671 0.0
C2531 C 0.84698 0.66447 0.66932 0.0
C2532 C 0.85741 0.65397 0.65408 0.0
C2533 C 0.85435 0.63395 0.66653 0.0
C2534 C 0.82251 0.66543 0.71427 0.0
C2535 C 0.87147 0.66368 0.62424 0.0
H2536 H 0.82623 0.70672 0.60618 0.0
H2537 H 0.8858 0.74151 0.66174 0.0
H2538 H 0.82139 0.65418 0.61142 0.0
H2539 H 0.80449 0.6559 0.64236 0.0
H2540 H 0.80599 0.66803 0.60327 0.0
H2541 H 0.89813 0.72363 0.69684 0.0
H2542 H 0.8762 0.6983 0.71362 0.0
H2543 H 0.89288 0.69728 0.68172 0.0
H2544 H 0.8193 0.62613 0.72859 0.0
H2545 H 0.86232 0.62593 0.65477 0.0
H2546 H 0.81086 0.66706 0.69785 0.0
H2547 H 0.83516 0.68233 0.72177 0.0
H2548 H 0.81332 0.65604 0.73608 0.0
H2549 H 0.86168 0.66589 0.60496 0.0
H2550 H 0.87787 0.65312 0.61469 0.0
H2551 H 0.88568 0.68021 0.62976 0.0
C2552 C 0.32018 0.1385 0.62015 0.0
C2553 C 0.29947 0.13475 0.63019 0.0
C2554 C 0.33971 0.15576 0.63348 0.0
C2555 C 0.33845 0.16893 0.65852 0.0
C2556 C 0.31749 0.16501 0.66895 0.0
C2557 C 0.29827 0.14826 0.65416 0.0
C2558 C 0.36168 0.15993 0.6207 0.0
C2559 C 0.31534 0.17808 0.69635 0.0
C2560 C 0.38942 0.19875 0.71233 0.0
C2561 C 0.39873 0.22051 0.7012 0.0
C2562 C 0.36941 0.18192 0.69941 0.0
C2563 C 0.35906 0.18681 0.67373 0.0
C2564 C 0.36863 0.20878 0.6622 0.0
C2565 C 0.38808 0.22542 0.67655 0.0
C2566 C 0.35933 0.15892 0.71327 0.0
C2567 C 0.35869 0.21459 0.63407 0.0
H2568 H 0.3211 0.12805 0.60158 0.0
H2569 H 0.28222 0.14513 0.66229 0.0
H2570 H 0.37189 0.17744 0.6132 0.0
H2571 H 0.37084 0.1569 0.64005 0.0
H2572 H 0.35982 0.14922 0.59971 0.0
H2573 H 0.29784 0.17254 0.70224 0.0
H2574 H 0.32353 0.17643 0.71834 0.0
H2575 H 0.32378 0.19585 0.69003 0.0
H2576 H 0.39763 0.19497 0.73145 0.0
H2577 H 0.39545 0.24221 0.6676 0.0
H2578 H 0.35915 0.14742 0.69466 0.0
H2579 H 0.34195 0.15294 0.72037 0.0
H2580 H 0.36852 0.1582 0.73474 0.0
H2581 H 0.35764 0.20458 0.61261 0.0
H2582 H 0.36847 0.23234 0.62747 0.0
H2583 H 0.34164 0.21063 0.64 0.0
C2584 C 0.87076 0.15847 0.63481 0.0
C2585 C 0.89147 0.1686 0.64993 0.0
C2586 C 0.85388 0.16224 0.64578 0.0
C2587 C 0.85755 0.17582 0.67323 0.0
C2588 C 0.87839 0.18585 0.68877 0.0
C2589 C 0.89517 0.18242 0.67661 0.0
C2590 C 0.83215 0.15177 0.62792 0.0
C2591 C 0.88282 0.19987 0.71867 0.0
C2592 C 0.82139 0.20136 0.68887 0.0
C2593 C 0.80555 0.18608 0.71023 0.0
C2594 C 0.83816 0.19804 0.67619 0.0
C2595 C 0.83958 0.17937 0.68598 0.0
C2596 C 0.82394 0.1642 0.70826 0.0
C2597 C 0.80689 0.16753 0.71965 0.0
C2598 C 0.85409 0.21427 0.65181 0.0
C2599 C 0.82527 0.14449 0.72018 0.0
H2600 H 0.86787 0.14785 0.61411 0.0
H2601 H 0.91108 0.19009 0.68861 0.0
H2602 H 0.81869 0.14016 0.64412 0.0
H2603 H 0.82819 0.16465 0.62047 0.0
H2604 H 0.83231 0.14263 0.60605 0.0
H2605 H 0.89972 0.20604 0.72837 0.0
H2606 H 0.88073 0.21423 0.71315 0.0
H2607 H 0.8707 0.19013 0.73783 0.0
H2608 H 0.82023 0.21557 0.6812 0.0
H2609 H 0.79469 0.15571 0.73623 0.0
H2610 H 0.85352 0.20551 0.62913 0.0
H2611 H 0.8712 0.22198 0.66123 0.0
H2612 H 0.85034 0.22755 0.64595 0.0
H2613 H 0.82326 0.13347 0.69961 0.0
H2614 H 0.81244 0.13481 0.73858 0.0
H2615 H 0.84175 0.15 0.73095 0.0
C2616 C 0.05278 0.52402 0.55351 0.0
C2617 C 0.06328 0.51361 0.5391 0.0
C2618 C 0.0324 0.52052 0.54169 0.0
C2619 C 0.02288 0.50714 0.51394 0.0
C2620 C 0.03362 0.49681 0.49917 0.0
C2621 C 0.05345 0.49981 0.51235 0.0
C2622 C 0.02107 0.53116 0.55889 0.0
C2623 C 0.02456 0.48315 0.46883 0.0
C2624 C 0.96187 0.48313 0.49435 0.0
C2625 C 0.96237 0.49911 0.47336 0.0
C2626 C 0.98138 0.48574 0.50826 0.0
C2627 C 1.00195 0.5043 0.49986 0.0
C2628 C 1.00253 0.52011 0.47777 0.0
C2629 C 0.98268 0.51757 0.46538 0.0
C2630 C 0.97993 0.46895 0.5326 0.0
C2631 C 0.02412 0.53965 0.46712 0.0
H2632 H 0.06038 0.53467 0.57423 0.0
H2633 H 0.06174 0.49202 0.50088 0.0
H2634 H 0.02032 0.54346 0.54279 0.0
H2635 H 1.00383 0.51853 0.56488 0.0
H2636 H 0.02972 0.53959 0.58155 0.0
H2637 H 0.03517 0.47662 0.45993 0.0
H2638 H 1.00778 0.46904 0.47337 0.0
H2639 H 0.02308 0.49331 0.44941 0.0
H2640 H 0.9461 0.46902 0.5009 0.0
H2641 H 0.98303 0.52992 0.44913 0.0
H2642 H 0.98758 0.47729 0.55578 0.0
H2643 H 0.98927 0.46102 0.52383 0.0
H2644 H 0.96263 0.45588 0.53736 0.0
H2645 H 0.03261 0.55044 0.48814 0.0
H2646 H 0.0218 0.54963 0.44825 0.0
H2647 H 0.03519 0.53393 0.4574 0.0
C2648 C 0.5244 0.54914 0.54238 0.0
C2649 C 0.50742 0.55291 0.53243 0.0
C2650 C 0.52647 0.53173 0.52926 0.0
C2651 C 0.51178 0.51838 0.50457 0.0
C2652 C 0.4947 0.52228 0.49426 0.0
C2653 C 0.49246 0.53923 0.50879 0.0
C2654 C 0.54435 0.52761 0.54189 0.0
C2655 C 0.47918 0.50896 0.46727 0.0
C2656 C 0.53213 0.48787 0.45088 0.0
C2657 C 0.51977 0.46624 0.46257 0.0
C2658 C 0.5292 0.50488 0.46364 0.0
C2659 C 0.51427 0.50031 0.48963 0.0
C2660 C 0.50198 0.47849 0.50172 0.0
C2661 C 0.50456 0.46166 0.4876 0.0
C2662 C 0.54204 0.52773 0.44926 0.0
C2663 C 0.48655 0.47303 0.53017 0.0
H2664 H 0.53594 0.55971 0.56072 0.0
H2665 H 0.47952 0.54235 0.50074 0.0
H2666 H 0.53706 0.51019 0.54983 0.0
H2667 H 0.55629 0.53034 0.52232 0.0
H2668 H 0.55348 0.53855 0.56254 0.0
H2669 H 0.46718 0.51447 0.46146 0.0
H2670 H 0.48877 0.51036 0.44512 0.0
H2671 H 0.46987 0.49125 0.474 0.0
H2672 H 0.54385 0.4914 0.43147 0.0
H2673 H 0.49521 0.44498 0.49698 0.0
H2674 H 0.55351 0.53941 0.46758 0.0
H2675 H 0.5306 0.53366 0.44211 0.0
H2676 H 0.55177 0.52822 0.42772 0.0
H2677 H 0.49578 0.48326 0.55133 0.0
H2678 H 0.47861 0.45535 0.53717 0.0
H2679 H 0.47344 0.47698 0.52435 0.0
C2680 C 0.53682 0.04834 0.46074 0.0
C2681 C 0.55848 0.05758 0.47226 0.0
C2682 C 0.51973 0.02868 0.47412 0.0
C2683 C 0.52427 0.01861 0.50056 0.0
C2684 C 0.54612 0.02815 0.51255 0.0
C2685 C 0.56301 0.04725 0.49783 0.0
C2686 C 0.49685 0.01861 0.45984 0.0
C2687 C 0.55157 0.01848 0.54142 0.0
C2688 C 0.47551 0.98019 0.5538 0.0
C2689 C 0.47184 0.95941 0.54429 0.0
C2690 C 0.49285 0.99962 0.54034 0.0
C2691 C 0.50622 0.99816 0.51579 0.0
C2692 C 0.50238 0.97714 0.5059 0.0
C2693 C 0.48551 0.95804 0.52074 0.0
C2694 C 0.49691 0.02169 0.55248 0.0
C2695 C 0.51571 0.97479 0.47908 0.0
H2696 H 0.53332 0.05629 0.44092 0.0
H2697 H 0.57972 0.05457 0.50707 0.0
H2698 H 0.49091 1.00121 0.4529 0.0
H2699 H 0.48519 0.01847 0.47813 0.0
H2700 H 0.49631 0.02775 0.43817 0.0
H2701 H 0.56922 0.02835 0.54849 0.0
H2702 H 0.54124 0.01756 0.56239 0.0
H2703 H 0.54773 1.00141 0.536 0.0
H2704 H 0.46496 0.98125 0.57205 0.0
H2705 H 0.48247 0.94195 0.51301 0.0
H2706 H 0.49423 0.03077 0.53264 0.0
H2707 H 0.51432 0.03188 0.56048 0.0
H2708 H 0.48591 0.01999 0.57299 0.0
H2709 H 0.51437 0.98291 0.45678 0.0
H2710 H 0.51016 0.95725 0.47349 0.0
H2711 H 0.5334 0.98318 0.48587 0.0
C2712 C 0.50541 0.04049 0.95519 0.0
C2713 C 0.52414 0.0606 0.9633 0.0
C2714 C 0.50252 0.02037 0.96711 0.0
C2715 C 0.51836 0.02042 0.98857 0.0
C2716 C 0.53729 0.04072 0.99687 0.0
C2717 C 0.54012 0.06052 0.98371 0.0
C2718 C 0.48249 0.99907 0.95678 0.0
C2719 C 0.55427 0.04159 0.02032 0.0
C2720 C 0.49923 0.96999 0.04303 0.0
C2721 C 0.50891 0.95897 0.02798 0.0
C2722 C 0.50252 0.99022 0.03086 0.0
C2723 C 0.51516 0.99924 1.00231 0.0
C2724 C 0.52471 0.98798 0.98683 0.0
C2725 C 0.52177 0.9682 1.00013 0.0
C2726 C 0.4926 1.00202 0.04865 0.0
C2727 C 0.53772 0.99662 0.95586 0.0
H2728 H 0.49304 0.04049 0.93938 0.0
H2729 H 0.55448 0.07605 0.99041 0.0
H2730 H 0.48766 0.98776 0.94632 0.0
H2731 H 0.472 0.99066 0.97812 0.0
H2732 H 0.47237 1.00177 0.9386 0.0
H2733 H 0.56784 0.05873 0.02477 0.0
H2734 H 0.54627 0.03416 0.04378 0.0
H2735 H 0.56152 0.03177 0.01092 0.0
H2736 H 0.48935 0.96295 0.06462 0.0
H2737 H 0.52908 0.95961 0.98818 0.0
H2738 H 0.48056 1.00346 0.03285 0.0
H2739 H 0.5057 0.01902 0.05488 0.0
H2740 H 0.48406 0.99334 0.07125 0.0
H2741 H 0.52738 0.99847 0.93712 0.0
H2742 H 0.54352 0.98556 0.94631 0.0
H2743 H 0.55227 0.01319 0.95997 0.0
C2744 C 0.97545 0.46031 1.00151 0.0
C2745 C 0.96508 0.46463 0.97575 0.0
C2746 C 0.99502 0.47716 0.01525 0.0
C2747 C 1.0049 0.49876 1.00226 0.0
C2748 C 0.99481 0.5031 0.97565 0.0
C2749 C 0.9748 0.48606 0.96307 0.0
C2750 C 1.00484 0.47193 0.04417 0.0
C2751 C 1.00516 0.52573 0.96045 0.0
C2752 C 0.04464 0.5477 0.05419 0.0
C2753 C 0.06516 0.5508 0.04433 0.0
C2754 C 0.02489 0.53062 0.04109 0.0
C2755 C 0.02572 0.5168 0.01672 0.0
C2756 C 0.04645 0.52003 0.00647 0.0
C2757 C 0.06588 0.53675 0.02078 0.0
C2758 C 1.00313 0.52729 0.05344 0.0
C2759 C 0.04813 0.5061 0.97996 0.0
H2760 H 0.96785 0.44383 0.01169 0.0
H2761 H 0.96685 0.48945 0.94313 0.0
H2762 H 0.02179 0.47546 0.03849 0.0
H2763 H 1.00612 0.48263 0.06485 0.0
H2764 H 0.99486 0.45441 0.05182 0.0
H2765 H 0.99588 0.52612 0.93887 0.0
H2766 H 1.00586 0.53787 0.97834 0.0
H2767 H 0.02239 0.53115 0.95312 0.0
H2768 H 0.04402 0.55852 0.07242 0.0
H2769 H 0.08173 0.53927 0.01276 0.0
H2770 H 0.99279 0.51013 0.06236 0.0
H2771 H 0.99393 0.52969 0.03347 0.0
H2772 H 1.00529 0.53886 0.07336 0.0
H2773 H 0.0395 0.4885 0.98733 0.0
H2774 H 0.06552 0.5112 0.97401 0.0
H2775 H 0.03987 0.50731 0.95774 0.0
C2776 C 0.5644 0.51827 1.00229 0.0
C2777 C 0.56059 0.50376 0.9765 0.0
C2778 C 0.54747 0.52146 0.01444 0.0
C2779 C 0.52636 0.51046 0.99974 0.0
C2780 C 0.52259 0.49625 0.97305 0.0
C2781 C 0.53965 0.49275 0.96214 0.0
C2782 C 0.55202 0.53616 0.04356 0.0
C2783 C 0.50055 0.48476 0.95605 0.0
C2784 C 0.47595 0.50144 0.04747 0.0
C2785 C 0.47369 0.51932 0.03733 0.0
C2786 C 0.49326 0.4986 0.03591 0.0
C2787 C 0.50817 0.51354 0.0127 0.0
C2788 C 0.50581 0.53153 1.00218 0.0
C2789 C 0.48883 0.53442 0.01507 0.0
C2790 C 0.49564 0.47965 0.04862 0.0
C2791 C 0.52092 0.54745 0.9768 0.0
H2792 H 0.58051 0.5266 0.01374 0.0
H2793 H 0.53668 0.48158 0.94214 0.0
H2794 H 0.5491 0.54993 0.03748 0.0
H2795 H 0.54051 0.52662 0.06346 0.0
H2796 H 0.56921 0.54321 0.05253 0.0
H2797 H 0.5007 0.47539 0.93446 0.0
H2798 H 0.48761 0.47316 0.97292 0.0
H2799 H 0.49583 0.49704 0.94832 0.0
H2800 H 0.46429 0.48977 0.06475 0.0
H2801 H 0.48693 0.5481 0.00685 0.0
H2802 H 0.51244 0.48596 0.05874 0.0
H2803 H 0.4936 0.46825 0.02858 0.0
H2804 H 0.48333 0.47015 0.06774 0.0
H2805 H 0.53823 0.55588 0.98549 0.0
H2806 H 0.51646 0.56017 0.97049 0.0
H2807 H 0.52024 0.53829 0.9545 0.0
loop_
_geom_bond_atom_site_label_1
_geom_bond_atom_site_label_2
_geom_bond_distance
_geom_bond_site_symmetry_2
_ccdc_geom_bond_type
O0 Cd1 2.223 . S
O0 C8 1.315 . S
Cd1 O0 2.223 . S
Cd1 O4 2.297 . S
Cd1 O5 2.439 . S
Cd1 O11 2.240 . S
Cd2 O3 2.240 . S
Cd2 O10 2.223 . S
Cd2 O12 2.297 . S
Cd2 O13 2.439 . S
O3 Cd2 2.240 . S
O3 C8 1.279 . S
O4 Cd1 2.297 . S
O4 C6 1.247 . S
O5 Cd1 2.439 . S
O5 C6 1.208 . S
C6 O4 1.247 . S
C6 O5 1.208 . S
C7 O12 1.247 . S
C7 O13 1.208 . S
C8 O0 1.315 . S
C8 O3 1.279 . S
C9 O10 1.315 . S
C9 O11 1.279 . S
O10 Cd2 2.223 . S
O10 C9 1.315 . S
O11 Cd1 2.240 . S
O11 C9 1.279 . S
O12 Cd2 2.297 . S
O12 C7 1.247 . S
O13 Cd2 2.439 . S
O13 C7 1.208 . S
O14 Cd15 2.223 . S
O14 C22 1.315 . S
Cd15 O14 2.223 . S
Cd15 O18 2.297 . S
Cd15 O19 2.439 . S
Cd15 O25 2.240 . S
Cd16 O17 2.240 . S
Cd16 O24 2.223 . S
Cd16 O26 2.297 . S
Cd16 O27 2.439 . S
O17 Cd16 2.240 . S
O17 C22 1.279 . S
O18 Cd15 2.297 . S
O18 C20 1.247 . S
O19 Cd15 2.439 . S
O19 C20 1.208 . S
C20 O18 1.247 . S
C20 O19 1.208 . S
C21 O26 1.247 . S
C21 O27 1.208 . S
C22 O14 1.315 . S
C22 O17 1.279 . S
C23 O24 1.315 . S
C23 O25 1.279 . S
O24 Cd16 2.223 . S
O24 C23 1.315 . S
O25 Cd15 2.240 . S
O25 C23 1.279 . S
O26 Cd16 2.297 . S
O26 C21 1.247 . S
O27 Cd16 2.439 . S
O27 C21 1.208 . S
O28 Cd29 2.223 . S
O28 C36 1.315 . S
Cd29 O28 2.223 . S
Cd29 O32 2.297 . S
Cd29 O33 2.439 . S
Cd29 O39 2.240 . S
Cd30 O31 2.240 . S
Cd30 O38 2.223 . S
Cd30 O40 2.297 . S
Cd30 O41 2.439 . S
O31 Cd30 2.240 . S
O31 C36 1.279 . S
O32 Cd29 2.297 . S
O32 C34 1.247 . S
O33 Cd29 2.439 . S
O33 C34 1.208 . S
C34 O32 1.247 . S
C34 O33 1.208 . S
C35 O40 1.247 . S
C35 O41 1.208 . S
C36 O28 1.315 . S
C36 O31 1.279 . S
C37 O38 1.315 . S
C37 O39 1.279 . S
O38 Cd30 2.223 . S
O38 C37 1.315 . S
O39 Cd29 2.240 . S
O39 C37 1.279 . S
O40 Cd30 2.297 . S
O40 C35 1.247 . S
O41 Cd30 2.439 . S
O41 C35 1.208 . S
O42 Cd43 2.223 . S
O42 C50 1.315 . S
Cd43 O42 2.223 . S
Cd43 O46 2.297 . S
Cd43 O47 2.439 . S
Cd43 O53 2.240 . S
Cd44 O45 2.240 . S
Cd44 O52 2.223 . S
Cd44 O54 2.297 . S
Cd44 O55 2.439 . S
O45 Cd44 2.240 . S
O45 C50 1.279 . S
O46 Cd43 2.297 . S
O46 C48 1.247 . S
O47 Cd43 2.439 . S
O47 C48 1.208 . S
C48 O46 1.247 . S
C48 O47 1.208 . S
C49 O54 1.247 . S
C49 O55 1.208 . S
C50 O42 1.315 . S
C50 O45 1.279 . S
C51 O52 1.315 . S
C51 O53 1.279 . S
O52 Cd44 2.223 . S
O52 C51 1.315 . S
O53 Cd43 2.240 . S
O53 C51 1.279 . S
O54 Cd44 2.297 . S
O54 C49 1.247 . S
O55 Cd44 2.439 . S
O55 C49 1.208 . S
O56 Cd57 2.223 . S
O56 C64 1.315 . S
Cd57 O56 2.223 . S
Cd57 O60 2.297 . S
Cd57 O61 2.439 . S
Cd57 O67 2.240 . S
Cd58 O59 2.240 . S
Cd58 O66 2.223 . S
Cd58 O68 2.297 . S
Cd58 O69 2.439 . S
O59 Cd58 2.240 . S
O59 C64 1.279 . S
O60 Cd57 2.297 . S
O60 C62 1.247 . S
O61 Cd57 2.439 . S
O61 C62 1.208 . S
C62 O60 1.247 . S
C62 O61 1.208 . S
C63 O68 1.247 . S
C63 O69 1.208 . S
C64 O56 1.315 . S
C64 O59 1.279 . S
C65 O66 1.315 . S
C65 O67 1.279 . S
O66 Cd58 2.223 . S
O66 C65 1.315 . S
O67 Cd57 2.240 . S
O67 C65 1.279 . S
O68 Cd58 2.297 . S
O68 C63 1.247 . S
O69 Cd58 2.439 . S
O69 C63 1.208 . S
O70 Cd71 2.223 . S
O70 C78 1.315 . S
Cd71 O70 2.223 . S
Cd71 O74 2.297 . S
Cd71 O75 2.439 . S
Cd71 O81 2.240 . S
Cd72 O73 2.240 . S
Cd72 O80 2.223 . S
Cd72 O82 2.297 . S
Cd72 O83 2.439 . S
O73 Cd72 2.240 . S
O73 C78 1.279 . S
O74 Cd71 2.297 . S
O74 C76 1.247 . S
O75 Cd71 2.439 . S
O75 C76 1.208 . S
C76 O74 1.247 . S
C76 O75 1.208 . S
C77 O82 1.247 . S
C77 O83 1.208 . S
C78 O70 1.315 . S
C78 O73 1.279 . S
C79 O80 1.315 . S
C79 O81 1.279 . S
O80 Cd72 2.223 . S
O80 C79 1.315 . S
O81 Cd71 2.240 . S
O81 C79 1.279 . S
O82 Cd72 2.297 . S
O82 C77 1.247 . S
O83 Cd72 2.439 . S
O83 C77 1.208 . S
O84 Cd85 2.223 . S
O84 C92 1.315 . S
Cd85 O84 2.223 . S
Cd85 O88 2.297 . S
Cd85 O89 2.439 . S
Cd85 O95 2.240 . S
Cd86 O87 2.240 . S
Cd86 O94 2.223 . S
Cd86 O96 2.297 . S
Cd86 O97 2.439 . S
O87 Cd86 2.240 . S
O87 C92 1.279 . S
O88 Cd85 2.297 . S
O88 C90 1.247 . S
O89 Cd85 2.439 . S
O89 C90 1.208 . S
C90 O88 1.247 . S
C90 O89 1.208 . S
C91 O96 1.247 . S
C91 O97 1.208 . S
C92 O84 1.315 . S
C92 O87 1.279 . S
C93 O94 1.315 . S
C93 O95 1.279 . S
O94 Cd86 2.223 . S
O94 C93 1.315 . S
O95 Cd85 2.240 . S
O95 C93 1.279 . S
O96 Cd86 2.297 . S
O96 C91 1.247 . S
O97 Cd86 2.439 . S
O97 C91 1.208 . S
O98 Cd99 2.223 . S
O98 C106 1.315 . S
Cd99 O98 2.223 . S
Cd99 O102 2.297 . S
Cd99 O103 2.439 . S
Cd99 O109 2.240 . S
Cd100 O101 2.240 . S
Cd100 O108 2.223 . S
Cd100 O110 2.297 . S
Cd100 O111 2.439 . S
O101 Cd100 2.240 . S
O101 C106 1.279 . S
O102 Cd99 2.297 . S
O102 C104 1.247 . S
O103 Cd99 2.439 . S
O103 C104 1.208 . S
C104 O102 1.247 . S
C104 O103 1.208 . S
C105 O110 1.247 . S
C105 O111 1.208 . S
C106 O98 1.315 . S
C106 O101 1.279 . S
C107 O108 1.315 . S
C107 O109 1.279 . S
O108 Cd100 2.223 . S
O108 C107 1.315 . S
O109 Cd99 2.240 . S
O109 C107 1.279 . S
O110 Cd100 2.297 . S
O110 C105 1.247 . S
O111 Cd100 2.439 . S
O111 C105 1.208 . S
O112 Cd113 2.223 . S
O112 C120 1.315 . S
Cd113 O112 2.223 . S
Cd113 O116 2.297 . S
Cd113 O117 2.439 . S
Cd113 O123 2.240 . S
Cd114 O115 2.240 . S
Cd114 O122 2.223 . S
Cd114 O124 2.297 . S
Cd114 O125 2.439 . S
O115 Cd114 2.240 . S
O115 C120 1.279 . S
O116 Cd113 2.297 . S
O116 C118 1.247 . S
O117 Cd113 2.439 . S
O117 C118 1.208 . S
C118 O116 1.247 . S
C118 O117 1.208 . S
C119 O124 1.247 . S
C119 O125 1.208 . S
C120 O112 1.315 . S
C120 O115 1.279 . S
C121 O122 1.315 . S
C121 O123 1.279 . S
O122 Cd114 2.223 . S
O122 C121 1.315 . S
O123 Cd113 2.240 . S
O123 C121 1.279 . S
O124 Cd114 2.297 . S
O124 C119 1.247 . S
O125 Cd114 2.439 . S
O125 C119 1.208 . S
O126 Cd127 2.223 . S
O126 C134 1.315 . S
Cd127 O126 2.223 . S
Cd127 O130 2.297 . S
Cd127 O131 2.439 . S
Cd127 O137 2.240 . S
Cd128 O129 2.240 . S
Cd128 O136 2.223 . S
Cd128 O138 2.297 . S
Cd128 O139 2.439 . S
O129 Cd128 2.240 . S
O129 C134 1.279 . S
O130 Cd127 2.297 . S
O130 C132 1.247 . S
O131 Cd127 2.439 . S
O131 C132 1.208 . S
C132 O130 1.247 . S
C132 O131 1.208 . S
C133 O138 1.247 . S
C133 O139 1.208 . S
C134 O126 1.315 . S
C134 O129 1.279 . S
C135 O136 1.315 . S
C135 O137 1.279 . S
O136 Cd128 2.223 . S
O136 C135 1.315 . S
O137 Cd127 2.240 . S
O137 C135 1.279 . S
O138 Cd128 2.297 . S
O138 C133 1.247 . S
O139 Cd128 2.439 . S
O139 C133 1.208 . S
O140 Cd141 2.223 . S
O140 C148 1.315 . S
Cd141 O140 2.223 . S
Cd141 O144 2.297 . S
Cd141 O145 2.439 . S
Cd141 O151 2.240 . S
Cd142 O143 2.240 . S
Cd142 O150 2.223 . S
Cd142 O152 2.297 . S
Cd142 O153 2.439 . S
O143 Cd142 2.240 . S
O143 C148 1.279 . S
O144 Cd141 2.297 . S
O144 C146 1.247 . S
O145 Cd141 2.439 . S
O145 C146 1.208 . S
C146 O144 1.247 . S
C146 O145 1.208 . S
C147 O152 1.247 . S
C147 O153 1.208 . S
C148 O140 1.315 . S
C148 O143 1.279 . S
C149 O150 1.315 . S
C149 O151 1.279 . S
O150 Cd142 2.223 . S
O150 C149 1.315 . S
O151 Cd141 2.240 . S
O151 C149 1.279 . S
O152 Cd142 2.297 . S
O152 C147 1.247 . S
O153 Cd142 2.439 . S
O153 C147 1.208 . S
O154 Cd155 2.223 . S
O154 C162 1.315 . S
Cd155 O154 2.223 . S
Cd155 O158 2.297 . S
Cd155 O159 2.439 . S
Cd155 O165 2.240 . S
Cd156 O157 2.240 . S
Cd156 O164 2.223 . S
Cd156 O166 2.297 . S
Cd156 O167 2.439 . S
O157 Cd156 2.240 . S
O157 C162 1.279 . S
O158 Cd155 2.297 . S
O158 C160 1.247 . S
O159 Cd155 2.439 . S
O159 C160 1.208 . S
C160 O158 1.247 . S
C160 O159 1.208 . S
C161 O166 1.247 . S
C161 O167 1.208 . S
C162 O154 1.315 . S
C162 O157 1.279 . S
C163 O164 1.315 . S
C163 O165 1.279 . S
O164 Cd156 2.223 . S
O164 C163 1.315 . S
O165 Cd155 2.240 . S
O165 C163 1.279 . S
O166 Cd156 2.297 . S
O166 C161 1.247 . S
O167 Cd156 2.439 . S
O167 C161 1.208 . S
O168 Cd169 2.223 . S
O168 C176 1.315 . S
Cd169 O168 2.223 . S
Cd169 O172 2.297 . S
Cd169 O173 2.439 . S
Cd169 O179 2.240 . S
Cd170 O171 2.240 . S
Cd170 O178 2.223 . S
Cd170 O180 2.297 . S
Cd170 O181 2.439 . S
O171 Cd170 2.240 . S
O171 C176 1.279 . S
O172 Cd169 2.297 . S
O172 C174 1.247 . S
O173 Cd169 2.439 . S
O173 C174 1.208 . S
C174 O172 1.247 . S
C174 O173 1.208 . S
C175 O180 1.247 . S
C175 O181 1.208 . S
C176 O168 1.315 . S
C176 O171 1.279 . S
C177 O178 1.315 . S
C177 O179 1.279 . S
O178 Cd170 2.223 . S
O178 C177 1.315 . S
O179 Cd169 2.240 . S
O179 C177 1.279 . S
O180 Cd170 2.297 . S
O180 C175 1.247 . S
O181 Cd170 2.439 . S
O181 C175 1.208 . S
O182 Cd183 2.223 . S
O182 C190 1.315 . S
Cd183 O182 2.223 . S
Cd183 O186 2.297 . S
Cd183 O187 2.439 . S
Cd183 O193 2.240 . S
Cd184 O185 2.240 . S
Cd184 O192 2.223 . S
Cd184 O194 2.297 . S
Cd184 O195 2.439 . S
O185 Cd184 2.240 . S
O185 C190 1.279 . S
O186 Cd183 2.297 . S
O186 C188 1.247 . S
O187 Cd183 2.439 . S
O187 C188 1.208 . S
C188 O186 1.247 . S
C188 O187 1.208 . S
C189 O194 1.247 . S
C189 O195 1.208 . S
C190 O182 1.315 . S
C190 O185 1.279 . S
C191 O192 1.315 . S
C191 O193 1.279 . S
O192 Cd184 2.223 . S
O192 C191 1.315 . S
O193 Cd183 2.240 . S
O193 C191 1.279 . S
O194 Cd184 2.297 . S
O194 C189 1.247 . S
O195 Cd184 2.439 . S
O195 C189 1.208 . S
O196 Cd197 2.223 . S
O196 C204 1.315 . S
Cd197 O196 2.223 . S
Cd197 O200 2.297 . S
Cd197 O201 2.439 . S
Cd197 O207 2.240 . S
Cd198 O199 2.240 . S
Cd198 O206 2.223 . S
Cd198 O208 2.297 . S
Cd198 O209 2.439 . S
O199 Cd198 2.240 . S
O199 C204 1.279 . S
O200 Cd197 2.297 . S
O200 C202 1.247 . S
O201 Cd197 2.439 . S
O201 C202 1.208 . S
C202 O200 1.247 . S
C202 O201 1.208 . S
C203 O208 1.247 . S
C203 O209 1.208 . S
C204 O196 1.315 . S
C204 O199 1.279 . S
C205 O206 1.315 . S
C205 O207 1.279 . S
O206 Cd198 2.223 . S
O206 C205 1.315 . S
O207 Cd197 2.240 . S
O207 C205 1.279 . S
O208 Cd198 2.297 . S
O208 C203 1.247 . S
O209 Cd198 2.439 . S
O209 C203 1.208 . S
O210 Cd211 2.223 . S
O210 C218 1.315 . S
Cd211 O210 2.223 . S
Cd211 O214 2.297 . S
Cd211 O215 2.439 . S
Cd211 O221 2.240 . S
Cd212 O213 2.240 . S
Cd212 O220 2.223 . S
Cd212 O222 2.297 . S
Cd212 O223 2.439 . S
O213 Cd212 2.240 . S
O213 C218 1.279 . S
O214 Cd211 2.297 . S
O214 C216 1.247 . S
O215 Cd211 2.439 . S
O215 C216 1.208 . S
C216 O214 1.247 . S
C216 O215 1.208 . S
C217 O222 1.247 . S
C217 O223 1.208 . S
C218 O210 1.315 . S
C218 O213 1.279 . S
C219 O220 1.315 . S
C219 O221 1.279 . S
O220 Cd212 2.223 . S
O220 C219 1.315 . S
O221 Cd211 2.240 . S
O221 C219 1.279 . S
O222 Cd212 2.297 . S
O222 C217 1.247 . S
O223 Cd212 2.439 . S
O223 C217 1.208 . S
O224 Cd225 2.223 . S
O224 C232 1.315 . S
Cd225 O224 2.223 . S
Cd225 O228 2.297 . S
Cd225 O229 2.439 . S
Cd225 O235 2.240 . S
Cd226 O227 2.240 . S
Cd226 O234 2.223 . S
Cd226 O236 2.297 . S
Cd226 O237 2.439 . S
O227 Cd226 2.240 . S
O227 C232 1.279 . S
O228 Cd225 2.297 . S
O228 C230 1.247 . S
O229 Cd225 2.439 . S
O229 C230 1.208 . S
C230 O228 1.247 . S
C230 O229 1.208 . S
C231 O236 1.247 . S
C231 O237 1.208 . S
C232 O224 1.315 . S
C232 O227 1.279 . S
C233 O234 1.315 . S
C233 O235 1.279 . S
O234 Cd226 2.223 . S
O234 C233 1.315 . S
O235 Cd225 2.240 . S
O235 C233 1.279 . S
O236 Cd226 2.297 . S
O236 C231 1.247 . S
O237 Cd226 2.439 . S
O237 C231 1.208 . S
O238 Cd239 2.223 . S
O238 C246 1.315 . S
Cd239 O238 2.223 . S
Cd239 O242 2.297 . S
Cd239 O243 2.439 . S
Cd239 O249 2.240 . S
Cd240 O241 2.240 . S
Cd240 O248 2.223 . S
Cd240 O250 2.297 . S
Cd240 O251 2.439 . S
O241 Cd240 2.240 . S
O241 C246 1.279 . S
O242 Cd239 2.297 . S
O242 C244 1.247 . S
O243 Cd239 2.439 . S
O243 C244 1.208 . S
C244 O242 1.247 . S
C244 O243 1.208 . S
C245 O250 1.247 . S
C245 O251 1.208 . S
C246 O238 1.315 . S
C246 O241 1.279 . S
C247 O248 1.315 . S
C247 O249 1.279 . S
O248 Cd240 2.223 . S
O248 C247 1.315 . S
O249 Cd239 2.240 . S
O249 C247 1.279 . S
O250 Cd240 2.297 . S
O250 C245 1.247 . S
O251 Cd240 2.439 . S
O251 C245 1.208 . S
O252 Cd253 2.223 . S
O252 C260 1.315 . S
Cd253 O252 2.223 . S
Cd253 O256 2.297 . S
Cd253 O257 2.439 . S
Cd253 O263 2.240 . S
Cd254 O255 2.240 . S
Cd254 O262 2.223 . S
Cd254 O264 2.297 . S
Cd254 O265 2.439 . S
O255 Cd254 2.240 . S
O255 C260 1.279 . S
O256 Cd253 2.297 . S
O256 C258 1.247 . S
O257 Cd253 2.439 . S
O257 C258 1.208 . S
C258 O256 1.247 . S
C258 O257 1.208 . S
C259 O264 1.247 . S
C259 O265 1.208 . S
C260 O252 1.315 . S
C260 O255 1.279 . S
C261 O262 1.315 . S
C261 O263 1.279 . S
O262 Cd254 2.223 . S
O262 C261 1.315 . S
O263 Cd253 2.240 . S
O263 C261 1.279 . S
O264 Cd254 2.297 . S
O264 C259 1.247 . S
O265 Cd254 2.439 . S
O265 C259 1.208 . S
O266 Cd267 2.223 . S
O266 C274 1.315 . S
Cd267 O266 2.223 . S
Cd267 O270 2.297 . S
Cd267 O271 2.439 . S
Cd267 O277 2.240 . S
Cd268 O269 2.240 . S
Cd268 O276 2.223 . S
Cd268 O278 2.297 . S
Cd268 O279 2.439 . S
O269 Cd268 2.240 . S
O269 C274 1.279 . S
O270 Cd267 2.297 . S
O270 C272 1.247 . S
O271 Cd267 2.439 . S
O271 C272 1.208 . S
C272 O270 1.247 . S
C272 O271 1.208 . S
C273 O278 1.247 . S
C273 O279 1.208 . S
C274 O266 1.315 . S
C274 O269 1.279 . S
C275 O276 1.315 . S
C275 O277 1.279 . S
O276 Cd268 2.223 . S
O276 C275 1.315 . S
O277 Cd267 2.240 . S
O277 C275 1.279 . S
O278 Cd268 2.297 . S
O278 C273 1.247 . S
O279 Cd268 2.439 . S
O279 C273 1.208 . S
O280 Cd281 2.223 . S
O280 C288 1.315 . S
Cd281 O280 2.223 . S
Cd281 O284 2.297 . S
Cd281 O285 2.439 . S
Cd281 O291 2.240 . S
Cd282 O283 2.240 . S
Cd282 O290 2.223 . S
Cd282 O292 2.297 . S
Cd282 O293 2.439 . S
O283 Cd282 2.240 . S
O283 C288 1.279 . S
O284 Cd281 2.297 . S
O284 C286 1.247 . S
O285 Cd281 2.439 . S
O285 C286 1.208 . S
C286 O284 1.247 . S
C286 O285 1.208 . S
C287 O292 1.247 . S
C287 O293 1.208 . S
C288 O280 1.315 . S
C288 O283 1.279 . S
C289 O290 1.315 . S
C289 O291 1.279 . S
O290 Cd282 2.223 . S
O290 C289 1.315 . S
O291 Cd281 2.240 . S
O291 C289 1.279 . S
O292 Cd282 2.297 . S
O292 C287 1.247 . S
O293 Cd282 2.439 . S
O293 C287 1.208 . S
O294 Cd295 2.223 . S
O294 C302 1.315 . S
Cd295 O294 2.223 . S
Cd295 O298 2.297 . S
Cd295 O299 2.439 . S
Cd295 O305 2.240 . S
Cd296 O297 2.240 . S
Cd296 O304 2.223 . S
Cd296 O306 2.297 . S
Cd296 O307 2.439 . S
O297 Cd296 2.240 . S
O297 C302 1.279 . S
O298 Cd295 2.297 . S
O298 C300 1.247 . S
O299 Cd295 2.439 . S
O299 C300 1.208 . S
C300 O298 1.247 . S
C300 O299 1.208 . S
C301 O306 1.247 . S
C301 O307 1.208 . S
C302 O294 1.315 . S
C302 O297 1.279 . S
C303 O304 1.315 . S
C303 O305 1.279 . S
O304 Cd296 2.223 . S
O304 C303 1.315 . S
O305 Cd295 2.240 . S
O305 C303 1.279 . S
O306 Cd296 2.297 . S
O306 C301 1.247 . S
O307 Cd296 2.439 . S
O307 C301 1.208 . S
O308 Cd309 2.223 . S
O308 C316 1.315 . S
Cd309 O308 2.223 . S
Cd309 O312 2.297 . S
Cd309 O313 2.439 . S
Cd309 O319 2.240 . S
Cd310 O311 2.240 . S
Cd310 O318 2.223 . S
Cd310 O320 2.297 . S
Cd310 O321 2.439 . S
O311 Cd310 2.240 . S
O311 C316 1.279 . S
O312 Cd309 2.297 . S
O312 C314 1.247 . S
O313 Cd309 2.439 . S
O313 C314 1.208 . S
C314 O312 1.247 . S
C314 O313 1.208 . S
C315 O320 1.247 . S
C315 O321 1.208 . S
C316 O308 1.315 . S
C316 O311 1.279 . S
C317 O318 1.315 . S
C317 O319 1.279 . S
O318 Cd310 2.223 . S
O318 C317 1.315 . S
O319 Cd309 2.240 . S
O319 C317 1.279 . S
O320 Cd310 2.297 . S
O320 C315 1.247 . S
O321 Cd310 2.439 . S
O321 C315 1.208 . S
O322 Cd323 2.223 . S
O322 C330 1.315 . S
Cd323 O322 2.223 . S
Cd323 O326 2.297 . S
Cd323 O327 2.439 . S
Cd323 O333 2.240 . S
Cd324 O325 2.240 . S
Cd324 O332 2.223 . S
Cd324 O334 2.297 . S
Cd324 O335 2.439 . S
O325 Cd324 2.240 . S
O325 C330 1.279 . S
O326 Cd323 2.297 . S
O326 C328 1.247 . S
O327 Cd323 2.439 . S
O327 C328 1.208 . S
C328 O326 1.247 . S
C328 O327 1.208 . S
C329 O334 1.247 . S
C329 O335 1.208 . S
C330 O322 1.315 . S
C330 O325 1.279 . S
C331 O332 1.315 . S
C331 O333 1.279 . S
O332 Cd324 2.223 . S
O332 C331 1.315 . S
O333 Cd323 2.240 . S
O333 C331 1.279 . S
O334 Cd324 2.297 . S
O334 C329 1.247 . S
O335 Cd324 2.439 . S
O335 C329 1.208 . S
O336 Cd337 2.223 . S
O336 C344 1.315 . S
Cd337 O336 2.223 . S
Cd337 O340 2.297 . S
Cd337 O341 2.439 . S
Cd337 O347 2.240 . S
Cd338 O339 2.240 . S
Cd338 O346 2.223 . S
Cd338 O348 2.297 . S
Cd338 O349 2.439 . S
O339 Cd338 2.240 . S
O339 C344 1.279 . S
O340 Cd337 2.297 . S
O340 C342 1.247 . S
O341 Cd337 2.439 . S
O341 C342 1.208 . S
C342 O340 1.247 . S
C342 O341 1.208 . S
C343 O348 1.247 . S
C343 O349 1.208 . S
C344 O336 1.315 . S
C344 O339 1.279 . S
C345 O346 1.315 . S
C345 O347 1.279 . S
O346 Cd338 2.223 . S
O346 C345 1.315 . S
O347 Cd337 2.240 . S
O347 C345 1.279 . S
O348 Cd338 2.297 . S
O348 C343 1.247 . S
O349 Cd338 2.439 . S
O349 C343 1.208 . S
O350 Cd351 2.223 . S
O350 C358 1.315 . S
Cd351 O350 2.223 . S
Cd351 O354 2.297 . S
Cd351 O355 2.439 . S
Cd351 O361 2.240 . S
Cd352 O353 2.240 . S
Cd352 O360 2.223 . S
Cd352 O362 2.297 . S
Cd352 O363 2.439 . S
O353 Cd352 2.240 . S
O353 C358 1.279 . S
O354 Cd351 2.297 . S
O354 C356 1.247 . S
O355 Cd351 2.439 . S
O355 C356 1.208 . S
C356 O354 1.247 . S
C356 O355 1.208 . S
C357 O362 1.247 . S
C357 O363 1.208 . S
C358 O350 1.315 . S
C358 O353 1.279 . S
C359 O360 1.315 . S
C359 O361 1.279 . S
O360 Cd352 2.223 . S
O360 C359 1.315 . S
O361 Cd351 2.240 . S
O361 C359 1.279 . S
O362 Cd352 2.297 . S
O362 C357 1.247 . S
O363 Cd352 2.439 . S
O363 C357 1.208 . S
O364 Cd365 2.223 . S
O364 C372 1.315 . S
Cd365 O364 2.223 . S
Cd365 O368 2.297 . S
Cd365 O369 2.439 . S
Cd365 O375 2.240 . S
Cd366 O367 2.240 . S
Cd366 O374 2.223 . S
Cd366 O376 2.297 . S
Cd366 O377 2.439 . S
O367 Cd366 2.240 . S
O367 C372 1.279 . S
O368 Cd365 2.297 . S
O368 C370 1.247 . S
O369 Cd365 2.439 . S
O369 C370 1.208 . S
C370 O368 1.247 . S
C370 O369 1.208 . S
C371 O376 1.247 . S
C371 O377 1.208 . S
C372 O364 1.315 . S
C372 O367 1.279 . S
C373 O374 1.315 . S
C373 O375 1.279 . S
O374 Cd366 2.223 . S
O374 C373 1.315 . S
O375 Cd365 2.240 . S
O375 C373 1.279 . S
O376 Cd366 2.297 . S
O376 C371 1.247 . S
O377 Cd366 2.439 . S
O377 C371 1.208 . S
O378 Cd379 2.223 . S
O378 C386 1.315 . S
Cd379 O378 2.223 . S
Cd379 O382 2.297 . S
Cd379 O383 2.439 . S
Cd379 O389 2.240 . S
Cd380 O381 2.240 . S
Cd380 O388 2.223 . S
Cd380 O390 2.297 . S
Cd380 O391 2.439 . S
O381 Cd380 2.240 . S
O381 C386 1.279 . S
O382 Cd379 2.297 . S
O382 C384 1.247 . S
O383 Cd379 2.439 . S
O383 C384 1.208 . S
C384 O382 1.247 . S
C384 O383 1.208 . S
C385 O390 1.247 . S
C385 O391 1.208 . S
C386 O378 1.315 . S
C386 O381 1.279 . S
C387 O388 1.315 . S
C387 O389 1.279 . S
O388 Cd380 2.223 . S
O388 C387 1.315 . S
O389 Cd379 2.240 . S
O389 C387 1.279 . S
O390 Cd380 2.297 . S
O390 C385 1.247 . S
O391 Cd380 2.439 . S
O391 C385 1.208 . S
O392 Cd393 2.223 . S
O392 C400 1.315 . S
Cd393 O392 2.223 . S
Cd393 O396 2.297 . S
Cd393 O397 2.439 . S
Cd393 O403 2.240 . S
Cd394 O395 2.240 . S
Cd394 O402 2.223 . S
Cd394 O404 2.297 . S
Cd394 O405 2.439 . S
O395 Cd394 2.240 . S
O395 C400 1.279 . S
O396 Cd393 2.297 . S
O396 C398 1.247 . S
O397 Cd393 2.439 . S
O397 C398 1.208 . S
C398 O396 1.247 . S
C398 O397 1.208 . S
C399 O404 1.247 . S
C399 O405 1.208 . S
C400 O392 1.315 . S
C400 O395 1.279 . S
C401 O402 1.315 . S
C401 O403 1.279 . S
O402 Cd394 2.223 . S
O402 C401 1.315 . S
O403 Cd393 2.240 . S
O403 C401 1.279 . S
O404 Cd394 2.297 . S
O404 C399 1.247 . S
O405 Cd394 2.439 . S
O405 C399 1.208 . S
O406 Cd407 2.223 . S
O406 C414 1.315 . S
Cd407 O406 2.223 . S
Cd407 O410 2.297 . S
Cd407 O411 2.439 . S
Cd407 O417 2.240 . S
Cd408 O409 2.240 . S
Cd408 O416 2.223 . S
Cd408 O418 2.297 . S
Cd408 O419 2.439 . S
O409 Cd408 2.240 . S
O409 C414 1.279 . S
O410 Cd407 2.297 . S
O410 C412 1.247 . S
O411 Cd407 2.439 . S
O411 C412 1.208 . S
C412 O410 1.247 . S
C412 O411 1.208 . S
C413 O418 1.247 . S
C413 O419 1.208 . S
C414 O406 1.315 . S
C414 O409 1.279 . S
C415 O416 1.315 . S
C415 O417 1.279 . S
O416 Cd408 2.223 . S
O416 C415 1.315 . S
O417 Cd407 2.240 . S
O417 C415 1.279 . S
O418 Cd408 2.297 . S
O418 C413 1.247 . S
O419 Cd408 2.439 . S
O419 C413 1.208 . S
O420 Cd421 2.223 . S
O420 C428 1.315 . S
Cd421 O420 2.223 . S
Cd421 O424 2.297 . S
Cd421 O425 2.439 . S
Cd421 O431 2.240 . S
Cd422 O423 2.240 . S
Cd422 O430 2.223 . S
Cd422 O432 2.297 . S
Cd422 O433 2.439 . S
O423 Cd422 2.240 . S
O423 C428 1.279 . S
O424 Cd421 2.297 . S
O424 C426 1.247 . S
O425 Cd421 2.439 . S
O425 C426 1.208 . S
C426 O424 1.247 . S
C426 O425 1.208 . S
C427 O432 1.247 . S
C427 O433 1.208 . S
C428 O420 1.315 . S
C428 O423 1.279 . S
C429 O430 1.315 . S
C429 O431 1.279 . S
O430 Cd422 2.223 . S
O430 C429 1.315 . S
O431 Cd421 2.240 . S
O431 C429 1.279 . S
O432 Cd422 2.297 . S
O432 C427 1.247 . S
O433 Cd422 2.439 . S
O433 C427 1.208 . S
O434 Cd435 2.223 . S
O434 C442 1.315 . S
Cd435 O434 2.223 . S
Cd435 O438 2.297 . S
Cd435 O439 2.439 . S
Cd435 O445 2.240 . S
Cd436 O437 2.240 . S
Cd436 O444 2.223 . S
Cd436 O446 2.297 . S
Cd436 O447 2.439 . S
O437 Cd436 2.240 . S
O437 C442 1.279 . S
O438 Cd435 2.297 . S
O438 C440 1.247 . S
O439 Cd435 2.439 . S
O439 C440 1.208 . S
C440 O438 1.247 . S
C440 O439 1.208 . S
C441 O446 1.247 . S
C441 O447 1.208 . S
C442 O434 1.315 . S
C442 O437 1.279 . S
C443 O444 1.315 . S
C443 O445 1.279 . S
O444 Cd436 2.223 . S
O444 C443 1.315 . S
O445 Cd435 2.240 . S
O445 C443 1.279 . S
O446 Cd436 2.297 . S
O446 C441 1.247 . S
O447 Cd436 2.439 . S
O447 C441 1.208 . S
O448 Cd449 2.223 . S
O448 C456 1.315 . S
Cd449 O448 2.223 . S
Cd449 O452 2.297 . S
Cd449 O453 2.439 . S
Cd449 O459 2.240 . S
Cd450 O451 2.240 . S
Cd450 O458 2.223 . S
Cd450 O460 2.297 . S
Cd450 O461 2.439 . S
O451 Cd450 2.240 . S
O451 C456 1.279 . S
O452 Cd449 2.297 . S
O452 C454 1.247 . S
O453 Cd449 2.439 . S
O453 C454 1.208 . S
C454 O452 1.247 . S
C454 O453 1.208 . S
C455 O460 1.247 . S
C455 O461 1.208 . S
C456 O448 1.315 . S
C456 O451 1.279 . S
C457 O458 1.315 . S
C457 O459 1.279 . S
O458 Cd450 2.223 . S
O458 C457 1.315 . S
O459 Cd449 2.240 . S
O459 C457 1.279 . S
O460 Cd450 2.297 . S
O460 C455 1.247 . S
O461 Cd450 2.439 . S
O461 C455 1.208 . S
O462 Cd463 2.223 . S
O462 C470 1.315 . S
Cd463 O462 2.223 . S
Cd463 O466 2.297 . S
Cd463 O467 2.439 . S
Cd463 O473 2.240 . S
Cd464 O465 2.240 . S
Cd464 O472 2.223 . S
Cd464 O474 2.297 . S
Cd464 O475 2.439 . S
O465 Cd464 2.240 . S
O465 C470 1.279 . S
O466 Cd463 2.297 . S
O466 C468 1.247 . S
O467 Cd463 2.439 . S
O467 C468 1.208 . S
C468 O466 1.247 . S
C468 O467 1.208 . S
C469 O474 1.247 . S
C469 O475 1.208 . S
C470 O462 1.315 . S
C470 O465 1.279 . S
C471 O472 1.315 . S
C471 O473 1.279 . S
O472 Cd464 2.223 . S
O472 C471 1.315 . S
O473 Cd463 2.240 . S
O473 C471 1.279 . S
O474 Cd464 2.297 . S
O474 C469 1.247 . S
O475 Cd464 2.439 . S
O475 C469 1.208 . S
O476 Cd477 2.223 . S
O476 C484 1.315 . S
Cd477 O476 2.223 . S
Cd477 O480 2.297 . S
Cd477 O481 2.439 . S
Cd477 O487 2.240 . S
Cd478 O479 2.240 . S
Cd478 O486 2.223 . S
Cd478 O488 2.297 . S
Cd478 O489 2.439 . S
O479 Cd478 2.240 . S
O479 C484 1.279 . S
O480 Cd477 2.297 . S
O480 C482 1.247 . S
O481 Cd477 2.439 . S
O481 C482 1.208 . S
C482 O480 1.247 . S
C482 O481 1.208 . S
C483 O488 1.247 . S
C483 O489 1.208 . S
C484 O476 1.315 . S
C484 O479 1.279 . S
C485 O486 1.315 . S
C485 O487 1.279 . S
O486 Cd478 2.223 . S
O486 C485 1.315 . S
O487 Cd477 2.240 . S
O487 C485 1.279 . S
O488 Cd478 2.297 . S
O488 C483 1.247 . S
O489 Cd478 2.439 . S
O489 C483 1.208 . S
O490 Cd491 2.223 . S
O490 C498 1.315 . S
Cd491 O490 2.223 . S
Cd491 O494 2.297 . S
Cd491 O495 2.439 . S
Cd491 O501 2.240 . S
Cd492 O493 2.240 . S
Cd492 O500 2.223 . S
Cd492 O502 2.297 . S
Cd492 O503 2.439 . S
O493 Cd492 2.240 . S
O493 C498 1.279 . S
O494 Cd491 2.297 . S
O494 C496 1.247 . S
O495 Cd491 2.439 . S
O495 C496 1.208 . S
C496 O494 1.247 . S
C496 O495 1.208 . S
C497 O502 1.247 . S
C497 O503 1.208 . S
C498 O490 1.315 . S
C498 O493 1.279 . S
C499 O500 1.315 . S
C499 O501 1.279 . S
O500 Cd492 2.223 . S
O500 C499 1.315 . S
O501 Cd491 2.240 . S
O501 C499 1.279 . S
O502 Cd492 2.297 . S
O502 C497 1.247 . S
O503 Cd492 2.439 . S
O503 C497 1.208 . S
C504 C505 1.391 . S
C504 C506 1.394 1_554 S
C504 H520 0.931 . S
C505 C504 1.391 . S
C505 C509 1.376 . S
C506 C504 1.394 1_556 S
C506 C507 1.369 1_556 S
C506 C510 1.531 . S
C507 C506 1.369 1_554 S
C507 C508 1.411 . S
C507 C515 1.502 1_554 S
C508 C507 1.411 . S
C508 C509 1.392 . S
C508 C511 1.511 . S
C509 C505 1.376 . S
C509 C508 1.392 . S
C509 H521 0.929 . S
C510 C506 1.531 . S
C510 H522 0.960 . S
C510 H523 0.962 . S
C510 H524 0.960 . S
C511 C508 1.511 . S
C511 H525 0.961 . S
C511 H526 0.961 . S
C511 H527 0.961 . S
C512 C513 1.370 . S
C512 C514 1.363 . S
C512 H528 0.931 . S
C513 C512 1.370 . S
C513 C517 1.408 . S
C514 C512 1.363 . S
C514 C515 1.370 1_565 S
C514 C518 1.524 1_556 S
C515 C507 1.502 1_556 S
C515 C514 1.370 1_545 S
C515 C516 1.403 . S
C516 C515 1.403 . S
C516 C517 1.404 1_545 S
C516 C519 1.539 . S
C517 C513 1.408 . S
C517 C516 1.404 1_565 S
C517 H529 0.930 . S
C518 C514 1.524 1_554 S
C518 H530 0.956 . S
C518 H531 0.961 . S
C518 H532 0.961 . S
C519 C516 1.539 . S
C519 H533 0.958 . S
C519 H534 0.961 . S
C519 H535 0.960 . S
H520 C504 0.931 . S
H521 C509 0.929 . S
H522 C510 0.960 . S
H523 C510 0.962 . S
H524 C510 0.960 . S
H525 C511 0.961 . S
H526 C511 0.961 . S
H527 C511 0.961 . S
H528 C512 0.931 . S
H529 C517 0.930 . S
H530 C518 0.956 . S
H531 C518 0.961 . S
H532 C518 0.961 . S
H533 C519 0.958 . S
H534 C519 0.961 . S
H535 C519 0.960 . S
C536 C537 1.391 . S
C536 C538 1.394 . S
C536 H552 0.931 . S
C537 C536 1.391 . S
C537 C541 1.376 . S
C538 C536 1.394 . S
C538 C539 1.367 1_554 S
C538 C542 1.531 1_554 S
C539 C538 1.367 1_556 S
C539 C540 1.396 1_556 S
C539 C547 1.517 . S
C540 C539 1.396 1_554 S
C540 C541 1.392 . S
C540 C543 1.511 . S
C541 C537 1.376 . S
C541 C540 1.392 . S
C541 H553 0.929 . S
C542 C538 1.531 1_556 S
C542 H554 0.960 . S
C542 H555 0.962 . S
C542 H556 0.960 . S
C543 C540 1.511 . S
C543 H557 0.961 . S
C543 H558 0.961 . S
C543 H559 0.947 1_554 S
C544 C545 1.370 . S
C544 C546 1.363 . S
C544 H560 0.931 . S
C545 C544 1.370 . S
C545 C549 1.408 . S
C546 C544 1.363 . S
C546 C547 1.370 1_455 S
C546 C550 1.524 1_556 S
C547 C539 1.517 . S
C547 C546 1.370 1_655 S
C547 C548 1.403 . S
C548 C547 1.403 . S
C548 C549 1.404 1_655 S
C548 C551 1.539 . S
C549 C545 1.408 . S
C549 C548 1.404 1_455 S
C549 H561 0.930 . S
C550 C546 1.524 1_554 S
C550 H562 0.956 . S
C550 H563 0.961 . S
C550 H564 0.961 . S
C551 C548 1.539 . S
C551 H565 0.958 . S
C551 H566 0.961 . S
C551 H567 0.960 . S
H552 C536 0.931 . S
H553 C541 0.929 . S
H554 C542 0.960 . S
H555 C542 0.962 . S
H556 C542 0.960 . S
H557 C543 0.961 . S
H558 C543 0.961 . S
H559 C543 0.947 1_556 S
H560 C544 0.931 . S
H561 C549 0.930 . S
H562 C550 0.956 . S
H563 C550 0.961 . S
H564 C550 0.961 . S
H565 C551 0.958 . S
H566 C551 0.961 . S
H567 C551 0.960 . S
C568 C569 1.391 . S
C568 C570 1.394 . S
C568 H584 0.931 . S
C569 C568 1.391 . S
C569 C573 1.376 . S
C570 C568 1.394 . S
C570 C571 1.369 . S
C570 C574 1.531 . S
C571 C570 1.369 . S
C571 C572 1.410 . S
C571 C579 1.503 1_556 S
C572 C571 1.410 . S
C572 C573 1.392 . S
C572 C575 1.511 1_556 S
C573 C569 1.376 . S
C573 C572 1.392 . S
C573 H585 0.929 . S
C574 C570 1.531 . S
C574 H586 0.960 . S
C574 H587 0.962 . S
C574 H588 0.960 . S
C575 C572 1.511 1_554 S
C575 H589 0.961 . S
C575 H590 0.961 . S
C575 H591 0.961 . S
C576 C577 1.370 . S
C576 C578 1.363 1_554 S
C576 H592 0.931 . S
C577 C576 1.370 . S
C577 C581 1.408 . S
C578 C576 1.363 1_556 S
C578 C579 1.370 1_556 S
C578 C582 1.524 . S
C579 C571 1.503 1_554 S
C579 C578 1.370 1_554 S
C579 C580 1.403 . S
C580 C579 1.403 . S
C580 C581 1.404 . S
C580 C583 1.539 . S
C581 C577 1.408 . S
C581 C580 1.404 . S
C581 H593 0.930 . S
C582 C578 1.524 . S
C582 H594 0.956 . S
C582 H595 0.961 . S
C582 H596 0.961 . S
C583 C580 1.539 . S
C583 H597 0.958 . S
C583 H598 0.961 . S
C583 H599 0.960 . S
H584 C568 0.931 . S
H585 C573 0.929 . S
H586 C574 0.960 . S
H587 C574 0.962 . S
H588 C574 0.960 . S
H589 C575 0.961 . S
H590 C575 0.961 . S
H591 C575 0.961 . S
H592 C576 0.931 . S
H593 C581 0.930 . S
H594 C582 0.956 . S
H595 C582 0.961 . S
H596 C582 0.961 . S
H597 C583 0.958 . S
H598 C583 0.961 . S
H599 C583 0.960 . S
C600 C601 1.391 . S
C600 C602 1.394 . S
C600 H616 0.931 . S
C601 C600 1.391 . S
C601 C605 1.376 . S
C602 C600 1.394 . S
C602 C603 1.369 1_655 S
C602 C606 1.528 . S
C603 C602 1.369 1_455 S
C603 C604 1.410 . S
C603 C611 1.503 . S
C604 C603 1.410 . S
C604 C605 1.392 1_455 S
C604 C607 1.511 . S
C605 C601 1.376 . S
C605 C604 1.392 1_655 S
C605 H617 0.929 . S
C606 C602 1.528 . S
C606 H618 0.945 1_655 S
C606 H619 0.966 . S
C606 H620 0.975 . S
C607 C604 1.511 . S
C607 H621 0.961 . S
C607 H622 0.961 . S
C607 H623 0.961 . S
C608 C609 1.370 . S
C608 C610 1.363 . S
C608 H624 0.931 . S
C609 C608 1.370 . S
C609 C613 1.408 . S
C610 C608 1.363 . S
C610 C611 1.370 . S
C610 C614 1.524 . S
C611 C603 1.503 . S
C611 C610 1.370 . S
C611 C612 1.403 . S
C612 C611 1.403 . S
C612 C613 1.404 . S
C612 C615 1.539 . S
C613 C609 1.408 . S
C613 C612 1.404 . S
C613 H625 0.930 . S
C614 C610 1.524 . S
C614 H626 0.956 1_455 S
C614 H627 0.961 1_455 S
C614 H628 0.961 . S
C615 C612 1.539 . S
C615 H629 0.958 . S
C615 H630 0.961 . S
C615 H631 0.960 . S
H616 C600 0.931 . S
H617 C605 0.929 . S
H618 C606 0.945 1_455 S
H619 C606 0.966 . S
H620 C606 0.975 . S
H621 C607 0.961 . S
H622 C607 0.961 . S
H623 C607 0.961 . S
H624 C608 0.931 . S
H625 C613 0.930 . S
H626 C614 0.956 1_655 S
H627 C614 0.961 1_655 S
H628 C614 0.961 . S
H629 C615 0.958 . S
H630 C615 0.961 . S
H631 C615 0.960 . S
C632 C633 1.391 . S
C632 C634 1.394 . S
C632 H648 0.931 . S
C633 C632 1.391 . S
C633 C637 1.376 . S
C634 C632 1.394 . S
C634 C635 1.369 . S
C634 C638 1.531 . S
C635 C634 1.369 . S
C635 C636 1.410 . S
C635 C643 1.503 . S
C636 C635 1.410 . S
C636 C637 1.392 . S
C636 C639 1.511 . S
C637 C633 1.376 . S
C637 C636 1.392 . S
C637 H649 0.929 . S
C638 C634 1.531 . S
C638 H650 0.960 . S
C638 H651 0.962 . S
C638 H652 0.960 . S
C639 C636 1.511 . S
C639 H653 0.961 . S
C639 H654 0.961 . S
C639 H655 0.961 . S
C640 C641 1.370 . S
C640 C642 1.363 . S
C640 H656 0.931 . S
C641 C640 1.370 . S
C641 C645 1.408 . S
C642 C640 1.363 . S
C642 C643 1.370 . S
C642 C646 1.524 . S
C643 C635 1.503 . S
C643 C642 1.370 . S
C643 C644 1.403 . S
C644 C643 1.403 . S
C644 C645 1.404 . S
C644 C647 1.539 . S
C645 C641 1.408 . S
C645 C644 1.404 . S
C645 H657 0.930 . S
C646 C642 1.524 . S
C646 H658 0.956 . S
C646 H659 0.961 . S
C646 H660 0.961 . S
C647 C644 1.539 . S
C647 H661 0.958 . S
C647 H662 0.961 . S
C647 H663 0.960 . S
H648 C632 0.931 . S
H649 C637 0.929 . S
H650 C638 0.960 . S
H651 C638 0.962 . S
H652 C638 0.960 . S
H653 C639 0.961 . S
H654 C639 0.961 . S
H655 C639 0.961 . S
H656 C640 0.931 . S
H657 C645 0.930 . S
H658 C646 0.956 . S
H659 C646 0.961 . S
H660 C646 0.961 . S
H661 C647 0.958 . S
H662 C647 0.961 . S
H663 C647 0.960 . S
C664 C665 1.391 . S
C664 C666 1.394 . S
C664 H680 0.931 . S
C665 C664 1.391 . S
C665 C669 1.376 . S
C666 C664 1.394 . S
C666 C667 1.369 . S
C666 C670 1.531 . S
C667 C666 1.369 . S
C667 C668 1.410 . S
C667 C675 1.503 . S
C668 C667 1.410 . S
C668 C669 1.392 . S
C668 C671 1.511 . S
C669 C665 1.376 . S
C669 C668 1.392 . S
C669 H681 0.929 . S
C670 C666 1.531 . S
C670 H682 0.960 . S
C670 H683 0.962 . S
C670 H684 0.960 . S
C671 C668 1.511 . S
C671 H685 0.961 . S
C671 H686 0.961 . S
C671 H687 0.961 . S
C672 C673 1.370 . S
C672 C674 1.363 . S
C672 H688 0.931 . S
C673 C672 1.370 . S
C673 C677 1.408 . S
C674 C672 1.363 . S
C674 C675 1.370 1_545 S
C674 C678 1.524 . S
C675 C667 1.503 . S
C675 C674 1.370 1_565 S
C675 C676 1.403 . S
C676 C675 1.403 . S
C676 C677 1.404 1_565 S
C676 C679 1.539 . S
C677 C673 1.408 . S
C677 C676 1.404 1_545 S
C677 H689 0.930 . S
C678 C674 1.524 . S
C678 H690 0.960 . S
C678 H691 0.961 . S
C678 H692 0.961 . S
C679 C676 1.539 . S
C679 H693 0.958 . S
C679 H694 0.961 . S
C679 H695 0.960 . S
H680 C664 0.931 . S
H681 C669 0.929 . S
H682 C670 0.960 . S
H683 C670 0.962 . S
H684 C670 0.960 . S
H685 C671 0.961 . S
H686 C671 0.961 . S
H687 C671 0.961 . S
H688 C672 0.931 . S
H689 C677 0.930 . S
H690 C678 0.960 . S
H691 C678 0.961 . S
H692 C678 0.961 . S
H693 C679 0.958 . S
H694 C679 0.961 . S
H695 C679 0.960 . S
C696 C697 1.391 . S
C696 C698 1.394 . S
C696 H712 0.931 . S
C697 C696 1.391 . S
C697 C701 1.376 . S
C698 C696 1.394 . S
C698 C699 1.369 1_545 S
C698 C702 1.531 1_545 S
C699 C698 1.369 1_565 S
C699 C700 1.410 1_565 S
C699 C707 1.503 1_554 S
C700 C699 1.410 1_545 S
C700 C701 1.392 . S
C700 C703 1.511 . S
C701 C697 1.376 . S
C701 C700 1.392 . S
C701 H713 0.929 . S
C702 C698 1.531 1_565 S
C702 H714 0.960 1_554 S
C702 H715 0.962 . S
C702 H716 0.960 . S
C703 C700 1.511 . S
C703 H717 0.961 . S
C703 H718 0.962 1_545 S
C703 H719 0.961 1_554 S
C704 C705 1.370 . S
C704 C706 1.363 1_556 S
C704 H720 0.931 . S
C705 C704 1.370 . S
C705 C709 1.408 . S
C706 C704 1.363 1_554 S
C706 C707 1.370 1_554 S
C706 C710 1.524 . S
C707 C699 1.503 1_556 S
C707 C706 1.370 1_556 S
C707 C708 1.403 . S
C708 C707 1.403 . S
C708 C709 1.404 . S
C708 C711 1.539 . S
C709 C705 1.408 . S
C709 C708 1.404 . S
C709 H721 0.930 . S
C710 C706 1.524 . S
C710 H722 0.956 . S
C710 H723 0.961 . S
C710 H724 0.961 . S
C711 C708 1.539 . S
C711 H725 0.944 1_565 S
C711 H726 0.961 . S
C711 H727 0.960 1_565 S
H712 C696 0.931 . S
H713 C701 0.929 . S
H714 C702 0.960 1_556 S
H715 C702 0.962 . S
H716 C702 0.960 . S
H717 C703 0.961 . S
H718 C703 0.962 1_565 S
H719 C703 0.961 1_556 S
H720 C704 0.931 . S
H721 C709 0.930 . S
H722 C710 0.956 . S
H723 C710 0.961 . S
H724 C710 0.961 . S
H725 C711 0.944 1_545 S
H726 C711 0.961 . S
H727 C711 0.960 1_545 S
C728 C729 1.391 . S
C728 C730 1.394 1_655 S
C728 H744 0.931 . S
C729 C728 1.391 . S
C729 C733 1.376 . S
C730 C728 1.394 1_455 S
C730 C731 1.369 . S
C730 C734 1.531 . S
C731 C730 1.369 . S
C731 C732 1.410 1_455 S
C731 C739 1.503 1_554 S
C732 C731 1.410 1_655 S
C732 C733 1.392 . S
C732 C735 1.511 1_654 S
C733 C729 1.376 . S
C733 C732 1.392 . S
C733 H745 0.929 . S
C734 C730 1.531 . S
C734 H746 0.960 . S
C734 H747 0.962 . S
C734 H748 0.960 . S
C735 C732 1.511 1_456 S
C735 H749 0.961 1_455 S
C735 H750 0.961 . S
C735 H751 0.961 1_556 S
C736 C737 1.370 . S
C736 C738 1.363 . S
C736 H752 0.931 . S
C737 C736 1.370 . S
C737 C741 1.408 . S
C738 C736 1.363 . S
C738 C739 1.370 . S
C738 C742 1.524 . S
C739 C731 1.503 1_556 S
C739 C738 1.370 . S
C739 C740 1.403 1_556 S
C740 C739 1.403 1_554 S
C740 C741 1.404 1_554 S
C740 C743 1.539 . S
C741 C737 1.408 . S
C741 C740 1.404 1_556 S
C741 H753 0.930 . S
C742 C738 1.524 . S
C742 H754 0.956 1_455 S
C742 H755 0.961 1_455 S
C742 H756 0.961 . S
C743 C740 1.539 . S
C743 H757 0.958 . S
C743 H758 0.961 . S
C743 H759 0.960 . S
H744 C728 0.931 . S
H745 C733 0.929 . S
H746 C734 0.960 . S
H747 C734 0.962 . S
H748 C734 0.960 . S
H749 C735 0.961 1_655 S
H750 C735 0.961 . S
H751 C735 0.961 1_554 S
H752 C736 0.931 . S
H753 C741 0.930 . S
H754 C742 0.956 1_655 S
H755 C742 0.961 1_655 S
H756 C742 0.961 . S
H757 C743 0.958 . S
H758 C743 0.961 . S
H759 C743 0.960 . S
C760 C761 1.391 . S
C760 C762 1.394 . S
C760 H776 0.931 . S
C761 C760 1.391 . S
C761 C765 1.376 . S
C762 C760 1.394 . S
C762 C763 1.383 . S
C762 C766 1.531 . S
C763 C762 1.383 . S
C763 C764 1.407 1_556 S
C763 C771 1.493 1_556 S
C764 C763 1.407 1_554 S
C764 C765 1.392 1_554 S
C764 C767 1.511 . S
C765 C761 1.376 . S
C765 C764 1.392 1_556 S
C765 H777 0.929 . S
C766 C762 1.531 . S
C766 H778 0.960 . S
C766 H779 0.962 . S
C766 H780 0.960 . S
C767 C764 1.511 . S
C767 H781 0.961 . S
C767 H782 0.961 . S
C767 H783 0.961 . S
C768 C769 1.370 . S
C768 C770 1.363 . S
C768 H784 0.931 . S
C769 C768 1.370 . S
C769 C773 1.408 . S
C770 C768 1.363 . S
C770 C771 1.370 . S
C770 C774 1.524 1_554 S
C771 C763 1.493 1_554 S
C771 C770 1.370 . S
C771 C772 1.403 . S
C772 C771 1.403 . S
C772 C773 1.404 . S
C772 C775 1.539 . S
C773 C769 1.408 . S
C773 C772 1.404 . S
C773 H785 0.930 . S
C774 C770 1.524 1_556 S
C774 H786 0.956 . S
C774 H787 0.961 . S
C774 H788 0.961 . S
C775 C772 1.539 . S
C775 H789 0.958 . S
C775 H790 0.961 . S
C775 H791 0.960 . S
H776 C760 0.931 . S
H777 C765 0.929 . S
H778 C766 0.960 . S
H779 C766 0.962 . S
H780 C766 0.960 . S
H781 C767 0.961 . S
H782 C767 0.961 . S
H783 C767 0.961 . S
H784 C768 0.931 . S
H785 C773 0.930 . S
H786 C774 0.956 . S
H787 C774 0.961 . S
H788 C774 0.961 . S
H789 C775 0.958 . S
H790 C775 0.961 . S
H791 C775 0.960 . S
C792 C793 1.391 . S
C792 C794 1.394 . S
C792 H808 0.931 . S
C793 C792 1.391 . S
C793 C797 1.376 . S
C794 C792 1.394 . S
C794 C795 1.369 . S
C794 C798 1.531 . S
C795 C794 1.369 . S
C795 C796 1.410 . S
C795 C803 1.503 . S
C796 C795 1.410 . S
C796 C797 1.392 . S
C796 C799 1.511 . S
C797 C793 1.376 . S
C797 C796 1.392 . S
C797 H809 0.929 . S
C798 C794 1.531 . S
C798 H810 0.962 1_655 S
C798 H811 0.962 . S
C798 H812 0.960 . S
C799 C796 1.511 . S
C799 H813 0.961 . S
C799 H814 0.961 . S
C799 H815 0.961 . S
C800 C801 1.370 . S
C800 C802 1.363 1_455 S
C800 H816 0.931 . S
C801 C800 1.370 . S
C801 C805 1.408 . S
C802 C800 1.363 1_655 S
C802 C803 1.370 . S
C802 C806 1.524 . S
C803 C795 1.503 . S
C803 C802 1.370 . S
C803 C804 1.403 1_655 S
C804 C803 1.403 1_455 S
C804 C805 1.404 . S
C804 C807 1.539 . S
C805 C801 1.408 . S
C805 C804 1.404 . S
C805 H817 0.930 . S
C806 C802 1.524 . S
C806 H818 0.956 . S
C806 H819 0.961 . S
C806 H820 0.961 . S
C807 C804 1.539 . S
C807 H821 0.958 . S
C807 H822 0.961 . S
C807 H823 0.960 . S
H808 C792 0.931 . S
H809 C797 0.929 . S
H810 C798 0.962 1_455 S
H811 C798 0.962 . S
H812 C798 0.960 . S
H813 C799 0.961 . S
H814 C799 0.961 . S
H815 C799 0.961 . S
H816 C800 0.931 . S
H817 C805 0.930 . S
H818 C806 0.956 . S
H819 C806 0.961 . S
H820 C806 0.961 . S
H821 C807 0.958 . S
H822 C807 0.961 . S
H823 C807 0.960 . S
C824 C825 1.391 . S
C824 C826 1.394 . S
C824 H840 0.931 . S
C825 C824 1.391 . S
C825 C829 1.376 . S
C826 C824 1.394 . S
C826 C827 1.369 . S
C826 C830 1.531 . S
C827 C826 1.369 . S
C827 C828 1.410 . S
C827 C835 1.503 . S
C828 C827 1.410 . S
C828 C829 1.392 . S
C828 C831 1.511 . S
C829 C825 1.376 . S
C829 C828 1.392 . S
C829 H841 0.929 . S
C830 C826 1.531 . S
C830 H842 0.960 . S
C830 H843 0.962 . S
C830 H844 0.960 . S
C831 C828 1.511 . S
C831 H845 0.961 . S
C831 H846 0.961 . S
C831 H847 0.961 . S
C832 C833 1.370 . S
C832 C834 1.363 . S
C832 H848 0.931 . S
C833 C832 1.370 . S
C833 C837 1.408 . S
C834 C832 1.363 . S
C834 C835 1.370 . S
C834 C838 1.524 . S
C835 C827 1.503 . S
C835 C834 1.370 . S
C835 C836 1.403 . S
C836 C835 1.403 . S
C836 C837 1.404 . S
C836 C839 1.539 . S
C837 C833 1.408 . S
C837 C836 1.404 . S
C837 H849 0.930 . S
C838 C834 1.524 . S
C838 H850 0.956 . S
C838 H851 0.961 . S
C838 H852 0.961 . S
C839 C836 1.539 . S
C839 H853 0.958 . S
C839 H854 0.961 . S
C839 H855 0.960 . S
H840 C824 0.931 . S
H841 C829 0.929 . S
H842 C830 0.960 . S
H843 C830 0.962 . S
H844 C830 0.960 . S
H845 C831 0.961 . S
H846 C831 0.961 . S
H847 C831 0.961 . S
H848 C832 0.931 . S
H849 C837 0.930 . S
H850 C838 0.956 . S
H851 C838 0.961 . S
H852 C838 0.961 . S
H853 C839 0.958 . S
H854 C839 0.961 . S
H855 C839 0.960 . S
C856 C857 1.391 . S
C856 C858 1.394 . S
C856 H872 0.931 . S
C857 C856 1.391 . S
C857 C861 1.376 . S
C858 C856 1.394 . S
C858 C859 1.369 . S
C858 C862 1.531 . S
C859 C858 1.369 . S
C859 C860 1.410 . S
C859 C867 1.503 . S
C860 C859 1.410 . S
C860 C861 1.392 . S
C860 C863 1.511 . S
C861 C857 1.376 . S
C861 C860 1.392 . S
C861 H873 0.929 . S
C862 C858 1.531 . S
C862 H874 0.960 . S
C862 H875 0.962 1_545 S
C862 H876 0.960 . S
C863 C860 1.511 . S
C863 H877 0.961 . S
C863 H878 0.961 . S
C863 H879 0.961 . S
C864 C865 1.370 . S
C864 C866 1.363 . S
C864 H880 0.931 . S
C865 C864 1.370 . S
C865 C869 1.408 . S
C866 C864 1.363 . S
C866 C867 1.370 1_565 S
C866 C870 1.524 . S
C867 C859 1.503 . S
C867 C866 1.370 1_545 S
C867 C868 1.403 . S
C868 C867 1.403 . S
C868 C869 1.404 1_545 S
C868 C871 1.539 . S
C869 C865 1.408 . S
C869 C868 1.404 1_565 S
C869 H881 0.930 . S
C870 C866 1.524 . S
C870 H882 0.956 . S
C870 H883 0.961 1_565 S
C870 H884 0.961 . S
C871 C868 1.539 . S
C871 H885 0.958 . S
C871 H886 0.961 . S
C871 H887 0.960 . S
H872 C856 0.931 . S
H873 C861 0.929 . S
H874 C862 0.960 . S
H875 C862 0.962 1_565 S
H876 C862 0.960 . S
H877 C863 0.961 . S
H878 C863 0.961 . S
H879 C863 0.961 . S
H880 C864 0.931 . S
H881 C869 0.930 . S
H882 C870 0.956 . S
H883 C870 0.961 1_545 S
H884 C870 0.961 . S
H885 C871 0.958 . S
H886 C871 0.961 . S
H887 C871 0.960 . S
C888 C889 1.391 . S
C888 C890 1.394 . S
C888 H904 0.931 . S
C889 C888 1.391 . S
C889 C893 1.376 . S
C890 C888 1.394 . S
C890 C891 1.369 . S
C890 C894 1.531 . S
C891 C890 1.369 . S
C891 C892 1.410 . S
C891 C899 1.503 . S
C892 C891 1.410 . S
C892 C893 1.392 . S
C892 C895 1.511 . S
C893 C889 1.376 . S
C893 C892 1.392 . S
C893 H905 0.929 . S
C894 C890 1.531 . S
C894 H906 0.960 . S
C894 H907 0.962 . S
C894 H908 0.960 . S
C895 C892 1.511 . S
C895 H909 0.961 . S
C895 H910 0.961 . S
C895 H911 0.961 . S
C896 C897 1.370 . S
C896 C898 1.363 . S
C896 H912 0.931 . S
C897 C896 1.370 . S
C897 C901 1.408 . S
C898 C896 1.363 . S
C898 C899 1.370 . S
C898 C902 1.524 . S
C899 C891 1.503 . S
C899 C898 1.370 . S
C899 C900 1.403 . S
C900 C899 1.403 . S
C900 C901 1.404 . S
C900 C903 1.539 . S
C901 C897 1.408 . S
C901 C900 1.404 . S
C901 H913 0.930 . S
C902 C898 1.524 . S
C902 H914 0.956 . S
C902 H915 0.961 . S
C902 H916 0.961 . S
C903 C900 1.539 . S
C903 H917 0.958 . S
C903 H918 0.961 . S
C903 H919 0.960 . S
H904 C888 0.931 . S
H905 C893 0.929 . S
H906 C894 0.960 . S
H907 C894 0.962 . S
H908 C894 0.960 . S
H909 C895 0.961 . S
H910 C895 0.961 . S
H911 C895 0.961 . S
H912 C896 0.931 . S
H913 C901 0.930 . S
H914 C902 0.956 . S
H915 C902 0.961 . S
H916 C902 0.961 . S
H917 C903 0.958 . S
H918 C903 0.961 . S
H919 C903 0.960 . S
C920 C921 1.391 . S
C920 C922 1.394 . S
C920 H936 0.931 . S
C921 C920 1.391 . S
C921 C925 1.376 . S
C922 C920 1.394 . S
C922 C923 1.369 . S
C922 C926 1.531 . S
C923 C922 1.369 . S
C923 C924 1.410 . S
C923 C931 1.503 . S
C924 C923 1.410 . S
C924 C925 1.392 . S
C924 C927 1.511 . S
C925 C921 1.376 . S
C925 C924 1.392 . S
C925 H937 0.929 . S
C926 C922 1.531 . S
C926 H938 0.960 . S
C926 H939 0.962 . S
C926 H940 0.960 . S
C927 C924 1.511 . S
C927 H941 0.961 . S
C927 H942 0.961 . S
C927 H943 0.961 . S
C928 C929 1.370 . S
C928 C930 1.363 . S
C928 H944 0.931 . S
C929 C928 1.370 . S
C929 C933 1.408 . S
C930 C928 1.363 . S
C930 C931 1.370 . S
C930 C934 1.524 . S
C931 C923 1.503 . S
C931 C930 1.370 . S
C931 C932 1.403 . S
C932 C931 1.403 . S
C932 C933 1.404 . S
C932 C935 1.539 . S
C933 C929 1.408 . S
C933 C932 1.404 . S
C933 H945 0.930 . S
C934 C930 1.524 . S
C934 H946 0.956 . S
C934 H947 0.961 . S
C934 H948 0.961 . S
C935 C932 1.539 . S
C935 H949 0.958 . S
C935 H950 0.961 . S
C935 H951 0.960 . S
H936 C920 0.931 . S
H937 C925 0.929 . S
H938 C926 0.960 . S
H939 C926 0.962 . S
H940 C926 0.960 . S
H941 C927 0.961 . S
H942 C927 0.961 . S
H943 C927 0.961 . S
H944 C928 0.931 . S
H945 C933 0.930 . S
H946 C934 0.956 . S
H947 C934 0.961 . S
H948 C934 0.961 . S
H949 C935 0.958 . S
H950 C935 0.961 . S
H951 C935 0.960 . S
C952 C953 1.391 . S
C952 C954 1.394 . S
C952 H968 0.931 . S
C953 C952 1.391 . S
C953 C957 1.376 . S
C954 C952 1.394 . S
C954 C955 1.369 . S
C954 C958 1.531 . S
C955 C954 1.369 . S
C955 C956 1.410 . S
C955 C963 1.503 . S
C956 C955 1.410 . S
C956 C957 1.392 . S
C956 C959 1.511 . S
C957 C953 1.376 . S
C957 C956 1.392 . S
C957 H969 0.929 . S
C958 C954 1.531 . S
C958 H970 0.960 . S
C958 H971 0.962 . S
C958 H972 0.960 . S
C959 C956 1.511 . S
C959 H973 0.961 . S
C959 H974 0.961 . S
C959 H975 0.961 . S
C960 C961 1.370 . S
C960 C962 1.363 . S
C960 H976 0.931 . S
C961 C960 1.370 . S
C961 C965 1.408 . S
C962 C960 1.363 . S
C962 C963 1.370 . S
C962 C966 1.524 . S
C963 C955 1.503 . S
C963 C962 1.370 . S
C963 C964 1.403 . S
C964 C963 1.403 . S
C964 C965 1.404 . S
C964 C967 1.539 . S
C965 C961 1.408 . S
C965 C964 1.404 . S
C965 H977 0.930 . S
C966 C962 1.524 . S
C966 H978 0.956 . S
C966 H979 0.961 . S
C966 H980 0.961 . S
C967 C964 1.539 . S
C967 H981 0.958 . S
C967 H982 0.961 . S
C967 H983 0.960 . S
H968 C952 0.931 . S
H969 C957 0.929 . S
H970 C958 0.960 . S
H971 C958 0.962 . S
H972 C958 0.960 . S
H973 C959 0.961 . S
H974 C959 0.961 . S
H975 C959 0.961 . S
H976 C960 0.931 . S
H977 C965 0.930 . S
H978 C966 0.956 . S
H979 C966 0.961 . S
H980 C966 0.961 . S
H981 C967 0.958 . S
H982 C967 0.961 . S
H983 C967 0.960 . S
C984 C985 1.391 . S
C984 C986 1.394 . S
C984 H1000 0.931 . S
C985 C984 1.391 . S
C985 C989 1.376 . S
C986 C984 1.394 . S
C986 C987 1.369 . S
C986 C990 1.531 . S
C987 C986 1.369 . S
C987 C988 1.410 . S
C987 C995 1.503 . S
C988 C987 1.410 . S
C988 C989 1.392 . S
C988 C991 1.511 . S
C989 C985 1.376 . S
C989 C988 1.392 . S
C989 H1001 0.929 . S
C990 C986 1.531 . S
C990 H1002 0.960 . S
C990 H1003 0.962 . S
C990 H1004 0.960 . S
C991 C988 1.511 . S
C991 H1005 0.961 . S
C991 H1006 0.961 . S
C991 H1007 0.961 . S
C992 C993 1.370 . S
C992 C994 1.363 . S
C992 H1008 0.931 . S
C993 C992 1.370 . S
C993 C997 1.408 . S
C994 C992 1.363 . S
C994 C995 1.370 . S
C994 C998 1.524 . S
C995 C987 1.503 . S
C995 C994 1.370 . S
C995 C996 1.403 . S
C996 C995 1.403 . S
C996 C997 1.404 . S
C996 C999 1.539 . S
C997 C993 1.408 . S
C997 C996 1.404 . S
C997 H1009 0.930 . S
C998 C994 1.524 . S
C998 H1010 0.956 . S
C998 H1011 0.961 . S
C998 H1012 0.961 . S
C999 C996 1.539 . S
C999 H1013 0.958 . S
C999 H1014 0.961 . S
C999 H1015 0.960 . S
H1000 C984 0.931 . S
H1001 C989 0.929 . S
H1002 C990 0.960 . S
H1003 C990 0.962 . S
H1004 C990 0.960 . S
H1005 C991 0.961 . S
H1006 C991 0.961 . S
H1007 C991 0.961 . S
H1008 C992 0.931 . S
H1009 C997 0.930 . S
H1010 C998 0.956 . S
H1011 C998 0.961 . S
H1012 C998 0.961 . S
H1013 C999 0.958 . S
H1014 C999 0.961 . S
H1015 C999 0.960 . S
C1016 C1017 1.391 . S
C1016 C1018 1.394 . S
C1016 H1032 0.931 . S
C1017 C1016 1.391 . S
C1017 C1021 1.376 . S
C1018 C1016 1.394 . S
C1018 C1019 1.369 . S
C1018 C1022 1.531 . S
C1019 C1018 1.369 . S
C1019 C1020 1.410 . S
C1019 C1027 1.503 . S
C1020 C1019 1.410 . S
C1020 C1021 1.392 . S
C1020 C1023 1.511 . S
C1021 C1017 1.376 . S
C1021 C1020 1.392 . S
C1021 H1033 0.929 . S
C1022 C1018 1.531 . S
C1022 H1034 0.960 . S
C1022 H1035 0.962 . S
C1022 H1036 0.960 . S
C1023 C1020 1.511 . S
C1023 H1037 0.961 . S
C1023 H1038 0.961 . S
C1023 H1039 0.961 . S
C1024 C1025 1.370 . S
C1024 C1026 1.363 . S
C1024 H1040 0.931 . S
C1025 C1024 1.370 . S
C1025 C1029 1.408 . S
C1026 C1024 1.363 . S
C1026 C1027 1.370 . S
C1026 C1030 1.524 . S
C1027 C1019 1.503 . S
C1027 C1026 1.370 . S
C1027 C1028 1.403 . S
C1028 C1027 1.403 . S
C1028 C1029 1.404 . S
C1028 C1031 1.539 . S
C1029 C1025 1.408 . S
C1029 C1028 1.404 . S
C1029 H1041 0.930 . S
C1030 C1026 1.524 . S
C1030 H1042 0.956 . S
C1030 H1043 0.961 . S
C1030 H1044 0.961 . S
C1031 C1028 1.539 . S
C1031 H1045 0.958 . S
C1031 H1046 0.961 . S
C1031 H1047 0.960 . S
H1032 C1016 0.931 . S
H1033 C1021 0.929 . S
H1034 C1022 0.960 . S
H1035 C1022 0.962 . S
H1036 C1022 0.960 . S
H1037 C1023 0.961 . S
H1038 C1023 0.961 . S
H1039 C1023 0.961 . S
H1040 C1024 0.931 . S
H1041 C1029 0.930 . S
H1042 C1030 0.956 . S
H1043 C1030 0.961 . S
H1044 C1030 0.961 . S
H1045 C1031 0.958 . S
H1046 C1031 0.961 . S
H1047 C1031 0.960 . S
C1048 C1049 1.391 . S
C1048 C1050 1.394 . S
C1048 H1064 0.931 . S
C1049 C1048 1.391 . S
C1049 C1053 1.376 . S
C1050 C1048 1.394 . S
C1050 C1051 1.369 . S
C1050 C1054 1.531 . S
C1051 C1050 1.369 . S
C1051 C1052 1.410 . S
C1051 C1059 1.503 . S
C1052 C1051 1.410 . S
C1052 C1053 1.392 . S
C1052 C1055 1.511 . S
C1053 C1049 1.376 . S
C1053 C1052 1.392 . S
C1053 H1065 0.929 . S
C1054 C1050 1.531 . S
C1054 H1066 0.960 . S
C1054 H1067 0.962 . S
C1054 H1068 0.960 . S
C1055 C1052 1.511 . S
C1055 H1069 0.961 . S
C1055 H1070 0.961 . S
C1055 H1071 0.961 . S
C1056 C1057 1.370 . S
C1056 C1058 1.363 . S
C1056 H1072 0.931 . S
C1057 C1056 1.370 . S
C1057 C1061 1.408 . S
C1058 C1056 1.363 . S
C1058 C1059 1.370 . S
C1058 C1062 1.524 . S
C1059 C1051 1.503 . S
C1059 C1058 1.370 . S
C1059 C1060 1.403 . S
C1060 C1059 1.403 . S
C1060 C1061 1.404 . S
C1060 C1063 1.539 . S
C1061 C1057 1.408 . S
C1061 C1060 1.404 . S
C1061 H1073 0.930 . S
C1062 C1058 1.524 . S
C1062 H1074 0.956 . S
C1062 H1075 0.961 . S
C1062 H1076 0.961 . S
C1063 C1060 1.539 . S
C1063 H1077 0.958 . S
C1063 H1078 0.961 . S
C1063 H1079 0.960 . S
H1064 C1048 0.931 . S
H1065 C1053 0.929 . S
H1066 C1054 0.960 . S
H1067 C1054 0.962 . S
H1068 C1054 0.960 . S
H1069 C1055 0.961 . S
H1070 C1055 0.961 . S
H1071 C1055 0.961 . S
H1072 C1056 0.931 . S
H1073 C1061 0.930 . S
H1074 C1062 0.956 . S
H1075 C1062 0.961 . S
H1076 C1062 0.961 . S
H1077 C1063 0.958 . S
H1078 C1063 0.961 . S
H1079 C1063 0.960 . S
C1080 C1081 1.391 . S
C1080 C1082 1.394 . S
C1080 H1096 0.931 . S
C1081 C1080 1.391 . S
C1081 C1085 1.376 . S
C1082 C1080 1.394 . S
C1082 C1083 1.369 . S
C1082 C1086 1.531 . S
C1083 C1082 1.369 . S
C1083 C1084 1.410 . S
C1083 C1091 1.503 . S
C1084 C1083 1.410 . S
C1084 C1085 1.392 . S
C1084 C1087 1.511 . S
C1085 C1081 1.376 . S
C1085 C1084 1.392 . S
C1085 H1097 0.929 . S
C1086 C1082 1.531 . S
C1086 H1098 0.960 . S
C1086 H1099 0.962 . S
C1086 H1100 0.960 . S
C1087 C1084 1.511 . S
C1087 H1101 0.961 . S
C1087 H1102 0.961 . S
C1087 H1103 0.961 . S
C1088 C1089 1.370 . S
C1088 C1090 1.363 . S
C1088 H1104 0.931 . S
C1089 C1088 1.370 . S
C1089 C1093 1.408 . S
C1090 C1088 1.363 . S
C1090 C1091 1.370 . S
C1090 C1094 1.524 . S
C1091 C1083 1.503 . S
C1091 C1090 1.370 . S
C1091 C1092 1.403 . S
C1092 C1091 1.403 . S
C1092 C1093 1.404 . S
C1092 C1095 1.539 . S
C1093 C1089 1.408 . S
C1093 C1092 1.404 . S
C1093 H1105 0.930 . S
C1094 C1090 1.524 . S
C1094 H1106 0.956 . S
C1094 H1107 0.961 . S
C1094 H1108 0.961 . S
C1095 C1092 1.539 . S
C1095 H1109 0.958 . S
C1095 H1110 0.961 . S
C1095 H1111 0.960 . S
H1096 C1080 0.931 . S
H1097 C1085 0.929 . S
H1098 C1086 0.960 . S
H1099 C1086 0.962 . S
H1100 C1086 0.960 . S
H1101 C1087 0.961 . S
H1102 C1087 0.961 . S
H1103 C1087 0.961 . S
H1104 C1088 0.931 . S
H1105 C1093 0.930 . S
H1106 C1094 0.956 . S
H1107 C1094 0.961 . S
H1108 C1094 0.961 . S
H1109 C1095 0.958 . S
H1110 C1095 0.961 . S
H1111 C1095 0.960 . S
C1112 C1113 1.391 . S
C1112 C1114 1.394 . S
C1112 H1128 0.931 . S
C1113 C1112 1.391 . S
C1113 C1117 1.376 . S
C1114 C1112 1.394 . S
C1114 C1115 1.369 . S
C1114 C1118 1.531 . S
C1115 C1114 1.369 . S
C1115 C1116 1.410 . S
C1115 C1123 1.503 . S
C1116 C1115 1.410 . S
C1116 C1117 1.392 . S
C1116 C1119 1.511 . S
C1117 C1113 1.376 . S
C1117 C1116 1.392 . S
C1117 H1129 0.929 . S
C1118 C1114 1.531 . S
C1118 H1130 0.960 . S
C1118 H1131 0.962 . S
C1118 H1132 0.960 . S
C1119 C1116 1.511 . S
C1119 H1133 0.961 . S
C1119 H1134 0.961 . S
C1119 H1135 0.961 . S
C1120 C1121 1.370 . S
C1120 C1122 1.363 . S
C1120 H1136 0.931 . S
C1121 C1120 1.370 . S
C1121 C1125 1.408 . S
C1122 C1120 1.363 . S
C1122 C1123 1.370 . S
C1122 C1126 1.524 . S
C1123 C1115 1.503 . S
C1123 C1122 1.370 . S
C1123 C1124 1.403 . S
C1124 C1123 1.403 . S
C1124 C1125 1.404 . S
C1124 C1127 1.539 . S
C1125 C1121 1.408 . S
C1125 C1124 1.404 . S
C1125 H1137 0.930 . S
C1126 C1122 1.524 . S
C1126 H1138 0.956 . S
C1126 H1139 0.961 . S
C1126 H1140 0.961 . S
C1127 C1124 1.539 . S
C1127 H1141 0.958 . S
C1127 H1142 0.961 . S
C1127 H1143 0.960 . S
H1128 C1112 0.931 . S
H1129 C1117 0.929 . S
H1130 C1118 0.960 . S
H1131 C1118 0.962 . S
H1132 C1118 0.960 . S
H1133 C1119 0.961 . S
H1134 C1119 0.961 . S
H1135 C1119 0.961 . S
H1136 C1120 0.931 . S
H1137 C1125 0.930 . S
H1138 C1126 0.956 . S
H1139 C1126 0.961 . S
H1140 C1126 0.961 . S
H1141 C1127 0.958 . S
H1142 C1127 0.961 . S
H1143 C1127 0.960 . S
C1144 C1145 1.391 . S
C1144 C1146 1.394 . S
C1144 H1160 0.931 . S
C1145 C1144 1.391 . S
C1145 C1149 1.376 . S
C1146 C1144 1.394 . S
C1146 C1147 1.369 . S
C1146 C1150 1.531 . S
C1147 C1146 1.369 . S
C1147 C1148 1.410 . S
C1147 C1155 1.503 . S
C1148 C1147 1.410 . S
C1148 C1149 1.392 . S
C1148 C1151 1.511 . S
C1149 C1145 1.376 . S
C1149 C1148 1.392 . S
C1149 H1161 0.929 . S
C1150 C1146 1.531 . S
C1150 H1162 0.960 . S
C1150 H1163 0.962 . S
C1150 H1164 0.960 . S
C1151 C1148 1.511 . S
C1151 H1165 0.961 . S
C1151 H1166 0.961 . S
C1151 H1167 0.961 . S
C1152 C1153 1.370 . S
C1152 C1154 1.363 . S
C1152 H1168 0.931 . S
C1153 C1152 1.370 . S
C1153 C1157 1.408 . S
C1154 C1152 1.363 . S
C1154 C1155 1.370 . S
C1154 C1158 1.524 . S
C1155 C1147 1.503 . S
C1155 C1154 1.370 . S
C1155 C1156 1.403 . S
C1156 C1155 1.403 . S
C1156 C1157 1.404 . S
C1156 C1159 1.539 . S
C1157 C1153 1.408 . S
C1157 C1156 1.404 . S
C1157 H1169 0.930 . S
C1158 C1154 1.524 . S
C1158 H1170 0.956 . S
C1158 H1171 0.961 . S
C1158 H1172 0.961 . S
C1159 C1156 1.539 . S
C1159 H1173 0.958 . S
C1159 H1174 0.961 . S
C1159 H1175 0.960 . S
H1160 C1144 0.931 . S
H1161 C1149 0.929 . S
H1162 C1150 0.960 . S
H1163 C1150 0.962 . S
H1164 C1150 0.960 . S
H1165 C1151 0.961 . S
H1166 C1151 0.961 . S
H1167 C1151 0.961 . S
H1168 C1152 0.931 . S
H1169 C1157 0.930 . S
H1170 C1158 0.956 . S
H1171 C1158 0.961 . S
H1172 C1158 0.961 . S
H1173 C1159 0.958 . S
H1174 C1159 0.961 . S
H1175 C1159 0.960 . S
C1176 C1177 1.391 . S
C1176 C1178 1.394 . S
C1176 H1192 0.931 . S
C1177 C1176 1.391 . S
C1177 C1181 1.376 . S
C1178 C1176 1.394 . S
C1178 C1179 1.369 . S
C1178 C1182 1.531 . S
C1179 C1178 1.369 . S
C1179 C1180 1.410 . S
C1179 C1187 1.503 . S
C1180 C1179 1.410 . S
C1180 C1181 1.392 . S
C1180 C1183 1.511 . S
C1181 C1177 1.376 . S
C1181 C1180 1.392 . S
C1181 H1193 0.929 . S
C1182 C1178 1.531 . S
C1182 H1194 0.960 . S
C1182 H1195 0.962 . S
C1182 H1196 0.960 . S
C1183 C1180 1.511 . S
C1183 H1197 0.961 . S
C1183 H1198 0.961 . S
C1183 H1199 0.961 . S
C1184 C1185 1.370 . S
C1184 C1186 1.363 . S
C1184 H1200 0.931 . S
C1185 C1184 1.370 . S
C1185 C1189 1.408 . S
C1186 C1184 1.363 . S
C1186 C1187 1.370 . S
C1186 C1190 1.524 . S
C1187 C1179 1.503 . S
C1187 C1186 1.370 . S
C1187 C1188 1.403 . S
C1188 C1187 1.403 . S
C1188 C1189 1.404 . S
C1188 C1191 1.539 . S
C1189 C1185 1.408 . S
C1189 C1188 1.404 . S
C1189 H1201 0.930 . S
C1190 C1186 1.524 . S
C1190 H1202 0.956 . S
C1190 H1203 0.961 . S
C1190 H1204 0.961 . S
C1191 C1188 1.539 . S
C1191 H1205 0.958 . S
C1191 H1206 0.961 . S
C1191 H1207 0.960 . S
H1192 C1176 0.931 . S
H1193 C1181 0.929 . S
H1194 C1182 0.960 . S
H1195 C1182 0.962 . S
H1196 C1182 0.960 . S
H1197 C1183 0.961 . S
H1198 C1183 0.961 . S
H1199 C1183 0.961 . S
H1200 C1184 0.931 . S
H1201 C1189 0.930 . S
H1202 C1190 0.956 . S
H1203 C1190 0.961 . S
H1204 C1190 0.961 . S
H1205 C1191 0.958 . S
H1206 C1191 0.961 . S
H1207 C1191 0.960 . S
C1208 C1209 1.391 . S
C1208 C1210 1.394 . S
C1208 H1224 0.931 . S
C1209 C1208 1.391 . S
C1209 C1213 1.376 . S
C1210 C1208 1.394 . S
C1210 C1211 1.369 . S
C1210 C1214 1.531 . S
C1211 C1210 1.369 . S
C1211 C1212 1.410 . S
C1211 C1219 1.503 . S
C1212 C1211 1.410 . S
C1212 C1213 1.392 . S
C1212 C1215 1.511 . S
C1213 C1209 1.376 . S
C1213 C1212 1.392 . S
C1213 H1225 0.929 . S
C1214 C1210 1.531 . S
C1214 H1226 0.960 . S
C1214 H1227 0.962 . S
C1214 H1228 0.960 . S
C1215 C1212 1.511 . S
C1215 H1229 0.961 . S
C1215 H1230 0.961 . S
C1215 H1231 0.961 . S
C1216 C1217 1.370 . S
C1216 C1218 1.363 . S
C1216 H1232 0.931 . S
C1217 C1216 1.370 . S
C1217 C1221 1.408 . S
C1218 C1216 1.363 . S
C1218 C1219 1.370 . S
C1218 C1222 1.524 . S
C1219 C1211 1.503 . S
C1219 C1218 1.370 . S
C1219 C1220 1.403 . S
C1220 C1219 1.403 . S
C1220 C1221 1.404 . S
C1220 C1223 1.539 . S
C1221 C1217 1.408 . S
C1221 C1220 1.404 . S
C1221 H1233 0.930 . S
C1222 C1218 1.524 . S
C1222 H1234 0.956 . S
C1222 H1235 0.961 . S
C1222 H1236 0.961 . S
C1223 C1220 1.539 . S
C1223 H1237 0.958 . S
C1223 H1238 0.961 . S
C1223 H1239 0.960 . S
H1224 C1208 0.931 . S
H1225 C1213 0.929 . S
H1226 C1214 0.960 . S
H1227 C1214 0.962 . S
H1228 C1214 0.960 . S
H1229 C1215 0.961 . S
H1230 C1215 0.961 . S
H1231 C1215 0.961 . S
H1232 C1216 0.931 . S
H1233 C1221 0.930 . S
H1234 C1222 0.956 . S
H1235 C1222 0.961 . S
H1236 C1222 0.961 . S
H1237 C1223 0.958 . S
H1238 C1223 0.961 . S
H1239 C1223 0.960 . S
C1240 C1241 1.391 . S
C1240 C1242 1.394 . S
C1240 H1256 0.931 . S
C1241 C1240 1.391 . S
C1241 C1245 1.376 . S
C1242 C1240 1.394 . S
C1242 C1243 1.369 . S
C1242 C1246 1.531 . S
C1243 C1242 1.369 . S
C1243 C1244 1.410 . S
C1243 C1251 1.503 . S
C1244 C1243 1.410 . S
C1244 C1245 1.392 . S
C1244 C1247 1.511 . S
C1245 C1241 1.376 . S
C1245 C1244 1.392 . S
C1245 H1257 0.929 . S
C1246 C1242 1.531 . S
C1246 H1258 0.960 . S
C1246 H1259 0.962 . S
C1246 H1260 0.960 . S
C1247 C1244 1.511 . S
C1247 H1261 0.961 . S
C1247 H1262 0.961 . S
C1247 H1263 0.961 . S
C1248 C1249 1.370 . S
C1248 C1250 1.363 . S
C1248 H1264 0.931 . S
C1249 C1248 1.370 . S
C1249 C1253 1.408 . S
C1250 C1248 1.363 . S
C1250 C1251 1.370 . S
C1250 C1254 1.524 . S
C1251 C1243 1.503 . S
C1251 C1250 1.370 . S
C1251 C1252 1.403 . S
C1252 C1251 1.403 . S
C1252 C1253 1.404 . S
C1252 C1255 1.539 . S
C1253 C1249 1.408 . S
C1253 C1252 1.404 . S
C1253 H1265 0.930 . S
C1254 C1250 1.524 . S
C1254 H1266 0.956 . S
C1254 H1267 0.961 . S
C1254 H1268 0.961 . S
C1255 C1252 1.539 . S
C1255 H1269 0.958 . S
C1255 H1270 0.961 . S
C1255 H1271 0.960 . S
H1256 C1240 0.931 . S
H1257 C1245 0.929 . S
H1258 C1246 0.960 . S
H1259 C1246 0.962 . S
H1260 C1246 0.960 . S
H1261 C1247 0.961 . S
H1262 C1247 0.961 . S
H1263 C1247 0.961 . S
H1264 C1248 0.931 . S
H1265 C1253 0.930 . S
H1266 C1254 0.956 . S
H1267 C1254 0.961 . S
H1268 C1254 0.961 . S
H1269 C1255 0.958 . S
H1270 C1255 0.961 . S
H1271 C1255 0.960 . S
C1272 C1273 1.391 . S
C1272 C1274 1.394 . S
C1272 H1288 0.931 . S
C1273 C1272 1.391 . S
C1273 C1277 1.376 . S
C1274 C1272 1.394 . S
C1274 C1275 1.369 . S
C1274 C1278 1.531 . S
C1275 C1274 1.369 . S
C1275 C1276 1.410 . S
C1275 C1283 1.503 . S
C1276 C1275 1.410 . S
C1276 C1277 1.392 . S
C1276 C1279 1.511 . S
C1277 C1273 1.376 . S
C1277 C1276 1.392 . S
C1277 H1289 0.929 . S
C1278 C1274 1.531 . S
C1278 H1290 0.960 . S
C1278 H1291 0.962 . S
C1278 H1292 0.960 . S
C1279 C1276 1.511 . S
C1279 H1293 0.961 . S
C1279 H1294 0.961 . S
C1279 H1295 0.961 . S
C1280 C1281 1.370 . S
C1280 C1282 1.363 . S
C1280 H1296 0.931 . S
C1281 C1280 1.370 . S
C1281 C1285 1.408 . S
C1282 C1280 1.363 . S
C1282 C1283 1.370 . S
C1282 C1286 1.524 . S
C1283 C1275 1.503 . S
C1283 C1282 1.370 . S
C1283 C1284 1.403 . S
C1284 C1283 1.403 . S
C1284 C1285 1.404 . S
C1284 C1287 1.539 . S
C1285 C1281 1.408 . S
C1285 C1284 1.404 . S
C1285 H1297 0.930 . S
C1286 C1282 1.524 . S
C1286 H1298 0.956 . S
C1286 H1299 0.961 . S
C1286 H1300 0.961 . S
C1287 C1284 1.539 . S
C1287 H1301 0.958 . S
C1287 H1302 0.961 . S
C1287 H1303 0.960 . S
H1288 C1272 0.931 . S
H1289 C1277 0.929 . S
H1290 C1278 0.960 . S
H1291 C1278 0.962 . S
H1292 C1278 0.960 . S
H1293 C1279 0.961 . S
H1294 C1279 0.961 . S
H1295 C1279 0.961 . S
H1296 C1280 0.931 . S
H1297 C1285 0.930 . S
H1298 C1286 0.956 . S
H1299 C1286 0.961 . S
H1300 C1286 0.961 . S
H1301 C1287 0.958 . S
H1302 C1287 0.961 . S
H1303 C1287 0.960 . S
C1304 C1305 1.391 . S
C1304 C1306 1.394 . S
C1304 H1320 0.931 . S
C1305 C1304 1.391 . S
C1305 C1309 1.376 . S
C1306 C1304 1.394 . S
C1306 C1307 1.369 . S
C1306 C1310 1.531 . S
C1307 C1306 1.369 . S
C1307 C1308 1.410 . S
C1307 C1315 1.503 . S
C1308 C1307 1.410 . S
C1308 C1309 1.392 . S
C1308 C1311 1.511 . S
C1309 C1305 1.376 . S
C1309 C1308 1.392 . S
C1309 H1321 0.929 . S
C1310 C1306 1.531 . S
C1310 H1322 0.960 . S
C1310 H1323 0.962 . S
C1310 H1324 0.960 . S
C1311 C1308 1.511 . S
C1311 H1325 0.961 . S
C1311 H1326 0.961 . S
C1311 H1327 0.961 . S
C1312 C1313 1.370 . S
C1312 C1314 1.363 . S
C1312 H1328 0.931 . S
C1313 C1312 1.370 . S
C1313 C1317 1.408 . S
C1314 C1312 1.363 . S
C1314 C1315 1.370 . S
C1314 C1318 1.524 . S
C1315 C1307 1.503 . S
C1315 C1314 1.370 . S
C1315 C1316 1.403 . S
C1316 C1315 1.403 . S
C1316 C1317 1.404 . S
C1316 C1319 1.539 . S
C1317 C1313 1.408 . S
C1317 C1316 1.404 . S
C1317 H1329 0.930 . S
C1318 C1314 1.524 . S
C1318 H1330 0.956 . S
C1318 H1331 0.961 . S
C1318 H1332 0.961 . S
C1319 C1316 1.539 . S
C1319 H1333 0.958 . S
C1319 H1334 0.961 . S
C1319 H1335 0.960 . S
H1320 C1304 0.931 . S
H1321 C1309 0.929 . S
H1322 C1310 0.960 . S
H1323 C1310 0.962 . S
H1324 C1310 0.960 . S
H1325 C1311 0.961 . S
H1326 C1311 0.961 . S
H1327 C1311 0.961 . S
H1328 C1312 0.931 . S
H1329 C1317 0.930 . S
H1330 C1318 0.956 . S
H1331 C1318 0.961 . S
H1332 C1318 0.961 . S
H1333 C1319 0.958 . S
H1334 C1319 0.961 . S
H1335 C1319 0.960 . S
C1336 C1337 1.391 . S
C1336 C1338 1.394 . S
C1336 H1352 0.931 . S
C1337 C1336 1.391 . S
C1337 C1341 1.376 . S
C1338 C1336 1.394 . S
C1338 C1339 1.369 . S
C1338 C1342 1.531 . S
C1339 C1338 1.369 . S
C1339 C1340 1.410 . S
C1339 C1347 1.503 . S
C1340 C1339 1.410 . S
C1340 C1341 1.392 . S
C1340 C1343 1.511 . S
C1341 C1337 1.376 . S
C1341 C1340 1.392 . S
C1341 H1353 0.929 . S
C1342 C1338 1.531 . S
C1342 H1354 0.960 . S
C1342 H1355 0.962 . S
C1342 H1356 0.960 . S
C1343 C1340 1.511 . S
C1343 H1357 0.961 . S
C1343 H1358 0.961 . S
C1343 H1359 0.961 . S
C1344 C1345 1.370 . S
C1344 C1346 1.363 . S
C1344 H1360 0.931 . S
C1345 C1344 1.370 . S
C1345 C1349 1.408 . S
C1346 C1344 1.363 . S
C1346 C1347 1.370 . S
C1346 C1350 1.524 . S
C1347 C1339 1.503 . S
C1347 C1346 1.370 . S
C1347 C1348 1.403 . S
C1348 C1347 1.403 . S
C1348 C1349 1.404 . S
C1348 C1351 1.539 . S
C1349 C1345 1.408 . S
C1349 C1348 1.404 . S
C1349 H1361 0.930 . S
C1350 C1346 1.524 . S
C1350 H1362 0.956 . S
C1350 H1363 0.961 . S
C1350 H1364 0.961 . S
C1351 C1348 1.539 . S
C1351 H1365 0.958 . S
C1351 H1366 0.961 . S
C1351 H1367 0.960 . S
H1352 C1336 0.931 . S
H1353 C1341 0.929 . S
H1354 C1342 0.960 . S
H1355 C1342 0.962 . S
H1356 C1342 0.960 . S
H1357 C1343 0.961 . S
H1358 C1343 0.961 . S
H1359 C1343 0.961 . S
H1360 C1344 0.931 . S
H1361 C1349 0.930 . S
H1362 C1350 0.956 . S
H1363 C1350 0.961 . S
H1364 C1350 0.961 . S
H1365 C1351 0.958 . S
H1366 C1351 0.961 . S
H1367 C1351 0.960 . S
C1368 C1369 1.391 . S
C1368 C1370 1.394 . S
C1368 H1384 0.931 . S
C1369 C1368 1.391 . S
C1369 C1373 1.376 . S
C1370 C1368 1.394 . S
C1370 C1371 1.369 . S
C1370 C1374 1.531 . S
C1371 C1370 1.369 . S
C1371 C1372 1.410 . S
C1371 C1379 1.503 . S
C1372 C1371 1.410 . S
C1372 C1373 1.392 . S
C1372 C1375 1.511 . S
C1373 C1369 1.376 . S
C1373 C1372 1.392 . S
C1373 H1385 0.929 . S
C1374 C1370 1.531 . S
C1374 H1386 0.960 . S
C1374 H1387 0.962 . S
C1374 H1388 0.960 . S
C1375 C1372 1.511 . S
C1375 H1389 0.961 . S
C1375 H1390 0.961 . S
C1375 H1391 0.961 . S
C1376 C1377 1.370 . S
C1376 C1378 1.363 . S
C1376 H1392 0.931 . S
C1377 C1376 1.370 . S
C1377 C1381 1.408 . S
C1378 C1376 1.363 . S
C1378 C1379 1.370 . S
C1378 C1382 1.524 . S
C1379 C1371 1.503 . S
C1379 C1378 1.370 . S
C1379 C1380 1.403 . S
C1380 C1379 1.403 . S
C1380 C1381 1.404 . S
C1380 C1383 1.539 . S
C1381 C1377 1.408 . S
C1381 C1380 1.404 . S
C1381 H1393 0.930 . S
C1382 C1378 1.524 . S
C1382 H1394 0.956 . S
C1382 H1395 0.961 . S
C1382 H1396 0.961 . S
C1383 C1380 1.539 . S
C1383 H1397 0.958 . S
C1383 H1398 0.961 . S
C1383 H1399 0.960 . S
H1384 C1368 0.931 . S
H1385 C1373 0.929 . S
H1386 C1374 0.960 . S
H1387 C1374 0.962 . S
H1388 C1374 0.960 . S
H1389 C1375 0.961 . S
H1390 C1375 0.961 . S
H1391 C1375 0.961 . S
H1392 C1376 0.931 . S
H1393 C1381 0.930 . S
H1394 C1382 0.956 . S
H1395 C1382 0.961 . S
H1396 C1382 0.961 . S
H1397 C1383 0.958 . S
H1398 C1383 0.961 . S
H1399 C1383 0.960 . S
C1400 C1401 1.391 . S
C1400 C1402 1.394 . S
C1400 H1416 0.931 . S
C1401 C1400 1.391 . S
C1401 C1405 1.376 . S
C1402 C1400 1.394 . S
C1402 C1403 1.369 . S
C1402 C1406 1.531 . S
C1403 C1402 1.369 . S
C1403 C1404 1.410 . S
C1403 C1411 1.503 . S
C1404 C1403 1.410 . S
C1404 C1405 1.392 . S
C1404 C1407 1.511 . S
C1405 C1401 1.376 . S
C1405 C1404 1.392 . S
C1405 H1417 0.929 . S
C1406 C1402 1.531 . S
C1406 H1418 0.960 . S
C1406 H1419 0.962 . S
C1406 H1420 0.960 . S
C1407 C1404 1.511 . S
C1407 H1421 0.961 . S
C1407 H1422 0.961 . S
C1407 H1423 0.961 . S
C1408 C1409 1.370 . S
C1408 C1410 1.363 . S
C1408 H1424 0.931 . S
C1409 C1408 1.370 . S
C1409 C1413 1.408 . S
C1410 C1408 1.363 . S
C1410 C1411 1.370 . S
C1410 C1414 1.524 . S
C1411 C1403 1.503 . S
C1411 C1410 1.370 . S
C1411 C1412 1.403 . S
C1412 C1411 1.403 . S
C1412 C1413 1.404 . S
C1412 C1415 1.539 . S
C1413 C1409 1.408 . S
C1413 C1412 1.404 . S
C1413 H1425 0.930 . S
C1414 C1410 1.524 . S
C1414 H1426 0.956 . S
C1414 H1427 0.961 . S
C1414 H1428 0.961 . S
C1415 C1412 1.539 . S
C1415 H1429 0.958 . S
C1415 H1430 0.961 . S
C1415 H1431 0.960 . S
H1416 C1400 0.931 . S
H1417 C1405 0.929 . S
H1418 C1406 0.960 . S
H1419 C1406 0.962 . S
H1420 C1406 0.960 . S
H1421 C1407 0.961 . S
H1422 C1407 0.961 . S
H1423 C1407 0.961 . S
H1424 C1408 0.931 . S
H1425 C1413 0.930 . S
H1426 C1414 0.956 . S
H1427 C1414 0.961 . S
H1428 C1414 0.961 . S
H1429 C1415 0.958 . S
H1430 C1415 0.961 . S
H1431 C1415 0.960 . S
C1432 C1433 1.391 . S
C1432 C1434 1.394 . S
C1432 H1448 0.931 . S
C1433 C1432 1.391 . S
C1433 C1437 1.376 . S
C1434 C1432 1.394 . S
C1434 C1435 1.369 . S
C1434 C1438 1.531 . S
C1435 C1434 1.369 . S
C1435 C1436 1.410 . S
C1435 C1443 1.503 . S
C1436 C1435 1.410 . S
C1436 C1437 1.392 . S
C1436 C1439 1.511 . S
C1437 C1433 1.376 . S
C1437 C1436 1.392 . S
C1437 H1449 0.929 . S
C1438 C1434 1.531 . S
C1438 H1450 0.960 . S
C1438 H1451 0.962 . S
C1438 H1452 0.960 . S
C1439 C1436 1.511 . S
C1439 H1453 0.961 . S
C1439 H1454 0.961 . S
C1439 H1455 0.961 . S
C1440 C1441 1.370 . S
C1440 C1442 1.363 . S
C1440 H1456 0.931 . S
C1441 C1440 1.370 . S
C1441 C1445 1.408 . S
C1442 C1440 1.363 . S
C1442 C1443 1.370 . S
C1442 C1446 1.524 . S
C1443 C1435 1.503 . S
C1443 C1442 1.370 . S
C1443 C1444 1.403 . S
C1444 C1443 1.403 . S
C1444 C1445 1.404 . S
C1444 C1447 1.539 . S
C1445 C1441 1.408 . S
C1445 C1444 1.404 . S
C1445 H1457 0.930 . S
C1446 C1442 1.524 . S
C1446 H1458 0.956 . S
C1446 H1459 0.961 . S
C1446 H1460 0.961 . S
C1447 C1444 1.539 . S
C1447 H1461 0.958 . S
C1447 H1462 0.961 . S
C1447 H1463 0.960 . S
H1448 C1432 0.931 . S
H1449 C1437 0.929 . S
H1450 C1438 0.960 . S
H1451 C1438 0.962 . S
H1452 C1438 0.960 . S
H1453 C1439 0.961 . S
H1454 C1439 0.961 . S
H1455 C1439 0.961 . S
H1456 C1440 0.931 . S
H1457 C1445 0.930 . S
H1458 C1446 0.956 . S
H1459 C1446 0.961 . S
H1460 C1446 0.961 . S
H1461 C1447 0.958 . S
H1462 C1447 0.961 . S
H1463 C1447 0.960 . S
C1464 C1465 1.391 . S
C1464 C1466 1.394 . S
C1464 H1480 0.931 . S
C1465 C1464 1.391 . S
C1465 C1469 1.376 . S
C1466 C1464 1.394 . S
C1466 C1467 1.369 . S
C1466 C1470 1.531 . S
C1467 C1466 1.369 . S
C1467 C1468 1.410 . S
C1467 C1475 1.503 . S
C1468 C1467 1.410 . S
C1468 C1469 1.392 . S
C1468 C1471 1.511 . S
C1469 C1465 1.376 . S
C1469 C1468 1.392 . S
C1469 H1481 0.929 . S
C1470 C1466 1.531 . S
C1470 H1482 0.960 . S
C1470 H1483 0.962 . S
C1470 H1484 0.960 . S
C1471 C1468 1.511 . S
C1471 H1485 0.961 . S
C1471 H1486 0.961 . S
C1471 H1487 0.961 . S
C1472 C1473 1.370 . S
C1472 C1474 1.363 . S
C1472 H1488 0.931 . S
C1473 C1472 1.370 . S
C1473 C1477 1.408 . S
C1474 C1472 1.363 . S
C1474 C1475 1.370 . S
C1474 C1478 1.524 . S
C1475 C1467 1.503 . S
C1475 C1474 1.370 . S
C1475 C1476 1.403 . S
C1476 C1475 1.403 . S
C1476 C1477 1.404 . S
C1476 C1479 1.539 . S
C1477 C1473 1.408 . S
C1477 C1476 1.404 . S
C1477 H1489 0.930 . S
C1478 C1474 1.524 . S
C1478 H1490 0.956 . S
C1478 H1491 0.961 . S
C1478 H1492 0.961 . S
C1479 C1476 1.539 . S
C1479 H1493 0.958 . S
C1479 H1494 0.961 . S
C1479 H1495 0.960 . S
H1480 C1464 0.931 . S
H1481 C1469 0.929 . S
H1482 C1470 0.960 . S
H1483 C1470 0.962 . S
H1484 C1470 0.960 . S
H1485 C1471 0.961 . S
H1486 C1471 0.961 . S
H1487 C1471 0.961 . S
H1488 C1472 0.931 . S
H1489 C1477 0.930 . S
H1490 C1478 0.956 . S
H1491 C1478 0.961 . S
H1492 C1478 0.961 . S
H1493 C1479 0.958 . S
H1494 C1479 0.961 . S
H1495 C1479 0.960 . S
C1496 C1497 1.391 . S
C1496 C1498 1.394 . S
C1496 H1512 0.931 . S
C1497 C1496 1.391 . S
C1497 C1501 1.376 . S
C1498 C1496 1.394 . S
C1498 C1499 1.369 . S
C1498 C1502 1.531 . S
C1499 C1498 1.369 . S
C1499 C1500 1.410 . S
C1499 C1507 1.503 . S
C1500 C1499 1.410 . S
C1500 C1501 1.392 . S
C1500 C1503 1.511 . S
C1501 C1497 1.376 . S
C1501 C1500 1.392 . S
C1501 H1513 0.929 . S
C1502 C1498 1.531 . S
C1502 H1514 0.960 . S
C1502 H1515 0.962 . S
C1502 H1516 0.960 . S
C1503 C1500 1.511 . S
C1503 H1517 0.961 . S
C1503 H1518 0.961 . S
C1503 H1519 0.961 . S
C1504 C1505 1.370 . S
C1504 C1506 1.363 . S
C1504 H1520 0.931 . S
C1505 C1504 1.370 . S
C1505 C1509 1.408 . S
C1506 C1504 1.363 . S
C1506 C1507 1.370 . S
C1506 C1510 1.524 . S
C1507 C1499 1.503 . S
C1507 C1506 1.370 . S
C1507 C1508 1.403 . S
C1508 C1507 1.403 . S
C1508 C1509 1.404 . S
C1508 C1511 1.539 . S
C1509 C1505 1.408 . S
C1509 C1508 1.404 . S
C1509 H1521 0.930 . S
C1510 C1506 1.524 . S
C1510 H1522 0.956 . S
C1510 H1523 0.961 . S
C1510 H1524 0.961 . S
C1511 C1508 1.539 . S
C1511 H1525 0.958 . S
C1511 H1526 0.961 . S
C1511 H1527 0.960 . S
H1512 C1496 0.931 . S
H1513 C1501 0.929 . S
H1514 C1502 0.960 . S
H1515 C1502 0.962 . S
H1516 C1502 0.960 . S
H1517 C1503 0.961 . S
H1518 C1503 0.961 . S
H1519 C1503 0.961 . S
H1520 C1504 0.931 . S
H1521 C1509 0.930 . S
H1522 C1510 0.956 . S
H1523 C1510 0.961 . S
H1524 C1510 0.961 . S
H1525 C1511 0.958 . S
H1526 C1511 0.961 . S
H1527 C1511 0.960 . S
C1528 C1529 1.391 . S
C1528 C1530 1.394 . S
C1528 H1544 0.931 . S
C1529 C1528 1.391 . S
C1529 C1533 1.376 . S
C1530 C1528 1.394 . S
C1530 C1531 1.369 . S
C1530 C1534 1.531 . S
C1531 C1530 1.369 . S
C1531 C1532 1.410 . S
C1531 C1539 1.503 . S
C1532 C1531 1.410 . S
C1532 C1533 1.392 . S
C1532 C1535 1.511 . S
C1533 C1529 1.376 . S
C1533 C1532 1.392 . S
C1533 H1545 0.929 . S
C1534 C1530 1.531 . S
C1534 H1546 0.960 . S
C1534 H1547 0.962 . S
C1534 H1548 0.960 . S
C1535 C1532 1.511 . S
C1535 H1549 0.961 . S
C1535 H1550 0.961 . S
C1535 H1551 0.961 . S
C1536 C1537 1.370 . S
C1536 C1538 1.363 . S
C1536 H1552 0.931 . S
C1537 C1536 1.370 . S
C1537 C1541 1.408 . S
C1538 C1536 1.363 . S
C1538 C1539 1.370 . S
C1538 C1542 1.524 . S
C1539 C1531 1.503 . S
C1539 C1538 1.370 . S
C1539 C1540 1.403 . S
C1540 C1539 1.403 . S
C1540 C1541 1.404 . S
C1540 C1543 1.539 . S
C1541 C1537 1.408 . S
C1541 C1540 1.404 . S
C1541 H1553 0.930 . S
C1542 C1538 1.524 . S
C1542 H1554 0.956 . S
C1542 H1555 0.961 . S
C1542 H1556 0.961 . S
C1543 C1540 1.539 . S
C1543 H1557 0.958 . S
C1543 H1558 0.961 . S
C1543 H1559 0.960 . S
H1544 C1528 0.931 . S
H1545 C1533 0.929 . S
H1546 C1534 0.960 . S
H1547 C1534 0.962 . S
H1548 C1534 0.960 . S
H1549 C1535 0.961 . S
H1550 C1535 0.961 . S
H1551 C1535 0.961 . S
H1552 C1536 0.931 . S
H1553 C1541 0.930 . S
H1554 C1542 0.956 . S
H1555 C1542 0.961 . S
H1556 C1542 0.961 . S
H1557 C1543 0.958 . S
H1558 C1543 0.961 . S
H1559 C1543 0.960 . S
C1560 C1561 1.391 . S
C1560 C1562 1.394 . S
C1560 H1576 0.931 . S
C1561 C1560 1.391 . S
C1561 C1565 1.376 . S
C1562 C1560 1.394 . S
C1562 C1563 1.369 . S
C1562 C1566 1.531 . S
C1563 C1562 1.369 . S
C1563 C1564 1.410 . S
C1563 C1571 1.503 . S
C1564 C1563 1.410 . S
C1564 C1565 1.392 . S
C1564 C1567 1.511 . S
C1565 C1561 1.376 . S
C1565 C1564 1.392 . S
C1565 H1577 0.929 . S
C1566 C1562 1.531 . S
C1566 H1578 0.960 . S
C1566 H1579 0.962 . S
C1566 H1580 0.960 . S
C1567 C1564 1.511 . S
C1567 H1581 0.961 . S
C1567 H1582 0.961 . S
C1567 H1583 0.961 . S
C1568 C1569 1.370 . S
C1568 C1570 1.363 . S
C1568 H1584 0.931 . S
C1569 C1568 1.370 . S
C1569 C1573 1.408 . S
C1570 C1568 1.363 . S
C1570 C1571 1.370 . S
C1570 C1574 1.524 . S
C1571 C1563 1.503 . S
C1571 C1570 1.370 . S
C1571 C1572 1.403 . S
C1572 C1571 1.403 . S
C1572 C1573 1.404 . S
C1572 C1575 1.539 . S
C1573 C1569 1.408 . S
C1573 C1572 1.404 . S
C1573 H1585 0.930 . S
C1574 C1570 1.524 . S
C1574 H1586 0.956 . S
C1574 H1587 0.961 . S
C1574 H1588 0.961 . S
C1575 C1572 1.539 . S
C1575 H1589 0.958 . S
C1575 H1590 0.961 . S
C1575 H1591 0.960 . S
H1576 C1560 0.931 . S
H1577 C1565 0.929 . S
H1578 C1566 0.960 . S
H1579 C1566 0.962 . S
H1580 C1566 0.960 . S
H1581 C1567 0.961 . S
H1582 C1567 0.961 . S
H1583 C1567 0.961 . S
H1584 C1568 0.931 . S
H1585 C1573 0.930 . S
H1586 C1574 0.956 . S
H1587 C1574 0.961 . S
H1588 C1574 0.961 . S
H1589 C1575 0.958 . S
H1590 C1575 0.961 . S
H1591 C1575 0.960 . S
C1592 C1593 1.391 . S
C1592 C1594 1.394 . S
C1592 H1608 0.931 . S
C1593 C1592 1.391 . S
C1593 C1597 1.376 . S
C1594 C1592 1.394 . S
C1594 C1595 1.369 . S
C1594 C1598 1.531 . S
C1595 C1594 1.369 . S
C1595 C1596 1.410 . S
C1595 C1603 1.503 . S
C1596 C1595 1.410 . S
C1596 C1597 1.392 . S
C1596 C1599 1.511 . S
C1597 C1593 1.376 . S
C1597 C1596 1.392 . S
C1597 H1609 0.929 . S
C1598 C1594 1.531 . S
C1598 H1610 0.960 . S
C1598 H1611 0.962 . S
C1598 H1612 0.960 . S
C1599 C1596 1.511 . S
C1599 H1613 0.961 . S
C1599 H1614 0.961 . S
C1599 H1615 0.961 . S
C1600 C1601 1.370 . S
C1600 C1602 1.363 . S
C1600 H1616 0.931 . S
C1601 C1600 1.370 . S
C1601 C1605 1.408 . S
C1602 C1600 1.363 . S
C1602 C1603 1.370 . S
C1602 C1606 1.524 . S
C1603 C1595 1.503 . S
C1603 C1602 1.370 . S
C1603 C1604 1.403 . S
C1604 C1603 1.403 . S
C1604 C1605 1.404 . S
C1604 C1607 1.539 . S
C1605 C1601 1.408 . S
C1605 C1604 1.404 . S
C1605 H1617 0.930 . S
C1606 C1602 1.524 . S
C1606 H1618 0.956 . S
C1606 H1619 0.961 . S
C1606 H1620 0.961 . S
C1607 C1604 1.539 . S
C1607 H1621 0.958 . S
C1607 H1622 0.961 . S
C1607 H1623 0.960 . S
H1608 C1592 0.931 . S
H1609 C1597 0.929 . S
H1610 C1598 0.960 . S
H1611 C1598 0.962 . S
H1612 C1598 0.960 . S
H1613 C1599 0.961 . S
H1614 C1599 0.961 . S
H1615 C1599 0.961 . S
H1616 C1600 0.931 . S
H1617 C1605 0.930 . S
H1618 C1606 0.956 . S
H1619 C1606 0.961 . S
H1620 C1606 0.961 . S
H1621 C1607 0.958 . S
H1622 C1607 0.961 . S
H1623 C1607 0.960 . S
C1624 C1625 1.391 . S
C1624 C1626 1.394 . S
C1624 H1640 0.931 . S
C1625 C1624 1.391 . S
C1625 C1629 1.376 . S
C1626 C1624 1.394 . S
C1626 C1627 1.369 . S
C1626 C1630 1.531 . S
C1627 C1626 1.369 . S
C1627 C1628 1.410 . S
C1627 C1635 1.503 . S
C1628 C1627 1.410 . S
C1628 C1629 1.392 . S
C1628 C1631 1.511 . S
C1629 C1625 1.376 . S
C1629 C1628 1.392 . S
C1629 H1641 0.929 . S
C1630 C1626 1.531 . S
C1630 H1642 0.960 . S
C1630 H1643 0.962 . S
C1630 H1644 0.960 . S
C1631 C1628 1.511 . S
C1631 H1645 0.961 . S
C1631 H1646 0.961 . S
C1631 H1647 0.961 . S
C1632 C1633 1.370 . S
C1632 C1634 1.363 . S
C1632 H1648 0.931 . S
C1633 C1632 1.370 . S
C1633 C1637 1.408 . S
C1634 C1632 1.363 . S
C1634 C1635 1.370 . S
C1634 C1638 1.524 . S
C1635 C1627 1.503 . S
C1635 C1634 1.370 . S
C1635 C1636 1.403 . S
C1636 C1635 1.403 . S
C1636 C1637 1.404 . S
C1636 C1639 1.539 . S
C1637 C1633 1.408 . S
C1637 C1636 1.404 . S
C1637 H1649 0.930 . S
C1638 C1634 1.524 . S
C1638 H1650 0.956 . S
C1638 H1651 0.961 . S
C1638 H1652 0.961 . S
C1639 C1636 1.539 . S
C1639 H1653 0.958 . S
C1639 H1654 0.961 . S
C1639 H1655 0.960 . S
H1640 C1624 0.931 . S
H1641 C1629 0.929 . S
H1642 C1630 0.960 . S
H1643 C1630 0.962 . S
H1644 C1630 0.960 . S
H1645 C1631 0.961 . S
H1646 C1631 0.961 . S
H1647 C1631 0.961 . S
H1648 C1632 0.931 . S
H1649 C1637 0.930 . S
H1650 C1638 0.956 . S
H1651 C1638 0.961 . S
H1652 C1638 0.961 . S
H1653 C1639 0.958 . S
H1654 C1639 0.961 . S
H1655 C1639 0.960 . S
C1656 C1657 1.391 . S
C1656 C1658 1.394 . S
C1656 H1672 0.931 . S
C1657 C1656 1.391 . S
C1657 C1661 1.376 . S
C1658 C1656 1.394 . S
C1658 C1659 1.369 . S
C1658 C1662 1.531 . S
C1659 C1658 1.369 . S
C1659 C1660 1.410 . S
C1659 C1667 1.503 . S
C1660 C1659 1.410 . S
C1660 C1661 1.392 . S
C1660 C1663 1.511 . S
C1661 C1657 1.376 . S
C1661 C1660 1.392 . S
C1661 H1673 0.929 . S
C1662 C1658 1.531 . S
C1662 H1674 0.960 . S
C1662 H1675 0.962 . S
C1662 H1676 0.960 . S
C1663 C1660 1.511 . S
C1663 H1677 0.961 . S
C1663 H1678 0.961 . S
C1663 H1679 0.961 . S
C1664 C1665 1.370 . S
C1664 C1666 1.363 . S
C1664 H1680 0.931 . S
C1665 C1664 1.370 . S
C1665 C1669 1.408 . S
C1666 C1664 1.363 . S
C1666 C1667 1.370 . S
C1666 C1670 1.524 . S
C1667 C1659 1.503 . S
C1667 C1666 1.370 . S
C1667 C1668 1.403 . S
C1668 C1667 1.403 . S
C1668 C1669 1.404 . S
C1668 C1671 1.539 . S
C1669 C1665 1.408 . S
C1669 C1668 1.404 . S
C1669 H1681 0.930 . S
C1670 C1666 1.524 . S
C1670 H1682 0.956 . S
C1670 H1683 0.961 . S
C1670 H1684 0.961 . S
C1671 C1668 1.539 . S
C1671 H1685 0.958 . S
C1671 H1686 0.961 . S
C1671 H1687 0.960 . S
H1672 C1656 0.931 . S
H1673 C1661 0.929 . S
H1674 C1662 0.960 . S
H1675 C1662 0.962 . S
H1676 C1662 0.960 . S
H1677 C1663 0.961 . S
H1678 C1663 0.961 . S
H1679 C1663 0.961 . S
H1680 C1664 0.931 . S
H1681 C1669 0.930 . S
H1682 C1670 0.956 . S
H1683 C1670 0.961 . S
H1684 C1670 0.961 . S
H1685 C1671 0.958 . S
H1686 C1671 0.961 . S
H1687 C1671 0.960 . S
C1688 C1689 1.391 . S
C1688 C1690 1.394 . S
C1688 H1704 0.931 . S
C1689 C1688 1.391 . S
C1689 C1693 1.376 . S
C1690 C1688 1.394 . S
C1690 C1691 1.369 . S
C1690 C1694 1.531 . S
C1691 C1690 1.369 . S
C1691 C1692 1.410 . S
C1691 C1699 1.503 1_565 S
C1692 C1691 1.410 . S
C1692 C1693 1.392 . S
C1692 C1695 1.511 . S
C1693 C1689 1.376 . S
C1693 C1692 1.392 . S
C1693 H1705 0.929 . S
C1694 C1690 1.531 . S
C1694 H1706 0.960 1_565 S
C1694 H1707 0.962 . S
C1694 H1708 0.960 . S
C1695 C1692 1.511 . S
C1695 H1709 0.961 . S
C1695 H1710 0.961 1_565 S
C1695 H1711 0.961 1_565 S
C1696 C1697 1.370 . S
C1696 C1698 1.363 . S
C1696 H1712 0.931 . S
C1697 C1696 1.370 . S
C1697 C1701 1.408 . S
C1698 C1696 1.363 . S
C1698 C1699 1.370 . S
C1698 C1702 1.524 1_545 S
C1699 C1691 1.503 1_545 S
C1699 C1698 1.370 . S
C1699 C1700 1.403 . S
C1700 C1699 1.403 . S
C1700 C1701 1.404 . S
C1700 C1703 1.539 . S
C1701 C1697 1.408 . S
C1701 C1700 1.404 . S
C1701 H1713 0.930 . S
C1702 C1698 1.524 1_565 S
C1702 H1714 0.956 . S
C1702 H1715 0.961 . S
C1702 H1716 0.961 . S
C1703 C1700 1.539 . S
C1703 H1717 0.958 . S
C1703 H1718 0.961 . S
C1703 H1719 0.960 . S
H1704 C1688 0.931 . S
H1705 C1693 0.929 . S
H1706 C1694 0.960 1_545 S
H1707 C1694 0.962 . S
H1708 C1694 0.960 . S
H1709 C1695 0.961 . S
H1710 C1695 0.961 1_545 S
H1711 C1695 0.961 1_545 S
H1712 C1696 0.931 . S
H1713 C1701 0.930 . S
H1714 C1702 0.956 . S
H1715 C1702 0.961 . S
H1716 C1702 0.961 . S
H1717 C1703 0.958 . S
H1718 C1703 0.961 . S
H1719 C1703 0.960 . S
C1720 C1721 1.391 . S
C1720 C1722 1.394 . S
C1720 H1736 0.931 . S
C1721 C1720 1.391 . S
C1721 C1725 1.376 . S
C1722 C1720 1.394 . S
C1722 C1723 1.369 . S
C1722 C1726 1.531 1_655 S
C1723 C1722 1.369 . S
C1723 C1724 1.410 . S
C1723 C1731 1.503 1_655 S
C1724 C1723 1.410 . S
C1724 C1725 1.392 . S
C1724 C1727 1.511 . S
C1725 C1721 1.376 . S
C1725 C1724 1.392 . S
C1725 H1737 0.929 . S
C1726 C1722 1.531 1_455 S
C1726 H1738 0.960 . S
C1726 H1739 0.962 . S
C1726 H1740 0.960 . S
C1727 C1724 1.511 . S
C1727 H1741 0.961 . S
C1727 H1742 0.961 . S
C1727 H1743 0.961 . S
C1728 C1729 1.370 . S
C1728 C1730 1.363 . S
C1728 H1744 0.931 . S
C1729 C1728 1.370 . S
C1729 C1733 1.408 . S
C1730 C1728 1.363 . S
C1730 C1731 1.370 . S
C1730 C1734 1.524 1_455 S
C1731 C1723 1.503 1_455 S
C1731 C1730 1.370 . S
C1731 C1732 1.403 . S
C1732 C1731 1.403 . S
C1732 C1733 1.404 . S
C1732 C1735 1.539 . S
C1733 C1729 1.408 . S
C1733 C1732 1.404 . S
C1733 H1745 0.930 . S
C1734 C1730 1.524 1_655 S
C1734 H1746 0.956 . S
C1734 H1747 0.961 . S
C1734 H1748 0.961 . S
C1735 C1732 1.539 . S
C1735 H1749 0.958 . S
C1735 H1750 0.961 . S
C1735 H1751 0.960 . S
H1736 C1720 0.931 . S
H1737 C1725 0.929 . S
H1738 C1726 0.960 . S
H1739 C1726 0.962 . S
H1740 C1726 0.960 . S
H1741 C1727 0.961 . S
H1742 C1727 0.961 . S
H1743 C1727 0.961 . S
H1744 C1728 0.931 . S
H1745 C1733 0.930 . S
H1746 C1734 0.956 . S
H1747 C1734 0.961 . S
H1748 C1734 0.961 . S
H1749 C1735 0.958 . S
H1750 C1735 0.961 . S
H1751 C1735 0.960 . S
C1752 C1753 1.391 . S
C1752 C1754 1.394 . S
C1752 H1768 0.931 . S
C1753 C1752 1.391 . S
C1753 C1757 1.376 . S
C1754 C1752 1.394 . S
C1754 C1755 1.369 . S
C1754 C1758 1.531 . S
C1755 C1754 1.369 . S
C1755 C1756 1.410 . S
C1755 C1763 1.503 . S
C1756 C1755 1.410 . S
C1756 C1757 1.392 . S
C1756 C1759 1.511 . S
C1757 C1753 1.376 . S
C1757 C1756 1.392 . S
C1757 H1769 0.929 . S
C1758 C1754 1.531 . S
C1758 H1770 0.960 . S
C1758 H1771 0.962 . S
C1758 H1772 0.960 . S
C1759 C1756 1.511 . S
C1759 H1773 0.961 . S
C1759 H1774 0.961 . S
C1759 H1775 0.961 . S
C1760 C1761 1.370 . S
C1760 C1762 1.363 . S
C1760 H1776 0.931 . S
C1761 C1760 1.370 . S
C1761 C1765 1.408 . S
C1762 C1760 1.363 . S
C1762 C1763 1.370 . S
C1762 C1766 1.524 . S
C1763 C1755 1.503 . S
C1763 C1762 1.370 . S
C1763 C1764 1.403 . S
C1764 C1763 1.403 . S
C1764 C1765 1.404 . S
C1764 C1767 1.539 . S
C1765 C1761 1.408 . S
C1765 C1764 1.404 . S
C1765 H1777 0.930 . S
C1766 C1762 1.524 . S
C1766 H1778 0.956 . S
C1766 H1779 0.961 . S
C1766 H1780 0.961 . S
C1767 C1764 1.539 . S
C1767 H1781 0.958 . S
C1767 H1782 0.961 . S
C1767 H1783 0.960 . S
H1768 C1752 0.931 . S
H1769 C1757 0.929 . S
H1770 C1758 0.960 . S
H1771 C1758 0.962 . S
H1772 C1758 0.960 . S
H1773 C1759 0.961 . S
H1774 C1759 0.961 . S
H1775 C1759 0.961 . S
H1776 C1760 0.931 . S
H1777 C1765 0.930 . S
H1778 C1766 0.956 . S
H1779 C1766 0.961 . S
H1780 C1766 0.961 . S
H1781 C1767 0.958 . S
H1782 C1767 0.961 . S
H1783 C1767 0.960 . S
C1784 C1785 1.391 . S
C1784 C1786 1.394 . S
C1784 H1800 0.931 . S
C1785 C1784 1.391 . S
C1785 C1789 1.376 . S
C1786 C1784 1.394 . S
C1786 C1787 1.369 . S
C1786 C1790 1.531 1_545 S
C1787 C1786 1.369 . S
C1787 C1788 1.410 . S
C1787 C1795 1.503 1_545 S
C1788 C1787 1.410 . S
C1788 C1789 1.392 . S
C1788 C1791 1.511 . S
C1789 C1785 1.376 . S
C1789 C1788 1.392 . S
C1789 H1801 0.929 . S
C1790 C1786 1.531 1_565 S
C1790 H1802 0.960 . S
C1790 H1803 0.962 . S
C1790 H1804 0.960 . S
C1791 C1788 1.511 . S
C1791 H1805 0.961 . S
C1791 H1806 0.961 . S
C1791 H1807 0.961 . S
C1792 C1793 1.370 . S
C1792 C1794 1.363 . S
C1792 H1808 0.931 . S
C1793 C1792 1.370 . S
C1793 C1797 1.408 . S
C1794 C1792 1.363 . S
C1794 C1795 1.370 . S
C1794 C1798 1.524 . S
C1795 C1787 1.503 1_565 S
C1795 C1794 1.370 . S
C1795 C1796 1.403 . S
C1796 C1795 1.403 . S
C1796 C1797 1.404 . S
C1796 C1799 1.539 1_565 S
C1797 C1793 1.408 . S
C1797 C1796 1.404 . S
C1797 H1809 0.930 . S
C1798 C1794 1.524 . S
C1798 H1810 0.956 . S
C1798 H1811 0.961 . S
C1798 H1812 0.961 . S
C1799 C1796 1.539 1_545 S
C1799 H1813 0.958 . S
C1799 H1814 0.961 . S
C1799 H1815 0.960 . S
H1800 C1784 0.931 . S
H1801 C1789 0.929 . S
H1802 C1790 0.960 . S
H1803 C1790 0.962 . S
H1804 C1790 0.960 . S
H1805 C1791 0.961 . S
H1806 C1791 0.961 . S
H1807 C1791 0.961 . S
H1808 C1792 0.931 . S
H1809 C1797 0.930 . S
H1810 C1798 0.956 . S
H1811 C1798 0.961 . S
H1812 C1798 0.961 . S
H1813 C1799 0.958 . S
H1814 C1799 0.961 . S
H1815 C1799 0.960 . S
C1816 C1817 1.391 . S
C1816 C1818 1.394 . S
C1816 H1832 0.931 . S
C1817 C1816 1.391 . S
C1817 C1821 1.376 . S
C1818 C1816 1.394 . S
C1818 C1819 1.369 . S
C1818 C1822 1.531 1_655 S
C1819 C1818 1.369 . S
C1819 C1820 1.410 . S
C1819 C1827 1.503 1_655 S
C1820 C1819 1.410 . S
C1820 C1821 1.392 . S
C1820 C1823 1.511 . S
C1821 C1817 1.376 . S
C1821 C1820 1.392 . S
C1821 H1833 0.929 . S
C1822 C1818 1.531 1_455 S
C1822 H1834 0.960 . S
C1822 H1835 0.962 . S
C1822 H1836 0.960 . S
C1823 C1820 1.511 . S
C1823 H1837 0.961 . S
C1823 H1838 0.961 . S
C1823 H1839 0.961 . S
C1824 C1825 1.370 . S
C1824 C1826 1.363 . S
C1824 H1840 0.931 . S
C1825 C1824 1.370 . S
C1825 C1829 1.408 . S
C1826 C1824 1.363 . S
C1826 C1827 1.370 . S
C1826 C1830 1.524 1_455 S
C1827 C1819 1.503 1_455 S
C1827 C1826 1.370 . S
C1827 C1828 1.403 . S
C1828 C1827 1.403 . S
C1828 C1829 1.404 . S
C1828 C1831 1.539 . S
C1829 C1825 1.408 . S
C1829 C1828 1.404 . S
C1829 H1841 0.930 . S
C1830 C1826 1.524 1_655 S
C1830 H1842 0.956 . S
C1830 H1843 0.961 . S
C1830 H1844 0.961 . S
C1831 C1828 1.539 . S
C1831 H1845 0.958 . S
C1831 H1846 0.961 . S
C1831 H1847 0.960 . S
H1832 C1816 0.931 . S
H1833 C1821 0.929 . S
H1834 C1822 0.960 . S
H1835 C1822 0.962 . S
H1836 C1822 0.960 . S
H1837 C1823 0.961 . S
H1838 C1823 0.961 . S
H1839 C1823 0.961 . S
H1840 C1824 0.931 . S
H1841 C1829 0.930 . S
H1842 C1830 0.956 . S
H1843 C1830 0.961 . S
H1844 C1830 0.961 . S
H1845 C1831 0.958 . S
H1846 C1831 0.961 . S
H1847 C1831 0.960 . S
C1848 C1849 1.391 . S
C1848 C1850 1.394 . S
C1848 H1864 0.931 . S
C1849 C1848 1.391 . S
C1849 C1853 1.376 . S
C1850 C1848 1.394 . S
C1850 C1851 1.369 . S
C1850 C1854 1.531 . S
C1851 C1850 1.369 . S
C1851 C1852 1.410 . S
C1851 C1859 1.503 . S
C1852 C1851 1.410 . S
C1852 C1853 1.392 . S
C1852 C1855 1.511 . S
C1853 C1849 1.376 . S
C1853 C1852 1.392 . S
C1853 H1865 0.929 . S
C1854 C1850 1.531 . S
C1854 H1866 0.960 . S
C1854 H1867 0.962 . S
C1854 H1868 0.960 . S
C1855 C1852 1.511 . S
C1855 H1869 0.961 . S
C1855 H1870 0.961 . S
C1855 H1871 0.961 . S
C1856 C1857 1.370 . S
C1856 C1858 1.363 . S
C1856 H1872 0.931 . S
C1857 C1856 1.370 . S
C1857 C1861 1.408 . S
C1858 C1856 1.363 . S
C1858 C1859 1.370 . S
C1858 C1862 1.524 . S
C1859 C1851 1.503 . S
C1859 C1858 1.370 . S
C1859 C1860 1.403 . S
C1860 C1859 1.403 . S
C1860 C1861 1.404 . S
C1860 C1863 1.539 . S
C1861 C1857 1.408 . S
C1861 C1860 1.404 . S
C1861 H1873 0.930 . S
C1862 C1858 1.524 . S
C1862 H1874 0.956 . S
C1862 H1875 0.961 . S
C1862 H1876 0.961 . S
C1863 C1860 1.539 . S
C1863 H1877 0.958 . S
C1863 H1878 0.961 . S
C1863 H1879 0.960 . S
H1864 C1848 0.931 . S
H1865 C1853 0.929 . S
H1866 C1854 0.960 . S
H1867 C1854 0.962 . S
H1868 C1854 0.960 . S
H1869 C1855 0.961 . S
H1870 C1855 0.961 . S
H1871 C1855 0.961 . S
H1872 C1856 0.931 . S
H1873 C1861 0.930 . S
H1874 C1862 0.956 . S
H1875 C1862 0.961 . S
H1876 C1862 0.961 . S
H1877 C1863 0.958 . S
H1878 C1863 0.961 . S
H1879 C1863 0.960 . S
C1880 C1881 1.391 . S
C1880 C1882 1.394 . S
C1880 H1896 0.931 . S
C1881 C1880 1.391 . S
C1881 C1885 1.376 . S
C1882 C1880 1.394 . S
C1882 C1883 1.369 . S
C1882 C1886 1.531 . S
C1883 C1882 1.369 . S
C1883 C1884 1.410 . S
C1883 C1891 1.503 . S
C1884 C1883 1.410 . S
C1884 C1885 1.392 . S
C1884 C1887 1.511 . S
C1885 C1881 1.376 . S
C1885 C1884 1.392 . S
C1885 H1897 0.929 . S
C1886 C1882 1.531 . S
C1886 H1898 0.960 . S
C1886 H1899 0.962 . S
C1886 H1900 0.960 . S
C1887 C1884 1.511 . S
C1887 H1901 0.961 . S
C1887 H1902 0.961 . S
C1887 H1903 0.961 . S
C1888 C1889 1.370 . S
C1888 C1890 1.363 . S
C1888 H1904 0.931 . S
C1889 C1888 1.370 . S
C1889 C1893 1.408 . S
C1890 C1888 1.363 . S
C1890 C1891 1.370 . S
C1890 C1894 1.524 . S
C1891 C1883 1.503 . S
C1891 C1890 1.370 . S
C1891 C1892 1.403 . S
C1892 C1891 1.403 . S
C1892 C1893 1.404 . S
C1892 C1895 1.539 . S
C1893 C1889 1.408 . S
C1893 C1892 1.404 . S
C1893 H1905 0.930 . S
C1894 C1890 1.524 . S
C1894 H1906 0.956 . S
C1894 H1907 0.961 . S
C1894 H1908 0.961 . S
C1895 C1892 1.539 . S
C1895 H1909 0.958 . S
C1895 H1910 0.961 . S
C1895 H1911 0.960 . S
H1896 C1880 0.931 . S
H1897 C1885 0.929 . S
H1898 C1886 0.960 . S
H1899 C1886 0.962 . S
H1900 C1886 0.960 . S
H1901 C1887 0.961 . S
H1902 C1887 0.961 . S
H1903 C1887 0.961 . S
H1904 C1888 0.931 . S
H1905 C1893 0.930 . S
H1906 C1894 0.956 . S
H1907 C1894 0.961 . S
H1908 C1894 0.961 . S
H1909 C1895 0.958 . S
H1910 C1895 0.961 . S
H1911 C1895 0.960 . S
C1912 C1913 1.391 . S
C1912 C1914 1.394 . S
C1912 H1928 0.931 . S
C1913 C1912 1.391 . S
C1913 C1917 1.376 . S
C1914 C1912 1.394 . S
C1914 C1915 1.369 . S
C1914 C1918 1.531 . S
C1915 C1914 1.369 . S
C1915 C1916 1.410 . S
C1915 C1923 1.503 . S
C1916 C1915 1.410 . S
C1916 C1917 1.392 . S
C1916 C1919 1.511 . S
C1917 C1913 1.376 . S
C1917 C1916 1.392 . S
C1917 H1929 0.929 . S
C1918 C1914 1.531 . S
C1918 H1930 0.960 . S
C1918 H1931 0.962 . S
C1918 H1932 0.960 . S
C1919 C1916 1.511 . S
C1919 H1933 0.961 . S
C1919 H1934 0.961 . S
C1919 H1935 0.961 . S
C1920 C1921 1.370 . S
C1920 C1922 1.363 . S
C1920 H1936 0.931 . S
C1921 C1920 1.370 . S
C1921 C1925 1.408 . S
C1922 C1920 1.363 . S
C1922 C1923 1.370 . S
C1922 C1926 1.524 . S
C1923 C1915 1.503 . S
C1923 C1922 1.370 . S
C1923 C1924 1.403 . S
C1924 C1923 1.403 . S
C1924 C1925 1.404 . S
C1924 C1927 1.539 . S
C1925 C1921 1.408 . S
C1925 C1924 1.404 . S
C1925 H1937 0.930 . S
C1926 C1922 1.524 . S
C1926 H1938 0.956 . S
C1926 H1939 0.961 . S
C1926 H1940 0.961 . S
C1927 C1924 1.539 . S
C1927 H1941 0.958 . S
C1927 H1942 0.961 . S
C1927 H1943 0.960 . S
H1928 C1912 0.931 . S
H1929 C1917 0.929 . S
H1930 C1918 0.960 . S
H1931 C1918 0.962 . S
H1932 C1918 0.960 . S
H1933 C1919 0.961 . S
H1934 C1919 0.961 . S
H1935 C1919 0.961 . S
H1936 C1920 0.931 . S
H1937 C1925 0.930 . S
H1938 C1926 0.956 . S
H1939 C1926 0.961 . S
H1940 C1926 0.961 . S
H1941 C1927 0.958 . S
H1942 C1927 0.961 . S
H1943 C1927 0.960 . S
C1944 C1945 1.391 . S
C1944 C1946 1.394 . S
C1944 H1960 0.921 1_554 S
C1945 C1944 1.391 . S
C1945 C1949 1.376 . S
C1946 C1944 1.394 . S
C1946 C1947 1.369 . S
C1946 C1950 1.531 . S
C1947 C1946 1.369 . S
C1947 C1948 1.410 . S
C1947 C1955 1.503 . S
C1948 C1947 1.410 . S
C1948 C1949 1.392 . S
C1948 C1951 1.511 . S
C1949 C1945 1.376 . S
C1949 C1948 1.392 . S
C1949 H1961 0.929 . S
C1950 C1946 1.531 . S
C1950 H1962 0.960 . S
C1950 H1963 0.962 . S
C1950 H1964 0.960 . S
C1951 C1948 1.511 . S
C1951 H1965 0.961 . S
C1951 H1966 0.961 . S
C1951 H1967 0.961 . S
C1952 C1953 1.370 . S
C1952 C1954 1.363 . S
C1952 H1968 0.931 . S
C1953 C1952 1.370 . S
C1953 C1957 1.408 . S
C1954 C1952 1.363 . S
C1954 C1955 1.370 . S
C1954 C1958 1.524 . S
C1955 C1947 1.503 . S
C1955 C1954 1.370 . S
C1955 C1956 1.403 . S
C1956 C1955 1.403 . S
C1956 C1957 1.404 . S
C1956 C1959 1.539 . S
C1957 C1953 1.408 . S
C1957 C1956 1.404 . S
C1957 H1969 0.930 . S
C1958 C1954 1.524 . S
C1958 H1970 0.956 . S
C1958 H1971 0.961 . S
C1958 H1972 0.961 . S
C1959 C1956 1.539 . S
C1959 H1973 0.958 . S
C1959 H1974 0.961 . S
C1959 H1975 0.960 . S
H1960 C1944 0.921 1_556 S
H1961 C1949 0.929 . S
H1962 C1950 0.960 . S
H1963 C1950 0.962 . S
H1964 C1950 0.960 . S
H1965 C1951 0.961 . S
H1966 C1951 0.961 . S
H1967 C1951 0.961 . S
H1968 C1952 0.931 . S
H1969 C1957 0.930 . S
H1970 C1958 0.956 . S
H1971 C1958 0.961 . S
H1972 C1958 0.961 . S
H1973 C1959 0.958 . S
H1974 C1959 0.961 . S
H1975 C1959 0.960 . S
C1976 C1977 1.391 . S
C1976 C1978 1.394 . S
C1976 H1992 0.931 . S
C1977 C1976 1.391 . S
C1977 C1981 1.376 . S
C1978 C1976 1.394 . S
C1978 C1979 1.369 . S
C1978 C1982 1.531 . S
C1979 C1978 1.369 . S
C1979 C1980 1.410 . S
C1979 C1987 1.503 . S
C1980 C1979 1.410 . S
C1980 C1981 1.392 . S
C1980 C1983 1.511 . S
C1981 C1977 1.376 . S
C1981 C1980 1.392 . S
C1981 H1993 0.929 . S
C1982 C1978 1.531 . S
C1982 H1994 0.960 . S
C1982 H1995 0.962 . S
C1982 H1996 0.960 . S
C1983 C1980 1.511 . S
C1983 H1997 0.961 . S
C1983 H1998 0.961 . S
C1983 H1999 0.961 . S
C1984 C1985 1.370 . S
C1984 C1986 1.363 . S
C1984 H2000 0.931 . S
C1985 C1984 1.370 . S
C1985 C1989 1.408 . S
C1986 C1984 1.363 . S
C1986 C1987 1.370 . S
C1986 C1990 1.524 . S
C1987 C1979 1.503 . S
C1987 C1986 1.370 . S
C1987 C1988 1.403 . S
C1988 C1987 1.403 . S
C1988 C1989 1.404 . S
C1988 C1991 1.539 . S
C1989 C1985 1.408 . S
C1989 C1988 1.404 . S
C1989 H2001 0.930 . S
C1990 C1986 1.524 . S
C1990 H2002 0.956 . S
C1990 H2003 0.961 . S
C1990 H2004 0.961 . S
C1991 C1988 1.539 . S
C1991 H2005 0.958 . S
C1991 H2006 0.961 . S
C1991 H2007 0.960 . S
H1992 C1976 0.931 . S
H1993 C1981 0.929 . S
H1994 C1982 0.960 . S
H1995 C1982 0.962 . S
H1996 C1982 0.960 . S
H1997 C1983 0.961 . S
H1998 C1983 0.961 . S
H1999 C1983 0.961 . S
H2000 C1984 0.931 . S
H2001 C1989 0.930 . S
H2002 C1990 0.956 . S
H2003 C1990 0.961 . S
H2004 C1990 0.961 . S
H2005 C1991 0.958 . S
H2006 C1991 0.961 . S
H2007 C1991 0.960 . S
C2008 C2009 1.391 . S
C2008 C2010 1.394 . S
C2008 H2024 0.931 . S
C2009 C2008 1.391 . S
C2009 C2013 1.376 . S
C2010 C2008 1.394 . S
C2010 C2011 1.369 . S
C2010 C2014 1.531 . S
C2011 C2010 1.369 . S
C2011 C2012 1.410 . S
C2011 C2019 1.503 . S
C2012 C2011 1.410 . S
C2012 C2013 1.392 . S
C2012 C2015 1.511 . S
C2013 C2009 1.376 . S
C2013 C2012 1.392 . S
C2013 H2025 0.929 . S
C2014 C2010 1.531 . S
C2014 H2026 0.960 . S
C2014 H2027 0.962 . S
C2014 H2028 0.960 . S
C2015 C2012 1.511 . S
C2015 H2029 0.961 . S
C2015 H2030 0.961 . S
C2015 H2031 0.961 . S
C2016 C2017 1.370 . S
C2016 C2018 1.363 . S
C2016 H2032 0.931 . S
C2017 C2016 1.370 . S
C2017 C2021 1.408 . S
C2018 C2016 1.363 . S
C2018 C2019 1.370 . S
C2018 C2022 1.524 . S
C2019 C2011 1.503 . S
C2019 C2018 1.370 . S
C2019 C2020 1.403 . S
C2020 C2019 1.403 . S
C2020 C2021 1.404 . S
C2020 C2023 1.539 . S
C2021 C2017 1.408 . S
C2021 C2020 1.404 . S
C2021 H2033 0.930 . S
C2022 C2018 1.524 . S
C2022 H2034 0.956 . S
C2022 H2035 0.961 . S
C2022 H2036 0.961 . S
C2023 C2020 1.539 . S
C2023 H2037 0.958 . S
C2023 H2038 0.961 . S
C2023 H2039 0.960 . S
H2024 C2008 0.931 . S
H2025 C2013 0.929 . S
H2026 C2014 0.960 . S
H2027 C2014 0.962 . S
H2028 C2014 0.960 . S
H2029 C2015 0.961 . S
H2030 C2015 0.961 . S
H2031 C2015 0.961 . S
H2032 C2016 0.931 . S
H2033 C2021 0.930 . S
H2034 C2022 0.956 . S
H2035 C2022 0.961 . S
H2036 C2022 0.961 . S
H2037 C2023 0.958 . S
H2038 C2023 0.961 . S
H2039 C2023 0.960 . S
C2040 C2041 1.391 . S
C2040 C2042 1.394 . S
C2040 H2056 0.931 1_556 S
C2041 C2040 1.391 . S
C2041 C2045 1.376 . S
C2042 C2040 1.394 . S
C2042 C2043 1.369 . S
C2042 C2046 1.531 . S
C2043 C2042 1.369 . S
C2043 C2044 1.410 . S
C2043 C2051 1.503 . S
C2044 C2043 1.410 . S
C2044 C2045 1.392 . S
C2044 C2047 1.511 . S
C2045 C2041 1.376 . S
C2045 C2044 1.392 . S
C2045 H2057 0.929 . S
C2046 C2042 1.531 . S
C2046 H2058 0.960 . S
C2046 H2059 0.962 . S
C2046 H2060 0.960 . S
C2047 C2044 1.511 . S
C2047 H2061 0.961 . S
C2047 H2062 0.961 . S
C2047 H2063 0.961 . S
C2048 C2049 1.370 . S
C2048 C2050 1.363 . S
C2048 H2064 0.931 . S
C2049 C2048 1.370 . S
C2049 C2053 1.408 . S
C2050 C2048 1.363 . S
C2050 C2051 1.370 . S
C2050 C2054 1.524 . S
C2051 C2043 1.503 . S
C2051 C2050 1.370 . S
C2051 C2052 1.403 . S
C2052 C2051 1.403 . S
C2052 C2053 1.404 . S
C2052 C2055 1.539 . S
C2053 C2049 1.408 . S
C2053 C2052 1.404 . S
C2053 H2065 0.930 . S
C2054 C2050 1.524 . S
C2054 H2066 0.956 . S
C2054 H2067 0.961 . S
C2054 H2068 0.961 . S
C2055 C2052 1.539 . S
C2055 H2069 0.958 . S
C2055 H2070 0.961 . S
C2055 H2071 0.960 . S
H2056 C2040 0.931 1_554 S
H2057 C2045 0.929 . S
H2058 C2046 0.960 . S
H2059 C2046 0.962 . S
H2060 C2046 0.960 . S
H2061 C2047 0.961 . S
H2062 C2047 0.961 . S
H2063 C2047 0.961 . S
H2064 C2048 0.931 . S
H2065 C2053 0.930 . S
H2066 C2054 0.956 . S
H2067 C2054 0.961 . S
H2068 C2054 0.961 . S
H2069 C2055 0.958 . S
H2070 C2055 0.961 . S
H2071 C2055 0.960 . S
C2072 C2073 1.391 . S
C2072 C2074 1.394 . S
C2072 H2088 0.931 . S
C2073 C2072 1.391 . S
C2073 C2077 1.376 . S
C2074 C2072 1.394 . S
C2074 C2075 1.369 . S
C2074 C2078 1.531 . S
C2075 C2074 1.369 . S
C2075 C2076 1.410 . S
C2075 C2083 1.503 . S
C2076 C2075 1.410 . S
C2076 C2077 1.392 . S
C2076 C2079 1.511 . S
C2077 C2073 1.376 . S
C2077 C2076 1.392 . S
C2077 H2089 0.929 . S
C2078 C2074 1.531 . S
C2078 H2090 0.960 . S
C2078 H2091 0.962 . S
C2078 H2092 0.960 . S
C2079 C2076 1.511 . S
C2079 H2093 0.961 . S
C2079 H2094 0.961 . S
C2079 H2095 0.961 . S
C2080 C2081 1.370 . S
C2080 C2082 1.363 . S
C2080 H2096 0.931 . S
C2081 C2080 1.370 . S
C2081 C2085 1.408 . S
C2082 C2080 1.363 . S
C2082 C2083 1.370 . S
C2082 C2086 1.524 . S
C2083 C2075 1.503 . S
C2083 C2082 1.370 . S
C2083 C2084 1.403 . S
C2084 C2083 1.403 . S
C2084 C2085 1.404 . S
C2084 C2087 1.539 . S
C2085 C2081 1.408 . S
C2085 C2084 1.404 . S
C2085 H2097 0.930 1_556 S
C2086 C2082 1.524 . S
C2086 H2098 0.956 . S
C2086 H2099 0.961 . S
C2086 H2100 0.961 . S
C2087 C2084 1.539 . S
C2087 H2101 0.958 . S
C2087 H2102 0.961 . S
C2087 H2103 0.960 . S
H2088 C2072 0.931 . S
H2089 C2077 0.929 . S
H2090 C2078 0.960 . S
H2091 C2078 0.962 . S
H2092 C2078 0.960 . S
H2093 C2079 0.961 . S
H2094 C2079 0.961 . S
H2095 C2079 0.961 . S
H2096 C2080 0.931 . S
H2097 C2085 0.930 1_554 S
H2098 C2086 0.956 . S
H2099 C2086 0.961 . S
H2100 C2086 0.961 . S
H2101 C2087 0.958 . S
H2102 C2087 0.961 . S
H2103 C2087 0.960 . S
C2104 C2105 1.391 . S
C2104 C2106 1.394 . S
C2104 H2120 0.931 . S
C2105 C2104 1.391 . S
C2105 C2109 1.376 . S
C2106 C2104 1.394 . S
C2106 C2107 1.369 . S
C2106 C2110 1.531 . S
C2107 C2106 1.369 . S
C2107 C2108 1.410 . S
C2107 C2115 1.503 . S
C2108 C2107 1.410 . S
C2108 C2109 1.392 . S
C2108 C2111 1.511 . S
C2109 C2105 1.376 . S
C2109 C2108 1.392 . S
C2109 H2121 0.929 1_556 S
C2110 C2106 1.531 . S
C2110 H2122 0.960 . S
C2110 H2123 0.962 . S
C2110 H2124 0.960 . S
C2111 C2108 1.511 . S
C2111 H2125 0.961 . S
C2111 H2126 0.961 . S
C2111 H2127 0.961 . S
C2112 C2113 1.370 . S
C2112 C2114 1.363 . S
C2112 H2128 0.931 . S
C2113 C2112 1.370 . S
C2113 C2117 1.408 . S
C2114 C2112 1.363 . S
C2114 C2115 1.370 . S
C2114 C2118 1.524 . S
C2115 C2107 1.503 . S
C2115 C2114 1.370 . S
C2115 C2116 1.403 . S
C2116 C2115 1.403 . S
C2116 C2117 1.404 . S
C2116 C2119 1.539 . S
C2117 C2113 1.408 . S
C2117 C2116 1.404 . S
C2117 H2129 0.930 . S
C2118 C2114 1.524 . S
C2118 H2130 0.956 . S
C2118 H2131 0.961 . S
C2118 H2132 0.961 . S
C2119 C2116 1.539 . S
C2119 H2133 0.958 . S
C2119 H2134 0.961 . S
C2119 H2135 0.960 . S
H2120 C2104 0.931 . S
H2121 C2109 0.929 1_554 S
H2122 C2110 0.960 . S
H2123 C2110 0.962 . S
H2124 C2110 0.960 . S
H2125 C2111 0.961 . S
H2126 C2111 0.961 . S
H2127 C2111 0.961 . S
H2128 C2112 0.931 . S
H2129 C2117 0.930 . S
H2130 C2118 0.956 . S
H2131 C2118 0.961 . S
H2132 C2118 0.961 . S
H2133 C2119 0.958 . S
H2134 C2119 0.961 . S
H2135 C2119 0.960 . S
C2136 C2137 1.391 . S
C2136 C2138 1.394 . S
C2136 H2152 0.931 . S
C2137 C2136 1.391 . S
C2137 C2141 1.376 . S
C2138 C2136 1.394 . S
C2138 C2139 1.369 . S
C2138 C2142 1.531 . S
C2139 C2138 1.369 . S
C2139 C2140 1.410 . S
C2139 C2147 1.503 . S
C2140 C2139 1.410 . S
C2140 C2141 1.392 . S
C2140 C2143 1.511 . S
C2141 C2137 1.376 . S
C2141 C2140 1.392 . S
C2141 H2153 0.929 . S
C2142 C2138 1.531 . S
C2142 H2154 0.960 . S
C2142 H2155 0.962 . S
C2142 H2156 0.960 . S
C2143 C2140 1.511 . S
C2143 H2157 0.961 . S
C2143 H2158 0.961 . S
C2143 H2159 0.961 . S
C2144 C2145 1.370 . S
C2144 C2146 1.363 . S
C2144 H2160 0.931 . S
C2145 C2144 1.370 . S
C2145 C2149 1.408 . S
C2146 C2144 1.363 . S
C2146 C2147 1.370 . S
C2146 C2150 1.524 . S
C2147 C2139 1.503 . S
C2147 C2146 1.370 . S
C2147 C2148 1.403 . S
C2148 C2147 1.403 . S
C2148 C2149 1.404 . S
C2148 C2151 1.539 . S
C2149 C2145 1.408 . S
C2149 C2148 1.404 . S
C2149 H2161 0.930 . S
C2150 C2146 1.524 . S
C2150 H2162 0.956 . S
C2150 H2163 0.961 . S
C2150 H2164 0.961 . S
C2151 C2148 1.539 . S
C2151 H2165 0.958 . S
C2151 H2166 0.961 . S
C2151 H2167 0.960 . S
H2152 C2136 0.931 . S
H2153 C2141 0.929 . S
H2154 C2142 0.960 . S
H2155 C2142 0.962 . S
H2156 C2142 0.960 . S
H2157 C2143 0.961 . S
H2158 C2143 0.961 . S
H2159 C2143 0.961 . S
H2160 C2144 0.931 . S
H2161 C2149 0.930 . S
H2162 C2150 0.956 . S
H2163 C2150 0.961 . S
H2164 C2150 0.961 . S
H2165 C2151 0.958 . S
H2166 C2151 0.961 . S
H2167 C2151 0.960 . S
C2168 C2169 1.391 . S
C2168 C2170 1.394 . S
C2168 H2184 0.931 . S
C2169 C2168 1.391 . S
C2169 C2173 1.376 . S
C2170 C2168 1.394 . S
C2170 C2171 1.369 . S
C2170 C2174 1.531 . S
C2171 C2170 1.369 . S
C2171 C2172 1.410 . S
C2171 C2179 1.503 . S
C2172 C2171 1.410 . S
C2172 C2173 1.392 . S
C2172 C2175 1.511 . S
C2173 C2169 1.376 . S
C2173 C2172 1.392 . S
C2173 H2185 0.929 . S
C2174 C2170 1.531 . S
C2174 H2186 0.960 . S
C2174 H2187 0.962 . S
C2174 H2188 0.960 . S
C2175 C2172 1.511 . S
C2175 H2189 0.961 . S
C2175 H2190 0.961 . S
C2175 H2191 0.961 . S
C2176 C2177 1.370 . S
C2176 C2178 1.363 . S
C2176 H2192 0.931 . S
C2177 C2176 1.370 . S
C2177 C2181 1.408 . S
C2178 C2176 1.363 . S
C2178 C2179 1.370 . S
C2178 C2182 1.524 . S
C2179 C2171 1.503 . S
C2179 C2178 1.370 . S
C2179 C2180 1.403 . S
C2180 C2179 1.403 . S
C2180 C2181 1.404 . S
C2180 C2183 1.539 . S
C2181 C2177 1.408 . S
C2181 C2180 1.404 . S
C2181 H2193 0.930 . S
C2182 C2178 1.524 . S
C2182 H2194 0.956 . S
C2182 H2195 0.961 . S
C2182 H2196 0.961 . S
C2183 C2180 1.539 . S
C2183 H2197 0.958 . S
C2183 H2198 0.961 . S
C2183 H2199 0.960 . S
H2184 C2168 0.931 . S
H2185 C2173 0.929 . S
H2186 C2174 0.960 . S
H2187 C2174 0.962 . S
H2188 C2174 0.960 . S
H2189 C2175 0.961 . S
H2190 C2175 0.961 . S
H2191 C2175 0.961 . S
H2192 C2176 0.931 . S
H2193 C2181 0.930 . S
H2194 C2182 0.956 . S
H2195 C2182 0.961 . S
H2196 C2182 0.961 . S
H2197 C2183 0.958 . S
H2198 C2183 0.961 . S
H2199 C2183 0.960 . S
C2200 C2201 1.391 . S
C2200 C2202 1.394 . S
C2200 H2216 0.931 . S
C2201 C2200 1.391 . S
C2201 C2205 1.376 . S
C2202 C2200 1.394 . S
C2202 C2203 1.369 . S
C2202 C2206 1.531 . S
C2203 C2202 1.369 . S
C2203 C2204 1.410 . S
C2203 C2211 1.503 . S
C2204 C2203 1.410 . S
C2204 C2205 1.392 . S
C2204 C2207 1.511 . S
C2205 C2201 1.376 . S
C2205 C2204 1.392 . S
C2205 H2217 0.929 . S
C2206 C2202 1.531 . S
C2206 H2218 0.960 . S
C2206 H2219 0.962 . S
C2206 H2220 0.960 . S
C2207 C2204 1.511 . S
C2207 H2221 0.961 . S
C2207 H2222 0.961 . S
C2207 H2223 0.961 . S
C2208 C2209 1.370 . S
C2208 C2210 1.363 . S
C2208 H2224 0.931 . S
C2209 C2208 1.370 . S
C2209 C2213 1.408 . S
C2210 C2208 1.363 . S
C2210 C2211 1.370 . S
C2210 C2214 1.524 . S
C2211 C2203 1.503 . S
C2211 C2210 1.370 . S
C2211 C2212 1.403 . S
C2212 C2211 1.403 . S
C2212 C2213 1.404 . S
C2212 C2215 1.539 . S
C2213 C2209 1.408 . S
C2213 C2212 1.404 . S
C2213 H2225 0.930 . S
C2214 C2210 1.524 . S
C2214 H2226 0.956 . S
C2214 H2227 0.961 . S
C2214 H2228 0.961 . S
C2215 C2212 1.539 . S
C2215 H2229 0.958 . S
C2215 H2230 0.961 . S
C2215 H2231 0.960 . S
H2216 C2200 0.931 . S
H2217 C2205 0.929 . S
H2218 C2206 0.960 . S
H2219 C2206 0.962 . S
H2220 C2206 0.960 . S
H2221 C2207 0.961 . S
H2222 C2207 0.961 . S
H2223 C2207 0.961 . S
H2224 C2208 0.931 . S
H2225 C2213 0.930 . S
H2226 C2214 0.956 . S
H2227 C2214 0.961 . S
H2228 C2214 0.961 . S
H2229 C2215 0.958 . S
H2230 C2215 0.961 . S
H2231 C2215 0.960 . S
C2232 C2233 1.391 . S
C2232 C2234 1.394 . S
C2232 H2248 0.931 . S
C2233 C2232 1.391 . S
C2233 C2237 1.376 . S
C2234 C2232 1.394 . S
C2234 C2235 1.369 . S
C2234 C2238 1.531 . S
C2235 C2234 1.369 . S
C2235 C2236 1.410 . S
C2235 C2243 1.503 . S
C2236 C2235 1.410 . S
C2236 C2237 1.392 . S
C2236 C2239 1.511 . S
C2237 C2233 1.376 . S
C2237 C2236 1.392 . S
C2237 H2249 0.929 . S
C2238 C2234 1.531 . S
C2238 H2250 0.960 . S
C2238 H2251 0.962 . S
C2238 H2252 0.960 . S
C2239 C2236 1.511 . S
C2239 H2253 0.961 . S
C2239 H2254 0.961 . S
C2239 H2255 0.961 . S
C2240 C2241 1.370 . S
C2240 C2242 1.363 . S
C2240 H2256 0.931 . S
C2241 C2240 1.370 . S
C2241 C2245 1.408 . S
C2242 C2240 1.363 . S
C2242 C2243 1.370 . S
C2242 C2246 1.524 . S
C2243 C2235 1.503 . S
C2243 C2242 1.370 . S
C2243 C2244 1.403 . S
C2244 C2243 1.403 . S
C2244 C2245 1.404 . S
C2244 C2247 1.539 . S
C2245 C2241 1.408 . S
C2245 C2244 1.404 . S
C2245 H2257 0.930 . S
C2246 C2242 1.524 . S
C2246 H2258 0.956 . S
C2246 H2259 0.961 . S
C2246 H2260 0.961 . S
C2247 C2244 1.539 . S
C2247 H2261 0.958 . S
C2247 H2262 0.961 . S
C2247 H2263 0.960 . S
H2248 C2232 0.931 . S
H2249 C2237 0.929 . S
H2250 C2238 0.960 . S
H2251 C2238 0.962 . S
H2252 C2238 0.960 . S
H2253 C2239 0.961 . S
H2254 C2239 0.961 . S
H2255 C2239 0.961 . S
H2256 C2240 0.931 . S
H2257 C2245 0.930 . S
H2258 C2246 0.956 . S
H2259 C2246 0.961 . S
H2260 C2246 0.961 . S
H2261 C2247 0.958 . S
H2262 C2247 0.961 . S
H2263 C2247 0.960 . S
C2264 C2265 1.391 . S
C2264 C2266 1.394 . S
C2264 H2280 0.931 . S
C2265 C2264 1.391 . S
C2265 C2269 1.376 . S
C2266 C2264 1.394 . S
C2266 C2267 1.369 . S
C2266 C2270 1.531 . S
C2267 C2266 1.369 . S
C2267 C2268 1.410 . S
C2267 C2275 1.503 . S
C2268 C2267 1.410 . S
C2268 C2269 1.392 . S
C2268 C2271 1.511 . S
C2269 C2265 1.376 . S
C2269 C2268 1.392 . S
C2269 H2281 0.929 . S
C2270 C2266 1.531 . S
C2270 H2282 0.960 . S
C2270 H2283 0.962 . S
C2270 H2284 0.960 . S
C2271 C2268 1.511 . S
C2271 H2285 0.961 . S
C2271 H2286 0.961 . S
C2271 H2287 0.961 . S
C2272 C2273 1.370 . S
C2272 C2274 1.363 . S
C2272 H2288 0.931 . S
C2273 C2272 1.370 . S
C2273 C2277 1.408 . S
C2274 C2272 1.363 . S
C2274 C2275 1.370 . S
C2274 C2278 1.524 . S
C2275 C2267 1.503 . S
C2275 C2274 1.370 . S
C2275 C2276 1.403 . S
C2276 C2275 1.403 . S
C2276 C2277 1.404 . S
C2276 C2279 1.539 . S
C2277 C2273 1.408 . S
C2277 C2276 1.404 . S
C2277 H2289 0.930 . S
C2278 C2274 1.524 . S
C2278 H2290 0.956 . S
C2278 H2291 0.961 . S
C2278 H2292 0.961 . S
C2279 C2276 1.539 . S
C2279 H2293 0.958 . S
C2279 H2294 0.961 . S
C2279 H2295 0.960 . S
H2280 C2264 0.931 . S
H2281 C2269 0.929 . S
H2282 C2270 0.960 . S
H2283 C2270 0.962 . S
H2284 C2270 0.960 . S
H2285 C2271 0.961 . S
H2286 C2271 0.961 . S
H2287 C2271 0.961 . S
H2288 C2272 0.931 . S
H2289 C2277 0.930 . S
H2290 C2278 0.956 . S
H2291 C2278 0.961 . S
H2292 C2278 0.961 . S
H2293 C2279 0.958 . S
H2294 C2279 0.961 . S
H2295 C2279 0.960 . S
C2296 C2297 1.391 . S
C2296 C2298 1.394 . S
C2296 H2312 0.931 . S
C2297 C2296 1.391 . S
C2297 C2301 1.376 . S
C2298 C2296 1.394 . S
C2298 C2299 1.369 . S
C2298 C2302 1.531 . S
C2299 C2298 1.369 . S
C2299 C2300 1.410 . S
C2299 C2307 1.503 . S
C2300 C2299 1.410 . S
C2300 C2301 1.392 . S
C2300 C2303 1.511 . S
C2301 C2297 1.376 . S
C2301 C2300 1.392 . S
C2301 H2313 0.929 . S
C2302 C2298 1.531 . S
C2302 H2314 0.960 . S
C2302 H2315 0.962 . S
C2302 H2316 0.960 . S
C2303 C2300 1.511 . S
C2303 H2317 0.961 . S
C2303 H2318 0.961 . S
C2303 H2319 0.961 . S
C2304 C2305 1.370 . S
C2304 C2306 1.363 . S
C2304 H2320 0.931 . S
C2305 C2304 1.370 . S
C2305 C2309 1.408 . S
C2306 C2304 1.363 . S
C2306 C2307 1.370 . S
C2306 C2310 1.524 . S
C2307 C2299 1.503 . S
C2307 C2306 1.370 . S
C2307 C2308 1.403 . S
C2308 C2307 1.403 . S
C2308 C2309 1.404 . S
C2308 C2311 1.539 . S
C2309 C2305 1.408 . S
C2309 C2308 1.404 . S
C2309 H2321 0.930 . S
C2310 C2306 1.524 . S
C2310 H2322 0.956 . S
C2310 H2323 0.961 . S
C2310 H2324 0.961 . S
C2311 C2308 1.539 . S
C2311 H2325 0.958 . S
C2311 H2326 0.961 . S
C2311 H2327 0.960 . S
H2312 C2296 0.931 . S
H2313 C2301 0.929 . S
H2314 C2302 0.960 . S
H2315 C2302 0.962 . S
H2316 C2302 0.960 . S
H2317 C2303 0.961 . S
H2318 C2303 0.961 . S
H2319 C2303 0.961 . S
H2320 C2304 0.931 . S
H2321 C2309 0.930 . S
H2322 C2310 0.956 . S
H2323 C2310 0.961 . S
H2324 C2310 0.961 . S
H2325 C2311 0.958 . S
H2326 C2311 0.961 . S
H2327 C2311 0.960 . S
C2328 C2329 1.391 . S
C2328 C2330 1.394 . S
C2328 H2344 0.931 . S
C2329 C2328 1.391 . S
C2329 C2333 1.376 . S
C2330 C2328 1.394 . S
C2330 C2331 1.369 . S
C2330 C2334 1.531 . S
C2331 C2330 1.369 . S
C2331 C2332 1.410 . S
C2331 C2339 1.503 . S
C2332 C2331 1.410 . S
C2332 C2333 1.392 . S
C2332 C2335 1.511 . S
C2333 C2329 1.376 . S
C2333 C2332 1.392 . S
C2333 H2345 0.929 . S
C2334 C2330 1.531 . S
C2334 H2346 0.960 . S
C2334 H2347 0.962 . S
C2334 H2348 0.960 . S
C2335 C2332 1.511 . S
C2335 H2349 0.961 . S
C2335 H2350 0.961 . S
C2335 H2351 0.961 . S
C2336 C2337 1.370 . S
C2336 C2338 1.363 . S
C2336 H2352 0.931 . S
C2337 C2336 1.370 . S
C2337 C2341 1.408 . S
C2338 C2336 1.363 . S
C2338 C2339 1.370 . S
C2338 C2342 1.524 . S
C2339 C2331 1.503 . S
C2339 C2338 1.370 . S
C2339 C2340 1.403 . S
C2340 C2339 1.403 . S
C2340 C2341 1.404 . S
C2340 C2343 1.539 . S
C2341 C2337 1.408 . S
C2341 C2340 1.404 . S
C2341 H2353 0.930 . S
C2342 C2338 1.524 . S
C2342 H2354 0.956 . S
C2342 H2355 0.961 . S
C2342 H2356 0.961 . S
C2343 C2340 1.539 . S
C2343 H2357 0.958 . S
C2343 H2358 0.961 . S
C2343 H2359 0.960 . S
H2344 C2328 0.931 . S
H2345 C2333 0.929 . S
H2346 C2334 0.960 . S
H2347 C2334 0.962 . S
H2348 C2334 0.960 . S
H2349 C2335 0.961 . S
H2350 C2335 0.961 . S
H2351 C2335 0.961 . S
H2352 C2336 0.931 . S
H2353 C2341 0.930 . S
H2354 C2342 0.956 . S
H2355 C2342 0.961 . S
H2356 C2342 0.961 . S
H2357 C2343 0.958 . S
H2358 C2343 0.961 . S
H2359 C2343 0.960 . S
C2360 C2361 1.391 . S
C2360 C2362 1.394 . S
C2360 H2376 0.931 . S
C2361 C2360 1.391 . S
C2361 C2365 1.376 . S
C2362 C2360 1.394 . S
C2362 C2363 1.369 . S
C2362 C2366 1.531 . S
C2363 C2362 1.369 . S
C2363 C2364 1.410 . S
C2363 C2371 1.503 . S
C2364 C2363 1.410 . S
C2364 C2365 1.392 . S
C2364 C2367 1.511 . S
C2365 C2361 1.376 . S
C2365 C2364 1.392 . S
C2365 H2377 0.929 . S
C2366 C2362 1.531 . S
C2366 H2378 0.960 . S
C2366 H2379 0.962 . S
C2366 H2380 0.960 . S
C2367 C2364 1.511 . S
C2367 H2381 0.961 . S
C2367 H2382 0.961 . S
C2367 H2383 0.961 . S
C2368 C2369 1.370 . S
C2368 C2370 1.363 . S
C2368 H2384 0.931 . S
C2369 C2368 1.370 . S
C2369 C2373 1.408 . S
C2370 C2368 1.363 . S
C2370 C2371 1.370 . S
C2370 C2374 1.524 . S
C2371 C2363 1.503 . S
C2371 C2370 1.370 . S
C2371 C2372 1.403 . S
C2372 C2371 1.403 . S
C2372 C2373 1.404 . S
C2372 C2375 1.539 . S
C2373 C2369 1.408 . S
C2373 C2372 1.404 . S
C2373 H2385 0.930 . S
C2374 C2370 1.524 . S
C2374 H2386 0.956 . S
C2374 H2387 0.961 . S
C2374 H2388 0.961 . S
C2375 C2372 1.539 . S
C2375 H2389 0.958 . S
C2375 H2390 0.961 . S
C2375 H2391 0.960 . S
H2376 C2360 0.931 . S
H2377 C2365 0.929 . S
H2378 C2366 0.960 . S
H2379 C2366 0.962 . S
H2380 C2366 0.960 . S
H2381 C2367 0.961 . S
H2382 C2367 0.961 . S
H2383 C2367 0.961 . S
H2384 C2368 0.931 . S
H2385 C2373 0.930 . S
H2386 C2374 0.956 . S
H2387 C2374 0.961 . S
H2388 C2374 0.961 . S
H2389 C2375 0.958 . S
H2390 C2375 0.961 . S
H2391 C2375 0.960 . S
C2392 C2393 1.391 . S
C2392 C2394 1.394 . S
C2392 H2408 0.931 . S
C2393 C2392 1.391 . S
C2393 C2397 1.376 . S
C2394 C2392 1.394 . S
C2394 C2395 1.369 . S
C2394 C2398 1.531 . S
C2395 C2394 1.369 . S
C2395 C2396 1.410 . S
C2395 C2403 1.503 . S
C2396 C2395 1.410 . S
C2396 C2397 1.392 . S
C2396 C2399 1.511 . S
C2397 C2393 1.376 . S
C2397 C2396 1.392 . S
C2397 H2409 0.929 . S
C2398 C2394 1.531 . S
C2398 H2410 0.960 . S
C2398 H2411 0.962 . S
C2398 H2412 0.960 . S
C2399 C2396 1.511 . S
C2399 H2413 0.961 . S
C2399 H2414 0.961 . S
C2399 H2415 0.961 . S
C2400 C2401 1.370 . S
C2400 C2402 1.363 . S
C2400 H2416 0.931 . S
C2401 C2400 1.370 . S
C2401 C2405 1.408 . S
C2402 C2400 1.363 . S
C2402 C2403 1.370 . S
C2402 C2406 1.524 . S
C2403 C2395 1.503 . S
C2403 C2402 1.370 . S
C2403 C2404 1.403 . S
C2404 C2403 1.403 . S
C2404 C2405 1.404 . S
C2404 C2407 1.539 . S
C2405 C2401 1.408 . S
C2405 C2404 1.404 . S
C2405 H2417 0.930 . S
C2406 C2402 1.524 . S
C2406 H2418 0.956 . S
C2406 H2419 0.961 . S
C2406 H2420 0.961 . S
C2407 C2404 1.539 . S
C2407 H2421 0.958 . S
C2407 H2422 0.961 . S
C2407 H2423 0.960 . S
H2408 C2392 0.931 . S
H2409 C2397 0.929 . S
H2410 C2398 0.960 . S
H2411 C2398 0.962 . S
H2412 C2398 0.960 . S
H2413 C2399 0.961 . S
H2414 C2399 0.961 . S
H2415 C2399 0.961 . S
H2416 C2400 0.931 . S
H2417 C2405 0.930 . S
H2418 C2406 0.956 . S
H2419 C2406 0.961 . S
H2420 C2406 0.961 . S
H2421 C2407 0.958 . S
H2422 C2407 0.961 . S
H2423 C2407 0.960 . S
C2424 C2425 1.391 . S
C2424 C2426 1.394 . S
C2424 H2440 0.931 . S
C2425 C2424 1.391 . S
C2425 C2429 1.376 . S
C2426 C2424 1.394 . S
C2426 C2427 1.369 . S
C2426 C2430 1.531 . S
C2427 C2426 1.369 . S
C2427 C2428 1.410 . S
C2427 C2435 1.503 . S
C2428 C2427 1.410 . S
C2428 C2429 1.392 . S
C2428 C2431 1.511 . S
C2429 C2425 1.376 . S
C2429 C2428 1.392 . S
C2429 H2441 0.929 . S
C2430 C2426 1.531 . S
C2430 H2442 0.960 . S
C2430 H2443 0.962 . S
C2430 H2444 0.960 . S
C2431 C2428 1.511 . S
C2431 H2445 0.961 . S
C2431 H2446 0.961 . S
C2431 H2447 0.961 . S
C2432 C2433 1.370 . S
C2432 C2434 1.363 . S
C2432 H2448 0.931 . S
C2433 C2432 1.370 . S
C2433 C2437 1.408 . S
C2434 C2432 1.363 . S
C2434 C2435 1.370 . S
C2434 C2438 1.524 . S
C2435 C2427 1.503 . S
C2435 C2434 1.370 . S
C2435 C2436 1.403 . S
C2436 C2435 1.403 . S
C2436 C2437 1.404 . S
C2436 C2439 1.539 . S
C2437 C2433 1.408 . S
C2437 C2436 1.404 . S
C2437 H2449 0.930 . S
C2438 C2434 1.524 . S
C2438 H2450 0.956 . S
C2438 H2451 0.961 . S
C2438 H2452 0.961 . S
C2439 C2436 1.539 . S
C2439 H2453 0.958 . S
C2439 H2454 0.961 . S
C2439 H2455 0.960 . S
H2440 C2424 0.931 . S
H2441 C2429 0.929 . S
H2442 C2430 0.960 . S
H2443 C2430 0.962 . S
H2444 C2430 0.960 . S
H2445 C2431 0.961 . S
H2446 C2431 0.961 . S
H2447 C2431 0.961 . S
H2448 C2432 0.931 . S
H2449 C2437 0.930 . S
H2450 C2438 0.956 . S
H2451 C2438 0.961 . S
H2452 C2438 0.961 . S
H2453 C2439 0.958 . S
H2454 C2439 0.961 . S
H2455 C2439 0.960 . S
C2456 C2457 1.391 . S
C2456 C2458 1.394 . S
C2456 H2472 0.931 . S
C2457 C2456 1.391 . S
C2457 C2461 1.376 . S
C2458 C2456 1.394 . S
C2458 C2459 1.369 . S
C2458 C2462 1.531 . S
C2459 C2458 1.369 . S
C2459 C2460 1.410 . S
C2459 C2467 1.503 . S
C2460 C2459 1.410 . S
C2460 C2461 1.392 . S
C2460 C2463 1.511 . S
C2461 C2457 1.376 . S
C2461 C2460 1.392 . S
C2461 H2473 0.929 . S
C2462 C2458 1.531 . S
C2462 H2474 0.960 . S
C2462 H2475 0.962 . S
C2462 H2476 0.960 . S
C2463 C2460 1.511 . S
C2463 H2477 0.961 . S
C2463 H2478 0.961 . S
C2463 H2479 0.961 . S
C2464 C2465 1.370 . S
C2464 C2466 1.363 . S
C2464 H2480 0.931 . S
C2465 C2464 1.370 . S
C2465 C2469 1.408 . S
C2466 C2464 1.363 . S
C2466 C2467 1.370 . S
C2466 C2470 1.524 . S
C2467 C2459 1.503 . S
C2467 C2466 1.370 . S
C2467 C2468 1.403 . S
C2468 C2467 1.403 . S
C2468 C2469 1.404 . S
C2468 C2471 1.539 . S
C2469 C2465 1.408 . S
C2469 C2468 1.404 . S
C2469 H2481 0.930 . S
C2470 C2466 1.524 . S
C2470 H2482 0.956 . S
C2470 H2483 0.961 . S
C2470 H2484 0.961 . S
C2471 C2468 1.539 . S
C2471 H2485 0.958 . S
C2471 H2486 0.961 . S
C2471 H2487 0.960 . S
H2472 C2456 0.931 . S
H2473 C2461 0.929 . S
H2474 C2462 0.960 . S
H2475 C2462 0.962 . S
H2476 C2462 0.960 . S
H2477 C2463 0.961 . S
H2478 C2463 0.961 . S
H2479 C2463 0.961 . S
H2480 C2464 0.931 . S
H2481 C2469 0.930 . S
H2482 C2470 0.956 . S
H2483 C2470 0.961 . S
H2484 C2470 0.961 . S
H2485 C2471 0.958 . S
H2486 C2471 0.961 . S
H2487 C2471 0.960 . S
C2488 C2489 1.391 . S
C2488 C2490 1.394 . S
C2488 H2504 0.931 . S
C2489 C2488 1.391 . S
C2489 C2493 1.376 . S
C2490 C2488 1.394 . S
C2490 C2491 1.369 . S
C2490 C2494 1.531 . S
C2491 C2490 1.369 . S
C2491 C2492 1.410 . S
C2491 C2499 1.503 . S
C2492 C2491 1.410 . S
C2492 C2493 1.392 . S
C2492 C2495 1.511 . S
C2493 C2489 1.376 . S
C2493 C2492 1.392 . S
C2493 H2505 0.929 . S
C2494 C2490 1.531 . S
C2494 H2506 0.960 . S
C2494 H2507 0.962 . S
C2494 H2508 0.960 . S
C2495 C2492 1.511 . S
C2495 H2509 0.961 . S
C2495 H2510 0.961 . S
C2495 H2511 0.961 . S
C2496 C2497 1.370 . S
C2496 C2498 1.363 . S
C2496 H2512 0.931 . S
C2497 C2496 1.370 . S
C2497 C2501 1.408 . S
C2498 C2496 1.363 . S
C2498 C2499 1.370 . S
C2498 C2502 1.524 . S
C2499 C2491 1.503 . S
C2499 C2498 1.370 . S
C2499 C2500 1.403 . S
C2500 C2499 1.403 . S
C2500 C2501 1.404 . S
C2500 C2503 1.539 . S
C2501 C2497 1.408 . S
C2501 C2500 1.404 . S
C2501 H2513 0.930 . S
C2502 C2498 1.524 . S
C2502 H2514 0.956 . S
C2502 H2515 0.961 . S
C2502 H2516 0.961 . S
C2503 C2500 1.539 . S
C2503 H2517 0.958 . S
C2503 H2518 0.961 . S
C2503 H2519 0.960 . S
H2504 C2488 0.931 . S
H2505 C2493 0.929 . S
H2506 C2494 0.960 . S
H2507 C2494 0.962 . S
H2508 C2494 0.960 . S
H2509 C2495 0.961 . S
H2510 C2495 0.961 . S
H2511 C2495 0.961 . S
H2512 C2496 0.931 . S
H2513 C2501 0.930 . S
H2514 C2502 0.956 . S
H2515 C2502 0.961 . S
H2516 C2502 0.961 . S
H2517 C2503 0.958 . S
H2518 C2503 0.961 . S
H2519 C2503 0.960 . S
C2520 C2521 1.391 . S
C2520 C2522 1.394 . S
C2520 H2536 0.931 . S
C2521 C2520 1.391 . S
C2521 C2525 1.376 . S
C2522 C2520 1.394 . S
C2522 C2523 1.369 . S
C2522 C2526 1.531 . S
C2523 C2522 1.369 . S
C2523 C2524 1.410 . S
C2523 C2531 1.503 . S
C2524 C2523 1.410 . S
C2524 C2525 1.392 . S
C2524 C2527 1.511 . S
C2525 C2521 1.376 . S
C2525 C2524 1.392 . S
C2525 H2537 0.929 . S
C2526 C2522 1.531 . S
C2526 H2538 0.960 . S
C2526 H2539 0.962 . S
C2526 H2540 0.960 . S
C2527 C2524 1.511 . S
C2527 H2541 0.961 . S
C2527 H2542 0.961 . S
C2527 H2543 0.961 . S
C2528 C2529 1.370 . S
C2528 C2530 1.363 . S
C2528 H2544 0.931 . S
C2529 C2528 1.370 . S
C2529 C2533 1.408 . S
C2530 C2528 1.363 . S
C2530 C2531 1.370 . S
C2530 C2534 1.524 . S
C2531 C2523 1.503 . S
C2531 C2530 1.370 . S
C2531 C2532 1.403 . S
C2532 C2531 1.403 . S
C2532 C2533 1.404 . S
C2532 C2535 1.539 . S
C2533 C2529 1.408 . S
C2533 C2532 1.404 . S
C2533 H2545 0.930 . S
C2534 C2530 1.524 . S
C2534 H2546 0.956 . S
C2534 H2547 0.961 . S
C2534 H2548 0.961 . S
C2535 C2532 1.539 . S
C2535 H2549 0.958 . S
C2535 H2550 0.961 . S
C2535 H2551 0.960 . S
H2536 C2520 0.931 . S
H2537 C2525 0.929 . S
H2538 C2526 0.960 . S
H2539 C2526 0.962 . S
H2540 C2526 0.960 . S
H2541 C2527 0.961 . S
H2542 C2527 0.961 . S
H2543 C2527 0.961 . S
H2544 C2528 0.931 . S
H2545 C2533 0.930 . S
H2546 C2534 0.956 . S
H2547 C2534 0.961 . S
H2548 C2534 0.961 . S
H2549 C2535 0.958 . S
H2550 C2535 0.961 . S
H2551 C2535 0.960 . S
C2552 C2553 1.391 . S
C2552 C2554 1.394 . S
C2552 H2568 0.931 . S
C2553 C2552 1.391 . S
C2553 C2557 1.376 . S
C2554 C2552 1.394 . S
C2554 C2555 1.369 . S
C2554 C2558 1.531 . S
C2555 C2554 1.369 . S
C2555 C2556 1.410 . S
C2555 C2563 1.503 . S
C2556 C2555 1.410 . S
C2556 C2557 1.392 . S
C2556 C2559 1.511 . S
C2557 C2553 1.376 . S
C2557 C2556 1.392 . S
C2557 H2569 0.929 . S
C2558 C2554 1.531 . S
C2558 H2570 0.960 . S
C2558 H2571 0.962 . S
C2558 H2572 0.960 . S
C2559 C2556 1.511 . S
C2559 H2573 0.961 . S
C2559 H2574 0.961 . S
C2559 H2575 0.961 . S
C2560 C2561 1.370 . S
C2560 C2562 1.363 . S
C2560 H2576 0.931 . S
C2561 C2560 1.370 . S
C2561 C2565 1.408 . S
C2562 C2560 1.363 . S
C2562 C2563 1.370 . S
C2562 C2566 1.524 . S
C2563 C2555 1.503 . S
C2563 C2562 1.370 . S
C2563 C2564 1.403 . S
C2564 C2563 1.403 . S
C2564 C2565 1.404 . S
C2564 C2567 1.539 . S
C2565 C2561 1.408 . S
C2565 C2564 1.404 . S
C2565 H2577 0.930 . S
C2566 C2562 1.524 . S
C2566 H2578 0.956 . S
C2566 H2579 0.961 . S
C2566 H2580 0.961 . S
C2567 C2564 1.539 . S
C2567 H2581 0.958 . S
C2567 H2582 0.961 . S
C2567 H2583 0.960 . S
H2568 C2552 0.931 . S
H2569 C2557 0.929 . S
H2570 C2558 0.960 . S
H2571 C2558 0.962 . S
H2572 C2558 0.960 . S
H2573 C2559 0.961 . S
H2574 C2559 0.961 . S
H2575 C2559 0.961 . S
H2576 C2560 0.931 . S
H2577 C2565 0.930 . S
H2578 C2566 0.956 . S
H2579 C2566 0.961 . S
H2580 C2566 0.961 . S
H2581 C2567 0.958 . S
H2582 C2567 0.961 . S
H2583 C2567 0.960 . S
C2584 C2585 1.391 . S
C2584 C2586 1.394 . S
C2584 H2600 0.931 . S
C2585 C2584 1.391 . S
C2585 C2589 1.376 . S
C2586 C2584 1.394 . S
C2586 C2587 1.369 . S
C2586 C2590 1.531 . S
C2587 C2586 1.369 . S
C2587 C2588 1.410 . S
C2587 C2595 1.503 . S
C2588 C2587 1.410 . S
C2588 C2589 1.392 . S
C2588 C2591 1.511 . S
C2589 C2585 1.376 . S
C2589 C2588 1.392 . S
C2589 H2601 0.929 . S
C2590 C2586 1.531 . S
C2590 H2602 0.960 . S
C2590 H2603 0.962 . S
C2590 H2604 0.960 . S
C2591 C2588 1.511 . S
C2591 H2605 0.961 . S
C2591 H2606 0.961 . S
C2591 H2607 0.961 . S
C2592 C2593 1.370 . S
C2592 C2594 1.363 . S
C2592 H2608 0.931 . S
C2593 C2592 1.370 . S
C2593 C2597 1.408 . S
C2594 C2592 1.363 . S
C2594 C2595 1.370 . S
C2594 C2598 1.524 . S
C2595 C2587 1.503 . S
C2595 C2594 1.370 . S
C2595 C2596 1.403 . S
C2596 C2595 1.403 . S
C2596 C2597 1.404 . S
C2596 C2599 1.539 . S
C2597 C2593 1.408 . S
C2597 C2596 1.404 . S
C2597 H2609 0.930 . S
C2598 C2594 1.524 . S
C2598 H2610 0.956 . S
C2598 H2611 0.961 . S
C2598 H2612 0.961 . S
C2599 C2596 1.539 . S
C2599 H2613 0.958 . S
C2599 H2614 0.961 . S
C2599 H2615 0.960 . S
H2600 C2584 0.931 . S
H2601 C2589 0.929 . S
H2602 C2590 0.960 . S
H2603 C2590 0.962 . S
H2604 C2590 0.960 . S
H2605 C2591 0.961 . S
H2606 C2591 0.961 . S
H2607 C2591 0.961 . S
H2608 C2592 0.931 . S
H2609 C2597 0.930 . S
H2610 C2598 0.956 . S
H2611 C2598 0.961 . S
H2612 C2598 0.961 . S
H2613 C2599 0.958 . S
H2614 C2599 0.961 . S
H2615 C2599 0.960 . S
C2616 C2617 1.391 . S
C2616 C2618 1.394 . S
C2616 H2632 0.931 . S
C2617 C2616 1.391 . S
C2617 C2621 1.376 . S
C2618 C2616 1.394 . S
C2618 C2619 1.369 . S
C2618 C2622 1.531 . S
C2619 C2618 1.369 . S
C2619 C2620 1.410 . S
C2619 C2627 1.503 1_455 S
C2620 C2619 1.410 . S
C2620 C2621 1.392 . S
C2620 C2623 1.511 . S
C2621 C2617 1.376 . S
C2621 C2620 1.392 . S
C2621 H2633 0.929 . S
C2622 C2618 1.531 . S
C2622 H2634 0.960 . S
C2622 H2635 0.962 . S
C2622 H2636 0.960 . S
C2623 C2620 1.511 . S
C2623 H2637 0.961 . S
C2623 H2638 0.961 1_455 S
C2623 H2639 0.961 . S
C2624 C2625 1.370 . S
C2624 C2626 1.363 . S
C2624 H2640 0.931 . S
C2625 C2624 1.370 . S
C2625 C2629 1.408 . S
C2626 C2624 1.363 . S
C2626 C2627 1.370 . S
C2626 C2630 1.524 . S
C2627 C2619 1.503 1_655 S
C2627 C2626 1.370 . S
C2627 C2628 1.403 . S
C2628 C2627 1.403 . S
C2628 C2629 1.404 . S
C2628 C2631 1.539 1_655 S
C2629 C2625 1.408 . S
C2629 C2628 1.404 . S
C2629 H2641 0.930 . S
C2630 C2626 1.524 . S
C2630 H2642 0.956 . S
C2630 H2643 0.961 . S
C2630 H2644 0.961 . S
C2631 C2628 1.539 1_455 S
C2631 H2645 0.958 . S
C2631 H2646 0.961 1_455 S
C2631 H2647 0.960 . S
H2632 C2616 0.931 . S
H2633 C2621 0.929 . S
H2634 C2622 0.960 . S
H2635 C2622 0.962 . S
H2636 C2622 0.960 . S
H2637 C2623 0.961 . S
H2638 C2623 0.961 1_655 S
H2639 C2623 0.961 . S
H2640 C2624 0.931 . S
H2641 C2629 0.930 . S
H2642 C2630 0.956 . S
H2643 C2630 0.961 . S
H2644 C2630 0.961 . S
H2645 C2631 0.958 . S
H2646 C2631 0.961 1_655 S
H2647 C2631 0.960 . S
C2648 C2649 1.391 . S
C2648 C2650 1.394 . S
C2648 H2664 0.931 . S
C2649 C2648 1.391 . S
C2649 C2653 1.376 . S
C2650 C2648 1.394 . S
C2650 C2651 1.369 . S
C2650 C2654 1.531 . S
C2651 C2650 1.369 . S
C2651 C2652 1.410 . S
C2651 C2659 1.503 . S
C2652 C2651 1.410 . S
C2652 C2653 1.392 . S
C2652 C2655 1.511 . S
C2653 C2649 1.376 . S
C2653 C2652 1.392 . S
C2653 H2665 0.929 . S
C2654 C2650 1.531 . S
C2654 H2666 0.960 . S
C2654 H2667 0.962 . S
C2654 H2668 0.960 . S
C2655 C2652 1.511 . S
C2655 H2669 0.961 . S
C2655 H2670 0.961 . S
C2655 H2671 0.961 . S
C2656 C2657 1.370 . S
C2656 C2658 1.363 . S
C2656 H2672 0.931 . S
C2657 C2656 1.370 . S
C2657 C2661 1.408 . S
C2658 C2656 1.363 . S
C2658 C2659 1.370 . S
C2658 C2662 1.524 . S
C2659 C2651 1.503 . S
C2659 C2658 1.370 . S
C2659 C2660 1.403 . S
C2660 C2659 1.403 . S
C2660 C2661 1.404 . S
C2660 C2663 1.539 . S
C2661 C2657 1.408 . S
C2661 C2660 1.404 . S
C2661 H2673 0.930 . S
C2662 C2658 1.524 . S
C2662 H2674 0.956 . S
C2662 H2675 0.961 . S
C2662 H2676 0.961 . S
C2663 C2660 1.539 . S
C2663 H2677 0.958 . S
C2663 H2678 0.961 . S
C2663 H2679 0.960 . S
H2664 C2648 0.931 . S
H2665 C2653 0.929 . S
H2666 C2654 0.960 . S
H2667 C2654 0.962 . S
H2668 C2654 0.960 . S
H2669 C2655 0.961 . S
H2670 C2655 0.961 . S
H2671 C2655 0.961 . S
H2672 C2656 0.931 . S
H2673 C2661 0.930 . S
H2674 C2662 0.956 . S
H2675 C2662 0.961 . S
H2676 C2662 0.961 . S
H2677 C2663 0.958 . S
H2678 C2663 0.961 . S
H2679 C2663 0.960 . S
C2680 C2681 1.391 . S
C2680 C2682 1.394 . S
C2680 H2696 0.931 . S
C2681 C2680 1.391 . S
C2681 C2685 1.376 . S
C2682 C2680 1.394 . S
C2682 C2683 1.369 . S
C2682 C2686 1.531 . S
C2683 C2682 1.369 . S
C2683 C2684 1.410 . S
C2683 C2691 1.503 1_545 S
C2684 C2683 1.410 . S
C2684 C2685 1.392 . S
C2684 C2687 1.511 . S
C2685 C2681 1.376 . S
C2685 C2684 1.392 . S
C2685 H2697 0.929 . S
C2686 C2682 1.531 . S
C2686 H2698 0.960 1_545 S
C2686 H2699 0.962 . S
C2686 H2700 0.960 . S
C2687 C2684 1.511 . S
C2687 H2701 0.961 . S
C2687 H2702 0.961 . S
C2687 H2703 0.961 . S
C2688 C2689 1.370 . S
C2688 C2690 1.363 . S
C2688 H2704 0.931 . S
C2689 C2688 1.370 . S
C2689 C2693 1.408 . S
C2690 C2688 1.363 . S
C2690 C2691 1.370 . S
C2690 C2694 1.524 1_565 S
C2691 C2683 1.503 1_565 S
C2691 C2690 1.370 . S
C2691 C2692 1.403 . S
C2692 C2691 1.403 . S
C2692 C2693 1.404 . S
C2692 C2695 1.539 . S
C2693 C2689 1.408 . S
C2693 C2692 1.404 . S
C2693 H2705 0.930 . S
C2694 C2690 1.524 1_545 S
C2694 H2706 0.956 . S
C2694 H2707 0.961 . S
C2694 H2708 0.961 1_545 S
C2695 C2692 1.539 . S
C2695 H2709 0.958 . S
C2695 H2710 0.961 . S
C2695 H2711 0.960 . S
H2696 C2680 0.931 . S
H2697 C2685 0.929 . S
H2698 C2686 0.960 1_565 S
H2699 C2686 0.962 . S
H2700 C2686 0.960 . S
H2701 C2687 0.961 . S
H2702 C2687 0.961 . S
H2703 C2687 0.961 . S
H2704 C2688 0.931 . S
H2705 C2693 0.930 . S
H2706 C2694 0.956 . S
H2707 C2694 0.961 . S
H2708 C2694 0.961 1_565 S
H2709 C2695 0.958 . S
H2710 C2695 0.961 . S
H2711 C2695 0.960 . S
C2712 C2713 1.391 . S
C2712 C2714 1.394 . S
C2712 H2728 0.931 . S
C2713 C2712 1.391 . S
C2713 C2717 1.376 1_556 S
C2714 C2712 1.394 . S
C2714 C2715 1.369 . S
C2714 C2718 1.518 1_545 S
C2715 C2714 1.369 . S
C2715 C2716 1.410 1_556 S
C2715 C2723 1.503 1_546 S
C2716 C2715 1.410 1_554 S
C2716 C2717 1.392 . S
C2716 C2719 1.511 . S
C2717 C2713 1.376 1_554 S
C2717 C2716 1.392 . S
C2717 H2729 0.929 . S
C2718 C2714 1.518 1_565 S
C2718 H2730 0.978 . S
C2718 H2731 0.962 . S
C2718 H2732 0.955 1_565 S
C2719 C2716 1.511 . S
C2719 H2733 0.961 . S
C2719 H2734 0.961 . S
C2719 H2735 0.961 . S
C2720 C2721 1.370 . S
C2720 C2722 1.363 . S
C2720 H2736 0.931 . S
C2721 C2720 1.370 . S
C2721 C2725 1.408 . S
C2722 C2720 1.363 . S
C2722 C2723 1.370 . S
C2722 C2726 1.524 . S
C2723 C2715 1.503 1_564 S
C2723 C2722 1.370 . S
C2723 C2724 1.403 . S
C2724 C2723 1.403 . S
C2724 C2725 1.404 . S
C2724 C2727 1.539 1_554 S
C2725 C2721 1.408 . S
C2725 C2724 1.404 . S
C2725 H2737 0.930 . S
C2726 C2722 1.524 . S
C2726 H2738 0.956 1_554 S
C2726 H2739 0.961 . S
C2726 H2740 0.961 . S
C2727 C2724 1.539 1_556 S
C2727 H2741 0.958 . S
C2727 H2742 0.961 1_556 S
C2727 H2743 0.960 1_565 S
H2728 C2712 0.931 . S
H2729 C2717 0.929 . S
H2730 C2718 0.978 . S
H2731 C2718 0.962 . S
H2732 C2718 0.955 1_545 S
H2733 C2719 0.961 . S
H2734 C2719 0.961 . S
H2735 C2719 0.961 . S
H2736 C2720 0.931 . S
H2737 C2725 0.930 . S
H2738 C2726 0.956 1_556 S
H2739 C2726 0.961 . S
H2740 C2726 0.961 . S
H2741 C2727 0.958 . S
H2742 C2727 0.961 1_554 S
H2743 C2727 0.960 1_545 S
C2744 C2745 1.391 . S
C2744 C2746 1.394 . S
C2744 H2760 0.931 . S
C2745 C2744 1.391 . S
C2745 C2749 1.376 . S
C2746 C2744 1.394 . S
C2746 C2747 1.369 . S
C2746 C2750 1.531 1_556 S
C2747 C2746 1.369 . S
C2747 C2748 1.410 . S
C2747 C2755 1.507 1_655 S
C2748 C2747 1.410 . S
C2748 C2749 1.392 . S
C2748 C2751 1.511 . S
C2749 C2745 1.376 . S
C2749 C2748 1.392 . S
C2749 H2761 0.929 . S
C2750 C2746 1.531 1_554 S
C2750 H2762 0.960 1_654 S
C2750 H2763 0.962 . S
C2750 H2764 0.960 1_554 S
C2751 C2748 1.511 . S
C2751 H2765 0.961 . S
C2751 H2766 0.961 . S
C2751 H2767 0.961 . S
C2752 C2753 1.370 . S
C2752 C2754 1.363 . S
C2752 H2768 0.931 . S
C2753 C2752 1.370 . S
C2753 C2757 1.408 1_554 S
C2754 C2752 1.363 . S
C2754 C2755 1.359 1_554 S
C2754 C2758 1.524 1_455 S
C2755 C2747 1.507 1_455 S
C2755 C2754 1.359 1_556 S
C2755 C2756 1.410 . S
C2756 C2755 1.410 . S
C2756 C2757 1.404 . S
C2756 C2759 1.539 . S
C2757 C2753 1.408 1_556 S
C2757 C2756 1.404 . S
C2757 H2769 0.930 . S
C2758 C2754 1.524 1_655 S
C2758 H2770 0.956 . S
C2758 H2771 0.961 . S
C2758 H2772 0.961 1_655 S
C2759 C2756 1.539 . S
C2759 H2773 0.958 . S
C2759 H2774 0.961 . S
C2759 H2775 0.960 . S
H2760 C2744 0.931 . S
H2761 C2749 0.929 . S
H2762 C2750 0.960 1_456 S
H2763 C2750 0.962 . S
H2764 C2750 0.960 1_556 S
H2765 C2751 0.961 . S
H2766 C2751 0.961 . S
H2767 C2751 0.961 . S
H2768 C2752 0.931 . S
H2769 C2757 0.930 . S
H2770 C2758 0.956 . S
H2771 C2758 0.961 . S
H2772 C2758 0.961 1_455 S
H2773 C2759 0.958 . S
H2774 C2759 0.961 . S
H2775 C2759 0.960 . S
C2776 C2777 1.391 . S
C2776 C2778 1.394 . S
C2776 H2792 0.931 . S
C2777 C2776 1.391 . S
C2777 C2781 1.376 . S
C2778 C2776 1.394 . S
C2778 C2779 1.369 . S
C2778 C2782 1.531 . S
C2779 C2778 1.369 . S
C2779 C2780 1.410 . S
C2779 C2787 1.511 . S
C2780 C2779 1.410 . S
C2780 C2781 1.392 . S
C2780 C2783 1.511 . S
C2781 C2777 1.376 . S
C2781 C2780 1.392 . S
C2781 H2793 0.929 . S
C2782 C2778 1.531 . S
C2782 H2794 0.960 . S
C2782 H2795 0.962 1_556 S
C2782 H2796 0.960 . S
C2783 C2780 1.511 . S
C2783 H2797 0.961 . S
C2783 H2798 0.961 . S
C2783 H2799 0.961 . S
C2784 C2785 1.370 . S
C2784 C2786 1.363 . S
C2784 H2800 0.931 . S
C2785 C2784 1.370 . S
C2785 C2789 1.408 1_554 S
C2786 C2784 1.363 . S
C2786 C2787 1.348 1_554 S
C2786 C2790 1.524 . S
C2787 C2779 1.511 . S
C2787 C2786 1.348 1_556 S
C2787 C2788 1.418 . S
C2788 C2787 1.418 . S
C2788 C2789 1.404 . S
C2788 C2791 1.539 . S
C2789 C2785 1.408 1_556 S
C2789 C2788 1.404 . S
C2789 H2801 0.930 . S
C2790 C2786 1.524 . S
C2790 H2802 0.956 . S
C2790 H2803 0.961 . S
C2790 H2804 0.961 . S
C2791 C2788 1.539 . S
C2791 H2805 0.958 . S
C2791 H2806 0.961 . S
C2791 H2807 0.960 . S
H2792 C2776 0.931 . S
H2793 C2781 0.929 . S
H2794 C2782 0.960 . S
H2795 C2782 0.962 1_554 S
H2796 C2782 0.960 . S
H2797 C2783 0.961 . S
H2798 C2783 0.961 . S
H2799 C2783 0.961 . S
H2800 C2784 0.931 . S
H2801 C2789 0.930 . S
H2802 C2790 0.956 . S
H2803 C2790 0.961 . S
H2804 C2790 0.961 . S
H2805 C2791 0.958 . S
H2806 C2791 0.961 . S
H2807 C2791 0.960 . S
C505 C7 1.324 . S
C513 C107 1.307 . S
C537 C21 1.320 . S
C545 C121 1.305 . S
C569 C93 1.277 . S
C577 C35 1.303 . S
C601 C163 1.314 . S
C609 C49 1.316 . S
C633 C63 1.292 . S
C641 C135 1.290 . S
C665 C77 1.325 . S
C673 C149 1.308 . S
C697 C23 1.296 . S
C705 C91 1.306 . S
C729 C37 1.312 . S
C737 C105 1.317 . S
C761 C119 1.324 . S
C769 C9 1.304 . S
C793 C133 1.301 . S
C801 C79 1.300 . S
C825 C51 1.323 . S
C833 C147 1.317 . S
C857 C161 1.327 . S
C865 C65 1.308 . S
C889 C275 1.290 . S
C897 C175 1.308 . S
C921 C189 1.299 . S
C929 C289 1.295 . S
C953 C203 1.287 . S
C961 C261 1.288 . S
C985 C331 1.278 . S
C993 C217 1.304 . S
C1017 C231 1.328 . S
C1025 C303 1.310 . S
C1049 C317 1.284 . S
C1057 C245 1.306 . S
C1081 C191 1.302 . S
C1089 C259 1.315 . S
C1113 C273 1.291 . S
C1121 C205 1.294 . S
C1145 C177 1.323 . S
C1153 C287 1.318 . S
C1177 C301 1.326 . S
C1185 C247 1.310 . S
C1209 C315 1.290 . S
C1217 C219 1.287 . S
C1241 C329 1.299 . S
C1249 C233 1.299 . S
C1273 C443 1.286 . S
C1281 C343 1.307 . S
C1305 C457 1.315 . S
C1313 C357 1.315 . S
C1337 C429 1.292 . S
C1345 C371 1.308 . S
C1369 C385 1.328 . S
C1377 C499 1.310 . S
C1401 C399 1.298 . S
C1409 C471 1.293 . S
C1433 C485 1.296 . S
C1441 C413 1.310 . S
C1465 C427 1.301 . S
C1473 C359 1.291 . S
C1497 C373 1.281 . S
C1505 C441 1.308 . S
C1529 C345 1.303 . S
C1537 C455 1.315 . S
C1561 C469 1.287 . S
C1569 C415 1.291 . S
C1593 C483 1.286 . S
C1601 C387 1.290 . S
C1625 C497 1.293 . S
C1633 C401 1.295 . S
C1657 C50 1.732 . S
C1665 C8 1.748 . S
C1689 C64 1.745 . S
C1697 C22 1.757 . S
C1721 C36 1.758 . S
C1729 C78 1.761 . S
C1753 C134 1.735 . S
C1761 C92 1.750 . S
C1785 C148 1.737 . S
C1793 C106 1.748 . S
C1817 C162 1.734 . S
C1825 C120 1.749 . S
C1849 C218 1.742 . S
C1857 C176 1.756 . S
C1881 C232 1.762 . S
C1889 C190 1.762 . S
C1913 C204 1.751 . S
C1921 C246 1.759 . S
C1945 C302 1.735 1_554 S
C1953 C260 1.750 . S
C1977 C316 1.738 1_554 S
C1985 C274 1.751 . S
C2009 C330 1.740 1_554 S
C2017 C288 1.753 . S
C2041 C386 1.767 1_556 S
C2049 C344 1.759 . S
C2073 C358 1.740 . S
C2081 C400 1.747 1_556 S
C2105 C414 1.736 1_556 S
C2113 C372 1.747 . S
C2137 C428 1.732 . S
C2145 C470 1.747 . S
C2169 C442 1.753 . S
C2177 C484 1.754 . S
C2201 C456 1.753 . S
C2209 C498 1.753 . S
C2233 C6 1.477 . S
C2241 C258 1.469 . S
C2265 C272 1.471 . S
C2273 C20 1.471 . S
C2297 C286 1.474 . S
C2305 C34 1.473 . S
C2329 C468 1.476 . S
C2337 C48 1.470 . S
C2361 C482 1.471 . S
C2369 C62 1.473 . S
C2393 C496 1.469 . S
C2401 C76 1.472 . S
C2425 C90 1.486 . S
C2433 C342 1.466 . S
C2457 C356 1.452 . S
C2465 C104 1.481 . S
C2489 C370 1.481 . S
C2497 C118 1.467 . S
C2521 C132 1.468 . S
C2529 C216 1.473 . S
C2553 C146 1.476 . S
C2561 C230 1.469 . S
C2585 C160 1.488 . S
C2593 C244 1.466 . S
C2617 C426 1.484 . S
C2625 C174 1.468 . S
C2649 C440 1.473 . S
C2657 C188 1.471 . S
C2681 C202 1.451 . S
C2689 C454 1.480 . S
C2713 C300 1.484 . S
C2721 C384 1.466 . S
C2745 C314 1.457 . S
C2753 C398 1.478 . S
C2777 C328 1.460 . S
C2785 C412 1.476 . S
