# Generated by pormake.
# Topology wjl, (5)-cn, num edge types: 1
# Building blocks:
#     Node 0, Type 0, BuildingBlock: BEQFEK_clean_sbu_0, # of connection points: 5
#     Node 1, Type 0, BuildingBlock: BEQFEK_clean_sbu_0, # of connection points: 5
#     Node 2, Type 0, BuildingBlock: BEQFEK_clean_sbu_0, # of connection points: 5
#     Node 3, Type 0, BuildingBlock: BEQFEK_clean_sbu_0, # of connection points: 5
#     Node 4, Type 0, BuildingBlock: BEQFEK_clean_sbu_0, # of connection points: 5
#     Node 5, Type 0, BuildingBlock: BEQFEK_clean_sbu_0, # of connection points: 5
#     Node 6, Type 0, BuildingBlock: BEQFEK_clean_sbu_0, # of connection points: 5
#     Node 7, Type 0, BuildingBlock: BEQFEK_clean_sbu_0, # of connection points: 5
#     Node 8, Type 0, BuildingBlock: BEQFEK_clean_sbu_0, # of connection points: 5
#     Node 9, Type 0, BuildingBlock: BEQFEK_clean_sbu_0, # of connection points: 5
#     Node 10, Type 0, BuildingBlock: BEQFEK_clean_sbu_0, # of connection points: 5
#     Node 11, Type 0, BuildingBlock: BEQFEK_clean_sbu_0, # of connection points: 5
#     Edge 12, Type (0, 0), BuildingBlock: EZIPEK_clean_linker_0, # of connection points: 2
#     Edge 13, Type (0, 0), BuildingBlock: EZIPEK_clean_linker_0, # of connection points: 2
#     Edge 14, Type (0, 0), BuildingBlock: EZIPEK_clean_linker_0, # of connection points: 2
#     Edge 15, Type (0, 0), BuildingBlock: EZIPEK_clean_linker_0, # of connection points: 2
#     Edge 16, Type (0, 0), BuildingBlock: EZIPEK_clean_linker_0, # of connection points: 2
#     Edge 17, Type (0, 0), BuildingBlock: EZIPEK_clean_linker_0, # of connection points: 2
#     Edge 18, Type (0, 0), BuildingBlock: EZIPEK_clean_linker_0, # of connection points: 2
#     Edge 19, Type (0, 0), BuildingBlock: EZIPEK_clean_linker_0, # of connection points: 2
#     Edge 20, Type (0, 0), BuildingBlock: EZIPEK_clean_linker_0, # of connection points: 2
#     Edge 21, Type (0, 0), BuildingBlock: EZIPEK_clean_linker_0, # of connection points: 2
#     Edge 22, Type (0, 0), BuildingBlock: EZIPEK_clean_linker_0, # of connection points: 2
#     Edge 23, Type (0, 0), BuildingBlock: EZIPEK_clean_linker_0, # of connection points: 2
#     Edge 24, Type (0, 0), BuildingBlock: EZIPEK_clean_linker_0, # of connection points: 2
#     Edge 25, Type (0, 0), BuildingBlock: EZIPEK_clean_linker_0, # of connection points: 2
#     Edge 26, Type (0, 0), BuildingBlock: EZIPEK_clean_linker_0, # of connection points: 2
#     Edge 27, Type (0, 0), BuildingBlock: EZIPEK_clean_linker_0, # of connection points: 2
#     Edge 28, Type (0, 0), BuildingBlock: EZIPEK_clean_linker_0, # of connection points: 2
#     Edge 29, Type (0, 0), BuildingBlock: EZIPEK_clean_linker_0, # of connection points: 2
#     Edge 30, Type (0, 0), BuildingBlock: EZIPEK_clean_linker_0, # of connection points: 2
#     Edge 31, Type (0, 0), BuildingBlock: EZIPEK_clean_linker_0, # of connection points: 2
#     Edge 32, Type (0, 0), BuildingBlock: EZIPEK_clean_linker_0, # of connection points: 2
#     Edge 33, Type (0, 0), BuildingBlock: EZIPEK_clean_linker_0, # of connection points: 2
#     Edge 34, Type (0, 0), BuildingBlock: EZIPEK_clean_linker_0, # of connection points: 2
#     Edge 35, Type (0, 0), BuildingBlock: EZIPEK_clean_linker_0, # of connection points: 2
#     Edge 36, Type (0, 0), BuildingBlock: EZIPEK_clean_linker_0, # of connection points: 2
#     Edge 37, Type (0, 0), BuildingBlock: EZIPEK_clean_linker_0, # of connection points: 2
#     Edge 38, Type (0, 0), BuildingBlock: EZIPEK_clean_linker_0, # of connection points: 2
#     Edge 39, Type (0, 0), BuildingBlock: EZIPEK_clean_linker_0, # of connection points: 2
#     Edge 40, Type (0, 0), BuildingBlock: EZIPEK_clean_linker_0, # of connection points: 2
#     Edge 41, Type (0, 0), BuildingBlock: EZIPEK_clean_linker_0, # of connection points: 2
# Relax obj value: 0.512
# Max RMSD: 0.237
# Mean RMSD: 0.237
data_MOF--net-wjl--node1-BEQFEK_clean_sbu_0--edge1-EZIPEK_clean_linker_0
_symmetry_space_group_name_H-M    P1
_symmetry_Int_Tables_number       1
_symmetry_cell_setting            triclinic
loop_
_symmetry_equiv_pos_as_xyz
'x, y, z'
_cell_length_a     20.420648
_cell_length_b     20.441739
_cell_length_c     64.053752
_cell_angle_alpha  89.864234
_cell_angle_beta   90.093955
_cell_angle_gamma 119.98288
loop_
_atom_site_label
_atom_site_type_symbol
_atom_site_fract_x
_atom_site_fract_y
_atom_site_fract_z
_atom_type_partial_charge
Co0 Co 0.45804 0.08505 0.37108 0.0
Co1 Co 0.30794 0.00049 0.34485 0.0
C2 C 0.42847 0.15828 0.33453 0.0
O3 O 0.46894 0.15835 0.34957 0.0
O4 O 0.36489 0.10044 0.33035 0.0
C5 C 0.61587 0.16957 0.37543 0.0
O6 O 0.61326 0.16807 0.35494 0.0
C7 C 0.20293 0.94734 0.30881 0.0
C8 C 0.12632 0.82797 0.31716 0.0
C9 C 0.1446 0.87968 0.30109 0.0
N10 N 0.22029 0.93542 0.32824 0.0
N11 N 0.17259 0.86439 0.33332 0.0
C12 C 0.24477 0.02066 0.29727 0.0
H13 H 0.24652 0.06651 0.30691 0.0
H14 H 0.30384 0.0341 0.29449 0.0
H15 H 0.21745 0.01825 0.28207 0.0
C16 C 0.47229 0.95461 0.35894 0.0
N17 N 0.43297 0.99126 0.35965 0.0
N18 N 0.37195 0.95584 0.34795 0.0
C19 C 0.37237 0.89614 0.33898 0.0
C20 C 0.436 0.89395 0.34561 0.0
C21 C 0.54704 0.98071 0.36921 0.0
H22 H 0.54821 0.00477 0.38478 0.0
H23 H 0.59202 0.02467 0.35929 0.0
H24 H 0.55858 0.93335 0.37095 0.0
O25 O 0.38124 0.07624 0.39052 0.0
O26 O 0.27308 0.01878 0.37275 0.0
H27 H 0.34151 0.81789 0.31325 0.0
H28 H 0.30276 0.8803 0.31256 0.0
C29 C 0.31769 0.84633 0.32278 0.0
H30 H 0.26573 0.80235 0.33057 0.0
H31 H 0.17485 0.83944 0.34732 0.0
O32 O 0.55524 0.13306 0.38583 0.0
C33 C 0.31039 0.05009 0.38935 0.0
Co34 Co 0.3913 0.47123 0.53699 0.0
Co35 Co 0.32199 0.32064 0.51143 0.0
C36 C 0.29408 0.44863 0.50015 0.0
O37 O 0.33539 0.48999 0.51498 0.0
O38 O 0.28519 0.38319 0.49672 0.0
C39 C 0.40011 0.58289 0.5618 0.0
O40 O 0.32819 0.54568 0.55667 0.0
C41 C 0.26705 0.21493 0.47558 0.0
C42 C 0.30896 0.1375 0.48391 0.0
C43 C 0.27564 0.15611 0.46785 0.0
N44 N 0.29696 0.23231 0.49492 0.0
N45 N 0.31967 0.18409 0.50002 0.0
C46 C 0.23475 0.25662 0.46431 0.0
H47 H 0.19304 0.26068 0.4745 0.0
H48 H 0.28055 0.31491 0.46079 0.0
H49 H 0.20687 0.22786 0.44953 0.0
C50 C 0.53293 0.48489 0.52365 0.0
N51 N 0.45775 0.44291 0.52598 0.0
N52 N 0.43129 0.38003 0.51538 0.0
C53 C 0.49028 0.37959 0.50594 0.0
C54 C 0.55894 0.4432 0.51247 0.0
C55 C 0.57116 0.56922 0.52607 0.0
H56 H 0.52949 0.58823 0.5236 0.0
H57 H 0.61658 0.59946 0.51442 0.0
H58 H 0.59355 0.58558 0.54216 0.0
O59 O 0.31778 0.39429 0.55546 0.0
O60 O 0.26313 0.2854 0.53848 0.0
H61 H 0.47212 0.27882 0.49036 0.0
H62 H 0.52456 0.36462 0.47501 0.0
C63 C 0.47836 0.33452 0.48646 0.0
H64 H 0.42584 0.32486 0.4788 0.0
H65 H 0.34669 0.18594 0.51402 0.0
O66 O 0.444 0.56125 0.55468 0.0
C67 C 0.26945 0.32444 0.55465 0.0
Co68 Co 0.92448 0.37624 0.71033 0.0
Co69 Co 0.99996 0.31334 0.67979 0.0
C70 C 0.84168 0.27825 0.67346 0.0
O71 O 0.84748 0.31767 0.68933 0.0
O72 O 0.8964 0.26991 0.6674 0.0
C73 C 0.85017 0.45735 0.71537 0.0
O74 O 0.86446 0.46902 0.69529 0.0
C75 C 0.05544 0.28316 0.64018 0.0
C76 C 0.15812 0.28213 0.65046 0.0
C77 C 0.11659 0.27748 0.63282 0.0
N78 N 0.06151 0.29222 0.66108 0.0
N79 N 0.12244 0.29019 0.66712 0.0
C80 C 0.99323 0.28216 0.62755 0.0
H81 H 0.98952 0.33334 0.63105 0.0
H82 H 0.00188 0.27908 0.61057 0.0
H83 H 0.93867 0.2323 0.63212 0.0
C84 C 0.05573 0.52155 0.69916 0.0
N85 N 0.01653 0.44565 0.69831 0.0
N86 N 0.04545 0.42173 0.68388 0.0
C87 C 0.102 0.48312 0.67438 0.0
C88 C 0.10961 0.54797 0.68363 0.0
C89 C 0.03943 0.56889 0.71363 0.0
H90 H 0.01333 0.5376 0.72825 0.0
H91 H 0.00061 0.58449 0.70586 0.0
H92 H 0.09236 0.62204 0.71737 0.0
O93 O 0.93628 0.30674 0.72829 0.0
O94 O 0.98974 0.25933 0.70752 0.0
H95 H 0.19029 0.53698 0.65135 0.0
H96 H 0.10043 0.46196 0.64213 0.0
C97 C 0.14153 0.48063 0.65518 0.0
H98 H 0.16155 0.43973 0.65727 0.0
H99 H 0.1411 0.2968 0.68255 0.0
O100 O 0.87784 0.42422 0.72588 0.0
C101 C 0.962 0.26245 0.72517 0.0
Co102 Co 0.54142 0.90758 0.86953 0.0
Co103 Co 0.68957 0.98317 0.84264 0.0
C104 C 0.56266 0.8251 0.83455 0.0
O105 O 0.52419 0.82861 0.84956 0.0
O106 O 0.62729 0.8806 0.82971 0.0
C107 C 0.38539 0.8209 0.87891 0.0
O108 O 0.37893 0.80347 0.85901 0.0
C109 C 0.78802 0.05538 0.80546 0.0
C110 C 0.90098 0.09604 0.81933 0.0
C111 C 0.86493 0.09438 0.80083 0.0
N112 N 0.77934 0.03725 0.82589 0.0
N113 N 0.84712 0.06086 0.83394 0.0
C114 C 0.72388 0.0353 0.79071 0.0
H115 H 0.67008 0.01493 0.79937 0.0
H116 H 0.73592 0.08477 0.78083 0.0
H117 H 0.71756 0.98943 0.78022 0.0
C118 C 0.52837 0.03496 0.85398 0.0
N119 N 0.56785 0.99882 0.85591 0.0
N120 N 0.63073 0.03399 0.8449 0.0
C121 C 0.63327 0.0955 0.83601 0.0
C122 C 0.56784 0.09686 0.8412 0.0
C123 C 0.45099 0.007 0.86274 0.0
H124 H 0.45088 0.99504 0.87963 0.0
H125 H 0.41068 0.95378 0.85475 0.0
H126 H 0.43195 0.0488 0.86055 0.0
O127 O 0.61887 0.91799 0.88929 0.0
O128 O 0.72518 0.96995 0.87094 0.0
H129 H 0.7485 0.15124 0.82524 0.0
H130 H 0.70437 0.20905 0.82534 0.0
C131 C 0.69523 0.15159 0.82235 0.0
H132 H 0.67818 0.13817 0.80577 0.0
H133 H 0.85646 0.05306 0.8495 0.0
O134 O 0.44905 0.86957 0.88626 0.0
C135 C 0.68921 0.94194 0.8879 0.0
Co136 Co 0.61477 0.53338 0.03633 0.0
Co137 Co 0.69068 0.68266 0.00974 0.0
C138 C 0.71853 0.55452 0.00131 0.0
O139 O 0.67371 0.51424 0.01564 0.0
O140 O 0.7311 0.62083 0.99747 0.0
C141 C 0.51942 0.37368 0.04399 0.0
O142 O 0.49953 0.37002 0.02434 0.0
C143 C 0.71697 0.77524 0.97151 0.0
C144 C 0.79943 0.88895 0.98296 0.0
C145 C 0.75887 0.8504 0.96545 0.0
N146 N 0.7294 0.77006 0.99195 0.0
N147 N 0.78027 0.83808 0.9985 0.0
C148 C 0.66896 0.70914 0.9578 0.0
H149 H 0.63579 0.65719 0.96724 0.0
H150 H 0.6311 0.72118 0.94811 0.0
H151 H 0.70585 0.69966 0.94702 0.0
C152 C 0.47542 0.53312 0.02373 0.0
N153 N 0.55116 0.56506 0.02373 0.0
N154 N 0.58078 0.62596 0.01178 0.0
C155 C 0.52315 0.63266 0.00352 0.0
C156 C 0.45492 0.57303 0.0105 0.0
C157 C 0.42204 0.46539 0.03617 0.0
H158 H 0.4498 0.46246 0.05066 0.0
H159 H 0.40361 0.41371 0.02674 0.0
H160 H 0.3707 0.46828 0.04024 0.0
O161 O 0.68279 0.60973 0.05609 0.0
O162 O 0.73605 0.71796 0.03843 0.0
H163 H 0.48592 0.70765 0.99219 0.0
H164 H 0.52493 0.6744 0.97285 0.0
C165 C 0.5314 0.69418 0.98922 0.0
H166 H 0.58694 0.7458 0.99142 0.0
H167 H 0.80251 0.8496 0.01359 0.0
O168 O 0.56199 0.43787 0.05218 0.0
C169 C 0.72751 0.68059 0.0552 0.0
Co170 Co 0.06528 0.62319 0.20222 0.0
Co171 Co 0.98583 0.69786 0.17802 0.0
C172 C 0.14172 0.72586 0.16652 0.0
O173 O 0.14035 0.6827 0.18096 0.0
O174 O 0.0859 0.73627 0.16323 0.0
C175 C 0.15539 0.55709 0.21071 0.0
O176 O 0.17263 0.57068 0.19084 0.0
C177 C 0.91356 0.71905 0.14106 0.0
C178 C 0.86279 0.78439 0.15342 0.0
C179 C 0.871 0.75196 0.13534 0.0
N180 N 0.92861 0.7301 0.1616 0.0
N181 N 0.89866 0.76982 0.16887 0.0
C182 C 0.93946 0.67746 0.12726 0.0
H183 H 0.95657 0.64287 0.13669 0.0
H184 H 0.89412 0.64125 0.11608 0.0
H185 H 0.98912 0.71884 0.1181 0.0
C186 C 0.93222 0.48431 0.18867 0.0
N187 N 0.97069 0.55983 0.19043 0.0
N188 N 0.9335 0.58887 0.18107 0.0
C189 C 0.86795 0.53109 0.17364 0.0
C190 C 0.8661 0.4633 0.17786 0.0
C191 C 0.96197 0.43406 0.19556 0.0
H192 H 0.01592 0.4509 0.18736 0.0
H193 H 0.92136 0.37372 0.1923 0.0
H194 H 0.97389 0.44142 0.21256 0.0
O195 O 0.06112 0.69333 0.22204 0.0
O196 O 0.00648 0.74983 0.20587 0.0
H197 H 0.75245 0.48973 0.16469 0.0
H198 H 0.82083 0.542 0.14492 0.0
C199 C 0.80926 0.53948 0.16188 0.0
H200 H 0.80943 0.5916 0.16669 0.0
H201 H 0.90239 0.78675 0.1844 0.0
O202 O 0.10468 0.56842 0.21838 0.0
C203 C 0.03763 0.74028 0.22195 0.0
Co204 Co 0.9382 0.55699 0.43428 0.0
Co205 Co 0.01017 0.69539 0.46469 0.0
C206 C 0.84974 0.57053 0.47038 0.0
O207 O 0.85765 0.53812 0.45453 0.0
O208 O 0.90666 0.63081 0.47728 0.0
C209 C 0.85226 0.40418 0.42411 0.0
O210 O 0.84276 0.39691 0.44442 0.0
C211 C 0.06227 0.79184 0.50292 0.0
C212 C 0.18078 0.87192 0.49451 0.0
C213 C 0.13006 0.8495 0.51094 0.0
N214 N 0.07327 0.7791 0.48292 0.0
N215 N 0.14385 0.82871 0.47791 0.0
C216 C 0.98919 0.74769 0.51436 0.0
H217 H 0.94595 0.75653 0.50649 0.0
H218 H 0.97056 0.68662 0.51374 0.0
H219 H 0.99398 0.766 0.53086 0.0
C220 C 0.06666 0.54116 0.44751 0.0
N221 N 0.02867 0.57923 0.44718 0.0
N222 N 0.05935 0.6358 0.46046 0.0
C223 C 0.1177 0.63399 0.46998 0.0
C224 C 0.12399 0.57412 0.46207 0.0
C225 C 0.04373 0.46981 0.43575 0.0
H226 H 0.02893 0.47559 0.41946 0.0
H227 H 0.99326 0.4229 0.44333 0.0
H228 H 0.08974 0.45583 0.43569 0.0
O229 O 0.94951 0.63836 0.41652 0.0
O230 O 0.9931 0.73757 0.43765 0.0
H231 H 0.20553 0.73822 0.48205 0.0
H232 H 0.18922 0.65696 0.49708 0.0
C233 C 0.16129 0.68248 0.48798 0.0
H234 H 0.12261 0.69059 0.49822 0.0
H235 H 0.1682 0.82996 0.46352 0.0
O236 O 0.89891 0.46783 0.41637 0.0
C237 C 0.96885 0.70677 0.41982 0.0
Co238 Co 0.3792 0.9185 0.61296 0.0
Co239 Co 0.30665 0.00186 0.63564 0.0
C240 C 0.2716 0.84724 0.64843 0.0
O241 O 0.31483 0.84707 0.63432 0.0
O242 O 0.26301 0.90409 0.65134 0.0
C243 C 0.45029 0.83116 0.61219 0.0
O244 O 0.45312 0.84032 0.63253 0.0
C245 C 0.27588 0.07561 0.67059 0.0
C246 C 0.21151 0.12255 0.65516 0.0
C247 C 0.2388 0.11579 0.6744 0.0
N248 N 0.2723 0.06097 0.65005 0.0
N249 N 0.23328 0.08873 0.64094 0.0
C250 C 0.31312 0.05035 0.68626 0.0
H251 H 0.26918 0.00158 0.69517 0.0
H252 H 0.3497 0.03214 0.67838 0.0
H253 H 0.34659 0.09648 0.6975 0.0
C254 C 0.52039 0.05225 0.62569 0.0
N255 N 0.44461 0.01406 0.62421 0.0
N256 N 0.41636 0.05084 0.63415 0.0
C257 C 0.47485 0.11417 0.6424 0.0
C258 C 0.5422 0.11621 0.6375 0.0
C259 C 0.57103 0.0252 0.61734 0.0
H260 H 0.56983 0.98198 0.62807 0.0
H261 H 0.63027 0.0723 0.61612 0.0
H262 H 0.55101 0.99948 0.60175 0.0
O263 O 0.3145 0.92351 0.59138 0.0
O264 O 0.2589 0.98004 0.60692 0.0
H265 H 0.51826 0.22742 0.65357 0.0
H266 H 0.4648 0.15462 0.67222 0.0
C267 C 0.46771 0.17056 0.65555 0.0
H268 H 0.41627 0.17275 0.65128 0.0
H269 H 0.22084 0.08371 0.62505 0.0
O270 O 0.43002 0.86831 0.60058 0.0
C271 C 0.26879 0.94854 0.591 0.0
Co272 Co 0.44548 0.36077 0.77029 0.0
Co273 Co 0.30231 0.29116 0.79921 0.0
C274 C 0.42795 0.25562 0.80473 0.0
O275 O 0.46495 0.29837 0.78966 0.0
O276 O 0.36387 0.24636 0.81019 0.0
C277 C 0.59996 0.43351 0.76144 0.0
O278 O 0.60484 0.42833 0.78176 0.0
C279 C 0.21499 0.24568 0.83867 0.0
C280 C 0.12231 0.26809 0.83142 0.0
C281 C 0.1542 0.24819 0.84758 0.0
N282 N 0.22051 0.26626 0.81844 0.0
N283 N 0.16356 0.2775 0.81412 0.0
C284 C 0.26865 0.22678 0.84939 0.0
H285 H 0.26723 0.17792 0.84145 0.0
H286 H 0.32708 0.27536 0.84813 0.0
H287 H 0.25364 0.21247 0.86608 0.0
C288 C 0.46159 0.50317 0.78531 0.0
N289 N 0.42352 0.42734 0.78433 0.0
N290 N 0.36438 0.40006 0.7968 0.0
C291 C 0.36405 0.45902 0.80627 0.0
C292 C 0.42598 0.5258 0.7994 0.0
C293 C 0.5341 0.55338 0.77422 0.0
H294 H 0.5313 0.53379 0.75796 0.0
H295 H 0.58057 0.55126 0.78255 0.0
H296 H 0.54646 0.6128 0.77402 0.0
O297 O 0.36293 0.29594 0.75179 0.0
O298 O 0.25842 0.24502 0.7711 0.0
H299 H 0.3269 0.50638 0.83055 0.0
H300 H 0.30017 0.40817 0.83366 0.0
C301 C 0.30815 0.45211 0.82232 0.0
H302 H 0.25313 0.43444 0.81462 0.0
H303 H 0.15502 0.29526 0.7996 0.0
O304 O 0.53629 0.41335 0.7531 0.0
C305 C 0.29205 0.25284 0.75369 0.0
Co306 Co 0.07367 0.44597 0.93792 0.0
Co307 Co 0.99969 0.30608 0.96796 0.0
C308 C 0.15304 0.43287 0.97639 0.0
O309 O 0.14901 0.46567 0.95997 0.0
O310 O 0.09811 0.36966 0.98235 0.0
C311 C 0.14854 0.60269 0.93082 0.0
O312 O 0.13997 0.60512 0.95108 0.0
C313 C 0.94403 0.20466 0.00476 0.0
C314 C 0.82334 0.1339 0.99658 0.0
C315 C 0.87428 0.1507 0.01282 0.0
N316 N 0.93368 0.2212 0.98509 0.0
N317 N 0.86185 0.17683 0.98012 0.0
C318 C 0.01892 0.24137 0.01565 0.0
H319 H 0.06222 0.24136 0.0052 0.0
H320 H 0.03659 0.30112 0.01909 0.0
H321 H 0.0162 0.21164 0.03043 0.0
C322 C 0.93904 0.45501 0.94878 0.0
N323 N 0.97925 0.41922 0.9491 0.0
N324 N 0.9512 0.36526 0.96325 0.0
C325 C 0.89469 0.36853 0.97327 0.0
C326 C 0.88511 0.42502 0.96432 0.0
C327 C 0.95664 0.522 0.9355 0.0
H328 H 0.98169 0.51881 0.92047 0.0
H329 H 0.99722 0.57422 0.94385 0.0
H330 H 0.90458 0.5249 0.9325 0.0
O331 O 0.06877 0.3669 0.92035 0.0
O332 O 0.02207 0.26676 0.94133 0.0
H333 H 0.80876 0.27137 0.98897 0.0
H334 H 0.83753 0.35829 0.0025 0.0
C335 C 0.85812 0.32696 0.99296 0.0
H336 H 0.89893 0.31836 0.00222 0.0
H337 H 0.83811 0.17936 0.96591 0.0
O338 O 0.11835 0.53945 0.92155 0.0
C339 C 0.04925 0.29836 0.92375 0.0
Co340 Co 0.6059 0.07773 0.10507 0.0
Co341 Co 0.67788 0.01072 0.1358 0.0
C342 C 0.69872 0.16346 0.14264 0.0
O343 O 0.65948 0.15554 0.12645 0.0
O344 O 0.71125 0.11144 0.14891 0.0
C345 C 0.51045 0.13993 0.09552 0.0
O346 O 0.48628 0.12153 0.1148 0.0
C347 C 0.70875 0.94036 0.1729 0.0
C348 C 0.77122 0.89088 0.15782 0.0
C349 C 0.74352 0.89785 0.17689 0.0
N350 N 0.71363 0.95564 0.15229 0.0
N351 N 0.75203 0.92666 0.14351 0.0
C352 C 0.67083 0.96522 0.18835 0.0
H353 H 0.64126 0.99123 0.1803 0.0
H354 H 0.63053 0.91639 0.19799 0.0
H355 H 0.71375 0.00769 0.19902 0.0
C356 C 0.46587 0.93842 0.11611 0.0
N357 N 0.54152 0.98229 0.11707 0.0
N358 N 0.56866 0.9557 0.13141 0.0
C359 C 0.50925 0.89573 0.14067 0.0
C360 C 0.44245 0.88409 0.1315 0.0
C361 C 0.4154 0.94932 0.10134 0.0
H362 H 0.44708 0.97928 0.08715 0.0
H363 H 0.39218 0.98175 0.1091 0.0
H364 H 0.36672 0.8937 0.09689 0.0
O365 O 0.68029 0.07411 0.08712 0.0
O366 O 0.7347 0.02998 0.10858 0.0
H367 H 0.46364 0.79589 0.15986 0.0
H368 H 0.51775 0.88359 0.17343 0.0
C369 C 0.51457 0.85291 0.15888 0.0
H370 H 0.5655 0.8472 0.15751 0.0
H371 H 0.76468 0.93061 0.12762 0.0
O372 O 0.55502 0.11951 0.08806 0.0
C373 C 0.72923 0.05473 0.09077 0.0
Co374 Co 0.53813 0.62612 0.27163 0.0
Co375 Co 0.68699 0.69113 0.29864 0.0
C376 C 0.56532 0.72853 0.30771 0.0
O377 O 0.52471 0.68726 0.29285 0.0
O378 O 0.62974 0.73599 0.31188 0.0
C379 C 0.38068 0.5562 0.26438 0.0
O380 O 0.37794 0.55945 0.28481 0.0
C381 C 0.78898 0.74127 0.33557 0.0
C382 C 0.87025 0.70453 0.32704 0.0
C383 C 0.8496 0.73527 0.34324 0.0
N384 N 0.7731 0.71305 0.31603 0.0
N385 N 0.82326 0.69297 0.3109 0.0
C386 C 0.74513 0.77074 0.34695 0.0
H387 H 0.68588 0.7245 0.34901 0.0
H388 H 0.77036 0.794 0.36244 0.0
H389 H 0.74409 0.81574 0.33748 0.0
C390 C 0.52213 0.48145 0.28475 0.0
N391 N 0.56191 0.5573 0.28386 0.0
N392 N 0.62181 0.5827 0.29603 0.0
C393 C 0.6202 0.5227 0.30553 0.0
C394 C 0.55703 0.45688 0.29866 0.0
C395 C 0.44846 0.43344 0.27389 0.0
H396 H 0.45054 0.45505 0.25788 0.0
H397 H 0.40297 0.4357 0.28272 0.0
H398 H 0.43494 0.37372 0.2731 0.0
O399 O 0.61723 0.69378 0.25259 0.0
O400 O 0.72501 0.74113 0.27038 0.0
H401 H 0.65025 0.4747 0.33141 0.0
H402 H 0.6842 0.57501 0.333 0.0
C403 C 0.67332 0.5281 0.32238 0.0
H404 H 0.72761 0.54003 0.31523 0.0
H405 H 0.82325 0.66807 0.2967 0.0
O406 O 0.44361 0.57746 0.25546 0.0
C407 C 0.68835 0.73675 0.25375 0.0
C408 C 0.44459 0.77588 0.34279 0.0
C409 C 0.46951 0.851 0.33625 0.0
C410 C 0.56692 0.84954 0.31423 0.0
C411 C 0.53773 0.77235 0.31933 0.0
N412 N 0.44561 0.65906 0.3369 0.0
N413 N 0.54571 0.95604 0.31341 0.0
C414 C 0.47561 0.73463 0.3332 0.0
C415 C 0.5286 0.88714 0.3214 0.0
N416 N 0.39261 0.7448 0.3585 0.0
N417 N 0.63119 0.88688 0.30247 0.0
H418 H 0.51846 0.98523 0.31804 0.0
H419 H 0.5822 0.98162 0.30088 0.0
H420 H 0.65931 0.86066 0.29622 0.0
H421 H 0.66018 0.94512 0.30022 0.0
H422 H 0.37787 0.6934 0.36559 0.0
H423 H 0.36753 0.77291 0.36549 0.0
H424 H 0.39494 0.62605 0.34478 0.0
H425 H 0.46966 0.62815 0.33112 0.0
C426 C 0.65732 0.42261 0.49318 0.0
C427 C 0.6398 0.46755 0.50597 0.0
C428 C 0.76181 0.57667 0.49753 0.0
C429 C 0.77406 0.53564 0.48148 0.0
N430 N 0.71294 0.4191 0.46078 0.0
N431 N 0.70822 0.56247 0.53178 0.0
C432 C 0.71683 0.45801 0.47846 0.0
C433 C 0.70166 0.53768 0.51178 0.0
N434 N 0.6235 0.34693 0.49674 0.0
N435 N 0.8014 0.65358 0.49806 0.0
H436 H 0.66977 0.52872 0.54326 0.0
H437 H 0.75605 0.61115 0.5371 0.0
H438 H 0.83499 0.68601 0.48566 0.0
H439 H 0.79053 0.68423 0.50918 0.0
H440 H 0.6394 0.31227 0.48895 0.0
H441 H 0.58689 0.32194 0.50936 0.0
H442 H 0.66978 0.36364 0.45832 0.0
H443 H 0.74172 0.44473 0.44713 0.0
C444 C 0.14907 0.72943 0.65587 0.0
C445 C 0.22704 0.77651 0.66043 0.0
C446 C 0.2286 0.67333 0.67972 0.0
C447 C 0.1505 0.62648 0.67539 0.0
N448 N 0.03379 0.60955 0.66087 0.0
N449 N 0.33841 0.79974 0.67933 0.0
C450 C 0.1099 0.65464 0.66401 0.0
C451 C 0.266 0.7502 0.67317 0.0
N452 N 0.1136 0.75489 0.64277 0.0
N453 N 0.26718 0.64363 0.68968 0.0
H454 H 0.36652 0.8566 0.67498 0.0
H455 H 0.36858 0.78679 0.69005 0.0
H456 H 0.24102 0.58824 0.69523 0.0
H457 H 0.32567 0.67186 0.69136 0.0
H458 H 0.06032 0.72071 0.63634 0.0
H459 H 0.13879 0.81047 0.63748 0.0
H460 H 0.99876 0.62918 0.65538 0.0
H461 H 0.00417 0.55223 0.66459 0.0
C462 C 0.44589 0.14372 0.80646 0.0
C463 C 0.45988 0.21321 0.81518 0.0
C464 C 0.5463 0.20767 0.8409 0.0
C465 C 0.53623 0.14086 0.83125 0.0
N466 N 0.48491 0.04986 0.80333 0.0
N467 N 0.52839 0.31648 0.83901 0.0
C468 C 0.48842 0.11021 0.81357 0.0
C469 C 0.51148 0.24665 0.83197 0.0
N470 N 0.39071 0.10912 0.79165 0.0
N471 N 0.58769 0.23266 0.85888 0.0
H472 H 0.50149 0.34503 0.83343 0.0
H473 H 0.57178 0.34806 0.84952 0.0
H474 H 0.61641 0.20719 0.86532 0.0
H475 H 0.59029 0.27582 0.86806 0.0
H476 H 0.37187 0.05467 0.78619 0.0
H477 H 0.35906 0.13256 0.78594 0.0
H478 H 0.45774 0.02978 0.78907 0.0
H479 H 0.5143 0.02301 0.80822 0.0
C480 C 0.33067 0.57055 0.00633 0.0
C481 C 0.37881 0.54189 0.00091 0.0
C482 C 0.27357 0.4339 0.98352 0.0
C483 C 0.22714 0.46611 0.98707 0.0
N484 N 0.21289 0.56931 -0.00027 0.0
N485 N 0.40115 0.45657 0.98016 0.0
C486 C 0.25623 0.53596 0.99781 0.0
C487 C 0.35168 0.47654 0.98826 0.0
N488 N 0.35519 0.62907 0.02012 0.0
N489 N 0.24319 0.36226 0.97579 0.0
H490 H 0.45932 0.48761 0.98275 0.0
H491 H 0.38572 0.41405 0.9691 0.0
H492 H 0.18619 0.32872 0.97205 0.0
H493 H 0.27303 0.3333 0.97498 0.0
H494 H 0.32018 0.64738 0.02644 0.0
H495 H 0.40977 0.65628 0.02631 0.0
H496 H 0.23376 0.62414 0.00519 0.0
H497 H 0.15671 0.54339 0.99478 0.0
C498 C 0.83299 0.37462 0.1477 0.0
C499 C 0.81723 0.38793 0.16832 0.0
C500 C 0.72054 0.25391 0.17203 0.0
C501 C 0.74029 0.23983 0.15201 0.0
N502 N 0.82098 0.28359 0.12165 0.0
N503 N 0.75146 0.34136 0.20095 0.0
C504 C 0.79767 0.29949 0.14001 0.0
C505 C 0.7623 0.32783 0.18072 0.0
N506 N 0.882 0.43385 0.13541 0.0
N507 N 0.66037 0.19716 0.18238 0.0
H508 H 0.77827 0.39539 0.20744 0.0
H509 H 0.71906 0.29905 0.21166 0.0
H510 H 0.62962 0.1423 0.17655 0.0
H511 H 0.63765 0.20512 0.19602 0.0
H512 H 0.88811 0.42944 0.11944 0.0
H513 H 0.91355 0.48917 0.14076 0.0
H514 H 0.86867 0.32234 0.11342 0.0
H515 H 0.79604 0.22958 0.11527 0.0
C516 C 0.17057 0.44104 0.4919 0.0
C517 C 0.24954 0.47522 0.48819 0.0
C518 C 0.24472 0.57022 0.46563 0.0
C519 C 0.16765 0.54038 0.47104 0.0
N520 N 0.0595 0.455 0.49169 0.0
N521 N 0.36371 0.57439 0.47268 0.0
C522 C 0.13102 0.47752 0.48472 0.0
C523 C 0.28717 0.54045 0.47534 0.0
N524 N 0.1332 0.37383 0.5024 0.0
N525 N 0.27668 0.62586 0.45086 0.0
H526 H 0.39567 0.55127 0.47838 0.0
H527 H 0.39621 0.627 0.46568 0.0
H528 H 0.24753 0.64983 0.44379 0.0
H529 H 0.33012 0.64487 0.44453 0.0
H530 H 0.07454 0.34173 0.50336 0.0
H531 H 0.15999 0.34659 0.50888 0.0
H532 H 0.03305 0.41565 0.50358 0.0
H533 H 0.02849 0.48027 0.48693 0.0
C534 C 0.6331 0.13523 0.66632 0.0
C535 C 0.61753 0.16162 0.64748 0.0
C536 C 0.75139 0.25906 0.64428 0.0
C537 C 0.76615 0.23502 0.66363 0.0
N538 N 0.72155 0.15552 0.69425 0.0
N539 N 0.65746 0.25267 0.61964 0.0
C540 C 0.70701 0.17467 0.675 0.0
C541 C 0.67555 0.22478 0.63676 0.0
N542 N 0.57777 0.07061 0.67551 0.0
N543 N 0.81006 0.31422 0.63308 0.0
H544 H 0.60247 0.22848 0.61382 0.0
H545 H 0.69513 0.30253 0.61206 0.0
H546 H 0.86571 0.34186 0.63848 0.0
H547 H 0.80494 0.32964 0.61794 0.0
H548 H 0.5876 0.0426 0.68762 0.0
H549 H 0.52195 0.04185 0.67028 0.0
H550 H 0.67965 0.11969 0.70462 0.0
H551 H 0.77589 0.17829 0.70044 0.0
C552 C 0.56074 0.70337 0.82913 0.0
C553 C 0.53235 0.75187 0.8237 0.0
C554 C 0.43416 0.65231 0.80194 0.0
C555 C 0.45907 0.60227 0.80867 0.0
N556 N 0.53753 0.57504 0.83108 0.0
N557 N 0.43875 0.77238 0.80668 0.0
C558 C 0.52019 0.62646 0.8229 0.0
C559 C 0.46802 0.72625 0.81058 0.0
N560 N 0.62652 0.7309 0.84025 0.0
N561 N 0.37955 0.62964 0.78689 0.0
H562 H 0.46477 0.82838 0.8117 0.0
H563 H 0.38693 0.75438 0.79939 0.0
H564 H 0.35203 0.57512 0.78073 0.0
H565 H 0.36454 0.66576 0.77957 0.0
H566 H 0.65476 0.70097 0.84268 0.0
H567 H 0.65649 0.78619 0.84575 0.0
H568 H 0.57587 0.58706 0.8432 0.0
H569 H 0.50877 0.518 0.82705 0.0
C570 C 0.76562 0.43024 0.96806 0.0
C571 C 0.84294 0.46003 0.9732 0.0
C572 C 0.83899 0.55309 0.99645 0.0
C573 C 0.76275 0.52582 0.99047 0.0
N574 N 0.65569 0.44664 0.96879 0.0
N575 N 0.95656 0.55404 0.99041 0.0
C576 C 0.72661 0.4666 0.97575 0.0
C577 C 0.88072 0.52298 0.98678 0.0
N578 N 0.72928 0.36624 0.95621 0.0
N579 N 0.87021 0.605 0.01219 0.0
H580 H 0.98837 0.5306 0.98495 0.0
H581 H 0.98935 0.60563 0.99785 0.0
H582 H 0.84203 0.62942 0.01948 0.0
H583 H 0.92204 0.62034 0.01911 0.0
H584 H 0.67113 0.33666 0.95376 0.0
H585 H 0.75676 0.33951 0.94984 0.0
H586 H 0.62865 0.40908 0.95659 0.0
H587 H 0.62574 0.47226 0.97418 0.0
C588 C 0.31677 0.76526 0.13603 0.0
C589 C 0.36466 0.84308 0.14038 0.0
C590 C 0.2614 0.84693 0.15906 0.0
C591 C 0.21347 0.76898 0.15472 0.0
N592 N 0.18953 0.65622 0.13666 0.0
N593 N 0.38387 0.96014 0.15504 0.0
C594 C 0.23962 0.7288 0.14249 0.0
C595 C 0.33719 0.88451 0.15159 0.0
N596 N 0.34572 0.72624 0.12604 0.0
N597 N 0.23532 0.88408 0.17118 0.0
H598 H 0.44171 0.98824 0.15196 0.0
H599 H 0.36561 0.99635 0.16037 0.0
H600 H 0.17885 0.86068 0.17548 0.0
H601 H 0.26929 0.93734 0.17758 0.0
H602 H 0.31664 0.668 0.12399 0.0
H603 H 0.40142 0.75185 0.12073 0.0
H604 H 0.2022 0.6246 0.12646 0.0
H605 H 0.13252 0.62905 0.14084 0.0
C606 C 0.42004 0.27337 0.326 0.0
C607 C 0.45554 0.22971 0.32273 0.0
C608 C 0.55531 0.33333 0.30222 0.0
C609 C 0.52405 0.3794 0.30747 0.0
N610 N 0.43521 0.39856 0.32755 0.0
N611 N 0.55904 0.21824 0.30889 0.0
C612 C 0.45854 0.35078 0.32017 0.0
C613 C 0.52389 0.25982 0.31115 0.0
N614 N 0.34956 0.24112 0.3347 0.0
N615 N 0.61365 0.35913 0.28827 0.0
H616 H 0.53477 0.16218 0.3138 0.0
H617 H 0.61353 0.24009 0.303 0.0
H618 H 0.63882 0.41314 0.28176 0.0
H619 H 0.63383 0.32561 0.28203 0.0
H620 H 0.31768 0.26798 0.33538 0.0
H621 H 0.31961 0.18498 0.33951 0.0
H622 H 0.39298 0.38294 0.33873 0.0
H623 H 0.46294 0.45613 0.3241 0.0
C624 C 0.79173 0.27451 0.40872 0.0
C625 C 0.79558 0.34555 0.41037 0.0
C626 C 0.68414 0.30194 0.38797 0.0
C627 C 0.6814 0.23153 0.38596 0.0
N628 N 0.73682 0.15302 0.39121 0.0
N629 N 0.75083 0.43087 0.4003 0.0
C630 C 0.73656 0.21843 0.39539 0.0
C631 C 0.74374 0.36065 0.39948 0.0
N632 N 0.84014 0.26055 0.42012 0.0
N633 N 0.62745 0.31132 0.37969 0.0
H634 H 0.7874 0.47351 0.41037 0.0
H635 H 0.72266 0.44874 0.3903 0.0
H636 H 0.58449 0.27116 0.3703 0.0
H637 H 0.61992 0.35696 0.38295 0.0
H638 H 0.83525 0.20757 0.4215 0.0
H639 H 0.88359 0.30159 0.42922 0.0
H640 H 0.77926 0.14226 0.39598 0.0
H641 H 0.69696 0.11119 0.38149 0.0
C642 C 0.38766 0.62996 0.59635 0.0
C643 C 0.42677 0.64459 0.57715 0.0
C644 C 0.50132 0.77847 0.58612 0.0
C645 C 0.45137 0.76579 0.60293 0.0
N646 N 0.34088 0.679 0.62302 0.0
N647 N 0.51958 0.73329 0.55296 0.0
C648 C 0.39369 0.69128 0.6081 0.0
C649 C 0.48448 0.7188 0.57194 0.0
N650 N 0.34486 0.55733 0.60336 0.0
N651 N 0.56448 0.84775 0.58375 0.0
H652 H 0.50852 0.69139 0.54201 0.0
H653 H 0.55574 0.78763 0.54741 0.0
H654 H 0.57814 0.89198 0.59416 0.0
H655 H 0.60669 0.85893 0.57288 0.0
H656 H 0.32054 0.54376 0.61817 0.0
H657 H 0.34039 0.51107 0.59522 0.0
H658 H 0.29248 0.62672 0.62536 0.0
H659 H 0.34134 0.72157 0.632 0.0
C660 C 0.71216 0.39779 0.72074 0.0
C661 C 0.78545 0.46005 0.72429 0.0
C662 C 0.73426 0.51207 0.7496 0.0
C663 C 0.66332 0.44466 0.74812 0.0
N664 N 0.58929 0.31606 0.73563 0.0
N665 N 0.86896 0.57467 0.74267 0.0
C666 C 0.65304 0.38572 0.73444 0.0
C667 C 0.79732 0.51701 0.73883 0.0
N668 N 0.69908 0.34932 0.70453 0.0
N669 N 0.74085 0.57166 0.76091 0.0
H670 H 0.91568 0.58191 0.7342 0.0
H671 H 0.88261 0.61295 0.75486 0.0
H672 H 0.6957 0.56964 0.76903 0.0
H673 H 0.78911 0.62491 0.76091 0.0
H674 H 0.64506 0.30782 0.69999 0.0
H675 H 0.74108 0.35487 0.69428 0.0
H676 H 0.583 0.26897 0.72761 0.0
H677 H 0.5459 0.30245 0.74632 0.0
C678 C 0.34032 0.72535 0.90745 0.0
C679 C 0.32559 0.77055 0.8935 0.0
C680 C 0.1942 0.70982 0.90539 0.0
C681 C 0.2104 0.66776 0.92005 0.0
N682 N 0.30195 0.64665 0.9383 0.0
N683 N 0.24364 0.81563 0.88122 0.0
C684 C 0.28467 0.6797 0.92225 0.0
C685 C 0.25392 0.76575 0.89306 0.0
N686 N 0.4052 0.72165 0.90561 0.0
N687 N 0.12156 0.69504 0.903 0.0
H688 H 0.28634 0.85692 0.87196 0.0
H689 H 0.19502 0.82 0.88175 0.0
H690 H 0.07755 0.65738 0.91262 0.0
H691 H 0.10418 0.71718 0.89096 0.0
H692 H 0.41472 0.68305 0.91376 0.0
H693 H 0.44659 0.75146 0.8944 0.0
H694 H 0.35708 0.66045 0.94202 0.0
H695 H 0.26238 0.61043 0.94915 0.0
C696 C 0.49681 0.25624 0.09156 0.0
C697 C 0.4935 0.1907 0.08285 0.0
C698 C 0.50063 0.24148 0.04781 0.0
C699 C 0.49855 0.30448 0.05648 0.0
N700 N 0.4645 0.35356 0.08628 0.0
N701 N 0.46273 0.11008 0.05264 0.0
C702 C 0.48613 0.30551 0.07824 0.0
C703 C 0.485 0.17952 0.06095 0.0
N704 N 0.51636 0.27598 0.11196 0.0
N705 N 0.52367 0.24224 0.02775 0.0
H706 H 0.44771 0.06273 0.06193 0.0
H707 H 0.45049 0.09821 0.03682 0.0
H708 H 0.54301 0.28833 0.01775 0.0
H709 H 0.53227 0.19965 0.02182 0.0
H710 H 0.52617 0.32743 0.11801 0.0
H711 H 0.53158 0.2465 0.12225 0.0
H712 H 0.44947 0.35203 0.1019 0.0
H713 H 0.45259 0.38791 0.07686 0.0
C714 C 0.32095 0.62325 0.24775 0.0
C715 C 0.31931 0.55417 0.25183 0.0
C716 C 0.21071 0.48649 0.22848 0.0
C717 C 0.21063 0.55497 0.22505 0.0
N718 N 0.25928 0.68719 0.23269 0.0
N719 N 0.25907 0.41904 0.24878 0.0
C720 C 0.26375 0.62293 0.23512 0.0
C721 C 0.26303 0.48533 0.24298 0.0
N722 N 0.37903 0.68965 0.25533 0.0
N723 N 0.16162 0.42323 0.21759 0.0
H724 H 0.29712 0.41689 0.25925 0.0
H725 H 0.21552 0.36592 0.24446 0.0
H726 H 0.12116 0.42196 0.20736 0.0
H727 H 0.16339 0.37324 0.21769 0.0
H728 H 0.38939 0.74283 0.25072 0.0
H729 H 0.4204 0.69238 0.26543 0.0
H730 H 0.2891 0.73534 0.2418 0.0
H731 H 0.22252 0.69177 0.22226 0.0
C732 C 0.14091 0.83913 0.24286 0.0
C733 C 0.0622 0.79385 0.23963 0.0
C734 C 0.03958 0.82761 0.27449 0.0
C735 C 0.11786 0.85944 0.27912 0.0
N736 N 0.24234 0.88651 0.26774 0.0
N737 N 0.93485 0.7454 0.25175 0.0
C738 C 0.16872 0.86421 0.26322 0.0
C739 C 0.01076 0.78913 0.25515 0.0
N740 N 0.18928 0.85686 0.22637 0.0
N741 N 0.99333 0.83491 0.28851 0.0
H742 H 0.91278 0.7189 0.23748 0.0
H743 H 0.89419 0.73288 0.26322 0.0
H744 H 0.01339 0.86375 0.30259 0.0
H745 H 0.93723 0.81883 0.28539 0.0
H746 H 0.24687 0.89599 0.22729 0.0
H747 H 0.17014 0.83813 0.21127 0.0
H748 H 0.2785 0.88131 0.25729 0.0
H749 H 0.26606 0.90382 0.28242 0.0
C750 C 0.23651 0.02033 0.42288 0.0
C751 C 0.2765 0.07139 0.40654 0.0
C752 C 0.30828 0.17842 0.42937 0.0
C753 C 0.26753 0.12794 0.44598 0.0
N754 N 0.17555 0.00145 0.45663 0.0
N755 N 0.32635 0.1957 0.39201 0.0
C756 C 0.22564 0.04888 0.44207 0.0
C757 C 0.30299 0.14923 0.40905 0.0
N758 N 0.2126 0.94544 0.42043 0.0
N759 N 0.35818 0.25292 0.4331 0.0
H760 H 0.32375 0.17519 0.37696 0.0
H761 H 0.34036 0.25219 0.39264 0.0
H762 H 0.36982 0.27655 0.44789 0.0
H763 H 0.39466 0.28961 0.42176 0.0
H764 H 0.18999 0.90622 0.43251 0.0
H765 H 0.2191 0.92355 0.40638 0.0
H766 H 0.13853 0.94433 0.45386 0.0
H767 H 0.16584 0.02099 0.47067 0.0
C768 C 0.15718 0.22245 0.60356 0.0
C769 C 0.14195 0.27927 0.61082 0.0
C770 C 0.17959 0.34057 0.57669 0.0
C771 C 0.2118 0.29546 0.57152 0.0
N772 N 0.2317 0.19197 0.58018 0.0
N773 N 0.15397 0.40177 0.60475 0.0
C774 C 0.19976 0.23495 0.58482 0.0
C775 C 0.15616 0.34039 0.5974 0.0
N776 N 0.12965 0.15616 0.61429 0.0
N777 N 0.17309 0.38509 0.56184 0.0
H778 H 0.1438 0.40724 0.62028 0.0
H779 H 0.17126 0.45077 0.59598 0.0
H780 H 0.18898 0.38553 0.54634 0.0
H781 H 0.14457 0.41471 0.56447 0.0
H782 H 0.13152 0.10965 0.60842 0.0
H783 H 0.09776 0.14519 0.62789 0.0
H784 H 0.2315 0.15233 0.59047 0.0
H785 H 0.26203 0.19912 0.56646 0.0
C786 C 0.88589 0.09432 0.76198 0.0
C787 C 0.90244 0.1346 0.78111 0.0
C788 C 0.98801 0.25094 0.76227 0.0
C789 C 0.9573 0.21416 0.7431 0.0
N790 N 0.87436 0.09959 0.72444 0.0
N791 N 0.96469 0.25527 0.79899 0.0
C792 C 0.90648 0.1351 0.74279 0.0
C793 C 0.9535 0.2139 0.78124 0.0
N794 N 0.85196 0.0174 0.76218 0.0
N795 N 0.04914 0.32227 0.76221 0.0
H796 H 0.93682 0.23224 0.813 0.0
H797 H 0.99574 0.31407 0.79923 0.0
H798 H 0.07521 0.35011 0.74835 0.0
H799 H 0.07834 0.34982 0.77572 0.0
H800 H 0.84439 0.98552 0.74879 0.0
H801 H 0.83844 0.9863 0.77602 0.0
H802 H 0.82994 0.04401 0.72371 0.0
H803 H 0.88919 0.127 0.71004 0.0
C804 C 0.72462 0.93453 0.94498 0.0
C805 C 0.75435 0.88474 0.94536 0.0
C806 C 0.75677 0.88456 0.90704 0.0
C807 C 0.72744 0.93461 0.90677 0.0
N808 N 0.70721 0.02562 0.92501 0.0
N809 N 0.81955 0.83108 0.92718 0.0
C810 C 0.71963 0.96588 0.92565 0.0
C811 C 0.77721 0.86579 0.92649 0.0
N812 N 0.69635 0.9481 0.96275 0.0
N813 N 0.76105 0.85145 0.88899 0.0
H814 H 0.83637 0.81779 0.9412 0.0
H815 H 0.8439 0.82217 0.91401 0.0
H816 H 0.7483 0.86469 0.87439 0.0
H817 H 0.77282 0.80741 0.88866 0.0
H818 H 0.66691 0.97753 0.96282 0.0
H819 H 0.6957 0.92423 0.97719 0.0
H820 H 0.70811 0.05564 0.93823 0.0
H821 H 0.70423 0.05007 0.91097 0.0
C822 C 0.75526 0.71052 0.11289 0.0
C823 C 0.83525 0.74725 0.1147 0.0
C824 C 0.84689 0.75432 0.07649 0.0
C825 C 0.76703 0.71837 0.07481 0.0
N826 N 0.64848 0.68621 0.09106 0.0
N827 N 0.95689 0.82462 0.09858 0.0
C828 C 0.72247 0.70486 0.09296 0.0
C829 C 0.88104 0.77589 0.09658 0.0
N830 N 0.7101 0.67613 0.1298 0.0
N831 N 0.88988 0.76398 0.0592 0.0
H832 H 0.98314 0.84275 0.11308 0.0
H833 H 0.99204 0.85259 0.08596 0.0
H834 H 0.8673 0.74981 0.0442 0.0
H835 H 0.94728 0.78143 0.05993 0.0
H836 H 0.65161 0.642 0.12873 0.0
H837 H 0.7309 0.67514 0.14458 0.0
H838 H 0.61493 0.68239 0.10376 0.0
H839 H 0.6234 0.68278 0.07658 0.0
C840 C 0.14425 0.82231 0.54881 0.0
C841 C 0.1513 0.87468 0.53303 0.0
C842 C 0.22575 0.97963 0.55726 0.0
C843 C 0.21722 0.92661 0.57281 0.0
N844 N 0.14817 0.79914 0.5857 0.0
N845 N 0.18219 0.00165 0.52406 0.0
C846 C 0.16906 0.84854 0.56932 0.0
C847 C 0.18669 0.95303 0.53788 0.0
N848 N 0.12019 0.74862 0.54405 0.0
N849 N 0.27363 0.05481 0.56064 0.0
H850 H 0.15276 0.98355 0.50999 0.0
H851 H 0.20119 0.05818 0.52741 0.0
H852 H 0.30079 0.07565 0.57491 0.0
H853 H 0.28929 0.09576 0.54905 0.0
H854 H 0.12303 0.71103 0.55452 0.0
H855 H 0.10425 0.72631 0.52919 0.0
H856 H 0.10709 0.74227 0.58449 0.0
H857 H 0.16621 0.81691 0.60094 0.0
C858 C 0.21824 0.13384 0.73259 0.0
C859 C 0.25066 0.21313 0.73453 0.0
C860 C 0.26338 0.22792 0.69663 0.0
C861 C 0.23318 0.1487 0.69458 0.0
N862 N 0.1563 0.02518 0.70971 0.0
N863 N 0.27606 0.32998 0.71865 0.0
C864 C 0.20202 0.10118 0.71231 0.0
C865 C 0.26285 0.25793 0.71652 0.0
N866 N 0.20735 0.09034 0.74987 0.0
N867 N 0.29821 0.27546 0.68017 0.0
H868 H 0.27569 0.3526 0.73323 0.0
H869 H 0.27902 0.36356 0.70601 0.0
H870 H 0.30386 0.25725 0.66548 0.0
H871 H 0.32786 0.33407 0.6816 0.0
H872 H 0.1928 0.03374 0.74907 0.0
H873 H 0.2168 0.11188 0.76499 0.0
H874 H 0.12697 0.98851 0.72195 0.0
H875 H 0.14191 0.00022 0.69497 0.0
C876 C 0.05702 0.19254 0.87606 0.0
C877 C 0.13258 0.24436 0.87 0.0
C878 C 0.15547 0.30164 0.9047 0.0
C879 C 0.07668 0.26361 0.90836 0.0
N880 N 0.9511 0.16895 0.89834 0.0
N881 N 0.25415 0.35257 0.87896 0.0
C882 C 0.02697 0.2066 0.8945 0.0
C883 C 0.18266 0.29896 0.8846 0.0
N884 N 0.01464 0.12957 0.86434 0.0
N885 N 0.20413 0.34228 0.92041 0.0
H886 H 0.27769 0.35405 0.86456 0.0
H887 H 0.28863 0.39933 0.88817 0.0
H888 H 0.18506 0.34595 0.93522 0.0
H889 H 0.26252 0.36541 0.9194 0.0
H890 H 0.96293 0.08531 0.86941 0.0
H891 H 0.03549 0.11804 0.85081 0.0
H892 H 0.91106 0.13261 0.88762 0.0
H893 H 0.92839 0.17695 0.91204 0.0
C894 C 0.87101 0.17294 0.05177 0.0
C895 C 0.8523 0.12224 0.03466 0.0
C896 C 0.76415 0.01784 0.05727 0.0
C897 C 0.78451 0.06894 0.07407 0.0
N898 N 0.87682 0.18611 0.08939 0.0
N899 N 0.79648 0.99331 0.02292 0.0
C900 C 0.84551 0.1432 0.07201 0.0
C901 C 0.80399 0.04343 0.03804 0.0
N902 N 0.90542 0.24911 0.04866 0.0
N903 N 0.70516 0.94586 0.05954 0.0
H904 H 0.82786 0.01019 0.00915 0.0
H905 H 0.7648 0.93512 0.02492 0.0
H906 H 0.67827 0.9252 0.07387 0.0
H907 H 0.68105 0.90814 0.04719 0.0
H908 H 0.91361 0.28706 0.06059 0.0
H909 H 0.91712 0.27382 0.03395 0.0
H910 H 0.9251 0.23944 0.08889 0.0
H911 H 0.85924 0.16411 0.10437 0.0
C912 C 0.70929 0.77843 0.19691 0.0
C913 C 0.74284 0.85843 0.19659 0.0
C914 C 0.75917 0.86152 0.23465 0.0
C915 C 0.72612 0.78173 0.23477 0.0
N916 N 0.69551 0.66909 0.21563 0.0
N917 N 0.82181 0.97665 0.21413 0.0
C918 C 0.71057 0.74213 0.21567 0.0
C919 C 0.77496 0.90028 0.21516 0.0
N920 N 0.67096 0.73618 0.17991 0.0
N921 N 0.77153 0.89996 0.25297 0.0
H922 H 0.83609 0.00621 0.20001 0.0
H923 H 0.8521 0.00916 0.22692 0.0
H924 H 0.76248 0.87412 0.26755 0.0
H925 H 0.78662 0.95672 0.25364 0.0
H926 H 0.6396 0.67739 0.18018 0.0
H927 H 0.6633 0.75913 0.16623 0.0
H928 H 0.69029 0.63922 0.20197 0.0
H929 H 0.69669 0.6417 0.22929 0.0
C930 C 0.83228 0.70341 0.38186 0.0
C931 C 0.88001 0.74607 0.36499 0.0
C932 C 0.99144 0.78478 0.38738 0.0
C933 C 0.94322 0.74154 0.40387 0.0
N934 N 0.81964 0.68341 0.41929 0.0
N935 N 0.00283 0.84442 0.35368 0.0
C936 C 0.86424 0.71018 0.40194 0.0
C937 C 0.9591 0.79274 0.36845 0.0
N938 N 0.75817 0.65078 0.37853 0.0
N939 N 0.06761 0.81503 0.38955 0.0
H940 H 0.98009 0.85226 0.33994 0.0
H941 H 0.05961 0.88418 0.35596 0.0
H942 H 0.09166 0.81058 0.40349 0.0
H943 H 0.10605 0.84156 0.37749 0.0
H944 H 0.72382 0.61272 0.38995 0.0
H945 H 0.73268 0.63929 0.36394 0.0
H946 H 0.762 0.66526 0.41915 0.0
H947 H 0.84227 0.68713 0.43416 0.0
loop_
_geom_bond_atom_site_label_1
_geom_bond_atom_site_label_2
_geom_bond_distance
_geom_bond_site_symmetry_2
_ccdc_geom_bond_type
Co0 O3 1.970 . S
Co0 N17 1.989 . S
Co0 O25 1.967 . S
Co0 O32 1.920 . S
Co1 O4 1.966 . S
Co1 N10 2.022 . S
Co1 N18 1.993 . S
Co1 O26 1.941 . S
C2 O3 1.258 . S
C2 O4 1.263 . S
O3 Co0 1.970 . S
O3 C2 1.258 . S
O4 Co1 1.966 . S
O4 C2 1.263 . S
C5 O6 1.235 . S
C5 O32 1.289 . S
O6 C5 1.235 . S
C7 C9 1.400 1_545 S
C7 N10 1.351 . S
C7 C12 1.501 . S
C8 C9 1.387 . S
C8 N11 1.341 . S
C9 C7 1.400 1_565 S
C9 C8 1.387 . S
N10 Co1 2.022 . S
N10 C7 1.351 . S
N10 N11 1.365 1_545 S
N11 C8 1.341 . S
N11 N10 1.365 1_565 S
N11 H31 0.862 . S
C12 C7 1.501 . S
C12 H13 0.961 . S
C12 H14 0.961 . S
C12 H15 0.960 . S
H13 C12 0.961 . S
H14 C12 0.961 . S
H15 C12 0.960 . S
C16 N17 1.342 . S
C16 C20 1.401 . S
C16 C21 1.499 . S
N17 Co0 1.989 . S
N17 C16 1.342 . S
N17 N18 1.388 . S
N18 Co1 1.993 . S
N18 N17 1.388 . S
N18 C19 1.346 . S
C19 N18 1.346 . S
C19 C20 1.396 . S
C19 C29 1.510 1_545 S
C20 C16 1.401 . S
C20 C19 1.396 . S
C21 C16 1.499 . S
C21 H22 0.959 . S
C21 H23 0.960 . S
C21 H24 0.961 . S
H22 C21 0.959 . S
H23 C21 0.960 . S
H24 C21 0.961 . S
O25 Co0 1.967 . S
O25 C33 1.258 . S
O26 Co1 1.941 . S
O26 C33 1.266 . S
H27 C29 0.959 . S
H28 C29 0.961 . S
C29 C19 1.510 1_565 S
C29 H27 0.959 . S
C29 H28 0.961 . S
C29 H30 0.960 . S
H30 C29 0.960 . S
H31 N11 0.862 . S
O32 Co0 1.920 . S
O32 C5 1.289 . S
C33 O25 1.258 . S
C33 O26 1.266 . S
Co34 O37 1.970 . S
Co34 N51 1.989 . S
Co34 O59 1.967 . S
Co34 O66 1.920 . S
Co35 O38 1.966 . S
Co35 N44 2.022 . S
Co35 N52 1.993 . S
Co35 O60 1.941 . S
C36 O37 1.258 . S
C36 O38 1.263 . S
O37 Co34 1.970 . S
O37 C36 1.258 . S
O38 Co35 1.966 . S
O38 C36 1.263 . S
C39 O40 1.235 . S
C39 O66 1.289 . S
O40 C39 1.235 . S
C41 C43 1.400 . S
C41 N44 1.351 . S
C41 C46 1.501 . S
C42 C43 1.387 . S
C42 N45 1.341 . S
C43 C41 1.400 . S
C43 C42 1.387 . S
N44 Co35 2.022 . S
N44 C41 1.351 . S
N44 N45 1.365 . S
N45 C42 1.341 . S
N45 N44 1.365 . S
N45 H65 0.862 . S
C46 C41 1.501 . S
C46 H47 0.961 . S
C46 H48 0.961 . S
C46 H49 0.960 . S
H47 C46 0.961 . S
H48 C46 0.961 . S
H49 C46 0.960 . S
C50 N51 1.342 . S
C50 C54 1.401 . S
C50 C55 1.499 . S
N51 Co34 1.989 . S
N51 C50 1.342 . S
N51 N52 1.388 . S
N52 Co35 1.993 . S
N52 N51 1.388 . S
N52 C53 1.346 . S
C53 N52 1.346 . S
C53 C54 1.396 . S
C53 C63 1.510 . S
C54 C50 1.401 . S
C54 C53 1.396 . S
C55 C50 1.499 . S
C55 H56 0.959 . S
C55 H57 0.960 . S
C55 H58 0.961 . S
H56 C55 0.959 . S
H57 C55 0.960 . S
H58 C55 0.961 . S
O59 Co34 1.967 . S
O59 C67 1.258 . S
O60 Co35 1.941 . S
O60 C67 1.266 . S
H61 C63 0.959 . S
H62 C63 0.961 . S
C63 C53 1.510 . S
C63 H61 0.959 . S
C63 H62 0.961 . S
C63 H64 0.960 . S
H64 C63 0.960 . S
H65 N45 0.862 . S
O66 Co34 1.920 . S
O66 C39 1.289 . S
C67 O59 1.258 . S
C67 O60 1.266 . S
Co68 O71 1.970 . S
Co68 N85 1.989 . S
Co68 O93 1.967 . S
Co68 O100 1.920 . S
Co69 O72 1.966 . S
Co69 N78 2.022 . S
Co69 N86 1.993 . S
Co69 O94 1.941 . S
C70 O71 1.258 . S
C70 O72 1.263 . S
O71 Co68 1.970 . S
O71 C70 1.258 . S
O72 Co69 1.966 . S
O72 C70 1.263 . S
C73 O74 1.235 . S
C73 O100 1.289 . S
O74 C73 1.235 . S
C75 C77 1.400 1_655 S
C75 N78 1.351 . S
C75 C80 1.501 . S
C76 C77 1.387 . S
C76 N79 1.341 . S
C77 C75 1.400 1_455 S
C77 C76 1.387 . S
N78 Co69 2.022 . S
N78 C75 1.351 . S
N78 N79 1.365 1_655 S
N79 C76 1.341 . S
N79 N78 1.365 1_455 S
N79 H99 0.862 . S
C80 C75 1.501 . S
C80 H81 0.961 . S
C80 H82 0.961 . S
C80 H83 0.960 . S
H81 C80 0.961 . S
H82 C80 0.961 . S
H83 C80 0.960 . S
C84 N85 1.342 . S
C84 C88 1.401 . S
C84 C89 1.499 . S
N85 Co68 1.989 . S
N85 C84 1.342 . S
N85 N86 1.388 . S
N86 Co69 1.993 . S
N86 N85 1.388 . S
N86 C87 1.346 . S
C87 N86 1.346 . S
C87 C88 1.396 . S
C87 C97 1.510 1_655 S
C88 C84 1.401 . S
C88 C87 1.396 . S
C89 C84 1.499 . S
C89 H90 0.959 . S
C89 H91 0.960 . S
C89 H92 0.961 . S
H90 C89 0.959 . S
H91 C89 0.960 . S
H92 C89 0.961 . S
O93 Co68 1.967 . S
O93 C101 1.258 . S
O94 Co69 1.941 . S
O94 C101 1.266 . S
H95 C97 0.959 . S
H96 C97 0.961 . S
C97 C87 1.510 1_455 S
C97 H95 0.959 . S
C97 H96 0.961 . S
C97 H98 0.960 . S
H98 C97 0.960 . S
H99 N79 0.862 . S
O100 Co68 1.920 . S
O100 C73 1.289 . S
C101 O93 1.258 . S
C101 O94 1.266 . S
Co102 O105 1.970 . S
Co102 N119 1.989 . S
Co102 O127 1.967 . S
Co102 O134 1.920 . S
Co103 O106 1.966 . S
Co103 N112 2.022 . S
Co103 N120 1.993 . S
Co103 O128 1.941 . S
C104 O105 1.258 . S
C104 O106 1.263 . S
O105 Co102 1.970 . S
O105 C104 1.258 . S
O106 Co103 1.966 . S
O106 C104 1.263 . S
C107 O108 1.235 . S
C107 O134 1.289 . S
O108 C107 1.235 . S
C109 C111 1.400 1_565 S
C109 N112 1.351 . S
C109 C114 1.501 . S
C110 C111 1.387 . S
C110 N113 1.341 . S
C111 C109 1.400 1_545 S
C111 C110 1.387 . S
N112 Co103 2.022 . S
N112 C109 1.351 . S
N112 N113 1.365 1_565 S
N113 C110 1.341 . S
N113 N112 1.365 1_545 S
N113 H133 0.862 . S
C114 C109 1.501 . S
C114 H115 0.961 . S
C114 H116 0.961 . S
C114 H117 0.960 . S
H115 C114 0.961 . S
H116 C114 0.961 . S
H117 C114 0.960 . S
C118 N119 1.342 . S
C118 C122 1.401 . S
C118 C123 1.499 . S
N119 Co102 1.989 . S
N119 C118 1.342 . S
N119 N120 1.388 . S
N120 Co103 1.993 . S
N120 N119 1.388 . S
N120 C121 1.346 . S
C121 N120 1.346 . S
C121 C122 1.396 . S
C121 C131 1.510 1_565 S
C122 C118 1.401 . S
C122 C121 1.396 . S
C123 C118 1.499 . S
C123 H124 0.959 . S
C123 H125 0.960 . S
C123 H126 0.961 . S
H124 C123 0.959 . S
H125 C123 0.960 . S
H126 C123 0.961 . S
O127 Co102 1.967 . S
O127 C135 1.258 . S
O128 Co103 1.941 . S
O128 C135 1.266 . S
H129 C131 0.959 . S
H130 C131 0.961 . S
C131 C121 1.510 1_545 S
C131 H129 0.959 . S
C131 H130 0.961 . S
C131 H132 0.960 . S
H132 C131 0.960 . S
H133 N113 0.862 . S
O134 Co102 1.920 . S
O134 C107 1.289 . S
C135 O127 1.258 . S
C135 O128 1.266 . S
Co136 O139 1.970 . S
Co136 N153 1.989 . S
Co136 O161 1.967 . S
Co136 O168 1.920 . S
Co137 O140 1.966 . S
Co137 N146 2.022 . S
Co137 N154 1.991 1_556 S
Co137 O162 1.941 1_556 S
C138 O139 1.258 1_556 S
C138 O140 1.263 . S
O139 Co136 1.970 . S
O139 C138 1.258 1_554 S
O140 Co137 1.966 . S
O140 C138 1.263 . S
C141 O142 1.235 . S
C141 O168 1.289 . S
O142 C141 1.235 . S
C143 C145 1.400 . S
C143 N146 1.351 . S
C143 C148 1.501 . S
C144 C145 1.387 . S
C144 N147 1.341 . S
C145 C143 1.400 . S
C145 C144 1.387 . S
N146 Co137 2.022 . S
N146 C143 1.351 . S
N146 N147 1.365 . S
N147 C144 1.341 . S
N147 N146 1.365 . S
N147 H167 0.862 . S
C148 C143 1.501 . S
C148 H149 0.961 . S
C148 H150 0.961 . S
C148 H151 0.960 . S
H149 C148 0.961 . S
H150 C148 0.961 . S
H151 C148 0.960 . S
C152 N153 1.342 . S
C152 C156 1.401 . S
C152 C157 1.499 . S
N153 Co136 1.989 . S
N153 C152 1.342 . S
N153 N154 1.402 . S
N154 Co137 1.991 1_554 S
N154 N153 1.402 . S
N154 C155 1.340 1_554 S
C155 N154 1.340 1_556 S
C155 C156 1.396 1_556 S
C155 C165 1.510 . S
C156 C152 1.401 . S
C156 C155 1.396 1_554 S
C157 C152 1.499 . S
C157 H158 0.959 . S
C157 H159 0.960 . S
C157 H160 0.961 . S
H158 C157 0.959 . S
H159 C157 0.960 . S
H160 C157 0.961 . S
O161 Co136 1.967 . S
O161 C169 1.258 . S
O162 Co137 1.941 1_554 S
O162 C169 1.266 . S
H163 C165 0.959 . S
H164 C165 0.961 . S
C165 C155 1.510 . S
C165 H163 0.959 . S
C165 H164 0.961 . S
C165 H166 0.960 . S
H166 C165 0.960 . S
H167 N147 0.862 . S
O168 Co136 1.920 . S
O168 C141 1.289 . S
C169 O161 1.258 . S
C169 O162 1.266 . S
Co170 O173 1.970 . S
Co170 N187 1.989 . S
Co170 O195 1.967 . S
Co170 O202 1.920 . S
Co171 O174 1.966 . S
Co171 N180 2.022 . S
Co171 N188 1.993 . S
Co171 O196 1.941 . S
C172 O173 1.258 . S
C172 O174 1.263 . S
O173 Co170 1.970 . S
O173 C172 1.258 . S
O174 Co171 1.966 . S
O174 C172 1.263 . S
C175 O176 1.235 . S
C175 O202 1.289 . S
O176 C175 1.235 . S
C177 C179 1.400 1_455 S
C177 N180 1.351 . S
C177 C182 1.501 . S
C178 C179 1.387 . S
C178 N181 1.341 . S
C179 C177 1.400 1_655 S
C179 C178 1.387 . S
N180 Co171 2.022 . S
N180 C177 1.351 . S
N180 N181 1.365 1_455 S
N181 C178 1.341 . S
N181 N180 1.365 1_655 S
N181 H201 0.862 . S
C182 C177 1.501 . S
C182 H183 0.961 . S
C182 H184 0.961 . S
C182 H185 0.960 . S
H183 C182 0.961 . S
H184 C182 0.961 . S
H185 C182 0.960 . S
C186 N187 1.342 . S
C186 C190 1.401 . S
C186 C191 1.499 . S
N187 Co170 1.989 . S
N187 C186 1.342 . S
N187 N188 1.388 . S
N188 Co171 1.993 . S
N188 N187 1.388 . S
N188 C189 1.346 . S
C189 N188 1.346 . S
C189 C190 1.396 . S
C189 C199 1.510 1_455 S
C190 C186 1.401 . S
C190 C189 1.396 . S
C191 C186 1.499 . S
C191 H192 0.959 . S
C191 H193 0.960 . S
C191 H194 0.961 . S
H192 C191 0.959 . S
H193 C191 0.960 . S
H194 C191 0.961 . S
O195 Co170 1.967 . S
O195 C203 1.258 . S
O196 Co171 1.941 . S
O196 C203 1.266 . S
H197 C199 0.959 . S
H198 C199 0.961 . S
C199 C189 1.510 1_655 S
C199 H197 0.959 . S
C199 H198 0.961 . S
C199 H200 0.960 . S
H200 C199 0.960 . S
H201 N181 0.862 . S
O202 Co170 1.920 . S
O202 C175 1.289 . S
C203 O195 1.258 . S
C203 O196 1.266 . S
Co204 O207 1.970 . S
Co204 N221 1.989 . S
Co204 O229 1.967 . S
Co204 O236 1.920 . S
Co205 O208 1.966 . S
Co205 N214 2.022 . S
Co205 N222 1.993 . S
Co205 O230 1.941 . S
C206 O207 1.258 . S
C206 O208 1.263 . S
O207 Co204 1.970 . S
O207 C206 1.258 . S
O208 Co205 1.966 . S
O208 C206 1.263 . S
C209 O210 1.235 . S
C209 O236 1.289 . S
O210 C209 1.235 . S
C211 C213 1.400 1_655 S
C211 N214 1.351 . S
C211 C216 1.501 . S
C212 C213 1.387 . S
C212 N215 1.341 . S
C213 C211 1.400 1_455 S
C213 C212 1.387 . S
N214 Co205 2.022 . S
N214 C211 1.351 . S
N214 N215 1.365 1_655 S
N215 C212 1.341 . S
N215 N214 1.365 1_455 S
N215 H235 0.862 . S
C216 C211 1.501 . S
C216 H217 0.961 . S
C216 H218 0.961 . S
C216 H219 0.960 . S
H217 C216 0.961 . S
H218 C216 0.961 . S
H219 C216 0.960 . S
C220 N221 1.342 . S
C220 C224 1.401 . S
C220 C225 1.499 . S
N221 Co204 1.989 . S
N221 C220 1.342 . S
N221 N222 1.388 . S
N222 Co205 1.993 . S
N222 N221 1.388 . S
N222 C223 1.346 . S
C223 N222 1.346 . S
C223 C224 1.396 . S
C223 C233 1.510 1_655 S
C224 C220 1.401 . S
C224 C223 1.396 . S
C225 C220 1.499 . S
C225 H226 0.959 . S
C225 H227 0.960 . S
C225 H228 0.961 . S
H226 C225 0.959 . S
H227 C225 0.960 . S
H228 C225 0.961 . S
O229 Co204 1.967 . S
O229 C237 1.258 . S
O230 Co205 1.941 . S
O230 C237 1.266 . S
H231 C233 0.959 . S
H232 C233 0.961 . S
C233 C223 1.510 1_455 S
C233 H231 0.959 . S
C233 H232 0.961 . S
C233 H234 0.960 . S
H234 C233 0.960 . S
H235 N215 0.862 . S
O236 Co204 1.920 . S
O236 C209 1.289 . S
C237 O229 1.258 . S
C237 O230 1.266 . S
Co238 O241 1.970 . S
Co238 N255 1.989 . S
Co238 O263 1.967 . S
Co238 O270 1.920 . S
Co239 O242 1.966 . S
Co239 N248 2.022 . S
Co239 N256 1.993 . S
Co239 O264 1.941 . S
C240 O241 1.258 . S
C240 O242 1.263 . S
O241 Co238 1.970 . S
O241 C240 1.258 . S
O242 Co239 1.966 . S
O242 C240 1.263 . S
C243 O244 1.235 . S
C243 O270 1.289 . S
O244 C243 1.235 . S
C245 C247 1.400 1_565 S
C245 N248 1.351 . S
C245 C250 1.501 . S
C246 C247 1.387 . S
C246 N249 1.341 . S
C247 C245 1.400 1_545 S
C247 C246 1.387 . S
N248 Co239 2.022 . S
N248 C245 1.351 . S
N248 N249 1.365 1_565 S
N249 C246 1.341 . S
N249 N248 1.365 1_545 S
N249 H269 0.862 . S
C250 C245 1.501 . S
C250 H251 0.961 . S
C250 H252 0.961 . S
C250 H253 0.960 . S
H251 C250 0.961 . S
H252 C250 0.961 . S
H253 C250 0.960 . S
C254 N255 1.342 . S
C254 C258 1.401 . S
C254 C259 1.499 . S
N255 Co238 1.989 . S
N255 C254 1.342 . S
N255 N256 1.388 . S
N256 Co239 1.993 . S
N256 N255 1.388 . S
N256 C257 1.346 . S
C257 N256 1.346 . S
C257 C258 1.396 . S
C257 C267 1.510 1_565 S
C258 C254 1.401 . S
C258 C257 1.396 . S
C259 C254 1.499 . S
C259 H260 0.959 . S
C259 H261 0.960 . S
C259 H262 0.961 . S
H260 C259 0.959 . S
H261 C259 0.960 . S
H262 C259 0.961 . S
O263 Co238 1.967 . S
O263 C271 1.258 . S
O264 Co239 1.941 . S
O264 C271 1.266 . S
H265 C267 0.959 . S
H266 C267 0.961 . S
C267 C257 1.510 1_545 S
C267 H265 0.959 . S
C267 H266 0.961 . S
C267 H268 0.960 . S
H268 C267 0.960 . S
H269 N249 0.862 . S
O270 Co238 1.920 . S
O270 C243 1.289 . S
C271 O263 1.258 . S
C271 O264 1.266 . S
Co272 O275 1.970 . S
Co272 N289 1.989 . S
Co272 O297 1.967 . S
Co272 O304 1.920 . S
Co273 O276 1.966 . S
Co273 N282 2.022 . S
Co273 N290 1.993 . S
Co273 O298 1.941 . S
C274 O275 1.258 . S
C274 O276 1.263 . S
O275 Co272 1.970 . S
O275 C274 1.258 . S
O276 Co273 1.966 . S
O276 C274 1.263 . S
C277 O278 1.235 . S
C277 O304 1.289 . S
O278 C277 1.235 . S
C279 C281 1.400 . S
C279 N282 1.351 . S
C279 C284 1.501 . S
C280 C281 1.387 . S
C280 N283 1.341 . S
C281 C279 1.400 . S
C281 C280 1.387 . S
N282 Co273 2.022 . S
N282 C279 1.351 . S
N282 N283 1.365 . S
N283 C280 1.341 . S
N283 N282 1.365 . S
N283 H303 0.862 . S
C284 C279 1.501 . S
C284 H285 0.961 . S
C284 H286 0.961 . S
C284 H287 0.960 . S
H285 C284 0.961 . S
H286 C284 0.961 . S
H287 C284 0.960 . S
C288 N289 1.342 . S
C288 C292 1.401 . S
C288 C293 1.499 . S
N289 Co272 1.989 . S
N289 C288 1.342 . S
N289 N290 1.388 . S
N290 Co273 1.993 . S
N290 N289 1.388 . S
N290 C291 1.346 . S
C291 N290 1.346 . S
C291 C292 1.396 . S
C291 C301 1.510 . S
C292 C288 1.401 . S
C292 C291 1.396 . S
C293 C288 1.499 . S
C293 H294 0.959 . S
C293 H295 0.960 . S
C293 H296 0.961 . S
H294 C293 0.959 . S
H295 C293 0.960 . S
H296 C293 0.961 . S
O297 Co272 1.967 . S
O297 C305 1.258 . S
O298 Co273 1.941 . S
O298 C305 1.266 . S
H299 C301 0.959 . S
H300 C301 0.961 . S
C301 C291 1.510 . S
C301 H299 0.959 . S
C301 H300 0.961 . S
C301 H302 0.960 . S
H302 C301 0.960 . S
H303 N283 0.862 . S
O304 Co272 1.920 . S
O304 C277 1.289 . S
C305 O297 1.258 . S
C305 O298 1.266 . S
Co306 O309 1.970 . S
Co306 N323 1.989 . S
Co306 O331 1.967 . S
Co306 O338 1.920 . S
Co307 O310 1.966 . S
Co307 N316 2.022 1_556 S
Co307 N324 1.993 . S
Co307 O332 1.941 . S
C308 O309 1.258 . S
C308 O310 1.263 . S
O309 Co306 1.970 . S
O309 C308 1.258 . S
O310 Co307 1.966 . S
O310 C308 1.263 . S
C311 O312 1.235 . S
C311 O338 1.289 . S
O312 C311 1.235 . S
C313 C315 1.400 1_455 S
C313 N316 1.351 . S
C313 C318 1.501 . S
C314 C315 1.387 . S
C314 N317 1.341 . S
C315 C313 1.400 1_655 S
C315 C314 1.387 . S
N316 Co307 2.022 1_554 S
N316 C313 1.351 . S
N316 N317 1.365 1_455 S
N317 C314 1.341 . S
N317 N316 1.365 1_655 S
N317 H337 0.862 1_554 S
C318 C313 1.501 . S
C318 H319 0.961 . S
C318 H320 0.961 . S
C318 H321 0.960 . S
H319 C318 0.961 . S
H320 C318 0.961 . S
H321 C318 0.960 . S
C322 N323 1.342 . S
C322 C326 1.401 . S
C322 C327 1.499 . S
N323 Co306 1.989 . S
N323 C322 1.342 . S
N323 N324 1.388 . S
N324 Co307 1.993 . S
N324 N323 1.388 . S
N324 C325 1.346 . S
C325 N324 1.346 . S
C325 C326 1.396 . S
C325 C335 1.510 1_456 S
C326 C322 1.401 . S
C326 C325 1.396 . S
C327 C322 1.499 . S
C327 H328 0.959 . S
C327 H329 0.960 . S
C327 H330 0.961 . S
H328 C327 0.959 . S
H329 C327 0.960 . S
H330 C327 0.961 . S
O331 Co306 1.967 . S
O331 C339 1.258 . S
O332 Co307 1.941 . S
O332 C339 1.266 . S
H333 C335 0.959 1_556 S
H334 C335 0.961 . S
C335 C325 1.510 1_654 S
C335 H333 0.959 1_554 S
C335 H334 0.961 . S
C335 H336 0.960 . S
H336 C335 0.960 . S
H337 N317 0.862 1_556 S
O338 Co306 1.920 . S
O338 C311 1.289 . S
C339 O331 1.258 . S
C339 O332 1.266 . S
Co340 O343 1.970 . S
Co340 N357 1.989 . S
Co340 O365 1.967 . S
Co340 O372 1.920 . S
Co341 O344 1.966 . S
Co341 N350 2.022 . S
Co341 N358 1.993 . S
Co341 O366 1.941 . S
C342 O343 1.258 . S
C342 O344 1.263 . S
O343 Co340 1.970 . S
O343 C342 1.258 . S
O344 Co341 1.966 . S
O344 C342 1.263 . S
C345 O346 1.235 . S
C345 O372 1.289 . S
O346 C345 1.235 . S
C347 C349 1.400 1_545 S
C347 N350 1.351 . S
C347 C352 1.501 . S
C348 C349 1.387 . S
C348 N351 1.341 . S
C349 C347 1.400 1_565 S
C349 C348 1.387 . S
N350 Co341 2.022 . S
N350 C347 1.351 . S
N350 N351 1.365 1_545 S
N351 C348 1.341 . S
N351 N350 1.365 1_565 S
N351 H371 0.862 . S
C352 C347 1.501 . S
C352 H353 0.961 . S
C352 H354 0.961 . S
C352 H355 0.960 . S
H353 C352 0.961 . S
H354 C352 0.961 . S
H355 C352 0.960 . S
C356 N357 1.342 . S
C356 C360 1.401 . S
C356 C361 1.499 . S
N357 Co340 1.989 . S
N357 C356 1.342 . S
N357 N358 1.388 . S
N358 Co341 1.993 . S
N358 N357 1.388 . S
N358 C359 1.346 . S
C359 N358 1.346 . S
C359 C360 1.396 . S
C359 C369 1.510 1_545 S
C360 C356 1.401 . S
C360 C359 1.396 . S
C361 C356 1.499 . S
C361 H362 0.959 . S
C361 H363 0.960 . S
C361 H364 0.961 . S
H362 C361 0.959 . S
H363 C361 0.960 . S
H364 C361 0.961 . S
O365 Co340 1.967 . S
O365 C373 1.258 . S
O366 Co341 1.941 . S
O366 C373 1.266 . S
H367 C369 0.959 . S
H368 C369 0.961 . S
C369 C359 1.510 1_565 S
C369 H367 0.959 . S
C369 H368 0.961 . S
C369 H370 0.960 . S
H370 C369 0.960 . S
H371 N351 0.862 . S
O372 Co340 1.920 . S
O372 C345 1.289 . S
C373 O365 1.258 . S
C373 O366 1.266 . S
Co374 O377 1.970 . S
Co374 N391 1.989 . S
Co374 O399 1.967 . S
Co374 O406 1.920 . S
Co375 O378 1.966 . S
Co375 N384 2.022 . S
Co375 N392 1.993 . S
Co375 O400 1.941 . S
C376 O377 1.258 . S
C376 O378 1.263 . S
O377 Co374 1.970 . S
O377 C376 1.258 . S
O378 Co375 1.966 . S
O378 C376 1.263 . S
C379 O380 1.235 . S
C379 O406 1.289 . S
O380 C379 1.235 . S
C381 C383 1.400 . S
C381 N384 1.351 . S
C381 C386 1.501 . S
C382 C383 1.387 . S
C382 N385 1.341 . S
C383 C381 1.400 . S
C383 C382 1.387 . S
N384 Co375 2.022 . S
N384 C381 1.351 . S
N384 N385 1.365 . S
N385 C382 1.341 . S
N385 N384 1.365 . S
N385 H405 0.862 . S
C386 C381 1.501 . S
C386 H387 0.961 . S
C386 H388 0.961 . S
C386 H389 0.960 . S
H387 C386 0.961 . S
H388 C386 0.961 . S
H389 C386 0.960 . S
C390 N391 1.342 . S
C390 C394 1.401 . S
C390 C395 1.499 . S
N391 Co374 1.989 . S
N391 C390 1.342 . S
N391 N392 1.388 . S
N392 Co375 1.993 . S
N392 N391 1.388 . S
N392 C393 1.346 . S
C393 N392 1.346 . S
C393 C394 1.396 . S
C393 C403 1.510 . S
C394 C390 1.401 . S
C394 C393 1.396 . S
C395 C390 1.499 . S
C395 H396 0.959 . S
C395 H397 0.960 . S
C395 H398 0.961 . S
H396 C395 0.959 . S
H397 C395 0.960 . S
H398 C395 0.961 . S
O399 Co374 1.967 . S
O399 C407 1.258 . S
O400 Co375 1.941 . S
O400 C407 1.266 . S
H401 C403 0.959 . S
H402 C403 0.961 . S
C403 C393 1.510 . S
C403 H401 0.959 . S
C403 H402 0.961 . S
C403 H404 0.960 . S
H404 C403 0.960 . S
H405 N385 0.862 . S
O406 Co374 1.920 . S
O406 C379 1.289 . S
C407 O399 1.258 . S
C407 O400 1.266 . S
C408 C409 1.363 . S
C408 C414 1.379 . S
C408 N416 1.356 1_565 S
C409 C408 1.363 . S
C409 C415 1.363 . S
C410 C411 1.363 . S
C410 C415 1.379 . S
C410 N417 1.356 . S
C411 C410 1.363 . S
C411 C414 1.363 . S
N412 C414 1.356 . S
N412 H424 0.984 . S
N412 H425 0.985 . S
N413 C415 1.356 . S
N413 H418 0.984 . S
N413 H419 0.985 . S
C414 C408 1.379 . S
C414 C411 1.363 . S
C414 N412 1.356 . S
C415 C409 1.363 . S
C415 C410 1.379 . S
C415 N413 1.356 . S
N416 C408 1.356 1_545 S
N416 H422 0.984 . S
N416 H423 0.984 . S
N417 C410 1.356 . S
N417 H420 0.984 . S
N417 H421 0.985 . S
H418 N413 0.984 . S
H419 N413 0.985 . S
H420 N417 0.984 . S
H421 N417 0.985 . S
H422 N416 0.984 . S
H423 N416 0.984 . S
H424 N412 0.984 . S
H425 N412 0.985 . S
C426 C427 1.363 . S
C426 C432 1.379 . S
C426 N434 1.356 . S
C427 C426 1.363 . S
C427 C433 1.363 . S
C428 C429 1.363 . S
C428 C433 1.379 . S
C428 N435 1.356 . S
C429 C428 1.363 . S
C429 C432 1.363 . S
N430 C432 1.356 . S
N430 H442 0.984 . S
N430 H443 0.985 . S
N431 C433 1.356 . S
N431 H436 0.984 . S
N431 H437 0.985 . S
C432 C426 1.379 . S
C432 C429 1.363 . S
C432 N430 1.356 . S
C433 C427 1.363 . S
C433 C428 1.379 . S
C433 N431 1.356 . S
N434 C426 1.356 . S
N434 H440 0.984 . S
N434 H441 0.984 . S
N435 C428 1.356 . S
N435 H438 0.984 . S
N435 H439 0.985 . S
H436 N431 0.984 . S
H437 N431 0.985 . S
H438 N435 0.984 . S
H439 N435 0.985 . S
H440 N434 0.984 . S
H441 N434 0.984 . S
H442 N430 0.984 . S
H443 N430 0.985 . S
C444 C445 1.363 . S
C444 C450 1.379 1_455 S
C444 N452 1.356 1_455 S
C445 C444 1.363 . S
C445 C451 1.363 . S
C446 C447 1.363 . S
C446 C451 1.379 . S
C446 N453 1.356 . S
C447 C446 1.363 . S
C447 C450 1.363 1_455 S
N448 C450 1.356 . S
N448 H460 0.984 . S
N448 H461 0.985 . S
N449 C451 1.356 . S
N449 H454 0.984 . S
N449 H455 0.985 . S
C450 C444 1.379 1_655 S
C450 C447 1.363 1_655 S
C450 N448 1.356 . S
C451 C445 1.363 . S
C451 C446 1.379 . S
C451 N449 1.356 . S
N452 C444 1.356 1_655 S
N452 H458 0.984 . S
N452 H459 0.984 1_655 S
N453 C446 1.356 . S
N453 H456 0.984 . S
N453 H457 0.985 . S
H454 N449 0.984 . S
H455 N449 0.985 . S
H456 N453 0.984 . S
H457 N453 0.985 . S
H458 N452 0.984 . S
H459 N452 0.984 1_455 S
H460 N448 0.984 . S
H461 N448 0.985 . S
C462 C463 1.363 1_565 S
C462 C468 1.379 . S
C462 N470 1.356 . S
C463 C462 1.363 1_545 S
C463 C469 1.363 . S
C464 C465 1.363 . S
C464 C469 1.379 . S
C464 N471 1.356 . S
C465 C464 1.363 . S
C465 C468 1.363 1_545 S
N466 C468 1.356 . S
N466 H478 0.984 . S
N466 H479 0.985 . S
N467 C469 1.356 . S
N467 H472 0.984 . S
N467 H473 0.985 . S
C468 C462 1.379 . S
C468 C465 1.363 1_565 S
C468 N466 1.356 . S
C469 C463 1.363 . S
C469 C464 1.379 . S
C469 N467 1.356 . S
N470 C462 1.356 . S
N470 H476 0.984 . S
N470 H477 0.984 . S
N471 C464 1.356 . S
N471 H474 0.984 . S
N471 H475 0.985 . S
H472 N467 0.984 . S
H473 N467 0.985 . S
H474 N471 0.984 . S
H475 N471 0.985 . S
H476 N470 0.984 . S
H477 N470 0.984 . S
H478 N466 0.984 . S
H479 N466 0.985 . S
C480 C481 1.363 . S
C480 C486 1.379 1_554 S
C480 N488 1.356 . S
C481 C480 1.363 . S
C481 C487 1.363 . S
C482 C483 1.363 . S
C482 C487 1.379 1_556 S
C482 N489 1.356 . S
C483 C482 1.363 . S
C483 C486 1.363 . S
N484 C486 1.356 . S
N484 H496 0.984 . S
N484 H497 0.985 . S
N485 C487 1.356 . S
N485 H490 0.984 . S
N485 H491 0.985 . S
C486 C480 1.379 1_556 S
C486 C483 1.363 . S
C486 N484 1.356 . S
C487 C481 1.363 . S
C487 C482 1.379 1_554 S
C487 N485 1.356 . S
N488 C480 1.356 . S
N488 H494 0.984 . S
N488 H495 0.984 . S
N489 C482 1.356 . S
N489 H492 0.984 . S
N489 H493 0.985 . S
H490 N485 0.984 . S
H491 N485 0.985 . S
H492 N489 0.984 . S
H493 N489 0.985 . S
H494 N488 0.984 . S
H495 N488 0.984 . S
H496 N484 0.984 . S
H497 N484 0.985 . S
C498 C499 1.363 . S
C498 C504 1.379 . S
C498 N506 1.356 . S
C499 C498 1.363 . S
C499 C505 1.363 . S
C500 C501 1.363 . S
C500 C505 1.379 . S
C500 N507 1.356 . S
C501 C500 1.363 . S
C501 C504 1.363 . S
N502 C504 1.356 . S
N502 H514 0.984 . S
N502 H515 0.985 . S
N503 C505 1.356 1_455 S
N503 H508 0.984 . S
N503 H509 0.985 . S
C504 C498 1.379 . S
C504 C501 1.363 . S
C504 N502 1.356 . S
C505 C499 1.363 . S
C505 C500 1.379 . S
C505 N503 1.356 1_655 S
N506 C498 1.356 . S
N506 H512 0.984 . S
N506 H513 0.984 . S
N507 C500 1.356 . S
N507 H510 0.984 . S
N507 H511 0.985 1_655 S
H508 N503 0.984 . S
H509 N503 0.985 . S
H510 N507 0.984 . S
H511 N507 0.985 1_455 S
H512 N506 0.984 . S
H513 N506 0.984 . S
H514 N502 0.984 . S
H515 N502 0.985 . S
C516 C517 1.363 1_655 S
C516 C522 1.379 . S
C516 N524 1.356 . S
C517 C516 1.363 1_455 S
C517 C523 1.363 . S
C518 C519 1.363 . S
C518 C523 1.379 . S
C518 N525 1.356 . S
C519 C518 1.363 . S
C519 C522 1.363 1_455 S
N520 C522 1.356 . S
N520 H532 0.984 . S
N520 H533 0.985 . S
N521 C523 1.356 . S
N521 H526 0.984 . S
N521 H527 0.985 . S
C522 C516 1.379 . S
C522 C519 1.363 1_655 S
C522 N520 1.356 . S
C523 C517 1.363 . S
C523 C518 1.379 . S
C523 N521 1.356 . S
N524 C516 1.356 . S
N524 H530 0.984 . S
N524 H531 0.984 . S
N525 C518 1.356 . S
N525 H528 0.984 . S
N525 H529 0.985 . S
H526 N521 0.984 . S
H527 N521 0.985 . S
H528 N525 0.984 . S
H529 N525 0.985 . S
H530 N524 0.984 . S
H531 N524 0.984 . S
H532 N520 0.984 . S
H533 N520 0.985 . S
C534 C535 1.363 . S
C534 C540 1.379 . S
C534 N542 1.356 . S
C535 C534 1.363 . S
C535 C541 1.363 . S
C536 C537 1.363 . S
C536 C541 1.379 . S
C536 N543 1.356 . S
C537 C536 1.363 . S
C537 C540 1.363 . S
N538 C540 1.356 . S
N538 H550 0.984 . S
N538 H551 0.985 . S
N539 C541 1.356 1_565 S
N539 H544 0.984 . S
N539 H545 0.985 . S
C540 C534 1.379 . S
C540 C537 1.363 . S
C540 N538 1.356 . S
C541 C535 1.363 . S
C541 C536 1.379 . S
C541 N539 1.356 1_545 S
N542 C534 1.356 . S
N542 H548 0.984 . S
N542 H549 0.984 . S
N543 C536 1.356 . S
N543 H546 0.984 . S
N543 H547 0.985 . S
H544 N539 0.984 . S
H545 N539 0.985 . S
H546 N543 0.984 . S
H547 N543 0.985 . S
H548 N542 0.984 . S
H549 N542 0.984 . S
H550 N538 0.984 . S
H551 N538 0.985 . S
C552 C553 1.363 . S
C552 C558 1.379 . S
C552 N560 1.356 . S
C553 C552 1.363 . S
C553 C559 1.363 . S
C554 C555 1.363 . S
C554 C559 1.379 . S
C554 N561 1.356 . S
C555 C554 1.363 . S
C555 C558 1.363 . S
N556 C558 1.356 . S
N556 H568 0.984 . S
N556 H569 0.985 . S
N557 C559 1.356 . S
N557 H562 0.984 . S
N557 H563 0.985 . S
C558 C552 1.379 . S
C558 C555 1.363 . S
C558 N556 1.356 . S
C559 C553 1.363 . S
C559 C554 1.379 . S
C559 N557 1.356 . S
N560 C552 1.356 . S
N560 H566 0.984 . S
N560 H567 0.984 . S
N561 C554 1.356 . S
N561 H564 0.984 . S
N561 H565 0.985 . S
H562 N557 0.984 . S
H563 N557 0.985 . S
H564 N561 0.984 . S
H565 N561 0.985 . S
H566 N560 0.984 . S
H567 N560 0.984 . S
H568 N556 0.984 . S
H569 N556 0.985 . S
C570 C571 1.363 . S
C570 C576 1.379 . S
C570 N578 1.356 . S
C571 C570 1.363 . S
C571 C577 1.363 1_655 S
C572 C573 1.372 . S
C572 C577 1.372 1_655 S
C572 N579 1.357 1_655 S
C573 C572 1.372 . S
C573 C576 1.363 . S
N574 C576 1.356 . S
N574 H586 0.993 . S
N574 H587 0.985 . S
N575 C577 1.356 . S
N575 H580 0.984 . S
N575 H581 0.985 . S
C576 C570 1.379 . S
C576 C573 1.363 . S
C576 N574 1.356 . S
C577 C571 1.363 1_455 S
C577 C572 1.372 1_455 S
C577 N575 1.356 . S
N578 C570 1.356 . S
N578 H584 0.984 . S
N578 H585 0.984 . S
N579 C572 1.357 1_455 S
N579 H582 0.984 . S
N579 H583 0.985 . S
H580 N575 0.984 . S
H581 N575 0.985 . S
H582 N579 0.984 . S
H583 N579 0.985 . S
H584 N578 0.984 . S
H585 N578 0.984 . S
H586 N574 0.993 . S
H587 N574 0.985 . S
C588 C589 1.363 . S
C588 C594 1.379 . S
C588 N596 1.356 . S
C589 C588 1.363 . S
C589 C595 1.363 . S
C590 C591 1.363 . S
C590 C595 1.379 . S
C590 N597 1.356 . S
C591 C590 1.363 . S
C591 C594 1.363 . S
N592 C594 1.356 . S
N592 H604 0.984 . S
N592 H605 0.985 . S
N593 C595 1.356 . S
N593 H598 0.984 . S
N593 H599 0.985 . S
C594 C588 1.379 . S
C594 C591 1.363 . S
C594 N592 1.356 . S
C595 C589 1.363 . S
C595 C590 1.379 . S
C595 N593 1.356 . S
N596 C588 1.356 . S
N596 H602 0.984 . S
N596 H603 0.984 . S
N597 C590 1.356 . S
N597 H600 0.984 . S
N597 H601 0.985 . S
H598 N593 0.984 . S
H599 N593 0.985 . S
H600 N597 0.984 . S
H601 N597 0.985 . S
H602 N596 0.984 . S
H603 N596 0.984 . S
H604 N592 0.984 . S
H605 N592 0.985 . S
C606 C607 1.363 . S
C606 C612 1.379 . S
C606 N614 1.356 . S
C607 C606 1.363 . S
C607 C613 1.363 . S
C608 C609 1.363 . S
C608 C613 1.379 . S
C608 N615 1.356 . S
C609 C608 1.363 . S
C609 C612 1.363 . S
N610 C612 1.356 . S
N610 H622 0.984 . S
N610 H623 0.985 . S
N611 C613 1.356 . S
N611 H616 0.984 . S
N611 H617 0.985 . S
C612 C606 1.379 . S
C612 C609 1.363 . S
C612 N610 1.356 . S
C613 C607 1.363 . S
C613 C608 1.379 . S
C613 N611 1.356 . S
N614 C606 1.356 . S
N614 H620 0.984 . S
N614 H621 0.984 . S
N615 C608 1.356 . S
N615 H618 0.984 . S
N615 H619 0.985 . S
H616 N611 0.984 . S
H617 N611 0.985 . S
H618 N615 0.984 . S
H619 N615 0.985 . S
H620 N614 0.984 . S
H621 N614 0.984 . S
H622 N610 0.984 . S
H623 N610 0.985 . S
C624 C625 1.363 . S
C624 C630 1.379 . S
C624 N632 1.356 . S
C625 C624 1.363 . S
C625 C631 1.363 . S
C626 C627 1.363 . S
C626 C631 1.379 . S
C626 N633 1.356 . S
C627 C626 1.363 . S
C627 C630 1.363 . S
N628 C630 1.356 . S
N628 H640 0.984 . S
N628 H641 0.985 . S
N629 C631 1.356 . S
N629 H634 0.984 . S
N629 H635 0.985 . S
C630 C624 1.379 . S
C630 C627 1.363 . S
C630 N628 1.356 . S
C631 C625 1.363 . S
C631 C626 1.379 . S
C631 N629 1.356 . S
N632 C624 1.356 . S
N632 H638 0.984 . S
N632 H639 0.984 . S
N633 C626 1.356 . S
N633 H636 0.984 . S
N633 H637 0.985 . S
H634 N629 0.984 . S
H635 N629 0.985 . S
H636 N633 0.984 . S
H637 N633 0.985 . S
H638 N632 0.984 . S
H639 N632 0.984 . S
H640 N628 0.984 . S
H641 N628 0.985 . S
C642 C643 1.363 . S
C642 C648 1.379 . S
C642 N650 1.356 . S
C643 C642 1.363 . S
C643 C649 1.363 . S
C644 C645 1.363 . S
C644 C649 1.379 . S
C644 N651 1.356 . S
C645 C644 1.363 . S
C645 C648 1.363 . S
N646 C648 1.356 . S
N646 H658 0.984 . S
N646 H659 0.985 . S
N647 C649 1.356 . S
N647 H652 0.984 . S
N647 H653 0.985 . S
C648 C642 1.379 . S
C648 C645 1.363 . S
C648 N646 1.356 . S
C649 C643 1.363 . S
C649 C644 1.379 . S
C649 N647 1.356 . S
N650 C642 1.356 . S
N650 H656 0.984 . S
N650 H657 0.984 . S
N651 C644 1.356 . S
N651 H654 0.984 . S
N651 H655 0.985 . S
H652 N647 0.984 . S
H653 N647 0.985 . S
H654 N651 0.984 . S
H655 N651 0.985 . S
H656 N650 0.984 . S
H657 N650 0.984 . S
H658 N646 0.984 . S
H659 N646 0.985 . S
C660 C661 1.363 . S
C660 C666 1.379 . S
C660 N668 1.356 . S
C661 C660 1.363 . S
C661 C667 1.363 . S
C662 C663 1.363 . S
C662 C667 1.379 . S
C662 N669 1.356 . S
C663 C662 1.363 . S
C663 C666 1.363 . S
N664 C666 1.356 . S
N664 H676 0.984 . S
N664 H677 0.985 . S
N665 C667 1.356 . S
N665 H670 0.984 . S
N665 H671 0.985 . S
C666 C660 1.379 . S
C666 C663 1.363 . S
C666 N664 1.356 . S
C667 C661 1.363 . S
C667 C662 1.379 . S
C667 N665 1.356 . S
N668 C660 1.356 . S
N668 H674 0.984 . S
N668 H675 0.984 . S
N669 C662 1.356 . S
N669 H672 0.984 . S
N669 H673 0.985 . S
H670 N665 0.984 . S
H671 N665 0.985 . S
H672 N669 0.984 . S
H673 N669 0.985 . S
H674 N668 0.984 . S
H675 N668 0.984 . S
H676 N664 0.984 . S
H677 N664 0.985 . S
C678 C679 1.363 . S
C678 C684 1.379 . S
C678 N686 1.356 . S
C679 C678 1.363 . S
C679 C685 1.363 . S
C680 C681 1.363 . S
C680 C685 1.379 . S
C680 N687 1.356 . S
C681 C680 1.363 . S
C681 C684 1.363 . S
N682 C684 1.356 . S
N682 H694 0.984 . S
N682 H695 0.985 . S
N683 C685 1.356 . S
N683 H688 0.984 . S
N683 H689 0.985 . S
C684 C678 1.379 . S
C684 C681 1.363 . S
C684 N682 1.356 . S
C685 C679 1.363 . S
C685 C680 1.379 . S
C685 N683 1.356 . S
N686 C678 1.356 . S
N686 H692 0.984 . S
N686 H693 0.984 . S
N687 C680 1.356 . S
N687 H690 0.984 . S
N687 H691 0.985 . S
H688 N683 0.984 . S
H689 N683 0.985 . S
H690 N687 0.984 . S
H691 N687 0.985 . S
H692 N686 0.984 . S
H693 N686 0.984 . S
H694 N682 0.984 . S
H695 N682 0.985 . S
C696 C697 1.363 . S
C696 C702 1.379 . S
C696 N704 1.356 . S
C697 C696 1.363 . S
C697 C703 1.363 . S
C698 C699 1.363 . S
C698 C703 1.379 . S
C698 N705 1.356 . S
C699 C698 1.363 . S
C699 C702 1.363 . S
N700 C702 1.356 . S
N700 H712 0.984 . S
N700 H713 0.985 . S
N701 C703 1.356 . S
N701 H706 0.984 . S
N701 H707 0.985 . S
C702 C696 1.379 . S
C702 C699 1.363 . S
C702 N700 1.356 . S
C703 C697 1.363 . S
C703 C698 1.379 . S
C703 N701 1.356 . S
N704 C696 1.356 . S
N704 H710 0.984 . S
N704 H711 0.984 . S
N705 C698 1.356 . S
N705 H708 0.984 . S
N705 H709 0.985 . S
H706 N701 0.984 . S
H707 N701 0.985 . S
H708 N705 0.984 . S
H709 N705 0.985 . S
H710 N704 0.984 . S
H711 N704 0.984 . S
H712 N700 0.984 . S
H713 N700 0.985 . S
C714 C715 1.363 . S
C714 C720 1.379 . S
C714 N722 1.356 . S
C715 C714 1.363 . S
C715 C721 1.363 . S
C716 C717 1.363 . S
C716 C721 1.379 . S
C716 N723 1.356 . S
C717 C716 1.363 . S
C717 C720 1.363 . S
N718 C720 1.356 . S
N718 H730 0.984 . S
N718 H731 0.985 . S
N719 C721 1.356 . S
N719 H724 0.984 . S
N719 H725 0.985 . S
C720 C714 1.379 . S
C720 C717 1.363 . S
C720 N718 1.356 . S
C721 C715 1.363 . S
C721 C716 1.379 . S
C721 N719 1.356 . S
N722 C714 1.356 . S
N722 H728 0.984 . S
N722 H729 0.984 . S
N723 C716 1.356 . S
N723 H726 0.984 . S
N723 H727 0.985 . S
H724 N719 0.984 . S
H725 N719 0.985 . S
H726 N723 0.984 . S
H727 N723 0.985 . S
H728 N722 0.984 . S
H729 N722 0.984 . S
H730 N718 0.984 . S
H731 N718 0.985 . S
C732 C733 1.363 . S
C732 C738 1.379 1_565 S
C732 N740 1.356 1_565 S
C733 C732 1.363 . S
C733 C739 1.363 . S
C734 C735 1.363 . S
C734 C739 1.379 . S
C734 N741 1.356 . S
C735 C734 1.363 . S
C735 C738 1.363 1_565 S
N736 C738 1.356 . S
N736 H748 0.984 . S
N736 H749 0.985 . S
N737 C739 1.356 . S
N737 H742 0.984 . S
N737 H743 0.985 1_455 S
C738 C732 1.379 1_545 S
C738 C735 1.363 1_545 S
C738 N736 1.356 . S
C739 C733 1.363 . S
C739 C734 1.379 . S
C739 N737 1.356 . S
N740 C732 1.356 1_545 S
N740 H746 0.984 . S
N740 H747 0.984 1_545 S
N741 C734 1.356 . S
N741 H744 0.984 . S
N741 H745 0.985 . S
H742 N737 0.984 . S
H743 N737 0.985 1_655 S
H744 N741 0.984 . S
H745 N741 0.985 . S
H746 N740 0.984 . S
H747 N740 0.984 1_565 S
H748 N736 0.984 . S
H749 N736 0.985 . S
C750 C751 1.363 . S
C750 C756 1.379 . S
C750 N758 1.356 . S
C751 C750 1.363 . S
C751 C757 1.363 . S
C752 C753 1.363 . S
C752 C757 1.379 . S
C752 N759 1.356 . S
C753 C752 1.363 . S
C753 C756 1.363 . S
N754 C756 1.356 . S
N754 H766 0.984 1_545 S
N754 H767 0.985 . S
N755 C757 1.356 . S
N755 H760 0.984 . S
N755 H761 0.985 . S
C756 C750 1.379 . S
C756 C753 1.363 . S
C756 N754 1.356 . S
C757 C751 1.363 . S
C757 C752 1.379 . S
C757 N755 1.356 . S
N758 C750 1.356 . S
N758 H764 0.984 1_545 S
N758 H765 0.984 . S
N759 C752 1.356 . S
N759 H762 0.984 . S
N759 H763 0.985 . S
H760 N755 0.984 . S
H761 N755 0.985 . S
H762 N759 0.984 . S
H763 N759 0.985 . S
H764 N758 0.984 1_565 S
H765 N758 0.984 . S
H766 N754 0.984 1_565 S
H767 N754 0.985 . S
C768 C769 1.363 . S
C768 C774 1.379 . S
C768 N776 1.356 . S
C769 C768 1.363 . S
C769 C775 1.363 . S
C770 C771 1.363 . S
C770 C775 1.379 . S
C770 N777 1.356 . S
C771 C770 1.363 . S
C771 C774 1.363 . S
N772 C774 1.356 . S
N772 H784 0.984 . S
N772 H785 0.985 . S
N773 C775 1.356 . S
N773 H778 0.984 1_455 S
N773 H779 0.985 . S
C774 C768 1.379 . S
C774 C771 1.363 . S
C774 N772 1.356 . S
C775 C769 1.363 . S
C775 C770 1.379 . S
C775 N773 1.356 . S
N776 C768 1.356 . S
N776 H782 0.984 . S
N776 H783 0.984 1_455 S
N777 C770 1.356 . S
N777 H780 0.984 . S
N777 H781 0.985 . S
H778 N773 0.984 1_655 S
H779 N773 0.985 . S
H780 N777 0.984 . S
H781 N777 0.985 . S
H782 N776 0.984 . S
H783 N776 0.984 1_655 S
H784 N772 0.984 . S
H785 N772 0.985 . S
C786 C787 1.363 1_565 S
C786 C792 1.379 1_565 S
C786 N794 1.356 . S
C787 C786 1.363 1_545 S
C787 C793 1.363 . S
C788 C789 1.363 . S
C788 C793 1.379 . S
C788 N795 1.356 . S
C789 C788 1.363 . S
C789 C792 1.363 . S
N790 C792 1.356 1_565 S
N790 H802 0.984 . S
N790 H803 0.985 1_565 S
N791 C793 1.356 . S
N791 H796 0.984 . S
N791 H797 0.985 . S
C792 C786 1.379 1_545 S
C792 C789 1.363 . S
C792 N790 1.356 1_545 S
C793 C787 1.363 . S
C793 C788 1.379 . S
C793 N791 1.356 . S
N794 C786 1.356 . S
N794 H800 0.984 . S
N794 H801 0.984 . S
N795 C788 1.356 . S
N795 H798 0.984 . S
N795 H799 0.985 . S
H796 N791 0.984 . S
H797 N791 0.985 . S
H798 N795 0.984 . S
H799 N795 0.985 . S
H800 N794 0.984 . S
H801 N794 0.984 . S
H802 N790 0.984 . S
H803 N790 0.985 1_545 S
C804 C805 1.363 . S
C804 C810 1.379 . S
C804 N812 1.356 . S
C805 C804 1.363 . S
C805 C811 1.363 . S
C806 C807 1.363 . S
C806 C811 1.379 . S
C806 N813 1.356 . S
C807 C806 1.363 . S
C807 C810 1.363 . S
N808 C810 1.356 . S
N808 H820 0.984 . S
N808 H821 0.985 . S
N809 C811 1.356 . S
N809 H814 0.984 . S
N809 H815 0.985 . S
C810 C804 1.379 . S
C810 C807 1.363 . S
C810 N808 1.356 . S
C811 C805 1.363 . S
C811 C806 1.379 . S
C811 N809 1.356 . S
N812 C804 1.356 . S
N812 H818 0.984 . S
N812 H819 0.984 . S
N813 C806 1.356 . S
N813 H816 0.984 . S
N813 H817 0.985 . S
H814 N809 0.984 . S
H815 N809 0.985 . S
H816 N813 0.984 . S
H817 N813 0.985 . S
H818 N812 0.984 . S
H819 N812 0.984 . S
H820 N808 0.984 . S
H821 N808 0.985 . S
C822 C823 1.363 . S
C822 C828 1.379 . S
C822 N830 1.356 . S
C823 C822 1.363 . S
C823 C829 1.363 . S
C824 C825 1.363 . S
C824 C829 1.379 . S
C824 N831 1.356 . S
C825 C824 1.363 . S
C825 C828 1.363 . S
N826 C828 1.356 . S
N826 H838 0.984 . S
N826 H839 0.985 . S
N827 C829 1.356 1_455 S
N827 H832 0.984 . S
N827 H833 0.985 . S
C828 C822 1.379 . S
C828 C825 1.363 . S
C828 N826 1.356 . S
C829 C823 1.363 . S
C829 C824 1.379 . S
C829 N827 1.356 1_655 S
N830 C822 1.356 . S
N830 H836 0.984 . S
N830 H837 0.984 . S
N831 C824 1.356 . S
N831 H834 0.984 . S
N831 H835 0.985 1_655 S
H832 N827 0.984 . S
H833 N827 0.985 . S
H834 N831 0.984 . S
H835 N831 0.985 1_455 S
H836 N830 0.984 . S
H837 N830 0.984 . S
H838 N826 0.984 . S
H839 N826 0.985 . S
C840 C841 1.363 1_655 S
C840 C846 1.379 1_655 S
C840 N848 1.356 . S
C841 C840 1.363 1_455 S
C841 C847 1.363 . S
C842 C843 1.363 . S
C842 C847 1.379 . S
C842 N849 1.356 . S
C843 C842 1.363 . S
C843 C846 1.363 . S
N844 C846 1.356 . S
N844 H856 0.984 1_455 S
N844 H857 0.985 . S
N845 C847 1.356 . S
N845 H850 0.984 . S
N845 H851 0.985 . S
C846 C840 1.379 1_455 S
C846 C843 1.363 . S
C846 N844 1.356 . S
C847 C841 1.363 . S
C847 C842 1.379 . S
C847 N845 1.356 . S
N848 C840 1.356 . S
N848 H854 0.984 . S
N848 H855 0.984 . S
N849 C842 1.356 . S
N849 H852 0.984 . S
N849 H853 0.985 1_565 S
H850 N845 0.984 . S
H851 N845 0.985 . S
H852 N849 0.984 . S
H853 N849 0.985 1_545 S
H854 N848 0.984 . S
H855 N848 0.984 . S
H856 N844 0.984 1_655 S
H857 N844 0.985 . S
C858 C859 1.363 . S
C858 C864 1.379 . S
C858 N866 1.356 . S
C859 C858 1.363 . S
C859 C865 1.363 . S
C860 C861 1.363 . S
C860 C865 1.379 . S
C860 N867 1.356 . S
C861 C860 1.363 . S
C861 C864 1.363 . S
N862 C864 1.356 1_565 S
N862 H874 0.984 . S
N862 H875 0.985 . S
N863 C865 1.356 . S
N863 H868 0.984 . S
N863 H869 0.985 . S
C864 C858 1.379 . S
C864 C861 1.363 . S
C864 N862 1.356 1_545 S
C865 C859 1.363 . S
C865 C860 1.379 . S
C865 N863 1.356 . S
N866 C858 1.356 . S
N866 H872 0.984 . S
N866 H873 0.984 . S
N867 C860 1.356 . S
N867 H870 0.984 . S
N867 H871 0.985 . S
H868 N863 0.984 . S
H869 N863 0.985 . S
H870 N867 0.984 . S
H871 N867 0.985 . S
H872 N866 0.984 . S
H873 N866 0.984 . S
H874 N862 0.984 . S
H875 N862 0.985 . S
C876 C877 1.363 . S
C876 C882 1.379 . S
C876 N884 1.356 . S
C877 C876 1.363 . S
C877 C883 1.363 . S
C878 C879 1.363 . S
C878 C883 1.379 . S
C878 N885 1.356 . S
C879 C878 1.363 . S
C879 C882 1.363 . S
N880 C882 1.356 . S
N880 H892 0.984 1_455 S
N880 H893 0.985 . S
N881 C883 1.356 . S
N881 H886 0.984 . S
N881 H887 0.985 . S
C882 C876 1.379 . S
C882 C879 1.363 . S
C882 N880 1.356 . S
C883 C877 1.363 . S
C883 C878 1.379 . S
C883 N881 1.356 . S
N884 C876 1.356 . S
N884 H890 0.984 . S
N884 H891 0.984 . S
N885 C878 1.356 . S
N885 H888 0.984 . S
N885 H889 0.985 . S
H886 N881 0.984 . S
H887 N881 0.985 . S
H888 N885 0.984 . S
H889 N885 0.985 . S
H890 N884 0.984 . S
H891 N884 0.984 . S
H892 N880 0.984 1_655 S
H893 N880 0.985 . S
C894 C895 1.363 1_455 S
C894 C900 1.379 1_455 S
C894 N902 1.356 . S
C895 C894 1.363 1_655 S
C895 C901 1.363 . S
C896 C897 1.363 . S
C896 C901 1.379 . S
C896 N903 1.356 . S
C897 C896 1.363 . S
C897 C900 1.363 . S
N898 C900 1.356 1_455 S
N898 H910 0.984 . S
N898 H911 0.985 1_455 S
N899 C901 1.356 . S
N899 H904 0.984 . S
N899 H905 0.985 . S
C900 C894 1.379 1_655 S
C900 C897 1.363 . S
C900 N898 1.356 1_655 S
C901 C895 1.363 . S
C901 C896 1.379 . S
C901 N899 1.356 . S
N902 C894 1.356 . S
N902 H908 0.984 . S
N902 H909 0.984 . S
N903 C896 1.356 . S
N903 H906 0.984 . S
N903 H907 0.985 1_545 S
H904 N899 0.984 . S
H905 N899 0.985 . S
H906 N903 0.984 . S
H907 N903 0.985 1_565 S
H908 N902 0.984 . S
H909 N902 0.984 . S
H910 N898 0.984 . S
H911 N898 0.985 1_655 S
C912 C913 1.363 . S
C912 C918 1.379 . S
C912 N920 1.356 . S
C913 C912 1.363 . S
C913 C919 1.363 1_565 S
C914 C915 1.363 . S
C914 C919 1.379 1_565 S
C914 N921 1.356 . S
C915 C914 1.363 . S
C915 C918 1.363 . S
N916 C918 1.356 . S
N916 H928 0.984 . S
N916 H929 0.985 . S
N917 C919 1.356 . S
N917 H922 0.984 . S
N917 H923 0.985 . S
C918 C912 1.379 . S
C918 C915 1.363 . S
C918 N916 1.356 . S
C919 C913 1.363 1_545 S
C919 C914 1.379 1_545 S
C919 N917 1.356 . S
N920 C912 1.356 . S
N920 H926 0.984 . S
N920 H927 0.984 . S
N921 C914 1.356 . S
N921 H924 0.984 . S
N921 H925 0.985 1_565 S
H922 N917 0.984 . S
H923 N917 0.985 . S
H924 N921 0.984 . S
H925 N921 0.985 1_545 S
H926 N920 0.984 . S
H927 N920 0.984 . S
H928 N916 0.984 . S
H929 N916 0.985 . S
C930 C931 1.363 . S
C930 C936 1.379 . S
C930 N938 1.356 . S
C931 C930 1.363 . S
C931 C937 1.363 . S
C932 C933 1.363 . S
C932 C937 1.379 . S
C932 N939 1.356 . S
C933 C932 1.363 . S
C933 C936 1.363 . S
N934 C936 1.356 . S
N934 H946 0.984 . S
N934 H947 0.985 . S
N935 C937 1.356 . S
N935 H940 0.984 . S
N935 H941 0.985 . S
C936 C930 1.379 . S
C936 C933 1.363 . S
C936 N934 1.356 . S
C937 C931 1.363 . S
C937 C932 1.379 . S
C937 N935 1.356 . S
N938 C930 1.356 . S
N938 H944 0.984 . S
N938 H945 0.984 . S
N939 C932 1.356 . S
N939 H942 0.984 . S
N939 H943 0.985 1_655 S
H940 N935 0.984 . S
H941 N935 0.985 . S
H942 N939 0.984 . S
H943 N939 0.985 1_455 S
H944 N938 0.984 . S
H945 N938 0.984 . S
H946 N934 0.984 . S
H947 N934 0.985 . S
C409 C20 1.553 1_565 S
C411 C376 1.538 . S
C427 C54 1.553 . S
C429 C206 1.538 . S
C445 C240 1.538 . S
C447 C88 1.553 1_455 S
C463 C274 1.538 . S
C465 C122 1.553 1_545 S
C481 C156 1.553 . S
C483 C308 1.537 . S
C499 C190 1.553 1_655 S
C501 C342 1.538 . S
C517 C36 1.538 . S
C519 C224 1.553 1_455 S
C535 C258 1.553 1_545 S
C537 C70 1.538 . S
C553 C104 1.538 . S
C555 C292 1.553 . S
C571 C326 1.553 1_655 S
C573 C138 1.538 . S
C589 C360 1.553 1_565 S
C591 C172 1.538 . S
C607 C2 1.538 . S
C609 C394 1.553 . S
C625 C209 0.867 . S
C627 C5 0.867 . S
C643 C39 0.867 . S
C645 C243 0.867 . S
C661 C73 0.867 . S
C663 C277 0.867 . S
C679 C107 0.867 . S
C681 C311 0.867 . S
C697 C345 0.867 . S
C699 C141 0.867 . S
C715 C379 0.867 . S
C717 C175 0.867 . S
C733 C203 1.077 . S
C735 C9 1.092 . S
C751 C33 1.077 . S
C753 C43 1.092 . S
C769 C77 1.092 . S
C771 C67 1.077 . S
C787 C111 1.092 . S
C789 C101 1.077 . S
C805 C145 1.092 . S
C807 C135 1.077 . S
C823 C179 1.092 . S
C825 C169 1.077 . S
C841 C213 1.092 . S
C843 C271 1.077 . S
C859 C305 1.077 . S
C861 C247 1.092 . S
C877 C281 1.092 . S
C879 C339 1.077 . S
C895 C315 1.092 . S
C897 C373 1.077 . S
C913 C349 1.092 . S
C915 C407 1.077 . S
C931 C383 1.092 . S
C933 C237 1.077 . S
