# Generated by pormake.
# Topology uma, (4)-cn, num edge types: 1
# Building blocks:
#     Node 0, Type 0, BuildingBlock: NAWXER_clean_sbu_0, # of connection points: 4
#     Node 1, Type 0, BuildingBlock: NAWXER_clean_sbu_0, # of connection points: 4
#     Node 2, Type 0, BuildingBlock: NAWXER_clean_sbu_0, # of connection points: 4
#     Node 3, Type 0, BuildingBlock: NAWXER_clean_sbu_0, # of connection points: 4
#     Node 4, Type 0, BuildingBlock: NAWXER_clean_sbu_0, # of connection points: 4
#     Node 5, Type 0, BuildingBlock: NAWXER_clean_sbu_0, # of connection points: 4
#     Node 6, Type 0, BuildingBlock: NAWXER_clean_sbu_0, # of connection points: 4
#     Node 7, Type 0, BuildingBlock: NAWXER_clean_sbu_0, # of connection points: 4
#     Node 8, Type 0, BuildingBlock: NAWXER_clean_sbu_0, # of connection points: 4
#     Node 9, Type 0, BuildingBlock: NAWXER_clean_sbu_0, # of connection points: 4
#     Node 10, Type 0, BuildingBlock: NAWXER_clean_sbu_0, # of connection points: 4
#     Node 11, Type 0, BuildingBlock: NAWXER_clean_sbu_0, # of connection points: 4
#     Node 12, Type 0, BuildingBlock: NAWXER_clean_sbu_0, # of connection points: 4
#     Node 13, Type 0, BuildingBlock: NAWXER_clean_sbu_0, # of connection points: 4
#     Node 14, Type 0, BuildingBlock: NAWXER_clean_sbu_0, # of connection points: 4
#     Node 15, Type 0, BuildingBlock: NAWXER_clean_sbu_0, # of connection points: 4
#     Node 16, Type 0, BuildingBlock: NAWXER_clean_sbu_0, # of connection points: 4
#     Node 17, Type 0, BuildingBlock: NAWXER_clean_sbu_0, # of connection points: 4
#     Node 18, Type 0, BuildingBlock: NAWXER_clean_sbu_0, # of connection points: 4
#     Node 19, Type 0, BuildingBlock: NAWXER_clean_sbu_0, # of connection points: 4
#     Node 20, Type 0, BuildingBlock: NAWXER_clean_sbu_0, # of connection points: 4
#     Node 21, Type 0, BuildingBlock: NAWXER_clean_sbu_0, # of connection points: 4
#     Node 22, Type 0, BuildingBlock: NAWXER_clean_sbu_0, # of connection points: 4
#     Node 23, Type 0, BuildingBlock: NAWXER_clean_sbu_0, # of connection points: 4
#     Node 24, Type 0, BuildingBlock: NAWXER_clean_sbu_0, # of connection points: 4
#     Node 25, Type 0, BuildingBlock: NAWXER_clean_sbu_0, # of connection points: 4
#     Node 26, Type 0, BuildingBlock: NAWXER_clean_sbu_0, # of connection points: 4
#     Node 27, Type 0, BuildingBlock: NAWXER_clean_sbu_0, # of connection points: 4
#     Node 28, Type 0, BuildingBlock: NAWXER_clean_sbu_0, # of connection points: 4
#     Node 29, Type 0, BuildingBlock: NAWXER_clean_sbu_0, # of connection points: 4
#     Node 30, Type 0, BuildingBlock: NAWXER_clean_sbu_0, # of connection points: 4
#     Node 31, Type 0, BuildingBlock: NAWXER_clean_sbu_0, # of connection points: 4
#     Node 32, Type 0, BuildingBlock: NAWXER_clean_sbu_0, # of connection points: 4
#     Node 33, Type 0, BuildingBlock: NAWXER_clean_sbu_0, # of connection points: 4
#     Node 34, Type 0, BuildingBlock: NAWXER_clean_sbu_0, # of connection points: 4
#     Node 35, Type 0, BuildingBlock: NAWXER_clean_sbu_0, # of connection points: 4
#     Edge 36, Type (0, 0), None
#     Edge 37, Type (0, 0), None
#     Edge 38, Type (0, 0), None
#     Edge 39, Type (0, 0), None
#     Edge 40, Type (0, 0), None
#     Edge 41, Type (0, 0), None
#     Edge 42, Type (0, 0), None
#     Edge 43, Type (0, 0), None
#     Edge 44, Type (0, 0), None
#     Edge 45, Type (0, 0), None
#     Edge 46, Type (0, 0), None
#     Edge 47, Type (0, 0), None
#     Edge 48, Type (0, 0), None
#     Edge 49, Type (0, 0), None
#     Edge 50, Type (0, 0), None
#     Edge 51, Type (0, 0), None
#     Edge 52, Type (0, 0), None
#     Edge 53, Type (0, 0), None
#     Edge 54, Type (0, 0), None
#     Edge 55, Type (0, 0), None
#     Edge 56, Type (0, 0), None
#     Edge 57, Type (0, 0), None
#     Edge 58, Type (0, 0), None
#     Edge 59, Type (0, 0), None
#     Edge 60, Type (0, 0), None
#     Edge 61, Type (0, 0), None
#     Edge 62, Type (0, 0), None
#     Edge 63, Type (0, 0), None
#     Edge 64, Type (0, 0), None
#     Edge 65, Type (0, 0), None
#     Edge 66, Type (0, 0), None
#     Edge 67, Type (0, 0), None
#     Edge 68, Type (0, 0), None
#     Edge 69, Type (0, 0), None
#     Edge 70, Type (0, 0), None
#     Edge 71, Type (0, 0), None
#     Edge 72, Type (0, 0), None
#     Edge 73, Type (0, 0), None
#     Edge 74, Type (0, 0), None
#     Edge 75, Type (0, 0), None
#     Edge 76, Type (0, 0), None
#     Edge 77, Type (0, 0), None
#     Edge 78, Type (0, 0), None
#     Edge 79, Type (0, 0), None
#     Edge 80, Type (0, 0), None
#     Edge 81, Type (0, 0), None
#     Edge 82, Type (0, 0), None
#     Edge 83, Type (0, 0), None
#     Edge 84, Type (0, 0), None
#     Edge 85, Type (0, 0), None
#     Edge 86, Type (0, 0), None
#     Edge 87, Type (0, 0), None
#     Edge 88, Type (0, 0), None
#     Edge 89, Type (0, 0), None
#     Edge 90, Type (0, 0), None
#     Edge 91, Type (0, 0), None
#     Edge 92, Type (0, 0), None
#     Edge 93, Type (0, 0), None
#     Edge 94, Type (0, 0), None
#     Edge 95, Type (0, 0), None
#     Edge 96, Type (0, 0), None
#     Edge 97, Type (0, 0), None
#     Edge 98, Type (0, 0), None
#     Edge 99, Type (0, 0), None
#     Edge 100, Type (0, 0), None
#     Edge 101, Type (0, 0), None
#     Edge 102, Type (0, 0), None
#     Edge 103, Type (0, 0), None
#     Edge 104, Type (0, 0), None
#     Edge 105, Type (0, 0), None
#     Edge 106, Type (0, 0), None
#     Edge 107, Type (0, 0), None
# Relax obj value: 0.097
# Max RMSD: 0.105
# Mean RMSD: 0.098
data_MOF--net-uma--node1-NAWXER_clean_sbu_0--edge1-none
_symmetry_space_group_name_H-M    P1
_symmetry_Int_Tables_number       1
_symmetry_cell_setting            triclinic
loop_
_symmetry_equiv_pos_as_xyz
'x, y, z'
_cell_length_a     30.030691
_cell_length_b     30.028459
_cell_length_c     17.338419
_cell_angle_alpha  89.994814
_cell_angle_beta   90.00993
_cell_angle_gamma 119.98829
loop_
_atom_site_label
_atom_site_type_symbol
_atom_site_fract_x
_atom_site_fract_y
_atom_site_fract_z
_atom_type_partial_charge
C0 C 0.23913 0.51741 0.14339 0.0
C1 C 0.20115 0.43241 0.88425 0.0
O2 O 0.25023 0.54906 0.08756 0.0
Zn3 Zn 0.24638 0.54731 0.96373 0.0
O4 O 0.22783 0.47092 0.13068 0.0
Zn5 Zn 0.2258 0.46969 0.01953 0.0
O6 O 0.29954 0.51322 0.98957 0.0
O7 O 0.32593 0.58869 0.93753 0.0
O8 O 0.19741 0.41029 0.94867 0.0
O9 O 0.21873 0.48143 0.88347 0.0
O10 O 0.18175 0.55894 0.96789 0.0
O11 O 0.17158 0.48812 0.01828 0.0
C12 C 0.33598 0.55429 0.9614 0.0
C13 C 0.15387 0.51772 1.00669 0.0
C14 C 0.77725 0.81075 0.8842 0.0
C15 C 0.69224 0.7638 0.14334 0.0
O16 O 0.72825 0.77935 0.88342 0.0
Zn17 Zn 0.66238 0.74115 0.96365 0.0
O18 O 0.79938 0.82913 0.94864 0.0
Zn19 Zn 0.73998 0.79815 0.01949 0.0
O20 O 0.72152 0.7255 0.01835 0.0
O21 O 0.65078 0.66489 0.96784 0.0
O22 O 0.73873 0.79896 0.13064 0.0
O23 O 0.66059 0.74326 0.0875 0.0
O24 O 0.62101 0.77935 0.9374 0.0
O25 O 0.69647 0.8284 0.98948 0.0
C26 C 0.69193 0.6782 1.00681 0.0
C27 C 0.6554 0.82379 0.96128 0.0
C28 C 0.38589 0.87366 0.96146 0.0
C29 C 0.53143 1.05576 1.00668 0.0
O30 O 0.38126 0.91012 0.98959 0.0
Zn31 Zn 0.4115 0.98389 0.0195 0.0
O32 O 0.43033 0.88369 0.93761 0.0
Zn33 Zn 0.46851 0.96325 0.96376 0.0
O34 O 0.46642 0.95944 0.08761 0.0
O35 O 0.41074 0.98193 0.13065 0.0
O36 O 0.54477 1.02786 0.96794 0.0
O37 O 0.48414 1.03808 0.01824 0.0
O38 O 0.38051 1.01228 0.94858 0.0
O39 O 0.43032 0.99092 0.88344 0.0
C40 C 0.44591 0.97061 0.14341 0.0
C41 C 0.39889 1.00853 0.88419 0.0
C42 C 0.55958 0.11201 0.02116 0.0
C43 C 0.59614 0.29411 0.06659 0.0
O44 O 0.52997 0.12971 1.00959 0.0
Zn45 Zn 0.51154 0.18393 1.0084 0.0
O46 O 0.60076 0.13985 0.06004 0.0
Zn47 Zn 0.58914 0.20449 0.06422 0.0
O48 O 0.52327 0.17684 0.14446 0.0
O49 O 0.45214 0.15553 0.07925 0.0
O50 O 0.63053 0.28405 0.09046 0.0
O51 O 0.55506 0.25767 0.0384 0.0
O52 O 0.51277 0.18598 0.89725 0.0
O53 O 0.59091 0.20838 0.94038 0.0
C54 C 0.47427 0.15927 0.14369 0.0
C55 C 0.55926 0.19728 0.88454 0.0
C56 C 1.05041 0.35706 0.14368 0.0
C57 C 1.01244 0.40406 0.88446 0.0
O58 O 1.0328 0.3885 0.14444 0.0
Zn59 Zn 1.00514 0.42669 0.06412 0.0
O60 O 1.05415 0.33868 0.07929 0.0
Zn61 Zn 1.02576 0.36967 1.00837 0.0
O62 O 1.07995 0.44231 1.00959 0.0
O63 O 1.06976 0.50295 0.05997 0.0
O64 O 1.02376 0.36889 0.89721 0.0
O65 O 1.0013 0.42459 0.94028 0.0
O66 O 0.92559 0.38852 0.09028 0.0
O67 O 0.952 0.33944 0.03828 0.0
C68 C 1.09763 0.48961 0.02114 0.0
C69 C 0.91555 0.34407 0.06641 0.0
C70 C 0.80563 0.65048 0.88452 0.0
C71 C 0.85264 0.7354 0.14373 0.0
O72 O 0.78512 0.61881 0.94034 0.0
Zn73 Zn 0.78303 0.62053 0.06417 0.0
O74 O 0.84079 0.69697 0.89727 0.0
Zn75 Zn 0.84003 0.69816 1.00843 0.0
O76 O 0.87028 0.65463 0.03834 0.0
O77 O 0.82122 0.57914 0.09033 0.0
O78 O 0.87102 0.75754 0.07933 0.0
O79 O 0.82122 0.68638 0.14448 0.0
O80 O 0.70676 0.60886 0.05998 0.0
O81 O 0.7674 0.67974 1.00971 0.0
C82 C 0.86566 0.61355 0.06648 0.0
C83 C 0.72011 0.65012 0.0213 0.0
C84 C 1.09767 0.6501 0.0212 0.0
C85 C 0.91557 0.61354 0.06647 0.0
O86 O 1.0698 0.60889 0.06 0.0
Zn87 Zn 1.00517 0.62052 0.06415 0.0
O88 O 1.07997 0.6797 1.00961 0.0
Zn89 Zn 1.02575 0.69814 1.00835 0.0
O90 O 1.05414 0.75754 0.07921 0.0
O91 O 1.03282 0.68639 0.1444 0.0
O92 O 0.95201 0.65462 0.0383 0.0
O93 O 0.92562 0.57914 0.09034 0.0
O94 O 1.00132 0.61876 0.94032 0.0
O95 O 1.02373 0.6969 0.89719 0.0
C96 C 1.0504 0.73541 0.14363 0.0
C97 C 1.01242 0.65041 0.88448 0.0
C98 C 0.47429 0.35704 0.1437 0.0
C99 C 0.55927 0.40403 0.88456 0.0
O100 O 0.45215 0.33865 0.07927 0.0
Zn101 Zn 0.51154 0.36964 1.00843 0.0
O102 O 0.52329 0.38846 0.14447 0.0
Zn103 Zn 0.58917 0.42667 0.06423 0.0
O104 O 0.60078 0.50294 0.06 0.0
O105 O 0.52998 0.44228 1.00966 0.0
O106 O 0.59092 0.42456 0.9404 0.0
O107 O 0.51278 0.36886 0.89727 0.0
O108 O 0.55507 0.33941 0.03842 0.0
O109 O 0.63054 0.38847 0.09045 0.0
C110 C 0.55956 0.48958 0.02121 0.0
C111 C 0.59614 0.34403 0.06659 0.0
C112 C 0.85264 0.1593 0.14369 0.0
C113 C 0.80562 0.19721 0.88446 0.0
O114 O 0.87101 0.15554 0.07931 0.0
Zn115 Zn 0.84003 0.18393 1.00838 0.0
O116 O 0.82121 0.17691 0.14444 0.0
Zn117 Zn 0.78302 0.20457 0.06411 0.0
O118 O 0.70676 0.13996 0.05994 0.0
O119 O 0.76739 0.12974 1.00964 0.0
O120 O 0.78511 0.20838 0.94027 0.0
O121 O 0.84079 0.18589 0.89722 0.0
O122 O 0.87027 0.2577 0.03828 0.0
O123 O 0.8212 0.28413 0.09026 0.0
C124 C 0.7201 0.11206 0.0212 0.0
C125 C 0.86564 0.29416 0.06641 0.0
C126 C 0.69227 0.97053 0.14334 0.0
C127 C 0.77727 1.00856 0.8842 0.0
O128 O 0.73875 0.98183 0.13063 0.0
Zn129 Zn 0.73999 0.98389 0.01948 0.0
O130 O 0.66062 0.95943 0.08749 0.0
Zn131 Zn 0.66239 0.96332 0.96365 0.0
O132 O 0.62101 0.88377 0.93741 0.0
O133 O 0.69648 0.91015 0.98947 0.0
O134 O 0.72826 0.99098 0.88342 0.0
O135 O 0.79939 1.01229 0.94864 0.0
O136 O 0.72156 1.03811 0.01829 0.0
O137 O 0.65077 1.02797 0.96783 0.0
C138 C 0.6554 0.87371 0.96128 0.0
C139 C 0.69195 1.05581 1.00672 0.0
C140 C 0.23911 0.76376 0.14344 0.0
C141 C 0.20113 0.81078 0.88425 0.0
O142 O 0.22779 0.79893 0.1307 0.0
Zn143 Zn 0.22578 0.79815 0.01955 0.0
O144 O 0.25025 0.74323 0.08761 0.0
Zn145 Zn 0.2464 0.74113 0.96377 0.0
O146 O 0.32595 0.77931 0.9376 0.0
O147 O 0.29954 0.82838 0.98962 0.0
O148 O 0.21874 0.77934 0.88349 0.0
O149 O 0.19738 0.82915 0.94865 0.0
O150 O 0.17159 0.72551 0.01833 0.0
O151 O 0.18178 0.66488 0.96792 0.0
C152 C 0.33599 0.82375 0.96147 0.0
C153 C 0.15392 0.67821 1.00676 0.0
C154 C 0.39891 0.43243 0.88417 0.0
C155 C 0.44592 0.51737 0.14337 0.0
O156 O 0.38052 0.41029 0.94857 0.0
Zn157 Zn 0.4115 0.46967 0.01947 0.0
O158 O 0.43034 0.48145 0.88342 0.0
Zn159 Zn 0.46853 0.54731 0.96372 0.0
O160 O 0.5448 0.55896 0.96795 0.0
O161 O 0.48413 0.48809 0.01818 0.0
O162 O 0.46644 0.54904 0.08755 0.0
O163 O 0.41075 0.47088 0.13063 0.0
O164 O 0.38127 0.5132 0.98953 0.0
O165 O 0.43033 0.5887 0.93755 0.0
C166 C 0.53142 0.51768 1.00662 0.0
C167 C 0.38589 0.55429 0.9614 0.0
C168 C 1.00262 0.88762 0.29476 0.0
C169 C 0.82052 0.85105 0.34001 0.0
O170 O 0.96618 0.84654 0.32292 0.0
Zn171 Zn 0.89243 0.80301 0.35287 0.0
O172 O 0.99257 0.92201 0.27089 0.0
Zn173 Zn 0.91302 0.88063 0.29707 0.0
O174 O 0.91686 0.88238 0.42091 0.0
O175 O 0.89445 0.80424 0.46402 0.0
O176 O 0.84839 0.89227 0.30122 0.0
O177 O 0.83822 0.82144 0.3516 0.0
O178 O 0.86406 0.74362 0.28199 0.0
O179 O 0.88538 0.81477 0.2168 0.0
C180 C 0.90575 0.85073 0.47675 0.0
C181 C 0.8678 0.76575 0.21757 0.0
C182 C 0.35895 0.09711 0.47666 0.0
C183 C 0.4439 0.14409 0.21749 0.0
O184 O 0.32729 1.07658 0.42084 0.0
Zn185 Zn 0.32903 1.07447 0.297 0.0
O186 O 0.40544 0.13228 0.46394 0.0
Zn187 Zn 0.40666 0.1315 0.35278 0.0
O188 O 0.36313 0.16173 0.32282 0.0
O189 O 0.28765 0.11267 0.27081 0.0
O190 O 0.46604 0.16248 0.28191 0.0
O191 O 0.3949 0.11267 0.21673 0.0
O192 O 0.31741 0.9982 0.30124 0.0
O193 O 0.38823 1.05887 0.35154 0.0
C194 C 0.32205 0.15711 0.29467 0.0
C195 C 0.35865 1.01157 0.34 0.0
C196 C 1.06557 0.3419 0.21755 0.0
C197 C 1.11258 0.30392 0.47675 0.0
O198 O 1.09699 0.32427 0.21678 0.0
Zn199 Zn 0.13518 0.29661 0.29708 0.0
O200 O 1.04723 0.34568 0.28195 0.0
Zn201 Zn 1.07821 0.31726 0.35286 0.0
O202 O 0.15086 0.37143 0.35168 0.0
O203 O 0.21143 0.36121 0.30119 0.0
O204 O 1.07742 0.31526 0.46401 0.0
O205 O 0.13309 0.29276 0.42094 0.0
O206 O 1.097 0.21705 0.2709 0.0
O207 O 1.04794 0.24348 0.32293 0.0
C208 C 0.19815 0.38909 0.34012 0.0
C209 C 1.05256 0.20702 0.29478 0.0
C210 C 0.22628 0.44536 0.35449 0.0
C211 C 0.2628 0.62745 0.39991 0.0
O212 O 0.19666 0.46304 0.34289 0.0
Zn213 Zn 0.17822 0.51726 0.34171 0.0
O214 O 0.26744 0.47321 0.3934 0.0
Zn215 Zn 0.25581 0.53784 0.39754 0.0
O216 O 0.18995 0.51018 0.47777 0.0
O217 O 1.11881 0.48885 0.41255 0.0
O218 O 0.2972 0.61739 0.42379 0.0
O219 O 0.22173 0.59101 0.37171 0.0
O220 O 0.17944 0.51932 0.23057 0.0
O221 O 0.25758 0.54172 0.2737 0.0
C222 C 0.14094 0.4926 0.47699 0.0
C223 C 0.22593 0.53064 0.21786 0.0
C224 C 0.71706 0.69038 0.47697 0.0
C225 C 0.67902 0.73737 0.21782 0.0
O226 O 0.69946 0.72182 0.47775 0.0
Zn227 Zn 0.67179 0.76003 0.39748 0.0
O228 O 0.7208 0.67201 0.41257 0.0
Zn229 Zn 0.69239 0.703 0.34169 0.0
O230 O 0.74659 0.77564 0.34289 0.0
O231 O 0.73641 0.83628 0.39332 0.0
O232 O 0.69035 0.7022 0.23054 0.0
O233 O 0.66792 0.75793 0.27364 0.0
O234 O 0.59224 0.72185 0.42368 0.0
O235 O 0.61865 0.67278 0.37165 0.0
C236 C 0.76427 0.82294 0.35446 0.0
C237 C 0.5822 0.67741 0.39981 0.0
C238 C 0.47233 0.98381 0.21789 0.0
C239 C 0.5193 1.06873 0.47709 0.0
O240 O 0.4518 0.95214 0.2737 0.0
Zn241 Zn 0.44969 0.95384 0.39753 0.0
O242 O 0.50748 1.0303 0.23064 0.0
Zn243 Zn 0.50671 1.0315 0.3418 0.0
O244 O 0.53694 0.98796 0.37172 0.0
O245 O 0.48789 0.91246 0.42368 0.0
O246 O 0.53769 0.09086 0.41269 0.0
O247 O 0.48787 1.0197 0.47784 0.0
O248 O 0.37341 0.94219 0.39327 0.0
O249 O 0.43409 1.01306 0.34306 0.0
C250 C 0.53232 0.94687 0.39985 0.0
C251 C 0.38679 0.98347 0.35461 0.0
C252 C 0.71706 1.06875 0.47695 0.0
C253 C 0.67906 0.98375 0.21781 0.0
O254 O 0.7208 0.09087 0.41253 0.0
Zn255 Zn 0.69241 1.03147 0.34167 0.0
O256 O 0.69949 1.01973 0.47772 0.0
Zn257 Zn 0.67184 0.95386 0.39747 0.0
O258 O 0.73647 0.94224 0.3933 0.0
O259 O 0.74663 1.01304 0.34291 0.0
O260 O 0.66797 0.95209 0.27364 0.0
O261 O 0.69037 1.03024 0.23052 0.0
O262 O 0.61867 0.98794 0.37165 0.0
O263 O 0.59229 0.91247 0.42368 0.0
C264 C 0.76434 0.98345 0.3545 0.0
C265 C 0.58223 0.94687 0.39982 0.0
C266 C 0.22621 0.82291 0.35454 0.0
C267 C 0.2628 0.67736 0.39992 0.0
O268 O 0.26744 0.83628 0.39331 0.0
Zn269 Zn 0.25582 0.76001 0.39757 0.0
O270 O 0.19663 0.7756 0.343 0.0
Zn271 Zn 0.17819 0.70297 0.34179 0.0
O272 O 1.11882 0.67199 0.41265 0.0
O273 O 0.18996 0.72181 0.47783 0.0
O274 O 0.22172 0.67275 0.37176 0.0
O275 O 0.2972 0.72181 0.42377 0.0
O276 O 0.25757 0.75788 0.27373 0.0
O277 O 0.17942 0.70217 0.23063 0.0
C278 C 0.14096 0.69039 0.47707 0.0
C279 C 0.2259 0.73733 0.21791 0.0
C280 C 0.38679 0.44539 0.35453 0.0
C281 C 0.5323 0.6275 0.39983 0.0
O282 O 0.37342 0.47327 0.39324 0.0
Zn283 Zn 0.44968 0.5379 0.39749 0.0
O284 O 0.43409 0.4631 0.34301 0.0
Zn285 Zn 0.50672 0.51728 0.34178 0.0
O286 O 0.5377 0.48889 0.41269 0.0
O287 O 0.48787 0.51023 0.47782 0.0
O288 O 0.53693 0.59104 0.3717 0.0
O289 O 0.48785 0.61746 0.42365 0.0
O290 O 0.4518 0.54173 0.27365 0.0
O291 O 0.50751 0.51926 0.23062 0.0
C292 C 0.51932 0.49263 0.47707 0.0
C293 C 0.47234 0.53059 0.21785 0.0
C294 C 0.44392 0.34186 0.21751 0.0
C295 C 0.35898 0.30392 0.47668 0.0
O296 O 0.46606 0.34558 0.28193 0.0
Zn297 Zn 0.40668 0.31721 0.35279 0.0
O298 O 0.39492 0.3243 0.21674 0.0
Zn299 Zn 0.32905 0.29665 0.29702 0.0
O300 O 0.31742 0.36129 0.30125 0.0
O301 O 0.38827 0.37144 0.3515 0.0
O302 O 0.32733 0.29281 0.42085 0.0
O303 O 0.40546 0.31521 0.46395 0.0
O304 O 0.36314 0.24347 0.32282 0.0
O305 O 0.28765 0.21708 0.27082 0.0
C306 C 0.35869 0.38916 0.33993 0.0
C307 C 0.32205 0.20703 0.29467 0.0
C308 C 1.00266 0.15712 0.29478 0.0
C309 C 0.82059 1.01157 0.34005 0.0
O310 O 0.99262 0.11267 0.27091 0.0
Zn311 Zn 0.91307 1.07449 0.29708 0.0
O312 O 0.9662 0.16175 0.32293 0.0
Zn313 Zn 0.89245 0.13151 0.35286 0.0
O314 O 0.89445 0.13228 0.46402 0.0
O315 O 0.91691 1.07658 0.42093 0.0
O316 O 0.83826 1.05886 0.35163 0.0
O317 O 0.84846 0.99824 0.30121 0.0
O318 O 0.88541 0.1127 0.21679 0.0
O319 O 0.86404 0.1625 0.28195 0.0
C320 C 0.90577 0.0971 0.47675 0.0
C321 C 0.8678 0.14413 0.21756 0.0
C322 C 0.19806 0.85101 0.33993 0.0
C323 C 1.05253 0.88761 0.29474 0.0
O324 O 0.21144 0.89229 0.30128 0.0
Zn325 Zn 0.13517 0.88063 0.29704 0.0
O326 O 0.15077 0.82141 0.35148 0.0
Zn327 Zn 1.07815 0.80298 0.35277 0.0
O328 O 1.04716 0.74362 0.28186 0.0
O329 O 1.09698 0.81478 0.21672 0.0
O330 O 1.04791 0.84652 0.32286 0.0
O331 O 1.09697 0.92202 0.2709 0.0
O332 O 0.13307 0.88234 0.42088 0.0
O333 O 1.07739 0.80418 0.46393 0.0
C334 C 1.06556 0.76576 0.21746 0.0
C335 C 1.11256 0.85066 0.47669 0.0
C336 C 0.57246 0.18407 0.81007 0.0
C337 C 0.53446 0.09907 0.55093 0.0
O338 O 0.58355 0.21572 0.75424 0.0
Zn339 Zn 0.57969 0.21396 0.63041 0.0
O340 O 0.56115 0.13758 0.79735 0.0
Zn341 Zn 0.55911 0.13635 0.68621 0.0
O342 O 0.63285 0.17988 0.65623 0.0
O343 O 0.65923 0.25535 0.6042 0.0
O344 O 0.53073 1.07695 0.61534 0.0
O345 O 0.55204 0.14809 0.55015 0.0
O346 O 0.51505 0.22559 0.63457 0.0
O347 O 0.50489 0.15478 0.68496 0.0
C348 C 0.66929 0.22095 0.62806 0.0
C349 C 0.48719 0.18437 0.67337 0.0
C350 C 1.02565 0.43048 0.80998 0.0
C351 C 1.11057 0.47742 0.55079 0.0
O352 O 0.99398 0.40993 0.75416 0.0
Zn353 Zn 0.99571 0.4078 0.63032 0.0
O354 O 1.07213 0.46564 0.79725 0.0
Zn355 Zn 1.07334 0.46484 0.68609 0.0
O356 O 1.02981 0.49506 0.65612 0.0
O357 O 0.95433 0.446 0.60412 0.0
O358 O 0.13272 0.49582 0.61522 0.0
O359 O 1.06157 0.446 0.55004 0.0
O360 O 0.98409 0.33153 0.63458 0.0
O361 O 1.05491 0.39221 0.68487 0.0
C362 C 0.98873 0.49044 0.62797 0.0
C363 C 1.02533 0.3449 0.67334 0.0
C364 C 0.71924 0.54034 0.62809 0.0
C365 C 0.86477 0.72244 0.67334 0.0
O366 O 0.71461 0.57681 0.65622 0.0
Zn367 Zn 0.74484 0.65057 0.68613 0.0
O368 O 0.76368 0.55038 0.60425 0.0
Zn369 Zn 0.80185 0.62994 0.6304 0.0
O370 O 0.79974 0.62611 0.75425 0.0
O371 O 0.74404 0.6486 0.79728 0.0
O372 O 0.87811 0.69454 0.6346 0.0
O373 O 0.81748 0.70476 0.68489 0.0
O374 O 0.71385 0.67897 0.61522 0.0
O375 O 0.76366 0.6576 0.55008 0.0
C376 C 0.7792 0.63726 0.81004 0.0
C377 C 0.73222 0.67521 0.55083 0.0
C378 C 0.80762 0.82594 0.8104 0.0
C379 C 0.89256 0.86395 0.55122 0.0
O380 O 0.85663 0.84352 0.81117 0.0
Zn381 Zn 0.92248 0.87117 0.73089 0.0
O382 O 0.78549 0.82221 0.74597 0.0
Zn383 Zn 0.84487 0.8506 0.6751 0.0
O384 O 0.86331 0.79639 0.67628 0.0
O385 O 0.93411 0.80653 0.7267 0.0
O386 O 0.84607 0.85264 0.56395 0.0
O387 O 0.92423 0.87505 0.60705 0.0
O388 O 0.96387 0.95074 0.75711 0.0
O389 O 0.8884 0.92435 0.70508 0.0
C390 C 0.89291 0.77869 0.68784 0.0
C391 C 0.92947 0.96079 0.73325 0.0
C392 C 0.38373 1.02369 0.81033 0.0
C393 C 0.34574 1.07069 0.55114 0.0
O394 O 0.36612 1.05513 0.81109 0.0
Zn395 Zn 0.33846 0.09333 0.7308 0.0
O396 O 0.38748 1.00532 0.74593 0.0
Zn397 Zn 0.35908 1.03632 0.67503 0.0
O398 O 0.41327 0.10896 0.67625 0.0
O399 O 0.40307 0.16959 0.72665 0.0
O400 O 0.35707 1.03552 0.56387 0.0
O401 O 0.33461 0.09123 0.60695 0.0
O402 O 0.25891 1.05516 0.75697 0.0
O403 O 0.28532 1.00608 0.70496 0.0
C404 C 0.43094 0.15626 0.68781 0.0
C405 C 0.24887 1.01071 0.7331 0.0
C406 C 0.19901 0.28021 0.73318 0.0
C407 C 1.05348 0.3168 0.68795 0.0
O408 O 0.20362 0.3213 0.70505 0.0
Zn409 Zn 0.17339 0.36483 0.67513 0.0
O410 O 0.15457 0.2458 0.75702 0.0
Zn411 Zn 1.11637 0.28718 0.73087 0.0
O412 O 1.11847 0.28546 0.60704 0.0
O413 O 0.17416 0.36363 0.56397 0.0
O414 O 1.0401 0.27553 0.72662 0.0
O415 O 1.10077 0.3464 0.6764 0.0
O416 O 0.20438 0.4242 0.74602 0.0
O417 O 0.15456 0.35305 0.81117 0.0
C418 C 0.139 0.31713 0.55123 0.0
C419 C 0.18599 0.40207 0.81042 0.0
C420 C 0.38375 0.40209 0.81033 0.0
C421 C 0.34578 0.31713 0.55115 0.0
O422 O 0.38749 0.42422 0.74592 0.0
Zn423 Zn 0.35911 0.36482 0.67504 0.0
O424 O 0.36617 0.35307 0.81109 0.0
Zn425 Zn 0.33853 0.2872 0.73081 0.0
O426 O 0.40315 0.27557 0.72665 0.0
O427 O 0.41332 0.34639 0.67629 0.0
O428 O 0.33468 0.28546 0.60697 0.0
O429 O 0.35709 0.36362 0.56388 0.0
O430 O 0.28536 0.32129 0.705 0.0
O431 O 0.25898 0.24581 0.75701 0.0
C432 C 0.43102 0.31679 0.68787 0.0
C433 C 0.24892 0.28021 0.73315 0.0
C434 C 0.80763 1.02373 0.8104 0.0
C435 C 0.89257 1.07068 0.55123 0.0
O436 O 0.78549 1.00534 0.74598 0.0
Zn437 Zn 0.84487 1.03631 0.67511 0.0
O438 O 0.85663 1.05516 0.81116 0.0
Zn439 Zn 0.9225 0.09335 0.73088 0.0
O440 O 0.93411 0.16962 0.72663 0.0
O441 O 0.8633 0.10895 0.67633 0.0
O442 O 0.92423 0.09123 0.60705 0.0
O443 O 0.84608 1.03552 0.56395 0.0
O444 O 0.8884 1.00609 0.70508 0.0
O445 O 0.96388 1.05516 0.75709 0.0
C446 C 0.89288 0.15625 0.68787 0.0
C447 C 0.92948 1.01071 0.73324 0.0
C448 C 1.05343 0.77871 0.68789 0.0
C449 C 0.19897 0.96081 0.73311 0.0
O450 O 1.04009 0.80661 0.72662 0.0
Zn451 Zn 1.11635 0.87121 0.7308 0.0
O452 O 1.10072 0.79639 0.67633 0.0
Zn453 Zn 0.17336 0.85057 0.67508 0.0
O454 O 0.20434 0.82218 0.746 0.0
O455 O 0.15454 0.84355 0.81114 0.0
O456 O 0.2036 0.92434 0.70498 0.0
O457 O 0.15453 0.95078 0.75695 0.0
O458 O 1.11845 0.87503 0.60696 0.0
O459 O 0.17414 0.85254 0.56392 0.0
C460 C 0.18597 0.82594 0.81039 0.0
C461 C 0.13898 0.86388 0.55117 0.0
C462 C 1.02561 0.63718 0.81001 0.0
C463 C 1.11059 0.67521 0.55087 0.0
O464 O 1.0721 0.64849 0.7973 0.0
Zn465 Zn 1.07332 0.65054 0.68615 0.0
O466 O 0.99396 0.62609 0.75418 0.0
Zn467 Zn 0.99572 0.62997 0.63034 0.0
O468 O 0.95433 0.55042 0.60411 0.0
O469 O 1.0298 0.5768 0.65615 0.0
O470 O 1.06158 0.65763 0.5501 0.0
O471 O 0.13272 0.67895 0.61531 0.0
O472 O 1.05489 0.70476 0.68497 0.0
O473 O 0.9841 0.69462 0.63453 0.0
C474 C 0.98873 0.54036 0.62797 0.0
C475 C 1.02528 0.72246 0.6734 0.0
C476 C 0.57249 0.43046 0.81009 0.0
C477 C 0.53447 0.47746 0.55093 0.0
O478 O 0.56116 0.46563 0.79737 0.0
Zn479 Zn 0.55914 0.46484 0.68621 0.0
O480 O 0.58361 0.40992 0.75427 0.0
Zn481 Zn 0.57974 0.40782 0.63043 0.0
O482 O 0.65929 0.44599 0.60423 0.0
O483 O 0.63288 0.49507 0.65626 0.0
O484 O 0.55208 0.44603 0.55016 0.0
O485 O 0.53072 0.49583 0.61533 0.0
O486 O 0.50495 0.3922 0.685 0.0
O487 O 0.51513 0.33157 0.63457 0.0
C488 C 0.66933 0.49044 0.6281 0.0
C489 C 0.48727 0.3449 0.67342 0.0
C490 C 0.73222 0.09909 0.55078 0.0
C491 C 0.7792 0.18401 0.80998 0.0
O492 O 0.71383 1.07696 0.61518 0.0
Zn493 Zn 0.74481 0.13632 0.68608 0.0
O494 O 0.76365 0.14811 0.55003 0.0
Zn495 Zn 0.80184 0.21397 0.63035 0.0
O496 O 0.87811 0.22563 0.6346 0.0
O497 O 0.81744 0.15475 0.68481 0.0
O498 O 0.79973 0.21568 0.75418 0.0
O499 O 0.74404 0.13751 0.79724 0.0
O500 O 0.71458 0.17986 0.65616 0.0
O501 O 0.76364 0.25536 0.6042 0.0
C502 C 0.86473 0.18435 0.67325 0.0
C503 C 0.7192 0.22095 0.62803 0.0
loop_
_geom_bond_atom_site_label_1
_geom_bond_atom_site_label_2
_geom_bond_distance
_geom_bond_site_symmetry_2
_ccdc_geom_bond_type
C0 O2 1.247 . S
C0 O4 1.258 . S
C1 O8 1.247 . S
C1 O9 1.258 . S
O2 C0 1.247 . S
O2 Zn3 2.028 1_554 S
Zn3 O2 2.028 1_556 S
Zn3 O7 2.035 . S
Zn3 O9 2.035 . S
Zn3 O10 2.028 . S
O4 C0 1.258 . S
O4 Zn5 2.035 . S
Zn5 O4 2.035 . S
Zn5 O6 2.028 . S
Zn5 O8 2.028 1_554 S
Zn5 O11 2.035 . S
O6 Zn5 2.028 . S
O6 C12 1.247 1_554 S
O7 Zn3 2.035 . S
O7 C12 1.258 . S
O8 C1 1.247 . S
O8 Zn5 2.028 1_556 S
O9 C1 1.258 . S
O9 Zn3 2.035 . S
O10 Zn3 2.028 . S
O10 C13 1.247 1_556 S
O11 Zn5 2.035 . S
O11 C13 1.258 . S
C12 O6 1.247 1_556 S
C12 O7 1.258 . S
C13 O10 1.247 1_554 S
C13 O11 1.258 . S
C14 O16 1.247 . S
C14 O18 1.258 . S
C15 O22 1.247 . S
C15 O23 1.258 . S
O16 C14 1.247 . S
O16 Zn17 2.028 . S
Zn17 O16 2.028 . S
Zn17 O21 2.035 . S
Zn17 O23 2.035 1_556 S
Zn17 O24 2.028 . S
O18 C14 1.258 . S
O18 Zn19 2.035 1_556 S
Zn19 O18 2.035 1_554 S
Zn19 O20 2.028 . S
Zn19 O22 2.028 . S
Zn19 O25 2.035 . S
O20 Zn19 2.028 . S
O20 C26 1.247 . S
O21 Zn17 2.035 . S
O21 C26 1.258 1_556 S
O22 C15 1.247 . S
O22 Zn19 2.028 . S
O23 C15 1.258 . S
O23 Zn17 2.035 1_554 S
O24 Zn17 2.028 . S
O24 C27 1.247 . S
O25 Zn19 2.035 . S
O25 C27 1.258 1_554 S
C26 O20 1.247 . S
C26 O21 1.258 1_554 S
C27 O24 1.247 . S
C27 O25 1.258 1_556 S
C28 O30 1.247 1_556 S
C28 O32 1.258 . S
C29 O36 1.247 1_554 S
C29 O37 1.258 . S
O30 C28 1.247 1_554 S
O30 Zn31 2.028 . S
Zn31 O30 2.028 . S
Zn31 O35 2.035 . S
Zn31 O37 2.035 . S
Zn31 O38 2.028 1_554 S
O32 C28 1.258 . S
O32 Zn33 2.035 . S
Zn33 O32 2.035 . S
Zn33 O34 2.028 1_556 S
Zn33 O36 2.028 . S
Zn33 O39 2.035 . S
O34 Zn33 2.028 1_554 S
O34 C40 1.247 . S
O35 Zn31 2.035 . S
O35 C40 1.258 . S
O36 C29 1.247 1_556 S
O36 Zn33 2.028 . S
O37 C29 1.258 . S
O37 Zn31 2.035 . S
O38 Zn31 2.028 1_556 S
O38 C41 1.247 . S
O39 Zn33 2.035 . S
O39 C41 1.258 . S
C40 O34 1.247 . S
C40 O35 1.258 . S
C41 O38 1.247 . S
C41 O39 1.258 . S
C42 O44 1.247 . S
C42 O46 1.258 1_556 S
C43 O50 1.247 . S
C43 O51 1.258 1_554 S
O44 C42 1.247 . S
O44 Zn45 2.028 . S
Zn45 O44 2.028 . S
Zn45 O49 2.035 1_556 S
Zn45 O51 2.035 . S
Zn45 O52 2.028 . S
O46 C42 1.258 1_554 S
O46 Zn47 2.035 . S
Zn47 O46 2.035 . S
Zn47 O48 2.028 . S
Zn47 O50 2.028 . S
Zn47 O53 2.035 1_554 S
O48 Zn47 2.028 . S
O48 C54 1.247 . S
O49 Zn45 2.035 1_554 S
O49 C54 1.258 . S
O50 C43 1.247 . S
O50 Zn47 2.028 . S
O51 C43 1.258 1_556 S
O51 Zn45 2.035 . S
O52 Zn45 2.028 . S
O52 C55 1.247 . S
O53 Zn47 2.035 1_556 S
O53 C55 1.258 . S
C54 O48 1.247 . S
C54 O49 1.258 . S
C55 O52 1.247 . S
C55 O53 1.258 . S
C56 O58 1.247 . S
C56 O60 1.258 . S
C57 O64 1.247 . S
C57 O65 1.258 . S
O58 C56 1.247 . S
O58 Zn59 2.028 . S
Zn59 O58 2.028 . S
Zn59 O63 2.035 . S
Zn59 O65 2.035 1_554 S
Zn59 O66 2.028 . S
O60 C56 1.258 . S
O60 Zn61 2.035 1_554 S
Zn61 O60 2.035 1_556 S
Zn61 O62 2.028 . S
Zn61 O64 2.028 . S
Zn61 O67 2.035 . S
O62 Zn61 2.028 . S
O62 C68 1.247 . S
O63 Zn59 2.035 . S
O63 C68 1.258 1_554 S
O64 C57 1.247 . S
O64 Zn61 2.028 . S
O65 C57 1.258 . S
O65 Zn59 2.035 1_556 S
O66 Zn59 2.028 . S
O66 C69 1.247 . S
O67 Zn61 2.035 . S
O67 C69 1.258 1_556 S
C68 O62 1.247 . S
C68 O63 1.258 1_556 S
C69 O66 1.247 . S
C69 O67 1.258 1_554 S
C70 O72 1.247 . S
C70 O74 1.258 . S
C71 O78 1.247 . S
C71 O79 1.258 . S
O72 C70 1.247 . S
O72 Zn73 2.028 1_556 S
Zn73 O72 2.028 1_554 S
Zn73 O77 2.035 . S
Zn73 O79 2.035 . S
Zn73 O80 2.028 . S
O74 C70 1.258 . S
O74 Zn75 2.035 . S
Zn75 O74 2.035 . S
Zn75 O76 2.028 . S
Zn75 O78 2.028 1_556 S
Zn75 O81 2.035 . S
O76 Zn75 2.028 . S
O76 C82 1.247 1_556 S
O77 Zn73 2.035 . S
O77 C82 1.258 . S
O78 C71 1.247 . S
O78 Zn75 2.028 1_554 S
O79 C71 1.258 . S
O79 Zn73 2.035 . S
O80 Zn73 2.028 . S
O80 C83 1.247 1_554 S
O81 Zn75 2.035 . S
O81 C83 1.258 . S
C82 O76 1.247 1_554 S
C82 O77 1.258 . S
C83 O80 1.247 1_556 S
C83 O81 1.258 . S
C84 O86 1.247 1_556 S
C84 O88 1.258 . S
C85 O92 1.247 1_554 S
C85 O93 1.258 . S
O86 C84 1.247 1_554 S
O86 Zn87 2.028 . S
Zn87 O86 2.028 . S
Zn87 O91 2.035 . S
Zn87 O93 2.035 . S
Zn87 O94 2.028 1_554 S
O88 C84 1.258 . S
O88 Zn89 2.035 . S
Zn89 O88 2.035 . S
Zn89 O90 2.028 1_556 S
Zn89 O92 2.028 . S
Zn89 O95 2.035 . S
O90 Zn89 2.028 1_554 S
O90 C96 1.247 . S
O91 Zn87 2.035 . S
O91 C96 1.258 . S
O92 C85 1.247 1_556 S
O92 Zn89 2.028 . S
O93 C85 1.258 . S
O93 Zn87 2.035 . S
O94 Zn87 2.028 1_556 S
O94 C97 1.247 . S
O95 Zn89 2.035 . S
O95 C97 1.258 . S
C96 O90 1.247 . S
C96 O91 1.258 . S
C97 O94 1.247 . S
C97 O95 1.258 . S
C98 O100 1.247 . S
C98 O102 1.258 . S
C99 O106 1.247 . S
C99 O107 1.258 . S
O100 C98 1.247 . S
O100 Zn101 2.028 1_554 S
Zn101 O100 2.028 1_556 S
Zn101 O105 2.035 . S
Zn101 O107 2.035 . S
Zn101 O108 2.028 . S
O102 C98 1.258 . S
O102 Zn103 2.035 . S
Zn103 O102 2.035 . S
Zn103 O104 2.028 . S
Zn103 O106 2.028 1_554 S
Zn103 O109 2.035 . S
O104 Zn103 2.028 . S
O104 C110 1.247 1_554 S
O105 Zn101 2.035 . S
O105 C110 1.258 . S
O106 C99 1.247 . S
O106 Zn103 2.028 1_556 S
O107 C99 1.258 . S
O107 Zn101 2.035 . S
O108 Zn101 2.028 . S
O108 C111 1.247 1_556 S
O109 Zn103 2.035 . S
O109 C111 1.258 . S
C110 O104 1.247 1_556 S
C110 O105 1.258 . S
C111 O108 1.247 1_554 S
C111 O109 1.258 . S
C112 O114 1.247 . S
C112 O116 1.258 . S
C113 O120 1.247 . S
C113 O121 1.258 . S
O114 C112 1.247 . S
O114 Zn115 2.028 1_554 S
Zn115 O114 2.028 1_556 S
Zn115 O119 2.035 . S
Zn115 O121 2.035 . S
Zn115 O122 2.028 . S
O116 C112 1.258 . S
O116 Zn117 2.035 . S
Zn117 O116 2.035 . S
Zn117 O118 2.028 . S
Zn117 O120 2.028 1_554 S
Zn117 O123 2.035 . S
O118 Zn117 2.028 . S
O118 C124 1.247 1_554 S
O119 Zn115 2.035 . S
O119 C124 1.258 . S
O120 C113 1.247 . S
O120 Zn117 2.028 1_556 S
O121 C113 1.258 . S
O121 Zn115 2.035 . S
O122 Zn115 2.028 . S
O122 C125 1.247 1_556 S
O123 Zn117 2.035 . S
O123 C125 1.258 . S
C124 O118 1.247 1_556 S
C124 O119 1.258 . S
C125 O122 1.247 1_554 S
C125 O123 1.258 . S
C126 O128 1.247 . S
C126 O130 1.258 . S
C127 O134 1.247 . S
C127 O135 1.258 . S
O128 C126 1.247 . S
O128 Zn129 2.028 . S
Zn129 O128 2.028 . S
Zn129 O133 2.035 . S
Zn129 O135 2.035 1_554 S
Zn129 O136 2.028 . S
O130 C126 1.258 . S
O130 Zn131 2.035 1_554 S
Zn131 O130 2.035 1_556 S
Zn131 O132 2.028 . S
Zn131 O134 2.028 . S
Zn131 O137 2.035 . S
O132 Zn131 2.028 . S
O132 C138 1.247 . S
O133 Zn129 2.035 . S
O133 C138 1.258 1_554 S
O134 C127 1.247 . S
O134 Zn131 2.028 . S
O135 C127 1.258 . S
O135 Zn129 2.035 1_556 S
O136 Zn129 2.028 . S
O136 C139 1.247 . S
O137 Zn131 2.035 . S
O137 C139 1.258 1_556 S
C138 O132 1.247 . S
C138 O133 1.258 1_556 S
C139 O136 1.247 . S
C139 O137 1.258 1_554 S
C140 O142 1.247 . S
C140 O144 1.258 . S
C141 O148 1.247 . S
C141 O149 1.258 . S
O142 C140 1.247 . S
O142 Zn143 2.028 . S
Zn143 O142 2.028 . S
Zn143 O147 2.035 . S
Zn143 O149 2.035 1_554 S
Zn143 O150 2.028 . S
O144 C140 1.258 . S
O144 Zn145 2.035 1_554 S
Zn145 O144 2.035 1_556 S
Zn145 O146 2.028 . S
Zn145 O148 2.028 . S
Zn145 O151 2.035 . S
O146 Zn145 2.028 . S
O146 C152 1.247 . S
O147 Zn143 2.035 . S
O147 C152 1.258 1_554 S
O148 C141 1.247 . S
O148 Zn145 2.028 . S
O149 C141 1.258 . S
O149 Zn143 2.035 1_556 S
O150 Zn143 2.028 . S
O150 C153 1.247 . S
O151 Zn145 2.035 . S
O151 C153 1.258 1_556 S
C152 O146 1.247 . S
C152 O147 1.258 1_556 S
C153 O150 1.247 . S
C153 O151 1.258 1_554 S
C154 O156 1.247 . S
C154 O158 1.258 . S
C155 O162 1.247 . S
C155 O163 1.258 . S
O156 C154 1.247 . S
O156 Zn157 2.028 1_556 S
Zn157 O156 2.028 1_554 S
Zn157 O161 2.035 . S
Zn157 O163 2.035 . S
Zn157 O164 2.028 . S
O158 C154 1.258 . S
O158 Zn159 2.035 . S
Zn159 O158 2.035 . S
Zn159 O160 2.028 . S
Zn159 O162 2.028 1_556 S
Zn159 O165 2.035 . S
O160 Zn159 2.028 . S
O160 C166 1.247 1_556 S
O161 Zn157 2.035 . S
O161 C166 1.258 . S
O162 C155 1.247 . S
O162 Zn159 2.028 1_554 S
O163 C155 1.258 . S
O163 Zn157 2.035 . S
O164 Zn157 2.028 . S
O164 C167 1.247 1_554 S
O165 Zn159 2.035 . S
O165 C167 1.258 . S
C166 O160 1.247 1_554 S
C166 O161 1.258 . S
C167 O164 1.247 1_556 S
C167 O165 1.258 . S
C168 O170 1.247 . S
C168 O172 1.258 . S
C169 O176 1.247 . S
C169 O177 1.258 . S
O170 C168 1.247 . S
O170 Zn171 2.028 . S
Zn171 O170 2.028 . S
Zn171 O175 2.035 . S
Zn171 O177 2.035 . S
Zn171 O178 2.028 . S
O172 C168 1.258 . S
O172 Zn173 2.035 . S
Zn173 O172 2.035 . S
Zn173 O174 2.028 . S
Zn173 O176 2.028 . S
Zn173 O179 2.035 . S
O174 Zn173 2.028 . S
O174 C180 1.247 . S
O175 Zn171 2.035 . S
O175 C180 1.258 . S
O176 C169 1.247 . S
O176 Zn173 2.028 . S
O177 C169 1.258 . S
O177 Zn171 2.035 . S
O178 Zn171 2.028 . S
O178 C181 1.247 . S
O179 Zn173 2.035 . S
O179 C181 1.258 . S
C180 O174 1.247 . S
C180 O175 1.258 . S
C181 O178 1.247 . S
C181 O179 1.258 . S
C182 O184 1.247 1_545 S
C182 O186 1.258 . S
C183 O190 1.247 . S
C183 O191 1.258 . S
O184 C182 1.247 1_565 S
O184 Zn185 2.028 1_565 S
Zn185 O184 2.028 1_545 S
Zn185 O189 2.035 . S
Zn185 O191 2.035 . S
Zn185 O192 2.028 1_545 S
O186 C182 1.258 . S
O186 Zn187 2.035 . S
Zn187 O186 2.035 . S
Zn187 O188 2.028 . S
Zn187 O190 2.028 . S
Zn187 O193 2.035 . S
O188 Zn187 2.028 . S
O188 C194 1.247 . S
O189 Zn185 2.035 . S
O189 C194 1.258 . S
O190 C183 1.247 . S
O190 Zn187 2.028 . S
O191 C183 1.258 . S
O191 Zn185 2.035 . S
O192 Zn185 2.028 1_565 S
O192 C195 1.247 . S
O193 Zn187 2.035 . S
O193 C195 1.258 1_545 S
C194 O188 1.247 . S
C194 O189 1.258 . S
C195 O192 1.247 . S
C195 O193 1.258 1_565 S
C196 O198 1.247 . S
C196 O200 1.258 . S
C197 O204 1.247 . S
C197 O205 1.258 1_655 S
O198 C196 1.247 . S
O198 Zn199 2.028 . S
Zn199 O198 2.028 . S
Zn199 O203 2.035 1_655 S
Zn199 O205 2.035 1_655 S
Zn199 O206 2.028 . S
O200 C196 1.258 . S
O200 Zn201 2.035 . S
Zn201 O200 2.035 . S
Zn201 O202 2.028 . S
Zn201 O204 2.028 . S
Zn201 O207 2.035 . S
O202 Zn201 2.028 . S
O202 C208 1.247 1_655 S
O203 Zn199 2.035 1_455 S
O203 C208 1.258 . S
O204 C197 1.247 . S
O204 Zn201 2.028 . S
O205 C197 1.258 1_455 S
O205 Zn199 2.035 1_455 S
O206 Zn199 2.028 . S
O206 C209 1.247 . S
O207 Zn201 2.035 . S
O207 C209 1.258 . S
C208 O202 1.247 1_455 S
C208 O203 1.258 . S
C209 O206 1.247 . S
C209 O207 1.258 . S
C210 O212 1.247 . S
C210 O214 1.258 . S
C211 O218 1.247 . S
C211 O219 1.258 . S
O212 C210 1.247 . S
O212 Zn213 2.028 . S
Zn213 O212 2.028 . S
Zn213 O217 2.035 . S
Zn213 O219 2.035 . S
Zn213 O220 2.028 . S
O214 C210 1.258 . S
O214 Zn215 2.035 . S
Zn215 O214 2.035 . S
Zn215 O216 2.028 . S
Zn215 O218 2.028 . S
Zn215 O221 2.035 . S
O216 Zn215 2.028 . S
O216 C222 1.247 . S
O217 Zn213 2.035 . S
O217 C222 1.258 . S
O218 C211 1.247 . S
O218 Zn215 2.028 . S
O219 C211 1.258 . S
O219 Zn213 2.035 . S
O220 Zn213 2.028 . S
O220 C223 1.247 . S
O221 Zn215 2.035 . S
O221 C223 1.258 . S
C222 O216 1.247 . S
C222 O217 1.258 . S
C223 O220 1.247 . S
C223 O221 1.258 . S
C224 O226 1.247 . S
C224 O228 1.258 . S
C225 O232 1.247 . S
C225 O233 1.258 . S
O226 C224 1.247 . S
O226 Zn227 2.028 . S
Zn227 O226 2.028 . S
Zn227 O231 2.035 . S
Zn227 O233 2.035 . S
Zn227 O234 2.028 . S
O228 C224 1.258 . S
O228 Zn229 2.035 . S
Zn229 O228 2.035 . S
Zn229 O230 2.028 . S
Zn229 O232 2.028 . S
Zn229 O235 2.035 . S
O230 Zn229 2.028 . S
O230 C236 1.247 . S
O231 Zn227 2.035 . S
O231 C236 1.258 . S
O232 C225 1.247 . S
O232 Zn229 2.028 . S
O233 C225 1.258 . S
O233 Zn227 2.035 . S
O234 Zn227 2.028 . S
O234 C237 1.247 . S
O235 Zn229 2.035 . S
O235 C237 1.258 . S
C236 O230 1.247 . S
C236 O231 1.258 . S
C237 O234 1.247 . S
C237 O235 1.258 . S
C238 O240 1.247 . S
C238 O242 1.258 . S
C239 O246 1.247 . S
C239 O247 1.258 . S
O240 C238 1.247 . S
O240 Zn241 2.028 . S
Zn241 O240 2.028 . S
Zn241 O245 2.035 . S
Zn241 O247 2.035 . S
Zn241 O248 2.028 . S
O242 C238 1.258 . S
O242 Zn243 2.035 . S
Zn243 O242 2.035 . S
Zn243 O244 2.028 . S
Zn243 O246 2.028 . S
Zn243 O249 2.035 . S
O244 Zn243 2.028 . S
O244 C250 1.247 . S
O245 Zn241 2.035 . S
O245 C250 1.258 . S
O246 C239 1.247 . S
O246 Zn243 2.028 . S
O247 C239 1.258 . S
O247 Zn241 2.035 . S
O248 Zn241 2.028 . S
O248 C251 1.247 . S
O249 Zn243 2.035 . S
O249 C251 1.258 . S
C250 O244 1.247 . S
C250 O245 1.258 . S
C251 O248 1.247 . S
C251 O249 1.258 . S
C252 O254 1.247 . S
C252 O256 1.258 . S
C253 O260 1.247 . S
C253 O261 1.258 . S
O254 C252 1.247 . S
O254 Zn255 2.028 . S
Zn255 O254 2.028 . S
Zn255 O259 2.035 . S
Zn255 O261 2.035 . S
Zn255 O262 2.028 . S
O256 C252 1.258 . S
O256 Zn257 2.035 . S
Zn257 O256 2.035 . S
Zn257 O258 2.028 . S
Zn257 O260 2.028 . S
Zn257 O263 2.035 . S
O258 Zn257 2.028 . S
O258 C264 1.247 . S
O259 Zn255 2.035 . S
O259 C264 1.258 . S
O260 C253 1.247 . S
O260 Zn257 2.028 . S
O261 C253 1.258 . S
O261 Zn255 2.035 . S
O262 Zn255 2.028 . S
O262 C265 1.247 . S
O263 Zn257 2.035 . S
O263 C265 1.258 . S
C264 O258 1.247 . S
C264 O259 1.258 . S
C265 O262 1.247 . S
C265 O263 1.258 . S
C266 O268 1.247 . S
C266 O270 1.258 . S
C267 O274 1.247 . S
C267 O275 1.258 . S
O268 C266 1.247 . S
O268 Zn269 2.028 . S
Zn269 O268 2.028 . S
Zn269 O273 2.035 . S
Zn269 O275 2.035 . S
Zn269 O276 2.028 . S
O270 C266 1.258 . S
O270 Zn271 2.035 . S
Zn271 O270 2.035 . S
Zn271 O272 2.028 . S
Zn271 O274 2.028 . S
Zn271 O277 2.035 . S
O272 Zn271 2.028 . S
O272 C278 1.247 . S
O273 Zn269 2.035 . S
O273 C278 1.258 . S
O274 C267 1.247 . S
O274 Zn271 2.028 . S
O275 C267 1.258 . S
O275 Zn269 2.035 . S
O276 Zn269 2.028 . S
O276 C279 1.247 . S
O277 Zn271 2.035 . S
O277 C279 1.258 . S
C278 O272 1.247 . S
C278 O273 1.258 . S
C279 O276 1.247 . S
C279 O277 1.258 . S
C280 O282 1.247 . S
C280 O284 1.258 . S
C281 O288 1.247 . S
C281 O289 1.258 . S
O282 C280 1.247 . S
O282 Zn283 2.028 . S
Zn283 O282 2.028 . S
Zn283 O287 2.035 . S
Zn283 O289 2.035 . S
Zn283 O290 2.028 . S
O284 C280 1.258 . S
O284 Zn285 2.035 . S
Zn285 O284 2.035 . S
Zn285 O286 2.028 . S
Zn285 O288 2.028 . S
Zn285 O291 2.035 . S
O286 Zn285 2.028 . S
O286 C292 1.247 . S
O287 Zn283 2.035 . S
O287 C292 1.258 . S
O288 C281 1.247 . S
O288 Zn285 2.028 . S
O289 C281 1.258 . S
O289 Zn283 2.035 . S
O290 Zn283 2.028 . S
O290 C293 1.247 . S
O291 Zn285 2.035 . S
O291 C293 1.258 . S
C292 O286 1.247 . S
C292 O287 1.258 . S
C293 O290 1.247 . S
C293 O291 1.258 . S
C294 O296 1.247 . S
C294 O298 1.258 . S
C295 O302 1.247 . S
C295 O303 1.258 . S
O296 C294 1.247 . S
O296 Zn297 2.028 . S
Zn297 O296 2.028 . S
Zn297 O301 2.035 . S
Zn297 O303 2.035 . S
Zn297 O304 2.028 . S
O298 C294 1.258 . S
O298 Zn299 2.035 . S
Zn299 O298 2.035 . S
Zn299 O300 2.028 . S
Zn299 O302 2.028 . S
Zn299 O305 2.035 . S
O300 Zn299 2.028 . S
O300 C306 1.247 . S
O301 Zn297 2.035 . S
O301 C306 1.258 . S
O302 C295 1.247 . S
O302 Zn299 2.028 . S
O303 C295 1.258 . S
O303 Zn297 2.035 . S
O304 Zn297 2.028 . S
O304 C307 1.247 . S
O305 Zn299 2.035 . S
O305 C307 1.258 . S
C306 O300 1.247 . S
C306 O301 1.258 . S
C307 O304 1.247 . S
C307 O305 1.258 . S
C308 O310 1.247 . S
C308 O312 1.258 . S
C309 O316 1.247 1_565 S
C309 O317 1.258 . S
O310 C308 1.247 . S
O310 Zn311 2.028 . S
Zn311 O310 2.028 . S
Zn311 O315 2.035 1_545 S
Zn311 O317 2.035 1_545 S
Zn311 O318 2.028 . S
O312 C308 1.258 . S
O312 Zn313 2.035 . S
Zn313 O312 2.035 . S
Zn313 O314 2.028 . S
Zn313 O316 2.028 . S
Zn313 O319 2.035 . S
O314 Zn313 2.028 . S
O314 C320 1.247 . S
O315 Zn311 2.035 1_565 S
O315 C320 1.258 1_565 S
O316 C309 1.247 1_545 S
O316 Zn313 2.028 . S
O317 C309 1.258 . S
O317 Zn311 2.035 1_565 S
O318 Zn311 2.028 . S
O318 C321 1.247 . S
O319 Zn313 2.035 . S
O319 C321 1.258 . S
C320 O314 1.247 . S
C320 O315 1.258 1_545 S
C321 O318 1.247 . S
C321 O319 1.258 . S
C322 O324 1.247 . S
C322 O326 1.258 1_455 S
C323 O330 1.247 . S
C323 O331 1.258 . S
O324 C322 1.247 . S
O324 Zn325 2.028 1_455 S
Zn325 O324 2.028 1_655 S
Zn325 O329 2.035 . S
Zn325 O331 2.035 . S
Zn325 O332 2.028 1_655 S
O326 C322 1.258 1_655 S
O326 Zn327 2.035 . S
Zn327 O326 2.035 . S
Zn327 O328 2.028 . S
Zn327 O330 2.028 . S
Zn327 O333 2.035 . S
O328 Zn327 2.028 . S
O328 C334 1.247 . S
O329 Zn325 2.035 . S
O329 C334 1.258 . S
O330 C323 1.247 . S
O330 Zn327 2.028 . S
O331 C323 1.258 . S
O331 Zn325 2.035 . S
O332 Zn325 2.028 1_455 S
O332 C335 1.247 1_455 S
O333 Zn327 2.035 . S
O333 C335 1.258 . S
C334 O328 1.247 . S
C334 O329 1.258 . S
C335 O332 1.247 1_655 S
C335 O333 1.258 . S
C336 O338 1.247 . S
C336 O340 1.258 . S
C337 O344 1.247 . S
C337 O345 1.258 . S
O338 C336 1.247 . S
O338 Zn339 2.028 . S
Zn339 O338 2.028 . S
Zn339 O343 2.035 . S
Zn339 O345 2.035 . S
Zn339 O346 2.028 . S
O340 C336 1.258 . S
O340 Zn341 2.035 . S
Zn341 O340 2.035 . S
Zn341 O342 2.028 . S
Zn341 O344 2.028 . S
Zn341 O347 2.035 . S
O342 Zn341 2.028 . S
O342 C348 1.247 . S
O343 Zn339 2.035 . S
O343 C348 1.258 . S
O344 C337 1.247 . S
O344 Zn341 2.028 . S
O345 C337 1.258 . S
O345 Zn339 2.035 . S
O346 Zn339 2.028 . S
O346 C349 1.247 . S
O347 Zn341 2.035 . S
O347 C349 1.258 . S
C348 O342 1.247 . S
C348 O343 1.258 . S
C349 O346 1.247 . S
C349 O347 1.258 . S
C350 O352 1.247 . S
C350 O354 1.258 . S
C351 O358 1.247 . S
C351 O359 1.258 . S
O352 C350 1.247 . S
O352 Zn353 2.028 . S
Zn353 O352 2.028 . S
Zn353 O357 2.035 . S
Zn353 O359 2.035 . S
Zn353 O360 2.028 . S
O354 C350 1.258 . S
O354 Zn355 2.035 . S
Zn355 O354 2.035 . S
Zn355 O356 2.028 . S
Zn355 O358 2.028 . S
Zn355 O361 2.035 . S
O356 Zn355 2.028 . S
O356 C362 1.247 . S
O357 Zn353 2.035 . S
O357 C362 1.258 . S
O358 C351 1.247 . S
O358 Zn355 2.028 . S
O359 C351 1.258 . S
O359 Zn353 2.035 . S
O360 Zn353 2.028 . S
O360 C363 1.247 . S
O361 Zn355 2.035 . S
O361 C363 1.258 . S
C362 O356 1.247 . S
C362 O357 1.258 . S
C363 O360 1.247 . S
C363 O361 1.258 . S
C364 O366 1.247 . S
C364 O368 1.258 . S
C365 O372 1.247 . S
C365 O373 1.258 . S
O366 C364 1.247 . S
O366 Zn367 2.028 . S
Zn367 O366 2.028 . S
Zn367 O371 2.035 . S
Zn367 O373 2.035 . S
Zn367 O374 2.028 . S
O368 C364 1.258 . S
O368 Zn369 2.035 . S
Zn369 O368 2.035 . S
Zn369 O370 2.028 . S
Zn369 O372 2.028 . S
Zn369 O375 2.035 . S
O370 Zn369 2.028 . S
O370 C376 1.247 . S
O371 Zn367 2.035 . S
O371 C376 1.258 . S
O372 C365 1.247 . S
O372 Zn369 2.028 . S
O373 C365 1.258 . S
O373 Zn367 2.035 . S
O374 Zn367 2.028 . S
O374 C377 1.247 . S
O375 Zn369 2.035 . S
O375 C377 1.258 . S
C376 O370 1.247 . S
C376 O371 1.258 . S
C377 O374 1.247 . S
C377 O375 1.258 . S
C378 O380 1.247 . S
C378 O382 1.258 . S
C379 O386 1.247 . S
C379 O387 1.258 . S
O380 C378 1.247 . S
O380 Zn381 2.028 . S
Zn381 O380 2.028 . S
Zn381 O385 2.035 . S
Zn381 O387 2.035 . S
Zn381 O388 2.028 . S
O382 C378 1.258 . S
O382 Zn383 2.035 . S
Zn383 O382 2.035 . S
Zn383 O384 2.028 . S
Zn383 O386 2.028 . S
Zn383 O389 2.035 . S
O384 Zn383 2.028 . S
O384 C390 1.247 . S
O385 Zn381 2.035 . S
O385 C390 1.258 . S
O386 C379 1.247 . S
O386 Zn383 2.028 . S
O387 C379 1.258 . S
O387 Zn381 2.035 . S
O388 Zn381 2.028 . S
O388 C391 1.247 . S
O389 Zn383 2.035 . S
O389 C391 1.258 . S
C390 O384 1.247 . S
C390 O385 1.258 . S
C391 O388 1.247 . S
C391 O389 1.258 . S
C392 O394 1.247 . S
C392 O396 1.258 . S
C393 O400 1.247 . S
C393 O401 1.258 1_565 S
O394 C392 1.247 . S
O394 Zn395 2.028 . S
Zn395 O394 2.028 . S
Zn395 O399 2.035 1_565 S
Zn395 O401 2.035 1_565 S
Zn395 O402 2.028 . S
O396 C392 1.258 . S
O396 Zn397 2.035 . S
Zn397 O396 2.035 . S
Zn397 O398 2.028 . S
Zn397 O400 2.028 . S
Zn397 O403 2.035 . S
O398 Zn397 2.028 . S
O398 C404 1.247 1_565 S
O399 Zn395 2.035 1_545 S
O399 C404 1.258 . S
O400 C393 1.247 . S
O400 Zn397 2.028 . S
O401 C393 1.258 1_545 S
O401 Zn395 2.035 1_545 S
O402 Zn395 2.028 . S
O402 C405 1.247 . S
O403 Zn397 2.035 . S
O403 C405 1.258 . S
C404 O398 1.247 1_545 S
C404 O399 1.258 . S
C405 O402 1.247 . S
C405 O403 1.258 . S
C406 O408 1.247 . S
C406 O410 1.258 . S
C407 O414 1.247 . S
C407 O415 1.258 1_655 S
O408 C406 1.247 . S
O408 Zn409 2.028 . S
Zn409 O408 2.028 . S
Zn409 O413 2.035 . S
Zn409 O415 2.035 . S
Zn409 O416 2.028 . S
O410 C406 1.258 . S
O410 Zn411 2.035 . S
Zn411 O410 2.035 . S
Zn411 O412 2.028 1_455 S
Zn411 O414 2.028 1_455 S
Zn411 O417 2.035 . S
O412 Zn411 2.028 1_655 S
O412 C418 1.247 1_655 S
O413 Zn409 2.035 . S
O413 C418 1.258 . S
O414 C407 1.247 . S
O414 Zn411 2.028 1_655 S
O415 C407 1.258 1_455 S
O415 Zn409 2.035 . S
O416 Zn409 2.028 . S
O416 C419 1.247 . S
O417 Zn411 2.035 . S
O417 C419 1.258 . S
C418 O412 1.247 1_455 S
C418 O413 1.258 . S
C419 O416 1.247 . S
C419 O417 1.258 . S
C420 O422 1.247 . S
C420 O424 1.258 . S
C421 O428 1.247 . S
C421 O429 1.258 . S
O422 C420 1.247 . S
O422 Zn423 2.028 . S
Zn423 O422 2.028 . S
Zn423 O427 2.035 . S
Zn423 O429 2.035 . S
Zn423 O430 2.028 . S
O424 C420 1.258 . S
O424 Zn425 2.035 . S
Zn425 O424 2.035 . S
Zn425 O426 2.028 . S
Zn425 O428 2.028 . S
Zn425 O431 2.035 . S
O426 Zn425 2.028 . S
O426 C432 1.247 . S
O427 Zn423 2.035 . S
O427 C432 1.258 . S
O428 C421 1.247 . S
O428 Zn425 2.028 . S
O429 C421 1.258 . S
O429 Zn423 2.035 . S
O430 Zn423 2.028 . S
O430 C433 1.247 . S
O431 Zn425 2.035 . S
O431 C433 1.258 . S
C432 O426 1.247 . S
C432 O427 1.258 . S
C433 O430 1.247 . S
C433 O431 1.258 . S
C434 O436 1.247 . S
C434 O438 1.258 . S
C435 O442 1.247 1_565 S
C435 O443 1.258 . S
O436 C434 1.247 . S
O436 Zn437 2.028 . S
Zn437 O436 2.028 . S
Zn437 O441 2.035 . S
Zn437 O443 2.035 . S
Zn437 O444 2.028 . S
O438 C434 1.258 . S
O438 Zn439 2.035 . S
Zn439 O438 2.035 . S
Zn439 O440 2.028 1_565 S
Zn439 O442 2.028 1_565 S
Zn439 O445 2.035 . S
O440 Zn439 2.028 1_545 S
O440 C446 1.247 . S
O441 Zn437 2.035 . S
O441 C446 1.258 1_565 S
O442 C435 1.247 1_545 S
O442 Zn439 2.028 1_545 S
O443 C435 1.258 . S
O443 Zn437 2.035 . S
O444 Zn437 2.028 . S
O444 C447 1.247 . S
O445 Zn439 2.035 . S
O445 C447 1.258 . S
C446 O440 1.247 . S
C446 O441 1.258 1_545 S
C447 O444 1.247 . S
C447 O445 1.258 . S
C448 O450 1.247 . S
C448 O452 1.258 1_655 S
C449 O456 1.247 . S
C449 O457 1.258 . S
O450 C448 1.247 . S
O450 Zn451 2.028 1_655 S
Zn451 O450 2.028 1_455 S
Zn451 O455 2.035 . S
Zn451 O457 2.035 . S
Zn451 O458 2.028 1_455 S
O452 C448 1.258 1_455 S
O452 Zn453 2.035 . S
Zn453 O452 2.035 . S
Zn453 O454 2.028 . S
Zn453 O456 2.028 . S
Zn453 O459 2.035 . S
O454 Zn453 2.028 . S
O454 C460 1.247 . S
O455 Zn451 2.035 . S
O455 C460 1.258 . S
O456 C449 1.247 . S
O456 Zn453 2.028 . S
O457 C449 1.258 . S
O457 Zn451 2.035 . S
O458 Zn451 2.028 1_655 S
O458 C461 1.247 1_655 S
O459 Zn453 2.035 . S
O459 C461 1.258 . S
C460 O454 1.247 . S
C460 O455 1.258 . S
C461 O458 1.247 1_455 S
C461 O459 1.258 . S
C462 O464 1.247 . S
C462 O466 1.258 . S
C463 O470 1.247 . S
C463 O471 1.258 . S
O464 C462 1.247 . S
O464 Zn465 2.028 . S
Zn465 O464 2.028 . S
Zn465 O469 2.035 . S
Zn465 O471 2.035 . S
Zn465 O472 2.028 . S
O466 C462 1.258 . S
O466 Zn467 2.035 . S
Zn467 O466 2.035 . S
Zn467 O468 2.028 . S
Zn467 O470 2.028 . S
Zn467 O473 2.035 . S
O468 Zn467 2.028 . S
O468 C474 1.247 . S
O469 Zn465 2.035 . S
O469 C474 1.258 . S
O470 C463 1.247 . S
O470 Zn467 2.028 . S
O471 C463 1.258 . S
O471 Zn465 2.035 . S
O472 Zn465 2.028 . S
O472 C475 1.247 . S
O473 Zn467 2.035 . S
O473 C475 1.258 . S
C474 O468 1.247 . S
C474 O469 1.258 . S
C475 O472 1.247 . S
C475 O473 1.258 . S
C476 O478 1.247 . S
C476 O480 1.258 . S
C477 O484 1.247 . S
C477 O485 1.258 . S
O478 C476 1.247 . S
O478 Zn479 2.028 . S
Zn479 O478 2.028 . S
Zn479 O483 2.035 . S
Zn479 O485 2.035 . S
Zn479 O486 2.028 . S
O480 C476 1.258 . S
O480 Zn481 2.035 . S
Zn481 O480 2.035 . S
Zn481 O482 2.028 . S
Zn481 O484 2.028 . S
Zn481 O487 2.035 . S
O482 Zn481 2.028 . S
O482 C488 1.247 . S
O483 Zn479 2.035 . S
O483 C488 1.258 . S
O484 C477 1.247 . S
O484 Zn481 2.028 . S
O485 C477 1.258 . S
O485 Zn479 2.035 . S
O486 Zn479 2.028 . S
O486 C489 1.247 . S
O487 Zn481 2.035 . S
O487 C489 1.258 . S
C488 O482 1.247 . S
C488 O483 1.258 . S
C489 O486 1.247 . S
C489 O487 1.258 . S
C490 O492 1.247 . S
C490 O494 1.258 . S
C491 O498 1.247 . S
C491 O499 1.258 . S
O492 C490 1.247 . S
O492 Zn493 2.028 . S
Zn493 O492 2.028 . S
Zn493 O497 2.035 . S
Zn493 O499 2.035 . S
Zn493 O500 2.028 . S
O494 C490 1.258 . S
O494 Zn495 2.035 . S
Zn495 O494 2.035 . S
Zn495 O496 2.028 . S
Zn495 O498 2.028 . S
Zn495 O501 2.035 . S
O496 Zn495 2.028 . S
O496 C502 1.247 . S
O497 Zn493 2.035 . S
O497 C502 1.258 . S
O498 C491 1.247 . S
O498 Zn495 2.028 . S
O499 C491 1.258 . S
O499 Zn493 2.035 . S
O500 Zn493 2.028 . S
O500 C503 1.247 . S
O501 Zn495 2.035 . S
O501 C503 1.258 . S
C502 O496 1.247 . S
C502 O497 1.258 . S
C503 O500 1.247 . S
C503 O501 1.258 . S
C68 C13 1.332 1_656 S
C83 C26 1.332 1_556 S
C42 C29 1.332 1_546 S
C153 C84 1.332 1_454 S
C110 C166 1.334 1_556 S
C139 C124 1.332 1_564 S
C169 C236 1.388 . S
C251 C195 1.392 . S
C208 C210 1.385 . S
C264 C309 1.388 . S
C322 C266 1.392 . S
C280 C306 1.391 . S
C404 C349 1.388 . S
C363 C407 1.392 . S
C390 C365 1.388 . S
C489 C432 1.388 . S
C446 C502 1.392 . S
C448 C475 1.388 . S
C167 C12 1.757 . S
C27 C138 1.761 . S
C152 C28 1.759 . S
C111 C43 1.759 . S
C69 C125 1.759 . S
C85 C82 1.756 . S
C168 C323 1.824 . S
C307 C194 1.824 . S
C308 C209 1.829 . S
C211 C267 1.808 . S
C237 C281 1.808 . S
C250 C265 1.806 . S
C503 C348 1.806 . S
C362 C474 1.808 . S
C364 C488 1.808 . S
C447 C391 1.827 . S
C449 C405 1.827 . S
C433 C406 1.824 . S
C223 C0 1.765 . S
C225 C15 1.763 . S
C40 C238 1.768 . S
C55 C336 1.766 . S
C57 C350 1.767 . S
C70 C376 1.767 . S
C97 C462 1.765 . S
C99 C476 1.765 . S
C113 C491 1.768 . S
C126 C253 1.766 . S
C279 C140 1.766 . S
C293 C155 1.767 . S
C379 C180 2.034 . S
C182 C393 2.034 1_545 S
C418 C197 2.034 1_455 S
C295 C421 2.036 . S
C435 C320 2.034 1_565 S
C461 C335 2.036 1_455 S
C1 C419 2.188 . S
C14 C378 2.199 . S
C41 C392 2.194 . S
C54 C183 2.194 . S
C196 C56 2.199 . S
C181 C71 2.187 . S
C334 C96 2.188 . S
C294 C98 2.187 . S
C321 C112 2.194 . S
C434 C127 2.194 . S
C460 C141 2.194 . S
C420 C154 2.187 . S
C222 C351 2.044 1_455 S
C377 C224 2.043 . S
C337 C239 2.037 1_545 S
C252 C490 2.037 1_565 S
C463 C278 2.044 1_655 S
C292 C477 2.043 . S
