# Generated by pormake.
# Topology wjh, (4)-cn, num edge types: 1
# Building blocks:
#     Node 0, Type 0, BuildingBlock: ESEHIV_clean_sbu_0, # of connection points: 4
#     Node 1, Type 0, BuildingBlock: ESEHIV_clean_sbu_0, # of connection points: 4
#     Node 2, Type 0, BuildingBlock: ESEHIV_clean_sbu_0, # of connection points: 4
#     Node 3, Type 0, BuildingBlock: ESEHIV_clean_sbu_0, # of connection points: 4
#     Node 4, Type 0, BuildingBlock: ESEHIV_clean_sbu_0, # of connection points: 4
#     Node 5, Type 0, BuildingBlock: ESEHIV_clean_sbu_0, # of connection points: 4
#     Node 6, Type 0, BuildingBlock: ESEHIV_clean_sbu_0, # of connection points: 4
#     Node 7, Type 0, BuildingBlock: ESEHIV_clean_sbu_0, # of connection points: 4
#     Node 8, Type 0, BuildingBlock: ESEHIV_clean_sbu_0, # of connection points: 4
#     Node 9, Type 0, BuildingBlock: ESEHIV_clean_sbu_0, # of connection points: 4
#     Node 10, Type 0, BuildingBlock: ESEHIV_clean_sbu_0, # of connection points: 4
#     Node 11, Type 0, BuildingBlock: ESEHIV_clean_sbu_0, # of connection points: 4
#     Edge 12, Type (0, 0), BuildingBlock: CIFDUS_clean_linker_0, # of connection points: 2
#     Edge 13, Type (0, 0), BuildingBlock: CIFDUS_clean_linker_0, # of connection points: 2
#     Edge 14, Type (0, 0), BuildingBlock: CIFDUS_clean_linker_0, # of connection points: 2
#     Edge 15, Type (0, 0), BuildingBlock: CIFDUS_clean_linker_0, # of connection points: 2
#     Edge 16, Type (0, 0), BuildingBlock: CIFDUS_clean_linker_0, # of connection points: 2
#     Edge 17, Type (0, 0), BuildingBlock: CIFDUS_clean_linker_0, # of connection points: 2
#     Edge 18, Type (0, 0), BuildingBlock: CIFDUS_clean_linker_0, # of connection points: 2
#     Edge 19, Type (0, 0), BuildingBlock: CIFDUS_clean_linker_0, # of connection points: 2
#     Edge 20, Type (0, 0), BuildingBlock: CIFDUS_clean_linker_0, # of connection points: 2
#     Edge 21, Type (0, 0), BuildingBlock: CIFDUS_clean_linker_0, # of connection points: 2
#     Edge 22, Type (0, 0), BuildingBlock: CIFDUS_clean_linker_0, # of connection points: 2
#     Edge 23, Type (0, 0), BuildingBlock: CIFDUS_clean_linker_0, # of connection points: 2
#     Edge 24, Type (0, 0), BuildingBlock: CIFDUS_clean_linker_0, # of connection points: 2
#     Edge 25, Type (0, 0), BuildingBlock: CIFDUS_clean_linker_0, # of connection points: 2
#     Edge 26, Type (0, 0), BuildingBlock: CIFDUS_clean_linker_0, # of connection points: 2
#     Edge 27, Type (0, 0), BuildingBlock: CIFDUS_clean_linker_0, # of connection points: 2
#     Edge 28, Type (0, 0), BuildingBlock: CIFDUS_clean_linker_0, # of connection points: 2
#     Edge 29, Type (0, 0), BuildingBlock: CIFDUS_clean_linker_0, # of connection points: 2
#     Edge 30, Type (0, 0), BuildingBlock: CIFDUS_clean_linker_0, # of connection points: 2
#     Edge 31, Type (0, 0), BuildingBlock: CIFDUS_clean_linker_0, # of connection points: 2
#     Edge 32, Type (0, 0), BuildingBlock: CIFDUS_clean_linker_0, # of connection points: 2
#     Edge 33, Type (0, 0), BuildingBlock: CIFDUS_clean_linker_0, # of connection points: 2
#     Edge 34, Type (0, 0), BuildingBlock: CIFDUS_clean_linker_0, # of connection points: 2
#     Edge 35, Type (0, 0), BuildingBlock: CIFDUS_clean_linker_0, # of connection points: 2
# Relax obj value: 0.035
# Max RMSD: 0.091
# Mean RMSD: 0.091
data_MOF--net-wjh--node1-ESEHIV_clean_sbu_0--edge1-CIFDUS_clean_linker_0
_symmetry_space_group_name_H-M    P1
_symmetry_Int_Tables_number       1
_symmetry_cell_setting            triclinic
loop_
_symmetry_equiv_pos_as_xyz
'x, y, z'
_cell_length_a     58.809096
_cell_length_b     58.484492
_cell_length_c     24.929992
_cell_angle_alpha  89.9245
_cell_angle_beta   89.341789
_cell_angle_gamma 120.0795
loop_
_atom_site_label
_atom_site_type_symbol
_atom_site_fract_x
_atom_site_fract_y
_atom_site_fract_z
_atom_type_partial_charge
Cu0 Cu 0.54952 0.16197 0.08125 0.0
N1 N 0.51539 0.13322 0.0856 0.0
N2 N 0.48268 0.09132 0.08382 0.0
C3 C 0.50651 0.1092 0.06374 0.0
C4 C 0.47629 0.10452 0.11958 0.0
C5 C 0.4965 0.13041 0.12048 0.0
O6 O 0.5674 0.15801 1.01784 0.0
C7 C 0.58294 0.18149 0.17389 0.0
O8 O 0.59346 0.20487 0.1508 0.0
H9 H 0.51804 0.10447 0.03657 0.0
H10 H 0.49805 0.14573 0.14701 0.0
N11 N 0.54878 0.19355 0.07484 0.0
N12 N 0.54508 0.22909 0.09306 0.0
C13 C 0.54167 0.20578 0.11174 0.0
C14 C 0.55686 0.20959 1.03158 0.0
C15 C 0.55449 0.23133 0.04249 0.0
C16 C 0.55718 0.15516 0.97159 0.0
O17 O 0.53451 0.15433 0.96792 0.0
H18 H 0.53494 0.19811 0.15188 0.0
H19 H 0.56439 0.20601 0.99477 0.0
O20 O 0.56554 0.16135 0.14914 0.0
H21 H 0.45871 0.09583 0.14452 0.0
H22 H 0.55936 0.24752 1.01501 0.0
Cu23 Cu 0.44457 0.60426 0.30001 0.0
N24 N 0.47906 0.61192 0.28597 0.0
N25 N 0.50571 0.59576 0.26734 0.0
C26 C 0.48278 0.59468 0.25678 0.0
C27 C 0.51731 0.61492 0.30436 0.0
C28 C 0.50081 0.62487 0.3158 0.0
O29 O 0.42568 0.584 0.23658 0.0
C30 C 0.4468 0.60511 0.40932 0.0
O31 O 0.45983 0.63016 0.39549 0.0
H32 H 0.46727 0.57899 0.23401 0.0
H33 H 0.50329 0.63832 0.34784 0.0
N34 N 0.43784 0.63248 0.30298 0.0
N35 N 0.41233 0.65026 0.31682 0.0
C36 C 0.41314 0.62793 0.30839 0.0
C37 C 0.45344 0.65885 0.30736 0.0
C38 C 0.43767 0.66988 0.31653 0.0
C39 C 0.43352 0.59888 0.19478 0.0
O40 O 0.45066 0.62406 0.20118 0.0
H41 H 0.39606 0.60827 0.30915 0.0
H42 H 0.4747 0.66911 0.30669 0.0
O43 O 0.43648 0.58793 0.37218 0.0
H44 H 0.53529 0.61984 0.32491 0.0
H45 H 0.44429 0.69052 0.32362 0.0
Cu46 Cu 0.88829 0.41804 0.39692 0.0
N47 N 0.92332 0.42655 0.40432 0.0
N48 N 0.96719 0.45023 0.40868 0.0
C49 C 0.94499 0.4503 0.39547 0.0
C50 C 0.9591 0.42545 0.42633 0.0
C51 C 0.93208 0.41092 0.42358 0.0
O52 O 0.88385 0.43015 0.32666 0.0
C53 C 0.88192 0.42694 0.50391 0.0
O54 O 0.88803 0.40832 0.50935 0.0
H55 H 0.94438 0.46746 0.3811 0.0
H56 H 0.91964 0.39052 0.43574 0.0
N57 N 0.8656 0.3814 0.40194 0.0
N58 N 0.83195 0.34215 0.42795 0.0
C59 C 0.84392 0.36868 0.43334 0.0
C60 C 0.86732 0.3623 0.37535 0.0
C61 C 0.8466 0.33808 0.39127 0.0
C62 C 0.89522 0.42688 0.28593 0.0
O63 O 0.90975 0.4159 0.29284 0.0
H64 H 0.837 0.37873 0.45945 0.0
H65 H 0.88273 0.36575 0.34681 0.0
O66 O 0.88052 0.43461 0.45675 0.0
H67 H 0.9718 0.41829 0.44023 0.0
H68 H 0.84299 0.31897 0.37783 0.0
Cu69 Cu 0.47471 0.85027 0.59938 0.0
N70 N 0.50449 0.88378 0.60846 0.0
N71 N 0.53438 0.9269 0.6049 0.0
C72 C 0.51503 0.90617 0.57856 0.0
C73 C 0.53639 0.91709 0.65243 0.0
C74 C 0.51807 0.89062 0.65437 0.0
O75 O 0.45788 0.84544 0.5291 0.0
C76 C 0.45048 0.86264 0.68488 0.0
O77 O 0.45928 0.88497 0.65825 0.0
H78 H 0.5081 0.9076 0.53946 0.0
H79 H 0.51412 0.87734 0.68794 0.0
N80 N 0.48583 0.82549 0.60271 0.0
N81 N 0.48691 0.78842 0.6188 0.0
C82 C 0.47205 0.8001 0.61949 0.0
C83 C 0.51006 0.82994 0.59066 0.0
C84 C 0.51082 0.80717 0.60065 0.0
C85 C 0.45416 0.86168 0.50158 0.0
O86 O 0.45972 0.8845 0.52232 0.0
H87 H 0.45182 0.79065 0.6334 0.0
H88 H 0.52615 0.8486 0.57629 0.0
O89 O 0.45256 0.844 0.66334 0.0
H90 H 0.54982 0.92839 0.684 0.0
H91 H 0.5277 0.80462 0.59505 0.0
Cu92 Cu 0.63516 0.48992 0.7421 0.0
N93 N 0.6198 0.51105 0.74691 0.0
N94 N 0.58787 0.52112 0.74606 0.0
C95 C 0.59714 0.50625 0.72419 0.0
C96 C 0.60542 0.53596 0.78357 0.0
C97 C 0.62513 0.52973 0.78393 0.0
O98 O 0.62212 0.46831 0.67798 0.0
C99 C 0.60245 0.45805 0.82653 0.0
O100 O 0.58376 0.45661 0.79586 0.0
H101 H 0.58653 0.49063 0.6956 0.0
H102 H 0.6412 0.53689 0.81178 0.0
N103 N 0.67179 0.51045 0.73913 0.0
N104 N 0.71388 0.52269 0.75187 0.0
C105 C 0.68865 0.50478 0.76385 0.0
C106 C 0.68693 0.53294 0.71129 0.0
C107 C 0.71296 0.5404 0.71866 0.0
C108 C 0.6277 0.48007 0.63257 0.0
O109 O 0.64222 0.50593 0.63108 0.0
H110 H 0.68254 0.48756 0.78917 0.0
H111 H 0.6796 0.54317 0.68718 0.0
O112 O 0.62594 0.46965 0.80849 0.0
H113 H 0.6035 0.54947 0.81035 0.0
H114 H 0.72989 0.55758 0.70142 0.0
Cu115 Cu 0.18275 0.57919 0.91901 0.0
N116 N 0.14932 0.57319 0.93669 0.0
N117 N 0.10823 0.56596 0.93691 0.0
C118 C 0.12896 0.56955 0.90624 0.0
C119 C 0.11608 0.56767 0.98813 0.0
C120 C 0.1413 0.57213 0.98779 0.0
O121 O 0.18377 0.56422 0.84959 0.0
C122 C 0.21444 0.57258 0.99827 0.0
O123 O 0.23488 0.59175 0.97312 0.0
H124 H 0.12924 0.56929 0.86283 0.0
H125 H 0.15319 0.57463 1.0225 0.0
N126 N 0.2053 0.61577 0.91577 0.0
N127 N 0.23209 0.65796 0.93858 0.0
C128 C 0.21758 0.63265 0.95621 0.0
C129 C 0.2119 0.6308 0.87119 0.0
C130 C 0.22837 0.65674 0.885 0.0
C131 C 0.20588 0.56826 0.83172 0.0
O132 O 0.22655 0.58079 0.86226 0.0
H133 H 0.21607 0.62634 0.99754 0.0
H134 H 0.20503 0.62337 0.83141 0.0
O135 O 0.19169 0.56373 0.97872 0.0
H136 H 0.10459 0.5663 1.02348 0.0
H137 H 0.2366 0.67337 0.85749 0.0
Cu138 Cu 0.88324 0.4941 0.90301 0.0
N139 N 0.91886 0.51886 0.89554 0.0
N140 N 0.96233 0.53604 0.89985 0.0
C141 C 0.93849 0.51559 0.91367 0.0
C142 C 0.95747 0.55286 0.87182 0.0
C143 C 0.93057 0.54221 0.86934 0.0
O144 O 0.87959 0.47504 0.97009 0.0
C145 C 0.87567 0.48157 0.79385 0.0
O146 O 0.88246 0.50661 0.79007 0.0
H147 H 0.93527 0.49819 0.93553 0.0
H148 H 0.92028 0.55074 0.84943 0.0
N149 N 0.86362 0.51119 0.90733 0.0
N150 N 0.83161 0.52065 0.8967 0.0
C151 C 0.84255 0.50661 0.87836 0.0
C152 C 0.86612 0.52881 0.94483 0.0
C153 C 0.84624 0.53454 0.93862 0.0
C154 C 0.86108 0.46853 1.00444 0.0
O155 O 0.8414 0.47219 0.99284 0.0
H156 H 0.83467 0.49245 0.84614 0.0
H157 H 0.88082 0.53618 0.97576 0.0
O158 O 0.8737 0.47147 0.84025 0.0
H159 H 0.97226 0.57159 0.8548 0.0
H160 H 0.84256 0.54758 0.96334 0.0
Cu161 Cu 0.40221 0.86441 0.08797 0.0
N162 N 0.39748 0.89337 0.07855 0.0
N163 N 0.40623 0.93518 0.07767 0.0
C164 C 0.41105 0.91731 0.10149 0.0
C165 C 0.38898 0.92201 0.0385 0.0
C166 C 0.38356 0.89619 0.03925 0.0
O167 O 0.42078 0.86959 0.15608 0.0
C168 C 0.42255 0.84501 1.00299 0.0
O169 O 0.41538 0.82389 0.03286 0.0
H170 H 0.42546 0.92199 0.13245 0.0
H171 H 0.37149 0.88089 1.0112 0.0
N172 N 0.36908 0.83382 0.09077 0.0
N173 N 0.33374 0.79581 0.06676 0.0
C174 C 0.35779 0.81571 0.0519 0.0
C175 C 0.35145 0.82538 0.13145 0.0
C176 C 0.32969 0.80191 0.1169 0.0
C177 C 0.41675 0.85125 0.18935 0.0
O178 O 0.4015 0.8265 0.17552 0.0
H179 H 0.3672 0.81702 1.01365 0.0
H180 H 0.35429 0.83557 0.16911 0.0
O181 O 0.42053 0.86415 1.02198 0.0
H182 H 0.38152 0.93068 1.01029 0.0
H183 H 0.3122 0.79045 0.14128 0.0
Cu184 Cu 0.55825 0.42737 0.23292 0.0
N185 N 0.53475 0.43985 0.24019 0.0
N186 N 0.522 0.46985 0.24879 0.0
C187 C 0.54078 0.46373 0.25956 0.0
C188 C 0.50335 0.44892 0.22194 0.0
C189 C 0.51129 0.43046 0.21664 0.0
O190 O 0.58219 0.44062 0.29299 0.0
C191 C 0.59621 0.44218 0.14563 0.0
O192 O 0.61177 0.43917 0.17868 0.0
H193 H 0.55944 0.47716 0.27762 0.0
H194 H 0.50145 0.41224 0.19435 0.0
N195 N 0.54159 0.39047 0.2304 0.0
N196 N 0.53561 0.35092 0.2067 0.0
C197 C 0.55223 0.3773 0.20673 0.0
C198 C 0.51733 0.37181 0.24645 0.0
C199 C 0.51362 0.34733 0.23205 0.0
C200 C 0.57359 0.42981 0.33883 0.0
O201 O 0.54965 0.40946 0.34274 0.0
H202 H 0.5718 0.38706 0.18931 0.0
H203 H 0.50316 0.37576 0.26604 0.0
O204 O 0.57462 0.4396 0.16289 0.0
H205 H 0.48569 0.44748 0.20567 0.0
H206 H 0.49579 0.32853 0.23803 0.0
Cu207 Cu 0.19263 0.56227 0.4138 0.0
N208 N 0.16325 0.56661 0.4134 0.0
N209 N 0.12008 0.55204 0.41931 0.0
C210 C 0.13957 0.54695 0.4297 0.0
C211 C 0.13205 0.57609 0.39536 0.0
C212 C 0.15879 0.58511 0.3919 0.0
O213 O 0.18949 0.5446 0.48227 0.0
C214 C 0.19379 0.55633 0.30654 0.0
O215 O 0.19765 0.58038 0.31119 0.0
H216 H 0.13658 0.52847 0.44604 0.0
H217 H 0.17364 0.60324 0.37302 0.0
N218 N 0.2254 0.59344 0.40852 0.0
N219 N 0.26787 0.61786 0.38446 0.0
C220 C 0.24596 0.59388 0.38329 0.0
C221 C 0.23458 0.6181 0.42705 0.0
C222 C 0.26092 0.63325 0.41239 0.0
C223 C 0.20823 0.55189 0.51525 0.0
O224 O 0.23238 0.56833 0.49893 0.0
H225 H 0.24488 0.57654 0.36527 0.0
H226 H 0.22306 0.62455 0.44977 0.0
O227 O 0.19027 0.54259 0.34886 0.0
H228 H 0.12217 0.58617 0.38038 0.0
H229 H 0.27381 0.65394 0.42117 0.0
Cu230 Cu 0.62954 0.15822 0.56926 0.0
N231 N 0.62841 0.1258 0.56231 0.0
N232 N 0.61397 0.08243 0.56643 0.0
C233 C 0.61138 0.10256 0.586 0.0
C234 C 0.63334 0.09342 0.52905 0.0
C235 C 0.64221 0.12016 0.52664 0.0
O236 O 0.60951 0.15766 0.63349 0.0
C237 C 0.59663 0.14568 0.47863 0.0
O238 O 0.58368 0.12242 0.50223 0.0
H239 H 0.5966 0.10026 0.61521 0.0
H240 H 0.6571 0.13441 0.49958 0.0
N241 N 0.66447 0.18562 0.57527 0.0
N242 N 0.70426 0.2196 0.5536 0.0
C243 C 0.68117 0.1999 0.53501 0.0
C244 C 0.67746 0.19661 0.62072 0.0
C245 C 0.70194 0.21745 0.60755 0.0
C246 C 0.61397 0.15091 0.67923 0.0
O247 O 0.63156 0.14339 0.68242 0.0
H248 H 0.67611 0.19645 0.49304 0.0
H249 H 0.66957 0.1904 0.66081 0.0
O250 O 0.61606 0.16437 0.50262 0.0
H251 H 0.64045 0.08285 0.50496 0.0
H252 H 0.71682 0.23009 0.63568 0.0
Cu253 Cu 0.45016 0.59022 0.76692 0.0
N254 N 0.44203 0.55578 0.75176 0.0
N255 N 0.45763 0.52789 0.74681 0.0
C256 C 0.45612 0.54649 0.77592 0.0
C257 C 0.44328 0.52483 0.70271 0.0
C258 C 0.43369 0.54211 0.70583 0.0
O259 O 0.44543 0.59461 0.84328 0.0
C260 C 0.49848 0.61745 0.70433 0.0
O261 O 0.52424 0.6304 0.70099 0.0
H262 H 0.46846 0.55626 0.80996 0.0
H263 H 0.42455 0.54677 0.67357 0.0
N264 N 0.43331 0.60433 0.72695 0.0
N265 N 0.42852 0.63682 0.69125 0.0
C266 C 0.44081 0.63016 0.7283 0.0
C267 C 0.41502 0.59394 0.68857 0.0
C268 C 0.41201 0.61396 0.66648 0.0
C269 C 0.43227 0.5766 0.87817 0.0
O270 O 0.41977 0.55171 0.86371 0.0
H271 H 0.45603 0.644 0.75447 0.0
H272 H 0.40536 0.57359 0.67589 0.0
O273 O 0.48754 0.61042 0.75054 0.0
H274 H 0.44201 0.51301 0.66829 0.0
H275 H 0.39976 0.61208 0.63279 0.0
H276 H 0.55737 0.1388 0.24071 0.0
H277 H 0.62304 0.21854 0.23449 0.0
H278 H 0.63272 0.21496 0.32825 0.0
H279 H 0.62253 0.18909 0.41246 0.0
H280 H 0.55628 0.10959 0.4181 0.0
H281 H 0.54682 0.11334 0.32467 0.0
C282 C 0.57393 0.15537 0.25967 0.0
C283 C 0.58954 0.17885 0.23024 0.0
C284 C 0.57919 0.15331 0.31387 0.0
C285 C 0.61071 0.20019 0.25593 0.0
C286 C 0.61623 0.19818 0.3097 0.0
C287 C 0.60591 0.17264 0.3934 0.0
C288 C 0.59016 0.14909 0.42264 0.0
C289 C 0.60056 0.17486 0.3392 0.0
C290 C 0.56877 0.12798 0.39692 0.0
C291 C 0.56335 0.13006 0.34326 0.0
H292 H 0.45431 0.63664 0.49279 0.0
H293 H 0.44269 0.5597 0.4543 0.0
H294 H 0.45502 0.55523 0.54619 0.0
H295 H 0.47538 0.5765 0.63338 0.0
H296 H 0.49123 0.65551 0.66411 0.0
H297 H 0.47147 0.65626 0.57907 0.0
C298 C 0.45407 0.61864 0.50454 0.0
C299 C 0.44782 0.59863 0.46656 0.0
C300 C 0.46232 0.61686 0.55603 0.0
C301 C 0.4473 0.57535 0.48278 0.0
C302 C 0.45467 0.57297 0.53513 0.0
C303 C 0.47363 0.59343 0.6219 0.0
C304 C 0.48354 0.61554 0.65585 0.0
C305 C 0.46311 0.59402 0.57156 0.0
C306 C 0.48275 0.63802 0.63941 0.0
C307 C 0.47167 0.63849 0.59066 0.0
H308 H 0.8753 0.49649 0.69048 0.0
H309 H 0.87043 0.43248 0.78591 0.0
H310 H 0.87068 0.40949 0.70436 0.0
H311 H 0.87503 0.40883 0.60645 0.0
H312 H 0.87972 0.4726 0.51061 0.0
H313 H 0.87664 0.49436 0.59195 0.0
C314 C 0.87409 0.47741 0.69351 0.0
C315 C 0.87307 0.46635 0.74441 0.0
C316 C 0.87435 0.46433 0.6464 0.0
C317 C 0.87128 0.4415 0.74741 0.0
C318 C 0.87151 0.42837 0.70074 0.0
C319 C 0.87526 0.42744 0.60323 0.0
C320 C 0.87788 0.4392 0.55246 0.0
C321 C 0.8735 0.43981 0.6501 0.0
C322 C 0.87779 0.46314 0.54911 0.0
C323 C 0.8761 0.47562 0.59565 0.0
H324 H 0.44536 0.82659 0.76182 0.0
H325 H 0.43864 0.89608 0.73806 0.0
H326 H 0.43047 0.89732 0.83383 0.0
H327 H 0.42616 0.87948 0.92487 0.0
H328 H 0.43258 0.80991 0.94972 0.0
H329 H 0.44019 0.80814 0.85351 0.0
C330 C 0.44176 0.84181 0.77746 0.0
C331 C 0.44253 0.86116 0.74239 0.0
C332 C 0.4374 0.84265 0.8331 0.0
C333 C 0.43813 0.88089 0.76379 0.0
C334 C 0.43357 0.8817 0.81875 0.0
C335 C 0.42944 0.86402 0.90945 0.0
C336 C 0.42901 0.84499 0.94491 0.0
C337 C 0.43345 0.8629 0.8539 0.0
C338 C 0.43295 0.82493 0.92368 0.0
C339 C 0.4372 0.82384 0.8685 0.0
H340 H 0.56169 0.43188 0.06581 0.0
H341 H 0.64372 0.45991 0.0941 0.0
H342 H 0.65277 0.46575 0.99727 0.0
H343 H 0.63741 0.46434 0.90478 0.0
H344 H 0.55494 0.43529 0.87815 0.0
H345 H 0.54604 0.42804 0.97417 0.0
C346 C 0.58161 0.43938 0.05093 0.0
C347 C 0.60208 0.44583 0.08722 0.0
C348 C 0.58655 0.44231 0.99543 0.0
C349 C 0.62765 0.45498 0.06706 0.0
C350 C 0.6328 0.45828 1.0117 0.0
C351 C 0.61743 0.45612 0.91989 0.0
C352 C 0.5969 0.45051 0.8841 0.0
C353 C 0.61241 0.45214 0.9755 0.0
C354 C 0.57116 0.43986 0.90456 0.0
C355 C 0.56603 0.43581 0.95959 0.0
H356 H 0.2365 0.57693 0.24341 0.0
H357 H 0.1545 0.51775 0.24802 0.0
H358 H 0.15451 0.5146 0.14981 0.0
H359 H 0.17615 0.53486 0.06322 0.0
H360 H 0.25824 0.59504 0.06019 0.0
H361 H 0.26012 0.59123 0.15714 0.0
C362 C 0.21897 0.56253 0.22289 0.0
C363 C 0.19562 0.54738 0.25247 0.0
C364 C 0.21907 0.56143 0.1667 0.0
C365 C 0.17279 0.5292 0.22586 0.0
C366 C 0.17275 0.52772 0.16974 0.0
C367 C 0.19462 0.5467 0.08356 0.0
C368 C 0.21689 0.56563 0.05441 0.0
C369 C 0.1955 0.54467 0.13969 0.0
C370 C 0.24072 0.58054 0.08146 0.0
C371 C 0.2418 0.57845 0.13706 0.0
H372 H 0.51279 0.29873 0.2319 0.0
H373 H 0.56839 0.35864 0.12281 0.0
H374 H 0.57676 0.32634 0.07976 0.0
H375 H 0.56848 0.28135 0.07224 0.0
H376 H 0.51187 0.22026 0.17765 0.0
H377 H 0.50394 0.25275 0.22314 0.0
C378 C 0.5266 0.30467 0.19851 0.0
C379 C 0.54007 0.33128 0.18116 0.0
C380 C 0.53124 0.28578 0.17327 0.0
C381 C 0.55809 0.33857 0.13801 0.0
C382 C 0.56279 0.32001 0.11295 0.0
C383 C 0.55414 0.27493 0.10468 0.0
C384 C 0.54066 0.24823 0.12101 0.0
C385 C 0.54949 0.2936 0.13018 0.0
C386 C 0.52269 0.24065 0.1643 0.0
C387 C 0.51803 0.25922 0.19017 0.0
H388 H 0.36544 0.62196 0.27139 0.0
H389 H 0.4067 0.68106 0.39103 0.0
H390 H 0.36528 0.67794 0.42092 0.0
H391 H 0.31641 0.65486 0.41821 0.0
H392 H 0.27628 0.59601 0.29686 0.0
H393 H 0.31793 0.60247 0.26264 0.0
C394 C 0.36534 0.63432 0.30367 0.0
C395 C 0.38897 0.6515 0.32931 0.0
C396 C 0.34154 0.63222 0.32073 0.0
C397 C 0.38874 0.66776 0.37054 0.0
C398 C 0.36502 0.66581 0.38786 0.0
C399 C 0.31686 0.6438 0.38378 0.0
C400 C 0.29307 0.62454 0.36094 0.0
C401 C 0.34115 0.64762 0.36404 0.0
C402 C 0.2941 0.61043 0.31619 0.0
C403 C 0.31798 0.61419 0.29633 0.0
H404 H 0.73907 0.2691 0.58475 0.0
H405 H 0.71932 0.2151 0.45272 0.0
H406 H 0.75721 0.24854 0.40138 0.0
H407 H 0.79639 0.29311 0.39458 0.0
H408 H 0.81595 0.34658 0.52764 0.0
H409 H 0.77778 0.31338 0.57794 0.0
C410 C 0.74314 0.2645 0.54496 0.0
C411 C 0.72639 0.23948 0.52286 0.0
C412 C 0.76496 0.2838 0.51575 0.0
C413 C 0.73173 0.2342 0.47064 0.0
C414 C 0.75349 0.25329 0.44135 0.0
C415 C 0.79239 0.29743 0.43468 0.0
C416 C 0.80909 0.3224 0.45714 0.0
C417 C 0.77032 0.27814 0.46358 0.0
C418 C 0.80332 0.32775 0.50895 0.0
C419 C 0.78155 0.30868 0.53795 0.0
H420 H 0.4394 0.74413 0.60988 0.0
H421 H 0.51802 0.77337 0.66743 0.0
H422 H 0.50658 0.72895 0.69606 0.0
H423 H 0.47471 0.68199 0.70387 0.0
H424 H 0.39621 0.65146 0.6445 0.0
H425 H 0.40706 0.69616 0.61756 0.0
C426 C 0.4539 0.74073 0.62905 0.0
C427 C 0.47956 0.76206 0.63641 0.0
C428 C 0.44723 0.71493 0.645 0.0
C429 C 0.49827 0.7573 0.6607 0.0
C430 C 0.4917 0.73191 0.67733 0.0
C431 C 0.45981 0.68498 0.6855 0.0
C432 C 0.4346 0.66325 0.67648 0.0
C433 C 0.4663 0.71059 0.66955 0.0
C434 C 0.4158 0.66773 0.65168 0.0
C435 C 0.42199 0.69332 0.6364 0.0
H436 H 0.72376 0.51434 0.85245 0.0
H437 H 0.75575 0.53122 0.69175 0.0
H438 H 0.79508 0.53081 0.72203 0.0
H439 H 0.82057 0.52604 0.7951 0.0
H440 H 0.79029 0.51325 0.95699 0.0
H441 H 0.75004 0.51155 0.926 0.0
C442 C 0.73937 0.51781 0.82427 0.0
C443 C 0.73696 0.52264 0.77003 0.0
C444 C 0.76215 0.51828 0.84234 0.0
C445 C 0.75737 0.52756 0.73373 0.0
C446 C 0.77975 0.52724 0.75101 0.0
C447 C 0.80502 0.52279 0.82325 0.0
C448 C 0.8081 0.51961 0.87803 0.0
C449 C 0.78239 0.52267 0.80526 0.0
C450 C 0.78818 0.5158 0.91466 0.0
C451 C 0.76523 0.51479 0.89693 0.0
H452 H 0.27112 0.70526 0.9018 0.0
H453 H 0.2302 0.66379 0.04675 0.0
H454 H 0.25818 0.70285 0.09931 0.0
H455 H 0.29454 0.74874 0.10442 0.0
H456 H 0.33365 0.79057 0.95849 0.0
H457 H 0.30592 0.75141 0.90632 0.0
C458 C 0.26794 0.70468 0.94473 0.0
C459 C 0.24839 0.68131 0.96985 0.0
C460 C 0.28388 0.72737 0.97482 0.0
C461 C 0.24518 0.68117 1.02596 0.0
C462 C 0.26113 0.70364 0.0562 0.0
C463 C 0.29686 0.74948 0.06119 0.0
C464 C 0.31644 0.77275 0.03579 0.0
C465 C 0.28057 0.72686 1.03107 0.0
C466 C 0.3192 0.77298 0.97959 0.0
C467 C 0.30318 0.75056 0.9495 0.0
H468 H 0.62586 0.14678 0.78293 0.0
H469 H 0.57132 0.15794 0.68763 0.0
H470 H 0.54892 0.15985 0.76938 0.0
H471 H 0.54484 0.15845 0.86788 0.0
H472 H 0.60024 0.14875 0.96332 0.0
H473 H 0.62226 0.14619 0.88154 0.0
C474 C 0.60902 0.14956 0.7799 0.0
C475 C 0.60025 0.1521 0.72892 0.0
C476 C 0.59639 0.15093 0.82719 0.0
C477 C 0.57853 0.15593 0.72611 0.0
C478 C 0.56569 0.157 0.77293 0.0
C479 C 0.5617 0.15571 0.87094 0.0
C480 C 0.57076 0.15368 0.92195 0.0
C481 C 0.57444 0.15453 0.82368 0.0
C482 C 0.5928 0.15037 0.92481 0.0
C483 C 0.60539 0.14888 0.87797 0.0
H484 H 0.41298 0.54402 0.96708 0.0
H485 H 0.4502 0.62594 0.91759 0.0
H486 H 0.45137 0.63917 1.01035 0.0
H487 H 0.44409 0.62826 0.10508 0.0
H488 H 0.40888 0.54721 0.15841 0.0
H489 H 0.40412 0.53282 0.06447 0.0
C490 C 0.42119 0.56475 0.9766 0.0
C491 C 0.43163 0.58396 0.93509 0.0
C492 C 0.42208 0.57238 1.03065 0.0
C493 C 0.44219 0.61071 0.94838 0.0
C494 C 0.44283 0.61834 1.00154 0.0
C495 C 0.43518 0.60735 0.09651 0.0
C496 C 0.42698 0.58885 0.13897 0.0
C497 C 0.43315 0.59942 0.04292 0.0
C498 C 0.41528 0.56187 0.12664 0.0
C499 C 0.41275 0.5537 0.07289 0.0
H500 H 0.89849 0.45818 0.04188 0.0
H501 H 0.82813 0.45878 0.09062 0.0
H502 H 0.83271 0.44678 0.18205 0.0
H503 H 0.85709 0.43661 0.2491 0.0
H504 H 0.9267 0.43489 0.19899 0.0
H505 H 0.92206 0.44694 0.10782 0.0
C506 C 0.88405 0.45555 0.07237 0.0
C507 C 0.863 0.45942 0.05911 0.0
C508 C 0.88675 0.4486 0.12502 0.0
C509 C 0.84451 0.45588 0.09939 0.0
C510 C 0.84715 0.4491 0.15189 0.0
C511 C 0.87129 0.439 0.21825 0.0
C512 C 0.89226 0.43494 0.23108 0.0
C513 C 0.8683 0.44557 0.16534 0.0
C514 C 0.91033 0.43784 0.19039 0.0
C515 C 0.90771 0.44474 0.1381 0.0
H516 H 0.45846 0.89592 0.42181 0.0
H517 H 0.43039 0.81337 0.45314 0.0
H518 H 0.41706 0.80301 0.35976 0.0
H519 H 0.41311 0.81722 0.26893 0.0
H520 H 0.44239 0.89996 0.23671 0.0
H521 H 0.45567 0.91032 0.33012 0.0
C522 C 0.44927 0.87563 0.40834 0.0
C523 C 0.44527 0.85545 0.44489 0.0
C524 C 0.44203 0.86983 0.35408 0.0
C525 C 0.43368 0.82933 0.42621 0.0
C526 C 0.42607 0.82337 0.37265 0.0
C527 C 0.42254 0.83757 0.28214 0.0
C528 C 0.42669 0.85774 0.2454 0.0
C529 C 0.43018 0.84345 0.33615 0.0
C530 C 0.43899 0.88398 0.26368 0.0
C531 C 0.4465 0.88994 0.31733 0.0
H532 H 0.64298 0.4984 0.53093 0.0
H533 H 0.58759 0.42906 0.62063 0.0
H534 H 0.56696 0.40682 0.53703 0.0
H535 H 0.56294 0.40824 0.4391 0.0
H536 H 0.61858 0.47762 0.34968 0.0
H537 H 0.64098 0.4986 0.43267 0.0
C538 C 0.62649 0.47835 0.53226 0.0
C539 C 0.61668 0.4655 0.58206 0.0
C540 C 0.61474 0.46573 0.48411 0.0
C541 C 0.59551 0.43941 0.58292 0.0
C542 C 0.58366 0.42673 0.53512 0.0
C543 C 0.5801 0.42788 0.43765 0.0
C544 C 0.58892 0.44142 0.38818 0.0
C545 C 0.59284 0.43987 0.48557 0.0
C546 C 0.61134 0.46674 0.38708 0.0
C547 C 0.62411 0.4788 0.43459 0.0
H548 H 0.24297 0.56348 0.59598 0.0
H549 H 0.1602 0.53026 0.56632 0.0
H550 H 0.15166 0.53052 0.66238 0.0
H551 H 0.16843 0.54468 0.7541 0.0
H552 H 0.2514 0.57802 0.78233 0.0
H553 H 0.25895 0.57313 0.68803 0.0
C554 C 0.22298 0.55587 0.61051 0.0
C555 C 0.20235 0.54712 0.57372 0.0
C556 C 0.21822 0.55641 0.66577 0.0
C557 C 0.17653 0.53715 0.59354 0.0
C558 C 0.17163 0.53747 0.64857 0.0
C559 C 0.1881 0.55056 0.73974 0.0
C560 C 0.20932 0.56203 0.77541 0.0
C561 C 0.19243 0.54777 0.68497 0.0
C562 C 0.23466 0.56935 0.75599 0.0
C563 C 0.23906 0.56658 0.70187 0.0
H564 H 0.46052 0.0525 0.15759 0.0
H565 H 0.47396 0.06766 0.98786 0.0
H566 H 0.45025 0.02003 0.9703 0.0
H567 H 0.42612 0.97404 1.00381 0.0
H568 H 0.41589 0.95883 0.1739 0.0
H569 H 0.43792 1.00646 0.19131 0.0
C570 C 0.45801 0.04525 0.11684 0.0
C571 C 0.46861 0.06337 0.07391 0.0
C572 C 0.44504 1.01791 0.10737 0.0
C573 C 0.46587 0.05393 1.0213 0.0
C574 C 0.45232 0.02678 1.01137 0.0
C575 C 0.4286 0.98126 0.04458 0.0
C576 C 0.41921 0.96312 0.08761 0.0
C577 C 0.44186 1.00859 0.0541 0.0
C578 C 0.42299 0.97256 0.14036 0.0
C579 C 0.43551 0.99971 0.1502 0.0
H580 H 0.50593 0.49516 0.18274 0.0
H581 H 0.54113 0.50069 0.33618 0.0
H582 H 0.54171 0.54221 0.35417 0.0
H583 H 0.52925 0.57531 0.32837 0.0
H584 H 0.49493 0.56984 0.17366 0.0
H585 H 0.49714 0.53013 0.15374 0.0
C586 C 0.51364 0.50545 0.22015 0.0
C587 C 0.52309 0.4947 0.25847 0.0
C588 C 0.51416 0.52939 0.22982 0.0
C589 C 0.53367 0.50857 0.30621 0.0
C590 C 0.53398 0.53227 0.31646 0.0
C591 C 0.52286 0.5658 0.28983 0.0
C592 C 0.51175 0.57546 0.25268 0.0
C593 C 0.524 0.54275 0.27878 0.0
C594 C 0.5033 0.56266 0.20311 0.0
C595 C 0.50449 0.5399 0.19176 0.0
H596 H 0.07968 0.54748 0.35975 0.0
H597 H 0.09781 0.51539 0.49796 0.0
H598 H 0.05181 0.48119 0.50739 0.0
H599 H 1.00673 0.45907 0.47433 0.0
H600 H 0.98779 0.49075 0.33682 0.0
H601 H 0.03355 0.52661 0.32967 0.0
C602 C 0.07348 0.53327 0.39239 0.0
C603 C 0.09232 0.53388 0.4277 0.0
C604 C 0.04682 0.51346 0.39757 0.0
C605 C 0.08388 0.51513 0.46961 0.0
C606 C 0.05753 0.49557 0.47515 0.0
C607 C 1.01262 0.47375 0.44266 0.0
C608 C 0.9939 0.47205 0.40586 0.0
C609 C 0.03892 0.49425 0.43883 0.0
C610 C 1.00177 0.49163 0.3658 0.0
C611 C 0.02798 0.51209 0.36157 0.0
H612 H 0.54908 0.96899 0.66828 0.0
H613 H 0.55098 0.9464 0.50462 0.0
H614 H 0.57625 0.99309 0.47765 0.0
H615 H 0.59842 0.04044 0.50146 0.0
H616 H 0.59501 0.06252 0.66496 0.0
H617 H 0.56974 1.01593 0.69141 0.0
C618 C 0.55519 0.97431 0.62678 0.0
C619 C 0.54846 0.9543 0.58855 0.0
C620 C 0.56942 1.00109 0.61168 0.0
C621 C 0.55591 0.96146 0.53467 0.0
C622 C 0.57043 0.98813 0.51937 0.0
C623 C 0.59224 0.03499 0.54288 0.0
C624 C 0.59871 0.05489 0.58133 0.0
C625 C 0.57743 1.00812 0.55762 0.0
C626 C 0.59015 0.04757 0.63467 0.0
C627 C 0.57579 0.02096 0.64981 0.0
H628 H 0.55356 0.51834 0.82099 0.0
H629 H 0.56566 0.51825 0.65046 0.0
H630 H 0.52406 0.51734 0.63456 0.0
H631 H 0.48636 0.52062 0.66994 0.0
H632 H 0.47397 0.51926 0.84099 0.0
H633 H 0.51337 0.51631 0.85618 0.0
C634 C 0.54699 0.51809 0.78043 0.0
C635 C 0.56274 0.5189 0.73687 0.0
C636 C 0.523 0.5172 0.77183 0.0
C637 C 0.55382 0.51783 0.68444 0.0
C638 C 0.53011 0.51733 0.67546 0.0
C639 C 0.49185 0.51893 0.71046 0.0
C640 C 0.47736 0.52043 0.75437 0.0
C641 C 0.51473 0.51745 0.71889 0.0
C642 C 0.48498 0.51846 0.80664 0.0
C643 C 0.50754 0.51687 0.81533 0.0
H644 H 0.0624 0.53853 0.99051 0.0
H645 H 0.09701 0.58321 0.84514 0.0
H646 H 0.05441 0.57784 0.82009 0.0
H647 H 1.00743 0.56137 0.84138 0.0
H648 H 0.9739 0.51739 0.98813 0.0
H649 H 1.01605 0.5218 1.01109 0.0
C650 C 0.06073 0.54728 0.95351 0.0
C651 C 0.08294 0.56149 0.92004 0.0
C652 C 0.03635 0.54431 0.93976 0.0
C653 C 0.0802 0.57207 0.87149 0.0
C654 C 0.05589 0.56916 0.85738 0.0
C655 C 1.00945 0.55293 0.87851 0.0
C656 C 0.98751 0.53906 0.91299 0.0
C657 C 0.03387 0.55553 0.89152 0.0
C658 C 0.99033 0.52787 0.96059 0.0
C659 C 1.01448 0.53049 0.97388 0.0
loop_
_geom_bond_atom_site_label_1
_geom_bond_atom_site_label_2
_geom_bond_distance
_geom_bond_site_symmetry_2
_ccdc_geom_bond_type
Cu0 N1 1.999 . S
Cu0 O6 1.974 1_554 S
Cu0 N11 1.985 . S
Cu0 O20 1.959 . S
N1 Cu0 1.999 . S
N1 C3 1.263 . S
N1 C5 1.389 . S
N2 C3 1.358 . S
N2 C4 1.400 . S
C3 N1 1.263 . S
C3 N2 1.358 . S
C3 H9 0.930 . S
C4 N2 1.400 . S
C4 C5 1.351 . S
C4 H21 0.930 . S
C5 N1 1.389 . S
C5 C4 1.351 . S
C5 H10 0.930 . S
O6 Cu0 1.974 1_556 S
O6 C16 1.282 . S
C7 O8 1.261 . S
C7 O20 1.251 . S
O8 C7 1.261 . S
H9 C3 0.930 . S
H10 C5 0.930 . S
N11 Cu0 1.985 . S
N11 C13 1.335 . S
N11 C14 1.390 . S
N12 C13 1.345 . S
N12 C15 1.336 . S
C13 N11 1.335 . S
C13 N12 1.345 . S
C13 H18 0.930 . S
C14 N11 1.390 . S
C14 C15 1.346 . S
C14 H19 0.930 1_554 S
C15 N12 1.336 . S
C15 C14 1.346 . S
C15 H22 0.929 . S
C16 O6 1.282 . S
C16 O17 1.216 . S
O17 C16 1.216 . S
H18 C13 0.930 . S
H19 C14 0.930 1_556 S
O20 Cu0 1.959 . S
O20 C7 1.251 . S
H21 C4 0.930 . S
H22 C15 0.929 . S
Cu23 N24 1.999 . S
Cu23 O29 1.974 . S
Cu23 N34 1.985 . S
Cu23 O43 1.959 . S
N24 Cu23 1.999 . S
N24 C26 1.263 . S
N24 C28 1.389 . S
N25 C26 1.358 . S
N25 C27 1.400 . S
C26 N24 1.263 . S
C26 N25 1.358 . S
C26 H32 0.930 . S
C27 N25 1.400 . S
C27 C28 1.351 . S
C27 H44 0.930 . S
C28 N24 1.389 . S
C28 C27 1.351 . S
C28 H33 0.930 . S
O29 Cu23 1.974 . S
O29 C39 1.282 . S
C30 O31 1.261 . S
C30 O43 1.251 . S
O31 C30 1.261 . S
H32 C26 0.930 . S
H33 C28 0.930 . S
N34 Cu23 1.985 . S
N34 C36 1.335 . S
N34 C37 1.390 . S
N35 C36 1.345 . S
N35 C38 1.336 . S
C36 N34 1.335 . S
C36 N35 1.345 . S
C36 H41 0.930 . S
C37 N34 1.390 . S
C37 C38 1.346 . S
C37 H42 0.930 . S
C38 N35 1.336 . S
C38 C37 1.346 . S
C38 H45 0.929 . S
C39 O29 1.282 . S
C39 O40 1.216 . S
O40 C39 1.216 . S
H41 C36 0.930 . S
H42 C37 0.930 . S
O43 Cu23 1.959 . S
O43 C30 1.251 . S
H44 C27 0.930 . S
H45 C38 0.929 . S
Cu46 N47 1.999 . S
Cu46 O52 1.974 . S
Cu46 N57 1.985 . S
Cu46 O66 1.959 . S
N47 Cu46 1.999 . S
N47 C49 1.263 . S
N47 C51 1.389 . S
N48 C49 1.358 . S
N48 C50 1.400 . S
C49 N47 1.263 . S
C49 N48 1.358 . S
C49 H55 0.930 . S
C50 N48 1.400 . S
C50 C51 1.351 . S
C50 H67 0.930 . S
C51 N47 1.389 . S
C51 C50 1.351 . S
C51 H56 0.930 . S
O52 Cu46 1.974 . S
O52 C62 1.282 . S
C53 O54 1.261 . S
C53 O66 1.251 . S
O54 C53 1.261 . S
H55 C49 0.930 . S
H56 C51 0.930 . S
N57 Cu46 1.985 . S
N57 C59 1.335 . S
N57 C60 1.390 . S
N58 C59 1.345 . S
N58 C61 1.336 . S
C59 N57 1.335 . S
C59 N58 1.345 . S
C59 H64 0.930 . S
C60 N57 1.390 . S
C60 C61 1.346 . S
C60 H65 0.930 . S
C61 N58 1.336 . S
C61 C60 1.346 . S
C61 H68 0.929 . S
C62 O52 1.282 . S
C62 O63 1.216 . S
O63 C62 1.216 . S
H64 C59 0.930 . S
H65 C60 0.930 . S
O66 Cu46 1.959 . S
O66 C53 1.251 . S
H67 C50 0.930 . S
H68 C61 0.929 . S
Cu69 N70 1.999 . S
Cu69 O75 1.974 . S
Cu69 N80 1.985 . S
Cu69 O89 1.959 . S
N70 Cu69 1.999 . S
N70 C72 1.263 . S
N70 C74 1.389 . S
N71 C72 1.358 . S
N71 C73 1.400 . S
C72 N70 1.263 . S
C72 N71 1.358 . S
C72 H78 0.930 . S
C73 N71 1.400 . S
C73 C74 1.351 . S
C73 H90 0.930 . S
C74 N70 1.389 . S
C74 C73 1.351 . S
C74 H79 0.930 . S
O75 Cu69 1.974 . S
O75 C85 1.282 . S
C76 O77 1.261 . S
C76 O89 1.251 . S
O77 C76 1.261 . S
H78 C72 0.930 . S
H79 C74 0.930 . S
N80 Cu69 1.985 . S
N80 C82 1.335 . S
N80 C83 1.390 . S
N81 C82 1.345 . S
N81 C84 1.336 . S
C82 N80 1.335 . S
C82 N81 1.345 . S
C82 H87 0.930 . S
C83 N80 1.390 . S
C83 C84 1.346 . S
C83 H88 0.930 . S
C84 N81 1.336 . S
C84 C83 1.346 . S
C84 H91 0.929 . S
C85 O75 1.282 . S
C85 O86 1.216 . S
O86 C85 1.216 . S
H87 C82 0.930 . S
H88 C83 0.930 . S
O89 Cu69 1.959 . S
O89 C76 1.251 . S
H90 C73 0.930 . S
H91 C84 0.929 . S
Cu92 N93 1.999 . S
Cu92 O98 1.974 . S
Cu92 N103 1.985 . S
Cu92 O112 1.959 . S
N93 Cu92 1.999 . S
N93 C95 1.263 . S
N93 C97 1.389 . S
N94 C95 1.358 . S
N94 C96 1.400 . S
C95 N93 1.263 . S
C95 N94 1.358 . S
C95 H101 0.930 . S
C96 N94 1.400 . S
C96 C97 1.351 . S
C96 H113 0.930 . S
C97 N93 1.389 . S
C97 C96 1.351 . S
C97 H102 0.930 . S
O98 Cu92 1.974 . S
O98 C108 1.282 . S
C99 O100 1.261 . S
C99 O112 1.251 . S
O100 C99 1.261 . S
H101 C95 0.930 . S
H102 C97 0.930 . S
N103 Cu92 1.985 . S
N103 C105 1.335 . S
N103 C106 1.390 . S
N104 C105 1.345 . S
N104 C107 1.336 . S
C105 N103 1.335 . S
C105 N104 1.345 . S
C105 H110 0.930 . S
C106 N103 1.390 . S
C106 C107 1.346 . S
C106 H111 0.930 . S
C107 N104 1.336 . S
C107 C106 1.346 . S
C107 H114 0.929 . S
C108 O98 1.282 . S
C108 O109 1.216 . S
O109 C108 1.216 . S
H110 C105 0.930 . S
H111 C106 0.930 . S
O112 Cu92 1.959 . S
O112 C99 1.251 . S
H113 C96 0.930 . S
H114 C107 0.929 . S
Cu115 N116 1.999 . S
Cu115 O121 1.974 . S
Cu115 N126 1.985 . S
Cu115 O135 1.959 . S
N116 Cu115 1.999 . S
N116 C118 1.263 . S
N116 C120 1.389 . S
N117 C118 1.358 . S
N117 C119 1.400 . S
C118 N116 1.263 . S
C118 N117 1.358 . S
C118 H124 0.930 . S
C119 N117 1.400 . S
C119 C120 1.351 . S
C119 H136 0.930 . S
C120 N116 1.389 . S
C120 C119 1.351 . S
C120 H125 0.930 . S
O121 Cu115 1.974 . S
O121 C131 1.282 . S
C122 O123 1.261 . S
C122 O135 1.251 . S
O123 C122 1.261 . S
H124 C118 0.930 . S
H125 C120 0.930 . S
N126 Cu115 1.985 . S
N126 C128 1.335 . S
N126 C129 1.390 . S
N127 C128 1.345 . S
N127 C130 1.336 . S
C128 N126 1.335 . S
C128 N127 1.345 . S
C128 H133 0.930 . S
C129 N126 1.390 . S
C129 C130 1.346 . S
C129 H134 0.930 . S
C130 N127 1.336 . S
C130 C129 1.346 . S
C130 H137 0.929 . S
C131 O121 1.282 . S
C131 O132 1.216 . S
O132 C131 1.216 . S
H133 C128 0.930 . S
H134 C129 0.930 . S
O135 Cu115 1.959 . S
O135 C122 1.251 . S
H136 C119 0.930 . S
H137 C130 0.929 . S
Cu138 N139 1.999 . S
Cu138 O144 1.974 . S
Cu138 N149 1.985 . S
Cu138 O158 1.959 . S
N139 Cu138 1.999 . S
N139 C141 1.263 . S
N139 C143 1.389 . S
N140 C141 1.358 . S
N140 C142 1.400 . S
C141 N139 1.263 . S
C141 N140 1.358 . S
C141 H147 0.930 . S
C142 N140 1.400 . S
C142 C143 1.351 . S
C142 H159 0.930 . S
C143 N139 1.389 . S
C143 C142 1.351 . S
C143 H148 0.930 . S
O144 Cu138 1.974 . S
O144 C154 1.282 . S
C145 O146 1.261 . S
C145 O158 1.251 . S
O146 C145 1.261 . S
H147 C141 0.930 . S
H148 C143 0.930 . S
N149 Cu138 1.985 . S
N149 C151 1.335 . S
N149 C152 1.390 . S
N150 C151 1.345 . S
N150 C153 1.336 . S
C151 N149 1.335 . S
C151 N150 1.345 . S
C151 H156 0.930 . S
C152 N149 1.390 . S
C152 C153 1.346 . S
C152 H157 0.930 . S
C153 N150 1.336 . S
C153 C152 1.346 . S
C153 H160 0.929 . S
C154 O144 1.282 . S
C154 O155 1.216 . S
O155 C154 1.216 . S
H156 C151 0.930 . S
H157 C152 0.930 . S
O158 Cu138 1.959 . S
O158 C145 1.251 . S
H159 C142 0.930 . S
H160 C153 0.929 . S
Cu161 N162 1.999 . S
Cu161 O167 1.974 . S
Cu161 N172 1.985 . S
Cu161 O181 1.959 1_554 S
N162 Cu161 1.999 . S
N162 C164 1.263 . S
N162 C166 1.375 1_554 S
N163 C164 1.358 . S
N163 C165 1.400 . S
C164 N162 1.263 . S
C164 N163 1.358 . S
C164 H170 0.930 . S
C165 N163 1.400 . S
C165 C166 1.346 1_554 S
C165 H182 0.930 1_554 S
C166 N162 1.375 1_556 S
C166 C165 1.346 1_556 S
C166 H171 0.946 . S
O167 Cu161 1.974 . S
O167 C177 1.282 . S
C168 O169 1.261 . S
C168 O181 1.251 . S
O169 C168 1.261 . S
H170 C164 0.930 . S
H171 C166 0.946 . S
N172 Cu161 1.985 . S
N172 C174 1.345 . S
N172 C175 1.390 . S
N173 C174 1.348 . S
N173 C176 1.336 . S
C174 N172 1.345 . S
C174 N173 1.348 . S
C174 H179 0.919 1_554 S
C175 N172 1.390 . S
C175 C176 1.346 . S
C175 H180 0.930 . S
C176 N173 1.336 . S
C176 C175 1.346 . S
C176 H183 0.929 . S
C177 O167 1.282 . S
C177 O178 1.216 . S
O178 C177 1.216 . S
H179 C174 0.919 1_556 S
H180 C175 0.930 . S
O181 Cu161 1.959 1_556 S
O181 C168 1.251 . S
H182 C165 0.930 1_556 S
H183 C176 0.929 . S
Cu184 N185 1.999 . S
Cu184 O190 1.974 . S
Cu184 N195 1.985 . S
Cu184 O204 1.959 . S
N185 Cu184 1.999 . S
N185 C187 1.263 . S
N185 C189 1.389 . S
N186 C187 1.358 . S
N186 C188 1.400 . S
C187 N185 1.263 . S
C187 N186 1.358 . S
C187 H193 0.930 . S
C188 N186 1.400 . S
C188 C189 1.351 . S
C188 H205 0.930 . S
C189 N185 1.389 . S
C189 C188 1.351 . S
C189 H194 0.930 . S
O190 Cu184 1.974 . S
O190 C200 1.282 . S
C191 O192 1.261 . S
C191 O204 1.251 . S
O192 C191 1.261 . S
H193 C187 0.930 . S
H194 C189 0.930 . S
N195 Cu184 1.985 . S
N195 C197 1.335 . S
N195 C198 1.390 . S
N196 C197 1.345 . S
N196 C199 1.336 . S
C197 N195 1.335 . S
C197 N196 1.345 . S
C197 H202 0.930 . S
C198 N195 1.390 . S
C198 C199 1.346 . S
C198 H203 0.930 . S
C199 N196 1.336 . S
C199 C198 1.346 . S
C199 H206 0.929 . S
C200 O190 1.282 . S
C200 O201 1.216 . S
O201 C200 1.216 . S
H202 C197 0.930 . S
H203 C198 0.930 . S
O204 Cu184 1.959 . S
O204 C191 1.251 . S
H205 C188 0.930 . S
H206 C199 0.929 . S
Cu207 N208 1.999 . S
Cu207 O213 1.974 . S
Cu207 N218 1.985 . S
Cu207 O227 1.959 . S
N208 Cu207 1.999 . S
N208 C210 1.263 . S
N208 C212 1.389 . S
N209 C210 1.358 . S
N209 C211 1.400 . S
C210 N208 1.263 . S
C210 N209 1.358 . S
C210 H216 0.930 . S
C211 N209 1.400 . S
C211 C212 1.351 . S
C211 H228 0.930 . S
C212 N208 1.389 . S
C212 C211 1.351 . S
C212 H217 0.930 . S
O213 Cu207 1.974 . S
O213 C223 1.282 . S
C214 O215 1.261 . S
C214 O227 1.251 . S
O215 C214 1.261 . S
H216 C210 0.930 . S
H217 C212 0.930 . S
N218 Cu207 1.985 . S
N218 C220 1.335 . S
N218 C221 1.390 . S
N219 C220 1.345 . S
N219 C222 1.336 . S
C220 N218 1.335 . S
C220 N219 1.345 . S
C220 H225 0.930 . S
C221 N218 1.390 . S
C221 C222 1.346 . S
C221 H226 0.930 . S
C222 N219 1.336 . S
C222 C221 1.346 . S
C222 H229 0.929 . S
C223 O213 1.282 . S
C223 O224 1.216 . S
O224 C223 1.216 . S
H225 C220 0.930 . S
H226 C221 0.930 . S
O227 Cu207 1.959 . S
O227 C214 1.251 . S
H228 C211 0.930 . S
H229 C222 0.929 . S
Cu230 N231 1.999 . S
Cu230 O236 1.974 . S
Cu230 N241 1.985 . S
Cu230 O250 1.959 . S
N231 Cu230 1.999 . S
N231 C233 1.263 . S
N231 C235 1.389 . S
N232 C233 1.358 . S
N232 C234 1.400 . S
C233 N231 1.263 . S
C233 N232 1.358 . S
C233 H239 0.930 . S
C234 N232 1.400 . S
C234 C235 1.351 . S
C234 H251 0.930 . S
C235 N231 1.389 . S
C235 C234 1.351 . S
C235 H240 0.930 . S
O236 Cu230 1.974 . S
O236 C246 1.282 . S
C237 O238 1.261 . S
C237 O250 1.251 . S
O238 C237 1.261 . S
H239 C233 0.930 . S
H240 C235 0.930 . S
N241 Cu230 1.985 . S
N241 C243 1.335 . S
N241 C244 1.390 . S
N242 C243 1.345 . S
N242 C245 1.336 . S
C243 N241 1.335 . S
C243 N242 1.345 . S
C243 H248 0.930 . S
C244 N241 1.390 . S
C244 C245 1.346 . S
C244 H249 0.930 . S
C245 N242 1.336 . S
C245 C244 1.346 . S
C245 H252 0.929 . S
C246 O236 1.282 . S
C246 O247 1.216 . S
O247 C246 1.216 . S
H248 C243 0.930 . S
H249 C244 0.930 . S
O250 Cu230 1.959 . S
O250 C237 1.251 . S
H251 C234 0.930 . S
H252 C245 0.929 . S
Cu253 N254 1.999 . S
Cu253 O259 1.974 . S
Cu253 N264 1.985 . S
Cu253 O273 1.959 . S
N254 Cu253 1.999 . S
N254 C256 1.263 . S
N254 C258 1.389 . S
N255 C256 1.358 . S
N255 C257 1.400 . S
C256 N254 1.263 . S
C256 N255 1.358 . S
C256 H262 0.930 . S
C257 N255 1.400 . S
C257 C258 1.351 . S
C257 H274 0.930 . S
C258 N254 1.389 . S
C258 C257 1.351 . S
C258 H263 0.930 . S
O259 Cu253 1.974 . S
O259 C269 1.282 . S
C260 O261 1.261 . S
C260 O273 1.251 . S
O261 C260 1.261 . S
H262 C256 0.930 . S
H263 C258 0.930 . S
N264 Cu253 1.985 . S
N264 C266 1.335 . S
N264 C267 1.390 . S
N265 C266 1.345 . S
N265 C268 1.336 . S
C266 N264 1.335 . S
C266 N265 1.345 . S
C266 H271 0.930 . S
C267 N264 1.390 . S
C267 C268 1.346 . S
C267 H272 0.930 . S
C268 N265 1.336 . S
C268 C267 1.346 . S
C268 H275 0.929 . S
C269 O259 1.282 . S
C269 O270 1.216 . S
O270 C269 1.216 . S
H271 C266 0.930 . S
H272 C267 0.930 . S
O273 Cu253 1.959 . S
O273 C260 1.251 . S
H274 C257 0.930 . S
H275 C268 0.929 . S
H276 C282 0.930 . S
H277 C285 0.930 . S
H278 C286 0.930 . S
H279 C287 0.930 . S
H280 C290 0.930 . S
H281 C291 0.930 . S
C282 H276 0.930 . S
C282 C283 1.355 . S
C282 C284 1.415 . S
C283 C282 1.355 . S
C283 C285 1.419 . S
C284 C282 1.415 . S
C284 C289 1.425 . S
C284 C291 1.409 . S
C285 H277 0.930 . S
C285 C283 1.419 . S
C285 C286 1.362 . S
C286 H278 0.930 . S
C286 C285 1.362 . S
C286 C289 1.409 . S
C287 H279 0.930 . S
C287 C288 1.355 . S
C287 C289 1.415 . S
C288 C287 1.355 . S
C288 C290 1.419 . S
C289 C284 1.425 . S
C289 C286 1.409 . S
C289 C287 1.415 . S
C290 H280 0.930 . S
C290 C288 1.419 . S
C290 C291 1.362 . S
C291 H281 0.930 . S
C291 C284 1.409 . S
C291 C290 1.362 . S
H292 C298 0.930 . S
H293 C301 0.930 . S
H294 C302 0.930 . S
H295 C303 0.930 . S
H296 C306 0.930 . S
H297 C307 0.930 . S
C298 H292 0.930 . S
C298 C299 1.355 . S
C298 C300 1.415 . S
C299 C298 1.355 . S
C299 C301 1.419 . S
C300 C298 1.415 . S
C300 C305 1.425 . S
C300 C307 1.409 . S
C301 H293 0.930 . S
C301 C299 1.419 . S
C301 C302 1.362 . S
C302 H294 0.930 . S
C302 C301 1.362 . S
C302 C305 1.409 . S
C303 H295 0.930 . S
C303 C304 1.355 . S
C303 C305 1.415 . S
C304 C303 1.355 . S
C304 C306 1.419 . S
C305 C300 1.425 . S
C305 C302 1.409 . S
C305 C303 1.415 . S
C306 H296 0.930 . S
C306 C304 1.419 . S
C306 C307 1.362 . S
C307 H297 0.930 . S
C307 C300 1.409 . S
C307 C306 1.362 . S
H308 C314 0.930 . S
H309 C317 0.930 . S
H310 C318 0.930 . S
H311 C319 0.930 . S
H312 C322 0.930 . S
H313 C323 0.930 . S
C314 H308 0.930 . S
C314 C315 1.355 . S
C314 C316 1.415 . S
C315 C314 1.355 . S
C315 C317 1.419 . S
C316 C314 1.415 . S
C316 C321 1.425 . S
C316 C323 1.409 . S
C317 H309 0.930 . S
C317 C315 1.419 . S
C317 C318 1.362 . S
C318 H310 0.930 . S
C318 C317 1.362 . S
C318 C321 1.409 . S
C319 H311 0.930 . S
C319 C320 1.355 . S
C319 C321 1.415 . S
C320 C319 1.355 . S
C320 C322 1.419 . S
C321 C316 1.425 . S
C321 C318 1.409 . S
C321 C319 1.415 . S
C322 H312 0.930 . S
C322 C320 1.419 . S
C322 C323 1.362 . S
C323 H313 0.930 . S
C323 C316 1.409 . S
C323 C322 1.362 . S
H324 C330 0.930 . S
H325 C333 0.930 . S
H326 C334 0.930 . S
H327 C335 0.930 . S
H328 C338 0.930 . S
H329 C339 0.930 . S
C330 H324 0.930 . S
C330 C331 1.355 . S
C330 C332 1.415 . S
C331 C330 1.355 . S
C331 C333 1.419 . S
C332 C330 1.415 . S
C332 C337 1.425 . S
C332 C339 1.409 . S
C333 H325 0.930 . S
C333 C331 1.419 . S
C333 C334 1.362 . S
C334 H326 0.930 . S
C334 C333 1.362 . S
C334 C337 1.409 . S
C335 H327 0.930 . S
C335 C336 1.355 . S
C335 C337 1.415 . S
C336 C335 1.355 . S
C336 C338 1.419 . S
C337 C332 1.425 . S
C337 C334 1.409 . S
C337 C335 1.415 . S
C338 H328 0.930 . S
C338 C336 1.419 . S
C338 C339 1.362 . S
C339 H329 0.930 . S
C339 C332 1.409 . S
C339 C338 1.362 . S
H340 C346 0.930 . S
H341 C349 0.930 . S
H342 C350 0.930 . S
H343 C351 0.930 . S
H344 C354 0.930 . S
H345 C355 0.930 . S
C346 H340 0.930 . S
C346 C347 1.355 . S
C346 C348 1.415 1_554 S
C347 C346 1.355 . S
C347 C349 1.419 . S
C348 C346 1.415 1_556 S
C348 C353 1.425 . S
C348 C355 1.409 . S
C349 H341 0.930 . S
C349 C347 1.419 . S
C349 C350 1.362 1_554 S
C350 H342 0.930 . S
C350 C349 1.362 1_556 S
C350 C353 1.409 . S
C351 H343 0.930 . S
C351 C352 1.355 . S
C351 C353 1.415 . S
C352 C351 1.355 . S
C352 C354 1.419 . S
C353 C348 1.425 . S
C353 C350 1.409 . S
C353 C351 1.415 . S
C354 H344 0.930 . S
C354 C352 1.419 . S
C354 C355 1.362 . S
C355 H345 0.930 . S
C355 C348 1.409 . S
C355 C354 1.362 . S
H356 C362 0.930 . S
H357 C365 0.930 . S
H358 C366 0.930 . S
H359 C367 0.930 . S
H360 C370 0.930 . S
H361 C371 0.930 . S
C362 H356 0.930 . S
C362 C363 1.355 . S
C362 C364 1.415 . S
C363 C362 1.355 . S
C363 C365 1.419 . S
C364 C362 1.415 . S
C364 C369 1.425 . S
C364 C371 1.409 . S
C365 H357 0.930 . S
C365 C363 1.419 . S
C365 C366 1.362 . S
C366 H358 0.930 . S
C366 C365 1.362 . S
C366 C369 1.409 . S
C367 H359 0.930 . S
C367 C368 1.355 . S
C367 C369 1.415 . S
C368 C367 1.355 . S
C368 C370 1.419 . S
C369 C364 1.425 . S
C369 C366 1.409 . S
C369 C367 1.415 . S
C370 H360 0.930 . S
C370 C368 1.419 . S
C370 C371 1.362 . S
C371 H361 0.930 . S
C371 C364 1.409 . S
C371 C370 1.362 . S
H372 C378 0.930 . S
H373 C381 0.930 . S
H374 C382 0.930 . S
H375 C383 0.930 . S
H376 C386 0.930 . S
H377 C387 0.930 . S
C378 H372 0.930 . S
C378 C379 1.355 . S
C378 C380 1.415 . S
C379 C378 1.355 . S
C379 C381 1.419 . S
C380 C378 1.415 . S
C380 C385 1.425 . S
C380 C387 1.409 . S
C381 H373 0.930 . S
C381 C379 1.419 . S
C381 C382 1.362 . S
C382 H374 0.930 . S
C382 C381 1.362 . S
C382 C385 1.409 . S
C383 H375 0.930 . S
C383 C384 1.355 . S
C383 C385 1.415 . S
C384 C383 1.355 . S
C384 C386 1.419 . S
C385 C380 1.425 . S
C385 C382 1.409 . S
C385 C383 1.415 . S
C386 H376 0.930 . S
C386 C384 1.419 . S
C386 C387 1.362 . S
C387 H377 0.930 . S
C387 C380 1.409 . S
C387 C386 1.362 . S
H388 C394 0.930 . S
H389 C397 0.930 . S
H390 C398 0.930 . S
H391 C399 0.930 . S
H392 C402 0.930 . S
H393 C403 0.930 . S
C394 H388 0.930 . S
C394 C395 1.355 . S
C394 C396 1.415 . S
C395 C394 1.355 . S
C395 C397 1.419 . S
C396 C394 1.415 . S
C396 C401 1.425 . S
C396 C403 1.409 . S
C397 H389 0.930 . S
C397 C395 1.419 . S
C397 C398 1.362 . S
C398 H390 0.930 . S
C398 C397 1.362 . S
C398 C401 1.409 . S
C399 H391 0.930 . S
C399 C400 1.355 . S
C399 C401 1.415 . S
C400 C399 1.355 . S
C400 C402 1.419 . S
C401 C396 1.425 . S
C401 C398 1.409 . S
C401 C399 1.415 . S
C402 H392 0.930 . S
C402 C400 1.419 . S
C402 C403 1.362 . S
C403 H393 0.930 . S
C403 C396 1.409 . S
C403 C402 1.362 . S
H404 C410 0.930 . S
H405 C413 0.930 . S
H406 C414 0.930 . S
H407 C415 0.930 . S
H408 C418 0.930 . S
H409 C419 0.930 . S
C410 H404 0.930 . S
C410 C411 1.355 . S
C410 C412 1.415 . S
C411 C410 1.355 . S
C411 C413 1.419 . S
C412 C410 1.415 . S
C412 C417 1.425 . S
C412 C419 1.409 . S
C413 H405 0.930 . S
C413 C411 1.419 . S
C413 C414 1.362 . S
C414 H406 0.930 . S
C414 C413 1.362 . S
C414 C417 1.409 . S
C415 H407 0.930 . S
C415 C416 1.355 . S
C415 C417 1.415 . S
C416 C415 1.355 . S
C416 C418 1.419 . S
C417 C412 1.425 . S
C417 C414 1.409 . S
C417 C415 1.415 . S
C418 H408 0.930 . S
C418 C416 1.419 . S
C418 C419 1.362 . S
C419 H409 0.930 . S
C419 C412 1.409 . S
C419 C418 1.362 . S
H420 C426 0.930 . S
H421 C429 0.930 . S
H422 C430 0.930 . S
H423 C431 0.930 . S
H424 C434 0.930 . S
H425 C435 0.930 . S
C426 H420 0.930 . S
C426 C427 1.355 . S
C426 C428 1.415 . S
C427 C426 1.355 . S
C427 C429 1.419 . S
C428 C426 1.415 . S
C428 C433 1.425 . S
C428 C435 1.409 . S
C429 H421 0.930 . S
C429 C427 1.419 . S
C429 C430 1.362 . S
C430 H422 0.930 . S
C430 C429 1.362 . S
C430 C433 1.409 . S
C431 H423 0.930 . S
C431 C432 1.355 . S
C431 C433 1.415 . S
C432 C431 1.355 . S
C432 C434 1.419 . S
C433 C428 1.425 . S
C433 C430 1.409 . S
C433 C431 1.415 . S
C434 H424 0.930 . S
C434 C432 1.419 . S
C434 C435 1.362 . S
C435 H425 0.930 . S
C435 C428 1.409 . S
C435 C434 1.362 . S
H436 C442 0.930 . S
H437 C445 0.930 . S
H438 C446 0.930 . S
H439 C447 0.930 . S
H440 C450 0.930 . S
H441 C451 0.930 . S
C442 H436 0.930 . S
C442 C443 1.355 . S
C442 C444 1.415 . S
C443 C442 1.355 . S
C443 C445 1.419 . S
C444 C442 1.415 . S
C444 C449 1.425 . S
C444 C451 1.409 . S
C445 H437 0.930 . S
C445 C443 1.419 . S
C445 C446 1.362 . S
C446 H438 0.930 . S
C446 C445 1.362 . S
C446 C449 1.409 . S
C447 H439 0.930 . S
C447 C448 1.355 . S
C447 C449 1.415 . S
C448 C447 1.355 . S
C448 C450 1.419 . S
C449 C444 1.425 . S
C449 C446 1.409 . S
C449 C447 1.415 . S
C450 H440 0.930 . S
C450 C448 1.419 . S
C450 C451 1.362 . S
C451 H441 0.930 . S
C451 C444 1.409 . S
C451 C450 1.362 . S
H452 C458 0.930 . S
H453 C461 0.930 . S
H454 C462 0.930 . S
H455 C463 0.930 1_554 S
H456 C466 0.930 . S
H457 C467 0.930 . S
C458 H452 0.930 . S
C458 C459 1.355 . S
C458 C460 1.415 . S
C459 C458 1.355 . S
C459 C461 1.419 . S
C460 C458 1.415 . S
C460 C465 1.425 . S
C460 C467 1.409 . S
C461 H453 0.930 . S
C461 C459 1.419 . S
C461 C462 1.362 . S
C462 H454 0.930 . S
C462 C461 1.362 . S
C462 C465 1.409 . S
C463 H455 0.930 1_556 S
C463 C464 1.355 . S
C463 C465 1.415 . S
C464 C463 1.355 . S
C464 C466 1.419 . S
C465 C460 1.425 . S
C465 C462 1.409 . S
C465 C463 1.415 . S
C466 H456 0.930 . S
C466 C464 1.419 . S
C466 C467 1.362 . S
C467 H457 0.930 . S
C467 C460 1.409 . S
C467 C466 1.362 . S
H468 C474 0.930 . S
H469 C477 0.930 . S
H470 C478 0.930 . S
H471 C479 0.930 . S
H472 C482 0.930 . S
H473 C483 0.930 . S
C474 H468 0.930 . S
C474 C475 1.355 . S
C474 C476 1.415 . S
C475 C474 1.355 . S
C475 C477 1.419 . S
C476 C474 1.415 . S
C476 C481 1.425 . S
C476 C483 1.409 . S
C477 H469 0.930 . S
C477 C475 1.419 . S
C477 C478 1.362 . S
C478 H470 0.930 . S
C478 C477 1.362 . S
C478 C481 1.409 . S
C479 H471 0.930 . S
C479 C480 1.355 . S
C479 C481 1.415 . S
C480 C479 1.355 . S
C480 C482 1.419 . S
C481 C476 1.425 . S
C481 C478 1.409 . S
C481 C479 1.415 . S
C482 H472 0.930 . S
C482 C480 1.419 . S
C482 C483 1.362 . S
C483 H473 0.930 . S
C483 C476 1.409 . S
C483 C482 1.362 . S
H484 C490 0.930 . S
H485 C493 0.930 . S
H486 C494 0.930 . S
H487 C495 0.930 . S
H488 C498 0.930 . S
H489 C499 0.930 . S
C490 H484 0.930 . S
C490 C491 1.355 . S
C490 C492 1.415 . S
C491 C490 1.355 . S
C491 C493 1.419 . S
C492 C490 1.415 . S
C492 C497 1.425 . S
C492 C499 1.409 . S
C493 H485 0.930 . S
C493 C491 1.419 . S
C493 C494 1.362 . S
C494 H486 0.930 . S
C494 C493 1.362 . S
C494 C497 1.409 . S
C495 H487 0.930 . S
C495 C496 1.355 . S
C495 C497 1.415 1_554 S
C496 C495 1.355 . S
C496 C498 1.419 . S
C497 C492 1.425 . S
C497 C494 1.409 . S
C497 C495 1.415 1_556 S
C498 H488 0.930 . S
C498 C496 1.419 . S
C498 C499 1.362 1_554 S
C499 H489 0.930 . S
C499 C492 1.409 . S
C499 C498 1.362 1_556 S
H500 C506 0.930 . S
H501 C509 0.930 . S
H502 C510 0.930 . S
H503 C511 0.930 . S
H504 C514 0.930 . S
H505 C515 0.930 . S
C506 H500 0.930 . S
C506 C507 1.355 . S
C506 C508 1.415 . S
C507 C506 1.355 . S
C507 C509 1.419 . S
C508 C506 1.415 . S
C508 C513 1.425 . S
C508 C515 1.409 . S
C509 H501 0.930 . S
C509 C507 1.419 . S
C509 C510 1.362 . S
C510 H502 0.930 . S
C510 C509 1.362 . S
C510 C513 1.409 . S
C511 H503 0.930 . S
C511 C512 1.355 . S
C511 C513 1.415 . S
C512 C511 1.355 . S
C512 C514 1.419 . S
C513 C508 1.425 . S
C513 C510 1.409 . S
C513 C511 1.415 . S
C514 H504 0.930 . S
C514 C512 1.419 . S
C514 C515 1.362 . S
C515 H505 0.930 . S
C515 C508 1.409 . S
C515 C514 1.362 . S
H516 C522 0.930 . S
H517 C525 0.930 . S
H518 C526 0.930 . S
H519 C527 0.930 . S
H520 C530 0.930 . S
H521 C531 0.930 . S
C522 H516 0.930 . S
C522 C523 1.355 . S
C522 C524 1.415 . S
C523 C522 1.355 . S
C523 C525 1.419 . S
C524 C522 1.415 . S
C524 C529 1.425 . S
C524 C531 1.409 . S
C525 H517 0.930 . S
C525 C523 1.419 . S
C525 C526 1.362 . S
C526 H518 0.930 . S
C526 C525 1.362 . S
C526 C529 1.409 . S
C527 H519 0.930 . S
C527 C528 1.355 . S
C527 C529 1.415 . S
C528 C527 1.355 . S
C528 C530 1.419 . S
C529 C524 1.425 . S
C529 C526 1.409 . S
C529 C527 1.415 . S
C530 H520 0.930 . S
C530 C528 1.419 . S
C530 C531 1.362 . S
C531 H521 0.930 . S
C531 C524 1.409 . S
C531 C530 1.362 . S
H532 C538 0.930 . S
H533 C541 0.930 . S
H534 C542 0.930 . S
H535 C543 0.930 . S
H536 C546 0.930 . S
H537 C547 0.930 . S
C538 H532 0.930 . S
C538 C539 1.355 . S
C538 C540 1.415 . S
C539 C538 1.355 . S
C539 C541 1.419 . S
C540 C538 1.415 . S
C540 C545 1.425 . S
C540 C547 1.409 . S
C541 H533 0.930 . S
C541 C539 1.419 . S
C541 C542 1.362 . S
C542 H534 0.930 . S
C542 C541 1.362 . S
C542 C545 1.409 . S
C543 H535 0.930 . S
C543 C544 1.355 . S
C543 C545 1.415 . S
C544 C543 1.355 . S
C544 C546 1.419 . S
C545 C540 1.425 . S
C545 C542 1.409 . S
C545 C543 1.415 . S
C546 H536 0.930 . S
C546 C544 1.419 . S
C546 C547 1.362 . S
C547 H537 0.930 . S
C547 C540 1.409 . S
C547 C546 1.362 . S
H548 C554 0.930 . S
H549 C557 0.930 . S
H550 C558 0.930 . S
H551 C559 0.930 . S
H552 C562 0.930 . S
H553 C563 0.930 . S
C554 H548 0.930 . S
C554 C555 1.355 . S
C554 C556 1.415 . S
C555 C554 1.355 . S
C555 C557 1.419 . S
C556 C554 1.415 . S
C556 C561 1.425 . S
C556 C563 1.409 . S
C557 H549 0.930 . S
C557 C555 1.419 . S
C557 C558 1.362 . S
C558 H550 0.930 . S
C558 C557 1.362 . S
C558 C561 1.409 . S
C559 H551 0.930 . S
C559 C560 1.355 . S
C559 C561 1.415 . S
C560 C559 1.355 . S
C560 C562 1.419 . S
C561 C556 1.425 . S
C561 C558 1.409 . S
C561 C559 1.415 . S
C562 H552 0.930 . S
C562 C560 1.419 . S
C562 C563 1.362 . S
C563 H553 0.930 . S
C563 C556 1.409 . S
C563 C562 1.362 . S
H564 C570 0.930 . S
H565 C573 0.930 . S
H566 C574 0.930 . S
H567 C575 0.930 . S
H568 C578 0.930 . S
H569 C579 0.930 . S
C570 H564 0.930 . S
C570 C571 1.355 . S
C570 C572 1.415 . S
C571 C570 1.355 . S
C571 C573 1.419 1_554 S
C572 C570 1.415 . S
C572 C577 1.425 1_545 S
C572 C579 1.409 1_545 S
C573 H565 0.930 . S
C573 C571 1.419 1_556 S
C573 C574 1.362 . S
C574 H566 0.930 . S
C574 C573 1.362 . S
C574 C577 1.409 1_546 S
C575 H567 0.930 . S
C575 C576 1.355 . S
C575 C577 1.415 . S
C576 C575 1.355 . S
C576 C578 1.419 . S
C577 C572 1.425 1_565 S
C577 C574 1.409 1_564 S
C577 C575 1.415 . S
C578 H568 0.930 . S
C578 C576 1.419 . S
C578 C579 1.362 . S
C579 H569 0.930 . S
C579 C572 1.409 1_565 S
C579 C578 1.362 . S
H580 C586 0.930 . S
H581 C589 0.930 . S
H582 C590 0.930 . S
H583 C591 0.930 . S
H584 C594 0.930 . S
H585 C595 0.930 . S
C586 H580 0.930 . S
C586 C587 1.355 . S
C586 C588 1.415 . S
C587 C586 1.355 . S
C587 C589 1.419 . S
C588 C586 1.415 . S
C588 C593 1.425 . S
C588 C595 1.409 . S
C589 H581 0.930 . S
C589 C587 1.419 . S
C589 C590 1.362 . S
C590 H582 0.930 . S
C590 C589 1.362 . S
C590 C593 1.409 . S
C591 H583 0.930 . S
C591 C592 1.355 . S
C591 C593 1.415 . S
C592 C591 1.355 . S
C592 C594 1.419 . S
C593 C588 1.425 . S
C593 C590 1.409 . S
C593 C591 1.415 . S
C594 H584 0.930 . S
C594 C592 1.419 . S
C594 C595 1.362 . S
C595 H585 0.930 . S
C595 C588 1.409 . S
C595 C594 1.362 . S
H596 C602 0.930 . S
H597 C605 0.930 . S
H598 C606 0.930 . S
H599 C607 0.930 . S
H600 C610 0.930 . S
H601 C611 0.930 . S
C602 H596 0.930 . S
C602 C603 1.355 . S
C602 C604 1.415 . S
C603 C602 1.355 . S
C603 C605 1.419 . S
C604 C602 1.415 . S
C604 C609 1.425 1_455 S
C604 C611 1.409 1_455 S
C605 H597 0.930 . S
C605 C603 1.419 . S
C605 C606 1.362 . S
C606 H598 0.930 . S
C606 C605 1.362 . S
C606 C609 1.409 1_455 S
C607 H599 0.930 . S
C607 C608 1.355 . S
C607 C609 1.415 . S
C608 C607 1.355 . S
C608 C610 1.419 . S
C609 C604 1.425 1_655 S
C609 C606 1.409 1_655 S
C609 C607 1.415 . S
C610 H600 0.930 . S
C610 C608 1.419 . S
C610 C611 1.362 . S
C611 H601 0.930 . S
C611 C604 1.409 1_655 S
C611 C610 1.362 . S
H612 C618 0.930 . S
H613 C621 0.930 . S
H614 C622 0.930 . S
H615 C623 0.930 . S
H616 C626 0.930 . S
H617 C627 0.930 . S
C618 H612 0.930 . S
C618 C619 1.355 . S
C618 C620 1.415 . S
C619 C618 1.355 . S
C619 C621 1.419 . S
C620 C618 1.415 . S
C620 C625 1.425 1_565 S
C620 C627 1.409 1_565 S
C621 H613 0.930 . S
C621 C619 1.419 . S
C621 C622 1.362 . S
C622 H614 0.930 . S
C622 C621 1.362 . S
C622 C625 1.409 1_565 S
C623 H615 0.930 . S
C623 C624 1.355 . S
C623 C625 1.415 . S
C624 C623 1.355 . S
C624 C626 1.419 . S
C625 C620 1.425 1_545 S
C625 C622 1.409 1_545 S
C625 C623 1.415 . S
C626 H616 0.930 . S
C626 C624 1.419 . S
C626 C627 1.362 . S
C627 H617 0.930 . S
C627 C620 1.409 1_545 S
C627 C626 1.362 . S
H628 C634 0.930 . S
H629 C637 0.930 . S
H630 C638 0.930 . S
H631 C639 0.930 . S
H632 C642 0.930 . S
H633 C643 0.930 . S
C634 H628 0.930 . S
C634 C635 1.355 . S
C634 C636 1.415 . S
C635 C634 1.355 . S
C635 C637 1.419 . S
C636 C634 1.415 . S
C636 C641 1.425 . S
C636 C643 1.409 . S
C637 H629 0.930 . S
C637 C635 1.419 . S
C637 C638 1.362 . S
C638 H630 0.930 . S
C638 C637 1.362 . S
C638 C641 1.409 . S
C639 H631 0.930 . S
C639 C640 1.355 . S
C639 C641 1.415 . S
C640 C639 1.355 . S
C640 C642 1.419 . S
C641 C636 1.425 . S
C641 C638 1.409 . S
C641 C639 1.415 . S
C642 H632 0.930 . S
C642 C640 1.419 . S
C642 C643 1.362 . S
C643 H633 0.930 . S
C643 C636 1.409 . S
C643 C642 1.362 . S
H644 C650 0.930 . S
H645 C653 0.930 . S
H646 C654 0.930 . S
H647 C655 0.930 . S
H648 C658 0.930 . S
H649 C659 0.930 . S
C650 H644 0.930 . S
C650 C651 1.355 . S
C650 C652 1.415 . S
C651 C650 1.355 . S
C651 C653 1.419 . S
C652 C650 1.415 . S
C652 C657 1.425 1_455 S
C652 C659 1.409 1_455 S
C653 H645 0.930 . S
C653 C651 1.419 . S
C653 C654 1.362 . S
C654 H646 0.930 . S
C654 C653 1.362 . S
C654 C657 1.409 1_455 S
C655 H647 0.930 . S
C655 C656 1.355 . S
C655 C657 1.415 . S
C656 C655 1.355 . S
C656 C658 1.419 . S
C657 C652 1.425 1_655 S
C657 C654 1.409 1_655 S
C657 C655 1.415 . S
C658 H648 0.930 . S
C658 C656 1.419 . S
C658 C659 1.362 . S
C659 H649 0.930 . S
C659 C652 1.409 1_655 S
C659 C658 1.362 . S
C283 C7 1.193 . S
C288 C237 1.173 . S
C299 C30 1.167 . S
C304 C260 1.190 . S
C315 C145 1.169 . S
C320 C53 1.192 . S
C331 C76 1.181 . S
C336 C168 1.191 . S
C347 C191 1.193 . S
C352 C99 1.176 . S
C363 C214 1.175 . S
C368 C122 1.193 1_554 S
C379 N196 1.702 . S
C384 N12 1.693 . S
C395 N35 1.727 . S
C400 N219 1.719 . S
C411 N242 1.699 . S
C416 N58 1.709 . S
C427 N81 1.713 . S
C432 N265 1.723 . S
C443 N104 1.690 . S
C448 N150 1.697 . S
C459 N127 1.715 . S
C464 N173 1.705 1_556 S
C475 C246 1.857 . S
C480 C16 1.880 . S
C491 C269 1.856 . S
C496 C39 1.875 . S
C507 C154 1.860 1_554 S
C512 C62 1.870 . S
C523 C85 1.866 . S
C528 C177 1.876 . S
C539 C108 1.876 . S
C544 C200 1.867 . S
C555 C223 1.879 . S
C560 C131 1.857 . S
C571 N2 1.700 . S
C576 N163 1.720 . S
C587 N186 1.667 . S
C592 N25 1.631 . S
C603 N209 1.639 . S
C608 N48 1.699 . S
C619 N71 1.705 . S
C624 N232 1.717 . S
C635 N94 1.673 . S
C640 N255 1.630 . S
C651 N117 1.723 . S
C656 N140 1.680 . S
