# Generated by pormake.
# Topology kfi, (4)-cn, num edge types: 1
# Building blocks:
#     Node 0, Type 0, BuildingBlock: CEKHIL_clean_sbu_0, # of connection points: 4
#     Node 1, Type 0, BuildingBlock: CEKHIL_clean_sbu_0, # of connection points: 4
#     Node 2, Type 0, BuildingBlock: CEKHIL_clean_sbu_0, # of connection points: 4
#     Node 3, Type 0, BuildingBlock: CEKHIL_clean_sbu_0, # of connection points: 4
#     Node 4, Type 0, BuildingBlock: CEKHIL_clean_sbu_0, # of connection points: 4
#     Node 5, Type 0, BuildingBlock: CEKHIL_clean_sbu_0, # of connection points: 4
#     Node 6, Type 0, BuildingBlock: CEKHIL_clean_sbu_0, # of connection points: 4
#     Node 7, Type 0, BuildingBlock: CEKHIL_clean_sbu_0, # of connection points: 4
#     Node 8, Type 0, BuildingBlock: CEKHIL_clean_sbu_0, # of connection points: 4
#     Node 9, Type 0, BuildingBlock: CEKHIL_clean_sbu_0, # of connection points: 4
#     Node 10, Type 0, BuildingBlock: CEKHIL_clean_sbu_0, # of connection points: 4
#     Node 11, Type 0, BuildingBlock: CEKHIL_clean_sbu_0, # of connection points: 4
#     Node 12, Type 0, BuildingBlock: CEKHIL_clean_sbu_0, # of connection points: 4
#     Node 13, Type 0, BuildingBlock: CEKHIL_clean_sbu_0, # of connection points: 4
#     Node 14, Type 0, BuildingBlock: CEKHIL_clean_sbu_0, # of connection points: 4
#     Node 15, Type 0, BuildingBlock: CEKHIL_clean_sbu_0, # of connection points: 4
#     Node 16, Type 0, BuildingBlock: CEKHIL_clean_sbu_0, # of connection points: 4
#     Node 17, Type 0, BuildingBlock: CEKHIL_clean_sbu_0, # of connection points: 4
#     Node 18, Type 0, BuildingBlock: CEKHIL_clean_sbu_0, # of connection points: 4
#     Node 19, Type 0, BuildingBlock: CEKHIL_clean_sbu_0, # of connection points: 4
#     Node 20, Type 0, BuildingBlock: CEKHIL_clean_sbu_0, # of connection points: 4
#     Node 21, Type 0, BuildingBlock: CEKHIL_clean_sbu_0, # of connection points: 4
#     Node 22, Type 0, BuildingBlock: CEKHIL_clean_sbu_0, # of connection points: 4
#     Node 23, Type 0, BuildingBlock: CEKHIL_clean_sbu_0, # of connection points: 4
#     Node 24, Type 0, BuildingBlock: CEKHIL_clean_sbu_0, # of connection points: 4
#     Node 25, Type 0, BuildingBlock: CEKHIL_clean_sbu_0, # of connection points: 4
#     Node 26, Type 0, BuildingBlock: CEKHIL_clean_sbu_0, # of connection points: 4
#     Node 27, Type 0, BuildingBlock: CEKHIL_clean_sbu_0, # of connection points: 4
#     Node 28, Type 0, BuildingBlock: CEKHIL_clean_sbu_0, # of connection points: 4
#     Node 29, Type 0, BuildingBlock: CEKHIL_clean_sbu_0, # of connection points: 4
#     Node 30, Type 0, BuildingBlock: CEKHIL_clean_sbu_0, # of connection points: 4
#     Node 31, Type 0, BuildingBlock: CEKHIL_clean_sbu_0, # of connection points: 4
#     Node 32, Type 0, BuildingBlock: CEKHIL_clean_sbu_0, # of connection points: 4
#     Node 33, Type 0, BuildingBlock: CEKHIL_clean_sbu_0, # of connection points: 4
#     Node 34, Type 0, BuildingBlock: CEKHIL_clean_sbu_0, # of connection points: 4
#     Node 35, Type 0, BuildingBlock: CEKHIL_clean_sbu_0, # of connection points: 4
#     Node 36, Type 0, BuildingBlock: CEKHIL_clean_sbu_0, # of connection points: 4
#     Node 37, Type 0, BuildingBlock: CEKHIL_clean_sbu_0, # of connection points: 4
#     Node 38, Type 0, BuildingBlock: CEKHIL_clean_sbu_0, # of connection points: 4
#     Node 39, Type 0, BuildingBlock: CEKHIL_clean_sbu_0, # of connection points: 4
#     Node 40, Type 0, BuildingBlock: CEKHIL_clean_sbu_0, # of connection points: 4
#     Node 41, Type 0, BuildingBlock: CEKHIL_clean_sbu_0, # of connection points: 4
#     Node 42, Type 0, BuildingBlock: CEKHIL_clean_sbu_0, # of connection points: 4
#     Node 43, Type 0, BuildingBlock: CEKHIL_clean_sbu_0, # of connection points: 4
#     Node 44, Type 0, BuildingBlock: CEKHIL_clean_sbu_0, # of connection points: 4
#     Node 45, Type 0, BuildingBlock: CEKHIL_clean_sbu_0, # of connection points: 4
#     Node 46, Type 0, BuildingBlock: CEKHIL_clean_sbu_0, # of connection points: 4
#     Node 47, Type 0, BuildingBlock: CEKHIL_clean_sbu_0, # of connection points: 4
#     Node 48, Type 0, BuildingBlock: CEKHIL_clean_sbu_0, # of connection points: 4
#     Node 49, Type 0, BuildingBlock: CEKHIL_clean_sbu_0, # of connection points: 4
#     Node 50, Type 0, BuildingBlock: CEKHIL_clean_sbu_0, # of connection points: 4
#     Node 51, Type 0, BuildingBlock: CEKHIL_clean_sbu_0, # of connection points: 4
#     Node 52, Type 0, BuildingBlock: CEKHIL_clean_sbu_0, # of connection points: 4
#     Node 53, Type 0, BuildingBlock: CEKHIL_clean_sbu_0, # of connection points: 4
#     Node 54, Type 0, BuildingBlock: CEKHIL_clean_sbu_0, # of connection points: 4
#     Node 55, Type 0, BuildingBlock: CEKHIL_clean_sbu_0, # of connection points: 4
#     Node 56, Type 0, BuildingBlock: CEKHIL_clean_sbu_0, # of connection points: 4
#     Node 57, Type 0, BuildingBlock: CEKHIL_clean_sbu_0, # of connection points: 4
#     Node 58, Type 0, BuildingBlock: CEKHIL_clean_sbu_0, # of connection points: 4
#     Node 59, Type 0, BuildingBlock: CEKHIL_clean_sbu_0, # of connection points: 4
#     Node 60, Type 0, BuildingBlock: CEKHIL_clean_sbu_0, # of connection points: 4
#     Node 61, Type 0, BuildingBlock: CEKHIL_clean_sbu_0, # of connection points: 4
#     Node 62, Type 0, BuildingBlock: CEKHIL_clean_sbu_0, # of connection points: 4
#     Node 63, Type 0, BuildingBlock: CEKHIL_clean_sbu_0, # of connection points: 4
#     Node 64, Type 0, BuildingBlock: CEKHIL_clean_sbu_0, # of connection points: 4
#     Node 65, Type 0, BuildingBlock: CEKHIL_clean_sbu_0, # of connection points: 4
#     Node 66, Type 0, BuildingBlock: CEKHIL_clean_sbu_0, # of connection points: 4
#     Node 67, Type 0, BuildingBlock: CEKHIL_clean_sbu_0, # of connection points: 4
#     Node 68, Type 0, BuildingBlock: CEKHIL_clean_sbu_0, # of connection points: 4
#     Node 69, Type 0, BuildingBlock: CEKHIL_clean_sbu_0, # of connection points: 4
#     Node 70, Type 0, BuildingBlock: CEKHIL_clean_sbu_0, # of connection points: 4
#     Node 71, Type 0, BuildingBlock: CEKHIL_clean_sbu_0, # of connection points: 4
#     Node 72, Type 0, BuildingBlock: CEKHIL_clean_sbu_0, # of connection points: 4
#     Node 73, Type 0, BuildingBlock: CEKHIL_clean_sbu_0, # of connection points: 4
#     Node 74, Type 0, BuildingBlock: CEKHIL_clean_sbu_0, # of connection points: 4
#     Node 75, Type 0, BuildingBlock: CEKHIL_clean_sbu_0, # of connection points: 4
#     Node 76, Type 0, BuildingBlock: CEKHIL_clean_sbu_0, # of connection points: 4
#     Node 77, Type 0, BuildingBlock: CEKHIL_clean_sbu_0, # of connection points: 4
#     Node 78, Type 0, BuildingBlock: CEKHIL_clean_sbu_0, # of connection points: 4
#     Node 79, Type 0, BuildingBlock: CEKHIL_clean_sbu_0, # of connection points: 4
#     Node 80, Type 0, BuildingBlock: CEKHIL_clean_sbu_0, # of connection points: 4
#     Node 81, Type 0, BuildingBlock: CEKHIL_clean_sbu_0, # of connection points: 4
#     Node 82, Type 0, BuildingBlock: CEKHIL_clean_sbu_0, # of connection points: 4
#     Node 83, Type 0, BuildingBlock: CEKHIL_clean_sbu_0, # of connection points: 4
#     Node 84, Type 0, BuildingBlock: CEKHIL_clean_sbu_0, # of connection points: 4
#     Node 85, Type 0, BuildingBlock: CEKHIL_clean_sbu_0, # of connection points: 4
#     Node 86, Type 0, BuildingBlock: CEKHIL_clean_sbu_0, # of connection points: 4
#     Node 87, Type 0, BuildingBlock: CEKHIL_clean_sbu_0, # of connection points: 4
#     Node 88, Type 0, BuildingBlock: CEKHIL_clean_sbu_0, # of connection points: 4
#     Node 89, Type 0, BuildingBlock: CEKHIL_clean_sbu_0, # of connection points: 4
#     Node 90, Type 0, BuildingBlock: CEKHIL_clean_sbu_0, # of connection points: 4
#     Node 91, Type 0, BuildingBlock: CEKHIL_clean_sbu_0, # of connection points: 4
#     Node 92, Type 0, BuildingBlock: CEKHIL_clean_sbu_0, # of connection points: 4
#     Node 93, Type 0, BuildingBlock: CEKHIL_clean_sbu_0, # of connection points: 4
#     Node 94, Type 0, BuildingBlock: CEKHIL_clean_sbu_0, # of connection points: 4
#     Node 95, Type 0, BuildingBlock: CEKHIL_clean_sbu_0, # of connection points: 4
#     Edge 96, Type (0, 0), BuildingBlock: OJICUG_clean_linker_0, # of connection points: 2
#     Edge 97, Type (0, 0), BuildingBlock: OJICUG_clean_linker_0, # of connection points: 2
#     Edge 98, Type (0, 0), BuildingBlock: OJICUG_clean_linker_0, # of connection points: 2
#     Edge 99, Type (0, 0), BuildingBlock: OJICUG_clean_linker_0, # of connection points: 2
#     Edge 100, Type (0, 0), BuildingBlock: OJICUG_clean_linker_0, # of connection points: 2
#     Edge 101, Type (0, 0), BuildingBlock: OJICUG_clean_linker_0, # of connection points: 2
#     Edge 102, Type (0, 0), BuildingBlock: OJICUG_clean_linker_0, # of connection points: 2
#     Edge 103, Type (0, 0), BuildingBlock: OJICUG_clean_linker_0, # of connection points: 2
#     Edge 104, Type (0, 0), BuildingBlock: OJICUG_clean_linker_0, # of connection points: 2
#     Edge 105, Type (0, 0), BuildingBlock: OJICUG_clean_linker_0, # of connection points: 2
#     Edge 106, Type (0, 0), BuildingBlock: OJICUG_clean_linker_0, # of connection points: 2
#     Edge 107, Type (0, 0), BuildingBlock: OJICUG_clean_linker_0, # of connection points: 2
#     Edge 108, Type (0, 0), BuildingBlock: OJICUG_clean_linker_0, # of connection points: 2
#     Edge 109, Type (0, 0), BuildingBlock: OJICUG_clean_linker_0, # of connection points: 2
#     Edge 110, Type (0, 0), BuildingBlock: OJICUG_clean_linker_0, # of connection points: 2
#     Edge 111, Type (0, 0), BuildingBlock: OJICUG_clean_linker_0, # of connection points: 2
#     Edge 112, Type (0, 0), BuildingBlock: OJICUG_clean_linker_0, # of connection points: 2
#     Edge 113, Type (0, 0), BuildingBlock: OJICUG_clean_linker_0, # of connection points: 2
#     Edge 114, Type (0, 0), BuildingBlock: OJICUG_clean_linker_0, # of connection points: 2
#     Edge 115, Type (0, 0), BuildingBlock: OJICUG_clean_linker_0, # of connection points: 2
#     Edge 116, Type (0, 0), BuildingBlock: OJICUG_clean_linker_0, # of connection points: 2
#     Edge 117, Type (0, 0), BuildingBlock: OJICUG_clean_linker_0, # of connection points: 2
#     Edge 118, Type (0, 0), BuildingBlock: OJICUG_clean_linker_0, # of connection points: 2
#     Edge 119, Type (0, 0), BuildingBlock: OJICUG_clean_linker_0, # of connection points: 2
#     Edge 120, Type (0, 0), BuildingBlock: OJICUG_clean_linker_0, # of connection points: 2
#     Edge 121, Type (0, 0), BuildingBlock: OJICUG_clean_linker_0, # of connection points: 2
#     Edge 122, Type (0, 0), BuildingBlock: OJICUG_clean_linker_0, # of connection points: 2
#     Edge 123, Type (0, 0), BuildingBlock: OJICUG_clean_linker_0, # of connection points: 2
#     Edge 124, Type (0, 0), BuildingBlock: OJICUG_clean_linker_0, # of connection points: 2
#     Edge 125, Type (0, 0), BuildingBlock: OJICUG_clean_linker_0, # of connection points: 2
#     Edge 126, Type (0, 0), BuildingBlock: OJICUG_clean_linker_0, # of connection points: 2
#     Edge 127, Type (0, 0), BuildingBlock: OJICUG_clean_linker_0, # of connection points: 2
#     Edge 128, Type (0, 0), BuildingBlock: OJICUG_clean_linker_0, # of connection points: 2
#     Edge 129, Type (0, 0), BuildingBlock: OJICUG_clean_linker_0, # of connection points: 2
#     Edge 130, Type (0, 0), BuildingBlock: OJICUG_clean_linker_0, # of connection points: 2
#     Edge 131, Type (0, 0), BuildingBlock: OJICUG_clean_linker_0, # of connection points: 2
#     Edge 132, Type (0, 0), BuildingBlock: OJICUG_clean_linker_0, # of connection points: 2
#     Edge 133, Type (0, 0), BuildingBlock: OJICUG_clean_linker_0, # of connection points: 2
#     Edge 134, Type (0, 0), BuildingBlock: OJICUG_clean_linker_0, # of connection points: 2
#     Edge 135, Type (0, 0), BuildingBlock: OJICUG_clean_linker_0, # of connection points: 2
#     Edge 136, Type (0, 0), BuildingBlock: OJICUG_clean_linker_0, # of connection points: 2
#     Edge 137, Type (0, 0), BuildingBlock: OJICUG_clean_linker_0, # of connection points: 2
#     Edge 138, Type (0, 0), BuildingBlock: OJICUG_clean_linker_0, # of connection points: 2
#     Edge 139, Type (0, 0), BuildingBlock: OJICUG_clean_linker_0, # of connection points: 2
#     Edge 140, Type (0, 0), BuildingBlock: OJICUG_clean_linker_0, # of connection points: 2
#     Edge 141, Type (0, 0), BuildingBlock: OJICUG_clean_linker_0, # of connection points: 2
#     Edge 142, Type (0, 0), BuildingBlock: OJICUG_clean_linker_0, # of connection points: 2
#     Edge 143, Type (0, 0), BuildingBlock: OJICUG_clean_linker_0, # of connection points: 2
#     Edge 144, Type (0, 0), BuildingBlock: OJICUG_clean_linker_0, # of connection points: 2
#     Edge 145, Type (0, 0), BuildingBlock: OJICUG_clean_linker_0, # of connection points: 2
#     Edge 146, Type (0, 0), BuildingBlock: OJICUG_clean_linker_0, # of connection points: 2
#     Edge 147, Type (0, 0), BuildingBlock: OJICUG_clean_linker_0, # of connection points: 2
#     Edge 148, Type (0, 0), BuildingBlock: OJICUG_clean_linker_0, # of connection points: 2
#     Edge 149, Type (0, 0), BuildingBlock: OJICUG_clean_linker_0, # of connection points: 2
#     Edge 150, Type (0, 0), BuildingBlock: OJICUG_clean_linker_0, # of connection points: 2
#     Edge 151, Type (0, 0), BuildingBlock: OJICUG_clean_linker_0, # of connection points: 2
#     Edge 152, Type (0, 0), BuildingBlock: OJICUG_clean_linker_0, # of connection points: 2
#     Edge 153, Type (0, 0), BuildingBlock: OJICUG_clean_linker_0, # of connection points: 2
#     Edge 154, Type (0, 0), BuildingBlock: OJICUG_clean_linker_0, # of connection points: 2
#     Edge 155, Type (0, 0), BuildingBlock: OJICUG_clean_linker_0, # of connection points: 2
#     Edge 156, Type (0, 0), BuildingBlock: OJICUG_clean_linker_0, # of connection points: 2
#     Edge 157, Type (0, 0), BuildingBlock: OJICUG_clean_linker_0, # of connection points: 2
#     Edge 158, Type (0, 0), BuildingBlock: OJICUG_clean_linker_0, # of connection points: 2
#     Edge 159, Type (0, 0), BuildingBlock: OJICUG_clean_linker_0, # of connection points: 2
#     Edge 160, Type (0, 0), BuildingBlock: OJICUG_clean_linker_0, # of connection points: 2
#     Edge 161, Type (0, 0), BuildingBlock: OJICUG_clean_linker_0, # of connection points: 2
#     Edge 162, Type (0, 0), BuildingBlock: OJICUG_clean_linker_0, # of connection points: 2
#     Edge 163, Type (0, 0), BuildingBlock: OJICUG_clean_linker_0, # of connection points: 2
#     Edge 164, Type (0, 0), BuildingBlock: OJICUG_clean_linker_0, # of connection points: 2
#     Edge 165, Type (0, 0), BuildingBlock: OJICUG_clean_linker_0, # of connection points: 2
#     Edge 166, Type (0, 0), BuildingBlock: OJICUG_clean_linker_0, # of connection points: 2
#     Edge 167, Type (0, 0), BuildingBlock: OJICUG_clean_linker_0, # of connection points: 2
#     Edge 168, Type (0, 0), BuildingBlock: OJICUG_clean_linker_0, # of connection points: 2
#     Edge 169, Type (0, 0), BuildingBlock: OJICUG_clean_linker_0, # of connection points: 2
#     Edge 170, Type (0, 0), BuildingBlock: OJICUG_clean_linker_0, # of connection points: 2
#     Edge 171, Type (0, 0), BuildingBlock: OJICUG_clean_linker_0, # of connection points: 2
#     Edge 172, Type (0, 0), BuildingBlock: OJICUG_clean_linker_0, # of connection points: 2
#     Edge 173, Type (0, 0), BuildingBlock: OJICUG_clean_linker_0, # of connection points: 2
#     Edge 174, Type (0, 0), BuildingBlock: OJICUG_clean_linker_0, # of connection points: 2
#     Edge 175, Type (0, 0), BuildingBlock: OJICUG_clean_linker_0, # of connection points: 2
#     Edge 176, Type (0, 0), BuildingBlock: OJICUG_clean_linker_0, # of connection points: 2
#     Edge 177, Type (0, 0), BuildingBlock: OJICUG_clean_linker_0, # of connection points: 2
#     Edge 178, Type (0, 0), BuildingBlock: OJICUG_clean_linker_0, # of connection points: 2
#     Edge 179, Type (0, 0), BuildingBlock: OJICUG_clean_linker_0, # of connection points: 2
#     Edge 180, Type (0, 0), BuildingBlock: OJICUG_clean_linker_0, # of connection points: 2
#     Edge 181, Type (0, 0), BuildingBlock: OJICUG_clean_linker_0, # of connection points: 2
#     Edge 182, Type (0, 0), BuildingBlock: OJICUG_clean_linker_0, # of connection points: 2
#     Edge 183, Type (0, 0), BuildingBlock: OJICUG_clean_linker_0, # of connection points: 2
#     Edge 184, Type (0, 0), BuildingBlock: OJICUG_clean_linker_0, # of connection points: 2
#     Edge 185, Type (0, 0), BuildingBlock: OJICUG_clean_linker_0, # of connection points: 2
#     Edge 186, Type (0, 0), BuildingBlock: OJICUG_clean_linker_0, # of connection points: 2
#     Edge 187, Type (0, 0), BuildingBlock: OJICUG_clean_linker_0, # of connection points: 2
#     Edge 188, Type (0, 0), BuildingBlock: OJICUG_clean_linker_0, # of connection points: 2
#     Edge 189, Type (0, 0), BuildingBlock: OJICUG_clean_linker_0, # of connection points: 2
#     Edge 190, Type (0, 0), BuildingBlock: OJICUG_clean_linker_0, # of connection points: 2
#     Edge 191, Type (0, 0), BuildingBlock: OJICUG_clean_linker_0, # of connection points: 2
#     Edge 192, Type (0, 0), BuildingBlock: OJICUG_clean_linker_0, # of connection points: 2
#     Edge 193, Type (0, 0), BuildingBlock: OJICUG_clean_linker_0, # of connection points: 2
#     Edge 194, Type (0, 0), BuildingBlock: OJICUG_clean_linker_0, # of connection points: 2
#     Edge 195, Type (0, 0), BuildingBlock: OJICUG_clean_linker_0, # of connection points: 2
#     Edge 196, Type (0, 0), BuildingBlock: OJICUG_clean_linker_0, # of connection points: 2
#     Edge 197, Type (0, 0), BuildingBlock: OJICUG_clean_linker_0, # of connection points: 2
#     Edge 198, Type (0, 0), BuildingBlock: OJICUG_clean_linker_0, # of connection points: 2
#     Edge 199, Type (0, 0), BuildingBlock: OJICUG_clean_linker_0, # of connection points: 2
#     Edge 200, Type (0, 0), BuildingBlock: OJICUG_clean_linker_0, # of connection points: 2
#     Edge 201, Type (0, 0), BuildingBlock: OJICUG_clean_linker_0, # of connection points: 2
#     Edge 202, Type (0, 0), BuildingBlock: OJICUG_clean_linker_0, # of connection points: 2
#     Edge 203, Type (0, 0), BuildingBlock: OJICUG_clean_linker_0, # of connection points: 2
#     Edge 204, Type (0, 0), BuildingBlock: OJICUG_clean_linker_0, # of connection points: 2
#     Edge 205, Type (0, 0), BuildingBlock: OJICUG_clean_linker_0, # of connection points: 2
#     Edge 206, Type (0, 0), BuildingBlock: OJICUG_clean_linker_0, # of connection points: 2
#     Edge 207, Type (0, 0), BuildingBlock: OJICUG_clean_linker_0, # of connection points: 2
#     Edge 208, Type (0, 0), BuildingBlock: OJICUG_clean_linker_0, # of connection points: 2
#     Edge 209, Type (0, 0), BuildingBlock: OJICUG_clean_linker_0, # of connection points: 2
#     Edge 210, Type (0, 0), BuildingBlock: OJICUG_clean_linker_0, # of connection points: 2
#     Edge 211, Type (0, 0), BuildingBlock: OJICUG_clean_linker_0, # of connection points: 2
#     Edge 212, Type (0, 0), BuildingBlock: OJICUG_clean_linker_0, # of connection points: 2
#     Edge 213, Type (0, 0), BuildingBlock: OJICUG_clean_linker_0, # of connection points: 2
#     Edge 214, Type (0, 0), BuildingBlock: OJICUG_clean_linker_0, # of connection points: 2
#     Edge 215, Type (0, 0), BuildingBlock: OJICUG_clean_linker_0, # of connection points: 2
#     Edge 216, Type (0, 0), BuildingBlock: OJICUG_clean_linker_0, # of connection points: 2
#     Edge 217, Type (0, 0), BuildingBlock: OJICUG_clean_linker_0, # of connection points: 2
#     Edge 218, Type (0, 0), BuildingBlock: OJICUG_clean_linker_0, # of connection points: 2
#     Edge 219, Type (0, 0), BuildingBlock: OJICUG_clean_linker_0, # of connection points: 2
#     Edge 220, Type (0, 0), BuildingBlock: OJICUG_clean_linker_0, # of connection points: 2
#     Edge 221, Type (0, 0), BuildingBlock: OJICUG_clean_linker_0, # of connection points: 2
#     Edge 222, Type (0, 0), BuildingBlock: OJICUG_clean_linker_0, # of connection points: 2
#     Edge 223, Type (0, 0), BuildingBlock: OJICUG_clean_linker_0, # of connection points: 2
#     Edge 224, Type (0, 0), BuildingBlock: OJICUG_clean_linker_0, # of connection points: 2
#     Edge 225, Type (0, 0), BuildingBlock: OJICUG_clean_linker_0, # of connection points: 2
#     Edge 226, Type (0, 0), BuildingBlock: OJICUG_clean_linker_0, # of connection points: 2
#     Edge 227, Type (0, 0), BuildingBlock: OJICUG_clean_linker_0, # of connection points: 2
#     Edge 228, Type (0, 0), BuildingBlock: OJICUG_clean_linker_0, # of connection points: 2
#     Edge 229, Type (0, 0), BuildingBlock: OJICUG_clean_linker_0, # of connection points: 2
#     Edge 230, Type (0, 0), BuildingBlock: OJICUG_clean_linker_0, # of connection points: 2
#     Edge 231, Type (0, 0), BuildingBlock: OJICUG_clean_linker_0, # of connection points: 2
#     Edge 232, Type (0, 0), BuildingBlock: OJICUG_clean_linker_0, # of connection points: 2
#     Edge 233, Type (0, 0), BuildingBlock: OJICUG_clean_linker_0, # of connection points: 2
#     Edge 234, Type (0, 0), BuildingBlock: OJICUG_clean_linker_0, # of connection points: 2
#     Edge 235, Type (0, 0), BuildingBlock: OJICUG_clean_linker_0, # of connection points: 2
#     Edge 236, Type (0, 0), BuildingBlock: OJICUG_clean_linker_0, # of connection points: 2
#     Edge 237, Type (0, 0), BuildingBlock: OJICUG_clean_linker_0, # of connection points: 2
#     Edge 238, Type (0, 0), BuildingBlock: OJICUG_clean_linker_0, # of connection points: 2
#     Edge 239, Type (0, 0), BuildingBlock: OJICUG_clean_linker_0, # of connection points: 2
#     Edge 240, Type (0, 0), BuildingBlock: OJICUG_clean_linker_0, # of connection points: 2
#     Edge 241, Type (0, 0), BuildingBlock: OJICUG_clean_linker_0, # of connection points: 2
#     Edge 242, Type (0, 0), BuildingBlock: OJICUG_clean_linker_0, # of connection points: 2
#     Edge 243, Type (0, 0), BuildingBlock: OJICUG_clean_linker_0, # of connection points: 2
#     Edge 244, Type (0, 0), BuildingBlock: OJICUG_clean_linker_0, # of connection points: 2
#     Edge 245, Type (0, 0), BuildingBlock: OJICUG_clean_linker_0, # of connection points: 2
#     Edge 246, Type (0, 0), BuildingBlock: OJICUG_clean_linker_0, # of connection points: 2
#     Edge 247, Type (0, 0), BuildingBlock: OJICUG_clean_linker_0, # of connection points: 2
#     Edge 248, Type (0, 0), BuildingBlock: OJICUG_clean_linker_0, # of connection points: 2
#     Edge 249, Type (0, 0), BuildingBlock: OJICUG_clean_linker_0, # of connection points: 2
#     Edge 250, Type (0, 0), BuildingBlock: OJICUG_clean_linker_0, # of connection points: 2
#     Edge 251, Type (0, 0), BuildingBlock: OJICUG_clean_linker_0, # of connection points: 2
#     Edge 252, Type (0, 0), BuildingBlock: OJICUG_clean_linker_0, # of connection points: 2
#     Edge 253, Type (0, 0), BuildingBlock: OJICUG_clean_linker_0, # of connection points: 2
#     Edge 254, Type (0, 0), BuildingBlock: OJICUG_clean_linker_0, # of connection points: 2
#     Edge 255, Type (0, 0), BuildingBlock: OJICUG_clean_linker_0, # of connection points: 2
#     Edge 256, Type (0, 0), BuildingBlock: OJICUG_clean_linker_0, # of connection points: 2
#     Edge 257, Type (0, 0), BuildingBlock: OJICUG_clean_linker_0, # of connection points: 2
#     Edge 258, Type (0, 0), BuildingBlock: OJICUG_clean_linker_0, # of connection points: 2
#     Edge 259, Type (0, 0), BuildingBlock: OJICUG_clean_linker_0, # of connection points: 2
#     Edge 260, Type (0, 0), BuildingBlock: OJICUG_clean_linker_0, # of connection points: 2
#     Edge 261, Type (0, 0), BuildingBlock: OJICUG_clean_linker_0, # of connection points: 2
#     Edge 262, Type (0, 0), BuildingBlock: OJICUG_clean_linker_0, # of connection points: 2
#     Edge 263, Type (0, 0), BuildingBlock: OJICUG_clean_linker_0, # of connection points: 2
#     Edge 264, Type (0, 0), BuildingBlock: OJICUG_clean_linker_0, # of connection points: 2
#     Edge 265, Type (0, 0), BuildingBlock: OJICUG_clean_linker_0, # of connection points: 2
#     Edge 266, Type (0, 0), BuildingBlock: OJICUG_clean_linker_0, # of connection points: 2
#     Edge 267, Type (0, 0), BuildingBlock: OJICUG_clean_linker_0, # of connection points: 2
#     Edge 268, Type (0, 0), BuildingBlock: OJICUG_clean_linker_0, # of connection points: 2
#     Edge 269, Type (0, 0), BuildingBlock: OJICUG_clean_linker_0, # of connection points: 2
#     Edge 270, Type (0, 0), BuildingBlock: OJICUG_clean_linker_0, # of connection points: 2
#     Edge 271, Type (0, 0), BuildingBlock: OJICUG_clean_linker_0, # of connection points: 2
#     Edge 272, Type (0, 0), BuildingBlock: OJICUG_clean_linker_0, # of connection points: 2
#     Edge 273, Type (0, 0), BuildingBlock: OJICUG_clean_linker_0, # of connection points: 2
#     Edge 274, Type (0, 0), BuildingBlock: OJICUG_clean_linker_0, # of connection points: 2
#     Edge 275, Type (0, 0), BuildingBlock: OJICUG_clean_linker_0, # of connection points: 2
#     Edge 276, Type (0, 0), BuildingBlock: OJICUG_clean_linker_0, # of connection points: 2
#     Edge 277, Type (0, 0), BuildingBlock: OJICUG_clean_linker_0, # of connection points: 2
#     Edge 278, Type (0, 0), BuildingBlock: OJICUG_clean_linker_0, # of connection points: 2
#     Edge 279, Type (0, 0), BuildingBlock: OJICUG_clean_linker_0, # of connection points: 2
#     Edge 280, Type (0, 0), BuildingBlock: OJICUG_clean_linker_0, # of connection points: 2
#     Edge 281, Type (0, 0), BuildingBlock: OJICUG_clean_linker_0, # of connection points: 2
#     Edge 282, Type (0, 0), BuildingBlock: OJICUG_clean_linker_0, # of connection points: 2
#     Edge 283, Type (0, 0), BuildingBlock: OJICUG_clean_linker_0, # of connection points: 2
#     Edge 284, Type (0, 0), BuildingBlock: OJICUG_clean_linker_0, # of connection points: 2
#     Edge 285, Type (0, 0), BuildingBlock: OJICUG_clean_linker_0, # of connection points: 2
#     Edge 286, Type (0, 0), BuildingBlock: OJICUG_clean_linker_0, # of connection points: 2
#     Edge 287, Type (0, 0), BuildingBlock: OJICUG_clean_linker_0, # of connection points: 2
# Relax obj value: 0.163
# Max RMSD: 0.098
# Mean RMSD: 0.098
data_MOF--net-kfi--node1-CEKHIL_clean_sbu_0--edge1-OJICUG_clean_linker_0
_symmetry_space_group_name_H-M    P1
_symmetry_Int_Tables_number       1
_symmetry_cell_setting            triclinic
loop_
_symmetry_equiv_pos_as_xyz
'x, y, z'
_cell_length_a     63.487705
_cell_length_b     63.495605
_cell_length_c     63.495292
_cell_angle_alpha  89.992846
_cell_angle_beta   89.997622
_cell_angle_gamma 90.00586
loop_
_atom_site_label
_atom_site_type_symbol
_atom_site_fract_x
_atom_site_fract_y
_atom_site_fract_z
_atom_type_partial_charge
Co0 Co 0.08782 0.20256 0.32862 0.0
O1 O 0.06239 0.18747 0.32176 0.0
O2 O 0.06404 0.21396 0.34424 0.0
C3 C 0.10893 0.17367 0.33215 0.0
O4 O 0.11124 0.22157 0.34004 0.0
Co5 Co 0.12686 0.19914 0.29887 0.0
O6 O 0.14066 0.21655 0.32085 0.0
C7 C 0.08964 0.22344 0.2857 0.0
C8 C 0.05255 0.20003 0.33452 0.0
C9 C 0.13083 0.22527 0.33607 0.0
O10 O 0.08232 0.22309 0.30465 0.0
O11 O 0.10562 0.21263 0.27986 0.0
O12 O 0.09706 0.17959 0.34779 0.0
O13 O 0.10613 0.1841 0.31505 0.0
Co14 Co 0.81116 0.08773 0.32858 0.0
O15 O 0.82629 0.06232 0.32173 0.0
O16 O 0.79979 0.06395 0.34422 0.0
C17 C 0.84003 0.10889 0.33208 0.0
O18 O 0.79212 0.11114 0.33997 0.0
Co19 Co 0.81454 0.12674 0.29878 0.0
O20 O 0.79709 0.14053 0.32074 0.0
C21 C 0.79029 0.08948 0.28565 0.0
C22 C 0.81374 0.05248 0.3345 0.0
C23 C 0.78839 0.13071 0.33597 0.0
O24 O 0.79064 0.08218 0.30461 0.0
O25 O 0.80109 0.10546 0.2798 0.0
O26 O 0.83413 0.09702 0.34773 0.0
O27 O 0.8296 0.10605 0.31498 0.0
Co28 Co 0.92614 0.8111 0.32866 0.0
O29 O 0.95159 0.82619 0.32183 0.0
O30 O 0.9499 0.79969 0.34432 0.0
C31 C 0.90503 0.83999 0.33215 0.0
O32 O 0.9027 0.79209 0.34006 0.0
Co33 Co 0.88714 0.81452 0.29887 0.0
O34 O 0.8733 0.79714 0.32085 0.0
C35 C 0.92437 0.79021 0.28575 0.0
C36 C 0.9614 0.81361 0.33461 0.0
C37 C 0.88311 0.78842 0.33608 0.0
O38 O 0.93167 0.79057 0.3047 0.0
O39 O 0.9084 0.80103 0.27989 0.0
O40 O 0.91688 0.83407 0.34781 0.0
O41 O 0.90786 0.82956 0.31506 0.0
Co42 Co 0.20276 0.9259 0.32871 0.0
O43 O 0.18762 0.9513 0.32187 0.0
O44 O 0.21413 0.94968 0.34434 0.0
C45 C 0.17391 0.90473 0.33223 0.0
O46 O 0.22181 0.9025 0.34009 0.0
Co47 Co 0.19939 0.8869 0.29891 0.0
O48 O 0.21684 0.87311 0.32086 0.0
C49 C 0.22363 0.92417 0.28578 0.0
C50 C 0.20018 0.96115 0.33463 0.0
C51 C 0.22554 0.88292 0.33609 0.0
O52 O 0.22327 0.93146 0.30473 0.0
O53 O 0.21283 0.90818 0.27992 0.0
O54 O 0.17981 0.91659 0.34787 0.0
O55 O 0.18432 0.90757 0.31512 0.0
Co56 Co 0.08795 0.81141 0.68531 0.0
O57 O 0.0625 0.82647 0.69217 0.0
O58 O 0.0642 0.79998 0.66967 0.0
C59 C 0.10904 0.84033 0.6818 0.0
O60 O 0.11141 0.79244 0.6739 0.0
Co61 Co 0.12698 0.81488 0.71507 0.0
O62 O 0.14083 0.79755 0.69306 0.0
C63 C 0.08979 0.79051 0.72822 0.0
C64 C 0.05269 0.81389 0.67939 0.0
C65 C 0.13101 0.78881 0.67785 0.0
O66 O 0.08247 0.79087 0.70928 0.0
O67 O 0.10576 0.80134 0.73407 0.0
O68 O 0.09719 0.8344 0.66616 0.0
O69 O 0.10624 0.82989 0.6989 0.0
Co70 Co 0.20266 0.08805 0.6853 0.0
O71 O 0.18757 0.06262 0.69215 0.0
O72 O 0.21408 0.06429 0.66967 0.0
C73 C 0.17377 0.10917 0.68178 0.0
O74 O 0.22168 0.11149 0.67391 0.0
Co75 Co 0.19924 0.12706 0.71508 0.0
O76 O 0.21664 0.14089 0.69311 0.0
C77 C 0.22353 0.08983 0.72823 0.0
C78 C 0.20015 0.05279 0.67938 0.0
C79 C 0.22536 0.13107 0.67788 0.0
O80 O 0.22318 0.08253 0.70928 0.0
O81 O 0.21272 0.10581 0.73408 0.0
O82 O 0.1797 0.09731 0.66614 0.0
O83 O 0.1842 0.10635 0.69889 0.0
Co84 Co 0.926 0.20273 0.68508 0.0
O85 O 0.95143 0.18763 0.69193 0.0
O86 O 0.94977 0.21413 0.66944 0.0
C87 C 0.90487 0.17385 0.68158 0.0
O88 O 0.90256 0.22174 0.6737 0.0
Co89 Co 0.887 0.19932 0.71489 0.0
O90 O 0.87318 0.21673 0.69293 0.0
C91 C 0.92425 0.2236 0.72801 0.0
C92 C 0.96126 0.2002 0.67916 0.0
C93 C 0.88298 0.22544 0.67769 0.0
O94 O 0.93153 0.22325 0.70905 0.0
O95 O 0.90827 0.21278 0.73387 0.0
O96 O 0.91672 0.17976 0.66593 0.0
O97 O 0.90769 0.18427 0.69868 0.0
Co98 Co 0.81129 0.92603 0.68516 0.0
O99 O 0.8264 0.95146 0.69199 0.0
O100 O 0.79989 0.94979 0.66951 0.0
C101 C 0.84018 0.9049 0.68166 0.0
O102 O 0.79227 0.9026 0.67379 0.0
Co103 Co 0.8147 0.88704 0.71498 0.0
O104 O 0.79728 0.87322 0.69303 0.0
C105 C 0.79042 0.92429 0.7281 0.0
C106 C 0.81382 0.96129 0.67922 0.0
C107 C 0.78857 0.88302 0.6778 0.0
O108 O 0.79077 0.93157 0.70914 0.0
O109 O 0.80124 0.90832 0.73396 0.0
O110 O 0.83426 0.91675 0.66601 0.0
O111 O 0.82975 0.90774 0.69877 0.0
Co112 Co 0.32858 0.08794 0.2027 0.0
O113 O 0.32177 0.06251 0.18759 0.0
O114 O 0.34424 0.06419 0.21409 0.0
C115 C 0.33207 0.10909 0.17383 0.0
O116 O 0.33994 0.11136 0.22173 0.0
Co117 Co 0.29874 0.12691 0.19931 0.0
O118 O 0.32068 0.14074 0.21675 0.0
C119 C 0.28564 0.08964 0.22358 0.0
C120 C 0.33454 0.05269 0.20016 0.0
C121 C 0.33592 0.13093 0.22545 0.0
O122 O 0.30461 0.08237 0.22322 0.0
O123 O 0.27977 0.10562 0.21277 0.0
O124 O 0.34773 0.09724 0.17974 0.0
O125 O 0.31497 0.10624 0.18425 0.0
Co126 Co 0.92601 0.3286 0.2026 0.0
O127 O 0.95144 0.32175 0.1875 0.0
O128 O 0.94977 0.34423 0.214 0.0
C129 C 0.90488 0.33211 0.17371 0.0
O130 O 0.90257 0.33999 0.22161 0.0
Co131 Co 0.88699 0.29881 0.19918 0.0
O132 O 0.87317 0.32077 0.2166 0.0
C133 C 0.92422 0.28566 0.22346 0.0
C134 C 0.96127 0.33452 0.20007 0.0
C135 C 0.88299 0.336 0.22531 0.0
O136 O 0.93152 0.30462 0.22312 0.0
O137 O 0.90825 0.27982 0.21264 0.0
O138 O 0.91674 0.34776 0.17963 0.0
O139 O 0.9077 0.31501 0.18414 0.0
Co140 Co 0.68536 0.92588 0.2026 0.0
O141 O 0.69219 0.95131 0.1875 0.0
O142 O 0.6697 0.94963 0.214 0.0
C143 C 0.68186 0.90476 0.1737 0.0
O144 O 0.67397 0.90244 0.22161 0.0
Co145 Co 0.71515 0.88688 0.19918 0.0
O146 O 0.69318 0.87304 0.21658 0.0
C147 C 0.72828 0.9241 0.22348 0.0
C148 C 0.67941 0.96113 0.20007 0.0
C149 C 0.67795 0.88285 0.22529 0.0
O150 O 0.70933 0.93141 0.22312 0.0
O151 O 0.73414 0.90813 0.21267 0.0
O152 O 0.6662 0.91661 0.17963 0.0
O153 O 0.69896 0.90759 0.18414 0.0
Co154 Co 0.08805 0.6851 0.20276 0.0
O155 O 0.06264 0.69193 0.18762 0.0
O156 O 0.06427 0.66944 0.21412 0.0
C157 C 0.10922 0.68162 0.17391 0.0
O158 O 0.11146 0.67372 0.22181 0.0
Co159 Co 0.12704 0.71493 0.19941 0.0
O160 O 0.14083 0.69299 0.21688 0.0
C161 C 0.08974 0.72802 0.22364 0.0
C162 C 0.05279 0.67916 0.20018 0.0
C163 C 0.13102 0.67774 0.22556 0.0
O164 O 0.08247 0.70906 0.22328 0.0
O165 O 0.10573 0.7339 0.21284 0.0
O166 O 0.09737 0.66596 0.1798 0.0
O167 O 0.10637 0.69871 0.18434 0.0
Co168 Co 0.32876 0.92613 0.8113 0.0
O169 O 0.3219 0.95155 0.8264 0.0
O170 O 0.34439 0.94991 0.7999 0.0
C171 C 0.33227 0.90501 0.84019 0.0
O172 O 0.34017 0.90271 0.79229 0.0
Co173 Co 0.29897 0.88712 0.81472 0.0
O174 O 0.32096 0.8733 0.79733 0.0
C175 C 0.28584 0.92434 0.79041 0.0
C176 C 0.33466 0.96139 0.81383 0.0
C177 C 0.33619 0.88312 0.78861 0.0
O178 O 0.30479 0.93165 0.79077 0.0
O179 O 0.27998 0.90837 0.80123 0.0
O180 O 0.34792 0.91687 0.83427 0.0
O181 O 0.31517 0.90782 0.82976 0.0
Co182 Co 0.0879 0.32884 0.81113 0.0
O183 O 0.06248 0.32201 0.82624 0.0
O184 O 0.06413 0.34449 0.79973 0.0
C185 C 0.10905 0.33234 0.84 0.0
O186 O 0.11133 0.34021 0.79209 0.0
Co187 Co 0.12689 0.29902 0.81452 0.0
O188 O 0.1407 0.32095 0.79706 0.0
C189 C 0.08962 0.28591 0.79027 0.0
C190 C 0.05265 0.33477 0.81367 0.0
C191 C 0.1309 0.33619 0.78836 0.0
O192 O 0.08234 0.30487 0.79061 0.0
O193 O 0.10559 0.28004 0.80108 0.0
O194 O 0.0972 0.34799 0.83409 0.0
O195 O 0.10621 0.31524 0.82957 0.0
Co196 Co 0.68526 0.08784 0.81117 0.0
O197 O 0.69212 0.06241 0.82626 0.0
O198 O 0.66962 0.06407 0.79977 0.0
C199 C 0.68177 0.10895 0.84006 0.0
O200 O 0.67386 0.11127 0.79216 0.0
Co201 Co 0.71505 0.12685 0.81457 0.0
O202 O 0.69306 0.14067 0.79719 0.0
C203 C 0.72818 0.08962 0.79027 0.0
C204 C 0.67934 0.05258 0.8137 0.0
C205 C 0.67783 0.13086 0.78848 0.0
O206 O 0.70923 0.08232 0.79063 0.0
O207 O 0.73404 0.1056 0.80108 0.0
O208 O 0.66611 0.09709 0.83415 0.0
O209 O 0.69887 0.10613 0.82962 0.0
Co210 Co 0.92611 0.68523 0.81124 0.0
O211 O 0.95153 0.69212 0.82633 0.0
O212 O 0.9499 0.66961 0.79985 0.0
C213 C 0.90499 0.6817 0.84013 0.0
O214 O 0.90269 0.67379 0.79223 0.0
Co215 Co 0.88706 0.71497 0.81464 0.0
O216 O 0.87326 0.69294 0.79729 0.0
C217 C 0.92429 0.72814 0.79034 0.0
C218 C 0.96138 0.67936 0.81377 0.0
C219 C 0.88309 0.67773 0.78857 0.0
O220 O 0.93161 0.7092 0.7907 0.0
O221 O 0.9083 0.73398 0.80115 0.0
O222 O 0.91686 0.66607 0.83422 0.0
O223 O 0.90779 0.6988 0.82968 0.0
Co224 Co 0.20265 0.32879 0.08782 0.0
O225 O 0.18753 0.32195 0.06241 0.0
O226 O 0.21404 0.34444 0.06405 0.0
C227 C 0.17378 0.33227 0.10898 0.0
O228 O 0.22169 0.34017 0.11124 0.0
Co229 Co 0.19927 0.29897 0.12682 0.0
O230 O 0.21673 0.32092 0.14062 0.0
C231 C 0.22352 0.28586 0.08956 0.0
C232 C 0.2001 0.33472 0.05257 0.0
C233 C 0.22542 0.33616 0.13081 0.0
O234 O 0.22318 0.30482 0.08227 0.0
O235 O 0.2127 0.27999 0.10553 0.0
O236 O 0.17968 0.34793 0.09712 0.0
O237 O 0.18421 0.31518 0.10613 0.0
Co238 Co 0.20277 0.68531 0.92613 0.0
O239 O 0.1877 0.69217 0.95156 0.0
O240 O 0.21418 0.66966 0.94989 0.0
C241 C 0.17386 0.68183 0.90503 0.0
O242 O 0.22176 0.67389 0.90268 0.0
Co243 Co 0.19936 0.71509 0.88711 0.0
O244 O 0.2167 0.69308 0.87328 0.0
C245 C 0.22369 0.72822 0.92432 0.0
C246 C 0.20027 0.67939 0.96138 0.0
C247 C 0.22542 0.67785 0.88309 0.0
O248 O 0.22333 0.70926 0.93163 0.0
O249 O 0.21286 0.73407 0.90835 0.0
O250 O 0.17977 0.66617 0.91688 0.0
O251 O 0.18431 0.69892 0.90784 0.0
Co252 Co 0.32864 0.20276 0.92609 0.0
O253 O 0.32178 0.18767 0.95152 0.0
O254 O 0.34428 0.21416 0.94985 0.0
C255 C 0.33215 0.17386 0.90498 0.0
O256 O 0.34004 0.22176 0.90265 0.0
Co257 Co 0.29886 0.19933 0.88707 0.0
O258 O 0.32085 0.2167 0.87325 0.0
C259 C 0.28571 0.22364 0.92429 0.0
C260 C 0.33455 0.20024 0.96135 0.0
C261 C 0.33608 0.22543 0.88306 0.0
O262 O 0.30467 0.22329 0.9316 0.0
O263 O 0.27986 0.21281 0.90832 0.0
O264 O 0.3478 0.17978 0.91684 0.0
O265 O 0.31504 0.1843 0.9078 0.0
Co266 Co 0.81129 0.32863 0.92592 0.0
O267 O 0.82639 0.32179 0.95134 0.0
O268 O 0.79988 0.34427 0.94969 0.0
C269 C 0.84017 0.33216 0.90478 0.0
O270 O 0.79227 0.34002 0.90249 0.0
Co271 Co 0.81471 0.29885 0.88691 0.0
O272 O 0.79729 0.32082 0.87309 0.0
C273 C 0.79042 0.2857 0.92415 0.0
C274 C 0.81382 0.33455 0.96117 0.0
C275 C 0.78858 0.33604 0.88291 0.0
O276 O 0.79077 0.30466 0.93145 0.0
O277 O 0.80124 0.27985 0.90817 0.0
O278 O 0.83425 0.3478 0.91664 0.0
O279 O 0.82975 0.31505 0.90761 0.0
Co280 Co 0.68529 0.81117 0.92594 0.0
O281 O 0.69215 0.82627 0.95136 0.0
O282 O 0.66965 0.79977 0.94971 0.0
C283 C 0.68179 0.84006 0.90481 0.0
O284 O 0.67389 0.79216 0.90251 0.0
Co285 Co 0.71509 0.81458 0.88693 0.0
O286 O 0.6931 0.79719 0.87311 0.0
C287 C 0.72822 0.79029 0.92416 0.0
C288 C 0.67938 0.8137 0.96119 0.0
C289 C 0.67787 0.78847 0.88292 0.0
O290 O 0.70926 0.79064 0.93146 0.0
O291 O 0.73408 0.8011 0.90819 0.0
O292 O 0.66614 0.83414 0.91667 0.0
O293 O 0.69889 0.82962 0.90763 0.0
Co294 Co 0.81137 0.68513 0.08785 0.0
O295 O 0.82647 0.69197 0.06242 0.0
O296 O 0.79997 0.66948 0.06409 0.0
C297 C 0.84027 0.68162 0.10897 0.0
O298 O 0.79236 0.67373 0.11128 0.0
Co299 Co 0.81479 0.71492 0.12685 0.0
O300 O 0.79737 0.69295 0.14067 0.0
C301 C 0.7905 0.72805 0.08961 0.0
C302 C 0.81389 0.6792 0.05259 0.0
C303 C 0.78866 0.67772 0.13086 0.0
O304 O 0.79085 0.70909 0.08232 0.0
O305 O 0.80132 0.73391 0.10558 0.0
O306 O 0.83435 0.66597 0.09712 0.0
O307 O 0.82983 0.69872 0.10614 0.0
Co308 Co 0.32885 0.81132 0.08794 0.0
O309 O 0.322 0.82641 0.06251 0.0
O310 O 0.3445 0.79992 0.06417 0.0
C311 C 0.33236 0.84021 0.10905 0.0
O312 O 0.34026 0.79231 0.11137 0.0
Co313 Co 0.29907 0.81473 0.12695 0.0
O314 O 0.32106 0.79734 0.14077 0.0
C315 C 0.28593 0.79043 0.08972 0.0
C316 C 0.33477 0.81385 0.05268 0.0
C317 C 0.33628 0.78862 0.13096 0.0
O318 O 0.30488 0.79078 0.08242 0.0
O319 O 0.28008 0.80125 0.1057 0.0
O320 O 0.34801 0.83429 0.0972 0.0
O321 O 0.31526 0.82977 0.10623 0.0
Co322 Co 0.68524 0.20255 0.0878 0.0
O323 O 0.6921 0.18747 0.06237 0.0
O324 O 0.66961 0.21396 0.06403 0.0
C325 C 0.68172 0.17365 0.10891 0.0
O326 O 0.67384 0.22155 0.11123 0.0
Co327 Co 0.71502 0.19912 0.12681 0.0
O328 O 0.69303 0.21649 0.14064 0.0
C329 C 0.72817 0.22344 0.0896 0.0
C330 C 0.67933 0.20004 0.05254 0.0
C331 C 0.6778 0.22522 0.13083 0.0
O332 O 0.70921 0.22308 0.08229 0.0
O333 O 0.73402 0.21262 0.10557 0.0
O334 O 0.66608 0.17957 0.09705 0.0
O335 O 0.69883 0.18409 0.1061 0.0
Co336 Co 0.92606 0.81124 0.68521 0.0
O337 O 0.95147 0.82636 0.69208 0.0
O338 O 0.94986 0.79986 0.66959 0.0
C339 C 0.90492 0.84011 0.68168 0.0
O340 O 0.90266 0.7922 0.6738 0.0
Co341 Co 0.88703 0.81461 0.71497 0.0
O342 O 0.87325 0.79718 0.69301 0.0
C343 C 0.92427 0.79036 0.72813 0.0
C344 C 0.96133 0.8138 0.67932 0.0
C345 C 0.88308 0.78848 0.67778 0.0
O346 O 0.93159 0.79072 0.70919 0.0
O347 O 0.90829 0.80116 0.73398 0.0
O348 O 0.91679 0.8342 0.66605 0.0
O349 O 0.90773 0.82967 0.69879 0.0
Co350 Co 0.20275 0.92619 0.68527 0.0
O351 O 0.18765 0.95161 0.69214 0.0
O352 O 0.21414 0.94997 0.66964 0.0
C353 C 0.17385 0.90507 0.68177 0.0
O354 O 0.22176 0.90277 0.67386 0.0
Co355 Co 0.19933 0.88716 0.71504 0.0
O356 O 0.21674 0.87336 0.69306 0.0
C357 C 0.22363 0.92438 0.72819 0.0
C358 C 0.20021 0.96145 0.67937 0.0
C359 C 0.22545 0.88318 0.67783 0.0
O360 O 0.22328 0.9317 0.70924 0.0
O361 O 0.21281 0.9084 0.73404 0.0
O362 O 0.17976 0.91693 0.66612 0.0
O363 O 0.18429 0.90788 0.69887 0.0
Co364 Co 0.08787 0.20281 0.68519 0.0
O365 O 0.06244 0.1877 0.69201 0.0
O366 O 0.06411 0.2142 0.66952 0.0
C367 C 0.10901 0.17394 0.68171 0.0
O368 O 0.1113 0.22184 0.67381 0.0
Co369 Co 0.12685 0.19943 0.71502 0.0
O370 O 0.14067 0.21687 0.69307 0.0
C371 C 0.08958 0.22369 0.72811 0.0
C372 C 0.05261 0.20026 0.67923 0.0
C373 C 0.13087 0.22556 0.67783 0.0
O374 O 0.0823 0.22333 0.70915 0.0
O375 O 0.10555 0.21288 0.73398 0.0
O376 O 0.09717 0.17985 0.66604 0.0
O377 O 0.10616 0.18437 0.6988 0.0
Co378 Co 0.81125 0.08789 0.68511 0.0
O379 O 0.82636 0.06247 0.69196 0.0
O380 O 0.79986 0.06412 0.66947 0.0
C381 C 0.84013 0.10904 0.6816 0.0
O382 O 0.79222 0.11131 0.67371 0.0
Co383 Co 0.81464 0.1269 0.71489 0.0
O384 O 0.79723 0.14071 0.69291 0.0
C385 C 0.79037 0.08966 0.72803 0.0
C386 C 0.8138 0.05264 0.6792 0.0
C387 C 0.78852 0.13089 0.67768 0.0
O388 O 0.79072 0.08235 0.70908 0.0
O389 O 0.80118 0.10564 0.73388 0.0
O390 O 0.83422 0.09717 0.66595 0.0
O391 O 0.82969 0.10621 0.6987 0.0
Co392 Co 0.92594 0.20255 0.32856 0.0
O393 O 0.95137 0.18744 0.32173 0.0
O394 O 0.9497 0.21395 0.34421 0.0
C395 C 0.9048 0.17367 0.33207 0.0
O396 O 0.90251 0.22157 0.33994 0.0
Co397 Co 0.88694 0.19914 0.29875 0.0
O398 O 0.87312 0.21657 0.3207 0.0
C399 C 0.92419 0.22342 0.28563 0.0
C400 C 0.96119 0.20001 0.33449 0.0
C401 C 0.88293 0.22528 0.33594 0.0
O402 O 0.93148 0.22307 0.30459 0.0
O403 O 0.90822 0.21261 0.27977 0.0
O404 O 0.91665 0.17958 0.34772 0.0
O405 O 0.90763 0.1841 0.31496 0.0
Co406 Co 0.81136 0.92587 0.32863 0.0
O407 O 0.82644 0.95131 0.32178 0.0
O408 O 0.79994 0.94963 0.34427 0.0
C409 C 0.84026 0.90476 0.33213 0.0
O410 O 0.79236 0.90243 0.34003 0.0
Co411 Co 0.81478 0.88686 0.29885 0.0
O412 O 0.79739 0.87303 0.32083 0.0
C413 C 0.79048 0.92408 0.28571 0.0
C414 C 0.81386 0.96113 0.33454 0.0
C415 C 0.78868 0.88284 0.33606 0.0
O416 O 0.79083 0.93138 0.30466 0.0
O417 O 0.8013 0.90811 0.27986 0.0
O418 O 0.83434 0.91661 0.34778 0.0
O419 O 0.82982 0.90758 0.31503 0.0
Co420 Co 0.08802 0.81104 0.32877 0.0
O421 O 0.06261 0.82616 0.32193 0.0
O422 O 0.06424 0.79966 0.34442 0.0
C423 C 0.10918 0.8399 0.33227 0.0
O424 O 0.11143 0.792 0.34016 0.0
Co425 Co 0.12702 0.81442 0.29896 0.0
O426 O 0.14082 0.79696 0.3209 0.0
C427 C 0.08974 0.79018 0.28584 0.0
C428 C 0.05276 0.8136 0.33469 0.0
C429 C 0.13101 0.78826 0.33615 0.0
O430 O 0.08247 0.79052 0.3048 0.0
O431 O 0.10572 0.80099 0.27998 0.0
O432 O 0.09732 0.834 0.34793 0.0
O433 O 0.10634 0.82948 0.31517 0.0
Co434 Co 0.20257 0.08776 0.32872 0.0
O435 O 0.18749 0.06232 0.32187 0.0
O436 O 0.21398 0.064 0.34437 0.0
C437 C 0.17367 0.10887 0.33221 0.0
O438 O 0.22157 0.1112 0.34012 0.0
Co439 Co 0.19915 0.12677 0.29894 0.0
O440 O 0.21653 0.1406 0.32093 0.0
C441 C 0.22346 0.08955 0.2858 0.0
C442 C 0.20006 0.0525 0.33464 0.0
C443 C 0.22525 0.13079 0.33615 0.0
O444 O 0.22311 0.08225 0.30476 0.0
O445 O 0.21263 0.10552 0.27995 0.0
O446 O 0.17958 0.09702 0.34786 0.0
O447 O 0.18411 0.10605 0.31511 0.0
Co448 Co 0.68529 0.92598 0.81118 0.0
O449 O 0.69212 0.95141 0.82628 0.0
O450 O 0.66963 0.94974 0.79978 0.0
C451 C 0.68179 0.90485 0.84006 0.0
O452 O 0.6739 0.90255 0.79216 0.0
Co453 Co 0.7151 0.887 0.81459 0.0
O454 O 0.69313 0.87316 0.79719 0.0
C455 C 0.72822 0.92424 0.7903 0.0
C456 C 0.67935 0.96123 0.81371 0.0
C457 C 0.6779 0.88296 0.78848 0.0
O458 O 0.70926 0.93153 0.79065 0.0
O459 O 0.73408 0.90827 0.80111 0.0
O460 O 0.66613 0.9167 0.83415 0.0
O461 O 0.69889 0.90768 0.82963 0.0
Co462 Co 0.088 0.68537 0.81134 0.0
O463 O 0.06256 0.69222 0.8264 0.0
O464 O 0.06424 0.66972 0.79992 0.0
C465 C 0.10909 0.68186 0.84026 0.0
O466 O 0.11145 0.67395 0.79236 0.0
Co467 Co 0.12703 0.71513 0.81478 0.0
O468 O 0.14087 0.69311 0.79745 0.0
C469 C 0.08983 0.72828 0.79043 0.0
C470 C 0.05274 0.67945 0.81383 0.0
C471 C 0.13106 0.6779 0.78872 0.0
O472 O 0.08251 0.70933 0.7908 0.0
O473 O 0.10581 0.73412 0.80125 0.0
O474 O 0.09724 0.66622 0.83433 0.0
O475 O 0.10629 0.69896 0.82981 0.0
Co476 Co 0.32866 0.08799 0.81133 0.0
O477 O 0.32182 0.06255 0.82641 0.0
O478 O 0.34431 0.06424 0.79992 0.0
C479 C 0.33216 0.1091 0.84023 0.0
O480 O 0.34006 0.11143 0.79233 0.0
Co481 Co 0.29889 0.127 0.81476 0.0
O482 O 0.32087 0.14084 0.79738 0.0
C483 C 0.28574 0.08979 0.79045 0.0
C484 C 0.33459 0.05274 0.81384 0.0
C485 C 0.3361 0.13102 0.78865 0.0
O486 O 0.30469 0.08248 0.7908 0.0
O487 O 0.27989 0.10576 0.80127 0.0
O488 O 0.34782 0.09725 0.83431 0.0
O489 O 0.31506 0.10628 0.82979 0.0
Co490 Co 0.92603 0.32871 0.81108 0.0
O491 O 0.95146 0.3219 0.8262 0.0
O492 O 0.94979 0.34437 0.79968 0.0
C493 C 0.9049 0.33221 0.83997 0.0
O494 O 0.9026 0.34008 0.79206 0.0
Co495 Co 0.88705 0.29889 0.8145 0.0
O496 O 0.87322 0.32082 0.79705 0.0
C497 C 0.9243 0.28578 0.79022 0.0
C498 C 0.96129 0.33467 0.81362 0.0
C499 C 0.88303 0.33606 0.78834 0.0
O500 O 0.93159 0.30474 0.79057 0.0
O501 O 0.90833 0.27992 0.80104 0.0
O502 O 0.91674 0.34787 0.83404 0.0
O503 O 0.90774 0.31511 0.82954 0.0
Co504 Co 0.68517 0.08773 0.20255 0.0
O505 O 0.69204 0.06232 0.18745 0.0
O506 O 0.66953 0.06395 0.21394 0.0
C507 C 0.68168 0.10886 0.17366 0.0
O508 O 0.67375 0.11115 0.22156 0.0
Co509 Co 0.71496 0.12675 0.19917 0.0
O510 O 0.69296 0.14056 0.21654 0.0
C511 C 0.72808 0.08951 0.22345 0.0
C512 C 0.67927 0.05247 0.20002 0.0
C513 C 0.67772 0.13074 0.22524 0.0
O514 O 0.70913 0.08221 0.22309 0.0
O515 O 0.73395 0.10549 0.21264 0.0
O516 O 0.66603 0.097 0.17957 0.0
O517 O 0.69878 0.10604 0.18411 0.0
Co518 Co 0.92617 0.68512 0.20262 0.0
O519 O 0.95162 0.69196 0.18753 0.0
O520 O 0.94993 0.66947 0.21403 0.0
C521 C 0.90506 0.68163 0.17372 0.0
O522 O 0.90273 0.67372 0.22161 0.0
Co523 Co 0.88717 0.71491 0.19919 0.0
O524 O 0.87333 0.69293 0.21656 0.0
C525 C 0.92439 0.72803 0.22352 0.0
C526 C 0.96143 0.67919 0.20011 0.0
C527 C 0.88313 0.6777 0.22528 0.0
O528 O 0.9317 0.70908 0.22315 0.0
O529 O 0.90842 0.73389 0.2127 0.0
O530 O 0.91691 0.66597 0.17964 0.0
O531 O 0.90789 0.69872 0.18415 0.0
Co532 Co 0.32878 0.92608 0.2027 0.0
O533 O 0.3219 0.9515 0.1876 0.0
O534 O 0.3444 0.94987 0.2141 0.0
C535 C 0.33231 0.90497 0.17381 0.0
O536 O 0.3402 0.90266 0.22171 0.0
Co537 Co 0.29903 0.88704 0.19928 0.0
O538 O 0.32103 0.87324 0.21666 0.0
C539 C 0.28585 0.92425 0.22357 0.0
C540 C 0.33466 0.96134 0.20017 0.0
C541 C 0.33624 0.88306 0.22539 0.0
O542 O 0.3048 0.93157 0.22323 0.0
O543 O 0.28001 0.90828 0.21275 0.0
O544 O 0.34795 0.91684 0.17973 0.0
O545 O 0.31521 0.90777 0.18425 0.0
Co546 Co 0.08789 0.32862 0.20264 0.0
O547 O 0.06247 0.32177 0.18753 0.0
O548 O 0.06411 0.34424 0.21405 0.0
C549 C 0.10902 0.33217 0.17377 0.0
O550 O 0.11131 0.34001 0.22167 0.0
Co551 Co 0.12691 0.29885 0.19922 0.0
O552 O 0.14071 0.32081 0.21666 0.0
C553 C 0.08967 0.28568 0.2235 0.0
C554 C 0.05262 0.33453 0.20011 0.0
C555 C 0.13089 0.33603 0.22537 0.0
O556 O 0.08236 0.30463 0.22315 0.0
O557 O 0.10566 0.27984 0.21268 0.0
O558 O 0.09715 0.3478 0.17969 0.0
O559 O 0.1062 0.31506 0.18418 0.0
Co560 Co 0.81129 0.68515 0.92599 0.0
O561 O 0.8264 0.69201 0.95141 0.0
O562 O 0.7999 0.66951 0.94976 0.0
C563 C 0.84018 0.68165 0.90486 0.0
O564 O 0.79227 0.67375 0.90256 0.0
Co565 Co 0.8147 0.71494 0.88697 0.0
O566 O 0.79729 0.69296 0.87316 0.0
C567 C 0.79041 0.72807 0.92421 0.0
C568 C 0.81383 0.67923 0.96124 0.0
C569 C 0.78858 0.67773 0.88298 0.0
O570 O 0.79076 0.70912 0.93151 0.0
O571 O 0.80123 0.73393 0.90823 0.0
O572 O 0.83427 0.666 0.91672 0.0
O573 O 0.82974 0.69875 0.90768 0.0
Co574 Co 0.81126 0.32859 0.08778 0.0
O575 O 0.82636 0.32174 0.06236 0.0
O576 O 0.79986 0.34423 0.06401 0.0
C577 C 0.84015 0.3321 0.10891 0.0
O578 O 0.79224 0.33998 0.11121 0.0
Co579 Co 0.81467 0.29881 0.1268 0.0
O580 O 0.79728 0.32079 0.14061 0.0
C581 C 0.79038 0.28566 0.08957 0.0
C582 C 0.81379 0.33451 0.05252 0.0
C583 C 0.78856 0.33601 0.1308 0.0
O584 O 0.79073 0.30461 0.08226 0.0
O585 O 0.80119 0.27981 0.10555 0.0
O586 O 0.83423 0.34775 0.09705 0.0
O587 O 0.82971 0.315 0.10608 0.0
Co588 Co 0.68538 0.81115 0.08779 0.0
O589 O 0.69222 0.82624 0.06236 0.0
O590 O 0.66973 0.79974 0.06404 0.0
C591 C 0.68188 0.84004 0.10891 0.0
O592 O 0.674 0.79214 0.11123 0.0
Co593 Co 0.71519 0.81458 0.12679 0.0
O594 O 0.69321 0.79719 0.14063 0.0
C595 C 0.72831 0.79027 0.08956 0.0
C596 C 0.67945 0.81367 0.05254 0.0
C597 C 0.67798 0.78846 0.13082 0.0
O598 O 0.70936 0.79062 0.08227 0.0
O599 O 0.73417 0.80109 0.10553 0.0
O600 O 0.66623 0.83412 0.09706 0.0
O601 O 0.69898 0.82961 0.10608 0.0
Co602 Co 0.20287 0.68527 0.08799 0.0
O603 O 0.18775 0.69212 0.06258 0.0
O604 O 0.21427 0.66965 0.06421 0.0
C605 C 0.174 0.68173 0.10914 0.0
O606 O 0.2219 0.67388 0.11141 0.0
Co607 Co 0.19946 0.71505 0.127 0.0
O608 O 0.2169 0.6931 0.1408 0.0
C609 C 0.22373 0.72821 0.08976 0.0
C610 C 0.20032 0.67936 0.05273 0.0
C611 C 0.22561 0.67788 0.13099 0.0
O612 O 0.22338 0.70926 0.08246 0.0
O613 O 0.21291 0.73406 0.10573 0.0
O614 O 0.17992 0.66609 0.09727 0.0
O615 O 0.18441 0.69884 0.10631 0.0
Co616 Co 0.32863 0.20277 0.08794 0.0
O617 O 0.32179 0.18766 0.06252 0.0
O618 O 0.34429 0.21415 0.06418 0.0
C619 C 0.33211 0.1739 0.1091 0.0
O620 O 0.34001 0.2218 0.11136 0.0
Co621 Co 0.2988 0.19941 0.12692 0.0
O622 O 0.32075 0.21685 0.14073 0.0
C623 C 0.28571 0.22366 0.08965 0.0
C624 C 0.33457 0.20022 0.05269 0.0
C625 C 0.336 0.22553 0.13093 0.0
O626 O 0.30467 0.2233 0.08237 0.0
O627 O 0.27983 0.21286 0.10563 0.0
O628 O 0.34777 0.1798 0.09724 0.0
O629 O 0.31501 0.18434 0.10625 0.0
Co630 Co 0.20265 0.32878 0.92597 0.0
O631 O 0.18752 0.32195 0.95139 0.0
O632 O 0.21404 0.34442 0.94973 0.0
C633 C 0.17378 0.3323 0.90481 0.0
O634 O 0.22169 0.34015 0.90255 0.0
Co635 Co 0.19925 0.29897 0.88698 0.0
O636 O 0.2167 0.32091 0.87317 0.0
C637 C 0.22351 0.28584 0.92424 0.0
C638 C 0.2001 0.33472 0.96122 0.0
C639 C 0.22541 0.33614 0.88297 0.0
O640 O 0.22315 0.3048 0.93152 0.0
O641 O 0.2127 0.27998 0.90826 0.0
O642 O 0.1797 0.34794 0.91667 0.0
O643 O 0.1842 0.31519 0.90766 0.0
Co644 Co 0.68528 0.2026 0.92594 0.0
O645 O 0.69214 0.1875 0.95136 0.0
O646 O 0.66964 0.214 0.9497 0.0
C647 C 0.68178 0.17371 0.90482 0.0
O648 O 0.67388 0.22161 0.90251 0.0
Co649 Co 0.71507 0.19919 0.88692 0.0
O650 O 0.69308 0.21657 0.8731 0.0
C651 C 0.72821 0.22349 0.92415 0.0
C652 C 0.67936 0.20007 0.96119 0.0
C653 C 0.67785 0.22529 0.88292 0.0
O654 O 0.70926 0.22313 0.93146 0.0
O655 O 0.73406 0.21267 0.90818 0.0
O656 O 0.66613 0.17962 0.91668 0.0
O657 O 0.69888 0.18415 0.90764 0.0
Co658 Co 0.32881 0.81134 0.92608 0.0
O659 O 0.32197 0.82643 0.95151 0.0
O660 O 0.34447 0.79994 0.94984 0.0
C661 C 0.3323 0.84023 0.90496 0.0
O662 O 0.3402 0.79234 0.90264 0.0
Co663 Co 0.299 0.81476 0.88709 0.0
O664 O 0.32098 0.79738 0.87325 0.0
C665 C 0.28589 0.79044 0.92432 0.0
C666 C 0.33475 0.81386 0.96133 0.0
C667 C 0.33621 0.78866 0.88305 0.0
O668 O 0.30485 0.7908 0.93161 0.0
O669 O 0.28002 0.80126 0.90835 0.0
O670 O 0.34796 0.83432 0.9168 0.0
O671 O 0.3152 0.82979 0.90779 0.0
Co672 Co 0.58793 0.70261 0.82864 0.0
O673 O 0.56249 0.68751 0.82181 0.0
O674 O 0.56417 0.71401 0.8443 0.0
C675 C 0.60906 0.67372 0.83214 0.0
O676 O 0.61137 0.72162 0.84002 0.0
Co677 Co 0.62693 0.6992 0.79884 0.0
O678 O 0.64076 0.71662 0.82078 0.0
C679 C 0.58969 0.72348 0.78572 0.0
C680 C 0.55267 0.70009 0.83458 0.0
C681 C 0.63095 0.72533 0.83602 0.0
O682 O 0.5824 0.72313 0.80467 0.0
O683 O 0.60566 0.71267 0.77985 0.0
O684 O 0.59721 0.67964 0.8478 0.0
O685 O 0.60623 0.68415 0.81504 0.0
Co686 Co 0.31128 0.58791 0.82877 0.0
O687 O 0.3264 0.5625 0.82192 0.0
O688 O 0.29989 0.56413 0.84441 0.0
C689 C 0.34015 0.60907 0.83227 0.0
O690 O 0.29224 0.61133 0.84016 0.0
Co691 Co 0.31467 0.62691 0.79896 0.0
O692 O 0.29722 0.64071 0.82091 0.0
C693 C 0.29042 0.58965 0.78583 0.0
C694 C 0.31383 0.55266 0.83468 0.0
C695 C 0.28852 0.6309 0.83615 0.0
O696 O 0.29076 0.58237 0.80479 0.0
O697 O 0.30124 0.60563 0.77997 0.0
O698 O 0.33424 0.5972 0.84792 0.0
O699 O 0.32972 0.60623 0.81517 0.0
Co700 Co 0.42605 0.31125 0.8287 0.0
O701 O 0.45148 0.32635 0.82185 0.0
O702 O 0.44981 0.29985 0.84435 0.0
C703 C 0.40492 0.34014 0.8322 0.0
O704 O 0.40261 0.29224 0.8401 0.0
Co705 Co 0.38704 0.31465 0.7989 0.0
O706 O 0.37322 0.29723 0.82087 0.0
C707 C 0.42429 0.29038 0.78578 0.0
C708 C 0.46131 0.31377 0.83462 0.0
C709 C 0.38303 0.28853 0.83611 0.0
O710 O 0.43158 0.29072 0.80474 0.0
O711 O 0.40832 0.30119 0.77992 0.0
O712 O 0.41677 0.33422 0.84785 0.0
O713 O 0.40775 0.3297 0.8151 0.0
Co714 Co 0.70271 0.42596 0.82858 0.0
O715 O 0.68761 0.45138 0.82174 0.0
O716 O 0.71411 0.44972 0.84422 0.0
C717 C 0.67382 0.40483 0.8321 0.0
O718 O 0.72173 0.40253 0.83997 0.0
Co719 Co 0.69929 0.38695 0.7988 0.0
O720 O 0.71671 0.37313 0.82077 0.0
C721 C 0.72358 0.42419 0.78565 0.0
C722 C 0.70018 0.46121 0.83451 0.0
C723 C 0.72542 0.38295 0.83599 0.0
O724 O 0.72323 0.43149 0.80461 0.0
O725 O 0.71276 0.40821 0.7798 0.0
O726 O 0.67974 0.41668 0.84775 0.0
O727 O 0.68425 0.40765 0.81499 0.0
Co728 Co 0.58792 0.31112 0.18515 0.0
O729 O 0.56251 0.32624 0.192 0.0
O730 O 0.56413 0.29974 0.16952 0.0
C731 C 0.60907 0.33999 0.18163 0.0
O732 O 0.61133 0.29209 0.17375 0.0
Co733 Co 0.62693 0.3145 0.21494 0.0
O734 O 0.64072 0.29706 0.19298 0.0
C735 C 0.58967 0.29024 0.22807 0.0
C736 C 0.55266 0.31368 0.17924 0.0
C737 C 0.6309 0.28836 0.17775 0.0
O738 O 0.58237 0.2906 0.20912 0.0
O739 O 0.60565 0.30104 0.23393 0.0
O740 O 0.59721 0.33408 0.16599 0.0
O741 O 0.60624 0.32956 0.19874 0.0
Co742 Co 0.70277 0.58779 0.18518 0.0
O743 O 0.68766 0.56237 0.19202 0.0
O744 O 0.71416 0.56403 0.16953 0.0
C745 C 0.6739 0.60893 0.18168 0.0
O746 O 0.7218 0.61122 0.17379 0.0
Co747 Co 0.69938 0.62679 0.21498 0.0
O748 O 0.71679 0.64061 0.19301 0.0
C749 C 0.72365 0.58954 0.2281 0.0
C750 C 0.70022 0.55254 0.17924 0.0
C751 C 0.7255 0.6308 0.17778 0.0
O752 O 0.7233 0.58225 0.20915 0.0
O753 O 0.71284 0.60552 0.23396 0.0
O754 O 0.67981 0.59708 0.16603 0.0
O755 O 0.68433 0.6061 0.19878 0.0
Co756 Co 0.42617 0.70271 0.18527 0.0
O757 O 0.4516 0.6876 0.19211 0.0
O758 O 0.44995 0.7141 0.16961 0.0
C759 C 0.40503 0.67383 0.18178 0.0
O760 O 0.40275 0.72174 0.17387 0.0
Co761 Co 0.38717 0.69933 0.21507 0.0
O762 O 0.37336 0.71676 0.19311 0.0
C763 C 0.42443 0.7236 0.22818 0.0
C764 C 0.46143 0.70016 0.17933 0.0
C765 C 0.38318 0.72546 0.17787 0.0
O766 O 0.43172 0.72324 0.20923 0.0
O767 O 0.40845 0.71279 0.23405 0.0
O768 O 0.41689 0.67974 0.16612 0.0
O769 O 0.40786 0.68427 0.19887 0.0
Co770 Co 0.31129 0.42604 0.18522 0.0
O771 O 0.32639 0.45146 0.1921 0.0
O772 O 0.2999 0.44983 0.16959 0.0
C773 C 0.34019 0.40493 0.18171 0.0
O774 O 0.29228 0.40262 0.17379 0.0
Co775 Co 0.31469 0.387 0.21496 0.0
O776 O 0.29732 0.3732 0.19295 0.0
C777 C 0.29039 0.42422 0.22813 0.0
C778 C 0.31383 0.46131 0.17933 0.0
C779 C 0.2886 0.38303 0.17773 0.0
O780 O 0.29075 0.43154 0.20918 0.0
O781 O 0.3012 0.40823 0.23397 0.0
O782 O 0.33428 0.4168 0.16607 0.0
O783 O 0.32973 0.40773 0.19881 0.0
Co784 Co 0.82877 0.58782 0.70267 0.0
O785 O 0.8219 0.56241 0.68755 0.0
O786 O 0.84439 0.56402 0.71405 0.0
C787 C 0.83229 0.60897 0.67381 0.0
O788 O 0.84017 0.61122 0.72171 0.0
Co789 Co 0.79899 0.62683 0.69928 0.0
O790 O 0.82094 0.64062 0.71673 0.0
C791 C 0.78583 0.58958 0.72354 0.0
C792 C 0.83467 0.55256 0.70011 0.0
C793 C 0.83618 0.6308 0.72544 0.0
O794 O 0.80479 0.58228 0.72319 0.0
O795 O 0.77998 0.60556 0.71273 0.0
O796 O 0.84794 0.5971 0.67971 0.0
O797 O 0.81519 0.60614 0.68423 0.0
Co798 Co 0.42608 0.82876 0.70273 0.0
O799 O 0.4515 0.8219 0.68761 0.0
O800 O 0.44988 0.84438 0.71411 0.0
C801 C 0.40495 0.8323 0.67385 0.0
O802 O 0.40267 0.84017 0.72176 0.0
Co803 Co 0.38705 0.799 0.69933 0.0
O804 O 0.37326 0.82097 0.71676 0.0
C805 C 0.42429 0.78583 0.72359 0.0
C806 C 0.46135 0.83465 0.70017 0.0
C807 C 0.38309 0.83619 0.72547 0.0
O808 O 0.4316 0.80478 0.72324 0.0
O809 O 0.40831 0.77999 0.71278 0.0
O810 O 0.41682 0.84793 0.67977 0.0
O811 O 0.40776 0.81519 0.68428 0.0
Co812 Co 0.18531 0.42614 0.70258 0.0
O813 O 0.19216 0.45159 0.68751 0.0
O814 O 0.16966 0.4499 0.714 0.0
C815 C 0.1818 0.40505 0.67367 0.0
O816 O 0.17389 0.4027 0.72157 0.0
Co817 Co 0.21508 0.38713 0.69915 0.0
O818 O 0.19307 0.37329 0.7165 0.0
C819 C 0.22822 0.42433 0.72349 0.0
C820 C 0.17939 0.4614 0.70009 0.0
C821 C 0.17785 0.3831 0.72523 0.0
O822 O 0.20927 0.43164 0.72312 0.0
O823 O 0.23407 0.40836 0.71267 0.0
O824 O 0.16615 0.4169 0.6796 0.0
O825 O 0.19891 0.40786 0.68411 0.0
Co826 Co 0.58788 0.18517 0.70263 0.0
O827 O 0.56245 0.19201 0.68753 0.0
O828 O 0.56411 0.16953 0.71404 0.0
C829 C 0.60901 0.18165 0.67374 0.0
O830 O 0.61131 0.17377 0.72165 0.0
Co831 Co 0.62689 0.21495 0.6992 0.0
O832 O 0.64071 0.193 0.71664 0.0
C833 C 0.58966 0.22809 0.72349 0.0
C834 C 0.55262 0.17925 0.70011 0.0
C835 C 0.63089 0.17777 0.72535 0.0
O836 O 0.58236 0.20914 0.72315 0.0
O837 O 0.60563 0.23395 0.71267 0.0
O838 O 0.59715 0.166 0.67967 0.0
O839 O 0.60619 0.19875 0.68417 0.0
Co840 Co 0.82868 0.42594 0.31114 0.0
O841 O 0.82184 0.45137 0.32625 0.0
O842 O 0.84435 0.4497 0.29976 0.0
C843 C 0.83215 0.4048 0.34002 0.0
O844 O 0.84006 0.40251 0.29213 0.0
Co845 Co 0.79885 0.38696 0.31453 0.0
O846 O 0.82083 0.37313 0.29715 0.0
C847 C 0.78576 0.42421 0.29025 0.0
C848 C 0.83463 0.46119 0.31369 0.0
C849 C 0.83607 0.38293 0.28844 0.0
O850 O 0.80472 0.4315 0.29061 0.0
O851 O 0.77989 0.40824 0.30106 0.0
O852 O 0.84782 0.41665 0.33412 0.0
O853 O 0.81506 0.40765 0.32958 0.0
Co854 Co 0.58804 0.82859 0.31122 0.0
O855 O 0.56261 0.82176 0.32633 0.0
O856 O 0.56428 0.84424 0.29983 0.0
C857 C 0.60918 0.83208 0.3401 0.0
O858 O 0.61147 0.83996 0.2922 0.0
Co859 Co 0.62704 0.79878 0.31463 0.0
O860 O 0.64086 0.82072 0.29719 0.0
C861 C 0.58979 0.78566 0.29035 0.0
C862 C 0.55279 0.83453 0.31377 0.0
C863 C 0.63105 0.83596 0.28848 0.0
O864 O 0.5825 0.80462 0.29071 0.0
O865 O 0.60576 0.7798 0.30117 0.0
O866 O 0.59733 0.84774 0.33419 0.0
O867 O 0.60634 0.81498 0.32967 0.0
Co868 Co 0.18537 0.5878 0.31137 0.0
O869 O 0.19222 0.56235 0.32644 0.0
O870 O 0.16972 0.56405 0.29995 0.0
C871 C 0.18188 0.60888 0.34029 0.0
O872 O 0.17397 0.61125 0.29239 0.0
Co873 Co 0.21515 0.62682 0.31482 0.0
O874 O 0.19315 0.64066 0.29746 0.0
C875 C 0.22829 0.58962 0.29047 0.0
C876 C 0.17945 0.55254 0.31386 0.0
C877 C 0.17793 0.63085 0.28873 0.0
O878 O 0.20934 0.58231 0.29083 0.0
O879 O 0.23414 0.60559 0.3013 0.0
O880 O 0.16623 0.59704 0.33437 0.0
O881 O 0.19898 0.60608 0.32985 0.0
Co882 Co 0.4259 0.18521 0.31125 0.0
O883 O 0.45135 0.19202 0.32633 0.0
O884 O 0.44965 0.16956 0.29982 0.0
C885 C 0.40479 0.18169 0.34015 0.0
O886 O 0.40245 0.17384 0.29225 0.0
Co887 Co 0.38691 0.21501 0.31471 0.0
O888 O 0.37306 0.19305 0.29732 0.0
C889 C 0.42414 0.22814 0.29039 0.0
C890 C 0.46116 0.17926 0.31374 0.0
C891 C 0.38286 0.17783 0.28858 0.0
O892 O 0.43143 0.20919 0.29073 0.0
O893 O 0.40817 0.234 0.30122 0.0
O894 O 0.41664 0.16604 0.33421 0.0
O895 O 0.40762 0.1988 0.32973 0.0
Co896 Co 0.70277 0.82859 0.58788 0.0
O897 O 0.68768 0.82173 0.56245 0.0
O898 O 0.71418 0.84423 0.56411 0.0
C899 C 0.67388 0.8321 0.609 0.0
O900 O 0.72178 0.84 0.61131 0.0
Co901 Co 0.69936 0.79882 0.6269 0.0
O902 O 0.71674 0.82082 0.64072 0.0
C903 C 0.72366 0.78568 0.58968 0.0
C904 C 0.70025 0.8345 0.55262 0.0
C905 C 0.72545 0.83604 0.6309 0.0
O906 O 0.72331 0.80463 0.58237 0.0
O907 O 0.71285 0.77982 0.60566 0.0
O908 O 0.67979 0.84774 0.59713 0.0
O909 O 0.68431 0.815 0.60618 0.0
Co910 Co 0.70255 0.18505 0.4259 0.0
O911 O 0.68745 0.19191 0.45133 0.0
O912 O 0.71395 0.16942 0.44968 0.0
C913 C 0.67365 0.18153 0.40479 0.0
O914 O 0.72156 0.17364 0.40248 0.0
Co915 Co 0.69912 0.21481 0.38688 0.0
O916 O 0.7165 0.19282 0.37306 0.0
C917 C 0.72343 0.22797 0.42409 0.0
C918 C 0.70003 0.17915 0.46117 0.0
C919 C 0.72523 0.1776 0.38288 0.0
O920 O 0.72308 0.20902 0.43141 0.0
O921 O 0.7126 0.23382 0.40812 0.0
O922 O 0.67957 0.16589 0.41665 0.0
O923 O 0.68409 0.19863 0.4076 0.0
Co924 Co 0.82881 0.70253 0.426 0.0
O925 O 0.82197 0.68741 0.45143 0.0
O926 O 0.84446 0.71392 0.44977 0.0
C927 C 0.83231 0.67365 0.40486 0.0
O928 O 0.84019 0.72156 0.40258 0.0
Co929 Co 0.79899 0.69913 0.38701 0.0
O930 O 0.82094 0.71658 0.3732 0.0
C931 C 0.78587 0.72339 0.42427 0.0
C932 C 0.83474 0.69999 0.46126 0.0
C933 C 0.83618 0.72528 0.383 0.0
O934 O 0.80483 0.72304 0.43155 0.0
O935 O 0.78001 0.71258 0.40829 0.0
O936 O 0.84796 0.67957 0.41671 0.0
O937 O 0.8152 0.68408 0.4077 0.0
Co938 Co 0.31138 0.82864 0.42605 0.0
O939 O 0.32647 0.82182 0.45149 0.0
O940 O 0.29996 0.84429 0.4498 0.0
C941 C 0.34028 0.83216 0.40493 0.0
O942 O 0.29237 0.84002 0.40261 0.0
Co943 Co 0.31482 0.79885 0.38706 0.0
O944 O 0.29744 0.82082 0.37321 0.0
C945 C 0.29051 0.78571 0.42428 0.0
C946 C 0.3139 0.83459 0.4613 0.0
C947 C 0.28871 0.83605 0.38302 0.0
O948 O 0.29086 0.80466 0.43158 0.0
O949 O 0.30133 0.77986 0.40831 0.0
O950 O 0.33435 0.84781 0.41678 0.0
O951 O 0.32985 0.81505 0.40776 0.0
Co952 Co 0.18515 0.31114 0.426 0.0
O953 O 0.19201 0.32626 0.4514 0.0
O954 O 0.1695 0.29977 0.44978 0.0
C955 C 0.18166 0.34001 0.40485 0.0
O956 O 0.17375 0.29211 0.40259 0.0
Co957 Co 0.21496 0.31451 0.387 0.0
O958 O 0.19297 0.29711 0.37319 0.0
C959 C 0.22807 0.29025 0.42426 0.0
C960 C 0.17924 0.31371 0.46125 0.0
C961 C 0.17774 0.28841 0.383 0.0
O962 O 0.20911 0.29061 0.43155 0.0
O963 O 0.23394 0.30105 0.40828 0.0
O964 O 0.16601 0.33411 0.41671 0.0
O965 O 0.19876 0.32957 0.40768 0.0
Co966 Co 0.31123 0.18531 0.58791 0.0
O967 O 0.32633 0.19211 0.56247 0.0
O968 O 0.29981 0.16964 0.56417 0.0
C969 C 0.34012 0.1818 0.60904 0.0
O970 O 0.29221 0.17395 0.61136 0.0
Co971 Co 0.31467 0.21513 0.62689 0.0
O972 O 0.29723 0.19319 0.64073 0.0
C973 C 0.29037 0.22824 0.58965 0.0
C974 C 0.31374 0.17934 0.55267 0.0
C975 C 0.28851 0.17796 0.63094 0.0
O976 O 0.29072 0.20928 0.58237 0.0
O977 O 0.3012 0.23411 0.60562 0.0
O978 O 0.33419 0.16614 0.5972 0.0
O979 O 0.3297 0.19891 0.6062 0.0
Co980 Co 0.82858 0.3112 0.58772 0.0
O981 O 0.82173 0.32628 0.56228 0.0
O982 O 0.84423 0.29979 0.56396 0.0
C983 C 0.83209 0.3401 0.60883 0.0
O984 O 0.83999 0.2922 0.61116 0.0
Co985 Co 0.79879 0.31462 0.62673 0.0
O986 O 0.82078 0.29725 0.64056 0.0
C987 C 0.78566 0.2903 0.58951 0.0
C988 C 0.8345 0.3137 0.55246 0.0
C989 C 0.83602 0.28853 0.63075 0.0
O990 O 0.80462 0.29066 0.58221 0.0
O991 O 0.7798 0.30112 0.60548 0.0
O992 O 0.84774 0.33418 0.59697 0.0
O993 O 0.81499 0.32966 0.60601 0.0
Co994 Co 0.18531 0.70283 0.58801 0.0
O995 O 0.19217 0.68768 0.56262 0.0
O996 O 0.16968 0.71419 0.56422 0.0
C997 C 0.18179 0.67399 0.6092 0.0
O998 O 0.17392 0.7219 0.6114 0.0
Co999 Co 0.21512 0.69949 0.62702 0.0
O1000 O 0.19318 0.71697 0.64079 0.0
C1001 C 0.22825 0.7237 0.58973 0.0
C1002 C 0.1794 0.70023 0.55276 0.0
C1003 C 0.17794 0.72565 0.63097 0.0
O1004 O 0.20929 0.72334 0.58245 0.0
O1005 O 0.23411 0.7129 0.60572 0.0
O1006 O 0.16615 0.67988 0.59732 0.0
O1007 O 0.1989 0.68441 0.60635 0.0
Co1008 Co 0.42604 0.31126 0.18526 0.0
O1009 O 0.45149 0.32632 0.1921 0.0
O1010 O 0.44979 0.29982 0.16962 0.0
C1011 C 0.40496 0.34017 0.18175 0.0
O1012 O 0.40258 0.29228 0.17387 0.0
Co1013 Co 0.38703 0.31473 0.21504 0.0
O1014 O 0.37317 0.29737 0.19305 0.0
C1015 C 0.42422 0.29038 0.22819 0.0
C1016 C 0.4613 0.31374 0.17933 0.0
C1017 C 0.38298 0.28863 0.17784 0.0
O1018 O 0.43153 0.29072 0.20924 0.0
O1019 O 0.40826 0.30121 0.23404 0.0
O1020 O 0.4168 0.33424 0.1661 0.0
O1021 O 0.40776 0.32974 0.19885 0.0
Co1022 Co 0.7027 0.42594 0.18511 0.0
O1023 O 0.68759 0.45136 0.19195 0.0
O1024 O 0.71409 0.44971 0.16946 0.0
C1025 C 0.67382 0.40479 0.18161 0.0
O1026 O 0.72172 0.40251 0.17372 0.0
Co1027 Co 0.69931 0.38694 0.21492 0.0
O1028 O 0.71672 0.37313 0.19296 0.0
C1029 C 0.72358 0.42419 0.22803 0.0
C1030 C 0.70016 0.46119 0.17918 0.0
C1031 C 0.72543 0.38294 0.17772 0.0
O1032 O 0.72323 0.43148 0.20907 0.0
O1033 O 0.71276 0.40822 0.2339 0.0
O1034 O 0.67973 0.41665 0.16596 0.0
O1035 O 0.68425 0.40763 0.19871 0.0
Co1036 Co 0.58805 0.70263 0.1852 0.0
O1037 O 0.56262 0.68753 0.19205 0.0
O1038 O 0.56428 0.71403 0.16956 0.0
C1039 C 0.60917 0.67374 0.18169 0.0
O1040 O 0.61148 0.72164 0.1738 0.0
Co1041 Co 0.62706 0.69922 0.21498 0.0
O1042 O 0.64088 0.71664 0.19302 0.0
C1043 C 0.58982 0.72349 0.22812 0.0
C1044 C 0.55279 0.7001 0.17928 0.0
C1045 C 0.63106 0.72535 0.17778 0.0
O1046 O 0.58252 0.72315 0.20917 0.0
O1047 O 0.60579 0.71268 0.23398 0.0
O1048 O 0.59731 0.67966 0.16604 0.0
O1049 O 0.60635 0.68417 0.19879 0.0
Co1050 Co 0.31139 0.58791 0.18533 0.0
O1051 O 0.32648 0.56247 0.19217 0.0
O1052 O 0.29997 0.56416 0.16969 0.0
C1053 C 0.34029 0.60902 0.18183 0.0
O1054 O 0.2924 0.61135 0.17394 0.0
Co1055 Co 0.31483 0.62691 0.21513 0.0
O1056 O 0.29746 0.64075 0.19314 0.0
C1057 C 0.29051 0.58969 0.22826 0.0
C1058 C 0.3139 0.55266 0.1794 0.0
C1059 C 0.28873 0.63094 0.17791 0.0
O1060 O 0.29086 0.58239 0.2093 0.0
O1061 O 0.30133 0.60566 0.23411 0.0
O1062 O 0.33437 0.59717 0.16618 0.0
O1063 O 0.32986 0.6062 0.19893 0.0
Co1064 Co 0.42606 0.70273 0.82871 0.0
O1065 O 0.45147 0.6876 0.82186 0.0
O1066 O 0.44985 0.71411 0.84434 0.0
C1067 C 0.4049 0.67386 0.83224 0.0
O1068 O 0.40265 0.72177 0.84011 0.0
Co1069 Co 0.38703 0.69935 0.79894 0.0
O1070 O 0.37325 0.71679 0.8209 0.0
C1071 C 0.42429 0.7236 0.78578 0.0
C1072 C 0.46132 0.70016 0.83462 0.0
C1073 C 0.38307 0.72549 0.83613 0.0
O1074 O 0.43159 0.72324 0.80474 0.0
O1075 O 0.4083 0.7128 0.77994 0.0
O1076 O 0.41677 0.67977 0.84788 0.0
O1077 O 0.40773 0.68429 0.81513 0.0
Co1078 Co 0.31129 0.42606 0.82865 0.0
O1079 O 0.32639 0.45149 0.82181 0.0
O1080 O 0.29988 0.44981 0.8443 0.0
C1081 C 0.34018 0.40493 0.83216 0.0
O1082 O 0.29227 0.40262 0.84004 0.0
Co1083 Co 0.31471 0.38705 0.79886 0.0
O1084 O 0.29732 0.37322 0.82084 0.0
C1085 C 0.29041 0.42428 0.78572 0.0
C1086 C 0.31382 0.46131 0.83459 0.0
C1087 C 0.28859 0.38303 0.83606 0.0
O1088 O 0.29077 0.43159 0.80467 0.0
O1089 O 0.30123 0.40831 0.77987 0.0
O1090 O 0.33426 0.41678 0.84781 0.0
O1091 O 0.32975 0.40776 0.81506 0.0
Co1092 Co 0.58792 0.31116 0.82862 0.0
O1093 O 0.5625 0.32628 0.82179 0.0
O1094 O 0.56415 0.29977 0.84427 0.0
C1095 C 0.60906 0.34004 0.83212 0.0
O1096 O 0.61135 0.29214 0.84001 0.0
Co1097 Co 0.62692 0.31457 0.79882 0.0
O1098 O 0.64074 0.29714 0.82077 0.0
C1099 C 0.58967 0.2903 0.78569 0.0
C1100 C 0.55266 0.31371 0.83456 0.0
C1101 C 0.63093 0.28843 0.83601 0.0
O1102 O 0.58238 0.29065 0.80465 0.0
O1103 O 0.60565 0.30111 0.77983 0.0
O1104 O 0.59721 0.33413 0.84778 0.0
O1105 O 0.60623 0.32961 0.81502 0.0
Co1106 Co 0.70271 0.58782 0.82864 0.0
O1107 O 0.6876 0.5624 0.82179 0.0
O1108 O 0.7141 0.56404 0.84428 0.0
C1109 C 0.67382 0.60895 0.83214 0.0
O1110 O 0.72173 0.61124 0.84004 0.0
Co1111 Co 0.69932 0.62683 0.79885 0.0
O1112 O 0.71672 0.64064 0.82083 0.0
C1113 C 0.7236 0.58959 0.78572 0.0
C1114 C 0.70017 0.55256 0.83456 0.0
C1115 C 0.72543 0.63082 0.83606 0.0
O1116 O 0.72324 0.58229 0.80468 0.0
O1117 O 0.71279 0.60557 0.77987 0.0
O1118 O 0.67973 0.59709 0.84779 0.0
O1119 O 0.68426 0.60613 0.81504 0.0
Co1120 Co 0.18525 0.42594 0.31123 0.0
O1121 O 0.19212 0.45134 0.32634 0.0
O1122 O 0.16963 0.44972 0.29984 0.0
C1123 C 0.18173 0.4048 0.3401 0.0
O1124 O 0.17384 0.40252 0.2922 0.0
Co1125 Co 0.21503 0.38692 0.31462 0.0
O1126 O 0.19303 0.37311 0.29724 0.0
C1127 C 0.22818 0.42415 0.29034 0.0
C1128 C 0.17936 0.46119 0.31378 0.0
C1129 C 0.17781 0.38293 0.28852 0.0
O1130 O 0.20923 0.43146 0.2907 0.0
O1131 O 0.23403 0.40817 0.30115 0.0
O1132 O 0.16609 0.41667 0.33419 0.0
O1133 O 0.19884 0.40762 0.32967 0.0
Co1134 Co 0.58778 0.18507 0.31111 0.0
O1135 O 0.56237 0.19193 0.32622 0.0
O1136 O 0.56399 0.16945 0.29972 0.0
C1137 C 0.60891 0.18154 0.33999 0.0
O1138 O 0.6112 0.17366 0.29208 0.0
Co1139 Co 0.62682 0.21483 0.31452 0.0
O1140 O 0.64061 0.19287 0.29709 0.0
C1141 C 0.58958 0.228 0.29025 0.0
C1142 C 0.55252 0.17918 0.31366 0.0
C1143 C 0.63079 0.17764 0.28838 0.0
O1144 O 0.58227 0.20905 0.2906 0.0
O1145 O 0.60556 0.23384 0.30107 0.0
O1146 O 0.59704 0.1659 0.33408 0.0
O1147 O 0.6061 0.19864 0.32956 0.0
Co1148 Co 0.82879 0.5878 0.31118 0.0
O1149 O 0.82194 0.56238 0.32629 0.0
O1150 O 0.84443 0.56403 0.29978 0.0
C1151 C 0.83231 0.60893 0.34005 0.0
O1152 O 0.84019 0.61122 0.29215 0.0
Co1153 Co 0.799 0.6268 0.31457 0.0
O1154 O 0.82096 0.64061 0.29712 0.0
C1155 C 0.78587 0.58955 0.2903 0.0
C1156 C 0.83471 0.55254 0.31372 0.0
C1157 C 0.83619 0.63079 0.28843 0.0
O1158 O 0.80482 0.58226 0.29065 0.0
O1159 O 0.78001 0.60553 0.30111 0.0
O1160 O 0.84795 0.59707 0.33414 0.0
O1161 O 0.8152 0.60611 0.32962 0.0
Co1162 Co 0.42617 0.82872 0.31125 0.0
O1163 O 0.45159 0.82186 0.32636 0.0
O1164 O 0.44995 0.84436 0.29987 0.0
C1165 C 0.40503 0.83221 0.34014 0.0
O1166 O 0.40275 0.84013 0.29223 0.0
Co1167 Co 0.38716 0.79893 0.31464 0.0
O1168 O 0.37335 0.8209 0.29722 0.0
C1169 C 0.42441 0.7858 0.29037 0.0
C1170 C 0.46143 0.83463 0.3138 0.0
C1171 C 0.38317 0.83614 0.28852 0.0
O1172 O 0.4317 0.80476 0.29072 0.0
O1173 O 0.40843 0.77994 0.30118 0.0
O1174 O 0.41689 0.84786 0.33423 0.0
O1175 O 0.40785 0.81512 0.3297 0.0
Co1176 Co 0.1853 0.588 0.70278 0.0
O1177 O 0.19212 0.5626 0.68763 0.0
O1178 O 0.16965 0.56422 0.71414 0.0
C1179 C 0.18179 0.60919 0.67393 0.0
O1180 O 0.17393 0.6114 0.72184 0.0
Co1181 Co 0.21514 0.62698 0.69942 0.0
O1182 O 0.19321 0.64077 0.7169 0.0
C1183 C 0.22824 0.58969 0.72363 0.0
C1184 C 0.17936 0.55275 0.70019 0.0
C1185 C 0.17796 0.63096 0.72559 0.0
O1186 O 0.20927 0.58242 0.72328 0.0
O1187 O 0.23411 0.60567 0.71283 0.0
O1188 O 0.16613 0.59732 0.67983 0.0
O1189 O 0.1989 0.60633 0.68435 0.0
Co1190 Co 0.42601 0.18526 0.70271 0.0
O1191 O 0.45144 0.19209 0.68759 0.0
O1192 O 0.44977 0.16961 0.7141 0.0
C1193 C 0.40486 0.18176 0.67384 0.0
O1194 O 0.40258 0.17389 0.72174 0.0
Co1195 Co 0.38702 0.21508 0.69931 0.0
O1196 O 0.3732 0.19315 0.71677 0.0
C1197 C 0.42429 0.22819 0.72357 0.0
C1198 C 0.46126 0.17931 0.70016 0.0
C1199 C 0.38301 0.17791 0.72547 0.0
O1200 O 0.43157 0.20923 0.72322 0.0
O1201 O 0.40831 0.23406 0.71276 0.0
O1202 O 0.41671 0.16611 0.67975 0.0
O1203 O 0.40771 0.19887 0.68426 0.0
Co1204 Co 0.82867 0.42596 0.7025 0.0
O1205 O 0.82183 0.4514 0.68742 0.0
O1206 O 0.84433 0.4497 0.71391 0.0
C1207 C 0.83214 0.40485 0.6736 0.0
O1208 O 0.84007 0.40251 0.72149 0.0
Co1209 Co 0.79886 0.38696 0.6991 0.0
O1210 O 0.82085 0.37312 0.71647 0.0
C1211 C 0.78576 0.42418 0.72341 0.0
C1212 C 0.83461 0.46121 0.69999 0.0
C1213 C 0.83609 0.38293 0.72518 0.0
O1214 O 0.80471 0.43148 0.72305 0.0
O1215 O 0.77989 0.40821 0.7126 0.0
O1216 O 0.8478 0.4167 0.67951 0.0
O1217 O 0.81505 0.40767 0.68405 0.0
Co1218 Co 0.58796 0.82863 0.70264 0.0
O1219 O 0.56252 0.8218 0.68755 0.0
O1220 O 0.56421 0.84429 0.71405 0.0
C1221 C 0.60909 0.83212 0.67376 0.0
O1222 O 0.6114 0.84001 0.72165 0.0
Co1223 Co 0.62696 0.79883 0.69924 0.0
O1224 O 0.64079 0.82078 0.71665 0.0
C1225 C 0.58971 0.78571 0.72352 0.0
C1226 C 0.55271 0.83458 0.70012 0.0
C1227 C 0.63098 0.83602 0.72536 0.0
O1228 O 0.58242 0.80466 0.72317 0.0
O1229 O 0.60568 0.77984 0.71271 0.0
O1230 O 0.59724 0.84778 0.67967 0.0
O1231 O 0.60626 0.81502 0.68419 0.0
Co1232 Co 0.31114 0.18512 0.42606 0.0
O1233 O 0.32626 0.19199 0.45147 0.0
O1234 O 0.29977 0.16949 0.44985 0.0
C1235 C 0.34002 0.18163 0.40491 0.0
O1236 O 0.29211 0.17372 0.40265 0.0
Co1237 Co 0.31452 0.21492 0.38705 0.0
O1238 O 0.29709 0.19295 0.37325 0.0
C1239 C 0.29026 0.22804 0.4243 0.0
C1240 C 0.3137 0.17922 0.46132 0.0
C1241 C 0.28839 0.17771 0.38307 0.0
O1242 O 0.29061 0.20909 0.43159 0.0
O1243 O 0.30107 0.2339 0.40832 0.0
O1244 O 0.33411 0.16598 0.41678 0.0
O1245 O 0.32958 0.19872 0.40774 0.0
Co1246 Co 0.31133 0.82883 0.58792 0.0
O1247 O 0.32644 0.82196 0.56251 0.0
O1248 O 0.29995 0.84446 0.56413 0.0
C1249 C 0.3402 0.83233 0.60906 0.0
O1250 O 0.2923 0.84024 0.61133 0.0
Co1251 Co 0.31471 0.79905 0.62694 0.0
O1252 O 0.2973 0.82104 0.64073 0.0
C1253 C 0.29045 0.78591 0.58969 0.0
C1254 C 0.31388 0.83472 0.55265 0.0
C1255 C 0.2886 0.83627 0.63091 0.0
O1256 O 0.2908 0.80486 0.58239 0.0
O1257 O 0.30126 0.78006 0.60567 0.0
O1258 O 0.33431 0.84798 0.59719 0.0
O1259 O 0.32976 0.81524 0.60624 0.0
Co1260 Co 0.18524 0.31134 0.58786 0.0
O1261 O 0.19208 0.3264 0.5624 0.0
O1262 O 0.16958 0.29992 0.56411 0.0
C1263 C 0.18176 0.34025 0.60894 0.0
O1264 O 0.17384 0.29236 0.61131 0.0
Co1265 Co 0.21504 0.31477 0.62685 0.0
O1266 O 0.19305 0.29741 0.6407 0.0
C1267 C 0.22816 0.29044 0.58964 0.0
C1268 C 0.1793 0.31383 0.5526 0.0
C1269 C 0.17782 0.28869 0.6309 0.0
O1270 O 0.2092 0.2908 0.58234 0.0
O1271 O 0.23402 0.30127 0.6056 0.0
O1272 O 0.1661 0.33433 0.59711 0.0
O1273 O 0.19886 0.32981 0.60613 0.0
Co1274 Co 0.7026 0.18514 0.58777 0.0
O1275 O 0.68748 0.19197 0.56235 0.0
O1276 O 0.71399 0.16949 0.564 0.0
C1277 C 0.67372 0.18164 0.60892 0.0
O1278 O 0.72163 0.17377 0.61119 0.0
Co1279 Co 0.6992 0.21495 0.62676 0.0
O1280 O 0.71663 0.193 0.64058 0.0
C1281 C 0.72346 0.22808 0.58951 0.0
C1282 C 0.70005 0.1792 0.55252 0.0
C1283 C 0.72534 0.17776 0.63077 0.0
O1284 O 0.72312 0.20912 0.58222 0.0
O1285 O 0.71265 0.23393 0.60548 0.0
O1286 O 0.67964 0.16598 0.59707 0.0
O1287 O 0.68415 0.19874 0.60607 0.0
Co1288 Co 0.82879 0.70258 0.58787 0.0
O1289 O 0.82194 0.68747 0.56245 0.0
O1290 O 0.84444 0.71397 0.56409 0.0
C1291 C 0.8323 0.6737 0.609 0.0
O1292 O 0.84019 0.7216 0.61129 0.0
Co1293 Co 0.799 0.69917 0.62688 0.0
O1294 O 0.82099 0.71656 0.64069 0.0
C1295 C 0.78587 0.72346 0.58964 0.0
C1296 C 0.83471 0.70004 0.55261 0.0
C1297 C 0.83621 0.72528 0.63088 0.0
O1298 O 0.80482 0.7231 0.58234 0.0
O1299 O 0.78001 0.71265 0.60562 0.0
O1300 O 0.84795 0.67961 0.59714 0.0
O1301 O 0.8152 0.68413 0.60617 0.0
Co1302 Co 0.70282 0.82853 0.42602 0.0
O1303 O 0.68771 0.8217 0.45144 0.0
O1304 O 0.71422 0.84417 0.44978 0.0
C1305 C 0.67394 0.83205 0.40488 0.0
O1306 O 0.72185 0.83991 0.40259 0.0
Co1307 Co 0.6994 0.79873 0.38702 0.0
O1308 O 0.71683 0.82069 0.3732 0.0
C1309 C 0.72368 0.7856 0.42427 0.0
C1310 C 0.70028 0.83446 0.46127 0.0
C1311 C 0.72554 0.83592 0.38301 0.0
O1312 O 0.72333 0.80456 0.43156 0.0
O1313 O 0.71286 0.77974 0.40829 0.0
O1314 O 0.67986 0.8477 0.41674 0.0
O1315 O 0.68436 0.81494 0.40771 0.0
Co1316 Co 0.1854 0.70255 0.42615 0.0
O1317 O 0.19225 0.6875 0.45161 0.0
O1318 O 0.16974 0.71398 0.44989 0.0
C1319 C 0.1819 0.67363 0.40508 0.0
O1320 O 0.17399 0.72152 0.40269 0.0
Co1321 Co 0.21518 0.6991 0.38714 0.0
O1322 O 0.19317 0.71643 0.37329 0.0
C1323 C 0.22831 0.72346 0.42432 0.0
C1324 C 0.17947 0.70008 0.46141 0.0
C1325 C 0.17794 0.72516 0.38309 0.0
O1326 O 0.20936 0.7231 0.43164 0.0
O1327 O 0.23417 0.71263 0.40836 0.0
O1328 O 0.16625 0.67955 0.41692 0.0
O1329 O 0.199 0.68407 0.40788 0.0
Co1330 Co 0.82856 0.31109 0.42586 0.0
O1331 O 0.8217 0.32619 0.45128 0.0
O1332 O 0.84419 0.29969 0.44963 0.0
C1333 C 0.83208 0.33998 0.40474 0.0
O1334 O 0.83997 0.29208 0.40243 0.0
Co1335 Co 0.79879 0.31451 0.38684 0.0
O1336 O 0.82078 0.29713 0.37302 0.0
C1337 C 0.78563 0.2902 0.42406 0.0
C1338 C 0.83447 0.31362 0.46111 0.0
C1339 C 0.836 0.28841 0.38284 0.0
O1340 O 0.80458 0.29056 0.43137 0.0
O1341 O 0.77979 0.30101 0.40808 0.0
O1342 O 0.84772 0.33406 0.4166 0.0
O1343 O 0.81497 0.32955 0.40755 0.0
C1344 C 0.13465 0.24914 0.36789 0.0
C1345 C 0.14249 0.24122 0.3487 0.0
H1346 H 0.13963 0.27019 0.39397 0.0
C1347 C 0.1617 0.24916 0.34105 0.0
H1348 H 0.11989 0.2434 0.37422 0.0
C1349 C 0.17274 0.26457 0.3521 0.0
C1350 C 0.16511 0.27246 0.37134 0.0
H1351 H 0.16824 0.24365 0.32629 0.0
H1352 H 0.18748 0.27012 0.34555 0.0
C1353 C 0.14595 0.26449 0.37919 0.0
C1354 C 0.74918 0.14585 0.3791 0.0
C1355 C 0.74117 0.16497 0.37121 0.0
H1356 H 0.77032 0.11982 0.37417 0.0
C1357 C 0.74901 0.17256 0.35194 0.0
H1358 H 0.74353 0.13956 0.39392 0.0
C1359 C 0.76442 0.16152 0.3409 0.0
C1360 C 0.77242 0.14236 0.34859 0.0
H1361 H 0.74342 0.18727 0.34535 0.0
H1362 H 0.7699 0.16803 0.32611 0.0
C1363 C 0.76455 0.13455 0.36781 0.0
C1364 C 0.86802 0.74911 0.37914 0.0
C1365 C 0.8488 0.74124 0.37135 0.0
H1366 H 0.89414 0.77012 0.37412 0.0
C1367 C 0.84111 0.74924 0.35218 0.0
H1368 H 0.87439 0.74333 0.39387 0.0
C1369 C 0.85215 0.76465 0.34114 0.0
C1370 C 0.87143 0.77248 0.34872 0.0
H1371 H 0.82631 0.74377 0.34568 0.0
H1372 H 0.84557 0.77024 0.32643 0.0
C1373 C 0.87932 0.76447 0.36784 0.0
C1374 C 0.24939 0.87909 0.36792 0.0
C1375 C 0.24151 0.87128 0.34871 0.0
H1376 H 0.27041 0.87409 0.39403 0.0
C1377 C 0.24951 0.85211 0.34103 0.0
H1378 H 0.24361 0.89382 0.37428 0.0
C1379 C 0.26492 0.84108 0.35207 0.0
C1380 C 0.27276 0.84867 0.37134 0.0
H1381 H 0.24403 0.8456 0.32624 0.0
H1382 H 0.27051 0.82636 0.3455 0.0
C1383 C 0.26475 0.8678 0.37922 0.0
C1384 C 0.17308 0.74973 0.6617 0.0
C1385 C 0.16534 0.74164 0.6426 0.0
H1386 H 0.16867 0.7708 0.6874 0.0
C1387 C 0.14606 0.74943 0.63485 0.0
H1388 H 0.18792 0.74432 0.66816 0.0
C1389 C 0.13476 0.76479 0.64614 0.0
C1390 C 0.1427 0.77289 0.66521 0.0
H1391 H 0.13966 0.74358 0.62016 0.0
H1392 H 0.1199 0.77038 0.6399 0.0
C1393 C 0.16204 0.76514 0.67273 0.0
C1394 C 0.2646 0.17302 0.6618 0.0
C1395 C 0.27255 0.16535 0.64261 0.0
H1396 H 0.24363 0.16856 0.68758 0.0
C1397 C 0.26464 0.14615 0.6348 0.0
H1398 H 0.27011 0.1878 0.66831 0.0
C1399 C 0.24928 0.13486 0.64611 0.0
C1400 C 0.24131 0.14274 0.66525 0.0
H1401 H 0.27038 0.1398 0.62005 0.0
H1402 H 0.24359 0.12007 0.63981 0.0
C1403 C 0.24919 0.16199 0.67285 0.0
C1404 C 0.84107 0.26474 0.66169 0.0
C1405 C 0.84866 0.2726 0.64243 0.0
H1406 H 0.84561 0.24386 0.68752 0.0
C1407 C 0.86781 0.26463 0.63456 0.0
H1408 H 0.82634 0.27031 0.66826 0.0
C1409 C 0.87912 0.24928 0.64586 0.0
C1410 C 0.87131 0.24139 0.66507 0.0
H1411 H 0.8741 0.2703 0.61975 0.0
H1412 H 0.89387 0.24353 0.63951 0.0
C1413 C 0.85212 0.24935 0.67274 0.0
C1414 C 0.76464 0.85217 0.67287 0.0
C1415 C 0.77261 0.87135 0.66519 0.0
H1416 H 0.74367 0.82639 0.66842 0.0
C1417 C 0.76472 0.87914 0.64597 0.0
H1418 H 0.77013 0.84567 0.68766 0.0
C1419 C 0.74937 0.86783 0.63467 0.0
C1420 C 0.74139 0.84869 0.64256 0.0
H1421 H 0.77048 0.89388 0.63961 0.0
H1422 H 0.74371 0.87411 0.61986 0.0
C1423 C 0.74924 0.84111 0.66183 0.0
C1424 C 0.34086 0.16176 0.24939 0.0
C1425 C 0.34854 0.14259 0.24141 0.0
H1426 H 0.34534 0.18752 0.27039 0.0
C1427 C 0.36775 0.13478 0.24928 0.0
H1428 H 0.32608 0.16828 0.24391 0.0
C1429 C 0.37906 0.14607 0.26464 0.0
C1430 C 0.37118 0.16521 0.27264 0.0
H1431 H 0.37411 0.12004 0.24352 0.0
H1432 H 0.39387 0.13978 0.2703 0.0
C1433 C 0.35191 0.1728 0.2648 0.0
C1434 C 0.87915 0.36782 0.24917 0.0
C1435 C 0.87133 0.34862 0.24127 0.0
H1436 H 0.87416 0.39392 0.2702 0.0
C1437 C 0.85214 0.34096 0.24923 0.0
H1438 H 0.89391 0.37416 0.24342 0.0
C1439 C 0.84109 0.35201 0.26463 0.0
C1440 C 0.8487 0.37125 0.2725 0.0
H1441 H 0.84561 0.32618 0.24373 0.0
H1442 H 0.82636 0.34544 0.2702 0.0
C1443 C 0.86786 0.37912 0.26452 0.0
C1444 C 0.64619 0.87906 0.24924 0.0
C1445 C 0.66532 0.87118 0.24125 0.0
H1446 H 0.62015 0.87413 0.27037 0.0
C1447 C 0.67293 0.85193 0.24912 0.0
H1448 H 0.63989 0.89386 0.24356 0.0
C1449 C 0.66189 0.84089 0.26454 0.0
C1450 C 0.64271 0.84857 0.27251 0.0
H1451 H 0.68765 0.84536 0.24354 0.0
H1452 H 0.66841 0.82612 0.27003 0.0
C1453 C 0.63489 0.86777 0.26461 0.0
C1454 C 0.1618 0.67287 0.24959 0.0
C1455 C 0.14267 0.66514 0.24155 0.0
H1456 H 0.18753 0.66844 0.27063 0.0
C1457 C 0.1349 0.6459 0.24938 0.0
H1458 H 0.16828 0.68768 0.24415 0.0
C1459 C 0.14619 0.6346 0.26475 0.0
C1460 C 0.16529 0.64253 0.2728 0.0
H1461 H 0.12019 0.63951 0.24357 0.0
H1462 H 0.13993 0.61977 0.27037 0.0
C1463 C 0.17284 0.66183 0.26501 0.0
C1464 C 0.36797 0.87932 0.76468 0.0
C1465 C 0.34882 0.87144 0.77267 0.0
H1466 H 0.39401 0.87436 0.74356 0.0
C1467 C 0.34122 0.85219 0.76481 0.0
H1468 H 0.37427 0.89412 0.77035 0.0
C1469 C 0.35225 0.84114 0.74941 0.0
C1470 C 0.37144 0.84881 0.74143 0.0
H1471 H 0.32649 0.84562 0.77039 0.0
H1472 H 0.34573 0.82637 0.74392 0.0
C1473 C 0.37926 0.86801 0.74932 0.0
C1474 C 0.17275 0.35212 0.74896 0.0
C1475 C 0.1652 0.37142 0.74115 0.0
H1476 H 0.16818 0.32627 0.76981 0.0
C1477 C 0.1461 0.37934 0.74919 0.0
H1478 H 0.18744 0.34551 0.74334 0.0
C1479 C 0.13479 0.36804 0.76455 0.0
C1480 C 0.14256 0.3488 0.77239 0.0
H1481 H 0.13984 0.39417 0.74356 0.0
H1482 H 0.12008 0.37443 0.77035 0.0
C1483 C 0.1617 0.34108 0.76436 0.0
C1484 C 0.66174 0.17283 0.74928 0.0
C1485 C 0.64256 0.16515 0.74131 0.0
H1486 H 0.68751 0.16836 0.77025 0.0
C1487 C 0.63475 0.14595 0.7492 0.0
H1488 H 0.66825 0.18761 0.74378 0.0
C1489 C 0.64605 0.13465 0.76456 0.0
C1490 C 0.66519 0.14253 0.77254 0.0
H1491 H 0.62 0.13959 0.74345 0.0
H1492 H 0.63976 0.11984 0.77023 0.0
C1493 C 0.67279 0.16179 0.76468 0.0
C1494 C 0.87934 0.64599 0.76459 0.0
C1495 C 0.87141 0.66508 0.77264 0.0
H1496 H 0.87443 0.61997 0.74343 0.0
C1497 C 0.85211 0.67262 0.76485 0.0
H1498 H 0.89418 0.63973 0.77021 0.0
C1499 C 0.84106 0.66158 0.74945 0.0
C1500 C 0.84879 0.64245 0.74141 0.0
H1501 H 0.84549 0.68731 0.77047 0.0
H1502 H 0.82624 0.66805 0.74401 0.0
C1503 C 0.86804 0.63468 0.74924 0.0
C1504 C 0.24943 0.34104 0.1616 0.0
C1505 C 0.2414 0.34876 0.14246 0.0
H1506 H 0.27046 0.34546 0.18734 0.0
C1507 C 0.24925 0.368 0.13469 0.0
H1508 H 0.24397 0.32623 0.16809 0.0
C1509 C 0.26462 0.37929 0.14599 0.0
C1510 C 0.27266 0.37137 0.16509 0.0
H1511 H 0.24346 0.37439 0.11998 0.0
H1512 H 0.27026 0.39412 0.13973 0.0
C1513 C 0.26484 0.35207 0.17265 0.0
C1514 C 0.24936 0.64609 0.87931 0.0
C1515 C 0.24134 0.66521 0.8714 0.0
H1516 H 0.27049 0.62005 0.87438 0.0
C1517 C 0.24916 0.67277 0.85211 0.0
H1518 H 0.24372 0.63982 0.89413 0.0
C1519 C 0.26455 0.66172 0.84106 0.0
C1520 C 0.27256 0.64256 0.84876 0.0
H1521 H 0.24356 0.68747 0.84552 0.0
H1522 H 0.27001 0.6682 0.82626 0.0
C1523 C 0.26471 0.63478 0.868 0.0
C1524 C 0.35218 0.2646 0.84106 0.0
C1525 C 0.37136 0.27258 0.84873 0.0
H1526 H 0.32641 0.24363 0.84553 0.0
C1527 C 0.37917 0.2647 0.86795 0.0
H1528 H 0.34567 0.27008 0.82627 0.0
C1529 C 0.36786 0.24936 0.87926 0.0
C1530 C 0.34872 0.24136 0.87138 0.0
H1531 H 0.39391 0.27047 0.8743 0.0
H1532 H 0.37414 0.2437 0.89407 0.0
C1533 C 0.34113 0.2492 0.85211 0.0
C1534 C 0.74932 0.37913 0.86779 0.0
C1535 C 0.74138 0.37129 0.84861 0.0
H1536 H 0.77039 0.37415 0.89386 0.0
C1537 C 0.7493 0.35207 0.84098 0.0
H1538 H 0.7436 0.3939 0.87411 0.0
C1539 C 0.76471 0.34103 0.85202 0.0
C1540 C 0.77262 0.34866 0.87124 0.0
H1541 H 0.74377 0.34553 0.82623 0.0
H1542 H 0.77025 0.32628 0.84548 0.0
C1543 C 0.76468 0.36783 0.87909 0.0
C1544 C 0.6348 0.74918 0.86784 0.0
C1545 C 0.64261 0.74129 0.84863 0.0
H1546 H 0.6398 0.77022 0.89393 0.0
C1547 C 0.6618 0.74925 0.84096 0.0
H1548 H 0.62005 0.74343 0.87419 0.0
C1549 C 0.67284 0.76466 0.852 0.0
C1550 C 0.66524 0.77253 0.87125 0.0
H1551 H 0.66832 0.74376 0.82619 0.0
H1552 H 0.68757 0.77023 0.84543 0.0
C1553 C 0.6461 0.76454 0.87913 0.0
C1554 C 0.76478 0.64591 0.1347 0.0
C1555 C 0.7727 0.6651 0.14253 0.0
H1556 H 0.74372 0.61983 0.13968 0.0
C1557 C 0.76476 0.67275 0.16173 0.0
H1558 H 0.77051 0.63958 0.11994 0.0
C1559 C 0.74935 0.6617 0.17277 0.0
C1560 C 0.74145 0.64247 0.16515 0.0
H1561 H 0.77028 0.68751 0.16826 0.0
H1562 H 0.7438 0.66826 0.18751 0.0
C1563 C 0.74942 0.63461 0.146 0.0
C1564 C 0.34131 0.76483 0.16189 0.0
C1565 C 0.34891 0.77268 0.14263 0.0
H1566 H 0.34583 0.74393 0.18772 0.0
C1567 C 0.36804 0.76468 0.13475 0.0
H1568 H 0.3266 0.77041 0.16847 0.0
C1569 C 0.37934 0.74931 0.14605 0.0
C1570 C 0.37152 0.74143 0.16526 0.0
H1571 H 0.37434 0.77034 0.11994 0.0
H1572 H 0.39408 0.74355 0.13969 0.0
C1573 C 0.35235 0.74941 0.17294 0.0
C1574 C 0.64605 0.24917 0.13461 0.0
C1575 C 0.66517 0.24115 0.1425 0.0
H1576 H 0.62002 0.27031 0.13955 0.0
C1577 C 0.67276 0.24899 0.16177 0.0
H1578 H 0.63976 0.24352 0.1198 0.0
C1579 C 0.66172 0.26439 0.17282 0.0
C1580 C 0.64255 0.27239 0.16513 0.0
H1581 H 0.68747 0.24339 0.16836 0.0
H1582 H 0.66823 0.26986 0.18761 0.0
C1583 C 0.63475 0.26453 0.14591 0.0
C1584 C 0.85226 0.76451 0.67284 0.0
C1585 C 0.87144 0.7725 0.66517 0.0
H1586 H 0.82651 0.7435 0.66838 0.0
C1587 C 0.87926 0.76462 0.64596 0.0
H1588 H 0.84574 0.76999 0.68762 0.0
C1589 C 0.86797 0.74925 0.63466 0.0
C1590 C 0.84883 0.74124 0.64254 0.0
H1591 H 0.894 0.77039 0.63961 0.0
H1592 H 0.87427 0.74358 0.61986 0.0
C1593 C 0.84123 0.74909 0.6618 0.0
C1594 C 0.24933 0.85231 0.67285 0.0
C1595 C 0.24141 0.87152 0.6652 0.0
H1596 H 0.27028 0.82652 0.66836 0.0
C1597 C 0.24934 0.87936 0.64602 0.0
H1598 H 0.24381 0.84577 0.6876 0.0
C1599 C 0.2647 0.86806 0.63472 0.0
C1600 C 0.27265 0.84889 0.64257 0.0
H1601 H 0.24362 0.89413 0.63969 0.0
H1602 H 0.2704 0.87438 0.61994 0.0
C1603 C 0.26474 0.84126 0.6618 0.0
C1604 C 0.1617 0.24953 0.67291 0.0
C1605 C 0.14254 0.24153 0.66522 0.0
H1606 H 0.18746 0.27052 0.66845 0.0
C1607 C 0.13474 0.24939 0.64599 0.0
H1608 H 0.1682 0.24405 0.68771 0.0
C1609 C 0.14605 0.26475 0.63469 0.0
C1610 C 0.16518 0.27276 0.64258 0.0
H1611 H 0.12001 0.24362 0.63962 0.0
H1612 H 0.13977 0.2704 0.61987 0.0
C1613 C 0.17275 0.26493 0.66186 0.0
C1614 C 0.76468 0.16179 0.67266 0.0
C1615 C 0.77257 0.14255 0.66506 0.0
H1616 H 0.74375 0.18759 0.66814 0.0
C1617 C 0.76459 0.13468 0.64591 0.0
H1618 H 0.77024 0.16836 0.68739 0.0
C1619 C 0.74922 0.14596 0.63461 0.0
C1620 C 0.74131 0.16516 0.64243 0.0
H1621 H 0.77028 0.11989 0.63961 0.0
H1622 H 0.74348 0.13962 0.61986 0.0
C1623 C 0.74926 0.17282 0.66162 0.0
C1624 C 0.87907 0.24911 0.36777 0.0
C1625 C 0.87127 0.24124 0.34855 0.0
H1626 H 0.87405 0.27013 0.39387 0.0
C1627 C 0.85209 0.24922 0.34086 0.0
H1628 H 0.89381 0.24335 0.37413 0.0
C1629 C 0.84105 0.26463 0.3519 0.0
C1630 C 0.84863 0.27247 0.37117 0.0
H1631 H 0.84559 0.24374 0.32608 0.0
H1632 H 0.82633 0.27021 0.34532 0.0
C1633 C 0.86777 0.26447 0.37906 0.0
C1634 C 0.76479 0.87902 0.36786 0.0
C1635 C 0.77273 0.87117 0.34869 0.0
H1636 H 0.74371 0.87405 0.39393 0.0
C1637 C 0.76483 0.85194 0.34107 0.0
H1638 H 0.7705 0.8938 0.37417 0.0
C1639 C 0.74942 0.8409 0.35212 0.0
C1640 C 0.7415 0.84854 0.37134 0.0
H1641 H 0.77037 0.84539 0.32633 0.0
H1642 H 0.7439 0.82614 0.34559 0.0
C1643 C 0.74943 0.86772 0.37917 0.0
C1644 C 0.1462 0.74912 0.37932 0.0
C1645 C 0.1653 0.74107 0.3714 0.0
H1646 H 0.12018 0.77029 0.3744 0.0
C1647 C 0.17284 0.74885 0.35209 0.0
H1648 H 0.13994 0.74351 0.39416 0.0
C1649 C 0.16179 0.76425 0.34104 0.0
C1650 C 0.14266 0.77229 0.34876 0.0
H1651 H 0.18753 0.74323 0.34548 0.0
H1652 H 0.16827 0.76968 0.32621 0.0
C1653 C 0.13489 0.76447 0.36801 0.0
C1654 C 0.24918 0.13458 0.36792 0.0
C1655 C 0.24118 0.14246 0.34879 0.0
H1656 H 0.27031 0.13952 0.39396 0.0
C1657 C 0.24903 0.16173 0.3412 0.0
H1658 H 0.24352 0.11977 0.37421 0.0
C1659 C 0.26444 0.17278 0.35224 0.0
C1660 C 0.27242 0.1651 0.37142 0.0
H1661 H 0.24345 0.16831 0.32648 0.0
H1662 H 0.26992 0.18756 0.34573 0.0
C1663 C 0.26454 0.14588 0.37922 0.0
C1664 C 0.67289 0.85205 0.76465 0.0
C1665 C 0.66527 0.87129 0.77253 0.0
H1666 H 0.66838 0.82623 0.74375 0.0
C1667 C 0.64611 0.87914 0.76456 0.0
H1668 H 0.68763 0.84549 0.77021 0.0
C1669 C 0.63482 0.86784 0.74921 0.0
C1670 C 0.64265 0.84865 0.74131 0.0
H1671 H 0.6398 0.89393 0.77025 0.0
H1672 H 0.62006 0.87417 0.74347 0.0
C1673 C 0.66185 0.841 0.74925 0.0
C1674 C 0.14609 0.63487 0.74937 0.0
C1675 C 0.16537 0.64261 0.74157 0.0
H1676 H 0.11993 0.63994 0.77031 0.0
C1677 C 0.17312 0.66171 0.74965 0.0
H1678 H 0.13967 0.62019 0.74353 0.0
C1679 C 0.16208 0.67276 0.76506 0.0
C1680 C 0.14274 0.66524 0.77281 0.0
H1681 H 0.18796 0.66816 0.74424 0.0
H1682 H 0.16872 0.68742 0.77071 0.0
C1683 C 0.13479 0.64617 0.76472 0.0
C1684 C 0.36785 0.13479 0.76469 0.0
C1685 C 0.34873 0.1427 0.77271 0.0
H1686 H 0.39387 0.1397 0.74353 0.0
C1687 C 0.34116 0.16198 0.76488 0.0
H1688 H 0.37412 0.11997 0.77033 0.0
C1689 C 0.3522 0.17301 0.74946 0.0
C1690 C 0.37136 0.16531 0.74145 0.0
H1691 H 0.32646 0.16858 0.77049 0.0
H1692 H 0.34571 0.18781 0.744 0.0
C1693 C 0.37914 0.14608 0.74932 0.0
C1694 C 0.8522 0.34096 0.76438 0.0
C1695 C 0.87136 0.34866 0.77237 0.0
H1696 H 0.82644 0.34539 0.74338 0.0
C1697 C 0.87916 0.36787 0.76448 0.0
H1698 H 0.8457 0.32617 0.76987 0.0
C1699 C 0.86786 0.37916 0.74911 0.0
C1700 C 0.84873 0.37126 0.74111 0.0
H1701 H 0.89389 0.37424 0.77025 0.0
H1702 H 0.87414 0.39397 0.74345 0.0
C1703 C 0.84115 0.35199 0.74896 0.0
C1704 C 0.64593 0.13453 0.24917 0.0
C1705 C 0.66508 0.14241 0.24118 0.0
H1706 H 0.61988 0.13947 0.27028 0.0
C1707 C 0.67268 0.16167 0.24904 0.0
H1708 H 0.63964 0.11973 0.24349 0.0
C1709 C 0.66163 0.17271 0.26445 0.0
C1710 C 0.64244 0.16503 0.27242 0.0
H1711 H 0.6874 0.16824 0.24348 0.0
H1712 H 0.66815 0.18748 0.26994 0.0
C1713 C 0.63463 0.14583 0.26452 0.0
C1714 C 0.87934 0.64594 0.24924 0.0
C1715 C 0.87145 0.66507 0.24122 0.0
H1716 H 0.8744 0.61992 0.27038 0.0
C1717 C 0.85217 0.67265 0.24905 0.0
H1718 H 0.89416 0.63966 0.24359 0.0
C1719 C 0.84112 0.66161 0.26446 0.0
C1720 C 0.84881 0.64245 0.27246 0.0
H1721 H 0.84559 0.68736 0.24345 0.0
H1722 H 0.82633 0.66811 0.26992 0.0
C1723 C 0.86803 0.63465 0.26459 0.0
C1724 C 0.36801 0.87928 0.24933 0.0
C1725 C 0.34888 0.87139 0.24133 0.0
H1726 H 0.39406 0.87433 0.27045 0.0
C1727 C 0.34129 0.85213 0.24918 0.0
H1728 H 0.3743 0.89409 0.24367 0.0
C1729 C 0.35233 0.84108 0.26458 0.0
C1730 C 0.37151 0.84876 0.27256 0.0
H1731 H 0.32657 0.84555 0.2436 0.0
H1732 H 0.34582 0.82629 0.27006 0.0
C1733 C 0.37932 0.86797 0.26468 0.0
C1734 C 0.14604 0.37915 0.26458 0.0
C1735 C 0.16517 0.37127 0.27258 0.0
H1736 H 0.12 0.37421 0.24346 0.0
C1737 C 0.17276 0.352 0.26473 0.0
H1738 H 0.13975 0.39396 0.27025 0.0
C1739 C 0.16172 0.34096 0.24932 0.0
C1740 C 0.14254 0.34864 0.24134 0.0
H1741 H 0.18748 0.34542 0.27031 0.0
H1742 H 0.16823 0.32618 0.24384 0.0
C1743 C 0.13474 0.36785 0.24922 0.0
C1744 C 0.76469 0.64593 0.87915 0.0
C1745 C 0.77262 0.66511 0.87132 0.0
H1746 H 0.74362 0.61985 0.87417 0.0
C1747 C 0.76469 0.67276 0.85211 0.0
H1748 H 0.77041 0.6396 0.89392 0.0
C1749 C 0.74928 0.66172 0.84106 0.0
C1750 C 0.74138 0.64249 0.84869 0.0
H1751 H 0.77022 0.68752 0.84557 0.0
H1752 H 0.74374 0.66827 0.82632 0.0
C1753 C 0.74933 0.63463 0.86786 0.0
C1754 C 0.76465 0.36779 0.1346 0.0
C1755 C 0.77262 0.34864 0.14247 0.0
H1756 H 0.74355 0.39385 0.13956 0.0
C1757 C 0.76473 0.34103 0.16171 0.0
H1758 H 0.77034 0.3741 0.11981 0.0
C1759 C 0.74933 0.35207 0.17276 0.0
C1760 C 0.74138 0.37127 0.1651 0.0
H1761 H 0.77029 0.32629 0.16827 0.0
H1762 H 0.74382 0.34555 0.18753 0.0
C1763 C 0.74929 0.37909 0.1459 0.0
C1764 C 0.6462 0.76455 0.13465 0.0
C1765 C 0.66535 0.77252 0.1425 0.0
H1766 H 0.62014 0.74345 0.13962 0.0
C1767 C 0.67297 0.76466 0.16175 0.0
H1768 H 0.63989 0.77022 0.11985 0.0
C1769 C 0.66192 0.74925 0.17281 0.0
C1770 C 0.64272 0.7413 0.16516 0.0
H1771 H 0.6877 0.77022 0.16831 0.0
H1772 H 0.66845 0.74376 0.18758 0.0
C1773 C 0.6349 0.74919 0.14596 0.0
C1774 C 0.26481 0.63475 0.14614 0.0
C1775 C 0.2728 0.64262 0.16528 0.0
H1776 H 0.24369 0.6397 0.1201 0.0
C1777 C 0.26495 0.66189 0.17287 0.0
H1778 H 0.27047 0.61994 0.13985 0.0
C1779 C 0.24955 0.67294 0.16182 0.0
C1780 C 0.24157 0.66526 0.14264 0.0
H1781 H 0.27053 0.66846 0.18759 0.0
H1782 H 0.24407 0.68772 0.16833 0.0
C1783 C 0.24945 0.64605 0.13484 0.0
C1784 C 0.34092 0.24951 0.16173 0.0
C1785 C 0.34862 0.24149 0.14258 0.0
H1786 H 0.34539 0.27053 0.18747 0.0
C1787 C 0.36787 0.24933 0.13479 0.0
H1788 H 0.32611 0.24407 0.16822 0.0
C1789 C 0.37918 0.26467 0.14609 0.0
C1790 C 0.37128 0.27271 0.1652 0.0
H1791 H 0.37424 0.24353 0.12008 0.0
H1792 H 0.39401 0.2703 0.13982 0.0
C1793 C 0.35198 0.26491 0.17277 0.0
C1794 C 0.26479 0.3521 0.84111 0.0
C1795 C 0.27264 0.37136 0.84869 0.0
H1796 H 0.24389 0.32627 0.84565 0.0
C1797 C 0.26464 0.37926 0.86782 0.0
H1798 H 0.27038 0.34551 0.8264 0.0
C1799 C 0.24927 0.36796 0.87912 0.0
C1800 C 0.24139 0.34875 0.87132 0.0
H1801 H 0.2703 0.39407 0.87411 0.0
H1802 H 0.2435 0.37433 0.89385 0.0
C1803 C 0.24938 0.34106 0.85215 0.0
C1804 C 0.64608 0.24922 0.87913 0.0
C1805 C 0.66522 0.24123 0.87125 0.0
H1806 H 0.62004 0.27033 0.87419 0.0
C1807 C 0.67281 0.24909 0.85198 0.0
H1808 H 0.63979 0.24355 0.89393 0.0
C1809 C 0.66177 0.2645 0.84094 0.0
C1810 C 0.64259 0.27247 0.84862 0.0
H1811 H 0.68753 0.24351 0.84541 0.0
H1812 H 0.66828 0.26999 0.82616 0.0
C1813 C 0.63478 0.26458 0.86783 0.0
C1814 C 0.34124 0.76488 0.85211 0.0
C1815 C 0.34884 0.77272 0.87137 0.0
H1816 H 0.34575 0.744 0.82628 0.0
C1817 C 0.36797 0.7647 0.87925 0.0
H1818 H 0.32653 0.77048 0.84553 0.0
C1819 C 0.37925 0.74934 0.86795 0.0
C1820 C 0.37143 0.74147 0.84874 0.0
H1821 H 0.37426 0.77035 0.89406 0.0
H1822 H 0.39398 0.74355 0.87431 0.0
C1823 C 0.35227 0.74947 0.84106 0.0
C1824 C 0.07827 0.25991 0.27561 0.0
C1825 C 0.08151 0.2387 0.27011 0.0
H1826 H 0.07802 0.29197 0.26467 0.0
C1827 C 0.08196 0.23316 0.24871 0.0
H1828 H 0.07801 0.26461 0.29201 0.0
C1829 C 0.08196 0.24869 0.23319 0.0
C1830 C 0.08152 0.27008 0.23874 0.0
H1831 H 0.08426 0.21691 0.24402 0.0
H1832 H 0.08427 0.24401 0.21694 0.0
C1833 C 0.07828 0.27558 0.25996 0.0
C1834 C 0.75381 0.07812 0.27558 0.0
C1835 C 0.77503 0.08132 0.27007 0.0
H1836 H 0.72175 0.0779 0.26463 0.0
C1837 C 0.78058 0.08173 0.24867 0.0
H1838 H 0.74911 0.07788 0.29198 0.0
C1839 C 0.76506 0.08174 0.23316 0.0
C1840 C 0.74366 0.08134 0.23871 0.0
H1841 H 0.79684 0.08401 0.24399 0.0
H1842 H 0.76975 0.08403 0.2169 0.0
C1843 C 0.73815 0.07813 0.25992 0.0
C1844 C 0.93214 0.76501 0.23324 0.0
C1845 C 0.93254 0.7436 0.23878 0.0
H1846 H 0.92986 0.79677 0.24408 0.0
C1847 C 0.93573 0.73809 0.26 0.0
H1848 H 0.92987 0.76969 0.21699 0.0
C1849 C 0.93573 0.75374 0.27567 0.0
C1850 C 0.93253 0.77496 0.27016 0.0
H1851 H 0.93596 0.72169 0.2647 0.0
H1852 H 0.93595 0.74903 0.29206 0.0
C1853 C 0.93214 0.78052 0.24877 0.0
C1854 C 0.23333 0.93193 0.2488 0.0
C1855 C 0.23888 0.93235 0.27019 0.0
H1856 H 0.24417 0.92966 0.21702 0.0
C1857 C 0.2601 0.93558 0.2757 0.0
H1858 H 0.21708 0.92963 0.24411 0.0
C1859 C 0.27576 0.9356 0.26004 0.0
C1860 C 0.27025 0.93239 0.23883 0.0
H1861 H 0.2648 0.93583 0.2921 0.0
H1862 H 0.29216 0.93586 0.26475 0.0
C1863 C 0.24885 0.93195 0.23328 0.0
C1864 C 0.0821 0.76526 0.78073 0.0
C1865 C 0.08169 0.74386 0.77518 0.0
H1866 H 0.08437 0.79704 0.7699 0.0
C1867 C 0.07847 0.73836 0.75396 0.0
H1868 H 0.08439 0.76994 0.79698 0.0
C1869 C 0.07845 0.75403 0.7383 0.0
C1870 C 0.08166 0.77524 0.74381 0.0
H1871 H 0.07823 0.72197 0.74926 0.0
H1872 H 0.0782 0.74933 0.7219 0.0
C1873 C 0.08209 0.78078 0.76521 0.0
C1874 C 0.24875 0.08208 0.78073 0.0
C1875 C 0.27015 0.08165 0.77519 0.0
H1876 H 0.21698 0.08439 0.7699 0.0
C1877 C 0.27566 0.07844 0.75397 0.0
H1878 H 0.24407 0.08436 0.79699 0.0
C1879 C 0.26 0.07845 0.73831 0.0
C1880 C 0.23878 0.08168 0.74382 0.0
H1881 H 0.29206 0.07819 0.74927 0.0
H1882 H 0.26471 0.07821 0.72191 0.0
C1883 C 0.23323 0.08209 0.76521 0.0
C1884 C 0.93204 0.24881 0.78051 0.0
C1885 C 0.93245 0.27021 0.77496 0.0
H1886 H 0.92974 0.21704 0.76967 0.0
C1887 C 0.93565 0.27572 0.75374 0.0
H1888 H 0.92977 0.24412 0.79676 0.0
C1889 C 0.93563 0.26007 0.73808 0.0
C1890 C 0.93242 0.23885 0.74359 0.0
H1891 H 0.93588 0.29212 0.74905 0.0
H1892 H 0.93585 0.26477 0.72169 0.0
C1893 C 0.93203 0.23329 0.76499 0.0
C1894 C 0.73828 0.93562 0.75383 0.0
C1895 C 0.7438 0.93241 0.77505 0.0
H1896 H 0.74924 0.93586 0.72177 0.0
C1897 C 0.7652 0.93202 0.78059 0.0
H1898 H 0.72188 0.93584 0.74913 0.0
C1899 C 0.78072 0.93204 0.76507 0.0
C1900 C 0.77517 0.93244 0.74367 0.0
H1901 H 0.76988 0.92974 0.79685 0.0
H1902 H 0.79697 0.92977 0.76976 0.0
C1903 C 0.75394 0.93563 0.73817 0.0
C1904 C 0.23316 0.08182 0.24882 0.0
C1905 C 0.23871 0.08141 0.27021 0.0
H1906 H 0.24397 0.08413 0.21704 0.0
C1907 C 0.25994 0.07822 0.27571 0.0
H1908 H 0.21689 0.08408 0.24415 0.0
C1909 C 0.27559 0.07825 0.26005 0.0
C1910 C 0.27007 0.08146 0.23883 0.0
H1911 H 0.26465 0.07799 0.29211 0.0
H1912 H 0.29199 0.07803 0.26474 0.0
C1913 C 0.24867 0.08184 0.23329 0.0
C1914 C 0.93195 0.24868 0.23314 0.0
C1915 C 0.93238 0.27007 0.2387 0.0
H1916 H 0.92965 0.2169 0.24396 0.0
C1917 C 0.93559 0.27556 0.25992 0.0
H1918 H 0.92967 0.24401 0.21689 0.0
C1919 C 0.93558 0.25989 0.27557 0.0
C1920 C 0.93236 0.23868 0.27005 0.0
H1921 H 0.93583 0.29196 0.26463 0.0
H1922 H 0.93581 0.26459 0.29197 0.0
C1923 C 0.93195 0.23315 0.24865 0.0
C1924 C 0.78078 0.93183 0.24873 0.0
C1925 C 0.77522 0.93224 0.27012 0.0
H1926 H 0.76996 0.92955 0.21695 0.0
C1927 C 0.754 0.93545 0.27562 0.0
H1928 H 0.79704 0.92954 0.24405 0.0
C1929 C 0.73835 0.93545 0.25996 0.0
C1930 C 0.74386 0.93225 0.23874 0.0
H1931 H 0.7493 0.93568 0.29202 0.0
H1932 H 0.72195 0.93569 0.26466 0.0
C1933 C 0.76527 0.93184 0.2332 0.0
C1934 C 0.08196 0.76498 0.23335 0.0
C1935 C 0.08156 0.74359 0.23889 0.0
H1936 H 0.08424 0.79675 0.24418 0.0
C1937 C 0.07837 0.73807 0.26011 0.0
H1938 H 0.08423 0.76967 0.21709 0.0
C1939 C 0.07837 0.75372 0.27577 0.0
C1940 C 0.08157 0.77494 0.27026 0.0
H1941 H 0.07814 0.72167 0.2648 0.0
H1942 H 0.07815 0.74901 0.29217 0.0
C1943 C 0.08196 0.7805 0.24887 0.0
C1944 C 0.26011 0.93574 0.73828 0.0
C1945 C 0.23889 0.93252 0.74378 0.0
H1946 H 0.29217 0.93596 0.74924 0.0
C1947 C 0.23334 0.9321 0.76518 0.0
H1948 H 0.26481 0.93598 0.72188 0.0
C1949 C 0.24885 0.93209 0.7807 0.0
C1950 C 0.27025 0.9325 0.77516 0.0
H1951 H 0.21708 0.92981 0.76986 0.0
H1952 H 0.24416 0.92979 0.79695 0.0
C1953 C 0.27577 0.93573 0.75394 0.0
C1954 C 0.07823 0.26016 0.73816 0.0
C1955 C 0.08142 0.23895 0.74368 0.0
H1956 H 0.07803 0.29222 0.74909 0.0
C1957 C 0.08181 0.23341 0.76508 0.0
H1958 H 0.07801 0.26486 0.72176 0.0
C1959 C 0.08182 0.24893 0.78059 0.0
C1960 C 0.08143 0.27033 0.77503 0.0
H1961 H 0.08407 0.21715 0.76977 0.0
H1962 H 0.08409 0.24425 0.79685 0.0
C1963 C 0.07824 0.27583 0.75381 0.0
C1964 C 0.76516 0.08189 0.78054 0.0
C1965 C 0.74376 0.08147 0.775 0.0
H1966 H 0.79693 0.08419 0.7697 0.0
C1967 C 0.73825 0.07827 0.75379 0.0
H1968 H 0.76985 0.08417 0.7968 0.0
C1969 C 0.7539 0.07828 0.73812 0.0
C1970 C 0.77512 0.08149 0.74362 0.0
H1971 H 0.72184 0.07803 0.74909 0.0
H1972 H 0.74919 0.07804 0.72173 0.0
C1973 C 0.78068 0.0819 0.76502 0.0
C1974 C 0.932 0.76513 0.78064 0.0
C1975 C 0.93243 0.74373 0.77509 0.0
H1976 H 0.92969 0.7969 0.76981 0.0
C1977 C 0.93566 0.73823 0.75387 0.0
H1978 H 0.9297 0.76981 0.79689 0.0
C1979 C 0.93566 0.7539 0.73822 0.0
C1980 C 0.93243 0.77511 0.74372 0.0
H1981 H 0.93592 0.72184 0.74917 0.0
H1982 H 0.93591 0.7492 0.72182 0.0
C1983 C 0.93199 0.78065 0.76512 0.0
C1984 C 0.26 0.27578 0.07822 0.0
C1985 C 0.23877 0.27028 0.0814 0.0
H1986 H 0.29206 0.26483 0.07804 0.0
C1987 C 0.23322 0.24888 0.0818 0.0
H1988 H 0.2647 0.29218 0.07799 0.0
C1989 C 0.24874 0.23336 0.08183 0.0
C1990 C 0.27014 0.23891 0.08146 0.0
H1991 H 0.21696 0.2442 0.08406 0.0
H1992 H 0.24405 0.21711 0.08411 0.0
C1993 C 0.27566 0.26013 0.07825 0.0
C1994 C 0.26017 0.73829 0.93567 0.0
C1995 C 0.23895 0.7438 0.93247 0.0
H1996 H 0.29223 0.74926 0.93589 0.0
C1997 C 0.23339 0.76519 0.93208 0.0
H1998 H 0.26487 0.7219 0.93589 0.0
C1999 C 0.24891 0.78072 0.93208 0.0
C2000 C 0.27031 0.77517 0.93248 0.0
H2001 H 0.21713 0.76987 0.92981 0.0
H2002 H 0.24422 0.79697 0.92981 0.0
C2003 C 0.27582 0.75396 0.93567 0.0
C2004 C 0.23321 0.24886 0.932 0.0
C2005 C 0.23876 0.27026 0.93241 0.0
H2006 H 0.24404 0.21709 0.92973 0.0
C2007 C 0.25998 0.27577 0.93562 0.0
H2008 H 0.21695 0.24418 0.92971 0.0
C2009 C 0.27563 0.26011 0.93564 0.0
C2010 C 0.27012 0.23889 0.93243 0.0
H2011 H 0.26468 0.29217 0.93586 0.0
H2012 H 0.29203 0.26481 0.93588 0.0
C2013 C 0.24872 0.23335 0.93201 0.0
C2014 C 0.73829 0.25996 0.93552 0.0
C2015 C 0.7438 0.23874 0.9323 0.0
H2016 H 0.74924 0.29201 0.93576 0.0
C2017 C 0.7652 0.2332 0.93188 0.0
H2018 H 0.72189 0.26465 0.93576 0.0
C2019 C 0.78072 0.24872 0.93189 0.0
C2020 C 0.77517 0.27012 0.9323 0.0
H2021 H 0.76988 0.21694 0.9296 0.0
H2022 H 0.79697 0.24404 0.9296 0.0
C2023 C 0.75394 0.27562 0.93552 0.0
C2024 C 0.73828 0.75382 0.93554 0.0
C2025 C 0.7438 0.77503 0.93232 0.0
H2026 H 0.74923 0.72176 0.9358 0.0
C2027 C 0.7652 0.78057 0.93192 0.0
H2028 H 0.72188 0.74912 0.93578 0.0
C2029 C 0.78071 0.76505 0.93194 0.0
C2030 C 0.77516 0.74366 0.93236 0.0
H2031 H 0.76989 0.79683 0.92963 0.0
H2032 H 0.79697 0.76974 0.92966 0.0
C2033 C 0.75394 0.73816 0.93556 0.0
C2034 C 0.75403 0.73813 0.07824 0.0
C2035 C 0.77525 0.74364 0.08145 0.0
H2036 H 0.72198 0.74909 0.07798 0.0
C2037 C 0.78081 0.76503 0.08185 0.0
H2038 H 0.74933 0.72173 0.07801 0.0
C2039 C 0.76529 0.78055 0.08183 0.0
C2040 C 0.74389 0.77501 0.08142 0.0
H2041 H 0.79707 0.76971 0.08413 0.0
H2042 H 0.76998 0.79681 0.08411 0.0
C2043 C 0.73838 0.75379 0.07822 0.0
C2044 C 0.23342 0.76519 0.08201 0.0
C2045 C 0.23898 0.7438 0.08159 0.0
H2046 H 0.24425 0.79697 0.08429 0.0
C2047 C 0.2602 0.7383 0.07837 0.0
H2048 H 0.21717 0.76987 0.08431 0.0
C2049 C 0.27585 0.75396 0.07836 0.0
C2050 C 0.27034 0.77518 0.08158 0.0
H2051 H 0.2649 0.7219 0.07813 0.0
H2052 H 0.29225 0.74926 0.07811 0.0
C2053 C 0.24894 0.78072 0.082 0.0
C2054 C 0.73824 0.25991 0.07822 0.0
C2055 C 0.74375 0.2387 0.08144 0.0
H2056 H 0.74919 0.29197 0.07797 0.0
C2057 C 0.76515 0.23316 0.08186 0.0
H2058 H 0.72184 0.26461 0.07798 0.0
C2059 C 0.78067 0.24868 0.08185 0.0
C2060 C 0.77512 0.27007 0.08142 0.0
H2061 H 0.76984 0.2169 0.08415 0.0
H2062 H 0.79693 0.244 0.08413 0.0
C2063 C 0.7539 0.27557 0.07821 0.0
C2064 C 0.58194 0.74873 0.73322 0.0
C2065 C 0.58154 0.77012 0.73878 0.0
H2066 H 0.58421 0.71695 0.74405 0.0
C2067 C 0.57834 0.77562 0.76 0.0
H2068 H 0.58422 0.74405 0.71697 0.0
C2069 C 0.57833 0.75996 0.77565 0.0
C2070 C 0.58153 0.73874 0.77014 0.0
H2071 H 0.57811 0.79202 0.7647 0.0
H2072 H 0.5781 0.76466 0.79205 0.0
C2073 C 0.58193 0.7332 0.74874 0.0
C2074 C 0.2383 0.57829 0.76009 0.0
C2075 C 0.24382 0.58151 0.73887 0.0
H2076 H 0.24924 0.57805 0.79215 0.0
C2077 C 0.26522 0.5819 0.73333 0.0
H2078 H 0.2219 0.57807 0.76478 0.0
C2079 C 0.28073 0.58189 0.74885 0.0
C2080 C 0.27517 0.58148 0.77025 0.0
H2081 H 0.26991 0.58419 0.71708 0.0
H2082 H 0.29699 0.58417 0.74418 0.0
C2083 C 0.25395 0.57828 0.77575 0.0
C2084 C 0.43205 0.26516 0.73328 0.0
C2085 C 0.43246 0.24377 0.73883 0.0
H2086 H 0.42977 0.29693 0.74412 0.0
C2087 C 0.43565 0.23825 0.76005 0.0
H2088 H 0.42978 0.26985 0.71703 0.0
C2089 C 0.43565 0.25391 0.77571 0.0
C2090 C 0.43245 0.27513 0.7702 0.0
H2091 H 0.43588 0.22185 0.76475 0.0
H2092 H 0.43588 0.2492 0.7921 0.0
C2093 C 0.43205 0.28068 0.7488 0.0
C2094 C 0.76005 0.43555 0.77556 0.0
C2095 C 0.73883 0.43235 0.77006 0.0
H2096 H 0.7921 0.43577 0.76459 0.0
C2097 C 0.73327 0.43194 0.74867 0.0
H2098 H 0.76476 0.43578 0.79195 0.0
C2099 C 0.74878 0.43193 0.73314 0.0
C2100 C 0.77018 0.43234 0.73868 0.0
H2101 H 0.71701 0.42966 0.74399 0.0
H2102 H 0.74409 0.42965 0.71689 0.0
C2103 C 0.7757 0.43554 0.75989 0.0
C2104 C 0.58188 0.26499 0.28056 0.0
C2105 C 0.58144 0.2436 0.27501 0.0
H2106 H 0.58422 0.29677 0.26974 0.0
C2107 C 0.57823 0.23811 0.25379 0.0
H2108 H 0.58417 0.26966 0.29682 0.0
C2109 C 0.57825 0.25377 0.23814 0.0
C2110 C 0.58149 0.27499 0.24365 0.0
H2111 H 0.57797 0.22171 0.24908 0.0
H2112 H 0.57801 0.24908 0.22174 0.0
C2113 C 0.58191 0.28052 0.26505 0.0
C2114 C 0.74888 0.5818 0.2806 0.0
C2115 C 0.77028 0.58139 0.27505 0.0
H2116 H 0.71711 0.58407 0.26977 0.0
C2117 C 0.77579 0.57818 0.25383 0.0
H2118 H 0.7442 0.58408 0.29686 0.0
C2119 C 0.76013 0.57818 0.23818 0.0
C2120 C 0.73891 0.58138 0.24369 0.0
H2121 H 0.79219 0.57795 0.24913 0.0
H2122 H 0.76483 0.57794 0.22178 0.0
C2123 C 0.73336 0.58179 0.26508 0.0
C2124 C 0.43218 0.73331 0.26516 0.0
C2125 C 0.43259 0.73886 0.24376 0.0
H2126 H 0.42989 0.74414 0.29693 0.0
C2127 C 0.43579 0.76008 0.23825 0.0
H2128 H 0.42991 0.71705 0.26984 0.0
C2129 C 0.43578 0.77573 0.2539 0.0
C2130 C 0.43257 0.77022 0.27512 0.0
H2131 H 0.43602 0.76477 0.22185 0.0
H2132 H 0.43601 0.79213 0.2492 0.0
C2133 C 0.43218 0.74883 0.28067 0.0
C2134 C 0.28068 0.43192 0.26511 0.0
C2135 C 0.27513 0.43236 0.24372 0.0
H2136 H 0.26985 0.42959 0.29689 0.0
C2137 C 0.25391 0.43557 0.23822 0.0
H2138 H 0.29694 0.42963 0.26979 0.0
C2139 C 0.23826 0.43555 0.25388 0.0
C2140 C 0.24377 0.43232 0.27509 0.0
H2141 H 0.24921 0.43582 0.22182 0.0
H2142 H 0.22185 0.43579 0.24918 0.0
C2143 C 0.26517 0.4319 0.28063 0.0
C2144 C 0.73332 0.58184 0.74875 0.0
C2145 C 0.73886 0.58143 0.77015 0.0
H2146 H 0.74416 0.58413 0.71698 0.0
C2147 C 0.76008 0.57821 0.77566 0.0
H2148 H 0.71706 0.58413 0.74406 0.0
C2149 C 0.77574 0.57821 0.76 0.0
C2150 C 0.77024 0.58142 0.73879 0.0
H2151 H 0.76477 0.57797 0.79206 0.0
H2152 H 0.79214 0.57797 0.76471 0.0
C2153 C 0.74884 0.58184 0.73323 0.0
C2154 C 0.43568 0.77573 0.76005 0.0
C2155 C 0.43244 0.77023 0.73884 0.0
H2156 H 0.43593 0.76477 0.7921 0.0
C2157 C 0.43201 0.74884 0.73328 0.0
H2158 H 0.43593 0.79213 0.76475 0.0
C2159 C 0.43201 0.73332 0.7488 0.0
C2160 C 0.43245 0.73886 0.7702 0.0
H2161 H 0.42971 0.74416 0.71703 0.0
H2162 H 0.42971 0.71706 0.74411 0.0
C2163 C 0.43568 0.76007 0.77571 0.0
C2164 C 0.25394 0.43566 0.77563 0.0
C2165 C 0.27517 0.43244 0.77013 0.0
H2166 H 0.22189 0.43591 0.76467 0.0
C2167 C 0.28072 0.43203 0.74874 0.0
H2168 H 0.24924 0.43589 0.79203 0.0
C2169 C 0.26521 0.43205 0.73321 0.0
C2170 C 0.2438 0.43247 0.73875 0.0
H2171 H 0.29698 0.42975 0.74406 0.0
H2172 H 0.2699 0.42977 0.71696 0.0
C2173 C 0.23829 0.43567 0.75997 0.0
C2174 C 0.58192 0.28059 0.74872 0.0
C2175 C 0.58151 0.27504 0.77011 0.0
H2176 H 0.58421 0.26976 0.71694 0.0
C2177 C 0.57829 0.25383 0.77562 0.0
H2178 H 0.58421 0.29685 0.74403 0.0
C2179 C 0.57829 0.23817 0.75996 0.0
C2180 C 0.58151 0.24368 0.73875 0.0
H2181 H 0.57805 0.24912 0.79202 0.0
H2182 H 0.57805 0.22177 0.76467 0.0
C2183 C 0.58192 0.26508 0.7332 0.0
C2184 C 0.74879 0.43199 0.28053 0.0
C2185 C 0.77019 0.43238 0.27499 0.0
H2186 H 0.71701 0.42971 0.26969 0.0
C2187 C 0.77571 0.43557 0.25377 0.0
H2188 H 0.7441 0.42972 0.29679 0.0
C2189 C 0.76005 0.43556 0.2381 0.0
C2190 C 0.73883 0.43237 0.24361 0.0
H2191 H 0.79211 0.43579 0.24907 0.0
H2192 H 0.76476 0.43578 0.22171 0.0
C2193 C 0.73327 0.43198 0.26501 0.0
C2194 C 0.57843 0.7756 0.25388 0.0
C2195 C 0.58163 0.77009 0.27509 0.0
H2196 H 0.57821 0.76467 0.22182 0.0
C2197 C 0.58205 0.74868 0.28063 0.0
H2198 H 0.57819 0.79201 0.24919 0.0
C2199 C 0.58206 0.73318 0.2651 0.0
C2200 C 0.58165 0.73874 0.24371 0.0
H2201 H 0.58432 0.74399 0.29688 0.0
H2202 H 0.58434 0.71692 0.26978 0.0
C2203 C 0.57844 0.75996 0.23821 0.0
C2204 C 0.25403 0.57831 0.23833 0.0
C2205 C 0.27525 0.58153 0.24384 0.0
H2206 H 0.22197 0.57805 0.24929 0.0
C2207 C 0.2808 0.58193 0.26524 0.0
H2208 H 0.24933 0.57808 0.22193 0.0
C2209 C 0.26528 0.58191 0.28076 0.0
C2210 C 0.24388 0.58149 0.27521 0.0
H2211 H 0.29705 0.58422 0.26992 0.0
H2212 H 0.26996 0.58419 0.29701 0.0
C2213 C 0.23837 0.57829 0.25399 0.0
C2214 C 0.43552 0.23823 0.25392 0.0
C2215 C 0.4323 0.24373 0.27514 0.0
H2216 H 0.4358 0.24919 0.22187 0.0
C2217 C 0.43189 0.26513 0.28069 0.0
H2218 H 0.43576 0.22183 0.24922 0.0
C2219 C 0.43192 0.28065 0.26517 0.0
C2220 C 0.43235 0.27511 0.24377 0.0
H2221 H 0.4296 0.26981 0.29694 0.0
H2222 H 0.42964 0.29691 0.26986 0.0
C2223 C 0.43555 0.25389 0.23827 0.0
C2224 C 0.74888 0.73318 0.58192 0.0
C2225 C 0.77028 0.73872 0.58149 0.0
H2226 H 0.71711 0.74401 0.58423 0.0
C2227 C 0.77579 0.75994 0.57829 0.0
H2228 H 0.7442 0.71692 0.5842 0.0
C2229 C 0.76014 0.7756 0.5783 0.0
C2230 C 0.73892 0.77009 0.58152 0.0
H2231 H 0.79219 0.76464 0.57804 0.0
H2232 H 0.76484 0.792 0.57806 0.0
C2233 C 0.73336 0.74869 0.58193 0.0
C2234 C 0.74865 0.28048 0.43178 0.0
C2235 C 0.77005 0.27494 0.43221 0.0
H2236 H 0.71687 0.26964 0.42951 0.0
C2237 C 0.77556 0.25373 0.43544 0.0
H2238 H 0.74396 0.29674 0.42949 0.0
C2239 C 0.7599 0.23807 0.43545 0.0
C2240 C 0.73868 0.24357 0.43223 0.0
H2241 H 0.79196 0.24903 0.43569 0.0
H2242 H 0.76461 0.22167 0.4357 0.0
C2243 C 0.73313 0.26496 0.4318 0.0
C2244 C 0.74889 0.7331 0.43202 0.0
C2245 C 0.77029 0.73864 0.43243 0.0
H2246 H 0.71712 0.74393 0.42974 0.0
C2247 C 0.7758 0.75986 0.43564 0.0
H2248 H 0.74421 0.71684 0.42974 0.0
C2249 C 0.76015 0.77552 0.43564 0.0
C2250 C 0.73893 0.77001 0.43243 0.0
H2251 H 0.79221 0.76456 0.43587 0.0
H2252 H 0.76485 0.79192 0.43587 0.0
C2253 C 0.73337 0.74862 0.43202 0.0
C2254 C 0.23838 0.75995 0.43565 0.0
C2255 C 0.24389 0.73873 0.43245 0.0
H2256 H 0.24932 0.79201 0.43588 0.0
C2257 C 0.2653 0.7332 0.43204 0.0
H2258 H 0.22197 0.76464 0.43589 0.0
C2259 C 0.28081 0.74873 0.43203 0.0
C2260 C 0.27525 0.77012 0.43244 0.0
H2261 H 0.26999 0.71695 0.42976 0.0
H2262 H 0.29707 0.74405 0.42975 0.0
C2263 C 0.25403 0.77562 0.43565 0.0
C2264 C 0.28056 0.26502 0.43205 0.0
C2265 C 0.27501 0.24362 0.43246 0.0
H2266 H 0.26974 0.29679 0.42976 0.0
C2267 C 0.25378 0.23812 0.43566 0.0
H2268 H 0.29682 0.2697 0.42978 0.0
C2269 C 0.23813 0.25378 0.43564 0.0
C2270 C 0.24365 0.27499 0.43244 0.0
H2271 H 0.24908 0.22172 0.43589 0.0
H2272 H 0.22173 0.24908 0.43587 0.0
C2273 C 0.26505 0.28054 0.43204 0.0
C2274 C 0.26514 0.28073 0.58189 0.0
C2275 C 0.24374 0.27518 0.58149 0.0
H2276 H 0.29692 0.26991 0.58416 0.0
C2277 C 0.23823 0.25396 0.57829 0.0
H2278 H 0.26982 0.29699 0.58416 0.0
C2279 C 0.25389 0.23831 0.57829 0.0
C2280 C 0.27511 0.24382 0.58149 0.0
H2281 H 0.22183 0.24926 0.57807 0.0
H2282 H 0.24919 0.22191 0.57807 0.0
C2283 C 0.28066 0.26522 0.58189 0.0
C2284 C 0.77559 0.25383 0.57815 0.0
C2285 C 0.77008 0.27504 0.58136 0.0
H2286 H 0.76465 0.22177 0.57791 0.0
C2287 C 0.74868 0.28058 0.58176 0.0
H2288 H 0.792 0.24914 0.57792 0.0
C2289 C 0.73316 0.26506 0.58175 0.0
C2290 C 0.73872 0.24366 0.58134 0.0
H2291 H 0.74399 0.29683 0.58405 0.0
H2292 H 0.7169 0.26974 0.58403 0.0
C2293 C 0.75994 0.23816 0.57814 0.0
C2294 C 0.28075 0.74893 0.58195 0.0
C2295 C 0.2752 0.77032 0.58153 0.0
H2296 H 0.26992 0.71715 0.58426 0.0
C2297 C 0.25398 0.77582 0.57832 0.0
H2298 H 0.29701 0.74425 0.58424 0.0
C2299 C 0.23832 0.76016 0.57833 0.0
C2300 C 0.24383 0.73895 0.58155 0.0
H2301 H 0.24927 0.79222 0.57808 0.0
H2302 H 0.22192 0.76486 0.5781 0.0
C2303 C 0.26523 0.7334 0.58196 0.0
C2304 C 0.01794 0.21457 0.34782 0.0
C2305 C 0.02922 0.19919 0.33652 0.0
H2306 H 0.98753 0.22693 0.35616 0.0
C2307 C 0.01788 0.18343 0.32588 0.0
H2308 H 0.0262 0.22694 0.35617 0.0
C2309 C 0.99587 0.18342 0.32588 0.0
C2310 C 0.98452 0.19917 0.33652 0.0
H2311 H 0.026 0.17128 0.31709 0.0
H2312 H 0.98776 0.17127 0.31708 0.0
C2313 C 0.99579 0.21457 0.34781 0.0
C2314 C 0.79927 0.99571 0.34784 0.0
C2315 C 0.81468 0.98445 0.33655 0.0
H2316 H 0.78686 0.0261 0.35618 0.0
C2317 C 0.83041 0.99582 0.3259 0.0
H2318 H 0.78691 0.98743 0.3562 0.0
C2319 C 0.83038 0.01783 0.32589 0.0
C2320 C 0.81461 0.02915 0.33653 0.0
H2321 H 0.84258 0.98772 0.31711 0.0
H2322 H 0.84253 0.02596 0.31709 0.0
C2323 C 0.79924 0.01786 0.34783 0.0
C2324 C 0.99599 0.79906 0.34795 0.0
C2325 C 0.98473 0.81445 0.33665 0.0
H2326 H 0.02639 0.78668 0.35633 0.0
C2327 C 0.99609 0.83021 0.32603 0.0
H2328 H 0.98772 0.78669 0.35629 0.0
C2329 C 0.0181 0.83021 0.32605 0.0
C2330 C 0.02943 0.81445 0.3367 0.0
H2331 H 0.98799 0.84237 0.31723 0.0
H2332 H 0.02623 0.84237 0.31727 0.0
C2333 C 0.01814 0.79906 0.34797 0.0
C2334 C 0.21465 0.01792 0.34795 0.0
C2335 C 0.19924 0.02917 0.33666 0.0
H2336 H 0.22705 0.98752 0.3563 0.0
C2337 C 0.18351 0.01781 0.32601 0.0
H2338 H 0.227 0.02619 0.35631 0.0
C2339 C 0.18353 0.9958 0.32601 0.0
C2340 C 0.1993 0.98447 0.33665 0.0
H2341 H 0.17134 0.02591 0.31721 0.0
H2342 H 0.17139 0.98767 0.31721 0.0
C2343 C 0.21468 0.99577 0.34795 0.0
C2344 C 0.01799 0.83045 0.688 0.0
C2345 C 0.02936 0.81471 0.67737 0.0
H2346 H 0.98785 0.84257 0.69678 0.0
C2347 C 0.01811 0.79931 0.66606 0.0
H2348 H 0.02609 0.84261 0.69681 0.0
C2349 C 0.99596 0.79929 0.66604 0.0
C2350 C 0.98466 0.81467 0.67733 0.0
H2351 H 0.02639 0.78696 0.65771 0.0
H2352 H 0.98771 0.78692 0.65767 0.0
C2353 C 0.99598 0.83042 0.68798 0.0
C2354 C 0.18358 0.01811 0.688 0.0
C2355 C 0.19932 0.02947 0.67737 0.0
H2356 H 0.17144 0.98798 0.6968 0.0
C2357 C 0.21472 0.01821 0.66607 0.0
H2358 H 0.17141 0.02622 0.6968 0.0
C2359 C 0.21474 0.99606 0.66607 0.0
C2360 C 0.19936 0.98477 0.67736 0.0
H2361 H 0.22709 0.02648 0.65772 0.0
H2362 H 0.22711 0.98781 0.65772 0.0
C2363 C 0.18359 0.9961 0.688 0.0
C2364 C 0.99593 0.18361 0.68778 0.0
C2365 C 0.98458 0.19937 0.67715 0.0
H2366 H 0.02606 0.17147 0.69659 0.0
C2367 C 0.99586 0.21478 0.66587 0.0
H2368 H 0.98781 0.17144 0.69656 0.0
C2369 C 0.01801 0.21479 0.66589 0.0
C2370 C 0.02929 0.1994 0.67719 0.0
H2371 H 0.9876 0.22715 0.65753 0.0
H2372 H 0.02628 0.22717 0.65756 0.0
C2373 C 0.01794 0.18363 0.6878 0.0
C2374 C 0.79926 0.01803 0.66589 0.0
C2375 C 0.81465 0.02931 0.67718 0.0
H2376 H 0.7869 0.98761 0.65756 0.0
C2377 C 0.83041 0.01797 0.68782 0.0
H2378 H 0.78688 0.02628 0.65755 0.0
C2379 C 0.83042 0.99597 0.68783 0.0
C2380 C 0.81466 0.98461 0.67719 0.0
H2381 H 0.84257 0.0261 0.69661 0.0
H2382 H 0.84258 0.98785 0.69662 0.0
C2383 C 0.79927 0.99588 0.6659 0.0
C2384 C 0.326 0.996 0.18356 0.0
C2385 C 0.33665 0.98467 0.19932 0.0
H2386 H 0.31717 0.02611 0.1714 0.0
C2387 C 0.34793 0.99596 0.21471 0.0
H2388 H 0.31722 0.98787 0.17141 0.0
C2389 C 0.3479 0.01811 0.21471 0.0
C2390 C 0.33659 0.02937 0.19932 0.0
H2391 H 0.35629 0.98771 0.22709 0.0
H2392 H 0.35623 0.02638 0.22708 0.0
C2393 C 0.32597 0.01801 0.18356 0.0
C2394 C 0.99586 0.34782 0.21464 0.0
C2395 C 0.98459 0.33653 0.19924 0.0
H2396 H 0.02627 0.35617 0.22702 0.0
C2397 C 0.99595 0.3259 0.18349 0.0
H2398 H 0.9876 0.35617 0.227 0.0
C2399 C 0.01796 0.32591 0.18349 0.0
C2400 C 0.0293 0.33654 0.19926 0.0
H2401 H 0.98783 0.31711 0.17132 0.0
H2402 H 0.02608 0.31712 0.17134 0.0
C2403 C 0.01802 0.34783 0.21464 0.0
C2404 C 0.68798 0.9958 0.18345 0.0
C2405 C 0.67736 0.98445 0.19921 0.0
H2406 H 0.69673 0.02594 0.17128 0.0
C2407 C 0.66604 0.99571 0.21459 0.0
H2408 H 0.69679 0.9877 0.1713 0.0
C2409 C 0.666 0.01786 0.21458 0.0
C2410 C 0.67728 0.02915 0.19918 0.0
H2411 H 0.6577 0.98744 0.22697 0.0
H2412 H 0.65764 0.02611 0.22694 0.0
C2413 C 0.68794 0.01781 0.18344 0.0
C2414 C 0.01814 0.68778 0.18355 0.0
C2415 C 0.02947 0.67714 0.19931 0.0
H2416 H 0.98802 0.69658 0.17137 0.0
C2417 C 0.01817 0.66585 0.21469 0.0
H2418 H 0.02627 0.69657 0.17139 0.0
C2419 C 0.99602 0.66586 0.21468 0.0
C2420 C 0.98476 0.67716 0.19928 0.0
H2421 H 0.02642 0.6575 0.22707 0.0
H2422 H 0.98775 0.65751 0.22704 0.0
C2423 C 0.99613 0.68779 0.18353 0.0
C2424 C 0.32602 0.99605 0.83043 0.0
C2425 C 0.33666 0.98472 0.81468 0.0
H2426 H 0.3172 0.02616 0.84259 0.0
C2427 C 0.34795 0.996 0.79929 0.0
H2428 H 0.31723 0.98792 0.84259 0.0
C2429 C 0.34793 0.01815 0.79929 0.0
C2430 C 0.33663 0.02941 0.81468 0.0
H2431 H 0.3563 0.98775 0.78691 0.0
H2432 H 0.35627 0.02642 0.78692 0.0
C2433 C 0.326 0.01806 0.83043 0.0
C2434 C 0.01804 0.34804 0.7991 0.0
C2435 C 0.02932 0.33678 0.81451 0.0
H2436 H 0.98762 0.35634 0.7867 0.0
C2437 C 0.01797 0.32615 0.83027 0.0
H2438 H 0.0263 0.35638 0.78672 0.0
C2439 C 0.99596 0.32612 0.83026 0.0
C2440 C 0.98461 0.33672 0.81448 0.0
H2441 H 0.02609 0.31738 0.84245 0.0
H2442 H 0.98784 0.31733 0.84242 0.0
C2443 C 0.99589 0.34802 0.79909 0.0
C2444 C 0.66603 0.01798 0.79915 0.0
C2445 C 0.67732 0.02925 0.81454 0.0
H2446 H 0.65769 0.98757 0.78678 0.0
C2447 C 0.68796 0.01791 0.8303 0.0
H2448 H 0.65769 0.02624 0.78678 0.0
C2449 C 0.68796 0.9959 0.83031 0.0
C2450 C 0.67732 0.98456 0.81455 0.0
H2451 H 0.69675 0.02603 0.84246 0.0
H2452 H 0.69675 0.98779 0.84247 0.0
C2453 C 0.66603 0.99583 0.79915 0.0
C2454 C 0.99603 0.68804 0.83038 0.0
C2455 C 0.98471 0.67737 0.81463 0.0
H2456 H 0.02614 0.69687 0.84254 0.0
C2457 C 0.996 0.66608 0.79925 0.0
H2458 H 0.9879 0.69683 0.84252 0.0
C2459 C 0.01816 0.6661 0.79927 0.0
C2460 C 0.02941 0.67742 0.81465 0.0
H2461 H 0.98776 0.65771 0.78689 0.0
H2462 H 0.02643 0.65775 0.78691 0.0
C2463 C 0.01804 0.68806 0.83039 0.0
C2464 C 0.18349 0.32611 0.0179 0.0
C2465 C 0.19925 0.33674 0.02924 0.0
H2466 H 0.17133 0.31731 0.98778 0.0
C2467 C 0.21464 0.34804 0.01797 0.0
H2468 H 0.17133 0.31732 0.02602 0.0
C2469 C 0.21464 0.34803 0.99582 0.0
C2470 C 0.19925 0.33674 0.98454 0.0
H2471 H 0.22702 0.35638 0.02622 0.0
H2472 H 0.22701 0.35638 0.98756 0.0
C2473 C 0.18349 0.32611 0.99589 0.0
C2474 C 0.18369 0.688 0.99607 0.0
C2475 C 0.19944 0.67737 0.98471 0.0
H2476 H 0.17155 0.69679 0.0262 0.0
C2477 C 0.21483 0.66607 0.99597 0.0
H2478 H 0.17153 0.6968 0.98796 0.0
C2479 C 0.21485 0.66606 0.01812 0.0
C2480 C 0.19947 0.67735 0.02941 0.0
H2481 H 0.2272 0.65772 0.9877 0.0
H2482 H 0.22722 0.65771 0.02637 0.0
C2483 C 0.1837 0.688 0.01807 0.0
C2484 C 0.34788 0.21477 0.01809 0.0
C2485 C 0.33659 0.19938 0.02937 0.0
H2486 H 0.35622 0.22715 0.98768 0.0
C2487 C 0.32595 0.18362 0.01802 0.0
H2488 H 0.35623 0.22714 0.02635 0.0
C2489 C 0.32595 0.18363 0.99602 0.0
C2490 C 0.33658 0.19939 0.98467 0.0
H2491 H 0.31716 0.17146 0.02614 0.0
H2492 H 0.31715 0.17147 0.9879 0.0
C2493 C 0.34788 0.21478 0.99594 0.0
C2494 C 0.83041 0.32592 0.99585 0.0
C2495 C 0.81466 0.33656 0.9845 0.0
H2496 H 0.84256 0.31711 0.02597 0.0
C2497 C 0.79926 0.34784 0.99577 0.0
H2498 H 0.84257 0.31713 0.98773 0.0
C2499 C 0.79925 0.34783 0.01792 0.0
C2500 C 0.81464 0.33653 0.0292 0.0
H2501 H 0.78689 0.35619 0.98751 0.0
H2502 H 0.78688 0.35617 0.02618 0.0
C2503 C 0.8304 0.32591 0.01785 0.0
C2504 C 0.66611 0.79913 0.01795 0.0
C2505 C 0.67741 0.81452 0.02922 0.0
H2506 H 0.65775 0.78676 0.98754 0.0
C2507 C 0.68803 0.83028 0.01786 0.0
H2508 H 0.65778 0.78675 0.02621 0.0
C2509 C 0.68801 0.83029 0.99586 0.0
C2510 C 0.67737 0.81453 0.98452 0.0
H2511 H 0.69682 0.84245 0.02598 0.0
H2512 H 0.69679 0.84246 0.98774 0.0
C2513 C 0.66609 0.79913 0.9958 0.0
C2514 C 0.83047 0.68783 0.01791 0.0
C2515 C 0.81472 0.67719 0.02927 0.0
H2516 H 0.84261 0.69664 0.98778 0.0
C2517 C 0.79932 0.6659 0.018 0.0
H2518 H 0.84264 0.69662 0.02602 0.0
C2519 C 0.79931 0.66591 0.99585 0.0
C2520 C 0.81469 0.67721 0.98457 0.0
H2521 H 0.78696 0.65755 0.02627 0.0
H2522 H 0.78693 0.65756 0.9876 0.0
C2523 C 0.83046 0.68784 0.99591 0.0
C2524 C 0.34807 0.7993 0.01808 0.0
C2525 C 0.33679 0.81469 0.02935 0.0
H2526 H 0.35641 0.78693 0.98766 0.0
C2527 C 0.32615 0.83045 0.01801 0.0
H2528 H 0.35642 0.78693 0.02633 0.0
C2529 C 0.32615 0.83046 0.99601 0.0
C2530 C 0.33678 0.8147 0.98466 0.0
H2531 H 0.31737 0.84261 0.02613 0.0
H2532 H 0.31736 0.84262 0.98789 0.0
C2533 C 0.34807 0.7993 0.99593 0.0
C2534 C 0.68797 0.18346 0.99586 0.0
C2535 C 0.67734 0.19922 0.98452 0.0
H2536 H 0.69675 0.17129 0.02599 0.0
C2537 C 0.66604 0.21461 0.99579 0.0
H2538 H 0.69677 0.17131 0.98775 0.0
C2539 C 0.66603 0.2146 0.01794 0.0
C2540 C 0.67732 0.1992 0.02922 0.0
H2541 H 0.6577 0.22698 0.98753 0.0
H2542 H 0.65768 0.22697 0.0262 0.0
C2543 C 0.68796 0.18345 0.01787 0.0
C2544 C 0.49594 0.71467 0.84792 0.0
C2545 C 0.48464 0.6993 0.83663 0.0
H2546 H 0.52636 0.72702 0.85626 0.0
C2547 C 0.49597 0.68353 0.82599 0.0
H2548 H 0.48769 0.72705 0.85627 0.0
C2549 C 0.51798 0.68351 0.82598 0.0
C2550 C 0.52935 0.69926 0.83661 0.0
H2551 H 0.48784 0.67138 0.8172 0.0
H2552 H 0.52609 0.67135 0.81718 0.0
C2553 C 0.51809 0.71466 0.84791 0.0
C2554 C 0.29928 0.51804 0.84796 0.0
C2555 C 0.31468 0.52933 0.83668 0.0
H2556 H 0.2869 0.48763 0.85627 0.0
C2557 C 0.33043 0.518 0.82603 0.0
H2558 H 0.28691 0.52629 0.85631 0.0
C2559 C 0.33043 0.49599 0.82601 0.0
C2560 C 0.31467 0.48463 0.83663 0.0
H2561 H 0.34259 0.52612 0.81725 0.0
H2562 H 0.34259 0.48788 0.8172 0.0
C2563 C 0.29928 0.49589 0.84793 0.0
C2564 C 0.51806 0.29919 0.8479 0.0
C2565 C 0.52934 0.31457 0.8366 0.0
H2566 H 0.48764 0.28684 0.85626 0.0
C2567 C 0.518 0.33034 0.82597 0.0
H2568 H 0.52631 0.28681 0.85623 0.0
C2569 C 0.49599 0.33036 0.82599 0.0
C2570 C 0.48464 0.31461 0.83663 0.0
H2571 H 0.52612 0.3425 0.81718 0.0
H2572 H 0.48787 0.34252 0.81721 0.0
C2573 C 0.49591 0.2992 0.84791 0.0
C2574 C 0.68357 0.49588 0.82591 0.0
C2575 C 0.69933 0.48453 0.83654 0.0
H2576 H 0.67141 0.52601 0.81713 0.0
C2577 C 0.71472 0.49581 0.84784 0.0
H2578 H 0.67142 0.48777 0.81711 0.0
C2579 C 0.71472 0.51796 0.84785 0.0
C2580 C 0.69932 0.52923 0.83656 0.0
H2581 H 0.72709 0.48754 0.85619 0.0
H2582 H 0.72709 0.52621 0.85621 0.0
C2583 C 0.68357 0.51789 0.82592 0.0
C2584 C 0.496 0.33032 0.18791 0.0
C2585 C 0.48463 0.31456 0.17729 0.0
H2586 H 0.52614 0.34246 0.19667 0.0
C2587 C 0.49588 0.29916 0.16599 0.0
H2588 H 0.48789 0.34248 0.19671 0.0
C2589 C 0.51803 0.29915 0.16597 0.0
C2590 C 0.52933 0.31454 0.17725 0.0
H2591 H 0.4876 0.2868 0.15766 0.0
H2592 H 0.52628 0.28677 0.15762 0.0
C2593 C 0.518 0.3303 0.18789 0.0
C2594 C 0.68358 0.49587 0.18782 0.0
C2595 C 0.69933 0.48452 0.17717 0.0
H2596 H 0.67144 0.52599 0.19664 0.0
C2597 C 0.71473 0.49579 0.16589 0.0
H2598 H 0.67141 0.48775 0.19661 0.0
C2599 C 0.71474 0.51794 0.16591 0.0
C2600 C 0.69936 0.52922 0.17721 0.0
H2601 H 0.72709 0.48753 0.15754 0.0
H2602 H 0.72712 0.5262 0.15756 0.0
C2603 C 0.68359 0.51787 0.18784 0.0
C2604 C 0.5181 0.68352 0.18792 0.0
C2605 C 0.52946 0.69927 0.17727 0.0
H2606 H 0.48797 0.67138 0.19673 0.0
C2607 C 0.51819 0.71467 0.16598 0.0
H2608 H 0.52622 0.67136 0.19671 0.0
C2609 C 0.49604 0.71468 0.166 0.0
C2610 C 0.48476 0.6993 0.1773 0.0
H2611 H 0.52645 0.72703 0.15763 0.0
H2612 H 0.48778 0.72706 0.15765 0.0
C2613 C 0.4961 0.68354 0.18793 0.0
C2614 C 0.29931 0.49593 0.16605 0.0
C2615 C 0.31469 0.48463 0.17734 0.0
H2616 H 0.28697 0.52635 0.15771 0.0
C2617 C 0.33045 0.49596 0.18799 0.0
H2618 H 0.28694 0.48768 0.15769 0.0
C2619 C 0.33046 0.51797 0.18801 0.0
C2620 C 0.31472 0.52933 0.17737 0.0
H2621 H 0.3426 0.48783 0.19678 0.0
H2622 H 0.34263 0.52607 0.19681 0.0
C2623 C 0.29933 0.51808 0.16606 0.0
C2624 C 0.82602 0.51792 0.68347 0.0
C2625 C 0.83667 0.52923 0.69923 0.0
H2626 H 0.8172 0.48781 0.67128 0.0
C2627 C 0.84796 0.51793 0.71461 0.0
H2628 H 0.81723 0.52605 0.67132 0.0
C2629 C 0.84795 0.49578 0.71458 0.0
C2630 C 0.83664 0.48454 0.69918 0.0
H2631 H 0.85632 0.52617 0.72698 0.0
H2632 H 0.8563 0.4875 0.72693 0.0
C2633 C 0.82601 0.49591 0.68344 0.0
C2634 C 0.51812 0.84792 0.71468 0.0
C2635 C 0.52938 0.83661 0.69929 0.0
H2636 H 0.48773 0.85629 0.72707 0.0
C2637 C 0.51801 0.82598 0.68354 0.0
H2638 H 0.5264 0.85626 0.72705 0.0
C2639 C 0.49601 0.826 0.68356 0.0
C2640 C 0.48468 0.83665 0.69932 0.0
H2641 H 0.52612 0.81718 0.67138 0.0
H2642 H 0.48787 0.81722 0.6714 0.0
C2643 C 0.49597 0.84794 0.7147 0.0
C2644 C 0.16605 0.51813 0.71469 0.0
C2645 C 0.17734 0.52943 0.69932 0.0
H2646 H 0.15772 0.4877 0.72703 0.0
C2647 C 0.18798 0.5181 0.68355 0.0
H2648 H 0.1577 0.52637 0.72707 0.0
C2649 C 0.18799 0.4961 0.68352 0.0
C2650 C 0.17736 0.48473 0.69927 0.0
H2651 H 0.19678 0.52624 0.6714 0.0
H2652 H 0.19679 0.488 0.67136 0.0
C2653 C 0.16606 0.49598 0.71467 0.0
C2654 C 0.49586 0.16598 0.71469 0.0
C2655 C 0.48459 0.17727 0.6993 0.0
H2656 H 0.52627 0.15762 0.72705 0.0
C2657 C 0.49594 0.18789 0.68353 0.0
H2658 H 0.4876 0.15765 0.72707 0.0
C2659 C 0.51794 0.18787 0.68352 0.0
C2660 C 0.52929 0.17724 0.69928 0.0
H2661 H 0.48782 0.19668 0.67137 0.0
H2662 H 0.52606 0.19665 0.67135 0.0
C2663 C 0.51801 0.16597 0.71468 0.0
C2664 C 0.82605 0.49586 0.3303 0.0
C2665 C 0.83667 0.48452 0.31454 0.0
H2666 H 0.81728 0.52599 0.34247 0.0
C2667 C 0.84798 0.49579 0.29915 0.0
H2668 H 0.81725 0.48775 0.34246 0.0
C2669 C 0.848 0.51794 0.29916 0.0
C2670 C 0.83671 0.52921 0.31456 0.0
H2671 H 0.85632 0.48753 0.28678 0.0
H2672 H 0.85635 0.5262 0.2868 0.0
C2673 C 0.82607 0.51787 0.33031 0.0
C2674 C 0.51811 0.82595 0.33038 0.0
C2675 C 0.52946 0.83658 0.31462 0.0
H2676 H 0.48798 0.81719 0.34255 0.0
C2677 C 0.5182 0.84789 0.29923 0.0
H2678 H 0.52622 0.81715 0.34254 0.0
C2679 C 0.49604 0.84791 0.29924 0.0
C2680 C 0.48476 0.83663 0.31464 0.0
H2681 H 0.52646 0.85623 0.28686 0.0
H2682 H 0.48779 0.85627 0.28688 0.0
C2683 C 0.4961 0.82598 0.33039 0.0
C2684 C 0.18802 0.49584 0.3304 0.0
C2685 C 0.17737 0.48452 0.31464 0.0
H2686 H 0.19685 0.52595 0.34258 0.0
C2687 C 0.16608 0.49582 0.29926 0.0
H2688 H 0.19681 0.4877 0.34255 0.0
C2689 C 0.1661 0.51797 0.29928 0.0
C2690 C 0.17741 0.52922 0.31468 0.0
H2691 H 0.15772 0.48758 0.28689 0.0
H2692 H 0.15776 0.52625 0.28692 0.0
C2693 C 0.18804 0.51785 0.33042 0.0
C2694 C 0.51789 0.16591 0.29913 0.0
C2695 C 0.52919 0.17718 0.31452 0.0
H2696 H 0.48746 0.1576 0.28678 0.0
C2697 C 0.51787 0.18781 0.3303 0.0
H2698 H 0.52613 0.15757 0.28675 0.0
C2699 C 0.49586 0.18783 0.33032 0.0
C2700 C 0.48449 0.17722 0.31456 0.0
H2701 H 0.52601 0.19658 0.34245 0.0
H2702 H 0.48776 0.19662 0.34249 0.0
C2703 C 0.49574 0.16593 0.29915 0.0
C2704 C 0.71482 0.84778 0.49587 0.0
C2705 C 0.69943 0.83649 0.48459 0.0
H2706 H 0.72718 0.85615 0.52628 0.0
C2707 C 0.68367 0.82585 0.49594 0.0
H2708 H 0.72719 0.85613 0.48761 0.0
C2709 C 0.68366 0.82586 0.51795 0.0
C2710 C 0.69942 0.8365 0.52929 0.0
H2711 H 0.67151 0.81706 0.48782 0.0
H2712 H 0.6715 0.81707 0.52607 0.0
C2713 C 0.71481 0.84779 0.51802 0.0
C2714 C 0.71458 0.16586 0.49577 0.0
C2715 C 0.69919 0.17714 0.48449 0.0
H2716 H 0.72696 0.15753 0.52618 0.0
C2717 C 0.68343 0.18778 0.49584 0.0
H2718 H 0.72695 0.15751 0.48751 0.0
C2719 C 0.68344 0.1878 0.51784 0.0
C2720 C 0.6992 0.17717 0.52919 0.0
H2721 H 0.67127 0.19657 0.48772 0.0
H2722 H 0.67128 0.19659 0.52596 0.0
C2723 C 0.71459 0.16587 0.51792 0.0
C2724 C 0.84804 0.71456 0.518 0.0
C2725 C 0.83674 0.69918 0.52928 0.0
H2726 H 0.8564 0.72691 0.48759 0.0
C2727 C 0.8261 0.68342 0.51795 0.0
H2728 H 0.85639 0.72694 0.52625 0.0
C2729 C 0.82611 0.6834 0.49594 0.0
C2730 C 0.83675 0.69915 0.48458 0.0
H2731 H 0.8173 0.67127 0.52607 0.0
H2732 H 0.81732 0.67124 0.48783 0.0
C2733 C 0.84805 0.71455 0.49585 0.0
C2734 C 0.33049 0.82602 0.49599 0.0
C2735 C 0.31473 0.83664 0.48463 0.0
H2736 H 0.34264 0.81727 0.52613 0.0
C2737 C 0.29934 0.84795 0.49588 0.0
H2738 H 0.34265 0.81721 0.48789 0.0
C2739 C 0.29934 0.84799 0.51803 0.0
C2740 C 0.31473 0.83671 0.52933 0.0
H2741 H 0.28698 0.85629 0.48761 0.0
H2742 H 0.28697 0.85635 0.52628 0.0
C2743 C 0.33049 0.82605 0.518 0.0
C2744 C 0.18787 0.33035 0.49589 0.0
C2745 C 0.17723 0.31458 0.48458 0.0
H2746 H 0.19669 0.34255 0.52599 0.0
C2747 C 0.16594 0.2992 0.49588 0.0
H2748 H 0.19666 0.3425 0.48775 0.0
C2749 C 0.16596 0.29923 0.51803 0.0
C2750 C 0.17726 0.31464 0.52928 0.0
H2751 H 0.15759 0.28682 0.48765 0.0
H2752 H 0.15762 0.28687 0.52632 0.0
C2753 C 0.18789 0.33038 0.5179 0.0
C2754 C 0.33034 0.1879 0.51797 0.0
C2755 C 0.31458 0.17729 0.52934 0.0
H2756 H 0.34249 0.19664 0.48783 0.0
C2757 C 0.29917 0.16599 0.51809 0.0
H2758 H 0.34251 0.19669 0.52607 0.0
C2759 C 0.29916 0.16595 0.49594 0.0
C2760 C 0.31456 0.17722 0.48464 0.0
H2761 H 0.2868 0.15766 0.52637 0.0
H2762 H 0.28678 0.1576 0.4877 0.0
C2763 C 0.33033 0.18786 0.49597 0.0
C2764 C 0.84779 0.2991 0.49572 0.0
C2765 C 0.83649 0.31448 0.48444 0.0
H2766 H 0.85615 0.28676 0.52614 0.0
C2767 C 0.82585 0.33025 0.49577 0.0
H2768 H 0.85613 0.28673 0.48747 0.0
C2769 C 0.82586 0.33027 0.51778 0.0
C2770 C 0.83651 0.31452 0.52914 0.0
H2771 H 0.81706 0.3424 0.48765 0.0
H2772 H 0.81707 0.34243 0.52589 0.0
C2773 C 0.84779 0.29912 0.51787 0.0
C2774 C 0.16611 0.71472 0.51813 0.0
C2775 C 0.1774 0.69935 0.52944 0.0
H2776 H 0.15778 0.72703 0.48769 0.0
C2777 C 0.18805 0.68358 0.51812 0.0
H2778 H 0.15775 0.7271 0.52636 0.0
C2779 C 0.18807 0.68354 0.49612 0.0
C2780 C 0.17744 0.69928 0.48474 0.0
H2781 H 0.19684 0.67144 0.52627 0.0
H2782 H 0.19687 0.67138 0.48803 0.0
C2783 C 0.16613 0.71468 0.49598 0.0
C2784 C 0.15213 0.13659 0.31492 0.0
C2785 C 0.15691 0.12524 0.3333 0.0
H2786 H 0.13358 0.1603 0.30028 0.0
C2787 C 0.14562 0.12987 0.35184 0.0
H2788 H 0.16035 0.1335 0.3003 0.0
C2789 C 0.12989 0.14561 0.35182 0.0
C2790 C 0.12529 0.1569 0.33327 0.0
H2791 H 0.14892 0.12139 0.36626 0.0
H2792 H 0.1214 0.14894 0.36624 0.0
C2793 C 0.13665 0.15209 0.31491 0.0
C2794 C 0.88382 0.14561 0.35172 0.0
C2795 C 0.88842 0.15692 0.33318 0.0
H2796 H 0.86479 0.12137 0.36613 0.0
C2797 C 0.87704 0.15215 0.31482 0.0
H2798 H 0.89232 0.14891 0.36613 0.0
C2799 C 0.86154 0.13665 0.31483 0.0
C2800 C 0.85677 0.12527 0.33319 0.0
H2801 H 0.8801 0.16038 0.3002 0.0
H2802 H 0.85331 0.13359 0.3002 0.0
C2803 C 0.86809 0.12987 0.35172 0.0
C2804 C 0.88404 0.86804 0.3518 0.0
C2805 C 0.88866 0.85675 0.33325 0.0
H2806 H 0.86498 0.89225 0.36621 0.0
C2807 C 0.87732 0.86155 0.31488 0.0
H2808 H 0.89251 0.86472 0.36622 0.0
C2809 C 0.86183 0.87705 0.31487 0.0
C2810 C 0.85702 0.8884 0.33324 0.0
H2811 H 0.88041 0.85335 0.30025 0.0
H2812 H 0.85362 0.88013 0.30024 0.0
C2813 C 0.8683 0.88377 0.35179 0.0
C2814 C 0.13014 0.86799 0.3519 0.0
C2815 C 0.12556 0.85665 0.33337 0.0
H2816 H 0.14914 0.89226 0.36629 0.0
C2817 C 0.13695 0.86141 0.31501 0.0
H2818 H 0.12163 0.8647 0.36631 0.0
C2819 C 0.15243 0.87692 0.315 0.0
C2820 C 0.15718 0.88832 0.33335 0.0
H2821 H 0.1339 0.85316 0.3004 0.0
H2822 H 0.16067 0.87997 0.30038 0.0
C2823 C 0.14586 0.88373 0.35189 0.0
C2824 C 0.15226 0.87738 0.69905 0.0
C2825 C 0.15708 0.88872 0.68067 0.0
H2826 H 0.13366 0.85371 0.7137 0.0
C2827 C 0.14579 0.88409 0.66213 0.0
H2828 H 0.16047 0.88047 0.71368 0.0
C2829 C 0.13004 0.86836 0.66214 0.0
C2830 C 0.12541 0.85709 0.68069 0.0
H2831 H 0.14912 0.89256 0.6477 0.0
H2832 H 0.12157 0.86504 0.64772 0.0
C2833 C 0.13675 0.8619 0.69906 0.0
C2834 C 0.15223 0.13691 0.69901 0.0
C2835 C 0.15702 0.12554 0.68066 0.0
H2836 H 0.13365 0.16063 0.71362 0.0
C2837 C 0.14574 0.13015 0.66211 0.0
H2838 H 0.16044 0.13384 0.71365 0.0
C2839 C 0.13001 0.14588 0.66209 0.0
C2840 C 0.12539 0.15719 0.68062 0.0
H2841 H 0.14906 0.12165 0.6477 0.0
H2842 H 0.12153 0.14919 0.64767 0.0
C2843 C 0.13674 0.15241 0.699 0.0
C2844 C 0.87713 0.1523 0.69884 0.0
C2845 C 0.88849 0.15709 0.68048 0.0
H2846 H 0.85342 0.13372 0.71348 0.0
C2847 C 0.88389 0.14578 0.66194 0.0
H2848 H 0.88019 0.16053 0.71347 0.0
C2849 C 0.86817 0.13004 0.66195 0.0
C2850 C 0.85687 0.12542 0.68049 0.0
H2851 H 0.89239 0.14909 0.64753 0.0
H2852 H 0.86487 0.12154 0.64753 0.0
C2853 C 0.86164 0.1368 0.69885 0.0
C2854 C 0.88395 0.86817 0.66203 0.0
C2855 C 0.88854 0.85686 0.68057 0.0
H2856 H 0.86493 0.89241 0.64761 0.0
C2857 C 0.87717 0.86164 0.69893 0.0
H2858 H 0.89245 0.86486 0.64762 0.0
C2859 C 0.86168 0.87714 0.69892 0.0
C2860 C 0.85692 0.88852 0.68056 0.0
H2861 H 0.88023 0.85341 0.71356 0.0
H2862 H 0.85346 0.88021 0.71355 0.0
C2863 C 0.86823 0.88391 0.66202 0.0
C2864 C 0.31484 0.15239 0.13686 0.0
C2865 C 0.3332 0.15715 0.12548 0.0
H2866 H 0.3002 0.13382 0.16057 0.0
C2867 C 0.35174 0.14583 0.13007 0.0
H2868 H 0.30022 0.16063 0.1338 0.0
C2869 C 0.35173 0.13009 0.14579 0.0
C2870 C 0.33319 0.12549 0.1571 0.0
H2871 H 0.36615 0.14912 0.12156 0.0
H2872 H 0.36613 0.12157 0.14908 0.0
C2873 C 0.31483 0.13688 0.15234 0.0
C2874 C 0.87717 0.31484 0.15215 0.0
C2875 C 0.88852 0.33321 0.15694 0.0
H2876 H 0.85347 0.30021 0.13357 0.0
C2877 C 0.88391 0.35176 0.14565 0.0
H2878 H 0.88024 0.30021 0.16036 0.0
C2879 C 0.86818 0.35175 0.1299 0.0
C2880 C 0.85689 0.33321 0.12528 0.0
H2881 H 0.8924 0.36617 0.14896 0.0
H2882 H 0.86487 0.36617 0.12141 0.0
C2883 C 0.86168 0.31484 0.13665 0.0
C2884 C 0.69914 0.87707 0.15213 0.0
C2885 C 0.68076 0.8884 0.15694 0.0
H2886 H 0.71378 0.85339 0.13354 0.0
C2887 C 0.66221 0.88378 0.14565 0.0
H2888 H 0.71377 0.88015 0.16034 0.0
C2889 C 0.66222 0.86806 0.12991 0.0
C2890 C 0.68077 0.85678 0.12528 0.0
H2891 H 0.64779 0.89225 0.14898 0.0
H2892 H 0.6478 0.86474 0.12143 0.0
C2893 C 0.69914 0.86159 0.13663 0.0
C2894 C 0.15249 0.69893 0.13693 0.0
C2895 C 0.15726 0.68059 0.12552 0.0
H2896 H 0.13393 0.71352 0.16067 0.0
C2897 C 0.14595 0.66204 0.1301 0.0
H2898 H 0.16071 0.71356 0.13388 0.0
C2899 C 0.13022 0.66202 0.14584 0.0
C2900 C 0.12561 0.68054 0.15717 0.0
H2901 H 0.14925 0.64765 0.12158 0.0
H2902 H 0.12171 0.6476 0.14911 0.0
C2903 C 0.13699 0.69891 0.15242 0.0
C2904 C 0.31502 0.87727 0.86174 0.0
C2905 C 0.33338 0.88863 0.85694 0.0
H2906 H 0.30039 0.85356 0.88032 0.0
C2907 C 0.35193 0.88402 0.86823 0.0
H2908 H 0.30038 0.88035 0.85353 0.0
C2909 C 0.35194 0.86829 0.88397 0.0
C2910 C 0.3334 0.85699 0.88859 0.0
H2911 H 0.36635 0.89251 0.86491 0.0
H2912 H 0.36636 0.86498 0.89245 0.0
C2913 C 0.31502 0.86178 0.87724 0.0
C2914 C 0.14575 0.35196 0.88381 0.0
C2915 C 0.15705 0.33341 0.88842 0.0
H2916 H 0.12153 0.36638 0.86477 0.0
C2917 C 0.15228 0.31506 0.87703 0.0
H2918 H 0.14904 0.36636 0.89232 0.0
C2919 C 0.1368 0.31507 0.86152 0.0
C2920 C 0.12543 0.33344 0.85675 0.0
H2921 H 0.1605 0.30043 0.88009 0.0
H2922 H 0.13374 0.30045 0.85329 0.0
C2923 C 0.13003 0.35197 0.86807 0.0
C2924 C 0.66212 0.14567 0.88384 0.0
C2925 C 0.68067 0.15696 0.88845 0.0
H2926 H 0.6477 0.12145 0.86479 0.0
C2927 C 0.69904 0.15216 0.8771 0.0
H2928 H 0.64771 0.14898 0.89232 0.0
C2929 C 0.69904 0.13667 0.8616 0.0
C2930 C 0.68067 0.12532 0.85681 0.0
H2931 H 0.71368 0.16037 0.88017 0.0
H2932 H 0.71367 0.13359 0.85339 0.0
C2933 C 0.66212 0.12993 0.86811 0.0
C2934 C 0.87724 0.69894 0.86166 0.0
C2935 C 0.88861 0.68058 0.85687 0.0
H2936 H 0.85351 0.71355 0.88022 0.0
C2937 C 0.884 0.66204 0.86817 0.0
H2938 H 0.88031 0.71358 0.85345 0.0
C2939 C 0.86825 0.66202 0.88389 0.0
C2940 C 0.85695 0.68056 0.8885 0.0
H2941 H 0.8925 0.64763 0.86486 0.0
H2942 H 0.86495 0.6476 0.89238 0.0
C2943 C 0.86173 0.69893 0.87714 0.0
C2944 C 0.14572 0.35188 0.12998 0.0
C2945 C 0.15703 0.33336 0.12536 0.0
H2946 H 0.12148 0.36626 0.14903 0.0
C2947 C 0.15227 0.31498 0.13672 0.0
H2948 H 0.14901 0.3663 0.12149 0.0
C2949 C 0.13678 0.31496 0.15222 0.0
C2950 C 0.1254 0.3333 0.15701 0.0
H2951 H 0.1605 0.30036 0.13364 0.0
H2952 H 0.13373 0.30032 0.16044 0.0
C2953 C 0.12998 0.35186 0.14572 0.0
C2954 C 0.15229 0.69911 0.87733 0.0
C2955 C 0.15709 0.68074 0.88867 0.0
H2956 H 0.13371 0.71376 0.85364 0.0
C2957 C 0.14581 0.66219 0.88403 0.0
H2958 H 0.1605 0.71375 0.88042 0.0
C2959 C 0.13007 0.6622 0.8683 0.0
C2960 C 0.12545 0.68076 0.85702 0.0
H2961 H 0.14913 0.64777 0.8925 0.0
H2962 H 0.12159 0.64778 0.86497 0.0
C2963 C 0.1368 0.69912 0.86184 0.0
C2964 C 0.35181 0.14583 0.884 0.0
C2965 C 0.33325 0.1571 0.88862 0.0
H2966 H 0.36624 0.12162 0.86494 0.0
C2967 C 0.31488 0.15229 0.87728 0.0
H2968 H 0.36623 0.14916 0.89247 0.0
C2969 C 0.31489 0.13679 0.86179 0.0
C2970 C 0.33326 0.12546 0.85699 0.0
H2971 H 0.30024 0.16048 0.88037 0.0
H2972 H 0.30025 0.1337 0.85359 0.0
C2973 C 0.35181 0.13009 0.86827 0.0
C2974 C 0.88392 0.35184 0.86803 0.0
C2975 C 0.88853 0.3333 0.85673 0.0
H2976 H 0.86488 0.36624 0.89227 0.0
C2977 C 0.87718 0.31493 0.86152 0.0
H2978 H 0.8924 0.36626 0.86471 0.0
C2979 C 0.8617 0.31492 0.87703 0.0
C2980 C 0.85691 0.33328 0.8884 0.0
H2981 H 0.88026 0.3003 0.8533 0.0
H2982 H 0.85349 0.30028 0.88011 0.0
C2983 C 0.8682 0.35183 0.88378 0.0
C2984 C 0.69905 0.87711 0.86159 0.0
C2985 C 0.68068 0.88847 0.85681 0.0
H2986 H 0.71368 0.85339 0.88015 0.0
C2987 C 0.66214 0.88385 0.8681 0.0
H2988 H 0.71368 0.88019 0.85338 0.0
C2989 C 0.66214 0.86811 0.88383 0.0
C2990 C 0.68069 0.85681 0.88844 0.0
H2991 H 0.64772 0.89234 0.86479 0.0
H2992 H 0.64772 0.86479 0.89232 0.0
C2993 C 0.69905 0.86161 0.87708 0.0
C2994 C 0.86832 0.66198 0.12995 0.0
C2995 C 0.85703 0.68052 0.12533 0.0
H2996 H 0.89255 0.64756 0.149 0.0
C2997 C 0.86183 0.69889 0.13668 0.0
H2998 H 0.865 0.64756 0.12147 0.0
C2999 C 0.87733 0.69889 0.15217 0.0
C3000 C 0.88869 0.68052 0.15697 0.0
H3001 H 0.85362 0.71352 0.1336 0.0
H3002 H 0.88042 0.71352 0.16038 0.0
C3003 C 0.88406 0.66198 0.14568 0.0
C3004 C 0.31508 0.86175 0.13676 0.0
C3005 C 0.33345 0.85696 0.12542 0.0
H3006 H 0.30043 0.88032 0.16046 0.0
C3007 C 0.35199 0.86826 0.13004 0.0
H3008 H 0.30044 0.85354 0.13368 0.0
C3009 C 0.35198 0.88399 0.14577 0.0
C3010 C 0.33343 0.8886 0.15706 0.0
H3011 H 0.36642 0.86495 0.12156 0.0
H3012 H 0.3664 0.89248 0.1491 0.0
C3013 C 0.31506 0.87724 0.15225 0.0
C3014 C 0.69897 0.1521 0.13664 0.0
C3015 C 0.68061 0.15689 0.12528 0.0
H3016 H 0.71359 0.13352 0.16035 0.0
C3017 C 0.66206 0.1456 0.12988 0.0
H3018 H 0.71361 0.16031 0.13358 0.0
C3019 C 0.66205 0.12986 0.14561 0.0
C3020 C 0.68059 0.12524 0.15691 0.0
H3021 H 0.64765 0.14891 0.12139 0.0
H3022 H 0.64763 0.12137 0.14891 0.0
C3023 C 0.69896 0.1366 0.15213 0.0
C3024 C 0.6368 0.65219 0.81489 0.0
C3025 C 0.62543 0.65697 0.83325 0.0
H3026 H 0.66051 0.63362 0.80026 0.0
C3027 C 0.63004 0.64567 0.85179 0.0
H3028 H 0.63373 0.66041 0.80026 0.0
C3029 C 0.64577 0.62993 0.85179 0.0
C3030 C 0.65707 0.62532 0.83325 0.0
H3031 H 0.62154 0.64897 0.8662 0.0
H3032 H 0.64908 0.62144 0.8662 0.0
C3033 C 0.65229 0.63669 0.81489 0.0
C3034 C 0.36821 0.63005 0.8519 0.0
C3035 C 0.35689 0.62546 0.83337 0.0
H3036 H 0.39245 0.64909 0.8663 0.0
C3037 C 0.36164 0.63685 0.81501 0.0
H3038 H 0.36492 0.62155 0.86631 0.0
C3039 C 0.37713 0.65235 0.81501 0.0
C3040 C 0.38852 0.65711 0.83336 0.0
H3041 H 0.35341 0.63378 0.80039 0.0
H3042 H 0.38018 0.66058 0.80038 0.0
C3043 C 0.38394 0.6458 0.8519 0.0
C3044 C 0.38394 0.3682 0.85183 0.0
C3045 C 0.38855 0.3569 0.83329 0.0
H3046 H 0.3649 0.39243 0.86623 0.0
C3047 C 0.3772 0.36169 0.81492 0.0
H3048 H 0.39242 0.36488 0.86625 0.0
C3049 C 0.36172 0.37719 0.81491 0.0
C3050 C 0.35693 0.38855 0.83327 0.0
H3051 H 0.38028 0.35347 0.80029 0.0
H3052 H 0.35351 0.38027 0.80028 0.0
C3053 C 0.36821 0.38394 0.85182 0.0
C3054 C 0.6368 0.36158 0.81486 0.0
C3055 C 0.62544 0.35679 0.83322 0.0
H3056 H 0.6605 0.38016 0.80022 0.0
C3057 C 0.63005 0.36809 0.85176 0.0
H3058 H 0.63372 0.35336 0.80023 0.0
C3059 C 0.64578 0.38383 0.85176 0.0
C3060 C 0.65708 0.38845 0.83321 0.0
H3061 H 0.62156 0.36478 0.86618 0.0
H3062 H 0.64909 0.39233 0.86617 0.0
C3063 C 0.65229 0.37708 0.81485 0.0
C3064 C 0.64577 0.3838 0.16198 0.0
C3065 C 0.65708 0.3884 0.18051 0.0
H3066 H 0.62153 0.36476 0.14758 0.0
C3067 C 0.65232 0.37701 0.19887 0.0
H3068 H 0.64905 0.39231 0.14757 0.0
C3069 C 0.63684 0.36151 0.19888 0.0
C3070 C 0.62545 0.35674 0.18052 0.0
H3071 H 0.66056 0.38008 0.21349 0.0
H3072 H 0.63379 0.35327 0.2135 0.0
C3073 C 0.63004 0.36806 0.16198 0.0
C3074 C 0.6369 0.65219 0.19894 0.0
C3075 C 0.62554 0.65698 0.18058 0.0
H3076 H 0.6606 0.63361 0.21357 0.0
C3077 C 0.63013 0.64568 0.16204 0.0
H3078 H 0.63384 0.66041 0.21357 0.0
C3079 C 0.64586 0.62994 0.16204 0.0
C3080 C 0.65716 0.62532 0.18058 0.0
H3081 H 0.62164 0.649 0.14763 0.0
H3082 H 0.64916 0.62144 0.14762 0.0
C3083 C 0.65238 0.63669 0.19894 0.0
C3084 C 0.38405 0.64577 0.16215 0.0
C3085 C 0.38866 0.65707 0.18069 0.0
H3086 H 0.36502 0.62153 0.14775 0.0
C3087 C 0.37731 0.65228 0.19906 0.0
H3088 H 0.39253 0.64908 0.14773 0.0
C3089 C 0.36183 0.63678 0.19907 0.0
C3090 C 0.35704 0.62541 0.18071 0.0
H3091 H 0.38039 0.66051 0.21368 0.0
H3092 H 0.35362 0.6337 0.21371 0.0
C3093 C 0.36833 0.63002 0.16216 0.0
C3094 C 0.38397 0.36821 0.16208 0.0
C3095 C 0.3886 0.35693 0.18064 0.0
H3096 H 0.36491 0.39241 0.14765 0.0
C3097 C 0.37726 0.36175 0.19901 0.0
H3098 H 0.39244 0.36487 0.14766 0.0
C3099 C 0.36176 0.37724 0.199 0.0
C3100 C 0.35695 0.38857 0.18062 0.0
H3101 H 0.38035 0.35356 0.21365 0.0
H3102 H 0.35356 0.38034 0.21363 0.0
C3103 C 0.36823 0.38394 0.16207 0.0
C3104 C 0.85195 0.64566 0.63 0.0
C3105 C 0.83341 0.65696 0.62539 0.0
H3106 H 0.86636 0.62143 0.64905 0.0
C3107 C 0.81504 0.65219 0.63677 0.0
H3108 H 0.86636 0.64895 0.62149 0.0
C3109 C 0.81504 0.63671 0.65227 0.0
C3110 C 0.8334 0.62534 0.65705 0.0
H3111 H 0.80041 0.66041 0.63369 0.0
H3112 H 0.80041 0.63365 0.6605 0.0
C3113 C 0.85194 0.62993 0.64574 0.0
C3114 C 0.36826 0.85197 0.63005 0.0
C3115 C 0.35695 0.83343 0.62544 0.0
H3116 H 0.3925 0.86636 0.64909 0.0
C3117 C 0.3617 0.81507 0.63682 0.0
H3118 H 0.36498 0.86638 0.62154 0.0
C3119 C 0.37719 0.81506 0.65232 0.0
C3120 C 0.38857 0.83341 0.6571 0.0
H3121 H 0.35347 0.80045 0.63375 0.0
H3122 H 0.38024 0.80043 0.66055 0.0
C3123 C 0.38399 0.85196 0.64579 0.0
C3124 C 0.16213 0.36831 0.62993 0.0
C3125 C 0.18067 0.35703 0.62529 0.0
H3126 H 0.14772 0.39252 0.64898 0.0
C3127 C 0.19906 0.36184 0.63662 0.0
H3128 H 0.1477 0.36497 0.62147 0.0
C3129 C 0.19907 0.37734 0.6521 0.0
C3130 C 0.18069 0.38868 0.65692 0.0
H3131 H 0.21369 0.35364 0.63352 0.0
H3132 H 0.21371 0.38044 0.66029 0.0
C3133 C 0.16214 0.38405 0.64565 0.0
C3134 C 0.65221 0.1989 0.63667 0.0
C3135 C 0.65699 0.18053 0.62531 0.0
H3136 H 0.63367 0.21353 0.6604 0.0
C3137 C 0.64569 0.16199 0.62993 0.0
H3138 H 0.66043 0.21353 0.63358 0.0
C3139 C 0.62997 0.16199 0.64568 0.0
C3140 C 0.62537 0.18054 0.65698 0.0
H3141 H 0.64899 0.14757 0.62144 0.0
H3142 H 0.62148 0.14758 0.649 0.0
C3143 C 0.63673 0.1989 0.65218 0.0
C3144 C 0.85176 0.36804 0.38379 0.0
C3145 C 0.8332 0.35675 0.38838 0.0
H3146 H 0.8662 0.39227 0.36477 0.0
C3147 C 0.81484 0.36155 0.37701 0.0
H3148 H 0.86617 0.36472 0.39228 0.0
C3149 C 0.81486 0.37706 0.36153 0.0
C3150 C 0.83324 0.38842 0.35676 0.0
H3151 H 0.80021 0.35334 0.38008 0.0
H3152 H 0.80023 0.38015 0.35331 0.0
C3153 C 0.85177 0.38379 0.36806 0.0
C3154 C 0.6524 0.8148 0.37714 0.0
C3155 C 0.65719 0.83316 0.3885 0.0
H3156 H 0.63384 0.80018 0.35342 0.0
C3157 C 0.6459 0.85171 0.38389 0.0
H3158 H 0.66062 0.80017 0.38021 0.0
C3159 C 0.63017 0.85172 0.36815 0.0
C3160 C 0.62556 0.83318 0.35685 0.0
H3161 H 0.64922 0.86612 0.39239 0.0
H3162 H 0.62169 0.86614 0.36485 0.0
C3163 C 0.63691 0.81481 0.36164 0.0
C3164 C 0.19918 0.65203 0.3774 0.0
C3165 C 0.1808 0.65686 0.38872 0.0
H3166 H 0.21381 0.63345 0.35371 0.0
C3167 C 0.16224 0.6456 0.38408 0.0
H3168 H 0.21382 0.66022 0.3805 0.0
C3169 C 0.16223 0.62987 0.36834 0.0
C3170 C 0.18079 0.62523 0.35707 0.0
H3171 H 0.14781 0.64894 0.39254 0.0
H3172 H 0.1478 0.62142 0.365 0.0
C3173 C 0.19917 0.63655 0.3619 0.0
C3174 C 0.36807 0.162 0.38392 0.0
C3175 C 0.35677 0.18054 0.38854 0.0
H3176 H 0.3923 0.1476 0.36486 0.0
C3177 C 0.36156 0.19891 0.37719 0.0
H3178 H 0.36476 0.14758 0.3924 0.0
C3179 C 0.37706 0.19893 0.3617 0.0
C3180 C 0.38842 0.18057 0.3569 0.0
H3181 H 0.35334 0.21354 0.38027 0.0
H3182 H 0.38013 0.21356 0.35349 0.0
C3183 C 0.38381 0.16201 0.36818 0.0
C3184 C 0.65232 0.81484 0.63673 0.0
C3185 C 0.65712 0.8332 0.62536 0.0
H3186 H 0.63374 0.80022 0.66044 0.0
C3187 C 0.64582 0.85175 0.62997 0.0
H3188 H 0.66054 0.80021 0.63366 0.0
C3189 C 0.63009 0.85176 0.6457 0.0
C3190 C 0.62547 0.83322 0.657 0.0
H3191 H 0.64914 0.86616 0.62148 0.0
H3192 H 0.6216 0.86617 0.64901 0.0
C3193 C 0.63683 0.81485 0.65222 0.0
C3194 C 0.62988 0.16188 0.36805 0.0
C3195 C 0.62528 0.18043 0.35675 0.0
H3196 H 0.64892 0.14746 0.39228 0.0
C3197 C 0.63663 0.19879 0.36155 0.0
H3198 H 0.6214 0.14746 0.36473 0.0
C3199 C 0.65211 0.19879 0.37706 0.0
C3200 C 0.6569 0.18042 0.38842 0.0
H3201 H 0.63356 0.21342 0.35334 0.0
H3202 H 0.66033 0.21342 0.38014 0.0
C3203 C 0.64561 0.16188 0.38379 0.0
C3204 C 0.85195 0.62989 0.36812 0.0
C3205 C 0.83341 0.6253 0.35681 0.0
H3206 H 0.86637 0.64891 0.39237 0.0
C3207 C 0.81505 0.63668 0.36158 0.0
H3208 H 0.86637 0.6214 0.36482 0.0
C3209 C 0.81505 0.65216 0.37709 0.0
C3210 C 0.83341 0.65692 0.38847 0.0
H3211 H 0.80043 0.63362 0.35335 0.0
H3212 H 0.80043 0.66038 0.38016 0.0
C3213 C 0.85195 0.64562 0.38386 0.0
C3214 C 0.38405 0.85184 0.3682 0.0
C3215 C 0.38866 0.8333 0.35689 0.0
H3216 H 0.36501 0.86623 0.39244 0.0
C3217 C 0.3773 0.81493 0.36168 0.0
H3218 H 0.39253 0.86626 0.36489 0.0
C3219 C 0.36182 0.81492 0.37718 0.0
C3220 C 0.35703 0.83327 0.38855 0.0
H3221 H 0.38038 0.80031 0.35346 0.0
H3222 H 0.35361 0.80028 0.38026 0.0
C3223 C 0.36832 0.85182 0.38394 0.0
C3224 C 0.16206 0.38382 0.36814 0.0
C3225 C 0.18061 0.38841 0.35684 0.0
H3226 H 0.14763 0.36479 0.39237 0.0
C3227 C 0.19896 0.37702 0.36161 0.0
H3228 H 0.14765 0.39233 0.36485 0.0
C3229 C 0.19894 0.36152 0.3771 0.0
C3230 C 0.18057 0.35676 0.38847 0.0
H3231 H 0.21359 0.38008 0.35339 0.0
H3232 H 0.21356 0.35328 0.38016 0.0
C3233 C 0.16204 0.36808 0.38387 0.0
C3234 C 0.38387 0.16213 0.64579 0.0
C3235 C 0.38849 0.18067 0.65708 0.0
H3236 H 0.36483 0.14772 0.62155 0.0
C3237 C 0.37714 0.19904 0.65229 0.0
H3238 H 0.39235 0.14771 0.6491 0.0
C3239 C 0.36165 0.19905 0.63679 0.0
C3240 C 0.35686 0.18068 0.62542 0.0
H3241 H 0.38022 0.21367 0.66051 0.0
H3242 H 0.35344 0.21368 0.63371 0.0
C3243 C 0.36814 0.16214 0.63004 0.0
C3244 C 0.81485 0.37714 0.65204 0.0
C3245 C 0.83323 0.38849 0.65684 0.0
H3246 H 0.8002 0.35345 0.63347 0.0
C3247 C 0.85177 0.38386 0.64554 0.0
H3248 H 0.80022 0.38023 0.66026 0.0
C3249 C 0.85176 0.36813 0.6298 0.0
C3250 C 0.8332 0.35685 0.62519 0.0
H3251 H 0.86619 0.39234 0.64885 0.0
H3252 H 0.86617 0.36481 0.62132 0.0
C3253 C 0.81484 0.36165 0.63655 0.0
C3254 C 0.19903 0.63701 0.65249 0.0
C3255 C 0.18068 0.62559 0.65721 0.0
H3256 H 0.21365 0.66077 0.63396 0.0
C3257 C 0.16215 0.63017 0.64588 0.0
H3258 H 0.21365 0.63397 0.66074 0.0
C3259 C 0.16215 0.64591 0.63015 0.0
C3260 C 0.18068 0.65725 0.62559 0.0
H3261 H 0.14775 0.62164 0.64914 0.0
H3262 H 0.14775 0.64919 0.62162 0.0
C3263 C 0.19903 0.65251 0.637 0.0
loop_
_geom_bond_atom_site_label_1
_geom_bond_atom_site_label_2
_geom_bond_distance
_geom_bond_site_symmetry_2
_ccdc_geom_bond_type
Co0 O1 2.216 . S
Co0 O2 2.091 . S
Co0 O4 2.004 . S
Co0 O10 2.021 . S
Co0 O12 2.137 . S
Co0 O13 2.244 . S
O1 Co0 2.216 . S
O1 C8 1.247 . S
O2 Co0 2.091 . S
O2 C8 1.261 . S
C3 O12 1.247 . S
C3 O13 1.272 . S
O4 Co0 2.004 . S
O4 C9 1.259 . S
Co5 O6 2.061 . S
Co5 O11 2.052 . S
Co5 O13 2.135 . S
O6 Co5 2.061 . S
O6 C9 1.235 . S
C7 O10 1.238 . S
C7 O11 1.241 . S
C8 O1 1.247 . S
C8 O2 1.261 . S
C9 O4 1.259 . S
C9 O6 1.235 . S
O10 Co0 2.021 . S
O10 C7 1.238 . S
O11 Co5 2.052 . S
O11 C7 1.241 . S
O12 Co0 2.137 . S
O12 C3 1.247 . S
O13 Co0 2.244 . S
O13 C3 1.272 . S
O13 Co5 2.135 . S
Co14 O15 2.216 . S
Co14 O16 2.091 . S
Co14 O18 2.004 . S
Co14 O24 2.021 . S
Co14 O26 2.137 . S
Co14 O27 2.244 . S
O15 Co14 2.216 . S
O15 C22 1.247 . S
O16 Co14 2.091 . S
O16 C22 1.261 . S
C17 O26 1.247 . S
C17 O27 1.272 . S
O18 Co14 2.004 . S
O18 C23 1.259 . S
Co19 O20 2.061 . S
Co19 O25 2.052 . S
Co19 O27 2.135 . S
O20 Co19 2.061 . S
O20 C23 1.235 . S
C21 O24 1.238 . S
C21 O25 1.241 . S
C22 O15 1.247 . S
C22 O16 1.261 . S
C23 O18 1.259 . S
C23 O20 1.235 . S
O24 Co14 2.021 . S
O24 C21 1.238 . S
O25 Co19 2.052 . S
O25 C21 1.241 . S
O26 Co14 2.137 . S
O26 C17 1.247 . S
O27 Co14 2.244 . S
O27 C17 1.272 . S
O27 Co19 2.135 . S
Co28 O29 2.216 . S
Co28 O30 2.091 . S
Co28 O32 2.004 . S
Co28 O38 2.021 . S
Co28 O40 2.137 . S
Co28 O41 2.244 . S
O29 Co28 2.216 . S
O29 C36 1.247 . S
O30 Co28 2.091 . S
O30 C36 1.261 . S
C31 O40 1.247 . S
C31 O41 1.272 . S
O32 Co28 2.004 . S
O32 C37 1.259 . S
Co33 O34 2.061 . S
Co33 O39 2.052 . S
Co33 O41 2.135 . S
O34 Co33 2.061 . S
O34 C37 1.235 . S
C35 O38 1.238 . S
C35 O39 1.241 . S
C36 O29 1.247 . S
C36 O30 1.261 . S
C37 O32 1.259 . S
C37 O34 1.235 . S
O38 Co28 2.021 . S
O38 C35 1.238 . S
O39 Co33 2.052 . S
O39 C35 1.241 . S
O40 Co28 2.137 . S
O40 C31 1.247 . S
O41 Co28 2.244 . S
O41 C31 1.272 . S
O41 Co33 2.135 . S
Co42 O43 2.216 . S
Co42 O44 2.091 . S
Co42 O46 2.004 . S
Co42 O52 2.021 . S
Co42 O54 2.137 . S
Co42 O55 2.244 . S
O43 Co42 2.216 . S
O43 C50 1.247 . S
O44 Co42 2.091 . S
O44 C50 1.261 . S
C45 O54 1.247 . S
C45 O55 1.272 . S
O46 Co42 2.004 . S
O46 C51 1.259 . S
Co47 O48 2.061 . S
Co47 O53 2.052 . S
Co47 O55 2.135 . S
O48 Co47 2.061 . S
O48 C51 1.235 . S
C49 O52 1.238 . S
C49 O53 1.241 . S
C50 O43 1.247 . S
C50 O44 1.261 . S
C51 O46 1.259 . S
C51 O48 1.235 . S
O52 Co42 2.021 . S
O52 C49 1.238 . S
O53 Co47 2.052 . S
O53 C49 1.241 . S
O54 Co42 2.137 . S
O54 C45 1.247 . S
O55 Co42 2.244 . S
O55 C45 1.272 . S
O55 Co47 2.135 . S
Co56 O57 2.216 . S
Co56 O58 2.091 . S
Co56 O60 2.004 . S
Co56 O66 2.021 . S
Co56 O68 2.137 . S
Co56 O69 2.244 . S
O57 Co56 2.216 . S
O57 C64 1.247 . S
O58 Co56 2.091 . S
O58 C64 1.261 . S
C59 O68 1.247 . S
C59 O69 1.272 . S
O60 Co56 2.004 . S
O60 C65 1.259 . S
Co61 O62 2.061 . S
Co61 O67 2.052 . S
Co61 O69 2.135 . S
O62 Co61 2.061 . S
O62 C65 1.235 . S
C63 O66 1.238 . S
C63 O67 1.241 . S
C64 O57 1.247 . S
C64 O58 1.261 . S
C65 O60 1.259 . S
C65 O62 1.235 . S
O66 Co56 2.021 . S
O66 C63 1.238 . S
O67 Co61 2.052 . S
O67 C63 1.241 . S
O68 Co56 2.137 . S
O68 C59 1.247 . S
O69 Co56 2.244 . S
O69 C59 1.272 . S
O69 Co61 2.135 . S
Co70 O71 2.216 . S
Co70 O72 2.091 . S
Co70 O74 2.004 . S
Co70 O80 2.021 . S
Co70 O82 2.137 . S
Co70 O83 2.244 . S
O71 Co70 2.216 . S
O71 C78 1.247 . S
O72 Co70 2.091 . S
O72 C78 1.261 . S
C73 O82 1.247 . S
C73 O83 1.272 . S
O74 Co70 2.004 . S
O74 C79 1.259 . S
Co75 O76 2.061 . S
Co75 O81 2.052 . S
Co75 O83 2.135 . S
O76 Co75 2.061 . S
O76 C79 1.235 . S
C77 O80 1.238 . S
C77 O81 1.241 . S
C78 O71 1.247 . S
C78 O72 1.261 . S
C79 O74 1.259 . S
C79 O76 1.235 . S
O80 Co70 2.021 . S
O80 C77 1.238 . S
O81 Co75 2.052 . S
O81 C77 1.241 . S
O82 Co70 2.137 . S
O82 C73 1.247 . S
O83 Co70 2.244 . S
O83 C73 1.272 . S
O83 Co75 2.135 . S
Co84 O85 2.216 . S
Co84 O86 2.091 . S
Co84 O88 2.004 . S
Co84 O94 2.021 . S
Co84 O96 2.137 . S
Co84 O97 2.244 . S
O85 Co84 2.216 . S
O85 C92 1.247 . S
O86 Co84 2.091 . S
O86 C92 1.261 . S
C87 O96 1.247 . S
C87 O97 1.272 . S
O88 Co84 2.004 . S
O88 C93 1.259 . S
Co89 O90 2.061 . S
Co89 O95 2.052 . S
Co89 O97 2.135 . S
O90 Co89 2.061 . S
O90 C93 1.235 . S
C91 O94 1.238 . S
C91 O95 1.241 . S
C92 O85 1.247 . S
C92 O86 1.261 . S
C93 O88 1.259 . S
C93 O90 1.235 . S
O94 Co84 2.021 . S
O94 C91 1.238 . S
O95 Co89 2.052 . S
O95 C91 1.241 . S
O96 Co84 2.137 . S
O96 C87 1.247 . S
O97 Co84 2.244 . S
O97 C87 1.272 . S
O97 Co89 2.135 . S
Co98 O99 2.216 . S
Co98 O100 2.091 . S
Co98 O102 2.004 . S
Co98 O108 2.021 . S
Co98 O110 2.137 . S
Co98 O111 2.244 . S
O99 Co98 2.216 . S
O99 C106 1.247 . S
O100 Co98 2.091 . S
O100 C106 1.261 . S
C101 O110 1.247 . S
C101 O111 1.272 . S
O102 Co98 2.004 . S
O102 C107 1.259 . S
Co103 O104 2.061 . S
Co103 O109 2.052 . S
Co103 O111 2.135 . S
O104 Co103 2.061 . S
O104 C107 1.235 . S
C105 O108 1.238 . S
C105 O109 1.241 . S
C106 O99 1.247 . S
C106 O100 1.261 . S
C107 O102 1.259 . S
C107 O104 1.235 . S
O108 Co98 2.021 . S
O108 C105 1.238 . S
O109 Co103 2.052 . S
O109 C105 1.241 . S
O110 Co98 2.137 . S
O110 C101 1.247 . S
O111 Co98 2.244 . S
O111 C101 1.272 . S
O111 Co103 2.135 . S
Co112 O113 2.216 . S
Co112 O114 2.091 . S
Co112 O116 2.004 . S
Co112 O122 2.021 . S
Co112 O124 2.137 . S
Co112 O125 2.244 . S
O113 Co112 2.216 . S
O113 C120 1.247 . S
O114 Co112 2.091 . S
O114 C120 1.261 . S
C115 O124 1.247 . S
C115 O125 1.272 . S
O116 Co112 2.004 . S
O116 C121 1.259 . S
Co117 O118 2.061 . S
Co117 O123 2.052 . S
Co117 O125 2.135 . S
O118 Co117 2.061 . S
O118 C121 1.235 . S
C119 O122 1.238 . S
C119 O123 1.241 . S
C120 O113 1.247 . S
C120 O114 1.261 . S
C121 O116 1.259 . S
C121 O118 1.235 . S
O122 Co112 2.021 . S
O122 C119 1.238 . S
O123 Co117 2.052 . S
O123 C119 1.241 . S
O124 Co112 2.137 . S
O124 C115 1.247 . S
O125 Co112 2.244 . S
O125 C115 1.272 . S
O125 Co117 2.135 . S
Co126 O127 2.216 . S
Co126 O128 2.091 . S
Co126 O130 2.004 . S
Co126 O136 2.021 . S
Co126 O138 2.137 . S
Co126 O139 2.244 . S
O127 Co126 2.216 . S
O127 C134 1.247 . S
O128 Co126 2.091 . S
O128 C134 1.261 . S
C129 O138 1.247 . S
C129 O139 1.272 . S
O130 Co126 2.004 . S
O130 C135 1.259 . S
Co131 O132 2.061 . S
Co131 O137 2.052 . S
Co131 O139 2.135 . S
O132 Co131 2.061 . S
O132 C135 1.235 . S
C133 O136 1.238 . S
C133 O137 1.241 . S
C134 O127 1.247 . S
C134 O128 1.261 . S
C135 O130 1.259 . S
C135 O132 1.235 . S
O136 Co126 2.021 . S
O136 C133 1.238 . S
O137 Co131 2.052 . S
O137 C133 1.241 . S
O138 Co126 2.137 . S
O138 C129 1.247 . S
O139 Co126 2.244 . S
O139 C129 1.272 . S
O139 Co131 2.135 . S
Co140 O141 2.216 . S
Co140 O142 2.091 . S
Co140 O144 2.004 . S
Co140 O150 2.021 . S
Co140 O152 2.137 . S
Co140 O153 2.244 . S
O141 Co140 2.216 . S
O141 C148 1.247 . S
O142 Co140 2.091 . S
O142 C148 1.261 . S
C143 O152 1.247 . S
C143 O153 1.272 . S
O144 Co140 2.004 . S
O144 C149 1.259 . S
Co145 O146 2.061 . S
Co145 O151 2.052 . S
Co145 O153 2.135 . S
O146 Co145 2.061 . S
O146 C149 1.235 . S
C147 O150 1.238 . S
C147 O151 1.241 . S
C148 O141 1.247 . S
C148 O142 1.261 . S
C149 O144 1.259 . S
C149 O146 1.235 . S
O150 Co140 2.021 . S
O150 C147 1.238 . S
O151 Co145 2.052 . S
O151 C147 1.241 . S
O152 Co140 2.137 . S
O152 C143 1.247 . S
O153 Co140 2.244 . S
O153 C143 1.272 . S
O153 Co145 2.135 . S
Co154 O155 2.216 . S
Co154 O156 2.091 . S
Co154 O158 2.004 . S
Co154 O164 2.021 . S
Co154 O166 2.137 . S
Co154 O167 2.244 . S
O155 Co154 2.216 . S
O155 C162 1.247 . S
O156 Co154 2.091 . S
O156 C162 1.261 . S
C157 O166 1.247 . S
C157 O167 1.272 . S
O158 Co154 2.004 . S
O158 C163 1.259 . S
Co159 O160 2.061 . S
Co159 O165 2.052 . S
Co159 O167 2.135 . S
O160 Co159 2.061 . S
O160 C163 1.235 . S
C161 O164 1.238 . S
C161 O165 1.241 . S
C162 O155 1.247 . S
C162 O156 1.261 . S
C163 O158 1.259 . S
C163 O160 1.235 . S
O164 Co154 2.021 . S
O164 C161 1.238 . S
O165 Co159 2.052 . S
O165 C161 1.241 . S
O166 Co154 2.137 . S
O166 C157 1.247 . S
O167 Co154 2.244 . S
O167 C157 1.272 . S
O167 Co159 2.135 . S
Co168 O169 2.216 . S
Co168 O170 2.091 . S
Co168 O172 2.004 . S
Co168 O178 2.021 . S
Co168 O180 2.137 . S
Co168 O181 2.244 . S
O169 Co168 2.216 . S
O169 C176 1.247 . S
O170 Co168 2.091 . S
O170 C176 1.261 . S
C171 O180 1.247 . S
C171 O181 1.272 . S
O172 Co168 2.004 . S
O172 C177 1.259 . S
Co173 O174 2.061 . S
Co173 O179 2.052 . S
Co173 O181 2.135 . S
O174 Co173 2.061 . S
O174 C177 1.235 . S
C175 O178 1.238 . S
C175 O179 1.241 . S
C176 O169 1.247 . S
C176 O170 1.261 . S
C177 O172 1.259 . S
C177 O174 1.235 . S
O178 Co168 2.021 . S
O178 C175 1.238 . S
O179 Co173 2.052 . S
O179 C175 1.241 . S
O180 Co168 2.137 . S
O180 C171 1.247 . S
O181 Co168 2.244 . S
O181 C171 1.272 . S
O181 Co173 2.135 . S
Co182 O183 2.216 . S
Co182 O184 2.091 . S
Co182 O186 2.004 . S
Co182 O192 2.021 . S
Co182 O194 2.137 . S
Co182 O195 2.244 . S
O183 Co182 2.216 . S
O183 C190 1.247 . S
O184 Co182 2.091 . S
O184 C190 1.261 . S
C185 O194 1.247 . S
C185 O195 1.272 . S
O186 Co182 2.004 . S
O186 C191 1.259 . S
Co187 O188 2.061 . S
Co187 O193 2.052 . S
Co187 O195 2.135 . S
O188 Co187 2.061 . S
O188 C191 1.235 . S
C189 O192 1.238 . S
C189 O193 1.241 . S
C190 O183 1.247 . S
C190 O184 1.261 . S
C191 O186 1.259 . S
C191 O188 1.235 . S
O192 Co182 2.021 . S
O192 C189 1.238 . S
O193 Co187 2.052 . S
O193 C189 1.241 . S
O194 Co182 2.137 . S
O194 C185 1.247 . S
O195 Co182 2.244 . S
O195 C185 1.272 . S
O195 Co187 2.135 . S
Co196 O197 2.216 . S
Co196 O198 2.091 . S
Co196 O200 2.004 . S
Co196 O206 2.021 . S
Co196 O208 2.137 . S
Co196 O209 2.244 . S
O197 Co196 2.216 . S
O197 C204 1.247 . S
O198 Co196 2.091 . S
O198 C204 1.261 . S
C199 O208 1.247 . S
C199 O209 1.272 . S
O200 Co196 2.004 . S
O200 C205 1.259 . S
Co201 O202 2.061 . S
Co201 O207 2.052 . S
Co201 O209 2.135 . S
O202 Co201 2.061 . S
O202 C205 1.235 . S
C203 O206 1.238 . S
C203 O207 1.241 . S
C204 O197 1.247 . S
C204 O198 1.261 . S
C205 O200 1.259 . S
C205 O202 1.235 . S
O206 Co196 2.021 . S
O206 C203 1.238 . S
O207 Co201 2.052 . S
O207 C203 1.241 . S
O208 Co196 2.137 . S
O208 C199 1.247 . S
O209 Co196 2.244 . S
O209 C199 1.272 . S
O209 Co201 2.135 . S
Co210 O211 2.216 . S
Co210 O212 2.091 . S
Co210 O214 2.004 . S
Co210 O220 2.021 . S
Co210 O222 2.137 . S
Co210 O223 2.244 . S
O211 Co210 2.216 . S
O211 C218 1.247 . S
O212 Co210 2.091 . S
O212 C218 1.261 . S
C213 O222 1.247 . S
C213 O223 1.272 . S
O214 Co210 2.004 . S
O214 C219 1.259 . S
Co215 O216 2.061 . S
Co215 O221 2.052 . S
Co215 O223 2.135 . S
O216 Co215 2.061 . S
O216 C219 1.235 . S
C217 O220 1.238 . S
C217 O221 1.241 . S
C218 O211 1.247 . S
C218 O212 1.261 . S
C219 O214 1.259 . S
C219 O216 1.235 . S
O220 Co210 2.021 . S
O220 C217 1.238 . S
O221 Co215 2.052 . S
O221 C217 1.241 . S
O222 Co210 2.137 . S
O222 C213 1.247 . S
O223 Co210 2.244 . S
O223 C213 1.272 . S
O223 Co215 2.135 . S
Co224 O225 2.216 . S
Co224 O226 2.091 . S
Co224 O228 2.004 . S
Co224 O234 2.021 . S
Co224 O236 2.137 . S
Co224 O237 2.244 . S
O225 Co224 2.216 . S
O225 C232 1.247 . S
O226 Co224 2.091 . S
O226 C232 1.261 . S
C227 O236 1.247 . S
C227 O237 1.272 . S
O228 Co224 2.004 . S
O228 C233 1.259 . S
Co229 O230 2.061 . S
Co229 O235 2.052 . S
Co229 O237 2.135 . S
O230 Co229 2.061 . S
O230 C233 1.235 . S
C231 O234 1.238 . S
C231 O235 1.241 . S
C232 O225 1.247 . S
C232 O226 1.261 . S
C233 O228 1.259 . S
C233 O230 1.235 . S
O234 Co224 2.021 . S
O234 C231 1.238 . S
O235 Co229 2.052 . S
O235 C231 1.241 . S
O236 Co224 2.137 . S
O236 C227 1.247 . S
O237 Co224 2.244 . S
O237 C227 1.272 . S
O237 Co229 2.135 . S
Co238 O239 2.216 . S
Co238 O240 2.091 . S
Co238 O242 2.004 . S
Co238 O248 2.021 . S
Co238 O250 2.137 . S
Co238 O251 2.244 . S
O239 Co238 2.216 . S
O239 C246 1.247 . S
O240 Co238 2.091 . S
O240 C246 1.261 . S
C241 O250 1.247 . S
C241 O251 1.272 . S
O242 Co238 2.004 . S
O242 C247 1.259 . S
Co243 O244 2.061 . S
Co243 O249 2.052 . S
Co243 O251 2.135 . S
O244 Co243 2.061 . S
O244 C247 1.235 . S
C245 O248 1.238 . S
C245 O249 1.241 . S
C246 O239 1.247 . S
C246 O240 1.261 . S
C247 O242 1.259 . S
C247 O244 1.235 . S
O248 Co238 2.021 . S
O248 C245 1.238 . S
O249 Co243 2.052 . S
O249 C245 1.241 . S
O250 Co238 2.137 . S
O250 C241 1.247 . S
O251 Co238 2.244 . S
O251 C241 1.272 . S
O251 Co243 2.135 . S
Co252 O253 2.216 . S
Co252 O254 2.091 . S
Co252 O256 2.004 . S
Co252 O262 2.021 . S
Co252 O264 2.137 . S
Co252 O265 2.244 . S
O253 Co252 2.216 . S
O253 C260 1.247 . S
O254 Co252 2.091 . S
O254 C260 1.261 . S
C255 O264 1.247 . S
C255 O265 1.272 . S
O256 Co252 2.004 . S
O256 C261 1.259 . S
Co257 O258 2.061 . S
Co257 O263 2.052 . S
Co257 O265 2.135 . S
O258 Co257 2.061 . S
O258 C261 1.235 . S
C259 O262 1.238 . S
C259 O263 1.241 . S
C260 O253 1.247 . S
C260 O254 1.261 . S
C261 O256 1.259 . S
C261 O258 1.235 . S
O262 Co252 2.021 . S
O262 C259 1.238 . S
O263 Co257 2.052 . S
O263 C259 1.241 . S
O264 Co252 2.137 . S
O264 C255 1.247 . S
O265 Co252 2.244 . S
O265 C255 1.272 . S
O265 Co257 2.135 . S
Co266 O267 2.216 . S
Co266 O268 2.091 . S
Co266 O270 2.004 . S
Co266 O276 2.021 . S
Co266 O278 2.137 . S
Co266 O279 2.244 . S
O267 Co266 2.216 . S
O267 C274 1.247 . S
O268 Co266 2.091 . S
O268 C274 1.261 . S
C269 O278 1.247 . S
C269 O279 1.272 . S
O270 Co266 2.004 . S
O270 C275 1.259 . S
Co271 O272 2.061 . S
Co271 O277 2.052 . S
Co271 O279 2.135 . S
O272 Co271 2.061 . S
O272 C275 1.235 . S
C273 O276 1.238 . S
C273 O277 1.241 . S
C274 O267 1.247 . S
C274 O268 1.261 . S
C275 O270 1.259 . S
C275 O272 1.235 . S
O276 Co266 2.021 . S
O276 C273 1.238 . S
O277 Co271 2.052 . S
O277 C273 1.241 . S
O278 Co266 2.137 . S
O278 C269 1.247 . S
O279 Co266 2.244 . S
O279 C269 1.272 . S
O279 Co271 2.135 . S
Co280 O281 2.216 . S
Co280 O282 2.091 . S
Co280 O284 2.004 . S
Co280 O290 2.021 . S
Co280 O292 2.137 . S
Co280 O293 2.244 . S
O281 Co280 2.216 . S
O281 C288 1.247 . S
O282 Co280 2.091 . S
O282 C288 1.261 . S
C283 O292 1.247 . S
C283 O293 1.272 . S
O284 Co280 2.004 . S
O284 C289 1.259 . S
Co285 O286 2.061 . S
Co285 O291 2.052 . S
Co285 O293 2.135 . S
O286 Co285 2.061 . S
O286 C289 1.235 . S
C287 O290 1.238 . S
C287 O291 1.241 . S
C288 O281 1.247 . S
C288 O282 1.261 . S
C289 O284 1.259 . S
C289 O286 1.235 . S
O290 Co280 2.021 . S
O290 C287 1.238 . S
O291 Co285 2.052 . S
O291 C287 1.241 . S
O292 Co280 2.137 . S
O292 C283 1.247 . S
O293 Co280 2.244 . S
O293 C283 1.272 . S
O293 Co285 2.135 . S
Co294 O295 2.216 . S
Co294 O296 2.091 . S
Co294 O298 2.004 . S
Co294 O304 2.021 . S
Co294 O306 2.137 . S
Co294 O307 2.244 . S
O295 Co294 2.216 . S
O295 C302 1.247 . S
O296 Co294 2.091 . S
O296 C302 1.261 . S
C297 O306 1.247 . S
C297 O307 1.272 . S
O298 Co294 2.004 . S
O298 C303 1.259 . S
Co299 O300 2.061 . S
Co299 O305 2.052 . S
Co299 O307 2.135 . S
O300 Co299 2.061 . S
O300 C303 1.235 . S
C301 O304 1.238 . S
C301 O305 1.241 . S
C302 O295 1.247 . S
C302 O296 1.261 . S
C303 O298 1.259 . S
C303 O300 1.235 . S
O304 Co294 2.021 . S
O304 C301 1.238 . S
O305 Co299 2.052 . S
O305 C301 1.241 . S
O306 Co294 2.137 . S
O306 C297 1.247 . S
O307 Co294 2.244 . S
O307 C297 1.272 . S
O307 Co299 2.135 . S
Co308 O309 2.216 . S
Co308 O310 2.091 . S
Co308 O312 2.004 . S
Co308 O318 2.021 . S
Co308 O320 2.137 . S
Co308 O321 2.244 . S
O309 Co308 2.216 . S
O309 C316 1.247 . S
O310 Co308 2.091 . S
O310 C316 1.261 . S
C311 O320 1.247 . S
C311 O321 1.272 . S
O312 Co308 2.004 . S
O312 C317 1.259 . S
Co313 O314 2.061 . S
Co313 O319 2.052 . S
Co313 O321 2.135 . S
O314 Co313 2.061 . S
O314 C317 1.235 . S
C315 O318 1.238 . S
C315 O319 1.241 . S
C316 O309 1.247 . S
C316 O310 1.261 . S
C317 O312 1.259 . S
C317 O314 1.235 . S
O318 Co308 2.021 . S
O318 C315 1.238 . S
O319 Co313 2.052 . S
O319 C315 1.241 . S
O320 Co308 2.137 . S
O320 C311 1.247 . S
O321 Co308 2.244 . S
O321 C311 1.272 . S
O321 Co313 2.135 . S
Co322 O323 2.216 . S
Co322 O324 2.091 . S
Co322 O326 2.004 . S
Co322 O332 2.021 . S
Co322 O334 2.137 . S
Co322 O335 2.244 . S
O323 Co322 2.216 . S
O323 C330 1.247 . S
O324 Co322 2.091 . S
O324 C330 1.261 . S
C325 O334 1.247 . S
C325 O335 1.272 . S
O326 Co322 2.004 . S
O326 C331 1.259 . S
Co327 O328 2.061 . S
Co327 O333 2.052 . S
Co327 O335 2.135 . S
O328 Co327 2.061 . S
O328 C331 1.235 . S
C329 O332 1.238 . S
C329 O333 1.241 . S
C330 O323 1.247 . S
C330 O324 1.261 . S
C331 O326 1.259 . S
C331 O328 1.235 . S
O332 Co322 2.021 . S
O332 C329 1.238 . S
O333 Co327 2.052 . S
O333 C329 1.241 . S
O334 Co322 2.137 . S
O334 C325 1.247 . S
O335 Co322 2.244 . S
O335 C325 1.272 . S
O335 Co327 2.135 . S
Co336 O337 2.216 . S
Co336 O338 2.091 . S
Co336 O340 2.004 . S
Co336 O346 2.021 . S
Co336 O348 2.137 . S
Co336 O349 2.244 . S
O337 Co336 2.216 . S
O337 C344 1.247 . S
O338 Co336 2.091 . S
O338 C344 1.261 . S
C339 O348 1.247 . S
C339 O349 1.272 . S
O340 Co336 2.004 . S
O340 C345 1.259 . S
Co341 O342 2.061 . S
Co341 O347 2.052 . S
Co341 O349 2.135 . S
O342 Co341 2.061 . S
O342 C345 1.235 . S
C343 O346 1.238 . S
C343 O347 1.241 . S
C344 O337 1.247 . S
C344 O338 1.261 . S
C345 O340 1.259 . S
C345 O342 1.235 . S
O346 Co336 2.021 . S
O346 C343 1.238 . S
O347 Co341 2.052 . S
O347 C343 1.241 . S
O348 Co336 2.137 . S
O348 C339 1.247 . S
O349 Co336 2.244 . S
O349 C339 1.272 . S
O349 Co341 2.135 . S
Co350 O351 2.216 . S
Co350 O352 2.091 . S
Co350 O354 2.004 . S
Co350 O360 2.021 . S
Co350 O362 2.137 . S
Co350 O363 2.244 . S
O351 Co350 2.216 . S
O351 C358 1.247 . S
O352 Co350 2.091 . S
O352 C358 1.261 . S
C353 O362 1.247 . S
C353 O363 1.272 . S
O354 Co350 2.004 . S
O354 C359 1.259 . S
Co355 O356 2.061 . S
Co355 O361 2.052 . S
Co355 O363 2.135 . S
O356 Co355 2.061 . S
O356 C359 1.235 . S
C357 O360 1.238 . S
C357 O361 1.241 . S
C358 O351 1.247 . S
C358 O352 1.261 . S
C359 O354 1.259 . S
C359 O356 1.235 . S
O360 Co350 2.021 . S
O360 C357 1.238 . S
O361 Co355 2.052 . S
O361 C357 1.241 . S
O362 Co350 2.137 . S
O362 C353 1.247 . S
O363 Co350 2.244 . S
O363 C353 1.272 . S
O363 Co355 2.135 . S
Co364 O365 2.216 . S
Co364 O366 2.091 . S
Co364 O368 2.004 . S
Co364 O374 2.021 . S
Co364 O376 2.137 . S
Co364 O377 2.244 . S
O365 Co364 2.216 . S
O365 C372 1.247 . S
O366 Co364 2.091 . S
O366 C372 1.261 . S
C367 O376 1.247 . S
C367 O377 1.272 . S
O368 Co364 2.004 . S
O368 C373 1.259 . S
Co369 O370 2.061 . S
Co369 O375 2.052 . S
Co369 O377 2.135 . S
O370 Co369 2.061 . S
O370 C373 1.235 . S
C371 O374 1.238 . S
C371 O375 1.241 . S
C372 O365 1.247 . S
C372 O366 1.261 . S
C373 O368 1.259 . S
C373 O370 1.235 . S
O374 Co364 2.021 . S
O374 C371 1.238 . S
O375 Co369 2.052 . S
O375 C371 1.241 . S
O376 Co364 2.137 . S
O376 C367 1.247 . S
O377 Co364 2.244 . S
O377 C367 1.272 . S
O377 Co369 2.135 . S
Co378 O379 2.216 . S
Co378 O380 2.091 . S
Co378 O382 2.004 . S
Co378 O388 2.021 . S
Co378 O390 2.137 . S
Co378 O391 2.244 . S
O379 Co378 2.216 . S
O379 C386 1.247 . S
O380 Co378 2.091 . S
O380 C386 1.261 . S
C381 O390 1.247 . S
C381 O391 1.272 . S
O382 Co378 2.004 . S
O382 C387 1.259 . S
Co383 O384 2.061 . S
Co383 O389 2.052 . S
Co383 O391 2.135 . S
O384 Co383 2.061 . S
O384 C387 1.235 . S
C385 O388 1.238 . S
C385 O389 1.241 . S
C386 O379 1.247 . S
C386 O380 1.261 . S
C387 O382 1.259 . S
C387 O384 1.235 . S
O388 Co378 2.021 . S
O388 C385 1.238 . S
O389 Co383 2.052 . S
O389 C385 1.241 . S
O390 Co378 2.137 . S
O390 C381 1.247 . S
O391 Co378 2.244 . S
O391 C381 1.272 . S
O391 Co383 2.135 . S
Co392 O393 2.216 . S
Co392 O394 2.091 . S
Co392 O396 2.004 . S
Co392 O402 2.021 . S
Co392 O404 2.137 . S
Co392 O405 2.244 . S
O393 Co392 2.216 . S
O393 C400 1.247 . S
O394 Co392 2.091 . S
O394 C400 1.261 . S
C395 O404 1.247 . S
C395 O405 1.272 . S
O396 Co392 2.004 . S
O396 C401 1.259 . S
Co397 O398 2.061 . S
Co397 O403 2.052 . S
Co397 O405 2.135 . S
O398 Co397 2.061 . S
O398 C401 1.235 . S
C399 O402 1.238 . S
C399 O403 1.241 . S
C400 O393 1.247 . S
C400 O394 1.261 . S
C401 O396 1.259 . S
C401 O398 1.235 . S
O402 Co392 2.021 . S
O402 C399 1.238 . S
O403 Co397 2.052 . S
O403 C399 1.241 . S
O404 Co392 2.137 . S
O404 C395 1.247 . S
O405 Co392 2.244 . S
O405 C395 1.272 . S
O405 Co397 2.135 . S
Co406 O407 2.216 . S
Co406 O408 2.091 . S
Co406 O410 2.004 . S
Co406 O416 2.021 . S
Co406 O418 2.137 . S
Co406 O419 2.244 . S
O407 Co406 2.216 . S
O407 C414 1.247 . S
O408 Co406 2.091 . S
O408 C414 1.261 . S
C409 O418 1.247 . S
C409 O419 1.272 . S
O410 Co406 2.004 . S
O410 C415 1.259 . S
Co411 O412 2.061 . S
Co411 O417 2.052 . S
Co411 O419 2.135 . S
O412 Co411 2.061 . S
O412 C415 1.235 . S
C413 O416 1.238 . S
C413 O417 1.241 . S
C414 O407 1.247 . S
C414 O408 1.261 . S
C415 O410 1.259 . S
C415 O412 1.235 . S
O416 Co406 2.021 . S
O416 C413 1.238 . S
O417 Co411 2.052 . S
O417 C413 1.241 . S
O418 Co406 2.137 . S
O418 C409 1.247 . S
O419 Co406 2.244 . S
O419 C409 1.272 . S
O419 Co411 2.135 . S
Co420 O421 2.216 . S
Co420 O422 2.091 . S
Co420 O424 2.004 . S
Co420 O430 2.021 . S
Co420 O432 2.137 . S
Co420 O433 2.244 . S
O421 Co420 2.216 . S
O421 C428 1.247 . S
O422 Co420 2.091 . S
O422 C428 1.261 . S
C423 O432 1.247 . S
C423 O433 1.272 . S
O424 Co420 2.004 . S
O424 C429 1.259 . S
Co425 O426 2.061 . S
Co425 O431 2.052 . S
Co425 O433 2.135 . S
O426 Co425 2.061 . S
O426 C429 1.235 . S
C427 O430 1.238 . S
C427 O431 1.241 . S
C428 O421 1.247 . S
C428 O422 1.261 . S
C429 O424 1.259 . S
C429 O426 1.235 . S
O430 Co420 2.021 . S
O430 C427 1.238 . S
O431 Co425 2.052 . S
O431 C427 1.241 . S
O432 Co420 2.137 . S
O432 C423 1.247 . S
O433 Co420 2.244 . S
O433 C423 1.272 . S
O433 Co425 2.135 . S
Co434 O435 2.216 . S
Co434 O436 2.091 . S
Co434 O438 2.004 . S
Co434 O444 2.021 . S
Co434 O446 2.137 . S
Co434 O447 2.244 . S
O435 Co434 2.216 . S
O435 C442 1.247 . S
O436 Co434 2.091 . S
O436 C442 1.261 . S
C437 O446 1.247 . S
C437 O447 1.272 . S
O438 Co434 2.004 . S
O438 C443 1.259 . S
Co439 O440 2.061 . S
Co439 O445 2.052 . S
Co439 O447 2.135 . S
O440 Co439 2.061 . S
O440 C443 1.235 . S
C441 O444 1.238 . S
C441 O445 1.241 . S
C442 O435 1.247 . S
C442 O436 1.261 . S
C443 O438 1.259 . S
C443 O440 1.235 . S
O444 Co434 2.021 . S
O444 C441 1.238 . S
O445 Co439 2.052 . S
O445 C441 1.241 . S
O446 Co434 2.137 . S
O446 C437 1.247 . S
O447 Co434 2.244 . S
O447 C437 1.272 . S
O447 Co439 2.135 . S
Co448 O449 2.216 . S
Co448 O450 2.091 . S
Co448 O452 2.004 . S
Co448 O458 2.021 . S
Co448 O460 2.137 . S
Co448 O461 2.244 . S
O449 Co448 2.216 . S
O449 C456 1.247 . S
O450 Co448 2.091 . S
O450 C456 1.261 . S
C451 O460 1.247 . S
C451 O461 1.272 . S
O452 Co448 2.004 . S
O452 C457 1.259 . S
Co453 O454 2.061 . S
Co453 O459 2.052 . S
Co453 O461 2.135 . S
O454 Co453 2.061 . S
O454 C457 1.235 . S
C455 O458 1.238 . S
C455 O459 1.241 . S
C456 O449 1.247 . S
C456 O450 1.261 . S
C457 O452 1.259 . S
C457 O454 1.235 . S
O458 Co448 2.021 . S
O458 C455 1.238 . S
O459 Co453 2.052 . S
O459 C455 1.241 . S
O460 Co448 2.137 . S
O460 C451 1.247 . S
O461 Co448 2.244 . S
O461 C451 1.272 . S
O461 Co453 2.135 . S
Co462 O463 2.216 . S
Co462 O464 2.091 . S
Co462 O466 2.004 . S
Co462 O472 2.021 . S
Co462 O474 2.137 . S
Co462 O475 2.244 . S
O463 Co462 2.216 . S
O463 C470 1.247 . S
O464 Co462 2.091 . S
O464 C470 1.261 . S
C465 O474 1.247 . S
C465 O475 1.272 . S
O466 Co462 2.004 . S
O466 C471 1.259 . S
Co467 O468 2.061 . S
Co467 O473 2.052 . S
Co467 O475 2.135 . S
O468 Co467 2.061 . S
O468 C471 1.235 . S
C469 O472 1.238 . S
C469 O473 1.241 . S
C470 O463 1.247 . S
C470 O464 1.261 . S
C471 O466 1.259 . S
C471 O468 1.235 . S
O472 Co462 2.021 . S
O472 C469 1.238 . S
O473 Co467 2.052 . S
O473 C469 1.241 . S
O474 Co462 2.137 . S
O474 C465 1.247 . S
O475 Co462 2.244 . S
O475 C465 1.272 . S
O475 Co467 2.135 . S
Co476 O477 2.216 . S
Co476 O478 2.091 . S
Co476 O480 2.004 . S
Co476 O486 2.021 . S
Co476 O488 2.137 . S
Co476 O489 2.244 . S
O477 Co476 2.216 . S
O477 C484 1.247 . S
O478 Co476 2.091 . S
O478 C484 1.261 . S
C479 O488 1.247 . S
C479 O489 1.272 . S
O480 Co476 2.004 . S
O480 C485 1.259 . S
Co481 O482 2.061 . S
Co481 O487 2.052 . S
Co481 O489 2.135 . S
O482 Co481 2.061 . S
O482 C485 1.235 . S
C483 O486 1.238 . S
C483 O487 1.241 . S
C484 O477 1.247 . S
C484 O478 1.261 . S
C485 O480 1.259 . S
C485 O482 1.235 . S
O486 Co476 2.021 . S
O486 C483 1.238 . S
O487 Co481 2.052 . S
O487 C483 1.241 . S
O488 Co476 2.137 . S
O488 C479 1.247 . S
O489 Co476 2.244 . S
O489 C479 1.272 . S
O489 Co481 2.135 . S
Co490 O491 2.216 . S
Co490 O492 2.091 . S
Co490 O494 2.004 . S
Co490 O500 2.021 . S
Co490 O502 2.137 . S
Co490 O503 2.244 . S
O491 Co490 2.216 . S
O491 C498 1.247 . S
O492 Co490 2.091 . S
O492 C498 1.261 . S
C493 O502 1.247 . S
C493 O503 1.272 . S
O494 Co490 2.004 . S
O494 C499 1.259 . S
Co495 O496 2.061 . S
Co495 O501 2.052 . S
Co495 O503 2.135 . S
O496 Co495 2.061 . S
O496 C499 1.235 . S
C497 O500 1.238 . S
C497 O501 1.241 . S
C498 O491 1.247 . S
C498 O492 1.261 . S
C499 O494 1.259 . S
C499 O496 1.235 . S
O500 Co490 2.021 . S
O500 C497 1.238 . S
O501 Co495 2.052 . S
O501 C497 1.241 . S
O502 Co490 2.137 . S
O502 C493 1.247 . S
O503 Co490 2.244 . S
O503 C493 1.272 . S
O503 Co495 2.135 . S
Co504 O505 2.216 . S
Co504 O506 2.091 . S
Co504 O508 2.004 . S
Co504 O514 2.021 . S
Co504 O516 2.137 . S
Co504 O517 2.244 . S
O505 Co504 2.216 . S
O505 C512 1.247 . S
O506 Co504 2.091 . S
O506 C512 1.261 . S
C507 O516 1.247 . S
C507 O517 1.272 . S
O508 Co504 2.004 . S
O508 C513 1.259 . S
Co509 O510 2.061 . S
Co509 O515 2.052 . S
Co509 O517 2.135 . S
O510 Co509 2.061 . S
O510 C513 1.235 . S
C511 O514 1.238 . S
C511 O515 1.241 . S
C512 O505 1.247 . S
C512 O506 1.261 . S
C513 O508 1.259 . S
C513 O510 1.235 . S
O514 Co504 2.021 . S
O514 C511 1.238 . S
O515 Co509 2.052 . S
O515 C511 1.241 . S
O516 Co504 2.137 . S
O516 C507 1.247 . S
O517 Co504 2.244 . S
O517 C507 1.272 . S
O517 Co509 2.135 . S
Co518 O519 2.216 . S
Co518 O520 2.091 . S
Co518 O522 2.004 . S
Co518 O528 2.021 . S
Co518 O530 2.137 . S
Co518 O531 2.244 . S
O519 Co518 2.216 . S
O519 C526 1.247 . S
O520 Co518 2.091 . S
O520 C526 1.261 . S
C521 O530 1.247 . S
C521 O531 1.272 . S
O522 Co518 2.004 . S
O522 C527 1.259 . S
Co523 O524 2.061 . S
Co523 O529 2.052 . S
Co523 O531 2.135 . S
O524 Co523 2.061 . S
O524 C527 1.235 . S
C525 O528 1.238 . S
C525 O529 1.241 . S
C526 O519 1.247 . S
C526 O520 1.261 . S
C527 O522 1.259 . S
C527 O524 1.235 . S
O528 Co518 2.021 . S
O528 C525 1.238 . S
O529 Co523 2.052 . S
O529 C525 1.241 . S
O530 Co518 2.137 . S
O530 C521 1.247 . S
O531 Co518 2.244 . S
O531 C521 1.272 . S
O531 Co523 2.135 . S
Co532 O533 2.216 . S
Co532 O534 2.091 . S
Co532 O536 2.004 . S
Co532 O542 2.021 . S
Co532 O544 2.137 . S
Co532 O545 2.244 . S
O533 Co532 2.216 . S
O533 C540 1.247 . S
O534 Co532 2.091 . S
O534 C540 1.261 . S
C535 O544 1.247 . S
C535 O545 1.272 . S
O536 Co532 2.004 . S
O536 C541 1.259 . S
Co537 O538 2.061 . S
Co537 O543 2.052 . S
Co537 O545 2.135 . S
O538 Co537 2.061 . S
O538 C541 1.235 . S
C539 O542 1.238 . S
C539 O543 1.241 . S
C540 O533 1.247 . S
C540 O534 1.261 . S
C541 O536 1.259 . S
C541 O538 1.235 . S
O542 Co532 2.021 . S
O542 C539 1.238 . S
O543 Co537 2.052 . S
O543 C539 1.241 . S
O544 Co532 2.137 . S
O544 C535 1.247 . S
O545 Co532 2.244 . S
O545 C535 1.272 . S
O545 Co537 2.135 . S
Co546 O547 2.216 . S
Co546 O548 2.091 . S
Co546 O550 2.004 . S
Co546 O556 2.021 . S
Co546 O558 2.137 . S
Co546 O559 2.244 . S
O547 Co546 2.216 . S
O547 C554 1.247 . S
O548 Co546 2.091 . S
O548 C554 1.261 . S
C549 O558 1.247 . S
C549 O559 1.272 . S
O550 Co546 2.004 . S
O550 C555 1.259 . S
Co551 O552 2.061 . S
Co551 O557 2.052 . S
Co551 O559 2.135 . S
O552 Co551 2.061 . S
O552 C555 1.235 . S
C553 O556 1.238 . S
C553 O557 1.241 . S
C554 O547 1.247 . S
C554 O548 1.261 . S
C555 O550 1.259 . S
C555 O552 1.235 . S
O556 Co546 2.021 . S
O556 C553 1.238 . S
O557 Co551 2.052 . S
O557 C553 1.241 . S
O558 Co546 2.137 . S
O558 C549 1.247 . S
O559 Co546 2.244 . S
O559 C549 1.272 . S
O559 Co551 2.135 . S
Co560 O561 2.216 . S
Co560 O562 2.091 . S
Co560 O564 2.004 . S
Co560 O570 2.021 . S
Co560 O572 2.137 . S
Co560 O573 2.244 . S
O561 Co560 2.216 . S
O561 C568 1.247 . S
O562 Co560 2.091 . S
O562 C568 1.261 . S
C563 O572 1.247 . S
C563 O573 1.272 . S
O564 Co560 2.004 . S
O564 C569 1.259 . S
Co565 O566 2.061 . S
Co565 O571 2.052 . S
Co565 O573 2.135 . S
O566 Co565 2.061 . S
O566 C569 1.235 . S
C567 O570 1.238 . S
C567 O571 1.241 . S
C568 O561 1.247 . S
C568 O562 1.261 . S
C569 O564 1.259 . S
C569 O566 1.235 . S
O570 Co560 2.021 . S
O570 C567 1.238 . S
O571 Co565 2.052 . S
O571 C567 1.241 . S
O572 Co560 2.137 . S
O572 C563 1.247 . S
O573 Co560 2.244 . S
O573 C563 1.272 . S
O573 Co565 2.135 . S
Co574 O575 2.216 . S
Co574 O576 2.091 . S
Co574 O578 2.004 . S
Co574 O584 2.021 . S
Co574 O586 2.137 . S
Co574 O587 2.244 . S
O575 Co574 2.216 . S
O575 C582 1.247 . S
O576 Co574 2.091 . S
O576 C582 1.261 . S
C577 O586 1.247 . S
C577 O587 1.272 . S
O578 Co574 2.004 . S
O578 C583 1.259 . S
Co579 O580 2.061 . S
Co579 O585 2.052 . S
Co579 O587 2.135 . S
O580 Co579 2.061 . S
O580 C583 1.235 . S
C581 O584 1.238 . S
C581 O585 1.241 . S
C582 O575 1.247 . S
C582 O576 1.261 . S
C583 O578 1.259 . S
C583 O580 1.235 . S
O584 Co574 2.021 . S
O584 C581 1.238 . S
O585 Co579 2.052 . S
O585 C581 1.241 . S
O586 Co574 2.137 . S
O586 C577 1.247 . S
O587 Co574 2.244 . S
O587 C577 1.272 . S
O587 Co579 2.135 . S
Co588 O589 2.216 . S
Co588 O590 2.091 . S
Co588 O592 2.004 . S
Co588 O598 2.021 . S
Co588 O600 2.137 . S
Co588 O601 2.244 . S
O589 Co588 2.216 . S
O589 C596 1.247 . S
O590 Co588 2.091 . S
O590 C596 1.261 . S
C591 O600 1.247 . S
C591 O601 1.272 . S
O592 Co588 2.004 . S
O592 C597 1.259 . S
Co593 O594 2.061 . S
Co593 O599 2.052 . S
Co593 O601 2.135 . S
O594 Co593 2.061 . S
O594 C597 1.235 . S
C595 O598 1.238 . S
C595 O599 1.241 . S
C596 O589 1.247 . S
C596 O590 1.261 . S
C597 O592 1.259 . S
C597 O594 1.235 . S
O598 Co588 2.021 . S
O598 C595 1.238 . S
O599 Co593 2.052 . S
O599 C595 1.241 . S
O600 Co588 2.137 . S
O600 C591 1.247 . S
O601 Co588 2.244 . S
O601 C591 1.272 . S
O601 Co593 2.135 . S
Co602 O603 2.216 . S
Co602 O604 2.091 . S
Co602 O606 2.004 . S
Co602 O612 2.021 . S
Co602 O614 2.137 . S
Co602 O615 2.244 . S
O603 Co602 2.216 . S
O603 C610 1.247 . S
O604 Co602 2.091 . S
O604 C610 1.261 . S
C605 O614 1.247 . S
C605 O615 1.272 . S
O606 Co602 2.004 . S
O606 C611 1.259 . S
Co607 O608 2.061 . S
Co607 O613 2.052 . S
Co607 O615 2.135 . S
O608 Co607 2.061 . S
O608 C611 1.235 . S
C609 O612 1.238 . S
C609 O613 1.241 . S
C610 O603 1.247 . S
C610 O604 1.261 . S
C611 O606 1.259 . S
C611 O608 1.235 . S
O612 Co602 2.021 . S
O612 C609 1.238 . S
O613 Co607 2.052 . S
O613 C609 1.241 . S
O614 Co602 2.137 . S
O614 C605 1.247 . S
O615 Co602 2.244 . S
O615 C605 1.272 . S
O615 Co607 2.135 . S
Co616 O617 2.216 . S
Co616 O618 2.091 . S
Co616 O620 2.004 . S
Co616 O626 2.021 . S
Co616 O628 2.137 . S
Co616 O629 2.244 . S
O617 Co616 2.216 . S
O617 C624 1.247 . S
O618 Co616 2.091 . S
O618 C624 1.261 . S
C619 O628 1.247 . S
C619 O629 1.272 . S
O620 Co616 2.004 . S
O620 C625 1.259 . S
Co621 O622 2.061 . S
Co621 O627 2.052 . S
Co621 O629 2.135 . S
O622 Co621 2.061 . S
O622 C625 1.235 . S
C623 O626 1.238 . S
C623 O627 1.241 . S
C624 O617 1.247 . S
C624 O618 1.261 . S
C625 O620 1.259 . S
C625 O622 1.235 . S
O626 Co616 2.021 . S
O626 C623 1.238 . S
O627 Co621 2.052 . S
O627 C623 1.241 . S
O628 Co616 2.137 . S
O628 C619 1.247 . S
O629 Co616 2.244 . S
O629 C619 1.272 . S
O629 Co621 2.135 . S
Co630 O631 2.216 . S
Co630 O632 2.091 . S
Co630 O634 2.004 . S
Co630 O640 2.021 . S
Co630 O642 2.137 . S
Co630 O643 2.244 . S
O631 Co630 2.216 . S
O631 C638 1.247 . S
O632 Co630 2.091 . S
O632 C638 1.261 . S
C633 O642 1.247 . S
C633 O643 1.272 . S
O634 Co630 2.004 . S
O634 C639 1.259 . S
Co635 O636 2.061 . S
Co635 O641 2.052 . S
Co635 O643 2.135 . S
O636 Co635 2.061 . S
O636 C639 1.235 . S
C637 O640 1.238 . S
C637 O641 1.241 . S
C638 O631 1.247 . S
C638 O632 1.261 . S
C639 O634 1.259 . S
C639 O636 1.235 . S
O640 Co630 2.021 . S
O640 C637 1.238 . S
O641 Co635 2.052 . S
O641 C637 1.241 . S
O642 Co630 2.137 . S
O642 C633 1.247 . S
O643 Co630 2.244 . S
O643 C633 1.272 . S
O643 Co635 2.135 . S
Co644 O645 2.216 . S
Co644 O646 2.091 . S
Co644 O648 2.004 . S
Co644 O654 2.021 . S
Co644 O656 2.137 . S
Co644 O657 2.244 . S
O645 Co644 2.216 . S
O645 C652 1.247 . S
O646 Co644 2.091 . S
O646 C652 1.261 . S
C647 O656 1.247 . S
C647 O657 1.272 . S
O648 Co644 2.004 . S
O648 C653 1.259 . S
Co649 O650 2.061 . S
Co649 O655 2.052 . S
Co649 O657 2.135 . S
O650 Co649 2.061 . S
O650 C653 1.235 . S
C651 O654 1.238 . S
C651 O655 1.241 . S
C652 O645 1.247 . S
C652 O646 1.261 . S
C653 O648 1.259 . S
C653 O650 1.235 . S
O654 Co644 2.021 . S
O654 C651 1.238 . S
O655 Co649 2.052 . S
O655 C651 1.241 . S
O656 Co644 2.137 . S
O656 C647 1.247 . S
O657 Co644 2.244 . S
O657 C647 1.272 . S
O657 Co649 2.135 . S
Co658 O659 2.216 . S
Co658 O660 2.091 . S
Co658 O662 2.004 . S
Co658 O668 2.021 . S
Co658 O670 2.137 . S
Co658 O671 2.244 . S
O659 Co658 2.216 . S
O659 C666 1.247 . S
O660 Co658 2.091 . S
O660 C666 1.261 . S
C661 O670 1.247 . S
C661 O671 1.272 . S
O662 Co658 2.004 . S
O662 C667 1.259 . S
Co663 O664 2.061 . S
Co663 O669 2.052 . S
Co663 O671 2.135 . S
O664 Co663 2.061 . S
O664 C667 1.235 . S
C665 O668 1.238 . S
C665 O669 1.241 . S
C666 O659 1.247 . S
C666 O660 1.261 . S
C667 O662 1.259 . S
C667 O664 1.235 . S
O668 Co658 2.021 . S
O668 C665 1.238 . S
O669 Co663 2.052 . S
O669 C665 1.241 . S
O670 Co658 2.137 . S
O670 C661 1.247 . S
O671 Co658 2.244 . S
O671 C661 1.272 . S
O671 Co663 2.135 . S
Co672 O673 2.216 . S
Co672 O674 2.091 . S
Co672 O676 2.004 . S
Co672 O682 2.021 . S
Co672 O684 2.137 . S
Co672 O685 2.244 . S
O673 Co672 2.216 . S
O673 C680 1.247 . S
O674 Co672 2.091 . S
O674 C680 1.261 . S
C675 O684 1.247 . S
C675 O685 1.272 . S
O676 Co672 2.004 . S
O676 C681 1.259 . S
Co677 O678 2.061 . S
Co677 O683 2.052 . S
Co677 O685 2.135 . S
O678 Co677 2.061 . S
O678 C681 1.235 . S
C679 O682 1.238 . S
C679 O683 1.241 . S
C680 O673 1.247 . S
C680 O674 1.261 . S
C681 O676 1.259 . S
C681 O678 1.235 . S
O682 Co672 2.021 . S
O682 C679 1.238 . S
O683 Co677 2.052 . S
O683 C679 1.241 . S
O684 Co672 2.137 . S
O684 C675 1.247 . S
O685 Co672 2.244 . S
O685 C675 1.272 . S
O685 Co677 2.135 . S
Co686 O687 2.216 . S
Co686 O688 2.091 . S
Co686 O690 2.004 . S
Co686 O696 2.021 . S
Co686 O698 2.137 . S
Co686 O699 2.244 . S
O687 Co686 2.216 . S
O687 C694 1.247 . S
O688 Co686 2.091 . S
O688 C694 1.261 . S
C689 O698 1.247 . S
C689 O699 1.272 . S
O690 Co686 2.004 . S
O690 C695 1.259 . S
Co691 O692 2.061 . S
Co691 O697 2.052 . S
Co691 O699 2.135 . S
O692 Co691 2.061 . S
O692 C695 1.235 . S
C693 O696 1.238 . S
C693 O697 1.241 . S
C694 O687 1.247 . S
C694 O688 1.261 . S
C695 O690 1.259 . S
C695 O692 1.235 . S
O696 Co686 2.021 . S
O696 C693 1.238 . S
O697 Co691 2.052 . S
O697 C693 1.241 . S
O698 Co686 2.137 . S
O698 C689 1.247 . S
O699 Co686 2.244 . S
O699 C689 1.272 . S
O699 Co691 2.135 . S
Co700 O701 2.216 . S
Co700 O702 2.091 . S
Co700 O704 2.004 . S
Co700 O710 2.021 . S
Co700 O712 2.137 . S
Co700 O713 2.244 . S
O701 Co700 2.216 . S
O701 C708 1.247 . S
O702 Co700 2.091 . S
O702 C708 1.261 . S
C703 O712 1.247 . S
C703 O713 1.272 . S
O704 Co700 2.004 . S
O704 C709 1.259 . S
Co705 O706 2.061 . S
Co705 O711 2.052 . S
Co705 O713 2.135 . S
O706 Co705 2.061 . S
O706 C709 1.235 . S
C707 O710 1.238 . S
C707 O711 1.241 . S
C708 O701 1.247 . S
C708 O702 1.261 . S
C709 O704 1.259 . S
C709 O706 1.235 . S
O710 Co700 2.021 . S
O710 C707 1.238 . S
O711 Co705 2.052 . S
O711 C707 1.241 . S
O712 Co700 2.137 . S
O712 C703 1.247 . S
O713 Co700 2.244 . S
O713 C703 1.272 . S
O713 Co705 2.135 . S
Co714 O715 2.216 . S
Co714 O716 2.091 . S
Co714 O718 2.004 . S
Co714 O724 2.021 . S
Co714 O726 2.137 . S
Co714 O727 2.244 . S
O715 Co714 2.216 . S
O715 C722 1.247 . S
O716 Co714 2.091 . S
O716 C722 1.261 . S
C717 O726 1.247 . S
C717 O727 1.272 . S
O718 Co714 2.004 . S
O718 C723 1.259 . S
Co719 O720 2.061 . S
Co719 O725 2.052 . S
Co719 O727 2.135 . S
O720 Co719 2.061 . S
O720 C723 1.235 . S
C721 O724 1.238 . S
C721 O725 1.241 . S
C722 O715 1.247 . S
C722 O716 1.261 . S
C723 O718 1.259 . S
C723 O720 1.235 . S
O724 Co714 2.021 . S
O724 C721 1.238 . S
O725 Co719 2.052 . S
O725 C721 1.241 . S
O726 Co714 2.137 . S
O726 C717 1.247 . S
O727 Co714 2.244 . S
O727 C717 1.272 . S
O727 Co719 2.135 . S
Co728 O729 2.216 . S
Co728 O730 2.091 . S
Co728 O732 2.004 . S
Co728 O738 2.021 . S
Co728 O740 2.137 . S
Co728 O741 2.244 . S
O729 Co728 2.216 . S
O729 C736 1.247 . S
O730 Co728 2.091 . S
O730 C736 1.261 . S
C731 O740 1.247 . S
C731 O741 1.272 . S
O732 Co728 2.004 . S
O732 C737 1.259 . S
Co733 O734 2.061 . S
Co733 O739 2.052 . S
Co733 O741 2.135 . S
O734 Co733 2.061 . S
O734 C737 1.235 . S
C735 O738 1.238 . S
C735 O739 1.241 . S
C736 O729 1.247 . S
C736 O730 1.261 . S
C737 O732 1.259 . S
C737 O734 1.235 . S
O738 Co728 2.021 . S
O738 C735 1.238 . S
O739 Co733 2.052 . S
O739 C735 1.241 . S
O740 Co728 2.137 . S
O740 C731 1.247 . S
O741 Co728 2.244 . S
O741 C731 1.272 . S
O741 Co733 2.135 . S
Co742 O743 2.216 . S
Co742 O744 2.091 . S
Co742 O746 2.004 . S
Co742 O752 2.021 . S
Co742 O754 2.137 . S
Co742 O755 2.244 . S
O743 Co742 2.216 . S
O743 C750 1.247 . S
O744 Co742 2.091 . S
O744 C750 1.261 . S
C745 O754 1.247 . S
C745 O755 1.272 . S
O746 Co742 2.004 . S
O746 C751 1.259 . S
Co747 O748 2.061 . S
Co747 O753 2.052 . S
Co747 O755 2.135 . S
O748 Co747 2.061 . S
O748 C751 1.235 . S
C749 O752 1.238 . S
C749 O753 1.241 . S
C750 O743 1.247 . S
C750 O744 1.261 . S
C751 O746 1.259 . S
C751 O748 1.235 . S
O752 Co742 2.021 . S
O752 C749 1.238 . S
O753 Co747 2.052 . S
O753 C749 1.241 . S
O754 Co742 2.137 . S
O754 C745 1.247 . S
O755 Co742 2.244 . S
O755 C745 1.272 . S
O755 Co747 2.135 . S
Co756 O757 2.216 . S
Co756 O758 2.091 . S
Co756 O760 2.004 . S
Co756 O766 2.021 . S
Co756 O768 2.137 . S
Co756 O769 2.244 . S
O757 Co756 2.216 . S
O757 C764 1.247 . S
O758 Co756 2.091 . S
O758 C764 1.261 . S
C759 O768 1.247 . S
C759 O769 1.272 . S
O760 Co756 2.004 . S
O760 C765 1.259 . S
Co761 O762 2.061 . S
Co761 O767 2.052 . S
Co761 O769 2.135 . S
O762 Co761 2.061 . S
O762 C765 1.235 . S
C763 O766 1.238 . S
C763 O767 1.241 . S
C764 O757 1.247 . S
C764 O758 1.261 . S
C765 O760 1.259 . S
C765 O762 1.235 . S
O766 Co756 2.021 . S
O766 C763 1.238 . S
O767 Co761 2.052 . S
O767 C763 1.241 . S
O768 Co756 2.137 . S
O768 C759 1.247 . S
O769 Co756 2.244 . S
O769 C759 1.272 . S
O769 Co761 2.135 . S
Co770 O771 2.216 . S
Co770 O772 2.091 . S
Co770 O774 2.004 . S
Co770 O780 2.021 . S
Co770 O782 2.137 . S
Co770 O783 2.244 . S
O771 Co770 2.216 . S
O771 C778 1.247 . S
O772 Co770 2.091 . S
O772 C778 1.261 . S
C773 O782 1.247 . S
C773 O783 1.272 . S
O774 Co770 2.004 . S
O774 C779 1.259 . S
Co775 O776 2.061 . S
Co775 O781 2.052 . S
Co775 O783 2.135 . S
O776 Co775 2.061 . S
O776 C779 1.235 . S
C777 O780 1.238 . S
C777 O781 1.241 . S
C778 O771 1.247 . S
C778 O772 1.261 . S
C779 O774 1.259 . S
C779 O776 1.235 . S
O780 Co770 2.021 . S
O780 C777 1.238 . S
O781 Co775 2.052 . S
O781 C777 1.241 . S
O782 Co770 2.137 . S
O782 C773 1.247 . S
O783 Co770 2.244 . S
O783 C773 1.272 . S
O783 Co775 2.135 . S
Co784 O785 2.216 . S
Co784 O786 2.091 . S
Co784 O788 2.004 . S
Co784 O794 2.021 . S
Co784 O796 2.137 . S
Co784 O797 2.244 . S
O785 Co784 2.216 . S
O785 C792 1.247 . S
O786 Co784 2.091 . S
O786 C792 1.261 . S
C787 O796 1.247 . S
C787 O797 1.272 . S
O788 Co784 2.004 . S
O788 C793 1.259 . S
Co789 O790 2.061 . S
Co789 O795 2.052 . S
Co789 O797 2.135 . S
O790 Co789 2.061 . S
O790 C793 1.235 . S
C791 O794 1.238 . S
C791 O795 1.241 . S
C792 O785 1.247 . S
C792 O786 1.261 . S
C793 O788 1.259 . S
C793 O790 1.235 . S
O794 Co784 2.021 . S
O794 C791 1.238 . S
O795 Co789 2.052 . S
O795 C791 1.241 . S
O796 Co784 2.137 . S
O796 C787 1.247 . S
O797 Co784 2.244 . S
O797 C787 1.272 . S
O797 Co789 2.135 . S
Co798 O799 2.216 . S
Co798 O800 2.091 . S
Co798 O802 2.004 . S
Co798 O808 2.021 . S
Co798 O810 2.137 . S
Co798 O811 2.244 . S
O799 Co798 2.216 . S
O799 C806 1.247 . S
O800 Co798 2.091 . S
O800 C806 1.261 . S
C801 O810 1.247 . S
C801 O811 1.272 . S
O802 Co798 2.004 . S
O802 C807 1.259 . S
Co803 O804 2.061 . S
Co803 O809 2.052 . S
Co803 O811 2.135 . S
O804 Co803 2.061 . S
O804 C807 1.235 . S
C805 O808 1.238 . S
C805 O809 1.241 . S
C806 O799 1.247 . S
C806 O800 1.261 . S
C807 O802 1.259 . S
C807 O804 1.235 . S
O808 Co798 2.021 . S
O808 C805 1.238 . S
O809 Co803 2.052 . S
O809 C805 1.241 . S
O810 Co798 2.137 . S
O810 C801 1.247 . S
O811 Co798 2.244 . S
O811 C801 1.272 . S
O811 Co803 2.135 . S
Co812 O813 2.216 . S
Co812 O814 2.091 . S
Co812 O816 2.004 . S
Co812 O822 2.021 . S
Co812 O824 2.137 . S
Co812 O825 2.244 . S
O813 Co812 2.216 . S
O813 C820 1.247 . S
O814 Co812 2.091 . S
O814 C820 1.261 . S
C815 O824 1.247 . S
C815 O825 1.272 . S
O816 Co812 2.004 . S
O816 C821 1.259 . S
Co817 O818 2.061 . S
Co817 O823 2.052 . S
Co817 O825 2.135 . S
O818 Co817 2.061 . S
O818 C821 1.235 . S
C819 O822 1.238 . S
C819 O823 1.241 . S
C820 O813 1.247 . S
C820 O814 1.261 . S
C821 O816 1.259 . S
C821 O818 1.235 . S
O822 Co812 2.021 . S
O822 C819 1.238 . S
O823 Co817 2.052 . S
O823 C819 1.241 . S
O824 Co812 2.137 . S
O824 C815 1.247 . S
O825 Co812 2.244 . S
O825 C815 1.272 . S
O825 Co817 2.135 . S
Co826 O827 2.216 . S
Co826 O828 2.091 . S
Co826 O830 2.004 . S
Co826 O836 2.021 . S
Co826 O838 2.137 . S
Co826 O839 2.244 . S
O827 Co826 2.216 . S
O827 C834 1.247 . S
O828 Co826 2.091 . S
O828 C834 1.261 . S
C829 O838 1.247 . S
C829 O839 1.272 . S
O830 Co826 2.004 . S
O830 C835 1.259 . S
Co831 O832 2.061 . S
Co831 O837 2.052 . S
Co831 O839 2.135 . S
O832 Co831 2.061 . S
O832 C835 1.235 . S
C833 O836 1.238 . S
C833 O837 1.241 . S
C834 O827 1.247 . S
C834 O828 1.261 . S
C835 O830 1.259 . S
C835 O832 1.235 . S
O836 Co826 2.021 . S
O836 C833 1.238 . S
O837 Co831 2.052 . S
O837 C833 1.241 . S
O838 Co826 2.137 . S
O838 C829 1.247 . S
O839 Co826 2.244 . S
O839 C829 1.272 . S
O839 Co831 2.135 . S
Co840 O841 2.216 . S
Co840 O842 2.091 . S
Co840 O844 2.004 . S
Co840 O850 2.021 . S
Co840 O852 2.137 . S
Co840 O853 2.244 . S
O841 Co840 2.216 . S
O841 C848 1.247 . S
O842 Co840 2.091 . S
O842 C848 1.261 . S
C843 O852 1.247 . S
C843 O853 1.272 . S
O844 Co840 2.004 . S
O844 C849 1.259 . S
Co845 O846 2.061 . S
Co845 O851 2.052 . S
Co845 O853 2.135 . S
O846 Co845 2.061 . S
O846 C849 1.235 . S
C847 O850 1.238 . S
C847 O851 1.241 . S
C848 O841 1.247 . S
C848 O842 1.261 . S
C849 O844 1.259 . S
C849 O846 1.235 . S
O850 Co840 2.021 . S
O850 C847 1.238 . S
O851 Co845 2.052 . S
O851 C847 1.241 . S
O852 Co840 2.137 . S
O852 C843 1.247 . S
O853 Co840 2.244 . S
O853 C843 1.272 . S
O853 Co845 2.135 . S
Co854 O855 2.216 . S
Co854 O856 2.091 . S
Co854 O858 2.004 . S
Co854 O864 2.021 . S
Co854 O866 2.137 . S
Co854 O867 2.244 . S
O855 Co854 2.216 . S
O855 C862 1.247 . S
O856 Co854 2.091 . S
O856 C862 1.261 . S
C857 O866 1.247 . S
C857 O867 1.272 . S
O858 Co854 2.004 . S
O858 C863 1.259 . S
Co859 O860 2.061 . S
Co859 O865 2.052 . S
Co859 O867 2.135 . S
O860 Co859 2.061 . S
O860 C863 1.235 . S
C861 O864 1.238 . S
C861 O865 1.241 . S
C862 O855 1.247 . S
C862 O856 1.261 . S
C863 O858 1.259 . S
C863 O860 1.235 . S
O864 Co854 2.021 . S
O864 C861 1.238 . S
O865 Co859 2.052 . S
O865 C861 1.241 . S
O866 Co854 2.137 . S
O866 C857 1.247 . S
O867 Co854 2.244 . S
O867 C857 1.272 . S
O867 Co859 2.135 . S
Co868 O869 2.216 . S
Co868 O870 2.091 . S
Co868 O872 2.004 . S
Co868 O878 2.021 . S
Co868 O880 2.137 . S
Co868 O881 2.244 . S
O869 Co868 2.216 . S
O869 C876 1.247 . S
O870 Co868 2.091 . S
O870 C876 1.261 . S
C871 O880 1.247 . S
C871 O881 1.272 . S
O872 Co868 2.004 . S
O872 C877 1.259 . S
Co873 O874 2.061 . S
Co873 O879 2.052 . S
Co873 O881 2.135 . S
O874 Co873 2.061 . S
O874 C877 1.235 . S
C875 O878 1.238 . S
C875 O879 1.241 . S
C876 O869 1.247 . S
C876 O870 1.261 . S
C877 O872 1.259 . S
C877 O874 1.235 . S
O878 Co868 2.021 . S
O878 C875 1.238 . S
O879 Co873 2.052 . S
O879 C875 1.241 . S
O880 Co868 2.137 . S
O880 C871 1.247 . S
O881 Co868 2.244 . S
O881 C871 1.272 . S
O881 Co873 2.135 . S
Co882 O883 2.216 . S
Co882 O884 2.091 . S
Co882 O886 2.004 . S
Co882 O892 2.021 . S
Co882 O894 2.137 . S
Co882 O895 2.244 . S
O883 Co882 2.216 . S
O883 C890 1.247 . S
O884 Co882 2.091 . S
O884 C890 1.261 . S
C885 O894 1.247 . S
C885 O895 1.272 . S
O886 Co882 2.004 . S
O886 C891 1.259 . S
Co887 O888 2.061 . S
Co887 O893 2.052 . S
Co887 O895 2.135 . S
O888 Co887 2.061 . S
O888 C891 1.235 . S
C889 O892 1.238 . S
C889 O893 1.241 . S
C890 O883 1.247 . S
C890 O884 1.261 . S
C891 O886 1.259 . S
C891 O888 1.235 . S
O892 Co882 2.021 . S
O892 C889 1.238 . S
O893 Co887 2.052 . S
O893 C889 1.241 . S
O894 Co882 2.137 . S
O894 C885 1.247 . S
O895 Co882 2.244 . S
O895 C885 1.272 . S
O895 Co887 2.135 . S
Co896 O897 2.216 . S
Co896 O898 2.091 . S
Co896 O900 2.004 . S
Co896 O906 2.021 . S
Co896 O908 2.137 . S
Co896 O909 2.244 . S
O897 Co896 2.216 . S
O897 C904 1.247 . S
O898 Co896 2.091 . S
O898 C904 1.261 . S
C899 O908 1.247 . S
C899 O909 1.272 . S
O900 Co896 2.004 . S
O900 C905 1.259 . S
Co901 O902 2.061 . S
Co901 O907 2.052 . S
Co901 O909 2.135 . S
O902 Co901 2.061 . S
O902 C905 1.235 . S
C903 O906 1.238 . S
C903 O907 1.241 . S
C904 O897 1.247 . S
C904 O898 1.261 . S
C905 O900 1.259 . S
C905 O902 1.235 . S
O906 Co896 2.021 . S
O906 C903 1.238 . S
O907 Co901 2.052 . S
O907 C903 1.241 . S
O908 Co896 2.137 . S
O908 C899 1.247 . S
O909 Co896 2.244 . S
O909 C899 1.272 . S
O909 Co901 2.135 . S
Co910 O911 2.216 . S
Co910 O912 2.091 . S
Co910 O914 2.004 . S
Co910 O920 2.021 . S
Co910 O922 2.137 . S
Co910 O923 2.244 . S
O911 Co910 2.216 . S
O911 C918 1.247 . S
O912 Co910 2.091 . S
O912 C918 1.261 . S
C913 O922 1.247 . S
C913 O923 1.272 . S
O914 Co910 2.004 . S
O914 C919 1.259 . S
Co915 O916 2.061 . S
Co915 O921 2.052 . S
Co915 O923 2.135 . S
O916 Co915 2.061 . S
O916 C919 1.235 . S
C917 O920 1.238 . S
C917 O921 1.241 . S
C918 O911 1.247 . S
C918 O912 1.261 . S
C919 O914 1.259 . S
C919 O916 1.235 . S
O920 Co910 2.021 . S
O920 C917 1.238 . S
O921 Co915 2.052 . S
O921 C917 1.241 . S
O922 Co910 2.137 . S
O922 C913 1.247 . S
O923 Co910 2.244 . S
O923 C913 1.272 . S
O923 Co915 2.135 . S
Co924 O925 2.216 . S
Co924 O926 2.091 . S
Co924 O928 2.004 . S
Co924 O934 2.021 . S
Co924 O936 2.137 . S
Co924 O937 2.244 . S
O925 Co924 2.216 . S
O925 C932 1.247 . S
O926 Co924 2.091 . S
O926 C932 1.261 . S
C927 O936 1.247 . S
C927 O937 1.272 . S
O928 Co924 2.004 . S
O928 C933 1.259 . S
Co929 O930 2.061 . S
Co929 O935 2.052 . S
Co929 O937 2.135 . S
O930 Co929 2.061 . S
O930 C933 1.235 . S
C931 O934 1.238 . S
C931 O935 1.241 . S
C932 O925 1.247 . S
C932 O926 1.261 . S
C933 O928 1.259 . S
C933 O930 1.235 . S
O934 Co924 2.021 . S
O934 C931 1.238 . S
O935 Co929 2.052 . S
O935 C931 1.241 . S
O936 Co924 2.137 . S
O936 C927 1.247 . S
O937 Co924 2.244 . S
O937 C927 1.272 . S
O937 Co929 2.135 . S
Co938 O939 2.216 . S
Co938 O940 2.091 . S
Co938 O942 2.004 . S
Co938 O948 2.021 . S
Co938 O950 2.137 . S
Co938 O951 2.244 . S
O939 Co938 2.216 . S
O939 C946 1.247 . S
O940 Co938 2.091 . S
O940 C946 1.261 . S
C941 O950 1.247 . S
C941 O951 1.272 . S
O942 Co938 2.004 . S
O942 C947 1.259 . S
Co943 O944 2.061 . S
Co943 O949 2.052 . S
Co943 O951 2.135 . S
O944 Co943 2.061 . S
O944 C947 1.235 . S
C945 O948 1.238 . S
C945 O949 1.241 . S
C946 O939 1.247 . S
C946 O940 1.261 . S
C947 O942 1.259 . S
C947 O944 1.235 . S
O948 Co938 2.021 . S
O948 C945 1.238 . S
O949 Co943 2.052 . S
O949 C945 1.241 . S
O950 Co938 2.137 . S
O950 C941 1.247 . S
O951 Co938 2.244 . S
O951 C941 1.272 . S
O951 Co943 2.135 . S
Co952 O953 2.216 . S
Co952 O954 2.091 . S
Co952 O956 2.004 . S
Co952 O962 2.021 . S
Co952 O964 2.137 . S
Co952 O965 2.244 . S
O953 Co952 2.216 . S
O953 C960 1.247 . S
O954 Co952 2.091 . S
O954 C960 1.261 . S
C955 O964 1.247 . S
C955 O965 1.272 . S
O956 Co952 2.004 . S
O956 C961 1.259 . S
Co957 O958 2.061 . S
Co957 O963 2.052 . S
Co957 O965 2.135 . S
O958 Co957 2.061 . S
O958 C961 1.235 . S
C959 O962 1.238 . S
C959 O963 1.241 . S
C960 O953 1.247 . S
C960 O954 1.261 . S
C961 O956 1.259 . S
C961 O958 1.235 . S
O962 Co952 2.021 . S
O962 C959 1.238 . S
O963 Co957 2.052 . S
O963 C959 1.241 . S
O964 Co952 2.137 . S
O964 C955 1.247 . S
O965 Co952 2.244 . S
O965 C955 1.272 . S
O965 Co957 2.135 . S
Co966 O967 2.216 . S
Co966 O968 2.091 . S
Co966 O970 2.004 . S
Co966 O976 2.021 . S
Co966 O978 2.137 . S
Co966 O979 2.244 . S
O967 Co966 2.216 . S
O967 C974 1.247 . S
O968 Co966 2.091 . S
O968 C974 1.261 . S
C969 O978 1.247 . S
C969 O979 1.272 . S
O970 Co966 2.004 . S
O970 C975 1.259 . S
Co971 O972 2.061 . S
Co971 O977 2.052 . S
Co971 O979 2.135 . S
O972 Co971 2.061 . S
O972 C975 1.235 . S
C973 O976 1.238 . S
C973 O977 1.241 . S
C974 O967 1.247 . S
C974 O968 1.261 . S
C975 O970 1.259 . S
C975 O972 1.235 . S
O976 Co966 2.021 . S
O976 C973 1.238 . S
O977 Co971 2.052 . S
O977 C973 1.241 . S
O978 Co966 2.137 . S
O978 C969 1.247 . S
O979 Co966 2.244 . S
O979 C969 1.272 . S
O979 Co971 2.135 . S
Co980 O981 2.216 . S
Co980 O982 2.091 . S
Co980 O984 2.004 . S
Co980 O990 2.021 . S
Co980 O992 2.137 . S
Co980 O993 2.244 . S
O981 Co980 2.216 . S
O981 C988 1.247 . S
O982 Co980 2.091 . S
O982 C988 1.261 . S
C983 O992 1.247 . S
C983 O993 1.272 . S
O984 Co980 2.004 . S
O984 C989 1.259 . S
Co985 O986 2.061 . S
Co985 O991 2.052 . S
Co985 O993 2.135 . S
O986 Co985 2.061 . S
O986 C989 1.235 . S
C987 O990 1.238 . S
C987 O991 1.241 . S
C988 O981 1.247 . S
C988 O982 1.261 . S
C989 O984 1.259 . S
C989 O986 1.235 . S
O990 Co980 2.021 . S
O990 C987 1.238 . S
O991 Co985 2.052 . S
O991 C987 1.241 . S
O992 Co980 2.137 . S
O992 C983 1.247 . S
O993 Co980 2.244 . S
O993 C983 1.272 . S
O993 Co985 2.135 . S
Co994 O995 2.216 . S
Co994 O996 2.091 . S
Co994 O998 2.004 . S
Co994 O1004 2.021 . S
Co994 O1006 2.137 . S
Co994 O1007 2.244 . S
O995 Co994 2.216 . S
O995 C1002 1.247 . S
O996 Co994 2.091 . S
O996 C1002 1.261 . S
C997 O1006 1.247 . S
C997 O1007 1.272 . S
O998 Co994 2.004 . S
O998 C1003 1.259 . S
Co999 O1000 2.061 . S
Co999 O1005 2.052 . S
Co999 O1007 2.135 . S
O1000 Co999 2.061 . S
O1000 C1003 1.235 . S
C1001 O1004 1.238 . S
C1001 O1005 1.241 . S
C1002 O995 1.247 . S
C1002 O996 1.261 . S
C1003 O998 1.259 . S
C1003 O1000 1.235 . S
O1004 Co994 2.021 . S
O1004 C1001 1.238 . S
O1005 Co999 2.052 . S
O1005 C1001 1.241 . S
O1006 Co994 2.137 . S
O1006 C997 1.247 . S
O1007 Co994 2.244 . S
O1007 C997 1.272 . S
O1007 Co999 2.135 . S
Co1008 O1009 2.216 . S
Co1008 O1010 2.091 . S
Co1008 O1012 2.004 . S
Co1008 O1018 2.021 . S
Co1008 O1020 2.137 . S
Co1008 O1021 2.244 . S
O1009 Co1008 2.216 . S
O1009 C1016 1.247 . S
O1010 Co1008 2.091 . S
O1010 C1016 1.261 . S
C1011 O1020 1.247 . S
C1011 O1021 1.272 . S
O1012 Co1008 2.004 . S
O1012 C1017 1.259 . S
Co1013 O1014 2.061 . S
Co1013 O1019 2.052 . S
Co1013 O1021 2.135 . S
O1014 Co1013 2.061 . S
O1014 C1017 1.235 . S
C1015 O1018 1.238 . S
C1015 O1019 1.241 . S
C1016 O1009 1.247 . S
C1016 O1010 1.261 . S
C1017 O1012 1.259 . S
C1017 O1014 1.235 . S
O1018 Co1008 2.021 . S
O1018 C1015 1.238 . S
O1019 Co1013 2.052 . S
O1019 C1015 1.241 . S
O1020 Co1008 2.137 . S
O1020 C1011 1.247 . S
O1021 Co1008 2.244 . S
O1021 C1011 1.272 . S
O1021 Co1013 2.135 . S
Co1022 O1023 2.216 . S
Co1022 O1024 2.091 . S
Co1022 O1026 2.004 . S
Co1022 O1032 2.021 . S
Co1022 O1034 2.137 . S
Co1022 O1035 2.244 . S
O1023 Co1022 2.216 . S
O1023 C1030 1.247 . S
O1024 Co1022 2.091 . S
O1024 C1030 1.261 . S
C1025 O1034 1.247 . S
C1025 O1035 1.272 . S
O1026 Co1022 2.004 . S
O1026 C1031 1.259 . S
Co1027 O1028 2.061 . S
Co1027 O1033 2.052 . S
Co1027 O1035 2.135 . S
O1028 Co1027 2.061 . S
O1028 C1031 1.235 . S
C1029 O1032 1.238 . S
C1029 O1033 1.241 . S
C1030 O1023 1.247 . S
C1030 O1024 1.261 . S
C1031 O1026 1.259 . S
C1031 O1028 1.235 . S
O1032 Co1022 2.021 . S
O1032 C1029 1.238 . S
O1033 Co1027 2.052 . S
O1033 C1029 1.241 . S
O1034 Co1022 2.137 . S
O1034 C1025 1.247 . S
O1035 Co1022 2.244 . S
O1035 C1025 1.272 . S
O1035 Co1027 2.135 . S
Co1036 O1037 2.216 . S
Co1036 O1038 2.091 . S
Co1036 O1040 2.004 . S
Co1036 O1046 2.021 . S
Co1036 O1048 2.137 . S
Co1036 O1049 2.244 . S
O1037 Co1036 2.216 . S
O1037 C1044 1.247 . S
O1038 Co1036 2.091 . S
O1038 C1044 1.261 . S
C1039 O1048 1.247 . S
C1039 O1049 1.272 . S
O1040 Co1036 2.004 . S
O1040 C1045 1.259 . S
Co1041 O1042 2.061 . S
Co1041 O1047 2.052 . S
Co1041 O1049 2.135 . S
O1042 Co1041 2.061 . S
O1042 C1045 1.235 . S
C1043 O1046 1.238 . S
C1043 O1047 1.241 . S
C1044 O1037 1.247 . S
C1044 O1038 1.261 . S
C1045 O1040 1.259 . S
C1045 O1042 1.235 . S
O1046 Co1036 2.021 . S
O1046 C1043 1.238 . S
O1047 Co1041 2.052 . S
O1047 C1043 1.241 . S
O1048 Co1036 2.137 . S
O1048 C1039 1.247 . S
O1049 Co1036 2.244 . S
O1049 C1039 1.272 . S
O1049 Co1041 2.135 . S
Co1050 O1051 2.216 . S
Co1050 O1052 2.091 . S
Co1050 O1054 2.004 . S
Co1050 O1060 2.021 . S
Co1050 O1062 2.137 . S
Co1050 O1063 2.244 . S
O1051 Co1050 2.216 . S
O1051 C1058 1.247 . S
O1052 Co1050 2.091 . S
O1052 C1058 1.261 . S
C1053 O1062 1.247 . S
C1053 O1063 1.272 . S
O1054 Co1050 2.004 . S
O1054 C1059 1.259 . S
Co1055 O1056 2.061 . S
Co1055 O1061 2.052 . S
Co1055 O1063 2.135 . S
O1056 Co1055 2.061 . S
O1056 C1059 1.235 . S
C1057 O1060 1.238 . S
C1057 O1061 1.241 . S
C1058 O1051 1.247 . S
C1058 O1052 1.261 . S
C1059 O1054 1.259 . S
C1059 O1056 1.235 . S
O1060 Co1050 2.021 . S
O1060 C1057 1.238 . S
O1061 Co1055 2.052 . S
O1061 C1057 1.241 . S
O1062 Co1050 2.137 . S
O1062 C1053 1.247 . S
O1063 Co1050 2.244 . S
O1063 C1053 1.272 . S
O1063 Co1055 2.135 . S
Co1064 O1065 2.216 . S
Co1064 O1066 2.091 . S
Co1064 O1068 2.004 . S
Co1064 O1074 2.021 . S
Co1064 O1076 2.137 . S
Co1064 O1077 2.244 . S
O1065 Co1064 2.216 . S
O1065 C1072 1.247 . S
O1066 Co1064 2.091 . S
O1066 C1072 1.261 . S
C1067 O1076 1.247 . S
C1067 O1077 1.272 . S
O1068 Co1064 2.004 . S
O1068 C1073 1.259 . S
Co1069 O1070 2.061 . S
Co1069 O1075 2.052 . S
Co1069 O1077 2.135 . S
O1070 Co1069 2.061 . S
O1070 C1073 1.235 . S
C1071 O1074 1.238 . S
C1071 O1075 1.241 . S
C1072 O1065 1.247 . S
C1072 O1066 1.261 . S
C1073 O1068 1.259 . S
C1073 O1070 1.235 . S
O1074 Co1064 2.021 . S
O1074 C1071 1.238 . S
O1075 Co1069 2.052 . S
O1075 C1071 1.241 . S
O1076 Co1064 2.137 . S
O1076 C1067 1.247 . S
O1077 Co1064 2.244 . S
O1077 C1067 1.272 . S
O1077 Co1069 2.135 . S
Co1078 O1079 2.216 . S
Co1078 O1080 2.091 . S
Co1078 O1082 2.004 . S
Co1078 O1088 2.021 . S
Co1078 O1090 2.137 . S
Co1078 O1091 2.244 . S
O1079 Co1078 2.216 . S
O1079 C1086 1.247 . S
O1080 Co1078 2.091 . S
O1080 C1086 1.261 . S
C1081 O1090 1.247 . S
C1081 O1091 1.272 . S
O1082 Co1078 2.004 . S
O1082 C1087 1.259 . S
Co1083 O1084 2.061 . S
Co1083 O1089 2.052 . S
Co1083 O1091 2.135 . S
O1084 Co1083 2.061 . S
O1084 C1087 1.235 . S
C1085 O1088 1.238 . S
C1085 O1089 1.241 . S
C1086 O1079 1.247 . S
C1086 O1080 1.261 . S
C1087 O1082 1.259 . S
C1087 O1084 1.235 . S
O1088 Co1078 2.021 . S
O1088 C1085 1.238 . S
O1089 Co1083 2.052 . S
O1089 C1085 1.241 . S
O1090 Co1078 2.137 . S
O1090 C1081 1.247 . S
O1091 Co1078 2.244 . S
O1091 C1081 1.272 . S
O1091 Co1083 2.135 . S
Co1092 O1093 2.216 . S
Co1092 O1094 2.091 . S
Co1092 O1096 2.004 . S
Co1092 O1102 2.021 . S
Co1092 O1104 2.137 . S
Co1092 O1105 2.244 . S
O1093 Co1092 2.216 . S
O1093 C1100 1.247 . S
O1094 Co1092 2.091 . S
O1094 C1100 1.261 . S
C1095 O1104 1.247 . S
C1095 O1105 1.272 . S
O1096 Co1092 2.004 . S
O1096 C1101 1.259 . S
Co1097 O1098 2.061 . S
Co1097 O1103 2.052 . S
Co1097 O1105 2.135 . S
O1098 Co1097 2.061 . S
O1098 C1101 1.235 . S
C1099 O1102 1.238 . S
C1099 O1103 1.241 . S
C1100 O1093 1.247 . S
C1100 O1094 1.261 . S
C1101 O1096 1.259 . S
C1101 O1098 1.235 . S
O1102 Co1092 2.021 . S
O1102 C1099 1.238 . S
O1103 Co1097 2.052 . S
O1103 C1099 1.241 . S
O1104 Co1092 2.137 . S
O1104 C1095 1.247 . S
O1105 Co1092 2.244 . S
O1105 C1095 1.272 . S
O1105 Co1097 2.135 . S
Co1106 O1107 2.216 . S
Co1106 O1108 2.091 . S
Co1106 O1110 2.004 . S
Co1106 O1116 2.021 . S
Co1106 O1118 2.137 . S
Co1106 O1119 2.244 . S
O1107 Co1106 2.216 . S
O1107 C1114 1.247 . S
O1108 Co1106 2.091 . S
O1108 C1114 1.261 . S
C1109 O1118 1.247 . S
C1109 O1119 1.272 . S
O1110 Co1106 2.004 . S
O1110 C1115 1.259 . S
Co1111 O1112 2.061 . S
Co1111 O1117 2.052 . S
Co1111 O1119 2.135 . S
O1112 Co1111 2.061 . S
O1112 C1115 1.235 . S
C1113 O1116 1.238 . S
C1113 O1117 1.241 . S
C1114 O1107 1.247 . S
C1114 O1108 1.261 . S
C1115 O1110 1.259 . S
C1115 O1112 1.235 . S
O1116 Co1106 2.021 . S
O1116 C1113 1.238 . S
O1117 Co1111 2.052 . S
O1117 C1113 1.241 . S
O1118 Co1106 2.137 . S
O1118 C1109 1.247 . S
O1119 Co1106 2.244 . S
O1119 C1109 1.272 . S
O1119 Co1111 2.135 . S
Co1120 O1121 2.216 . S
Co1120 O1122 2.091 . S
Co1120 O1124 2.004 . S
Co1120 O1130 2.021 . S
Co1120 O1132 2.137 . S
Co1120 O1133 2.244 . S
O1121 Co1120 2.216 . S
O1121 C1128 1.247 . S
O1122 Co1120 2.091 . S
O1122 C1128 1.261 . S
C1123 O1132 1.247 . S
C1123 O1133 1.272 . S
O1124 Co1120 2.004 . S
O1124 C1129 1.259 . S
Co1125 O1126 2.061 . S
Co1125 O1131 2.052 . S
Co1125 O1133 2.135 . S
O1126 Co1125 2.061 . S
O1126 C1129 1.235 . S
C1127 O1130 1.238 . S
C1127 O1131 1.241 . S
C1128 O1121 1.247 . S
C1128 O1122 1.261 . S
C1129 O1124 1.259 . S
C1129 O1126 1.235 . S
O1130 Co1120 2.021 . S
O1130 C1127 1.238 . S
O1131 Co1125 2.052 . S
O1131 C1127 1.241 . S
O1132 Co1120 2.137 . S
O1132 C1123 1.247 . S
O1133 Co1120 2.244 . S
O1133 C1123 1.272 . S
O1133 Co1125 2.135 . S
Co1134 O1135 2.216 . S
Co1134 O1136 2.091 . S
Co1134 O1138 2.004 . S
Co1134 O1144 2.021 . S
Co1134 O1146 2.137 . S
Co1134 O1147 2.244 . S
O1135 Co1134 2.216 . S
O1135 C1142 1.247 . S
O1136 Co1134 2.091 . S
O1136 C1142 1.261 . S
C1137 O1146 1.247 . S
C1137 O1147 1.272 . S
O1138 Co1134 2.004 . S
O1138 C1143 1.259 . S
Co1139 O1140 2.061 . S
Co1139 O1145 2.052 . S
Co1139 O1147 2.135 . S
O1140 Co1139 2.061 . S
O1140 C1143 1.235 . S
C1141 O1144 1.238 . S
C1141 O1145 1.241 . S
C1142 O1135 1.247 . S
C1142 O1136 1.261 . S
C1143 O1138 1.259 . S
C1143 O1140 1.235 . S
O1144 Co1134 2.021 . S
O1144 C1141 1.238 . S
O1145 Co1139 2.052 . S
O1145 C1141 1.241 . S
O1146 Co1134 2.137 . S
O1146 C1137 1.247 . S
O1147 Co1134 2.244 . S
O1147 C1137 1.272 . S
O1147 Co1139 2.135 . S
Co1148 O1149 2.216 . S
Co1148 O1150 2.091 . S
Co1148 O1152 2.004 . S
Co1148 O1158 2.021 . S
Co1148 O1160 2.137 . S
Co1148 O1161 2.244 . S
O1149 Co1148 2.216 . S
O1149 C1156 1.247 . S
O1150 Co1148 2.091 . S
O1150 C1156 1.261 . S
C1151 O1160 1.247 . S
C1151 O1161 1.272 . S
O1152 Co1148 2.004 . S
O1152 C1157 1.259 . S
Co1153 O1154 2.061 . S
Co1153 O1159 2.052 . S
Co1153 O1161 2.135 . S
O1154 Co1153 2.061 . S
O1154 C1157 1.235 . S
C1155 O1158 1.238 . S
C1155 O1159 1.241 . S
C1156 O1149 1.247 . S
C1156 O1150 1.261 . S
C1157 O1152 1.259 . S
C1157 O1154 1.235 . S
O1158 Co1148 2.021 . S
O1158 C1155 1.238 . S
O1159 Co1153 2.052 . S
O1159 C1155 1.241 . S
O1160 Co1148 2.137 . S
O1160 C1151 1.247 . S
O1161 Co1148 2.244 . S
O1161 C1151 1.272 . S
O1161 Co1153 2.135 . S
Co1162 O1163 2.216 . S
Co1162 O1164 2.091 . S
Co1162 O1166 2.004 . S
Co1162 O1172 2.021 . S
Co1162 O1174 2.137 . S
Co1162 O1175 2.244 . S
O1163 Co1162 2.216 . S
O1163 C1170 1.247 . S
O1164 Co1162 2.091 . S
O1164 C1170 1.261 . S
C1165 O1174 1.247 . S
C1165 O1175 1.272 . S
O1166 Co1162 2.004 . S
O1166 C1171 1.259 . S
Co1167 O1168 2.061 . S
Co1167 O1173 2.052 . S
Co1167 O1175 2.135 . S
O1168 Co1167 2.061 . S
O1168 C1171 1.235 . S
C1169 O1172 1.238 . S
C1169 O1173 1.241 . S
C1170 O1163 1.247 . S
C1170 O1164 1.261 . S
C1171 O1166 1.259 . S
C1171 O1168 1.235 . S
O1172 Co1162 2.021 . S
O1172 C1169 1.238 . S
O1173 Co1167 2.052 . S
O1173 C1169 1.241 . S
O1174 Co1162 2.137 . S
O1174 C1165 1.247 . S
O1175 Co1162 2.244 . S
O1175 C1165 1.272 . S
O1175 Co1167 2.135 . S
Co1176 O1177 2.216 . S
Co1176 O1178 2.091 . S
Co1176 O1180 2.004 . S
Co1176 O1186 2.021 . S
Co1176 O1188 2.137 . S
Co1176 O1189 2.244 . S
O1177 Co1176 2.216 . S
O1177 C1184 1.247 . S
O1178 Co1176 2.091 . S
O1178 C1184 1.261 . S
C1179 O1188 1.247 . S
C1179 O1189 1.272 . S
O1180 Co1176 2.004 . S
O1180 C1185 1.259 . S
Co1181 O1182 2.061 . S
Co1181 O1187 2.052 . S
Co1181 O1189 2.135 . S
O1182 Co1181 2.061 . S
O1182 C1185 1.235 . S
C1183 O1186 1.238 . S
C1183 O1187 1.241 . S
C1184 O1177 1.247 . S
C1184 O1178 1.261 . S
C1185 O1180 1.259 . S
C1185 O1182 1.235 . S
O1186 Co1176 2.021 . S
O1186 C1183 1.238 . S
O1187 Co1181 2.052 . S
O1187 C1183 1.241 . S
O1188 Co1176 2.137 . S
O1188 C1179 1.247 . S
O1189 Co1176 2.244 . S
O1189 C1179 1.272 . S
O1189 Co1181 2.135 . S
Co1190 O1191 2.216 . S
Co1190 O1192 2.091 . S
Co1190 O1194 2.004 . S
Co1190 O1200 2.021 . S
Co1190 O1202 2.137 . S
Co1190 O1203 2.244 . S
O1191 Co1190 2.216 . S
O1191 C1198 1.247 . S
O1192 Co1190 2.091 . S
O1192 C1198 1.261 . S
C1193 O1202 1.247 . S
C1193 O1203 1.272 . S
O1194 Co1190 2.004 . S
O1194 C1199 1.259 . S
Co1195 O1196 2.061 . S
Co1195 O1201 2.052 . S
Co1195 O1203 2.135 . S
O1196 Co1195 2.061 . S
O1196 C1199 1.235 . S
C1197 O1200 1.238 . S
C1197 O1201 1.241 . S
C1198 O1191 1.247 . S
C1198 O1192 1.261 . S
C1199 O1194 1.259 . S
C1199 O1196 1.235 . S
O1200 Co1190 2.021 . S
O1200 C1197 1.238 . S
O1201 Co1195 2.052 . S
O1201 C1197 1.241 . S
O1202 Co1190 2.137 . S
O1202 C1193 1.247 . S
O1203 Co1190 2.244 . S
O1203 C1193 1.272 . S
O1203 Co1195 2.135 . S
Co1204 O1205 2.216 . S
Co1204 O1206 2.091 . S
Co1204 O1208 2.004 . S
Co1204 O1214 2.021 . S
Co1204 O1216 2.137 . S
Co1204 O1217 2.244 . S
O1205 Co1204 2.216 . S
O1205 C1212 1.247 . S
O1206 Co1204 2.091 . S
O1206 C1212 1.261 . S
C1207 O1216 1.247 . S
C1207 O1217 1.272 . S
O1208 Co1204 2.004 . S
O1208 C1213 1.259 . S
Co1209 O1210 2.061 . S
Co1209 O1215 2.052 . S
Co1209 O1217 2.135 . S
O1210 Co1209 2.061 . S
O1210 C1213 1.235 . S
C1211 O1214 1.238 . S
C1211 O1215 1.241 . S
C1212 O1205 1.247 . S
C1212 O1206 1.261 . S
C1213 O1208 1.259 . S
C1213 O1210 1.235 . S
O1214 Co1204 2.021 . S
O1214 C1211 1.238 . S
O1215 Co1209 2.052 . S
O1215 C1211 1.241 . S
O1216 Co1204 2.137 . S
O1216 C1207 1.247 . S
O1217 Co1204 2.244 . S
O1217 C1207 1.272 . S
O1217 Co1209 2.135 . S
Co1218 O1219 2.216 . S
Co1218 O1220 2.091 . S
Co1218 O1222 2.004 . S
Co1218 O1228 2.021 . S
Co1218 O1230 2.137 . S
Co1218 O1231 2.244 . S
O1219 Co1218 2.216 . S
O1219 C1226 1.247 . S
O1220 Co1218 2.091 . S
O1220 C1226 1.261 . S
C1221 O1230 1.247 . S
C1221 O1231 1.272 . S
O1222 Co1218 2.004 . S
O1222 C1227 1.259 . S
Co1223 O1224 2.061 . S
Co1223 O1229 2.052 . S
Co1223 O1231 2.135 . S
O1224 Co1223 2.061 . S
O1224 C1227 1.235 . S
C1225 O1228 1.238 . S
C1225 O1229 1.241 . S
C1226 O1219 1.247 . S
C1226 O1220 1.261 . S
C1227 O1222 1.259 . S
C1227 O1224 1.235 . S
O1228 Co1218 2.021 . S
O1228 C1225 1.238 . S
O1229 Co1223 2.052 . S
O1229 C1225 1.241 . S
O1230 Co1218 2.137 . S
O1230 C1221 1.247 . S
O1231 Co1218 2.244 . S
O1231 C1221 1.272 . S
O1231 Co1223 2.135 . S
Co1232 O1233 2.216 . S
Co1232 O1234 2.091 . S
Co1232 O1236 2.004 . S
Co1232 O1242 2.021 . S
Co1232 O1244 2.137 . S
Co1232 O1245 2.244 . S
O1233 Co1232 2.216 . S
O1233 C1240 1.247 . S
O1234 Co1232 2.091 . S
O1234 C1240 1.261 . S
C1235 O1244 1.247 . S
C1235 O1245 1.272 . S
O1236 Co1232 2.004 . S
O1236 C1241 1.259 . S
Co1237 O1238 2.061 . S
Co1237 O1243 2.052 . S
Co1237 O1245 2.135 . S
O1238 Co1237 2.061 . S
O1238 C1241 1.235 . S
C1239 O1242 1.238 . S
C1239 O1243 1.241 . S
C1240 O1233 1.247 . S
C1240 O1234 1.261 . S
C1241 O1236 1.259 . S
C1241 O1238 1.235 . S
O1242 Co1232 2.021 . S
O1242 C1239 1.238 . S
O1243 Co1237 2.052 . S
O1243 C1239 1.241 . S
O1244 Co1232 2.137 . S
O1244 C1235 1.247 . S
O1245 Co1232 2.244 . S
O1245 C1235 1.272 . S
O1245 Co1237 2.135 . S
Co1246 O1247 2.216 . S
Co1246 O1248 2.091 . S
Co1246 O1250 2.004 . S
Co1246 O1256 2.021 . S
Co1246 O1258 2.137 . S
Co1246 O1259 2.244 . S
O1247 Co1246 2.216 . S
O1247 C1254 1.247 . S
O1248 Co1246 2.091 . S
O1248 C1254 1.261 . S
C1249 O1258 1.247 . S
C1249 O1259 1.272 . S
O1250 Co1246 2.004 . S
O1250 C1255 1.259 . S
Co1251 O1252 2.061 . S
Co1251 O1257 2.052 . S
Co1251 O1259 2.135 . S
O1252 Co1251 2.061 . S
O1252 C1255 1.235 . S
C1253 O1256 1.238 . S
C1253 O1257 1.241 . S
C1254 O1247 1.247 . S
C1254 O1248 1.261 . S
C1255 O1250 1.259 . S
C1255 O1252 1.235 . S
O1256 Co1246 2.021 . S
O1256 C1253 1.238 . S
O1257 Co1251 2.052 . S
O1257 C1253 1.241 . S
O1258 Co1246 2.137 . S
O1258 C1249 1.247 . S
O1259 Co1246 2.244 . S
O1259 C1249 1.272 . S
O1259 Co1251 2.135 . S
Co1260 O1261 2.216 . S
Co1260 O1262 2.091 . S
Co1260 O1264 2.004 . S
Co1260 O1270 2.021 . S
Co1260 O1272 2.137 . S
Co1260 O1273 2.244 . S
O1261 Co1260 2.216 . S
O1261 C1268 1.247 . S
O1262 Co1260 2.091 . S
O1262 C1268 1.261 . S
C1263 O1272 1.247 . S
C1263 O1273 1.272 . S
O1264 Co1260 2.004 . S
O1264 C1269 1.259 . S
Co1265 O1266 2.061 . S
Co1265 O1271 2.052 . S
Co1265 O1273 2.135 . S
O1266 Co1265 2.061 . S
O1266 C1269 1.235 . S
C1267 O1270 1.238 . S
C1267 O1271 1.241 . S
C1268 O1261 1.247 . S
C1268 O1262 1.261 . S
C1269 O1264 1.259 . S
C1269 O1266 1.235 . S
O1270 Co1260 2.021 . S
O1270 C1267 1.238 . S
O1271 Co1265 2.052 . S
O1271 C1267 1.241 . S
O1272 Co1260 2.137 . S
O1272 C1263 1.247 . S
O1273 Co1260 2.244 . S
O1273 C1263 1.272 . S
O1273 Co1265 2.135 . S
Co1274 O1275 2.216 . S
Co1274 O1276 2.091 . S
Co1274 O1278 2.004 . S
Co1274 O1284 2.021 . S
Co1274 O1286 2.137 . S
Co1274 O1287 2.244 . S
O1275 Co1274 2.216 . S
O1275 C1282 1.247 . S
O1276 Co1274 2.091 . S
O1276 C1282 1.261 . S
C1277 O1286 1.247 . S
C1277 O1287 1.272 . S
O1278 Co1274 2.004 . S
O1278 C1283 1.259 . S
Co1279 O1280 2.061 . S
Co1279 O1285 2.052 . S
Co1279 O1287 2.135 . S
O1280 Co1279 2.061 . S
O1280 C1283 1.235 . S
C1281 O1284 1.238 . S
C1281 O1285 1.241 . S
C1282 O1275 1.247 . S
C1282 O1276 1.261 . S
C1283 O1278 1.259 . S
C1283 O1280 1.235 . S
O1284 Co1274 2.021 . S
O1284 C1281 1.238 . S
O1285 Co1279 2.052 . S
O1285 C1281 1.241 . S
O1286 Co1274 2.137 . S
O1286 C1277 1.247 . S
O1287 Co1274 2.244 . S
O1287 C1277 1.272 . S
O1287 Co1279 2.135 . S
Co1288 O1289 2.216 . S
Co1288 O1290 2.091 . S
Co1288 O1292 2.004 . S
Co1288 O1298 2.021 . S
Co1288 O1300 2.137 . S
Co1288 O1301 2.244 . S
O1289 Co1288 2.216 . S
O1289 C1296 1.247 . S
O1290 Co1288 2.091 . S
O1290 C1296 1.261 . S
C1291 O1300 1.247 . S
C1291 O1301 1.272 . S
O1292 Co1288 2.004 . S
O1292 C1297 1.259 . S
Co1293 O1294 2.061 . S
Co1293 O1299 2.052 . S
Co1293 O1301 2.135 . S
O1294 Co1293 2.061 . S
O1294 C1297 1.235 . S
C1295 O1298 1.238 . S
C1295 O1299 1.241 . S
C1296 O1289 1.247 . S
C1296 O1290 1.261 . S
C1297 O1292 1.259 . S
C1297 O1294 1.235 . S
O1298 Co1288 2.021 . S
O1298 C1295 1.238 . S
O1299 Co1293 2.052 . S
O1299 C1295 1.241 . S
O1300 Co1288 2.137 . S
O1300 C1291 1.247 . S
O1301 Co1288 2.244 . S
O1301 C1291 1.272 . S
O1301 Co1293 2.135 . S
Co1302 O1303 2.216 . S
Co1302 O1304 2.091 . S
Co1302 O1306 2.004 . S
Co1302 O1312 2.021 . S
Co1302 O1314 2.137 . S
Co1302 O1315 2.244 . S
O1303 Co1302 2.216 . S
O1303 C1310 1.247 . S
O1304 Co1302 2.091 . S
O1304 C1310 1.261 . S
C1305 O1314 1.247 . S
C1305 O1315 1.272 . S
O1306 Co1302 2.004 . S
O1306 C1311 1.259 . S
Co1307 O1308 2.061 . S
Co1307 O1313 2.052 . S
Co1307 O1315 2.135 . S
O1308 Co1307 2.061 . S
O1308 C1311 1.235 . S
C1309 O1312 1.238 . S
C1309 O1313 1.241 . S
C1310 O1303 1.247 . S
C1310 O1304 1.261 . S
C1311 O1306 1.259 . S
C1311 O1308 1.235 . S
O1312 Co1302 2.021 . S
O1312 C1309 1.238 . S
O1313 Co1307 2.052 . S
O1313 C1309 1.241 . S
O1314 Co1302 2.137 . S
O1314 C1305 1.247 . S
O1315 Co1302 2.244 . S
O1315 C1305 1.272 . S
O1315 Co1307 2.135 . S
Co1316 O1317 2.216 . S
Co1316 O1318 2.091 . S
Co1316 O1320 2.004 . S
Co1316 O1326 2.021 . S
Co1316 O1328 2.137 . S
Co1316 O1329 2.244 . S
O1317 Co1316 2.216 . S
O1317 C1324 1.247 . S
O1318 Co1316 2.091 . S
O1318 C1324 1.261 . S
C1319 O1328 1.247 . S
C1319 O1329 1.272 . S
O1320 Co1316 2.004 . S
O1320 C1325 1.259 . S
Co1321 O1322 2.061 . S
Co1321 O1327 2.052 . S
Co1321 O1329 2.135 . S
O1322 Co1321 2.061 . S
O1322 C1325 1.235 . S
C1323 O1326 1.238 . S
C1323 O1327 1.241 . S
C1324 O1317 1.247 . S
C1324 O1318 1.261 . S
C1325 O1320 1.259 . S
C1325 O1322 1.235 . S
O1326 Co1316 2.021 . S
O1326 C1323 1.238 . S
O1327 Co1321 2.052 . S
O1327 C1323 1.241 . S
O1328 Co1316 2.137 . S
O1328 C1319 1.247 . S
O1329 Co1316 2.244 . S
O1329 C1319 1.272 . S
O1329 Co1321 2.135 . S
Co1330 O1331 2.216 . S
Co1330 O1332 2.091 . S
Co1330 O1334 2.004 . S
Co1330 O1340 2.021 . S
Co1330 O1342 2.137 . S
Co1330 O1343 2.244 . S
O1331 Co1330 2.216 . S
O1331 C1338 1.247 . S
O1332 Co1330 2.091 . S
O1332 C1338 1.261 . S
C1333 O1342 1.247 . S
C1333 O1343 1.272 . S
O1334 Co1330 2.004 . S
O1334 C1339 1.259 . S
Co1335 O1336 2.061 . S
Co1335 O1341 2.052 . S
Co1335 O1343 2.135 . S
O1336 Co1335 2.061 . S
O1336 C1339 1.235 . S
C1337 O1340 1.238 . S
C1337 O1341 1.241 . S
C1338 O1331 1.247 . S
C1338 O1332 1.261 . S
C1339 O1334 1.259 . S
C1339 O1336 1.235 . S
O1340 Co1330 2.021 . S
O1340 C1337 1.238 . S
O1341 Co1335 2.052 . S
O1341 C1337 1.241 . S
O1342 Co1330 2.137 . S
O1342 C1333 1.247 . S
O1343 Co1330 2.244 . S
O1343 C1333 1.272 . S
O1343 Co1335 2.135 . S
C1344 C1345 1.387 . S
C1344 H1348 0.950 . S
C1344 C1353 1.390 . S
C1345 C1344 1.387 . S
C1345 C1347 1.387 . S
H1346 C1353 0.950 . S
C1347 C1345 1.387 . S
C1347 C1349 1.390 . S
C1347 H1351 0.950 . S
H1348 C1344 0.950 . S
C1349 C1347 1.390 . S
C1349 C1350 1.387 . S
C1349 H1352 0.950 . S
C1350 C1349 1.387 . S
C1350 C1353 1.387 . S
H1351 C1347 0.950 . S
H1352 C1349 0.950 . S
C1353 C1344 1.390 . S
C1353 H1346 0.950 . S
C1353 C1350 1.387 . S
C1354 C1355 1.387 . S
C1354 H1358 0.950 . S
C1354 C1363 1.390 . S
C1355 C1354 1.387 . S
C1355 C1357 1.387 . S
H1356 C1363 0.950 . S
C1357 C1355 1.387 . S
C1357 C1359 1.390 . S
C1357 H1361 0.950 . S
H1358 C1354 0.950 . S
C1359 C1357 1.390 . S
C1359 C1360 1.387 . S
C1359 H1362 0.950 . S
C1360 C1359 1.387 . S
C1360 C1363 1.387 . S
H1361 C1357 0.950 . S
H1362 C1359 0.950 . S
C1363 C1354 1.390 . S
C1363 H1356 0.950 . S
C1363 C1360 1.387 . S
C1364 C1365 1.387 . S
C1364 H1368 0.950 . S
C1364 C1373 1.390 . S
C1365 C1364 1.387 . S
C1365 C1367 1.387 . S
H1366 C1373 0.950 . S
C1367 C1365 1.387 . S
C1367 C1369 1.390 . S
C1367 H1371 0.950 . S
H1368 C1364 0.950 . S
C1369 C1367 1.390 . S
C1369 C1370 1.387 . S
C1369 H1372 0.950 . S
C1370 C1369 1.387 . S
C1370 C1373 1.387 . S
H1371 C1367 0.950 . S
H1372 C1369 0.950 . S
C1373 C1364 1.390 . S
C1373 H1366 0.950 . S
C1373 C1370 1.387 . S
C1374 C1375 1.387 . S
C1374 H1378 0.950 . S
C1374 C1383 1.390 . S
C1375 C1374 1.387 . S
C1375 C1377 1.387 . S
H1376 C1383 0.950 . S
C1377 C1375 1.387 . S
C1377 C1379 1.390 . S
C1377 H1381 0.950 . S
H1378 C1374 0.950 . S
C1379 C1377 1.390 . S
C1379 C1380 1.387 . S
C1379 H1382 0.950 . S
C1380 C1379 1.387 . S
C1380 C1383 1.387 . S
H1381 C1377 0.950 . S
H1382 C1379 0.950 . S
C1383 C1374 1.390 . S
C1383 H1376 0.950 . S
C1383 C1380 1.387 . S
C1384 C1385 1.387 . S
C1384 H1388 0.950 . S
C1384 C1393 1.390 . S
C1385 C1384 1.387 . S
C1385 C1387 1.387 . S
H1386 C1393 0.950 . S
C1387 C1385 1.387 . S
C1387 C1389 1.390 . S
C1387 H1391 0.950 . S
H1388 C1384 0.950 . S
C1389 C1387 1.390 . S
C1389 C1390 1.387 . S
C1389 H1392 0.950 . S
C1390 C1389 1.387 . S
C1390 C1393 1.387 . S
H1391 C1387 0.950 . S
H1392 C1389 0.950 . S
C1393 C1384 1.390 . S
C1393 H1386 0.950 . S
C1393 C1390 1.387 . S
C1394 C1395 1.387 . S
C1394 H1398 0.950 . S
C1394 C1403 1.390 . S
C1395 C1394 1.387 . S
C1395 C1397 1.387 . S
H1396 C1403 0.950 . S
C1397 C1395 1.387 . S
C1397 C1399 1.390 . S
C1397 H1401 0.950 . S
H1398 C1394 0.950 . S
C1399 C1397 1.390 . S
C1399 C1400 1.387 . S
C1399 H1402 0.950 . S
C1400 C1399 1.387 . S
C1400 C1403 1.387 . S
H1401 C1397 0.950 . S
H1402 C1399 0.950 . S
C1403 C1394 1.390 . S
C1403 H1396 0.950 . S
C1403 C1400 1.387 . S
C1404 C1405 1.387 . S
C1404 H1408 0.950 . S
C1404 C1413 1.390 . S
C1405 C1404 1.387 . S
C1405 C1407 1.387 . S
H1406 C1413 0.950 . S
C1407 C1405 1.387 . S
C1407 C1409 1.390 . S
C1407 H1411 0.950 . S
H1408 C1404 0.950 . S
C1409 C1407 1.390 . S
C1409 C1410 1.387 . S
C1409 H1412 0.950 . S
C1410 C1409 1.387 . S
C1410 C1413 1.387 . S
H1411 C1407 0.950 . S
H1412 C1409 0.950 . S
C1413 C1404 1.390 . S
C1413 H1406 0.950 . S
C1413 C1410 1.387 . S
C1414 C1415 1.387 . S
C1414 H1418 0.950 . S
C1414 C1423 1.390 . S
C1415 C1414 1.387 . S
C1415 C1417 1.387 . S
H1416 C1423 0.950 . S
C1417 C1415 1.387 . S
C1417 C1419 1.390 . S
C1417 H1421 0.950 . S
H1418 C1414 0.950 . S
C1419 C1417 1.390 . S
C1419 C1420 1.387 . S
C1419 H1422 0.950 . S
C1420 C1419 1.387 . S
C1420 C1423 1.387 . S
H1421 C1417 0.950 . S
H1422 C1419 0.950 . S
C1423 C1414 1.390 . S
C1423 H1416 0.950 . S
C1423 C1420 1.387 . S
C1424 C1425 1.387 . S
C1424 H1428 0.950 . S
C1424 C1433 1.390 . S
C1425 C1424 1.387 . S
C1425 C1427 1.387 . S
H1426 C1433 0.950 . S
C1427 C1425 1.387 . S
C1427 C1429 1.390 . S
C1427 H1431 0.950 . S
H1428 C1424 0.950 . S
C1429 C1427 1.390 . S
C1429 C1430 1.387 . S
C1429 H1432 0.950 . S
C1430 C1429 1.387 . S
C1430 C1433 1.387 . S
H1431 C1427 0.950 . S
H1432 C1429 0.950 . S
C1433 C1424 1.390 . S
C1433 H1426 0.950 . S
C1433 C1430 1.387 . S
C1434 C1435 1.387 . S
C1434 H1438 0.950 . S
C1434 C1443 1.390 . S
C1435 C1434 1.387 . S
C1435 C1437 1.387 . S
H1436 C1443 0.950 . S
C1437 C1435 1.387 . S
C1437 C1439 1.390 . S
C1437 H1441 0.950 . S
H1438 C1434 0.950 . S
C1439 C1437 1.390 . S
C1439 C1440 1.387 . S
C1439 H1442 0.950 . S
C1440 C1439 1.387 . S
C1440 C1443 1.387 . S
H1441 C1437 0.950 . S
H1442 C1439 0.950 . S
C1443 C1434 1.390 . S
C1443 H1436 0.950 . S
C1443 C1440 1.387 . S
C1444 C1445 1.387 . S
C1444 H1448 0.950 . S
C1444 C1453 1.390 . S
C1445 C1444 1.387 . S
C1445 C1447 1.387 . S
H1446 C1453 0.950 . S
C1447 C1445 1.387 . S
C1447 C1449 1.390 . S
C1447 H1451 0.950 . S
H1448 C1444 0.950 . S
C1449 C1447 1.390 . S
C1449 C1450 1.387 . S
C1449 H1452 0.950 . S
C1450 C1449 1.387 . S
C1450 C1453 1.387 . S
H1451 C1447 0.950 . S
H1452 C1449 0.950 . S
C1453 C1444 1.390 . S
C1453 H1446 0.950 . S
C1453 C1450 1.387 . S
C1454 C1455 1.387 . S
C1454 H1458 0.950 . S
C1454 C1463 1.390 . S
C1455 C1454 1.387 . S
C1455 C1457 1.387 . S
H1456 C1463 0.950 . S
C1457 C1455 1.387 . S
C1457 C1459 1.390 . S
C1457 H1461 0.950 . S
H1458 C1454 0.950 . S
C1459 C1457 1.390 . S
C1459 C1460 1.387 . S
C1459 H1462 0.950 . S
C1460 C1459 1.387 . S
C1460 C1463 1.387 . S
H1461 C1457 0.950 . S
H1462 C1459 0.950 . S
C1463 C1454 1.390 . S
C1463 H1456 0.950 . S
C1463 C1460 1.387 . S
C1464 C1465 1.387 . S
C1464 H1468 0.950 . S
C1464 C1473 1.390 . S
C1465 C1464 1.387 . S
C1465 C1467 1.387 . S
H1466 C1473 0.950 . S
C1467 C1465 1.387 . S
C1467 C1469 1.390 . S
C1467 H1471 0.950 . S
H1468 C1464 0.950 . S
C1469 C1467 1.390 . S
C1469 C1470 1.387 . S
C1469 H1472 0.950 . S
C1470 C1469 1.387 . S
C1470 C1473 1.387 . S
H1471 C1467 0.950 . S
H1472 C1469 0.950 . S
C1473 C1464 1.390 . S
C1473 H1466 0.950 . S
C1473 C1470 1.387 . S
C1474 C1475 1.387 . S
C1474 H1478 0.950 . S
C1474 C1483 1.390 . S
C1475 C1474 1.387 . S
C1475 C1477 1.387 . S
H1476 C1483 0.950 . S
C1477 C1475 1.387 . S
C1477 C1479 1.390 . S
C1477 H1481 0.950 . S
H1478 C1474 0.950 . S
C1479 C1477 1.390 . S
C1479 C1480 1.387 . S
C1479 H1482 0.950 . S
C1480 C1479 1.387 . S
C1480 C1483 1.387 . S
H1481 C1477 0.950 . S
H1482 C1479 0.950 . S
C1483 C1474 1.390 . S
C1483 H1476 0.950 . S
C1483 C1480 1.387 . S
C1484 C1485 1.387 . S
C1484 H1488 0.950 . S
C1484 C1493 1.390 . S
C1485 C1484 1.387 . S
C1485 C1487 1.387 . S
H1486 C1493 0.950 . S
C1487 C1485 1.387 . S
C1487 C1489 1.390 . S
C1487 H1491 0.950 . S
H1488 C1484 0.950 . S
C1489 C1487 1.390 . S
C1489 C1490 1.387 . S
C1489 H1492 0.950 . S
C1490 C1489 1.387 . S
C1490 C1493 1.387 . S
H1491 C1487 0.950 . S
H1492 C1489 0.950 . S
C1493 C1484 1.390 . S
C1493 H1486 0.950 . S
C1493 C1490 1.387 . S
C1494 C1495 1.387 . S
C1494 H1498 0.950 . S
C1494 C1503 1.390 . S
C1495 C1494 1.387 . S
C1495 C1497 1.387 . S
H1496 C1503 0.950 . S
C1497 C1495 1.387 . S
C1497 C1499 1.390 . S
C1497 H1501 0.950 . S
H1498 C1494 0.950 . S
C1499 C1497 1.390 . S
C1499 C1500 1.387 . S
C1499 H1502 0.950 . S
C1500 C1499 1.387 . S
C1500 C1503 1.387 . S
H1501 C1497 0.950 . S
H1502 C1499 0.950 . S
C1503 C1494 1.390 . S
C1503 H1496 0.950 . S
C1503 C1500 1.387 . S
C1504 C1505 1.387 . S
C1504 H1508 0.950 . S
C1504 C1513 1.390 . S
C1505 C1504 1.387 . S
C1505 C1507 1.387 . S
H1506 C1513 0.950 . S
C1507 C1505 1.387 . S
C1507 C1509 1.390 . S
C1507 H1511 0.950 . S
H1508 C1504 0.950 . S
C1509 C1507 1.390 . S
C1509 C1510 1.387 . S
C1509 H1512 0.950 . S
C1510 C1509 1.387 . S
C1510 C1513 1.387 . S
H1511 C1507 0.950 . S
H1512 C1509 0.950 . S
C1513 C1504 1.390 . S
C1513 H1506 0.950 . S
C1513 C1510 1.387 . S
C1514 C1515 1.387 . S
C1514 H1518 0.950 . S
C1514 C1523 1.390 . S
C1515 C1514 1.387 . S
C1515 C1517 1.387 . S
H1516 C1523 0.950 . S
C1517 C1515 1.387 . S
C1517 C1519 1.390 . S
C1517 H1521 0.950 . S
H1518 C1514 0.950 . S
C1519 C1517 1.390 . S
C1519 C1520 1.387 . S
C1519 H1522 0.950 . S
C1520 C1519 1.387 . S
C1520 C1523 1.387 . S
H1521 C1517 0.950 . S
H1522 C1519 0.950 . S
C1523 C1514 1.390 . S
C1523 H1516 0.950 . S
C1523 C1520 1.387 . S
C1524 C1525 1.387 . S
C1524 H1528 0.950 . S
C1524 C1533 1.390 . S
C1525 C1524 1.387 . S
C1525 C1527 1.387 . S
H1526 C1533 0.950 . S
C1527 C1525 1.387 . S
C1527 C1529 1.390 . S
C1527 H1531 0.950 . S
H1528 C1524 0.950 . S
C1529 C1527 1.390 . S
C1529 C1530 1.387 . S
C1529 H1532 0.950 . S
C1530 C1529 1.387 . S
C1530 C1533 1.387 . S
H1531 C1527 0.950 . S
H1532 C1529 0.950 . S
C1533 C1524 1.390 . S
C1533 H1526 0.950 . S
C1533 C1530 1.387 . S
C1534 C1535 1.387 . S
C1534 H1538 0.950 . S
C1534 C1543 1.390 . S
C1535 C1534 1.387 . S
C1535 C1537 1.387 . S
H1536 C1543 0.950 . S
C1537 C1535 1.387 . S
C1537 C1539 1.390 . S
C1537 H1541 0.950 . S
H1538 C1534 0.950 . S
C1539 C1537 1.390 . S
C1539 C1540 1.387 . S
C1539 H1542 0.950 . S
C1540 C1539 1.387 . S
C1540 C1543 1.387 . S
H1541 C1537 0.950 . S
H1542 C1539 0.950 . S
C1543 C1534 1.390 . S
C1543 H1536 0.950 . S
C1543 C1540 1.387 . S
C1544 C1545 1.387 . S
C1544 H1548 0.950 . S
C1544 C1553 1.390 . S
C1545 C1544 1.387 . S
C1545 C1547 1.387 . S
H1546 C1553 0.950 . S
C1547 C1545 1.387 . S
C1547 C1549 1.390 . S
C1547 H1551 0.950 . S
H1548 C1544 0.950 . S
C1549 C1547 1.390 . S
C1549 C1550 1.387 . S
C1549 H1552 0.950 . S
C1550 C1549 1.387 . S
C1550 C1553 1.387 . S
H1551 C1547 0.950 . S
H1552 C1549 0.950 . S
C1553 C1544 1.390 . S
C1553 H1546 0.950 . S
C1553 C1550 1.387 . S
C1554 C1555 1.387 . S
C1554 H1558 0.950 . S
C1554 C1563 1.390 . S
C1555 C1554 1.387 . S
C1555 C1557 1.387 . S
H1556 C1563 0.950 . S
C1557 C1555 1.387 . S
C1557 C1559 1.390 . S
C1557 H1561 0.950 . S
H1558 C1554 0.950 . S
C1559 C1557 1.390 . S
C1559 C1560 1.387 . S
C1559 H1562 0.950 . S
C1560 C1559 1.387 . S
C1560 C1563 1.387 . S
H1561 C1557 0.950 . S
H1562 C1559 0.950 . S
C1563 C1554 1.390 . S
C1563 H1556 0.950 . S
C1563 C1560 1.387 . S
C1564 C1565 1.387 . S
C1564 H1568 0.950 . S
C1564 C1573 1.390 . S
C1565 C1564 1.387 . S
C1565 C1567 1.387 . S
H1566 C1573 0.950 . S
C1567 C1565 1.387 . S
C1567 C1569 1.390 . S
C1567 H1571 0.950 . S
H1568 C1564 0.950 . S
C1569 C1567 1.390 . S
C1569 C1570 1.387 . S
C1569 H1572 0.950 . S
C1570 C1569 1.387 . S
C1570 C1573 1.387 . S
H1571 C1567 0.950 . S
H1572 C1569 0.950 . S
C1573 C1564 1.390 . S
C1573 H1566 0.950 . S
C1573 C1570 1.387 . S
C1574 C1575 1.387 . S
C1574 H1578 0.950 . S
C1574 C1583 1.390 . S
C1575 C1574 1.387 . S
C1575 C1577 1.387 . S
H1576 C1583 0.950 . S
C1577 C1575 1.387 . S
C1577 C1579 1.390 . S
C1577 H1581 0.950 . S
H1578 C1574 0.950 . S
C1579 C1577 1.390 . S
C1579 C1580 1.387 . S
C1579 H1582 0.950 . S
C1580 C1579 1.387 . S
C1580 C1583 1.387 . S
H1581 C1577 0.950 . S
H1582 C1579 0.950 . S
C1583 C1574 1.390 . S
C1583 H1576 0.950 . S
C1583 C1580 1.387 . S
C1584 C1585 1.387 . S
C1584 H1588 0.950 . S
C1584 C1593 1.390 . S
C1585 C1584 1.387 . S
C1585 C1587 1.387 . S
H1586 C1593 0.950 . S
C1587 C1585 1.387 . S
C1587 C1589 1.390 . S
C1587 H1591 0.950 . S
H1588 C1584 0.950 . S
C1589 C1587 1.390 . S
C1589 C1590 1.387 . S
C1589 H1592 0.950 . S
C1590 C1589 1.387 . S
C1590 C1593 1.387 . S
H1591 C1587 0.950 . S
H1592 C1589 0.950 . S
C1593 C1584 1.390 . S
C1593 H1586 0.950 . S
C1593 C1590 1.387 . S
C1594 C1595 1.387 . S
C1594 H1598 0.950 . S
C1594 C1603 1.390 . S
C1595 C1594 1.387 . S
C1595 C1597 1.387 . S
H1596 C1603 0.950 . S
C1597 C1595 1.387 . S
C1597 C1599 1.390 . S
C1597 H1601 0.950 . S
H1598 C1594 0.950 . S
C1599 C1597 1.390 . S
C1599 C1600 1.387 . S
C1599 H1602 0.950 . S
C1600 C1599 1.387 . S
C1600 C1603 1.387 . S
H1601 C1597 0.950 . S
H1602 C1599 0.950 . S
C1603 C1594 1.390 . S
C1603 H1596 0.950 . S
C1603 C1600 1.387 . S
C1604 C1605 1.387 . S
C1604 H1608 0.950 . S
C1604 C1613 1.390 . S
C1605 C1604 1.387 . S
C1605 C1607 1.387 . S
H1606 C1613 0.950 . S
C1607 C1605 1.387 . S
C1607 C1609 1.390 . S
C1607 H1611 0.950 . S
H1608 C1604 0.950 . S
C1609 C1607 1.390 . S
C1609 C1610 1.387 . S
C1609 H1612 0.950 . S
C1610 C1609 1.387 . S
C1610 C1613 1.387 . S
H1611 C1607 0.950 . S
H1612 C1609 0.950 . S
C1613 C1604 1.390 . S
C1613 H1606 0.950 . S
C1613 C1610 1.387 . S
C1614 C1615 1.387 . S
C1614 H1618 0.950 . S
C1614 C1623 1.390 . S
C1615 C1614 1.387 . S
C1615 C1617 1.387 . S
H1616 C1623 0.950 . S
C1617 C1615 1.387 . S
C1617 C1619 1.390 . S
C1617 H1621 0.950 . S
H1618 C1614 0.950 . S
C1619 C1617 1.390 . S
C1619 C1620 1.387 . S
C1619 H1622 0.950 . S
C1620 C1619 1.387 . S
C1620 C1623 1.387 . S
H1621 C1617 0.950 . S
H1622 C1619 0.950 . S
C1623 C1614 1.390 . S
C1623 H1616 0.950 . S
C1623 C1620 1.387 . S
C1624 C1625 1.387 . S
C1624 H1628 0.950 . S
C1624 C1633 1.390 . S
C1625 C1624 1.387 . S
C1625 C1627 1.387 . S
H1626 C1633 0.950 . S
C1627 C1625 1.387 . S
C1627 C1629 1.390 . S
C1627 H1631 0.950 . S
H1628 C1624 0.950 . S
C1629 C1627 1.390 . S
C1629 C1630 1.387 . S
C1629 H1632 0.950 . S
C1630 C1629 1.387 . S
C1630 C1633 1.387 . S
H1631 C1627 0.950 . S
H1632 C1629 0.950 . S
C1633 C1624 1.390 . S
C1633 H1626 0.950 . S
C1633 C1630 1.387 . S
C1634 C1635 1.387 . S
C1634 H1638 0.950 . S
C1634 C1643 1.390 . S
C1635 C1634 1.387 . S
C1635 C1637 1.387 . S
H1636 C1643 0.950 . S
C1637 C1635 1.387 . S
C1637 C1639 1.390 . S
C1637 H1641 0.950 . S
H1638 C1634 0.950 . S
C1639 C1637 1.390 . S
C1639 C1640 1.387 . S
C1639 H1642 0.950 . S
C1640 C1639 1.387 . S
C1640 C1643 1.387 . S
H1641 C1637 0.950 . S
H1642 C1639 0.950 . S
C1643 C1634 1.390 . S
C1643 H1636 0.950 . S
C1643 C1640 1.387 . S
C1644 C1645 1.387 . S
C1644 H1648 0.950 . S
C1644 C1653 1.390 . S
C1645 C1644 1.387 . S
C1645 C1647 1.387 . S
H1646 C1653 0.950 . S
C1647 C1645 1.387 . S
C1647 C1649 1.390 . S
C1647 H1651 0.950 . S
H1648 C1644 0.950 . S
C1649 C1647 1.390 . S
C1649 C1650 1.387 . S
C1649 H1652 0.950 . S
C1650 C1649 1.387 . S
C1650 C1653 1.387 . S
H1651 C1647 0.950 . S
H1652 C1649 0.950 . S
C1653 C1644 1.390 . S
C1653 H1646 0.950 . S
C1653 C1650 1.387 . S
C1654 C1655 1.387 . S
C1654 H1658 0.950 . S
C1654 C1663 1.390 . S
C1655 C1654 1.387 . S
C1655 C1657 1.387 . S
H1656 C1663 0.950 . S
C1657 C1655 1.387 . S
C1657 C1659 1.390 . S
C1657 H1661 0.950 . S
H1658 C1654 0.950 . S
C1659 C1657 1.390 . S
C1659 C1660 1.387 . S
C1659 H1662 0.950 . S
C1660 C1659 1.387 . S
C1660 C1663 1.387 . S
H1661 C1657 0.950 . S
H1662 C1659 0.950 . S
C1663 C1654 1.390 . S
C1663 H1656 0.950 . S
C1663 C1660 1.387 . S
C1664 C1665 1.387 . S
C1664 H1668 0.950 . S
C1664 C1673 1.390 . S
C1665 C1664 1.387 . S
C1665 C1667 1.387 . S
H1666 C1673 0.950 . S
C1667 C1665 1.387 . S
C1667 C1669 1.390 . S
C1667 H1671 0.950 . S
H1668 C1664 0.950 . S
C1669 C1667 1.390 . S
C1669 C1670 1.387 . S
C1669 H1672 0.950 . S
C1670 C1669 1.387 . S
C1670 C1673 1.387 . S
H1671 C1667 0.950 . S
H1672 C1669 0.950 . S
C1673 C1664 1.390 . S
C1673 H1666 0.950 . S
C1673 C1670 1.387 . S
C1674 C1675 1.387 . S
C1674 H1678 0.950 . S
C1674 C1683 1.390 . S
C1675 C1674 1.387 . S
C1675 C1677 1.387 . S
H1676 C1683 0.950 . S
C1677 C1675 1.387 . S
C1677 C1679 1.390 . S
C1677 H1681 0.950 . S
H1678 C1674 0.950 . S
C1679 C1677 1.390 . S
C1679 C1680 1.387 . S
C1679 H1682 0.950 . S
C1680 C1679 1.387 . S
C1680 C1683 1.387 . S
H1681 C1677 0.950 . S
H1682 C1679 0.950 . S
C1683 C1674 1.390 . S
C1683 H1676 0.950 . S
C1683 C1680 1.387 . S
C1684 C1685 1.387 . S
C1684 H1688 0.950 . S
C1684 C1693 1.390 . S
C1685 C1684 1.387 . S
C1685 C1687 1.387 . S
H1686 C1693 0.950 . S
C1687 C1685 1.387 . S
C1687 C1689 1.390 . S
C1687 H1691 0.950 . S
H1688 C1684 0.950 . S
C1689 C1687 1.390 . S
C1689 C1690 1.387 . S
C1689 H1692 0.950 . S
C1690 C1689 1.387 . S
C1690 C1693 1.387 . S
H1691 C1687 0.950 . S
H1692 C1689 0.950 . S
C1693 C1684 1.390 . S
C1693 H1686 0.950 . S
C1693 C1690 1.387 . S
C1694 C1695 1.387 . S
C1694 H1698 0.950 . S
C1694 C1703 1.390 . S
C1695 C1694 1.387 . S
C1695 C1697 1.387 . S
H1696 C1703 0.950 . S
C1697 C1695 1.387 . S
C1697 C1699 1.390 . S
C1697 H1701 0.950 . S
H1698 C1694 0.950 . S
C1699 C1697 1.390 . S
C1699 C1700 1.387 . S
C1699 H1702 0.950 . S
C1700 C1699 1.387 . S
C1700 C1703 1.387 . S
H1701 C1697 0.950 . S
H1702 C1699 0.950 . S
C1703 C1694 1.390 . S
C1703 H1696 0.950 . S
C1703 C1700 1.387 . S
C1704 C1705 1.387 . S
C1704 H1708 0.950 . S
C1704 C1713 1.390 . S
C1705 C1704 1.387 . S
C1705 C1707 1.387 . S
H1706 C1713 0.950 . S
C1707 C1705 1.387 . S
C1707 C1709 1.390 . S
C1707 H1711 0.950 . S
H1708 C1704 0.950 . S
C1709 C1707 1.390 . S
C1709 C1710 1.387 . S
C1709 H1712 0.950 . S
C1710 C1709 1.387 . S
C1710 C1713 1.387 . S
H1711 C1707 0.950 . S
H1712 C1709 0.950 . S
C1713 C1704 1.390 . S
C1713 H1706 0.950 . S
C1713 C1710 1.387 . S
C1714 C1715 1.387 . S
C1714 H1718 0.950 . S
C1714 C1723 1.390 . S
C1715 C1714 1.387 . S
C1715 C1717 1.387 . S
H1716 C1723 0.950 . S
C1717 C1715 1.387 . S
C1717 C1719 1.390 . S
C1717 H1721 0.950 . S
H1718 C1714 0.950 . S
C1719 C1717 1.390 . S
C1719 C1720 1.387 . S
C1719 H1722 0.950 . S
C1720 C1719 1.387 . S
C1720 C1723 1.387 . S
H1721 C1717 0.950 . S
H1722 C1719 0.950 . S
C1723 C1714 1.390 . S
C1723 H1716 0.950 . S
C1723 C1720 1.387 . S
C1724 C1725 1.387 . S
C1724 H1728 0.950 . S
C1724 C1733 1.390 . S
C1725 C1724 1.387 . S
C1725 C1727 1.387 . S
H1726 C1733 0.950 . S
C1727 C1725 1.387 . S
C1727 C1729 1.390 . S
C1727 H1731 0.950 . S
H1728 C1724 0.950 . S
C1729 C1727 1.390 . S
C1729 C1730 1.387 . S
C1729 H1732 0.950 . S
C1730 C1729 1.387 . S
C1730 C1733 1.387 . S
H1731 C1727 0.950 . S
H1732 C1729 0.950 . S
C1733 C1724 1.390 . S
C1733 H1726 0.950 . S
C1733 C1730 1.387 . S
C1734 C1735 1.387 . S
C1734 H1738 0.950 . S
C1734 C1743 1.390 . S
C1735 C1734 1.387 . S
C1735 C1737 1.387 . S
H1736 C1743 0.950 . S
C1737 C1735 1.387 . S
C1737 C1739 1.390 . S
C1737 H1741 0.950 . S
H1738 C1734 0.950 . S
C1739 C1737 1.390 . S
C1739 C1740 1.387 . S
C1739 H1742 0.950 . S
C1740 C1739 1.387 . S
C1740 C1743 1.387 . S
H1741 C1737 0.950 . S
H1742 C1739 0.950 . S
C1743 C1734 1.390 . S
C1743 H1736 0.950 . S
C1743 C1740 1.387 . S
C1744 C1745 1.387 . S
C1744 H1748 0.950 . S
C1744 C1753 1.390 . S
C1745 C1744 1.387 . S
C1745 C1747 1.387 . S
H1746 C1753 0.950 . S
C1747 C1745 1.387 . S
C1747 C1749 1.390 . S
C1747 H1751 0.950 . S
H1748 C1744 0.950 . S
C1749 C1747 1.390 . S
C1749 C1750 1.387 . S
C1749 H1752 0.950 . S
C1750 C1749 1.387 . S
C1750 C1753 1.387 . S
H1751 C1747 0.950 . S
H1752 C1749 0.950 . S
C1753 C1744 1.390 . S
C1753 H1746 0.950 . S
C1753 C1750 1.387 . S
C1754 C1755 1.387 . S
C1754 H1758 0.950 . S
C1754 C1763 1.390 . S
C1755 C1754 1.387 . S
C1755 C1757 1.387 . S
H1756 C1763 0.950 . S
C1757 C1755 1.387 . S
C1757 C1759 1.390 . S
C1757 H1761 0.950 . S
H1758 C1754 0.950 . S
C1759 C1757 1.390 . S
C1759 C1760 1.387 . S
C1759 H1762 0.950 . S
C1760 C1759 1.387 . S
C1760 C1763 1.387 . S
H1761 C1757 0.950 . S
H1762 C1759 0.950 . S
C1763 C1754 1.390 . S
C1763 H1756 0.950 . S
C1763 C1760 1.387 . S
C1764 C1765 1.387 . S
C1764 H1768 0.950 . S
C1764 C1773 1.390 . S
C1765 C1764 1.387 . S
C1765 C1767 1.387 . S
H1766 C1773 0.950 . S
C1767 C1765 1.387 . S
C1767 C1769 1.390 . S
C1767 H1771 0.950 . S
H1768 C1764 0.950 . S
C1769 C1767 1.390 . S
C1769 C1770 1.387 . S
C1769 H1772 0.950 . S
C1770 C1769 1.387 . S
C1770 C1773 1.387 . S
H1771 C1767 0.950 . S
H1772 C1769 0.950 . S
C1773 C1764 1.390 . S
C1773 H1766 0.950 . S
C1773 C1770 1.387 . S
C1774 C1775 1.387 . S
C1774 H1778 0.950 . S
C1774 C1783 1.390 . S
C1775 C1774 1.387 . S
C1775 C1777 1.387 . S
H1776 C1783 0.950 . S
C1777 C1775 1.387 . S
C1777 C1779 1.390 . S
C1777 H1781 0.950 . S
H1778 C1774 0.950 . S
C1779 C1777 1.390 . S
C1779 C1780 1.387 . S
C1779 H1782 0.950 . S
C1780 C1779 1.387 . S
C1780 C1783 1.387 . S
H1781 C1777 0.950 . S
H1782 C1779 0.950 . S
C1783 C1774 1.390 . S
C1783 H1776 0.950 . S
C1783 C1780 1.387 . S
C1784 C1785 1.387 . S
C1784 H1788 0.950 . S
C1784 C1793 1.390 . S
C1785 C1784 1.387 . S
C1785 C1787 1.387 . S
H1786 C1793 0.950 . S
C1787 C1785 1.387 . S
C1787 C1789 1.390 . S
C1787 H1791 0.950 . S
H1788 C1784 0.950 . S
C1789 C1787 1.390 . S
C1789 C1790 1.387 . S
C1789 H1792 0.950 . S
C1790 C1789 1.387 . S
C1790 C1793 1.387 . S
H1791 C1787 0.950 . S
H1792 C1789 0.950 . S
C1793 C1784 1.390 . S
C1793 H1786 0.950 . S
C1793 C1790 1.387 . S
C1794 C1795 1.387 . S
C1794 H1798 0.950 . S
C1794 C1803 1.390 . S
C1795 C1794 1.387 . S
C1795 C1797 1.387 . S
H1796 C1803 0.950 . S
C1797 C1795 1.387 . S
C1797 C1799 1.390 . S
C1797 H1801 0.950 . S
H1798 C1794 0.950 . S
C1799 C1797 1.390 . S
C1799 C1800 1.387 . S
C1799 H1802 0.950 . S
C1800 C1799 1.387 . S
C1800 C1803 1.387 . S
H1801 C1797 0.950 . S
H1802 C1799 0.950 . S
C1803 C1794 1.390 . S
C1803 H1796 0.950 . S
C1803 C1800 1.387 . S
C1804 C1805 1.387 . S
C1804 H1808 0.950 . S
C1804 C1813 1.390 . S
C1805 C1804 1.387 . S
C1805 C1807 1.387 . S
H1806 C1813 0.950 . S
C1807 C1805 1.387 . S
C1807 C1809 1.390 . S
C1807 H1811 0.950 . S
H1808 C1804 0.950 . S
C1809 C1807 1.390 . S
C1809 C1810 1.387 . S
C1809 H1812 0.950 . S
C1810 C1809 1.387 . S
C1810 C1813 1.387 . S
H1811 C1807 0.950 . S
H1812 C1809 0.950 . S
C1813 C1804 1.390 . S
C1813 H1806 0.950 . S
C1813 C1810 1.387 . S
C1814 C1815 1.387 . S
C1814 H1818 0.950 . S
C1814 C1823 1.390 . S
C1815 C1814 1.387 . S
C1815 C1817 1.387 . S
H1816 C1823 0.950 . S
C1817 C1815 1.387 . S
C1817 C1819 1.390 . S
C1817 H1821 0.950 . S
H1818 C1814 0.950 . S
C1819 C1817 1.390 . S
C1819 C1820 1.387 . S
C1819 H1822 0.950 . S
C1820 C1819 1.387 . S
C1820 C1823 1.387 . S
H1821 C1817 0.950 . S
H1822 C1819 0.950 . S
C1823 C1814 1.390 . S
C1823 H1816 0.950 . S
C1823 C1820 1.387 . S
C1824 C1825 1.387 . S
C1824 H1828 0.950 . S
C1824 C1833 1.390 . S
C1825 C1824 1.387 . S
C1825 C1827 1.387 . S
H1826 C1833 0.950 . S
C1827 C1825 1.387 . S
C1827 C1829 1.390 . S
C1827 H1831 0.950 . S
H1828 C1824 0.950 . S
C1829 C1827 1.390 . S
C1829 C1830 1.387 . S
C1829 H1832 0.950 . S
C1830 C1829 1.387 . S
C1830 C1833 1.387 . S
H1831 C1827 0.950 . S
H1832 C1829 0.950 . S
C1833 C1824 1.390 . S
C1833 H1826 0.950 . S
C1833 C1830 1.387 . S
C1834 C1835 1.387 . S
C1834 H1838 0.950 . S
C1834 C1843 1.390 . S
C1835 C1834 1.387 . S
C1835 C1837 1.387 . S
H1836 C1843 0.950 . S
C1837 C1835 1.387 . S
C1837 C1839 1.390 . S
C1837 H1841 0.950 . S
H1838 C1834 0.950 . S
C1839 C1837 1.390 . S
C1839 C1840 1.387 . S
C1839 H1842 0.950 . S
C1840 C1839 1.387 . S
C1840 C1843 1.387 . S
H1841 C1837 0.950 . S
H1842 C1839 0.950 . S
C1843 C1834 1.390 . S
C1843 H1836 0.950 . S
C1843 C1840 1.387 . S
C1844 C1845 1.387 . S
C1844 H1848 0.950 . S
C1844 C1853 1.390 . S
C1845 C1844 1.387 . S
C1845 C1847 1.387 . S
H1846 C1853 0.950 . S
C1847 C1845 1.387 . S
C1847 C1849 1.390 . S
C1847 H1851 0.950 . S
H1848 C1844 0.950 . S
C1849 C1847 1.390 . S
C1849 C1850 1.387 . S
C1849 H1852 0.950 . S
C1850 C1849 1.387 . S
C1850 C1853 1.387 . S
H1851 C1847 0.950 . S
H1852 C1849 0.950 . S
C1853 C1844 1.390 . S
C1853 H1846 0.950 . S
C1853 C1850 1.387 . S
C1854 C1855 1.387 . S
C1854 H1858 0.950 . S
C1854 C1863 1.390 . S
C1855 C1854 1.387 . S
C1855 C1857 1.387 . S
H1856 C1863 0.950 . S
C1857 C1855 1.387 . S
C1857 C1859 1.390 . S
C1857 H1861 0.950 . S
H1858 C1854 0.950 . S
C1859 C1857 1.390 . S
C1859 C1860 1.387 . S
C1859 H1862 0.950 . S
C1860 C1859 1.387 . S
C1860 C1863 1.387 . S
H1861 C1857 0.950 . S
H1862 C1859 0.950 . S
C1863 C1854 1.390 . S
C1863 H1856 0.950 . S
C1863 C1860 1.387 . S
C1864 C1865 1.387 . S
C1864 H1868 0.950 . S
C1864 C1873 1.390 . S
C1865 C1864 1.387 . S
C1865 C1867 1.387 . S
H1866 C1873 0.950 . S
C1867 C1865 1.387 . S
C1867 C1869 1.390 . S
C1867 H1871 0.950 . S
H1868 C1864 0.950 . S
C1869 C1867 1.390 . S
C1869 C1870 1.387 . S
C1869 H1872 0.950 . S
C1870 C1869 1.387 . S
C1870 C1873 1.387 . S
H1871 C1867 0.950 . S
H1872 C1869 0.950 . S
C1873 C1864 1.390 . S
C1873 H1866 0.950 . S
C1873 C1870 1.387 . S
C1874 C1875 1.387 . S
C1874 H1878 0.950 . S
C1874 C1883 1.390 . S
C1875 C1874 1.387 . S
C1875 C1877 1.387 . S
H1876 C1883 0.950 . S
C1877 C1875 1.387 . S
C1877 C1879 1.390 . S
C1877 H1881 0.950 . S
H1878 C1874 0.950 . S
C1879 C1877 1.390 . S
C1879 C1880 1.387 . S
C1879 H1882 0.950 . S
C1880 C1879 1.387 . S
C1880 C1883 1.387 . S
H1881 C1877 0.950 . S
H1882 C1879 0.950 . S
C1883 C1874 1.390 . S
C1883 H1876 0.950 . S
C1883 C1880 1.387 . S
C1884 C1885 1.387 . S
C1884 H1888 0.950 . S
C1884 C1893 1.390 . S
C1885 C1884 1.387 . S
C1885 C1887 1.387 . S
H1886 C1893 0.950 . S
C1887 C1885 1.387 . S
C1887 C1889 1.390 . S
C1887 H1891 0.950 . S
H1888 C1884 0.950 . S
C1889 C1887 1.390 . S
C1889 C1890 1.387 . S
C1889 H1892 0.950 . S
C1890 C1889 1.387 . S
C1890 C1893 1.387 . S
H1891 C1887 0.950 . S
H1892 C1889 0.950 . S
C1893 C1884 1.390 . S
C1893 H1886 0.950 . S
C1893 C1890 1.387 . S
C1894 C1895 1.387 . S
C1894 H1898 0.950 . S
C1894 C1903 1.390 . S
C1895 C1894 1.387 . S
C1895 C1897 1.387 . S
H1896 C1903 0.950 . S
C1897 C1895 1.387 . S
C1897 C1899 1.390 . S
C1897 H1901 0.950 . S
H1898 C1894 0.950 . S
C1899 C1897 1.390 . S
C1899 C1900 1.387 . S
C1899 H1902 0.950 . S
C1900 C1899 1.387 . S
C1900 C1903 1.387 . S
H1901 C1897 0.950 . S
H1902 C1899 0.950 . S
C1903 C1894 1.390 . S
C1903 H1896 0.950 . S
C1903 C1900 1.387 . S
C1904 C1905 1.387 . S
C1904 H1908 0.950 . S
C1904 C1913 1.390 . S
C1905 C1904 1.387 . S
C1905 C1907 1.387 . S
H1906 C1913 0.950 . S
C1907 C1905 1.387 . S
C1907 C1909 1.390 . S
C1907 H1911 0.950 . S
H1908 C1904 0.950 . S
C1909 C1907 1.390 . S
C1909 C1910 1.387 . S
C1909 H1912 0.950 . S
C1910 C1909 1.387 . S
C1910 C1913 1.387 . S
H1911 C1907 0.950 . S
H1912 C1909 0.950 . S
C1913 C1904 1.390 . S
C1913 H1906 0.950 . S
C1913 C1910 1.387 . S
C1914 C1915 1.387 . S
C1914 H1918 0.950 . S
C1914 C1923 1.390 . S
C1915 C1914 1.387 . S
C1915 C1917 1.387 . S
H1916 C1923 0.950 . S
C1917 C1915 1.387 . S
C1917 C1919 1.390 . S
C1917 H1921 0.950 . S
H1918 C1914 0.950 . S
C1919 C1917 1.390 . S
C1919 C1920 1.387 . S
C1919 H1922 0.950 . S
C1920 C1919 1.387 . S
C1920 C1923 1.387 . S
H1921 C1917 0.950 . S
H1922 C1919 0.950 . S
C1923 C1914 1.390 . S
C1923 H1916 0.950 . S
C1923 C1920 1.387 . S
C1924 C1925 1.387 . S
C1924 H1928 0.950 . S
C1924 C1933 1.390 . S
C1925 C1924 1.387 . S
C1925 C1927 1.387 . S
H1926 C1933 0.950 . S
C1927 C1925 1.387 . S
C1927 C1929 1.390 . S
C1927 H1931 0.950 . S
H1928 C1924 0.950 . S
C1929 C1927 1.390 . S
C1929 C1930 1.387 . S
C1929 H1932 0.950 . S
C1930 C1929 1.387 . S
C1930 C1933 1.387 . S
H1931 C1927 0.950 . S
H1932 C1929 0.950 . S
C1933 C1924 1.390 . S
C1933 H1926 0.950 . S
C1933 C1930 1.387 . S
C1934 C1935 1.387 . S
C1934 H1938 0.950 . S
C1934 C1943 1.390 . S
C1935 C1934 1.387 . S
C1935 C1937 1.387 . S
H1936 C1943 0.950 . S
C1937 C1935 1.387 . S
C1937 C1939 1.390 . S
C1937 H1941 0.950 . S
H1938 C1934 0.950 . S
C1939 C1937 1.390 . S
C1939 C1940 1.387 . S
C1939 H1942 0.950 . S
C1940 C1939 1.387 . S
C1940 C1943 1.387 . S
H1941 C1937 0.950 . S
H1942 C1939 0.950 . S
C1943 C1934 1.390 . S
C1943 H1936 0.950 . S
C1943 C1940 1.387 . S
C1944 C1945 1.387 . S
C1944 H1948 0.950 . S
C1944 C1953 1.390 . S
C1945 C1944 1.387 . S
C1945 C1947 1.387 . S
H1946 C1953 0.950 . S
C1947 C1945 1.387 . S
C1947 C1949 1.390 . S
C1947 H1951 0.950 . S
H1948 C1944 0.950 . S
C1949 C1947 1.390 . S
C1949 C1950 1.387 . S
C1949 H1952 0.950 . S
C1950 C1949 1.387 . S
C1950 C1953 1.387 . S
H1951 C1947 0.950 . S
H1952 C1949 0.950 . S
C1953 C1944 1.390 . S
C1953 H1946 0.950 . S
C1953 C1950 1.387 . S
C1954 C1955 1.387 . S
C1954 H1958 0.950 . S
C1954 C1963 1.390 . S
C1955 C1954 1.387 . S
C1955 C1957 1.387 . S
H1956 C1963 0.950 . S
C1957 C1955 1.387 . S
C1957 C1959 1.390 . S
C1957 H1961 0.950 . S
H1958 C1954 0.950 . S
C1959 C1957 1.390 . S
C1959 C1960 1.387 . S
C1959 H1962 0.950 . S
C1960 C1959 1.387 . S
C1960 C1963 1.387 . S
H1961 C1957 0.950 . S
H1962 C1959 0.950 . S
C1963 C1954 1.390 . S
C1963 H1956 0.950 . S
C1963 C1960 1.387 . S
C1964 C1965 1.387 . S
C1964 H1968 0.950 . S
C1964 C1973 1.390 . S
C1965 C1964 1.387 . S
C1965 C1967 1.387 . S
H1966 C1973 0.950 . S
C1967 C1965 1.387 . S
C1967 C1969 1.390 . S
C1967 H1971 0.950 . S
H1968 C1964 0.950 . S
C1969 C1967 1.390 . S
C1969 C1970 1.387 . S
C1969 H1972 0.950 . S
C1970 C1969 1.387 . S
C1970 C1973 1.387 . S
H1971 C1967 0.950 . S
H1972 C1969 0.950 . S
C1973 C1964 1.390 . S
C1973 H1966 0.950 . S
C1973 C1970 1.387 . S
C1974 C1975 1.387 . S
C1974 H1978 0.950 . S
C1974 C1983 1.390 . S
C1975 C1974 1.387 . S
C1975 C1977 1.387 . S
H1976 C1983 0.950 . S
C1977 C1975 1.387 . S
C1977 C1979 1.390 . S
C1977 H1981 0.950 . S
H1978 C1974 0.950 . S
C1979 C1977 1.390 . S
C1979 C1980 1.387 . S
C1979 H1982 0.950 . S
C1980 C1979 1.387 . S
C1980 C1983 1.387 . S
H1981 C1977 0.950 . S
H1982 C1979 0.950 . S
C1983 C1974 1.390 . S
C1983 H1976 0.950 . S
C1983 C1980 1.387 . S
C1984 C1985 1.387 . S
C1984 H1988 0.950 . S
C1984 C1993 1.390 . S
C1985 C1984 1.387 . S
C1985 C1987 1.387 . S
H1986 C1993 0.950 . S
C1987 C1985 1.387 . S
C1987 C1989 1.390 . S
C1987 H1991 0.950 . S
H1988 C1984 0.950 . S
C1989 C1987 1.390 . S
C1989 C1990 1.387 . S
C1989 H1992 0.950 . S
C1990 C1989 1.387 . S
C1990 C1993 1.387 . S
H1991 C1987 0.950 . S
H1992 C1989 0.950 . S
C1993 C1984 1.390 . S
C1993 H1986 0.950 . S
C1993 C1990 1.387 . S
C1994 C1995 1.387 . S
C1994 H1998 0.950 . S
C1994 C2003 1.390 . S
C1995 C1994 1.387 . S
C1995 C1997 1.387 . S
H1996 C2003 0.950 . S
C1997 C1995 1.387 . S
C1997 C1999 1.390 . S
C1997 H2001 0.950 . S
H1998 C1994 0.950 . S
C1999 C1997 1.390 . S
C1999 C2000 1.387 . S
C1999 H2002 0.950 . S
C2000 C1999 1.387 . S
C2000 C2003 1.387 . S
H2001 C1997 0.950 . S
H2002 C1999 0.950 . S
C2003 C1994 1.390 . S
C2003 H1996 0.950 . S
C2003 C2000 1.387 . S
C2004 C2005 1.387 . S
C2004 H2008 0.950 . S
C2004 C2013 1.390 . S
C2005 C2004 1.387 . S
C2005 C2007 1.387 . S
H2006 C2013 0.950 . S
C2007 C2005 1.387 . S
C2007 C2009 1.390 . S
C2007 H2011 0.950 . S
H2008 C2004 0.950 . S
C2009 C2007 1.390 . S
C2009 C2010 1.387 . S
C2009 H2012 0.950 . S
C2010 C2009 1.387 . S
C2010 C2013 1.387 . S
H2011 C2007 0.950 . S
H2012 C2009 0.950 . S
C2013 C2004 1.390 . S
C2013 H2006 0.950 . S
C2013 C2010 1.387 . S
C2014 C2015 1.387 . S
C2014 H2018 0.950 . S
C2014 C2023 1.390 . S
C2015 C2014 1.387 . S
C2015 C2017 1.387 . S
H2016 C2023 0.950 . S
C2017 C2015 1.387 . S
C2017 C2019 1.390 . S
C2017 H2021 0.950 . S
H2018 C2014 0.950 . S
C2019 C2017 1.390 . S
C2019 C2020 1.387 . S
C2019 H2022 0.950 . S
C2020 C2019 1.387 . S
C2020 C2023 1.387 . S
H2021 C2017 0.950 . S
H2022 C2019 0.950 . S
C2023 C2014 1.390 . S
C2023 H2016 0.950 . S
C2023 C2020 1.387 . S
C2024 C2025 1.387 . S
C2024 H2028 0.950 . S
C2024 C2033 1.390 . S
C2025 C2024 1.387 . S
C2025 C2027 1.387 . S
H2026 C2033 0.950 . S
C2027 C2025 1.387 . S
C2027 C2029 1.390 . S
C2027 H2031 0.950 . S
H2028 C2024 0.950 . S
C2029 C2027 1.390 . S
C2029 C2030 1.387 . S
C2029 H2032 0.950 . S
C2030 C2029 1.387 . S
C2030 C2033 1.387 . S
H2031 C2027 0.950 . S
H2032 C2029 0.950 . S
C2033 C2024 1.390 . S
C2033 H2026 0.950 . S
C2033 C2030 1.387 . S
C2034 C2035 1.387 . S
C2034 H2038 0.950 . S
C2034 C2043 1.390 . S
C2035 C2034 1.387 . S
C2035 C2037 1.387 . S
H2036 C2043 0.950 . S
C2037 C2035 1.387 . S
C2037 C2039 1.390 . S
C2037 H2041 0.950 . S
H2038 C2034 0.950 . S
C2039 C2037 1.390 . S
C2039 C2040 1.387 . S
C2039 H2042 0.950 . S
C2040 C2039 1.387 . S
C2040 C2043 1.387 . S
H2041 C2037 0.950 . S
H2042 C2039 0.950 . S
C2043 C2034 1.390 . S
C2043 H2036 0.950 . S
C2043 C2040 1.387 . S
C2044 C2045 1.387 . S
C2044 H2048 0.950 . S
C2044 C2053 1.390 . S
C2045 C2044 1.387 . S
C2045 C2047 1.387 . S
H2046 C2053 0.950 . S
C2047 C2045 1.387 . S
C2047 C2049 1.390 . S
C2047 H2051 0.950 . S
H2048 C2044 0.950 . S
C2049 C2047 1.390 . S
C2049 C2050 1.387 . S
C2049 H2052 0.950 . S
C2050 C2049 1.387 . S
C2050 C2053 1.387 . S
H2051 C2047 0.950 . S
H2052 C2049 0.950 . S
C2053 C2044 1.390 . S
C2053 H2046 0.950 . S
C2053 C2050 1.387 . S
C2054 C2055 1.387 . S
C2054 H2058 0.950 . S
C2054 C2063 1.390 . S
C2055 C2054 1.387 . S
C2055 C2057 1.387 . S
H2056 C2063 0.950 . S
C2057 C2055 1.387 . S
C2057 C2059 1.390 . S
C2057 H2061 0.950 . S
H2058 C2054 0.950 . S
C2059 C2057 1.390 . S
C2059 C2060 1.387 . S
C2059 H2062 0.950 . S
C2060 C2059 1.387 . S
C2060 C2063 1.387 . S
H2061 C2057 0.950 . S
H2062 C2059 0.950 . S
C2063 C2054 1.390 . S
C2063 H2056 0.950 . S
C2063 C2060 1.387 . S
C2064 C2065 1.387 . S
C2064 H2068 0.950 . S
C2064 C2073 1.390 . S
C2065 C2064 1.387 . S
C2065 C2067 1.387 . S
H2066 C2073 0.950 . S
C2067 C2065 1.387 . S
C2067 C2069 1.390 . S
C2067 H2071 0.950 . S
H2068 C2064 0.950 . S
C2069 C2067 1.390 . S
C2069 C2070 1.387 . S
C2069 H2072 0.950 . S
C2070 C2069 1.387 . S
C2070 C2073 1.387 . S
H2071 C2067 0.950 . S
H2072 C2069 0.950 . S
C2073 C2064 1.390 . S
C2073 H2066 0.950 . S
C2073 C2070 1.387 . S
C2074 C2075 1.387 . S
C2074 H2078 0.950 . S
C2074 C2083 1.390 . S
C2075 C2074 1.387 . S
C2075 C2077 1.387 . S
H2076 C2083 0.950 . S
C2077 C2075 1.387 . S
C2077 C2079 1.390 . S
C2077 H2081 0.950 . S
H2078 C2074 0.950 . S
C2079 C2077 1.390 . S
C2079 C2080 1.387 . S
C2079 H2082 0.950 . S
C2080 C2079 1.387 . S
C2080 C2083 1.387 . S
H2081 C2077 0.950 . S
H2082 C2079 0.950 . S
C2083 C2074 1.390 . S
C2083 H2076 0.950 . S
C2083 C2080 1.387 . S
C2084 C2085 1.387 . S
C2084 H2088 0.950 . S
C2084 C2093 1.390 . S
C2085 C2084 1.387 . S
C2085 C2087 1.387 . S
H2086 C2093 0.950 . S
C2087 C2085 1.387 . S
C2087 C2089 1.390 . S
C2087 H2091 0.950 . S
H2088 C2084 0.950 . S
C2089 C2087 1.390 . S
C2089 C2090 1.387 . S
C2089 H2092 0.950 . S
C2090 C2089 1.387 . S
C2090 C2093 1.387 . S
H2091 C2087 0.950 . S
H2092 C2089 0.950 . S
C2093 C2084 1.390 . S
C2093 H2086 0.950 . S
C2093 C2090 1.387 . S
C2094 C2095 1.387 . S
C2094 H2098 0.950 . S
C2094 C2103 1.390 . S
C2095 C2094 1.387 . S
C2095 C2097 1.387 . S
H2096 C2103 0.950 . S
C2097 C2095 1.387 . S
C2097 C2099 1.390 . S
C2097 H2101 0.950 . S
H2098 C2094 0.950 . S
C2099 C2097 1.390 . S
C2099 C2100 1.387 . S
C2099 H2102 0.950 . S
C2100 C2099 1.387 . S
C2100 C2103 1.387 . S
H2101 C2097 0.950 . S
H2102 C2099 0.950 . S
C2103 C2094 1.390 . S
C2103 H2096 0.950 . S
C2103 C2100 1.387 . S
C2104 C2105 1.387 . S
C2104 H2108 0.950 . S
C2104 C2113 1.390 . S
C2105 C2104 1.387 . S
C2105 C2107 1.387 . S
H2106 C2113 0.950 . S
C2107 C2105 1.387 . S
C2107 C2109 1.390 . S
C2107 H2111 0.950 . S
H2108 C2104 0.950 . S
C2109 C2107 1.390 . S
C2109 C2110 1.387 . S
C2109 H2112 0.950 . S
C2110 C2109 1.387 . S
C2110 C2113 1.387 . S
H2111 C2107 0.950 . S
H2112 C2109 0.950 . S
C2113 C2104 1.390 . S
C2113 H2106 0.950 . S
C2113 C2110 1.387 . S
C2114 C2115 1.387 . S
C2114 H2118 0.950 . S
C2114 C2123 1.390 . S
C2115 C2114 1.387 . S
C2115 C2117 1.387 . S
H2116 C2123 0.950 . S
C2117 C2115 1.387 . S
C2117 C2119 1.390 . S
C2117 H2121 0.950 . S
H2118 C2114 0.950 . S
C2119 C2117 1.390 . S
C2119 C2120 1.387 . S
C2119 H2122 0.950 . S
C2120 C2119 1.387 . S
C2120 C2123 1.387 . S
H2121 C2117 0.950 . S
H2122 C2119 0.950 . S
C2123 C2114 1.390 . S
C2123 H2116 0.950 . S
C2123 C2120 1.387 . S
C2124 C2125 1.387 . S
C2124 H2128 0.950 . S
C2124 C2133 1.390 . S
C2125 C2124 1.387 . S
C2125 C2127 1.387 . S
H2126 C2133 0.950 . S
C2127 C2125 1.387 . S
C2127 C2129 1.390 . S
C2127 H2131 0.950 . S
H2128 C2124 0.950 . S
C2129 C2127 1.390 . S
C2129 C2130 1.387 . S
C2129 H2132 0.950 . S
C2130 C2129 1.387 . S
C2130 C2133 1.387 . S
H2131 C2127 0.950 . S
H2132 C2129 0.950 . S
C2133 C2124 1.390 . S
C2133 H2126 0.950 . S
C2133 C2130 1.387 . S
C2134 C2135 1.387 . S
C2134 H2138 0.950 . S
C2134 C2143 1.390 . S
C2135 C2134 1.387 . S
C2135 C2137 1.387 . S
H2136 C2143 0.950 . S
C2137 C2135 1.387 . S
C2137 C2139 1.390 . S
C2137 H2141 0.950 . S
H2138 C2134 0.950 . S
C2139 C2137 1.390 . S
C2139 C2140 1.387 . S
C2139 H2142 0.950 . S
C2140 C2139 1.387 . S
C2140 C2143 1.387 . S
H2141 C2137 0.950 . S
H2142 C2139 0.950 . S
C2143 C2134 1.390 . S
C2143 H2136 0.950 . S
C2143 C2140 1.387 . S
C2144 C2145 1.387 . S
C2144 H2148 0.950 . S
C2144 C2153 1.390 . S
C2145 C2144 1.387 . S
C2145 C2147 1.387 . S
H2146 C2153 0.950 . S
C2147 C2145 1.387 . S
C2147 C2149 1.390 . S
C2147 H2151 0.950 . S
H2148 C2144 0.950 . S
C2149 C2147 1.390 . S
C2149 C2150 1.387 . S
C2149 H2152 0.950 . S
C2150 C2149 1.387 . S
C2150 C2153 1.387 . S
H2151 C2147 0.950 . S
H2152 C2149 0.950 . S
C2153 C2144 1.390 . S
C2153 H2146 0.950 . S
C2153 C2150 1.387 . S
C2154 C2155 1.387 . S
C2154 H2158 0.950 . S
C2154 C2163 1.390 . S
C2155 C2154 1.387 . S
C2155 C2157 1.387 . S
H2156 C2163 0.950 . S
C2157 C2155 1.387 . S
C2157 C2159 1.390 . S
C2157 H2161 0.950 . S
H2158 C2154 0.950 . S
C2159 C2157 1.390 . S
C2159 C2160 1.387 . S
C2159 H2162 0.950 . S
C2160 C2159 1.387 . S
C2160 C2163 1.387 . S
H2161 C2157 0.950 . S
H2162 C2159 0.950 . S
C2163 C2154 1.390 . S
C2163 H2156 0.950 . S
C2163 C2160 1.387 . S
C2164 C2165 1.387 . S
C2164 H2168 0.950 . S
C2164 C2173 1.390 . S
C2165 C2164 1.387 . S
C2165 C2167 1.387 . S
H2166 C2173 0.950 . S
C2167 C2165 1.387 . S
C2167 C2169 1.390 . S
C2167 H2171 0.950 . S
H2168 C2164 0.950 . S
C2169 C2167 1.390 . S
C2169 C2170 1.387 . S
C2169 H2172 0.950 . S
C2170 C2169 1.387 . S
C2170 C2173 1.387 . S
H2171 C2167 0.950 . S
H2172 C2169 0.950 . S
C2173 C2164 1.390 . S
C2173 H2166 0.950 . S
C2173 C2170 1.387 . S
C2174 C2175 1.387 . S
C2174 H2178 0.950 . S
C2174 C2183 1.390 . S
C2175 C2174 1.387 . S
C2175 C2177 1.387 . S
H2176 C2183 0.950 . S
C2177 C2175 1.387 . S
C2177 C2179 1.390 . S
C2177 H2181 0.950 . S
H2178 C2174 0.950 . S
C2179 C2177 1.390 . S
C2179 C2180 1.387 . S
C2179 H2182 0.950 . S
C2180 C2179 1.387 . S
C2180 C2183 1.387 . S
H2181 C2177 0.950 . S
H2182 C2179 0.950 . S
C2183 C2174 1.390 . S
C2183 H2176 0.950 . S
C2183 C2180 1.387 . S
C2184 C2185 1.387 . S
C2184 H2188 0.950 . S
C2184 C2193 1.390 . S
C2185 C2184 1.387 . S
C2185 C2187 1.387 . S
H2186 C2193 0.950 . S
C2187 C2185 1.387 . S
C2187 C2189 1.390 . S
C2187 H2191 0.950 . S
H2188 C2184 0.950 . S
C2189 C2187 1.390 . S
C2189 C2190 1.387 . S
C2189 H2192 0.950 . S
C2190 C2189 1.387 . S
C2190 C2193 1.387 . S
H2191 C2187 0.950 . S
H2192 C2189 0.950 . S
C2193 C2184 1.390 . S
C2193 H2186 0.950 . S
C2193 C2190 1.387 . S
C2194 C2195 1.387 . S
C2194 H2198 0.950 . S
C2194 C2203 1.390 . S
C2195 C2194 1.387 . S
C2195 C2197 1.387 . S
H2196 C2203 0.950 . S
C2197 C2195 1.387 . S
C2197 C2199 1.390 . S
C2197 H2201 0.950 . S
H2198 C2194 0.950 . S
C2199 C2197 1.390 . S
C2199 C2200 1.387 . S
C2199 H2202 0.950 . S
C2200 C2199 1.387 . S
C2200 C2203 1.387 . S
H2201 C2197 0.950 . S
H2202 C2199 0.950 . S
C2203 C2194 1.390 . S
C2203 H2196 0.950 . S
C2203 C2200 1.387 . S
C2204 C2205 1.387 . S
C2204 H2208 0.950 . S
C2204 C2213 1.390 . S
C2205 C2204 1.387 . S
C2205 C2207 1.387 . S
H2206 C2213 0.950 . S
C2207 C2205 1.387 . S
C2207 C2209 1.390 . S
C2207 H2211 0.950 . S
H2208 C2204 0.950 . S
C2209 C2207 1.390 . S
C2209 C2210 1.387 . S
C2209 H2212 0.950 . S
C2210 C2209 1.387 . S
C2210 C2213 1.387 . S
H2211 C2207 0.950 . S
H2212 C2209 0.950 . S
C2213 C2204 1.390 . S
C2213 H2206 0.950 . S
C2213 C2210 1.387 . S
C2214 C2215 1.387 . S
C2214 H2218 0.950 . S
C2214 C2223 1.390 . S
C2215 C2214 1.387 . S
C2215 C2217 1.387 . S
H2216 C2223 0.950 . S
C2217 C2215 1.387 . S
C2217 C2219 1.390 . S
C2217 H2221 0.950 . S
H2218 C2214 0.950 . S
C2219 C2217 1.390 . S
C2219 C2220 1.387 . S
C2219 H2222 0.950 . S
C2220 C2219 1.387 . S
C2220 C2223 1.387 . S
H2221 C2217 0.950 . S
H2222 C2219 0.950 . S
C2223 C2214 1.390 . S
C2223 H2216 0.950 . S
C2223 C2220 1.387 . S
C2224 C2225 1.387 . S
C2224 H2228 0.950 . S
C2224 C2233 1.390 . S
C2225 C2224 1.387 . S
C2225 C2227 1.387 . S
H2226 C2233 0.950 . S
C2227 C2225 1.387 . S
C2227 C2229 1.390 . S
C2227 H2231 0.950 . S
H2228 C2224 0.950 . S
C2229 C2227 1.390 . S
C2229 C2230 1.387 . S
C2229 H2232 0.950 . S
C2230 C2229 1.387 . S
C2230 C2233 1.387 . S
H2231 C2227 0.950 . S
H2232 C2229 0.950 . S
C2233 C2224 1.390 . S
C2233 H2226 0.950 . S
C2233 C2230 1.387 . S
C2234 C2235 1.387 . S
C2234 H2238 0.950 . S
C2234 C2243 1.390 . S
C2235 C2234 1.387 . S
C2235 C2237 1.387 . S
H2236 C2243 0.950 . S
C2237 C2235 1.387 . S
C2237 C2239 1.390 . S
C2237 H2241 0.950 . S
H2238 C2234 0.950 . S
C2239 C2237 1.390 . S
C2239 C2240 1.387 . S
C2239 H2242 0.950 . S
C2240 C2239 1.387 . S
C2240 C2243 1.387 . S
H2241 C2237 0.950 . S
H2242 C2239 0.950 . S
C2243 C2234 1.390 . S
C2243 H2236 0.950 . S
C2243 C2240 1.387 . S
C2244 C2245 1.387 . S
C2244 H2248 0.950 . S
C2244 C2253 1.390 . S
C2245 C2244 1.387 . S
C2245 C2247 1.387 . S
H2246 C2253 0.950 . S
C2247 C2245 1.387 . S
C2247 C2249 1.390 . S
C2247 H2251 0.950 . S
H2248 C2244 0.950 . S
C2249 C2247 1.390 . S
C2249 C2250 1.387 . S
C2249 H2252 0.950 . S
C2250 C2249 1.387 . S
C2250 C2253 1.387 . S
H2251 C2247 0.950 . S
H2252 C2249 0.950 . S
C2253 C2244 1.390 . S
C2253 H2246 0.950 . S
C2253 C2250 1.387 . S
C2254 C2255 1.387 . S
C2254 H2258 0.950 . S
C2254 C2263 1.390 . S
C2255 C2254 1.387 . S
C2255 C2257 1.387 . S
H2256 C2263 0.950 . S
C2257 C2255 1.387 . S
C2257 C2259 1.390 . S
C2257 H2261 0.950 . S
H2258 C2254 0.950 . S
C2259 C2257 1.390 . S
C2259 C2260 1.387 . S
C2259 H2262 0.950 . S
C2260 C2259 1.387 . S
C2260 C2263 1.387 . S
H2261 C2257 0.950 . S
H2262 C2259 0.950 . S
C2263 C2254 1.390 . S
C2263 H2256 0.950 . S
C2263 C2260 1.387 . S
C2264 C2265 1.387 . S
C2264 H2268 0.950 . S
C2264 C2273 1.390 . S
C2265 C2264 1.387 . S
C2265 C2267 1.387 . S
H2266 C2273 0.950 . S
C2267 C2265 1.387 . S
C2267 C2269 1.390 . S
C2267 H2271 0.950 . S
H2268 C2264 0.950 . S
C2269 C2267 1.390 . S
C2269 C2270 1.387 . S
C2269 H2272 0.950 . S
C2270 C2269 1.387 . S
C2270 C2273 1.387 . S
H2271 C2267 0.950 . S
H2272 C2269 0.950 . S
C2273 C2264 1.390 . S
C2273 H2266 0.950 . S
C2273 C2270 1.387 . S
C2274 C2275 1.387 . S
C2274 H2278 0.950 . S
C2274 C2283 1.390 . S
C2275 C2274 1.387 . S
C2275 C2277 1.387 . S
H2276 C2283 0.950 . S
C2277 C2275 1.387 . S
C2277 C2279 1.390 . S
C2277 H2281 0.950 . S
H2278 C2274 0.950 . S
C2279 C2277 1.390 . S
C2279 C2280 1.387 . S
C2279 H2282 0.950 . S
C2280 C2279 1.387 . S
C2280 C2283 1.387 . S
H2281 C2277 0.950 . S
H2282 C2279 0.950 . S
C2283 C2274 1.390 . S
C2283 H2276 0.950 . S
C2283 C2280 1.387 . S
C2284 C2285 1.387 . S
C2284 H2288 0.950 . S
C2284 C2293 1.390 . S
C2285 C2284 1.387 . S
C2285 C2287 1.387 . S
H2286 C2293 0.950 . S
C2287 C2285 1.387 . S
C2287 C2289 1.390 . S
C2287 H2291 0.950 . S
H2288 C2284 0.950 . S
C2289 C2287 1.390 . S
C2289 C2290 1.387 . S
C2289 H2292 0.950 . S
C2290 C2289 1.387 . S
C2290 C2293 1.387 . S
H2291 C2287 0.950 . S
H2292 C2289 0.950 . S
C2293 C2284 1.390 . S
C2293 H2286 0.950 . S
C2293 C2290 1.387 . S
C2294 C2295 1.387 . S
C2294 H2298 0.950 . S
C2294 C2303 1.390 . S
C2295 C2294 1.387 . S
C2295 C2297 1.387 . S
H2296 C2303 0.950 . S
C2297 C2295 1.387 . S
C2297 C2299 1.390 . S
C2297 H2301 0.950 . S
H2298 C2294 0.950 . S
C2299 C2297 1.390 . S
C2299 C2300 1.387 . S
C2299 H2302 0.950 . S
C2300 C2299 1.387 . S
C2300 C2303 1.387 . S
H2301 C2297 0.950 . S
H2302 C2299 0.950 . S
C2303 C2294 1.390 . S
C2303 H2296 0.950 . S
C2303 C2300 1.387 . S
C2304 C2305 1.387 . S
C2304 H2308 0.950 . S
C2304 C2313 1.390 1_455 S
C2305 C2304 1.387 . S
C2305 C2307 1.387 . S
H2306 C2313 0.950 . S
C2307 C2305 1.387 . S
C2307 C2309 1.390 1_455 S
C2307 H2311 0.950 . S
H2308 C2304 0.950 . S
C2309 C2307 1.390 1_655 S
C2309 C2310 1.387 . S
C2309 H2312 0.950 . S
C2310 C2309 1.387 . S
C2310 C2313 1.387 . S
H2311 C2307 0.950 . S
H2312 C2309 0.950 . S
C2313 C2304 1.390 1_655 S
C2313 H2306 0.950 . S
C2313 C2310 1.387 . S
C2314 C2315 1.387 . S
C2314 H2318 0.950 . S
C2314 C2323 1.390 1_565 S
C2315 C2314 1.387 . S
C2315 C2317 1.387 . S
H2316 C2323 0.950 . S
C2317 C2315 1.387 . S
C2317 C2319 1.390 1_565 S
C2317 H2321 0.950 . S
H2318 C2314 0.950 . S
C2319 C2317 1.390 1_545 S
C2319 C2320 1.387 . S
C2319 H2322 0.950 . S
C2320 C2319 1.387 . S
C2320 C2323 1.387 . S
H2321 C2317 0.950 . S
H2322 C2319 0.950 . S
C2323 C2314 1.390 1_545 S
C2323 H2316 0.950 . S
C2323 C2320 1.387 . S
C2324 C2325 1.387 . S
C2324 H2328 0.950 . S
C2324 C2333 1.390 1_655 S
C2325 C2324 1.387 . S
C2325 C2327 1.387 . S
H2326 C2333 0.950 . S
C2327 C2325 1.387 . S
C2327 C2329 1.390 1_655 S
C2327 H2331 0.950 . S
H2328 C2324 0.950 . S
C2329 C2327 1.390 1_455 S
C2329 C2330 1.387 . S
C2329 H2332 0.950 . S
C2330 C2329 1.387 . S
C2330 C2333 1.387 . S
H2331 C2327 0.950 . S
H2332 C2329 0.950 . S
C2333 C2324 1.390 1_455 S
C2333 H2326 0.950 . S
C2333 C2330 1.387 . S
C2334 C2335 1.387 . S
C2334 H2338 0.950 . S
C2334 C2343 1.390 1_545 S
C2335 C2334 1.387 . S
C2335 C2337 1.387 . S
H2336 C2343 0.950 . S
C2337 C2335 1.387 . S
C2337 C2339 1.390 1_545 S
C2337 H2341 0.950 . S
H2338 C2334 0.950 . S
C2339 C2337 1.390 1_565 S
C2339 C2340 1.387 . S
C2339 H2342 0.950 . S
C2340 C2339 1.387 . S
C2340 C2343 1.387 . S
H2341 C2337 0.950 . S
H2342 C2339 0.950 . S
C2343 C2334 1.390 1_565 S
C2343 H2336 0.950 . S
C2343 C2340 1.387 . S
C2344 C2345 1.387 . S
C2344 H2348 0.950 . S
C2344 C2353 1.390 1_455 S
C2345 C2344 1.387 . S
C2345 C2347 1.387 . S
H2346 C2353 0.950 . S
C2347 C2345 1.387 . S
C2347 C2349 1.390 1_455 S
C2347 H2351 0.950 . S
H2348 C2344 0.950 . S
C2349 C2347 1.390 1_655 S
C2349 C2350 1.387 . S
C2349 H2352 0.950 . S
C2350 C2349 1.387 . S
C2350 C2353 1.387 . S
H2351 C2347 0.950 . S
H2352 C2349 0.950 . S
C2353 C2344 1.390 1_655 S
C2353 H2346 0.950 . S
C2353 C2350 1.387 . S
C2354 C2355 1.387 . S
C2354 H2358 0.950 . S
C2354 C2363 1.390 1_545 S
C2355 C2354 1.387 . S
C2355 C2357 1.387 . S
H2356 C2363 0.950 . S
C2357 C2355 1.387 . S
C2357 C2359 1.390 1_545 S
C2357 H2361 0.950 . S
H2358 C2354 0.950 . S
C2359 C2357 1.390 1_565 S
C2359 C2360 1.387 . S
C2359 H2362 0.950 . S
C2360 C2359 1.387 . S
C2360 C2363 1.387 . S
H2361 C2357 0.950 . S
H2362 C2359 0.950 . S
C2363 C2354 1.390 1_565 S
C2363 H2356 0.950 . S
C2363 C2360 1.387 . S
C2364 C2365 1.387 . S
C2364 H2368 0.950 . S
C2364 C2373 1.390 1_655 S
C2365 C2364 1.387 . S
C2365 C2367 1.387 . S
H2366 C2373 0.950 . S
C2367 C2365 1.387 . S
C2367 C2369 1.390 1_655 S
C2367 H2371 0.950 . S
H2368 C2364 0.950 . S
C2369 C2367 1.390 1_455 S
C2369 C2370 1.387 . S
C2369 H2372 0.950 . S
C2370 C2369 1.387 . S
C2370 C2373 1.387 . S
H2371 C2367 0.950 . S
H2372 C2369 0.950 . S
C2373 C2364 1.390 1_455 S
C2373 H2366 0.950 . S
C2373 C2370 1.387 . S
C2374 C2375 1.387 . S
C2374 H2378 0.950 . S
C2374 C2383 1.390 1_545 S
C2375 C2374 1.387 . S
C2375 C2377 1.387 . S
H2376 C2383 0.950 . S
C2377 C2375 1.387 . S
C2377 C2379 1.390 1_545 S
C2377 H2381 0.950 . S
H2378 C2374 0.950 . S
C2379 C2377 1.390 1_565 S
C2379 C2380 1.387 . S
C2379 H2382 0.950 . S
C2380 C2379 1.387 . S
C2380 C2383 1.387 . S
H2381 C2377 0.950 . S
H2382 C2379 0.950 . S
C2383 C2374 1.390 1_565 S
C2383 H2376 0.950 . S
C2383 C2380 1.387 . S
C2384 C2385 1.387 . S
C2384 H2388 0.950 . S
C2384 C2393 1.390 1_565 S
C2385 C2384 1.387 . S
C2385 C2387 1.387 . S
H2386 C2393 0.950 . S
C2387 C2385 1.387 . S
C2387 C2389 1.390 1_565 S
C2387 H2391 0.950 . S
H2388 C2384 0.950 . S
C2389 C2387 1.390 1_545 S
C2389 C2390 1.387 . S
C2389 H2392 0.950 . S
C2390 C2389 1.387 . S
C2390 C2393 1.387 . S
H2391 C2387 0.950 . S
H2392 C2389 0.950 . S
C2393 C2384 1.390 1_545 S
C2393 H2386 0.950 . S
C2393 C2390 1.387 . S
C2394 C2395 1.387 . S
C2394 H2398 0.950 . S
C2394 C2403 1.390 1_655 S
C2395 C2394 1.387 . S
C2395 C2397 1.387 . S
H2396 C2403 0.950 . S
C2397 C2395 1.387 . S
C2397 C2399 1.390 1_655 S
C2397 H2401 0.950 . S
H2398 C2394 0.950 . S
C2399 C2397 1.390 1_455 S
C2399 C2400 1.387 . S
C2399 H2402 0.950 . S
C2400 C2399 1.387 . S
C2400 C2403 1.387 . S
H2401 C2397 0.950 . S
H2402 C2399 0.950 . S
C2403 C2394 1.390 1_455 S
C2403 H2396 0.950 . S
C2403 C2400 1.387 . S
C2404 C2405 1.387 . S
C2404 H2408 0.950 . S
C2404 C2413 1.390 1_565 S
C2405 C2404 1.387 . S
C2405 C2407 1.387 . S
H2406 C2413 0.950 . S
C2407 C2405 1.387 . S
C2407 C2409 1.390 1_565 S
C2407 H2411 0.950 . S
H2408 C2404 0.950 . S
C2409 C2407 1.390 1_545 S
C2409 C2410 1.387 . S
C2409 H2412 0.950 . S
C2410 C2409 1.387 . S
C2410 C2413 1.387 . S
H2411 C2407 0.950 . S
H2412 C2409 0.950 . S
C2413 C2404 1.390 1_545 S
C2413 H2406 0.950 . S
C2413 C2410 1.387 . S
C2414 C2415 1.387 . S
C2414 H2418 0.950 . S
C2414 C2423 1.390 1_455 S
C2415 C2414 1.387 . S
C2415 C2417 1.387 . S
H2416 C2423 0.950 . S
C2417 C2415 1.387 . S
C2417 C2419 1.390 1_455 S
C2417 H2421 0.950 . S
H2418 C2414 0.950 . S
C2419 C2417 1.390 1_655 S
C2419 C2420 1.387 . S
C2419 H2422 0.950 . S
C2420 C2419 1.387 . S
C2420 C2423 1.387 . S
H2421 C2417 0.950 . S
H2422 C2419 0.950 . S
C2423 C2414 1.390 1_655 S
C2423 H2416 0.950 . S
C2423 C2420 1.387 . S
C2424 C2425 1.387 . S
C2424 H2428 0.950 . S
C2424 C2433 1.390 1_565 S
C2425 C2424 1.387 . S
C2425 C2427 1.387 . S
H2426 C2433 0.950 . S
C2427 C2425 1.387 . S
C2427 C2429 1.390 1_565 S
C2427 H2431 0.950 . S
H2428 C2424 0.950 . S
C2429 C2427 1.390 1_545 S
C2429 C2430 1.387 . S
C2429 H2432 0.950 . S
C2430 C2429 1.387 . S
C2430 C2433 1.387 . S
H2431 C2427 0.950 . S
H2432 C2429 0.950 . S
C2433 C2424 1.390 1_545 S
C2433 H2426 0.950 . S
C2433 C2430 1.387 . S
C2434 C2435 1.387 . S
C2434 H2438 0.950 . S
C2434 C2443 1.390 1_455 S
C2435 C2434 1.387 . S
C2435 C2437 1.387 . S
H2436 C2443 0.950 . S
C2437 C2435 1.387 . S
C2437 C2439 1.390 1_455 S
C2437 H2441 0.950 . S
H2438 C2434 0.950 . S
C2439 C2437 1.390 1_655 S
C2439 C2440 1.387 . S
C2439 H2442 0.950 . S
C2440 C2439 1.387 . S
C2440 C2443 1.387 . S
H2441 C2437 0.950 . S
H2442 C2439 0.950 . S
C2443 C2434 1.390 1_655 S
C2443 H2436 0.950 . S
C2443 C2440 1.387 . S
C2444 C2445 1.387 . S
C2444 H2448 0.950 . S
C2444 C2453 1.390 1_545 S
C2445 C2444 1.387 . S
C2445 C2447 1.387 . S
H2446 C2453 0.950 . S
C2447 C2445 1.387 . S
C2447 C2449 1.390 1_545 S
C2447 H2451 0.950 . S
H2448 C2444 0.950 . S
C2449 C2447 1.390 1_565 S
C2449 C2450 1.387 . S
C2449 H2452 0.950 . S
C2450 C2449 1.387 . S
C2450 C2453 1.387 . S
H2451 C2447 0.950 . S
H2452 C2449 0.950 . S
C2453 C2444 1.390 1_565 S
C2453 H2446 0.950 . S
C2453 C2450 1.387 . S
C2454 C2455 1.387 . S
C2454 H2458 0.950 . S
C2454 C2463 1.390 1_655 S
C2455 C2454 1.387 . S
C2455 C2457 1.387 . S
H2456 C2463 0.950 . S
C2457 C2455 1.387 . S
C2457 C2459 1.390 1_655 S
C2457 H2461 0.950 . S
H2458 C2454 0.950 . S
C2459 C2457 1.390 1_455 S
C2459 C2460 1.387 . S
C2459 H2462 0.950 . S
C2460 C2459 1.387 . S
C2460 C2463 1.387 . S
H2461 C2457 0.950 . S
H2462 C2459 0.950 . S
C2463 C2454 1.390 1_455 S
C2463 H2456 0.950 . S
C2463 C2460 1.387 . S
C2464 C2465 1.387 . S
C2464 H2468 0.950 . S
C2464 C2473 1.390 1_554 S
C2465 C2464 1.387 . S
C2465 C2467 1.387 . S
H2466 C2473 0.950 . S
C2467 C2465 1.387 . S
C2467 C2469 1.390 1_554 S
C2467 H2471 0.950 . S
H2468 C2464 0.950 . S
C2469 C2467 1.390 1_556 S
C2469 C2470 1.387 . S
C2469 H2472 0.950 . S
C2470 C2469 1.387 . S
C2470 C2473 1.387 . S
H2471 C2467 0.950 . S
H2472 C2469 0.950 . S
C2473 C2464 1.390 1_556 S
C2473 H2466 0.950 . S
C2473 C2470 1.387 . S
C2474 C2475 1.387 . S
C2474 H2478 0.950 . S
C2474 C2483 1.390 1_556 S
C2475 C2474 1.387 . S
C2475 C2477 1.387 . S
H2476 C2483 0.950 . S
C2477 C2475 1.387 . S
C2477 C2479 1.390 1_556 S
C2477 H2481 0.950 . S
H2478 C2474 0.950 . S
C2479 C2477 1.390 1_554 S
C2479 C2480 1.387 . S
C2479 H2482 0.950 . S
C2480 C2479 1.387 . S
C2480 C2483 1.387 . S
H2481 C2477 0.950 . S
H2482 C2479 0.950 . S
C2483 C2474 1.390 1_554 S
C2483 H2476 0.950 . S
C2483 C2480 1.387 . S
C2484 C2485 1.387 . S
C2484 H2488 0.950 . S
C2484 C2493 1.390 1_554 S
C2485 C2484 1.387 . S
C2485 C2487 1.387 . S
H2486 C2493 0.950 . S
C2487 C2485 1.387 . S
C2487 C2489 1.390 1_554 S
C2487 H2491 0.950 . S
H2488 C2484 0.950 . S
C2489 C2487 1.390 1_556 S
C2489 C2490 1.387 . S
C2489 H2492 0.950 . S
C2490 C2489 1.387 . S
C2490 C2493 1.387 . S
H2491 C2487 0.950 . S
H2492 C2489 0.950 . S
C2493 C2484 1.390 1_556 S
C2493 H2486 0.950 . S
C2493 C2490 1.387 . S
C2494 C2495 1.387 . S
C2494 H2498 0.950 . S
C2494 C2503 1.390 1_556 S
C2495 C2494 1.387 . S
C2495 C2497 1.387 . S
H2496 C2503 0.950 . S
C2497 C2495 1.387 . S
C2497 C2499 1.390 1_556 S
C2497 H2501 0.950 . S
H2498 C2494 0.950 . S
C2499 C2497 1.390 1_554 S
C2499 C2500 1.387 . S
C2499 H2502 0.950 . S
C2500 C2499 1.387 . S
C2500 C2503 1.387 . S
H2501 C2497 0.950 . S
H2502 C2499 0.950 . S
C2503 C2494 1.390 1_554 S
C2503 H2496 0.950 . S
C2503 C2500 1.387 . S
C2504 C2505 1.387 . S
C2504 H2508 0.950 . S
C2504 C2513 1.390 1_554 S
C2505 C2504 1.387 . S
C2505 C2507 1.387 . S
H2506 C2513 0.950 . S
C2507 C2505 1.387 . S
C2507 C2509 1.390 1_554 S
C2507 H2511 0.950 . S
H2508 C2504 0.950 . S
C2509 C2507 1.390 1_556 S
C2509 C2510 1.387 . S
C2509 H2512 0.950 . S
C2510 C2509 1.387 . S
C2510 C2513 1.387 . S
H2511 C2507 0.950 . S
H2512 C2509 0.950 . S
C2513 C2504 1.390 1_556 S
C2513 H2506 0.950 . S
C2513 C2510 1.387 . S
C2514 C2515 1.387 . S
C2514 H2518 0.950 . S
C2514 C2523 1.390 1_554 S
C2515 C2514 1.387 . S
C2515 C2517 1.387 . S
H2516 C2523 0.950 . S
C2517 C2515 1.387 . S
C2517 C2519 1.390 1_554 S
C2517 H2521 0.950 . S
H2518 C2514 0.950 . S
C2519 C2517 1.390 1_556 S
C2519 C2520 1.387 . S
C2519 H2522 0.950 . S
C2520 C2519 1.387 . S
C2520 C2523 1.387 . S
H2521 C2517 0.950 . S
H2522 C2519 0.950 . S
C2523 C2514 1.390 1_556 S
C2523 H2516 0.950 . S
C2523 C2520 1.387 . S
C2524 C2525 1.387 . S
C2524 H2528 0.950 . S
C2524 C2533 1.390 1_554 S
C2525 C2524 1.387 . S
C2525 C2527 1.387 . S
H2526 C2533 0.950 . S
C2527 C2525 1.387 . S
C2527 C2529 1.390 1_554 S
C2527 H2531 0.950 . S
H2528 C2524 0.950 . S
C2529 C2527 1.390 1_556 S
C2529 C2530 1.387 . S
C2529 H2532 0.950 . S
C2530 C2529 1.387 . S
C2530 C2533 1.387 . S
H2531 C2527 0.950 . S
H2532 C2529 0.950 . S
C2533 C2524 1.390 1_556 S
C2533 H2526 0.950 . S
C2533 C2530 1.387 . S
C2534 C2535 1.387 . S
C2534 H2538 0.950 . S
C2534 C2543 1.390 1_556 S
C2535 C2534 1.387 . S
C2535 C2537 1.387 . S
H2536 C2543 0.950 . S
C2537 C2535 1.387 . S
C2537 C2539 1.390 1_556 S
C2537 H2541 0.950 . S
H2538 C2534 0.950 . S
C2539 C2537 1.390 1_554 S
C2539 C2540 1.387 . S
C2539 H2542 0.950 . S
C2540 C2539 1.387 . S
C2540 C2543 1.387 . S
H2541 C2537 0.950 . S
H2542 C2539 0.950 . S
C2543 C2534 1.390 1_554 S
C2543 H2536 0.950 . S
C2543 C2540 1.387 . S
C2544 C2545 1.387 . S
C2544 H2548 0.950 . S
C2544 C2553 1.390 . S
C2545 C2544 1.387 . S
C2545 C2547 1.387 . S
H2546 C2553 0.950 . S
C2547 C2545 1.387 . S
C2547 C2549 1.390 . S
C2547 H2551 0.950 . S
H2548 C2544 0.950 . S
C2549 C2547 1.390 . S
C2549 C2550 1.387 . S
C2549 H2552 0.950 . S
C2550 C2549 1.387 . S
C2550 C2553 1.387 . S
H2551 C2547 0.950 . S
H2552 C2549 0.950 . S
C2553 C2544 1.390 . S
C2553 H2546 0.950 . S
C2553 C2550 1.387 . S
C2554 C2555 1.387 . S
C2554 H2558 0.950 . S
C2554 C2563 1.390 . S
C2555 C2554 1.387 . S
C2555 C2557 1.387 . S
H2556 C2563 0.950 . S
C2557 C2555 1.387 . S
C2557 C2559 1.390 . S
C2557 H2561 0.950 . S
H2558 C2554 0.950 . S
C2559 C2557 1.390 . S
C2559 C2560 1.387 . S
C2559 H2562 0.950 . S
C2560 C2559 1.387 . S
C2560 C2563 1.387 . S
H2561 C2557 0.950 . S
H2562 C2559 0.950 . S
C2563 C2554 1.390 . S
C2563 H2556 0.950 . S
C2563 C2560 1.387 . S
C2564 C2565 1.387 . S
C2564 H2568 0.950 . S
C2564 C2573 1.390 . S
C2565 C2564 1.387 . S
C2565 C2567 1.387 . S
H2566 C2573 0.950 . S
C2567 C2565 1.387 . S
C2567 C2569 1.390 . S
C2567 H2571 0.950 . S
H2568 C2564 0.950 . S
C2569 C2567 1.390 . S
C2569 C2570 1.387 . S
C2569 H2572 0.950 . S
C2570 C2569 1.387 . S
C2570 C2573 1.387 . S
H2571 C2567 0.950 . S
H2572 C2569 0.950 . S
C2573 C2564 1.390 . S
C2573 H2566 0.950 . S
C2573 C2570 1.387 . S
C2574 C2575 1.387 . S
C2574 H2578 0.950 . S
C2574 C2583 1.390 . S
C2575 C2574 1.387 . S
C2575 C2577 1.387 . S
H2576 C2583 0.950 . S
C2577 C2575 1.387 . S
C2577 C2579 1.390 . S
C2577 H2581 0.950 . S
H2578 C2574 0.950 . S
C2579 C2577 1.390 . S
C2579 C2580 1.387 . S
C2579 H2582 0.950 . S
C2580 C2579 1.387 . S
C2580 C2583 1.387 . S
H2581 C2577 0.950 . S
H2582 C2579 0.950 . S
C2583 C2574 1.390 . S
C2583 H2576 0.950 . S
C2583 C2580 1.387 . S
C2584 C2585 1.387 . S
C2584 H2588 0.950 . S
C2584 C2593 1.390 . S
C2585 C2584 1.387 . S
C2585 C2587 1.387 . S
H2586 C2593 0.950 . S
C2587 C2585 1.387 . S
C2587 C2589 1.390 . S
C2587 H2591 0.950 . S
H2588 C2584 0.950 . S
C2589 C2587 1.390 . S
C2589 C2590 1.387 . S
C2589 H2592 0.950 . S
C2590 C2589 1.387 . S
C2590 C2593 1.387 . S
H2591 C2587 0.950 . S
H2592 C2589 0.950 . S
C2593 C2584 1.390 . S
C2593 H2586 0.950 . S
C2593 C2590 1.387 . S
C2594 C2595 1.387 . S
C2594 H2598 0.950 . S
C2594 C2603 1.390 . S
C2595 C2594 1.387 . S
C2595 C2597 1.387 . S
H2596 C2603 0.950 . S
C2597 C2595 1.387 . S
C2597 C2599 1.390 . S
C2597 H2601 0.950 . S
H2598 C2594 0.950 . S
C2599 C2597 1.390 . S
C2599 C2600 1.387 . S
C2599 H2602 0.950 . S
C2600 C2599 1.387 . S
C2600 C2603 1.387 . S
H2601 C2597 0.950 . S
H2602 C2599 0.950 . S
C2603 C2594 1.390 . S
C2603 H2596 0.950 . S
C2603 C2600 1.387 . S
C2604 C2605 1.387 . S
C2604 H2608 0.950 . S
C2604 C2613 1.390 . S
C2605 C2604 1.387 . S
C2605 C2607 1.387 . S
H2606 C2613 0.950 . S
C2607 C2605 1.387 . S
C2607 C2609 1.390 . S
C2607 H2611 0.950 . S
H2608 C2604 0.950 . S
C2609 C2607 1.390 . S
C2609 C2610 1.387 . S
C2609 H2612 0.950 . S
C2610 C2609 1.387 . S
C2610 C2613 1.387 . S
H2611 C2607 0.950 . S
H2612 C2609 0.950 . S
C2613 C2604 1.390 . S
C2613 H2606 0.950 . S
C2613 C2610 1.387 . S
C2614 C2615 1.387 . S
C2614 H2618 0.950 . S
C2614 C2623 1.390 . S
C2615 C2614 1.387 . S
C2615 C2617 1.387 . S
H2616 C2623 0.950 . S
C2617 C2615 1.387 . S
C2617 C2619 1.390 . S
C2617 H2621 0.950 . S
H2618 C2614 0.950 . S
C2619 C2617 1.390 . S
C2619 C2620 1.387 . S
C2619 H2622 0.950 . S
C2620 C2619 1.387 . S
C2620 C2623 1.387 . S
H2621 C2617 0.950 . S
H2622 C2619 0.950 . S
C2623 C2614 1.390 . S
C2623 H2616 0.950 . S
C2623 C2620 1.387 . S
C2624 C2625 1.387 . S
C2624 H2628 0.950 . S
C2624 C2633 1.390 . S
C2625 C2624 1.387 . S
C2625 C2627 1.387 . S
H2626 C2633 0.950 . S
C2627 C2625 1.387 . S
C2627 C2629 1.390 . S
C2627 H2631 0.950 . S
H2628 C2624 0.950 . S
C2629 C2627 1.390 . S
C2629 C2630 1.387 . S
C2629 H2632 0.950 . S
C2630 C2629 1.387 . S
C2630 C2633 1.387 . S
H2631 C2627 0.950 . S
H2632 C2629 0.950 . S
C2633 C2624 1.390 . S
C2633 H2626 0.950 . S
C2633 C2630 1.387 . S
C2634 C2635 1.387 . S
C2634 H2638 0.950 . S
C2634 C2643 1.390 . S
C2635 C2634 1.387 . S
C2635 C2637 1.387 . S
H2636 C2643 0.950 . S
C2637 C2635 1.387 . S
C2637 C2639 1.390 . S
C2637 H2641 0.950 . S
H2638 C2634 0.950 . S
C2639 C2637 1.390 . S
C2639 C2640 1.387 . S
C2639 H2642 0.950 . S
C2640 C2639 1.387 . S
C2640 C2643 1.387 . S
H2641 C2637 0.950 . S
H2642 C2639 0.950 . S
C2643 C2634 1.390 . S
C2643 H2636 0.950 . S
C2643 C2640 1.387 . S
C2644 C2645 1.387 . S
C2644 H2648 0.950 . S
C2644 C2653 1.390 . S
C2645 C2644 1.387 . S
C2645 C2647 1.387 . S
H2646 C2653 0.950 . S
C2647 C2645 1.387 . S
C2647 C2649 1.390 . S
C2647 H2651 0.950 . S
H2648 C2644 0.950 . S
C2649 C2647 1.390 . S
C2649 C2650 1.387 . S
C2649 H2652 0.950 . S
C2650 C2649 1.387 . S
C2650 C2653 1.387 . S
H2651 C2647 0.950 . S
H2652 C2649 0.950 . S
C2653 C2644 1.390 . S
C2653 H2646 0.950 . S
C2653 C2650 1.387 . S
C2654 C2655 1.387 . S
C2654 H2658 0.950 . S
C2654 C2663 1.390 . S
C2655 C2654 1.387 . S
C2655 C2657 1.387 . S
H2656 C2663 0.950 . S
C2657 C2655 1.387 . S
C2657 C2659 1.390 . S
C2657 H2661 0.950 . S
H2658 C2654 0.950 . S
C2659 C2657 1.390 . S
C2659 C2660 1.387 . S
C2659 H2662 0.950 . S
C2660 C2659 1.387 . S
C2660 C2663 1.387 . S
H2661 C2657 0.950 . S
H2662 C2659 0.950 . S
C2663 C2654 1.390 . S
C2663 H2656 0.950 . S
C2663 C2660 1.387 . S
C2664 C2665 1.387 . S
C2664 H2668 0.950 . S
C2664 C2673 1.390 . S
C2665 C2664 1.387 . S
C2665 C2667 1.387 . S
H2666 C2673 0.950 . S
C2667 C2665 1.387 . S
C2667 C2669 1.390 . S
C2667 H2671 0.950 . S
H2668 C2664 0.950 . S
C2669 C2667 1.390 . S
C2669 C2670 1.387 . S
C2669 H2672 0.950 . S
C2670 C2669 1.387 . S
C2670 C2673 1.387 . S
H2671 C2667 0.950 . S
H2672 C2669 0.950 . S
C2673 C2664 1.390 . S
C2673 H2666 0.950 . S
C2673 C2670 1.387 . S
C2674 C2675 1.387 . S
C2674 H2678 0.950 . S
C2674 C2683 1.390 . S
C2675 C2674 1.387 . S
C2675 C2677 1.387 . S
H2676 C2683 0.950 . S
C2677 C2675 1.387 . S
C2677 C2679 1.390 . S
C2677 H2681 0.950 . S
H2678 C2674 0.950 . S
C2679 C2677 1.390 . S
C2679 C2680 1.387 . S
C2679 H2682 0.950 . S
C2680 C2679 1.387 . S
C2680 C2683 1.387 . S
H2681 C2677 0.950 . S
H2682 C2679 0.950 . S
C2683 C2674 1.390 . S
C2683 H2676 0.950 . S
C2683 C2680 1.387 . S
C2684 C2685 1.387 . S
C2684 H2688 0.950 . S
C2684 C2693 1.390 . S
C2685 C2684 1.387 . S
C2685 C2687 1.387 . S
H2686 C2693 0.950 . S
C2687 C2685 1.387 . S
C2687 C2689 1.390 . S
C2687 H2691 0.950 . S
H2688 C2684 0.950 . S
C2689 C2687 1.390 . S
C2689 C2690 1.387 . S
C2689 H2692 0.950 . S
C2690 C2689 1.387 . S
C2690 C2693 1.387 . S
H2691 C2687 0.950 . S
H2692 C2689 0.950 . S
C2693 C2684 1.390 . S
C2693 H2686 0.950 . S
C2693 C2690 1.387 . S
C2694 C2695 1.387 . S
C2694 H2698 0.950 . S
C2694 C2703 1.390 . S
C2695 C2694 1.387 . S
C2695 C2697 1.387 . S
H2696 C2703 0.950 . S
C2697 C2695 1.387 . S
C2697 C2699 1.390 . S
C2697 H2701 0.950 . S
H2698 C2694 0.950 . S
C2699 C2697 1.390 . S
C2699 C2700 1.387 . S
C2699 H2702 0.950 . S
C2700 C2699 1.387 . S
C2700 C2703 1.387 . S
H2701 C2697 0.950 . S
H2702 C2699 0.950 . S
C2703 C2694 1.390 . S
C2703 H2696 0.950 . S
C2703 C2700 1.387 . S
C2704 C2705 1.387 . S
C2704 H2708 0.950 . S
C2704 C2713 1.390 . S
C2705 C2704 1.387 . S
C2705 C2707 1.387 . S
H2706 C2713 0.950 . S
C2707 C2705 1.387 . S
C2707 C2709 1.390 . S
C2707 H2711 0.950 . S
H2708 C2704 0.950 . S
C2709 C2707 1.390 . S
C2709 C2710 1.387 . S
C2709 H2712 0.950 . S
C2710 C2709 1.387 . S
C2710 C2713 1.387 . S
H2711 C2707 0.950 . S
H2712 C2709 0.950 . S
C2713 C2704 1.390 . S
C2713 H2706 0.950 . S
C2713 C2710 1.387 . S
C2714 C2715 1.387 . S
C2714 H2718 0.950 . S
C2714 C2723 1.390 . S
C2715 C2714 1.387 . S
C2715 C2717 1.387 . S
H2716 C2723 0.950 . S
C2717 C2715 1.387 . S
C2717 C2719 1.390 . S
C2717 H2721 0.950 . S
H2718 C2714 0.950 . S
C2719 C2717 1.390 . S
C2719 C2720 1.387 . S
C2719 H2722 0.950 . S
C2720 C2719 1.387 . S
C2720 C2723 1.387 . S
H2721 C2717 0.950 . S
H2722 C2719 0.950 . S
C2723 C2714 1.390 . S
C2723 H2716 0.950 . S
C2723 C2720 1.387 . S
C2724 C2725 1.387 . S
C2724 H2728 0.950 . S
C2724 C2733 1.390 . S
C2725 C2724 1.387 . S
C2725 C2727 1.387 . S
H2726 C2733 0.950 . S
C2727 C2725 1.387 . S
C2727 C2729 1.390 . S
C2727 H2731 0.950 . S
H2728 C2724 0.950 . S
C2729 C2727 1.390 . S
C2729 C2730 1.387 . S
C2729 H2732 0.950 . S
C2730 C2729 1.387 . S
C2730 C2733 1.387 . S
H2731 C2727 0.950 . S
H2732 C2729 0.950 . S
C2733 C2724 1.390 . S
C2733 H2726 0.950 . S
C2733 C2730 1.387 . S
C2734 C2735 1.387 . S
C2734 H2738 0.950 . S
C2734 C2743 1.390 . S
C2735 C2734 1.387 . S
C2735 C2737 1.387 . S
H2736 C2743 0.950 . S
C2737 C2735 1.387 . S
C2737 C2739 1.390 . S
C2737 H2741 0.950 . S
H2738 C2734 0.950 . S
C2739 C2737 1.390 . S
C2739 C2740 1.387 . S
C2739 H2742 0.950 . S
C2740 C2739 1.387 . S
C2740 C2743 1.387 . S
H2741 C2737 0.950 . S
H2742 C2739 0.950 . S
C2743 C2734 1.390 . S
C2743 H2736 0.950 . S
C2743 C2740 1.387 . S
C2744 C2745 1.387 . S
C2744 H2748 0.950 . S
C2744 C2753 1.390 . S
C2745 C2744 1.387 . S
C2745 C2747 1.387 . S
H2746 C2753 0.950 . S
C2747 C2745 1.387 . S
C2747 C2749 1.390 . S
C2747 H2751 0.950 . S
H2748 C2744 0.950 . S
C2749 C2747 1.390 . S
C2749 C2750 1.387 . S
C2749 H2752 0.950 . S
C2750 C2749 1.387 . S
C2750 C2753 1.387 . S
H2751 C2747 0.950 . S
H2752 C2749 0.950 . S
C2753 C2744 1.390 . S
C2753 H2746 0.950 . S
C2753 C2750 1.387 . S
C2754 C2755 1.387 . S
C2754 H2758 0.950 . S
C2754 C2763 1.390 . S
C2755 C2754 1.387 . S
C2755 C2757 1.387 . S
H2756 C2763 0.950 . S
C2757 C2755 1.387 . S
C2757 C2759 1.390 . S
C2757 H2761 0.950 . S
H2758 C2754 0.950 . S
C2759 C2757 1.390 . S
C2759 C2760 1.387 . S
C2759 H2762 0.950 . S
C2760 C2759 1.387 . S
C2760 C2763 1.387 . S
H2761 C2757 0.950 . S
H2762 C2759 0.950 . S
C2763 C2754 1.390 . S
C2763 H2756 0.950 . S
C2763 C2760 1.387 . S
C2764 C2765 1.387 . S
C2764 H2768 0.950 . S
C2764 C2773 1.390 . S
C2765 C2764 1.387 . S
C2765 C2767 1.387 . S
H2766 C2773 0.950 . S
C2767 C2765 1.387 . S
C2767 C2769 1.390 . S
C2767 H2771 0.950 . S
H2768 C2764 0.950 . S
C2769 C2767 1.390 . S
C2769 C2770 1.387 . S
C2769 H2772 0.950 . S
C2770 C2769 1.387 . S
C2770 C2773 1.387 . S
H2771 C2767 0.950 . S
H2772 C2769 0.950 . S
C2773 C2764 1.390 . S
C2773 H2766 0.950 . S
C2773 C2770 1.387 . S
C2774 C2775 1.387 . S
C2774 H2778 0.950 . S
C2774 C2783 1.390 . S
C2775 C2774 1.387 . S
C2775 C2777 1.387 . S
H2776 C2783 0.950 . S
C2777 C2775 1.387 . S
C2777 C2779 1.390 . S
C2777 H2781 0.950 . S
H2778 C2774 0.950 . S
C2779 C2777 1.390 . S
C2779 C2780 1.387 . S
C2779 H2782 0.950 . S
C2780 C2779 1.387 . S
C2780 C2783 1.387 . S
H2781 C2777 0.950 . S
H2782 C2779 0.950 . S
C2783 C2774 1.390 . S
C2783 H2776 0.950 . S
C2783 C2780 1.387 . S
C2784 C2785 1.387 . S
C2784 H2788 0.950 . S
C2784 C2793 1.390 . S
C2785 C2784 1.387 . S
C2785 C2787 1.387 . S
H2786 C2793 0.950 . S
C2787 C2785 1.387 . S
C2787 C2789 1.390 . S
C2787 H2791 0.950 . S
H2788 C2784 0.950 . S
C2789 C2787 1.390 . S
C2789 C2790 1.387 . S
C2789 H2792 0.950 . S
C2790 C2789 1.387 . S
C2790 C2793 1.387 . S
H2791 C2787 0.950 . S
H2792 C2789 0.950 . S
C2793 C2784 1.390 . S
C2793 H2786 0.950 . S
C2793 C2790 1.387 . S
C2794 C2795 1.387 . S
C2794 H2798 0.950 . S
C2794 C2803 1.390 . S
C2795 C2794 1.387 . S
C2795 C2797 1.387 . S
H2796 C2803 0.950 . S
C2797 C2795 1.387 . S
C2797 C2799 1.390 . S
C2797 H2801 0.950 . S
H2798 C2794 0.950 . S
C2799 C2797 1.390 . S
C2799 C2800 1.387 . S
C2799 H2802 0.950 . S
C2800 C2799 1.387 . S
C2800 C2803 1.387 . S
H2801 C2797 0.950 . S
H2802 C2799 0.950 . S
C2803 C2794 1.390 . S
C2803 H2796 0.950 . S
C2803 C2800 1.387 . S
C2804 C2805 1.387 . S
C2804 H2808 0.950 . S
C2804 C2813 1.390 . S
C2805 C2804 1.387 . S
C2805 C2807 1.387 . S
H2806 C2813 0.950 . S
C2807 C2805 1.387 . S
C2807 C2809 1.390 . S
C2807 H2811 0.950 . S
H2808 C2804 0.950 . S
C2809 C2807 1.390 . S
C2809 C2810 1.387 . S
C2809 H2812 0.950 . S
C2810 C2809 1.387 . S
C2810 C2813 1.387 . S
H2811 C2807 0.950 . S
H2812 C2809 0.950 . S
C2813 C2804 1.390 . S
C2813 H2806 0.950 . S
C2813 C2810 1.387 . S
C2814 C2815 1.387 . S
C2814 H2818 0.950 . S
C2814 C2823 1.390 . S
C2815 C2814 1.387 . S
C2815 C2817 1.387 . S
H2816 C2823 0.950 . S
C2817 C2815 1.387 . S
C2817 C2819 1.390 . S
C2817 H2821 0.950 . S
H2818 C2814 0.950 . S
C2819 C2817 1.390 . S
C2819 C2820 1.387 . S
C2819 H2822 0.950 . S
C2820 C2819 1.387 . S
C2820 C2823 1.387 . S
H2821 C2817 0.950 . S
H2822 C2819 0.950 . S
C2823 C2814 1.390 . S
C2823 H2816 0.950 . S
C2823 C2820 1.387 . S
C2824 C2825 1.387 . S
C2824 H2828 0.950 . S
C2824 C2833 1.390 . S
C2825 C2824 1.387 . S
C2825 C2827 1.387 . S
H2826 C2833 0.950 . S
C2827 C2825 1.387 . S
C2827 C2829 1.390 . S
C2827 H2831 0.950 . S
H2828 C2824 0.950 . S
C2829 C2827 1.390 . S
C2829 C2830 1.387 . S
C2829 H2832 0.950 . S
C2830 C2829 1.387 . S
C2830 C2833 1.387 . S
H2831 C2827 0.950 . S
H2832 C2829 0.950 . S
C2833 C2824 1.390 . S
C2833 H2826 0.950 . S
C2833 C2830 1.387 . S
C2834 C2835 1.387 . S
C2834 H2838 0.950 . S
C2834 C2843 1.390 . S
C2835 C2834 1.387 . S
C2835 C2837 1.387 . S
H2836 C2843 0.950 . S
C2837 C2835 1.387 . S
C2837 C2839 1.390 . S
C2837 H2841 0.950 . S
H2838 C2834 0.950 . S
C2839 C2837 1.390 . S
C2839 C2840 1.387 . S
C2839 H2842 0.950 . S
C2840 C2839 1.387 . S
C2840 C2843 1.387 . S
H2841 C2837 0.950 . S
H2842 C2839 0.950 . S
C2843 C2834 1.390 . S
C2843 H2836 0.950 . S
C2843 C2840 1.387 . S
C2844 C2845 1.387 . S
C2844 H2848 0.950 . S
C2844 C2853 1.390 . S
C2845 C2844 1.387 . S
C2845 C2847 1.387 . S
H2846 C2853 0.950 . S
C2847 C2845 1.387 . S
C2847 C2849 1.390 . S
C2847 H2851 0.950 . S
H2848 C2844 0.950 . S
C2849 C2847 1.390 . S
C2849 C2850 1.387 . S
C2849 H2852 0.950 . S
C2850 C2849 1.387 . S
C2850 C2853 1.387 . S
H2851 C2847 0.950 . S
H2852 C2849 0.950 . S
C2853 C2844 1.390 . S
C2853 H2846 0.950 . S
C2853 C2850 1.387 . S
C2854 C2855 1.387 . S
C2854 H2858 0.950 . S
C2854 C2863 1.390 . S
C2855 C2854 1.387 . S
C2855 C2857 1.387 . S
H2856 C2863 0.950 . S
C2857 C2855 1.387 . S
C2857 C2859 1.390 . S
C2857 H2861 0.950 . S
H2858 C2854 0.950 . S
C2859 C2857 1.390 . S
C2859 C2860 1.387 . S
C2859 H2862 0.950 . S
C2860 C2859 1.387 . S
C2860 C2863 1.387 . S
H2861 C2857 0.950 . S
H2862 C2859 0.950 . S
C2863 C2854 1.390 . S
C2863 H2856 0.950 . S
C2863 C2860 1.387 . S
C2864 C2865 1.387 . S
C2864 H2868 0.950 . S
C2864 C2873 1.390 . S
C2865 C2864 1.387 . S
C2865 C2867 1.387 . S
H2866 C2873 0.950 . S
C2867 C2865 1.387 . S
C2867 C2869 1.390 . S
C2867 H2871 0.950 . S
H2868 C2864 0.950 . S
C2869 C2867 1.390 . S
C2869 C2870 1.387 . S
C2869 H2872 0.950 . S
C2870 C2869 1.387 . S
C2870 C2873 1.387 . S
H2871 C2867 0.950 . S
H2872 C2869 0.950 . S
C2873 C2864 1.390 . S
C2873 H2866 0.950 . S
C2873 C2870 1.387 . S
C2874 C2875 1.387 . S
C2874 H2878 0.950 . S
C2874 C2883 1.390 . S
C2875 C2874 1.387 . S
C2875 C2877 1.387 . S
H2876 C2883 0.950 . S
C2877 C2875 1.387 . S
C2877 C2879 1.390 . S
C2877 H2881 0.950 . S
H2878 C2874 0.950 . S
C2879 C2877 1.390 . S
C2879 C2880 1.387 . S
C2879 H2882 0.950 . S
C2880 C2879 1.387 . S
C2880 C2883 1.387 . S
H2881 C2877 0.950 . S
H2882 C2879 0.950 . S
C2883 C2874 1.390 . S
C2883 H2876 0.950 . S
C2883 C2880 1.387 . S
C2884 C2885 1.387 . S
C2884 H2888 0.950 . S
C2884 C2893 1.390 . S
C2885 C2884 1.387 . S
C2885 C2887 1.387 . S
H2886 C2893 0.950 . S
C2887 C2885 1.387 . S
C2887 C2889 1.390 . S
C2887 H2891 0.950 . S
H2888 C2884 0.950 . S
C2889 C2887 1.390 . S
C2889 C2890 1.387 . S
C2889 H2892 0.950 . S
C2890 C2889 1.387 . S
C2890 C2893 1.387 . S
H2891 C2887 0.950 . S
H2892 C2889 0.950 . S
C2893 C2884 1.390 . S
C2893 H2886 0.950 . S
C2893 C2890 1.387 . S
C2894 C2895 1.387 . S
C2894 H2898 0.950 . S
C2894 C2903 1.390 . S
C2895 C2894 1.387 . S
C2895 C2897 1.387 . S
H2896 C2903 0.950 . S
C2897 C2895 1.387 . S
C2897 C2899 1.390 . S
C2897 H2901 0.950 . S
H2898 C2894 0.950 . S
C2899 C2897 1.390 . S
C2899 C2900 1.387 . S
C2899 H2902 0.950 . S
C2900 C2899 1.387 . S
C2900 C2903 1.387 . S
H2901 C2897 0.950 . S
H2902 C2899 0.950 . S
C2903 C2894 1.390 . S
C2903 H2896 0.950 . S
C2903 C2900 1.387 . S
C2904 C2905 1.387 . S
C2904 H2908 0.950 . S
C2904 C2913 1.390 . S
C2905 C2904 1.387 . S
C2905 C2907 1.387 . S
H2906 C2913 0.950 . S
C2907 C2905 1.387 . S
C2907 C2909 1.390 . S
C2907 H2911 0.950 . S
H2908 C2904 0.950 . S
C2909 C2907 1.390 . S
C2909 C2910 1.387 . S
C2909 H2912 0.950 . S
C2910 C2909 1.387 . S
C2910 C2913 1.387 . S
H2911 C2907 0.950 . S
H2912 C2909 0.950 . S
C2913 C2904 1.390 . S
C2913 H2906 0.950 . S
C2913 C2910 1.387 . S
C2914 C2915 1.387 . S
C2914 H2918 0.950 . S
C2914 C2923 1.390 . S
C2915 C2914 1.387 . S
C2915 C2917 1.387 . S
H2916 C2923 0.950 . S
C2917 C2915 1.387 . S
C2917 C2919 1.390 . S
C2917 H2921 0.950 . S
H2918 C2914 0.950 . S
C2919 C2917 1.390 . S
C2919 C2920 1.387 . S
C2919 H2922 0.950 . S
C2920 C2919 1.387 . S
C2920 C2923 1.387 . S
H2921 C2917 0.950 . S
H2922 C2919 0.950 . S
C2923 C2914 1.390 . S
C2923 H2916 0.950 . S
C2923 C2920 1.387 . S
C2924 C2925 1.387 . S
C2924 H2928 0.950 . S
C2924 C2933 1.390 . S
C2925 C2924 1.387 . S
C2925 C2927 1.387 . S
H2926 C2933 0.950 . S
C2927 C2925 1.387 . S
C2927 C2929 1.390 . S
C2927 H2931 0.950 . S
H2928 C2924 0.950 . S
C2929 C2927 1.390 . S
C2929 C2930 1.387 . S
C2929 H2932 0.950 . S
C2930 C2929 1.387 . S
C2930 C2933 1.387 . S
H2931 C2927 0.950 . S
H2932 C2929 0.950 . S
C2933 C2924 1.390 . S
C2933 H2926 0.950 . S
C2933 C2930 1.387 . S
C2934 C2935 1.387 . S
C2934 H2938 0.950 . S
C2934 C2943 1.390 . S
C2935 C2934 1.387 . S
C2935 C2937 1.387 . S
H2936 C2943 0.950 . S
C2937 C2935 1.387 . S
C2937 C2939 1.390 . S
C2937 H2941 0.950 . S
H2938 C2934 0.950 . S
C2939 C2937 1.390 . S
C2939 C2940 1.387 . S
C2939 H2942 0.950 . S
C2940 C2939 1.387 . S
C2940 C2943 1.387 . S
H2941 C2937 0.950 . S
H2942 C2939 0.950 . S
C2943 C2934 1.390 . S
C2943 H2936 0.950 . S
C2943 C2940 1.387 . S
C2944 C2945 1.387 . S
C2944 H2948 0.950 . S
C2944 C2953 1.390 . S
C2945 C2944 1.387 . S
C2945 C2947 1.387 . S
H2946 C2953 0.950 . S
C2947 C2945 1.387 . S
C2947 C2949 1.390 . S
C2947 H2951 0.950 . S
H2948 C2944 0.950 . S
C2949 C2947 1.390 . S
C2949 C2950 1.387 . S
C2949 H2952 0.950 . S
C2950 C2949 1.387 . S
C2950 C2953 1.387 . S
H2951 C2947 0.950 . S
H2952 C2949 0.950 . S
C2953 C2944 1.390 . S
C2953 H2946 0.950 . S
C2953 C2950 1.387 . S
C2954 C2955 1.387 . S
C2954 H2958 0.950 . S
C2954 C2963 1.390 . S
C2955 C2954 1.387 . S
C2955 C2957 1.387 . S
H2956 C2963 0.950 . S
C2957 C2955 1.387 . S
C2957 C2959 1.390 . S
C2957 H2961 0.950 . S
H2958 C2954 0.950 . S
C2959 C2957 1.390 . S
C2959 C2960 1.387 . S
C2959 H2962 0.950 . S
C2960 C2959 1.387 . S
C2960 C2963 1.387 . S
H2961 C2957 0.950 . S
H2962 C2959 0.950 . S
C2963 C2954 1.390 . S
C2963 H2956 0.950 . S
C2963 C2960 1.387 . S
C2964 C2965 1.387 . S
C2964 H2968 0.950 . S
C2964 C2973 1.390 . S
C2965 C2964 1.387 . S
C2965 C2967 1.387 . S
H2966 C2973 0.950 . S
C2967 C2965 1.387 . S
C2967 C2969 1.390 . S
C2967 H2971 0.950 . S
H2968 C2964 0.950 . S
C2969 C2967 1.390 . S
C2969 C2970 1.387 . S
C2969 H2972 0.950 . S
C2970 C2969 1.387 . S
C2970 C2973 1.387 . S
H2971 C2967 0.950 . S
H2972 C2969 0.950 . S
C2973 C2964 1.390 . S
C2973 H2966 0.950 . S
C2973 C2970 1.387 . S
C2974 C2975 1.387 . S
C2974 H2978 0.950 . S
C2974 C2983 1.390 . S
C2975 C2974 1.387 . S
C2975 C2977 1.387 . S
H2976 C2983 0.950 . S
C2977 C2975 1.387 . S
C2977 C2979 1.390 . S
C2977 H2981 0.950 . S
H2978 C2974 0.950 . S
C2979 C2977 1.390 . S
C2979 C2980 1.387 . S
C2979 H2982 0.950 . S
C2980 C2979 1.387 . S
C2980 C2983 1.387 . S
H2981 C2977 0.950 . S
H2982 C2979 0.950 . S
C2983 C2974 1.390 . S
C2983 H2976 0.950 . S
C2983 C2980 1.387 . S
C2984 C2985 1.387 . S
C2984 H2988 0.950 . S
C2984 C2993 1.390 . S
C2985 C2984 1.387 . S
C2985 C2987 1.387 . S
H2986 C2993 0.950 . S
C2987 C2985 1.387 . S
C2987 C2989 1.390 . S
C2987 H2991 0.950 . S
H2988 C2984 0.950 . S
C2989 C2987 1.390 . S
C2989 C2990 1.387 . S
C2989 H2992 0.950 . S
C2990 C2989 1.387 . S
C2990 C2993 1.387 . S
H2991 C2987 0.950 . S
H2992 C2989 0.950 . S
C2993 C2984 1.390 . S
C2993 H2986 0.950 . S
C2993 C2990 1.387 . S
C2994 C2995 1.387 . S
C2994 H2998 0.950 . S
C2994 C3003 1.390 . S
C2995 C2994 1.387 . S
C2995 C2997 1.387 . S
H2996 C3003 0.950 . S
C2997 C2995 1.387 . S
C2997 C2999 1.390 . S
C2997 H3001 0.950 . S
H2998 C2994 0.950 . S
C2999 C2997 1.390 . S
C2999 C3000 1.387 . S
C2999 H3002 0.950 . S
C3000 C2999 1.387 . S
C3000 C3003 1.387 . S
H3001 C2997 0.950 . S
H3002 C2999 0.950 . S
C3003 C2994 1.390 . S
C3003 H2996 0.950 . S
C3003 C3000 1.387 . S
C3004 C3005 1.387 . S
C3004 H3008 0.950 . S
C3004 C3013 1.390 . S
C3005 C3004 1.387 . S
C3005 C3007 1.387 . S
H3006 C3013 0.950 . S
C3007 C3005 1.387 . S
C3007 C3009 1.390 . S
C3007 H3011 0.950 . S
H3008 C3004 0.950 . S
C3009 C3007 1.390 . S
C3009 C3010 1.387 . S
C3009 H3012 0.950 . S
C3010 C3009 1.387 . S
C3010 C3013 1.387 . S
H3011 C3007 0.950 . S
H3012 C3009 0.950 . S
C3013 C3004 1.390 . S
C3013 H3006 0.950 . S
C3013 C3010 1.387 . S
C3014 C3015 1.387 . S
C3014 H3018 0.950 . S
C3014 C3023 1.390 . S
C3015 C3014 1.387 . S
C3015 C3017 1.387 . S
H3016 C3023 0.950 . S
C3017 C3015 1.387 . S
C3017 C3019 1.390 . S
C3017 H3021 0.950 . S
H3018 C3014 0.950 . S
C3019 C3017 1.390 . S
C3019 C3020 1.387 . S
C3019 H3022 0.950 . S
C3020 C3019 1.387 . S
C3020 C3023 1.387 . S
H3021 C3017 0.950 . S
H3022 C3019 0.950 . S
C3023 C3014 1.390 . S
C3023 H3016 0.950 . S
C3023 C3020 1.387 . S
C3024 C3025 1.387 . S
C3024 H3028 0.950 . S
C3024 C3033 1.390 . S
C3025 C3024 1.387 . S
C3025 C3027 1.387 . S
H3026 C3033 0.950 . S
C3027 C3025 1.387 . S
C3027 C3029 1.390 . S
C3027 H3031 0.950 . S
H3028 C3024 0.950 . S
C3029 C3027 1.390 . S
C3029 C3030 1.387 . S
C3029 H3032 0.950 . S
C3030 C3029 1.387 . S
C3030 C3033 1.387 . S
H3031 C3027 0.950 . S
H3032 C3029 0.950 . S
C3033 C3024 1.390 . S
C3033 H3026 0.950 . S
C3033 C3030 1.387 . S
C3034 C3035 1.387 . S
C3034 H3038 0.950 . S
C3034 C3043 1.390 . S
C3035 C3034 1.387 . S
C3035 C3037 1.387 . S
H3036 C3043 0.950 . S
C3037 C3035 1.387 . S
C3037 C3039 1.390 . S
C3037 H3041 0.950 . S
H3038 C3034 0.950 . S
C3039 C3037 1.390 . S
C3039 C3040 1.387 . S
C3039 H3042 0.950 . S
C3040 C3039 1.387 . S
C3040 C3043 1.387 . S
H3041 C3037 0.950 . S
H3042 C3039 0.950 . S
C3043 C3034 1.390 . S
C3043 H3036 0.950 . S
C3043 C3040 1.387 . S
C3044 C3045 1.387 . S
C3044 H3048 0.950 . S
C3044 C3053 1.390 . S
C3045 C3044 1.387 . S
C3045 C3047 1.387 . S
H3046 C3053 0.950 . S
C3047 C3045 1.387 . S
C3047 C3049 1.390 . S
C3047 H3051 0.950 . S
H3048 C3044 0.950 . S
C3049 C3047 1.390 . S
C3049 C3050 1.387 . S
C3049 H3052 0.950 . S
C3050 C3049 1.387 . S
C3050 C3053 1.387 . S
H3051 C3047 0.950 . S
H3052 C3049 0.950 . S
C3053 C3044 1.390 . S
C3053 H3046 0.950 . S
C3053 C3050 1.387 . S
C3054 C3055 1.387 . S
C3054 H3058 0.950 . S
C3054 C3063 1.390 . S
C3055 C3054 1.387 . S
C3055 C3057 1.387 . S
H3056 C3063 0.950 . S
C3057 C3055 1.387 . S
C3057 C3059 1.390 . S
C3057 H3061 0.950 . S
H3058 C3054 0.950 . S
C3059 C3057 1.390 . S
C3059 C3060 1.387 . S
C3059 H3062 0.950 . S
C3060 C3059 1.387 . S
C3060 C3063 1.387 . S
H3061 C3057 0.950 . S
H3062 C3059 0.950 . S
C3063 C3054 1.390 . S
C3063 H3056 0.950 . S
C3063 C3060 1.387 . S
C3064 C3065 1.387 . S
C3064 H3068 0.950 . S
C3064 C3073 1.390 . S
C3065 C3064 1.387 . S
C3065 C3067 1.387 . S
H3066 C3073 0.950 . S
C3067 C3065 1.387 . S
C3067 C3069 1.390 . S
C3067 H3071 0.950 . S
H3068 C3064 0.950 . S
C3069 C3067 1.390 . S
C3069 C3070 1.387 . S
C3069 H3072 0.950 . S
C3070 C3069 1.387 . S
C3070 C3073 1.387 . S
H3071 C3067 0.950 . S
H3072 C3069 0.950 . S
C3073 C3064 1.390 . S
C3073 H3066 0.950 . S
C3073 C3070 1.387 . S
C3074 C3075 1.387 . S
C3074 H3078 0.950 . S
C3074 C3083 1.390 . S
C3075 C3074 1.387 . S
C3075 C3077 1.387 . S
H3076 C3083 0.950 . S
C3077 C3075 1.387 . S
C3077 C3079 1.390 . S
C3077 H3081 0.950 . S
H3078 C3074 0.950 . S
C3079 C3077 1.390 . S
C3079 C3080 1.387 . S
C3079 H3082 0.950 . S
C3080 C3079 1.387 . S
C3080 C3083 1.387 . S
H3081 C3077 0.950 . S
H3082 C3079 0.950 . S
C3083 C3074 1.390 . S
C3083 H3076 0.950 . S
C3083 C3080 1.387 . S
C3084 C3085 1.387 . S
C3084 H3088 0.950 . S
C3084 C3093 1.390 . S
C3085 C3084 1.387 . S
C3085 C3087 1.387 . S
H3086 C3093 0.950 . S
C3087 C3085 1.387 . S
C3087 C3089 1.390 . S
C3087 H3091 0.950 . S
H3088 C3084 0.950 . S
C3089 C3087 1.390 . S
C3089 C3090 1.387 . S
C3089 H3092 0.950 . S
C3090 C3089 1.387 . S
C3090 C3093 1.387 . S
H3091 C3087 0.950 . S
H3092 C3089 0.950 . S
C3093 C3084 1.390 . S
C3093 H3086 0.950 . S
C3093 C3090 1.387 . S
C3094 C3095 1.387 . S
C3094 H3098 0.950 . S
C3094 C3103 1.390 . S
C3095 C3094 1.387 . S
C3095 C3097 1.387 . S
H3096 C3103 0.950 . S
C3097 C3095 1.387 . S
C3097 C3099 1.390 . S
C3097 H3101 0.950 . S
H3098 C3094 0.950 . S
C3099 C3097 1.390 . S
C3099 C3100 1.387 . S
C3099 H3102 0.950 . S
C3100 C3099 1.387 . S
C3100 C3103 1.387 . S
H3101 C3097 0.950 . S
H3102 C3099 0.950 . S
C3103 C3094 1.390 . S
C3103 H3096 0.950 . S
C3103 C3100 1.387 . S
C3104 C3105 1.387 . S
C3104 H3108 0.950 . S
C3104 C3113 1.390 . S
C3105 C3104 1.387 . S
C3105 C3107 1.387 . S
H3106 C3113 0.950 . S
C3107 C3105 1.387 . S
C3107 C3109 1.390 . S
C3107 H3111 0.950 . S
H3108 C3104 0.950 . S
C3109 C3107 1.390 . S
C3109 C3110 1.387 . S
C3109 H3112 0.950 . S
C3110 C3109 1.387 . S
C3110 C3113 1.387 . S
H3111 C3107 0.950 . S
H3112 C3109 0.950 . S
C3113 C3104 1.390 . S
C3113 H3106 0.950 . S
C3113 C3110 1.387 . S
C3114 C3115 1.387 . S
C3114 H3118 0.950 . S
C3114 C3123 1.390 . S
C3115 C3114 1.387 . S
C3115 C3117 1.387 . S
H3116 C3123 0.950 . S
C3117 C3115 1.387 . S
C3117 C3119 1.390 . S
C3117 H3121 0.950 . S
H3118 C3114 0.950 . S
C3119 C3117 1.390 . S
C3119 C3120 1.387 . S
C3119 H3122 0.950 . S
C3120 C3119 1.387 . S
C3120 C3123 1.387 . S
H3121 C3117 0.950 . S
H3122 C3119 0.950 . S
C3123 C3114 1.390 . S
C3123 H3116 0.950 . S
C3123 C3120 1.387 . S
C3124 C3125 1.387 . S
C3124 H3128 0.950 . S
C3124 C3133 1.390 . S
C3125 C3124 1.387 . S
C3125 C3127 1.387 . S
H3126 C3133 0.950 . S
C3127 C3125 1.387 . S
C3127 C3129 1.390 . S
C3127 H3131 0.950 . S
H3128 C3124 0.950 . S
C3129 C3127 1.390 . S
C3129 C3130 1.387 . S
C3129 H3132 0.950 . S
C3130 C3129 1.387 . S
C3130 C3133 1.387 . S
H3131 C3127 0.950 . S
H3132 C3129 0.950 . S
C3133 C3124 1.390 . S
C3133 H3126 0.950 . S
C3133 C3130 1.387 . S
C3134 C3135 1.387 . S
C3134 H3138 0.950 . S
C3134 C3143 1.390 . S
C3135 C3134 1.387 . S
C3135 C3137 1.387 . S
H3136 C3143 0.950 . S
C3137 C3135 1.387 . S
C3137 C3139 1.390 . S
C3137 H3141 0.950 . S
H3138 C3134 0.950 . S
C3139 C3137 1.390 . S
C3139 C3140 1.387 . S
C3139 H3142 0.950 . S
C3140 C3139 1.387 . S
C3140 C3143 1.387 . S
H3141 C3137 0.950 . S
H3142 C3139 0.950 . S
C3143 C3134 1.390 . S
C3143 H3136 0.950 . S
C3143 C3140 1.387 . S
C3144 C3145 1.387 . S
C3144 H3148 0.950 . S
C3144 C3153 1.390 . S
C3145 C3144 1.387 . S
C3145 C3147 1.387 . S
H3146 C3153 0.950 . S
C3147 C3145 1.387 . S
C3147 C3149 1.390 . S
C3147 H3151 0.950 . S
H3148 C3144 0.950 . S
C3149 C3147 1.390 . S
C3149 C3150 1.387 . S
C3149 H3152 0.950 . S
C3150 C3149 1.387 . S
C3150 C3153 1.387 . S
H3151 C3147 0.950 . S
H3152 C3149 0.950 . S
C3153 C3144 1.390 . S
C3153 H3146 0.950 . S
C3153 C3150 1.387 . S
C3154 C3155 1.387 . S
C3154 H3158 0.950 . S
C3154 C3163 1.390 . S
C3155 C3154 1.387 . S
C3155 C3157 1.387 . S
H3156 C3163 0.950 . S
C3157 C3155 1.387 . S
C3157 C3159 1.390 . S
C3157 H3161 0.950 . S
H3158 C3154 0.950 . S
C3159 C3157 1.390 . S
C3159 C3160 1.387 . S
C3159 H3162 0.950 . S
C3160 C3159 1.387 . S
C3160 C3163 1.387 . S
H3161 C3157 0.950 . S
H3162 C3159 0.950 . S
C3163 C3154 1.390 . S
C3163 H3156 0.950 . S
C3163 C3160 1.387 . S
C3164 C3165 1.387 . S
C3164 H3168 0.950 . S
C3164 C3173 1.390 . S
C3165 C3164 1.387 . S
C3165 C3167 1.387 . S
H3166 C3173 0.950 . S
C3167 C3165 1.387 . S
C3167 C3169 1.390 . S
C3167 H3171 0.950 . S
H3168 C3164 0.950 . S
C3169 C3167 1.390 . S
C3169 C3170 1.387 . S
C3169 H3172 0.950 . S
C3170 C3169 1.387 . S
C3170 C3173 1.387 . S
H3171 C3167 0.950 . S
H3172 C3169 0.950 . S
C3173 C3164 1.390 . S
C3173 H3166 0.950 . S
C3173 C3170 1.387 . S
C3174 C3175 1.387 . S
C3174 H3178 0.950 . S
C3174 C3183 1.390 . S
C3175 C3174 1.387 . S
C3175 C3177 1.387 . S
H3176 C3183 0.950 . S
C3177 C3175 1.387 . S
C3177 C3179 1.390 . S
C3177 H3181 0.950 . S
H3178 C3174 0.950 . S
C3179 C3177 1.390 . S
C3179 C3180 1.387 . S
C3179 H3182 0.950 . S
C3180 C3179 1.387 . S
C3180 C3183 1.387 . S
H3181 C3177 0.950 . S
H3182 C3179 0.950 . S
C3183 C3174 1.390 . S
C3183 H3176 0.950 . S
C3183 C3180 1.387 . S
C3184 C3185 1.387 . S
C3184 H3188 0.950 . S
C3184 C3193 1.390 . S
C3185 C3184 1.387 . S
C3185 C3187 1.387 . S
H3186 C3193 0.950 . S
C3187 C3185 1.387 . S
C3187 C3189 1.390 . S
C3187 H3191 0.950 . S
H3188 C3184 0.950 . S
C3189 C3187 1.390 . S
C3189 C3190 1.387 . S
C3189 H3192 0.950 . S
C3190 C3189 1.387 . S
C3190 C3193 1.387 . S
H3191 C3187 0.950 . S
H3192 C3189 0.950 . S
C3193 C3184 1.390 . S
C3193 H3186 0.950 . S
C3193 C3190 1.387 . S
C3194 C3195 1.387 . S
C3194 H3198 0.950 . S
C3194 C3203 1.390 . S
C3195 C3194 1.387 . S
C3195 C3197 1.387 . S
H3196 C3203 0.950 . S
C3197 C3195 1.387 . S
C3197 C3199 1.390 . S
C3197 H3201 0.950 . S
H3198 C3194 0.950 . S
C3199 C3197 1.390 . S
C3199 C3200 1.387 . S
C3199 H3202 0.950 . S
C3200 C3199 1.387 . S
C3200 C3203 1.387 . S
H3201 C3197 0.950 . S
H3202 C3199 0.950 . S
C3203 C3194 1.390 . S
C3203 H3196 0.950 . S
C3203 C3200 1.387 . S
C3204 C3205 1.387 . S
C3204 H3208 0.950 . S
C3204 C3213 1.390 . S
C3205 C3204 1.387 . S
C3205 C3207 1.387 . S
H3206 C3213 0.950 . S
C3207 C3205 1.387 . S
C3207 C3209 1.390 . S
C3207 H3211 0.950 . S
H3208 C3204 0.950 . S
C3209 C3207 1.390 . S
C3209 C3210 1.387 . S
C3209 H3212 0.950 . S
C3210 C3209 1.387 . S
C3210 C3213 1.387 . S
H3211 C3207 0.950 . S
H3212 C3209 0.950 . S
C3213 C3204 1.390 . S
C3213 H3206 0.950 . S
C3213 C3210 1.387 . S
C3214 C3215 1.387 . S
C3214 H3218 0.950 . S
C3214 C3223 1.390 . S
C3215 C3214 1.387 . S
C3215 C3217 1.387 . S
H3216 C3223 0.950 . S
C3217 C3215 1.387 . S
C3217 C3219 1.390 . S
C3217 H3221 0.950 . S
H3218 C3214 0.950 . S
C3219 C3217 1.390 . S
C3219 C3220 1.387 . S
C3219 H3222 0.950 . S
C3220 C3219 1.387 . S
C3220 C3223 1.387 . S
H3221 C3217 0.950 . S
H3222 C3219 0.950 . S
C3223 C3214 1.390 . S
C3223 H3216 0.950 . S
C3223 C3220 1.387 . S
C3224 C3225 1.387 . S
C3224 H3228 0.950 . S
C3224 C3233 1.390 . S
C3225 C3224 1.387 . S
C3225 C3227 1.387 . S
H3226 C3233 0.950 . S
C3227 C3225 1.387 . S
C3227 C3229 1.390 . S
C3227 H3231 0.950 . S
H3228 C3224 0.950 . S
C3229 C3227 1.390 . S
C3229 C3230 1.387 . S
C3229 H3232 0.950 . S
C3230 C3229 1.387 . S
C3230 C3233 1.387 . S
H3231 C3227 0.950 . S
H3232 C3229 0.950 . S
C3233 C3224 1.390 . S
C3233 H3226 0.950 . S
C3233 C3230 1.387 . S
C3234 C3235 1.387 . S
C3234 H3238 0.950 . S
C3234 C3243 1.390 . S
C3235 C3234 1.387 . S
C3235 C3237 1.387 . S
H3236 C3243 0.950 . S
C3237 C3235 1.387 . S
C3237 C3239 1.390 . S
C3237 H3241 0.950 . S
H3238 C3234 0.950 . S
C3239 C3237 1.390 . S
C3239 C3240 1.387 . S
C3239 H3242 0.950 . S
C3240 C3239 1.387 . S
C3240 C3243 1.387 . S
H3241 C3237 0.950 . S
H3242 C3239 0.950 . S
C3243 C3234 1.390 . S
C3243 H3236 0.950 . S
C3243 C3240 1.387 . S
C3244 C3245 1.387 . S
C3244 H3248 0.950 . S
C3244 C3253 1.390 . S
C3245 C3244 1.387 . S
C3245 C3247 1.387 . S
H3246 C3253 0.950 . S
C3247 C3245 1.387 . S
C3247 C3249 1.390 . S
C3247 H3251 0.950 . S
H3248 C3244 0.950 . S
C3249 C3247 1.390 . S
C3249 C3250 1.387 . S
C3249 H3252 0.950 . S
C3250 C3249 1.387 . S
C3250 C3253 1.387 . S
H3251 C3247 0.950 . S
H3252 C3249 0.950 . S
C3253 C3244 1.390 . S
C3253 H3246 0.950 . S
C3253 C3250 1.387 . S
C3254 C3255 1.387 . S
C3254 H3258 0.950 . S
C3254 C3263 1.390 . S
C3255 C3254 1.387 . S
C3255 C3257 1.387 . S
H3256 C3263 0.950 . S
C3257 C3255 1.387 . S
C3257 C3259 1.390 . S
C3257 H3261 0.950 . S
H3258 C3254 0.950 . S
C3259 C3257 1.390 . S
C3259 C3260 1.387 . S
C3259 H3262 0.950 . S
C3260 C3259 1.387 . S
C3260 C3263 1.387 . S
H3261 C3257 0.950 . S
H3262 C3259 0.950 . S
C3263 C3254 1.390 . S
C3263 H3256 0.950 . S
C3263 C3260 1.387 . S
C1345 C9 1.627 . S
C1350 C961 1.626 . S
C1355 C919 1.626 . S
C1360 C23 1.627 . S
C1365 C933 1.627 . S
C1370 C37 1.626 . S
C1375 C51 1.626 . S
C1380 C947 1.626 . S
C1385 C1003 1.626 . S
C1390 C65 1.628 . S
C1395 C975 1.627 . S
C1400 C79 1.627 . S
C1405 C989 1.628 . S
C1410 C93 1.626 . S
C1415 C107 1.627 . S
C1420 C905 1.627 . S
C1425 C121 1.627 . S
C1430 C891 1.628 . S
C1435 C135 1.627 . S
C1440 C849 1.626 . S
C1445 C149 1.626 . S
C1450 C863 1.627 . S
C1455 C163 1.626 . S
C1460 C877 1.628 . S
C1465 C177 1.626 . S
C1470 C807 1.627 . S
C1475 C821 1.628 . S
C1480 C191 1.626 . S
C1485 C835 1.627 . S
C1490 C205 1.627 . S
C1495 C219 1.626 . S
C1500 C793 1.628 . S
C1505 C233 1.626 . S
C1510 C779 1.628 . S
C1515 C247 1.626 . S
C1520 C695 1.626 . S
C1525 C709 1.626 . S
C1530 C261 1.628 . S
C1535 C723 1.626 . S
C1540 C275 1.626 . S
C1545 C681 1.627 . S
C1550 C289 1.626 . S
C1555 C303 1.627 . S
C1560 C751 1.626 . S
C1565 C317 1.628 . S
C1570 C765 1.627 . S
C1575 C331 1.626 . S
C1580 C737 1.627 . S
C1585 C345 1.627 . S
C1590 C1297 1.626 . S
C1595 C359 1.627 . S
C1600 C1255 1.626 . S
C1605 C373 1.627 . S
C1610 C1269 1.626 . S
C1615 C387 1.626 . S
C1620 C1283 1.626 . S
C1625 C401 1.626 . S
C1630 C1339 1.628 . S
C1635 C415 1.627 . S
C1640 C1311 1.627 . S
C1645 C1325 1.628 . S
C1650 C429 1.626 . S
C1655 C443 1.628 . S
C1660 C1241 1.626 . S
C1665 C457 1.626 . S
C1670 C1227 1.627 . S
C1675 C1185 1.626 . S
C1680 C471 1.628 . S
C1685 C485 1.628 . S
C1690 C1199 1.626 . S
C1695 C499 1.627 . S
C1700 C1213 1.626 . S
C1705 C513 1.628 . S
C1710 C1143 1.627 . S
C1715 C527 1.628 . S
C1720 C1157 1.626 . S
C1725 C541 1.628 . S
C1730 C1171 1.626 . S
C1735 C1129 1.628 . S
C1740 C555 1.626 . S
C1745 C569 1.627 . S
C1750 C1115 1.627 . S
C1755 C583 1.627 . S
C1760 C1031 1.627 . S
C1765 C597 1.628 . S
C1770 C1045 1.626 . S
C1775 C1059 1.627 . S
C1780 C611 1.627 . S
C1785 C625 1.627 . S
C1790 C1017 1.626 . S
C1795 C1087 1.626 . S
C1800 C639 1.627 . S
C1805 C653 1.628 . S
C1810 C1101 1.626 . S
C1815 C667 1.626 . S
C1820 C1073 1.627 . S
C1825 C7 1.463 . S
C1830 C553 1.463 . S
C1835 C21 1.463 . S
C1840 C511 1.463 . S
C1845 C525 1.463 . S
C1850 C35 1.463 . S
C1855 C49 1.463 . S
C1860 C539 1.463 . S
C1865 C469 1.463 . S
C1870 C63 1.463 . S
C1875 C483 1.463 . S
C1880 C77 1.463 . S
C1885 C497 1.463 . S
C1890 C91 1.463 . S
C1895 C455 1.463 . S
C1900 C105 1.463 . S
C1905 C441 1.463 . S
C1910 C119 1.463 . S
C1915 C133 1.463 . S
C1920 C399 1.463 . S
C1925 C413 1.463 . S
C1930 C147 1.463 . S
C1935 C161 1.463 . S
C1940 C427 1.463 . S
C1945 C357 1.463 . S
C1950 C175 1.463 . S
C1955 C371 1.463 . S
C1960 C189 1.463 . S
C1965 C203 1.463 . S
C1970 C385 1.463 . S
C1975 C217 1.463 . S
C1980 C343 1.463 . S
C1985 C231 1.463 . S
C1990 C623 1.463 . S
C1995 C245 1.463 . S
C2000 C665 1.463 . S
C2005 C637 1.463 . S
C2010 C259 1.463 . S
C2015 C651 1.463 . S
C2020 C273 1.463 . S
C2025 C287 1.463 . S
C2030 C567 1.463 . S
C2035 C301 1.463 . S
C2040 C595 1.463 . S
C2045 C609 1.463 . S
C2050 C315 1.463 . S
C2055 C329 1.463 . S
C2060 C581 1.463 . S
C2065 C1225 1.463 . S
C2070 C679 1.463 . S
C2075 C1183 1.463 . S
C2080 C693 1.463 . S
C2085 C1197 1.463 . S
C2090 C707 1.463 . S
C2095 C721 1.463 . S
C2100 C1211 1.463 . S
C2105 C1141 1.463 . S
C2110 C735 1.463 . S
C2115 C1155 1.463 . S
C2120 C749 1.463 . S
C2125 C763 1.463 . S
C2130 C1169 1.463 . S
C2135 C777 1.463 . S
C2140 C1127 1.463 . S
C2145 C1113 1.463 . S
C2150 C791 1.463 . S
C2155 C805 1.463 . S
C2160 C1071 1.463 . S
C2165 C1085 1.463 . S
C2170 C819 1.463 . S
C2175 C1099 1.463 . S
C2180 C833 1.463 . S
C2185 C847 1.463 . S
C2190 C1029 1.463 . S
C2195 C861 1.463 . S
C2200 C1043 1.463 . S
C2205 C1057 1.463 . S
C2210 C875 1.463 . S
C2215 C889 1.463 . S
C2220 C1015 1.463 . S
C2225 C1295 1.463 . S
C2230 C903 1.463 . S
C2235 C1337 1.463 . S
C2240 C917 1.463 . S
C2245 C931 1.463 . S
C2250 C1309 1.463 . S
C2255 C1323 1.463 . S
C2260 C945 1.463 . S
C2265 C1239 1.463 . S
C2270 C959 1.463 . S
C2275 C1267 1.463 . S
C2280 C973 1.463 . S
C2285 C987 1.463 . S
C2290 C1281 1.463 . S
C2295 C1253 1.463 . S
C2300 C1001 1.463 . S
C2305 C8 1.358 . S
C2310 C400 1.357 . S
C2315 C414 1.357 . S
C2320 C22 1.358 . S
C2325 C36 1.358 . S
C2330 C428 1.357 . S
C2335 C442 1.357 . S
C2340 C50 1.358 . S
C2345 C64 1.357 . S
C2350 C344 1.358 . S
C2355 C78 1.357 . S
C2360 C358 1.358 . S
C2365 C92 1.357 . S
C2370 C372 1.358 . S
C2375 C386 1.358 . S
C2380 C106 1.357 . S
C2385 C540 1.357 . S
C2390 C120 1.358 . S
C2395 C134 1.357 . S
C2400 C554 1.358 . S
C2405 C148 1.358 . S
C2410 C512 1.358 . S
C2415 C162 1.357 . S
C2420 C526 1.358 . S
C2425 C176 1.358 . S
C2430 C484 1.357 . S
C2435 C190 1.358 . S
C2440 C498 1.357 . S
C2445 C204 1.357 . S
C2450 C456 1.358 . S
C2455 C218 1.358 . S
C2460 C470 1.357 . S
C2465 C232 1.357 . S
C2470 C638 1.358 . S
C2475 C246 1.357 . S
C2480 C610 1.358 . S
C2485 C624 1.358 . S
C2490 C260 1.357 . S
C2495 C274 1.357 . S
C2500 C582 1.358 . S
C2505 C596 1.358 . S
C2510 C288 1.357 . S
C2515 C302 1.357 . S
C2520 C568 1.358 . S
C2525 C316 1.358 . S
C2530 C666 1.357 . S
C2535 C652 1.358 . S
C2540 C330 1.357 . S
C2545 C1072 1.357 . S
C2550 C680 1.358 . S
C2555 C694 1.358 . S
C2560 C1086 1.357 . S
C2565 C1100 1.357 . S
C2570 C708 1.358 . S
C2575 C722 1.357 . S
C2580 C1114 1.358 . S
C2585 C1016 1.358 . S
C2590 C736 1.357 . S
C2595 C1030 1.358 . S
C2600 C750 1.357 . S
C2605 C1044 1.358 . S
C2610 C764 1.357 . S
C2615 C778 1.358 . S
C2620 C1058 1.357 . S
C2625 C792 1.358 . S
C2630 C1212 1.357 . S
C2635 C1226 1.358 . S
C2640 C806 1.357 . S
C2645 C1184 1.357 . S
C2650 C820 1.358 . S
C2655 C1198 1.357 . S
C2660 C834 1.358 . S
C2665 C848 1.358 . S
C2670 C1156 1.358 . S
C2675 C862 1.357 . S
C2680 C1170 1.358 . S
C2685 C1128 1.358 . S
C2690 C876 1.358 . S
C2695 C1142 1.358 . S
C2700 C890 1.357 . S
C2705 C1310 1.358 . S
C2710 C904 1.358 . S
C2715 C918 1.358 . S
C2720 C1282 1.357 . S
C2725 C1296 1.357 . S
C2730 C932 1.358 . S
C2735 C946 1.357 . S
C2740 C1254 1.358 . S
C2745 C960 1.357 . S
C2750 C1268 1.358 . S
C2755 C974 1.357 . S
C2760 C1240 1.358 . S
C2765 C1338 1.358 . S
C2770 C988 1.357 . S
C2775 C1002 1.358 . S
C2780 C1324 1.358 . S
C2785 C437 1.376 . S
C2790 C3 1.377 . S
C2795 C395 1.377 . S
C2800 C17 1.376 . S
C2805 C31 1.376 . S
C2810 C409 1.377 . S
C2815 C423 1.377 . S
C2820 C45 1.376 . S
C2825 C353 1.376 . S
C2830 C59 1.377 . S
C2835 C73 1.377 . S
C2840 C367 1.376 . S
C2845 C87 1.377 . S
C2850 C381 1.376 . S
C2855 C339 1.377 . S
C2860 C101 1.376 . S
C2865 C619 1.376 . S
C2870 C115 1.377 . S
C2875 C129 1.377 . S
C2880 C577 1.376 . S
C2885 C143 1.377 . S
C2890 C591 1.376 . S
C2895 C605 1.376 . S
C2900 C157 1.377 . S
C2905 C171 1.377 . S
C2910 C661 1.376 . S
C2915 C633 1.377 . S
C2920 C185 1.376 . S
C2925 C647 1.377 . S
C2930 C199 1.376 . S
C2935 C213 1.377 . S
C2940 C563 1.376 . S
C2945 C227 1.376 . S
C2950 C549 1.377 . S
C2955 C241 1.377 . S
C2960 C465 1.376 . S
C2965 C255 1.376 . S
C2970 C479 1.377 . S
C2975 C493 1.377 . S
C2980 C269 1.376 . S
C2985 C451 1.376 . S
C2990 C283 1.377 . S
C2995 C297 1.376 . S
C3000 C521 1.377 . S
C3005 C311 1.377 . S
C3010 C535 1.376 . S
C3015 C325 1.377 . S
C3020 C507 1.376 . S
C3025 C675 1.377 . S
C3030 C1109 1.376 . S
C3035 C689 1.376 . S
C3040 C1067 1.377 . S
C3045 C703 1.376 . S
C3050 C1081 1.377 . S
C3055 C1095 1.376 . S
C3060 C717 1.377 . S
C3065 C1025 1.377 . S
C3070 C731 1.376 . S
C3075 C1039 1.376 . S
C3080 C745 1.377 . S
C3085 C759 1.376 . S
C3090 C1053 1.377 . S
C3095 C1011 1.377 . S
C3100 C773 1.376 . S
C3105 C1291 1.377 . S
C3110 C787 1.376 . S
C3115 C1249 1.377 . S
C3120 C801 1.376 . S
C3125 C1263 1.377 . S
C3130 C815 1.376 . S
C3135 C1277 1.376 . S
C3140 C829 1.377 . S
C3145 C1333 1.377 . S
C3150 C843 1.376 . S
C3155 C1305 1.376 . S
C3160 C857 1.377 . S
C3165 C1319 1.376 . S
C3170 C871 1.377 . S
C3175 C1235 1.377 . S
C3180 C885 1.376 . S
C3185 C899 1.377 . S
C3190 C1221 1.376 . S
C3195 C1137 1.377 . S
C3200 C913 1.376 . S
C3205 C1151 1.377 . S
C3210 C927 1.376 . S
C3215 C1165 1.377 . S
C3220 C941 1.376 . S
C3225 C1123 1.377 . S
C3230 C955 1.376 . S
C3235 C1193 1.377 . S
C3240 C969 1.376 . S
C3245 C1207 1.376 . S
C3250 C983 1.377 . S
C3255 C1179 1.376 . S
C3260 C997 1.377 . S
