# Generated by pormake.
# Topology qtz-x, (6)-cn, num edge types: 1
# Building blocks:
#     Node 0, Type 0, BuildingBlock: KUMJIN_clean_sbu_0, # of connection points: 6
#     Node 1, Type 0, BuildingBlock: KUMJIN_clean_sbu_0, # of connection points: 6
#     Node 2, Type 0, BuildingBlock: KUMJIN_clean_sbu_0, # of connection points: 6
#     Edge 3, Type (0, 0), BuildingBlock: FUNLAD_clean_linker_1, # of connection points: 2
#     Edge 4, Type (0, 0), BuildingBlock: FUNLAD_clean_linker_1, # of connection points: 2
#     Edge 5, Type (0, 0), BuildingBlock: FUNLAD_clean_linker_1, # of connection points: 2
#     Edge 6, Type (0, 0), BuildingBlock: FUNLAD_clean_linker_1, # of connection points: 2
#     Edge 7, Type (0, 0), BuildingBlock: FUNLAD_clean_linker_1, # of connection points: 2
#     Edge 8, Type (0, 0), BuildingBlock: FUNLAD_clean_linker_1, # of connection points: 2
#     Edge 9, Type (0, 0), BuildingBlock: FUNLAD_clean_linker_1, # of connection points: 2
#     Edge 10, Type (0, 0), BuildingBlock: FUNLAD_clean_linker_1, # of connection points: 2
#     Edge 11, Type (0, 0), BuildingBlock: FUNLAD_clean_linker_1, # of connection points: 2
# Relax obj value: 0.165
# Max RMSD: 0.279
# Mean RMSD: 0.279
data_MOF--net-qtz-x--node1-KUMJIN_clean_sbu_0--edge1-FUNLAD_clean_linker_1
_symmetry_space_group_name_H-M    P1
_symmetry_Int_Tables_number       1
_symmetry_cell_setting            triclinic
loop_
_symmetry_equiv_pos_as_xyz
'x, y, z'
_cell_length_a     15.634987
_cell_length_b     15.682215
_cell_length_c     52.880873
_cell_angle_alpha  89.997061
_cell_angle_beta   89.883018
_cell_angle_gamma 119.98387
loop_
_atom_site_label
_atom_site_type_symbol
_atom_site_fract_x
_atom_site_fract_y
_atom_site_fract_z
_atom_type_partial_charge
Eu0 Eu 0.25606 0.47627 0.20114 0.0
C1 C 0.83578 0.3992 0.1559 0.0
C2 C 0.70597 0.25715 0.1776 0.0
C3 C 0.66588 0.36436 0.15354 0.0
C4 C 0.80627 0.31657 0.17079 0.0
C5 C 0.76594 0.42438 0.14722 0.0
C6 C 0.63606 0.28137 0.16884 0.0
C7 C 0.89776 0.56221 0.12503 0.0
N8 N 0.93213 0.45296 0.1491 0.0
C9 C 0.96354 0.53237 0.13338 0.0
C10 C 0.79837 0.50782 0.13192 0.0
Eu11 Eu 0.03462 0.38752 0.15988 0.0
N12 N 0.87475 0.2921 0.17781 0.0
C13 C 0.84705 0.20798 0.19138 0.0
C14 C 0.67829 0.17333 0.19237 0.0
C15 C 0.74927 0.14879 0.19932 0.0
H16 H 0.03971 0.57331 0.12738 0.0
H17 H 0.72843 0.08326 0.21043 0.0
H18 H 0.55858 0.23584 0.17359 0.0
H19 H 0.92344 0.62611 0.11294 0.0
H20 H 0.89991 0.18598 0.19645 0.0
H21 H 0.51586 0.81058 0.14938 0.0
H22 H 0.60215 0.1262 0.1981 0.0
H23 H 0.2939 0.3038 0.22693 0.0
H24 H 0.35858 0.6946 0.16901 0.0
H25 H 0.42805 0.26465 0.23107 0.0
H26 H 0.6109 0.38145 0.14666 0.0
H27 H 0.65263 0.77481 0.14829 0.0
H28 H 0.72002 0.66731 0.16186 0.0
H29 H 0.74712 0.53001 0.12507 0.0
H30 H 0.69806 0.5226 0.18525 0.0
N31 N 0.40198 0.58937 0.17884 0.0
C32 C 0.41615 0.67606 0.16881 0.0
C33 C 0.5828 0.72228 0.15685 0.0
C34 C 0.56999 0.63604 0.16813 0.0
C35 C 0.50585 0.74276 0.15745 0.0
C36 C 0.47736 0.56971 0.17898 0.0
H37 H 0.58929 0.37114 0.21053 0.0
N38 N 0.37533 0.42528 0.20223 0.0
C39 C 0.43891 0.32651 0.21962 0.0
C40 C 0.4639 0.48577 0.19122 0.0
C41 C 0.36299 0.34836 0.21705 0.0
C42 C 0.52965 0.38656 0.2079 0.0
C43 C 0.54354 0.46789 0.19373 0.0
O44 O 0.32126 0.61061 0.22392 0.0
O45 O 0.09398 0.41719 0.19916 0.0
O46 O 0.05453 0.5265 0.17805 0.0
O47 O 0.2177 0.59599 0.19272 0.0
O48 O 0.1423 0.36828 0.22896 0.0
O49 O 0.29644 0.47345 0.24039 0.0
O50 O 0.03942 0.3794 0.11872 0.0
O51 O 0.19717 0.44446 0.16207 0.0
O52 O 0.21998 0.328 0.18489 0.0
O53 O 0.05325 0.26214 0.17467 0.0
O54 O 0.15045 0.5043 0.13435 0.0
O55 O 0.959 0.2454 0.14054 0.0
C56 C 0.06565 0.36492 0.21883 0.0
C57 C 0.29518 0.58941 0.2682 0.0
C58 C 0.33544 0.65052 0.31145 0.0
C59 C 0.36447 0.63389 0.28766 0.0
C60 C 0.23594 0.62346 0.31538 0.0
C61 C 0.19654 0.56335 0.27234 0.0
C62 C 0.16723 0.58029 0.2959 0.0
C63 C 0.13819 0.60123 0.1866 0.0
C64 C 0.32655 0.56624 0.24426 0.0
C65 C 0.63557 0.53387 0.18302 0.0
C66 C 0.6483 0.61676 0.16987 0.0
C67 C 0.22599 0.50309 0.14364 0.0
C68 C 0.89875 0.24975 0.09933 0.0
C69 C 0.92084 0.28432 0.07428 0.0
C70 C 0.8461 0.25483 0.05598 0.0
C71 C 0.74785 0.18818 0.06317 0.0
C72 C 0.80034 0.18364 0.10604 0.0
C73 C 0.72566 0.15293 0.08799 0.0
C74 C 0.1315 0.25334 0.17924 0.0
C75 C 0.97962 0.28469 0.11799 0.0
H76 H 0.4409 0.65432 0.28439 0.0
H77 H 0.21134 0.63762 0.33322 0.0
H78 H 0.14268 0.5298 0.25742 0.0
H79 H 0.09121 0.56032 0.29916 0.0
H80 H 0.99681 0.33575 0.0691 0.0
H81 H 0.68726 0.16383 0.05005 0.0
H82 H 0.78085 0.15606 0.1252 0.0
H83 H 0.6499 0.1023 0.09333 0.0
Eu84 Eu 0.63386 0.95669 0.53089 0.0
C85 C 0.91707 0.40319 0.49882 0.0
C86 C 0.85755 0.49771 0.52145 0.0
C87 C 0.02758 0.57773 0.50676 0.0
C88 C 0.84186 0.40729 0.51157 0.0
C89 C 0.01047 0.48869 0.49601 0.0
C90 C 0.95116 0.58232 0.51937 0.0
C91 C 0.06006 0.39477 0.46975 0.0
N92 N 0.89729 0.31711 0.48783 0.0
C93 C 0.96574 0.31273 0.47258 0.0
C94 C 0.08276 0.48305 0.48165 0.0
Eu95 Eu 0.73397 0.1832 0.49163 0.0
N96 N 0.75175 0.32459 0.51292 0.0
C97 C 0.67348 0.32828 0.52328 0.0
C98 C 0.7778 0.50128 0.53234 0.0
C99 C 0.68537 0.41612 0.53325 0.0
H100 H 0.94769 0.24498 0.46295 0.0
H101 H 0.62302 0.41815 0.54152 0.0
H102 H 0.9646 0.65216 0.52694 0.0
H103 H 0.11472 0.39024 0.45813 0.0
H104 H 0.60116 0.26384 0.5239 0.0
H105 H 0.7452 0.72477 0.47946 0.0
H106 H 0.78665 0.56938 0.53995 0.0
H107 H 0.41935 0.88961 0.55991 0.0
H108 H 0.76888 0.87513 0.50002 0.0
H109 H 0.24998 0.74639 0.56209 0.0
H110 H 0.09881 0.64409 0.50481 0.0
H111 H 0.57826 0.57878 0.47651 0.0
H112 H 0.39826 0.49769 0.48732 0.0
H113 H 0.15529 0.54708 0.47905 0.0
H114 H 0.26348 0.50344 0.50982 0.0
N115 N 0.61648 0.81706 0.50864 0.0
C116 C 0.69538 0.8128 0.49894 0.0
C117 C 0.58799 0.64516 0.48549 0.0
C118 C 0.5078 0.64863 0.49609 0.0
C119 C 0.68234 0.72726 0.48721 0.0
C120 C 0.52468 0.73657 0.50784 0.0
H121 H 0.20744 0.59569 0.53772 0.0
N122 N 0.4699 0.82252 0.53344 0.0
C123 C 0.30506 0.7436 0.55025 0.0
C124 C 0.44893 0.73951 0.52058 0.0
C125 C 0.40083 0.82443 0.54897 0.0
C126 C 0.28124 0.65882 0.53639 0.0
C127 C 0.35398 0.6552 0.52173 0.0
O128 O 0.61782 0.93999 0.57199 0.0
O129 O 0.70976 0.12111 0.53063 0.0
O130 O 0.86462 0.18599 0.51037 0.0
O131 O 0.79761 0.01986 0.5212 0.0
O132 O 0.59439 0.04923 0.55584 0.0
O133 O 0.71652 0.90307 0.55252 0.0
O134 O 0.74699 0.19506 0.45051 0.0
O135 O 0.65905 0.02005 0.49238 0.0
O136 O 0.50378 0.95421 0.51179 0.0
O137 O 0.5701 0.12046 0.50114 0.0
O138 O 0.76739 0.08843 0.46549 0.0
O139 O 0.65373 0.23963 0.46996 0.0
C140 C 0.66282 0.13428 0.54817 0.0
C141 C 0.63387 0.81007 0.58891 0.0
C142 C 0.60654 0.72767 0.62981 0.0
C143 C 0.64843 0.81441 0.61523 0.0
C144 C 0.55071 0.63628 0.61757 0.0
C145 C 0.57822 0.71821 0.57717 0.0
C146 C 0.5368 0.63193 0.59145 0.0
C147 C 0.87349 0.10921 0.51665 0.0
C148 C 0.67441 0.90149 0.57399 0.0
C149 C 0.3358 0.56895 0.50911 0.0
C150 C 0.41258 0.56566 0.49632 0.0
C151 C 0.7002 0.00406 0.474 0.0
C152 C 0.73604 0.3261 0.43237 0.0
C153 C 0.75268 0.318 0.40653 0.0
C154 C 0.79906 0.40226 0.39105 0.0
C155 C 0.82888 0.49486 0.40175 0.0
C156 C 0.76511 0.41934 0.4426 0.0
C157 C 0.81101 0.5031 0.42729 0.0
C158 C 0.49445 0.03078 0.50554 0.0
C159 C 0.69375 0.23726 0.44845 0.0
H160 H 0.69154 0.88514 0.6244 0.0
H161 H 0.5199 0.56774 0.62796 0.0
H162 H 0.56714 0.713 0.55698 0.0
H163 H 0.49445 0.56132 0.5822 0.0
H164 H 0.73338 0.24666 0.39879 0.0
H165 H 0.86605 0.56091 0.3903 0.0
H166 H 0.75382 0.42779 0.46245 0.0
H167 H 0.83399 0.57484 0.43534 0.0
Eu168 Eu 0.67038 0.5491 0.86182 0.0
C169 C 0.80863 0.24295 0.82988 0.0
C170 C 0.96484 0.30575 0.85159 0.0
C171 C 0.87983 0.13753 0.83628 0.0
C172 C 0.88781 0.31915 0.84213 0.0
C173 C 0.80466 0.1518 0.82638 0.0
C174 C 0.95934 0.21408 0.84904 0.0
C175 C 0.65708 0.09814 0.80155 0.0
N176 N 0.73924 0.26014 0.81968 0.0
C177 C 0.66509 0.19011 0.8052 0.0
C178 C 0.72757 0.07911 0.81208 0.0
Eu179 Eu 0.76696 0.42276 0.82149 0.0
N180 N 0.89336 0.40833 0.84309 0.0
C181 C 0.97606 0.48774 0.85272 0.0
C182 C 0.04714 0.38596 0.86242 0.0
C183 C 0.05269 0.47735 0.86296 0.0
H184 H 0.61293 0.20623 0.79608 0.0
H185 H 0.11675 0.54031 0.87093 0.0
H186 H 0.01771 0.20255 0.8562 0.0
H187 H 0.59797 0.04293 0.79012 0.0
H188 H 0.98396 0.55991 0.8529 0.0
H189 H 0.31255 0.41137 0.81287 0.0
H190 H 0.10754 0.37858 0.86994 0.0
H191 H 0.82317 0.77831 0.88303 0.0
H192 H 0.43942 0.39545 0.83473 0.0
H193 H 0.83864 0.94224 0.8818 0.0
H194 H 0.87838 0.06832 0.83365 0.0
H195 H 0.33159 0.57456 0.80502 0.0
H196 H 0.426 0.75488 0.81211 0.0
H197 H 0.72334 0.0091 0.80854 0.0
H198 H 0.56547 0.89766 0.83174 0.0
N199 N 0.53864 0.55095 0.83897 0.0
C200 C 0.45263 0.46868 0.83171 0.0
C201 C 0.39003 0.56898 0.81449 0.0
C202 C 0.47431 0.65267 0.82322 0.0
C203 C 0.37883 0.47673 0.81899 0.0
C204 C 0.54912 0.64187 0.83534 0.0
H205 H 0.71677 0.967 0.85826 0.0
N206 N 0.69999 0.71256 0.85813 0.0
C207 C 0.78082 0.88206 0.8712 0.0
C208 C 0.63096 0.72427 0.84542 0.0
C209 C 0.77225 0.78916 0.87165 0.0
C210 C 0.7125 0.896 0.85768 0.0
C211 C 0.63642 0.81708 0.84466 0.0
O212 O 0.62326 0.47642 0.89896 0.0
O213 O 0.74367 0.4592 0.86068 0.0
O214 O 0.62967 0.30128 0.84037 0.0
O215 O 0.55648 0.38756 0.85788 0.0
O216 O 0.8063 0.58009 0.88438 0.0
O217 O 0.60388 0.59884 0.89047 0.0
O218 O 0.75687 0.38506 0.78126 0.0
O219 O 0.69341 0.5143 0.82216 0.0
O220 O 0.82121 0.66846 0.8488 0.0
O221 O 0.88095 0.58419 0.82454 0.0
O222 O 0.63109 0.39058 0.79928 0.0
O223 O 0.8928 0.50374 0.7963 0.0
C224 C 0.80828 0.5017 0.87751 0.0
C225 C 0.6422 0.58432 0.93255 0.0
C226 C 0.62227 0.60557 0.97763 0.0
C227 C 0.58285 0.55766 0.95442 0.0
C228 C 0.72132 0.68222 0.9784 0.0
C229 C 0.74108 0.65949 0.93404 0.0
C230 C 0.77977 0.70886 0.95669 0.0
C231 C 0.55519 0.30555 0.85117 0.0
C232 C 0.59957 0.53885 0.90791 0.0
C233 C 0.56291 0.8274 0.83226 0.0
C234 C 0.48297 0.74581 0.82124 0.0
C235 C 0.62691 0.4674 0.80598 0.0
C236 C 0.90572 0.41179 0.76257 0.0
C237 C 0.89663 0.4028 0.73614 0.0
C238 C 0.95078 0.36905 0.72216 0.0
C239 C 0.01534 0.34623 0.73501 0.0
C240 C 0.96977 0.38733 0.77504 0.0
C241 C 0.02427 0.35482 0.76128 0.0
C242 C 0.88951 0.66461 0.83487 0.0
C243 C 0.84927 0.44826 0.77676 0.0
H244 H 0.50591 0.5006 0.9533 0.0
H245 H 0.75348 0.72406 0.99546 0.0
H246 H 0.78818 0.68184 0.91761 0.0
H247 H 0.85534 0.76883 0.95735 0.0
H248 H 0.84924 0.42432 0.72657 0.0
H249 H 0.05828 0.32073 0.7247 0.0
H250 H 0.97873 0.39452 0.79532 0.0
H251 H 0.07383 0.33649 0.77101 0.0
H252 H 0.21995 0.75956 0.19437 0.0
C253 C 0.14851 0.69926 0.18848 0.0
H254 H 0.00463 0.66075 0.17624 0.0
H255 H 0.08949 0.07158 0.22585 0.0
H256 H 0.97758 0.95705 0.2572 0.0
H257 H 0.91899 0.77927 0.25394 0.0
H258 H 0.97297 0.71523 0.21933 0.0
C259 C 0.0777 0.71887 0.18165 0.0
C260 C 0.09994 0.82247 0.18127 0.0
C261 C 0.06499 0.85791 0.20103 0.0
C262 C 0.09652 0.95984 0.20247 0.0
C263 C 0.0649 0.99429 0.22325 0.0
C264 C 0.00135 0.92943 0.24152 0.0
C265 C 0.96858 0.82938 0.23972 0.0
C266 C 0.00016 0.79364 0.21981 0.0
H267 H 0.03901 0.0932 0.17604 0.0
C268 C 0.11429 0.15239 0.17924 0.0
H269 H 0.26166 0.18699 0.18548 0.0
H270 H 0.17313 0.77602 0.13964 0.0
H271 H 0.28362 0.88993 0.10795 0.0
H272 H 0.33879 0.06717 0.11044 0.0
H273 H 0.28378 0.13146 0.14464 0.0
C274 C 0.18508 0.12987 0.18347 0.0
C275 C 0.15995 0.02524 0.18353 0.0
C276 C 0.19426 0.98953 0.16364 0.0
C277 C 0.16342 0.88773 0.16237 0.0
C278 C 0.19624 0.85316 0.14187 0.0
C279 C 0.25911 0.91763 0.12344 0.0
C280 C 0.29006 0.01738 0.12483 0.0
C281 C 0.25796 0.0533 0.14459 0.0
H282 H 0.33741 0.95107 0.51619 0.0
C283 C 0.39413 0.01694 0.50681 0.0
H284 H 0.42919 0.15126 0.48933 0.0
H285 H 0.93277 0.88896 0.50139 0.0
H286 H 0.93797 0.76277 0.47633 0.0
H287 H 0.09689 0.78123 0.46235 0.0
H288 H 0.25133 0.9257 0.47362 0.0
C289 C 0.37234 0.08477 0.49843 0.0
C290 C 0.27535 0.0774 0.50431 0.0
C291 C 0.18517 0.99421 0.49661 0.0
C292 C 0.09336 0.98508 0.50404 0.0
C293 C 0.0047 0.90032 0.49638 0.0
C294 C 0.00649 0.82718 0.48184 0.0
C295 C 0.09592 0.83745 0.47403 0.0
C296 C 0.18427 0.9203 0.48098 0.0
H297 H 0.03076 0.18806 0.50616 0.0
C298 C 0.97359 0.12238 0.51551 0.0
H299 H 0.93742 0.98793 0.53311 0.0
H300 H 0.43415 0.24856 0.52163 0.0
H301 H 0.42887 0.37419 0.54693 0.0
H302 H 0.26989 0.35586 0.5608 0.0
H303 H 0.1154 0.21203 0.54919 0.0
C304 C 0.99465 0.05415 0.524 0.0
C305 C 0.09154 0.06089 0.51834 0.0
C306 C 0.1817 0.14384 0.52614 0.0
C307 C 0.27352 0.15293 0.51874 0.0
C308 C 0.36218 0.23733 0.52657 0.0
C309 C 0.36036 0.31013 0.54125 0.0
C310 C 0.27088 0.29993 0.549 0.0
C311 C 0.18254 0.21746 0.54187 0.0
H312 H 0.03282 0.75528 0.8163 0.0
C313 C 0.98625 0.75341 0.83186 0.0
H314 H 0.98128 0.82289 0.8657 0.0
H315 H 0.45812 0.996 0.85666 0.0
H316 H 0.41675 0.83791 0.87497 0.0
H317 H 0.24304 0.70958 0.8815 0.0
H318 H 0.10925 0.73752 0.86932 0.0
C319 C 0.02385 0.82468 0.84928 0.0
C320 C 0.12801 0.90426 0.84723 0.0
C321 C 0.20491 0.88681 0.85485 0.0
C322 C 0.30503 0.96133 0.85154 0.0
C323 C 0.38071 0.942 0.85896 0.0
C324 C 0.35801 0.85161 0.86946 0.0
C325 C 0.26011 0.77918 0.87306 0.0
C326 C 0.18411 0.79614 0.86592 0.0
H327 H 0.40664 0.21822 0.86722 0.0
C328 C 0.46015 0.21487 0.85468 0.0
H329 H 0.48217 0.12928 0.82733 0.0
H330 H 0.99733 0.95935 0.83034 0.0
H331 H 0.03875 0.113 0.80927 0.0
H332 H 0.2122 0.23976 0.80198 0.0
H333 H 0.34595 0.21495 0.81598 0.0
C334 C 0.43153 0.13479 0.84033 0.0
C335 C 0.32756 0.05344 0.84118 0.0
C336 C 0.25057 0.06935 0.83261 0.0
C337 C 0.1505 0.9951 0.83608 0.0
C338 C 0.07474 0.01303 0.82782 0.0
C339 C 0.09739 0.10089 0.8158 0.0
C340 C 0.19521 0.17251 0.81177 0.0
C341 C 0.27123 0.15748 0.82005 0.0
H342 H 0.47806 0.54833 0.99708 0.0
C343 C 0.55694 0.58026 1.00022 0.0
H344 H 0.66908 0.62734 0.028 0.0
H345 H 0.44302 0.74929 0.1061 0.0
H346 H 0.58132 0.90831 0.09436 0.0
H347 H 0.69555 0.92242 0.06024 0.0
H348 H 0.67238 0.77762 0.03775 0.0
C349 C 0.5911 0.59747 0.02416 0.0
C350 C 0.52601 0.58694 0.04598 0.0
C351 C 0.54144 0.67237 0.05913 0.0
C352 C 0.47573 0.66441 0.07882 0.0
C353 C 0.49139 0.75114 0.0912 0.0
C354 C 0.57028 0.84293 0.08458 0.0
C355 C 0.63459 0.85082 0.06538 0.0
C356 C 0.62047 0.76694 0.05266 0.0
H357 H 0.35785 0.49291 0.13287 0.0
C358 C 0.31068 0.52225 0.12738 0.0
H359 H 0.27588 0.59518 0.09916 0.0
H360 H 0.48449 0.40763 0.02726 0.0
H361 H 0.34609 0.24857 0.039 0.0
H362 H 0.22687 0.23541 0.07157 0.0
H363 H 0.24605 0.38052 0.09286 0.0
C364 C 0.32225 0.56477 0.10459 0.0
C365 C 0.39578 0.57103 0.08568 0.0
C366 C 0.38164 0.48519 0.07295 0.0
C367 C 0.44794 0.49309 0.05338 0.0
C368 C 0.43436 0.40609 0.04161 0.0
C369 C 0.35555 0.31428 0.04827 0.0
C370 C 0.28862 0.30684 0.06667 0.0
C371 C 0.30095 0.39095 0.07887 0.0
H372 H 0.89478 0.45541 0.35724 0.0
C373 C 0.82456 0.39646 0.36429 0.0
H374 H 0.69364 0.26544 0.35524 0.0
H375 H 0.97064 0.49267 0.25115 0.0
H376 H 0.94384 0.62701 0.26126 0.0
H377 H 0.8441 0.61901 0.29831 0.0
H378 H 0.77313 0.47614 0.32596 0.0
C379 C 0.76485 0.32331 0.34849 0.0
C380 C 0.79776 0.31604 0.32233 0.0
C381 C 0.83258 0.39646 0.30521 0.0
C382 C 0.88512 0.39828 0.28294 0.0
C383 C 0.92633 0.48388 0.2676 0.0
C384 C 0.91188 0.5625 0.27327 0.0
C385 C 0.85626 0.55825 0.29421 0.0
C386 C 0.81684 0.47635 0.31005 0.0
H387 H 0.92109 0.35666 0.22572 0.0
C388 C 0.97775 0.3449 0.23401 0.0
H389 H 0.03203 0.31328 0.2669 0.0
H390 H 0.72089 0.14056 0.34803 0.0
H391 H 0.72661 0.99568 0.33495 0.0
H392 H 0.80813 0.99464 0.29502 0.0
H393 H 0.88503 0.13944 0.26801 0.0
C394 C 0.97484 0.32523 0.2589 0.0
C395 C 0.89756 0.31651 0.27713 0.0
C396 C 0.84938 0.23044 0.29231 0.0
C397 C 0.80039 0.23036 0.31505 0.0
C398 C 0.75768 0.14468 0.33038 0.0
C399 C 0.76054 0.06075 0.3231 0.0
C400 C 0.80654 0.06021 0.30065 0.0
C401 C 0.85084 0.1439 0.28541 0.0
H402 H 0.52488 0.46602 0.77751 0.0
C403 C 0.59464 0.51368 0.78689 0.0
H404 H 0.73216 0.64505 0.78388 0.0
H405 H 0.59698 0.52563 0.66502 0.0
H406 H 0.63314 0.395 0.67316 0.0
H407 H 0.67828 0.36902 0.71593 0.0
H408 H 0.68864 0.47423 0.75064 0.0
C409 C 0.65959 0.59875 0.77568 0.0
C410 C 0.64155 0.62108 0.74944 0.0
C411 C 0.64126 0.56221 0.72894 0.0
C412 C 0.61691 0.57825 0.70419 0.0
C413 C 0.61469 0.51669 0.68424 0.0
C414 C 0.63585 0.44165 0.68859 0.0
C415 C 0.66142 0.42713 0.71265 0.0
C416 C 0.66552 0.48722 0.73255 0.0
H417 H 0.69896 0.79106 0.66406 0.0
C418 C 0.62772 0.73302 0.65738 0.0
H419 H 0.49234 0.60822 0.66768 0.0
H420 H 0.64521 0.75256 0.78384 0.0
H421 H 0.61124 0.88528 0.7755 0.0
H422 H 0.57052 0.91419 0.73247 0.0
H423 H 0.56295 0.81027 0.6974 0.0
C424 C 0.56441 0.66581 0.67393 0.0
C425 C 0.59605 0.6551 0.6997 0.0
C426 C 0.60097 0.71695 0.71988 0.0
C427 C 0.62406 0.70002 0.74479 0.0
C428 C 0.62755 0.7621 0.76465 0.0
C429 C 0.60845 0.83854 0.76011 0.0
C430 C 0.58547 0.85479 0.73585 0.0
C431 C 0.5815 0.79481 0.71589 0.0
H432 H 0.7677 0.36719 0.89897 0.0
C433 C 0.8245 0.44398 0.89698 0.0
H434 H 0.95098 0.56371 0.91195 0.0
H435 H 0.83911 0.44639 0.02602 0.0
H436 H 0.88891 0.6189 0.02483 0.0
H437 H 0.94253 0.71222 0.985 0.0
H438 H 0.93939 0.63235 0.9458 0.0
C439 C 0.89539 0.48698 0.91461 0.0
C440 C 0.889 0.43774 0.93949 0.0
C441 C 0.8923 0.48697 0.96242 0.0
C442 C 0.86664 0.43456 0.9858 0.0
C443 C 0.86304 0.48341 1.008 0.0
C444 C 0.89047 0.58248 1.00758 0.0
C445 C 0.91987 0.63478 0.9851 0.0
C446 C 0.91852 0.58764 0.96266 0.0
H447 H 0.95 0.3587 0.02748 0.0
C448 C 0.87405 0.30014 0.03027 0.0
H449 H 0.73583 0.2174 0.0118 0.0
H450 H 0.90375 0.33001 0.90088 0.0
H451 H 0.86752 0.1606 0.9027 0.0
H452 H 0.81887 0.06868 0.94296 0.0
H453 H 0.80752 0.14622 0.98157 0.0
C454 C 0.81114 0.27786 1.01073 0.0
C455 C 0.84258 0.33449 0.98651 0.0
C456 C 0.84653 0.28761 0.96399 0.0
C457 C 0.87149 0.33965 0.94059 0.0
C458 C 0.88037 0.29238 0.91878 0.0
C459 C 0.86094 0.19555 0.91967 0.0
C460 C 0.83374 0.14389 0.94234 0.0
C461 C 0.8271 0.18917 0.96434 0.0
H462 H 0.48679 0.75144 0.32528 0.0
C463 C 0.41135 0.70108 0.33129 0.0
H464 H 0.31811 0.63425 0.36296 0.0
H465 H 0.68985 0.76571 0.43543 0.0
H466 H 0.64567 0.59512 0.42839 0.0
H467 H 0.51804 0.49304 0.39716 0.0
H468 H 0.43488 0.56111 0.37255 0.0
C469 C 0.39093 0.68844 0.35618 0.0
C470 C 0.46703 0.74906 0.37523 0.0
C471 C 0.51272 0.70724 0.38987 0.0
C472 C 0.5846 0.76522 0.40831 0.0
C473 C 0.63241 0.72335 0.42187 0.0
C474 C 0.60827 0.62602 0.41784 0.0
C475 C 0.53654 0.56861 0.40021 0.0
C476 C 0.48928 0.60845 0.38626 0.0
H477 H 0.57188 0.86359 0.46184 0.0
C478 C 0.64618 0.9202 0.45664 0.0
H479 H 0.75036 0.98299 0.42705 0.0
H480 H 0.39164 0.85148 0.35082 0.0
H481 H 0.43802 0.02193 0.35761 0.0
H482 H 0.56229 0.1221 0.38959 0.0
H483 H 0.64231 0.05277 0.41477 0.0
C484 C 0.67832 0.92351 0.43286 0.0
C485 C 0.60833 0.86373 0.41256 0.0
C486 C 0.56405 0.90619 0.39759 0.0
C487 C 0.49287 0.84864 0.37901 0.0
C488 C 0.44766 0.89215 0.36486 0.0
C489 C 0.47321 0.98992 0.36864 0.0
C490 C 0.54328 0.04636 0.38665 0.0
C491 C 0.58841 0.00547 0.40101 0.0
H492 H 0.00553 0.36192 0.68401 0.0
C493 C 0.94319 0.3581 0.6942 0.0
H494 H 0.79629 0.32935 0.69083 0.0
H495 H 0.80691 0.42244 0.57511 0.0
H496 H 0.79568 0.55882 0.59352 0.0
H497 H 0.81262 0.58759 0.63962 0.0
H498 H 0.84137 0.48113 0.66734 0.0
C499 C 0.86058 0.33558 0.68123 0.0
C500 C 0.85389 0.31955 0.65331 0.0
C501 C 0.83813 0.38312 0.63736 0.0
C502 C 0.82718 0.36609 0.61083 0.0
C503 C 0.81283 0.43125 0.59535 0.0
C504 C 0.80718 0.50997 0.6057 0.0
C505 C 0.81693 0.52626 0.63163 0.0
C506 C 0.833 0.4643 0.64735 0.0
H507 H 0.65574 0.21893 0.57998 0.0
C508 C 0.7069 0.21451 0.56681 0.0
H509 H 0.85293 0.24571 0.56122 0.0
H510 H 0.87241 0.17618 0.67848 0.0
H511 H 0.88415 0.04182 0.6597 0.0
H512 H 0.87437 0.01816 0.61348 0.0
H513 H 0.85008 0.12698 0.5859 0.0
C514 C 0.80247 0.25592 0.5733 0.0
C515 C 0.83104 0.28513 0.60021 0.0
C516 C 0.85007 0.22334 0.61603 0.0
C517 C 0.8593 0.23915 0.64265 0.0
C518 C 0.86982 0.17107 0.6581 0.0
C519 C 0.87564 0.09271 0.64758 0.0
C520 C 0.86982 0.07919 0.62158 0.0
C521 C 0.85611 0.1427 0.60593 0.0
loop_
_geom_bond_atom_site_label_1
_geom_bond_atom_site_label_2
_geom_bond_distance
_geom_bond_site_symmetry_2
_ccdc_geom_bond_type
Eu0 N31 2.657 . S
Eu0 N38 2.609 . S
Eu0 O44 2.558 . S
Eu0 O45 2.612 1_455 S
Eu0 O47 2.339 . S
Eu0 O48 2.564 . S
Eu0 O49 2.419 . S
Eu0 O51 2.380 . S
Eu0 O52 2.432 . S
Eu0 C64 2.848 . S
C1 C4 1.429 . S
C1 C5 1.411 . S
C1 N8 1.377 . S
C2 C4 1.420 . S
C2 C6 1.423 . S
C2 C14 1.392 . S
C3 C5 1.420 . S
C3 C6 1.351 . S
C3 H26 0.931 . S
C4 C1 1.429 . S
C4 C2 1.420 . S
C4 N12 1.362 . S
C5 C1 1.411 . S
C5 C3 1.420 . S
C5 C10 1.395 . S
C6 C2 1.423 . S
C6 C3 1.351 . S
C6 H18 0.930 . S
C7 C9 1.400 . S
C7 C10 1.386 . S
C7 H19 0.930 . S
N8 C1 1.377 . S
N8 C9 1.321 . S
N8 Eu11 2.609 . S
C9 C7 1.400 . S
C9 N8 1.321 . S
C9 H16 0.930 . S
C10 C5 1.395 . S
C10 C7 1.386 . S
C10 H29 0.930 . S
Eu11 N8 2.609 . S
Eu11 N12 2.657 . S
Eu11 O45 2.380 . S
Eu11 O46 2.432 . S
Eu11 O50 2.558 . S
Eu11 O51 2.612 1_655 S
Eu11 O53 2.339 . S
Eu11 O54 2.564 1_655 S
Eu11 O55 2.419 . S
Eu11 C75 2.848 . S
N12 C4 1.362 . S
N12 Eu11 2.657 . S
N12 C13 1.334 . S
C13 N12 1.334 . S
C13 C15 1.413 . S
C13 H20 0.929 . S
C14 C2 1.392 . S
C14 C15 1.367 . S
C14 H22 0.930 . S
C15 C13 1.413 . S
C15 C14 1.367 . S
C15 H17 0.930 . S
H16 C9 0.930 . S
H17 C15 0.930 . S
H18 C6 0.930 . S
H19 C7 0.930 . S
H20 C13 0.929 . S
H21 C35 0.930 . S
H22 C14 0.930 . S
H23 C41 0.930 . S
H24 C32 0.929 . S
H25 C39 0.930 . S
H26 C3 0.931 . S
H27 C33 0.930 . S
H28 C66 0.930 . S
H29 C10 0.930 . S
H30 C65 0.931 . S
N31 Eu0 2.657 . S
N31 C32 1.334 . S
N31 C36 1.362 . S
C32 H24 0.929 . S
C32 N31 1.334 . S
C32 C35 1.413 . S
C33 H27 0.930 . S
C33 C34 1.392 . S
C33 C35 1.367 . S
C34 C33 1.392 . S
C34 C36 1.420 . S
C34 C66 1.423 . S
C35 H21 0.930 . S
C35 C32 1.413 . S
C35 C33 1.367 . S
C36 N31 1.362 . S
C36 C34 1.420 . S
C36 C40 1.429 . S
H37 C42 0.930 . S
N38 Eu0 2.609 . S
N38 C40 1.377 . S
N38 C41 1.321 . S
C39 H25 0.930 . S
C39 C41 1.400 . S
C39 C42 1.386 . S
C40 C36 1.429 . S
C40 N38 1.377 . S
C40 C43 1.411 . S
C41 H23 0.930 . S
C41 N38 1.321 . S
C41 C39 1.400 . S
C42 H37 0.930 . S
C42 C39 1.386 . S
C42 C43 1.395 . S
C43 C40 1.411 . S
C43 C42 1.395 . S
C43 C65 1.420 . S
O44 Eu0 2.558 . S
O44 C64 1.257 . S
O45 Eu0 2.612 1_655 S
O45 Eu11 2.380 . S
O45 C56 1.276 . S
O46 Eu11 2.432 . S
O46 C63 1.264 1_655 S
O47 Eu0 2.339 . S
O47 C63 1.254 . S
O48 Eu0 2.564 . S
O48 C56 1.234 1_455 S
O49 Eu0 2.419 . S
O49 C64 1.249 . S
O50 Eu11 2.558 . S
O50 C75 1.257 . S
O51 Eu0 2.380 . S
O51 Eu11 2.612 1_455 S
O51 C67 1.276 . S
O52 Eu0 2.432 . S
O52 C74 1.264 1_455 S
O53 Eu11 2.339 . S
O53 C74 1.254 . S
O54 Eu11 2.564 1_455 S
O54 C67 1.234 . S
O55 Eu11 2.419 . S
O55 C75 1.249 . S
C56 O45 1.276 . S
C56 O48 1.234 1_655 S
C57 C59 1.393 . S
C57 C61 1.395 . S
C57 C64 1.492 . S
C58 C59 1.392 . S
C58 C60 1.386 . S
C59 C57 1.393 . S
C59 C58 1.392 . S
C59 H76 0.930 . S
C60 C58 1.386 . S
C60 C62 1.395 . S
C60 H77 0.930 . S
C61 C57 1.395 . S
C61 C62 1.379 . S
C61 H78 0.930 . S
C62 C60 1.395 . S
C62 C61 1.379 . S
C62 H79 0.930 . S
C63 O46 1.264 1_455 S
C63 O47 1.254 . S
C64 Eu0 2.848 . S
C64 O44 1.257 . S
C64 O49 1.249 . S
C64 C57 1.492 . S
C65 H30 0.931 . S
C65 C43 1.420 . S
C65 C66 1.351 . S
C66 H28 0.930 . S
C66 C34 1.423 . S
C66 C65 1.351 . S
C67 O51 1.276 . S
C67 O54 1.234 . S
C68 C69 1.393 . S
C68 C72 1.395 . S
C68 C75 1.492 . S
C69 C68 1.393 . S
C69 C70 1.392 . S
C69 H80 0.930 . S
C70 C69 1.392 . S
C70 C71 1.386 . S
C71 C70 1.386 . S
C71 C73 1.395 . S
C71 H81 0.930 . S
C72 C68 1.395 . S
C72 C73 1.379 . S
C72 H82 0.930 . S
C73 C71 1.395 . S
C73 C72 1.379 . S
C73 H83 0.930 . S
C74 O52 1.264 1_655 S
C74 O53 1.254 . S
C75 Eu11 2.848 . S
C75 O50 1.257 . S
C75 O55 1.249 . S
C75 C68 1.492 . S
H76 C59 0.930 . S
H77 C60 0.930 . S
H78 C61 0.930 . S
H79 C62 0.930 . S
H80 C69 0.930 . S
H81 C71 0.930 . S
H82 C72 0.930 . S
H83 C73 0.930 . S
Eu84 N115 2.657 1_545 S
Eu84 N122 2.609 1_545 S
Eu84 O128 2.558 1_545 S
Eu84 O129 2.612 . S
Eu84 O131 2.339 . S
Eu84 O132 2.563 . S
Eu84 O133 2.419 1_545 S
Eu84 O135 2.380 . S
Eu84 O136 2.432 . S
Eu84 C148 2.848 1_545 S
C85 C88 1.429 1_455 S
C85 C89 1.411 . S
C85 N92 1.377 . S
C86 C88 1.420 . S
C86 C90 1.423 1_655 S
C86 C98 1.392 . S
C87 C89 1.420 . S
C87 C90 1.351 . S
C87 H110 0.931 . S
C88 C85 1.429 1_655 S
C88 C86 1.420 . S
C88 N96 1.362 . S
C89 C85 1.411 . S
C89 C87 1.420 . S
C89 C94 1.395 . S
C90 C86 1.423 1_455 S
C90 C87 1.351 . S
C90 H102 0.930 . S
C91 C93 1.400 . S
C91 C94 1.386 . S
C91 H103 0.930 . S
N92 C85 1.377 . S
N92 C93 1.321 . S
N92 Eu95 2.609 1_455 S
C93 C91 1.400 . S
C93 N92 1.321 . S
C93 H100 0.930 . S
C94 C89 1.395 . S
C94 C91 1.386 . S
C94 H113 0.930 . S
Eu95 N92 2.609 1_655 S
Eu95 N96 2.657 . S
Eu95 O129 2.380 . S
Eu95 O130 2.432 . S
Eu95 O134 2.558 . S
Eu95 O135 2.612 . S
Eu95 O137 2.339 . S
Eu95 O138 2.563 . S
Eu95 O139 2.419 . S
Eu95 C159 2.848 . S
N96 C88 1.362 . S
N96 Eu95 2.657 . S
N96 C97 1.334 . S
C97 N96 1.334 . S
C97 C99 1.413 . S
C97 H104 0.929 . S
C98 C86 1.392 . S
C98 C99 1.367 . S
C98 H106 0.930 . S
C99 C97 1.413 . S
C99 C98 1.367 . S
C99 H101 0.930 . S
H100 C93 0.930 . S
H101 C99 0.930 . S
H102 C90 0.930 . S
H103 C91 0.930 . S
H104 C97 0.929 . S
H105 C119 0.930 . S
H106 C98 0.930 . S
H107 C125 0.930 . S
H108 C116 0.929 . S
H109 C123 0.930 . S
H110 C87 0.931 . S
H111 C117 0.930 . S
H112 C150 0.930 . S
H113 C94 0.930 . S
H114 C149 0.931 . S
N115 Eu84 2.657 1_565 S
N115 C116 1.334 . S
N115 C120 1.362 . S
C116 H108 0.929 . S
C116 N115 1.334 . S
C116 C119 1.413 . S
C117 H111 0.930 . S
C117 C118 1.392 . S
C117 C119 1.367 . S
C118 C117 1.392 . S
C118 C120 1.420 . S
C118 C150 1.423 . S
C119 H105 0.930 . S
C119 C116 1.413 . S
C119 C117 1.367 . S
C120 N115 1.362 . S
C120 C118 1.420 . S
C120 C124 1.429 . S
H121 C126 0.930 . S
N122 Eu84 2.609 1_565 S
N122 C124 1.377 . S
N122 C125 1.321 . S
C123 H109 0.930 . S
C123 C125 1.400 . S
C123 C126 1.386 . S
C124 C120 1.429 . S
C124 N122 1.377 . S
C124 C127 1.411 . S
C125 H107 0.930 . S
C125 N122 1.321 . S
C125 C123 1.400 . S
C126 H121 0.930 . S
C126 C123 1.386 . S
C126 C127 1.395 . S
C127 C124 1.411 . S
C127 C126 1.395 . S
C127 C149 1.420 . S
O128 Eu84 2.558 1_565 S
O128 C148 1.257 . S
O129 Eu84 2.612 . S
O129 Eu95 2.380 . S
O129 C140 1.276 . S
O130 Eu95 2.432 . S
O130 C147 1.264 . S
O131 Eu84 2.339 . S
O131 C147 1.254 . S
O132 Eu84 2.563 . S
O132 C140 1.235 . S
O133 Eu84 2.419 1_565 S
O133 C148 1.249 . S
O134 Eu95 2.558 . S
O134 C159 1.257 . S
O135 Eu84 2.380 . S
O135 Eu95 2.612 . S
O135 C151 1.276 . S
O136 Eu84 2.432 . S
O136 C158 1.264 . S
O137 Eu95 2.339 . S
O137 C158 1.254 . S
O138 Eu95 2.563 . S
O138 C151 1.235 . S
O139 Eu95 2.419 . S
O139 C159 1.249 . S
C140 O129 1.276 . S
C140 O132 1.235 . S
C141 C143 1.393 . S
C141 C145 1.395 . S
C141 C148 1.492 . S
C142 C143 1.392 . S
C142 C144 1.386 . S
C143 C141 1.393 . S
C143 C142 1.392 . S
C143 H160 0.930 . S
C144 C142 1.386 . S
C144 C146 1.395 . S
C144 H161 0.930 . S
C145 C141 1.395 . S
C145 C146 1.379 . S
C145 H162 0.930 . S
C146 C144 1.395 . S
C146 C145 1.379 . S
C146 H163 0.930 . S
C147 O130 1.264 . S
C147 O131 1.254 . S
C148 Eu84 2.848 1_565 S
C148 O128 1.257 . S
C148 O133 1.249 . S
C148 C141 1.492 . S
C149 H114 0.931 . S
C149 C127 1.420 . S
C149 C150 1.351 . S
C150 H112 0.930 . S
C150 C118 1.423 . S
C150 C149 1.351 . S
C151 O135 1.276 . S
C151 O138 1.235 . S
C152 C153 1.393 . S
C152 C156 1.395 1_655 S
C152 C159 1.492 . S
C153 C152 1.393 . S
C153 C154 1.392 . S
C153 H164 0.930 . S
C154 C153 1.392 . S
C154 C155 1.386 . S
C155 C154 1.386 . S
C155 C157 1.395 1_655 S
C155 H165 0.930 . S
C156 C152 1.395 1_455 S
C156 C157 1.379 . S
C156 H166 0.930 . S
C157 C155 1.395 1_455 S
C157 C156 1.379 . S
C157 H167 0.930 . S
C158 O136 1.264 . S
C158 O137 1.254 . S
C159 Eu95 2.848 . S
C159 O134 1.257 . S
C159 O139 1.249 . S
C159 C152 1.492 . S
H160 C143 0.930 . S
H161 C144 0.930 . S
H162 C145 0.930 . S
H163 C146 0.930 . S
H164 C153 0.930 . S
H165 C155 0.930 . S
H166 C156 0.930 . S
H167 C157 0.930 . S
Eu168 N199 2.657 . S
Eu168 N206 2.609 . S
Eu168 O212 2.558 . S
Eu168 O213 2.612 . S
Eu168 O215 2.339 . S
Eu168 O216 2.563 . S
Eu168 O217 2.419 . S
Eu168 O219 2.380 . S
Eu168 O220 2.432 . S
Eu168 C232 2.848 . S
C169 C172 1.429 . S
C169 C173 1.411 . S
C169 N176 1.377 . S
C170 C172 1.420 1_455 S
C170 C174 1.423 1_455 S
C170 C182 1.392 . S
C171 C173 1.420 . S
C171 C174 1.351 . S
C171 H194 0.931 1_545 S
C172 C169 1.429 . S
C172 C170 1.420 1_655 S
C172 N180 1.362 . S
C173 C169 1.411 . S
C173 C171 1.420 . S
C173 C178 1.395 1_545 S
C174 C170 1.423 1_655 S
C174 C171 1.351 . S
C174 H186 0.930 1_655 S
C175 C177 1.400 1_565 S
C175 C178 1.386 . S
C175 H187 0.930 . S
N176 C169 1.377 . S
N176 C177 1.321 . S
N176 Eu179 2.609 . S
C177 C175 1.400 1_545 S
C177 N176 1.321 . S
C177 H184 0.930 . S
C178 C173 1.395 1_565 S
C178 C175 1.386 . S
C178 H197 0.930 . S
Eu179 N176 2.609 . S
Eu179 N180 2.657 . S
Eu179 O213 2.380 . S
Eu179 O214 2.432 . S
Eu179 O218 2.558 . S
Eu179 O219 2.612 . S
Eu179 O221 2.339 . S
Eu179 O222 2.563 . S
Eu179 O223 2.419 . S
Eu179 C243 2.848 . S
N180 C172 1.362 . S
N180 Eu179 2.657 . S
N180 C181 1.334 1_655 S
C181 N180 1.334 1_455 S
C181 C183 1.413 . S
C181 H188 0.929 . S
C182 C170 1.392 . S
C182 C183 1.367 . S
C182 H190 0.930 . S
C183 C181 1.413 . S
C183 C182 1.367 . S
C183 H185 0.930 . S
H184 C177 0.930 . S
H185 C183 0.930 . S
H186 C174 0.930 1_455 S
H187 C175 0.930 . S
H188 C181 0.929 . S
H189 C203 0.930 . S
H190 C182 0.930 . S
H191 C209 0.930 . S
H192 C200 0.929 . S
H193 C207 0.930 . S
H194 C171 0.931 1_565 S
H195 C201 0.930 . S
H196 C234 0.930 . S
H197 C178 0.930 . S
H198 C233 0.931 . S
N199 Eu168 2.657 . S
N199 C200 1.334 . S
N199 C204 1.362 . S
C200 H192 0.929 . S
C200 N199 1.334 . S
C200 C203 1.413 . S
C201 H195 0.930 . S
C201 C202 1.392 . S
C201 C203 1.367 . S
C202 C201 1.392 . S
C202 C204 1.420 . S
C202 C234 1.423 . S
C203 H189 0.930 . S
C203 C200 1.413 . S
C203 C201 1.367 . S
C204 N199 1.362 . S
C204 C202 1.420 . S
C204 C208 1.429 . S
H205 C210 0.930 . S
N206 Eu168 2.609 . S
N206 C208 1.377 . S
N206 C209 1.321 . S
C207 H193 0.930 . S
C207 C209 1.400 . S
C207 C210 1.386 . S
C208 C204 1.429 . S
C208 N206 1.377 . S
C208 C211 1.411 . S
C209 H191 0.930 . S
C209 N206 1.321 . S
C209 C207 1.400 . S
C210 H205 0.930 . S
C210 C207 1.386 . S
C210 C211 1.395 . S
C211 C208 1.411 . S
C211 C210 1.395 . S
C211 C233 1.420 . S
O212 Eu168 2.558 . S
O212 C232 1.257 . S
O213 Eu168 2.612 . S
O213 Eu179 2.380 . S
O213 C224 1.276 . S
O214 Eu179 2.432 . S
O214 C231 1.264 . S
O215 Eu168 2.339 . S
O215 C231 1.254 . S
O216 Eu168 2.563 . S
O216 C224 1.235 . S
O217 Eu168 2.419 . S
O217 C232 1.249 . S
O218 Eu179 2.558 . S
O218 C243 1.257 . S
O219 Eu168 2.380 . S
O219 Eu179 2.612 . S
O219 C235 1.276 . S
O220 Eu168 2.432 . S
O220 C242 1.264 . S
O221 Eu179 2.339 . S
O221 C242 1.254 . S
O222 Eu179 2.563 . S
O222 C235 1.235 . S
O223 Eu179 2.419 . S
O223 C243 1.249 . S
C224 O213 1.276 . S
C224 O216 1.235 . S
C225 C227 1.393 . S
C225 C229 1.395 . S
C225 C232 1.492 . S
C226 C227 1.392 . S
C226 C228 1.386 . S
C227 C225 1.393 . S
C227 C226 1.392 . S
C227 H244 0.930 . S
C228 C226 1.386 . S
C228 C230 1.395 . S
C228 H245 0.930 . S
C229 C225 1.395 . S
C229 C230 1.379 . S
C229 H246 0.930 . S
C230 C228 1.395 . S
C230 C229 1.379 . S
C230 H247 0.930 . S
C231 O214 1.264 . S
C231 O215 1.254 . S
C232 Eu168 2.848 . S
C232 O212 1.257 . S
C232 O217 1.249 . S
C232 C225 1.492 . S
C233 H198 0.931 . S
C233 C211 1.420 . S
C233 C234 1.351 . S
C234 H196 0.930 . S
C234 C202 1.423 . S
C234 C233 1.351 . S
C235 O219 1.276 . S
C235 O222 1.235 . S
C236 C237 1.393 1_655 S
C236 C240 1.395 . S
C236 C243 1.492 . S
C237 C236 1.393 1_455 S
C237 C238 1.392 . S
C237 H248 0.930 . S
C238 C237 1.392 . S
C238 C239 1.386 . S
C239 C238 1.386 . S
C239 C241 1.395 1_455 S
C239 H249 0.930 . S
C240 C236 1.395 . S
C240 C241 1.379 . S
C240 H250 0.930 . S
C241 C239 1.395 1_655 S
C241 C240 1.379 . S
C241 H251 0.930 . S
C242 O220 1.264 . S
C242 O221 1.254 . S
C243 Eu179 2.848 . S
C243 O218 1.257 . S
C243 O223 1.249 . S
C243 C236 1.492 . S
H244 C227 0.930 . S
H245 C228 0.930 . S
H246 C229 0.930 . S
H247 C230 0.930 . S
H248 C237 0.930 . S
H249 C239 0.930 . S
H250 C240 0.930 . S
H251 C241 0.930 . S
H252 C253 0.951 . S
C253 H252 0.951 . S
C253 C259 1.265 1_455 S
H254 C259 0.950 . S
H255 C263 0.949 . S
H256 C264 0.950 . S
H257 C265 0.951 . S
H258 C266 0.951 . S
C259 C253 1.265 1_655 S
C259 H254 0.950 . S
C259 C260 1.478 . S
C260 C259 1.478 . S
C260 C261 1.397 . S
C260 C277 1.394 1_655 S
C261 C260 1.397 . S
C261 C262 1.438 . S
C261 C266 1.429 . S
C262 C261 1.438 . S
C262 C263 1.428 1_565 S
C262 C275 1.394 1_665 S
C263 H255 0.949 . S
C263 C262 1.428 1_545 S
C263 C264 1.345 1_545 S
C264 H256 0.950 . S
C264 C263 1.345 1_565 S
C264 C265 1.424 . S
C265 H257 0.951 . S
C265 C264 1.424 . S
C265 C266 1.347 . S
C266 H258 0.951 . S
C266 C261 1.429 . S
C266 C265 1.347 . S
H267 C268 0.951 . S
C268 H267 0.951 . S
C268 C274 1.265 1_655 S
H269 C274 0.950 . S
H270 C278 0.949 . S
H271 C279 0.950 . S
H272 C280 0.951 . S
H273 C281 0.951 1_545 S
C274 C268 1.265 1_455 S
C274 H269 0.950 . S
C274 C275 1.478 . S
C275 C262 1.394 1_445 S
C275 C274 1.478 . S
C275 C276 1.397 1_545 S
C276 C275 1.397 1_565 S
C276 C277 1.438 . S
C276 C281 1.429 . S
C277 C260 1.394 1_455 S
C277 C276 1.438 . S
C277 C278 1.428 . S
C278 H270 0.949 . S
C278 C277 1.428 . S
C278 C279 1.345 . S
C279 H271 0.950 . S
C279 C278 1.345 . S
C279 C280 1.424 . S
C280 H272 0.951 . S
C280 C279 1.424 . S
C280 C281 1.347 . S
C281 H273 0.951 1_565 S
C281 C276 1.429 . S
C281 C280 1.347 . S
H282 C283 0.951 . S
C283 H282 0.951 . S
C283 C289 1.265 . S
H284 C289 0.950 . S
H285 C293 0.949 . S
H286 C294 0.950 . S
H287 C295 0.951 . S
H288 C296 0.946 1_565 S
C289 C283 1.265 . S
C289 H284 0.950 . S
C289 C290 1.478 . S
C290 C289 1.478 . S
C290 C291 1.397 . S
C290 C307 1.394 . S
C291 C290 1.397 . S
C291 C292 1.438 . S
C291 C296 1.438 . S
C292 C291 1.438 . S
C292 C293 1.428 . S
C292 C305 1.394 . S
C293 H285 0.949 . S
C293 C292 1.428 . S
C293 C294 1.345 1_545 S
C294 H286 0.950 . S
C294 C293 1.345 1_565 S
C294 C295 1.424 . S
C295 H287 0.951 . S
C295 C294 1.424 . S
C295 C296 1.343 1_565 S
C296 H288 0.946 1_545 S
C296 C291 1.438 . S
C296 C295 1.343 1_545 S
H297 C298 0.951 . S
C298 H297 0.951 . S
C298 C304 1.265 . S
H299 C304 0.950 . S
H300 C308 0.949 . S
H301 C309 0.950 . S
H302 C310 0.951 . S
H303 C311 0.951 . S
C304 C298 1.265 . S
C304 H299 0.950 . S
C304 C305 1.478 . S
C305 C292 1.394 . S
C305 C304 1.478 . S
C305 C306 1.397 . S
C306 C305 1.397 . S
C306 C307 1.438 . S
C306 C311 1.429 . S
C307 C290 1.394 . S
C307 C306 1.438 . S
C307 C308 1.428 . S
C308 H300 0.949 . S
C308 C307 1.428 . S
C308 C309 1.345 . S
C309 H301 0.950 . S
C309 C308 1.345 . S
C309 C310 1.424 . S
C310 H302 0.951 . S
C310 C309 1.424 . S
C310 C311 1.347 . S
C311 H303 0.951 . S
C311 C306 1.429 . S
C311 C310 1.347 . S
H312 C313 0.951 . S
C313 H312 0.951 . S
C313 C319 1.265 . S
H314 C319 0.950 . S
H315 C323 0.949 . S
H316 C324 0.950 . S
H317 C325 0.951 . S
H318 C326 0.951 . S
C319 C313 1.265 . S
C319 H314 0.950 . S
C319 C320 1.478 . S
C320 C319 1.478 . S
C320 C321 1.397 . S
C320 C337 1.394 . S
C321 C320 1.397 . S
C321 C322 1.438 . S
C321 C326 1.429 . S
C322 C321 1.438 . S
C322 C323 1.428 . S
C322 C335 1.394 1_565 S
C323 H315 0.949 . S
C323 C322 1.428 . S
C323 C324 1.345 . S
C324 H316 0.950 . S
C324 C323 1.345 . S
C324 C325 1.424 . S
C325 H317 0.951 . S
C325 C324 1.424 . S
C325 C326 1.347 . S
C326 H318 0.951 . S
C326 C321 1.429 . S
C326 C325 1.347 . S
H327 C328 0.951 . S
C328 H327 0.951 . S
C328 C334 1.265 . S
H329 C334 0.950 . S
H330 C338 0.949 . S
H331 C339 0.950 . S
H332 C340 0.951 . S
H333 C341 0.951 . S
C334 C328 1.265 . S
C334 H329 0.950 . S
C334 C335 1.478 . S
C335 C322 1.394 1_545 S
C335 C334 1.478 . S
C335 C336 1.397 1_545 S
C336 C335 1.397 1_565 S
C336 C337 1.438 . S
C336 C341 1.429 1_565 S
C337 C320 1.394 . S
C337 C336 1.438 . S
C337 C338 1.428 . S
C338 H330 0.949 . S
C338 C337 1.428 . S
C338 C339 1.345 . S
C339 H331 0.950 . S
C339 C338 1.345 . S
C339 C340 1.424 1_565 S
C340 H332 0.951 . S
C340 C339 1.424 1_545 S
C340 C341 1.347 . S
C341 H333 0.951 . S
C341 C336 1.429 1_545 S
C341 C340 1.347 . S
H342 C343 0.951 . S
C343 H342 0.951 . S
C343 C349 1.265 1_556 S
H344 C349 0.950 . S
H345 C353 0.949 . S
H346 C354 0.950 . S
H347 C355 0.951 . S
H348 C356 0.951 . S
C349 C343 1.265 1_554 S
C349 H344 0.950 . S
C349 C350 1.478 . S
C350 C349 1.478 . S
C350 C351 1.397 . S
C350 C367 1.394 . S
C351 C350 1.397 . S
C351 C352 1.438 . S
C351 C356 1.429 . S
C352 C351 1.438 . S
C352 C353 1.428 . S
C352 C365 1.394 . S
C353 H345 0.949 . S
C353 C352 1.428 . S
C353 C354 1.345 . S
C354 H346 0.950 . S
C354 C353 1.345 . S
C354 C355 1.424 . S
C355 H347 0.951 . S
C355 C354 1.424 . S
C355 C356 1.347 . S
C356 H348 0.951 . S
C356 C351 1.429 . S
C356 C355 1.347 . S
H357 C358 0.951 . S
C358 H357 0.951 . S
C358 C364 1.265 . S
H359 C364 0.950 . S
H360 C368 0.949 1_556 S
H361 C369 0.950 . S
H362 C370 0.951 . S
H363 C371 0.951 . S
C364 C358 1.265 . S
C364 H359 0.950 . S
C364 C365 1.478 . S
C365 C352 1.394 . S
C365 C364 1.478 . S
C365 C366 1.397 . S
C366 C365 1.397 . S
C366 C367 1.438 . S
C366 C371 1.429 . S
C367 C350 1.394 . S
C367 C366 1.438 . S
C367 C368 1.428 . S
C368 H360 0.949 1_554 S
C368 C367 1.428 . S
C368 C369 1.345 . S
C369 H361 0.950 . S
C369 C368 1.345 . S
C369 C370 1.424 . S
C370 H362 0.951 . S
C370 C369 1.424 . S
C370 C371 1.347 . S
C371 H363 0.951 . S
C371 C366 1.429 . S
C371 C370 1.347 . S
H372 C373 0.951 . S
C373 H372 0.951 . S
C373 C379 1.265 . S
H374 C379 0.950 . S
H375 C383 0.949 . S
H376 C384 0.950 . S
H377 C385 0.951 . S
H378 C386 0.951 . S
C379 C373 1.265 . S
C379 H374 0.950 . S
C379 C380 1.478 . S
C380 C379 1.478 . S
C380 C381 1.397 . S
C380 C397 1.394 . S
C381 C380 1.397 . S
C381 C382 1.438 . S
C381 C386 1.429 . S
C382 C381 1.438 . S
C382 C383 1.428 . S
C382 C395 1.394 . S
C383 H375 0.949 . S
C383 C382 1.428 . S
C383 C384 1.345 . S
C384 H376 0.950 . S
C384 C383 1.345 . S
C384 C385 1.424 . S
C385 H377 0.951 . S
C385 C384 1.424 . S
C385 C386 1.347 . S
C386 H378 0.951 . S
C386 C381 1.429 . S
C386 C385 1.347 . S
H387 C388 0.951 . S
C388 H387 0.951 . S
C388 C394 1.265 . S
H389 C394 0.950 . S
H390 C398 0.949 . S
H391 C399 0.950 . S
H392 C400 0.951 . S
H393 C401 0.951 . S
C394 C388 1.265 . S
C394 H389 0.950 . S
C394 C395 1.478 . S
C395 C382 1.394 . S
C395 C394 1.478 . S
C395 C396 1.397 . S
C396 C395 1.397 . S
C396 C397 1.438 . S
C396 C401 1.429 . S
C397 C380 1.394 . S
C397 C396 1.438 . S
C397 C398 1.428 . S
C398 H390 0.949 . S
C398 C397 1.428 . S
C398 C399 1.345 . S
C399 H391 0.950 . S
C399 C398 1.345 . S
C399 C400 1.424 . S
C400 H392 0.951 . S
C400 C399 1.424 . S
C400 C401 1.347 . S
C401 H393 0.951 . S
C401 C396 1.429 . S
C401 C400 1.347 . S
H402 C403 0.951 . S
C403 H402 0.951 . S
C403 C409 1.265 . S
H404 C409 0.950 . S
H405 C413 0.949 . S
H406 C414 0.950 . S
H407 C415 0.951 . S
H408 C416 0.951 . S
C409 C403 1.265 . S
C409 H404 0.950 . S
C409 C410 1.478 . S
C410 C409 1.478 . S
C410 C411 1.397 . S
C410 C427 1.394 . S
C411 C410 1.397 . S
C411 C412 1.438 . S
C411 C416 1.429 . S
C412 C411 1.438 . S
C412 C413 1.428 . S
C412 C425 1.394 . S
C413 H405 0.949 . S
C413 C412 1.428 . S
C413 C414 1.345 . S
C414 H406 0.950 . S
C414 C413 1.345 . S
C414 C415 1.424 . S
C415 H407 0.951 . S
C415 C414 1.424 . S
C415 C416 1.347 . S
C416 H408 0.951 . S
C416 C411 1.429 . S
C416 C415 1.347 . S
H417 C418 0.951 . S
C418 H417 0.951 . S
C418 C424 1.265 . S
H419 C424 0.950 . S
H420 C428 0.949 . S
H421 C429 0.950 . S
H422 C430 0.951 . S
H423 C431 0.951 . S
C424 C418 1.265 . S
C424 H419 0.950 . S
C424 C425 1.478 . S
C425 C412 1.394 . S
C425 C424 1.478 . S
C425 C426 1.397 . S
C426 C425 1.397 . S
C426 C427 1.438 . S
C426 C431 1.429 . S
C427 C410 1.394 . S
C427 C426 1.438 . S
C427 C428 1.428 . S
C428 H420 0.949 . S
C428 C427 1.428 . S
C428 C429 1.345 . S
C429 H421 0.950 . S
C429 C428 1.345 . S
C429 C430 1.424 . S
C430 H422 0.951 . S
C430 C429 1.424 . S
C430 C431 1.347 . S
C431 H423 0.951 . S
C431 C426 1.429 . S
C431 C430 1.347 . S
H432 C433 0.951 . S
C433 H432 0.951 . S
C433 C439 1.265 . S
H434 C439 0.950 . S
H435 C443 0.949 . S
H436 C444 0.950 1_554 S
H437 C445 0.951 1_455 S
H438 C446 0.951 . S
C439 C433 1.265 . S
C439 H434 0.950 . S
C439 C440 1.478 . S
C440 C439 1.478 . S
C440 C441 1.397 . S
C440 C457 1.394 . S
C441 C440 1.397 . S
C441 C442 1.438 . S
C441 C446 1.429 . S
C442 C441 1.438 . S
C442 C443 1.428 1_556 S
C442 C455 1.394 . S
C443 H435 0.949 . S
C443 C442 1.428 1_554 S
C443 C444 1.345 1_554 S
C444 H436 0.950 1_556 S
C444 C443 1.345 1_556 S
C444 C445 1.424 . S
C445 H437 0.951 1_655 S
C445 C444 1.424 . S
C445 C446 1.347 . S
C446 H438 0.951 . S
C446 C441 1.429 . S
C446 C445 1.347 . S
H447 C448 0.951 . S
C448 H447 0.951 . S
C448 C454 1.265 . S
H449 C454 0.950 . S
H450 C458 0.949 . S
H451 C459 0.950 1_565 S
H452 C460 0.951 . S
H453 C461 0.951 . S
C454 C448 1.265 . S
C454 H449 0.950 . S
C454 C455 1.478 1_554 S
C455 C442 1.394 . S
C455 C454 1.478 1_556 S
C455 C456 1.397 . S
C456 C455 1.397 . S
C456 C457 1.438 . S
C456 C461 1.429 . S
C457 C440 1.394 . S
C457 C456 1.438 . S
C457 C458 1.428 . S
C458 H450 0.949 . S
C458 C457 1.428 . S
C458 C459 1.345 . S
C459 H451 0.950 1_545 S
C459 C458 1.345 . S
C459 C460 1.424 1_545 S
C460 H452 0.951 . S
C460 C459 1.424 1_565 S
C460 C461 1.347 1_565 S
C461 H453 0.951 . S
C461 C456 1.429 . S
C461 C460 1.347 1_545 S
H462 C463 0.951 . S
C463 H462 0.951 . S
C463 C469 1.265 . S
H464 C469 0.950 . S
H465 C473 0.949 . S
H466 C474 0.950 . S
H467 C475 0.951 . S
H468 C476 0.951 . S
C469 C463 1.265 . S
C469 H464 0.950 . S
C469 C470 1.478 . S
C470 C469 1.478 . S
C470 C471 1.397 . S
C470 C487 1.394 . S
C471 C470 1.397 . S
C471 C472 1.438 . S
C471 C476 1.429 . S
C472 C471 1.438 . S
C472 C473 1.428 . S
C472 C485 1.394 . S
C473 H465 0.949 . S
C473 C472 1.428 . S
C473 C474 1.345 . S
C474 H466 0.950 . S
C474 C473 1.345 . S
C474 C475 1.424 . S
C475 H467 0.951 . S
C475 C474 1.424 . S
C475 C476 1.347 . S
C476 H468 0.951 . S
C476 C471 1.429 . S
C476 C475 1.347 . S
H477 C478 0.951 1_565 S
C478 H477 0.951 1_545 S
C478 C484 1.265 . S
H479 C484 0.950 . S
H480 C488 0.949 . S
H481 C489 0.950 . S
H482 C490 0.951 . S
H483 C491 0.951 . S
C484 C478 1.265 . S
C484 H479 0.950 . S
C484 C485 1.478 1_545 S
C485 C472 1.394 . S
C485 C484 1.478 1_565 S
C485 C486 1.397 . S
C486 C485 1.397 . S
C486 C487 1.438 . S
C486 C491 1.429 1_565 S
C487 C470 1.394 . S
C487 C486 1.438 . S
C487 C488 1.428 . S
C488 H480 0.949 . S
C488 C487 1.428 . S
C488 C489 1.345 1_565 S
C489 H481 0.950 . S
C489 C488 1.345 1_545 S
C489 C490 1.424 . S
C490 H482 0.951 . S
C490 C489 1.424 . S
C490 C491 1.347 . S
C491 H483 0.951 . S
C491 C486 1.429 1_545 S
C491 C490 1.347 . S
H492 C493 0.951 . S
C493 H492 0.951 . S
C493 C499 1.265 . S
H494 C499 0.950 1_655 S
H495 C503 0.949 . S
H496 C504 0.950 . S
H497 C505 0.951 . S
H498 C506 0.951 . S
C499 C493 1.265 . S
C499 H494 0.950 1_455 S
C499 C500 1.478 1_455 S
C500 C499 1.478 1_655 S
C500 C501 1.397 . S
C500 C517 1.394 . S
C501 C500 1.397 . S
C501 C502 1.438 . S
C501 C506 1.429 . S
C502 C501 1.438 . S
C502 C503 1.428 . S
C502 C515 1.394 . S
C503 H495 0.949 . S
C503 C502 1.428 . S
C503 C504 1.345 . S
C504 H496 0.950 . S
C504 C503 1.345 . S
C504 C505 1.424 . S
C505 H497 0.951 . S
C505 C504 1.424 . S
C505 C506 1.347 . S
C506 H498 0.951 . S
C506 C501 1.429 . S
C506 C505 1.347 . S
H507 C508 0.951 . S
C508 H507 0.951 . S
C508 C514 1.265 . S
H509 C514 0.950 . S
H510 C518 0.949 1_455 S
H511 C519 0.950 1_455 S
H512 C520 0.951 . S
H513 C521 0.951 . S
C514 C508 1.265 . S
C514 H509 0.950 . S
C514 C515 1.478 . S
C515 C502 1.394 . S
C515 C514 1.478 . S
C515 C516 1.397 . S
C516 C515 1.397 . S
C516 C517 1.438 . S
C516 C521 1.429 . S
C517 C500 1.394 . S
C517 C516 1.438 . S
C517 C518 1.428 . S
C518 H510 0.949 1_655 S
C518 C517 1.428 . S
C518 C519 1.345 . S
C519 H511 0.950 1_655 S
C519 C518 1.345 . S
C519 C520 1.424 . S
C520 H512 0.951 . S
C520 C519 1.424 . S
C520 C521 1.347 . S
C521 H513 0.951 . S
C521 C516 1.429 . S
C521 C520 1.347 . S
C253 C63 1.407 . S
C268 C74 1.407 . S
C283 C158 1.359 . S
C298 C147 1.359 1_455 S
C313 C242 1.475 1_455 S
C328 C231 1.475 . S
C343 C226 1.788 . S
C358 C67 1.971 . S
C373 C154 0.938 . S
C388 C56 1.254 . S
C403 C235 1.965 . S
C418 C142 1.840 . S
C433 C224 1.109 . S
C448 C70 1.127 . S
C463 C58 1.767 . S
C478 C151 1.965 . S
C493 C238 1.123 . S
C508 C140 1.152 . S
