# Generated by pormake.
# Topology etd, (3)-cn, num edge types: 1
# Building blocks:
#     Node 0, Type 0, BuildingBlock: WUSLED_clean_sbu_0, # of connection points: 3
#     Node 1, Type 0, BuildingBlock: WUSLED_clean_sbu_0, # of connection points: 3
#     Node 2, Type 0, BuildingBlock: WUSLED_clean_sbu_0, # of connection points: 3
#     Node 3, Type 0, BuildingBlock: WUSLED_clean_sbu_0, # of connection points: 3
#     Node 4, Type 0, BuildingBlock: WUSLED_clean_sbu_0, # of connection points: 3
#     Node 5, Type 0, BuildingBlock: WUSLED_clean_sbu_0, # of connection points: 3
#     Node 6, Type 0, BuildingBlock: WUSLED_clean_sbu_0, # of connection points: 3
#     Node 7, Type 0, BuildingBlock: WUSLED_clean_sbu_0, # of connection points: 3
#     Node 8, Type 0, BuildingBlock: WUSLED_clean_sbu_0, # of connection points: 3
#     Node 9, Type 0, BuildingBlock: WUSLED_clean_sbu_0, # of connection points: 3
#     Node 10, Type 0, BuildingBlock: WUSLED_clean_sbu_0, # of connection points: 3
#     Node 11, Type 0, BuildingBlock: WUSLED_clean_sbu_0, # of connection points: 3
#     Edge 12, Type (0, 0), None
#     Edge 13, Type (0, 0), None
#     Edge 14, Type (0, 0), None
#     Edge 15, Type (0, 0), None
#     Edge 16, Type (0, 0), None
#     Edge 17, Type (0, 0), None
#     Edge 18, Type (0, 0), None
#     Edge 19, Type (0, 0), None
#     Edge 20, Type (0, 0), None
#     Edge 21, Type (0, 0), None
#     Edge 22, Type (0, 0), None
#     Edge 23, Type (0, 0), None
#     Edge 24, Type (0, 0), None
#     Edge 25, Type (0, 0), None
#     Edge 26, Type (0, 0), None
#     Edge 27, Type (0, 0), None
#     Edge 28, Type (0, 0), None
#     Edge 29, Type (0, 0), None
# Relax obj value: 0.000
# Max RMSD: 0.000
# Mean RMSD: 0.000
data_MOF--net-etd--node1-WUSLED_clean_sbu_0--edge1-none
_symmetry_space_group_name_H-M    P1
_symmetry_Int_Tables_number       1
_symmetry_cell_setting            triclinic
loop_
_symmetry_equiv_pos_as_xyz
'x, y, z'
_cell_length_a     56.434996
_cell_length_b     56.433915
_cell_length_c     41.238732
_cell_angle_alpha  89.999959
_cell_angle_beta   89.999943
_cell_angle_gamma 120.0013
loop_
_atom_site_label
_atom_site_type_symbol
_atom_site_fract_x
_atom_site_fract_y
_atom_site_fract_z
_atom_type_partial_charge
C0 C 0.52787 0.21174 0.10676 0.0
C1 C 0.53689 0.22728 0.13534 0.0
C2 C 0.52863 0.26213 0.11161 0.0
C3 C 0.5372 0.25219 0.13778 0.0
C4 C 0.51984 0.24653 0.08294 0.0
C5 C 0.51944 0.22157 0.08058 0.0
U6 U 0.54738 0.16044 0.13862 0.0
O7 O 0.52369 0.11537 0.14106 0.0
O8 O 0.56185 0.13586 0.11309 0.0
C9 C 0.54019 0.11248 0.12104 0.0
C10 C 0.52732 0.18542 0.10395 0.0
C11 C 0.52701 0.09256 0.09447 0.0
C12 C 0.51148 0.08146 0.03856 0.0
C13 C 0.52248 0.10053 0.0639 0.0
C14 C 0.50865 0.0461 0.07431 0.0
C15 C 0.50467 0.05403 0.04335 0.0
C16 C 0.51973 0.06517 0.09954 0.0
C17 C 0.59118 0.18229 0.21752 0.0
C18 C 0.60963 0.1574 0.24633 0.0
C19 C 0.6217 0.20317 0.2633 0.0
C20 C 0.60529 0.20434 0.23877 0.0
C21 C 0.62441 0.17988 0.26716 0.0
C22 C 0.5932 0.15864 0.22153 0.0
C23 C 0.57541 0.18529 0.19101 0.0
O24 O 0.55101 0.18723 0.09778 0.0
O25 O 0.51326 0.16721 0.12642 0.0
O26 O 0.54882 0.16851 0.19108 0.0
O27 O 0.58634 0.18935 0.16197 0.0
H28 H 0.54369 0.22012 0.15576 0.0
H29 H 0.54444 0.26382 0.16005 0.0
H30 H 0.51282 0.25338 0.06245 0.0
H31 H 0.51244 0.20988 0.05831 0.0
H32 H 0.50837 0.08821 1.01518 0.0
H33 H 0.52781 0.12155 0.05951 0.0
H34 H 0.504 1.0253 0.07882 0.0
H35 H 0.52311 0.05862 0.12293 0.0
H36 H 0.61139 0.13922 0.24862 0.0
H37 H 0.63241 0.22065 0.27924 0.0
H38 H 0.60389 0.22271 0.23614 0.0
H39 H 0.58244 0.14142 0.20526 0.0
C40 C 0.36016 0.50586 0.27342 0.0
C41 C 0.35366 0.51489 0.302 0.0
C42 C 0.31054 0.50663 0.27828 0.0
C43 C 0.32905 0.5152 0.30444 0.0
C44 C 0.31734 0.49783 0.2496 0.0
C45 C 0.3419 0.49743 0.24724 0.0
U46 U 0.43098 0.52538 0.30526 0.0
O47 O 0.45236 0.50169 0.3077 0.0
O48 O 0.47003 0.53984 0.27971 0.0
C49 C 0.47176 0.51819 0.28767 0.0
C50 C 0.38593 0.50531 0.2706 0.0
C51 C 0.47849 0.505 0.26111 0.0
C52 C 0.47406 0.48946 0.2052 0.0
C53 C 0.46599 0.50047 0.23054 0.0
C54 C 0.50659 0.48664 0.24095 0.0
C55 C 0.49468 0.48266 0.20999 0.0
C56 C 0.49859 0.49772 0.26618 0.0
C57 C 0.45295 0.56922 0.38414 0.0
C58 C 0.49625 0.58757 0.41302 0.0
C59 C 0.46265 0.59984 0.42982 0.0
C60 C 0.44508 0.58343 0.40529 0.0
C61 C 0.48861 0.60245 0.43377 0.0
C62 C 0.47857 0.57113 0.38822 0.0
C63 C 0.43418 0.55343 0.35763 0.0
O64 O 0.40782 0.529 0.26442 0.0
O65 O 0.39008 0.49125 0.29307 0.0
O66 O 0.42437 0.52684 0.35772 0.0
O67 O 0.44103 0.56435 0.32859 0.0
H68 H 0.36762 0.52169 0.32241 0.0
H69 H 0.32467 0.52245 0.32671 0.0
H70 H 0.30347 0.49081 0.22912 0.0
H71 H 0.34658 0.49042 0.22497 0.0
H72 H 0.4642 0.48636 0.18182 0.0
H73 H 0.4503 0.50579 0.22615 0.0
H74 H 0.52273 0.48199 0.24547 0.0
H75 H 0.50852 0.5011 0.28958 0.0
H76 H 0.51615 0.58925 0.41538 0.0
H77 H 0.45593 0.61063 0.44569 0.0
H78 H 0.42534 0.58211 0.40259 0.0
H79 H 0.48499 0.56029 0.37203 0.0
C80 C 0.89836 0.33815 0.44008 0.0
C81 C 0.88283 0.33164 0.46866 0.0
C82 C 0.84796 0.28852 0.44494 0.0
C83 C 0.85791 0.30703 0.47111 0.0
C84 C 0.86357 0.29532 0.41626 0.0
C85 C 0.88852 0.31988 0.4139 0.0
U86 U 0.94965 0.40896 0.47192 0.0
O87 O 0.99473 0.43035 0.47436 0.0
O88 O 0.97424 0.44802 0.44637 0.0
C89 C 0.99762 0.44975 0.45433 0.0
C90 C 0.92468 0.36392 0.43725 0.0
C91 C 1.01754 0.45648 0.42777 0.0
C92 C 1.02864 0.45204 0.37186 0.0
C93 C 1.00957 0.44398 0.3972 0.0
C94 C 1.06399 0.48459 0.4076 0.0
C95 C 1.05606 0.47267 0.37664 0.0
C96 C 1.04492 0.47659 0.43283 0.0
C97 C 0.92779 0.43093 0.55081 0.0
C98 C 0.95271 0.47426 0.57965 0.0
C99 C 0.90689 0.44059 0.59654 0.0
C100 C 0.90573 0.42302 0.57202 0.0
C101 C 0.93021 0.46658 0.60044 0.0
C102 C 0.95146 0.45657 0.55485 0.0
C103 C 0.9248 0.41216 0.5243 0.0
O104 O 0.92287 0.3858 0.43108 0.0
O105 O 0.94289 0.36807 0.45973 0.0
O106 O 0.94159 0.40235 0.52438 0.0
O107 O 0.92074 0.41902 0.49526 0.0
H108 H 0.88998 0.34559 0.48908 0.0
H109 H 0.84629 0.30264 0.49338 0.0
H110 H 0.85671 0.28146 0.39577 0.0
H111 H 0.90021 0.32457 0.39163 0.0
H112 H 1.02188 0.44218 0.34848 0.0
H113 H 0.98855 0.42828 0.39281 0.0
H114 H 0.08479 0.50073 0.41211 0.0
H115 H 1.05147 0.48652 0.45622 0.0
H116 H 0.97091 0.49418 0.58197 0.0
H117 H 0.8894 0.43384 0.61245 0.0
H118 H 0.88734 0.40326 0.56935 0.0
H119 H 0.96871 0.46302 0.53861 0.0
C120 C 0.60422 0.87633 0.60677 0.0
C121 C 0.59519 0.86079 0.63535 0.0
C122 C 0.60346 0.82593 0.61162 0.0
C123 C 0.59488 0.83587 0.63779 0.0
C124 C 0.61226 0.84154 0.58295 0.0
C125 C 0.61266 0.8665 0.58059 0.0
U126 U 0.58472 0.92763 0.63862 0.0
O127 O 0.60842 0.97271 0.64106 0.0
O128 O 0.57026 0.95222 0.61309 0.0
C129 C 0.59191 0.9756 0.62104 0.0
C130 C 0.60478 0.90265 0.60395 0.0
C131 C 0.6051 0.99552 0.59447 0.0
C132 C 0.62063 1.00662 0.53856 0.0
C133 C 0.60962 0.98755 0.5639 0.0
C134 C 0.62345 1.04198 0.57431 0.0
C135 C 0.62743 1.03405 0.54335 0.0
C136 C 0.61238 1.0229 0.59954 0.0
C137 C 0.54092 0.90579 0.71753 0.0
C138 C 0.52246 0.93068 0.74632 0.0
C139 C 0.51042 0.88491 0.76332 0.0
C140 C 0.52683 0.88375 0.73879 0.0
C141 C 0.50769 0.9082 0.76717 0.0
C142 C 0.53889 0.92943 0.72152 0.0
C143 C 0.55669 0.90279 0.69101 0.0
O144 O 0.58109 0.90084 0.59779 0.0
O145 O 0.61884 0.92086 0.62642 0.0
O146 O 0.58328 0.91957 0.69108 0.0
O147 O 0.54576 0.89873 0.66197 0.0
H148 H 0.58839 0.86794 0.65576 0.0
H149 H 0.58763 0.82424 0.66005 0.0
H150 H 0.61928 0.83469 0.56247 0.0
H151 H 0.61967 0.87819 0.55832 0.0
H152 H 0.62374 0.99987 0.51518 0.0
H153 H 0.6043 0.96653 0.55951 0.0
H154 H 0.6281 0.06278 0.57882 0.0
H155 H 0.609 1.02946 0.62293 0.0
H156 H 0.52069 0.94885 0.74861 0.0
H157 H 0.49972 0.86744 0.77926 0.0
H158 H 0.52823 0.86538 0.73616 0.0
H159 H 0.54964 0.94665 0.70524 0.0
C160 C 0.77193 0.5822 0.7734 0.0
C161 C 0.77844 0.57319 0.80199 0.0
C162 C 0.82156 0.58144 0.77826 0.0
C163 C 0.80305 0.57289 0.80443 0.0
C164 C 0.81474 0.59023 0.74957 0.0
C165 C 0.79018 0.59062 0.74721 0.0
U166 U 0.70113 0.56271 0.80527 0.0
O167 O 0.67975 0.58641 0.8077 0.0
O168 O 0.66207 0.54824 0.77974 0.0
C169 C 0.66035 0.5699 0.78769 0.0
C170 C 0.74616 0.58276 0.77058 0.0
C171 C 0.65361 0.58308 0.76112 0.0
C172 C 0.65804 0.59861 0.70521 0.0
C173 C 0.6661 0.58761 0.73055 0.0
C174 C 0.62551 0.60144 0.74095 0.0
C175 C 0.63742 0.60541 0.71 0.0
C176 C 0.63351 0.59036 0.76619 0.0
C177 C 0.67919 0.51893 0.88419 0.0
C178 C 0.63581 0.50042 0.91295 0.0
C179 C 0.66959 0.48849 0.93004 0.0
C180 C 0.68716 0.5049 0.9055 0.0
C181 C 0.64355 0.4857 0.93384 0.0
C182 C 0.65349 0.51685 0.88814 0.0
C183 C 0.69795 0.53469 0.85766 0.0
O184 O 0.72427 0.55906 0.76443 0.0
O185 O 0.74202 0.59683 0.79305 0.0
O186 O 0.70776 0.56129 0.85773 0.0
O187 O 0.69107 0.52375 0.82863 0.0
H188 H 0.76449 0.5664 0.8224 0.0
H189 H 0.80744 0.56565 0.8267 0.0
H190 H 0.82861 0.59724 0.72909 0.0
H191 H 0.78549 0.59762 0.72494 0.0
H192 H 0.6679 0.60172 0.68183 0.0
H193 H 0.6818 0.58229 0.72616 0.0
H194 H 0.60936 0.60609 0.74547 0.0
H195 H 0.62358 0.58699 0.78958 0.0
H196 H 0.61585 0.4986 0.9152 0.0
H197 H 0.67639 0.47783 0.94602 0.0
H198 H 0.70696 0.50635 0.9029 0.0
H199 H 0.64699 0.52755 0.87182 0.0
C200 C 0.23374 0.74995 0.94009 0.0
C201 C 0.24927 0.75646 0.96867 0.0
C202 C 0.28413 0.79958 0.94495 0.0
C203 C 0.27419 0.78106 0.97112 0.0
C204 C 0.26853 0.79277 0.91627 0.0
C205 C 0.24357 0.76821 0.91392 0.0
U206 U 0.18246 0.67911 0.97191 0.0
O207 O 0.13738 0.65771 0.97436 0.0
O208 O 0.15788 0.64007 0.94635 0.0
C209 C 0.1345 0.63833 0.95431 0.0
C210 C 0.20742 0.72417 0.93727 0.0
C211 C 0.11457 0.6316 0.92776 0.0
C212 C 0.10347 0.63604 0.87185 0.0
C213 C 0.12254 0.6441 0.89719 0.0
C214 C 0.06811 0.6035 0.9076 0.0
C215 C 0.07604 0.61541 0.87664 0.0
C216 C 0.08719 0.61149 0.93282 0.0
C217 C 0.20434 0.65712 0.05075 0.0
C218 C 0.17933 0.61387 0.07973 0.0
C219 C 0.22532 0.64734 0.09632 0.0
C220 C 0.22649 0.66492 0.0718 0.0
C221 C 0.20191 0.62144 0.10037 0.0
C222 C 0.18059 0.63156 0.05494 0.0
C223 C 0.20732 0.6759 1.02427 0.0
O224 O 0.20923 0.7023 0.93108 0.0
O225 O 0.18922 0.72001 0.95976 0.0
O226 O 0.19053 0.6857 1.02438 0.0
O227 O 0.21139 0.66906 0.99521 0.0
H228 H 0.24212 0.7425 0.98909 0.0
H229 H 0.28582 0.78544 0.99338 0.0
H230 H 0.27538 0.80664 0.89579 0.0
H231 H 0.23188 0.76353 0.89165 0.0
H232 H 0.11022 0.64591 0.84847 0.0
H233 H 0.14356 0.6598 0.8928 0.0
H234 H 1.04732 0.58735 0.91211 0.0
H235 H 0.08064 0.60156 0.95622 0.0
H236 H 0.16107 0.59401 0.08217 0.0
H237 H 0.24287 0.65401 0.1121 0.0
H238 H 0.24494 0.68461 0.06902 0.0
H239 H 0.16328 0.62519 0.03883 0.0
C240 C 0.89834 0.58222 0.78579 0.0
C241 C 0.8828 0.57318 0.75721 0.0
C242 C 0.84794 0.58145 0.78093 0.0
C243 C 0.85788 0.57287 0.75477 0.0
C244 C 0.86355 0.59026 0.8096 0.0
C245 C 0.88851 0.59066 0.81196 0.0
U246 U 0.94963 0.5627 0.75396 0.0
O247 O 0.99471 0.58638 0.75151 0.0
O248 O 0.97422 0.54824 0.77951 0.0
C249 C 0.9976 0.56989 0.77155 0.0
C250 C 0.92466 0.58278 0.78861 0.0
C251 C 1.01752 0.58308 0.79811 0.0
C252 C 1.02863 0.59862 0.85402 0.0
C253 C 1.00955 0.58761 0.82868 0.0
C254 C 1.06398 0.60144 0.81827 0.0
C255 C 1.05605 0.60542 0.84923 0.0
C256 C 1.0449 0.59036 0.79304 0.0
C257 C 0.92777 0.51885 0.67509 0.0
C258 C 0.95274 0.50053 0.64618 0.0
C259 C 0.90684 0.48819 0.62944 0.0
C260 C 0.90567 0.50461 0.65396 0.0
C261 C 0.9302 0.48562 0.62547 0.0
C262 C 0.95148 0.51697 0.67098 0.0
C263 C 0.92478 0.53464 0.70159 0.0
O264 O 0.92285 0.55909 0.79479 0.0
O265 O 0.94287 0.59683 0.76613 0.0
O266 O 0.94157 0.56123 0.7015 0.0
O267 O 0.92072 0.52373 0.73063 0.0
H268 H 0.88995 0.56637 0.73681 0.0
H269 H 0.84625 0.56561 0.73251 0.0
H270 H 0.8567 0.59729 0.83008 0.0
H271 H 0.9002 0.59768 0.83423 0.0
H272 H 1.02187 0.60172 0.8774 0.0
H273 H 0.98854 0.58229 0.83307 0.0
H274 H 0.08477 0.60609 0.81375 0.0
H275 H 1.05145 0.58698 0.76965 0.0
H276 H 0.97097 0.49888 0.6438 0.0
H277 H 0.88932 0.47738 0.61359 0.0
H278 H 0.88724 0.5059 0.65668 0.0
H279 H 0.96876 0.52783 0.68715 0.0
C280 C 0.36015 0.87635 0.95248 0.0
C281 C 0.35364 0.86081 0.9239 0.0
C282 C 0.31051 0.82596 0.94762 0.0
C283 C 0.32903 0.8359 0.92146 0.0
C284 C 0.31732 0.84156 0.9763 0.0
C285 C 0.34188 0.86652 0.97866 0.0
U286 U 0.43098 0.92763 0.92066 0.0
O287 O 0.45238 0.97271 0.91821 0.0
O288 O 0.47002 0.9522 0.94622 0.0
C289 C 0.47176 0.97559 0.93826 0.0
C290 C 0.38592 0.90267 0.9553 0.0
C291 C 0.47849 0.99551 0.96482 0.0
C292 C 0.47405 1.00662 1.02072 0.0
C293 C 0.46599 0.98755 0.99538 0.0
C294 C 0.5066 1.04197 0.98498 0.0
C295 C 0.49468 1.03404 1.01594 0.0
C296 C 0.4986 1.02289 0.95975 0.0
C297 C 0.45297 0.90575 0.84181 0.0
C298 C 0.49623 0.93075 0.81286 0.0
C299 C 0.46273 0.88479 0.79622 0.0
C300 C 0.44514 0.88362 0.82073 0.0
C301 C 0.48864 0.90818 0.79219 0.0
C302 C 0.47854 0.92949 0.83765 0.0
C303 C 0.43418 0.90277 0.8683 0.0
O304 O 0.4078 0.90086 0.96149 0.0
O305 O 0.39008 0.92087 0.93282 0.0
O306 O 0.42439 0.91956 0.86819 0.0
O307 O 0.44102 0.8987 0.89735 0.0
H308 H 0.3676 0.86797 0.90349 0.0
H309 H 0.32465 0.82427 0.89919 0.0
H310 H 0.30345 0.83471 0.99678 0.0
H311 H 0.34657 0.87821 1.00093 0.0
H312 H 0.46418 0.99986 0.0441 0.0
H313 H 0.45029 0.96653 0.99977 0.0
H314 H 0.52275 0.06276 0.98047 0.0
H315 H 0.50854 1.02945 0.93636 0.0
H316 H 0.5161 0.949 0.81044 0.0
H317 H 0.45604 0.86725 0.78041 0.0
H318 H 0.42544 0.86518 0.82349 0.0
H319 H 0.48492 0.94679 0.85378 0.0
C320 C 0.52786 0.33814 0.11914 0.0
C321 C 0.53688 0.33163 0.09056 0.0
C322 C 0.52862 0.28851 0.11429 0.0
C323 C 0.5372 0.30703 0.08812 0.0
C324 C 0.51982 0.29532 0.14296 0.0
C325 C 0.51942 0.31987 0.14532 0.0
U326 U 0.5474 0.40897 0.08732 0.0
O327 O 0.52373 0.43037 0.08487 0.0
O328 O 0.56186 0.44801 0.11288 0.0
C329 C 0.54022 0.44975 0.10491 0.0
C330 C 0.5273 0.36391 0.12196 0.0
C331 C 0.52702 0.45648 0.13147 0.0
C332 C 0.51147 0.45204 0.18737 0.0
C333 C 0.52248 0.44398 0.16204 0.0
C334 C 0.50867 0.48458 0.15163 0.0
C335 C 0.50468 0.47267 0.18258 0.0
C336 C 0.51975 0.47659 0.1264 0.0
C337 C 0.59128 0.43097 1.00848 0.0
C338 C 0.6095 0.47421 0.97948 0.0
C339 C 0.62206 0.44077 0.96294 0.0
C340 C 0.60565 0.42318 0.98745 0.0
C341 C 0.62453 0.46665 0.95887 0.0
C342 C 0.59306 0.45651 1.00427 0.0
C343 C 0.57548 0.41218 0.03497 0.0
O344 O 0.55099 0.38579 0.12816 0.0
O345 O 0.51326 0.36807 0.09947 0.0
O346 O 0.54889 0.40238 0.03486 0.0
O347 O 0.58638 0.41902 0.06402 0.0
H348 H 0.54369 0.34559 0.07015 0.0
H349 H 0.54445 0.30265 0.06585 0.0
H350 H 0.5128 0.28145 0.16344 0.0
H351 H 0.51241 0.32456 0.16759 0.0
H352 H 0.50836 0.44217 0.21075 0.0
H353 H 0.5278 0.42828 0.16643 0.0
H354 H 0.50402 0.50073 0.14711 0.0
H355 H 0.52313 0.48652 0.10301 0.0
H356 H 0.61107 0.49405 0.97703 0.0
H357 H 0.63296 0.43411 0.94717 0.0
H358 H 0.60443 0.4035 0.99025 0.0
H359 H 0.58211 0.46287 1.02037 0.0
C360 C 0.23377 0.50587 0.28581 0.0
C361 C 0.2493 0.5149 0.25723 0.0
C362 C 0.28416 0.50663 0.28095 0.0
C363 C 0.27421 0.5152 0.25479 0.0
C364 C 0.26855 0.49784 0.30963 0.0
C365 C 0.2436 0.49744 0.31199 0.0
U366 U 0.18246 0.52537 0.25395 0.0
O367 O 0.13739 0.50167 0.25151 0.0
O368 O 0.15787 0.53984 0.27948 0.0
C369 C 0.13449 0.51818 0.27154 0.0
C370 C 0.20744 0.50532 0.28863 0.0
C371 C 0.11457 0.505 0.2981 0.0
C372 C 0.10348 0.48947 0.35401 0.0
C373 C 0.12254 0.50047 0.32867 0.0
C374 C 0.06812 0.48664 0.31827 0.0
C375 C 0.07605 0.48266 0.34923 0.0
C376 C 0.08719 0.49772 0.29304 0.0
C377 C 0.2043 0.56916 0.17504 0.0
C378 C 0.17942 0.58765 0.14627 0.0
C379 C 0.22516 0.59963 0.12921 0.0
C380 C 0.22632 0.58322 0.15375 0.0
C381 C 0.20189 0.60239 0.12539 0.0
C382 C 0.18067 0.57122 0.17107 0.0
C383 C 0.2073 0.55339 0.20156 0.0
O384 O 0.20925 0.52901 0.29479 0.0
O385 O 0.18923 0.49125 0.26616 0.0
O386 O 0.19052 0.5268 0.20149 0.0
O387 O 0.21136 0.56433 0.23059 0.0
H388 H 0.24214 0.5217 0.23681 0.0
H389 H 0.28584 0.52245 0.23252 0.0
H390 H 0.27541 0.49082 0.33011 0.0
H391 H 0.23191 0.49044 0.33426 0.0
H392 H 0.11023 0.48636 0.37739 0.0
H393 H 0.14356 0.50579 0.33306 0.0
H394 H 1.04732 0.48199 0.31376 0.0
H395 H 0.08064 0.5011 0.26964 0.0
H396 H 0.16127 0.58944 0.144 0.0
H397 H 0.24262 0.6103 0.11325 0.0
H398 H 0.24468 0.58179 0.15636 0.0
H399 H 0.16346 0.56049 0.18737 0.0
C400 C 0.77196 0.21174 0.45248 0.0
C401 C 0.77846 0.22727 0.4239 0.0
C402 C 0.82158 0.26213 0.44761 0.0
C403 C 0.80307 0.25219 0.42145 0.0
C404 C 0.81478 0.24653 0.47629 0.0
C405 C 0.79022 0.22157 0.47865 0.0
U406 U 0.70113 0.16045 0.42066 0.0
O407 O 0.67973 0.11538 0.41821 0.0
O408 O 0.66208 0.13587 0.44622 0.0
C409 C 0.66035 0.11249 0.43826 0.0
C410 C 0.74618 0.18541 0.4553 0.0
C411 C 0.65361 0.09256 0.46482 0.0
C412 C 0.65806 0.08146 0.52072 0.0
C413 C 0.66612 0.10053 0.49538 0.0
C414 C 0.62551 0.04611 0.48498 0.0
C415 C 0.63743 0.05404 0.51594 0.0
C416 C 0.63351 0.06518 0.45975 0.0
C417 C 0.67914 0.18232 0.3418 0.0
C418 C 0.63586 0.15734 0.31286 0.0
C419 C 0.66938 0.20328 0.2962 0.0
C420 C 0.68697 0.20445 0.32072 0.0
C421 C 0.64346 0.1799 0.29219 0.0
C422 C 0.65356 0.15859 0.33765 0.0
C423 C 0.69792 0.18531 0.3683 0.0
O424 O 0.72431 0.18723 0.46149 0.0
O425 O 0.74202 0.16721 0.43282 0.0
O426 O 0.70772 0.16852 0.36819 0.0
O427 O 0.69108 0.18938 0.39734 0.0
H428 H 0.7645 0.22012 0.40349 0.0
H429 H 0.80744 0.26382 0.39918 0.0
H430 H 0.82865 0.25338 0.49677 0.0
H431 H 0.78554 0.20988 0.50092 0.0
H432 H 0.66792 0.08822 0.5441 0.0
H433 H 0.68182 0.12155 0.49977 0.0
H434 H 0.60936 1.02531 0.48047 0.0
H435 H 0.62357 0.05863 0.43636 0.0
H436 H 0.616 0.13909 0.31045 0.0
H437 H 0.67607 0.22082 0.28039 0.0
H438 H 0.70667 0.22289 0.32347 0.0
H439 H 0.64717 0.1413 0.3538 0.0
C440 C 0.60423 0.74992 0.61916 0.0
C441 C 0.59521 0.75644 0.59057 0.0
C442 C 0.60346 0.79955 0.6143 0.0
C443 C 0.5949 0.78104 0.58813 0.0
C444 C 0.61225 0.79274 0.64298 0.0
C445 C 0.61265 0.76819 0.64534 0.0
U446 U 0.58471 0.67911 0.58731 0.0
O447 O 0.6084 0.65772 0.58487 0.0
O448 O 0.57025 0.64006 0.61285 0.0
C449 C 0.5919 0.63833 0.6049 0.0
C450 C 0.60478 0.72415 0.62198 0.0
C451 C 0.60509 0.6316 0.63146 0.0
C452 C 0.62063 0.63604 0.68737 0.0
C453 C 0.60962 0.6441 0.66203 0.0
C454 C 0.62344 0.60349 0.65163 0.0
C455 C 0.62742 0.61541 0.68258 0.0
C456 C 0.61236 0.61149 0.6264 0.0
C457 C 0.54089 0.65714 0.50843 0.0
C458 C 0.52251 0.61383 0.47956 0.0
C459 C 0.51029 0.64746 0.46272 0.0
C460 C 0.5267 0.66504 0.48725 0.0
C461 C 0.50765 0.62149 0.45879 0.0
C462 C 0.53894 0.63151 0.50436 0.0
C463 C 0.55667 0.67592 0.53494 0.0
O464 O 0.58109 0.70227 0.62815 0.0
O465 O 0.61884 0.72001 0.5995 0.0
O466 O 0.58326 0.68572 0.53485 0.0
O467 O 0.54575 0.66906 0.56398 0.0
H468 H 0.58841 0.74248 0.57016 0.0
H469 H 0.58766 0.78542 0.56586 0.0
H470 H 0.61926 0.80661 0.66346 0.0
H471 H 0.61965 0.7635 0.66761 0.0
H472 H 0.62374 0.6459 0.71075 0.0
H473 H 0.6043 0.6598 0.66642 0.0
H474 H 0.62808 0.58734 0.64711 0.0
H475 H 0.60898 0.60156 0.603 0.0
H476 H 0.52081 0.59392 0.47722 0.0
H477 H 0.49952 0.65419 0.44684 0.0
H478 H 0.52804 0.68478 0.48993 0.0
H479 H 0.54976 0.62508 0.52058 0.0
loop_
_geom_bond_atom_site_label_1
_geom_bond_atom_site_label_2
_geom_bond_distance
_geom_bond_site_symmetry_2
_ccdc_geom_bond_type
C0 C1 1.264 . S
C0 C5 1.479 . S
C0 C10 1.465 . S
C1 C0 1.264 . S
C1 C3 1.339 . S
C1 H28 0.931 . S
C2 C3 1.395 . S
C2 C4 1.320 . S
C3 C1 1.339 . S
C3 C2 1.395 . S
C3 H29 0.929 . S
C4 C2 1.320 . S
C4 C5 1.405 . S
C4 H30 0.930 . S
C5 C0 1.479 . S
C5 C4 1.405 . S
C5 H31 0.931 . S
U6 O7 2.454 . S
U6 O8 2.458 . S
U6 C9 2.984 . S
U6 C10 2.847 . S
U6 C23 2.882 . S
U6 O24 2.441 . S
U6 O25 2.420 . S
U6 O26 2.455 . S
U6 O27 2.449 . S
O7 U6 2.454 . S
O7 C9 1.353 . S
O8 U6 2.458 . S
O8 C9 1.286 . S
C9 U6 2.984 . S
C9 O7 1.353 . S
C9 O8 1.286 . S
C9 C11 1.363 . S
C10 C0 1.465 . S
C10 U6 2.847 . S
C10 O24 1.249 . S
C10 O25 1.202 . S
C11 C9 1.363 . S
C11 C13 1.408 . S
C11 C16 1.342 . S
C12 C13 1.310 . S
C12 C15 1.461 . S
C12 H32 0.932 1_554 S
C13 C11 1.408 . S
C13 C12 1.310 . S
C13 H33 0.930 . S
C14 C15 1.474 . S
C14 C16 1.285 . S
C14 H34 0.929 1_545 S
C15 C12 1.461 . S
C15 C14 1.474 . S
C16 C11 1.342 . S
C16 C14 1.285 . S
C16 H35 0.930 . S
C17 C20 1.424 . S
C17 C22 1.245 . S
C17 C23 1.428 . S
C18 C21 1.260 . S
C18 C22 1.477 . S
C18 H36 0.932 . S
C19 C20 1.384 . S
C19 C21 1.479 . S
C19 H37 0.929 . S
C20 C17 1.424 . S
C20 C19 1.384 . S
C20 H38 0.928 . S
C21 C18 1.260 . S
C21 C19 1.479 . S
C22 C17 1.245 . S
C22 C18 1.477 . S
C22 H39 0.932 . S
C23 U6 2.882 . S
C23 C17 1.428 . S
C23 O26 1.301 . S
C23 O27 1.282 . S
O24 U6 2.441 . S
O24 C10 1.249 . S
O25 U6 2.420 . S
O25 C10 1.202 . S
O26 U6 2.455 . S
O26 C23 1.301 . S
O27 U6 2.449 . S
O27 C23 1.282 . S
H28 C1 0.931 . S
H29 C3 0.929 . S
H30 C4 0.930 . S
H31 C5 0.931 . S
H32 C12 0.932 1_556 S
H33 C13 0.930 . S
H34 C14 0.929 1_565 S
H35 C16 0.930 . S
H36 C18 0.932 . S
H37 C19 0.929 . S
H38 C20 0.928 . S
H39 C22 0.932 . S
C40 C41 1.264 . S
C40 C45 1.479 . S
C40 C50 1.465 . S
C41 C40 1.264 . S
C41 C43 1.339 . S
C41 H68 0.931 . S
C42 C43 1.395 . S
C42 C44 1.320 . S
C43 C41 1.339 . S
C43 C42 1.395 . S
C43 H69 0.929 . S
C44 C42 1.320 . S
C44 C45 1.405 . S
C44 H70 0.930 . S
C45 C40 1.479 . S
C45 C44 1.405 . S
C45 H71 0.931 . S
U46 O47 2.454 . S
U46 O48 2.458 . S
U46 C49 2.984 . S
U46 C50 2.847 . S
U46 C63 2.882 . S
U46 O64 2.441 . S
U46 O65 2.420 . S
U46 O66 2.455 . S
U46 O67 2.449 . S
O47 U46 2.454 . S
O47 C49 1.353 . S
O48 U46 2.458 . S
O48 C49 1.286 . S
C49 U46 2.984 . S
C49 O47 1.353 . S
C49 O48 1.286 . S
C49 C51 1.363 . S
C50 C40 1.465 . S
C50 U46 2.847 . S
C50 O64 1.249 . S
C50 O65 1.202 . S
C51 C49 1.363 . S
C51 C53 1.408 . S
C51 C56 1.342 . S
C52 C53 1.310 . S
C52 C55 1.461 . S
C52 H72 0.932 . S
C53 C51 1.408 . S
C53 C52 1.310 . S
C53 H73 0.930 . S
C54 C55 1.474 . S
C54 C56 1.285 . S
C54 H74 0.929 . S
C55 C52 1.461 . S
C55 C54 1.474 . S
C56 C51 1.342 . S
C56 C54 1.285 . S
C56 H75 0.930 . S
C57 C60 1.424 . S
C57 C62 1.245 . S
C57 C63 1.428 . S
C58 C61 1.260 . S
C58 C62 1.477 . S
C58 H76 0.932 . S
C59 C60 1.384 . S
C59 C61 1.479 . S
C59 H77 0.929 . S
C60 C57 1.424 . S
C60 C59 1.384 . S
C60 H78 0.928 . S
C61 C58 1.260 . S
C61 C59 1.479 . S
C62 C57 1.245 . S
C62 C58 1.477 . S
C62 H79 0.932 . S
C63 U46 2.882 . S
C63 C57 1.428 . S
C63 O66 1.301 . S
C63 O67 1.282 . S
O64 U46 2.441 . S
O64 C50 1.249 . S
O65 U46 2.420 . S
O65 C50 1.202 . S
O66 U46 2.455 . S
O66 C63 1.301 . S
O67 U46 2.449 . S
O67 C63 1.282 . S
H68 C41 0.931 . S
H69 C43 0.929 . S
H70 C44 0.930 . S
H71 C45 0.931 . S
H72 C52 0.932 . S
H73 C53 0.930 . S
H74 C54 0.929 . S
H75 C56 0.930 . S
H76 C58 0.932 . S
H77 C59 0.929 . S
H78 C60 0.928 . S
H79 C62 0.932 . S
C80 C81 1.264 . S
C80 C85 1.479 . S
C80 C90 1.465 . S
C81 C80 1.264 . S
C81 C83 1.339 . S
C81 H108 0.931 . S
C82 C83 1.395 . S
C82 C84 1.320 . S
C83 C81 1.339 . S
C83 C82 1.395 . S
C83 H109 0.929 . S
C84 C82 1.320 . S
C84 C85 1.405 . S
C84 H110 0.930 . S
C85 C80 1.479 . S
C85 C84 1.405 . S
C85 H111 0.931 . S
U86 O87 2.454 . S
U86 O88 2.458 . S
U86 C89 2.984 . S
U86 C90 2.847 . S
U86 C103 2.882 . S
U86 O104 2.441 . S
U86 O105 2.420 . S
U86 O106 2.455 . S
U86 O107 2.449 . S
O87 U86 2.454 . S
O87 C89 1.353 . S
O88 U86 2.458 . S
O88 C89 1.286 . S
C89 U86 2.984 . S
C89 O87 1.353 . S
C89 O88 1.286 . S
C89 C91 1.363 . S
C90 C80 1.465 . S
C90 U86 2.847 . S
C90 O104 1.249 . S
C90 O105 1.202 . S
C91 C89 1.363 . S
C91 C93 1.408 . S
C91 C96 1.342 . S
C92 C93 1.310 . S
C92 C95 1.461 . S
C92 H112 0.932 . S
C93 C91 1.408 . S
C93 C92 1.310 . S
C93 H113 0.930 . S
C94 C95 1.474 . S
C94 C96 1.285 . S
C94 H114 0.929 1_655 S
C95 C92 1.461 . S
C95 C94 1.474 . S
C96 C91 1.342 . S
C96 C94 1.285 . S
C96 H115 0.930 . S
C97 C100 1.424 . S
C97 C102 1.245 . S
C97 C103 1.428 . S
C98 C101 1.260 . S
C98 C102 1.477 . S
C98 H116 0.932 . S
C99 C100 1.384 . S
C99 C101 1.479 . S
C99 H117 0.929 . S
C100 C97 1.424 . S
C100 C99 1.384 . S
C100 H118 0.928 . S
C101 C98 1.260 . S
C101 C99 1.479 . S
C102 C97 1.245 . S
C102 C98 1.477 . S
C102 H119 0.932 . S
C103 U86 2.882 . S
C103 C97 1.428 . S
C103 O106 1.301 . S
C103 O107 1.282 . S
O104 U86 2.441 . S
O104 C90 1.249 . S
O105 U86 2.420 . S
O105 C90 1.202 . S
O106 U86 2.455 . S
O106 C103 1.301 . S
O107 U86 2.449 . S
O107 C103 1.282 . S
H108 C81 0.931 . S
H109 C83 0.929 . S
H110 C84 0.930 . S
H111 C85 0.931 . S
H112 C92 0.932 . S
H113 C93 0.930 . S
H114 C94 0.929 1_455 S
H115 C96 0.930 . S
H116 C98 0.932 . S
H117 C99 0.929 . S
H118 C100 0.928 . S
H119 C102 0.932 . S
C120 C121 1.264 . S
C120 C125 1.479 . S
C120 C130 1.465 . S
C121 C120 1.264 . S
C121 C123 1.339 . S
C121 H148 0.931 . S
C122 C123 1.395 . S
C122 C124 1.320 . S
C123 C121 1.339 . S
C123 C122 1.395 . S
C123 H149 0.929 . S
C124 C122 1.320 . S
C124 C125 1.405 . S
C124 H150 0.930 . S
C125 C120 1.479 . S
C125 C124 1.405 . S
C125 H151 0.931 . S
U126 O127 2.454 . S
U126 O128 2.458 . S
U126 C129 2.984 . S
U126 C130 2.847 . S
U126 C143 2.882 . S
U126 O144 2.441 . S
U126 O145 2.420 . S
U126 O146 2.455 . S
U126 O147 2.449 . S
O127 U126 2.454 . S
O127 C129 1.353 . S
O128 U126 2.458 . S
O128 C129 1.286 . S
C129 U126 2.984 . S
C129 O127 1.353 . S
C129 O128 1.286 . S
C129 C131 1.363 . S
C130 C120 1.465 . S
C130 U126 2.847 . S
C130 O144 1.249 . S
C130 O145 1.202 . S
C131 C129 1.363 . S
C131 C133 1.408 . S
C131 C136 1.342 . S
C132 C133 1.310 . S
C132 C135 1.461 . S
C132 H152 0.932 . S
C133 C131 1.408 . S
C133 C132 1.310 . S
C133 H153 0.930 . S
C134 C135 1.474 . S
C134 C136 1.285 . S
C134 H154 0.929 1_565 S
C135 C132 1.461 . S
C135 C134 1.474 . S
C136 C131 1.342 . S
C136 C134 1.285 . S
C136 H155 0.930 . S
C137 C140 1.424 . S
C137 C142 1.245 . S
C137 C143 1.428 . S
C138 C141 1.260 . S
C138 C142 1.477 . S
C138 H156 0.932 . S
C139 C140 1.384 . S
C139 C141 1.479 . S
C139 H157 0.929 . S
C140 C137 1.424 . S
C140 C139 1.384 . S
C140 H158 0.928 . S
C141 C138 1.260 . S
C141 C139 1.479 . S
C142 C137 1.245 . S
C142 C138 1.477 . S
C142 H159 0.932 . S
C143 U126 2.882 . S
C143 C137 1.428 . S
C143 O146 1.301 . S
C143 O147 1.282 . S
O144 U126 2.441 . S
O144 C130 1.249 . S
O145 U126 2.420 . S
O145 C130 1.202 . S
O146 U126 2.455 . S
O146 C143 1.301 . S
O147 U126 2.449 . S
O147 C143 1.282 . S
H148 C121 0.931 . S
H149 C123 0.929 . S
H150 C124 0.930 . S
H151 C125 0.931 . S
H152 C132 0.932 . S
H153 C133 0.930 . S
H154 C134 0.929 1_545 S
H155 C136 0.930 . S
H156 C138 0.932 . S
H157 C139 0.929 . S
H158 C140 0.928 . S
H159 C142 0.932 . S
C160 C161 1.264 . S
C160 C165 1.479 . S
C160 C170 1.465 . S
C161 C160 1.264 . S
C161 C163 1.339 . S
C161 H188 0.931 . S
C162 C163 1.395 . S
C162 C164 1.320 . S
C163 C161 1.339 . S
C163 C162 1.395 . S
C163 H189 0.929 . S
C164 C162 1.320 . S
C164 C165 1.405 . S
C164 H190 0.930 . S
C165 C160 1.479 . S
C165 C164 1.405 . S
C165 H191 0.931 . S
U166 O167 2.454 . S
U166 O168 2.458 . S
U166 C169 2.984 . S
U166 C170 2.847 . S
U166 C183 2.882 . S
U166 O184 2.441 . S
U166 O185 2.420 . S
U166 O186 2.455 . S
U166 O187 2.449 . S
O167 U166 2.454 . S
O167 C169 1.353 . S
O168 U166 2.458 . S
O168 C169 1.286 . S
C169 U166 2.984 . S
C169 O167 1.353 . S
C169 O168 1.286 . S
C169 C171 1.363 . S
C170 C160 1.465 . S
C170 U166 2.847 . S
C170 O184 1.249 . S
C170 O185 1.202 . S
C171 C169 1.363 . S
C171 C173 1.408 . S
C171 C176 1.342 . S
C172 C173 1.310 . S
C172 C175 1.461 . S
C172 H192 0.932 . S
C173 C171 1.408 . S
C173 C172 1.310 . S
C173 H193 0.930 . S
C174 C175 1.474 . S
C174 C176 1.285 . S
C174 H194 0.929 . S
C175 C172 1.461 . S
C175 C174 1.474 . S
C176 C171 1.342 . S
C176 C174 1.285 . S
C176 H195 0.930 . S
C177 C180 1.424 . S
C177 C182 1.245 . S
C177 C183 1.428 . S
C178 C181 1.260 . S
C178 C182 1.477 . S
C178 H196 0.932 . S
C179 C180 1.384 . S
C179 C181 1.479 . S
C179 H197 0.929 . S
C180 C177 1.424 . S
C180 C179 1.384 . S
C180 H198 0.928 . S
C181 C178 1.260 . S
C181 C179 1.479 . S
C182 C177 1.245 . S
C182 C178 1.477 . S
C182 H199 0.932 . S
C183 U166 2.882 . S
C183 C177 1.428 . S
C183 O186 1.301 . S
C183 O187 1.282 . S
O184 U166 2.441 . S
O184 C170 1.249 . S
O185 U166 2.420 . S
O185 C170 1.202 . S
O186 U166 2.455 . S
O186 C183 1.301 . S
O187 U166 2.449 . S
O187 C183 1.282 . S
H188 C161 0.931 . S
H189 C163 0.929 . S
H190 C164 0.930 . S
H191 C165 0.931 . S
H192 C172 0.932 . S
H193 C173 0.930 . S
H194 C174 0.929 . S
H195 C176 0.930 . S
H196 C178 0.932 . S
H197 C179 0.929 . S
H198 C180 0.928 . S
H199 C182 0.932 . S
C200 C201 1.264 . S
C200 C205 1.479 . S
C200 C210 1.465 . S
C201 C200 1.264 . S
C201 C203 1.339 . S
C201 H228 0.931 . S
C202 C203 1.395 . S
C202 C204 1.320 . S
C203 C201 1.339 . S
C203 C202 1.395 . S
C203 H229 0.929 . S
C204 C202 1.320 . S
C204 C205 1.405 . S
C204 H230 0.930 . S
C205 C200 1.479 . S
C205 C204 1.405 . S
C205 H231 0.931 . S
U206 O207 2.454 . S
U206 O208 2.458 . S
U206 C209 2.984 . S
U206 C210 2.847 . S
U206 C223 2.882 1_556 S
U206 O224 2.441 . S
U206 O225 2.420 . S
U206 O226 2.455 . S
U206 O227 2.449 1_556 S
O207 U206 2.454 . S
O207 C209 1.353 . S
O208 U206 2.458 . S
O208 C209 1.286 . S
C209 U206 2.984 . S
C209 O207 1.353 . S
C209 O208 1.286 . S
C209 C211 1.363 . S
C210 C200 1.465 . S
C210 U206 2.847 . S
C210 O224 1.249 . S
C210 O225 1.202 . S
C211 C209 1.363 . S
C211 C213 1.408 . S
C211 C216 1.342 . S
C212 C213 1.310 . S
C212 C215 1.461 . S
C212 H232 0.932 . S
C213 C211 1.408 . S
C213 C212 1.310 . S
C213 H233 0.930 . S
C214 C215 1.474 . S
C214 C216 1.285 . S
C214 H234 0.929 1_455 S
C215 C212 1.461 . S
C215 C214 1.474 . S
C216 C211 1.342 . S
C216 C214 1.285 . S
C216 H235 0.930 . S
C217 C220 1.424 . S
C217 C222 1.245 . S
C217 C223 1.428 . S
C218 C221 1.260 . S
C218 C222 1.477 . S
C218 H236 0.932 . S
C219 C220 1.384 . S
C219 C221 1.479 . S
C219 H237 0.929 . S
C220 C217 1.424 . S
C220 C219 1.384 . S
C220 H238 0.928 . S
C221 C218 1.260 . S
C221 C219 1.479 . S
C222 C217 1.245 . S
C222 C218 1.477 . S
C222 H239 0.932 . S
C223 U206 2.882 1_554 S
C223 C217 1.428 . S
C223 O226 1.301 1_554 S
C223 O227 1.282 . S
O224 U206 2.441 . S
O224 C210 1.249 . S
O225 U206 2.420 . S
O225 C210 1.202 . S
O226 U206 2.455 . S
O226 C223 1.301 1_556 S
O227 U206 2.449 1_554 S
O227 C223 1.282 . S
H228 C201 0.931 . S
H229 C203 0.929 . S
H230 C204 0.930 . S
H231 C205 0.931 . S
H232 C212 0.932 . S
H233 C213 0.930 . S
H234 C214 0.929 1_655 S
H235 C216 0.930 . S
H236 C218 0.932 . S
H237 C219 0.929 . S
H238 C220 0.928 . S
H239 C222 0.932 . S
C240 C241 1.264 . S
C240 C245 1.479 . S
C240 C250 1.465 . S
C241 C240 1.264 . S
C241 C243 1.339 . S
C241 H268 0.931 . S
C242 C243 1.395 . S
C242 C244 1.320 . S
C243 C241 1.339 . S
C243 C242 1.395 . S
C243 H269 0.929 . S
C244 C242 1.320 . S
C244 C245 1.405 . S
C244 H270 0.930 . S
C245 C240 1.479 . S
C245 C244 1.405 . S
C245 H271 0.931 . S
U246 O247 2.454 . S
U246 O248 2.458 . S
U246 C249 2.984 . S
U246 C250 2.847 . S
U246 C263 2.882 . S
U246 O264 2.441 . S
U246 O265 2.420 . S
U246 O266 2.455 . S
U246 O267 2.449 . S
O247 U246 2.454 . S
O247 C249 1.353 . S
O248 U246 2.458 . S
O248 C249 1.286 . S
C249 U246 2.984 . S
C249 O247 1.353 . S
C249 O248 1.286 . S
C249 C251 1.363 . S
C250 C240 1.465 . S
C250 U246 2.847 . S
C250 O264 1.249 . S
C250 O265 1.202 . S
C251 C249 1.363 . S
C251 C253 1.408 . S
C251 C256 1.342 . S
C252 C253 1.310 . S
C252 C255 1.461 . S
C252 H272 0.932 . S
C253 C251 1.408 . S
C253 C252 1.310 . S
C253 H273 0.930 . S
C254 C255 1.474 . S
C254 C256 1.285 . S
C254 H274 0.929 1_655 S
C255 C252 1.461 . S
C255 C254 1.474 . S
C256 C251 1.342 . S
C256 C254 1.285 . S
C256 H275 0.930 . S
C257 C260 1.424 . S
C257 C262 1.245 . S
C257 C263 1.428 . S
C258 C261 1.260 . S
C258 C262 1.477 . S
C258 H276 0.932 . S
C259 C260 1.384 . S
C259 C261 1.479 . S
C259 H277 0.929 . S
C260 C257 1.424 . S
C260 C259 1.384 . S
C260 H278 0.928 . S
C261 C258 1.260 . S
C261 C259 1.479 . S
C262 C257 1.245 . S
C262 C258 1.477 . S
C262 H279 0.932 . S
C263 U246 2.882 . S
C263 C257 1.428 . S
C263 O266 1.301 . S
C263 O267 1.282 . S
O264 U246 2.441 . S
O264 C250 1.249 . S
O265 U246 2.420 . S
O265 C250 1.202 . S
O266 U246 2.455 . S
O266 C263 1.301 . S
O267 U246 2.449 . S
O267 C263 1.282 . S
H268 C241 0.931 . S
H269 C243 0.929 . S
H270 C244 0.930 . S
H271 C245 0.931 . S
H272 C252 0.932 . S
H273 C253 0.930 . S
H274 C254 0.929 1_455 S
H275 C256 0.930 . S
H276 C258 0.932 . S
H277 C259 0.929 . S
H278 C260 0.928 . S
H279 C262 0.932 . S
C280 C281 1.264 . S
C280 C285 1.479 . S
C280 C290 1.465 . S
C281 C280 1.264 . S
C281 C283 1.339 . S
C281 H308 0.931 . S
C282 C283 1.395 . S
C282 C284 1.320 . S
C283 C281 1.339 . S
C283 C282 1.395 . S
C283 H309 0.929 . S
C284 C282 1.320 . S
C284 C285 1.405 . S
C284 H310 0.930 . S
C285 C280 1.479 . S
C285 C284 1.405 . S
C285 H311 0.931 . S
U286 O287 2.454 . S
U286 O288 2.458 . S
U286 C289 2.984 . S
U286 C290 2.847 . S
U286 C303 2.882 . S
U286 O304 2.441 . S
U286 O305 2.420 . S
U286 O306 2.455 . S
U286 O307 2.449 . S
O287 U286 2.454 . S
O287 C289 1.353 . S
O288 U286 2.458 . S
O288 C289 1.286 . S
C289 U286 2.984 . S
C289 O287 1.353 . S
C289 O288 1.286 . S
C289 C291 1.363 . S
C290 C280 1.465 . S
C290 U286 2.847 . S
C290 O304 1.249 . S
C290 O305 1.202 . S
C291 C289 1.363 . S
C291 C293 1.408 . S
C291 C296 1.342 . S
C292 C293 1.310 . S
C292 C295 1.461 . S
C292 H312 0.932 1_556 S
C293 C291 1.408 . S
C293 C292 1.310 . S
C293 H313 0.930 . S
C294 C295 1.474 . S
C294 C296 1.285 . S
C294 H314 0.929 1_565 S
C295 C292 1.461 . S
C295 C294 1.474 . S
C296 C291 1.342 . S
C296 C294 1.285 . S
C296 H315 0.930 . S
C297 C300 1.424 . S
C297 C302 1.245 . S
C297 C303 1.428 . S
C298 C301 1.260 . S
C298 C302 1.477 . S
C298 H316 0.932 . S
C299 C300 1.384 . S
C299 C301 1.479 . S
C299 H317 0.929 . S
C300 C297 1.424 . S
C300 C299 1.384 . S
C300 H318 0.928 . S
C301 C298 1.260 . S
C301 C299 1.479 . S
C302 C297 1.245 . S
C302 C298 1.477 . S
C302 H319 0.932 . S
C303 U286 2.882 . S
C303 C297 1.428 . S
C303 O306 1.301 . S
C303 O307 1.282 . S
O304 U286 2.441 . S
O304 C290 1.249 . S
O305 U286 2.420 . S
O305 C290 1.202 . S
O306 U286 2.455 . S
O306 C303 1.301 . S
O307 U286 2.449 . S
O307 C303 1.282 . S
H308 C281 0.931 . S
H309 C283 0.929 . S
H310 C284 0.930 . S
H311 C285 0.931 . S
H312 C292 0.932 1_554 S
H313 C293 0.930 . S
H314 C294 0.929 1_545 S
H315 C296 0.930 . S
H316 C298 0.932 . S
H317 C299 0.929 . S
H318 C300 0.928 . S
H319 C302 0.932 . S
C320 C321 1.264 . S
C320 C325 1.479 . S
C320 C330 1.465 . S
C321 C320 1.264 . S
C321 C323 1.339 . S
C321 H348 0.931 . S
C322 C323 1.395 . S
C322 C324 1.320 . S
C323 C321 1.339 . S
C323 C322 1.395 . S
C323 H349 0.929 . S
C324 C322 1.320 . S
C324 C325 1.405 . S
C324 H350 0.930 . S
C325 C320 1.479 . S
C325 C324 1.405 . S
C325 H351 0.931 . S
U326 O327 2.454 . S
U326 O328 2.458 . S
U326 C329 2.984 . S
U326 C330 2.847 . S
U326 C343 2.882 1_554 S
U326 O344 2.441 . S
U326 O345 2.420 . S
U326 O346 2.455 . S
U326 O347 2.449 1_554 S
O327 U326 2.454 . S
O327 C329 1.353 . S
O328 U326 2.458 . S
O328 C329 1.286 . S
C329 U326 2.984 . S
C329 O327 1.353 . S
C329 O328 1.286 . S
C329 C331 1.363 . S
C330 C320 1.465 . S
C330 U326 2.847 . S
C330 O344 1.249 . S
C330 O345 1.202 . S
C331 C329 1.363 . S
C331 C333 1.408 . S
C331 C336 1.342 . S
C332 C333 1.310 . S
C332 C335 1.461 . S
C332 H352 0.932 . S
C333 C331 1.408 . S
C333 C332 1.310 . S
C333 H353 0.930 . S
C334 C335 1.474 . S
C334 C336 1.285 . S
C334 H354 0.929 . S
C335 C332 1.461 . S
C335 C334 1.474 . S
C336 C331 1.342 . S
C336 C334 1.285 . S
C336 H355 0.930 . S
C337 C340 1.424 . S
C337 C342 1.245 . S
C337 C343 1.428 . S
C338 C341 1.260 . S
C338 C342 1.477 . S
C338 H356 0.932 . S
C339 C340 1.384 . S
C339 C341 1.479 . S
C339 H357 0.929 . S
C340 C337 1.424 . S
C340 C339 1.384 . S
C340 H358 0.928 . S
C341 C338 1.260 . S
C341 C339 1.479 . S
C342 C337 1.245 . S
C342 C338 1.477 . S
C342 H359 0.932 . S
C343 U326 2.882 1_556 S
C343 C337 1.428 . S
C343 O346 1.301 1_556 S
C343 O347 1.282 . S
O344 U326 2.441 . S
O344 C330 1.249 . S
O345 U326 2.420 . S
O345 C330 1.202 . S
O346 U326 2.455 . S
O346 C343 1.301 1_554 S
O347 U326 2.449 1_556 S
O347 C343 1.282 . S
H348 C321 0.931 . S
H349 C323 0.929 . S
H350 C324 0.930 . S
H351 C325 0.931 . S
H352 C332 0.932 . S
H353 C333 0.930 . S
H354 C334 0.929 . S
H355 C336 0.930 . S
H356 C338 0.932 . S
H357 C339 0.929 . S
H358 C340 0.928 . S
H359 C342 0.932 . S
C360 C361 1.264 . S
C360 C365 1.479 . S
C360 C370 1.465 . S
C361 C360 1.264 . S
C361 C363 1.339 . S
C361 H388 0.931 . S
C362 C363 1.395 . S
C362 C364 1.320 . S
C363 C361 1.339 . S
C363 C362 1.395 . S
C363 H389 0.929 . S
C364 C362 1.320 . S
C364 C365 1.405 . S
C364 H390 0.930 . S
C365 C360 1.479 . S
C365 C364 1.405 . S
C365 H391 0.931 . S
U366 O367 2.454 . S
U366 O368 2.458 . S
U366 C369 2.984 . S
U366 C370 2.847 . S
U366 C383 2.882 . S
U366 O384 2.441 . S
U366 O385 2.420 . S
U366 O386 2.455 . S
U366 O387 2.449 . S
O367 U366 2.454 . S
O367 C369 1.353 . S
O368 U366 2.458 . S
O368 C369 1.286 . S
C369 U366 2.984 . S
C369 O367 1.353 . S
C369 O368 1.286 . S
C369 C371 1.363 . S
C370 C360 1.465 . S
C370 U366 2.847 . S
C370 O384 1.249 . S
C370 O385 1.202 . S
C371 C369 1.363 . S
C371 C373 1.408 . S
C371 C376 1.342 . S
C372 C373 1.310 . S
C372 C375 1.461 . S
C372 H392 0.932 . S
C373 C371 1.408 . S
C373 C372 1.310 . S
C373 H393 0.930 . S
C374 C375 1.474 . S
C374 C376 1.285 . S
C374 H394 0.929 1_455 S
C375 C372 1.461 . S
C375 C374 1.474 . S
C376 C371 1.342 . S
C376 C374 1.285 . S
C376 H395 0.930 . S
C377 C380 1.424 . S
C377 C382 1.245 . S
C377 C383 1.428 . S
C378 C381 1.260 . S
C378 C382 1.477 . S
C378 H396 0.932 . S
C379 C380 1.384 . S
C379 C381 1.479 . S
C379 H397 0.929 . S
C380 C377 1.424 . S
C380 C379 1.384 . S
C380 H398 0.928 . S
C381 C378 1.260 . S
C381 C379 1.479 . S
C382 C377 1.245 . S
C382 C378 1.477 . S
C382 H399 0.932 . S
C383 U366 2.882 . S
C383 C377 1.428 . S
C383 O386 1.301 . S
C383 O387 1.282 . S
O384 U366 2.441 . S
O384 C370 1.249 . S
O385 U366 2.420 . S
O385 C370 1.202 . S
O386 U366 2.455 . S
O386 C383 1.301 . S
O387 U366 2.449 . S
O387 C383 1.282 . S
H388 C361 0.931 . S
H389 C363 0.929 . S
H390 C364 0.930 . S
H391 C365 0.931 . S
H392 C372 0.932 . S
H393 C373 0.930 . S
H394 C374 0.929 1_655 S
H395 C376 0.930 . S
H396 C378 0.932 . S
H397 C379 0.929 . S
H398 C380 0.928 . S
H399 C382 0.932 . S
C400 C401 1.264 . S
C400 C405 1.479 . S
C400 C410 1.465 . S
C401 C400 1.264 . S
C401 C403 1.339 . S
C401 H428 0.931 . S
C402 C403 1.395 . S
C402 C404 1.320 . S
C403 C401 1.339 . S
C403 C402 1.395 . S
C403 H429 0.929 . S
C404 C402 1.320 . S
C404 C405 1.405 . S
C404 H430 0.930 . S
C405 C400 1.479 . S
C405 C404 1.405 . S
C405 H431 0.931 . S
U406 O407 2.454 . S
U406 O408 2.458 . S
U406 C409 2.984 . S
U406 C410 2.847 . S
U406 C423 2.882 . S
U406 O424 2.441 . S
U406 O425 2.420 . S
U406 O426 2.455 . S
U406 O427 2.449 . S
O407 U406 2.454 . S
O407 C409 1.353 . S
O408 U406 2.458 . S
O408 C409 1.286 . S
C409 U406 2.984 . S
C409 O407 1.353 . S
C409 O408 1.286 . S
C409 C411 1.363 . S
C410 C400 1.465 . S
C410 U406 2.847 . S
C410 O424 1.249 . S
C410 O425 1.202 . S
C411 C409 1.363 . S
C411 C413 1.408 . S
C411 C416 1.342 . S
C412 C413 1.310 . S
C412 C415 1.461 . S
C412 H432 0.932 . S
C413 C411 1.408 . S
C413 C412 1.310 . S
C413 H433 0.930 . S
C414 C415 1.474 . S
C414 C416 1.285 . S
C414 H434 0.929 1_545 S
C415 C412 1.461 . S
C415 C414 1.474 . S
C416 C411 1.342 . S
C416 C414 1.285 . S
C416 H435 0.930 . S
C417 C420 1.424 . S
C417 C422 1.245 . S
C417 C423 1.428 . S
C418 C421 1.260 . S
C418 C422 1.477 . S
C418 H436 0.932 . S
C419 C420 1.384 . S
C419 C421 1.479 . S
C419 H437 0.929 . S
C420 C417 1.424 . S
C420 C419 1.384 . S
C420 H438 0.928 . S
C421 C418 1.260 . S
C421 C419 1.479 . S
C422 C417 1.245 . S
C422 C418 1.477 . S
C422 H439 0.932 . S
C423 U406 2.882 . S
C423 C417 1.428 . S
C423 O426 1.301 . S
C423 O427 1.282 . S
O424 U406 2.441 . S
O424 C410 1.249 . S
O425 U406 2.420 . S
O425 C410 1.202 . S
O426 U406 2.455 . S
O426 C423 1.301 . S
O427 U406 2.449 . S
O427 C423 1.282 . S
H428 C401 0.931 . S
H429 C403 0.929 . S
H430 C404 0.930 . S
H431 C405 0.931 . S
H432 C412 0.932 . S
H433 C413 0.930 . S
H434 C414 0.929 1_565 S
H435 C416 0.930 . S
H436 C418 0.932 . S
H437 C419 0.929 . S
H438 C420 0.928 . S
H439 C422 0.932 . S
C440 C441 1.264 . S
C440 C445 1.479 . S
C440 C450 1.465 . S
C441 C440 1.264 . S
C441 C443 1.339 . S
C441 H468 0.931 . S
C442 C443 1.395 . S
C442 C444 1.320 . S
C443 C441 1.339 . S
C443 C442 1.395 . S
C443 H469 0.929 . S
C444 C442 1.320 . S
C444 C445 1.405 . S
C444 H470 0.930 . S
C445 C440 1.479 . S
C445 C444 1.405 . S
C445 H471 0.931 . S
U446 O447 2.454 . S
U446 O448 2.458 . S
U446 C449 2.984 . S
U446 C450 2.847 . S
U446 C463 2.882 . S
U446 O464 2.441 . S
U446 O465 2.420 . S
U446 O466 2.455 . S
U446 O467 2.449 . S
O447 U446 2.454 . S
O447 C449 1.353 . S
O448 U446 2.458 . S
O448 C449 1.286 . S
C449 U446 2.984 . S
C449 O447 1.353 . S
C449 O448 1.286 . S
C449 C451 1.363 . S
C450 C440 1.465 . S
C450 U446 2.847 . S
C450 O464 1.249 . S
C450 O465 1.202 . S
C451 C449 1.363 . S
C451 C453 1.408 . S
C451 C456 1.342 . S
C452 C453 1.310 . S
C452 C455 1.461 . S
C452 H472 0.932 . S
C453 C451 1.408 . S
C453 C452 1.310 . S
C453 H473 0.930 . S
C454 C455 1.474 . S
C454 C456 1.285 . S
C454 H474 0.929 . S
C455 C452 1.461 . S
C455 C454 1.474 . S
C456 C451 1.342 . S
C456 C454 1.285 . S
C456 H475 0.930 . S
C457 C460 1.424 . S
C457 C462 1.245 . S
C457 C463 1.428 . S
C458 C461 1.260 . S
C458 C462 1.477 . S
C458 H476 0.932 . S
C459 C460 1.384 . S
C459 C461 1.479 . S
C459 H477 0.929 . S
C460 C457 1.424 . S
C460 C459 1.384 . S
C460 H478 0.928 . S
C461 C458 1.260 . S
C461 C459 1.479 . S
C462 C457 1.245 . S
C462 C458 1.477 . S
C462 H479 0.932 . S
C463 U446 2.882 . S
C463 C457 1.428 . S
C463 O466 1.301 . S
C463 O467 1.282 . S
O464 U446 2.441 . S
O464 C450 1.249 . S
O465 U446 2.420 . S
O465 C450 1.202 . S
O466 U446 2.455 . S
O466 C463 1.301 . S
O467 U446 2.449 . S
O467 C463 1.282 . S
H468 C441 0.931 . S
H469 C443 0.929 . S
H470 C444 0.930 . S
H471 C445 0.931 . S
H472 C452 0.932 . S
H473 C453 0.930 . S
H474 C454 0.929 . S
H475 C456 0.930 . S
H476 C458 0.932 . S
H477 C459 0.929 . S
H478 C460 0.928 . S
H479 C462 0.932 . S
C21 C421 1.941 . S
C461 C61 1.937 . S
C261 C101 1.941 . S
C141 C301 1.942 . S
C341 C181 1.938 . S
C221 C381 1.942 . S
C2 C322 1.603 . S
C362 C42 1.603 . S
C82 C402 1.604 . S
C442 C122 1.603 . S
C162 C242 1.604 . S
C202 C282 1.604 . S
C15 C295 1.671 1_544 S
C335 C55 1.669 . S
C375 C95 1.671 1_455 S
C415 C135 1.671 1_545 S
C175 C455 1.669 . S
C255 C215 1.671 1_655 S
