# Generated by pormake.
# Topology qtz-x, (6)-cn, num edge types: 1
# Building blocks:
#     Node 0, Type 0, BuildingBlock: KUMJIN_clean_sbu_1, # of connection points: 6
#     Node 1, Type 0, BuildingBlock: KUMJIN_clean_sbu_1, # of connection points: 6
#     Node 2, Type 0, BuildingBlock: KUMJIN_clean_sbu_1, # of connection points: 6
#     Edge 3, Type (0, 0), BuildingBlock: ZUJKAS_clean_linker_0, # of connection points: 2
#     Edge 4, Type (0, 0), BuildingBlock: ZUJKAS_clean_linker_0, # of connection points: 2
#     Edge 5, Type (0, 0), BuildingBlock: ZUJKAS_clean_linker_0, # of connection points: 2
#     Edge 6, Type (0, 0), BuildingBlock: ZUJKAS_clean_linker_0, # of connection points: 2
#     Edge 7, Type (0, 0), BuildingBlock: ZUJKAS_clean_linker_0, # of connection points: 2
#     Edge 8, Type (0, 0), BuildingBlock: ZUJKAS_clean_linker_0, # of connection points: 2
#     Edge 9, Type (0, 0), BuildingBlock: ZUJKAS_clean_linker_0, # of connection points: 2
#     Edge 10, Type (0, 0), BuildingBlock: ZUJKAS_clean_linker_0, # of connection points: 2
#     Edge 11, Type (0, 0), BuildingBlock: ZUJKAS_clean_linker_0, # of connection points: 2
# Relax obj value: 0.204
# Max RMSD: 0.277
# Mean RMSD: 0.277
data_MOF--net-qtz-x--node1-KUMJIN_clean_sbu_1--edge1-ZUJKAS_clean_linker_0
_symmetry_space_group_name_H-M    P1
_symmetry_Int_Tables_number       1
_symmetry_cell_setting            triclinic
loop_
_symmetry_equiv_pos_as_xyz
'x, y, z'
_cell_length_a     19.303103
_cell_length_b     19.299683
_cell_length_c     63.924797
_cell_angle_alpha  90.008538
_cell_angle_beta   90.086976
_cell_angle_gamma 120.0
loop_
_atom_site_label
_atom_site_type_symbol
_atom_site_fract_x
_atom_site_fract_y
_atom_site_fract_z
_atom_type_partial_charge
Eu0 Eu 0.96076 0.39922 0.15068 0.0
C1 C 0.3318 0.51151 0.15838 0.0
N2 N 0.27188 0.45684 0.17064 0.0
C3 C 0.32611 0.36934 0.16862 0.0
C4 C 0.39112 0.49633 0.15049 0.0
C5 C 0.26836 0.3868 0.17597 0.0
C6 C 0.38768 0.42424 0.15578 0.0
C7 C 0.39332 0.63908 0.14028 0.0
C8 C 0.33238 0.58191 0.15323 0.0
C9 C 0.45219 0.62388 0.1323 0.0
C10 C 0.45113 0.55278 0.1374 0.0
Eu11 Eu 0.17583 0.48963 0.18183 0.0
N12 N 0.27353 0.59438 0.16084 0.0
C13 C 0.39381 0.7103 0.13589 0.0
C14 C 0.27684 0.6659 0.15761 0.0
C15 C 0.33599 0.72418 0.14483 0.0
H16 H 0.2214 0.34484 0.18608 0.0
H17 H 0.33751 0.78028 0.14211 0.0
H18 H 0.91986 0.54506 0.14107 0.0
H19 H 0.79898 0.12801 0.19812 0.0
H20 H 0.23575 0.67992 0.16517 0.0
H21 H 0.43961 0.75569 0.12602 0.0
H22 H 0.90591 0.22239 0.17495 0.0
H23 H 0.32311 0.3136 0.17285 0.0
H24 H 0.49908 0.66697 0.12223 0.0
H25 H 0.49699 0.54199 0.13111 0.0
H26 H 0.81711 0.58057 0.15045 0.0
H27 H 0.43214 0.41038 0.15002 0.0
H28 H 0.69109 0.15393 0.20893 0.0
N29 N 0.86608 0.43777 0.15871 0.0
C30 C 0.80408 0.38684 0.17104 0.0
C31 C 0.81287 0.52607 0.15639 0.0
C32 C 0.74369 0.40415 0.17662 0.0
C33 C 0.87132 0.50639 0.15128 0.0
C34 C 0.74872 0.47472 0.16911 0.0
N35 N 0.86279 0.3043 0.17349 0.0
C36 C 0.86114 0.23618 0.17996 0.0
C37 C 0.73905 0.26496 0.19166 0.0
C38 C 0.8022 0.31818 0.1786 0.0
C39 C 0.73863 0.19634 0.1989 0.0
C40 C 0.79965 0.1817 0.19291 0.0
H41 H 0.7035 0.49013 0.17305 0.0
H42 H 0.63377 0.36334 0.19401 0.0
H43 H 0.62949 0.24144 0.20708 0.0
O44 O 0.91049 0.30175 0.12802 0.0
O45 O 0.96154 0.43639 0.18451 0.0
O46 O 0.05446 0.40637 0.1953 0.0
O47 O 0.89846 0.40614 0.12288 0.0
O48 O 0.01864 0.32156 0.15257 0.0
O49 O 0.09108 0.35627 0.18347 0.0
O50 O 0.21886 0.57635 0.20741 0.0
O51 O 0.17291 0.45484 0.14766 0.0
O52 O 0.0781 0.48104 0.13446 0.0
O53 O 0.23881 0.47587 0.2085 0.0
O54 O 0.11843 0.56745 0.17972 0.0
O55 O 0.04818 0.53182 0.14849 0.0
C56 C 0.00338 0.42969 0.19965 0.0
C57 C 0.79781 0.28386 0.10889 0.0
C58 C 0.70425 0.23852 0.07961 0.0
C59 C 0.6431 0.18557 0.09308 0.0
C60 C 0.73624 0.23147 0.12226 0.0
C61 C 0.65914 0.18245 0.11432 0.0
C62 C 0.78155 0.2872 0.08772 0.0
C63 C 0.05849 0.30834 0.16729 0.0
C64 C 0.87996 0.33514 0.11634 0.0
C65 C 0.68078 0.3511 0.1896 0.0
C66 C 0.67842 0.28171 0.19707 0.0
C67 C 0.13719 0.4668 0.13173 0.0
C68 C 0.33364 0.59477 0.22524 0.0
C69 C 0.42224 0.66812 0.25433 0.0
C70 C 0.48792 0.69723 0.24063 0.0
C71 C 0.3997 0.6244 0.21181 0.0
C72 C 0.34503 0.61663 0.24642 0.0
C73 C 0.47653 0.67535 0.21952 0.0
C74 C 0.0796 0.58013 0.16461 0.0
C75 C 0.25227 0.54196 0.21746 0.0
H76 H 0.58291 0.14753 0.08725 0.0
H77 H 0.74781 0.22812 0.1387 0.0
H78 H 0.61171 0.14193 0.12464 0.0
H79 H 0.82981 0.32715 0.07745 0.0
H80 H 0.54818 0.73625 0.24627 0.0
H81 H 0.39191 0.60829 0.19544 0.0
H82 H 0.29351 0.59448 0.25665 0.0
H83 H 0.52742 0.69793 0.20912 0.0
Eu84 Eu 0.66366 0.14816 0.48391 0.0
C85 C 0.38599 0.79496 0.49477 0.0
N86 N 0.40916 0.85686 0.50832 0.0
C87 C 0.2728 0.82433 0.51257 0.0
C88 C 0.30523 0.74753 0.48873 0.0
C89 C 0.35347 0.86855 0.51832 0.0
C90 C 0.2488 0.76466 0.49734 0.0
C91 C 0.41904 0.70604 0.47604 0.0
C92 C 0.44196 0.77439 0.4885 0.0
C93 C 0.33978 0.66165 0.46884 0.0
C94 C 0.28297 0.68244 0.47515 0.0
Eu95 Eu 0.54814 0.93434 0.51502 0.0
N96 N 0.51784 0.81823 0.49582 0.0
C97 C 0.47573 0.68271 0.47192 0.0
C98 C 0.57202 0.79324 0.49301 0.0
C99 C 0.55208 0.72558 0.4808 0.0
H100 H 0.37139 0.91258 0.53064 0.0
H101 H 0.59568 0.7069 0.47813 0.0
H102 H 0.85687 0.21716 0.49326 0.0
H103 H 0.47567 0.27286 0.50837 0.0
H104 H 0.63123 0.82707 0.49972 0.0
H105 H 0.46046 0.63041 0.46245 0.0
H106 H 0.51428 0.19379 0.48619 0.0
H107 H 0.22917 0.83574 0.52002 0.0
H108 H 0.32119 0.60956 0.45899 0.0
H109 H 0.2214 0.64592 0.47011 0.0
H110 H 0.96413 0.31592 0.51643 0.0
H111 H 0.18616 0.72979 0.49309 0.0
H112 H 0.56798 0.36132 0.53582 0.0
N113 N 0.76913 0.24271 0.50491 0.0
C114 C 0.7528 0.28961 0.51742 0.0
C115 C 0.90485 0.30873 0.51695 0.0
C116 C 0.81161 0.34604 0.53097 0.0
C117 C 0.8444 0.25316 0.50388 0.0
C118 C 0.88814 0.35469 0.53074 0.0
N119 N 0.6228 0.22802 0.50266 0.0
C120 C 0.55317 0.2281 0.49889 0.0
C121 C 0.65885 0.33009 0.52901 0.0
C122 C 0.67709 0.28112 0.5165 0.0
C123 C 0.5843 0.32474 0.52652 0.0
C124 C 0.5319 0.27465 0.5111 0.0
H125 H 0.935 0.3975 0.54091 0.0
H126 H 0.83665 0.43569 0.55473 0.0
H127 H 0.70301 0.42201 0.55296 0.0
O128 O 0.67239 0.24072 0.46277 0.0
O129 O 0.69906 0.12774 0.51619 0.0
O130 O 0.57509 0.05196 0.52911 0.0
O131 O 0.74598 0.18757 0.45729 0.0
O132 O 0.52832 0.07732 0.48182 0.0
O133 O 0.49697 0.01767 0.51413 0.0
O134 O 0.61492 0.92926 0.54216 0.0
O135 O 0.57828 0.93272 0.48062 0.0
O136 O 0.57187 0.03875 0.46601 0.0
O137 O 0.48858 0.84618 0.53972 0.0
O138 O 0.6803 0.98183 0.50856 0.0
O139 O 0.72475 0.07479 0.48104 0.0
C140 C 0.65008 0.10515 0.53205 0.0
C141 C 0.79586 0.32092 0.44603 0.0
C142 C 0.878 0.41443 0.41881 0.0
C143 C 0.91865 0.47321 0.43419 0.0
C144 C 0.83677 0.38013 0.46122 0.0
C145 C 0.89819 0.45585 0.45529 0.0
C146 C 0.81672 0.33827 0.42495 0.0
C147 C 0.4767 0.0401 0.4969 0.0
C148 C 0.72878 0.24181 0.45147 0.0
C149 C 0.7925 0.39247 0.54406 0.0
C150 C 0.7163 0.38449 0.54309 0.0
C151 C 0.56539 0.96771 0.46464 0.0
C152 C 0.53929 0.89667 0.57309 0.0
C153 C 0.55436 0.89271 0.61093 0.0
C154 C 0.51773 0.93949 0.61345 0.0
C155 C 0.50156 0.94201 0.57601 0.0
C156 C 0.56551 0.87196 0.59056 0.0
C157 C 0.4913 0.9636 0.59609 0.0
C158 C 0.73229 0.02515 0.49383 0.0
C159 C 0.55118 0.87567 0.5518 0.0
H160 H 0.96643 0.53224 0.42992 0.0
H161 H 0.82071 0.36833 0.47755 0.0
H162 H 0.92965 0.50138 0.46706 0.0
H163 H 0.78357 0.29278 0.41324 0.0
H164 H 0.50753 0.95571 0.62889 0.0
H165 H 0.48041 0.96112 0.56272 0.0
H166 H 0.59454 0.83683 0.58828 0.0
H167 H 0.46253 0.99896 0.5982 0.0
Eu168 Eu 0.7102 0.43183 0.81613 0.0
C169 C 0.61237 0.6922 0.82821 0.0
N170 N 0.66959 0.68654 0.83926 0.0
C171 C 0.7597 0.82715 0.83538 0.0
C172 C 0.62757 0.76623 0.81994 0.0
C173 C 0.74207 0.75242 0.84319 0.0
C174 C 0.70234 0.83407 0.82364 0.0
C175 C 0.47865 0.62765 0.81344 0.0
C176 C 0.53904 0.62323 0.82483 0.0
C177 C 0.49403 0.70106 0.8049 0.0
C178 C 0.56825 0.77012 0.80814 0.0
Eu179 Eu 0.63625 0.55846 0.85139 0.0
N180 N 0.52602 0.55257 0.8331 0.0
C181 C 0.40382 0.55855 0.81139 0.0
C182 C 0.45098 0.48703 0.83264 0.0
C183 C 0.38953 0.48838 0.82138 0.0
H184 H 0.78601 0.74716 0.85243 0.0
H185 H 0.33068 0.43565 0.82075 0.0
H186 H 0.55481 0.25413 0.80304 0.0
H187 H 0.97536 0.5046 0.86334 0.0
H188 H 0.43663 0.43404 0.84143 0.0
H189 H 0.35587 0.55951 0.80281 0.0
H190 H 0.8887 0.53404 0.84145 0.0
H191 H 0.81747 0.87931 0.83842 0.0
H192 H 0.44848 0.70526 0.79598 0.0
H193 H 0.579 0.82636 0.80154 0.0
H194 H 0.50632 0.11073 0.80957 0.0
H195 H 0.71631 0.892 0.81754 0.0
H196 H 0.93655 0.36438 0.87119 0.0
N197 N 0.65977 0.29416 0.82129 0.0
C198 C 0.70615 0.27382 0.83282 0.0
C199 C 0.5624 0.15596 0.81628 0.0
C200 C 0.68156 0.19283 0.83669 0.0
C201 C 0.5893 0.23702 0.81284 0.0
C202 C 0.60866 0.13372 0.82829 0.0
N203 N 0.79854 0.41218 0.8378 0.0
C204 C 0.86942 0.47281 0.84517 0.0
C205 C 0.82613 0.3148 0.85352 0.0
C206 C 0.77757 0.33435 0.84124 0.0
C207 C 0.89756 0.37694 0.86171 0.0
C208 C 0.91948 0.4562 0.85739 0.0
H209 H 0.58769 0.07084 0.83092 0.0
H210 H 0.71206 0.11147 0.85202 0.0
H211 H 0.83861 0.21811 0.86668 0.0
O212 O 0.8093 0.47649 0.79404 0.0
O213 O 0.67377 0.39028 0.84966 0.0
O214 O 0.71188 0.51041 0.86496 0.0
O215 O 0.69839 0.3683 0.78685 0.0
O216 O 0.79739 0.56499 0.82047 0.0
O217 O 0.76841 0.59978 0.85263 0.0
O218 O 0.55418 0.52277 0.87796 0.0
O219 O 0.67708 0.59999 0.81806 0.0
O220 O 0.63749 0.48136 0.80116 0.0
O221 O 0.66203 0.63807 0.87813 0.0
O222 O 0.55326 0.42428 0.84764 0.0
O223 O 0.57956 0.39616 0.81447 0.0
C224 C 0.6883 0.43426 0.86647 0.0
C225 C 0.81681 0.37631 0.77447 0.0
C226 C 0.84638 0.30865 0.74663 0.0
C227 C 0.89897 0.29989 0.76015 0.0
C228 C 0.8691 0.36671 0.78787 0.0
C229 C 0.90995 0.32863 0.78068 0.0
C230 C 0.80571 0.34724 0.75397 0.0
C231 C 0.81561 0.61477 0.83636 0.0
C232 C 0.77236 0.41552 0.78144 0.0
C233 C 0.72995 0.17338 0.8489 0.0
C234 C 0.80202 0.23415 0.85727 0.0
C235 C 0.65765 0.55712 0.80087 0.0
C236 C 0.55053 0.62696 0.89629 0.0
C237 C 0.47604 0.64027 0.92538 0.0
C238 C 0.46658 0.69672 0.91363 0.0
C239 C 0.54007 0.68295 0.8848 0.0
C240 C 0.51812 0.60548 0.91645 0.0
C241 C 0.49821 0.71756 0.89347 0.0
C242 C 0.53328 0.37774 0.83102 0.0
C243 C 0.59552 0.59062 0.88771 0.0
H244 H 0.93084 0.27014 0.75493 0.0
H245 H 0.87859 0.38877 0.80377 0.0
H246 H 0.95023 0.32135 0.79105 0.0
H247 H 0.76599 0.35577 0.74363 0.0
H248 H 0.4357 0.72568 0.92009 0.0
H249 H 0.56457 0.70026 0.86924 0.0
H250 H 0.52526 0.56106 0.92506 0.0
H251 H 0.49071 0.76113 0.88459 0.0
H252 H 0.05923 0.65678 0.1314 0.0
H253 H 0.05397 0.7808 0.13215 0.0
H254 H 0.09224 0.79737 0.19889 0.0
H255 H 0.09693 0.67302 0.19837 0.0
H256 H 0.94513 0.81024 0.1573 0.0
H257 H 0.26716 0.0169 0.17473 0.0
H258 H 0.23039 0.91741 0.16438 0.0
H259 H 0.21688 0.93114 0.19154 0.0
C260 C 0.06625 0.68674 0.14624 0.0
C261 C 0.07819 0.65541 0.16485 0.0
C262 C 0.06342 0.75741 0.14661 0.0
C263 C 0.07339 0.79793 0.16554 0.0
C264 C 0.08554 0.76706 0.18413 0.0
H265 H 0.08343 0.23385 0.20025 0.0
H266 H 0.08266 0.10695 0.19977 0.0
C267 C 0.0882 0.69628 0.18379 0.0
C268 C 0.06976 0.87205 0.16587 0.0
H269 H 0.18208 0.07226 0.17506 0.0
C270 C 0.99681 0.86772 0.1611 0.0
C271 C 0.13753 0.94628 0.17091 0.0
C272 C 0.21771 0.95379 0.17553 0.0
C273 C 0.98948 0.93627 0.16154 0.0
C274 C 0.05736 0.0106 0.16652 0.0
C275 C 0.1303 0.01482 0.17128 0.0
C276 C 0.05434 0.08514 0.16681 0.0
C277 C 0.90907 0.92846 0.15709 0.0
C278 C 0.03897 0.11442 0.14838 0.0
C279 C 0.03948 0.18686 0.14857 0.0
C280 C 0.05618 0.23115 0.16718 0.0
C281 C 0.07112 0.2013 0.18564 0.0
C282 C 0.07046 0.12887 0.18543 0.0
H283 H 0.8596 0.86564 0.15867 0.0
H284 H 0.89755 0.96687 0.16781 0.0
H285 H 0.90838 0.94812 0.14082 0.0
H286 H 0.02792 0.08192 0.13379 0.0
H287 H 0.02824 0.2088 0.1341 0.0
H288 H 0.38742 0.01304 0.46199 0.0
H289 H 0.25702 0.00555 0.45929 0.0
H290 H 0.26042 0.04667 0.52572 0.0
H291 H 0.39106 0.05503 0.52848 0.0
H292 H 0.11003 0.89844 0.4828 0.0
H293 H 0.22816 0.22329 0.49628 0.0
H294 H 0.29111 0.18339 0.48836 0.0
H295 H 0.25879 0.17437 0.51504 0.0
C296 C 0.36013 0.02059 0.47596 0.0
C297 C 0.39836 0.03426 0.49544 0.0
C298 C 0.28593 0.01594 0.47442 0.0
C299 C 0.25004 0.02606 0.49229 0.0
C300 C 0.28795 0.0393 0.51178 0.0
H301 H 0.77527 0.93379 0.51721 0.0
H302 H 0.89913 0.92943 0.51484 0.0
C303 C 0.36194 0.0436 0.51335 0.0
C304 C 0.17317 0.02384 0.49055 0.0
H305 H 0.08712 0.13963 0.496 0.0
C306 C 0.10471 0.95106 0.48555 0.0
C307 C 0.1675 0.09309 0.49393 0.0
C308 C 0.24029 0.17325 0.49854 0.0
C309 C 0.02955 0.94527 0.48435 0.0
C310 C 0.02346 0.01394 0.48847 0.0
C311 C 0.09235 0.08712 0.49296 0.0
C312 C 0.946 0.01126 0.4887 0.0
C313 C 0.95748 0.86612 0.47863 0.0
C314 C 0.93212 0.05927 0.47487 0.0
C315 C 0.86176 0.06242 0.47622 0.0
C316 C 0.80438 0.0179 0.49157 0.0
C317 C 0.81803 0.96868 0.50517 0.0
C318 C 0.88849 0.96563 0.50378 0.0
H319 H 0.97491 0.8257 0.4708 0.0
H320 H 0.92413 0.83611 0.49307 0.0
H321 H 0.91656 0.87485 0.46814 0.0
H322 H 0.97635 0.09523 0.46322 0.0
H323 H 0.85325 0.10091 0.46547 0.0
H324 H 0.90917 0.68846 0.80248 0.0
H325 H 0.03351 0.81747 0.80161 0.0
H326 H 0.02075 0.84024 0.8684 0.0
H327 H 0.89654 0.71108 0.86949 0.0
H328 H 0.04747 0.96757 0.8173 0.0
H329 H 0.25327 0.88401 0.85628 0.0
H330 H 0.16053 0.81107 0.84412 0.0
H331 H 0.15933 0.85268 0.86913 0.0
C332 C 0.9334 0.72038 0.81703 0.0
C333 C 0.89323 0.68977 0.83606 0.0
C334 C 0.00412 0.79408 0.81648 0.0
C335 C 0.03619 0.83768 0.83495 0.0
C336 C 0.99713 0.80676 0.85403 0.0
H337 H 0.44915 0.29387 0.86514 0.0
H338 H 0.32581 0.16412 0.86572 0.0
C339 C 0.92615 0.73327 0.85459 0.0
C340 C 0.10861 0.91734 0.83415 0.0
H341 H 0.30396 0.02148 0.8494 0.0
C342 C 0.10377 0.97955 0.82422 0.0
C343 C 0.18137 0.93221 0.84331 0.0
C344 C 0.18963 0.86651 0.85371 0.0
C345 C 0.16993 0.05719 0.8235 0.0
C346 C 0.24298 0.0721 0.83258 0.0
C347 C 0.24774 0.00968 0.84248 0.0
C348 C 0.31536 0.15212 0.83204 0.0
C349 C 0.16052 0.12284 0.8135 0.0
C350 C 0.34999 0.18822 0.81289 0.0
C351 C 0.41997 0.26263 0.8125 0.0
C352 C 0.45701 0.30138 0.83127 0.0
C353 C 0.42172 0.26547 0.85042 0.0
C354 C 0.35161 0.19126 0.85079 0.0
H355 H 0.09667 0.10653 0.81241 0.0
H356 H 0.19362 0.1796 0.82243 0.0
H357 H 0.18514 0.1335 0.7974 0.0
H358 H 0.32359 0.15829 0.79825 0.0
H359 H 0.44564 0.28932 0.79753 0.0
H360 H 0.54296 0.61112 0.95978 0.0
H361 H 0.48632 0.57224 0.99485 0.0
H362 H 0.27909 0.58479 0.97516 0.0
H363 H 0.33305 0.61937 0.9398 0.0
H364 H 0.4483 0.65231 0.0228 0.0
H365 H 0.17572 0.36772 0.00229 0.0
H366 H 0.25736 0.4201 0.98419 0.0
H367 H 0.18379 0.45054 0.98758 0.0
C368 C 0.48462 0.60417 0.96278 0.0
C369 C 0.44234 0.61782 0.94686 0.0
C370 C 0.45266 0.58258 0.9829 0.0
C371 C 0.37781 0.57415 0.98754 0.0
C372 C 0.33606 0.589 0.97182 0.0
H373 H 0.09544 0.51619 0.09627 0.0
H374 H 0.15706 0.53919 0.06174 0.0
C375 C 0.36763 0.61 0.95166 0.0
C376 C 0.34446 0.55241 0.00899 0.0
H377 H 0.1779 0.42113 0.03627 0.0
C378 C 0.38959 0.60122 0.02578 0.0
C379 C 0.26802 0.48536 0.01289 0.0
C380 C 0.21879 0.42746 0.99581 0.0
C381 C 0.35903 0.5865 0.04623 0.0
C382 C 0.28158 0.52126 0.04992 0.0
C383 C 0.23713 0.47143 0.03327 0.0
C384 C 0.24428 0.50572 0.07083 0.0
C385 C 0.4085 0.64206 0.06368 0.0
C386 C 0.27233 0.47806 0.08724 0.0
C387 C 0.2368 0.46412 0.10699 0.0
C388 C 0.17322 0.4785 0.11068 0.0
C389 C 0.14461 0.50501 0.09404 0.0
C390 C 0.1797 0.51823 0.07429 0.0
H391 H 0.46239 0.69627 0.05773 0.0
H392 H 0.37213 0.66093 0.07295 0.0
H393 H 0.42832 0.61008 0.07439 0.0
H394 H 0.32142 0.46694 0.08474 0.0
H395 H 0.25904 0.4419 0.11928 0.0
H396 H 0.89422 0.31999 0.38983 0.0
H397 H 0.91477 0.34278 0.35221 0.0
H398 H 0.9262 0.57055 0.35912 0.0
H399 H 0.90496 0.54787 0.39694 0.0
H400 H 0.81208 0.36875 0.32482 0.0
H401 H 0.1276 0.6196 0.32396 0.0
H402 H 0.08459 0.55541 0.34642 0.0
H403 H 0.05816 0.63014 0.34055 0.0
C404 C 0.90123 0.37502 0.38337 0.0
C405 C 0.89757 0.43197 0.39631 0.0
C406 C 0.91315 0.38801 0.36191 0.0
C407 C 0.92209 0.45832 0.35295 0.0
C408 C 0.92031 0.51631 0.36582 0.0
H409 H 0.89516 0.46952 0.21503 0.0
H410 H 0.8727 0.48865 0.25185 0.0
C411 C 0.90839 0.50335 0.38738 0.0
C412 C 0.93035 0.46849 0.33001 0.0
H413 H 0.06536 0.57007 0.29141 0.0
C414 C 0.86699 0.4134 0.31743 0.0
C415 C 0.00218 0.52682 0.32057 0.0
C416 C 0.07245 0.58627 0.33348 0.0
C417 C 0.87466 0.41282 0.29564 0.0
C418 C 0.94734 0.46971 0.28621 0.0
C419 C 0.00959 0.52692 0.29873 0.0
C420 C 0.96342 0.4644 0.26383 0.0
C421 C 0.80668 0.34859 0.28301 0.0
C422 C 0.02299 0.44639 0.25842 0.0
C423 C 0.03601 0.43566 0.23755 0.0
C424 C 0.98981 0.44298 0.22163 0.0
C425 C 0.93128 0.46292 0.22699 0.0
C426 C 0.91828 0.47371 0.24798 0.0
H427 H 0.7603 0.3013 0.29309 0.0
H428 H 0.77786 0.37591 0.27374 0.0
H429 H 0.82921 0.32013 0.27192 0.0
H430 H 0.05839 0.43889 0.27043 0.0
H431 H 0.08186 0.4208 0.23396 0.0
H432 H 0.7179 0.7159 0.7924 0.0
H433 H 0.70352 0.7756 0.76015 0.0
H434 H 0.57586 0.54169 0.73176 0.0
H435 H 0.58696 0.48116 0.76426 0.0
H436 H 0.75608 0.7727 0.72021 0.0
H437 H 0.42532 0.62873 0.72175 0.0
H438 H 0.48287 0.63008 0.74418 0.0
H439 H 0.46056 0.55871 0.72349 0.0
C440 C 0.68551 0.67699 0.77943 0.0
C441 C 0.65198 0.5936 0.78106 0.0
C442 C 0.67805 0.71131 0.76094 0.0
C443 C 0.63732 0.66296 0.74369 0.0
C444 C 0.60584 0.57993 0.74506 0.0
H445 H 0.53045 0.74248 0.61759 0.0
H446 H 0.55706 0.68993 0.64957 0.0
C447 C 0.61281 0.5455 0.76359 0.0
C448 C 0.62862 0.69936 0.72416 0.0
H449 H 0.48976 0.6952 0.69024 0.0
C450 C 0.6979 0.75616 0.71371 0.0
C451 C 0.55259 0.67801 0.71579 0.0
C452 C 0.47607 0.62117 0.72697 0.0
C453 C 0.6931 0.79068 0.6948 0.0
C454 C 0.61713 0.76797 0.68626 0.0
C455 C 0.54793 0.71182 0.69679 0.0
C456 C 0.60773 0.80201 0.66643 0.0
C457 C 0.76911 0.84999 0.68387 0.0
C458 C 0.62803 0.88257 0.66533 0.0
C459 C 0.61275 0.91273 0.6471 0.0
C460 C 0.57722 0.86287 0.62962 0.0
C461 C 0.55889 0.78268 0.63065 0.0
C462 C 0.57357 0.75244 0.64894 0.0
H463 H 0.82238 0.84967 0.69036 0.0
H464 H 0.76504 0.83691 0.66685 0.0
H465 H 0.77798 0.91106 0.6858 0.0
H466 H 0.65367 0.92155 0.67875 0.0
H467 H 0.62792 0.97487 0.64677 0.0
H468 H 0.63899 0.27774 0.876 0.0
H469 H 0.63171 0.22081 0.9108 0.0
H470 H 0.72105 0.45389 0.93851 0.0
H471 H 0.72856 0.51141 0.90403 0.0
H472 H 0.79938 0.34819 0.94894 0.0
H473 H 0.47018 0.21087 0.96055 0.0
H474 H 0.50952 0.20184 0.93574 0.0
H475 H 0.52425 0.2971 0.94386 0.0
C476 C 0.6573 0.31693 0.8895 0.0
C477 C 0.68463 0.3992 0.88725 0.0
C478 C 0.65278 0.2842 0.90932 0.0
C479 C 0.6755 0.33331 0.92709 0.0
C480 C 0.70314 0.41525 0.9249 0.0
H481 H 0.75442 0.37345 0.05644 0.0
H482 H 0.74278 0.38343 0.01868 0.0
C483 C 0.70742 0.44792 0.90518 0.0
C484 C 0.67206 0.30063 0.94815 0.0
H485 H 0.547 0.21454 0.98969 0.0
C486 C 0.74412 0.31772 0.95778 0.0
C487 C 0.59969 0.26049 0.95945 0.0
C488 C 0.52114 0.24121 0.94952 0.0
C489 C 0.74619 0.2987 0.97883 0.0
C490 C 0.67456 0.26331 0.99057 0.0
C491 C 0.60176 0.24208 0.98062 0.0
C492 C 0.67593 0.25553 0.01354 0.0
C493 C 0.82539 0.3186 0.98851 0.0
C494 C 0.63927 0.18021 0.0232 0.0
C495 C 0.64588 0.17427 0.04487 0.0
C496 C 0.68906 0.24368 0.05708 0.0
C497 C 0.72228 0.31892 0.04738 0.0
C498 C 0.71568 0.32474 0.02583 0.0
H499 H 0.86902 0.32341 0.97646 0.0
H500 H 0.85092 0.3771 0.99666 0.0
H501 H 0.8179 0.27266 1.00015 0.0
H502 H 0.60775 0.12619 0.01391 0.0
H503 H 0.61987 0.11552 0.05193 0.0
H504 H 0.51974 0.81679 0.27079 0.0
H505 H 0.53913 0.85604 0.30763 0.0
H506 H 0.37044 0.61331 0.32541 0.0
H507 H 0.35065 0.57346 0.28853 0.0
H508 H 0.34496 0.72357 0.34609 0.0
H509 H 0.6643 0.80832 0.35093 0.0
H510 H 0.64456 0.85876 0.33019 0.0
H511 H 0.60092 0.75175 0.3293 0.0
C512 C 0.48748 0.77153 0.28255 0.0
C513 C 0.43409 0.69189 0.27674 0.0
C514 C 0.49866 0.79404 0.3036 0.0
C515 C 0.45733 0.73729 0.31928 0.0
C516 C 0.40322 0.65796 0.31355 0.0
H517 H 0.59156 0.84874 0.45076 0.0
H518 H 0.55676 0.78239 0.41665 0.0
C519 C 0.39179 0.63539 0.29248 0.0
C520 C 0.4695 0.76138 0.34161 0.0
H521 H 0.61384 0.85198 0.37902 0.0
C522 C 0.4036 0.75101 0.35337 0.0
C523 C 0.54572 0.79574 0.3512 0.0
C524 C 0.61777 0.80359 0.33983 0.0
C525 C 0.41251 0.77693 0.37424 0.0
C526 C 0.48961 0.81558 0.38341 0.0
C527 C 0.5549 0.82316 0.3719 0.0
C528 C 0.50464 0.85104 0.40467 0.0
C529 C 0.33925 0.76239 0.38627 0.0
C530 C 0.48703 0.91168 0.40927 0.0
C531 C 0.50582 0.94878 0.42886 0.0
C532 C 0.54314 0.92633 0.44419 0.0
C533 C 0.56085 0.86573 0.43953 0.0
C534 C 0.5417 0.82835 0.41996 0.0
H535 H 0.28391 0.7118 0.37954 0.0
H536 H 0.34371 0.74936 0.40299 0.0
H537 H 0.33345 0.8167 0.38547 0.0
H538 H 0.4603 0.9316 0.39755 0.0
H539 H 0.49161 0.99548 0.43193 0.0
H540 H 0.95992 0.32385 0.71839 0.0
H541 H 0.93987 0.2882 0.68111 0.0
H542 H 0.68622 0.19341 0.68823 0.0
H543 H 0.70527 0.22737 0.72543 0.0
H544 H 0.81398 0.12263 0.65981 0.0
H545 H 0.78396 0.38984 0.64363 0.0
H546 H 0.83682 0.3832 0.6662 0.0
H547 H 0.7295 0.32934 0.66573 0.0
C548 C 0.89974 0.29387 0.71209 0.0
C549 C 0.83423 0.27926 0.72475 0.0
C550 C 0.8885 0.27383 0.69083 0.0
C551 C 0.81174 0.23902 0.68203 0.0
C552 C 0.74595 0.2209 0.69481 0.0
H553 H 0.56957 0.117 0.56522 0.0
H554 H 0.61739 0.15217 0.60127 0.0
C555 C 0.75703 0.24074 0.71599 0.0
C556 C 0.80008 0.22649 0.65926 0.0
H557 H 0.74971 0.29595 0.61618 0.0
C558 C 0.80101 0.16092 0.65013 0.0
C559 C 0.78324 0.27684 0.64685 0.0
C560 C 0.78373 0.3492 0.65598 0.0
C561 C 0.78225 0.14255 0.62887 0.0
C562 C 0.76298 0.19165 0.61661 0.0
C563 C 0.76443 0.25849 0.62568 0.0
C564 C 0.73585 0.17186 0.5947 0.0
C565 C 0.78016 0.06926 0.61986 0.0
C566 C 0.78735 0.17313 0.57905 0.0
C567 C 0.75995 0.15267 0.55848 0.0
C568 C 0.68069 0.13048 0.55339 0.0
C569 C 0.6303 0.13201 0.56892 0.0
C570 C 0.65766 0.1525 0.58942 0.0
H571 H 0.78247 0.03002 0.63222 0.0
H572 H 0.72524 0.03407 0.61034 0.0
H573 H 0.83246 0.08805 0.60943 0.0
H574 H 0.84849 0.18971 0.58276 0.0
H575 H 0.8002 0.15272 0.54668 0.0
loop_
_geom_bond_atom_site_label_1
_geom_bond_atom_site_label_2
_geom_bond_distance
_geom_bond_site_symmetry_2
_ccdc_geom_bond_type
Eu0 N29 2.600 . S
Eu0 N35 2.562 . S
Eu0 O44 2.462 . S
Eu0 O45 2.373 . S
Eu0 O47 2.432 . S
Eu0 O48 2.291 . S
Eu0 O52 2.335 1_655 S
Eu0 O55 2.372 . S
Eu0 C64 2.787 . S
C1 N2 1.365 . S
C1 C4 1.405 . S
C1 C8 1.448 . S
N2 C1 1.365 . S
N2 C5 1.319 . S
N2 Eu11 2.600 . S
C3 C5 1.397 . S
C3 C6 1.367 . S
C3 H23 0.931 . S
C4 C1 1.405 . S
C4 C6 1.403 . S
C4 C10 1.439 . S
C5 N2 1.319 . S
C5 C3 1.397 . S
C5 H16 0.930 . S
C6 C3 1.367 . S
C6 C4 1.403 . S
C6 H27 0.929 . S
C7 C8 1.430 . S
C7 C9 1.387 . S
C7 C13 1.404 . S
C8 C1 1.448 . S
C8 C7 1.430 . S
C8 N12 1.351 . S
C9 C7 1.387 . S
C9 C10 1.374 . S
C9 H24 0.931 . S
C10 C4 1.439 . S
C10 C9 1.374 . S
C10 H25 0.931 . S
Eu11 N2 2.600 . S
Eu11 N12 2.562 . S
Eu11 O46 2.335 1_455 S
Eu11 O49 2.372 . S
Eu11 O50 2.462 . S
Eu11 O51 2.373 . S
Eu11 O53 2.432 . S
Eu11 O54 2.291 . S
Eu11 C75 2.787 . S
N12 C8 1.351 . S
N12 Eu11 2.562 . S
N12 C14 1.325 . S
C13 C7 1.404 . S
C13 C15 1.366 . S
C13 H21 0.930 . S
C14 N12 1.325 . S
C14 C15 1.416 . S
C14 H20 0.929 . S
C15 C13 1.366 . S
C15 C14 1.416 . S
C15 H17 0.930 . S
H16 C5 0.930 . S
H17 C15 0.930 . S
H18 C33 0.930 . S
H19 C40 0.930 . S
H20 C14 0.929 . S
H21 C13 0.930 . S
H22 C36 0.929 . S
H23 C3 0.931 . S
H24 C9 0.931 . S
H25 C10 0.931 . S
H26 C31 0.931 . S
H27 C6 0.929 . S
H28 C39 0.930 . S
N29 Eu0 2.600 . S
N29 C30 1.365 . S
N29 C33 1.319 . S
C30 N29 1.365 . S
C30 C32 1.405 . S
C30 C38 1.448 . S
C31 H26 0.931 . S
C31 C33 1.397 . S
C31 C34 1.367 . S
C32 C30 1.405 . S
C32 C34 1.403 . S
C32 C65 1.439 . S
C33 H18 0.930 . S
C33 N29 1.319 . S
C33 C31 1.397 . S
C34 C31 1.367 . S
C34 C32 1.403 . S
C34 H41 0.929 . S
N35 Eu0 2.562 . S
N35 C36 1.325 . S
N35 C38 1.351 . S
C36 H22 0.929 . S
C36 N35 1.325 . S
C36 C40 1.416 . S
C37 C38 1.430 . S
C37 C39 1.404 . S
C37 C66 1.387 . S
C38 C30 1.448 . S
C38 N35 1.351 . S
C38 C37 1.430 . S
C39 H28 0.930 . S
C39 C37 1.404 . S
C39 C40 1.366 . S
C40 H19 0.930 . S
C40 C36 1.416 . S
C40 C39 1.366 . S
H41 C34 0.929 . S
H42 C65 0.931 . S
H43 C66 0.931 . S
O44 Eu0 2.462 . S
O44 C64 1.252 . S
O45 Eu0 2.373 . S
O45 C56 1.249 . S
O46 Eu11 2.335 1_655 S
O46 C56 1.264 . S
O47 Eu0 2.432 . S
O47 C64 1.268 . S
O48 Eu0 2.291 . S
O48 C63 1.255 . S
O49 Eu11 2.372 . S
O49 C63 1.257 1_455 S
O50 Eu11 2.462 . S
O50 C75 1.252 . S
O51 Eu11 2.373 . S
O51 C67 1.249 . S
O52 Eu0 2.335 1_455 S
O52 C67 1.264 . S
O53 Eu11 2.432 . S
O53 C75 1.268 . S
O54 Eu11 2.291 . S
O54 C74 1.255 . S
O55 Eu0 2.372 . S
O55 C74 1.257 1_655 S
C56 O45 1.249 . S
C56 O46 1.264 . S
C57 C60 1.382 . S
C57 C62 1.390 . S
C57 C64 1.506 . S
C58 C59 1.398 . S
C58 C62 1.392 . S
C59 C58 1.398 . S
C59 C61 1.372 . S
C59 H76 0.931 . S
C60 C57 1.382 . S
C60 C61 1.390 . S
C60 H77 0.931 . S
C61 C59 1.372 . S
C61 C60 1.390 . S
C61 H78 0.929 . S
C62 C57 1.390 . S
C62 C58 1.392 . S
C62 H79 0.930 . S
C63 O48 1.255 . S
C63 O49 1.257 1_655 S
C64 Eu0 2.787 . S
C64 O44 1.252 . S
C64 O47 1.268 . S
C64 C57 1.506 . S
C65 C32 1.439 . S
C65 H42 0.931 . S
C65 C66 1.374 . S
C66 C37 1.387 . S
C66 H43 0.931 . S
C66 C65 1.374 . S
C67 O51 1.249 . S
C67 O52 1.264 . S
C68 C71 1.382 . S
C68 C72 1.390 . S
C68 C75 1.506 . S
C69 C70 1.398 . S
C69 C72 1.392 . S
C70 C69 1.398 . S
C70 C73 1.372 . S
C70 H80 0.931 . S
C71 C68 1.382 . S
C71 C73 1.390 . S
C71 H81 0.931 . S
C72 C68 1.390 . S
C72 C69 1.392 . S
C72 H82 0.930 . S
C73 C70 1.372 . S
C73 C71 1.390 . S
C73 H83 0.929 . S
C74 O54 1.255 . S
C74 O55 1.257 1_455 S
C75 Eu11 2.787 . S
C75 O50 1.252 . S
C75 O53 1.268 . S
C75 C68 1.506 . S
H76 C59 0.931 . S
H77 C60 0.931 . S
H78 C61 0.929 . S
H79 C62 0.930 . S
H80 C70 0.931 . S
H81 C71 0.931 . S
H82 C72 0.930 . S
H83 C73 0.929 . S
Eu84 N113 2.600 . S
Eu84 N119 2.562 . S
Eu84 O128 2.462 . S
Eu84 O129 2.373 . S
Eu84 O131 2.432 . S
Eu84 O132 2.291 . S
Eu84 O136 2.335 . S
Eu84 O139 2.372 . S
Eu84 C148 2.787 . S
C85 N86 1.365 . S
C85 C88 1.405 . S
C85 C92 1.448 . S
N86 C85 1.365 . S
N86 C89 1.319 . S
N86 Eu95 2.600 1_565 S
C87 C89 1.397 . S
C87 C90 1.367 . S
C87 H107 0.931 . S
C88 C85 1.405 . S
C88 C90 1.403 . S
C88 C94 1.439 . S
C89 N86 1.319 . S
C89 C87 1.397 . S
C89 H100 0.930 . S
C90 C87 1.367 . S
C90 C88 1.403 . S
C90 H111 0.929 . S
C91 C92 1.430 . S
C91 C93 1.387 . S
C91 C97 1.404 . S
C92 C85 1.448 . S
C92 C91 1.430 . S
C92 N96 1.351 . S
C93 C91 1.387 . S
C93 C94 1.374 . S
C93 H108 0.931 . S
C94 C88 1.439 . S
C94 C93 1.374 . S
C94 H109 0.931 . S
Eu95 N86 2.600 1_545 S
Eu95 N96 2.562 1_545 S
Eu95 O130 2.335 . S
Eu95 O133 2.372 . S
Eu95 O134 2.462 1_545 S
Eu95 O135 2.373 . S
Eu95 O137 2.432 1_545 S
Eu95 O138 2.291 . S
Eu95 C159 2.787 1_545 S
N96 C92 1.351 . S
N96 Eu95 2.562 1_565 S
N96 C98 1.325 . S
C97 C91 1.404 . S
C97 C99 1.366 . S
C97 H105 0.930 . S
C98 N96 1.325 . S
C98 C99 1.416 . S
C98 H104 0.929 . S
C99 C97 1.366 . S
C99 C98 1.416 . S
C99 H101 0.930 . S
H100 C89 0.930 . S
H101 C99 0.930 . S
H102 C117 0.930 . S
H103 C124 0.930 . S
H104 C98 0.929 . S
H105 C97 0.930 . S
H106 C120 0.929 . S
H107 C87 0.931 . S
H108 C93 0.931 . S
H109 C94 0.931 . S
H110 C115 0.931 . S
H111 C90 0.929 . S
H112 C123 0.930 . S
N113 Eu84 2.600 . S
N113 C114 1.365 . S
N113 C117 1.319 . S
C114 N113 1.365 . S
C114 C116 1.405 . S
C114 C122 1.448 . S
C115 H110 0.931 . S
C115 C117 1.397 1_455 S
C115 C118 1.367 . S
C116 C114 1.405 . S
C116 C118 1.403 1_655 S
C116 C149 1.439 . S
C117 H102 0.930 . S
C117 N113 1.319 . S
C117 C115 1.397 1_655 S
C118 C115 1.367 . S
C118 C116 1.403 1_455 S
C118 H125 0.929 . S
N119 Eu84 2.562 . S
N119 C120 1.325 . S
N119 C122 1.351 . S
C120 H106 0.929 . S
C120 N119 1.325 . S
C120 C124 1.416 . S
C121 C122 1.430 . S
C121 C123 1.404 . S
C121 C150 1.387 . S
C122 C114 1.448 . S
C122 N119 1.351 . S
C122 C121 1.430 . S
C123 H112 0.930 . S
C123 C121 1.404 . S
C123 C124 1.366 . S
C124 H103 0.930 . S
C124 C120 1.416 . S
C124 C123 1.366 . S
H125 C118 0.929 . S
H126 C149 0.931 1_455 S
H127 C150 0.931 . S
O128 Eu84 2.462 . S
O128 C148 1.252 . S
O129 Eu84 2.373 . S
O129 C140 1.249 . S
O130 Eu95 2.335 . S
O130 C140 1.264 . S
O131 Eu84 2.432 . S
O131 C148 1.268 . S
O132 Eu84 2.291 . S
O132 C147 1.255 . S
O133 Eu95 2.372 . S
O133 C147 1.257 . S
O134 Eu95 2.462 1_565 S
O134 C159 1.252 . S
O135 Eu95 2.373 . S
O135 C151 1.249 . S
O136 Eu84 2.335 . S
O136 C151 1.264 . S
O137 Eu95 2.432 1_565 S
O137 C159 1.268 . S
O138 Eu95 2.291 . S
O138 C158 1.255 . S
O139 Eu84 2.372 . S
O139 C158 1.257 . S
C140 O129 1.249 . S
C140 O130 1.264 . S
C141 C144 1.382 . S
C141 C146 1.390 . S
C141 C148 1.506 . S
C142 C143 1.398 . S
C142 C146 1.392 . S
C143 C142 1.398 . S
C143 C145 1.372 . S
C143 H160 0.931 . S
C144 C141 1.382 . S
C144 C145 1.390 . S
C144 H161 0.931 . S
C145 C143 1.372 . S
C145 C144 1.390 . S
C145 H162 0.929 . S
C146 C141 1.390 . S
C146 C142 1.392 . S
C146 H163 0.930 . S
C147 O132 1.255 . S
C147 O133 1.257 . S
C148 Eu84 2.787 . S
C148 O128 1.252 . S
C148 O131 1.268 . S
C148 C141 1.506 . S
C149 C116 1.439 . S
C149 H126 0.931 1_655 S
C149 C150 1.374 . S
C150 C121 1.387 . S
C150 H127 0.931 . S
C150 C149 1.374 . S
C151 O135 1.249 . S
C151 O136 1.264 . S
C152 C155 1.382 . S
C152 C156 1.390 . S
C152 C159 1.506 . S
C153 C154 1.398 . S
C153 C156 1.392 . S
C154 C153 1.398 . S
C154 C157 1.372 . S
C154 H164 0.931 . S
C155 C152 1.382 . S
C155 C157 1.390 . S
C155 H165 0.931 . S
C156 C152 1.390 . S
C156 C153 1.392 . S
C156 H166 0.930 . S
C157 C154 1.372 . S
C157 C155 1.390 . S
C157 H167 0.929 . S
C158 O138 1.255 . S
C158 O139 1.257 . S
C159 Eu95 2.787 1_565 S
C159 O134 1.252 . S
C159 O137 1.268 . S
C159 C152 1.506 . S
H160 C143 0.931 . S
H161 C144 0.931 . S
H162 C145 0.929 . S
H163 C146 0.930 . S
H164 C154 0.931 . S
H165 C155 0.931 . S
H166 C156 0.930 . S
H167 C157 0.929 . S
Eu168 N197 2.600 . S
Eu168 N203 2.562 . S
Eu168 O212 2.462 . S
Eu168 O213 2.373 . S
Eu168 O215 2.432 . S
Eu168 O216 2.291 . S
Eu168 O220 2.335 . S
Eu168 O223 2.372 . S
Eu168 C232 2.787 . S
C169 N170 1.365 . S
C169 C172 1.405 . S
C169 C176 1.448 . S
N170 C169 1.365 . S
N170 C173 1.319 . S
N170 Eu179 2.600 . S
C171 C173 1.397 . S
C171 C174 1.367 . S
C171 H191 0.931 . S
C172 C169 1.405 . S
C172 C174 1.403 . S
C172 C178 1.439 . S
C173 N170 1.319 . S
C173 C171 1.397 . S
C173 H184 0.930 . S
C174 C171 1.367 . S
C174 C172 1.403 . S
C174 H195 0.929 . S
C175 C176 1.430 . S
C175 C177 1.387 . S
C175 C181 1.404 . S
C176 C169 1.448 . S
C176 C175 1.430 . S
C176 N180 1.351 . S
C177 C175 1.387 . S
C177 C178 1.374 . S
C177 H192 0.931 . S
C178 C172 1.439 . S
C178 C177 1.374 . S
C178 H193 0.931 . S
Eu179 N170 2.600 . S
Eu179 N180 2.562 . S
Eu179 O214 2.335 . S
Eu179 O217 2.372 . S
Eu179 O218 2.462 . S
Eu179 O219 2.373 . S
Eu179 O221 2.432 . S
Eu179 O222 2.291 . S
Eu179 C243 2.787 . S
N180 C176 1.351 . S
N180 Eu179 2.562 . S
N180 C182 1.325 . S
C181 C175 1.404 . S
C181 C183 1.366 . S
C181 H189 0.930 . S
C182 N180 1.325 . S
C182 C183 1.416 . S
C182 H188 0.929 . S
C183 C181 1.366 . S
C183 C182 1.416 . S
C183 H185 0.930 . S
H184 C173 0.930 . S
H185 C183 0.930 . S
H186 C201 0.930 . S
H187 C208 0.930 1_455 S
H188 C182 0.929 . S
H189 C181 0.930 . S
H190 C204 0.929 . S
H191 C171 0.931 . S
H192 C177 0.931 . S
H193 C178 0.931 . S
H194 C199 0.931 . S
H195 C174 0.929 . S
H196 C207 0.916 1_455 S
N197 Eu168 2.600 . S
N197 C198 1.365 . S
N197 C201 1.319 . S
C198 N197 1.365 . S
C198 C200 1.405 . S
C198 C206 1.448 . S
C199 H194 0.931 . S
C199 C201 1.397 . S
C199 C202 1.367 . S
C200 C198 1.405 . S
C200 C202 1.403 . S
C200 C233 1.439 . S
C201 H186 0.930 . S
C201 N197 1.319 . S
C201 C199 1.397 . S
C202 C199 1.367 . S
C202 C200 1.403 . S
C202 H209 0.929 . S
N203 Eu168 2.562 . S
N203 C204 1.325 . S
N203 C206 1.351 . S
C204 H190 0.929 . S
C204 N203 1.325 . S
C204 C208 1.416 . S
C205 C206 1.430 . S
C205 C207 1.404 . S
C205 C234 1.387 . S
C206 C198 1.448 . S
C206 N203 1.351 . S
C206 C205 1.430 . S
C207 H196 0.916 1_655 S
C207 C205 1.404 . S
C207 C208 1.366 . S
C208 H187 0.930 1_655 S
C208 C204 1.416 . S
C208 C207 1.366 . S
H209 C202 0.929 . S
H210 C233 0.931 . S
H211 C234 0.931 . S
O212 Eu168 2.462 . S
O212 C232 1.252 . S
O213 Eu168 2.373 . S
O213 C224 1.249 . S
O214 Eu179 2.335 . S
O214 C224 1.264 . S
O215 Eu168 2.432 . S
O215 C232 1.268 . S
O216 Eu168 2.291 . S
O216 C231 1.255 . S
O217 Eu179 2.372 . S
O217 C231 1.257 . S
O218 Eu179 2.462 . S
O218 C243 1.252 . S
O219 Eu179 2.373 . S
O219 C235 1.249 . S
O220 Eu168 2.335 . S
O220 C235 1.264 . S
O221 Eu179 2.432 . S
O221 C243 1.268 . S
O222 Eu179 2.291 . S
O222 C242 1.255 . S
O223 Eu168 2.372 . S
O223 C242 1.257 . S
C224 O213 1.249 . S
C224 O214 1.264 . S
C225 C228 1.382 . S
C225 C230 1.390 . S
C225 C232 1.506 . S
C226 C227 1.398 . S
C226 C230 1.392 . S
C227 C226 1.398 . S
C227 C229 1.372 . S
C227 H244 0.931 . S
C228 C225 1.382 . S
C228 C229 1.390 . S
C228 H245 0.931 . S
C229 C227 1.372 . S
C229 C228 1.390 . S
C229 H246 0.929 . S
C230 C225 1.390 . S
C230 C226 1.392 . S
C230 H247 0.930 . S
C231 O216 1.255 . S
C231 O217 1.257 . S
C232 Eu168 2.787 . S
C232 O212 1.252 . S
C232 O215 1.268 . S
C232 C225 1.506 . S
C233 C200 1.439 . S
C233 H210 0.931 . S
C233 C234 1.374 . S
C234 C205 1.387 . S
C234 H211 0.931 . S
C234 C233 1.374 . S
C235 O219 1.249 . S
C235 O220 1.264 . S
C236 C239 1.382 . S
C236 C240 1.390 . S
C236 C243 1.506 . S
C237 C238 1.398 . S
C237 C240 1.392 . S
C238 C237 1.398 . S
C238 C241 1.372 . S
C238 H248 0.931 . S
C239 C236 1.382 . S
C239 C241 1.390 . S
C239 H249 0.931 . S
C240 C236 1.390 . S
C240 C237 1.392 . S
C240 H250 0.930 . S
C241 C238 1.372 . S
C241 C239 1.390 . S
C241 H251 0.929 . S
C242 O222 1.255 . S
C242 O223 1.257 . S
C243 Eu179 2.787 . S
C243 O218 1.252 . S
C243 O221 1.268 . S
C243 C236 1.506 . S
H244 C227 0.931 . S
H245 C228 0.931 . S
H246 C229 0.929 . S
H247 C230 0.930 . S
H248 C238 0.931 . S
H249 C239 0.931 . S
H250 C240 0.930 . S
H251 C241 0.929 . S
H252 C260 0.929 . S
H253 C262 0.930 . S
H254 C264 0.930 . S
H255 C267 0.929 . S
H256 C270 0.930 . S
H257 C272 0.960 1_545 S
H258 C272 0.960 . S
H259 C272 0.960 . S
C260 H252 0.929 . S
C260 C261 1.377 1_655 S
C260 C262 1.384 . S
C261 C260 1.377 1_455 S
C261 C267 1.390 . S
C262 H253 0.930 . S
C262 C260 1.384 . S
C262 C263 1.372 1_655 S
C263 C262 1.372 1_455 S
C263 C264 1.400 . S
C263 C268 1.500 . S
C264 H254 0.930 . S
C264 C263 1.400 . S
C264 C267 1.386 . S
H265 C281 0.930 1_455 S
H266 C282 0.931 1_455 S
C267 H255 0.929 . S
C267 C261 1.390 . S
C267 C264 1.386 . S
C268 C263 1.500 . S
C268 C270 1.378 1_455 S
C268 C271 1.409 . S
H269 C275 0.930 . S
C270 H256 0.930 . S
C270 C268 1.378 1_655 S
C270 C273 1.403 . S
C271 C268 1.409 . S
C271 C272 1.524 . S
C271 C275 1.400 1_565 S
C272 H257 0.960 1_565 S
C272 H258 0.960 . S
C272 H259 0.960 . S
C272 C271 1.524 . S
C273 C270 1.403 . S
C273 C274 1.392 1_565 S
C273 C277 1.495 . S
C274 C273 1.392 1_545 S
C274 C275 1.385 1_655 S
C274 C276 1.478 . S
C275 H269 0.930 . S
C275 C271 1.400 1_545 S
C275 C274 1.385 1_455 S
C276 C274 1.478 . S
C276 C278 1.381 . S
C276 C282 1.383 . S
C277 C273 1.495 . S
C277 H283 0.959 . S
C277 H284 0.961 . S
C277 H285 0.960 . S
C278 C276 1.381 . S
C278 C279 1.394 . S
C278 H286 0.930 . S
C279 C278 1.394 . S
C279 C280 1.383 . S
C279 H287 0.929 . S
C280 C279 1.383 . S
C280 C281 1.377 . S
C281 H265 0.930 1_655 S
C281 C280 1.377 . S
C281 C282 1.379 . S
C282 H266 0.931 1_655 S
C282 C276 1.383 . S
C282 C281 1.379 . S
H283 C277 0.959 . S
H284 C277 0.961 . S
H285 C277 0.960 . S
H286 C278 0.930 . S
H287 C279 0.929 . S
H288 C296 0.929 . S
H289 C298 0.930 . S
H290 C300 0.930 . S
H291 C303 0.929 . S
H292 C306 0.930 . S
H293 C308 0.960 . S
H294 C308 0.960 . S
H295 C308 0.960 . S
C296 H288 0.929 . S
C296 C297 1.377 . S
C296 C298 1.384 . S
C297 C296 1.377 . S
C297 C303 1.390 . S
C298 H289 0.930 . S
C298 C296 1.384 . S
C298 C299 1.372 . S
C299 C298 1.372 . S
C299 C300 1.400 . S
C299 C304 1.490 . S
C300 H290 0.930 . S
C300 C299 1.400 . S
C300 C303 1.386 . S
H301 C317 0.930 . S
H302 C318 0.931 . S
C303 H291 0.929 . S
C303 C297 1.390 . S
C303 C300 1.386 . S
C304 C299 1.490 . S
C304 C306 1.395 . S
C304 C307 1.403 . S
H305 C311 0.930 . S
C306 H292 0.930 . S
C306 C304 1.395 . S
C306 C309 1.403 . S
C307 C304 1.403 . S
C307 C308 1.524 . S
C307 C311 1.400 . S
C308 H293 0.960 . S
C308 H294 0.960 . S
C308 H295 0.960 . S
C308 C307 1.524 . S
C309 C306 1.403 . S
C309 C310 1.392 . S
C309 C313 1.495 1_545 S
C310 C309 1.392 . S
C310 C311 1.385 . S
C310 C312 1.478 . S
C311 H305 0.930 . S
C311 C307 1.400 . S
C311 C310 1.385 . S
C312 C310 1.478 . S
C312 C314 1.381 1_455 S
C312 C318 1.383 . S
C313 C309 1.495 1_565 S
C313 H319 0.959 . S
C313 H320 0.961 . S
C313 H321 0.960 . S
C314 C312 1.381 1_655 S
C314 C315 1.394 . S
C314 H322 0.930 . S
C315 C314 1.394 . S
C315 C316 1.383 . S
C315 H323 0.929 . S
C316 C315 1.383 . S
C316 C317 1.377 . S
C317 H301 0.930 . S
C317 C316 1.377 . S
C317 C318 1.379 1_655 S
C318 H302 0.931 . S
C318 C312 1.383 . S
C318 C317 1.379 1_455 S
H319 C313 0.959 . S
H320 C313 0.961 . S
H321 C313 0.960 . S
H322 C314 0.930 . S
H323 C315 0.929 . S
H324 C332 0.929 . S
H325 C334 0.930 . S
H326 C336 0.930 . S
H327 C339 0.929 . S
H328 C342 0.930 . S
H329 C344 0.960 . S
H330 C344 0.960 . S
H331 C344 0.960 . S
C332 H324 0.929 . S
C332 C333 1.377 . S
C332 C334 1.384 1_655 S
C333 C332 1.377 . S
C333 C339 1.390 . S
C334 H325 0.930 . S
C334 C332 1.384 1_455 S
C334 C335 1.372 . S
C335 C334 1.372 . S
C335 C336 1.400 1_455 S
C335 C340 1.490 . S
C336 H326 0.930 . S
C336 C335 1.400 1_655 S
C336 C339 1.386 . S
H337 C353 0.930 . S
H338 C354 0.931 . S
C339 H327 0.929 . S
C339 C333 1.390 . S
C339 C336 1.386 . S
C340 C335 1.490 . S
C340 C342 1.395 . S
C340 C343 1.403 . S
H341 C347 0.930 . S
C342 H328 0.930 . S
C342 C340 1.395 . S
C342 C345 1.403 . S
C343 C340 1.403 . S
C343 C344 1.524 . S
C343 C347 1.400 . S
C344 H329 0.960 . S
C344 H330 0.960 . S
C344 H331 0.960 . S
C344 C343 1.524 . S
C345 C342 1.403 . S
C345 C346 1.392 1_565 S
C345 C349 1.495 1_565 S
C346 C345 1.392 1_545 S
C346 C347 1.385 1_545 S
C346 C348 1.478 . S
C347 H341 0.930 . S
C347 C343 1.400 . S
C347 C346 1.385 1_565 S
C348 C346 1.478 . S
C348 C350 1.381 . S
C348 C354 1.383 . S
C349 C345 1.495 1_545 S
C349 H355 0.959 . S
C349 H356 0.961 . S
C349 H357 0.960 . S
C350 C348 1.381 . S
C350 C351 1.394 . S
C350 H358 0.930 . S
C351 C350 1.394 . S
C351 C352 1.383 . S
C351 H359 0.929 . S
C352 C351 1.383 . S
C352 C353 1.377 . S
C353 H337 0.930 . S
C353 C352 1.377 . S
C353 C354 1.379 . S
C354 H338 0.931 . S
C354 C348 1.383 . S
C354 C353 1.379 . S
H355 C349 0.959 . S
H356 C349 0.961 . S
H357 C349 0.960 . S
H358 C350 0.930 . S
H359 C351 0.929 . S
H360 C368 0.929 . S
H361 C370 0.930 1_554 S
H362 C372 0.930 . S
H363 C375 0.929 . S
H364 C378 0.930 . S
H365 C380 0.960 . S
H366 C380 0.960 . S
H367 C380 0.960 1_556 S
C368 H360 0.929 . S
C368 C369 1.377 . S
C368 C370 1.384 . S
C369 C368 1.377 . S
C369 C375 1.390 . S
C370 H361 0.930 1_556 S
C370 C368 1.384 . S
C370 C371 1.372 . S
C371 C370 1.372 . S
C371 C372 1.400 . S
C371 C376 1.490 1_556 S
C372 H362 0.930 . S
C372 C371 1.400 . S
C372 C375 1.386 . S
H373 C389 0.930 . S
H374 C390 0.931 . S
C375 H363 0.929 . S
C375 C369 1.390 . S
C375 C372 1.386 . S
C376 C371 1.490 1_554 S
C376 C378 1.395 . S
C376 C379 1.403 . S
H377 C383 0.930 . S
C378 H364 0.930 . S
C378 C376 1.395 . S
C378 C381 1.403 . S
C379 C376 1.403 . S
C379 C380 1.524 . S
C379 C383 1.400 . S
C380 H365 0.960 . S
C380 H366 0.960 . S
C380 H367 0.960 1_554 S
C380 C379 1.524 . S
C381 C378 1.403 . S
C381 C382 1.392 . S
C381 C385 1.495 . S
C382 C381 1.392 . S
C382 C383 1.385 . S
C382 C384 1.478 . S
C383 H377 0.930 . S
C383 C379 1.400 . S
C383 C382 1.385 . S
C384 C382 1.478 . S
C384 C386 1.381 . S
C384 C390 1.383 . S
C385 C381 1.495 . S
C385 H391 0.959 . S
C385 H392 0.961 . S
C385 H393 0.960 . S
C386 C384 1.381 . S
C386 C387 1.394 . S
C386 H394 0.930 . S
C387 C386 1.394 . S
C387 C388 1.383 . S
C387 H395 0.929 . S
C388 C387 1.383 . S
C388 C389 1.377 . S
C389 H373 0.930 . S
C389 C388 1.377 . S
C389 C390 1.379 . S
C390 H374 0.931 . S
C390 C384 1.383 . S
C390 C389 1.379 . S
H391 C385 0.959 . S
H392 C385 0.961 . S
H393 C385 0.960 . S
H394 C386 0.930 . S
H395 C387 0.929 . S
H396 C404 0.929 . S
H397 C406 0.930 . S
H398 C408 0.930 . S
H399 C411 0.929 . S
H400 C414 0.930 . S
H401 C416 0.960 . S
H402 C416 0.960 . S
H403 C416 0.960 . S
C404 H396 0.929 . S
C404 C405 1.377 . S
C404 C406 1.384 . S
C405 C404 1.377 . S
C405 C411 1.390 . S
C406 H397 0.930 . S
C406 C404 1.384 . S
C406 C407 1.372 . S
C407 C406 1.372 . S
C407 C408 1.400 . S
C407 C412 1.490 . S
C408 H398 0.930 . S
C408 C407 1.400 . S
C408 C411 1.386 . S
H409 C425 0.930 . S
H410 C426 0.931 . S
C411 H399 0.929 . S
C411 C405 1.390 . S
C411 C408 1.386 . S
C412 C407 1.490 . S
C412 C414 1.395 . S
C412 C415 1.403 . S
H413 C419 0.930 . S
C414 H400 0.930 . S
C414 C412 1.395 . S
C414 C417 1.403 . S
C415 C412 1.403 . S
C415 C416 1.524 . S
C415 C419 1.400 . S
C416 H401 0.960 . S
C416 H402 0.960 . S
C416 H403 0.960 . S
C416 C415 1.524 . S
C417 C414 1.403 . S
C417 C418 1.392 . S
C417 C421 1.495 . S
C418 C417 1.392 . S
C418 C419 1.385 . S
C418 C420 1.478 . S
C419 H413 0.930 . S
C419 C415 1.400 . S
C419 C418 1.385 . S
C420 C418 1.478 . S
C420 C422 1.381 . S
C420 C426 1.383 . S
C421 C417 1.495 . S
C421 H427 0.959 . S
C421 H428 0.961 . S
C421 H429 0.960 . S
C422 C420 1.381 . S
C422 C423 1.394 . S
C422 H430 0.930 . S
C423 C422 1.394 . S
C423 C424 1.383 . S
C423 H431 0.929 . S
C424 C423 1.383 . S
C424 C425 1.377 . S
C425 H409 0.930 . S
C425 C424 1.377 . S
C425 C426 1.379 . S
C426 H410 0.931 . S
C426 C420 1.383 . S
C426 C425 1.379 . S
H427 C421 0.959 . S
H428 C421 0.961 . S
H429 C421 0.960 . S
H430 C422 0.930 . S
H431 C423 0.929 . S
H432 C440 0.929 . S
H433 C442 0.930 . S
H434 C444 0.930 . S
H435 C447 0.929 . S
H436 C450 0.930 . S
H437 C452 0.960 . S
H438 C452 0.960 . S
H439 C452 0.960 . S
C440 H432 0.929 . S
C440 C441 1.377 . S
C440 C442 1.384 . S
C441 C440 1.377 . S
C441 C447 1.390 . S
C442 H433 0.930 . S
C442 C440 1.384 . S
C442 C443 1.372 . S
C443 C442 1.372 . S
C443 C444 1.400 . S
C443 C448 1.490 . S
C444 H434 0.930 . S
C444 C443 1.400 . S
C444 C447 1.386 . S
H445 C461 0.930 . S
H446 C462 0.931 . S
C447 H435 0.929 . S
C447 C441 1.390 . S
C447 C444 1.386 . S
C448 C443 1.490 . S
C448 C450 1.395 . S
C448 C451 1.403 . S
H449 C455 0.930 . S
C450 H436 0.930 . S
C450 C448 1.395 . S
C450 C453 1.403 . S
C451 C448 1.403 . S
C451 C452 1.524 . S
C451 C455 1.400 . S
C452 H437 0.960 . S
C452 H438 0.960 . S
C452 H439 0.960 . S
C452 C451 1.524 . S
C453 C450 1.403 . S
C453 C454 1.392 . S
C453 C457 1.495 . S
C454 C453 1.392 . S
C454 C455 1.385 . S
C454 C456 1.478 . S
C455 H449 0.930 . S
C455 C451 1.400 . S
C455 C454 1.385 . S
C456 C454 1.478 . S
C456 C458 1.381 . S
C456 C462 1.383 . S
C457 C453 1.495 . S
C457 H463 0.959 . S
C457 H464 0.961 . S
C457 H465 0.960 . S
C458 C456 1.381 . S
C458 C459 1.394 . S
C458 H466 0.930 . S
C459 C458 1.394 . S
C459 C460 1.383 . S
C459 H467 0.929 . S
C460 C459 1.383 . S
C460 C461 1.377 . S
C461 H445 0.930 . S
C461 C460 1.377 . S
C461 C462 1.379 . S
C462 H446 0.931 . S
C462 C456 1.383 . S
C462 C461 1.379 . S
H463 C457 0.959 . S
H464 C457 0.961 . S
H465 C457 0.960 . S
H466 C458 0.930 . S
H467 C459 0.929 . S
H468 C476 0.929 . S
H469 C478 0.930 . S
H470 C480 0.930 . S
H471 C483 0.929 . S
H472 C486 0.930 . S
H473 C488 0.960 . S
H474 C488 0.960 . S
H475 C488 0.960 . S
C476 H468 0.929 . S
C476 C477 1.377 . S
C476 C478 1.384 . S
C477 C476 1.377 . S
C477 C483 1.390 . S
C478 H469 0.930 . S
C478 C476 1.384 . S
C478 C479 1.372 . S
C479 C478 1.372 . S
C479 C480 1.400 . S
C479 C484 1.490 . S
C480 H470 0.930 . S
C480 C479 1.400 . S
C480 C483 1.386 . S
H481 C497 0.930 . S
H482 C498 0.931 . S
C483 H471 0.929 . S
C483 C477 1.390 . S
C483 C480 1.386 . S
C484 C479 1.490 . S
C484 C486 1.395 . S
C484 C487 1.403 . S
H485 C491 0.930 . S
C486 H472 0.930 . S
C486 C484 1.395 . S
C486 C489 1.403 . S
C487 C484 1.403 . S
C487 C488 1.524 . S
C487 C491 1.400 . S
C488 H473 0.960 . S
C488 H474 0.960 . S
C488 H475 0.960 . S
C488 C487 1.524 . S
C489 C486 1.403 . S
C489 C490 1.392 . S
C489 C493 1.495 . S
C490 C489 1.392 . S
C490 C491 1.385 . S
C490 C492 1.478 1_556 S
C491 H485 0.930 . S
C491 C487 1.400 . S
C491 C490 1.385 . S
C492 C490 1.478 1_554 S
C492 C494 1.381 . S
C492 C498 1.383 . S
C493 C489 1.495 . S
C493 H499 0.959 . S
C493 H500 0.961 . S
C493 H501 0.960 . S
C494 C492 1.381 . S
C494 C495 1.394 . S
C494 H502 0.930 . S
C495 C494 1.394 . S
C495 C496 1.383 . S
C495 H503 0.929 . S
C496 C495 1.383 . S
C496 C497 1.377 . S
C497 H481 0.930 . S
C497 C496 1.377 . S
C497 C498 1.379 . S
C498 H482 0.931 . S
C498 C492 1.383 . S
C498 C497 1.379 . S
H499 C493 0.959 . S
H500 C493 0.961 . S
H501 C493 0.960 . S
H502 C494 0.930 . S
H503 C495 0.929 . S
H504 C512 0.929 . S
H505 C514 0.930 . S
H506 C516 0.930 . S
H507 C519 0.929 . S
H508 C522 0.930 . S
H509 C524 0.960 . S
H510 C524 0.960 . S
H511 C524 0.960 . S
C512 H504 0.929 . S
C512 C513 1.377 . S
C512 C514 1.384 . S
C513 C512 1.377 . S
C513 C519 1.390 . S
C514 H505 0.930 . S
C514 C512 1.384 . S
C514 C515 1.372 . S
C515 C514 1.372 . S
C515 C516 1.400 . S
C515 C520 1.490 . S
C516 H506 0.930 . S
C516 C515 1.400 . S
C516 C519 1.386 . S
H517 C533 0.930 . S
H518 C534 0.931 . S
C519 H507 0.929 . S
C519 C513 1.390 . S
C519 C516 1.386 . S
C520 C515 1.490 . S
C520 C522 1.395 . S
C520 C523 1.403 . S
H521 C527 0.930 . S
C522 H508 0.930 . S
C522 C520 1.395 . S
C522 C525 1.403 . S
C523 C520 1.403 . S
C523 C524 1.524 . S
C523 C527 1.400 . S
C524 H509 0.960 . S
C524 H510 0.960 . S
C524 H511 0.960 . S
C524 C523 1.524 . S
C525 C522 1.403 . S
C525 C526 1.392 . S
C525 C529 1.495 . S
C526 C525 1.392 . S
C526 C527 1.385 . S
C526 C528 1.478 . S
C527 H521 0.930 . S
C527 C523 1.400 . S
C527 C526 1.385 . S
C528 C526 1.478 . S
C528 C530 1.381 1_565 S
C528 C534 1.383 . S
C529 C525 1.495 . S
C529 H535 0.959 . S
C529 H536 0.961 . S
C529 H537 0.960 . S
C530 C528 1.381 1_545 S
C530 C531 1.394 . S
C530 H538 0.930 . S
C531 C530 1.394 . S
C531 C532 1.383 1_545 S
C531 H539 0.929 . S
C532 C531 1.383 1_565 S
C532 C533 1.377 . S
C533 H517 0.930 . S
C533 C532 1.377 . S
C533 C534 1.379 . S
C534 H518 0.931 . S
C534 C528 1.383 . S
C534 C533 1.379 . S
H535 C529 0.959 . S
H536 C529 0.961 . S
H537 C529 0.960 . S
H538 C530 0.930 . S
H539 C531 0.929 . S
H540 C548 0.929 1_455 S
H541 C550 0.930 . S
H542 C552 0.930 . S
H543 C555 0.929 . S
H544 C558 0.930 . S
H545 C560 0.960 . S
H546 C560 0.960 . S
H547 C560 0.960 . S
C548 H540 0.929 1_655 S
C548 C549 1.377 . S
C548 C550 1.384 . S
C549 C548 1.377 . S
C549 C555 1.390 . S
C550 H541 0.930 . S
C550 C548 1.384 . S
C550 C551 1.372 . S
C551 C550 1.372 . S
C551 C552 1.400 . S
C551 C556 1.490 . S
C552 H542 0.930 . S
C552 C551 1.400 . S
C552 C555 1.386 . S
H553 C569 0.930 . S
H554 C570 0.931 . S
C555 H543 0.929 . S
C555 C549 1.390 . S
C555 C552 1.386 . S
C556 C551 1.490 . S
C556 C558 1.395 . S
C556 C559 1.403 . S
H557 C563 0.930 . S
C558 H544 0.930 . S
C558 C556 1.395 . S
C558 C561 1.403 . S
C559 C556 1.403 . S
C559 C560 1.524 . S
C559 C563 1.400 . S
C560 H545 0.960 . S
C560 H546 0.960 . S
C560 H547 0.960 . S
C560 C559 1.524 . S
C561 C558 1.403 . S
C561 C562 1.392 . S
C561 C565 1.495 . S
C562 C561 1.392 . S
C562 C563 1.385 . S
C562 C564 1.478 . S
C563 H557 0.930 . S
C563 C559 1.400 . S
C563 C562 1.385 . S
C564 C562 1.478 . S
C564 C566 1.381 . S
C564 C570 1.383 . S
C565 C561 1.495 . S
C565 H571 0.959 . S
C565 H572 0.961 . S
C565 H573 0.960 . S
C566 C564 1.381 . S
C566 C567 1.394 . S
C566 H574 0.930 . S
C567 C566 1.394 . S
C567 C568 1.383 . S
C567 H575 0.929 . S
C568 C567 1.383 . S
C568 C569 1.377 . S
C569 H553 0.930 . S
C569 C568 1.377 . S
C569 C570 1.379 . S
C570 H554 0.931 . S
C570 C564 1.383 . S
C570 C569 1.379 . S
H571 C565 0.959 . S
H572 C565 0.961 . S
H573 C565 0.960 . S
H574 C566 0.930 . S
H575 C567 0.929 . S
C261 C74 1.426 . S
C280 C63 1.438 . S
C297 C147 1.435 . S
C316 C158 1.446 . S
C333 C231 1.432 . S
C352 C242 1.413 . S
C369 C237 1.535 . S
C388 C67 1.674 . S
C405 C142 0.836 . S
C424 C56 1.104 . S
C441 C235 1.661 . S
C460 C153 1.565 . S
C477 C224 1.077 . S
C496 C58 0.891 . S
C513 C69 1.533 . S
C532 C151 1.635 1_565 S
C549 C226 0.872 . S
C568 C140 1.057 . S
