# Generated by pormake.
# Topology msp, (4)-cn, num edge types: 1
# Building blocks:
#     Node 0, Type 0, BuildingBlock: NAWXER_clean_sbu_0, # of connection points: 4
#     Node 1, Type 0, BuildingBlock: NAWXER_clean_sbu_0, # of connection points: 4
#     Node 2, Type 0, BuildingBlock: NAWXER_clean_sbu_0, # of connection points: 4
#     Node 3, Type 0, BuildingBlock: NAWXER_clean_sbu_0, # of connection points: 4
#     Node 4, Type 0, BuildingBlock: NAWXER_clean_sbu_0, # of connection points: 4
#     Node 5, Type 0, BuildingBlock: NAWXER_clean_sbu_0, # of connection points: 4
#     Node 6, Type 0, BuildingBlock: NAWXER_clean_sbu_0, # of connection points: 4
#     Node 7, Type 0, BuildingBlock: NAWXER_clean_sbu_0, # of connection points: 4
#     Edge 8, Type (0, 0), BuildingBlock: ZUJKAS_clean_linker_0, # of connection points: 2
#     Edge 9, Type (0, 0), BuildingBlock: ZUJKAS_clean_linker_0, # of connection points: 2
#     Edge 10, Type (0, 0), BuildingBlock: ZUJKAS_clean_linker_0, # of connection points: 2
#     Edge 11, Type (0, 0), BuildingBlock: ZUJKAS_clean_linker_0, # of connection points: 2
#     Edge 12, Type (0, 0), BuildingBlock: ZUJKAS_clean_linker_0, # of connection points: 2
#     Edge 13, Type (0, 0), BuildingBlock: ZUJKAS_clean_linker_0, # of connection points: 2
#     Edge 14, Type (0, 0), BuildingBlock: ZUJKAS_clean_linker_0, # of connection points: 2
#     Edge 15, Type (0, 0), BuildingBlock: ZUJKAS_clean_linker_0, # of connection points: 2
#     Edge 16, Type (0, 0), BuildingBlock: ZUJKAS_clean_linker_0, # of connection points: 2
#     Edge 17, Type (0, 0), BuildingBlock: ZUJKAS_clean_linker_0, # of connection points: 2
#     Edge 18, Type (0, 0), BuildingBlock: ZUJKAS_clean_linker_0, # of connection points: 2
#     Edge 19, Type (0, 0), BuildingBlock: ZUJKAS_clean_linker_0, # of connection points: 2
#     Edge 20, Type (0, 0), BuildingBlock: ZUJKAS_clean_linker_0, # of connection points: 2
#     Edge 21, Type (0, 0), BuildingBlock: ZUJKAS_clean_linker_0, # of connection points: 2
#     Edge 22, Type (0, 0), BuildingBlock: ZUJKAS_clean_linker_0, # of connection points: 2
#     Edge 23, Type (0, 0), BuildingBlock: ZUJKAS_clean_linker_0, # of connection points: 2
# Relax obj value: 0.113
# Max RMSD: 0.238
# Mean RMSD: 0.238
data_MOF--net-msp--node1-NAWXER_clean_sbu_0--edge1-ZUJKAS_clean_linker_0
_symmetry_space_group_name_H-M    P1
_symmetry_Int_Tables_number       1
_symmetry_cell_setting            triclinic
loop_
_symmetry_equiv_pos_as_xyz
'x, y, z'
_cell_length_a     29.681153
_cell_length_b     25.254594
_cell_length_c     57.770308
_cell_angle_alpha  89.991503
_cell_angle_beta   100.51533
_cell_angle_gamma 90.010588
loop_
_atom_site_label
_atom_site_type_symbol
_atom_site_fract_x
_atom_site_fract_y
_atom_site_fract_z
_atom_type_partial_charge
C0 C 0.09936 0.25613 0.39277 0.0
C1 C 0.96096 0.2834 0.33553 0.0
O2 O 0.09846 0.30293 0.38391 0.0
Zn3 Zn 0.05156 0.34827 0.35757 0.0
O4 O 0.06682 0.22413 0.38559 0.0
Zn5 Zn 0.03163 0.27171 0.36411 0.0
O6 O 0.07399 0.27815 0.33727 0.0
O7 O 0.08862 0.36316 0.33439 0.0
O8 O 0.9746 0.244 0.34845 0.0
O9 O 0.98603 0.32515 0.33696 0.0
O10 O 0.03769 0.40753 0.37599 0.0
O11 O 0.01476 0.33138 0.38836 0.0
C12 C 0.09356 0.31584 0.32791 0.0
C13 C 0.01984 0.3817 0.39087 0.0
C14 C 0.41055 0.31011 0.67465 0.0
C15 C 0.48402 0.37701 0.61179 0.0
O16 O 0.42989 0.27253 0.66509 0.0
Zn17 Zn 0.47206 0.26649 0.63816 0.0
O18 O 0.4157 0.35754 0.66836 0.0
Zn19 Zn 0.45253 0.343 0.64505 0.0
O20 O 0.40531 0.29838 0.61858 0.0
O21 O 0.43654 0.21948 0.61651 0.0
O22 O 0.46654 0.40259 0.62687 0.0
O23 O 0.48888 0.32662 0.61406 0.0
O24 O 0.5291 0.23832 0.65363 0.0
O25 O 0.51802 0.31928 0.66545 0.0
C26 C 0.40415 0.25177 0.60951 0.0
C27 C 0.54294 0.27745 0.66669 0.0
C28 C 0.91164 0.6927 0.67486 0.0
C29 C 0.98518 0.62563 0.61204 0.0
O30 O 0.91655 0.64524 0.66855 0.0
Zn31 Zn 0.95356 0.65962 0.64528 0.0
O32 O 0.93121 0.73017 0.66535 0.0
Zn33 Zn 0.97348 0.73606 0.63847 0.0
O34 O 0.93823 0.78331 0.61685 0.0
O35 O 0.90658 0.70461 0.61885 0.0
O36 O 0.99026 0.67597 0.6144 0.0
O37 O 0.96738 0.60005 0.62701 0.0
O38 O 0.0191 0.68302 0.66578 0.0
O39 O 0.03055 0.76393 0.654 0.0
C40 C 0.90565 0.75126 0.60983 0.0
C41 C 0.04417 0.72474 0.66706 0.0
C42 C 0.45891 0.72687 0.33701 0.0
C43 C 0.59783 0.75263 0.39404 0.0
O44 O 0.47264 0.76579 0.35022 0.0
Zn45 Zn 0.52983 0.73777 0.36551 0.0
O46 O 0.484 0.6852 0.33805 0.0
Zn47 Zn 0.54962 0.66154 0.35835 0.0
O48 O 0.53596 0.60156 0.37642 0.0
O49 O 0.51345 0.67718 0.38949 0.0
O50 O 0.59684 0.70614 0.38486 0.0
O51 O 0.56522 0.78473 0.3872 0.0
O52 O 0.57193 0.7325 0.33851 0.0
O53 O 0.58642 0.64764 0.33495 0.0
C54 C 0.5185 0.62679 0.39161 0.0
C55 C 0.59139 0.69523 0.32883 0.0
C56 C 0.59351 0.81262 0.82826 0.0
C57 C 0.52075 0.88092 0.89112 0.0
O58 O 0.57394 0.77536 0.8379 0.0
Zn59 Zn 0.53185 0.77005 0.8649 0.0
O60 O 0.58874 0.86018 0.83447 0.0
Zn61 Zn 0.5519 0.84626 0.85786 0.0
O62 O 0.59894 0.80138 0.88432 0.0
O63 O 0.56711 0.72285 0.88653 0.0
O64 O 0.53839 0.90617 0.876 0.0
O65 O 0.51553 0.83056 0.88893 0.0
O66 O 0.47461 0.74226 0.84954 0.0
O67 O 0.48622 0.82292 0.83751 0.0
C68 C 0.59981 0.75482 0.89343 0.0
C69 C 0.46102 0.78131 0.83639 0.0
C70 C 0.90907 0.81454 0.17494 0.0
C71 C 0.98308 0.8822 0.1124 0.0
O72 O 0.929 0.77721 0.16554 0.0
Zn73 Zn 0.97179 0.77169 0.13887 0.0
O74 O 0.91387 0.86203 0.16864 0.0
Zn75 Zn 0.95134 0.84794 0.14555 0.0
O76 O 0.90492 0.80253 0.11901 0.0
O77 O 0.93713 0.72411 0.1172 0.0
O78 O 0.965 0.90764 0.1273 0.0
O79 O 0.98845 0.8319 0.11481 0.0
O80 O 0.0289 0.74433 0.15457 0.0
O81 O 0.01684 0.82512 0.16628 0.0
C82 C 0.90442 0.75588 0.11003 0.0
C83 C 0.04217 0.78361 0.16763 0.0
C84 C 0.48423 0.13038 0.11111 0.0
C85 C 0.41134 0.19771 0.17408 0.0
O86 O 0.46656 0.10494 0.12616 0.0
Zn87 Zn 0.45302 0.16459 0.14443 0.0
O88 O 0.48945 0.18072 0.11341 0.0
Zn89 Zn 0.47308 0.24091 0.13759 0.0
O90 O 0.5303 0.26856 0.15306 0.0
O91 O 0.51867 0.18774 0.16487 0.0
O92 O 0.43092 0.23516 0.16457 0.0
O93 O 0.41614 0.15026 0.16774 0.0
O94 O 0.406 0.20977 0.11806 0.0
O95 O 0.43785 0.28835 0.11605 0.0
C96 C 0.54386 0.22936 0.16612 0.0
C97 C 0.40515 0.25643 0.10907 0.0
C98 C 0.9597 0.22671 0.83637 0.0
C99 C 0.09819 0.25535 0.8934 0.0
O100 O 0.97322 0.26637 0.84915 0.0
Zn101 Zn 0.03044 0.23916 0.86484 0.0
O102 O 0.98496 0.18512 0.83789 0.0
Zn103 Zn 0.05067 0.16263 0.85845 0.0
O104 O 0.03722 0.10347 0.87704 0.0
O105 O 0.01398 0.17961 0.88926 0.0
O106 O 0.09746 0.20848 0.88462 0.0
O107 O 0.06549 0.28711 0.8862 0.0
O108 O 0.07275 0.23272 0.83798 0.0
O109 O 0.08766 0.14775 0.83524 0.0
C110 C 0.01932 0.12934 0.89189 0.0
C111 C 0.09243 0.19505 0.82867 0.0
H112 H 0.98794 0.33689 0.42797 0.0
H113 H 0.98074 0.37878 0.46531 0.0
H114 H 0.02425 0.52773 0.44028 0.0
H115 H 0.03095 0.48649 0.40281 0.0
H116 H 0.05127 0.42596 0.49664 0.0
H117 H 0.91216 0.57088 0.46728 0.0
H118 H 0.92379 0.51625 0.44909 0.0
H119 H 0.95861 0.57496 0.45135 0.0
C120 C 0.99515 0.37881 0.43021 0.0
C121 C 0.00988 0.40833 0.41231 0.0
C122 C 0.9912 0.40263 0.45163 0.0
C123 C 1.00156 0.45651 0.45555 0.0
C124 C 0.01522 0.48637 0.43753 0.0
H125 H 0.01718 0.66988 0.57486 0.0
H126 H 0.0242 0.62761 0.53758 0.0
C127 C 0.01918 0.46262 0.4161 0.0
C128 C 1.0008 0.48065 0.47896 0.0
H129 H 0.9533 0.58044 0.50641 0.0
C130 C 0.02963 0.45953 0.49881 0.0
C131 C 0.97276 0.52464 0.48175 0.0
C132 C 0.93975 0.54778 0.46129 0.0
C133 C 0.03178 0.48173 0.5213 0.0
C134 C 0.00378 0.52576 0.52409 0.0
C135 C 0.97492 0.54685 0.50424 0.0
C136 C 0.00317 0.55008 0.54747 0.0
C137 C 0.06477 0.45859 0.54177 0.0
C138 C 0.98948 0.52044 0.56555 0.0
C139 C 0.98562 0.54442 0.58695 0.0
C140 C 0.99506 0.59871 0.59065 0.0
C141 C 0.00985 0.62798 0.57269 0.0
C142 C 0.01369 0.60393 0.55131 0.0
H143 H 0.09226 0.43529 0.53578 0.0
H144 H 0.08087 0.49015 0.55391 0.0
H145 H 0.04585 0.43162 0.55177 0.0
H146 H 0.98033 0.47909 0.56287 0.0
H147 H 0.9738 0.52074 0.60028 0.0
H148 H 0.48934 0.67048 0.42972 0.0
H149 H 0.48392 0.62721 0.46701 0.0
H150 H 0.52142 0.47815 0.4395 0.0
H151 H 0.52748 0.5211 0.40224 0.0
H152 H 0.4315 0.54137 0.47801 0.0
H153 H 0.61761 0.49662 0.4996 0.0
H154 H 0.59362 0.54204 0.47649 0.0
H155 H 0.58926 0.47179 0.47158 0.0
C156 C 0.49595 0.62836 0.43147 0.0
C157 C 0.50916 0.59937 0.41299 0.0
C158 C 0.49295 0.60372 0.45284 0.0
C159 C 0.50326 0.54971 0.45622 0.0
C160 C 0.51438 0.52015 0.43747 0.0
H161 H 0.51308 0.33257 0.5738 0.0
H162 H 0.51863 0.37528 0.53639 0.0
C163 C 0.51744 0.54472 0.4161 0.0
C164 C 0.50303 0.52458 0.47947 0.0
H165 H 0.57129 0.46103 0.52515 0.0
C166 C 0.46208 0.52397 0.48836 0.0
C167 C 0.54301 0.50192 0.49297 0.0
C168 C 0.58851 0.50342 0.48484 0.0
C169 C 0.45978 0.50046 0.51017 0.0
C170 C 0.49977 0.47786 0.52369 0.0
C171 C 0.54071 0.4784 0.51479 0.0
C172 C 0.49958 0.45304 0.547 0.0
C173 C 0.41429 0.49898 0.51832 0.0
C174 C 0.4886 0.48294 0.56568 0.0
C175 C 0.48547 0.4587 0.58712 0.0
C176 C 0.49354 0.40404 0.59035 0.0
C177 C 0.50663 0.3747 0.57195 0.0
C178 C 0.50971 0.39902 0.55051 0.0
H179 H 0.38518 0.50567 0.50354 0.0
H180 H 0.40922 0.4604 0.52671 0.0
H181 H 0.41351 0.53068 0.53153 0.0
H182 H 0.48169 0.52494 0.56356 0.0
H183 H 0.47553 0.48258 0.60092 0.0
H184 H 0.51492 0.17433 0.07345 0.0
H185 H 0.52076 0.13159 0.03609 0.0
H186 H 0.48047 0.9827 0.06262 0.0
H187 H 0.47406 0.02508 0.09993 0.0
H188 H 0.57259 0.04437 0.02524 0.0
H189 H 0.38581 0.00448 0.00196 0.0
H190 H 0.41 0.04926 0.0253 0.0
H191 H 0.41285 0.97893 0.0301 0.0
C192 C 0.50777 0.13235 0.07147 0.0
C193 C 0.49371 0.10325 0.08968 0.0
C194 C 0.51103 0.10802 0.05006 0.0
C195 C 0.50009 0.05423 0.04638 0.0
C196 C 0.48805 0.02454 0.06487 0.0
H197 H 0.48997 0.8374 0.92883 0.0
H198 H 0.48415 0.88047 0.96612 0.0
C199 C 0.48478 0.04879 0.08628 0.0
C200 C 0.50058 0.02943 0.0231 0.0
H201 H 0.43242 0.96773 0.97682 0.0
C202 C 0.54194 0.02781 0.0146 0.0
C203 C 0.4605 0.00786 0.00923 0.0
C204 C 0.41464 0.01052 0.01695 0.0
C205 C 0.54452 0.00426 0.99283 0.0
C206 C 0.50444 0.98266 0.97897 0.0
C207 C 0.46308 0.98432 0.98746 0.0
C208 C 0.50495 0.95768 0.95572 0.0
C209 C 0.59038 1.00158 0.98512 0.0
C210 C 0.51706 0.98719 0.93719 0.0
C211 C 0.52032 0.96274 0.91582 0.0
C212 C 0.51131 0.90828 0.9125 0.0
C213 C 0.49718 0.87937 0.93075 0.0
C214 C 0.49394 0.9039 0.95212 0.0
H215 H 0.6192 0.00769 1.0001 0.0
H216 H 0.59504 0.9628 0.9768 0.0
H217 H 0.59216 0.03311 0.97194 0.0
H218 H 0.5247 0.02902 0.93939 0.0
H219 H 0.5311 0.9863 0.90214 0.0
H220 H 0.97128 0.98703 0.10055 0.0
H221 H 0.9774 0.02855 0.06299 0.0
H222 H 0.02242 0.88033 0.03803 0.0
H223 H 0.01588 0.83822 0.0754 0.0
H224 H 0.05072 0.03926 0.03876 0.0
H225 H 0.91062 0.91815 0.98783 0.0
H226 H 0.92106 0.92156 0.01957 0.0
H227 H 0.95631 0.88038 0.0048 0.0
C228 C 0.98296 0.96331 0.08719 0.0
C229 C 0.99277 0.90913 0.09098 0.0
C230 C 0.98634 0.98714 0.06569 0.0
C231 C 0.99939 0.95728 0.04752 0.0
C232 C 0.01125 0.90384 0.05161 0.0
H233 H 0.03085 0.02469 0.90406 0.0
H234 H 0.02467 0.98382 0.94174 0.0
C235 C 0.00788 0.87995 0.07309 0.0
C236 C 0.99979 0.98189 0.02418 0.0
H237 H 0.95147 0.97378 0.96585 0.0
C238 C 0.02892 0.02511 0.02282 0.0
C239 C 0.97122 0.9634 0.00341 0.0
C240 C 0.9377 0.91864 0.00389 0.0
C241 C 0.03097 0.04967 1.0012 0.0
C242 C 0.00244 0.03115 0.98042 0.0
C243 C 0.97326 0.98796 0.98178 0.0
C244 C 0.00303 0.05549 0.95705 0.0
C245 C 0.06451 0.09441 1.00071 0.0
C246 C 0.99141 0.10897 0.95283 0.0
C247 C 0.99483 0.1325 0.93127 0.0
C248 C 0.00973 0.1029 0.91344 0.0
C249 C 0.01934 0.04872 0.91738 0.0
C250 C 0.01591 0.02527 0.93894 0.0
H251 H 0.09154 0.09495 0.01679 0.0
H252 H 0.08122 0.0914 0.98506 0.0
H253 H 0.04591 0.13268 0.99975 0.0
H254 H 0.98035 0.13275 0.96635 0.0
H255 H 0.987 0.17423 0.92885 0.0
H256 H 0.60552 0.31046 0.17119 0.0
H257 H 0.67657 0.31833 0.1998 0.0
H258 H 0.65254 0.16524 0.22831 0.0
H259 H 0.58134 0.15658 0.19944 0.0
H260 H 0.68642 0.31768 0.24866 0.0
H261 H 0.78475 0.15402 0.21713 0.0
H262 H 0.73325 0.18091 0.19959 0.0
H263 H 0.72957 0.13533 0.22306 0.0
C264 C 0.6154 0.27818 0.18341 0.0
C265 C 0.58777 0.23276 0.18299 0.0
C266 C 0.65602 0.28285 0.19977 0.0
C267 C 0.67003 0.24219 0.21599 0.0
C268 C 0.64272 0.19667 0.21564 0.0
H269 H 0.89932 0.20229 0.33031 0.0
H270 H 0.82829 0.19459 0.30168 0.0
C271 C 0.60197 0.19188 0.19921 0.0
C272 C 0.71251 0.24854 0.23373 0.0
H273 H 0.81846 0.19546 0.25291 0.0
C274 C 0.71539 0.29109 0.24957 0.0
C275 C 0.75017 0.21379 0.23481 0.0
C276 C 0.74965 0.16869 0.21763 0.0
C277 C 0.75472 0.29935 0.26677 0.0
C278 C 0.79237 0.26459 0.26785 0.0
C279 C 0.7895 0.22205 0.252 0.0
C280 C 0.83483 0.27087 0.28561 0.0
C281 C 0.75522 0.34443 0.28395 0.0
C282 C 0.86214 0.31641 0.28604 0.0
C283 C 0.90287 0.32111 0.30249 0.0
C284 C 0.91707 0.2801 0.31864 0.0
C285 C 0.88945 0.23466 0.31814 0.0
C286 C 0.84883 0.23009 0.30177 0.0
H287 H 0.72011 0.35906 0.28446 0.0
H288 H 0.77163 0.33219 0.30199 0.0
H289 H 0.77527 0.37781 0.27853 0.0
H290 H 0.85233 0.34794 0.27341 0.0
H291 H 0.9235 0.35644 0.30232 0.0
H292 H 0.58138 0.35059 0.6996 0.0
H293 H 0.65305 0.34196 0.72818 0.0
H294 H 0.6746 0.18708 0.70075 0.0
H295 H 0.60368 0.1954 0.67211 0.0
H296 H 0.67508 0.26194 0.76289 0.0
H297 H 0.79707 0.26249 0.70058 0.0
H298 H 0.73856 0.2849 0.69236 0.0
H299 H 0.75134 0.21528 0.69362 0.0
C300 C 0.6016 0.31491 0.69952 0.0
C301 C 0.58688 0.27378 0.68352 0.0
C302 C 0.64244 0.31002 0.71587 0.0
C303 C 0.66936 0.26419 0.71633 0.0
C304 C 0.65478 0.22319 0.70038 0.0
H305 H 0.92198 0.15251 0.80378 0.0
H306 H 0.85016 0.15977 0.77519 0.0
C307 C 0.61405 0.22797 0.68409 0.0
C308 C 0.71183 0.2581 0.73407 0.0
H309 H 0.82727 0.23899 0.74018 0.0
C310 C 0.70842 0.25725 0.75797 0.0
C311 C 0.75515 0.25158 0.72752 0.0
C312 C 0.761 0.25404 0.70214 0.0
C313 C 0.74719 0.24928 0.77554 0.0
C314 C 0.79053 0.24288 0.769 0.0
C315 C 0.79392 0.24361 0.7451 0.0
C316 C 0.83305 0.2375 0.78676 0.0
C317 C 0.74133 0.24682 0.80092 0.0
C318 C 0.84722 0.27892 0.80254 0.0
C319 C 0.88802 0.27493 0.81882 0.0
C320 C 0.91569 0.22949 0.81956 0.0
C321 C 0.90137 0.18791 0.80373 0.0
C322 C 0.86045 0.19202 0.78738 0.0
H323 H 0.70533 0.23794 0.80248 0.0
H324 H 0.76404 0.21627 0.81076 0.0
H325 H 0.75059 0.28574 0.80938 0.0
H326 H 0.82703 0.31477 0.80204 0.0
H327 H 0.89807 0.30782 0.83067 0.0
H328 H 0.10598 0.80566 0.67188 0.0
H329 H 0.17695 0.8138 0.70052 0.0
H330 H 0.15252 0.66139 0.72957 0.0
H331 H 0.08142 0.65244 0.70065 0.0
H332 H 0.18658 0.81429 0.74929 0.0
H333 H 0.28479 0.64926 0.71873 0.0
H334 H 0.23336 0.67587 0.70101 0.0
H335 H 0.22956 0.63097 0.72471 0.0
C336 C 0.11575 0.77358 0.68423 0.0
C337 C 0.08804 0.72828 0.68394 0.0
C338 C 0.15634 0.77841 0.70061 0.0
C339 C 0.17021 0.73802 0.71699 0.0
C340 C 0.14281 0.6926 0.71677 0.0
H341 H 0.39918 0.70044 0.83173 0.0
H342 H 0.32813 0.69218 0.80315 0.0
C343 C 0.10212 0.68765 0.70031 0.0
C344 C 0.21261 0.74459 0.73475 0.0
H345 H 0.31843 0.69151 0.75433 0.0
C346 C 0.21551 0.78757 0.75037 0.0
C347 C 0.25021 0.70967 0.73606 0.0
C348 C 0.24969 0.66409 0.71912 0.0
C349 C 0.25479 0.79612 0.76755 0.0
C350 C 0.29239 0.76121 0.76886 0.0
C351 C 0.2895 0.71822 0.75325 0.0
C352 C 0.33483 0.76785 0.78659 0.0
C353 C 0.25533 0.84171 0.78448 0.0
C354 C 0.36223 0.81324 0.78672 0.0
C355 C 0.40297 0.81826 0.80314 0.0
C356 C 0.41709 0.77772 0.81955 0.0
C357 C 0.38937 0.73245 0.81935 0.0
C358 C 0.34874 0.72756 0.80301 0.0
H359 H 0.22023 0.85655 0.78488 0.0
H360 H 0.27167 0.82993 0.80259 0.0
H361 H 0.27546 0.87482 0.77889 0.0
H362 H 0.35248 0.84438 0.7739 0.0
H363 H 0.42368 0.85345 0.80274 0.0
H364 H 0.39661 0.80719 0.33301 0.0
H365 H 0.32543 0.8158 0.30456 0.0
H366 H 0.35061 0.6652 0.27412 0.0
H367 H 0.42189 0.65575 0.30286 0.0
H368 H 0.31534 0.81881 0.25592 0.0
H369 H 0.21867 0.65049 0.28489 0.0
H370 H 0.27006 0.67677 0.30279 0.0
H371 H 0.2739 0.63322 0.27862 0.0
C372 C 0.38696 0.7756 0.3204 0.0
C373 C 0.41492 0.73066 0.32025 0.0
C374 C 0.34625 0.78069 0.30413 0.0
C375 C 0.33252 0.74094 0.28741 0.0
C376 C 0.36019 0.69589 0.28719 0.0
H377 H 0.10508 0.70394 0.17212 0.0
H378 H 0.17587 0.69616 0.20089 0.0
C379 C 0.40098 0.69066 0.30354 0.0
C380 C 0.29 0.74781 0.26975 0.0
H381 H 0.18486 0.69365 0.24953 0.0
C382 C 0.2867 0.79159 0.25455 0.0
C383 C 0.25276 0.71225 0.26808 0.0
C384 C 0.25367 0.66578 0.28458 0.0
C385 C 0.24741 0.80026 0.23738 0.0
C386 C 0.21021 0.76462 0.23567 0.0
C387 C 0.21348 0.72091 0.25091 0.0
C388 C 0.16792 0.77108 0.21782 0.0
C389 C 0.24648 0.84673 0.22088 0.0
C390 C 0.13991 0.81591 0.2178 0.0
C391 C 0.09932 0.82067 0.20125 0.0
C392 C 0.08595 0.7804 0.1846 0.0
C393 C 0.11428 0.73571 0.18469 0.0
C394 C 0.15477 0.7311 0.20114 0.0
H395 H 0.28142 0.86236 0.22072 0.0
H396 H 0.23047 0.83557 0.20264 0.0
H397 H 0.22585 0.87909 0.2267 0.0
H398 H 0.14904 0.84678 0.23082 0.0
H399 H 0.07811 0.8554 0.20175 0.0
H400 H 0.39078 0.29506 0.19038 0.0
H401 H 0.3377 0.31505 0.21703 0.0
H402 H 0.30983 0.14849 0.22281 0.0
H403 H 0.36317 0.12802 0.19649 0.0
H404 H 0.24442 0.29129 0.21018 0.0
H405 H 0.3373 0.19566 0.29153 0.0
H406 H 0.36425 0.20985 0.26662 0.0
H407 H 0.32777 0.15291 0.26628 0.0
C408 C 0.37379 0.2626 0.19753 0.0
C409 C 0.38141 0.2099 0.19135 0.0
C410 C 0.34336 0.27413 0.21271 0.0
C411 C 0.32022 0.23324 0.22214 0.0
C412 C 0.32799 0.18061 0.21614 0.0
H413 H 0.11441 0.21884 0.3114 0.0
H414 H 0.16771 0.19943 0.2848 0.0
C415 C 0.35839 0.16902 0.20098 0.0
C416 C 0.28643 0.24572 0.2374 0.0
H417 H 0.26102 0.22365 0.29192 0.0
C418 C 0.24816 0.27679 0.22811 0.0
C419 C 0.29128 0.22655 0.26074 0.0
C420 C 0.33256 0.19479 0.272 0.0
C421 C 0.21418 0.28843 0.24138 0.0
C422 C 0.219 0.2692 0.2647 0.0
C423 C 0.25729 0.23817 0.274 0.0
C424 C 0.18507 0.28138 0.27992 0.0
C425 C 0.17291 0.32021 0.23012 0.0
C426 C 0.17715 0.3339 0.28603 0.0
C427 C 0.14664 0.34516 0.30117 0.0
C428 C 0.12363 0.30405 0.31066 0.0
C429 C 0.13139 0.25147 0.30436 0.0
C430 C 0.16194 0.24027 0.2892 0.0
H431 H 0.16829 0.31962 0.2106 0.0
H432 H 0.14119 0.30495 0.23541 0.0
H433 H 0.17759 0.36202 0.23597 0.0
H434 H 0.1953 0.36618 0.27946 0.0
H435 H 0.14174 0.38607 0.30576 0.0
H436 H 0.36283 0.38014 0.69712 0.0
H437 H 0.30967 0.36001 0.72364 0.0
H438 H 0.33569 0.1932 0.71718 0.0
H439 H 0.38933 0.2129 0.69082 0.0
H440 H 0.22997 0.29872 0.71334 0.0
H441 H 0.35206 0.21417 0.78856 0.0
H442 H 0.37059 0.25246 0.76561 0.0
H443 H 0.35449 0.18422 0.76061 0.0
C444 C 0.35768 0.33916 0.70152 0.0
C445 C 0.38051 0.29813 0.69188 0.0
C446 C 0.32717 0.32775 0.71664 0.0
C447 C 0.31907 0.27518 0.72259 0.0
C448 C 0.34206 0.23413 0.71318 0.0
H449 H 0.14035 0.1248 0.8064 0.0
H450 H 0.19348 0.14468 0.77983 0.0
C451 C 0.37259 0.24547 0.69803 0.0
C452 C 0.28512 0.26328 0.73782 0.0
H453 H 0.27294 0.20585 0.78985 0.0
C454 C 0.23937 0.27864 0.73013 0.0
C455 C 0.29746 0.23694 0.75967 0.0
C456 C 0.34638 0.22135 0.76927 0.0
C457 C 0.20544 0.2676 0.74352 0.0
C458 C 0.21778 0.24129 0.76538 0.0
C459 C 0.26354 0.22591 0.77306 0.0
C460 C 0.18385 0.22951 0.78064 0.0
C461 C 0.15652 0.28315 0.7339 0.0
C462 C 0.16075 0.27063 0.78993 0.0
C463 C 0.13023 0.25942 0.8051 0.0
C464 C 0.12244 0.20684 0.8114 0.0
C465 C 0.14539 0.16573 0.80189 0.0
C466 C 0.17588 0.177 0.78673 0.0
H467 H 0.15082 0.29006 0.71459 0.0
H468 H 0.13229 0.25216 0.73765 0.0
H469 H 0.14846 0.32044 0.74245 0.0
H470 H 0.16702 0.31152 0.78583 0.0
H471 H 0.1134 0.29206 0.81221 0.0
H472 H 0.64131 0.88186 0.80542 0.0
H473 H 0.69441 0.86081 0.77898 0.0
H474 H 0.66805 0.6943 0.78626 0.0
H475 H 0.61445 0.71492 0.81251 0.0
H476 H 0.77393 0.79967 0.78957 0.0
H477 H 0.65193 0.71312 0.71484 0.0
H478 H 0.63336 0.752 0.73759 0.0
H479 H 0.64952 0.68389 0.74293 0.0
C480 C 0.64636 0.84075 0.80121 0.0
C481 C 0.62345 0.80008 0.81105 0.0
C482 C 0.67684 0.82881 0.78613 0.0
C483 C 0.68484 0.77605 0.78045 0.0
C484 C 0.66176 0.73535 0.79005 0.0
H485 H 0.86383 0.62302 0.6975 0.0
H486 H 0.81066 0.6436 0.72396 0.0
C487 C 0.63125 0.74723 0.80514 0.0
C488 C 0.71881 0.76359 0.76529 0.0
H489 H 0.73107 0.70451 0.71363 0.0
C490 C 0.76455 0.77909 0.7729 0.0
C491 C 0.70651 0.73658 0.74361 0.0
C492 C 0.6576 0.72079 0.73409 0.0
C493 C 0.7985 0.76757 0.75959 0.0
C494 C 0.78619 0.74062 0.7379 0.0
C495 C 0.74045 0.72507 0.7303 0.0
C496 C 0.82014 0.7284 0.72269 0.0
C497 C 0.8474 0.78334 0.76913 0.0
C498 C 0.84316 0.76927 0.71318 0.0
C499 C 0.8737 0.75767 0.69808 0.0
C500 C 0.88159 0.70492 0.69206 0.0
C501 C 0.85871 0.66406 0.70179 0.0
C502 C 0.82819 0.67573 0.71689 0.0
H503 H 0.8531 0.79076 0.7884 0.0
H504 H 0.87167 0.75224 0.76554 0.0
H505 H 0.85543 0.82039 0.76038 0.0
H506 H 0.83681 0.81027 0.71706 0.0
H507 H 0.89047 0.79012 0.69079 0.0
H508 H 0.88846 0.71702 0.19103 0.0
H509 H 0.83455 0.69657 0.21717 0.0
H510 H 0.80623 0.86295 0.22312 0.0
H511 H 0.86044 0.88391 0.19725 0.0
H512 H 0.81927 0.80895 0.26622 0.0
H513 H 0.69463 0.70404 0.1982 0.0
H514 H 0.75216 0.67903 0.20208 0.0
H515 H 0.73997 0.74497 0.19097 0.0
C516 C 0.87094 0.74933 0.19797 0.0
C517 C 0.87863 0.80211 0.19193 0.0
C518 C 0.83988 0.73751 0.21278 0.0
C519 C 0.81573 0.77817 0.22172 0.0
C520 C 0.82427 0.83095 0.21627 0.0
H521 H 0.61189 0.79288 0.31281 0.0
H522 H 0.66554 0.81351 0.28656 0.0
C523 C 0.8553 0.84282 0.20148 0.0
C524 C 0.7816 0.76583 0.2368 0.0
H525 H 0.6806 0.70125 0.23728 0.0
C526 C 0.78885 0.78558 0.25989 0.0
C527 C 0.74193 0.73535 0.22847 0.0
C528 C 0.73133 0.71496 0.20351 0.0
C529 C 0.75795 0.77485 0.27504 0.0
C530 C 0.71827 0.74436 0.26671 0.0
C531 C 0.71102 0.72463 0.24362 0.0
C532 C 0.68419 0.73193 0.28181 0.0
C533 C 0.7686 0.79518 0.30001 0.0
C534 C 0.67561 0.67911 0.28717 0.0
C535 C 0.64471 0.66713 0.30202 0.0
C536 C 0.62157 0.70778 0.31173 0.0
C537 C 0.62927 0.76062 0.30576 0.0
C538 C 0.66018 0.77253 0.29088 0.0
H539 H 0.80532 0.806 0.30532 0.0
H540 H 0.74785 0.83115 0.30146 0.0
H541 H 0.75992 0.76517 0.31254 0.0
H542 H 0.69353 0.64715 0.28022 0.0
H543 H 0.63956 0.62601 0.30618 0.0
H544 H 0.33013 0.31126 0.58993 0.0
H545 H 0.27672 0.29344 0.55336 0.0
H546 H 0.3428 0.14354 0.54678 0.0
H547 H 0.39665 0.16101 0.58333 0.0
H548 H 0.3366 0.20991 0.50723 0.0
H549 H 0.1688 0.18982 0.53556 0.0
H550 H 0.20033 0.24742 0.54739 0.0
H551 H 0.22274 0.18261 0.55566 0.0
C552 C 0.33277 0.27401 0.58099 0.0
C553 C 0.36776 0.23768 0.58946 0.0
C554 C 0.30206 0.26378 0.56015 0.0
C555 C 0.3057 0.21701 0.54754 0.0
C556 C 0.33941 0.17973 0.55639 0.0
H557 H 0.10668 0.16434 0.41824 0.0
H558 H 0.16048 0.14545 0.45464 0.0
C559 C 0.37007 0.18981 0.57727 0.0
C560 C 0.27737 0.20993 0.52397 0.0
H561 H 0.16676 0.20993 0.49474 0.0
C562 C 0.29946 0.20896 0.50446 0.0
C563 C 0.22906 0.20817 0.52051 0.0
C564 C 0.20379 0.20653 0.5409 0.0
C565 C 0.2743 0.20921 0.48145 0.0
C566 C 0.22599 0.21098 0.478 0.0
C567 C 0.2039 0.20898 0.4975 0.0
C568 C 0.19766 0.21905 0.4545 0.0
C569 C 0.29957 0.20864 0.46104 0.0
C570 C 0.20135 0.26638 0.44228 0.0
C571 C 0.17067 0.27742 0.42153 0.0
C572 C 0.13565 0.24135 0.41274 0.0
C573 C 0.13328 0.19296 0.42454 0.0
C574 C 0.1639 0.18206 0.44534 0.0
H575 H 0.33454 0.19179 0.46623 0.0
H576 H 0.28059 0.18537 0.44607 0.0
H577 H 0.30308 0.24985 0.45494 0.0
H578 H 0.22673 0.29581 0.44933 0.0
H579 H 0.17337 0.31505 0.41289 0.0
H580 H 0.8982 0.84252 0.584 0.0
H581 H 0.84394 0.86094 0.54769 0.0
H582 H 0.77758 0.71099 0.55383 0.0
H583 H 0.83139 0.69223 0.59017 0.0
H584 H 0.83679 0.79583 0.50778 0.0
H585 H 0.66987 0.81509 0.53709 0.0
H586 H 0.72411 0.82161 0.55701 0.0
H587 H 0.70134 0.75709 0.54843 0.0
C588 C 0.87149 0.8139 0.57789 0.0
C589 C 0.86919 0.76577 0.58989 0.0
C590 C 0.8406 0.82452 0.55715 0.0
C591 C 0.80666 0.78752 0.54826 0.0
C592 C 0.80309 0.74044 0.56068 0.0
H593 H 0.67204 0.69329 0.4135 0.0
H594 H 0.72599 0.71158 0.44984 0.0
C595 C 0.83403 0.72968 0.58137 0.0
C596 C 0.77797 0.79527 0.52483 0.0
H597 H 0.66701 0.79606 0.4961 0.0
C598 C 0.79966 0.79684 0.50519 0.0
C599 C 0.72969 0.79712 0.52161 0.0
C600 C 0.70484 0.79817 0.54217 0.0
C601 C 0.77412 0.79726 0.48227 0.0
C602 C 0.72583 0.79554 0.47904 0.0
C603 C 0.70414 0.79696 0.49869 0.0
C604 C 0.6971 0.7881 0.4556 0.0
C605 C 0.79897 0.79846 0.46171 0.0
C606 C 0.66324 0.82526 0.44681 0.0
C607 C 0.63227 0.81489 0.42607 0.0
C608 C 0.63441 0.76688 0.41397 0.0
C609 C 0.66952 0.73065 0.42238 0.0
C610 C 0.70054 0.74115 0.44308 0.0
H611 H 0.83397 0.81526 0.46682 0.0
H612 H 0.80235 0.75743 0.45537 0.0
H613 H 0.77976 0.82209 0.44692 0.0
H614 H 0.66001 0.86158 0.45635 0.0
H615 H 0.60562 0.84363 0.42005 0.0
H616 H 0.8298 0.81407 0.09015 0.0
H617 H 0.77676 0.79502 0.05358 0.0
H618 H 0.84481 0.64613 0.04755 0.0
H619 H 0.89828 0.66483 0.08409 0.0
H620 H 0.83778 0.71198 0.00777 0.0
H621 H 0.67027 0.68927 0.03616 0.0
H622 H 0.70101 0.7475 0.04782 0.0
H623 H 0.7243 0.68314 0.05627 0.0
C624 C 0.83297 0.77678 0.08132 0.0
C625 C 0.86838 0.74109 0.08995 0.0
C626 C 0.80248 0.76584 0.0605 0.0
C627 C 0.80675 0.719 0.04805 0.0
C628 C 0.84093 0.68236 0.05704 0.0
H629 H 0.60776 0.66324 0.91905 0.0
H630 H 0.66191 0.64488 0.95539 0.0
C631 C 0.87136 0.69315 0.07792 0.0
C632 C 0.77855 0.71117 0.0245 0.0
H633 H 0.66795 0.70913 0.99529 0.0
C634 C 0.80065 0.71039 0.005 0.0
C635 C 0.73027 0.70855 0.02105 0.0
C636 C 0.70503 0.70662 0.04145 0.0
C637 C 0.77549 0.71004 0.98199 0.0
C638 C 0.72716 0.71104 0.97854 0.0
C639 C 0.7051 0.70878 0.99804 0.0
C640 C 0.69873 0.71868 0.95503 0.0
C641 C 0.80079 0.7097 0.96159 0.0
C642 C 0.7021 0.76594 0.94271 0.0
C643 C 0.67124 0.77665 0.92199 0.0
C644 C 0.63632 0.74035 0.91335 0.0
C645 C 0.63426 0.69204 0.92524 0.0
C646 C 0.6651 0.68145 0.94601 0.0
H647 H 0.83584 0.6931 0.9668 0.0
H648 H 0.78197 0.68633 0.94661 0.0
H649 H 0.80411 0.75095 0.9555 0.0
H650 H 0.72736 0.79558 0.94966 0.0
H651 H 0.67369 0.81425 0.91327 0.0
H652 H 0.39758 0.34801 0.08344 0.0
H653 H 0.34323 0.36677 0.0472 0.0
H654 H 0.27696 0.21664 0.05307 0.0
H655 H 0.33084 0.19756 0.08934 0.0
H656 H 0.33621 0.30252 0.00721 0.0
H657 H 0.16907 0.32016 0.03636 0.0
H658 H 0.2232 0.32653 0.05637 0.0
H659 H 0.20053 0.26207 0.04758 0.0
C660 C 0.37086 0.31942 0.07729 0.0
C661 C 0.36862 0.27114 0.08919 0.0
C662 C 0.33992 0.33024 0.05659 0.0
C663 C 0.30598 0.29329 0.04764 0.0
C664 C 0.30246 0.24607 0.05996 0.0
H665 H 0.17304 0.19738 0.91313 0.0
H666 H 0.22662 0.21688 0.94945 0.0
C667 C 0.33344 0.23511 0.08062 0.0
C668 C 0.27731 0.30118 0.0242 0.0
H669 H 0.16643 0.30089 0.99536 0.0
C670 C 0.29908 0.30316 0.0046 0.0
C671 C 0.229 0.30257 0.02093 0.0
C672 C 0.20404 0.30326 0.04145 0.0
C673 C 0.27362 0.30341 0.98165 0.0
C674 C 0.22534 0.30109 0.97837 0.0
C675 C 0.20355 0.30224 0.99798 0.0
C676 C 0.19681 0.29304 0.95492 0.0
C677 C 0.29855 0.30499 0.96113 0.0
C678 C 0.16254 0.3296 0.94597 0.0
C679 C 0.13178 0.31855 0.92523 0.0
C680 C 0.13454 0.27042 0.9133 0.0
C681 C 0.17004 0.23481 0.92188 0.0
C682 C 0.20085 0.246 0.94256 0.0
H683 H 0.33335 0.32234 0.96627 0.0
H684 H 0.30246 0.26401 0.95485 0.0
H685 H 0.27913 0.3283 0.94629 0.0
H686 H 0.15883 0.36597 0.95539 0.0
H687 H 0.10479 0.3468 0.91908 0.0
loop_
_geom_bond_atom_site_label_1
_geom_bond_atom_site_label_2
_geom_bond_distance
_geom_bond_site_symmetry_2
_ccdc_geom_bond_type
C0 O2 1.247 . S
C0 O4 1.258 . S
C1 O8 1.247 . S
C1 O9 1.258 1_655 S
O2 C0 1.247 . S
O2 Zn3 2.028 . S
Zn3 O2 2.028 . S
Zn3 O7 2.035 . S
Zn3 O9 2.035 . S
Zn3 O10 2.028 . S
O4 C0 1.258 . S
O4 Zn5 2.035 . S
Zn5 O4 2.035 . S
Zn5 O6 2.028 . S
Zn5 O8 2.028 1_455 S
Zn5 O11 2.035 . S
O6 Zn5 2.028 . S
O6 C12 1.247 . S
O7 Zn3 2.035 . S
O7 C12 1.258 . S
O8 C1 1.247 . S
O8 Zn5 2.028 1_655 S
O9 C1 1.258 1_455 S
O9 Zn3 2.035 . S
O10 Zn3 2.028 . S
O10 C13 1.247 . S
O11 Zn5 2.035 . S
O11 C13 1.258 . S
C12 O6 1.247 . S
C12 O7 1.258 . S
C13 O10 1.247 . S
C13 O11 1.258 . S
C14 O16 1.247 . S
C14 O18 1.258 . S
C15 O22 1.247 . S
C15 O23 1.258 . S
O16 C14 1.247 . S
O16 Zn17 2.028 . S
Zn17 O16 2.028 . S
Zn17 O21 2.035 . S
Zn17 O23 2.035 . S
Zn17 O24 2.028 . S
O18 C14 1.258 . S
O18 Zn19 2.035 . S
Zn19 O18 2.035 . S
Zn19 O20 2.028 . S
Zn19 O22 2.028 . S
Zn19 O25 2.035 . S
O20 Zn19 2.028 . S
O20 C26 1.247 . S
O21 Zn17 2.035 . S
O21 C26 1.258 . S
O22 C15 1.247 . S
O22 Zn19 2.028 . S
O23 C15 1.258 . S
O23 Zn17 2.035 . S
O24 Zn17 2.028 . S
O24 C27 1.247 . S
O25 Zn19 2.035 . S
O25 C27 1.258 . S
C26 O20 1.247 . S
C26 O21 1.258 . S
C27 O24 1.247 . S
C27 O25 1.258 . S
C28 O30 1.247 . S
C28 O32 1.258 . S
C29 O36 1.247 . S
C29 O37 1.258 . S
O30 C28 1.247 . S
O30 Zn31 2.028 . S
Zn31 O30 2.028 . S
Zn31 O35 2.035 . S
Zn31 O37 2.035 . S
Zn31 O38 2.028 . S
O32 C28 1.258 . S
O32 Zn33 2.035 . S
Zn33 O32 2.035 . S
Zn33 O34 2.028 . S
Zn33 O36 2.028 . S
Zn33 O39 2.035 1_655 S
O34 Zn33 2.028 . S
O34 C40 1.247 . S
O35 Zn31 2.035 . S
O35 C40 1.258 . S
O36 C29 1.247 . S
O36 Zn33 2.028 . S
O37 C29 1.258 . S
O37 Zn31 2.035 . S
O38 Zn31 2.028 . S
O38 C41 1.247 1_655 S
O39 Zn33 2.035 1_455 S
O39 C41 1.258 . S
C40 O34 1.247 . S
C40 O35 1.258 . S
C41 O38 1.247 1_455 S
C41 O39 1.258 . S
C42 O44 1.247 . S
C42 O46 1.258 . S
C43 O50 1.247 . S
C43 O51 1.258 . S
O44 C42 1.247 . S
O44 Zn45 2.028 . S
Zn45 O44 2.028 . S
Zn45 O49 2.035 . S
Zn45 O51 2.035 . S
Zn45 O52 2.028 . S
O46 C42 1.258 . S
O46 Zn47 2.035 . S
Zn47 O46 2.035 . S
Zn47 O48 2.028 . S
Zn47 O50 2.028 . S
Zn47 O53 2.035 . S
O48 Zn47 2.028 . S
O48 C54 1.247 . S
O49 Zn45 2.035 . S
O49 C54 1.258 . S
O50 C43 1.247 . S
O50 Zn47 2.028 . S
O51 C43 1.258 . S
O51 Zn45 2.035 . S
O52 Zn45 2.028 . S
O52 C55 1.247 . S
O53 Zn47 2.035 . S
O53 C55 1.258 . S
C54 O48 1.247 . S
C54 O49 1.258 . S
C55 O52 1.247 . S
C55 O53 1.258 . S
C56 O58 1.247 . S
C56 O60 1.258 . S
C57 O64 1.247 . S
C57 O65 1.258 . S
O58 C56 1.247 . S
O58 Zn59 2.028 . S
Zn59 O58 2.028 . S
Zn59 O63 2.035 . S
Zn59 O65 2.035 . S
Zn59 O66 2.028 . S
O60 C56 1.258 . S
O60 Zn61 2.035 . S
Zn61 O60 2.035 . S
Zn61 O62 2.028 . S
Zn61 O64 2.028 . S
Zn61 O67 2.035 . S
O62 Zn61 2.028 . S
O62 C68 1.247 . S
O63 Zn59 2.035 . S
O63 C68 1.258 . S
O64 C57 1.247 . S
O64 Zn61 2.028 . S
O65 C57 1.258 . S
O65 Zn59 2.035 . S
O66 Zn59 2.028 . S
O66 C69 1.247 . S
O67 Zn61 2.035 . S
O67 C69 1.258 . S
C68 O62 1.247 . S
C68 O63 1.258 . S
C69 O66 1.247 . S
C69 O67 1.258 . S
C70 O72 1.247 . S
C70 O74 1.258 . S
C71 O78 1.247 . S
C71 O79 1.258 . S
O72 C70 1.247 . S
O72 Zn73 2.028 . S
Zn73 O72 2.028 . S
Zn73 O77 2.035 . S
Zn73 O79 2.035 . S
Zn73 O80 2.028 1_655 S
O74 C70 1.258 . S
O74 Zn75 2.035 . S
Zn75 O74 2.035 . S
Zn75 O76 2.028 . S
Zn75 O78 2.028 . S
Zn75 O81 2.035 . S
O76 Zn75 2.028 . S
O76 C82 1.247 . S
O77 Zn73 2.035 . S
O77 C82 1.258 . S
O78 C71 1.247 . S
O78 Zn75 2.028 . S
O79 C71 1.258 . S
O79 Zn73 2.035 . S
O80 Zn73 2.028 1_455 S
O80 C83 1.247 . S
O81 Zn75 2.035 . S
O81 C83 1.258 1_655 S
C82 O76 1.247 . S
C82 O77 1.258 . S
C83 O80 1.247 . S
C83 O81 1.258 1_455 S
C84 O86 1.247 . S
C84 O88 1.258 . S
C85 O92 1.247 . S
C85 O93 1.258 . S
O86 C84 1.247 . S
O86 Zn87 2.028 . S
Zn87 O86 2.028 . S
Zn87 O91 2.035 . S
Zn87 O93 2.035 . S
Zn87 O94 2.028 . S
O88 C84 1.258 . S
O88 Zn89 2.035 . S
Zn89 O88 2.035 . S
Zn89 O90 2.028 . S
Zn89 O92 2.028 . S
Zn89 O95 2.035 . S
O90 Zn89 2.028 . S
O90 C96 1.247 . S
O91 Zn87 2.035 . S
O91 C96 1.258 . S
O92 C85 1.247 . S
O92 Zn89 2.028 . S
O93 C85 1.258 . S
O93 Zn87 2.035 . S
O94 Zn87 2.028 . S
O94 C97 1.247 . S
O95 Zn89 2.035 . S
O95 C97 1.258 . S
C96 O90 1.247 . S
C96 O91 1.258 . S
C97 O94 1.247 . S
C97 O95 1.258 . S
C98 O100 1.247 . S
C98 O102 1.258 1_655 S
C99 O106 1.247 . S
C99 O107 1.258 . S
O100 C98 1.247 . S
O100 Zn101 2.028 1_655 S
Zn101 O100 2.028 1_455 S
Zn101 O105 2.035 . S
Zn101 O107 2.035 . S
Zn101 O108 2.028 . S
O102 C98 1.258 1_455 S
O102 Zn103 2.035 . S
Zn103 O102 2.035 . S
Zn103 O104 2.028 . S
Zn103 O106 2.028 . S
Zn103 O109 2.035 . S
O104 Zn103 2.028 . S
O104 C110 1.247 . S
O105 Zn101 2.035 . S
O105 C110 1.258 . S
O106 C99 1.247 . S
O106 Zn103 2.028 . S
O107 C99 1.258 . S
O107 Zn101 2.035 . S
O108 Zn101 2.028 . S
O108 C111 1.247 . S
O109 Zn103 2.035 . S
O109 C111 1.258 . S
C110 O104 1.247 . S
C110 O105 1.258 . S
C111 O108 1.247 . S
C111 O109 1.258 . S
H112 C120 0.929 . S
H113 C122 0.930 . S
H114 C124 0.930 . S
H115 C127 0.929 . S
H116 C130 0.930 . S
H117 C132 0.960 . S
H118 C132 0.960 1_655 S
H119 C132 0.960 . S
C120 H112 0.929 . S
C120 C121 1.379 1_655 S
C120 C122 1.384 . S
C121 C120 1.379 1_455 S
C121 C127 1.389 . S
C122 H113 0.930 . S
C122 C120 1.384 . S
C122 C123 1.372 . S
C123 C122 1.372 . S
C123 C124 1.400 1_655 S
C123 C128 1.490 . S
C124 H114 0.930 . S
C124 C123 1.400 1_455 S
C124 C127 1.386 . S
H125 C141 0.930 . S
H126 C142 0.931 . S
C127 H115 0.929 . S
C127 C121 1.389 . S
C127 C124 1.386 . S
C128 C123 1.490 . S
C128 C130 1.395 . S
C128 C131 1.403 1_655 S
H129 C135 0.930 . S
C130 H116 0.930 . S
C130 C128 1.395 . S
C130 C133 1.403 . S
C131 C128 1.403 1_455 S
C131 C132 1.524 . S
C131 C135 1.400 . S
C132 H117 0.960 . S
C132 H118 0.960 1_455 S
C132 H119 0.960 . S
C132 C131 1.524 . S
C133 C130 1.403 . S
C133 C134 1.392 . S
C133 C137 1.495 . S
C134 C133 1.392 . S
C134 C135 1.385 1_655 S
C134 C136 1.478 . S
C135 H129 0.930 . S
C135 C131 1.400 . S
C135 C134 1.385 1_455 S
C136 C134 1.478 . S
C136 C138 1.381 . S
C136 C142 1.383 1_655 S
C137 C133 1.495 . S
C137 H143 0.959 . S
C137 H144 0.969 . S
C137 H145 0.960 . S
C138 C136 1.381 . S
C138 C139 1.394 . S
C138 H146 0.930 . S
C139 C138 1.394 . S
C139 C140 1.383 . S
C139 H147 0.929 . S
C140 C139 1.383 . S
C140 C141 1.377 1_655 S
C141 H125 0.930 . S
C141 C140 1.377 1_455 S
C141 C142 1.379 . S
C142 H126 0.931 . S
C142 C136 1.383 1_455 S
C142 C141 1.379 . S
H143 C137 0.959 . S
H144 C137 0.969 . S
H145 C137 0.960 . S
H146 C138 0.930 . S
H147 C139 0.929 . S
H148 C156 0.929 . S
H149 C158 0.930 . S
H150 C160 0.930 . S
H151 C163 0.929 . S
H152 C166 0.930 . S
H153 C168 0.960 . S
H154 C168 0.960 . S
H155 C168 0.960 . S
C156 H148 0.929 . S
C156 C157 1.377 . S
C156 C158 1.384 . S
C157 C156 1.377 . S
C157 C163 1.390 . S
C158 H149 0.930 . S
C158 C156 1.384 . S
C158 C159 1.372 . S
C159 C158 1.372 . S
C159 C160 1.400 . S
C159 C164 1.490 . S
C160 H150 0.930 . S
C160 C159 1.400 . S
C160 C163 1.386 . S
H161 C177 0.930 . S
H162 C178 0.931 . S
C163 H151 0.929 . S
C163 C157 1.390 . S
C163 C160 1.386 . S
C164 C159 1.490 . S
C164 C166 1.395 . S
C164 C167 1.403 . S
H165 C171 0.930 . S
C166 H152 0.930 . S
C166 C164 1.395 . S
C166 C169 1.403 . S
C167 C164 1.403 . S
C167 C168 1.524 . S
C167 C171 1.400 . S
C168 H153 0.960 . S
C168 H154 0.960 . S
C168 H155 0.960 . S
C168 C167 1.524 . S
C169 C166 1.403 . S
C169 C170 1.392 . S
C169 C173 1.495 . S
C170 C169 1.392 . S
C170 C171 1.385 . S
C170 C172 1.478 . S
C171 H165 0.930 . S
C171 C167 1.400 . S
C171 C170 1.385 . S
C172 C170 1.478 . S
C172 C174 1.381 . S
C172 C178 1.383 . S
C173 C169 1.495 . S
C173 H179 0.959 . S
C173 H180 0.961 . S
C173 H181 0.960 . S
C174 C172 1.381 . S
C174 C175 1.394 . S
C174 H182 0.930 . S
C175 C174 1.394 . S
C175 C176 1.383 . S
C175 H183 0.929 . S
C176 C175 1.383 . S
C176 C177 1.377 . S
C177 H161 0.930 . S
C177 C176 1.377 . S
C177 C178 1.379 . S
C178 H162 0.931 . S
C178 C172 1.383 . S
C178 C177 1.379 . S
H179 C173 0.959 . S
H180 C173 0.961 . S
H181 C173 0.960 . S
H182 C174 0.930 . S
H183 C175 0.929 . S
H184 C192 0.929 . S
H185 C194 0.930 . S
H186 C196 0.930 . S
H187 C199 0.929 . S
H188 C202 0.930 . S
H189 C204 0.960 . S
H190 C204 0.960 . S
H191 C204 0.960 . S
C192 H184 0.929 . S
C192 C193 1.377 . S
C192 C194 1.384 . S
C193 C192 1.377 . S
C193 C199 1.390 . S
C194 H185 0.930 . S
C194 C192 1.384 . S
C194 C195 1.372 . S
C195 C194 1.372 . S
C195 C196 1.400 . S
C195 C200 1.490 . S
C196 H186 0.930 . S
C196 C195 1.400 . S
C196 C199 1.386 . S
H197 C213 0.930 . S
H198 C214 0.931 . S
C199 H187 0.929 . S
C199 C193 1.390 . S
C199 C196 1.386 . S
C200 C195 1.490 . S
C200 C202 1.395 1_554 S
C200 C203 1.403 1_545 S
H201 C207 0.931 1_554 S
C202 H188 0.930 . S
C202 C200 1.395 1_556 S
C202 C205 1.403 . S
C203 C200 1.403 1_565 S
C203 C204 1.524 . S
C203 C207 1.403 1_554 S
C204 H189 0.960 . S
C204 H190 0.960 . S
C204 H191 0.960 . S
C204 C203 1.524 . S
C205 C202 1.403 . S
C205 C206 1.392 1_545 S
C205 C209 1.495 . S
C206 C205 1.392 1_565 S
C206 C207 1.382 . S
C206 C208 1.478 . S
C207 H201 0.931 1_556 S
C207 C203 1.403 1_556 S
C207 C206 1.382 . S
C208 C206 1.478 . S
C208 C210 1.381 . S
C208 C214 1.383 . S
C209 C205 1.495 . S
C209 H215 0.959 . S
C209 H216 0.961 . S
C209 H217 0.960 . S
C210 C208 1.381 . S
C210 C211 1.394 . S
C210 H218 0.930 . S
C211 C210 1.394 . S
C211 C212 1.383 . S
C211 H219 0.929 . S
C212 C211 1.383 . S
C212 C213 1.377 . S
C213 H197 0.930 . S
C213 C212 1.377 . S
C213 C214 1.379 . S
C214 H198 0.931 . S
C214 C208 1.383 . S
C214 C213 1.379 . S
H215 C209 0.959 . S
H216 C209 0.961 . S
H217 C209 0.960 . S
H218 C210 0.930 . S
H219 C211 0.929 . S
H220 C228 0.929 . S
H221 C230 0.930 . S
H222 C232 0.930 . S
H223 C235 0.929 . S
H224 C238 0.930 . S
H225 C240 0.960 . S
H226 C240 0.960 . S
H227 C240 0.960 1_554 S
C228 H220 0.929 . S
C228 C229 1.377 . S
C228 C230 1.384 . S
C229 C228 1.377 . S
C229 C235 1.390 1_655 S
C230 H221 0.930 . S
C230 C228 1.384 . S
C230 C231 1.372 . S
C231 C230 1.372 . S
C231 C232 1.400 1_655 S
C231 C236 1.490 . S
C232 H222 0.930 . S
C232 C231 1.400 1_455 S
C232 C235 1.386 . S
H233 C249 0.930 . S
H234 C250 0.931 . S
C235 H223 0.929 . S
C235 C229 1.390 1_455 S
C235 C232 1.386 . S
C236 C231 1.490 . S
C236 C238 1.395 1_565 S
C236 C239 1.403 1_654 S
H237 C243 0.930 . S
C238 H224 0.930 . S
C238 C236 1.395 1_545 S
C238 C241 1.403 . S
C239 C236 1.403 1_456 S
C239 C240 1.524 . S
C239 C243 1.400 . S
C240 H225 0.960 . S
C240 H226 0.960 . S
C240 H227 0.960 1_556 S
C240 C239 1.524 . S
C241 C238 1.403 . S
C241 C242 1.392 1_554 S
C241 C245 1.495 . S
C242 C241 1.392 1_556 S
C242 C243 1.385 1_645 S
C242 C244 1.478 . S
C243 H237 0.930 . S
C243 C239 1.400 . S
C243 C242 1.385 1_465 S
C244 C242 1.478 . S
C244 C246 1.381 . S
C244 C250 1.383 1_655 S
C245 C241 1.495 . S
C245 H251 0.959 . S
C245 H252 0.961 . S
C245 H253 0.960 1_554 S
C246 C244 1.381 . S
C246 C247 1.394 . S
C246 H254 0.930 . S
C247 C246 1.394 . S
C247 C248 1.396 . S
C247 H255 0.929 . S
C248 C247 1.396 . S
C248 C249 1.367 1_655 S
C249 H233 0.930 . S
C249 C248 1.367 1_455 S
C249 C250 1.379 . S
C250 H234 0.931 . S
C250 C244 1.383 1_455 S
C250 C249 1.379 . S
H251 C245 0.959 . S
H252 C245 0.961 . S
H253 C245 0.960 1_556 S
H254 C246 0.930 . S
H255 C247 0.929 . S
H256 C264 0.929 . S
H257 C266 0.930 . S
H258 C268 0.930 . S
H259 C271 0.929 . S
H260 C274 0.930 . S
H261 C276 0.960 . S
H262 C276 0.960 . S
H263 C276 0.960 . S
C264 H256 0.929 . S
C264 C265 1.377 . S
C264 C266 1.384 . S
C265 C264 1.377 . S
C265 C271 1.390 . S
C266 H257 0.930 . S
C266 C264 1.384 . S
C266 C267 1.372 . S
C267 C266 1.372 . S
C267 C268 1.400 . S
C267 C272 1.490 . S
C268 H258 0.930 . S
C268 C267 1.400 . S
C268 C271 1.386 . S
H269 C285 0.930 . S
H270 C286 0.931 . S
C271 H259 0.929 . S
C271 C265 1.390 . S
C271 C268 1.386 . S
C272 C267 1.490 . S
C272 C274 1.395 . S
C272 C275 1.403 . S
H273 C279 0.930 . S
C274 H260 0.930 . S
C274 C272 1.395 . S
C274 C277 1.403 . S
C275 C272 1.403 . S
C275 C276 1.524 . S
C275 C279 1.400 . S
C276 H261 0.960 . S
C276 H262 0.960 . S
C276 H263 0.960 . S
C276 C275 1.524 . S
C277 C274 1.403 . S
C277 C278 1.392 . S
C277 C281 1.495 . S
C278 C277 1.392 . S
C278 C279 1.385 . S
C278 C280 1.478 . S
C279 H273 0.930 . S
C279 C275 1.400 . S
C279 C278 1.385 . S
C280 C278 1.478 . S
C280 C282 1.381 . S
C280 C286 1.383 . S
C281 C277 1.495 . S
C281 H287 0.959 . S
C281 H288 0.961 . S
C281 H289 0.960 . S
C282 C280 1.381 . S
C282 C283 1.394 . S
C282 H290 0.930 . S
C283 C282 1.394 . S
C283 C284 1.383 . S
C283 H291 0.929 . S
C284 C283 1.383 . S
C284 C285 1.377 . S
C285 H269 0.930 . S
C285 C284 1.377 . S
C285 C286 1.379 . S
C286 H270 0.931 . S
C286 C280 1.383 . S
C286 C285 1.379 . S
H287 C281 0.959 . S
H288 C281 0.961 . S
H289 C281 0.960 . S
H290 C282 0.930 . S
H291 C283 0.929 . S
H292 C300 0.929 . S
H293 C302 0.930 . S
H294 C304 0.930 . S
H295 C307 0.929 . S
H296 C310 0.930 . S
H297 C312 0.960 . S
H298 C312 0.960 . S
H299 C312 0.960 . S
C300 H292 0.929 . S
C300 C301 1.377 . S
C300 C302 1.384 . S
C301 C300 1.377 . S
C301 C307 1.390 . S
C302 H293 0.930 . S
C302 C300 1.384 . S
C302 C303 1.372 . S
C303 C302 1.372 . S
C303 C304 1.400 . S
C303 C308 1.490 . S
C304 H294 0.930 . S
C304 C303 1.400 . S
C304 C307 1.386 . S
H305 C321 0.930 . S
H306 C322 0.931 . S
C307 H295 0.929 . S
C307 C301 1.390 . S
C307 C304 1.386 . S
C308 C303 1.490 . S
C308 C310 1.395 . S
C308 C311 1.403 . S
H309 C315 0.930 . S
C310 H296 0.930 . S
C310 C308 1.395 . S
C310 C313 1.403 . S
C311 C308 1.403 . S
C311 C312 1.524 . S
C311 C315 1.400 . S
C312 H297 0.960 . S
C312 H298 0.960 . S
C312 H299 0.960 . S
C312 C311 1.524 . S
C313 C310 1.403 . S
C313 C314 1.392 . S
C313 C317 1.495 . S
C314 C313 1.392 . S
C314 C315 1.385 . S
C314 C316 1.478 . S
C315 H309 0.930 . S
C315 C311 1.400 . S
C315 C314 1.385 . S
C316 C314 1.478 . S
C316 C318 1.381 . S
C316 C322 1.383 . S
C317 C313 1.495 . S
C317 H323 0.959 . S
C317 H324 0.961 . S
C317 H325 0.960 . S
C318 C316 1.381 . S
C318 C319 1.394 . S
C318 H326 0.930 . S
C319 C318 1.394 . S
C319 C320 1.383 . S
C319 H327 0.929 . S
C320 C319 1.383 . S
C320 C321 1.377 . S
C321 H305 0.930 . S
C321 C320 1.377 . S
C321 C322 1.379 . S
C322 H306 0.931 . S
C322 C316 1.383 . S
C322 C321 1.379 . S
H323 C317 0.959 . S
H324 C317 0.961 . S
H325 C317 0.960 . S
H326 C318 0.930 . S
H327 C319 0.929 . S
H328 C336 0.929 . S
H329 C338 0.930 . S
H330 C340 0.930 . S
H331 C343 0.929 . S
H332 C346 0.930 . S
H333 C348 0.960 . S
H334 C348 0.960 . S
H335 C348 0.960 . S
C336 H328 0.929 . S
C336 C337 1.377 . S
C336 C338 1.384 . S
C337 C336 1.377 . S
C337 C343 1.390 . S
C338 H329 0.930 . S
C338 C336 1.384 . S
C338 C339 1.372 . S
C339 C338 1.372 . S
C339 C340 1.400 . S
C339 C344 1.490 . S
C340 H330 0.930 . S
C340 C339 1.400 . S
C340 C343 1.386 . S
H341 C357 0.930 . S
H342 C358 0.931 . S
C343 H331 0.929 . S
C343 C337 1.390 . S
C343 C340 1.386 . S
C344 C339 1.490 . S
C344 C346 1.395 . S
C344 C347 1.403 . S
H345 C351 0.930 . S
C346 H332 0.930 . S
C346 C344 1.395 . S
C346 C349 1.403 . S
C347 C344 1.403 . S
C347 C348 1.524 . S
C347 C351 1.400 . S
C348 H333 0.960 . S
C348 H334 0.960 . S
C348 H335 0.960 . S
C348 C347 1.524 . S
C349 C346 1.403 . S
C349 C350 1.392 . S
C349 C353 1.495 . S
C350 C349 1.392 . S
C350 C351 1.385 . S
C350 C352 1.478 . S
C351 H345 0.930 . S
C351 C347 1.400 . S
C351 C350 1.385 . S
C352 C350 1.478 . S
C352 C354 1.381 . S
C352 C358 1.383 . S
C353 C349 1.495 . S
C353 H359 0.959 . S
C353 H360 0.961 . S
C353 H361 0.960 . S
C354 C352 1.381 . S
C354 C355 1.394 . S
C354 H362 0.930 . S
C355 C354 1.394 . S
C355 C356 1.383 . S
C355 H363 0.929 . S
C356 C355 1.383 . S
C356 C357 1.377 . S
C357 H341 0.930 . S
C357 C356 1.377 . S
C357 C358 1.379 . S
C358 H342 0.931 . S
C358 C352 1.383 . S
C358 C357 1.379 . S
H359 C353 0.959 . S
H360 C353 0.961 . S
H361 C353 0.960 . S
H362 C354 0.930 . S
H363 C355 0.929 . S
H364 C372 0.929 . S
H365 C374 0.930 . S
H366 C376 0.930 . S
H367 C379 0.929 . S
H368 C382 0.930 . S
H369 C384 0.960 . S
H370 C384 0.960 . S
H371 C384 0.960 . S
C372 H364 0.929 . S
C372 C373 1.377 . S
C372 C374 1.384 . S
C373 C372 1.377 . S
C373 C379 1.390 . S
C374 H365 0.930 . S
C374 C372 1.384 . S
C374 C375 1.372 . S
C375 C374 1.372 . S
C375 C376 1.400 . S
C375 C380 1.490 . S
C376 H366 0.930 . S
C376 C375 1.400 . S
C376 C379 1.386 . S
H377 C393 0.930 . S
H378 C394 0.931 . S
C379 H367 0.929 . S
C379 C373 1.390 . S
C379 C376 1.386 . S
C380 C375 1.490 . S
C380 C382 1.395 . S
C380 C383 1.403 . S
H381 C387 0.930 . S
C382 H368 0.930 . S
C382 C380 1.395 . S
C382 C385 1.403 . S
C383 C380 1.403 . S
C383 C384 1.524 . S
C383 C387 1.400 . S
C384 H369 0.960 . S
C384 H370 0.960 . S
C384 H371 0.960 . S
C384 C383 1.524 . S
C385 C382 1.403 . S
C385 C386 1.392 . S
C385 C389 1.495 . S
C386 C385 1.392 . S
C386 C387 1.385 . S
C386 C388 1.478 . S
C387 H381 0.930 . S
C387 C383 1.400 . S
C387 C386 1.385 . S
C388 C386 1.478 . S
C388 C390 1.381 . S
C388 C394 1.383 . S
C389 C385 1.495 . S
C389 H395 0.959 . S
C389 H396 0.961 . S
C389 H397 0.960 . S
C390 C388 1.381 . S
C390 C391 1.394 . S
C390 H398 0.930 . S
C391 C390 1.394 . S
C391 C392 1.383 . S
C391 H399 0.929 . S
C392 C391 1.383 . S
C392 C393 1.377 . S
C393 H377 0.930 . S
C393 C392 1.377 . S
C393 C394 1.379 . S
C394 H378 0.931 . S
C394 C388 1.383 . S
C394 C393 1.379 . S
H395 C389 0.959 . S
H396 C389 0.961 . S
H397 C389 0.960 . S
H398 C390 0.930 . S
H399 C391 0.929 . S
H400 C408 0.929 . S
H401 C410 0.930 . S
H402 C412 0.930 . S
H403 C415 0.929 . S
H404 C418 0.930 . S
H405 C420 0.960 . S
H406 C420 0.960 . S
H407 C420 0.960 . S
C408 H400 0.929 . S
C408 C409 1.377 . S
C408 C410 1.384 . S
C409 C408 1.377 . S
C409 C415 1.390 . S
C410 H401 0.930 . S
C410 C408 1.384 . S
C410 C411 1.372 . S
C411 C410 1.372 . S
C411 C412 1.400 . S
C411 C416 1.490 . S
C412 H402 0.930 . S
C412 C411 1.400 . S
C412 C415 1.386 . S
H413 C429 0.930 . S
H414 C430 0.931 . S
C415 H403 0.929 . S
C415 C409 1.390 . S
C415 C412 1.386 . S
C416 C411 1.490 . S
C416 C418 1.395 . S
C416 C419 1.403 . S
H417 C423 0.930 . S
C418 H404 0.930 . S
C418 C416 1.395 . S
C418 C421 1.403 . S
C419 C416 1.403 . S
C419 C420 1.524 . S
C419 C423 1.400 . S
C420 H405 0.960 . S
C420 H406 0.960 . S
C420 H407 0.960 . S
C420 C419 1.524 . S
C421 C418 1.403 . S
C421 C422 1.392 . S
C421 C425 1.495 . S
C422 C421 1.392 . S
C422 C423 1.385 . S
C422 C424 1.478 . S
C423 H417 0.930 . S
C423 C419 1.400 . S
C423 C422 1.385 . S
C424 C422 1.478 . S
C424 C426 1.381 . S
C424 C430 1.383 . S
C425 C421 1.495 . S
C425 H431 0.959 . S
C425 H432 0.961 . S
C425 H433 0.960 . S
C426 C424 1.381 . S
C426 C427 1.394 . S
C426 H434 0.930 . S
C427 C426 1.394 . S
C427 C428 1.383 . S
C427 H435 0.929 . S
C428 C427 1.383 . S
C428 C429 1.377 . S
C429 H413 0.930 . S
C429 C428 1.377 . S
C429 C430 1.379 . S
C430 H414 0.931 . S
C430 C424 1.383 . S
C430 C429 1.379 . S
H431 C425 0.959 . S
H432 C425 0.961 . S
H433 C425 0.960 . S
H434 C426 0.930 . S
H435 C427 0.929 . S
H436 C444 0.929 . S
H437 C446 0.930 . S
H438 C448 0.930 . S
H439 C451 0.929 . S
H440 C454 0.930 . S
H441 C456 0.960 . S
H442 C456 0.960 . S
H443 C456 0.960 . S
C444 H436 0.929 . S
C444 C445 1.377 . S
C444 C446 1.384 . S
C445 C444 1.377 . S
C445 C451 1.390 . S
C446 H437 0.930 . S
C446 C444 1.384 . S
C446 C447 1.372 . S
C447 C446 1.372 . S
C447 C448 1.400 . S
C447 C452 1.490 . S
C448 H438 0.930 . S
C448 C447 1.400 . S
C448 C451 1.386 . S
H449 C465 0.930 . S
H450 C466 0.931 . S
C451 H439 0.929 . S
C451 C445 1.390 . S
C451 C448 1.386 . S
C452 C447 1.490 . S
C452 C454 1.395 . S
C452 C455 1.403 . S
H453 C459 0.930 . S
C454 H440 0.930 . S
C454 C452 1.395 . S
C454 C457 1.403 . S
C455 C452 1.403 . S
C455 C456 1.524 . S
C455 C459 1.400 . S
C456 H441 0.960 . S
C456 H442 0.960 . S
C456 H443 0.960 . S
C456 C455 1.524 . S
C457 C454 1.403 . S
C457 C458 1.392 . S
C457 C461 1.495 . S
C458 C457 1.392 . S
C458 C459 1.385 . S
C458 C460 1.478 . S
C459 H453 0.930 . S
C459 C455 1.400 . S
C459 C458 1.385 . S
C460 C458 1.478 . S
C460 C462 1.381 . S
C460 C466 1.383 . S
C461 C457 1.495 . S
C461 H467 0.959 . S
C461 H468 0.961 . S
C461 H469 0.960 . S
C462 C460 1.381 . S
C462 C463 1.394 . S
C462 H470 0.930 . S
C463 C462 1.394 . S
C463 C464 1.383 . S
C463 H471 0.929 . S
C464 C463 1.383 . S
C464 C465 1.377 . S
C465 H449 0.930 . S
C465 C464 1.377 . S
C465 C466 1.379 . S
C466 H450 0.931 . S
C466 C460 1.383 . S
C466 C465 1.379 . S
H467 C461 0.959 . S
H468 C461 0.961 . S
H469 C461 0.960 . S
H470 C462 0.930 . S
H471 C463 0.929 . S
H472 C480 0.929 . S
H473 C482 0.930 . S
H474 C484 0.930 . S
H475 C487 0.929 . S
H476 C490 0.930 . S
H477 C492 0.960 . S
H478 C492 0.960 . S
H479 C492 0.960 . S
C480 H472 0.929 . S
C480 C481 1.377 . S
C480 C482 1.384 . S
C481 C480 1.377 . S
C481 C487 1.390 . S
C482 H473 0.930 . S
C482 C480 1.384 . S
C482 C483 1.372 . S
C483 C482 1.372 . S
C483 C484 1.400 . S
C483 C488 1.490 . S
C484 H474 0.930 . S
C484 C483 1.400 . S
C484 C487 1.386 . S
H485 C501 0.930 . S
H486 C502 0.931 . S
C487 H475 0.929 . S
C487 C481 1.390 . S
C487 C484 1.386 . S
C488 C483 1.490 . S
C488 C490 1.395 . S
C488 C491 1.403 . S
H489 C495 0.930 . S
C490 H476 0.930 . S
C490 C488 1.395 . S
C490 C493 1.403 . S
C491 C488 1.403 . S
C491 C492 1.524 . S
C491 C495 1.400 . S
C492 H477 0.960 . S
C492 H478 0.960 . S
C492 H479 0.960 . S
C492 C491 1.524 . S
C493 C490 1.403 . S
C493 C494 1.392 . S
C493 C497 1.495 . S
C494 C493 1.392 . S
C494 C495 1.385 . S
C494 C496 1.478 . S
C495 H489 0.930 . S
C495 C491 1.400 . S
C495 C494 1.385 . S
C496 C494 1.478 . S
C496 C498 1.381 . S
C496 C502 1.383 . S
C497 C493 1.495 . S
C497 H503 0.959 . S
C497 H504 0.961 . S
C497 H505 0.960 . S
C498 C496 1.381 . S
C498 C499 1.394 . S
C498 H506 0.930 . S
C499 C498 1.394 . S
C499 C500 1.383 . S
C499 H507 0.929 . S
C500 C499 1.383 . S
C500 C501 1.377 . S
C501 H485 0.930 . S
C501 C500 1.377 . S
C501 C502 1.379 . S
C502 H486 0.931 . S
C502 C496 1.383 . S
C502 C501 1.379 . S
H503 C497 0.959 . S
H504 C497 0.961 . S
H505 C497 0.960 . S
H506 C498 0.930 . S
H507 C499 0.929 . S
H508 C516 0.929 . S
H509 C518 0.930 . S
H510 C520 0.930 . S
H511 C523 0.929 . S
H512 C526 0.930 . S
H513 C528 0.960 . S
H514 C528 0.960 . S
H515 C528 0.960 . S
C516 H508 0.929 . S
C516 C517 1.377 . S
C516 C518 1.384 . S
C517 C516 1.377 . S
C517 C523 1.390 . S
C518 H509 0.930 . S
C518 C516 1.384 . S
C518 C519 1.372 . S
C519 C518 1.372 . S
C519 C520 1.400 . S
C519 C524 1.490 . S
C520 H510 0.930 . S
C520 C519 1.400 . S
C520 C523 1.386 . S
H521 C537 0.930 . S
H522 C538 0.931 . S
C523 H511 0.929 . S
C523 C517 1.390 . S
C523 C520 1.386 . S
C524 C519 1.490 . S
C524 C526 1.395 . S
C524 C527 1.403 . S
H525 C531 0.930 . S
C526 H512 0.930 . S
C526 C524 1.395 . S
C526 C529 1.403 . S
C527 C524 1.403 . S
C527 C528 1.524 . S
C527 C531 1.400 . S
C528 H513 0.960 . S
C528 H514 0.960 . S
C528 H515 0.960 . S
C528 C527 1.524 . S
C529 C526 1.403 . S
C529 C530 1.392 . S
C529 C533 1.495 . S
C530 C529 1.392 . S
C530 C531 1.385 . S
C530 C532 1.478 . S
C531 H525 0.930 . S
C531 C527 1.400 . S
C531 C530 1.385 . S
C532 C530 1.478 . S
C532 C534 1.381 . S
C532 C538 1.383 . S
C533 C529 1.495 . S
C533 H539 0.959 . S
C533 H540 0.961 . S
C533 H541 0.960 . S
C534 C532 1.381 . S
C534 C535 1.394 . S
C534 H542 0.930 . S
C535 C534 1.394 . S
C535 C536 1.383 . S
C535 H543 0.929 . S
C536 C535 1.383 . S
C536 C537 1.377 . S
C537 H521 0.930 . S
C537 C536 1.377 . S
C537 C538 1.379 . S
C538 H522 0.931 . S
C538 C532 1.383 . S
C538 C537 1.379 . S
H539 C533 0.959 . S
H540 C533 0.961 . S
H541 C533 0.960 . S
H542 C534 0.930 . S
H543 C535 0.929 . S
H544 C552 0.929 . S
H545 C554 0.930 . S
H546 C556 0.930 . S
H547 C559 0.929 . S
H548 C562 0.930 . S
H549 C564 0.960 . S
H550 C564 0.960 . S
H551 C564 0.960 . S
C552 H544 0.929 . S
C552 C553 1.377 . S
C552 C554 1.384 . S
C553 C552 1.377 . S
C553 C559 1.390 . S
C554 H545 0.930 . S
C554 C552 1.384 . S
C554 C555 1.372 . S
C555 C554 1.372 . S
C555 C556 1.400 . S
C555 C560 1.490 . S
C556 H546 0.930 . S
C556 C555 1.400 . S
C556 C559 1.386 . S
H557 C573 0.930 . S
H558 C574 0.931 . S
C559 H547 0.929 . S
C559 C553 1.390 . S
C559 C556 1.386 . S
C560 C555 1.490 . S
C560 C562 1.395 . S
C560 C563 1.403 . S
H561 C567 0.930 . S
C562 H548 0.930 . S
C562 C560 1.395 . S
C562 C565 1.403 . S
C563 C560 1.403 . S
C563 C564 1.524 . S
C563 C567 1.400 . S
C564 H549 0.960 . S
C564 H550 0.960 . S
C564 H551 0.960 . S
C564 C563 1.524 . S
C565 C562 1.403 . S
C565 C566 1.392 . S
C565 C569 1.495 . S
C566 C565 1.392 . S
C566 C567 1.385 . S
C566 C568 1.478 . S
C567 H561 0.930 . S
C567 C563 1.400 . S
C567 C566 1.385 . S
C568 C566 1.478 . S
C568 C570 1.381 . S
C568 C574 1.383 . S
C569 C565 1.495 . S
C569 H575 0.959 . S
C569 H576 0.961 . S
C569 H577 0.960 . S
C570 C568 1.381 . S
C570 C571 1.394 . S
C570 H578 0.930 . S
C571 C570 1.394 . S
C571 C572 1.383 . S
C571 H579 0.929 . S
C572 C571 1.383 . S
C572 C573 1.377 . S
C573 H557 0.930 . S
C573 C572 1.377 . S
C573 C574 1.379 . S
C574 H558 0.931 . S
C574 C568 1.383 . S
C574 C573 1.379 . S
H575 C569 0.959 . S
H576 C569 0.961 . S
H577 C569 0.960 . S
H578 C570 0.930 . S
H579 C571 0.929 . S
H580 C588 0.929 . S
H581 C590 0.930 . S
H582 C592 0.930 . S
H583 C595 0.929 . S
H584 C598 0.930 . S
H585 C600 0.960 . S
H586 C600 0.960 . S
H587 C600 0.960 . S
C588 H580 0.929 . S
C588 C589 1.377 . S
C588 C590 1.384 . S
C589 C588 1.377 . S
C589 C595 1.390 . S
C590 H581 0.930 . S
C590 C588 1.384 . S
C590 C591 1.372 . S
C591 C590 1.372 . S
C591 C592 1.400 . S
C591 C596 1.490 . S
C592 H582 0.930 . S
C592 C591 1.400 . S
C592 C595 1.386 . S
H593 C609 0.930 . S
H594 C610 0.931 . S
C595 H583 0.929 . S
C595 C589 1.390 . S
C595 C592 1.386 . S
C596 C591 1.490 . S
C596 C598 1.395 . S
C596 C599 1.403 . S
H597 C603 0.930 . S
C598 H584 0.930 . S
C598 C596 1.395 . S
C598 C601 1.403 . S
C599 C596 1.403 . S
C599 C600 1.524 . S
C599 C603 1.400 . S
C600 H585 0.960 . S
C600 H586 0.960 . S
C600 H587 0.960 . S
C600 C599 1.524 . S
C601 C598 1.403 . S
C601 C602 1.392 . S
C601 C605 1.495 . S
C602 C601 1.392 . S
C602 C603 1.385 . S
C602 C604 1.478 . S
C603 H597 0.930 . S
C603 C599 1.400 . S
C603 C602 1.385 . S
C604 C602 1.478 . S
C604 C606 1.381 . S
C604 C610 1.383 . S
C605 C601 1.495 . S
C605 H611 0.959 . S
C605 H612 0.961 . S
C605 H613 0.960 . S
C606 C604 1.381 . S
C606 C607 1.394 . S
C606 H614 0.930 . S
C607 C606 1.394 . S
C607 C608 1.383 . S
C607 H615 0.929 . S
C608 C607 1.383 . S
C608 C609 1.377 . S
C609 H593 0.930 . S
C609 C608 1.377 . S
C609 C610 1.379 . S
C610 H594 0.931 . S
C610 C604 1.383 . S
C610 C609 1.379 . S
H611 C605 0.959 . S
H612 C605 0.961 . S
H613 C605 0.960 . S
H614 C606 0.930 . S
H615 C607 0.929 . S
H616 C624 0.929 . S
H617 C626 0.930 . S
H618 C628 0.930 . S
H619 C631 0.929 . S
H620 C634 0.930 . S
H621 C636 0.960 . S
H622 C636 0.960 . S
H623 C636 0.960 . S
C624 H616 0.929 . S
C624 C625 1.377 . S
C624 C626 1.384 . S
C625 C624 1.377 . S
C625 C631 1.390 . S
C626 H617 0.930 . S
C626 C624 1.384 . S
C626 C627 1.372 . S
C627 C626 1.372 . S
C627 C628 1.400 . S
C627 C632 1.490 . S
C628 H618 0.930 . S
C628 C627 1.400 . S
C628 C631 1.386 . S
H629 C645 0.930 . S
H630 C646 0.931 . S
C631 H619 0.929 . S
C631 C625 1.390 . S
C631 C628 1.386 . S
C632 C627 1.490 . S
C632 C634 1.395 . S
C632 C635 1.403 . S
H633 C639 0.930 . S
C634 H620 0.930 . S
C634 C632 1.395 . S
C634 C637 1.403 1_554 S
C635 C632 1.403 . S
C635 C636 1.524 . S
C635 C639 1.400 1_554 S
C636 H621 0.960 . S
C636 H622 0.960 . S
C636 H623 0.960 . S
C636 C635 1.524 . S
C637 C634 1.403 1_556 S
C637 C638 1.392 . S
C637 C641 1.495 . S
C638 C637 1.392 . S
C638 C639 1.385 . S
C638 C640 1.478 . S
C639 H633 0.930 . S
C639 C635 1.400 1_556 S
C639 C638 1.385 . S
C640 C638 1.478 . S
C640 C642 1.381 . S
C640 C646 1.383 . S
C641 C637 1.495 . S
C641 H647 0.959 . S
C641 H648 0.961 . S
C641 H649 0.960 . S
C642 C640 1.381 . S
C642 C643 1.394 . S
C642 H650 0.930 . S
C643 C642 1.394 . S
C643 C644 1.383 . S
C643 H651 0.929 . S
C644 C643 1.383 . S
C644 C645 1.377 . S
C645 H629 0.930 . S
C645 C644 1.377 . S
C645 C646 1.379 . S
C646 H630 0.931 . S
C646 C640 1.383 . S
C646 C645 1.379 . S
H647 C641 0.959 . S
H648 C641 0.961 . S
H649 C641 0.960 . S
H650 C642 0.930 . S
H651 C643 0.929 . S
H652 C660 0.929 . S
H653 C662 0.930 . S
H654 C664 0.930 . S
H655 C667 0.929 . S
H656 C670 0.930 . S
H657 C672 0.960 . S
H658 C672 0.960 . S
H659 C672 0.960 . S
C660 H652 0.929 . S
C660 C661 1.377 . S
C660 C662 1.384 . S
C661 C660 1.377 . S
C661 C667 1.390 . S
C662 H653 0.930 . S
C662 C660 1.384 . S
C662 C663 1.372 . S
C663 C662 1.372 . S
C663 C664 1.400 . S
C663 C668 1.490 . S
C664 H654 0.930 . S
C664 C663 1.400 . S
C664 C667 1.386 . S
H665 C681 0.930 . S
H666 C682 0.931 . S
C667 H655 0.929 . S
C667 C661 1.390 . S
C667 C664 1.386 . S
C668 C663 1.490 . S
C668 C670 1.395 . S
C668 C671 1.403 . S
H669 C675 0.930 . S
C670 H656 0.930 . S
C670 C668 1.395 . S
C670 C673 1.403 1_554 S
C671 C668 1.403 . S
C671 C672 1.524 . S
C671 C675 1.400 1_554 S
C672 H657 0.960 . S
C672 H658 0.960 . S
C672 H659 0.960 . S
C672 C671 1.524 . S
C673 C670 1.403 1_556 S
C673 C674 1.392 . S
C673 C677 1.495 . S
C674 C673 1.392 . S
C674 C675 1.385 . S
C674 C676 1.478 . S
C675 H669 0.930 . S
C675 C671 1.400 1_556 S
C675 C674 1.385 . S
C676 C674 1.478 . S
C676 C678 1.381 . S
C676 C682 1.383 . S
C677 C673 1.495 . S
C677 H683 0.959 . S
C677 H684 0.961 . S
C677 H685 0.960 . S
C678 C676 1.381 . S
C678 C679 1.394 . S
C678 H686 0.930 . S
C679 C678 1.394 . S
C679 C680 1.383 . S
C679 H687 0.929 . S
C680 C679 1.383 . S
C680 C681 1.377 . S
C681 H665 0.930 . S
C681 C680 1.377 . S
C681 C682 1.379 . S
C682 H666 0.931 . S
C682 C676 1.383 . S
C682 C681 1.379 . S
H683 C677 0.959 . S
H684 C677 0.961 . S
H685 C677 0.960 . S
H686 C678 0.930 . S
H687 C679 0.929 . S
C121 C13 1.793 . S
C140 C29 1.775 . S
C157 C54 1.788 . S
C176 C15 1.775 . S
C193 C84 1.789 . S
C212 C57 1.770 . S
C229 C71 1.793 . S
C248 C110 1.804 1_655 S
C265 C96 2.075 . S
C284 C1 2.072 . S
C301 C27 2.076 . S
C320 C98 2.065 . S
C337 C41 2.077 . S
C356 C69 2.076 . S
C373 C42 2.077 . S
C392 C83 2.079 . S
C409 C85 2.193 . S
C428 C12 2.186 . S
C445 C14 2.187 . S
C464 C111 2.192 . S
C481 C56 2.190 . S
C500 C28 2.199 . S
C517 C70 2.193 . S
C536 C55 2.183 . S
C553 C26 0.355 . S
C572 C0 0.389 . S
C589 C40 0.357 . S
C608 C43 0.377 . S
C625 C82 0.351 . S
C644 C68 0.396 . S
C661 C97 0.348 . S
C680 C99 0.395 . S
