# Generated by pormake.
# Topology vmc, (5)-cn, num edge types: 1
# Building blocks:
#     Node 0, Type 0, BuildingBlock: XOMCOT_clean_sbu_1, # of connection points: 5
#     Node 1, Type 0, BuildingBlock: XOMCOT_clean_sbu_1, # of connection points: 5
#     Node 2, Type 0, BuildingBlock: XOMCOT_clean_sbu_1, # of connection points: 5
#     Node 3, Type 0, BuildingBlock: XOMCOT_clean_sbu_1, # of connection points: 5
#     Node 4, Type 0, BuildingBlock: XOMCOT_clean_sbu_1, # of connection points: 5
#     Node 5, Type 0, BuildingBlock: XOMCOT_clean_sbu_1, # of connection points: 5
#     Node 6, Type 0, BuildingBlock: XOMCOT_clean_sbu_1, # of connection points: 5
#     Node 7, Type 0, BuildingBlock: XOMCOT_clean_sbu_1, # of connection points: 5
#     Edge 8, Type (0, 0), BuildingBlock: ZUJKAS_clean_linker_0, # of connection points: 2
#     Edge 9, Type (0, 0), BuildingBlock: ZUJKAS_clean_linker_0, # of connection points: 2
#     Edge 10, Type (0, 0), BuildingBlock: ZUJKAS_clean_linker_0, # of connection points: 2
#     Edge 11, Type (0, 0), BuildingBlock: ZUJKAS_clean_linker_0, # of connection points: 2
#     Edge 12, Type (0, 0), BuildingBlock: ZUJKAS_clean_linker_0, # of connection points: 2
#     Edge 13, Type (0, 0), BuildingBlock: ZUJKAS_clean_linker_0, # of connection points: 2
#     Edge 14, Type (0, 0), BuildingBlock: ZUJKAS_clean_linker_0, # of connection points: 2
#     Edge 15, Type (0, 0), BuildingBlock: ZUJKAS_clean_linker_0, # of connection points: 2
#     Edge 16, Type (0, 0), BuildingBlock: ZUJKAS_clean_linker_0, # of connection points: 2
#     Edge 17, Type (0, 0), BuildingBlock: ZUJKAS_clean_linker_0, # of connection points: 2
#     Edge 18, Type (0, 0), BuildingBlock: ZUJKAS_clean_linker_0, # of connection points: 2
#     Edge 19, Type (0, 0), BuildingBlock: ZUJKAS_clean_linker_0, # of connection points: 2
#     Edge 20, Type (0, 0), BuildingBlock: ZUJKAS_clean_linker_0, # of connection points: 2
#     Edge 21, Type (0, 0), BuildingBlock: ZUJKAS_clean_linker_0, # of connection points: 2
#     Edge 22, Type (0, 0), BuildingBlock: ZUJKAS_clean_linker_0, # of connection points: 2
#     Edge 23, Type (0, 0), BuildingBlock: ZUJKAS_clean_linker_0, # of connection points: 2
#     Edge 24, Type (0, 0), BuildingBlock: ZUJKAS_clean_linker_0, # of connection points: 2
#     Edge 25, Type (0, 0), BuildingBlock: ZUJKAS_clean_linker_0, # of connection points: 2
#     Edge 26, Type (0, 0), BuildingBlock: ZUJKAS_clean_linker_0, # of connection points: 2
#     Edge 27, Type (0, 0), BuildingBlock: ZUJKAS_clean_linker_0, # of connection points: 2
# Relax obj value: 0.403
# Max RMSD: 0.209
# Mean RMSD: 0.209
data_MOF--net-vmc--node1-XOMCOT_clean_sbu_1--edge1-ZUJKAS_clean_linker_0
_symmetry_space_group_name_H-M    P1
_symmetry_Int_Tables_number       1
_symmetry_cell_setting            triclinic
loop_
_symmetry_equiv_pos_as_xyz
'x, y, z'
_cell_length_a     37.08385
_cell_length_b     61.414143
_cell_length_c     37.159556
_cell_angle_alpha  90.045573
_cell_angle_beta   99.906504
_cell_angle_gamma 89.984041
loop_
_atom_site_label
_atom_site_type_symbol
_atom_site_fract_x
_atom_site_fract_y
_atom_site_fract_z
_atom_type_partial_charge
C0 C 0.31677 0.39963 0.05473 0.0
C1 C 0.34554 0.39396 0.08163 0.0
N2 N 0.35072 0.41006 0.1067 0.0
N3 N 0.30345 0.41907 0.06303 0.0
C4 C 0.32481 0.42509 0.09467 0.0
H5 H 0.30683 0.39051 0.03011 0.0
Co6 Co 0.26791 0.43537 0.03299 0.0
C7 C 0.22253 0.44826 0.08901 0.0
O8 O 0.19294 0.43942 0.07006 0.0
N9 N 0.234 0.45236 1.0011 0.0
C10 C 0.1981 0.47871 0.97352 0.0
C11 C 0.21011 0.46823 1.00621 0.0
C12 C 0.23644 0.45396 0.96529 0.0
N13 N 0.21505 0.4698 0.94783 0.0
O14 O 0.30273 0.45788 0.03327 0.0
H15 H 0.20382 0.47337 0.03215 0.0
H16 H 0.25477 0.44407 0.9525 0.0
O17 O 0.25254 0.44793 0.07647 0.0
C18 C 0.32375 0.45365 1.01048 0.0
O19 O 0.3176 0.43594 0.99047 0.0
N20 N 0.23502 0.41168 0.03087 0.0
C21 C 0.21585 0.36784 0.02265 0.0
C22 C 0.22358 0.37725 0.05754 0.0
C23 C 0.23305 0.39929 0.06108 0.0
C24 C 0.22349 0.40327 0.99685 0.0
C25 C 0.21321 0.38151 0.99217 0.0
H26 H 0.24346 0.40549 0.0881 0.0
H27 H 0.22614 0.41248 0.97285 0.0
H28 H 0.32198 0.4405 0.10802 0.0
H29 H 0.36236 0.37955 0.08178 0.0
H30 H 0.1804 0.49284 0.96967 0.0
H31 H 0.2262 0.3673 0.0819 0.0
H32 H 0.20663 0.37501 0.96471 0.0
C33 C 0.67822 0.39983 0.46366 0.0
C34 C 0.64972 0.39433 0.43636 0.0
N35 N 0.64444 0.41078 0.412 0.0
N36 N 0.69125 0.41952 0.45634 0.0
C37 C 0.66997 0.42587 0.42487 0.0
H38 H 0.68832 0.39032 0.48779 0.0
Co39 Co 0.72719 0.43522 0.48693 0.0
C40 C 0.77165 0.44992 0.43081 0.0
O41 O 0.80168 0.44122 0.44913 0.0
N42 N 0.76181 0.45153 0.51958 0.0
C43 C 0.7968 0.4783 0.54697 0.0
C44 C 0.7842 0.46813 0.51421 0.0
C45 C 0.76099 0.45233 0.55589 0.0
N46 N 0.78182 0.46851 0.57327 0.0
O47 O 0.69261 0.45763 0.48879 0.0
H48 H 0.78878 0.4741 0.48814 0.0
H49 H 0.743 0.44229 0.56881 0.0
O50 O 0.74182 0.44887 0.44366 0.0
C51 C 0.67243 0.45285 0.51208 0.0
O52 O 0.67939 0.43487 0.53118 0.0
N53 N 0.75964 0.41153 0.48684 0.0
C54 C 0.77798 0.36737 0.48967 0.0
C55 C 0.7721 0.37857 0.45627 0.0
C56 C 0.76254 0.40059 0.45536 0.0
C57 C 0.76897 0.40141 0.51978 0.0
C58 C 0.77843 0.37939 0.52184 0.0
H59 H 0.75306 0.40792 0.42903 0.0
H60 H 0.76478 0.4095 0.54447 0.0
H61 H 0.67276 0.44145 0.41208 0.0
H62 H 0.63329 0.37971 0.43533 0.0
H63 H 0.81406 0.49261 0.55055 0.0
H64 H 0.77171 0.36998 0.43073 0.0
H65 H 0.78219 0.37146 0.54824 0.0
C66 C 0.67754 0.6068 0.96208 0.0
C67 C 0.6489 0.61202 0.93477 0.0
N68 N 0.64361 0.59534 0.9108 0.0
N69 N 0.69068 0.58706 0.95516 0.0
C70 C 0.66932 0.5804 0.92391 0.0
H71 H 0.68754 0.61649 0.98604 0.0
Co72 Co 0.72639 0.57158 0.98635 0.0
C73 C 0.77165 0.55677 0.93076 0.0
O74 O 0.80153 0.56582 0.94874 0.0
N75 N 0.76069 0.55554 0.01961 0.0
C76 C 0.79686 0.52975 0.04867 0.0
C77 C 0.78479 0.53959 0.01544 0.0
C78 C 0.75828 0.55465 0.05554 0.0
N79 N 0.77977 0.53912 0.07385 0.0
O80 O 0.69203 0.54901 0.98774 0.0
H81 H 0.79103 0.53384 0.98983 0.0
H82 H 0.73962 0.56463 0.06775 0.0
O83 O 0.74183 0.55782 0.94362 0.0
C84 C 0.67098 0.55361 1.01032 0.0
O85 O 0.67667 0.57177 0.02918 0.0
N86 N 0.75868 0.59538 0.98673 0.0
C87 C 0.77677 0.63958 0.9903 0.0
C88 C 0.77139 0.62848 0.95676 0.0
C89 C 0.76201 0.60641 0.95549 0.0
C90 C 0.76751 0.60541 0.01982 0.0
C91 C 0.77685 0.62743 0.02225 0.0
H92 H 0.75301 0.59909 0.92903 0.0
H93 H 0.76302 0.59726 0.04432 0.0
H94 H 0.67206 0.56467 0.91157 0.0
H95 H 0.63227 0.62657 0.93358 0.0
H96 H 0.81452 0.51563 0.05324 0.0
H97 H 0.77131 0.63715 0.93138 0.0
H98 H 0.7802 0.63527 0.04873 0.0
C99 C 0.31692 0.60303 0.55319 0.0
C100 C 0.34569 0.6086 0.58019 0.0
N101 N 0.35022 0.59265 0.60549 0.0
N102 N 0.303 0.58381 0.56167 0.0
C103 C 0.32399 0.57781 0.5935 0.0
H104 H 0.30728 0.61211 0.52847 0.0
Co105 Co 0.26672 0.5678 0.53204 0.0
C106 C 0.22181 0.55563 0.58885 0.0
O107 O 0.19223 0.56462 0.57017 0.0
N108 N 0.23194 0.55105 0.50061 0.0
C109 C 0.19558 0.52456 0.47422 0.0
C110 C 0.20849 0.53514 0.50659 0.0
C111 C 0.23312 0.54941 0.46451 0.0
N112 N 0.21135 0.5335 0.4477 0.0
O113 O 0.30087 0.54493 0.53201 0.0
H114 H 0.20307 0.53005 0.53288 0.0
H115 H 0.25169 0.55883 0.45128 0.0
O116 O 0.25158 0.55559 0.57587 0.0
C117 C 0.32159 0.54889 0.50885 0.0
O118 O 0.3152 0.56641 0.48845 0.0
N119 N 0.23458 0.59185 0.5303 0.0
C120 C 0.2161 0.63585 0.5227 0.0
C121 C 0.22408 0.62632 0.55746 0.0
C122 C 0.23323 0.60424 0.5607 0.0
C123 C 0.22301 0.6004 0.49642 0.0
C124 C 0.21305 0.62224 0.49204 0.0
H125 H 0.24381 0.59795 0.5876 0.0
H126 H 0.22529 0.59119 0.47228 0.0
H127 H 0.32054 0.56259 0.60715 0.0
H128 H 0.36282 0.62288 0.58037 0.0
H129 H 0.17737 0.51067 0.47098 0.0
H130 H 0.2271 0.63619 0.58196 0.0
H131 H 0.20629 0.62881 0.46467 0.0
C132 C 0.81255 0.89658 0.06209 0.0
C133 C 0.84055 0.89131 0.09003 0.0
N134 N 0.84738 0.90868 0.11242 0.0
N135 N 0.80142 0.91709 0.06698 0.0
C136 C 0.82318 0.92407 0.09775 0.0
H137 H 0.80184 0.88638 0.03898 0.0
Co138 Co 0.76768 0.93302 0.03432 0.0
C139 C 0.74824 0.96736 0.08308 0.0
O140 O 0.75424 0.98217 0.05929 0.0
N141 N 0.73475 0.94899 1.00031 0.0
C142 C 0.68807 0.96715 0.96827 0.0
C143 C 0.70064 0.95646 1.00077 0.0
C144 C 0.74195 0.95495 0.96728 0.0
N145 N 0.71432 0.96624 0.94724 0.0
O146 O 0.80402 0.95459 0.03327 0.0
H147 H 0.68588 0.9543 0.02322 0.0
H148 H 0.76683 0.95058 0.95769 0.0
O149 O 0.75127 0.94721 0.07568 0.0
C150 C 0.82645 0.94857 0.0129 0.0
O151 O 0.82083 0.92986 0.99559 0.0
N152 N 0.73374 0.91061 0.03357 0.0
C153 C 0.71182 0.86728 0.03147 0.0
C154 C 0.71443 0.87941 0.06392 0.0
C155 C 0.72535 0.90125 0.0644 0.0
C156 C 0.72753 0.89982 1.00108 0.0
C157 C 0.71627 0.87816 0.99934 0.0
H158 H 0.73129 0.90965 0.0903 0.0
H159 H 0.73547 0.90717 0.97719 0.0
H160 H 0.82189 0.94037 0.10854 0.0
H161 H 0.8558 0.87621 0.09262 0.0
H162 H 0.66182 0.97512 0.961 0.0
H163 H 0.71096 0.87165 0.08926 0.0
H164 H 0.71504 0.86945 0.9738 0.0
C165 C 0.17524 0.9001 0.46773 0.0
C166 C 0.14681 0.89482 0.44022 0.0
N167 N 0.14319 0.91082 0.41503 0.0
N168 N 0.18988 0.9192 0.45973 0.0
C169 C 0.16964 0.92543 0.42763 0.0
H170 H 0.1841 0.89093 0.49252 0.0
Co171 Co 0.22589 0.93469 0.49067 0.0
C172 C 0.27211 0.94639 0.43448 0.0
O173 O 0.30057 0.93576 0.45198 0.0
N174 N 0.2603 0.95083 0.5235 0.0
C175 C 0.29898 0.97545 0.5525 0.0
C176 C 0.28702 0.96514 0.51956 0.0
C177 C 0.25643 0.95303 0.55887 0.0
N178 N 0.27936 0.9679 0.57717 0.0
O179 O 0.19206 0.95777 0.49065 0.0
H180 H 0.29585 0.96915 0.49422 0.0
H181 H 0.23637 0.94409 0.57081 0.0
O182 O 0.24257 0.94743 0.4478 0.0
C183 C 0.17034 0.95345 0.51272 0.0
O184 O 0.17529 0.93533 0.53174 0.0
N185 N 0.25761 0.91038 0.49262 0.0
C186 C 0.27541 0.8663 0.50084 0.0
C187 C 0.26757 0.87567 0.46595 0.0
C188 C 0.25875 0.89779 0.46241 0.0
C189 C 0.26902 0.90195 0.52663 0.0
C190 C 0.27862 0.88007 0.53131 0.0
H191 H 0.24841 0.90403 0.43541 0.0
H192 H 0.26694 0.91133 0.55066 0.0
H193 H 0.17374 0.94066 0.41426 0.0
H194 H 0.12921 0.88073 0.43967 0.0
H195 H 0.31894 0.98845 0.5572 0.0
H196 H 0.26446 0.86568 0.44159 0.0
H197 H 0.2853 0.87362 0.55878 0.0
C198 C 0.17768 0.10263 0.96834 0.0
C199 C 0.14932 0.10767 0.94064 0.0
N200 N 0.14558 0.09134 0.916 0.0
N201 N 0.19219 0.08333 0.96106 0.0
C202 C 0.1719 0.07676 0.92914 0.0
H203 H 0.1866 0.11214 0.99276 0.0
Co204 Co 0.22859 0.06835 0.99254 0.0
C205 C 0.27501 0.05454 0.93687 0.0
O206 O 0.30443 0.0645 0.95366 0.0
N207 N 0.26455 0.05296 0.02601 0.0
C208 C 0.31513 0.04491 0.0658 0.0
C209 C 0.30135 0.0555 0.03368 0.0
C210 C 0.25705 0.04043 0.05388 0.0
N211 N 0.28711 0.03545 0.0784 0.0
O212 O 0.19511 0.04507 0.99264 0.0
H213 H 0.31704 0.06627 0.01946 0.0
H214 H 0.22979 0.03653 0.05825 0.0
O215 O 0.24543 0.05526 0.95014 0.0
C216 C 0.17257 0.04994 0.01364 0.0
O217 O 0.17817 0.06785 0.03323 0.0
N218 N 0.25901 0.09284 0.99407 0.0
C219 C 0.27414 0.13719 1.00144 0.0
C220 C 0.27013 0.12713 0.96701 0.0
C221 C 0.26253 0.10481 0.96387 0.0
C222 C 0.26616 0.10202 0.02796 0.0
C223 C 0.27467 0.12402 0.03232 0.0
H224 H 0.25478 0.09792 0.93688 0.0
H225 H 0.26154 0.09281 0.05154 0.0
H226 H 0.17589 0.06135 0.91627 0.0
H227 H 0.13188 0.12187 0.93956 0.0
H228 H 0.34319 0.04531 0.07997 0.0
H229 H 0.26904 0.13668 0.94237 0.0
H230 H 0.2783 0.131 0.05948 0.0
C231 C 0.81519 0.10682 0.56352 0.0
C232 C 0.84355 0.11167 0.59133 0.0
N233 N 0.84903 0.0945 0.61422 0.0
N234 N 0.80236 0.08678 0.56901 0.0
C235 C 0.82365 0.07961 0.59995 0.0
H236 H 0.80532 0.11693 0.54008 0.0
Co237 Co 0.76761 0.07154 0.53608 0.0
C238 C 0.72057 0.05613 0.58987 0.0
O239 O 0.69121 0.0657 0.57187 0.0
N240 N 0.73438 0.05584 0.501 0.0
C241 C 0.69603 0.03216 0.4687 0.0
C242 C 0.70708 0.04146 0.50266 0.0
C243 C 0.73961 0.05456 0.46586 0.0
N244 N 0.71689 0.0403 0.4457 0.0
O245 O 0.80257 0.04922 0.53478 0.0
H246 H 0.69726 0.03655 0.52703 0.0
H247 H 0.76059 0.06354 0.45534 0.0
O248 O 0.75075 0.05709 0.57761 0.0
C249 C 0.82467 0.05486 0.5138 0.0
O250 O 0.81958 0.07368 0.49684 0.0
N251 N 0.73487 0.09512 0.53552 0.0
C252 C 0.7159 0.13916 0.53227 0.0
C253 C 0.72094 0.12793 0.56564 0.0
C254 C 0.73074 0.10594 0.56676 0.0
C255 C 0.7264 0.10525 0.5025 0.0
C256 C 0.71661 0.12721 0.50022 0.0
H257 H 0.73942 0.09852 0.59318 0.0
H258 H 0.73147 0.09722 0.47805 0.0
H259 H 0.82126 0.06351 0.61107 0.0
H260 H 0.85999 0.12632 0.59347 0.0
H261 H 0.67599 0.01931 0.46212 0.0
H262 H 0.72044 0.13648 0.59105 0.0
H263 H 0.71352 0.13519 0.47389 0.0
H264 H 0.16428 0.55489 0.62614 0.0
H265 H 0.16303 0.5399 0.68683 0.0
H266 H 0.27501 0.51885 0.69435 0.0
H267 H 0.27677 0.53415 0.63392 0.0
H268 H 0.17356 0.4981 0.71288 0.0
H269 H 0.27899 0.55306 0.78847 0.0
H270 H 0.25804 0.55791 0.74164 0.0
H271 H 0.29423 0.53823 0.75224 0.0
C272 C 0.1887 0.5471 0.64067 0.0
C273 C 0.22071 0.54586 0.62519 0.0
C274 C 0.18791 0.53851 0.67539 0.0
C275 C 0.2191 0.52857 0.69546 0.0
C276 C 0.25087 0.52689 0.67978 0.0
H277 H 0.26967 0.46685 0.90781 0.0
H278 H 0.26909 0.4804 0.846 0.0
C279 C 0.25174 0.53554 0.64509 0.0
C280 C 0.21819 0.51981 0.73261 0.0
H281 H 0.25925 0.52383 0.82205 0.0
C282 C 0.19218 0.5038 0.73678 0.0
C283 C 0.24245 0.52728 0.76382 0.0
C284 C 0.26978 0.54521 0.7615 0.0
C285 C 0.19025 0.49475 0.77116 0.0
C286 C 0.21466 0.50213 0.80228 0.0
C287 C 0.2406 0.51816 0.79814 0.0
C288 C 0.21407 0.49328 0.83939 0.0
C289 C 0.16268 0.47702 0.77378 0.0
C290 C 0.18336 0.49611 0.85637 0.0
C291 C 0.18351 0.48826 0.89179 0.0
C292 C 0.2144 0.47743 0.91093 0.0
C293 C 0.24512 0.47468 0.89374 0.0
C294 C 0.24497 0.48259 0.85845 0.0
H295 H 0.15208 0.46967 0.74669 0.0
H296 H 0.17487 0.46395 0.79267 0.0
H297 H 0.13914 0.48401 0.78467 0.0
H298 H 0.15943 0.50464 0.84241 0.0
H299 H 0.15943 0.4906 0.90417 0.0
H300 H 0.79759 0.50932 0.60033 0.0
H301 H 0.79652 0.52216 0.66216 0.0
H302 H 0.7651 0.45814 0.69279 0.0
H303 H 0.76737 0.44486 0.63112 0.0
H304 H 0.73813 0.5233 0.69849 0.0
H305 H 0.84975 0.47262 0.77468 0.0
H306 H 0.84277 0.47561 0.72565 0.0
H307 H 0.81434 0.45743 0.74636 0.0
C308 C 0.79116 0.49776 0.62022 0.0
C309 C 0.78275 0.47593 0.61047 0.0
C310 C 0.79024 0.50523 0.65563 0.0
C311 C 0.78108 0.49111 0.68233 0.0
C312 C 0.77284 0.46929 0.67289 0.0
H313 H 0.7151 0.53659 0.88544 0.0
H314 H 0.71639 0.51983 0.82586 0.0
C315 C 0.77378 0.46177 0.63742 0.0
C316 C 0.77901 0.49953 0.71954 0.0
H317 H 0.81533 0.49377 0.81006 0.0
C318 C 0.75498 0.51682 0.72289 0.0
C319 C 0.80124 0.49123 0.75138 0.0
C320 C 0.82874 0.47333 0.74948 0.0
C321 C 0.75255 0.52601 0.75707 0.0
C322 C 0.77431 0.51746 0.78898 0.0
C323 C 0.79841 0.5002 0.78565 0.0
C324 C 0.77359 0.52682 0.82586 0.0
C325 C 0.72743 0.54521 0.75856 0.0
C326 C 0.80554 0.53576 0.84628 0.0
C327 C 0.80496 0.54523 0.88045 0.0
C328 C 0.77241 0.54591 0.8951 0.0
C329 C 0.74059 0.53651 0.87494 0.0
C330 C 0.74122 0.52701 0.84074 0.0
H331 H 0.7197 0.55309 0.73142 0.0
H332 H 0.70196 0.53956 0.76749 0.0
H333 H 0.74047 0.55759 0.77842 0.0
H334 H 0.83087 0.53574 0.83547 0.0
H335 H 0.83001 0.55224 0.89518 0.0
H336 H 0.82988 0.45377 0.39495 0.0
H337 H 0.83099 0.47023 0.3353 0.0
H338 H 0.71647 0.48613 0.32519 0.0
H339 H 0.7151 0.46983 0.38509 0.0
H340 H 0.78878 0.45822 0.26769 0.0
H341 H 0.76312 0.54422 0.30222 0.0
H342 H 0.77726 0.52379 0.33669 0.0
H343 H 0.73055 0.52489 0.31368 0.0
C344 C 0.80493 0.46089 0.38024 0.0
C345 C 0.77241 0.46052 0.39498 0.0
C346 C 0.80563 0.47027 0.34606 0.0
C347 C 0.77396 0.47966 0.32593 0.0
C348 C 0.74143 0.47935 0.34051 0.0
H349 H 0.72384 0.54121 0.11238 0.0
H350 H 0.7231 0.52686 0.17355 0.0
C351 C 0.74066 0.46992 0.37471 0.0
C352 C 0.77484 0.48906 0.28917 0.0
H353 H 0.76352 0.53629 0.23991 0.0
C354 C 0.7834 0.47531 0.26163 0.0
C355 C 0.76764 0.51133 0.28125 0.0
C356 C 0.75941 0.52701 0.31004 0.0
C357 C 0.7844 0.48312 0.22625 0.0
C358 C 0.77755 0.50546 0.21835 0.0
C359 C 0.76889 0.5192 0.24592 0.0
C360 C 0.77874 0.51482 0.18157 0.0
C361 C 0.79182 0.4672 0.19743 0.0
C362 C 0.81053 0.5133 0.16585 0.0
C363 C 0.81101 0.52148 0.13075 0.0
C364 C 0.77991 0.53168 0.11079 0.0
C365 C 0.74846 0.53374 0.12705 0.0
C366 C 0.74792 0.52542 0.16202 0.0
H367 H 0.78608 0.45017 0.20477 0.0
H368 H 0.77501 0.471 0.17046 0.0
H369 H 0.82112 0.46818 0.19477 0.0
H370 H 0.83501 0.50574 0.18072 0.0
H371 H 0.83579 0.51991 0.11924 0.0
H372 H 0.16337 0.45171 0.12368 0.0
H373 H 0.16124 0.46749 0.18364 0.0
H374 H 0.27587 0.48361 0.19609 0.0
H375 H 0.27843 0.46759 0.13623 0.0
H376 H 0.25788 0.4639 0.2573 0.0
H377 H 0.16197 0.53165 0.21204 0.0
H378 H 0.14478 0.50544 0.19589 0.0
H379 H 0.1846 0.51642 0.1808 0.0
C380 C 0.18813 0.45872 0.13901 0.0
C381 C 0.22105 0.45844 0.125 0.0
C382 C 0.18679 0.46787 0.17325 0.0
C383 C 0.21824 0.47706 0.19415 0.0
C384 C 0.2512 0.47673 0.18035 0.0
H385 H 0.22533 0.55675 0.38948 0.0
H386 H 0.22756 0.54308 0.32808 0.0
C387 C 0.25259 0.46758 0.14608 0.0
C388 C 0.21703 0.48629 0.23095 0.0
H389 H 0.17429 0.52439 0.27596 0.0
C390 C 0.23972 0.47719 0.26137 0.0
C391 C 0.19367 0.50382 0.23622 0.0
C392 C 0.17012 0.51507 0.20449 0.0
C393 C 0.23914 0.48482 0.29693 0.0
C394 C 0.21474 0.50177 0.30234 0.0
C395 C 0.19264 0.5112 0.27185 0.0
C396 C 0.21218 0.51014 0.33939 0.0
C397 C 0.2651 0.47486 0.32835 0.0
C398 C 0.20197 0.49632 0.36598 0.0
C399 C 0.20092 0.50404 0.40123 0.0
C400 C 0.20986 0.52584 0.41064 0.0
C401 C 0.21891 0.53981 0.3835 0.0
C402 C 0.21999 0.53205 0.34827 0.0
H403 H 0.28832 0.46645 0.31891 0.0
H404 H 0.27627 0.48743 0.34875 0.0
H405 H 0.25016 0.46264 0.34213 0.0
H406 H 0.19508 0.47946 0.35956 0.0
H407 H 0.194 0.49275 0.42129 0.0
H408 H 0.65454 0.97749 0.89698 0.0
H409 H 0.65418 0.99216 0.83559 0.0
H410 H 0.77205 0.99027 0.85367 0.0
H411 H 0.77285 0.97614 0.91499 0.0
H412 H 0.68961 0.03115 0.81461 0.0
H413 H 0.74123 0.95629 0.75669 0.0
H414 H 0.72204 0.95612 0.79819 0.0
H415 H 0.76804 0.9655 0.79889 0.0
C416 C 0.68042 0.9803 0.88808 0.0
C417 C 0.7137 0.9753 0.91109 0.0
C418 C 0.68014 0.98861 0.85285 0.0
C419 C 0.71307 0.99193 0.83976 0.0
C420 C 0.74627 0.98736 0.86282 0.0
H421 H 0.77725 0.03887 0.63906 0.0
H422 H 0.77464 0.02349 0.69936 0.0
C423 C 0.74661 0.97918 0.898 0.0
C424 C 0.71298 1.00055 0.8023 0.0
H425 H 0.73815 0.98819 0.72036 0.0
C426 C 0.69995 0.02172 0.79388 0.0
C427 C 0.72674 0.98828 0.77537 0.0
C428 C 0.74005 0.96521 0.78249 0.0
C429 C 0.7011 0.03114 0.75957 0.0
C430 C 0.71482 0.01886 0.73255 0.0
C431 C 0.72766 0.99763 0.74098 0.0
C432 C 0.71616 0.02776 0.69545 0.0
C433 C 0.68865 0.05442 0.75305 0.0
C434 C 0.68409 0.03484 0.67272 0.0
C435 C 0.68552 0.04373 0.63831 0.0
C436 C 0.71903 0.04553 0.62558 0.0
C437 C 0.75099 0.03781 0.64795 0.0
C438 C 0.74954 0.02901 0.68248 0.0
H439 H 0.68899 0.06335 0.77912 0.0
H440 H 0.70623 0.06328 0.73658 0.0
H441 H 0.66014 0.05458 0.73787 0.0
H442 H 0.65786 0.03353 0.6816 0.0
H443 H 0.66029 0.04932 0.62177 0.0
H444 H 0.33224 0.05199 0.89937 0.0
H445 H 0.33238 0.03652 0.83882 0.0
H446 H 0.21943 0.01766 0.832 0.0
H447 H 0.21884 0.03339 0.89247 0.0
H448 H 0.31911 0.9946 0.81275 0.0
H449 H 0.21723 0.05193 0.73777 0.0
H450 H 0.23888 0.05648 0.78449 0.0
H451 H 0.20159 0.03753 0.7742 0.0
C452 C 0.30736 0.04455 0.88509 0.0
C453 C 0.27542 0.04411 0.90079 0.0
C454 C 0.30753 0.03569 0.85041 0.0
C455 C 0.27577 0.02625 0.83053 0.0
C456 C 0.24406 0.02529 0.84644 0.0
H457 H 0.22304 0.96733 0.61534 0.0
H458 H 0.2234 0.98067 0.67724 0.0
C459 C 0.24383 0.03418 0.88116 0.0
C460 C 0.27606 0.01739 0.79325 0.0
H461 H 0.23617 0.02276 0.70365 0.0
C462 C 0.30105 1.0008 0.78887 0.0
C463 C 0.25253 0.0255 0.76206 0.0
C464 C 0.22625 0.04397 0.76466 0.0
C465 C 0.30273 0.99186 0.75432 0.0
C466 C 0.27921 0.99998 0.72316 0.0
C467 C 0.25418 0.01654 0.72754 0.0
C468 C 0.27977 0.99138 0.68578 0.0
C469 C 0.32911 0.97347 0.7516 0.0
C470 C 0.31131 0.99308 0.66971 0.0
C471 C 0.3113 0.9853 0.63422 0.0
C472 C 0.27972 0.97569 0.61401 0.0
C473 C 0.24813 0.97417 0.6302 0.0
C474 C 0.24816 0.98198 0.66558 0.0
H475 H 0.33827 0.96551 0.77846 0.0
H476 H 0.3165 0.96096 0.73175 0.0
H477 H 0.35367 0.98 0.74197 0.0
H478 H 0.33584 1.00064 0.68448 0.0
H479 H 0.33608 0.9867 0.6227 0.0
H480 H 0.24989 1.00003 0.09438 0.0
H481 H 0.24804 0.98502 0.15517 0.0
H482 H 0.32119 0.03577 0.20373 0.0
H483 H 0.32467 0.04985 0.1428 0.0
H484 H 0.34 1.00102 0.23798 0.0
H485 H 0.18986 0.00589 0.22719 0.0
H486 H 0.20187 0.9887 0.19215 0.0
H487 H 0.21327 0.01727 0.19294 0.0
C488 C 0.26569 0.00781 0.11814 0.0
C489 C 0.28747 0.02602 0.11397 0.0
C490 C 0.2643 0.99943 0.15293 0.0
C491 C 0.28362 0.00958 0.18442 0.0
C492 C 0.30587 0.02762 0.18008 0.0
H493 H 0.23332 0.9812 0.40183 0.0
H494 H 0.23742 0.99756 0.34249 0.0
C495 C 0.30797 0.03565 0.14525 0.0
C496 C 0.28135 1.00124 0.22178 0.0
H497 H 0.22151 0.9848 0.27684 0.0
C498 C 0.31401 0.99767 0.24649 0.0
C499 C 0.24753 0.99728 0.23356 0.0
C500 C 0.2112 0.00273 0.21019 0.0
C501 C 0.31389 0.98999 0.28211 0.0
C502 C 0.28017 0.9846 0.29301 0.0
C503 C 0.24747 0.98854 0.26855 0.0
C504 C 0.27813 0.97488 0.32951 0.0
C505 C 0.35003 0.9884 0.30786 0.0
C506 C 0.29918 0.9565 0.34209 0.0
C507 C 0.29762 0.94757 0.37641 0.0
C508 C 0.27398 0.95629 0.39848 0.0
C509 C 0.25193 0.97419 0.38549 0.0
C510 C 0.25422 0.98351 0.35151 0.0
H511 H 0.37025 1.00016 0.30035 0.0
H512 H 0.34687 0.99157 0.33656 0.0
H513 H 0.36152 0.97183 0.30608 0.0
H514 H 0.31668 0.94887 0.32526 0.0
H515 H 0.3144 0.93349 0.38534 0.0
H516 H 0.65971 0.02936 0.39319 0.0
H517 H 0.66233 0.01692 0.33093 0.0
H518 H 0.78021 0.02134 0.35371 0.0
H519 H 0.77738 0.0347 0.41516 0.0
H520 H 0.75792 0.03664 0.2898 0.0
H521 H 0.68564 0.95841 0.29689 0.0
H522 H 0.65781 0.98114 0.305 0.0
H523 H 0.69932 0.97534 0.33652 0.0
C524 C 0.68611 0.02761 0.38479 0.0
C525 C 0.7183 0.03304 0.40899 0.0
C526 C 0.68766 0.02031 0.3493 0.0
C527 C 0.72154 0.01765 0.33759 0.0
C528 C 0.75369 0.02317 0.36186 0.0
H529 H 0.75703 0.9434 0.14616 0.0
H530 H 0.75018 0.95577 0.20728 0.0
C531 C 0.75208 0.03088 0.39701 0.0
C532 C 0.72374 0.00976 0.29989 0.0
H533 H 0.696 0.96926 0.23796 0.0
C534 C 0.74447 0.02184 0.27862 0.0
C535 C 0.70677 0.99023 0.2852 0.0
C536 C 0.68649 0.97541 0.30724 0.0
C537 C 0.7486 0.0151 0.24336 0.0
C538 C 0.73021 0.99615 0.22801 0.0
C539 C 0.7097 0.98395 0.24934 0.0
C540 C 0.73276 0.9884 0.19035 0.0
C541 C 0.77371 0.02806 0.22355 0.0
C542 C 0.72438 0.00234 0.16006 0.0
C543 C 0.72889 0.99541 0.12517 0.0
C544 C 0.74093 0.97417 0.11954 0.0
C545 C 0.74765 0.95987 0.14952 0.0
C546 C 0.74376 0.96694 0.18454 0.0
H547 H 0.79419 0.0374 0.24292 0.0
H548 H 0.78857 0.01735 0.20696 0.0
H549 H 0.75728 0.03995 0.20511 0.0
H550 H 0.71461 0.01871 0.16339 0.0
H551 H 0.72303 0.00675 0.1026 0.0
H552 H 0.36739 0.45126 0.95915 0.0
H553 H 0.4266 0.46869 0.96038 0.0
H554 H 0.41479 0.50244 0.05955 0.0
H555 H 0.35538 0.48469 0.0589 0.0
H556 H 0.44681 0.51277 0.96136 0.0
H557 H 0.51204 0.4687 0.08655 0.0
H558 H 0.46822 0.46087 0.06068 0.0
H559 H 0.47161 0.48397 0.09074 0.0
C560 C 0.37721 0.46251 0.98113 0.0
C561 C 0.35698 0.46648 1.00915 0.0
C562 C 0.411 0.47246 0.98172 0.0
C563 C 0.42522 0.48648 1.01038 0.0
C564 C 0.40442 0.49131 0.03757 0.0
H565 H 0.62789 0.55639 0.06212 0.0
H566 H 0.56895 0.53877 0.06192 0.0
C567 C 0.37044 0.48134 0.03699 0.0
C568 C 0.46233 0.49545 0.01201 0.0
H569 H 0.54867 0.49425 0.06175 0.0
C570 C 0.46914 0.50875 0.98327 0.0
C571 C 0.49127 0.48995 0.04054 0.0
C572 C 0.48567 0.47495 0.07127 0.0
C573 C 0.50419 0.51705 0.98256 0.0
C574 C 0.53313 0.51153 1.01107 0.0
C575 C 0.52633 0.49827 0.03986 0.0
C576 C 0.57027 0.5204 0.01248 0.0
C577 C 0.50982 0.532 0.95179 0.0
C578 C 0.59094 0.51528 0.98533 0.0
C579 C 0.62475 0.52534 0.98533 0.0
C580 C 0.63813 0.54061 0.01253 0.0
C581 C 0.6181 0.54483 0.04062 0.0
C582 C 0.58448 0.53476 0.04062 0.0
H583 H 0.48346 0.53821 0.93643 0.0
H584 H 0.52723 0.5461 0.96235 0.0
H585 H 0.52395 0.52296 0.9324 0.0
H586 H 0.58055 0.50391 0.96373 0.0
H587 H 0.63967 0.52178 0.96339 0.0
H588 H 0.63015 0.44914 0.56445 0.0
H589 H 0.57042 0.46565 0.56493 0.0
H590 H 0.5787 0.50065 0.46612 0.0
H591 H 0.63891 0.48418 0.46539 0.0
H592 H 0.55118 0.5252 0.52387 0.0
H593 H 0.47949 0.44647 0.48894 0.0
H594 H 0.51642 0.44571 0.52722 0.0
H595 H 0.52596 0.45127 0.48235 0.0
C596 C 0.61948 0.46051 0.54297 0.0
C597 C 0.63898 0.46523 0.51466 0.0
C598 C 0.58533 0.46984 0.54325 0.0
C599 C 0.57005 0.48395 0.51518 0.0
C600 C 0.59014 0.48962 0.48785 0.0
H601 H 0.36548 0.55116 0.45772 0.0
H602 H 0.42549 0.53447 0.46004 0.0
C603 C 0.62447 0.48028 0.48754 0.0
C604 C 0.53257 0.49221 0.51394 0.0
H605 H 0.44335 0.47597 0.50337 0.0
C606 C 0.52756 0.51451 0.51928 0.0
C607 C 0.50201 0.47807 0.50808 0.0
C608 C 0.50602 0.45406 0.50102 0.0
C609 C 0.49254 0.52307 0.51929 0.0
C610 C 0.46198 0.50895 0.51325 0.0
C611 C 0.467 0.48664 0.50812 0.0
C612 C 0.42444 0.51734 0.51065 0.0
C613 C 0.48846 0.5471 0.52612 0.0
C614 C 0.40353 0.5124 0.53764 0.0
C615 C 0.36903 0.52186 0.53638 0.0
C616 C 0.35519 0.5363 0.50802 0.0
C617 C 0.37558 0.54027 0.48012 0.0
C618 C 0.40989 0.53084 0.48142 0.0
H619 H 0.51491 0.5547 0.53842 0.0
H620 H 0.47832 0.55538 0.49979 0.0
H621 H 0.46826 0.54995 0.5445 0.0
H622 H 0.41441 0.50183 0.56025 0.0
H623 H 0.35391 0.51856 0.55826 0.0
H624 H 0.12752 0.05285 0.0636 0.0
H625 H 0.06877 0.0348 0.06211 0.0
H626 H 0.0831 1.00031 0.96439 0.0
H627 H 0.14244 0.01828 0.96578 0.0
H628 H 0.00954 0.03857 1.00276 0.0
H629 H 0.05237 0.95265 0.03224 0.0
H630 H 0.08357 0.97528 0.04238 0.0
H631 H 0.07102 0.96575 0.99625 0.0
C632 C 0.11846 0.0412 0.04202 0.0
C633 C 0.13948 0.03696 0.01475 0.0
C634 C 0.08489 0.03095 0.04122 0.0
C635 C 0.07181 0.01624 0.01324 0.0
C636 C 0.09311 0.01143 0.98648 0.0
H637 H 0.8707 0.94365 0.96255 0.0
H638 H 0.92901 0.96167 0.96113 0.0
C639 C 0.1269 0.02168 0.9873 0.0
C640 C 0.03487 0.00698 1.01119 0.0
H641 H 0.98885 0.95953 0.01743 0.0
C642 C 0.0049 0.02129 1.00597 0.0
C643 C 0.02921 0.98448 0.01539 0.0
C644 C 0.06069 0.96859 0.02217 0.0
C645 C 0.96913 0.0136 1.00453 0.0
C646 C 0.96347 0.99111 1.00902 0.0
C647 C 0.99344 0.97679 0.01403 0.0
C648 C 0.92665 0.9819 1.00833 0.0
C649 C 0.9377 0.02952 0.99764 0.0
C650 C 0.90586 0.98761 0.03512 0.0
C651 C 0.87232 0.97741 0.03591 0.0
C652 C 0.85952 0.96121 1.01017 0.0
C653 C 0.88001 0.95599 0.98288 0.0
C654 C 0.9133 0.96624 0.982 0.0
H655 H 0.94574 0.04505 0.98588 0.0
H656 H 0.91408 0.02249 0.97877 0.0
H657 H 0.92861 0.03331 0.02388 0.0
H658 H 0.91609 0.99942 0.05605 0.0
H659 H 0.85716 0.9816 0.0574 0.0
H660 H 0.86858 0.05958 0.46317 0.0
H661 H 0.92702 0.04173 0.46176 0.0
H662 H 0.91429 0.00386 0.5565 0.0
H663 H 0.85527 0.02162 0.55798 0.0
H664 H 0.98688 0.044 0.51938 0.0
H665 H 0.94444 0.95863 0.48487 0.0
H666 H 0.91285 0.98122 0.47746 0.0
H667 H 0.92646 0.97024 0.52253 0.0
C668 C 0.87793 0.04724 0.48346 0.0
C669 C 0.85749 0.04201 0.51079 0.0
C670 C 0.91131 0.03709 0.48258 0.0
C671 C 0.92478 0.02148 0.50891 0.0
C672 C 0.90398 0.01568 0.53563 0.0
H673 H 0.12603 0.95092 0.56337 0.0
H674 H 0.06747 0.96911 0.56242 0.0
C675 C 0.87038 0.02582 0.53647 0.0
C676 C 0.96171 0.01243 0.50964 0.0
H677 H 0.00812 0.96526 0.50184 0.0
C678 C 0.9916 0.0268 0.51538 0.0
C679 C 0.96752 0.99003 0.50432 0.0
C680 C 0.93615 0.97411 0.49663 0.0
C681 C 0.02744 0.01924 0.51664 0.0
C682 C 0.03325 0.99682 0.51162 0.0
C683 C 0.00336 0.98247 0.50568 0.0
C684 C 0.07025 0.98767 0.51356 0.0
C685 C 0.05887 0.03512 0.52417 0.0
C686 C 0.09138 0.99249 0.48667 0.0
C687 C 0.12503 0.98212 0.48712 0.0
C688 C 0.13765 0.96674 0.51435 0.0
C689 C 0.11691 0.96261 0.5419 0.0
C690 C 0.08346 0.97295 0.54144 0.0
H691 H 0.05033 0.05103 0.53421 0.0
H692 H 0.0814 0.02836 0.5447 0.0
H693 H 0.06979 0.03802 0.4986 0.0
H694 H 0.08128 0.00367 0.46471 0.0
H695 H 0.14037 0.98548 0.46544 0.0
H696 H 0.18743 0.33565 0.06132 0.0
H697 H 0.19741 0.2962 0.05747 0.0
H698 H 0.25851 0.30656 0.97023 0.0
H699 H 0.24963 0.34566 0.97436 0.0
H700 H 0.18062 0.26695 0.99389 0.0
H701 H 0.32932 0.27251 0.0497 0.0
H702 H 0.29753 0.2941 0.05488 0.0
H703 H 0.3133 0.29047 0.01219 0.0
C704 C 0.20279 0.32948 0.0412 0.0
C705 C 0.21749 0.34383 0.01802 0.0
C706 C 0.20841 0.30699 0.039 0.0
C707 C 0.22915 0.2986 0.01391 0.0
C708 C 0.24283 0.31277 0.99005 0.0
H709 H 0.30455 0.16919 0.96398 0.0
H710 H 0.29368 0.20862 0.96605 0.0
C711 C 0.2372 0.33513 0.99215 0.0
C712 C 0.23714 0.27504 0.01279 0.0
H713 H 0.30721 0.23822 0.0262 0.0
C714 C 0.20822 0.26062 1.00113 0.0
C715 C 0.27328 0.26695 0.02198 0.0
C716 C 0.30518 0.28174 0.03568 0.0
C717 C 0.21456 0.23823 0.99791 0.0
C718 C 0.25068 0.23009 1.00733 0.0
C719 C 0.27961 0.24455 0.01888 0.0
C720 C 0.25863 0.20649 1.00685 0.0
C721 C 0.18262 0.22353 0.98384 0.0
C722 C 0.24331 0.19244 0.02974 0.0
C723 C 0.2493 0.17008 0.02853 0.0
C724 C 0.27121 0.16124 1.00471 0.0
C725 C 0.28745 0.17546 0.98249 0.0
C726 C 0.28134 0.19795 0.9837 0.0
H727 H 0.15921 0.23279 0.96842 0.0
H728 H 0.19065 0.21062 0.96581 0.0
H729 H 0.17315 0.21553 1.00731 0.0
H730 H 0.22622 0.19875 0.04824 0.0
H731 H 0.23565 0.15968 0.0455 0.0
H732 H 0.81802 0.33968 0.53953 0.0
H733 H 0.80815 0.30054 0.54637 0.0
H734 H 0.7247 0.3013 0.45002 0.0
H735 H 0.73389 0.34022 0.44324 0.0
H736 H 0.74093 0.28218 0.55631 0.0
H737 H 0.78614 0.24808 0.43308 0.0
H738 H 0.79877 0.27505 0.45014 0.0
H739 H 0.75416 0.27015 0.42372 0.0
C740 C 0.79796 0.33144 0.51949 0.0
C741 C 0.77696 0.34314 0.49069 0.0
C742 C 0.79238 0.30909 0.52342 0.0
C743 C 0.76593 0.29798 0.4985 0.0
C744 C 0.74581 0.30943 0.46911 0.0
H745 H 0.67633 0.1667 0.48187 0.0
H746 H 0.68606 0.20586 0.4751 0.0
C747 C 0.75129 0.33173 0.46518 0.0
C748 C 0.75721 0.27487 0.50472 0.0
H749 H 0.75262 0.22438 0.46571 0.0
C750 C 0.74374 0.26949 0.53665 0.0
C751 C 0.76053 0.25842 0.47884 0.0
C752 C 0.77599 0.26312 0.44466 0.0
C753 C 0.73298 0.24813 0.54317 0.0
C754 C 0.73634 0.23167 0.51732 0.0
C755 C 0.74981 0.23706 0.48537 0.0
C756 C 0.72759 0.20855 0.52351 0.0
C757 C 0.7174 0.24348 0.5773 0.0
C758 C 0.74733 0.19717 0.5532 0.0
C759 C 0.74187 0.17486 0.55713 0.0
C760 C 0.71665 0.16339 0.53128 0.0
C761 C 0.69602 0.17501 0.50218 0.0
C762 C 0.70154 0.19737 0.49827 0.0
H763 H 0.70694 0.25851 0.58861 0.0
H764 H 0.69481 0.23141 0.57188 0.0
H765 H 0.73926 0.23665 0.59843 0.0
H766 H 0.76816 0.20534 0.57253 0.0
H767 H 0.75898 0.16641 0.57933 0.0
H768 H 0.67353 0.83945 0.9809 0.0
H769 H 0.68358 0.80024 0.97544 0.0
H770 H 0.76099 0.80136 0.07632 0.0
H771 H 0.75121 0.84039 0.08192 0.0
H772 H 0.75083 0.78261 0.96908 0.0
H773 H 0.70122 0.74726 0.08892 0.0
H774 H 0.6891 0.77439 0.07241 0.0
H775 H 0.73296 0.76929 0.10022 0.0
C776 C 0.69206 0.83123 1.00233 0.0
C777 C 0.71143 0.84306 0.03192 0.0
C778 C 0.69782 0.80885 0.99915 0.0
C779 C 0.72288 0.79784 0.02558 0.0
C780 C 0.74096 0.80939 0.05599 0.0
H781 H 0.81586 0.66709 0.04123 0.0
H782 H 0.80534 0.7061 0.04882 0.0
C783 C 0.73518 0.83175 0.05923 0.0
C784 C 0.73272 0.77484 0.01962 0.0
H785 H 0.73685 0.72406 0.05749 0.0
C786 C 0.74753 0.76978 0.98829 0.0
C787 C 0.72877 0.75817 0.04489 0.0
C788 C 0.71184 0.76245 0.07834 0.0
C789 C 0.75884 0.74854 0.98171 0.0
C790 C 0.75479 0.73186 1.00691 0.0
C791 C 0.74015 0.73692 0.03834 0.0
C792 C 0.7639 0.70884 1.00037 0.0
C793 C 0.77557 0.74419 0.94816 0.0
C794 C 0.74447 0.69755 0.97037 0.0
C795 C 0.75029 0.67531 0.96603 0.0
C796 C 0.77564 0.66381 0.9917 0.0
C797 C 0.79603 0.67538 0.02106 0.0
C798 C 0.79008 0.69766 0.02544 0.0
H799 H 0.78586 0.75938 0.93724 0.0
H800 H 0.79852 0.73239 0.95416 0.0
H801 H 0.75446 0.73711 0.92653 0.0
H802 H 0.72362 0.70575 0.95111 0.0
H803 H 0.73337 0.66692 0.94361 0.0
H804 H 0.30229 0.83398 0.46115 0.0
H805 H 0.29159 0.79463 0.4647 0.0
H806 H 0.23359 0.80514 0.55428 0.0
H807 H 0.24298 0.84419 0.55031 0.0
H808 H 0.30948 0.76482 0.52524 0.0
H809 H 0.15953 0.77208 0.47785 0.0
H810 H 0.19112 0.79372 0.47248 0.0
H811 H 0.17741 0.7892 0.51596 0.0
C812 C 0.28741 0.82788 0.48169 0.0
C813 C 0.27364 0.84229 0.50549 0.0
C814 C 0.2814 0.80543 0.48373 0.0
C815 C 0.26125 0.79709 0.50934 0.0
C816 C 0.2487 0.8113 0.53395 0.0
H817 H 0.18903 0.66788 0.56285 0.0
H818 H 0.19959 0.70728 0.55988 0.0
C819 C 0.25465 0.83364 0.53196 0.0
C820 C 0.25272 0.77358 0.51018 0.0
H821 H 0.18167 0.73742 0.49968 0.0
C822 C 0.28159 0.75878 0.51946 0.0
C823 C 0.21624 0.76584 0.50281 0.0
C824 C 0.18426 0.78099 0.4914 0.0
C825 C 0.27491 0.7364 0.52214 0.0
C826 C 0.23843 0.72866 0.5147 0.0
C827 C 0.20955 0.74346 0.50548 0.0
C828 C 0.22995 0.70513 0.51522 0.0
C829 C 0.30689 0.72126 0.53354 0.0
C830 C 0.24254 0.69109 0.4904 0.0
C831 C 0.23667 0.66873 0.49205 0.0
C832 C 0.21771 0.65989 0.51838 0.0
C833 C 0.20388 0.67413 0.5424 0.0
C834 C 0.20982 0.69661 0.54069 0.0
H835 H 0.33156 0.73016 0.54725 0.0
H836 H 0.29998 0.70845 0.55232 0.0
H837 H 0.31386 0.71313 0.50895 0.0
H838 H 0.25764 0.6974 0.47017 0.0
H839 H 0.2484 0.65832 0.47355 0.0
H840 H 0.61354 0.4476 0.3796 0.0
H841 H 0.5643 0.44982 0.32664 0.0
H842 H 0.56085 0.37975 0.31982 0.0
H843 H 0.61073 0.37738 0.37199 0.0
H844 H 0.55991 0.40038 0.25232 0.0
H845 H 0.45596 0.43585 0.32683 0.0
H846 H 0.49845 0.45049 0.3313 0.0
H847 H 0.49779 0.42359 0.3501 0.0
C848 C 0.60259 0.43266 0.36665 0.0
C849 C 0.61603 0.41229 0.38022 0.0
C850 C 0.57412 0.43396 0.33662 0.0
C851 C 0.5585 0.41494 0.31968 0.0
C852 C 0.57232 0.39463 0.33268 0.0
H853 H 0.38652 0.37659 0.14468 0.0
H854 H 0.43752 0.37893 0.19576 0.0
C855 C 0.60069 0.39331 0.36267 0.0
C856 C 0.528 0.41604 0.28813 0.0
H857 H 0.43854 0.43125 0.26306 0.0
C858 C 0.53339 0.40716 0.25465 0.0
C859 C 0.49347 0.42498 0.2912 0.0
C860 C 0.48579 0.43413 0.32682 0.0
C861 C 0.50516 0.40691 0.22417 0.0
C862 C 0.47041 0.41541 0.22744 0.0
C863 C 0.4652 0.42471 0.26068 0.0
C864 C 0.43887 0.41414 0.19697 0.0
C865 C 0.51286 0.39769 0.1886 0.0
C866 C 0.42197 0.43316 0.18138 0.0
C867 C 0.39274 0.43188 0.15208 0.0
C868 C 0.37973 0.41151 0.13797 0.0
C869 C 0.39625 0.39251 0.15434 0.0
C870 C 0.42543 0.39382 0.18356 0.0
H871 H 0.54267 0.39734 0.1878 0.0
H872 H 0.50249 0.38073 0.18547 0.0
H873 H 0.49886 0.40733 0.16499 0.0
H874 H 0.43185 0.449 0.19144 0.0
H875 H 0.38098 0.44684 0.13998 0.0
H876 H 0.38563 0.62617 0.64373 0.0
H877 H 0.43536 0.62388 0.69608 0.0
H878 H 0.42854 0.55381 0.69275 0.0
H879 H 0.37944 0.55593 0.63966 0.0
H880 H 0.43502 0.60448 0.76464 0.0
H881 H 0.53761 0.56565 0.69212 0.0
H882 H 0.49646 0.57832 0.66817 0.0
H883 H 0.4944 0.55183 0.68815 0.0
C884 C 0.3949 0.61026 0.65387 0.0
C885 C 0.37863 0.59124 0.63728 0.0
C886 C 0.42319 0.60898 0.68395 0.0
C887 C 0.436 0.58868 0.69798 0.0
C888 C 0.41948 0.56964 0.68197 0.0
H889 H 0.61273 0.55811 0.87975 0.0
H890 H 0.5618 0.5553 0.82839 0.0
C891 C 0.3911 0.5709 0.65187 0.0
C892 C 0.46638 0.58762 0.72965 0.0
H893 H 0.55524 0.57142 0.75556 0.0
C894 C 0.46128 0.59722 0.76269 0.0
C895 C 0.50054 0.57801 0.72707 0.0
C896 C 0.50787 0.568 0.69194 0.0
C897 C 0.48949 0.59761 0.79317 0.0
C898 C 0.52394 0.5885 0.79034 0.0
C899 C 0.52881 0.57843 0.7576 0.0
C900 C 0.55559 0.59009 0.82065 0.0
C901 C 0.4821 0.60765 0.82826 0.0
C902 C 0.56953 0.61055 0.83271 0.0
C903 C 0.59871 0.61221 0.86186 0.0
C904 C 0.61474 0.59344 0.87949 0.0
C905 C 0.60131 0.5729 0.86667 0.0
C906 C 0.57206 0.57125 0.83744 0.0
H907 H 0.45231 0.60838 0.82908 0.0
H908 H 0.4959 0.59834 0.85236 0.0
H909 H 0.49289 0.62454 0.83047 0.0
H910 H 0.55779 0.62527 0.81957 0.0
H911 H 0.6088 0.62824 0.87048 0.0
H912 H 0.11544 0.94783 0.38059 0.0
H913 H 0.06635 0.95039 0.32753 0.0
H914 H 0.05735 0.88039 0.32428 0.0
H915 H 0.10711 0.87765 0.37645 0.0
H916 H 0.05714 0.89908 0.2559 0.0
H917 H 0.95739 0.94027 0.32914 0.0
H918 H 0.00091 0.9536 0.33199 0.0
H919 H -0.00156 0.92739 0.35286 0.0
C920 C 0.10333 0.93296 0.36837 0.0
C921 C 0.11514 0.91251 0.38298 0.0
C922 C 0.07495 0.93448 0.3383 0.0
C923 C 0.05775 0.91559 0.32238 0.0
C924 C 0.07003 0.89518 0.33635 0.0
H925 H 0.88056 0.87613 0.15499 0.0
H926 H 0.93233 0.87929 0.20508 0.0
C927 C 0.09834 0.89365 0.36634 0.0
C928 C 0.02709 0.91688 0.29099 0.0
H929 H 0.9386 0.934 0.26599 0.0
C930 C 0.03126 0.90677 0.25808 0.0
C931 C 0.9934 0.92702 0.29385 0.0
C932 C 0.98697 0.93755 0.3289 0.0
C933 C 0.00257 0.90633 0.22805 0.0
C934 C 0.96861 0.91596 0.2312 0.0
C935 C 0.96468 0.92659 0.26374 0.0
C936 C 0.93647 0.91432 0.20147 0.0
C937 C 0.00884 0.89558 0.19311 0.0
C938 C 0.92093 0.93305 0.18353 0.0
C939 C 0.89132 0.93129 0.15469 0.0
C940 C 0.87656 0.91076 0.14345 0.0
C941 C 0.89164 0.89213 0.16233 0.0
C942 C 0.92124 0.8939 0.19103 0.0
H943 H 0.03847 0.89411 0.19189 0.0
H944 H 0.99699 0.87895 0.19156 0.0
H945 H 0.99527 0.90486 0.16888 0.0
H946 H 0.93222 0.94897 0.19133 0.0
H947 H 0.8807 0.94597 0.14065 0.0
H948 H 0.11039 0.1243 0.87617 0.0
H949 H 0.06059 0.12135 0.8241 0.0
H950 H 0.06793 0.05133 0.82969 0.0
H951 H 0.11716 0.05413 0.88266 0.0
H952 H 0.05978 0.10161 0.75627 0.0
H953 H 0.95913 0.06282 0.8312 0.0
H954 H 0.0005 0.07562 0.85439 0.0
H955 H 0.00237 0.0491 0.83439 0.0
C956 C 0.10126 0.10825 0.86659 0.0
C957 C 0.11761 0.08946 0.88389 0.0
C958 C 0.07292 0.10659 0.83664 0.0
C959 C 0.06013 0.08613 0.82335 0.0
C960 C 0.07691 0.06729 0.83991 0.0
H961 H 0.88006 0.05678 0.64328 0.0
H962 H 0.93174 0.05322 0.69374 0.0
C963 C 0.10537 0.06894 0.86993 0.0
C964 C 0.02934 0.08476 0.79207 0.0
H965 H 0.94009 0.06882 0.76807 0.0
C966 C 0.03366 0.09435 0.75881 0.0
C967 C 0.99532 0.0752 0.79539 0.0
C968 C 0.98875 0.06523 0.8308 0.0
C969 C 0.0048 0.09489 0.72893 0.0
C970 C 0.9705 0.08591 0.73256 0.0
C971 C 0.96641 0.07574 0.76543 0.0
C972 C 0.93817 0.08788 0.70306 0.0
C973 C 0.01126 0.1051 0.69365 0.0
C974 C 0.92404 0.10849 0.69226 0.0
C975 C 0.89439 0.11058 0.66369 0.0
C976 C 0.8781 0.09209 0.64528 0.0
C977 C 0.89166 0.07137 0.65693 0.0
C978 C 0.92136 0.0693 0.68565 0.0
H979 H 0.04089 0.10587 0.69209 0.0
H980 H 0.99691 0.09587 0.66969 0.0
H981 H 0.00042 0.12198 0.69193 0.0
H982 H 0.93608 0.12302 0.7059 0.0
H983 H 0.88424 0.12674 0.65604 0.0
loop_
_geom_bond_atom_site_label_1
_geom_bond_atom_site_label_2
_geom_bond_distance
_geom_bond_site_symmetry_2
_ccdc_geom_bond_type
C0 C1 1.351 . S
C0 N3 1.368 . S
C0 H5 0.931 . S
C1 C0 1.351 . S
C1 N2 1.373 . S
C1 H29 0.930 . S
N2 C1 1.373 . S
N2 C4 1.340 . S
N3 C0 1.368 . S
N3 C4 1.321 . S
N3 Co6 2.135 . S
C4 N2 1.340 . S
C4 N3 1.321 . S
C4 H28 0.930 . S
H5 C0 0.931 . S
Co6 N3 2.135 . S
Co6 N9 2.121 . S
Co6 O14 2.055 . S
Co6 O17 2.039 . S
Co6 N20 2.140 . S
C7 O8 1.227 . S
C7 O17 1.265 . S
O8 C7 1.227 . S
N9 Co6 2.121 . S
N9 C11 1.375 . S
N9 C12 1.313 1_554 S
C10 C11 1.338 1_556 S
C10 N13 1.377 . S
C10 H30 0.930 . S
C11 N9 1.375 . S
C11 C10 1.338 1_554 S
C11 H15 0.931 . S
C12 N9 1.313 1_556 S
C12 N13 1.344 . S
C12 H16 0.930 . S
N13 C10 1.377 . S
N13 C12 1.344 . S
O14 Co6 2.055 . S
O14 C18 1.253 . S
H15 C11 0.931 . S
H16 C12 0.930 . S
O17 Co6 2.039 . S
O17 C7 1.265 . S
C18 O14 1.253 . S
C18 O19 1.225 1_554 S
O19 C18 1.225 1_556 S
N20 Co6 2.140 . S
N20 C23 1.346 . S
N20 C24 1.345 . S
C21 C22 1.387 . S
C21 C25 1.391 1_554 S
C22 C21 1.387 . S
C22 C23 1.369 . S
C22 H31 0.929 . S
C23 N20 1.346 . S
C23 C22 1.369 . S
C23 H26 0.928 . S
C24 N20 1.345 . S
C24 C25 1.371 1_554 S
C24 H27 0.931 1_554 S
C25 C21 1.391 1_556 S
C25 C24 1.371 1_556 S
C25 H32 0.930 . S
H26 C23 0.928 . S
H27 C24 0.931 1_556 S
H28 C4 0.930 . S
H29 C1 0.930 . S
H30 C10 0.930 . S
H31 C22 0.929 . S
H32 C25 0.930 . S
C33 C34 1.351 . S
C33 N36 1.368 . S
C33 H38 0.931 . S
C34 C33 1.351 . S
C34 N35 1.373 . S
C34 H62 0.930 . S
N35 C34 1.373 . S
N35 C37 1.340 . S
N36 C33 1.368 . S
N36 C37 1.321 . S
N36 Co39 2.135 . S
C37 N35 1.340 . S
C37 N36 1.321 . S
C37 H61 0.930 . S
H38 C33 0.931 . S
Co39 N36 2.135 . S
Co39 N42 2.121 . S
Co39 O47 2.055 . S
Co39 O50 2.039 . S
Co39 N53 2.140 . S
C40 O41 1.227 . S
C40 O50 1.265 . S
O41 C40 1.227 . S
N42 Co39 2.121 . S
N42 C44 1.375 . S
N42 C45 1.313 . S
C43 C44 1.338 . S
C43 N46 1.377 . S
C43 H63 0.930 . S
C44 N42 1.375 . S
C44 C43 1.338 . S
C44 H48 0.931 . S
C45 N42 1.313 . S
C45 N46 1.344 . S
C45 H49 0.930 . S
N46 C43 1.377 . S
N46 C45 1.344 . S
O47 Co39 2.055 . S
O47 C51 1.253 . S
H48 C44 0.931 . S
H49 C45 0.930 . S
O50 Co39 2.039 . S
O50 C40 1.265 . S
C51 O47 1.253 . S
C51 O52 1.227 . S
O52 C51 1.227 . S
N53 Co39 2.140 . S
N53 C56 1.346 . S
N53 C57 1.345 . S
C54 C55 1.387 . S
C54 C58 1.391 . S
C55 C54 1.387 . S
C55 C56 1.369 . S
C55 H64 0.929 . S
C56 N53 1.346 . S
C56 C55 1.369 . S
C56 H59 0.928 . S
C57 N53 1.345 . S
C57 C58 1.371 . S
C57 H60 0.931 . S
C58 C54 1.391 . S
C58 C57 1.371 . S
C58 H65 0.930 . S
H59 C56 0.928 . S
H60 C57 0.931 . S
H61 C37 0.930 . S
H62 C34 0.930 . S
H63 C43 0.930 . S
H64 C55 0.929 . S
H65 C58 0.930 . S
C66 C67 1.351 . S
C66 N69 1.368 . S
C66 H71 0.931 . S
C67 C66 1.351 . S
C67 N68 1.373 . S
C67 H95 0.930 . S
N68 C67 1.373 . S
N68 C70 1.340 . S
N69 C66 1.368 . S
N69 C70 1.321 . S
N69 Co72 2.135 . S
C70 N68 1.340 . S
C70 N69 1.321 . S
C70 H94 0.930 . S
H71 C66 0.931 . S
Co72 N69 2.135 . S
Co72 N75 2.121 . S
Co72 O80 2.055 . S
Co72 O83 2.039 . S
Co72 N86 2.140 . S
C73 O74 1.227 . S
C73 O83 1.265 . S
O74 C73 1.227 . S
N75 Co72 2.121 . S
N75 C77 1.375 . S
N75 C78 1.313 1_556 S
C76 C77 1.338 1_554 S
C76 N79 1.377 . S
C76 H96 0.930 . S
C77 N75 1.375 . S
C77 C76 1.338 1_556 S
C77 H81 0.931 . S
C78 N75 1.313 1_554 S
C78 N79 1.344 . S
C78 H82 0.930 . S
N79 C76 1.377 . S
N79 C78 1.344 . S
O80 Co72 2.055 . S
O80 C84 1.253 . S
H81 C77 0.931 . S
H82 C78 0.930 . S
O83 Co72 2.039 . S
O83 C73 1.265 . S
C84 O80 1.253 . S
C84 O85 1.225 1_556 S
O85 C84 1.225 1_554 S
N86 Co72 2.140 . S
N86 C89 1.346 . S
N86 C90 1.345 . S
C87 C88 1.387 . S
C87 C91 1.391 1_556 S
C88 C87 1.387 . S
C88 C89 1.369 . S
C88 H97 0.929 . S
C89 N86 1.346 . S
C89 C88 1.369 . S
C89 H92 0.928 . S
C90 N86 1.345 . S
C90 C91 1.371 1_556 S
C90 H93 0.931 1_556 S
C91 C87 1.391 1_554 S
C91 C90 1.371 1_554 S
C91 H98 0.930 . S
H92 C89 0.928 . S
H93 C90 0.931 1_554 S
H94 C70 0.930 . S
H95 C67 0.930 . S
H96 C76 0.930 . S
H97 C88 0.929 . S
H98 C91 0.930 . S
C99 C100 1.351 . S
C99 N102 1.368 . S
C99 H104 0.931 . S
C100 C99 1.351 . S
C100 N101 1.373 . S
C100 H128 0.930 . S
N101 C100 1.373 . S
N101 C103 1.340 . S
N102 C99 1.368 . S
N102 C103 1.321 . S
N102 Co105 2.135 . S
C103 N101 1.340 . S
C103 N102 1.321 . S
C103 H127 0.930 . S
H104 C99 0.931 . S
Co105 N102 2.135 . S
Co105 N108 2.121 . S
Co105 O113 2.055 . S
Co105 O116 2.039 . S
Co105 N119 2.140 . S
C106 O107 1.227 . S
C106 O116 1.265 . S
O107 C106 1.227 . S
N108 Co105 2.121 . S
N108 C110 1.375 . S
N108 C111 1.313 . S
C109 C110 1.338 . S
C109 N112 1.377 . S
C109 H129 0.930 . S
C110 N108 1.375 . S
C110 C109 1.338 . S
C110 H114 0.931 . S
C111 N108 1.313 . S
C111 N112 1.344 . S
C111 H115 0.930 . S
N112 C109 1.377 . S
N112 C111 1.344 . S
O113 Co105 2.055 . S
O113 C117 1.253 . S
H114 C110 0.931 . S
H115 C111 0.930 . S
O116 Co105 2.039 . S
O116 C106 1.265 . S
C117 O113 1.253 . S
C117 O118 1.227 . S
O118 C117 1.227 . S
N119 Co105 2.140 . S
N119 C122 1.346 . S
N119 C123 1.345 . S
C120 C121 1.387 . S
C120 C124 1.391 . S
C121 C120 1.387 . S
C121 C122 1.369 . S
C121 H130 0.929 . S
C122 N119 1.346 . S
C122 C121 1.369 . S
C122 H125 0.928 . S
C123 N119 1.345 . S
C123 C124 1.371 . S
C123 H126 0.931 . S
C124 C120 1.391 . S
C124 C123 1.371 . S
C124 H131 0.930 . S
H125 C122 0.928 . S
H126 C123 0.931 . S
H127 C103 0.930 . S
H128 C100 0.930 . S
H129 C109 0.930 . S
H130 C121 0.929 . S
H131 C124 0.930 . S
C132 C133 1.351 . S
C132 N135 1.368 . S
C132 H137 0.931 . S
C133 C132 1.351 . S
C133 N134 1.373 . S
C133 H161 0.930 . S
N134 C133 1.373 . S
N134 C136 1.340 . S
N135 C132 1.368 . S
N135 C136 1.321 . S
N135 Co138 2.135 . S
C136 N134 1.340 . S
C136 N135 1.321 . S
C136 H160 0.930 . S
H137 C132 0.931 . S
Co138 N135 2.135 . S
Co138 N141 2.121 . S
Co138 O146 2.055 . S
Co138 O149 2.039 . S
Co138 N152 2.140 . S
C139 O140 1.227 . S
C139 O149 1.265 . S
O140 C139 1.227 . S
N141 Co138 2.121 . S
N141 C143 1.375 . S
N141 C144 1.313 1_554 S
C142 C143 1.338 1_556 S
C142 N145 1.377 . S
C142 H162 0.930 . S
C143 N141 1.375 . S
C143 C142 1.338 1_554 S
C143 H147 0.931 . S
C144 N141 1.313 1_556 S
C144 N145 1.344 . S
C144 H148 0.930 . S
N145 C142 1.377 . S
N145 C144 1.344 . S
O146 Co138 2.055 . S
O146 C150 1.253 . S
H147 C143 0.931 . S
H148 C144 0.930 . S
O149 Co138 2.039 . S
O149 C139 1.265 . S
C150 O146 1.253 . S
C150 O151 1.225 1_554 S
O151 C150 1.225 1_556 S
N152 Co138 2.140 . S
N152 C155 1.346 . S
N152 C156 1.345 . S
C153 C154 1.387 . S
C153 C157 1.391 1_554 S
C154 C153 1.387 . S
C154 C155 1.369 . S
C154 H163 0.929 . S
C155 N152 1.346 . S
C155 C154 1.369 . S
C155 H158 0.928 . S
C156 N152 1.345 . S
C156 C157 1.371 1_554 S
C156 H159 0.931 1_554 S
C157 C153 1.391 1_556 S
C157 C156 1.371 1_556 S
C157 H164 0.930 . S
H158 C155 0.928 . S
H159 C156 0.931 1_556 S
H160 C136 0.930 . S
H161 C133 0.930 . S
H162 C142 0.930 . S
H163 C154 0.929 . S
H164 C157 0.930 . S
C165 C166 1.351 . S
C165 N168 1.368 . S
C165 H170 0.931 . S
C166 C165 1.351 . S
C166 N167 1.373 . S
C166 H194 0.930 . S
N167 C166 1.373 . S
N167 C169 1.340 . S
N168 C165 1.368 . S
N168 C169 1.321 . S
N168 Co171 2.135 . S
C169 N167 1.340 . S
C169 N168 1.321 . S
C169 H193 0.930 . S
H170 C165 0.931 . S
Co171 N168 2.135 . S
Co171 N174 2.121 . S
Co171 O179 2.055 . S
Co171 O182 2.039 . S
Co171 N185 2.140 . S
C172 O173 1.227 . S
C172 O182 1.265 . S
O173 C172 1.227 . S
N174 Co171 2.121 . S
N174 C176 1.375 . S
N174 C177 1.313 . S
C175 C176 1.338 . S
C175 N178 1.377 . S
C175 H195 0.930 . S
C176 N174 1.375 . S
C176 C175 1.338 . S
C176 H180 0.931 . S
C177 N174 1.313 . S
C177 N178 1.344 . S
C177 H181 0.930 . S
N178 C175 1.377 . S
N178 C177 1.344 . S
O179 Co171 2.055 . S
O179 C183 1.253 . S
H180 C176 0.931 . S
H181 C177 0.930 . S
O182 Co171 2.039 . S
O182 C172 1.265 . S
C183 O179 1.253 . S
C183 O184 1.227 . S
O184 C183 1.227 . S
N185 Co171 2.140 . S
N185 C188 1.346 . S
N185 C189 1.345 . S
C186 C187 1.387 . S
C186 C190 1.391 . S
C187 C186 1.387 . S
C187 C188 1.369 . S
C187 H196 0.929 . S
C188 N185 1.346 . S
C188 C187 1.369 . S
C188 H191 0.928 . S
C189 N185 1.345 . S
C189 C190 1.371 . S
C189 H192 0.931 . S
C190 C186 1.391 . S
C190 C189 1.371 . S
C190 H197 0.930 . S
H191 C188 0.928 . S
H192 C189 0.931 . S
H193 C169 0.930 . S
H194 C166 0.930 . S
H195 C175 0.930 . S
H196 C187 0.929 . S
H197 C190 0.930 . S
C198 C199 1.351 . S
C198 N201 1.368 . S
C198 H203 0.931 . S
C199 C198 1.351 . S
C199 N200 1.373 . S
C199 H227 0.930 . S
N200 C199 1.373 . S
N200 C202 1.340 . S
N201 C198 1.368 . S
N201 C202 1.321 . S
N201 Co204 2.135 . S
C202 N200 1.340 . S
C202 N201 1.321 . S
C202 H226 0.930 . S
H203 C198 0.931 . S
Co204 N201 2.135 . S
Co204 N207 2.121 . S
Co204 O212 2.055 . S
Co204 O215 2.039 . S
Co204 N218 2.140 . S
C205 O206 1.227 . S
C205 O215 1.265 . S
O206 C205 1.227 . S
N207 Co204 2.121 . S
N207 C209 1.375 . S
N207 C210 1.313 1_556 S
C208 C209 1.338 1_554 S
C208 N211 1.377 . S
C208 H228 0.930 . S
C209 N207 1.375 . S
C209 C208 1.338 1_556 S
C209 H213 0.931 . S
C210 N207 1.313 1_554 S
C210 N211 1.344 . S
C210 H214 0.930 . S
N211 C208 1.377 . S
N211 C210 1.344 . S
O212 Co204 2.055 . S
O212 C216 1.253 . S
H213 C209 0.931 . S
H214 C210 0.930 . S
O215 Co204 2.039 . S
O215 C205 1.265 . S
C216 O212 1.253 . S
C216 O217 1.225 1_556 S
O217 C216 1.225 1_554 S
N218 Co204 2.140 . S
N218 C221 1.346 . S
N218 C222 1.345 . S
C219 C220 1.387 . S
C219 C223 1.391 1_556 S
C220 C219 1.387 . S
C220 C221 1.369 . S
C220 H229 0.929 . S
C221 N218 1.346 . S
C221 C220 1.369 . S
C221 H224 0.928 . S
C222 N218 1.345 . S
C222 C223 1.371 1_556 S
C222 H225 0.931 1_556 S
C223 C219 1.391 1_554 S
C223 C222 1.371 1_554 S
C223 H230 0.930 . S
H224 C221 0.928 . S
H225 C222 0.931 1_554 S
H226 C202 0.930 . S
H227 C199 0.930 . S
H228 C208 0.930 . S
H229 C220 0.929 . S
H230 C223 0.930 . S
C231 C232 1.351 . S
C231 N234 1.368 . S
C231 H236 0.931 . S
C232 C231 1.351 . S
C232 N233 1.373 . S
C232 H260 0.930 . S
N233 C232 1.373 . S
N233 C235 1.340 . S
N234 C231 1.368 . S
N234 C235 1.321 . S
N234 Co237 2.135 . S
C235 N233 1.340 . S
C235 N234 1.321 . S
C235 H259 0.930 . S
H236 C231 0.931 . S
Co237 N234 2.135 . S
Co237 N240 2.121 . S
Co237 O245 2.055 . S
Co237 O248 2.039 . S
Co237 N251 2.140 . S
C238 O239 1.227 . S
C238 O248 1.265 . S
O239 C238 1.227 . S
N240 Co237 2.121 . S
N240 C242 1.375 . S
N240 C243 1.313 . S
C241 C242 1.338 . S
C241 N244 1.377 . S
C241 H261 0.930 . S
C242 N240 1.375 . S
C242 C241 1.338 . S
C242 H246 0.931 . S
C243 N240 1.313 . S
C243 N244 1.344 . S
C243 H247 0.930 . S
N244 C241 1.377 . S
N244 C243 1.344 . S
O245 Co237 2.055 . S
O245 C249 1.253 . S
H246 C242 0.931 . S
H247 C243 0.930 . S
O248 Co237 2.039 . S
O248 C238 1.265 . S
C249 O245 1.253 . S
C249 O250 1.227 . S
O250 C249 1.227 . S
N251 Co237 2.140 . S
N251 C254 1.346 . S
N251 C255 1.345 . S
C252 C253 1.387 . S
C252 C256 1.391 . S
C253 C252 1.387 . S
C253 C254 1.369 . S
C253 H262 0.929 . S
C254 N251 1.346 . S
C254 C253 1.369 . S
C254 H257 0.928 . S
C255 N251 1.345 . S
C255 C256 1.371 . S
C255 H258 0.931 . S
C256 C252 1.391 . S
C256 C255 1.371 . S
C256 H263 0.930 . S
H257 C254 0.928 . S
H258 C255 0.931 . S
H259 C235 0.930 . S
H260 C232 0.930 . S
H261 C241 0.930 . S
H262 C253 0.929 . S
H263 C256 0.930 . S
H264 C272 0.929 . S
H265 C274 0.930 . S
H266 C276 0.930 . S
H267 C279 0.929 . S
H268 C282 0.930 . S
H269 C284 0.960 . S
H270 C284 0.960 . S
H271 C284 0.960 . S
C272 H264 0.929 . S
C272 C273 1.377 . S
C272 C274 1.384 . S
C273 C272 1.377 . S
C273 C279 1.390 . S
C274 H265 0.930 . S
C274 C272 1.384 . S
C274 C275 1.372 . S
C275 C274 1.372 . S
C275 C276 1.400 . S
C275 C280 1.490 . S
C276 H266 0.930 . S
C276 C275 1.400 . S
C276 C279 1.386 . S
H277 C293 0.930 . S
H278 C294 0.931 . S
C279 H267 0.929 . S
C279 C273 1.390 . S
C279 C276 1.386 . S
C280 C275 1.490 . S
C280 C282 1.395 . S
C280 C283 1.403 . S
H281 C287 0.930 . S
C282 H268 0.930 . S
C282 C280 1.395 . S
C282 C285 1.403 . S
C283 C280 1.403 . S
C283 C284 1.524 . S
C283 C287 1.400 . S
C284 H269 0.960 . S
C284 H270 0.960 . S
C284 H271 0.960 . S
C284 C283 1.524 . S
C285 C282 1.403 . S
C285 C286 1.392 . S
C285 C289 1.495 . S
C286 C285 1.392 . S
C286 C287 1.385 . S
C286 C288 1.478 . S
C287 H281 0.930 . S
C287 C283 1.400 . S
C287 C286 1.385 . S
C288 C286 1.478 . S
C288 C290 1.381 . S
C288 C294 1.383 . S
C289 C285 1.495 . S
C289 H295 0.959 . S
C289 H296 0.961 . S
C289 H297 0.960 . S
C290 C288 1.381 . S
C290 C291 1.394 . S
C290 H298 0.930 . S
C291 C290 1.394 . S
C291 C292 1.383 . S
C291 H299 0.929 . S
C292 C291 1.383 . S
C292 C293 1.377 . S
C293 H277 0.930 . S
C293 C292 1.377 . S
C293 C294 1.379 . S
C294 H278 0.931 . S
C294 C288 1.383 . S
C294 C293 1.379 . S
H295 C289 0.959 . S
H296 C289 0.961 . S
H297 C289 0.960 . S
H298 C290 0.930 . S
H299 C291 0.929 . S
H300 C308 0.929 . S
H301 C310 0.930 . S
H302 C312 0.930 . S
H303 C315 0.929 . S
H304 C318 0.930 . S
H305 C320 0.960 . S
H306 C320 0.960 . S
H307 C320 0.960 . S
C308 H300 0.929 . S
C308 C309 1.377 . S
C308 C310 1.384 . S
C309 C308 1.377 . S
C309 C315 1.390 . S
C310 H301 0.930 . S
C310 C308 1.384 . S
C310 C311 1.372 . S
C311 C310 1.372 . S
C311 C312 1.400 . S
C311 C316 1.490 . S
C312 H302 0.930 . S
C312 C311 1.400 . S
C312 C315 1.386 . S
H313 C329 0.930 . S
H314 C330 0.931 . S
C315 H303 0.929 . S
C315 C309 1.390 . S
C315 C312 1.386 . S
C316 C311 1.490 . S
C316 C318 1.395 . S
C316 C319 1.403 . S
H317 C323 0.930 . S
C318 H304 0.930 . S
C318 C316 1.395 . S
C318 C321 1.403 . S
C319 C316 1.403 . S
C319 C320 1.524 . S
C319 C323 1.400 . S
C320 H305 0.960 . S
C320 H306 0.960 . S
C320 H307 0.960 . S
C320 C319 1.524 . S
C321 C318 1.403 . S
C321 C322 1.392 . S
C321 C325 1.495 . S
C322 C321 1.392 . S
C322 C323 1.385 . S
C322 C324 1.478 . S
C323 H317 0.930 . S
C323 C319 1.400 . S
C323 C322 1.385 . S
C324 C322 1.478 . S
C324 C326 1.381 . S
C324 C330 1.383 . S
C325 C321 1.495 . S
C325 H331 0.959 . S
C325 H332 0.961 . S
C325 H333 0.960 . S
C326 C324 1.381 . S
C326 C327 1.394 . S
C326 H334 0.930 . S
C327 C326 1.394 . S
C327 C328 1.383 . S
C327 H335 0.929 . S
C328 C327 1.383 . S
C328 C329 1.377 . S
C329 H313 0.930 . S
C329 C328 1.377 . S
C329 C330 1.379 . S
C330 H314 0.931 . S
C330 C324 1.383 . S
C330 C329 1.379 . S
H331 C325 0.959 . S
H332 C325 0.961 . S
H333 C325 0.960 . S
H334 C326 0.930 . S
H335 C327 0.929 . S
H336 C344 0.929 . S
H337 C346 0.930 . S
H338 C348 0.930 . S
H339 C351 0.929 . S
H340 C354 0.930 . S
H341 C356 0.960 . S
H342 C356 0.960 . S
H343 C356 0.960 . S
C344 H336 0.929 . S
C344 C345 1.377 . S
C344 C346 1.384 . S
C345 C344 1.377 . S
C345 C351 1.390 . S
C346 H337 0.930 . S
C346 C344 1.384 . S
C346 C347 1.372 . S
C347 C346 1.372 . S
C347 C348 1.400 . S
C347 C352 1.490 . S
C348 H338 0.930 . S
C348 C347 1.400 . S
C348 C351 1.386 . S
H349 C365 0.930 . S
H350 C366 0.931 . S
C351 H339 0.929 . S
C351 C345 1.390 . S
C351 C348 1.386 . S
C352 C347 1.490 . S
C352 C354 1.395 . S
C352 C355 1.403 . S
H353 C359 0.930 . S
C354 H340 0.930 . S
C354 C352 1.395 . S
C354 C357 1.403 . S
C355 C352 1.403 . S
C355 C356 1.524 . S
C355 C359 1.400 . S
C356 H341 0.960 . S
C356 H342 0.960 . S
C356 H343 0.960 . S
C356 C355 1.524 . S
C357 C354 1.403 . S
C357 C358 1.392 . S
C357 C361 1.495 . S
C358 C357 1.392 . S
C358 C359 1.385 . S
C358 C360 1.478 . S
C359 H353 0.930 . S
C359 C355 1.400 . S
C359 C358 1.385 . S
C360 C358 1.478 . S
C360 C362 1.381 . S
C360 C366 1.383 . S
C361 C357 1.495 . S
C361 H367 0.959 . S
C361 H368 0.961 . S
C361 H369 0.960 . S
C362 C360 1.381 . S
C362 C363 1.394 . S
C362 H370 0.930 . S
C363 C362 1.394 . S
C363 C364 1.383 . S
C363 H371 0.929 . S
C364 C363 1.383 . S
C364 C365 1.377 . S
C365 H349 0.930 . S
C365 C364 1.377 . S
C365 C366 1.379 . S
C366 H350 0.931 . S
C366 C360 1.383 . S
C366 C365 1.379 . S
H367 C361 0.959 . S
H368 C361 0.961 . S
H369 C361 0.960 . S
H370 C362 0.930 . S
H371 C363 0.929 . S
H372 C380 0.929 . S
H373 C382 0.930 . S
H374 C384 0.930 . S
H375 C387 0.929 . S
H376 C390 0.930 . S
H377 C392 0.960 . S
H378 C392 0.960 . S
H379 C392 0.960 . S
C380 H372 0.929 . S
C380 C381 1.377 . S
C380 C382 1.384 . S
C381 C380 1.377 . S
C381 C387 1.390 . S
C382 H373 0.930 . S
C382 C380 1.384 . S
C382 C383 1.372 . S
C383 C382 1.372 . S
C383 C384 1.400 . S
C383 C388 1.490 . S
C384 H374 0.930 . S
C384 C383 1.400 . S
C384 C387 1.386 . S
H385 C401 0.930 . S
H386 C402 0.931 . S
C387 H375 0.929 . S
C387 C381 1.390 . S
C387 C384 1.386 . S
C388 C383 1.490 . S
C388 C390 1.395 . S
C388 C391 1.403 . S
H389 C395 0.930 . S
C390 H376 0.930 . S
C390 C388 1.395 . S
C390 C393 1.403 . S
C391 C388 1.403 . S
C391 C392 1.524 . S
C391 C395 1.400 . S
C392 H377 0.960 . S
C392 H378 0.960 . S
C392 H379 0.960 . S
C392 C391 1.524 . S
C393 C390 1.403 . S
C393 C394 1.392 . S
C393 C397 1.495 . S
C394 C393 1.392 . S
C394 C395 1.385 . S
C394 C396 1.478 . S
C395 H389 0.930 . S
C395 C391 1.400 . S
C395 C394 1.385 . S
C396 C394 1.478 . S
C396 C398 1.381 . S
C396 C402 1.383 . S
C397 C393 1.495 . S
C397 H403 0.959 . S
C397 H404 0.961 . S
C397 H405 0.960 . S
C398 C396 1.381 . S
C398 C399 1.394 . S
C398 H406 0.930 . S
C399 C398 1.394 . S
C399 C400 1.383 . S
C399 H407 0.929 . S
C400 C399 1.383 . S
C400 C401 1.377 . S
C401 H385 0.930 . S
C401 C400 1.377 . S
C401 C402 1.379 . S
C402 H386 0.931 . S
C402 C396 1.383 . S
C402 C401 1.379 . S
H403 C397 0.959 . S
H404 C397 0.961 . S
H405 C397 0.960 . S
H406 C398 0.930 . S
H407 C399 0.929 . S
H408 C416 0.929 . S
H409 C418 0.930 . S
H410 C420 0.930 . S
H411 C423 0.929 . S
H412 C426 0.930 . S
H413 C428 0.960 . S
H414 C428 0.960 . S
H415 C428 0.960 . S
C416 H408 0.929 . S
C416 C417 1.377 . S
C416 C418 1.384 . S
C417 C416 1.377 . S
C417 C423 1.390 . S
C418 H409 0.930 . S
C418 C416 1.384 . S
C418 C419 1.372 . S
C419 C418 1.372 . S
C419 C420 1.400 . S
C419 C424 1.490 . S
C420 H410 0.930 . S
C420 C419 1.400 . S
C420 C423 1.386 . S
H421 C437 0.930 . S
H422 C438 0.931 . S
C423 H411 0.929 . S
C423 C417 1.390 . S
C423 C420 1.386 . S
C424 C419 1.490 . S
C424 C426 1.395 1_565 S
C424 C427 1.403 . S
H425 C431 0.930 . S
C426 H412 0.930 . S
C426 C424 1.395 1_545 S
C426 C429 1.403 . S
C427 C424 1.403 . S
C427 C428 1.524 . S
C427 C431 1.400 . S
C428 H413 0.960 . S
C428 H414 0.960 . S
C428 H415 0.960 . S
C428 C427 1.524 . S
C429 C426 1.403 . S
C429 C430 1.392 . S
C429 C433 1.495 . S
C430 C429 1.392 . S
C430 C431 1.385 1_545 S
C430 C432 1.478 . S
C431 H425 0.930 . S
C431 C427 1.400 . S
C431 C430 1.385 1_565 S
C432 C430 1.478 . S
C432 C434 1.381 . S
C432 C438 1.383 . S
C433 C429 1.495 . S
C433 H439 0.959 . S
C433 H440 0.961 . S
C433 H441 0.960 . S
C434 C432 1.381 . S
C434 C435 1.394 . S
C434 H442 0.930 . S
C435 C434 1.394 . S
C435 C436 1.383 . S
C435 H443 0.929 . S
C436 C435 1.383 . S
C436 C437 1.377 . S
C437 H421 0.930 . S
C437 C436 1.377 . S
C437 C438 1.379 . S
C438 H422 0.931 . S
C438 C432 1.383 . S
C438 C437 1.379 . S
H439 C433 0.959 . S
H440 C433 0.961 . S
H441 C433 0.960 . S
H442 C434 0.930 . S
H443 C435 0.929 . S
H444 C452 0.929 . S
H445 C454 0.930 . S
H446 C456 0.930 . S
H447 C459 0.929 . S
H448 C462 0.930 . S
H449 C464 0.960 . S
H450 C464 0.960 . S
H451 C464 0.960 . S
C452 H444 0.929 . S
C452 C453 1.377 . S
C452 C454 1.384 . S
C453 C452 1.377 . S
C453 C459 1.390 . S
C454 H445 0.930 . S
C454 C452 1.384 . S
C454 C455 1.372 . S
C455 C454 1.372 . S
C455 C456 1.400 . S
C455 C460 1.490 . S
C456 H446 0.930 . S
C456 C455 1.400 . S
C456 C459 1.386 . S
H457 C473 0.930 . S
H458 C474 0.931 . S
C459 H447 0.929 . S
C459 C453 1.390 . S
C459 C456 1.386 . S
C460 C455 1.490 . S
C460 C462 1.395 1_545 S
C460 C463 1.403 . S
H461 C467 0.930 . S
C462 H448 0.930 . S
C462 C460 1.395 1_565 S
C462 C465 1.403 . S
C463 C460 1.403 . S
C463 C464 1.524 . S
C463 C467 1.400 . S
C464 H449 0.960 . S
C464 H450 0.960 . S
C464 H451 0.960 . S
C464 C463 1.524 . S
C465 C462 1.403 . S
C465 C466 1.392 . S
C465 C469 1.495 . S
C466 C465 1.392 . S
C466 C467 1.385 1_565 S
C466 C468 1.478 . S
C467 H461 0.930 . S
C467 C463 1.400 . S
C467 C466 1.385 1_545 S
C468 C466 1.478 . S
C468 C470 1.381 . S
C468 C474 1.383 . S
C469 C465 1.495 . S
C469 H475 0.959 . S
C469 H476 0.961 . S
C469 H477 0.960 . S
C470 C468 1.381 . S
C470 C471 1.394 . S
C470 H478 0.930 . S
C471 C470 1.394 . S
C471 C472 1.383 . S
C471 H479 0.929 . S
C472 C471 1.383 . S
C472 C473 1.377 . S
C473 H457 0.930 . S
C473 C472 1.377 . S
C473 C474 1.379 . S
C474 H458 0.931 . S
C474 C468 1.383 . S
C474 C473 1.379 . S
H475 C469 0.959 . S
H476 C469 0.961 . S
H477 C469 0.960 . S
H478 C470 0.930 . S
H479 C471 0.929 . S
H480 C488 0.929 1_565 S
H481 C490 0.930 . S
H482 C492 0.930 . S
H483 C495 0.929 . S
H484 C498 0.930 . S
H485 C500 0.960 . S
H486 C500 0.960 . S
H487 C500 0.960 . S
C488 H480 0.929 1_545 S
C488 C489 1.377 . S
C488 C490 1.384 1_545 S
C489 C488 1.377 . S
C489 C495 1.390 . S
C490 H481 0.930 . S
C490 C488 1.384 1_565 S
C490 C491 1.372 1_565 S
C491 C490 1.372 1_545 S
C491 C492 1.400 . S
C491 C496 1.490 . S
C492 H482 0.930 . S
C492 C491 1.400 . S
C492 C495 1.386 . S
H493 C509 0.930 . S
H494 C510 0.931 1_545 S
C495 H483 0.929 . S
C495 C489 1.390 . S
C495 C492 1.386 . S
C496 C491 1.490 . S
C496 C498 1.395 1_545 S
C496 C499 1.403 . S
H497 C503 0.944 . S
C498 H484 0.930 . S
C498 C496 1.395 1_565 S
C498 C501 1.403 . S
C499 C496 1.403 . S
C499 C500 1.524 . S
C499 C503 1.417 . S
C500 H485 0.960 . S
C500 H486 0.960 . S
C500 H487 0.960 . S
C500 C499 1.524 . S
C501 C498 1.403 . S
C501 C502 1.392 . S
C501 C505 1.495 . S
C502 C501 1.392 . S
C502 C503 1.356 1_565 S
C502 C504 1.478 . S
C503 H497 0.944 . S
C503 C499 1.417 . S
C503 C502 1.356 1_545 S
C504 C502 1.478 . S
C504 C506 1.381 . S
C504 C510 1.383 . S
C505 C501 1.495 . S
C505 H511 0.959 . S
C505 H512 0.961 . S
C505 H513 0.960 . S
C506 C504 1.381 . S
C506 C507 1.394 . S
C506 H514 0.930 . S
C507 C506 1.394 . S
C507 C508 1.383 . S
C507 H515 0.929 . S
C508 C507 1.383 . S
C508 C509 1.377 . S
C509 H493 0.930 . S
C509 C508 1.377 . S
C509 C510 1.379 . S
C510 H494 0.931 1_565 S
C510 C504 1.383 . S
C510 C509 1.379 . S
H511 C505 0.959 . S
H512 C505 0.961 . S
H513 C505 0.960 . S
H514 C506 0.930 . S
H515 C507 0.929 . S
H516 C524 0.929 . S
H517 C526 0.930 . S
H518 C528 0.930 1_565 S
H519 C531 0.929 . S
H520 C534 0.930 . S
H521 C536 0.960 . S
H522 C536 0.960 . S
H523 C536 0.960 . S
C524 H516 0.929 . S
C524 C525 1.377 . S
C524 C526 1.384 . S
C525 C524 1.377 . S
C525 C531 1.390 . S
C526 H517 0.930 . S
C526 C524 1.384 . S
C526 C527 1.372 . S
C527 C526 1.372 . S
C527 C528 1.400 . S
C527 C532 1.490 . S
C528 H518 0.930 1_545 S
C528 C527 1.400 . S
C528 C531 1.386 . S
H529 C545 0.930 . S
H530 C546 0.931 . S
C531 H519 0.929 . S
C531 C525 1.390 . S
C531 C528 1.386 . S
C532 C527 1.490 . S
C532 C534 1.395 . S
C532 C535 1.403 1_545 S
H533 C539 0.930 . S
C534 H520 0.930 . S
C534 C532 1.395 . S
C534 C537 1.403 . S
C535 C532 1.403 1_565 S
C535 C536 1.524 . S
C535 C539 1.400 . S
C536 H521 0.960 . S
C536 H522 0.960 . S
C536 H523 0.960 . S
C536 C535 1.524 . S
C537 C534 1.403 . S
C537 C538 1.392 1_545 S
C537 C541 1.495 . S
C538 C537 1.392 1_565 S
C538 C539 1.385 . S
C538 C540 1.478 . S
C539 H533 0.930 . S
C539 C535 1.400 . S
C539 C538 1.385 . S
C540 C538 1.478 . S
C540 C542 1.381 . S
C540 C546 1.383 . S
C541 C537 1.495 . S
C541 H547 0.959 . S
C541 H548 0.961 . S
C541 H549 0.960 . S
C542 C540 1.381 . S
C542 C543 1.394 . S
C542 H550 0.930 1_565 S
C543 C542 1.394 . S
C543 C544 1.383 . S
C543 H551 0.929 . S
C544 C543 1.383 . S
C544 C545 1.377 . S
C545 H529 0.930 . S
C545 C544 1.377 . S
C545 C546 1.379 . S
C546 H530 0.931 . S
C546 C540 1.383 . S
C546 C545 1.379 . S
H547 C541 0.959 . S
H548 C541 0.961 . S
H549 C541 0.960 . S
H550 C542 0.930 1_545 S
H551 C543 0.929 . S
H552 C560 0.929 . S
H553 C562 0.930 . S
H554 C564 0.930 . S
H555 C567 0.929 . S
H556 C570 0.930 . S
H557 C572 0.960 . S
H558 C572 0.960 . S
H559 C572 0.960 . S
C560 H552 0.929 . S
C560 C561 1.377 1_556 S
C560 C562 1.384 . S
C561 C560 1.377 1_554 S
C561 C567 1.390 . S
C562 H553 0.930 . S
C562 C560 1.384 . S
C562 C563 1.381 . S
C563 C562 1.381 . S
C563 C564 1.388 1_556 S
C563 C568 1.493 . S
C564 H554 0.930 . S
C564 C563 1.388 1_554 S
C564 C567 1.386 . S
H565 C581 0.930 . S
H566 C582 0.931 . S
C567 H555 0.929 . S
C567 C561 1.390 . S
C567 C564 1.386 . S
C568 C563 1.493 . S
C568 C570 1.395 . S
C568 C571 1.403 1_556 S
H569 C575 0.930 . S
C570 H556 0.930 . S
C570 C568 1.395 . S
C570 C573 1.403 . S
C571 C568 1.403 1_554 S
C571 C572 1.524 . S
C571 C575 1.400 . S
C572 H557 0.960 . S
C572 H558 0.960 . S
C572 H559 0.960 . S
C572 C571 1.524 . S
C573 C570 1.403 . S
C573 C574 1.392 . S
C573 C577 1.495 . S
C574 C573 1.392 . S
C574 C575 1.385 1_556 S
C574 C576 1.478 . S
C575 H569 0.930 . S
C575 C571 1.400 . S
C575 C574 1.385 1_554 S
C576 C574 1.478 . S
C576 C578 1.381 . S
C576 C582 1.383 1_556 S
C577 C573 1.495 . S
C577 H583 0.959 . S
C577 H584 0.961 . S
C577 H585 0.960 . S
C578 C576 1.381 . S
C578 C579 1.394 . S
C578 H586 0.930 . S
C579 C578 1.394 . S
C579 C580 1.383 . S
C579 H587 0.929 . S
C580 C579 1.383 . S
C580 C581 1.377 1_556 S
C581 H565 0.930 . S
C581 C580 1.377 1_554 S
C581 C582 1.379 . S
C582 H566 0.931 . S
C582 C576 1.383 1_554 S
C582 C581 1.379 . S
H583 C577 0.959 . S
H584 C577 0.961 . S
H585 C577 0.960 . S
H586 C578 0.930 . S
H587 C579 0.929 . S
H588 C596 0.929 . S
H589 C598 0.930 . S
H590 C600 0.930 . S
H591 C603 0.929 . S
H592 C606 0.930 . S
H593 C608 0.960 . S
H594 C608 0.960 . S
H595 C608 0.960 . S
C596 H588 0.929 . S
C596 C597 1.377 . S
C596 C598 1.384 . S
C597 C596 1.377 . S
C597 C603 1.390 . S
C598 H589 0.930 . S
C598 C596 1.384 . S
C598 C599 1.372 . S
C599 C598 1.372 . S
C599 C600 1.400 . S
C599 C604 1.490 . S
C600 H590 0.930 . S
C600 C599 1.400 . S
C600 C603 1.386 . S
H601 C617 0.930 . S
H602 C618 0.931 . S
C603 H591 0.929 . S
C603 C597 1.390 . S
C603 C600 1.386 . S
C604 C599 1.490 . S
C604 C606 1.395 . S
C604 C607 1.403 . S
H605 C611 0.930 . S
C606 H592 0.930 . S
C606 C604 1.395 . S
C606 C609 1.403 . S
C607 C604 1.403 . S
C607 C608 1.524 . S
C607 C611 1.400 . S
C608 H593 0.960 . S
C608 H594 0.960 . S
C608 H595 0.960 . S
C608 C607 1.524 . S
C609 C606 1.403 . S
C609 C610 1.392 . S
C609 C613 1.495 . S
C610 C609 1.392 . S
C610 C611 1.385 . S
C610 C612 1.478 . S
C611 H605 0.930 . S
C611 C607 1.400 . S
C611 C610 1.385 . S
C612 C610 1.478 . S
C612 C614 1.381 . S
C612 C618 1.383 . S
C613 C609 1.495 . S
C613 H619 0.959 . S
C613 H620 0.961 . S
C613 H621 0.960 . S
C614 C612 1.381 . S
C614 C615 1.394 . S
C614 H622 0.930 . S
C615 C614 1.394 . S
C615 C616 1.383 . S
C615 H623 0.929 . S
C616 C615 1.383 . S
C616 C617 1.377 . S
C617 H601 0.930 . S
C617 C616 1.377 . S
C617 C618 1.379 . S
C618 H602 0.931 . S
C618 C612 1.383 . S
C618 C617 1.379 . S
H619 C613 0.959 . S
H620 C613 0.961 . S
H621 C613 0.960 . S
H622 C614 0.930 . S
H623 C615 0.929 . S
H624 C632 0.929 . S
H625 C634 0.930 . S
H626 C636 0.930 . S
H627 C639 0.929 . S
H628 C642 0.930 . S
H629 C644 0.960 . S
H630 C644 0.960 . S
H631 C644 0.960 . S
C632 H624 0.929 . S
C632 C633 1.377 1_554 S
C632 C634 1.384 . S
C633 C632 1.377 1_556 S
C633 C639 1.390 . S
C634 H625 0.930 . S
C634 C632 1.384 . S
C634 C635 1.397 . S
C635 C634 1.397 . S
C635 C636 1.369 1_554 S
C635 C640 1.496 . S
C636 H626 0.930 . S
C636 C635 1.369 1_556 S
C636 C639 1.386 . S
H637 C653 0.930 . S
H638 C654 0.931 . S
C639 H627 0.929 . S
C639 C633 1.390 . S
C639 C636 1.386 . S
C640 C635 1.496 . S
C640 C642 1.395 . S
C640 C643 1.403 1_544 S
H641 C647 0.930 . S
C642 H628 0.930 . S
C642 C640 1.395 . S
C642 C645 1.403 1_455 S
C643 C640 1.403 1_566 S
C643 C644 1.524 . S
C643 C647 1.400 1_455 S
C644 H629 0.960 . S
C644 H630 0.960 . S
C644 H631 0.960 . S
C644 C643 1.524 . S
C645 C642 1.403 1_655 S
C645 C646 1.392 1_545 S
C645 C649 1.495 . S
C646 C645 1.392 1_565 S
C646 C647 1.385 1_554 S
C646 C648 1.478 . S
C647 H641 0.930 . S
C647 C643 1.400 1_655 S
C647 C646 1.385 1_556 S
C648 C646 1.478 . S
C648 C650 1.381 . S
C648 C654 1.383 1_554 S
C649 C645 1.495 . S
C649 H655 0.959 . S
C649 H656 0.961 . S
C649 H657 0.960 . S
C650 C648 1.381 . S
C650 C651 1.394 . S
C650 H658 0.930 . S
C651 C650 1.394 . S
C651 C652 1.383 . S
C651 H659 0.929 . S
C652 C651 1.383 . S
C652 C653 1.377 1_554 S
C653 H637 0.930 . S
C653 C652 1.377 1_556 S
C653 C654 1.379 . S
C654 H638 0.931 . S
C654 C648 1.383 1_556 S
C654 C653 1.379 . S
H655 C649 0.959 . S
H656 C649 0.961 . S
H657 C649 0.960 . S
H658 C650 0.930 . S
H659 C651 0.929 . S
H660 C668 0.929 . S
H661 C670 0.930 . S
H662 C672 0.930 1_565 S
H663 C675 0.929 . S
H664 C678 0.928 1_655 S
H665 C680 0.960 . S
H666 C680 0.960 . S
H667 C680 0.960 . S
C668 H660 0.929 . S
C668 C669 1.377 . S
C668 C670 1.384 . S
C669 C668 1.377 . S
C669 C675 1.390 . S
C670 H661 0.930 . S
C670 C668 1.384 . S
C670 C671 1.372 . S
C671 C670 1.372 . S
C671 C672 1.400 . S
C671 C676 1.490 . S
C672 H662 0.930 1_545 S
C672 C671 1.400 . S
C672 C675 1.386 . S
H673 C689 0.930 . S
H674 C690 0.931 . S
C675 H663 0.929 . S
C675 C669 1.390 . S
C675 C672 1.386 . S
C676 C671 1.490 . S
C676 C678 1.387 1_655 S
C676 C679 1.403 1_545 S
H677 C683 0.930 . S
C678 H664 0.928 1_455 S
C678 C676 1.387 1_455 S
C678 C681 1.413 . S
C679 C676 1.403 1_565 S
C679 C680 1.524 . S
C679 C683 1.400 1_655 S
C680 H665 0.960 . S
C680 H666 0.960 . S
C680 H667 0.960 . S
C680 C679 1.524 . S
C681 C678 1.413 . S
C681 C682 1.392 1_545 S
C681 C685 1.495 . S
C682 C681 1.392 1_565 S
C682 C683 1.385 . S
C682 C684 1.478 . S
C683 H677 0.930 . S
C683 C679 1.400 1_455 S
C683 C682 1.385 . S
C684 C682 1.478 . S
C684 C686 1.381 . S
C684 C690 1.383 . S
C685 C681 1.495 . S
C685 H691 0.959 . S
C685 H692 0.961 . S
C685 H693 0.960 . S
C686 C684 1.381 . S
C686 C687 1.394 . S
C686 H694 0.930 1_565 S
C687 C686 1.394 . S
C687 C688 1.383 . S
C687 H695 0.929 . S
C688 C687 1.383 . S
C688 C689 1.377 . S
C689 H673 0.930 . S
C689 C688 1.377 . S
C689 C690 1.379 . S
C690 H674 0.931 . S
C690 C684 1.383 . S
C690 C689 1.379 . S
H691 C685 0.959 . S
H692 C685 0.961 . S
H693 C685 0.960 . S
H694 C686 0.930 1_545 S
H695 C687 0.929 . S
H696 C704 0.929 . S
H697 C706 0.930 . S
H698 C708 0.930 . S
H699 C711 0.929 . S
H700 C714 0.930 . S
H701 C716 0.960 . S
H702 C716 0.960 . S
H703 C716 0.960 . S
C704 H696 0.929 . S
C704 C705 1.377 . S
C704 C706 1.384 . S
C705 C704 1.377 . S
C705 C711 1.390 . S
C706 H697 0.930 . S
C706 C704 1.384 . S
C706 C707 1.372 . S
C707 C706 1.372 . S
C707 C708 1.400 . S
C707 C712 1.490 . S
C708 H698 0.930 . S
C708 C707 1.400 . S
C708 C711 1.386 . S
H709 C725 0.930 . S
H710 C726 0.931 . S
C711 H699 0.929 . S
C711 C705 1.390 . S
C711 C708 1.386 . S
C712 C707 1.490 . S
C712 C714 1.395 1_554 S
C712 C715 1.403 . S
H713 C719 0.930 . S
C714 H700 0.930 . S
C714 C712 1.395 1_556 S
C714 C717 1.403 . S
C715 C712 1.403 . S
C715 C716 1.524 . S
C715 C719 1.400 . S
C716 H701 0.960 . S
C716 H702 0.960 . S
C716 H703 0.960 . S
C716 C715 1.524 . S
C717 C714 1.403 . S
C717 C718 1.392 . S
C717 C721 1.495 . S
C718 C717 1.392 . S
C718 C719 1.385 1_556 S
C718 C720 1.478 . S
C719 H713 0.930 . S
C719 C715 1.400 . S
C719 C718 1.385 1_554 S
C720 C718 1.478 . S
C720 C722 1.381 . S
C720 C726 1.383 . S
C721 C717 1.495 . S
C721 H727 0.959 . S
C721 H728 0.961 . S
C721 H729 0.960 . S
C722 C720 1.381 . S
C722 C723 1.394 . S
C722 H730 0.930 . S
C723 C722 1.394 . S
C723 C724 1.383 . S
C723 H731 0.929 . S
C724 C723 1.383 . S
C724 C725 1.377 . S
C725 H709 0.930 . S
C725 C724 1.377 . S
C725 C726 1.379 . S
C726 H710 0.931 . S
C726 C720 1.383 . S
C726 C725 1.379 . S
H727 C721 0.959 . S
H728 C721 0.961 . S
H729 C721 0.960 . S
H730 C722 0.930 . S
H731 C723 0.929 . S
H732 C740 0.929 . S
H733 C742 0.930 . S
H734 C744 0.930 . S
H735 C747 0.929 . S
H736 C750 0.930 . S
H737 C752 0.960 . S
H738 C752 0.960 . S
H739 C752 0.960 . S
C740 H732 0.929 . S
C740 C741 1.377 . S
C740 C742 1.384 . S
C741 C740 1.377 . S
C741 C747 1.390 . S
C742 H733 0.930 . S
C742 C740 1.384 . S
C742 C743 1.372 . S
C743 C742 1.372 . S
C743 C744 1.400 . S
C743 C748 1.490 . S
C744 H734 0.930 . S
C744 C743 1.400 . S
C744 C747 1.386 . S
H745 C761 0.930 . S
H746 C762 0.931 . S
C747 H735 0.929 . S
C747 C741 1.390 . S
C747 C744 1.386 . S
C748 C743 1.490 . S
C748 C750 1.395 . S
C748 C751 1.403 . S
H749 C755 0.930 . S
C750 H736 0.930 . S
C750 C748 1.395 . S
C750 C753 1.403 . S
C751 C748 1.403 . S
C751 C752 1.524 . S
C751 C755 1.400 . S
C752 H737 0.960 . S
C752 H738 0.960 . S
C752 H739 0.960 . S
C752 C751 1.524 . S
C753 C750 1.403 . S
C753 C754 1.392 . S
C753 C757 1.495 . S
C754 C753 1.392 . S
C754 C755 1.385 . S
C754 C756 1.478 . S
C755 H749 0.930 . S
C755 C751 1.400 . S
C755 C754 1.385 . S
C756 C754 1.478 . S
C756 C758 1.381 . S
C756 C762 1.383 . S
C757 C753 1.495 . S
C757 H763 0.959 . S
C757 H764 0.961 . S
C757 H765 0.960 . S
C758 C756 1.381 . S
C758 C759 1.394 . S
C758 H766 0.930 . S
C759 C758 1.394 . S
C759 C760 1.383 . S
C759 H767 0.929 . S
C760 C759 1.383 . S
C760 C761 1.377 . S
C761 H745 0.930 . S
C761 C760 1.377 . S
C761 C762 1.379 . S
C762 H746 0.931 . S
C762 C756 1.383 . S
C762 C761 1.379 . S
H763 C757 0.959 . S
H764 C757 0.961 . S
H765 C757 0.960 . S
H766 C758 0.930 . S
H767 C759 0.929 . S
H768 C776 0.930 . S
H769 C778 0.927 1_556 S
H770 C780 0.930 . S
H771 C783 0.929 . S
H772 C786 0.930 . S
H773 C788 0.960 . S
H774 C788 0.960 . S
H775 C788 0.960 . S
C776 H768 0.930 . S
C776 C777 1.377 . S
C776 C778 1.386 . S
C777 C776 1.377 . S
C777 C783 1.390 . S
C778 H769 0.927 1_554 S
C778 C776 1.386 . S
C778 C779 1.373 . S
C779 C778 1.373 . S
C779 C780 1.400 . S
C779 C784 1.490 . S
C780 H770 0.930 . S
C780 C779 1.400 . S
C780 C783 1.386 . S
H781 C797 0.930 . S
H782 C798 0.931 . S
C783 H771 0.929 . S
C783 C777 1.390 . S
C783 C780 1.386 . S
C784 C779 1.490 . S
C784 C786 1.395 1_554 S
C784 C787 1.403 . S
H785 C791 0.930 . S
C786 H772 0.930 . S
C786 C784 1.395 1_556 S
C786 C789 1.403 . S
C787 C784 1.403 . S
C787 C788 1.524 . S
C787 C791 1.400 . S
C788 H773 0.960 . S
C788 H774 0.960 . S
C788 H775 0.960 . S
C788 C787 1.524 . S
C789 C786 1.403 . S
C789 C790 1.392 . S
C789 C793 1.495 . S
C790 C789 1.392 . S
C790 C791 1.385 1_556 S
C790 C792 1.478 . S
C791 H785 0.930 . S
C791 C787 1.400 . S
C791 C790 1.385 1_554 S
C792 C790 1.478 . S
C792 C794 1.381 . S
C792 C798 1.383 . S
C793 C789 1.495 . S
C793 H799 0.959 . S
C793 H800 0.961 . S
C793 H801 0.960 . S
C794 C792 1.381 . S
C794 C795 1.394 . S
C794 H802 0.930 . S
C795 C794 1.394 . S
C795 C796 1.383 . S
C795 H803 0.929 . S
C796 C795 1.383 . S
C796 C797 1.377 . S
C797 H781 0.930 . S
C797 C796 1.377 . S
C797 C798 1.379 . S
C798 H782 0.931 . S
C798 C792 1.383 . S
C798 C797 1.379 . S
H799 C793 0.959 . S
H800 C793 0.961 . S
H801 C793 0.960 . S
H802 C794 0.930 . S
H803 C795 0.929 . S
H804 C812 0.929 . S
H805 C814 0.930 . S
H806 C816 0.930 . S
H807 C819 0.929 . S
H808 C822 0.930 . S
H809 C824 0.960 . S
H810 C824 0.960 . S
H811 C824 0.960 . S
C812 H804 0.929 . S
C812 C813 1.377 . S
C812 C814 1.384 . S
C813 C812 1.377 . S
C813 C819 1.390 . S
C814 H805 0.930 . S
C814 C812 1.384 . S
C814 C815 1.372 . S
C815 C814 1.372 . S
C815 C816 1.400 . S
C815 C820 1.490 . S
C816 H806 0.930 . S
C816 C815 1.400 . S
C816 C819 1.386 . S
H817 C833 0.930 . S
H818 C834 0.931 . S
C819 H807 0.929 . S
C819 C813 1.390 . S
C819 C816 1.386 . S
C820 C815 1.490 . S
C820 C822 1.395 . S
C820 C823 1.403 . S
H821 C827 0.930 . S
C822 H808 0.930 . S
C822 C820 1.395 . S
C822 C825 1.403 . S
C823 C820 1.403 . S
C823 C824 1.524 . S
C823 C827 1.400 . S
C824 H809 0.960 . S
C824 H810 0.960 . S
C824 H811 0.960 . S
C824 C823 1.524 . S
C825 C822 1.403 . S
C825 C826 1.392 . S
C825 C829 1.495 . S
C826 C825 1.392 . S
C826 C827 1.385 . S
C826 C828 1.478 . S
C827 H821 0.930 . S
C827 C823 1.400 . S
C827 C826 1.385 . S
C828 C826 1.478 . S
C828 C830 1.381 . S
C828 C834 1.383 . S
C829 C825 1.495 . S
C829 H835 0.959 . S
C829 H836 0.961 . S
C829 H837 0.960 . S
C830 C828 1.381 . S
C830 C831 1.394 . S
C830 H838 0.930 . S
C831 C830 1.394 . S
C831 C832 1.383 . S
C831 H839 0.929 . S
C832 C831 1.383 . S
C832 C833 1.377 . S
C833 H817 0.930 . S
C833 C832 1.377 . S
C833 C834 1.379 . S
C834 H818 0.931 . S
C834 C828 1.383 . S
C834 C833 1.379 . S
H835 C829 0.959 . S
H836 C829 0.961 . S
H837 C829 0.960 . S
H838 C830 0.930 . S
H839 C831 0.929 . S
H840 C848 0.929 . S
H841 C850 0.930 . S
H842 C852 0.930 . S
H843 C855 0.929 . S
H844 C858 0.930 . S
H845 C860 0.960 . S
H846 C860 0.960 . S
H847 C860 0.960 . S
C848 H840 0.929 . S
C848 C849 1.377 . S
C848 C850 1.384 . S
C849 C848 1.377 . S
C849 C855 1.390 . S
C850 H841 0.930 . S
C850 C848 1.384 . S
C850 C851 1.372 . S
C851 C850 1.372 . S
C851 C852 1.400 . S
C851 C856 1.490 . S
C852 H842 0.930 . S
C852 C851 1.400 . S
C852 C855 1.386 . S
H853 C869 0.930 . S
H854 C870 0.931 . S
C855 H843 0.929 . S
C855 C849 1.390 . S
C855 C852 1.386 . S
C856 C851 1.490 . S
C856 C858 1.395 . S
C856 C859 1.403 . S
H857 C863 0.930 . S
C858 H844 0.930 . S
C858 C856 1.395 . S
C858 C861 1.403 . S
C859 C856 1.403 . S
C859 C860 1.524 . S
C859 C863 1.400 . S
C860 H845 0.960 . S
C860 H846 0.960 . S
C860 H847 0.960 . S
C860 C859 1.524 . S
C861 C858 1.403 . S
C861 C862 1.392 . S
C861 C865 1.495 . S
C862 C861 1.392 . S
C862 C863 1.385 . S
C862 C864 1.478 . S
C863 H857 0.930 . S
C863 C859 1.400 . S
C863 C862 1.385 . S
C864 C862 1.478 . S
C864 C866 1.381 . S
C864 C870 1.383 . S
C865 C861 1.495 . S
C865 H871 0.959 . S
C865 H872 0.961 . S
C865 H873 0.960 . S
C866 C864 1.381 . S
C866 C867 1.394 . S
C866 H874 0.930 . S
C867 C866 1.394 . S
C867 C868 1.383 . S
C867 H875 0.929 . S
C868 C867 1.383 . S
C868 C869 1.377 . S
C869 H853 0.930 . S
C869 C868 1.377 . S
C869 C870 1.379 . S
C870 H854 0.931 . S
C870 C864 1.383 . S
C870 C869 1.379 . S
H871 C865 0.959 . S
H872 C865 0.961 . S
H873 C865 0.960 . S
H874 C866 0.930 . S
H875 C867 0.929 . S
H876 C884 0.929 . S
H877 C886 0.930 . S
H878 C888 0.930 . S
H879 C891 0.929 . S
H880 C894 0.930 . S
H881 C896 0.960 . S
H882 C896 0.960 . S
H883 C896 0.960 . S
C884 H876 0.929 . S
C884 C885 1.377 . S
C884 C886 1.384 . S
C885 C884 1.377 . S
C885 C891 1.390 . S
C886 H877 0.930 . S
C886 C884 1.384 . S
C886 C887 1.372 . S
C887 C886 1.372 . S
C887 C888 1.400 . S
C887 C892 1.490 . S
C888 H878 0.930 . S
C888 C887 1.400 . S
C888 C891 1.386 . S
H889 C905 0.930 . S
H890 C906 0.931 . S
C891 H879 0.929 . S
C891 C885 1.390 . S
C891 C888 1.386 . S
C892 C887 1.490 . S
C892 C894 1.395 . S
C892 C895 1.403 . S
H893 C899 0.930 . S
C894 H880 0.930 . S
C894 C892 1.395 . S
C894 C897 1.403 . S
C895 C892 1.403 . S
C895 C896 1.524 . S
C895 C899 1.400 . S
C896 H881 0.960 . S
C896 H882 0.960 . S
C896 H883 0.960 . S
C896 C895 1.524 . S
C897 C894 1.403 . S
C897 C898 1.392 . S
C897 C901 1.495 . S
C898 C897 1.392 . S
C898 C899 1.385 . S
C898 C900 1.478 . S
C899 H893 0.930 . S
C899 C895 1.400 . S
C899 C898 1.385 . S
C900 C898 1.478 . S
C900 C902 1.381 . S
C900 C906 1.383 . S
C901 C897 1.495 . S
C901 H907 0.959 . S
C901 H908 0.961 . S
C901 H909 0.960 . S
C902 C900 1.381 . S
C902 C903 1.394 . S
C902 H910 0.930 . S
C903 C902 1.394 . S
C903 C904 1.383 . S
C903 H911 0.929 . S
C904 C903 1.383 . S
C904 C905 1.377 . S
C905 H889 0.930 . S
C905 C904 1.377 . S
C905 C906 1.379 . S
C906 H890 0.931 . S
C906 C900 1.383 . S
C906 C905 1.379 . S
H907 C901 0.959 . S
H908 C901 0.961 . S
H909 C901 0.960 . S
H910 C902 0.930 . S
H911 C903 0.929 . S
H912 C920 0.929 . S
H913 C922 0.930 . S
H914 C924 0.930 . S
H915 C927 0.929 . S
H916 C930 0.930 . S
H917 C932 0.977 . S
H918 C932 0.950 1_455 S
H919 C932 0.957 1_455 S
C920 H912 0.929 . S
C920 C921 1.377 . S
C920 C922 1.384 . S
C921 C920 1.377 . S
C921 C927 1.390 . S
C922 H913 0.930 . S
C922 C920 1.384 . S
C922 C923 1.372 . S
C923 C922 1.372 . S
C923 C924 1.400 . S
C923 C928 1.490 . S
C924 H914 0.930 . S
C924 C923 1.400 . S
C924 C927 1.386 . S
H925 C941 0.930 . S
H926 C942 0.931 . S
C927 H915 0.929 . S
C927 C921 1.390 . S
C927 C924 1.386 . S
C928 C923 1.490 . S
C928 C930 1.395 . S
C928 C931 1.403 . S
H929 C935 0.930 . S
C930 H916 0.930 . S
C930 C928 1.395 . S
C930 C933 1.403 . S
C931 C928 1.403 . S
C931 C932 1.520 1_455 S
C931 C935 1.400 1_455 S
C932 H917 0.977 . S
C932 H918 0.950 1_655 S
C932 H919 0.957 1_655 S
C932 C931 1.520 1_655 S
C933 C930 1.403 . S
C933 C934 1.392 1_455 S
C933 C937 1.495 . S
C934 C933 1.392 1_655 S
C934 C935 1.385 . S
C934 C936 1.478 . S
C935 H929 0.930 . S
C935 C931 1.400 1_655 S
C935 C934 1.385 . S
C936 C934 1.478 . S
C936 C938 1.381 . S
C936 C942 1.383 . S
C937 C933 1.495 . S
C937 H943 0.959 . S
C937 H944 0.961 1_455 S
C937 H945 0.960 1_455 S
C938 C936 1.381 . S
C938 C939 1.394 . S
C938 H946 0.930 . S
C939 C938 1.394 . S
C939 C940 1.383 . S
C939 H947 0.929 . S
C940 C939 1.383 . S
C940 C941 1.377 . S
C941 H925 0.930 . S
C941 C940 1.377 . S
C941 C942 1.379 . S
C942 H926 0.931 . S
C942 C936 1.383 . S
C942 C941 1.379 . S
H943 C937 0.959 . S
H944 C937 0.961 1_655 S
H945 C937 0.960 1_655 S
H946 C938 0.930 . S
H947 C939 0.929 . S
H948 C956 0.929 . S
H949 C958 0.930 . S
H950 C960 0.930 . S
H951 C963 0.929 . S
H952 C966 0.930 . S
H953 C968 0.960 . S
H954 C968 0.960 1_455 S
H955 C968 0.960 1_455 S
C956 H948 0.929 . S
C956 C957 1.377 . S
C956 C958 1.384 . S
C957 C956 1.377 . S
C957 C963 1.390 . S
C958 H949 0.930 . S
C958 C956 1.384 . S
C958 C959 1.372 . S
C959 C958 1.372 . S
C959 C960 1.400 . S
C959 C964 1.490 . S
C960 H950 0.930 . S
C960 C959 1.400 . S
C960 C963 1.386 . S
H961 C977 0.930 . S
H962 C978 0.931 . S
C963 H951 0.929 . S
C963 C957 1.390 . S
C963 C960 1.386 . S
C964 C959 1.490 . S
C964 C966 1.395 . S
C964 C967 1.401 . S
H965 C971 0.930 . S
C966 H952 0.930 . S
C966 C964 1.395 . S
C966 C969 1.403 . S
C967 C964 1.401 . S
C967 C968 1.524 1_455 S
C967 C971 1.401 1_455 S
C968 H953 0.960 . S
C968 H954 0.960 1_655 S
C968 H955 0.960 1_655 S
C968 C967 1.524 1_655 S
C969 C966 1.403 . S
C969 C970 1.392 1_455 S
C969 C973 1.495 . S
C970 C969 1.392 1_655 S
C970 C971 1.385 . S
C970 C972 1.478 . S
C971 H965 0.930 . S
C971 C967 1.401 1_655 S
C971 C970 1.385 . S
C972 C970 1.478 . S
C972 C974 1.381 . S
C972 C978 1.383 . S
C973 C969 1.495 . S
C973 H979 0.959 . S
C973 H980 0.961 1_455 S
C973 H981 0.960 1_455 S
C974 C972 1.381 . S
C974 C975 1.394 . S
C974 H982 0.930 . S
C975 C974 1.394 . S
C975 C976 1.383 . S
C975 H983 0.929 . S
C976 C975 1.383 . S
C976 C977 1.377 . S
C977 H961 0.930 . S
C977 C976 1.377 . S
C977 C978 1.379 . S
C978 H962 0.931 . S
C978 C972 1.383 . S
C978 C977 1.379 . S
H979 C973 0.959 . S
H980 C973 0.961 1_655 S
H981 C973 0.960 1_655 S
H982 C974 0.930 . S
H983 C975 0.929 . S
C273 C106 1.716 . S
C292 N13 1.804 . S
C309 N46 1.802 . S
C328 C73 1.690 . S
C345 C40 1.720 . S
C364 N79 1.804 . S
C381 C7 1.721 . S
C400 N112 1.789 . S
C417 N145 1.802 . S
C436 C238 1.704 . S
C453 C205 1.717 . S
C472 N178 1.803 . S
C489 N211 1.799 . S
C508 C172 1.725 . S
C525 N244 1.802 . S
C544 C139 1.715 . S
C561 C18 0.749 . S
C580 C84 0.718 . S
C597 C51 0.755 . S
C616 C117 0.754 . S
C633 C216 0.751 . S
C652 C150 0.729 . S
C669 C249 0.755 . S
C688 C183 0.771 . S
C705 C21 1.438 . S
C724 C219 1.424 . S
C741 C54 1.440 . S
C760 C252 1.431 . S
C777 C153 1.439 . S
C796 C87 1.427 . S
C813 C186 1.438 . S
C832 C120 1.422 . S
C849 N35 0.604 . S
C868 N2 0.542 . S
C885 N101 0.607 . S
C904 N68 0.541 . S
C921 N167 0.607 . S
C940 N134 0.556 . S
C957 N200 0.614 . S
C976 N233 0.521 . S
