# Generated by pormake.
# Topology ulj, (4)-cn, num edge types: 1
# Building blocks:
#     Node 0, Type 0, BuildingBlock: ESEHIV_clean_sbu_0, # of connection points: 4
#     Node 1, Type 0, BuildingBlock: ESEHIV_clean_sbu_0, # of connection points: 4
#     Node 2, Type 0, BuildingBlock: ESEHIV_clean_sbu_0, # of connection points: 4
#     Node 3, Type 0, BuildingBlock: ESEHIV_clean_sbu_0, # of connection points: 4
#     Node 4, Type 0, BuildingBlock: ESEHIV_clean_sbu_0, # of connection points: 4
#     Node 5, Type 0, BuildingBlock: ESEHIV_clean_sbu_0, # of connection points: 4
#     Node 6, Type 0, BuildingBlock: ESEHIV_clean_sbu_0, # of connection points: 4
#     Node 7, Type 0, BuildingBlock: ESEHIV_clean_sbu_0, # of connection points: 4
#     Node 8, Type 0, BuildingBlock: ESEHIV_clean_sbu_0, # of connection points: 4
#     Node 9, Type 0, BuildingBlock: ESEHIV_clean_sbu_0, # of connection points: 4
#     Node 10, Type 0, BuildingBlock: ESEHIV_clean_sbu_0, # of connection points: 4
#     Node 11, Type 0, BuildingBlock: ESEHIV_clean_sbu_0, # of connection points: 4
#     Node 12, Type 0, BuildingBlock: ESEHIV_clean_sbu_0, # of connection points: 4
#     Node 13, Type 0, BuildingBlock: ESEHIV_clean_sbu_0, # of connection points: 4
#     Node 14, Type 0, BuildingBlock: ESEHIV_clean_sbu_0, # of connection points: 4
#     Node 15, Type 0, BuildingBlock: ESEHIV_clean_sbu_0, # of connection points: 4
#     Node 16, Type 0, BuildingBlock: ESEHIV_clean_sbu_0, # of connection points: 4
#     Node 17, Type 0, BuildingBlock: ESEHIV_clean_sbu_0, # of connection points: 4
#     Node 18, Type 0, BuildingBlock: ESEHIV_clean_sbu_0, # of connection points: 4
#     Node 19, Type 0, BuildingBlock: ESEHIV_clean_sbu_0, # of connection points: 4
#     Node 20, Type 0, BuildingBlock: ESEHIV_clean_sbu_0, # of connection points: 4
#     Node 21, Type 0, BuildingBlock: ESEHIV_clean_sbu_0, # of connection points: 4
#     Node 22, Type 0, BuildingBlock: ESEHIV_clean_sbu_0, # of connection points: 4
#     Node 23, Type 0, BuildingBlock: ESEHIV_clean_sbu_0, # of connection points: 4
#     Node 24, Type 0, BuildingBlock: ESEHIV_clean_sbu_0, # of connection points: 4
#     Node 25, Type 0, BuildingBlock: ESEHIV_clean_sbu_0, # of connection points: 4
#     Node 26, Type 0, BuildingBlock: ESEHIV_clean_sbu_0, # of connection points: 4
#     Node 27, Type 0, BuildingBlock: ESEHIV_clean_sbu_0, # of connection points: 4
#     Node 28, Type 0, BuildingBlock: ESEHIV_clean_sbu_0, # of connection points: 4
#     Node 29, Type 0, BuildingBlock: ESEHIV_clean_sbu_0, # of connection points: 4
#     Node 30, Type 0, BuildingBlock: ESEHIV_clean_sbu_0, # of connection points: 4
#     Node 31, Type 0, BuildingBlock: ESEHIV_clean_sbu_0, # of connection points: 4
#     Node 32, Type 0, BuildingBlock: ESEHIV_clean_sbu_0, # of connection points: 4
#     Node 33, Type 0, BuildingBlock: ESEHIV_clean_sbu_0, # of connection points: 4
#     Node 34, Type 0, BuildingBlock: ESEHIV_clean_sbu_0, # of connection points: 4
#     Node 35, Type 0, BuildingBlock: ESEHIV_clean_sbu_0, # of connection points: 4
#     Node 36, Type 0, BuildingBlock: ESEHIV_clean_sbu_0, # of connection points: 4
#     Node 37, Type 0, BuildingBlock: ESEHIV_clean_sbu_0, # of connection points: 4
#     Node 38, Type 0, BuildingBlock: ESEHIV_clean_sbu_0, # of connection points: 4
#     Node 39, Type 0, BuildingBlock: ESEHIV_clean_sbu_0, # of connection points: 4
#     Node 40, Type 0, BuildingBlock: ESEHIV_clean_sbu_0, # of connection points: 4
#     Node 41, Type 0, BuildingBlock: ESEHIV_clean_sbu_0, # of connection points: 4
#     Node 42, Type 0, BuildingBlock: ESEHIV_clean_sbu_0, # of connection points: 4
#     Node 43, Type 0, BuildingBlock: ESEHIV_clean_sbu_0, # of connection points: 4
#     Node 44, Type 0, BuildingBlock: ESEHIV_clean_sbu_0, # of connection points: 4
#     Node 45, Type 0, BuildingBlock: ESEHIV_clean_sbu_0, # of connection points: 4
#     Node 46, Type 0, BuildingBlock: ESEHIV_clean_sbu_0, # of connection points: 4
#     Node 47, Type 0, BuildingBlock: ESEHIV_clean_sbu_0, # of connection points: 4
#     Edge 48, Type (0, 0), None
#     Edge 49, Type (0, 0), None
#     Edge 50, Type (0, 0), None
#     Edge 51, Type (0, 0), None
#     Edge 52, Type (0, 0), None
#     Edge 53, Type (0, 0), None
#     Edge 54, Type (0, 0), None
#     Edge 55, Type (0, 0), None
#     Edge 56, Type (0, 0), None
#     Edge 57, Type (0, 0), None
#     Edge 58, Type (0, 0), None
#     Edge 59, Type (0, 0), None
#     Edge 60, Type (0, 0), None
#     Edge 61, Type (0, 0), None
#     Edge 62, Type (0, 0), None
#     Edge 63, Type (0, 0), None
#     Edge 64, Type (0, 0), None
#     Edge 65, Type (0, 0), None
#     Edge 66, Type (0, 0), None
#     Edge 67, Type (0, 0), None
#     Edge 68, Type (0, 0), None
#     Edge 69, Type (0, 0), None
#     Edge 70, Type (0, 0), None
#     Edge 71, Type (0, 0), None
#     Edge 72, Type (0, 0), None
#     Edge 73, Type (0, 0), None
#     Edge 74, Type (0, 0), None
#     Edge 75, Type (0, 0), None
#     Edge 76, Type (0, 0), None
#     Edge 77, Type (0, 0), None
#     Edge 78, Type (0, 0), None
#     Edge 79, Type (0, 0), None
#     Edge 80, Type (0, 0), None
#     Edge 81, Type (0, 0), None
#     Edge 82, Type (0, 0), None
#     Edge 83, Type (0, 0), None
#     Edge 84, Type (0, 0), None
#     Edge 85, Type (0, 0), None
#     Edge 86, Type (0, 0), None
#     Edge 87, Type (0, 0), None
#     Edge 88, Type (0, 0), None
#     Edge 89, Type (0, 0), None
#     Edge 90, Type (0, 0), None
#     Edge 91, Type (0, 0), None
#     Edge 92, Type (0, 0), None
#     Edge 93, Type (0, 0), None
#     Edge 94, Type (0, 0), None
#     Edge 95, Type (0, 0), None
#     Edge 96, Type (0, 0), None
#     Edge 97, Type (0, 0), None
#     Edge 98, Type (0, 0), None
#     Edge 99, Type (0, 0), None
#     Edge 100, Type (0, 0), None
#     Edge 101, Type (0, 0), None
#     Edge 102, Type (0, 0), None
#     Edge 103, Type (0, 0), None
#     Edge 104, Type (0, 0), None
#     Edge 105, Type (0, 0), None
#     Edge 106, Type (0, 0), None
#     Edge 107, Type (0, 0), None
#     Edge 108, Type (0, 0), None
#     Edge 109, Type (0, 0), None
#     Edge 110, Type (0, 0), None
#     Edge 111, Type (0, 0), None
#     Edge 112, Type (0, 0), None
#     Edge 113, Type (0, 0), None
#     Edge 114, Type (0, 0), None
#     Edge 115, Type (0, 0), None
#     Edge 116, Type (0, 0), None
#     Edge 117, Type (0, 0), None
#     Edge 118, Type (0, 0), None
#     Edge 119, Type (0, 0), None
#     Edge 120, Type (0, 0), None
#     Edge 121, Type (0, 0), None
#     Edge 122, Type (0, 0), None
#     Edge 123, Type (0, 0), None
#     Edge 124, Type (0, 0), None
#     Edge 125, Type (0, 0), None
#     Edge 126, Type (0, 0), None
#     Edge 127, Type (0, 0), None
#     Edge 128, Type (0, 0), None
#     Edge 129, Type (0, 0), None
#     Edge 130, Type (0, 0), None
#     Edge 131, Type (0, 0), None
#     Edge 132, Type (0, 0), None
#     Edge 133, Type (0, 0), None
#     Edge 134, Type (0, 0), None
#     Edge 135, Type (0, 0), None
#     Edge 136, Type (0, 0), None
#     Edge 137, Type (0, 0), None
#     Edge 138, Type (0, 0), None
#     Edge 139, Type (0, 0), None
#     Edge 140, Type (0, 0), None
#     Edge 141, Type (0, 0), None
#     Edge 142, Type (0, 0), None
#     Edge 143, Type (0, 0), None
# Relax obj value: 0.037
# Max RMSD: 0.128
# Mean RMSD: 0.127
data_MOF--net-ulj--node1-ESEHIV_clean_sbu_0--edge1-none
_symmetry_space_group_name_H-M    P1
_symmetry_Int_Tables_number       1
_symmetry_cell_setting            triclinic
loop_
_symmetry_equiv_pos_as_xyz
'x, y, z'
_cell_length_a     33.110485
_cell_length_b     33.110335
_cell_length_c     33.111728
_cell_angle_alpha  90.000041
_cell_angle_beta   89.999764
_cell_angle_gamma 89.999737
loop_
_atom_site_label
_atom_site_type_symbol
_atom_site_fract_x
_atom_site_fract_y
_atom_site_fract_z
_atom_type_partial_charge
Cu0 Cu 0.15997 0.25995 0.34652 0.0
N1 N 0.11552 0.22485 0.3524 0.0
N2 N 0.0655 0.19002 0.38201 0.0
C3 C 0.09904 0.21262 0.38766 0.0
C4 C 0.06075 0.18766 0.34159 0.0
C5 C 0.0917 0.2091 0.32343 0.0
O6 O 0.1573 0.29743 0.39215 0.0
C7 C 0.21288 0.19105 0.3434 0.0
O8 O 0.18282 0.17143 0.3603 0.0
H9 H 0.11047 0.22143 0.41696 0.0
H10 H 0.09587 0.21386 0.29138 0.0
N11 N 0.15451 0.29189 0.29999 0.0
N12 N 0.17012 0.32796 0.24485 0.0
C13 C 0.18444 0.30498 0.27547 0.0
C14 C 0.12027 0.30752 0.28464 0.0
C15 C 0.12975 0.32958 0.25055 0.0
C16 C 0.16391 0.28963 0.42926 0.0
O17 O 0.18029 0.25489 0.43929 0.0
H18 H 0.21593 0.29714 0.2796 0.0
H19 H 0.09048 0.30299 0.29727 0.0
O20 O 0.21026 0.22925 0.3389 0.0
H21 H 1.03607 0.17263 0.32628 0.0
H22 H 0.1085 0.34517 0.23117 0.0
Cu23 Cu 0.50995 0.68048 0.99389 0.0
N24 N 0.47485 0.72493 0.98801 0.0
N25 N 0.44002 0.77495 0.9584 0.0
C26 C 0.46262 0.74141 0.95275 0.0
C27 C 0.43766 0.7797 0.99882 0.0
C28 C 0.4591 0.74875 1.01698 0.0
O29 O 0.54743 0.68315 0.94826 0.0
C30 C 0.44104 0.62757 0.99701 0.0
O31 O 0.42143 0.65763 0.98011 0.0
H32 H 0.47142 0.72997 0.92345 0.0
H33 H 0.46386 0.74458 0.04903 0.0
N34 N 0.54189 0.68594 1.04042 0.0
N35 N 0.57795 0.67033 0.09555 0.0
C36 C 0.55497 0.65601 0.06494 0.0
C37 C 0.55752 0.72018 0.05576 0.0
C38 C 0.57958 0.7107 0.08986 0.0
C39 C 0.53963 0.67653 0.91115 0.0
O40 O 0.50489 0.66015 0.90112 0.0
H41 H 0.54713 0.62452 0.06081 0.0
H42 H 0.55299 0.74997 1.04314 0.0
O43 O 0.47925 0.63019 1.00151 0.0
H44 H 0.42263 0.80438 1.01413 0.0
H45 H 0.59516 0.73195 0.10923 0.0
Cu46 Cu 0.93047 0.3305 0.34652 0.0
N47 N 0.97492 0.3656 0.3524 0.0
N48 N 1.02495 0.40043 0.38201 0.0
C49 C 0.9914 0.37783 0.38766 0.0
C50 C 1.02969 0.40279 0.34159 0.0
C51 C 0.99874 0.38135 0.32343 0.0
O52 O 0.93315 0.29302 0.39215 0.0
C53 C 0.87756 0.39941 0.34341 0.0
O54 O 0.90763 0.41902 0.3603 0.0
H55 H 0.97997 0.36902 0.41695 0.0
H56 H 0.99458 0.37659 0.29138 0.0
N57 N 0.93594 0.29856 0.29999 0.0
N58 N 0.92033 0.26249 0.24486 0.0
C59 C 0.90601 0.28547 0.27547 0.0
C60 C 0.97017 0.28293 0.28464 0.0
C61 C 0.96069 0.26086 0.25055 0.0
C62 C 0.92653 0.30082 0.42926 0.0
O63 O 0.91015 0.33556 0.43929 0.0
H64 H 0.87451 0.29331 0.2796 0.0
H65 H 0.99997 0.28746 0.29727 0.0
O66 O 0.88018 0.3612 0.3389 0.0
H67 H 0.05438 0.41782 0.32627 0.0
H68 H 0.98194 0.24528 0.23117 0.0
Cu69 Cu 0.5805 0.90997 0.99388 0.0
N70 N 0.6156 0.86552 0.98801 0.0
N71 N 0.65043 0.8155 0.9584 0.0
C72 C 0.62783 0.84904 0.95275 0.0
C73 C 0.65279 0.81075 0.99882 0.0
C74 C 0.63135 0.8417 1.01698 0.0
O75 O 0.54302 0.9073 0.94825 0.0
C76 C 0.6494 0.96289 0.997 0.0
O77 O 0.66902 0.93282 0.98011 0.0
H78 H 0.61902 0.86047 0.92345 0.0
H79 H 0.62659 0.84587 0.04903 0.0
N80 N 0.54856 0.90451 1.04042 0.0
N81 N 0.51249 0.92012 0.09555 0.0
C82 C 0.53547 0.93444 0.06493 0.0
C83 C 0.53293 0.87028 0.05576 0.0
C84 C 0.51086 0.87976 0.08986 0.0
C85 C 0.55082 0.91391 0.91115 0.0
O86 O 0.58556 0.93029 0.90112 0.0
H87 H 0.54331 0.96593 0.06081 0.0
H88 H 0.53746 0.84048 1.04313 0.0
O89 O 0.6112 0.96026 1.00151 0.0
H90 H 0.66782 0.78607 1.01413 0.0
H91 H 0.49528 0.8585 0.10923 0.0
Cu92 Cu 0.15998 0.8305 0.24387 0.0
N93 N 0.11552 0.8656 0.23799 0.0
N94 N 0.0655 0.90043 0.20839 0.0
C95 C 0.09904 0.87783 0.20274 0.0
C96 C 0.06076 0.90279 0.24881 0.0
C97 C 0.0917 0.88135 0.26697 0.0
O98 O 0.15731 0.79302 0.19824 0.0
C99 C 0.21288 0.89941 0.247 0.0
O100 O 0.18282 0.91902 0.2301 0.0
H101 H 0.11047 0.86902 0.17344 0.0
H102 H 0.09587 0.87659 0.29902 0.0
N103 N 0.15451 0.79856 0.2904 0.0
N104 N 0.17012 0.76249 0.34554 0.0
C105 C 0.18444 0.78548 0.31493 0.0
C106 C 0.12028 0.78293 0.30575 0.0
C107 C 0.12976 0.76086 0.33984 0.0
C108 C 0.16392 0.80083 0.16114 0.0
O109 O 0.1803 0.83557 0.15111 0.0
H110 H 0.21593 0.79332 0.31081 0.0
H111 H 0.09048 0.78745 0.29311 0.0
O112 O 0.21026 0.8612 0.25151 0.0
H113 H 1.03607 0.91782 0.26412 0.0
H114 H 0.1085 0.74527 0.35921 0.0
Cu115 Cu 0.08049 0.68047 0.09654 0.0
N116 N 0.11559 0.72493 0.10242 0.0
N117 N 0.15038 0.77498 0.13202 0.0
C118 C 0.12778 0.74143 0.13768 0.0
C119 C 0.15279 0.77968 0.0916 0.0
C120 C 0.13137 0.74872 0.07344 0.0
O121 O 1.04301 0.68313 0.14217 0.0
C122 C 0.14941 0.62757 0.09341 0.0
O123 O 0.16902 0.65764 0.1103 0.0
H124 H 0.11896 0.73001 0.16697 0.0
H125 H 0.12664 0.74453 1.04139 0.0
N126 N 0.04855 0.68593 0.05001 0.0
N127 N 1.01249 0.67033 0.99487 0.0
C128 C 1.03547 0.656 1.02548 0.0
C129 C 1.03292 0.72017 1.03466 0.0
C130 C 1.01086 0.71069 1.00057 0.0
C131 C 0.05082 0.67652 0.17927 0.0
O132 O 0.08557 0.66014 0.1893 0.0
H133 H 1.04331 0.62451 1.0296 0.0
H134 H 1.03745 0.74996 0.04729 0.0
O135 O 0.1112 0.63018 0.0889 0.0
H136 H 0.16785 0.80435 0.07629 0.0
H137 H 0.99527 0.73195 0.98119 0.0
Cu138 Cu 0.93047 0.75996 0.24388 0.0
N139 N 0.97493 0.72486 0.238 0.0
N140 N 1.02497 0.69006 0.20839 0.0
C141 C 0.99142 0.71266 0.20274 0.0
C142 C 1.02968 0.68766 0.24881 0.0
C143 C 0.99873 0.70908 0.26697 0.0
O144 O 0.93314 0.79744 0.19825 0.0
C145 C 0.87757 0.69105 0.247 0.0
O146 O 0.90764 0.67143 0.23011 0.0
H147 H 0.98 0.72148 0.17344 0.0
H148 H 0.99454 0.71381 0.29902 0.0
N149 N 0.93593 0.7919 0.29041 0.0
N150 N 0.92033 0.82796 0.34555 0.0
C151 C 0.90601 0.80498 0.31493 0.0
C152 C 0.97017 0.80752 0.30576 0.0
C153 C 0.96069 0.82959 0.33985 0.0
C154 C 0.92652 0.78963 0.16115 0.0
O155 O 0.91015 0.75489 0.15112 0.0
H156 H 0.87451 0.79714 0.31081 0.0
H157 H 0.99997 0.80299 0.29313 0.0
O158 O 0.88018 0.72925 0.25151 0.0
H159 H 0.05435 0.6726 0.26412 0.0
H160 H 0.98195 0.84517 0.35923 0.0
Cu161 Cu 1.00996 0.90999 0.09654 0.0
N162 N 0.97487 0.86553 0.10242 0.0
N163 N 0.94007 0.81548 0.13203 0.0
C164 C 0.96267 0.84903 0.13768 0.0
C165 C 0.93766 0.81077 0.09161 0.0
C166 C 0.95909 0.84173 0.07345 0.0
O167 O 0.04744 0.90734 0.14217 0.0
C168 C 0.94104 0.96289 0.0934 0.0
O169 O 0.92143 0.93281 0.11029 0.0
H170 H 0.97149 0.86045 0.16698 0.0
H171 H 0.96381 0.84592 1.0414 0.0
N172 N 1.0419 0.90452 0.05001 0.0
N173 N 0.07796 0.92013 0.99487 0.0
C174 C 0.05498 0.93445 1.02549 0.0
C175 C 0.05753 0.87029 1.03466 0.0
C176 C 0.07959 0.87977 1.00056 0.0
C177 C 1.03963 0.91395 0.17927 0.0
O178 O 1.00487 0.93029 0.1893 0.0
H179 H 0.04715 0.96594 1.02961 0.0
H180 H 0.05299 0.84049 0.04729 0.0
O181 O 0.97925 0.96027 0.0889 0.0
H182 H 0.9226 0.78611 0.07629 0.0
H183 H 0.09517 0.85851 0.98119 0.0
Cu184 Cu 0.34655 0.15998 0.25994 0.0
N185 N 0.35243 0.11553 0.22483 0.0
N186 N 0.38203 0.0655 0.19001 0.0
C187 C 0.38769 0.09905 0.2126 0.0
C188 C 0.34161 0.06076 0.18766 0.0
C189 C 0.32345 0.09171 0.20909 0.0
O190 O 0.39218 0.1573 0.29742 0.0
C191 C 0.34343 0.21289 0.19104 0.0
O192 O 0.36032 0.18282 0.17142 0.0
H193 H 0.41698 0.11048 0.2214 0.0
H194 H 0.2914 0.09587 0.21386 0.0
N195 N 0.30002 0.15451 0.29188 0.0
N196 N 0.24487 0.17012 0.32792 0.0
C197 C 0.27548 0.18444 0.30493 0.0
C198 C 0.28469 0.12029 0.30754 0.0
C199 C 0.25059 0.12977 0.32959 0.0
C200 C 0.42929 0.16392 0.28961 0.0
O201 O 0.43932 0.18029 0.25487 0.0
H202 H 0.2796 0.21593 0.29708 0.0
H203 H 0.29734 0.09049 0.30304 0.0
O204 O 0.33893 0.21027 0.22924 0.0
H205 H 0.32629 1.03607 0.17263 0.0
H206 H 0.23124 0.10851 0.3452 0.0
Cu207 Cu 0.40998 0.4939 0.08047 0.0
N208 N 0.36553 0.48802 0.11558 0.0
N209 N 0.3155 0.45842 0.15041 0.0
C210 C 0.34905 0.45276 0.12781 0.0
C211 C 0.31076 0.49884 0.15276 0.0
C212 C 0.3417 0.517 0.13132 0.0
O213 O 0.4073 0.44827 1.043 0.0
C214 C 0.46289 0.49702 0.14938 0.0
O215 O 0.43282 0.48014 0.16899 0.0
H216 H 0.36048 0.42347 0.11901 0.0
H217 H 0.34587 0.54905 0.12655 0.0
N218 N 0.40451 0.54043 0.04853 0.0
N219 N 0.42012 0.59558 1.01249 0.0
C220 C 0.43444 0.56497 1.03548 0.0
C221 C 0.37028 0.55576 1.03288 0.0
C222 C 0.37976 0.58986 1.01082 0.0
C223 C 0.41392 0.41116 0.0508 0.0
O224 O 0.43029 0.40113 0.08554 0.0
H225 H 0.46593 0.56085 1.04333 0.0
H226 H 0.34049 0.54311 1.03738 0.0
O227 O 0.46027 0.50153 0.11117 0.0
H228 H 0.28607 0.51416 0.16778 0.0
H229 H 0.35851 0.60922 0.99521 0.0
Cu230 Cu 0.74389 0.43047 0.25994 0.0
N231 N 0.73802 0.47493 0.22484 0.0
N232 N 0.70841 0.52495 0.19001 0.0
C233 C 0.70276 0.49141 0.2126 0.0
C234 C 0.74884 0.5297 0.18766 0.0
C235 C 0.767 0.49875 0.20909 0.0
O236 O 0.69826 0.43315 0.29742 0.0
C237 C 0.74702 0.37756 0.19104 0.0
O238 O 0.73013 0.40763 0.17142 0.0
H239 H 0.67346 0.47997 0.22141 0.0
H240 H 0.79904 0.49458 0.21386 0.0
N241 N 0.79043 0.43594 0.29188 0.0
N242 N 0.84558 0.42033 0.32792 0.0
C243 C 0.81496 0.40601 0.30494 0.0
C244 C 0.80575 0.47017 0.30754 0.0
C245 C 0.83985 0.46069 0.32959 0.0
C246 C 0.66116 0.42654 0.28961 0.0
O247 O 0.65112 0.41016 0.25488 0.0
H248 H 0.81085 0.37452 0.29708 0.0
H249 H 0.7931 0.49996 0.30304 0.0
O250 O 0.75152 0.38018 0.22924 0.0
H251 H 0.76415 0.55438 0.17263 0.0
H252 H 0.85921 0.48194 0.3452 0.0
Cu253 Cu 0.68047 0.09655 0.08047 0.0
N254 N 0.72492 0.10243 0.11557 0.0
N255 N 0.77495 0.13203 0.1504 0.0
C256 C 0.7414 0.13769 0.12781 0.0
C257 C 0.77969 0.09161 0.15275 0.0
C258 C 0.74874 0.07345 0.13131 0.0
O259 O 0.68314 0.14218 1.04299 0.0
C260 C 0.62756 0.09343 0.14937 0.0
O261 O 0.65763 0.11032 0.16899 0.0
H262 H 0.72997 0.16699 0.119 0.0
H263 H 0.74458 1.0414 0.12654 0.0
N264 N 0.68593 0.05002 0.04853 0.0
N265 N 0.67033 0.99487 1.01249 0.0
C266 C 0.65601 1.02548 1.03547 0.0
C267 C 0.72016 1.03469 1.03287 0.0
C268 C 0.71068 1.00059 1.01082 0.0
C269 C 0.67653 0.17929 0.05079 0.0
O270 O 0.66015 0.18932 0.08553 0.0
H271 H 0.62452 1.0296 1.04333 0.0
H272 H 0.74995 0.04734 1.03737 0.0
O273 O 0.63018 0.08893 0.11117 0.0
H274 H 0.80438 0.0763 0.16778 0.0
H275 H 0.73194 0.98124 0.9952 0.0
Cu276 Cu 0.34655 0.93048 0.33047 0.0
N277 N 0.35243 0.97493 0.36557 0.0
N278 N 0.38203 1.02496 0.4004 0.0
C279 C 0.38768 0.99141 0.37781 0.0
C280 C 0.34161 1.0297 0.40275 0.0
C281 C 0.32345 0.99875 0.38131 0.0
O282 O 0.39218 0.93315 0.29299 0.0
C283 C 0.34342 0.87757 0.39938 0.0
O284 O 0.3603 0.90764 0.41899 0.0
H285 H 0.41698 0.97997 0.369 0.0
H286 H 0.2914 0.99459 0.37654 0.0
N287 N 0.30001 0.93594 0.29853 0.0
N288 N 0.24486 0.92034 0.26249 0.0
C289 C 0.27548 0.90601 0.28547 0.0
C290 C 0.28469 0.97017 0.28287 0.0
C291 C 0.25059 0.96069 0.26081 0.0
C292 C 0.42928 0.92654 0.3008 0.0
O293 O 0.43932 0.91016 0.33554 0.0
H294 H 0.27959 0.87453 0.29333 0.0
H295 H 0.29734 0.99996 0.28738 0.0
O296 O 0.33892 0.88019 0.36117 0.0
H297 H 0.32629 0.05439 0.41778 0.0
H298 H 0.23123 0.98194 0.2452 0.0
Cu299 Cu 0.18048 0.4939 1.00994 0.0
N300 N 0.22493 0.48803 0.97484 0.0
N301 N 0.27496 0.45842 0.94001 0.0
C302 C 0.24141 0.45277 0.9626 0.0
C303 C 0.2797 0.49884 0.93766 0.0
C304 C 0.24876 0.517 0.9591 0.0
O305 O 0.18315 0.44827 0.04742 0.0
C306 C 0.12757 0.49703 0.94103 0.0
O307 O 0.15764 0.48014 0.92142 0.0
H308 H 0.22997 0.42347 0.97141 0.0
H309 H 0.24459 0.54905 0.96386 0.0
N310 N 0.18594 0.54044 1.04188 0.0
N311 N 0.17033 0.59559 0.07792 0.0
C312 C 0.15601 0.56497 0.05494 0.0
C313 C 0.22017 0.55577 0.05753 0.0
C314 C 0.21069 0.58987 0.07959 0.0
C315 C 0.17654 0.41117 1.03961 0.0
O316 O 0.16016 0.40114 1.00487 0.0
H317 H 0.12453 0.56085 0.04708 0.0
H318 H 0.24996 0.54312 0.05303 0.0
O319 O 0.13019 0.50153 0.97924 0.0
H320 H 0.30439 0.51416 0.92263 0.0
H321 H 0.23194 0.60923 0.0952 0.0
Cu322 Cu 0.7439 0.65998 0.33047 0.0
N323 N 0.73802 0.61552 0.36558 0.0
N324 N 0.70842 0.5655 0.4004 0.0
C325 C 0.70276 0.59905 0.37781 0.0
C326 C 0.74884 0.56075 0.40275 0.0
C327 C 0.767 0.5917 0.38132 0.0
O328 O 0.69827 0.6573 0.29299 0.0
C329 C 0.74703 0.71289 0.39938 0.0
O330 O 0.73013 0.68282 0.41899 0.0
H331 H 0.67347 0.61048 0.369 0.0
H332 H 0.79905 0.59587 0.37655 0.0
N333 N 0.79043 0.65451 0.29853 0.0
N334 N 0.84559 0.67012 0.26249 0.0
C335 C 0.81497 0.68444 0.28547 0.0
C336 C 0.80576 0.62028 0.28288 0.0
C337 C 0.83986 0.62976 0.26082 0.0
C338 C 0.66116 0.66392 0.3008 0.0
O339 O 0.65113 0.6803 0.33554 0.0
H340 H 0.81085 0.71593 0.29333 0.0
H341 H 0.79312 0.59049 0.28738 0.0
O342 O 0.75153 0.71027 0.36117 0.0
H343 H 0.76415 0.53607 0.41778 0.0
H344 H 0.85922 0.60851 0.24521 0.0
Cu345 Cu 0.90997 0.09655 1.00994 0.0
N346 N 0.86552 0.10243 0.97483 0.0
N347 N 0.81549 0.13204 0.94 0.0
C348 C 0.84904 0.13769 0.9626 0.0
C349 C 0.81075 0.09161 0.93765 0.0
C350 C 0.8417 0.07345 0.95909 0.0
O351 O 0.90729 0.14218 0.04741 0.0
C352 C 0.96288 0.09342 0.94103 0.0
O353 O 0.93281 0.11031 0.92141 0.0
H354 H 0.86047 0.16699 0.9714 0.0
H355 H 0.84586 1.0414 0.96386 0.0
N356 N 0.90451 0.05002 1.04187 0.0
N357 N 0.92012 0.99486 0.07791 0.0
C358 C 0.93444 1.02548 0.05493 0.0
C359 C 0.87028 1.03468 0.05752 0.0
C360 C 0.87976 1.00058 0.07958 0.0
C361 C 0.91391 0.17929 1.03961 0.0
O362 O 0.93029 0.18932 1.00487 0.0
H363 H 0.96592 1.0296 0.04708 0.0
H364 H 0.84048 0.04733 0.05302 0.0
O365 O 0.96026 0.08892 0.97924 0.0
H366 H 0.78606 0.0763 0.92262 0.0
H367 H 0.85851 0.98122 0.09519 0.0
Cu368 Cu 0.25996 0.34657 0.15998 0.0
N369 N 0.22487 0.35245 0.11551 0.0
N370 N 0.19008 0.38205 0.06546 0.0
C371 C 0.21268 0.38771 0.09901 0.0
C372 C 0.18768 0.34163 0.06076 0.0
C373 C 0.2091 0.32347 0.09172 0.0
O374 O 0.29745 0.39219 0.15732 0.0
C375 C 0.19104 0.34342 0.21286 0.0
O376 O 0.17142 0.36028 0.18278 0.0
H377 H 0.2215 0.417 0.11043 0.0
H378 H 0.21383 0.29142 0.09591 0.0
N379 N 0.2919 0.30003 0.15451 0.0
N380 N 0.32794 0.24487 0.17011 0.0
C381 C 0.30496 0.27549 0.18444 0.0
C382 C 0.30755 0.2847 0.12028 0.0
C383 C 0.32961 0.2506 0.12976 0.0
C384 C 0.28963 0.4293 0.16392 0.0
O385 O 0.25487 0.43933 0.18027 0.0
H386 H 0.29711 0.27961 0.21593 0.0
H387 H 0.30305 0.29735 0.09049 0.0
O388 O 0.22925 0.33894 0.21026 0.0
H389 H 0.17262 0.32631 1.03609 0.0
H390 H 0.34522 0.23124 0.10851 0.0
Cu391 Cu 0.25995 0.7439 0.43044 0.0
N392 N 0.22484 0.73802 0.47489 0.0
N393 N 0.19002 0.70842 0.52492 0.0
C394 C 0.21262 0.70276 0.49138 0.0
C395 C 0.18766 0.74884 0.52966 0.0
C396 C 0.2091 0.767 0.49871 0.0
O397 O 0.29743 0.69828 0.43312 0.0
C398 C 0.19104 0.74703 0.37754 0.0
O399 O 0.17141 0.73017 0.40762 0.0
H400 H 0.22143 0.67347 0.47994 0.0
H401 H 0.21386 0.79905 0.49455 0.0
N402 N 0.29188 0.79044 0.43591 0.0
N403 N 0.32793 0.84559 0.4203 0.0
C404 C 0.30494 0.81497 0.40598 0.0
C405 C 0.30753 0.80577 0.47013 0.0
C406 C 0.32959 0.83987 0.46066 0.0
C407 C 0.28963 0.66117 0.42651 0.0
O408 O 0.25489 0.65113 0.41013 0.0
H409 H 0.29709 0.81086 0.37449 0.0
H410 H 0.30302 0.79312 0.49993 0.0
O411 O 0.22925 0.75152 0.38015 0.0
H412 H 0.17263 0.76415 0.55435 0.0
H413 H 0.3452 0.85923 0.48191 0.0
Cu414 Cu 0.9939 0.5805 0.90997 0.0
N415 N 0.98802 0.6156 0.86551 0.0
N416 N 0.95842 0.65043 0.81549 0.0
C417 C 0.95276 0.62783 0.84903 0.0
C418 C 0.99884 0.65278 0.81075 0.0
C419 C 1.017 0.63135 0.84169 0.0
O420 O 0.94827 0.54301 0.90728 0.0
C421 C 0.99703 0.64941 0.96287 0.0
O422 O 0.98016 0.66903 0.93279 0.0
H423 H 0.92347 0.61902 0.86047 0.0
H424 H 0.04905 0.62658 0.84586 0.0
N425 N 1.04044 0.54856 0.9045 0.0
N426 N 0.09559 0.51252 0.92011 0.0
C427 C 0.06497 0.5355 0.93443 0.0
C428 C 0.05577 0.53291 0.87028 0.0
C429 C 0.08987 0.51085 0.87975 0.0
C430 C 0.91117 0.55082 0.9139 0.0
O431 O 0.90113 0.58556 0.93028 0.0
H432 H 0.06085 0.54335 0.96592 0.0
H433 H 1.04312 0.53741 0.84048 0.0
O434 O 1.00151 0.6112 0.96026 0.0
H435 H 1.01415 0.66781 0.78606 0.0
H436 H 0.10923 0.49524 0.8585 0.0
Cu437 Cu 0.83049 0.84656 0.43044 0.0
N438 N 0.86559 0.85243 0.4749 0.0
N439 N 0.90042 0.88204 0.52493 0.0
C440 C 0.87782 0.88769 0.49138 0.0
C441 C 0.90277 0.84162 0.52967 0.0
C442 C 0.88134 0.82346 0.49871 0.0
O443 O 0.79301 0.89219 0.43312 0.0
C444 C 0.89941 0.84342 0.37755 0.0
O445 O 0.91903 0.86028 0.40763 0.0
H446 H 0.86901 0.91699 0.47995 0.0
H447 H 0.87658 0.79141 0.49454 0.0
N448 N 0.79856 0.80002 0.4359 0.0
N449 N 0.76251 0.74487 0.4203 0.0
C450 C 0.7855 0.77549 0.40598 0.0
C451 C 0.7829 0.78469 0.47013 0.0
C452 C 0.76084 0.75059 0.46065 0.0
C453 C 0.80082 0.92929 0.4265 0.0
O454 O 0.83556 0.93932 0.41013 0.0
H455 H 0.79335 0.7796 0.37449 0.0
H456 H 0.78741 0.79734 0.49992 0.0
O457 O 0.8612 0.83894 0.38015 0.0
H458 H 0.9178 0.8263 0.55435 0.0
H459 H 0.74523 0.73123 0.48191 0.0
Cu460 Cu 0.59656 0.50997 0.40997 0.0
N461 N 0.60244 0.47488 0.36552 0.0
N462 N 0.63204 0.44008 0.31547 0.0
C463 C 0.6377 0.46268 0.34901 0.0
C464 C 0.59162 0.43767 0.31076 0.0
C465 C 0.57346 0.4591 0.34172 0.0
O466 O 0.64219 0.54745 0.40732 0.0
C467 C 0.59342 0.44106 0.46287 0.0
O468 O 0.61031 0.42144 0.4328 0.0
H469 H 0.66699 0.47151 0.36043 0.0
H470 H 0.54141 0.46382 0.34592 0.0
N471 N 0.55003 0.54192 0.40451 0.0
N472 N 0.49488 0.57798 0.42011 0.0
C473 C 0.5255 0.555 0.43444 0.0
C474 C 0.53468 0.55754 0.37028 0.0
C475 C 0.50058 0.57961 0.37975 0.0
C476 C 0.6793 0.53963 0.41392 0.0
O477 O 0.68933 0.50488 0.43027 0.0
H478 H 0.52963 0.54716 0.46593 0.0
H479 H 0.54731 0.55301 0.34048 0.0
O480 O 0.58892 0.47926 0.46026 0.0
H481 H 0.5763 0.42261 0.2861 0.0
H482 H 0.48121 0.59519 0.3585 0.0
Cu483 Cu 0.33049 0.74391 0.65996 0.0
N484 N 0.3656 0.73803 0.61551 0.0
N485 N 0.40043 0.70843 0.56549 0.0
C486 C 0.37783 0.70277 0.59903 0.0
C487 C 0.40278 0.74885 0.56075 0.0
C488 C 0.38135 0.76701 0.5917 0.0
O489 O 0.29301 0.69827 0.65728 0.0
C490 C 0.3994 0.74702 0.71288 0.0
O491 O 0.41901 0.73013 0.68281 0.0
H492 H 0.36902 0.67347 0.61046 0.0
H493 H 0.37659 0.79906 0.59587 0.0
N494 N 0.29855 0.79044 0.6545 0.0
N495 N 0.26249 0.84558 0.67011 0.0
C496 C 0.28547 0.81496 0.68443 0.0
C497 C 0.28292 0.80578 0.62027 0.0
C498 C 0.26086 0.83988 0.62975 0.0
C499 C 0.30082 0.66117 0.6639 0.0
O500 O 0.33556 0.65114 0.68028 0.0
H501 H 0.29332 0.81084 0.71592 0.0
H502 H 0.28745 0.79315 0.59047 0.0
O503 O 0.36119 0.75153 0.71025 0.0
H504 H 0.41781 0.76416 0.53606 0.0
H505 H 0.24527 0.85925 0.60849 0.0
Cu506 Cu 0.9939 0.50995 0.68045 0.0
N507 N 0.98803 0.47485 0.7249 0.0
N508 N 0.95843 0.44002 0.77492 0.0
C509 C 0.95277 0.46262 0.74138 0.0
C510 C 0.99885 0.43766 0.77966 0.0
C511 C 1.01701 0.4591 0.74871 0.0
O512 O 0.94827 0.54743 0.68313 0.0
C513 C 0.99702 0.44105 0.62753 0.0
O514 O 0.98013 0.42143 0.6576 0.0
H515 H 0.92348 0.47143 0.72995 0.0
H516 H 0.04906 0.46386 0.74455 0.0
N517 N 1.04044 0.54189 0.68591 0.0
N518 N 0.09558 0.57796 0.6703 0.0
C519 C 0.06496 0.55498 0.65598 0.0
C520 C 0.05579 0.55752 0.72014 0.0
C521 C 0.08988 0.57959 0.71066 0.0
C522 C 0.91117 0.53963 0.67651 0.0
O523 O 0.90114 0.50489 0.66013 0.0
H524 H 0.06083 0.54714 0.62449 0.0
H525 H 1.04316 0.55299 0.74994 0.0
O526 O 1.00153 0.47926 0.63016 0.0
H527 H 1.01416 0.42263 0.80435 0.0
H528 H 0.10926 0.59517 0.73192 0.0
Cu529 Cu 0.09655 0.0805 0.68044 0.0
N530 N 0.10243 0.1156 0.72489 0.0
N531 N 0.13203 0.15043 0.77492 0.0
C532 C 0.13768 0.12783 0.74138 0.0
C533 C 0.09161 0.15278 0.77966 0.0
C534 C 0.07345 0.13135 0.74871 0.0
O535 O 0.14219 1.04302 0.68311 0.0
C536 C 0.09343 0.1494 0.62753 0.0
O537 O 0.11031 0.16902 0.6576 0.0
H538 H 0.16698 0.11902 0.72995 0.0
H539 H 1.0414 0.12659 0.74454 0.0
N540 N 0.05002 0.04855 0.6859 0.0
N541 N 0.99488 1.01249 0.6703 0.0
C542 C 1.0255 1.03547 0.65598 0.0
C543 C 1.03468 1.03292 0.72014 0.0
C544 C 1.00058 1.01085 0.71066 0.0
C545 C 0.17929 0.05083 0.6765 0.0
O546 O 0.18932 0.08557 0.66012 0.0
H547 H 1.02962 1.04332 0.62449 0.0
H548 H 0.04731 1.03745 0.74993 0.0
O549 O 0.08892 0.1112 0.63015 0.0
H550 H 0.07629 0.16781 0.80434 0.0
H551 H 0.98121 0.99527 0.73191 0.0
Cu552 Cu 0.65999 0.75996 0.84655 0.0
N553 N 0.61553 0.72487 0.85243 0.0
N554 N 0.56548 0.69008 0.88204 0.0
C555 C 0.59903 0.71268 0.88769 0.0
C556 C 0.56078 0.68766 0.84162 0.0
C557 C 0.59173 0.70909 0.82346 0.0
O558 O 0.65734 0.79744 0.89218 0.0
C559 C 0.71289 0.69105 0.84341 0.0
O560 O 0.68282 0.67143 0.8603 0.0
H561 H 0.61044 0.7215 0.91699 0.0
H562 H 0.59593 0.71381 0.7914 0.0
N563 N 0.65452 0.7919 0.80001 0.0
N564 N 0.67013 0.82796 0.74487 0.0
C565 C 0.68445 0.80498 0.77549 0.0
C566 C 0.62029 0.80753 0.78467 0.0
C567 C 0.62976 0.82959 0.75057 0.0
C568 C 0.66395 0.78963 0.92928 0.0
O569 O 0.68029 0.75487 0.93931 0.0
H570 H 0.71594 0.79714 0.77961 0.0
H571 H 0.59049 0.803 0.7973 0.0
O572 O 0.71027 0.72925 0.83891 0.0
H573 H 0.53611 0.6726 0.8263 0.0
H574 H 0.60851 0.84517 0.7312 0.0
Cu575 Cu 1.00997 0.18046 0.49386 0.0
N576 N 0.97487 0.22492 0.48798 0.0
N577 N 0.94008 0.27497 0.45837 0.0
C578 C 0.96267 0.24142 0.45272 0.0
C579 C 0.93767 0.27968 0.49879 0.0
C580 C 0.95909 0.24872 0.51695 0.0
O581 O 0.04745 0.18311 0.44823 0.0
C582 C 0.94105 0.12756 0.497 0.0
O583 O 0.92143 0.15763 0.48012 0.0
H584 H 0.9715 0.23 0.42342 0.0
H585 H 0.96382 0.24452 0.549 0.0
N586 N 1.0419 0.18593 0.54039 0.0
N587 N 0.07794 0.17033 0.59555 0.0
C588 C 0.05496 0.156 0.56493 0.0
C589 C 0.05755 0.22016 0.55572 0.0
C590 C 0.07961 0.21068 0.58982 0.0
C591 C 1.03963 0.1765 0.41113 0.0
O592 O 1.00487 0.16016 0.4011 0.0
H593 H 0.04711 0.12451 0.56082 0.0
H594 H 0.05305 0.24995 0.54307 0.0
O595 O 0.97926 0.13018 0.5015 0.0
H596 H 0.92261 0.30434 0.51411 0.0
H597 H 0.09522 0.23194 0.60918 0.0
Cu598 Cu 0.43046 0.83048 0.84655 0.0
N599 N 0.47492 0.86557 0.85243 0.0
N600 N 0.52497 0.90037 0.88203 0.0
C601 C 0.49142 0.87777 0.88769 0.0
C602 C 0.52968 0.90277 0.84161 0.0
C603 C 0.49872 0.88135 0.82345 0.0
O604 O 0.43311 0.793 0.89218 0.0
C605 C 0.37757 0.89941 0.8434 0.0
O606 O 0.40764 0.91902 0.86028 0.0
H607 H 0.48 0.86895 0.91698 0.0
H608 H 0.49453 0.87662 0.7914 0.0
N609 N 0.43592 0.79854 0.80001 0.0
N610 N 0.42032 0.76251 0.74486 0.0
C611 C 0.406 0.78549 0.77548 0.0
C612 C 0.47015 0.78289 0.78469 0.0
C613 C 0.46068 0.76083 0.75058 0.0
C614 C 0.4265 0.80082 0.92928 0.0
O615 O 0.41016 0.83558 0.93931 0.0
H616 H 0.37451 0.79334 0.77959 0.0
H617 H 0.49995 0.78739 0.79734 0.0
O618 O 0.38018 0.8612 0.83891 0.0
H619 H 0.55434 0.91783 0.8263 0.0
H620 H 0.48193 0.74522 0.73123 0.0
Cu621 Cu 0.08048 0.40999 0.49386 0.0
N622 N 0.11557 0.36553 0.48797 0.0
N623 N 0.15037 0.31548 0.45837 0.0
C624 C 0.12777 0.34903 0.45272 0.0
C625 C 0.15277 0.31078 0.49879 0.0
C626 C 0.13135 0.34174 0.51695 0.0
O627 O 1.043 0.40734 0.44823 0.0
C628 C 0.1494 0.46289 0.497 0.0
O629 O 0.16901 0.43282 0.48012 0.0
H630 H 0.11895 0.36045 0.42342 0.0
H631 H 0.12662 0.34593 0.549 0.0
N632 N 0.04854 0.40453 0.54039 0.0
N633 N 1.0125 0.42013 0.59555 0.0
C634 C 1.03548 0.43445 0.56493 0.0
C635 C 1.03289 0.3703 0.55572 0.0
C636 C 1.01083 0.37977 0.58982 0.0
C637 C 0.05081 0.41395 0.41113 0.0
O638 O 0.08557 0.4303 0.4011 0.0
H639 H 1.04334 0.46594 0.56082 0.0
H640 H 1.03739 0.3405 0.54307 0.0
O641 O 0.11119 0.46028 0.5015 0.0
H642 H 0.16784 0.28611 0.51411 0.0
H643 H 0.99523 0.35852 0.60918 0.0
Cu644 Cu 0.65998 0.3305 0.74387 0.0
N645 N 0.61553 0.36561 0.738 0.0
N646 N 0.56551 0.40044 0.70839 0.0
C647 C 0.59905 0.37783 0.70274 0.0
C648 C 0.56077 0.4028 0.74881 0.0
C649 C 0.59172 0.38136 0.76697 0.0
O650 O 0.65731 0.29302 0.69824 0.0
C651 C 0.7129 0.3994 0.74699 0.0
O652 O 0.68283 0.41902 0.7301 0.0
H653 H 0.61048 0.36902 0.67344 0.0
H654 H 0.59589 0.3766 0.79902 0.0
N655 N 0.65452 0.29856 0.79041 0.0
N656 N 0.67012 0.2625 0.84555 0.0
C657 C 0.68444 0.28548 0.81493 0.0
C658 C 0.62028 0.28293 0.80575 0.0
C659 C 0.62976 0.26087 0.83985 0.0
C660 C 0.66393 0.30082 0.66114 0.0
O661 O 0.68031 0.33556 0.65111 0.0
H662 H 0.71594 0.29331 0.8108 0.0
H663 H 0.59048 0.28747 0.79312 0.0
O664 O 0.71027 0.36119 0.7515 0.0
H665 H 0.53609 0.41783 0.76413 0.0
H666 H 0.6085 0.24529 0.85923 0.0
Cu667 Cu 0.58049 0.18047 0.59653 0.0
N668 N 0.61559 0.22493 0.60242 0.0
N669 N 0.65038 0.27497 0.63202 0.0
C670 C 0.62778 0.24143 0.63768 0.0
C671 C 0.65279 0.27968 0.5916 0.0
C672 C 0.63137 0.24872 0.57344 0.0
O673 O 0.54301 0.18314 0.64216 0.0
C674 C 0.6494 0.12757 0.59341 0.0
O675 O 0.66901 0.15764 0.61029 0.0
H676 H 0.61895 0.23001 0.66697 0.0
H677 H 0.62665 0.24453 0.54139 0.0
N678 N 0.54855 0.18594 0.55 0.0
N679 N 0.51249 0.17033 0.49486 0.0
C680 C 0.53547 0.15601 0.52548 0.0
C681 C 0.53293 0.22017 0.53465 0.0
C682 C 0.51087 0.21069 0.50055 0.0
C683 C 0.55081 0.17652 0.67926 0.0
O684 O 0.58556 0.16014 0.68929 0.0
H685 H 0.5433 0.12451 0.52961 0.0
H686 H 0.53747 0.24997 0.54728 0.0
O687 O 0.61119 0.13018 0.5889 0.0
H688 H 0.66786 0.30434 0.57629 0.0
H689 H 0.49529 0.23195 0.48117 0.0
Cu690 Cu 0.43047 0.25996 0.74388 0.0
N691 N 0.47492 0.22486 0.73799 0.0
N692 N 0.52496 0.19006 0.70838 0.0
C693 C 0.49142 0.21266 0.70273 0.0
C694 C 0.52967 0.18765 0.7488 0.0
C695 C 0.49872 0.20907 0.76697 0.0
O696 O 0.43314 0.29745 0.69825 0.0
C697 C 0.37755 0.19105 0.74699 0.0
O698 O 0.40762 0.17144 0.7301 0.0
H699 H 0.48 0.22149 0.67344 0.0
H700 H 0.49452 0.2138 0.79902 0.0
N701 N 0.43594 0.2919 0.79041 0.0
N702 N 0.42033 0.32795 0.84555 0.0
C703 C 0.40601 0.30498 0.81493 0.0
C704 C 0.47017 0.30751 0.80577 0.0
C705 C 0.4607 0.32957 0.83986 0.0
C706 C 0.42652 0.28964 0.66115 0.0
O707 O 0.41014 0.2549 0.65112 0.0
H708 H 0.37451 0.29715 0.8108 0.0
H709 H 0.49997 0.30297 0.79314 0.0
O710 O 0.38018 0.22926 0.7515 0.0
H711 H 0.55433 0.17258 0.76412 0.0
H712 H 0.48195 0.34514 0.85924 0.0
Cu713 Cu 0.50997 0.41 0.59654 0.0
N714 N 0.47487 0.36554 0.60243 0.0
N715 N 0.44007 0.31549 0.63203 0.0
C716 C 0.46267 0.34904 0.63769 0.0
C717 C 0.43766 0.31079 0.59161 0.0
C718 C 0.45909 0.34174 0.57345 0.0
O719 O 0.54745 0.40734 0.64217 0.0
C720 C 0.44105 0.4629 0.59341 0.0
O721 O 0.42144 0.43283 0.61029 0.0
H722 H 0.4715 0.36046 0.66698 0.0
H723 H 0.46381 0.34594 0.5414 0.0
N724 N 0.5419 0.40453 0.55001 0.0
N725 N 0.57794 0.42013 0.49485 0.0
C726 C 0.55496 0.43446 0.52547 0.0
C727 C 0.55755 0.3703 0.53467 0.0
C728 C 0.5796 0.37977 0.50057 0.0
C729 C 0.53964 0.41395 0.67927 0.0
O730 O 0.50489 0.4303 0.6893 0.0
H731 H 0.54712 0.46595 0.52959 0.0
H732 H 0.55304 0.3405 0.54732 0.0
O733 O 0.47926 0.46028 0.58891 0.0
H734 H 0.4226 0.28613 0.5763 0.0
H735 H 0.5952 0.35852 0.48121 0.0
Cu736 Cu 0.84656 0.65998 0.75995 0.0
N737 N 0.85245 0.61552 0.72486 0.0
N738 N 0.88205 0.56548 0.69006 0.0
C739 C 0.88771 0.59902 0.71266 0.0
C740 C 0.84163 0.56077 0.68766 0.0
C741 C 0.82347 0.59173 0.70908 0.0
O742 O 0.89219 0.65733 0.79743 0.0
C743 C 0.84342 0.71288 0.69104 0.0
O744 O 0.8603 0.68281 0.67142 0.0
H745 H 0.917 0.61044 0.72148 0.0
H746 H 0.79142 0.59592 0.71381 0.0
N747 N 0.80003 0.65452 0.79189 0.0
N748 N 0.74487 0.67012 0.82793 0.0
C749 C 0.77549 0.68444 0.80495 0.0
C750 C 0.78469 0.62029 0.80754 0.0
C751 C 0.75059 0.62976 0.82959 0.0
C752 C 0.9293 0.66394 0.78962 0.0
O753 O 0.93933 0.68028 0.75486 0.0
H754 H 0.77961 0.71593 0.7971 0.0
H755 H 0.79734 0.59049 0.80303 0.0
O756 O 0.83892 0.71027 0.72925 0.0
H757 H 0.82631 0.53611 0.6726 0.0
H758 H 0.73123 0.60851 0.84519 0.0
Cu759 Cu 0.90998 0.99389 0.58047 0.0
N760 N 0.86553 0.98801 0.61557 0.0
N761 N 0.8155 0.95841 0.6504 0.0
C762 C 0.84905 0.95275 0.6278 0.0
C763 C 0.81076 0.99883 0.65275 0.0
C764 C 0.84171 1.01699 0.63131 0.0
O765 O 0.90732 0.94826 0.54299 0.0
C766 C 0.96289 0.99703 0.64938 0.0
O767 O 0.93281 0.98016 0.669 0.0
H768 H 0.86048 0.92345 0.61899 0.0
H769 H 0.84588 0.04904 0.62655 0.0
N770 N 0.90452 1.04043 0.54853 0.0
N771 N 0.92012 0.09558 0.51249 0.0
C772 C 0.93445 0.06496 0.53547 0.0
C773 C 0.87029 0.05576 0.53288 0.0
C774 C 0.87977 0.08986 0.51083 0.0
C775 C 0.91393 0.91115 0.5508 0.0
O776 O 0.93028 0.90112 0.58555 0.0
H777 H 0.96594 0.06084 0.54332 0.0
H778 H 0.8405 1.04311 0.53739 0.0
O779 O 0.96027 1.00152 0.61117 0.0
H780 H 0.78608 1.01415 0.66778 0.0
H781 H 0.85851 0.10922 0.49522 0.0
Cu782 Cu 0.2439 0.93048 0.75994 0.0
N783 N 0.23802 0.97493 0.72484 0.0
N784 N 0.20841 1.02498 0.69005 0.0
C785 C 0.20276 0.99143 0.71264 0.0
C786 C 0.24883 1.02969 0.68764 0.0
C787 C 0.26699 0.99874 0.70907 0.0
O788 O 0.19827 0.93315 0.79742 0.0
C789 C 0.24703 0.87758 0.69103 0.0
O790 O 0.23016 0.90766 0.67141 0.0
H791 H 0.17346 0.98001 0.72146 0.0
H792 H 0.29905 0.99455 0.7138 0.0
N793 N 0.29044 0.93594 0.79187 0.0
N794 N 0.34559 0.92033 0.82791 0.0
C795 C 0.31497 0.90601 0.80494 0.0
C796 C 0.30578 0.97017 0.80751 0.0
C797 C 0.33988 0.96069 0.82957 0.0
C798 C 0.16117 0.92653 0.78962 0.0
O799 O 0.15114 0.91016 0.75488 0.0
H800 H 0.31084 0.87452 0.79709 0.0
H801 H 0.29313 0.99997 0.803 0.0
O802 O 0.25152 0.88019 0.72923 0.0
H803 H 0.26415 0.05436 0.67258 0.0
H804 H 0.35924 0.98195 0.84517 0.0
Cu805 Cu 0.18046 0.59656 0.58046 0.0
N806 N 0.22492 0.60245 0.61555 0.0
N807 N 0.27497 0.63205 0.65035 0.0
C808 C 0.24142 0.63771 0.62775 0.0
C809 C 0.27968 0.59163 0.65275 0.0
C810 C 0.24872 0.57347 0.63133 0.0
O811 O 0.18311 0.64219 0.54298 0.0
C812 C 0.12757 0.59342 0.64938 0.0
O813 O 0.15765 0.61029 0.669 0.0
H814 H 0.23 0.667 0.61893 0.0
H815 H 0.24453 0.54142 0.6266 0.0
N816 N 0.18593 0.55003 0.54853 0.0
N817 N 0.17032 0.49487 0.51249 0.0
C818 C 0.156 0.52549 0.53546 0.0
C819 C 0.22016 0.53469 0.53288 0.0
C820 C 0.21068 0.50059 0.51083 0.0
C821 C 0.17651 0.6793 0.55079 0.0
O822 O 0.16016 0.68933 0.58555 0.0
H823 H 0.12451 0.52961 0.54331 0.0
H824 H 0.24995 0.54734 0.53739 0.0
O825 O 0.13018 0.58894 0.61117 0.0
H826 H 0.30434 0.57631 0.66781 0.0
H827 H 0.23193 0.48122 0.49523 0.0
Cu828 Cu 0.84657 0.43046 0.83045 0.0
N829 N 0.85245 0.47492 0.86555 0.0
N830 N 0.88205 0.52496 0.90035 0.0
C831 C 0.88771 0.49142 0.87775 0.0
C832 C 0.84163 0.52967 0.90275 0.0
C833 C 0.82347 0.49871 0.88132 0.0
O834 O 0.8922 0.43311 0.79297 0.0
C835 C 0.84343 0.37756 0.89937 0.0
O836 O 0.86032 0.40763 0.91898 0.0
H837 H 0.91701 0.48 0.86893 0.0
H838 H 0.79142 0.49452 0.87659 0.0
N839 N 0.80004 0.43592 0.79851 0.0
N840 N 0.74488 0.42032 0.76248 0.0
C841 C 0.7755 0.406 0.78546 0.0
C842 C 0.78471 0.47016 0.78286 0.0
C843 C 0.75061 0.46068 0.7608 0.0
C844 C 0.92931 0.4265 0.80079 0.0
O845 O 0.93934 0.41016 0.83554 0.0
H846 H 0.77961 0.37451 0.79331 0.0
H847 H 0.79736 0.49995 0.78736 0.0
O848 O 0.83893 0.38017 0.86116 0.0
H849 H 0.82631 0.55433 0.91781 0.0
H850 H 0.73125 0.48193 0.7452 0.0
Cu851 Cu 0.68047 0.99389 0.50995 0.0
N852 N 0.72492 0.98801 0.47485 0.0
N853 N 0.77497 0.95841 0.44005 0.0
C854 C 0.74142 0.95276 0.46265 0.0
C855 C 0.77968 0.99883 0.43765 0.0
C856 C 0.74872 1.01699 0.45907 0.0
O857 O 0.68314 0.94827 0.54743 0.0
C858 C 0.62756 0.99702 0.44104 0.0
O859 O 0.65763 0.98013 0.42143 0.0
H860 H 0.73 0.92346 0.47147 0.0
H861 H 0.74453 0.04905 0.4638 0.0
N862 N 0.68593 1.04043 0.54188 0.0
N863 N 0.67033 0.09559 0.57792 0.0
C864 C 0.656 0.06496 0.55494 0.0
C865 C 0.72016 0.05576 0.55753 0.0
C866 C 0.71068 0.08987 0.57959 0.0
C867 C 0.67652 0.91116 0.53962 0.0
O868 O 0.66015 0.90113 0.50488 0.0
H869 H 0.62451 0.06085 0.54709 0.0
H870 H 0.74995 1.04312 0.55302 0.0
O871 O 0.63018 1.00152 0.47925 0.0
H872 H 0.80434 1.01415 0.42259 0.0
H873 H 0.73194 0.10923 0.59519 0.0
Cu874 Cu 0.24388 0.15999 0.83046 0.0
N875 N 0.23801 0.11554 0.86556 0.0
N876 N 0.20841 0.06551 0.90039 0.0
C877 C 0.20275 0.09905 0.87779 0.0
C878 C 0.24883 0.06077 0.90274 0.0
C879 C 0.26699 0.09172 0.8813 0.0
O880 O 0.19825 0.15733 0.79298 0.0
C881 C 0.24701 0.2129 0.89937 0.0
O882 O 0.23012 0.18283 0.91898 0.0
H883 H 0.17345 0.11049 0.86899 0.0
H884 H 0.29904 0.09589 0.87653 0.0
N885 N 0.29042 0.15453 0.79852 0.0
N886 N 0.34557 0.17013 0.76248 0.0
C887 C 0.31495 0.18445 0.78546 0.0
C888 C 0.30574 0.1203 0.78286 0.0
C889 C 0.33984 0.12978 0.7608 0.0
C890 C 0.16115 0.16394 0.80079 0.0
O891 O 0.15111 0.18029 0.83554 0.0
H892 H 0.31084 0.21594 0.79332 0.0
H893 H 0.29309 0.09051 0.78736 0.0
O894 O 0.25152 0.21028 0.86116 0.0
H895 H 0.26415 1.03609 0.91777 0.0
H896 H 0.3592 0.10852 0.74519 0.0
Cu897 Cu 0.40999 0.59657 0.50995 0.0
N898 N 0.36553 0.60245 0.47485 0.0
N899 N 0.31548 0.63205 0.44006 0.0
C900 C 0.34903 0.63771 0.46265 0.0
C901 C 0.31078 0.59163 0.43765 0.0
C902 C 0.34174 0.57347 0.45908 0.0
O903 O 0.40733 0.6422 0.54743 0.0
C904 C 0.46289 0.59344 0.44103 0.0
O905 O 0.4328 0.6103 0.42141 0.0
H906 H 0.36044 0.66701 0.47148 0.0
H907 H 0.34593 0.54142 0.4638 0.0
N908 N 0.40453 0.55004 0.54188 0.0
N909 N 0.42013 0.49488 0.57792 0.0
C910 C 0.43445 0.5255 0.55494 0.0
C911 C 0.37029 0.5347 0.55753 0.0
C912 C 0.37977 0.5006 0.57958 0.0
C913 C 0.41394 0.67931 0.53962 0.0
O914 O 0.43029 0.68934 0.50486 0.0
H915 H 0.46594 0.52962 0.5471 0.0
H916 H 0.3405 0.54735 0.55302 0.0
O917 O 0.46028 0.58895 0.47924 0.0
H918 H 0.28612 0.57631 0.42259 0.0
H919 H 0.35852 0.48124 0.59519 0.0
Cu920 Cu 0.75996 0.84656 0.65998 0.0
N921 N 0.72486 0.85244 0.61552 0.0
N922 N 0.69007 0.88204 0.56547 0.0
C923 C 0.71266 0.8877 0.59902 0.0
C924 C 0.68766 0.84162 0.56077 0.0
C925 C 0.70909 0.82346 0.59172 0.0
O926 O 0.79745 0.89218 0.65731 0.0
C927 C 0.69104 0.84342 0.71287 0.0
O928 O 0.67142 0.86028 0.68279 0.0
H929 H 0.72149 0.917 0.61044 0.0
H930 H 0.71382 0.79141 0.59592 0.0
N931 N 0.79189 0.80002 0.65451 0.0
N932 N 0.82793 0.74486 0.67012 0.0
C933 C 0.80496 0.77549 0.68444 0.0
C934 C 0.80754 0.78468 0.62028 0.0
C935 C 0.82959 0.75058 0.62976 0.0
C936 C 0.78963 0.92929 0.66392 0.0
O937 O 0.75488 0.93932 0.68027 0.0
H938 H 0.79711 0.7796 0.71593 0.0
H939 H 0.80303 0.79733 0.59049 0.0
O940 O 0.72926 0.83894 0.71026 0.0
H941 H 0.6726 0.8263 0.5361 0.0
H942 H 0.84519 0.73122 0.60851 0.0
Cu943 Cu 0.75996 0.24389 0.93043 0.0
N944 N 0.72487 0.23801 0.97489 0.0
N945 N 0.69008 0.20841 1.02494 0.0
C946 C 0.71267 0.20275 0.9914 0.0
C947 C 0.68767 0.24883 1.02965 0.0
C948 C 0.70909 0.26699 0.99869 0.0
O949 O 0.79744 0.19826 0.93309 0.0
C950 C 0.69104 0.24703 0.87754 0.0
O951 O 0.67142 0.23017 0.90762 0.0
H952 H 0.72149 0.17345 0.97998 0.0
H953 H 0.71382 0.29904 0.99449 0.0
N954 N 0.7919 0.29043 0.9359 0.0
N955 N 0.82794 0.34558 0.92029 0.0
C956 C 0.80496 0.31496 0.90597 0.0
C957 C 0.80755 0.30576 0.97012 0.0
C958 C 0.8296 0.33986 0.96065 0.0
C959 C 0.78963 0.16115 0.92649 0.0
O960 O 0.75487 0.15112 0.91014 0.0
H961 H 0.79712 0.31084 0.87448 0.0
H962 H 0.80304 0.29311 0.99992 0.0
O963 O 0.72925 0.25152 0.88015 0.0
H964 H 0.67261 0.26415 0.05431 0.0
H965 H 0.84521 0.35922 0.9819 0.0
Cu966 Cu 0.49389 0.08048 0.40998 0.0
N967 N 0.48801 0.11558 0.36551 0.0
N968 N 0.45841 0.15037 0.31546 0.0
C969 C 0.45275 0.12778 0.34901 0.0
C970 C 0.49883 0.15277 0.31076 0.0
C971 C 0.51699 0.13135 0.34172 0.0
O972 O 0.44826 1.043 0.40732 0.0
C973 C 0.49703 0.14941 0.46286 0.0
O974 O 0.48017 0.16903 0.43278 0.0
H975 H 0.42345 0.11896 0.36043 0.0
H976 H 0.54904 0.12662 0.34591 0.0
N977 N 0.54042 0.04855 0.40451 0.0
N978 N 0.59558 1.01251 0.42012 0.0
C979 C 0.56496 1.03549 0.43444 0.0
C980 C 0.55575 1.03289 0.37029 0.0
C981 C 0.58985 1.01084 0.37976 0.0
C982 C 0.41115 0.05082 0.41392 0.0
O983 O 0.40112 0.08558 0.43027 0.0
H984 H 0.56084 1.04334 0.46593 0.0
H985 H 0.5431 1.0374 0.34049 0.0
O986 O 0.50151 0.1112 0.46026 0.0
H987 H 0.51415 0.16783 0.28609 0.0
H988 H 0.60922 0.99523 0.35851 0.0
Cu989 Cu 0.33049 0.34657 0.93043 0.0
N990 N 0.36558 0.35245 0.9749 0.0
N991 N 0.40037 0.38204 1.02495 0.0
C992 C 0.37778 0.3877 0.9914 0.0
C993 C 0.40277 0.34162 1.02965 0.0
C994 C 0.38135 0.32346 0.99869 0.0
O995 O 0.29301 0.3922 0.93309 0.0
C996 C 0.39941 0.34342 0.87755 0.0
O997 O 0.41903 0.36027 0.90764 0.0
H998 H 0.36896 0.417 0.97998 0.0
H999 H 0.37662 0.29141 0.9945 0.0
N1000 N 0.29855 0.30003 0.93589 0.0
N1001 N 0.2625 0.24488 0.92029 0.0
C1002 C 0.28549 0.2755 0.90597 0.0
C1003 C 0.28289 0.2847 0.97012 0.0
C1004 C 0.26084 0.2506 0.96064 0.0
C1005 C 0.30082 0.4293 0.92649 0.0
O1006 O 0.33558 0.43933 0.91014 0.0
H1007 H 0.29334 0.27961 0.87448 0.0
H1008 H 0.2874 0.29735 0.99991 0.0
O1009 O 0.3612 0.33894 0.88015 0.0
H1010 H 0.41783 0.3263 0.05432 0.0
H1011 H 0.24523 0.23124 0.9819 0.0
Cu1012 Cu 0.09656 1.00997 0.90998 0.0
N1013 N 0.10245 0.97487 0.86552 0.0
N1014 N 0.13205 0.94008 0.81547 0.0
C1015 C 0.13771 0.96267 0.84902 0.0
C1016 C 0.09163 0.93767 0.81076 0.0
C1017 C 0.07347 0.95909 0.84172 0.0
O1018 O 0.14219 0.04745 0.90731 0.0
C1019 C 0.09342 0.94105 0.96287 0.0
O1020 O 0.11028 0.92143 0.93279 0.0
H1021 H 0.167 0.9715 0.86043 0.0
H1022 H 1.04142 0.96382 0.84592 0.0
N1023 N 0.05002 1.0419 0.90451 0.0
N1024 N 0.99487 0.07794 0.92011 0.0
C1025 C 1.02549 0.05496 0.93444 0.0
C1026 C 1.03469 0.05755 0.87028 0.0
C1027 C 1.00059 0.0796 0.87976 0.0
C1028 C 0.17929 1.03964 0.91391 0.0
O1029 O 0.18933 1.00489 0.93026 0.0
H1030 H 1.0296 0.04711 0.96592 0.0
H1031 H 0.04734 0.05304 0.84049 0.0
O1032 O 0.08894 0.97926 0.96026 0.0
H1033 H 0.07631 0.92261 0.7861 0.0
H1034 H 0.98123 0.09521 0.8585 0.0
Cu1035 Cu 0.83048 0.24389 0.15998 0.0
N1036 N 0.86557 0.23801 0.11551 0.0
N1037 N 0.90036 0.2084 0.06546 0.0
C1038 C 0.87777 0.20275 0.09901 0.0
C1039 C 0.90277 0.24883 0.06076 0.0
C1040 C 0.88135 0.26699 0.09172 0.0
O1041 O 0.793 0.19826 0.15732 0.0
C1042 C 0.8994 0.24703 0.21286 0.0
O1043 O 0.91902 0.23017 0.18278 0.0
H1044 H 0.86895 0.17345 0.11043 0.0
H1045 H 0.87662 0.29904 0.09591 0.0
N1046 N 0.79854 0.29042 0.15451 0.0
N1047 N 0.7625 0.34558 0.17012 0.0
C1048 C 0.78548 0.31496 0.18444 0.0
C1049 C 0.78289 0.30575 0.12028 0.0
C1050 C 0.76083 0.33985 0.12976 0.0
C1051 C 0.80081 0.16115 0.16392 0.0
O1052 O 0.83557 0.15112 0.18027 0.0
H1053 H 0.79333 0.31084 0.21593 0.0
H1054 H 0.7874 0.2931 0.09049 0.0
O1055 O 0.86119 0.25151 0.21026 0.0
H1056 H 0.91783 0.26414 1.0361 0.0
H1057 H 0.74523 0.35921 0.10851 0.0
Cu1058 Cu 0.49388 1.00996 0.18043 0.0
N1059 N 0.488 0.97487 0.22489 0.0
N1060 N 0.4584 0.94008 0.27495 0.0
C1061 C 0.45274 0.96267 0.2414 0.0
C1062 C 0.49882 0.93768 0.27965 0.0
C1063 C 0.51698 0.9591 0.24869 0.0
O1064 O 0.44826 0.04745 0.18309 0.0
C1065 C 0.49703 0.94104 0.12755 0.0
O1066 O 0.48017 0.92142 0.15763 0.0
H1067 H 0.42345 0.9715 0.22998 0.0
H1068 H 0.54903 0.96383 0.2445 0.0
N1069 N 0.54042 1.0419 0.1859 0.0
N1070 N 0.59557 0.07794 0.17029 0.0
C1071 C 0.56495 0.05496 0.15597 0.0
C1072 C 0.55575 0.05755 0.22013 0.0
C1073 C 0.58985 0.07961 0.21065 0.0
C1074 C 0.41115 1.03963 0.17649 0.0
O1075 O 0.40112 1.00488 0.16014 0.0
H1076 H 0.56084 0.04711 0.12448 0.0
H1077 H 0.5431 0.05305 0.24992 0.0
O1078 O 0.50151 0.97925 0.13015 0.0
H1079 H 0.51414 0.92262 0.30432 0.0
H1080 H 0.60921 0.09522 0.2319 0.0
Cu1081 Cu 0.59656 0.58049 0.18044 0.0
N1082 N 0.60245 0.61558 0.2249 0.0
N1083 N 0.63205 0.65037 0.27495 0.0
C1084 C 0.6377 0.62778 0.2414 0.0
C1085 C 0.59163 0.65278 0.27965 0.0
C1086 C 0.57347 0.63136 0.24869 0.0
O1087 O 0.64219 0.54301 0.18309 0.0
C1088 C 0.59342 0.64941 0.12755 0.0
O1089 O 0.61028 0.66903 0.15763 0.0
H1090 H 0.667 0.61896 0.22998 0.0
H1091 H 0.54141 0.62663 0.2445 0.0
N1092 N 0.55003 0.54855 0.1859 0.0
N1093 N 0.49487 0.51251 0.1703 0.0
C1094 C 0.52549 0.53549 0.15597 0.0
C1095 C 0.5347 0.5329 0.22013 0.0
C1096 C 0.50059 0.51084 0.21065 0.0
C1097 C 0.6793 0.55082 0.17649 0.0
O1098 O 0.68933 0.58558 0.16014 0.0
H1099 H 0.52961 0.54334 0.12449 0.0
H1100 H 0.54735 0.53741 0.24992 0.0
O1101 O 0.58893 0.6112 0.13015 0.0
H1102 H 0.57631 0.66784 0.30432 0.0
H1103 H 0.48123 0.49524 0.23191 0.0
loop_
_geom_bond_atom_site_label_1
_geom_bond_atom_site_label_2
_geom_bond_distance
_geom_bond_site_symmetry_2
_ccdc_geom_bond_type
Cu0 N1 1.999 . S
Cu0 O6 1.974 . S
Cu0 N11 1.985 . S
Cu0 O20 1.959 . S
N1 Cu0 1.999 . S
N1 C3 1.263 . S
N1 C5 1.389 . S
N2 C3 1.358 . S
N2 C4 1.400 . S
C3 N1 1.263 . S
C3 N2 1.358 . S
C3 H9 0.930 . S
C4 N2 1.400 . S
C4 C5 1.351 . S
C4 H21 0.930 . S
C5 N1 1.389 . S
C5 C4 1.351 . S
C5 H10 0.930 . S
O6 Cu0 1.974 . S
O6 C16 1.282 . S
C7 O8 1.261 . S
C7 O20 1.251 . S
O8 C7 1.261 . S
H9 C3 0.930 . S
H10 C5 0.930 . S
N11 Cu0 1.985 . S
N11 C13 1.335 . S
N11 C14 1.390 . S
N12 C13 1.345 . S
N12 C15 1.336 . S
C13 N11 1.335 . S
C13 N12 1.345 . S
C13 H18 0.930 . S
C14 N11 1.390 . S
C14 C15 1.346 . S
C14 H19 0.930 . S
C15 N12 1.336 . S
C15 C14 1.346 . S
C15 H22 0.929 . S
C16 O6 1.282 . S
C16 O17 1.216 . S
O17 C16 1.216 . S
H18 C13 0.930 . S
H19 C14 0.930 . S
O20 Cu0 1.959 . S
O20 C7 1.251 . S
H21 C4 0.930 . S
H22 C15 0.929 . S
Cu23 N24 1.999 . S
Cu23 O29 1.974 . S
Cu23 N34 1.985 . S
Cu23 O43 1.959 . S
N24 Cu23 1.999 . S
N24 C26 1.263 . S
N24 C28 1.389 . S
N25 C26 1.358 . S
N25 C27 1.400 . S
C26 N24 1.263 . S
C26 N25 1.358 . S
C26 H32 0.930 . S
C27 N25 1.400 . S
C27 C28 1.351 . S
C27 H44 0.930 . S
C28 N24 1.389 . S
C28 C27 1.351 . S
C28 H33 0.930 . S
O29 Cu23 1.974 . S
O29 C39 1.282 . S
C30 O31 1.261 . S
C30 O43 1.251 . S
O31 C30 1.261 . S
H32 C26 0.930 . S
H33 C28 0.930 . S
N34 Cu23 1.985 . S
N34 C36 1.335 . S
N34 C37 1.390 . S
N35 C36 1.345 . S
N35 C38 1.336 . S
C36 N34 1.335 . S
C36 N35 1.345 . S
C36 H41 0.930 1_556 S
C37 N34 1.390 . S
C37 C38 1.346 . S
C37 H42 0.930 . S
C38 N35 1.336 . S
C38 C37 1.346 . S
C38 H45 0.929 . S
C39 O29 1.282 . S
C39 O40 1.216 . S
O40 C39 1.216 . S
H41 C36 0.930 1_554 S
H42 C37 0.930 . S
O43 Cu23 1.959 . S
O43 C30 1.251 . S
H44 C27 0.930 . S
H45 C38 0.929 . S
Cu46 N47 1.999 . S
Cu46 O52 1.974 . S
Cu46 N57 1.985 . S
Cu46 O66 1.959 . S
N47 Cu46 1.999 . S
N47 C49 1.263 . S
N47 C51 1.389 . S
N48 C49 1.358 . S
N48 C50 1.400 . S
C49 N47 1.263 . S
C49 N48 1.358 . S
C49 H55 0.930 . S
C50 N48 1.400 . S
C50 C51 1.351 . S
C50 H67 0.930 . S
C51 N47 1.389 . S
C51 C50 1.351 . S
C51 H56 0.930 . S
O52 Cu46 1.974 . S
O52 C62 1.282 . S
C53 O54 1.261 . S
C53 O66 1.251 . S
O54 C53 1.261 . S
H55 C49 0.930 . S
H56 C51 0.930 . S
N57 Cu46 1.985 . S
N57 C59 1.335 . S
N57 C60 1.390 . S
N58 C59 1.345 . S
N58 C61 1.336 . S
C59 N57 1.335 . S
C59 N58 1.345 . S
C59 H64 0.930 . S
C60 N57 1.390 . S
C60 C61 1.346 . S
C60 H65 0.930 . S
C61 N58 1.336 . S
C61 C60 1.346 . S
C61 H68 0.929 . S
C62 O52 1.282 . S
C62 O63 1.216 . S
O63 C62 1.216 . S
H64 C59 0.930 . S
H65 C60 0.930 . S
O66 Cu46 1.959 . S
O66 C53 1.251 . S
H67 C50 0.930 . S
H68 C61 0.929 . S
Cu69 N70 1.999 . S
Cu69 O75 1.974 . S
Cu69 N80 1.985 . S
Cu69 O89 1.959 . S
N70 Cu69 1.999 . S
N70 C72 1.263 . S
N70 C74 1.389 . S
N71 C72 1.358 . S
N71 C73 1.400 . S
C72 N70 1.263 . S
C72 N71 1.358 . S
C72 H78 0.930 . S
C73 N71 1.400 . S
C73 C74 1.351 . S
C73 H90 0.930 . S
C74 N70 1.389 . S
C74 C73 1.351 . S
C74 H79 0.930 . S
O75 Cu69 1.974 . S
O75 C85 1.282 . S
C76 O77 1.261 . S
C76 O89 1.251 . S
O77 C76 1.261 . S
H78 C72 0.930 . S
H79 C74 0.930 . S
N80 Cu69 1.985 . S
N80 C82 1.335 . S
N80 C83 1.390 . S
N81 C82 1.352 . S
N81 C84 1.353 . S
C82 N80 1.335 . S
C82 N81 1.352 . S
C82 H87 0.930 1_556 S
C83 N80 1.390 . S
C83 C84 1.346 . S
C83 H88 0.930 . S
C84 N81 1.353 . S
C84 C83 1.346 . S
C84 H91 0.929 . S
C85 O75 1.282 . S
C85 O86 1.216 . S
O86 C85 1.216 . S
H87 C82 0.930 1_554 S
H88 C83 0.930 . S
O89 Cu69 1.959 . S
O89 C76 1.251 . S
H90 C73 0.930 . S
H91 C84 0.929 . S
Cu92 N93 1.999 . S
Cu92 O98 1.974 . S
Cu92 N103 1.985 . S
Cu92 O112 1.959 . S
N93 Cu92 1.999 . S
N93 C95 1.263 . S
N93 C97 1.389 . S
N94 C95 1.358 . S
N94 C96 1.400 . S
C95 N93 1.263 . S
C95 N94 1.358 . S
C95 H101 0.930 . S
C96 N94 1.400 . S
C96 C97 1.351 . S
C96 H113 0.930 . S
C97 N93 1.389 . S
C97 C96 1.351 . S
C97 H102 0.930 . S
O98 Cu92 1.974 . S
O98 C108 1.282 . S
C99 O100 1.261 . S
C99 O112 1.251 . S
O100 C99 1.261 . S
H101 C95 0.930 . S
H102 C97 0.930 . S
N103 Cu92 1.985 . S
N103 C105 1.335 . S
N103 C106 1.390 . S
N104 C105 1.345 . S
N104 C107 1.336 . S
C105 N103 1.335 . S
C105 N104 1.345 . S
C105 H110 0.930 . S
C106 N103 1.390 . S
C106 C107 1.346 . S
C106 H111 0.930 . S
C107 N104 1.336 . S
C107 C106 1.346 . S
C107 H114 0.929 . S
C108 O98 1.282 . S
C108 O109 1.216 . S
O109 C108 1.216 . S
H110 C105 0.930 . S
H111 C106 0.930 . S
O112 Cu92 1.959 . S
O112 C99 1.251 . S
H113 C96 0.930 . S
H114 C107 0.929 . S
Cu115 N116 1.999 . S
Cu115 O121 1.974 1_455 S
Cu115 N126 1.985 1_455 S
Cu115 O135 1.959 . S
N116 Cu115 1.999 . S
N116 C118 1.263 . S
N116 C120 1.389 . S
N117 C118 1.358 . S
N117 C119 1.400 . S
C118 N116 1.263 . S
C118 N117 1.358 . S
C118 H124 0.930 . S
C119 N117 1.400 . S
C119 C120 1.351 . S
C119 H136 0.930 . S
C120 N116 1.389 . S
C120 C119 1.351 . S
C120 H125 0.930 . S
O121 Cu115 1.974 1_655 S
O121 C131 1.282 . S
C122 O123 1.261 . S
C122 O135 1.251 . S
O123 C122 1.261 . S
H124 C118 0.930 . S
H125 C120 0.930 . S
N126 Cu115 1.985 1_655 S
N126 C128 1.335 . S
N126 C129 1.390 . S
N127 C128 1.352 . S
N127 C130 1.354 . S
C128 N126 1.335 . S
C128 N127 1.352 . S
C128 H133 0.930 1_554 S
C129 N126 1.390 . S
C129 C130 1.346 . S
C129 H134 0.930 . S
C130 N127 1.354 . S
C130 C129 1.346 . S
C130 H137 0.929 . S
C131 O121 1.282 . S
C131 O132 1.216 . S
O132 C131 1.216 . S
H133 C128 0.930 1_556 S
H134 C129 0.930 . S
O135 Cu115 1.959 . S
O135 C122 1.251 . S
H136 C119 0.930 . S
H137 C130 0.929 . S
Cu138 N139 1.999 . S
Cu138 O144 1.974 . S
Cu138 N149 1.985 . S
Cu138 O158 1.959 . S
N139 Cu138 1.999 . S
N139 C141 1.263 . S
N139 C143 1.389 . S
N140 C141 1.358 . S
N140 C142 1.400 . S
C141 N139 1.263 . S
C141 N140 1.358 . S
C141 H147 0.930 . S
C142 N140 1.400 . S
C142 C143 1.351 . S
C142 H159 0.930 . S
C143 N139 1.389 . S
C143 C142 1.351 . S
C143 H148 0.930 . S
O144 Cu138 1.974 . S
O144 C154 1.282 . S
C145 O146 1.261 . S
C145 O158 1.251 . S
O146 C145 1.261 . S
H147 C141 0.930 . S
H148 C143 0.930 . S
N149 Cu138 1.985 . S
N149 C151 1.335 . S
N149 C152 1.390 . S
N150 C151 1.345 . S
N150 C153 1.336 . S
C151 N149 1.335 . S
C151 N150 1.345 . S
C151 H156 0.930 . S
C152 N149 1.390 . S
C152 C153 1.346 . S
C152 H157 0.930 . S
C153 N150 1.336 . S
C153 C152 1.346 . S
C153 H160 0.929 . S
C154 O144 1.282 . S
C154 O155 1.216 . S
O155 C154 1.216 . S
H156 C151 0.930 . S
H157 C152 0.930 . S
O158 Cu138 1.959 . S
O158 C145 1.251 . S
H159 C142 0.930 . S
H160 C153 0.929 . S
Cu161 N162 1.999 . S
Cu161 O167 1.974 1_655 S
Cu161 N172 1.985 1_655 S
Cu161 O181 1.959 . S
N162 Cu161 1.999 . S
N162 C164 1.263 . S
N162 C166 1.389 . S
N163 C164 1.358 . S
N163 C165 1.400 . S
C164 N162 1.263 . S
C164 N163 1.358 . S
C164 H170 0.930 . S
C165 N163 1.400 . S
C165 C166 1.351 . S
C165 H182 0.930 . S
C166 N162 1.389 . S
C166 C165 1.351 . S
C166 H171 0.930 . S
O167 Cu161 1.974 1_455 S
O167 C177 1.282 . S
C168 O169 1.261 . S
C168 O181 1.251 . S
O169 C168 1.261 . S
H170 C164 0.930 . S
H171 C166 0.930 . S
N172 Cu161 1.985 1_455 S
N172 C174 1.335 . S
N172 C175 1.390 . S
N173 C174 1.350 . S
N173 C176 1.349 . S
C174 N172 1.335 . S
C174 N173 1.350 . S
C174 H179 0.930 1_554 S
C175 N172 1.390 . S
C175 C176 1.346 . S
C175 H180 0.930 . S
C176 N173 1.349 . S
C176 C175 1.346 . S
C176 H183 0.929 . S
C177 O167 1.282 . S
C177 O178 1.216 . S
O178 C177 1.216 . S
H179 C174 0.930 1_556 S
H180 C175 0.930 . S
O181 Cu161 1.959 . S
O181 C168 1.251 . S
H182 C165 0.930 . S
H183 C176 0.929 . S
Cu184 N185 1.999 . S
Cu184 O190 1.974 . S
Cu184 N195 1.985 . S
Cu184 O204 1.959 . S
N185 Cu184 1.999 . S
N185 C187 1.263 . S
N185 C189 1.389 . S
N186 C187 1.358 . S
N186 C188 1.400 . S
C187 N185 1.263 . S
C187 N186 1.358 . S
C187 H193 0.930 . S
C188 N186 1.400 . S
C188 C189 1.351 . S
C188 H205 0.930 . S
C189 N185 1.389 . S
C189 C188 1.351 . S
C189 H194 0.930 . S
O190 Cu184 1.974 . S
O190 C200 1.282 . S
C191 O192 1.261 . S
C191 O204 1.251 . S
O192 C191 1.261 . S
H193 C187 0.930 . S
H194 C189 0.930 . S
N195 Cu184 1.985 . S
N195 C197 1.335 . S
N195 C198 1.390 . S
N196 C197 1.345 . S
N196 C199 1.336 . S
C197 N195 1.335 . S
C197 N196 1.345 . S
C197 H202 0.930 . S
C198 N195 1.390 . S
C198 C199 1.346 . S
C198 H203 0.930 . S
C199 N196 1.336 . S
C199 C198 1.346 . S
C199 H206 0.929 . S
C200 O190 1.282 . S
C200 O201 1.216 . S
O201 C200 1.216 . S
H202 C197 0.930 . S
H203 C198 0.930 . S
O204 Cu184 1.959 . S
O204 C191 1.251 . S
H205 C188 0.930 . S
H206 C199 0.929 . S
Cu207 N208 1.999 . S
Cu207 O213 1.974 1_554 S
Cu207 N218 1.985 1_554 S
Cu207 O227 1.959 . S
N208 Cu207 1.999 . S
N208 C210 1.263 . S
N208 C212 1.389 . S
N209 C210 1.358 . S
N209 C211 1.400 . S
C210 N208 1.263 . S
C210 N209 1.358 . S
C210 H216 0.930 . S
C211 N209 1.400 . S
C211 C212 1.351 . S
C211 H228 0.930 . S
C212 N208 1.389 . S
C212 C211 1.351 . S
C212 H217 0.930 . S
O213 Cu207 1.974 1_556 S
O213 C223 1.282 . S
C214 O215 1.261 . S
C214 O227 1.251 . S
O215 C214 1.261 . S
H216 C210 0.930 . S
H217 C212 0.930 . S
N218 Cu207 1.985 1_556 S
N218 C220 1.335 . S
N218 C221 1.390 . S
N219 C220 1.345 . S
N219 C222 1.336 . S
C220 N218 1.335 . S
C220 N219 1.345 . S
C220 H225 0.930 . S
C221 N218 1.390 . S
C221 C222 1.346 . S
C221 H226 0.930 . S
C222 N219 1.336 . S
C222 C221 1.346 . S
C222 H229 0.929 . S
C223 O213 1.282 . S
C223 O224 1.216 . S
O224 C223 1.216 . S
H225 C220 0.930 . S
H226 C221 0.930 . S
O227 Cu207 1.959 . S
O227 C214 1.251 . S
H228 C211 0.930 . S
H229 C222 0.929 . S
Cu230 N231 1.999 . S
Cu230 O236 1.974 . S
Cu230 N241 1.985 . S
Cu230 O250 1.959 . S
N231 Cu230 1.999 . S
N231 C233 1.263 . S
N231 C235 1.389 . S
N232 C233 1.358 . S
N232 C234 1.400 . S
C233 N231 1.263 . S
C233 N232 1.358 . S
C233 H239 0.930 . S
C234 N232 1.400 . S
C234 C235 1.351 . S
C234 H251 0.930 . S
C235 N231 1.389 . S
C235 C234 1.351 . S
C235 H240 0.930 . S
O236 Cu230 1.974 . S
O236 C246 1.282 . S
C237 O238 1.261 . S
C237 O250 1.251 . S
O238 C237 1.261 . S
H239 C233 0.930 . S
H240 C235 0.930 . S
N241 Cu230 1.985 . S
N241 C243 1.335 . S
N241 C244 1.390 . S
N242 C243 1.345 . S
N242 C245 1.336 . S
C243 N241 1.335 . S
C243 N242 1.345 . S
C243 H248 0.930 . S
C244 N241 1.390 . S
C244 C245 1.346 . S
C244 H249 0.930 . S
C245 N242 1.336 . S
C245 C244 1.346 . S
C245 H252 0.929 . S
C246 O236 1.282 . S
C246 O247 1.216 . S
O247 C246 1.216 . S
H248 C243 0.930 . S
H249 C244 0.930 . S
O250 Cu230 1.959 . S
O250 C237 1.251 . S
H251 C234 0.930 . S
H252 C245 0.929 . S
Cu253 N254 1.999 . S
Cu253 O259 1.974 1_554 S
Cu253 N264 1.985 1_554 S
Cu253 O273 1.959 . S
N254 Cu253 1.999 . S
N254 C256 1.263 . S
N254 C258 1.389 . S
N255 C256 1.358 . S
N255 C257 1.400 . S
C256 N254 1.263 . S
C256 N255 1.358 . S
C256 H262 0.930 . S
C257 N255 1.400 . S
C257 C258 1.351 . S
C257 H274 0.930 . S
C258 N254 1.389 . S
C258 C257 1.351 . S
C258 H263 0.930 . S
O259 Cu253 1.974 1_556 S
O259 C269 1.282 . S
C260 O261 1.261 . S
C260 O273 1.251 . S
O261 C260 1.261 . S
H262 C256 0.930 . S
H263 C258 0.930 . S
N264 Cu253 1.985 1_556 S
N264 C266 1.335 . S
N264 C267 1.390 . S
N265 C266 1.352 . S
N265 C268 1.354 . S
C266 N264 1.335 . S
C266 N265 1.352 . S
C266 H271 0.930 1_545 S
C267 N264 1.390 . S
C267 C268 1.346 . S
C267 H272 0.930 . S
C268 N265 1.354 . S
C268 C267 1.346 . S
C268 H275 0.929 . S
C269 O259 1.282 . S
C269 O270 1.216 . S
O270 C269 1.216 . S
H271 C266 0.930 1_565 S
H272 C267 0.930 . S
O273 Cu253 1.959 . S
O273 C260 1.251 . S
H274 C257 0.930 . S
H275 C268 0.929 . S
Cu276 N277 1.999 . S
Cu276 O282 1.974 . S
Cu276 N287 1.985 . S
Cu276 O296 1.959 . S
N277 Cu276 1.999 . S
N277 C279 1.263 . S
N277 C281 1.389 . S
N278 C279 1.358 . S
N278 C280 1.400 . S
C279 N277 1.263 . S
C279 N278 1.358 . S
C279 H285 0.930 . S
C280 N278 1.400 . S
C280 C281 1.351 . S
C280 H297 0.930 . S
C281 N277 1.389 . S
C281 C280 1.351 . S
C281 H286 0.930 . S
O282 Cu276 1.974 . S
O282 C292 1.282 . S
C283 O284 1.261 . S
C283 O296 1.251 . S
O284 C283 1.261 . S
H285 C279 0.930 . S
H286 C281 0.930 . S
N287 Cu276 1.985 . S
N287 C289 1.335 . S
N287 C290 1.390 . S
N288 C289 1.345 . S
N288 C291 1.336 . S
C289 N287 1.335 . S
C289 N288 1.345 . S
C289 H294 0.930 . S
C290 N287 1.390 . S
C290 C291 1.346 . S
C290 H295 0.930 . S
C291 N288 1.336 . S
C291 C290 1.346 . S
C291 H298 0.929 . S
C292 O282 1.282 . S
C292 O293 1.216 . S
O293 C292 1.216 . S
H294 C289 0.930 . S
H295 C290 0.930 . S
O296 Cu276 1.959 . S
O296 C283 1.251 . S
H297 C280 0.930 . S
H298 C291 0.929 . S
Cu299 N300 1.999 . S
Cu299 O305 1.974 1_556 S
Cu299 N310 1.985 1_556 S
Cu299 O319 1.959 . S
N300 Cu299 1.999 . S
N300 C302 1.263 . S
N300 C304 1.389 . S
N301 C302 1.358 . S
N301 C303 1.400 . S
C302 N300 1.263 . S
C302 N301 1.358 . S
C302 H308 0.930 . S
C303 N301 1.400 . S
C303 C304 1.351 . S
C303 H320 0.930 . S
C304 N300 1.389 . S
C304 C303 1.351 . S
C304 H309 0.930 . S
O305 Cu299 1.974 1_554 S
O305 C315 1.282 . S
C306 O307 1.261 . S
C306 O319 1.251 . S
O307 C306 1.261 . S
H308 C302 0.930 . S
H309 C304 0.930 . S
N310 Cu299 1.985 1_554 S
N310 C312 1.335 . S
N310 C313 1.390 . S
N311 C312 1.345 . S
N311 C314 1.336 . S
C312 N310 1.335 . S
C312 N311 1.345 . S
C312 H317 0.930 . S
C313 N310 1.390 . S
C313 C314 1.346 . S
C313 H318 0.930 . S
C314 N311 1.336 . S
C314 C313 1.346 . S
C314 H321 0.929 . S
C315 O305 1.282 . S
C315 O316 1.216 . S
O316 C315 1.216 . S
H317 C312 0.930 . S
H318 C313 0.930 . S
O319 Cu299 1.959 . S
O319 C306 1.251 . S
H320 C303 0.930 . S
H321 C314 0.929 . S
Cu322 N323 1.999 . S
Cu322 O328 1.974 . S
Cu322 N333 1.985 . S
Cu322 O342 1.959 . S
N323 Cu322 1.999 . S
N323 C325 1.263 . S
N323 C327 1.389 . S
N324 C325 1.358 . S
N324 C326 1.400 . S
C325 N323 1.263 . S
C325 N324 1.358 . S
C325 H331 0.930 . S
C326 N324 1.400 . S
C326 C327 1.351 . S
C326 H343 0.930 . S
C327 N323 1.389 . S
C327 C326 1.351 . S
C327 H332 0.930 . S
O328 Cu322 1.974 . S
O328 C338 1.282 . S
C329 O330 1.261 . S
C329 O342 1.251 . S
O330 C329 1.261 . S
H331 C325 0.930 . S
H332 C327 0.930 . S
N333 Cu322 1.985 . S
N333 C335 1.335 . S
N333 C336 1.390 . S
N334 C335 1.345 . S
N334 C337 1.336 . S
C335 N333 1.335 . S
C335 N334 1.345 . S
C335 H340 0.930 . S
C336 N333 1.390 . S
C336 C337 1.346 . S
C336 H341 0.930 . S
C337 N334 1.336 . S
C337 C336 1.346 . S
C337 H344 0.929 . S
C338 O328 1.282 . S
C338 O339 1.216 . S
O339 C338 1.216 . S
H340 C335 0.930 . S
H341 C336 0.930 . S
O342 Cu322 1.959 . S
O342 C329 1.251 . S
H343 C326 0.930 . S
H344 C337 0.929 . S
Cu345 N346 1.999 . S
Cu345 O351 1.974 1_556 S
Cu345 N356 1.985 1_556 S
Cu345 O365 1.959 . S
N346 Cu345 1.999 . S
N346 C348 1.263 . S
N346 C350 1.389 . S
N347 C348 1.358 . S
N347 C349 1.400 . S
C348 N346 1.263 . S
C348 N347 1.358 . S
C348 H354 0.930 . S
C349 N347 1.400 . S
C349 C350 1.351 . S
C349 H366 0.930 . S
C350 N346 1.389 . S
C350 C349 1.351 . S
C350 H355 0.930 . S
O351 Cu345 1.974 1_554 S
O351 C361 1.282 . S
C352 O353 1.261 . S
C352 O365 1.251 . S
O353 C352 1.261 . S
H354 C348 0.930 . S
H355 C350 0.930 . S
N356 Cu345 1.985 1_554 S
N356 C358 1.335 . S
N356 C359 1.390 . S
N357 C358 1.350 . S
N357 C360 1.349 . S
C358 N356 1.335 . S
C358 N357 1.350 . S
C358 H363 0.930 1_545 S
C359 N356 1.390 . S
C359 C360 1.346 . S
C359 H364 0.930 . S
C360 N357 1.349 . S
C360 C359 1.346 . S
C360 H367 0.929 . S
C361 O351 1.282 . S
C361 O362 1.216 . S
O362 C361 1.216 . S
H363 C358 0.930 1_565 S
H364 C359 0.930 . S
O365 Cu345 1.959 . S
O365 C352 1.251 . S
H366 C349 0.930 . S
H367 C360 0.929 . S
Cu368 N369 1.999 . S
Cu368 O374 1.974 . S
Cu368 N379 1.985 . S
Cu368 O388 1.959 . S
N369 Cu368 1.999 . S
N369 C371 1.263 . S
N369 C373 1.389 . S
N370 C371 1.358 . S
N370 C372 1.400 . S
C371 N369 1.263 . S
C371 N370 1.358 . S
C371 H377 0.930 . S
C372 N370 1.400 . S
C372 C373 1.351 . S
C372 H389 0.930 . S
C373 N369 1.389 . S
C373 C372 1.351 . S
C373 H378 0.930 . S
O374 Cu368 1.974 . S
O374 C384 1.282 . S
C375 O376 1.261 . S
C375 O388 1.251 . S
O376 C375 1.261 . S
H377 C371 0.930 . S
H378 C373 0.930 . S
N379 Cu368 1.985 . S
N379 C381 1.335 . S
N379 C382 1.390 . S
N380 C381 1.345 . S
N380 C383 1.336 . S
C381 N379 1.335 . S
C381 N380 1.345 . S
C381 H386 0.930 . S
C382 N379 1.390 . S
C382 C383 1.346 . S
C382 H387 0.930 . S
C383 N380 1.336 . S
C383 C382 1.346 . S
C383 H390 0.929 . S
C384 O374 1.282 . S
C384 O385 1.216 . S
O385 C384 1.216 . S
H386 C381 0.930 . S
H387 C382 0.930 . S
O388 Cu368 1.959 . S
O388 C375 1.251 . S
H389 C372 0.930 . S
H390 C383 0.929 . S
Cu391 N392 1.999 . S
Cu391 O397 1.974 . S
Cu391 N402 1.985 . S
Cu391 O411 1.959 . S
N392 Cu391 1.999 . S
N392 C394 1.263 . S
N392 C396 1.389 . S
N393 C394 1.358 . S
N393 C395 1.400 . S
C394 N392 1.263 . S
C394 N393 1.358 . S
C394 H400 0.930 . S
C395 N393 1.400 . S
C395 C396 1.351 . S
C395 H412 0.930 . S
C396 N392 1.389 . S
C396 C395 1.351 . S
C396 H401 0.930 . S
O397 Cu391 1.974 . S
O397 C407 1.282 . S
C398 O399 1.261 . S
C398 O411 1.251 . S
O399 C398 1.261 . S
H400 C394 0.930 . S
H401 C396 0.930 . S
N402 Cu391 1.985 . S
N402 C404 1.335 . S
N402 C405 1.390 . S
N403 C404 1.345 . S
N403 C406 1.336 . S
C404 N402 1.335 . S
C404 N403 1.345 . S
C404 H409 0.930 . S
C405 N402 1.390 . S
C405 C406 1.346 . S
C405 H410 0.930 . S
C406 N403 1.336 . S
C406 C405 1.346 . S
C406 H413 0.929 . S
C407 O397 1.282 . S
C407 O408 1.216 . S
O408 C407 1.216 . S
H409 C404 0.930 . S
H410 C405 0.930 . S
O411 Cu391 1.959 . S
O411 C398 1.251 . S
H412 C395 0.930 . S
H413 C406 0.929 . S
Cu414 N415 1.999 . S
Cu414 O420 1.974 . S
Cu414 N425 1.985 . S
Cu414 O434 1.959 . S
N415 Cu414 1.999 . S
N415 C417 1.263 . S
N415 C419 1.389 . S
N416 C417 1.358 . S
N416 C418 1.400 . S
C417 N415 1.263 . S
C417 N416 1.358 . S
C417 H423 0.930 . S
C418 N416 1.400 . S
C418 C419 1.351 . S
C418 H435 0.930 . S
C419 N415 1.389 . S
C419 C418 1.351 . S
C419 H424 0.930 . S
O420 Cu414 1.974 . S
O420 C430 1.282 . S
C421 O422 1.261 . S
C421 O434 1.251 . S
O422 C421 1.261 . S
H423 C417 0.930 . S
H424 C419 0.930 . S
N425 Cu414 1.985 . S
N425 C427 1.335 . S
N425 C428 1.390 . S
N426 C427 1.352 . S
N426 C429 1.353 . S
C427 N425 1.335 . S
C427 N426 1.352 . S
C427 H432 0.930 1_655 S
C428 N425 1.390 . S
C428 C429 1.346 . S
C428 H433 0.930 . S
C429 N426 1.353 . S
C429 C428 1.346 . S
C429 H436 0.929 . S
C430 O420 1.282 . S
C430 O431 1.216 . S
O431 C430 1.216 . S
H432 C427 0.930 1_455 S
H433 C428 0.930 . S
O434 Cu414 1.959 . S
O434 C421 1.251 . S
H435 C418 0.930 . S
H436 C429 0.929 . S
Cu437 N438 1.999 . S
Cu437 O443 1.974 . S
Cu437 N448 1.985 . S
Cu437 O457 1.959 . S
N438 Cu437 1.999 . S
N438 C440 1.263 . S
N438 C442 1.389 . S
N439 C440 1.358 . S
N439 C441 1.400 . S
C440 N438 1.263 . S
C440 N439 1.358 . S
C440 H446 0.930 . S
C441 N439 1.400 . S
C441 C442 1.351 . S
C441 H458 0.930 . S
C442 N438 1.389 . S
C442 C441 1.351 . S
C442 H447 0.930 . S
O443 Cu437 1.974 . S
O443 C453 1.282 . S
C444 O445 1.261 . S
C444 O457 1.251 . S
O445 C444 1.261 . S
H446 C440 0.930 . S
H447 C442 0.930 . S
N448 Cu437 1.985 . S
N448 C450 1.335 . S
N448 C451 1.390 . S
N449 C450 1.345 . S
N449 C452 1.336 . S
C450 N448 1.335 . S
C450 N449 1.345 . S
C450 H455 0.930 . S
C451 N448 1.390 . S
C451 C452 1.346 . S
C451 H456 0.930 . S
C452 N449 1.336 . S
C452 C451 1.346 . S
C452 H459 0.929 . S
C453 O443 1.282 . S
C453 O454 1.216 . S
O454 C453 1.216 . S
H455 C450 0.930 . S
H456 C451 0.930 . S
O457 Cu437 1.959 . S
O457 C444 1.251 . S
H458 C441 0.930 . S
H459 C452 0.929 . S
Cu460 N461 1.999 . S
Cu460 O466 1.974 . S
Cu460 N471 1.985 . S
Cu460 O480 1.959 . S
N461 Cu460 1.999 . S
N461 C463 1.263 . S
N461 C465 1.389 . S
N462 C463 1.358 . S
N462 C464 1.400 . S
C463 N461 1.263 . S
C463 N462 1.358 . S
C463 H469 0.930 . S
C464 N462 1.400 . S
C464 C465 1.351 . S
C464 H481 0.930 . S
C465 N461 1.389 . S
C465 C464 1.351 . S
C465 H470 0.930 . S
O466 Cu460 1.974 . S
O466 C476 1.282 . S
C467 O468 1.261 . S
C467 O480 1.251 . S
O468 C467 1.261 . S
H469 C463 0.930 . S
H470 C465 0.930 . S
N471 Cu460 1.985 . S
N471 C473 1.335 . S
N471 C474 1.390 . S
N472 C473 1.345 . S
N472 C475 1.336 . S
C473 N471 1.335 . S
C473 N472 1.345 . S
C473 H478 0.930 . S
C474 N471 1.390 . S
C474 C475 1.346 . S
C474 H479 0.930 . S
C475 N472 1.336 . S
C475 C474 1.346 . S
C475 H482 0.929 . S
C476 O466 1.282 . S
C476 O477 1.216 . S
O477 C476 1.216 . S
H478 C473 0.930 . S
H479 C474 0.930 . S
O480 Cu460 1.959 . S
O480 C467 1.251 . S
H481 C464 0.930 . S
H482 C475 0.929 . S
Cu483 N484 1.999 . S
Cu483 O489 1.974 . S
Cu483 N494 1.985 . S
Cu483 O503 1.959 . S
N484 Cu483 1.999 . S
N484 C486 1.263 . S
N484 C488 1.389 . S
N485 C486 1.358 . S
N485 C487 1.400 . S
C486 N484 1.263 . S
C486 N485 1.358 . S
C486 H492 0.930 . S
C487 N485 1.400 . S
C487 C488 1.351 . S
C487 H504 0.930 . S
C488 N484 1.389 . S
C488 C487 1.351 . S
C488 H493 0.930 . S
O489 Cu483 1.974 . S
O489 C499 1.282 . S
C490 O491 1.261 . S
C490 O503 1.251 . S
O491 C490 1.261 . S
H492 C486 0.930 . S
H493 C488 0.930 . S
N494 Cu483 1.985 . S
N494 C496 1.335 . S
N494 C497 1.390 . S
N495 C496 1.345 . S
N495 C498 1.336 . S
C496 N494 1.335 . S
C496 N495 1.345 . S
C496 H501 0.930 . S
C497 N494 1.390 . S
C497 C498 1.346 . S
C497 H502 0.930 . S
C498 N495 1.336 . S
C498 C497 1.346 . S
C498 H505 0.929 . S
C499 O489 1.282 . S
C499 O500 1.216 . S
O500 C499 1.216 . S
H501 C496 0.930 . S
H502 C497 0.930 . S
O503 Cu483 1.959 . S
O503 C490 1.251 . S
H504 C487 0.930 . S
H505 C498 0.929 . S
Cu506 N507 1.999 . S
Cu506 O512 1.974 . S
Cu506 N517 1.985 . S
Cu506 O526 1.959 . S
N507 Cu506 1.999 . S
N507 C509 1.263 . S
N507 C511 1.389 . S
N508 C509 1.358 . S
N508 C510 1.400 . S
C509 N507 1.263 . S
C509 N508 1.358 . S
C509 H515 0.930 . S
C510 N508 1.400 . S
C510 C511 1.351 . S
C510 H527 0.930 . S
C511 N507 1.389 . S
C511 C510 1.351 . S
C511 H516 0.930 . S
O512 Cu506 1.974 . S
O512 C522 1.282 . S
C513 O514 1.261 . S
C513 O526 1.251 . S
O514 C513 1.261 . S
H515 C509 0.930 . S
H516 C511 0.930 . S
N517 Cu506 1.985 . S
N517 C519 1.335 . S
N517 C520 1.390 . S
N518 C519 1.345 . S
N518 C521 1.336 . S
C519 N517 1.335 . S
C519 N518 1.345 . S
C519 H524 0.930 1_655 S
C520 N517 1.390 . S
C520 C521 1.346 . S
C520 H525 0.930 . S
C521 N518 1.336 . S
C521 C520 1.346 . S
C521 H528 0.929 . S
C522 O512 1.282 . S
C522 O523 1.216 . S
O523 C522 1.216 . S
H524 C519 0.930 1_455 S
H525 C520 0.930 . S
O526 Cu506 1.959 . S
O526 C513 1.251 . S
H527 C510 0.930 . S
H528 C521 0.929 . S
Cu529 N530 1.999 . S
Cu529 O535 1.974 1_545 S
Cu529 N540 1.985 1_545 S
Cu529 O549 1.959 . S
N530 Cu529 1.999 . S
N530 C532 1.263 . S
N530 C534 1.389 . S
N531 C532 1.358 . S
N531 C533 1.400 . S
C532 N530 1.263 . S
C532 N531 1.358 . S
C532 H538 0.930 . S
C533 N531 1.400 . S
C533 C534 1.351 . S
C533 H550 0.930 . S
C534 N530 1.389 . S
C534 C533 1.351 . S
C534 H539 0.930 . S
O535 Cu529 1.974 1_565 S
O535 C545 1.282 . S
C536 O537 1.261 . S
C536 O549 1.251 . S
O537 C536 1.261 . S
H538 C532 0.930 . S
H539 C534 0.930 . S
N540 Cu529 1.985 1_565 S
N540 C542 1.335 . S
N540 C543 1.390 . S
N541 C542 1.352 . S
N541 C544 1.354 . S
C542 N540 1.335 . S
C542 N541 1.352 . S
C542 H547 0.930 1_455 S
C543 N540 1.390 . S
C543 C544 1.346 . S
C543 H548 0.930 . S
C544 N541 1.354 . S
C544 C543 1.346 . S
C544 H551 0.929 . S
C545 O535 1.282 . S
C545 O546 1.216 . S
O546 C545 1.216 . S
H547 C542 0.930 1_655 S
H548 C543 0.930 . S
O549 Cu529 1.959 . S
O549 C536 1.251 . S
H550 C533 0.930 . S
H551 C544 0.929 . S
Cu552 N553 1.999 . S
Cu552 O558 1.974 . S
Cu552 N563 1.985 . S
Cu552 O572 1.959 . S
N553 Cu552 1.999 . S
N553 C555 1.263 . S
N553 C557 1.389 . S
N554 C555 1.358 . S
N554 C556 1.400 . S
C555 N553 1.263 . S
C555 N554 1.358 . S
C555 H561 0.930 . S
C556 N554 1.400 . S
C556 C557 1.351 . S
C556 H573 0.930 . S
C557 N553 1.389 . S
C557 C556 1.351 . S
C557 H562 0.930 . S
O558 Cu552 1.974 . S
O558 C568 1.282 . S
C559 O560 1.261 . S
C559 O572 1.251 . S
O560 C559 1.261 . S
H561 C555 0.930 . S
H562 C557 0.930 . S
N563 Cu552 1.985 . S
N563 C565 1.335 . S
N563 C566 1.390 . S
N564 C565 1.345 . S
N564 C567 1.336 . S
C565 N563 1.335 . S
C565 N564 1.345 . S
C565 H570 0.930 . S
C566 N563 1.390 . S
C566 C567 1.346 . S
C566 H571 0.930 . S
C567 N564 1.336 . S
C567 C566 1.346 . S
C567 H574 0.929 . S
C568 O558 1.282 . S
C568 O569 1.216 . S
O569 C568 1.216 . S
H570 C565 0.930 . S
H571 C566 0.930 . S
O572 Cu552 1.959 . S
O572 C559 1.251 . S
H573 C556 0.930 . S
H574 C567 0.929 . S
Cu575 N576 1.999 . S
Cu575 O581 1.974 1_655 S
Cu575 N586 1.985 1_655 S
Cu575 O595 1.959 . S
N576 Cu575 1.999 . S
N576 C578 1.263 . S
N576 C580 1.389 . S
N577 C578 1.358 . S
N577 C579 1.400 . S
C578 N576 1.263 . S
C578 N577 1.358 . S
C578 H584 0.930 . S
C579 N577 1.400 . S
C579 C580 1.351 . S
C579 H596 0.930 . S
C580 N576 1.389 . S
C580 C579 1.351 . S
C580 H585 0.930 . S
O581 Cu575 1.974 1_455 S
O581 C591 1.282 . S
C582 O583 1.261 . S
C582 O595 1.251 . S
O583 C582 1.261 . S
H584 C578 0.930 . S
H585 C580 0.930 . S
N586 Cu575 1.985 1_455 S
N586 C588 1.335 . S
N586 C589 1.390 . S
N587 C588 1.345 . S
N587 C590 1.336 . S
C588 N586 1.335 . S
C588 N587 1.345 . S
C588 H593 0.930 . S
C589 N586 1.390 . S
C589 C590 1.346 . S
C589 H594 0.930 . S
C590 N587 1.336 . S
C590 C589 1.346 . S
C590 H597 0.929 . S
C591 O581 1.282 . S
C591 O592 1.216 . S
O592 C591 1.216 . S
H593 C588 0.930 . S
H594 C589 0.930 . S
O595 Cu575 1.959 . S
O595 C582 1.251 . S
H596 C579 0.930 . S
H597 C590 0.929 . S
Cu598 N599 1.999 . S
Cu598 O604 1.974 . S
Cu598 N609 1.985 . S
Cu598 O618 1.959 . S
N599 Cu598 1.999 . S
N599 C601 1.263 . S
N599 C603 1.389 . S
N600 C601 1.358 . S
N600 C602 1.400 . S
C601 N599 1.263 . S
C601 N600 1.358 . S
C601 H607 0.930 . S
C602 N600 1.400 . S
C602 C603 1.351 . S
C602 H619 0.930 . S
C603 N599 1.389 . S
C603 C602 1.351 . S
C603 H608 0.930 . S
O604 Cu598 1.974 . S
O604 C614 1.282 . S
C605 O606 1.261 . S
C605 O618 1.251 . S
O606 C605 1.261 . S
H607 C601 0.930 . S
H608 C603 0.930 . S
N609 Cu598 1.985 . S
N609 C611 1.335 . S
N609 C612 1.390 . S
N610 C611 1.345 . S
N610 C613 1.336 . S
C611 N609 1.335 . S
C611 N610 1.345 . S
C611 H616 0.930 . S
C612 N609 1.390 . S
C612 C613 1.346 . S
C612 H617 0.930 . S
C613 N610 1.336 . S
C613 C612 1.346 . S
C613 H620 0.929 . S
C614 O604 1.282 . S
C614 O615 1.216 . S
O615 C614 1.216 . S
H616 C611 0.930 . S
H617 C612 0.930 . S
O618 Cu598 1.959 . S
O618 C605 1.251 . S
H619 C602 0.930 . S
H620 C613 0.929 . S
Cu621 N622 1.999 . S
Cu621 O627 1.974 1_455 S
Cu621 N632 1.985 1_455 S
Cu621 O641 1.959 . S
N622 Cu621 1.999 . S
N622 C624 1.263 . S
N622 C626 1.389 . S
N623 C624 1.358 . S
N623 C625 1.400 . S
C624 N622 1.263 . S
C624 N623 1.358 . S
C624 H630 0.930 . S
C625 N623 1.400 . S
C625 C626 1.351 . S
C625 H642 0.930 . S
C626 N622 1.389 . S
C626 C625 1.351 . S
C626 H631 0.930 . S
O627 Cu621 1.974 1_655 S
O627 C637 1.282 . S
C628 O629 1.261 . S
C628 O641 1.251 . S
O629 C628 1.261 . S
H630 C624 0.930 . S
H631 C626 0.930 . S
N632 Cu621 1.985 1_655 S
N632 C634 1.335 . S
N632 C635 1.390 . S
N633 C634 1.345 . S
N633 C636 1.336 . S
C634 N632 1.335 . S
C634 N633 1.345 . S
C634 H639 0.930 . S
C635 N632 1.390 . S
C635 C636 1.346 . S
C635 H640 0.930 . S
C636 N633 1.336 . S
C636 C635 1.346 . S
C636 H643 0.929 . S
C637 O627 1.282 . S
C637 O638 1.216 . S
O638 C637 1.216 . S
H639 C634 0.930 . S
H640 C635 0.930 . S
O641 Cu621 1.959 . S
O641 C628 1.251 . S
H642 C625 0.930 . S
H643 C636 0.929 . S
Cu644 N645 1.999 . S
Cu644 O650 1.974 . S
Cu644 N655 1.985 . S
Cu644 O664 1.959 . S
N645 Cu644 1.999 . S
N645 C647 1.263 . S
N645 C649 1.389 . S
N646 C647 1.358 . S
N646 C648 1.400 . S
C647 N645 1.263 . S
C647 N646 1.358 . S
C647 H653 0.930 . S
C648 N646 1.400 . S
C648 C649 1.351 . S
C648 H665 0.930 . S
C649 N645 1.389 . S
C649 C648 1.351 . S
C649 H654 0.930 . S
O650 Cu644 1.974 . S
O650 C660 1.282 . S
C651 O652 1.261 . S
C651 O664 1.251 . S
O652 C651 1.261 . S
H653 C647 0.930 . S
H654 C649 0.930 . S
N655 Cu644 1.985 . S
N655 C657 1.335 . S
N655 C658 1.390 . S
N656 C657 1.345 . S
N656 C659 1.336 . S
C657 N655 1.335 . S
C657 N656 1.345 . S
C657 H662 0.930 . S
C658 N655 1.390 . S
C658 C659 1.346 . S
C658 H663 0.930 . S
C659 N656 1.336 . S
C659 C658 1.346 . S
C659 H666 0.929 . S
C660 O650 1.282 . S
C660 O661 1.216 . S
O661 C660 1.216 . S
H662 C657 0.930 . S
H663 C658 0.930 . S
O664 Cu644 1.959 . S
O664 C651 1.251 . S
H665 C648 0.930 . S
H666 C659 0.929 . S
Cu667 N668 1.999 . S
Cu667 O673 1.974 . S
Cu667 N678 1.985 . S
Cu667 O687 1.959 . S
N668 Cu667 1.999 . S
N668 C670 1.263 . S
N668 C672 1.389 . S
N669 C670 1.358 . S
N669 C671 1.400 . S
C670 N668 1.263 . S
C670 N669 1.358 . S
C670 H676 0.930 . S
C671 N669 1.400 . S
C671 C672 1.351 . S
C671 H688 0.930 . S
C672 N668 1.389 . S
C672 C671 1.351 . S
C672 H677 0.930 . S
O673 Cu667 1.974 . S
O673 C683 1.282 . S
C674 O675 1.261 . S
C674 O687 1.251 . S
O675 C674 1.261 . S
H676 C670 0.930 . S
H677 C672 0.930 . S
N678 Cu667 1.985 . S
N678 C680 1.335 . S
N678 C681 1.390 . S
N679 C680 1.345 . S
N679 C682 1.336 . S
C680 N678 1.335 . S
C680 N679 1.345 . S
C680 H685 0.930 . S
C681 N678 1.390 . S
C681 C682 1.346 . S
C681 H686 0.930 . S
C682 N679 1.336 . S
C682 C681 1.346 . S
C682 H689 0.929 . S
C683 O673 1.282 . S
C683 O684 1.216 . S
O684 C683 1.216 . S
H685 C680 0.930 . S
H686 C681 0.930 . S
O687 Cu667 1.959 . S
O687 C674 1.251 . S
H688 C671 0.930 . S
H689 C682 0.929 . S
Cu690 N691 1.999 . S
Cu690 O696 1.974 . S
Cu690 N701 1.985 . S
Cu690 O710 1.959 . S
N691 Cu690 1.999 . S
N691 C693 1.263 . S
N691 C695 1.389 . S
N692 C693 1.358 . S
N692 C694 1.400 . S
C693 N691 1.263 . S
C693 N692 1.358 . S
C693 H699 0.930 . S
C694 N692 1.400 . S
C694 C695 1.351 . S
C694 H711 0.930 . S
C695 N691 1.389 . S
C695 C694 1.351 . S
C695 H700 0.930 . S
O696 Cu690 1.974 . S
O696 C706 1.282 . S
C697 O698 1.261 . S
C697 O710 1.251 . S
O698 C697 1.261 . S
H699 C693 0.930 . S
H700 C695 0.930 . S
N701 Cu690 1.985 . S
N701 C703 1.335 . S
N701 C704 1.390 . S
N702 C703 1.345 . S
N702 C705 1.336 . S
C703 N701 1.335 . S
C703 N702 1.345 . S
C703 H708 0.930 . S
C704 N701 1.390 . S
C704 C705 1.346 . S
C704 H709 0.930 . S
C705 N702 1.336 . S
C705 C704 1.346 . S
C705 H712 0.929 . S
C706 O696 1.282 . S
C706 O707 1.216 . S
O707 C706 1.216 . S
H708 C703 0.930 . S
H709 C704 0.930 . S
O710 Cu690 1.959 . S
O710 C697 1.251 . S
H711 C694 0.930 . S
H712 C705 0.929 . S
Cu713 N714 1.999 . S
Cu713 O719 1.974 . S
Cu713 N724 1.985 . S
Cu713 O733 1.959 . S
N714 Cu713 1.999 . S
N714 C716 1.263 . S
N714 C718 1.389 . S
N715 C716 1.358 . S
N715 C717 1.400 . S
C716 N714 1.263 . S
C716 N715 1.358 . S
C716 H722 0.930 . S
C717 N715 1.400 . S
C717 C718 1.351 . S
C717 H734 0.930 . S
C718 N714 1.389 . S
C718 C717 1.351 . S
C718 H723 0.930 . S
O719 Cu713 1.974 . S
O719 C729 1.282 . S
C720 O721 1.261 . S
C720 O733 1.251 . S
O721 C720 1.261 . S
H722 C716 0.930 . S
H723 C718 0.930 . S
N724 Cu713 1.985 . S
N724 C726 1.335 . S
N724 C727 1.390 . S
N725 C726 1.345 . S
N725 C728 1.336 . S
C726 N724 1.335 . S
C726 N725 1.345 . S
C726 H731 0.930 . S
C727 N724 1.390 . S
C727 C728 1.346 . S
C727 H732 0.930 . S
C728 N725 1.336 . S
C728 C727 1.346 . S
C728 H735 0.929 . S
C729 O719 1.282 . S
C729 O730 1.216 . S
O730 C729 1.216 . S
H731 C726 0.930 . S
H732 C727 0.930 . S
O733 Cu713 1.959 . S
O733 C720 1.251 . S
H734 C717 0.930 . S
H735 C728 0.929 . S
Cu736 N737 1.999 . S
Cu736 O742 1.974 . S
Cu736 N747 1.985 . S
Cu736 O756 1.959 . S
N737 Cu736 1.999 . S
N737 C739 1.263 . S
N737 C741 1.389 . S
N738 C739 1.358 . S
N738 C740 1.400 . S
C739 N737 1.263 . S
C739 N738 1.358 . S
C739 H745 0.930 . S
C740 N738 1.400 . S
C740 C741 1.351 . S
C740 H757 0.930 . S
C741 N737 1.389 . S
C741 C740 1.351 . S
C741 H746 0.930 . S
O742 Cu736 1.974 . S
O742 C752 1.282 . S
C743 O744 1.261 . S
C743 O756 1.251 . S
O744 C743 1.261 . S
H745 C739 0.930 . S
H746 C741 0.930 . S
N747 Cu736 1.985 . S
N747 C749 1.335 . S
N747 C750 1.390 . S
N748 C749 1.345 . S
N748 C751 1.336 . S
C749 N747 1.335 . S
C749 N748 1.345 . S
C749 H754 0.930 . S
C750 N747 1.390 . S
C750 C751 1.346 . S
C750 H755 0.930 . S
C751 N748 1.336 . S
C751 C750 1.346 . S
C751 H758 0.929 . S
C752 O742 1.282 . S
C752 O753 1.216 . S
O753 C752 1.216 . S
H754 C749 0.930 . S
H755 C750 0.930 . S
O756 Cu736 1.959 . S
O756 C743 1.251 . S
H757 C740 0.930 . S
H758 C751 0.929 . S
Cu759 N760 1.999 . S
Cu759 O765 1.974 . S
Cu759 N770 1.985 . S
Cu759 O779 1.959 . S
N760 Cu759 1.999 . S
N760 C762 1.263 . S
N760 C764 1.389 . S
N761 C762 1.358 . S
N761 C763 1.400 . S
C762 N760 1.263 . S
C762 N761 1.358 . S
C762 H768 0.930 . S
C763 N761 1.400 . S
C763 C764 1.351 . S
C763 H780 0.930 . S
C764 N760 1.389 . S
C764 C763 1.351 . S
C764 H769 0.930 . S
O765 Cu759 1.974 . S
O765 C775 1.282 . S
C766 O767 1.261 . S
C766 O779 1.251 . S
O767 C766 1.261 . S
H768 C762 0.930 . S
H769 C764 0.930 . S
N770 Cu759 1.985 . S
N770 C772 1.335 . S
N770 C773 1.390 . S
N771 C772 1.352 . S
N771 C774 1.353 . S
C772 N770 1.335 . S
C772 N771 1.352 . S
C772 H777 0.930 1_565 S
C773 N770 1.390 . S
C773 C774 1.346 . S
C773 H778 0.930 . S
C774 N771 1.353 . S
C774 C773 1.346 . S
C774 H781 0.929 . S
C775 O765 1.282 . S
C775 O776 1.216 . S
O776 C775 1.216 . S
H777 C772 0.930 1_545 S
H778 C773 0.930 . S
O779 Cu759 1.959 . S
O779 C766 1.251 . S
H780 C763 0.930 . S
H781 C774 0.929 . S
Cu782 N783 1.999 . S
Cu782 O788 1.974 . S
Cu782 N793 1.985 . S
Cu782 O802 1.959 . S
N783 Cu782 1.999 . S
N783 C785 1.263 . S
N783 C787 1.389 . S
N784 C785 1.358 . S
N784 C786 1.400 . S
C785 N783 1.263 . S
C785 N784 1.358 . S
C785 H791 0.930 . S
C786 N784 1.400 . S
C786 C787 1.351 . S
C786 H803 0.930 . S
C787 N783 1.389 . S
C787 C786 1.351 . S
C787 H792 0.930 . S
O788 Cu782 1.974 . S
O788 C798 1.282 . S
C789 O790 1.261 . S
C789 O802 1.251 . S
O790 C789 1.261 . S
H791 C785 0.930 . S
H792 C787 0.930 . S
N793 Cu782 1.985 . S
N793 C795 1.335 . S
N793 C796 1.390 . S
N794 C795 1.345 . S
N794 C797 1.336 . S
C795 N793 1.335 . S
C795 N794 1.345 . S
C795 H800 0.930 . S
C796 N793 1.390 . S
C796 C797 1.346 . S
C796 H801 0.930 . S
C797 N794 1.336 . S
C797 C796 1.346 . S
C797 H804 0.929 . S
C798 O788 1.282 . S
C798 O799 1.216 . S
O799 C798 1.216 . S
H800 C795 0.930 . S
H801 C796 0.930 . S
O802 Cu782 1.959 . S
O802 C789 1.251 . S
H803 C786 0.930 . S
H804 C797 0.929 . S
Cu805 N806 1.999 . S
Cu805 O811 1.974 . S
Cu805 N816 1.985 . S
Cu805 O825 1.959 . S
N806 Cu805 1.999 . S
N806 C808 1.263 . S
N806 C810 1.389 . S
N807 C808 1.358 . S
N807 C809 1.400 . S
C808 N806 1.263 . S
C808 N807 1.358 . S
C808 H814 0.930 . S
C809 N807 1.400 . S
C809 C810 1.351 . S
C809 H826 0.930 . S
C810 N806 1.389 . S
C810 C809 1.351 . S
C810 H815 0.930 . S
O811 Cu805 1.974 . S
O811 C821 1.282 . S
C812 O813 1.261 . S
C812 O825 1.251 . S
O813 C812 1.261 . S
H814 C808 0.930 . S
H815 C810 0.930 . S
N816 Cu805 1.985 . S
N816 C818 1.335 . S
N816 C819 1.390 . S
N817 C818 1.345 . S
N817 C820 1.336 . S
C818 N816 1.335 . S
C818 N817 1.345 . S
C818 H823 0.930 . S
C819 N816 1.390 . S
C819 C820 1.346 . S
C819 H824 0.930 . S
C820 N817 1.336 . S
C820 C819 1.346 . S
C820 H827 0.929 . S
C821 O811 1.282 . S
C821 O822 1.216 . S
O822 C821 1.216 . S
H823 C818 0.930 . S
H824 C819 0.930 . S
O825 Cu805 1.959 . S
O825 C812 1.251 . S
H826 C809 0.930 . S
H827 C820 0.929 . S
Cu828 N829 1.999 . S
Cu828 O834 1.974 . S
Cu828 N839 1.985 . S
Cu828 O848 1.959 . S
N829 Cu828 1.999 . S
N829 C831 1.263 . S
N829 C833 1.389 . S
N830 C831 1.358 . S
N830 C832 1.400 . S
C831 N829 1.263 . S
C831 N830 1.358 . S
C831 H837 0.930 . S
C832 N830 1.400 . S
C832 C833 1.351 . S
C832 H849 0.930 . S
C833 N829 1.389 . S
C833 C832 1.351 . S
C833 H838 0.930 . S
O834 Cu828 1.974 . S
O834 C844 1.282 . S
C835 O836 1.261 . S
C835 O848 1.251 . S
O836 C835 1.261 . S
H837 C831 0.930 . S
H838 C833 0.930 . S
N839 Cu828 1.985 . S
N839 C841 1.335 . S
N839 C842 1.390 . S
N840 C841 1.345 . S
N840 C843 1.336 . S
C841 N839 1.335 . S
C841 N840 1.345 . S
C841 H846 0.930 . S
C842 N839 1.390 . S
C842 C843 1.346 . S
C842 H847 0.930 . S
C843 N840 1.336 . S
C843 C842 1.346 . S
C843 H850 0.929 . S
C844 O834 1.282 . S
C844 O845 1.216 . S
O845 C844 1.216 . S
H846 C841 0.930 . S
H847 C842 0.930 . S
O848 Cu828 1.959 . S
O848 C835 1.251 . S
H849 C832 0.930 . S
H850 C843 0.929 . S
Cu851 N852 1.999 . S
Cu851 O857 1.974 . S
Cu851 N862 1.985 . S
Cu851 O871 1.959 . S
N852 Cu851 1.999 . S
N852 C854 1.263 . S
N852 C856 1.389 . S
N853 C854 1.358 . S
N853 C855 1.400 . S
C854 N852 1.263 . S
C854 N853 1.358 . S
C854 H860 0.930 . S
C855 N853 1.400 . S
C855 C856 1.351 . S
C855 H872 0.930 . S
C856 N852 1.389 . S
C856 C855 1.351 . S
C856 H861 0.930 . S
O857 Cu851 1.974 . S
O857 C867 1.282 . S
C858 O859 1.261 . S
C858 O871 1.251 . S
O859 C858 1.261 . S
H860 C854 0.930 . S
H861 C856 0.930 . S
N862 Cu851 1.985 . S
N862 C864 1.335 . S
N862 C865 1.390 . S
N863 C864 1.345 . S
N863 C866 1.336 . S
C864 N862 1.335 . S
C864 N863 1.345 . S
C864 H869 0.930 1_565 S
C865 N862 1.390 . S
C865 C866 1.346 . S
C865 H870 0.930 . S
C866 N863 1.336 . S
C866 C865 1.346 . S
C866 H873 0.929 . S
C867 O857 1.282 . S
C867 O868 1.216 . S
O868 C867 1.216 . S
H869 C864 0.930 1_545 S
H870 C865 0.930 . S
O871 Cu851 1.959 . S
O871 C858 1.251 . S
H872 C855 0.930 . S
H873 C866 0.929 . S
Cu874 N875 1.999 . S
Cu874 O880 1.974 . S
Cu874 N885 1.985 . S
Cu874 O894 1.959 . S
N875 Cu874 1.999 . S
N875 C877 1.263 . S
N875 C879 1.389 . S
N876 C877 1.358 . S
N876 C878 1.400 . S
C877 N875 1.263 . S
C877 N876 1.358 . S
C877 H883 0.930 . S
C878 N876 1.400 . S
C878 C879 1.351 . S
C878 H895 0.930 . S
C879 N875 1.389 . S
C879 C878 1.351 . S
C879 H884 0.930 . S
O880 Cu874 1.974 . S
O880 C890 1.282 . S
C881 O882 1.261 . S
C881 O894 1.251 . S
O882 C881 1.261 . S
H883 C877 0.930 . S
H884 C879 0.930 . S
N885 Cu874 1.985 . S
N885 C887 1.335 . S
N885 C888 1.390 . S
N886 C887 1.345 . S
N886 C889 1.336 . S
C887 N885 1.335 . S
C887 N886 1.345 . S
C887 H892 0.930 . S
C888 N885 1.390 . S
C888 C889 1.346 . S
C888 H893 0.930 . S
C889 N886 1.336 . S
C889 C888 1.346 . S
C889 H896 0.929 . S
C890 O880 1.282 . S
C890 O891 1.216 . S
O891 C890 1.216 . S
H892 C887 0.930 . S
H893 C888 0.930 . S
O894 Cu874 1.959 . S
O894 C881 1.251 . S
H895 C878 0.930 . S
H896 C889 0.929 . S
Cu897 N898 1.999 . S
Cu897 O903 1.974 . S
Cu897 N908 1.985 . S
Cu897 O917 1.959 . S
N898 Cu897 1.999 . S
N898 C900 1.263 . S
N898 C902 1.389 . S
N899 C900 1.358 . S
N899 C901 1.400 . S
C900 N898 1.263 . S
C900 N899 1.358 . S
C900 H906 0.930 . S
C901 N899 1.400 . S
C901 C902 1.351 . S
C901 H918 0.930 . S
C902 N898 1.389 . S
C902 C901 1.351 . S
C902 H907 0.930 . S
O903 Cu897 1.974 . S
O903 C913 1.282 . S
C904 O905 1.261 . S
C904 O917 1.251 . S
O905 C904 1.261 . S
H906 C900 0.930 . S
H907 C902 0.930 . S
N908 Cu897 1.985 . S
N908 C910 1.335 . S
N908 C911 1.390 . S
N909 C910 1.345 . S
N909 C912 1.336 . S
C910 N908 1.335 . S
C910 N909 1.345 . S
C910 H915 0.930 . S
C911 N908 1.390 . S
C911 C912 1.346 . S
C911 H916 0.930 . S
C912 N909 1.336 . S
C912 C911 1.346 . S
C912 H919 0.929 . S
C913 O903 1.282 . S
C913 O914 1.216 . S
O914 C913 1.216 . S
H915 C910 0.930 . S
H916 C911 0.930 . S
O917 Cu897 1.959 . S
O917 C904 1.251 . S
H918 C901 0.930 . S
H919 C912 0.929 . S
Cu920 N921 1.999 . S
Cu920 O926 1.974 . S
Cu920 N931 1.985 . S
Cu920 O940 1.959 . S
N921 Cu920 1.999 . S
N921 C923 1.263 . S
N921 C925 1.389 . S
N922 C923 1.358 . S
N922 C924 1.400 . S
C923 N921 1.263 . S
C923 N922 1.358 . S
C923 H929 0.930 . S
C924 N922 1.400 . S
C924 C925 1.351 . S
C924 H941 0.930 . S
C925 N921 1.389 . S
C925 C924 1.351 . S
C925 H930 0.930 . S
O926 Cu920 1.974 . S
O926 C936 1.282 . S
C927 O928 1.261 . S
C927 O940 1.251 . S
O928 C927 1.261 . S
H929 C923 0.930 . S
H930 C925 0.930 . S
N931 Cu920 1.985 . S
N931 C933 1.335 . S
N931 C934 1.390 . S
N932 C933 1.345 . S
N932 C935 1.336 . S
C933 N931 1.335 . S
C933 N932 1.345 . S
C933 H938 0.930 . S
C934 N931 1.390 . S
C934 C935 1.346 . S
C934 H939 0.930 . S
C935 N932 1.336 . S
C935 C934 1.346 . S
C935 H942 0.929 . S
C936 O926 1.282 . S
C936 O937 1.216 . S
O937 C936 1.216 . S
H938 C933 0.930 . S
H939 C934 0.930 . S
O940 Cu920 1.959 . S
O940 C927 1.251 . S
H941 C924 0.930 . S
H942 C935 0.929 . S
Cu943 N944 1.999 . S
Cu943 O949 1.974 . S
Cu943 N954 1.985 . S
Cu943 O963 1.959 . S
N944 Cu943 1.999 . S
N944 C946 1.263 . S
N944 C948 1.389 . S
N945 C946 1.358 . S
N945 C947 1.400 . S
C946 N944 1.263 . S
C946 N945 1.358 . S
C946 H952 0.930 . S
C947 N945 1.400 . S
C947 C948 1.351 . S
C947 H964 0.930 . S
C948 N944 1.389 . S
C948 C947 1.351 . S
C948 H953 0.930 . S
O949 Cu943 1.974 . S
O949 C959 1.282 . S
C950 O951 1.261 . S
C950 O963 1.251 . S
O951 C950 1.261 . S
H952 C946 0.930 . S
H953 C948 0.930 . S
N954 Cu943 1.985 . S
N954 C956 1.335 . S
N954 C957 1.390 . S
N955 C956 1.345 . S
N955 C958 1.336 . S
C956 N954 1.335 . S
C956 N955 1.345 . S
C956 H961 0.930 . S
C957 N954 1.390 . S
C957 C958 1.346 . S
C957 H962 0.930 . S
C958 N955 1.336 . S
C958 C957 1.346 . S
C958 H965 0.929 . S
C959 O949 1.282 . S
C959 O960 1.216 . S
O960 C959 1.216 . S
H961 C956 0.930 . S
H962 C957 0.930 . S
O963 Cu943 1.959 . S
O963 C950 1.251 . S
H964 C947 0.930 . S
H965 C958 0.929 . S
Cu966 N967 1.999 . S
Cu966 O972 1.974 1_545 S
Cu966 N977 1.985 1_545 S
Cu966 O986 1.959 . S
N967 Cu966 1.999 . S
N967 C969 1.263 . S
N967 C971 1.389 . S
N968 C969 1.358 . S
N968 C970 1.400 . S
C969 N967 1.263 . S
C969 N968 1.358 . S
C969 H975 0.930 . S
C970 N968 1.400 . S
C970 C971 1.351 . S
C970 H987 0.930 . S
C971 N967 1.389 . S
C971 C970 1.351 . S
C971 H976 0.930 . S
O972 Cu966 1.974 1_565 S
O972 C982 1.282 . S
C973 O974 1.261 . S
C973 O986 1.251 . S
O974 C973 1.261 . S
H975 C969 0.930 . S
H976 C971 0.930 . S
N977 Cu966 1.985 1_565 S
N977 C979 1.335 . S
N977 C980 1.390 . S
N978 C979 1.345 . S
N978 C981 1.336 . S
C979 N977 1.335 . S
C979 N978 1.345 . S
C979 H984 0.930 . S
C980 N977 1.390 . S
C980 C981 1.346 . S
C980 H985 0.930 . S
C981 N978 1.336 . S
C981 C980 1.346 . S
C981 H988 0.929 . S
C982 O972 1.282 . S
C982 O983 1.216 . S
O983 C982 1.216 . S
H984 C979 0.930 . S
H985 C980 0.930 . S
O986 Cu966 1.959 . S
O986 C973 1.251 . S
H987 C970 0.930 . S
H988 C981 0.929 . S
Cu989 N990 1.999 . S
Cu989 O995 1.974 . S
Cu989 N1000 1.985 . S
Cu989 O1009 1.959 . S
N990 Cu989 1.999 . S
N990 C992 1.263 . S
N990 C994 1.389 . S
N991 C992 1.358 . S
N991 C993 1.400 . S
C992 N990 1.263 . S
C992 N991 1.358 . S
C992 H998 0.930 . S
C993 N991 1.400 . S
C993 C994 1.351 . S
C993 H1010 0.930 . S
C994 N990 1.389 . S
C994 C993 1.351 . S
C994 H999 0.930 . S
O995 Cu989 1.974 . S
O995 C1005 1.282 . S
C996 O997 1.261 . S
C996 O1009 1.251 . S
O997 C996 1.261 . S
H998 C992 0.930 . S
H999 C994 0.930 . S
N1000 Cu989 1.985 . S
N1000 C1002 1.335 . S
N1000 C1003 1.390 . S
N1001 C1002 1.345 . S
N1001 C1004 1.336 . S
C1002 N1000 1.335 . S
C1002 N1001 1.345 . S
C1002 H1007 0.930 . S
C1003 N1000 1.390 . S
C1003 C1004 1.346 . S
C1003 H1008 0.930 . S
C1004 N1001 1.336 . S
C1004 C1003 1.346 . S
C1004 H1011 0.929 . S
C1005 O995 1.282 . S
C1005 O1006 1.216 . S
O1006 C1005 1.216 . S
H1007 C1002 0.930 . S
H1008 C1003 0.930 . S
O1009 Cu989 1.959 . S
O1009 C996 1.251 . S
H1010 C993 0.930 . S
H1011 C1004 0.929 . S
Cu1012 N1013 1.999 . S
Cu1012 O1018 1.974 1_565 S
Cu1012 N1023 1.985 1_565 S
Cu1012 O1032 1.959 . S
N1013 Cu1012 1.999 . S
N1013 C1015 1.263 . S
N1013 C1017 1.389 . S
N1014 C1015 1.358 . S
N1014 C1016 1.400 . S
C1015 N1013 1.263 . S
C1015 N1014 1.358 . S
C1015 H1021 0.930 . S
C1016 N1014 1.400 . S
C1016 C1017 1.351 . S
C1016 H1033 0.930 . S
C1017 N1013 1.389 . S
C1017 C1016 1.351 . S
C1017 H1022 0.930 . S
O1018 Cu1012 1.974 1_545 S
O1018 C1028 1.282 . S
C1019 O1020 1.261 . S
C1019 O1032 1.251 . S
O1020 C1019 1.261 . S
H1021 C1015 0.930 . S
H1022 C1017 0.930 . S
N1023 Cu1012 1.985 1_545 S
N1023 C1025 1.335 . S
N1023 C1026 1.390 . S
N1024 C1025 1.350 . S
N1024 C1027 1.349 . S
C1025 N1023 1.335 . S
C1025 N1024 1.350 . S
C1025 H1030 0.930 1_455 S
C1026 N1023 1.390 . S
C1026 C1027 1.346 . S
C1026 H1031 0.930 . S
C1027 N1024 1.349 . S
C1027 C1026 1.346 . S
C1027 H1034 0.929 . S
C1028 O1018 1.282 . S
C1028 O1029 1.216 . S
O1029 C1028 1.216 . S
H1030 C1025 0.930 1_655 S
H1031 C1026 0.930 . S
O1032 Cu1012 1.959 . S
O1032 C1019 1.251 . S
H1033 C1016 0.930 . S
H1034 C1027 0.929 . S
Cu1035 N1036 1.999 . S
Cu1035 O1041 1.974 . S
Cu1035 N1046 1.985 . S
Cu1035 O1055 1.959 . S
N1036 Cu1035 1.999 . S
N1036 C1038 1.263 . S
N1036 C1040 1.389 . S
N1037 C1038 1.358 . S
N1037 C1039 1.400 . S
C1038 N1036 1.263 . S
C1038 N1037 1.358 . S
C1038 H1044 0.930 . S
C1039 N1037 1.400 . S
C1039 C1040 1.351 . S
C1039 H1056 0.930 . S
C1040 N1036 1.389 . S
C1040 C1039 1.351 . S
C1040 H1045 0.930 . S
O1041 Cu1035 1.974 . S
O1041 C1051 1.282 . S
C1042 O1043 1.261 . S
C1042 O1055 1.251 . S
O1043 C1042 1.261 . S
H1044 C1038 0.930 . S
H1045 C1040 0.930 . S
N1046 Cu1035 1.985 . S
N1046 C1048 1.335 . S
N1046 C1049 1.390 . S
N1047 C1048 1.345 . S
N1047 C1050 1.336 . S
C1048 N1046 1.335 . S
C1048 N1047 1.345 . S
C1048 H1053 0.930 . S
C1049 N1046 1.390 . S
C1049 C1050 1.346 . S
C1049 H1054 0.930 . S
C1050 N1047 1.336 . S
C1050 C1049 1.346 . S
C1050 H1057 0.929 . S
C1051 O1041 1.282 . S
C1051 O1052 1.216 . S
O1052 C1051 1.216 . S
H1053 C1048 0.930 . S
H1054 C1049 0.930 . S
O1055 Cu1035 1.959 . S
O1055 C1042 1.251 . S
H1056 C1039 0.930 . S
H1057 C1050 0.929 . S
Cu1058 N1059 1.999 . S
Cu1058 O1064 1.974 1_565 S
Cu1058 N1069 1.985 1_565 S
Cu1058 O1078 1.959 . S
N1059 Cu1058 1.999 . S
N1059 C1061 1.263 . S
N1059 C1063 1.389 . S
N1060 C1061 1.358 . S
N1060 C1062 1.400 . S
C1061 N1059 1.263 . S
C1061 N1060 1.358 . S
C1061 H1067 0.930 . S
C1062 N1060 1.400 . S
C1062 C1063 1.351 . S
C1062 H1079 0.930 . S
C1063 N1059 1.389 . S
C1063 C1062 1.351 . S
C1063 H1068 0.930 . S
O1064 Cu1058 1.974 1_545 S
O1064 C1074 1.282 . S
C1065 O1066 1.261 . S
C1065 O1078 1.251 . S
O1066 C1065 1.261 . S
H1067 C1061 0.930 . S
H1068 C1063 0.930 . S
N1069 Cu1058 1.985 1_545 S
N1069 C1071 1.335 . S
N1069 C1072 1.390 . S
N1070 C1071 1.345 . S
N1070 C1073 1.336 . S
C1071 N1069 1.335 . S
C1071 N1070 1.345 . S
C1071 H1076 0.930 . S
C1072 N1069 1.390 . S
C1072 C1073 1.346 . S
C1072 H1077 0.930 . S
C1073 N1070 1.336 . S
C1073 C1072 1.346 . S
C1073 H1080 0.929 . S
C1074 O1064 1.282 . S
C1074 O1075 1.216 . S
O1075 C1074 1.216 . S
H1076 C1071 0.930 . S
H1077 C1072 0.930 . S
O1078 Cu1058 1.959 . S
O1078 C1065 1.251 . S
H1079 C1062 0.930 . S
H1080 C1073 0.929 . S
Cu1081 N1082 1.999 . S
Cu1081 O1087 1.974 . S
Cu1081 N1092 1.985 . S
Cu1081 O1101 1.959 . S
N1082 Cu1081 1.999 . S
N1082 C1084 1.263 . S
N1082 C1086 1.389 . S
N1083 C1084 1.358 . S
N1083 C1085 1.400 . S
C1084 N1082 1.263 . S
C1084 N1083 1.358 . S
C1084 H1090 0.930 . S
C1085 N1083 1.400 . S
C1085 C1086 1.351 . S
C1085 H1102 0.930 . S
C1086 N1082 1.389 . S
C1086 C1085 1.351 . S
C1086 H1091 0.930 . S
O1087 Cu1081 1.974 . S
O1087 C1097 1.282 . S
C1088 O1089 1.261 . S
C1088 O1101 1.251 . S
O1089 C1088 1.261 . S
H1090 C1084 0.930 . S
H1091 C1086 0.930 . S
N1092 Cu1081 1.985 . S
N1092 C1094 1.335 . S
N1092 C1095 1.390 . S
N1093 C1094 1.345 . S
N1093 C1096 1.336 . S
C1094 N1092 1.335 . S
C1094 N1093 1.345 . S
C1094 H1099 0.930 . S
C1095 N1092 1.390 . S
C1095 C1096 1.346 . S
C1095 H1100 0.930 . S
C1096 N1093 1.336 . S
C1096 C1095 1.346 . S
C1096 H1103 0.929 . S
C1097 O1087 1.282 . S
C1097 O1098 1.216 . S
O1098 C1097 1.216 . S
H1099 C1094 0.930 . S
H1100 C1095 0.930 . S
O1101 Cu1081 1.959 . S
O1101 C1088 1.251 . S
H1102 C1085 0.930 . S
H1103 C1096 0.929 . S
C375 N12 1.720 . S
C1088 N35 1.724 1_554 S
N58 C1042 1.718 . S
N81 C1065 1.695 1_556 S
C398 N104 1.721 . S
N127 C421 1.688 1_554 S
N150 C444 1.719 . S
C1019 N173 1.693 1_556 S
N196 C7 1.720 . S
C30 N219 1.713 . S
C53 N242 1.723 . S
C76 N265 1.688 1_565 S
C99 N288 1.718 . S
N311 C122 1.711 . S
C145 N334 1.721 . S
N357 C168 1.693 1_545 S
N380 C191 1.720 . S
C283 N403 1.723 . S
N426 C306 1.695 1_655 S
N449 C329 1.724 . S
C904 N472 1.721 . S
N495 C789 1.721 . S
C812 N518 1.724 1_455 S
C766 N541 1.688 1_655 S
C927 N564 1.722 . S
N587 C536 1.711 . S
N610 C490 1.724 . S
N633 C513 1.713 . S
N656 C950 1.721 . S
C973 N679 1.719 . S
N702 C996 1.723 . S
C467 N725 1.721 . S
C559 N748 1.722 . S
N771 C582 1.695 1_565 S
N794 C605 1.719 . S
N817 C628 1.719 . S
N840 C651 1.724 . S
N863 C674 1.724 1_565 S
C697 N886 1.721 . S
C720 N909 1.721 . S
C743 N932 1.722 . S
C835 N955 1.719 . S
C858 N978 1.713 . S
N1001 C881 1.718 . S
N1024 C352 1.693 1_455 S
N1047 C237 1.721 . S
C260 N1070 1.711 . S
N1093 C214 1.719 . S
C16 N623 1.566 . S
N554 C39 1.589 . S
C62 N577 1.563 . S
C85 N600 1.588 . S
C108 N117 1.571 . S
N140 C131 1.597 . S
C154 N163 1.568 . S
C177 N94 1.596 . S
C200 N968 1.566 . S
C223 N991 1.592 . S
C246 N462 1.586 . S
C269 N945 1.597 . S
C292 N1060 1.563 . S
N370 C315 1.592 . S
C338 N1083 1.583 . S
N1037 C361 1.596 . S
N209 C384 1.566 . S
C407 N899 1.586 . S
C430 N830 1.588 . S
N853 C453 1.590 . S
C476 N324 1.584 . S
N807 C499 1.583 . S
N738 C522 1.589 . S
N784 C545 1.597 . S
C568 N71 1.587 . S
C591 N2 1.592 . S
N25 C614 1.590 . S
C637 N48 1.592 . S
C660 N669 1.583 . S
N692 C683 1.583 . S
N715 C706 1.586 . S
C729 N646 1.584 . S
N416 C752 1.587 . S
C775 N439 1.588 . S
C798 N1014 1.568 . S
C821 N393 1.583 . S
C844 N508 1.590 . S
C867 N922 1.589 . S
N531 C890 1.571 . S
C913 N485 1.584 . S
N761 C936 1.587 . S
N347 C959 1.568 . S
N278 C982 1.592 . S
C1005 N301 1.563 . S
C1028 N876 1.596 . S
N255 C1051 1.571 . S
C1074 N186 1.592 . S
N232 C1097 1.583 . S
