# Generated by pormake.
# Topology snz, (6)-cn, num edge types: 1
# Building blocks:
#     Node 0, Type 0, BuildingBlock: UKALOJ_clean_sbu_0, # of connection points: 6
#     Node 1, Type 0, BuildingBlock: UKALOJ_clean_sbu_0, # of connection points: 6
#     Node 2, Type 0, BuildingBlock: UKALOJ_clean_sbu_0, # of connection points: 6
#     Node 3, Type 0, BuildingBlock: UKALOJ_clean_sbu_0, # of connection points: 6
#     Node 4, Type 0, BuildingBlock: UKALOJ_clean_sbu_0, # of connection points: 6
#     Node 5, Type 0, BuildingBlock: UKALOJ_clean_sbu_0, # of connection points: 6
#     Node 6, Type 0, BuildingBlock: UKALOJ_clean_sbu_0, # of connection points: 6
#     Node 7, Type 0, BuildingBlock: UKALOJ_clean_sbu_0, # of connection points: 6
#     Node 8, Type 0, BuildingBlock: UKALOJ_clean_sbu_0, # of connection points: 6
#     Edge 9, Type (0, 0), BuildingBlock: OJICUG_clean_linker_0, # of connection points: 2
#     Edge 10, Type (0, 0), BuildingBlock: OJICUG_clean_linker_0, # of connection points: 2
#     Edge 11, Type (0, 0), BuildingBlock: OJICUG_clean_linker_0, # of connection points: 2
#     Edge 12, Type (0, 0), BuildingBlock: OJICUG_clean_linker_0, # of connection points: 2
#     Edge 13, Type (0, 0), BuildingBlock: OJICUG_clean_linker_0, # of connection points: 2
#     Edge 14, Type (0, 0), BuildingBlock: OJICUG_clean_linker_0, # of connection points: 2
#     Edge 15, Type (0, 0), BuildingBlock: OJICUG_clean_linker_0, # of connection points: 2
#     Edge 16, Type (0, 0), BuildingBlock: OJICUG_clean_linker_0, # of connection points: 2
#     Edge 17, Type (0, 0), BuildingBlock: OJICUG_clean_linker_0, # of connection points: 2
#     Edge 18, Type (0, 0), BuildingBlock: OJICUG_clean_linker_0, # of connection points: 2
#     Edge 19, Type (0, 0), BuildingBlock: OJICUG_clean_linker_0, # of connection points: 2
#     Edge 20, Type (0, 0), BuildingBlock: OJICUG_clean_linker_0, # of connection points: 2
#     Edge 21, Type (0, 0), BuildingBlock: OJICUG_clean_linker_0, # of connection points: 2
#     Edge 22, Type (0, 0), BuildingBlock: OJICUG_clean_linker_0, # of connection points: 2
#     Edge 23, Type (0, 0), BuildingBlock: OJICUG_clean_linker_0, # of connection points: 2
#     Edge 24, Type (0, 0), BuildingBlock: OJICUG_clean_linker_0, # of connection points: 2
#     Edge 25, Type (0, 0), BuildingBlock: OJICUG_clean_linker_0, # of connection points: 2
#     Edge 26, Type (0, 0), BuildingBlock: OJICUG_clean_linker_0, # of connection points: 2
#     Edge 27, Type (0, 0), BuildingBlock: OJICUG_clean_linker_0, # of connection points: 2
#     Edge 28, Type (0, 0), BuildingBlock: OJICUG_clean_linker_0, # of connection points: 2
#     Edge 29, Type (0, 0), BuildingBlock: OJICUG_clean_linker_0, # of connection points: 2
#     Edge 30, Type (0, 0), BuildingBlock: OJICUG_clean_linker_0, # of connection points: 2
#     Edge 31, Type (0, 0), BuildingBlock: OJICUG_clean_linker_0, # of connection points: 2
#     Edge 32, Type (0, 0), BuildingBlock: OJICUG_clean_linker_0, # of connection points: 2
#     Edge 33, Type (0, 0), BuildingBlock: OJICUG_clean_linker_0, # of connection points: 2
#     Edge 34, Type (0, 0), BuildingBlock: OJICUG_clean_linker_0, # of connection points: 2
#     Edge 35, Type (0, 0), BuildingBlock: OJICUG_clean_linker_0, # of connection points: 2
# Relax obj value: 0.595
# Max RMSD: 0.317
# Mean RMSD: 0.263
data_MOF--net-snz--node1-UKALOJ_clean_sbu_0--edge1-OJICUG_clean_linker_0
_symmetry_space_group_name_H-M    P1
_symmetry_Int_Tables_number       1
_symmetry_cell_setting            triclinic
loop_
_symmetry_equiv_pos_as_xyz
'x, y, z'
_cell_length_a     37.784212
_cell_length_b     42.404536
_cell_length_c     11.467706
_cell_angle_alpha  90.144632
_cell_angle_beta   90.421119
_cell_angle_gamma 120.55138
loop_
_atom_site_label
_atom_site_type_symbol
_atom_site_fract_x
_atom_site_fract_y
_atom_site_fract_z
_atom_type_partial_charge
Zn0 Zn 0.98011 0.46006 0.21045 0.0
O1 O 0.93887 0.40776 0.14103 0.0
C2 C 0.04373 0.44128 0.29139 0.0
Zn3 Zn 0.02721 0.47153 0.07871 0.0
C4 C 0.94999 0.39725 0.05233 0.0
O5 O 0.98617 0.41729 1.01352 0.0
C6 C 0.05655 0.53618 0.22772 0.0
O7 O -0.00486 0.48899 0.96223 0.0
O8 O 0.95263 0.48129 0.10329 0.0
N9 N 0.0691 0.47641 0.96141 0.0
C10 C 0.07706 0.49272 0.85795 0.0
C11 C 0.09144 0.45073 0.84623 0.0
N12 N 0.08023 0.45152 0.95661 0.0
N13 N 0.08676 0.47456 0.77918 0.0
C14 C 0.93971 0.43301 0.42357 0.0
C15 C 0.95536 0.48466 0.49141 0.0
N16 N 0.93831 0.45265 0.33476 0.0
N17 N 0.94457 0.48386 0.37912 0.0
N18 N 0.95538 0.45375 0.51987 0.0
H19 H 0.90734 0.3805 0.33493 0.0
H20 H 0.90494 0.37882 0.492 0.0
H21 H 0.95103 0.38785 0.4223 0.0
C22 C 0.92502 0.39281 0.4165 0.0
C23 C 0.06958 0.52342 0.82945 0.0
H24 H 0.07002 0.53824 0.90975 0.0
H25 H 0.03949 0.51257 0.78443 0.0
H26 H 0.09374 0.54295 0.76976 0.0
O27 O 0.06662 0.52533 0.13749 0.0
O28 O 0.02251 0.51454 0.27648 0.0
C29 C 0.96426 0.49039 0.99923 0.0
O30 O 0.00995 0.43833 0.32213 0.0
O31 O 0.0577 0.45428 0.1922 0.0
Zn32 Zn 0.5482 0.52406 0.1167 0.0
O33 O 0.49844 0.50959 0.23886 0.0
C34 C 0.50237 0.45545 0.98332 0.0
Zn35 Zn 0.50894 0.52885 0.98457 0.0
C36 C 0.46375 0.50408 0.20273 0.0
O37 O 0.45914 0.50886 0.09608 0.0
C38 C 0.59325 0.5468 0.89946 0.0
O39 O 0.52688 0.58171 0.03832 0.0
O40 O 0.57188 0.58135 0.15876 0.0
N41 N 0.47218 0.53172 0.85948 0.0
C42 C 0.49399 0.55106 0.76816 0.0
C43 C 0.45367 0.49734 0.70797 0.0
N44 N 0.44433 0.49903 0.81965 0.0
N45 N 0.48668 0.52929 0.67501 0.0
C46 C 0.5756 0.50372 0.3369 0.0
C47 C 0.63582 0.54884 0.35898 0.0
N48 N 0.58597 0.52213 0.23689 0.0
N49 N 0.62448 0.54907 0.24776 0.0
N50 N 0.60431 0.52237 0.42037 0.0
H51 H 0.51817 0.45649 0.27874 0.0
H52 H 0.51414 0.47991 0.40427 0.0
H53 H 0.53679 0.45189 0.4188 0.0
C54 C 0.53374 0.47114 0.36003 0.0
C55 C 0.52374 0.59166 0.77126 0.0
H56 H 0.51804 0.60458 0.84731 0.0
H57 H 0.51994 0.60413 0.69074 0.0
H58 H 0.55594 0.59779 0.77384 0.0
O59 O 0.56205 0.54872 0.86754 0.0
O60 O 0.59497 0.53724 1.00219 0.0
C61 C 0.55528 0.59815 0.11334 0.0
O62 O 0.52581 0.46865 0.07181 0.0
O63 O 0.49055 0.47484 0.93096 0.0
Zn64 Zn 0.47144 0.02134 0.07331 0.0
O65 O 0.4487 0.05534 1.02118 0.0
C66 C 0.38984 0.96127 0.15877 0.0
Zn67 Zn 0.43478 0.98062 0.93765 0.0
C68 C 0.42224 0.04512 0.93959 0.0
O69 O 0.40947 0.01409 0.89156 0.0
C70 C 0.48294 0.95577 0.06771 0.0
O71 O 0.48511 0.01192 0.81669 0.0
O72 O 0.51943 0.04963 0.96039 0.0
N73 N 0.3978 0.9435 0.8175 0.0
C74 C 0.40969 0.93712 0.71534 0.0
C75 C 0.35066 0.93001 0.68957 0.0
N76 N 0.35984 0.93678 0.80369 0.0
N77 N 0.3831 0.9334 0.62964 0.0
C78 C 0.48783 0.06198 0.28997 0.0
C79 C 0.53453 0.05355 0.35484 0.0
N80 N 0.50691 0.05837 0.19781 0.0
N81 N 0.53817 0.05584 0.23824 0.0
N82 N 0.50046 0.05377 0.38909 0.0
H83 H 0.4582 0.08831 0.20754 0.0
H84 H 0.45354 0.08483 0.36358 0.0
H85 H 0.42337 0.04509 0.27513 0.0
C86 C 0.45374 0.07042 0.28295 0.0
C87 C 0.45119 0.94135 0.69462 0.0
H88 H 0.46516 0.93869 0.77614 0.0
H89 H 0.47229 0.96827 0.6551 0.0
H90 H 0.44786 0.92 0.63197 0.0
O91 O 0.45859 0.94784 0.98184 0.0
O92 O 0.49452 0.9855 0.12368 0.0
C93 C 0.51724 0.04057 0.85432 0.0
O94 O 0.42078 0.99128 0.19244 0.0
O95 O 0.38787 0.95095 0.05434 0.0
Zn96 Zn 0.68267 0.83075 0.20986 0.0
O97 O 0.71379 0.88785 0.2279 0.0
C98 C 0.64864 0.82234 0.45497 0.0
Zn99 Zn 0.61992 0.82272 0.20992 0.0
C100 C 0.69053 0.90089 0.24301 0.0
O101 O 0.65201 0.87994 0.23194 0.0
C102 C 0.61262 0.75142 0.19255 0.0
O103 O 0.62201 0.82551 1.02164 0.0
O104 O 0.68423 0.8342 1.02208 0.0
N105 N 0.56719 0.82552 0.21077 0.0
C106 C 0.55915 0.84848 0.14999 0.0
C107 C 0.51681 0.82773 0.29048 0.0
N108 N 0.54076 0.81262 0.29792 0.0
N109 N 0.52777 0.85022 0.19813 0.0
C110 C 0.76629 0.84203 0.28954 0.0
C111 C 0.77506 0.80923 0.16715 0.0
N112 N 0.7369 0.83176 0.20718 0.0
N113 N 0.74324 0.81232 0.12868 0.0
N114 N 0.78991 0.82723 0.26931 0.0
H115 H 0.75315 0.87835 0.38925 0.0
H116 H 0.80257 0.88274 0.41793 0.0
H117 H 0.75732 0.84404 0.4722 0.0
C118 C 0.76967 0.86316 0.39803 0.0
C119 C 0.58401 0.87179 0.04955 0.0
H120 H 0.61657 0.87953 0.05585 0.0
H121 H 0.58273 0.8973 0.04409 0.0
H122 H 0.57101 0.85611 0.96734 0.0
O123 O 0.58886 0.76459 0.19469 0.0
O124 O 0.65133 0.77297 0.19694 0.0
C125 C 0.65308 0.83003 0.96506 0.0
O126 O 0.67964 0.82647 0.39863 0.0
O127 O 0.61796 0.81909 0.39763 0.0
Zn128 Zn 0.1538 0.83336 0.41474 0.0
O129 O 0.09092 0.7971 0.42759 0.0
C130 C 0.16443 0.81252 0.66034 0.0
Zn131 Zn 0.16582 0.78721 0.41581 0.0
C132 C 0.07725 0.76331 0.44353 0.0
O133 O 0.1018 0.75127 0.43883 0.0
C134 C 0.24307 0.85923 0.393 0.0
O135 O 0.16096 0.78542 0.22746 0.0
O136 O 0.15046 0.83157 0.22651 0.0
N137 N 0.17183 0.7415 0.41391 0.0
C138 C 0.1508 0.71067 0.34885 0.0
C139 C 0.18229 0.69939 0.48215 0.0
N140 N 0.19144 0.73441 0.49664 0.0
N141 N 0.15715 0.68414 0.38925 0.0
C142 C 0.15266 0.90328 0.48545 0.0
C143 C 0.11116 0.90421 0.3601 0.0
N144 N 0.1414 0.87475 0.41277 0.0
N145 N 0.11565 0.87536 0.33478 0.0
N146 N 0.13371 0.92171 0.45517 0.0
H147 H 0.16598 0.90299 0.66643 0.0
H148 H 0.20162 0.94414 0.59273 0.0
H149 H 0.20366 0.90287 0.57071 0.0
C150 C 0.18297 0.91389 0.584 0.0
C151 C 0.12189 0.70536 0.25001 0.0
H152 H 0.10625 0.72107 0.26356 0.0
H153 H 0.09816 0.67607 0.23816 0.0
H154 H 0.13973 0.71487 0.16832 0.0
O155 O 0.23028 0.82495 0.39639 0.0
O156 O 0.21751 0.87016 0.40317 0.0
C157 C 0.15541 0.80823 0.17012 0.0
O158 O 0.1568 0.83415 0.60318 0.0
O159 O 0.17143 0.79034 0.60389 0.0
Zn160 Zn 0.13951 0.31654 0.55904 0.0
O161 O 0.16483 0.28265 0.57773 0.0
C162 C 0.16823 0.34507 0.80434 0.0
Zn163 Zn 0.20073 0.36749 0.55983 0.0
C164 C 0.20346 0.29784 0.59097 0.0
O165 O 0.22546 0.33249 0.58373 0.0
C166 C 0.13467 0.38497 0.52838 0.0
O167 O 0.20262 0.36324 0.37205 0.0
O168 O 0.14137 0.31424 0.37044 0.0
N169 N 0.26039 0.41087 0.56226 0.0
C170 C 0.28338 0.43409 0.4774 0.0
C171 C 0.32472 0.43549 0.6071 0.0
N172 N 0.28622 0.41223 0.64352 0.0
N173 N 0.32396 0.44937 0.50215 0.0
C174 C 0.0483 0.26386 0.61459 0.0
C175 C 0.03177 0.21977 0.49507 0.0
N176 N 0.08233 0.27148 0.55538 0.0
N177 N 0.07212 0.24403 0.48147 0.0
N178 N 0.01624 0.2316 0.57825 0.0
H179 H 0.05904 0.27848 0.79425 0.0
H180 H 0.01637 0.28033 0.73639 0.0
H181 H 0.06795 0.31567 0.70135 0.0
C182 C 0.04763 0.286 0.71614 0.0
C183 C 0.26609 0.44392 0.37516 0.0
H184 H 0.23547 0.43991 0.3959 0.0
H185 H 0.2626 0.42632 0.29987 0.0
H186 H 0.28725 0.47279 0.34991 0.0
O187 O 0.17384 0.40142 0.53521 0.0
O188 O 0.11396 0.35043 0.54009 0.0
C189 C 0.17227 0.33837 0.31435 0.0
O190 O 0.13867 0.31936 0.7467 0.0
O191 O 0.19814 0.37051 0.74836 0.0
Zn192 Zn 0.34955 0.20249 0.7796 0.0
O193 O 0.34599 0.20333 0.96738 0.0
C194 C 0.36006 0.13917 0.80308 0.0
Zn195 Zn 0.28834 0.15193 0.77827 0.0
C196 C 0.31597 0.17849 1.02391 0.0
O197 O 0.2859 0.15314 0.96671 0.0
C198 C 0.32277 0.17574 0.53399 0.0
O199 O 0.25541 0.17973 0.76176 0.0
O200 O 0.31585 0.22973 0.75494 0.0
N201 N 0.23592 0.10232 0.77778 0.0
C202 C 0.20707 0.08416 0.69494 0.0
C203 C 0.20012 0.04547 0.82373 0.0
N204 N 0.23105 0.07835 0.85885 0.0
N205 N 0.18465 0.04812 0.72028 0.0
C206 C 0.40949 0.2835 0.83779 0.0
C207 C 0.46578 0.29482 0.75995 0.0
N208 N 0.40281 0.25213 0.78764 0.0
N209 N 0.43789 0.25913 0.73968 0.0
N210 N 0.44842 0.31046 0.82122 0.0
H211 H 0.35273 0.26222 0.93588 0.0
H212 H 0.36627 0.30179 0.84821 0.0
H213 H 0.39366 0.3067 0.98111 0.0
C214 C 0.37856 0.28836 0.90489 0.0
C215 C 0.19875 0.10216 0.59468 0.0
H216 H 0.20512 0.12979 0.62022 0.0
H217 H 0.16633 0.08529 0.5647 0.0
H218 H 0.21893 0.10531 0.52114 0.0
O219 O 0.2921 0.15127 0.59007 0.0
O220 O 0.35304 0.20091 0.59156 0.0
C221 C 0.27695 0.21415 0.74781 0.0
O222 O 0.38205 0.17393 0.80045 0.0
O223 O 0.32131 0.12401 0.79256 0.0
Zn224 Zn 0.76754 0.17397 0.67367 0.0
O225 O 0.70314 0.15532 0.68377 0.0
C226 C 0.76474 0.14409 0.91875 0.0
Zn227 Zn 0.75774 0.11766 0.67293 0.0
C228 C 0.67932 0.12057 0.67898 0.0
O229 O 0.69469 0.10003 0.67244 0.0
C230 C 0.84497 0.1699 0.66503 0.0
O231 O 0.75693 0.12004 0.48584 0.0
O232 O 0.76497 0.17482 0.48437 0.0
N233 N 0.74367 0.06474 0.6584 0.0
C234 C 0.75471 0.04874 0.5758 0.0
C235 C 0.70382 0.00623 0.66591 0.0
N236 N 0.71243 0.03823 0.71554 0.0
N237 N 0.73009 0.01217 0.57847 0.0
C238 C 0.79631 0.25078 0.7746 0.0
C239 C 0.83779 0.28315 0.64161 0.0
N240 N 0.78736 0.22906 0.67959 0.0
N241 N 0.81294 0.24947 0.59678 0.0
N242 N 0.82862 0.2847 0.75407 0.0
H243 H 0.73762 0.2171 0.85593 0.0
H244 H 0.76524 0.26481 0.9021 0.0
H245 H 0.78121 0.23426 0.95261 0.0
C246 C 0.76834 0.24104 0.87697 0.0
C247 C 0.78613 0.06844 0.48295 0.0
H248 H 0.77019 0.0654 0.39842 0.0
H249 H 0.80531 0.05572 0.47246 0.0
H250 H 0.80652 0.09779 0.50292 0.0
O251 O 0.82097 0.13566 0.67399 0.0
O252 O 0.83011 0.19078 0.66324 0.0
C253 C 0.76069 0.14709 0.42837 0.0
O254 O 0.77084 0.17221 0.86206 0.0
O255 O 0.75752 0.1155 0.86183 0.0
Zn256 Zn 0.83228 0.60797 0.65877 0.0
O257 O 0.83894 0.61169 0.84787 0.0
C258 C 0.74704 0.59388 0.68047 0.0
Zn259 Zn 0.83087 0.6596 0.6605 0.0
C260 C 0.83718 0.63665 0.9051 0.0
O261 O 0.83433 0.66103 0.84843 0.0
C262 C 0.8259 0.63103 0.41464 0.0
O263 O 0.89405 0.69104 0.64886 0.0
O264 O 0.89718 0.6411 0.63617 0.0
N265 N 0.82845 0.70621 0.66548 0.0
C266 C 0.84155 0.73407 0.58983 0.0
C267 C 0.80808 0.74274 0.7216 0.0
N268 N 0.80844 0.71206 0.74894 0.0
N269 N 0.82896 0.75733 0.62241 0.0
C270 C 0.84354 0.54382 0.74067 0.0
C271 C 0.87996 0.54268 0.60193 0.0
N272 N 0.84123 0.56396 0.65341 0.0
N273 N 0.86343 0.5627 0.56672 0.0
N274 N 0.86864 0.53089 0.7119 0.0
H275 H 0.78849 0.53374 0.82739 0.0
H276 H 0.83335 0.55205 0.91867 0.0
H277 H 0.80874 0.50499 0.87424 0.0
C278 C 0.81686 0.5329 0.8462 0.0
C279 C 0.86337 0.73694 0.47806 0.0
H280 H 0.88053 0.72226 0.48301 0.0
H281 H 0.88543 0.76599 0.4576 0.0
H282 H 0.8405 0.72533 0.40587 0.0
O283 O 0.82643 0.65703 0.47189 0.0
O284 O 0.82622 0.60534 0.47101 0.0
C285 C 0.91491 0.67575 0.63212 0.0
O286 O 0.76609 0.57607 0.67941 0.0
O287 O 0.76724 0.62846 0.67053 0.0
C288 C 0.02213 0.42925 0.68976 0.0
C289 C 0.06091 0.46146 0.67779 0.0
H290 H 0.95753 0.40294 0.65403 0.0
C291 C 0.06538 0.48709 0.59441 0.0
H292 H 0.01777 0.40832 0.75148 0.0
C293 C 0.0305 0.48498 0.54543 0.0
C294 C -0.00907 0.45589 0.57317 0.0
H295 H 0.09494 0.51165 0.58201 0.0
H296 H 0.03446 0.50682 0.48916 0.0
C297 C 0.98733 0.42678 0.63872 0.0
C298 C 0.54723 0.55982 0.55118 0.0
C299 C 0.52073 0.52993 0.61917 0.0
H300 H 0.59955 0.58331 0.44275 0.0
C301 C 0.53164 0.50362 0.64838 0.0
H302 H 0.54023 0.58098 0.53091 0.0
C303 C 0.56632 0.50536 0.6007 0.0
C304 C 0.58942 0.53247 0.51934 0.0
H305 H 0.51287 0.48123 0.70619 0.0
H306 H 0.57168 0.48286 0.61426 0.0
C307 C 0.58201 0.56171 0.50451 0.0
C308 C 0.42493 0.9564 0.45716 0.0
C309 C 0.40086 0.96045 0.54066 0.0
H310 H 0.4782 0.98325 0.35224 0.0
C311 C 0.40828 -0.00404 0.56685 0.0
H312 H 0.41986 0.92949 0.43602 0.0
C313 C 0.44261 0.02679 0.52332 0.0
C314 C 0.46926 0.02273 0.44977 0.0
H315 H 0.39026 3e-05 0.63166 0.0
H316 H 0.44866 0.05378 0.54776 0.0
C317 C 0.45936 0.9872 0.41423 0.0
C318 C 0.61732 0.82353 0.64825 0.0
C319 C 0.64917 0.82333 0.58575 0.0
H320 H 0.59351 0.82589 0.81539 0.0
C321 C 0.68228 0.82548 0.64981 0.0
H322 H 0.5913 0.822 0.60254 0.0
C323 C 0.68385 0.82823 0.77204 0.0
C324 C 0.65212 0.82857 0.83448 0.0
H325 H 0.70707 0.82489 0.60578 0.0
H326 H 0.70986 0.82971 0.81768 0.0
C327 C 0.61871 0.826 0.77072 0.0
C328 C 0.15291 0.83495 0.85314 0.0
C329 C 0.16293 0.81186 0.79101 0.0
H330 H 0.14248 0.85188 1.01964 0.0
C331 C 0.16983 0.78717 0.85514 0.0
H332 H 0.14696 0.85408 0.80734 0.0
C333 C 0.16689 0.78568 0.97742 0.0
C334 C 0.15694 0.80882 0.0395 0.0
H335 H 0.17741 0.7688 0.81085 0.0
H336 H 0.17276 0.7665 1.02332 0.0
C337 C 0.15007 0.83352 0.97538 0.0
C338 C 0.20536 0.36662 0.99854 0.0
C339 C 0.16905 0.34382 0.93502 0.0
H340 H 0.23549 0.38159 0.16525 0.0
C341 C 0.13422 0.31832 0.99758 0.0
H342 H 0.23308 0.38612 0.95381 0.0
C343 C 0.13545 0.31612 0.11978 0.0
C344 C 0.17169 0.33913 0.18345 0.0
H345 H 0.10581 0.29997 0.9523 0.0
H346 H 0.10776 0.29653 0.16442 0.0
C347 C 0.20673 0.36408 0.12056 0.0
C348 C 0.29077 0.14628 0.33936 0.0
C349 C 0.32194 0.17605 0.40313 0.0
H350 H 0.26399 0.12378 0.17177 0.0
C351 C 0.35115 0.20671 0.34035 0.0
H352 H 0.26822 0.12187 0.38356 0.0
C353 C 0.34896 0.20768 0.21795 0.0
C354 C 0.31738 0.17808 0.15453 0.0
H355 H 0.37557 0.23023 0.38584 0.0
H356 H 0.37206 0.23176 0.173 0.0
C357 C 0.28837 0.14735 0.21721 0.0
C358 C 0.78088 0.1789 0.23388 0.0
C359 C 0.76142 0.1463 0.29804 0.0
H360 H 0.79983 0.20371 0.06647 0.0
C361 C 0.74425 0.1128 0.23642 0.0
H362 H 0.79534 0.20518 0.27827 0.0
C363 C 0.74573 0.11197 0.11391 0.0
C364 C 0.76479 0.14463 0.04955 0.0
H365 H 0.72912 0.08709 0.28288 0.0
H366 H 0.73147 0.08569 0.06959 0.0
C367 C 0.78304 0.17805 0.11178 0.0
C368 C 0.83903 0.60963 0.2226 0.0
C369 C 0.82792 0.63203 0.28413 0.0
H370 H 0.85255 0.59467 0.05767 0.0
C371 C 0.82102 0.65669 0.21981 0.0
H372 H 0.84535 0.59076 0.26889 0.0
C373 C 0.82467 0.65857 0.09764 0.0
C374 C 0.83557 0.636 1.03594 0.0
H375 H 0.8125 0.67444 0.26375 0.0
H376 H 0.81848 0.67753 0.05143 0.0
C377 C 0.84309 0.6118 0.1007 0.0
C378 C 0.13295 0.43522 0.41858 0.0
C379 C 0.11285 0.40397 0.48863 0.0
H380 H 0.12658 0.47115 0.30056 0.0
C381 C 0.07003 0.38747 0.50371 0.0
H382 H 0.16574 0.44841 0.40434 0.0
C383 C 0.04755 0.40063 0.44458 0.0
C384 C 0.06734 0.43021 0.36791 0.0
H385 H 0.05359 0.36331 0.55725 0.0
H386 H 0.01451 0.38646 0.45418 0.0
C387 C 0.11039 0.44797 0.35811 0.0
C388 C 0.60748 0.65974 0.19472 0.0
C389 C 0.5688 0.63664 0.1437 0.0
H390 H 0.65173 0.71428 0.24938 0.0
C391 C 0.54349 0.65111 0.11589 0.0
H392 H 0.62762 0.6494 0.21718 0.0
C393 C 0.55697 0.68809 0.13577 0.0
C394 C 0.59635 0.71155 0.18199 0.0
H395 H 0.51334 0.63391 0.07714 0.0
H396 H 0.53712 0.69854 0.11123 0.0
C397 C 0.62126 0.69689 0.2127 0.0
C398 C 0.33732 0.94912 0.3118 0.0
C399 C 0.35732 0.93659 0.23913 0.0
H400 H 0.28494 0.934 0.4195 0.0
C401 C 0.34322 0.89892 0.23353 0.0
H402 H 0.34788 0.97808 0.31784 0.0
C403 C 0.30802 0.87383 0.29317 0.0
C404 C 0.28563 0.88589 0.35744 0.0
H405 H 0.35855 0.88871 0.17887 0.0
H406 H 0.29675 0.84487 0.28165 0.0
C407 C 0.30144 0.92388 0.36985 0.0
C408 C 0.42936 0.10711 0.92798 0.0
C409 C 0.40739 0.06956 0.89937 0.0
H410 H 0.4322 0.15884 0.9172 0.0
C411 C 0.37133 0.05576 0.83177 0.0
H412 H 0.45752 0.11864 0.97897 0.0
C413 C 0.35666 0.07872 0.79756 0.0
C414 C 0.37822 0.11612 0.828 0.0
H415 H 0.35387 0.02704 0.80769 0.0
H416 H 0.32809 0.06707 0.74845 0.0
C417 C 0.41513 0.13023 0.89168 0.0
C418 C 0.87934 0.34943 0.79658 0.0
C419 C 0.85573 0.31312 0.83518 0.0
H420 H 0.92756 0.4042 0.83623 0.0
C421 C 0.86368 0.30461 0.94773 0.0
H422 H 0.87428 0.35684 0.71036 0.0
C423 C 0.89426 0.3318 1.01964 0.0
C424 C 0.91842 0.36763 0.97863 0.0
H425 H 0.84776 0.27678 0.97874 0.0
H426 H 0.89978 0.32466 0.10578 0.0
C427 C 0.91026 0.37632 0.8675 0.0
C428 C 0.68403 0.54436 0.7765 0.0
C429 C 0.70297 0.57649 0.71057 0.0
H430 H 0.63403 0.50993 0.8881 0.0
C431 C 0.68188 0.59564 0.69194 0.0
H432 H 0.69941 0.52909 0.79277 0.0
C433 C 0.64437 0.58468 0.74663 0.0
C434 C 0.62749 0.5545 0.82106 0.0
H435 H 0.69559 0.62043 0.64063 0.0
H436 H 0.63002 0.60109 0.73667 0.0
C437 C 0.64679 0.53365 0.83188 0.0
C438 C 0.89913 0.52987 0.90322 0.0
C439 C 0.88987 0.51819 0.78631 0.0
H440 H 0.92967 0.53007 0.06135 0.0
C441 C 0.90682 0.49816 0.73866 0.0
H442 H 0.88914 0.54719 0.94183 0.0
C443 C 0.9323 0.49006 0.8061 0.0
C444 C 0.94063 0.50127 0.92329 0.0
H445 H 0.90061 0.48917 0.64863 0.0
H446 H 0.9447 0.47439 0.76762 0.0
C447 C 0.92348 0.5209 0.97129 0.0
C448 C 0.50677 0.39836 0.98666 0.0
C449 C 0.49012 0.41858 0.93843 0.0
H450 H 0.50672 0.34759 0.98409 0.0
C451 C 0.4621 0.40352 0.8447 0.0
H452 H 0.52868 0.40936 0.05829 0.0
C453 C 0.44997 0.36855 0.80275 0.0
C454 C 0.46586 0.34817 0.85277 0.0
H455 H 0.44894 0.41844 0.80495 0.0
H456 H 0.42733 0.35687 0.73306 0.0
C457 C 0.49475 0.36337 0.94374 0.0
C458 C 0.6082 0.06608 0.66266 0.0
C459 C 0.63441 0.103 0.69584 0.0
H460 H 0.54947 0.0172 0.68458 0.0
C461 C 0.61836 0.12056 0.76215 0.0
H462 H 0.61969 0.0519 0.61057 0.0
C463 C 0.57842 0.10054 0.80533 0.0
C464 C 0.55358 0.06281 0.7813 0.0
H465 H 0.63769 0.14888 0.78903 0.0
H466 H 0.56788 0.11406 0.864 0.0
C467 C 0.56791 0.04619 0.70428 0.0
C468 C 0.51102 0.92996 0.21534 0.0
C469 C 0.49532 0.92917 0.10314 0.0
H470 H 0.53282 0.90428 0.33455 0.0
C471 C 0.48894 0.90097 1.02528 0.0
H472 H 0.51592 0.95111 0.27751 0.0
C473 C 0.49844 0.87446 0.05808 0.0
C474 C 0.5141 0.87527 0.16966 0.0
H475 H 0.47681 0.89945 0.93825 0.0
H476 H 0.49409 0.85346 0.99598 0.0
C477 C 0.5201 0.90301 0.24856 0.0
C478 C 0.10144 0.62093 0.42192 0.0
C479 C 0.13512 0.64618 0.35623 0.0
H480 H 0.04948 0.56655 0.4319 0.0
C481 C 0.1436 0.63501 0.2503 0.0
H482 H 0.09402 0.62949 0.50266 0.0
C483 C 0.11859 0.59904 0.21001 0.0
C484 C 0.08408 0.57376 0.274 0.0
H485 H 0.16904 0.65445 0.19771 0.0
H486 H 0.12571 0.59135 0.12712 0.0
C487 C 0.07593 0.58509 0.38089 0.0
C488 C 0.43249 0.50416 0.39559 0.0
C489 C 0.42817 0.49102 0.28084 0.0
H490 H 0.40144 0.50257 0.55409 0.0
C491 C 0.38877 0.46578 0.23794 0.0
H492 H 0.46248 0.52416 0.42971 0.0
C493 C 0.35446 0.45297 0.30925 0.0
C494 C 0.35844 0.46605 0.42413 0.0
H495 H 0.38463 0.45502 0.14991 0.0
H496 H 0.32519 0.43163 0.27558 0.0
C497 C 0.39778 0.49202 0.46617 0.0
C498 C 0.7791 0.76448 0.50843 0.0
C499 C 0.81999 0.77833 0.54314 0.0
H500 H 0.73802 0.76932 0.39126 0.0
C501 C 0.85152 0.80962 0.48876 0.0
H502 H 0.75453 0.74004 0.54808 0.0
C503 C 0.84207 0.82624 0.39788 0.0
C504 C 0.80115 0.81139 0.3615 0.0
H505 H 0.88325 0.8205 0.51495 0.0
H506 H 0.86637 0.85015 0.35532 0.0
C507 C 0.7698 0.78077 0.41829 0.0
C508 C 0.13452 0.98297 0.68794 0.0
C509 C 0.16258 0.01747 0.64211 0.0
H510 H 0.10344 0.9247 0.66245 0.0
C511 C 0.17541 0.01959 0.52585 0.0
H512 H 0.12456 0.98053 0.77746 0.0
C513 C 0.16267 0.98783 0.46012 0.0
C514 C 0.13771 0.95357 0.5102 0.0
H515 H 0.19831 0.04521 0.48866 0.0
H516 H 0.17516 0.98983 0.37395 0.0
C517 C 0.12249 0.9512 0.62277 0.0
C518 C 0.91379 0.22264 0.61782 0.0
C519 C 0.88942 0.18559 0.64827 0.0
H520 H 0.97319 0.26581 0.56758 0.0
C521 C 0.90756 0.16377 0.65577 0.0
H522 H 0.90067 0.24006 0.60922 0.0
C523 C 0.94949 0.17896 0.63368 0.0
C524 C 0.97361 0.21603 0.60437 0.0
H525 H 0.8894 0.13504 0.67778 0.0
H526 H 0.96316 0.16192 0.63949 0.0
C527 C 0.95532 0.23752 0.59463 0.0
C528 C 0.215 0.21848 0.69378 0.0
C529 C 0.2577 0.23557 0.71152 0.0
H530 H 0.16439 0.22456 0.64004 0.0
C531 C 0.28241 0.27299 0.68548 0.0
H532 H 0.19512 0.18961 0.71161 0.0
C533 C 0.26488 0.29295 0.64376 0.0
C534 C 0.2222 0.27595 0.62638 0.0
H535 H 0.31547 0.28694 0.69596 0.0
H536 H 0.28486 0.32179 0.62574 0.0
C537 C 0.19744 0.23845 0.6516 0.0
C538 C 0.67815 0.94817 0.3291 0.0
C539 C 0.70569 0.9359 0.30586 0.0
H540 H 0.66434 0.98168 0.43754 0.0
C541 C 0.74349 0.95201 0.36655 0.0
H542 H 0.64883 0.93642 0.2838 0.0
C543 C 0.75194 0.9776 0.45543 0.0
C544 C 0.72279 0.98736 0.48422 0.0
H545 H 0.76527 0.94303 0.35124 0.0
H546 H 0.78034 0.98863 0.50495 0.0
C547 C 0.68656 0.9735 0.41808 0.0
C548 C 0.98069 0.68171 0.56071 0.0
C549 C 0.95742 0.69792 0.59002 0.0
H550 H 0.0369 0.68961 0.48913 0.0
C551 C 0.97332 0.73522 0.56645 0.0
H552 H 0.96898 0.6529 0.57646 0.0
C553 C 0.01143 0.75584 0.51422 0.0
C554 C 0.03492 0.73986 0.48542 0.0
H555 H 0.95606 0.74854 0.58658 0.0
H556 H 0.02274 0.78459 0.49842 0.0
C557 C 0.01926 0.70258 0.50928 0.0
loop_
_geom_bond_atom_site_label_1
_geom_bond_atom_site_label_2
_geom_bond_distance
_geom_bond_site_symmetry_2
_ccdc_geom_bond_type
Zn0 O1 2.055 1_455 S
Zn0 O8 2.046 1_455 S
Zn0 N16 2.036 . S
Zn0 O28 2.053 . S
Zn0 O30 2.066 . S
O1 Zn0 2.055 1_655 S
O1 C4 1.259 . S
C2 O30 1.256 . S
C2 O31 1.244 . S
Zn3 O5 2.046 1_455 S
Zn3 O7 2.055 . S
Zn3 N9 2.036 . S
Zn3 O27 2.066 . S
Zn3 O31 2.053 1_556 S
C4 O1 1.259 . S
C4 O5 1.254 1_554 S
O5 Zn3 2.046 1_655 S
O5 C4 1.254 1_556 S
C6 O27 1.256 1_554 S
C6 O28 1.244 . S
O7 Zn3 2.055 . S
O7 C29 1.259 1_456 S
O8 Zn0 2.046 1_655 S
O8 C29 1.254 . S
N9 Zn3 2.036 . S
N9 C10 1.298 . S
N9 N12 1.398 . S
C10 N9 1.298 . S
C10 N13 1.367 . S
C10 C23 1.481 . S
C11 N12 1.299 . S
C11 N13 1.379 . S
N12 N9 1.398 . S
N12 C11 1.299 . S
N13 C10 1.367 . S
N13 C11 1.379 . S
C14 N16 1.298 . S
C14 N18 1.367 . S
C14 C22 1.481 1_455 S
C15 N17 1.299 . S
C15 N18 1.379 . S
N16 Zn0 2.036 . S
N16 C14 1.298 . S
N16 N17 1.398 . S
N17 C15 1.299 . S
N17 N16 1.398 . S
N18 C14 1.367 . S
N18 C15 1.379 . S
H19 C22 0.980 . S
H20 C22 0.981 . S
H21 C22 0.981 1_455 S
C22 C14 1.481 1_655 S
C22 H19 0.980 . S
C22 H20 0.981 . S
C22 H21 0.981 1_655 S
C23 C10 1.481 . S
C23 H24 0.980 . S
C23 H25 0.981 . S
C23 H26 0.981 . S
H24 C23 0.980 . S
H25 C23 0.981 . S
H26 C23 0.981 . S
O27 Zn3 2.066 . S
O27 C6 1.256 1_556 S
O28 Zn0 2.053 . S
O28 C6 1.244 . S
C29 O7 1.259 1_654 S
C29 O8 1.254 . S
O30 Zn0 2.066 . S
O30 C2 1.256 . S
O31 C2 1.244 . S
O31 Zn3 2.053 1_554 S
Zn32 O33 2.055 . S
Zn32 O40 2.046 . S
Zn32 N48 2.036 . S
Zn32 O60 2.053 . S
Zn32 O62 2.066 . S
O33 Zn32 2.055 . S
O33 C36 1.259 . S
C34 O62 1.256 . S
C34 O63 1.244 1_554 S
Zn35 O37 2.046 . S
Zn35 O39 2.055 . S
Zn35 N41 2.036 . S
Zn35 O59 2.066 . S
Zn35 O63 2.053 . S
C36 O33 1.259 . S
C36 O37 1.254 1_554 S
O37 Zn35 2.046 . S
O37 C36 1.254 1_556 S
C38 O59 1.256 . S
C38 O60 1.244 1_556 S
O39 Zn35 2.055 . S
O39 C61 1.259 1_556 S
O40 Zn32 2.046 . S
O40 C61 1.254 . S
N41 Zn35 2.036 . S
N41 C42 1.298 . S
N41 N44 1.398 . S
C42 N41 1.298 . S
C42 N45 1.367 . S
C42 C55 1.481 . S
C43 N44 1.299 . S
C43 N45 1.379 . S
N44 N41 1.398 . S
N44 C43 1.299 . S
N45 C42 1.367 . S
N45 C43 1.379 . S
C46 N48 1.298 . S
C46 N50 1.367 . S
C46 C54 1.481 . S
C47 N49 1.299 . S
C47 N50 1.379 . S
N48 Zn32 2.036 . S
N48 C46 1.298 . S
N48 N49 1.398 . S
N49 C47 1.299 . S
N49 N48 1.398 . S
N50 C46 1.367 . S
N50 C47 1.379 . S
H51 C54 0.980 . S
H52 C54 0.981 . S
H53 C54 0.981 . S
C54 C46 1.481 . S
C54 H51 0.980 . S
C54 H52 0.981 . S
C54 H53 0.981 . S
C55 C42 1.481 . S
C55 H56 0.980 . S
C55 H57 0.981 . S
C55 H58 0.981 . S
H56 C55 0.980 . S
H57 C55 0.981 . S
H58 C55 0.981 . S
O59 Zn35 2.066 . S
O59 C38 1.256 . S
O60 Zn32 2.053 . S
O60 C38 1.244 1_554 S
C61 O39 1.259 1_554 S
C61 O40 1.254 . S
O62 Zn32 2.066 . S
O62 C34 1.256 . S
O63 C34 1.244 1_556 S
O63 Zn35 2.053 . S
Zn64 O65 2.055 . S
Zn64 O72 2.046 . S
Zn64 N80 2.036 . S
Zn64 O92 2.053 1_545 S
Zn64 O94 2.066 1_545 S
O65 Zn64 2.055 . S
O65 C68 1.259 1_554 S
C66 O94 1.256 . S
C66 O95 1.244 1_554 S
Zn67 O69 2.046 . S
Zn67 O71 2.055 . S
Zn67 N73 2.036 1_545 S
Zn67 O91 2.066 1_545 S
Zn67 O95 2.053 1_545 S
C68 O65 1.259 1_556 S
C68 O69 1.254 . S
O69 Zn67 2.046 . S
O69 C68 1.254 . S
C70 O91 1.256 . S
C70 O92 1.244 1_556 S
O71 Zn67 2.055 . S
O71 C93 1.259 . S
O72 Zn64 2.046 . S
O72 C93 1.254 1_554 S
N73 Zn67 2.036 1_565 S
N73 C74 1.298 . S
N73 N76 1.398 . S
C74 N73 1.298 . S
C74 N77 1.367 . S
C74 C87 1.481 1_565 S
C75 N76 1.299 . S
C75 N77 1.379 . S
N76 N73 1.398 . S
N76 C75 1.299 . S
N77 C74 1.367 . S
N77 C75 1.379 . S
C78 N80 1.298 . S
C78 N82 1.367 . S
C78 C86 1.481 . S
C79 N81 1.299 . S
C79 N82 1.379 . S
N80 Zn64 2.036 . S
N80 C78 1.298 . S
N80 N81 1.398 . S
N81 C79 1.299 . S
N81 N80 1.398 . S
N82 C78 1.367 . S
N82 C79 1.379 . S
H83 C86 0.980 . S
H84 C86 0.981 . S
H85 C86 0.981 . S
C86 C78 1.481 . S
C86 H83 0.980 . S
C86 H84 0.981 . S
C86 H85 0.981 . S
C87 C74 1.481 1_545 S
C87 H88 0.980 . S
C87 H89 0.981 . S
C87 H90 0.981 1_545 S
H88 C87 0.980 . S
H89 C87 0.981 . S
H90 C87 0.981 1_565 S
O91 Zn67 2.066 1_565 S
O91 C70 1.256 . S
O92 Zn64 2.053 1_565 S
O92 C70 1.244 1_554 S
C93 O71 1.259 . S
C93 O72 1.254 1_556 S
O94 Zn64 2.066 1_565 S
O94 C66 1.256 . S
O95 C66 1.244 1_556 S
O95 Zn67 2.053 1_565 S
Zn96 O97 2.055 . S
Zn96 O104 2.046 . S
Zn96 N112 2.036 . S
Zn96 O124 2.053 . S
Zn96 O126 2.066 . S
O97 Zn96 2.055 . S
O97 C100 1.259 . S
C98 O126 1.256 . S
C98 O127 1.244 . S
Zn99 O101 2.046 . S
Zn99 O103 2.055 . S
Zn99 N105 2.036 . S
Zn99 O123 2.066 . S
Zn99 O127 2.053 . S
C100 O97 1.259 . S
C100 O101 1.254 . S
O101 Zn99 2.046 . S
O101 C100 1.254 . S
C102 O123 1.256 . S
C102 O124 1.244 . S
O103 Zn99 2.055 . S
O103 C125 1.259 1_554 S
O104 Zn96 2.046 . S
O104 C125 1.254 1_554 S
N105 Zn99 2.036 . S
N105 C106 1.298 . S
N105 N108 1.398 . S
C106 N105 1.298 . S
C106 N109 1.367 . S
C106 C119 1.481 1_554 S
C107 N108 1.299 . S
C107 N109 1.379 . S
N108 N105 1.398 . S
N108 C107 1.299 . S
N109 C106 1.367 . S
N109 C107 1.379 . S
C110 N112 1.298 . S
C110 N114 1.367 . S
C110 C118 1.481 . S
C111 N113 1.299 . S
C111 N114 1.379 . S
N112 Zn96 2.036 . S
N112 C110 1.298 . S
N112 N113 1.398 . S
N113 C111 1.299 . S
N113 N112 1.398 . S
N114 C110 1.367 . S
N114 C111 1.379 . S
H115 C118 0.980 . S
H116 C118 0.981 . S
H117 C118 0.981 . S
C118 C110 1.481 . S
C118 H115 0.980 . S
C118 H116 0.981 . S
C118 H117 0.981 . S
C119 C106 1.481 1_556 S
C119 H120 0.980 . S
C119 H121 0.981 . S
C119 H122 0.981 . S
H120 C119 0.980 . S
H121 C119 0.981 . S
H122 C119 0.981 . S
O123 Zn99 2.066 . S
O123 C102 1.256 . S
O124 Zn96 2.053 . S
O124 C102 1.244 . S
C125 O103 1.259 1_556 S
C125 O104 1.254 1_556 S
O126 Zn96 2.066 . S
O126 C98 1.256 . S
O127 C98 1.244 . S
O127 Zn99 2.053 . S
Zn128 O129 2.055 . S
Zn128 O136 2.046 . S
Zn128 N144 2.036 . S
Zn128 O156 2.053 . S
Zn128 O158 2.066 . S
O129 Zn128 2.055 . S
O129 C132 1.259 . S
C130 O158 1.256 . S
C130 O159 1.244 . S
Zn131 O133 2.046 . S
Zn131 O135 2.055 . S
Zn131 N137 2.036 . S
Zn131 O155 2.066 . S
Zn131 O159 2.053 . S
C132 O129 1.259 . S
C132 O133 1.254 . S
O133 Zn131 2.046 . S
O133 C132 1.254 . S
C134 O155 1.256 . S
C134 O156 1.244 . S
O135 Zn131 2.055 . S
O135 C157 1.259 . S
O136 Zn128 2.046 . S
O136 C157 1.254 . S
N137 Zn131 2.036 . S
N137 C138 1.298 . S
N137 N140 1.398 . S
C138 N137 1.298 . S
C138 N141 1.367 . S
C138 C151 1.481 . S
C139 N140 1.299 . S
C139 N141 1.379 . S
N140 N137 1.398 . S
N140 C139 1.299 . S
N141 C138 1.367 . S
N141 C139 1.379 . S
C142 N144 1.298 . S
C142 N146 1.367 . S
C142 C150 1.481 . S
C143 N145 1.299 . S
C143 N146 1.379 . S
N144 Zn128 2.036 . S
N144 C142 1.298 . S
N144 N145 1.398 . S
N145 C143 1.299 . S
N145 N144 1.398 . S
N146 C142 1.367 . S
N146 C143 1.379 . S
H147 C150 0.980 . S
H148 C150 0.981 . S
H149 C150 0.981 . S
C150 C142 1.481 . S
C150 H147 0.980 . S
C150 H148 0.981 . S
C150 H149 0.981 . S
C151 C138 1.481 . S
C151 H152 0.980 . S
C151 H153 0.981 1_554 S
C151 H154 0.981 . S
H152 C151 0.980 . S
H153 C151 0.981 1_556 S
H154 C151 0.981 . S
O155 Zn131 2.066 . S
O155 C134 1.256 . S
O156 Zn128 2.053 . S
O156 C134 1.244 . S
C157 O135 1.259 . S
C157 O136 1.254 . S
O158 Zn128 2.066 . S
O158 C130 1.256 . S
O159 C130 1.244 . S
O159 Zn131 2.053 . S
Zn160 O161 2.055 . S
Zn160 O168 2.046 . S
Zn160 N176 2.036 . S
Zn160 O188 2.053 . S
Zn160 O190 2.066 . S
O161 Zn160 2.055 . S
O161 C164 1.259 . S
C162 O190 1.256 . S
C162 O191 1.244 . S
Zn163 O165 2.046 . S
Zn163 O167 2.055 . S
Zn163 N169 2.036 . S
Zn163 O187 2.066 . S
Zn163 O191 2.053 . S
C164 O161 1.259 . S
C164 O165 1.254 . S
O165 Zn163 2.046 . S
O165 C164 1.254 . S
C166 O187 1.256 . S
C166 O188 1.244 . S
O167 Zn163 2.055 . S
O167 C189 1.259 . S
O168 Zn160 2.046 . S
O168 C189 1.254 . S
N169 Zn163 2.036 . S
N169 C170 1.298 . S
N169 N172 1.398 . S
C170 N169 1.298 . S
C170 N173 1.367 . S
C170 C183 1.481 . S
C171 N172 1.299 . S
C171 N173 1.379 . S
N172 N169 1.398 . S
N172 C171 1.299 . S
N173 C170 1.367 . S
N173 C171 1.379 . S
C174 N176 1.298 . S
C174 N178 1.367 1_455 S
C174 C182 1.481 . S
C175 N177 1.299 1_655 S
C175 N178 1.379 . S
N176 Zn160 2.036 . S
N176 C174 1.298 . S
N176 N177 1.398 . S
N177 C175 1.299 1_455 S
N177 N176 1.398 . S
N178 C174 1.367 1_655 S
N178 C175 1.379 . S
H179 C182 0.980 . S
H180 C182 0.981 . S
H181 C182 0.981 . S
C182 C174 1.481 . S
C182 H179 0.980 . S
C182 H180 0.981 . S
C182 H181 0.981 . S
C183 C170 1.481 . S
C183 H184 0.980 . S
C183 H185 0.981 . S
C183 H186 0.981 . S
H184 C183 0.980 . S
H185 C183 0.981 . S
H186 C183 0.981 . S
O187 Zn163 2.066 . S
O187 C166 1.256 . S
O188 Zn160 2.053 . S
O188 C166 1.244 . S
C189 O167 1.259 . S
C189 O168 1.254 . S
O190 Zn160 2.066 . S
O190 C162 1.256 . S
O191 C162 1.244 . S
O191 Zn163 2.053 . S
Zn192 O193 2.055 . S
Zn192 O200 2.046 . S
Zn192 N208 2.036 . S
Zn192 O220 2.053 . S
Zn192 O222 2.066 . S
O193 Zn192 2.055 . S
O193 C196 1.259 1_556 S
C194 O222 1.256 . S
C194 O223 1.244 . S
Zn195 O197 2.046 . S
Zn195 O199 2.055 . S
Zn195 N201 2.036 . S
Zn195 O219 2.066 . S
Zn195 O223 2.053 . S
C196 O193 1.259 1_554 S
C196 O197 1.254 1_554 S
O197 Zn195 2.046 . S
O197 C196 1.254 1_556 S
C198 O219 1.256 . S
C198 O220 1.244 . S
O199 Zn195 2.055 . S
O199 C221 1.259 . S
O200 Zn192 2.046 . S
O200 C221 1.254 . S
N201 Zn195 2.036 . S
N201 C202 1.298 . S
N201 N204 1.398 . S
C202 N201 1.298 . S
C202 N205 1.367 . S
C202 C215 1.481 . S
C203 N204 1.299 . S
C203 N205 1.379 . S
N204 N201 1.398 . S
N204 C203 1.299 . S
N205 C202 1.367 . S
N205 C203 1.379 . S
C206 N208 1.298 . S
C206 N210 1.367 . S
C206 C214 1.481 1_556 S
C207 N209 1.299 . S
C207 N210 1.379 . S
N208 Zn192 2.036 . S
N208 C206 1.298 . S
N208 N209 1.398 . S
N209 C207 1.299 . S
N209 N208 1.398 . S
N210 C206 1.367 . S
N210 C207 1.379 . S
H211 C214 0.980 . S
H212 C214 0.981 . S
H213 C214 0.981 . S
C214 C206 1.481 1_554 S
C214 H211 0.980 . S
C214 H212 0.981 . S
C214 H213 0.981 . S
C215 C202 1.481 . S
C215 H216 0.980 . S
C215 H217 0.981 . S
C215 H218 0.981 . S
H216 C215 0.980 . S
H217 C215 0.981 . S
H218 C215 0.981 . S
O219 Zn195 2.066 . S
O219 C198 1.256 . S
O220 Zn192 2.053 . S
O220 C198 1.244 . S
C221 O199 1.259 . S
C221 O200 1.254 . S
O222 Zn192 2.066 . S
O222 C194 1.256 . S
O223 C194 1.244 . S
O223 Zn195 2.053 . S
Zn224 O225 2.055 . S
Zn224 O232 2.046 . S
Zn224 N240 2.036 . S
Zn224 O252 2.053 . S
Zn224 O254 2.066 . S
O225 Zn224 2.055 . S
O225 C228 1.259 . S
C226 O254 1.256 . S
C226 O255 1.244 . S
Zn227 O229 2.046 . S
Zn227 O231 2.055 . S
Zn227 N233 2.036 . S
Zn227 O251 2.066 . S
Zn227 O255 2.053 . S
C228 O225 1.259 . S
C228 O229 1.254 . S
O229 Zn227 2.046 . S
O229 C228 1.254 . S
C230 O251 1.256 . S
C230 O252 1.244 . S
O231 Zn227 2.055 . S
O231 C253 1.259 . S
O232 Zn224 2.046 . S
O232 C253 1.254 . S
N233 Zn227 2.036 . S
N233 C234 1.298 . S
N233 N236 1.398 . S
C234 N233 1.298 . S
C234 N237 1.367 1_545 S
C234 C247 1.481 . S
C235 N236 1.299 1_565 S
C235 N237 1.379 . S
N236 N233 1.398 . S
N236 C235 1.299 1_545 S
N237 C234 1.367 1_565 S
N237 C235 1.379 . S
C238 N240 1.298 . S
C238 N242 1.367 . S
C238 C246 1.481 . S
C239 N241 1.299 . S
C239 N242 1.379 . S
N240 Zn224 2.036 . S
N240 C238 1.298 . S
N240 N241 1.398 . S
N241 C239 1.299 . S
N241 N240 1.398 . S
N242 C238 1.367 . S
N242 C239 1.379 . S
H243 C246 0.980 . S
H244 C246 0.981 . S
H245 C246 0.981 1_554 S
C246 C238 1.481 . S
C246 H243 0.980 . S
C246 H244 0.981 . S
C246 H245 0.981 1_556 S
C247 C234 1.481 . S
C247 H248 0.980 . S
C247 H249 0.981 . S
C247 H250 0.981 . S
H248 C247 0.980 . S
H249 C247 0.981 . S
H250 C247 0.981 . S
O251 Zn227 2.066 . S
O251 C230 1.256 . S
O252 Zn224 2.053 . S
O252 C230 1.244 . S
C253 O231 1.259 . S
C253 O232 1.254 . S
O254 Zn224 2.066 . S
O254 C226 1.256 . S
O255 C226 1.244 . S
O255 Zn227 2.053 . S
Zn256 O257 2.055 . S
Zn256 O264 2.046 . S
Zn256 N272 2.036 . S
Zn256 O284 2.053 . S
Zn256 O286 2.066 . S
O257 Zn256 2.055 . S
O257 C260 1.259 . S
C258 O286 1.256 . S
C258 O287 1.244 . S
Zn259 O261 2.046 . S
Zn259 O263 2.055 . S
Zn259 N265 2.036 . S
Zn259 O283 2.066 . S
Zn259 O287 2.053 . S
C260 O257 1.259 . S
C260 O261 1.254 . S
O261 Zn259 2.046 . S
O261 C260 1.254 . S
C262 O283 1.256 . S
C262 O284 1.244 . S
O263 Zn259 2.055 . S
O263 C285 1.259 . S
O264 Zn256 2.046 . S
O264 C285 1.254 . S
N265 Zn259 2.036 . S
N265 C266 1.298 . S
N265 N268 1.398 . S
C266 N265 1.298 . S
C266 N269 1.367 . S
C266 C279 1.481 . S
C267 N268 1.299 . S
C267 N269 1.379 . S
N268 N265 1.398 . S
N268 C267 1.299 . S
N269 C266 1.367 . S
N269 C267 1.379 . S
C270 N272 1.298 . S
C270 N274 1.367 . S
C270 C278 1.481 . S
C271 N273 1.299 . S
C271 N274 1.379 . S
N272 Zn256 2.036 . S
N272 C270 1.298 . S
N272 N273 1.398 . S
N273 C271 1.299 . S
N273 N272 1.398 . S
N274 C270 1.367 . S
N274 C271 1.379 . S
H275 C278 0.980 . S
H276 C278 0.981 1_554 S
H277 C278 0.981 . S
C278 C270 1.481 . S
C278 H275 0.980 . S
C278 H276 0.981 1_556 S
C278 H277 0.981 . S
C279 C266 1.481 . S
C279 H280 0.980 . S
C279 H281 0.981 . S
C279 H282 0.981 . S
H280 C279 0.980 . S
H281 C279 0.981 . S
H282 C279 0.981 . S
O283 Zn259 2.066 . S
O283 C262 1.256 . S
O284 Zn256 2.053 . S
O284 C262 1.244 . S
C285 O263 1.259 . S
C285 O264 1.254 . S
O286 Zn256 2.066 . S
O286 C258 1.256 . S
O287 C258 1.244 . S
O287 Zn259 2.053 . S
C288 C289 1.387 . S
C288 H292 0.950 . S
C288 C297 1.390 . S
C289 C288 1.387 . S
C289 C291 1.387 . S
H290 C297 0.950 . S
C291 C289 1.387 . S
C291 C293 1.390 . S
C291 H295 0.950 . S
H292 C288 0.950 . S
C293 C291 1.390 . S
C293 C294 1.387 . S
C293 H296 0.950 . S
C294 C293 1.387 . S
C294 C297 1.387 . S
H295 C291 0.950 . S
H296 C293 0.950 . S
C297 C288 1.390 . S
C297 H290 0.950 . S
C297 C294 1.387 . S
C298 C299 1.387 . S
C298 H302 0.950 . S
C298 C307 1.390 . S
C299 C298 1.387 . S
C299 C301 1.387 . S
H300 C307 0.950 . S
C301 C299 1.387 . S
C301 C303 1.390 . S
C301 H305 0.950 . S
H302 C298 0.950 . S
C303 C301 1.390 . S
C303 C304 1.387 . S
C303 H306 0.950 . S
C304 C303 1.387 . S
C304 C307 1.387 . S
H305 C301 0.950 . S
H306 C303 0.950 . S
C307 C298 1.390 . S
C307 H300 0.950 . S
C307 C304 1.387 . S
C308 C309 1.387 . S
C308 H312 0.950 . S
C308 C317 1.390 1_565 S
C309 C308 1.387 . S
C309 C311 1.387 . S
H310 C317 0.950 . S
C311 C309 1.387 . S
C311 C313 1.390 1_565 S
C311 H315 0.950 . S
H312 C308 0.950 . S
C313 C311 1.390 1_545 S
C313 C314 1.387 . S
C313 H316 0.950 . S
C314 C313 1.387 . S
C314 C317 1.387 . S
H315 C311 0.950 . S
H316 C313 0.950 . S
C317 C308 1.390 1_545 S
C317 H310 0.950 . S
C317 C314 1.387 . S
C318 C319 1.387 . S
C318 H322 0.950 . S
C318 C327 1.390 . S
C319 C318 1.387 . S
C319 C321 1.387 . S
H320 C327 0.950 . S
C321 C319 1.387 . S
C321 C323 1.390 . S
C321 H325 0.950 . S
H322 C318 0.950 . S
C323 C321 1.390 . S
C323 C324 1.387 . S
C323 H326 0.950 . S
C324 C323 1.387 . S
C324 C327 1.387 . S
H325 C321 0.950 . S
H326 C323 0.950 . S
C327 C318 1.390 . S
C327 H320 0.950 . S
C327 C324 1.387 . S
C328 C329 1.387 . S
C328 H332 0.950 . S
C328 C337 1.390 . S
C329 C328 1.387 . S
C329 C331 1.387 . S
H330 C337 0.950 . S
C331 C329 1.387 . S
C331 C333 1.390 . S
C331 H335 0.950 . S
H332 C328 0.950 . S
C333 C331 1.390 . S
C333 C334 1.387 . S
C333 H336 0.950 . S
C334 C333 1.387 . S
C334 C337 1.387 . S
H335 C331 0.950 . S
H336 C333 0.950 . S
C337 C328 1.390 . S
C337 H330 0.950 . S
C337 C334 1.387 . S
C338 C339 1.387 . S
C338 H342 0.950 . S
C338 C347 1.390 . S
C339 C338 1.387 . S
C339 C341 1.387 . S
H340 C347 0.950 . S
C341 C339 1.387 . S
C341 C343 1.390 . S
C341 H345 0.950 . S
H342 C338 0.950 . S
C343 C341 1.390 . S
C343 C344 1.387 . S
C343 H346 0.950 . S
C344 C343 1.387 . S
C344 C347 1.387 . S
H345 C341 0.950 . S
H346 C343 0.950 . S
C347 C338 1.390 . S
C347 H340 0.950 . S
C347 C344 1.387 . S
C348 C349 1.387 . S
C348 H352 0.950 . S
C348 C357 1.390 . S
C349 C348 1.387 . S
C349 C351 1.387 . S
H350 C357 0.950 . S
C351 C349 1.387 . S
C351 C353 1.390 . S
C351 H355 0.950 . S
H352 C348 0.950 . S
C353 C351 1.390 . S
C353 C354 1.387 . S
C353 H356 0.950 . S
C354 C353 1.387 . S
C354 C357 1.387 . S
H355 C351 0.950 . S
H356 C353 0.950 . S
C357 C348 1.390 . S
C357 H350 0.950 . S
C357 C354 1.387 . S
C358 C359 1.387 . S
C358 H362 0.950 . S
C358 C367 1.390 . S
C359 C358 1.387 . S
C359 C361 1.387 . S
H360 C367 0.950 . S
C361 C359 1.387 . S
C361 C363 1.390 . S
C361 H365 0.950 . S
H362 C358 0.950 . S
C363 C361 1.390 . S
C363 C364 1.387 . S
C363 H366 0.950 . S
C364 C363 1.387 . S
C364 C367 1.387 . S
H365 C361 0.950 . S
H366 C363 0.950 . S
C367 C358 1.390 . S
C367 H360 0.950 . S
C367 C364 1.387 . S
C368 C369 1.387 . S
C368 H372 0.950 . S
C368 C377 1.390 . S
C369 C368 1.387 . S
C369 C371 1.387 . S
H370 C377 0.950 . S
C371 C369 1.387 . S
C371 C373 1.390 . S
C371 H375 0.950 . S
H372 C368 0.950 . S
C373 C371 1.390 . S
C373 C374 1.387 . S
C373 H376 0.950 . S
C374 C373 1.387 . S
C374 C377 1.387 . S
H375 C371 0.950 . S
H376 C373 0.950 . S
C377 C368 1.390 . S
C377 H370 0.950 . S
C377 C374 1.387 . S
C378 C379 1.387 . S
C378 H382 0.950 . S
C378 C387 1.390 . S
C379 C378 1.387 . S
C379 C381 1.387 . S
H380 C387 0.950 . S
C381 C379 1.387 . S
C381 C383 1.390 . S
C381 H385 0.950 . S
H382 C378 0.950 . S
C383 C381 1.390 . S
C383 C384 1.387 . S
C383 H386 0.950 . S
C384 C383 1.387 . S
C384 C387 1.387 . S
H385 C381 0.950 . S
H386 C383 0.950 . S
C387 C378 1.390 . S
C387 H380 0.950 . S
C387 C384 1.387 . S
C388 C389 1.387 . S
C388 H392 0.950 . S
C388 C397 1.390 . S
C389 C388 1.387 . S
C389 C391 1.387 1_554 S
H390 C397 0.950 . S
C391 C389 1.387 1_556 S
C391 C393 1.390 . S
C391 H395 0.950 . S
H392 C388 0.950 . S
C393 C391 1.390 . S
C393 C394 1.387 1_556 S
C393 H396 0.950 . S
C394 C393 1.387 1_554 S
C394 C397 1.387 . S
H395 C391 0.950 . S
H396 C393 0.950 . S
C397 C388 1.390 . S
C397 H390 0.950 . S
C397 C394 1.387 . S
C398 C399 1.387 . S
C398 H402 0.950 . S
C398 C407 1.390 . S
C399 C398 1.387 . S
C399 C401 1.387 . S
H400 C407 0.950 . S
C401 C399 1.387 . S
C401 C403 1.390 . S
C401 H405 0.950 1_554 S
H402 C398 0.950 . S
C403 C401 1.390 . S
C403 C404 1.387 . S
C403 H406 0.950 . S
C404 C403 1.387 . S
C404 C407 1.387 . S
H405 C401 0.950 1_556 S
H406 C403 0.950 . S
C407 C398 1.390 . S
C407 H400 0.950 . S
C407 C404 1.387 . S
C408 C409 1.387 1_554 S
C408 H412 0.950 . S
C408 C417 1.390 . S
C409 C408 1.387 1_556 S
C409 C411 1.387 . S
H410 C417 0.950 . S
C411 C409 1.387 . S
C411 C413 1.390 . S
C411 H415 0.950 . S
H412 C408 0.950 . S
C413 C411 1.390 . S
C413 C414 1.387 . S
C413 H416 0.950 . S
C414 C413 1.387 . S
C414 C417 1.387 1_556 S
H415 C411 0.950 . S
H416 C413 0.950 . S
C417 C408 1.390 . S
C417 H410 0.950 . S
C417 C414 1.387 1_554 S
C418 C419 1.387 . S
C418 H422 0.950 . S
C418 C427 1.390 . S
C419 C418 1.387 . S
C419 C421 1.387 1_556 S
H420 C427 0.950 . S
C421 C419 1.387 1_554 S
C421 C423 1.390 . S
C421 H425 0.950 . S
H422 C418 0.950 . S
C423 C421 1.390 . S
C423 C424 1.387 . S
C423 H426 0.950 . S
C424 C423 1.387 . S
C424 C427 1.387 1_554 S
H425 C421 0.950 . S
H426 C423 0.950 . S
C427 C418 1.390 . S
C427 H420 0.950 . S
C427 C424 1.387 1_556 S
C428 C429 1.387 . S
C428 H432 0.950 . S
C428 C437 1.390 . S
C429 C428 1.387 . S
C429 C431 1.387 . S
H430 C437 0.950 1_554 S
C431 C429 1.387 . S
C431 C433 1.390 . S
C431 H435 0.950 . S
H432 C428 0.950 . S
C433 C431 1.390 . S
C433 C434 1.387 . S
C433 H436 0.950 . S
C434 C433 1.387 . S
C434 C437 1.387 . S
H435 C431 0.950 . S
H436 C433 0.950 . S
C437 C428 1.390 . S
C437 H430 0.950 1_556 S
C437 C434 1.387 . S
C438 C439 1.387 . S
C438 H442 0.950 1_556 S
C438 C447 1.390 1_556 S
C439 C438 1.387 . S
C439 C441 1.387 . S
H440 C447 0.950 . S
C441 C439 1.387 . S
C441 C443 1.390 . S
C441 H445 0.950 . S
H442 C438 0.950 1_554 S
C443 C441 1.390 . S
C443 C444 1.387 . S
C443 H446 0.950 . S
C444 C443 1.387 . S
C444 C447 1.387 1_556 S
H445 C441 0.950 . S
H446 C443 0.950 . S
C447 C438 1.390 1_554 S
C447 H440 0.950 . S
C447 C444 1.387 1_554 S
C448 C449 1.387 . S
C448 H452 0.950 . S
C448 C457 1.390 . S
C449 C448 1.387 . S
C449 C451 1.387 1_556 S
H450 C457 0.950 . S
C451 C449 1.387 1_554 S
C451 C453 1.390 1_554 S
C451 H455 0.950 . S
H452 C448 0.950 . S
C453 C451 1.390 1_556 S
C453 C454 1.387 . S
C453 H456 0.950 . S
C454 C453 1.387 . S
C454 C457 1.387 . S
H455 C451 0.950 . S
H456 C453 0.950 . S
C457 C448 1.390 . S
C457 H450 0.950 . S
C457 C454 1.387 . S
C458 C459 1.387 . S
C458 H462 0.950 . S
C458 C467 1.390 . S
C459 C458 1.387 . S
C459 C461 1.387 . S
H460 C467 0.950 . S
C461 C459 1.387 . S
C461 C463 1.390 . S
C461 H465 0.950 1_556 S
H462 C458 0.950 . S
C463 C461 1.390 . S
C463 C464 1.387 . S
C463 H466 0.950 1_556 S
C464 C463 1.387 . S
C464 C467 1.387 . S
H465 C461 0.950 1_554 S
H466 C463 0.950 1_554 S
C467 C458 1.390 . S
C467 H460 0.950 . S
C467 C464 1.387 . S
C468 C469 1.387 1_556 S
C468 H472 0.950 . S
C468 C477 1.390 . S
C469 C468 1.387 1_554 S
C469 C471 1.387 . S
H470 C477 0.950 . S
C471 C469 1.387 . S
C471 C473 1.390 . S
C471 H475 0.950 . S
H472 C468 0.950 . S
C473 C471 1.390 . S
C473 C474 1.387 . S
C473 H476 0.950 . S
C474 C473 1.387 . S
C474 C477 1.387 1_554 S
H475 C471 0.950 . S
H476 C473 0.950 . S
C477 C468 1.390 . S
C477 H470 0.950 . S
C477 C474 1.387 1_556 S
C478 C479 1.387 . S
C478 H482 0.950 . S
C478 C487 1.390 . S
C479 C478 1.387 . S
C479 C481 1.387 . S
H480 C487 0.950 1_556 S
C481 C479 1.387 . S
C481 C483 1.390 . S
C481 H485 0.950 . S
H482 C478 0.950 . S
C483 C481 1.390 . S
C483 C484 1.387 . S
C483 H486 0.950 . S
C484 C483 1.387 . S
C484 C487 1.387 . S
H485 C481 0.950 . S
H486 C483 0.950 . S
C487 C478 1.390 . S
C487 H480 0.950 1_554 S
C487 C484 1.387 . S
C488 C489 1.387 . S
C488 H492 0.950 . S
C488 C497 1.390 . S
C489 C488 1.387 . S
C489 C491 1.387 . S
H490 C497 0.950 . S
C491 C489 1.387 . S
C491 C493 1.390 . S
C491 H495 0.950 1_554 S
H492 C488 0.950 . S
C493 C491 1.390 . S
C493 C494 1.387 . S
C493 H496 0.950 . S
C494 C493 1.387 . S
C494 C497 1.387 . S
H495 C491 0.950 1_556 S
H496 C493 0.950 . S
C497 C488 1.390 . S
C497 H490 0.950 . S
C497 C494 1.387 . S
C498 C499 1.387 . S
C498 H502 0.950 . S
C498 C507 1.390 . S
C499 C498 1.387 . S
C499 C501 1.387 . S
H500 C507 0.950 . S
C501 C499 1.387 . S
C501 C503 1.390 . S
C501 H505 0.950 . S
H502 C498 0.950 . S
C503 C501 1.390 . S
C503 C504 1.387 . S
C503 H506 0.950 . S
C504 C503 1.387 . S
C504 C507 1.387 . S
H505 C501 0.950 . S
H506 C503 0.950 . S
C507 C498 1.390 . S
C507 H500 0.950 . S
C507 C504 1.387 . S
C508 C509 1.387 1_565 S
C508 H512 0.950 . S
C508 C517 1.390 . S
C509 C508 1.387 1_545 S
C509 C511 1.387 . S
H510 C517 0.950 . S
C511 C509 1.387 . S
C511 C513 1.390 . S
C511 H515 0.950 . S
H512 C508 0.950 . S
C513 C511 1.390 . S
C513 C514 1.387 1_545 S
C513 H516 0.950 . S
C514 C513 1.387 1_565 S
C514 C517 1.387 . S
H515 C511 0.950 . S
H516 C513 0.950 . S
C517 C508 1.390 . S
C517 H510 0.950 . S
C517 C514 1.387 . S
C518 C519 1.387 . S
C518 H522 0.950 . S
C518 C527 1.390 . S
C519 C518 1.387 . S
C519 C521 1.387 . S
H520 C527 0.950 . S
C521 C519 1.387 . S
C521 C523 1.390 . S
C521 H525 0.950 . S
H522 C518 0.950 . S
C523 C521 1.390 . S
C523 C524 1.387 . S
C523 H526 0.950 . S
C524 C523 1.387 . S
C524 C527 1.387 . S
H525 C521 0.950 . S
H526 C523 0.950 . S
C527 C518 1.390 . S
C527 H520 0.950 . S
C527 C524 1.387 . S
C528 C529 1.387 . S
C528 H532 0.950 . S
C528 C537 1.390 . S
C529 C528 1.387 . S
C529 C531 1.387 . S
H530 C537 0.950 . S
C531 C529 1.387 . S
C531 C533 1.390 . S
C531 H535 0.950 . S
H532 C528 0.950 . S
C533 C531 1.390 . S
C533 C534 1.387 . S
C533 H536 0.950 . S
C534 C533 1.387 . S
C534 C537 1.387 . S
H535 C531 0.950 . S
H536 C533 0.950 . S
C537 C528 1.390 . S
C537 H530 0.950 . S
C537 C534 1.387 . S
C538 C539 1.387 . S
C538 H542 0.950 . S
C538 C547 1.390 . S
C539 C538 1.387 . S
C539 C541 1.387 . S
H540 C547 0.950 . S
C541 C539 1.387 . S
C541 C543 1.390 . S
C541 H545 0.950 . S
H542 C538 0.950 . S
C543 C541 1.390 . S
C543 C544 1.387 . S
C543 H546 0.950 . S
C544 C543 1.387 . S
C544 C547 1.387 . S
H545 C541 0.950 . S
H546 C543 0.950 . S
C547 C538 1.390 . S
C547 H540 0.950 . S
C547 C544 1.387 . S
C548 C549 1.387 1_455 S
C548 H552 0.950 . S
C548 C557 1.390 . S
C549 C548 1.387 1_655 S
C549 C551 1.387 . S
H550 C557 0.950 . S
C551 C549 1.387 . S
C551 C553 1.390 . S
C551 H555 0.950 . S
H552 C548 0.950 . S
C553 C551 1.390 . S
C553 C554 1.387 1_655 S
C553 H556 0.950 . S
C554 C553 1.387 1_455 S
C554 C557 1.387 . S
H555 C551 0.950 . S
H556 C553 0.950 . S
C557 C548 1.390 . S
C557 H550 0.950 . S
C557 C554 1.387 . S
C289 N13 0.700 . S
C294 N18 0.739 . S
C299 N45 0.760 . S
C304 N50 0.766 . S
C309 N77 0.806 . S
C314 N82 0.784 . S
C319 C98 2.356 . S
C324 C125 2.376 . S
C329 C130 2.351 . S
C334 C157 2.369 1_556 S
C339 C162 2.342 . S
C344 C189 2.360 1_556 S
C349 C198 2.329 . S
C354 C196 2.345 . S
C359 C253 2.375 . S
C364 C226 2.358 1_554 S
C369 C262 2.379 . S
C374 C260 2.400 1_554 S
C379 C166 1.667 . S
C384 C2 1.640 . S
C389 C61 1.766 . S
C394 C102 1.712 . S
C399 C66 1.811 . S
C404 C134 1.784 . S
C409 C68 1.905 . S
C414 C194 1.870 . S
C419 N242 1.252 . S
C424 C4 1.363 . S
C429 C258 1.803 . S
C434 C38 1.844 . S
C439 N274 1.245 . S
C444 C29 1.297 1_556 S
C449 C34 1.359 1_556 S
C454 N210 1.281 . S
C459 C228 1.709 . S
C464 C93 1.691 . S
C469 C70 1.616 1_554 S
C474 N109 1.355 . S
C479 N141 1.304 . S
C484 C6 1.349 . S
C489 C36 1.507 . S
C494 N173 1.507 . S
C499 N269 0.799 . S
C504 N114 0.801 . S
C509 N205 0.994 . S
C514 N146 1.011 . S
C519 C230 1.194 . S
C524 N178 1.169 . S
C529 C221 1.575 . S
C534 C164 1.560 . S
C539 C100 1.407 . S
C544 N237 1.388 . S
C549 C285 1.247 . S
C554 C132 1.236 . S
