# Generated by pormake.
# Topology wkh, (6)-cn, num edge types: 1
# Building blocks:
#     Node 0, Type 0, BuildingBlock: IZENUY_clean_sbu_0, # of connection points: 6
#     Node 1, Type 0, BuildingBlock: IZENUY_clean_sbu_0, # of connection points: 6
#     Node 2, Type 0, BuildingBlock: IZENUY_clean_sbu_0, # of connection points: 6
#     Node 3, Type 0, BuildingBlock: IZENUY_clean_sbu_0, # of connection points: 6
#     Node 4, Type 0, BuildingBlock: IZENUY_clean_sbu_0, # of connection points: 6
#     Node 5, Type 0, BuildingBlock: IZENUY_clean_sbu_0, # of connection points: 6
#     Node 6, Type 0, BuildingBlock: IZENUY_clean_sbu_0, # of connection points: 6
#     Node 7, Type 0, BuildingBlock: IZENUY_clean_sbu_0, # of connection points: 6
#     Node 8, Type 0, BuildingBlock: IZENUY_clean_sbu_0, # of connection points: 6
#     Node 9, Type 0, BuildingBlock: IZENUY_clean_sbu_0, # of connection points: 6
#     Node 10, Type 0, BuildingBlock: IZENUY_clean_sbu_0, # of connection points: 6
#     Node 11, Type 0, BuildingBlock: IZENUY_clean_sbu_0, # of connection points: 6
#     Edge 12, Type (0, 0), BuildingBlock: XIVTED_clean_linker_0, # of connection points: 2
#     Edge 13, Type (0, 0), BuildingBlock: XIVTED_clean_linker_0, # of connection points: 2
#     Edge 14, Type (0, 0), BuildingBlock: XIVTED_clean_linker_0, # of connection points: 2
#     Edge 15, Type (0, 0), BuildingBlock: XIVTED_clean_linker_0, # of connection points: 2
#     Edge 16, Type (0, 0), BuildingBlock: XIVTED_clean_linker_0, # of connection points: 2
#     Edge 17, Type (0, 0), BuildingBlock: XIVTED_clean_linker_0, # of connection points: 2
#     Edge 18, Type (0, 0), BuildingBlock: XIVTED_clean_linker_0, # of connection points: 2
#     Edge 19, Type (0, 0), BuildingBlock: XIVTED_clean_linker_0, # of connection points: 2
#     Edge 20, Type (0, 0), BuildingBlock: XIVTED_clean_linker_0, # of connection points: 2
#     Edge 21, Type (0, 0), BuildingBlock: XIVTED_clean_linker_0, # of connection points: 2
#     Edge 22, Type (0, 0), BuildingBlock: XIVTED_clean_linker_0, # of connection points: 2
#     Edge 23, Type (0, 0), BuildingBlock: XIVTED_clean_linker_0, # of connection points: 2
#     Edge 24, Type (0, 0), BuildingBlock: XIVTED_clean_linker_0, # of connection points: 2
#     Edge 25, Type (0, 0), BuildingBlock: XIVTED_clean_linker_0, # of connection points: 2
#     Edge 26, Type (0, 0), BuildingBlock: XIVTED_clean_linker_0, # of connection points: 2
#     Edge 27, Type (0, 0), BuildingBlock: XIVTED_clean_linker_0, # of connection points: 2
#     Edge 28, Type (0, 0), BuildingBlock: XIVTED_clean_linker_0, # of connection points: 2
#     Edge 29, Type (0, 0), BuildingBlock: XIVTED_clean_linker_0, # of connection points: 2
#     Edge 30, Type (0, 0), BuildingBlock: XIVTED_clean_linker_0, # of connection points: 2
#     Edge 31, Type (0, 0), BuildingBlock: XIVTED_clean_linker_0, # of connection points: 2
#     Edge 32, Type (0, 0), BuildingBlock: XIVTED_clean_linker_0, # of connection points: 2
#     Edge 33, Type (0, 0), BuildingBlock: XIVTED_clean_linker_0, # of connection points: 2
#     Edge 34, Type (0, 0), BuildingBlock: XIVTED_clean_linker_0, # of connection points: 2
#     Edge 35, Type (0, 0), BuildingBlock: XIVTED_clean_linker_0, # of connection points: 2
#     Edge 36, Type (0, 0), BuildingBlock: XIVTED_clean_linker_0, # of connection points: 2
#     Edge 37, Type (0, 0), BuildingBlock: XIVTED_clean_linker_0, # of connection points: 2
#     Edge 38, Type (0, 0), BuildingBlock: XIVTED_clean_linker_0, # of connection points: 2
#     Edge 39, Type (0, 0), BuildingBlock: XIVTED_clean_linker_0, # of connection points: 2
#     Edge 40, Type (0, 0), BuildingBlock: XIVTED_clean_linker_0, # of connection points: 2
#     Edge 41, Type (0, 0), BuildingBlock: XIVTED_clean_linker_0, # of connection points: 2
#     Edge 42, Type (0, 0), BuildingBlock: XIVTED_clean_linker_0, # of connection points: 2
#     Edge 43, Type (0, 0), BuildingBlock: XIVTED_clean_linker_0, # of connection points: 2
#     Edge 44, Type (0, 0), BuildingBlock: XIVTED_clean_linker_0, # of connection points: 2
#     Edge 45, Type (0, 0), BuildingBlock: XIVTED_clean_linker_0, # of connection points: 2
#     Edge 46, Type (0, 0), BuildingBlock: XIVTED_clean_linker_0, # of connection points: 2
#     Edge 47, Type (0, 0), BuildingBlock: XIVTED_clean_linker_0, # of connection points: 2
# Relax obj value: 0.286
# Max RMSD: 0.257
# Mean RMSD: 0.257
data_MOF--net-wkh--node1-IZENUY_clean_sbu_0--edge1-XIVTED_clean_linker_0
_symmetry_space_group_name_H-M    P1
_symmetry_Int_Tables_number       1
_symmetry_cell_setting            triclinic
loop_
_symmetry_equiv_pos_as_xyz
'x, y, z'
_cell_length_a     26.803827
_cell_length_b     26.823541
_cell_length_c     80.449461
_cell_angle_alpha  89.94263
_cell_angle_beta   89.981597
_cell_angle_gamma 120.2253
loop_
_atom_site_label
_atom_site_type_symbol
_atom_site_fract_x
_atom_site_fract_y
_atom_site_fract_z
_atom_type_partial_charge
Fe0 Fe 0.2259 0.29235 1.01775 0.0
Fe1 Fe 0.33208 0.28095 0.0247 0.0
O2 O 0.294 0.31875 0.02748 0.0
Fe3 Fe 0.3229 0.37943 0.04087 0.0
O4 O 0.25328 0.3654 0.04915 0.0
O5 O 0.18887 0.28317 0.03786 0.0
O6 O 0.20632 0.21736 0.01936 0.0
C7 C 0.2217 0.19454 0.03041 0.0
C8 C 0.27427 0.41453 1.01671 0.0
O9 O 0.27398 0.21744 0.03463 0.0
C10 C 0.42163 0.39033 0.02279 0.0
O11 O 0.25698 0.29851 0.99676 0.0
O12 O 0.3038 0.25434 1.0039 0.0
O13 O 0.31977 0.42675 0.02486 0.0
O14 O 0.23408 0.363 1.01489 0.0
C15 C 0.34976 0.30705 0.05822 0.0
O16 O 0.39207 0.34331 1.01508 0.0
O17 O 0.39918 0.40403 0.03472 0.0
C18 C 0.28486 0.27359 0.99272 0.0
O19 O 0.36882 0.29958 0.04478 0.0
O20 O 0.32407 0.33556 0.05832 0.0
C21 C 0.20344 0.32101 0.04916 0.0
Fe22 Fe 0.95582 0.32699 0.20828 0.0
Fe23 Fe 0.91696 0.23008 0.18204 0.0
O24 O 0.97148 0.295 0.19119 0.0
Fe25 Fe 0.04246 0.32801 0.18317 0.0
O26 O 0.06946 0.31815 0.2027 0.0
O27 O 0.0274 0.35368 0.21838 0.0
O28 O 0.93044 0.26269 0.22086 0.0
C29 C 0.89066 0.21263 0.21711 0.0
C30 C 0.03202 0.42495 0.19129 0.0
O31 O 0.87699 0.19858 0.20194 0.0
C32 C 0.98586 0.29683 0.15385 0.0
O33 O 0.88007 0.30236 0.20151 0.0
O34 O 0.8744 0.263 0.17717 0.0
O35 O 0.06172 0.40141 0.18854 0.0
O36 O 0.98139 0.3958 0.19721 0.0
C37 C 1.0047 0.20925 0.17983 0.0
O38 O 0.94774 0.24947 0.16048 0.0
O39 O 0.01896 0.33885 0.16303 0.0
C40 C 0.85231 0.27931 0.18815 0.0
O41 O 0.9559 0.1925 0.18616 0.0
O42 O 0.03778 0.2615 0.17618 0.0
C43 C 0.06432 0.33739 0.2165 0.0
Fe44 Fe 0.69066 0.92675 0.34939 0.0
Fe45 Fe 0.71127 0.04967 0.35154 0.0
O46 O 0.67582 0.97772 0.35881 0.0
Fe47 Fe 0.62636 0.95756 0.37565 0.0
O48 O 0.66916 0.93704 0.38811 0.0
O49 O 0.68426 0.88677 0.3692 0.0
O50 O 0.76701 0.96941 0.35376 0.0
C51 C 0.79754 0.01923 0.34787 0.0
C52 C 0.57692 0.8556 0.35503 0.0
O53 O 0.77618 0.05057 0.34472 0.0
C54 C 0.59958 0.02969 0.3588 0.0
O55 O 0.70121 0.95879 0.328 0.0
O56 O 0.67942 0.02711 0.33108 0.0
O57 O 0.57971 0.88143 0.36858 0.0
O58 O 0.61564 0.88041 0.34421 0.0
C59 C 0.71899 0.06737 0.38507 0.0
O60 O 0.65306 0.06296 0.35679 0.0
O61 O 0.58019 0.97898 0.36445 0.0
C62 C 0.69066 0.9963 0.32167 0.0
O63 O 0.74573 0.07609 0.37149 0.0
O64 O 0.66604 0.02849 0.38619 0.0
C65 C 0.68506 0.90157 0.38433 0.0
Fe66 Fe 0.68908 0.6252 0.53974 0.0
Fe67 Fe 0.78659 0.71427 0.51704 0.0
O68 O 0.71799 0.68662 0.52654 0.0
Fe69 Fe 0.67937 0.72378 0.52366 0.0
O70 O 0.64161 0.7037 0.54359 0.0
O71 O 0.68542 0.66705 0.55726 0.0
O72 O 0.75892 0.64048 0.54842 0.0
C73 C 0.80818 0.68587 0.54859 0.0
C74 C 0.59095 0.61396 0.52124 0.0
O75 O 0.82256 0.72338 0.53721 0.0
C76 C 0.73073 0.7355 0.49188 0.0
O77 O 0.69409 0.57931 0.52368 0.0
O78 O 0.77988 0.64432 0.51409 0.0
O79 O 0.62055 0.66146 0.5137 0.0
O80 O 0.61301 0.59987 0.5332 0.0
C81 C 0.78877 0.81071 0.52994 0.0
O82 O 0.75648 0.70853 0.49599 0.0
O83 O 0.70913 0.75221 0.50301 0.0
C84 C 0.74012 0.59252 0.51569 0.0
O85 O 0.80513 0.78896 0.51883 0.0
O86 O 0.73624 0.78703 0.53394 0.0
C87 C 0.66009 0.69591 0.55713 0.0
Fe88 Fe 0.05774 0.68397 0.70753 0.0
Fe89 Fe 0.10146 0.78062 0.68141 0.0
O90 O 0.04417 0.71819 0.6907 0.0
Fe91 Fe 0.97337 0.69066 0.68317 0.0
O92 O 0.94909 0.70113 0.70306 0.0
O93 O 0.98703 0.65976 0.71794 0.0
O94 O 0.08573 0.74885 0.72009 0.0
C95 C 0.12785 0.79743 0.71616 0.0
C96 C 0.97776 0.58899 0.6902 0.0
O97 O 0.14452 0.80831 0.70106 0.0
C98 C 0.02781 0.71957 0.65353 0.0
O99 O 0.13261 0.7052 0.70031 0.0
O100 O 0.13618 0.74072 0.67556 0.0
O101 O 0.95009 0.61516 0.6878 0.0
O102 O 0.02856 0.6155 0.69617 0.0
C103 C 0.02011 0.8111 0.68255 0.0
O104 O 0.0681 0.76577 0.66007 0.0
O105 O 0.99348 0.67873 0.66278 0.0
C106 C 0.15884 0.72481 0.68646 0.0
O107 O 0.06969 0.82313 0.68703 0.0
O108 O 0.98373 0.76145 0.67724 0.0
C109 C 0.95258 0.67927 0.71655 0.0
Fe110 Fe 0.31619 0.08034 0.84968 0.0
Fe111 Fe 0.29818 0.95833 0.85094 0.0
O112 O 0.33347 0.03012 0.85841 0.0
Fe113 Fe 0.38488 0.05059 0.87472 0.0
O114 O 0.34414 0.07155 0.88796 0.0
O115 O 0.32416 0.11991 0.86962 0.0
O116 O 0.24056 0.03618 0.85482 0.0
C117 C 0.21025 0.98683 0.84866 0.0
C118 C 0.4308 0.15262 0.85412 0.0
O119 O 0.23229 0.95664 0.84484 0.0
C120 C 0.41054 0.97881 0.85726 0.0
O121 O 0.30407 0.04888 0.82824 0.0
O122 O 0.32824 0.98185 0.83022 0.0
O123 O 0.4305 0.1265 0.86739 0.0
O124 O 0.39028 0.12823 0.84381 0.0
C125 C 0.29347 0.94017 0.88447 0.0
O126 O 0.35705 0.9455 0.85546 0.0
O127 O 0.42999 0.02944 0.86288 0.0
C128 C 0.31593 0.01312 0.82134 0.0
O129 O 0.26564 0.9311 0.87108 0.0
O130 O 0.3463 0.97964 0.88534 0.0
C131 C 0.32811 0.1073 0.88469 0.0
Fe132 Fe 0.72043 0.67167 0.84459 0.0
Fe133 Fe 0.62374 0.68399 0.82829 0.0
O134 O 0.68442 0.71138 0.84173 0.0
Fe135 Fe 0.71244 0.77956 0.8515 0.0
O136 O 0.78686 0.7969 0.85011 0.0
O137 O 0.78491 0.72865 0.83476 0.0
O138 O 0.70138 0.63543 0.82448 0.0
C139 C 0.69441 0.65471 0.81098 0.0
C140 C 0.72838 0.71901 0.87658 0.0
O141 O 0.66622 0.68073 0.81084 0.0
C142 C 0.59077 0.73447 0.8524 0.0
O143 O 0.65705 0.61275 0.85412 0.0
O144 O 0.59695 0.60733 0.83448 0.0
O145 O 0.7047 0.74801 0.87247 0.0
O146 O 0.747 0.69927 0.86545 0.0
C147 C 0.68635 0.80343 0.81994 0.0
O148 O 0.57744 0.68871 0.84429 0.0
O149 O 0.64271 0.7738 0.85416 0.0
C150 C 0.60989 0.58418 0.8464 0.0
O151 O 0.64046 0.75459 0.81993 0.0
O152 O 0.72338 0.81676 0.8314 0.0
C153 C 0.80885 0.7809 0.83899 0.0
Fe154 Fe 0.04699 0.70702 1.0171 0.0
Fe155 Fe 0.95521 0.6176 0.99377 0.0
O156 O 0.97486 0.66953 1.00989 0.0
Fe157 Fe 0.92339 0.68501 1.01871 0.0
O158 O 0.96529 0.76058 1.01334 0.0
O159 O 0.04664 0.77204 0.02296 0.0
O160 O 0.07282 0.73885 0.99682 0.0
C161 C 0.06418 0.71057 0.98355 0.0
C162 C 0.99314 0.68927 0.04688 0.0
O163 O 0.02566 0.65738 0.98289 0.0
C164 C 0.85359 0.56995 1.01462 0.0
O165 O 0.06199 0.64939 1.01279 0.0
O166 O 0.97884 0.57458 1.00569 0.0
O167 O 0.95564 0.69885 0.04009 0.0
O168 O 0.02492 0.67786 0.03792 0.0
C169 C 0.89534 0.67118 0.98379 0.0
O170 O 0.87974 0.57054 1.00132 0.0
O171 O 0.87759 0.61082 0.02482 0.0
C172 C 0.02998 0.59565 1.01114 0.0
O173 O 0.93193 0.65628 0.98046 0.0
O174 O 0.88283 0.67515 0.99885 0.0
C175 C 0.01481 0.79236 0.01923 0.0
Fe176 Fe 0.32903 0.04518 0.17934 0.0
Fe177 Fe 0.32155 0.9393 0.16229 0.0
O178 O 0.29147 0.96933 0.17589 0.0
Fe179 Fe 0.22255 0.92565 0.18509 0.0
O180 O 0.20245 0.98056 0.18409 0.0
O181 O 0.27094 0.05106 0.16967 0.0
O182 O 0.36607 0.06563 0.15929 0.0
C183 C 0.34789 0.03999 0.14567 0.0
C184 C 0.27914 1.00072 0.21093 0.0
O185 O 0.3232 0.98569 0.14517 0.0
C186 C 0.27201 0.85307 0.18584 0.0
O187 O 0.38936 0.04303 0.18875 0.0
O188 O 0.39742 0.99136 0.16871 0.0
O189 O 0.2516 0.94833 0.20631 0.0
O190 O 0.30019 0.04078 0.20025 0.0
C191 C 0.20289 0.87792 0.15328 0.0
O192 O 0.31801 0.88765 0.17799 0.0
O193 O 0.23109 0.86321 0.18744 0.0
C194 C 0.41947 0.02689 0.1808 0.0
O195 O 0.25265 0.88354 0.15359 0.0
O196 O 0.18731 0.9 0.16464 0.0
C197 C 0.21843 0.02061 0.17361 0.0
Fe198 Fe 0.38704 0.32623 0.32896 0.0
Fe199 Fe 0.29684 0.22781 0.35121 0.0
O200 O 0.32527 0.29708 0.34204 0.0
Fe201 Fe 0.28875 0.33617 0.34515 0.0
O202 O 0.30873 0.37427 0.32529 0.0
O203 O 0.34586 0.33123 0.31143 0.0
O204 O 0.37118 0.2567 0.32008 0.0
C205 C 0.32521 0.208 0.31945 0.0
C206 C 0.399 0.42404 0.34768 0.0
O207 O 0.28727 0.19295 0.33076 0.0
C208 C 0.27976 0.28607 0.37676 0.0
O209 O 0.43225 0.31992 0.34505 0.0
O210 O 0.36648 0.2334 0.35397 0.0
O211 O 0.35139 0.39447 0.35514 0.0
O212 O 0.41304 0.40218 0.33569 0.0
C213 C 0.20064 0.22738 0.3388 0.0
O214 O 0.30334 0.25717 0.37244 0.0
O215 O 0.26122 0.30647 0.36579 0.0
C216 C 0.41842 0.27327 0.35278 0.0
O217 O 0.22239 0.21031 0.3497 0.0
O218 O 0.22484 0.27999 0.3349 0.0
C219 C 0.31713 0.35671 0.31168 0.0
Fe220 Fe 0.05688 0.38639 0.49427 0.0
Fe221 Fe 0.08812 0.3197 0.51962 0.0
O222 O 0.03704 0.33549 0.51074 0.0
Fe223 Fe 0.96515 0.29929 0.51823 0.0
O224 O 0.93836 0.26633 0.49815 0.0
O225 O 0.98604 0.3466 0.48364 0.0
O226 O 0.07905 0.34622 0.48122 0.0
C227 C 0.11545 0.33118 0.48467 0.0
C228 C 0.98362 0.41079 0.51151 0.0
O229 O 0.12825 0.32817 0.49977 0.0
C230 C 0.01957 0.31782 0.54786 0.0
O231 O 0.13268 0.43317 0.5016 0.0
O232 O 0.13468 0.39409 0.52538 0.0
O233 O 0.95111 0.35729 0.51357 0.0
O234 O 0.03444 0.43085 0.50589 0.0
C235 C 0.99582 0.21292 0.52065 0.0
O236 O 0.0562 0.30708 0.54102 0.0
O237 O 0.98806 0.32964 0.53893 0.0
C238 C 0.15883 0.43433 0.51495 0.0
O239 O 0.0453 0.24399 0.5146 0.0
O240 O 0.96472 0.23406 0.52441 0.0
C241 C 0.94699 0.29367 0.48467 0.0
Fe242 Fe 0.69275 0.97112 0.6851 0.0
Fe243 Fe 0.68592 0.05675 0.66126 0.0
O244 O 0.72029 0.04229 0.67786 0.0
Fe245 Fe 0.78291 0.09908 0.6872 0.0
O246 O 0.82534 0.06754 0.68122 0.0
O247 O 0.76362 0.98111 0.69073 0.0
O248 O 0.70277 0.94771 0.665 0.0
C249 C 0.68073 0.95194 0.65164 0.0
C250 C 0.72213 0.02418 0.71494 0.0
O251 O 0.66149 0.98667 0.65054 0.0
C252 C 0.72713 0.15679 0.68269 0.0
O253 O 0.61715 0.94822 0.68072 0.0
O254 O 0.61752 0.02706 0.67275 0.0
O255 O 0.76827 0.06476 0.70842 0.0
O256 O 0.68119 0.99017 0.70569 0.0
C257 C 0.79941 0.12731 0.65255 0.0
O258 O 0.70726 0.13115 0.66881 0.0
O259 O 0.74317 0.13367 0.69342 0.0
C260 C 0.59104 0.97607 0.67859 0.0
O261 O 0.75078 0.0854 0.64856 0.0
O262 O 0.81042 0.14306 0.6677 0.0
C263 C 0.81324 0.01772 0.68542 0.0
H264 H 0.77437 0.50089 0.99077 0.0
H265 H 0.50581 0.46965 0.04355 0.0
H266 H 0.78597 0.55511 0.0418 0.0
H267 H 0.48412 0.37918 0.99738 0.0
H268 H 0.60995 0.50752 0.04183 0.0
H269 H 0.66903 0.45797 0.99219 0.0
C270 C 0.75488 0.50262 1.00239 0.0
C271 C 0.78959 0.53185 1.01618 0.0
C272 C 0.58247 0.4796 0.03202 0.0
C273 C 0.66886 0.48439 1.0177 0.0
C274 C 0.52289 0.45845 0.0329 0.0
C275 C 0.48572 0.42108 0.0206 0.0
C276 C 0.6056 0.46382 1.01867 0.0
C277 C 0.51086 0.40777 1.00719 0.0
C278 C 0.69467 0.47867 1.00313 0.0
C279 C 0.76141 0.5333 0.03081 0.0
N280 N 0.56899 0.429 1.00659 0.0
N281 N 0.70316 0.51066 0.0311 0.0
H282 H 0.21776 0.79121 0.21341 0.0
H283 H 0.10797 0.48903 0.16723 0.0
H284 H 0.28214 0.77598 0.16577 0.0
H285 H 0.03015 0.50629 0.2121 0.0
H286 H 0.17518 0.59296 0.16721 0.0
H287 H 0.15706 0.68615 0.21474 0.0
C288 C 0.22093 0.76551 0.20353 0.0
C289 C 0.25589 0.79259 0.18956 0.0
C290 C 0.14318 0.57438 0.177 0.0
C291 C 0.18412 0.67186 0.19064 0.0
C292 C 0.1043 0.51501 0.17693 0.0
C293 C 0.06284 0.48885 0.1896 0.0
C294 C 0.14149 0.60845 0.18996 0.0
C295 C 0.06063 0.52464 0.20194 0.0
C296 C 0.18532 0.70551 0.20415 0.0
C297 C 0.25702 0.7571 0.17693 0.0
N298 N 0.09971 0.58252 0.20188 0.0
N299 N 0.2211 0.69871 0.17767 0.0
H300 H 0.42228 0.2172 0.38038 0.0
H301 H 0.60213 0.09563 0.33317 0.0
H302 H 0.50524 0.28109 0.33302 0.0
H303 H 0.52087 0.03103 0.3807 0.0
H304 H 0.5665 0.16334 0.333 0.0
H305 H 0.4633 0.15388 0.38179 0.0
C306 C 0.45122 0.21965 0.37059 0.0
C307 C 0.46105 0.25524 0.35667 0.0
C308 C 0.55564 0.13397 0.34339 0.0
C309 C 0.50589 0.18046 0.35779 0.0
C310 C 0.57522 0.09461 0.34338 0.0
C311 C 0.56361 0.05691 0.35684 0.0
C312 C 0.52452 0.13645 0.35708 0.0
C313 C 0.52967 0.05836 0.36991 0.0
C314 C 0.47369 0.18259 0.37125 0.0
C315 C 0.49756 0.25545 0.34414 0.0
N316 N 0.51169 0.09784 0.36976 0.0
N317 N 0.51793 0.21801 0.34488 0.0
H318 H 0.22586 0.45311 0.54249 0.0
H319 H 0.52962 0.62215 0.49502 0.0
H320 H 0.23867 0.49865 0.49058 0.0
H321 H 0.50586 0.53792 0.54247 0.0
H322 H 0.42526 0.58419 0.49352 0.0
H323 H 0.33032 0.49476 0.54344 0.0
C324 C 0.25068 0.47292 0.53133 0.0
C325 C 0.22287 0.47211 0.51641 0.0
C326 C 0.44281 0.57362 0.50419 0.0
C327 C 0.34356 0.51937 0.51739 0.0
C328 C 0.50246 0.595 0.50503 0.0
C329 C 0.52695 0.58316 0.51888 0.0
C330 C 0.40706 0.5407 0.5174 0.0
C331 C 0.48926 0.54792 0.53148 0.0
C332 C 0.31049 0.4962 0.53186 0.0
C333 C 0.25789 0.49854 0.5024 0.0
N334 N 0.43153 0.52849 0.53049 0.0
N335 N 0.31625 0.5207 0.5032 0.0
H336 H 0.73801 0.23539 0.65845 0.0
H337 H 0.98505 0.50532 0.70836 0.0
H338 H 0.78 0.22548 0.7097 0.0
H339 H 0.89447 0.52708 0.66728 0.0
H340 H 0.91946 0.40026 0.70668 0.0
H341 H 0.8009 0.34079 0.65962 0.0
C342 C 0.75919 0.2552 0.67005 0.0
C343 C 0.75325 0.2209 0.68399 0.0
C344 C 0.91427 0.4281 0.69796 0.0
C345 C 0.82735 0.34165 0.68518 0.0
C346 C 0.95218 0.488 0.69879 0.0
C347 C 0.94537 0.52513 0.68794 0.0
C348 C 0.8698 0.405 0.68601 0.0
C349 C 0.90125 0.5001 0.67593 0.0
C350 C 0.7957 0.31542 0.67064 0.0
C351 C 0.78299 0.24962 0.69858 0.0
N352 N 0.86537 0.44184 0.67526 0.0
N353 N 0.81913 0.30784 0.69871 0.0
H354 H 0.5012 0.72123 0.83287 0.0
H355 H 0.49494 0.9852 0.87826 0.0
H356 H 0.58873 0.79552 0.87901 0.0
H357 H 0.40283 0.90559 0.8331 0.0
H358 H 0.53136 0.9173 0.87868 0.0
H359 H 0.45956 0.78426 0.83371 0.0
C360 C 0.5096 0.74892 0.84355 0.0
C361 C 0.5481 0.75271 0.85596 0.0
C362 C 0.50376 0.9152 0.86856 0.0
C363 C 0.5031 0.82728 0.85661 0.0
C364 C 0.48398 0.95476 0.86816 0.0
C365 C 0.44641 0.95144 0.85553 0.0
C366 C 0.48568 0.87212 0.85624 0.0
C367 C 0.43209 0.90986 0.84301 0.0
C368 C 0.48692 0.78598 0.84385 0.0
C369 C 0.55891 0.79094 0.86924 0.0
N370 N 0.45137 0.87177 0.84373 0.0
N371 N 0.53731 0.82723 0.8691 0.0
H372 H 0.53088 0.50075 0.82538 0.0
H373 H 0.49913 0.23169 0.87806 0.0
H374 H 0.61857 0.52109 0.87202 0.0
H375 H 0.4446 0.22041 0.82705 0.0
H376 H 0.54111 0.33682 0.87679 0.0
H377 H 0.49248 0.39654 0.82702 0.0
C378 C 0.54128 0.48335 0.83612 0.0
C379 C 0.57812 0.52014 0.84857 0.0
C380 C 0.52051 0.3113 0.86583 0.0
C381 C 0.53491 0.4003 0.8504 0.0
C382 C 0.4971 0.25123 0.86648 0.0
C383 C 0.46811 0.21667 0.85265 0.0
C384 C 0.51453 0.33714 0.8513 0.0
C385 C 0.46626 0.24488 0.83808 0.0
C386 C 0.51987 0.42375 0.83696 0.0
C387 C 0.59045 0.49464 0.86209 0.0
N388 N 0.48844 0.30301 0.83785 0.0
N389 N 0.56908 0.43655 0.86263 0.0
H390 H 0.02258 0.50864 0.99104 0.0
H391 H 0.28739 0.5036 0.03646 0.0
H392 H 0.10777 0.60881 0.03462 0.0
H393 H 0.21532 0.41884 0.98985 0.0
H394 H 0.22505 0.54611 0.03546 0.0
H395 H 0.09072 0.47243 0.99086 0.0
C396 C 0.05443 0.52162 1.00084 0.0
C397 C 0.05911 0.5613 1.01296 0.0
C398 C 0.22374 0.51923 0.02525 0.0
C399 C 0.13855 0.5219 1.01252 0.0
C400 C 0.26044 0.49605 0.02565 0.0
C401 C 0.25712 0.45809 1.01314 0.0
C402 C 0.18315 0.504 1.01231 0.0
C403 C 0.21965 0.44829 0.99969 0.0
C404 C 0.09407 0.50187 1.00057 0.0
C405 C 0.10241 0.57797 0.0251 0.0
N406 N 0.18362 0.47024 0.99976 0.0
N407 N 0.14041 0.55848 0.02454 0.0
H408 H 0.50385 0.03452 0.15969 0.0
H409 H 0.77496 0.263 0.21341 0.0
H410 H 0.48211 0.0991 0.20661 0.0
H411 H 0.78254 0.23421 0.16094 0.0
H412 H 0.66927 0.20086 0.21233 0.0
H413 H 0.60796 0.10107 0.16152 0.0
C414 C 0.5209 0.06195 0.17052 0.0
C415 C 0.48366 0.06083 0.18301 0.0
C416 C 0.69414 0.20887 0.20103 0.0
C417 C 0.60374 0.13829 0.18509 0.0
C418 C 0.75454 0.245 0.20159 0.0
C419 C 0.78823 0.25426 0.18724 0.0
C420 C 0.66716 0.18112 0.18608 0.0
C421 C 0.75884 0.22851 0.17236 0.0
C422 C 0.5805 0.10055 0.17147 0.0
C423 C 0.50888 0.09825 0.19666 0.0
N424 N 0.70052 0.19283 0.17223 0.0
N425 N 0.56712 0.13529 0.19734 0.0
H426 H 0.39181 0.48433 0.3743 0.0
H427 H 0.5566 0.78898 0.32733 0.0
H428 H 0.47453 0.50983 0.32654 0.0
H429 H 0.5157 0.77518 0.37961 0.0
H430 H 0.51583 0.68476 0.32618 0.0
H431 H 0.4298 0.58856 0.37619 0.0
C432 C 0.41868 0.51186 0.36431 0.0
C433 C 0.43007 0.4879 0.35025 0.0
C434 C 0.51525 0.70432 0.33789 0.0
C435 C 0.4725 0.60762 0.35218 0.0
C436 C 0.53803 0.764 0.33854 0.0
C437 C 0.53986 0.79148 0.35362 0.0
C438 C 0.49354 0.67102 0.35238 0.0
C439 C 0.515 0.75622 0.36769 0.0
C440 C 0.44007 0.57142 0.36537 0.0
C441 C 0.46492 0.52602 0.33768 0.0
N442 N 0.49322 0.69798 0.36675 0.0
N443 N 0.48431 0.58366 0.33888 0.0
H444 H 0.99161 0.49663 0.49074 0.0
H445 H 0.72464 0.50138 0.53492 0.0
H446 H 0.90687 0.40026 0.53498 0.0
H447 H 0.80252 0.59129 0.48927 0.0
H448 H 0.7869 0.45882 0.53416 0.0
H449 H 0.92383 0.53324 0.49006 0.0
C450 C 0.95996 0.48463 0.50057 0.0
C451 C 0.95524 0.44585 0.51302 0.0
C452 C 0.78957 0.48692 0.5241 0.0
C453 C 0.87617 0.48553 0.51201 0.0
C454 C 0.75296 0.51015 0.52435 0.0
C455 C 0.75798 0.54958 0.51207 0.0
C456 C 0.83169 0.50349 0.51153 0.0
C457 C 0.79699 0.56077 0.49894 0.0
C458 C 0.92053 0.50458 0.50003 0.0
C459 C 0.91223 0.43037 0.52521 0.0
N460 N 0.83284 0.53864 0.49914 0.0
N461 N 0.87435 0.44992 0.52435 0.0
H462 H 0.50695 0.98266 0.66049 0.0
H463 H 0.23713 0.73778 0.71107 0.0
H464 H 0.52966 0.89355 0.70181 0.0
H465 H 0.22799 0.77535 0.65934 0.0
H466 H 0.34264 0.8009 0.70989 0.0
H467 H 0.40189 0.91681 0.66237 0.0
C468 C 0.48982 0.95009 0.67016 0.0
C469 C 0.52721 0.94374 0.68102 0.0
C470 C 0.31739 0.79466 0.69877 0.0
C471 C 0.4071 0.8679 0.68318 0.0
C472 C 0.25713 0.75801 0.69938 0.0
C473 C 0.22302 0.7508 0.68529 0.0
C474 C 0.3438 0.82521 0.68408 0.0
C475 C 0.25197 0.77937 0.67057 0.0
C476 C 0.42994 0.91203 0.67111 0.0
C477 C 0.50245 0.89997 0.69316 0.0
N478 N 0.31018 0.81572 0.67043 0.0
N479 N 0.44418 0.86394 0.69394 0.0
H480 H 0.37255 0.26161 0.98104 0.0
H481 H 0.26751 0.16737 0.88702 0.0
H482 H 0.21739 0.25634 0.96406 0.0
H483 H 0.37195 0.11839 0.91577 0.0
H484 H 0.25647 0.21466 0.91216 0.0
H485 H 0.38285 0.22732 0.95414 0.0
C486 C 0.3406 0.25361 0.97158 0.0
C487 C 0.29353 0.26132 0.97506 0.0
C488 C 0.28173 0.19347 0.91284 0.0
C489 C 0.30512 0.22087 0.94367 0.0
C490 C 0.28828 0.16669 0.89849 0.0
C491 C 0.3206 0.13842 0.89916 0.0
C492 C 0.30879 0.19304 0.92783 0.0
C493 C 0.34628 0.13898 0.91447 0.0
C494 C 0.3465 0.23371 0.95613 0.0
C495 C 0.25433 0.25099 0.96201 0.0
N496 N 0.34004 0.16577 0.92796 0.0
N497 N 0.26066 0.23075 0.94692 0.0
H498 H 0.9593 0.20548 0.13259 0.0
H499 H 0.20782 0.40771 0.06792 0.0
H500 H 0.05737 0.3913 0.13487 0.0
H501 H 0.10578 0.22332 0.06149 0.0
H502 H 0.14784 0.40089 0.09148 0.0
H503 H 1.0056 0.20945 0.10582 0.0
C504 C 0.9894 0.2472 0.12732 0.0
C505 C 1.00411 0.29819 0.13613 0.0
C506 C 0.13801 0.36173 0.08493 0.0
C507 C 0.05836 0.30289 0.10548 0.0
C508 C 0.17251 0.36557 0.0714 0.0
C509 C 0.16233 0.31597 0.06262 0.0
C510 C 0.09268 0.30772 0.09011 0.0
C511 C 0.11531 0.26278 0.06779 0.0
C512 C 0.01628 0.24935 0.11206 0.0
C513 C 0.04441 0.35077 0.12867 0.0
N514 N 0.08265 0.25999 0.08127 0.0
N515 N 0.07016 0.35164 0.11397 0.0
H516 H 0.85906 0.2458 0.24511 0.0
H517 H 0.73878 0.95824 0.29764 0.0
H518 H 0.83962 0.0933 0.2212 0.0
H519 H 0.68405 0.0827 0.3054 0.0
H520 H 0.78189 0.00536 0.27087 0.0
H521 H 0.80357 0.18724 0.26878 0.0
C522 C 0.84309 0.19981 0.24483 0.0
C523 C 0.85428 0.17464 0.23107 0.0
C524 C 0.75957 0.02158 0.27836 0.0
C525 C 0.79065 0.1067 0.25857 0.0
C526 C 0.73466 0.99456 0.29364 0.0
C527 C 0.70753 0.01628 0.304 0.0
C528 C 0.75842 0.07142 0.2735 0.0
C529 C 0.70444 0.0641 0.29806 0.0
C530 C 0.81106 0.16626 0.25836 0.0
C531 C 0.83187 0.11455 0.23148 0.0
N532 N 0.73018 0.09028 0.28347 0.0
N533 N 0.8018 0.0827 0.2451 0.0
H534 H 0.67995 0.79472 0.38677 0.0
H535 H 0.75628 0.84362 0.48426 0.0
H536 H 0.72652 0.94969 0.41446 0.0
H537 H 0.71433 0.68312 0.46061 0.0
H538 H 0.75218 0.88309 0.45753 0.0
H539 H 0.69799 0.75307 0.41201 0.0
C540 C 0.69466 0.82027 0.39801 0.0
C541 C 0.70126 0.87581 0.39843 0.0
C542 C 0.74412 0.8393 0.45797 0.0
C543 C 0.7218 0.82841 0.42734 0.0
C544 C 0.7466 0.81664 0.47334 0.0
C545 C 0.73551 0.75979 0.4748 0.0
C546 C 0.72952 0.80501 0.44359 0.0
C547 C 0.72353 0.72727 0.46008 0.0
C548 C 0.70468 0.79635 0.41244 0.0
C549 C 0.72008 0.90657 0.41344 0.0
N550 N 0.72018 0.75008 0.4451 0.0
N551 N 0.72933 0.88256 0.42711 0.0
H552 H 0.90604 0.78575 0.55924 0.0
H553 H 0.96296 0.62359 0.63479 0.0
H554 H 0.80393 0.60357 0.56967 0.0
H555 H 0.04831 0.8091 0.63194 0.0
H556 H 0.916 0.61694 0.6083 0.0
H557 H 0.96794 0.79638 0.58324 0.0
C558 C 0.8969 0.7479 0.56642 0.0
C559 C 0.84931 0.69363 0.56235 0.0
C560 C 0.94545 0.65928 0.61329 0.0
C561 C 0.92037 0.70556 0.58986 0.0
C562 C 0.97278 0.66315 0.62844 0.0
C563 C 0.00992 0.71702 0.63574 0.0
C564 C 0.95463 0.70961 0.60515 0.0
C565 C 0.02055 0.76662 0.62678 0.0
C566 C 0.93219 0.75408 0.58018 0.0
C567 C 0.83966 0.64635 0.57227 0.0
N568 N 0.99266 0.76174 0.61207 0.0
N569 N 0.8746 0.65344 0.58544 0.0
H570 H 0.35804 0.964 0.79944 0.0
H571 H 0.08269 0.82719 0.74202 0.0
H572 H 0.23093 0.01688 0.80323 0.0
H573 H 0.2457 0.86079 0.72189 0.0
H574 H 0.13353 0.88835 0.766 0.0
H575 H 0.31677 0.91915 0.77241 0.0
C576 C 0.32221 0.9672 0.79447 0.0
C577 C 0.29848 0.99498 0.80365 0.0
C578 C 0.15833 0.88292 0.75627 0.0
C579 C 0.24951 0.94154 0.77292 0.0
C580 C 0.12933 0.84793 0.74258 0.0
C581 C 0.15995 0.83921 0.72982 0.0
C582 C 0.21854 0.90816 0.75763 0.0
C583 C 0.22042 0.8669 0.73131 0.0
C584 C 0.29858 0.94142 0.77904 0.0
C585 C 0.25137 0.99683 0.79659 0.0
N586 N 0.24762 0.89931 0.74508 0.0
N587 N 0.22791 0.96966 0.78188 0.0
H588 H 0.74692 0.78768 0.90492 0.0
H589 H 0.87574 0.61814 0.95392 0.0
H590 H 0.73893 0.63078 0.88857 0.0
H591 H 0.84129 0.73724 0.98045 0.0
H592 H 0.82888 0.62873 0.92959 0.0
H593 H 0.78184 0.77564 0.93238 0.0
C594 C 0.75147 0.75034 0.90714 0.0
C595 C 0.74051 0.71056 0.89425 0.0
C596 C 0.831 0.65258 0.94068 0.0
C597 C 0.78104 0.69698 0.92547 0.0
C598 C 0.85821 0.6467 0.95468 0.0
C599 C 0.86292 0.67692 0.9694 0.0
C600 C 0.80833 0.68975 0.94097 0.0
C601 C 0.83855 0.71287 0.96943 0.0
C602 C 0.77166 0.74364 0.92279 0.0
C603 C 0.74756 0.6632 0.89791 0.0
N604 N 0.81281 0.7188 0.95538 0.0
N605 N 0.76763 0.65819 0.91295 0.0
H606 H 0.96629 0.75419 0.068 0.0
H607 H 0.20923 0.79751 0.13412 0.0
H608 H 0.06427 0.66688 0.06609 0.0
H609 H 0.10637 0.87844 0.1404 0.0
H610 H 0.15171 0.7462 0.11 0.0
H611 H 0.01079 0.79559 0.09503 0.0
C612 C 0.99609 0.74259 0.07338 0.0
C613 C 0.0112 0.7066 0.06461 0.0
C614 C 0.14116 0.77481 0.11663 0.0
C615 C 0.06335 0.75503 0.09559 0.0
C616 C 0.17424 0.80441 0.1305 0.0
C617 C 0.16311 0.84287 0.13942 0.0
C618 C 0.09628 0.78358 0.11125 0.0
C619 C 0.11659 0.8492 0.13401 0.0
C620 C 0.0219 0.76673 0.0888 0.0
C621 C 0.05102 0.69424 0.07224 0.0
N622 N 0.0853 0.82036 0.12021 0.0
N623 N 0.07571 0.71855 0.08709 0.0
H624 H 0.19905 0.95562 0.23695 0.0
H625 H 0.40684 0.22009 0.29695 0.0
H626 H 0.3725 0.08953 0.22537 0.0
H627 H 0.22698 0.10704 0.30877 0.0
H628 H 0.39537 0.16316 0.27233 0.0
H629 H 0.20872 1.00014 0.26462 0.0
C630 C 0.23949 0.99347 0.24033 0.0
C631 C 0.2851 0.01874 0.22878 0.0
C632 C 0.35818 0.15029 0.28026 0.0
C633 C 0.29629 0.07021 0.2603 0.0
C634 C 0.36473 0.18302 0.29445 0.0
C635 C 0.31779 0.16895 0.30509 0.0
C636 C 0.30408 0.1025 0.27631 0.0
C637 C 0.26452 0.11973 0.30102 0.0
C638 C 0.2448 0.01922 0.25607 0.0
C639 C 0.3361 0.06846 0.23378 0.0
N640 N 0.25901 0.08855 0.28692 0.0
N641 N 0.34015 0.0923 0.24899 0.0
H642 H 0.27653 0.37767 0.38914 0.0
H643 H 0.16913 0.26474 0.48203 0.0
H644 H 0.2563 0.21477 0.40486 0.0
H645 H 0.13457 0.38182 0.45434 0.0
H646 H 0.21646 0.25321 0.45696 0.0
H647 H 0.24344 0.38889 0.41618 0.0
C648 C 0.26555 0.34423 0.39837 0.0
C649 C 0.26867 0.29479 0.3945 0.0
C650 C 0.19852 0.28144 0.45649 0.0
C651 C 0.22951 0.30736 0.42598 0.0
C652 C 0.1718 0.28829 0.4708 0.0
C653 C 0.14741 0.32417 0.47037 0.0
C654 C 0.20203 0.31177 0.4418 0.0
C655 C 0.15205 0.35331 0.45539 0.0
C656 C 0.24634 0.35065 0.41388 0.0
C657 C 0.25459 0.25359 0.40723 0.0
N658 N 0.17872 0.34666 0.44192 0.0
N659 N 0.23502 0.26046 0.42237 0.0
H660 H 0.02281 0.2315 0.56526 0.0
H661 H 0.86411 0.24551 0.64802 0.0
H662 H 0.96891 0.35751 0.57013 0.0
H663 H 0.8281 0.0848 0.62572 0.0
H664 H 0.9247 0.29742 0.6237 0.0
H665 H 0.97488 0.18823 0.59173 0.0
C666 C 1.00238 0.2512 0.5721 0.0
C667 C 1.00045 0.29871 0.56541 0.0
C668 C 0.90396 0.25085 0.62426 0.0
C669 C 0.94531 0.24901 0.59593 0.0
C670 C 0.86976 0.22126 0.63817 0.0
C671 C 0.84106 0.16066 0.63894 0.0
C672 C 0.91098 0.2198 0.61126 0.0
C673 C 0.84933 0.13145 0.62567 0.0
C674 C 0.97444 0.22599 0.58714 0.0
C675 C 0.97188 0.32122 0.57479 0.0
N676 N 0.8837 0.16115 0.61251 0.0
N677 N 0.94569 0.2964 0.58955 0.0
H678 H 0.78741 0.90014 0.80907 0.0
H679 H 0.62608 0.9596 0.73377 0.0
H680 H 0.60454 0.80172 0.79924 0.0
H681 H 0.81168 0.04387 0.73642 0.0
H682 H 0.61926 0.91275 0.7603 0.0
H683 H 0.79879 0.96236 0.78503 0.0
C684 C 0.74959 0.89192 0.80202 0.0
C685 C 0.69488 0.84521 0.80626 0.0
C686 C 0.66166 0.94192 0.75526 0.0
C687 C 0.70766 0.91657 0.77871 0.0
C688 C 0.66563 0.96917 0.74008 0.0
C689 C 0.71957 0.00602 0.73272 0.0
C690 C 0.71195 0.95081 0.76337 0.0
C691 C 0.76915 0.01634 0.74163 0.0
C692 C 0.75619 0.92737 0.78825 0.0
C693 C 0.64765 0.8367 0.79651 0.0
N694 N 0.76417 0.98848 0.75637 0.0
N695 N 0.65516 0.87172 0.78333 0.0
H696 H 0.26325 0.01788 0.12289 0.0
H697 H 0.44405 0.30747 0.07089 0.0
H698 H 0.43805 0.1439 0.13607 0.0
H699 H 0.26059 0.23106 0.07791 0.0
H700 H 0.44483 0.24064 0.09164 0.0
H701 H 0.26343 0.0863 0.10237 0.0
C702 C 0.30216 0.05926 0.12112 0.0
C703 C 0.35104 0.075 0.131 0.0
C704 C 0.40454 0.23904 0.08882 0.0
C705 C 0.35128 0.15348 0.10781 0.0
C706 C 0.40418 0.27746 0.07712 0.0
C707 C 0.35246 0.27576 0.07304 0.0
C708 C 0.35243 0.19707 0.09607 0.0
C709 C 0.30161 0.23484 0.08108 0.0
C710 C 0.30192 0.09856 0.10963 0.0
C711 C 0.39973 0.12988 0.12857 0.0
N712 N 0.3027 0.19656 0.09206 0.0
N713 N 0.39876 0.16695 0.11718 0.0
H714 H 0.14377 0.30178 0.21663 0.0
H715 H 0.25914 0.41577 0.30849 0.0
H716 H 0.07839 0.38804 0.24739 0.0
H717 H 0.30763 0.30948 0.28049 0.0
H718 H 0.20059 0.41439 0.28515 0.0
H719 H 0.21003 0.31157 0.2388 0.0
C720 C 0.14334 0.32301 0.22803 0.0
C721 C 0.10511 0.34412 0.23007 0.0
C722 C 0.22432 0.39171 0.28403 0.0
C723 C 0.18164 0.35549 0.25567 0.0
C724 C 0.25816 0.39266 0.29735 0.0
C725 C 0.28855 0.36258 0.29653 0.0
C726 C 0.22052 0.36048 0.26964 0.0
C727 C 0.28527 0.33349 0.2817 0.0
C728 C 0.18134 0.32849 0.24072 0.0
C729 C 0.10684 0.37101 0.24521 0.0
N730 N 0.25163 0.33293 0.26889 0.0
N731 N 0.14441 0.37591 0.2574 0.0
H732 H 0.82279 0.16875 0.38537 0.0
H733 H 0.84565 0.18995 0.4843 0.0
H734 H 0.68573 0.05087 0.4179 0.0
H735 H 0.96281 0.32791 0.4519 0.0
H736 H 0.78754 0.13772 0.46019 0.0
H737 H 0.87548 0.22662 0.40949 0.0
C738 C 0.80355 0.15512 0.39758 0.0
C739 C 0.74959 0.1047 0.39957 0.0
C740 C 0.8257 0.17959 0.45834 0.0
C741 C 0.81028 0.17084 0.42735 0.0
C742 C 0.85907 0.20951 0.47212 0.0
C743 C 0.9094 0.26355 0.47017 0.0
C744 C 0.84295 0.20334 0.44238 0.0
C745 C 0.92434 0.28655 0.45404 0.0
C746 C 0.8337 0.18835 0.41135 0.0
C747 C 0.72699 0.08945 0.41573 0.0
N748 N 0.89156 0.25614 0.44077 0.0
N749 N 0.75761 0.12209 0.42899 0.0
H750 H 0.70879 0.70516 0.58803 0.0
H751 H 0.62536 0.93645 0.62144 0.0
H752 H 0.60371 0.75659 0.56056 0.0
H753 H 0.72117 0.87656 0.6501 0.0
H754 H 0.6157 0.86986 0.59912 0.0
H755 H 0.71119 0.76535 0.61129 0.0
C756 C 0.6855 0.72832 0.58696 0.0
C757 C 0.65596 0.72556 0.57227 0.0
C758 C 0.63868 0.87123 0.61033 0.0
C759 C 0.65935 0.79555 0.59878 0.0
C760 C 0.64431 0.9094 0.62307 0.0
C761 C 0.67402 0.91227 0.63774 0.0
C762 C 0.66313 0.83575 0.6122 0.0
C763 C 0.69769 0.87595 0.63908 0.0
C764 C 0.68718 0.76305 0.60022 0.0
C765 C 0.6271 0.75723 0.5716 0.0
N766 N 0.69182 0.83948 0.62653 0.0
N767 N 0.62982 0.79101 0.58457 0.0
H768 H 0.88056 0.72369 0.71777 0.0
H769 H 0.74938 0.59287 0.80729 0.0
H770 H 0.93205 0.62105 0.7465 0.0
H771 H 0.70971 0.70811 0.78049 0.0
H772 H 0.81004 0.59636 0.78423 0.0
H773 H 0.81348 0.71326 0.73974 0.0
C774 C 0.87778 0.69875 0.72869 0.0
C775 C 0.91223 0.67307 0.7302 0.0
C776 C 0.78779 0.62056 0.7833 0.0
C777 C 0.83469 0.66097 0.75558 0.0
C778 C 0.75276 0.61842 0.79646 0.0
C779 C 0.72418 0.65032 0.7959 0.0
C780 C 0.79468 0.65491 0.76937 0.0
C781 C 0.73053 0.68257 0.78148 0.0
C782 C 0.83928 0.69289 0.74127 0.0
C783 C 0.90657 0.64165 0.74475 0.0
N784 N 0.76532 0.68428 0.76885 0.0
N785 N 0.86854 0.63646 0.75685 0.0
H786 H 0.04746 0.67391 0.95104 0.0
H787 H 0.32966 0.95688 0.91701 0.0
H788 H 0.16524 0.81451 0.9825 0.0
H789 H 0.18985 0.83855 0.8854 0.0
H790 H 0.27694 0.89799 0.94113 0.0
H791 H 0.10617 0.7266 0.92686 0.0
C792 C 0.08591 0.71555 0.9529 0.0
C793 C 0.10123 0.73981 0.96886 0.0
C794 C 0.25798 0.88479 0.9289 0.0
C795 C 0.16868 0.80038 0.9412 0.0
C796 C 0.28819 0.91826 0.9151 0.0
C797 C 0.26417 0.90285 0.89912 0.0
C798 C 0.2035 0.83518 0.92672 0.0
C799 C 0.21003 0.85238 0.89746 0.0
C800 C 0.11927 0.74573 0.93907 0.0
C801 C 0.15147 0.79415 0.97045 0.0
N802 N 0.18159 0.82046 0.91107 0.0
N803 N 0.18328 0.82251 0.95684 0.0
H804 H 0.23925 0.12257 0.05069 0.0
H805 H 0.97183 0.86268 1.01084 0.0
H806 H 0.10644 0.1368 0.02438 0.0
H807 H 0.08999 0.84789 0.04422 0.0
H808 H 1.00558 0.95991 0.02151 0.0
H809 H 0.17095 0.0205 0.05527 0.0
C810 C 0.19556 0.1043 0.04604 0.0
C811 C 0.17927 0.13691 0.03629 0.0
C812 C 0.02342 0.93493 0.02667 0.0
C813 C 0.10147 0.02099 0.0413 0.0
C814 C 1.00459 0.87986 0.02044 0.0
C815 C 0.03035 0.84879 0.02605 0.0
C816 C 0.0684 0.95854 0.03843 0.0
C817 C 0.07108 0.87173 0.03893 0.0
C818 C 0.1564 0.04617 0.04874 0.0
C819 C 0.12153 0.11214 0.03121 0.0
N820 N 0.08958 0.92567 0.04449 0.0
N821 N 0.08499 0.05506 0.03338 0.0
H822 H 0.10235 0.95754 0.17793 0.0
H823 H 0.07061 0.22382 0.15282 0.0
H824 H 0.23605 0.1144 0.15523 0.0
H825 H 0.96961 0.0996 0.19079 0.0
H826 H 0.10776 0.16212 0.14394 0.0
H827 H 0.03293 0.98869 0.17253 0.0
C828 C 0.11704 0.99839 0.17166 0.0
C829 C 0.17558 0.03505 0.16775 0.0
C830 C 0.07672 0.14791 0.15401 0.0
C831 C 0.09624 0.06987 0.16136 0.0
C832 C 0.05597 0.18322 0.15924 0.0
C833 C 0.01916 0.16763 0.17308 0.0
C834 C 0.06102 0.09718 0.16282 0.0
C835 C 0.99933 0.11364 0.1804 0.0
C836 C 0.07722 0.01568 0.16847 0.0
C837 C 0.19171 0.08599 0.15899 0.0
N838 N 0.02171 0.08065 0.17541 0.0
N839 N 0.15227 0.10262 0.15639 0.0
H840 H 0.14534 0.11082 0.34144 0.0
H841 H 0.84951 0.09345 0.32235 0.0
H842 H 0.12625 0.24973 0.32134 0.0
H843 H 0.87202 0.98142 0.3563 0.0
H844 H 0.9469 0.12961 0.31203 0.0
H845 H 0.04334 0.04417 0.33631 0.0
C846 C 0.11974 0.12717 0.33576 0.0
C847 C 0.14311 0.18628 0.3326 0.0
C848 C 0.93027 0.09658 0.32157 0.0
C849 C 0.02741 0.1104 0.3266 0.0
C850 C 0.87509 0.07647 0.32766 0.0
C851 C 0.85407 0.03644 0.34077 0.0
C852 C 0.96477 0.0771 0.32881 0.0
C853 C 0.88764 0.0137 0.34657 0.0
C854 C 0.06181 0.089 0.33272 0.0
C855 C 0.10912 0.20479 0.32454 0.0
N856 N 0.94222 0.03541 0.34077 0.0
N857 N 0.05224 0.16699 0.32215 0.0
H858 H 0.04118 0.14393 0.51325 0.0
H859 H 0.76889 0.8807 0.55032 0.0
H860 H 0.91581 0.1549 0.54447 0.0
H861 H 0.90458 0.86912 0.52481 0.0
H862 H 0.83652 0.98231 0.55573 0.0
H863 H 0.00677 0.04641 0.52381 0.0
C864 C 1.00667 0.12586 0.52235 0.0
C865 C 0.97931 0.15605 0.52737 0.0
C866 C 0.85183 0.95731 0.54918 0.0
C867 C 0.94046 0.04588 0.53962 0.0
C868 C 0.81306 0.89945 0.54602 0.0
C869 C 0.83046 0.86784 0.53624 0.0
C870 C 0.90748 0.98326 0.54218 0.0
C871 C 0.8887 0.89312 0.53163 0.0
C872 C 0.98746 0.07063 0.52853 0.0
C873 C 0.93624 0.1319 0.53963 0.0
N874 N 0.92491 0.94999 0.53424 0.0
N875 N 0.91749 0.07781 0.54513 0.0
H876 H 0.04167 0.88899 0.70676 0.0
H877 H 0.88926 0.03764 0.66072 0.0
H878 H 0.96742 0.83587 0.65787 0.0
H879 H 0.83988 0.96673 0.71013 0.0
H880 H 0.95854 1.00303 0.65963 0.0
H881 H 0.00708 0.95824 0.70761 0.0
C882 C 0.01919 0.89302 0.69611 0.0
C883 C 1.00604 0.85664 0.68235 0.0
C884 C 0.93341 0.99656 0.67081 0.0
C885 C 0.96903 0.93568 0.68303 0.0
C886 C 0.89413 0.01588 0.67142 0.0
C887 C 0.85881 1.00368 0.68541 0.0
C888 C 0.93789 0.96671 0.68446 0.0
C889 C 0.86605 0.97568 0.69905 0.0
C890 C 0.99987 0.93229 0.69659 0.0
C891 C 0.97711 0.86285 0.66878 0.0
N892 N 0.90498 0.95776 0.69823 0.0
N893 N 0.95917 0.90176 0.66947 0.0
H894 H 0.1583 0.91386 0.82293 0.0
H895 H 0.86378 0.89719 0.84246 0.0
H896 H 0.13607 0.02481 0.85734 0.0
H897 H 0.88291 0.76062 0.82065 0.0
H898 H 0.96564 0.96452 0.83732 0.0
H899 H 0.06209 0.88027 0.81219 0.0
C900 C 0.13301 0.9311 0.82828 0.0
C901 C 0.15382 0.97016 0.8416 0.0
C902 C 0.94721 0.9201 0.83336 0.0
C903 C 0.04418 0.9321 0.82921 0.0
C904 C 0.88937 0.88152 0.83642 0.0
C905 C 0.86615 0.82275 0.83281 0.0
C906 C 0.98164 0.89937 0.82681 0.0
C907 C 0.90002 0.8052 0.82424 0.0
C908 C 0.0785 0.91248 0.82194 0.0
C909 C 0.12058 0.99319 0.84744 0.0
N910 N 0.95682 0.84329 0.82188 0.0
N911 N 0.06647 0.9727 0.84144 0.0
loop_
_geom_bond_atom_site_label_1
_geom_bond_atom_site_label_2
_geom_bond_distance
_geom_bond_site_symmetry_2
_ccdc_geom_bond_type
Fe0 O2 1.928 . S
Fe0 O5 2.018 . S
Fe0 O6 2.004 . S
Fe0 O11 1.953 1_554 S
Fe0 O14 1.992 1_554 S
Fe1 O2 1.918 . S
Fe1 O9 1.997 . S
Fe1 O12 1.996 1_554 S
Fe1 O16 1.976 . S
Fe1 O19 2.002 . S
O2 Fe0 1.928 . S
O2 Fe1 1.918 . S
O2 Fe3 1.918 . S
Fe3 O2 1.918 . S
Fe3 O4 2.002 . S
Fe3 O13 1.976 . S
Fe3 O17 1.996 . S
Fe3 O20 1.997 . S
O4 Fe3 2.002 . S
O4 C21 1.295 . S
O5 Fe0 2.018 . S
O5 C21 1.235 . S
O6 Fe0 2.004 . S
O6 C7 1.295 . S
C7 O6 1.295 . S
C7 O9 1.235 . S
C8 O13 1.287 . S
C8 O14 1.255 1_554 S
O9 Fe1 1.997 . S
O9 C7 1.235 . S
C10 O16 1.287 . S
C10 O17 1.255 . S
O11 Fe0 1.953 1_556 S
O11 C18 1.287 . S
O12 Fe1 1.996 1_556 S
O12 C18 1.255 . S
O13 Fe3 1.976 . S
O13 C8 1.287 . S
O14 Fe0 1.992 1_556 S
O14 C8 1.255 1_556 S
C15 O19 1.295 . S
C15 O20 1.235 . S
O16 Fe1 1.976 . S
O16 C10 1.287 . S
O17 Fe3 1.996 . S
O17 C10 1.255 . S
C18 O11 1.287 . S
C18 O12 1.255 . S
O19 Fe1 2.002 . S
O19 C15 1.295 . S
O20 Fe3 1.997 . S
O20 C15 1.235 . S
C21 O4 1.295 . S
C21 O5 1.235 . S
Fe22 O24 1.918 . S
Fe22 O27 1.992 1_655 S
Fe22 O28 2.002 . S
Fe22 O33 1.976 . S
Fe22 O36 1.996 . S
Fe23 O24 1.918 . S
Fe23 O31 1.997 . S
Fe23 O34 1.996 . S
Fe23 O38 1.976 . S
Fe23 O41 2.002 . S
O24 Fe22 1.918 . S
O24 Fe23 1.918 . S
O24 Fe25 1.918 1_655 S
Fe25 O24 1.918 1_455 S
Fe25 O26 2.002 . S
Fe25 O35 1.976 . S
Fe25 O39 1.996 . S
Fe25 O42 1.997 . S
O26 Fe25 2.002 . S
O26 C43 1.295 . S
O27 Fe22 1.992 1_455 S
O27 C43 1.241 . S
O28 Fe22 2.002 . S
O28 C29 1.295 . S
C29 O28 1.295 . S
C29 O31 1.235 . S
C30 O35 1.287 . S
C30 O36 1.255 1_455 S
O31 Fe23 1.997 . S
O31 C29 1.235 . S
C32 O38 1.287 . S
C32 O39 1.255 1_655 S
O33 Fe22 1.976 . S
O33 C40 1.287 . S
O34 Fe23 1.996 . S
O34 C40 1.255 . S
O35 Fe25 1.976 . S
O35 C30 1.287 . S
O36 Fe22 1.996 . S
O36 C30 1.255 1_655 S
C37 O41 1.295 1_455 S
C37 O42 1.235 . S
O38 Fe23 1.976 . S
O38 C32 1.287 . S
O39 Fe25 1.996 . S
O39 C32 1.255 1_455 S
C40 O33 1.287 . S
C40 O34 1.255 . S
O41 Fe23 2.002 . S
O41 C37 1.295 1_655 S
O42 Fe25 1.997 . S
O42 C37 1.235 . S
C43 O26 1.295 . S
C43 O27 1.241 . S
Fe44 O46 1.918 . S
Fe44 O49 1.997 . S
Fe44 O50 2.002 . S
Fe44 O55 1.976 . S
Fe44 O58 1.996 . S
Fe45 O46 1.918 1_545 S
Fe45 O53 1.997 . S
Fe45 O56 1.996 . S
Fe45 O60 1.976 . S
Fe45 O63 2.002 . S
O46 Fe44 1.918 . S
O46 Fe45 1.918 1_565 S
O46 Fe47 1.918 . S
Fe47 O46 1.918 . S
Fe47 O48 2.002 . S
Fe47 O57 1.976 . S
Fe47 O61 1.996 . S
Fe47 O64 1.992 1_565 S
O48 Fe47 2.002 . S
O48 C65 1.295 . S
O49 Fe44 1.997 . S
O49 C65 1.235 . S
O50 Fe44 2.002 . S
O50 C51 1.295 1_565 S
C51 O50 1.295 1_545 S
C51 O53 1.235 . S
C52 O57 1.287 . S
C52 O58 1.255 . S
O53 Fe45 1.997 . S
O53 C51 1.235 . S
C54 O60 1.287 . S
C54 O61 1.255 1_545 S
O55 Fe44 1.976 . S
O55 C62 1.287 . S
O56 Fe45 1.996 . S
O56 C62 1.255 1_545 S
O57 Fe47 1.976 . S
O57 C52 1.287 . S
O58 Fe44 1.996 . S
O58 C52 1.255 . S
C59 O63 1.295 . S
C59 O64 1.240 . S
O60 Fe45 1.976 . S
O60 C54 1.287 . S
O61 Fe47 1.996 . S
O61 C54 1.255 1_565 S
C62 O55 1.287 . S
C62 O56 1.255 1_565 S
O63 Fe45 2.002 . S
O63 C59 1.295 . S
O64 Fe47 1.992 1_545 S
O64 C59 1.240 . S
C65 O48 1.295 . S
C65 O49 1.235 . S
Fe66 O68 1.918 . S
Fe66 O71 1.997 . S
Fe66 O72 2.002 . S
Fe66 O77 1.976 . S
Fe66 O80 1.996 . S
Fe67 O68 1.918 . S
Fe67 O75 1.997 . S
Fe67 O78 1.996 . S
Fe67 O82 1.976 . S
Fe67 O85 2.002 . S
O68 Fe66 1.918 . S
O68 Fe67 1.918 . S
O68 Fe69 1.918 . S
Fe69 O68 1.918 . S
Fe69 O70 2.002 . S
Fe69 O79 1.976 . S
Fe69 O83 1.996 . S
Fe69 O86 1.997 . S
O70 Fe69 2.002 . S
O70 C87 1.295 . S
O71 Fe66 1.997 . S
O71 C87 1.235 . S
O72 Fe66 2.002 . S
O72 C73 1.295 . S
C73 O72 1.295 . S
C73 O75 1.235 . S
C74 O79 1.287 . S
C74 O80 1.255 . S
O75 Fe67 1.997 . S
O75 C73 1.235 . S
C76 O82 1.287 . S
C76 O83 1.255 . S
O77 Fe66 1.976 . S
O77 C84 1.287 . S
O78 Fe67 1.996 . S
O78 C84 1.255 . S
O79 Fe69 1.976 . S
O79 C74 1.287 . S
O80 Fe66 1.996 . S
O80 C74 1.255 . S
C81 O85 1.295 . S
C81 O86 1.235 . S
O82 Fe67 1.976 . S
O82 C76 1.287 . S
O83 Fe69 1.996 . S
O83 C76 1.255 . S
C84 O77 1.287 . S
C84 O78 1.255 . S
O85 Fe67 2.002 . S
O85 C81 1.295 . S
O86 Fe69 1.997 . S
O86 C81 1.235 . S
C87 O70 1.295 . S
C87 O71 1.235 . S
Fe88 O90 1.918 . S
Fe88 O93 1.989 1_455 S
Fe88 O94 2.002 . S
Fe88 O99 1.976 . S
Fe88 O102 1.996 . S
Fe89 O90 1.918 . S
Fe89 O97 1.997 . S
Fe89 O100 1.996 . S
Fe89 O104 1.976 . S
Fe89 O107 2.002 . S
O90 Fe88 1.918 . S
O90 Fe89 1.918 . S
O90 Fe91 1.918 1_455 S
Fe91 O90 1.918 1_655 S
Fe91 O92 2.002 . S
Fe91 O101 1.976 . S
Fe91 O105 1.996 . S
Fe91 O108 1.997 . S
O92 Fe91 2.002 . S
O92 C109 1.295 . S
O93 Fe88 1.989 1_655 S
O93 C109 1.245 . S
O94 Fe88 2.002 . S
O94 C95 1.295 . S
C95 O94 1.295 . S
C95 O97 1.235 . S
C96 O101 1.287 . S
C96 O102 1.255 1_655 S
O97 Fe89 1.997 . S
O97 C95 1.235 . S
C98 O104 1.287 . S
C98 O105 1.255 1_455 S
O99 Fe88 1.976 . S
O99 C106 1.287 . S
O100 Fe89 1.996 . S
O100 C106 1.255 . S
O101 Fe91 1.976 . S
O101 C96 1.287 . S
O102 Fe88 1.996 . S
O102 C96 1.255 1_455 S
C103 O107 1.295 1_655 S
C103 O108 1.235 . S
O104 Fe89 1.976 . S
O104 C98 1.287 . S
O105 Fe91 1.996 . S
O105 C98 1.255 1_655 S
C106 O99 1.287 . S
C106 O100 1.255 . S
O107 Fe89 2.002 . S
O107 C103 1.295 1_455 S
O108 Fe91 1.997 . S
O108 C103 1.235 . S
C109 O92 1.295 . S
C109 O93 1.245 . S
Fe110 O112 1.918 . S
Fe110 O115 1.997 . S
Fe110 O116 2.002 . S
Fe110 O121 1.976 . S
Fe110 O124 1.996 . S
Fe111 O112 1.918 1_565 S
Fe111 O119 1.997 . S
Fe111 O122 1.996 . S
Fe111 O126 1.976 . S
Fe111 O129 2.002 . S
O112 Fe110 1.918 . S
O112 Fe111 1.918 1_545 S
O112 Fe113 1.918 . S
Fe113 O112 1.918 . S
Fe113 O114 2.002 . S
Fe113 O123 1.976 . S
Fe113 O127 1.996 . S
Fe113 O130 1.992 1_545 S
O114 Fe113 2.002 . S
O114 C131 1.295 . S
O115 Fe110 1.997 . S
O115 C131 1.235 . S
O116 Fe110 2.002 . S
O116 C117 1.295 1_545 S
C117 O116 1.295 1_565 S
C117 O119 1.235 . S
C118 O123 1.287 . S
C118 O124 1.255 . S
O119 Fe111 1.997 . S
O119 C117 1.235 . S
C120 O126 1.287 . S
C120 O127 1.255 1_565 S
O121 Fe110 1.976 . S
O121 C128 1.287 . S
O122 Fe111 1.996 . S
O122 C128 1.255 1_565 S
O123 Fe113 1.976 . S
O123 C118 1.287 . S
O124 Fe110 1.996 . S
O124 C118 1.255 . S
C125 O129 1.295 . S
C125 O130 1.240 . S
O126 Fe111 1.976 . S
O126 C120 1.287 . S
O127 Fe113 1.996 . S
O127 C120 1.255 1_545 S
C128 O121 1.287 . S
C128 O122 1.255 1_545 S
O129 Fe111 2.002 . S
O129 C125 1.295 . S
O130 Fe113 1.992 1_565 S
O130 C125 1.240 . S
C131 O114 1.295 . S
C131 O115 1.235 . S
Fe132 O134 1.918 . S
Fe132 O137 1.997 . S
Fe132 O138 2.002 . S
Fe132 O143 1.976 . S
Fe132 O146 1.996 . S
Fe133 O134 1.918 . S
Fe133 O141 1.997 . S
Fe133 O144 1.996 . S
Fe133 O148 1.976 . S
Fe133 O151 2.002 . S
O134 Fe132 1.918 . S
O134 Fe133 1.918 . S
O134 Fe135 1.918 . S
Fe135 O134 1.918 . S
Fe135 O136 2.002 . S
Fe135 O145 1.976 . S
Fe135 O149 1.996 . S
Fe135 O152 1.997 . S
O136 Fe135 2.002 . S
O136 C153 1.295 . S
O137 Fe132 1.997 . S
O137 C153 1.235 . S
O138 Fe132 2.002 . S
O138 C139 1.295 . S
C139 O138 1.295 . S
C139 O141 1.235 . S
C140 O145 1.287 . S
C140 O146 1.255 . S
O141 Fe133 1.997 . S
O141 C139 1.235 . S
C142 O148 1.287 . S
C142 O149 1.255 . S
O143 Fe132 1.976 . S
O143 C150 1.287 . S
O144 Fe133 1.996 . S
O144 C150 1.255 . S
O145 Fe135 1.976 . S
O145 C140 1.287 . S
O146 Fe132 1.996 . S
O146 C140 1.255 . S
C147 O151 1.295 . S
C147 O152 1.235 . S
O148 Fe133 1.976 . S
O148 C142 1.287 . S
O149 Fe135 1.996 . S
O149 C142 1.255 . S
C150 O143 1.287 . S
C150 O144 1.255 . S
O151 Fe133 2.002 . S
O151 C147 1.295 . S
O152 Fe135 1.997 . S
O152 C147 1.235 . S
C153 O136 1.295 . S
C153 O137 1.235 . S
Fe154 O156 1.918 1_455 S
Fe154 O159 1.997 . S
Fe154 O160 2.002 . S
Fe154 O165 1.976 . S
Fe154 O168 1.996 1_556 S
Fe155 O156 1.918 . S
Fe155 O163 1.993 1_655 S
Fe155 O166 1.996 . S
Fe155 O170 1.976 . S
Fe155 O173 2.002 . S
O156 Fe154 1.918 1_655 S
O156 Fe155 1.918 . S
O156 Fe157 1.918 . S
Fe157 O156 1.918 . S
Fe157 O158 2.002 . S
Fe157 O167 1.976 1_556 S
Fe157 O171 1.996 . S
Fe157 O174 1.997 . S
O158 Fe157 2.002 . S
O158 C175 1.295 1_655 S
O159 Fe154 1.997 . S
O159 C175 1.235 . S
O160 Fe154 2.002 . S
O160 C161 1.295 . S
C161 O160 1.295 . S
C161 O163 1.239 . S
C162 O167 1.287 . S
C162 O168 1.255 1_655 S
O163 Fe155 1.993 1_455 S
O163 C161 1.239 . S
C164 O170 1.287 . S
C164 O171 1.255 . S
O165 Fe154 1.976 . S
O165 C172 1.287 . S
O166 Fe155 1.996 . S
O166 C172 1.255 1_655 S
O167 Fe157 1.976 1_554 S
O167 C162 1.287 . S
O168 Fe154 1.996 1_554 S
O168 C162 1.255 1_455 S
C169 O173 1.295 . S
C169 O174 1.235 . S
O170 Fe155 1.976 . S
O170 C164 1.287 . S
O171 Fe157 1.996 . S
O171 C164 1.255 . S
C172 O165 1.287 . S
C172 O166 1.255 1_455 S
O173 Fe155 2.002 . S
O173 C169 1.295 . S
O174 Fe157 1.997 . S
O174 C169 1.235 . S
C175 O158 1.295 1_455 S
C175 O159 1.235 . S
Fe176 O178 1.918 1_545 S
Fe176 O181 1.997 . S
Fe176 O182 2.002 . S
Fe176 O187 1.976 . S
Fe176 O190 1.996 . S
Fe177 O178 1.918 . S
Fe177 O185 1.991 1_565 S
Fe177 O188 1.996 . S
Fe177 O192 1.976 . S
Fe177 O195 2.002 . S
O178 Fe176 1.918 1_565 S
O178 Fe177 1.918 . S
O178 Fe179 1.918 . S
Fe179 O178 1.918 . S
Fe179 O180 2.002 . S
Fe179 O189 1.976 . S
Fe179 O193 1.996 . S
Fe179 O196 1.997 . S
O180 Fe179 2.002 . S
O180 C197 1.295 1_565 S
O181 Fe176 1.997 . S
O181 C197 1.235 . S
O182 Fe176 2.002 . S
O182 C183 1.295 . S
C183 O182 1.295 . S
C183 O185 1.243 . S
C184 O189 1.287 . S
C184 O190 1.255 1_565 S
O185 Fe177 1.991 1_545 S
O185 C183 1.243 . S
C186 O192 1.287 . S
C186 O193 1.255 . S
O187 Fe176 1.976 . S
O187 C194 1.287 . S
O188 Fe177 1.996 . S
O188 C194 1.255 1_565 S
O189 Fe179 1.976 . S
O189 C184 1.287 . S
O190 Fe176 1.996 . S
O190 C184 1.255 1_545 S
C191 O195 1.295 . S
C191 O196 1.235 . S
O192 Fe177 1.976 . S
O192 C186 1.287 . S
O193 Fe179 1.996 . S
O193 C186 1.255 . S
C194 O187 1.287 . S
C194 O188 1.255 1_545 S
O195 Fe177 2.002 . S
O195 C191 1.295 . S
O196 Fe179 1.997 . S
O196 C191 1.235 . S
C197 O180 1.295 1_545 S
C197 O181 1.235 . S
Fe198 O200 1.918 . S
Fe198 O203 1.997 . S
Fe198 O204 2.002 . S
Fe198 O209 1.976 . S
Fe198 O212 1.996 . S
Fe199 O200 1.918 . S
Fe199 O207 1.997 . S
Fe199 O210 1.996 . S
Fe199 O214 1.976 . S
Fe199 O217 2.002 . S
O200 Fe198 1.918 . S
O200 Fe199 1.918 . S
O200 Fe201 1.918 . S
Fe201 O200 1.918 . S
Fe201 O202 2.002 . S
Fe201 O211 1.976 . S
Fe201 O215 1.996 . S
Fe201 O218 1.997 . S
O202 Fe201 2.002 . S
O202 C219 1.295 . S
O203 Fe198 1.997 . S
O203 C219 1.235 . S
O204 Fe198 2.002 . S
O204 C205 1.295 . S
C205 O204 1.295 . S
C205 O207 1.235 . S
C206 O211 1.287 . S
C206 O212 1.255 . S
O207 Fe199 1.997 . S
O207 C205 1.235 . S
C208 O214 1.287 . S
C208 O215 1.255 . S
O209 Fe198 1.976 . S
O209 C216 1.287 . S
O210 Fe199 1.996 . S
O210 C216 1.255 . S
O211 Fe201 1.976 . S
O211 C206 1.287 . S
O212 Fe198 1.996 . S
O212 C206 1.255 . S
C213 O217 1.295 . S
C213 O218 1.235 . S
O214 Fe199 1.976 . S
O214 C208 1.287 . S
O215 Fe201 1.996 . S
O215 C208 1.255 . S
C216 O209 1.287 . S
C216 O210 1.255 . S
O217 Fe199 2.002 . S
O217 C213 1.295 . S
O218 Fe201 1.997 . S
O218 C213 1.235 . S
C219 O202 1.295 . S
C219 O203 1.235 . S
Fe220 O222 1.918 . S
Fe220 O225 1.991 1_455 S
Fe220 O226 2.002 . S
Fe220 O231 1.976 . S
Fe220 O234 1.996 . S
Fe221 O222 1.918 . S
Fe221 O229 1.997 . S
Fe221 O232 1.996 . S
Fe221 O236 1.976 . S
Fe221 O239 2.002 . S
O222 Fe220 1.918 . S
O222 Fe221 1.918 . S
O222 Fe223 1.918 1_455 S
Fe223 O222 1.918 1_655 S
Fe223 O224 2.002 . S
Fe223 O233 1.976 . S
Fe223 O237 1.996 . S
Fe223 O240 1.997 . S
O224 Fe223 2.002 . S
O224 C241 1.295 . S
O225 Fe220 1.991 1_655 S
O225 C241 1.242 . S
O226 Fe220 2.002 . S
O226 C227 1.295 . S
C227 O226 1.295 . S
C227 O229 1.235 . S
C228 O233 1.287 . S
C228 O234 1.255 1_655 S
O229 Fe221 1.997 . S
O229 C227 1.235 . S
C230 O236 1.287 . S
C230 O237 1.255 1_455 S
O231 Fe220 1.976 . S
O231 C238 1.287 . S
O232 Fe221 1.996 . S
O232 C238 1.255 . S
O233 Fe223 1.976 . S
O233 C228 1.287 . S
O234 Fe220 1.996 . S
O234 C228 1.255 1_455 S
C235 O239 1.295 1_655 S
C235 O240 1.235 . S
O236 Fe221 1.976 . S
O236 C230 1.287 . S
O237 Fe223 1.996 . S
O237 C230 1.255 1_655 S
C238 O231 1.287 . S
C238 O232 1.255 . S
O239 Fe221 2.002 . S
O239 C235 1.295 1_455 S
O240 Fe223 1.997 . S
O240 C235 1.235 . S
C241 O224 1.295 . S
C241 O225 1.242 . S
Fe242 O244 1.918 1_565 S
Fe242 O247 1.997 . S
Fe242 O248 2.002 . S
Fe242 O253 1.976 . S
Fe242 O256 1.996 . S
Fe243 O244 1.918 . S
Fe243 O251 1.991 1_545 S
Fe243 O254 1.996 . S
Fe243 O258 1.976 . S
Fe243 O261 2.002 . S
O244 Fe242 1.918 1_545 S
O244 Fe243 1.918 . S
O244 Fe245 1.918 . S
Fe245 O244 1.918 . S
Fe245 O246 2.002 . S
Fe245 O255 1.976 . S
Fe245 O259 1.996 . S
Fe245 O262 1.997 . S
O246 Fe245 2.002 . S
O246 C263 1.295 1_545 S
O247 Fe242 1.997 . S
O247 C263 1.235 . S
O248 Fe242 2.002 . S
O248 C249 1.295 . S
C249 O248 1.295 . S
C249 O251 1.243 . S
C250 O255 1.287 . S
C250 O256 1.255 1_545 S
O251 Fe243 1.991 1_565 S
O251 C249 1.243 . S
C252 O258 1.287 . S
C252 O259 1.255 . S
O253 Fe242 1.976 . S
O253 C260 1.287 . S
O254 Fe243 1.996 . S
O254 C260 1.255 1_545 S
O255 Fe245 1.976 . S
O255 C250 1.287 . S
O256 Fe242 1.996 . S
O256 C250 1.255 1_565 S
C257 O261 1.295 . S
C257 O262 1.235 . S
O258 Fe243 1.976 . S
O258 C252 1.287 . S
O259 Fe245 1.996 . S
O259 C252 1.255 . S
C260 O253 1.287 . S
C260 O254 1.255 1_565 S
O261 Fe243 2.002 . S
O261 C257 1.295 . S
O262 Fe245 1.997 . S
O262 C257 1.235 . S
C263 O246 1.295 1_565 S
C263 O247 1.235 . S
H264 C270 0.930 . S
H265 C274 0.923 1_556 S
H266 C279 0.929 . S
H267 C277 0.929 . S
H268 C272 0.939 . S
H269 C278 0.929 . S
C270 H264 0.930 . S
C270 C271 1.367 1_554 S
C270 C278 1.378 . S
C271 C270 1.367 1_556 S
C271 C279 1.433 . S
C272 H268 0.939 . S
C272 C274 1.375 1_556 S
C272 C276 1.344 1_556 S
C273 C276 1.468 . S
C273 C278 1.361 . S
C273 N281 1.413 1_554 S
C274 H265 0.923 1_554 S
C274 C272 1.375 1_554 S
C274 C275 1.367 . S
C275 C274 1.367 . S
C275 C277 1.433 . S
C276 C272 1.344 1_554 S
C276 C273 1.468 . S
C276 N280 1.427 . S
C277 H267 0.929 . S
C277 C275 1.433 . S
C277 N280 1.384 . S
C278 H269 0.929 . S
C278 C270 1.378 . S
C278 C273 1.361 . S
C279 H266 0.929 . S
C279 C271 1.433 . S
C279 N281 1.384 . S
N280 C276 1.427 . S
N280 C277 1.384 . S
N281 C273 1.413 1_556 S
N281 C279 1.384 . S
H282 C288 0.930 . S
H283 C292 0.930 . S
H284 C297 0.929 . S
H285 C295 0.929 . S
H286 C290 0.929 . S
H287 C296 0.929 . S
C288 H282 0.930 . S
C288 C289 1.367 . S
C288 C296 1.378 . S
C289 C288 1.367 . S
C289 C297 1.433 . S
C290 H286 0.929 . S
C290 C292 1.378 . S
C290 C294 1.350 . S
C291 C294 1.463 . S
C291 C296 1.350 . S
C291 N299 1.427 . S
C292 H283 0.930 . S
C292 C290 1.378 . S
C292 C293 1.367 . S
C293 C292 1.367 . S
C293 C295 1.433 . S
C294 C290 1.350 . S
C294 C291 1.463 . S
C294 N298 1.427 . S
C295 H285 0.929 . S
C295 C293 1.433 . S
C295 N298 1.384 . S
C296 H287 0.929 . S
C296 C288 1.378 . S
C296 C291 1.350 . S
C297 H284 0.929 . S
C297 C289 1.433 . S
C297 N299 1.384 . S
N298 C294 1.427 . S
N298 C295 1.384 . S
N299 C291 1.427 . S
N299 C297 1.384 . S
H300 C306 0.930 . S
H301 C310 0.930 . S
H302 C315 0.929 . S
H303 C313 0.929 1_565 S
H304 C308 0.929 . S
H305 C314 0.929 . S
C306 H300 0.930 . S
C306 C307 1.367 . S
C306 C314 1.378 . S
C307 C306 1.367 . S
C307 C315 1.433 . S
C308 H304 0.929 . S
C308 C310 1.378 . S
C308 C312 1.350 . S
C309 C312 1.463 . S
C309 C314 1.350 . S
C309 N317 1.427 . S
C310 H301 0.930 . S
C310 C308 1.378 . S
C310 C311 1.367 . S
C311 C310 1.367 . S
C311 C313 1.433 . S
C312 C308 1.350 . S
C312 C309 1.463 . S
C312 N316 1.427 . S
C313 H303 0.929 1_545 S
C313 C311 1.433 . S
C313 N316 1.384 . S
C314 H305 0.929 . S
C314 C306 1.378 . S
C314 C309 1.350 . S
C315 H302 0.929 . S
C315 C307 1.433 . S
C315 N317 1.384 . S
N316 C312 1.427 . S
N316 C313 1.384 . S
N317 C309 1.427 . S
N317 C315 1.384 . S
H318 C324 0.930 . S
H319 C328 0.930 . S
H320 C333 0.929 . S
H321 C331 0.929 . S
H322 C326 0.929 . S
H323 C332 0.929 . S
C324 H318 0.930 . S
C324 C325 1.367 . S
C324 C332 1.378 . S
C325 C324 1.367 . S
C325 C333 1.433 . S
C326 H322 0.929 . S
C326 C328 1.378 . S
C326 C330 1.350 . S
C327 C330 1.463 . S
C327 C332 1.350 . S
C327 N335 1.427 . S
C328 H319 0.930 . S
C328 C326 1.378 . S
C328 C329 1.367 . S
C329 C328 1.367 . S
C329 C331 1.433 . S
C330 C326 1.350 . S
C330 C327 1.463 . S
C330 N334 1.427 . S
C331 H321 0.929 . S
C331 C329 1.433 . S
C331 N334 1.384 . S
C332 H323 0.929 . S
C332 C324 1.378 . S
C332 C327 1.350 . S
C333 H320 0.929 . S
C333 C325 1.433 . S
C333 N335 1.384 . S
N334 C330 1.427 . S
N334 C331 1.384 . S
N335 C327 1.427 . S
N335 C333 1.384 . S
H336 C342 0.930 . S
H337 C346 0.930 . S
H338 C351 0.929 . S
H339 C349 0.929 . S
H340 C344 0.929 . S
H341 C350 0.929 . S
C342 H336 0.930 . S
C342 C343 1.367 . S
C342 C350 1.378 . S
C343 C342 1.367 . S
C343 C351 1.433 . S
C344 H340 0.929 . S
C344 C346 1.378 . S
C344 C348 1.350 . S
C345 C348 1.463 . S
C345 C350 1.350 . S
C345 N353 1.427 . S
C346 H337 0.930 . S
C346 C344 1.378 . S
C346 C347 1.367 . S
C347 C346 1.367 . S
C347 C349 1.433 . S
C348 C344 1.350 . S
C348 C345 1.463 . S
C348 N352 1.427 . S
C349 H339 0.929 . S
C349 C347 1.433 . S
C349 N352 1.384 . S
C350 H341 0.929 . S
C350 C342 1.378 . S
C350 C345 1.350 . S
C351 H338 0.929 . S
C351 C343 1.433 . S
C351 N353 1.384 . S
N352 C348 1.427 . S
N352 C349 1.384 . S
N353 C345 1.427 . S
N353 C351 1.384 . S
H354 C360 0.930 . S
H355 C364 0.930 . S
H356 C369 0.929 . S
H357 C367 0.929 . S
H358 C362 0.929 . S
H359 C368 0.929 . S
C360 H354 0.930 . S
C360 C361 1.367 . S
C360 C368 1.378 . S
C361 C360 1.367 . S
C361 C369 1.433 . S
C362 H358 0.929 . S
C362 C364 1.378 . S
C362 C366 1.350 . S
C363 C366 1.463 . S
C363 C368 1.350 . S
C363 N371 1.427 . S
C364 H355 0.930 . S
C364 C362 1.378 . S
C364 C365 1.367 . S
C365 C364 1.367 . S
C365 C367 1.433 . S
C366 C362 1.350 . S
C366 C363 1.463 . S
C366 N370 1.427 . S
C367 H357 0.929 . S
C367 C365 1.433 . S
C367 N370 1.384 . S
C368 H359 0.929 . S
C368 C360 1.378 . S
C368 C363 1.350 . S
C369 H356 0.929 . S
C369 C361 1.433 . S
C369 N371 1.384 . S
N370 C366 1.427 . S
N370 C367 1.384 . S
N371 C363 1.427 . S
N371 C369 1.384 . S
H372 C378 0.930 . S
H373 C382 0.930 . S
H374 C387 0.929 . S
H375 C385 0.929 . S
H376 C380 0.929 . S
H377 C386 0.929 . S
C378 H372 0.930 . S
C378 C379 1.367 . S
C378 C386 1.378 . S
C379 C378 1.367 . S
C379 C387 1.433 . S
C380 H376 0.929 . S
C380 C382 1.378 . S
C380 C384 1.350 . S
C381 C384 1.463 . S
C381 C386 1.350 . S
C381 N389 1.427 . S
C382 H373 0.930 . S
C382 C380 1.378 . S
C382 C383 1.367 . S
C383 C382 1.367 . S
C383 C385 1.433 . S
C384 C380 1.350 . S
C384 C381 1.463 . S
C384 N388 1.427 . S
C385 H375 0.929 . S
C385 C383 1.433 . S
C385 N388 1.384 . S
C386 H377 0.929 . S
C386 C378 1.378 . S
C386 C381 1.350 . S
C387 H374 0.929 . S
C387 C379 1.433 . S
C387 N389 1.384 . S
N388 C384 1.427 . S
N388 C385 1.384 . S
N389 C381 1.427 . S
N389 C387 1.384 . S
H390 C396 0.930 . S
H391 C400 0.930 . S
H392 C405 0.929 . S
H393 C403 0.929 . S
H394 C398 0.929 . S
H395 C404 0.929 . S
C396 H390 0.930 . S
C396 C397 1.367 . S
C396 C404 1.378 . S
C397 C396 1.367 . S
C397 C405 1.433 1_556 S
C398 H394 0.929 . S
C398 C400 1.378 . S
C398 C402 1.350 1_554 S
C399 C402 1.463 . S
C399 C404 1.350 . S
C399 N407 1.427 1_556 S
C400 H391 0.930 . S
C400 C398 1.378 . S
C400 C401 1.366 1_554 S
C401 C400 1.366 1_556 S
C401 C403 1.434 . S
C402 C398 1.350 1_556 S
C402 C399 1.463 . S
C402 N406 1.427 . S
C403 H393 0.929 . S
C403 C401 1.434 . S
C403 N406 1.384 . S
C404 H395 0.929 . S
C404 C396 1.378 . S
C404 C399 1.350 . S
C405 H392 0.929 . S
C405 C397 1.433 1_554 S
C405 N407 1.384 . S
N406 C402 1.427 . S
N406 C403 1.384 . S
N407 C399 1.427 1_554 S
N407 C405 1.384 . S
H408 C414 0.930 . S
H409 C418 0.930 . S
H410 C423 0.929 1_565 S
H411 C421 0.929 . S
H412 C416 0.929 . S
H413 C422 0.929 . S
C414 H408 0.930 . S
C414 C415 1.367 . S
C414 C422 1.378 . S
C415 C414 1.367 . S
C415 C423 1.433 . S
C416 H412 0.929 . S
C416 C418 1.378 . S
C416 C420 1.350 . S
C417 C420 1.463 . S
C417 C422 1.350 . S
C417 N425 1.427 . S
C418 H409 0.930 . S
C418 C416 1.378 . S
C418 C419 1.367 . S
C419 C418 1.367 . S
C419 C421 1.433 . S
C420 C416 1.350 . S
C420 C417 1.463 . S
C420 N424 1.427 . S
C421 H411 0.929 . S
C421 C419 1.433 . S
C421 N424 1.384 . S
C422 H413 0.929 . S
C422 C414 1.378 . S
C422 C417 1.350 . S
C423 H410 0.929 1_545 S
C423 C415 1.433 . S
C423 N425 1.384 . S
N424 C420 1.427 . S
N424 C421 1.384 . S
N425 C417 1.427 . S
N425 C423 1.384 . S
H426 C432 0.930 . S
H427 C436 0.930 . S
H428 C441 0.929 . S
H429 C439 0.929 . S
H430 C434 0.929 . S
H431 C440 0.929 . S
C432 H426 0.930 . S
C432 C433 1.367 . S
C432 C440 1.378 . S
C433 C432 1.367 . S
C433 C441 1.433 . S
C434 H430 0.929 . S
C434 C436 1.378 . S
C434 C438 1.350 . S
C435 C438 1.463 . S
C435 C440 1.350 . S
C435 N443 1.427 . S
C436 H427 0.930 . S
C436 C434 1.378 . S
C436 C437 1.367 . S
C437 C436 1.367 . S
C437 C439 1.433 . S
C438 C434 1.350 . S
C438 C435 1.463 . S
C438 N442 1.427 . S
C439 H429 0.929 . S
C439 C437 1.433 . S
C439 N442 1.384 . S
C440 H431 0.929 . S
C440 C432 1.378 . S
C440 C435 1.350 . S
C441 H428 0.929 . S
C441 C433 1.433 . S
C441 N443 1.384 . S
N442 C438 1.427 . S
N442 C439 1.384 . S
N443 C435 1.427 . S
N443 C441 1.384 . S
H444 C450 0.930 . S
H445 C454 0.930 . S
H446 C459 0.929 . S
H447 C457 0.929 . S
H448 C452 0.929 . S
H449 C458 0.929 . S
C450 H444 0.930 . S
C450 C451 1.367 . S
C450 C458 1.378 . S
C451 C450 1.367 . S
C451 C459 1.433 . S
C452 H448 0.929 . S
C452 C454 1.378 . S
C452 C456 1.350 . S
C453 C456 1.463 . S
C453 C458 1.350 . S
C453 N461 1.427 . S
C454 H445 0.930 . S
C454 C452 1.378 . S
C454 C455 1.367 . S
C455 C454 1.367 . S
C455 C457 1.433 . S
C456 C452 1.350 . S
C456 C453 1.463 . S
C456 N460 1.427 . S
C457 H447 0.929 . S
C457 C455 1.433 . S
C457 N460 1.384 . S
C458 H449 0.929 . S
C458 C450 1.378 . S
C458 C453 1.350 . S
C459 H446 0.929 . S
C459 C451 1.433 . S
C459 N461 1.384 . S
N460 C456 1.427 . S
N460 C457 1.384 . S
N461 C453 1.427 . S
N461 C459 1.384 . S
H462 C468 0.930 1_545 S
H463 C472 0.930 . S
H464 C477 0.929 . S
H465 C475 0.929 . S
H466 C470 0.929 . S
H467 C476 0.929 . S
C468 H462 0.930 1_565 S
C468 C469 1.367 . S
C468 C476 1.378 . S
C469 C468 1.367 . S
C469 C477 1.433 . S
C470 H466 0.929 . S
C470 C472 1.378 . S
C470 C474 1.350 . S
C471 C474 1.463 . S
C471 C476 1.350 . S
C471 N479 1.427 . S
C472 H463 0.930 . S
C472 C470 1.378 . S
C472 C473 1.367 . S
C473 C472 1.367 . S
C473 C475 1.433 . S
C474 C470 1.350 . S
C474 C471 1.463 . S
C474 N478 1.427 . S
C475 H465 0.929 . S
C475 C473 1.433 . S
C475 N478 1.384 . S
C476 H467 0.929 . S
C476 C468 1.378 . S
C476 C471 1.350 . S
C477 H464 0.929 . S
C477 C469 1.433 . S
C477 N479 1.384 . S
N478 C474 1.427 . S
N478 C475 1.384 . S
N479 C471 1.427 . S
N479 C477 1.384 . S
H480 C486 0.930 . S
H481 C490 0.930 . S
H482 C495 0.929 . S
H483 C493 0.929 . S
H484 C488 0.929 . S
H485 C494 0.929 . S
C486 H480 0.930 . S
C486 C487 1.367 . S
C486 C494 1.378 . S
C487 C486 1.367 . S
C487 C495 1.433 . S
C488 H484 0.929 . S
C488 C490 1.378 . S
C488 C492 1.350 . S
C489 C492 1.463 . S
C489 C494 1.350 . S
C489 N497 1.427 . S
C490 H481 0.930 . S
C490 C488 1.378 . S
C490 C491 1.367 . S
C491 C490 1.367 . S
C491 C493 1.433 . S
C492 C488 1.350 . S
C492 C489 1.463 . S
C492 N496 1.427 . S
C493 H483 0.929 . S
C493 C491 1.433 . S
C493 N496 1.384 . S
C494 H485 0.929 . S
C494 C486 1.378 . S
C494 C489 1.350 . S
C495 H482 0.929 . S
C495 C487 1.433 . S
C495 N497 1.384 . S
N496 C492 1.427 . S
N496 C493 1.384 . S
N497 C489 1.427 . S
N497 C495 1.384 . S
H498 C504 0.930 . S
H499 C508 0.930 . S
H500 C513 0.929 . S
H501 C511 0.929 . S
H502 C506 0.929 . S
H503 C512 0.929 . S
C504 H498 0.930 . S
C504 C505 1.367 . S
C504 C512 1.378 . S
C505 C504 1.367 . S
C505 C513 1.433 1_655 S
C506 H502 0.929 . S
C506 C508 1.378 . S
C506 C510 1.350 . S
C507 C510 1.463 . S
C507 C512 1.350 1_455 S
C507 N515 1.427 . S
C508 H499 0.930 . S
C508 C506 1.378 . S
C508 C509 1.367 . S
C509 C508 1.367 . S
C509 C511 1.433 . S
C510 C506 1.350 . S
C510 C507 1.463 . S
C510 N514 1.427 . S
C511 H501 0.929 . S
C511 C509 1.433 . S
C511 N514 1.384 . S
C512 H503 0.929 . S
C512 C504 1.378 . S
C512 C507 1.350 1_655 S
C513 H500 0.929 . S
C513 C505 1.433 1_455 S
C513 N515 1.384 . S
N514 C510 1.427 . S
N514 C511 1.384 . S
N515 C507 1.427 . S
N515 C513 1.384 . S
H516 C522 0.930 . S
H517 C526 0.930 . S
H518 C531 0.929 . S
H519 C529 0.929 . S
H520 C524 0.929 . S
H521 C530 0.929 . S
C522 H516 0.930 . S
C522 C523 1.367 . S
C522 C530 1.378 . S
C523 C522 1.367 . S
C523 C531 1.433 . S
C524 H520 0.929 . S
C524 C526 1.378 . S
C524 C528 1.350 1_565 S
C525 C528 1.463 . S
C525 C530 1.350 . S
C525 N533 1.427 . S
C526 H517 0.930 . S
C526 C524 1.378 . S
C526 C527 1.367 . S
C527 C526 1.367 . S
C527 C529 1.433 1_565 S
C528 C524 1.350 1_545 S
C528 C525 1.463 . S
C528 N532 1.427 . S
C529 H519 0.929 . S
C529 C527 1.433 1_545 S
C529 N532 1.384 . S
C530 H521 0.929 . S
C530 C522 1.378 . S
C530 C525 1.350 . S
C531 H518 0.929 . S
C531 C523 1.433 . S
C531 N533 1.384 . S
N532 C528 1.427 . S
N532 C529 1.384 . S
N533 C525 1.427 . S
N533 C531 1.384 . S
H534 C540 0.930 . S
H535 C544 0.930 . S
H536 C549 0.929 . S
H537 C547 0.929 . S
H538 C542 0.929 . S
H539 C548 0.929 . S
C540 H534 0.930 . S
C540 C541 1.367 . S
C540 C548 1.378 . S
C541 C540 1.367 . S
C541 C549 1.433 . S
C542 H538 0.929 . S
C542 C544 1.378 . S
C542 C546 1.350 . S
C543 C546 1.463 . S
C543 C548 1.350 . S
C543 N551 1.427 . S
C544 H535 0.930 . S
C544 C542 1.378 . S
C544 C545 1.367 . S
C545 C544 1.367 . S
C545 C547 1.433 . S
C546 C542 1.350 . S
C546 C543 1.463 . S
C546 N550 1.427 . S
C547 H537 0.929 . S
C547 C545 1.433 . S
C547 N550 1.384 . S
C548 H539 0.929 . S
C548 C540 1.378 . S
C548 C543 1.350 . S
C549 H536 0.929 . S
C549 C541 1.433 . S
C549 N551 1.384 . S
N550 C546 1.427 . S
N550 C547 1.384 . S
N551 C543 1.427 . S
N551 C549 1.384 . S
H552 C558 0.930 . S
H553 C562 0.930 . S
H554 C567 0.929 . S
H555 C565 0.929 . S
H556 C560 0.929 . S
H557 C566 0.929 . S
C558 H552 0.930 . S
C558 C559 1.367 . S
C558 C566 1.378 . S
C559 C558 1.367 . S
C559 C567 1.433 . S
C560 H556 0.929 . S
C560 C562 1.378 . S
C560 C564 1.350 . S
C561 C564 1.463 . S
C561 C566 1.350 . S
C561 N569 1.427 . S
C562 H553 0.930 . S
C562 C560 1.378 . S
C562 C563 1.367 1_655 S
C563 C562 1.367 1_455 S
C563 C565 1.433 . S
C564 C560 1.350 . S
C564 C561 1.463 . S
C564 N568 1.427 . S
C565 H555 0.929 . S
C565 C563 1.433 . S
C565 N568 1.384 1_455 S
C566 H557 0.929 . S
C566 C558 1.378 . S
C566 C561 1.350 . S
C567 H554 0.929 . S
C567 C559 1.433 . S
C567 N569 1.384 . S
N568 C564 1.427 . S
N568 C565 1.384 1_655 S
N569 C561 1.427 . S
N569 C567 1.384 . S
H570 C576 0.930 . S
H571 C580 0.930 . S
H572 C585 0.929 1_545 S
H573 C583 0.929 . S
H574 C578 0.929 . S
H575 C584 0.929 . S
C576 H570 0.930 . S
C576 C577 1.361 1_565 S
C576 C584 1.378 . S
C577 C576 1.361 1_545 S
C577 C585 1.437 1_545 S
C578 H574 0.929 . S
C578 C580 1.378 . S
C578 C582 1.350 . S
C579 C582 1.463 . S
C579 C584 1.350 . S
C579 N587 1.427 . S
C580 H571 0.930 . S
C580 C578 1.378 . S
C580 C581 1.367 . S
C581 C580 1.367 . S
C581 C583 1.433 . S
C582 C578 1.350 . S
C582 C579 1.463 . S
C582 N586 1.427 . S
C583 H573 0.929 . S
C583 C581 1.433 . S
C583 N586 1.384 . S
C584 H575 0.929 . S
C584 C576 1.378 . S
C584 C579 1.350 . S
C585 H572 0.929 1_565 S
C585 C577 1.437 1_565 S
C585 N587 1.384 . S
N586 C582 1.427 . S
N586 C583 1.384 . S
N587 C579 1.427 . S
N587 C585 1.384 . S
H588 C594 0.930 . S
H589 C598 0.930 . S
H590 C603 0.929 . S
H591 C601 0.929 . S
H592 C596 0.929 . S
H593 C602 0.929 . S
C594 H588 0.930 . S
C594 C595 1.367 . S
C594 C602 1.378 . S
C595 C594 1.367 . S
C595 C603 1.433 . S
C596 H592 0.929 . S
C596 C598 1.378 . S
C596 C600 1.350 . S
C597 C600 1.463 . S
C597 C602 1.350 . S
C597 N605 1.427 . S
C598 H589 0.930 . S
C598 C596 1.378 . S
C598 C599 1.367 . S
C599 C598 1.367 . S
C599 C601 1.433 . S
C600 C596 1.350 . S
C600 C597 1.463 . S
C600 N604 1.427 . S
C601 H591 0.929 . S
C601 C599 1.433 . S
C601 N604 1.384 . S
C602 H593 0.929 . S
C602 C594 1.378 . S
C602 C597 1.350 . S
C603 H590 0.929 . S
C603 C595 1.433 . S
C603 N605 1.384 . S
N604 C600 1.427 . S
N604 C601 1.384 . S
N605 C597 1.427 . S
N605 C603 1.384 . S
H606 C612 0.930 . S
H607 C616 0.930 . S
H608 C621 0.929 . S
H609 C619 0.929 . S
H610 C614 0.929 . S
H611 C620 0.929 . S
C612 H606 0.930 . S
C612 C613 1.367 1_455 S
C612 C620 1.378 . S
C613 C612 1.367 1_655 S
C613 C621 1.433 . S
C614 H610 0.929 . S
C614 C616 1.378 . S
C614 C618 1.350 . S
C615 C618 1.463 . S
C615 C620 1.350 . S
C615 N623 1.427 . S
C616 H607 0.930 . S
C616 C614 1.378 . S
C616 C617 1.367 . S
C617 C616 1.367 . S
C617 C619 1.433 . S
C618 C614 1.350 . S
C618 C615 1.463 . S
C618 N622 1.427 . S
C619 H609 0.929 . S
C619 C617 1.433 . S
C619 N622 1.384 . S
C620 H611 0.929 . S
C620 C612 1.378 . S
C620 C615 1.350 . S
C621 H608 0.929 . S
C621 C613 1.433 . S
C621 N623 1.384 1_655 S
N622 C618 1.427 . S
N622 C619 1.384 . S
N623 C615 1.427 . S
N623 C621 1.384 1_455 S
H624 C630 0.930 . S
H625 C634 0.930 . S
H626 C639 0.929 . S
H627 C637 0.929 . S
H628 C632 0.929 . S
H629 C638 0.926 1_565 S
C630 H624 0.930 . S
C630 C631 1.367 . S
C630 C638 1.376 1_565 S
C631 C630 1.367 . S
C631 C639 1.433 1_565 S
C632 H628 0.929 . S
C632 C634 1.378 . S
C632 C636 1.350 . S
C633 C636 1.463 . S
C633 C638 1.355 . S
C633 N641 1.427 . S
C634 H625 0.930 . S
C634 C632 1.378 . S
C634 C635 1.367 . S
C635 C634 1.367 . S
C635 C637 1.433 . S
C636 C632 1.350 . S
C636 C633 1.463 . S
C636 N640 1.427 . S
C637 H627 0.929 . S
C637 C635 1.433 . S
C637 N640 1.384 . S
C638 H629 0.926 1_545 S
C638 C630 1.376 1_545 S
C638 C633 1.355 . S
C639 H626 0.929 . S
C639 C631 1.433 1_545 S
C639 N641 1.384 . S
N640 C636 1.427 . S
N640 C637 1.384 . S
N641 C633 1.427 . S
N641 C639 1.384 . S
H642 C648 0.930 . S
H643 C652 0.930 . S
H644 C657 0.929 . S
H645 C655 0.929 . S
H646 C650 0.929 . S
H647 C656 0.929 . S
C648 H642 0.930 . S
C648 C649 1.367 . S
C648 C656 1.378 . S
C649 C648 1.367 . S
C649 C657 1.433 . S
C650 H646 0.929 . S
C650 C652 1.378 . S
C650 C654 1.350 . S
C651 C654 1.463 . S
C651 C656 1.350 . S
C651 N659 1.427 . S
C652 H643 0.930 . S
C652 C650 1.378 . S
C652 C653 1.367 . S
C653 C652 1.367 . S
C653 C655 1.433 . S
C654 C650 1.350 . S
C654 C651 1.463 . S
C654 N658 1.427 . S
C655 H645 0.929 . S
C655 C653 1.433 . S
C655 N658 1.384 . S
C656 H647 0.929 . S
C656 C648 1.378 . S
C656 C651 1.350 . S
C657 H644 0.929 . S
C657 C649 1.433 . S
C657 N659 1.384 . S
N658 C654 1.427 . S
N658 C655 1.384 . S
N659 C651 1.427 . S
N659 C657 1.384 . S
H660 C666 0.930 . S
H661 C670 0.930 . S
H662 C675 0.929 . S
H663 C673 0.929 . S
H664 C668 0.929 . S
H665 C674 0.929 . S
C666 H660 0.930 . S
C666 C667 1.366 . S
C666 C674 1.378 . S
C667 C666 1.366 . S
C667 C675 1.433 1_655 S
C668 H664 0.929 . S
C668 C670 1.378 . S
C668 C672 1.350 . S
C669 C672 1.463 . S
C669 C674 1.350 . S
C669 N677 1.427 . S
C670 H661 0.930 . S
C670 C668 1.378 . S
C670 C671 1.367 . S
C671 C670 1.367 . S
C671 C673 1.433 . S
C672 C668 1.350 . S
C672 C669 1.463 . S
C672 N676 1.427 . S
C673 H663 0.929 . S
C673 C671 1.433 . S
C673 N676 1.384 . S
C674 H665 0.929 . S
C674 C666 1.378 . S
C674 C669 1.350 . S
C675 H662 0.929 . S
C675 C667 1.433 1_455 S
C675 N677 1.384 1_455 S
N676 C672 1.427 . S
N676 C673 1.384 . S
N677 C669 1.427 . S
N677 C675 1.384 1_655 S
H678 C684 0.930 . S
H679 C688 0.930 . S
H680 C693 0.929 . S
H681 C691 0.929 . S
H682 C686 0.929 . S
H683 C692 0.929 . S
C684 H678 0.930 . S
C684 C685 1.367 . S
C684 C692 1.378 . S
C685 C684 1.367 . S
C685 C693 1.433 . S
C686 H682 0.929 . S
C686 C688 1.378 . S
C686 C690 1.350 . S
C687 C690 1.463 . S
C687 C692 1.350 . S
C687 N695 1.427 . S
C688 H679 0.930 . S
C688 C686 1.378 . S
C688 C689 1.369 1_565 S
C689 C688 1.369 1_545 S
C689 C691 1.425 1_545 S
C690 C686 1.350 . S
C690 C687 1.463 . S
C690 N694 1.427 . S
C691 H681 0.929 . S
C691 C689 1.425 1_565 S
C691 N694 1.384 . S
C692 H683 0.929 . S
C692 C684 1.378 . S
C692 C687 1.350 . S
C693 H680 0.929 . S
C693 C685 1.433 . S
C693 N695 1.384 . S
N694 C690 1.427 . S
N694 C691 1.384 . S
N695 C687 1.427 . S
N695 C693 1.384 . S
H696 C702 0.930 . S
H697 C706 0.930 . S
H698 C711 0.929 . S
H699 C709 0.929 . S
H700 C704 0.929 . S
H701 C710 0.929 . S
C702 H696 0.930 . S
C702 C703 1.367 . S
C702 C710 1.378 . S
C703 C702 1.367 . S
C703 C711 1.433 . S
C704 H700 0.929 . S
C704 C706 1.378 . S
C704 C708 1.350 . S
C705 C708 1.463 . S
C705 C710 1.350 . S
C705 N713 1.427 . S
C706 H697 0.930 . S
C706 C704 1.378 . S
C706 C707 1.367 . S
C707 C706 1.367 . S
C707 C709 1.433 . S
C708 C704 1.350 . S
C708 C705 1.463 . S
C708 N712 1.427 . S
C709 H699 0.929 . S
C709 C707 1.433 . S
C709 N712 1.384 . S
C710 H701 0.929 . S
C710 C702 1.378 . S
C710 C705 1.350 . S
C711 H698 0.929 . S
C711 C703 1.433 . S
C711 N713 1.384 . S
N712 C708 1.427 . S
N712 C709 1.384 . S
N713 C705 1.427 . S
N713 C711 1.384 . S
H714 C720 0.930 . S
H715 C724 0.930 . S
H716 C729 0.929 . S
H717 C727 0.929 . S
H718 C722 0.929 . S
H719 C728 0.929 . S
C720 H714 0.930 . S
C720 C721 1.367 . S
C720 C728 1.378 . S
C721 C720 1.367 . S
C721 C729 1.433 . S
C722 H718 0.929 . S
C722 C724 1.378 . S
C722 C726 1.350 . S
C723 C726 1.463 . S
C723 C728 1.350 . S
C723 N731 1.427 . S
C724 H715 0.930 . S
C724 C722 1.378 . S
C724 C725 1.367 . S
C725 C724 1.367 . S
C725 C727 1.433 . S
C726 C722 1.350 . S
C726 C723 1.463 . S
C726 N730 1.427 . S
C727 H717 0.929 . S
C727 C725 1.433 . S
C727 N730 1.384 . S
C728 H719 0.929 . S
C728 C720 1.378 . S
C728 C723 1.350 . S
C729 H716 0.929 . S
C729 C721 1.433 . S
C729 N731 1.384 . S
N730 C726 1.427 . S
N730 C727 1.384 . S
N731 C723 1.427 . S
N731 C729 1.384 . S
H732 C738 0.930 . S
H733 C742 0.930 . S
H734 C747 0.929 . S
H735 C745 0.929 . S
H736 C740 0.929 . S
H737 C746 0.929 . S
C738 H732 0.930 . S
C738 C739 1.367 . S
C738 C746 1.378 . S
C739 C738 1.367 . S
C739 C747 1.433 . S
C740 H736 0.929 . S
C740 C742 1.378 . S
C740 C744 1.350 . S
C741 C744 1.463 . S
C741 C746 1.350 . S
C741 N749 1.427 . S
C742 H733 0.930 . S
C742 C740 1.378 . S
C742 C743 1.367 . S
C743 C742 1.367 . S
C743 C745 1.433 . S
C744 C740 1.350 . S
C744 C741 1.463 . S
C744 N748 1.427 . S
C745 H735 0.929 . S
C745 C743 1.433 . S
C745 N748 1.384 . S
C746 H737 0.929 . S
C746 C738 1.378 . S
C746 C741 1.350 . S
C747 H734 0.929 . S
C747 C739 1.433 . S
C747 N749 1.384 . S
N748 C744 1.427 . S
N748 C745 1.384 . S
N749 C741 1.427 . S
N749 C747 1.384 . S
H750 C756 0.930 . S
H751 C760 0.930 . S
H752 C765 0.929 . S
H753 C763 0.929 . S
H754 C758 0.929 . S
H755 C764 0.929 . S
C756 H750 0.930 . S
C756 C757 1.367 . S
C756 C764 1.378 . S
C757 C756 1.367 . S
C757 C765 1.433 . S
C758 H754 0.929 . S
C758 C760 1.378 . S
C758 C762 1.350 . S
C759 C762 1.463 . S
C759 C764 1.350 . S
C759 N767 1.427 . S
C760 H751 0.930 . S
C760 C758 1.378 . S
C760 C761 1.367 . S
C761 C760 1.367 . S
C761 C763 1.433 . S
C762 C758 1.350 . S
C762 C759 1.463 . S
C762 N766 1.427 . S
C763 H753 0.929 . S
C763 C761 1.433 . S
C763 N766 1.384 . S
C764 H755 0.929 . S
C764 C756 1.378 . S
C764 C759 1.350 . S
C765 H752 0.929 . S
C765 C757 1.433 . S
C765 N767 1.384 . S
N766 C762 1.427 . S
N766 C763 1.384 . S
N767 C759 1.427 . S
N767 C765 1.384 . S
H768 C774 0.930 . S
H769 C778 0.930 . S
H770 C783 0.929 . S
H771 C781 0.929 . S
H772 C776 0.929 . S
H773 C782 0.929 . S
C774 H768 0.930 . S
C774 C775 1.367 . S
C774 C782 1.378 . S
C775 C774 1.367 . S
C775 C783 1.433 . S
C776 H772 0.929 . S
C776 C778 1.378 . S
C776 C780 1.350 . S
C777 C780 1.463 . S
C777 C782 1.350 . S
C777 N785 1.427 . S
C778 H769 0.930 . S
C778 C776 1.378 . S
C778 C779 1.367 . S
C779 C778 1.367 . S
C779 C781 1.433 . S
C780 C776 1.350 . S
C780 C777 1.463 . S
C780 N784 1.427 . S
C781 H771 0.929 . S
C781 C779 1.433 . S
C781 N784 1.384 . S
C782 H773 0.929 . S
C782 C774 1.378 . S
C782 C777 1.350 . S
C783 H770 0.929 . S
C783 C775 1.433 . S
C783 N785 1.384 . S
N784 C780 1.427 . S
N784 C781 1.384 . S
N785 C777 1.427 . S
N785 C783 1.384 . S
H786 C792 0.930 . S
H787 C796 0.930 . S
H788 C801 0.929 . S
H789 C799 0.929 . S
H790 C794 0.929 . S
H791 C800 0.929 . S
C792 H786 0.930 . S
C792 C793 1.367 . S
C792 C800 1.378 . S
C793 C792 1.367 . S
C793 C801 1.433 . S
C794 H790 0.929 . S
C794 C796 1.378 . S
C794 C798 1.350 . S
C795 C798 1.463 . S
C795 C800 1.350 . S
C795 N803 1.427 . S
C796 H787 0.930 . S
C796 C794 1.378 . S
C796 C797 1.367 . S
C797 C796 1.367 . S
C797 C799 1.433 . S
C798 C794 1.350 . S
C798 C795 1.463 . S
C798 N802 1.427 . S
C799 H789 0.929 . S
C799 C797 1.433 . S
C799 N802 1.384 . S
C800 H791 0.929 . S
C800 C792 1.378 . S
C800 C795 1.350 . S
C801 H788 0.929 . S
C801 C793 1.433 . S
C801 N803 1.384 . S
N802 C798 1.427 . S
N802 C799 1.384 . S
N803 C795 1.427 . S
N803 C801 1.384 . S
H804 C810 0.930 . S
H805 C814 0.926 1_554 S
H806 C819 0.929 . S
H807 C817 0.929 . S
H808 C812 0.929 . S
H809 C818 0.929 . S
C810 H804 0.930 . S
C810 C811 1.367 1_556 S
C810 C818 1.378 . S
C811 C810 1.367 1_554 S
C811 C819 1.433 . S
C812 H808 0.929 . S
C812 C814 1.376 1_454 S
C812 C816 1.350 1_554 S
C813 C816 1.463 1_545 S
C813 C818 1.351 . S
C813 N821 1.425 1_556 S
C814 H805 0.926 1_556 S
C814 C812 1.376 1_656 S
C814 C815 1.373 1_655 S
C815 C814 1.373 1_455 S
C815 C817 1.433 . S
C816 C812 1.350 1_556 S
C816 C813 1.463 1_565 S
C816 N820 1.427 . S
C817 H807 0.929 . S
C817 C815 1.433 . S
C817 N820 1.384 . S
C818 H809 0.929 . S
C818 C810 1.378 . S
C818 C813 1.351 . S
C819 H806 0.929 . S
C819 C811 1.433 . S
C819 N821 1.384 . S
N820 C816 1.427 . S
N820 C817 1.384 . S
N821 C813 1.425 1_554 S
N821 C819 1.384 . S
H822 C828 0.930 . S
H823 C832 0.930 . S
H824 C837 0.929 . S
H825 C835 0.929 . S
H826 C830 0.929 . S
H827 C836 0.929 . S
C828 H822 0.930 . S
C828 C829 1.367 1_565 S
C828 C836 1.378 1_565 S
C829 C828 1.367 1_545 S
C829 C837 1.433 . S
C830 H826 0.929 . S
C830 C832 1.378 . S
C830 C834 1.350 . S
C831 C834 1.463 . S
C831 C836 1.350 . S
C831 N839 1.427 . S
C832 H823 0.930 . S
C832 C830 1.378 . S
C832 C833 1.367 . S
C833 C832 1.367 . S
C833 C835 1.433 1_455 S
C834 C830 1.350 . S
C834 C831 1.463 . S
C834 N838 1.427 . S
C835 H825 0.929 . S
C835 C833 1.433 1_655 S
C835 N838 1.384 1_655 S
C836 H827 0.929 . S
C836 C828 1.378 1_545 S
C836 C831 1.350 . S
C837 H824 0.929 . S
C837 C829 1.433 . S
C837 N839 1.384 . S
N838 C834 1.427 . S
N838 C835 1.384 1_455 S
N839 C831 1.427 . S
N839 C837 1.384 . S
H840 C846 0.930 . S
H841 C850 0.930 . S
H842 C855 0.929 . S
H843 C853 0.929 . S
H844 C848 0.929 . S
H845 C854 0.929 . S
C846 H840 0.930 . S
C846 C847 1.367 . S
C846 C854 1.378 . S
C847 C846 1.367 . S
C847 C855 1.433 . S
C848 H844 0.929 . S
C848 C850 1.378 . S
C848 C852 1.350 . S
C849 C852 1.463 1_455 S
C849 C854 1.350 . S
C849 N857 1.427 . S
C850 H841 0.930 . S
C850 C848 1.378 . S
C850 C851 1.367 . S
C851 C850 1.367 . S
C851 C853 1.433 1_545 S
C852 C848 1.350 . S
C852 C849 1.463 1_655 S
C852 N856 1.427 . S
C853 H843 0.929 . S
C853 C851 1.433 1_565 S
C853 N856 1.384 1_565 S
C854 H845 0.929 . S
C854 C846 1.378 . S
C854 C849 1.350 . S
C855 H842 0.929 . S
C855 C847 1.433 . S
C855 N857 1.384 . S
N856 C852 1.427 . S
N856 C853 1.384 1_545 S
N857 C849 1.427 . S
N857 C855 1.384 . S
H858 C864 0.930 1_455 S
H859 C868 0.930 . S
H860 C873 0.929 . S
H861 C871 0.929 . S
H862 C866 0.929 . S
H863 C872 0.929 . S
C864 H858 0.930 1_655 S
C864 C865 1.367 . S
C864 C872 1.378 . S
C865 C864 1.367 . S
C865 C873 1.433 . S
C866 H862 0.929 . S
C866 C868 1.378 . S
C866 C870 1.350 . S
C867 C870 1.463 1_545 S
C867 C872 1.350 . S
C867 N875 1.427 . S
C868 H859 0.930 . S
C868 C866 1.378 . S
C868 C869 1.367 . S
C869 C868 1.367 . S
C869 C871 1.433 . S
C870 C866 1.350 . S
C870 C867 1.463 1_565 S
C870 N874 1.427 . S
C871 H861 0.929 . S
C871 C869 1.433 . S
C871 N874 1.384 . S
C872 H863 0.929 . S
C872 C864 1.378 . S
C872 C867 1.350 . S
C873 H860 0.929 . S
C873 C865 1.433 . S
C873 N875 1.384 . S
N874 C870 1.427 . S
N874 C871 1.384 . S
N875 C867 1.427 . S
N875 C873 1.384 . S
H876 C882 0.930 . S
H877 C886 0.930 . S
H878 C891 0.929 . S
H879 C889 0.929 . S
H880 C884 0.929 . S
H881 C890 0.929 . S
C882 H876 0.930 . S
C882 C883 1.367 . S
C882 C890 1.378 . S
C883 C882 1.367 . S
C883 C891 1.433 . S
C884 H880 0.929 . S
C884 C886 1.378 . S
C884 C888 1.350 . S
C885 C888 1.463 . S
C885 C890 1.350 . S
C885 N893 1.427 . S
C886 H877 0.930 . S
C886 C884 1.378 . S
C886 C887 1.367 . S
C887 C886 1.367 . S
C887 C889 1.433 . S
C888 C884 1.350 . S
C888 C885 1.463 . S
C888 N892 1.427 . S
C889 H879 0.929 . S
C889 C887 1.433 . S
C889 N892 1.384 . S
C890 H881 0.929 . S
C890 C882 1.378 . S
C890 C885 1.350 . S
C891 H878 0.929 . S
C891 C883 1.433 . S
C891 N893 1.384 . S
N892 C888 1.427 . S
N892 C889 1.384 . S
N893 C885 1.427 . S
N893 C891 1.384 . S
H894 C900 0.930 . S
H895 C904 0.930 . S
H896 C909 0.929 1_545 S
H897 C907 0.929 . S
H898 C902 0.929 . S
H899 C908 0.929 . S
C900 H894 0.930 . S
C900 C901 1.367 . S
C900 C908 1.378 . S
C901 C900 1.367 . S
C901 C909 1.433 . S
C902 H898 0.929 . S
C902 C904 1.378 . S
C902 C906 1.350 . S
C903 C906 1.463 1_455 S
C903 C908 1.350 . S
C903 N911 1.427 . S
C904 H895 0.930 . S
C904 C902 1.378 . S
C904 C905 1.367 . S
C905 C904 1.367 . S
C905 C907 1.433 . S
C906 C902 1.350 . S
C906 C903 1.463 1_655 S
C906 N910 1.427 . S
C907 H897 0.929 . S
C907 C905 1.433 . S
C907 N910 1.384 . S
C908 H899 0.929 . S
C908 C900 1.378 . S
C908 C903 1.350 . S
C909 H896 0.929 1_565 S
C909 C901 1.433 . S
C909 N911 1.384 . S
N910 C906 1.427 . S
N910 C907 1.384 . S
N911 C903 1.427 . S
N911 C909 1.384 . S
C271 C164 1.787 . S
C275 C10 1.833 . S
C289 C186 1.780 . S
C293 C30 1.829 . S
C307 C216 1.776 . S
C311 C54 1.827 . S
C325 C238 1.776 . S
C329 C74 1.827 . S
C343 C252 1.783 . S
C347 C96 1.830 . S
C361 C142 1.779 . S
C365 C120 1.828 . S
C379 C150 1.827 . S
C383 C118 1.777 . S
C397 C172 1.830 . S
C401 C8 1.783 1_556 S
C415 C194 1.827 . S
C419 C40 1.776 . S
C433 C206 1.833 . S
C437 C52 1.787 . S
C451 C228 1.827 . S
C455 C84 1.776 . S
C469 C260 1.831 . S
C473 C106 1.785 . S
C487 C18 1.432 . S
C491 C131 1.444 . S
C505 C32 1.438 . S
C509 C21 1.435 . S
C523 C29 1.435 . S
C527 C62 1.439 . S
C541 C65 1.443 . S
C545 C76 1.428 . S
C559 C73 1.443 . S
C563 C98 1.434 . S
C577 C128 1.437 . S
C581 C95 1.442 . S
C595 C140 1.438 . S
C599 C169 1.435 . S
C613 C162 1.429 . S
C617 C191 1.442 . S
C631 C184 1.439 . S
C635 C205 1.437 . S
C649 C208 1.429 . S
C653 C227 1.445 . S
C667 C230 1.429 1_655 S
C671 C257 1.442 . S
C685 C147 1.442 . S
C689 C250 1.439 . S
C703 C183 1.149 . S
C707 C15 1.154 . S
C721 C43 1.146 . S
C725 C219 1.152 . S
C739 C59 1.148 . S
C743 C241 1.147 . S
C757 C87 1.152 . S
C761 C249 1.154 . S
C775 C109 1.149 . S
C779 C139 1.146 . S
C793 C161 1.151 . S
C797 C125 1.154 . S
C811 C7 0.337 . S
C815 C175 0.345 . S
C829 C197 0.361 . S
C833 C37 0.353 . S
C847 C213 0.364 . S
C851 C51 0.357 . S
C865 C235 0.336 . S
C869 C81 0.332 . S
C883 C103 0.368 . S
C887 C263 0.370 . S
C901 C117 0.361 . S
C905 C153 0.367 . S
