# Generated by pormake.
# Topology uni, (4)-cn, num edge types: 1
# Building blocks:
#     Node 0, Type 0, BuildingBlock: GALJAG_clean_sbu_0, # of connection points: 4
#     Node 1, Type 0, BuildingBlock: GALJAG_clean_sbu_0, # of connection points: 4
#     Node 2, Type 0, BuildingBlock: GALJAG_clean_sbu_0, # of connection points: 4
#     Node 3, Type 0, BuildingBlock: GALJAG_clean_sbu_0, # of connection points: 4
#     Node 4, Type 0, BuildingBlock: GALJAG_clean_sbu_0, # of connection points: 4
#     Node 5, Type 0, BuildingBlock: GALJAG_clean_sbu_0, # of connection points: 4
#     Edge 6, Type (0, 0), BuildingBlock: XUDNAN_clean_linker_2, # of connection points: 2
#     Edge 7, Type (0, 0), BuildingBlock: XUDNAN_clean_linker_2, # of connection points: 2
#     Edge 8, Type (0, 0), BuildingBlock: XUDNAN_clean_linker_2, # of connection points: 2
#     Edge 9, Type (0, 0), BuildingBlock: XUDNAN_clean_linker_2, # of connection points: 2
#     Edge 10, Type (0, 0), BuildingBlock: XUDNAN_clean_linker_2, # of connection points: 2
#     Edge 11, Type (0, 0), BuildingBlock: XUDNAN_clean_linker_2, # of connection points: 2
#     Edge 12, Type (0, 0), BuildingBlock: XUDNAN_clean_linker_2, # of connection points: 2
#     Edge 13, Type (0, 0), BuildingBlock: XUDNAN_clean_linker_2, # of connection points: 2
#     Edge 14, Type (0, 0), BuildingBlock: XUDNAN_clean_linker_2, # of connection points: 2
#     Edge 15, Type (0, 0), BuildingBlock: XUDNAN_clean_linker_2, # of connection points: 2
#     Edge 16, Type (0, 0), BuildingBlock: XUDNAN_clean_linker_2, # of connection points: 2
#     Edge 17, Type (0, 0), BuildingBlock: XUDNAN_clean_linker_2, # of connection points: 2
# Relax obj value: 0.070
# Max RMSD: 0.134
# Mean RMSD: 0.134
data_MOF--net-uni--node1-GALJAG_clean_sbu_0--edge1-XUDNAN_clean_linker_2
_symmetry_space_group_name_H-M    P1
_symmetry_Int_Tables_number       1
_symmetry_cell_setting            triclinic
loop_
_symmetry_equiv_pos_as_xyz
'x, y, z'
_cell_length_a     37.364266
_cell_length_b     37.332008
_cell_length_c     25.152849
_cell_angle_alpha  90.223076
_cell_angle_beta   89.703365
_cell_angle_gamma 120.03706
loop_
_atom_site_label
_atom_site_type_symbol
_atom_site_fract_x
_atom_site_fract_y
_atom_site_fract_z
_atom_type_partial_charge
In0 In 0.63157 0.01597 0.0606 0.0
O1 O 0.59061 0.96936 0.99725 0.0
O2 O 0.58794 0.02457 1.00621 0.0
C3 C 0.65184 0.95802 0.08734 0.0
C4 C 0.69826 0.08119 0.01651 0.0
C5 C 0.60207 0.03585 0.14774 0.0
O6 O 0.67262 0.98659 0.05472 0.0
O7 O 0.62121 0.95888 0.10681 0.0
O8 O 0.63688 0.06044 0.12766 0.0
O9 O 0.58213 1.00197 0.1234 0.0
C10 C 0.57591 0.99125 0.98092 0.0
O11 O 0.69728 0.07256 0.06531 0.0
O12 O 0.66601 0.0572 0.99108 0.0
In13 In 0.63974 0.63166 0.22336 0.0
O14 O 0.62128 0.58649 0.15245 0.0
O15 O 0.58188 0.60982 0.17444 0.0
C16 C 0.71373 0.6356 0.23227 0.0
C17 C 0.65488 0.70712 0.19276 0.0
C18 C 0.60625 0.60676 0.3214 0.0
O19 O 0.68018 0.60155 0.23513 0.0
O20 O 0.70954 0.66655 0.22431 0.0
O21 O 0.63728 0.64186 0.31262 0.0
O22 O 0.5918 0.58425 0.28074 0.0
C23 C 0.58883 0.58783 0.14271 0.0
O24 O 0.63164 0.68837 0.23185 0.0
O25 O 0.67029 0.68787 0.16974 0.0
In26 In 0.02596 0.6263 0.38793 0.0
O27 O 0.04352 0.62047 0.30197 0.0
O28 O 0.03476 0.5736 0.35626 0.0
C29 C 0.08526 0.70113 0.42348 0.0
C30 C 0.96396 0.63463 0.34653 0.0
C31 C 0.00948 0.58422 0.48012 0.0
O32 O 0.09253 0.68152 0.38803 0.0
O33 O 0.04849 0.68319 0.44007 0.0
O34 O 0.98234 0.58836 0.45553 0.0
O35 O 0.04439 0.60049 0.45755 0.0
C36 C 0.04305 0.5869 0.30931 0.0
O37 O 0.95752 0.60113 0.36726 0.0
O38 O 1.00115 0.66331 0.3472 0.0
In39 In 0.41153 0.01333 0.56561 0.0
O40 O 0.34352 0.96923 0.58561 0.0
O41 O 0.36238 0.96956 0.50612 0.0
C42 C 0.45037 0.99426 0.6415 0.0
C43 C 0.4627 0.03285 0.48093 0.0
C44 C 0.39957 0.07425 0.60418 0.0
O45 O 0.41981 0.9669 0.61617 0.0
O46 O 0.4623 0.03076 0.62691 0.0
O47 O 0.40776 0.07273 0.55566 0.0
O48 O 0.39687 0.04503 0.63203 0.0
C49 C 0.33338 0.95431 0.53959 0.0
O50 O 0.45881 0.05984 0.50668 0.0
O51 O 0.44137 0.99644 0.49842 0.0
In52 In 0.41291 0.40636 0.72238 0.0
O53 O 0.39767 0.34273 0.75424 0.0
O54 O 0.42173 0.3583 0.67618 0.0
C55 C 0.451 0.45184 0.80901 0.0
C56 C 0.45978 0.45962 0.64505 0.0
C57 C 0.33423 0.39147 0.73225 0.0
O58 O 0.45471 0.42113 0.79551 0.0
O59 O 0.42939 0.4598 0.77807 0.0
O60 O 0.34848 0.38773 0.6883 0.0
O61 O 0.35919 0.40196 0.77025 0.0
C62 C 0.40819 0.3316 0.71249 0.0
O63 O 0.42109 0.43701 0.64084 0.0
O64 O 0.4746 0.45532 0.68784 0.0
In65 In 0.02261 0.40367 0.88634 0.0
O66 O 0.08938 0.417 0.87985 0.0
O67 O 0.044 0.36796 0.83336 0.0
C68 C 0.04057 0.44306 0.9814 0.0
C69 C 0.01267 0.45152 0.81439 0.0
C70 C 0.95205 0.33026 0.90036 0.0
O71 O 0.02787 0.4547 0.94235 0.0
O72 O 0.04477 0.41212 0.97217 0.0
O73 O 0.96248 0.34888 0.85646 0.0
O74 O 0.97738 0.34836 0.93744 0.0
C75 C 0.08152 0.38897 0.84612 0.0
O76 O 0.98449 0.42829 0.84644 0.0
O77 O 0.0464 0.4519 0.82011 0.0
H78 H 0.53895 0.98076 0.21059 0.0
H79 H 0.63036 0.11103 0.19674 0.0
H80 H 0.60437 0.12517 0.28053 0.0
H81 H 0.45637 0.99271 0.26532 0.0
H82 H 0.43885 0.94916 0.30951 0.0
H83 H 0.46383 0.95003 0.24772 0.0
H84 H 0.51775 0.93929 0.29896 0.0
H85 H 0.49301 0.93849 0.36092 0.0
H86 H 0.54727 0.97474 0.35144 0.0
H87 H 0.56689 0.12462 0.36568 0.0
H88 H 0.52374 0.10899 0.44687 0.0
H89 H 0.46014 0.97853 0.40617 0.0
C90 C 0.55332 0.01233 0.22495 0.0
C91 C 0.58642 0.04491 0.19706 0.0
C92 C 0.60485 0.08569 0.21752 0.0
C93 C 0.59027 0.09397 0.26497 0.0
C94 C 0.55761 0.06104 0.29165 0.0
C95 C 0.5396 0.02099 0.27247 0.0
C96 C 0.50594 0.9908 0.30934 0.0
C97 C 0.46376 0.96943 0.28129 0.0
C98 C 0.51665 0.95897 0.33148 0.0
C99 C 0.50762 0.02006 0.35228 0.0
C100 C 0.53734 0.0605 0.34127 0.0
C101 C 0.54372 0.09303 0.37481 0.0
C102 C 0.5191 0.08389 0.42075 0.0
C103 C 0.4889 0.04256 0.43293 0.0
C104 C 0.48331 0.01038 0.3982 0.0
H105 H 0.53148 0.53975 0.34844 0.0
H106 H 0.64275 0.64174 0.41585 0.0
H107 H 0.61621 0.61632 0.50623 0.0
H108 H 0.46082 0.53942 0.44982 0.0
H109 H 0.42874 0.48387 0.44938 0.0
H110 H 0.45608 0.51063 0.38999 0.0
H111 H 0.49045 0.46523 0.38513 0.0
H112 H 0.46333 0.43841 0.44452 0.0
H113 H 0.5189 0.46315 0.44158 0.0
H114 H 0.58025 0.57691 0.58855 0.0
H115 H 0.53466 0.52895 0.65812 0.0
H116 H 0.44456 0.45508 0.538 0.0
C117 C 0.55009 0.55684 0.38228 0.0
C118 C 0.58922 0.59263 0.37528 0.0
C119 C 0.61265 0.6143 0.42041 0.0
C120 C 0.59787 0.60008 0.47185 0.0
C121 C 0.55935 0.56449 0.47742 0.0
C122 C 0.53551 0.54343 0.43394 0.0
C123 C 0.49518 0.50599 0.451 0.0
C124 C 0.45801 0.51025 0.43404 0.0
C125 C 0.49179 0.46583 0.42927 0.0
C126 C 0.50039 0.50891 0.51084 0.0
C127 C 0.53776 0.54276 0.52517 0.0
C128 C 0.55065 0.55065 0.57791 0.0
C129 C 0.52466 0.52322 0.61707 0.0
C130 C 0.48604 0.4887 0.60334 0.0
C131 C 0.47365 0.48169 0.54959 0.0
H132 H 0.06653 0.49691 0.73496 0.0
H133 H 0.94229 0.45438 0.7938 0.0
H134 H 0.92811 0.48507 0.71543 0.0
H135 H 0.08384 0.59447 0.67837 0.0
H136 H 0.11213 0.59114 0.62213 0.0
H137 H 0.11307 0.56824 0.68465 0.0
H138 H 0.08732 0.4977 0.63751 0.0
H139 H 0.08589 0.52024 0.57499 0.0
H140 H 0.04009 0.47537 0.59973 0.0
H141 H 0.92636 0.51701 0.62772 0.0
H142 H 0.93823 0.55024 0.53944 0.0
H143 H 0.06348 0.57131 0.53852 0.0
C144 C 0.03656 0.49464 0.73183 0.0
C145 C 1.00555 0.47345 0.77056 0.0
C146 C 0.96656 0.47068 0.76469 0.0
C147 C 0.9582 0.48793 0.72029 0.0
C148 C 0.9892 0.50789 0.68223 0.0
C149 C 0.0277 0.51158 0.68778 0.0
C150 C 0.05521 0.53332 0.64047 0.0
C151 C 0.09331 0.57423 0.65743 0.0
C152 C 0.06785 0.50495 0.61147 0.0
C153 C 0.02606 0.54092 0.60715 0.0
C154 C 0.98815 0.52611 0.63189 0.0
C155 C 0.95602 0.52895 0.60813 0.0
C156 C 0.96298 0.54772 0.55796 0.0
C157 C 1.00174 0.56333 0.53218 0.0
C158 C 0.03353 0.55972 0.55725 0.0
H159 H 0.56513 0.04502 0.91986 0.0
H160 H 0.53325 0.91644 0.92996 0.0
H161 H 0.49758 0.90257 0.8431 0.0
H162 H 0.47187 0.02918 0.85559 0.0
H163 H 0.4992 0.07441 0.8143 0.0
H164 H 0.51941 0.07285 0.87855 0.0
H165 H 0.58876 0.08901 0.83439 0.0
H166 H 0.56859 0.09009 0.76993 0.0
H167 H 0.58869 0.05591 0.78195 0.0
H168 H 0.46528 0.90341 0.75452 0.0
H169 H 0.44028 0.91916 0.6716 0.0
H170 H 0.49832 0.04819 0.71835 0.0
C171 C 0.55 0.01376 0.90427 0.0
C172 C 0.55135 0.98161 0.93181 0.0
C173 C 0.53216 0.94137 0.90955 0.0
C174 C 0.51196 0.93327 0.86028 0.0
C175 C 0.51184 0.96592 0.83366 0.0
C176 C 0.53049 0.00538 0.8549 0.0
C177 C 0.52775 0.03555 0.81756 0.0
C178 C 0.50308 0.05407 0.84302 0.0
C179 C 0.57102 0.06964 0.79992 0.0
C180 C 0.50439 0.00692 0.77201 0.0
C181 C 0.4952 0.96681 0.78202 0.0
C182 C 0.47257 0.93477 0.74615 0.0
C183 C 0.45859 0.94397 0.69918 0.0
C184 C 0.46781 0.98492 0.6884 0.0
C185 C 0.49138 0.01671 0.72512 0.0
H186 H 0.59083 0.53199 0.07182 0.0
H187 H 0.52773 0.60045 0.10697 0.0
H188 H 0.48641 0.573 0.02571 0.0
H189 H 0.59615 0.5451 0.93093 0.0
H190 H 0.58579 0.49358 0.91556 0.0
H191 H 0.61036 0.5177 0.97734 0.0
H192 H 0.55307 0.45569 0.0297 0.0
H193 H 0.52847 0.43123 0.96805 0.0
H194 H 0.49964 0.44038 0.01867 0.0
H195 H 0.45499 0.54235 0.93933 0.0
H196 H 0.42998 0.5045 0.85496 0.0
H197 H 0.50986 0.45214 0.87555 0.0
C198 C 0.56806 0.54085 0.06251 0.0
C199 C 0.56252 0.5684 0.09569 0.0
C200 C 0.53243 0.5793 0.08229 0.0
C201 C 0.50887 0.56399 0.03611 0.0
C202 C 0.51536 0.53738 1.00393 0.0
C203 C 0.54372 0.52534 0.01666 0.0
C204 C 0.54396 0.49591 0.97497 0.0
C205 C 0.5866 0.51418 0.94811 0.0
C206 C 0.53047 0.45327 0.99931 0.0
C207 C 0.51173 0.49389 0.93666 0.0
C208 C 0.49595 0.51834 0.95422 0.0
C209 C 0.46678 0.52278 0.9253 0.0
C210 C 0.45292 0.50129 0.87729 0.0
C211 C 0.4679 0.47532 0.8588 0.0
C212 C 0.49773 0.47161 0.88892 0.0
H213 H 0.03641 0.5119 0.01036 0.0
H214 H 0.06017 0.41758 0.07271 0.0
H215 H 0.06745 0.44674 0.16289 0.0
H216 H 0.10843 0.59578 0.09834 0.0
H217 H 0.07485 0.61723 0.10525 0.0
H218 H 0.074 0.59047 0.04507 0.0
H219 H 0.99516 0.5412 0.05657 0.0
H220 H 0.99578 0.56772 0.11678 0.0
H221 H 0.97572 0.51263 0.11764 0.0
H222 H 0.06634 0.48237 0.24711 0.0
H223 H 0.05982 0.524 0.31914 0.0
H224 H 0.03941 0.59686 0.202 0.0
C225 C 0.04367 0.49773 0.0429 0.0
C226 C 0.04778 0.4625 0.03456 0.0
C227 C 0.05704 0.44467 0.07817 0.0
C228 C 0.06123 0.46101 0.12954 0.0
C229 C 0.05647 0.49543 0.13656 0.0
C230 C 0.04826 0.51384 0.09441 0.0
C231 C 0.04337 0.54982 0.11305 0.0
C232 C 0.07719 0.59075 0.089 0.0
C233 C 0.99993 0.54237 0.10026 0.0
C234 C 0.04928 0.54822 0.17236 0.0
C235 C 0.05684 0.51663 0.18508 0.0
C236 C 0.06103 0.50757 0.2376 0.0
C237 C 0.05719 0.5313 0.27822 0.0
C238 C 0.04953 0.56384 0.26605 0.0
C239 C 0.04597 0.5726 0.21238 0.0
H240 H 0.61426 0.74852 0.22135 0.0
H241 H 0.7136 0.7576 0.12161 0.0
H242 H 0.72609 0.82477 0.08734 0.0
H243 H 0.57422 0.78922 0.1264 0.0
H244 H 0.56108 0.81687 0.17428 0.0
H245 H 0.56186 0.77096 0.19395 0.0
H246 H 0.61368 0.8121 0.26909 0.0
H247 H 0.61303 0.85818 0.24965 0.0
H248 H 0.66138 0.85852 0.25296 0.0
H249 H 0.72632 0.88958 0.06155 0.0
H250 H 0.7127 0.94675 0.04395 0.0
H251 H 0.61222 0.89483 0.15879 0.0
C252 C 0.63896 0.76494 0.19281 0.0
C253 C 0.66314 0.74805 0.17432 0.0
C254 C 0.69477 0.77007 0.13635 0.0
C255 C 0.70217 0.80827 0.11676 0.0
C256 C 0.67758 0.82394 0.1354 0.0
C257 C 0.64655 0.80298 0.17246 0.0
C258 C 0.62325 0.8257 0.18388 0.0
C259 C 0.5774 0.7991 0.1687 0.0
C260 C 0.62815 0.83944 0.24237 0.0
C261 C 0.64579 0.86245 0.14707 0.0
C262 C 0.67725 0.86102 0.11982 0.0
C263 C 0.70189 0.89116 0.08282 0.0
C264 C 0.69395 0.92349 0.0731 0.0
C265 C 0.66147 0.9252 0.10003 0.0
C266 C 0.63735 0.89439 0.13773 0.0
H267 H 0.88011 0.57902 0.34249 0.0
H268 H 0.97366 0.70369 0.29768 0.0
H269 H 0.91988 0.71521 0.25912 0.0
H270 H 0.8147 0.55805 0.22538 0.0
H271 H 0.76708 0.52971 0.26219 0.0
H272 H 0.81302 0.53004 0.28445 0.0
H273 H 0.8061 0.55723 0.37664 0.0
H274 H 0.76012 0.55686 0.35473 0.0
H275 H 0.80295 0.60381 0.38057 0.0
H276 H 0.85708 0.71498 0.22903 0.0
H277 H 0.78756 0.70345 0.21006 0.0
H278 H 0.73307 0.57876 0.27301 0.0
C279 C 0.8892 0.60859 0.32421 0.0
C280 C 0.93109 0.64045 0.32297 0.0
C281 C 0.94181 0.67883 0.29904 0.0
C282 C 0.9115 0.68566 0.27688 0.0
C283 C 0.87057 0.65379 0.27881 0.0
C284 C 0.85921 0.616 0.3018 0.0
C285 C 0.81265 0.58763 0.29993 0.0
C286 C 0.8012 0.54907 0.26596 0.0
C287 C 0.79439 0.5757 0.35632 0.0
C288 C 0.79974 0.61571 0.27308 0.0
C289 C 0.83382 0.6536 0.26102 0.0
C290 C 0.83013 0.68536 0.23787 0.0
C291 C 0.79048 0.67849 0.2273 0.0
C292 C 0.75497 0.64017 0.23984 0.0
C293 C 0.75971 0.60817 0.26242 0.0
H294 H 0.16522 0.75115 0.38837 0.0
H295 H 0.07719 0.74145 0.50888 0.0
H296 H 0.13027 0.80694 0.5489 0.0
H297 H 0.25327 0.79191 0.47216 0.0
H298 H 0.28887 0.8268 0.42311 0.0
H299 H 0.24352 0.7799 0.40239 0.0
H300 H 0.22154 0.82256 0.34389 0.0
H301 H 0.26686 0.86964 0.3645 0.0
H302 H 0.2163 0.86373 0.37362 0.0
H303 H 0.19354 0.87052 0.57957 0.0
H304 H 0.26299 0.93012 0.597 0.0
H305 H 0.3097 0.90101 0.45477 0.0
C306 C 0.15711 0.76302 0.42294 0.0
C307 C 0.11711 0.74123 0.44555 0.0
C308 C 0.10762 0.75768 0.49081 0.0
C309 C 0.13754 0.79487 0.51385 0.0
C310 C 0.17672 0.81549 0.49086 0.0
C311 C 0.18657 0.80043 0.44621 0.0
C312 C 0.23128 0.82853 0.43002 0.0
C313 C 0.25566 0.8054 0.43207 0.0
C314 C 0.23415 0.84722 0.37472 0.0
C315 C 0.24512 0.86125 0.47313 0.0
C316 C 0.21311 0.85307 0.50779 0.0
C317 C 0.21875 0.8776 0.55236 0.0
C318 C 0.25826 0.9113 0.56198 0.0
C319 C 0.29148 0.92031 0.52697 0.0
C320 C 0.28465 0.89519 0.48169 0.0
H321 H 0.42429 0.29945 0.6233 0.0
H322 H 0.38195 0.27029 0.78679 0.0
H323 H 0.37322 0.20058 0.77556 0.0
H324 H 0.3546 0.19849 0.56885 0.0
H325 H 0.39198 0.19951 0.52237 0.0
H326 H 0.3949 0.24716 0.54303 0.0
H327 H 0.47044 0.27546 0.57381 0.0
H328 H 0.46783 0.228 0.55302 0.0
H329 H 0.48184 0.246 0.62043 0.0
H330 H 0.37001 0.13485 0.74727 0.0
H331 H 0.37338 0.07718 0.7043 0.0
H332 H 0.41687 0.1482 0.55835 0.0
C333 C 0.41325 0.27841 0.65675 0.0
C334 C 0.40384 0.29024 0.706 0.0
C335 C 0.38936 0.26184 0.74877 0.0
C336 C 0.38424 0.22219 0.74274 0.0
C337 C 0.3936 0.21142 0.69363 0.0
C338 C 0.40782 0.23865 0.65136 0.0
C339 C 0.41587 0.21934 0.60292 0.0
C340 C 0.38765 0.21593 0.55656 0.0
C341 C 0.46172 0.24365 0.58661 0.0
C342 C 0.4042 0.17707 0.6247 0.0
C343 C 0.39138 0.17321 0.67708 0.0
C344 C 0.37984 0.13743 0.70624 0.0
C345 C 0.38186 0.10485 0.68143 0.0
C346 C 0.39524 0.10816 0.62794 0.0
C347 C 0.40618 0.14466 0.59912 0.0
H348 H 0.1607 0.41863 0.88079 0.0
H349 H 0.0754 0.34502 0.7561 0.0
H350 H 0.13066 0.33722 0.71256 0.0
H351 H 0.25051 0.47263 0.79975 0.0
H352 H 0.28515 0.47141 0.84836 0.0
H353 H 0.23879 0.47084 0.86965 0.0
H354 H 0.21624 0.40325 0.92238 0.0
H355 H 0.26264 0.40373 0.90143 0.0
H356 H 0.21283 0.35896 0.88862 0.0
H357 H 0.197 0.3409 0.6802 0.0
H358 H 0.26728 0.35109 0.66597 0.0
H359 H 0.30702 0.41888 0.81464 0.0
C360 C 0.15363 0.40074 0.84443 0.0
C361 C 0.11389 0.38254 0.82165 0.0
C362 C 0.10569 0.35914 0.77424 0.0
C363 C 0.13688 0.35465 0.74916 0.0
C364 C 0.1759 0.37331 0.77243 0.0
C365 C 0.18417 0.39545 0.81937 0.0
C366 C 0.2284 0.41194 0.83671 0.0
C367 C 0.2521 0.45952 0.83871 0.0
C368 C 0.23011 0.39335 0.89047 0.0
C369 C 0.24388 0.396 0.79195 0.0
C370 C 0.21333 0.37406 0.75497 0.0
C371 C 0.22104 0.35768 0.70919 0.0
C372 C 0.26098 0.36369 0.70133 0.0
C373 C 0.29233 0.38542 0.7394 0.0
C374 C 0.28348 0.40168 0.78515 0.0
H375 H 0.92034 0.28625 0.99283 0.0
H376 H 0.89491 0.28597 0.82454 0.0
H377 H 0.82811 0.22167 0.83635 0.0
H378 H 0.87399 0.17477 1.00685 0.0
H379 H 0.85303 0.17352 0.07197 0.0
H380 H 0.89957 0.21901 0.05027 0.0
H381 H 0.86571 0.26371 0.06912 0.0
H382 H 0.81904 0.21838 0.09074 0.0
H383 H 0.81704 0.25015 0.03838 0.0
H384 H 0.76387 0.15919 0.86603 0.0
H385 H 0.70544 0.10098 0.91174 0.0
H386 H 0.77155 0.14067 0.06145 0.0
C387 C 0.9008 0.27246 0.95845 0.0
C388 C 0.91279 0.29101 0.90771 0.0
C389 C 0.88634 0.27224 0.86372 0.0
C390 C 0.84836 0.23572 0.87002 0.0
C391 C 0.8373 0.21837 0.92055 0.0
C392 C 0.86267 0.23594 0.96404 0.0
C393 C 0.84287 0.21118 0.01411 0.0
C394 C 0.86892 0.19357 0.03714 0.0
C395 C 0.83574 0.23742 0.05552 0.0
C396 C 0.80231 0.17713 0.99192 0.0
C397 C 0.79991 0.18197 0.93783 0.0
C398 C 0.7654 0.15494 0.90832 0.0
C399 C 0.73235 0.12199 0.93473 0.0
C400 C 0.73397 0.11626 0.99014 0.0
C401 C 0.76951 0.14422 0.01905 0.0
loop_
_geom_bond_atom_site_label_1
_geom_bond_atom_site_label_2
_geom_bond_distance
_geom_bond_site_symmetry_2
_ccdc_geom_bond_type
In0 O1 2.294 1_544 S
In0 O2 2.326 1_554 S
In0 O6 2.266 1_545 S
In0 O7 2.326 1_545 S
In0 O8 2.266 . S
In0 O9 2.326 1_545 S
In0 O11 2.294 . S
In0 O12 2.326 1_554 S
O1 In0 2.294 1_566 S
O1 C10 1.240 1_565 S
O2 In0 2.326 1_556 S
O2 C10 1.252 . S
C3 O6 1.252 . S
C3 O7 1.260 . S
C4 O11 1.240 . S
C4 O12 1.252 1_554 S
C5 O8 1.252 . S
C5 O9 1.260 1_545 S
O6 In0 2.266 1_565 S
O6 C3 1.252 . S
O7 In0 2.326 1_565 S
O7 C3 1.260 . S
O8 In0 2.266 . S
O8 C5 1.252 . S
O9 In0 2.326 1_565 S
O9 C5 1.260 1_565 S
C10 O1 1.240 1_545 S
C10 O2 1.252 . S
O11 In0 2.294 . S
O11 C4 1.240 . S
O12 In0 2.326 1_556 S
O12 C4 1.252 1_556 S
In13 O14 2.294 . S
In13 O15 2.326 . S
In13 O19 2.266 . S
In13 O20 2.326 . S
In13 O21 2.266 . S
In13 O22 2.326 . S
In13 O24 2.294 . S
In13 O25 2.326 . S
O14 In13 2.294 . S
O14 C23 1.240 . S
O15 In13 2.326 . S
O15 C23 1.252 . S
C16 O19 1.252 . S
C16 O20 1.260 . S
C17 O24 1.240 . S
C17 O25 1.252 . S
C18 O21 1.252 . S
C18 O22 1.260 . S
O19 In13 2.266 . S
O19 C16 1.252 . S
O20 In13 2.326 . S
O20 C16 1.260 . S
O21 In13 2.266 . S
O21 C18 1.252 . S
O22 In13 2.326 . S
O22 C18 1.260 . S
C23 O14 1.240 . S
C23 O15 1.252 . S
O24 In13 2.294 . S
O24 C17 1.240 . S
O25 In13 2.326 . S
O25 C17 1.252 . S
In26 O27 2.294 . S
In26 O28 2.326 1_455 S
In26 O32 2.266 . S
In26 O33 2.326 . S
In26 O34 2.266 1_455 S
In26 O35 2.326 . S
In26 O37 2.294 1_455 S
In26 O38 2.326 1_455 S
O27 In26 2.294 . S
O27 C36 1.240 . S
O28 In26 2.326 1_655 S
O28 C36 1.252 1_655 S
C29 O32 1.252 . S
C29 O33 1.260 . S
C30 O37 1.240 . S
C30 O38 1.252 . S
C31 O34 1.252 1_455 S
C31 O35 1.260 . S
O32 In26 2.266 . S
O32 C29 1.252 . S
O33 In26 2.326 . S
O33 C29 1.260 . S
O34 In26 2.266 1_655 S
O34 C31 1.252 1_655 S
O35 In26 2.326 . S
O35 C31 1.260 . S
C36 O27 1.240 . S
C36 O28 1.252 1_455 S
O37 In26 2.294 1_655 S
O37 C30 1.240 . S
O38 In26 2.326 1_655 S
O38 C30 1.252 . S
In39 O40 2.294 1_545 S
In39 O41 2.326 1_545 S
In39 O45 2.266 1_545 S
In39 O46 2.326 . S
In39 O47 2.266 . S
In39 O48 2.326 . S
In39 O50 2.294 . S
In39 O51 2.326 1_545 S
O40 In39 2.294 1_565 S
O40 C49 1.240 . S
O41 In39 2.326 1_565 S
O41 C49 1.252 . S
C42 O45 1.252 1_545 S
C42 O46 1.260 . S
C43 O50 1.240 . S
C43 O51 1.252 1_545 S
C44 O47 1.252 . S
C44 O48 1.260 . S
O45 In39 2.266 1_565 S
O45 C42 1.252 1_565 S
O46 In39 2.326 . S
O46 C42 1.260 . S
O47 In39 2.266 . S
O47 C44 1.252 . S
O48 In39 2.326 . S
O48 C44 1.260 . S
C49 O40 1.240 . S
C49 O41 1.252 . S
O50 In39 2.294 . S
O50 C43 1.240 . S
O51 In39 2.326 1_565 S
O51 C43 1.252 1_565 S
In52 O53 2.294 . S
In52 O54 2.326 . S
In52 O58 2.266 . S
In52 O59 2.326 . S
In52 O60 2.266 . S
In52 O61 2.326 . S
In52 O63 2.294 . S
In52 O64 2.326 . S
O53 In52 2.294 . S
O53 C62 1.240 . S
O54 In52 2.326 . S
O54 C62 1.252 . S
C55 O58 1.252 . S
C55 O59 1.260 . S
C56 O63 1.240 . S
C56 O64 1.252 . S
C57 O60 1.252 . S
C57 O61 1.260 . S
O58 In52 2.266 . S
O58 C55 1.252 . S
O59 In52 2.326 . S
O59 C55 1.260 . S
O60 In52 2.266 . S
O60 C57 1.252 . S
O61 In52 2.326 . S
O61 C57 1.260 . S
C62 O53 1.240 . S
C62 O54 1.252 . S
O63 In52 2.294 . S
O63 C56 1.240 . S
O64 In52 2.326 . S
O64 C56 1.252 . S
In65 O66 2.294 . S
In65 O67 2.326 . S
In65 O71 2.266 . S
In65 O72 2.326 1_455 S
In65 O73 2.266 1_455 S
In65 O74 2.326 1_455 S
In65 O76 2.294 1_455 S
In65 O77 2.326 . S
O66 In65 2.294 . S
O66 C75 1.240 . S
O67 In65 2.326 . S
O67 C75 1.252 . S
C68 O71 1.252 . S
C68 O72 1.260 1_455 S
C69 O76 1.240 1_455 S
C69 O77 1.252 . S
C70 O73 1.252 . S
C70 O74 1.260 . S
O71 In65 2.266 . S
O71 C68 1.252 . S
O72 In65 2.326 1_655 S
O72 C68 1.260 1_655 S
O73 In65 2.266 1_655 S
O73 C70 1.252 . S
O74 In65 2.326 1_655 S
O74 C70 1.260 . S
C75 O66 1.240 . S
C75 O67 1.252 . S
O76 In65 2.294 1_655 S
O76 C69 1.240 1_655 S
O77 In65 2.326 . S
O77 C69 1.252 . S
H78 C90 0.930 . S
H79 C92 0.930 . S
H80 C93 0.930 . S
H81 C97 0.959 . S
H82 C97 0.959 . S
H83 C97 0.961 . S
H84 C98 0.960 . S
H85 C98 0.961 . S
H86 C98 0.959 . S
H87 C101 0.929 . S
H88 C102 0.931 . S
H89 C104 0.930 . S
C90 H78 0.930 . S
C90 C91 1.399 1_565 S
C90 C95 1.399 . S
C91 C90 1.399 1_545 S
C91 C92 1.376 . S
C92 H79 0.930 . S
C92 C91 1.376 . S
C92 C93 1.388 . S
C93 H80 0.930 . S
C93 C92 1.388 . S
C93 C94 1.390 . S
C94 C93 1.390 . S
C94 C95 1.394 1_545 S
C94 C100 1.465 . S
C95 C90 1.399 . S
C95 C94 1.394 1_565 S
C95 C96 1.516 . S
C96 C95 1.516 . S
C96 C97 1.502 . S
C96 C98 1.561 . S
C96 C99 1.526 . S
C97 H81 0.959 . S
C97 H82 0.959 . S
C97 H83 0.961 . S
C97 C96 1.502 . S
C98 H84 0.960 . S
C98 H85 0.961 . S
C98 H86 0.959 . S
C98 C96 1.561 . S
C99 C96 1.526 . S
C99 C100 1.396 1_565 S
C99 C104 1.390 . S
C100 C94 1.465 . S
C100 C99 1.396 1_545 S
C100 C101 1.399 . S
C101 H87 0.929 . S
C101 C100 1.399 . S
C101 C102 1.385 . S
C102 H88 0.931 . S
C102 C101 1.385 . S
C102 C103 1.389 . S
C103 C102 1.389 . S
C103 C104 1.387 1_545 S
C104 H89 0.930 . S
C104 C99 1.390 . S
C104 C103 1.387 1_565 S
H105 C117 0.930 . S
H106 C119 0.930 . S
H107 C120 0.930 . S
H108 C124 0.959 . S
H109 C124 0.959 . S
H110 C124 0.961 . S
H111 C125 0.960 . S
H112 C125 0.961 . S
H113 C125 0.959 . S
H114 C128 0.929 . S
H115 C129 0.931 . S
H116 C131 0.930 . S
C117 H105 0.930 . S
C117 C118 1.399 . S
C117 C122 1.399 . S
C118 C117 1.399 . S
C118 C119 1.376 . S
C119 H106 0.930 . S
C119 C118 1.376 . S
C119 C120 1.388 . S
C120 H107 0.930 . S
C120 C119 1.388 . S
C120 C121 1.390 . S
C121 C120 1.390 . S
C121 C122 1.394 . S
C121 C127 1.465 . S
C122 C117 1.399 . S
C122 C121 1.394 . S
C122 C123 1.516 . S
C123 C122 1.516 . S
C123 C124 1.502 . S
C123 C125 1.561 . S
C123 C126 1.526 . S
C124 H108 0.959 . S
C124 H109 0.959 . S
C124 H110 0.961 . S
C124 C123 1.502 . S
C125 H111 0.960 . S
C125 H112 0.961 . S
C125 H113 0.959 . S
C125 C123 1.561 . S
C126 C123 1.526 . S
C126 C127 1.396 . S
C126 C131 1.390 . S
C127 C121 1.465 . S
C127 C126 1.396 . S
C127 C128 1.399 . S
C128 H114 0.929 . S
C128 C127 1.399 . S
C128 C129 1.385 . S
C129 H115 0.931 . S
C129 C128 1.385 . S
C129 C130 1.389 . S
C130 C129 1.389 . S
C130 C131 1.387 . S
C131 H116 0.930 . S
C131 C126 1.390 . S
C131 C130 1.387 . S
H132 C144 0.930 . S
H133 C146 0.930 . S
H134 C147 0.930 . S
H135 C151 0.959 . S
H136 C151 0.959 . S
H137 C151 0.961 . S
H138 C152 0.960 . S
H139 C152 0.961 . S
H140 C152 0.959 . S
H141 C155 0.929 . S
H142 C156 0.931 . S
H143 C158 0.930 . S
C144 H132 0.930 . S
C144 C145 1.399 . S
C144 C149 1.399 . S
C145 C144 1.399 . S
C145 C146 1.376 1_455 S
C146 H133 0.930 . S
C146 C145 1.376 1_655 S
C146 C147 1.388 . S
C147 H134 0.930 . S
C147 C146 1.388 . S
C147 C148 1.390 1_655 S
C148 C147 1.390 1_455 S
C148 C149 1.394 . S
C148 C154 1.465 . S
C149 C144 1.399 . S
C149 C148 1.394 . S
C149 C150 1.516 . S
C150 C149 1.516 . S
C150 C151 1.502 . S
C150 C152 1.561 . S
C150 C153 1.526 . S
C151 H135 0.959 . S
C151 H136 0.959 . S
C151 H137 0.961 . S
C151 C150 1.502 . S
C152 H138 0.960 . S
C152 H139 0.961 . S
C152 H140 0.959 . S
C152 C150 1.561 . S
C153 C150 1.526 . S
C153 C154 1.396 . S
C153 C158 1.390 . S
C154 C148 1.465 . S
C154 C153 1.396 . S
C154 C155 1.399 1_455 S
C155 H141 0.929 . S
C155 C154 1.399 1_655 S
C155 C156 1.385 . S
C156 H142 0.931 . S
C156 C155 1.385 . S
C156 C157 1.389 1_655 S
C157 C156 1.389 1_455 S
C157 C158 1.387 . S
C158 H143 0.930 . S
C158 C153 1.390 . S
C158 C157 1.387 . S
H159 C171 0.930 . S
H160 C173 0.930 . S
H161 C174 0.930 . S
H162 C178 0.959 . S
H163 C178 0.959 . S
H164 C178 0.961 . S
H165 C179 0.960 . S
H166 C179 0.961 . S
H167 C179 0.959 . S
H168 C182 0.929 . S
H169 C183 0.931 . S
H170 C185 0.930 . S
C171 H159 0.930 . S
C171 C172 1.399 . S
C171 C176 1.399 . S
C172 C171 1.399 . S
C172 C173 1.376 1_545 S
C173 H160 0.930 . S
C173 C172 1.376 1_565 S
C173 C174 1.388 . S
C174 H161 0.930 . S
C174 C173 1.388 . S
C174 C175 1.390 1_565 S
C175 C174 1.390 1_545 S
C175 C176 1.394 . S
C175 C181 1.465 . S
C176 C171 1.399 . S
C176 C175 1.394 . S
C176 C177 1.516 . S
C177 C176 1.516 . S
C177 C178 1.502 . S
C177 C179 1.561 . S
C177 C180 1.526 . S
C178 H162 0.959 . S
C178 H163 0.959 . S
C178 H164 0.961 . S
C178 C177 1.502 . S
C179 H165 0.960 . S
C179 H166 0.961 . S
C179 H167 0.959 . S
C179 C177 1.561 . S
C180 C177 1.526 . S
C180 C181 1.396 . S
C180 C185 1.390 . S
C181 C175 1.465 . S
C181 C180 1.396 . S
C181 C182 1.399 1_545 S
C182 H168 0.929 . S
C182 C181 1.399 1_565 S
C182 C183 1.385 . S
C183 H169 0.931 . S
C183 C182 1.385 . S
C183 C184 1.389 1_565 S
C184 C183 1.389 1_545 S
C184 C185 1.387 . S
C185 H170 0.930 . S
C185 C180 1.390 . S
C185 C184 1.387 . S
H186 C198 0.930 . S
H187 C200 0.930 . S
H188 C201 0.930 . S
H189 C205 0.959 . S
H190 C205 0.959 . S
H191 C205 0.961 1_554 S
H192 C206 0.960 . S
H193 C206 0.961 . S
H194 C206 0.959 . S
H195 C209 0.929 . S
H196 C210 0.931 . S
H197 C212 0.930 . S
C198 H186 0.930 . S
C198 C199 1.399 . S
C198 C203 1.399 . S
C199 C198 1.399 . S
C199 C200 1.376 . S
C200 H187 0.930 . S
C200 C199 1.376 . S
C200 C201 1.388 1_554 S
C201 H188 0.930 . S
C201 C200 1.388 1_556 S
C201 C202 1.390 . S
C202 C201 1.390 . S
C202 C203 1.394 1_556 S
C202 C208 1.465 . S
C203 C198 1.399 . S
C203 C202 1.394 1_554 S
C203 C204 1.516 1_554 S
C204 C203 1.516 1_556 S
C204 C205 1.502 . S
C204 C206 1.561 1_556 S
C204 C207 1.526 . S
C205 H189 0.959 . S
C205 H190 0.959 . S
C205 H191 0.961 1_556 S
C205 C204 1.502 . S
C206 H192 0.960 . S
C206 H193 0.961 . S
C206 H194 0.959 . S
C206 C204 1.561 1_554 S
C207 C204 1.526 . S
C207 C208 1.396 . S
C207 C212 1.390 . S
C208 C202 1.465 . S
C208 C207 1.396 . S
C208 C209 1.399 . S
C209 H195 0.929 . S
C209 C208 1.399 . S
C209 C210 1.385 . S
C210 H196 0.931 . S
C210 C209 1.385 . S
C210 C211 1.389 . S
C211 C210 1.389 . S
C211 C212 1.387 . S
C212 H197 0.930 . S
C212 C207 1.390 . S
C212 C211 1.387 . S
H213 C225 0.930 . S
H214 C227 0.930 . S
H215 C228 0.930 . S
H216 C232 0.959 . S
H217 C232 0.959 . S
H218 C232 0.961 . S
H219 C233 0.960 . S
H220 C233 0.961 . S
H221 C233 0.959 1_655 S
H222 C236 0.929 . S
H223 C237 0.931 . S
H224 C239 0.930 . S
C225 H213 0.930 . S
C225 C226 1.399 . S
C225 C230 1.399 . S
C226 C225 1.399 . S
C226 C227 1.376 1_455 S
C227 H214 0.930 . S
C227 C226 1.376 1_655 S
C227 C228 1.388 . S
C228 H215 0.930 . S
C228 C227 1.388 . S
C228 C229 1.390 . S
C229 C228 1.390 . S
C229 C230 1.394 1_655 S
C229 C235 1.465 . S
C230 C225 1.399 . S
C230 C229 1.394 1_455 S
C230 C231 1.516 . S
C231 C230 1.516 . S
C231 C232 1.502 . S
C231 C233 1.561 . S
C231 C234 1.526 . S
C232 H216 0.959 . S
C232 H217 0.959 . S
C232 H218 0.961 . S
C232 C231 1.502 . S
C233 H219 0.960 . S
C233 H220 0.961 . S
C233 H221 0.959 1_455 S
C233 C231 1.561 . S
C234 C231 1.526 . S
C234 C235 1.396 1_455 S
C234 C239 1.390 . S
C235 C229 1.465 . S
C235 C234 1.396 1_655 S
C235 C236 1.399 . S
C236 H222 0.929 . S
C236 C235 1.399 . S
C236 C237 1.385 . S
C237 H223 0.931 . S
C237 C236 1.385 . S
C237 C238 1.389 1_655 S
C238 C237 1.389 1_455 S
C238 C239 1.387 . S
C239 H224 0.930 . S
C239 C234 1.390 . S
C239 C238 1.387 . S
H240 C252 0.930 . S
H241 C254 0.930 . S
H242 C255 0.930 . S
H243 C259 0.959 . S
H244 C259 0.959 . S
H245 C259 0.961 . S
H246 C260 0.960 . S
H247 C260 0.961 . S
H248 C260 0.959 . S
H249 C263 0.929 . S
H250 C264 0.931 . S
H251 C266 0.930 . S
C252 H240 0.930 . S
C252 C253 1.399 . S
C252 C257 1.399 . S
C253 C252 1.399 . S
C253 C254 1.376 . S
C254 H241 0.930 . S
C254 C253 1.376 . S
C254 C255 1.388 . S
C255 H242 0.930 . S
C255 C254 1.388 . S
C255 C256 1.390 . S
C256 C255 1.390 . S
C256 C257 1.394 . S
C256 C262 1.465 . S
C257 C252 1.399 . S
C257 C256 1.394 . S
C257 C258 1.516 . S
C258 C257 1.516 . S
C258 C259 1.502 . S
C258 C260 1.561 . S
C258 C261 1.526 . S
C259 H243 0.959 . S
C259 H244 0.959 . S
C259 H245 0.961 . S
C259 C258 1.502 . S
C260 H246 0.960 . S
C260 H247 0.961 . S
C260 H248 0.959 . S
C260 C258 1.561 . S
C261 C258 1.526 . S
C261 C262 1.396 . S
C261 C266 1.390 . S
C262 C256 1.465 . S
C262 C261 1.396 . S
C262 C263 1.399 . S
C263 H249 0.929 . S
C263 C262 1.399 . S
C263 C264 1.385 . S
C264 H250 0.931 . S
C264 C263 1.385 . S
C264 C265 1.389 . S
C265 C264 1.389 . S
C265 C266 1.387 . S
C266 H251 0.930 . S
C266 C261 1.390 . S
C266 C265 1.387 . S
H267 C279 0.930 . S
H268 C281 0.930 . S
H269 C282 0.930 . S
H270 C286 0.959 . S
H271 C286 0.959 . S
H272 C286 0.961 . S
H273 C287 0.960 . S
H274 C287 0.961 . S
H275 C287 0.959 . S
H276 C290 0.929 . S
H277 C291 0.931 . S
H278 C293 0.930 . S
C279 H267 0.930 . S
C279 C280 1.399 . S
C279 C284 1.399 . S
C280 C279 1.399 . S
C280 C281 1.376 . S
C281 H268 0.930 . S
C281 C280 1.376 . S
C281 C282 1.388 . S
C282 H269 0.930 . S
C282 C281 1.388 . S
C282 C283 1.390 . S
C283 C282 1.390 . S
C283 C284 1.394 . S
C283 C289 1.465 . S
C284 C279 1.399 . S
C284 C283 1.394 . S
C284 C285 1.516 . S
C285 C284 1.516 . S
C285 C286 1.502 . S
C285 C287 1.561 . S
C285 C288 1.526 . S
C286 H270 0.959 . S
C286 H271 0.959 . S
C286 H272 0.961 . S
C286 C285 1.502 . S
C287 H273 0.960 . S
C287 H274 0.961 . S
C287 H275 0.959 . S
C287 C285 1.561 . S
C288 C285 1.526 . S
C288 C289 1.396 . S
C288 C293 1.390 . S
C289 C283 1.465 . S
C289 C288 1.396 . S
C289 C290 1.399 . S
C290 H276 0.929 . S
C290 C289 1.399 . S
C290 C291 1.385 . S
C291 H277 0.931 . S
C291 C290 1.385 . S
C291 C292 1.389 . S
C292 C291 1.389 . S
C292 C293 1.387 . S
C293 H278 0.930 . S
C293 C288 1.390 . S
C293 C292 1.387 . S
H294 C306 0.930 . S
H295 C308 0.930 . S
H296 C309 0.930 . S
H297 C313 0.959 . S
H298 C313 0.959 . S
H299 C313 0.961 . S
H300 C314 0.960 . S
H301 C314 0.961 . S
H302 C314 0.959 . S
H303 C317 0.929 . S
H304 C318 0.931 . S
H305 C320 0.930 . S
C306 H294 0.930 . S
C306 C307 1.399 . S
C306 C311 1.399 . S
C307 C306 1.399 . S
C307 C308 1.376 . S
C308 H295 0.930 . S
C308 C307 1.376 . S
C308 C309 1.388 . S
C309 H296 0.930 . S
C309 C308 1.388 . S
C309 C310 1.390 . S
C310 C309 1.390 . S
C310 C311 1.394 . S
C310 C316 1.465 . S
C311 C306 1.399 . S
C311 C310 1.394 . S
C311 C312 1.516 . S
C312 C311 1.516 . S
C312 C313 1.502 . S
C312 C314 1.561 . S
C312 C315 1.526 . S
C313 H297 0.959 . S
C313 H298 0.959 . S
C313 H299 0.961 . S
C313 C312 1.502 . S
C314 H300 0.960 . S
C314 H301 0.961 . S
C314 H302 0.959 . S
C314 C312 1.561 . S
C315 C312 1.526 . S
C315 C316 1.396 . S
C315 C320 1.390 . S
C316 C310 1.465 . S
C316 C315 1.396 . S
C316 C317 1.399 . S
C317 H303 0.929 . S
C317 C316 1.399 . S
C317 C318 1.385 . S
C318 H304 0.931 . S
C318 C317 1.385 . S
C318 C319 1.389 . S
C319 C318 1.389 . S
C319 C320 1.387 . S
C320 H305 0.930 . S
C320 C315 1.390 . S
C320 C319 1.387 . S
H321 C333 0.930 . S
H322 C335 0.930 . S
H323 C336 0.930 . S
H324 C340 0.959 . S
H325 C340 0.959 . S
H326 C340 0.961 . S
H327 C341 0.960 . S
H328 C341 0.961 . S
H329 C341 0.959 . S
H330 C344 0.929 . S
H331 C345 0.931 . S
H332 C347 0.930 . S
C333 H321 0.930 . S
C333 C334 1.399 . S
C333 C338 1.399 . S
C334 C333 1.399 . S
C334 C335 1.376 . S
C335 H322 0.930 . S
C335 C334 1.376 . S
C335 C336 1.388 . S
C336 H323 0.930 . S
C336 C335 1.388 . S
C336 C337 1.390 . S
C337 C336 1.390 . S
C337 C338 1.394 . S
C337 C343 1.465 . S
C338 C333 1.399 . S
C338 C337 1.394 . S
C338 C339 1.516 . S
C339 C338 1.516 . S
C339 C340 1.502 . S
C339 C341 1.561 . S
C339 C342 1.526 . S
C340 H324 0.959 . S
C340 H325 0.959 . S
C340 H326 0.961 . S
C340 C339 1.502 . S
C341 H327 0.960 . S
C341 H328 0.961 . S
C341 H329 0.959 . S
C341 C339 1.561 . S
C342 C339 1.526 . S
C342 C343 1.396 . S
C342 C347 1.390 . S
C343 C337 1.465 . S
C343 C342 1.396 . S
C343 C344 1.399 . S
C344 H330 0.929 . S
C344 C343 1.399 . S
C344 C345 1.385 . S
C345 H331 0.931 . S
C345 C344 1.385 . S
C345 C346 1.389 . S
C346 C345 1.389 . S
C346 C347 1.387 . S
C347 H332 0.930 . S
C347 C342 1.390 . S
C347 C346 1.387 . S
H348 C360 0.930 . S
H349 C362 0.930 . S
H350 C363 0.930 . S
H351 C367 0.959 . S
H352 C367 0.959 . S
H353 C367 0.961 . S
H354 C368 0.960 . S
H355 C368 0.961 . S
H356 C368 0.959 . S
H357 C371 0.929 . S
H358 C372 0.931 . S
H359 C374 0.930 . S
C360 H348 0.930 . S
C360 C361 1.399 . S
C360 C365 1.399 . S
C361 C360 1.399 . S
C361 C362 1.376 . S
C362 H349 0.930 . S
C362 C361 1.376 . S
C362 C363 1.388 . S
C363 H350 0.930 . S
C363 C362 1.388 . S
C363 C364 1.390 . S
C364 C363 1.390 . S
C364 C365 1.394 . S
C364 C370 1.465 . S
C365 C360 1.399 . S
C365 C364 1.394 . S
C365 C366 1.516 . S
C366 C365 1.516 . S
C366 C367 1.502 . S
C366 C368 1.561 . S
C366 C369 1.526 . S
C367 H351 0.959 . S
C367 H352 0.959 . S
C367 H353 0.961 . S
C367 C366 1.502 . S
C368 H354 0.960 . S
C368 H355 0.961 . S
C368 H356 0.959 . S
C368 C366 1.561 . S
C369 C366 1.526 . S
C369 C370 1.396 . S
C369 C374 1.390 . S
C370 C364 1.465 . S
C370 C369 1.396 . S
C370 C371 1.399 . S
C371 H357 0.929 . S
C371 C370 1.399 . S
C371 C372 1.385 . S
C372 H358 0.931 . S
C372 C371 1.385 . S
C372 C373 1.389 . S
C373 C372 1.389 . S
C373 C374 1.387 . S
C374 H359 0.930 . S
C374 C369 1.390 . S
C374 C373 1.387 . S
H375 C387 0.930 1_554 S
H376 C389 0.930 . S
H377 C390 0.930 . S
H378 C394 0.959 . S
H379 C394 0.959 . S
H380 C394 0.961 . S
H381 C395 0.960 . S
H382 C395 0.961 . S
H383 C395 0.959 . S
H384 C398 0.929 . S
H385 C399 0.931 . S
H386 C401 0.930 . S
C387 H375 0.930 1_556 S
C387 C388 1.399 . S
C387 C392 1.399 . S
C388 C387 1.399 . S
C388 C389 1.376 . S
C389 H376 0.930 . S
C389 C388 1.376 . S
C389 C390 1.388 . S
C390 H377 0.930 . S
C390 C389 1.388 . S
C390 C391 1.390 . S
C391 C390 1.390 . S
C391 C392 1.394 . S
C391 C397 1.465 . S
C392 C387 1.399 . S
C392 C391 1.394 . S
C392 C393 1.516 1_556 S
C393 C392 1.516 1_554 S
C393 C394 1.502 . S
C393 C395 1.561 . S
C393 C396 1.524 1_554 S
C394 H378 0.959 . S
C394 H379 0.959 . S
C394 H380 0.961 . S
C394 C393 1.502 . S
C395 H381 0.960 . S
C395 H382 0.961 . S
C395 H383 0.959 . S
C395 C393 1.561 . S
C396 C393 1.524 1_556 S
C396 C397 1.399 . S
C396 C401 1.388 1_556 S
C397 C391 1.465 . S
C397 C396 1.399 . S
C397 C398 1.399 . S
C398 H384 0.929 . S
C398 C397 1.399 . S
C398 C399 1.385 . S
C399 H385 0.931 . S
C399 C398 1.385 . S
C399 C400 1.389 . S
C400 C399 1.389 . S
C400 C401 1.387 1_556 S
C401 H386 0.930 . S
C401 C396 1.388 1_554 S
C401 C400 1.387 1_554 S
C91 C5 1.760 . S
C103 C43 1.760 . S
C118 C18 1.767 . S
C130 C56 1.770 . S
C145 C69 1.758 . S
C157 C31 1.760 . S
C172 C10 1.757 . S
C184 C42 1.761 . S
C199 C23 1.766 . S
C211 C55 1.769 . S
C226 C68 1.768 1_554 S
C238 C36 1.770 . S
C253 C17 1.438 . S
C265 C3 1.421 . S
C280 C30 1.421 . S
C292 C16 1.438 . S
C307 C29 1.439 . S
C319 C49 1.421 . S
C334 C62 1.407 . S
C346 C44 1.431 . S
C361 C75 1.438 . S
C373 C57 1.423 . S
C388 C70 1.410 . S
C400 C4 1.427 1_556 S
