# Generated by pormake.
# Topology ume, (4)-cn, num edge types: 1
# Building blocks:
#     Node 0, Type 0, BuildingBlock: CEKHIL_clean_sbu_0, # of connection points: 4
#     Node 1, Type 0, BuildingBlock: CEKHIL_clean_sbu_0, # of connection points: 4
#     Node 2, Type 0, BuildingBlock: CEKHIL_clean_sbu_0, # of connection points: 4
#     Node 3, Type 0, BuildingBlock: CEKHIL_clean_sbu_0, # of connection points: 4
#     Node 4, Type 0, BuildingBlock: CEKHIL_clean_sbu_0, # of connection points: 4
#     Node 5, Type 0, BuildingBlock: CEKHIL_clean_sbu_0, # of connection points: 4
#     Node 6, Type 0, BuildingBlock: CEKHIL_clean_sbu_0, # of connection points: 4
#     Node 7, Type 0, BuildingBlock: CEKHIL_clean_sbu_0, # of connection points: 4
#     Node 8, Type 0, BuildingBlock: CEKHIL_clean_sbu_0, # of connection points: 4
#     Node 9, Type 0, BuildingBlock: CEKHIL_clean_sbu_0, # of connection points: 4
#     Node 10, Type 0, BuildingBlock: CEKHIL_clean_sbu_0, # of connection points: 4
#     Node 11, Type 0, BuildingBlock: CEKHIL_clean_sbu_0, # of connection points: 4
#     Node 12, Type 0, BuildingBlock: CEKHIL_clean_sbu_0, # of connection points: 4
#     Node 13, Type 0, BuildingBlock: CEKHIL_clean_sbu_0, # of connection points: 4
#     Node 14, Type 0, BuildingBlock: CEKHIL_clean_sbu_0, # of connection points: 4
#     Node 15, Type 0, BuildingBlock: CEKHIL_clean_sbu_0, # of connection points: 4
#     Edge 16, Type (0, 0), BuildingBlock: ZUJKAS_clean_linker_0, # of connection points: 2
#     Edge 17, Type (0, 0), BuildingBlock: ZUJKAS_clean_linker_0, # of connection points: 2
#     Edge 18, Type (0, 0), BuildingBlock: ZUJKAS_clean_linker_0, # of connection points: 2
#     Edge 19, Type (0, 0), BuildingBlock: ZUJKAS_clean_linker_0, # of connection points: 2
#     Edge 20, Type (0, 0), BuildingBlock: ZUJKAS_clean_linker_0, # of connection points: 2
#     Edge 21, Type (0, 0), BuildingBlock: ZUJKAS_clean_linker_0, # of connection points: 2
#     Edge 22, Type (0, 0), BuildingBlock: ZUJKAS_clean_linker_0, # of connection points: 2
#     Edge 23, Type (0, 0), BuildingBlock: ZUJKAS_clean_linker_0, # of connection points: 2
#     Edge 24, Type (0, 0), BuildingBlock: ZUJKAS_clean_linker_0, # of connection points: 2
#     Edge 25, Type (0, 0), BuildingBlock: ZUJKAS_clean_linker_0, # of connection points: 2
#     Edge 26, Type (0, 0), BuildingBlock: ZUJKAS_clean_linker_0, # of connection points: 2
#     Edge 27, Type (0, 0), BuildingBlock: ZUJKAS_clean_linker_0, # of connection points: 2
#     Edge 28, Type (0, 0), BuildingBlock: ZUJKAS_clean_linker_0, # of connection points: 2
#     Edge 29, Type (0, 0), BuildingBlock: ZUJKAS_clean_linker_0, # of connection points: 2
#     Edge 30, Type (0, 0), BuildingBlock: ZUJKAS_clean_linker_0, # of connection points: 2
#     Edge 31, Type (0, 0), BuildingBlock: ZUJKAS_clean_linker_0, # of connection points: 2
#     Edge 32, Type (0, 0), BuildingBlock: ZUJKAS_clean_linker_0, # of connection points: 2
#     Edge 33, Type (0, 0), BuildingBlock: ZUJKAS_clean_linker_0, # of connection points: 2
#     Edge 34, Type (0, 0), BuildingBlock: ZUJKAS_clean_linker_0, # of connection points: 2
#     Edge 35, Type (0, 0), BuildingBlock: ZUJKAS_clean_linker_0, # of connection points: 2
#     Edge 36, Type (0, 0), BuildingBlock: ZUJKAS_clean_linker_0, # of connection points: 2
#     Edge 37, Type (0, 0), BuildingBlock: ZUJKAS_clean_linker_0, # of connection points: 2
#     Edge 38, Type (0, 0), BuildingBlock: ZUJKAS_clean_linker_0, # of connection points: 2
#     Edge 39, Type (0, 0), BuildingBlock: ZUJKAS_clean_linker_0, # of connection points: 2
#     Edge 40, Type (0, 0), BuildingBlock: ZUJKAS_clean_linker_0, # of connection points: 2
#     Edge 41, Type (0, 0), BuildingBlock: ZUJKAS_clean_linker_0, # of connection points: 2
#     Edge 42, Type (0, 0), BuildingBlock: ZUJKAS_clean_linker_0, # of connection points: 2
#     Edge 43, Type (0, 0), BuildingBlock: ZUJKAS_clean_linker_0, # of connection points: 2
#     Edge 44, Type (0, 0), BuildingBlock: ZUJKAS_clean_linker_0, # of connection points: 2
#     Edge 45, Type (0, 0), BuildingBlock: ZUJKAS_clean_linker_0, # of connection points: 2
#     Edge 46, Type (0, 0), BuildingBlock: ZUJKAS_clean_linker_0, # of connection points: 2
#     Edge 47, Type (0, 0), BuildingBlock: ZUJKAS_clean_linker_0, # of connection points: 2
# Relax obj value: 0.097
# Max RMSD: 0.136
# Mean RMSD: 0.136
data_MOF--net-ume--node1-CEKHIL_clean_sbu_0--edge1-ZUJKAS_clean_linker_0
_symmetry_space_group_name_H-M    P1
_symmetry_Int_Tables_number       1
_symmetry_cell_setting            triclinic
loop_
_symmetry_equiv_pos_as_xyz
'x, y, z'
_cell_length_a     35.57147
_cell_length_b     35.53918
_cell_length_c     144.0356
_cell_angle_alpha  89.974675
_cell_angle_beta   89.969141
_cell_angle_gamma 89.998456
loop_
_atom_site_label
_atom_site_type_symbol
_atom_site_fract_x
_atom_site_fract_y
_atom_site_fract_z
_atom_type_partial_charge
Co0 Co 0.24117 0.10715 0.30101 0.0
O1 O 0.18745 0.11071 0.30029 0.0
O2 O 0.21825 0.06214 0.30621 0.0
C3 C 0.25248 0.12687 0.28647 0.0
O4 O 0.2968 0.09342 0.30237 0.0
Co5 Co 0.28888 0.17997 0.29922 0.0
O6 O 0.3315 0.14415 0.29855 0.0
C7 C 0.25112 0.16345 0.31689 0.0
C8 C 0.18622 0.07776 0.30412 0.0
C9 C 0.32867 0.10949 0.30073 0.0
O10 O 0.24069 0.13144 0.31363 0.0
O11 O 0.26844 0.18816 0.31204 0.0
O12 O 0.24372 0.09194 0.28804 0.0
O13 O 0.25032 0.14921 0.29352 0.0
Co14 Co 0.8953 0.74151 0.55211 0.0
O15 O 0.88747 0.68825 0.55325 0.0
O16 O 0.93992 0.71777 0.55718 0.0
C17 C 0.87278 0.74699 0.53761 0.0
O18 O 0.91353 0.79617 0.55156 0.0
Co19 Co 0.82684 0.79489 0.54969 0.0
O20 O 0.86619 0.83107 0.54577 0.0
C21 C 0.84393 0.76382 0.56817 0.0
C22 C 0.92144 0.68627 0.55646 0.0
C23 C 0.90048 0.82711 0.54814 0.0
O24 O 0.87416 0.74904 0.5649 0.0
O25 O 0.82013 0.78174 0.56317 0.0
O26 O 0.90713 0.73595 0.539 0.0
O27 O 0.85227 0.75064 0.54497 0.0
Co28 Co 0.26018 0.39579 0.80126 0.0
O29 O 0.31375 0.38945 0.80171 0.0
O30 O 0.28377 0.44057 0.80638 0.0
C31 C 0.25234 0.37454 0.78669 0.0
O32 O 0.20485 0.41206 0.80145 0.0
Co33 Co 0.21022 0.32443 0.79918 0.0
O34 O 0.16973 0.36201 0.79733 0.0
C35 C 0.24473 0.34127 0.81722 0.0
C36 C 0.31557 0.42301 0.80519 0.0
C37 C 0.173 0.39683 0.79932 0.0
O38 O 0.2556 0.37328 0.81403 0.0
O39 O 0.22879 0.31624 0.81219 0.0
O40 O 0.26271 0.40909 0.78815 0.0
O41 O 0.25122 0.35324 0.79396 0.0
Co42 Co 0.61075 0.76233 0.05162 0.0
O43 O 0.61735 0.81583 0.05251 0.0
O44 O 0.56569 0.7855 0.05667 0.0
C45 C 0.63304 0.75619 0.0371 0.0
O46 O 0.59403 0.70711 0.05129 0.0
Co47 Co 0.68151 0.71166 0.04945 0.0
O48 O 0.64357 0.67245 0.04663 0.0
C49 C 0.66365 0.744 0.0677 0.0
C50 C 0.58343 0.81737 0.05577 0.0
C51 C 0.60879 0.67568 0.04863 0.0
O52 O 0.63218 0.75598 0.06445 0.0
O53 O 0.68869 0.72804 0.06267 0.0
O54 O 0.59852 0.7667 0.03849 0.0
O55 O 0.65379 0.75388 0.04444 0.0
Co56 Co 0.24094 0.39167 0.932 0.0
O57 O 0.18758 0.38412 0.9319 0.0
O58 O 0.21599 0.43543 0.92672 0.0
C59 C 0.25024 0.37165 0.94661 0.0
O60 O 0.29575 0.40934 0.93151 0.0
Co61 Co 0.29291 0.32183 0.93415 0.0
O62 O 0.33233 0.36061 0.93581 0.0
C63 C 0.25764 0.337 0.91611 0.0
C64 C 0.18472 0.4174 0.92829 0.0
C65 C 0.32803 0.39517 0.93367 0.0
O66 O 0.24517 0.36841 0.9193 0.0
O67 O 0.27509 0.31291 0.92112 0.0
O68 O 0.23901 0.40585 0.94505 0.0
O69 O 0.25148 0.34988 0.93944 0.0
Co70 Co 0.6107 0.74054 0.18278 0.0
O71 O 0.61745 0.68696 0.18226 0.0
O72 O 0.566 0.71674 0.17772 0.0
C73 C 0.63222 0.74841 0.19731 0.0
O74 O 0.59386 0.7957 0.18268 0.0
Co75 Co 0.68136 0.79143 0.18477 0.0
O76 O 0.6434 0.83138 0.18685 0.0
C77 C 0.66426 0.75723 0.1667 0.0
C78 C 0.58379 0.68502 0.17885 0.0
C79 C 0.60863 0.82769 0.18489 0.0
O80 O 0.63271 0.74555 0.16998 0.0
O81 O 0.68915 0.77367 0.17167 0.0
O82 O 0.5978 0.73763 0.1959 0.0
O83 O 0.65335 0.74987 0.19002 0.0
Co84 Co 0.25912 0.10565 0.43223 0.0
O85 O 0.31266 0.11154 0.43144 0.0
O86 O 0.28201 0.05971 0.42754 0.0
C87 C 0.25249 0.12951 0.44659 0.0
O88 O 0.2037 0.0898 0.43244 0.0
Co89 Co 0.20975 0.17771 0.43385 0.0
O90 O 0.16869 0.14089 0.43582 0.0
C91 C 0.24308 0.15769 0.41583 0.0
C92 C 0.31396 0.07732 0.42837 0.0
C93 C 0.17188 0.10569 0.43428 0.0
O94 O 0.2538 0.12599 0.41924 0.0
O95 O 0.22786 0.18361 0.42073 0.0
O96 O 0.26242 0.09464 0.44546 0.0
O97 O 0.25102 0.14952 0.43911 0.0
Co98 Co 0.89216 0.76302 0.6837 0.0
O99 O 0.8862 0.81671 0.68341 0.0
O100 O 0.93737 0.78656 0.67884 0.0
C101 C 0.86982 0.75435 0.69813 0.0
O102 O 0.90827 0.70758 0.68338 0.0
Co103 Co 0.82081 0.7128 0.6853 0.0
O104 O 0.85812 0.67228 0.68731 0.0
C105 C 0.83949 0.74753 0.66737 0.0
C106 C 0.91996 0.81843 0.68005 0.0
C107 C 0.89299 0.67563 0.68543 0.0
O108 O 0.87057 0.75953 0.67083 0.0
O109 O 0.81452 0.73015 0.67213 0.0
O110 O 0.90449 0.76465 0.69686 0.0
O111 O 0.84903 0.75373 0.69077 0.0
Co112 Co 0.73964 0.60943 0.80236 0.0
O113 O 0.68626 0.61626 0.80331 0.0
O114 O 0.71631 0.56449 0.80753 0.0
C115 C 0.74548 0.6312 0.78778 0.0
O116 O 0.79489 0.59277 0.80202 0.0
Co117 Co 0.78986 0.68055 0.7999 0.0
O118 O 0.82964 0.6427 0.7976 0.0
C119 C 0.75875 0.66283 0.81831 0.0
C120 C 0.68457 0.58245 0.80664 0.0
C121 C 0.82649 0.60788 0.79961 0.0
O122 O 0.74625 0.63137 0.81514 0.0
O123 O 0.77454 0.6877 0.81319 0.0
O124 O 0.73511 0.59668 0.78926 0.0
O125 O 0.74783 0.65222 0.79507 0.0
Co126 Co 0.39617 0.24202 0.05089 0.0
O127 O 0.38883 0.1886 0.05156 0.0
O128 O 0.44107 0.21777 0.05575 0.0
C129 C 0.37347 0.2495 0.03645 0.0
O130 O 0.4135 0.29706 0.05077 0.0
Co131 Co 0.32594 0.29364 0.04905 0.0
O132 O 0.36437 0.33219 0.04605 0.0
C133 C 0.34393 0.25971 0.06714 0.0
C134 C 0.42275 0.18626 0.05477 0.0
C135 C 0.3991 0.3286 0.04807 0.0
O136 O 0.37521 0.24764 0.06379 0.0
O137 O 0.31895 0.27628 0.06222 0.0
O138 O 0.40794 0.23857 0.03771 0.0
O139 O 0.35302 0.25145 0.04385 0.0
Co140 Co 0.76156 0.89467 0.30171 0.0
O141 O 0.81504 0.88754 0.30161 0.0
O142 O 0.78649 0.93871 0.30682 0.0
C143 C 0.75148 0.87401 0.28719 0.0
O144 O 0.7067 0.91218 0.30241 0.0
Co145 Co 0.70903 0.82523 0.29986 0.0
O146 O 0.67019 0.86417 0.29768 0.0
C147 C 0.74473 0.84114 0.31783 0.0
C148 C 0.8178 0.92087 0.30519 0.0
C149 C 0.67452 0.89853 0.29999 0.0
O150 O 0.75843 0.87172 0.31446 0.0
O151 O 0.72578 0.81753 0.31303 0.0
O152 O 0.76247 0.90839 0.28862 0.0
O153 O 0.75072 0.85251 0.29442 0.0
Co154 Co 0.10886 0.26321 0.55058 0.0
O155 O 0.11668 0.31656 0.55157 0.0
O156 O 0.06436 0.28714 0.55564 0.0
C157 C 0.13151 0.25704 0.53611 0.0
O158 O 0.09039 0.20862 0.5502 0.0
Co159 Co 0.17695 0.20935 0.54836 0.0
O160 O 0.13751 0.17308 0.54455 0.0
C161 C 0.15955 0.24077 0.56678 0.0
C162 C 0.08275 0.31865 0.55483 0.0
C163 C 0.10324 0.1774 0.54691 0.0
O164 O 0.12975 0.25603 0.56342 0.0
O165 O 0.18326 0.22241 0.56185 0.0
O166 O 0.09719 0.26829 0.53745 0.0
O167 O 0.15193 0.25358 0.54348 0.0
Co168 Co 0.73894 0.89032 0.43351 0.0
O169 O 0.68552 0.88275 0.43303 0.0
O170 O 0.7143 0.93505 0.42869 0.0
C171 C 0.74727 0.86761 0.44792 0.0
O172 O 0.79382 0.90819 0.43345 0.0
Co173 Co 0.79146 0.82068 0.43521 0.0
O174 O 0.82991 0.85943 0.43795 0.0
C175 C 0.758 0.83914 0.41711 0.0
C176 C 0.68291 0.91668 0.42979 0.0
C177 C 0.82578 0.89413 0.43594 0.0
O178 O 0.74408 0.86941 0.42059 0.0
O179 O 0.77603 0.81473 0.42189 0.0
O180 O 0.73607 0.90205 0.4467 0.0
O181 O 0.74906 0.84716 0.44052 0.0
Co182 Co 0.10788 0.24292 0.68242 0.0
O183 O 0.11474 0.18939 0.68203 0.0
O184 O 0.06283 0.21873 0.67764 0.0
C185 C 0.13033 0.25147 0.69683 0.0
O186 O 0.09099 0.29816 0.68222 0.0
Co187 Co 0.17852 0.294 0.68393 0.0
O188 O 0.1407 0.3337 0.68631 0.0
C189 C 0.15998 0.2593 0.66601 0.0
C190 C 0.08089 0.18716 0.67877 0.0
C191 C 0.10586 0.33011 0.68443 0.0
O192 O 0.12909 0.24697 0.66951 0.0
O193 O 0.18483 0.27696 0.67073 0.0
O194 O 0.0958 0.24074 0.69557 0.0
O195 O 0.15105 0.2526 0.68946 0.0
Co196 Co 0.76062 0.60324 0.93319 0.0
O197 O 0.81443 0.60588 0.93361 0.0
O198 O 0.7822 0.55724 0.92819 0.0
C199 C 0.75093 0.62489 0.94764 0.0
O200 O 0.70462 0.59051 0.93223 0.0
Co201 Co 0.7145 0.67727 0.93467 0.0
O202 O 0.67164 0.64212 0.93622 0.0
C203 C 0.75175 0.65848 0.91707 0.0
C204 C 0.81466 0.57247 0.93002 0.0
C205 C 0.67337 0.60725 0.93417 0.0
O206 O 0.76046 0.62609 0.92042 0.0
O207 O 0.73595 0.68432 0.92188 0.0
O208 O 0.75917 0.58968 0.94629 0.0
O209 O 0.75273 0.64622 0.94039 0.0
Co210 Co 0.39554 0.26076 0.18207 0.0
O211 O 0.3894 0.31437 0.18174 0.0
O212 O 0.44048 0.28439 0.17702 0.0
C213 C 0.37438 0.25227 0.1966 0.0
O214 O 0.41155 0.20535 0.18175 0.0
Co215 Co 0.32413 0.21094 0.18406 0.0
O216 O 0.36148 0.17025 0.18587 0.0
C217 C 0.3414 0.24552 0.16602 0.0
C218 C 0.42297 0.3162 0.17828 0.0
C219 C 0.39627 0.17349 0.18386 0.0
O220 O 0.37307 0.25691 0.16928 0.0
O221 O 0.31651 0.229 0.17099 0.0
O222 O 0.40896 0.26244 0.19515 0.0
O223 O 0.35292 0.25178 0.18937 0.0
H224 H 0.88404 0.90012 0.29748 0.0
H225 H 0.94604 0.92676 0.30012 0.0
H226 H 0.8991 0.00461 0.31999 0.0
H227 H 0.83607 0.97905 0.31695 0.0
H228 H 0.94591 0.04009 0.3099 0.0
H229 H 0.01858 0.91044 0.32033 0.0
H230 H 0.99745 0.90276 0.30922 0.0
H231 H 0.96814 0.91244 0.31918 0.0
C232 C 0.88687 0.92276 0.30247 0.0
C233 C 0.85522 0.93737 0.30705 0.0
C234 C 0.92253 0.93772 0.30406 0.0
C235 C 0.9277 0.96691 0.3105 0.0
C236 C 0.896 0.98177 0.31507 0.0
H237 H 0.16615 0.03027 0.31835 0.0
H238 H 0.10297 0.00519 0.32156 0.0
C239 C 0.86 0.96724 0.31333 0.0
C240 C 0.96584 0.98335 0.31186 0.0
H241 H 0.05854 0.95913 0.31355 0.0
C242 C 0.97043 0.02239 0.31088 0.0
C243 C 0.99803 0.96071 0.31346 0.0
C244 C 0.99517 0.91935 0.31572 0.0
C245 C 0.00628 0.03894 0.3108 0.0
C246 C 0.03862 0.01566 0.31126 0.0
C247 C 0.03396 0.977 0.31292 0.0
C248 C 0.07713 0.03049 0.30944 0.0
C249 C 0.00886 0.08126 0.31021 0.0
C250 C 0.08403 0.05203 0.30145 0.0
C251 C 0.11963 0.06693 0.29975 0.0
C252 C 0.1496 0.05948 0.30581 0.0
C253 C 0.14345 0.03635 0.31357 0.0
C254 C 0.10737 0.02216 0.31541 0.0
H255 H 0.98432 0.09474 0.31363 0.0
H256 H 0.03493 0.09205 0.3135 0.0
H257 H 0.00851 0.08996 0.30281 0.0
H258 H 0.06183 0.05745 0.29649 0.0
H259 H 0.12377 0.08419 0.29363 0.0
H260 H 0.99616 0.66783 0.55769 0.0
H261 H 0.02287 0.60441 0.5593 0.0
H262 H 0.91124 0.55846 0.56217 0.0
H263 H 0.88449 0.62124 0.56027 0.0
H264 H 0.01936 0.54831 0.57256 0.0
H265 H 0.95061 0.50107 0.54002 0.0
H266 H 0.95218 0.54984 0.54344 0.0
H267 H 0.91807 0.51854 0.5485 0.0
C268 C 0.97742 0.6442 0.55876 0.0
C269 C 0.93826 0.64934 0.55871 0.0
C270 C 0.99267 0.60802 0.55968 0.0
C271 C 0.96898 0.57658 0.56061 0.0
C272 C 0.93 0.58212 0.56117 0.0
H273 H 0.00981 0.33409 0.55974 0.0
H274 H 0.98167 0.3963 0.56233 0.0
C275 C 0.91477 0.61806 0.56013 0.0
C276 C 0.98473 0.53787 0.56058 0.0
H277 H 0.9815 0.45433 0.54888 0.0
C278 C 0.01113 0.52776 0.56738 0.0
C279 C 0.97402 0.51107 0.5538 0.0
C280 C 0.94746 0.52071 0.54597 0.0
C281 C 0.0268 0.49145 0.56764 0.0
C282 C 0.016 0.46474 0.56086 0.0
C283 C 0.98941 0.47475 0.55412 0.0
C284 C 0.03355 0.42698 0.56024 0.0
C285 C 0.05457 0.48186 0.57519 0.0
C286 C 0.07196 0.42367 0.55822 0.0
C287 C 0.08799 0.38834 0.55671 0.0
C288 C 0.0659 0.35555 0.55715 0.0
C289 C 0.02756 0.35881 0.55938 0.0
C290 C 0.01147 0.39429 0.56085 0.0
H291 H 0.05204 0.50127 0.5812 0.0
H292 H 0.05057 0.45252 0.57766 0.0
H293 H 0.08353 0.48438 0.57239 0.0
H294 H 0.08935 0.44853 0.55752 0.0
H295 H 0.1176 0.38683 0.555 0.0
H296 H 0.66605 0.50748 0.80796 0.0
H297 H 0.6025 0.48085 0.80946 0.0
H298 H 0.55669 0.59272 0.81203 0.0
H299 H 0.6195 0.61933 0.81027 0.0
H300 H 0.54559 0.48525 0.82267 0.0
H301 H 0.50003 0.55258 0.7898 0.0
H302 H 0.54865 0.55072 0.79332 0.0
H303 H 0.5176 0.58554 0.79817 0.0
C304 C 0.64242 0.52628 0.80895 0.0
C305 C 0.64764 0.56547 0.80886 0.0
C306 C 0.60615 0.51108 0.80979 0.0
C307 C 0.57471 0.53487 0.81061 0.0
C308 C 0.58033 0.57387 0.81113 0.0
H309 H 0.33148 0.4964 0.80983 0.0
H310 H 0.39396 0.52432 0.81225 0.0
C311 C 0.61631 0.58901 0.81017 0.0
C312 C 0.53591 0.51929 0.81054 0.0
H313 H 0.45257 0.52313 0.79876 0.0
C314 C 0.52527 0.49346 0.81744 0.0
C315 C 0.50936 0.52999 0.80369 0.0
C316 C 0.51952 0.55593 0.79577 0.0
C317 C 0.4887 0.47842 0.81773 0.0
C318 C 0.46223 0.48925 0.81091 0.0
C319 C 0.47278 0.51523 0.80405 0.0
C320 C 0.42425 0.47209 0.81031 0.0
C321 C 0.47858 0.45129 0.82539 0.0
C322 C 0.42061 0.43359 0.80841 0.0
C323 C 0.38518 0.41774 0.80698 0.0
C324 C 0.35253 0.44003 0.8074 0.0
C325 C 0.35607 0.47849 0.80949 0.0
C326 C 0.39171 0.49444 0.81087 0.0
H327 H 0.49796 0.45387 0.83141 0.0
H328 H 0.44932 0.45595 0.82783 0.0
H329 H 0.48062 0.42209 0.82271 0.0
H330 H 0.44531 0.41596 0.80775 0.0
H331 H 0.3835 0.38801 0.80537 0.0
H332 H 0.49714 0.16813 0.05756 0.0
H333 H 0.52385 0.10469 0.05932 0.0
H334 H 0.41229 0.05728 0.05864 0.0
H335 H 0.38568 0.11997 0.05667 0.0
H336 H 0.51319 0.04678 0.07233 0.0
H337 H 0.46423 0.00266 0.03743 0.0
H338 H 0.46405 0.05116 0.04113 0.0
H339 H 0.42712 0.01979 0.04474 0.0
C340 C 0.47838 0.14416 0.05786 0.0
C341 C 0.43937 0.14899 0.05684 0.0
C342 C 0.49363 0.10797 0.05886 0.0
C343 C 0.47009 0.07618 0.05889 0.0
C344 C 0.43106 0.08126 0.05838 0.0
H345 H 0.50883 0.83324 0.05882 0.0
H346 H 0.48026 0.89578 0.06069 0.0
C347 C 0.4159 0.1172 0.05729 0.0
C348 C 0.48607 0.03757 0.05916 0.0
H349 H 0.48892 0.95476 0.04713 0.0
C350 C 0.508 0.02669 0.06681 0.0
C351 C 0.47928 0.01134 0.05195 0.0
C352 C 0.4577 0.02186 0.04331 0.0
C353 C 0.52288 0.99011 0.06749 0.0
C354 C 0.51586 0.96392 0.0603 0.0
C355 C 0.49385 0.97476 0.05268 0.0
C356 C 0.5331 0.92591 0.06019 0.0
C357 C 0.54569 0.9796 0.07592 0.0
C358 C 0.57216 0.92219 0.05933 0.0
C359 C 0.58841 0.88673 0.0582 0.0
C360 C 0.56594 0.85418 0.05791 0.0
C361 C 0.52686 0.85778 0.05906 0.0
C362 C 0.51054 0.89344 0.06011 0.0
H363 H 0.54045 0.99911 0.08181 0.0
H364 H 0.53924 0.95044 0.07819 0.0
H365 H 0.57603 0.98099 0.07416 0.0
H366 H 0.59003 0.94688 0.05921 0.0
H367 H 0.61862 0.88494 0.05734 0.0
H368 H 0.16593 0.47632 0.91676 0.0
H369 H 0.10281 0.5023 0.91407 0.0
H370 H 0.05656 0.42216 0.9335 0.0
H371 H 0.11862 0.39512 0.93578 0.0
H372 H 0.01192 0.42757 0.91941 0.0
H373 H 0.04852 0.57233 0.9308 0.0
H374 H 0.07453 0.55631 0.92089 0.0
H375 H 0.08076 0.53356 0.93196 0.0
C376 C 0.14218 0.46434 0.92042 0.0
C377 C 0.14722 0.43384 0.9265 0.0
C378 C 0.10615 0.4793 0.91893 0.0
C379 C 0.07485 0.46468 0.92371 0.0
C380 C 0.08007 0.43397 0.9297 0.0
H381 H 0.87508 0.57336 0.94125 0.0
H382 H 0.93677 0.5457 0.9385 0.0
C383 C 0.1157 0.41859 0.93103 0.0
C384 C 0.03655 0.48123 0.92276 0.0
H385 H 0.98611 0.56167 0.92628 0.0
C386 C 0.00625 0.45696 0.92089 0.0
C387 C 0.02909 0.51956 0.9247 0.0
C388 C 0.05984 0.54692 0.92728 0.0
C389 C 0.96877 0.46935 0.92138 0.0
C390 C 0.96131 0.50761 0.92341 0.0
C391 C 0.99172 0.53231 0.92476 0.0
C392 C 0.92258 0.52221 0.92507 0.0
C393 C 0.93774 0.44074 0.92025 0.0
C394 C 0.89349 0.51775 0.91853 0.0
C395 C 0.85757 0.53255 0.92027 0.0
C396 C 0.8507 0.5531 0.92842 0.0
C397 C 0.87973 0.55762 0.9349 0.0
C398 C 0.91507 0.54199 0.93331 0.0
H399 H 0.94816 0.41153 0.92122 0.0
H400 H 0.91466 0.44577 0.92529 0.0
H401 H 0.92606 0.44283 0.91313 0.0
H402 H 0.89867 0.50359 0.91201 0.0
H403 H 0.8357 0.52929 0.9151 0.0
H404 H 0.49779 0.33395 0.17618 0.0
H405 H 0.52494 0.39732 0.17463 0.0
H406 H 0.41344 0.44488 0.17391 0.0
H407 H 0.38639 0.38228 0.17571 0.0
H408 H 0.518 0.45516 0.16169 0.0
H409 H 0.45993 0.49957 0.1957 0.0
H410 H 0.46027 0.4511 0.19199 0.0
H411 H 0.42461 0.48284 0.18784 0.0
C412 C 0.47917 0.35795 0.17561 0.0
C413 C 0.44002 0.35324 0.17621 0.0
C414 C 0.49466 0.3941 0.17473 0.0
C415 C 0.47121 0.42593 0.1744 0.0
C416 C 0.43211 0.4209 0.17443 0.0
H417 H 0.50998 0.66884 0.17487 0.0
H418 H 0.48199 0.60622 0.17269 0.0
C419 C 0.4167 0.38503 0.17542 0.0
C420 C 0.48728 0.46454 0.17436 0.0
H421 H 0.48694 0.54746 0.18638 0.0
C422 C 0.51132 0.47531 0.1671 0.0
C423 C 0.47859 0.49084 0.18144 0.0
C424 C 0.45475 0.48046 0.18973 0.0
C425 C 0.52644 0.51185 0.16665 0.0
C426 C 0.51747 0.53812 0.17369 0.0
C427 C 0.49338 0.52739 0.18093 0.0
C428 C 0.53461 0.57615 0.17406 0.0
C429 C 0.55161 0.52222 0.15862 0.0
C430 C 0.57336 0.57993 0.17553 0.0
C431 C 0.58927 0.61545 0.17684 0.0
C432 C 0.56676 0.64801 0.1767 0.0
C433 C 0.52804 0.64431 0.17498 0.0
C434 C 0.51205 0.6086 0.17374 0.0
H435 H 0.54799 0.50267 0.15267 0.0
H436 H 0.54591 0.55138 0.15623 0.0
H437 H 0.58137 0.52076 0.1609 0.0
H438 H 0.59118 0.55528 0.17597 0.0
H439 H 0.6192 0.61729 0.17814 0.0
H440 H 0.33235 0.00224 0.42853 0.0
H441 H 0.3957 0.97506 0.42714 0.0
H442 H 0.44105 0.08553 0.42179 0.0
H443 H 0.37847 0.11279 0.42353 0.0
H444 H 0.4501 0.97364 0.41367 0.0
H445 H 0.50177 0.05439 0.44402 0.0
H446 H 0.45261 0.05193 0.44104 0.0
H447 H 0.48338 0.08388 0.435 0.0
C448 C 0.35585 0.02057 0.42697 0.0
C449 C 0.35064 0.05965 0.42628 0.0
C450 C 0.392 0.00508 0.42619 0.0
C451 C 0.42332 0.02842 0.42463 0.0
C452 C 0.41759 0.06711 0.42332 0.0
H453 H 0.6663 0.98873 0.42413 0.0
H454 H 0.60358 0.01614 0.4218 0.0
C455 C 0.38174 0.08262 0.42425 0.0
C456 C 0.4621 0.01275 0.42469 0.0
H457 H 0.54747 0.02089 0.43539 0.0
C458 C 0.47137 0.98391 0.41843 0.0
C459 C 0.48991 0.02613 0.43091 0.0
C460 C 0.48138 0.05551 0.43818 0.0
C461 C 0.50775 0.96843 0.41815 0.0
C462 C 0.53548 0.9819 0.42437 0.0
C463 C 0.5263 0.01089 0.43057 0.0
C464 C 0.57349 0.96479 0.425 0.0
C465 C 0.51628 0.93803 0.41116 0.0
C466 C 0.57736 0.92698 0.4276 0.0
C467 C 0.61297 0.91137 0.42894 0.0
C468 C 0.64558 0.93331 0.42778 0.0
C469 C 0.64175 0.9711 0.42506 0.0
C470 C 0.60597 0.98676 0.42373 0.0
H471 H 0.49622 0.93869 0.40525 0.0
H472 H 0.54532 0.94081 0.40841 0.0
H473 H 0.51376 0.91014 0.41457 0.0
H474 H 0.55277 0.90972 0.42884 0.0
H475 H 0.61484 0.8822 0.43107 0.0
H476 H 0.00613 0.16851 0.67724 0.0
H477 H 0.97959 0.10489 0.67579 0.0
H478 H 0.09152 0.05878 0.67401 0.0
H479 H 0.11802 0.12168 0.67575 0.0
H480 H 0.98515 0.04796 0.66272 0.0
H481 H 0.04908 0.00231 0.69598 0.0
H482 H 0.04786 0.05094 0.69242 0.0
H483 H 0.08289 0.01959 0.68779 0.0
C484 C 0.02497 0.14478 0.67647 0.0
C485 C 0.06411 0.14996 0.67676 0.0
C486 C 0.00983 0.10848 0.67564 0.0
C487 C 0.03362 0.07696 0.67504 0.0
C488 C 0.07264 0.08249 0.67476 0.0
H489 H 0.99362 0.83382 0.67566 0.0
H490 H 0.02212 0.89614 0.67333 0.0
C491 C 0.08773 0.11852 0.6757 0.0
C492 C 0.01795 0.03819 0.67504 0.0
H493 H 0.02022 0.9549 0.68691 0.0
C494 C 0.99275 0.02763 0.66801 0.0
C495 C 0.02787 0.01164 0.68197 0.0
C496 C 0.05311 0.02173 0.69002 0.0
C497 C 0.97752 0.99113 0.66767 0.0
C498 C 0.98754 0.96467 0.67458 0.0
C499 C 0.01293 0.97512 0.68156 0.0
C500 C 0.97007 0.92683 0.67512 0.0
C501 C 0.95104 0.98106 0.65988 0.0
C502 C 0.93149 0.9235 0.67691 0.0
C503 C 0.91529 0.88817 0.6783 0.0
C504 C 0.93735 0.85533 0.67794 0.0
C505 C 0.9759 0.85858 0.67595 0.0
C506 C 0.99219 0.89411 0.67463 0.0
H507 H 0.95412 1.00048 0.65388 0.0
H508 H 0.95589 0.95178 0.65747 0.0
H509 H 0.92165 0.98309 0.66242 0.0
H510 H 0.91403 0.94836 0.67751 0.0
H511 H 0.8855 0.88669 0.67981 0.0
H512 H 0.60285 0.8784 0.29538 0.0
H513 H 0.54609 0.91642 0.29605 0.0
H514 H 0.6107 0.01133 0.30564 0.0
H515 H 0.66833 0.97331 0.30498 0.0
H516 H 0.51676 0.95411 0.31234 0.0
H517 H 0.54815 0.05175 0.28311 0.0
H518 H 0.57215 0.00732 0.28452 0.0
H519 H 0.58388 0.04637 0.29185 0.0
C520 C 0.60531 0.90739 0.29761 0.0
C521 C 0.64039 0.92272 0.30014 0.0
C522 C 0.57267 0.92906 0.298 0.0
C523 C 0.57419 0.96667 0.30085 0.0
C524 C 0.60902 0.98239 0.30332 0.0
H525 H 0.39939 0.13664 0.30346 0.0
H526 H 0.45821 0.10164 0.3041 0.0
C527 C 0.6419 0.96061 0.30296 0.0
C528 C 0.53891 0.98881 0.30138 0.0
H529 H 0.49123 0.06101 0.29112 0.0
C530 C 0.51114 0.97761 0.30773 0.0
C531 C 0.53176 0.01937 0.29536 0.0
C532 C 0.56035 0.03194 0.28826 0.0
C533 C 0.47643 0.99635 0.30829 0.0
C534 C 0.46888 0.02648 0.30213 0.0
C535 C 0.49689 0.03785 0.29582 0.0
C536 C 0.43244 0.04706 0.30215 0.0
C537 C 0.44858 0.9841 0.31559 0.0
C538 C 0.3981 0.0281 0.30086 0.0
C539 C 0.36413 0.0481 0.30062 0.0
C540 C 0.36399 0.08751 0.30147 0.0
C541 C 0.39843 0.10632 0.30274 0.0
C542 C 0.43218 0.08633 0.3031 0.0
H543 H 0.46266 0.96909 0.3214 0.0
H544 H 0.43298 0.00851 0.31848 0.0
H545 H 0.42801 0.96445 0.31244 0.0
H546 H 0.39759 0.99792 0.29986 0.0
H547 H 0.33815 0.03284 0.29954 0.0
H548 H 0.89567 0.88321 0.53541 0.0
H549 H 0.93121 0.9419 0.53492 0.0
H550 H 0.99415 0.90696 0.55904 0.0
H551 H 0.95966 0.84723 0.55928 0.0
H552 H 0.9322 0.99623 0.54694 0.0
H553 H 0.07793 0.94364 0.54315 0.0
H554 H 0.0376 0.9134 0.54182 0.0
H555 H 0.05497 0.92488 0.55322 0.0
C556 C 0.91756 0.88776 0.54051 0.0
C557 C 0.92502 0.86058 0.54736 0.0
C558 C 0.93777 0.92141 0.54025 0.0
C559 C 0.96564 0.92892 0.54689 0.0
C560 C 0.9735 0.90155 0.55369 0.0
H561 H 0.04405 0.15865 0.55819 0.0
H562 H 0.0093 0.09909 0.55836 0.0
C563 C 0.95371 0.86744 0.55384 0.0
C564 C 0.98483 0.96618 0.54692 0.0
H565 H 0.07096 0.00856 0.54674 0.0
C566 C 0.96257 0.99889 0.54684 0.0
C567 C 0.02445 0.96981 0.54669 0.0
C568 C 0.05012 0.93607 0.54613 0.0
C569 C 0.9787 0.03496 0.54652 0.0
C570 C 0.01832 0.03861 0.54662 0.0
C571 C 0.04058 0.00589 0.54673 0.0
C572 C 0.03754 0.07584 0.54632 0.0
C573 C 0.953 0.06863 0.54578 0.0
C574 C 0.06533 0.0826 0.53959 0.0
C575 C 0.08572 0.11616 0.53963 0.0
C576 C 0.0785 0.14401 0.54633 0.0
C577 C 0.04983 0.13791 0.55287 0.0
C578 C 0.02988 0.10389 0.55295 0.0
H579 H 0.92512 0.06074 0.5429 0.0
H580 H 0.9483 0.08053 0.5528 0.0
H581 H 0.9654 0.09085 0.54131 0.0
H582 H 0.07174 0.06157 0.53438 0.0
H583 H 0.10757 0.12012 0.53448 0.0
H584 H 0.16533 0.4739 0.80105 0.0
H585 H 0.10648 0.51026 0.80123 0.0
H586 H 0.04291 0.40793 0.79796 0.0
H587 H 0.10083 0.37158 0.79773 0.0
H588 H 0.04574 0.50776 0.78642 0.0
H589 H 0.99767 0.46278 0.82145 0.0
H590 H 0.04641 0.46084 0.81793 0.0
H591 H 0.01382 0.42606 0.81384 0.0
C592 C 0.13883 0.45915 0.80039 0.0
C593 C 0.13798 0.41976 0.7994 0.0
C594 C 0.10527 0.47996 0.80048 0.0
C595 C 0.07039 0.46166 0.79972 0.0
C596 C 0.0695 0.42252 0.79868 0.0
H597 H 0.83438 0.5307 0.80108 0.0
H598 H 0.8932 0.49442 0.80073 0.0
C599 C 0.10281 0.40182 0.79851 0.0
C600 C 0.03467 0.48315 0.79979 0.0
H601 H 0.95414 0.49673 0.81228 0.0
C602 C 0.02579 0.50563 0.7921 0.0
C603 C 0.0085 0.47975 0.80713 0.0
C604 C 0.017 0.45628 0.81561 0.0
C605 C 0.99114 0.52448 0.79149 0.0
C606 C 0.96507 0.52154 0.79891 0.0
C607 C 0.974 0.49891 0.80659 0.0
C608 C 0.9292 0.54307 0.79901 0.0
C609 C 0.98247 0.54657 0.7828 0.0
C610 C 0.92989 0.58238 0.79832 0.0
C611 C 0.89655 0.60301 0.79845 0.0
C612 C 0.86148 0.58495 0.79942 0.0
C613 C 0.86079 0.54552 0.80029 0.0
C614 C 0.89438 0.52477 0.80009 0.0
H615 H 0.99904 0.5362 0.77678 0.0
H616 H 0.95213 0.54503 0.78103 0.0
H617 H 0.99002 0.57652 0.78392 0.0
H618 H 0.95636 0.59728 0.79777 0.0
H619 H 0.89845 0.63334 0.79789 0.0
H620 H 0.62989 0.60661 0.04218 0.0
H621 H 0.59346 0.54879 0.04186 0.0
H622 H 0.49825 0.60709 0.05351 0.0
H623 H 0.53488 0.66568 0.05399 0.0
H624 H 0.51499 0.53733 0.06226 0.0
H625 H 0.50815 0.52183 0.02399 0.0
H626 H 0.55497 0.52849 0.02833 0.0
H627 H 0.52087 0.56553 0.02955 0.0
C628 C 0.60114 0.60748 0.04464 0.0
C629 C 0.58536 0.64105 0.0481 0.0
C630 C 0.58027 0.57426 0.0444 0.0
C631 C 0.543 0.57369 0.04754 0.0
C632 C 0.52697 0.607 0.05101 0.0
H633 H 0.38221 0.39473 0.03944 0.0
H634 H 0.41792 0.45316 0.0395 0.0
C635 C 0.54789 0.64047 0.05125 0.0
C636 C 0.52146 0.5379 0.0474 0.0
H637 H 0.49052 0.4683 0.03294 0.0
C638 C 0.50944 0.5223 0.05585 0.0
C639 C 0.5141 0.51844 0.03902 0.0
C640 C 0.52486 0.53454 0.0297 0.0
C641 C 0.49081 0.48742 0.05616 0.0
C642 C 0.48449 0.46744 0.04781 0.0
C643 C 0.49593 0.48338 0.03935 0.0
C644 C 0.46397 0.43106 0.04763 0.0
C645 C 0.47746 0.47249 0.0654 0.0
C646 C 0.47841 0.3988 0.05202 0.0
C647 C 0.45801 0.365 0.05198 0.0
C648 C 0.42277 0.36301 0.04758 0.0
C649 C 0.40905 0.39521 0.04298 0.0
C650 C 0.42946 0.42873 0.04299 0.0
H651 H 0.47749 0.49463 0.07084 0.0
H652 H 0.44861 0.46079 0.0648 0.0
H653 H 0.4964 0.44948 0.06768 0.0
H654 H 0.50535 0.39984 0.05551 0.0
H655 H 0.46943 0.34077 0.05557 0.0
H656 H 0.40093 0.37179 0.93395 0.0
H657 H 0.45762 0.40985 0.9341 0.0
H658 H 0.39062 0.51092 0.93339 0.0
H659 H 0.33304 0.47267 0.93303 0.0
H660 H 0.45077 0.51396 0.92142 0.0
H661 H 0.4995 0.46665 0.95599 0.0
H662 H 0.49089 0.42792 0.94831 0.0
H663 H 0.4525 0.45771 0.95184 0.0
C664 C 0.39798 0.40212 0.93387 0.0
C665 C 0.36225 0.41915 0.93357 0.0
C666 C 0.43059 0.42387 0.93401 0.0
C667 C 0.42843 0.46324 0.934 0.0
C668 C 0.39292 0.48053 0.9335 0.0
H669 H 0.60207 0.63507 0.93592 0.0
H670 H 0.54291 0.60059 0.93569 0.0
C671 C 0.36006 0.45866 0.93328 0.0
C672 C 0.46351 0.48592 0.9343 0.0
H673 H 0.54512 0.49778 0.94648 0.0
C674 C 0.47122 0.51073 0.92695 0.0
C675 C 0.49023 0.48171 0.94152 0.0
C676 C 0.48272 0.45735 0.94991 0.0
C677 C 0.50539 0.53052 0.92649 0.0
C678 C 0.53241 0.5255 0.93358 0.0
C679 C 0.52453 0.50116 0.94099 0.0
C680 C 0.56861 0.54616 0.93358 0.0
C681 C 0.51273 0.55606 0.91832 0.0
C682 C 0.60285 0.52684 0.93263 0.0
C683 C 0.63701 0.54651 0.93275 0.0
C684 C 0.63749 0.58581 0.93393 0.0
C685 C 0.60297 0.60486 0.93497 0.0
C686 C 0.56898 0.58525 0.9348 0.0
H687 H 0.49284 0.55077 0.91252 0.0
H688 H 0.50944 0.58577 0.92054 0.0
H689 H 0.54191 0.55241 0.91573 0.0
H690 H 0.60309 0.49657 0.93175 0.0
H691 H 0.66298 0.53091 0.93197 0.0
H692 H 0.63244 0.90012 0.18721 0.0
H693 H 0.59525 0.95755 0.18693 0.0
H694 H 0.4947 0.89264 0.18225 0.0
H695 H 0.53188 0.83436 0.18249 0.0
H696 H 0.54666 0.98273 0.17165 0.0
H697 H 0.47177 0.96274 0.20524 0.0
H698 H 0.51476 0.93811 0.20247 0.0
H699 H 0.47132 0.92394 0.19721 0.0
C700 C 0.60239 0.89774 0.18615 0.0
C701 C 0.58519 0.86237 0.18489 0.0
C702 C 0.58121 0.93077 0.18598 0.0
C703 C 0.54228 0.92934 0.18463 0.0
C704 C 0.52476 0.89426 0.18339 0.0
H705 H 0.37067 0.10121 0.18442 0.0
H706 H 0.40693 0.04326 0.18432 0.0
C707 C 0.54604 0.86101 0.1835 0.0
C708 C 0.52046 0.96488 0.18438 0.0
H709 H 0.4566 0.01683 0.19656 0.0
C710 C 0.52688 0.99025 0.17708 0.0
C711 C 0.49485 0.97454 0.19149 0.0
C712 C 0.48776 0.94864 0.1996 0.0
C713 C 0.50787 0.02488 0.17661 0.0
C714 C 0.48251 0.03482 0.18378 0.0
C715 C 0.47614 0.00932 0.19108 0.0
C716 C 0.4611 0.07079 0.18369 0.0
C717 C 0.51443 0.04996 0.16831 0.0
C718 C 0.47943 0.10586 0.18342 0.0
C719 C 0.45862 0.13942 0.18339 0.0
C720 C 0.41912 0.13846 0.18378 0.0
C721 C 0.40104 0.10322 0.18415 0.0
C722 C 0.42175 0.06989 0.18409 0.0
H723 H 0.52626 0.03404 0.16235 0.0
H724 H 0.48792 0.0637 0.16605 0.0
H725 H 0.53485 0.07227 0.1702 0.0
H726 H 0.50983 0.10733 0.18333 0.0
H727 H 0.47345 0.16601 0.18318 0.0
H728 H 0.89681 0.87322 0.44094 0.0
H729 H 0.95399 0.91066 0.44064 0.0
H730 H 0.89104 0.00683 0.43112 0.0
H731 H 0.83297 0.96937 0.43139 0.0
H732 H 0.98417 0.94875 0.42442 0.0
H733 H 0.95385 0.04527 0.45391 0.0
H734 H 0.92945 1.00112 0.45239 0.0
H735 H 0.91802 0.04062 0.44517 0.0
C736 C 0.89477 0.90238 0.43882 0.0
C737 C 0.86004 0.91819 0.43617 0.0
C738 C 0.92767 0.92372 0.43864 0.0
C739 C 0.92676 0.96149 0.4359 0.0
C740 C 0.89224 0.97775 0.43336 0.0
H741 H 0.10017 0.13151 0.43257 0.0
H742 H 0.04195 0.09568 0.43268 0.0
C743 C 0.85911 0.95629 0.43349 0.0
C744 C 0.96239 0.98315 0.43547 0.0
H745 H 0.01069 0.05465 0.44584 0.0
C746 C 0.99003 0.97198 0.42908 0.0
C747 C 0.96987 0.01333 0.44157 0.0
C748 C 0.94144 0.02582 0.44871 0.0
C749 C 0.02484 0.99057 0.42852 0.0
C750 C 0.03265 0.02048 0.43472 0.0
C751 C 0.00485 0.03164 0.44111 0.0
C752 C 0.06882 0.04158 0.43451 0.0
C753 C 0.05242 0.97855 0.42113 0.0
C754 C 0.10364 0.0232 0.43554 0.0
C755 C 0.13735 0.04372 0.43535 0.0
C756 C 0.13676 0.08306 0.43433 0.0
C757 C 0.1018 0.10127 0.43342 0.0
C758 C 0.06834 0.0808 0.43348 0.0
H759 H 0.03824 0.96325 0.41539 0.0
H760 H 0.0675 0.00313 0.41817 0.0
H761 H 0.07346 0.95926 0.42424 0.0
H762 H 0.10476 0.99306 0.43659 0.0
H763 H 0.16374 0.02888 0.43617 0.0
H764 H 0.02899 0.33736 0.68221 0.0
H765 H 0.99217 0.39597 0.68226 0.0
H766 H 0.09332 0.45987 0.68696 0.0
H767 H 0.1301 0.40223 0.68697 0.0
H768 H 0.99163 0.45476 0.69748 0.0
H769 H 0.04229 0.50791 0.66338 0.0
H770 H 0.04427 0.45873 0.66654 0.0
H771 H 0.07782 0.49125 0.67126 0.0
C772 C 0.04337 0.36388 0.68325 0.0
C773 C 0.08258 0.36491 0.68455 0.0
C774 C 0.02231 0.3973 0.68328 0.0
C775 C 0.04018 0.43222 0.68449 0.0
C776 C 0.07909 0.43327 0.68588 0.0
H777 H 0.97022 0.66811 0.68454 0.0
H778 H 0.0066 0.60931 0.68467 0.0
C779 C 0.10003 0.4001 0.68592 0.0
C780 C 0.01846 0.46783 0.68449 0.0
H781 H 0.00661 0.55008 0.67256 0.0
C782 C 0.9946 0.47551 0.692 0.0
C783 C 0.02299 0.49506 0.67742 0.0
C784 C 0.04801 0.48791 0.66914 0.0
C785 C 0.97546 0.51 0.6927 0.0
C786 C 0.97952 0.53712 0.68554 0.0
C787 C 0.00353 0.52938 0.67804 0.0
C788 C 0.95788 0.57294 0.68553 0.0
C789 C 0.95186 0.51737 0.70121 0.0
C790 C 0.91852 0.57204 0.68579 0.0
C791 C 0.89782 0.60537 0.68579 0.0
C792 C 0.9159 0.64062 0.68538 0.0
C793 C 0.9554 0.64153 0.6849 0.0
C794 C 0.9762 0.60795 0.68497 0.0
H795 H 0.9612 0.49994 0.70719 0.0
H796 H 0.95298 0.54745 0.70327 0.0
H797 H 0.92218 0.50993 0.69971 0.0
H798 H 0.90367 0.54545 0.68593 0.0
H799 H 0.86746 0.60335 0.68603 0.0
H800 H 0.21008 0.12173 0.32925 0.0
H801 H 0.20755 0.12908 0.34608 0.0
H802 H 0.27722 0.22805 0.34419 0.0
H803 H 0.28021 0.22095 0.32733 0.0
H804 H 0.30356 0.17253 0.35669 0.0
H805 H 0.15331 0.2065 0.36275 0.0
H806 H 0.16082 0.16624 0.35544 0.0
H807 H 0.17564 0.21198 0.35156 0.0
C808 C 0.22441 0.14544 0.33237 0.0
C809 C 0.24548 0.17067 0.32692 0.0
C810 C 0.22274 0.14968 0.342 0.0
C811 C 0.24197 0.17925 0.34635 0.0
C812 C 0.26207 0.20515 0.34093 0.0
H813 H 0.22511 0.22095 0.40588 0.0
H814 H 0.22752 0.22927 0.38905 0.0
C815 C 0.26363 0.20106 0.3313 0.0
C816 C 0.24363 0.18117 0.35658 0.0
H817 H 0.18891 0.18716 0.37597 0.0
C818 C 0.27859 0.17616 0.36092 0.0
C819 C 0.21105 0.18623 0.36205 0.0
C820 C 0.1731 0.1934 0.35773 0.0
C821 C 0.28166 0.17477 0.37062 0.0
C822 C 0.24879 0.178 0.37608 0.0
C823 C 0.21402 0.18437 0.37175 0.0
C824 C 0.24963 0.1737 0.38629 0.0
C825 C 0.32 0.16974 0.37492 0.0
C826 C 0.26133 0.13968 0.3903 0.0
C827 C 0.26013 0.13481 0.39991 0.0
C828 C 0.24682 0.16378 0.4057 0.0
C829 C 0.23551 0.19802 0.40165 0.0
C830 C 0.23682 0.20285 0.39203 0.0
H831 H 0.34274 0.17856 0.37009 0.0
H832 H 0.32259 0.18612 0.38145 0.0
H833 H 0.32433 0.13956 0.37658 0.0
H834 H 0.27059 0.11655 0.38597 0.0
H835 H 0.26888 0.10801 0.40277 0.0
H836 H 0.8696 0.70939 0.57984 0.0
H837 H 0.86184 0.70599 0.59666 0.0
H838 H 0.79709 0.80869 0.59614 0.0
H839 H 0.80337 0.81132 0.57924 0.0
H840 H 0.88768 0.75294 0.60887 0.0
H841 H 0.73306 0.7466 0.61297 0.0
H842 H 0.75585 0.7402 0.60189 0.0
H843 H 0.74772 0.7868 0.60637 0.0
C844 C 0.85326 0.73097 0.5833 0.0
C845 C 0.83707 0.76062 0.57824 0.0
C846 C 0.84882 0.72899 0.59291 0.0
C847 C 0.8285 0.75684 0.59766 0.0
C848 C 0.81198 0.78631 0.59261 0.0
H849 H 0.87014 0.80087 0.65606 0.0
H850 H 0.86483 0.80527 0.63918 0.0
C851 C 0.81582 0.78793 0.58296 0.0
C852 C 0.82731 0.75642 0.60795 0.0
H853 H 0.76853 0.76006 0.62668 0.0
C854 C 0.86157 0.75424 0.61275 0.0
C855 C 0.79324 0.75773 0.61302 0.0
C856 C 0.75539 0.75756 0.6083 0.0
C857 C 0.8628 0.75346 0.62247 0.0
C858 C 0.82888 0.75652 0.62755 0.0
C859 C 0.79454 0.75834 0.62277 0.0
C860 C 0.82856 0.75665 0.63783 0.0
C861 C 0.90044 0.74833 0.62715 0.0
C862 C 0.80807 0.72929 0.64271 0.0
C863 C 0.81035 0.72726 0.65238 0.0
C864 C 0.83346 0.75235 0.65731 0.0
C865 C 0.8526 0.78077 0.65243 0.0
C866 C 0.84976 0.78318 0.64279 0.0
H867 H 0.92134 0.73528 0.6224 0.0
H868 H 0.91155 0.77623 0.62925 0.0
H869 H 0.89797 0.73044 0.63344 0.0
H870 H 0.79132 0.70869 0.63902 0.0
H871 H 0.79526 0.70508 0.65595 0.0
H872 H 0.22786 0.27668 0.82684 0.0
H873 H 0.23124 0.26675 0.84362 0.0
H874 H 0.27409 0.37931 0.84719 0.0
H875 H 0.27156 0.38938 0.83047 0.0
H876 H 0.31171 0.3261 0.85783 0.0
H877 H 0.1566 0.314 0.86187 0.0
H878 H 0.17774 0.28158 0.85385 0.0
H879 H 0.17823 0.3311 0.85135 0.0
C880 C 0.23821 0.29928 0.83118 0.0
C881 C 0.24911 0.33397 0.82729 0.0
C882 C 0.23993 0.29358 0.84077 0.0
C883 C 0.25226 0.32253 0.84664 0.0
C884 C 0.26433 0.35667 0.84277 0.0
H885 H 0.21918 0.37891 0.90332 0.0
H886 H 0.21767 0.37021 0.88653 0.0
C887 C 0.26279 0.36236 0.8332 0.0
C888 C 0.25189 0.31799 0.85685 0.0
H889 H 0.19307 0.30864 0.87545 0.0
C890 C 0.28586 0.3219 0.86169 0.0
C891 C 0.21799 0.31289 0.86184 0.0
C892 C 0.18047 0.30994 0.857 0.0
C893 C 0.28679 0.32167 0.87143 0.0
C894 C 0.25288 0.31678 0.87641 0.0
C895 C 0.21901 0.31206 0.87157 0.0
C896 C 0.25161 0.31971 0.88664 0.0
C897 C 0.32375 0.32829 0.8763 0.0
C898 C 0.27042 0.29359 0.89226 0.0
C899 C 0.27142 0.29846 0.90189 0.0
C900 C 0.25356 0.32956 0.90604 0.0
C901 C 0.23348 0.35479 0.90037 0.0
C902 C 0.23248 0.34985 0.89077 0.0
H903 H 0.34586 0.33852 0.87147 0.0
H904 H 0.32036 0.34916 0.88198 0.0
H905 H 0.3336 0.30152 0.87943 0.0
H906 H 0.28486 0.26982 0.88919 0.0
H907 H 0.28699 0.27837 0.90603 0.0
H908 H 0.72474 0.71946 0.07766 0.0
H909 H 0.73353 0.72192 0.09449 0.0
H910 H 0.62679 0.77812 0.09747 0.0
H911 H 0.61784 0.77637 0.0807 0.0
H912 H 0.68499 0.80956 0.10825 0.0
H913 H 0.6744 0.65432 0.11264 0.0
H914 H 0.70942 0.67053 0.10457 0.0
H915 H 0.66051 0.67789 0.10208 0.0
C916 C 0.7032 0.73256 0.08188 0.0
C917 C 0.6704 0.74742 0.07781 0.0
C918 C 0.70823 0.73376 0.0915 0.0
C919 C 0.68054 0.74967 0.09721 0.0
C920 C 0.64841 0.76557 0.09317 0.0
H921 H 0.61816 0.72482 0.15379 0.0
H922 H 0.62698 0.72254 0.13702 0.0
C923 C 0.64333 0.76444 0.08357 0.0
C924 C 0.68429 0.74911 0.10742 0.0
H925 H 0.68397 0.69026 0.12616 0.0
C926 C 0.68514 0.78352 0.11218 0.0
C927 C 0.68409 0.71501 0.11249 0.0
C928 C 0.68177 0.67728 0.10772 0.0
C929 C 0.68504 0.78481 0.12191 0.0
C930 C 0.68466 0.75072 0.12698 0.0
C931 C 0.68457 0.71629 0.12222 0.0
C932 C 0.68113 0.75023 0.13721 0.0
C933 C 0.68371 0.82261 0.12668 0.0
C934 C 0.70911 0.76582 0.14288 0.0
C935 C 0.70414 0.76734 0.1525 0.0
C936 C 0.67113 0.7531 0.1566 0.0
C937 C 0.64383 0.73626 0.15089 0.0
C938 C 0.64882 0.73484 0.14129 0.0
H939 H 0.6766 0.8457 0.12179 0.0
H940 H 0.6627 0.82246 0.13239 0.0
H941 H 0.71164 0.8288 0.12975 0.0
H942 H 0.73456 0.77723 0.13986 0.0
H943 H 0.72587 0.78026 0.15669 0.0
H944 H 0.72026 0.62188 0.8313 0.0
H945 H 0.7209 0.63028 0.84814 0.0
H946 H 0.79323 0.72683 0.84516 0.0
H947 H 0.79279 0.71892 0.82829 0.0
H948 H 0.81757 0.66557 0.8581 0.0
H949 H 0.67239 0.71821 0.86413 0.0
H950 H 0.67682 0.67885 0.85634 0.0
H951 H 0.69647 0.72353 0.85315 0.0
C952 C 0.73601 0.64517 0.83419 0.0
C953 C 0.75656 0.66967 0.82843 0.0
C954 C 0.7362 0.64998 0.84381 0.0
C955 C 0.75693 0.67927 0.84783 0.0
C956 C 0.77696 0.70416 0.84214 0.0
H957 H 0.74288 0.72434 0.90736 0.0
H958 H 0.74844 0.73346 0.89058 0.0
C959 C 0.77658 0.69959 0.8325 0.0
C960 C 0.75941 0.68233 0.85802 0.0
H961 H 0.70655 0.69789 0.87738 0.0
C962 C 0.79349 0.67307 0.86234 0.0
C963 C 0.72804 0.69252 0.86346 0.0
C964 C 0.69135 0.70416 0.85907 0.0
C965 C 0.7966 0.67225 0.87204 0.0
C966 C 0.7646 0.6805 0.87751 0.0
C967 C 0.73097 0.69135 0.87317 0.0
C968 C 0.76464 0.67595 0.88772 0.0
C969 C 0.83399 0.66225 0.87632 0.0
C970 C 0.7721 0.64064 0.89166 0.0
C971 C 0.76919 0.63535 0.90123 0.0
C972 C 0.7582 0.66519 0.90705 0.0
C973 C 0.75134 0.70074 0.90309 0.0
C974 C 0.75449 0.70603 0.89351 0.0
H975 H 0.85762 0.66862 0.87153 0.0
H976 H 0.83856 0.67765 0.88293 0.0
H977 H 0.83463 0.63162 0.87781 0.0
H978 H 0.77906 0.6168 0.8873 0.0
H979 H 0.77443 0.60752 0.90401 0.0
H980 H 0.38409 0.28393 0.15337 0.0
H981 H 0.37537 0.2868 0.13659 0.0
H982 H 0.27454 0.22016 0.13897 0.0
H983 H 0.28309 0.21673 0.1558 0.0
H984 H 0.32582 0.19322 0.12579 0.0
H985 H 0.29864 0.34554 0.12096 0.0
H986 H 0.33989 0.33592 0.12774 0.0
H987 H 0.29443 0.32249 0.13209 0.0
C988 C 0.35979 0.27019 0.15036 0.0
C989 C 0.33433 0.25002 0.15595 0.0
C990 C 0.35474 0.2721 0.14077 0.0
C991 C 0.32409 0.25407 0.13657 0.0
C992 C 0.29825 0.23445 0.14211 0.0
H993 H 0.28175 0.28103 0.07713 0.0
H994 H 0.27263 0.27697 0.09392 0.0
C995 C 0.30318 0.2326 0.15172 0.0
C996 C 0.32064 0.25357 0.12635 0.0
H997 H 0.31611 0.31082 0.10737 0.0
C998 C 0.32319 0.21886 0.12175 0.0
C999 C 0.31676 0.28702 0.12113 0.0
C1000 C 0.31189 0.32484 0.12572 0.0
C1001 C 0.3236 0.21686 0.11203 0.0
C1002 C 0.32196 0.25051 0.10681 0.0
C1003 C 0.31772 0.28508 0.1114 0.0
C1004 C 0.32641 0.25073 0.0966 0.0
C1005 C 0.32605 0.17876 0.10745 0.0
C1006 C 0.35971 0.23736 0.09256 0.0
C1007 C 0.36502 0.23952 0.08298 0.0
C1008 C 0.33725 0.25548 0.07724 0.0
C1009 C 0.30373 0.26856 0.08132 0.0
C1010 C 0.29844 0.2663 0.09092 0.0
H1011 H 0.31558 0.15613 0.11211 0.0
H1012 H 0.30968 0.17805 0.10089 0.0
H1013 H 0.35587 0.17252 0.10579 0.0
H1014 H 0.38201 0.22601 0.09685 0.0
H1015 H 0.39126 0.22932 0.0801 0.0
H1016 H 0.80005 0.86779 0.32915 0.0
H1017 H 0.80481 0.86071 0.34598 0.0
H1018 H 0.70344 0.79397 0.34607 0.0
H1019 H 0.6995 0.79953 0.3292 0.0
H1020 H 0.75841 0.88631 0.35832 0.0
H1021 H 0.76691 0.73204 0.36293 0.0
H1022 H 0.77239 0.75421 0.35174 0.0
H1023 H 0.72618 0.74536 0.35638 0.0
C1024 C 0.77915 0.85105 0.33275 0.0
C1025 C 0.74946 0.83412 0.32786 0.0
C1026 C 0.78189 0.84703 0.34236 0.0
C1027 C 0.75476 0.8264 0.3473 0.0
C1028 C 0.72534 0.80907 0.34241 0.0
H1029 H 0.70625 0.86989 0.40535 0.0
H1030 H 0.70425 0.86465 0.38844 0.0
C1031 C 0.72297 0.81248 0.33276 0.0
C1032 C 0.75558 0.8258 0.35759 0.0
H1033 H 0.75158 0.76797 0.3765 0.0
C1034 C 0.75726 0.86037 0.36228 0.0
C1035 C 0.75447 0.79198 0.36278 0.0
C1036 C 0.7553 0.75382 0.35819 0.0
C1037 C 0.75745 0.86215 0.372 0.0
C1038 C 0.75436 0.82846 0.37718 0.0
C1039 C 0.75329 0.79381 0.37251 0.0
C1040 C 0.75322 0.82866 0.38746 0.0
C1041 C 0.76182 0.90013 0.37657 0.0
C1042 C 0.78006 0.80839 0.39256 0.0
C1043 C 0.78074 0.81064 0.40224 0.0
C1044 C 0.75477 0.83347 0.40698 0.0
C1045 C 0.72699 0.85253 0.40188 0.0
C1046 C 0.72596 0.84976 0.39222 0.0
H1047 H 0.77515 0.92086 0.37182 0.0
H1048 H 0.73366 0.91113 0.37847 0.0
H1049 H 0.77909 0.89816 0.38297 0.0
H1050 H 0.80119 0.79172 0.38904 0.0
H1051 H 0.80249 0.79562 0.40598 0.0
H1052 H 0.13026 0.2047 0.65497 0.0
H1053 H 0.13686 0.19813 0.63817 0.0
H1054 H 0.2083 0.29626 0.63749 0.0
H1055 H 0.20312 0.30198 0.65436 0.0
H1056 H 0.11344 0.24454 0.62558 0.0
H1057 H 0.26695 0.22801 0.621 0.0
H1058 H 0.2446 0.22465 0.63221 0.0
H1059 H 0.25565 0.26997 0.62731 0.0
C1060 C 0.14784 0.22454 0.65125 0.0
C1061 C 0.16622 0.25384 0.65597 0.0
C1062 C 0.15161 0.22075 0.64166 0.0
C1063 C 0.17347 0.2464 0.63657 0.0
C1064 C 0.19218 0.27547 0.64128 0.0
H1065 H 0.1321 0.29401 0.57857 0.0
H1066 H 0.13779 0.29578 0.59546 0.0
C1067 C 0.18898 0.27887 0.65092 0.0
C1068 C 0.17397 0.2445 0.62628 0.0
H1069 H 0.23173 0.24372 0.60734 0.0
C1070 C 0.13936 0.244 0.6216 0.0
C1071 C 0.20774 0.24333 0.62108 0.0
C1072 C 0.2458 0.24111 0.62567 0.0
C1073 C 0.1375 0.24295 0.6119 0.0
C1074 C 0.17124 0.24391 0.60669 0.0
C1075 C 0.2059 0.24362 0.61134 0.0
C1076 C 0.17093 0.24482 0.5964 0.0
C1077 C 0.09935 0.2401 0.60735 0.0
C1078 C 0.18952 0.21681 0.59129 0.0
C1079 C 0.18702 0.2162 0.5816 0.0
C1080 C 0.16561 0.24343 0.5769 0.0
C1081 C 0.14829 0.27228 0.58202 0.0
C1082 C 0.15133 0.27322 0.59167 0.0
H1083 H 0.07813 0.22794 0.61216 0.0
H1084 H 0.08962 0.26867 0.60538 0.0
H1085 H 0.10044 0.22245 0.601 0.0
H1086 H 0.20505 0.19479 0.5948 0.0
H1087 H 0.20069 0.19363 0.57784 0.0
H1088 H 0.28207 0.08474 0.2725 0.0
H1089 H 0.30379 0.10675 0.25731 0.0
H1090 H 0.27065 0.22001 0.26442 0.0
H1091 H 0.25087 0.1984 0.27978 0.0
H1092 H 0.26825 0.13691 0.24346 0.0
H1093 H 0.3745 0.23946 0.2556 0.0
H1094 H 0.35198 0.20666 0.26336 0.0
H1095 H 0.32872 0.24977 0.26012 0.0
C1096 C 0.27972 0.11437 0.27082 0.0
C1097 C 0.26512 0.13998 0.2773 0.0
C1098 C 0.29207 0.12691 0.26216 0.0
C1099 C 0.28955 0.16518 0.25978 0.0
C1100 C 0.27406 0.1906 0.26619 0.0
H1101 H 0.30203 0.24459 0.20256 0.0
H1102 H 0.2807 0.22392 0.2179 0.0
C1103 C 0.26249 0.1782 0.27494 0.0
C1104 C 0.30223 0.17815 0.25051 0.0
H1105 H 0.35796 0.24254 0.23958 0.0
C1106 C 0.28807 0.15985 0.24262 0.0
C1107 C 0.32851 0.20774 0.24941 0.0
C1108 C 0.3471 0.22675 0.25758 0.0
C1109 C 0.29927 0.1704 0.23365 0.0
C1110 C 0.3242 0.20111 0.23254 0.0
C1111 C 0.33851 0.21928 0.24043 0.0
C1112 C 0.33675 0.21424 0.22327 0.0
C1113 C 0.28507 0.14777 0.2255 0.0
C1114 C 0.37531 0.2171 0.22132 0.0
C1115 C 0.38751 0.22984 0.21266 0.0
C1116 C 0.36134 0.23957 0.20578 0.0
C1117 C 0.32276 0.23688 0.20773 0.0
C1118 C 0.31056 0.22479 0.21646 0.0
H1119 H 0.27632 0.11904 0.22765 0.0
H1120 H 0.26012 0.16199 0.22249 0.0
H1121 H 0.30684 0.14518 0.22001 0.0
H1122 H 0.39603 0.20924 0.22648 0.0
H1123 H 0.41743 0.23158 0.21133 0.0
H1124 H 0.7505 0.90675 0.46415 0.0
H1125 H 0.77198 0.88395 0.47927 0.0
H1126 H 0.79344 0.77453 0.46747 0.0
H1127 H 0.77177 0.79703 0.45231 0.0
H1128 H 0.75325 0.77405 0.48475 0.0
H1129 H 0.883 0.8609 0.48601 0.0
H1130 H 0.84067 0.88674 0.48362 0.0
H1131 H 0.8573 0.85256 0.4754 0.0
C1132 C 0.75979 0.87783 0.46477 0.0
C1133 C 0.75961 0.85367 0.45706 0.0
C1134 C 0.77218 0.86494 0.47339 0.0
C1135 C 0.78469 0.82776 0.47442 0.0
C1136 C 0.78402 0.80338 0.46677 0.0
H1137 H 0.91033 0.74048 0.52122 0.0
H1138 H 0.88807 0.75803 0.50576 0.0
C1139 C 0.7717 0.81628 0.45813 0.0
C1140 C 0.79822 0.81429 0.48352 0.0
H1141 H 0.8661 0.82873 0.49984 0.0
C1142 C 0.778 0.78583 0.48806 0.0
C1143 C 0.83076 0.82949 0.48771 0.0
C1144 C 0.85446 0.85888 0.48292 0.0
C1145 C 0.78908 0.77263 0.49682 0.0
C1146 C 0.82088 0.78876 0.50115 0.0
C1147 C 0.84152 0.81669 0.49652 0.0
C1148 C 0.8335 0.77696 0.51048 0.0
C1149 C 0.76696 0.74127 0.5013 0.0
C1150 C 0.8102 0.78204 0.51824 0.0
C1151 C 0.82279 0.77194 0.52708 0.0
C1152 C 0.859 0.75692 0.52829 0.0
C1153 C 0.88227 0.75196 0.5205 0.0
C1154 C 0.86963 0.76196 0.51167 0.0
H1155 H 0.74987 0.72557 0.49614 0.0
H1156 H 0.7859 0.72116 0.5049 0.0
H1157 H 0.74751 0.75339 0.50653 0.0
H1158 H 0.78251 0.79432 0.51748 0.0
H1159 H 0.80435 0.77627 0.53297 0.0
H1160 H 0.2 0.27845 0.70129 0.0
H1161 H 0.22215 0.29841 0.71663 0.0
H1162 H 0.11427 0.27022 0.72843 0.0
H1163 H 0.0918 0.25073 0.71314 0.0
H1164 H 0.1403 0.3409 0.7336 0.0
H1165 H 0.24932 0.231 0.73884 0.0
H1166 H 0.25354 0.2569 0.72817 0.0
H1167 H 0.21331 0.22728 0.73006 0.0
C1168 C 0.1811 0.27637 0.70717 0.0
C1169 C 0.14422 0.26297 0.70604 0.0
C1170 C 0.19384 0.28757 0.71592 0.0
C1171 C 0.16997 0.28528 0.72366 0.0
C1172 C 0.13314 0.27203 0.72253 0.0
H1173 H 0.22613 0.30491 0.782 0.0
H1174 H 0.20591 0.28344 0.76664 0.0
C1175 C 0.12038 0.2609 0.7138 0.0
C1176 C 0.1828 0.29784 0.73291 0.0
H1177 H 0.24708 0.28026 0.74995 0.0
C1178 C 0.16362 0.32765 0.73719 0.0
C1179 C 0.2129 0.28011 0.73759 0.0
C1180 C 0.23331 0.24682 0.73349 0.0
C1181 C 0.174 0.34054 0.74602 0.0
C1182 C 0.20478 0.32353 0.75059 0.0
C1183 C 0.22369 0.29341 0.74636 0.0
C1184 C 0.21753 0.33643 0.75981 0.0
C1185 C 0.15153 0.3718 0.75044 0.0
C1186 C 0.23117 0.37313 0.761 0.0
C1187 C 0.2426 0.38548 0.76975 0.0
C1188 C 0.24082 0.3612 0.77744 0.0
C1189 C 0.22772 0.32425 0.7762 0.0
C1190 C 0.21623 0.31193 0.76745 0.0
H1191 H 0.12353 0.37511 0.74712 0.0
H1192 H 0.14744 0.36656 0.75797 0.0
H1193 H 0.16699 0.39873 0.74963 0.0
H1194 H 0.23302 0.3922 0.75515 0.0
H1195 H 0.25279 0.41404 0.77048 0.0
H1196 H 0.74414 0.58547 0.96379 0.0
H1197 H 0.72469 0.60951 0.97897 0.0
H1198 H 0.71177 0.72058 0.96732 0.0
H1199 H 0.73159 0.69687 0.95213 0.0
H1200 H 0.75123 0.71884 0.98433 0.0
H1201 H 0.61675 0.63981 0.98614 0.0
H1202 H 0.6573 0.61111 0.98387 0.0
H1203 H 0.64281 0.6456 0.97547 0.0
C1204 C 0.73708 0.61499 0.96446 0.0
C1205 C 0.7392 0.63929 0.95678 0.0
C1206 C 0.72585 0.62862 0.97312 0.0
C1207 C 0.71636 0.66666 0.97421 0.0
C1208 C 0.71886 0.69108 0.96658 0.0
H1209 H 0.59576 0.7624 0.02069 0.0
H1210 H 0.61733 0.74259 0.00534 0.0
C1211 C 0.7301 0.67749 0.95792 0.0
C1212 C 0.70409 0.68105 0.98333 0.0
H1213 H 0.63602 0.67141 -0.00016 0.0
C1214 C 0.72599 0.70862 0.98773 0.0
C1215 C 0.6709 0.66793 0.98765 0.0
C1216 C 0.64533 0.63973 0.98302 0.0
C1217 C 0.71586 0.72306 -0.00356 0.0
C1218 C 0.68332 0.70902 0.0009 0.0
C1219 C 0.66114 0.68186 -0.00357 0.0
C1220 C 0.67133 0.72241 0.01015 0.0
C1221 C 0.7397 0.75359 0.00071 0.0
C1222 C 0.69455 0.71752 0.01793 0.0
C1223 C 0.68239 0.72902 0.0267 0.0
C1224 C 0.64663 0.74518 0.02783 0.0
C1225 C 0.62346 0.75002 0.02003 0.0
C1226 C 0.63571 0.73872 0.01126 0.0
H1227 H 0.75728 0.76807 -0.00458 0.0
H1228 H 0.72197 0.77487 0.00427 0.0
H1229 H 0.75881 0.74089 0.00593 0.0
H1230 H 0.72181 0.70423 0.01724 0.0
H1231 H 0.70073 0.72473 0.03261 0.0
H1232 H 0.30282 0.27342 0.03195 0.0
H1233 H 0.28033 0.29394 0.01669 0.0
H1234 H 0.39001 0.27281 0.00504 0.0
H1235 H 0.41279 0.2525 0.02025 0.0
H1236 H 0.3586 0.34406 0.00048 0.0
H1237 H 0.25975 0.22591 -0.00616 0.0
H1238 H 0.2539 0.24953 0.00478 0.0
H1239 H 0.29623 0.22354 0.00253 0.0
C1240 C 0.32208 0.273 0.02613 0.0
C1241 C 0.35951 0.26126 0.02727 0.0
C1242 C 0.30915 0.28456 0.01742 0.0
C1243 C 0.33344 0.28443 0.00975 0.0
C1244 C 0.37085 0.27291 0.01089 0.0
H1245 H 0.2813 0.30414 0.95136 0.0
H1246 H 0.30151 0.28374 0.9668 0.0
C1247 C 0.38377 0.26128 0.01957 0.0
C1248 C 0.32027 0.2972 0.00056 0.0
H1249 H 0.25957 0.276 0.98299 0.0
C1250 C 0.33695 0.32924 -0.00336 0.0
C1251 C 0.29232 0.27747 -0.00443 0.0
C1252 C 0.27464 0.242 -0.00067 0.0
C1253 C 0.32627 0.34229 0.98785 0.0
C1254 C 0.29776 0.32302 0.98293 0.0
C1255 C 0.28124 0.29081 0.98683 0.0
C1256 C 0.28518 0.33543 0.97364 0.0
C1257 C 0.34613 0.37611 0.98382 0.0
C1258 C 0.26893 0.37105 0.97243 0.0
C1259 C 0.25761 0.38285 0.96362 0.0
C1260 C 0.26198 0.35902 0.95591 0.0
C1261 C 0.27767 0.32311 0.95717 0.0
C1262 C 0.28916 0.31141 0.96598 0.0
H1263 H 0.37336 0.38156 0.98735 0.0
H1264 H 0.35146 0.37234 0.97628 0.0
H1265 H 0.32815 0.40136 0.98473 0.0
H1266 H 0.2649 0.38967 0.97829 0.0
H1267 H 0.24531 0.41056 0.96286 0.0
H1268 H 0.74851 0.91439 0.27111 0.0
H1269 H 0.72848 0.89232 0.2558 0.0
H1270 H 0.70701 0.78203 0.26713 0.0
H1271 H 0.72732 0.80377 0.28246 0.0
H1272 H 0.74849 0.78203 0.25031 0.0
H1273 H 0.61919 0.86921 0.24802 0.0
H1274 H 0.66132 0.89502 0.25062 0.0
H1275 H 0.6437 0.86117 0.25881 0.0
C1276 C 0.73944 0.88547 0.27035 0.0
C1277 C 0.73933 0.86081 0.27797 0.0
C1278 C 0.72787 0.87298 0.26161 0.0
C1279 C 0.71587 0.83572 0.26039 0.0
C1280 C 0.71607 0.81094 0.26797 0.0
H1281 H 0.59369 0.74513 0.21362 0.0
H1282 H 0.61518 0.76519 0.22895 0.0
C1283 C 0.7276 0.82341 0.27671 0.0
C1284 C 0.70353 0.82244 0.25117 0.0
H1285 H 0.63723 0.83623 0.23442 0.0
C1286 C 0.72413 0.79376 0.24682 0.0
C1287 C 0.6715 0.83759 0.24673 0.0
C1288 C 0.64738 0.86722 0.2513 0.0
C1289 C 0.71379 0.7801 0.23806 0.0
C1290 C 0.68237 0.796 0.2335 0.0
C1291 C 0.66151 0.82436 0.23791 0.0
C1292 C 0.67009 0.78314 0.22423 0.0
C1293 C 0.73615 0.74834 0.23383 0.0
C1294 C 0.69381 0.78683 0.21649 0.0
C1295 C 0.68167 0.77522 0.20772 0.0
C1296 C 0.64549 0.76009 0.20656 0.0
C1297 C 0.62174 0.75665 0.21431 0.0
C1298 C 0.63394 0.76812 0.22307 0.0
H1299 H 0.75294 0.73308 0.23913 0.0
H1300 H 0.71741 0.72792 0.23028 0.0
H1301 H 0.7559 0.75998 0.2286 0.0
H1302 H 0.72153 0.79909 0.21722 0.0
H1303 H 0.70047 0.77843 0.20186 0.0
H1304 H 0.2473 0.09112 0.46291 0.0
H1305 H 0.22743 0.11558 0.47801 0.0
H1306 H 0.21279 0.22587 0.46605 0.0
H1307 H 0.23273 0.20166 0.45089 0.0
H1308 H 0.25318 0.22317 0.48363 0.0
H1309 H 0.11701 0.14658 0.48424 0.0
H1310 H 0.15751 0.11797 0.4818 0.0
H1311 H 0.14364 0.15385 0.47372 0.0
C1312 C 0.23989 0.12059 0.46349 0.0
C1313 C 0.24137 0.14448 0.45573 0.0
C1314 C 0.22845 0.13445 0.47211 0.0
C1315 C 0.21829 0.17236 0.47308 0.0
C1316 C 0.22041 0.19647 0.46539 0.0
H1317 H 0.09546 0.26616 0.51959 0.0
H1318 H 0.11773 0.248 0.50417 0.0
C1319 C 0.23171 0.18259 0.45676 0.0
C1320 C 0.20525 0.18671 0.48214 0.0
H1321 H 0.1352 0.17729 0.49814 0.0
C1322 C 0.22733 0.21333 0.48681 0.0
C1323 C 0.17129 0.17407 0.48616 0.0
C1324 C 0.14573 0.14678 0.48121 0.0
C1325 C 0.21666 0.22716 0.49555 0.0
C1326 C 0.18332 0.21352 0.49973 0.0
C1327 C 0.1609 0.18745 0.49495 0.0
C1328 C 0.17092 0.22597 0.50903 0.0
C1329 C 0.24088 0.25655 0.50017 0.0
C1330 C 0.19341 0.21942 0.51687 0.0
C1331 C 0.18085 0.22996 0.52569 0.0
C1332 C 0.14539 0.24678 0.5268 0.0
C1333 C 0.12291 0.25323 0.51894 0.0
C1334 C 0.13558 0.24289 0.51014 0.0
H1335 H 0.25919 0.27125 0.49508 0.0
H1336 H 0.2234 0.27778 0.50382 0.0
H1337 H 0.2593 0.24271 0.50536 0.0
H1338 H 0.22041 0.2056 0.51619 0.0
H1339 H 0.19865 0.22443 0.53163 0.0
H1340 H 0.90799 0.75414 0.71451 0.0
H1341 H 0.88511 0.73333 0.72967 0.0
H1342 H 0.77757 0.70609 0.7176 0.0
H1343 H 0.80007 0.72739 0.7024 0.0
H1344 H 0.77262 0.7463 0.73432 0.0
H1345 H 0.86831 0.6235 0.73741 0.0
H1346 H 0.89185 0.66724 0.73513 0.0
H1347 H 0.86063 0.64783 0.72657 0.0
C1348 C 0.87948 0.74368 0.71508 0.0
C1349 C 0.85584 0.7422 0.70728 0.0
C1350 C 0.86654 0.73165 0.72373 0.0
C1351 C 0.82989 0.71766 0.7247 0.0
C1352 C 0.80603 0.71665 0.71695 0.0
H1353 H 0.74408 0.59166 0.7716 0.0
H1354 H 0.76284 0.61348 0.75618 0.0
C1355 C 0.81893 0.72876 0.70829 0.0
C1356 C 0.81635 0.70443 0.73383 0.0
H1357 H 0.8334 0.64001 0.75087 0.0
C1358 C 0.78576 0.72297 0.73794 0.0
C1359 C 0.83335 0.67373 0.73845 0.0
C1360 C 0.86513 0.65164 0.73414 0.0
C1361 C 0.7721 0.712 0.74667 0.0
C1362 C 0.7899 0.6821 0.75141 0.0
C1363 C 0.82006 0.66316 0.74723 0.0
C1364 C 0.77747 0.66964 0.76071 0.0
C1365 C 0.73845 0.73213 0.75067 0.0
C1366 C 0.77974 0.694 0.76835 0.0
C1367 C 0.769 0.68164 0.77716 0.0
C1368 C 0.75607 0.64466 0.77847 0.0
C1369 C 0.75388 0.62034 0.7708 0.0
C1370 C 0.76459 0.63272 0.76199 0.0
H1371 H 0.72254 0.74766 0.74525 0.0
H1372 H 0.71914 0.71201 0.75415 0.0
H1373 H 0.74811 0.7528 0.75593 0.0
H1374 H 0.79031 0.72238 0.76751 0.0
H1375 H 0.77115 0.70093 0.78296 0.0
loop_
_geom_bond_atom_site_label_1
_geom_bond_atom_site_label_2
_geom_bond_distance
_geom_bond_site_symmetry_2
_ccdc_geom_bond_type
Co0 O1 2.216 . S
Co0 O2 2.091 . S
Co0 O4 2.004 . S
Co0 O10 2.021 . S
Co0 O12 2.137 . S
Co0 O13 2.244 . S
O1 Co0 2.216 . S
O1 C8 1.247 . S
O2 Co0 2.091 . S
O2 C8 1.261 . S
C3 O12 1.247 . S
C3 O13 1.272 . S
O4 Co0 2.004 . S
O4 C9 1.259 . S
Co5 O6 2.061 . S
Co5 O11 2.052 . S
Co5 O13 2.135 . S
O6 Co5 2.061 . S
O6 C9 1.235 . S
C7 O10 1.238 . S
C7 O11 1.241 . S
C8 O1 1.247 . S
C8 O2 1.261 . S
C9 O4 1.259 . S
C9 O6 1.235 . S
O10 Co0 2.021 . S
O10 C7 1.238 . S
O11 Co5 2.052 . S
O11 C7 1.241 . S
O12 Co0 2.137 . S
O12 C3 1.247 . S
O13 Co0 2.244 . S
O13 C3 1.272 . S
O13 Co5 2.135 . S
Co14 O15 2.216 . S
Co14 O16 2.091 . S
Co14 O18 2.004 . S
Co14 O24 2.021 . S
Co14 O26 2.137 . S
Co14 O27 2.244 . S
O15 Co14 2.216 . S
O15 C22 1.247 . S
O16 Co14 2.091 . S
O16 C22 1.261 . S
C17 O26 1.247 . S
C17 O27 1.272 . S
O18 Co14 2.004 . S
O18 C23 1.259 . S
Co19 O20 2.061 . S
Co19 O25 2.052 . S
Co19 O27 2.135 . S
O20 Co19 2.061 . S
O20 C23 1.235 . S
C21 O24 1.238 . S
C21 O25 1.241 . S
C22 O15 1.247 . S
C22 O16 1.261 . S
C23 O18 1.259 . S
C23 O20 1.235 . S
O24 Co14 2.021 . S
O24 C21 1.238 . S
O25 Co19 2.052 . S
O25 C21 1.241 . S
O26 Co14 2.137 . S
O26 C17 1.247 . S
O27 Co14 2.244 . S
O27 C17 1.272 . S
O27 Co19 2.135 . S
Co28 O29 2.216 . S
Co28 O30 2.091 . S
Co28 O32 2.004 . S
Co28 O38 2.021 . S
Co28 O40 2.137 . S
Co28 O41 2.244 . S
O29 Co28 2.216 . S
O29 C36 1.247 . S
O30 Co28 2.091 . S
O30 C36 1.261 . S
C31 O40 1.247 . S
C31 O41 1.272 . S
O32 Co28 2.004 . S
O32 C37 1.259 . S
Co33 O34 2.061 . S
Co33 O39 2.052 . S
Co33 O41 2.135 . S
O34 Co33 2.061 . S
O34 C37 1.235 . S
C35 O38 1.238 . S
C35 O39 1.241 . S
C36 O29 1.247 . S
C36 O30 1.261 . S
C37 O32 1.259 . S
C37 O34 1.235 . S
O38 Co28 2.021 . S
O38 C35 1.238 . S
O39 Co33 2.052 . S
O39 C35 1.241 . S
O40 Co28 2.137 . S
O40 C31 1.247 . S
O41 Co28 2.244 . S
O41 C31 1.272 . S
O41 Co33 2.135 . S
Co42 O43 2.216 . S
Co42 O44 2.091 . S
Co42 O46 2.004 . S
Co42 O52 2.021 . S
Co42 O54 2.137 . S
Co42 O55 2.244 . S
O43 Co42 2.216 . S
O43 C50 1.247 . S
O44 Co42 2.091 . S
O44 C50 1.261 . S
C45 O54 1.247 . S
C45 O55 1.272 . S
O46 Co42 2.004 . S
O46 C51 1.259 . S
Co47 O48 2.061 . S
Co47 O53 2.052 . S
Co47 O55 2.135 . S
O48 Co47 2.061 . S
O48 C51 1.235 . S
C49 O52 1.238 . S
C49 O53 1.241 . S
C50 O43 1.247 . S
C50 O44 1.261 . S
C51 O46 1.259 . S
C51 O48 1.235 . S
O52 Co42 2.021 . S
O52 C49 1.238 . S
O53 Co47 2.052 . S
O53 C49 1.241 . S
O54 Co42 2.137 . S
O54 C45 1.247 . S
O55 Co42 2.244 . S
O55 C45 1.272 . S
O55 Co47 2.135 . S
Co56 O57 2.216 . S
Co56 O58 2.091 . S
Co56 O60 2.004 . S
Co56 O66 2.021 . S
Co56 O68 2.137 . S
Co56 O69 2.244 . S
O57 Co56 2.216 . S
O57 C64 1.247 . S
O58 Co56 2.091 . S
O58 C64 1.261 . S
C59 O68 1.247 . S
C59 O69 1.272 . S
O60 Co56 2.004 . S
O60 C65 1.259 . S
Co61 O62 2.061 . S
Co61 O67 2.052 . S
Co61 O69 2.135 . S
O62 Co61 2.061 . S
O62 C65 1.235 . S
C63 O66 1.238 . S
C63 O67 1.241 . S
C64 O57 1.247 . S
C64 O58 1.261 . S
C65 O60 1.259 . S
C65 O62 1.235 . S
O66 Co56 2.021 . S
O66 C63 1.238 . S
O67 Co61 2.052 . S
O67 C63 1.241 . S
O68 Co56 2.137 . S
O68 C59 1.247 . S
O69 Co56 2.244 . S
O69 C59 1.272 . S
O69 Co61 2.135 . S
Co70 O71 2.216 . S
Co70 O72 2.091 . S
Co70 O74 2.004 . S
Co70 O80 2.021 . S
Co70 O82 2.137 . S
Co70 O83 2.244 . S
O71 Co70 2.216 . S
O71 C78 1.247 . S
O72 Co70 2.091 . S
O72 C78 1.261 . S
C73 O82 1.247 . S
C73 O83 1.272 . S
O74 Co70 2.004 . S
O74 C79 1.259 . S
Co75 O76 2.061 . S
Co75 O81 2.052 . S
Co75 O83 2.135 . S
O76 Co75 2.061 . S
O76 C79 1.235 . S
C77 O80 1.238 . S
C77 O81 1.241 . S
C78 O71 1.247 . S
C78 O72 1.261 . S
C79 O74 1.259 . S
C79 O76 1.235 . S
O80 Co70 2.021 . S
O80 C77 1.238 . S
O81 Co75 2.052 . S
O81 C77 1.241 . S
O82 Co70 2.137 . S
O82 C73 1.247 . S
O83 Co70 2.244 . S
O83 C73 1.272 . S
O83 Co75 2.135 . S
Co84 O85 2.216 . S
Co84 O86 2.091 . S
Co84 O88 2.004 . S
Co84 O94 2.021 . S
Co84 O96 2.137 . S
Co84 O97 2.244 . S
O85 Co84 2.216 . S
O85 C92 1.247 . S
O86 Co84 2.091 . S
O86 C92 1.261 . S
C87 O96 1.247 . S
C87 O97 1.272 . S
O88 Co84 2.004 . S
O88 C93 1.259 . S
Co89 O90 2.061 . S
Co89 O95 2.052 . S
Co89 O97 2.135 . S
O90 Co89 2.061 . S
O90 C93 1.235 . S
C91 O94 1.238 . S
C91 O95 1.241 . S
C92 O85 1.247 . S
C92 O86 1.261 . S
C93 O88 1.259 . S
C93 O90 1.235 . S
O94 Co84 2.021 . S
O94 C91 1.238 . S
O95 Co89 2.052 . S
O95 C91 1.241 . S
O96 Co84 2.137 . S
O96 C87 1.247 . S
O97 Co84 2.244 . S
O97 C87 1.272 . S
O97 Co89 2.135 . S
Co98 O99 2.216 . S
Co98 O100 2.091 . S
Co98 O102 2.004 . S
Co98 O108 2.021 . S
Co98 O110 2.137 . S
Co98 O111 2.244 . S
O99 Co98 2.216 . S
O99 C106 1.247 . S
O100 Co98 2.091 . S
O100 C106 1.261 . S
C101 O110 1.247 . S
C101 O111 1.272 . S
O102 Co98 2.004 . S
O102 C107 1.259 . S
Co103 O104 2.061 . S
Co103 O109 2.052 . S
Co103 O111 2.135 . S
O104 Co103 2.061 . S
O104 C107 1.235 . S
C105 O108 1.238 . S
C105 O109 1.241 . S
C106 O99 1.247 . S
C106 O100 1.261 . S
C107 O102 1.259 . S
C107 O104 1.235 . S
O108 Co98 2.021 . S
O108 C105 1.238 . S
O109 Co103 2.052 . S
O109 C105 1.241 . S
O110 Co98 2.137 . S
O110 C101 1.247 . S
O111 Co98 2.244 . S
O111 C101 1.272 . S
O111 Co103 2.135 . S
Co112 O113 2.216 . S
Co112 O114 2.091 . S
Co112 O116 2.004 . S
Co112 O122 2.021 . S
Co112 O124 2.137 . S
Co112 O125 2.244 . S
O113 Co112 2.216 . S
O113 C120 1.247 . S
O114 Co112 2.091 . S
O114 C120 1.261 . S
C115 O124 1.247 . S
C115 O125 1.272 . S
O116 Co112 2.004 . S
O116 C121 1.259 . S
Co117 O118 2.061 . S
Co117 O123 2.052 . S
Co117 O125 2.135 . S
O118 Co117 2.061 . S
O118 C121 1.235 . S
C119 O122 1.238 . S
C119 O123 1.241 . S
C120 O113 1.247 . S
C120 O114 1.261 . S
C121 O116 1.259 . S
C121 O118 1.235 . S
O122 Co112 2.021 . S
O122 C119 1.238 . S
O123 Co117 2.052 . S
O123 C119 1.241 . S
O124 Co112 2.137 . S
O124 C115 1.247 . S
O125 Co112 2.244 . S
O125 C115 1.272 . S
O125 Co117 2.135 . S
Co126 O127 2.216 . S
Co126 O128 2.091 . S
Co126 O130 2.004 . S
Co126 O136 2.021 . S
Co126 O138 2.137 . S
Co126 O139 2.244 . S
O127 Co126 2.216 . S
O127 C134 1.247 . S
O128 Co126 2.091 . S
O128 C134 1.261 . S
C129 O138 1.247 . S
C129 O139 1.272 . S
O130 Co126 2.004 . S
O130 C135 1.259 . S
Co131 O132 2.061 . S
Co131 O137 2.052 . S
Co131 O139 2.135 . S
O132 Co131 2.061 . S
O132 C135 1.235 . S
C133 O136 1.238 . S
C133 O137 1.241 . S
C134 O127 1.247 . S
C134 O128 1.261 . S
C135 O130 1.259 . S
C135 O132 1.235 . S
O136 Co126 2.021 . S
O136 C133 1.238 . S
O137 Co131 2.052 . S
O137 C133 1.241 . S
O138 Co126 2.137 . S
O138 C129 1.247 . S
O139 Co126 2.244 . S
O139 C129 1.272 . S
O139 Co131 2.135 . S
Co140 O141 2.216 . S
Co140 O142 2.091 . S
Co140 O144 2.004 . S
Co140 O150 2.021 . S
Co140 O152 2.137 . S
Co140 O153 2.244 . S
O141 Co140 2.216 . S
O141 C148 1.247 . S
O142 Co140 2.091 . S
O142 C148 1.261 . S
C143 O152 1.247 . S
C143 O153 1.272 . S
O144 Co140 2.004 . S
O144 C149 1.259 . S
Co145 O146 2.061 . S
Co145 O151 2.052 . S
Co145 O153 2.135 . S
O146 Co145 2.061 . S
O146 C149 1.235 . S
C147 O150 1.238 . S
C147 O151 1.241 . S
C148 O141 1.247 . S
C148 O142 1.261 . S
C149 O144 1.259 . S
C149 O146 1.235 . S
O150 Co140 2.021 . S
O150 C147 1.238 . S
O151 Co145 2.052 . S
O151 C147 1.241 . S
O152 Co140 2.137 . S
O152 C143 1.247 . S
O153 Co140 2.244 . S
O153 C143 1.272 . S
O153 Co145 2.135 . S
Co154 O155 2.216 . S
Co154 O156 2.091 . S
Co154 O158 2.004 . S
Co154 O164 2.021 . S
Co154 O166 2.137 . S
Co154 O167 2.244 . S
O155 Co154 2.216 . S
O155 C162 1.247 . S
O156 Co154 2.091 . S
O156 C162 1.261 . S
C157 O166 1.247 . S
C157 O167 1.272 . S
O158 Co154 2.004 . S
O158 C163 1.259 . S
Co159 O160 2.061 . S
Co159 O165 2.052 . S
Co159 O167 2.135 . S
O160 Co159 2.061 . S
O160 C163 1.235 . S
C161 O164 1.238 . S
C161 O165 1.241 . S
C162 O155 1.247 . S
C162 O156 1.261 . S
C163 O158 1.259 . S
C163 O160 1.235 . S
O164 Co154 2.021 . S
O164 C161 1.238 . S
O165 Co159 2.052 . S
O165 C161 1.241 . S
O166 Co154 2.137 . S
O166 C157 1.247 . S
O167 Co154 2.244 . S
O167 C157 1.272 . S
O167 Co159 2.135 . S
Co168 O169 2.216 . S
Co168 O170 2.091 . S
Co168 O172 2.004 . S
Co168 O178 2.021 . S
Co168 O180 2.137 . S
Co168 O181 2.244 . S
O169 Co168 2.216 . S
O169 C176 1.247 . S
O170 Co168 2.091 . S
O170 C176 1.261 . S
C171 O180 1.247 . S
C171 O181 1.272 . S
O172 Co168 2.004 . S
O172 C177 1.259 . S
Co173 O174 2.061 . S
Co173 O179 2.052 . S
Co173 O181 2.135 . S
O174 Co173 2.061 . S
O174 C177 1.235 . S
C175 O178 1.238 . S
C175 O179 1.241 . S
C176 O169 1.247 . S
C176 O170 1.261 . S
C177 O172 1.259 . S
C177 O174 1.235 . S
O178 Co168 2.021 . S
O178 C175 1.238 . S
O179 Co173 2.052 . S
O179 C175 1.241 . S
O180 Co168 2.137 . S
O180 C171 1.247 . S
O181 Co168 2.244 . S
O181 C171 1.272 . S
O181 Co173 2.135 . S
Co182 O183 2.216 . S
Co182 O184 2.091 . S
Co182 O186 2.004 . S
Co182 O192 2.021 . S
Co182 O194 2.137 . S
Co182 O195 2.244 . S
O183 Co182 2.216 . S
O183 C190 1.247 . S
O184 Co182 2.091 . S
O184 C190 1.261 . S
C185 O194 1.247 . S
C185 O195 1.272 . S
O186 Co182 2.004 . S
O186 C191 1.259 . S
Co187 O188 2.061 . S
Co187 O193 2.052 . S
Co187 O195 2.135 . S
O188 Co187 2.061 . S
O188 C191 1.235 . S
C189 O192 1.238 . S
C189 O193 1.241 . S
C190 O183 1.247 . S
C190 O184 1.261 . S
C191 O186 1.259 . S
C191 O188 1.235 . S
O192 Co182 2.021 . S
O192 C189 1.238 . S
O193 Co187 2.052 . S
O193 C189 1.241 . S
O194 Co182 2.137 . S
O194 C185 1.247 . S
O195 Co182 2.244 . S
O195 C185 1.272 . S
O195 Co187 2.135 . S
Co196 O197 2.216 . S
Co196 O198 2.091 . S
Co196 O200 2.004 . S
Co196 O206 2.021 . S
Co196 O208 2.137 . S
Co196 O209 2.244 . S
O197 Co196 2.216 . S
O197 C204 1.247 . S
O198 Co196 2.091 . S
O198 C204 1.261 . S
C199 O208 1.247 . S
C199 O209 1.272 . S
O200 Co196 2.004 . S
O200 C205 1.259 . S
Co201 O202 2.061 . S
Co201 O207 2.052 . S
Co201 O209 2.135 . S
O202 Co201 2.061 . S
O202 C205 1.235 . S
C203 O206 1.238 . S
C203 O207 1.241 . S
C204 O197 1.247 . S
C204 O198 1.261 . S
C205 O200 1.259 . S
C205 O202 1.235 . S
O206 Co196 2.021 . S
O206 C203 1.238 . S
O207 Co201 2.052 . S
O207 C203 1.241 . S
O208 Co196 2.137 . S
O208 C199 1.247 . S
O209 Co196 2.244 . S
O209 C199 1.272 . S
O209 Co201 2.135 . S
Co210 O211 2.216 . S
Co210 O212 2.091 . S
Co210 O214 2.004 . S
Co210 O220 2.021 . S
Co210 O222 2.137 . S
Co210 O223 2.244 . S
O211 Co210 2.216 . S
O211 C218 1.247 . S
O212 Co210 2.091 . S
O212 C218 1.261 . S
C213 O222 1.247 . S
C213 O223 1.272 . S
O214 Co210 2.004 . S
O214 C219 1.259 . S
Co215 O216 2.061 . S
Co215 O221 2.052 . S
Co215 O223 2.135 . S
O216 Co215 2.061 . S
O216 C219 1.235 . S
C217 O220 1.238 . S
C217 O221 1.241 . S
C218 O211 1.247 . S
C218 O212 1.261 . S
C219 O214 1.259 . S
C219 O216 1.235 . S
O220 Co210 2.021 . S
O220 C217 1.238 . S
O221 Co215 2.052 . S
O221 C217 1.241 . S
O222 Co210 2.137 . S
O222 C213 1.247 . S
O223 Co210 2.244 . S
O223 C213 1.272 . S
O223 Co215 2.135 . S
H224 C232 0.929 . S
H225 C234 0.930 . S
H226 C236 0.930 . S
H227 C239 0.929 . S
H228 C242 0.930 . S
H229 C244 0.983 . S
H230 C244 0.955 1_655 S
H231 C244 0.944 1_655 S
C232 H224 0.929 . S
C232 C233 1.377 . S
C232 C234 1.384 . S
C233 C232 1.377 . S
C233 C239 1.390 . S
C234 H225 0.930 . S
C234 C232 1.384 . S
C234 C235 1.372 . S
C235 C234 1.372 . S
C235 C236 1.400 . S
C235 C240 1.490 . S
C236 H226 0.930 . S
C236 C235 1.400 . S
C236 C239 1.386 . S
H237 C253 0.930 . S
H238 C254 0.931 . S
C239 H227 0.929 . S
C239 C233 1.390 . S
C239 C236 1.386 . S
C240 C235 1.490 . S
C240 C242 1.395 1_565 S
C240 C243 1.403 . S
H241 C247 0.930 . S
C242 H228 0.930 . S
C242 C240 1.395 1_545 S
C242 C245 1.422 . S
C243 C240 1.403 . S
C243 C244 1.523 1_655 S
C243 C247 1.400 1_655 S
C244 H229 0.983 . S
C244 H230 0.955 1_455 S
C244 H231 0.944 1_455 S
C244 C243 1.523 1_455 S
C245 C242 1.422 . S
C245 C246 1.374 1_655 S
C245 C249 1.496 . S
C246 C245 1.374 1_455 S
C246 C247 1.385 1_545 S
C246 C248 1.478 . S
C247 H241 0.930 . S
C247 C243 1.400 1_455 S
C247 C246 1.385 1_565 S
C248 C246 1.478 . S
C248 C250 1.381 . S
C248 C254 1.383 . S
C249 C245 1.496 . S
C249 H255 0.959 . S
C249 H256 0.961 1_655 S
C249 H257 0.960 1_655 S
C250 C248 1.381 . S
C250 C251 1.394 . S
C250 H258 0.930 . S
C251 C250 1.394 . S
C251 C252 1.383 . S
C251 H259 0.929 . S
C252 C251 1.383 . S
C252 C253 1.377 . S
C253 H237 0.930 . S
C253 C252 1.377 . S
C253 C254 1.379 . S
C254 H238 0.931 . S
C254 C248 1.383 . S
C254 C253 1.379 . S
H255 C249 0.959 . S
H256 C249 0.961 1_455 S
H257 C249 0.960 1_455 S
H258 C250 0.930 . S
H259 C251 0.929 . S
H260 C268 0.929 . S
H261 C270 0.930 . S
H262 C272 0.930 . S
H263 C275 0.929 . S
H264 C278 0.930 . S
H265 C280 0.960 . S
H266 C280 0.960 . S
H267 C280 0.960 . S
C268 H260 0.929 . S
C268 C269 1.377 . S
C268 C270 1.384 . S
C269 C268 1.377 . S
C269 C275 1.390 . S
C270 H261 0.930 . S
C270 C268 1.384 . S
C270 C271 1.372 . S
C271 C270 1.372 . S
C271 C272 1.400 . S
C271 C276 1.490 . S
C272 H262 0.930 . S
C272 C271 1.400 . S
C272 C275 1.386 . S
H273 C289 0.930 . S
H274 C290 0.931 . S
C275 H263 0.929 . S
C275 C269 1.390 . S
C275 C272 1.386 . S
C276 C271 1.490 . S
C276 C278 1.395 1_655 S
C276 C279 1.403 . S
H277 C283 0.930 . S
C278 H264 0.930 . S
C278 C276 1.395 1_455 S
C278 C281 1.403 . S
C279 C276 1.403 . S
C279 C280 1.524 . S
C279 C283 1.400 . S
C280 H265 0.960 . S
C280 H266 0.960 . S
C280 H267 0.960 . S
C280 C279 1.524 . S
C281 C278 1.403 . S
C281 C282 1.392 . S
C281 C285 1.495 . S
C282 C281 1.392 . S
C282 C283 1.385 1_455 S
C282 C284 1.478 . S
C283 H277 0.930 . S
C283 C279 1.400 . S
C283 C282 1.385 1_655 S
C284 C282 1.478 . S
C284 C286 1.381 . S
C284 C290 1.383 . S
C285 C281 1.495 . S
C285 H291 0.959 . S
C285 H292 0.961 . S
C285 H293 0.960 . S
C286 C284 1.381 . S
C286 C287 1.394 . S
C286 H294 0.930 . S
C287 C286 1.394 . S
C287 C288 1.383 . S
C287 H295 0.929 . S
C288 C287 1.383 . S
C288 C289 1.377 . S
C289 H273 0.930 . S
C289 C288 1.377 . S
C289 C290 1.379 . S
C290 H274 0.931 . S
C290 C284 1.383 . S
C290 C289 1.379 . S
H291 C285 0.959 . S
H292 C285 0.961 . S
H293 C285 0.960 . S
H294 C286 0.930 . S
H295 C287 0.929 . S
H296 C304 0.929 . S
H297 C306 0.930 . S
H298 C308 0.930 . S
H299 C311 0.929 . S
H300 C314 0.930 . S
H301 C316 0.960 . S
H302 C316 0.960 . S
H303 C316 0.960 . S
C304 H296 0.929 . S
C304 C305 1.377 . S
C304 C306 1.384 . S
C305 C304 1.377 . S
C305 C311 1.390 . S
C306 H297 0.930 . S
C306 C304 1.384 . S
C306 C307 1.372 . S
C307 C306 1.372 . S
C307 C308 1.400 . S
C307 C312 1.490 . S
C308 H298 0.930 . S
C308 C307 1.400 . S
C308 C311 1.386 . S
H309 C325 0.930 . S
H310 C326 0.931 . S
C311 H299 0.929 . S
C311 C305 1.390 . S
C311 C308 1.386 . S
C312 C307 1.490 . S
C312 C314 1.395 . S
C312 C315 1.403 . S
H313 C319 0.930 . S
C314 H300 0.930 . S
C314 C312 1.395 . S
C314 C317 1.403 . S
C315 C312 1.403 . S
C315 C316 1.524 . S
C315 C319 1.400 . S
C316 H301 0.960 . S
C316 H302 0.960 . S
C316 H303 0.960 . S
C316 C315 1.524 . S
C317 C314 1.403 . S
C317 C318 1.392 . S
C317 C321 1.495 . S
C318 C317 1.392 . S
C318 C319 1.385 . S
C318 C320 1.478 . S
C319 H313 0.930 . S
C319 C315 1.400 . S
C319 C318 1.385 . S
C320 C318 1.478 . S
C320 C322 1.381 . S
C320 C326 1.383 . S
C321 C317 1.495 . S
C321 H327 0.959 . S
C321 H328 0.961 . S
C321 H329 0.960 . S
C322 C320 1.381 . S
C322 C323 1.394 . S
C322 H330 0.930 . S
C323 C322 1.394 . S
C323 C324 1.383 . S
C323 H331 0.929 . S
C324 C323 1.383 . S
C324 C325 1.377 . S
C325 H309 0.930 . S
C325 C324 1.377 . S
C325 C326 1.379 . S
C326 H310 0.931 . S
C326 C320 1.383 . S
C326 C325 1.379 . S
H327 C321 0.959 . S
H328 C321 0.961 . S
H329 C321 0.960 . S
H330 C322 0.930 . S
H331 C323 0.929 . S
H332 C340 0.929 . S
H333 C342 0.930 . S
H334 C344 0.930 . S
H335 C347 0.929 . S
H336 C350 0.930 . S
H337 C352 0.960 1_565 S
H338 C352 0.960 . S
H339 C352 0.960 . S
C340 H332 0.929 . S
C340 C341 1.377 . S
C340 C342 1.384 . S
C341 C340 1.377 . S
C341 C347 1.390 . S
C342 H333 0.930 . S
C342 C340 1.384 . S
C342 C343 1.372 . S
C343 C342 1.372 . S
C343 C344 1.400 . S
C343 C348 1.490 . S
C344 H334 0.930 . S
C344 C343 1.400 . S
C344 C347 1.386 . S
H345 C361 0.930 . S
H346 C362 0.931 . S
C347 H335 0.929 . S
C347 C341 1.390 . S
C347 C344 1.386 . S
C348 C343 1.490 . S
C348 C350 1.395 . S
C348 C351 1.403 . S
H349 C355 0.930 . S
C350 H336 0.930 . S
C350 C348 1.395 . S
C350 C353 1.403 1_545 S
C351 C348 1.403 . S
C351 C352 1.524 . S
C351 C355 1.400 1_545 S
C352 H337 0.960 1_545 S
C352 H338 0.960 . S
C352 H339 0.960 . S
C352 C351 1.524 . S
C353 C350 1.403 1_565 S
C353 C354 1.392 . S
C353 C357 1.495 . S
C354 C353 1.392 . S
C354 C355 1.385 . S
C354 C356 1.478 . S
C355 H349 0.930 . S
C355 C351 1.400 1_565 S
C355 C354 1.385 . S
C356 C354 1.478 . S
C356 C358 1.381 . S
C356 C362 1.383 . S
C357 C353 1.495 . S
C357 H363 0.959 1_565 S
C357 H364 0.961 . S
C357 H365 0.960 . S
C358 C356 1.381 . S
C358 C359 1.394 . S
C358 H366 0.930 . S
C359 C358 1.394 . S
C359 C360 1.383 . S
C359 H367 0.929 . S
C360 C359 1.383 . S
C360 C361 1.377 . S
C361 H345 0.930 . S
C361 C360 1.377 . S
C361 C362 1.379 . S
C362 H346 0.931 . S
C362 C356 1.383 . S
C362 C361 1.379 . S
H363 C357 0.959 1_545 S
H364 C357 0.961 . S
H365 C357 0.960 . S
H366 C358 0.930 . S
H367 C359 0.929 . S
H368 C376 0.929 . S
H369 C378 0.930 . S
H370 C380 0.930 . S
H371 C383 0.929 . S
H372 C386 0.930 . S
H373 C388 0.960 . S
H374 C388 0.960 . S
H375 C388 0.960 . S
C376 H368 0.929 . S
C376 C377 1.377 . S
C376 C378 1.384 . S
C377 C376 1.377 . S
C377 C383 1.390 . S
C378 H369 0.930 . S
C378 C376 1.384 . S
C378 C379 1.372 . S
C379 C378 1.372 . S
C379 C380 1.400 . S
C379 C384 1.490 . S
C380 H370 0.930 . S
C380 C379 1.400 . S
C380 C383 1.386 . S
H381 C397 0.930 . S
H382 C398 0.931 . S
C383 H371 0.929 . S
C383 C377 1.390 . S
C383 C380 1.386 . S
C384 C379 1.490 . S
C384 C386 1.395 . S
C384 C387 1.403 . S
H385 C391 0.930 . S
C386 H372 0.930 . S
C386 C384 1.395 . S
C386 C389 1.403 1_455 S
C387 C384 1.403 . S
C387 C388 1.524 . S
C387 C391 1.400 1_455 S
C388 H373 0.960 . S
C388 H374 0.960 . S
C388 H375 0.960 . S
C388 C387 1.524 . S
C389 C386 1.403 1_655 S
C389 C390 1.392 . S
C389 C393 1.495 . S
C390 C389 1.392 . S
C390 C391 1.385 . S
C390 C392 1.478 . S
C391 H385 0.930 . S
C391 C387 1.400 1_655 S
C391 C390 1.385 . S
C392 C390 1.478 . S
C392 C394 1.381 . S
C392 C398 1.383 . S
C393 C389 1.495 . S
C393 H399 0.959 . S
C393 H400 0.961 . S
C393 H401 0.960 . S
C394 C392 1.381 . S
C394 C395 1.394 . S
C394 H402 0.930 . S
C395 C394 1.394 . S
C395 C396 1.383 . S
C395 H403 0.929 . S
C396 C395 1.383 . S
C396 C397 1.377 . S
C397 H381 0.930 . S
C397 C396 1.377 . S
C397 C398 1.379 . S
C398 H382 0.931 . S
C398 C392 1.383 . S
C398 C397 1.379 . S
H399 C393 0.959 . S
H400 C393 0.961 . S
H401 C393 0.960 . S
H402 C394 0.930 . S
H403 C395 0.929 . S
H404 C412 0.929 . S
H405 C414 0.930 . S
H406 C416 0.930 . S
H407 C419 0.929 . S
H408 C422 0.930 . S
H409 C424 0.960 . S
H410 C424 0.960 . S
H411 C424 0.960 . S
C412 H404 0.929 . S
C412 C413 1.377 . S
C412 C414 1.384 . S
C413 C412 1.377 . S
C413 C419 1.390 . S
C414 H405 0.930 . S
C414 C412 1.384 . S
C414 C415 1.372 . S
C415 C414 1.372 . S
C415 C416 1.400 . S
C415 C420 1.490 . S
C416 H406 0.930 . S
C416 C415 1.400 . S
C416 C419 1.386 . S
H417 C433 0.930 . S
H418 C434 0.931 . S
C419 H407 0.929 . S
C419 C413 1.390 . S
C419 C416 1.386 . S
C420 C415 1.490 . S
C420 C422 1.395 . S
C420 C423 1.403 . S
H421 C427 0.930 . S
C422 H408 0.930 . S
C422 C420 1.395 . S
C422 C425 1.403 . S
C423 C420 1.403 . S
C423 C424 1.524 . S
C423 C427 1.400 . S
C424 H409 0.960 . S
C424 H410 0.960 . S
C424 H411 0.960 . S
C424 C423 1.524 . S
C425 C422 1.403 . S
C425 C426 1.392 . S
C425 C429 1.495 . S
C426 C425 1.392 . S
C426 C427 1.385 . S
C426 C428 1.478 . S
C427 H421 0.930 . S
C427 C423 1.400 . S
C427 C426 1.385 . S
C428 C426 1.478 . S
C428 C430 1.381 . S
C428 C434 1.383 . S
C429 C425 1.495 . S
C429 H435 0.959 . S
C429 H436 0.961 . S
C429 H437 0.960 . S
C430 C428 1.381 . S
C430 C431 1.394 . S
C430 H438 0.930 . S
C431 C430 1.394 . S
C431 C432 1.383 . S
C431 H439 0.929 . S
C432 C431 1.383 . S
C432 C433 1.377 . S
C433 H417 0.930 . S
C433 C432 1.377 . S
C433 C434 1.379 . S
C434 H418 0.931 . S
C434 C428 1.383 . S
C434 C433 1.379 . S
H435 C429 0.959 . S
H436 C429 0.961 . S
H437 C429 0.960 . S
H438 C430 0.930 . S
H439 C431 0.929 . S
H440 C448 0.929 . S
H441 C450 0.930 . S
H442 C452 0.930 . S
H443 C455 0.929 . S
H444 C458 0.930 . S
H445 C460 0.960 . S
H446 C460 0.960 . S
H447 C460 0.960 . S
C448 H440 0.929 . S
C448 C449 1.377 . S
C448 C450 1.384 . S
C449 C448 1.377 . S
C449 C455 1.390 . S
C450 H441 0.930 . S
C450 C448 1.384 . S
C450 C451 1.372 . S
C451 C450 1.372 . S
C451 C452 1.400 . S
C451 C456 1.490 . S
C452 H442 0.930 . S
C452 C451 1.400 . S
C452 C455 1.386 . S
H453 C469 0.930 . S
H454 C470 0.931 . S
C455 H443 0.929 . S
C455 C449 1.390 . S
C455 C452 1.386 . S
C456 C451 1.490 . S
C456 C458 1.395 1_545 S
C456 C459 1.403 . S
H457 C463 0.930 . S
C458 H444 0.930 . S
C458 C456 1.395 1_565 S
C458 C461 1.403 . S
C459 C456 1.403 . S
C459 C460 1.524 . S
C459 C463 1.400 . S
C460 H445 0.960 . S
C460 H446 0.960 . S
C460 H447 0.960 . S
C460 C459 1.524 . S
C461 C458 1.403 . S
C461 C462 1.392 . S
C461 C465 1.495 . S
C462 C461 1.392 . S
C462 C463 1.385 1_565 S
C462 C464 1.478 . S
C463 H457 0.930 . S
C463 C459 1.400 . S
C463 C462 1.385 1_545 S
C464 C462 1.478 . S
C464 C466 1.381 . S
C464 C470 1.383 . S
C465 C461 1.495 . S
C465 H471 0.959 . S
C465 H472 0.961 . S
C465 H473 0.960 . S
C466 C464 1.381 . S
C466 C467 1.394 . S
C466 H474 0.930 . S
C467 C466 1.394 . S
C467 C468 1.383 . S
C467 H475 0.929 . S
C468 C467 1.383 . S
C468 C469 1.377 . S
C469 H453 0.930 . S
C469 C468 1.377 . S
C469 C470 1.379 . S
C470 H454 0.931 . S
C470 C464 1.383 . S
C470 C469 1.379 . S
H471 C465 0.959 . S
H472 C465 0.961 . S
H473 C465 0.960 . S
H474 C466 0.930 . S
H475 C467 0.929 . S
H476 C484 0.929 . S
H477 C486 0.930 . S
H478 C488 0.930 . S
H479 C491 0.929 . S
H480 C494 0.930 . S
H481 C496 0.960 . S
H482 C496 0.960 1_545 S
H483 C496 0.960 1_545 S
C484 H476 0.929 . S
C484 C485 1.377 . S
C484 C486 1.384 . S
C485 C484 1.377 . S
C485 C491 1.390 . S
C486 H477 0.930 . S
C486 C484 1.384 . S
C486 C487 1.372 . S
C487 C486 1.372 . S
C487 C488 1.400 . S
C487 C492 1.490 . S
C488 H478 0.930 . S
C488 C487 1.400 . S
C488 C491 1.386 . S
H489 C505 0.930 . S
H490 C506 0.931 . S
C491 H479 0.929 . S
C491 C485 1.390 . S
C491 C488 1.386 . S
C492 C487 1.490 . S
C492 C494 1.395 1_455 S
C492 C495 1.404 1_545 S
H493 C499 0.930 . S
C494 H480 0.930 . S
C494 C492 1.395 1_655 S
C494 C497 1.403 . S
C495 C492 1.404 1_565 S
C495 C496 1.523 . S
C495 C499 1.398 . S
C496 H481 0.960 . S
C496 H482 0.960 1_565 S
C496 H483 0.960 1_565 S
C496 C495 1.523 . S
C497 C494 1.403 . S
C497 C498 1.392 1_545 S
C497 C501 1.495 . S
C498 C497 1.392 1_565 S
C498 C499 1.385 1_655 S
C498 C500 1.478 . S
C499 H493 0.930 . S
C499 C495 1.398 . S
C499 C498 1.385 1_455 S
C500 C498 1.478 . S
C500 C502 1.381 . S
C500 C506 1.383 . S
C501 C497 1.495 . S
C501 H507 0.959 . S
C501 H508 0.961 1_545 S
C501 H509 0.960 1_545 S
C502 C500 1.381 . S
C502 C503 1.394 . S
C502 H510 0.930 . S
C503 C502 1.394 . S
C503 C504 1.383 . S
C503 H511 0.929 . S
C504 C503 1.383 . S
C504 C505 1.377 . S
C505 H489 0.930 . S
C505 C504 1.377 . S
C505 C506 1.379 . S
C506 H490 0.931 . S
C506 C500 1.383 . S
C506 C505 1.379 . S
H507 C501 0.959 . S
H508 C501 0.961 1_565 S
H509 C501 0.960 1_565 S
H510 C502 0.930 . S
H511 C503 0.929 . S
H512 C520 0.929 . S
H513 C522 0.930 . S
H514 C524 0.930 . S
H515 C527 0.929 . S
H516 C530 0.930 . S
H517 C532 0.960 . S
H518 C532 0.960 . S
H519 C532 0.960 . S
C520 H512 0.929 . S
C520 C521 1.377 . S
C520 C522 1.384 . S
C521 C520 1.377 . S
C521 C527 1.390 . S
C522 H513 0.930 . S
C522 C520 1.384 . S
C522 C523 1.372 . S
C523 C522 1.372 . S
C523 C524 1.400 . S
C523 C528 1.490 . S
C524 H514 0.930 . S
C524 C523 1.400 . S
C524 C527 1.386 . S
H525 C541 0.930 . S
H526 C542 0.931 . S
C527 H515 0.929 . S
C527 C521 1.390 . S
C527 C524 1.386 . S
C528 C523 1.490 . S
C528 C530 1.395 . S
C528 C531 1.403 1_565 S
H529 C535 0.930 . S
C530 H516 0.930 . S
C530 C528 1.395 . S
C530 C533 1.403 . S
C531 C528 1.403 1_545 S
C531 C532 1.524 . S
C531 C535 1.400 . S
C532 H517 0.960 . S
C532 H518 0.960 . S
C532 H519 0.960 . S
C532 C531 1.524 . S
C533 C530 1.403 . S
C533 C534 1.392 1_565 S
C533 C537 1.495 . S
C534 C533 1.392 1_545 S
C534 C535 1.385 . S
C534 C536 1.478 . S
C535 H529 0.930 . S
C535 C531 1.400 . S
C535 C534 1.385 . S
C536 C534 1.478 . S
C536 C538 1.381 . S
C536 C542 1.383 . S
C537 C533 1.495 . S
C537 H543 0.959 . S
C537 H544 0.961 . S
C537 H545 0.960 . S
C538 C536 1.381 . S
C538 C539 1.394 . S
C538 H546 0.930 . S
C539 C538 1.394 . S
C539 C540 1.383 . S
C539 H547 0.929 . S
C540 C539 1.383 . S
C540 C541 1.377 . S
C541 H525 0.930 . S
C541 C540 1.377 . S
C541 C542 1.379 . S
C542 H526 0.931 . S
C542 C536 1.383 . S
C542 C541 1.379 . S
H543 C537 0.959 . S
H544 C537 0.961 . S
H545 C537 0.960 . S
H546 C538 0.930 . S
H547 C539 0.929 . S
H548 C556 0.929 . S
H549 C558 0.930 . S
H550 C560 0.930 . S
H551 C563 0.929 . S
H552 C566 0.930 . S
H553 C568 0.960 . S
H554 C568 0.960 . S
H555 C568 0.960 . S
C556 H548 0.929 . S
C556 C557 1.377 . S
C556 C558 1.384 . S
C557 C556 1.377 . S
C557 C563 1.390 . S
C558 H549 0.930 . S
C558 C556 1.384 . S
C558 C559 1.372 . S
C559 C558 1.372 . S
C559 C560 1.400 . S
C559 C564 1.490 . S
C560 H550 0.930 . S
C560 C559 1.400 . S
C560 C563 1.386 . S
H561 C577 0.930 . S
H562 C578 0.931 . S
C563 H551 0.929 . S
C563 C557 1.390 . S
C563 C560 1.386 . S
C564 C559 1.490 . S
C564 C566 1.395 . S
C564 C567 1.403 1_655 S
H565 C571 0.930 . S
C566 H552 0.930 . S
C566 C564 1.395 . S
C566 C569 1.403 1_565 S
C567 C564 1.403 1_455 S
C567 C568 1.524 . S
C567 C571 1.400 1_565 S
C568 H553 0.960 . S
C568 H554 0.960 . S
C568 H555 0.960 . S
C568 C567 1.524 . S
C569 C566 1.403 1_545 S
C569 C570 1.392 1_655 S
C569 C573 1.495 . S
C570 C569 1.392 1_455 S
C570 C571 1.385 . S
C570 C572 1.478 . S
C571 H565 0.930 . S
C571 C567 1.400 1_545 S
C571 C570 1.385 . S
C572 C570 1.478 . S
C572 C574 1.381 . S
C572 C578 1.383 . S
C573 C569 1.495 . S
C573 H579 0.959 . S
C573 H580 0.961 . S
C573 H581 0.960 . S
C574 C572 1.381 . S
C574 C575 1.394 . S
C574 H582 0.930 . S
C575 C574 1.394 . S
C575 C576 1.383 . S
C575 H583 0.929 . S
C576 C575 1.383 . S
C576 C577 1.377 . S
C577 H561 0.930 . S
C577 C576 1.377 . S
C577 C578 1.379 . S
C578 H562 0.931 . S
C578 C572 1.383 . S
C578 C577 1.379 . S
H579 C573 0.959 . S
H580 C573 0.961 . S
H581 C573 0.960 . S
H582 C574 0.930 . S
H583 C575 0.929 . S
H584 C592 0.929 . S
H585 C594 0.930 . S
H586 C596 0.930 . S
H587 C599 0.929 . S
H588 C602 0.930 . S
H589 C604 0.960 1_655 S
H590 C604 0.960 . S
H591 C604 0.960 . S
C592 H584 0.929 . S
C592 C593 1.377 . S
C592 C594 1.384 . S
C593 C592 1.377 . S
C593 C599 1.390 . S
C594 H585 0.930 . S
C594 C592 1.384 . S
C594 C595 1.372 . S
C595 C594 1.372 . S
C595 C596 1.400 . S
C595 C600 1.490 . S
C596 H586 0.930 . S
C596 C595 1.400 . S
C596 C599 1.386 . S
H597 C613 0.930 . S
H598 C614 0.931 . S
C599 H587 0.929 . S
C599 C593 1.390 . S
C599 C596 1.386 . S
C600 C595 1.490 . S
C600 C602 1.395 . S
C600 C603 1.403 . S
H601 C607 0.930 . S
C602 H588 0.930 . S
C602 C600 1.395 . S
C602 C605 1.403 1_455 S
C603 C600 1.403 . S
C603 C604 1.524 . S
C603 C607 1.400 1_455 S
C604 H589 0.960 1_455 S
C604 H590 0.960 . S
C604 H591 0.960 . S
C604 C603 1.524 . S
C605 C602 1.403 1_655 S
C605 C606 1.392 . S
C605 C609 1.495 . S
C606 C605 1.392 . S
C606 C607 1.385 . S
C606 C608 1.478 . S
C607 H601 0.930 . S
C607 C603 1.400 1_655 S
C607 C606 1.385 . S
C608 C606 1.478 . S
C608 C610 1.381 . S
C608 C614 1.383 . S
C609 C605 1.495 . S
C609 H615 0.959 1_655 S
C609 H616 0.961 . S
C609 H617 0.960 . S
C610 C608 1.381 . S
C610 C611 1.394 . S
C610 H618 0.930 . S
C611 C610 1.394 . S
C611 C612 1.383 . S
C611 H619 0.929 . S
C612 C611 1.383 . S
C612 C613 1.377 . S
C613 H597 0.930 . S
C613 C612 1.377 . S
C613 C614 1.379 . S
C614 H598 0.931 . S
C614 C608 1.383 . S
C614 C613 1.379 . S
H615 C609 0.959 1_455 S
H616 C609 0.961 . S
H617 C609 0.960 . S
H618 C610 0.930 . S
H619 C611 0.929 . S
H620 C628 0.929 . S
H621 C630 0.930 . S
H622 C632 0.930 . S
H623 C635 0.929 . S
H624 C638 0.930 . S
H625 C640 0.960 . S
H626 C640 0.960 . S
H627 C640 0.960 . S
C628 H620 0.929 . S
C628 C629 1.377 . S
C628 C630 1.384 . S
C629 C628 1.377 . S
C629 C635 1.390 . S
C630 H621 0.930 . S
C630 C628 1.384 . S
C630 C631 1.372 . S
C631 C630 1.372 . S
C631 C632 1.400 . S
C631 C636 1.490 . S
C632 H622 0.930 . S
C632 C631 1.400 . S
C632 C635 1.386 . S
H633 C649 0.930 . S
H634 C650 0.931 . S
C635 H623 0.929 . S
C635 C629 1.390 . S
C635 C632 1.386 . S
C636 C631 1.490 . S
C636 C638 1.395 . S
C636 C639 1.403 . S
H637 C643 0.930 . S
C638 H624 0.930 . S
C638 C636 1.395 . S
C638 C641 1.403 . S
C639 C636 1.403 . S
C639 C640 1.524 . S
C639 C643 1.400 . S
C640 H625 0.960 . S
C640 H626 0.960 . S
C640 H627 0.960 . S
C640 C639 1.524 . S
C641 C638 1.403 . S
C641 C642 1.392 . S
C641 C645 1.495 . S
C642 C641 1.392 . S
C642 C643 1.385 . S
C642 C644 1.478 . S
C643 H637 0.930 . S
C643 C639 1.400 . S
C643 C642 1.385 . S
C644 C642 1.478 . S
C644 C646 1.381 . S
C644 C650 1.383 . S
C645 C641 1.495 . S
C645 H651 0.959 . S
C645 H652 0.961 . S
C645 H653 0.960 . S
C646 C644 1.381 . S
C646 C647 1.394 . S
C646 H654 0.930 . S
C647 C646 1.394 . S
C647 C648 1.383 . S
C647 H655 0.929 . S
C648 C647 1.383 . S
C648 C649 1.377 . S
C649 H633 0.930 . S
C649 C648 1.377 . S
C649 C650 1.379 . S
C650 H634 0.931 . S
C650 C644 1.383 . S
C650 C649 1.379 . S
H651 C645 0.959 . S
H652 C645 0.961 . S
H653 C645 0.960 . S
H654 C646 0.930 . S
H655 C647 0.929 . S
H656 C664 0.929 . S
H657 C666 0.930 . S
H658 C668 0.930 . S
H659 C671 0.929 . S
H660 C674 0.930 . S
H661 C676 0.960 . S
H662 C676 0.960 . S
H663 C676 0.960 . S
C664 H656 0.929 . S
C664 C665 1.377 . S
C664 C666 1.384 . S
C665 C664 1.377 . S
C665 C671 1.390 . S
C666 H657 0.930 . S
C666 C664 1.384 . S
C666 C667 1.372 . S
C667 C666 1.372 . S
C667 C668 1.400 . S
C667 C672 1.490 . S
C668 H658 0.930 . S
C668 C667 1.400 . S
C668 C671 1.386 . S
H669 C685 0.930 . S
H670 C686 0.931 . S
C671 H659 0.929 . S
C671 C665 1.390 . S
C671 C668 1.386 . S
C672 C667 1.490 . S
C672 C674 1.395 . S
C672 C675 1.403 . S
H673 C679 0.930 . S
C674 H660 0.930 . S
C674 C672 1.395 . S
C674 C677 1.403 . S
C675 C672 1.403 . S
C675 C676 1.524 . S
C675 C679 1.400 . S
C676 H661 0.960 . S
C676 H662 0.960 . S
C676 H663 0.960 . S
C676 C675 1.524 . S
C677 C674 1.403 . S
C677 C678 1.392 . S
C677 C681 1.495 . S
C678 C677 1.392 . S
C678 C679 1.385 . S
C678 C680 1.478 . S
C679 H673 0.930 . S
C679 C675 1.400 . S
C679 C678 1.385 . S
C680 C678 1.478 . S
C680 C682 1.381 . S
C680 C686 1.383 . S
C681 C677 1.495 . S
C681 H687 0.959 . S
C681 H688 0.961 . S
C681 H689 0.960 . S
C682 C680 1.381 . S
C682 C683 1.394 . S
C682 H690 0.930 . S
C683 C682 1.394 . S
C683 C684 1.383 . S
C683 H691 0.929 . S
C684 C683 1.383 . S
C684 C685 1.377 . S
C685 H669 0.930 . S
C685 C684 1.377 . S
C685 C686 1.379 . S
C686 H670 0.931 . S
C686 C680 1.383 . S
C686 C685 1.379 . S
H687 C681 0.959 . S
H688 C681 0.961 . S
H689 C681 0.960 . S
H690 C682 0.930 . S
H691 C683 0.929 . S
H692 C700 0.929 . S
H693 C702 0.930 . S
H694 C704 0.930 . S
H695 C707 0.929 . S
H696 C710 0.930 . S
H697 C712 0.960 . S
H698 C712 0.960 . S
H699 C712 0.960 . S
C700 H692 0.929 . S
C700 C701 1.377 . S
C700 C702 1.384 . S
C701 C700 1.377 . S
C701 C707 1.390 . S
C702 H693 0.930 . S
C702 C700 1.384 . S
C702 C703 1.372 . S
C703 C702 1.372 . S
C703 C704 1.400 . S
C703 C708 1.490 . S
C704 H694 0.930 . S
C704 C703 1.400 . S
C704 C707 1.386 . S
H705 C721 0.930 . S
H706 C722 0.931 . S
C707 H695 0.929 . S
C707 C701 1.390 . S
C707 C704 1.386 . S
C708 C703 1.490 . S
C708 C710 1.395 . S
C708 C711 1.403 . S
H709 C715 0.930 . S
C710 H696 0.930 . S
C710 C708 1.395 . S
C710 C713 1.403 1_565 S
C711 C708 1.403 . S
C711 C712 1.524 . S
C711 C715 1.400 1_565 S
C712 H697 0.960 . S
C712 H698 0.960 . S
C712 H699 0.960 . S
C712 C711 1.524 . S
C713 C710 1.403 1_545 S
C713 C714 1.392 . S
C713 C717 1.495 . S
C714 C713 1.392 . S
C714 C715 1.385 . S
C714 C716 1.478 . S
C715 H709 0.930 . S
C715 C711 1.400 1_545 S
C715 C714 1.385 . S
C716 C714 1.478 . S
C716 C718 1.381 . S
C716 C722 1.383 . S
C717 C713 1.495 . S
C717 H723 0.959 . S
C717 H724 0.961 . S
C717 H725 0.960 . S
C718 C716 1.381 . S
C718 C719 1.394 . S
C718 H726 0.930 . S
C719 C718 1.394 . S
C719 C720 1.383 . S
C719 H727 0.929 . S
C720 C719 1.383 . S
C720 C721 1.377 . S
C721 H705 0.930 . S
C721 C720 1.377 . S
C721 C722 1.379 . S
C722 H706 0.931 . S
C722 C716 1.383 . S
C722 C721 1.379 . S
H723 C717 0.959 . S
H724 C717 0.961 . S
H725 C717 0.960 . S
H726 C718 0.930 . S
H727 C719 0.929 . S
H728 C736 0.929 . S
H729 C738 0.930 . S
H730 C740 0.930 . S
H731 C743 0.929 . S
H732 C746 0.930 . S
H733 C748 0.960 . S
H734 C748 0.960 . S
H735 C748 0.960 . S
C736 H728 0.929 . S
C736 C737 1.377 . S
C736 C738 1.384 . S
C737 C736 1.377 . S
C737 C743 1.390 . S
C738 H729 0.930 . S
C738 C736 1.384 . S
C738 C739 1.372 . S
C739 C738 1.372 . S
C739 C740 1.400 . S
C739 C744 1.490 . S
C740 H730 0.930 . S
C740 C739 1.400 . S
C740 C743 1.386 . S
H741 C757 0.930 . S
H742 C758 0.931 . S
C743 H731 0.929 . S
C743 C737 1.390 . S
C743 C740 1.386 . S
C744 C739 1.490 . S
C744 C746 1.395 . S
C744 C747 1.403 1_565 S
H745 C751 0.930 . S
C746 H732 0.930 . S
C746 C744 1.395 . S
C746 C749 1.403 1_655 S
C747 C744 1.403 1_545 S
C747 C748 1.524 . S
C747 C751 1.400 1_655 S
C748 H733 0.960 . S
C748 H734 0.960 . S
C748 H735 0.960 . S
C748 C747 1.524 . S
C749 C746 1.403 1_455 S
C749 C750 1.392 1_565 S
C749 C753 1.495 . S
C750 C749 1.392 1_545 S
C750 C751 1.385 . S
C750 C752 1.478 . S
C751 H745 0.930 . S
C751 C747 1.400 1_455 S
C751 C750 1.385 . S
C752 C750 1.478 . S
C752 C754 1.381 . S
C752 C758 1.383 . S
C753 C749 1.495 . S
C753 H759 0.959 . S
C753 H760 0.961 . S
C753 H761 0.960 . S
C754 C752 1.381 . S
C754 C755 1.394 . S
C754 H762 0.930 . S
C755 C754 1.394 . S
C755 C756 1.383 . S
C755 H763 0.929 . S
C756 C755 1.383 . S
C756 C757 1.377 . S
C757 H741 0.930 . S
C757 C756 1.377 . S
C757 C758 1.379 . S
C758 H742 0.931 . S
C758 C752 1.383 . S
C758 C757 1.379 . S
H759 C753 0.959 . S
H760 C753 0.961 . S
H761 C753 0.960 . S
H762 C754 0.930 . S
H763 C755 0.929 . S
H764 C772 0.929 . S
H765 C774 0.930 1_655 S
H766 C776 0.930 . S
H767 C779 0.929 . S
H768 C782 0.930 . S
H769 C784 0.960 . S
H770 C784 0.960 . S
H771 C784 0.960 . S
C772 H764 0.929 . S
C772 C773 1.377 . S
C772 C774 1.384 . S
C773 C772 1.377 . S
C773 C779 1.390 . S
C774 H765 0.930 1_455 S
C774 C772 1.384 . S
C774 C775 1.372 . S
C775 C774 1.372 . S
C775 C776 1.400 . S
C775 C780 1.490 . S
C776 H766 0.930 . S
C776 C775 1.400 . S
C776 C779 1.386 . S
H777 C793 0.930 . S
H778 C794 0.931 1_455 S
C779 H767 0.929 . S
C779 C773 1.390 . S
C779 C776 1.386 . S
C780 C775 1.490 . S
C780 C782 1.395 1_455 S
C780 C783 1.403 . S
H781 C787 0.930 . S
C782 H768 0.930 . S
C782 C780 1.395 1_655 S
C782 C785 1.403 . S
C783 C780 1.403 . S
C783 C784 1.524 . S
C783 C787 1.400 . S
C784 H769 0.960 . S
C784 H770 0.960 . S
C784 H771 0.960 . S
C784 C783 1.524 . S
C785 C782 1.403 . S
C785 C786 1.392 . S
C785 C789 1.495 . S
C786 C785 1.392 . S
C786 C787 1.385 1_655 S
C786 C788 1.478 . S
C787 H781 0.930 . S
C787 C783 1.400 . S
C787 C786 1.385 1_455 S
C788 C786 1.478 . S
C788 C790 1.381 . S
C788 C794 1.383 . S
C789 C785 1.495 . S
C789 H795 0.959 . S
C789 H796 0.961 . S
C789 H797 0.960 . S
C790 C788 1.381 . S
C790 C791 1.394 . S
C790 H798 0.930 . S
C791 C790 1.394 . S
C791 C792 1.383 . S
C791 H799 0.929 . S
C792 C791 1.383 . S
C792 C793 1.377 . S
C793 H777 0.930 . S
C793 C792 1.377 . S
C793 C794 1.379 . S
C794 H778 0.931 1_655 S
C794 C788 1.383 . S
C794 C793 1.379 . S
H795 C789 0.959 . S
H796 C789 0.961 . S
H797 C789 0.960 . S
H798 C790 0.930 . S
H799 C791 0.929 . S
H800 C808 0.929 . S
H801 C810 0.930 . S
H802 C812 0.930 . S
H803 C815 0.929 . S
H804 C818 0.930 . S
H805 C820 0.960 . S
H806 C820 0.960 . S
H807 C820 0.960 . S
C808 H800 0.929 . S
C808 C809 1.377 . S
C808 C810 1.384 . S
C809 C808 1.377 . S
C809 C815 1.390 . S
C810 H801 0.930 . S
C810 C808 1.384 . S
C810 C811 1.372 . S
C811 C810 1.372 . S
C811 C812 1.400 . S
C811 C816 1.490 . S
C812 H802 0.930 . S
C812 C811 1.400 . S
C812 C815 1.386 . S
H813 C829 0.930 . S
H814 C830 0.931 . S
C815 H803 0.929 . S
C815 C809 1.390 . S
C815 C812 1.386 . S
C816 C811 1.490 . S
C816 C818 1.395 . S
C816 C819 1.403 . S
H817 C823 0.930 . S
C818 H804 0.930 . S
C818 C816 1.395 . S
C818 C821 1.403 . S
C819 C816 1.403 . S
C819 C820 1.524 . S
C819 C823 1.400 . S
C820 H805 0.960 . S
C820 H806 0.960 . S
C820 H807 0.960 . S
C820 C819 1.524 . S
C821 C818 1.403 . S
C821 C822 1.392 . S
C821 C825 1.495 . S
C822 C821 1.392 . S
C822 C823 1.385 . S
C822 C824 1.478 . S
C823 H817 0.930 . S
C823 C819 1.400 . S
C823 C822 1.385 . S
C824 C822 1.478 . S
C824 C826 1.381 . S
C824 C830 1.383 . S
C825 C821 1.495 . S
C825 H831 0.959 . S
C825 H832 0.961 . S
C825 H833 0.960 . S
C826 C824 1.381 . S
C826 C827 1.394 . S
C826 H834 0.930 . S
C827 C826 1.394 . S
C827 C828 1.383 . S
C827 H835 0.929 . S
C828 C827 1.383 . S
C828 C829 1.377 . S
C829 H813 0.930 . S
C829 C828 1.377 . S
C829 C830 1.379 . S
C830 H814 0.931 . S
C830 C824 1.383 . S
C830 C829 1.379 . S
H831 C825 0.959 . S
H832 C825 0.961 . S
H833 C825 0.960 . S
H834 C826 0.930 . S
H835 C827 0.929 . S
H836 C844 0.929 . S
H837 C846 0.930 . S
H838 C848 0.930 . S
H839 C851 0.929 . S
H840 C854 0.930 . S
H841 C856 0.960 . S
H842 C856 0.960 . S
H843 C856 0.960 . S
C844 H836 0.929 . S
C844 C845 1.377 . S
C844 C846 1.384 . S
C845 C844 1.377 . S
C845 C851 1.390 . S
C846 H837 0.930 . S
C846 C844 1.384 . S
C846 C847 1.372 . S
C847 C846 1.372 . S
C847 C848 1.400 . S
C847 C852 1.490 . S
C848 H838 0.930 . S
C848 C847 1.400 . S
C848 C851 1.386 . S
H849 C865 0.930 . S
H850 C866 0.931 . S
C851 H839 0.929 . S
C851 C845 1.390 . S
C851 C848 1.386 . S
C852 C847 1.490 . S
C852 C854 1.395 . S
C852 C855 1.403 . S
H853 C859 0.930 . S
C854 H840 0.930 . S
C854 C852 1.395 . S
C854 C857 1.403 . S
C855 C852 1.403 . S
C855 C856 1.524 . S
C855 C859 1.400 . S
C856 H841 0.960 . S
C856 H842 0.960 . S
C856 H843 0.960 . S
C856 C855 1.524 . S
C857 C854 1.403 . S
C857 C858 1.392 . S
C857 C861 1.495 . S
C858 C857 1.392 . S
C858 C859 1.385 . S
C858 C860 1.478 . S
C859 H853 0.930 . S
C859 C855 1.400 . S
C859 C858 1.385 . S
C860 C858 1.478 . S
C860 C862 1.381 . S
C860 C866 1.383 . S
C861 C857 1.495 . S
C861 H867 0.959 . S
C861 H868 0.961 . S
C861 H869 0.960 . S
C862 C860 1.381 . S
C862 C863 1.394 . S
C862 H870 0.930 . S
C863 C862 1.394 . S
C863 C864 1.383 . S
C863 H871 0.929 . S
C864 C863 1.383 . S
C864 C865 1.377 . S
C865 H849 0.930 . S
C865 C864 1.377 . S
C865 C866 1.379 . S
C866 H850 0.931 . S
C866 C860 1.383 . S
C866 C865 1.379 . S
H867 C861 0.959 . S
H868 C861 0.961 . S
H869 C861 0.960 . S
H870 C862 0.930 . S
H871 C863 0.929 . S
H872 C880 0.929 . S
H873 C882 0.930 . S
H874 C884 0.930 . S
H875 C887 0.929 . S
H876 C890 0.930 . S
H877 C892 0.960 . S
H878 C892 0.960 . S
H879 C892 0.960 . S
C880 H872 0.929 . S
C880 C881 1.377 . S
C880 C882 1.384 . S
C881 C880 1.377 . S
C881 C887 1.390 . S
C882 H873 0.930 . S
C882 C880 1.384 . S
C882 C883 1.372 . S
C883 C882 1.372 . S
C883 C884 1.400 . S
C883 C888 1.490 . S
C884 H874 0.930 . S
C884 C883 1.400 . S
C884 C887 1.386 . S
H885 C901 0.930 . S
H886 C902 0.931 . S
C887 H875 0.929 . S
C887 C881 1.390 . S
C887 C884 1.386 . S
C888 C883 1.490 . S
C888 C890 1.395 . S
C888 C891 1.403 . S
H889 C895 0.930 . S
C890 H876 0.930 . S
C890 C888 1.395 . S
C890 C893 1.403 . S
C891 C888 1.403 . S
C891 C892 1.524 . S
C891 C895 1.400 . S
C892 H877 0.960 . S
C892 H878 0.960 . S
C892 H879 0.960 . S
C892 C891 1.524 . S
C893 C890 1.403 . S
C893 C894 1.392 . S
C893 C897 1.495 . S
C894 C893 1.392 . S
C894 C895 1.385 . S
C894 C896 1.478 . S
C895 H889 0.930 . S
C895 C891 1.400 . S
C895 C894 1.385 . S
C896 C894 1.478 . S
C896 C898 1.381 . S
C896 C902 1.383 . S
C897 C893 1.495 . S
C897 H903 0.959 . S
C897 H904 0.961 . S
C897 H905 0.960 . S
C898 C896 1.381 . S
C898 C899 1.394 . S
C898 H906 0.930 . S
C899 C898 1.394 . S
C899 C900 1.383 . S
C899 H907 0.929 . S
C900 C899 1.383 . S
C900 C901 1.377 . S
C901 H885 0.930 . S
C901 C900 1.377 . S
C901 C902 1.379 . S
C902 H886 0.931 . S
C902 C896 1.383 . S
C902 C901 1.379 . S
H903 C897 0.959 . S
H904 C897 0.961 . S
H905 C897 0.960 . S
H906 C898 0.930 . S
H907 C899 0.929 . S
H908 C916 0.929 . S
H909 C918 0.930 . S
H910 C920 0.930 . S
H911 C923 0.929 . S
H912 C926 0.930 . S
H913 C928 0.960 . S
H914 C928 0.960 . S
H915 C928 0.960 . S
C916 H908 0.929 . S
C916 C917 1.377 . S
C916 C918 1.384 . S
C917 C916 1.377 . S
C917 C923 1.390 . S
C918 H909 0.930 . S
C918 C916 1.384 . S
C918 C919 1.372 . S
C919 C918 1.372 . S
C919 C920 1.400 . S
C919 C924 1.490 . S
C920 H910 0.930 . S
C920 C919 1.400 . S
C920 C923 1.386 . S
H921 C937 0.930 . S
H922 C938 0.931 . S
C923 H911 0.929 . S
C923 C917 1.390 . S
C923 C920 1.386 . S
C924 C919 1.490 . S
C924 C926 1.395 . S
C924 C927 1.403 . S
H925 C931 0.930 . S
C926 H912 0.930 . S
C926 C924 1.395 . S
C926 C929 1.403 . S
C927 C924 1.403 . S
C927 C928 1.524 . S
C927 C931 1.400 . S
C928 H913 0.960 . S
C928 H914 0.960 . S
C928 H915 0.960 . S
C928 C927 1.524 . S
C929 C926 1.403 . S
C929 C930 1.392 . S
C929 C933 1.495 . S
C930 C929 1.392 . S
C930 C931 1.385 . S
C930 C932 1.478 . S
C931 H925 0.930 . S
C931 C927 1.400 . S
C931 C930 1.385 . S
C932 C930 1.478 . S
C932 C934 1.381 . S
C932 C938 1.383 . S
C933 C929 1.495 . S
C933 H939 0.959 . S
C933 H940 0.961 . S
C933 H941 0.960 . S
C934 C932 1.381 . S
C934 C935 1.394 . S
C934 H942 0.930 . S
C935 C934 1.394 . S
C935 C936 1.383 . S
C935 H943 0.929 . S
C936 C935 1.383 . S
C936 C937 1.377 . S
C937 H921 0.930 . S
C937 C936 1.377 . S
C937 C938 1.379 . S
C938 H922 0.931 . S
C938 C932 1.383 . S
C938 C937 1.379 . S
H939 C933 0.959 . S
H940 C933 0.961 . S
H941 C933 0.960 . S
H942 C934 0.930 . S
H943 C935 0.929 . S
H944 C952 0.929 . S
H945 C954 0.930 . S
H946 C956 0.930 . S
H947 C959 0.929 . S
H948 C962 0.930 . S
H949 C964 0.960 . S
H950 C964 0.960 . S
H951 C964 0.960 . S
C952 H944 0.929 . S
C952 C953 1.377 . S
C952 C954 1.384 . S
C953 C952 1.377 . S
C953 C959 1.390 . S
C954 H945 0.930 . S
C954 C952 1.384 . S
C954 C955 1.372 . S
C955 C954 1.372 . S
C955 C956 1.400 . S
C955 C960 1.490 . S
C956 H946 0.930 . S
C956 C955 1.400 . S
C956 C959 1.386 . S
H957 C973 0.930 . S
H958 C974 0.931 . S
C959 H947 0.929 . S
C959 C953 1.390 . S
C959 C956 1.386 . S
C960 C955 1.490 . S
C960 C962 1.395 . S
C960 C963 1.403 . S
H961 C967 0.930 . S
C962 H948 0.930 . S
C962 C960 1.395 . S
C962 C965 1.403 . S
C963 C960 1.403 . S
C963 C964 1.524 . S
C963 C967 1.400 . S
C964 H949 0.960 . S
C964 H950 0.960 . S
C964 H951 0.960 . S
C964 C963 1.524 . S
C965 C962 1.403 . S
C965 C966 1.392 . S
C965 C969 1.495 . S
C966 C965 1.392 . S
C966 C967 1.385 . S
C966 C968 1.478 . S
C967 H961 0.930 . S
C967 C963 1.400 . S
C967 C966 1.385 . S
C968 C966 1.478 . S
C968 C970 1.381 . S
C968 C974 1.383 . S
C969 C965 1.495 . S
C969 H975 0.959 . S
C969 H976 0.961 . S
C969 H977 0.960 . S
C970 C968 1.381 . S
C970 C971 1.394 . S
C970 H978 0.930 . S
C971 C970 1.394 . S
C971 C972 1.383 . S
C971 H979 0.929 . S
C972 C971 1.383 . S
C972 C973 1.377 . S
C973 H957 0.930 . S
C973 C972 1.377 . S
C973 C974 1.379 . S
C974 H958 0.931 . S
C974 C968 1.383 . S
C974 C973 1.379 . S
H975 C969 0.959 . S
H976 C969 0.961 . S
H977 C969 0.960 . S
H978 C970 0.930 . S
H979 C971 0.929 . S
H980 C988 0.929 . S
H981 C990 0.930 . S
H982 C992 0.930 . S
H983 C995 0.929 . S
H984 C998 0.930 . S
H985 C1000 0.960 . S
H986 C1000 0.960 . S
H987 C1000 0.960 . S
C988 H980 0.929 . S
C988 C989 1.377 . S
C988 C990 1.384 . S
C989 C988 1.377 . S
C989 C995 1.390 . S
C990 H981 0.930 . S
C990 C988 1.384 . S
C990 C991 1.372 . S
C991 C990 1.372 . S
C991 C992 1.400 . S
C991 C996 1.490 . S
C992 H982 0.930 . S
C992 C991 1.400 . S
C992 C995 1.386 . S
H993 C1009 0.930 . S
H994 C1010 0.931 . S
C995 H983 0.929 . S
C995 C989 1.390 . S
C995 C992 1.386 . S
C996 C991 1.490 . S
C996 C998 1.395 . S
C996 C999 1.403 . S
H997 C1003 0.930 . S
C998 H984 0.930 . S
C998 C996 1.395 . S
C998 C1001 1.403 . S
C999 C996 1.403 . S
C999 C1000 1.524 . S
C999 C1003 1.400 . S
C1000 H985 0.960 . S
C1000 H986 0.960 . S
C1000 H987 0.960 . S
C1000 C999 1.524 . S
C1001 C998 1.403 . S
C1001 C1002 1.392 . S
C1001 C1005 1.495 . S
C1002 C1001 1.392 . S
C1002 C1003 1.385 . S
C1002 C1004 1.478 . S
C1003 H997 0.930 . S
C1003 C999 1.400 . S
C1003 C1002 1.385 . S
C1004 C1002 1.478 . S
C1004 C1006 1.381 . S
C1004 C1010 1.383 . S
C1005 C1001 1.495 . S
C1005 H1011 0.959 . S
C1005 H1012 0.961 . S
C1005 H1013 0.960 . S
C1006 C1004 1.381 . S
C1006 C1007 1.394 . S
C1006 H1014 0.930 . S
C1007 C1006 1.394 . S
C1007 C1008 1.383 . S
C1007 H1015 0.929 . S
C1008 C1007 1.383 . S
C1008 C1009 1.377 . S
C1009 H993 0.930 . S
C1009 C1008 1.377 . S
C1009 C1010 1.379 . S
C1010 H994 0.931 . S
C1010 C1004 1.383 . S
C1010 C1009 1.379 . S
H1011 C1005 0.959 . S
H1012 C1005 0.961 . S
H1013 C1005 0.960 . S
H1014 C1006 0.930 . S
H1015 C1007 0.929 . S
H1016 C1024 0.929 . S
H1017 C1026 0.930 . S
H1018 C1028 0.930 . S
H1019 C1031 0.929 . S
H1020 C1034 0.930 . S
H1021 C1036 0.960 . S
H1022 C1036 0.960 . S
H1023 C1036 0.960 . S
C1024 H1016 0.929 . S
C1024 C1025 1.377 . S
C1024 C1026 1.384 . S
C1025 C1024 1.377 . S
C1025 C1031 1.390 . S
C1026 H1017 0.930 . S
C1026 C1024 1.384 . S
C1026 C1027 1.372 . S
C1027 C1026 1.372 . S
C1027 C1028 1.400 . S
C1027 C1032 1.490 . S
C1028 H1018 0.930 . S
C1028 C1027 1.400 . S
C1028 C1031 1.386 . S
H1029 C1045 0.930 . S
H1030 C1046 0.931 . S
C1031 H1019 0.929 . S
C1031 C1025 1.390 . S
C1031 C1028 1.386 . S
C1032 C1027 1.490 . S
C1032 C1034 1.395 . S
C1032 C1035 1.403 . S
H1033 C1039 0.930 . S
C1034 H1020 0.930 . S
C1034 C1032 1.395 . S
C1034 C1037 1.403 . S
C1035 C1032 1.403 . S
C1035 C1036 1.524 . S
C1035 C1039 1.400 . S
C1036 H1021 0.960 . S
C1036 H1022 0.960 . S
C1036 H1023 0.960 . S
C1036 C1035 1.524 . S
C1037 C1034 1.403 . S
C1037 C1038 1.392 . S
C1037 C1041 1.495 . S
C1038 C1037 1.392 . S
C1038 C1039 1.385 . S
C1038 C1040 1.478 . S
C1039 H1033 0.930 . S
C1039 C1035 1.400 . S
C1039 C1038 1.385 . S
C1040 C1038 1.478 . S
C1040 C1042 1.381 . S
C1040 C1046 1.383 . S
C1041 C1037 1.495 . S
C1041 H1047 0.959 . S
C1041 H1048 0.961 . S
C1041 H1049 0.960 . S
C1042 C1040 1.381 . S
C1042 C1043 1.394 . S
C1042 H1050 0.930 . S
C1043 C1042 1.394 . S
C1043 C1044 1.383 . S
C1043 H1051 0.929 . S
C1044 C1043 1.383 . S
C1044 C1045 1.377 . S
C1045 H1029 0.930 . S
C1045 C1044 1.377 . S
C1045 C1046 1.379 . S
C1046 H1030 0.931 . S
C1046 C1040 1.383 . S
C1046 C1045 1.379 . S
H1047 C1041 0.959 . S
H1048 C1041 0.961 . S
H1049 C1041 0.960 . S
H1050 C1042 0.930 . S
H1051 C1043 0.929 . S
H1052 C1060 0.929 . S
H1053 C1062 0.930 . S
H1054 C1064 0.930 . S
H1055 C1067 0.929 . S
H1056 C1070 0.930 . S
H1057 C1072 0.960 . S
H1058 C1072 0.960 . S
H1059 C1072 0.960 . S
C1060 H1052 0.929 . S
C1060 C1061 1.377 . S
C1060 C1062 1.384 . S
C1061 C1060 1.377 . S
C1061 C1067 1.390 . S
C1062 H1053 0.930 . S
C1062 C1060 1.384 . S
C1062 C1063 1.372 . S
C1063 C1062 1.372 . S
C1063 C1064 1.400 . S
C1063 C1068 1.490 . S
C1064 H1054 0.930 . S
C1064 C1063 1.400 . S
C1064 C1067 1.386 . S
H1065 C1081 0.930 . S
H1066 C1082 0.931 . S
C1067 H1055 0.929 . S
C1067 C1061 1.390 . S
C1067 C1064 1.386 . S
C1068 C1063 1.490 . S
C1068 C1070 1.395 . S
C1068 C1071 1.403 . S
H1069 C1075 0.930 . S
C1070 H1056 0.930 . S
C1070 C1068 1.395 . S
C1070 C1073 1.403 . S
C1071 C1068 1.403 . S
C1071 C1072 1.524 . S
C1071 C1075 1.400 . S
C1072 H1057 0.960 . S
C1072 H1058 0.960 . S
C1072 H1059 0.960 . S
C1072 C1071 1.524 . S
C1073 C1070 1.403 . S
C1073 C1074 1.392 . S
C1073 C1077 1.495 . S
C1074 C1073 1.392 . S
C1074 C1075 1.385 . S
C1074 C1076 1.478 . S
C1075 H1069 0.930 . S
C1075 C1071 1.400 . S
C1075 C1074 1.385 . S
C1076 C1074 1.478 . S
C1076 C1078 1.381 . S
C1076 C1082 1.383 . S
C1077 C1073 1.495 . S
C1077 H1083 0.959 . S
C1077 H1084 0.961 . S
C1077 H1085 0.960 . S
C1078 C1076 1.381 . S
C1078 C1079 1.394 . S
C1078 H1086 0.930 . S
C1079 C1078 1.394 . S
C1079 C1080 1.383 . S
C1079 H1087 0.929 . S
C1080 C1079 1.383 . S
C1080 C1081 1.377 . S
C1081 H1065 0.930 . S
C1081 C1080 1.377 . S
C1081 C1082 1.379 . S
C1082 H1066 0.931 . S
C1082 C1076 1.383 . S
C1082 C1081 1.379 . S
H1083 C1077 0.959 . S
H1084 C1077 0.961 . S
H1085 C1077 0.960 . S
H1086 C1078 0.930 . S
H1087 C1079 0.929 . S
H1088 C1096 0.929 . S
H1089 C1098 0.930 . S
H1090 C1100 0.930 . S
H1091 C1103 0.929 . S
H1092 C1106 0.930 . S
H1093 C1108 0.960 . S
H1094 C1108 0.960 . S
H1095 C1108 0.960 . S
C1096 H1088 0.929 . S
C1096 C1097 1.377 . S
C1096 C1098 1.384 . S
C1097 C1096 1.377 . S
C1097 C1103 1.390 . S
C1098 H1089 0.930 . S
C1098 C1096 1.384 . S
C1098 C1099 1.372 . S
C1099 C1098 1.372 . S
C1099 C1100 1.400 . S
C1099 C1104 1.490 . S
C1100 H1090 0.930 . S
C1100 C1099 1.400 . S
C1100 C1103 1.386 . S
H1101 C1117 0.930 . S
H1102 C1118 0.931 . S
C1103 H1091 0.929 . S
C1103 C1097 1.390 . S
C1103 C1100 1.386 . S
C1104 C1099 1.490 . S
C1104 C1106 1.395 . S
C1104 C1107 1.403 . S
H1105 C1111 0.930 . S
C1106 H1092 0.930 . S
C1106 C1104 1.395 . S
C1106 C1109 1.403 . S
C1107 C1104 1.403 . S
C1107 C1108 1.524 . S
C1107 C1111 1.400 . S
C1108 H1093 0.960 . S
C1108 H1094 0.960 . S
C1108 H1095 0.960 . S
C1108 C1107 1.524 . S
C1109 C1106 1.403 . S
C1109 C1110 1.392 . S
C1109 C1113 1.495 . S
C1110 C1109 1.392 . S
C1110 C1111 1.385 . S
C1110 C1112 1.478 . S
C1111 H1105 0.930 . S
C1111 C1107 1.400 . S
C1111 C1110 1.385 . S
C1112 C1110 1.478 . S
C1112 C1114 1.381 . S
C1112 C1118 1.383 . S
C1113 C1109 1.495 . S
C1113 H1119 0.959 . S
C1113 H1120 0.961 . S
C1113 H1121 0.960 . S
C1114 C1112 1.381 . S
C1114 C1115 1.394 . S
C1114 H1122 0.930 . S
C1115 C1114 1.394 . S
C1115 C1116 1.383 . S
C1115 H1123 0.929 . S
C1116 C1115 1.383 . S
C1116 C1117 1.377 . S
C1117 H1101 0.930 . S
C1117 C1116 1.377 . S
C1117 C1118 1.379 . S
C1118 H1102 0.931 . S
C1118 C1112 1.383 . S
C1118 C1117 1.379 . S
H1119 C1113 0.959 . S
H1120 C1113 0.961 . S
H1121 C1113 0.960 . S
H1122 C1114 0.930 . S
H1123 C1115 0.929 . S
H1124 C1132 0.929 . S
H1125 C1134 0.930 . S
H1126 C1136 0.930 . S
H1127 C1139 0.929 . S
H1128 C1142 0.930 . S
H1129 C1144 0.960 . S
H1130 C1144 0.960 . S
H1131 C1144 0.960 . S
C1132 H1124 0.929 . S
C1132 C1133 1.377 . S
C1132 C1134 1.384 . S
C1133 C1132 1.377 . S
C1133 C1139 1.390 . S
C1134 H1125 0.930 . S
C1134 C1132 1.384 . S
C1134 C1135 1.372 . S
C1135 C1134 1.372 . S
C1135 C1136 1.400 . S
C1135 C1140 1.490 . S
C1136 H1126 0.930 . S
C1136 C1135 1.400 . S
C1136 C1139 1.386 . S
H1137 C1153 0.930 . S
H1138 C1154 0.931 . S
C1139 H1127 0.929 . S
C1139 C1133 1.390 . S
C1139 C1136 1.386 . S
C1140 C1135 1.490 . S
C1140 C1142 1.395 . S
C1140 C1143 1.403 . S
H1141 C1147 0.930 . S
C1142 H1128 0.930 . S
C1142 C1140 1.395 . S
C1142 C1145 1.403 . S
C1143 C1140 1.403 . S
C1143 C1144 1.524 . S
C1143 C1147 1.400 . S
C1144 H1129 0.960 . S
C1144 H1130 0.960 . S
C1144 H1131 0.960 . S
C1144 C1143 1.524 . S
C1145 C1142 1.403 . S
C1145 C1146 1.392 . S
C1145 C1149 1.495 . S
C1146 C1145 1.392 . S
C1146 C1147 1.385 . S
C1146 C1148 1.478 . S
C1147 H1141 0.930 . S
C1147 C1143 1.400 . S
C1147 C1146 1.385 . S
C1148 C1146 1.478 . S
C1148 C1150 1.381 . S
C1148 C1154 1.383 . S
C1149 C1145 1.495 . S
C1149 H1155 0.959 . S
C1149 H1156 0.961 . S
C1149 H1157 0.960 . S
C1150 C1148 1.381 . S
C1150 C1151 1.394 . S
C1150 H1158 0.930 . S
C1151 C1150 1.394 . S
C1151 C1152 1.383 . S
C1151 H1159 0.929 . S
C1152 C1151 1.383 . S
C1152 C1153 1.377 . S
C1153 H1137 0.930 . S
C1153 C1152 1.377 . S
C1153 C1154 1.379 . S
C1154 H1138 0.931 . S
C1154 C1148 1.383 . S
C1154 C1153 1.379 . S
H1155 C1149 0.959 . S
H1156 C1149 0.961 . S
H1157 C1149 0.960 . S
H1158 C1150 0.930 . S
H1159 C1151 0.929 . S
H1160 C1168 0.929 . S
H1161 C1170 0.930 . S
H1162 C1172 0.930 . S
H1163 C1175 0.929 . S
H1164 C1178 0.930 . S
H1165 C1180 0.960 . S
H1166 C1180 0.960 . S
H1167 C1180 0.960 . S
C1168 H1160 0.929 . S
C1168 C1169 1.377 . S
C1168 C1170 1.384 . S
C1169 C1168 1.377 . S
C1169 C1175 1.390 . S
C1170 H1161 0.930 . S
C1170 C1168 1.384 . S
C1170 C1171 1.372 . S
C1171 C1170 1.372 . S
C1171 C1172 1.400 . S
C1171 C1176 1.490 . S
C1172 H1162 0.930 . S
C1172 C1171 1.400 . S
C1172 C1175 1.386 . S
H1173 C1189 0.930 . S
H1174 C1190 0.931 . S
C1175 H1163 0.929 . S
C1175 C1169 1.390 . S
C1175 C1172 1.386 . S
C1176 C1171 1.490 . S
C1176 C1178 1.395 . S
C1176 C1179 1.403 . S
H1177 C1183 0.930 . S
C1178 H1164 0.930 . S
C1178 C1176 1.395 . S
C1178 C1181 1.403 . S
C1179 C1176 1.403 . S
C1179 C1180 1.524 . S
C1179 C1183 1.400 . S
C1180 H1165 0.960 . S
C1180 H1166 0.960 . S
C1180 H1167 0.960 . S
C1180 C1179 1.524 . S
C1181 C1178 1.403 . S
C1181 C1182 1.392 . S
C1181 C1185 1.495 . S
C1182 C1181 1.392 . S
C1182 C1183 1.385 . S
C1182 C1184 1.478 . S
C1183 H1177 0.930 . S
C1183 C1179 1.400 . S
C1183 C1182 1.385 . S
C1184 C1182 1.478 . S
C1184 C1186 1.381 . S
C1184 C1190 1.383 . S
C1185 C1181 1.495 . S
C1185 H1191 0.959 . S
C1185 H1192 0.961 . S
C1185 H1193 0.960 . S
C1186 C1184 1.381 . S
C1186 C1187 1.394 . S
C1186 H1194 0.930 . S
C1187 C1186 1.394 . S
C1187 C1188 1.383 . S
C1187 H1195 0.929 . S
C1188 C1187 1.383 . S
C1188 C1189 1.377 . S
C1189 H1173 0.930 . S
C1189 C1188 1.377 . S
C1189 C1190 1.379 . S
C1190 H1174 0.931 . S
C1190 C1184 1.383 . S
C1190 C1189 1.379 . S
H1191 C1185 0.959 . S
H1192 C1185 0.961 . S
H1193 C1185 0.960 . S
H1194 C1186 0.930 . S
H1195 C1187 0.929 . S
H1196 C1204 0.929 . S
H1197 C1206 0.930 . S
H1198 C1208 0.930 . S
H1199 C1211 0.929 . S
H1200 C1214 0.930 . S
H1201 C1216 0.960 . S
H1202 C1216 0.960 . S
H1203 C1216 0.960 . S
C1204 H1196 0.929 . S
C1204 C1205 1.377 . S
C1204 C1206 1.384 . S
C1205 C1204 1.377 . S
C1205 C1211 1.390 . S
C1206 H1197 0.930 . S
C1206 C1204 1.384 . S
C1206 C1207 1.372 . S
C1207 C1206 1.372 . S
C1207 C1208 1.400 . S
C1207 C1212 1.490 . S
C1208 H1198 0.930 . S
C1208 C1207 1.400 . S
C1208 C1211 1.386 . S
H1209 C1225 0.930 . S
H1210 C1226 0.931 . S
C1211 H1199 0.929 . S
C1211 C1205 1.390 . S
C1211 C1208 1.386 . S
C1212 C1207 1.490 . S
C1212 C1214 1.395 . S
C1212 C1215 1.403 . S
H1213 C1219 0.930 . S
C1214 H1200 0.930 . S
C1214 C1212 1.395 . S
C1214 C1217 1.403 1_556 S
C1215 C1212 1.403 . S
C1215 C1216 1.524 . S
C1215 C1219 1.400 1_556 S
C1216 H1201 0.960 . S
C1216 H1202 0.960 . S
C1216 H1203 0.960 . S
C1216 C1215 1.524 . S
C1217 C1214 1.403 1_554 S
C1217 C1218 1.392 . S
C1217 C1221 1.495 . S
C1218 C1217 1.392 . S
C1218 C1219 1.385 . S
C1218 C1220 1.478 . S
C1219 H1213 0.930 . S
C1219 C1215 1.400 1_554 S
C1219 C1218 1.385 . S
C1220 C1218 1.478 . S
C1220 C1222 1.381 . S
C1220 C1226 1.383 . S
C1221 C1217 1.495 . S
C1221 H1227 0.959 . S
C1221 H1228 0.961 . S
C1221 H1229 0.960 . S
C1222 C1220 1.381 . S
C1222 C1223 1.394 . S
C1222 H1230 0.930 . S
C1223 C1222 1.394 . S
C1223 C1224 1.383 . S
C1223 H1231 0.929 . S
C1224 C1223 1.383 . S
C1224 C1225 1.377 . S
C1225 H1209 0.930 . S
C1225 C1224 1.377 . S
C1225 C1226 1.379 . S
C1226 H1210 0.931 . S
C1226 C1220 1.383 . S
C1226 C1225 1.379 . S
H1227 C1221 0.959 . S
H1228 C1221 0.961 . S
H1229 C1221 0.960 . S
H1230 C1222 0.930 . S
H1231 C1223 0.929 . S
H1232 C1240 0.929 . S
H1233 C1242 0.930 . S
H1234 C1244 0.930 . S
H1235 C1247 0.929 . S
H1236 C1250 0.930 . S
H1237 C1252 0.952 . S
H1238 C1252 0.960 . S
H1239 C1252 0.960 . S
C1240 H1232 0.929 . S
C1240 C1241 1.377 . S
C1240 C1242 1.384 . S
C1241 C1240 1.377 . S
C1241 C1247 1.390 . S
C1242 H1233 0.930 . S
C1242 C1240 1.384 . S
C1242 C1243 1.372 . S
C1243 C1242 1.372 . S
C1243 C1244 1.400 . S
C1243 C1248 1.490 . S
C1244 H1234 0.930 . S
C1244 C1243 1.400 . S
C1244 C1247 1.386 . S
H1245 C1261 0.930 . S
H1246 C1262 0.931 . S
C1247 H1235 0.929 . S
C1247 C1241 1.390 . S
C1247 C1244 1.386 . S
C1248 C1243 1.490 . S
C1248 C1250 1.395 . S
C1248 C1251 1.403 . S
H1249 C1255 0.930 . S
C1250 H1236 0.930 . S
C1250 C1248 1.395 . S
C1250 C1253 1.403 1_554 S
C1251 C1248 1.403 . S
C1251 C1252 1.524 . S
C1251 C1255 1.400 1_554 S
C1252 H1237 0.952 . S
C1252 H1238 0.960 . S
C1252 H1239 0.960 . S
C1252 C1251 1.524 . S
C1253 C1250 1.403 1_556 S
C1253 C1254 1.392 . S
C1253 C1257 1.495 . S
C1254 C1253 1.392 . S
C1254 C1255 1.385 . S
C1254 C1256 1.478 . S
C1255 H1249 0.930 . S
C1255 C1251 1.400 1_556 S
C1255 C1254 1.385 . S
C1256 C1254 1.478 . S
C1256 C1258 1.381 . S
C1256 C1262 1.383 . S
C1257 C1253 1.495 . S
C1257 H1263 0.949 1_556 S
C1257 H1264 0.961 . S
C1257 H1265 0.960 . S
C1258 C1256 1.381 . S
C1258 C1259 1.394 . S
C1258 H1266 0.930 . S
C1259 C1258 1.394 . S
C1259 C1260 1.383 . S
C1259 H1267 0.929 . S
C1260 C1259 1.383 . S
C1260 C1261 1.377 . S
C1261 H1245 0.930 . S
C1261 C1260 1.377 . S
C1261 C1262 1.379 . S
C1262 H1246 0.931 . S
C1262 C1256 1.383 . S
C1262 C1261 1.379 . S
H1263 C1257 0.949 1_554 S
H1264 C1257 0.961 . S
H1265 C1257 0.960 . S
H1266 C1258 0.930 . S
H1267 C1259 0.929 . S
H1268 C1276 0.929 . S
H1269 C1278 0.930 . S
H1270 C1280 0.930 . S
H1271 C1283 0.929 . S
H1272 C1286 0.930 . S
H1273 C1288 0.960 . S
H1274 C1288 0.960 . S
H1275 C1288 0.960 . S
C1276 H1268 0.929 . S
C1276 C1277 1.377 . S
C1276 C1278 1.384 . S
C1277 C1276 1.377 . S
C1277 C1283 1.390 . S
C1278 H1269 0.930 . S
C1278 C1276 1.384 . S
C1278 C1279 1.372 . S
C1279 C1278 1.372 . S
C1279 C1280 1.400 . S
C1279 C1284 1.490 . S
C1280 H1270 0.930 . S
C1280 C1279 1.400 . S
C1280 C1283 1.386 . S
H1281 C1297 0.930 . S
H1282 C1298 0.931 . S
C1283 H1271 0.929 . S
C1283 C1277 1.390 . S
C1283 C1280 1.386 . S
C1284 C1279 1.490 . S
C1284 C1286 1.395 . S
C1284 C1287 1.403 . S
H1285 C1291 0.930 . S
C1286 H1272 0.930 . S
C1286 C1284 1.395 . S
C1286 C1289 1.403 . S
C1287 C1284 1.403 . S
C1287 C1288 1.524 . S
C1287 C1291 1.400 . S
C1288 H1273 0.960 . S
C1288 H1274 0.960 . S
C1288 H1275 0.960 . S
C1288 C1287 1.524 . S
C1289 C1286 1.403 . S
C1289 C1290 1.392 . S
C1289 C1293 1.495 . S
C1290 C1289 1.392 . S
C1290 C1291 1.385 . S
C1290 C1292 1.478 . S
C1291 H1285 0.930 . S
C1291 C1287 1.400 . S
C1291 C1290 1.385 . S
C1292 C1290 1.478 . S
C1292 C1294 1.381 . S
C1292 C1298 1.383 . S
C1293 C1289 1.495 . S
C1293 H1299 0.959 . S
C1293 H1300 0.961 . S
C1293 H1301 0.960 . S
C1294 C1292 1.381 . S
C1294 C1295 1.394 . S
C1294 H1302 0.930 . S
C1295 C1294 1.394 . S
C1295 C1296 1.383 . S
C1295 H1303 0.929 . S
C1296 C1295 1.383 . S
C1296 C1297 1.377 . S
C1297 H1281 0.930 . S
C1297 C1296 1.377 . S
C1297 C1298 1.379 . S
C1298 H1282 0.931 . S
C1298 C1292 1.383 . S
C1298 C1297 1.379 . S
H1299 C1293 0.959 . S
H1300 C1293 0.961 . S
H1301 C1293 0.960 . S
H1302 C1294 0.930 . S
H1303 C1295 0.929 . S
H1304 C1312 0.929 . S
H1305 C1314 0.930 . S
H1306 C1316 0.930 . S
H1307 C1319 0.929 . S
H1308 C1322 0.930 . S
H1309 C1324 0.960 . S
H1310 C1324 0.960 . S
H1311 C1324 0.960 . S
C1312 H1304 0.929 . S
C1312 C1313 1.377 . S
C1312 C1314 1.384 . S
C1313 C1312 1.377 . S
C1313 C1319 1.390 . S
C1314 H1305 0.930 . S
C1314 C1312 1.384 . S
C1314 C1315 1.372 . S
C1315 C1314 1.372 . S
C1315 C1316 1.400 . S
C1315 C1320 1.490 . S
C1316 H1306 0.930 . S
C1316 C1315 1.400 . S
C1316 C1319 1.386 . S
H1317 C1333 0.930 . S
H1318 C1334 0.931 . S
C1319 H1307 0.929 . S
C1319 C1313 1.390 . S
C1319 C1316 1.386 . S
C1320 C1315 1.490 . S
C1320 C1322 1.395 . S
C1320 C1323 1.403 . S
H1321 C1327 0.930 . S
C1322 H1308 0.930 . S
C1322 C1320 1.395 . S
C1322 C1325 1.403 . S
C1323 C1320 1.403 . S
C1323 C1324 1.524 . S
C1323 C1327 1.400 . S
C1324 H1309 0.960 . S
C1324 H1310 0.960 . S
C1324 H1311 0.960 . S
C1324 C1323 1.524 . S
C1325 C1322 1.403 . S
C1325 C1326 1.392 . S
C1325 C1329 1.495 . S
C1326 C1325 1.392 . S
C1326 C1327 1.385 . S
C1326 C1328 1.478 . S
C1327 H1321 0.930 . S
C1327 C1323 1.400 . S
C1327 C1326 1.385 . S
C1328 C1326 1.478 . S
C1328 C1330 1.381 . S
C1328 C1334 1.383 . S
C1329 C1325 1.495 . S
C1329 H1335 0.959 . S
C1329 H1336 0.961 . S
C1329 H1337 0.960 . S
C1330 C1328 1.381 . S
C1330 C1331 1.394 . S
C1330 H1338 0.930 . S
C1331 C1330 1.394 . S
C1331 C1332 1.383 . S
C1331 H1339 0.929 . S
C1332 C1331 1.383 . S
C1332 C1333 1.377 . S
C1333 H1317 0.930 . S
C1333 C1332 1.377 . S
C1333 C1334 1.379 . S
C1334 H1318 0.931 . S
C1334 C1328 1.383 . S
C1334 C1333 1.379 . S
H1335 C1329 0.959 . S
H1336 C1329 0.961 . S
H1337 C1329 0.960 . S
H1338 C1330 0.930 . S
H1339 C1331 0.929 . S
H1340 C1348 0.929 . S
H1341 C1350 0.930 . S
H1342 C1352 0.930 . S
H1343 C1355 0.929 . S
H1344 C1358 0.930 . S
H1345 C1360 0.960 . S
H1346 C1360 0.960 . S
H1347 C1360 0.960 . S
C1348 H1340 0.929 . S
C1348 C1349 1.377 . S
C1348 C1350 1.384 . S
C1349 C1348 1.377 . S
C1349 C1355 1.390 . S
C1350 H1341 0.930 . S
C1350 C1348 1.384 . S
C1350 C1351 1.372 . S
C1351 C1350 1.372 . S
C1351 C1352 1.400 . S
C1351 C1356 1.490 . S
C1352 H1342 0.930 . S
C1352 C1351 1.400 . S
C1352 C1355 1.386 . S
H1353 C1369 0.930 . S
H1354 C1370 0.931 . S
C1355 H1343 0.929 . S
C1355 C1349 1.390 . S
C1355 C1352 1.386 . S
C1356 C1351 1.490 . S
C1356 C1358 1.395 . S
C1356 C1359 1.403 . S
H1357 C1363 0.930 . S
C1358 H1344 0.930 . S
C1358 C1356 1.395 . S
C1358 C1361 1.403 . S
C1359 C1356 1.403 . S
C1359 C1360 1.524 . S
C1359 C1363 1.400 . S
C1360 H1345 0.960 . S
C1360 H1346 0.960 . S
C1360 H1347 0.960 . S
C1360 C1359 1.524 . S
C1361 C1358 1.403 . S
C1361 C1362 1.392 . S
C1361 C1365 1.495 . S
C1362 C1361 1.392 . S
C1362 C1363 1.385 . S
C1362 C1364 1.478 . S
C1363 H1357 0.930 . S
C1363 C1359 1.400 . S
C1363 C1362 1.385 . S
C1364 C1362 1.478 . S
C1364 C1366 1.381 . S
C1364 C1370 1.383 . S
C1365 C1361 1.495 . S
C1365 H1371 0.959 . S
C1365 H1372 0.961 . S
C1365 H1373 0.960 . S
C1366 C1364 1.381 . S
C1366 C1367 1.394 . S
C1366 H1374 0.930 . S
C1367 C1366 1.394 . S
C1367 C1368 1.383 . S
C1367 H1375 0.929 . S
C1368 C1367 1.383 . S
C1368 C1369 1.377 . S
C1369 H1353 0.930 . S
C1369 C1368 1.377 . S
C1369 C1370 1.379 . S
C1370 H1354 0.931 . S
C1370 C1364 1.383 . S
C1370 C1369 1.379 . S
H1371 C1365 0.959 . S
H1372 C1365 0.961 . S
H1373 C1365 0.960 . S
H1374 C1366 0.930 . S
H1375 C1367 0.929 . S
C233 C148 1.615 . S
C252 C8 1.619 . S
C269 C22 1.614 . S
C288 C162 1.619 . S
C305 C120 1.614 . S
C324 C36 1.619 . S
C341 C134 1.612 . S
C360 C50 1.613 . S
C377 C64 1.612 . S
C396 C204 1.601 . S
C413 C218 1.614 . S
C432 C78 1.618 . S
C449 C92 1.614 . S
C468 C176 1.619 . S
C485 C190 1.614 . S
C504 C106 1.619 . S
C521 C149 1.478 . S
C540 C9 1.486 . S
C557 C23 1.479 . S
C576 C163 1.486 . S
C593 C37 1.479 . S
C612 C121 1.467 . S
C629 C51 1.475 . S
C648 C135 1.468 . S
C665 C65 1.475 . S
C684 C205 1.466 . S
C701 C79 1.476 . S
C720 C219 1.481 . S
C737 C177 1.478 . S
C756 C93 1.486 . S
C773 C191 1.479 . S
C792 C107 1.467 . S
C809 C7 1.165 . S
C828 C91 1.173 . S
C845 C21 1.166 . S
C864 C105 1.150 . S
C881 C35 1.164 . S
C900 C63 1.137 . S
C917 C49 1.160 . S
C936 C77 1.138 . S
C953 C119 1.166 . S
C972 C203 1.162 . S
C989 C217 1.165 . S
C1008 C133 1.174 . S
C1025 C147 1.166 . S
C1044 C175 1.148 . S
C1061 C189 1.166 . S
C1080 C161 1.150 . S
C1097 C3 1.100 . S
C1116 C213 1.096 . S
C1133 C171 1.091 . S
C1152 C17 1.126 . S
C1169 C185 1.104 . S
C1188 C31 1.069 . S
C1205 C199 1.091 . S
C1224 C45 1.126 . S
C1241 C129 1.104 . S
C1260 C59 1.064 . S
C1277 C143 1.091 . S
C1296 C73 1.126 . S
C1313 C87 1.092 . S
C1332 C157 1.127 . S
C1349 C101 1.092 . S
C1368 C115 1.111 . S
