# Generated by pormake.
# Topology umy, (4)-cn, num edge types: 1
# Building blocks:
#     Node 0, Type 0, BuildingBlock: GALJAG_clean_sbu_0, # of connection points: 4
#     Node 1, Type 0, BuildingBlock: GALJAG_clean_sbu_0, # of connection points: 4
#     Node 2, Type 0, BuildingBlock: GALJAG_clean_sbu_0, # of connection points: 4
#     Node 3, Type 0, BuildingBlock: GALJAG_clean_sbu_0, # of connection points: 4
#     Node 4, Type 0, BuildingBlock: GALJAG_clean_sbu_0, # of connection points: 4
#     Node 5, Type 0, BuildingBlock: GALJAG_clean_sbu_0, # of connection points: 4
#     Node 6, Type 0, BuildingBlock: GALJAG_clean_sbu_0, # of connection points: 4
#     Node 7, Type 0, BuildingBlock: GALJAG_clean_sbu_0, # of connection points: 4
#     Node 8, Type 0, BuildingBlock: GALJAG_clean_sbu_0, # of connection points: 4
#     Node 9, Type 0, BuildingBlock: GALJAG_clean_sbu_0, # of connection points: 4
#     Node 10, Type 0, BuildingBlock: GALJAG_clean_sbu_0, # of connection points: 4
#     Node 11, Type 0, BuildingBlock: GALJAG_clean_sbu_0, # of connection points: 4
#     Edge 12, Type (0, 0), BuildingBlock: EYOCIG_clean_linker_4, # of connection points: 2
#     Edge 13, Type (0, 0), BuildingBlock: EYOCIG_clean_linker_4, # of connection points: 2
#     Edge 14, Type (0, 0), BuildingBlock: EYOCIG_clean_linker_4, # of connection points: 2
#     Edge 15, Type (0, 0), BuildingBlock: EYOCIG_clean_linker_4, # of connection points: 2
#     Edge 16, Type (0, 0), BuildingBlock: EYOCIG_clean_linker_4, # of connection points: 2
#     Edge 17, Type (0, 0), BuildingBlock: EYOCIG_clean_linker_4, # of connection points: 2
#     Edge 18, Type (0, 0), BuildingBlock: EYOCIG_clean_linker_4, # of connection points: 2
#     Edge 19, Type (0, 0), BuildingBlock: EYOCIG_clean_linker_4, # of connection points: 2
#     Edge 20, Type (0, 0), BuildingBlock: EYOCIG_clean_linker_4, # of connection points: 2
#     Edge 21, Type (0, 0), BuildingBlock: EYOCIG_clean_linker_4, # of connection points: 2
#     Edge 22, Type (0, 0), BuildingBlock: EYOCIG_clean_linker_4, # of connection points: 2
#     Edge 23, Type (0, 0), BuildingBlock: EYOCIG_clean_linker_4, # of connection points: 2
#     Edge 24, Type (0, 0), BuildingBlock: EYOCIG_clean_linker_4, # of connection points: 2
#     Edge 25, Type (0, 0), BuildingBlock: EYOCIG_clean_linker_4, # of connection points: 2
#     Edge 26, Type (0, 0), BuildingBlock: EYOCIG_clean_linker_4, # of connection points: 2
#     Edge 27, Type (0, 0), BuildingBlock: EYOCIG_clean_linker_4, # of connection points: 2
#     Edge 28, Type (0, 0), BuildingBlock: EYOCIG_clean_linker_4, # of connection points: 2
#     Edge 29, Type (0, 0), BuildingBlock: EYOCIG_clean_linker_4, # of connection points: 2
#     Edge 30, Type (0, 0), BuildingBlock: EYOCIG_clean_linker_4, # of connection points: 2
#     Edge 31, Type (0, 0), BuildingBlock: EYOCIG_clean_linker_4, # of connection points: 2
#     Edge 32, Type (0, 0), BuildingBlock: EYOCIG_clean_linker_4, # of connection points: 2
#     Edge 33, Type (0, 0), BuildingBlock: EYOCIG_clean_linker_4, # of connection points: 2
#     Edge 34, Type (0, 0), BuildingBlock: EYOCIG_clean_linker_4, # of connection points: 2
#     Edge 35, Type (0, 0), BuildingBlock: EYOCIG_clean_linker_4, # of connection points: 2
# Relax obj value: 0.077
# Max RMSD: 0.076
# Mean RMSD: 0.076
data_MOF--net-umy--node1-GALJAG_clean_sbu_0--edge1-EYOCIG_clean_linker_4
_symmetry_space_group_name_H-M    P1
_symmetry_Int_Tables_number       1
_symmetry_cell_setting            triclinic
loop_
_symmetry_equiv_pos_as_xyz
'x, y, z'
_cell_length_a     28.636961
_cell_length_b     28.635806
_cell_length_c     46.832365
_cell_angle_alpha  89.996737
_cell_angle_beta   89.994126
_cell_angle_gamma 119.9895
loop_
_atom_site_label
_atom_site_type_symbol
_atom_site_fract_x
_atom_site_fract_y
_atom_site_fract_z
_atom_type_partial_charge
In0 In 0.04029 0.33247 0.15133 0.0
O1 O 0.05052 0.28315 0.11544 0.0
O2 O 0.11749 0.36005 0.12592 0.0
C3 C 0.94676 0.2697 0.17969 0.0
C4 C 0.02739 0.40717 0.12438 0.0
C5 C 0.09953 0.34144 0.19658 0.0
O6 O 0.96344 0.25139 0.16004 0.0
O7 O 0.97495 0.31981 0.18374 0.0
O8 O 0.09434 0.38041 0.18803 0.0
O9 O 0.07641 0.29884 0.18198 0.0
C10 C 0.09896 0.31872 0.11037 0.0
O11 O 0.0596 0.41855 0.145 0.0
O12 O 0.00022 0.35791 0.11773 0.0
In13 In 0.69347 0.04769 0.31797 0.0
O14 O 0.62587 0.06594 0.31221 0.0
O15 O 0.62735 0.00696 0.28471 0.0
C16 C 0.7422 0.10615 0.36368 0.0
C17 C 0.76472 0.10785 0.27684 0.0
C18 C 0.66499 0.95411 0.34584 0.0
O19 O 0.69798 0.10047 0.35493 0.0
O20 O 0.76274 0.08415 0.34897 0.0
O21 O 0.69972 0.97164 0.32604 0.0
O22 O 0.6422 0.9814 0.35022 0.0
C23 C 0.60492 0.03369 0.29161 0.0
O24 O 0.75273 0.05956 0.28159 0.0
O25 O 0.74194 0.12566 0.29291 0.0
In26 In 0.63146 0.70046 0.48459 0.0
O27 O 0.54531 0.63385 0.47847 0.0
O28 O 0.60586 0.63412 0.4515 0.0
C29 C 0.62276 0.74949 0.53047 0.0
C30 C 0.6447 0.77196 0.44309 0.0
C31 C 0.69428 0.66988 0.51302 0.0
O32 O 0.58364 0.70587 0.52151 0.0
O33 O 0.6652 0.76965 0.51568 0.0
O34 O 0.71266 0.70501 0.49342 0.0
O35 O 0.6441 0.64764 0.51688 0.0
C36 C 0.55662 0.61234 0.45815 0.0
O37 O 0.68029 0.75917 0.44827 0.0
O38 O 0.60374 0.74989 0.45896 0.0
In39 In 0.91603 0.63812 0.65137 0.0
O40 O 0.89767 0.55238 0.64541 0.0
O41 O 0.95697 0.61308 0.61808 0.0
C42 C 0.85711 0.62905 0.6967 0.0
C43 C 0.8562 0.6497 0.61025 0.0
C44 C 0.00879 0.70171 0.68011 0.0
O45 O 0.86239 0.59017 0.68811 0.0
O46 O 0.87982 0.67161 0.68203 0.0
O47 O -0.00806 0.71979 0.66041 0.0
O48 O -0.01859 0.65145 0.68387 0.0
C49 C 0.93012 0.56385 0.62488 0.0
O50 O 0.90459 0.68581 0.61498 0.0
O51 O 0.83823 0.60903 0.62628 0.0
In52 In 0.26355 0.92379 0.81803 0.0
O53 O 0.20387 0.91293 0.78204 0.0
O54 O 0.21382 0.84615 0.79293 0.0
C55 C 0.29415 0.01753 0.84612 0.0
C56 C 0.35175 0.93657 0.79183 0.0
C57 C 0.21488 0.86625 0.86395 0.0
O58 O 0.25917 0.0007 0.82645 0.0
O59 O 0.31615 -0.01056 0.85024 0.0
O60 O 0.25852 0.87084 0.85496 0.0
O61 O 0.19466 0.88858 0.84926 0.0
C62 C 0.19099 0.86441 0.77721 0.0
O63 O 0.3301 0.90407 0.81226 0.0
O64 O 0.32994 0.96386 0.78485 0.0
In65 In 0.32564 0.27049 0.98462 0.0
O66 O 0.41176 0.33753 0.9792 0.0
O67 O 0.3518 0.33727 0.95172 0.0
C68 C 0.33246 0.21997 0.03019 0.0
C69 C 0.31461 0.19966 0.94331 0.0
C70 C 0.26168 0.29942 0.01316 0.0
O71 O 0.37199 0.26394 0.02187 0.0
O72 O 0.29062 0.20036 0.01497 0.0
O73 O 0.24395 0.26498 0.99321 0.0
O74 O 0.31186 0.32211 0.01719 0.0
C75 C 0.40089 0.35916 0.95875 0.0
O76 O 0.2786 0.21214 0.94789 0.0
O77 O 0.35494 0.22183 0.95959 0.0
In78 In 0.63169 0.92385 0.69835 0.0
O79 O 0.68016 0.91371 0.73473 0.0
O80 O 0.60339 0.84674 0.72408 0.0
C81 C 0.69536 0.01765 0.67029 0.0
C82 C 0.55688 0.93706 0.72495 0.0
C83 C 0.62297 0.86455 0.65311 0.0
O84 O 0.7132 0.00047 0.68994 0.0
O85 O 0.64528 -0.01023 0.66606 0.0
O86 O 0.58405 0.86996 0.66149 0.0
O87 O 0.66537 0.88741 0.66789 0.0
C88 C 0.64434 0.86543 0.73994 0.0
O89 O 0.5456 0.90481 0.70435 0.0
O90 O 0.60609 0.96417 0.73169 0.0
In91 In 0.6935 0.63878 0.86506 0.0
O92 O 0.75229 0.68663 0.9015 0.0
O93 O 0.74226 0.60994 0.89044 0.0
C94 C 0.66465 0.70356 0.83715 0.0
C95 C 0.6053 0.56417 0.89164 0.0
C96 C 0.74198 0.6291 0.8192 0.0
O97 O 0.69951 0.7209 0.85688 0.0
O98 O 0.64186 0.65346 0.83287 0.0
O99 O 0.69793 0.59049 0.82808 0.0
O100 O 0.76265 0.67156 0.83396 0.0
C101 C 0.7645 0.65057 0.90651 0.0
O102 O 0.62628 0.5528 0.87107 0.0
O103 O 0.62742 0.6134 0.89833 0.0
In104 In 0.04033 0.70068 0.03155 0.0
O105 O 0.05166 0.76017 0.06772 0.0
O106 O 0.11805 0.74968 0.05667 0.0
C107 C 0.94639 0.67088 1.00375 0.0
C108 C 0.02757 0.61223 0.05751 0.0
C109 C 0.09926 0.75083 0.98622 0.0
O110 O 0.96349 0.70554 0.02358 0.0
O111 O 0.9744 0.64892 0.99925 0.0
O112 O 0.0938 0.70651 0.99464 0.0
O113 O 0.07647 0.7705 1.00095 0.0
C114 C 0.1001 0.7727 0.07247 0.0
O115 O 0.05962 0.6337 0.03689 0.0
O116 O 0.0006 0.63424 0.06475 0.0
In117 In 0.32567 0.04779 0.19824 0.0
O118 O 0.41165 0.06666 0.20414 0.0
O119 O 0.35115 0.00725 0.23153 0.0
C120 C 0.33244 0.1056 0.1529 0.0
C121 C 0.31382 0.10772 0.23916 0.0
C122 C 0.26289 0.95487 0.16951 0.0
O123 O 0.3721 0.1013 0.16117 0.0
O124 O 0.29042 0.08268 0.16796 0.0
O125 O 0.24455 0.97122 0.18933 0.0
O126 O 0.31309 0.98283 0.16565 0.0
C127 C 0.40035 0.03422 0.22467 0.0
O128 O 0.27789 0.0592 0.23454 0.0
O129 O 0.35459 0.1257 0.2232 0.0
In130 In 0.26361 0.33298 0.36492 0.0
O131 O 0.20432 0.28533 0.40128 0.0
O132 O 0.21479 0.36212 0.38995 0.0
C133 C 0.29366 0.26988 0.33636 0.0
C134 C 0.3519 0.40744 0.39135 0.0
C135 C 0.21475 0.34155 0.31905 0.0
O136 O 0.25877 0.2516 0.3561 0.0
O137 O 0.316 0.32007 0.33251 0.0
O138 O 0.25841 0.38067 0.32796 0.0
O139 O 0.1945 0.29911 0.33384 0.0
C140 C 0.19211 0.3215 0.40602 0.0
O141 O 0.33071 0.41884 0.3709 0.0
O142 O 0.32972 0.35822 0.39813 0.0
In143 In 0.91642 0.27079 0.53163 0.0
O144 O 0.8976 0.3379 0.53754 0.0
O145 O 0.95713 0.3369 0.56483 0.0
C146 C 0.85771 0.22151 0.48608 0.0
C147 C 0.85731 0.19983 0.57315 0.0
C148 C 0.00994 0.30108 0.5033 0.0
O149 O 0.86288 0.26548 0.49491 0.0
O150 O 0.88029 0.2014 0.50067 0.0
O151 O -0.00706 0.26582 0.52284 0.0
O152 O -0.0179 0.32343 0.49939 0.0
C153 C 0.93009 0.35906 0.55802 0.0
O154 O 0.90558 0.21199 0.56813 0.0
O155 O 0.83899 0.22218 0.55712 0.0
C156 C 0.02181 0.52832 0.08369 0.0
C157 C 0.02351 0.56663 0.07218 0.0
C158 C 0.02174 0.48441 0.09711 0.0
C159 C 0.02328 0.4481 0.10908 0.0
C160 C 0.52143 0.02757 0.26479 0.0
C161 C 0.55955 0.02932 0.27655 0.0
C162 C 0.47763 0.02772 0.25136 0.0
C163 C 0.44133 0.02968 0.23964 0.0
C164 C 0.47937 0.52868 0.43143 0.0
C165 C 0.51564 0.56687 0.44318 0.0
C166 C 0.43556 0.48475 0.41803 0.0
C167 C 0.39736 0.44838 0.40634 0.0
C168 C 0.93649 0.48662 0.59811 0.0
C169 C 0.93468 0.52298 0.60983 0.0
C170 C 0.93643 0.4427 0.58473 0.0
C171 C 0.93457 0.40451 0.57301 0.0
C172 C 0.47966 0.9428 0.75216 0.0
C173 C 0.51591 0.94117 0.7402 0.0
C174 C 0.43576 0.94271 0.76561 0.0
C175 C 0.39741 0.94087 0.77714 0.0
C176 C 0.47869 0.44304 0.93239 0.0
C177 C 0.44223 0.40475 0.94399 0.0
C178 C 0.52243 0.48692 0.91889 0.0
C179 C 0.56027 0.52321 0.90692 0.0
C180 C 0.16092 0.31234 0.07011 0.0
C181 C 0.13131 0.31363 0.08821 0.0
C182 C 0.19653 0.31058 0.0495 0.0
C183 C 0.22642 0.30565 0.033 0.0
C184 C 0.83127 0.17021 0.2361 0.0
C185 C 0.80114 0.14071 0.25447 0.0
C186 C 0.86872 0.20552 0.21545 0.0
C187 C 0.90433 0.235 0.19922 0.0
C188 C 0.65071 0.83872 0.40196 0.0
C189 C 0.64943 0.8085 0.42048 0.0
C190 C 0.65291 0.8762 0.38127 0.0
C191 C 0.65837 0.91172 0.36514 0.0
C192 C 0.75831 0.65633 0.54906 0.0
C193 C 0.72889 0.66231 0.53271 0.0
C194 C 0.79366 0.65424 0.56971 0.0
C195 C 0.82331 0.65353 0.58797 0.0
C196 C 0.08526 0.76634 0.7165 0.0
C197 C 0.05036 0.73662 0.7 0.0
C198 C 0.12267 0.80196 0.73709 0.0
C199 C 0.15357 0.83173 0.75514 0.0
C200 C 0.30794 0.09557 0.88186 0.0
C201 C 0.30178 0.05997 0.86562 0.0
C202 C 0.31022 0.13306 0.90254 0.0
C203 C 0.31096 0.16323 0.92091 0.0
C204 C 0.65226 0.7692 0.80172 0.0
C205 C 0.65784 0.7392 0.81784 0.0
C206 C 0.65004 0.8045 0.78105 0.0
C207 C 0.64886 0.83348 0.76253 0.0
C208 C 0.83041 0.65534 0.94779 0.0
C209 C 0.80056 0.65445 0.92917 0.0
C210 C 0.86786 0.65762 0.9685 0.0
C211 C 0.90367 0.66358 0.98453 0.0
C212 C 0.19863 0.87827 0.13309 0.0
C213 C 0.22821 0.91324 0.1496 0.0
C214 C 0.16299 0.84085 0.11252 0.0
C215 C 0.13308 0.81003 0.0945 0.0
C216 C 0.30867 0.17044 0.27938 0.0
C217 C 0.30967 0.14072 0.26127 0.0
C218 C 0.30653 0.20579 0.30004 0.0
C219 C 0.30083 0.2352 0.31653 0.0
C220 C 0.12537 0.31712 0.44674 0.0
C221 C 0.15559 0.31782 0.42839 0.0
C222 C 0.0879 0.3149 0.46744 0.0
C223 C 0.05233 0.30876 0.48372 0.0
C224 C 0.7957 0.13369 0.61427 0.0
C225 C 0.82497 0.16362 0.59575 0.0
C226 C 0.76031 0.09618 0.63492 0.0
C227 C 0.73054 0.06036 0.65099 0.0
C228 C 0.17199 0.34427 0.27025 0.0
C229 C 0.1919 0.34348 0.29253 0.0
C230 C 0.14843 0.34445 0.24421 0.0
C231 C 0.1262 0.34368 0.22247 0.0
C232 C 0.80986 0.17752 0.43792 0.0
C233 C 0.83163 0.19803 0.45991 0.0
C234 C 0.78607 0.15383 0.4119 0.0
C235 C 0.76555 0.13214 0.38989 0.0
C236 C 0.62017 0.81574 0.60544 0.0
C237 C 0.62093 0.83794 0.6272 0.0
C238 C 0.62025 0.79218 0.57936 0.0
C239 C 0.6209 0.77227 0.55704 0.0
C240 C 0.8086 0.62564 0.74454 0.0
C241 C 0.83068 0.6267 0.7227 0.0
C242 C 0.78492 0.62563 0.77058 0.0
C243 C 0.76484 0.62666 0.79277 0.0
C244 C 0.17209 0.82044 0.91266 0.0
C245 C 0.19205 0.84128 0.89041 0.0
C246 C 0.1484 0.79669 0.93866 0.0
C247 C 0.12604 0.77532 0.96037 0.0
C248 C 0.33311 0.15202 0.10481 0.0
C249 C 0.33324 0.13089 0.12677 0.0
C250 C 0.33306 0.17543 0.07873 0.0
C251 C 0.33317 0.1961 0.05656 0.0
loop_
_geom_bond_atom_site_label_1
_geom_bond_atom_site_label_2
_geom_bond_distance
_geom_bond_site_symmetry_2
_ccdc_geom_bond_type
In0 O1 2.294 . S
In0 O2 2.326 . S
In0 O6 2.266 1_455 S
In0 O7 2.333 . S
In0 O8 2.266 . S
In0 O9 2.326 . S
In0 O11 2.294 . S
In0 O12 2.326 . S
O1 In0 2.294 . S
O1 C10 1.240 . S
O2 In0 2.326 . S
O2 C10 1.252 . S
C3 O6 1.252 . S
C3 O7 1.259 1_655 S
C4 O11 1.240 . S
C4 O12 1.252 . S
C5 O8 1.252 . S
C5 O9 1.260 . S
O6 In0 2.266 1_655 S
O6 C3 1.252 . S
O7 In0 2.333 . S
O7 C3 1.259 1_455 S
O8 In0 2.266 . S
O8 C5 1.252 . S
O9 In0 2.326 . S
O9 C5 1.260 . S
C10 O1 1.240 . S
C10 O2 1.252 . S
O11 In0 2.294 . S
O11 C4 1.240 . S
O12 In0 2.326 . S
O12 C4 1.252 . S
In13 O14 2.294 . S
In13 O15 2.326 . S
In13 O19 2.266 . S
In13 O20 2.326 . S
In13 O21 2.266 1_545 S
In13 O22 2.330 . S
In13 O24 2.294 . S
In13 O25 2.326 . S
O14 In13 2.294 . S
O14 C23 1.240 . S
O15 In13 2.326 . S
O15 C23 1.252 . S
C16 O19 1.252 . S
C16 O20 1.260 . S
C17 O24 1.240 . S
C17 O25 1.252 . S
C18 O21 1.252 . S
C18 O22 1.251 1_565 S
O19 In13 2.266 . S
O19 C16 1.252 . S
O20 In13 2.326 . S
O20 C16 1.260 . S
O21 In13 2.266 1_565 S
O21 C18 1.252 . S
O22 In13 2.330 . S
O22 C18 1.251 1_545 S
C23 O14 1.240 . S
C23 O15 1.252 . S
O24 In13 2.294 . S
O24 C17 1.240 . S
O25 In13 2.326 . S
O25 C17 1.252 . S
In26 O27 2.294 . S
In26 O28 2.326 . S
In26 O32 2.266 . S
In26 O33 2.326 . S
In26 O34 2.266 . S
In26 O35 2.326 . S
In26 O37 2.294 . S
In26 O38 2.326 . S
O27 In26 2.294 . S
O27 C36 1.240 . S
O28 In26 2.326 . S
O28 C36 1.252 . S
C29 O32 1.252 . S
C29 O33 1.260 . S
C30 O37 1.240 . S
C30 O38 1.252 . S
C31 O34 1.252 . S
C31 O35 1.260 . S
O32 In26 2.266 . S
O32 C29 1.252 . S
O33 In26 2.326 . S
O33 C29 1.260 . S
O34 In26 2.266 . S
O34 C31 1.252 . S
O35 In26 2.326 . S
O35 C31 1.260 . S
C36 O27 1.240 . S
C36 O28 1.252 . S
O37 In26 2.294 . S
O37 C30 1.240 . S
O38 In26 2.326 . S
O38 C30 1.252 . S
In39 O40 2.294 . S
In39 O41 2.326 . S
In39 O45 2.266 . S
In39 O46 2.326 . S
In39 O47 2.266 1_655 S
In39 O48 2.333 . S
In39 O50 2.294 . S
In39 O51 2.326 . S
O40 In39 2.294 . S
O40 C49 1.240 . S
O41 In39 2.326 . S
O41 C49 1.252 . S
C42 O45 1.252 . S
C42 O46 1.260 . S
C43 O50 1.240 . S
C43 O51 1.252 . S
C44 O47 1.252 . S
C44 O48 1.259 1_455 S
O45 In39 2.266 . S
O45 C42 1.252 . S
O46 In39 2.326 . S
O46 C42 1.260 . S
O47 In39 2.266 1_455 S
O47 C44 1.252 . S
O48 In39 2.333 . S
O48 C44 1.259 1_655 S
C49 O40 1.240 . S
C49 O41 1.252 . S
O50 In39 2.294 . S
O50 C43 1.240 . S
O51 In39 2.326 . S
O51 C43 1.252 . S
In52 O53 2.294 . S
In52 O54 2.326 . S
In52 O58 2.266 1_565 S
In52 O59 2.330 . S
In52 O60 2.266 . S
In52 O61 2.326 . S
In52 O63 2.294 . S
In52 O64 2.326 . S
O53 In52 2.294 . S
O53 C62 1.240 . S
O54 In52 2.326 . S
O54 C62 1.252 . S
C55 O58 1.252 . S
C55 O59 1.251 1_545 S
C56 O63 1.240 . S
C56 O64 1.252 . S
C57 O60 1.252 . S
C57 O61 1.260 . S
O58 In52 2.266 1_545 S
O58 C55 1.252 . S
O59 In52 2.330 . S
O59 C55 1.251 1_565 S
O60 In52 2.266 . S
O60 C57 1.252 . S
O61 In52 2.326 . S
O61 C57 1.260 . S
C62 O53 1.240 . S
C62 O54 1.252 . S
O63 In52 2.294 . S
O63 C56 1.240 . S
O64 In52 2.326 . S
O64 C56 1.252 . S
In65 O66 2.294 . S
In65 O67 2.326 . S
In65 O71 2.266 1_556 S
In65 O72 2.326 1_556 S
In65 O73 2.266 . S
In65 O74 2.326 1_556 S
In65 O76 2.294 . S
In65 O77 2.326 . S
O66 In65 2.294 . S
O66 C75 1.240 . S
O67 In65 2.326 . S
O67 C75 1.252 . S
C68 O71 1.252 . S
C68 O72 1.260 . S
C69 O76 1.240 . S
C69 O77 1.252 . S
C70 O73 1.252 1_554 S
C70 O74 1.260 . S
O71 In65 2.266 1_554 S
O71 C68 1.252 . S
O72 In65 2.326 1_554 S
O72 C68 1.260 . S
O73 In65 2.266 . S
O73 C70 1.252 1_556 S
O74 In65 2.326 1_554 S
O74 C70 1.260 . S
C75 O66 1.240 . S
C75 O67 1.252 . S
O76 In65 2.294 . S
O76 C69 1.240 . S
O77 In65 2.326 . S
O77 C69 1.252 . S
In78 O79 2.294 . S
In78 O80 2.326 . S
In78 O84 2.266 1_565 S
In78 O85 2.333 . S
In78 O86 2.266 . S
In78 O87 2.326 . S
In78 O89 2.294 . S
In78 O90 2.326 . S
O79 In78 2.294 . S
O79 C88 1.240 . S
O80 In78 2.326 . S
O80 C88 1.252 . S
C81 O84 1.252 . S
C81 O85 1.259 1_545 S
C82 O89 1.240 . S
C82 O90 1.252 . S
C83 O86 1.252 . S
C83 O87 1.260 . S
O84 In78 2.266 1_545 S
O84 C81 1.252 . S
O85 In78 2.333 . S
O85 C81 1.259 1_565 S
O86 In78 2.266 . S
O86 C83 1.252 . S
O87 In78 2.326 . S
O87 C83 1.260 . S
C88 O79 1.240 . S
C88 O80 1.252 . S
O89 In78 2.294 . S
O89 C82 1.240 . S
O90 In78 2.326 . S
O90 C82 1.252 . S
In91 O92 2.294 . S
In91 O93 2.326 . S
In91 O97 2.266 . S
In91 O98 2.326 . S
In91 O99 2.266 . S
In91 O100 2.326 . S
In91 O102 2.294 . S
In91 O103 2.326 . S
O92 In91 2.294 . S
O92 C101 1.240 . S
O93 In91 2.326 . S
O93 C101 1.252 . S
C94 O97 1.252 . S
C94 O98 1.260 . S
C95 O102 1.240 . S
C95 O103 1.252 . S
C96 O99 1.252 . S
C96 O100 1.260 . S
O97 In91 2.266 . S
O97 C94 1.252 . S
O98 In91 2.326 . S
O98 C94 1.260 . S
O99 In91 2.266 . S
O99 C96 1.252 . S
O100 In91 2.326 . S
O100 C96 1.260 . S
C101 O92 1.240 . S
C101 O93 1.252 . S
O102 In91 2.294 . S
O102 C95 1.240 . S
O103 In91 2.326 . S
O103 C95 1.252 . S
In104 O105 2.294 . S
In104 O106 2.326 . S
In104 O110 2.266 1_455 S
In104 O111 2.330 1_554 S
In104 O112 2.266 1_554 S
In104 O113 2.326 1_554 S
In104 O115 2.294 . S
In104 O116 2.326 . S
O105 In104 2.294 . S
O105 C114 1.240 . S
O106 In104 2.326 . S
O106 C114 1.252 . S
C107 O110 1.252 1_556 S
C107 O111 1.251 1_655 S
C108 O115 1.240 . S
C108 O116 1.252 . S
C109 O112 1.252 . S
C109 O113 1.260 . S
O110 In104 2.266 1_655 S
O110 C107 1.252 1_554 S
O111 In104 2.330 1_556 S
O111 C107 1.251 1_455 S
O112 In104 2.266 1_556 S
O112 C109 1.252 . S
O113 In104 2.326 1_556 S
O113 C109 1.260 . S
C114 O105 1.240 . S
C114 O106 1.252 . S
O115 In104 2.294 . S
O115 C108 1.240 . S
O116 In104 2.326 . S
O116 C108 1.252 . S
In117 O118 2.294 . S
In117 O119 2.326 . S
In117 O123 2.266 . S
In117 O124 2.326 . S
In117 O125 2.266 1_545 S
In117 O126 2.333 . S
In117 O128 2.294 . S
In117 O129 2.326 . S
O118 In117 2.294 . S
O118 C127 1.240 . S
O119 In117 2.326 . S
O119 C127 1.252 . S
C120 O123 1.252 . S
C120 O124 1.260 . S
C121 O128 1.240 . S
C121 O129 1.252 . S
C122 O125 1.252 . S
C122 O126 1.259 1_565 S
O123 In117 2.266 . S
O123 C120 1.252 . S
O124 In117 2.326 . S
O124 C120 1.260 . S
O125 In117 2.266 1_565 S
O125 C122 1.252 . S
O126 In117 2.333 . S
O126 C122 1.259 1_545 S
C127 O118 1.240 . S
C127 O119 1.252 . S
O128 In117 2.294 . S
O128 C121 1.240 . S
O129 In117 2.326 . S
O129 C121 1.252 . S
In130 O131 2.294 . S
In130 O132 2.326 . S
In130 O136 2.266 . S
In130 O137 2.326 . S
In130 O138 2.266 . S
In130 O139 2.326 . S
In130 O141 2.294 . S
In130 O142 2.326 . S
O131 In130 2.294 . S
O131 C140 1.240 . S
O132 In130 2.326 . S
O132 C140 1.252 . S
C133 O136 1.252 . S
C133 O137 1.260 . S
C134 O141 1.240 . S
C134 O142 1.252 . S
C135 O138 1.252 . S
C135 O139 1.260 . S
O136 In130 2.266 . S
O136 C133 1.252 . S
O137 In130 2.326 . S
O137 C133 1.260 . S
O138 In130 2.266 . S
O138 C135 1.252 . S
O139 In130 2.326 . S
O139 C135 1.260 . S
C140 O131 1.240 . S
C140 O132 1.252 . S
O141 In130 2.294 . S
O141 C134 1.240 . S
O142 In130 2.326 . S
O142 C134 1.252 . S
In143 O144 2.294 . S
In143 O145 2.326 . S
In143 O149 2.266 . S
In143 O150 2.326 . S
In143 O151 2.266 1_655 S
In143 O152 2.330 . S
In143 O154 2.294 . S
In143 O155 2.326 . S
O144 In143 2.294 . S
O144 C153 1.240 . S
O145 In143 2.326 . S
O145 C153 1.252 . S
C146 O149 1.252 . S
C146 O150 1.260 . S
C147 O154 1.240 . S
C147 O155 1.252 . S
C148 O151 1.252 . S
C148 O152 1.251 1_455 S
O149 In143 2.266 . S
O149 C146 1.252 . S
O150 In143 2.326 . S
O150 C146 1.260 . S
O151 In143 2.266 1_455 S
O151 C148 1.252 . S
O152 In143 2.330 . S
O152 C148 1.251 1_655 S
C153 O144 1.240 . S
C153 O145 1.252 . S
O154 In143 2.294 . S
O154 C147 1.240 . S
O155 In143 2.326 . S
O155 C147 1.252 . S
C156 C157 1.170 . S
C156 C158 1.380 . S
C157 C156 1.170 . S
C158 C156 1.380 . S
C158 C159 1.170 . S
C159 C158 1.170 . S
C160 C161 1.170 . S
C160 C162 1.380 . S
C161 C160 1.170 . S
C162 C160 1.380 . S
C162 C163 1.170 . S
C163 C162 1.170 . S
C164 C165 1.170 . S
C164 C166 1.380 . S
C165 C164 1.170 . S
C166 C164 1.380 . S
C166 C167 1.170 . S
C167 C166 1.170 . S
C168 C169 1.170 . S
C168 C170 1.380 . S
C169 C168 1.170 . S
C170 C168 1.380 . S
C170 C171 1.170 . S
C171 C170 1.170 . S
C172 C173 1.170 . S
C172 C174 1.380 . S
C173 C172 1.170 . S
C174 C172 1.380 . S
C174 C175 1.170 . S
C175 C174 1.170 . S
C176 C177 1.170 . S
C176 C178 1.380 . S
C177 C176 1.170 . S
C178 C176 1.380 . S
C178 C179 1.170 . S
C179 C178 1.170 . S
C180 C181 1.170 . S
C180 C182 1.380 . S
C181 C180 1.170 . S
C182 C180 1.380 . S
C182 C183 1.170 . S
C183 C182 1.170 . S
C184 C185 1.170 . S
C184 C186 1.380 . S
C185 C184 1.170 . S
C186 C184 1.380 . S
C186 C187 1.170 . S
C187 C186 1.170 . S
C188 C189 1.170 . S
C188 C190 1.380 . S
C189 C188 1.170 . S
C190 C188 1.380 . S
C190 C191 1.170 . S
C191 C190 1.170 . S
C192 C193 1.170 . S
C192 C194 1.380 . S
C193 C192 1.170 . S
C194 C192 1.380 . S
C194 C195 1.170 . S
C195 C194 1.170 . S
C196 C197 1.170 . S
C196 C198 1.380 . S
C197 C196 1.170 . S
C198 C196 1.380 . S
C198 C199 1.170 . S
C199 C198 1.170 . S
C200 C201 1.170 . S
C200 C202 1.380 . S
C201 C200 1.170 . S
C202 C200 1.380 . S
C202 C203 1.170 . S
C203 C202 1.170 . S
C204 C205 1.170 . S
C204 C206 1.380 . S
C205 C204 1.170 . S
C206 C204 1.380 . S
C206 C207 1.170 . S
C207 C206 1.170 . S
C208 C209 1.170 . S
C208 C210 1.380 . S
C209 C208 1.170 . S
C210 C208 1.380 . S
C210 C211 1.170 . S
C211 C210 1.170 . S
C212 C213 1.170 . S
C212 C214 1.380 . S
C213 C212 1.170 . S
C214 C212 1.380 . S
C214 C215 1.170 . S
C215 C214 1.170 . S
C216 C217 1.170 . S
C216 C218 1.380 . S
C217 C216 1.170 . S
C218 C216 1.380 . S
C218 C219 1.170 . S
C219 C218 1.170 . S
C220 C221 1.170 . S
C220 C222 1.380 . S
C221 C220 1.170 . S
C222 C220 1.380 . S
C222 C223 1.170 . S
C223 C222 1.170 . S
C224 C225 1.170 . S
C224 C226 1.380 . S
C225 C224 1.170 . S
C226 C224 1.380 . S
C226 C227 1.170 . S
C227 C226 1.170 . S
C228 C229 1.170 . S
C228 C230 1.380 . S
C229 C228 1.170 . S
C230 C228 1.380 . S
C230 C231 1.170 . S
C231 C230 1.170 . S
C232 C233 1.170 . S
C232 C234 1.380 . S
C233 C232 1.170 . S
C234 C232 1.380 . S
C234 C235 1.170 . S
C235 C234 1.170 . S
C236 C237 1.170 . S
C236 C238 1.380 . S
C237 C236 1.170 . S
C238 C236 1.380 . S
C238 C239 1.170 . S
C239 C238 1.170 . S
C240 C241 1.170 . S
C240 C242 1.380 . S
C241 C240 1.170 . S
C242 C240 1.380 . S
C242 C243 1.170 . S
C243 C242 1.170 . S
C244 C245 1.170 . S
C244 C246 1.380 . S
C245 C244 1.170 . S
C246 C244 1.380 . S
C246 C247 1.170 . S
C247 C246 1.170 . S
C248 C249 1.170 . S
C248 C250 1.380 . S
C249 C248 1.170 . S
C250 C248 1.380 . S
C250 C251 1.170 . S
C251 C250 1.170 . S
C157 C108 1.377 . S
C159 C4 1.386 . S
C161 C23 1.384 . S
C163 C127 1.383 . S
C165 C36 1.384 . S
C167 C134 1.383 . S
C169 C49 1.383 . S
C171 C153 1.383 . S
C173 C82 1.386 . S
C175 C56 1.379 . S
C177 C75 1.378 . S
C179 C95 1.386 . S
C181 C10 1.555 . S
C183 C70 1.520 . S
C185 C17 1.545 . S
C187 C3 1.543 . S
C189 C30 1.555 . S
C191 C18 1.532 . S
C193 C31 1.541 . S
C195 C43 1.545 . S
C197 C44 1.523 . S
C199 C62 1.551 . S
C201 C55 1.544 . S
C203 C69 1.546 . S
C205 C94 1.535 . S
C207 C88 1.555 . S
C209 C101 1.551 . S
C211 C107 1.542 . S
C213 C122 1.528 . S
C215 C114 1.548 . S
C217 C121 1.547 . S
C219 C133 1.533 . S
C221 C140 1.545 . S
C223 C148 1.542 . S
C225 C147 1.549 . S
C227 C81 1.544 . S
C229 C135 1.337 . S
C231 C5 1.343 . S
C233 C146 1.342 . S
C235 C16 1.341 . S
C237 C83 1.343 . S
C239 C29 1.336 . S
C241 C42 1.343 . S
C243 C96 1.339 . S
C245 C57 1.337 . S
C247 C109 1.343 . S
C249 C120 1.338 . S
C251 C68 1.336 . S
