# Generated by pormake.
# Topology wle, (5)-cn, num edge types: 1
# Building blocks:
#     Node 0, Type 0, BuildingBlock: BEQFEK_clean_sbu_0, # of connection points: 5
#     Node 1, Type 0, BuildingBlock: BEQFEK_clean_sbu_0, # of connection points: 5
#     Node 2, Type 0, BuildingBlock: BEQFEK_clean_sbu_0, # of connection points: 5
#     Node 3, Type 0, BuildingBlock: BEQFEK_clean_sbu_0, # of connection points: 5
#     Node 4, Type 0, BuildingBlock: BEQFEK_clean_sbu_0, # of connection points: 5
#     Node 5, Type 0, BuildingBlock: BEQFEK_clean_sbu_0, # of connection points: 5
#     Node 6, Type 0, BuildingBlock: BEQFEK_clean_sbu_0, # of connection points: 5
#     Node 7, Type 0, BuildingBlock: BEQFEK_clean_sbu_0, # of connection points: 5
#     Node 8, Type 0, BuildingBlock: BEQFEK_clean_sbu_0, # of connection points: 5
#     Node 9, Type 0, BuildingBlock: BEQFEK_clean_sbu_0, # of connection points: 5
#     Node 10, Type 0, BuildingBlock: BEQFEK_clean_sbu_0, # of connection points: 5
#     Node 11, Type 0, BuildingBlock: BEQFEK_clean_sbu_0, # of connection points: 5
#     Node 12, Type 0, BuildingBlock: BEQFEK_clean_sbu_0, # of connection points: 5
#     Node 13, Type 0, BuildingBlock: BEQFEK_clean_sbu_0, # of connection points: 5
#     Node 14, Type 0, BuildingBlock: BEQFEK_clean_sbu_0, # of connection points: 5
#     Node 15, Type 0, BuildingBlock: BEQFEK_clean_sbu_0, # of connection points: 5
#     Node 16, Type 0, BuildingBlock: BEQFEK_clean_sbu_0, # of connection points: 5
#     Node 17, Type 0, BuildingBlock: BEQFEK_clean_sbu_0, # of connection points: 5
#     Node 18, Type 0, BuildingBlock: BEQFEK_clean_sbu_0, # of connection points: 5
#     Node 19, Type 0, BuildingBlock: BEQFEK_clean_sbu_0, # of connection points: 5
#     Node 20, Type 0, BuildingBlock: BEQFEK_clean_sbu_0, # of connection points: 5
#     Node 21, Type 0, BuildingBlock: BEQFEK_clean_sbu_0, # of connection points: 5
#     Node 22, Type 0, BuildingBlock: BEQFEK_clean_sbu_0, # of connection points: 5
#     Node 23, Type 0, BuildingBlock: BEQFEK_clean_sbu_0, # of connection points: 5
#     Node 24, Type 0, BuildingBlock: BEQFEK_clean_sbu_0, # of connection points: 5
#     Node 25, Type 0, BuildingBlock: BEQFEK_clean_sbu_0, # of connection points: 5
#     Node 26, Type 0, BuildingBlock: BEQFEK_clean_sbu_0, # of connection points: 5
#     Node 27, Type 0, BuildingBlock: BEQFEK_clean_sbu_0, # of connection points: 5
#     Node 28, Type 0, BuildingBlock: BEQFEK_clean_sbu_0, # of connection points: 5
#     Node 29, Type 0, BuildingBlock: BEQFEK_clean_sbu_0, # of connection points: 5
#     Node 30, Type 0, BuildingBlock: BEQFEK_clean_sbu_0, # of connection points: 5
#     Node 31, Type 0, BuildingBlock: BEQFEK_clean_sbu_0, # of connection points: 5
#     Node 32, Type 0, BuildingBlock: BEQFEK_clean_sbu_0, # of connection points: 5
#     Node 33, Type 0, BuildingBlock: BEQFEK_clean_sbu_0, # of connection points: 5
#     Node 34, Type 0, BuildingBlock: BEQFEK_clean_sbu_0, # of connection points: 5
#     Node 35, Type 0, BuildingBlock: BEQFEK_clean_sbu_0, # of connection points: 5
#     Edge 36, Type (0, 0), BuildingBlock: KIFKEQ_clean_linker_1, # of connection points: 2
#     Edge 37, Type (0, 0), BuildingBlock: KIFKEQ_clean_linker_1, # of connection points: 2
#     Edge 38, Type (0, 0), BuildingBlock: KIFKEQ_clean_linker_1, # of connection points: 2
#     Edge 39, Type (0, 0), BuildingBlock: KIFKEQ_clean_linker_1, # of connection points: 2
#     Edge 40, Type (0, 0), BuildingBlock: KIFKEQ_clean_linker_1, # of connection points: 2
#     Edge 41, Type (0, 0), BuildingBlock: KIFKEQ_clean_linker_1, # of connection points: 2
#     Edge 42, Type (0, 0), BuildingBlock: KIFKEQ_clean_linker_1, # of connection points: 2
#     Edge 43, Type (0, 0), BuildingBlock: KIFKEQ_clean_linker_1, # of connection points: 2
#     Edge 44, Type (0, 0), BuildingBlock: KIFKEQ_clean_linker_1, # of connection points: 2
#     Edge 45, Type (0, 0), BuildingBlock: KIFKEQ_clean_linker_1, # of connection points: 2
#     Edge 46, Type (0, 0), BuildingBlock: KIFKEQ_clean_linker_1, # of connection points: 2
#     Edge 47, Type (0, 0), BuildingBlock: KIFKEQ_clean_linker_1, # of connection points: 2
#     Edge 48, Type (0, 0), BuildingBlock: KIFKEQ_clean_linker_1, # of connection points: 2
#     Edge 49, Type (0, 0), BuildingBlock: KIFKEQ_clean_linker_1, # of connection points: 2
#     Edge 50, Type (0, 0), BuildingBlock: KIFKEQ_clean_linker_1, # of connection points: 2
#     Edge 51, Type (0, 0), BuildingBlock: KIFKEQ_clean_linker_1, # of connection points: 2
#     Edge 52, Type (0, 0), BuildingBlock: KIFKEQ_clean_linker_1, # of connection points: 2
#     Edge 53, Type (0, 0), BuildingBlock: KIFKEQ_clean_linker_1, # of connection points: 2
#     Edge 54, Type (0, 0), BuildingBlock: KIFKEQ_clean_linker_1, # of connection points: 2
#     Edge 55, Type (0, 0), BuildingBlock: KIFKEQ_clean_linker_1, # of connection points: 2
#     Edge 56, Type (0, 0), BuildingBlock: KIFKEQ_clean_linker_1, # of connection points: 2
#     Edge 57, Type (0, 0), BuildingBlock: KIFKEQ_clean_linker_1, # of connection points: 2
#     Edge 58, Type (0, 0), BuildingBlock: KIFKEQ_clean_linker_1, # of connection points: 2
#     Edge 59, Type (0, 0), BuildingBlock: KIFKEQ_clean_linker_1, # of connection points: 2
#     Edge 60, Type (0, 0), BuildingBlock: KIFKEQ_clean_linker_1, # of connection points: 2
#     Edge 61, Type (0, 0), BuildingBlock: KIFKEQ_clean_linker_1, # of connection points: 2
#     Edge 62, Type (0, 0), BuildingBlock: KIFKEQ_clean_linker_1, # of connection points: 2
#     Edge 63, Type (0, 0), BuildingBlock: KIFKEQ_clean_linker_1, # of connection points: 2
#     Edge 64, Type (0, 0), BuildingBlock: KIFKEQ_clean_linker_1, # of connection points: 2
#     Edge 65, Type (0, 0), BuildingBlock: KIFKEQ_clean_linker_1, # of connection points: 2
#     Edge 66, Type (0, 0), BuildingBlock: KIFKEQ_clean_linker_1, # of connection points: 2
#     Edge 67, Type (0, 0), BuildingBlock: KIFKEQ_clean_linker_1, # of connection points: 2
#     Edge 68, Type (0, 0), BuildingBlock: KIFKEQ_clean_linker_1, # of connection points: 2
#     Edge 69, Type (0, 0), BuildingBlock: KIFKEQ_clean_linker_1, # of connection points: 2
#     Edge 70, Type (0, 0), BuildingBlock: KIFKEQ_clean_linker_1, # of connection points: 2
#     Edge 71, Type (0, 0), BuildingBlock: KIFKEQ_clean_linker_1, # of connection points: 2
#     Edge 72, Type (0, 0), BuildingBlock: KIFKEQ_clean_linker_1, # of connection points: 2
#     Edge 73, Type (0, 0), BuildingBlock: KIFKEQ_clean_linker_1, # of connection points: 2
#     Edge 74, Type (0, 0), BuildingBlock: KIFKEQ_clean_linker_1, # of connection points: 2
#     Edge 75, Type (0, 0), BuildingBlock: KIFKEQ_clean_linker_1, # of connection points: 2
#     Edge 76, Type (0, 0), BuildingBlock: KIFKEQ_clean_linker_1, # of connection points: 2
#     Edge 77, Type (0, 0), BuildingBlock: KIFKEQ_clean_linker_1, # of connection points: 2
#     Edge 78, Type (0, 0), BuildingBlock: KIFKEQ_clean_linker_1, # of connection points: 2
#     Edge 79, Type (0, 0), BuildingBlock: KIFKEQ_clean_linker_1, # of connection points: 2
#     Edge 80, Type (0, 0), BuildingBlock: KIFKEQ_clean_linker_1, # of connection points: 2
#     Edge 81, Type (0, 0), BuildingBlock: KIFKEQ_clean_linker_1, # of connection points: 2
#     Edge 82, Type (0, 0), BuildingBlock: KIFKEQ_clean_linker_1, # of connection points: 2
#     Edge 83, Type (0, 0), BuildingBlock: KIFKEQ_clean_linker_1, # of connection points: 2
#     Edge 84, Type (0, 0), BuildingBlock: KIFKEQ_clean_linker_1, # of connection points: 2
#     Edge 85, Type (0, 0), BuildingBlock: KIFKEQ_clean_linker_1, # of connection points: 2
#     Edge 86, Type (0, 0), BuildingBlock: KIFKEQ_clean_linker_1, # of connection points: 2
#     Edge 87, Type (0, 0), BuildingBlock: KIFKEQ_clean_linker_1, # of connection points: 2
#     Edge 88, Type (0, 0), BuildingBlock: KIFKEQ_clean_linker_1, # of connection points: 2
#     Edge 89, Type (0, 0), BuildingBlock: KIFKEQ_clean_linker_1, # of connection points: 2
#     Edge 90, Type (0, 0), BuildingBlock: KIFKEQ_clean_linker_1, # of connection points: 2
#     Edge 91, Type (0, 0), BuildingBlock: KIFKEQ_clean_linker_1, # of connection points: 2
#     Edge 92, Type (0, 0), BuildingBlock: KIFKEQ_clean_linker_1, # of connection points: 2
#     Edge 93, Type (0, 0), BuildingBlock: KIFKEQ_clean_linker_1, # of connection points: 2
#     Edge 94, Type (0, 0), BuildingBlock: KIFKEQ_clean_linker_1, # of connection points: 2
#     Edge 95, Type (0, 0), BuildingBlock: KIFKEQ_clean_linker_1, # of connection points: 2
#     Edge 96, Type (0, 0), BuildingBlock: KIFKEQ_clean_linker_1, # of connection points: 2
#     Edge 97, Type (0, 0), BuildingBlock: KIFKEQ_clean_linker_1, # of connection points: 2
#     Edge 98, Type (0, 0), BuildingBlock: KIFKEQ_clean_linker_1, # of connection points: 2
#     Edge 99, Type (0, 0), BuildingBlock: KIFKEQ_clean_linker_1, # of connection points: 2
#     Edge 100, Type (0, 0), BuildingBlock: KIFKEQ_clean_linker_1, # of connection points: 2
#     Edge 101, Type (0, 0), BuildingBlock: KIFKEQ_clean_linker_1, # of connection points: 2
#     Edge 102, Type (0, 0), BuildingBlock: KIFKEQ_clean_linker_1, # of connection points: 2
#     Edge 103, Type (0, 0), BuildingBlock: KIFKEQ_clean_linker_1, # of connection points: 2
#     Edge 104, Type (0, 0), BuildingBlock: KIFKEQ_clean_linker_1, # of connection points: 2
#     Edge 105, Type (0, 0), BuildingBlock: KIFKEQ_clean_linker_1, # of connection points: 2
#     Edge 106, Type (0, 0), BuildingBlock: KIFKEQ_clean_linker_1, # of connection points: 2
#     Edge 107, Type (0, 0), BuildingBlock: KIFKEQ_clean_linker_1, # of connection points: 2
#     Edge 108, Type (0, 0), BuildingBlock: KIFKEQ_clean_linker_1, # of connection points: 2
#     Edge 109, Type (0, 0), BuildingBlock: KIFKEQ_clean_linker_1, # of connection points: 2
#     Edge 110, Type (0, 0), BuildingBlock: KIFKEQ_clean_linker_1, # of connection points: 2
#     Edge 111, Type (0, 0), BuildingBlock: KIFKEQ_clean_linker_1, # of connection points: 2
#     Edge 112, Type (0, 0), BuildingBlock: KIFKEQ_clean_linker_1, # of connection points: 2
#     Edge 113, Type (0, 0), BuildingBlock: KIFKEQ_clean_linker_1, # of connection points: 2
#     Edge 114, Type (0, 0), BuildingBlock: KIFKEQ_clean_linker_1, # of connection points: 2
#     Edge 115, Type (0, 0), BuildingBlock: KIFKEQ_clean_linker_1, # of connection points: 2
#     Edge 116, Type (0, 0), BuildingBlock: KIFKEQ_clean_linker_1, # of connection points: 2
#     Edge 117, Type (0, 0), BuildingBlock: KIFKEQ_clean_linker_1, # of connection points: 2
#     Edge 118, Type (0, 0), BuildingBlock: KIFKEQ_clean_linker_1, # of connection points: 2
#     Edge 119, Type (0, 0), BuildingBlock: KIFKEQ_clean_linker_1, # of connection points: 2
#     Edge 120, Type (0, 0), BuildingBlock: KIFKEQ_clean_linker_1, # of connection points: 2
#     Edge 121, Type (0, 0), BuildingBlock: KIFKEQ_clean_linker_1, # of connection points: 2
#     Edge 122, Type (0, 0), BuildingBlock: KIFKEQ_clean_linker_1, # of connection points: 2
#     Edge 123, Type (0, 0), BuildingBlock: KIFKEQ_clean_linker_1, # of connection points: 2
#     Edge 124, Type (0, 0), BuildingBlock: KIFKEQ_clean_linker_1, # of connection points: 2
#     Edge 125, Type (0, 0), BuildingBlock: KIFKEQ_clean_linker_1, # of connection points: 2
# Relax obj value: 0.558
# Max RMSD: 0.254
# Mean RMSD: 0.251
data_MOF--net-wle--node1-BEQFEK_clean_sbu_0--edge1-KIFKEQ_clean_linker_1
_symmetry_space_group_name_H-M    P1
_symmetry_Int_Tables_number       1
_symmetry_cell_setting            triclinic
loop_
_symmetry_equiv_pos_as_xyz
'x, y, z'
_cell_length_a     96.541996
_cell_length_b     96.523316
_cell_length_c     29.09556
_cell_angle_alpha  89.993988
_cell_angle_beta   90.007111
_cell_angle_gamma 119.98088
loop_
_atom_site_label
_atom_site_type_symbol
_atom_site_fract_x
_atom_site_fract_y
_atom_site_fract_z
_atom_type_partial_charge
Co0 Co 0.26739 0.08511 0.05315 0.0
Co1 Co 0.24466 0.09367 0.10692 0.0
C2 C 0.28046 0.11561 0.10587 0.0
O3 O 0.28261 0.10618 0.08018 0.0
O4 O 0.26647 0.11222 0.11849 0.0
C5 C 0.29381 0.08045 0.03136 0.0
O6 O 0.30033 0.0891 0.06833 0.0
C7 C 0.23231 0.10019 0.18998 0.0
C8 C 0.21021 0.09946 0.16612 0.0
C9 C 0.21975 0.10217 0.20445 0.0
N10 N 0.23021 0.09624 0.14532 0.0
N11 N 0.21691 0.09568 0.13124 0.0
C12 C 0.24693 0.10355 0.21669 0.0
H13 H 0.2546 0.10024 0.19662 0.0
H14 H 0.24355 0.09667 0.24922 0.0
H15 H 0.25378 0.11646 0.22559 0.0
C16 C 0.25191 0.05667 0.11322 0.0
N17 N 0.25403 0.07082 0.09859 0.0
N18 N 0.24391 0.07398 0.12002 0.0
C19 C 0.23477 0.06171 0.14837 0.0
C20 C 0.23965 0.05045 0.14517 0.0
C21 C 0.26098 0.049 0.09516 0.0
H22 H 0.25997 0.04819 0.05716 0.0
H23 H 0.27382 0.05661 0.10391 0.0
H24 H 0.25647 0.03685 0.10962 0.0
O25 O 0.25429 0.08757 0.00534 0.0
O26 O 0.23826 0.09401 0.04264 0.0
H27 H 0.21445 0.06473 0.15897 0.0
H28 H 0.21403 0.04874 0.19238 0.0
C29 C 0.22183 0.06092 0.17853 0.0
H30 H 0.22735 0.06915 0.208 0.0
H31 H 0.21266 0.09318 0.09754 0.0
O32 O 0.27964 0.07678 0.02052 0.0
C33 C 0.24322 0.09109 0.00541 0.0
Co34 Co 0.91371 0.18204 0.05267 0.0
Co35 Co 0.9047 0.15132 0.10968 0.0
C36 C 0.88351 0.16602 0.10723 0.0
O37 O 0.89301 0.17725 0.08059 0.0
O38 O 0.88661 0.1553 0.12068 0.0
C39 C 0.92247 0.2148 0.03029 0.0
O40 O 0.91768 0.21563 0.07195 0.0
C41 C 0.89786 0.13269 0.19347 0.0
C42 C 0.89855 0.11121 0.17046 0.0
C43 C 0.89583 0.11817 0.20838 0.0
N44 N 0.90187 0.13439 0.14888 0.0
N45 N 0.90239 0.12159 0.13531 0.0
C46 C 0.89456 0.14408 0.21974 0.0
H47 H 0.88159 0.13822 0.22762 0.0
H48 H 0.89824 0.15515 0.19972 0.0
H49 H 0.90113 0.14734 0.25279 0.0
C50 C 0.94289 0.19481 0.11068 0.0
N51 N 0.92831 0.18307 0.09773 0.0
N52 N 0.92469 0.16999 0.12103 0.0
C53 C 0.93697 0.17295 0.14912 0.0
C54 C 0.94879 0.18878 0.14362 0.0
C55 C 0.95136 0.21122 0.09017 0.0
H56 H 0.95025 0.21038 0.05222 0.0
H57 H 0.94571 0.21806 0.10281 0.0
H58 H 0.96421 0.21775 0.09967 0.0
O59 O 0.91037 0.16574 0.00624 0.0
O60 O 0.90405 0.14387 0.0464 0.0
H61 H 0.9334 0.14957 0.16277 0.0
H62 H 0.94925 0.16525 0.19623 0.0
C63 C 0.93724 0.16097 0.18122 0.0
H64 H 0.92878 0.15868 0.20979 0.0
H65 H 0.90495 0.11974 0.10176 0.0
O66 O 0.92215 0.20207 0.01745 0.0
C67 C 0.90671 0.15114 0.00818 0.0
Co68 Co 0.80962 0.72838 0.04694 0.0
Co69 Co 0.84039 0.74934 0.10479 0.0
C70 C 0.82528 0.71344 0.09892 0.0
O71 O 0.81358 0.71182 0.07467 0.0
O72 O 0.83644 0.7272 0.11102 0.0
C73 C 0.7772 0.70464 0.02179 0.0
O74 O 0.77624 0.69867 0.06302 0.0
C75 C 0.85976 0.75715 0.18671 0.0
C76 C 0.87902 0.78203 0.1748 0.0
C77 C 0.87371 0.7694 0.20546 0.0
N78 N 0.85706 0.76216 0.14652 0.0
N79 N 0.86856 0.77706 0.13952 0.0
C80 C 0.84861 0.74119 0.20756 0.0
H81 H 0.83616 0.73699 0.19612 0.0
H82 H 0.84917 0.74183 0.24565 0.0
H83 H 0.85205 0.73237 0.196 0.0
C84 C 0.79698 0.74427 0.10763 0.0
N85 N 0.80871 0.74164 0.09311 0.0
N86 N 0.82159 0.75018 0.11823 0.0
C87 C 0.81838 0.75832 0.14998 0.0
C88 C 0.80272 0.7548 0.14427 0.0
C89 C 0.78054 0.73658 0.08751 0.0
H90 H 0.77386 0.72385 0.09813 0.0
H91 H 0.77388 0.74252 0.09942 0.0
H92 H 0.7813 0.73703 0.04945 0.0
O93 O 0.82645 0.7415 0.00173 0.0
O94 O 0.84809 0.75732 0.04241 0.0
H95 H 0.82524 0.77591 0.20434 0.0
H96 H 0.83335 0.76266 0.20855 0.0
C97 C 0.83015 0.76952 0.18445 0.0
H98 H 0.84119 0.7784 0.16656 0.0
H99 H 0.86939 0.78376 0.11041 0.0
O100 O 0.78982 0.71739 0.01027 0.0
C101 C 0.84096 0.75266 0.004 0.0
Co102 Co 0.08038 0.26723 0.43332 0.0
Co103 Co 0.09043 0.24468 0.38546 0.0
C104 C 0.1123 0.28054 0.38926 0.0
O105 O 0.10219 0.2827 0.4116 0.0
O106 O 0.10921 0.26658 0.37739 0.0
C107 C 0.07378 0.29288 0.451 0.0
O108 O 0.08191 0.29937 0.41321 0.0
C109 C 0.09831 0.23253 0.30473 0.0
C110 C 0.09887 0.21129 0.33077 0.0
C111 C 0.10107 0.22034 0.29166 0.0
N112 N 0.09438 0.23067 0.34936 0.0
N113 N 0.09464 0.21791 0.36482 0.0
C114 C 0.10082 0.24659 0.27657 0.0
H115 H 0.11336 0.25319 0.26412 0.0
H116 H 0.09818 0.25471 0.29692 0.0
H117 H 0.0929 0.24251 0.24604 0.0
C118 C 0.05402 0.2522 0.36559 0.0
N119 N 0.06756 0.25416 0.38479 0.0
N120 N 0.07126 0.24399 0.36623 0.0
C121 C 0.0599 0.23491 0.33537 0.0
C122 C 0.04874 0.23994 0.33354 0.0
C123 C 0.04676 0.26234 0.37676 0.0
H124 H 0.05605 0.27511 0.37383 0.0
H125 H 0.03678 0.26002 0.35332 0.0
H126 H 0.04242 0.26007 0.41279 0.0
O127 O 0.08126 0.25373 0.48301 0.0
O128 O 0.08863 0.23776 0.44982 0.0
H129 H 0.04625 0.21184 0.30269 0.0
H130 H 0.06581 0.22457 0.27911 0.0
C131 C 0.05883 0.22067 0.31146 0.0
H132 H 0.06371 0.21478 0.33362 0.0
H133 H 0.09227 0.21394 0.3988 0.0
O134 O 0.07118 0.27915 0.46313 0.0
C135 C 0.08458 0.24255 0.48533 0.0
Co136 Co 0.72734 0.80993 0.44182 0.0
Co137 Co 0.74851 0.84127 0.38655 0.0
C138 C 0.71265 0.82631 0.39218 0.0
O139 O 0.71096 0.81436 0.41531 0.0
O140 O 0.72644 0.83755 0.38065 0.0
C141 C 0.70321 0.7774 0.46468 0.0
O142 O 0.69709 0.77706 0.42407 0.0
C143 C 0.75677 0.86159 0.3066 0.0
C144 C 0.78171 0.88051 0.31982 0.0
C145 C 0.7692 0.87563 0.28892 0.0
N146 N 0.76156 0.8584 0.34643 0.0
N147 N 0.77649 0.86971 0.35426 0.0
C148 C 0.74087 0.85077 0.28494 0.0
H149 H 0.73647 0.83819 0.29544 0.0
H150 H 0.74168 0.85166 0.2469 0.0
H151 H 0.73211 0.85426 0.29675 0.0
C152 C 0.74305 0.79776 0.37888 0.0
N153 N 0.74056 0.80942 0.39489 0.0
N154 N 0.74921 0.82255 0.37084 0.0
C155 C 0.7573 0.81958 0.33831 0.0
C156 C 0.75362 0.80381 0.34235 0.0
C157 C 0.73503 0.78106 0.3973 0.0
H158 H 0.73581 0.78137 0.43536 0.0
H159 H 0.72221 0.77489 0.38761 0.0
H160 H 0.74045 0.77416 0.38336 0.0
O161 O 0.74046 0.82617 0.48845 0.0
O162 O 0.7564 0.8482 0.44941 0.0
H163 H 0.77748 0.84258 0.32395 0.0
H164 H 0.77527 0.82707 0.28482 0.0
C165 C 0.76873 0.83174 0.30501 0.0
H166 H 0.76203 0.8352 0.28111 0.0
H167 H 0.78305 0.87014 0.38329 0.0
O168 O 0.71617 0.78971 0.47659 0.0
C169 C 0.75169 0.84067 0.48722 0.0
Co170 Co 0.18612 0.91774 0.43236 0.0
Co171 Co 0.15402 0.90792 0.38154 0.0
C172 C 0.16828 0.88625 0.38546 0.0
O173 O 0.18048 0.89641 0.40792 0.0
O174 O 0.15723 0.88914 0.37414 0.0
C175 C 0.21811 0.92423 0.45415 0.0
O176 O 0.21718 0.91664 0.41575 0.0
C177 C 0.13477 0.90043 0.29886 0.0
C178 C 0.11298 0.90026 0.32311 0.0
C179 C 0.12003 0.89797 0.28459 0.0
N180 N 0.13651 0.90426 0.3436 0.0
N181 N 0.1235 0.90424 0.35794 0.0
C182 C 0.14643 0.89778 0.27172 0.0
H183 H 0.14028 0.88551 0.25715 0.0
H184 H 0.15662 0.89954 0.29341 0.0
H185 H 0.15119 0.90632 0.24265 0.0
C186 C 0.19809 0.94481 0.36691 0.0
N187 N 0.18636 0.93106 0.3847 0.0
N188 N 0.17272 0.92734 0.36452 0.0
C189 C 0.1753 0.93887 0.33396 0.0
C190 C 0.19147 0.95019 0.33402 0.0
C191 C 0.21533 0.95214 0.38009 0.0
H192 H 0.21683 0.95613 0.41643 0.0
H193 H 0.21901 0.94299 0.37735 0.0
H194 H 0.22321 0.9624 0.35777 0.0
O195 O 0.17087 0.91599 0.4807 0.0
O196 O 0.14802 0.90915 0.44522 0.0
H197 H 0.15139 0.93499 0.32949 0.0
H198 H 0.1662 0.95251 0.29945 0.0
C199 C 0.1624 0.93993 0.30839 0.0
H200 H 0.15972 0.93299 0.27607 0.0
H201 H 0.12167 0.9066 0.39171 0.0
O202 O 0.20676 0.92667 0.46499 0.0
C203 C 0.15636 0.9127 0.48164 0.0
Co204 Co 0.72516 0.91294 0.93177 0.0
Co205 Co 0.74852 0.90419 0.88241 0.0
C206 C 0.71278 0.88183 0.88311 0.0
O207 O 0.71028 0.89142 0.90694 0.0
O208 O 0.72688 0.8853 0.87164 0.0
C209 C 0.69813 0.91672 0.95207 0.0
O210 O 0.6915 0.9069 0.91727 0.0
C211 C 0.76146 0.89747 0.80108 0.0
C212 C 0.78301 0.89755 0.82718 0.0
C213 C 0.77398 0.89522 0.78794 0.0
N214 N 0.76312 0.90122 0.84587 0.0
N215 N 0.77608 0.90138 0.86132 0.0
C216 C 0.74726 0.89455 0.77291 0.0
H217 H 0.74084 0.88194 0.76101 0.0
H218 H 0.73905 0.89711 0.79303 0.0
H219 H 0.75116 0.90232 0.74207 0.0
C220 C 0.73979 0.93995 0.86635 0.0
N221 N 0.73838 0.92654 0.88483 0.0
N222 N 0.74884 0.92339 0.8656 0.0
C223 C 0.75757 0.935 0.83501 0.0
C224 C 0.75198 0.94574 0.83404 0.0
C225 C 0.72905 0.94648 0.87796 0.0
H226 H 0.71644 0.93663 0.87762 0.0
H227 H 0.73038 0.95583 0.85333 0.0
H228 H 0.73184 0.95156 0.91318 0.0
O229 O 0.73833 0.91147 0.98146 0.0
O230 O 0.75481 0.90497 0.94717 0.0
H231 H 0.77815 0.93197 0.83136 0.0
H232 H 0.78031 0.94925 0.80109 0.0
C233 C 0.77184 0.93658 0.80995 0.0
H234 H 0.76788 0.92961 0.77759 0.0
H235 H 0.77995 0.90368 0.8954 0.0
O236 O 0.71264 0.92149 0.96189 0.0
C237 C 0.74959 0.90825 0.98328 0.0
Co238 Co 0.08375 0.81462 0.93559 0.0
Co239 Co 0.09279 0.84573 0.8803 0.0
C240 C 0.11481 0.83194 0.88571 0.0
O241 O 0.10507 0.82022 0.91053 0.0
O242 O 0.11152 0.84254 0.8723 0.0
C243 C 0.07556 0.78194 0.95822 0.0
O244 O 0.08105 0.7813 0.91742 0.0
C245 C 0.10335 0.86668 0.801 0.0
C246 C 0.09686 0.88499 0.81846 0.0
C247 C 0.10438 0.88071 0.78554 0.0
N248 N 0.09581 0.86288 0.8416 0.0
N249 N 0.09186 0.87382 0.85188 0.0
C250 C 0.10857 0.85648 0.77624 0.0
H251 H 0.10193 0.84398 0.78896 0.0
H252 H 0.10665 0.85669 0.73868 0.0
H253 H 0.12152 0.86134 0.78213 0.0
C254 C 0.05569 0.80167 0.87299 0.0
N255 N 0.0698 0.81358 0.88842 0.0
N256 N 0.07353 0.82675 0.86547 0.0
C257 C 0.06189 0.82366 0.83479 0.0
C258 C 0.05027 0.80767 0.8385 0.0
C259 C 0.04713 0.78517 0.89284 0.0
H260 H 0.04766 0.78584 0.93089 0.0
H261 H 0.05314 0.77855 0.88128 0.0
H262 H 0.03443 0.77851 0.88176 0.0
O263 O 0.08597 0.83037 0.9825 0.0
O264 O 0.09207 0.85244 0.94376 0.0
H265 H 0.06292 0.84595 0.82156 0.0
H266 H 0.05135 0.83056 0.77975 0.0
C267 C 0.06212 0.83572 0.80199 0.0
H268 H 0.07282 0.84028 0.77974 0.0
H269 H 0.08599 0.87379 0.88202 0.0
O270 O 0.07524 0.79444 0.97004 0.0
C271 C 0.08915 0.84483 0.98146 0.0
Co272 Co 0.18185 0.26751 0.93698 0.0
Co273 Co 0.14985 0.24512 0.88621 0.0
C274 C 0.16394 0.28103 0.89023 0.0
O275 O 0.17629 0.28322 0.91218 0.0
O276 O 0.15285 0.26702 0.87968 0.0
C277 C 0.21399 0.2928 0.95925 0.0
O278 O 0.21317 0.29984 0.92152 0.0
C279 C 0.12854 0.2356 0.80853 0.0
C280 C 0.10994 0.2108 0.82489 0.0
C281 C 0.11437 0.22287 0.79272 0.0
N282 N 0.13225 0.23141 0.84854 0.0
N283 N 0.12113 0.21657 0.85829 0.0
C284 C 0.13897 0.25124 0.785 0.0
H285 H 0.13541 0.26002 0.79604 0.0
H286 H 0.15167 0.25595 0.79469 0.0
H287 H 0.13771 0.24989 0.7471 0.0
C288 C 0.19406 0.25317 0.8696 0.0
N289 N 0.18215 0.25454 0.88895 0.0
N290 N 0.16861 0.24488 0.86794 0.0
C291 C 0.17144 0.23686 0.83485 0.0
C292 C 0.18767 0.24192 0.83459 0.0
C293 C 0.2113 0.26342 0.88231 0.0
H294 H 0.21301 0.26117 0.91869 0.0
H295 H 0.21466 0.27616 0.87915 0.0
H296 H 0.21933 0.26129 0.85994 0.0
O297 O 0.16659 0.25416 0.98555 0.0
O298 O 0.14409 0.23756 0.94958 0.0
H299 H 0.14817 0.21626 0.82701 0.0
H300 H 0.16298 0.21664 0.78853 0.0
C301 C 0.1587 0.22409 0.80556 0.0
H302 H 0.15494 0.22975 0.77891 0.0
H303 H 0.12111 0.21044 0.88787 0.0
O304 O 0.2025 0.27904 0.96954 0.0
C305 C 0.15223 0.24263 0.98627 0.0
Co306 Co 0.9151 0.7269 0.56052 0.0
Co307 Co 0.90625 0.75006 0.61076 0.0
C308 C 0.88454 0.71416 0.61233 0.0
O309 O 0.89405 0.71179 0.58767 0.0
O310 O 0.88781 0.72826 0.62334 0.0
C311 C 0.91918 0.70015 0.53854 0.0
O312 O 0.90976 0.69344 0.57407 0.0
C313 C 0.90001 0.76317 0.69275 0.0
C314 C 0.89921 0.78423 0.66632 0.0
C315 C 0.89745 0.77551 0.70588 0.0
N316 N 0.90335 0.76464 0.64768 0.0
N317 N 0.90302 0.77733 0.63206 0.0
C318 C 0.89776 0.74928 0.72131 0.0
H319 H 0.88551 0.74305 0.736 0.0
H320 H 0.89977 0.7408 0.70064 0.0
H321 H 0.90636 0.75354 0.75027 0.0
C322 C 0.94298 0.74262 0.62289 0.0
N323 N 0.92915 0.74066 0.6059 0.0
N324 N 0.92593 0.75105 0.62529 0.0
C325 C 0.93789 0.7603 0.6543 0.0
C326 C 0.94898 0.75513 0.65424 0.0
C327 C 0.94972 0.7321 0.61083 0.0
H328 H 0.95494 0.73516 0.5758 0.0
H329 H 0.94 0.71944 0.61053 0.0
H330 H 0.95905 0.73344 0.63559 0.0
O331 O 0.91246 0.73948 0.51107 0.0
O332 O 0.90597 0.75585 0.546 0.0
H333 H 0.93431 0.78055 0.65733 0.0
H334 H 0.95214 0.78348 0.68597 0.0
C335 C 0.93943 0.77468 0.67861 0.0
H336 H 0.93289 0.77093 0.71169 0.0
H337 H 0.9049 0.781 0.59777 0.0
O338 O 0.92369 0.71464 0.52906 0.0
C339 C 0.90887 0.75048 0.50956 0.0
Co340 Co 0.26893 0.19063 0.54471 0.0
Co341 Co 0.24728 0.16013 0.60307 0.0
C342 C 0.2832 0.17458 0.59857 0.0
O343 O 0.28497 0.18586 0.57205 0.0
O344 O 0.26938 0.16401 0.61243 0.0
C345 C 0.29309 0.22306 0.52098 0.0
O346 O 0.29865 0.22392 0.56274 0.0
C347 C 0.23746 0.14085 0.68577 0.0
C348 C 0.21316 0.12127 0.66913 0.0
C349 C 0.22488 0.12679 0.70271 0.0
N350 N 0.23354 0.14349 0.64382 0.0
N351 N 0.21894 0.13182 0.63406 0.0
C352 C 0.25265 0.1521 0.71007 0.0
H353 H 0.25794 0.16431 0.69536 0.0
H354 H 0.2504 0.15243 0.74736 0.0
H355 H 0.26129 0.14782 0.7061 0.0
C356 C 0.25283 0.20371 0.60308 0.0
N357 N 0.25566 0.19194 0.59029 0.0
N358 N 0.24634 0.17897 0.6142 0.0
C359 C 0.23722 0.18203 0.64269 0.0
C360 C 0.24107 0.19779 0.63658 0.0
C361 C 0.26058 0.22001 0.58191 0.0
H362 H 0.2606 0.21897 0.54396 0.0
H363 H 0.27316 0.22692 0.59377 0.0
H364 H 0.25431 0.22657 0.59166 0.0
O365 O 0.25566 0.17403 0.4992 0.0
O366 O 0.24002 0.1524 0.54021 0.0
H367 H 0.21647 0.15937 0.65635 0.0
H368 H 0.2188 0.17513 0.69478 0.0
C369 C 0.22523 0.17015 0.67552 0.0
H370 H 0.23144 0.16648 0.70054 0.0
H371 H 0.21306 0.13087 0.60312 0.0
O372 O 0.28049 0.21047 0.50852 0.0
C373 C 0.2446 0.15948 0.5017 0.0
Co374 Co 0.81106 0.08181 0.55673 0.0
Co375 Co 0.84177 0.08915 0.61145 0.0
C376 C 0.82847 0.1116 0.61223 0.0
O377 O 0.81661 0.10232 0.58708 0.0
O378 O 0.83912 0.10808 0.62317 0.0
C379 C 0.77874 0.07477 0.53345 0.0
O380 O 0.77795 0.07975 0.57489 0.0
C381 C 0.86052 0.09491 0.69444 0.0
C382 C 0.88108 0.09269 0.6706 0.0
C383 C 0.87468 0.09596 0.70887 0.0
N384 N 0.85847 0.09094 0.64983 0.0
N385 N 0.87071 0.0895 0.63574 0.0
C386 C 0.84986 0.09911 0.72116 0.0
H387 H 0.85632 0.11216 0.72816 0.0
H388 H 0.83874 0.09578 0.70181 0.0
H389 H 0.84662 0.09281 0.75464 0.0
C390 C 0.79736 0.05232 0.61322 0.0
N391 N 0.80952 0.06666 0.60032 0.0
N392 N 0.82253 0.0696 0.62295 0.0
C393 C 0.81909 0.05707 0.65056 0.0
C394 C 0.80303 0.04581 0.64543 0.0
C395 C 0.78086 0.04468 0.59346 0.0
H396 H 0.77476 0.05106 0.60632 0.0
H397 H 0.7737 0.03188 0.60319 0.0
H398 H 0.78156 0.0457 0.55547 0.0
O399 O 0.8271 0.08497 0.50942 0.0
O400 O 0.84879 0.08962 0.54794 0.0
H401 H 0.84199 0.05927 0.66297 0.0
H402 H 0.82603 0.04402 0.69722 0.0
C403 C 0.83084 0.05609 0.68202 0.0
H404 H 0.83377 0.06473 0.71049 0.0
H405 H 0.8722 0.08675 0.60207 0.0
O406 O 0.79115 0.07432 0.5215 0.0
C407 C 0.84143 0.08774 0.51022 0.0
Co408 Co 0.93517 0.41502 0.38965 0.0
Co409 Co 0.91302 0.42483 0.44091 0.0
C410 C 0.94909 0.44608 0.43865 0.0
O411 O 0.95103 0.43597 0.41554 0.0
O412 O 0.93515 0.44332 0.44967 0.0
C413 C 0.96021 0.40793 0.36695 0.0
O414 O 0.96712 0.41546 0.40519 0.0
C415 C 0.90121 0.43218 0.52374 0.0
C416 C 0.87989 0.43287 0.49916 0.0
C417 C 0.88908 0.43492 0.53785 0.0
N418 N 0.89918 0.42846 0.47893 0.0
N419 N 0.88635 0.42876 0.46441 0.0
C420 C 0.91539 0.43455 0.55107 0.0
H421 H 0.9217 0.44683 0.56554 0.0
H422 H 0.92369 0.43255 0.52955 0.0
H423 H 0.91142 0.42602 0.58019 0.0
C424 C 0.91975 0.38762 0.45359 0.0
N425 N 0.92179 0.40145 0.43631 0.0
N426 N 0.91188 0.40512 0.45667 0.0
C427 C 0.90285 0.39345 0.4868 0.0
C428 C 0.90766 0.38209 0.48622 0.0
C429 C 0.92992 0.38055 0.44083 0.0
H430 H 0.92755 0.37649 0.40454 0.0
H431 H 0.94268 0.38986 0.44375 0.0
H432 H 0.92775 0.37039 0.46334 0.0
O433 O 0.9222 0.41759 0.34129 0.0
O434 O 0.90616 0.42432 0.37706 0.0
H435 H 0.88298 0.39755 0.49227 0.0
H436 H 0.88019 0.37988 0.52168 0.0
C437 C 0.88902 0.39246 0.5129 0.0
H438 H 0.89342 0.39933 0.54531 0.0
H439 H 0.88224 0.42655 0.43054 0.0
O440 O 0.94653 0.40584 0.35654 0.0
C441 C 0.91114 0.42111 0.3404 0.0
Co442 Co 0.58322 0.5222 0.39368 0.0
Co443 Co 0.57351 0.4896 0.4415 0.0
C444 C 0.55174 0.50374 0.44054 0.0
O445 O 0.56166 0.51595 0.41775 0.0
O446 O 0.5549 0.49285 0.4515 0.0
C447 C 0.58774 0.55338 0.37702 0.0
O448 O 0.57859 0.55017 0.41345 0.0
C449 C 0.56345 0.46896 0.5205 0.0
C450 C 0.56553 0.44816 0.49873 0.0
C451 C 0.56057 0.45408 0.53458 0.0
N452 N 0.56961 0.47172 0.47807 0.0
N453 N 0.57098 0.45932 0.46518 0.0
C454 C 0.5609 0.48069 0.54754 0.0
H455 H 0.54823 0.47757 0.5446 0.0
H456 H 0.56857 0.493 0.53416 0.0
H457 H 0.56354 0.48019 0.58444 0.0
C458 C 0.61061 0.53329 0.45758 0.0
N459 N 0.59656 0.52186 0.44048 0.0
N460 N 0.59285 0.50803 0.4593 0.0
C461 C 0.60459 0.51015 0.48842 0.0
C462 C 0.6162 0.52625 0.48849 0.0
C463 C 0.6182 0.5506 0.44504 0.0
H464 H 0.62307 0.55233 0.40963 0.0
H465 H 0.60904 0.55431 0.44547 0.0
H466 H 0.62794 0.55829 0.46916 0.0
O467 O 0.58159 0.50766 0.34339 0.0
O468 O 0.57461 0.48438 0.37662 0.0
H469 H 0.60094 0.48634 0.48898 0.0
H470 H 0.61769 0.50038 0.52311 0.0
C471 C 0.60533 0.49678 0.51225 0.0
H472 H 0.59752 0.49315 0.54305 0.0
H473 H 0.57524 0.45829 0.43314 0.0
O474 O 0.59209 0.5435 0.36474 0.0
C475 C 0.57818 0.49312 0.34093 0.0
Co476 Co 0.47639 0.0577 0.40122 0.0
Co477 Co 0.50784 0.08087 0.45337 0.0
C478 C 0.49425 0.04513 0.45414 0.0
O479 O 0.48227 0.04274 0.42992 0.0
O480 O 0.50507 0.05924 0.46502 0.0
C481 C 0.44492 0.03127 0.38369 0.0
O482 O 0.44722 0.02536 0.42173 0.0
C483 C 0.52741 0.09433 0.53481 0.0
C484 C 0.54796 0.11673 0.50897 0.0
C485 C 0.54173 0.10747 0.54805 0.0
N486 N 0.52508 0.09586 0.49012 0.0
N487 N 0.53735 0.10931 0.47482 0.0
C488 C 0.51675 0.07984 0.56289 0.0
H489 H 0.52339 0.07365 0.57276 0.0
H490 H 0.50585 0.07154 0.5434 0.0
H491 H 0.51308 0.08333 0.5949 0.0
C492 C 0.46382 0.07418 0.45859 0.0
N493 N 0.47566 0.07155 0.44538 0.0
N494 N 0.48894 0.0816 0.4669 0.0
C495 C 0.486 0.09116 0.49404 0.0
C496 C 0.46999 0.08668 0.4898 0.0
C497 C 0.44725 0.06558 0.43918 0.0
H498 H 0.44787 0.06603 0.4011 0.0
H499 H 0.44131 0.05284 0.44971 0.0
H500 H 0.44 0.07089 0.45106 0.0
O501 O 0.49174 0.0702 0.35187 0.0
O502 O 0.51398 0.08691 0.389 0.0
H503 H 0.50919 0.11181 0.50316 0.0
H504 H 0.4938 0.11184 0.5385 0.0
C505 C 0.49826 0.10425 0.52359 0.0
H506 H 0.50146 0.09886 0.55234 0.0
H507 H 0.53863 0.11326 0.44086 0.0
O508 O 0.45557 0.04507 0.37036 0.0
C509 C 0.50622 0.08153 0.35177 0.0
Co510 Co 0.75011 0.60327 0.76555 0.0
Co511 Co 0.76155 0.58197 0.71668 0.0
C512 C 0.78244 0.61787 0.72332 0.0
O513 O 0.77169 0.61951 0.74376 0.0
O514 O 0.78008 0.60409 0.71237 0.0
C515 C 0.74134 0.62755 0.78132 0.0
O516 O 0.74774 0.63319 0.74088 0.0
C517 C 0.77494 0.57355 0.64038 0.0
C518 C 0.76853 0.54856 0.65473 0.0
C519 C 0.77662 0.56101 0.62392 0.0
N520 N 0.76649 0.56887 0.67944 0.0
N521 N 0.76269 0.55393 0.68805 0.0
C522 C 0.78009 0.58931 0.61764 0.0
H523 H 0.77191 0.59381 0.62725 0.0
H524 H 0.78022 0.58824 0.57969 0.0
H525 H 0.79232 0.59812 0.62936 0.0
C526 C 0.72384 0.58752 0.69783 0.0
N527 N 0.73775 0.59028 0.71641 0.0
N528 N 0.74244 0.58114 0.69601 0.0
C529 C 0.73159 0.57221 0.66384 0.0
C530 C 0.71952 0.57604 0.66386 0.0
C531 C 0.71431 0.59484 0.71478 0.0
H532 H 0.71413 0.59478 0.75288 0.0
H533 H 0.72007 0.60744 0.703 0.0
H534 H 0.70184 0.58833 0.70178 0.0
O535 O 0.75129 0.58966 0.81441 0.0
O536 O 0.75901 0.5741 0.78026 0.0
H537 H 0.73356 0.55125 0.65535 0.0
H538 H 0.72248 0.55424 0.60996 0.0
C539 C 0.73281 0.56031 0.63366 0.0
H540 H 0.7439 0.56651 0.61294 0.0
H541 H 0.7561 0.54741 0.71657 0.0
O542 O 0.74049 0.61473 0.79578 0.0
C543 C 0.75469 0.57851 0.81601 0.0
Co544 Co 0.38925 0.14465 0.75037 0.0
Co545 Co 0.41346 0.17714 0.70456 0.0
C546 C 0.37779 0.1643 0.70256 0.0
O547 O 0.37489 0.15169 0.72428 0.0
O548 O 0.39208 0.17512 0.69355 0.0
C549 C 0.36167 0.11397 0.76834 0.0
O550 O 0.35548 0.11755 0.73322 0.0
C551 C 0.42729 0.19703 0.62444 0.0
C552 C 0.44828 0.21864 0.65222 0.0
C553 C 0.43977 0.21192 0.61219 0.0
N554 N 0.42846 0.19488 0.66945 0.0
N555 N 0.44109 0.20776 0.68594 0.0
C556 C 0.41349 0.18568 0.5951 0.0
H557 H 0.40748 0.19194 0.58049 0.0
H558 H 0.4048 0.17514 0.61522 0.0
H559 H 0.41782 0.18145 0.56603 0.0
C560 C 0.40475 0.13264 0.6873 0.0
N561 N 0.4029 0.14451 0.70466 0.0
N562 N 0.41365 0.15823 0.68664 0.0
C563 C 0.42304 0.15554 0.65801 0.0
C564 C 0.41759 0.13922 0.65715 0.0
C565 C 0.39408 0.11534 0.6987 0.0
H566 H 0.38144 0.11245 0.69789 0.0
H567 H 0.39564 0.10743 0.67418 0.0
H568 H 0.39679 0.11305 0.73403 0.0
O569 O 0.40207 0.15877 0.80153 0.0
O570 O 0.41941 0.18191 0.76962 0.0
H571 H 0.44659 0.16425 0.6292 0.0
H572 H 0.4348 0.17166 0.60236 0.0
C573 C 0.43792 0.1684 0.63575 0.0
H574 H 0.44367 0.17915 0.65797 0.0
H575 H 0.44453 0.20932 0.72042 0.0
O576 O 0.37617 0.12341 0.77909 0.0
C577 C 0.41363 0.17307 0.80486 0.0
Co578 Co 0.85502 0.24724 0.76612 0.0
Co579 Co 0.82386 0.23798 0.71087 0.0
C580 C 0.83791 0.21619 0.71579 0.0
O581 O 0.84956 0.22596 0.74081 0.0
O582 O 0.82727 0.21941 0.70234 0.0
C583 C 0.88774 0.25561 0.78714 0.0
O584 O 0.88819 0.25043 0.74571 0.0
C585 C 0.80307 0.22772 0.63127 0.0
C586 C 0.78475 0.23419 0.64882 0.0
C587 C 0.78916 0.22689 0.61556 0.0
N588 N 0.8067 0.23497 0.67229 0.0
N589 N 0.79576 0.2389 0.68266 0.0
C590 C 0.81332 0.2226 0.60636 0.0
H591 H 0.8258 0.22922 0.61932 0.0
H592 H 0.81319 0.22467 0.56886 0.0
H593 H 0.80846 0.20964 0.61187 0.0
C594 C 0.86752 0.27574 0.70519 0.0
N595 N 0.85589 0.26128 0.71942 0.0
N596 N 0.84267 0.25741 0.69657 0.0
C597 C 0.84545 0.2693 0.66719 0.0
C598 C 0.86126 0.28125 0.6717 0.0
C599 C 0.88393 0.28457 0.72558 0.0
H600 H 0.88311 0.28379 0.7636 0.0
H601 H 0.89088 0.27892 0.71389 0.0
H602 H 0.89033 0.29733 0.71508 0.0
O603 O 0.83926 0.24485 0.81322 0.0
O604 O 0.81715 0.23853 0.77434 0.0
H605 H 0.823 0.26811 0.65559 0.0
H606 H 0.83819 0.28008 0.61375 0.0
C607 C 0.8332 0.26915 0.6353 0.0
H608 H 0.82867 0.25862 0.61234 0.0
H609 H 0.79569 0.24461 0.71304 0.0
O610 O 0.87529 0.25579 0.80015 0.0
C611 C 0.82475 0.24153 0.81206 0.0
Co612 Co 0.39312 0.24885 0.26198 0.0
Co613 Co 0.41386 0.23754 0.20953 0.0
C614 C 0.37782 0.21737 0.21473 0.0
O615 O 0.37642 0.22795 0.23701 0.0
O616 O 0.39151 0.21957 0.20346 0.0
C617 C 0.36986 0.25879 0.28053 0.0
O618 O 0.36426 0.2533 0.2393 0.0
C619 C 0.42188 0.22477 0.13096 0.0
C620 C 0.44643 0.2298 0.14559 0.0
C621 C 0.43404 0.22256 0.11415 0.0
N622 N 0.42668 0.23271 0.17082 0.0
N623 N 0.44138 0.23573 0.17953 0.0
C624 C 0.40631 0.22044 0.10823 0.0
H625 H 0.40231 0.22895 0.11856 0.0
H626 H 0.40743 0.22052 0.07026 0.0
H627 H 0.3971 0.20826 0.11929 0.0
C628 C 0.41024 0.27658 0.19902 0.0
N629 N 0.40671 0.26205 0.21467 0.0
N630 N 0.41555 0.25731 0.19276 0.0
C631 C 0.42507 0.26872 0.16268 0.0
C632 C 0.42197 0.28125 0.16562 0.0
C633 C 0.40336 0.28625 0.21799 0.0
H634 H 0.40331 0.28579 0.25607 0.0
H635 H 0.39082 0.28104 0.20608 0.0
H636 H 0.41024 0.2989 0.20661 0.0
O637 O 0.40596 0.24585 0.31005 0.0
O638 O 0.42142 0.2387 0.27269 0.0
H639 H 0.44559 0.26609 0.15306 0.0
H640 H 0.44341 0.27839 0.10991 0.0
C641 C 0.4369 0.26763 0.13187 0.0
H642 H 0.43055 0.25699 0.10941 0.0
H643 H 0.4479 0.24172 0.20875 0.0
O644 O 0.38224 0.25863 0.29457 0.0
C645 C 0.41691 0.24214 0.30985 0.0
Co646 Co 0.75037 0.14506 0.26311 0.0
Co647 Co 0.7606 0.17686 0.21028 0.0
C648 C 0.78158 0.16191 0.21366 0.0
O649 O 0.77135 0.15 0.23701 0.0
O650 O 0.77901 0.17316 0.20209 0.0
C651 C 0.74192 0.11233 0.28483 0.0
O652 O 0.74794 0.11206 0.24456 0.0
C653 C 0.76844 0.19626 0.12784 0.0
C654 C 0.76781 0.21769 0.15165 0.0
C655 C 0.77065 0.2109 0.11351 0.0
N656 N 0.76422 0.19432 0.17226 0.0
N657 N 0.76376 0.20711 0.18634 0.0
C658 C 0.77171 0.18491 0.10119 0.0
H659 H 0.78457 0.19095 0.09183 0.0
H660 H 0.7685 0.17401 0.12152 0.0
H661 H 0.7647 0.18132 0.06889 0.0
C662 C 0.72236 0.13339 0.20157 0.0
N663 N 0.73671 0.14489 0.21679 0.0
N664 N 0.7409 0.15828 0.19439 0.0
C665 C 0.72929 0.15564 0.16399 0.0
C666 C 0.71732 0.13982 0.16743 0.0
C667 C 0.71374 0.11661 0.2194 0.0
H668 H 0.71308 0.11679 0.25745 0.0
H669 H 0.72054 0.11058 0.20994 0.0
H670 H 0.70149 0.10968 0.20499 0.0
O671 O 0.75291 0.16066 0.31081 0.0
O672 O 0.75995 0.18335 0.2741 0.0
H673 H 0.73337 0.17942 0.15386 0.0
H674 H 0.71682 0.16422 0.12123 0.0
C675 C 0.72904 0.16816 0.13423 0.0
H676 H 0.73701 0.17049 0.10432 0.0
H677 H 0.76101 0.20876 0.21986 0.0
O678 O 0.74126 0.12464 0.29668 0.0
C679 C 0.75651 0.17526 0.31101 0.0
Co680 Co 0.85175 0.60597 0.25795 0.0
Co681 Co 0.81896 0.58224 0.21267 0.0
C682 C 0.83184 0.61794 0.21417 0.0
O683 O 0.8444 0.62063 0.23583 0.0
O684 O 0.82118 0.60376 0.20346 0.0
C685 C 0.88263 0.63335 0.27498 0.0
O686 O 0.87871 0.63981 0.24135 0.0
C687 C 0.79714 0.57056 0.13628 0.0
C688 C 0.77791 0.54682 0.15891 0.0
C689 C 0.78261 0.55775 0.12327 0.0
N690 N 0.80088 0.56756 0.17798 0.0
N691 N 0.7894 0.55331 0.19142 0.0
C692 C 0.8077 0.58518 0.10864 0.0
H693 H 0.82024 0.59086 0.121 0.0
H694 H 0.80717 0.58206 0.07171 0.0
H695 H 0.80342 0.59385 0.11206 0.0
C696 C 0.86319 0.59114 0.19013 0.0
N697 N 0.8515 0.59277 0.20989 0.0
N698 N 0.83764 0.58226 0.19209 0.0
C699 C 0.84003 0.57333 0.16096 0.0
C700 C 0.85632 0.57873 0.15848 0.0
C701 C 0.88058 0.6017 0.20048 0.0
H702 H 0.88324 0.59856 0.23479 0.0
H703 H 0.88344 0.61433 0.20164 0.0
H704 H 0.88826 0.60052 0.17426 0.0
O705 O 0.83814 0.59264 0.3091 0.0
O706 O 0.81469 0.57584 0.27774 0.0
H707 H 0.81673 0.55239 0.161 0.0
H708 H 0.83094 0.55094 0.12412 0.0
C709 C 0.82685 0.55911 0.13704 0.0
H710 H 0.82255 0.56324 0.1076 0.0
H711 H 0.78928 0.54813 0.22301 0.0
O712 O 0.87327 0.61879 0.28527 0.0
C713 C 0.82381 0.58117 0.31261 0.0
Co714 Co 0.58113 0.06171 0.89184 0.0
Co715 Co 0.57163 0.08295 0.9494 0.0
C716 C 0.55063 0.04711 0.94495 0.0
O717 O 0.56031 0.04553 0.91873 0.0
O718 O 0.55357 0.06084 0.95863 0.0
C719 C 0.58966 0.03767 0.86985 0.0
O720 O 0.58456 0.0321 0.91137 0.0
C721 C 0.56408 0.09376 0.03384 0.0
C722 C 0.56361 0.11545 0.01182 0.0
C723 C 0.56119 0.10565 0.04929 0.0
N724 N 0.56822 0.09649 0.98939 0.0
N725 N 0.56807 0.10955 0.97643 0.0
C726 C 0.56131 0.07911 0.05932 0.0
H727 H 0.54843 0.07174 0.068 0.0
H728 H 0.56509 0.07197 0.03847 0.0
H729 H 0.56813 0.08247 0.09196 0.0
C730 C 0.61002 0.07799 0.95089 0.0
N731 N 0.59544 0.07509 0.93768 0.0
N732 N 0.59145 0.08407 0.96205 0.0
C733 C 0.60336 0.0929 0.99175 0.0
C734 C 0.61537 0.08922 0.98576 0.0
C735 C 0.61866 0.07023 0.93042 0.0
H736 H 0.6127 0.05755 0.94148 0.0
H737 H 0.63134 0.07624 0.9416 0.0
H738 H 0.6181 0.07053 0.89239 0.0
O739 O 0.57795 0.07483 0.8458 0.0
O740 O 0.57149 0.09024 0.88618 0.0
H741 H 0.616 0.11337 0.03651 0.0
H742 H 0.59588 0.09919 0.05347 0.0
C743 C 0.60372 0.10524 0.02361 0.0
H744 H 0.59927 0.11239 0.0057 0.0
H745 H 0.57051 0.11413 0.94307 0.0
O746 O 0.58977 0.05026 0.85673 0.0
C747 C 0.57433 0.08581 0.84791 0.0
Co748 Co 0.9348 0.52059 0.88484 0.0
Co749 Co 0.91287 0.48954 0.94035 0.0
C750 C 0.94885 0.50431 0.93774 0.0
O751 O 0.95084 0.51615 0.9135 0.0
O752 O 0.93491 0.49325 0.94892 0.0
C753 C 0.95901 0.55309 0.86081 0.0
O754 O 0.96486 0.55399 0.90218 0.0
C755 C 0.90382 0.46931 0.02066 0.0
C756 C 0.87887 0.45062 0.00649 0.0
C757 C 0.8912 0.45533 0.03791 0.0
N758 N 0.89933 0.47264 0.98052 0.0
N759 N 0.88437 0.46148 0.97218 0.0
C760 C 0.91964 0.47993 0.04302 0.0
H761 H 0.92419 0.49257 0.03293 0.0
H762 H 0.91863 0.47887 0.08102 0.0
H763 H 0.92837 0.47638 0.03145 0.0
C764 C 0.91836 0.53312 0.94346 0.0
N765 N 0.92118 0.52143 0.92984 0.0
N766 N 0.91188 0.50831 0.95318 0.0
C767 C 0.90281 0.51123 0.98235 0.0
C768 C 0.90665 0.52704 0.97713 0.0
C769 C 0.92612 0.54951 0.92282 0.0
H770 H 0.9263 0.54863 0.88485 0.0
H771 H 0.93866 0.55642 0.93505 0.0
H772 H 0.91976 0.55599 0.93249 0.0
O773 O 0.92202 0.50413 0.83836 0.0
O774 O 0.90567 0.48222 0.87728 0.0
H775 H 0.88166 0.48891 -0.00421 0.0
H776 H 0.88538 0.50435 0.03733 0.0
C777 C 0.89104 0.4992 0.0153 0.0
H778 H 0.89723 0.4947 0.03766 0.0
H779 H 0.87802 0.46114 0.94277 0.0
O780 O 0.94625 0.54052 0.84905 0.0
C781 C 0.91079 0.48963 0.83943 0.0
Co782 Co 0.47917 0.41622 0.89197 0.0
Co783 Co 0.51194 0.42715 0.94014 0.0
C784 C 0.4968 0.44804 0.93694 0.0
O785 O 0.4845 0.43753 0.9157 0.0
O786 O 0.5082 0.44557 0.94723 0.0
C787 C 0.44749 0.41024 0.87519 0.0
O788 O 0.45031 0.41933 0.9116 0.0
C789 C 0.53288 0.43931 0.01819 0.0
C790 C 0.55296 0.43541 0.00097 0.0
C791 C 0.54749 0.44189 0.03394 0.0
N792 N 0.52988 0.43189 0.9775 0.0
N793 N 0.54188 0.42952 0.96725 0.0
C794 C 0.52145 0.44309 0.04225 0.0
H795 H 0.50898 0.43448 0.03186 0.0
H796 H 0.52263 0.44271 0.08011 0.0
H797 H 0.52412 0.45529 0.03239 0.0
C798 C 0.46869 0.38942 0.95741 0.0
N799 N 0.47992 0.40342 0.93959 0.0
N800 N 0.49377 0.40771 0.95917 0.0
C801 C 0.49185 0.39639 0.98971 0.0
C802 C 0.47587 0.38442 0.98966 0.0
C803 C 0.45137 0.3814 0.94462 0.0
H804 H 0.44983 0.37671 0.90906 0.0
H805 H 0.4473 0.39029 0.94539 0.0
H806 H 0.44379 0.37151 0.96845 0.0
O807 O 0.49408 0.41822 0.84212 0.0
O808 O 0.51736 0.42559 0.8759 0.0
H809 H 0.51568 0.40018 0.9922 0.0
H810 H 0.50183 0.38451 0.02978 0.0
C811 C 0.50532 0.39646 0.01545 0.0
H812 H 0.50906 0.40524 0.04396 0.0
H813 H 0.5426 0.42406 0.93707 0.0
O814 O 0.45785 0.40655 0.86282 0.0
C815 C 0.50868 0.4218 0.84005 0.0
Co816 Co 0.60238 0.74745 0.72819 0.0
Co817 Co 0.58087 0.75851 0.77772 0.0
C818 C 0.61688 0.77931 0.7727 0.0
O819 O 0.61862 0.76875 0.75148 0.0
O820 O 0.60305 0.77687 0.78338 0.0
C821 C 0.62723 0.73992 0.70854 0.0
O822 O 0.63374 0.7475 0.74706 0.0
C823 C 0.5725 0.77097 0.85622 0.0
C824 C 0.54826 0.76658 0.84023 0.0
C825 C 0.56039 0.77335 0.87259 0.0
N826 N 0.56791 0.76338 0.81579 0.0
N827 N 0.55339 0.76074 0.80626 0.0
C828 C 0.58789 0.77498 0.87956 0.0
H829 H 0.59724 0.7872 0.86932 0.0
H830 H 0.59184 0.76646 0.8689 0.0
H831 H 0.58653 0.77465 0.91749 0.0
C832 C 0.58666 0.7209 0.79504 0.0
N833 N 0.58918 0.73473 0.77655 0.0
N834 N 0.57983 0.73917 0.79685 0.0
C835 C 0.57091 0.72817 0.82869 0.0
C836 C 0.57498 0.71626 0.82872 0.0
C837 C 0.5958 0.71276 0.78167 0.0
H838 H 0.59308 0.70876 0.74539 0.0
H839 H 0.60878 0.72142 0.78416 0.0
H840 H 0.59301 0.7024 0.80409 0.0
O841 O 0.58907 0.74933 0.67952 0.0
O842 O 0.57329 0.75668 0.71411 0.0
H843 H 0.55088 0.73192 0.83342 0.0
H844 H 0.54977 0.71674 0.87178 0.0
C845 C 0.55794 0.72852 0.856 0.0
H846 H 0.56341 0.73762 0.88355 0.0
H847 H 0.54706 0.75508 0.77648 0.0
O848 O 0.61364 0.7378 0.69672 0.0
C849 C 0.57797 0.7528 0.67804 0.0
Co850 Co 0.24866 0.85565 0.72771 0.0
Co851 Co 0.23941 0.82448 0.78286 0.0
C852 C 0.2181 0.83911 0.77946 0.0
O853 O 0.22802 0.85103 0.75559 0.0
O854 O 0.22097 0.82805 0.79073 0.0
C855 C 0.2568 0.88814 0.70346 0.0
O856 O 0.25157 0.88898 0.74447 0.0
C857 C 0.22808 0.80406 0.8627 0.0
C858 C 0.23489 0.78572 0.849 0.0
C859 C 0.22699 0.79021 0.88011 0.0
N860 N 0.23602 0.80752 0.82278 0.0
N861 N 0.24013 0.79657 0.81466 0.0
C862 C 0.22257 0.81447 0.88485 0.0
H863 H 0.23054 0.82715 0.87495 0.0
H864 H 0.2224 0.81337 0.92284 0.0
H865 H 0.21028 0.81075 0.87288 0.0
C866 C 0.27728 0.86816 0.78791 0.0
N867 N 0.2629 0.85646 0.77346 0.0
N868 N 0.259 0.84328 0.79656 0.0
C869 C 0.27082 0.84614 0.8263 0.0
C870 C 0.28274 0.86198 0.82179 0.0
C871 C 0.28594 0.88463 0.76788 0.0
H872 H 0.28002 0.89135 0.77942 0.0
H873 H 0.29866 0.89121 0.77874 0.0
H874 H 0.28529 0.8839 0.72984 0.0
O875 O 0.2453 0.83929 0.68109 0.0
O876 O 0.23965 0.81735 0.71993 0.0
H877 H 0.26974 0.82382 0.83926 0.0
H878 H 0.28122 0.83912 0.8814 0.0
C879 C 0.2705 0.83401 0.85899 0.0
H880 H 0.25972 0.82939 0.88102 0.0
H881 H 0.24632 0.7964 0.78556 0.0
O882 O 0.25721 0.87565 0.69211 0.0
C883 C 0.24209 0.82481 0.68214 0.0
Co884 Co 0.14125 0.3913 0.7251 0.0
Co885 Co 0.17114 0.41275 0.78551 0.0
C886 C 0.15702 0.37693 0.77976 0.0
O887 O 0.14582 0.37516 0.7529 0.0
O888 O 0.16748 0.39074 0.79398 0.0
C889 C 0.10907 0.36728 0.69775 0.0
O890 O 0.10766 0.36108 0.73887 0.0
C891 C 0.18931 0.42189 0.86988 0.0
C892 C 0.20959 0.44597 0.8548 0.0
C893 C 0.20339 0.43409 0.88796 0.0
N894 N 0.18732 0.42616 0.82769 0.0
N895 N 0.19939 0.44064 0.81888 0.0
C896 C 0.17753 0.40663 0.89296 0.0
H897 H 0.16548 0.40183 0.87747 0.0
H898 H 0.17699 0.40861 0.93035 0.0
H899 H 0.18137 0.39766 0.88861 0.0
C900 C 0.12742 0.40679 0.78283 0.0
N901 N 0.13944 0.40429 0.77053 0.0
N902 N 0.15203 0.41322 0.79631 0.0
C903 C 0.14833 0.42151 0.82625 0.0
C904 C 0.13265 0.41764 0.81874 0.0
C905 C 0.11124 0.39883 0.76091 0.0
H906 H 0.10472 0.38604 0.77094 0.0
H907 H 0.10412 0.4044 0.77187 0.0
H908 H 0.11252 0.39952 0.72297 0.0
O909 O 0.15817 0.40479 0.68099 0.0
O910 O 0.17941 0.42055 0.72319 0.0
H911 H 0.15484 0.44051 0.87593 0.0
H912 H 0.16242 0.42715 0.88732 0.0
C913 C 0.15979 0.43348 0.85991 0.0
H914 H 0.17115 0.44175 0.84227 0.0
H915 H 0.20089 0.44669 0.78793 0.0
O916 O 0.12182 0.38004 0.6872 0.0
C917 C 0.17262 0.41599 0.68428 0.0
Co918 Co 0.41737 0.93719 0.10248 0.0
Co919 Co 0.42617 0.9143 0.05078 0.0
C920 C 0.4481 0.95018 0.0515 0.0
O921 O 0.43835 0.95241 0.0754 0.0
O922 O 0.44498 0.93613 0.0404 0.0
C923 C 0.41278 0.96366 0.12347 0.0
O924 O 0.4221 0.97033 0.08774 0.0
C925 C 0.43246 0.90142 0.96847 0.0
C926 C 0.43242 0.87982 0.99395 0.0
C927 C 0.43455 0.88884 0.95481 0.0
N928 N 0.42901 0.8998 0.01345 0.0
N929 N 0.42886 0.88681 0.02852 0.0
C930 C 0.4352 0.9156 0.94048 0.0
H931 H 0.44751 0.92161 0.92615 0.0
H932 H 0.43344 0.92417 0.96151 0.0
H933 H 0.42673 0.91171 0.91124 0.0
C934 C 0.38969 0.92214 0.03938 0.0
N935 N 0.40339 0.9238 0.05639 0.0
N936 N 0.40665 0.91361 0.0359 0.0
C937 C 0.39478 0.90473 0.00614 0.0
C938 C 0.38376 0.90999 0.0069 0.0
C939 C 0.3831 0.93275 0.05213 0.0
H940 H 0.39281 0.9454 0.05075 0.0
H941 H 0.37338 0.93121 0.0287 0.0
H942 H 0.37854 0.93009 0.08792 0.0
O943 O 0.41995 0.92435 0.15161 0.0
O944 O 0.42585 0.90786 0.11481 0.0
H945 H 0.38056 0.88201 0.97209 0.0
H946 H 0.4 0.89472 0.94769 0.0
C947 C 0.39325 0.89061 0.98036 0.0
H948 H 0.39814 0.88439 0.00102 0.0
H949 H 0.42674 0.88294 0.06262 0.0
O950 O 0.40868 0.94935 0.13395 0.0
C951 C 0.42318 0.91308 0.1519 0.0
Co952 Co 0.05821 0.47924 0.09515 0.0
Co953 Co 0.08035 0.50971 0.03768 0.0
C954 C 0.04484 0.49691 0.04436 0.0
O955 O 0.0428 0.4853 0.06986 0.0
O956 O 0.05871 0.50721 0.03004 0.0
C957 C 0.03336 0.44681 0.11805 0.0
O958 O 0.02729 0.44627 0.07722 0.0
C959 C 0.0914 0.53055 0.9581 0.0
C960 C 0.11668 0.54764 0.97457 0.0
C961 C 0.10489 0.54401 0.94208 0.0
N962 N 0.09487 0.52646 -0.00138 0.0
N963 N 0.11003 0.53666 0.00833 0.0
C964 C 0.07567 0.52119 0.9341 0.0
H965 H 0.06928 0.50863 0.94637 0.0
H966 H 0.07745 0.52143 0.89635 0.0
H967 H 0.06825 0.52673 0.94139 0.0
C968 C 0.07264 0.46536 0.03355 0.0
N969 N 0.07072 0.47754 0.04803 0.0
N970 N 0.07981 0.49032 0.02311 0.0
C971 C 0.08754 0.48656 0.99135 0.0
C972 C 0.0832 0.47066 -0.00303 0.0
C973 C 0.06458 0.44901 0.05441 0.0
H974 H 0.06529 0.44997 0.09242 0.0
H975 H 0.05179 0.44265 0.04438 0.0
H976 H 0.07003 0.44189 0.04249 0.0
O977 O 0.07214 0.49496 0.14126 0.0
O978 O 0.08817 0.51658 0.10089 0.0
H979 H 0.10887 0.50858 0.97635 0.0
H980 H 0.10497 0.49257 0.93693 0.0
C981 C 0.09939 0.49812 0.95766 0.0
H982 H 0.09328 0.50243 0.93427 0.0
H983 H 0.11578 0.53623 0.03823 0.0
O984 O 0.04623 0.45921 0.13001 0.0
C985 C 0.08365 0.50929 0.1391 0.0
Co986 Co 0.51826 0.57994 0.10224 0.0
Co987 Co 0.48676 0.57084 0.04892 0.0
C988 C 0.50151 0.54969 0.04823 0.0
O989 O 0.513 0.55917 0.07413 0.0
O990 O 0.49067 0.5528 0.03623 0.0
C991 C 0.54988 0.58568 0.12077 0.0
O992 O 0.54774 0.57746 0.08286 0.0
C993 C 0.46751 0.56387 0.96664 0.0
C994 C 0.44539 0.56273 0.99208 0.0
C995 C 0.45248 0.56077 0.95315 0.0
N996 N 0.46935 0.5677 0.01136 0.0
N997 N 0.45617 0.56717 0.02639 0.0
C998 C 0.47925 0.5615 0.93899 0.0
H999 H 0.49047 0.56544 0.95851 0.0
H1000 H 0.48215 0.56843 0.90659 0.0
H1001 H 0.47387 0.54867 0.92981 0.0
C1002 C 0.53028 0.6088 0.04394 0.0
N1003 N 0.51862 0.59431 0.05766 0.0
N1004 N 0.50523 0.59083 0.03632 0.0
C1005 C 0.50789 0.6032 0.00901 0.0
C1006 C 0.52385 0.61488 0.01278 0.0
C1007 C 0.54701 0.6169 0.06209 0.0
H1008 H 0.54674 0.61724 0.10017 0.0
H1009 H 0.55277 0.60987 0.05209 0.0
H1010 H 0.55421 0.62927 0.04873 0.0
O1011 O 0.50262 0.57674 0.15091 0.0
O1012 O 0.48022 0.57026 0.11322 0.0
H1013 H 0.48421 0.59937 -0.00072 0.0
H1014 H 0.49942 0.61595 0.96664 0.0
C1015 C 0.49545 0.60372 0.97953 0.0
H1016 H 0.493 0.59578 0.94947 0.0
H1017 H 0.4543 0.56926 0.06042 0.0
O1018 O 0.53907 0.58866 0.13375 0.0
C1019 C 0.48797 0.57301 0.15062 0.0
Co1020 Co 0.05946 0.5801 0.59286 0.0
Co1021 Co 0.08175 0.57124 0.53792 0.0
C1022 C 0.04605 0.54912 0.54233 0.0
O1023 O 0.04406 0.55872 0.56781 0.0
O1024 O 0.05992 0.5525 0.52862 0.0
C1025 C 0.03444 0.58756 0.61437 0.0
O1026 O 0.02862 0.58196 0.57339 0.0
C1027 C 0.09397 0.5645 0.45468 0.0
C1028 C 0.11656 0.5662 0.47814 0.0
C1029 C 0.10684 0.56307 0.44005 0.0
N1030 N 0.09608 0.56857 0.49924 0.0
N1031 N 0.10964 0.56967 0.5131 0.0
C1032 C 0.07921 0.56072 0.42804 0.0
H1033 H 0.07297 0.54793 0.41774 0.0
H1034 H 0.07107 0.56323 0.44871 0.0
H1035 H 0.0824 0.568 0.39627 0.0
C1036 C 0.07464 0.60837 0.53165 0.0
N1037 N 0.07229 0.59409 0.54597 0.0
N1038 N 0.08216 0.59071 0.52393 0.0
C1039 C 0.09129 0.6029 0.49535 0.0
C1040 C 0.0867 0.61435 0.49911 0.0
C1041 C 0.06638 0.61664 0.55132 0.0
H1042 H 0.05371 0.61029 0.54004 0.0
H1043 H 0.07209 0.62929 0.53995 0.0
H1044 H 0.06661 0.61622 0.58938 0.0
O1045 O 0.07338 0.57855 0.63959 0.0
O1046 O 0.08899 0.57174 0.60155 0.0
H1047 H 0.11189 0.61574 0.45071 0.0
H1048 H 0.09874 0.59517 0.43641 0.0
C1049 C 0.10425 0.60365 0.46534 0.0
H1050 H 0.11179 0.60013 0.48532 0.0
H1051 H 0.11401 0.57246 0.54664 0.0
O1052 O 0.04737 0.58826 0.62697 0.0
C1053 C 0.08457 0.57523 0.63882 0.0
Co1054 Co 0.41737 0.47665 0.60091 0.0
Co1055 Co 0.42579 0.50842 0.55025 0.0
C1056 C 0.44815 0.49502 0.55061 0.0
O1057 O 0.43846 0.4828 0.57384 0.0
O1058 O 0.44485 0.50587 0.54022 0.0
C1059 C 0.41326 0.44566 0.61947 0.0
O1060 O 0.42238 0.44867 0.58307 0.0
C1061 C 0.43209 0.52743 0.46794 0.0
C1062 C 0.43253 0.54928 0.49291 0.0
C1063 C 0.43449 0.54218 0.45398 0.0
N1064 N 0.42863 0.52574 0.5129 0.0
N1065 N 0.42876 0.53876 0.52769 0.0
C1066 C 0.43467 0.51581 0.44034 0.0
H1067 H 0.4471 0.52184 0.42699 0.0
H1068 H 0.43241 0.50531 0.46138 0.0
H1069 H 0.42647 0.51154 0.41044 0.0
C1070 C 0.38964 0.46397 0.53791 0.0
N1071 N 0.40336 0.47601 0.55483 0.0
N1072 N 0.40651 0.48948 0.53462 0.0
C1073 C 0.39459 0.48649 0.50507 0.0
C1074 C 0.38364 0.47021 0.50573 0.0
C1075 C 0.38301 0.44679 0.55083 0.0
H1076 H 0.37889 0.44504 0.58706 0.0
H1077 H 0.39259 0.44369 0.54826 0.0
H1078 H 0.37297 0.43863 0.52825 0.0
O1079 O 0.41951 0.4918 0.6505 0.0
O1080 O 0.42499 0.51419 0.61427 0.0
H1081 H 0.39779 0.51015 0.50073 0.0
H1082 H 0.38017 0.49495 0.47196 0.0
C1083 C 0.3929 0.49909 0.47986 0.0
H1084 H 0.39956 0.50184 0.44699 0.0
H1085 H 0.42674 0.54066 0.56174 0.0
O1086 O 0.40904 0.45567 0.63142 0.0
C1087 C 0.42235 0.50619 0.65113 0.0
Co1088 Co 0.51961 0.93558 0.60917 0.0
Co1089 Co 0.48885 0.91363 0.55252 0.0
C1090 C 0.50304 0.94946 0.55602 0.0
O1091 O 0.51444 0.95134 0.58215 0.0
O1092 O 0.49247 0.9356 0.5425 0.0
C1093 C 0.55207 0.96012 0.63056 0.0
O1094 O 0.55245 0.96545 0.58876 0.0
C1095 C 0.47024 0.90228 0.46858 0.0
C1096 C 0.44844 0.8804 0.49135 0.0
C1097 C 0.4555 0.89018 0.45364 0.0
N1098 N 0.47193 0.8997 0.51297 0.0
N1099 N 0.45894 0.88653 0.52637 0.0
C1100 C 0.48181 0.91697 0.44267 0.0
H1101 H 0.47608 0.92418 0.43443 0.0
H1102 H 0.49283 0.92425 0.46303 0.0
H1103 H 0.48516 0.91363 0.40979 0.0
C1104 C 0.53256 0.91946 0.55071 0.0
N1105 N 0.52076 0.92221 0.56366 0.0
N1106 N 0.50768 0.91265 0.54051 0.0
C1107 C 0.51071 0.90336 0.5125 0.0
C1108 C 0.52658 0.90747 0.51789 0.0
C1109 C 0.54893 0.92743 0.57146 0.0
H1110 H 0.54802 0.92764 0.60941 0.0
H1111 H 0.55573 0.93995 0.55904 0.0
H1112 H 0.55555 0.92118 0.562 0.0
O1113 O 0.50347 0.92239 0.65567 0.0
O1114 O 0.48156 0.90662 0.61591 0.0
H1115 H 0.48738 0.88334 0.49973 0.0
H1116 H 0.50304 0.88329 0.46574 0.0
C1117 C 0.49868 0.89094 0.48086 0.0
H1118 H 0.49614 0.89696 0.45238 0.0
H1119 H 0.45701 0.88202 0.55981 0.0
O1120 O 0.53969 0.94748 0.64398 0.0
C1121 C 0.48892 0.9113 0.65399 0.0
Co1122 Co 0.24653 0.39039 0.23526 0.0
Co1123 Co 0.23779 0.41283 0.28969 0.0
C1124 C 0.21642 0.3769 0.28958 0.0
O1125 O 0.22607 0.37482 0.26465 0.0
O1126 O 0.2194 0.39089 0.30084 0.0
C1127 C 0.25429 0.36569 0.21089 0.0
O1128 O 0.24904 0.35952 0.25179 0.0
C1129 C 0.2305 0.4247 0.37239 0.0
C1130 C 0.23387 0.44815 0.35064 0.0
C1131 C 0.22961 0.43782 0.38772 0.0
N1132 N 0.23532 0.42726 0.32847 0.0
N1133 N 0.23741 0.44131 0.31561 0.0
C1134 C 0.22543 0.40927 0.39704 0.0
H1135 H 0.23164 0.40322 0.38242 0.0
H1136 H 0.22792 0.41113 0.43434 0.0
H1137 H 0.21236 0.40132 0.39243 0.0
C1138 C 0.2756 0.40676 0.29292 0.0
N1139 N 0.26116 0.40414 0.27939 0.0
N1140 N 0.25767 0.41385 0.30182 0.0
C1141 C 0.26991 0.42311 0.33007 0.0
C1142 C 0.28158 0.41884 0.32544 0.0
C1143 C 0.28377 0.39838 0.27339 0.0
H1144 H 0.28312 0.39835 0.23534 0.0
H1145 H 0.2775 0.38578 0.28534 0.0
H1146 H 0.29649 0.40419 0.28414 0.0
O1147 O 0.24302 0.40306 0.18823 0.0
O1148 O 0.23708 0.41933 0.22602 0.0
H1149 H 0.26738 0.44361 0.3423 0.0
H1150 H 0.28198 0.44258 0.3789 0.0
C1151 C 0.27022 0.43548 0.36178 0.0
H1152 H 0.26102 0.42946 0.38875 0.0
H1153 H 0.24096 0.4461 0.28271 0.0
O1154 O 0.25476 0.37864 0.19984 0.0
C1155 C 0.23954 0.41414 0.18857 0.0
Co1156 Co 0.60444 0.85214 0.23398 0.0
Co1157 Co 0.58115 0.81958 0.28123 0.0
C1158 C 0.61695 0.83294 0.27921 0.0
O1159 O 0.61944 0.84533 0.25695 0.0
O1160 O 0.60283 0.82221 0.29028 0.0
C1161 C 0.63142 0.8831 0.21537 0.0
O1162 O 0.63798 0.87966 0.2498 0.0
C1163 C 0.57018 0.79834 0.35898 0.0
C1164 C 0.54661 0.77853 0.33743 0.0
C1165 C 0.5577 0.78371 0.37275 0.0
N1166 N 0.56685 0.80168 0.31717 0.0
N1167 N 0.55269 0.78987 0.3044 0.0
C1168 C 0.58482 0.80936 0.38593 0.0
H1169 H 0.59007 0.82181 0.37314 0.0
H1170 H 0.58186 0.80888 0.42298 0.0
H1171 H 0.59379 0.80549 0.38225 0.0
C1172 C 0.58962 0.8638 0.30119 0.0
N1173 N 0.59124 0.85204 0.28182 0.0
N1174 N 0.58096 0.83827 0.30058 0.0
C1175 C 0.57221 0.84079 0.33203 0.0
C1176 C 0.57748 0.85706 0.33368 0.0
C1177 C 0.60004 0.88115 0.28996 0.0
H1178 H 0.59689 0.88351 0.25528 0.0
H1179 H 0.61271 0.88413 0.28918 0.0
H1180 H 0.59874 0.88895 0.31548 0.0
O1181 O 0.59121 0.83793 0.18361 0.0
O1182 O 0.57459 0.81469 0.21639 0.0
H1183 H 0.55151 0.81734 0.33448 0.0
H1184 H 0.55018 0.8318 0.37058 0.0
C1185 C 0.55834 0.82773 0.35746 0.0
H1186 H 0.56287 0.82385 0.38695 0.0
H1187 H 0.54732 0.78939 0.27285 0.0
O1188 O 0.61691 0.87345 0.20521 0.0
C1189 C 0.57985 0.82352 0.1809 0.0
Co1190 Co 0.14359 0.75174 0.23162 0.0
Co1191 Co 0.17523 0.76095 0.2842 0.0
C1192 C 0.16092 0.78259 0.28205 0.0
O1193 O 0.14916 0.77292 0.25723 0.0
O1194 O 0.17168 0.77939 0.29438 0.0
C1195 C 0.11144 0.74478 0.20857 0.0
O1196 O 0.11177 0.75189 0.24738 0.0
C1197 C 0.19426 0.76763 0.36717 0.0
C1198 C 0.21614 0.76818 0.34206 0.0
C1199 C 0.20907 0.77015 0.38103 0.0
N1200 N 0.19254 0.76411 0.32221 0.0
N1201 N 0.20558 0.76431 0.30739 0.0
C1202 C 0.18255 0.77002 0.39492 0.0
H1203 H 0.18861 0.78222 0.40995 0.0
H1204 H 0.17229 0.76825 0.37355 0.0
H1205 H 0.1779 0.76133 0.42364 0.0
C1206 C 0.13121 0.7238 0.29385 0.0
N1207 N 0.14304 0.73787 0.27805 0.0
N1208 N 0.15651 0.74132 0.2988 0.0
C1209 C 0.15373 0.72933 0.32785 0.0
C1210 C 0.1376 0.71794 0.32603 0.0
C1211 C 0.1141 0.71655 0.27941 0.0
H1212 H 0.11301 0.71327 0.2425 0.0
H1213 H 0.11024 0.72552 0.28361 0.0
H1214 H 0.10608 0.70585 0.30005 0.0
O1215 O 0.15906 0.75398 0.18377 0.0
O1216 O 0.18172 0.76073 0.22021 0.0
H1217 H 0.17761 0.73318 0.33313 0.0
H1218 H 0.16263 0.71539 0.36173 0.0
C1219 C 0.16646 0.72804 0.35366 0.0
H1220 H 0.16894 0.73472 0.38643 0.0
H1221 H 0.20746 0.76224 0.27336 0.0
O1222 O 0.12319 0.74295 0.19801 0.0
C1223 C 0.17363 0.75747 0.18335 0.0
H1224 H 0.37057 0.10243 0.84163 0.0
H1225 H 0.32907 0.09752 0.77048 0.0
H1226 H 0.35379 0.08757 0.90667 0.0
H1227 H 0.31246 0.08326 0.83572 0.0
H1228 H 0.28379 0.06091 0.95606 0.0
H1229 H 0.30008 0.06233 0.89026 0.0
H1230 H 0.34252 0.0968 0.96292 0.0
H1231 H 0.32635 0.09489 0.0289 0.0
C1232 C 0.35781 0.09786 0.83944 0.0
C1233 C 0.35119 0.1015 0.80144 0.0
C1234 C 0.34821 0.08941 0.87681 0.0
C1235 C 0.33184 0.08456 0.87705 0.0
C1236 C 0.32499 0.08673 0.83691 0.0
C1237 C 0.33456 0.09504 0.7994 0.0
C1238 C 0.29666 0.06842 0.95839 0.0
C1239 C 0.30377 0.0781 -0.00282 0.0
C1240 C 0.30599 0.06929 0.9206 0.0
C1241 C 0.32258 0.07998 0.92072 0.0
C1242 C 0.32981 0.08837 0.96145 0.0
C1243 C 0.3205 0.08737 -0.00061 0.0
H1244 H 0.91572 0.25517 0.77458 0.0
H1245 H 0.88726 0.26124 0.87864 0.0
H1246 H 0.93174 0.25227 0.83452 0.0
H1247 H 0.90238 0.25736 0.93796 0.0
H1248 H 0.92732 0.21376 0.93854 0.0
H1249 H 0.92536 0.23023 0.87967 0.0
H1250 H 0.92346 0.2612 0.98397 0.0
H1251 H 0.92444 0.2439 0.04345 0.0
C1252 C 0.91306 0.25617 0.81019 0.0
C1253 C 0.89989 0.2579 0.82186 0.0
C1254 C 0.92217 0.2544 0.84463 0.0
C1255 C 0.91806 0.254 0.8913 0.0
C1256 C 0.90602 0.25756 0.90268 0.0
C1257 C 0.89714 0.25962 0.86838 0.0
C1258 C 0.92679 0.22425 0.94909 0.0
C1259 C 0.92546 0.2272 -0.0043 0.0
C1260 C 0.92586 0.2339 0.91506 0.0
C1261 C 0.92383 0.24692 0.92678 0.0
C1262 C 0.92446 0.25097 0.97358 0.0
C1263 C 0.9251 0.2411 0.00775 0.0
H1264 H 0.74816 0.67727 0.03234 0.0
H1265 H 0.77976 0.71022 0.9296 0.0
H1266 H 0.73227 0.65853 0.97186 0.0
H1267 H 0.76473 0.69133 0.86989 0.0
H1268 H 0.74202 0.65588 0.7646 0.0
H1269 H 0.74386 0.67511 0.82206 0.0
H1270 H 0.73721 0.64133 0.92956 0.0
H1271 H 0.73437 0.62202 0.87249 0.0
C1272 C 0.75157 0.68062 -0.00317 0.0
C1273 C 0.76547 0.69501 0.98585 0.0
C1274 C 0.74253 0.66983 0.9621 0.0
C1275 C 0.74744 0.6731 0.91583 0.0
C1276 C 0.76042 0.68826 0.90482 0.0
C1277 C 0.76923 0.69912 0.93937 0.0
C1278 C 0.74047 0.65244 0.80049 0.0
C1279 C 0.73853 0.63761 0.81405 0.0
C1280 C 0.74164 0.66351 0.83354 0.0
C1281 C 0.74124 0.66007 0.88078 0.0
C1282 C 0.73758 0.64457 0.89379 0.0
C1283 C 0.73611 0.63344 0.86081 0.0
H1284 H 0.07977 0.34004 0.70598 0.0
H1285 H 0.11227 0.37372 0.60612 0.0
H1286 H 0.06394 0.32212 0.64389 0.0
H1287 H 0.09734 0.35564 0.54486 0.0
H1288 H 0.06572 0.28626 0.54121 0.0
H1289 H 0.06839 0.30501 0.59994 0.0
H1290 H 0.07683 0.34033 0.49551 0.0
H1291 H 0.07526 0.32166 0.43651 0.0
C1292 C 0.0834 0.34371 0.67078 0.0
C1293 C 0.09752 0.35807 0.66103 0.0
C1294 C 0.0744 0.3334 0.63511 0.0
C1295 C 0.07957 0.3371 0.58914 0.0
C1296 C 0.09281 0.35223 0.57948 0.0
C1297 C 0.10157 0.36263 0.61494 0.0
C1298 C 0.06781 0.2979 0.53056 0.0
C1299 C 0.07084 0.30268 0.48433 0.0
C1300 C 0.06919 0.30871 0.56448 0.0
C1301 C 0.07333 0.32448 0.55289 0.0
C1302 C 0.07427 0.32851 0.50598 0.0
C1303 C 0.07325 0.31778 0.47204 0.0
H1304 H 0.62108 0.73372 0.61725 0.0
H1305 H 0.65552 0.74031 0.72212 0.0
H1306 H 0.64 0.73693 0.55835 0.0
H1307 H 0.67432 0.74244 0.6628 0.0
H1308 H 0.70916 0.7789 0.55651 0.0
H1309 H 0.69044 0.76351 0.61607 0.0
H1310 H 0.65685 0.73245 0.51325 0.0
H1311 H 0.67544 0.74878 0.45303 0.0
C1312 C 0.63253 0.73526 0.6278 0.0
C1313 C 0.637 0.73728 0.67433 0.0
C1314 C 0.64343 0.73697 0.59377 0.0
C1315 C 0.65899 0.74043 0.60546 0.0
C1316 C 0.66269 0.74041 0.65233 0.0
C1317 C 0.65188 0.73906 0.68644 0.0
C1318 C 0.69792 0.7686 0.54647 0.0
C1319 C 0.69357 0.76538 0.49996 0.0
C1320 C 0.68714 0.75957 0.58093 0.0
C1321 C 0.67182 0.74688 0.56979 0.0
C1322 C 0.66828 0.74249 0.52322 0.0
C1323 C 0.67898 0.75177 0.48861 0.0
H1324 H 0.25703 0.91657 0.71286 0.0
H1325 H 0.26112 0.88601 0.61184 0.0
H1326 H 0.25437 0.93223 0.6513 0.0
H1327 H 0.25743 0.90075 0.551 0.0
H1328 H 0.24593 0.92353 0.44253 0.0
H1329 H 0.26233 0.92152 0.50301 0.0
H1330 H 0.23302 0.92723 0.60536 0.0
H1331 H 0.21758 0.93032 0.54528 0.0
C1332 C 0.2576 0.91334 0.67755 0.0
C1333 C 0.25885 0.89979 0.6673 0.0
C1334 C 0.25595 0.92224 0.64216 0.0
C1335 C 0.25517 0.91754 0.59591 0.0
C1336 C 0.25801 0.90491 0.58586 0.0
C1337 C 0.25997 0.89626 0.62107 0.0
C1338 C 0.24335 0.92482 0.47799 0.0
C1339 C 0.23023 0.92668 0.48916 0.0
C1340 C 0.25267 0.92355 0.51277 0.0
C1341 C 0.24876 0.92368 0.5594 0.0
C1342 C 0.23657 0.92711 0.57015 0.0
C1343 C 0.22753 0.92874 0.53544 0.0
H1344 H 0.664 0.90053 0.21254 0.0
H1345 H 0.6217 0.89413 0.14266 0.0
H1346 H 0.68016 0.91505 0.14689 0.0
H1347 H 0.63801 0.90922 0.07716 0.0
H1348 H 0.66556 0.90172 0.95521 0.0
H1349 H 0.64948 0.90001 0.02115 0.0
H1350 H 0.69178 0.93585 0.09132 0.0
H1351 H 0.70801 0.93714 0.02551 0.0
C1352 C 0.65821 0.90273 0.18382 0.0
C1353 C 0.64152 0.89576 0.18221 0.0
C1354 C 0.66753 0.9112 0.14609 0.0
C1355 C 0.66034 0.91299 0.10614 0.0
C1356 C 0.64387 0.90767 0.10688 0.0
C1357 C 0.63453 0.89908 0.1445 0.0
C1358 C 0.6714 0.90958 0.98411 0.0
C1359 C 0.6881 0.9192 0.98571 0.0
C1360 C 0.66213 0.9087 0.02201 0.0
C1361 C 0.66938 0.91754 0.06212 0.0
C1362 C 0.68588 0.92857 0.06146 0.0
C1363 C 0.69517 0.92935 0.02366 0.0
H1364 H 0.07506 0.7534 0.94778 0.0
H1365 H 0.06977 0.78312 0.04921 0.0
H1366 H 0.07654 0.73696 0.00909 0.0
H1367 H 0.07232 0.76763 0.1099 0.0
H1368 H 0.0832 0.74479 0.21863 0.0
H1369 H 0.06702 0.74658 0.15708 0.0
H1370 H 0.09734 0.74158 0.05673 0.0
H1371 H 0.11254 0.73867 0.11776 0.0
C1372 C 0.07398 0.75628 0.9831 0.0
C1373 C 0.07279 0.76984 0.99366 0.0
C1374 C 0.07494 0.74693 0.01835 0.0
C1375 C 0.0751 0.75119 0.06478 0.0
C1376 C 0.07223 0.7638 0.07491 0.0
C1377 C 0.07095 0.7729 0.0398 0.0
C1378 C 0.08604 0.74359 0.18336 0.0
C1379 C 0.09941 0.74207 0.17301 0.0
C1380 C 0.07684 0.74473 0.14798 0.0
C1381 C 0.08114 0.74481 0.10162 0.0
C1382 C 0.09351 0.74157 0.09168 0.0
C1383 C 0.10243 0.74007 0.12697 0.0
H1384 H 0.21342 0.28554 0.04981 0.0
H1385 H 0.24237 0.32079 0.94805 0.0
H1386 H 0.22945 0.3034 0.11032 0.0
H1387 H 0.25938 0.33849 0.00892 0.0
H1388 H 0.25933 0.37279 0.11976 0.0
H1389 H 0.25537 0.35461 0.05804 0.0
H1390 H 0.25091 0.31899 0.15655 0.0
H1391 H 0.25382 0.33709 0.21904 0.0
C1392 C 0.22361 0.29693 0.04026 0.0
C1393 C 0.22633 0.30197 0.99421 0.0
C1394 C 0.233 0.30721 0.07521 0.0
C1395 C 0.24556 0.32269 0.06493 0.0
C1396 C 0.24945 0.32692 0.01838 0.0
C1397 C 0.23978 0.31674 0.98337 0.0
C1398 C 0.25781 0.36119 0.12843 0.0
C1399 C 0.25632 0.35618 0.1744 0.0
C1400 C 0.2557 0.35072 0.09269 0.0
C1401 C 0.25234 0.33503 0.10196 0.0
C1402 C 0.25286 0.33075 0.148 0.0
C1403 C 0.25465 0.34116 0.18392 0.0
H1404 H 0.93854 0.71019 0.46275 0.0
H1405 H 0.90444 0.66759 0.53526 0.0
H1406 H 0.93643 0.69402 0.39592 0.0
H1407 H 0.90191 0.65156 0.46836 0.0
H1408 H 0.89471 0.62386 0.34555 0.0
H1409 H 0.91048 0.64026 0.41009 0.0
H1410 H 0.91485 0.6822 0.34276 0.0
H1411 H 0.89964 0.66595 0.27799 0.0
C1412 C 0.93088 0.69733 0.46483 0.0
C1413 C 0.92132 0.6902 0.50381 0.0
C1414 C 0.92962 0.68807 0.42644 0.0
C1415 C 0.9187 0.67154 0.42622 0.0
C1416 C 0.91049 0.66424 0.46713 0.0
C1417 C 0.91185 0.67348 0.5056 0.0
C1418 C 0.89947 0.63666 0.34399 0.0
C1419 C 0.89557 0.64356 0.30727 0.0
C1420 C 0.90846 0.64605 0.38106 0.0
C1421 C 0.9136 0.66248 0.38226 0.0
C1422 C 0.91116 0.6696 0.34317 0.0
C1423 C 0.9023 0.66024 0.30596 0.0
H1424 H 0.34222 0.2596 0.26518 0.0
H1425 H 0.37555 0.26479 0.37209 0.0
H1426 H 0.32333 0.25804 0.32342 0.0
H1427 H 0.35655 0.26226 0.42983 0.0
H1428 H 0.3209 0.25163 0.53312 0.0
H1429 H 0.33987 0.26774 0.47335 0.0
H1430 H 0.30665 0.23674 0.36976 0.0
H1431 H 0.28758 0.22149 0.42884 0.0
C1432 C 0.34563 0.26069 0.30104 0.0
C1433 C 0.36017 0.26182 0.31405 0.0
C1434 C 0.33476 0.25969 0.33451 0.0
C1435 C 0.33811 0.25948 0.38158 0.0
C1436 C 0.3534 0.26238 0.39418 0.0
C1437 C 0.36433 0.26366 0.36082 0.0
C1438 C 0.31752 0.2486 0.49746 0.0
C1439 C 0.30295 0.23501 0.48577 0.0
C1440 C 0.32842 0.25777 0.46313 0.0
C1441 C 0.32508 0.2533 0.41657 0.0
C1442 C 0.30978 0.24069 0.40497 0.0
C1443 C 0.29882 0.23175 0.43914 0.0
H1444 H 0.78019 0.06988 0.44193 0.0
H1445 H 0.75042 0.07468 0.54419 0.0
H1446 H 0.7649 0.07299 0.38165 0.0
H1447 H 0.73421 0.0768 0.48324 0.0
H1448 H 0.73613 0.11332 0.37599 0.0
H1449 H 0.73912 0.09797 0.43639 0.0
H1450 H 0.74362 0.06767 0.33487 0.0
H1451 H 0.74167 0.08395 0.27389 0.0
C1452 C 0.77001 0.07109 0.45159 0.0
C1453 C 0.76685 0.07258 0.49791 0.0
C1454 C 0.76103 0.07269 0.41672 0.0
C1455 C 0.74845 0.07556 0.42725 0.0
C1456 C 0.74414 0.07516 0.47373 0.0
C1457 C 0.75336 0.07385 0.50876 0.0
C1458 C 0.73743 0.10319 0.36637 0.0
C1459 C 0.73923 0.10021 0.32012 0.0
C1460 C 0.73899 0.09419 0.4013 0.0
C1461 C 0.7421 0.08177 0.39083 0.0
C1462 C 0.74184 0.07752 0.34434 0.0
C1463 C 0.74061 0.08677 0.30929 0.0
H1464 H 0.04008 0.44785 0.20915 0.0
H1465 H 0.00565 0.41807 0.10658 0.0
H1466 H 0.0221 0.43181 0.26923 0.0
H1467 H 0.98781 0.40109 0.16726 0.0
H1468 H 0.95294 0.40159 0.27625 0.0
H1469 H 0.97118 0.40491 0.21521 0.0
H1470 H 0.0067 0.41039 0.31554 0.0
H1471 H 0.98858 0.4082 0.37709 0.0
C1472 C 0.02883 0.43751 0.19934 0.0
C1473 C 0.02405 0.43457 0.1531 0.0
C1474 C 0.01849 0.42809 0.23409 0.0
C1475 C 0.00319 0.41527 0.22348 0.0
C1476 C -0.00076 0.41119 0.17689 0.0
C1477 C 0.0095 0.42086 0.14201 0.0
C1478 C 0.96451 0.40316 0.28544 0.0
C1479 C 0.96955 0.40522 0.33148 0.0
C1480 C 0.97502 0.40491 0.25015 0.0
C1481 C 0.99073 0.40846 0.26011 0.0
C1482 C 0.99495 0.40833 0.30644 0.0
C1483 C 0.98453 0.40696 0.34182 0.0
H1484 H 0.60726 0.56453 0.30168 0.0
H1485 H 0.57218 0.57041 0.37812 0.0
H1486 H 0.60471 0.57939 0.23764 0.0
H1487 H 0.5691 0.58456 0.31391 0.0
H1488 H 0.56031 0.60559 0.19519 0.0
H1489 H 0.57639 0.6048 0.25865 0.0
H1490 H 0.58374 0.57028 0.18382 0.0
H1491 H 0.56835 0.57166 0.12007 0.0
C1492 C 0.59927 0.56931 0.30522 0.0
C1493 C 0.58959 0.56593 0.34442 0.0
C1494 C 0.59774 0.57775 0.26841 0.0
C1495 C 0.58637 0.58279 0.26992 0.0
C1496 C 0.57802 0.58093 0.31126 0.0
C1497 C 0.5797 0.57267 0.34822 0.0
C1498 C 0.56579 0.59821 0.19187 0.0
C1499 C 0.56275 0.58838 0.1532 0.0
C1500 C 0.57495 0.5977 0.22831 0.0
C1501 C 0.58103 0.58715 0.22704 0.0
C1502 C 0.57935 0.57861 0.18621 0.0
C1503 C 0.57039 0.5793 0.14956 0.0
H1504 H 0.42769 -0.0013 0.38303 0.0
H1505 H 0.43369 0.04037 0.31038 0.0
H1506 H 0.41329 0.98203 0.31801 0.0
H1507 H 0.4186 0.02355 0.24563 0.0
H1508 H 0.42689 0.99616 0.12559 0.0
H1509 H 0.42801 0.01226 0.19073 0.0
H1510 H 0.39301 0.96972 0.26197 0.0
H1511 H 0.3924 0.95348 0.19699 0.0
C1512 C 0.42537 0.00421 0.35386 0.0
C1513 C 0.43222 0.02087 0.35117 0.0
C1514 C 0.41698 0.99461 0.31646 0.0
C1515 C 0.41513 0.0015 0.27591 0.0
C1516 C 0.42024 0.01793 0.27575 0.0
C1517 C 0.42882 0.02756 0.31292 0.0
C1518 C 0.41909 0.99026 0.15457 0.0
C1519 C 0.40993 0.97352 0.15675 0.0
C1520 C 0.41962 -0.00047 0.19202 0.0
C1521 C 0.41086 0.99226 0.23223 0.0
C1522 C 0.40025 0.97566 0.23207 0.0
C1523 C 0.39985 0.96636 0.19476 0.0
H1524 H 0.55156 0.95486 0.72262 0.0
H1525 H 0.58021 0.98818 0.61632 0.0
H1526 H 0.5672 0.9742 0.78069 0.0
H1527 H 0.5967 0.00744 0.67501 0.0
H1528 H 0.59416 0.04298 0.77775 0.0
H1529 H 0.5912 0.02391 0.71963 0.0
H1530 H 0.58891 0.99126 0.82524 0.0
H1531 H 0.59091 0.0102 0.88396 0.0
C1532 C 0.56158 0.96617 0.71162 0.0
C1533 C 0.56429 0.9702 0.66481 0.0
C1534 C 0.57075 0.97729 0.74519 0.0
C1535 C 0.58304 0.99266 0.73277 0.0
C1536 C 0.58699 0.99594 0.68588 0.0
C1537 C 0.5776 0.98487 0.65217 0.0
C1538 C 0.59335 0.03188 0.78871 0.0
C1539 C 0.59221 0.02787 0.83552 0.0
C1540 C 0.59183 0.02092 0.75512 0.0
C1541 C 0.58938 0.00576 0.76751 0.0
C1542 C 0.59022 0.00258 0.81439 0.0
C1543 C 0.59146 0.01347 0.84811 0.0
H1544 H 0.98734 0.58131 0.87082 0.0
H1545 H 0.95271 0.55123 0.76909 0.0
H1546 H 0.00598 0.59674 0.80964 0.0
H1547 H 0.97144 0.56577 0.70862 0.0
H1548 H 0.00649 0.58798 0.60133 0.0
H1549 H 0.98805 0.58656 0.66091 0.0
H1550 H 0.0219 0.59058 0.765 0.0
H1551 H 0.04046 0.59298 0.70595 0.0
C1552 C 0.98361 0.57816 0.83543 0.0
C1553 C 0.96874 0.56476 0.82487 0.0
C1554 C 0.99433 0.58692 0.80028 0.0
C1555 C 0.9905 0.58224 0.754 0.0
C1556 C 0.97496 0.56987 0.74356 0.0
C1557 C 0.96417 0.56134 0.77855 0.0
C1558 C 0.01011 0.58901 0.63698 0.0
C1559 C 0.02474 0.59015 0.64894 0.0
C1560 C -0.00049 0.5881 0.67122 0.0
C1561 C 0.0032 0.58797 0.71805 0.0
C1562 C 0.01851 0.59068 0.7296 0.0
C1563 C 0.02918 0.59189 0.69548 0.0
H1564 H 0.43688 0.39039 0.80048 0.0
H1565 H 0.42915 0.42441 0.87633 0.0
H1566 H 0.4214 0.39193 0.73649 0.0
H1567 H 0.41438 0.4265 0.81216 0.0
H1568 H 0.39295 0.43435 0.69305 0.0
H1569 H 0.39413 0.41846 0.75644 0.0
H1570 H 0.42994 0.41286 0.68274 0.0
H1571 H 0.42821 0.42805 0.6191 0.0
C1572 C 0.43156 0.39792 0.80391 0.0
C1573 C 0.43461 0.40764 0.84286 0.0
C1574 C 0.42276 0.39886 0.76715 0.0
C1575 C 0.41704 0.4097 0.76845 0.0
C1576 C 0.41854 0.41799 0.80966 0.0
C1577 C 0.42716 0.41689 0.84659 0.0
C1578 C 0.4007 0.42929 0.68993 0.0
C1579 C 0.41082 0.43281 0.65169 0.0
C1580 C 0.40143 0.42023 0.72633 0.0
C1581 C 0.41244 0.41472 0.72541 0.0
C1582 C 0.42126 0.41681 0.68488 0.0
C1583 C 0.42038 0.42568 0.6483 0.0
H1584 H 0.31096 0.13008 0.07226 0.0
H1585 H 0.28178 0.13524 0.17578 0.0
H1586 H 0.33408 0.15466 0.0986 0.0
H1587 H 0.30508 0.15951 0.20357 0.0
H1588 H 0.34674 0.21088 0.21355 0.0
H1589 H 0.3232 0.1866 0.18682 0.0
H1590 H 0.35256 0.16537 0.15895 0.0
H1591 H 0.3761 0.18984 0.1838 0.0
C1592 C 0.3095 0.13641 0.10089 0.0
C1593 C 0.2945 0.13068 0.12186 0.0
C1594 C 0.32282 0.15048 0.11629 0.0
C1595 C 0.32156 0.15911 0.15351 0.0
C1596 C 0.30651 0.15337 0.17442 0.0
C1597 C 0.29314 0.13938 0.15863 0.0
C1598 C 0.34815 0.20101 0.2018 0.0
C1599 C 0.36332 0.20235 0.20062 0.0
C1600 C 0.33461 0.18702 0.18665 0.0
C1601 C 0.3359 0.17396 0.17043 0.0
C1602 C 0.35108 0.17525 0.17016 0.0
C1603 C 0.36461 0.18928 0.18476 0.0
H1604 H 0.80853 0.18756 0.1789 0.0
H1605 H 0.78868 0.13777 0.21489 0.0
H1606 H 0.83319 0.1887 0.1546 0.0
H1607 H 0.81304 0.13867 0.18862 0.0
H1608 H 0.86424 0.1489 0.179 0.0
H1609 H 0.84004 0.14823 0.20577 0.0
H1610 H 0.8445 0.18065 0.0967 0.0
H1611 H 0.8691 0.18186 0.07137 0.0
C1612 C 0.80939 0.17682 0.18136 0.0
C1613 C 0.79663 0.16259 0.19899 0.0
C1614 C 0.82352 0.17743 0.16706 0.0
C1615 C 0.82519 0.16377 0.16941 0.0
C1616 C 0.81237 0.14952 0.18698 0.0
C1617 C 0.79832 0.14897 0.20184 0.0
C1618 C 0.86005 0.15589 0.16076 0.0
C1619 C 0.86863 0.16545 0.12306 0.0
C1620 C 0.84608 0.15544 0.17595 0.0
C1621 C 0.84019 0.16436 0.15346 0.0
C1622 C 0.84876 0.17384 0.11552 0.0
C1623 C 0.86285 0.17446 0.10073 0.0
H1624 H 0.84859 0.64894 0.24401 0.0
H1625 H 0.81082 0.61798 0.15111 0.0
H1626 H 0.84631 0.67161 0.21754 0.0
H1627 H 0.80919 0.64074 0.12242 0.0
H1628 H 0.8005 0.68263 0.10615 0.0
H1629 H 0.80137 0.65954 0.13651 0.0
H1630 H 0.85248 0.68889 0.1558 0.0
H1631 H 0.85138 0.71202 0.12789 0.0
C1632 C 0.83986 0.64698 0.21769 0.0
C1633 C 0.82996 0.63163 0.19948 0.0
C1634 C 0.83864 0.66004 0.20212 0.0
C1635 C 0.82769 0.65815 0.16729 0.0
C1636 C 0.81763 0.64272 0.14963 0.0
C1637 C 0.81865 0.62962 0.16584 0.0
C1638 C 0.81191 0.6841 0.11681 0.0
C1639 C 0.82586 0.69915 0.11472 0.0
C1640 C 0.81245 0.67084 0.13409 0.0
C1641 C 0.827 0.67226 0.14895 0.0
C1642 C 0.84098 0.68732 0.14588 0.0
C1643 C 0.84038 0.7006 0.12941 0.0
H1644 H 0.1328 0.28223 0.32192 0.0
H1645 H 0.12683 0.31056 0.42652 0.0
H1646 H 0.1578 0.30544 0.29822 0.0
H1647 H 0.15225 0.33362 0.40453 0.0
H1648 H 0.18974 0.37626 0.32393 0.0
H1649 H 0.16478 0.35305 0.34787 0.0
H1650 H 0.18449 0.32249 0.3176 0.0
H1651 H 0.20912 0.34565 0.29144 0.0
C1652 C 0.13695 0.29338 0.34027 0.0
C1653 C 0.12781 0.29455 0.37606 0.0
C1654 C 0.15137 0.30671 0.32687 0.0
C1655 C 0.15717 0.32151 0.34939 0.0
C1656 C 0.14808 0.32257 0.38567 0.0
C1657 C 0.13353 0.3093 0.39857 0.0
C1658 C 0.18873 0.36458 0.32237 0.0
C1659 C 0.2014 0.36281 0.30554 0.0
C1660 C 0.17442 0.35123 0.33645 0.0
C1661 C 0.1725 0.33578 0.33477 0.0
C1662 C 0.18533 0.3341 0.31856 0.0
C1663 C 0.19953 0.34741 0.30381 0.0
H1664 H 0.71123 0.85265 0.36549 0.0
H1665 H 0.6819 0.80158 0.38373 0.0
H1666 H 0.68809 0.85392 0.3384 0.0
H1667 H 0.65885 0.80264 0.35415 0.0
H1668 H 0.61714 0.81169 0.34112 0.0
H1669 H 0.63998 0.81019 0.36954 0.0
H1670 H 0.67084 0.84823 0.27675 0.0
H1671 H 0.64806 0.85037 0.25062 0.0
C1672 C 0.69983 0.84166 0.3634 0.0
C1673 C 0.69839 0.82702 0.37689 0.0
C1674 C 0.68654 0.84235 0.34739 0.0
C1675 C 0.67151 0.82837 0.34361 0.0
C1676 C 0.67011 0.81371 0.35722 0.0
C1677 C 0.68336 0.81307 0.37403 0.0
C1678 C 0.6288 0.81978 0.32691 0.0
C1679 C 0.63075 0.83128 0.29398 0.0
C1680 C 0.64194 0.81882 0.34293 0.0
C1681 C 0.65739 0.82914 0.32576 0.0
C1682 C 0.65925 0.84033 0.29176 0.0
C1683 C 0.64613 0.84148 0.27638 0.0
H1684 H 0.19194 0.87851 0.38544 0.0
H1685 H 0.14195 0.85933 0.3533 0.0
H1686 H 0.19026 0.85372 0.3599 0.0
H1687 H 0.14003 0.83423 0.32977 0.0
H1688 H 0.14527 0.79727 0.24681 0.0
H1689 H 0.14721 0.82227 0.27155 0.0
H1690 H 0.18039 0.82678 0.37834 0.0
H1691 H 0.17898 0.80217 0.35209 0.0
C1692 C 0.18053 0.86892 0.37342 0.0
C1693 C 0.16709 0.87092 0.37139 0.0
C1694 C 0.17953 0.85463 0.35898 0.0
C1695 C 0.16499 0.84187 0.3427 0.0
C1696 C 0.1515 0.84385 0.34122 0.0
C1697 C 0.15257 0.85822 0.35507 0.0
C1698 C 0.153 0.80363 0.27552 0.0
C1699 C 0.16202 0.79776 0.29735 0.0
C1700 C 0.15404 0.81793 0.28999 0.0
C1701 C 0.16394 0.82663 0.32712 0.0
C1702 C 0.17287 0.82064 0.34911 0.0
C1703 C 0.172 0.80645 0.33421 0.0
H1704 H 0.71215 0.86211 0.81462 0.0
H1705 H 0.68213 0.86709 0.91562 0.0
H1706 H 0.68918 0.83768 0.78632 0.0
H1707 H 0.65931 0.84232 0.88884 0.0
H1708 H 0.61801 0.80673 0.80213 0.0
H1709 H 0.64124 0.83139 0.82758 0.0
H1710 H 0.67122 0.81063 0.80301 0.0
H1711 H 0.64803 0.7862 0.77559 0.0
C1712 C 0.70068 0.85787 0.83118 0.0
C1713 C 0.69897 0.86657 0.86733 0.0
C1714 C 0.68749 0.8438 0.81508 0.0
C1715 C 0.6723 0.83797 0.83511 0.0
C1716 C 0.6707 0.84657 0.87182 0.0
C1717 C 0.68384 0.86074 0.88749 0.0
C1718 C 0.62957 0.80746 0.80193 0.0
C1719 C 0.63115 0.79449 0.7868 0.0
C1720 C 0.64291 0.82158 0.81692 0.0
C1721 C 0.65817 0.82304 0.81778 0.0
C1722 C 0.65974 0.81008 0.80227 0.0
C1723 C 0.64641 0.79601 0.78671 0.0
H1724 H 0.12877 0.81523 0.919 0.0
H1725 H 0.1357 0.85151 0.8202 0.0
H1726 H 0.15393 0.81732 0.89504 0.0
H1727 H 0.16023 0.85297 0.79431 0.0
H1728 H 0.2112 0.8633 0.78479 0.0
H1729 H 0.18676 0.86185 0.8128 0.0
H1730 H 0.16625 0.81105 0.83593 0.0
H1731 H 0.191 0.81274 0.81011 0.0
C1732 C 0.13558 0.82356 0.89187 0.0
C1733 C 0.13016 0.83318 0.87144 0.0
C1734 C 0.14998 0.82469 0.87783 0.0
C1735 C 0.15921 0.83529 0.84251 0.0
C1736 C 0.1537 0.84487 0.82215 0.0
C1737 C 0.13947 0.84393 0.83672 0.0
C1738 C 0.20145 0.85183 0.79585 0.0
C1739 C 0.20305 0.83815 0.79519 0.0
C1740 C 0.18737 0.85095 0.81173 0.0
C1741 C 0.1744 0.8363 0.82663 0.0
C1742 C 0.17602 0.8226 0.82564 0.0
C1743 C 0.1902 0.82354 0.81045 0.0
H1744 H 0.18801 0.31202 0.88259 0.0
H1745 H 0.13716 0.28163 0.86258 0.0
H1746 H 0.18634 0.33479 0.85414 0.0
H1747 H 0.13526 0.3046 0.83641 0.0
H1748 H 0.13915 0.34581 0.75035 0.0
H1749 H 0.14089 0.3227 0.77617 0.0
H1750 H 0.17803 0.3528 0.87231 0.0
H1751 H 0.17699 0.37586 0.84434 0.0
C1752 C 0.17641 0.31025 0.87275 0.0
C1753 C 0.16272 0.29502 0.87499 0.0
C1754 C 0.17542 0.32336 0.85661 0.0
C1755 C 0.16063 0.32166 0.84304 0.0
C1756 C 0.1469 0.30639 0.84571 0.0
C1757 C 0.14795 0.29322 0.86114 0.0
C1758 C 0.14773 0.34748 0.77687 0.0
C1759 C 0.15788 0.36273 0.79539 0.0
C1760 C 0.14865 0.33418 0.79202 0.0
C1761 C 0.15959 0.33577 0.82652 0.0
C1762 C 0.16965 0.35105 0.84512 0.0
C1763 C 0.16892 0.36433 0.82943 0.0
H1764 H 0.78927 0.64901 0.72061 0.0
H1765 H 0.81012 0.61917 0.69576 0.0
H1766 H 0.81376 0.67228 0.69388 0.0
H1767 H 0.83483 0.64249 0.67092 0.0
H1768 H 0.8702 0.68332 0.5815 0.0
H1769 H 0.84568 0.66041 0.60922 0.0
H1770 H 0.84079 0.69044 0.71065 0.0
H1771 H 0.86498 0.7135 0.68145 0.0
C1772 C 0.79917 0.64745 0.71006 0.0
C1773 C 0.79771 0.63222 0.71014 0.0
C1774 C 0.81327 0.66083 0.69489 0.0
C1775 C 0.82633 0.65933 0.67993 0.0
C1776 C 0.82495 0.6441 0.68115 0.0
C1777 C 0.8108 0.63072 0.69577 0.0
C1778 C 0.86387 0.68504 0.60965 0.0
C1779 C 0.86954 0.70025 0.62917 0.0
C1780 C 0.84984 0.67186 0.62585 0.0
C1781 C 0.84122 0.67348 0.66245 0.0
C1782 C 0.84693 0.68873 0.68198 0.0
C1783 C 0.86087 0.70196 0.66537 0.0
H1784 H 0.31391 0.19123 0.56524 0.0
H1785 H 0.28469 0.15577 0.66613 0.0
H1786 H 0.3369 0.18891 0.58915 0.0
H1787 H 0.30765 0.15412 0.69182 0.0
H1788 H 0.34636 0.14127 0.69686 0.0
H1789 H 0.32405 0.14404 0.67028 0.0
H1790 H 0.356 0.19456 0.64745 0.0
H1791 H 0.37853 0.19156 0.67205 0.0
C1792 C 0.31241 0.18307 0.59286 0.0
C1793 C 0.2974 0.17366 0.61371 0.0
C1794 C 0.32564 0.18181 0.60683 0.0
C1795 C 0.3242 0.17126 0.64237 0.0
C1796 C 0.30922 0.1621 0.66364 0.0
C1797 C 0.296 0.16317 0.6492 0.0
C1798 C 0.34865 0.15299 0.68621 0.0
C1799 C 0.36423 0.16621 0.68681 0.0
C1800 C 0.3358 0.15461 0.67119 0.0
C1801 C 0.33811 0.16957 0.65704 0.0
C1802 C 0.35374 0.18281 0.6575 0.0
C1803 C 0.36666 0.18113 0.67194 0.0
H1804 H 0.81942 0.19596 0.6477 0.0
H1805 H 0.85368 0.20163 0.75194 0.0
H1806 H 0.81755 0.17111 0.62325 0.0
H1807 H 0.85119 0.17616 0.72921 0.0
H1808 H 0.85498 0.13775 0.64717 0.0
H1809 H 0.85747 0.16296 0.67238 0.0
H1810 H 0.80733 0.14448 0.64313 0.0
H1811 H 0.80512 0.11968 0.61576 0.0
C1812 C 0.82646 0.19183 0.66574 0.0
C1813 C 0.83671 0.20085 0.70171 0.0
C1814 C 0.82528 0.17742 0.65197 0.0
C1815 C 0.83412 0.17143 0.67436 0.0
C1816 C 0.84436 0.18044 0.71059 0.0
C1817 C 0.84573 0.19503 0.72387 0.0
C1818 C 0.8445 0.1391 0.64609 0.0
C1819 C 0.82988 0.12675 0.62907 0.0
C1820 C 0.84589 0.15355 0.66089 0.0
C1821 C 0.83263 0.1559 0.6597 0.0
C1822 C 0.81793 0.14335 0.64358 0.0
C1823 C 0.81661 0.12903 0.62811 0.0
H1824 H 0.98036 0.45342 0.43839 0.0
H1825 H 0.95001 0.47293 0.47296 0.0
H1826 H 0.00364 0.47794 0.46451 0.0
H1827 H 0.97337 0.49777 0.49713 0.0
H1828 H 0.01597 0.53437 0.57925 0.0
H1829 H 0.99276 0.50943 0.55499 0.0
H1830 H 0.0208 0.5049 0.4463 0.0
H1831 H 0.04416 0.52946 0.472 0.0
C1832 C 0.97867 0.46302 0.45113 0.0
C1833 C 0.9633 0.4612 0.45357 0.0
C1834 C 0.99206 0.47716 0.46589 0.0
C1835 C 0.99048 0.48994 0.48296 0.0
C1836 C 0.97508 0.48813 0.48504 0.0
C1837 C 0.96166 0.4739 0.47082 0.0
C1838 C 0.01718 0.52801 0.55025 0.0
C1839 C 0.03193 0.53389 0.52766 0.0
C1840 C 0.00382 0.51374 0.53607 0.0
C1841 C 0.0048 0.50508 0.49849 0.0
C1842 C 0.01959 0.51103 0.47586 0.0
C1843 C 0.033 0.52519 0.49044 0.0
H1844 H 0.53047 0.48296 0.50338 0.0
H1845 H 0.53819 0.52131 0.41153 0.0
H1846 H 0.50601 0.48135 0.53076 0.0
H1847 H 0.51308 0.51903 0.43663 0.0
H1848 H 0.4753 0.52198 0.52263 0.0
H1849 H 0.50028 0.52417 0.49642 0.0
H1850 H 0.47975 0.47305 0.51273 0.0
H1851 H 0.45522 0.47111 0.54138 0.0
C1852 C 0.52688 0.49096 0.48869 0.0
C1853 C 0.5364 0.50234 0.4555 0.0
C1854 C 0.51269 0.48994 0.50408 0.0
C1855 C 0.50741 0.50002 0.48597 0.0
C1856 C 0.51684 0.51126 0.45217 0.0
C1857 C 0.53121 0.51248 0.43741 0.0
C1858 C 0.47619 0.51124 0.52077 0.0
C1859 C 0.46332 0.49639 0.53439 0.0
C1860 C 0.49048 0.51245 0.50535 0.0
C1861 C 0.49216 0.49879 0.50234 0.0
C1862 C 0.47914 0.48392 0.51548 0.0
C1863 C 0.46498 0.48277 0.5317 0.0
H1864 H 0.48554 0.95137 0.48505 0.0
H1865 H 0.5182 0.97955 0.59312 0.0
H1866 H 0.48381 0.97451 0.46021 0.0
H1867 H 0.51592 0.00255 0.56973 0.0
H1868 H 0.52057 0.04519 0.48954 0.0
H1869 H 0.52297 0.02227 0.51316 0.0
H1870 H 0.47315 0.99077 0.47981 0.0
H1871 H 0.47102 0.0136 0.45421 0.0
C1872 C 0.49225 0.96248 0.50379 0.0
C1873 C 0.502 0.9636 0.54109 0.0
C1874 C 0.49118 0.97577 0.48973 0.0
C1875 C 0.49965 0.99047 0.51302 0.0
C1876 C 0.50941 0.99155 0.55041 0.0
C1877 C 0.51065 0.97831 0.56406 0.0
C1878 C 0.51014 0.03336 0.48721 0.0
C1879 C 0.49563 0.03124 0.46976 0.0
C1880 C 0.51147 0.02019 0.50107 0.0
C1881 C 0.49826 0.00457 0.49841 0.0
C1882 C 0.48369 0.00252 0.4815 0.0
C1883 C 0.48242 0.01566 0.46708 0.0
H1884 H 0.47462 0.95066 0.01578 0.0
H1885 H 0.45576 0.9815 0.05126 0.0
H1886 H 0.49952 0.97387 0.99088 0.0
H1887 H 0.48025 0.00456 0.02446 0.0
H1888 H 0.53139 0.04482 0.01669 0.0
H1889 H 0.50713 0.02136 0.04295 0.0
H1890 H 0.51148 0.9935 0.93338 0.0
H1891 H 0.53624 0.01689 0.9085 0.0
C1892 C 0.47574 0.96238 0.01796 0.0
C1893 C 0.46322 0.96422 0.03578 0.0
C1894 C 0.49 0.97571 0.00335 0.0
C1895 C 0.49201 0.99118 0.00566 0.0
C1896 C 0.47936 0.99293 0.02303 0.0
C1897 C 0.46522 0.97966 0.03818 0.0
C1898 C 0.52718 0.03369 -0.00181 0.0
C1899 C 0.53575 0.03275 0.96042 0.0
C1900 C 0.51317 0.02021 0.01309 0.0
C1901 C 0.50719 0.00546 0.99021 0.0
C1902 C 0.5158 0.00454 0.95237 0.0
C1903 C 0.52996 0.018 0.93785 0.0
H1904 H 0.04342 0.51592 0.97709 0.0
H1905 H 0.01442 0.48105 0.07956 0.0
H1906 H 0.02039 0.51755 0.95147 0.0
H1907 H 0.99142 0.48327 0.0556 0.0
H1908 H 0.94952 0.47812 0.97054 0.0
H1909 H 0.97257 0.47647 -0.00336 0.0
H1910 H 0.00304 0.52698 0.96966 0.0
H1911 H 0.98003 0.5284 0.94156 0.0
C1912 C 0.03216 0.50871 0.99452 0.0
C1913 C 0.0308 0.4983 0.03023 0.0
C1914 C 0.01891 0.50974 0.98005 0.0
C1915 C 0.00394 0.50057 0.00139 0.0
C1916 C 0.00264 0.49031 0.03767 0.0
C1917 C 0.01587 0.48912 0.05169 0.0
C1918 C 0.96115 0.48887 0.97015 0.0
C1919 C 0.96294 0.50339 0.9538 0.0
C1920 C 0.97439 0.48796 0.98548 0.0
C1921 C 0.98976 0.50159 0.98545 0.0
C1922 C 0.99149 0.51614 0.96944 0.0
C1923 C 0.97826 0.517 0.95351 0.0
H1924 H 0.48348 0.53034 0.97769 0.0
H1925 H 0.51809 0.53556 0.08037 0.0
H1926 H 0.48276 0.50631 0.94895 0.0
H1927 H 0.51686 0.51114 0.0531 0.0
H1928 H 0.52297 0.4754 0.96764 0.0
H1929 H 0.52428 0.50008 0.99271 0.0
H1930 H 0.47368 0.47935 0.96596 0.0
H1931 H 0.47257 0.45496 0.93898 0.0
C1932 C 0.49082 0.52627 0.99444 0.0
C1933 C 0.50084 0.53488 0.03134 0.0
C1934 C 0.49035 0.51241 0.97811 0.0
C1935 C 0.49973 0.50668 -0.00136 0.0
C1936 C 0.50968 0.51529 0.03577 0.0
C1937 C 0.51031 0.52926 0.0517 0.0
C1938 C 0.51214 0.47615 0.9669 0.0
C1939 C 0.49767 0.4632 0.95124 0.0
C1940 C 0.51286 0.49028 0.98164 0.0
C1941 C 0.49907 0.49177 0.98167 0.0
C1942 C 0.48461 0.4788 0.96578 0.0
C1943 C 0.48395 0.46475 0.9505 0.0
H1944 H 0.2457 0.07949 0.92241 0.0
H1945 H 0.22585 0.10588 0.98802 0.0
H1946 H 0.23798 0.08471 0.84767 0.0
H1947 H 0.21854 0.11152 0.91287 0.0
H1948 H 0.24789 0.12069 0.73164 0.0
H1949 H 0.24938 0.10926 0.8044 0.0
H1950 H 0.20266 0.10156 0.84134 0.0
H1951 H 0.20149 0.11365 0.76809 0.0
C1952 C 0.23958 0.08632 0.92089 0.0
C1953 C 0.23666 0.09254 0.961 0.0
C1954 C 0.23517 0.08932 0.87807 0.0
C1955 C 0.22791 0.09876 0.87434 0.0
C1956 C 0.22405 0.10413 0.91464 0.0
C1957 C 0.22834 0.101 0.95766 0.0
C1958 C 0.23799 0.11667 0.75542 0.0
C1959 C 0.22478 0.11843 0.74507 0.0
C1960 C 0.2387 0.10985 0.7968 0.0
C1961 C 0.22613 0.10451 0.82869 0.0
C1962 C 0.21258 0.10571 0.81756 0.0
C1963 C 0.21187 0.11253 0.77576 0.0
H1964 H 0.89796 0.11959 -0.00192 0.0
H1965 H 0.9121 0.16292 0.92073 0.0
H1966 H 0.89344 0.10482 0.92638 0.0
H1967 H 0.90732 0.14812 0.84947 0.0
H1968 H 0.90461 0.1205 0.72525 0.0
H1969 H 0.91564 0.13307 0.79963 0.0
H1970 H 0.87287 0.09682 0.86699 0.0
H1971 H 0.86223 0.08407 0.79295 0.0
C1972 C 0.90022 0.126 0.96586 0.0
C1973 C 0.90518 0.14239 0.96509 0.0
C1974 C 0.89763 0.11753 0.92486 0.0
C1975 C 0.89999 0.1253 0.88236 0.0
C1976 C 0.90561 0.14183 0.88166 0.0
C1977 C 0.90818 0.15028 0.92257 0.0
C1978 C 0.89782 0.11506 0.75623 0.0
C1979 C 0.88244 0.10165 0.75369 0.0
C1980 C 0.90404 0.12228 0.79862 0.0
C1981 C 0.89499 0.11608 0.83898 0.0
C1982 C 0.88014 0.10188 0.83655 0.0
C1983 C 0.87394 0.09471 0.7942 0.0
H1984 H 0.90905 0.77527 0.79108 0.0
H1985 H 0.8724 0.78027 0.72098 0.0
H1986 H 0.89588 0.77302 0.86437 0.0
H1987 H 0.85949 0.77871 0.79465 0.0
H1988 H 0.87252 0.77552 0.99424 0.0
H1989 H 0.8875 0.78546 0.92272 0.0
H1990 H 0.84442 0.75579 0.84527 0.0
H1991 H 0.82942 0.7461 0.91631 0.0
C1992 C 0.89823 0.77601 0.79153 0.0
C1993 C 0.89138 0.77736 0.7505 0.0
C1994 C 0.89083 0.77502 0.83354 0.0
C1995 C 0.8765 0.77544 0.83518 0.0
C1996 C 0.87036 0.77806 0.79431 0.0
C1997 C 0.87779 0.77906 0.75227 0.0
C1998 C 0.8662 0.77128 0.96193 0.0
C1999 C 0.84981 0.75986 0.96099 0.0
C2000 C 0.8748 0.77696 0.921 0.0
C2001 C 0.86715 0.77136 0.8784 0.0
C2002 C 0.85063 0.7605 0.8775 0.0
C2003 C 0.84205 0.75482 0.91832 0.0
H2004 H 0.07105 0.24518 0.56468 0.0
H2005 H 0.09776 0.22416 0.5083 0.0
H2006 H 0.07373 0.23667 0.64129 0.0
H2007 H 0.10089 0.21611 0.58516 0.0
H2008 H 0.10091 0.19915 0.72861 0.0
H2009 H 0.0893 0.20029 0.65463 0.0
H2010 H 0.0967 0.24701 0.69034 0.0
H2011 H 0.10764 0.24553 0.76403 0.0
C2012 C 0.07739 0.23864 0.5686 0.0
C2013 C 0.08447 0.23562 0.53061 0.0
C2014 C 0.07893 0.23377 0.61249 0.0
C2015 C 0.08773 0.22594 0.61938 0.0
C2016 C 0.09393 0.22201 0.58099 0.0
C2017 C 0.09225 0.22675 0.53697 0.0
C2018 C 0.09971 0.20947 0.72068 0.0
C2019 C 0.10552 0.22245 0.75113 0.0
C2020 C 0.09318 0.21018 0.67841 0.0
C2021 C 0.09222 0.2238 0.66644 0.0
C2022 C 0.09713 0.23628 0.69849 0.0
C2023 C 0.10365 0.23557 0.74044 0.0
H2024 H 0.77839 0.86997 0.77234 0.0
H2025 H 0.77428 0.90731 0.70335 0.0
H2026 H 0.77701 0.85736 0.69815 0.0
H2027 H 0.77229 0.89452 0.62954 0.0
H2028 H 0.74466 0.82843 0.57417 0.0
H2029 H 0.75429 0.84285 0.64616 0.0
H2030 H 0.78492 0.8863 0.5714 0.0
H2031 H 0.77505 0.87193 0.49899 0.0
C2032 C 0.77744 0.87558 0.74117 0.0
C2033 C 0.77596 0.88929 0.7433 0.0
C2034 C 0.77654 0.86834 0.69885 0.0
C2035 C 0.77427 0.87481 0.65812 0.0
C2036 C 0.77405 0.88924 0.66024 0.0
C2037 C 0.77492 0.89643 0.7025 0.0
C2038 C 0.75358 0.84101 0.57297 0.0
C2039 C 0.7589 0.84908 0.5308 0.0
C2040 C 0.75923 0.84925 0.61432 0.0
C2041 C 0.77033 0.86573 0.61444 0.0
C2042 C 0.77623 0.87364 0.57233 0.0
C2043 C 0.77059 0.86539 0.53089 0.0
H2044 H 0.13438 0.88896 0.75951 0.0
H2045 H 0.0936 0.89316 0.71967 0.0
H2046 H 0.14717 0.90021 0.68653 0.0
H2047 H 0.10672 0.90518 0.64634 0.0
H2048 H 0.12451 0.89835 0.5019 0.0
H2049 H 0.11244 0.89455 0.57772 0.0
H2050 H 0.15938 0.92303 0.63772 0.0
H2051 H 0.17146 0.9263 0.56218 0.0
C2052 C 0.12823 0.89245 0.73505 0.0
C2053 C 0.11286 0.88979 0.74433 0.0
C2054 C 0.13567 0.89917 0.6935 0.0
C2055 C 0.12792 0.90351 0.66041 0.0
C2056 C 0.11288 0.90174 0.67093 0.0
C2057 C 0.10543 0.89499 0.71283 0.0
C2058 C 0.13223 0.90398 0.53122 0.0
C2059 C 0.14894 0.91231 0.52629 0.0
C2060 C 0.1253 0.90193 0.57464 0.0
C2061 C 0.13497 0.90831 0.61384 0.0
C2062 C 0.15163 0.91765 0.60832 0.0
C2063 C 0.15855 0.91953 0.56505 0.0
H2064 H 0.79257 0.8896 0.22399 0.0
H2065 H 0.74563 0.88112 0.26033 0.0
H2066 H 0.79097 0.90132 0.15074 0.0
H2067 H 0.74368 0.89209 0.18722 0.0
H2068 H 0.74569 0.91972 0.06499 0.0
H2069 H 0.75358 0.91566 0.14096 0.0
H2070 H 0.77564 0.89057 0.08017 0.0
H2071 H 0.7682 0.8951 0.00399 0.0
C2072 C 0.78198 0.89035 0.21634 0.0
C2073 C 0.76903 0.88407 0.24696 0.0
C2074 C 0.78101 0.89695 0.17446 0.0
C2075 C 0.76714 0.89751 0.16298 0.0
C2076 C 0.75459 0.89197 0.19499 0.0
C2077 C 0.75557 0.88541 0.23659 0.0
C2078 C 0.75241 0.91353 0.06777 0.0
C2079 C 0.75608 0.90748 0.02857 0.0
C2080 C 0.75691 0.91118 0.11132 0.0
C2081 C 0.76502 0.90257 0.11665 0.0
C2082 C 0.76951 0.89735 0.07724 0.0
C2083 C 0.76514 0.89984 0.03358 0.0
H2084 H 0.13281 0.91001 0.20072 0.0
H2085 H 0.09026 0.87322 0.26689 0.0
H2086 H 0.12239 0.89765 0.12624 0.0
H2087 H 0.07944 0.86105 0.19196 0.0
H2088 H 0.09763 0.87622 0.99402 0.0
H2089 H 0.10194 0.89032 0.0669 0.0
H2090 H 0.08753 0.84626 0.14031 0.0
H2091 H 0.08295 0.83213 0.06787 0.0
C2092 C 0.12116 0.89932 0.19913 0.0
C2093 C 0.11254 0.89221 0.23937 0.0
C2094 C 0.11506 0.89239 0.15646 0.0
C2095 C 0.10018 0.87825 0.15333 0.0
C2096 C 0.09105 0.87181 0.19346 0.0
C2097 C 0.09717 0.87879 0.23619 0.0
C2098 C 0.09516 0.8695 0.02571 0.0
C2099 C 0.09017 0.8531 0.02515 0.0
C2100 C 0.09766 0.87759 0.06741 0.0
C2101 C 0.09516 0.86942 0.10928 0.0
C2102 C 0.08938 0.85287 0.10864 0.0
C2103 C 0.08691 0.84479 0.06704 0.0
H2104 H 0.12176 0.21814 0.00155 0.0
H2105 H 0.16561 0.25087 0.07179 0.0
H2106 H 0.10855 0.20831 0.07545 0.0
H2107 H 0.1523 0.24124 0.14538 0.0
H2108 H 0.088 0.219 0.20814 0.0
H2109 H 0.10023 0.22098 0.13341 0.0
H2110 H 0.13917 0.2187 0.1994 0.0
H2111 H 0.12704 0.21723 0.27455 0.0
C2112 C 0.12863 0.22313 0.03268 0.0
C2113 C 0.14468 0.23547 0.03078 0.0
C2114 C 0.12104 0.2175 0.07497 0.0
C2115 C 0.12935 0.22408 0.11615 0.0
C2116 C 0.14562 0.2358 0.11425 0.0
C2117 C 0.15321 0.24144 0.07201 0.0
C2118 C 0.09913 0.21886 0.2065 0.0
C2119 C 0.10687 0.21845 0.24677 0.0
C2120 C 0.10602 0.21973 0.16375 0.0
C2121 C 0.12076 0.22018 0.16061 0.0
C2122 C 0.12792 0.21861 0.2009 0.0
C2123 C 0.12096 0.21767 0.24374 0.0
H2124 H 0.89531 0.76886 0.49055 0.0
H2125 H 0.91881 0.74574 0.42628 0.0
H2126 H 0.88961 0.77575 0.41503 0.0
H2127 H 0.91355 0.75305 0.35096 0.0
H2128 H 0.88794 0.79263 0.27072 0.0
H2129 H 0.89976 0.79083 0.34355 0.0
H2130 H 0.88941 0.74316 0.30715 0.0
H2131 H 0.87834 0.74529 0.23441 0.0
C2132 C 0.89953 0.76552 0.46036 0.0
C2133 C 0.90725 0.7565 0.46435 0.0
C2134 C 0.89636 0.76957 0.41707 0.0
C2135 C 0.90095 0.76477 0.377 0.0
C2136 C 0.90955 0.75662 0.38118 0.0
C2137 C 0.9126 0.75246 0.42436 0.0
C2138 C 0.88841 0.78188 0.27835 0.0
C2139 C 0.88184 0.76891 0.24776 0.0
C2140 C 0.89507 0.78081 0.31999 0.0
C2141 C 0.89542 0.76681 0.33127 0.0
C2142 C 0.88946 0.75416 0.29949 0.0
C2143 C 0.88283 0.75525 0.25812 0.0
H2144 H 0.21542 0.12747 0.21979 0.0
H2145 H 0.22042 0.09073 0.28932 0.0
H2146 H 0.21765 0.14067 0.29347 0.0
H2147 H 0.22328 0.10414 0.36263 0.0
H2148 H 0.25109 0.17078 0.41373 0.0
H2149 H 0.24099 0.15564 0.34303 0.0
H2150 H 0.21127 0.11284 0.42155 0.0
H2151 H 0.22159 0.12796 0.49269 0.0
C2152 C 0.21675 0.12212 0.251 0.0
C2153 C 0.21824 0.10841 0.2491 0.0
C2154 C 0.21815 0.1297 0.29302 0.0
C2155 C 0.22093 0.1236 0.33369 0.0
C2156 C 0.22115 0.10915 0.33195 0.0
C2157 C 0.21978 0.10161 0.28997 0.0
C2158 C 0.24228 0.15818 0.41604 0.0
C2159 C 0.23731 0.15054 0.45889 0.0
C2160 C 0.23637 0.14953 0.37544 0.0
C2161 C 0.22535 0.13304 0.37674 0.0
C2162 C 0.21988 0.12551 0.41953 0.0
C2163 C 0.22578 0.13418 0.46023 0.0
H2164 H 0.87249 0.09511 0.49795 0.0
H2165 H 0.82925 0.08352 0.42338 0.0
H2166 H 0.88671 0.09937 0.42536 0.0
H2167 H 0.84353 0.088 0.35117 0.0
H2168 H 0.90809 0.13049 0.29228 0.0
H2169 H 0.89527 0.12038 0.36657 0.0
H2170 H 0.85742 0.07851 0.29988 0.0
H2171 H 0.87012 0.089 0.22526 0.0
C2172 C 0.86599 0.09335 0.46614 0.0
C2173 C 0.84979 0.08917 0.46644 0.0
C2174 C 0.87414 0.0958 0.42463 0.0
C2175 C 0.86624 0.09405 0.38267 0.0
C2176 C 0.84989 0.08924 0.38296 0.0
C2177 C 0.84175 0.08683 0.4244 0.0
C2178 C 0.89707 0.1191 0.29371 0.0
C2179 C 0.88978 0.11069 0.25335 0.0
C2180 C 0.88985 0.11319 0.3362 0.0
C2181 C 0.87523 0.09875 0.3389 0.0
C2182 C 0.86856 0.0898 0.29865 0.0
C2183 C 0.87584 0.09571 0.25613 0.0
H2184 H 0.91418 0.40949 0.2579 0.0
H2185 H 0.89313 0.43507 0.32169 0.0
H2186 H 0.90601 0.4139 0.18274 0.0
H2187 H 0.88543 0.43995 0.24628 0.0
H2188 H 0.86801 0.44168 0.10355 0.0
H2189 H 0.86959 0.42959 0.17619 0.0
H2190 H 0.91626 0.43762 0.13707 0.0
H2191 H 0.91432 0.44899 0.06468 0.0
C2192 C 0.90772 0.41598 0.2559 0.0
C2193 C 0.90455 0.42219 0.29563 0.0
C2194 C 0.90306 0.41852 0.21283 0.0
C2195 C 0.8953 0.42749 0.20848 0.0
C2196 C 0.89129 0.43289 0.24846 0.0
C2197 C 0.89581 0.43021 0.29166 0.0
C2198 C 0.87844 0.44058 0.11051 0.0
C2199 C 0.89124 0.44663 0.07939 0.0
C2200 C 0.8794 0.43377 0.15202 0.0
C2201 C 0.8931 0.43276 0.16255 0.0
C2202 C 0.90548 0.43807 0.13001 0.0
C2203 C 0.90451 0.44485 0.08882 0.0
H2204 H 0.58957 0.50897 0.25977 0.0
H2205 H 0.56579 0.46153 0.31897 0.0
H2206 H 0.58611 0.49742 0.1834 0.0
H2207 H 0.56194 0.44998 0.24235 0.0
H2208 H 0.55181 0.47037 0.06341 0.0
H2209 H 0.56247 0.48324 0.13684 0.0
H2210 H 0.57368 0.44638 0.17157 0.0
H2211 H 0.5624 0.43316 0.0978 0.0
C2212 C 0.58369 0.49607 0.25653 0.0
C2213 C 0.57769 0.48615 0.29535 0.0
C2214 C 0.58171 0.48947 0.21276 0.0
C2215 C 0.57356 0.47279 0.20679 0.0
C2216 C 0.56838 0.46288 0.24581 0.0
C2217 C 0.57047 0.4695 0.28971 0.0
C2218 C 0.55655 0.46502 0.08675 0.0
C2219 C 0.55592 0.45058 0.07576 0.0
C2220 C 0.56289 0.47252 0.12855 0.0
C2221 C 0.56885 0.46578 0.16018 0.0
C2222 C 0.56899 0.45173 0.14809 0.0
C2223 C 0.56265 0.44424 0.10594 0.0
H2224 H 0.53474 0.10795 0.06552 0.0
H2225 H 0.57299 0.10521 0.13365 0.0
H2226 H 0.52163 0.10521 0.13974 0.0
H2227 H 0.55977 0.10199 0.2075 0.0
H2228 H 0.49376 0.07289 0.26523 0.0
H2229 H 0.50788 0.08215 0.19248 0.0
H2230 H 0.55115 0.11467 0.26512 0.0
H2231 H 0.53713 0.10527 0.33811 0.0
C2232 C 0.54041 0.10697 0.09653 0.0
C2233 C 0.55461 0.10638 0.09414 0.0
C2234 C 0.53288 0.10529 0.13883 0.0
C2235 C 0.53958 0.10318 0.1793 0.0
C2236 C 0.55434 0.10363 0.17696 0.0
C2237 C 0.56179 0.10524 0.13471 0.0
C2238 C 0.50624 0.08213 0.26575 0.0
C2239 C 0.51437 0.08818 0.30752 0.0
C2240 C 0.51429 0.08754 0.22401 0.0
C2241 C 0.53063 0.09909 0.22316 0.0
C2242 C 0.5386 0.10562 0.26481 0.0
C2243 C 0.53055 0.10023 0.30657 0.0
H2244 H 0.76857 0.56076 0.83908 0.0
H2245 H 0.7395 0.57935 0.89398 0.0
H2246 H 0.77091 0.55195 0.91572 0.0
H2247 H 0.74138 0.57005 0.97023 0.0
H2248 H 0.77454 0.57939 0.09552 0.0
H2249 H 0.76382 0.5808 0.02138 0.0
H2250 H 0.75893 0.53521 0.98378 0.0
H2251 H 0.77023 0.53414 0.05852 0.0
C2252 C 0.76238 0.56263 0.86733 0.0
C2253 C 0.75418 0.57108 0.86076 0.0
C2254 C 0.7636 0.55745 0.91119 0.0
C2255 C 0.7565 0.5605 0.94915 0.0
C2256 C 0.74726 0.56784 0.94182 0.0
C2257 C 0.7462 0.57317 0.89815 0.0
C2258 C 0.77101 0.56961 0.07153 0.0
C2259 C 0.77347 0.55684 0.08194 0.0
C2260 C 0.76467 0.57028 0.02926 0.0
C2261 C 0.76059 0.55814 -0.00348 0.0
C2262 C 0.76213 0.54482 0.00816 0.0
C2263 C 0.76847 0.54413 0.05084 0.0
H2264 H 0.43307 0.2044 0.82857 0.0
H2265 H 0.40861 0.15658 0.88505 0.0
H2266 H 0.44068 0.21539 0.90574 0.0
H2267 H 0.41669 0.16755 0.96204 0.0
H2268 H 0.40997 0.194 0.08441 0.0
H2269 H 0.4077 0.18146 0.01042 0.0
H2270 H 0.45568 0.21856 0.97594 0.0
H2271 H 0.45761 0.23151 0.05007 0.0
C2272 C 0.42959 0.19623 0.85738 0.0
C2273 C 0.41997 0.17965 0.85084 0.0
C2274 C 0.43407 0.20252 0.90161 0.0
C2275 C 0.42914 0.19235 0.94007 0.0
C2276 C 0.4204 0.17572 0.93317 0.0
C2277 C 0.41578 0.16944 0.88905 0.0
C2278 C 0.42001 0.19949 0.06096 0.0
C2279 C 0.43376 0.21396 0.0721 0.0
C2280 C 0.41884 0.19216 0.01884 0.0
C2281 C 0.43148 0.19907 0.98708 0.0
C2282 C 0.44565 0.21309 -0.00056 0.0
C2283 C 0.44681 0.22043 0.04183 0.0
H2284 H 0.83715 0.24713 0.89883 0.0
H2285 H 0.79354 0.23375 0.8239 0.0
H2286 H 0.82287 0.24275 0.97091 0.0
H2287 H 0.77931 0.22966 0.89638 0.0
H2288 H 0.7959 0.24044 0.09688 0.0
H2289 H 0.80842 0.2513 0.0223 0.0
H2290 H 0.77127 0.20901 0.95528 0.0
H2291 H 0.75858 0.19858 0.02944 0.0
C2292 C 0.82457 0.24349 0.89769 0.0
C2293 C 0.81643 0.24054 0.8556 0.0
C2294 C 0.81642 0.24114 0.93908 0.0
C2295 C 0.79996 0.2358 0.93929 0.0
C2296 C 0.79197 0.2336 0.89722 0.0
C2297 C 0.80013 0.23596 0.85575 0.0
C2298 C 0.79029 0.23371 0.06594 0.0
C2299 C 0.77662 0.21851 0.06861 0.0
C2300 C 0.79747 0.23984 0.02343 0.0
C2301 C 0.79096 0.23089 0.98307 0.0
C2302 C 0.77657 0.21621 0.98569 0.0
C2303 C 0.76945 0.2101 0.02815 0.0
H2304 H 0.40934 0.24723 0.39633 0.0
H2305 H 0.44095 0.23533 0.32283 0.0
H2306 H 0.41931 0.24323 0.4689 0.0
H2307 H 0.45115 0.23165 0.3957 0.0
H2308 H 0.44357 0.24133 0.59605 0.0
H2309 H 0.44205 0.25224 0.52143 0.0
H2310 H 0.439 0.2109 0.45398 0.0
H2311 H 0.4411 0.20042 0.52818 0.0
C2312 C 0.41859 0.24401 0.39562 0.0
C2313 C 0.42415 0.24134 0.35378 0.0
C2314 C 0.42443 0.24187 0.43728 0.0
C2315 C 0.43598 0.23706 0.43799 0.0
C2316 C 0.44211 0.23517 0.39618 0.0
C2317 C 0.43626 0.23728 0.35447 0.0
C2318 C 0.443 0.23485 0.56503 0.0
C2319 C 0.442 0.21988 0.56755 0.0
C2320 C 0.442 0.241 0.52248 0.0
C2321 C 0.44013 0.2323 0.48195 0.0
C2322 C 0.44046 0.21792 0.4845 0.0
C2323 C 0.44141 0.21179 0.52698 0.0
H2324 H 0.77198 0.20726 0.33062 0.0
H2325 H 0.74252 0.16065 0.39152 0.0
H2326 H 0.77622 0.21955 0.40641 0.0
H2327 H 0.74628 0.17295 0.46685 0.0
H2328 H 0.77749 0.23841 0.54946 0.0
H2329 H 0.76566 0.22571 0.47547 0.0
H2330 H 0.76952 0.18456 0.51488 0.0
H2331 H 0.78069 0.19697 0.58836 0.0
C2332 C 0.76613 0.19969 0.36005 0.0
C2333 C 0.75723 0.18297 0.35537 0.0
C2334 C 0.76844 0.20674 0.40341 0.0
C2335 C 0.76177 0.19719 0.44269 0.0
C2336 C 0.75188 0.18059 0.43736 0.0
C2337 C 0.74973 0.17354 0.39422 0.0
C2338 C 0.77548 0.22653 0.54226 0.0
C2339 C 0.78028 0.21875 0.57377 0.0
C2340 C 0.76883 0.21932 0.50002 0.0
C2341 C 0.76675 0.20418 0.48922 0.0
C2342 C 0.77079 0.19614 0.52215 0.0
C2343 C 0.77743 0.20334 0.564 0.0
H2344 H 0.76654 0.53741 0.55951 0.0
H2345 H 0.80572 0.58412 0.59427 0.0
H2346 H 0.77891 0.53895 0.48468 0.0
H2347 H 0.81772 0.58604 0.51957 0.0
H2348 H 0.84084 0.58492 0.391 0.0
H2349 H 0.83044 0.57657 0.46843 0.0
H2350 H 0.78217 0.55438 0.41568 0.0
H2351 H 0.79257 0.56224 0.33804 0.0
C2352 C 0.77788 0.5479 0.55125 0.0
C2353 C 0.78499 0.56085 0.58184 0.0
C2354 C 0.78489 0.54884 0.50844 0.0
C2355 C 0.79919 0.56269 0.49591 0.0
C2356 C 0.80677 0.57515 0.52806 0.0
C2357 C 0.79978 0.57418 0.57063 0.0
C2358 C 0.828 0.57806 0.39586 0.0
C2359 C 0.81751 0.57448 0.35854 0.0
C2360 C 0.82205 0.5733 0.44023 0.0
C2361 C 0.80548 0.56502 0.44832 0.0
C2362 C 0.795 0.56062 0.41064 0.0
C2363 C 0.80096 0.56525 0.36614 0.0
H2364 H 0.5719 0.11345 0.56429 0.0
H2365 H 0.52952 0.10744 0.63216 0.0
H2366 H 0.58326 0.11262 0.63879 0.0
H2367 H 0.54045 0.10595 0.7063 0.0
H2368 H 0.56535 0.10845 0.83754 0.0
H2369 H 0.56084 0.11862 0.76562 0.0
H2370 H 0.57549 0.0897 0.68931 0.0
H2371 H 0.58028 0.0798 0.7607 0.0
C2372 C 0.56517 0.11222 0.5953 0.0
C2373 C 0.54968 0.10999 0.59279 0.0
C2374 C 0.57158 0.11164 0.6378 0.0
C2375 C 0.56261 0.10892 0.67828 0.0
C2376 C 0.54767 0.10806 0.67581 0.0
C2377 C 0.54128 0.10863 0.63337 0.0
C2378 C 0.56781 0.10443 0.8054 0.0
C2379 C 0.57295 0.09314 0.80483 0.0
C2380 C 0.56521 0.11026 0.76426 0.0
C2381 C 0.56776 0.10492 0.72184 0.0
C2382 C 0.57362 0.09422 0.7214 0.0
C2383 C 0.5762 0.0884 0.76241 0.0
H2384 H 0.88979 0.42321 0.62238 0.0
H2385 H 0.88455 0.46004 0.55429 0.0
H2386 H 0.89197 0.43601 0.6963 0.0
H2387 H 0.88612 0.47264 0.6286 0.0
H2388 H 0.88811 0.45815 0.82724 0.0
H2389 H 0.87879 0.44374 0.75465 0.0
H2390 H 0.909 0.48744 0.68042 0.0
H2391 H 0.91812 0.50188 0.75257 0.0
C2392 C 0.88901 0.43401 0.62341 0.0
C2393 C 0.88755 0.44098 0.58279 0.0
C2394 C 0.88997 0.44119 0.66576 0.0
C2395 C 0.88942 0.45545 0.66815 0.0
C2396 C 0.88684 0.46179 0.62766 0.0
C2397 C 0.88583 0.45456 0.58528 0.0
C2398 C 0.89261 0.46472 0.79541 0.0
C2399 C 0.90401 0.48113 0.7957 0.0
C2400 C 0.88729 0.45646 0.75389 0.0
C2401 C 0.89321 0.46445 0.7119 0.0
C2402 C 0.90406 0.48098 0.71218 0.0
C2403 C 0.90941 0.48923 0.75362 0.0
H2404 H 0.56947 0.43902 0.59758 0.0
H2405 H 0.53217 0.4496 0.56457 0.0
H2406 H 0.55619 0.42729 0.67108 0.0
H2407 H 0.51921 0.43844 0.63755 0.0
H2408 H 0.49317 0.41039 0.75842 0.0
H2409 H 0.50503 0.41423 0.68236 0.0
H2410 H 0.55222 0.43862 0.74274 0.0
H2411 H 0.54037 0.43441 0.81905 0.0
C2412 C 0.55837 0.43867 0.60597 0.0
C2413 C 0.55198 0.44549 0.57628 0.0
C2414 C 0.55083 0.43207 0.64792 0.0
C2415 C 0.5367 0.43201 0.66019 0.0
C2416 C 0.52998 0.43814 0.62906 0.0
C2417 C 0.53753 0.44477 0.58756 0.0
C2418 C 0.50607 0.41638 0.75557 0.0
C2419 C 0.51584 0.42237 0.79469 0.0
C2420 C 0.51286 0.41858 0.71199 0.0
C2421 C 0.52956 0.42693 0.70653 0.0
C2422 C 0.53932 0.43204 0.74583 0.0
C2423 C 0.53252 0.42974 0.78954 0.0
H2424 H 0.58042 0.77714 0.40075 0.0
H2425 H 0.53401 0.77006 0.43704 0.0
H2426 H 0.58207 0.76605 0.47401 0.0
H2427 H 0.53534 0.75837 0.51083 0.0
H2428 H 0.5597 0.7663 0.65685 0.0
H2429 H 0.55146 0.7698 0.58059 0.0
H2430 H 0.5716 0.74264 0.52173 0.0
H2431 H 0.58028 0.73957 0.59768 0.0
C2432 C 0.57049 0.77302 0.42446 0.0
C2433 C 0.55727 0.77476 0.41408 0.0
C2434 C 0.5713 0.76644 0.46617 0.0
C2435 C 0.55885 0.76138 0.49837 0.0
C2436 C 0.54518 0.76233 0.48686 0.0
C2437 C 0.54436 0.7689 0.44473 0.0
C2438 C 0.56216 0.76088 0.62771 0.0
C2439 C 0.57096 0.75297 0.63311 0.0
C2440 C 0.55731 0.76276 0.58404 0.0
C2441 C 0.56107 0.75667 0.54507 0.0
C2442 C 0.56883 0.74776 0.55101 0.0
C2443 C 0.5738 0.74601 0.59452 0.0
H2444 H 0.19674 0.75846 0.46565 0.0
H2445 H 0.23884 0.79507 0.39723 0.0
H2446 H 0.20752 0.77125 0.53949 0.0
H2447 H 0.25 0.80766 0.47145 0.0
H2448 H 0.23349 0.79338 0.67016 0.0
H2449 H 0.2285 0.77894 0.59768 0.0
H2450 H 0.24197 0.82259 0.52315 0.0
H2451 H 0.2472 0.83707 0.59523 0.0
C2452 C 0.20837 0.7692 0.46659 0.0
C2453 C 0.21676 0.77613 0.42591 0.0
C2454 C 0.21467 0.77637 0.50888 0.0
C2455 C 0.22952 0.79058 0.51115 0.0
C2456 C 0.23841 0.79685 0.4706 0.0
C2457 C 0.2321 0.78962 0.42827 0.0
C2458 C 0.23559 0.79994 0.6383 0.0
C2459 C 0.24054 0.81634 0.63847 0.0
C2460 C 0.23271 0.79166 0.59684 0.0
C2461 C 0.23478 0.79962 0.5548 0.0
C2462 C 0.24045 0.81615 0.55497 0.0
C2463 C 0.2433 0.82443 0.59635 0.0
H2464 H 0.24034 0.43602 0.47258 0.0
H2465 H 0.20568 0.44424 0.40284 0.0
H2466 H 0.22738 0.4344 0.54598 0.0
H2467 H 0.19294 0.44322 0.47651 0.0
H2468 H 0.20458 0.43781 0.67597 0.0
H2469 H 0.21997 0.44761 0.60495 0.0
H2470 H 0.17674 0.42021 0.5259 0.0
H2471 H 0.16138 0.41066 0.59634 0.0
C2472 C 0.23003 0.43765 0.47324 0.0
C2473 C 0.22361 0.4397 0.43232 0.0
C2474 C 0.22276 0.43698 0.51523 0.0
C2475 C 0.209 0.43845 0.5169 0.0
C2476 C 0.20336 0.44176 0.47613 0.0
C2477 C 0.21066 0.44243 0.43412 0.0
C2478 C 0.19834 0.43407 0.64341 0.0
C2479 C 0.18179 0.42328 0.6418 0.0
C2480 C 0.20716 0.43966 0.60279 0.0
C2481 C 0.19957 0.43463 0.55989 0.0
C2482 C 0.18292 0.42447 0.55839 0.0
C2483 C 0.17413 0.41886 0.59886 0.0
H2484 H 0.46741 0.89057 0.36882 0.0
H2485 H 0.42651 0.88744 0.43852 0.0
H2486 H 0.4569 0.89337 0.29533 0.0
H2487 H 0.41564 0.88979 0.36467 0.0
H2488 H 0.41921 0.92165 0.23842 0.0
H2489 H 0.42437 0.91262 0.31122 0.0
H2490 H 0.43532 0.88021 0.23869 0.0
H2491 H 0.4304 0.88938 0.16572 0.0
C2492 C 0.45609 0.89036 0.36819 0.0
C2493 C 0.44792 0.88922 0.40907 0.0
C2494 C 0.44995 0.89172 0.32615 0.0
C2495 C 0.43551 0.89195 0.32434 0.0
C2496 C 0.42689 0.88987 0.36516 0.0
C2497 C 0.43302 0.88841 0.40725 0.0
C2498 C 0.42254 0.91247 0.23796 0.0
C2499 C 0.42462 0.90641 0.19621 0.0
C2500 C 0.42536 0.9072 0.27972 0.0
C2501 C 0.43033 0.89577 0.28059 0.0
C2502 C 0.4317 0.88918 0.23899 0.0
C2503 C 0.42885 0.89442 0.19723 0.0
H2504 H 0.10661 0.54077 0.14976 0.0
H2505 H 0.07812 0.497 0.22591 0.0
H2506 H 0.117 0.55523 0.22187 0.0
H2507 H 0.08828 0.51148 0.29753 0.0
H2508 H 0.10587 0.57498 0.35628 0.0
H2509 H 0.10407 0.56262 0.28184 0.0
H2510 H 0.11148 0.52668 0.34772 0.0
H2511 H 0.11268 0.53885 0.42257 0.0
C2512 C 0.10271 0.53419 0.18178 0.0
C2513 C 0.09135 0.51778 0.18213 0.0
C2514 C 0.10865 0.54249 0.22302 0.0
C2515 C 0.10339 0.53451 0.26532 0.0
C2516 C 0.09271 0.51794 0.26552 0.0
C2517 C 0.08675 0.50967 0.22439 0.0
C2518 C 0.10713 0.56446 0.35467 0.0
C2519 C 0.10885 0.55749 0.39492 0.0
C2520 C 0.10639 0.55753 0.31205 0.0
C2521 C 0.10742 0.54354 0.30904 0.0
C2522 C 0.11039 0.53731 0.34915 0.0
C2523 C 0.11117 0.54429 0.39182 0.0
H2524 H 0.422 0.52987 0.37018 0.0
H2525 H 0.45999 0.5715 0.43663 0.0
H2526 H 0.4346 0.53997 0.29572 0.0
H2527 H 0.47243 0.58202 0.36178 0.0
H2528 H 0.45677 0.565 0.16385 0.0
H2529 H 0.44276 0.56064 0.23681 0.0
H2530 H 0.48643 0.57304 0.30979 0.0
H2531 H 0.50051 0.57768 0.23717 0.0
C2532 C 0.43298 0.54128 0.36862 0.0
C2533 C 0.44034 0.54972 0.4089 0.0
C2534 C 0.44007 0.5472 0.326 0.0
C2535 C 0.45463 0.5617 0.32301 0.0
C2536 C 0.46135 0.57069 0.36319 0.0
C2537 C 0.4542 0.56476 0.40586 0.0
C2538 C 0.46343 0.56696 0.19547 0.0
C2539 C 0.47972 0.5715 0.19468 0.0
C2540 C 0.45539 0.56445 0.23721 0.0
C2541 C 0.46348 0.56645 0.27897 0.0
C2542 C 0.4799 0.57161 0.2782 0.0
C2543 C 0.48794 0.57411 0.23651 0.0
H2544 H 0.12756 0.55433 0.87468 0.0
H2545 H 0.08481 0.55448 0.91692 0.0
H2546 H 0.12685 0.56622 0.80067 0.0
H2547 H 0.08366 0.56567 0.84344 0.0
H2548 H 0.08585 0.59086 0.71777 0.0
H2549 H 0.09533 0.58795 0.79264 0.0
H2550 H 0.10946 0.55576 0.73367 0.0
H2551 H 0.10057 0.55924 0.65828 0.0
C2552 C 0.11817 0.55713 0.86824 0.0
C2553 C 0.10601 0.55319 0.90062 0.0
C2554 C 0.11769 0.56381 0.82598 0.0
C2555 C 0.10513 0.56677 0.81602 0.0
C2556 C 0.0936 0.56371 0.84998 0.0
C2557 C 0.09408 0.55706 0.89186 0.0
C2558 C 0.0912 0.58336 0.7207 0.0
C2559 C 0.09216 0.57499 0.6825 0.0
C2560 C 0.09664 0.58169 0.76355 0.0
C2561 C 0.10287 0.57139 0.76927 0.0
C2562 C 0.10482 0.56387 0.7304 0.0
C2563 C 0.09959 0.56574 0.68728 0.0
H2564 H 0.46339 0.57314 0.86839 0.0
H2565 H 0.42412 0.53367 0.93843 0.0
H2566 H 0.45314 0.55982 0.79481 0.0
H2567 H 0.41347 0.52042 0.86451 0.0
H2568 H 0.42754 0.53641 0.66537 0.0
H2569 H 0.43148 0.55016 0.7385 0.0
H2570 H 0.42334 0.50758 0.81047 0.0
H2571 H 0.41912 0.4937 0.7375 0.0
C2572 C 0.45244 0.56167 0.86779 0.0
C2573 C 0.44471 0.55419 0.90877 0.0
C2574 C 0.44644 0.55414 0.82572 0.0
C2575 C 0.43259 0.53899 0.82397 0.0
C2576 C 0.42429 0.53199 0.86493 0.0
C2577 C 0.43029 0.53959 0.90707 0.0
C2578 C 0.4264 0.5299 0.69679 0.0
C2579 C 0.42324 0.51401 0.69557 0.0
C2580 C 0.42868 0.5378 0.73865 0.0
C2581 C 0.42782 0.52999 0.78015 0.0
C2582 C 0.42391 0.51388 0.77907 0.0
C2583 C 0.42163 0.50596 0.7372 0.0
H2584 H 0.45917 0.88357 0.93797 0.0
H2585 H 0.42249 0.88923 0.87063 0.0
H2586 H 0.47154 0.88493 0.86342 0.0
H2587 H 0.43507 0.89122 0.79648 0.0
H2588 H 0.45741 0.88851 0.66501 0.0
H2589 H 0.44288 0.87851 0.73717 0.0
H2590 H 0.48645 0.908 0.81277 0.0
H2591 H 0.50101 0.91777 0.74108 0.0
C2592 C 0.45365 0.88486 0.90708 0.0
C2593 C 0.44022 0.88681 0.90983 0.0
C2594 C 0.46075 0.88574 0.86456 0.0
C2595 C 0.45444 0.88847 0.82424 0.0
C2596 C 0.44024 0.88912 0.82688 0.0
C2597 C 0.43318 0.88826 0.86935 0.0
C2598 C 0.46393 0.89271 0.69704 0.0
C2599 C 0.48033 0.90411 0.69731 0.0
C2600 C 0.45559 0.88698 0.73831 0.0
C2601 C 0.46351 0.89251 0.78059 0.0
C2602 C 0.48004 0.90334 0.78078 0.0
C2603 C 0.48836 0.90908 0.73961 0.0
H2604 H 0.24975 0.41073 0.10435 0.0
H2605 H 0.22526 0.4321 0.17285 0.0
H2606 H 0.24411 0.41852 0.03032 0.0
H2607 H 0.21921 0.4395 0.09841 0.0
H2608 H 0.21728 0.45719 0.95389 0.0
H2609 H 0.2292 0.45531 0.02663 0.0
H2610 H 0.21923 0.40787 0.98882 0.0
H2611 H 0.20801 0.41005 0.9165 0.0
C2612 C 0.24324 0.41717 0.10362 0.0
C2613 C 0.23769 0.42054 0.14436 0.0
C2614 C 0.24 0.42162 0.0612 0.0
C2615 C 0.23099 0.42938 0.05854 0.0
C2616 C 0.22625 0.4336 0.09939 0.0
C2617 C 0.22962 0.42926 0.14199 0.0
C2618 C 0.21783 0.44648 0.96131 0.0
C2619 C 0.21137 0.43359 0.93047 0.0
C2620 C 0.22455 0.44536 0.00281 0.0
C2621 C 0.22511 0.43143 0.01346 0.0
C2622 C 0.21914 0.41883 0.98154 0.0
C2623 C 0.21242 0.41994 0.94045 0.0
H2624 H 0.53655 0.76442 0.93579 0.0
H2625 H 0.58452 0.80168 0.90345 0.0
H2626 H 0.53816 0.7774 0.00973 0.0
H2627 H 0.5864 0.81428 0.97714 0.0
H2628 H 0.58456 0.83966 0.10016 0.0
H2629 H 0.57677 0.82836 0.02342 0.0
H2630 H 0.55302 0.78074 0.08116 0.0
H2631 H 0.56042 0.79204 0.15813 0.0
C2632 C 0.54736 0.77544 0.94444 0.0
C2633 C 0.56058 0.78186 0.91476 0.0
C2634 C 0.54832 0.7828 0.98669 0.0
C2635 C 0.56245 0.79679 -0.00057 0.0
C2636 C 0.5753 0.8036 0.96834 0.0
C2637 C 0.57434 0.79624 0.92641 0.0
C2638 C 0.57748 0.82678 0.09657 0.0
C2639 C 0.57335 0.81673 0.13516 0.0
C2640 C 0.57304 0.82032 0.05258 0.0
C2641 C 0.5645 0.80366 0.04618 0.0
C2642 C 0.55951 0.79363 0.08495 0.0
C2643 C 0.56386 0.80011 0.12906 0.0
H2644 H 0.19729 0.78312 0.90641 0.0
H2645 H 0.2372 0.77747 0.94669 0.0
H2646 H 0.18427 0.77206 0.97931 0.0
H2647 H 0.22384 0.76571 0.01993 0.0
H2648 H 0.159 0.74473 0.1017 0.0
H2649 H 0.17148 0.74867 0.02658 0.0
H2650 H 0.2181 0.77644 0.08899 0.0
H2651 H 0.20563 0.77203 0.16447 0.0
C2652 C 0.20321 0.77938 0.93094 0.0
C2653 C 0.21841 0.78154 0.92175 0.0
C2654 C 0.19564 0.77279 0.97245 0.0
C2655 C 0.20306 0.76807 0.00556 0.0
C2656 C 0.21794 0.76943 0.99529 0.0
C2657 C 0.22552 0.77604 0.95344 0.0
C2658 C 0.17193 0.75151 0.09947 0.0
C2659 C 0.18133 0.75834 0.13884 0.0
C2660 C 0.17907 0.75377 0.05643 0.0
C2661 C 0.19576 0.76308 0.05175 0.0
C2662 C 0.20522 0.76911 0.09146 0.0
C2663 C 0.19807 0.76669 0.13468 0.0
H2664 H 0.21176 0.98075 0.36189 0.0
H2665 H 0.18918 0.95208 0.24163 0.0
H2666 H 0.22433 0.00483 0.31414 0.0
H2667 H 0.20155 0.97614 0.19384 0.0
H2668 H 0.25549 0.04211 0.20581 0.0
H2669 H 0.24459 0.01734 0.25075 0.0
H2670 H 0.19859 0.0003 0.18591 0.0
H2671 H 0.20963 0.025 0.1409 0.0
C2672 C 0.20969 0.97962 0.32514 0.0
C2673 C 0.19959 0.96465 0.30524 0.0
C2674 C 0.21684 0.99336 0.29787 0.0
C2675 C 0.21389 0.99232 0.25034 0.0
C2676 C 0.20389 0.97728 0.23046 0.0
C2677 C 0.19683 0.96356 0.2577 0.0
C2678 C 0.2431 0.03295 0.20118 0.0
C2679 C 0.23329 0.03532 0.17047 0.0
C2680 C 0.23685 0.01889 0.22692 0.0
C2681 C 0.22075 0.00695 0.22186 0.0
C2682 C 0.21108 0.00925 0.1902 0.0
C2683 C 0.21731 0.02335 0.16475 0.0
H2684 H 0.9584 0.21424 0.20005 0.0
H2685 H 0.97325 0.18258 0.1423 0.0
H2686 H 0.98318 0.22771 0.24498 0.0
H2687 H 0.99801 0.19593 0.1872 0.0
H2688 H 0.04702 0.23455 0.24164 0.0
H2689 H 0.02313 0.22295 0.19311 0.0
H2690 H 0.99436 0.21922 0.31128 0.0
H2691 H 0.01823 0.23052 0.35985 0.0
C2692 C 0.96707 0.21029 0.19692 0.0
C2693 C 0.96405 0.19739 0.16836 0.0
C2694 C 0.98114 0.21789 0.22265 0.0
C2695 C 0.99243 0.21278 0.21964 0.0
C2696 C 0.98954 0.20015 0.1899 0.0
C2697 C 0.97541 0.19248 0.16451 0.0
C2698 C 0.03556 0.23119 0.2571 0.0
C2699 C 0.03438 0.23345 0.30426 0.0
C2700 C 0.02194 0.22459 0.22944 0.0
C2701 C 0.00695 0.22027 0.2485 0.0
C2702 C 0.00582 0.22269 0.29564 0.0
C2703 C 0.01943 0.22914 0.32336 0.0
H2704 H 0.74757 0.79653 0.25217 0.0
H2705 H 0.77305 0.79251 0.36829 0.0
H2706 H 0.75799 0.7832 0.2034 0.0
H2707 H 0.78424 0.77993 0.31957 0.0
H2708 H 0.79191 0.74611 0.23101 0.0
H2709 H 0.77848 0.75663 0.27895 0.0
H2710 H 0.78188 0.78806 0.16793 0.0
H2711 H 0.79451 0.77676 0.11971 0.0
C2712 C 0.75546 0.79277 0.267 0.0
C2713 C 0.75954 0.79538 0.31361 0.0
C2714 C 0.76153 0.78527 0.23918 0.0
C2715 C 0.77201 0.78051 0.25745 0.0
C2716 C 0.77598 0.78313 0.30446 0.0
C2717 C 0.7697 0.79042 0.33234 0.0
C2718 C 0.78955 0.75514 0.21706 0.0
C2719 C 0.79407 0.76068 0.17206 0.0
C2720 C 0.78202 0.76128 0.24445 0.0
C2721 C 0.77915 0.77328 0.22746 0.0
C2722 C 0.78362 0.77865 0.18196 0.0
C2723 C 0.79094 0.77231 0.1544 0.0
H2724 H 0.80821 0.02072 0.64261 0.0
H2725 H 0.77761 0.03662 0.70192 0.0
H2726 H 0.79438 0.99589 0.68684 0.0
H2727 H 0.76355 0.01169 0.74602 0.0
H2728 H 0.76028 0.976 0.86011 0.0
H2729 H 0.77114 -0.00015 0.81149 0.0
H2730 H 0.7677 0.97122 0.69321 0.0
H2731 H 0.75669 0.9474 0.74186 0.0
C2732 C 0.79842 0.01877 0.66497 0.0
C2733 C 0.79398 0.03047 0.66952 0.0
C2734 C 0.79045 0.00458 0.68996 0.0
C2735 C 0.77794 0.00192 0.71993 0.0
C2736 C 0.77327 0.01353 0.72352 0.0
C2737 C 0.7812 0.02769 0.69825 0.0
C2738 C 0.76163 0.97483 0.82359 0.0
C2739 C 0.75773 0.95997 0.80456 0.0
C2740 C 0.76781 0.98842 0.79581 0.0
C2741 C 0.77028 0.98735 0.74864 0.0
C2742 C 0.76608 0.97239 0.72956 0.0
C2743 C 0.75982 0.95881 0.7573 0.0
H2744 H 0.95191 0.76138 0.74571 0.0
H2745 H 0.97898 0.7632 0.62552 0.0
H2746 H 0.97638 0.77343 0.79159 0.0
H2747 H 0.00347 0.77492 0.6717 0.0
H2748 H 0.02639 0.81464 0.83544 0.0
H2749 H 0.00151 0.80083 0.79134 0.0
H2750 H 0.01552 0.76763 0.73996 0.0
H2751 H 0.04045 0.78154 0.7843 0.0
C2752 C 0.96312 0.76435 0.72921 0.0
C2753 C 0.96365 0.76147 0.68217 0.0
C2754 C 0.97707 0.7712 0.75541 0.0
C2755 C 0.99177 0.77513 0.73507 0.0
C2756 C 0.99224 0.77185 0.68823 0.0
C2757 C 0.97828 0.76514 0.6619 0.0
C2758 C 0.02407 0.80438 0.81469 0.0
C2759 C 0.0352 0.79911 0.81276 0.0
C2760 C 0.00986 0.79644 0.78978 0.0
C2761 C 0.00665 0.78319 0.76232 0.0
C2762 C 0.0178 0.77789 0.76063 0.0
C2763 C 0.03195 0.78575 0.78601 0.0
H2764 H 0.25609 0.22297 0.69449 0.0
H2765 H 0.21037 0.19122 0.63258 0.0
H2766 H 0.24374 0.23516 0.74088 0.0
H2767 H 0.198 0.20344 0.67843 0.0
H2768 H 0.2085 0.23189 0.85782 0.0
H2769 H 0.22257 0.22309 0.80609 0.0
H2770 H 0.1996 0.23088 0.68953 0.0
H2771 H 0.18592 0.24019 0.7413 0.0
C2772 C 0.24345 0.21882 0.69048 0.0
C2773 C 0.23407 0.2062 0.66052 0.0
C2774 C 0.2364 0.22569 0.71699 0.0
C2775 C 0.21994 0.22016 0.71322 0.0
C2776 C 0.21073 0.20797 0.68168 0.0
C2777 C 0.21774 0.20097 0.65569 0.0
C2778 C 0.2067 0.23196 0.82109 0.0
C2779 C 0.19623 0.23674 0.80335 0.0
C2780 C 0.21471 0.22695 0.79159 0.0
C2781 C 0.21218 0.2264 0.74395 0.0
C2782 C 0.20168 0.23116 0.72619 0.0
C2783 C 0.19384 0.2364 0.7557 0.0
H2784 H 0.88688 0.29246 0.61492 0.0
H2785 H 0.85346 0.30453 0.67521 0.0
H2786 H 0.89902 0.31749 0.5708 0.0
H2787 H 0.86557 0.32957 0.63151 0.0
H2788 H 0.89837 0.35181 0.45786 0.0
H2789 H 0.88837 0.32779 0.50549 0.0
H2790 H 0.89253 0.35569 0.62611 0.0
H2791 H 0.90297 0.37978 0.5786 0.0
C2792 C 0.88229 0.3006 0.6189 0.0
C2793 C 0.86927 0.29672 0.64791 0.0
C2794 C 0.88912 0.31479 0.59365 0.0
C2795 C 0.88315 0.32536 0.59775 0.0
C2796 C 0.87043 0.32165 0.62801 0.0
C2797 C 0.86349 0.30737 0.65275 0.0
C2798 C 0.89735 0.3528 0.49464 0.0
C2799 C 0.90149 0.36758 0.51475 0.0
C2800 C 0.89165 0.33911 0.5218 0.0
C2801 C 0.88977 0.33997 0.56939 0.0
C2802 C 0.8938 0.35474 0.58944 0.0
C2803 C 0.8997 0.36846 0.56233 0.0
H2804 H 0.70939 0.59103 0.60564 0.0
H2805 H 0.69651 0.54477 0.6618 0.0
H2806 H 0.68425 0.57905 0.56221 0.0
H2807 H 0.67136 0.53272 0.61856 0.0
H2808 H 0.64595 0.54637 0.45465 0.0
H2809 H 0.6713 0.55871 0.49667 0.0
H2810 H 0.64612 0.53512 0.62102 0.0
H2811 H 0.62074 0.52314 0.57921 0.0
C2812 C 0.70116 0.57829 0.60834 0.0
C2813 C 0.70475 0.56873 0.63653 0.0
C2814 C 0.68688 0.57144 0.58353 0.0
C2815 C 0.67592 0.55499 0.58719 0.0
C2816 C 0.67958 0.54546 0.61547 0.0
C2817 C 0.69394 0.55228 0.63984 0.0
C2818 C 0.64585 0.54404 0.4911 0.0
C2819 C 0.63146 0.5339 0.51388 0.0
C2820 C 0.66032 0.55103 0.51502 0.0
C2821 C 0.66061 0.5478 0.56195 0.0
C2822 C 0.6462 0.53764 0.5847 0.0
C2823 C 0.63173 0.53081 0.56088 0.0
H2824 H 0.42553 0.11774 0.69016 0.0
H2825 H 0.42522 0.14227 0.56649 0.0
H2826 H 0.43742 0.10442 0.64776 0.0
H2827 H 0.43721 0.12904 0.52391 0.0
H2828 H 0.47659 0.11739 0.48283 0.0
H2829 H 0.46321 0.1298 0.52257 0.0
H2830 H 0.43068 0.08439 0.5857 0.0
H2831 H 0.44435 0.07215 0.5464 0.0
C2832 C 0.42785 0.12011 0.65375 0.0
C2833 C 0.42445 0.13093 0.63139 0.0
C2834 C 0.43463 0.1125 0.62951 0.0
C2835 C 0.43821 0.11568 0.58254 0.0
C2836 C 0.43473 0.12649 0.5602 0.0
C2837 C 0.42789 0.13404 0.58444 0.0
C2838 C 0.46658 0.11015 0.5053 0.0
C2839 C 0.46152 0.09394 0.51222 0.0
C2840 C 0.45886 0.11717 0.52768 0.0
C2841 C 0.44594 0.10806 0.55731 0.0
C2842 C 0.44073 0.09173 0.56349 0.0
C2843 C 0.44844 0.08471 0.54094 0.0
H2844 H 0.45337 0.30381 0.16882 0.0
H2845 H 0.4084 0.29281 0.10708 0.0
H2846 H 0.4668 0.32923 0.12665 0.0
H2847 H 0.42177 0.31811 0.06442 0.0
H2848 H 0.47822 0.38058 0.08153 0.0
H2849 H 0.46534 0.3555 0.12517 0.0
H2850 H 0.44348 0.32943 0.00046 0.0
H2851 H 0.45674 0.3544 0.95674 0.0
C2852 C 0.44643 0.3069 0.1461 0.0
C2853 C 0.42997 0.29651 0.14069 0.0
C2854 C 0.45404 0.32139 0.12229 0.0
C2855 C 0.44529 0.32553 0.09231 0.0
C2856 C 0.42878 0.31509 0.08708 0.0
C2857 C 0.42114 0.30072 0.11144 0.0
C2858 C 0.47079 0.36945 0.06354 0.0
C2859 C 0.46834 0.36935 0.01598 0.0
C2860 C 0.46343 0.35516 0.0884 0.0
C2861 C 0.45337 0.34062 0.06609 0.0
C2862 C 0.45101 0.34054 0.01847 0.0
C2863 C 0.45855 0.35478 0.99357 0.0
H2864 H 0.61922 0.08243 0.07312 0.0
H2865 H 0.64494 0.11084 0.95568 0.0
H2866 H 0.64408 0.09381 0.11708 0.0
H2867 H 0.66979 0.12306 -9e-05 0.0
H2868 H 0.71413 0.13199 0.07742 0.0
H2869 H 0.68941 0.11868 0.03274 0.0
H2870 H 0.66266 0.11745 0.15362 0.0
H2871 H 0.68739 0.1299 0.1983 0.0
C2872 C 0.6303 0.09118 0.05699 0.0
C2873 C 0.63041 0.09579 0.01136 0.0
C2874 C 0.64449 0.09782 0.08211 0.0
C2875 C 0.65898 0.10943 0.06218 0.0
C2876 C 0.65895 0.11396 0.01617 0.0
C2877 C 0.64477 0.1071 0.99088 0.0
C2878 C 0.70287 0.1287 0.09413 0.0
C2879 C 0.70243 0.13176 0.14095 0.0
C2880 C 0.68875 0.12122 0.06865 0.0
C2881 C 0.67399 0.11698 0.08949 0.0
C2882 C 0.67372 0.12022 0.13659 0.0
C2883 C 0.68783 0.12744 0.16216 0.0
H2884 H 0.87829 0.57075 0.18666 0.0
H2885 H 0.85229 0.57174 0.06717 0.0
H2886 H 0.89117 0.55921 0.14048 0.0
H2887 H 0.86485 0.55976 0.02113 0.0
H2888 H 0.92223 0.55372 0.02945 0.0
H2889 H 0.91048 0.56726 0.07218 0.0
H2890 H 0.86367 0.53263 0.02153 0.0
H2891 H 0.87549 0.51915 0.97901 0.0
C2892 C 0.87549 0.56865 0.15039 0.0
C2893 C 0.86437 0.57214 0.1303 0.0
C2894 C 0.88282 0.56204 0.12405 0.0
C2895 C 0.87898 0.55863 0.07733 0.0
C2896 C 0.86789 0.56217 0.0572 0.0
C2897 C 0.86072 0.56897 0.08345 0.0
C2898 C 0.90945 0.54913 0.02747 0.0
C2899 C 0.89967 0.53543 0.00147 0.0
C2900 C 0.90275 0.55678 0.05191 0.0
C2901 C 0.88619 0.55094 0.05011 0.0
C2902 C 0.87648 0.53742 0.02318 0.0
C2903 C 0.88318 0.52967 -0.0008 0.0
H2904 H 0.51856 0.63986 0.02024 0.0
H2905 H 0.54778 0.62416 0.95094 0.0
H2906 H 0.53161 0.66496 0.97668 0.0
H2907 H 0.5609 0.64923 0.90725 0.0
H2908 H 0.57115 0.71404 0.92151 0.0
H2909 H 0.55925 0.68967 0.96833 0.0
H2910 H 0.5514 0.66137 0.84587 0.0
H2911 H 0.56296 0.68568 0.79918 0.0
C2912 C 0.52784 0.64189 -0.00426 0.0
C2913 C 0.53218 0.63022 0.98836 0.0
C2914 C 0.53535 0.65621 0.97111 0.0
C2915 C 0.54719 0.65895 0.93855 0.0
C2916 C 0.55168 0.64731 0.93184 0.0
C2917 C 0.54428 0.63307 0.95682 0.0
C2918 C 0.56678 0.70257 0.90478 0.0
C2919 C 0.568 0.70164 0.85697 0.0
C2920 C 0.56002 0.68869 0.93144 0.0
C2921 C 0.55451 0.6737 0.91064 0.0
C2922 C 0.55578 0.67282 0.86278 0.0
C2923 C 0.56238 0.68667 0.83614 0.0
H2924 H 0.38115 0.90485 0.91477 0.0
H2925 H 0.35373 0.9018 0.03539 0.0
H2926 H 0.35693 0.89406 0.86789 0.0
H2927 H 0.32955 0.89143 0.98828 0.0
H2928 H 0.29363 0.88801 0.87699 0.0
H2929 H 0.31864 0.90079 0.92122 0.0
H2930 H 0.33105 0.86693 0.86539 0.0
H2931 H 0.30604 0.8542 0.82157 0.0
C2932 C 0.36993 0.90187 0.93115 0.0
C2933 C 0.36923 0.9041 0.97856 0.0
C2934 C 0.35612 0.89577 0.90439 0.0
C2935 C 0.34143 0.89196 0.92456 0.0
C2936 C 0.34079 0.89447 0.97187 0.0
C2937 C 0.35458 0.90039 -0.00126 0.0
C2938 C 0.30182 0.88345 0.87417 0.0
C2939 C 0.29806 0.87017 0.84637 0.0
C2940 C 0.31601 0.89066 0.89948 0.0
C2941 C 0.3267 0.8848 0.89665 0.0
C2942 C 0.32305 0.87173 0.86785 0.0
C2943 C 0.30878 0.86442 0.84306 0.0
H2944 H 0.12279 0.43754 0.78614 0.0
H2945 H 0.12286 0.41181 0.90707 0.0
H2946 H 0.10996 0.44976 0.82949 0.0
H2947 H 0.10927 0.42324 0.95033 0.0
H2948 H 0.10389 0.46151 0.02679 0.0
H2949 H 0.11502 0.44781 0.98283 0.0
H2950 H 0.08633 0.44554 0.8656 0.0
H2951 H 0.07596 0.46003 0.90945 0.0
C2952 C 0.11973 0.43433 0.82189 0.0
C2953 C 0.12369 0.42384 0.84362 0.0
C2954 C 0.11232 0.4412 0.8467 0.0
C2955 C 0.1086 0.43752 0.89352 0.0
C2956 C 0.11223 0.4266 0.91464 0.0
C2957 C 0.11986 0.41994 0.88996 0.0
C2958 C 0.10001 0.45798 0.99165 0.0
C2959 C 0.08916 0.46168 0.97115 0.0
C2960 C 0.10625 0.45004 0.96653 0.0
C2961 C 0.10154 0.4455 0.92062 0.0
C2962 C 0.09041 0.44906 0.90057 0.0
C2963 C 0.08437 0.45722 0.92558 0.0
H2964 H 0.13886 0.71418 0.41798 0.0
H2965 H 0.11799 0.688 0.29279 0.0
H2966 H 0.12595 0.68916 0.46158 0.0
H2967 H 0.10485 0.66297 0.33637 0.0
H2968 H 0.07181 0.6241 0.43941 0.0
H2969 H 0.08357 0.64963 0.39794 0.0
H2970 H 0.12884 0.66463 0.46498 0.0
H2971 H 0.11698 0.63914 0.50635 0.0
C2972 C 0.13147 0.70304 0.39994 0.0
C2973 C 0.12931 0.70291 0.35225 0.0
C2974 C 0.12411 0.68878 0.42477 0.0
C2975 C 0.11441 0.67419 0.40227 0.0
C2976 C 0.1121 0.67411 0.35458 0.0
C2977 C 0.11957 0.68837 0.32971 0.0
C2978 C 0.08424 0.63295 0.44516 0.0
C2979 C 0.09362 0.6298 0.47542 0.0
C2980 C 0.09097 0.64744 0.42145 0.0
C2981 C 0.1071 0.65903 0.42825 0.0
C2982 C 0.11635 0.65594 0.4594 0.0
C2983 C 0.10965 0.64139 0.48275 0.0
H2984 H 0.29171 0.40348 0.38231 0.0
H2985 H 0.30583 0.4495 0.3222 0.0
H2986 H 0.31697 0.4152 0.42515 0.0
H2987 H 0.33104 0.46131 0.36493 0.0
H2988 H 0.35366 0.44891 0.5357 0.0
H2989 H 0.32915 0.43552 0.48988 0.0
H2990 H 0.35614 0.45935 0.368 0.0
H2991 H 0.38065 0.47247 0.41375 0.0
C2992 C 0.30031 0.41609 0.37825 0.0
C2993 C 0.29697 0.4257 0.34953 0.0
C2994 C 0.31465 0.42279 0.40277 0.0
C2995 C 0.32589 0.43914 0.39834 0.0
C2996 C 0.32262 0.44864 0.36865 0.0
C2997 C 0.30823 0.44196 0.34451 0.0
C2998 C 0.35434 0.45104 0.499 0.0
C2999 C 0.36895 0.46165 0.47807 0.0
C3000 C 0.34036 0.44342 0.47285 0.0
C3001 C 0.3408 0.44644 0.42549 0.0
C3002 C 0.35548 0.45695 0.40455 0.0
C3003 C 0.36945 0.46444 0.43063 0.0
H3004 H 0.56876 0.87854 0.30619 0.0
H3005 H 0.57193 0.85381 0.42576 0.0
H3006 H 0.55763 0.89155 0.3535 0.0
H3007 H 0.5605 0.86657 0.4731 0.0
H3008 H 0.5523 0.92297 0.46215 0.0
H3009 H 0.56589 0.91136 0.41907 0.0
H3010 H 0.53361 0.86503 0.47754 0.0
H3011 H 0.52016 0.87674 0.52061 0.0
C3012 C 0.56723 0.87605 0.34272 0.0
C3013 C 0.57119 0.86524 0.3625 0.0
C3014 C 0.56087 0.88347 0.36973 0.0
C3015 C 0.55823 0.88005 0.4169 0.0
C3016 C 0.56229 0.86929 0.43672 0.0
C3017 C 0.5688 0.862 0.40974 0.0
C3018 C 0.54826 0.91034 0.46581 0.0
C3019 C 0.53518 0.90063 0.49402 0.0
C3020 C 0.55593 0.9037 0.44116 0.0
C3021 C 0.55073 0.8873 0.44489 0.0
C3022 C 0.53791 0.87772 0.4743 0.0
C3023 C 0.53017 0.88435 0.4986 0.0
loop_
_geom_bond_atom_site_label_1
_geom_bond_atom_site_label_2
_geom_bond_distance
_geom_bond_site_symmetry_2
_ccdc_geom_bond_type
Co0 O3 1.970 . S
Co0 N17 1.989 . S
Co0 O25 1.967 . S
Co0 O32 1.920 . S
Co1 O4 1.966 . S
Co1 N10 2.022 . S
Co1 N18 1.993 . S
Co1 O26 1.941 . S
C2 O3 1.258 . S
C2 O4 1.263 . S
O3 Co0 1.970 . S
O3 C2 1.258 . S
O4 Co1 1.966 . S
O4 C2 1.263 . S
C5 O6 1.235 . S
C5 O32 1.289 . S
O6 C5 1.235 . S
C7 C9 1.400 . S
C7 N10 1.351 . S
C7 C12 1.501 . S
C8 C9 1.387 . S
C8 N11 1.341 . S
C9 C7 1.400 . S
C9 C8 1.387 . S
N10 Co1 2.022 . S
N10 C7 1.351 . S
N10 N11 1.365 . S
N11 C8 1.341 . S
N11 N10 1.365 . S
N11 H31 0.862 . S
C12 C7 1.501 . S
C12 H13 0.961 . S
C12 H14 0.961 . S
C12 H15 0.960 . S
H13 C12 0.961 . S
H14 C12 0.961 . S
H15 C12 0.960 . S
C16 N17 1.342 . S
C16 C20 1.401 . S
C16 C21 1.499 . S
N17 Co0 1.989 . S
N17 C16 1.342 . S
N17 N18 1.388 . S
N18 Co1 1.993 . S
N18 N17 1.388 . S
N18 C19 1.346 . S
C19 N18 1.346 . S
C19 C20 1.396 . S
C19 C29 1.510 . S
C20 C16 1.401 . S
C20 C19 1.396 . S
C21 C16 1.499 . S
C21 H22 0.959 . S
C21 H23 0.960 . S
C21 H24 0.961 . S
H22 C21 0.959 . S
H23 C21 0.960 . S
H24 C21 0.961 . S
O25 Co0 1.967 . S
O25 C33 1.258 . S
O26 Co1 1.941 . S
O26 C33 1.266 . S
H27 C29 0.959 . S
H28 C29 0.961 . S
C29 C19 1.510 . S
C29 H27 0.959 . S
C29 H28 0.961 . S
C29 H30 0.960 . S
H30 C29 0.960 . S
H31 N11 0.862 . S
O32 Co0 1.920 . S
O32 C5 1.289 . S
C33 O25 1.258 . S
C33 O26 1.266 . S
Co34 O37 1.970 . S
Co34 N51 1.989 . S
Co34 O59 1.967 . S
Co34 O66 1.920 . S
Co35 O38 1.966 . S
Co35 N44 2.022 . S
Co35 N52 1.993 . S
Co35 O60 1.941 . S
C36 O37 1.258 . S
C36 O38 1.263 . S
O37 Co34 1.970 . S
O37 C36 1.258 . S
O38 Co35 1.966 . S
O38 C36 1.263 . S
C39 O40 1.235 . S
C39 O66 1.289 . S
O40 C39 1.235 . S
C41 C43 1.400 . S
C41 N44 1.351 . S
C41 C46 1.501 . S
C42 C43 1.387 . S
C42 N45 1.341 . S
C43 C41 1.400 . S
C43 C42 1.387 . S
N44 Co35 2.022 . S
N44 C41 1.351 . S
N44 N45 1.365 . S
N45 C42 1.341 . S
N45 N44 1.365 . S
N45 H65 0.862 . S
C46 C41 1.501 . S
C46 H47 0.961 . S
C46 H48 0.961 . S
C46 H49 0.960 . S
H47 C46 0.961 . S
H48 C46 0.961 . S
H49 C46 0.960 . S
C50 N51 1.342 . S
C50 C54 1.401 . S
C50 C55 1.499 . S
N51 Co34 1.989 . S
N51 C50 1.342 . S
N51 N52 1.388 . S
N52 Co35 1.993 . S
N52 N51 1.388 . S
N52 C53 1.346 . S
C53 N52 1.346 . S
C53 C54 1.396 . S
C53 C63 1.510 . S
C54 C50 1.401 . S
C54 C53 1.396 . S
C55 C50 1.499 . S
C55 H56 0.959 . S
C55 H57 0.960 . S
C55 H58 0.961 . S
H56 C55 0.959 . S
H57 C55 0.960 . S
H58 C55 0.961 . S
O59 Co34 1.967 . S
O59 C67 1.258 . S
O60 Co35 1.941 . S
O60 C67 1.266 . S
H61 C63 0.959 . S
H62 C63 0.961 . S
C63 C53 1.510 . S
C63 H61 0.959 . S
C63 H62 0.961 . S
C63 H64 0.960 . S
H64 C63 0.960 . S
H65 N45 0.862 . S
O66 Co34 1.920 . S
O66 C39 1.289 . S
C67 O59 1.258 . S
C67 O60 1.266 . S
Co68 O71 1.970 . S
Co68 N85 1.989 . S
Co68 O93 1.967 . S
Co68 O100 1.920 . S
Co69 O72 1.966 . S
Co69 N78 2.022 . S
Co69 N86 1.993 . S
Co69 O94 1.941 . S
C70 O71 1.258 . S
C70 O72 1.263 . S
O71 Co68 1.970 . S
O71 C70 1.258 . S
O72 Co69 1.966 . S
O72 C70 1.263 . S
C73 O74 1.235 . S
C73 O100 1.289 . S
O74 C73 1.235 . S
C75 C77 1.400 . S
C75 N78 1.351 . S
C75 C80 1.501 . S
C76 C77 1.387 . S
C76 N79 1.341 . S
C77 C75 1.400 . S
C77 C76 1.387 . S
N78 Co69 2.022 . S
N78 C75 1.351 . S
N78 N79 1.365 . S
N79 C76 1.341 . S
N79 N78 1.365 . S
N79 H99 0.862 . S
C80 C75 1.501 . S
C80 H81 0.961 . S
C80 H82 0.961 . S
C80 H83 0.960 . S
H81 C80 0.961 . S
H82 C80 0.961 . S
H83 C80 0.960 . S
C84 N85 1.342 . S
C84 C88 1.401 . S
C84 C89 1.499 . S
N85 Co68 1.989 . S
N85 C84 1.342 . S
N85 N86 1.388 . S
N86 Co69 1.993 . S
N86 N85 1.388 . S
N86 C87 1.346 . S
C87 N86 1.346 . S
C87 C88 1.396 . S
C87 C97 1.510 . S
C88 C84 1.401 . S
C88 C87 1.396 . S
C89 C84 1.499 . S
C89 H90 0.959 . S
C89 H91 0.960 . S
C89 H92 0.961 . S
H90 C89 0.959 . S
H91 C89 0.960 . S
H92 C89 0.961 . S
O93 Co68 1.967 . S
O93 C101 1.258 . S
O94 Co69 1.941 . S
O94 C101 1.266 . S
H95 C97 0.959 . S
H96 C97 0.961 . S
C97 C87 1.510 . S
C97 H95 0.959 . S
C97 H96 0.961 . S
C97 H98 0.960 . S
H98 C97 0.960 . S
H99 N79 0.862 . S
O100 Co68 1.920 . S
O100 C73 1.289 . S
C101 O93 1.258 . S
C101 O94 1.266 . S
Co102 O105 1.970 . S
Co102 N119 1.989 . S
Co102 O127 1.967 . S
Co102 O134 1.920 . S
Co103 O106 1.966 . S
Co103 N112 2.022 . S
Co103 N120 1.993 . S
Co103 O128 1.941 . S
C104 O105 1.258 . S
C104 O106 1.263 . S
O105 Co102 1.970 . S
O105 C104 1.258 . S
O106 Co103 1.966 . S
O106 C104 1.263 . S
C107 O108 1.235 . S
C107 O134 1.289 . S
O108 C107 1.235 . S
C109 C111 1.400 . S
C109 N112 1.351 . S
C109 C114 1.501 . S
C110 C111 1.387 . S
C110 N113 1.341 . S
C111 C109 1.400 . S
C111 C110 1.387 . S
N112 Co103 2.022 . S
N112 C109 1.351 . S
N112 N113 1.365 . S
N113 C110 1.341 . S
N113 N112 1.365 . S
N113 H133 0.862 . S
C114 C109 1.501 . S
C114 H115 0.961 . S
C114 H116 0.961 . S
C114 H117 0.960 . S
H115 C114 0.961 . S
H116 C114 0.961 . S
H117 C114 0.960 . S
C118 N119 1.342 . S
C118 C122 1.401 . S
C118 C123 1.499 . S
N119 Co102 1.989 . S
N119 C118 1.342 . S
N119 N120 1.388 . S
N120 Co103 1.993 . S
N120 N119 1.388 . S
N120 C121 1.346 . S
C121 N120 1.346 . S
C121 C122 1.396 . S
C121 C131 1.510 . S
C122 C118 1.401 . S
C122 C121 1.396 . S
C123 C118 1.499 . S
C123 H124 0.959 . S
C123 H125 0.960 . S
C123 H126 0.961 . S
H124 C123 0.959 . S
H125 C123 0.960 . S
H126 C123 0.961 . S
O127 Co102 1.967 . S
O127 C135 1.258 . S
O128 Co103 1.941 . S
O128 C135 1.266 . S
H129 C131 0.959 . S
H130 C131 0.961 . S
C131 C121 1.510 . S
C131 H129 0.959 . S
C131 H130 0.961 . S
C131 H132 0.960 . S
H132 C131 0.960 . S
H133 N113 0.862 . S
O134 Co102 1.920 . S
O134 C107 1.289 . S
C135 O127 1.258 . S
C135 O128 1.266 . S
Co136 O139 1.970 . S
Co136 N153 1.989 . S
Co136 O161 1.967 . S
Co136 O168 1.920 . S
Co137 O140 1.966 . S
Co137 N146 2.022 . S
Co137 N154 1.993 . S
Co137 O162 1.941 . S
C138 O139 1.258 . S
C138 O140 1.263 . S
O139 Co136 1.970 . S
O139 C138 1.258 . S
O140 Co137 1.966 . S
O140 C138 1.263 . S
C141 O142 1.235 . S
C141 O168 1.289 . S
O142 C141 1.235 . S
C143 C145 1.400 . S
C143 N146 1.351 . S
C143 C148 1.501 . S
C144 C145 1.387 . S
C144 N147 1.341 . S
C145 C143 1.400 . S
C145 C144 1.387 . S
N146 Co137 2.022 . S
N146 C143 1.351 . S
N146 N147 1.365 . S
N147 C144 1.341 . S
N147 N146 1.365 . S
N147 H167 0.862 . S
C148 C143 1.501 . S
C148 H149 0.961 . S
C148 H150 0.961 . S
C148 H151 0.960 . S
H149 C148 0.961 . S
H150 C148 0.961 . S
H151 C148 0.960 . S
C152 N153 1.342 . S
C152 C156 1.401 . S
C152 C157 1.499 . S
N153 Co136 1.989 . S
N153 C152 1.342 . S
N153 N154 1.388 . S
N154 Co137 1.993 . S
N154 N153 1.388 . S
N154 C155 1.346 . S
C155 N154 1.346 . S
C155 C156 1.396 . S
C155 C165 1.510 . S
C156 C152 1.401 . S
C156 C155 1.396 . S
C157 C152 1.499 . S
C157 H158 0.959 . S
C157 H159 0.960 . S
C157 H160 0.961 . S
H158 C157 0.959 . S
H159 C157 0.960 . S
H160 C157 0.961 . S
O161 Co136 1.967 . S
O161 C169 1.258 . S
O162 Co137 1.941 . S
O162 C169 1.266 . S
H163 C165 0.959 . S
H164 C165 0.961 . S
C165 C155 1.510 . S
C165 H163 0.959 . S
C165 H164 0.961 . S
C165 H166 0.960 . S
H166 C165 0.960 . S
H167 N147 0.862 . S
O168 Co136 1.920 . S
O168 C141 1.289 . S
C169 O161 1.258 . S
C169 O162 1.266 . S
Co170 O173 1.970 . S
Co170 N187 1.989 . S
Co170 O195 1.967 . S
Co170 O202 1.920 . S
Co171 O174 1.966 . S
Co171 N180 2.022 . S
Co171 N188 1.993 . S
Co171 O196 1.941 . S
C172 O173 1.258 . S
C172 O174 1.263 . S
O173 Co170 1.970 . S
O173 C172 1.258 . S
O174 Co171 1.966 . S
O174 C172 1.263 . S
C175 O176 1.235 . S
C175 O202 1.289 . S
O176 C175 1.235 . S
C177 C179 1.400 . S
C177 N180 1.351 . S
C177 C182 1.501 . S
C178 C179 1.387 . S
C178 N181 1.341 . S
C179 C177 1.400 . S
C179 C178 1.387 . S
N180 Co171 2.022 . S
N180 C177 1.351 . S
N180 N181 1.365 . S
N181 C178 1.341 . S
N181 N180 1.365 . S
N181 H201 0.862 . S
C182 C177 1.501 . S
C182 H183 0.961 . S
C182 H184 0.961 . S
C182 H185 0.960 . S
H183 C182 0.961 . S
H184 C182 0.961 . S
H185 C182 0.960 . S
C186 N187 1.342 . S
C186 C190 1.401 . S
C186 C191 1.499 . S
N187 Co170 1.989 . S
N187 C186 1.342 . S
N187 N188 1.388 . S
N188 Co171 1.993 . S
N188 N187 1.388 . S
N188 C189 1.346 . S
C189 N188 1.346 . S
C189 C190 1.396 . S
C189 C199 1.510 . S
C190 C186 1.401 . S
C190 C189 1.396 . S
C191 C186 1.499 . S
C191 H192 0.959 . S
C191 H193 0.960 . S
C191 H194 0.961 . S
H192 C191 0.959 . S
H193 C191 0.960 . S
H194 C191 0.961 . S
O195 Co170 1.967 . S
O195 C203 1.258 . S
O196 Co171 1.941 . S
O196 C203 1.266 . S
H197 C199 0.959 . S
H198 C199 0.961 . S
C199 C189 1.510 . S
C199 H197 0.959 . S
C199 H198 0.961 . S
C199 H200 0.960 . S
H200 C199 0.960 . S
H201 N181 0.862 . S
O202 Co170 1.920 . S
O202 C175 1.289 . S
C203 O195 1.258 . S
C203 O196 1.266 . S
Co204 O207 1.970 . S
Co204 N221 1.989 . S
Co204 O229 1.967 . S
Co204 O236 1.920 . S
Co205 O208 1.966 . S
Co205 N214 2.022 . S
Co205 N222 1.993 . S
Co205 O230 1.941 . S
C206 O207 1.258 . S
C206 O208 1.263 . S
O207 Co204 1.970 . S
O207 C206 1.258 . S
O208 Co205 1.966 . S
O208 C206 1.263 . S
C209 O210 1.235 . S
C209 O236 1.289 . S
O210 C209 1.235 . S
C211 C213 1.400 . S
C211 N214 1.351 . S
C211 C216 1.501 . S
C212 C213 1.387 . S
C212 N215 1.341 . S
C213 C211 1.400 . S
C213 C212 1.387 . S
N214 Co205 2.022 . S
N214 C211 1.351 . S
N214 N215 1.365 . S
N215 C212 1.341 . S
N215 N214 1.365 . S
N215 H235 0.862 . S
C216 C211 1.501 . S
C216 H217 0.961 . S
C216 H218 0.961 . S
C216 H219 0.960 . S
H217 C216 0.961 . S
H218 C216 0.961 . S
H219 C216 0.960 . S
C220 N221 1.342 . S
C220 C224 1.401 . S
C220 C225 1.499 . S
N221 Co204 1.989 . S
N221 C220 1.342 . S
N221 N222 1.388 . S
N222 Co205 1.993 . S
N222 N221 1.388 . S
N222 C223 1.346 . S
C223 N222 1.346 . S
C223 C224 1.396 . S
C223 C233 1.510 . S
C224 C220 1.401 . S
C224 C223 1.396 . S
C225 C220 1.499 . S
C225 H226 0.959 . S
C225 H227 0.960 . S
C225 H228 0.961 . S
H226 C225 0.959 . S
H227 C225 0.960 . S
H228 C225 0.961 . S
O229 Co204 1.967 . S
O229 C237 1.258 . S
O230 Co205 1.941 . S
O230 C237 1.266 . S
H231 C233 0.959 . S
H232 C233 0.961 . S
C233 C223 1.510 . S
C233 H231 0.959 . S
C233 H232 0.961 . S
C233 H234 0.960 . S
H234 C233 0.960 . S
H235 N215 0.862 . S
O236 Co204 1.920 . S
O236 C209 1.289 . S
C237 O229 1.258 . S
C237 O230 1.266 . S
Co238 O241 1.970 . S
Co238 N255 1.989 . S
Co238 O263 1.967 . S
Co238 O270 1.920 . S
Co239 O242 1.966 . S
Co239 N248 2.022 . S
Co239 N256 1.993 . S
Co239 O264 1.941 . S
C240 O241 1.258 . S
C240 O242 1.263 . S
O241 Co238 1.970 . S
O241 C240 1.258 . S
O242 Co239 1.966 . S
O242 C240 1.263 . S
C243 O244 1.235 . S
C243 O270 1.289 . S
O244 C243 1.235 . S
C245 C247 1.400 . S
C245 N248 1.351 . S
C245 C250 1.501 . S
C246 C247 1.387 . S
C246 N249 1.341 . S
C247 C245 1.400 . S
C247 C246 1.387 . S
N248 Co239 2.022 . S
N248 C245 1.351 . S
N248 N249 1.365 . S
N249 C246 1.341 . S
N249 N248 1.365 . S
N249 H269 0.862 . S
C250 C245 1.501 . S
C250 H251 0.961 . S
C250 H252 0.961 . S
C250 H253 0.960 . S
H251 C250 0.961 . S
H252 C250 0.961 . S
H253 C250 0.960 . S
C254 N255 1.342 . S
C254 C258 1.401 . S
C254 C259 1.499 . S
N255 Co238 1.989 . S
N255 C254 1.342 . S
N255 N256 1.388 . S
N256 Co239 1.993 . S
N256 N255 1.388 . S
N256 C257 1.346 . S
C257 N256 1.346 . S
C257 C258 1.396 . S
C257 C267 1.510 . S
C258 C254 1.401 . S
C258 C257 1.396 . S
C259 C254 1.499 . S
C259 H260 0.959 . S
C259 H261 0.960 . S
C259 H262 0.961 . S
H260 C259 0.959 . S
H261 C259 0.960 . S
H262 C259 0.961 . S
O263 Co238 1.967 . S
O263 C271 1.258 . S
O264 Co239 1.941 . S
O264 C271 1.266 . S
H265 C267 0.959 . S
H266 C267 0.961 . S
C267 C257 1.510 . S
C267 H265 0.959 . S
C267 H266 0.961 . S
C267 H268 0.960 . S
H268 C267 0.960 . S
H269 N249 0.862 . S
O270 Co238 1.920 . S
O270 C243 1.289 . S
C271 O263 1.258 . S
C271 O264 1.266 . S
Co272 O275 1.970 . S
Co272 N289 1.989 . S
Co272 O297 1.967 . S
Co272 O304 1.920 . S
Co273 O276 1.966 . S
Co273 N282 2.022 . S
Co273 N290 1.993 . S
Co273 O298 1.941 . S
C274 O275 1.258 . S
C274 O276 1.263 . S
O275 Co272 1.970 . S
O275 C274 1.258 . S
O276 Co273 1.966 . S
O276 C274 1.263 . S
C277 O278 1.235 . S
C277 O304 1.289 . S
O278 C277 1.235 . S
C279 C281 1.400 . S
C279 N282 1.351 . S
C279 C284 1.501 . S
C280 C281 1.387 . S
C280 N283 1.341 . S
C281 C279 1.400 . S
C281 C280 1.387 . S
N282 Co273 2.022 . S
N282 C279 1.351 . S
N282 N283 1.365 . S
N283 C280 1.341 . S
N283 N282 1.365 . S
N283 H303 0.862 . S
C284 C279 1.501 . S
C284 H285 0.961 . S
C284 H286 0.961 . S
C284 H287 0.960 . S
H285 C284 0.961 . S
H286 C284 0.961 . S
H287 C284 0.960 . S
C288 N289 1.342 . S
C288 C292 1.401 . S
C288 C293 1.499 . S
N289 Co272 1.989 . S
N289 C288 1.342 . S
N289 N290 1.388 . S
N290 Co273 1.993 . S
N290 N289 1.388 . S
N290 C291 1.346 . S
C291 N290 1.346 . S
C291 C292 1.396 . S
C291 C301 1.510 . S
C292 C288 1.401 . S
C292 C291 1.396 . S
C293 C288 1.499 . S
C293 H294 0.959 . S
C293 H295 0.960 . S
C293 H296 0.961 . S
H294 C293 0.959 . S
H295 C293 0.960 . S
H296 C293 0.961 . S
O297 Co272 1.967 . S
O297 C305 1.258 . S
O298 Co273 1.941 . S
O298 C305 1.266 . S
H299 C301 0.959 . S
H300 C301 0.961 . S
C301 C291 1.510 . S
C301 H299 0.959 . S
C301 H300 0.961 . S
C301 H302 0.960 . S
H302 C301 0.960 . S
H303 N283 0.862 . S
O304 Co272 1.920 . S
O304 C277 1.289 . S
C305 O297 1.258 . S
C305 O298 1.266 . S
Co306 O309 1.970 . S
Co306 N323 1.989 . S
Co306 O331 1.967 . S
Co306 O338 1.920 . S
Co307 O310 1.966 . S
Co307 N316 2.022 . S
Co307 N324 1.993 . S
Co307 O332 1.941 . S
C308 O309 1.258 . S
C308 O310 1.263 . S
O309 Co306 1.970 . S
O309 C308 1.258 . S
O310 Co307 1.966 . S
O310 C308 1.263 . S
C311 O312 1.235 . S
C311 O338 1.289 . S
O312 C311 1.235 . S
C313 C315 1.400 . S
C313 N316 1.351 . S
C313 C318 1.501 . S
C314 C315 1.387 . S
C314 N317 1.341 . S
C315 C313 1.400 . S
C315 C314 1.387 . S
N316 Co307 2.022 . S
N316 C313 1.351 . S
N316 N317 1.365 . S
N317 C314 1.341 . S
N317 N316 1.365 . S
N317 H337 0.862 . S
C318 C313 1.501 . S
C318 H319 0.961 . S
C318 H320 0.961 . S
C318 H321 0.960 . S
H319 C318 0.961 . S
H320 C318 0.961 . S
H321 C318 0.960 . S
C322 N323 1.342 . S
C322 C326 1.401 . S
C322 C327 1.499 . S
N323 Co306 1.989 . S
N323 C322 1.342 . S
N323 N324 1.388 . S
N324 Co307 1.993 . S
N324 N323 1.388 . S
N324 C325 1.346 . S
C325 N324 1.346 . S
C325 C326 1.396 . S
C325 C335 1.510 . S
C326 C322 1.401 . S
C326 C325 1.396 . S
C327 C322 1.499 . S
C327 H328 0.959 . S
C327 H329 0.960 . S
C327 H330 0.961 . S
H328 C327 0.959 . S
H329 C327 0.960 . S
H330 C327 0.961 . S
O331 Co306 1.967 . S
O331 C339 1.258 . S
O332 Co307 1.941 . S
O332 C339 1.266 . S
H333 C335 0.959 . S
H334 C335 0.961 . S
C335 C325 1.510 . S
C335 H333 0.959 . S
C335 H334 0.961 . S
C335 H336 0.960 . S
H336 C335 0.960 . S
H337 N317 0.862 . S
O338 Co306 1.920 . S
O338 C311 1.289 . S
C339 O331 1.258 . S
C339 O332 1.266 . S
Co340 O343 1.970 . S
Co340 N357 1.989 . S
Co340 O365 1.967 . S
Co340 O372 1.920 . S
Co341 O344 1.966 . S
Co341 N350 2.022 . S
Co341 N358 1.993 . S
Co341 O366 1.941 . S
C342 O343 1.258 . S
C342 O344 1.263 . S
O343 Co340 1.970 . S
O343 C342 1.258 . S
O344 Co341 1.966 . S
O344 C342 1.263 . S
C345 O346 1.235 . S
C345 O372 1.289 . S
O346 C345 1.235 . S
C347 C349 1.400 . S
C347 N350 1.351 . S
C347 C352 1.501 . S
C348 C349 1.387 . S
C348 N351 1.341 . S
C349 C347 1.400 . S
C349 C348 1.387 . S
N350 Co341 2.022 . S
N350 C347 1.351 . S
N350 N351 1.365 . S
N351 C348 1.341 . S
N351 N350 1.365 . S
N351 H371 0.862 . S
C352 C347 1.501 . S
C352 H353 0.961 . S
C352 H354 0.961 . S
C352 H355 0.960 . S
H353 C352 0.961 . S
H354 C352 0.961 . S
H355 C352 0.960 . S
C356 N357 1.342 . S
C356 C360 1.401 . S
C356 C361 1.499 . S
N357 Co340 1.989 . S
N357 C356 1.342 . S
N357 N358 1.388 . S
N358 Co341 1.993 . S
N358 N357 1.388 . S
N358 C359 1.346 . S
C359 N358 1.346 . S
C359 C360 1.396 . S
C359 C369 1.510 . S
C360 C356 1.401 . S
C360 C359 1.396 . S
C361 C356 1.499 . S
C361 H362 0.959 . S
C361 H363 0.960 . S
C361 H364 0.961 . S
H362 C361 0.959 . S
H363 C361 0.960 . S
H364 C361 0.961 . S
O365 Co340 1.967 . S
O365 C373 1.258 . S
O366 Co341 1.941 . S
O366 C373 1.266 . S
H367 C369 0.959 . S
H368 C369 0.961 . S
C369 C359 1.510 . S
C369 H367 0.959 . S
C369 H368 0.961 . S
C369 H370 0.960 . S
H370 C369 0.960 . S
H371 N351 0.862 . S
O372 Co340 1.920 . S
O372 C345 1.289 . S
C373 O365 1.258 . S
C373 O366 1.266 . S
Co374 O377 1.970 . S
Co374 N391 1.989 . S
Co374 O399 1.967 . S
Co374 O406 1.920 . S
Co375 O378 1.966 . S
Co375 N384 2.022 . S
Co375 N392 1.993 . S
Co375 O400 1.941 . S
C376 O377 1.258 . S
C376 O378 1.263 . S
O377 Co374 1.970 . S
O377 C376 1.258 . S
O378 Co375 1.966 . S
O378 C376 1.263 . S
C379 O380 1.235 . S
C379 O406 1.289 . S
O380 C379 1.235 . S
C381 C383 1.400 . S
C381 N384 1.351 . S
C381 C386 1.501 . S
C382 C383 1.387 . S
C382 N385 1.341 . S
C383 C381 1.400 . S
C383 C382 1.387 . S
N384 Co375 2.022 . S
N384 C381 1.351 . S
N384 N385 1.365 . S
N385 C382 1.341 . S
N385 N384 1.365 . S
N385 H405 0.862 . S
C386 C381 1.501 . S
C386 H387 0.961 . S
C386 H388 0.961 . S
C386 H389 0.960 . S
H387 C386 0.961 . S
H388 C386 0.961 . S
H389 C386 0.960 . S
C390 N391 1.342 . S
C390 C394 1.401 . S
C390 C395 1.499 . S
N391 Co374 1.989 . S
N391 C390 1.342 . S
N391 N392 1.388 . S
N392 Co375 1.993 . S
N392 N391 1.388 . S
N392 C393 1.346 . S
C393 N392 1.346 . S
C393 C394 1.396 . S
C393 C403 1.510 . S
C394 C390 1.401 . S
C394 C393 1.396 . S
C395 C390 1.499 . S
C395 H396 0.959 . S
C395 H397 0.960 . S
C395 H398 0.961 . S
H396 C395 0.959 . S
H397 C395 0.960 . S
H398 C395 0.961 . S
O399 Co374 1.967 . S
O399 C407 1.258 . S
O400 Co375 1.941 . S
O400 C407 1.266 . S
H401 C403 0.959 . S
H402 C403 0.961 . S
C403 C393 1.510 . S
C403 H401 0.959 . S
C403 H402 0.961 . S
C403 H404 0.960 . S
H404 C403 0.960 . S
H405 N385 0.862 . S
O406 Co374 1.920 . S
O406 C379 1.289 . S
C407 O399 1.258 . S
C407 O400 1.266 . S
Co408 O411 1.970 . S
Co408 N425 1.989 . S
Co408 O433 1.967 . S
Co408 O440 1.920 . S
Co409 O412 1.966 . S
Co409 N418 2.022 . S
Co409 N426 1.993 . S
Co409 O434 1.941 . S
C410 O411 1.258 . S
C410 O412 1.263 . S
O411 Co408 1.970 . S
O411 C410 1.258 . S
O412 Co409 1.966 . S
O412 C410 1.263 . S
C413 O414 1.235 . S
C413 O440 1.289 . S
O414 C413 1.235 . S
C415 C417 1.400 . S
C415 N418 1.351 . S
C415 C420 1.501 . S
C416 C417 1.387 . S
C416 N419 1.341 . S
C417 C415 1.400 . S
C417 C416 1.387 . S
N418 Co409 2.022 . S
N418 C415 1.351 . S
N418 N419 1.365 . S
N419 C416 1.341 . S
N419 N418 1.365 . S
N419 H439 0.862 . S
C420 C415 1.501 . S
C420 H421 0.961 . S
C420 H422 0.961 . S
C420 H423 0.960 . S
H421 C420 0.961 . S
H422 C420 0.961 . S
H423 C420 0.960 . S
C424 N425 1.342 . S
C424 C428 1.401 . S
C424 C429 1.499 . S
N425 Co408 1.989 . S
N425 C424 1.342 . S
N425 N426 1.388 . S
N426 Co409 1.993 . S
N426 N425 1.388 . S
N426 C427 1.346 . S
C427 N426 1.346 . S
C427 C428 1.396 . S
C427 C437 1.510 . S
C428 C424 1.401 . S
C428 C427 1.396 . S
C429 C424 1.499 . S
C429 H430 0.959 . S
C429 H431 0.960 . S
C429 H432 0.961 . S
H430 C429 0.959 . S
H431 C429 0.960 . S
H432 C429 0.961 . S
O433 Co408 1.967 . S
O433 C441 1.258 . S
O434 Co409 1.941 . S
O434 C441 1.266 . S
H435 C437 0.959 . S
H436 C437 0.961 . S
C437 C427 1.510 . S
C437 H435 0.959 . S
C437 H436 0.961 . S
C437 H438 0.960 . S
H438 C437 0.960 . S
H439 N419 0.862 . S
O440 Co408 1.920 . S
O440 C413 1.289 . S
C441 O433 1.258 . S
C441 O434 1.266 . S
Co442 O445 1.970 . S
Co442 N459 1.989 . S
Co442 O467 1.967 . S
Co442 O474 1.920 . S
Co443 O446 1.966 . S
Co443 N452 2.022 . S
Co443 N460 1.993 . S
Co443 O468 1.941 . S
C444 O445 1.258 . S
C444 O446 1.263 . S
O445 Co442 1.970 . S
O445 C444 1.258 . S
O446 Co443 1.966 . S
O446 C444 1.263 . S
C447 O448 1.235 . S
C447 O474 1.289 . S
O448 C447 1.235 . S
C449 C451 1.400 . S
C449 N452 1.351 . S
C449 C454 1.501 . S
C450 C451 1.387 . S
C450 N453 1.341 . S
C451 C449 1.400 . S
C451 C450 1.387 . S
N452 Co443 2.022 . S
N452 C449 1.351 . S
N452 N453 1.365 . S
N453 C450 1.341 . S
N453 N452 1.365 . S
N453 H473 0.862 . S
C454 C449 1.501 . S
C454 H455 0.961 . S
C454 H456 0.961 . S
C454 H457 0.960 . S
H455 C454 0.961 . S
H456 C454 0.961 . S
H457 C454 0.960 . S
C458 N459 1.342 . S
C458 C462 1.401 . S
C458 C463 1.499 . S
N459 Co442 1.989 . S
N459 C458 1.342 . S
N459 N460 1.388 . S
N460 Co443 1.993 . S
N460 N459 1.388 . S
N460 C461 1.346 . S
C461 N460 1.346 . S
C461 C462 1.396 . S
C461 C471 1.510 . S
C462 C458 1.401 . S
C462 C461 1.396 . S
C463 C458 1.499 . S
C463 H464 0.959 . S
C463 H465 0.960 . S
C463 H466 0.961 . S
H464 C463 0.959 . S
H465 C463 0.960 . S
H466 C463 0.961 . S
O467 Co442 1.967 . S
O467 C475 1.258 . S
O468 Co443 1.941 . S
O468 C475 1.266 . S
H469 C471 0.959 . S
H470 C471 0.961 . S
C471 C461 1.510 . S
C471 H469 0.959 . S
C471 H470 0.961 . S
C471 H472 0.960 . S
H472 C471 0.960 . S
H473 N453 0.862 . S
O474 Co442 1.920 . S
O474 C447 1.289 . S
C475 O467 1.258 . S
C475 O468 1.266 . S
Co476 O479 1.970 . S
Co476 N493 1.989 . S
Co476 O501 1.967 . S
Co476 O508 1.920 . S
Co477 O480 1.966 . S
Co477 N486 2.022 . S
Co477 N494 1.993 . S
Co477 O502 1.941 . S
C478 O479 1.258 . S
C478 O480 1.263 . S
O479 Co476 1.970 . S
O479 C478 1.258 . S
O480 Co477 1.966 . S
O480 C478 1.263 . S
C481 O482 1.235 . S
C481 O508 1.289 . S
O482 C481 1.235 . S
C483 C485 1.400 . S
C483 N486 1.351 . S
C483 C488 1.501 . S
C484 C485 1.387 . S
C484 N487 1.341 . S
C485 C483 1.400 . S
C485 C484 1.387 . S
N486 Co477 2.022 . S
N486 C483 1.351 . S
N486 N487 1.365 . S
N487 C484 1.341 . S
N487 N486 1.365 . S
N487 H507 0.862 . S
C488 C483 1.501 . S
C488 H489 0.961 . S
C488 H490 0.961 . S
C488 H491 0.960 . S
H489 C488 0.961 . S
H490 C488 0.961 . S
H491 C488 0.960 . S
C492 N493 1.342 . S
C492 C496 1.401 . S
C492 C497 1.499 . S
N493 Co476 1.989 . S
N493 C492 1.342 . S
N493 N494 1.388 . S
N494 Co477 1.993 . S
N494 N493 1.388 . S
N494 C495 1.346 . S
C495 N494 1.346 . S
C495 C496 1.396 . S
C495 C505 1.510 . S
C496 C492 1.401 . S
C496 C495 1.396 . S
C497 C492 1.499 . S
C497 H498 0.959 . S
C497 H499 0.960 . S
C497 H500 0.961 . S
H498 C497 0.959 . S
H499 C497 0.960 . S
H500 C497 0.961 . S
O501 Co476 1.967 . S
O501 C509 1.258 . S
O502 Co477 1.941 . S
O502 C509 1.266 . S
H503 C505 0.959 . S
H504 C505 0.961 . S
C505 C495 1.510 . S
C505 H503 0.959 . S
C505 H504 0.961 . S
C505 H506 0.960 . S
H506 C505 0.960 . S
H507 N487 0.862 . S
O508 Co476 1.920 . S
O508 C481 1.289 . S
C509 O501 1.258 . S
C509 O502 1.266 . S
Co510 O513 1.970 . S
Co510 N527 1.989 . S
Co510 O535 1.967 . S
Co510 O542 1.920 . S
Co511 O514 1.966 . S
Co511 N520 2.022 . S
Co511 N528 1.993 . S
Co511 O536 1.941 . S
C512 O513 1.258 . S
C512 O514 1.263 . S
O513 Co510 1.970 . S
O513 C512 1.258 . S
O514 Co511 1.966 . S
O514 C512 1.263 . S
C515 O516 1.235 . S
C515 O542 1.289 . S
O516 C515 1.235 . S
C517 C519 1.400 . S
C517 N520 1.351 . S
C517 C522 1.501 . S
C518 C519 1.387 . S
C518 N521 1.341 . S
C519 C517 1.400 . S
C519 C518 1.387 . S
N520 Co511 2.022 . S
N520 C517 1.351 . S
N520 N521 1.365 . S
N521 C518 1.341 . S
N521 N520 1.365 . S
N521 H541 0.862 . S
C522 C517 1.501 . S
C522 H523 0.961 . S
C522 H524 0.961 . S
C522 H525 0.960 . S
H523 C522 0.961 . S
H524 C522 0.961 . S
H525 C522 0.960 . S
C526 N527 1.342 . S
C526 C530 1.401 . S
C526 C531 1.499 . S
N527 Co510 1.989 . S
N527 C526 1.342 . S
N527 N528 1.388 . S
N528 Co511 1.993 . S
N528 N527 1.388 . S
N528 C529 1.346 . S
C529 N528 1.346 . S
C529 C530 1.396 . S
C529 C539 1.510 . S
C530 C526 1.401 . S
C530 C529 1.396 . S
C531 C526 1.499 . S
C531 H532 0.959 . S
C531 H533 0.960 . S
C531 H534 0.961 . S
H532 C531 0.959 . S
H533 C531 0.960 . S
H534 C531 0.961 . S
O535 Co510 1.967 . S
O535 C543 1.258 . S
O536 Co511 1.941 . S
O536 C543 1.266 . S
H537 C539 0.959 . S
H538 C539 0.961 . S
C539 C529 1.510 . S
C539 H537 0.959 . S
C539 H538 0.961 . S
C539 H540 0.960 . S
H540 C539 0.960 . S
H541 N521 0.862 . S
O542 Co510 1.920 . S
O542 C515 1.289 . S
C543 O535 1.258 . S
C543 O536 1.266 . S
Co544 O547 1.970 . S
Co544 N561 1.989 . S
Co544 O569 1.967 . S
Co544 O576 1.920 . S
Co545 O548 1.966 . S
Co545 N554 2.022 . S
Co545 N562 1.993 . S
Co545 O570 1.941 . S
C546 O547 1.258 . S
C546 O548 1.263 . S
O547 Co544 1.970 . S
O547 C546 1.258 . S
O548 Co545 1.966 . S
O548 C546 1.263 . S
C549 O550 1.235 . S
C549 O576 1.289 . S
O550 C549 1.235 . S
C551 C553 1.400 . S
C551 N554 1.351 . S
C551 C556 1.501 . S
C552 C553 1.387 . S
C552 N555 1.341 . S
C553 C551 1.400 . S
C553 C552 1.387 . S
N554 Co545 2.022 . S
N554 C551 1.351 . S
N554 N555 1.365 . S
N555 C552 1.341 . S
N555 N554 1.365 . S
N555 H575 0.862 . S
C556 C551 1.501 . S
C556 H557 0.961 . S
C556 H558 0.961 . S
C556 H559 0.960 . S
H557 C556 0.961 . S
H558 C556 0.961 . S
H559 C556 0.960 . S
C560 N561 1.342 . S
C560 C564 1.401 . S
C560 C565 1.499 . S
N561 Co544 1.989 . S
N561 C560 1.342 . S
N561 N562 1.388 . S
N562 Co545 1.993 . S
N562 N561 1.388 . S
N562 C563 1.346 . S
C563 N562 1.346 . S
C563 C564 1.396 . S
C563 C573 1.510 . S
C564 C560 1.401 . S
C564 C563 1.396 . S
C565 C560 1.499 . S
C565 H566 0.959 . S
C565 H567 0.960 . S
C565 H568 0.961 . S
H566 C565 0.959 . S
H567 C565 0.960 . S
H568 C565 0.961 . S
O569 Co544 1.967 . S
O569 C577 1.258 . S
O570 Co545 1.941 . S
O570 C577 1.266 . S
H571 C573 0.959 . S
H572 C573 0.961 . S
C573 C563 1.510 . S
C573 H571 0.959 . S
C573 H572 0.961 . S
C573 H574 0.960 . S
H574 C573 0.960 . S
H575 N555 0.862 . S
O576 Co544 1.920 . S
O576 C549 1.289 . S
C577 O569 1.258 . S
C577 O570 1.266 . S
Co578 O581 1.970 . S
Co578 N595 1.989 . S
Co578 O603 1.967 . S
Co578 O610 1.920 . S
Co579 O582 1.966 . S
Co579 N588 2.022 . S
Co579 N596 1.993 . S
Co579 O604 1.941 . S
C580 O581 1.258 . S
C580 O582 1.263 . S
O581 Co578 1.970 . S
O581 C580 1.258 . S
O582 Co579 1.966 . S
O582 C580 1.263 . S
C583 O584 1.235 . S
C583 O610 1.289 . S
O584 C583 1.235 . S
C585 C587 1.400 . S
C585 N588 1.351 . S
C585 C590 1.501 . S
C586 C587 1.387 . S
C586 N589 1.341 . S
C587 C585 1.400 . S
C587 C586 1.387 . S
N588 Co579 2.022 . S
N588 C585 1.351 . S
N588 N589 1.365 . S
N589 C586 1.341 . S
N589 N588 1.365 . S
N589 H609 0.862 . S
C590 C585 1.501 . S
C590 H591 0.961 . S
C590 H592 0.961 . S
C590 H593 0.960 . S
H591 C590 0.961 . S
H592 C590 0.961 . S
H593 C590 0.960 . S
C594 N595 1.342 . S
C594 C598 1.401 . S
C594 C599 1.499 . S
N595 Co578 1.989 . S
N595 C594 1.342 . S
N595 N596 1.388 . S
N596 Co579 1.993 . S
N596 N595 1.388 . S
N596 C597 1.346 . S
C597 N596 1.346 . S
C597 C598 1.396 . S
C597 C607 1.510 . S
C598 C594 1.401 . S
C598 C597 1.396 . S
C599 C594 1.499 . S
C599 H600 0.959 . S
C599 H601 0.960 . S
C599 H602 0.961 . S
H600 C599 0.959 . S
H601 C599 0.960 . S
H602 C599 0.961 . S
O603 Co578 1.967 . S
O603 C611 1.258 . S
O604 Co579 1.941 . S
O604 C611 1.266 . S
H605 C607 0.959 . S
H606 C607 0.961 . S
C607 C597 1.510 . S
C607 H605 0.959 . S
C607 H606 0.961 . S
C607 H608 0.960 . S
H608 C607 0.960 . S
H609 N589 0.862 . S
O610 Co578 1.920 . S
O610 C583 1.289 . S
C611 O603 1.258 . S
C611 O604 1.266 . S
Co612 O615 1.970 . S
Co612 N629 1.989 . S
Co612 O637 1.967 . S
Co612 O644 1.920 . S
Co613 O616 1.966 . S
Co613 N622 2.022 . S
Co613 N630 1.993 . S
Co613 O638 1.941 . S
C614 O615 1.258 . S
C614 O616 1.263 . S
O615 Co612 1.970 . S
O615 C614 1.258 . S
O616 Co613 1.966 . S
O616 C614 1.263 . S
C617 O618 1.235 . S
C617 O644 1.289 . S
O618 C617 1.235 . S
C619 C621 1.400 1_554 S
C619 N622 1.351 . S
C619 C624 1.501 . S
C620 C621 1.387 1_554 S
C620 N623 1.341 . S
C621 C619 1.400 1_556 S
C621 C620 1.387 1_556 S
N622 Co613 2.022 . S
N622 C619 1.351 . S
N622 N623 1.365 . S
N623 C620 1.341 . S
N623 N622 1.365 . S
N623 H643 0.862 . S
C624 C619 1.501 . S
C624 H625 0.961 . S
C624 H626 0.961 . S
C624 H627 0.960 . S
H625 C624 0.961 . S
H626 C624 0.961 . S
H627 C624 0.960 . S
C628 N629 1.342 . S
C628 C632 1.401 . S
C628 C633 1.499 . S
N629 Co612 1.989 . S
N629 C628 1.342 . S
N629 N630 1.388 . S
N630 Co613 1.993 . S
N630 N629 1.388 . S
N630 C631 1.346 . S
C631 N630 1.346 . S
C631 C632 1.396 . S
C631 C641 1.510 . S
C632 C628 1.401 . S
C632 C631 1.396 . S
C633 C628 1.499 . S
C633 H634 0.959 . S
C633 H635 0.960 . S
C633 H636 0.961 . S
H634 C633 0.959 . S
H635 C633 0.960 . S
H636 C633 0.961 . S
O637 Co612 1.967 . S
O637 C645 1.258 . S
O638 Co613 1.941 . S
O638 C645 1.266 . S
H639 C641 0.959 . S
H640 C641 0.961 . S
C641 C631 1.510 . S
C641 H639 0.959 . S
C641 H640 0.961 . S
C641 H642 0.960 . S
H642 C641 0.960 . S
H643 N623 0.862 . S
O644 Co612 1.920 . S
O644 C617 1.289 . S
C645 O637 1.258 . S
C645 O638 1.266 . S
Co646 O649 1.970 . S
Co646 N663 1.989 . S
Co646 O671 1.967 . S
Co646 O678 1.920 . S
Co647 O650 1.966 . S
Co647 N656 2.022 . S
Co647 N664 1.993 . S
Co647 O672 1.941 . S
C648 O649 1.258 . S
C648 O650 1.263 . S
O649 Co646 1.970 . S
O649 C648 1.258 . S
O650 Co647 1.966 . S
O650 C648 1.263 . S
C651 O652 1.235 . S
C651 O678 1.289 . S
O652 C651 1.235 . S
C653 C655 1.400 1_554 S
C653 N656 1.351 . S
C653 C658 1.501 . S
C654 C655 1.387 1_554 S
C654 N657 1.341 . S
C655 C653 1.400 1_556 S
C655 C654 1.387 1_556 S
N656 Co647 2.022 . S
N656 C653 1.351 . S
N656 N657 1.365 . S
N657 C654 1.341 . S
N657 N656 1.365 . S
N657 H677 0.862 . S
C658 C653 1.501 . S
C658 H659 0.961 . S
C658 H660 0.961 . S
C658 H661 0.960 . S
H659 C658 0.961 . S
H660 C658 0.961 . S
H661 C658 0.960 . S
C662 N663 1.342 . S
C662 C666 1.401 . S
C662 C667 1.499 . S
N663 Co646 1.989 . S
N663 C662 1.342 . S
N663 N664 1.388 . S
N664 Co647 1.993 . S
N664 N663 1.388 . S
N664 C665 1.346 . S
C665 N664 1.346 . S
C665 C666 1.396 . S
C665 C675 1.510 . S
C666 C662 1.401 . S
C666 C665 1.396 . S
C667 C662 1.499 . S
C667 H668 0.959 . S
C667 H669 0.960 . S
C667 H670 0.961 . S
H668 C667 0.959 . S
H669 C667 0.960 . S
H670 C667 0.961 . S
O671 Co646 1.967 . S
O671 C679 1.258 . S
O672 Co647 1.941 . S
O672 C679 1.266 . S
H673 C675 0.959 . S
H674 C675 0.961 . S
C675 C665 1.510 . S
C675 H673 0.959 . S
C675 H674 0.961 . S
C675 H676 0.960 . S
H676 C675 0.960 . S
H677 N657 0.862 . S
O678 Co646 1.920 . S
O678 C651 1.289 . S
C679 O671 1.258 . S
C679 O672 1.266 . S
Co680 O683 1.970 . S
Co680 N697 1.989 . S
Co680 O705 1.967 . S
Co680 O712 1.920 . S
Co681 O684 1.966 . S
Co681 N690 2.022 . S
Co681 N698 1.993 . S
Co681 O706 1.941 . S
C682 O683 1.258 . S
C682 O684 1.263 . S
O683 Co680 1.970 . S
O683 C682 1.258 . S
O684 Co681 1.966 . S
O684 C682 1.263 . S
C685 O686 1.235 . S
C685 O712 1.289 . S
O686 C685 1.235 . S
C687 C689 1.400 1_554 S
C687 N690 1.351 . S
C687 C692 1.501 . S
C688 C689 1.387 1_554 S
C688 N691 1.341 . S
C689 C687 1.400 1_556 S
C689 C688 1.387 1_556 S
N690 Co681 2.022 . S
N690 C687 1.351 . S
N690 N691 1.365 . S
N691 C688 1.341 . S
N691 N690 1.365 . S
N691 H711 0.862 . S
C692 C687 1.501 . S
C692 H693 0.961 . S
C692 H694 0.961 . S
C692 H695 0.960 . S
H693 C692 0.961 . S
H694 C692 0.961 . S
H695 C692 0.960 . S
C696 N697 1.342 . S
C696 C700 1.401 . S
C696 C701 1.499 . S
N697 Co680 1.989 . S
N697 C696 1.342 . S
N697 N698 1.388 . S
N698 Co681 1.993 . S
N698 N697 1.388 . S
N698 C699 1.346 . S
C699 N698 1.346 . S
C699 C700 1.396 . S
C699 C709 1.510 . S
C700 C696 1.401 . S
C700 C699 1.396 . S
C701 C696 1.499 . S
C701 H702 0.959 . S
C701 H703 0.960 . S
C701 H704 0.961 . S
H702 C701 0.959 . S
H703 C701 0.960 . S
H704 C701 0.961 . S
O705 Co680 1.967 . S
O705 C713 1.258 . S
O706 Co681 1.941 . S
O706 C713 1.266 . S
H707 C709 0.959 . S
H708 C709 0.961 . S
C709 C699 1.510 . S
C709 H707 0.959 . S
C709 H708 0.961 . S
C709 H710 0.960 . S
H710 C709 0.960 . S
H711 N691 0.862 . S
O712 Co680 1.920 . S
O712 C685 1.289 . S
C713 O705 1.258 . S
C713 O706 1.266 . S
Co714 O717 1.970 . S
Co714 N731 1.989 . S
Co714 O739 1.967 . S
Co714 O746 1.920 . S
Co715 O718 1.966 . S
Co715 N724 2.022 . S
Co715 N732 1.993 . S
Co715 O740 1.941 1_554 S
C716 O717 1.258 1_554 S
C716 O718 1.263 . S
O717 Co714 1.970 . S
O717 C716 1.258 1_556 S
O718 Co715 1.966 . S
O718 C716 1.263 . S
C719 O720 1.235 . S
C719 O746 1.289 . S
O720 C719 1.235 . S
C721 C723 1.400 . S
C721 N724 1.351 . S
C721 C726 1.501 . S
C722 C723 1.387 . S
C722 N725 1.341 . S
C723 C721 1.400 . S
C723 C722 1.387 . S
N724 Co715 2.022 . S
N724 C721 1.351 . S
N724 N725 1.365 . S
N725 C722 1.341 . S
N725 N724 1.365 . S
N725 H745 0.862 . S
C726 C721 1.501 . S
C726 H727 0.961 . S
C726 H728 0.961 . S
C726 H729 0.960 . S
H727 C726 0.961 . S
H728 C726 0.961 . S
H729 C726 0.960 . S
C730 N731 1.342 . S
C730 C734 1.401 1_556 S
C730 C735 1.499 . S
N731 Co714 1.989 . S
N731 C730 1.342 . S
N731 N732 1.388 1_556 S
N732 Co715 1.993 . S
N732 N731 1.388 1_554 S
N732 C733 1.346 . S
C733 N732 1.346 . S
C733 C734 1.396 . S
C733 C743 1.510 . S
C734 C730 1.401 1_554 S
C734 C733 1.396 . S
C735 C730 1.499 . S
C735 H736 0.959 . S
C735 H737 0.960 . S
C735 H738 0.961 . S
H736 C735 0.959 . S
H737 C735 0.960 . S
H738 C735 0.961 . S
O739 Co714 1.967 . S
O739 C747 1.258 . S
O740 Co715 1.941 1_556 S
O740 C747 1.266 . S
H741 C743 0.959 . S
H742 C743 0.961 . S
C743 C733 1.510 . S
C743 H741 0.959 . S
C743 H742 0.961 . S
C743 H744 0.960 . S
H744 C743 0.960 . S
H745 N725 0.862 . S
O746 Co714 1.920 . S
O746 C719 1.289 . S
C747 O739 1.258 . S
C747 O740 1.266 . S
Co748 O751 1.970 . S
Co748 N765 1.989 . S
Co748 O773 1.967 . S
Co748 O780 1.920 . S
Co749 O752 1.966 . S
Co749 N758 2.022 . S
Co749 N766 1.993 . S
Co749 O774 1.941 1_554 S
C750 O751 1.258 1_554 S
C750 O752 1.263 . S
O751 Co748 1.970 . S
O751 C750 1.258 1_556 S
O752 Co749 1.966 . S
O752 C750 1.263 . S
C753 O754 1.235 . S
C753 O780 1.289 . S
O754 C753 1.235 . S
C755 C757 1.400 . S
C755 N758 1.351 . S
C755 C760 1.501 . S
C756 C757 1.387 . S
C756 N759 1.341 . S
C757 C755 1.400 . S
C757 C756 1.387 . S
N758 Co749 2.022 . S
N758 C755 1.351 . S
N758 N759 1.365 . S
N759 C756 1.341 . S
N759 N758 1.365 . S
N759 H779 0.862 . S
C760 C755 1.501 . S
C760 H761 0.961 . S
C760 H762 0.961 . S
C760 H763 0.960 . S
H761 C760 0.961 . S
H762 C760 0.961 . S
H763 C760 0.960 . S
C764 N765 1.342 . S
C764 C768 1.401 1_556 S
C764 C769 1.499 . S
N765 Co748 1.989 . S
N765 C764 1.342 . S
N765 N766 1.388 1_556 S
N766 Co749 1.993 . S
N766 N765 1.388 1_554 S
N766 C767 1.346 . S
C767 N766 1.346 . S
C767 C768 1.396 . S
C767 C777 1.510 . S
C768 C764 1.401 1_554 S
C768 C767 1.396 . S
C769 C764 1.499 . S
C769 H770 0.959 . S
C769 H771 0.960 . S
C769 H772 0.961 . S
H770 C769 0.959 . S
H771 C769 0.960 . S
H772 C769 0.961 . S
O773 Co748 1.967 . S
O773 C781 1.258 . S
O774 Co749 1.941 1_556 S
O774 C781 1.266 . S
H775 C777 0.959 . S
H776 C777 0.961 . S
C777 C767 1.510 . S
C777 H775 0.959 . S
C777 H776 0.961 . S
C777 H778 0.960 . S
H778 C777 0.960 . S
H779 N759 0.862 . S
O780 Co748 1.920 . S
O780 C753 1.289 . S
C781 O773 1.258 . S
C781 O774 1.266 . S
Co782 O785 1.970 . S
Co782 N799 1.989 . S
Co782 O807 1.967 . S
Co782 O814 1.920 . S
Co783 O786 1.966 . S
Co783 N792 2.022 . S
Co783 N800 1.993 . S
Co783 O808 1.941 1_554 S
C784 O785 1.258 1_554 S
C784 O786 1.263 . S
O785 Co782 1.970 . S
O785 C784 1.258 1_556 S
O786 Co783 1.966 . S
O786 C784 1.263 . S
C787 O788 1.235 . S
C787 O814 1.289 . S
O788 C787 1.235 . S
C789 C791 1.400 . S
C789 N792 1.351 . S
C789 C794 1.501 . S
C790 C791 1.387 . S
C790 N793 1.341 . S
C791 C789 1.400 . S
C791 C790 1.387 . S
N792 Co783 2.022 . S
N792 C789 1.351 . S
N792 N793 1.365 . S
N793 C790 1.341 . S
N793 N792 1.365 . S
N793 H813 0.862 . S
C794 C789 1.501 . S
C794 H795 0.961 . S
C794 H796 0.961 . S
C794 H797 0.960 . S
H795 C794 0.961 . S
H796 C794 0.961 . S
H797 C794 0.960 . S
C798 N799 1.342 . S
C798 C802 1.401 1_556 S
C798 C803 1.499 . S
N799 Co782 1.989 . S
N799 C798 1.342 . S
N799 N800 1.388 1_556 S
N800 Co783 1.993 . S
N800 N799 1.388 1_554 S
N800 C801 1.346 . S
C801 N800 1.346 . S
C801 C802 1.396 . S
C801 C811 1.510 . S
C802 C798 1.401 1_554 S
C802 C801 1.396 . S
C803 C798 1.499 . S
C803 H804 0.959 . S
C803 H805 0.960 . S
C803 H806 0.961 . S
H804 C803 0.959 . S
H805 C803 0.960 . S
H806 C803 0.961 . S
O807 Co782 1.967 . S
O807 C815 1.258 . S
O808 Co783 1.941 1_556 S
O808 C815 1.266 . S
H809 C811 0.959 . S
H810 C811 0.961 . S
C811 C801 1.510 . S
C811 H809 0.959 . S
C811 H810 0.961 . S
C811 H812 0.960 . S
H812 C811 0.960 . S
H813 N793 0.862 . S
O814 Co782 1.920 . S
O814 C787 1.289 . S
C815 O807 1.258 . S
C815 O808 1.266 . S
Co816 O819 1.970 . S
Co816 N833 1.989 . S
Co816 O841 1.967 . S
Co816 O848 1.920 . S
Co817 O820 1.966 . S
Co817 N826 2.022 . S
Co817 N834 1.993 . S
Co817 O842 1.941 . S
C818 O819 1.258 . S
C818 O820 1.263 . S
O819 Co816 1.970 . S
O819 C818 1.258 . S
O820 Co817 1.966 . S
O820 C818 1.263 . S
C821 O822 1.235 . S
C821 O848 1.289 . S
O822 C821 1.235 . S
C823 C825 1.400 1_556 S
C823 N826 1.351 . S
C823 C828 1.501 . S
C824 C825 1.387 1_556 S
C824 N827 1.341 . S
C825 C823 1.400 1_554 S
C825 C824 1.387 1_554 S
N826 Co817 2.022 . S
N826 C823 1.351 . S
N826 N827 1.365 . S
N827 C824 1.341 . S
N827 N826 1.365 . S
N827 H847 0.862 . S
C828 C823 1.501 . S
C828 H829 0.961 . S
C828 H830 0.961 . S
C828 H831 0.960 . S
H829 C828 0.961 . S
H830 C828 0.961 . S
H831 C828 0.960 . S
C832 N833 1.342 . S
C832 C836 1.401 . S
C832 C837 1.499 . S
N833 Co816 1.989 . S
N833 C832 1.342 . S
N833 N834 1.388 . S
N834 Co817 1.993 . S
N834 N833 1.388 . S
N834 C835 1.346 . S
C835 N834 1.346 . S
C835 C836 1.396 . S
C835 C845 1.510 . S
C836 C832 1.401 . S
C836 C835 1.396 . S
C837 C832 1.499 . S
C837 H838 0.959 . S
C837 H839 0.960 . S
C837 H840 0.961 . S
H838 C837 0.959 . S
H839 C837 0.960 . S
H840 C837 0.961 . S
O841 Co816 1.967 . S
O841 C849 1.258 . S
O842 Co817 1.941 . S
O842 C849 1.266 . S
H843 C845 0.959 . S
H844 C845 0.961 . S
C845 C835 1.510 . S
C845 H843 0.959 . S
C845 H844 0.961 . S
C845 H846 0.960 . S
H846 C845 0.960 . S
H847 N827 0.862 . S
O848 Co816 1.920 . S
O848 C821 1.289 . S
C849 O841 1.258 . S
C849 O842 1.266 . S
Co850 O853 1.970 . S
Co850 N867 1.989 . S
Co850 O875 1.967 . S
Co850 O882 1.920 . S
Co851 O854 1.966 . S
Co851 N860 2.022 . S
Co851 N868 1.993 . S
Co851 O876 1.941 . S
C852 O853 1.258 . S
C852 O854 1.263 . S
O853 Co850 1.970 . S
O853 C852 1.258 . S
O854 Co851 1.966 . S
O854 C852 1.263 . S
C855 O856 1.235 . S
C855 O882 1.289 . S
O856 C855 1.235 . S
C857 C859 1.400 1_556 S
C857 N860 1.351 . S
C857 C862 1.501 . S
C858 C859 1.387 1_556 S
C858 N861 1.341 . S
C859 C857 1.400 1_554 S
C859 C858 1.387 1_554 S
N860 Co851 2.022 . S
N860 C857 1.351 . S
N860 N861 1.365 . S
N861 C858 1.341 . S
N861 N860 1.365 . S
N861 H881 0.862 . S
C862 C857 1.501 . S
C862 H863 0.961 . S
C862 H864 0.961 . S
C862 H865 0.960 . S
H863 C862 0.961 . S
H864 C862 0.961 . S
H865 C862 0.960 . S
C866 N867 1.342 . S
C866 C870 1.401 . S
C866 C871 1.499 . S
N867 Co850 1.989 . S
N867 C866 1.342 . S
N867 N868 1.388 . S
N868 Co851 1.993 . S
N868 N867 1.388 . S
N868 C869 1.346 . S
C869 N868 1.346 . S
C869 C870 1.396 . S
C869 C879 1.510 . S
C870 C866 1.401 . S
C870 C869 1.396 . S
C871 C866 1.499 . S
C871 H872 0.959 . S
C871 H873 0.960 . S
C871 H874 0.961 . S
H872 C871 0.959 . S
H873 C871 0.960 . S
H874 C871 0.961 . S
O875 Co850 1.967 . S
O875 C883 1.258 . S
O876 Co851 1.941 . S
O876 C883 1.266 . S
H877 C879 0.959 . S
H878 C879 0.961 . S
C879 C869 1.510 . S
C879 H877 0.959 . S
C879 H878 0.961 . S
C879 H880 0.960 . S
H880 C879 0.960 . S
H881 N861 0.862 . S
O882 Co850 1.920 . S
O882 C855 1.289 . S
C883 O875 1.258 . S
C883 O876 1.266 . S
Co884 O887 1.970 . S
Co884 N901 1.989 . S
Co884 O909 1.967 . S
Co884 O916 1.920 . S
Co885 O888 1.966 . S
Co885 N894 2.022 . S
Co885 N902 1.993 . S
Co885 O910 1.941 . S
C886 O887 1.258 . S
C886 O888 1.263 . S
O887 Co884 1.970 . S
O887 C886 1.258 . S
O888 Co885 1.966 . S
O888 C886 1.263 . S
C889 O890 1.235 . S
C889 O916 1.289 . S
O890 C889 1.235 . S
C891 C893 1.400 1_556 S
C891 N894 1.351 . S
C891 C896 1.501 . S
C892 C893 1.387 1_556 S
C892 N895 1.341 . S
C893 C891 1.400 1_554 S
C893 C892 1.387 1_554 S
N894 Co885 2.022 . S
N894 C891 1.351 . S
N894 N895 1.365 . S
N895 C892 1.341 . S
N895 N894 1.365 . S
N895 H915 0.862 . S
C896 C891 1.501 . S
C896 H897 0.961 . S
C896 H898 0.961 . S
C896 H899 0.960 . S
H897 C896 0.961 . S
H898 C896 0.961 . S
H899 C896 0.960 . S
C900 N901 1.342 . S
C900 C904 1.401 . S
C900 C905 1.499 . S
N901 Co884 1.989 . S
N901 C900 1.342 . S
N901 N902 1.388 . S
N902 Co885 1.993 . S
N902 N901 1.388 . S
N902 C903 1.346 . S
C903 N902 1.346 . S
C903 C904 1.396 . S
C903 C913 1.510 . S
C904 C900 1.401 . S
C904 C903 1.396 . S
C905 C900 1.499 . S
C905 H906 0.959 . S
C905 H907 0.960 . S
C905 H908 0.961 . S
H906 C905 0.959 . S
H907 C905 0.960 . S
H908 C905 0.961 . S
O909 Co884 1.967 . S
O909 C917 1.258 . S
O910 Co885 1.941 . S
O910 C917 1.266 . S
H911 C913 0.959 . S
H912 C913 0.961 . S
C913 C903 1.510 . S
C913 H911 0.959 . S
C913 H912 0.961 . S
C913 H914 0.960 . S
H914 C913 0.960 . S
H915 N895 0.862 . S
O916 Co884 1.920 . S
O916 C889 1.289 . S
C917 O909 1.258 . S
C917 O910 1.266 . S
Co918 O921 1.970 . S
Co918 N935 1.989 . S
Co918 O943 1.967 . S
Co918 O950 1.920 . S
Co919 O922 1.966 . S
Co919 N928 2.022 . S
Co919 N936 1.993 . S
Co919 O944 1.941 1_556 S
C920 O921 1.258 1_556 S
C920 O922 1.263 . S
O921 Co918 1.970 . S
O921 C920 1.258 1_554 S
O922 Co919 1.966 . S
O922 C920 1.263 . S
C923 O924 1.235 . S
C923 O950 1.289 . S
O924 C923 1.235 . S
C925 C927 1.400 . S
C925 N928 1.351 . S
C925 C930 1.501 . S
C926 C927 1.387 . S
C926 N929 1.341 . S
C927 C925 1.400 . S
C927 C926 1.387 . S
N928 Co919 2.022 . S
N928 C925 1.351 . S
N928 N929 1.365 . S
N929 C926 1.341 . S
N929 N928 1.365 . S
N929 H949 0.862 . S
C930 C925 1.501 . S
C930 H931 0.961 . S
C930 H932 0.961 . S
C930 H933 0.960 . S
H931 C930 0.961 . S
H932 C930 0.961 . S
H933 C930 0.960 . S
C934 N935 1.342 . S
C934 C938 1.401 1_554 S
C934 C939 1.499 . S
N935 Co918 1.989 . S
N935 C934 1.342 . S
N935 N936 1.388 1_554 S
N936 Co919 1.993 . S
N936 N935 1.388 1_556 S
N936 C937 1.346 . S
C937 N936 1.346 . S
C937 C938 1.396 . S
C937 C947 1.510 . S
C938 C934 1.401 1_556 S
C938 C937 1.396 . S
C939 C934 1.499 . S
C939 H940 0.959 . S
C939 H941 0.960 . S
C939 H942 0.961 . S
H940 C939 0.959 . S
H941 C939 0.960 . S
H942 C939 0.961 . S
O943 Co918 1.967 . S
O943 C951 1.258 . S
O944 Co919 1.941 1_554 S
O944 C951 1.266 . S
H945 C947 0.959 . S
H946 C947 0.961 . S
C947 C937 1.510 . S
C947 H945 0.959 . S
C947 H946 0.961 . S
C947 H948 0.960 . S
H948 C947 0.960 . S
H949 N929 0.862 . S
O950 Co918 1.920 . S
O950 C923 1.289 . S
C951 O943 1.258 . S
C951 O944 1.266 . S
Co952 O955 1.970 . S
Co952 N969 1.989 . S
Co952 O977 1.967 . S
Co952 O984 1.920 . S
Co953 O956 1.966 . S
Co953 N962 2.022 . S
Co953 N970 1.993 . S
Co953 O978 1.941 1_556 S
C954 O955 1.258 1_556 S
C954 O956 1.263 . S
O955 Co952 1.970 . S
O955 C954 1.258 1_554 S
O956 Co953 1.966 . S
O956 C954 1.263 . S
C957 O958 1.235 . S
C957 O984 1.289 . S
O958 C957 1.235 . S
C959 C961 1.400 . S
C959 N962 1.351 . S
C959 C964 1.501 . S
C960 C961 1.387 . S
C960 N963 1.341 . S
C961 C959 1.400 . S
C961 C960 1.387 . S
N962 Co953 2.022 . S
N962 C959 1.351 . S
N962 N963 1.365 . S
N963 C960 1.341 . S
N963 N962 1.365 . S
N963 H983 0.862 . S
C964 C959 1.501 . S
C964 H965 0.961 . S
C964 H966 0.961 . S
C964 H967 0.960 . S
H965 C964 0.961 . S
H966 C964 0.961 . S
H967 C964 0.960 . S
C968 N969 1.342 . S
C968 C972 1.401 1_554 S
C968 C973 1.499 . S
N969 Co952 1.989 . S
N969 C968 1.342 . S
N969 N970 1.388 1_554 S
N970 Co953 1.993 . S
N970 N969 1.388 1_556 S
N970 C971 1.346 . S
C971 N970 1.346 . S
C971 C972 1.396 . S
C971 C981 1.510 . S
C972 C968 1.401 1_556 S
C972 C971 1.396 . S
C973 C968 1.499 . S
C973 H974 0.959 . S
C973 H975 0.960 . S
C973 H976 0.961 . S
H974 C973 0.959 . S
H975 C973 0.960 . S
H976 C973 0.961 . S
O977 Co952 1.967 . S
O977 C985 1.258 . S
O978 Co953 1.941 1_554 S
O978 C985 1.266 . S
H979 C981 0.959 . S
H980 C981 0.961 . S
C981 C971 1.510 . S
C981 H979 0.959 . S
C981 H980 0.961 . S
C981 H982 0.960 . S
H982 C981 0.960 . S
H983 N963 0.862 . S
O984 Co952 1.920 . S
O984 C957 1.289 . S
C985 O977 1.258 . S
C985 O978 1.266 . S
Co986 O989 1.970 . S
Co986 N1003 1.989 . S
Co986 O1011 1.967 . S
Co986 O1018 1.920 . S
Co987 O990 1.966 . S
Co987 N996 2.022 . S
Co987 N1004 1.993 . S
Co987 O1012 1.941 1_556 S
C988 O989 1.258 1_556 S
C988 O990 1.263 . S
O989 Co986 1.970 . S
O989 C988 1.258 1_554 S
O990 Co987 1.966 . S
O990 C988 1.263 . S
C991 O992 1.235 . S
C991 O1018 1.289 . S
O992 C991 1.235 . S
C993 C995 1.400 . S
C993 N996 1.351 . S
C993 C998 1.501 . S
C994 C995 1.387 . S
C994 N997 1.341 . S
C995 C993 1.400 . S
C995 C994 1.387 . S
N996 Co987 2.022 . S
N996 C993 1.351 . S
N996 N997 1.365 . S
N997 C994 1.341 . S
N997 N996 1.365 . S
N997 H1017 0.862 . S
C998 C993 1.501 . S
C998 H999 0.961 . S
C998 H1000 0.961 . S
C998 H1001 0.960 . S
H999 C998 0.961 . S
H1000 C998 0.961 . S
H1001 C998 0.960 . S
C1002 N1003 1.342 . S
C1002 C1006 1.401 1_554 S
C1002 C1007 1.499 . S
N1003 Co986 1.989 . S
N1003 C1002 1.342 . S
N1003 N1004 1.388 1_554 S
N1004 Co987 1.993 . S
N1004 N1003 1.388 1_556 S
N1004 C1005 1.346 . S
C1005 N1004 1.346 . S
C1005 C1006 1.396 . S
C1005 C1015 1.510 . S
C1006 C1002 1.401 1_556 S
C1006 C1005 1.396 . S
C1007 C1002 1.499 . S
C1007 H1008 0.959 . S
C1007 H1009 0.960 . S
C1007 H1010 0.961 . S
H1008 C1007 0.959 . S
H1009 C1007 0.960 . S
H1010 C1007 0.961 . S
O1011 Co986 1.967 . S
O1011 C1019 1.258 . S
O1012 Co987 1.941 1_554 S
O1012 C1019 1.266 . S
H1013 C1015 0.959 . S
H1014 C1015 0.961 . S
C1015 C1005 1.510 . S
C1015 H1013 0.959 . S
C1015 H1014 0.961 . S
C1015 H1016 0.960 . S
H1016 C1015 0.960 . S
H1017 N997 0.862 . S
O1018 Co986 1.920 . S
O1018 C991 1.289 . S
C1019 O1011 1.258 . S
C1019 O1012 1.266 . S
Co1020 O1023 1.970 . S
Co1020 N1037 1.989 . S
Co1020 O1045 1.967 . S
Co1020 O1052 1.920 . S
Co1021 O1024 1.966 . S
Co1021 N1030 2.022 . S
Co1021 N1038 1.993 . S
Co1021 O1046 1.941 . S
C1022 O1023 1.258 . S
C1022 O1024 1.263 . S
O1023 Co1020 1.970 . S
O1023 C1022 1.258 . S
O1024 Co1021 1.966 . S
O1024 C1022 1.263 . S
C1025 O1026 1.235 . S
C1025 O1052 1.289 . S
O1026 C1025 1.235 . S
C1027 C1029 1.400 . S
C1027 N1030 1.351 . S
C1027 C1032 1.501 . S
C1028 C1029 1.387 . S
C1028 N1031 1.341 . S
C1029 C1027 1.400 . S
C1029 C1028 1.387 . S
N1030 Co1021 2.022 . S
N1030 C1027 1.351 . S
N1030 N1031 1.365 . S
N1031 C1028 1.341 . S
N1031 N1030 1.365 . S
N1031 H1051 0.862 . S
C1032 C1027 1.501 . S
C1032 H1033 0.961 . S
C1032 H1034 0.961 . S
C1032 H1035 0.960 . S
H1033 C1032 0.961 . S
H1034 C1032 0.961 . S
H1035 C1032 0.960 . S
C1036 N1037 1.342 . S
C1036 C1040 1.401 . S
C1036 C1041 1.499 . S
N1037 Co1020 1.989 . S
N1037 C1036 1.342 . S
N1037 N1038 1.388 . S
N1038 Co1021 1.993 . S
N1038 N1037 1.388 . S
N1038 C1039 1.346 . S
C1039 N1038 1.346 . S
C1039 C1040 1.396 . S
C1039 C1049 1.510 . S
C1040 C1036 1.401 . S
C1040 C1039 1.396 . S
C1041 C1036 1.499 . S
C1041 H1042 0.959 . S
C1041 H1043 0.960 . S
C1041 H1044 0.961 . S
H1042 C1041 0.959 . S
H1043 C1041 0.960 . S
H1044 C1041 0.961 . S
O1045 Co1020 1.967 . S
O1045 C1053 1.258 . S
O1046 Co1021 1.941 . S
O1046 C1053 1.266 . S
H1047 C1049 0.959 . S
H1048 C1049 0.961 . S
C1049 C1039 1.510 . S
C1049 H1047 0.959 . S
C1049 H1048 0.961 . S
C1049 H1050 0.960 . S
H1050 C1049 0.960 . S
H1051 N1031 0.862 . S
O1052 Co1020 1.920 . S
O1052 C1025 1.289 . S
C1053 O1045 1.258 . S
C1053 O1046 1.266 . S
Co1054 O1057 1.970 . S
Co1054 N1071 1.989 . S
Co1054 O1079 1.967 . S
Co1054 O1086 1.920 . S
Co1055 O1058 1.966 . S
Co1055 N1064 2.022 . S
Co1055 N1072 1.993 . S
Co1055 O1080 1.941 . S
C1056 O1057 1.258 . S
C1056 O1058 1.263 . S
O1057 Co1054 1.970 . S
O1057 C1056 1.258 . S
O1058 Co1055 1.966 . S
O1058 C1056 1.263 . S
C1059 O1060 1.235 . S
C1059 O1086 1.289 . S
O1060 C1059 1.235 . S
C1061 C1063 1.400 . S
C1061 N1064 1.351 . S
C1061 C1066 1.501 . S
C1062 C1063 1.387 . S
C1062 N1065 1.341 . S
C1063 C1061 1.400 . S
C1063 C1062 1.387 . S
N1064 Co1055 2.022 . S
N1064 C1061 1.351 . S
N1064 N1065 1.365 . S
N1065 C1062 1.341 . S
N1065 N1064 1.365 . S
N1065 H1085 0.862 . S
C1066 C1061 1.501 . S
C1066 H1067 0.961 . S
C1066 H1068 0.961 . S
C1066 H1069 0.960 . S
H1067 C1066 0.961 . S
H1068 C1066 0.961 . S
H1069 C1066 0.960 . S
C1070 N1071 1.342 . S
C1070 C1074 1.401 . S
C1070 C1075 1.499 . S
N1071 Co1054 1.989 . S
N1071 C1070 1.342 . S
N1071 N1072 1.388 . S
N1072 Co1055 1.993 . S
N1072 N1071 1.388 . S
N1072 C1073 1.346 . S
C1073 N1072 1.346 . S
C1073 C1074 1.396 . S
C1073 C1083 1.510 . S
C1074 C1070 1.401 . S
C1074 C1073 1.396 . S
C1075 C1070 1.499 . S
C1075 H1076 0.959 . S
C1075 H1077 0.960 . S
C1075 H1078 0.961 . S
H1076 C1075 0.959 . S
H1077 C1075 0.960 . S
H1078 C1075 0.961 . S
O1079 Co1054 1.967 . S
O1079 C1087 1.258 . S
O1080 Co1055 1.941 . S
O1080 C1087 1.266 . S
H1081 C1083 0.959 . S
H1082 C1083 0.961 . S
C1083 C1073 1.510 . S
C1083 H1081 0.959 . S
C1083 H1082 0.961 . S
C1083 H1084 0.960 . S
H1084 C1083 0.960 . S
H1085 N1065 0.862 . S
O1086 Co1054 1.920 . S
O1086 C1059 1.289 . S
C1087 O1079 1.258 . S
C1087 O1080 1.266 . S
Co1088 O1091 1.970 . S
Co1088 N1105 1.989 . S
Co1088 O1113 1.967 . S
Co1088 O1120 1.920 . S
Co1089 O1092 1.966 . S
Co1089 N1098 2.022 . S
Co1089 N1106 1.993 . S
Co1089 O1114 1.941 . S
C1090 O1091 1.258 . S
C1090 O1092 1.263 . S
O1091 Co1088 1.970 . S
O1091 C1090 1.258 . S
O1092 Co1089 1.966 . S
O1092 C1090 1.263 . S
C1093 O1094 1.235 . S
C1093 O1120 1.289 . S
O1094 C1093 1.235 . S
C1095 C1097 1.400 . S
C1095 N1098 1.351 . S
C1095 C1100 1.501 . S
C1096 C1097 1.387 . S
C1096 N1099 1.341 . S
C1097 C1095 1.400 . S
C1097 C1096 1.387 . S
N1098 Co1089 2.022 . S
N1098 C1095 1.351 . S
N1098 N1099 1.365 . S
N1099 C1096 1.341 . S
N1099 N1098 1.365 . S
N1099 H1119 0.862 . S
C1100 C1095 1.501 . S
C1100 H1101 0.961 . S
C1100 H1102 0.961 . S
C1100 H1103 0.960 . S
H1101 C1100 0.961 . S
H1102 C1100 0.961 . S
H1103 C1100 0.960 . S
C1104 N1105 1.342 . S
C1104 C1108 1.401 . S
C1104 C1109 1.499 . S
N1105 Co1088 1.989 . S
N1105 C1104 1.342 . S
N1105 N1106 1.388 . S
N1106 Co1089 1.993 . S
N1106 N1105 1.388 . S
N1106 C1107 1.346 . S
C1107 N1106 1.346 . S
C1107 C1108 1.396 . S
C1107 C1117 1.510 . S
C1108 C1104 1.401 . S
C1108 C1107 1.396 . S
C1109 C1104 1.499 . S
C1109 H1110 0.959 . S
C1109 H1111 0.960 . S
C1109 H1112 0.961 . S
H1110 C1109 0.959 . S
H1111 C1109 0.960 . S
H1112 C1109 0.961 . S
O1113 Co1088 1.967 . S
O1113 C1121 1.258 . S
O1114 Co1089 1.941 . S
O1114 C1121 1.266 . S
H1115 C1117 0.959 . S
H1116 C1117 0.961 . S
C1117 C1107 1.510 . S
C1117 H1115 0.959 . S
C1117 H1116 0.961 . S
C1117 H1118 0.960 . S
H1118 C1117 0.960 . S
H1119 N1099 0.862 . S
O1120 Co1088 1.920 . S
O1120 C1093 1.289 . S
C1121 O1113 1.258 . S
C1121 O1114 1.266 . S
Co1122 O1125 1.970 . S
Co1122 N1139 1.989 . S
Co1122 O1147 1.967 . S
Co1122 O1154 1.920 . S
Co1123 O1126 1.966 . S
Co1123 N1132 2.022 . S
Co1123 N1140 1.993 . S
Co1123 O1148 1.941 . S
C1124 O1125 1.258 . S
C1124 O1126 1.263 . S
O1125 Co1122 1.970 . S
O1125 C1124 1.258 . S
O1126 Co1123 1.966 . S
O1126 C1124 1.263 . S
C1127 O1128 1.235 . S
C1127 O1154 1.289 . S
O1128 C1127 1.235 . S
C1129 C1131 1.400 . S
C1129 N1132 1.351 . S
C1129 C1134 1.501 . S
C1130 C1131 1.387 . S
C1130 N1133 1.341 . S
C1131 C1129 1.400 . S
C1131 C1130 1.387 . S
N1132 Co1123 2.022 . S
N1132 C1129 1.351 . S
N1132 N1133 1.365 . S
N1133 C1130 1.341 . S
N1133 N1132 1.365 . S
N1133 H1153 0.862 . S
C1134 C1129 1.501 . S
C1134 H1135 0.961 . S
C1134 H1136 0.961 . S
C1134 H1137 0.960 . S
H1135 C1134 0.961 . S
H1136 C1134 0.961 . S
H1137 C1134 0.960 . S
C1138 N1139 1.342 . S
C1138 C1142 1.401 . S
C1138 C1143 1.499 . S
N1139 Co1122 1.989 . S
N1139 C1138 1.342 . S
N1139 N1140 1.388 . S
N1140 Co1123 1.993 . S
N1140 N1139 1.388 . S
N1140 C1141 1.346 . S
C1141 N1140 1.346 . S
C1141 C1142 1.396 . S
C1141 C1151 1.510 . S
C1142 C1138 1.401 . S
C1142 C1141 1.396 . S
C1143 C1138 1.499 . S
C1143 H1144 0.959 . S
C1143 H1145 0.960 . S
C1143 H1146 0.961 . S
H1144 C1143 0.959 . S
H1145 C1143 0.960 . S
H1146 C1143 0.961 . S
O1147 Co1122 1.967 . S
O1147 C1155 1.258 . S
O1148 Co1123 1.941 . S
O1148 C1155 1.266 . S
H1149 C1151 0.959 . S
H1150 C1151 0.961 . S
C1151 C1141 1.510 . S
C1151 H1149 0.959 . S
C1151 H1150 0.961 . S
C1151 H1152 0.960 . S
H1152 C1151 0.960 . S
H1153 N1133 0.862 . S
O1154 Co1122 1.920 . S
O1154 C1127 1.289 . S
C1155 O1147 1.258 . S
C1155 O1148 1.266 . S
Co1156 O1159 1.970 . S
Co1156 N1173 1.989 . S
Co1156 O1181 1.967 . S
Co1156 O1188 1.920 . S
Co1157 O1160 1.966 . S
Co1157 N1166 2.022 . S
Co1157 N1174 1.993 . S
Co1157 O1182 1.941 . S
C1158 O1159 1.258 . S
C1158 O1160 1.263 . S
O1159 Co1156 1.970 . S
O1159 C1158 1.258 . S
O1160 Co1157 1.966 . S
O1160 C1158 1.263 . S
C1161 O1162 1.235 . S
C1161 O1188 1.289 . S
O1162 C1161 1.235 . S
C1163 C1165 1.400 . S
C1163 N1166 1.351 . S
C1163 C1168 1.501 . S
C1164 C1165 1.387 . S
C1164 N1167 1.341 . S
C1165 C1163 1.400 . S
C1165 C1164 1.387 . S
N1166 Co1157 2.022 . S
N1166 C1163 1.351 . S
N1166 N1167 1.365 . S
N1167 C1164 1.341 . S
N1167 N1166 1.365 . S
N1167 H1187 0.862 . S
C1168 C1163 1.501 . S
C1168 H1169 0.961 . S
C1168 H1170 0.961 . S
C1168 H1171 0.960 . S
H1169 C1168 0.961 . S
H1170 C1168 0.961 . S
H1171 C1168 0.960 . S
C1172 N1173 1.342 . S
C1172 C1176 1.401 . S
C1172 C1177 1.499 . S
N1173 Co1156 1.989 . S
N1173 C1172 1.342 . S
N1173 N1174 1.388 . S
N1174 Co1157 1.993 . S
N1174 N1173 1.388 . S
N1174 C1175 1.346 . S
C1175 N1174 1.346 . S
C1175 C1176 1.396 . S
C1175 C1185 1.510 . S
C1176 C1172 1.401 . S
C1176 C1175 1.396 . S
C1177 C1172 1.499 . S
C1177 H1178 0.959 . S
C1177 H1179 0.960 . S
C1177 H1180 0.961 . S
H1178 C1177 0.959 . S
H1179 C1177 0.960 . S
H1180 C1177 0.961 . S
O1181 Co1156 1.967 . S
O1181 C1189 1.258 . S
O1182 Co1157 1.941 . S
O1182 C1189 1.266 . S
H1183 C1185 0.959 . S
H1184 C1185 0.961 . S
C1185 C1175 1.510 . S
C1185 H1183 0.959 . S
C1185 H1184 0.961 . S
C1185 H1186 0.960 . S
H1186 C1185 0.960 . S
H1187 N1167 0.862 . S
O1188 Co1156 1.920 . S
O1188 C1161 1.289 . S
C1189 O1181 1.258 . S
C1189 O1182 1.266 . S
Co1190 O1193 1.970 . S
Co1190 N1207 1.989 . S
Co1190 O1215 1.967 . S
Co1190 O1222 1.920 . S
Co1191 O1194 1.966 . S
Co1191 N1200 2.022 . S
Co1191 N1208 1.993 . S
Co1191 O1216 1.941 . S
C1192 O1193 1.258 . S
C1192 O1194 1.263 . S
O1193 Co1190 1.970 . S
O1193 C1192 1.258 . S
O1194 Co1191 1.966 . S
O1194 C1192 1.263 . S
C1195 O1196 1.235 . S
C1195 O1222 1.289 . S
O1196 C1195 1.235 . S
C1197 C1199 1.400 . S
C1197 N1200 1.351 . S
C1197 C1202 1.501 . S
C1198 C1199 1.387 . S
C1198 N1201 1.341 . S
C1199 C1197 1.400 . S
C1199 C1198 1.387 . S
N1200 Co1191 2.022 . S
N1200 C1197 1.351 . S
N1200 N1201 1.365 . S
N1201 C1198 1.341 . S
N1201 N1200 1.365 . S
N1201 H1221 0.862 . S
C1202 C1197 1.501 . S
C1202 H1203 0.961 . S
C1202 H1204 0.961 . S
C1202 H1205 0.960 . S
H1203 C1202 0.961 . S
H1204 C1202 0.961 . S
H1205 C1202 0.960 . S
C1206 N1207 1.342 . S
C1206 C1210 1.401 . S
C1206 C1211 1.499 . S
N1207 Co1190 1.989 . S
N1207 C1206 1.342 . S
N1207 N1208 1.388 . S
N1208 Co1191 1.993 . S
N1208 N1207 1.388 . S
N1208 C1209 1.346 . S
C1209 N1208 1.346 . S
C1209 C1210 1.396 . S
C1209 C1219 1.510 . S
C1210 C1206 1.401 . S
C1210 C1209 1.396 . S
C1211 C1206 1.499 . S
C1211 H1212 0.959 . S
C1211 H1213 0.960 . S
C1211 H1214 0.961 . S
H1212 C1211 0.959 . S
H1213 C1211 0.960 . S
H1214 C1211 0.961 . S
O1215 Co1190 1.967 . S
O1215 C1223 1.258 . S
O1216 Co1191 1.941 . S
O1216 C1223 1.266 . S
H1217 C1219 0.959 . S
H1218 C1219 0.961 . S
C1219 C1209 1.510 . S
C1219 H1217 0.959 . S
C1219 H1218 0.961 . S
C1219 H1220 0.960 . S
H1220 C1219 0.960 . S
H1221 N1201 0.862 . S
O1222 Co1190 1.920 . S
O1222 C1195 1.289 . S
C1223 O1215 1.258 . S
C1223 O1216 1.266 . S
H1224 C1232 0.950 . S
H1225 C1237 0.950 . S
H1226 C1234 0.950 . S
H1227 C1236 0.950 . S
H1228 C1238 0.950 . S
H1229 C1240 0.950 . S
H1230 C1242 0.950 . S
H1231 C1243 0.950 . S
C1232 H1224 0.950 . S
C1232 C1233 1.386 . S
C1232 C1234 1.391 . S
C1233 C1232 1.386 . S
C1233 C1237 1.393 . S
C1234 H1226 0.950 . S
C1234 C1232 1.391 . S
C1234 C1235 1.400 . S
C1235 C1234 1.400 . S
C1235 C1236 1.398 . S
C1235 C1241 1.491 . S
C1236 H1227 0.950 . S
C1236 C1235 1.398 . S
C1236 C1237 1.391 . S
C1237 H1225 0.950 . S
C1237 C1233 1.393 . S
C1237 C1236 1.391 . S
C1238 H1228 0.950 . S
C1238 C1239 1.386 1_556 S
C1238 C1240 1.391 . S
C1239 C1238 1.386 1_554 S
C1239 C1243 1.393 . S
C1240 H1229 0.950 . S
C1240 C1238 1.391 . S
C1240 C1241 1.400 . S
C1241 C1235 1.491 . S
C1241 C1240 1.400 . S
C1241 C1242 1.398 . S
C1242 H1230 0.950 . S
C1242 C1241 1.398 . S
C1242 C1243 1.391 1_556 S
C1243 H1231 0.950 . S
C1243 C1239 1.393 . S
C1243 C1242 1.391 1_554 S
H1244 C1252 0.950 . S
H1245 C1257 0.950 . S
H1246 C1254 0.950 . S
H1247 C1256 0.950 . S
H1248 C1258 0.950 1_554 S
H1249 C1260 0.950 . S
H1250 C1262 0.950 . S
H1251 C1263 0.950 . S
C1252 H1244 0.950 . S
C1252 C1253 1.386 . S
C1252 C1254 1.391 . S
C1253 C1252 1.386 . S
C1253 C1257 1.393 . S
C1254 H1246 0.950 . S
C1254 C1252 1.391 . S
C1254 C1255 1.400 . S
C1255 C1254 1.400 . S
C1255 C1256 1.398 . S
C1255 C1261 1.491 . S
C1256 H1247 0.950 . S
C1256 C1255 1.398 . S
C1256 C1257 1.391 . S
C1257 H1245 0.950 . S
C1257 C1253 1.393 . S
C1257 C1256 1.391 . S
C1258 H1248 0.950 1_556 S
C1258 C1259 1.386 1_556 S
C1258 C1260 1.391 . S
C1259 C1258 1.386 1_554 S
C1259 C1263 1.393 . S
C1260 H1249 0.950 . S
C1260 C1258 1.391 . S
C1260 C1261 1.400 . S
C1261 C1255 1.491 . S
C1261 C1260 1.400 . S
C1261 C1262 1.398 . S
C1262 H1250 0.950 . S
C1262 C1261 1.398 . S
C1262 C1263 1.391 1_556 S
C1263 H1251 0.950 . S
C1263 C1259 1.393 . S
C1263 C1262 1.391 1_554 S
H1264 C1272 0.950 . S
H1265 C1277 0.950 1_554 S
H1266 C1274 0.950 . S
H1267 C1276 0.950 . S
H1268 C1278 0.950 . S
H1269 C1280 0.950 . S
H1270 C1282 0.950 . S
H1271 C1283 0.950 . S
C1272 H1264 0.950 . S
C1272 C1273 1.386 . S
C1272 C1274 1.391 1_554 S
C1273 C1272 1.386 . S
C1273 C1277 1.393 1_554 S
C1274 H1266 0.950 . S
C1274 C1272 1.391 1_556 S
C1274 C1275 1.400 . S
C1275 C1274 1.400 . S
C1275 C1276 1.398 . S
C1275 C1281 1.491 . S
C1276 H1267 0.950 . S
C1276 C1275 1.398 . S
C1276 C1277 1.391 . S
C1277 H1265 0.950 1_556 S
C1277 C1273 1.393 1_556 S
C1277 C1276 1.391 . S
C1278 H1268 0.950 . S
C1278 C1279 1.386 . S
C1278 C1280 1.391 . S
C1279 C1278 1.386 . S
C1279 C1283 1.393 . S
C1280 H1269 0.950 . S
C1280 C1278 1.391 . S
C1280 C1281 1.400 . S
C1281 C1275 1.491 . S
C1281 C1280 1.400 . S
C1281 C1282 1.398 . S
C1282 H1270 0.950 . S
C1282 C1281 1.398 . S
C1282 C1283 1.391 . S
C1283 H1271 0.950 . S
C1283 C1279 1.393 . S
C1283 C1282 1.391 . S
H1284 C1292 0.950 . S
H1285 C1297 0.950 . S
H1286 C1294 0.950 . S
H1287 C1296 0.950 . S
H1288 C1298 0.950 . S
H1289 C1300 0.950 . S
H1290 C1302 0.950 . S
H1291 C1303 0.950 . S
C1292 H1284 0.950 . S
C1292 C1293 1.386 . S
C1292 C1294 1.391 . S
C1293 C1292 1.386 . S
C1293 C1297 1.393 . S
C1294 H1286 0.950 . S
C1294 C1292 1.391 . S
C1294 C1295 1.400 . S
C1295 C1294 1.400 . S
C1295 C1296 1.398 . S
C1295 C1301 1.491 . S
C1296 H1287 0.950 . S
C1296 C1295 1.398 . S
C1296 C1297 1.391 . S
C1297 H1285 0.950 . S
C1297 C1293 1.393 . S
C1297 C1296 1.391 . S
C1298 H1288 0.950 . S
C1298 C1299 1.386 . S
C1298 C1300 1.391 . S
C1299 C1298 1.386 . S
C1299 C1303 1.393 . S
C1300 H1289 0.950 . S
C1300 C1298 1.391 . S
C1300 C1301 1.400 . S
C1301 C1295 1.491 . S
C1301 C1300 1.400 . S
C1301 C1302 1.398 . S
C1302 H1290 0.950 . S
C1302 C1301 1.398 . S
C1302 C1303 1.391 . S
C1303 H1291 0.950 . S
C1303 C1299 1.393 . S
C1303 C1302 1.391 . S
H1304 C1312 0.950 . S
H1305 C1317 0.950 . S
H1306 C1314 0.950 . S
H1307 C1316 0.950 . S
H1308 C1318 0.950 . S
H1309 C1320 0.950 . S
H1310 C1322 0.950 . S
H1311 C1323 0.950 . S
C1312 H1304 0.950 . S
C1312 C1313 1.386 . S
C1312 C1314 1.391 . S
C1313 C1312 1.386 . S
C1313 C1317 1.393 . S
C1314 H1306 0.950 . S
C1314 C1312 1.391 . S
C1314 C1315 1.400 . S
C1315 C1314 1.400 . S
C1315 C1316 1.398 . S
C1315 C1321 1.491 . S
C1316 H1307 0.950 . S
C1316 C1315 1.398 . S
C1316 C1317 1.391 . S
C1317 H1305 0.950 . S
C1317 C1313 1.393 . S
C1317 C1316 1.391 . S
C1318 H1308 0.950 . S
C1318 C1319 1.386 . S
C1318 C1320 1.391 . S
C1319 C1318 1.386 . S
C1319 C1323 1.393 . S
C1320 H1309 0.950 . S
C1320 C1318 1.391 . S
C1320 C1321 1.400 . S
C1321 C1315 1.491 . S
C1321 C1320 1.400 . S
C1321 C1322 1.398 . S
C1322 H1310 0.950 . S
C1322 C1321 1.398 . S
C1322 C1323 1.391 . S
C1323 H1311 0.950 . S
C1323 C1319 1.393 . S
C1323 C1322 1.391 . S
H1324 C1332 0.950 . S
H1325 C1337 0.950 . S
H1326 C1334 0.950 . S
H1327 C1336 0.950 . S
H1328 C1338 0.950 . S
H1329 C1340 0.950 . S
H1330 C1342 0.950 . S
H1331 C1343 0.950 . S
C1332 H1324 0.950 . S
C1332 C1333 1.386 . S
C1332 C1334 1.391 . S
C1333 C1332 1.386 . S
C1333 C1337 1.393 . S
C1334 H1326 0.950 . S
C1334 C1332 1.391 . S
C1334 C1335 1.400 . S
C1335 C1334 1.400 . S
C1335 C1336 1.398 . S
C1335 C1341 1.491 . S
C1336 H1327 0.950 . S
C1336 C1335 1.398 . S
C1336 C1337 1.391 . S
C1337 H1325 0.950 . S
C1337 C1333 1.393 . S
C1337 C1336 1.391 . S
C1338 H1328 0.950 . S
C1338 C1339 1.386 . S
C1338 C1340 1.391 . S
C1339 C1338 1.386 . S
C1339 C1343 1.393 . S
C1340 H1329 0.950 . S
C1340 C1338 1.391 . S
C1340 C1341 1.400 . S
C1341 C1335 1.491 . S
C1341 C1340 1.400 . S
C1341 C1342 1.398 . S
C1342 H1330 0.950 . S
C1342 C1341 1.398 . S
C1342 C1343 1.391 . S
C1343 H1331 0.950 . S
C1343 C1339 1.393 . S
C1343 C1342 1.391 . S
H1344 C1352 0.950 . S
H1345 C1357 0.950 . S
H1346 C1354 0.950 . S
H1347 C1356 0.950 . S
H1348 C1358 0.950 . S
H1349 C1360 0.950 . S
H1350 C1362 0.950 . S
H1351 C1363 0.950 . S
C1352 H1344 0.950 . S
C1352 C1353 1.386 . S
C1352 C1354 1.391 . S
C1353 C1352 1.386 . S
C1353 C1357 1.393 . S
C1354 H1346 0.950 . S
C1354 C1352 1.391 . S
C1354 C1355 1.400 . S
C1355 C1354 1.400 . S
C1355 C1356 1.398 . S
C1355 C1361 1.491 . S
C1356 H1347 0.950 . S
C1356 C1355 1.398 . S
C1356 C1357 1.391 . S
C1357 H1345 0.950 . S
C1357 C1353 1.393 . S
C1357 C1356 1.391 . S
C1358 H1348 0.950 . S
C1358 C1359 1.386 . S
C1358 C1360 1.391 1_556 S
C1359 C1358 1.386 . S
C1359 C1363 1.393 1_556 S
C1360 H1349 0.950 . S
C1360 C1358 1.391 1_554 S
C1360 C1361 1.400 . S
C1361 C1355 1.491 . S
C1361 C1360 1.400 . S
C1361 C1362 1.398 . S
C1362 H1350 0.950 . S
C1362 C1361 1.398 . S
C1362 C1363 1.391 . S
C1363 H1351 0.950 . S
C1363 C1359 1.393 1_554 S
C1363 C1362 1.391 . S
H1364 C1372 0.950 . S
H1365 C1377 0.950 . S
H1366 C1374 0.950 . S
H1367 C1376 0.950 . S
H1368 C1378 0.950 . S
H1369 C1380 0.950 . S
H1370 C1382 0.950 . S
H1371 C1383 0.950 . S
C1372 H1364 0.950 . S
C1372 C1373 1.386 . S
C1372 C1374 1.391 1_556 S
C1373 C1372 1.386 . S
C1373 C1377 1.393 1_556 S
C1374 H1366 0.950 . S
C1374 C1372 1.391 1_554 S
C1374 C1375 1.400 . S
C1375 C1374 1.400 . S
C1375 C1376 1.398 . S
C1375 C1381 1.491 . S
C1376 H1367 0.950 . S
C1376 C1375 1.398 . S
C1376 C1377 1.391 . S
C1377 H1365 0.950 . S
C1377 C1373 1.393 1_554 S
C1377 C1376 1.391 . S
C1378 H1368 0.950 . S
C1378 C1379 1.386 . S
C1378 C1380 1.391 . S
C1379 C1378 1.386 . S
C1379 C1383 1.393 . S
C1380 H1369 0.950 . S
C1380 C1378 1.391 . S
C1380 C1381 1.400 . S
C1381 C1375 1.491 . S
C1381 C1380 1.400 . S
C1381 C1382 1.398 . S
C1382 H1370 0.950 . S
C1382 C1381 1.398 . S
C1382 C1383 1.391 . S
C1383 H1371 0.950 . S
C1383 C1379 1.393 . S
C1383 C1382 1.391 . S
H1384 C1392 0.950 . S
H1385 C1397 0.950 . S
H1386 C1394 0.950 . S
H1387 C1396 0.950 . S
H1388 C1398 0.950 . S
H1389 C1400 0.950 . S
H1390 C1402 0.950 . S
H1391 C1403 0.950 . S
C1392 H1384 0.950 . S
C1392 C1393 1.386 1_554 S
C1392 C1394 1.391 . S
C1393 C1392 1.386 1_556 S
C1393 C1397 1.393 . S
C1394 H1386 0.950 . S
C1394 C1392 1.391 . S
C1394 C1395 1.400 . S
C1395 C1394 1.400 . S
C1395 C1396 1.398 . S
C1395 C1401 1.491 . S
C1396 H1387 0.950 . S
C1396 C1395 1.398 . S
C1396 C1397 1.391 1_554 S
C1397 H1385 0.950 . S
C1397 C1393 1.393 . S
C1397 C1396 1.391 1_556 S
C1398 H1388 0.950 . S
C1398 C1399 1.386 . S
C1398 C1400 1.391 . S
C1399 C1398 1.386 . S
C1399 C1403 1.393 . S
C1400 H1389 0.950 . S
C1400 C1398 1.391 . S
C1400 C1401 1.400 . S
C1401 C1395 1.491 . S
C1401 C1400 1.400 . S
C1401 C1402 1.398 . S
C1402 H1390 0.950 . S
C1402 C1401 1.398 . S
C1402 C1403 1.391 . S
C1403 H1391 0.950 . S
C1403 C1399 1.393 . S
C1403 C1402 1.391 . S
H1404 C1412 0.950 . S
H1405 C1417 0.950 . S
H1406 C1414 0.950 . S
H1407 C1416 0.950 . S
H1408 C1418 0.950 . S
H1409 C1420 0.950 . S
H1410 C1422 0.950 . S
H1411 C1423 0.950 . S
C1412 H1404 0.950 . S
C1412 C1413 1.386 . S
C1412 C1414 1.391 . S
C1413 C1412 1.386 . S
C1413 C1417 1.393 . S
C1414 H1406 0.950 . S
C1414 C1412 1.391 . S
C1414 C1415 1.400 . S
C1415 C1414 1.400 . S
C1415 C1416 1.398 . S
C1415 C1421 1.491 . S
C1416 H1407 0.950 . S
C1416 C1415 1.398 . S
C1416 C1417 1.391 . S
C1417 H1405 0.950 . S
C1417 C1413 1.393 . S
C1417 C1416 1.391 . S
C1418 H1408 0.950 . S
C1418 C1419 1.386 . S
C1418 C1420 1.391 . S
C1419 C1418 1.386 . S
C1419 C1423 1.393 . S
C1420 H1409 0.950 . S
C1420 C1418 1.391 . S
C1420 C1421 1.400 . S
C1421 C1415 1.491 . S
C1421 C1420 1.400 . S
C1421 C1422 1.398 . S
C1422 H1410 0.950 . S
C1422 C1421 1.398 . S
C1422 C1423 1.391 . S
C1423 H1411 0.950 . S
C1423 C1419 1.393 . S
C1423 C1422 1.391 . S
H1424 C1432 0.950 . S
H1425 C1437 0.950 . S
H1426 C1434 0.950 . S
H1427 C1436 0.950 . S
H1428 C1438 0.950 . S
H1429 C1440 0.950 . S
H1430 C1442 0.950 . S
H1431 C1443 0.950 . S
C1432 H1424 0.950 . S
C1432 C1433 1.386 . S
C1432 C1434 1.391 . S
C1433 C1432 1.386 . S
C1433 C1437 1.393 . S
C1434 H1426 0.950 . S
C1434 C1432 1.391 . S
C1434 C1435 1.400 . S
C1435 C1434 1.400 . S
C1435 C1436 1.398 . S
C1435 C1441 1.491 . S
C1436 H1427 0.950 . S
C1436 C1435 1.398 . S
C1436 C1437 1.391 . S
C1437 H1425 0.950 . S
C1437 C1433 1.393 . S
C1437 C1436 1.391 . S
C1438 H1428 0.950 . S
C1438 C1439 1.386 . S
C1438 C1440 1.391 . S
C1439 C1438 1.386 . S
C1439 C1443 1.393 . S
C1440 H1429 0.950 . S
C1440 C1438 1.391 . S
C1440 C1441 1.400 . S
C1441 C1435 1.491 . S
C1441 C1440 1.400 . S
C1441 C1442 1.398 . S
C1442 H1430 0.950 . S
C1442 C1441 1.398 . S
C1442 C1443 1.391 . S
C1443 H1431 0.950 . S
C1443 C1439 1.393 . S
C1443 C1442 1.391 . S
H1444 C1452 0.950 . S
H1445 C1457 0.950 . S
H1446 C1454 0.950 . S
H1447 C1456 0.950 . S
H1448 C1458 0.950 . S
H1449 C1460 0.950 . S
H1450 C1462 0.950 . S
H1451 C1463 0.950 . S
C1452 H1444 0.950 . S
C1452 C1453 1.386 . S
C1452 C1454 1.391 . S
C1453 C1452 1.386 . S
C1453 C1457 1.393 . S
C1454 H1446 0.950 . S
C1454 C1452 1.391 . S
C1454 C1455 1.400 . S
C1455 C1454 1.400 . S
C1455 C1456 1.398 . S
C1455 C1461 1.491 . S
C1456 H1447 0.950 . S
C1456 C1455 1.398 . S
C1456 C1457 1.391 . S
C1457 H1445 0.950 . S
C1457 C1453 1.393 . S
C1457 C1456 1.391 . S
C1458 H1448 0.950 . S
C1458 C1459 1.386 . S
C1458 C1460 1.391 . S
C1459 C1458 1.386 . S
C1459 C1463 1.393 . S
C1460 H1449 0.950 . S
C1460 C1458 1.391 . S
C1460 C1461 1.400 . S
C1461 C1455 1.491 . S
C1461 C1460 1.400 . S
C1461 C1462 1.398 . S
C1462 H1450 0.950 . S
C1462 C1461 1.398 . S
C1462 C1463 1.391 . S
C1463 H1451 0.950 . S
C1463 C1459 1.393 . S
C1463 C1462 1.391 . S
H1464 C1472 0.950 . S
H1465 C1477 0.950 . S
H1466 C1474 0.950 . S
H1467 C1476 0.944 1_655 S
H1468 C1478 0.950 . S
H1469 C1480 0.950 . S
H1470 C1482 0.950 . S
H1471 C1483 0.950 . S
C1472 H1464 0.950 . S
C1472 C1473 1.386 . S
C1472 C1474 1.391 . S
C1473 C1472 1.386 . S
C1473 C1477 1.393 . S
C1474 H1466 0.950 . S
C1474 C1472 1.391 . S
C1474 C1475 1.400 . S
C1475 C1474 1.400 . S
C1475 C1476 1.401 . S
C1475 C1481 1.491 1_455 S
C1476 H1467 0.944 1_455 S
C1476 C1475 1.401 . S
C1476 C1477 1.393 . S
C1477 H1465 0.950 . S
C1477 C1473 1.393 . S
C1477 C1476 1.393 . S
C1478 H1468 0.950 . S
C1478 C1479 1.386 . S
C1478 C1480 1.391 . S
C1479 C1478 1.386 . S
C1479 C1483 1.393 . S
C1480 H1469 0.950 . S
C1480 C1478 1.391 . S
C1480 C1481 1.400 . S
C1481 C1475 1.491 1_655 S
C1481 C1480 1.400 . S
C1481 C1482 1.398 1_655 S
C1482 H1470 0.950 . S
C1482 C1481 1.398 1_455 S
C1482 C1483 1.391 1_455 S
C1483 H1471 0.950 . S
C1483 C1479 1.393 . S
C1483 C1482 1.391 1_655 S
H1484 C1492 0.950 . S
H1485 C1497 0.950 . S
H1486 C1494 0.950 . S
H1487 C1496 0.950 . S
H1488 C1498 0.950 . S
H1489 C1500 0.950 . S
H1490 C1502 0.950 . S
H1491 C1503 0.950 . S
C1492 H1484 0.950 . S
C1492 C1493 1.386 . S
C1492 C1494 1.391 . S
C1493 C1492 1.386 . S
C1493 C1497 1.393 . S
C1494 H1486 0.950 . S
C1494 C1492 1.391 . S
C1494 C1495 1.400 . S
C1495 C1494 1.400 . S
C1495 C1496 1.398 . S
C1495 C1501 1.491 . S
C1496 H1487 0.950 . S
C1496 C1495 1.398 . S
C1496 C1497 1.391 . S
C1497 H1485 0.950 . S
C1497 C1493 1.393 . S
C1497 C1496 1.391 . S
C1498 H1488 0.950 . S
C1498 C1499 1.386 . S
C1498 C1500 1.391 . S
C1499 C1498 1.386 . S
C1499 C1503 1.393 . S
C1500 H1489 0.950 . S
C1500 C1498 1.391 . S
C1500 C1501 1.400 . S
C1501 C1495 1.491 . S
C1501 C1500 1.400 . S
C1501 C1502 1.398 . S
C1502 H1490 0.950 . S
C1502 C1501 1.398 . S
C1502 C1503 1.391 . S
C1503 H1491 0.950 . S
C1503 C1499 1.393 . S
C1503 C1502 1.391 . S
H1504 C1512 0.950 . S
H1505 C1517 0.950 . S
H1506 C1514 0.950 . S
H1507 C1516 0.950 . S
H1508 C1518 0.950 . S
H1509 C1520 0.951 1_545 S
H1510 C1522 0.950 . S
H1511 C1523 0.950 . S
C1512 H1504 0.950 . S
C1512 C1513 1.386 . S
C1512 C1514 1.391 1_545 S
C1513 C1512 1.386 . S
C1513 C1517 1.393 . S
C1514 H1506 0.950 . S
C1514 C1512 1.391 1_565 S
C1514 C1515 1.400 1_565 S
C1515 C1514 1.400 1_545 S
C1515 C1516 1.398 . S
C1515 C1521 1.491 1_545 S
C1516 H1507 0.950 . S
C1516 C1515 1.398 . S
C1516 C1517 1.391 . S
C1517 H1505 0.950 . S
C1517 C1513 1.393 . S
C1517 C1516 1.391 . S
C1518 H1508 0.950 . S
C1518 C1519 1.386 . S
C1518 C1520 1.390 . S
C1519 C1518 1.386 . S
C1519 C1523 1.393 . S
C1520 H1509 0.951 1_565 S
C1520 C1518 1.390 . S
C1520 C1521 1.400 . S
C1521 C1515 1.491 1_565 S
C1521 C1520 1.400 . S
C1521 C1522 1.398 . S
C1522 H1510 0.950 . S
C1522 C1521 1.398 . S
C1522 C1523 1.391 . S
C1523 H1511 0.950 . S
C1523 C1519 1.393 . S
C1523 C1522 1.391 . S
H1524 C1532 0.950 . S
H1525 C1537 0.954 . S
H1526 C1534 0.950 . S
H1527 C1536 0.950 . S
H1528 C1538 0.950 . S
H1529 C1540 0.950 . S
H1530 C1542 0.950 . S
H1531 C1543 0.950 . S
C1532 H1524 0.950 . S
C1532 C1533 1.386 . S
C1532 C1534 1.391 . S
C1533 C1532 1.386 . S
C1533 C1537 1.393 . S
C1534 H1526 0.950 . S
C1534 C1532 1.391 . S
C1534 C1535 1.400 . S
C1535 C1534 1.400 . S
C1535 C1536 1.398 1_565 S
C1535 C1541 1.491 1_565 S
C1536 H1527 0.950 . S
C1536 C1535 1.398 1_545 S
C1536 C1537 1.391 1_545 S
C1537 H1525 0.954 . S
C1537 C1533 1.393 . S
C1537 C1536 1.391 1_565 S
C1538 H1528 0.950 . S
C1538 C1539 1.386 . S
C1538 C1540 1.391 . S
C1539 C1538 1.386 . S
C1539 C1543 1.393 . S
C1540 H1529 0.950 . S
C1540 C1538 1.391 . S
C1540 C1541 1.400 . S
C1541 C1535 1.491 1_545 S
C1541 C1540 1.400 . S
C1541 C1542 1.398 1_545 S
C1542 H1530 0.950 . S
C1542 C1541 1.398 1_565 S
C1542 C1543 1.391 1_565 S
C1543 H1531 0.950 . S
C1543 C1539 1.393 . S
C1543 C1542 1.391 1_545 S
H1544 C1552 0.950 . S
H1545 C1557 0.950 . S
H1546 C1554 0.950 . S
H1547 C1556 0.950 . S
H1548 C1558 0.950 . S
H1549 C1560 0.950 . S
H1550 C1562 0.950 . S
H1551 C1563 0.950 . S
C1552 H1544 0.950 . S
C1552 C1553 1.386 . S
C1552 C1554 1.391 . S
C1553 C1552 1.386 . S
C1553 C1557 1.393 . S
C1554 H1546 0.950 . S
C1554 C1552 1.391 . S
C1554 C1555 1.400 . S
C1555 C1554 1.400 . S
C1555 C1556 1.398 . S
C1555 C1561 1.491 1_655 S
C1556 H1547 0.950 . S
C1556 C1555 1.398 . S
C1556 C1557 1.391 . S
C1557 H1545 0.950 . S
C1557 C1553 1.393 . S
C1557 C1556 1.391 . S
C1558 H1548 0.950 . S
C1558 C1559 1.386 . S
C1558 C1560 1.391 . S
C1559 C1558 1.386 . S
C1559 C1563 1.393 . S
C1560 H1549 0.950 . S
C1560 C1558 1.391 . S
C1560 C1561 1.400 . S
C1561 C1555 1.491 1_455 S
C1561 C1560 1.400 . S
C1561 C1562 1.398 . S
C1562 H1550 0.950 . S
C1562 C1561 1.398 . S
C1562 C1563 1.391 . S
C1563 H1551 0.950 . S
C1563 C1559 1.393 . S
C1563 C1562 1.391 . S
H1564 C1572 0.950 . S
H1565 C1577 0.950 . S
H1566 C1574 0.950 . S
H1567 C1576 0.950 . S
H1568 C1578 0.950 . S
H1569 C1580 0.950 . S
H1570 C1582 0.950 . S
H1571 C1583 0.950 . S
C1572 H1564 0.950 . S
C1572 C1573 1.386 . S
C1572 C1574 1.391 . S
C1573 C1572 1.386 . S
C1573 C1577 1.393 . S
C1574 H1566 0.950 . S
C1574 C1572 1.391 . S
C1574 C1575 1.400 . S
C1575 C1574 1.400 . S
C1575 C1576 1.398 . S
C1575 C1581 1.491 . S
C1576 H1567 0.950 . S
C1576 C1575 1.398 . S
C1576 C1577 1.391 . S
C1577 H1565 0.950 . S
C1577 C1573 1.393 . S
C1577 C1576 1.391 . S
C1578 H1568 0.950 . S
C1578 C1579 1.386 . S
C1578 C1580 1.391 . S
C1579 C1578 1.386 . S
C1579 C1583 1.393 . S
C1580 H1569 0.950 . S
C1580 C1578 1.391 . S
C1580 C1581 1.400 . S
C1581 C1575 1.491 . S
C1581 C1580 1.400 . S
C1581 C1582 1.398 . S
C1582 H1570 0.950 . S
C1582 C1581 1.398 . S
C1582 C1583 1.391 . S
C1583 H1571 0.950 . S
C1583 C1579 1.393 . S
C1583 C1582 1.391 . S
H1584 C1592 0.950 . S
H1585 C1597 0.950 . S
H1586 C1594 0.950 . S
H1587 C1596 0.950 . S
H1588 C1598 0.950 . S
H1589 C1600 0.950 . S
H1590 C1602 0.950 . S
H1591 C1603 0.950 . S
C1592 H1584 0.950 . S
C1592 C1593 1.386 . S
C1592 C1594 1.391 . S
C1593 C1592 1.386 . S
C1593 C1597 1.393 . S
C1594 H1586 0.950 . S
C1594 C1592 1.391 . S
C1594 C1595 1.400 . S
C1595 C1594 1.400 . S
C1595 C1596 1.398 . S
C1595 C1601 1.491 . S
C1596 H1587 0.950 . S
C1596 C1595 1.398 . S
C1596 C1597 1.391 . S
C1597 H1585 0.950 . S
C1597 C1593 1.393 . S
C1597 C1596 1.391 . S
C1598 H1588 0.950 . S
C1598 C1599 1.386 . S
C1598 C1600 1.391 . S
C1599 C1598 1.386 . S
C1599 C1603 1.393 . S
C1600 H1589 0.950 . S
C1600 C1598 1.391 . S
C1600 C1601 1.400 . S
C1601 C1595 1.491 . S
C1601 C1600 1.400 . S
C1601 C1602 1.398 . S
C1602 H1590 0.950 . S
C1602 C1601 1.398 . S
C1602 C1603 1.391 . S
C1603 H1591 0.950 . S
C1603 C1599 1.393 . S
C1603 C1602 1.391 . S
H1604 C1612 0.950 . S
H1605 C1617 0.950 . S
H1606 C1614 0.950 . S
H1607 C1616 0.950 . S
H1608 C1618 0.950 . S
H1609 C1620 0.950 . S
H1610 C1622 0.950 . S
H1611 C1623 0.950 . S
C1612 H1604 0.950 . S
C1612 C1613 1.386 . S
C1612 C1614 1.391 . S
C1613 C1612 1.386 . S
C1613 C1617 1.393 . S
C1614 H1606 0.950 . S
C1614 C1612 1.391 . S
C1614 C1615 1.400 . S
C1615 C1614 1.400 . S
C1615 C1616 1.398 . S
C1615 C1621 1.491 . S
C1616 H1607 0.950 . S
C1616 C1615 1.398 . S
C1616 C1617 1.391 . S
C1617 H1605 0.950 . S
C1617 C1613 1.393 . S
C1617 C1616 1.391 . S
C1618 H1608 0.950 . S
C1618 C1619 1.386 . S
C1618 C1620 1.391 . S
C1619 C1618 1.386 . S
C1619 C1623 1.393 . S
C1620 H1609 0.950 . S
C1620 C1618 1.391 . S
C1620 C1621 1.400 . S
C1621 C1615 1.491 . S
C1621 C1620 1.400 . S
C1621 C1622 1.398 . S
C1622 H1610 0.950 . S
C1622 C1621 1.398 . S
C1622 C1623 1.391 . S
C1623 H1611 0.950 . S
C1623 C1619 1.393 . S
C1623 C1622 1.391 . S
H1624 C1632 0.950 . S
H1625 C1637 0.950 . S
H1626 C1634 0.950 . S
H1627 C1636 0.950 . S
H1628 C1638 0.950 . S
H1629 C1640 0.950 . S
H1630 C1642 0.950 . S
H1631 C1643 0.950 . S
C1632 H1624 0.950 . S
C1632 C1633 1.386 . S
C1632 C1634 1.391 . S
C1633 C1632 1.386 . S
C1633 C1637 1.393 . S
C1634 H1626 0.950 . S
C1634 C1632 1.391 . S
C1634 C1635 1.400 . S
C1635 C1634 1.400 . S
C1635 C1636 1.398 . S
C1635 C1641 1.491 . S
C1636 H1627 0.950 . S
C1636 C1635 1.398 . S
C1636 C1637 1.391 . S
C1637 H1625 0.950 . S
C1637 C1633 1.393 . S
C1637 C1636 1.391 . S
C1638 H1628 0.950 . S
C1638 C1639 1.386 . S
C1638 C1640 1.391 . S
C1639 C1638 1.386 . S
C1639 C1643 1.393 . S
C1640 H1629 0.950 . S
C1640 C1638 1.391 . S
C1640 C1641 1.400 . S
C1641 C1635 1.491 . S
C1641 C1640 1.400 . S
C1641 C1642 1.398 . S
C1642 H1630 0.950 . S
C1642 C1641 1.398 . S
C1642 C1643 1.391 . S
C1643 H1631 0.950 . S
C1643 C1639 1.393 . S
C1643 C1642 1.391 . S
H1644 C1652 0.950 . S
H1645 C1657 0.950 . S
H1646 C1654 0.950 . S
H1647 C1656 0.950 . S
H1648 C1658 0.950 . S
H1649 C1660 0.950 . S
H1650 C1662 0.950 . S
H1651 C1663 0.950 . S
C1652 H1644 0.950 . S
C1652 C1653 1.386 . S
C1652 C1654 1.391 . S
C1653 C1652 1.386 . S
C1653 C1657 1.393 . S
C1654 H1646 0.950 . S
C1654 C1652 1.391 . S
C1654 C1655 1.400 . S
C1655 C1654 1.400 . S
C1655 C1656 1.398 . S
C1655 C1661 1.491 . S
C1656 H1647 0.950 . S
C1656 C1655 1.398 . S
C1656 C1657 1.391 . S
C1657 H1645 0.950 . S
C1657 C1653 1.393 . S
C1657 C1656 1.391 . S
C1658 H1648 0.950 . S
C1658 C1659 1.386 . S
C1658 C1660 1.391 . S
C1659 C1658 1.386 . S
C1659 C1663 1.393 . S
C1660 H1649 0.950 . S
C1660 C1658 1.391 . S
C1660 C1661 1.400 . S
C1661 C1655 1.491 . S
C1661 C1660 1.400 . S
C1661 C1662 1.398 . S
C1662 H1650 0.950 . S
C1662 C1661 1.398 . S
C1662 C1663 1.391 . S
C1663 H1651 0.950 . S
C1663 C1659 1.393 . S
C1663 C1662 1.391 . S
H1664 C1672 0.950 . S
H1665 C1677 0.950 . S
H1666 C1674 0.950 . S
H1667 C1676 0.950 . S
H1668 C1678 0.950 . S
H1669 C1680 0.950 . S
H1670 C1682 0.950 . S
H1671 C1683 0.950 . S
C1672 H1664 0.950 . S
C1672 C1673 1.386 . S
C1672 C1674 1.391 . S
C1673 C1672 1.386 . S
C1673 C1677 1.393 . S
C1674 H1666 0.950 . S
C1674 C1672 1.391 . S
C1674 C1675 1.400 . S
C1675 C1674 1.400 . S
C1675 C1676 1.398 . S
C1675 C1681 1.491 . S
C1676 H1667 0.950 . S
C1676 C1675 1.398 . S
C1676 C1677 1.391 . S
C1677 H1665 0.950 . S
C1677 C1673 1.393 . S
C1677 C1676 1.391 . S
C1678 H1668 0.950 . S
C1678 C1679 1.386 . S
C1678 C1680 1.391 . S
C1679 C1678 1.386 . S
C1679 C1683 1.393 . S
C1680 H1669 0.950 . S
C1680 C1678 1.391 . S
C1680 C1681 1.400 . S
C1681 C1675 1.491 . S
C1681 C1680 1.400 . S
C1681 C1682 1.398 . S
C1682 H1670 0.950 . S
C1682 C1681 1.398 . S
C1682 C1683 1.391 . S
C1683 H1671 0.950 . S
C1683 C1679 1.393 . S
C1683 C1682 1.391 . S
H1684 C1692 0.950 . S
H1685 C1697 0.950 . S
H1686 C1694 0.950 . S
H1687 C1696 0.950 . S
H1688 C1698 0.950 . S
H1689 C1700 0.950 . S
H1690 C1702 0.950 . S
H1691 C1703 0.950 . S
C1692 H1684 0.950 . S
C1692 C1693 1.386 . S
C1692 C1694 1.391 . S
C1693 C1692 1.386 . S
C1693 C1697 1.393 . S
C1694 H1686 0.950 . S
C1694 C1692 1.391 . S
C1694 C1695 1.400 . S
C1695 C1694 1.400 . S
C1695 C1696 1.398 . S
C1695 C1701 1.491 . S
C1696 H1687 0.950 . S
C1696 C1695 1.398 . S
C1696 C1697 1.391 . S
C1697 H1685 0.950 . S
C1697 C1693 1.393 . S
C1697 C1696 1.391 . S
C1698 H1688 0.950 . S
C1698 C1699 1.386 . S
C1698 C1700 1.391 . S
C1699 C1698 1.386 . S
C1699 C1703 1.393 . S
C1700 H1689 0.950 . S
C1700 C1698 1.391 . S
C1700 C1701 1.400 . S
C1701 C1695 1.491 . S
C1701 C1700 1.400 . S
C1701 C1702 1.398 . S
C1702 H1690 0.950 . S
C1702 C1701 1.398 . S
C1702 C1703 1.391 . S
C1703 H1691 0.950 . S
C1703 C1699 1.393 . S
C1703 C1702 1.391 . S
H1704 C1712 0.950 . S
H1705 C1717 0.950 . S
H1706 C1714 0.950 . S
H1707 C1716 0.950 . S
H1708 C1718 0.950 . S
H1709 C1720 0.950 . S
H1710 C1722 0.950 . S
H1711 C1723 0.950 . S
C1712 H1704 0.950 . S
C1712 C1713 1.386 . S
C1712 C1714 1.391 . S
C1713 C1712 1.386 . S
C1713 C1717 1.393 . S
C1714 H1706 0.950 . S
C1714 C1712 1.391 . S
C1714 C1715 1.400 . S
C1715 C1714 1.400 . S
C1715 C1716 1.398 . S
C1715 C1721 1.491 . S
C1716 H1707 0.950 . S
C1716 C1715 1.398 . S
C1716 C1717 1.391 . S
C1717 H1705 0.950 . S
C1717 C1713 1.393 . S
C1717 C1716 1.391 . S
C1718 H1708 0.950 . S
C1718 C1719 1.386 . S
C1718 C1720 1.391 . S
C1719 C1718 1.386 . S
C1719 C1723 1.393 . S
C1720 H1709 0.950 . S
C1720 C1718 1.391 . S
C1720 C1721 1.400 . S
C1721 C1715 1.491 . S
C1721 C1720 1.400 . S
C1721 C1722 1.398 . S
C1722 H1710 0.950 . S
C1722 C1721 1.398 . S
C1722 C1723 1.391 . S
C1723 H1711 0.950 . S
C1723 C1719 1.393 . S
C1723 C1722 1.391 . S
H1724 C1732 0.950 . S
H1725 C1737 0.950 . S
H1726 C1734 0.950 . S
H1727 C1736 0.950 . S
H1728 C1738 0.950 . S
H1729 C1740 0.950 . S
H1730 C1742 0.950 . S
H1731 C1743 0.950 . S
C1732 H1724 0.950 . S
C1732 C1733 1.386 . S
C1732 C1734 1.391 . S
C1733 C1732 1.386 . S
C1733 C1737 1.393 . S
C1734 H1726 0.950 . S
C1734 C1732 1.391 . S
C1734 C1735 1.400 . S
C1735 C1734 1.400 . S
C1735 C1736 1.398 . S
C1735 C1741 1.491 . S
C1736 H1727 0.950 . S
C1736 C1735 1.398 . S
C1736 C1737 1.391 . S
C1737 H1725 0.950 . S
C1737 C1733 1.393 . S
C1737 C1736 1.391 . S
C1738 H1728 0.950 . S
C1738 C1739 1.386 . S
C1738 C1740 1.391 . S
C1739 C1738 1.386 . S
C1739 C1743 1.393 . S
C1740 H1729 0.950 . S
C1740 C1738 1.391 . S
C1740 C1741 1.400 . S
C1741 C1735 1.491 . S
C1741 C1740 1.400 . S
C1741 C1742 1.398 . S
C1742 H1730 0.950 . S
C1742 C1741 1.398 . S
C1742 C1743 1.391 . S
C1743 H1731 0.950 . S
C1743 C1739 1.393 . S
C1743 C1742 1.391 . S
H1744 C1752 0.950 . S
H1745 C1757 0.950 . S
H1746 C1754 0.950 . S
H1747 C1756 0.950 . S
H1748 C1758 0.950 . S
H1749 C1760 0.950 . S
H1750 C1762 0.950 . S
H1751 C1763 0.950 . S
C1752 H1744 0.950 . S
C1752 C1753 1.386 . S
C1752 C1754 1.391 . S
C1753 C1752 1.386 . S
C1753 C1757 1.393 . S
C1754 H1746 0.950 . S
C1754 C1752 1.391 . S
C1754 C1755 1.400 . S
C1755 C1754 1.400 . S
C1755 C1756 1.398 . S
C1755 C1761 1.491 . S
C1756 H1747 0.950 . S
C1756 C1755 1.398 . S
C1756 C1757 1.391 . S
C1757 H1745 0.950 . S
C1757 C1753 1.393 . S
C1757 C1756 1.391 . S
C1758 H1748 0.950 . S
C1758 C1759 1.386 . S
C1758 C1760 1.391 . S
C1759 C1758 1.386 . S
C1759 C1763 1.393 . S
C1760 H1749 0.950 . S
C1760 C1758 1.391 . S
C1760 C1761 1.400 . S
C1761 C1755 1.491 . S
C1761 C1760 1.400 . S
C1761 C1762 1.398 . S
C1762 H1750 0.950 . S
C1762 C1761 1.398 . S
C1762 C1763 1.391 . S
C1763 H1751 0.950 . S
C1763 C1759 1.393 . S
C1763 C1762 1.391 . S
H1764 C1772 0.950 . S
H1765 C1777 0.950 . S
H1766 C1774 0.950 . S
H1767 C1776 0.950 . S
H1768 C1778 0.950 . S
H1769 C1780 0.950 . S
H1770 C1782 0.950 . S
H1771 C1783 0.950 . S
C1772 H1764 0.950 . S
C1772 C1773 1.386 . S
C1772 C1774 1.391 . S
C1773 C1772 1.386 . S
C1773 C1777 1.393 . S
C1774 H1766 0.950 . S
C1774 C1772 1.391 . S
C1774 C1775 1.400 . S
C1775 C1774 1.400 . S
C1775 C1776 1.398 . S
C1775 C1781 1.491 . S
C1776 H1767 0.950 . S
C1776 C1775 1.398 . S
C1776 C1777 1.391 . S
C1777 H1765 0.950 . S
C1777 C1773 1.393 . S
C1777 C1776 1.391 . S
C1778 H1768 0.950 . S
C1778 C1779 1.386 . S
C1778 C1780 1.391 . S
C1779 C1778 1.386 . S
C1779 C1783 1.393 . S
C1780 H1769 0.950 . S
C1780 C1778 1.391 . S
C1780 C1781 1.400 . S
C1781 C1775 1.491 . S
C1781 C1780 1.400 . S
C1781 C1782 1.398 . S
C1782 H1770 0.950 . S
C1782 C1781 1.398 . S
C1782 C1783 1.391 . S
C1783 H1771 0.950 . S
C1783 C1779 1.393 . S
C1783 C1782 1.391 . S
H1784 C1792 0.950 . S
H1785 C1797 0.950 . S
H1786 C1794 0.950 . S
H1787 C1796 0.950 . S
H1788 C1798 0.950 . S
H1789 C1800 0.950 . S
H1790 C1802 0.950 . S
H1791 C1803 0.950 . S
C1792 H1784 0.950 . S
C1792 C1793 1.386 . S
C1792 C1794 1.391 . S
C1793 C1792 1.386 . S
C1793 C1797 1.393 . S
C1794 H1786 0.950 . S
C1794 C1792 1.391 . S
C1794 C1795 1.400 . S
C1795 C1794 1.400 . S
C1795 C1796 1.398 . S
C1795 C1801 1.491 . S
C1796 H1787 0.950 . S
C1796 C1795 1.398 . S
C1796 C1797 1.391 . S
C1797 H1785 0.950 . S
C1797 C1793 1.393 . S
C1797 C1796 1.391 . S
C1798 H1788 0.950 . S
C1798 C1799 1.386 . S
C1798 C1800 1.391 . S
C1799 C1798 1.386 . S
C1799 C1803 1.393 . S
C1800 H1789 0.950 . S
C1800 C1798 1.391 . S
C1800 C1801 1.400 . S
C1801 C1795 1.491 . S
C1801 C1800 1.400 . S
C1801 C1802 1.398 . S
C1802 H1790 0.950 . S
C1802 C1801 1.398 . S
C1802 C1803 1.391 . S
C1803 H1791 0.950 . S
C1803 C1799 1.393 . S
C1803 C1802 1.391 . S
H1804 C1812 0.950 . S
H1805 C1817 0.950 . S
H1806 C1814 0.950 . S
H1807 C1816 0.950 . S
H1808 C1818 0.950 . S
H1809 C1820 0.950 . S
H1810 C1822 0.950 . S
H1811 C1823 0.950 . S
C1812 H1804 0.950 . S
C1812 C1813 1.386 . S
C1812 C1814 1.391 . S
C1813 C1812 1.386 . S
C1813 C1817 1.393 . S
C1814 H1806 0.950 . S
C1814 C1812 1.391 . S
C1814 C1815 1.400 . S
C1815 C1814 1.400 . S
C1815 C1816 1.398 . S
C1815 C1821 1.491 . S
C1816 H1807 0.950 . S
C1816 C1815 1.398 . S
C1816 C1817 1.391 . S
C1817 H1805 0.950 . S
C1817 C1813 1.393 . S
C1817 C1816 1.391 . S
C1818 H1808 0.950 . S
C1818 C1819 1.386 . S
C1818 C1820 1.391 . S
C1819 C1818 1.386 . S
C1819 C1823 1.393 . S
C1820 H1809 0.950 . S
C1820 C1818 1.391 . S
C1820 C1821 1.400 . S
C1821 C1815 1.491 . S
C1821 C1820 1.400 . S
C1821 C1822 1.398 . S
C1822 H1810 0.950 . S
C1822 C1821 1.398 . S
C1822 C1823 1.391 . S
C1823 H1811 0.950 . S
C1823 C1819 1.393 . S
C1823 C1822 1.391 . S
H1824 C1832 0.950 . S
H1825 C1837 0.950 . S
H1826 C1834 0.950 . S
H1827 C1836 0.950 . S
H1828 C1838 0.950 . S
H1829 C1840 0.950 . S
H1830 C1842 0.950 . S
H1831 C1843 0.950 . S
C1832 H1824 0.950 . S
C1832 C1833 1.386 . S
C1832 C1834 1.391 . S
C1833 C1832 1.386 . S
C1833 C1837 1.393 . S
C1834 H1826 0.950 . S
C1834 C1832 1.391 . S
C1834 C1835 1.400 . S
C1835 C1834 1.400 . S
C1835 C1836 1.398 . S
C1835 C1841 1.491 1_655 S
C1836 H1827 0.950 . S
C1836 C1835 1.398 . S
C1836 C1837 1.391 . S
C1837 H1825 0.950 . S
C1837 C1833 1.393 . S
C1837 C1836 1.391 . S
C1838 H1828 0.950 . S
C1838 C1839 1.386 . S
C1838 C1840 1.391 . S
C1839 C1838 1.386 . S
C1839 C1843 1.393 . S
C1840 H1829 0.950 . S
C1840 C1838 1.391 . S
C1840 C1841 1.400 . S
C1841 C1835 1.491 1_455 S
C1841 C1840 1.400 . S
C1841 C1842 1.398 . S
C1842 H1830 0.950 . S
C1842 C1841 1.398 . S
C1842 C1843 1.391 . S
C1843 H1831 0.950 . S
C1843 C1839 1.393 . S
C1843 C1842 1.391 . S
H1844 C1852 0.950 . S
H1845 C1857 0.950 . S
H1846 C1854 0.950 . S
H1847 C1856 0.950 . S
H1848 C1858 0.950 . S
H1849 C1860 0.950 . S
H1850 C1862 0.950 . S
H1851 C1863 0.950 . S
C1852 H1844 0.950 . S
C1852 C1853 1.386 . S
C1852 C1854 1.391 . S
C1853 C1852 1.386 . S
C1853 C1857 1.393 . S
C1854 H1846 0.950 . S
C1854 C1852 1.391 . S
C1854 C1855 1.400 . S
C1855 C1854 1.400 . S
C1855 C1856 1.398 . S
C1855 C1861 1.491 . S
C1856 H1847 0.950 . S
C1856 C1855 1.398 . S
C1856 C1857 1.391 . S
C1857 H1845 0.950 . S
C1857 C1853 1.393 . S
C1857 C1856 1.391 . S
C1858 H1848 0.950 . S
C1858 C1859 1.386 . S
C1858 C1860 1.391 . S
C1859 C1858 1.386 . S
C1859 C1863 1.393 . S
C1860 H1849 0.950 . S
C1860 C1858 1.391 . S
C1860 C1861 1.400 . S
C1861 C1855 1.491 . S
C1861 C1860 1.400 . S
C1861 C1862 1.398 . S
C1862 H1850 0.950 . S
C1862 C1861 1.398 . S
C1862 C1863 1.391 . S
C1863 H1851 0.950 . S
C1863 C1859 1.393 . S
C1863 C1862 1.391 . S
H1864 C1872 0.950 . S
H1865 C1877 0.950 . S
H1866 C1874 0.950 . S
H1867 C1876 0.950 1_545 S
H1868 C1878 0.950 . S
H1869 C1880 0.950 . S
H1870 C1882 0.950 1_565 S
H1871 C1883 0.950 . S
C1872 H1864 0.950 . S
C1872 C1873 1.386 . S
C1872 C1874 1.391 . S
C1873 C1872 1.386 . S
C1873 C1877 1.393 . S
C1874 H1866 0.950 . S
C1874 C1872 1.391 . S
C1874 C1875 1.400 . S
C1875 C1874 1.400 . S
C1875 C1876 1.398 . S
C1875 C1881 1.491 1_565 S
C1876 H1867 0.950 1_565 S
C1876 C1875 1.398 . S
C1876 C1877 1.391 . S
C1877 H1865 0.950 . S
C1877 C1873 1.393 . S
C1877 C1876 1.391 . S
C1878 H1868 0.950 . S
C1878 C1879 1.386 . S
C1878 C1880 1.391 . S
C1879 C1878 1.386 . S
C1879 C1883 1.393 . S
C1880 H1869 0.950 . S
C1880 C1878 1.391 . S
C1880 C1881 1.400 . S
C1881 C1875 1.491 1_545 S
C1881 C1880 1.400 . S
C1881 C1882 1.398 . S
C1882 H1870 0.950 1_545 S
C1882 C1881 1.398 . S
C1882 C1883 1.391 . S
C1883 H1871 0.950 . S
C1883 C1879 1.393 . S
C1883 C1882 1.391 . S
H1884 C1892 0.950 . S
H1885 C1897 0.950 . S
H1886 C1894 0.950 . S
H1887 C1896 0.950 . S
H1888 C1898 0.950 . S
H1889 C1900 0.950 . S
H1890 C1902 0.950 . S
H1891 C1903 0.950 . S
C1892 H1884 0.950 . S
C1892 C1893 1.386 . S
C1892 C1894 1.391 . S
C1893 C1892 1.386 . S
C1893 C1897 1.393 1_556 S
C1894 H1886 0.950 . S
C1894 C1892 1.391 . S
C1894 C1895 1.400 . S
C1895 C1894 1.400 . S
C1895 C1896 1.398 1_556 S
C1895 C1901 1.491 1_566 S
C1896 H1887 0.950 . S
C1896 C1895 1.398 1_554 S
C1896 C1897 1.391 . S
C1897 H1885 0.950 . S
C1897 C1893 1.393 1_554 S
C1897 C1896 1.391 . S
C1898 H1888 0.950 . S
C1898 C1899 1.386 . S
C1898 C1900 1.391 . S
C1899 C1898 1.386 . S
C1899 C1903 1.393 1_554 S
C1900 H1889 0.950 . S
C1900 C1898 1.391 . S
C1900 C1901 1.400 . S
C1901 C1895 1.491 1_544 S
C1901 C1900 1.400 . S
C1901 C1902 1.398 1_554 S
C1902 H1890 0.950 . S
C1902 C1901 1.398 1_556 S
C1902 C1903 1.391 . S
C1903 H1891 0.950 . S
C1903 C1899 1.393 1_556 S
C1903 C1902 1.391 . S
H1904 C1912 0.950 . S
H1905 C1917 0.950 1_554 S
H1906 C1914 0.950 . S
H1907 C1916 0.950 1_655 S
H1908 C1918 0.950 . S
H1909 C1920 0.950 . S
H1910 C1922 0.950 1_455 S
H1911 C1923 0.950 1_556 S
C1912 H1904 0.950 . S
C1912 C1913 1.386 . S
C1912 C1914 1.391 . S
C1913 C1912 1.386 . S
C1913 C1917 1.393 . S
C1914 H1906 0.950 . S
C1914 C1912 1.391 . S
C1914 C1915 1.400 . S
C1915 C1914 1.400 . S
C1915 C1916 1.398 1_556 S
C1915 C1921 1.491 1_456 S
C1916 H1907 0.950 1_455 S
C1916 C1915 1.398 1_554 S
C1916 C1917 1.391 1_554 S
C1917 H1905 0.950 1_556 S
C1917 C1913 1.393 . S
C1917 C1916 1.391 1_556 S
C1918 H1908 0.950 . S
C1918 C1919 1.386 . S
C1918 C1920 1.391 . S
C1919 C1918 1.386 . S
C1919 C1923 1.393 . S
C1920 H1909 0.950 . S
C1920 C1918 1.391 . S
C1920 C1921 1.400 . S
C1921 C1915 1.491 1_654 S
C1921 C1920 1.400 . S
C1921 C1922 1.398 1_554 S
C1922 H1910 0.950 1_655 S
C1922 C1921 1.398 1_556 S
C1922 C1923 1.391 1_556 S
C1923 H1911 0.950 1_554 S
C1923 C1919 1.393 . S
C1923 C1922 1.391 1_554 S
H1924 C1932 0.950 . S
H1925 C1937 0.950 . S
H1926 C1934 0.950 . S
H1927 C1936 0.950 . S
H1928 C1938 0.950 . S
H1929 C1940 0.950 . S
H1930 C1942 0.950 . S
H1931 C1943 0.950 . S
C1932 H1924 0.950 . S
C1932 C1933 1.386 . S
C1932 C1934 1.391 . S
C1933 C1932 1.386 . S
C1933 C1937 1.393 1_556 S
C1934 H1926 0.950 . S
C1934 C1932 1.391 . S
C1934 C1935 1.400 . S
C1935 C1934 1.400 . S
C1935 C1936 1.398 1_556 S
C1935 C1941 1.491 1_556 S
C1936 H1927 0.950 . S
C1936 C1935 1.398 1_554 S
C1936 C1937 1.391 . S
C1937 H1925 0.950 . S
C1937 C1933 1.393 1_554 S
C1937 C1936 1.391 . S
C1938 H1928 0.950 . S
C1938 C1939 1.386 . S
C1938 C1940 1.391 . S
C1939 C1938 1.386 . S
C1939 C1943 1.393 1_554 S
C1940 H1929 0.950 . S
C1940 C1938 1.391 . S
C1940 C1941 1.400 . S
C1941 C1935 1.491 1_554 S
C1941 C1940 1.400 . S
C1941 C1942 1.398 1_554 S
C1942 H1930 0.950 . S
C1942 C1941 1.398 1_556 S
C1942 C1943 1.391 . S
C1943 H1931 0.950 . S
C1943 C1939 1.393 1_556 S
C1943 C1942 1.391 . S
H1944 C1952 0.950 . S
H1945 C1957 0.950 . S
H1946 C1954 0.950 . S
H1947 C1956 0.939 1_556 S
H1948 C1958 0.950 . S
H1949 C1960 0.950 . S
H1950 C1962 0.950 . S
H1951 C1963 0.950 . S
C1952 H1944 0.950 . S
C1952 C1953 1.386 . S
C1952 C1954 1.391 . S
C1953 C1952 1.386 . S
C1953 C1957 1.393 . S
C1954 H1946 0.950 . S
C1954 C1952 1.391 . S
C1954 C1955 1.400 1_554 S
C1955 C1954 1.400 1_556 S
C1955 C1956 1.396 1_556 S
C1955 C1961 1.491 . S
C1956 H1947 0.939 1_554 S
C1956 C1955 1.396 1_554 S
C1956 C1957 1.404 . S
C1957 H1945 0.950 . S
C1957 C1953 1.393 . S
C1957 C1956 1.404 . S
C1958 H1948 0.950 . S
C1958 C1959 1.386 . S
C1958 C1960 1.391 . S
C1959 C1958 1.386 . S
C1959 C1963 1.393 . S
C1960 H1949 0.950 . S
C1960 C1958 1.391 . S
C1960 C1961 1.400 . S
C1961 C1955 1.491 . S
C1961 C1960 1.400 . S
C1961 C1962 1.398 . S
C1962 H1950 0.950 . S
C1962 C1961 1.398 . S
C1962 C1963 1.391 . S
C1963 H1951 0.950 . S
C1963 C1959 1.393 . S
C1963 C1962 1.391 . S
H1964 C1972 0.950 . S
H1965 C1977 0.950 . S
H1966 C1974 0.950 . S
H1967 C1976 0.950 . S
H1968 C1978 0.950 . S
H1969 C1980 0.950 . S
H1970 C1982 0.950 . S
H1971 C1983 0.950 . S
C1972 H1964 0.950 . S
C1972 C1973 1.386 . S
C1972 C1974 1.391 . S
C1973 C1972 1.386 . S
C1973 C1977 1.393 . S
C1974 H1966 0.950 . S
C1974 C1972 1.391 . S
C1974 C1975 1.400 1_554 S
C1975 C1974 1.400 1_556 S
C1975 C1976 1.398 . S
C1975 C1981 1.491 . S
C1976 H1967 0.950 . S
C1976 C1975 1.398 . S
C1976 C1977 1.391 1_556 S
C1977 H1965 0.950 . S
C1977 C1973 1.393 . S
C1977 C1976 1.391 1_554 S
C1978 H1968 0.950 . S
C1978 C1979 1.386 . S
C1978 C1980 1.391 . S
C1979 C1978 1.386 . S
C1979 C1983 1.393 . S
C1980 H1969 0.950 . S
C1980 C1978 1.391 . S
C1980 C1981 1.400 . S
C1981 C1975 1.491 . S
C1981 C1980 1.400 . S
C1981 C1982 1.398 . S
C1982 H1970 0.950 . S
C1982 C1981 1.398 . S
C1982 C1983 1.391 . S
C1983 H1971 0.950 . S
C1983 C1979 1.393 . S
C1983 C1982 1.391 . S
H1984 C1992 0.950 . S
H1985 C1997 0.950 . S
H1986 C1994 0.950 . S
H1987 C1996 0.950 . S
H1988 C1998 0.950 . S
H1989 C2000 0.958 . S
H1990 C2002 0.950 . S
H1991 C2003 0.950 . S
C1992 H1984 0.950 . S
C1992 C1993 1.386 . S
C1992 C1994 1.391 . S
C1993 C1992 1.386 . S
C1993 C1997 1.393 . S
C1994 H1986 0.950 . S
C1994 C1992 1.391 . S
C1994 C1995 1.400 . S
C1995 C1994 1.400 . S
C1995 C1996 1.398 . S
C1995 C2001 1.491 . S
C1996 H1987 0.950 . S
C1996 C1995 1.398 . S
C1996 C1997 1.391 . S
C1997 H1985 0.950 . S
C1997 C1993 1.393 . S
C1997 C1996 1.391 . S
C1998 H1988 0.950 . S
C1998 C1999 1.386 . S
C1998 C2000 1.382 1_554 S
C1999 C1998 1.386 . S
C1999 C2003 1.393 . S
C2000 H1989 0.958 . S
C2000 C1998 1.382 1_556 S
C2000 C2001 1.402 . S
C2001 C1995 1.491 . S
C2001 C2000 1.402 . S
C2001 C2002 1.398 1_556 S
C2002 H1990 0.950 . S
C2002 C2001 1.398 1_554 S
C2002 C2003 1.391 . S
C2003 H1991 0.950 . S
C2003 C1999 1.393 . S
C2003 C2002 1.391 . S
H2004 C2012 0.950 . S
H2005 C2017 0.950 . S
H2006 C2014 0.950 . S
H2007 C2016 0.950 . S
H2008 C2018 0.950 . S
H2009 C2020 0.950 . S
H2010 C2022 0.950 . S
H2011 C2023 0.950 . S
C2012 H2004 0.950 . S
C2012 C2013 1.386 . S
C2012 C2014 1.391 . S
C2013 C2012 1.386 . S
C2013 C2017 1.393 . S
C2014 H2006 0.950 . S
C2014 C2012 1.391 . S
C2014 C2015 1.400 . S
C2015 C2014 1.400 . S
C2015 C2016 1.398 . S
C2015 C2021 1.491 . S
C2016 H2007 0.950 . S
C2016 C2015 1.398 . S
C2016 C2017 1.391 . S
C2017 H2005 0.950 . S
C2017 C2013 1.393 . S
C2017 C2016 1.391 . S
C2018 H2008 0.950 . S
C2018 C2019 1.386 . S
C2018 C2020 1.391 . S
C2019 C2018 1.386 . S
C2019 C2023 1.393 . S
C2020 H2009 0.950 . S
C2020 C2018 1.391 . S
C2020 C2021 1.400 . S
C2021 C2015 1.491 . S
C2021 C2020 1.400 . S
C2021 C2022 1.398 . S
C2022 H2010 0.950 . S
C2022 C2021 1.398 . S
C2022 C2023 1.391 . S
C2023 H2011 0.950 . S
C2023 C2019 1.393 . S
C2023 C2022 1.391 . S
H2024 C2032 0.950 . S
H2025 C2037 0.950 . S
H2026 C2034 0.950 . S
H2027 C2036 0.950 . S
H2028 C2038 0.950 . S
H2029 C2040 0.950 . S
H2030 C2042 0.950 . S
H2031 C2043 0.950 . S
C2032 H2024 0.950 . S
C2032 C2033 1.386 . S
C2032 C2034 1.391 . S
C2033 C2032 1.386 . S
C2033 C2037 1.393 . S
C2034 H2026 0.950 . S
C2034 C2032 1.391 . S
C2034 C2035 1.400 . S
C2035 C2034 1.400 . S
C2035 C2036 1.398 . S
C2035 C2041 1.491 . S
C2036 H2027 0.950 . S
C2036 C2035 1.398 . S
C2036 C2037 1.391 . S
C2037 H2025 0.950 . S
C2037 C2033 1.393 . S
C2037 C2036 1.391 . S
C2038 H2028 0.950 . S
C2038 C2039 1.386 . S
C2038 C2040 1.391 . S
C2039 C2038 1.386 . S
C2039 C2043 1.393 . S
C2040 H2029 0.950 . S
C2040 C2038 1.391 . S
C2040 C2041 1.400 . S
C2041 C2035 1.491 . S
C2041 C2040 1.400 . S
C2041 C2042 1.398 . S
C2042 H2030 0.950 . S
C2042 C2041 1.398 . S
C2042 C2043 1.391 . S
C2043 H2031 0.950 . S
C2043 C2039 1.393 . S
C2043 C2042 1.391 . S
H2044 C2052 0.950 . S
H2045 C2057 0.950 . S
H2046 C2054 0.950 . S
H2047 C2056 0.950 . S
H2048 C2058 0.950 . S
H2049 C2060 0.950 . S
H2050 C2062 0.950 . S
H2051 C2063 0.950 . S
C2052 H2044 0.950 . S
C2052 C2053 1.386 . S
C2052 C2054 1.391 . S
C2053 C2052 1.386 . S
C2053 C2057 1.393 . S
C2054 H2046 0.950 . S
C2054 C2052 1.391 . S
C2054 C2055 1.400 . S
C2055 C2054 1.400 . S
C2055 C2056 1.398 . S
C2055 C2061 1.491 . S
C2056 H2047 0.950 . S
C2056 C2055 1.398 . S
C2056 C2057 1.391 . S
C2057 H2045 0.950 . S
C2057 C2053 1.393 . S
C2057 C2056 1.391 . S
C2058 H2048 0.950 . S
C2058 C2059 1.386 . S
C2058 C2060 1.391 . S
C2059 C2058 1.386 . S
C2059 C2063 1.393 . S
C2060 H2049 0.950 . S
C2060 C2058 1.391 . S
C2060 C2061 1.400 . S
C2061 C2055 1.491 . S
C2061 C2060 1.400 . S
C2061 C2062 1.398 . S
C2062 H2050 0.950 . S
C2062 C2061 1.398 . S
C2062 C2063 1.391 . S
C2063 H2051 0.950 . S
C2063 C2059 1.393 . S
C2063 C2062 1.391 . S
H2064 C2072 0.950 . S
H2065 C2077 0.950 . S
H2066 C2074 0.950 . S
H2067 C2076 0.950 . S
H2068 C2078 0.950 . S
H2069 C2080 0.950 1_554 S
H2070 C2082 0.950 . S
H2071 C2083 0.950 . S
C2072 H2064 0.950 . S
C2072 C2073 1.386 . S
C2072 C2074 1.391 . S
C2073 C2072 1.386 . S
C2073 C2077 1.393 . S
C2074 H2066 0.950 . S
C2074 C2072 1.391 . S
C2074 C2075 1.400 . S
C2075 C2074 1.400 . S
C2075 C2076 1.398 . S
C2075 C2081 1.491 . S
C2076 H2067 0.950 . S
C2076 C2075 1.398 . S
C2076 C2077 1.391 . S
C2077 H2065 0.950 . S
C2077 C2073 1.393 . S
C2077 C2076 1.391 . S
C2078 H2068 0.950 . S
C2078 C2079 1.386 . S
C2078 C2080 1.391 . S
C2079 C2078 1.386 . S
C2079 C2083 1.393 . S
C2080 H2069 0.950 1_556 S
C2080 C2078 1.391 . S
C2080 C2081 1.400 1_556 S
C2081 C2075 1.491 . S
C2081 C2080 1.400 1_554 S
C2081 C2082 1.398 1_554 S
C2082 H2070 0.950 . S
C2082 C2081 1.398 1_556 S
C2082 C2083 1.391 . S
C2083 H2071 0.950 . S
C2083 C2079 1.393 . S
C2083 C2082 1.391 . S
H2084 C2092 0.950 . S
H2085 C2097 0.950 . S
H2086 C2094 0.950 . S
H2087 C2096 0.950 . S
H2088 C2098 0.950 . S
H2089 C2100 0.950 . S
H2090 C2102 0.950 1_554 S
H2091 C2103 0.950 . S
C2092 H2084 0.950 . S
C2092 C2093 1.386 . S
C2092 C2094 1.391 . S
C2093 C2092 1.386 . S
C2093 C2097 1.393 . S
C2094 H2086 0.950 . S
C2094 C2092 1.391 . S
C2094 C2095 1.400 . S
C2095 C2094 1.400 . S
C2095 C2096 1.398 . S
C2095 C2101 1.491 . S
C2096 H2087 0.950 . S
C2096 C2095 1.398 . S
C2096 C2097 1.391 . S
C2097 H2085 0.950 . S
C2097 C2093 1.393 . S
C2097 C2096 1.391 . S
C2098 H2088 0.950 . S
C2098 C2099 1.386 . S
C2098 C2100 1.391 . S
C2099 C2098 1.386 . S
C2099 C2103 1.393 . S
C2100 H2089 0.950 . S
C2100 C2098 1.391 . S
C2100 C2101 1.400 1_556 S
C2101 C2095 1.491 . S
C2101 C2100 1.400 1_554 S
C2101 C2102 1.398 1_554 S
C2102 H2090 0.950 1_556 S
C2102 C2101 1.398 1_556 S
C2102 C2103 1.391 . S
C2103 H2091 0.950 . S
C2103 C2099 1.393 . S
C2103 C2102 1.391 . S
H2104 C2112 0.950 . S
H2105 C2117 0.950 . S
H2106 C2114 0.950 1_554 S
H2107 C2116 0.950 . S
H2108 C2118 0.950 . S
H2109 C2120 0.950 . S
H2110 C2122 0.950 . S
H2111 C2123 0.950 . S
C2112 H2104 0.950 . S
C2112 C2113 1.386 . S
C2112 C2114 1.391 . S
C2113 C2112 1.386 . S
C2113 C2117 1.393 . S
C2114 H2106 0.950 1_556 S
C2114 C2112 1.391 . S
C2114 C2115 1.400 1_556 S
C2115 C2114 1.400 1_554 S
C2115 C2116 1.398 1_554 S
C2115 C2121 1.491 . S
C2116 H2107 0.950 . S
C2116 C2115 1.398 1_556 S
C2116 C2117 1.391 . S
C2117 H2105 0.950 . S
C2117 C2113 1.393 . S
C2117 C2116 1.391 . S
C2118 H2108 0.950 . S
C2118 C2119 1.386 . S
C2118 C2120 1.391 . S
C2119 C2118 1.386 . S
C2119 C2123 1.393 . S
C2120 H2109 0.950 . S
C2120 C2118 1.391 . S
C2120 C2121 1.400 . S
C2121 C2115 1.491 . S
C2121 C2120 1.400 . S
C2121 C2122 1.398 . S
C2122 H2110 0.950 . S
C2122 C2121 1.398 . S
C2122 C2123 1.391 . S
C2123 H2111 0.950 . S
C2123 C2119 1.393 . S
C2123 C2122 1.391 . S
H2124 C2132 0.950 . S
H2125 C2137 0.950 . S
H2126 C2134 0.950 . S
H2127 C2136 0.950 . S
H2128 C2138 0.950 . S
H2129 C2140 0.950 . S
H2130 C2142 0.950 . S
H2131 C2143 0.950 . S
C2132 H2124 0.950 . S
C2132 C2133 1.386 . S
C2132 C2134 1.391 . S
C2133 C2132 1.386 . S
C2133 C2137 1.393 . S
C2134 H2126 0.950 . S
C2134 C2132 1.391 . S
C2134 C2135 1.400 . S
C2135 C2134 1.400 . S
C2135 C2136 1.398 . S
C2135 C2141 1.491 . S
C2136 H2127 0.950 . S
C2136 C2135 1.398 . S
C2136 C2137 1.391 . S
C2137 H2125 0.950 . S
C2137 C2133 1.393 . S
C2137 C2136 1.391 . S
C2138 H2128 0.950 . S
C2138 C2139 1.386 . S
C2138 C2140 1.391 . S
C2139 C2138 1.386 . S
C2139 C2143 1.393 . S
C2140 H2129 0.950 . S
C2140 C2138 1.391 . S
C2140 C2141 1.400 . S
C2141 C2135 1.491 . S
C2141 C2140 1.400 . S
C2141 C2142 1.398 . S
C2142 H2130 0.950 . S
C2142 C2141 1.398 . S
C2142 C2143 1.391 . S
C2143 H2131 0.950 . S
C2143 C2139 1.393 . S
C2143 C2142 1.391 . S
H2144 C2152 0.950 . S
H2145 C2157 0.950 . S
H2146 C2154 0.950 . S
H2147 C2156 0.950 . S
H2148 C2158 0.950 . S
H2149 C2160 0.950 . S
H2150 C2162 0.950 . S
H2151 C2163 0.950 . S
C2152 H2144 0.950 . S
C2152 C2153 1.386 . S
C2152 C2154 1.391 . S
C2153 C2152 1.386 . S
C2153 C2157 1.393 . S
C2154 H2146 0.950 . S
C2154 C2152 1.391 . S
C2154 C2155 1.400 . S
C2155 C2154 1.400 . S
C2155 C2156 1.398 . S
C2155 C2161 1.491 . S
C2156 H2147 0.950 . S
C2156 C2155 1.398 . S
C2156 C2157 1.391 . S
C2157 H2145 0.950 . S
C2157 C2153 1.393 . S
C2157 C2156 1.391 . S
C2158 H2148 0.950 . S
C2158 C2159 1.386 . S
C2158 C2160 1.391 . S
C2159 C2158 1.386 . S
C2159 C2163 1.393 . S
C2160 H2149 0.950 . S
C2160 C2158 1.391 . S
C2160 C2161 1.400 . S
C2161 C2155 1.491 . S
C2161 C2160 1.400 . S
C2161 C2162 1.398 . S
C2162 H2150 0.950 . S
C2162 C2161 1.398 . S
C2162 C2163 1.391 . S
C2163 H2151 0.950 . S
C2163 C2159 1.393 . S
C2163 C2162 1.391 . S
H2164 C2172 0.950 . S
H2165 C2177 0.950 . S
H2166 C2174 0.950 . S
H2167 C2176 0.950 . S
H2168 C2178 0.950 . S
H2169 C2180 0.950 . S
H2170 C2182 0.950 . S
H2171 C2183 0.950 . S
C2172 H2164 0.950 . S
C2172 C2173 1.386 . S
C2172 C2174 1.391 . S
C2173 C2172 1.386 . S
C2173 C2177 1.393 . S
C2174 H2166 0.950 . S
C2174 C2172 1.391 . S
C2174 C2175 1.400 . S
C2175 C2174 1.400 . S
C2175 C2176 1.398 . S
C2175 C2181 1.491 . S
C2176 H2167 0.950 . S
C2176 C2175 1.398 . S
C2176 C2177 1.391 . S
C2177 H2165 0.950 . S
C2177 C2173 1.393 . S
C2177 C2176 1.391 . S
C2178 H2168 0.950 . S
C2178 C2179 1.386 . S
C2178 C2180 1.391 . S
C2179 C2178 1.386 . S
C2179 C2183 1.393 . S
C2180 H2169 0.950 . S
C2180 C2178 1.391 . S
C2180 C2181 1.400 . S
C2181 C2175 1.491 . S
C2181 C2180 1.400 . S
C2181 C2182 1.398 . S
C2182 H2170 0.950 . S
C2182 C2181 1.398 . S
C2182 C2183 1.391 . S
C2183 H2171 0.950 . S
C2183 C2179 1.393 . S
C2183 C2182 1.391 . S
H2184 C2192 0.950 . S
H2185 C2197 0.950 . S
H2186 C2194 0.950 . S
H2187 C2196 0.950 . S
H2188 C2198 0.950 . S
H2189 C2200 0.950 . S
H2190 C2202 0.950 . S
H2191 C2203 0.950 . S
C2192 H2184 0.950 . S
C2192 C2193 1.386 . S
C2192 C2194 1.391 . S
C2193 C2192 1.386 . S
C2193 C2197 1.393 . S
C2194 H2186 0.950 . S
C2194 C2192 1.391 . S
C2194 C2195 1.400 . S
C2195 C2194 1.400 . S
C2195 C2196 1.398 . S
C2195 C2201 1.491 . S
C2196 H2187 0.950 . S
C2196 C2195 1.398 . S
C2196 C2197 1.391 . S
C2197 H2185 0.950 . S
C2197 C2193 1.393 . S
C2197 C2196 1.391 . S
C2198 H2188 0.950 . S
C2198 C2199 1.386 . S
C2198 C2200 1.391 . S
C2199 C2198 1.386 . S
C2199 C2203 1.393 . S
C2200 H2189 0.950 . S
C2200 C2198 1.391 . S
C2200 C2201 1.400 . S
C2201 C2195 1.491 . S
C2201 C2200 1.400 . S
C2201 C2202 1.398 . S
C2202 H2190 0.950 . S
C2202 C2201 1.398 . S
C2202 C2203 1.391 . S
C2203 H2191 0.950 . S
C2203 C2199 1.393 . S
C2203 C2202 1.391 . S
H2204 C2212 0.950 . S
H2205 C2217 0.950 . S
H2206 C2214 0.950 . S
H2207 C2216 0.950 . S
H2208 C2218 0.950 . S
H2209 C2220 0.950 . S
H2210 C2222 0.950 . S
H2211 C2223 0.950 . S
C2212 H2204 0.950 . S
C2212 C2213 1.386 . S
C2212 C2214 1.391 . S
C2213 C2212 1.386 . S
C2213 C2217 1.393 . S
C2214 H2206 0.950 . S
C2214 C2212 1.391 . S
C2214 C2215 1.400 . S
C2215 C2214 1.400 . S
C2215 C2216 1.398 . S
C2215 C2221 1.491 . S
C2216 H2207 0.950 . S
C2216 C2215 1.398 . S
C2216 C2217 1.391 . S
C2217 H2205 0.950 . S
C2217 C2213 1.393 . S
C2217 C2216 1.391 . S
C2218 H2208 0.950 . S
C2218 C2219 1.386 . S
C2218 C2220 1.391 . S
C2219 C2218 1.386 . S
C2219 C2223 1.393 . S
C2220 H2209 0.950 . S
C2220 C2218 1.391 . S
C2220 C2221 1.400 . S
C2221 C2215 1.491 . S
C2221 C2220 1.400 . S
C2221 C2222 1.398 . S
C2222 H2210 0.950 . S
C2222 C2221 1.398 . S
C2222 C2223 1.391 . S
C2223 H2211 0.950 . S
C2223 C2219 1.393 . S
C2223 C2222 1.391 . S
H2224 C2232 0.950 . S
H2225 C2237 0.950 . S
H2226 C2234 0.950 . S
H2227 C2236 0.950 . S
H2228 C2238 0.950 . S
H2229 C2240 0.950 . S
H2230 C2242 0.950 . S
H2231 C2243 0.950 . S
C2232 H2224 0.950 . S
C2232 C2233 1.386 . S
C2232 C2234 1.391 . S
C2233 C2232 1.386 . S
C2233 C2237 1.393 . S
C2234 H2226 0.950 . S
C2234 C2232 1.391 . S
C2234 C2235 1.400 . S
C2235 C2234 1.400 . S
C2235 C2236 1.398 . S
C2235 C2241 1.491 . S
C2236 H2227 0.950 . S
C2236 C2235 1.398 . S
C2236 C2237 1.391 . S
C2237 H2225 0.950 . S
C2237 C2233 1.393 . S
C2237 C2236 1.391 . S
C2238 H2228 0.950 . S
C2238 C2239 1.386 . S
C2238 C2240 1.391 . S
C2239 C2238 1.386 . S
C2239 C2243 1.393 . S
C2240 H2229 0.950 . S
C2240 C2238 1.391 . S
C2240 C2241 1.400 . S
C2241 C2235 1.491 . S
C2241 C2240 1.400 . S
C2241 C2242 1.398 . S
C2242 H2230 0.950 . S
C2242 C2241 1.398 . S
C2242 C2243 1.391 . S
C2243 H2231 0.950 . S
C2243 C2239 1.393 . S
C2243 C2242 1.391 . S
H2244 C2252 0.950 . S
H2245 C2257 0.950 . S
H2246 C2254 0.950 . S
H2247 C2256 0.950 . S
H2248 C2258 0.950 . S
H2249 C2260 0.950 . S
H2250 C2262 0.950 . S
H2251 C2263 0.950 . S
C2252 H2244 0.950 . S
C2252 C2253 1.386 . S
C2252 C2254 1.391 . S
C2253 C2252 1.386 . S
C2253 C2257 1.393 . S
C2254 H2246 0.950 . S
C2254 C2252 1.391 . S
C2254 C2255 1.400 . S
C2255 C2254 1.400 . S
C2255 C2256 1.398 . S
C2255 C2261 1.491 . S
C2256 H2247 0.950 . S
C2256 C2255 1.398 . S
C2256 C2257 1.391 . S
C2257 H2245 0.950 . S
C2257 C2253 1.393 . S
C2257 C2256 1.391 . S
C2258 H2248 0.950 . S
C2258 C2259 1.386 . S
C2258 C2260 1.391 . S
C2259 C2258 1.386 . S
C2259 C2263 1.393 . S
C2260 H2249 0.950 . S
C2260 C2258 1.391 . S
C2260 C2261 1.400 . S
C2261 C2255 1.491 . S
C2261 C2260 1.400 . S
C2261 C2262 1.398 . S
C2262 H2250 0.950 . S
C2262 C2261 1.398 . S
C2262 C2263 1.391 . S
C2263 H2251 0.950 . S
C2263 C2259 1.393 . S
C2263 C2262 1.391 . S
H2264 C2272 0.950 . S
H2265 C2277 0.950 . S
H2266 C2274 0.950 . S
H2267 C2276 0.950 . S
H2268 C2278 0.950 . S
H2269 C2280 0.950 . S
H2270 C2282 0.950 . S
H2271 C2283 0.950 . S
C2272 H2264 0.950 . S
C2272 C2273 1.386 . S
C2272 C2274 1.391 . S
C2273 C2272 1.386 . S
C2273 C2277 1.393 . S
C2274 H2266 0.950 . S
C2274 C2272 1.391 . S
C2274 C2275 1.400 . S
C2275 C2274 1.400 . S
C2275 C2276 1.398 . S
C2275 C2281 1.491 . S
C2276 H2267 0.950 . S
C2276 C2275 1.398 . S
C2276 C2277 1.391 . S
C2277 H2265 0.950 . S
C2277 C2273 1.393 . S
C2277 C2276 1.391 . S
C2278 H2268 0.950 . S
C2278 C2279 1.386 . S
C2278 C2280 1.391 . S
C2279 C2278 1.386 . S
C2279 C2283 1.393 . S
C2280 H2269 0.950 . S
C2280 C2278 1.391 . S
C2280 C2281 1.400 . S
C2281 C2275 1.491 . S
C2281 C2280 1.400 . S
C2281 C2282 1.398 . S
C2282 H2270 0.950 . S
C2282 C2281 1.398 . S
C2282 C2283 1.391 . S
C2283 H2271 0.950 . S
C2283 C2279 1.393 . S
C2283 C2282 1.391 . S
H2284 C2292 0.950 . S
H2285 C2297 0.950 . S
H2286 C2294 0.950 . S
H2287 C2296 0.950 . S
H2288 C2298 0.950 . S
H2289 C2300 0.950 . S
H2290 C2302 0.950 . S
H2291 C2303 0.950 . S
C2292 H2284 0.950 . S
C2292 C2293 1.386 . S
C2292 C2294 1.391 . S
C2293 C2292 1.386 . S
C2293 C2297 1.393 . S
C2294 H2286 0.950 . S
C2294 C2292 1.391 . S
C2294 C2295 1.400 . S
C2295 C2294 1.400 . S
C2295 C2296 1.398 . S
C2295 C2301 1.491 . S
C2296 H2287 0.950 . S
C2296 C2295 1.398 . S
C2296 C2297 1.391 . S
C2297 H2285 0.950 . S
C2297 C2293 1.393 . S
C2297 C2296 1.391 . S
C2298 H2288 0.950 . S
C2298 C2299 1.386 . S
C2298 C2300 1.391 . S
C2299 C2298 1.386 . S
C2299 C2303 1.393 . S
C2300 H2289 0.950 . S
C2300 C2298 1.391 . S
C2300 C2301 1.400 . S
C2301 C2295 1.491 . S
C2301 C2300 1.400 . S
C2301 C2302 1.398 . S
C2302 H2290 0.950 . S
C2302 C2301 1.398 . S
C2302 C2303 1.391 . S
C2303 H2291 0.950 . S
C2303 C2299 1.393 . S
C2303 C2302 1.391 . S
H2304 C2312 0.950 . S
H2305 C2317 0.950 . S
H2306 C2314 0.950 . S
H2307 C2316 0.950 . S
H2308 C2318 0.950 . S
H2309 C2320 0.950 . S
H2310 C2322 0.950 . S
H2311 C2323 0.950 . S
C2312 H2304 0.950 . S
C2312 C2313 1.386 . S
C2312 C2314 1.391 . S
C2313 C2312 1.386 . S
C2313 C2317 1.393 . S
C2314 H2306 0.950 . S
C2314 C2312 1.391 . S
C2314 C2315 1.400 . S
C2315 C2314 1.400 . S
C2315 C2316 1.398 . S
C2315 C2321 1.491 . S
C2316 H2307 0.950 . S
C2316 C2315 1.398 . S
C2316 C2317 1.391 . S
C2317 H2305 0.950 . S
C2317 C2313 1.393 . S
C2317 C2316 1.391 . S
C2318 H2308 0.950 . S
C2318 C2319 1.386 . S
C2318 C2320 1.391 . S
C2319 C2318 1.386 . S
C2319 C2323 1.393 . S
C2320 H2309 0.950 . S
C2320 C2318 1.391 . S
C2320 C2321 1.400 . S
C2321 C2315 1.491 . S
C2321 C2320 1.400 . S
C2321 C2322 1.398 . S
C2322 H2310 0.950 . S
C2322 C2321 1.398 . S
C2322 C2323 1.391 . S
C2323 H2311 0.950 . S
C2323 C2319 1.393 . S
C2323 C2322 1.391 . S
H2324 C2332 0.950 . S
H2325 C2337 0.950 . S
H2326 C2334 0.950 . S
H2327 C2336 0.950 . S
H2328 C2338 0.950 . S
H2329 C2340 0.950 . S
H2330 C2342 0.950 . S
H2331 C2343 0.950 . S
C2332 H2324 0.950 . S
C2332 C2333 1.386 . S
C2332 C2334 1.391 . S
C2333 C2332 1.386 . S
C2333 C2337 1.393 . S
C2334 H2326 0.950 . S
C2334 C2332 1.391 . S
C2334 C2335 1.400 . S
C2335 C2334 1.400 . S
C2335 C2336 1.398 . S
C2335 C2341 1.491 . S
C2336 H2327 0.950 . S
C2336 C2335 1.398 . S
C2336 C2337 1.391 . S
C2337 H2325 0.950 . S
C2337 C2333 1.393 . S
C2337 C2336 1.391 . S
C2338 H2328 0.950 . S
C2338 C2339 1.386 . S
C2338 C2340 1.391 . S
C2339 C2338 1.386 . S
C2339 C2343 1.393 . S
C2340 H2329 0.950 . S
C2340 C2338 1.391 . S
C2340 C2341 1.400 . S
C2341 C2335 1.491 . S
C2341 C2340 1.400 . S
C2341 C2342 1.398 . S
C2342 H2330 0.950 . S
C2342 C2341 1.398 . S
C2342 C2343 1.391 . S
C2343 H2331 0.950 . S
C2343 C2339 1.393 . S
C2343 C2342 1.391 . S
H2344 C2352 0.950 . S
H2345 C2357 0.950 . S
H2346 C2354 0.950 . S
H2347 C2356 0.950 . S
H2348 C2358 0.950 . S
H2349 C2360 0.950 . S
H2350 C2362 0.950 . S
H2351 C2363 0.950 . S
C2352 H2344 0.950 . S
C2352 C2353 1.386 . S
C2352 C2354 1.391 . S
C2353 C2352 1.386 . S
C2353 C2357 1.393 . S
C2354 H2346 0.950 . S
C2354 C2352 1.391 . S
C2354 C2355 1.400 . S
C2355 C2354 1.400 . S
C2355 C2356 1.398 . S
C2355 C2361 1.491 . S
C2356 H2347 0.950 . S
C2356 C2355 1.398 . S
C2356 C2357 1.391 . S
C2357 H2345 0.950 . S
C2357 C2353 1.393 . S
C2357 C2356 1.391 . S
C2358 H2348 0.950 . S
C2358 C2359 1.386 . S
C2358 C2360 1.391 . S
C2359 C2358 1.386 . S
C2359 C2363 1.393 . S
C2360 H2349 0.950 . S
C2360 C2358 1.391 . S
C2360 C2361 1.400 . S
C2361 C2355 1.491 . S
C2361 C2360 1.400 . S
C2361 C2362 1.398 . S
C2362 H2350 0.950 . S
C2362 C2361 1.398 . S
C2362 C2363 1.391 . S
C2363 H2351 0.950 . S
C2363 C2359 1.393 . S
C2363 C2362 1.391 . S
H2364 C2372 0.950 . S
H2365 C2377 0.950 . S
H2366 C2374 0.950 . S
H2367 C2376 0.950 . S
H2368 C2378 0.950 . S
H2369 C2380 0.950 . S
H2370 C2382 0.950 . S
H2371 C2383 0.950 . S
C2372 H2364 0.950 . S
C2372 C2373 1.386 . S
C2372 C2374 1.391 . S
C2373 C2372 1.386 . S
C2373 C2377 1.393 . S
C2374 H2366 0.950 . S
C2374 C2372 1.391 . S
C2374 C2375 1.400 . S
C2375 C2374 1.400 . S
C2375 C2376 1.398 . S
C2375 C2381 1.491 . S
C2376 H2367 0.950 . S
C2376 C2375 1.398 . S
C2376 C2377 1.391 . S
C2377 H2365 0.950 . S
C2377 C2373 1.393 . S
C2377 C2376 1.391 . S
C2378 H2368 0.950 . S
C2378 C2379 1.386 . S
C2378 C2380 1.391 . S
C2379 C2378 1.386 . S
C2379 C2383 1.393 . S
C2380 H2369 0.950 . S
C2380 C2378 1.391 . S
C2380 C2381 1.400 . S
C2381 C2375 1.491 . S
C2381 C2380 1.400 . S
C2381 C2382 1.398 . S
C2382 H2370 0.950 . S
C2382 C2381 1.398 . S
C2382 C2383 1.391 . S
C2383 H2371 0.950 . S
C2383 C2379 1.393 . S
C2383 C2382 1.391 . S
H2384 C2392 0.950 . S
H2385 C2397 0.950 . S
H2386 C2394 0.950 . S
H2387 C2396 0.950 . S
H2388 C2398 0.950 . S
H2389 C2400 0.950 . S
H2390 C2402 0.950 . S
H2391 C2403 0.950 . S
C2392 H2384 0.950 . S
C2392 C2393 1.386 . S
C2392 C2394 1.391 . S
C2393 C2392 1.386 . S
C2393 C2397 1.393 . S
C2394 H2386 0.950 . S
C2394 C2392 1.391 . S
C2394 C2395 1.400 . S
C2395 C2394 1.400 . S
C2395 C2396 1.398 . S
C2395 C2401 1.491 . S
C2396 H2387 0.950 . S
C2396 C2395 1.398 . S
C2396 C2397 1.391 . S
C2397 H2385 0.950 . S
C2397 C2393 1.393 . S
C2397 C2396 1.391 . S
C2398 H2388 0.950 . S
C2398 C2399 1.386 . S
C2398 C2400 1.391 . S
C2399 C2398 1.386 . S
C2399 C2403 1.393 . S
C2400 H2389 0.950 . S
C2400 C2398 1.391 . S
C2400 C2401 1.400 . S
C2401 C2395 1.491 . S
C2401 C2400 1.400 . S
C2401 C2402 1.398 . S
C2402 H2390 0.950 . S
C2402 C2401 1.398 . S
C2402 C2403 1.391 . S
C2403 H2391 0.950 . S
C2403 C2399 1.393 . S
C2403 C2402 1.391 . S
H2404 C2412 0.950 . S
H2405 C2417 0.950 . S
H2406 C2414 0.950 . S
H2407 C2416 0.950 . S
H2408 C2418 0.950 . S
H2409 C2420 0.950 . S
H2410 C2422 0.950 . S
H2411 C2423 0.950 . S
C2412 H2404 0.950 . S
C2412 C2413 1.386 . S
C2412 C2414 1.391 . S
C2413 C2412 1.386 . S
C2413 C2417 1.393 . S
C2414 H2406 0.950 . S
C2414 C2412 1.391 . S
C2414 C2415 1.400 . S
C2415 C2414 1.400 . S
C2415 C2416 1.398 . S
C2415 C2421 1.491 . S
C2416 H2407 0.950 . S
C2416 C2415 1.398 . S
C2416 C2417 1.391 . S
C2417 H2405 0.950 . S
C2417 C2413 1.393 . S
C2417 C2416 1.391 . S
C2418 H2408 0.950 . S
C2418 C2419 1.386 . S
C2418 C2420 1.391 . S
C2419 C2418 1.386 . S
C2419 C2423 1.393 . S
C2420 H2409 0.950 . S
C2420 C2418 1.391 . S
C2420 C2421 1.400 . S
C2421 C2415 1.491 . S
C2421 C2420 1.400 . S
C2421 C2422 1.398 . S
C2422 H2410 0.950 . S
C2422 C2421 1.398 . S
C2422 C2423 1.391 . S
C2423 H2411 0.950 . S
C2423 C2419 1.393 . S
C2423 C2422 1.391 . S
H2424 C2432 0.950 . S
H2425 C2437 0.950 . S
H2426 C2434 0.950 . S
H2427 C2436 0.950 . S
H2428 C2438 0.950 . S
H2429 C2440 0.950 . S
H2430 C2442 0.950 . S
H2431 C2443 0.950 . S
C2432 H2424 0.950 . S
C2432 C2433 1.386 . S
C2432 C2434 1.391 . S
C2433 C2432 1.386 . S
C2433 C2437 1.393 . S
C2434 H2426 0.950 . S
C2434 C2432 1.391 . S
C2434 C2435 1.400 . S
C2435 C2434 1.400 . S
C2435 C2436 1.398 . S
C2435 C2441 1.491 . S
C2436 H2427 0.950 . S
C2436 C2435 1.398 . S
C2436 C2437 1.391 . S
C2437 H2425 0.950 . S
C2437 C2433 1.393 . S
C2437 C2436 1.391 . S
C2438 H2428 0.950 . S
C2438 C2439 1.386 . S
C2438 C2440 1.391 . S
C2439 C2438 1.386 . S
C2439 C2443 1.393 . S
C2440 H2429 0.950 . S
C2440 C2438 1.391 . S
C2440 C2441 1.400 . S
C2441 C2435 1.491 . S
C2441 C2440 1.400 . S
C2441 C2442 1.398 . S
C2442 H2430 0.950 . S
C2442 C2441 1.398 . S
C2442 C2443 1.391 . S
C2443 H2431 0.950 . S
C2443 C2439 1.393 . S
C2443 C2442 1.391 . S
H2444 C2452 0.950 . S
H2445 C2457 0.950 . S
H2446 C2454 0.950 . S
H2447 C2456 0.950 . S
H2448 C2458 0.950 . S
H2449 C2460 0.950 . S
H2450 C2462 0.950 . S
H2451 C2463 0.950 . S
C2452 H2444 0.950 . S
C2452 C2453 1.386 . S
C2452 C2454 1.391 . S
C2453 C2452 1.386 . S
C2453 C2457 1.393 . S
C2454 H2446 0.950 . S
C2454 C2452 1.391 . S
C2454 C2455 1.400 . S
C2455 C2454 1.400 . S
C2455 C2456 1.398 . S
C2455 C2461 1.491 . S
C2456 H2447 0.950 . S
C2456 C2455 1.398 . S
C2456 C2457 1.391 . S
C2457 H2445 0.950 . S
C2457 C2453 1.393 . S
C2457 C2456 1.391 . S
C2458 H2448 0.950 . S
C2458 C2459 1.386 . S
C2458 C2460 1.391 . S
C2459 C2458 1.386 . S
C2459 C2463 1.393 . S
C2460 H2449 0.950 . S
C2460 C2458 1.391 . S
C2460 C2461 1.400 . S
C2461 C2455 1.491 . S
C2461 C2460 1.400 . S
C2461 C2462 1.398 . S
C2462 H2450 0.950 . S
C2462 C2461 1.398 . S
C2462 C2463 1.391 . S
C2463 H2451 0.950 . S
C2463 C2459 1.393 . S
C2463 C2462 1.391 . S
H2464 C2472 0.950 . S
H2465 C2477 0.950 . S
H2466 C2474 0.950 . S
H2467 C2476 0.950 . S
H2468 C2478 0.950 . S
H2469 C2480 0.950 . S
H2470 C2482 0.950 . S
H2471 C2483 0.950 . S
C2472 H2464 0.950 . S
C2472 C2473 1.386 . S
C2472 C2474 1.391 . S
C2473 C2472 1.386 . S
C2473 C2477 1.393 . S
C2474 H2466 0.950 . S
C2474 C2472 1.391 . S
C2474 C2475 1.400 . S
C2475 C2474 1.400 . S
C2475 C2476 1.398 . S
C2475 C2481 1.491 . S
C2476 H2467 0.950 . S
C2476 C2475 1.398 . S
C2476 C2477 1.391 . S
C2477 H2465 0.950 . S
C2477 C2473 1.393 . S
C2477 C2476 1.391 . S
C2478 H2468 0.950 . S
C2478 C2479 1.386 . S
C2478 C2480 1.391 . S
C2479 C2478 1.386 . S
C2479 C2483 1.393 . S
C2480 H2469 0.950 . S
C2480 C2478 1.391 . S
C2480 C2481 1.400 . S
C2481 C2475 1.491 . S
C2481 C2480 1.400 . S
C2481 C2482 1.398 . S
C2482 H2470 0.950 . S
C2482 C2481 1.398 . S
C2482 C2483 1.391 . S
C2483 H2471 0.950 . S
C2483 C2479 1.393 . S
C2483 C2482 1.391 . S
H2484 C2492 0.950 . S
H2485 C2497 0.950 . S
H2486 C2494 0.950 . S
H2487 C2496 0.950 . S
H2488 C2498 0.950 . S
H2489 C2500 0.950 . S
H2490 C2502 0.950 . S
H2491 C2503 0.950 . S
C2492 H2484 0.950 . S
C2492 C2493 1.386 . S
C2492 C2494 1.391 . S
C2493 C2492 1.386 . S
C2493 C2497 1.393 . S
C2494 H2486 0.950 . S
C2494 C2492 1.391 . S
C2494 C2495 1.400 . S
C2495 C2494 1.400 . S
C2495 C2496 1.398 . S
C2495 C2501 1.491 . S
C2496 H2487 0.950 . S
C2496 C2495 1.398 . S
C2496 C2497 1.391 . S
C2497 H2485 0.950 . S
C2497 C2493 1.393 . S
C2497 C2496 1.391 . S
C2498 H2488 0.950 . S
C2498 C2499 1.386 . S
C2498 C2500 1.391 . S
C2499 C2498 1.386 . S
C2499 C2503 1.393 . S
C2500 H2489 0.950 . S
C2500 C2498 1.391 . S
C2500 C2501 1.400 . S
C2501 C2495 1.491 . S
C2501 C2500 1.400 . S
C2501 C2502 1.398 . S
C2502 H2490 0.950 . S
C2502 C2501 1.398 . S
C2502 C2503 1.391 . S
C2503 H2491 0.950 . S
C2503 C2499 1.393 . S
C2503 C2502 1.391 . S
H2504 C2512 0.950 . S
H2505 C2517 0.950 . S
H2506 C2514 0.950 . S
H2507 C2516 0.950 . S
H2508 C2518 0.950 . S
H2509 C2520 0.950 . S
H2510 C2522 0.950 . S
H2511 C2523 0.950 . S
C2512 H2504 0.950 . S
C2512 C2513 1.386 . S
C2512 C2514 1.391 . S
C2513 C2512 1.386 . S
C2513 C2517 1.393 . S
C2514 H2506 0.950 . S
C2514 C2512 1.391 . S
C2514 C2515 1.400 . S
C2515 C2514 1.400 . S
C2515 C2516 1.398 . S
C2515 C2521 1.491 . S
C2516 H2507 0.950 . S
C2516 C2515 1.398 . S
C2516 C2517 1.391 . S
C2517 H2505 0.950 . S
C2517 C2513 1.393 . S
C2517 C2516 1.391 . S
C2518 H2508 0.950 . S
C2518 C2519 1.386 . S
C2518 C2520 1.391 . S
C2519 C2518 1.386 . S
C2519 C2523 1.393 . S
C2520 H2509 0.950 . S
C2520 C2518 1.391 . S
C2520 C2521 1.400 . S
C2521 C2515 1.491 . S
C2521 C2520 1.400 . S
C2521 C2522 1.398 . S
C2522 H2510 0.950 . S
C2522 C2521 1.398 . S
C2522 C2523 1.391 . S
C2523 H2511 0.950 . S
C2523 C2519 1.393 . S
C2523 C2522 1.391 . S
H2524 C2532 0.950 . S
H2525 C2537 0.950 . S
H2526 C2534 0.950 . S
H2527 C2536 0.950 . S
H2528 C2538 0.950 . S
H2529 C2540 0.950 . S
H2530 C2542 0.950 . S
H2531 C2543 0.950 . S
C2532 H2524 0.950 . S
C2532 C2533 1.386 . S
C2532 C2534 1.391 . S
C2533 C2532 1.386 . S
C2533 C2537 1.393 . S
C2534 H2526 0.950 . S
C2534 C2532 1.391 . S
C2534 C2535 1.400 . S
C2535 C2534 1.400 . S
C2535 C2536 1.398 . S
C2535 C2541 1.491 . S
C2536 H2527 0.950 . S
C2536 C2535 1.398 . S
C2536 C2537 1.391 . S
C2537 H2525 0.950 . S
C2537 C2533 1.393 . S
C2537 C2536 1.391 . S
C2538 H2528 0.950 . S
C2538 C2539 1.386 . S
C2538 C2540 1.391 . S
C2539 C2538 1.386 . S
C2539 C2543 1.393 . S
C2540 H2529 0.950 . S
C2540 C2538 1.391 . S
C2540 C2541 1.400 . S
C2541 C2535 1.491 . S
C2541 C2540 1.400 . S
C2541 C2542 1.398 . S
C2542 H2530 0.950 . S
C2542 C2541 1.398 . S
C2542 C2543 1.391 . S
C2543 H2531 0.950 . S
C2543 C2539 1.393 . S
C2543 C2542 1.391 . S
H2544 C2552 0.950 . S
H2545 C2557 0.950 . S
H2546 C2554 0.950 . S
H2547 C2556 0.950 . S
H2548 C2558 0.950 . S
H2549 C2560 0.950 . S
H2550 C2562 0.950 . S
H2551 C2563 0.950 . S
C2552 H2544 0.950 . S
C2552 C2553 1.386 . S
C2552 C2554 1.391 . S
C2553 C2552 1.386 . S
C2553 C2557 1.393 . S
C2554 H2546 0.950 . S
C2554 C2552 1.391 . S
C2554 C2555 1.400 . S
C2555 C2554 1.400 . S
C2555 C2556 1.398 . S
C2555 C2561 1.491 . S
C2556 H2547 0.950 . S
C2556 C2555 1.398 . S
C2556 C2557 1.391 . S
C2557 H2545 0.950 . S
C2557 C2553 1.393 . S
C2557 C2556 1.391 . S
C2558 H2548 0.950 . S
C2558 C2559 1.386 . S
C2558 C2560 1.391 . S
C2559 C2558 1.386 . S
C2559 C2563 1.393 . S
C2560 H2549 0.950 . S
C2560 C2558 1.391 . S
C2560 C2561 1.400 . S
C2561 C2555 1.491 . S
C2561 C2560 1.400 . S
C2561 C2562 1.398 . S
C2562 H2550 0.950 . S
C2562 C2561 1.398 . S
C2562 C2563 1.391 . S
C2563 H2551 0.950 . S
C2563 C2559 1.393 . S
C2563 C2562 1.391 . S
H2564 C2572 0.950 . S
H2565 C2577 0.950 . S
H2566 C2574 0.950 . S
H2567 C2576 0.950 . S
H2568 C2578 0.950 . S
H2569 C2580 0.950 . S
H2570 C2582 0.950 . S
H2571 C2583 0.950 . S
C2572 H2564 0.950 . S
C2572 C2573 1.386 . S
C2572 C2574 1.391 . S
C2573 C2572 1.386 . S
C2573 C2577 1.393 . S
C2574 H2566 0.950 . S
C2574 C2572 1.391 . S
C2574 C2575 1.400 . S
C2575 C2574 1.400 . S
C2575 C2576 1.398 . S
C2575 C2581 1.491 . S
C2576 H2567 0.950 . S
C2576 C2575 1.398 . S
C2576 C2577 1.391 . S
C2577 H2565 0.950 . S
C2577 C2573 1.393 . S
C2577 C2576 1.391 . S
C2578 H2568 0.950 . S
C2578 C2579 1.386 . S
C2578 C2580 1.391 . S
C2579 C2578 1.386 . S
C2579 C2583 1.393 . S
C2580 H2569 0.950 . S
C2580 C2578 1.391 . S
C2580 C2581 1.400 . S
C2581 C2575 1.491 . S
C2581 C2580 1.400 . S
C2581 C2582 1.398 . S
C2582 H2570 0.950 . S
C2582 C2581 1.398 . S
C2582 C2583 1.391 . S
C2583 H2571 0.950 . S
C2583 C2579 1.393 . S
C2583 C2582 1.391 . S
H2584 C2592 0.950 . S
H2585 C2597 0.950 . S
H2586 C2594 0.950 . S
H2587 C2596 0.950 . S
H2588 C2598 0.950 . S
H2589 C2600 0.950 . S
H2590 C2602 0.950 . S
H2591 C2603 0.950 . S
C2592 H2584 0.950 . S
C2592 C2593 1.386 . S
C2592 C2594 1.391 . S
C2593 C2592 1.386 . S
C2593 C2597 1.393 . S
C2594 H2586 0.950 . S
C2594 C2592 1.391 . S
C2594 C2595 1.400 . S
C2595 C2594 1.400 . S
C2595 C2596 1.398 . S
C2595 C2601 1.491 . S
C2596 H2587 0.950 . S
C2596 C2595 1.398 . S
C2596 C2597 1.391 . S
C2597 H2585 0.950 . S
C2597 C2593 1.393 . S
C2597 C2596 1.391 . S
C2598 H2588 0.950 . S
C2598 C2599 1.386 . S
C2598 C2600 1.391 . S
C2599 C2598 1.386 . S
C2599 C2603 1.393 . S
C2600 H2589 0.950 . S
C2600 C2598 1.391 . S
C2600 C2601 1.400 . S
C2601 C2595 1.491 . S
C2601 C2600 1.400 . S
C2601 C2602 1.398 . S
C2602 H2590 0.950 . S
C2602 C2601 1.398 . S
C2602 C2603 1.391 . S
C2603 H2591 0.950 . S
C2603 C2599 1.393 . S
C2603 C2602 1.391 . S
H2604 C2612 0.950 . S
H2605 C2617 0.950 . S
H2606 C2614 0.950 . S
H2607 C2616 0.950 . S
H2608 C2618 0.950 . S
H2609 C2620 0.950 . S
H2610 C2622 0.950 . S
H2611 C2623 0.950 . S
C2612 H2604 0.950 . S
C2612 C2613 1.386 . S
C2612 C2614 1.391 . S
C2613 C2612 1.386 . S
C2613 C2617 1.393 . S
C2614 H2606 0.950 . S
C2614 C2612 1.391 . S
C2614 C2615 1.400 . S
C2615 C2614 1.400 . S
C2615 C2616 1.398 . S
C2615 C2621 1.491 . S
C2616 H2607 0.950 . S
C2616 C2615 1.398 . S
C2616 C2617 1.391 . S
C2617 H2605 0.950 . S
C2617 C2613 1.393 . S
C2617 C2616 1.391 . S
C2618 H2608 0.950 . S
C2618 C2619 1.386 . S
C2618 C2620 1.391 . S
C2619 C2618 1.386 . S
C2619 C2623 1.393 . S
C2620 H2609 0.950 . S
C2620 C2618 1.391 . S
C2620 C2621 1.400 . S
C2621 C2615 1.491 . S
C2621 C2620 1.400 . S
C2621 C2622 1.398 . S
C2622 H2610 0.950 . S
C2622 C2621 1.398 . S
C2622 C2623 1.391 . S
C2623 H2611 0.950 . S
C2623 C2619 1.393 . S
C2623 C2622 1.391 . S
H2624 C2632 0.950 . S
H2625 C2637 0.950 . S
H2626 C2634 0.950 . S
H2627 C2636 0.950 . S
H2628 C2638 0.950 . S
H2629 C2640 0.950 . S
H2630 C2642 0.950 . S
H2631 C2643 0.950 . S
C2632 H2624 0.950 . S
C2632 C2633 1.386 . S
C2632 C2634 1.391 . S
C2633 C2632 1.386 . S
C2633 C2637 1.393 . S
C2634 H2626 0.950 . S
C2634 C2632 1.391 . S
C2634 C2635 1.400 . S
C2635 C2634 1.400 . S
C2635 C2636 1.398 . S
C2635 C2641 1.491 . S
C2636 H2627 0.950 . S
C2636 C2635 1.398 . S
C2636 C2637 1.391 . S
C2637 H2625 0.950 . S
C2637 C2633 1.393 . S
C2637 C2636 1.391 . S
C2638 H2628 0.950 . S
C2638 C2639 1.386 . S
C2638 C2640 1.391 . S
C2639 C2638 1.386 . S
C2639 C2643 1.393 . S
C2640 H2629 0.950 . S
C2640 C2638 1.391 . S
C2640 C2641 1.400 . S
C2641 C2635 1.491 . S
C2641 C2640 1.400 . S
C2641 C2642 1.398 . S
C2642 H2630 0.950 . S
C2642 C2641 1.398 . S
C2642 C2643 1.391 . S
C2643 H2631 0.950 . S
C2643 C2639 1.393 . S
C2643 C2642 1.391 . S
H2644 C2652 0.950 . S
H2645 C2657 0.950 . S
H2646 C2654 0.950 . S
H2647 C2656 0.950 . S
H2648 C2658 0.950 . S
H2649 C2660 0.950 . S
H2650 C2662 0.950 . S
H2651 C2663 0.950 . S
C2652 H2644 0.950 . S
C2652 C2653 1.386 . S
C2652 C2654 1.391 . S
C2653 C2652 1.386 . S
C2653 C2657 1.393 . S
C2654 H2646 0.950 . S
C2654 C2652 1.391 . S
C2654 C2655 1.400 . S
C2655 C2654 1.400 . S
C2655 C2656 1.398 . S
C2655 C2661 1.491 . S
C2656 H2647 0.950 . S
C2656 C2655 1.398 . S
C2656 C2657 1.391 . S
C2657 H2645 0.950 . S
C2657 C2653 1.393 . S
C2657 C2656 1.391 . S
C2658 H2648 0.950 . S
C2658 C2659 1.386 . S
C2658 C2660 1.391 . S
C2659 C2658 1.386 . S
C2659 C2663 1.393 . S
C2660 H2649 0.950 . S
C2660 C2658 1.391 . S
C2660 C2661 1.400 . S
C2661 C2655 1.491 . S
C2661 C2660 1.400 . S
C2661 C2662 1.398 . S
C2662 H2650 0.950 . S
C2662 C2661 1.398 . S
C2662 C2663 1.391 . S
C2663 H2651 0.950 . S
C2663 C2659 1.393 . S
C2663 C2662 1.391 . S
H2664 C2672 0.950 . S
H2665 C2677 0.950 . S
H2666 C2674 0.950 . S
H2667 C2676 0.950 . S
H2668 C2678 0.950 . S
H2669 C2680 0.950 . S
H2670 C2682 0.950 . S
H2671 C2683 0.950 . S
C2672 H2664 0.950 . S
C2672 C2673 1.386 . S
C2672 C2674 1.391 . S
C2673 C2672 1.386 . S
C2673 C2677 1.393 . S
C2674 H2666 0.950 . S
C2674 C2672 1.391 . S
C2674 C2675 1.400 . S
C2675 C2674 1.400 . S
C2675 C2676 1.398 . S
C2675 C2681 1.491 1_565 S
C2676 H2667 0.950 . S
C2676 C2675 1.398 . S
C2676 C2677 1.391 . S
C2677 H2665 0.950 . S
C2677 C2673 1.393 . S
C2677 C2676 1.391 . S
C2678 H2668 0.950 . S
C2678 C2679 1.386 . S
C2678 C2680 1.391 . S
C2679 C2678 1.386 . S
C2679 C2683 1.393 . S
C2680 H2669 0.950 . S
C2680 C2678 1.391 . S
C2680 C2681 1.400 . S
C2681 C2675 1.491 1_545 S
C2681 C2680 1.400 . S
C2681 C2682 1.398 . S
C2682 H2670 0.950 . S
C2682 C2681 1.398 . S
C2682 C2683 1.391 . S
C2683 H2671 0.950 . S
C2683 C2679 1.393 . S
C2683 C2682 1.391 . S
H2684 C2692 0.950 . S
H2685 C2697 0.950 . S
H2686 C2694 0.950 . S
H2687 C2696 0.950 . S
H2688 C2698 0.950 . S
H2689 C2700 0.950 . S
H2690 C2702 0.950 . S
H2691 C2703 0.950 . S
C2692 H2684 0.950 . S
C2692 C2693 1.386 . S
C2692 C2694 1.391 . S
C2693 C2692 1.386 . S
C2693 C2697 1.393 . S
C2694 H2686 0.950 . S
C2694 C2692 1.391 . S
C2694 C2695 1.400 . S
C2695 C2694 1.400 . S
C2695 C2696 1.398 . S
C2695 C2701 1.491 1_655 S
C2696 H2687 0.950 . S
C2696 C2695 1.398 . S
C2696 C2697 1.391 . S
C2697 H2685 0.950 . S
C2697 C2693 1.393 . S
C2697 C2696 1.391 . S
C2698 H2688 0.950 . S
C2698 C2699 1.386 . S
C2698 C2700 1.391 . S
C2699 C2698 1.386 . S
C2699 C2703 1.393 . S
C2700 H2689 0.950 . S
C2700 C2698 1.391 . S
C2700 C2701 1.400 . S
C2701 C2695 1.491 1_455 S
C2701 C2700 1.400 . S
C2701 C2702 1.398 . S
C2702 H2690 0.950 . S
C2702 C2701 1.398 . S
C2702 C2703 1.391 . S
C2703 H2691 0.950 . S
C2703 C2699 1.393 . S
C2703 C2702 1.391 . S
H2704 C2712 0.950 . S
H2705 C2717 0.950 . S
H2706 C2714 0.950 . S
H2707 C2716 0.950 . S
H2708 C2718 0.950 . S
H2709 C2720 0.950 . S
H2710 C2722 0.950 . S
H2711 C2723 0.950 . S
C2712 H2704 0.950 . S
C2712 C2713 1.386 . S
C2712 C2714 1.391 . S
C2713 C2712 1.386 . S
C2713 C2717 1.393 . S
C2714 H2706 0.950 . S
C2714 C2712 1.391 . S
C2714 C2715 1.400 . S
C2715 C2714 1.400 . S
C2715 C2716 1.398 . S
C2715 C2721 1.491 . S
C2716 H2707 0.950 . S
C2716 C2715 1.398 . S
C2716 C2717 1.391 . S
C2717 H2705 0.950 . S
C2717 C2713 1.393 . S
C2717 C2716 1.391 . S
C2718 H2708 0.950 . S
C2718 C2719 1.386 . S
C2718 C2720 1.391 . S
C2719 C2718 1.386 . S
C2719 C2723 1.393 . S
C2720 H2709 0.950 . S
C2720 C2718 1.391 . S
C2720 C2721 1.400 . S
C2721 C2715 1.491 . S
C2721 C2720 1.400 . S
C2721 C2722 1.398 . S
C2722 H2710 0.950 . S
C2722 C2721 1.398 . S
C2722 C2723 1.391 . S
C2723 H2711 0.950 . S
C2723 C2719 1.393 . S
C2723 C2722 1.391 . S
H2724 C2732 0.950 . S
H2725 C2737 0.950 . S
H2726 C2734 0.950 . S
H2727 C2736 0.950 . S
H2728 C2738 0.950 . S
H2729 C2740 0.950 . S
H2730 C2742 0.950 . S
H2731 C2743 0.950 . S
C2732 H2724 0.950 . S
C2732 C2733 1.386 . S
C2732 C2734 1.391 . S
C2733 C2732 1.386 . S
C2733 C2737 1.393 . S
C2734 H2726 0.950 . S
C2734 C2732 1.391 . S
C2734 C2735 1.400 . S
C2735 C2734 1.400 . S
C2735 C2736 1.398 . S
C2735 C2741 1.491 1_545 S
C2736 H2727 0.950 . S
C2736 C2735 1.398 . S
C2736 C2737 1.391 . S
C2737 H2725 0.950 . S
C2737 C2733 1.393 . S
C2737 C2736 1.391 . S
C2738 H2728 0.950 . S
C2738 C2739 1.386 . S
C2738 C2740 1.391 . S
C2739 C2738 1.386 . S
C2739 C2743 1.393 . S
C2740 H2729 0.950 . S
C2740 C2738 1.391 . S
C2740 C2741 1.400 . S
C2741 C2735 1.491 1_565 S
C2741 C2740 1.400 . S
C2741 C2742 1.398 . S
C2742 H2730 0.950 . S
C2742 C2741 1.398 . S
C2742 C2743 1.391 . S
C2743 H2731 0.950 . S
C2743 C2739 1.393 . S
C2743 C2742 1.391 . S
H2744 C2752 0.950 . S
H2745 C2757 0.950 . S
H2746 C2754 0.950 . S
H2747 C2756 0.950 . S
H2748 C2758 0.950 . S
H2749 C2760 0.950 . S
H2750 C2762 0.950 . S
H2751 C2763 0.950 . S
C2752 H2744 0.950 . S
C2752 C2753 1.386 . S
C2752 C2754 1.391 . S
C2753 C2752 1.386 . S
C2753 C2757 1.393 . S
C2754 H2746 0.950 . S
C2754 C2752 1.391 . S
C2754 C2755 1.400 . S
C2755 C2754 1.400 . S
C2755 C2756 1.398 . S
C2755 C2761 1.491 1_655 S
C2756 H2747 0.950 . S
C2756 C2755 1.398 . S
C2756 C2757 1.391 . S
C2757 H2745 0.950 . S
C2757 C2753 1.393 . S
C2757 C2756 1.391 . S
C2758 H2748 0.950 . S
C2758 C2759 1.386 . S
C2758 C2760 1.391 . S
C2759 C2758 1.386 . S
C2759 C2763 1.393 . S
C2760 H2749 0.950 . S
C2760 C2758 1.391 . S
C2760 C2761 1.400 . S
C2761 C2755 1.491 1_455 S
C2761 C2760 1.400 . S
C2761 C2762 1.398 . S
C2762 H2750 0.950 . S
C2762 C2761 1.398 . S
C2762 C2763 1.391 . S
C2763 H2751 0.950 . S
C2763 C2759 1.393 . S
C2763 C2762 1.391 . S
H2764 C2772 0.950 . S
H2765 C2777 0.950 . S
H2766 C2774 0.950 . S
H2767 C2776 0.950 . S
H2768 C2778 0.950 . S
H2769 C2780 0.950 . S
H2770 C2782 0.950 . S
H2771 C2783 0.950 . S
C2772 H2764 0.950 . S
C2772 C2773 1.386 . S
C2772 C2774 1.391 . S
C2773 C2772 1.386 . S
C2773 C2777 1.393 . S
C2774 H2766 0.950 . S
C2774 C2772 1.391 . S
C2774 C2775 1.400 . S
C2775 C2774 1.400 . S
C2775 C2776 1.398 . S
C2775 C2781 1.491 . S
C2776 H2767 0.950 . S
C2776 C2775 1.398 . S
C2776 C2777 1.391 . S
C2777 H2765 0.950 . S
C2777 C2773 1.393 . S
C2777 C2776 1.391 . S
C2778 H2768 0.950 . S
C2778 C2779 1.386 . S
C2778 C2780 1.391 . S
C2779 C2778 1.386 . S
C2779 C2783 1.393 . S
C2780 H2769 0.950 . S
C2780 C2778 1.391 . S
C2780 C2781 1.400 . S
C2781 C2775 1.491 . S
C2781 C2780 1.400 . S
C2781 C2782 1.398 . S
C2782 H2770 0.950 . S
C2782 C2781 1.398 . S
C2782 C2783 1.391 . S
C2783 H2771 0.950 . S
C2783 C2779 1.393 . S
C2783 C2782 1.391 . S
H2784 C2792 0.950 . S
H2785 C2797 0.950 . S
H2786 C2794 0.950 . S
H2787 C2796 0.950 . S
H2788 C2798 0.950 . S
H2789 C2800 0.950 . S
H2790 C2802 0.950 . S
H2791 C2803 0.950 . S
C2792 H2784 0.950 . S
C2792 C2793 1.386 . S
C2792 C2794 1.391 . S
C2793 C2792 1.386 . S
C2793 C2797 1.393 . S
C2794 H2786 0.950 . S
C2794 C2792 1.391 . S
C2794 C2795 1.400 . S
C2795 C2794 1.400 . S
C2795 C2796 1.398 . S
C2795 C2801 1.491 . S
C2796 H2787 0.950 . S
C2796 C2795 1.398 . S
C2796 C2797 1.391 . S
C2797 H2785 0.950 . S
C2797 C2793 1.393 . S
C2797 C2796 1.391 . S
C2798 H2788 0.950 . S
C2798 C2799 1.386 . S
C2798 C2800 1.391 . S
C2799 C2798 1.386 . S
C2799 C2803 1.393 . S
C2800 H2789 0.950 . S
C2800 C2798 1.391 . S
C2800 C2801 1.400 . S
C2801 C2795 1.491 . S
C2801 C2800 1.400 . S
C2801 C2802 1.398 . S
C2802 H2790 0.950 . S
C2802 C2801 1.398 . S
C2802 C2803 1.391 . S
C2803 H2791 0.950 . S
C2803 C2799 1.393 . S
C2803 C2802 1.391 . S
H2804 C2812 0.950 . S
H2805 C2817 0.950 . S
H2806 C2814 0.950 . S
H2807 C2816 0.950 . S
H2808 C2818 0.950 . S
H2809 C2820 0.950 . S
H2810 C2822 0.950 . S
H2811 C2823 0.950 . S
C2812 H2804 0.950 . S
C2812 C2813 1.386 . S
C2812 C2814 1.391 . S
C2813 C2812 1.386 . S
C2813 C2817 1.393 . S
C2814 H2806 0.950 . S
C2814 C2812 1.391 . S
C2814 C2815 1.400 . S
C2815 C2814 1.400 . S
C2815 C2816 1.398 . S
C2815 C2821 1.491 . S
C2816 H2807 0.950 . S
C2816 C2815 1.398 . S
C2816 C2817 1.391 . S
C2817 H2805 0.950 . S
C2817 C2813 1.393 . S
C2817 C2816 1.391 . S
C2818 H2808 0.950 . S
C2818 C2819 1.386 . S
C2818 C2820 1.391 . S
C2819 C2818 1.386 . S
C2819 C2823 1.393 . S
C2820 H2809 0.950 . S
C2820 C2818 1.391 . S
C2820 C2821 1.400 . S
C2821 C2815 1.491 . S
C2821 C2820 1.400 . S
C2821 C2822 1.398 . S
C2822 H2810 0.950 . S
C2822 C2821 1.398 . S
C2822 C2823 1.391 . S
C2823 H2811 0.950 . S
C2823 C2819 1.393 . S
C2823 C2822 1.391 . S
H2824 C2832 0.950 . S
H2825 C2837 0.950 . S
H2826 C2834 0.950 . S
H2827 C2836 0.950 . S
H2828 C2838 0.950 . S
H2829 C2840 0.950 . S
H2830 C2842 0.950 . S
H2831 C2843 0.950 . S
C2832 H2824 0.950 . S
C2832 C2833 1.386 . S
C2832 C2834 1.391 . S
C2833 C2832 1.386 . S
C2833 C2837 1.393 . S
C2834 H2826 0.950 . S
C2834 C2832 1.391 . S
C2834 C2835 1.400 . S
C2835 C2834 1.400 . S
C2835 C2836 1.398 . S
C2835 C2841 1.491 . S
C2836 H2827 0.950 . S
C2836 C2835 1.398 . S
C2836 C2837 1.391 . S
C2837 H2825 0.950 . S
C2837 C2833 1.393 . S
C2837 C2836 1.391 . S
C2838 H2828 0.950 . S
C2838 C2839 1.386 . S
C2838 C2840 1.391 . S
C2839 C2838 1.386 . S
C2839 C2843 1.393 . S
C2840 H2829 0.950 . S
C2840 C2838 1.391 . S
C2840 C2841 1.400 . S
C2841 C2835 1.491 . S
C2841 C2840 1.400 . S
C2841 C2842 1.398 . S
C2842 H2830 0.950 . S
C2842 C2841 1.398 . S
C2842 C2843 1.391 . S
C2843 H2831 0.950 . S
C2843 C2839 1.393 . S
C2843 C2842 1.391 . S
H2844 C2852 0.950 . S
H2845 C2857 0.950 . S
H2846 C2854 0.950 . S
H2847 C2856 0.950 . S
H2848 C2858 0.950 . S
H2849 C2860 0.950 . S
H2850 C2862 0.950 . S
H2851 C2863 0.950 . S
C2852 H2844 0.950 . S
C2852 C2853 1.386 . S
C2852 C2854 1.391 . S
C2853 C2852 1.386 . S
C2853 C2857 1.393 . S
C2854 H2846 0.950 . S
C2854 C2852 1.391 . S
C2854 C2855 1.400 . S
C2855 C2854 1.400 . S
C2855 C2856 1.398 . S
C2855 C2861 1.491 . S
C2856 H2847 0.950 . S
C2856 C2855 1.398 . S
C2856 C2857 1.391 . S
C2857 H2845 0.950 . S
C2857 C2853 1.393 . S
C2857 C2856 1.391 . S
C2858 H2848 0.950 . S
C2858 C2859 1.386 . S
C2858 C2860 1.391 . S
C2859 C2858 1.386 . S
C2859 C2863 1.393 . S
C2860 H2849 0.950 . S
C2860 C2858 1.391 . S
C2860 C2861 1.400 . S
C2861 C2855 1.491 . S
C2861 C2860 1.400 . S
C2861 C2862 1.398 . S
C2862 H2850 0.950 . S
C2862 C2861 1.398 . S
C2862 C2863 1.391 . S
C2863 H2851 0.950 . S
C2863 C2859 1.393 . S
C2863 C2862 1.391 . S
H2864 C2872 0.950 . S
H2865 C2877 0.950 1_556 S
H2866 C2874 0.950 . S
H2867 C2876 0.950 . S
H2868 C2878 0.950 . S
H2869 C2880 0.950 . S
H2870 C2882 0.950 . S
H2871 C2883 0.950 . S
C2872 H2864 0.950 . S
C2872 C2873 1.386 . S
C2872 C2874 1.391 . S
C2873 C2872 1.386 . S
C2873 C2877 1.393 . S
C2874 H2866 0.950 . S
C2874 C2872 1.391 . S
C2874 C2875 1.400 . S
C2875 C2874 1.400 . S
C2875 C2876 1.398 . S
C2875 C2881 1.491 . S
C2876 H2867 0.950 . S
C2876 C2875 1.398 . S
C2876 C2877 1.391 . S
C2877 H2865 0.950 1_554 S
C2877 C2873 1.393 . S
C2877 C2876 1.391 . S
C2878 H2868 0.950 . S
C2878 C2879 1.386 . S
C2878 C2880 1.391 . S
C2879 C2878 1.386 . S
C2879 C2883 1.393 . S
C2880 H2869 0.950 . S
C2880 C2878 1.391 . S
C2880 C2881 1.400 . S
C2881 C2875 1.491 . S
C2881 C2880 1.400 . S
C2881 C2882 1.398 . S
C2882 H2870 0.950 . S
C2882 C2881 1.398 . S
C2882 C2883 1.391 . S
C2883 H2871 0.950 . S
C2883 C2879 1.393 . S
C2883 C2882 1.391 . S
H2884 C2892 0.950 . S
H2885 C2897 0.950 . S
H2886 C2894 0.950 . S
H2887 C2896 0.950 . S
H2888 C2898 0.950 . S
H2889 C2900 0.950 . S
H2890 C2902 0.950 . S
H2891 C2903 0.950 . S
C2892 H2884 0.950 . S
C2892 C2893 1.386 . S
C2892 C2894 1.391 . S
C2893 C2892 1.386 . S
C2893 C2897 1.393 . S
C2894 H2886 0.950 . S
C2894 C2892 1.391 . S
C2894 C2895 1.400 . S
C2895 C2894 1.400 . S
C2895 C2896 1.398 . S
C2895 C2901 1.491 . S
C2896 H2887 0.950 . S
C2896 C2895 1.398 . S
C2896 C2897 1.391 . S
C2897 H2885 0.950 . S
C2897 C2893 1.393 . S
C2897 C2896 1.391 . S
C2898 H2888 0.950 . S
C2898 C2899 1.386 . S
C2898 C2900 1.391 . S
C2899 C2898 1.386 . S
C2899 C2903 1.393 . S
C2900 H2889 0.950 . S
C2900 C2898 1.391 . S
C2900 C2901 1.400 . S
C2901 C2895 1.491 . S
C2901 C2900 1.400 . S
C2901 C2902 1.398 . S
C2902 H2890 0.950 . S
C2902 C2901 1.398 . S
C2902 C2903 1.391 . S
C2903 H2891 0.950 . S
C2903 C2899 1.393 . S
C2903 C2902 1.391 . S
H2904 C2912 0.950 . S
H2905 C2917 0.950 . S
H2906 C2914 0.950 . S
H2907 C2916 0.950 . S
H2908 C2918 0.950 . S
H2909 C2920 0.950 . S
H2910 C2922 0.950 . S
H2911 C2923 0.950 . S
C2912 H2904 0.950 . S
C2912 C2913 1.386 . S
C2912 C2914 1.391 . S
C2913 C2912 1.386 . S
C2913 C2917 1.393 . S
C2914 H2906 0.950 . S
C2914 C2912 1.391 . S
C2914 C2915 1.400 . S
C2915 C2914 1.400 . S
C2915 C2916 1.398 . S
C2915 C2921 1.491 . S
C2916 H2907 0.950 . S
C2916 C2915 1.398 . S
C2916 C2917 1.391 . S
C2917 H2905 0.950 . S
C2917 C2913 1.393 . S
C2917 C2916 1.391 . S
C2918 H2908 0.950 . S
C2918 C2919 1.386 . S
C2918 C2920 1.391 . S
C2919 C2918 1.386 . S
C2919 C2923 1.393 . S
C2920 H2909 0.950 . S
C2920 C2918 1.391 . S
C2920 C2921 1.400 . S
C2921 C2915 1.491 . S
C2921 C2920 1.400 . S
C2921 C2922 1.398 . S
C2922 H2910 0.950 . S
C2922 C2921 1.398 . S
C2922 C2923 1.391 . S
C2923 H2911 0.950 . S
C2923 C2919 1.393 . S
C2923 C2922 1.391 . S
H2924 C2932 0.950 . S
H2925 C2937 0.950 1_554 S
H2926 C2934 0.950 . S
H2927 C2936 0.935 1_554 S
H2928 C2938 0.950 . S
H2929 C2940 0.950 . S
H2930 C2942 0.950 . S
H2931 C2943 0.950 . S
C2932 H2924 0.950 . S
C2932 C2933 1.386 . S
C2932 C2934 1.391 . S
C2933 C2932 1.386 . S
C2933 C2937 1.393 . S
C2934 H2926 0.950 . S
C2934 C2932 1.391 . S
C2934 C2935 1.400 . S
C2935 C2934 1.400 . S
C2935 C2936 1.398 . S
C2935 C2941 1.491 . S
C2936 H2927 0.935 1_556 S
C2936 C2935 1.398 . S
C2936 C2937 1.391 . S
C2937 H2925 0.950 1_556 S
C2937 C2933 1.393 . S
C2937 C2936 1.391 . S
C2938 H2928 0.950 . S
C2938 C2939 1.386 . S
C2938 C2940 1.391 . S
C2939 C2938 1.386 . S
C2939 C2943 1.393 . S
C2940 H2929 0.950 . S
C2940 C2938 1.391 . S
C2940 C2941 1.400 . S
C2941 C2935 1.491 . S
C2941 C2940 1.400 . S
C2941 C2942 1.398 . S
C2942 H2930 0.950 . S
C2942 C2941 1.398 . S
C2942 C2943 1.391 . S
C2943 H2931 0.950 . S
C2943 C2939 1.393 . S
C2943 C2942 1.391 . S
H2944 C2952 0.950 . S
H2945 C2957 0.950 . S
H2946 C2954 0.950 . S
H2947 C2956 0.950 . S
H2948 C2958 0.950 1_554 S
H2949 C2960 0.950 . S
H2950 C2962 0.950 . S
H2951 C2963 0.950 . S
C2952 H2944 0.950 . S
C2952 C2953 1.386 . S
C2952 C2954 1.391 . S
C2953 C2952 1.386 . S
C2953 C2957 1.393 . S
C2954 H2946 0.950 . S
C2954 C2952 1.391 . S
C2954 C2955 1.400 . S
C2955 C2954 1.400 . S
C2955 C2956 1.398 . S
C2955 C2961 1.491 . S
C2956 H2947 0.950 . S
C2956 C2955 1.398 . S
C2956 C2957 1.391 . S
C2957 H2945 0.950 . S
C2957 C2953 1.393 . S
C2957 C2956 1.391 . S
C2958 H2948 0.950 1_556 S
C2958 C2959 1.386 . S
C2958 C2960 1.391 . S
C2959 C2958 1.386 . S
C2959 C2963 1.393 . S
C2960 H2949 0.950 . S
C2960 C2958 1.391 . S
C2960 C2961 1.400 . S
C2961 C2955 1.491 . S
C2961 C2960 1.400 . S
C2961 C2962 1.398 . S
C2962 H2950 0.950 . S
C2962 C2961 1.398 . S
C2962 C2963 1.391 . S
C2963 H2951 0.950 . S
C2963 C2959 1.393 . S
C2963 C2962 1.391 . S
H2964 C2972 0.950 . S
H2965 C2977 0.950 . S
H2966 C2974 0.950 . S
H2967 C2976 0.950 . S
H2968 C2978 0.950 . S
H2969 C2980 0.950 . S
H2970 C2982 0.950 . S
H2971 C2983 0.950 . S
C2972 H2964 0.950 . S
C2972 C2973 1.386 . S
C2972 C2974 1.391 . S
C2973 C2972 1.386 . S
C2973 C2977 1.393 . S
C2974 H2966 0.950 . S
C2974 C2972 1.391 . S
C2974 C2975 1.400 . S
C2975 C2974 1.400 . S
C2975 C2976 1.398 . S
C2975 C2981 1.491 . S
C2976 H2967 0.950 . S
C2976 C2975 1.398 . S
C2976 C2977 1.391 . S
C2977 H2965 0.950 . S
C2977 C2973 1.393 . S
C2977 C2976 1.391 . S
C2978 H2968 0.950 . S
C2978 C2979 1.386 . S
C2978 C2980 1.391 . S
C2979 C2978 1.386 . S
C2979 C2983 1.393 . S
C2980 H2969 0.950 . S
C2980 C2978 1.391 . S
C2980 C2981 1.400 . S
C2981 C2975 1.491 . S
C2981 C2980 1.400 . S
C2981 C2982 1.398 . S
C2982 H2970 0.950 . S
C2982 C2981 1.398 . S
C2982 C2983 1.391 . S
C2983 H2971 0.950 . S
C2983 C2979 1.393 . S
C2983 C2982 1.391 . S
H2984 C2992 0.950 . S
H2985 C2997 0.950 . S
H2986 C2994 0.950 . S
H2987 C2996 0.950 . S
H2988 C2998 0.950 . S
H2989 C3000 0.950 . S
H2990 C3002 0.950 . S
H2991 C3003 0.950 . S
C2992 H2984 0.950 . S
C2992 C2993 1.386 . S
C2992 C2994 1.391 . S
C2993 C2992 1.386 . S
C2993 C2997 1.393 . S
C2994 H2986 0.950 . S
C2994 C2992 1.391 . S
C2994 C2995 1.400 . S
C2995 C2994 1.400 . S
C2995 C2996 1.398 . S
C2995 C3001 1.491 . S
C2996 H2987 0.950 . S
C2996 C2995 1.398 . S
C2996 C2997 1.391 . S
C2997 H2985 0.950 . S
C2997 C2993 1.393 . S
C2997 C2996 1.391 . S
C2998 H2988 0.950 . S
C2998 C2999 1.386 . S
C2998 C3000 1.391 . S
C2999 C2998 1.386 . S
C2999 C3003 1.393 . S
C3000 H2989 0.950 . S
C3000 C2998 1.391 . S
C3000 C3001 1.400 . S
C3001 C2995 1.491 . S
C3001 C3000 1.400 . S
C3001 C3002 1.398 . S
C3002 H2990 0.950 . S
C3002 C3001 1.398 . S
C3002 C3003 1.391 . S
C3003 H2991 0.950 . S
C3003 C2999 1.393 . S
C3003 C3002 1.391 . S
H3004 C3012 0.950 . S
H3005 C3017 0.950 . S
H3006 C3014 0.950 . S
H3007 C3016 0.950 . S
H3008 C3018 0.950 . S
H3009 C3020 0.950 . S
H3010 C3022 0.950 . S
H3011 C3023 0.950 . S
C3012 H3004 0.950 . S
C3012 C3013 1.386 . S
C3012 C3014 1.391 . S
C3013 C3012 1.386 . S
C3013 C3017 1.393 . S
C3014 H3006 0.950 . S
C3014 C3012 1.391 . S
C3014 C3015 1.400 . S
C3015 C3014 1.400 . S
C3015 C3016 1.398 . S
C3015 C3021 1.491 . S
C3016 H3007 0.950 . S
C3016 C3015 1.398 . S
C3016 C3017 1.391 . S
C3017 H3005 0.950 . S
C3017 C3013 1.393 . S
C3017 C3016 1.391 . S
C3018 H3008 0.950 . S
C3018 C3019 1.386 . S
C3018 C3020 1.391 . S
C3019 C3018 1.386 . S
C3019 C3023 1.393 . S
C3020 H3009 0.950 . S
C3020 C3018 1.391 . S
C3020 C3021 1.400 . S
C3021 C3015 1.491 . S
C3021 C3020 1.400 . S
C3021 C3022 1.398 . S
C3022 H3010 0.950 . S
C3022 C3021 1.398 . S
C3022 C3023 1.391 . S
C3023 H3011 0.950 . S
C3023 C3019 1.393 . S
C3023 C3022 1.391 . S
C1233 C549 1.361 . S
C1239 C5 1.381 . S
C1253 C583 1.370 . S
C1259 C39 1.377 . S
C1273 C73 1.370 . S
C1279 C515 1.359 . S
C1293 C889 1.371 . S
C1299 C107 1.380 . S
C1313 C821 1.359 . S
C1319 C141 1.381 . S
C1333 C855 1.379 . S
C1339 C175 1.361 . S
C1353 C1161 1.365 . S
C1359 C209 1.379 . S
C1373 C243 1.359 . S
C1379 C1195 1.376 . S
C1393 C277 1.378 . S
C1399 C1127 1.357 . S
C1413 C311 1.382 . S
C1419 C685 1.367 . S
C1433 C617 1.364 . S
C1439 C345 1.370 . S
C1453 C379 1.374 . S
C1459 C651 1.361 . S
C1473 C957 1.306 . S
C1479 C413 1.322 . S
C1493 C447 1.310 . S
C1499 C991 1.322 . S
C1513 C481 1.324 . S
C1519 C923 1.306 . S
C1533 C1093 1.322 . S
C1539 C719 1.299 . S
C1553 C753 1.305 . S
C1559 C1025 1.307 . S
C1573 C787 1.325 . S
C1579 C1059 1.303 . S
C1593 C2 0.425 . S
C1599 C614 0.426 . S
C1613 C648 0.445 . S
C1619 C36 0.444 . S
C1633 C682 0.493 . S
C1639 C70 0.491 . S
C1653 C104 0.493 . S
C1659 C1124 0.495 . S
C1673 C138 0.495 . S
C1679 C1158 0.497 . S
C1693 C172 0.429 . S
C1699 C1192 0.430 . S
C1713 C206 0.439 . S
C1719 C818 0.441 . S
C1733 C240 0.493 . S
C1739 C852 0.495 . S
C1753 C274 0.483 . S
C1759 C886 0.485 . S
C1773 C512 0.429 . S
C1779 C308 0.427 . S
C1793 C342 0.478 . S
C1799 C546 0.479 . S
C1813 C580 0.490 . S
C1819 C376 0.489 . S
C1833 C410 0.496 . S
C1839 C1022 0.496 . S
C1853 C444 0.531 . S
C1859 C1056 0.531 . S
C1873 C1090 0.495 . S
C1879 C478 0.495 . S
C1893 C920 0.553 . S
C1899 C716 0.555 . S
C1913 C954 0.561 . S
C1919 C750 0.564 . S
C1933 C988 0.562 . S
C1939 C784 0.564 . S
C1953 C33 1.133 . S
C1959 C349 1.118 . S
C1973 C67 1.130 . S
C1979 C383 1.140 . S
C1993 C315 1.139 . S
C1999 C101 1.129 . S
C2013 C135 1.154 . S
C2019 C281 1.138 . S
C2033 C213 1.125 . S
C2039 C169 1.151 . S
C2053 C247 1.147 . S
C2059 C203 1.147 . S
C2073 C145 1.145 . S
C2079 C237 1.144 . S
C2093 C179 1.117 . S
C2099 C271 1.139 . S
C2113 C305 1.130 . S
C2119 C111 1.141 . S
C2133 C339 1.138 . S
C2139 C77 1.119 . S
C2153 C9 1.134 . S
C2159 C373 1.130 . S
C2173 C407 1.140 . S
C2179 C43 1.147 . S
C2193 C441 1.198 . S
C2199 C757 1.187 . S
C2213 C475 1.186 . S
C2219 C791 1.167 . S
C2233 C723 1.165 . S
C2239 C509 1.194 . S
C2253 C543 1.130 . S
C2259 C689 1.128 . S
C2273 C577 1.129 . S
C2279 C621 1.132 . S
C2293 C611 1.141 . S
C2299 C655 1.147 . S
C2313 C645 1.163 . S
C2319 C553 1.145 . S
C2333 C679 1.150 . S
C2339 C587 1.127 . S
C2353 C519 1.143 . S
C2359 C713 1.164 . S
C2373 C485 1.065 . S
C2379 C747 1.061 . S
C2393 C417 1.055 . S
C2399 C781 1.080 . S
C2413 C451 1.073 . S
C2419 C815 1.085 . S
C2433 C1165 1.156 . S
C2439 C849 1.154 . S
C2453 C1199 1.156 . S
C2459 C883 1.152 . S
C2473 C1131 1.150 . S
C2479 C917 1.143 . S
C2493 C1097 1.057 . S
C2499 C951 1.064 . S
C2513 C985 1.074 . S
C2519 C1029 1.050 . S
C2533 C1063 1.079 . S
C2539 C1019 1.065 . S
C2553 C961 1.175 . S
C2559 C1053 1.201 . S
C2573 C995 1.170 . S
C2579 C1087 1.199 . S
C2593 C927 1.189 . S
C2599 C1121 1.184 . S
C2613 C1155 1.141 . S
C2619 C893 1.117 . S
C2633 C825 1.139 . S
C2639 C1189 1.152 . S
C2653 C859 1.121 . S
C2659 C1223 1.133 . S
C2673 C190 1.014 . S
C2679 C20 1.013 . S
C2693 C54 1.010 . S
C2699 C122 1.008 . S
C2713 C156 1.009 . S
C2719 C88 1.006 . S
C2733 C394 1.009 . S
C2739 C224 1.007 . S
C2753 C326 1.014 . S
C2759 C258 1.012 . S
C2773 C360 1.014 . S
C2779 C292 1.014 . S
C2793 C598 1.015 . S
C2799 C428 1.013 . S
C2813 C530 1.014 . S
C2819 C462 1.014 . S
C2833 C564 1.016 . S
C2839 C496 1.018 . S
C2853 C632 1.025 . S
C2859 C802 1.026 . S
C2873 C734 1.024 . S
C2879 C666 1.029 . S
C2893 C700 1.024 . S
C2899 C768 1.024 . S
C2913 C1006 1.033 . S
C2919 C836 1.035 . S
C2933 C938 1.033 . S
C2939 C870 1.032 . S
C2953 C904 1.027 . S
C2959 C972 1.029 . S
C2973 C1210 1.020 . S
C2979 C1040 1.021 . S
C2993 C1142 1.022 . S
C2999 C1074 1.021 . S
C3013 C1176 1.014 . S
C3019 C1108 1.014 . S
