# Generated by pormake.
# Topology fnk, (5)-cn, num edge types: 1
# Building blocks:
#     Node 0, Type 0, BuildingBlock: XOMCOT_clean_sbu_1, # of connection points: 5
#     Node 1, Type 0, BuildingBlock: XOMCOT_clean_sbu_1, # of connection points: 5
#     Node 2, Type 0, BuildingBlock: XOMCOT_clean_sbu_1, # of connection points: 5
#     Node 3, Type 0, BuildingBlock: XOMCOT_clean_sbu_1, # of connection points: 5
#     Node 4, Type 0, BuildingBlock: XOMCOT_clean_sbu_1, # of connection points: 5
#     Node 5, Type 0, BuildingBlock: XOMCOT_clean_sbu_1, # of connection points: 5
#     Node 6, Type 0, BuildingBlock: XOMCOT_clean_sbu_1, # of connection points: 5
#     Node 7, Type 0, BuildingBlock: XOMCOT_clean_sbu_1, # of connection points: 5
#     Node 8, Type 0, BuildingBlock: XOMCOT_clean_sbu_1, # of connection points: 5
#     Node 9, Type 0, BuildingBlock: XOMCOT_clean_sbu_1, # of connection points: 5
#     Node 10, Type 0, BuildingBlock: XOMCOT_clean_sbu_1, # of connection points: 5
#     Node 11, Type 0, BuildingBlock: XOMCOT_clean_sbu_1, # of connection points: 5
#     Node 12, Type 0, BuildingBlock: XOMCOT_clean_sbu_1, # of connection points: 5
#     Node 13, Type 0, BuildingBlock: XOMCOT_clean_sbu_1, # of connection points: 5
#     Node 14, Type 0, BuildingBlock: XOMCOT_clean_sbu_1, # of connection points: 5
#     Node 15, Type 0, BuildingBlock: XOMCOT_clean_sbu_1, # of connection points: 5
#     Edge 16, Type (0, 0), BuildingBlock: OJICUG_clean_linker_0, # of connection points: 2
#     Edge 17, Type (0, 0), BuildingBlock: OJICUG_clean_linker_0, # of connection points: 2
#     Edge 18, Type (0, 0), BuildingBlock: OJICUG_clean_linker_0, # of connection points: 2
#     Edge 19, Type (0, 0), BuildingBlock: OJICUG_clean_linker_0, # of connection points: 2
#     Edge 20, Type (0, 0), BuildingBlock: OJICUG_clean_linker_0, # of connection points: 2
#     Edge 21, Type (0, 0), BuildingBlock: OJICUG_clean_linker_0, # of connection points: 2
#     Edge 22, Type (0, 0), BuildingBlock: OJICUG_clean_linker_0, # of connection points: 2
#     Edge 23, Type (0, 0), BuildingBlock: OJICUG_clean_linker_0, # of connection points: 2
#     Edge 24, Type (0, 0), BuildingBlock: OJICUG_clean_linker_0, # of connection points: 2
#     Edge 25, Type (0, 0), BuildingBlock: OJICUG_clean_linker_0, # of connection points: 2
#     Edge 26, Type (0, 0), BuildingBlock: OJICUG_clean_linker_0, # of connection points: 2
#     Edge 27, Type (0, 0), BuildingBlock: OJICUG_clean_linker_0, # of connection points: 2
#     Edge 28, Type (0, 0), BuildingBlock: OJICUG_clean_linker_0, # of connection points: 2
#     Edge 29, Type (0, 0), BuildingBlock: OJICUG_clean_linker_0, # of connection points: 2
#     Edge 30, Type (0, 0), BuildingBlock: OJICUG_clean_linker_0, # of connection points: 2
#     Edge 31, Type (0, 0), BuildingBlock: OJICUG_clean_linker_0, # of connection points: 2
#     Edge 32, Type (0, 0), BuildingBlock: OJICUG_clean_linker_0, # of connection points: 2
#     Edge 33, Type (0, 0), BuildingBlock: OJICUG_clean_linker_0, # of connection points: 2
#     Edge 34, Type (0, 0), BuildingBlock: OJICUG_clean_linker_0, # of connection points: 2
#     Edge 35, Type (0, 0), BuildingBlock: OJICUG_clean_linker_0, # of connection points: 2
#     Edge 36, Type (0, 0), BuildingBlock: OJICUG_clean_linker_0, # of connection points: 2
#     Edge 37, Type (0, 0), BuildingBlock: OJICUG_clean_linker_0, # of connection points: 2
#     Edge 38, Type (0, 0), BuildingBlock: OJICUG_clean_linker_0, # of connection points: 2
#     Edge 39, Type (0, 0), BuildingBlock: OJICUG_clean_linker_0, # of connection points: 2
#     Edge 40, Type (0, 0), BuildingBlock: OJICUG_clean_linker_0, # of connection points: 2
#     Edge 41, Type (0, 0), BuildingBlock: OJICUG_clean_linker_0, # of connection points: 2
#     Edge 42, Type (0, 0), BuildingBlock: OJICUG_clean_linker_0, # of connection points: 2
#     Edge 43, Type (0, 0), BuildingBlock: OJICUG_clean_linker_0, # of connection points: 2
#     Edge 44, Type (0, 0), BuildingBlock: OJICUG_clean_linker_0, # of connection points: 2
#     Edge 45, Type (0, 0), BuildingBlock: OJICUG_clean_linker_0, # of connection points: 2
#     Edge 46, Type (0, 0), BuildingBlock: OJICUG_clean_linker_0, # of connection points: 2
#     Edge 47, Type (0, 0), BuildingBlock: OJICUG_clean_linker_0, # of connection points: 2
#     Edge 48, Type (0, 0), BuildingBlock: OJICUG_clean_linker_0, # of connection points: 2
#     Edge 49, Type (0, 0), BuildingBlock: OJICUG_clean_linker_0, # of connection points: 2
#     Edge 50, Type (0, 0), BuildingBlock: OJICUG_clean_linker_0, # of connection points: 2
#     Edge 51, Type (0, 0), BuildingBlock: OJICUG_clean_linker_0, # of connection points: 2
#     Edge 52, Type (0, 0), BuildingBlock: OJICUG_clean_linker_0, # of connection points: 2
#     Edge 53, Type (0, 0), BuildingBlock: OJICUG_clean_linker_0, # of connection points: 2
#     Edge 54, Type (0, 0), BuildingBlock: OJICUG_clean_linker_0, # of connection points: 2
#     Edge 55, Type (0, 0), BuildingBlock: OJICUG_clean_linker_0, # of connection points: 2
# Relax obj value: 0.633
# Max RMSD: 0.262
# Mean RMSD: 0.261
data_MOF--net-fnk--node1-XOMCOT_clean_sbu_1--edge1-OJICUG_clean_linker_0
_symmetry_space_group_name_H-M    P1
_symmetry_Int_Tables_number       1
_symmetry_cell_setting            triclinic
loop_
_symmetry_equiv_pos_as_xyz
'x, y, z'
_cell_length_a     35.20746
_cell_length_b     35.188991
_cell_length_c     35.188336
_cell_angle_alpha  89.886801
_cell_angle_beta   90.113119
_cell_angle_gamma 89.969754
loop_
_atom_site_label
_atom_site_type_symbol
_atom_site_fract_x
_atom_site_fract_y
_atom_site_fract_z
_atom_type_partial_charge
C0 C 0.19946 0.30845 0.15394 0.0
C1 C 0.22548 0.28559 0.1723 0.0
N2 N 0.24567 0.30744 0.19616 0.0
N3 N 0.20211 0.34452 0.16705 0.0
C4 C 0.23238 0.34297 0.19094 0.0
H5 H 0.17772 0.29849 0.13467 0.0
Co6 Co 0.16583 0.38396 0.15569 0.0
C7 C 0.2077 0.42867 0.21583 0.0
O8 O 0.20188 0.40026 0.23943 0.0
N9 N 0.13084 0.42343 0.1427 0.0
C10 C 0.11169 0.48147 0.12638 0.0
C11 C 0.14235 0.45757 0.12964 0.0
C12 C 0.09253 0.42691 0.14568 0.0
N13 N 0.08021 0.4625 0.13702 0.0
O14 O 0.18536 0.38655 0.10409 0.0
H15 H 0.17154 0.46499 0.12369 0.0
H16 H 0.07446 0.40428 0.1558 0.0
O17 O 0.199 0.42472 0.18022 0.0
C18 C 0.16008 0.36577 0.08743 0.0
O19 O 0.13299 0.35083 0.1083 0.0
N20 N 0.14065 0.37626 0.20186 0.0
C21 C 0.0762 0.36343 0.24365 0.0
C22 C 0.09266 0.39952 0.24369 0.0
C23 C 0.12497 0.40553 0.22206 0.0
C24 C 0.12788 0.33999 0.20688 0.0
C25 C 0.09593 0.33278 0.22852 0.0
H26 H 0.13357 0.43458 0.21705 0.0
H27 H 0.13823 0.31708 0.18973 0.0
H28 H 0.24539 0.36693 0.2045 0.0
H29 H 0.22721 0.25492 0.17063 0.0
H30 H 0.11272 0.51082 0.11721 0.0
H31 H 0.07752 0.42376 0.25511 0.0
H32 H 0.0834 0.30465 0.22777 0.0
C33 C 0.69926 0.18443 0.15295 0.0
C34 C 0.72241 0.21115 0.16972 0.0
N35 N 0.7005 0.23412 0.19075 0.0
N36 N 0.66305 0.18901 0.16513 0.0
C37 C 0.6648 0.22153 0.1856 0.0
H38 H 0.70913 0.1608 0.13604 0.0
Co39 Co 0.62213 0.15304 0.15883 0.0
C40 C 0.58384 0.19932 0.22039 0.0
O41 O 0.61427 0.19467 0.24162 0.0
N42 N 0.58092 0.11892 0.15093 0.0
C43 C 0.5221 0.10201 0.13514 0.0
C44 C 0.54727 0.13159 0.13764 0.0
C45 C 0.57553 0.08098 0.15584 0.0
N46 N 0.53955 0.06994 0.14683 0.0
O47 O 0.61587 0.17092 0.10723 0.0
H48 H 0.54136 0.16081 0.13005 0.0
H49 H 0.59734 0.06212 0.16656 0.0
O50 O 0.58433 0.18836 0.18521 0.0
C51 C 0.63711 0.14629 0.09031 0.0
O52 O 0.65317 0.11974 0.11122 0.0
N53 N 0.63337 0.12978 0.20523 0.0
C54 C 0.65669 0.08618 0.26713 0.0
C55 C 0.61824 0.09675 0.26261 0.0
C56 C 0.60713 0.11796 0.23114 0.0
C57 C 0.67046 0.11974 0.20943 0.0
C58 C 0.68312 0.10085 0.2414 0.0
H59 H 0.57724 0.12359 0.22679 0.0
H60 H 0.6904 0.12367 0.18685 0.0
H61 H 0.64084 0.23626 0.1973 0.0
H62 H 0.75316 0.2114 0.16943 0.0
H63 H 0.49324 0.10413 0.12476 0.0
H64 H 0.59598 0.08607 0.28082 0.0
H65 H 0.71311 0.09457 0.24332 0.0
C66 C 0.82618 0.6916 0.15965 0.0
C67 C 0.80189 0.71599 0.17832 0.0
N68 N 0.78133 0.6956 0.20335 0.0
N69 N 0.82073 0.65593 0.17261 0.0
C70 C 0.79287 0.65934 0.19882 0.0
H71 H 0.848 0.6998 0.13968 0.0
Co72 Co 0.85157 0.61344 0.16378 0.0
C73 C 0.78236 0.55717 0.18736 0.0
O74 O 0.75052 0.55938 0.16796 0.0
N75 N 0.88245 0.56995 0.15497 0.0
C76 C 0.89859 0.51231 0.13452 0.0
C77 C 0.8694 0.5379 0.13855 0.0
C78 C 0.9201 0.56314 0.16022 0.0
N79 N 0.93073 0.52803 0.14814 0.0
O80 O 0.83901 0.61534 0.11019 0.0
H81 H 0.84049 0.53365 0.12907 0.0
H82 H 0.93945 0.58368 0.17226 0.0
O83 O 0.80974 0.57933 0.17814 0.0
C84 C 0.86689 0.63316 0.09469 0.0
O85 O 0.8958 0.64258 0.11628 0.0
N86 N 0.86782 0.61669 0.21305 0.0
C87 C 0.90396 0.63744 0.27941 0.0
C88 C 0.86978 0.61721 0.28106 0.0
C89 C 0.85119 0.60826 0.24708 0.0
C90 C 0.89978 0.63804 0.21145 0.0
C91 C 0.9183 0.64872 0.24407 0.0
H92 H 0.82355 0.59537 0.24833 0.0
H93 H 0.91115 0.64671 0.18438 0.0
H94 H 0.78231 0.63596 0.21566 0.0
H95 H 0.80126 0.74663 0.17553 0.0
H96 H 0.89634 0.48472 0.1212 0.0
H97 H 0.858 0.60823 0.30802 0.0
H98 H 0.94499 0.66382 0.24134 0.0
C99 C 0.31095 0.81683 0.15521 0.0
C100 C 0.28373 0.79436 0.1717 0.0
N101 N 0.30113 0.76931 0.19471 0.0
N102 N 0.34572 0.80746 0.16878 0.0
C103 C 0.33863 0.77637 0.19071 0.0
H104 H 0.30497 0.84121 0.13753 0.0
Co105 Co 0.38892 0.83993 0.15963 0.0
C106 C 0.42892 0.79038 0.21707 0.0
O107 O 0.39978 0.79576 0.23969 0.0
N108 N 0.43116 0.87178 0.14839 0.0
C109 C 0.48986 0.88873 0.13254 0.0
C110 C 0.4648 0.85895 0.13548 0.0
C111 C 0.43615 0.90987 0.15187 0.0
N112 N 0.47211 0.92092 0.14326 0.0
O113 O 0.38884 0.82347 0.10659 0.0
H114 H 0.47092 0.82956 0.12896 0.0
H115 H 0.41408 0.92872 0.16181 0.0
O116 O 0.4265 0.80134 0.18188 0.0
C117 C 0.37006 0.85089 0.09077 0.0
O118 O 0.35952 0.87935 0.11251 0.0
N119 N 0.38479 0.86229 0.20787 0.0
C120 C 0.3793 0.92194 0.25753 0.0
C121 C 0.41392 0.90305 0.25369 0.0
C122 C 0.41625 0.87347 0.22791 0.0
C123 C 0.34988 0.87633 0.21706 0.0
C124 C 0.34635 0.90564 0.24292 0.0
H125 H 0.44423 0.86349 0.2203 0.0
H126 H 0.32509 0.86931 0.20084 0.0
H127 H 0.35984 0.75929 0.20454 0.0
H128 H 0.2533 0.79819 0.16935 0.0
H129 H 0.51898 0.88663 0.12302 0.0
H130 H 0.43988 0.91525 0.26491 0.0
H131 H 0.31912 0.91981 0.24547 0.0
C132 C 0.19406 0.68542 0.37028 0.0
C133 C 0.21711 0.71126 0.35227 0.0
N134 N 0.2315 0.69469 0.32111 0.0
N135 N 0.19258 0.65269 0.35011 0.0
C136 C 0.21731 0.65909 0.32115 0.0
H137 H 0.17726 0.69155 0.39515 0.0
Co138 Co 0.15831 0.61116 0.36122 0.0
C139 C 0.193 0.57275 0.29273 0.0
O140 O 0.17952 0.60037 0.27146 0.0
N141 N 0.12608 0.56912 0.37347 0.0
C142 C 0.10945 0.50867 0.38226 0.0
C143 C 0.13931 0.53335 0.37783 0.0
C144 C 0.08789 0.56555 0.37744 0.0
N145 N 0.07697 0.52881 0.38152 0.0
O146 O 0.1831 0.60404 0.4101 0.0
H147 H 0.16895 0.5254 0.37697 0.0
H148 H 0.06835 0.58919 0.37525 0.0
O149 O 0.18983 0.57475 0.32932 0.0
C150 C 0.15901 0.62422 0.42921 0.0
O151 O 0.13017 0.63934 0.41076 0.0
N152 N 0.1269 0.62398 0.31999 0.0
C153 C 0.05019 0.63675 0.30991 0.0
C154 C 0.06712 0.6038 0.29492 0.0
C155 C 0.10583 0.59762 0.30076 0.0
C156 C 0.11232 0.65937 0.32615 0.0
C157 C 0.0738 0.66607 0.32234 0.0
H158 H 0.11666 0.56925 0.29621 0.0
H159 H 0.12816 0.68061 0.34114 0.0
H160 H 0.22453 0.63902 0.29952 0.0
H161 H 0.22152 0.74056 0.36049 0.0
H162 H 0.11152 0.47813 0.38531 0.0
H163 H 0.05018 0.58111 0.28294 0.0
H164 H 0.06263 0.69241 0.3335 0.0
C165 C 0.32258 0.1948 0.36568 0.0
C166 C 0.29834 0.22045 0.34866 0.0
N167 N 0.31878 0.24227 0.32502 0.0
N168 N 0.35819 0.19928 0.35186 0.0
C169 C 0.35493 0.23034 0.32915 0.0
H170 H 0.31367 0.17167 0.38378 0.0
Co171 Co 0.39834 0.16277 0.35977 0.0
C172 C 0.44074 0.20844 0.30077 0.0
O173 O 0.41139 0.20389 0.27809 0.0
N174 N 0.43809 0.12706 0.36975 0.0
C175 C 0.49648 0.10521 0.381 0.0
C176 C 0.47417 0.13715 0.37809 0.0
C177 C 0.43895 0.08843 0.36919 0.0
N178 N 0.47438 0.07464 0.37542 0.0
O179 O 0.40195 0.17887 0.41253 0.0
H180 H 0.4839 0.16606 0.38155 0.0
H181 H 0.41446 0.07089 0.36298 0.0
O182 O 0.43815 0.1981 0.33614 0.0
C183 C 0.38073 0.15331 0.42819 0.0
O184 O 0.36558 0.12739 0.40596 0.0
N185 N 0.39031 0.141 0.31184 0.0
C186 C 0.37717 0.08304 0.26144 0.0
C187 C 0.414 0.09731 0.26586 0.0
C188 C 0.42002 0.12622 0.29168 0.0
C189 C 0.35387 0.13185 0.30224 0.0
C190 C 0.34661 0.10383 0.27567 0.0
H191 H 0.44905 0.13325 0.29877 0.0
H192 H 0.3301 0.14216 0.31816 0.0
H193 H 0.37798 0.24459 0.31529 0.0
H194 H 0.26765 0.22039 0.35052 0.0
H195 H 0.52666 0.10441 0.38696 0.0
H196 H 0.43858 0.08251 0.25482 0.0
H197 H 0.31766 0.09412 0.27174 0.0
C198 C 0.80204 0.31769 0.36592 0.0
C199 C 0.77774 0.29306 0.34771 0.0
N200 N 0.76136 0.31181 0.31873 0.0
N201 N 0.80175 0.35189 0.34816 0.0
C202 C 0.77496 0.34753 0.32078 0.0
H203 H 0.82139 0.30964 0.38836 0.0
Co204 Co 0.83892 0.39087 0.35733 0.0
C205 C 0.79711 0.4374 0.29727 0.0
O206 O 0.80416 0.41075 0.27224 0.0
N207 N 0.87454 0.43019 0.36876 0.0
C208 C 0.89336 0.48777 0.38651 0.0
C209 C 0.86273 0.46452 0.38087 0.0
C210 C 0.91302 0.43304 0.36834 0.0
N211 N 0.92534 0.46825 0.37861 0.0
O212 O 0.82133 0.39448 0.40937 0.0
H213 H 0.83339 0.47237 0.38534 0.0
H214 H 0.93136 0.40981 0.36015 0.0
O215 O 0.8057 0.4322 0.33278 0.0
C216 C 0.84727 0.3734 0.42477 0.0
O217 O 0.87334 0.35878 0.40238 0.0
N218 N 0.86223 0.38143 0.31047 0.0
C219 C 0.91694 0.36332 0.25752 0.0
C220 C 0.90689 0.40133 0.26358 0.0
C221 C 0.8799 0.4097 0.29074 0.0
C222 C 0.86856 0.34428 0.30114 0.0
C223 C 0.89489 0.33464 0.27362 0.0
H224 H 0.87612 0.43887 0.29864 0.0
H225 H 0.85679 0.3214 0.31756 0.0
H226 H 0.76539 0.36927 0.30184 0.0
H227 H 0.77511 0.26288 0.35315 0.0
H228 H 0.89163 0.51713 0.39528 0.0
H229 H 0.92337 0.42458 0.25197 0.0
H230 H 0.90181 0.30495 0.26928 0.0
C231 C 0.65141 0.7625 0.37289 0.0
C232 C 0.67558 0.73844 0.35378 0.0
N233 N 0.68696 0.75574 0.32161 0.0
N234 N 0.64734 0.79539 0.35335 0.0
C235 C 0.66967 0.79002 0.32228 0.0
H236 H 0.63663 0.75538 0.39881 0.0
Co237 Co 0.61208 0.83592 0.36585 0.0
C238 C 0.57106 0.79837 0.30147 0.0
O239 O 0.60263 0.80123 0.28203 0.0
N240 N 0.57488 0.87362 0.37852 0.0
C241 C 0.51711 0.89319 0.39574 0.0
C242 C 0.54064 0.8624 0.39165 0.0
C243 C 0.57146 0.91205 0.37559 0.0
N244 N 0.53621 0.92453 0.38523 0.0
O245 O 0.60425 0.81448 0.41641 0.0
H246 H 0.53274 0.83316 0.39687 0.0
H247 H 0.59404 0.93039 0.36594 0.0
O248 O 0.5708 0.80829 0.3368 0.0
C249 C 0.63047 0.83412 0.43315 0.0
O250 O 0.65191 0.85598 0.41192 0.0
N251 N 0.6267 0.86369 0.32369 0.0
C252 C 0.65054 0.93359 0.29901 0.0
C253 C 0.61457 0.92009 0.28822 0.0
C254 C 0.6031 0.88422 0.30071 0.0
C255 C 0.66325 0.87517 0.33 0.0
C256 C 0.67613 0.90967 0.31698 0.0
H257 H 0.57363 0.87623 0.29748 0.0
H258 H 0.68157 0.85976 0.3492 0.0
H259 H 0.67223 0.81032 0.29949 0.0
H260 H 0.68279 0.7098 0.36239 0.0
H261 H 0.4876 0.89233 0.40428 0.0
H262 H 0.59431 0.9386 0.2742 0.0
H263 H 0.70401 0.91955 0.32559 0.0
C264 C 0.82784 0.70978 0.86776 0.0
C265 C 0.80843 0.73554 0.84574 0.0
N266 N 0.82821 0.74122 0.81365 0.0
N267 N 0.86011 0.69912 0.8499 0.0
C268 C 0.85955 0.71932 0.81699 0.0
H269 H 0.8177 0.69864 0.89443 0.0
Co270 Co 0.89415 0.66056 0.86636 0.0
C271 C 0.96316 0.6677 0.81798 0.0
O272 O 0.96622 0.63082 0.82226 0.0
N273 N 0.92877 0.62222 0.88435 0.0
C274 C 0.9811 0.60138 0.91351 0.0
C275 C 0.95891 0.63236 0.90596 0.0
C276 C 0.93348 0.58411 0.87948 0.0
N277 N 0.96562 0.5709 0.89646 0.0
O278 O 0.9007 0.68608 0.91512 0.0
H279 H 0.96553 0.66109 0.9145 0.0
H280 H 0.91517 0.56676 0.86201 0.0
O281 O 0.93745 0.68581 0.83706 0.0
C282 C 0.87573 0.66745 0.93444 0.0
O283 O 0.85422 0.64316 0.91622 0.0
N284 N 0.88094 0.63263 0.82385 0.0
C285 C 0.85042 0.5836 0.7709 0.0
C286 C 0.87275 0.61425 0.75895 0.0
C287 C 0.88742 0.63899 0.78605 0.0
C288 C 0.85588 0.6055 0.835 0.0
C289 C 0.84025 0.58073 0.80916 0.0
H290 H 0.90419 0.66251 0.77622 0.0
H291 H 0.84945 0.60139 0.86456 0.0
H292 H 0.88122 0.71777 0.79541 0.0
H293 H 0.78073 0.74744 0.85183 0.0
H294 H 0.00714 0.60169 0.92985 0.0
H295 H 0.88058 0.61767 0.72938 0.0
H296 H 0.82343 0.55733 0.81996 0.0
C297 C 0.29954 0.81363 0.86927 0.0
C298 C 0.27405 0.78889 0.85289 0.0
N299 N 0.25476 0.80788 0.82597 0.0
N300 N 0.29733 0.84813 0.85221 0.0
C301 C 0.26812 0.84377 0.82734 0.0
H302 H 0.32055 0.80569 0.89023 0.0
Co303 Co 0.33358 0.88859 0.86023 0.0
C304 C 0.28925 0.93112 0.79838 0.0
O305 O 0.2952 0.90274 0.77496 0.0
N306 N 0.36835 0.929 0.86953 0.0
C307 C 0.3863 0.98751 0.88499 0.0
C308 C 0.35611 0.96329 0.88125 0.0
C309 C 0.40665 0.93297 0.86706 0.0
N310 N 0.41848 0.96872 0.87609 0.0
O311 O 0.31537 0.8941 0.91237 0.0
H312 H 0.32674 0.97043 0.88668 0.0
H313 H 0.42525 0.91006 0.85855 0.0
O314 O 0.29977 0.92825 0.8336 0.0
C315 C 0.34073 0.87309 0.92893 0.0
O316 O 0.36736 0.85806 0.90754 0.0
N317 N 0.35812 0.87724 0.81496 0.0
C318 C 0.42365 0.86163 0.77497 0.0
C319 C 0.4032 0.89508 0.7676 0.0
C320 C 0.37205 0.90346 0.79009 0.0
C321 C 0.3733 0.84167 0.81627 0.0
C322 C 0.40616 0.83318 0.79662 0.0
H323 H 0.36271 0.93236 0.79098 0.0
H324 H 0.36423 0.82151 0.83734 0.0
H325 H 0.25598 0.86586 0.8103 0.0
H326 H 0.27214 0.75862 0.85812 0.0
H327 H 0.38413 0.01695 0.89336 0.0
H328 H 0.41423 0.91716 0.74923 0.0
H329 H 0.41998 0.80657 0.8033 0.0
C330 C 0.19586 0.31927 0.85914 0.0
C331 C 0.21966 0.29444 0.84064 0.0
N332 N 0.19919 0.27579 0.81444 0.0
N333 N 0.16036 0.31726 0.84432 0.0
C334 C 0.1634 0.28903 0.81813 0.0
H335 H 0.20457 0.33833 0.88153 0.0
Co336 Co 0.11769 0.34764 0.86083 0.0
C337 C 0.07991 0.31537 0.79106 0.0
O338 O 0.10862 0.32872 0.77128 0.0
N339 N 0.07518 0.37589 0.87826 0.0
C340 C 0.015 0.3886 0.89266 0.0
C341 C 0.04082 0.36036 0.88498 0.0
C342 C 0.06982 0.41361 0.88377 0.0
N343 N 0.03306 0.42232 0.89128 0.0
O344 O 0.11464 0.31777 0.90697 0.0
H345 H 0.03457 0.33033 0.88323 0.0
H346 H 0.09207 0.43442 0.88009 0.0
O347 O 0.08102 0.31733 0.82777 0.0
C348 C 0.13486 0.33994 0.92821 0.0
O349 O 0.14944 0.37072 0.91297 0.0
N350 N 0.12548 0.38355 0.8223 0.0
C351 C 0.1286 0.46163 0.81264 0.0
C352 C 0.09801 0.44074 0.79765 0.0
C353 C 0.09651 0.4016 0.80358 0.0
C354 C 0.15832 0.40255 0.82991 0.0
C355 C 0.16022 0.44169 0.82619 0.0
H356 H 0.06952 0.38775 0.79915 0.0
H357 H 0.18086 0.38916 0.84551 0.0
H358 H 0.14008 0.27692 0.80259 0.0
H359 H 0.24994 0.29142 0.84511 0.0
H360 H 0.98506 0.38447 0.89811 0.0
H361 H 0.07359 0.45468 0.78512 0.0
H362 H 0.18476 0.45598 0.83789 0.0
C363 C 0.69008 0.18634 0.86677 0.0
C364 C 0.71549 0.21011 0.84887 0.0
N365 N 0.73065 0.19124 0.8194 0.0
N366 N 0.68823 0.15264 0.84828 0.0
C367 C 0.71484 0.15634 0.82067 0.0
H368 H 0.67234 0.19429 0.89048 0.0
Co369 Co 0.65285 0.11208 0.8592 0.0
C370 C 0.68852 0.07211 0.79217 0.0
O371 O 0.67629 0.09992 0.77035 0.0
N372 N 0.61944 0.07078 0.87126 0.0
C373 C 0.60204 0.01059 0.88043 0.0
C374 C 0.63222 0.035 0.8768 0.0
C375 C 0.58105 0.06748 0.87364 0.0
N376 N 0.56972 0.03085 0.87793 0.0
O377 O 0.67638 0.10541 0.90864 0.0
H378 H 0.66182 0.02685 0.87725 0.0
H379 H 0.56177 0.09118 0.87015 0.0
O380 O 0.68446 0.07449 0.82865 0.0
C381 C 0.65222 0.12621 0.92698 0.0
O382 O 0.6242 0.14166 0.90758 0.0
N383 N 0.62283 0.12482 0.81702 0.0
C384 C 0.54721 0.13982 0.80308 0.0
C385 C 0.56366 0.10597 0.78964 0.0
C386 C 0.60183 0.09869 0.79742 0.0
C387 C 0.6091 0.16073 0.82194 0.0
C388 C 0.57113 0.16862 0.81604 0.0
H389 H 0.61199 0.06992 0.79389 0.0
H390 H 0.62475 0.1817 0.83745 0.0
H391 H 0.72372 0.13412 0.80198 0.0
H392 H 0.72083 0.23957 0.85586 0.0
H393 H 0.60382 0.9801 0.88419 0.0
H394 H 0.54649 0.08356 0.77744 0.0
H395 H 0.56032 0.1955 0.82623 0.0
C396 C 0.85513 0.26331 0.64785 0.0
C397 C 0.83267 0.23796 0.66751 0.0
N398 N 0.82024 0.25505 0.69932 0.0
N399 N 0.85685 0.29669 0.66675 0.0
C400 C 0.83489 0.29045 0.69793 0.0
H401 H 0.8704 0.25696 0.62202 0.0
Co402 Co 0.8882 0.3395 0.6529 0.0
C403 C 0.93799 0.29722 0.70756 0.0
O404 O 0.90757 0.28997 0.7277 0.0
N405 N 0.92043 0.38053 0.63869 0.0
C406 C 0.97267 0.40777 0.61544 0.0
C407 C 0.95355 0.37414 0.62041 0.0
C408 C 0.91999 0.41877 0.64424 0.0
N409 N 0.95173 0.43571 0.63065 0.0
O410 O 0.89255 0.32095 0.60118 0.0
H411 H 0.96365 0.34641 0.61189 0.0
H412 H 0.89734 0.43384 0.65842 0.0
O413 O 0.93429 0.31349 0.67488 0.0
C414 C 0.86431 0.33872 0.5859 0.0
O415 O 0.84112 0.35703 0.60856 0.0
N416 N 0.87807 0.36321 0.69816 0.0
C417 C 0.85947 0.43028 0.733 0.0
C418 C 0.89481 0.41317 0.74043 0.0
C419 C 0.90396 0.37943 0.722 0.0
C420 C 0.84201 0.37704 0.69532 0.0
C421 C 0.83181 0.41026 0.7131 0.0
H422 H 0.93324 0.37038 0.72213 0.0
H423 H 0.82214 0.36469 0.6755 0.0
H424 H 0.83111 0.31063 0.7206 0.0
H425 H 0.82739 0.20869 0.65976 0.0
H426 H 1.00034 0.41139 0.60255 0.0
H427 H 0.91671 0.42812 0.75607 0.0
H428 H 0.80433 0.42255 0.7066 0.0
C429 C 0.69581 0.80802 0.65595 0.0
C430 C 0.72432 0.78514 0.67 0.0
N431 N 0.74853 0.80702 0.6898 0.0
N432 N 0.70088 0.84418 0.66797 0.0
C433 C 0.73487 0.8427 0.68612 0.0
H434 H 0.67125 0.79811 0.6404 0.0
Co435 Co 0.66381 0.88405 0.66205 0.0
C436 C 0.71342 0.92841 0.71629 0.0
O437 O 0.71321 0.89925 0.7397 0.0
N438 N 0.62798 0.92398 0.65458 0.0
C439 C 0.60794 0.98177 0.63841 0.0
C440 C 0.63819 0.95722 0.63846 0.0
C441 C 0.59072 0.92884 0.66341 0.0
N442 N 0.57795 0.96422 0.6544 0.0
O443 O 0.67704 0.88714 0.60866 0.0
H444 H 0.66622 0.96337 0.62753 0.0
H445 H 0.57369 0.90724 0.67716 0.0
O446 O 0.69988 0.92429 0.68231 0.0
C447 C 0.65034 0.86645 0.59431 0.0
O448 O 0.62471 0.85251 0.61762 0.0
N449 N 0.64458 0.87559 0.71067 0.0
C450 C 0.58662 0.86173 0.76169 0.0
C451 C 0.60723 0.89583 0.76357 0.0
C452 C 0.63422 0.90325 0.73584 0.0
C453 C 0.6299 0.83999 0.71387 0.0
C454 C 0.60123 0.83222 0.73941 0.0
H455 H 0.64282 0.93239 0.73185 0.0
H456 H 0.6354 0.81887 0.69265 0.0
H457 H 0.75012 0.86693 0.69663 0.0
H458 H 0.72525 0.75443 0.66855 0.0
H459 H 0.60806 0.0103 0.6269 0.0
H460 H 0.59869 0.91887 0.78201 0.0
H461 H 0.58728 0.80503 0.73666 0.0
C462 C 0.18182 0.68558 0.65848 0.0
C463 C 0.20572 0.70956 0.67817 0.0
N464 N 0.18476 0.72953 0.70302 0.0
N465 N 0.14582 0.69059 0.67065 0.0
C466 C 0.14865 0.71799 0.69754 0.0
H467 H 0.19062 0.6644 0.63814 0.0
Co468 Co 0.10346 0.66038 0.65815 0.0
C469 C 0.04224 0.72351 0.68292 0.0
O470 O 0.03553 0.75815 0.67066 0.0
N471 N 0.06051 0.63018 0.64502 0.0
C472 C 0.00702 0.61457 0.6148 0.0
C473 C 0.03334 0.64275 0.62093 0.0
C474 C 0.04988 0.59386 0.65303 0.0
N475 N 0.01733 0.58379 0.63507 0.0
O476 O 0.11123 0.67124 0.60417 0.0
H477 H 0.03297 0.67069 0.60806 0.0
H478 H 0.06602 0.57451 0.67061 0.0
O479 O 0.06901 0.70461 0.66646 0.0
C480 C 0.13016 0.64338 0.58994 0.0
O481 O 0.13907 0.61498 0.61249 0.0
N482 N 0.1014 0.64498 0.70819 0.0
C483 C 0.11639 0.60671 0.77506 0.0
C484 C 0.09929 0.64251 0.77631 0.0
C485 C 0.0934 0.66209 0.74213 0.0
C486 C 0.11985 0.61119 0.70731 0.0
C487 C 0.12712 0.59132 0.74012 0.0
H488 H 0.08376 0.69096 0.74346 0.0
H489 H 0.12891 0.5994 0.68057 0.0
H490 H 0.12501 0.72864 0.71382 0.0
H491 H 0.2364 0.71039 0.67623 0.0
H492 H 0.98225 0.61653 0.59662 0.0
H493 H 0.09126 0.65524 0.80311 0.0
H494 H 0.14025 0.56353 0.73803 0.0
C495 C 0.30454 0.18228 0.64512 0.0
C496 C 0.27965 0.20686 0.66273 0.0
N497 N 0.26736 0.19037 0.69498 0.0
N498 N 0.30778 0.15021 0.66602 0.0
C499 C 0.28425 0.15596 0.69591 0.0
H500 H 0.32104 0.18867 0.62006 0.0
Co501 Co 0.34389 0.11098 0.66045 0.0
C502 C 0.27936 0.05101 0.68639 0.0
O503 O 0.24902 0.05374 0.66477 0.0
N504 N 0.37936 0.07061 0.65529 0.0
C505 C 0.39918 0.01263 0.63966 0.0
C506 C 0.36922 0.0375 0.63889 0.0
C507 C 0.41623 0.06517 0.66551 0.0
N508 N 0.42892 0.02979 0.65649 0.0
O509 O 0.33163 0.10661 0.60618 0.0
H510 H 0.34153 0.03176 0.62686 0.0
H511 H 0.43332 0.08652 0.67952 0.0
O512 O 0.30761 0.07294 0.67981 0.0
C513 C 0.35802 0.12661 0.5904 0.0
O514 O 0.38404 0.14135 0.61265 0.0
N515 N 0.36017 0.12059 0.70905 0.0
C516 C 0.39736 0.14528 0.77346 0.0
C517 C 0.36655 0.12032 0.77671 0.0
C518 C 0.34749 0.10899 0.74381 0.0
C519 C 0.38749 0.14753 0.70605 0.0
C520 C 0.40625 0.16054 0.73775 0.0
H521 H 0.32265 0.09154 0.74653 0.0
H522 H 0.39569 0.15817 0.67855 0.0
H523 H 0.28078 0.1361 0.71905 0.0
H524 H 0.27342 0.23573 0.65403 0.0
H525 H 0.39925 0.9843 0.62773 0.0
H526 H 0.35854 0.10849 0.80398 0.0
H527 H 0.42998 0.17966 0.73351 0.0
C528 C 0.97345 0.47167 0.14265 0.0
C529 C 0.96849 0.51124 0.14735 0.0
H530 H 0.01237 0.42534 0.13494 0.0
C531 C 0.00121 0.534 0.1499 0.0
H532 H 0.94922 0.45286 0.14126 0.0
C533 C 0.03753 0.51793 0.14697 0.0
C534 C 0.04244 0.47857 0.14122 0.0
H535 H 0.99894 0.56444 0.15341 0.0
H536 H 0.06181 0.53659 0.14931 0.0
C537 C 0.00985 0.45563 0.13948 0.0
C538 C 0.48277 0.0276 0.1475 0.0
C539 C 0.52263 0.03228 0.1483 0.0
H540 H 0.43563 0.98926 0.14457 0.0
C541 C 0.54529 0.9994 0.14928 0.0
H542 H 0.46401 0.05193 0.1477 0.0
C543 C 0.52873 0.96315 0.14824 0.0
C544 C 0.48895 0.95853 0.14602 0.0
H545 H 0.57592 0.00153 0.15004 0.0
H546 H 0.54736 0.93873 0.14913 0.0
C547 C 0.46624 0.99137 0.14617 0.0
C548 C 0.99461 0.46233 0.36502 0.0
C549 C 0.96389 0.48309 0.37991 0.0
H550 H 0.05427 0.46062 0.3535 0.0
C551 C 0.97155 0.5193 0.39554 0.0
H552 H 0.99031 0.43472 0.35231 0.0
C553 C 0.00839 0.53425 0.39598 0.0
C554 C 0.03887 0.51344 0.38119 0.0
H555 H 0.94931 0.53647 0.40776 0.0
H556 H 0.01308 0.56205 0.40825 0.0
C557 C 0.03153 0.47724 0.36575 0.0
C558 C 0.49176 0.97449 0.40767 0.0
C559 C 0.52019 0.96238 0.38222 0.0
H560 H 0.45429 0.0197 0.42483 0.0
C561 C 0.53095 0.9871 0.35273 0.0
H562 H 0.4826 0.9561 0.43058 0.0
C563 C 0.51521 0.02367 0.34998 0.0
C564 C 0.48732 0.03579 0.3758 0.0
H565 H 0.55091 0.97784 0.3314 0.0
H566 H 0.52471 0.04261 0.32764 0.0
C567 C 0.47535 0.01071 0.40434 0.0
C568 C 0.96023 0.50111 0.88652 0.0
C569 C 0.98236 0.53328 0.89472 0.0
H570 H 0.95875 0.44092 0.87865 0.0
C571 C 0.02152 0.52807 0.90162 0.0
H572 H 0.93009 0.50385 0.8811 0.0
C573 C 0.03788 0.49188 0.90106 0.0
C574 C 0.01581 0.45968 0.89304 0.0
H575 H 0.03996 0.55199 0.90711 0.0
H576 H 0.06795 0.48927 0.90688 0.0
C577 C 0.97672 0.46482 0.88564 0.0
C578 C 0.48781 0.96349 0.86211 0.0
C579 C 0.45677 0.98441 0.87612 0.0
H580 H 0.5476 0.96188 0.85119 0.0
C581 C 0.46396 0.02142 0.89009 0.0
H582 H 0.48393 0.9353 0.85062 0.0
C583 C 0.50069 0.03674 0.89026 0.0
C584 C 0.53155 0.01556 0.87683 0.0
H585 H 0.44149 0.03889 0.90141 0.0
H586 H 0.50502 0.065 0.90156 0.0
C587 C 0.5246 0.9788 0.86253 0.0
C588 C 0.98001 0.48847 0.66713 0.0
C589 C 0.96349 0.47473 0.63348 0.0
H590 H 0.01049 0.53416 0.69403 0.0
C591 C 0.96426 0.49756 0.60082 0.0
H592 H 0.98048 0.47081 0.69237 0.0
C593 C 0.98123 0.53354 0.60165 0.0
C594 C 0.99862 0.54718 0.63501 0.0
H595 H 0.95258 0.487 0.57439 0.0
H596 H 0.98194 0.55016 0.57576 0.0
C597 C 0.99757 0.52434 0.66788 0.0
C598 C 0.49903 0.03662 0.66115 0.0
C599 C 0.46654 0.01351 0.661 0.0
H600 H 0.55966 0.03927 0.65992 0.0
C601 C 0.47159 0.97372 0.66251 0.0
H602 H 0.49639 0.06725 0.66021 0.0
C603 C 0.508 0.95749 0.66185 0.0
C604 C 0.54045 0.98059 0.6596 0.0
H605 H 0.44728 0.95494 0.66341 0.0
H606 H 0.51057 0.92685 0.66162 0.0
C607 C 0.53543 0.0204 0.66047 0.0
C608 C 0.29536 0.26612 0.22377 0.0
C609 C 0.26753 0.29426 0.22825 0.0
H610 H 0.33435 0.22821 0.2515 0.0
C611 C 0.25869 0.30694 0.26514 0.0
H612 H 0.30232 0.25571 0.1957 0.0
C613 C 0.27626 0.29067 0.29702 0.0
C614 C 0.30379 0.26226 0.29254 0.0
H615 H 0.23681 0.32815 0.26936 0.0
H616 H 0.26789 0.29963 0.32521 0.0
C617 C 0.3137 0.25063 0.25559 0.0
C618 C 0.7178 0.26414 0.29131 0.0
C619 C 0.7427 0.29486 0.28643 0.0
H620 H 0.68455 0.22093 0.2642 0.0
C621 C 0.75199 0.30653 0.24923 0.0
H622 H 0.71044 0.25443 0.31957 0.0
C623 C 0.73767 0.28703 0.21764 0.0
C624 C 0.71314 0.25617 0.22268 0.0
H625 H 0.7717 0.32967 0.24457 0.0
H626 H 0.74609 0.29562 0.18932 0.0
C627 C 0.70291 0.24519 0.25973 0.0
C628 C 0.73252 0.70736 0.29761 0.0
C629 C 0.7105 0.74025 0.29154 0.0
H630 H 0.77223 0.66751 0.27457 0.0
C631 C 0.71193 0.75762 0.25536 0.0
H632 H 0.73283 0.69328 0.32494 0.0
C633 C 0.73494 0.74291 0.22653 0.0
C634 C 0.75677 0.71013 0.23275 0.0
H635 H 0.69511 0.78246 0.24881 0.0
H636 H 0.73536 0.75697 0.19915 0.0
C637 C 0.75518 0.69243 0.26859 0.0
C638 C 0.23929 0.75028 0.27918 0.0
C639 C 0.25036 0.71345 0.28988 0.0
H640 H 0.24638 0.79648 0.24033 0.0
C641 C 0.27844 0.69482 0.26839 0.0
H642 H 0.2174 0.76516 0.29478 0.0
C643 C 0.29536 0.713 0.23708 0.0
C644 C 0.28359 0.7496 0.2261 0.0
H645 H 0.28745 0.66639 0.27604 0.0
H646 H 0.31724 0.69843 0.22117 0.0
C647 C 0.25547 0.76798 0.24761 0.0
C648 C 0.7953 0.75996 0.71397 0.0
C649 C 0.77466 0.79387 0.7187 0.0
H650 H 0.82955 0.71688 0.74073 0.0
C651 C 0.77603 0.81221 0.7542 0.0
H652 H 0.7947 0.74519 0.68701 0.0
C653 C 0.79537 0.79583 0.78481 0.0
C654 C 0.81445 0.76112 0.78058 0.0
H655 H 0.76008 0.83801 0.75911 0.0
H656 H 0.79421 0.80951 0.81233 0.0
C657 C 0.81536 0.74392 0.74456 0.0
C658 C 0.22581 0.78089 0.72703 0.0
C659 C 0.19913 0.75215 0.73391 0.0
H660 H 0.2637 0.82197 0.7512 0.0
C661 C 0.189 0.7437 0.77164 0.0
H662 H 0.23414 0.78765 0.69819 0.0
C663 C 0.20653 0.76262 0.80202 0.0
C664 C 0.2336 0.79111 0.79514 0.0
H665 H 0.1688 0.72126 0.77756 0.0
H666 H 0.19948 0.75467 0.8309 0.0
C667 C 0.24248 0.80057 0.7573 0.0
C668 C 0.21734 0.23393 0.71804 0.0
C669 C 0.24753 0.20893 0.72563 0.0
H670 H 0.17767 0.27425 0.74069 0.0
C671 C 0.25992 0.20445 0.76342 0.0
H672 H 0.20734 0.23791 0.68919 0.0
C673 C 0.24346 0.22568 0.79275 0.0
C674 C 0.21368 0.25118 0.78506 0.0
H675 H 0.28346 0.18574 0.77005 0.0
H676 H 0.25432 0.22261 0.8214 0.0
C677 C 0.20027 0.25449 0.74751 0.0
C678 C 0.80068 0.25285 0.76716 0.0
C679 C 0.79831 0.23841 0.72988 0.0
H680 H 0.7815 0.24893 0.82484 0.0
C681 C 0.77407 0.20744 0.72304 0.0
H682 H 0.81959 0.2761 0.7739 0.0
C683 C 0.75249 0.19166 0.75245 0.0
C684 C 0.75451 0.2064 0.78959 0.0
H685 H 0.77112 0.19585 0.69473 0.0
H686 H 0.73342 0.16851 0.74577 0.0
C687 C 0.77896 0.23714 0.79657 0.0
C688 C 0.18172 0.33861 0.0246 0.0
C689 C 0.15607 0.36067 0.04571 0.0
H690 H 0.1941 0.31275 0.9705 0.0
C691 C 0.12109 0.37042 0.02884 0.0
H692 H 0.20822 0.32934 0.03728 0.0
C693 C 0.1123 0.35947 0.99157 0.0
C694 C 0.13794 0.33782 0.97011 0.0
H695 H 0.10034 0.38667 0.04471 0.0
H696 H 0.08616 0.36965 0.97878 0.0
C697 C 0.17294 0.32779 0.98697 0.0
C698 C 0.67523 0.11348 0.9943 0.0
C699 C 0.65243 0.13375 0.96876 0.0
H700 H 0.68847 0.10199 0.05252 0.0
C701 C 0.62653 0.16078 0.98366 0.0
H702 H 0.69543 0.0927 0.98405 0.0
C703 C 0.6222 0.1661 0.02288 0.0
C704 C 0.64371 0.14461 0.04846 0.0
H705 H 0.60858 0.17745 0.96498 0.0
H706 H 0.60122 0.18614 0.03308 0.0
C707 C 0.67092 0.11887 0.03364 0.0
C708 C 0.90381 0.6714 1.00023 0.0
C709 C 0.87229 0.6668 0.97647 0.0
H710 H 0.92684 0.66382 0.056 0.0
C711 C 0.83806 0.65312 0.99246 0.0
H712 H 0.93066 0.68105 0.98876 0.0
C713 C 0.83592 0.64222 0.03067 0.0
C714 C 0.86789 0.64513 0.0541 0.0
H715 H 0.8131 0.64914 0.97484 0.0
H716 H 0.80948 0.63098 0.04164 0.0
C717 C 0.90158 0.66079 0.03865 0.0
C718 C 0.36721 0.8349 0.98339 0.0
C719 C 0.34335 0.8649 0.97068 0.0
H720 H 0.39441 0.80661 0.03051 0.0
C721 C 0.32619 0.88784 0.99815 0.0
H722 H 0.38082 0.8162 0.96314 0.0
C723 C 0.33417 0.88211 0.03696 0.0
C724 C 0.35945 0.85322 0.04952 0.0
H725 H 0.30785 0.9111 0.98967 0.0
H726 H 0.32104 0.90118 0.05717 0.0
C727 C 0.37512 0.82912 0.02215 0.0
C728 C 0.14189 0.66493 0.4845 0.0
C729 C 0.15992 0.63166 0.47089 0.0
H730 H 0.11802 0.6948 0.53203 0.0
C731 C 0.17112 0.60409 0.49733 0.0
H732 H 0.13289 0.68694 0.46487 0.0
C733 C 0.1624 0.60875 0.53607 0.0
C734 C 0.14219 0.64101 0.54927 0.0
H735 H 0.18447 0.57804 0.4879 0.0
H736 H 0.17035 0.58621 0.5555 0.0
C737 C 0.13307 0.66952 0.52305 0.0
C738 C 0.39408 0.16931 0.49723 0.0
C739 C 0.3729 0.1498 0.46986 0.0
H740 H 0.40582 0.17733 0.55623 0.0
C741 C 0.34478 0.1239 0.48261 0.0
H742 H 0.41585 0.18931 0.48869 0.0
C743 C 0.33888 0.11676 0.52147 0.0
C744 C 0.36104 0.13522 0.54881 0.0
H745 H 0.32752 0.10839 0.46241 0.0
H746 H 0.31768 0.09616 0.53 0.0
C747 C 0.38828 0.16208 0.53608 0.0
C748 C 0.88125 0.34178 0.47914 0.0
C749 C 0.85004 0.36371 0.46602 0.0
H750 H 0.91035 0.31637 0.52663 0.0
C751 C 0.82281 0.37521 0.49248 0.0
H752 H 0.90297 0.33213 0.45966 0.0
C753 C 0.82707 0.3656 0.53101 0.0
C754 C 0.85877 0.34442 0.54421 0.0
H755 H 0.79844 0.39179 0.48354 0.0
H756 H 0.80561 0.37555 0.55063 0.0
C757 C 0.8856 0.33235 0.51764 0.0
C758 C 0.60873 0.82771 0.50164 0.0
C759 C 0.63656 0.83748 0.47506 0.0
H760 H 0.5912 0.82956 0.55974 0.0
C761 C 0.66989 0.85584 0.48836 0.0
H762 H 0.58268 0.81409 0.49256 0.0
C763 C 0.67468 0.86546 0.52672 0.0
C764 C 0.64645 0.85668 0.55316 0.0
H765 H 0.69225 0.8638 0.46881 0.0
H766 H 0.70035 0.87995 0.53557 0.0
C767 C 0.61367 0.83711 0.54017 0.0
C768 C 0.21431 0.50401 0.29279 0.0
C769 C 0.20498 0.5372 0.27279 0.0
H770 H 0.22403 0.44413 0.29027 0.0
C771 C 0.20276 0.53521 0.23266 0.0
H772 H 0.21649 0.50432 0.32349 0.0
C773 C 0.20655 0.50051 0.2134 0.0
C774 C 0.21314 0.46683 0.23369 0.0
H775 H 0.19594 0.56021 0.216 0.0
H776 H 0.20211 0.49983 0.18296 0.0
C777 C 0.21861 0.4694 0.27348 0.0
C778 C 0.54706 0.20922 0.2809 0.0
C779 C 0.54781 0.20889 0.24063 0.0
H780 H 0.51317 0.20935 0.33167 0.0
C781 C 0.5135 0.21378 0.22112 0.0
H782 H 0.57295 0.20566 0.29718 0.0
C783 C 0.47926 0.21686 0.24119 0.0
C784 C 0.47813 0.21417 0.28139 0.0
H785 H 0.51287 0.21383 0.19034 0.0
H786 H 0.45332 0.21924 0.22477 0.0
C787 C 0.5127 0.21146 0.30098 0.0
C788 C 0.75554 0.48351 0.26296 0.0
C789 C 0.79064 0.47555 0.28033 0.0
H790 H 0.72515 0.51596 0.22105 0.0
C791 C 0.82253 0.49645 0.26828 0.0
H792 H 0.73071 0.46687 0.27023 0.0
C793 C 0.82016 0.52193 0.2377 0.0
C794 C 0.78517 0.53001 0.22021 0.0
H795 H 0.85021 0.49105 0.28023 0.0
H796 H 0.84612 0.53444 0.22708 0.0
C797 C 0.75267 0.51097 0.23393 0.0
C798 C 0.53508 0.79391 0.23943 0.0
C799 C 0.53529 0.79084 0.27959 0.0
H800 H 0.50196 0.796 0.18799 0.0
C801 C 0.50088 0.78291 0.29782 0.0
H802 H 0.56102 0.80011 0.22416 0.0
C803 C 0.46713 0.77951 0.27675 0.0
C804 C 0.46642 0.78491 0.23681 0.0
H805 H 0.49983 0.7802 0.32847 0.0
H806 H 0.4411 0.77446 0.2923 0.0
C807 C 0.50114 0.79129 0.21839 0.0
C808 C 0.8154 0.52552 0.75274 0.0
C809 C 0.84702 0.54931 0.74773 0.0
H810 H 0.79563 0.46825 0.7554 0.0
C811 C 0.88043 0.53455 0.73192 0.0
H812 H 0.7891 0.53657 0.76425 0.0
C813 C 0.88411 0.49574 0.72682 0.0
C814 C 0.85448 0.4713 0.73739 0.0
H815 H 0.90523 0.5522 0.72743 0.0
H816 H 0.91068 0.4848 0.71592 0.0
C817 C 0.81937 0.48651 0.74841 0.0
C818 C 0.52498 0.89562 0.77051 0.0
C819 C 0.5456 0.86137 0.77133 0.0
H820 H 0.47182 0.92281 0.77199 0.0
C821 C 0.52533 0.82696 0.77329 0.0
H822 H 0.53854 0.92306 0.76816 0.0
C823 C 0.4859 0.82675 0.77107 0.0
C824 C 0.46544 0.86106 0.77011 0.0
H825 H 0.53968 0.79985 0.77517 0.0
H826 H 0.47176 0.7995 0.77041 0.0
C827 C 0.48575 0.89546 0.77076 0.0
C828 C 0.09059 0.52143 0.82114 0.0
C829 C 0.12615 0.50348 0.81715 0.0
H830 H 0.0595 0.57306 0.81392 0.0
C831 C 0.15903 0.52621 0.81655 0.0
H832 H 0.06474 0.50515 0.82439 0.0
C833 C 0.15587 0.56552 0.81373 0.0
C834 C 0.11996 0.58185 0.80811 0.0
H835 H 0.18711 0.51398 0.81434 0.0
H836 H 0.1813 0.58181 0.8077 0.0
C837 C 0.08755 0.56066 0.81694 0.0
C838 C 0.44416 0.11292 0.81295 0.0
C839 C 0.42689 0.14741 0.80285 0.0
H840 H 0.49646 0.08336 0.82006 0.0
C841 C 0.44813 0.18105 0.80517 0.0
H842 H 0.4282 0.08659 0.81291 0.0
C843 C 0.48755 0.17893 0.80586 0.0
C844 C 0.50565 0.14333 0.80797 0.0
H845 H 0.43498 0.20818 0.79871 0.0
H846 H 0.50333 0.20489 0.80131 0.0
C847 C 0.48352 0.11087 0.81531 0.0
C848 C 0.71299 0.00437 0.79321 0.0
C849 C 0.70198 0.0368 0.7728 0.0
H850 H 0.7268 0.94526 0.79127 0.0
C851 C 0.70037 0.03438 0.73269 0.0
H852 H 0.7147 0.00506 0.82394 0.0
C853 C 0.7068 0.99992 0.71377 0.0
C854 C 0.71553 0.96688 0.73432 0.0
H855 H 0.69224 0.05877 0.71572 0.0
H856 H 0.70303 0.99884 0.68324 0.0
C857 C 0.72001 0.97 0.77421 0.0
C858 C 0.99161 0.65871 0.75348 0.0
C859 C 0.98183 0.6838 0.78326 0.0
H860 H 0.01651 0.65125 0.69881 0.0
C861 C 0.98989 0.72255 0.77844 0.0
H862 H 0.98501 0.6287 0.7553 0.0
C863 C 0.00892 0.73533 0.74552 0.0
C864 C 0.02003 0.70974 0.71657 0.0
H865 H 0.98235 0.74274 0.80036 0.0
H866 H 0.0158 0.76523 0.74314 0.0
C867 C 0.00984 0.67154 0.72061 0.0
C868 C 0.31315 0.01766 0.74107 0.0
C869 C 0.28018 0.02312 0.71896 0.0
H870 H 0.33958 0.9895 0.78806 0.0
C871 C 0.24803 0.00102 0.72808 0.0
H872 H 0.33933 0.03196 0.73386 0.0
C873 C 0.24952 0.97337 0.75709 0.0
C874 C 0.28243 0.9684 0.77934 0.0
H875 H 0.22214 0.00378 0.71164 0.0
H876 H 0.22549 0.95454 0.76093 0.0
C877 C 0.31356 0.99233 0.77197 0.0
C878 C 0.97711 0.2894 0.76739 0.0
C879 C 0.97554 0.29616 0.72773 0.0
H880 H 0.01066 0.29024 0.81859 0.0
C881 C 0.00937 0.30579 0.70911 0.0
H882 H 0.95166 0.28208 0.78299 0.0
C883 C 0.04337 0.30984 0.72965 0.0
C884 C 0.04458 0.30504 0.76958 0.0
H885 H 0.00941 0.31136 0.67883 0.0
H886 H 0.06853 0.3183 0.71414 0.0
C887 C 0.01104 0.29406 0.78805 0.0
C888 C 0.40082 0.9838 0.23369 0.0
C889 C 0.37958 0.96316 0.26046 0.0
H890 H 0.41419 0.03821 0.2106 0.0
C891 C 0.35392 0.98183 0.28409 0.0
H892 H 0.41994 0.96962 0.21434 0.0
C893 C 0.35087 0.0211 0.28222 0.0
C894 C 0.37287 0.042 0.25599 0.0
H895 H 0.33655 0.96607 0.30403 0.0
H896 H 0.33266 0.03504 0.30266 0.0
C897 C 0.39704 0.02285 0.23103 0.0
C898 C 0.01321 0.38132 0.21971 0.0
C899 C 0.03509 0.36036 0.24569 0.0
H900 H 0.95763 0.39611 0.20065 0.0
C901 C 0.0178 0.33428 0.26998 0.0
H902 H 0.02639 0.40071 0.19991 0.0
C903 C 0.97843 0.33194 0.27082 0.0
C904 C 0.95625 0.35521 0.24675 0.0
H905 H 0.0346 0.31705 0.28926 0.0
H906 H 0.96557 0.3142 0.29243 0.0
C907 C 0.97405 0.37824 0.21969 0.0
C908 C 0.63582 0.99872 0.32 0.0
C909 C 0.65878 0.97402 0.29904 0.0
H910 H 0.62038 0.05617 0.33049 0.0
C911 C 0.69072 0.98798 0.2804 0.0
H912 H 0.61364 0.98795 0.33813 0.0
C913 C 0.69499 0.02691 0.27609 0.0
C914 C 0.66656 0.05186 0.2897 0.0
H915 H 0.71066 0.9689 0.2668 0.0
H916 H 0.71793 0.0361 0.258 0.0
C917 C 0.64031 0.03769 0.31617 0.0
C918 C 0.94982 0.67453 0.31545 0.0
C919 C 0.92991 0.6402 0.3118 0.0
H920 H 0.00414 0.70044 0.31176 0.0
C921 C 0.94824 0.60622 0.32148 0.0
H922 H 0.93573 0.70124 0.30925 0.0
C923 C 0.98771 0.60543 0.32323 0.0
C924 C 0.00869 0.63881 0.31643 0.0
H925 H 0.93309 0.57942 0.32056 0.0
H926 H 0.00162 0.57823 0.3268 0.0
C927 C 0.98934 0.67383 0.31581 0.0
loop_
_geom_bond_atom_site_label_1
_geom_bond_atom_site_label_2
_geom_bond_distance
_geom_bond_site_symmetry_2
_ccdc_geom_bond_type
C0 C1 1.351 . S
C0 N3 1.368 . S
C0 H5 0.931 . S
C1 C0 1.351 . S
C1 N2 1.373 . S
C1 H29 0.930 . S
N2 C1 1.373 . S
N2 C4 1.340 . S
N3 C0 1.368 . S
N3 C4 1.321 . S
N3 Co6 2.135 . S
C4 N2 1.340 . S
C4 N3 1.321 . S
C4 H28 0.930 . S
H5 C0 0.931 . S
Co6 N3 2.135 . S
Co6 N9 2.121 . S
Co6 O14 2.055 . S
Co6 O17 2.039 . S
Co6 N20 2.140 . S
C7 O8 1.227 . S
C7 O17 1.265 . S
O8 C7 1.227 . S
N9 Co6 2.121 . S
N9 C11 1.375 . S
N9 C12 1.313 . S
C10 C11 1.338 . S
C10 N13 1.377 . S
C10 H30 0.930 . S
C11 N9 1.375 . S
C11 C10 1.338 . S
C11 H15 0.931 . S
C12 N9 1.313 . S
C12 N13 1.344 . S
C12 H16 0.930 . S
N13 C10 1.377 . S
N13 C12 1.344 . S
O14 Co6 2.055 . S
O14 C18 1.253 . S
H15 C11 0.931 . S
H16 C12 0.930 . S
O17 Co6 2.039 . S
O17 C7 1.265 . S
C18 O14 1.253 . S
C18 O19 1.227 . S
O19 C18 1.227 . S
N20 Co6 2.140 . S
N20 C23 1.346 . S
N20 C24 1.345 . S
C21 C22 1.387 . S
C21 C25 1.391 . S
C22 C21 1.387 . S
C22 C23 1.369 . S
C22 H31 0.929 . S
C23 N20 1.346 . S
C23 C22 1.369 . S
C23 H26 0.928 . S
C24 N20 1.345 . S
C24 C25 1.371 . S
C24 H27 0.931 . S
C25 C21 1.391 . S
C25 C24 1.371 . S
C25 H32 0.930 . S
H26 C23 0.928 . S
H27 C24 0.931 . S
H28 C4 0.930 . S
H29 C1 0.930 . S
H30 C10 0.930 . S
H31 C22 0.929 . S
H32 C25 0.930 . S
C33 C34 1.351 . S
C33 N36 1.368 . S
C33 H38 0.931 . S
C34 C33 1.351 . S
C34 N35 1.373 . S
C34 H62 0.930 . S
N35 C34 1.373 . S
N35 C37 1.340 . S
N36 C33 1.368 . S
N36 C37 1.321 . S
N36 Co39 2.135 . S
C37 N35 1.340 . S
C37 N36 1.321 . S
C37 H61 0.930 . S
H38 C33 0.931 . S
Co39 N36 2.135 . S
Co39 N42 2.121 . S
Co39 O47 2.055 . S
Co39 O50 2.039 . S
Co39 N53 2.140 . S
C40 O41 1.227 . S
C40 O50 1.265 . S
O41 C40 1.227 . S
N42 Co39 2.121 . S
N42 C44 1.375 . S
N42 C45 1.313 . S
C43 C44 1.338 . S
C43 N46 1.377 . S
C43 H63 0.930 . S
C44 N42 1.375 . S
C44 C43 1.338 . S
C44 H48 0.931 . S
C45 N42 1.313 . S
C45 N46 1.344 . S
C45 H49 0.930 . S
N46 C43 1.377 . S
N46 C45 1.344 . S
O47 Co39 2.055 . S
O47 C51 1.253 . S
H48 C44 0.931 . S
H49 C45 0.930 . S
O50 Co39 2.039 . S
O50 C40 1.265 . S
C51 O47 1.253 . S
C51 O52 1.227 . S
O52 C51 1.227 . S
N53 Co39 2.140 . S
N53 C56 1.346 . S
N53 C57 1.345 . S
C54 C55 1.387 . S
C54 C58 1.391 . S
C55 C54 1.387 . S
C55 C56 1.369 . S
C55 H64 0.929 . S
C56 N53 1.346 . S
C56 C55 1.369 . S
C56 H59 0.928 . S
C57 N53 1.345 . S
C57 C58 1.371 . S
C57 H60 0.931 . S
C58 C54 1.391 . S
C58 C57 1.371 . S
C58 H65 0.930 . S
H59 C56 0.928 . S
H60 C57 0.931 . S
H61 C37 0.930 . S
H62 C34 0.930 . S
H63 C43 0.930 . S
H64 C55 0.929 . S
H65 C58 0.930 . S
C66 C67 1.351 . S
C66 N69 1.368 . S
C66 H71 0.931 . S
C67 C66 1.351 . S
C67 N68 1.373 . S
C67 H95 0.930 . S
N68 C67 1.373 . S
N68 C70 1.340 . S
N69 C66 1.368 . S
N69 C70 1.321 . S
N69 Co72 2.135 . S
C70 N68 1.340 . S
C70 N69 1.321 . S
C70 H94 0.930 . S
H71 C66 0.931 . S
Co72 N69 2.135 . S
Co72 N75 2.121 . S
Co72 O80 2.055 . S
Co72 O83 2.039 . S
Co72 N86 2.140 . S
C73 O74 1.227 . S
C73 O83 1.265 . S
O74 C73 1.227 . S
N75 Co72 2.121 . S
N75 C77 1.375 . S
N75 C78 1.313 . S
C76 C77 1.338 . S
C76 N79 1.377 . S
C76 H96 0.930 . S
C77 N75 1.375 . S
C77 C76 1.338 . S
C77 H81 0.931 . S
C78 N75 1.313 . S
C78 N79 1.344 . S
C78 H82 0.930 . S
N79 C76 1.377 . S
N79 C78 1.344 . S
O80 Co72 2.055 . S
O80 C84 1.253 . S
H81 C77 0.931 . S
H82 C78 0.930 . S
O83 Co72 2.039 . S
O83 C73 1.265 . S
C84 O80 1.253 . S
C84 O85 1.227 . S
O85 C84 1.227 . S
N86 Co72 2.140 . S
N86 C89 1.346 . S
N86 C90 1.345 . S
C87 C88 1.387 . S
C87 C91 1.391 . S
C88 C87 1.387 . S
C88 C89 1.369 . S
C88 H97 0.929 . S
C89 N86 1.346 . S
C89 C88 1.369 . S
C89 H92 0.928 . S
C90 N86 1.345 . S
C90 C91 1.371 . S
C90 H93 0.931 . S
C91 C87 1.391 . S
C91 C90 1.371 . S
C91 H98 0.930 . S
H92 C89 0.928 . S
H93 C90 0.931 . S
H94 C70 0.930 . S
H95 C67 0.930 . S
H96 C76 0.930 . S
H97 C88 0.929 . S
H98 C91 0.930 . S
C99 C100 1.351 . S
C99 N102 1.368 . S
C99 H104 0.931 . S
C100 C99 1.351 . S
C100 N101 1.373 . S
C100 H128 0.930 . S
N101 C100 1.373 . S
N101 C103 1.340 . S
N102 C99 1.368 . S
N102 C103 1.321 . S
N102 Co105 2.135 . S
C103 N101 1.340 . S
C103 N102 1.321 . S
C103 H127 0.930 . S
H104 C99 0.931 . S
Co105 N102 2.135 . S
Co105 N108 2.121 . S
Co105 O113 2.055 . S
Co105 O116 2.039 . S
Co105 N119 2.140 . S
C106 O107 1.227 . S
C106 O116 1.265 . S
O107 C106 1.227 . S
N108 Co105 2.121 . S
N108 C110 1.375 . S
N108 C111 1.313 . S
C109 C110 1.338 . S
C109 N112 1.377 . S
C109 H129 0.930 . S
C110 N108 1.375 . S
C110 C109 1.338 . S
C110 H114 0.931 . S
C111 N108 1.313 . S
C111 N112 1.344 . S
C111 H115 0.930 . S
N112 C109 1.377 . S
N112 C111 1.344 . S
O113 Co105 2.055 . S
O113 C117 1.253 . S
H114 C110 0.931 . S
H115 C111 0.930 . S
O116 Co105 2.039 . S
O116 C106 1.265 . S
C117 O113 1.253 . S
C117 O118 1.227 . S
O118 C117 1.227 . S
N119 Co105 2.140 . S
N119 C122 1.346 . S
N119 C123 1.345 . S
C120 C121 1.387 . S
C120 C124 1.391 . S
C121 C120 1.387 . S
C121 C122 1.369 . S
C121 H130 0.929 . S
C122 N119 1.346 . S
C122 C121 1.369 . S
C122 H125 0.928 . S
C123 N119 1.345 . S
C123 C124 1.371 . S
C123 H126 0.931 . S
C124 C120 1.391 . S
C124 C123 1.371 . S
C124 H131 0.930 . S
H125 C122 0.928 . S
H126 C123 0.931 . S
H127 C103 0.930 . S
H128 C100 0.930 . S
H129 C109 0.930 . S
H130 C121 0.929 . S
H131 C124 0.930 . S
C132 C133 1.351 . S
C132 N135 1.368 . S
C132 H137 0.931 . S
C133 C132 1.351 . S
C133 N134 1.373 . S
C133 H161 0.930 . S
N134 C133 1.373 . S
N134 C136 1.340 . S
N135 C132 1.368 . S
N135 C136 1.321 . S
N135 Co138 2.135 . S
C136 N134 1.340 . S
C136 N135 1.321 . S
C136 H160 0.930 . S
H137 C132 0.931 . S
Co138 N135 2.135 . S
Co138 N141 2.121 . S
Co138 O146 2.055 . S
Co138 O149 2.039 . S
Co138 N152 2.140 . S
C139 O140 1.227 . S
C139 O149 1.265 . S
O140 C139 1.227 . S
N141 Co138 2.121 . S
N141 C143 1.375 . S
N141 C144 1.313 . S
C142 C143 1.338 . S
C142 N145 1.377 . S
C142 H162 0.930 . S
C143 N141 1.375 . S
C143 C142 1.338 . S
C143 H147 0.931 . S
C144 N141 1.313 . S
C144 N145 1.344 . S
C144 H148 0.930 . S
N145 C142 1.377 . S
N145 C144 1.344 . S
O146 Co138 2.055 . S
O146 C150 1.253 . S
H147 C143 0.931 . S
H148 C144 0.930 . S
O149 Co138 2.039 . S
O149 C139 1.265 . S
C150 O146 1.253 . S
C150 O151 1.227 . S
O151 C150 1.227 . S
N152 Co138 2.140 . S
N152 C155 1.346 . S
N152 C156 1.345 . S
C153 C154 1.387 . S
C153 C157 1.391 . S
C154 C153 1.387 . S
C154 C155 1.369 . S
C154 H163 0.929 . S
C155 N152 1.346 . S
C155 C154 1.369 . S
C155 H158 0.928 . S
C156 N152 1.345 . S
C156 C157 1.371 . S
C156 H159 0.931 . S
C157 C153 1.391 . S
C157 C156 1.371 . S
C157 H164 0.930 . S
H158 C155 0.928 . S
H159 C156 0.931 . S
H160 C136 0.930 . S
H161 C133 0.930 . S
H162 C142 0.930 . S
H163 C154 0.929 . S
H164 C157 0.930 . S
C165 C166 1.351 . S
C165 N168 1.368 . S
C165 H170 0.931 . S
C166 C165 1.351 . S
C166 N167 1.373 . S
C166 H194 0.930 . S
N167 C166 1.373 . S
N167 C169 1.340 . S
N168 C165 1.368 . S
N168 C169 1.321 . S
N168 Co171 2.135 . S
C169 N167 1.340 . S
C169 N168 1.321 . S
C169 H193 0.930 . S
H170 C165 0.931 . S
Co171 N168 2.135 . S
Co171 N174 2.121 . S
Co171 O179 2.055 . S
Co171 O182 2.039 . S
Co171 N185 2.140 . S
C172 O173 1.227 . S
C172 O182 1.265 . S
O173 C172 1.227 . S
N174 Co171 2.121 . S
N174 C176 1.375 . S
N174 C177 1.313 . S
C175 C176 1.338 . S
C175 N178 1.377 . S
C175 H195 0.930 . S
C176 N174 1.375 . S
C176 C175 1.338 . S
C176 H180 0.931 . S
C177 N174 1.313 . S
C177 N178 1.344 . S
C177 H181 0.930 . S
N178 C175 1.377 . S
N178 C177 1.344 . S
O179 Co171 2.055 . S
O179 C183 1.253 . S
H180 C176 0.931 . S
H181 C177 0.930 . S
O182 Co171 2.039 . S
O182 C172 1.265 . S
C183 O179 1.253 . S
C183 O184 1.227 . S
O184 C183 1.227 . S
N185 Co171 2.140 . S
N185 C188 1.346 . S
N185 C189 1.345 . S
C186 C187 1.387 . S
C186 C190 1.391 . S
C187 C186 1.387 . S
C187 C188 1.369 . S
C187 H196 0.929 . S
C188 N185 1.346 . S
C188 C187 1.369 . S
C188 H191 0.928 . S
C189 N185 1.345 . S
C189 C190 1.371 . S
C189 H192 0.931 . S
C190 C186 1.391 . S
C190 C189 1.371 . S
C190 H197 0.930 . S
H191 C188 0.928 . S
H192 C189 0.931 . S
H193 C169 0.930 . S
H194 C166 0.930 . S
H195 C175 0.930 . S
H196 C187 0.929 . S
H197 C190 0.930 . S
C198 C199 1.351 . S
C198 N201 1.368 . S
C198 H203 0.931 . S
C199 C198 1.351 . S
C199 N200 1.373 . S
C199 H227 0.930 . S
N200 C199 1.373 . S
N200 C202 1.340 . S
N201 C198 1.368 . S
N201 C202 1.321 . S
N201 Co204 2.135 . S
C202 N200 1.340 . S
C202 N201 1.321 . S
C202 H226 0.930 . S
H203 C198 0.931 . S
Co204 N201 2.135 . S
Co204 N207 2.121 . S
Co204 O212 2.055 . S
Co204 O215 2.039 . S
Co204 N218 2.140 . S
C205 O206 1.227 . S
C205 O215 1.265 . S
O206 C205 1.227 . S
N207 Co204 2.121 . S
N207 C209 1.375 . S
N207 C210 1.313 . S
C208 C209 1.338 . S
C208 N211 1.377 . S
C208 H228 0.930 . S
C209 N207 1.375 . S
C209 C208 1.338 . S
C209 H213 0.931 . S
C210 N207 1.313 . S
C210 N211 1.344 . S
C210 H214 0.930 . S
N211 C208 1.377 . S
N211 C210 1.344 . S
O212 Co204 2.055 . S
O212 C216 1.253 . S
H213 C209 0.931 . S
H214 C210 0.930 . S
O215 Co204 2.039 . S
O215 C205 1.265 . S
C216 O212 1.253 . S
C216 O217 1.227 . S
O217 C216 1.227 . S
N218 Co204 2.140 . S
N218 C221 1.346 . S
N218 C222 1.345 . S
C219 C220 1.387 . S
C219 C223 1.391 . S
C220 C219 1.387 . S
C220 C221 1.369 . S
C220 H229 0.929 . S
C221 N218 1.346 . S
C221 C220 1.369 . S
C221 H224 0.928 . S
C222 N218 1.345 . S
C222 C223 1.371 . S
C222 H225 0.931 . S
C223 C219 1.391 . S
C223 C222 1.371 . S
C223 H230 0.930 . S
H224 C221 0.928 . S
H225 C222 0.931 . S
H226 C202 0.930 . S
H227 C199 0.930 . S
H228 C208 0.930 . S
H229 C220 0.929 . S
H230 C223 0.930 . S
C231 C232 1.351 . S
C231 N234 1.368 . S
C231 H236 0.931 . S
C232 C231 1.351 . S
C232 N233 1.373 . S
C232 H260 0.930 . S
N233 C232 1.373 . S
N233 C235 1.340 . S
N234 C231 1.368 . S
N234 C235 1.321 . S
N234 Co237 2.135 . S
C235 N233 1.340 . S
C235 N234 1.321 . S
C235 H259 0.930 . S
H236 C231 0.931 . S
Co237 N234 2.135 . S
Co237 N240 2.121 . S
Co237 O245 2.055 . S
Co237 O248 2.039 . S
Co237 N251 2.140 . S
C238 O239 1.227 . S
C238 O248 1.265 . S
O239 C238 1.227 . S
N240 Co237 2.121 . S
N240 C242 1.375 . S
N240 C243 1.313 . S
C241 C242 1.338 . S
C241 N244 1.377 . S
C241 H261 0.930 . S
C242 N240 1.375 . S
C242 C241 1.338 . S
C242 H246 0.931 . S
C243 N240 1.313 . S
C243 N244 1.344 . S
C243 H247 0.930 . S
N244 C241 1.377 . S
N244 C243 1.344 . S
O245 Co237 2.055 . S
O245 C249 1.253 . S
H246 C242 0.931 . S
H247 C243 0.930 . S
O248 Co237 2.039 . S
O248 C238 1.265 . S
C249 O245 1.253 . S
C249 O250 1.227 . S
O250 C249 1.227 . S
N251 Co237 2.140 . S
N251 C254 1.346 . S
N251 C255 1.345 . S
C252 C253 1.387 . S
C252 C256 1.391 . S
C253 C252 1.387 . S
C253 C254 1.369 . S
C253 H262 0.929 . S
C254 N251 1.346 . S
C254 C253 1.369 . S
C254 H257 0.928 . S
C255 N251 1.345 . S
C255 C256 1.371 . S
C255 H258 0.931 . S
C256 C252 1.391 . S
C256 C255 1.371 . S
C256 H263 0.930 . S
H257 C254 0.928 . S
H258 C255 0.931 . S
H259 C235 0.930 . S
H260 C232 0.930 . S
H261 C241 0.930 . S
H262 C253 0.929 . S
H263 C256 0.930 . S
C264 C265 1.351 . S
C264 N267 1.368 . S
C264 H269 0.931 . S
C265 C264 1.351 . S
C265 N266 1.373 . S
C265 H293 0.930 . S
N266 C265 1.373 . S
N266 C268 1.340 . S
N267 C264 1.368 . S
N267 C268 1.321 . S
N267 Co270 2.135 . S
C268 N266 1.340 . S
C268 N267 1.321 . S
C268 H292 0.930 . S
H269 C264 0.931 . S
Co270 N267 2.135 . S
Co270 N273 2.121 . S
Co270 O278 2.055 . S
Co270 O281 2.039 . S
Co270 N284 2.140 . S
C271 O272 1.227 . S
C271 O281 1.265 . S
O272 C271 1.227 . S
N273 Co270 2.121 . S
N273 C275 1.375 . S
N273 C276 1.313 . S
C274 C275 1.338 . S
C274 N277 1.377 . S
C274 H294 0.930 1_655 S
C275 N273 1.375 . S
C275 C274 1.338 . S
C275 H279 0.931 . S
C276 N273 1.313 . S
C276 N277 1.344 . S
C276 H280 0.930 . S
N277 C274 1.377 . S
N277 C276 1.344 . S
O278 Co270 2.055 . S
O278 C282 1.253 . S
H279 C275 0.931 . S
H280 C276 0.930 . S
O281 Co270 2.039 . S
O281 C271 1.265 . S
C282 O278 1.253 . S
C282 O283 1.227 . S
O283 C282 1.227 . S
N284 Co270 2.140 . S
N284 C287 1.346 . S
N284 C288 1.345 . S
C285 C286 1.387 . S
C285 C289 1.391 . S
C286 C285 1.387 . S
C286 C287 1.369 . S
C286 H295 0.929 . S
C287 N284 1.346 . S
C287 C286 1.369 . S
C287 H290 0.928 . S
C288 N284 1.345 . S
C288 C289 1.371 . S
C288 H291 0.931 . S
C289 C285 1.391 . S
C289 C288 1.371 . S
C289 H296 0.930 . S
H290 C287 0.928 . S
H291 C288 0.931 . S
H292 C268 0.930 . S
H293 C265 0.930 . S
H294 C274 0.930 1_455 S
H295 C286 0.929 . S
H296 C289 0.930 . S
C297 C298 1.351 . S
C297 N300 1.368 . S
C297 H302 0.931 . S
C298 C297 1.351 . S
C298 N299 1.373 . S
C298 H326 0.930 . S
N299 C298 1.373 . S
N299 C301 1.340 . S
N300 C297 1.368 . S
N300 C301 1.321 . S
N300 Co303 2.135 . S
C301 N299 1.340 . S
C301 N300 1.321 . S
C301 H325 0.930 . S
H302 C297 0.931 . S
Co303 N300 2.135 . S
Co303 N306 2.121 . S
Co303 O311 2.055 . S
Co303 O314 2.039 . S
Co303 N317 2.140 . S
C304 O305 1.227 . S
C304 O314 1.265 . S
O305 C304 1.227 . S
N306 Co303 2.121 . S
N306 C308 1.375 . S
N306 C309 1.313 . S
C307 C308 1.338 . S
C307 N310 1.377 . S
C307 H327 0.930 1_565 S
C308 N306 1.375 . S
C308 C307 1.338 . S
C308 H312 0.931 . S
C309 N306 1.313 . S
C309 N310 1.344 . S
C309 H313 0.930 . S
N310 C307 1.377 . S
N310 C309 1.344 . S
O311 Co303 2.055 . S
O311 C315 1.253 . S
H312 C308 0.931 . S
H313 C309 0.930 . S
O314 Co303 2.039 . S
O314 C304 1.265 . S
C315 O311 1.253 . S
C315 O316 1.227 . S
O316 C315 1.227 . S
N317 Co303 2.140 . S
N317 C320 1.346 . S
N317 C321 1.345 . S
C318 C319 1.387 . S
C318 C322 1.391 . S
C319 C318 1.387 . S
C319 C320 1.369 . S
C319 H328 0.929 . S
C320 N317 1.346 . S
C320 C319 1.369 . S
C320 H323 0.928 . S
C321 N317 1.345 . S
C321 C322 1.371 . S
C321 H324 0.931 . S
C322 C318 1.391 . S
C322 C321 1.371 . S
C322 H329 0.930 . S
H323 C320 0.928 . S
H324 C321 0.931 . S
H325 C301 0.930 . S
H326 C298 0.930 . S
H327 C307 0.930 1_545 S
H328 C319 0.929 . S
H329 C322 0.930 . S
C330 C331 1.351 . S
C330 N333 1.368 . S
C330 H335 0.931 . S
C331 C330 1.351 . S
C331 N332 1.373 . S
C331 H359 0.930 . S
N332 C331 1.373 . S
N332 C334 1.340 . S
N333 C330 1.368 . S
N333 C334 1.321 . S
N333 Co336 2.135 . S
C334 N332 1.340 . S
C334 N333 1.321 . S
C334 H358 0.930 . S
H335 C330 0.931 . S
Co336 N333 2.135 . S
Co336 N339 2.121 . S
Co336 O344 2.055 . S
Co336 O347 2.039 . S
Co336 N350 2.140 . S
C337 O338 1.227 . S
C337 O347 1.265 . S
O338 C337 1.227 . S
N339 Co336 2.121 . S
N339 C341 1.375 . S
N339 C342 1.313 . S
C340 C341 1.338 . S
C340 N343 1.377 . S
C340 H360 0.930 1_455 S
C341 N339 1.375 . S
C341 C340 1.338 . S
C341 H345 0.931 . S
C342 N339 1.313 . S
C342 N343 1.344 . S
C342 H346 0.930 . S
N343 C340 1.377 . S
N343 C342 1.344 . S
O344 Co336 2.055 . S
O344 C348 1.253 . S
H345 C341 0.931 . S
H346 C342 0.930 . S
O347 Co336 2.039 . S
O347 C337 1.265 . S
C348 O344 1.253 . S
C348 O349 1.227 . S
O349 C348 1.227 . S
N350 Co336 2.140 . S
N350 C353 1.346 . S
N350 C354 1.345 . S
C351 C352 1.387 . S
C351 C355 1.391 . S
C352 C351 1.387 . S
C352 C353 1.369 . S
C352 H361 0.929 . S
C353 N350 1.346 . S
C353 C352 1.369 . S
C353 H356 0.928 . S
C354 N350 1.345 . S
C354 C355 1.371 . S
C354 H357 0.931 . S
C355 C351 1.391 . S
C355 C354 1.371 . S
C355 H362 0.930 . S
H356 C353 0.928 . S
H357 C354 0.931 . S
H358 C334 0.930 . S
H359 C331 0.930 . S
H360 C340 0.930 1_655 S
H361 C352 0.929 . S
H362 C355 0.930 . S
C363 C364 1.351 . S
C363 N366 1.368 . S
C363 H368 0.931 . S
C364 C363 1.351 . S
C364 N365 1.373 . S
C364 H392 0.930 . S
N365 C364 1.373 . S
N365 C367 1.340 . S
N366 C363 1.368 . S
N366 C367 1.321 . S
N366 Co369 2.135 . S
C367 N365 1.340 . S
C367 N366 1.321 . S
C367 H391 0.930 . S
H368 C363 0.931 . S
Co369 N366 2.135 . S
Co369 N372 2.121 . S
Co369 O377 2.055 . S
Co369 O380 2.039 . S
Co369 N383 2.140 . S
C370 O371 1.227 . S
C370 O380 1.265 . S
O371 C370 1.227 . S
N372 Co369 2.121 . S
N372 C374 1.375 . S
N372 C375 1.313 . S
C373 C374 1.338 . S
C373 N376 1.377 . S
C373 H393 0.930 1_545 S
C374 N372 1.375 . S
C374 C373 1.338 . S
C374 H378 0.931 . S
C375 N372 1.313 . S
C375 N376 1.344 . S
C375 H379 0.930 . S
N376 C373 1.377 . S
N376 C375 1.344 . S
O377 Co369 2.055 . S
O377 C381 1.253 . S
H378 C374 0.931 . S
H379 C375 0.930 . S
O380 Co369 2.039 . S
O380 C370 1.265 . S
C381 O377 1.253 . S
C381 O382 1.227 . S
O382 C381 1.227 . S
N383 Co369 2.140 . S
N383 C386 1.346 . S
N383 C387 1.345 . S
C384 C385 1.387 . S
C384 C388 1.391 . S
C385 C384 1.387 . S
C385 C386 1.369 . S
C385 H394 0.929 . S
C386 N383 1.346 . S
C386 C385 1.369 . S
C386 H389 0.928 . S
C387 N383 1.345 . S
C387 C388 1.371 . S
C387 H390 0.931 . S
C388 C384 1.391 . S
C388 C387 1.371 . S
C388 H395 0.930 . S
H389 C386 0.928 . S
H390 C387 0.931 . S
H391 C367 0.930 . S
H392 C364 0.930 . S
H393 C373 0.930 1_565 S
H394 C385 0.929 . S
H395 C388 0.930 . S
C396 C397 1.351 . S
C396 N399 1.368 . S
C396 H401 0.931 . S
C397 C396 1.351 . S
C397 N398 1.373 . S
C397 H425 0.930 . S
N398 C397 1.373 . S
N398 C400 1.340 . S
N399 C396 1.368 . S
N399 C400 1.321 . S
N399 Co402 2.135 . S
C400 N398 1.340 . S
C400 N399 1.321 . S
C400 H424 0.930 . S
H401 C396 0.931 . S
Co402 N399 2.135 . S
Co402 N405 2.121 . S
Co402 O410 2.055 . S
Co402 O413 2.039 . S
Co402 N416 2.140 . S
C403 O404 1.227 . S
C403 O413 1.265 . S
O404 C403 1.227 . S
N405 Co402 2.121 . S
N405 C407 1.375 . S
N405 C408 1.313 . S
C406 C407 1.338 . S
C406 N409 1.377 . S
C406 H426 0.930 1_655 S
C407 N405 1.375 . S
C407 C406 1.338 . S
C407 H411 0.931 . S
C408 N405 1.313 . S
C408 N409 1.344 . S
C408 H412 0.930 . S
N409 C406 1.377 . S
N409 C408 1.344 . S
O410 Co402 2.055 . S
O410 C414 1.253 . S
H411 C407 0.931 . S
H412 C408 0.930 . S
O413 Co402 2.039 . S
O413 C403 1.265 . S
C414 O410 1.253 . S
C414 O415 1.227 . S
O415 C414 1.227 . S
N416 Co402 2.140 . S
N416 C419 1.346 . S
N416 C420 1.345 . S
C417 C418 1.387 . S
C417 C421 1.391 . S
C418 C417 1.387 . S
C418 C419 1.369 . S
C418 H427 0.929 . S
C419 N416 1.346 . S
C419 C418 1.369 . S
C419 H422 0.928 . S
C420 N416 1.345 . S
C420 C421 1.371 . S
C420 H423 0.931 . S
C421 C417 1.391 . S
C421 C420 1.371 . S
C421 H428 0.930 . S
H422 C419 0.928 . S
H423 C420 0.931 . S
H424 C400 0.930 . S
H425 C397 0.930 . S
H426 C406 0.930 1_455 S
H427 C418 0.929 . S
H428 C421 0.930 . S
C429 C430 1.351 . S
C429 N432 1.368 . S
C429 H434 0.931 . S
C430 C429 1.351 . S
C430 N431 1.373 . S
C430 H458 0.930 . S
N431 C430 1.373 . S
N431 C433 1.340 . S
N432 C429 1.368 . S
N432 C433 1.321 . S
N432 Co435 2.135 . S
C433 N431 1.340 . S
C433 N432 1.321 . S
C433 H457 0.930 . S
H434 C429 0.931 . S
Co435 N432 2.135 . S
Co435 N438 2.121 . S
Co435 O443 2.055 . S
Co435 O446 2.039 . S
Co435 N449 2.140 . S
C436 O437 1.227 . S
C436 O446 1.265 . S
O437 C436 1.227 . S
N438 Co435 2.121 . S
N438 C440 1.375 . S
N438 C441 1.313 . S
C439 C440 1.338 . S
C439 N442 1.377 . S
C439 H459 0.930 1_565 S
C440 N438 1.375 . S
C440 C439 1.338 . S
C440 H444 0.931 . S
C441 N438 1.313 . S
C441 N442 1.344 . S
C441 H445 0.930 . S
N442 C439 1.377 . S
N442 C441 1.344 . S
O443 Co435 2.055 . S
O443 C447 1.253 . S
H444 C440 0.931 . S
H445 C441 0.930 . S
O446 Co435 2.039 . S
O446 C436 1.265 . S
C447 O443 1.253 . S
C447 O448 1.227 . S
O448 C447 1.227 . S
N449 Co435 2.140 . S
N449 C452 1.346 . S
N449 C453 1.345 . S
C450 C451 1.387 . S
C450 C454 1.391 . S
C451 C450 1.387 . S
C451 C452 1.369 . S
C451 H460 0.929 . S
C452 N449 1.346 . S
C452 C451 1.369 . S
C452 H455 0.928 . S
C453 N449 1.345 . S
C453 C454 1.371 . S
C453 H456 0.931 . S
C454 C450 1.391 . S
C454 C453 1.371 . S
C454 H461 0.930 . S
H455 C452 0.928 . S
H456 C453 0.931 . S
H457 C433 0.930 . S
H458 C430 0.930 . S
H459 C439 0.930 1_545 S
H460 C451 0.929 . S
H461 C454 0.930 . S
C462 C463 1.351 . S
C462 N465 1.368 . S
C462 H467 0.931 . S
C463 C462 1.351 . S
C463 N464 1.373 . S
C463 H491 0.930 . S
N464 C463 1.373 . S
N464 C466 1.340 . S
N465 C462 1.368 . S
N465 C466 1.321 . S
N465 Co468 2.135 . S
C466 N464 1.340 . S
C466 N465 1.321 . S
C466 H490 0.930 . S
H467 C462 0.931 . S
Co468 N465 2.135 . S
Co468 N471 2.121 . S
Co468 O476 2.055 . S
Co468 O479 2.039 . S
Co468 N482 2.140 . S
C469 O470 1.227 . S
C469 O479 1.265 . S
O470 C469 1.227 . S
N471 Co468 2.121 . S
N471 C473 1.375 . S
N471 C474 1.313 . S
C472 C473 1.338 . S
C472 N475 1.377 . S
C472 H492 0.930 1_455 S
C473 N471 1.375 . S
C473 C472 1.338 . S
C473 H477 0.931 . S
C474 N471 1.313 . S
C474 N475 1.344 . S
C474 H478 0.930 . S
N475 C472 1.377 . S
N475 C474 1.344 . S
O476 Co468 2.055 . S
O476 C480 1.253 . S
H477 C473 0.931 . S
H478 C474 0.930 . S
O479 Co468 2.039 . S
O479 C469 1.265 . S
C480 O476 1.253 . S
C480 O481 1.227 . S
O481 C480 1.227 . S
N482 Co468 2.140 . S
N482 C485 1.346 . S
N482 C486 1.345 . S
C483 C484 1.387 . S
C483 C487 1.391 . S
C484 C483 1.387 . S
C484 C485 1.369 . S
C484 H493 0.929 . S
C485 N482 1.346 . S
C485 C484 1.369 . S
C485 H488 0.928 . S
C486 N482 1.345 . S
C486 C487 1.371 . S
C486 H489 0.931 . S
C487 C483 1.391 . S
C487 C486 1.371 . S
C487 H494 0.930 . S
H488 C485 0.928 . S
H489 C486 0.931 . S
H490 C466 0.930 . S
H491 C463 0.930 . S
H492 C472 0.930 1_655 S
H493 C484 0.929 . S
H494 C487 0.930 . S
C495 C496 1.351 . S
C495 N498 1.368 . S
C495 H500 0.931 . S
C496 C495 1.351 . S
C496 N497 1.373 . S
C496 H524 0.930 . S
N497 C496 1.373 . S
N497 C499 1.340 . S
N498 C495 1.368 . S
N498 C499 1.321 . S
N498 Co501 2.135 . S
C499 N497 1.340 . S
C499 N498 1.321 . S
C499 H523 0.930 . S
H500 C495 0.931 . S
Co501 N498 2.135 . S
Co501 N504 2.121 . S
Co501 O509 2.055 . S
Co501 O512 2.039 . S
Co501 N515 2.140 . S
C502 O503 1.227 . S
C502 O512 1.265 . S
O503 C502 1.227 . S
N504 Co501 2.121 . S
N504 C506 1.375 . S
N504 C507 1.313 . S
C505 C506 1.338 . S
C505 N508 1.377 . S
C505 H525 0.930 1_545 S
C506 N504 1.375 . S
C506 C505 1.338 . S
C506 H510 0.931 . S
C507 N504 1.313 . S
C507 N508 1.344 . S
C507 H511 0.930 . S
N508 C505 1.377 . S
N508 C507 1.344 . S
O509 Co501 2.055 . S
O509 C513 1.253 . S
H510 C506 0.931 . S
H511 C507 0.930 . S
O512 Co501 2.039 . S
O512 C502 1.265 . S
C513 O509 1.253 . S
C513 O514 1.227 . S
O514 C513 1.227 . S
N515 Co501 2.140 . S
N515 C518 1.346 . S
N515 C519 1.345 . S
C516 C517 1.387 . S
C516 C520 1.391 . S
C517 C516 1.387 . S
C517 C518 1.369 . S
C517 H526 0.929 . S
C518 N515 1.346 . S
C518 C517 1.369 . S
C518 H521 0.928 . S
C519 N515 1.345 . S
C519 C520 1.371 . S
C519 H522 0.931 . S
C520 C516 1.391 . S
C520 C519 1.371 . S
C520 H527 0.930 . S
H521 C518 0.928 . S
H522 C519 0.931 . S
H523 C499 0.930 . S
H524 C496 0.930 . S
H525 C505 0.930 1_565 S
H526 C517 0.929 . S
H527 C520 0.930 . S
C528 C529 1.387 . S
C528 H532 0.950 . S
C528 C537 1.390 1_655 S
C529 C528 1.387 . S
C529 C531 1.387 . S
H530 C537 0.950 . S
C531 C529 1.387 . S
C531 C533 1.390 1_655 S
C531 H535 0.950 . S
H532 C528 0.950 . S
C533 C531 1.390 1_455 S
C533 C534 1.387 . S
C533 H536 0.950 . S
C534 C533 1.387 . S
C534 C537 1.387 . S
H535 C531 0.950 . S
H536 C533 0.950 . S
C537 C528 1.390 1_455 S
C537 H530 0.950 . S
C537 C534 1.387 . S
C538 C539 1.387 . S
C538 H542 0.950 . S
C538 C547 1.390 1_545 S
C539 C538 1.387 . S
C539 C541 1.387 . S
H540 C547 0.950 . S
C541 C539 1.387 . S
C541 C543 1.390 1_545 S
C541 H545 0.950 . S
H542 C538 0.950 . S
C543 C541 1.390 1_565 S
C543 C544 1.387 . S
C543 H546 0.950 . S
C544 C543 1.387 . S
C544 C547 1.387 . S
H545 C541 0.950 . S
H546 C543 0.950 . S
C547 C538 1.390 1_565 S
C547 H540 0.950 . S
C547 C544 1.387 . S
C548 C549 1.387 . S
C548 H552 0.950 . S
C548 C557 1.390 1_655 S
C549 C548 1.387 . S
C549 C551 1.387 . S
H550 C557 0.950 . S
C551 C549 1.387 . S
C551 C553 1.390 1_655 S
C551 H555 0.950 . S
H552 C548 0.950 . S
C553 C551 1.390 1_455 S
C553 C554 1.387 . S
C553 H556 0.950 . S
C554 C553 1.387 . S
C554 C557 1.387 . S
H555 C551 0.950 . S
H556 C553 0.950 . S
C557 C548 1.390 1_455 S
C557 H550 0.950 . S
C557 C554 1.387 . S
C558 C559 1.387 . S
C558 H562 0.950 . S
C558 C567 1.390 1_565 S
C559 C558 1.387 . S
C559 C561 1.387 . S
H560 C567 0.950 . S
C561 C559 1.387 . S
C561 C563 1.390 1_565 S
C561 H565 0.950 . S
H562 C558 0.950 . S
C563 C561 1.390 1_545 S
C563 C564 1.387 . S
C563 H566 0.950 . S
C564 C563 1.387 . S
C564 C567 1.387 . S
H565 C561 0.950 . S
H566 C563 0.950 . S
C567 C558 1.390 1_545 S
C567 H560 0.950 . S
C567 C564 1.387 . S
C568 C569 1.387 . S
C568 H572 0.950 . S
C568 C577 1.390 1_655 S
C569 C568 1.387 . S
C569 C571 1.387 . S
H570 C577 0.950 . S
C571 C569 1.387 . S
C571 C573 1.390 1_655 S
C571 H575 0.950 . S
H572 C568 0.950 . S
C573 C571 1.390 1_455 S
C573 C574 1.387 . S
C573 H576 0.950 . S
C574 C573 1.387 . S
C574 C577 1.387 . S
H575 C571 0.950 . S
H576 C573 0.950 . S
C577 C568 1.390 1_455 S
C577 H570 0.950 . S
C577 C574 1.387 . S
C578 C579 1.387 . S
C578 H582 0.950 . S
C578 C587 1.390 1_565 S
C579 C578 1.387 . S
C579 C581 1.387 . S
H580 C587 0.950 . S
C581 C579 1.387 . S
C581 C583 1.390 1_565 S
C581 H585 0.950 . S
H582 C578 0.950 . S
C583 C581 1.390 1_545 S
C583 C584 1.387 . S
C583 H586 0.950 . S
C584 C583 1.387 . S
C584 C587 1.387 . S
H585 C581 0.950 . S
H586 C583 0.950 . S
C587 C578 1.390 1_545 S
C587 H580 0.950 . S
C587 C584 1.387 . S
C588 C589 1.387 . S
C588 H592 0.950 . S
C588 C597 1.390 1_655 S
C589 C588 1.387 . S
C589 C591 1.387 . S
H590 C597 0.950 . S
C591 C589 1.387 . S
C591 C593 1.390 1_655 S
C591 H595 0.950 . S
H592 C588 0.950 . S
C593 C591 1.390 1_455 S
C593 C594 1.387 . S
C593 H596 0.950 . S
C594 C593 1.387 . S
C594 C597 1.387 . S
H595 C591 0.950 . S
H596 C593 0.950 . S
C597 C588 1.390 1_455 S
C597 H590 0.950 . S
C597 C594 1.387 . S
C598 C599 1.387 . S
C598 H602 0.950 . S
C598 C607 1.390 1_545 S
C599 C598 1.387 . S
C599 C601 1.387 . S
H600 C607 0.950 . S
C601 C599 1.387 . S
C601 C603 1.390 1_545 S
C601 H605 0.950 . S
H602 C598 0.950 . S
C603 C601 1.390 1_565 S
C603 C604 1.387 . S
C603 H606 0.950 . S
C604 C603 1.387 . S
C604 C607 1.387 . S
H605 C601 0.950 . S
H606 C603 0.950 . S
C607 C598 1.390 1_565 S
C607 H600 0.950 . S
C607 C604 1.387 . S
C608 C609 1.387 . S
C608 H612 0.950 . S
C608 C617 1.390 . S
C609 C608 1.387 . S
C609 C611 1.387 . S
H610 C617 0.950 . S
C611 C609 1.387 . S
C611 C613 1.390 . S
C611 H615 0.950 . S
H612 C608 0.950 . S
C613 C611 1.390 . S
C613 C614 1.387 . S
C613 H616 0.950 . S
C614 C613 1.387 . S
C614 C617 1.387 . S
H615 C611 0.950 . S
H616 C613 0.950 . S
C617 C608 1.390 . S
C617 H610 0.950 . S
C617 C614 1.387 . S
C618 C619 1.387 . S
C618 H622 0.950 . S
C618 C627 1.390 . S
C619 C618 1.387 . S
C619 C621 1.387 . S
H620 C627 0.950 . S
C621 C619 1.387 . S
C621 C623 1.390 . S
C621 H625 0.950 . S
H622 C618 0.950 . S
C623 C621 1.390 . S
C623 C624 1.387 . S
C623 H626 0.950 . S
C624 C623 1.387 . S
C624 C627 1.387 . S
H625 C621 0.950 . S
H626 C623 0.950 . S
C627 C618 1.390 . S
C627 H620 0.950 . S
C627 C624 1.387 . S
C628 C629 1.387 . S
C628 H632 0.950 . S
C628 C637 1.390 . S
C629 C628 1.387 . S
C629 C631 1.387 . S
H630 C637 0.950 . S
C631 C629 1.387 . S
C631 C633 1.390 . S
C631 H635 0.950 . S
H632 C628 0.950 . S
C633 C631 1.390 . S
C633 C634 1.387 . S
C633 H636 0.950 . S
C634 C633 1.387 . S
C634 C637 1.387 . S
H635 C631 0.950 . S
H636 C633 0.950 . S
C637 C628 1.390 . S
C637 H630 0.950 . S
C637 C634 1.387 . S
C638 C639 1.387 . S
C638 H642 0.950 . S
C638 C647 1.390 . S
C639 C638 1.387 . S
C639 C641 1.387 . S
H640 C647 0.950 . S
C641 C639 1.387 . S
C641 C643 1.390 . S
C641 H645 0.950 . S
H642 C638 0.950 . S
C643 C641 1.390 . S
C643 C644 1.387 . S
C643 H646 0.950 . S
C644 C643 1.387 . S
C644 C647 1.387 . S
H645 C641 0.950 . S
H646 C643 0.950 . S
C647 C638 1.390 . S
C647 H640 0.950 . S
C647 C644 1.387 . S
C648 C649 1.387 . S
C648 H652 0.950 . S
C648 C657 1.390 . S
C649 C648 1.387 . S
C649 C651 1.387 . S
H650 C657 0.950 . S
C651 C649 1.387 . S
C651 C653 1.390 . S
C651 H655 0.950 . S
H652 C648 0.950 . S
C653 C651 1.390 . S
C653 C654 1.387 . S
C653 H656 0.950 . S
C654 C653 1.387 . S
C654 C657 1.387 . S
H655 C651 0.950 . S
H656 C653 0.950 . S
C657 C648 1.390 . S
C657 H650 0.950 . S
C657 C654 1.387 . S
C658 C659 1.387 . S
C658 H662 0.950 . S
C658 C667 1.390 . S
C659 C658 1.387 . S
C659 C661 1.387 . S
H660 C667 0.950 . S
C661 C659 1.387 . S
C661 C663 1.390 . S
C661 H665 0.950 . S
H662 C658 0.950 . S
C663 C661 1.390 . S
C663 C664 1.387 . S
C663 H666 0.950 . S
C664 C663 1.387 . S
C664 C667 1.387 . S
H665 C661 0.950 . S
H666 C663 0.950 . S
C667 C658 1.390 . S
C667 H660 0.950 . S
C667 C664 1.387 . S
C668 C669 1.387 . S
C668 H672 0.950 . S
C668 C677 1.390 . S
C669 C668 1.387 . S
C669 C671 1.387 . S
H670 C677 0.950 . S
C671 C669 1.387 . S
C671 C673 1.390 . S
C671 H675 0.950 . S
H672 C668 0.950 . S
C673 C671 1.390 . S
C673 C674 1.387 . S
C673 H676 0.950 . S
C674 C673 1.387 . S
C674 C677 1.387 . S
H675 C671 0.950 . S
H676 C673 0.950 . S
C677 C668 1.390 . S
C677 H670 0.950 . S
C677 C674 1.387 . S
C678 C679 1.387 . S
C678 H682 0.950 . S
C678 C687 1.390 . S
C679 C678 1.387 . S
C679 C681 1.387 . S
H680 C687 0.950 . S
C681 C679 1.387 . S
C681 C683 1.390 . S
C681 H685 0.950 . S
H682 C678 0.950 . S
C683 C681 1.390 . S
C683 C684 1.387 . S
C683 H686 0.950 . S
C684 C683 1.387 . S
C684 C687 1.387 . S
H685 C681 0.950 . S
H686 C683 0.950 . S
C687 C678 1.390 . S
C687 H680 0.950 . S
C687 C684 1.387 . S
C688 C689 1.387 . S
C688 H692 0.950 . S
C688 C697 1.390 1_554 S
C689 C688 1.387 . S
C689 C691 1.387 . S
H690 C697 0.950 . S
C691 C689 1.387 . S
C691 C693 1.390 1_554 S
C691 H695 0.950 . S
H692 C688 0.950 . S
C693 C691 1.390 1_556 S
C693 C694 1.387 . S
C693 H696 0.950 . S
C694 C693 1.387 . S
C694 C697 1.387 . S
H695 C691 0.950 . S
H696 C693 0.950 . S
C697 C688 1.390 1_556 S
C697 H690 0.950 . S
C697 C694 1.387 . S
C698 C699 1.387 . S
C698 H702 0.950 . S
C698 C707 1.390 1_556 S
C699 C698 1.387 . S
C699 C701 1.387 . S
H700 C707 0.950 . S
C701 C699 1.387 . S
C701 C703 1.390 1_556 S
C701 H705 0.950 . S
H702 C698 0.950 . S
C703 C701 1.390 1_554 S
C703 C704 1.387 . S
C703 H706 0.950 . S
C704 C703 1.387 . S
C704 C707 1.387 . S
H705 C701 0.950 . S
H706 C703 0.950 . S
C707 C698 1.390 1_554 S
C707 H700 0.950 . S
C707 C704 1.387 . S
C708 C709 1.387 . S
C708 H712 0.950 . S
C708 C717 1.390 1_556 S
C709 C708 1.387 . S
C709 C711 1.387 . S
H710 C717 0.950 . S
C711 C709 1.387 . S
C711 C713 1.390 1_556 S
C711 H715 0.950 . S
H712 C708 0.950 . S
C713 C711 1.390 1_554 S
C713 C714 1.387 . S
C713 H716 0.950 . S
C714 C713 1.387 . S
C714 C717 1.387 . S
H715 C711 0.950 . S
H716 C713 0.950 . S
C717 C708 1.390 1_554 S
C717 H710 0.950 . S
C717 C714 1.387 . S
C718 C719 1.387 . S
C718 H722 0.950 . S
C718 C727 1.390 1_556 S
C719 C718 1.387 . S
C719 C721 1.387 . S
H720 C727 0.950 . S
C721 C719 1.387 . S
C721 C723 1.390 1_556 S
C721 H725 0.950 . S
H722 C718 0.950 . S
C723 C721 1.390 1_554 S
C723 C724 1.387 . S
C723 H726 0.950 . S
C724 C723 1.387 . S
C724 C727 1.387 . S
H725 C721 0.950 . S
H726 C723 0.950 . S
C727 C718 1.390 1_554 S
C727 H720 0.950 . S
C727 C724 1.387 . S
C728 C729 1.387 . S
C728 H732 0.950 . S
C728 C737 1.390 . S
C729 C728 1.387 . S
C729 C731 1.387 . S
H730 C737 0.950 . S
C731 C729 1.387 . S
C731 C733 1.390 . S
C731 H735 0.950 . S
H732 C728 0.950 . S
C733 C731 1.390 . S
C733 C734 1.387 . S
C733 H736 0.950 . S
C734 C733 1.387 . S
C734 C737 1.387 . S
H735 C731 0.950 . S
H736 C733 0.950 . S
C737 C728 1.390 . S
C737 H730 0.950 . S
C737 C734 1.387 . S
C738 C739 1.387 . S
C738 H742 0.950 . S
C738 C747 1.390 . S
C739 C738 1.387 . S
C739 C741 1.387 . S
H740 C747 0.950 . S
C741 C739 1.387 . S
C741 C743 1.390 . S
C741 H745 0.950 . S
H742 C738 0.950 . S
C743 C741 1.390 . S
C743 C744 1.387 . S
C743 H746 0.950 . S
C744 C743 1.387 . S
C744 C747 1.387 . S
H745 C741 0.950 . S
H746 C743 0.950 . S
C747 C738 1.390 . S
C747 H740 0.950 . S
C747 C744 1.387 . S
C748 C749 1.387 . S
C748 H752 0.950 . S
C748 C757 1.390 . S
C749 C748 1.387 . S
C749 C751 1.387 . S
H750 C757 0.950 . S
C751 C749 1.387 . S
C751 C753 1.390 . S
C751 H755 0.950 . S
H752 C748 0.950 . S
C753 C751 1.390 . S
C753 C754 1.387 . S
C753 H756 0.950 . S
C754 C753 1.387 . S
C754 C757 1.387 . S
H755 C751 0.950 . S
H756 C753 0.950 . S
C757 C748 1.390 . S
C757 H750 0.950 . S
C757 C754 1.387 . S
C758 C759 1.387 . S
C758 H762 0.950 . S
C758 C767 1.390 . S
C759 C758 1.387 . S
C759 C761 1.387 . S
H760 C767 0.950 . S
C761 C759 1.387 . S
C761 C763 1.390 . S
C761 H765 0.950 . S
H762 C758 0.950 . S
C763 C761 1.390 . S
C763 C764 1.387 . S
C763 H766 0.950 . S
C764 C763 1.387 . S
C764 C767 1.387 . S
H765 C761 0.950 . S
H766 C763 0.950 . S
C767 C758 1.390 . S
C767 H760 0.950 . S
C767 C764 1.387 . S
C768 C769 1.387 . S
C768 H772 0.950 . S
C768 C777 1.390 . S
C769 C768 1.387 . S
C769 C771 1.387 . S
H770 C777 0.950 . S
C771 C769 1.387 . S
C771 C773 1.390 . S
C771 H775 0.950 . S
H772 C768 0.950 . S
C773 C771 1.390 . S
C773 C774 1.387 . S
C773 H776 0.950 . S
C774 C773 1.387 . S
C774 C777 1.387 . S
H775 C771 0.950 . S
H776 C773 0.950 . S
C777 C768 1.390 . S
C777 H770 0.950 . S
C777 C774 1.387 . S
C778 C779 1.387 . S
C778 H782 0.950 . S
C778 C787 1.390 . S
C779 C778 1.387 . S
C779 C781 1.387 . S
H780 C787 0.950 . S
C781 C779 1.387 . S
C781 C783 1.390 . S
C781 H785 0.950 . S
H782 C778 0.950 . S
C783 C781 1.390 . S
C783 C784 1.387 . S
C783 H786 0.950 . S
C784 C783 1.387 . S
C784 C787 1.387 . S
H785 C781 0.950 . S
H786 C783 0.950 . S
C787 C778 1.390 . S
C787 H780 0.950 . S
C787 C784 1.387 . S
C788 C789 1.387 . S
C788 H792 0.950 . S
C788 C797 1.390 . S
C789 C788 1.387 . S
C789 C791 1.387 . S
H790 C797 0.950 . S
C791 C789 1.387 . S
C791 C793 1.390 . S
C791 H795 0.950 . S
H792 C788 0.950 . S
C793 C791 1.390 . S
C793 C794 1.387 . S
C793 H796 0.950 . S
C794 C793 1.387 . S
C794 C797 1.387 . S
H795 C791 0.950 . S
H796 C793 0.950 . S
C797 C788 1.390 . S
C797 H790 0.950 . S
C797 C794 1.387 . S
C798 C799 1.387 . S
C798 H802 0.950 . S
C798 C807 1.390 . S
C799 C798 1.387 . S
C799 C801 1.387 . S
H800 C807 0.950 . S
C801 C799 1.387 . S
C801 C803 1.390 . S
C801 H805 0.950 . S
H802 C798 0.950 . S
C803 C801 1.390 . S
C803 C804 1.387 . S
C803 H806 0.950 . S
C804 C803 1.387 . S
C804 C807 1.387 . S
H805 C801 0.950 . S
H806 C803 0.950 . S
C807 C798 1.390 . S
C807 H800 0.950 . S
C807 C804 1.387 . S
C808 C809 1.387 . S
C808 H812 0.950 . S
C808 C817 1.390 . S
C809 C808 1.387 . S
C809 C811 1.387 . S
H810 C817 0.950 . S
C811 C809 1.387 . S
C811 C813 1.390 . S
C811 H815 0.950 . S
H812 C808 0.950 . S
C813 C811 1.390 . S
C813 C814 1.387 . S
C813 H816 0.950 . S
C814 C813 1.387 . S
C814 C817 1.387 . S
H815 C811 0.950 . S
H816 C813 0.950 . S
C817 C808 1.390 . S
C817 H810 0.950 . S
C817 C814 1.387 . S
C818 C819 1.387 . S
C818 H822 0.950 . S
C818 C827 1.390 . S
C819 C818 1.387 . S
C819 C821 1.387 . S
H820 C827 0.950 . S
C821 C819 1.387 . S
C821 C823 1.390 . S
C821 H825 0.950 . S
H822 C818 0.950 . S
C823 C821 1.390 . S
C823 C824 1.387 . S
C823 H826 0.950 . S
C824 C823 1.387 . S
C824 C827 1.387 . S
H825 C821 0.950 . S
H826 C823 0.950 . S
C827 C818 1.390 . S
C827 H820 0.950 . S
C827 C824 1.387 . S
C828 C829 1.387 . S
C828 H832 0.950 . S
C828 C837 1.390 . S
C829 C828 1.387 . S
C829 C831 1.387 . S
H830 C837 0.950 . S
C831 C829 1.387 . S
C831 C833 1.390 . S
C831 H835 0.950 . S
H832 C828 0.950 . S
C833 C831 1.390 . S
C833 C834 1.387 . S
C833 H836 0.950 . S
C834 C833 1.387 . S
C834 C837 1.387 . S
H835 C831 0.950 . S
H836 C833 0.950 . S
C837 C828 1.390 . S
C837 H830 0.950 . S
C837 C834 1.387 . S
C838 C839 1.387 . S
C838 H842 0.950 . S
C838 C847 1.390 . S
C839 C838 1.387 . S
C839 C841 1.387 . S
H840 C847 0.950 . S
C841 C839 1.387 . S
C841 C843 1.390 . S
C841 H845 0.950 . S
H842 C838 0.950 . S
C843 C841 1.390 . S
C843 C844 1.387 . S
C843 H846 0.950 . S
C844 C843 1.387 . S
C844 C847 1.387 . S
H845 C841 0.950 . S
H846 C843 0.950 . S
C847 C838 1.390 . S
C847 H840 0.950 . S
C847 C844 1.387 . S
C848 C849 1.387 . S
C848 H852 0.950 . S
C848 C857 1.390 1_545 S
C849 C848 1.387 . S
C849 C851 1.387 . S
H850 C857 0.950 . S
C851 C849 1.387 . S
C851 C853 1.390 1_545 S
C851 H855 0.950 . S
H852 C848 0.950 . S
C853 C851 1.390 1_565 S
C853 C854 1.387 . S
C853 H856 0.950 . S
C854 C853 1.387 . S
C854 C857 1.387 . S
H855 C851 0.950 . S
H856 C853 0.950 . S
C857 C848 1.390 1_565 S
C857 H850 0.950 . S
C857 C854 1.387 . S
C858 C859 1.387 . S
C858 H862 0.950 . S
C858 C867 1.390 1_655 S
C859 C858 1.387 . S
C859 C861 1.387 . S
H860 C867 0.950 . S
C861 C859 1.387 . S
C861 C863 1.390 1_655 S
C861 H865 0.950 . S
H862 C858 0.950 . S
C863 C861 1.390 1_455 S
C863 C864 1.387 . S
C863 H866 0.950 . S
C864 C863 1.387 . S
C864 C867 1.387 . S
H865 C861 0.950 . S
H866 C863 0.950 . S
C867 C858 1.390 1_455 S
C867 H860 0.950 . S
C867 C864 1.387 . S
C868 C869 1.387 . S
C868 H872 0.950 . S
C868 C877 1.390 1_545 S
C869 C868 1.387 . S
C869 C871 1.387 . S
H870 C877 0.950 . S
C871 C869 1.387 . S
C871 C873 1.390 1_545 S
C871 H875 0.950 . S
H872 C868 0.950 . S
C873 C871 1.390 1_565 S
C873 C874 1.387 . S
C873 H876 0.950 . S
C874 C873 1.387 . S
C874 C877 1.387 . S
H875 C871 0.950 . S
H876 C873 0.950 . S
C877 C868 1.390 1_565 S
C877 H870 0.950 . S
C877 C874 1.387 . S
C878 C879 1.387 . S
C878 H882 0.950 . S
C878 C887 1.390 1_655 S
C879 C878 1.387 . S
C879 C881 1.387 . S
H880 C887 0.950 . S
C881 C879 1.387 . S
C881 C883 1.390 1_655 S
C881 H885 0.950 . S
H882 C878 0.950 . S
C883 C881 1.390 1_455 S
C883 C884 1.387 . S
C883 H886 0.950 . S
C884 C883 1.387 . S
C884 C887 1.387 . S
H885 C881 0.950 . S
H886 C883 0.950 . S
C887 C878 1.390 1_455 S
C887 H880 0.950 . S
C887 C884 1.387 . S
C888 C889 1.387 . S
C888 H892 0.950 . S
C888 C897 1.390 1_565 S
C889 C888 1.387 . S
C889 C891 1.387 . S
H890 C897 0.950 . S
C891 C889 1.387 . S
C891 C893 1.390 1_565 S
C891 H895 0.950 . S
H892 C888 0.950 . S
C893 C891 1.390 1_545 S
C893 C894 1.387 . S
C893 H896 0.950 . S
C894 C893 1.387 . S
C894 C897 1.387 . S
H895 C891 0.950 . S
H896 C893 0.950 . S
C897 C888 1.390 1_545 S
C897 H890 0.950 . S
C897 C894 1.387 . S
C898 C899 1.387 . S
C898 H902 0.950 . S
C898 C907 1.390 1_455 S
C899 C898 1.387 . S
C899 C901 1.387 . S
H900 C907 0.950 . S
C901 C899 1.387 . S
C901 C903 1.390 1_455 S
C901 H905 0.950 . S
H902 C898 0.950 . S
C903 C901 1.390 1_655 S
C903 C904 1.387 . S
C903 H906 0.950 . S
C904 C903 1.387 . S
C904 C907 1.387 . S
H905 C901 0.950 . S
H906 C903 0.950 . S
C907 C898 1.390 1_655 S
C907 H900 0.950 . S
C907 C904 1.387 . S
C908 C909 1.387 . S
C908 H912 0.950 . S
C908 C917 1.390 1_565 S
C909 C908 1.387 . S
C909 C911 1.387 . S
H910 C917 0.950 . S
C911 C909 1.387 . S
C911 C913 1.390 1_565 S
C911 H915 0.950 . S
H912 C908 0.950 . S
C913 C911 1.390 1_545 S
C913 C914 1.387 . S
C913 H916 0.950 . S
C914 C913 1.387 . S
C914 C917 1.387 . S
H915 C911 0.950 . S
H916 C913 0.950 . S
C917 C908 1.390 1_545 S
C917 H910 0.950 . S
C917 C914 1.387 . S
C918 C919 1.387 . S
C918 H922 0.950 . S
C918 C927 1.390 1_655 S
C919 C918 1.387 . S
C919 C921 1.387 . S
H920 C927 0.950 . S
C921 C919 1.387 . S
C921 C923 1.390 1_655 S
C921 H925 0.950 . S
H922 C918 0.950 . S
C923 C921 1.390 1_455 S
C923 C924 1.387 . S
C923 H926 0.950 . S
C924 C923 1.387 . S
C924 C927 1.387 . S
H925 C921 0.950 . S
H926 C923 0.950 . S
C927 C918 1.390 1_455 S
C927 H920 0.950 . S
C927 C924 1.387 . S
C529 N79 1.219 . S
C534 N13 1.219 . S
C539 N46 1.219 . S
C544 N112 1.219 . S
C549 N211 1.217 . S
C554 N145 1.217 . S
C559 N244 1.219 . S
C564 N178 1.219 . S
C569 N277 1.217 . S
C574 N343 1.217 . S
C579 N310 1.217 . S
C584 N376 1.217 . S
C589 N409 1.217 . S
C594 N475 1.217 . S
C599 N508 1.217 . S
C604 N442 1.217 . S
C609 N2 1.864 . S
C614 N167 1.864 . S
C619 N200 1.864 . S
C624 N35 1.864 . S
C629 N233 1.864 . S
C634 N68 1.864 . S
C639 N134 1.864 . S
C644 N101 1.864 . S
C649 N431 1.864 . S
C654 N266 1.864 . S
C659 N464 1.864 . S
C664 N299 1.864 . S
C669 N497 1.864 . S
C674 N332 1.864 . S
C679 N398 1.864 . S
C684 N365 1.864 . S
C689 C18 1.275 . S
C694 C348 1.275 . S
C699 C381 1.273 . S
C704 C51 1.274 . S
C709 C282 1.274 . S
C714 C84 1.275 . S
C719 C315 1.275 . S
C724 C117 1.274 . S
C729 C150 1.275 . S
C734 C480 1.274 . S
C739 C183 1.273 . S
C744 C513 1.275 . S
C749 C216 1.275 . S
C754 C414 1.274 . S
C759 C249 1.273 . S
C764 C447 1.274 . S
C769 C139 1.416 . S
C774 C7 1.416 . S
C779 C40 1.418 . S
C784 C172 1.418 . S
C789 C205 1.416 . S
C794 C73 1.416 . S
C799 C238 1.418 . S
C804 C106 1.418 . S
C809 C285 0.869 . S
C814 C417 0.869 . S
C819 C450 0.870 . S
C824 C318 0.870 . S
C829 C351 0.870 . S
C834 C483 0.870 . S
C839 C516 0.870 . S
C844 C384 0.870 . S
C849 C370 1.416 . S
C854 C436 1.416 . S
C859 C271 1.418 . S
C864 C469 1.418 . S
C869 C502 1.418 . S
C874 C304 1.418 . S
C879 C403 1.416 . S
C884 C337 1.416 . S
C889 C120 0.870 . S
C894 C186 0.870 . S
C899 C21 0.870 . S
C904 C219 0.870 . S
C909 C252 0.870 . S
C914 C54 0.870 . S
C919 C87 0.869 . S
C924 C153 0.869 . S
