# Generated by pormake.
# Topology twt, (3)-cn, num edge types: 1
# Building blocks:
#     Node 0, Type 0, BuildingBlock: WUSLED_clean_sbu_0, # of connection points: 3
#     Node 1, Type 0, BuildingBlock: WUSLED_clean_sbu_0, # of connection points: 3
#     Node 2, Type 0, BuildingBlock: WUSLED_clean_sbu_0, # of connection points: 3
#     Node 3, Type 0, BuildingBlock: WUSLED_clean_sbu_0, # of connection points: 3
#     Node 4, Type 0, BuildingBlock: WUSLED_clean_sbu_0, # of connection points: 3
#     Node 5, Type 0, BuildingBlock: WUSLED_clean_sbu_0, # of connection points: 3
#     Edge 6, Type (0, 0), BuildingBlock: XUDNAN_clean_linker_2, # of connection points: 2
#     Edge 7, Type (0, 0), BuildingBlock: XUDNAN_clean_linker_2, # of connection points: 2
#     Edge 8, Type (0, 0), BuildingBlock: XUDNAN_clean_linker_2, # of connection points: 2
#     Edge 9, Type (0, 0), BuildingBlock: XUDNAN_clean_linker_2, # of connection points: 2
#     Edge 10, Type (0, 0), BuildingBlock: XUDNAN_clean_linker_2, # of connection points: 2
#     Edge 11, Type (0, 0), BuildingBlock: XUDNAN_clean_linker_2, # of connection points: 2
#     Edge 12, Type (0, 0), BuildingBlock: XUDNAN_clean_linker_2, # of connection points: 2
#     Edge 13, Type (0, 0), BuildingBlock: XUDNAN_clean_linker_2, # of connection points: 2
#     Edge 14, Type (0, 0), BuildingBlock: XUDNAN_clean_linker_2, # of connection points: 2
# Relax obj value: 0.000
# Max RMSD: 0.004
# Mean RMSD: 0.004
data_MOF--net-twt--node1-WUSLED_clean_sbu_0--edge1-XUDNAN_clean_linker_2
_symmetry_space_group_name_H-M    P1
_symmetry_Int_Tables_number       1
_symmetry_cell_setting            triclinic
loop_
_symmetry_equiv_pos_as_xyz
'x, y, z'
_cell_length_a     66.46075
_cell_length_b     66.737986
_cell_length_c     17.824387
_cell_angle_alpha  89.766354
_cell_angle_beta   90.122241
_cell_angle_gamma 119.64167
loop_
_atom_site_label
_atom_site_type_symbol
_atom_site_fract_x
_atom_site_fract_y
_atom_site_fract_z
_atom_type_partial_charge
C0 C 0.65536 0.2898 0.33882 0.0
C1 C 0.67584 0.31093 0.32817 0.0
C2 C 0.66006 0.33082 0.40157 0.0
C3 C 0.67812 0.33128 0.35903 0.0
C4 C 0.63965 0.30958 0.41195 0.0
C5 C 0.63735 0.28935 0.38088 0.0
U6 U 0.67597 0.24714 0.27964 0.0
O7 O 0.65764 0.20933 0.29068 0.0
O8 O 0.66703 0.22529 0.17898 0.0
C9 C 0.65625 0.20603 0.21774 0.0
C10 C 0.65197 0.26803 0.30596 0.0
C11 C 0.63376 0.18821 0.1876 0.0
C12 C 0.59156 0.16708 0.18624 0.0
C13 C 0.61249 0.18466 0.2157 0.0
C14 C 0.613 0.15659 0.10048 0.0
C15 C 0.59158 0.15289 0.12791 0.0
C16 C 0.63379 0.17402 0.12995 0.0
C17 C 0.73848 0.26056 0.30711 0.0
C18 C 0.75064 0.23168 0.30151 0.0
C19 C 0.77911 0.27213 0.28906 0.0
C20 C 0.76159 0.27785 0.29718 0.0
C21 C 0.77387 0.24894 0.29079 0.0
C22 C 0.73313 0.23742 0.30918 0.0
C23 C 0.72018 0.2669 0.31394 0.0
O24 O 0.66233 0.26955 0.24169 0.0
O25 O 0.653 0.25337 0.35312 0.0
O26 O 0.70351 0.25473 0.36202 0.0
O27 O 0.71252 0.27058 0.25028 0.0
H28 H 0.69004 0.31172 0.29609 0.0
H29 H 0.69414 0.3473 0.35052 0.0
H30 H 0.62526 0.30861 0.44337 0.0
H31 H 0.62136 0.27328 0.38945 0.0
H32 H 0.57539 0.16481 0.20829 0.0
H33 H 0.61206 0.19543 0.26026 0.0
H34 H 0.61374 0.14578 0.05664 0.0
H35 H 0.64999 0.17635 0.10786 0.0
H36 H 0.74593 0.21368 0.30442 0.0
H37 H 0.79669 0.28587 0.27991 0.0
H38 H 0.76606 0.29581 0.29501 0.0
H39 H 0.71541 0.22375 0.3166 0.0
C40 C 0.61346 0.55949 0.66455 0.0
C41 C 0.6183 0.58246 0.66234 0.0
C42 C 0.58035 0.57123 0.71604 0.0
C43 C 0.6019 0.58826 0.68761 0.0
C44 C 0.57555 0.54818 0.71741 0.0
C45 C 0.59197 0.5424 0.69196 0.0
U46 U 0.67517 0.576 0.60708 0.0
O47 O 0.69605 0.55967 0.6344 0.0
O48 O 0.68746 0.56213 0.51712 0.0
C49 C 0.6967 0.55382 0.56448 0.0
C50 C 0.63073 0.55321 0.63938 0.0
C51 C 0.69066 0.52963 0.55264 0.0
C52 C 0.66455 0.48849 0.56897 0.0
C53 C 0.66955 0.51135 0.57806 0.0
C54 C 0.70152 0.50191 0.50748 0.0
C55 C 0.68057 0.48348 0.53411 0.0
C56 C 0.7065 0.52475 0.5168 0.0
C57 C 0.72076 0.64166 0.60935 0.0
C58 C 0.76214 0.66328 0.63619 0.0
C59 C 0.74342 0.68218 0.57517 0.0
C60 C 0.72234 0.66154 0.57675 0.0
C61 C 0.76349 0.6835 0.6065 0.0
C62 C 0.74094 0.64254 0.63781 0.0
C63 C 0.69753 0.62119 0.61868 0.0
O64 O 0.63877 0.55979 0.57105 0.0
O65 O 0.64702 0.55685 0.68823 0.0
O66 O 0.6947 0.60724 0.67497 0.0
O67 O 0.68673 0.61033 0.55725 0.0
H68 H 0.63479 0.59592 0.64126 0.0
H69 H 0.6061 0.60613 0.68453 0.0
H70 H 0.55932 0.53465 0.73969 0.0
H71 H 0.58795 0.52457 0.69431 0.0
H72 H 0.64812 0.47474 0.58917 0.0
H73 H 0.65703 0.51476 0.60551 0.0
H74 H 0.71434 0.49875 0.48114 0.0
H75 H 0.72291 0.53864 0.49685 0.0
H76 H 0.77724 0.66371 0.66099 0.0
H77 H 0.74389 0.69728 0.55057 0.0
H78 H 0.70704 0.66129 0.55441 0.0
H79 H 0.74021 0.62744 0.6633 0.0
C80 C 0.29726 0.51112 0.96756 0.0
C81 C 0.27812 0.51261 0.94103 0.0
C82 C 0.25172 0.47427 0.99085 0.0
C83 C 0.25561 0.49434 0.95231 0.0
C84 C 0.27089 0.47323 0.01982 0.0
C85 C 0.29344 0.49146 0.00797 0.0
U86 U 0.34273 0.57414 0.92744 0.0
O87 O 0.3793 0.59429 0.96135 0.0
O88 O 0.37022 0.5885 0.84186 0.0
C89 C 0.38691 0.59741 0.89189 0.0
C90 C 0.3212 0.52934 0.95055 0.0
C91 C 0.40734 0.59483 0.87766 0.0
C92 C 0.42741 0.5726 0.87593 0.0
C93 C 0.40715 0.57385 0.88798 0.0
C94 C 0.4479 0.61309 0.84235 0.0
C95 C 0.44812 0.59235 0.85399 0.0
C96 C 0.42776 0.61429 0.85408 0.0
C97 C 0.32565 0.6211 0.92815 0.0
C98 C 0.35081 0.65976 0.87984 0.0
C99 C 0.31531 0.65109 0.944 0.0
C100 C 0.31046 0.62833 0.955 0.0
C101 C 0.33543 0.66704 0.90555 0.0
C102 C 0.34599 0.63703 0.89118 0.0
C103 C 0.31993 0.5969 0.93812 0.0
O104 O 0.32446 0.53881 0.88359 0.0
O105 O 0.3321 0.54445 0.00392 0.0
O106 O 0.32972 0.59279 0.99578 0.0
O107 O 0.32043 0.58626 0.87683 0.0
H108 H 0.28059 0.5277 0.9103 0.0
H109 H 0.24121 0.49584 0.93027 0.0
H110 H 0.26852 0.45799 0.04931 0.0
H111 H 0.30796 0.48997 0.02899 0.0
H112 H 0.42703 0.55639 0.88559 0.0
H113 H 0.39149 0.55861 0.90607 0.0
H114 H 0.46336 0.62851 0.8241 0.0
H115 H 0.42821 0.63059 0.8453 0.0
H116 H 0.36663 0.67166 0.85104 0.0
H117 H 0.303 0.65603 0.96395 0.0
H118 H 0.29468 0.61628 0.98378 0.0
H119 H 0.35805 0.63184 0.87056 0.0
C120 C 1.03741 0.20374 0.33328 0.0
C121 C 1.01752 0.19062 0.37676 0.0
C122 C 1.02884 0.16135 0.39719 0.0
C123 C 1.01331 0.16968 0.40857 0.0
C124 C 0.04851 0.17436 0.35221 0.0
C125 C 0.05277 0.19538 0.32074 0.0
U126 U 1.0173 0.246 0.27472 0.0
O127 O 1.03416 0.28372 0.28584 0.0
O128 O 1.02533 0.26794 0.17413 0.0
C129 C 1.03545 0.28716 0.2129 0.0
C130 C 0.04228 0.22609 0.30093 0.0
C131 C 0.05774 0.30552 0.18326 0.0
C132 C 0.09982 0.32511 0.17373 0.0
C133 C 0.07902 0.30728 0.20331 0.0
C134 C 0.0782 0.33947 0.1042 0.0
C135 C 0.09962 0.34133 0.12328 0.0
C136 C 0.05755 0.32178 0.1338 0.0
C137 C 0.95212 0.22561 0.30412 0.0
C138 C 0.93266 0.24776 0.27942 0.0
C139 C 0.91015 0.20696 0.30761 0.0
C140 C 0.93052 0.2059 0.31516 0.0
C141 C 0.9109 0.22782 0.28884 0.0
C142 C 0.95314 0.24664 0.28663 0.0
C143 C 0.97302 0.22331 0.30927 0.0
O144 O 1.03241 0.22498 0.23595 0.0
O145 O 0.04086 0.24051 0.34784 0.0
O146 O 0.98921 0.23708 0.35628 0.0
O147 O 0.98132 0.22092 0.24519 0.0
H148 H 1.0053 0.19664 0.38646 0.0
H149 H 0.99781 0.15995 0.44189 0.0
H150 H 0.06089 0.16855 0.34276 0.0
H151 H 0.06817 0.20523 0.28709 0.0
H152 H 0.11598 0.32595 0.18922 0.0
H153 H 0.07953 0.29486 0.24145 0.0
H154 H 0.07737 0.35184 0.06668 0.0
H155 H 0.04134 0.3208 0.118 0.0
H156 H 0.9338 0.26404 0.26455 0.0
H157 H 0.89374 0.19138 0.31645 0.0
H158 H 0.92938 0.18954 0.32894 0.0
H159 H 0.96969 0.26204 0.27767 0.0
C160 C 0.07899 0.93845 0.67904 0.0
C161 C 0.08526 0.92348 0.64397 0.0
C162 C 0.11949 0.9376 0.72392 0.0
C163 C 0.1053 0.92302 0.66638 0.0
C164 C 0.11263 0.9519 0.76046 0.0
C165 C 0.09269 0.95234 0.73814 0.0
U166 U 1.01505 0.91769 0.62143 0.0
O167 O 0.99385 0.93351 0.65055 0.0
O168 O 1.00219 0.93155 0.53271 0.0
C169 C 0.99287 0.93948 0.58088 0.0
C170 C 0.05952 0.94145 0.65229 0.0
C171 C 0.99754 0.96338 0.56974 0.0
C172 C 1.02114 1.00272 0.5234 0.0
C173 C 1.01757 0.9803 0.53334 0.0
C174 C 0.98484 0.99157 0.58634 0.0
C175 C 1.00486 1.00864 0.55029 0.0
C176 C 0.98124 0.96924 0.5958 0.0
C177 C 0.96764 0.85442 0.62699 0.0
C178 C 0.92777 0.84254 0.59415 0.0
C179 C 0.93721 0.81478 0.64747 0.0
C180 C 0.96057 0.83187 0.65111 0.0
C181 C 0.92044 0.81995 0.61975 0.0
C182 C 0.95112 0.85961 0.59794 0.0
C183 C 0.99203 0.87253 0.63548 0.0
O184 O 0.05139 0.93398 0.5846 0.0
O185 O 0.04327 0.93745 0.70159 0.0
O186 O 0.99617 0.8867 0.69175 0.0
O187 O 1.00279 0.88317 0.57351 0.0
H188 H 0.07503 0.91256 0.59814 0.0
H189 H 0.11013 0.91189 0.63683 0.0
H190 H 0.12286 0.96302 0.80591 0.0
H191 H 0.08825 0.96403 0.76609 0.0
H192 H 1.03681 1.0155 0.4959 0.0
H193 H 1.03047 0.97625 0.51284 0.0
H194 H 0.97178 0.99541 0.60671 0.0
H195 H 0.96561 0.95645 0.62359 0.0
H196 H 0.91544 0.8471 0.57138 0.0
H197 H 0.93223 0.7977 0.66848 0.0
H198 H 0.97307 0.82757 0.67406 0.0
H199 H 0.95624 0.87694 0.57905 0.0
C200 C 0.3956 0.98032 0.9768 0.0
C201 C 0.41475 0.98059 0.94258 0.0
C202 C 0.44078 1.0178 -0.0003 0.0
C203 C 0.43709 0.99917 0.95371 0.0
C204 C 0.42169 1.01696 0.03653 0.0
C205 C 0.39931 0.99845 0.02487 0.0
U206 U 0.34896 0.91782 0.93084 0.0
O207 O 0.31212 0.89856 0.96242 0.0
O208 O 0.32191 0.90559 0.84377 0.0
C209 C 0.30498 0.89761 0.89294 0.0
C210 C 0.37163 0.96231 0.95894 0.0
C211 C 0.28726 0.9045 0.8804 0.0
C212 C 0.2706 0.92901 0.90669 0.0
C213 C 0.28741 0.92261 0.92065 0.0
C214 C 0.25331 0.89938 0.81184 0.0
C215 C 0.25339 0.91758 0.85171 0.0
C216 C 0.27005 0.89292 0.82614 0.0
C217 C 0.36617 0.87024 0.9229 0.0
C218 C 0.3427 0.82853 0.93705 0.0
C219 C 0.37945 0.84501 0.87212 0.0
C220 C 0.3828 0.86713 0.88446 0.0
C221 C 0.35937 0.82541 0.89818 0.0
C222 C 0.34602 0.85074 0.94905 0.0
C223 C 0.37079 0.89401 0.93627 0.0
O224 O 0.36824 0.95362 0.891 0.0
O225 O 0.3605 0.94665 0.01095 0.0
O226 O 0.36079 0.8973 0.9949 0.0
O227 O 0.37064 0.90557 0.87659 0.0
H228 H 0.41241 0.96674 0.90569 0.0
H229 H 0.45147 0.99912 0.92542 0.0
H230 H 0.42391 0.03107 0.07192 0.0
H231 H 0.38479 0.99861 0.05178 0.0
H232 H 0.27105 0.94287 0.93935 0.0
H233 H 0.30055 0.93185 0.96272 0.0
H234 H 0.24062 0.8904 0.76835 0.0
H235 H 0.2697 0.87897 0.79417 0.0
H236 H 0.32695 0.81379 0.95728 0.0
H237 H 0.39281 0.84331 0.84301 0.0
H238 H 0.39855 0.8819 0.86426 0.0
H239 H 0.33287 0.85265 0.97879 0.0
H240 H 0.67838 0.37423 0.3382 0.0
H241 H 0.64679 0.33586 0.54233 0.0
H242 H 0.64867 0.37054 0.59782 0.0
H243 H 0.7179 0.42848 0.42901 0.0
H244 H 0.71483 0.4459 0.35728 0.0
H245 H 0.71141 0.41815 0.33385 0.0
H246 H 0.67078 0.40568 0.27901 0.0
H247 H 0.67404 0.43335 0.30252 0.0
H248 H 0.64943 0.40735 0.33683 0.0
H249 H 0.65323 0.40908 0.6307 0.0
H250 H 0.66094 0.44914 0.6397 0.0
H251 H 0.68954 0.46282 0.41445 0.0
C252 C 0.67212 0.3732 0.39491 0.0
C253 C 0.66233 0.35222 0.43573 0.0
C254 C 0.65406 0.35159 0.50946 0.0
C255 C 0.65516 0.37125 0.54167 0.0
C256 C 0.66462 0.39152 0.49964 0.0
C257 C 0.67304 0.3927 0.42797 0.0
C258 C 0.68205 0.4166 0.39461 0.0
C259 C 0.70809 0.42795 0.37771 0.0
C260 C 0.66825 0.41568 0.32407 0.0
C261 C 0.67735 0.42862 0.45871 0.0
C262 C 0.66727 0.41381 0.51868 0.0
C263 C 0.6611 0.42084 0.58404 0.0
C264 C 0.66539 0.44361 0.58839 0.0
C265 C 0.67577 0.4592 0.52776 0.0
C266 C 0.6818 0.45146 0.46212 0.0
H267 H 0.53262 0.54773 0.70086 0.0
H268 H 0.58937 0.60918 0.7995 0.0
H269 H 0.56164 0.62038 0.84767 0.0
H270 H 0.49875 0.57322 0.64402 0.0
H271 H 0.4713 0.54834 0.66667 0.0
H272 H 0.49552 0.54477 0.6408 0.0
H273 H 0.49128 0.5227 0.7649 0.0
H274 H 0.46705 0.52623 0.79123 0.0
H275 H 0.49162 0.53603 0.85301 0.0
H276 H 0.52816 0.62542 0.88371 0.0
H277 H 0.49096 0.6243 0.90398 0.0
H278 H 0.45531 0.55945 0.78382 0.0
C279 C 0.53922 0.56342 0.73327 0.0
C280 C 0.5633 0.57763 0.74587 0.0
C281 C 0.57112 0.59817 0.7878 0.0
C282 C 0.55547 0.60461 0.81602 0.0
C283 C 0.53194 0.59029 0.80232 0.0
C284 C 0.52378 0.57011 0.76206 0.0
C285 C 0.4976 0.55807 0.75446 0.0
C286 C 0.49038 0.55599 0.67156 0.0
C287 C 0.48622 0.53435 0.79322 0.0
C288 C 0.49238 0.57478 0.79609 0.0
C289 C 0.51248 0.59318 0.82343 0.0
C290 C 0.5123 0.6111 0.86258 0.0
C291 C 0.49107 0.61036 0.87346 0.0
C292 C 0.47019 0.59187 0.84517 0.0
C293 C 0.47091 0.5737 0.80672 0.0
H294 H 0.23066 0.44657 0.11459 0.0
H295 H 0.2189 0.45618 0.88085 0.0
H296 H 0.17948 0.42275 0.88892 0.0
H297 H 0.19892 0.38403 0.11406 0.0
H298 H 0.18705 0.38162 0.20664 0.0
H299 H 0.21461 0.40613 0.18275 0.0
H300 H 0.19941 0.43366 0.22104 0.0
H301 H 0.17184 0.40923 0.24527 0.0
H302 H 0.17326 0.43031 0.17875 0.0
H303 H 0.14148 0.38846 0.92139 0.0
H304 H 0.10657 0.35624 0.97757 0.0
H305 H 0.14207 0.3687 0.19156 0.0
C306 C 0.21982 0.44153 0.06503 0.0
C307 C 0.22789 0.4541 0.99708 0.0
C308 C 0.21305 0.44707 0.93375 0.0
C309 C 0.19066 0.42799 0.93762 0.0
C310 C 0.18324 0.41604 0.00531 0.0
C311 C 0.19728 0.42254 0.06805 0.0
C312 C 0.18472 0.407 0.13438 0.0
C313 C 0.19706 0.39392 0.16101 0.0
C314 C 0.18215 0.42088 0.19865 0.0
C315 C 0.16145 0.39076 0.099 0.0
C316 C 0.16108 0.39629 0.02441 0.0
C317 C 0.14153 0.38402 0.97984 0.0
C318 C 0.12171 0.3658 0.01245 0.0
C319 C 0.12141 0.35997 0.08921 0.0
C320 C 0.14174 0.37255 0.13265 0.0
H321 H 1.02073 0.03739 0.42632 0.0
H322 H 0.99745 0.03393 0.65579 0.0
H323 H 1.00164 0.07259 0.64184 0.0
H324 H 0.06354 0.09871 0.42692 0.0
H325 H 0.05755 0.10326 0.33161 0.0
H326 H 0.05339 0.07552 0.36005 0.0
H327 H 1.01088 0.05613 0.31403 0.0
H328 H 1.01489 0.0838 0.28568 0.0
H329 H 0.99193 0.06598 0.34976 0.0
H330 H 1.00717 0.11101 0.60256 0.0
H331 H 1.01438 0.14714 0.54103 0.0
H332 H 1.03422 0.1262 0.33666 0.0
C333 C 1.01681 0.0449 0.47392 0.0
C334 C 1.00865 0.03252 0.54212 0.0
C335 C 1.00342 0.04289 0.60269 0.0
C336 C 1.00586 0.06491 0.59546 0.0
C337 C 1.01362 0.07648 0.52731 0.0
C338 C 1.01911 0.06692 0.4676 0.0
C339 C 1.0266 0.08292 0.39999 0.0
C340 C 0.05177 0.09055 0.37839 0.0
C341 C 1.01009 0.07152 0.33345 0.0
C342 C 1.02439 0.10289 0.43105 0.0
C343 C 1.01687 0.09878 0.5046 0.0
C344 C 1.01309 0.11444 0.54499 0.0
C345 C 1.01708 0.13486 0.50934 0.0
C346 C 1.02479 0.13954 0.43389 0.0
C347 C 1.02856 0.12328 0.39457 0.0
H348 H 0.12919 0.90192 0.73935 0.0
H349 H 0.16081 0.97639 0.75239 0.0
H350 H 0.19802 0.9792 0.78704 0.0
H351 H 0.15974 0.89512 0.89542 0.0
H352 H 0.16303 0.87253 0.8522 0.0
H353 H 0.13873 0.87621 0.82794 0.0
H354 H 0.15009 0.87983 0.68757 0.0
H355 H 0.17442 0.87614 0.71142 0.0
H356 H 0.17888 0.90117 0.65907 0.0
H357 H 0.23193 0.97421 0.81945 0.0
H358 H 0.26034 0.9617 0.84765 0.0
H359 H 0.20698 0.89035 0.81607 0.0
C360 C 0.14398 0.91882 0.74902 0.0
C361 C 0.14195 0.93892 0.74369 0.0
C362 C 0.16174 0.9607 0.7574 0.0
C363 C 0.18304 0.9625 0.77667 0.0
C364 C 0.1844 0.94239 0.78202 0.0
C365 C 0.16544 0.92095 0.7686 0.0
C366 C 0.17167 0.90207 0.77867 0.0
C367 C 0.15745 0.88551 0.84236 0.0
C368 C 0.16859 0.88904 0.70478 0.0
C369 C 0.19706 0.91628 0.79984 0.0
C370 C 0.20401 0.93949 0.80129 0.0
C371 C 0.22665 0.95606 0.81891 0.0
C372 C 0.24265 0.94873 0.83547 0.0
C373 C 0.236 0.925 0.83473 0.0
C374 C 0.21279 0.90863 0.81656 0.0
H375 H 0.46338 0.04278 0.12623 0.0
H376 H 0.47107 0.04006 0.88534 0.0
H377 H 0.50964 0.07479 0.89204 0.0
H378 H 0.492 0.10502 0.14154 0.0
H379 H 0.50605 0.10598 0.22913 0.0
H380 H 0.47879 0.08102 0.20589 0.0
H381 H 0.497 0.05484 0.22413 0.0
H382 H 0.52428 0.0797 0.24774 0.0
H383 H 0.52275 0.06102 0.17256 0.0
H384 H 0.54713 0.10974 0.92385 0.0
H385 H 0.58217 0.14181 0.97956 0.0
H386 H 0.55115 0.12198 0.20085 0.0
C387 C 0.47315 0.04958 0.07491 0.0
C388 C 0.46421 0.0386 0.00521 0.0
C389 C 0.47766 0.04793 0.93945 0.0
C390 C 0.49952 0.06777 0.9426 0.0
C391 C 0.50783 0.07814 0.012 0.0
C392 C 0.49517 0.06935 0.0771 0.0
C393 C 0.50852 0.08358 0.14463 0.0
C394 C 0.49556 0.09455 0.18252 0.0
C395 C 0.51343 0.06891 0.20056 0.0
C396 C 0.53062 0.10171 0.1072 0.0
C397 C 0.52974 0.09826 0.03061 0.0
C398 C 0.54806 0.11256 0.98381 0.0
C399 C 0.56797 0.13068 0.01612 0.0
C400 C 0.56959 0.13438 0.09473 0.0
C401 C 0.55044 0.11978 0.14057 0.0
H402 H 0.89925 0.25988 0.33968 0.0
H403 H 0.87275 0.19666 0.21145 0.0
H404 H 0.83544 0.19577 0.1961 0.0
H405 H 0.84696 0.24464 0.43828 0.0
H406 H 0.85039 0.27317 0.43569 0.0
H407 H 0.87551 0.26957 0.43407 0.0
H408 H 0.88927 0.29338 0.31106 0.0
H409 H 0.8642 0.2971 0.3124 0.0
H410 H 0.87011 0.2848 0.23128 0.0
H411 H 0.8008 0.20109 0.19638 0.0
H412 H 0.77084 0.21219 0.21267 0.0
H413 H 0.81902 0.27155 0.34345 0.0
C414 C 0.88568 0.24603 0.30758 0.0
C415 C 0.88892 0.22827 0.27701 0.0
C416 C 0.87061 0.21029 0.23618 0.0
C417 C 0.84938 0.20969 0.22679 0.0
C418 C 0.84663 0.22723 0.25843 0.0
C419 C 0.86425 0.24509 0.29792 0.0
C420 C 0.85642 0.2614 0.32788 0.0
C421 C 0.85737 0.26223 0.4141 0.0
C422 C 0.87086 0.2856 0.2936 0.0
C423 C 0.83163 0.24976 0.29963 0.0
C424 C 0.82643 0.23015 0.25935 0.0
C425 C 0.80463 0.21638 0.22799 0.0
C426 C 0.78764 0.22275 0.23816 0.0
C427 C 0.79237 0.24267 0.27988 0.0
C428 C 0.8148 0.25635 0.31064 0.0
H429 H 0.80872 0.69372 0.58077 0.0
H430 H 0.76742 0.72477 0.64617 0.0
H431 H 0.80277 0.76266 0.65513 0.0
H432 H 0.85719 0.72777 0.7033 0.0
H433 H 0.87871 0.73033 0.63669 0.0
H434 H 0.85012 0.70548 0.63471 0.0
H435 H 0.84587 0.71362 0.49505 0.0
H436 H 0.87444 0.73851 0.49662 0.0
H437 H 0.85001 0.74148 0.46814 0.0
H438 H 0.84234 0.79714 0.65828 0.0
H439 H 0.88381 0.82613 0.65561 0.0
H440 H 0.90008 0.77339 0.58684 0.0
C441 C 0.80715 0.70847 0.59732 0.0
C442 C 0.78519 0.70623 0.61208 0.0
C443 C 0.78393 0.72605 0.63316 0.0
C444 C 0.80395 0.74766 0.63889 0.0
C445 C 0.82524 0.74931 0.62344 0.0
C446 C 0.82704 0.7303 0.60309 0.0
C447 C 0.85214 0.73698 0.5893 0.0
C448 C 0.86 0.72439 0.64429 0.0
C449 C 0.85582 0.73238 0.50741 0.0
C450 C 0.8641 0.76265 0.60549 0.0
C451 C 0.8482 0.76935 0.62499 0.0
C452 C 0.85496 0.79213 0.64266 0.0
C453 C 0.87859 0.80853 0.64041 0.0
C454 C 0.89533 0.8022 0.62044 0.0
C455 C 0.88783 0.77885 0.60285 0.0
H456 H 0.32956 0.69635 0.00074 0.0
H457 H 0.35157 0.69182 0.77534 0.0
H458 H 0.35926 0.73129 0.74871 0.0
H459 H 0.30076 0.72862 0.95166 0.0
H460 H 0.30998 0.74602 0.03523 0.0
H461 H 0.30603 0.7173 0.03687 0.0
H462 H 0.34813 0.73342 0.08399 0.0
H463 H 0.35219 0.76218 0.08267 0.0
H464 H 0.37165 0.75582 0.0311 0.0
H465 H 0.36469 0.77121 0.74617 0.0
H466 H 0.36831 0.80929 0.76873 0.0
H467 H 0.34288 0.78834 0.99585 0.0
C468 C 0.33582 0.70359 0.94558 0.0
C469 C 0.34003 0.69094 0.8902 0.0
C470 C 0.34853 0.70122 0.81907 0.0
C471 C 0.3528 0.7236 0.8032 0.0
C472 C 0.3485 0.73556 0.85897 0.0
C473 C 0.34025 0.72598 0.9288 0.0
C474 C 0.33749 0.74277 0.97912 0.0
C475 C 0.31205 0.7331 0.00205 0.0
C476 C 0.35331 0.74891 0.0483 0.0
C477 C 0.34547 0.76327 0.9266 0.0
C478 C 0.3517 0.75869 0.85757 0.0
C479 C 0.35991 0.775 0.80006 0.0
C480 C 0.36201 0.79665 0.81357 0.0
C481 C 0.35599 0.80191 0.88414 0.0
C482 C 0.34741 0.78482 0.94106 0.0
loop_
_geom_bond_atom_site_label_1
_geom_bond_atom_site_label_2
_geom_bond_distance
_geom_bond_site_symmetry_2
_ccdc_geom_bond_type
C0 C1 1.264 . S
C0 C5 1.479 . S
C0 C10 1.465 . S
C1 C0 1.264 . S
C1 C3 1.339 . S
C1 H28 0.931 . S
C2 C3 1.395 . S
C2 C4 1.320 . S
C3 C1 1.339 . S
C3 C2 1.395 . S
C3 H29 0.929 . S
C4 C2 1.320 . S
C4 C5 1.405 . S
C4 H30 0.930 . S
C5 C0 1.479 . S
C5 C4 1.405 . S
C5 H31 0.931 . S
U6 O7 2.454 . S
U6 O8 2.458 . S
U6 C9 2.984 . S
U6 C10 2.847 . S
U6 C23 2.882 . S
U6 O24 2.441 . S
U6 O25 2.420 . S
U6 O26 2.455 . S
U6 O27 2.449 . S
O7 U6 2.454 . S
O7 C9 1.353 . S
O8 U6 2.458 . S
O8 C9 1.286 . S
C9 U6 2.984 . S
C9 O7 1.353 . S
C9 O8 1.286 . S
C9 C11 1.363 . S
C10 C0 1.465 . S
C10 U6 2.847 . S
C10 O24 1.249 . S
C10 O25 1.202 . S
C11 C9 1.363 . S
C11 C13 1.408 . S
C11 C16 1.342 . S
C12 C13 1.310 . S
C12 C15 1.461 . S
C12 H32 0.932 . S
C13 C11 1.408 . S
C13 C12 1.310 . S
C13 H33 0.930 . S
C14 C15 1.474 . S
C14 C16 1.285 . S
C14 H34 0.929 . S
C15 C12 1.461 . S
C15 C14 1.474 . S
C16 C11 1.342 . S
C16 C14 1.285 . S
C16 H35 0.930 . S
C17 C20 1.424 . S
C17 C22 1.245 . S
C17 C23 1.428 . S
C18 C21 1.260 . S
C18 C22 1.477 . S
C18 H36 0.932 . S
C19 C20 1.384 . S
C19 C21 1.479 . S
C19 H37 0.929 . S
C20 C17 1.424 . S
C20 C19 1.384 . S
C20 H38 0.928 . S
C21 C18 1.260 . S
C21 C19 1.479 . S
C22 C17 1.245 . S
C22 C18 1.477 . S
C22 H39 0.932 . S
C23 U6 2.882 . S
C23 C17 1.428 . S
C23 O26 1.301 . S
C23 O27 1.282 . S
O24 U6 2.441 . S
O24 C10 1.249 . S
O25 U6 2.420 . S
O25 C10 1.202 . S
O26 U6 2.455 . S
O26 C23 1.301 . S
O27 U6 2.449 . S
O27 C23 1.282 . S
H28 C1 0.931 . S
H29 C3 0.929 . S
H30 C4 0.930 . S
H31 C5 0.931 . S
H32 C12 0.932 . S
H33 C13 0.930 . S
H34 C14 0.929 . S
H35 C16 0.930 . S
H36 C18 0.932 . S
H37 C19 0.929 . S
H38 C20 0.928 . S
H39 C22 0.932 . S
C40 C41 1.264 . S
C40 C45 1.479 . S
C40 C50 1.465 . S
C41 C40 1.264 . S
C41 C43 1.339 . S
C41 H68 0.931 . S
C42 C43 1.395 . S
C42 C44 1.320 . S
C43 C41 1.339 . S
C43 C42 1.395 . S
C43 H69 0.929 . S
C44 C42 1.320 . S
C44 C45 1.405 . S
C44 H70 0.930 . S
C45 C40 1.479 . S
C45 C44 1.405 . S
C45 H71 0.931 . S
U46 O47 2.454 . S
U46 O48 2.458 . S
U46 C49 2.984 . S
U46 C50 2.847 . S
U46 C63 2.882 . S
U46 O64 2.441 . S
U46 O65 2.420 . S
U46 O66 2.455 . S
U46 O67 2.449 . S
O47 U46 2.454 . S
O47 C49 1.353 . S
O48 U46 2.458 . S
O48 C49 1.286 . S
C49 U46 2.984 . S
C49 O47 1.353 . S
C49 O48 1.286 . S
C49 C51 1.363 . S
C50 C40 1.465 . S
C50 U46 2.847 . S
C50 O64 1.249 . S
C50 O65 1.202 . S
C51 C49 1.363 . S
C51 C53 1.408 . S
C51 C56 1.342 . S
C52 C53 1.310 . S
C52 C55 1.461 . S
C52 H72 0.932 . S
C53 C51 1.408 . S
C53 C52 1.310 . S
C53 H73 0.930 . S
C54 C55 1.474 . S
C54 C56 1.285 . S
C54 H74 0.929 . S
C55 C52 1.461 . S
C55 C54 1.474 . S
C56 C51 1.342 . S
C56 C54 1.285 . S
C56 H75 0.930 . S
C57 C60 1.424 . S
C57 C62 1.245 . S
C57 C63 1.428 . S
C58 C61 1.260 . S
C58 C62 1.477 . S
C58 H76 0.932 . S
C59 C60 1.384 . S
C59 C61 1.479 . S
C59 H77 0.929 . S
C60 C57 1.424 . S
C60 C59 1.384 . S
C60 H78 0.928 . S
C61 C58 1.260 . S
C61 C59 1.479 . S
C62 C57 1.245 . S
C62 C58 1.477 . S
C62 H79 0.932 . S
C63 U46 2.882 . S
C63 C57 1.428 . S
C63 O66 1.301 . S
C63 O67 1.282 . S
O64 U46 2.441 . S
O64 C50 1.249 . S
O65 U46 2.420 . S
O65 C50 1.202 . S
O66 U46 2.455 . S
O66 C63 1.301 . S
O67 U46 2.449 . S
O67 C63 1.282 . S
H68 C41 0.931 . S
H69 C43 0.929 . S
H70 C44 0.930 . S
H71 C45 0.931 . S
H72 C52 0.932 . S
H73 C53 0.930 . S
H74 C54 0.929 . S
H75 C56 0.930 . S
H76 C58 0.932 . S
H77 C59 0.929 . S
H78 C60 0.928 . S
H79 C62 0.932 . S
C80 C81 1.264 . S
C80 C85 1.479 . S
C80 C90 1.465 . S
C81 C80 1.264 . S
C81 C83 1.339 . S
C81 H108 0.931 . S
C82 C83 1.395 . S
C82 C84 1.320 . S
C83 C81 1.339 . S
C83 C82 1.395 . S
C83 H109 0.929 . S
C84 C82 1.320 . S
C84 C85 1.405 . S
C84 H110 0.930 . S
C85 C80 1.479 . S
C85 C84 1.405 . S
C85 H111 0.931 . S
U86 O87 2.454 . S
U86 O88 2.458 . S
U86 C89 2.984 . S
U86 C90 2.847 1_556 S
U86 C103 2.882 1_556 S
U86 O104 2.441 1_556 S
U86 O105 2.420 1_556 S
U86 O106 2.455 . S
U86 O107 2.449 1_556 S
O87 U86 2.454 . S
O87 C89 1.353 . S
O88 U86 2.458 . S
O88 C89 1.286 . S
C89 U86 2.984 . S
C89 O87 1.353 . S
C89 O88 1.286 . S
C89 C91 1.363 . S
C90 C80 1.465 . S
C90 U86 2.847 1_554 S
C90 O104 1.249 . S
C90 O105 1.202 . S
C91 C89 1.363 . S
C91 C93 1.408 . S
C91 C96 1.342 . S
C92 C93 1.310 . S
C92 C95 1.461 . S
C92 H112 0.932 . S
C93 C91 1.408 . S
C93 C92 1.310 . S
C93 H113 0.930 . S
C94 C95 1.474 . S
C94 C96 1.285 . S
C94 H114 0.929 . S
C95 C92 1.461 . S
C95 C94 1.474 . S
C96 C91 1.342 . S
C96 C94 1.285 . S
C96 H115 0.930 . S
C97 C100 1.424 1_556 S
C97 C102 1.245 . S
C97 C103 1.428 1_556 S
C98 C101 1.260 . S
C98 C102 1.477 . S
C98 H116 0.932 . S
C99 C100 1.384 . S
C99 C101 1.479 1_554 S
C99 H117 0.929 . S
C100 C97 1.424 1_554 S
C100 C99 1.384 . S
C100 H118 0.928 . S
C101 C98 1.260 . S
C101 C99 1.479 1_556 S
C102 C97 1.245 . S
C102 C98 1.477 . S
C102 H119 0.932 . S
C103 U86 2.882 1_554 S
C103 C97 1.428 1_554 S
C103 O106 1.301 1_554 S
C103 O107 1.282 . S
O104 U86 2.441 1_554 S
O104 C90 1.249 . S
O105 U86 2.420 1_554 S
O105 C90 1.202 . S
O106 U86 2.455 . S
O106 C103 1.301 1_556 S
O107 U86 2.449 1_554 S
O107 C103 1.282 . S
H108 C81 0.931 . S
H109 C83 0.929 . S
H110 C84 0.930 . S
H111 C85 0.931 . S
H112 C92 0.932 . S
H113 C93 0.930 . S
H114 C94 0.929 . S
H115 C96 0.930 . S
H116 C98 0.932 . S
H117 C99 0.929 . S
H118 C100 0.928 . S
H119 C102 0.932 . S
C120 C121 1.264 . S
C120 C125 1.479 . S
C120 C130 1.465 . S
C121 C120 1.264 . S
C121 C123 1.339 . S
C121 H148 0.931 . S
C122 C123 1.395 . S
C122 C124 1.320 . S
C123 C121 1.339 . S
C123 C122 1.395 . S
C123 H149 0.929 . S
C124 C122 1.320 . S
C124 C125 1.405 . S
C124 H150 0.930 1_655 S
C125 C120 1.479 . S
C125 C124 1.405 . S
C125 H151 0.931 1_655 S
U126 O127 2.454 1_655 S
U126 O128 2.459 . S
U126 C129 2.984 1_655 S
U126 C130 2.847 . S
U126 C143 2.882 . S
U126 O144 2.441 . S
U126 O145 2.420 . S
U126 O146 2.455 . S
U126 O147 2.449 . S
O127 U126 2.454 1_455 S
O127 C129 1.353 . S
O128 U126 2.459 . S
O128 C129 1.273 1_655 S
C129 U126 2.984 1_455 S
C129 O127 1.353 . S
C129 O128 1.273 1_455 S
C129 C131 1.363 . S
C130 C120 1.465 . S
C130 U126 2.847 . S
C130 O144 1.249 . S
C130 O145 1.202 . S
C131 C129 1.363 . S
C131 C133 1.408 . S
C131 C136 1.342 . S
C132 C133 1.310 . S
C132 C135 1.461 . S
C132 H152 0.932 . S
C133 C131 1.408 . S
C133 C132 1.310 . S
C133 H153 0.930 . S
C134 C135 1.474 . S
C134 C136 1.285 . S
C134 H154 0.929 . S
C135 C132 1.461 . S
C135 C134 1.474 . S
C136 C131 1.342 . S
C136 C134 1.285 . S
C136 H155 0.930 . S
C137 C140 1.424 . S
C137 C142 1.245 . S
C137 C143 1.428 . S
C138 C141 1.260 . S
C138 C142 1.477 . S
C138 H156 0.932 . S
C139 C140 1.384 . S
C139 C141 1.479 . S
C139 H157 0.929 . S
C140 C137 1.424 . S
C140 C139 1.384 . S
C140 H158 0.928 . S
C141 C138 1.260 . S
C141 C139 1.479 . S
C142 C137 1.245 . S
C142 C138 1.477 . S
C142 H159 0.932 . S
C143 U126 2.882 . S
C143 C137 1.428 . S
C143 O146 1.301 . S
C143 O147 1.282 . S
O144 U126 2.441 . S
O144 C130 1.249 . S
O145 U126 2.420 . S
O145 C130 1.202 . S
O146 U126 2.455 . S
O146 C143 1.301 . S
O147 U126 2.449 . S
O147 C143 1.282 . S
H148 C121 0.931 . S
H149 C123 0.929 . S
H150 C124 0.930 1_455 S
H151 C125 0.931 1_455 S
H152 C132 0.932 . S
H153 C133 0.930 . S
H154 C134 0.929 . S
H155 C136 0.930 . S
H156 C138 0.932 . S
H157 C139 0.929 . S
H158 C140 0.928 . S
H159 C142 0.932 . S
C160 C161 1.264 . S
C160 C165 1.479 . S
C160 C170 1.465 . S
C161 C160 1.264 . S
C161 C163 1.339 . S
C161 H188 0.931 . S
C162 C163 1.395 . S
C162 C164 1.320 . S
C163 C161 1.339 . S
C163 C162 1.395 . S
C163 H189 0.929 . S
C164 C162 1.320 . S
C164 C165 1.405 . S
C164 H190 0.930 . S
C165 C160 1.479 . S
C165 C164 1.405 . S
C165 H191 0.931 . S
U166 O167 2.454 . S
U166 O168 2.458 . S
U166 C169 2.984 . S
U166 C170 2.847 1_655 S
U166 C183 2.882 . S
U166 O184 2.441 1_655 S
U166 O185 2.420 . S
U166 O186 2.455 . S
U166 O187 2.449 . S
O167 U166 2.454 . S
O167 C169 1.353 . S
O168 U166 2.458 . S
O168 C169 1.286 . S
C169 U166 2.984 . S
C169 O167 1.353 . S
C169 O168 1.286 . S
C169 C171 1.363 . S
C170 C160 1.465 . S
C170 U166 2.847 1_455 S
C170 O184 1.249 . S
C170 O185 1.202 1_455 S
C171 C169 1.363 . S
C171 C173 1.408 . S
C171 C176 1.342 . S
C172 C173 1.310 . S
C172 C175 1.461 . S
C172 H192 0.932 1_665 S
C173 C171 1.408 . S
C173 C172 1.310 . S
C173 H193 0.930 1_655 S
C174 C175 1.474 . S
C174 C176 1.285 . S
C174 H194 0.929 . S
C175 C172 1.461 . S
C175 C174 1.474 . S
C176 C171 1.342 . S
C176 C174 1.285 . S
C176 H195 0.930 . S
C177 C180 1.424 . S
C177 C182 1.245 . S
C177 C183 1.428 . S
C178 C181 1.260 . S
C178 C182 1.477 . S
C178 H196 0.932 . S
C179 C180 1.384 . S
C179 C181 1.479 . S
C179 H197 0.929 . S
C180 C177 1.424 . S
C180 C179 1.384 . S
C180 H198 0.928 . S
C181 C178 1.260 . S
C181 C179 1.479 . S
C182 C177 1.245 . S
C182 C178 1.477 . S
C182 H199 0.932 . S
C183 U166 2.882 . S
C183 C177 1.428 . S
C183 O186 1.301 . S
C183 O187 1.282 . S
O184 U166 2.441 1_455 S
O184 C170 1.249 . S
O185 U166 2.420 . S
O185 C170 1.202 1_655 S
O186 U166 2.455 . S
O186 C183 1.301 . S
O187 U166 2.449 . S
O187 C183 1.282 . S
H188 C161 0.931 . S
H189 C163 0.929 . S
H190 C164 0.930 . S
H191 C165 0.931 . S
H192 C172 0.932 1_445 S
H193 C173 0.930 1_455 S
H194 C174 0.929 . S
H195 C176 0.930 . S
H196 C178 0.932 . S
H197 C179 0.929 . S
H198 C180 0.928 . S
H199 C182 0.932 . S
C200 C201 1.264 . S
C200 C205 1.479 . S
C200 C210 1.465 . S
C201 C200 1.264 . S
C201 C203 1.339 . S
C201 H228 0.931 . S
C202 C203 1.395 . S
C202 C204 1.320 . S
C203 C201 1.339 . S
C203 C202 1.395 . S
C203 H229 0.929 . S
C204 C202 1.320 . S
C204 C205 1.405 . S
C204 H230 0.930 1_565 S
C205 C200 1.479 . S
C205 C204 1.405 . S
C205 H231 0.931 . S
U206 O207 2.454 . S
U206 O208 2.458 . S
U206 C209 2.984 . S
U206 C210 2.847 1_556 S
U206 C223 2.882 1_556 S
U206 O224 2.441 1_556 S
U206 O225 2.420 1_556 S
U206 O226 2.455 . S
U206 O227 2.449 1_556 S
O207 U206 2.454 . S
O207 C209 1.353 . S
O208 U206 2.458 . S
O208 C209 1.286 . S
C209 U206 2.984 . S
C209 O207 1.353 . S
C209 O208 1.286 . S
C209 C211 1.363 . S
C210 C200 1.465 . S
C210 U206 2.847 1_554 S
C210 O224 1.249 . S
C210 O225 1.202 . S
C211 C209 1.363 . S
C211 C213 1.408 . S
C211 C216 1.342 . S
C212 C213 1.310 . S
C212 C215 1.461 . S
C212 H232 0.932 . S
C213 C211 1.408 . S
C213 C212 1.310 . S
C213 H233 0.930 . S
C214 C215 1.474 . S
C214 C216 1.285 . S
C214 H234 0.929 . S
C215 C212 1.461 . S
C215 C214 1.474 . S
C216 C211 1.342 . S
C216 C214 1.285 . S
C216 H235 0.930 . S
C217 C220 1.424 1_556 S
C217 C222 1.245 . S
C217 C223 1.428 1_556 S
C218 C221 1.260 . S
C218 C222 1.477 . S
C218 H236 0.932 . S
C219 C220 1.384 . S
C219 C221 1.479 1_554 S
C219 H237 0.929 . S
C220 C217 1.424 1_554 S
C220 C219 1.384 . S
C220 H238 0.928 . S
C221 C218 1.260 . S
C221 C219 1.479 1_556 S
C222 C217 1.245 . S
C222 C218 1.477 . S
C222 H239 0.932 . S
C223 U206 2.882 1_554 S
C223 C217 1.428 1_554 S
C223 O226 1.301 1_554 S
C223 O227 1.282 . S
O224 U206 2.441 1_554 S
O224 C210 1.249 . S
O225 U206 2.420 1_554 S
O225 C210 1.202 . S
O226 U206 2.455 . S
O226 C223 1.301 1_556 S
O227 U206 2.449 1_554 S
O227 C223 1.282 . S
H228 C201 0.931 . S
H229 C203 0.929 . S
H230 C204 0.930 1_545 S
H231 C205 0.931 . S
H232 C212 0.932 . S
H233 C213 0.930 . S
H234 C214 0.929 . S
H235 C216 0.930 . S
H236 C218 0.932 . S
H237 C219 0.929 . S
H238 C220 0.928 . S
H239 C222 0.932 . S
H240 C252 0.930 . S
H241 C254 0.930 . S
H242 C255 0.930 . S
H243 C259 0.959 . S
H244 C259 0.959 . S
H245 C259 0.961 . S
H246 C260 0.960 . S
H247 C260 0.961 . S
H248 C260 0.959 . S
H249 C263 0.929 . S
H250 C264 0.931 . S
H251 C266 0.930 . S
C252 H240 0.930 . S
C252 C253 1.399 . S
C252 C257 1.399 . S
C253 C252 1.399 . S
C253 C254 1.376 . S
C254 H241 0.930 . S
C254 C253 1.376 . S
C254 C255 1.388 . S
C255 H242 0.930 . S
C255 C254 1.388 . S
C255 C256 1.390 . S
C256 C255 1.390 . S
C256 C257 1.394 . S
C256 C262 1.465 . S
C257 C252 1.399 . S
C257 C256 1.394 . S
C257 C258 1.516 . S
C258 C257 1.516 . S
C258 C259 1.502 . S
C258 C260 1.561 . S
C258 C261 1.526 . S
C259 H243 0.959 . S
C259 H244 0.959 . S
C259 H245 0.961 . S
C259 C258 1.502 . S
C260 H246 0.960 . S
C260 H247 0.961 . S
C260 H248 0.959 . S
C260 C258 1.561 . S
C261 C258 1.526 . S
C261 C262 1.396 . S
C261 C266 1.390 . S
C262 C256 1.465 . S
C262 C261 1.396 . S
C262 C263 1.399 . S
C263 H249 0.929 . S
C263 C262 1.399 . S
C263 C264 1.385 . S
C264 H250 0.931 . S
C264 C263 1.385 . S
C264 C265 1.389 . S
C265 C264 1.389 . S
C265 C266 1.387 . S
C266 H251 0.930 . S
C266 C261 1.390 . S
C266 C265 1.387 . S
H267 C279 0.930 . S
H268 C281 0.930 . S
H269 C282 0.930 . S
H270 C286 0.959 . S
H271 C286 0.959 . S
H272 C286 0.961 . S
H273 C287 0.960 . S
H274 C287 0.961 . S
H275 C287 0.959 . S
H276 C290 0.929 . S
H277 C291 0.931 . S
H278 C293 0.930 . S
C279 H267 0.930 . S
C279 C280 1.399 . S
C279 C284 1.399 . S
C280 C279 1.399 . S
C280 C281 1.376 . S
C281 H268 0.930 . S
C281 C280 1.376 . S
C281 C282 1.388 . S
C282 H269 0.930 . S
C282 C281 1.388 . S
C282 C283 1.390 . S
C283 C282 1.390 . S
C283 C284 1.394 . S
C283 C289 1.465 . S
C284 C279 1.399 . S
C284 C283 1.394 . S
C284 C285 1.516 . S
C285 C284 1.516 . S
C285 C286 1.502 . S
C285 C287 1.561 . S
C285 C288 1.526 . S
C286 H270 0.959 . S
C286 H271 0.959 . S
C286 H272 0.961 . S
C286 C285 1.502 . S
C287 H273 0.960 . S
C287 H274 0.961 . S
C287 H275 0.959 . S
C287 C285 1.561 . S
C288 C285 1.526 . S
C288 C289 1.396 . S
C288 C293 1.390 . S
C289 C283 1.465 . S
C289 C288 1.396 . S
C289 C290 1.399 . S
C290 H276 0.929 . S
C290 C289 1.399 . S
C290 C291 1.385 . S
C291 H277 0.931 . S
C291 C290 1.385 . S
C291 C292 1.389 . S
C292 C291 1.389 . S
C292 C293 1.387 . S
C293 H278 0.930 . S
C293 C288 1.390 . S
C293 C292 1.387 . S
H294 C306 0.930 . S
H295 C308 0.930 . S
H296 C309 0.930 . S
H297 C313 0.959 . S
H298 C313 0.959 . S
H299 C313 0.961 . S
H300 C314 0.960 . S
H301 C314 0.961 . S
H302 C314 0.959 . S
H303 C317 0.929 1_556 S
H304 C318 0.931 . S
H305 C320 0.930 . S
C306 H294 0.930 . S
C306 C307 1.399 . S
C306 C311 1.399 . S
C307 C306 1.399 . S
C307 C308 1.376 1_554 S
C308 H295 0.930 . S
C308 C307 1.376 1_556 S
C308 C309 1.388 . S
C309 H296 0.930 . S
C309 C308 1.388 . S
C309 C310 1.390 1_556 S
C310 C309 1.390 1_554 S
C310 C311 1.394 . S
C310 C316 1.465 . S
C311 C306 1.399 . S
C311 C310 1.394 . S
C311 C312 1.516 . S
C312 C311 1.516 . S
C312 C313 1.502 . S
C312 C314 1.561 . S
C312 C315 1.526 . S
C313 H297 0.959 . S
C313 H298 0.959 . S
C313 H299 0.961 . S
C313 C312 1.502 . S
C314 H300 0.960 . S
C314 H301 0.961 . S
C314 H302 0.959 . S
C314 C312 1.561 . S
C315 C312 1.526 . S
C315 C316 1.396 . S
C315 C320 1.390 . S
C316 C310 1.465 . S
C316 C315 1.396 . S
C316 C317 1.399 . S
C317 H303 0.929 1_554 S
C317 C316 1.399 . S
C317 C318 1.385 . S
C318 H304 0.931 . S
C318 C317 1.385 . S
C318 C319 1.389 . S
C319 C318 1.389 . S
C319 C320 1.387 . S
C320 H305 0.930 . S
C320 C315 1.390 . S
C320 C319 1.387 . S
H321 C333 0.930 . S
H322 C335 0.930 . S
H323 C336 0.930 . S
H324 C340 0.959 . S
H325 C340 0.959 . S
H326 C340 0.961 . S
H327 C341 0.960 . S
H328 C341 0.961 . S
H329 C341 0.959 . S
H330 C344 0.929 . S
H331 C345 0.931 . S
H332 C347 0.930 . S
C333 H321 0.930 . S
C333 C334 1.399 . S
C333 C338 1.399 . S
C334 C333 1.399 . S
C334 C335 1.376 . S
C335 H322 0.930 . S
C335 C334 1.376 . S
C335 C336 1.388 . S
C336 H323 0.930 . S
C336 C335 1.388 . S
C336 C337 1.390 . S
C337 C336 1.390 . S
C337 C338 1.394 . S
C337 C343 1.465 . S
C338 C333 1.399 . S
C338 C337 1.394 . S
C338 C339 1.516 . S
C339 C338 1.516 . S
C339 C340 1.502 1_655 S
C339 C341 1.561 . S
C339 C342 1.526 . S
C340 H324 0.959 . S
C340 H325 0.959 . S
C340 H326 0.961 . S
C340 C339 1.502 1_455 S
C341 H327 0.960 . S
C341 H328 0.961 . S
C341 H329 0.959 . S
C341 C339 1.561 . S
C342 C339 1.526 . S
C342 C343 1.396 . S
C342 C347 1.390 . S
C343 C337 1.465 . S
C343 C342 1.396 . S
C343 C344 1.399 . S
C344 H330 0.929 . S
C344 C343 1.399 . S
C344 C345 1.385 . S
C345 H331 0.931 . S
C345 C344 1.385 . S
C345 C346 1.389 . S
C346 C345 1.389 . S
C346 C347 1.387 . S
C347 H332 0.930 . S
C347 C342 1.390 . S
C347 C346 1.387 . S
H348 C360 0.930 . S
H349 C362 0.930 . S
H350 C363 0.930 . S
H351 C367 0.959 . S
H352 C367 0.959 . S
H353 C367 0.961 . S
H354 C368 0.960 . S
H355 C368 0.961 . S
H356 C368 0.959 . S
H357 C371 0.929 . S
H358 C372 0.931 . S
H359 C374 0.930 . S
C360 H348 0.930 . S
C360 C361 1.399 . S
C360 C365 1.399 . S
C361 C360 1.399 . S
C361 C362 1.376 . S
C362 H349 0.930 . S
C362 C361 1.376 . S
C362 C363 1.388 . S
C363 H350 0.930 . S
C363 C362 1.388 . S
C363 C364 1.390 . S
C364 C363 1.390 . S
C364 C365 1.394 . S
C364 C370 1.465 . S
C365 C360 1.399 . S
C365 C364 1.394 . S
C365 C366 1.516 . S
C366 C365 1.516 . S
C366 C367 1.502 . S
C366 C368 1.561 . S
C366 C369 1.526 . S
C367 H351 0.959 . S
C367 H352 0.959 . S
C367 H353 0.961 . S
C367 C366 1.502 . S
C368 H354 0.960 . S
C368 H355 0.961 . S
C368 H356 0.959 . S
C368 C366 1.561 . S
C369 C366 1.526 . S
C369 C370 1.396 . S
C369 C374 1.390 . S
C370 C364 1.465 . S
C370 C369 1.396 . S
C370 C371 1.399 . S
C371 H357 0.929 . S
C371 C370 1.399 . S
C371 C372 1.385 . S
C372 H358 0.931 . S
C372 C371 1.385 . S
C372 C373 1.389 . S
C373 C372 1.389 . S
C373 C374 1.387 . S
C374 H359 0.930 . S
C374 C369 1.390 . S
C374 C373 1.387 . S
H375 C387 0.930 . S
H376 C389 0.930 . S
H377 C390 0.930 . S
H378 C394 0.959 . S
H379 C394 0.959 . S
H380 C394 0.961 . S
H381 C395 0.960 . S
H382 C395 0.961 . S
H383 C395 0.959 . S
H384 C398 0.929 1_556 S
H385 C399 0.931 . S
H386 C401 0.930 . S
C387 H375 0.930 . S
C387 C388 1.399 . S
C387 C392 1.399 . S
C388 C387 1.399 . S
C388 C389 1.376 1_554 S
C389 H376 0.930 . S
C389 C388 1.376 1_556 S
C389 C390 1.388 . S
C390 H377 0.930 . S
C390 C389 1.388 . S
C390 C391 1.390 1_556 S
C391 C390 1.390 1_554 S
C391 C392 1.394 . S
C391 C397 1.465 . S
C392 C387 1.399 . S
C392 C391 1.394 . S
C392 C393 1.516 . S
C393 C392 1.516 . S
C393 C394 1.502 . S
C393 C395 1.561 . S
C393 C396 1.526 . S
C394 H378 0.959 . S
C394 H379 0.959 . S
C394 H380 0.961 . S
C394 C393 1.502 . S
C395 H381 0.960 . S
C395 H382 0.961 . S
C395 H383 0.959 . S
C395 C393 1.561 . S
C396 C393 1.526 . S
C396 C397 1.396 . S
C396 C401 1.390 . S
C397 C391 1.465 . S
C397 C396 1.396 . S
C397 C398 1.399 . S
C398 H384 0.929 1_554 S
C398 C397 1.399 . S
C398 C399 1.385 . S
C399 H385 0.931 . S
C399 C398 1.385 . S
C399 C400 1.389 . S
C400 C399 1.389 . S
C400 C401 1.387 . S
C401 H386 0.930 . S
C401 C396 1.390 . S
C401 C400 1.387 . S
H402 C414 0.930 . S
H403 C416 0.930 . S
H404 C417 0.930 . S
H405 C421 0.959 . S
H406 C421 0.959 . S
H407 C421 0.961 . S
H408 C422 0.960 . S
H409 C422 0.961 . S
H410 C422 0.959 . S
H411 C425 0.929 . S
H412 C426 0.931 . S
H413 C428 0.930 . S
C414 H402 0.930 . S
C414 C415 1.399 . S
C414 C419 1.399 . S
C415 C414 1.399 . S
C415 C416 1.376 . S
C416 H403 0.930 . S
C416 C415 1.376 . S
C416 C417 1.388 . S
C417 H404 0.930 . S
C417 C416 1.388 . S
C417 C418 1.390 . S
C418 C417 1.390 . S
C418 C419 1.394 . S
C418 C424 1.465 . S
C419 C414 1.399 . S
C419 C418 1.394 . S
C419 C420 1.516 . S
C420 C419 1.516 . S
C420 C421 1.502 . S
C420 C422 1.561 . S
C420 C423 1.526 . S
C421 H405 0.959 . S
C421 H406 0.959 . S
C421 H407 0.961 . S
C421 C420 1.502 . S
C422 H408 0.960 . S
C422 H409 0.961 . S
C422 H410 0.959 . S
C422 C420 1.561 . S
C423 C420 1.526 . S
C423 C424 1.396 . S
C423 C428 1.390 . S
C424 C418 1.465 . S
C424 C423 1.396 . S
C424 C425 1.399 . S
C425 H411 0.929 . S
C425 C424 1.399 . S
C425 C426 1.385 . S
C426 H412 0.931 . S
C426 C425 1.385 . S
C426 C427 1.389 . S
C427 C426 1.389 . S
C427 C428 1.387 . S
C428 H413 0.930 . S
C428 C423 1.390 . S
C428 C427 1.387 . S
H429 C441 0.930 . S
H430 C443 0.930 . S
H431 C444 0.930 . S
H432 C448 0.959 . S
H433 C448 0.959 . S
H434 C448 0.961 . S
H435 C449 0.960 . S
H436 C449 0.961 . S
H437 C449 0.959 . S
H438 C452 0.929 . S
H439 C453 0.931 . S
H440 C455 0.930 . S
C441 H429 0.930 . S
C441 C442 1.399 . S
C441 C446 1.399 . S
C442 C441 1.399 . S
C442 C443 1.376 . S
C443 H430 0.930 . S
C443 C442 1.376 . S
C443 C444 1.388 . S
C444 H431 0.930 . S
C444 C443 1.388 . S
C444 C445 1.390 . S
C445 C444 1.390 . S
C445 C446 1.394 . S
C445 C451 1.465 . S
C446 C441 1.399 . S
C446 C445 1.394 . S
C446 C447 1.516 . S
C447 C446 1.516 . S
C447 C448 1.502 . S
C447 C449 1.561 . S
C447 C450 1.526 . S
C448 H432 0.959 . S
C448 H433 0.959 . S
C448 H434 0.961 . S
C448 C447 1.502 . S
C449 H435 0.960 . S
C449 H436 0.961 . S
C449 H437 0.959 . S
C449 C447 1.561 . S
C450 C447 1.526 . S
C450 C451 1.396 . S
C450 C455 1.390 . S
C451 C445 1.465 . S
C451 C450 1.396 . S
C451 C452 1.399 . S
C452 H438 0.929 . S
C452 C451 1.399 . S
C452 C453 1.385 . S
C453 H439 0.931 . S
C453 C452 1.385 . S
C453 C454 1.389 . S
C454 C453 1.389 . S
C454 C455 1.387 . S
C455 H440 0.930 . S
C455 C450 1.390 . S
C455 C454 1.387 . S
H456 C468 0.930 . S
H457 C470 0.930 . S
H458 C471 0.930 . S
H459 C475 0.959 . S
H460 C475 0.959 . S
H461 C475 0.961 . S
H462 C476 0.960 . S
H463 C476 0.961 . S
H464 C476 0.959 . S
H465 C479 0.929 . S
H466 C480 0.931 . S
H467 C482 0.930 . S
C468 H456 0.930 . S
C468 C469 1.399 1_554 S
C468 C473 1.399 1_554 S
C469 C468 1.399 1_556 S
C469 C470 1.376 . S
C470 H457 0.930 . S
C470 C469 1.376 . S
C470 C471 1.388 . S
C471 H458 0.930 . S
C471 C470 1.388 . S
C471 C472 1.390 . S
C472 C471 1.390 . S
C472 C473 1.394 . S
C472 C478 1.465 . S
C473 C468 1.399 1_556 S
C473 C472 1.394 . S
C473 C474 1.516 1_556 S
C474 C473 1.516 1_554 S
C474 C475 1.502 . S
C474 C476 1.561 . S
C474 C477 1.526 1_554 S
C475 H459 0.959 . S
C475 H460 0.959 . S
C475 H461 0.961 . S
C475 C474 1.502 . S
C476 H462 0.960 . S
C476 H463 0.961 . S
C476 H464 0.959 . S
C476 C474 1.561 . S
C477 C474 1.526 1_556 S
C477 C478 1.396 . S
C477 C482 1.390 1_556 S
C478 C472 1.465 . S
C478 C477 1.396 . S
C478 C479 1.399 . S
C479 H465 0.929 . S
C479 C478 1.399 . S
C479 C480 1.385 . S
C480 H466 0.931 . S
C480 C479 1.385 . S
C480 C481 1.389 . S
C481 C480 1.389 . S
C481 C482 1.387 1_556 S
C482 H467 0.930 . S
C482 C477 1.390 1_554 S
C482 C481 1.387 1_554 S
C253 C2 1.460 . S
C265 C55 1.493 . S
C280 C42 1.477 . S
C292 C95 1.496 . S
C307 C82 1.505 . S
C319 C135 1.503 . S
C334 C175 1.493 1_545 S
C346 C122 1.470 . S
C361 C162 1.483 . S
C373 C215 1.494 . S
C388 C202 1.505 1_545 S
C400 C15 1.502 . S
C415 C141 1.497 . S
C427 C21 1.487 . S
C442 C61 1.471 . S
C454 C181 1.464 . S
C469 C101 1.496 . S
C481 C221 1.502 . S
