# Generated by pormake.
# Topology nbo-a, (3)-cn, num edge types: 1
# Building blocks:
#     Node 0, Type 0, BuildingBlock: OLANEW_clean_sbu_2, # of connection points: 3
#     Node 1, Type 0, BuildingBlock: OLANEW_clean_sbu_2, # of connection points: 3
#     Node 2, Type 0, BuildingBlock: OLANEW_clean_sbu_2, # of connection points: 3
#     Node 3, Type 0, BuildingBlock: OLANEW_clean_sbu_2, # of connection points: 3
#     Node 4, Type 0, BuildingBlock: OLANEW_clean_sbu_2, # of connection points: 3
#     Node 5, Type 0, BuildingBlock: OLANEW_clean_sbu_2, # of connection points: 3
#     Node 6, Type 0, BuildingBlock: OLANEW_clean_sbu_2, # of connection points: 3
#     Node 7, Type 0, BuildingBlock: OLANEW_clean_sbu_2, # of connection points: 3
#     Node 8, Type 0, BuildingBlock: OLANEW_clean_sbu_2, # of connection points: 3
#     Node 9, Type 0, BuildingBlock: OLANEW_clean_sbu_2, # of connection points: 3
#     Node 10, Type 0, BuildingBlock: OLANEW_clean_sbu_2, # of connection points: 3
#     Node 11, Type 0, BuildingBlock: OLANEW_clean_sbu_2, # of connection points: 3
#     Node 12, Type 0, BuildingBlock: OLANEW_clean_sbu_2, # of connection points: 3
#     Node 13, Type 0, BuildingBlock: OLANEW_clean_sbu_2, # of connection points: 3
#     Node 14, Type 0, BuildingBlock: OLANEW_clean_sbu_2, # of connection points: 3
#     Node 15, Type 0, BuildingBlock: OLANEW_clean_sbu_2, # of connection points: 3
#     Node 16, Type 0, BuildingBlock: OLANEW_clean_sbu_2, # of connection points: 3
#     Node 17, Type 0, BuildingBlock: OLANEW_clean_sbu_2, # of connection points: 3
#     Node 18, Type 0, BuildingBlock: OLANEW_clean_sbu_2, # of connection points: 3
#     Node 19, Type 0, BuildingBlock: OLANEW_clean_sbu_2, # of connection points: 3
#     Node 20, Type 0, BuildingBlock: OLANEW_clean_sbu_2, # of connection points: 3
#     Node 21, Type 0, BuildingBlock: OLANEW_clean_sbu_2, # of connection points: 3
#     Node 22, Type 0, BuildingBlock: OLANEW_clean_sbu_2, # of connection points: 3
#     Node 23, Type 0, BuildingBlock: OLANEW_clean_sbu_2, # of connection points: 3
#     Edge 24, Type (0, 0), BuildingBlock: AJUNOK_clean_linker_0, # of connection points: 2
#     Edge 25, Type (0, 0), BuildingBlock: AJUNOK_clean_linker_0, # of connection points: 2
#     Edge 26, Type (0, 0), BuildingBlock: AJUNOK_clean_linker_0, # of connection points: 2
#     Edge 27, Type (0, 0), BuildingBlock: AJUNOK_clean_linker_0, # of connection points: 2
#     Edge 28, Type (0, 0), BuildingBlock: AJUNOK_clean_linker_0, # of connection points: 2
#     Edge 29, Type (0, 0), BuildingBlock: AJUNOK_clean_linker_0, # of connection points: 2
#     Edge 30, Type (0, 0), BuildingBlock: AJUNOK_clean_linker_0, # of connection points: 2
#     Edge 31, Type (0, 0), BuildingBlock: AJUNOK_clean_linker_0, # of connection points: 2
#     Edge 32, Type (0, 0), BuildingBlock: AJUNOK_clean_linker_0, # of connection points: 2
#     Edge 33, Type (0, 0), BuildingBlock: AJUNOK_clean_linker_0, # of connection points: 2
#     Edge 34, Type (0, 0), BuildingBlock: AJUNOK_clean_linker_0, # of connection points: 2
#     Edge 35, Type (0, 0), BuildingBlock: AJUNOK_clean_linker_0, # of connection points: 2
#     Edge 36, Type (0, 0), BuildingBlock: AJUNOK_clean_linker_0, # of connection points: 2
#     Edge 37, Type (0, 0), BuildingBlock: AJUNOK_clean_linker_0, # of connection points: 2
#     Edge 38, Type (0, 0), BuildingBlock: AJUNOK_clean_linker_0, # of connection points: 2
#     Edge 39, Type (0, 0), BuildingBlock: AJUNOK_clean_linker_0, # of connection points: 2
#     Edge 40, Type (0, 0), BuildingBlock: AJUNOK_clean_linker_0, # of connection points: 2
#     Edge 41, Type (0, 0), BuildingBlock: AJUNOK_clean_linker_0, # of connection points: 2
#     Edge 42, Type (0, 0), BuildingBlock: AJUNOK_clean_linker_0, # of connection points: 2
#     Edge 43, Type (0, 0), BuildingBlock: AJUNOK_clean_linker_0, # of connection points: 2
#     Edge 44, Type (0, 0), BuildingBlock: AJUNOK_clean_linker_0, # of connection points: 2
#     Edge 45, Type (0, 0), BuildingBlock: AJUNOK_clean_linker_0, # of connection points: 2
#     Edge 46, Type (0, 0), BuildingBlock: AJUNOK_clean_linker_0, # of connection points: 2
#     Edge 47, Type (0, 0), BuildingBlock: AJUNOK_clean_linker_0, # of connection points: 2
#     Edge 48, Type (0, 0), BuildingBlock: AJUNOK_clean_linker_0, # of connection points: 2
#     Edge 49, Type (0, 0), BuildingBlock: AJUNOK_clean_linker_0, # of connection points: 2
#     Edge 50, Type (0, 0), BuildingBlock: AJUNOK_clean_linker_0, # of connection points: 2
#     Edge 51, Type (0, 0), BuildingBlock: AJUNOK_clean_linker_0, # of connection points: 2
#     Edge 52, Type (0, 0), BuildingBlock: AJUNOK_clean_linker_0, # of connection points: 2
#     Edge 53, Type (0, 0), BuildingBlock: AJUNOK_clean_linker_0, # of connection points: 2
#     Edge 54, Type (0, 0), BuildingBlock: AJUNOK_clean_linker_0, # of connection points: 2
#     Edge 55, Type (0, 0), BuildingBlock: AJUNOK_clean_linker_0, # of connection points: 2
#     Edge 56, Type (0, 0), BuildingBlock: AJUNOK_clean_linker_0, # of connection points: 2
#     Edge 57, Type (0, 0), BuildingBlock: AJUNOK_clean_linker_0, # of connection points: 2
#     Edge 58, Type (0, 0), BuildingBlock: AJUNOK_clean_linker_0, # of connection points: 2
#     Edge 59, Type (0, 0), BuildingBlock: AJUNOK_clean_linker_0, # of connection points: 2
# Relax obj value: 0.008
# Max RMSD: 0.055
# Mean RMSD: 0.041
data_MOF--net-nbo-a--node1-OLANEW_clean_sbu_2--edge1-AJUNOK_clean_linker_0
_symmetry_space_group_name_H-M    P1
_symmetry_Int_Tables_number       1
_symmetry_cell_setting            triclinic
loop_
_symmetry_equiv_pos_as_xyz
'x, y, z'
_cell_length_a     59.280433
_cell_length_b     59.172953
_cell_length_c     58.54344
_cell_angle_alpha  90.365651
_cell_angle_beta   94.111463
_cell_angle_gamma 94.167504
loop_
_atom_site_label
_atom_site_type_symbol
_atom_site_fract_x
_atom_site_fract_y
_atom_site_fract_z
_atom_type_partial_charge
O0 O 0.09489 0.17078 0.53779 0.0
Cd1 Cd 0.05923 0.18917 0.53838 0.0
O2 O 0.08346 0.15001 0.50732 0.0
Cd3 Cd 0.04841 0.15955 0.50475 0.0
O4 O 0.01353 0.1445 0.50048 0.0
C5 C 3e-05 0.14419 0.51642 0.0
O6 O 0.00654 0.15507 0.53567 0.0
C7 C 0.09882 0.15615 0.52286 0.0
C8 C 0.06421 0.23643 0.53603 0.0
O9 O 0.06757 0.22623 0.55508 0.0
O10 O 0.05888 0.22428 0.51798 0.0
O11 O 0.91314 0.06989 0.52903 0.0
Cd12 Cd 0.88777 0.03529 0.52941 0.0
O13 O 0.93362 0.05384 0.50453 0.0
Cd14 Cd 0.9209 0.0191 0.51121 0.0
O15 O 0.93485 -0.01089 0.52674 0.0
C16 C 0.94582 0.97643 0.51464 0.0
O17 O 0.94635 0.98051 0.49265 0.0
C18 C 0.92913 0.07133 0.51561 0.0
C19 C 0.8425 0.043 0.53481 0.0
O20 O 0.85552 0.03716 0.55184 0.0
O21 O 0.85088 0.04537 0.51532 0.0
O22 O 0.11368 0.9125 0.5399 0.0
Cd23 Cd 0.08027 0.88583 0.53307 0.0
O24 O 0.09999 0.93085 0.56793 0.0
Cd25 Cd 0.06606 0.91385 0.56187 0.0
O26 O 0.03172 0.9181 0.54702 0.0
C27 C 0.0178 0.92755 0.55884 0.0
O28 O 0.02386 0.93256 0.58042 0.0
C29 C 0.11612 0.92795 0.55527 0.0
C30 C 0.09 0.84042 0.53624 0.0
O31 O 0.09298 0.85164 0.51792 0.0
O32 O 0.08253 0.85067 0.55319 0.0
O33 O 0.18861 0.0169 0.57026 0.0
Cd34 Cd 0.20945 0.05374 0.56612 0.0
O35 O 0.18182 0.01388 0.53288 0.0
Cd36 Cd 0.18965 0.04996 0.5268 0.0
O37 O 0.17416 0.08185 0.51936 0.0
C38 C 0.17199 0.09635 0.53503 0.0
O39 O 0.18101 0.09286 0.55575 0.0
C40 C 0.18103 0.00522 0.55268 0.0
C41 C 0.25462 0.04945 0.55709 0.0
O42 O 0.24923 0.05351 0.57745 0.0
O43 O 0.23871 0.04747 0.54104 0.0
O44 O 0.61222 0.03866 0.18515 0.0
Cd45 Cd 0.60549 0.07679 0.19832 0.0
O46 O 0.64391 0.04981 0.16989 0.0
Cd47 Cd 0.64057 0.0861 0.17416 0.0
O48 O 0.64064 0.11735 0.15442 0.0
C49 C 0.62227 0.12383 0.14495 0.0
O50 O 0.60307 0.1126 0.14905 0.0
C51 C 0.62947 0.03397 0.17481 0.0
C52 C 0.59888 0.0791 0.24504 0.0
O53 O 0.58259 0.07264 0.23035 0.0
O54 O 0.6184 0.08441 0.23768 0.0
O55 O 0.09501 0.56482 0.17354 0.0
Cd56 Cd 0.06424 0.54952 0.19602 0.0
O57 O 0.07613 0.59296 0.15975 0.0
Cd58 Cd 0.0437 0.58048 0.17222 0.0
O59 O 0.00966 0.56747 0.15926 0.0
C60 C -0.00066 0.57987 0.14492 0.0
O61 O 0.00889 0.59998 0.14059 0.0
C62 C 0.09424 0.58262 0.16152 0.0
C63 C 0.07654 0.54781 0.24296 0.0
O64 O 0.08099 0.53199 0.2293 0.0
O65 O 0.06637 0.56454 0.23443 0.0
O66 O 0.59874 0.06274 0.91395 0.0
Cd67 Cd 0.5916 0.02314 0.9016 0.0
O68 O 0.63299 0.05754 0.92892 0.0
Cd69 Cd 0.62903 0.02064 0.92544 0.0
O70 O 0.62593 -0.01118 0.94416 0.0
C71 C 0.6081 -0.01526 0.95472 0.0
O72 O 0.59196 -0.00122 0.95219 0.0
C73 C 0.61738 0.07073 0.92398 0.0
C74 C 0.59525 0.01643 0.85474 0.0
O75 O 0.57639 0.02089 0.86253 0.0
O76 O 0.61247 0.0154 0.86916 0.0
O77 O 0.09613 0.55399 0.91383 0.0
Cd78 Cd 0.06445 0.54344 0.88569 0.0
O79 O 0.09289 0.52071 0.93023 0.0
Cd80 Cd 0.05849 0.51222 0.91507 0.0
O81 O 0.02318 0.51015 0.92409 0.0
C82 C 0.01706 0.49459 0.9377 0.0
O83 O 0.03152 0.47953 0.94378 0.0
C84 C 0.10361 0.53994 0.92833 0.0
C85 C 0.079 0.54162 0.84136 0.0
O86 O 0.07103 0.55954 0.84899 0.0
O87 O 0.07991 0.52453 0.85464 0.0
O88 O 0.18307 0.54716 0.01189 0.0
Cd89 Cd 0.2056 0.55039 0.04864 0.0
O90 O 0.1683 0.57997 0.01495 0.0
Cd91 Cd 0.18032 0.58479 0.05098 0.0
O92 O 0.16921 0.58459 0.08585 0.0
C93 C 0.15741 0.60049 0.0917 0.0
O94 O 0.15426 0.61708 0.07729 0.0
C95 C 0.17072 0.56215 0.0034 0.0
C96 C 0.2523 0.55256 0.04397 0.0
O97 O 0.24043 0.53355 0.04318 0.0
O98 O 0.24213 0.57063 0.04689 0.0
O99 O 0.60923 0.18703 0.05318 0.0
Cd100 Cd 0.61181 0.206 0.0163 0.0
O101 O 0.64417 0.1771 0.05256 0.0
Cd102 Cd 0.64584 0.18263 0.01583 0.0
O103 O 0.64492 0.16224 0.98445 0.0
C104 C 0.62603 0.15616 0.97371 0.0
O105 O 0.60756 0.16431 0.98049 0.0
C106 C 0.62628 0.17837 0.06313 0.0
C107 C 0.59987 0.2507 0.01854 0.0
O108 O 0.58556 0.23486 0.01047 0.0
O109 O 0.61975 0.24542 0.02557 0.0
O110 O 0.91988 0.521 0.08047 0.0
Cd111 Cd 0.89598 0.50122 0.04967 0.0
O112 O 0.92986 0.54964 0.05875 0.0
Cd113 Cd 0.91731 0.53308 0.02637 0.0
O114 O 0.93206 0.52259 -0.00486 0.0
C115 C 0.94345 0.50519 -0.00383 0.0
O116 O 0.94368 0.49323 0.01502 0.0
C117 C 0.93024 0.54035 0.0783 0.0
C118 C 0.85077 0.51195 0.04908 0.0
O119 O 0.85822 0.49631 0.06199 0.0
O120 O 0.86476 0.52263 0.03654 0.0
O121 O 0.62932 0.91456 0.03796 0.0
Cd122 Cd 0.63681 0.89476 0.07398 0.0
O123 O 0.59873 0.92897 0.04908 0.0
Cd124 Cd 0.60493 0.92071 0.08521 0.0
O125 O 0.61 0.93959 0.11765 0.0
C126 C 0.62877 0.95119 0.12179 0.0
O127 O 0.64479 0.94925 0.10767 0.0
C128 C 0.61214 0.92588 0.03354 0.0
C129 C 0.61695 0.85041 0.07242 0.0
O130 O 0.63638 0.85521 0.06467 0.0
O131 O 0.60683 0.86662 0.08085 0.0
O132 O 0.59095 0.6861 0.07291 0.0
Cd133 Cd 0.56106 0.71174 0.06384 0.0
O134 O 0.58229 0.66643 0.04112 0.0
Cd135 Cd 0.5491 0.67986 0.03402 0.0
O136 O 0.513 0.66852 0.03145 0.0
C137 C 0.50487 0.65781 0.01347 0.0
O138 O 0.51791 0.65612 -0.00361 0.0
C139 C 0.59529 0.67055 0.05914 0.0
C140 C 0.578 0.75707 0.06711 0.0
O141 O 0.56874 0.74731 0.08393 0.0
O142 O 0.57923 0.7454 0.04879 0.0
O143 O 0.41959 0.58741 0.03763 0.0
Cd144 Cd 0.39763 0.55289 0.04829 0.0
O145 O 0.43272 0.57161 0.00771 0.0
Cd146 Cd 0.41932 0.53716 0.01466 0.0
O147 O 0.43177 0.50374 0.02116 0.0
C148 C 0.4417 0.49484 0.00518 0.0
O149 O 0.44198 0.50522 0.98542 0.0
C150 C 0.43147 0.58895 0.02039 0.0
C151 C 0.35054 0.55477 0.04387 0.0
O152 O 0.36235 0.56322 0.06149 0.0
O153 O 0.36104 0.54592 0.02805 0.0
O154 O 0.59687 0.41548 0.03875 0.0
Cd155 Cd 0.56389 0.38802 0.03375 0.0
O156 O 0.58164 0.43222 0.06686 0.0
Cd157 Cd 0.54746 0.41623 0.05981 0.0
O158 O 0.51343 0.42596 0.04922 0.0
C159 C 0.50941 0.43123 0.02839 0.0
O160 O 0.52507 0.42847 0.01405 0.0
C161 C 0.5984 0.43027 0.05475 0.0
C162 C 0.57564 0.34365 0.02764 0.0
O163 O 0.56966 0.35567 0.01042 0.0
O164 O 0.57628 0.35264 0.04766 0.0
O165 O 0.68502 0.5068 0.05059 0.0
Cd166 Cd 0.71057 0.5413 0.05204 0.0
O167 O 0.66288 0.52164 0.07432 0.0
Cd168 Cd 0.67686 0.55673 0.07244 0.0
O169 O 0.6654 0.59042 0.06501 0.0
C170 C 0.65948 0.60287 0.08099 0.0
O171 O 0.66235 0.59601 0.10223 0.0
C172 C 0.66804 0.50475 0.06273 0.0
C173 C 0.75604 0.53219 0.05018 0.0
O174 O 0.74659 0.5318 0.06921 0.0
O175 O 0.74394 0.53673 0.032 0.0
O176 O 0.11564 0.51132 0.68157 0.0
Cd177 Cd 0.12688 0.54478 0.7057 0.0
O178 O 0.09231 0.52956 0.65877 0.0
Cd179 Cd 0.10136 0.56362 0.67279 0.0
O180 O 0.10754 0.59807 0.66009 0.0
C181 C 0.12641 0.60343 0.65179 0.0
O182 O 0.14216 0.58889 0.65344 0.0
C183 C 0.10112 0.51128 0.6645 0.0
C184 C 0.11064 0.54177 0.74933 0.0
O185 O 0.0998 0.55177 0.73307 0.0
O186 O 0.12906 0.53313 0.74491 0.0
O187 O 0.61744 -0.00431 0.68564 0.0
Cd188 Cd 0.60526 0.97074 0.71635 0.0
O189 O 0.58187 0.00197 0.67702 0.0
Cd190 Cd 0.55361 0.01678 0.6577 0.0
O191 O 0.52602 0.02864 0.63511 0.0
C192 C 0.50625 0.01862 0.63411 0.0
O193 O 0.50242 0.00106 0.64728 0.0
C194 C 0.6026 0.0046 0.67256 0.0
C195 C 0.60261 -0.00944 0.75942 0.0
O196 O 0.62106 0.98282 0.75365 0.0
O197 O 0.58564 -0.01046 0.7445 0.0
O198 O 0.11298 0.57134 0.40946 0.0
Cd199 Cd 0.10056 0.5358 0.38918 0.0
O200 O 0.14404 0.55817 0.42531 0.0
Cd201 Cd 0.13557 0.52275 0.41527 0.0
O202 O 0.13157 0.4897 0.43164 0.0
C203 C 0.1127 0.478 0.43139 0.0
O204 O 0.09517 0.48504 0.41916 0.0
C205 C 0.1314 0.57448 0.42195 0.0
C206 C 0.09463 0.54079 0.3417 0.0
O207 O 0.07891 0.54497 0.35471 0.0
O208 O 0.11328 0.5345 0.35116 0.0
O209 O 0.60236 0.09562 0.41555 0.0
Cd210 Cd 0.57223 0.10165 0.38574 0.0
O211 O 0.59757 0.05844 0.41516 0.0
Cd212 Cd 0.56477 0.05927 0.39587 0.0
O213 O 0.52936 0.05952 0.40382 0.0
C214 C 0.52024 0.04126 0.41144 0.0
O215 O 0.53178 0.02311 0.4118 0.0
C216 C 0.60856 0.07657 0.42256 0.0
C217 C 0.58259 0.09203 0.34098 0.0
O218 O 0.58916 0.11112 0.35063 0.0
O219 O 0.57156 0.07732 0.35265 0.0
O220 O 0.67936 0.05636 0.51134 0.0
Cd221 Cd 0.70033 0.05518 0.54885 0.0
O222 O 0.65717 0.08129 0.52381 0.0
Cd223 Cd 0.66476 0.0744 0.56013 0.0
O224 O 0.65436 0.05995 0.59248 0.0
C225 C 0.6344 0.05037 0.59176 0.0
O226 O 0.62191 0.05024 0.57229 0.0
C227 C 0.66408 0.07013 0.50736 0.0
C228 C 0.74667 0.05217 0.54453 0.0
O229 O 0.73377 0.03454 0.54856 0.0
O230 O 0.73776 0.07122 0.54272 0.0
O231 O 0.11027 0.67857 0.57283 0.0
Cd232 Cd 0.10258 0.69653 0.5358 0.0
O233 O 0.14238 0.6658 0.56369 0.0
Cd234 Cd 0.13829 0.6752 0.52766 0.0
O235 O 0.13368 0.6599 0.49337 0.0
C236 C 0.14985 0.64911 0.48674 0.0
O237 O 0.16885 0.64967 0.49983 0.0
C238 C 0.12781 0.66807 0.5783 0.0
C239 C 0.10093 0.74354 0.53815 0.0
O240 O 0.08373 0.73023 0.54235 0.0
O241 O 0.11909 0.73464 0.53327 0.0
O242 O 0.42042 0.03609 0.55912 0.0
Cd243 Cd 0.39466 0.04734 0.52728 0.0
O244 O 0.44753 0.06024 0.54853 0.0
Cd245 Cd 0.4319 0.06709 0.51464 0.0
O246 O 0.44392 0.06524 0.48033 0.0
C247 C 0.44954 0.04593 0.47413 0.0
O248 O 0.44552 0.0286 0.48754 0.0
C249 C 0.44021 0.04583 0.56277 0.0
C250 C 0.34927 0.04621 0.53764 0.0
O251 O 0.35688 0.02956 0.52721 0.0
O252 O 0.36317 0.06321 0.54346 0.0
O253 O 0.08043 0.40209 0.50674 0.0
Cd254 Cd 0.06956 0.38216 0.54124 0.0
O255 O 0.11035 0.42064 0.52417 0.0
Cd256 Cd 0.10372 0.41054 0.55907 0.0
O257 O 0.1028 0.42566 0.59319 0.0
C258 C 0.08786 0.43969 0.59556 0.0
O259 O 0.07293 0.44244 0.57827 0.0
C260 C 0.09783 0.41588 0.50597 0.0
C261 C 0.06912 0.33503 0.53703 0.0
O262 O 0.05226 0.34573 0.52918 0.0
O263 O 0.0863 0.3466 0.54681 0.0
C264 C 0.14192 0.11413 0.51053 0.0
C265 C 0.15619 0.11454 0.53084 0.0
C266 C 0.12426 0.12857 0.50761 0.0
C267 C 0.12012 0.14419 0.5248 0.0
H268 H 0.14365 0.10181 0.49712 0.0
H269 H 0.1132 0.12678 0.49205 0.0
S270 S 0.15485 0.15459 0.57975 0.0
N271 N 0.16665 0.13374 0.56735 0.0
N272 N 0.1335 0.16095 0.56185 0.0
C273 C 0.13531 0.14598 0.54449 0.0
C274 C 0.15329 0.13115 0.54752 0.0
C275 C 0.95909 0.09461 0.49661 0.0
C276 C 0.94419 0.09242 0.51426 0.0
C277 C 0.97617 0.11223 0.49675 0.0
C278 C 0.97928 0.12838 0.51468 0.0
H279 H 0.95814 0.08209 0.48292 0.0
H280 H -0.0123 0.11248 0.4832 0.0
S281 S 0.94283 0.1322 0.56338 0.0
N282 N 0.93211 0.10939 0.54891 0.0
N283 N 0.96435 0.14249 0.54927 0.0
C284 C 0.96354 0.12733 0.53164 0.0
C285 C 0.94597 0.1094 0.5314 0.0
C286 C 0.96616 0.96161 0.54977 0.0
C287 C 0.96126 0.96046 0.52588 0.0
C288 C 0.98363 0.94984 0.56042 0.0
C289 C -0.00308 0.93636 0.54767 0.0
H290 H 0.95723 0.9726 0.56028 0.0
H291 H -0.01265 0.95221 0.5787 0.0
S292 S -0.01169 0.9244 0.48514 0.0
N293 N 0.96917 0.94238 0.49017 0.0
N294 N 0.00194 0.92021 0.51016 0.0
C295 C -0.00898 0.93362 0.52401 0.0
C296 C 0.97324 0.94568 0.51314 0.0
C297 C 0.1399 0.96013 0.57491 0.0
C298 C 0.13623 0.94461 0.55643 0.0
C299 C 0.15581 0.97883 0.57437 0.0
C300 C 0.16842 0.98292 0.55517 0.0
H301 H 0.12966 0.95844 0.58949 0.0
H302 H 0.15711 -0.00906 0.58844 0.0
S303 S 0.168 0.94568 0.50393 0.0
N304 N 0.1488 0.93317 0.51963 0.0
N305 N 0.17831 0.96855 0.51853 0.0
C306 C 0.16619 0.9667 0.53736 0.0
C307 C 0.15023 0.94747 0.53803 0.0
C308 C 0.64476 0.1605 0.09754 0.0
C309 C 0.62495 0.16779 0.08602 0.0
C310 C 0.64383 0.14745 0.11737 0.0
C311 C 0.62302 0.14092 0.12646 0.0
H312 H 0.66114 0.16423 0.09078 0.0
H313 H 0.65952 0.14157 0.12495 0.0
S314 S 0.56648 0.15808 0.10466 0.0
N315 N 0.58408 0.16943 0.08659 0.0
N316 N 0.58233 0.14478 0.12379 0.0
C317 C 0.60322 0.14928 0.11599 0.0
C318 C 0.60418 0.16275 0.09582 0.0
C319 C 0.9713 0.5829 0.11133 0.0
C320 C 0.97904 0.57065 0.13051 0.0
C321 C 0.95464 0.57337 0.09524 0.0
C322 C 0.94482 0.55121 0.09766 0.0
H323 H 0.97885 0.59968 0.10806 0.0
H324 H 0.95005 0.58325 0.08032 0.0
S325 S 0.95667 0.51314 0.14662 0.0
N326 N 0.97382 0.53603 0.15233 0.0
N327 N 0.94239 0.51813 0.12214 0.0
C328 C 0.9512 0.53934 0.11761 0.0
C329 C 0.96833 0.54903 0.13399 0.0
C330 C 0.61167 -0.00439 0.16296 0.0
C331 C 0.63116 0.01074 0.16557 0.0
C332 C 0.61147 0.97555 0.15003 0.0
C333 C 0.63078 0.96978 0.13922 0.0
H334 H 0.59598 -0.00011 0.16977 0.0
H335 H 0.59566 0.96518 0.14748 0.0
S336 S 0.68748 0.00128 0.14477 0.0
N337 N 0.67123 0.01686 0.15918 0.0
N338 N 0.67093 0.97917 0.135 0.0
C339 C 0.65095 0.98373 0.14345 0.0
C340 C 0.65113 0.00419 0.15657 0.0
C341 C 0.12889 0.57382 0.14205 0.0
C342 C 0.11312 0.5895 0.14705 0.0
C343 C 0.1441 0.57808 0.12504 0.0
C344 C 0.14423 0.59824 0.11237 0.0
H345 H 0.12869 0.55753 0.15041 0.0
H346 H 0.15505 0.56494 0.12108 0.0
S347 S 0.1093 0.64665 0.12188 0.0
N348 N 0.1007 0.6273 0.14015 0.0
N349 N 0.12932 0.6354 0.10832 0.0
C350 C 0.12984 0.61486 0.11853 0.0
C351 C 0.11429 0.61047 0.13581 0.0
C352 C 0.62659 0.95505 0.97834 0.0
C353 C 0.60723 0.96682 0.97243 0.0
C354 C 0.62754 0.94077 -0.00264 0.0
C355 C 0.6092 0.9377 0.01131 0.0
H356 H 0.64158 0.95763 0.96885 0.0
H357 H 0.64324 0.93299 0.00177 0.0
S358 S 0.55315 0.96153 0.00101 0.0
N359 N 0.56821 0.97212 0.98043 0.0
N360 N 0.57005 0.9454 0.01617 0.0
C361 C 0.58916 0.94807 0.00463 0.0
C362 C 0.58816 0.96257 0.98521 0.0
C363 C 0.1348 0.52944 0.9564 0.0
C364 C 0.12345 0.54642 0.9446 0.0
C365 C 0.15123 0.53483 0.9744 0.0
C366 C 0.15671 0.55742 0.98161 0.0
H367 H 0.13044 0.51172 0.95222 0.0
H368 H 0.15874 0.52104 0.98351 0.0
S369 S 0.13384 0.60844 0.95473 0.0
N370 N 0.12045 0.58697 0.94002 0.0
N371 N 0.15106 0.59707 0.97411 0.0
C372 C 0.14646 0.57467 0.96912 0.0
C373 C 0.12993 0.56919 0.95054 0.0
C374 C 0.64311 0.12363 0.9556 0.0
C375 C 0.62445 0.13685 0.95715 0.0
C376 C 0.64098 0.10294 0.94362 0.0
C377 C 0.62015 0.0946 0.93252 0.0
H378 H 0.65925 0.12864 0.96474 0.0
H379 H 0.65561 0.09295 0.94398 0.0
S380 S 0.56715 0.12467 0.92788 0.0
N381 N 0.58522 0.14156 0.944 0.0
N382 N 0.58121 0.10271 0.92138 0.0
C383 C 0.60185 0.10855 0.9323 0.0
C384 C 0.604 0.12963 0.94464 0.0
C385 C -0.00855 0.48027 0.96739 0.0
C386 C -0.00424 0.49549 0.94957 0.0
C387 C 0.97367 0.48281 0.98149 0.0
C388 C 0.95936 0.50068 0.97841 0.0
H389 H 0.00249 0.46677 0.97121 0.0
H390 H 0.97181 0.47116 -0.00446 0.0
S391 S 0.96106 0.54306 0.93189 0.0
N392 N 0.98251 0.52753 0.9279 0.0
N393 N 0.94906 0.53231 0.95438 0.0
C394 C 0.9624 0.51505 0.9596 0.0
C395 C 0.98059 0.51247 0.9452 0.0
C396 C 0.62087 0.64131 0.04767 0.0
C397 C 0.61423 0.65588 0.06466 0.0
C398 C 0.63649 0.6251 0.05289 0.0
C399 C 0.64598 0.62257 0.07538 0.0
H400 H 0.61345 0.64192 0.03025 0.0
H401 H 0.64032 0.6138 0.03929 0.0
S402 S 0.63628 0.65818 0.12571 0.0
N403 N 0.61997 0.66805 0.10459 0.0
N404 N 0.64918 0.63745 0.11441 0.0
C405 C 0.64047 0.63784 0.09231 0.0
C406 C 0.62467 0.65453 0.08695 0.0
C407 C 0.45959 0.61076 -0.00243 0.0
C408 C 0.44653 0.60967 0.01676 0.0
C409 C 0.47741 0.62741 -0.00408 0.0
C410 C 0.48307 0.64366 0.01345 0.0
H411 H 0.45682 0.59795 0.98416 0.0
H412 H 0.4876 0.62667 0.98133 0.0
S413 S 0.45156 0.65095 0.06528 0.0
N414 N 0.43852 0.62836 0.05215 0.0
N415 N 0.47209 0.65961 0.04908 0.0
C416 C 0.46893 0.64403 0.03177 0.0
C417 C 0.45065 0.62707 0.03341 0.0
C418 C 0.47651 0.45284 0.03825 0.0
C419 C 0.48945 0.4441 0.02143 0.0
C420 C 0.46016 0.46825 0.03264 0.0
C421 C 0.45602 0.47556 0.00998 0.0
H422 H 0.47977 0.44865 0.05611 0.0
H423 H 0.45148 0.47528 0.04641 0.0
S424 S 0.48245 0.4547 0.95895 0.0
N425 N 0.49491 0.44167 0.98071 0.0
N426 N 0.46419 0.47055 0.97017 0.0
C427 C 0.4676 0.46562 -0.00725 0.0
C428 C 0.48429 0.44993 -0.00153 0.0
C429 C 0.63601 0.48103 0.07787 0.0
C430 C 0.65291 0.48354 0.06217 0.0
C431 C 0.61927 0.46308 0.07596 0.0
C432 C 0.61854 0.4468 0.05823 0.0
H433 H 0.6352 0.49344 0.09137 0.0
H434 H 0.60628 0.46252 0.08812 0.0
S435 S 0.6604 0.44406 0.01418 0.0
N436 N 0.6691 0.46701 0.02945 0.0
N437 N 0.63753 0.43322 0.02583 0.0
C438 C 0.63614 0.44826 0.04321 0.0
C439 C 0.65332 0.46662 0.04521 0.0
C440 C 0.11011 0.65123 0.61247 0.0
C441 C 0.12953 0.65553 0.60022 0.0
C442 C 0.10973 0.63546 0.63024 0.0
C443 C 0.12878 0.62336 0.63654 0.0
H444 H 0.09457 0.65903 0.60743 0.0
H445 H 0.09393 0.63185 0.63818 0.0
S446 S 0.18535 0.63196 0.61315 0.0
N447 N 0.16938 0.649 0.59804 0.0
N448 N 0.16872 0.61946 0.63146 0.0
C449 C 0.14895 0.62907 0.62588 0.0
C450 C 0.14931 0.64511 0.60773 0.0
C451 C 0.49309 0.04465 0.60325 0.0
C452 C 0.48825 0.02604 0.61738 0.0
C453 C 0.47716 0.05127 0.58626 0.0
C454 C 0.45562 0.0396 0.58256 0.0
H455 H 0.50951 0.05404 0.60497 0.0
H456 H 0.48207 0.06546 0.57563 0.0
S457 S 0.43381 -0.00949 0.61585 0.0
N458 N 0.45982 -0.00337 0.62729 0.0
N459 N 0.42989 0.00908 0.59528 0.0
C460 C 0.45021 0.0214 0.59706 0.0
C461 C 0.4665 0.01462 0.61444 0.0
C462 C 0.07516 0.47347 0.61553 0.0
C463 C 0.08939 0.45543 0.61563 0.0
C464 C 0.07838 0.49075 0.63213 0.0
C465 C 0.09589 0.49075 0.64969 0.0
H466 H 0.06196 0.47487 0.60194 0.0
H467 H 0.06748 0.50467 0.63062 0.0
S468 S 0.13588 0.4457 0.65966 0.0
N469 N 0.12022 0.43736 0.63625 0.0
N470 N 0.12623 0.46983 0.66753 0.0
C471 C 0.10927 0.472 0.65098 0.0
C472 C 0.10604 0.45437 0.63394 0.0
C473 C 0.63751 0.04214 0.63388 0.0
C474 C 0.62548 0.03916 0.6123 0.0
C475 C 0.62975 0.03123 0.65336 0.0
C476 C 0.60959 0.01706 0.65208 0.0
H477 H 0.65313 0.05289 0.63576 0.0
H478 H 0.63965 0.03387 0.66957 0.0
S479 S 0.57271 0.002 0.59954 0.0
N480 N 0.59269 0.02014 0.59082 0.0
N481 N 0.57866 -0.00075 0.6273 0.0
C482 C 0.59752 0.0137 0.63066 0.0
C483 C 0.60532 0.02486 0.61082 0.0
C484 C 0.12316 0.44145 0.48351 0.0
C485 C 0.10246 0.42839 0.48465 0.0
C486 C 0.12678 0.45641 0.46548 0.0
C487 C 0.10977 0.45916 0.44786 0.0
H488 H 0.13647 0.44078 0.49712 0.0
H489 H 0.1427 0.46669 0.46603 0.0
S490 S 0.05366 0.42668 0.441 0.0
N491 N 0.06557 0.41742 0.46518 0.0
N492 N 0.07234 0.44569 0.43136 0.0
C493 C 0.08955 0.44513 0.44794 0.0
C494 C 0.08591 0.42971 0.46627 0.0
C495 C 0.62977 0.09413 0.45734 0.0
C496 C 0.62606 0.07568 0.44189 0.0
C497 C 0.64284 0.09243 0.47807 0.0
C498 C 0.65313 0.07239 0.48399 0.0
H499 H 0.62148 0.10963 0.45406 0.0
H500 H 0.64436 0.10675 0.48984 0.0
S501 S 0.65106 0.02017 0.44823 0.0
N502 N 0.63532 0.03738 0.43305 0.0
N503 N 0.66037 0.03436 0.47183 0.0
C504 C 0.65087 0.05434 0.46803 0.0
C505 C 0.6372 0.05594 0.44704 0.0
C506 C 0.15804 0.59938 0.44787 0.0
C507 C 0.13709 0.59611 0.43492 0.0
C508 C 0.16249 0.61742 0.46352 0.0
C509 C 0.14614 0.63294 0.46705 0.0
H510 H 0.17086 0.58737 0.44666 0.0
H511 H 0.17853 0.61846 0.47371 0.0
S512 S 0.0899 0.63415 0.43493 0.0
N513 N 0.10081 0.6116 0.42474 0.0
N514 N 0.10916 0.64546 0.45425 0.0
C515 C 0.12576 0.63091 0.45302 0.0
C516 C 0.12125 0.61253 0.43694 0.0
C517 C 0.47359 0.06351 0.44452 0.0
C518 C 0.46422 0.04388 0.45478 0.0
C519 C 0.49072 0.06237 0.42932 0.0
C520 C 0.4992 0.04156 0.42377 0.0
H521 H 0.46854 0.08007 0.44912 0.0
H522 H 0.49816 0.07811 0.42285 0.0
S523 S 0.47746 -0.01523 0.44264 0.0
N524 N 0.46252 0.00267 0.45581 0.0
N525 N 0.49469 0.00055 0.42732 0.0
C526 C 0.48868 0.02163 0.43244 0.0
C527 C 0.47121 0.02279 0.44791 0.0
C528 C 0.07946 0.27418 0.55219 0.0
C529 C 0.06604 0.26153 0.53513 0.0
C530 C 0.08085 0.29795 0.55228 0.0
C531 C 0.06846 0.30998 0.53562 0.0
H532 H 0.08898 0.26567 0.56562 0.0
H533 H 0.09126 0.30694 0.56587 0.0
S534 S 0.03117 0.28494 0.48694 0.0
N535 N 0.0406 0.26286 0.50074 0.0
N536 N 0.04278 0.30749 0.50126 0.0
C537 C 0.05513 0.29756 0.51835 0.0
C538 C 0.05405 0.27336 0.51799 0.0
C539 C 0.78303 0.03453 0.55482 0.0
C540 C 0.77117 0.05053 0.54207 0.0
C541 C 0.80626 0.03262 0.55279 0.0
C542 C 0.81829 0.04617 0.53742 0.0
H543 H 0.77435 0.02355 0.56664 0.0
H544 H 0.81473 0.02008 0.56295 0.0
S545 S 0.79504 0.09053 0.49999 0.0
N546 N 0.77323 0.08037 0.51378 0.0
N547 N 0.81668 0.07619 0.50934 0.0
C548 C 0.80661 0.06214 0.52448 0.0
C549 C 0.7831 0.06449 0.52699 0.0
C550 C 0.08137 0.80159 0.55142 0.0
C551 C 0.09415 0.81606 0.53745 0.0
C552 C 0.08381 0.77819 0.55167 0.0
C553 C 0.09952 0.76845 0.53839 0.0
H554 H 0.06889 0.80829 0.56175 0.0
H555 H 0.07325 0.76765 0.56232 0.0
S556 S 0.13801 0.79916 0.49988 0.0
N557 N 0.12355 0.81909 0.51051 0.0
N558 N 0.12859 0.77522 0.51144 0.0
C559 C 0.11292 0.78283 0.52489 0.0
C560 C 0.11009 0.80659 0.52428 0.0
C561 C 0.31882 0.05901 0.56108 0.0
C562 C 0.3251 0.04605 0.54265 0.0
C563 C 0.29603 0.05959 0.56593 0.0
C564 C 0.27861 0.04768 0.55219 0.0
H565 H 0.33162 0.06873 0.57195 0.0
H566 H 0.29201 0.06986 0.58027 0.0
S567 S 0.286 0.01105 0.50199 0.0
N568 N 0.31203 0.02064 0.51084 0.0
N569 N 0.26918 0.02223 0.51958 0.0
C570 C 0.28463 0.03461 0.53373 0.0
C571 C 0.30788 0.03365 0.52907 0.0
C572 C 0.60891 0.09672 0.28374 0.0
C573 C 0.5951 0.08114 0.2697 0.0
C574 C 0.60484 0.1 0.3068 0.0
C575 C 0.58711 0.08748 0.31685 0.0
H576 H 0.62263 0.10691 0.27672 0.0
H577 H 0.61567 0.1125 0.3168 0.0
S578 S 0.54679 0.04369 0.28776 0.0
N579 N 0.56337 0.05258 0.26766 0.0
N580 N 0.55603 0.05836 0.31108 0.0
C581 C 0.57357 0.07138 0.30316 0.0
C582 C 0.57746 0.06833 0.27957 0.0
C583 C 0.06998 0.55825 0.2833 0.0
C584 C 0.08224 0.54645 0.26798 0.0
C585 C 0.07417 0.55636 0.30707 0.0
C586 C 0.09109 0.54295 0.31648 0.0
H587 H 0.05666 0.56865 0.27692 0.0
H588 H 0.06404 0.56552 0.31816 0.0
S589 S 0.1287 0.50941 0.28375 0.0
N590 N 0.11241 0.52129 0.2639 0.0
N591 N 0.12059 0.5181 0.30854 0.0
C592 C 0.10386 0.53148 0.30135 0.0
C593 C 0.09934 0.53312 0.27713 0.0
C594 C 0.61738 0.00449 0.82242 0.0
C595 C 0.59703 0.01168 0.82998 0.0
C596 C 0.61918 -0.00164 0.7995 0.0
C597 C 0.6007 -0.00084 0.78308 0.0
H598 H 0.63201 0.0031 0.83439 0.0
H599 H 0.6351 -0.00753 0.79477 0.0
S600 S 0.54404 0.01847 0.79356 0.0
N601 N 0.55831 0.02047 0.81884 0.0
N602 N 0.56168 0.00897 0.7758 0.0
C603 C 0.58045 0.00706 0.79021 0.0
C604 C 0.57861 0.01329 0.81362 0.0
C605 C 0.08728 0.55652 0.77931 0.0
C606 C 0.10239 0.54084 0.77268 0.0
C607 C 0.07987 0.55665 0.80153 0.0
C608 C 0.08695 0.54084 0.8179 0.0
H609 H 0.0814 0.56911 0.76738 0.0
H610 H 0.06841 0.56921 0.80584 0.0
S611 S 0.1259 0.4957 0.80899 0.0
N612 N 0.12391 0.50882 0.7842 0.0
N613 N 0.1097 0.5088 0.8258 0.0
C614 C 0.10176 0.5248 0.81139 0.0
C615 C 0.10956 0.52488 0.78885 0.0
C616 C 0.29115 0.57076 0.05409 0.0
C617 C 0.27718 0.55352 0.04245 0.0
C618 C 0.31486 0.57115 0.05428 0.0
C619 C 0.32547 0.55465 0.04234 0.0
H620 H 0.28375 0.58368 0.06372 0.0
H621 H 0.32495 0.58446 0.06392 0.0
S622 S 0.29644 0.50665 0.00806 0.0
N623 N 0.27561 0.51993 0.0181 0.0
N624 N 0.32011 0.52101 0.0179 0.0
C625 C 0.31166 0.53774 0.03001 0.0
C626 C 0.28754 0.53707 0.03023 0.0
C627 C 0.5976 0.31094 0.04034 0.0
C628 C 0.58173 0.32005 0.02462 0.0
C629 C 0.60364 0.28861 0.03798 0.0
C630 C 0.59358 0.27437 0.02019 0.0
H631 H 0.60561 0.32121 0.05446 0.0
H632 H 0.616 0.28234 0.05046 0.0
S633 S 0.55093 0.28996 0.97462 0.0
N634 N 0.5562 0.31317 -0.0095 0.0
N635 N 0.56703 0.27097 0.9865 0.0
C636 C 0.57757 0.2832 0.00443 0.0
C637 C 0.57181 0.30611 0.00652 0.0
C638 C 0.8137 0.51073 0.06713 0.0
C639 C 0.82673 0.51747 0.04884 0.0
C640 C 0.79096 0.51574 0.06747 0.0
C641 C 0.78019 0.52735 0.04935 0.0
H642 H 0.82116 0.50167 0.08145 0.0
H643 H 0.7817 0.51023 0.08198 0.0
S644 S 0.80669 0.54861 -0.00271 0.0
N645 N 0.82715 0.53646 0.01212 0.0
N646 N 0.78435 0.54553 0.01258 0.0
C647 C 0.79297 0.53409 0.03087 0.0
C648 C 0.81624 0.52927 0.03068 0.0
C649 C 0.604 0.78886 0.05417 0.0
C650 C 0.5874 0.781 0.06882 0.0
C651 C 0.61353 0.81126 0.0556 0.0
C652 C 0.60654 0.82683 0.07144 0.0
H653 H 0.60994 0.77755 0.04166 0.0
H654 H 0.62635 0.81644 0.04402 0.0
S655 S 0.5633 0.81492 0.11346 0.0
N656 N 0.56429 0.79062 0.09967 0.0
N657 N 0.58188 0.83282 0.10205 0.0
C658 C 0.58977 0.81928 0.08604 0.0
C659 C 0.58031 0.79634 0.08483 0.0
loop_
_geom_bond_atom_site_label_1
_geom_bond_atom_site_label_2
_geom_bond_distance
_geom_bond_site_symmetry_2
_ccdc_geom_bond_type
O0 Cd1 2.300 . S
O0 C7 1.275 . S
Cd1 O0 2.300 . S
Cd1 O9 2.381 . S
Cd1 O10 2.378 . S
O2 Cd3 2.385 . S
O2 C7 1.255 . S
Cd3 O2 2.385 . S
Cd3 O4 2.317 . S
O4 Cd3 2.317 . S
O4 C5 1.232 . S
C5 O4 1.232 . S
C5 O6 1.218 . S
O6 C5 1.218 . S
C7 O0 1.275 . S
C7 O2 1.255 . S
C8 O9 1.258 . S
C8 O10 1.256 . S
O9 Cd1 2.381 . S
O9 C8 1.258 . S
O10 Cd1 2.378 . S
O10 C8 1.256 . S
O11 Cd12 2.300 . S
O11 C18 1.275 . S
Cd12 O11 2.300 . S
Cd12 O20 2.381 . S
Cd12 O21 2.378 . S
O13 Cd14 2.385 . S
O13 C18 1.255 . S
Cd14 O13 2.385 . S
Cd14 O15 2.317 . S
O15 Cd14 2.317 . S
O15 C16 1.232 . S
C16 O15 1.232 . S
C16 O17 1.218 . S
O17 C16 1.218 . S
C18 O11 1.275 . S
C18 O13 1.255 . S
C19 O20 1.258 . S
C19 O21 1.256 . S
O20 Cd12 2.381 . S
O20 C19 1.258 . S
O21 Cd12 2.378 . S
O21 C19 1.256 . S
O22 Cd23 2.300 . S
O22 C29 1.275 . S
Cd23 O22 2.300 . S
Cd23 O31 2.381 . S
Cd23 O32 2.378 . S
O24 Cd25 2.385 . S
O24 C29 1.255 . S
Cd25 O24 2.385 . S
Cd25 O26 2.317 . S
O26 Cd25 2.317 . S
O26 C27 1.232 . S
C27 O26 1.232 . S
C27 O28 1.218 . S
O28 C27 1.218 . S
C29 O22 1.275 . S
C29 O24 1.255 . S
C30 O31 1.258 . S
C30 O32 1.256 . S
O31 Cd23 2.381 . S
O31 C30 1.258 . S
O32 Cd23 2.378 . S
O32 C30 1.256 . S
O33 Cd34 2.300 . S
O33 C40 1.275 . S
Cd34 O33 2.300 . S
Cd34 O42 2.381 . S
Cd34 O43 2.378 . S
O35 Cd36 2.385 . S
O35 C40 1.255 . S
Cd36 O35 2.385 . S
Cd36 O37 2.317 . S
O37 Cd36 2.317 . S
O37 C38 1.232 . S
C38 O37 1.232 . S
C38 O39 1.218 . S
O39 C38 1.218 . S
C40 O33 1.275 . S
C40 O35 1.255 . S
C41 O42 1.258 . S
C41 O43 1.256 . S
O42 Cd34 2.381 . S
O42 C41 1.258 . S
O43 Cd34 2.378 . S
O43 C41 1.256 . S
O44 Cd45 2.300 . S
O44 C51 1.275 . S
Cd45 O44 2.300 . S
Cd45 O53 2.381 . S
Cd45 O54 2.378 . S
O46 Cd47 2.385 . S
O46 C51 1.255 . S
Cd47 O46 2.385 . S
Cd47 O48 2.317 . S
O48 Cd47 2.317 . S
O48 C49 1.232 . S
C49 O48 1.232 . S
C49 O50 1.218 . S
O50 C49 1.218 . S
C51 O44 1.275 . S
C51 O46 1.255 . S
C52 O53 1.258 . S
C52 O54 1.256 . S
O53 Cd45 2.381 . S
O53 C52 1.258 . S
O54 Cd45 2.378 . S
O54 C52 1.256 . S
O55 Cd56 2.300 . S
O55 C62 1.275 . S
Cd56 O55 2.300 . S
Cd56 O64 2.381 . S
Cd56 O65 2.378 . S
O57 Cd58 2.385 . S
O57 C62 1.255 . S
Cd58 O57 2.385 . S
Cd58 O59 2.317 . S
O59 Cd58 2.317 . S
O59 C60 1.232 . S
C60 O59 1.232 . S
C60 O61 1.218 . S
O61 C60 1.218 . S
C62 O55 1.275 . S
C62 O57 1.255 . S
C63 O64 1.258 . S
C63 O65 1.256 . S
O64 Cd56 2.381 . S
O64 C63 1.258 . S
O65 Cd56 2.378 . S
O65 C63 1.256 . S
O66 Cd67 2.300 . S
O66 C73 1.275 . S
Cd67 O66 2.300 . S
Cd67 O75 2.381 . S
Cd67 O76 2.378 . S
O68 Cd69 2.385 . S
O68 C73 1.255 . S
Cd69 O68 2.385 . S
Cd69 O70 2.317 . S
O70 Cd69 2.317 . S
O70 C71 1.230 1_545 S
C71 O70 1.230 1_565 S
C71 O72 1.209 1_565 S
O72 C71 1.209 1_545 S
C73 O66 1.275 . S
C73 O68 1.255 . S
C74 O75 1.258 . S
C74 O76 1.256 . S
O75 Cd67 2.381 . S
O75 C74 1.258 . S
O76 Cd67 2.378 . S
O76 C74 1.256 . S
O77 Cd78 2.300 . S
O77 C84 1.275 . S
Cd78 O77 2.300 . S
Cd78 O86 2.381 . S
Cd78 O87 2.378 . S
O79 Cd80 2.385 . S
O79 C84 1.255 . S
Cd80 O79 2.385 . S
Cd80 O81 2.317 . S
O81 Cd80 2.317 . S
O81 C82 1.232 . S
C82 O81 1.232 . S
C82 O83 1.218 . S
O83 C82 1.218 . S
C84 O77 1.275 . S
C84 O79 1.255 . S
C85 O86 1.258 . S
C85 O87 1.256 . S
O86 Cd78 2.381 . S
O86 C85 1.258 . S
O87 Cd78 2.378 . S
O87 C85 1.256 . S
O88 Cd89 2.300 . S
O88 C95 1.275 . S
Cd89 O88 2.300 . S
Cd89 O97 2.381 . S
Cd89 O98 2.378 . S
O90 Cd91 2.385 . S
O90 C95 1.255 . S
Cd91 O90 2.385 . S
Cd91 O92 2.317 . S
O92 Cd91 2.317 . S
O92 C93 1.232 . S
C93 O92 1.232 . S
C93 O94 1.218 . S
O94 C93 1.218 . S
C95 O88 1.275 . S
C95 O90 1.255 . S
C96 O97 1.258 . S
C96 O98 1.256 . S
O97 Cd89 2.381 . S
O97 C96 1.258 . S
O98 Cd89 2.378 . S
O98 C96 1.256 . S
O99 Cd100 2.300 . S
O99 C106 1.275 . S
Cd100 O99 2.300 . S
Cd100 O108 2.381 . S
Cd100 O109 2.378 . S
O101 Cd102 2.385 . S
O101 C106 1.255 . S
Cd102 O101 2.385 . S
Cd102 O103 2.317 1_554 S
O103 Cd102 2.317 1_556 S
O103 C104 1.232 . S
C104 O103 1.232 . S
C104 O105 1.218 . S
O105 C104 1.218 . S
C106 O99 1.275 . S
C106 O101 1.255 . S
C107 O108 1.258 . S
C107 O109 1.256 . S
O108 Cd100 2.381 . S
O108 C107 1.258 . S
O109 Cd100 2.378 . S
O109 C107 1.256 . S
O110 Cd111 2.300 . S
O110 C117 1.275 . S
Cd111 O110 2.300 . S
Cd111 O119 2.381 . S
Cd111 O120 2.378 . S
O112 Cd113 2.385 . S
O112 C117 1.255 . S
Cd113 O112 2.385 . S
Cd113 O114 2.317 . S
O114 Cd113 2.317 . S
O114 C115 1.232 . S
C115 O114 1.232 . S
C115 O116 1.218 . S
O116 C115 1.218 . S
C117 O110 1.275 . S
C117 O112 1.255 . S
C118 O119 1.258 . S
C118 O120 1.256 . S
O119 Cd111 2.381 . S
O119 C118 1.258 . S
O120 Cd111 2.378 . S
O120 C118 1.256 . S
O121 Cd122 2.300 . S
O121 C128 1.275 . S
Cd122 O121 2.300 . S
Cd122 O130 2.381 . S
Cd122 O131 2.378 . S
O123 Cd124 2.385 . S
O123 C128 1.255 . S
Cd124 O123 2.385 . S
Cd124 O125 2.317 . S
O125 Cd124 2.317 . S
O125 C126 1.232 . S
C126 O125 1.232 . S
C126 O127 1.218 . S
O127 C126 1.218 . S
C128 O121 1.275 . S
C128 O123 1.255 . S
C129 O130 1.258 . S
C129 O131 1.256 . S
O130 Cd122 2.381 . S
O130 C129 1.258 . S
O131 Cd122 2.378 . S
O131 C129 1.256 . S
O132 Cd133 2.300 . S
O132 C139 1.275 . S
Cd133 O132 2.300 . S
Cd133 O141 2.381 . S
Cd133 O142 2.378 . S
O134 Cd135 2.385 . S
O134 C139 1.255 . S
Cd135 O134 2.385 . S
Cd135 O136 2.317 . S
O136 Cd135 2.317 . S
O136 C137 1.232 . S
C137 O136 1.232 . S
C137 O138 1.218 . S
O138 C137 1.218 . S
C139 O132 1.275 . S
C139 O134 1.255 . S
C140 O141 1.258 . S
C140 O142 1.256 . S
O141 Cd133 2.381 . S
O141 C140 1.258 . S
O142 Cd133 2.378 . S
O142 C140 1.256 . S
O143 Cd144 2.300 . S
O143 C150 1.275 . S
Cd144 O143 2.300 . S
Cd144 O152 2.381 . S
Cd144 O153 2.378 . S
O145 Cd146 2.385 1_554 S
O145 C150 1.255 . S
Cd146 O145 2.385 1_556 S
Cd146 O147 2.317 1_556 S
O147 Cd146 2.317 1_554 S
O147 C148 1.232 . S
C148 O147 1.232 . S
C148 O149 1.219 . S
O149 C148 1.219 . S
C150 O143 1.275 . S
C150 O145 1.255 . S
C151 O152 1.258 . S
C151 O153 1.256 . S
O152 Cd144 2.381 . S
O152 C151 1.258 . S
O153 Cd144 2.378 . S
O153 C151 1.256 . S
O154 Cd155 2.300 . S
O154 C161 1.275 . S
Cd155 O154 2.300 . S
Cd155 O163 2.381 . S
Cd155 O164 2.378 . S
O156 Cd157 2.385 . S
O156 C161 1.255 . S
Cd157 O156 2.385 . S
Cd157 O158 2.317 . S
O158 Cd157 2.317 . S
O158 C159 1.232 . S
C159 O158 1.232 . S
C159 O160 1.218 . S
O160 C159 1.218 . S
C161 O154 1.275 . S
C161 O156 1.255 . S
C162 O163 1.258 . S
C162 O164 1.256 . S
O163 Cd155 2.381 . S
O163 C162 1.258 . S
O164 Cd155 2.378 . S
O164 C162 1.256 . S
O165 Cd166 2.300 . S
O165 C172 1.275 . S
Cd166 O165 2.300 . S
Cd166 O174 2.381 . S
Cd166 O175 2.378 . S
O167 Cd168 2.385 . S
O167 C172 1.255 . S
Cd168 O167 2.385 . S
Cd168 O169 2.317 . S
O169 Cd168 2.317 . S
O169 C170 1.232 . S
C170 O169 1.232 . S
C170 O171 1.218 . S
O171 C170 1.218 . S
C172 O165 1.275 . S
C172 O167 1.255 . S
C173 O174 1.258 . S
C173 O175 1.256 . S
O174 Cd166 2.381 . S
O174 C173 1.258 . S
O175 Cd166 2.378 . S
O175 C173 1.256 . S
O176 Cd177 2.300 . S
O176 C183 1.275 . S
Cd177 O176 2.300 . S
Cd177 O185 2.381 . S
Cd177 O186 2.378 . S
O178 Cd179 2.385 . S
O178 C183 1.255 . S
Cd179 O178 2.385 . S
Cd179 O180 2.317 . S
O180 Cd179 2.317 . S
O180 C181 1.232 . S
C181 O180 1.232 . S
C181 O182 1.218 . S
O182 C181 1.218 . S
C183 O176 1.275 . S
C183 O178 1.255 . S
C184 O185 1.258 . S
C184 O186 1.256 . S
O185 Cd177 2.381 . S
O185 C184 1.258 . S
O186 Cd177 2.378 . S
O186 C184 1.256 . S
O187 Cd188 2.300 . S
O187 C194 1.275 . S
Cd188 O187 2.300 . S
Cd188 O196 2.381 . S
Cd188 O197 2.378 . S
O189 Cd190 2.385 . S
O189 C194 1.255 . S
Cd190 O189 2.385 . S
Cd190 O191 2.317 . S
O191 Cd190 2.317 . S
O191 C192 1.232 . S
C192 O191 1.232 . S
C192 O193 1.218 . S
O193 C192 1.218 . S
C194 O187 1.275 . S
C194 O189 1.255 . S
C195 O196 1.258 . S
C195 O197 1.256 . S
O196 Cd188 2.381 . S
O196 C195 1.258 . S
O197 Cd188 2.378 . S
O197 C195 1.256 . S
O198 Cd199 2.300 . S
O198 C205 1.275 . S
Cd199 O198 2.300 . S
Cd199 O207 2.381 . S
Cd199 O208 2.378 . S
O200 Cd201 2.385 . S
O200 C205 1.255 . S
Cd201 O200 2.385 . S
Cd201 O202 2.317 . S
O202 Cd201 2.317 . S
O202 C203 1.232 . S
C203 O202 1.232 . S
C203 O204 1.218 . S
O204 C203 1.218 . S
C205 O198 1.275 . S
C205 O200 1.255 . S
C206 O207 1.258 . S
C206 O208 1.256 . S
O207 Cd199 2.381 . S
O207 C206 1.258 . S
O208 Cd199 2.378 . S
O208 C206 1.256 . S
O209 Cd210 2.300 . S
O209 C216 1.275 . S
Cd210 O209 2.300 . S
Cd210 O218 2.381 . S
Cd210 O219 2.378 . S
O211 Cd212 2.385 . S
O211 C216 1.255 . S
Cd212 O211 2.385 . S
Cd212 O213 2.317 . S
O213 Cd212 2.317 . S
O213 C214 1.232 . S
C214 O213 1.232 . S
C214 O215 1.218 . S
O215 C214 1.218 . S
C216 O209 1.275 . S
C216 O211 1.255 . S
C217 O218 1.258 . S
C217 O219 1.256 . S
O218 Cd210 2.381 . S
O218 C217 1.258 . S
O219 Cd210 2.378 . S
O219 C217 1.256 . S
O220 Cd221 2.300 . S
O220 C227 1.275 . S
Cd221 O220 2.300 . S
Cd221 O229 2.381 . S
Cd221 O230 2.378 . S
O222 Cd223 2.385 . S
O222 C227 1.255 . S
Cd223 O222 2.385 . S
Cd223 O224 2.317 . S
O224 Cd223 2.317 . S
O224 C225 1.232 . S
C225 O224 1.232 . S
C225 O226 1.218 . S
O226 C225 1.218 . S
C227 O220 1.275 . S
C227 O222 1.255 . S
C228 O229 1.258 . S
C228 O230 1.256 . S
O229 Cd221 2.381 . S
O229 C228 1.258 . S
O230 Cd221 2.378 . S
O230 C228 1.256 . S
O231 Cd232 2.300 . S
O231 C238 1.275 . S
Cd232 O231 2.300 . S
Cd232 O240 2.381 . S
Cd232 O241 2.378 . S
O233 Cd234 2.385 . S
O233 C238 1.255 . S
Cd234 O233 2.385 . S
Cd234 O235 2.317 . S
O235 Cd234 2.317 . S
O235 C236 1.232 . S
C236 O235 1.232 . S
C236 O237 1.218 . S
O237 C236 1.218 . S
C238 O231 1.275 . S
C238 O233 1.255 . S
C239 O240 1.258 . S
C239 O241 1.256 . S
O240 Cd232 2.381 . S
O240 C239 1.258 . S
O241 Cd232 2.378 . S
O241 C239 1.256 . S
O242 Cd243 2.300 . S
O242 C249 1.275 . S
Cd243 O242 2.300 . S
Cd243 O251 2.381 . S
Cd243 O252 2.378 . S
O244 Cd245 2.385 . S
O244 C249 1.255 . S
Cd245 O244 2.385 . S
Cd245 O246 2.317 . S
O246 Cd245 2.317 . S
O246 C247 1.232 . S
C247 O246 1.232 . S
C247 O248 1.218 . S
O248 C247 1.218 . S
C249 O242 1.275 . S
C249 O244 1.255 . S
C250 O251 1.258 . S
C250 O252 1.256 . S
O251 Cd243 2.381 . S
O251 C250 1.258 . S
O252 Cd243 2.378 . S
O252 C250 1.256 . S
O253 Cd254 2.300 . S
O253 C260 1.275 . S
Cd254 O253 2.300 . S
Cd254 O262 2.381 . S
Cd254 O263 2.378 . S
O255 Cd256 2.385 . S
O255 C260 1.255 . S
Cd256 O255 2.385 . S
Cd256 O257 2.317 . S
O257 Cd256 2.317 . S
O257 C258 1.232 . S
C258 O257 1.232 . S
C258 O259 1.218 . S
O259 C258 1.218 . S
C260 O253 1.275 . S
C260 O255 1.255 . S
C261 O262 1.258 . S
C261 O263 1.256 . S
O262 Cd254 2.381 . S
O262 C261 1.258 . S
O263 Cd254 2.378 . S
O263 C261 1.256 . S
C264 C265 1.369 . S
C264 C266 1.419 . S
C264 H268 0.930 . S
C265 C264 1.369 . S
C265 C274 1.429 . S
C266 C264 1.419 . S
C266 C267 1.363 . S
C266 H269 0.929 . S
C267 C266 1.363 . S
C267 C273 1.428 . S
H268 C264 0.930 . S
H269 C266 0.929 . S
S270 N271 1.613 . S
S270 N272 1.610 . S
N271 S270 1.613 . S
N271 C274 1.350 . S
N272 S270 1.610 . S
N272 C273 1.351 . S
C273 C267 1.428 . S
C273 N272 1.351 . S
C273 C274 1.434 . S
C274 C265 1.429 . S
C274 N271 1.350 . S
C274 C273 1.434 . S
C275 C276 1.369 . S
C275 C277 1.419 . S
C275 H279 0.930 . S
C276 C275 1.369 . S
C276 C285 1.429 . S
C277 C275 1.419 . S
C277 C278 1.363 1_655 S
C277 H280 0.929 . S
C278 C277 1.363 1_455 S
C278 C284 1.426 1_455 S
H279 C275 0.930 . S
H280 C277 0.929 . S
S281 N282 1.595 1_455 S
S281 N283 1.622 . S
N282 S281 1.595 1_655 S
N282 C285 1.350 . S
N283 S281 1.622 . S
N283 C284 1.343 1_455 S
C284 C278 1.426 1_655 S
C284 N283 1.343 1_655 S
C284 C285 1.446 . S
C285 C276 1.429 . S
C285 N282 1.350 . S
C285 C284 1.446 . S
C286 C287 1.369 . S
C286 C288 1.419 . S
C286 H290 0.930 . S
C287 C286 1.369 . S
C287 C296 1.431 1_655 S
C288 C286 1.419 . S
C288 C289 1.363 1_655 S
C288 H291 0.929 . S
C289 C288 1.363 1_455 S
C289 C295 1.428 . S
H290 C286 0.930 . S
H291 C288 0.929 . S
S292 N293 1.613 . S
S292 N294 1.610 . S
N293 S292 1.613 . S
N293 C296 1.349 . S
N294 S292 1.610 . S
N294 C295 1.351 . S
C295 C289 1.428 . S
C295 N294 1.351 . S
C295 C296 1.432 . S
C296 C287 1.431 1_455 S
C296 N293 1.349 . S
C296 C295 1.432 . S
C297 C298 1.369 . S
C297 C299 1.419 1_565 S
C297 H301 0.930 . S
C298 C297 1.369 . S
C298 C307 1.429 . S
C299 C297 1.419 1_545 S
C299 C300 1.363 . S
C299 H302 0.929 . S
C300 C299 1.363 . S
C300 C306 1.428 1_545 S
H301 C297 0.930 . S
H302 C299 0.929 . S
S303 N304 1.613 . S
S303 N305 1.610 . S
N304 S303 1.613 . S
N304 C307 1.350 . S
N305 S303 1.610 . S
N305 C306 1.351 . S
C306 C300 1.428 1_565 S
C306 N305 1.351 . S
C306 C307 1.434 . S
C307 C298 1.429 . S
C307 N304 1.350 . S
C307 C306 1.434 . S
C308 C309 1.369 . S
C308 C310 1.419 . S
C308 H312 0.930 . S
C309 C308 1.369 . S
C309 C318 1.429 . S
C310 C308 1.419 . S
C310 C311 1.363 . S
C310 H313 0.929 . S
C311 C310 1.363 . S
C311 C317 1.428 . S
H312 C308 0.930 . S
H313 C310 0.929 . S
S314 N315 1.613 . S
S314 N316 1.610 . S
N315 S314 1.613 . S
N315 C318 1.350 . S
N316 S314 1.610 . S
N316 C317 1.351 . S
C317 C311 1.428 . S
C317 N316 1.351 . S
C317 C318 1.434 . S
C318 C309 1.429 . S
C318 N315 1.350 . S
C318 C317 1.434 . S
C319 C320 1.369 . S
C319 C321 1.419 1_455 S
C319 H323 0.930 . S
C320 C319 1.369 . S
C320 C329 1.429 1_455 S
C321 C319 1.419 1_655 S
C321 C322 1.363 . S
C321 H324 0.929 . S
C322 C321 1.363 . S
C322 C328 1.428 . S
H323 C319 0.930 . S
H324 C321 0.929 . S
S325 N326 1.613 . S
S325 N327 1.610 . S
N326 S325 1.613 . S
N326 C329 1.350 . S
N327 S325 1.610 . S
N327 C328 1.351 . S
C328 C322 1.428 . S
C328 N327 1.351 . S
C328 C329 1.434 . S
C329 C320 1.429 1_655 S
C329 N326 1.350 . S
C329 C328 1.434 . S
C330 C331 1.369 . S
C330 C332 1.419 1_545 S
C330 H334 0.930 . S
C331 C330 1.369 . S
C331 C340 1.429 . S
C332 C330 1.419 1_565 S
C332 C333 1.363 . S
C332 H335 0.929 . S
C333 C332 1.363 . S
C333 C339 1.428 1_565 S
H334 C330 0.930 . S
H335 C332 0.929 . S
S336 N337 1.613 . S
S336 N338 1.610 . S
N337 S336 1.613 . S
N337 C340 1.350 . S
N338 S336 1.610 . S
N338 C339 1.351 . S
C339 C333 1.428 1_545 S
C339 N338 1.351 . S
C339 C340 1.434 . S
C340 C331 1.429 . S
C340 N337 1.350 . S
C340 C339 1.434 . S
C341 C342 1.369 . S
C341 C343 1.419 . S
C341 H345 0.930 . S
C342 C341 1.369 . S
C342 C351 1.429 . S
C343 C341 1.419 . S
C343 C344 1.363 . S
C343 H346 0.929 . S
C344 C343 1.363 . S
C344 C350 1.428 . S
H345 C341 0.930 . S
H346 C343 0.929 . S
S347 N348 1.613 . S
S347 N349 1.610 . S
N348 S347 1.613 . S
N348 C351 1.350 . S
N349 S347 1.610 . S
N349 C350 1.351 . S
C350 C344 1.428 . S
C350 N349 1.351 . S
C350 C351 1.434 . S
C351 C342 1.429 . S
C351 N348 1.350 . S
C351 C350 1.434 . S
C352 C353 1.369 . S
C352 C354 1.419 1_556 S
C352 H356 0.930 . S
C353 C352 1.369 . S
C353 C362 1.429 1_556 S
C354 C352 1.419 1_554 S
C354 C355 1.363 . S
C354 H357 0.929 . S
C355 C354 1.363 . S
C355 C361 1.428 . S
H356 C352 0.930 . S
H357 C354 0.929 . S
S358 N359 1.613 . S
S358 N360 1.610 1_545 S
N359 S358 1.613 . S
N359 C362 1.350 1_545 S
N360 S358 1.610 1_565 S
N360 C361 1.351 . S
C361 C355 1.428 . S
C361 N360 1.351 . S
C361 C362 1.434 . S
C362 C353 1.429 1_554 S
C362 N359 1.350 1_565 S
C362 C361 1.434 . S
C363 C364 1.369 . S
C363 C365 1.419 1_556 S
C363 H367 0.930 . S
C364 C363 1.369 . S
C364 C373 1.429 . S
C365 C363 1.419 1_554 S
C365 C366 1.363 . S
C365 H368 0.929 . S
C366 C365 1.363 . S
C366 C372 1.428 1_554 S
H367 C363 0.930 . S
H368 C365 0.929 . S
S369 N370 1.613 . S
S369 N371 1.610 . S
N370 S369 1.613 . S
N370 C373 1.350 . S
N371 S369 1.610 . S
N371 C372 1.351 . S
C372 C366 1.428 1_556 S
C372 N371 1.351 . S
C372 C373 1.434 . S
C373 C364 1.429 . S
C373 N370 1.350 . S
C373 C372 1.434 . S
C374 C375 1.369 . S
C374 C376 1.419 . S
C374 H378 0.930 . S
C375 C374 1.369 . S
C375 C384 1.429 . S
C376 C374 1.419 . S
C376 C377 1.363 . S
C376 H379 0.929 . S
C377 C376 1.363 . S
C377 C383 1.428 . S
H378 C374 0.930 . S
H379 C376 0.929 . S
S380 N381 1.613 . S
S380 N382 1.610 . S
N381 S380 1.613 . S
N381 C384 1.350 . S
N382 S380 1.610 . S
N382 C383 1.351 . S
C383 C377 1.428 . S
C383 N382 1.351 . S
C383 C384 1.434 . S
C384 C375 1.429 . S
C384 N381 1.350 . S
C384 C383 1.434 . S
C385 C386 1.369 . S
C385 C387 1.381 1_456 S
C385 H389 0.930 . S
C386 C385 1.369 . S
C386 C395 1.429 1_455 S
C387 C385 1.381 1_654 S
C387 C388 1.407 . S
C387 H390 0.923 1_655 S
C388 C387 1.407 . S
C388 C394 1.432 1_554 S
H389 C385 0.930 . S
H390 C387 0.923 1_455 S
S391 N392 1.613 . S
S391 N393 1.610 . S
N392 S391 1.613 . S
N392 C395 1.350 . S
N393 S391 1.610 . S
N393 C394 1.351 . S
C394 C388 1.432 1_556 S
C394 N393 1.351 . S
C394 C395 1.434 . S
C395 C386 1.429 1_655 S
C395 N392 1.350 . S
C395 C394 1.434 . S
C396 C397 1.369 . S
C396 C398 1.419 . S
C396 H400 0.930 . S
C397 C396 1.369 . S
C397 C406 1.429 . S
C398 C396 1.419 . S
C398 C399 1.363 . S
C398 H401 0.929 . S
C399 C398 1.363 . S
C399 C405 1.428 . S
H400 C396 0.930 . S
H401 C398 0.929 . S
S402 N403 1.613 . S
S402 N404 1.610 . S
N403 S402 1.613 . S
N403 C406 1.350 . S
N404 S402 1.610 . S
N404 C405 1.351 . S
C405 C399 1.428 . S
C405 N404 1.351 . S
C405 C406 1.434 . S
C406 C397 1.429 . S
C406 N403 1.350 . S
C406 C405 1.434 . S
C407 C408 1.369 . S
C407 C409 1.419 . S
C407 H411 0.930 . S
C408 C407 1.369 . S
C408 C417 1.429 . S
C409 C407 1.419 . S
C409 C410 1.363 . S
C409 H412 0.929 . S
C410 C409 1.363 . S
C410 C416 1.428 . S
H411 C407 0.930 . S
H412 C409 0.929 . S
S413 N414 1.613 . S
S413 N415 1.610 . S
N414 S413 1.613 . S
N414 C417 1.350 . S
N415 S413 1.610 . S
N415 C416 1.351 . S
C416 C410 1.428 . S
C416 N415 1.351 . S
C416 C417 1.434 . S
C417 C408 1.429 . S
C417 N414 1.350 . S
C417 C416 1.434 . S
C418 C419 1.369 . S
C418 C420 1.419 . S
C418 H422 0.930 . S
C419 C418 1.369 . S
C419 C428 1.429 . S
C420 C418 1.419 . S
C420 C421 1.363 . S
C420 H423 0.929 . S
C421 C420 1.363 . S
C421 C427 1.428 . S
H422 C418 0.930 . S
H423 C420 0.929 . S
S424 N425 1.613 . S
S424 N426 1.610 . S
N425 S424 1.613 . S
N425 C428 1.350 . S
N426 S424 1.610 . S
N426 C427 1.351 . S
C427 C421 1.428 . S
C427 N426 1.351 . S
C427 C428 1.434 . S
C428 C419 1.429 . S
C428 N425 1.350 . S
C428 C427 1.434 . S
C429 C430 1.369 . S
C429 C431 1.419 . S
C429 H433 0.930 . S
C430 C429 1.369 . S
C430 C439 1.429 . S
C431 C429 1.419 . S
C431 C432 1.363 . S
C431 H434 0.929 . S
C432 C431 1.363 . S
C432 C438 1.428 . S
H433 C429 0.930 . S
H434 C431 0.929 . S
S435 N436 1.613 . S
S435 N437 1.610 . S
N436 S435 1.613 . S
N436 C439 1.350 . S
N437 S435 1.610 . S
N437 C438 1.351 . S
C438 C432 1.428 . S
C438 N437 1.351 . S
C438 C439 1.434 . S
C439 C430 1.429 . S
C439 N436 1.350 . S
C439 C438 1.434 . S
C440 C441 1.369 . S
C440 C442 1.419 . S
C440 H444 0.930 . S
C441 C440 1.369 . S
C441 C450 1.429 . S
C442 C440 1.419 . S
C442 C443 1.363 . S
C442 H445 0.929 . S
C443 C442 1.363 . S
C443 C449 1.428 . S
H444 C440 0.930 . S
H445 C442 0.929 . S
S446 N447 1.613 . S
S446 N448 1.610 . S
N447 S446 1.613 . S
N447 C450 1.350 . S
N448 S446 1.610 . S
N448 C449 1.351 . S
C449 C443 1.428 . S
C449 N448 1.351 . S
C449 C450 1.434 . S
C450 C441 1.429 . S
C450 N447 1.350 . S
C450 C449 1.434 . S
C451 C452 1.369 . S
C451 C453 1.419 . S
C451 H455 0.930 . S
C452 C451 1.369 . S
C452 C461 1.429 . S
C453 C451 1.419 . S
C453 C454 1.363 . S
C453 H456 0.929 . S
C454 C453 1.363 . S
C454 C460 1.428 . S
H455 C451 0.930 . S
H456 C453 0.929 . S
S457 N458 1.613 . S
S457 N459 1.610 . S
N458 S457 1.613 . S
N458 C461 1.350 1_565 S
N459 S457 1.610 . S
N459 C460 1.351 1_565 S
C460 C454 1.428 . S
C460 N459 1.351 1_545 S
C460 C461 1.434 . S
C461 C452 1.429 . S
C461 N458 1.350 1_545 S
C461 C460 1.434 . S
C462 C463 1.369 . S
C462 C464 1.419 . S
C462 H466 0.930 . S
C463 C462 1.369 . S
C463 C472 1.429 . S
C464 C462 1.419 . S
C464 C465 1.363 . S
C464 H467 0.929 . S
C465 C464 1.363 . S
C465 C471 1.428 . S
H466 C462 0.930 . S
H467 C464 0.929 . S
S468 N469 1.613 . S
S468 N470 1.610 . S
N469 S468 1.613 . S
N469 C472 1.350 . S
N470 S468 1.610 . S
N470 C471 1.351 . S
C471 C465 1.428 . S
C471 N470 1.351 . S
C471 C472 1.434 . S
C472 C463 1.429 . S
C472 N469 1.350 . S
C472 C471 1.434 . S
C473 C474 1.369 . S
C473 C475 1.419 . S
C473 H477 0.930 . S
C474 C473 1.369 . S
C474 C483 1.429 . S
C475 C473 1.419 . S
C475 C476 1.363 . S
C475 H478 0.929 . S
C476 C475 1.363 . S
C476 C482 1.428 . S
H477 C473 0.930 . S
H478 C475 0.929 . S
S479 N480 1.613 . S
S479 N481 1.610 . S
N480 S479 1.613 . S
N480 C483 1.350 . S
N481 S479 1.610 . S
N481 C482 1.351 . S
C482 C476 1.428 . S
C482 N481 1.351 . S
C482 C483 1.434 . S
C483 C474 1.429 . S
C483 N480 1.350 . S
C483 C482 1.434 . S
C484 C485 1.369 . S
C484 C486 1.419 . S
C484 H488 0.930 . S
C485 C484 1.369 . S
C485 C494 1.429 . S
C486 C484 1.419 . S
C486 C487 1.363 . S
C486 H489 0.929 . S
C487 C486 1.363 . S
C487 C493 1.428 . S
H488 C484 0.930 . S
H489 C486 0.929 . S
S490 N491 1.613 . S
S490 N492 1.610 . S
N491 S490 1.613 . S
N491 C494 1.350 . S
N492 S490 1.610 . S
N492 C493 1.351 . S
C493 C487 1.428 . S
C493 N492 1.351 . S
C493 C494 1.434 . S
C494 C485 1.429 . S
C494 N491 1.350 . S
C494 C493 1.434 . S
C495 C496 1.369 . S
C495 C497 1.419 . S
C495 H499 0.930 . S
C496 C495 1.369 . S
C496 C505 1.429 . S
C497 C495 1.419 . S
C497 C498 1.363 . S
C497 H500 0.929 . S
C498 C497 1.363 . S
C498 C504 1.428 . S
H499 C495 0.930 . S
H500 C497 0.929 . S
S501 N502 1.613 . S
S501 N503 1.610 . S
N502 S501 1.613 . S
N502 C505 1.350 . S
N503 S501 1.610 . S
N503 C504 1.351 . S
C504 C498 1.428 . S
C504 N503 1.351 . S
C504 C505 1.434 . S
C505 C496 1.429 . S
C505 N502 1.350 . S
C505 C504 1.434 . S
C506 C507 1.369 . S
C506 C508 1.419 . S
C506 H510 0.930 . S
C507 C506 1.369 . S
C507 C516 1.429 . S
C508 C506 1.419 . S
C508 C509 1.363 . S
C508 H511 0.929 . S
C509 C508 1.363 . S
C509 C515 1.428 . S
H510 C506 0.930 . S
H511 C508 0.929 . S
S512 N513 1.613 . S
S512 N514 1.610 . S
N513 S512 1.613 . S
N513 C516 1.350 . S
N514 S512 1.610 . S
N514 C515 1.351 . S
C515 C509 1.428 . S
C515 N514 1.351 . S
C515 C516 1.434 . S
C516 C507 1.429 . S
C516 N513 1.350 . S
C516 C515 1.434 . S
C517 C518 1.369 . S
C517 C519 1.419 . S
C517 H521 0.930 . S
C518 C517 1.369 . S
C518 C527 1.429 . S
C519 C517 1.419 . S
C519 C520 1.363 . S
C519 H522 0.929 . S
C520 C519 1.363 . S
C520 C526 1.428 . S
H521 C517 0.930 . S
H522 C519 0.929 . S
S523 N524 1.613 . S
S523 N525 1.610 . S
N524 S523 1.613 . S
N524 C527 1.350 . S
N525 S523 1.610 . S
N525 C526 1.351 . S
C526 C520 1.428 . S
C526 N525 1.351 . S
C526 C527 1.434 . S
C527 C518 1.429 . S
C527 N524 1.350 . S
C527 C526 1.434 . S
C528 C529 1.369 . S
C528 C530 1.419 . S
C528 H532 0.930 . S
C529 C528 1.369 . S
C529 C538 1.429 . S
C530 C528 1.419 . S
C530 C531 1.363 . S
C530 H533 0.929 . S
C531 C530 1.363 . S
C531 C537 1.428 . S
H532 C528 0.930 . S
H533 C530 0.929 . S
S534 N535 1.613 . S
S534 N536 1.610 . S
N535 S534 1.613 . S
N535 C538 1.350 . S
N536 S534 1.610 . S
N536 C537 1.351 . S
C537 C531 1.428 . S
C537 N536 1.351 . S
C537 C538 1.434 . S
C538 C529 1.429 . S
C538 N535 1.350 . S
C538 C537 1.434 . S
C539 C540 1.369 . S
C539 C541 1.419 . S
C539 H543 0.930 . S
C540 C539 1.369 . S
C540 C549 1.429 . S
C541 C539 1.419 . S
C541 C542 1.363 . S
C541 H544 0.929 . S
C542 C541 1.363 . S
C542 C548 1.428 . S
H543 C539 0.930 . S
H544 C541 0.929 . S
S545 N546 1.613 . S
S545 N547 1.610 . S
N546 S545 1.613 . S
N546 C549 1.350 . S
N547 S545 1.610 . S
N547 C548 1.351 . S
C548 C542 1.428 . S
C548 N547 1.351 . S
C548 C549 1.434 . S
C549 C540 1.429 . S
C549 N546 1.350 . S
C549 C548 1.434 . S
C550 C551 1.369 . S
C550 C552 1.419 . S
C550 H554 0.930 . S
C551 C550 1.369 . S
C551 C560 1.429 . S
C552 C550 1.419 . S
C552 C553 1.363 . S
C552 H555 0.929 . S
C553 C552 1.363 . S
C553 C559 1.428 . S
H554 C550 0.930 . S
H555 C552 0.929 . S
S556 N557 1.613 . S
S556 N558 1.610 . S
N557 S556 1.613 . S
N557 C560 1.350 . S
N558 S556 1.610 . S
N558 C559 1.351 . S
C559 C553 1.428 . S
C559 N558 1.351 . S
C559 C560 1.434 . S
C560 C551 1.429 . S
C560 N557 1.350 . S
C560 C559 1.434 . S
C561 C562 1.369 . S
C561 C563 1.419 . S
C561 H565 0.930 . S
C562 C561 1.369 . S
C562 C571 1.429 . S
C563 C561 1.419 . S
C563 C564 1.363 . S
C563 H566 0.929 . S
C564 C563 1.363 . S
C564 C570 1.428 . S
H565 C561 0.930 . S
H566 C563 0.929 . S
S567 N568 1.613 1_565 S
S567 N569 1.610 1_565 S
N568 S567 1.613 1_545 S
N568 C571 1.350 . S
N569 S567 1.610 1_545 S
N569 C570 1.351 . S
C570 C564 1.428 . S
C570 N569 1.351 . S
C570 C571 1.434 . S
C571 C562 1.429 . S
C571 N568 1.350 . S
C571 C570 1.434 . S
C572 C573 1.369 . S
C572 C574 1.419 . S
C572 H576 0.930 . S
C573 C572 1.369 . S
C573 C582 1.429 . S
C574 C572 1.419 . S
C574 C575 1.363 . S
C574 H577 0.929 . S
C575 C574 1.363 . S
C575 C581 1.428 . S
H576 C572 0.930 . S
H577 C574 0.929 . S
S578 N579 1.613 . S
S578 N580 1.610 . S
N579 S578 1.613 . S
N579 C582 1.350 . S
N580 S578 1.610 . S
N580 C581 1.351 . S
C581 C575 1.428 . S
C581 N580 1.351 . S
C581 C582 1.434 . S
C582 C573 1.429 . S
C582 N579 1.350 . S
C582 C581 1.434 . S
C583 C584 1.369 . S
C583 C585 1.419 . S
C583 H587 0.930 . S
C584 C583 1.369 . S
C584 C593 1.429 . S
C585 C583 1.419 . S
C585 C586 1.363 . S
C585 H588 0.929 . S
C586 C585 1.363 . S
C586 C592 1.428 . S
H587 C583 0.930 . S
H588 C585 0.929 . S
S589 N590 1.613 . S
S589 N591 1.610 . S
N590 S589 1.613 . S
N590 C593 1.350 . S
N591 S589 1.610 . S
N591 C592 1.351 . S
C592 C586 1.428 . S
C592 N591 1.351 . S
C592 C593 1.434 . S
C593 C584 1.429 . S
C593 N590 1.350 . S
C593 C592 1.434 . S
C594 C595 1.369 . S
C594 C596 1.419 . S
C594 H598 0.930 . S
C595 C594 1.369 . S
C595 C604 1.429 . S
C596 C594 1.419 . S
C596 C597 1.363 . S
C596 H599 0.929 . S
C597 C596 1.363 . S
C597 C603 1.428 . S
H598 C594 0.930 . S
H599 C596 0.929 . S
S600 N601 1.612 1_565 S
S600 N602 1.610 . S
N601 S600 1.612 1_545 S
N601 C604 1.351 . S
N602 S600 1.610 . S
N602 C603 1.351 1_565 S
C603 C597 1.428 . S
C603 N602 1.351 1_545 S
C603 C604 1.434 . S
C604 C595 1.429 . S
C604 N601 1.351 . S
C604 C603 1.434 . S
C605 C606 1.369 . S
C605 C607 1.419 . S
C605 H609 0.930 . S
C606 C605 1.369 . S
C606 C615 1.429 . S
C607 C605 1.419 . S
C607 C608 1.363 . S
C607 H610 0.929 . S
C608 C607 1.363 . S
C608 C614 1.428 . S
H609 C605 0.930 . S
H610 C607 0.929 . S
S611 N612 1.613 . S
S611 N613 1.610 . S
N612 S611 1.613 . S
N612 C615 1.350 . S
N613 S611 1.610 . S
N613 C614 1.351 . S
C614 C608 1.428 . S
C614 N613 1.351 . S
C614 C615 1.434 . S
C615 C606 1.429 . S
C615 N612 1.350 . S
C615 C614 1.434 . S
C616 C617 1.369 . S
C616 C618 1.419 . S
C616 H620 0.930 . S
C617 C616 1.369 . S
C617 C626 1.429 . S
C618 C616 1.419 . S
C618 C619 1.363 . S
C618 H621 0.929 . S
C619 C618 1.363 . S
C619 C625 1.428 . S
H620 C616 0.930 . S
H621 C618 0.929 . S
S622 N623 1.613 1_556 S
S622 N624 1.610 1_556 S
N623 S622 1.613 1_554 S
N623 C626 1.350 . S
N624 S622 1.610 1_554 S
N624 C625 1.351 . S
C625 C619 1.428 . S
C625 N624 1.351 . S
C625 C626 1.434 . S
C626 C617 1.429 . S
C626 N623 1.350 . S
C626 C625 1.434 . S
C627 C628 1.369 . S
C627 C629 1.419 . S
C627 H631 0.930 . S
C628 C627 1.369 . S
C628 C637 1.429 . S
C629 C627 1.419 . S
C629 C630 1.363 . S
C629 H632 0.929 . S
C630 C629 1.363 . S
C630 C636 1.428 . S
H631 C627 0.930 . S
H632 C629 0.929 . S
S633 N634 1.613 . S
S633 N635 1.610 . S
N634 S633 1.613 . S
N634 C637 1.350 1_556 S
N635 S633 1.610 . S
N635 C636 1.351 1_556 S
C636 C630 1.428 . S
C636 N635 1.351 1_554 S
C636 C637 1.434 . S
C637 C628 1.429 . S
C637 N634 1.350 1_554 S
C637 C636 1.434 . S
C638 C639 1.369 . S
C638 C640 1.419 . S
C638 H642 0.930 . S
C639 C638 1.369 . S
C639 C648 1.429 . S
C640 C638 1.419 . S
C640 C641 1.363 . S
C640 H643 0.929 . S
C641 C640 1.363 . S
C641 C647 1.428 . S
H642 C638 0.930 . S
H643 C640 0.929 . S
S644 N645 1.613 . S
S644 N646 1.610 . S
N645 S644 1.613 . S
N645 C648 1.350 . S
N646 S644 1.610 . S
N646 C647 1.351 . S
C647 C641 1.428 . S
C647 N646 1.351 . S
C647 C648 1.434 . S
C648 C639 1.429 . S
C648 N645 1.350 . S
C648 C647 1.434 . S
C649 C650 1.369 . S
C649 C651 1.419 . S
C649 H653 0.930 . S
C650 C649 1.369 . S
C650 C659 1.429 . S
C651 C649 1.419 . S
C651 C652 1.363 . S
C651 H654 0.929 . S
C652 C651 1.363 . S
C652 C658 1.428 . S
H653 C649 0.930 . S
H654 C651 0.929 . S
S655 N656 1.613 . S
S655 N657 1.610 . S
N656 S655 1.613 . S
N656 C659 1.350 . S
N657 S655 1.610 . S
N657 C658 1.351 . S
C658 C652 1.428 . S
C658 N657 1.351 . S
C658 C659 1.434 . S
C659 C650 1.429 . S
C659 N656 1.350 . S
C659 C658 1.434 . S
C265 C38 1.293 . S
C267 C7 1.645 . S
C276 C18 1.451 . S
C278 C5 1.305 . S
C287 C16 1.453 1_565 S
C289 C27 1.467 . S
C298 C29 1.597 . S
C300 C40 1.541 . S
C309 C106 1.513 . S
C311 C49 1.418 . S
C320 C60 1.435 . S
C322 C117 1.423 . S
C331 C51 1.538 . S
C333 C126 1.392 . S
C342 C62 1.585 . S
C344 C93 1.424 . S
C353 C71 1.278 . S
C355 C128 1.487 . S
C364 C84 1.606 . S
C366 C95 1.596 . S
C375 C104 1.325 . S
C377 C73 1.447 . S
C386 C82 1.274 . S
C388 C115 1.168 . S
C397 C139 1.554 . S
C399 C170 1.334 . S
C408 C150 1.492 . S
C410 C137 1.152 . S
C419 C159 1.217 . S
C421 C148 1.277 . S
C430 C172 1.510 . S
C432 C161 1.539 . S
C441 C238 1.481 . S
C443 C181 1.281 . S
C452 C192 1.230 . S
C454 C249 1.393 . S
C463 C258 1.245 . S
C465 C183 1.410 . S
C474 C225 1.538 . S
C476 C194 1.563 . S
C485 C260 1.474 . S
C487 C203 1.402 . S
C496 C216 1.563 . S
C498 C227 1.594 . S
C507 C205 1.530 . S
C509 C236 1.412 . S
C518 C247 1.140 . S
C520 C214 1.192 . S
C529 C8 1.491 . S
C531 C261 1.482 . S
C540 C228 1.597 . S
C542 C19 1.598 . S
C551 C30 1.572 . S
C553 C239 1.577 . S
C562 C250 1.545 . S
C564 C41 1.542 . S
C573 C52 1.575 . S
C575 C217 1.532 . S
C584 C63 1.584 . S
C586 C206 1.586 . S
C595 C74 1.485 . S
C597 C195 1.465 . S
C606 C184 1.473 . S
C608 C85 1.477 . S
C617 C96 1.520 . S
C619 C151 1.524 . S
C628 C162 1.469 . S
C630 C107 1.492 . S
C639 C118 1.483 . S
C641 C173 1.485 . S
C650 C140 1.523 . S
C652 C129 1.570 . S
