# Generated by pormake.
# Topology uoc, (4)-cn, num edge types: 1
# Building blocks:
#     Node 0, Type 0, BuildingBlock: CEKHIL_clean_sbu_0, # of connection points: 4
#     Node 1, Type 0, BuildingBlock: CEKHIL_clean_sbu_0, # of connection points: 4
#     Node 2, Type 0, BuildingBlock: CEKHIL_clean_sbu_0, # of connection points: 4
#     Node 3, Type 0, BuildingBlock: CEKHIL_clean_sbu_0, # of connection points: 4
#     Node 4, Type 0, BuildingBlock: CEKHIL_clean_sbu_0, # of connection points: 4
#     Node 5, Type 0, BuildingBlock: CEKHIL_clean_sbu_0, # of connection points: 4
#     Node 6, Type 0, BuildingBlock: CEKHIL_clean_sbu_0, # of connection points: 4
#     Node 7, Type 0, BuildingBlock: CEKHIL_clean_sbu_0, # of connection points: 4
#     Edge 8, Type (0, 0), BuildingBlock: FUNLAD_clean_linker_1, # of connection points: 2
#     Edge 9, Type (0, 0), BuildingBlock: FUNLAD_clean_linker_1, # of connection points: 2
#     Edge 10, Type (0, 0), BuildingBlock: FUNLAD_clean_linker_1, # of connection points: 2
#     Edge 11, Type (0, 0), BuildingBlock: FUNLAD_clean_linker_1, # of connection points: 2
#     Edge 12, Type (0, 0), BuildingBlock: FUNLAD_clean_linker_1, # of connection points: 2
#     Edge 13, Type (0, 0), BuildingBlock: FUNLAD_clean_linker_1, # of connection points: 2
#     Edge 14, Type (0, 0), BuildingBlock: FUNLAD_clean_linker_1, # of connection points: 2
#     Edge 15, Type (0, 0), BuildingBlock: FUNLAD_clean_linker_1, # of connection points: 2
#     Edge 16, Type (0, 0), BuildingBlock: FUNLAD_clean_linker_1, # of connection points: 2
#     Edge 17, Type (0, 0), BuildingBlock: FUNLAD_clean_linker_1, # of connection points: 2
#     Edge 18, Type (0, 0), BuildingBlock: FUNLAD_clean_linker_1, # of connection points: 2
#     Edge 19, Type (0, 0), BuildingBlock: FUNLAD_clean_linker_1, # of connection points: 2
#     Edge 20, Type (0, 0), BuildingBlock: FUNLAD_clean_linker_1, # of connection points: 2
#     Edge 21, Type (0, 0), BuildingBlock: FUNLAD_clean_linker_1, # of connection points: 2
#     Edge 22, Type (0, 0), BuildingBlock: FUNLAD_clean_linker_1, # of connection points: 2
#     Edge 23, Type (0, 0), BuildingBlock: FUNLAD_clean_linker_1, # of connection points: 2
# Relax obj value: 0.097
# Max RMSD: 0.108
# Mean RMSD: 0.108
data_MOF--net-uoc--node1-CEKHIL_clean_sbu_0--edge1-FUNLAD_clean_linker_1
_symmetry_space_group_name_H-M    P1
_symmetry_Int_Tables_number       1
_symmetry_cell_setting            triclinic
loop_
_symmetry_equiv_pos_as_xyz
'x, y, z'
_cell_length_a     27.789204
_cell_length_b     28.236389
_cell_length_c     56.119088
_cell_angle_alpha  90.000058
_cell_angle_beta   90.012209
_cell_angle_gamma 92.475103
loop_
_atom_site_label
_atom_site_type_symbol
_atom_site_fract_x
_atom_site_fract_y
_atom_site_fract_z
_atom_type_partial_charge
Co0 Co 0.13468 0.25786 0.1283 0.0
O1 O 0.14544 0.32585 0.12808 0.0
O2 O 0.07869 0.28741 0.14044 0.0
C3 C 0.16263 0.24485 0.09132 0.0
O4 O 0.10768 0.19009 0.13008 0.0
Co5 Co 0.2157 0.18682 0.12405 0.0
O6 O 0.16201 0.14056 0.11613 0.0
C7 C 0.2014 0.23662 0.16964 0.0
C8 C 0.10183 0.32747 0.13637 0.0
C9 C 0.11926 0.14935 0.12241 0.0
O10 O 0.16267 0.25407 0.16143 0.0
O11 O 0.22923 0.21161 0.15711 0.0
O12 O 0.11906 0.25866 0.09441 0.0
O13 O 0.18903 0.24307 0.11023 0.0
Co14 Co 0.76028 0.62382 0.37701 0.0
O15 O 0.82899 0.63317 0.37741 0.0
O16 O 0.79113 0.56459 0.36934 0.0
C17 C 0.74733 0.66088 0.41189 0.0
O18 O 0.68829 0.60317 0.376 0.0
Co19 Co 0.70278 0.71476 0.37273 0.0
O20 O 0.64766 0.67023 0.38028 0.0
C21 C 0.75188 0.67971 0.33062 0.0
C22 C 0.83175 0.58899 0.37196 0.0
C23 C 0.64884 0.62522 0.37903 0.0
O24 O 0.75954 0.64145 0.34213 0.0
O25 O 0.73363 0.71593 0.34023 0.0
O26 O 0.75863 0.61678 0.41151 0.0
O27 O 0.74976 0.68252 0.39158 0.0
Co28 Co 0.42526 0.22562 0.61839 0.0
O29 O 0.42446 0.15754 0.61739 0.0
O30 O 0.48463 0.2031 0.63165 0.0
C31 C 0.39979 0.23669 0.58084 0.0
O32 O 0.43869 0.29737 0.62134 0.0
Co33 Co 0.32869 0.2758 0.61396 0.0
O34 O 0.37152 0.33328 0.60995 0.0
C35 C 0.35211 0.22932 0.65901 0.0
C36 C 0.46679 0.16066 0.62713 0.0
C37 C 0.41581 0.33472 0.61587 0.0
O38 O 0.39443 0.22254 0.65088 0.0
O39 O 0.31874 0.24708 0.64654 0.0
O40 O 0.44473 0.22941 0.58514 0.0
O41 O 0.37085 0.23168 0.59884 0.0
Co42 Co 0.72461 0.90055 0.88604 0.0
O43 O 0.65609 0.88864 0.88815 0.0
O44 O 0.69029 0.95607 0.87549 0.0
C45 C 0.74221 0.87256 0.92252 0.0
O46 O 0.79579 0.92432 0.88274 0.0
Co47 Co 0.78849 0.81324 0.88604 0.0
O48 O 0.83969 0.86207 0.89306 0.0
C49 C 0.73826 0.83754 0.84201 0.0
C50 C 0.65089 0.93104 0.8802 0.0
C51 C 0.83626 0.90585 0.88823 0.0
O52 O 0.72353 0.87482 0.8524 0.0
O53 O 0.76282 0.80652 0.85262 0.0
O54 O 0.72793 0.91535 0.91989 0.0
O55 O 0.74 0.84631 0.90358 0.0
Co56 Co 0.62753 0.74982 0.6238 0.0
O57 O 0.6279 0.81785 0.6227 0.0
O58 O 0.5703 0.77233 0.63926 0.0
C59 C 0.64667 0.73909 0.58526 0.0
O60 O 0.6144 0.67807 0.62701 0.0
Co61 Co 0.72249 0.69959 0.61536 0.0
O62 O 0.67913 0.64226 0.61253 0.0
C63 C 0.70662 0.74453 0.66172 0.0
C64 C 0.58695 0.81473 0.63376 0.0
C65 C 0.63593 0.64081 0.62013 0.0
O66 O 0.66348 0.75298 0.65513 0.0
O67 O 0.73736 0.72614 0.64794 0.0
O68 O 0.60254 0.74556 0.59151 0.0
O69 O 0.67867 0.7443 0.60197 0.0
Co70 Co 0.25447 0.13464 0.87847 0.0
O71 O 0.32301 0.14749 0.87871 0.0
O72 O 0.28841 0.07852 0.86856 0.0
C73 C 0.24031 0.16635 0.91452 0.0
O74 O 0.18338 0.10979 0.87729 0.0
Co75 Co 0.18895 0.22178 0.87889 0.0
O76 O 0.13876 0.17227 0.88658 0.0
C77 C 0.23875 0.19663 0.83471 0.0
C78 C 0.32794 0.10428 0.87187 0.0
C79 C 0.14283 0.12816 0.8827 0.0
O80 O 0.25176 0.15783 0.8444 0.0
O81 O 0.21667 0.22853 0.84599 0.0
O82 O 0.2548 0.12337 0.91282 0.0
O83 O 0.23997 0.19 0.89485 0.0
Co84 Co 0.92123 0.72385 0.11205 0.0
O85 O 0.91822 0.65554 0.11324 0.0
O86 O 0.98041 0.70185 0.1249 0.0
C87 C 0.8931 0.73233 0.07474 0.0
O88 O 0.9394 0.79398 0.1126 0.0
Co89 Co 0.82967 0.7816 0.10785 0.0
O90 O 0.87569 0.83695 0.10348 0.0
C91 C 0.85224 0.73732 0.15361 0.0
C92 C 0.96165 0.65939 0.1219 0.0
C93 C 0.9204 0.83352 0.10792 0.0
O94 O 0.89351 0.72715 0.1452 0.0
O95 O 0.81925 0.75535 0.141 0.0
O96 O 0.93768 0.72252 0.0784 0.0
O97 O 0.86551 0.73127 0.09338 0.0
Co98 Co 0.23036 0.39566 0.39098 0.0
O99 O 0.16238 0.38082 0.39249 0.0
O100 O 0.1942 0.4495 0.37997 0.0
C101 C 0.24781 0.36859 0.42756 0.0
O102 O 0.30057 0.42199 0.38813 0.0
Co103 Co 0.29742 0.31057 0.39165 0.0
O104 O 0.34667 0.36152 0.39877 0.0
C105 C 0.24554 0.3318 0.3477 0.0
C106 C 0.15572 0.4228 0.38434 0.0
C107 C 0.34163 0.40505 0.39381 0.0
O108 O 0.2317 0.36999 0.35748 0.0
O109 O 0.26947 0.3009 0.35879 0.0
O110 O 0.23182 0.41071 0.42483 0.0
O111 O 0.24735 0.34236 0.40863 0.0
H112 H 0.21874 0.22197 0.06662 0.0
C113 C 0.18096 0.23015 0.06795 0.0
H114 H 0.11454 0.23264 0.04972 0.0
H115 H 0.27424 0.2491 0.96177 0.0
H116 H 0.29044 0.3288 0.97648 0.0
H117 H 0.25152 0.35644 0.01313 0.0
H118 H 0.19701 0.30402 0.03559 0.0
C119 C 0.15277 0.22642 0.04855 0.0
C120 C 0.17257 0.21133 0.02524 0.0
C121 C 0.20245 0.24315 0.01168 0.0
C122 C 0.2229 0.22798 0.98986 0.0
C123 C 0.25559 0.2594 0.97772 0.0
C124 C 0.26564 0.30519 0.98611 0.0
C125 C 0.24388 0.3207 0.00679 0.0
C126 C 0.21275 0.29017 0.01954 0.0
H127 H 0.20208 0.21767 0.93647 0.0
C128 C 0.22265 0.18583 0.93707 0.0
H129 H 0.25196 0.13304 0.95849 0.0
H130 H 0.11901 0.14083 0.0475 0.0
H131 H 0.10181 0.06114 0.03241 0.0
H132 H 0.13121 0.03707 0.99309 0.0
H133 H 0.18026 0.0913 0.96895 0.0
C134 C 0.23169 0.16512 0.95806 0.0
C135 C 0.21113 0.18182 0.98096 0.0
C136 C 0.18072 0.15025 0.99443 0.0
C137 C 0.162 0.16481 0.01673 0.0
C138 C 0.1334 0.13188 0.03023 0.0
C139 C 0.12305 0.08617 0.02179 0.0
C140 C 0.13992 0.07245 0.99968 0.0
C141 C 0.16828 0.10396 0.98605 0.0
H142 H 0.761 0.64621 0.29556 0.0
C143 C 0.76224 0.68007 0.30481 0.0
H144 H 0.77556 0.75374 0.30206 0.0
H145 H 0.85052 0.64873 0.20088 0.0
H146 H 0.90093 0.6015 0.22588 0.0
H147 H 0.90097 0.61134 0.26957 0.0
H148 H 0.84892 0.6668 0.28847 0.0
C149 C 0.77408 0.72001 0.29271 0.0
C150 C 0.78168 0.72021 0.26626 0.0
C151 C 0.81587 0.69096 0.25542 0.0
C152 C 0.81956 0.68884 0.23012 0.0
C153 C 0.84926 0.65474 0.21988 0.0
C154 C 0.87798 0.62692 0.23405 0.0
C155 C 0.87775 0.63222 0.25865 0.0
C156 C 0.84719 0.66382 0.26929 0.0
H157 H 0.87627 0.73299 0.19089 0.0
C158 C 0.84463 0.73093 0.17948 0.0
H159 H 0.76939 0.7202 0.17771 0.0
H160 H 0.71124 0.77904 0.28075 0.0
H161 H 0.66657 0.83153 0.25588 0.0
H162 H 0.68052 0.83536 0.21253 0.0
H163 H 0.73846 0.78601 0.19374 0.0
C164 C 0.80086 0.72252 0.18921 0.0
C165 C 0.79348 0.72024 0.21567 0.0
C166 C 0.76058 0.75071 0.22657 0.0
C167 C 0.7539 0.7499 0.25175 0.0
C168 C 0.71902 0.77909 0.26187 0.0
C169 C 0.69287 0.80937 0.24778 0.0
C170 C 0.70064 0.81143 0.22338 0.0
C171 C 0.734 0.78263 0.21281 0.0
H172 H 0.41155 0.25253 0.54292 0.0
C173 C 0.38438 0.25087 0.55687 0.0
H174 H 0.31126 0.25966 0.56524 0.0
H175 H 0.35665 0.37575 0.46253 0.0
H176 H 0.41005 0.42769 0.48585 0.0
H177 H 0.42344 0.41236 0.52858 0.0
H178 H 0.38452 0.34433 0.54803 0.0
C179 C 0.3392 0.26236 0.55171 0.0
C180 C 0.32581 0.2758 0.52694 0.0
C181 C 0.34669 0.31735 0.5162 0.0
C182 C 0.33653 0.3279 0.49197 0.0
C183 C 0.36091 0.36751 0.48121 0.0
C184 C 0.39205 0.3974 0.49434 0.0
C185 C 0.39976 0.38864 0.51836 0.0
C186 C 0.37746 0.34918 0.52926 0.0
H187 H 0.25931 0.37657 0.46604 0.0
C188 C 0.26493 0.35315 0.45101 0.0
H189 H 0.29256 0.28839 0.4398 0.0
H190 H 0.28016 0.19323 0.5419 0.0
H191 H 0.22415 0.14313 0.51904 0.0
H192 H 0.20287 0.16394 0.47779 0.0
H193 H 0.2378 0.2347 0.45905 0.0
C194 C 0.28749 0.31266 0.45452 0.0
C195 C 0.3028 0.2988 0.47897 0.0
C196 C 0.28167 0.25751 0.48976 0.0
C197 C 0.29333 0.24591 0.51371 0.0
C198 C 0.27219 0.20407 0.52388 0.0
C199 C 0.24 0.17493 0.51096 0.0
C200 C 0.22804 0.18663 0.48772 0.0
C201 C 0.24844 0.22739 0.47717 0.0
H202 H 0.69759 0.85235 0.80923 0.0
C203 C 0.72564 0.83095 0.81656 0.0
H204 H 0.77646 0.77953 0.80931 0.0
H205 H 0.67679 0.68897 0.7186 0.0
H206 H 0.67273 0.62356 0.74662 0.0
H207 H 0.69637 0.63555 0.78862 0.0
H208 H 0.72428 0.71291 0.80287 0.0
C209 C 0.74854 0.80123 0.80213 0.0
C210 C 0.73468 0.79451 0.77653 0.0
C211 C 0.71851 0.74889 0.76843 0.0
C212 C 0.70472 0.74193 0.7442 0.0
C213 C 0.68813 0.69616 0.73674 0.0
C214 C 0.68546 0.6583 0.75265 0.0
C215 C 0.69877 0.66506 0.7763 0.0
C216 C 0.71493 0.70971 0.78422 0.0
H217 H 0.75716 0.745 0.69217 0.0
C218 C 0.72135 0.75455 0.68664 0.0
H219 H 0.65615 0.784 0.69763 0.0
H220 H 0.77115 0.88508 0.78472 0.0
H221 H 0.77328 0.95048 0.75678 0.0
H222 H 0.74428 0.93925 0.71554 0.0
H223 H 0.71381 0.86209 0.70188 0.0
C224 C 0.69183 0.77342 0.70274 0.0
C225 C 0.70694 0.78055 0.72803 0.0
C226 C 0.72301 0.8261 0.73604 0.0
C227 C 0.73798 0.83294 0.76013 0.0
C228 C 0.75699 0.87823 0.76706 0.0
C229 C 0.75894 0.91606 0.75109 0.0
C230 C 0.74275 0.90971 0.72785 0.0
C231 C 0.72526 0.86527 0.72026 0.0
H232 H 0.2152 0.35297 0.31322 0.0
C233 C 0.23342 0.32477 0.32227 0.0
H234 H 0.26048 0.25624 0.31868 0.0
H235 H 0.12436 0.211 0.22927 0.0
H236 H 0.08133 0.16597 0.25999 0.0
H237 H 0.1057 0.17303 0.30216 0.0
H238 H 0.17342 0.22505 0.31388 0.0
C239 C 0.2438 0.28572 0.30996 0.0
C240 C 0.23001 0.28081 0.28439 0.0
C241 C 0.19045 0.25022 0.27782 0.0
C242 C 0.17617 0.24643 0.25351 0.0
C243 C 0.13657 0.21548 0.24748 0.0
C244 C 0.11157 0.18939 0.26493 0.0
C245 C 0.12531 0.19334 0.28867 0.0
C246 C 0.16425 0.22332 0.29515 0.0
H247 H 0.24879 0.2312 0.20097 0.0
C248 C 0.21501 0.24493 0.1948 0.0
H249 H 0.15254 0.2802 0.20484 0.0
H250 H 0.30936 0.34043 0.29067 0.0
H251 H 0.35092 0.38728 0.26017 0.0
H252 H 0.32391 0.38346 0.2183 0.0
H253 H 0.25554 0.33235 0.20665 0.0
C254 C 0.18732 0.26776 0.21029 0.0
C255 C 0.20166 0.27305 0.23578 0.0
C256 C 0.24096 0.30405 0.24238 0.0
C257 C 0.25557 0.30742 0.26666 0.0
C258 C 0.29593 0.33744 0.27262 0.0
C259 C 0.32025 0.36439 0.25527 0.0
C260 C 0.30513 0.36214 0.23169 0.0
C261 C 0.26597 0.33244 0.22522 0.0
H262 H 0.62837 0.70986 0.55002 0.0
C263 C 0.65787 0.72494 0.5607 0.0
H264 H 0.73109 0.74761 0.56124 0.0
H265 H 0.79582 0.62179 0.47499 0.0
H266 H 0.84498 0.59432 0.50736 0.0
H267 H 0.83271 0.62214 0.54848 0.0
H268 H 0.77173 0.6782 0.55739 0.0
C269 C 0.70144 0.73244 0.55072 0.0
C270 C 0.71056 0.71799 0.52552 0.0
C271 C 0.74592 0.6846 0.52065 0.0
C272 C 0.75192 0.6674 0.49703 0.0
C273 C 0.78858 0.63508 0.49265 0.0
C274 C 0.81731 0.61914 0.51107 0.0
C275 C 0.81047 0.63488 0.5342 0.0
C276 C 0.7753 0.66718 0.53905 0.0
H277 H 0.73891 0.72372 0.43488 0.0
C278 C 0.73653 0.68523 0.43441 0.0
H279 H 0.7239 0.62178 0.4535 0.0
H280 H 0.64839 0.79072 0.52716 0.0
H281 H 0.59579 0.81519 0.49538 0.0
H282 H 0.59737 0.77658 0.45598 0.0
H283 H 0.65275 0.71477 0.44786 0.0
C284 C 0.72569 0.66029 0.4543 0.0
C285 C 0.72151 0.68238 0.47837 0.0
C286 C 0.68639 0.71616 0.4832 0.0
C287 C 0.68259 0.73561 0.50652 0.0
C288 C 0.65049 0.77252 0.51027 0.0
C289 C 0.62042 0.78724 0.49211 0.0
C290 C 0.62152 0.76571 0.46989 0.0
C291 C 0.65394 0.73052 0.4654 0.0
H292 H 0.37269 0.20302 0.69439 0.0
C293 C 0.34305 0.21683 0.68421 0.0
H294 H 0.27008 0.23511 0.68528 0.0
H295 H 0.22094 0.10879 0.77625 0.0
H296 H 0.18067 0.06197 0.74532 0.0
H297 H 0.1921 0.08234 0.70288 0.0
H298 H 0.24367 0.14987 0.69111 0.0
C299 C 0.30075 0.22278 0.69516 0.0
C300 C 0.29416 0.21061 0.72083 0.0
C301 C 0.26408 0.17094 0.72742 0.0
C302 C 0.2579 0.15889 0.75189 0.0
C303 C 0.22724 0.11934 0.75794 0.0
C304 C 0.20387 0.09216 0.74036 0.0
C305 C 0.21027 0.10365 0.71647 0.0
C306 C 0.23995 0.14253 0.70996 0.0
H307 H 0.23748 0.23863 0.80165 0.0
C308 C 0.24924 0.20565 0.80928 0.0
H309 H 0.28367 0.14172 0.80235 0.0
H310 H 0.35134 0.2913 0.7146 0.0
H311 H 0.39478 0.33567 0.74535 0.0
H312 H 0.38883 0.31118 0.78748 0.0
H313 H 0.33865 0.24272 0.79913 0.0
C314 C 0.27278 0.17554 0.79539 0.0
C315 C 0.28182 0.18654 0.76975 0.0
C316 C 0.31303 0.22544 0.76312 0.0
C317 C 0.31829 0.23818 0.7387 0.0
C318 C 0.34748 0.27885 0.73275 0.0
C319 C 0.37242 0.30486 0.75025 0.0
C320 C 0.36893 0.29119 0.77397 0.0
C321 C 0.33968 0.25199 0.78044 0.0
H322 H 0.903 0.74484 0.03635 0.0
C323 C 0.87707 0.74646 0.05081 0.0
H324 H 0.80632 0.76312 0.06037 0.0
H325 H 0.85301 0.87292 0.95623 0.0
H326 H 0.91219 0.92085 0.97829 0.0
H327 H 0.92778 0.90486 0.02076 0.0
H328 H 0.88522 0.84006 0.0412 0.0
C329 C 0.83312 0.76228 0.0463 0.0
C330 C 0.81922 0.7763 0.02164 0.0
C331 C 0.8427 0.81588 0.01028 0.0
C332 C 0.83155 0.82694 0.98619 0.0
C333 C 0.85812 0.86449 0.97483 0.0
C334 C 0.89254 0.89206 0.98723 0.0
C335 C 0.90148 0.88291 0.01111 0.0
C336 C 0.87702 0.84533 0.02258 0.0
H337 H 0.75631 0.8808 0.96081 0.0
C338 C 0.75951 0.85656 0.94589 0.0
H339 H 0.7817 0.78944 0.93496 0.0
H340 H 0.76732 0.69843 0.03802 0.0
H341 H 0.7052 0.65299 0.01659 0.0
H342 H 0.68285 0.6747 0.97561 0.0
H343 H 0.72274 0.74169 0.9557 0.0
C344 C 0.77924 0.81459 0.94952 0.0
C345 C 0.79466 0.80036 0.97394 0.0
C346 C 0.77079 0.76122 0.98541 0.0
C347 C 0.78317 0.74912 0.00922 0.0
C348 C 0.75905 0.70952 0.02008 0.0
C349 C 0.72332 0.68308 0.00798 0.0
C350 C 0.71077 0.69528 0.9849 0.0
C351 C 0.73403 0.73384 0.97367 0.0
H352 H 0.04724 0.11796 0.13062 0.0
C353 C 0.08109 0.11157 0.1217 0.0
H354 H 0.11846 0.06428 0.09995 0.0
H355 H 0.95543 0.92014 0.15156 0.0
H356 H 1.00209 0.93413 0.18761 0.0
H357 H 0.0706 0.99269 0.18816 0.0
H358 H 0.09218 0.03823 0.15284 0.0
C359 C 0.08603 0.07057 0.11008 0.0
C360 C 0.04603 0.03392 0.10961 0.0
C361 C 0.03524 0.00637 0.1302 0.0
C362 C 0.99722 0.97109 0.12957 0.0
C363 C 0.98534 0.94591 0.15075 0.0
C364 C 0.01157 0.95386 0.17162 0.0
C365 C 0.05003 0.98693 0.17196 0.0
C366 C 0.0619 0.01298 0.15155 0.0
H367 H 0.9907 0.87135 0.1116 0.0
C368 C 0.95259 0.87624 0.10847 0.0
H369 H 0.89941 0.92641 0.10263 0.0
H370 H 0.05365 0.08441 0.06814 0.0
H371 H 0.00733 0.06993 0.03192 0.0
H372 H 0.94517 0.00495 0.02995 0.0
H373 H 0.92803 0.95488 0.06434 0.0
C374 C 0.93705 0.92036 0.10629 0.0
C375 C 0.97186 0.96173 0.108 0.0
C376 C 0.98171 0.99018 0.08765 0.0
C377 C 0.01852 0.0267 0.08855 0.0
C378 C 0.02684 0.05546 0.06819 0.0
C379 C 1.00042 0.04763 0.04734 0.0
C380 C 0.96536 0.0111 0.04625 0.0
C381 C 0.95591 0.98261 0.06611 0.0
H382 H 0.0774 0.41034 0.38368 0.0
C383 C 0.10581 0.43745 0.38076 0.0
H384 H 0.12065 0.50934 0.37207 0.0
H385 H 0.91461 0.53459 0.32507 0.0
H386 H 0.96738 0.54444 0.29078 0.0
H387 H 0.05413 0.53033 0.2941 0.0
H388 H 0.08877 0.50656 0.33172 0.0
C389 C 0.09322 0.48165 0.37557 0.0
C390 C 0.04104 0.49287 0.37394 0.0
C391 C 0.0213 0.50693 0.35184 0.0
C392 C 0.97118 0.51519 0.34993 0.0
C393 C 0.95248 0.5286 0.32757 0.0
C394 C 0.98231 0.53411 0.30773 0.0
C395 C 0.03116 0.52613 0.3096 0.0
C396 C 0.05059 0.51254 0.33131 0.0
H397 H 0.91021 0.5956 0.3689 0.0
C398 C 0.88 0.56976 0.36917 0.0
H399 H 0.86045 0.49672 0.37074 0.0
H400 H 0.06743 0.47324 0.41991 0.0
H401 H 0.01443 0.46292 0.45391 0.0
H402 H 0.92706 0.47289 0.44995 0.0
H403 H 0.89229 0.49383 0.41194 0.0
C404 C 0.8894 0.52359 0.369 0.0
C405 C 0.94069 0.50955 0.3701 0.0
C406 C 0.96028 0.49523 0.39215 0.0
C407 C 0.01054 0.48794 0.39423 0.0
C408 C 0.02935 0.47701 0.41695 0.0
C409 C 0.99936 0.4715 0.43673 0.0
C410 C 0.9502 0.47724 0.43452 0.0
C411 C 0.93072 0.48924 0.41258 0.0
H412 H 0.42002 0.4118 0.61011 0.0
C413 C 0.44036 0.38218 0.61641 0.0
H414 H 0.50594 0.36251 0.63184 0.0
H415 H 0.55371 0.57483 0.5818 0.0
H416 H 0.54228 0.53379 0.54413 0.0
H417 H 0.51602 0.44923 0.54302 0.0
H418 H 0.50047 0.40541 0.57955 0.0
C419 C 0.48538 0.39089 0.62444 0.0
C420 C 0.5064 0.44049 0.62505 0.0
C421 C 0.51721 0.46514 0.60353 0.0
C422 C 0.53431 0.51339 0.60419 0.0
C423 C 0.54245 0.53771 0.58238 0.0
C424 C 0.5357 0.51466 0.56061 0.0
C425 C 0.52076 0.46711 0.55999 0.0
C426 C 0.51165 0.44244 0.58111 0.0
H427 H 0.63114 0.56372 0.61457 0.0
C428 C 0.61085 0.59359 0.62059 0.0
H429 H 0.54378 0.61424 0.63397 0.0
H430 H 0.4887 0.40407 0.66951 0.0
H431 H 0.50137 0.44486 0.70721 0.0
H432 H 0.53332 0.52771 0.70837 0.0
H433 H 0.55251 0.57046 0.67183 0.0
C434 C 0.5648 0.58558 0.62723 0.0
C435 C 0.54253 0.53647 0.6264 0.0
C436 C 0.53163 0.51187 0.64789 0.0
C437 C 0.51364 0.46387 0.64722 0.0
C438 C 0.50277 0.44038 0.66898 0.0
C439 C 0.50986 0.46338 0.69075 0.0
C440 C 0.52782 0.51005 0.6914 0.0
C441 C 0.5387 0.53417 0.67029 0.0
H442 H 0.57213 0.92227 0.8807 0.0
C443 C 0.60154 0.94807 0.87733 0.0
H444 H 0.61915 0.01927 0.86825 0.0
H445 H 0.41267 0.05441 0.82381 0.0
H446 H 0.4641 0.06166 0.78891 0.0
H447 H 0.55002 0.04354 0.79122 0.0
H448 H 0.58522 0.01822 0.82843 0.0
C449 C 0.59068 0.99287 0.8722 0.0
C450 C 0.53906 0.00662 0.87118 0.0
C451 C 0.51896 0.0217 0.84934 0.0
C452 C 0.46923 0.03221 0.84799 0.0
C453 C 0.4502 0.04653 0.82587 0.0
C454 C 0.47927 0.05065 0.80569 0.0
C455 C 0.52766 0.04041 0.80699 0.0
C456 C 0.54743 0.02597 0.82848 0.0
H457 H 0.40657 0.11369 0.86912 0.0
C458 C 0.37712 0.08704 0.86872 0.0
H459 H 0.35951 0.01356 0.86861 0.0
H460 H 0.56667 0.98622 0.91685 0.0
H461 H 0.51503 0.97859 0.9515 0.0
H462 H 0.42822 0.99248 0.94856 0.0
H463 H 0.39266 0.0147 0.91093 0.0
C464 C 0.38787 0.04119 0.86758 0.0
C465 C 0.43943 0.0277 0.86846 0.0
C466 C 0.45951 0.0129 0.89033 0.0
C467 C 0.50941 0.00336 0.89184 0.0
C468 C 0.52876 0.99173 0.91435 0.0
C469 C 0.49958 0.98773 0.93449 0.0
C470 C 0.45073 0.99567 0.93284 0.0
C471 C 0.43078 0.00836 0.91112 0.0
H472 H 0.02617 0.62375 0.13406 0.0
C473 C 0.98974 0.61777 0.1273 0.0
H474 H 0.93721 0.56701 0.11531 0.0
H475 H 0.09021 0.41866 0.08617 0.0
H476 H 0.06419 0.44567 0.04745 0.0
H477 H 0.01101 0.51303 0.04389 0.0
H478 H 0.98329 0.55359 0.07906 0.0
C479 C 0.97281 0.5734 0.12299 0.0
C480 C 1.00452 0.53265 0.12547 0.0
C481 C 0.02067 0.50958 0.10471 0.0
C482 C 0.05181 0.47117 0.10675 0.0
C483 C 0.06692 0.44837 0.0857 0.0
C484 C 0.05221 0.46347 0.06333 0.0
C485 C 0.02224 0.50136 0.06133 0.0
C486 C 1.00656 0.52429 0.08169 0.0
H487 H 0.04081 0.37059 0.14613 0.0
C488 C 0.07743 0.37229 0.13927 0.0
H489 H 0.13233 0.41552 0.12337 0.0
H490 H 0.97731 0.56691 0.16889 0.0
H491 H 1.00492 0.54121 0.20763 0.0
H492 H 0.06219 0.47716 0.21107 0.0
H493 H 0.0917 0.43801 0.17577 0.0
C494 C 0.09675 0.41377 0.13143 0.0
C495 C 0.06667 0.45589 0.12957 0.0
C496 C 0.05099 0.47932 0.15033 0.0
C497 C 0.01928 0.51733 0.1483 0.0
C498 C 1.00256 0.53883 0.16936 0.0
C499 C 0.01793 0.52425 0.19172 0.0
C500 C 0.05006 0.48809 0.19366 0.0
C501 C 0.06653 0.46576 0.17327 0.0
H502 H 0.41655 0.42074 0.4043 0.0
C503 C 0.3865 0.43517 0.39467 0.0
H504 H 0.36649 0.48917 0.37114 0.0
H505 H 0.57636 0.55975 0.42372 0.0
H506 H 0.52967 0.56449 0.46007 0.0
H507 H 0.44327 0.54043 0.46059 0.0
H508 H 0.4032 0.51087 0.42482 0.0
C509 C 0.39453 0.47556 0.3824 0.0
C510 C 0.44459 0.4976 0.38125 0.0
C511 C 0.46713 0.51678 0.40204 0.0
C512 C 0.51654 0.53266 0.40147 0.0
C513 C 0.53855 0.54907 0.42286 0.0
C514 C 0.51225 0.55164 0.44392 0.0
C515 C 0.46365 0.53793 0.44424 0.0
C516 C 0.44117 0.52073 0.42361 0.0
H517 H 0.57065 0.62087 0.38459 0.0
C518 C 0.60146 0.5994 0.38108 0.0
H519 H 0.62288 0.52993 0.37397 0.0
H520 H 0.41305 0.46297 0.3382 0.0
H521 H 0.45925 0.46003 0.30163 0.0
H522 H 0.54387 0.4901 0.30031 0.0
H523 H 0.58302 0.52295 0.33561 0.0
C524 C 0.5935 0.55242 0.37852 0.0
C525 C 0.54304 0.53138 0.37983 0.0
C526 C 0.5204 0.51256 0.35902 0.0
C527 C 0.47126 0.49572 0.35972 0.0
C528 C 0.45002 0.47662 0.33868 0.0
C529 C 0.47613 0.4747 0.31754 0.0
C530 C 0.52379 0.49161 0.3168 0.0
C531 C 0.54583 0.51039 0.33721 0.0
H532 H 0.53201 0.12164 0.63596 0.0
C533 C 0.49373 0.11775 0.63212 0.0
H534 H 0.43362 0.07077 0.62696 0.0
H535 H 0.53996 0.89406 0.59123 0.0
H536 H 0.49742 0.91751 0.55571 0.0
H537 H 0.45547 0.99268 0.55451 0.0
H538 H 0.45574 0.0448 0.58877 0.0
C539 C 0.47184 0.07429 0.63106 0.0
C540 C 0.49878 0.02976 0.632 0.0
C541 C 0.49831 -0.00035 0.61172 0.0
C542 C 0.52288 0.95651 0.6123 0.0
C543 C 0.52202 0.9273 0.59175 0.0
C544 C 0.49773 0.9403 0.57123 0.0
C545 C 0.47407 0.98259 0.57056 0.0
C546 C 0.47435 0.0121 0.59045 0.0
H547 H 0.52321 0.85315 0.64558 0.0
C548 C 0.55951 0.85743 0.63849 0.0
H549 H 0.61366 0.90532 0.6252 0.0
H550 H 0.50236 0.07602 0.67498 0.0
H551 H 0.54585 0.05262 0.71025 0.0
H552 H 0.59132 0.97948 0.71052 0.0
H553 H 0.59294 0.92883 0.67555 0.0
C554 C 0.57761 0.90084 0.63259 0.0
C555 C 0.54807 0.94351 0.63308 0.0
C556 C 0.5482 0.97319 0.65343 0.0
C557 C 0.52301 0.01609 0.65303 0.0
C558 C 0.52216 0.04396 0.67399 0.0
C559 C 0.54673 0.03075 0.69443 0.0
C560 C 0.57227 0.98952 0.69459 0.0
C561 C 0.573 0.96084 0.67441 0.0
H562 H 0.91292 0.91635 0.89655 0.0
C563 C 0.88243 0.93407 0.88898 0.0
H564 H 0.86188 0.99541 0.87079 0.0
H565 H 0.07831 0.04205 0.92294 0.0
H566 H 0.03549 0.03364 0.96046 0.0
H567 H 0.94868 0.0113 0.96127 0.0
H568 H 0.90438 0.99654 0.92459 0.0
C569 C 0.89057 0.97759 0.87982 0.0
C570 C 0.94107 0.99887 0.87931 0.0
C571 C 0.96609 0.00964 0.90086 0.0
C572 C 0.0157 0.02482 0.90035 0.0
C573 C 0.04022 0.03247 0.92224 0.0
C574 C 0.01616 0.02741 0.94392 0.0
C575 C 0.96734 0.01466 0.94438 0.0
C576 C 0.94242 0.00592 0.92318 0.0
H577 H 0.06635 0.11758 0.89137 0.0
C578 C 0.09718 0.0993 0.88455 0.0
H579 H 0.11896 0.03529 0.86932 0.0
H580 H 0.90479 0.981 0.83474 0.0
H581 H 0.9472 0.99145 0.79723 0.0
H582 H 0.03203 0.0209 0.79629 0.0
H583 H 0.07522 0.03965 0.83287 0.0
C584 C 0.08993 0.05414 0.87745 0.0
C585 C 0.03992 0.03172 0.87824 0.0
C586 C 0.0149 0.02113 0.8567 0.0
C587 C 0.96559 0.00471 0.85724 0.0
C588 C 0.94197 0.99396 0.83541 0.0
C589 C 0.96589 -0.00021 0.81373 0.0
C590 C 0.01367 0.01635 0.8132 0.0
C591 C 0.03804 0.027 0.83436 0.0
loop_
_geom_bond_atom_site_label_1
_geom_bond_atom_site_label_2
_geom_bond_distance
_geom_bond_site_symmetry_2
_ccdc_geom_bond_type
Co0 O1 2.216 . S
Co0 O2 2.091 . S
Co0 O4 2.004 . S
Co0 O10 2.021 . S
Co0 O12 2.137 . S
Co0 O13 2.244 . S
O1 Co0 2.216 . S
O1 C8 1.247 . S
O2 Co0 2.091 . S
O2 C8 1.261 . S
C3 O12 1.247 . S
C3 O13 1.272 . S
O4 Co0 2.004 . S
O4 C9 1.259 . S
Co5 O6 2.061 . S
Co5 O11 2.052 . S
Co5 O13 2.135 . S
O6 Co5 2.061 . S
O6 C9 1.235 . S
C7 O10 1.238 . S
C7 O11 1.241 . S
C8 O1 1.247 . S
C8 O2 1.261 . S
C9 O4 1.259 . S
C9 O6 1.235 . S
O10 Co0 2.021 . S
O10 C7 1.238 . S
O11 Co5 2.052 . S
O11 C7 1.241 . S
O12 Co0 2.137 . S
O12 C3 1.247 . S
O13 Co0 2.244 . S
O13 C3 1.272 . S
O13 Co5 2.135 . S
Co14 O15 2.216 . S
Co14 O16 2.091 . S
Co14 O18 2.004 . S
Co14 O24 2.021 . S
Co14 O26 2.137 . S
Co14 O27 2.244 . S
O15 Co14 2.216 . S
O15 C22 1.247 . S
O16 Co14 2.091 . S
O16 C22 1.261 . S
C17 O26 1.247 . S
C17 O27 1.272 . S
O18 Co14 2.004 . S
O18 C23 1.259 . S
Co19 O20 2.061 . S
Co19 O25 2.052 . S
Co19 O27 2.135 . S
O20 Co19 2.061 . S
O20 C23 1.235 . S
C21 O24 1.238 . S
C21 O25 1.241 . S
C22 O15 1.247 . S
C22 O16 1.261 . S
C23 O18 1.259 . S
C23 O20 1.235 . S
O24 Co14 2.021 . S
O24 C21 1.238 . S
O25 Co19 2.052 . S
O25 C21 1.241 . S
O26 Co14 2.137 . S
O26 C17 1.247 . S
O27 Co14 2.244 . S
O27 C17 1.272 . S
O27 Co19 2.135 . S
Co28 O29 2.216 . S
Co28 O30 2.091 . S
Co28 O32 2.004 . S
Co28 O38 2.021 . S
Co28 O40 2.137 . S
Co28 O41 2.244 . S
O29 Co28 2.216 . S
O29 C36 1.247 . S
O30 Co28 2.091 . S
O30 C36 1.261 . S
C31 O40 1.247 . S
C31 O41 1.272 . S
O32 Co28 2.004 . S
O32 C37 1.259 . S
Co33 O34 2.061 . S
Co33 O39 2.052 . S
Co33 O41 2.135 . S
O34 Co33 2.061 . S
O34 C37 1.235 . S
C35 O38 1.238 . S
C35 O39 1.241 . S
C36 O29 1.247 . S
C36 O30 1.261 . S
C37 O32 1.259 . S
C37 O34 1.235 . S
O38 Co28 2.021 . S
O38 C35 1.238 . S
O39 Co33 2.052 . S
O39 C35 1.241 . S
O40 Co28 2.137 . S
O40 C31 1.247 . S
O41 Co28 2.244 . S
O41 C31 1.272 . S
O41 Co33 2.135 . S
Co42 O43 2.216 . S
Co42 O44 2.091 . S
Co42 O46 2.004 . S
Co42 O52 2.021 . S
Co42 O54 2.137 . S
Co42 O55 2.244 . S
O43 Co42 2.216 . S
O43 C50 1.247 . S
O44 Co42 2.091 . S
O44 C50 1.261 . S
C45 O54 1.247 . S
C45 O55 1.272 . S
O46 Co42 2.004 . S
O46 C51 1.259 . S
Co47 O48 2.061 . S
Co47 O53 2.052 . S
Co47 O55 2.135 . S
O48 Co47 2.061 . S
O48 C51 1.235 . S
C49 O52 1.238 . S
C49 O53 1.241 . S
C50 O43 1.247 . S
C50 O44 1.261 . S
C51 O46 1.259 . S
C51 O48 1.235 . S
O52 Co42 2.021 . S
O52 C49 1.238 . S
O53 Co47 2.052 . S
O53 C49 1.241 . S
O54 Co42 2.137 . S
O54 C45 1.247 . S
O55 Co42 2.244 . S
O55 C45 1.272 . S
O55 Co47 2.135 . S
Co56 O57 2.216 . S
Co56 O58 2.091 . S
Co56 O60 2.004 . S
Co56 O66 2.021 . S
Co56 O68 2.137 . S
Co56 O69 2.244 . S
O57 Co56 2.216 . S
O57 C64 1.247 . S
O58 Co56 2.091 . S
O58 C64 1.261 . S
C59 O68 1.247 . S
C59 O69 1.272 . S
O60 Co56 2.004 . S
O60 C65 1.259 . S
Co61 O62 2.061 . S
Co61 O67 2.052 . S
Co61 O69 2.135 . S
O62 Co61 2.061 . S
O62 C65 1.235 . S
C63 O66 1.238 . S
C63 O67 1.241 . S
C64 O57 1.247 . S
C64 O58 1.261 . S
C65 O60 1.259 . S
C65 O62 1.235 . S
O66 Co56 2.021 . S
O66 C63 1.238 . S
O67 Co61 2.052 . S
O67 C63 1.241 . S
O68 Co56 2.137 . S
O68 C59 1.247 . S
O69 Co56 2.244 . S
O69 C59 1.272 . S
O69 Co61 2.135 . S
Co70 O71 2.216 . S
Co70 O72 2.091 . S
Co70 O74 2.004 . S
Co70 O80 2.021 . S
Co70 O82 2.137 . S
Co70 O83 2.244 . S
O71 Co70 2.216 . S
O71 C78 1.247 . S
O72 Co70 2.091 . S
O72 C78 1.261 . S
C73 O82 1.247 . S
C73 O83 1.272 . S
O74 Co70 2.004 . S
O74 C79 1.259 . S
Co75 O76 2.061 . S
Co75 O81 2.052 . S
Co75 O83 2.135 . S
O76 Co75 2.061 . S
O76 C79 1.235 . S
C77 O80 1.238 . S
C77 O81 1.241 . S
C78 O71 1.247 . S
C78 O72 1.261 . S
C79 O74 1.259 . S
C79 O76 1.235 . S
O80 Co70 2.021 . S
O80 C77 1.238 . S
O81 Co75 2.052 . S
O81 C77 1.241 . S
O82 Co70 2.137 . S
O82 C73 1.247 . S
O83 Co70 2.244 . S
O83 C73 1.272 . S
O83 Co75 2.135 . S
Co84 O85 2.216 . S
Co84 O86 2.091 . S
Co84 O88 2.004 . S
Co84 O94 2.021 . S
Co84 O96 2.137 . S
Co84 O97 2.244 . S
O85 Co84 2.216 . S
O85 C92 1.247 . S
O86 Co84 2.091 . S
O86 C92 1.261 . S
C87 O96 1.247 . S
C87 O97 1.272 . S
O88 Co84 2.004 . S
O88 C93 1.259 . S
Co89 O90 2.061 . S
Co89 O95 2.052 . S
Co89 O97 2.135 . S
O90 Co89 2.061 . S
O90 C93 1.235 . S
C91 O94 1.238 . S
C91 O95 1.241 . S
C92 O85 1.247 . S
C92 O86 1.261 . S
C93 O88 1.259 . S
C93 O90 1.235 . S
O94 Co84 2.021 . S
O94 C91 1.238 . S
O95 Co89 2.052 . S
O95 C91 1.241 . S
O96 Co84 2.137 . S
O96 C87 1.247 . S
O97 Co84 2.244 . S
O97 C87 1.272 . S
O97 Co89 2.135 . S
Co98 O99 2.216 . S
Co98 O100 2.091 . S
Co98 O102 2.004 . S
Co98 O108 2.021 . S
Co98 O110 2.137 . S
Co98 O111 2.244 . S
O99 Co98 2.216 . S
O99 C106 1.247 . S
O100 Co98 2.091 . S
O100 C106 1.261 . S
C101 O110 1.247 . S
C101 O111 1.272 . S
O102 Co98 2.004 . S
O102 C107 1.259 . S
Co103 O104 2.061 . S
Co103 O109 2.052 . S
Co103 O111 2.135 . S
O104 Co103 2.061 . S
O104 C107 1.235 . S
C105 O108 1.238 . S
C105 O109 1.241 . S
C106 O99 1.247 . S
C106 O100 1.261 . S
C107 O102 1.259 . S
C107 O104 1.235 . S
O108 Co98 2.021 . S
O108 C105 1.238 . S
O109 Co103 2.052 . S
O109 C105 1.241 . S
O110 Co98 2.137 . S
O110 C101 1.247 . S
O111 Co98 2.244 . S
O111 C101 1.272 . S
O111 Co103 2.135 . S
H112 C113 0.951 . S
C113 H112 0.951 . S
C113 C119 1.265 . S
H114 C119 0.950 . S
H115 C123 0.949 . S
H116 C124 0.950 . S
H117 C125 0.951 . S
H118 C126 0.951 . S
C119 C113 1.265 . S
C119 H114 0.950 . S
C119 C120 1.478 . S
C120 C119 1.478 . S
C120 C121 1.397 . S
C120 C137 1.394 . S
C121 C120 1.397 . S
C121 C122 1.438 1_554 S
C121 C126 1.429 . S
C122 C121 1.438 1_556 S
C122 C123 1.428 . S
C122 C135 1.394 . S
C123 H115 0.949 . S
C123 C122 1.428 . S
C123 C124 1.345 . S
C124 H116 0.950 . S
C124 C123 1.345 . S
C124 C125 1.424 . S
C125 H117 0.951 . S
C125 C124 1.424 . S
C125 C126 1.347 1_556 S
C126 H118 0.951 . S
C126 C121 1.429 . S
C126 C125 1.347 1_554 S
H127 C128 0.951 . S
C128 H127 0.951 . S
C128 C134 1.265 . S
H129 C134 0.950 . S
H130 C138 0.949 . S
H131 C139 0.950 . S
H132 C140 0.951 . S
H133 C141 0.951 . S
C134 C128 1.265 . S
C134 H129 0.950 . S
C134 C135 1.478 . S
C135 C122 1.394 . S
C135 C134 1.478 . S
C135 C136 1.397 . S
C136 C135 1.397 . S
C136 C137 1.438 1_556 S
C136 C141 1.429 . S
C137 C120 1.394 . S
C137 C136 1.438 1_554 S
C137 C138 1.428 . S
C138 H130 0.949 . S
C138 C137 1.428 . S
C138 C139 1.345 . S
C139 H131 0.950 . S
C139 C138 1.345 . S
C139 C140 1.424 . S
C140 H132 0.951 . S
C140 C139 1.424 . S
C140 C141 1.347 1_554 S
C141 H133 0.951 . S
C141 C136 1.429 . S
C141 C140 1.347 1_556 S
H142 C143 0.951 . S
C143 H142 0.951 . S
C143 C149 1.265 . S
H144 C149 0.950 . S
H145 C153 0.949 . S
H146 C154 0.950 . S
H147 C155 0.951 . S
H148 C156 0.951 . S
C149 C143 1.265 . S
C149 H144 0.950 . S
C149 C150 1.478 . S
C150 C149 1.478 . S
C150 C151 1.397 . S
C150 C167 1.394 . S
C151 C150 1.397 . S
C151 C152 1.438 . S
C151 C156 1.429 . S
C152 C151 1.438 . S
C152 C153 1.428 . S
C152 C165 1.394 . S
C153 H145 0.949 . S
C153 C152 1.428 . S
C153 C154 1.345 . S
C154 H146 0.950 . S
C154 C153 1.345 . S
C154 C155 1.424 . S
C155 H147 0.951 . S
C155 C154 1.424 . S
C155 C156 1.347 . S
C156 H148 0.951 . S
C156 C151 1.429 . S
C156 C155 1.347 . S
H157 C158 0.951 . S
C158 H157 0.951 . S
C158 C164 1.265 . S
H159 C164 0.950 . S
H160 C168 0.949 . S
H161 C169 0.950 . S
H162 C170 0.951 . S
H163 C171 0.951 . S
C164 C158 1.265 . S
C164 H159 0.950 . S
C164 C165 1.478 . S
C165 C152 1.394 . S
C165 C164 1.478 . S
C165 C166 1.397 . S
C166 C165 1.397 . S
C166 C167 1.438 . S
C166 C171 1.429 . S
C167 C150 1.394 . S
C167 C166 1.438 . S
C167 C168 1.428 . S
C168 H160 0.949 . S
C168 C167 1.428 . S
C168 C169 1.345 . S
C169 H161 0.950 . S
C169 C168 1.345 . S
C169 C170 1.424 . S
C170 H162 0.951 . S
C170 C169 1.424 . S
C170 C171 1.347 . S
C171 H163 0.951 . S
C171 C166 1.429 . S
C171 C170 1.347 . S
H172 C173 0.951 . S
C173 H172 0.951 . S
C173 C179 1.265 . S
H174 C179 0.950 . S
H175 C183 0.949 . S
H176 C184 0.950 . S
H177 C185 0.951 . S
H178 C186 0.951 . S
C179 C173 1.265 . S
C179 H174 0.950 . S
C179 C180 1.478 . S
C180 C179 1.478 . S
C180 C181 1.397 . S
C180 C197 1.394 . S
C181 C180 1.397 . S
C181 C182 1.438 . S
C181 C186 1.429 . S
C182 C181 1.438 . S
C182 C183 1.428 . S
C182 C195 1.394 . S
C183 H175 0.949 . S
C183 C182 1.428 . S
C183 C184 1.345 . S
C184 H176 0.950 . S
C184 C183 1.345 . S
C184 C185 1.424 . S
C185 H177 0.951 . S
C185 C184 1.424 . S
C185 C186 1.347 . S
C186 H178 0.951 . S
C186 C181 1.429 . S
C186 C185 1.347 . S
H187 C188 0.951 . S
C188 H187 0.951 . S
C188 C194 1.265 . S
H189 C194 0.950 . S
H190 C198 0.949 . S
H191 C199 0.950 . S
H192 C200 0.951 . S
H193 C201 0.951 . S
C194 C188 1.265 . S
C194 H189 0.950 . S
C194 C195 1.478 . S
C195 C182 1.394 . S
C195 C194 1.478 . S
C195 C196 1.397 . S
C196 C195 1.397 . S
C196 C197 1.438 . S
C196 C201 1.429 . S
C197 C180 1.394 . S
C197 C196 1.438 . S
C197 C198 1.428 . S
C198 H190 0.949 . S
C198 C197 1.428 . S
C198 C199 1.345 . S
C199 H191 0.950 . S
C199 C198 1.345 . S
C199 C200 1.424 . S
C200 H192 0.951 . S
C200 C199 1.424 . S
C200 C201 1.347 . S
C201 H193 0.951 . S
C201 C196 1.429 . S
C201 C200 1.347 . S
H202 C203 0.951 . S
C203 H202 0.951 . S
C203 C209 1.265 . S
H204 C209 0.950 . S
H205 C213 0.949 . S
H206 C214 0.950 . S
H207 C215 0.951 . S
H208 C216 0.951 . S
C209 C203 1.265 . S
C209 H204 0.950 . S
C209 C210 1.478 . S
C210 C209 1.478 . S
C210 C211 1.397 . S
C210 C227 1.394 . S
C211 C210 1.397 . S
C211 C212 1.438 . S
C211 C216 1.429 . S
C212 C211 1.438 . S
C212 C213 1.428 . S
C212 C225 1.394 . S
C213 H205 0.949 . S
C213 C212 1.428 . S
C213 C214 1.345 . S
C214 H206 0.950 . S
C214 C213 1.345 . S
C214 C215 1.424 . S
C215 H207 0.951 . S
C215 C214 1.424 . S
C215 C216 1.347 . S
C216 H208 0.951 . S
C216 C211 1.429 . S
C216 C215 1.347 . S
H217 C218 0.951 . S
C218 H217 0.951 . S
C218 C224 1.265 . S
H219 C224 0.950 . S
H220 C228 0.949 . S
H221 C229 0.950 . S
H222 C230 0.951 . S
H223 C231 0.951 . S
C224 C218 1.265 . S
C224 H219 0.950 . S
C224 C225 1.478 . S
C225 C212 1.394 . S
C225 C224 1.478 . S
C225 C226 1.397 . S
C226 C225 1.397 . S
C226 C227 1.438 . S
C226 C231 1.429 . S
C227 C210 1.394 . S
C227 C226 1.438 . S
C227 C228 1.428 . S
C228 H220 0.949 . S
C228 C227 1.428 . S
C228 C229 1.345 . S
C229 H221 0.950 . S
C229 C228 1.345 . S
C229 C230 1.424 . S
C230 H222 0.951 . S
C230 C229 1.424 . S
C230 C231 1.347 . S
C231 H223 0.951 . S
C231 C226 1.429 . S
C231 C230 1.347 . S
H232 C233 0.951 . S
C233 H232 0.951 . S
C233 C239 1.265 . S
H234 C239 0.950 . S
H235 C243 0.949 . S
H236 C244 0.950 . S
H237 C245 0.951 . S
H238 C246 0.951 . S
C239 C233 1.265 . S
C239 H234 0.950 . S
C239 C240 1.478 . S
C240 C239 1.478 . S
C240 C241 1.397 . S
C240 C257 1.394 . S
C241 C240 1.397 . S
C241 C242 1.438 . S
C241 C246 1.429 . S
C242 C241 1.438 . S
C242 C243 1.428 . S
C242 C255 1.394 . S
C243 H235 0.949 . S
C243 C242 1.428 . S
C243 C244 1.345 . S
C244 H236 0.950 . S
C244 C243 1.345 . S
C244 C245 1.424 . S
C245 H237 0.951 . S
C245 C244 1.424 . S
C245 C246 1.347 . S
C246 H238 0.951 . S
C246 C241 1.429 . S
C246 C245 1.347 . S
H247 C248 0.951 . S
C248 H247 0.951 . S
C248 C254 1.265 . S
H249 C254 0.950 . S
H250 C258 0.949 . S
H251 C259 0.950 . S
H252 C260 0.951 . S
H253 C261 0.951 . S
C254 C248 1.265 . S
C254 H249 0.950 . S
C254 C255 1.478 . S
C255 C242 1.394 . S
C255 C254 1.478 . S
C255 C256 1.397 . S
C256 C255 1.397 . S
C256 C257 1.438 . S
C256 C261 1.429 . S
C257 C240 1.394 . S
C257 C256 1.438 . S
C257 C258 1.428 . S
C258 H250 0.949 . S
C258 C257 1.428 . S
C258 C259 1.345 . S
C259 H251 0.950 . S
C259 C258 1.345 . S
C259 C260 1.424 . S
C260 H252 0.951 . S
C260 C259 1.424 . S
C260 C261 1.347 . S
C261 H253 0.951 . S
C261 C256 1.429 . S
C261 C260 1.347 . S
H262 C263 0.951 . S
C263 H262 0.951 . S
C263 C269 1.265 . S
H264 C269 0.950 . S
H265 C273 0.949 . S
H266 C274 0.950 . S
H267 C275 0.951 . S
H268 C276 0.951 . S
C269 C263 1.265 . S
C269 H264 0.950 . S
C269 C270 1.478 . S
C270 C269 1.478 . S
C270 C271 1.397 . S
C270 C287 1.394 . S
C271 C270 1.397 . S
C271 C272 1.438 . S
C271 C276 1.429 . S
C272 C271 1.438 . S
C272 C273 1.428 . S
C272 C285 1.394 . S
C273 H265 0.949 . S
C273 C272 1.428 . S
C273 C274 1.345 . S
C274 H266 0.950 . S
C274 C273 1.345 . S
C274 C275 1.424 . S
C275 H267 0.951 . S
C275 C274 1.424 . S
C275 C276 1.347 . S
C276 H268 0.951 . S
C276 C271 1.429 . S
C276 C275 1.347 . S
H277 C278 0.951 . S
C278 H277 0.951 . S
C278 C284 1.265 . S
H279 C284 0.950 . S
H280 C288 0.949 . S
H281 C289 0.950 . S
H282 C290 0.951 . S
H283 C291 0.951 . S
C284 C278 1.265 . S
C284 H279 0.950 . S
C284 C285 1.478 . S
C285 C272 1.394 . S
C285 C284 1.478 . S
C285 C286 1.397 . S
C286 C285 1.397 . S
C286 C287 1.438 . S
C286 C291 1.429 . S
C287 C270 1.394 . S
C287 C286 1.438 . S
C287 C288 1.428 . S
C288 H280 0.949 . S
C288 C287 1.428 . S
C288 C289 1.345 . S
C289 H281 0.950 . S
C289 C288 1.345 . S
C289 C290 1.424 . S
C290 H282 0.951 . S
C290 C289 1.424 . S
C290 C291 1.347 . S
C291 H283 0.951 . S
C291 C286 1.429 . S
C291 C290 1.347 . S
H292 C293 0.951 . S
C293 H292 0.951 . S
C293 C299 1.265 . S
H294 C299 0.950 . S
H295 C303 0.949 . S
H296 C304 0.950 . S
H297 C305 0.951 . S
H298 C306 0.951 . S
C299 C293 1.265 . S
C299 H294 0.950 . S
C299 C300 1.478 . S
C300 C299 1.478 . S
C300 C301 1.397 . S
C300 C317 1.394 . S
C301 C300 1.397 . S
C301 C302 1.438 . S
C301 C306 1.429 . S
C302 C301 1.438 . S
C302 C303 1.428 . S
C302 C315 1.394 . S
C303 H295 0.949 . S
C303 C302 1.428 . S
C303 C304 1.345 . S
C304 H296 0.950 . S
C304 C303 1.345 . S
C304 C305 1.424 . S
C305 H297 0.951 . S
C305 C304 1.424 . S
C305 C306 1.347 . S
C306 H298 0.951 . S
C306 C301 1.429 . S
C306 C305 1.347 . S
H307 C308 0.951 . S
C308 H307 0.951 . S
C308 C314 1.265 . S
H309 C314 0.950 . S
H310 C318 0.949 . S
H311 C319 0.950 . S
H312 C320 0.951 . S
H313 C321 0.951 . S
C314 C308 1.265 . S
C314 H309 0.950 . S
C314 C315 1.478 . S
C315 C302 1.394 . S
C315 C314 1.478 . S
C315 C316 1.397 . S
C316 C315 1.397 . S
C316 C317 1.438 . S
C316 C321 1.429 . S
C317 C300 1.394 . S
C317 C316 1.438 . S
C317 C318 1.428 . S
C318 H310 0.949 . S
C318 C317 1.428 . S
C318 C319 1.345 . S
C319 H311 0.950 . S
C319 C318 1.345 . S
C319 C320 1.424 . S
C320 H312 0.951 . S
C320 C319 1.424 . S
C320 C321 1.347 . S
C321 H313 0.951 . S
C321 C316 1.429 . S
C321 C320 1.347 . S
H322 C323 0.951 . S
C323 H322 0.951 . S
C323 C329 1.265 . S
H324 C329 0.950 . S
H325 C333 0.949 . S
H326 C334 0.950 . S
H327 C335 0.951 . S
H328 C336 0.951 . S
C329 C323 1.265 . S
C329 H324 0.950 . S
C329 C330 1.478 . S
C330 C329 1.478 . S
C330 C331 1.397 . S
C330 C347 1.394 . S
C331 C330 1.397 . S
C331 C332 1.438 1_554 S
C331 C336 1.429 . S
C332 C331 1.438 1_556 S
C332 C333 1.428 . S
C332 C345 1.394 . S
C333 H325 0.949 . S
C333 C332 1.428 . S
C333 C334 1.345 . S
C334 H326 0.950 . S
C334 C333 1.345 . S
C334 C335 1.424 1_556 S
C335 H327 0.951 . S
C335 C334 1.424 1_554 S
C335 C336 1.347 . S
C336 H328 0.951 . S
C336 C331 1.429 . S
C336 C335 1.347 . S
H337 C338 0.951 . S
C338 H337 0.951 . S
C338 C344 1.265 . S
H339 C344 0.950 . S
H340 C348 0.949 . S
H341 C349 0.950 . S
H342 C350 0.951 . S
H343 C351 0.951 . S
C344 C338 1.265 . S
C344 H339 0.950 . S
C344 C345 1.478 . S
C345 C332 1.394 . S
C345 C344 1.478 . S
C345 C346 1.397 . S
C346 C345 1.397 . S
C346 C347 1.438 1_556 S
C346 C351 1.429 . S
C347 C330 1.394 . S
C347 C346 1.438 1_554 S
C347 C348 1.428 . S
C348 H340 0.949 . S
C348 C347 1.428 . S
C348 C349 1.345 . S
C349 H341 0.950 . S
C349 C348 1.345 . S
C349 C350 1.424 1_554 S
C350 H342 0.951 . S
C350 C349 1.424 1_556 S
C350 C351 1.347 . S
C351 H343 0.951 . S
C351 C346 1.429 . S
C351 C350 1.347 . S
H352 C353 0.951 . S
C353 H352 0.951 . S
C353 C359 1.265 . S
H354 C359 0.950 . S
H355 C363 0.949 . S
H356 C364 0.950 . S
H357 C365 0.951 . S
H358 C366 0.951 . S
C359 C353 1.265 . S
C359 H354 0.950 . S
C359 C360 1.478 . S
C360 C359 1.478 . S
C360 C361 1.397 . S
C360 C377 1.394 . S
C361 C360 1.397 . S
C361 C362 1.438 1_445 S
C361 C366 1.429 . S
C362 C361 1.438 1_665 S
C362 C363 1.428 . S
C362 C375 1.394 . S
C363 H355 0.949 . S
C363 C362 1.428 . S
C363 C364 1.345 1_655 S
C364 H356 0.950 . S
C364 C363 1.345 1_455 S
C364 C365 1.424 . S
C365 H357 0.951 . S
C365 C364 1.424 . S
C365 C366 1.347 1_565 S
C366 H358 0.951 . S
C366 C361 1.429 . S
C366 C365 1.347 1_545 S
H367 C368 0.951 . S
C368 H367 0.951 . S
C368 C374 1.265 . S
H369 C374 0.950 . S
H370 C378 0.949 . S
H371 C379 0.950 . S
H372 C380 0.951 . S
H373 C381 0.951 . S
C374 C368 1.265 . S
C374 H369 0.950 . S
C374 C375 1.478 . S
C375 C362 1.394 . S
C375 C374 1.478 . S
C375 C376 1.397 . S
C376 C375 1.397 . S
C376 C377 1.438 1_665 S
C376 C381 1.429 . S
C377 C360 1.394 . S
C377 C376 1.438 1_445 S
C377 C378 1.428 . S
C378 H370 0.949 . S
C378 C377 1.428 . S
C378 C379 1.345 1_455 S
C379 H371 0.950 . S
C379 C378 1.345 1_655 S
C379 C380 1.424 . S
C380 H372 0.951 . S
C380 C379 1.424 . S
C380 C381 1.347 1_545 S
C381 H373 0.951 . S
C381 C376 1.429 . S
C381 C380 1.347 1_565 S
H382 C383 0.951 . S
C383 H382 0.951 . S
C383 C389 1.265 . S
H384 C389 0.950 . S
H385 C393 0.949 . S
H386 C394 0.950 . S
H387 C395 0.951 . S
H388 C396 0.951 . S
C389 C383 1.265 . S
C389 H384 0.950 . S
C389 C390 1.478 . S
C390 C389 1.478 . S
C390 C391 1.397 . S
C390 C407 1.394 . S
C391 C390 1.397 . S
C391 C392 1.438 1_455 S
C391 C396 1.429 . S
C392 C391 1.438 1_655 S
C392 C393 1.428 . S
C392 C405 1.394 . S
C393 H385 0.949 . S
C393 C392 1.428 . S
C393 C394 1.345 . S
C394 H386 0.950 . S
C394 C393 1.345 . S
C394 C395 1.424 1_655 S
C395 H387 0.951 . S
C395 C394 1.424 1_455 S
C395 C396 1.347 . S
C396 H388 0.951 . S
C396 C391 1.429 . S
C396 C395 1.347 . S
H397 C398 0.951 . S
C398 H397 0.951 . S
C398 C404 1.265 . S
H399 C404 0.950 . S
H400 C408 0.949 . S
H401 C409 0.950 . S
H402 C410 0.951 . S
H403 C411 0.951 . S
C404 C398 1.265 . S
C404 H399 0.950 . S
C404 C405 1.478 . S
C405 C392 1.394 . S
C405 C404 1.478 . S
C405 C406 1.397 . S
C406 C405 1.397 . S
C406 C407 1.438 1_655 S
C406 C411 1.429 . S
C407 C390 1.394 . S
C407 C406 1.438 1_455 S
C407 C408 1.428 . S
C408 H400 0.949 . S
C408 C407 1.428 . S
C408 C409 1.345 . S
C409 H401 0.950 . S
C409 C408 1.345 . S
C409 C410 1.424 1_455 S
C410 H402 0.951 . S
C410 C409 1.424 1_655 S
C410 C411 1.347 . S
C411 H403 0.951 . S
C411 C406 1.429 . S
C411 C410 1.347 . S
H412 C413 0.951 . S
C413 H412 0.951 . S
C413 C419 1.265 . S
H414 C419 0.950 . S
H415 C423 0.949 . S
H416 C424 0.950 . S
H417 C425 0.951 . S
H418 C426 0.951 . S
C419 C413 1.265 . S
C419 H414 0.950 . S
C419 C420 1.478 . S
C420 C419 1.478 . S
C420 C421 1.397 . S
C420 C437 1.394 . S
C421 C420 1.397 . S
C421 C422 1.438 . S
C421 C426 1.429 . S
C422 C421 1.438 . S
C422 C423 1.428 . S
C422 C435 1.394 . S
C423 H415 0.949 . S
C423 C422 1.428 . S
C423 C424 1.345 . S
C424 H416 0.950 . S
C424 C423 1.345 . S
C424 C425 1.424 . S
C425 H417 0.951 . S
C425 C424 1.424 . S
C425 C426 1.347 . S
C426 H418 0.951 . S
C426 C421 1.429 . S
C426 C425 1.347 . S
H427 C428 0.951 . S
C428 H427 0.951 . S
C428 C434 1.265 . S
H429 C434 0.950 . S
H430 C438 0.949 . S
H431 C439 0.950 . S
H432 C440 0.951 . S
H433 C441 0.951 . S
C434 C428 1.265 . S
C434 H429 0.950 . S
C434 C435 1.478 . S
C435 C422 1.394 . S
C435 C434 1.478 . S
C435 C436 1.397 . S
C436 C435 1.397 . S
C436 C437 1.438 . S
C436 C441 1.429 . S
C437 C420 1.394 . S
C437 C436 1.438 . S
C437 C438 1.428 . S
C438 H430 0.949 . S
C438 C437 1.428 . S
C438 C439 1.345 . S
C439 H431 0.950 . S
C439 C438 1.345 . S
C439 C440 1.424 . S
C440 H432 0.951 . S
C440 C439 1.424 . S
C440 C441 1.347 . S
C441 H433 0.951 . S
C441 C436 1.429 . S
C441 C440 1.347 . S
H442 C443 0.951 . S
C443 H442 0.951 . S
C443 C449 1.265 . S
H444 C449 0.950 . S
H445 C453 0.949 . S
H446 C454 0.950 . S
H447 C455 0.951 . S
H448 C456 0.951 . S
C449 C443 1.265 . S
C449 H444 0.950 . S
C449 C450 1.478 . S
C450 C449 1.478 . S
C450 C451 1.397 1_565 S
C450 C467 1.394 . S
C451 C450 1.397 1_545 S
C451 C452 1.438 . S
C451 C456 1.429 . S
C452 C451 1.438 . S
C452 C453 1.428 . S
C452 C465 1.394 . S
C453 H445 0.949 . S
C453 C452 1.428 . S
C453 C454 1.345 . S
C454 H446 0.950 . S
C454 C453 1.345 . S
C454 C455 1.424 . S
C455 H447 0.951 . S
C455 C454 1.424 . S
C455 C456 1.347 . S
C456 H448 0.951 . S
C456 C451 1.429 . S
C456 C455 1.347 . S
H457 C458 0.951 . S
C458 H457 0.951 . S
C458 C464 1.265 . S
H459 C464 0.950 . S
H460 C468 0.949 . S
H461 C469 0.950 . S
H462 C470 0.951 . S
H463 C471 0.951 . S
C464 C458 1.265 . S
C464 H459 0.950 . S
C464 C465 1.478 . S
C465 C452 1.394 . S
C465 C464 1.478 . S
C465 C466 1.397 1_545 S
C466 C465 1.397 1_565 S
C466 C467 1.438 . S
C466 C471 1.429 . S
C467 C450 1.394 . S
C467 C466 1.438 . S
C467 C468 1.428 . S
C468 H460 0.949 . S
C468 C467 1.428 . S
C468 C469 1.345 . S
C469 H461 0.950 . S
C469 C468 1.345 . S
C469 C470 1.424 . S
C470 H462 0.951 . S
C470 C469 1.424 . S
C470 C471 1.347 . S
C471 H463 0.951 . S
C471 C466 1.429 . S
C471 C470 1.347 . S
H472 C473 0.951 . S
C473 H472 0.951 . S
C473 C479 1.265 . S
H474 C479 0.950 . S
H475 C483 0.949 . S
H476 C484 0.950 . S
H477 C485 0.951 . S
H478 C486 0.951 . S
C479 C473 1.265 . S
C479 H474 0.950 . S
C479 C480 1.478 . S
C480 C479 1.478 . S
C480 C481 1.397 . S
C480 C497 1.394 . S
C481 C480 1.397 . S
C481 C482 1.438 1_655 S
C481 C486 1.429 . S
C482 C481 1.438 1_455 S
C482 C483 1.428 . S
C482 C495 1.394 . S
C483 H475 0.949 . S
C483 C482 1.428 . S
C483 C484 1.345 1_455 S
C484 H476 0.950 . S
C484 C483 1.345 1_655 S
C484 C485 1.424 . S
C485 H477 0.951 . S
C485 C484 1.424 . S
C485 C486 1.347 . S
C486 H478 0.951 . S
C486 C481 1.429 . S
C486 C485 1.347 . S
H487 C488 0.951 . S
C488 H487 0.951 . S
C488 C494 1.265 . S
H489 C494 0.950 . S
H490 C498 0.949 . S
H491 C499 0.950 . S
H492 C500 0.951 . S
H493 C501 0.951 . S
C494 C488 1.265 . S
C494 H489 0.950 . S
C494 C495 1.478 . S
C495 C482 1.394 . S
C495 C494 1.478 . S
C495 C496 1.397 . S
C496 C495 1.397 . S
C496 C497 1.438 1_455 S
C496 C501 1.429 . S
C497 C480 1.394 . S
C497 C496 1.438 1_655 S
C497 C498 1.428 . S
C498 H490 0.949 . S
C498 C497 1.428 . S
C498 C499 1.345 1_655 S
C499 H491 0.950 . S
C499 C498 1.345 1_455 S
C499 C500 1.424 . S
C500 H492 0.951 . S
C500 C499 1.424 . S
C500 C501 1.347 . S
C501 H493 0.951 . S
C501 C496 1.429 . S
C501 C500 1.347 . S
H502 C503 0.951 . S
C503 H502 0.951 . S
C503 C509 1.265 . S
H504 C509 0.950 . S
H505 C513 0.949 . S
H506 C514 0.950 . S
H507 C515 0.951 . S
H508 C516 0.951 . S
C509 C503 1.265 . S
C509 H504 0.950 . S
C509 C510 1.478 . S
C510 C509 1.478 . S
C510 C511 1.397 . S
C510 C527 1.394 . S
C511 C510 1.397 . S
C511 C512 1.438 . S
C511 C516 1.429 . S
C512 C511 1.438 . S
C512 C513 1.428 . S
C512 C525 1.394 . S
C513 H505 0.949 . S
C513 C512 1.428 . S
C513 C514 1.345 . S
C514 H506 0.950 . S
C514 C513 1.345 . S
C514 C515 1.424 . S
C515 H507 0.951 . S
C515 C514 1.424 . S
C515 C516 1.347 . S
C516 H508 0.951 . S
C516 C511 1.429 . S
C516 C515 1.347 . S
H517 C518 0.951 . S
C518 H517 0.951 . S
C518 C524 1.265 . S
H519 C524 0.950 . S
H520 C528 0.949 . S
H521 C529 0.950 . S
H522 C530 0.951 . S
H523 C531 0.951 . S
C524 C518 1.265 . S
C524 H519 0.950 . S
C524 C525 1.478 . S
C525 C512 1.394 . S
C525 C524 1.478 . S
C525 C526 1.397 . S
C526 C525 1.397 . S
C526 C527 1.438 . S
C526 C531 1.429 . S
C527 C510 1.394 . S
C527 C526 1.438 . S
C527 C528 1.428 . S
C528 H520 0.949 . S
C528 C527 1.428 . S
C528 C529 1.345 . S
C529 H521 0.950 . S
C529 C528 1.345 . S
C529 C530 1.424 . S
C530 H522 0.951 . S
C530 C529 1.424 . S
C530 C531 1.347 . S
C531 H523 0.951 . S
C531 C526 1.429 . S
C531 C530 1.347 . S
H532 C533 0.951 . S
C533 H532 0.951 . S
C533 C539 1.265 . S
H534 C539 0.950 . S
H535 C543 0.949 . S
H536 C544 0.950 . S
H537 C545 0.951 . S
H538 C546 0.951 1_545 S
C539 C533 1.265 . S
C539 H534 0.950 . S
C539 C540 1.478 . S
C540 C539 1.478 . S
C540 C541 1.397 1_545 S
C540 C557 1.394 . S
C541 C540 1.397 1_565 S
C541 C542 1.438 . S
C541 C546 1.429 . S
C542 C541 1.438 . S
C542 C543 1.428 . S
C542 C555 1.394 . S
C543 H535 0.949 . S
C543 C542 1.428 . S
C543 C544 1.345 . S
C544 H536 0.950 . S
C544 C543 1.345 . S
C544 C545 1.424 . S
C545 H537 0.951 . S
C545 C544 1.424 . S
C545 C546 1.347 . S
C546 H538 0.951 1_565 S
C546 C541 1.429 . S
C546 C545 1.347 . S
H547 C548 0.951 . S
C548 H547 0.951 . S
C548 C554 1.265 . S
H549 C554 0.950 . S
H550 C558 0.949 . S
H551 C559 0.950 . S
H552 C560 0.951 . S
H553 C561 0.951 1_565 S
C554 C548 1.265 . S
C554 H549 0.950 . S
C554 C555 1.478 . S
C555 C542 1.394 . S
C555 C554 1.478 . S
C555 C556 1.397 1_565 S
C556 C555 1.397 1_545 S
C556 C557 1.438 . S
C556 C561 1.429 . S
C557 C540 1.394 . S
C557 C556 1.438 . S
C557 C558 1.428 . S
C558 H550 0.949 . S
C558 C557 1.428 . S
C558 C559 1.345 . S
C559 H551 0.950 . S
C559 C558 1.345 . S
C559 C560 1.424 . S
C560 H552 0.951 . S
C560 C559 1.424 . S
C560 C561 1.347 . S
C561 H553 0.951 1_545 S
C561 C556 1.429 . S
C561 C560 1.347 . S
H562 C563 0.951 . S
C563 H562 0.951 . S
C563 C569 1.265 . S
H564 C569 0.950 . S
H565 C573 0.949 . S
H566 C574 0.950 . S
H567 C575 0.951 . S
H568 C576 0.951 . S
C569 C563 1.265 . S
C569 H564 0.950 . S
C569 C570 1.478 . S
C570 C569 1.478 . S
C570 C571 1.397 1_565 S
C570 C587 1.394 . S
C571 C570 1.397 1_545 S
C571 C572 1.438 1_655 S
C571 C576 1.429 . S
C572 C571 1.438 1_455 S
C572 C573 1.428 . S
C572 C585 1.394 . S
C573 H565 0.949 . S
C573 C572 1.428 . S
C573 C574 1.345 . S
C574 H566 0.950 . S
C574 C573 1.345 . S
C574 C575 1.424 1_455 S
C575 H567 0.951 . S
C575 C574 1.424 1_655 S
C575 C576 1.347 . S
C576 H568 0.951 . S
C576 C571 1.429 . S
C576 C575 1.347 . S
H577 C578 0.951 . S
C578 H577 0.951 . S
C578 C584 1.265 . S
H579 C584 0.950 . S
H580 C588 0.949 . S
H581 C589 0.950 . S
H582 C590 0.951 . S
H583 C591 0.951 . S
C584 C578 1.265 . S
C584 H579 0.950 . S
C584 C585 1.478 . S
C585 C572 1.394 . S
C585 C584 1.478 . S
C585 C586 1.397 1_545 S
C586 C585 1.397 1_565 S
C586 C587 1.438 1_455 S
C586 C591 1.429 . S
C587 C570 1.394 . S
C587 C586 1.438 1_655 S
C587 C588 1.428 . S
C588 H580 0.949 . S
C588 C587 1.428 . S
C588 C589 1.345 . S
C589 H581 0.950 . S
C589 C588 1.345 . S
C589 C590 1.424 1_655 S
C590 H582 0.951 . S
C590 C589 1.424 1_455 S
C590 C591 1.347 . S
C591 H583 0.951 . S
C591 C586 1.429 . S
C591 C590 1.347 . S
C113 C3 1.235 . S
C128 C73 1.195 . S
C143 C21 1.186 . S
C158 C91 1.190 . S
C173 C31 1.150 . S
C188 C101 1.188 . S
C203 C49 1.239 . S
C218 C63 1.214 . S
C233 C105 1.209 . S
C248 C7 1.183 . S
C263 C59 1.150 . S
C278 C17 1.192 . S
C293 C35 1.205 . S
C308 C77 1.183 . S
C323 C87 1.167 . S
C338 C45 1.160 . S
C353 C9 1.578 . S
C368 C93 1.580 . S
C383 C106 1.588 . S
C398 C22 1.588 . S
C413 C37 1.560 . S
C428 C65 1.561 . S
C443 C50 1.588 . S
C458 C78 1.588 . S
C473 C92 1.549 . S
C488 C8 1.549 . S
C503 C107 1.559 . S
C518 C23 1.562 . S
C533 C36 1.552 . S
C548 C64 1.550 . S
C563 C51 1.560 . S
C578 C79 1.561 . S
