# Generated by pormake.
# Topology sxb, (6)-cn, num edge types: 1
# Building blocks:
#     Node 0, Type 0, BuildingBlock: FUNLAD_clean_sbu_0, # of connection points: 6
#     Node 1, Type 0, BuildingBlock: FUNLAD_clean_sbu_0, # of connection points: 6
#     Node 2, Type 0, BuildingBlock: FUNLAD_clean_sbu_0, # of connection points: 6
#     Node 3, Type 0, BuildingBlock: FUNLAD_clean_sbu_0, # of connection points: 6
#     Edge 4, Type (0, 0), BuildingBlock: KIFKEQ_clean_linker_1, # of connection points: 2
#     Edge 5, Type (0, 0), BuildingBlock: KIFKEQ_clean_linker_1, # of connection points: 2
#     Edge 6, Type (0, 0), BuildingBlock: KIFKEQ_clean_linker_1, # of connection points: 2
#     Edge 7, Type (0, 0), BuildingBlock: KIFKEQ_clean_linker_1, # of connection points: 2
#     Edge 8, Type (0, 0), BuildingBlock: KIFKEQ_clean_linker_1, # of connection points: 2
#     Edge 9, Type (0, 0), BuildingBlock: KIFKEQ_clean_linker_1, # of connection points: 2
#     Edge 10, Type (0, 0), BuildingBlock: KIFKEQ_clean_linker_1, # of connection points: 2
#     Edge 11, Type (0, 0), BuildingBlock: KIFKEQ_clean_linker_1, # of connection points: 2
#     Edge 12, Type (0, 0), BuildingBlock: KIFKEQ_clean_linker_1, # of connection points: 2
#     Edge 13, Type (0, 0), BuildingBlock: KIFKEQ_clean_linker_1, # of connection points: 2
#     Edge 14, Type (0, 0), BuildingBlock: KIFKEQ_clean_linker_1, # of connection points: 2
#     Edge 15, Type (0, 0), BuildingBlock: KIFKEQ_clean_linker_1, # of connection points: 2
# Relax obj value: 0.109
# Max RMSD: 0.152
# Mean RMSD: 0.152
data_MOF--net-sxb--node1-FUNLAD_clean_sbu_0--edge1-KIFKEQ_clean_linker_1
_symmetry_space_group_name_H-M    P1
_symmetry_Int_Tables_number       1
_symmetry_cell_setting            triclinic
loop_
_symmetry_equiv_pos_as_xyz
'x, y, z'
_cell_length_a     15.300553
_cell_length_b     26.971979
_cell_length_c     44.029763
_cell_angle_alpha  89.869389
_cell_angle_beta   91.651645
_cell_angle_gamma 90.012056
loop_
_atom_site_label
_atom_site_type_symbol
_atom_site_fract_x
_atom_site_fract_y
_atom_site_fract_z
_atom_type_partial_charge
C0 C 0.1215 0.03028 0.0214 0.0
N1 N 0.94342 0.00607 0.94871 0.0
C2 C -0.02113 0.04523 0.93392 0.0
C3 C -0.02051 0.04624 0.90221 0.0
C4 C 0.94349 0.0065 0.88546 0.0
C5 C 0.90708 0.96663 0.90138 0.0
C6 C 0.90767 0.9672 0.93312 0.0
Zn7 Zn 0.94542 0.00551 0.99519 0.0
C8 C 0.00623 0.90826 0.02071 0.0
N9 N -0.04881 1.00464 0.0923 0.0
C10 C -0.01211 0.04329 0.10784 0.0
C11 C 0.91463 0.96588 0.10715 0.0
C12 C 0.91358 0.96514 0.13886 0.0
C13 C -0.04935 1.00465 0.15552 0.0
C14 C -0.01158 0.04403 0.13957 0.0
Zn15 Zn -0.05076 1.00512 0.04578 0.0
O16 O 0.07959 0.02609 0.99617 0.0
C17 C 0.88849 0.10236 0.02077 0.0
O18 O 0.08095 0.02609 0.04604 0.0
H19 H 0.88599 0.93546 0.09437 0.0
H20 H 0.00686 0.07578 0.94675 0.0
H21 H 0.01633 0.07382 0.09559 0.0
O22 O 0.90333 0.08115 0.99566 0.0
O23 O 0.90587 0.07951 0.04549 0.0
H24 H 0.88001 0.9364 0.94534 0.0
O25 O 0.8176 0.98411 0.04494 0.0
O26 O 0.81119 0.98492 0.99508 0.0
O27 O -0.00748 0.93077 0.04545 0.0
O28 O -0.01238 0.92981 0.99561 0.0
C29 C 0.77319 0.9803 0.02025 0.0
H30 H 0.00715 0.07808 0.89095 0.0
H31 H 0.87964 0.93489 0.88949 0.0
H32 H 0.88478 0.93372 0.1502 0.0
H33 H 0.01681 0.07552 0.15146 0.0
C34 C 0.77095 0.03076 0.51934 0.0
N35 N -0.05143 0.00553 0.59226 0.0
C36 C 0.88006 0.98519 0.60689 0.0
C37 C 0.8789 0.98488 0.63859 0.0
C38 C -0.05095 0.00556 0.65553 0.0
C39 C 0.01901 0.02622 0.6398 0.0
C40 C 0.01738 0.02586 0.60805 0.0
Zn41 Zn -0.05304 0.00558 0.54569 0.0
C42 C 0.8863 0.9085 0.52006 0.0
N43 N 0.94153 0.00541 0.44856 0.0
C44 C 0.905 0.0441 0.4329 0.0
C45 C -0.02197 0.96662 0.43383 0.0
C46 C -0.02085 0.96586 0.40213 0.0
C47 C 0.94223 0.00538 0.38534 0.0
C48 C 0.90454 0.04481 0.40116 0.0
Zn49 Zn 0.94317 0.00558 0.49508 0.0
O50 O 0.8129 0.02657 0.54456 0.0
C51 C 0.00394 0.10262 0.5202 0.0
O52 O 0.81146 0.02656 0.49471 0.0
H53 H 0.00652 0.93617 0.44671 0.0
H54 H 0.82587 0.96929 0.59395 0.0
H55 H 0.87659 0.07464 0.44506 0.0
O56 O -0.01126 0.08129 0.54532 0.0
O57 O -0.01331 0.07994 0.49547 0.0
H58 H 0.07128 0.04179 0.596 0.0
O59 O 0.07481 0.98458 0.49598 0.0
O60 O 0.0811 0.98468 0.54583 0.0
O61 O 0.89979 0.93128 0.49534 0.0
O62 O 0.90515 0.92979 0.54517 0.0
C63 C 0.11917 0.98044 0.52067 0.0
H64 H 0.82296 0.96919 0.64967 0.0
H65 H 0.07502 0.042 0.65187 0.0
H66 H 0.00785 0.93439 0.3909 0.0
H67 H 0.87625 0.0763 0.38916 0.0
C68 C 0.62202 0.52952 0.02218 0.0
N69 N 0.44354 0.5063 0.94922 0.0
C70 C 0.49513 0.53904 0.9345 0.0
C71 C 0.49696 0.53934 0.90284 0.0
C72 C 0.44298 0.50675 0.88584 0.0
C73 C 0.38899 0.47405 0.90178 0.0
C74 C 0.39134 0.47393 0.9335 0.0
Zn75 Zn 0.44565 0.5056 0.99576 0.0
C76 C 0.50468 0.40804 0.02099 0.0
N77 N 0.45164 0.50448 0.09258 0.0
C78 C 0.48756 0.54332 0.10815 0.0
C79 C 0.41611 0.46532 0.10733 0.0
C80 C 0.41538 0.46432 0.13901 0.0
C81 C 0.45162 0.50401 0.15569 0.0
C82 C 0.4883 0.54382 0.13986 0.0
Zn83 Zn 0.44958 0.50518 0.04625 0.0
O84 O 0.58044 0.5246 0.99697 0.0
C85 C 0.39057 0.60275 0.02128 0.0
O86 O 0.58119 0.52614 0.04677 0.0
H87 H 0.38808 0.43479 0.09448 0.0
H88 H 0.53566 0.56486 0.94728 0.0
H89 H 0.51523 0.57413 0.09594 0.0
O90 O 0.40629 0.5817 0.99618 0.0
O91 O 0.4064 0.57956 0.046 0.0
H92 H 0.35113 0.44792 0.94553 0.0
O93 O 0.31804 0.48418 0.04563 0.0
O94 O 0.31089 0.48657 0.99584 0.0
O95 O 0.49267 0.43085 0.04575 0.0
O96 O 0.48508 0.42946 0.99592 0.0
C97 C 0.27328 0.48121 0.02099 0.0
H98 H 0.54136 0.5646 0.892 0.0
H99 H 0.34458 0.4489 0.89006 0.0
H100 H 0.38745 0.43258 0.1503 0.0
H101 H 0.51599 0.57544 0.15181 0.0
C102 C 0.27217 0.52892 0.51908 0.0
N103 N 0.45002 0.50581 0.59152 0.0
C104 C 0.39886 0.53884 0.60609 0.0
C105 C 0.39677 0.5392 0.63775 0.0
C106 C 0.45006 0.50635 0.6549 0.0
C107 C 0.50359 0.47332 0.63911 0.0
C108 C 0.50152 0.47318 0.60739 0.0
Zn109 Zn 0.44835 0.50516 0.54497 0.0
C110 C 0.38983 0.40759 0.51989 0.0
N111 N 0.44297 0.50432 0.44819 0.0
C112 C 0.40638 0.54294 0.4325 0.0
C113 C 0.47952 0.46546 0.43356 0.0
C114 C 0.48061 0.46456 0.40189 0.0
C115 C 0.44365 0.50403 0.38508 0.0
C116 C 0.40595 0.54354 0.4008 0.0
Zn117 Zn 0.44465 0.50491 0.49448 0.0
O118 O 0.31594 0.52353 0.54376 0.0
C119 C 0.50303 0.6025 0.51933 0.0
O120 O 0.31082 0.52612 0.49398 0.0
H121 H 0.50807 0.4351 0.4465 0.0
H122 H 0.35887 0.56486 0.59319 0.0
H123 H 0.37795 0.57352 0.44462 0.0
O124 O 0.4872 0.58132 0.54444 0.0
O125 O 0.48759 0.57936 0.49463 0.0
H126 H 0.54143 0.44695 0.59548 0.0
O127 O 0.57839 0.4837 0.49544 0.0
O128 O 0.58082 0.48682 0.54522 0.0
O129 O 0.40179 0.43052 0.4951 0.0
O130 O 0.40934 0.42894 0.54493 0.0
C131 C 0.62084 0.48123 0.52063 0.0
H132 H 0.35273 0.56471 0.64846 0.0
H133 H 0.54748 0.44794 0.65096 0.0
H134 H 0.50933 0.43306 0.39069 0.0
H135 H 0.37768 0.57498 0.38875 0.0
H136 H 0.30418 0.64215 0.06866 0.0
H137 H 0.36316 0.66966 0.97479 0.0
H138 H 0.20695 0.71291 0.06824 0.0
H139 H 0.26917 0.74284 0.97476 0.0
H140 H 0.02895 0.84233 0.97409 0.0
H141 H 0.12338 0.76932 0.97435 0.0
H142 H 0.19632 0.79775 0.06835 0.0
H143 H 0.0987 0.86833 0.06844 0.0
C144 C 0.29816 0.66414 0.04809 0.0
C145 C 0.34196 0.65031 0.02179 0.0
C146 C 0.24218 0.70504 0.04784 0.0
C147 C 0.22949 0.73402 0.02145 0.0
C148 C 0.27555 0.72101 0.99536 0.0
C149 C 0.33054 0.67941 0.99546 0.0
C150 C 0.06407 0.83229 0.99492 0.0
C151 C 0.05549 0.86088 0.02131 0.0
C152 C 0.1193 0.7908 0.99499 0.0
C153 C 0.16842 0.77739 0.02133 0.0
C154 C 0.15868 0.80592 0.04776 0.0
C155 C 0.10248 0.8467 0.04782 0.0
H156 H 0.59764 0.36784 0.06851 0.0
H157 H 0.5256 0.34188 0.97433 0.0
H158 H 0.69465 0.29704 0.06819 0.0
H159 H 0.61945 0.26863 0.97438 0.0
H160 H 0.85951 0.16902 0.97427 0.0
H161 H 0.76519 0.24205 0.97441 0.0
H162 H 0.70502 0.2122 0.06809 0.0
H163 H 0.8026 0.14157 0.06832 0.0
C164 C 0.60076 0.34618 0.04788 0.0
C165 C 0.55334 0.36046 0.02147 0.0
C166 C 0.65662 0.30526 0.04769 0.0
C167 C 0.66558 0.27668 0.02125 0.0
C168 C 0.61596 0.29014 0.99503 0.0
C169 C 0.56106 0.33178 0.99508 0.0
C170 C 0.82723 0.17874 0.99501 0.0
C171 C 0.83938 0.14975 0.02135 0.0
C172 C 0.77206 0.22025 0.99501 0.0
C173 C 0.72654 0.23327 0.02122 0.0
C174 C 0.73985 0.20433 0.0476 0.0
C175 C 0.79602 0.16352 0.04774 0.0
H176 H 0.09101 0.14162 0.47277 0.0
H177 H 0.033 0.16909 0.56664 0.0
H178 H 0.18936 0.21188 0.47303 0.0
H179 H 0.12799 0.24188 0.5665 0.0
H180 H 0.36772 0.34159 0.56675 0.0
H181 H 0.27358 0.26844 0.56676 0.0
H182 H 0.20074 0.29652 0.47263 0.0
H183 H 0.29811 0.36715 0.47227 0.0
C184 C 0.09748 0.16353 0.49331 0.0
C185 C 0.05354 0.14986 0.51964 0.0
C186 C 0.15411 0.20413 0.49346 0.0
C187 C 0.16728 0.23304 0.51979 0.0
C188 C 0.12124 0.22012 0.54594 0.0
C189 C 0.06566 0.17876 0.54594 0.0
C190 C 0.33274 0.33143 0.54595 0.0
C191 C 0.34119 0.35998 0.51946 0.0
C192 C 0.27766 0.28985 0.54602 0.0
C193 C 0.22856 0.27633 0.51973 0.0
C194 C 0.23833 0.30477 0.4932 0.0
C195 C 0.29438 0.34561 0.49299 0.0
H196 H 0.79411 0.86885 0.47229 0.0
H197 H 0.86323 0.84231 0.56671 0.0
H198 H 0.69658 0.79821 0.47233 0.0
H199 H 0.76898 0.76922 0.5664 0.0
H200 H 0.52985 0.66912 0.56581 0.0
H201 H 0.62342 0.74249 0.56589 0.0
H202 H 0.6861 0.71341 0.47243 0.0
H203 H 0.58922 0.64247 0.47196 0.0
C204 C 0.79022 0.84709 0.49292 0.0
C205 C 0.83705 0.86112 0.51946 0.0
C206 C 0.73407 0.80627 0.49295 0.0
C207 C 0.72423 0.77755 0.51937 0.0
C208 C 0.77315 0.79083 0.54575 0.0
C209 C 0.8283 0.83237 0.54585 0.0
C210 C 0.56247 0.6791 0.54516 0.0
C211 C 0.55131 0.65018 0.51882 0.0
C212 C 0.61723 0.7208 0.54529 0.0
C213 C 0.66332 0.73411 0.51921 0.0
C214 C 0.65084 0.70531 0.49281 0.0
C215 C 0.59508 0.66431 0.49254 0.0
H216 H 0.23265 0.05254 0.97551 0.0
H217 H 0.22782 1.0035 0.06891 0.0
H218 H 0.39034 0.0385 0.97545 0.0
H219 H 0.38258 0.98629 0.06835 0.0
H220 H 0.67482 1.00206 0.06867 0.0
H221 H 0.52004 0.01893 0.06884 0.0
H222 H 0.49626 0.97594 0.97432 0.0
H223 H 0.65402 0.96227 0.97374 0.0
C224 C 0.26546 0.03924 0.99608 0.0
C225 C 0.218 0.02967 0.02228 0.0
C226 C 0.35558 0.03035 0.99594 0.0
C227 C 0.3997 0.01074 0.02181 0.0
C228 C 0.35191 1.00226 0.04814 0.0
C229 C 0.26264 0.01218 0.04849 0.0
C230 C 0.63658 0.99537 0.04799 0.0
C231 C 0.67678 0.98062 0.02118 0.0
C232 C 0.54722 1.00505 0.04808 0.0
C233 C 0.4949 0.99908 0.02156 0.0
C234 C 0.53457 0.98213 0.99502 0.0
C235 C 0.62477 0.97346 0.99476 0.0
H236 H 0.23838 0.96258 0.56726 0.0
H237 H 0.21758 1.00229 0.4722 0.0
H238 H 0.39611 0.97633 0.56663 0.0
H239 H 0.37229 0.0193 0.472 0.0
H240 H 0.66447 1.00424 0.47188 0.0
H241 H 0.50975 0.98695 0.47251 0.0
H242 H 0.50223 0.03865 0.56538 0.0
H243 H 0.6599 0.0527 0.56526 0.0
C244 C 0.26762 0.97376 0.5462 0.0
C245 C 0.2156 0.98085 0.51975 0.0
C246 C 0.35781 0.98249 0.54592 0.0
C247 C 0.39749 0.99945 0.51933 0.0
C248 C 0.34515 0.0054 0.49279 0.0
C249 C 0.25581 0.99563 0.49291 0.0
C250 C 0.62971 0.01279 0.49231 0.0
C251 C 0.67443 0.03015 0.51849 0.0
C252 C 0.54044 1.00283 0.4927 0.0
C253 C 0.49271 0.01115 0.51904 0.0
C254 C 0.53691 0.03062 0.54488 0.0
C255 C 0.62704 0.03953 0.5447 0.0
H256 H 0.73294 0.55202 0.97637 0.0
H257 H 0.7281 0.50308 0.0698 0.0
H258 H 0.89072 0.53848 0.9764 0.0
H259 H 0.88314 0.48637 0.06933 0.0
H260 H 0.17542 0.5033 0.06945 0.0
H261 H 0.02041 0.51971 0.06971 0.0
H262 H -0.00367 0.47572 0.97537 0.0
H263 H 0.15415 0.46248 0.97468 0.0
C264 C 0.7658 0.53883 0.99696 0.0
C265 C 0.71839 0.52912 0.02314 0.0
C266 C 0.85594 0.53024 0.99687 0.0
C267 C 0.90006 0.51079 0.02277 0.0
C268 C 0.85234 0.5022 0.0491 0.0
C269 C 0.76298 0.51183 0.04939 0.0
C270 C 0.13702 0.49629 0.04884 0.0
C271 C 0.17704 0.48141 0.02204 0.0
C272 C 0.04761 0.50572 0.04899 0.0
C273 C -0.00478 0.49934 0.02253 0.0
C274 C 0.03476 0.48223 0.99601 0.0
C275 C 0.12496 0.47383 0.99569 0.0
H276 H 0.17323 0.50782 0.56746 0.0
H277 H 0.1538 0.5469 0.47225 0.0
H278 H 0.01837 0.49163 0.56757 0.0
H279 H -0.00421 0.53389 0.47279 0.0
H280 H 0.73128 0.45755 0.47486 0.0
H281 H 0.88914 0.47117 0.47452 0.0
H282 H 0.88218 0.5262 0.56667 0.0
H283 H 0.72743 0.50942 0.56759 0.0
C284 C 0.13532 0.51444 0.54669 0.0
C285 C 0.17587 0.52878 0.51983 0.0
C286 C 0.04593 0.50518 0.54676 0.0
C287 C -0.00603 0.51125 0.52016 0.0
C288 C 0.03395 0.52773 0.49354 0.0
C289 C 0.12424 0.536 0.49331 0.0
C290 C 0.76431 0.47141 0.49521 0.0
C291 C 0.71718 0.48189 0.52132 0.0
C292 C 0.85446 0.48003 0.49489 0.0
C293 C 0.89875 0.5002 0.52049 0.0
C294 C 0.85125 0.50973 0.54671 0.0
C295 C 0.76201 0.50008 0.54725 0.0
H296 H 0.81137 0.03365 0.34519 0.0
H297 H 0.07587 0.97747 0.34905 0.0
H298 H 0.81395 0.03446 0.28981 0.0
H299 H 0.07734 0.97666 0.2937 0.0
H300 H 0.08159 0.03297 0.19554 0.0
H301 H 0.07895 0.03421 0.2509 0.0
H302 H 0.81543 0.97656 0.24731 0.0
H303 H 0.81695 0.97695 0.19195 0.0
C304 C 0.87013 0.02156 0.33423 0.0
C305 C 0.94343 0.00552 0.35157 0.0
C306 C 0.87126 0.02151 0.30248 0.0
C307 C 0.94581 0.00555 0.28732 0.0
C308 C 0.01917 0.98964 0.30466 0.0
C309 C 0.01796 0.98957 0.33639 0.0
C310 C 0.0228 0.021 0.20655 0.0
C311 C -0.05053 1.00489 0.1893 0.0
C312 C 0.02163 0.02119 0.2383 0.0
C313 C -0.05298 0.00542 0.25354 0.0
C314 C 0.87363 0.98941 0.23628 0.0
C315 C 0.87488 0.98909 0.20455 0.0
H316 H 0.81462 0.97497 0.84545 0.0
H317 H 0.07437 0.03805 0.84882 0.0
H318 H 0.81656 0.97459 0.7901 0.0
H319 H 0.07577 0.0381 0.79348 0.0
H320 H 0.00438 0.07936 0.69429 0.0
H321 H 0.00344 0.07956 0.74966 0.0
H322 H 0.89186 0.93247 0.74878 0.0
H323 H 0.89357 0.93196 0.69345 0.0
C324 C 0.87242 0.9884 0.83443 0.0
C325 C 0.94435 0.00653 0.85165 0.0
C326 C 0.87346 0.98823 0.80269 0.0
C327 C 0.94632 0.00632 0.78738 0.0
C328 C 0.01814 0.02457 0.80456 0.0
C329 C 0.01724 0.02459 0.83631 0.0
C330 C -0.01947 0.04682 0.70589 0.0
C331 C -0.05099 0.00565 0.68935 0.0
C332 C -0.02011 0.04699 0.73764 0.0
C333 C -0.05256 0.00607 0.75363 0.0
C334 C 0.91603 0.96489 0.73713 0.0
C335 C 0.91695 0.96464 0.70539 0.0
H336 H 0.31248 0.53178 0.34505 0.0
H337 H 0.57756 0.47643 0.34892 0.0
H338 H 0.3151 0.53271 0.2897 0.0
H339 H 0.57902 0.47563 0.29357 0.0
H340 H 0.58233 0.53273 0.19559 0.0
H341 H 0.57986 0.53367 0.25095 0.0
H342 H 0.31731 0.47454 0.24736 0.0
H343 H 0.31858 0.47532 0.19201 0.0
C344 C 0.37134 0.51989 0.33408 0.0
C345 C 0.44483 0.50407 0.35138 0.0
C346 C 0.3725 0.51989 0.30237 0.0
C347 C 0.44722 0.50417 0.28724 0.0
C348 C 0.52075 0.48842 0.30454 0.0
C349 C 0.51955 0.48834 0.33625 0.0
C350 C 0.5238 0.52038 0.20662 0.0
C351 C 0.45063 0.50399 0.1894 0.0
C352 C 0.52274 0.5204 0.23834 0.0
C353 C 0.44842 0.50412 0.25354 0.0
C354 C 0.37525 0.48777 0.23632 0.0
C355 C 0.37636 0.48768 0.20461 0.0
H356 H 0.48088 0.42825 0.6944 0.0
H357 H 0.41794 0.5847 0.6932 0.0
H358 H 0.48468 0.42919 0.74918 0.0
H359 H 0.40985 0.58392 0.74776 0.0
H360 H 0.47643 0.58479 0.84722 0.0
H361 H 0.48434 0.58377 0.79265 0.0
H362 H 0.40638 0.42952 0.79186 0.0
H363 H 0.41037 0.42874 0.84664 0.0
C364 C 0.46752 0.46295 0.70563 0.0
C365 C 0.44949 0.50645 0.68886 0.0
C366 C 0.46766 0.4632 0.73736 0.0
C367 C 0.44702 0.50656 0.75339 0.0
C368 C 0.4278 0.54987 0.7366 0.0
C369 C 0.43044 0.55003 0.70493 0.0
C370 C 0.46319 0.55016 0.83563 0.0
C371 C 0.44335 0.50676 0.85187 0.0
C372 C 0.46572 0.54988 0.80395 0.0
C373 C 0.4456 0.50663 0.78734 0.0
C374 C 0.42412 0.46346 0.80354 0.0
C375 C 0.42437 0.46332 0.83527 0.0
loop_
_geom_bond_atom_site_label_1
_geom_bond_atom_site_label_2
_geom_bond_distance
_geom_bond_site_symmetry_2
_ccdc_geom_bond_type
C0 O16 1.251 1_554 S
C0 O18 1.254 . S
N1 C2 1.335 1_655 S
N1 C6 1.304 1_545 S
N1 Zn7 2.020 1_545 S
C2 N1 1.335 1_455 S
C2 C3 1.379 . S
C2 H20 0.952 . S
C3 C2 1.379 . S
C3 C4 1.390 1_455 S
C3 H30 0.949 . S
C4 C3 1.390 1_655 S
C4 C5 1.357 1_545 S
C5 C4 1.357 1_565 S
C5 C6 1.370 . S
C5 H31 0.950 . S
C6 N1 1.304 1_565 S
C6 C5 1.370 . S
C6 H24 0.948 . S
Zn7 N1 2.020 1_565 S
Zn7 O16 2.039 1_665 S
Zn7 O22 2.034 1_565 S
Zn7 O26 2.025 . S
Zn7 O28 2.024 1_655 S
C8 O27 1.246 . S
C8 O28 1.249 1_554 S
N9 C10 1.307 1_565 S
N9 C11 1.333 1_455 S
N9 Zn15 2.020 1_565 S
C10 N9 1.307 1_545 S
C10 C14 1.370 . S
C10 H21 0.948 . S
C11 N9 1.333 1_655 S
C11 C12 1.379 . S
C11 H19 0.952 . S
C12 C11 1.379 . S
C12 C13 1.390 1_655 S
C12 H32 0.949 . S
C13 C12 1.390 1_455 S
C13 C14 1.357 1_565 S
C14 C10 1.370 . S
C14 C13 1.357 1_545 S
C14 H33 0.950 . S
Zn15 N9 2.020 1_545 S
Zn15 O18 2.025 . S
Zn15 O23 2.024 1_455 S
Zn15 O25 2.039 1_445 S
Zn15 O27 2.034 1_545 S
O16 C0 1.251 1_556 S
O16 Zn7 2.039 1_445 S
C17 O22 1.246 1_554 S
C17 O23 1.249 . S
O18 C0 1.254 . S
O18 Zn15 2.025 . S
H19 C11 0.952 . S
H20 C2 0.952 . S
H21 C10 0.948 . S
O22 Zn7 2.034 1_545 S
O22 C17 1.246 1_556 S
O23 Zn15 2.024 1_655 S
O23 C17 1.249 . S
H24 C6 0.948 . S
O25 Zn15 2.039 1_665 S
O25 C29 1.251 . S
O26 Zn7 2.025 . S
O26 C29 1.254 1_556 S
O27 C8 1.246 . S
O27 Zn15 2.034 1_565 S
O28 Zn7 2.024 1_455 S
O28 C8 1.249 1_556 S
C29 O25 1.251 . S
C29 O26 1.254 1_554 S
H30 C3 0.949 . S
H31 C5 0.950 . S
H32 C12 0.949 . S
H33 C14 0.950 . S
C34 O50 1.251 . S
C34 O52 1.254 . S
N35 C36 1.335 1_455 S
N35 C40 1.304 1_545 S
N35 Zn41 2.020 1_545 S
C36 N35 1.335 1_655 S
C36 C37 1.379 . S
C36 H54 0.952 . S
C37 C36 1.379 . S
C37 C38 1.390 1_655 S
C37 H64 0.949 . S
C38 C37 1.390 1_455 S
C38 C39 1.357 1_545 S
C39 C38 1.357 1_565 S
C39 C40 1.370 . S
C39 H65 0.950 . S
C40 N35 1.304 1_565 S
C40 C39 1.370 . S
C40 H58 0.948 . S
Zn41 N35 2.020 1_565 S
Zn41 O50 2.039 1_465 S
Zn41 O56 2.034 1_565 S
Zn41 O60 2.025 . S
Zn41 O62 2.024 1_455 S
C42 O61 1.246 . S
C42 O62 1.249 . S
N43 C44 1.307 1_565 S
N43 C45 1.333 1_655 S
N43 Zn49 2.020 1_565 S
C44 N43 1.307 1_545 S
C44 C48 1.370 . S
C44 H55 0.948 . S
C45 N43 1.333 1_455 S
C45 C46 1.379 . S
C45 H53 0.952 . S
C46 C45 1.379 . S
C46 C47 1.390 1_455 S
C46 H66 0.949 . S
C47 C46 1.390 1_655 S
C47 C48 1.357 1_565 S
C48 C44 1.370 . S
C48 C47 1.357 1_545 S
C48 H67 0.950 . S
Zn49 N43 2.020 1_545 S
Zn49 O52 2.025 . S
Zn49 O57 2.024 1_655 S
Zn49 O59 2.039 1_645 S
Zn49 O61 2.034 1_545 S
O50 C34 1.251 . S
O50 Zn41 2.039 1_645 S
C51 O56 1.246 . S
C51 O57 1.249 . S
O52 C34 1.254 . S
O52 Zn49 2.025 . S
H53 C45 0.952 . S
H54 C36 0.952 . S
H55 C44 0.948 . S
O56 Zn41 2.034 1_545 S
O56 C51 1.246 . S
O57 Zn49 2.024 1_455 S
O57 C51 1.249 . S
H58 C40 0.948 . S
O59 Zn49 2.039 1_465 S
O59 C63 1.251 . S
O60 Zn41 2.025 . S
O60 C63 1.254 . S
O61 C42 1.246 . S
O61 Zn49 2.034 1_565 S
O62 Zn41 2.024 1_655 S
O62 C42 1.249 . S
C63 O59 1.251 . S
C63 O60 1.254 . S
H64 C37 0.949 . S
H65 C39 0.950 . S
H66 C46 0.949 . S
H67 C48 0.950 . S
C68 O84 1.251 1_554 S
C68 O86 1.254 . S
N69 C70 1.333 . S
N69 C74 1.307 . S
N69 Zn75 2.020 . S
C70 N69 1.333 . S
C70 C71 1.379 . S
C70 H88 0.952 . S
C71 C70 1.379 . S
C71 C72 1.390 . S
C71 H98 0.949 . S
C72 C71 1.390 . S
C72 C73 1.357 . S
C73 C72 1.357 . S
C73 C74 1.370 . S
C73 H99 0.950 . S
C74 N69 1.307 . S
C74 C73 1.370 . S
C74 H92 0.948 . S
Zn75 N69 2.020 . S
Zn75 O84 2.039 . S
Zn75 O90 2.034 . S
Zn75 O94 2.025 . S
Zn75 O96 2.024 . S
C76 O95 1.246 . S
C76 O96 1.249 1_554 S
N77 C78 1.307 . S
N77 C79 1.333 . S
N77 Zn83 2.020 . S
C78 N77 1.307 . S
C78 C82 1.370 . S
C78 H89 0.948 . S
C79 N77 1.333 . S
C79 C80 1.379 . S
C79 H87 0.952 . S
C80 C79 1.379 . S
C80 C81 1.390 . S
C80 H100 0.949 . S
C81 C80 1.390 . S
C81 C82 1.357 . S
C82 C78 1.370 . S
C82 C81 1.357 . S
C82 H101 0.950 . S
Zn83 N77 2.020 . S
Zn83 O86 2.025 . S
Zn83 O91 2.024 . S
Zn83 O93 2.039 . S
Zn83 O95 2.034 . S
O84 C68 1.251 1_556 S
O84 Zn75 2.039 . S
C85 O90 1.246 1_554 S
C85 O91 1.249 . S
O86 C68 1.254 . S
O86 Zn83 2.025 . S
H87 C79 0.952 . S
H88 C70 0.952 . S
H89 C78 0.948 . S
O90 Zn75 2.034 . S
O90 C85 1.246 1_556 S
O91 Zn83 2.024 . S
O91 C85 1.249 . S
H92 C74 0.948 . S
O93 Zn83 2.039 . S
O93 C97 1.251 . S
O94 Zn75 2.025 . S
O94 C97 1.254 1_556 S
O95 C76 1.246 . S
O95 Zn83 2.034 . S
O96 Zn75 2.024 . S
O96 C76 1.249 1_556 S
C97 O93 1.251 . S
C97 O94 1.254 1_554 S
H98 C71 0.949 . S
H99 C73 0.950 . S
H100 C80 0.949 . S
H101 C82 0.950 . S
C102 O118 1.251 . S
C102 O120 1.254 . S
N103 C104 1.333 . S
N103 C108 1.307 . S
N103 Zn109 2.020 . S
C104 N103 1.333 . S
C104 C105 1.379 . S
C104 H122 0.952 . S
C105 C104 1.379 . S
C105 C106 1.390 . S
C105 H132 0.949 . S
C106 C105 1.390 . S
C106 C107 1.357 . S
C107 C106 1.357 . S
C107 C108 1.370 . S
C107 H133 0.950 . S
C108 N103 1.307 . S
C108 C107 1.370 . S
C108 H126 0.948 . S
Zn109 N103 2.020 . S
Zn109 O118 2.039 . S
Zn109 O124 2.034 . S
Zn109 O128 2.025 . S
Zn109 O130 2.024 . S
C110 O129 1.246 . S
C110 O130 1.249 . S
N111 C112 1.307 . S
N111 C113 1.333 . S
N111 Zn117 2.020 . S
C112 N111 1.307 . S
C112 C116 1.370 . S
C112 H123 0.948 . S
C113 N111 1.333 . S
C113 C114 1.379 . S
C113 H121 0.952 . S
C114 C113 1.379 . S
C114 C115 1.390 . S
C114 H134 0.949 . S
C115 C114 1.390 . S
C115 C116 1.357 . S
C116 C112 1.370 . S
C116 C115 1.357 . S
C116 H135 0.950 . S
Zn117 N111 2.020 . S
Zn117 O120 2.025 . S
Zn117 O125 2.024 . S
Zn117 O127 2.039 . S
Zn117 O129 2.034 . S
O118 C102 1.251 . S
O118 Zn109 2.039 . S
C119 O124 1.246 . S
C119 O125 1.249 . S
O120 C102 1.254 . S
O120 Zn117 2.025 . S
H121 C113 0.952 . S
H122 C104 0.952 . S
H123 C112 0.948 . S
O124 Zn109 2.034 . S
O124 C119 1.246 . S
O125 Zn117 2.024 . S
O125 C119 1.249 . S
H126 C108 0.948 . S
O127 Zn117 2.039 . S
O127 C131 1.251 . S
O128 Zn109 2.025 . S
O128 C131 1.254 . S
O129 C110 1.246 . S
O129 Zn117 2.034 . S
O130 Zn109 2.024 . S
O130 C110 1.249 . S
C131 O127 1.251 . S
C131 O128 1.254 . S
H132 C105 0.949 . S
H133 C107 0.950 . S
H134 C114 0.949 . S
H135 C116 0.950 . S
H136 C144 0.950 . S
H137 C149 0.950 . S
H138 C146 0.950 . S
H139 C148 0.950 . S
H140 C150 0.950 . S
H141 C152 0.950 . S
H142 C154 0.950 . S
H143 C155 0.950 . S
C144 H136 0.950 . S
C144 C145 1.386 . S
C144 C146 1.391 . S
C145 C144 1.386 . S
C145 C149 1.393 1_554 S
C146 H138 0.950 . S
C146 C144 1.391 . S
C146 C147 1.400 . S
C147 C146 1.400 . S
C147 C148 1.398 1_554 S
C147 C153 1.491 . S
C148 H139 0.950 . S
C148 C147 1.398 1_556 S
C148 C149 1.391 . S
C149 H137 0.950 . S
C149 C145 1.393 1_556 S
C149 C148 1.391 . S
C150 H140 0.950 . S
C150 C151 1.386 1_556 S
C150 C152 1.391 . S
C151 C150 1.386 1_554 S
C151 C155 1.393 . S
C152 H141 0.950 . S
C152 C150 1.391 . S
C152 C153 1.400 1_556 S
C153 C147 1.491 . S
C153 C152 1.400 1_554 S
C153 C154 1.398 . S
C154 H142 0.950 . S
C154 C153 1.398 . S
C154 C155 1.391 . S
C155 H143 0.950 . S
C155 C151 1.393 . S
C155 C154 1.391 . S
H156 C164 0.950 . S
H157 C169 0.950 . S
H158 C166 0.950 . S
H159 C168 0.950 . S
H160 C170 0.950 . S
H161 C172 0.950 . S
H162 C174 0.950 . S
H163 C175 0.950 . S
C164 H156 0.950 . S
C164 C165 1.386 . S
C164 C166 1.391 . S
C165 C164 1.386 . S
C165 C169 1.393 1_554 S
C166 H158 0.950 . S
C166 C164 1.391 . S
C166 C167 1.400 . S
C167 C166 1.400 . S
C167 C168 1.398 1_554 S
C167 C173 1.491 . S
C168 H159 0.950 . S
C168 C167 1.398 1_556 S
C168 C169 1.391 . S
C169 H157 0.950 . S
C169 C165 1.393 1_556 S
C169 C168 1.391 . S
C170 H160 0.950 . S
C170 C171 1.386 1_556 S
C170 C172 1.391 . S
C171 C170 1.386 1_554 S
C171 C175 1.393 . S
C172 H161 0.950 . S
C172 C170 1.391 . S
C172 C173 1.400 1_556 S
C173 C167 1.491 . S
C173 C172 1.400 1_554 S
C173 C174 1.398 . S
C174 H162 0.950 . S
C174 C173 1.398 . S
C174 C175 1.391 . S
C175 H163 0.950 . S
C175 C171 1.393 . S
C175 C174 1.391 . S
H176 C184 0.950 . S
H177 C189 0.950 1_655 S
H178 C186 0.950 . S
H179 C188 0.950 . S
H180 C190 0.950 . S
H181 C192 0.950 . S
H182 C194 0.950 . S
H183 C195 0.950 . S
C184 H176 0.950 . S
C184 C185 1.386 . S
C184 C186 1.391 . S
C185 C184 1.386 . S
C185 C189 1.393 . S
C186 H178 0.950 . S
C186 C184 1.391 . S
C186 C187 1.400 . S
C187 C186 1.400 . S
C187 C188 1.398 . S
C187 C193 1.491 . S
C188 H179 0.950 . S
C188 C187 1.398 . S
C188 C189 1.391 . S
C189 H177 0.950 1_455 S
C189 C185 1.393 . S
C189 C188 1.391 . S
C190 H180 0.950 . S
C190 C191 1.386 . S
C190 C192 1.391 . S
C191 C190 1.386 . S
C191 C195 1.393 . S
C192 H181 0.950 . S
C192 C190 1.391 . S
C192 C193 1.400 . S
C193 C187 1.491 . S
C193 C192 1.400 . S
C193 C194 1.398 . S
C194 H182 0.950 . S
C194 C193 1.398 . S
C194 C195 1.391 . S
C195 H183 0.950 . S
C195 C191 1.393 . S
C195 C194 1.391 . S
H196 C204 0.950 . S
H197 C209 0.950 . S
H198 C206 0.950 . S
H199 C208 0.950 . S
H200 C210 0.950 . S
H201 C212 0.950 . S
H202 C214 0.950 . S
H203 C215 0.950 . S
C204 H196 0.950 . S
C204 C205 1.386 . S
C204 C206 1.391 . S
C205 C204 1.386 . S
C205 C209 1.393 . S
C206 H198 0.950 . S
C206 C204 1.391 . S
C206 C207 1.400 . S
C207 C206 1.400 . S
C207 C208 1.398 . S
C207 C213 1.491 . S
C208 H199 0.950 . S
C208 C207 1.398 . S
C208 C209 1.391 . S
C209 H197 0.950 . S
C209 C205 1.393 . S
C209 C208 1.391 . S
C210 H200 0.950 . S
C210 C211 1.386 . S
C210 C212 1.391 . S
C211 C210 1.386 . S
C211 C215 1.393 . S
C212 H201 0.950 . S
C212 C210 1.391 . S
C212 C213 1.400 . S
C213 C207 1.491 . S
C213 C212 1.400 . S
C213 C214 1.398 . S
C214 H202 0.950 . S
C214 C213 1.398 . S
C214 C215 1.391 . S
C215 H203 0.950 . S
C215 C211 1.393 . S
C215 C214 1.391 . S
H216 C224 0.950 . S
H217 C229 0.950 . S
H218 C226 0.950 . S
H219 C228 0.950 . S
H220 C230 0.950 . S
H221 C232 0.950 . S
H222 C234 0.950 . S
H223 C235 0.950 . S
C224 H216 0.950 . S
C224 C225 1.386 1_566 S
C224 C226 1.391 . S
C225 C224 1.386 1_544 S
C225 C229 1.393 . S
C226 H218 0.950 . S
C226 C224 1.391 . S
C226 C227 1.400 1_566 S
C227 C226 1.400 1_544 S
C227 C228 1.398 . S
C227 C233 1.491 1_545 S
C228 H219 0.950 . S
C228 C227 1.398 . S
C228 C229 1.391 . S
C229 H217 0.950 . S
C229 C225 1.393 . S
C229 C228 1.391 . S
C230 H220 0.950 . S
C230 C231 1.386 1_545 S
C230 C232 1.391 . S
C231 C230 1.386 1_565 S
C231 C235 1.393 1_554 S
C232 H221 0.950 . S
C232 C230 1.391 . S
C232 C233 1.400 1_545 S
C233 C227 1.491 1_565 S
C233 C232 1.400 1_565 S
C233 C234 1.398 1_554 S
C234 H222 0.950 . S
C234 C233 1.398 1_556 S
C234 C235 1.391 . S
C235 H223 0.950 . S
C235 C231 1.393 1_556 S
C235 C234 1.391 . S
H236 C244 0.950 . S
H237 C249 0.950 1_545 S
H238 C246 0.950 . S
H239 C248 0.950 . S
H240 C250 0.950 . S
H241 C252 0.950 . S
H242 C254 0.950 . S
H243 C255 0.950 1_565 S
C244 H236 0.950 . S
C244 C245 1.386 . S
C244 C246 1.391 . S
C245 C244 1.386 . S
C245 C249 1.393 . S
C246 H238 0.950 . S
C246 C244 1.391 . S
C246 C247 1.400 . S
C247 C246 1.400 . S
C247 C248 1.398 1_565 S
C247 C253 1.491 1_565 S
C248 H239 0.950 . S
C248 C247 1.398 1_545 S
C248 C249 1.391 1_545 S
C249 H237 0.950 1_565 S
C249 C245 1.393 . S
C249 C248 1.391 1_565 S
C250 H240 0.950 . S
C250 C251 1.386 . S
C250 C252 1.391 . S
C251 C250 1.386 . S
C251 C255 1.393 . S
C252 H241 0.950 . S
C252 C250 1.391 . S
C252 C253 1.400 . S
C253 C247 1.491 1_545 S
C253 C252 1.400 . S
C253 C254 1.398 1_545 S
C254 H242 0.950 . S
C254 C253 1.398 1_565 S
C254 C255 1.391 1_565 S
C255 H243 0.950 1_545 S
C255 C251 1.393 . S
C255 C254 1.391 1_545 S
H256 C264 0.950 . S
H257 C269 0.950 . S
H258 C266 0.950 . S
H259 C268 0.950 . S
H260 C270 0.950 . S
H261 C272 0.950 . S
H262 C274 0.950 . S
H263 C275 0.950 . S
C264 H256 0.950 . S
C264 C265 1.386 1_556 S
C264 C266 1.391 . S
C265 C264 1.386 1_554 S
C265 C269 1.393 . S
C266 H258 0.950 . S
C266 C264 1.391 . S
C266 C267 1.400 1_556 S
C267 C266 1.400 1_554 S
C267 C268 1.398 . S
C267 C273 1.491 1_655 S
C268 H259 0.950 . S
C268 C267 1.398 . S
C268 C269 1.391 . S
C269 H257 0.950 . S
C269 C265 1.393 . S
C269 C268 1.391 . S
C270 H260 0.950 . S
C270 C271 1.386 . S
C270 C272 1.391 . S
C271 C270 1.386 . S
C271 C275 1.393 1_554 S
C272 H261 0.950 . S
C272 C270 1.391 . S
C272 C273 1.400 . S
C273 C267 1.491 1_455 S
C273 C272 1.400 . S
C273 C274 1.398 1_554 S
C274 H262 0.950 . S
C274 C273 1.398 1_556 S
C274 C275 1.391 . S
C275 H263 0.950 . S
C275 C271 1.393 1_556 S
C275 C274 1.391 . S
H276 C284 0.950 . S
H277 C289 0.950 . S
H278 C286 0.950 . S
H279 C288 0.950 . S
H280 C290 0.950 . S
H281 C292 0.950 . S
H282 C294 0.950 . S
H283 C295 0.950 . S
C284 H276 0.950 . S
C284 C285 1.386 . S
C284 C286 1.391 . S
C285 C284 1.386 . S
C285 C289 1.393 . S
C286 H278 0.950 . S
C286 C284 1.391 . S
C286 C287 1.400 . S
C287 C286 1.400 . S
C287 C288 1.398 . S
C287 C293 1.491 1_455 S
C288 H279 0.950 . S
C288 C287 1.398 . S
C288 C289 1.391 . S
C289 H277 0.950 . S
C289 C285 1.393 . S
C289 C288 1.391 . S
C290 H280 0.950 . S
C290 C291 1.386 . S
C290 C292 1.391 . S
C291 C290 1.386 . S
C291 C295 1.393 . S
C292 H281 0.950 . S
C292 C290 1.391 . S
C292 C293 1.400 . S
C293 C287 1.491 1_655 S
C293 C292 1.400 . S
C293 C294 1.398 . S
C294 H282 0.950 . S
C294 C293 1.398 . S
C294 C295 1.391 . S
C295 H283 0.950 . S
C295 C291 1.393 . S
C295 C294 1.391 . S
H296 C304 0.951 . S
H297 C309 0.950 . S
H298 C306 0.950 . S
H299 C308 0.950 . S
H300 C310 0.950 . S
H301 C312 0.950 . S
H302 C314 0.950 . S
H303 C315 0.950 . S
C304 H296 0.951 . S
C304 C305 1.385 1_645 S
C304 C306 1.391 . S
C305 C304 1.385 1_465 S
C305 C309 1.393 . S
C306 H298 0.950 . S
C306 C304 1.391 . S
C306 C307 1.393 1_645 S
C307 C306 1.393 1_465 S
C307 C308 1.405 . S
C307 C313 1.491 1_455 S
C308 H299 0.950 . S
C308 C307 1.405 . S
C308 C309 1.391 . S
C309 H297 0.950 . S
C309 C305 1.393 . S
C309 C308 1.391 . S
C310 H300 0.950 . S
C310 C311 1.386 1_455 S
C310 C312 1.391 . S
C311 C310 1.386 1_655 S
C311 C315 1.393 . S
C312 H301 0.950 . S
C312 C310 1.391 . S
C312 C313 1.396 1_455 S
C313 C307 1.491 1_655 S
C313 C312 1.396 1_655 S
C313 C314 1.402 . S
C314 H302 0.950 . S
C314 C313 1.402 . S
C314 C315 1.391 . S
C315 H303 0.950 . S
C315 C311 1.393 . S
C315 C314 1.391 . S
H316 C324 0.950 . S
H317 C329 0.950 . S
H318 C326 0.950 . S
H319 C328 0.950 . S
H320 C330 0.950 . S
H321 C332 0.950 . S
H322 C334 0.950 . S
H323 C335 0.950 . S
C324 H316 0.950 . S
C324 C325 1.386 1_565 S
C324 C326 1.391 . S
C325 C324 1.386 1_545 S
C325 C329 1.392 1_655 S
C326 H318 0.950 . S
C326 C324 1.391 . S
C326 C327 1.404 1_565 S
C327 C326 1.404 1_545 S
C327 C328 1.395 1_655 S
C327 C333 1.490 1_655 S
C328 H319 0.950 . S
C328 C327 1.395 1_455 S
C328 C329 1.391 . S
C329 H317 0.950 . S
C329 C325 1.392 1_455 S
C329 C328 1.391 . S
C330 H320 0.950 . S
C330 C331 1.388 . S
C330 C332 1.391 . S
C331 C330 1.388 . S
C331 C335 1.390 1_445 S
C332 H321 0.950 . S
C332 C330 1.391 . S
C332 C333 1.406 . S
C333 C327 1.490 1_455 S
C333 C332 1.406 . S
C333 C334 1.393 1_445 S
C334 H322 0.950 . S
C334 C333 1.393 1_665 S
C334 C335 1.391 . S
C335 H323 0.950 . S
C335 C331 1.390 1_665 S
C335 C334 1.391 . S
H336 C344 0.950 . S
H337 C349 0.950 . S
H338 C346 0.950 . S
H339 C348 0.950 . S
H340 C350 0.950 . S
H341 C352 0.950 . S
H342 C354 0.950 . S
H343 C355 0.950 . S
C344 H336 0.950 . S
C344 C345 1.386 . S
C344 C346 1.391 . S
C345 C344 1.386 . S
C345 C349 1.393 . S
C346 H338 0.950 . S
C346 C344 1.391 . S
C346 C347 1.400 . S
C347 C346 1.400 . S
C347 C348 1.398 . S
C347 C353 1.491 . S
C348 H339 0.950 . S
C348 C347 1.398 . S
C348 C349 1.391 . S
C349 H337 0.950 . S
C349 C345 1.393 . S
C349 C348 1.391 . S
C350 H340 0.950 . S
C350 C351 1.386 . S
C350 C352 1.391 . S
C351 C350 1.386 . S
C351 C355 1.393 . S
C352 H341 0.950 . S
C352 C350 1.391 . S
C352 C353 1.400 . S
C353 C347 1.491 . S
C353 C352 1.400 . S
C353 C354 1.398 . S
C354 H342 0.950 . S
C354 C353 1.398 . S
C354 C355 1.391 . S
C355 H343 0.950 . S
C355 C351 1.393 . S
C355 C354 1.391 . S
H356 C364 0.950 . S
H357 C369 0.950 . S
H358 C366 0.950 . S
H359 C368 0.950 . S
H360 C370 0.950 . S
H361 C372 0.950 . S
H362 C374 0.950 . S
H363 C375 0.950 . S
C364 H356 0.950 . S
C364 C365 1.386 . S
C364 C366 1.391 . S
C365 C364 1.386 . S
C365 C369 1.393 . S
C366 H358 0.950 . S
C366 C364 1.391 . S
C366 C367 1.400 . S
C367 C366 1.400 . S
C367 C368 1.398 . S
C367 C373 1.491 . S
C368 H359 0.950 . S
C368 C367 1.398 . S
C368 C369 1.391 . S
C369 H357 0.950 . S
C369 C365 1.393 . S
C369 C368 1.391 . S
C370 H360 0.950 . S
C370 C371 1.386 . S
C370 C372 1.391 . S
C371 C370 1.386 . S
C371 C375 1.393 . S
C372 H361 0.950 . S
C372 C370 1.391 . S
C372 C373 1.400 . S
C373 C367 1.491 . S
C373 C372 1.400 . S
C373 C374 1.398 . S
C374 H362 0.950 . S
C374 C373 1.398 . S
C374 C375 1.391 . S
C375 H363 0.950 . S
C375 C371 1.393 . S
C375 C374 1.391 . S
C145 C85 1.593 . S
C151 C8 1.595 . S
C165 C76 1.593 . S
C171 C17 1.591 . S
C185 C51 1.589 . S
C191 C110 1.587 . S
C205 C42 1.594 . S
C211 C119 1.596 . S
C225 C0 0.795 . S
C231 C29 0.795 . S
C245 C63 0.798 . S
C251 C34 0.798 . S
C265 C68 0.798 . S
C271 C97 0.798 . S
C285 C102 0.793 . S
C291 C131 0.793 . S
C305 C47 1.498 1_455 S
C311 C13 1.499 1_655 S
C325 C4 1.498 . S
C331 C38 1.496 . S
C345 C115 1.498 . S
C351 C81 1.499 . S
C365 C106 1.495 . S
C371 C72 1.495 . S
