# Generated by pormake.
# Topology umr, (4)-cn, num edge types: 1
# Building blocks:
#     Node 0, Type 0, BuildingBlock: NAHDIM_clean_sbu_0, # of connection points: 4
#     Node 1, Type 0, BuildingBlock: NAHDIM_clean_sbu_0, # of connection points: 4
#     Node 2, Type 0, BuildingBlock: NAHDIM_clean_sbu_0, # of connection points: 4
#     Node 3, Type 0, BuildingBlock: NAHDIM_clean_sbu_0, # of connection points: 4
#     Node 4, Type 0, BuildingBlock: NAHDIM_clean_sbu_0, # of connection points: 4
#     Node 5, Type 0, BuildingBlock: NAHDIM_clean_sbu_0, # of connection points: 4
#     Node 6, Type 0, BuildingBlock: NAHDIM_clean_sbu_0, # of connection points: 4
#     Node 7, Type 0, BuildingBlock: NAHDIM_clean_sbu_0, # of connection points: 4
#     Node 8, Type 0, BuildingBlock: NAHDIM_clean_sbu_0, # of connection points: 4
#     Node 9, Type 0, BuildingBlock: NAHDIM_clean_sbu_0, # of connection points: 4
#     Node 10, Type 0, BuildingBlock: NAHDIM_clean_sbu_0, # of connection points: 4
#     Node 11, Type 0, BuildingBlock: NAHDIM_clean_sbu_0, # of connection points: 4
#     Node 12, Type 0, BuildingBlock: NAHDIM_clean_sbu_0, # of connection points: 4
#     Node 13, Type 0, BuildingBlock: NAHDIM_clean_sbu_0, # of connection points: 4
#     Node 14, Type 0, BuildingBlock: NAHDIM_clean_sbu_0, # of connection points: 4
#     Node 15, Type 0, BuildingBlock: NAHDIM_clean_sbu_0, # of connection points: 4
#     Node 16, Type 0, BuildingBlock: NAHDIM_clean_sbu_0, # of connection points: 4
#     Node 17, Type 0, BuildingBlock: NAHDIM_clean_sbu_0, # of connection points: 4
#     Node 18, Type 0, BuildingBlock: NAHDIM_clean_sbu_0, # of connection points: 4
#     Node 19, Type 0, BuildingBlock: NAHDIM_clean_sbu_0, # of connection points: 4
#     Node 20, Type 0, BuildingBlock: NAHDIM_clean_sbu_0, # of connection points: 4
#     Node 21, Type 0, BuildingBlock: NAHDIM_clean_sbu_0, # of connection points: 4
#     Node 22, Type 0, BuildingBlock: NAHDIM_clean_sbu_0, # of connection points: 4
#     Node 23, Type 0, BuildingBlock: NAHDIM_clean_sbu_0, # of connection points: 4
#     Node 24, Type 0, BuildingBlock: NAHDIM_clean_sbu_0, # of connection points: 4
#     Node 25, Type 0, BuildingBlock: NAHDIM_clean_sbu_0, # of connection points: 4
#     Node 26, Type 0, BuildingBlock: NAHDIM_clean_sbu_0, # of connection points: 4
#     Node 27, Type 0, BuildingBlock: NAHDIM_clean_sbu_0, # of connection points: 4
#     Node 28, Type 0, BuildingBlock: NAHDIM_clean_sbu_0, # of connection points: 4
#     Node 29, Type 0, BuildingBlock: NAHDIM_clean_sbu_0, # of connection points: 4
#     Node 30, Type 0, BuildingBlock: NAHDIM_clean_sbu_0, # of connection points: 4
#     Node 31, Type 0, BuildingBlock: NAHDIM_clean_sbu_0, # of connection points: 4
#     Edge 32, Type (0, 0), BuildingBlock: XUDNAN_clean_linker_2, # of connection points: 2
#     Edge 33, Type (0, 0), BuildingBlock: XUDNAN_clean_linker_2, # of connection points: 2
#     Edge 34, Type (0, 0), BuildingBlock: XUDNAN_clean_linker_2, # of connection points: 2
#     Edge 35, Type (0, 0), BuildingBlock: XUDNAN_clean_linker_2, # of connection points: 2
#     Edge 36, Type (0, 0), BuildingBlock: XUDNAN_clean_linker_2, # of connection points: 2
#     Edge 37, Type (0, 0), BuildingBlock: XUDNAN_clean_linker_2, # of connection points: 2
#     Edge 38, Type (0, 0), BuildingBlock: XUDNAN_clean_linker_2, # of connection points: 2
#     Edge 39, Type (0, 0), BuildingBlock: XUDNAN_clean_linker_2, # of connection points: 2
#     Edge 40, Type (0, 0), BuildingBlock: XUDNAN_clean_linker_2, # of connection points: 2
#     Edge 41, Type (0, 0), BuildingBlock: XUDNAN_clean_linker_2, # of connection points: 2
#     Edge 42, Type (0, 0), BuildingBlock: XUDNAN_clean_linker_2, # of connection points: 2
#     Edge 43, Type (0, 0), BuildingBlock: XUDNAN_clean_linker_2, # of connection points: 2
#     Edge 44, Type (0, 0), BuildingBlock: XUDNAN_clean_linker_2, # of connection points: 2
#     Edge 45, Type (0, 0), BuildingBlock: XUDNAN_clean_linker_2, # of connection points: 2
#     Edge 46, Type (0, 0), BuildingBlock: XUDNAN_clean_linker_2, # of connection points: 2
#     Edge 47, Type (0, 0), BuildingBlock: XUDNAN_clean_linker_2, # of connection points: 2
#     Edge 48, Type (0, 0), BuildingBlock: XUDNAN_clean_linker_2, # of connection points: 2
#     Edge 49, Type (0, 0), BuildingBlock: XUDNAN_clean_linker_2, # of connection points: 2
#     Edge 50, Type (0, 0), BuildingBlock: XUDNAN_clean_linker_2, # of connection points: 2
#     Edge 51, Type (0, 0), BuildingBlock: XUDNAN_clean_linker_2, # of connection points: 2
#     Edge 52, Type (0, 0), BuildingBlock: XUDNAN_clean_linker_2, # of connection points: 2
#     Edge 53, Type (0, 0), BuildingBlock: XUDNAN_clean_linker_2, # of connection points: 2
#     Edge 54, Type (0, 0), BuildingBlock: XUDNAN_clean_linker_2, # of connection points: 2
#     Edge 55, Type (0, 0), BuildingBlock: XUDNAN_clean_linker_2, # of connection points: 2
#     Edge 56, Type (0, 0), BuildingBlock: XUDNAN_clean_linker_2, # of connection points: 2
#     Edge 57, Type (0, 0), BuildingBlock: XUDNAN_clean_linker_2, # of connection points: 2
#     Edge 58, Type (0, 0), BuildingBlock: XUDNAN_clean_linker_2, # of connection points: 2
#     Edge 59, Type (0, 0), BuildingBlock: XUDNAN_clean_linker_2, # of connection points: 2
#     Edge 60, Type (0, 0), BuildingBlock: XUDNAN_clean_linker_2, # of connection points: 2
#     Edge 61, Type (0, 0), BuildingBlock: XUDNAN_clean_linker_2, # of connection points: 2
#     Edge 62, Type (0, 0), BuildingBlock: XUDNAN_clean_linker_2, # of connection points: 2
#     Edge 63, Type (0, 0), BuildingBlock: XUDNAN_clean_linker_2, # of connection points: 2
#     Edge 64, Type (0, 0), BuildingBlock: XUDNAN_clean_linker_2, # of connection points: 2
#     Edge 65, Type (0, 0), BuildingBlock: XUDNAN_clean_linker_2, # of connection points: 2
#     Edge 66, Type (0, 0), BuildingBlock: XUDNAN_clean_linker_2, # of connection points: 2
#     Edge 67, Type (0, 0), BuildingBlock: XUDNAN_clean_linker_2, # of connection points: 2
#     Edge 68, Type (0, 0), BuildingBlock: XUDNAN_clean_linker_2, # of connection points: 2
#     Edge 69, Type (0, 0), BuildingBlock: XUDNAN_clean_linker_2, # of connection points: 2
#     Edge 70, Type (0, 0), BuildingBlock: XUDNAN_clean_linker_2, # of connection points: 2
#     Edge 71, Type (0, 0), BuildingBlock: XUDNAN_clean_linker_2, # of connection points: 2
#     Edge 72, Type (0, 0), BuildingBlock: XUDNAN_clean_linker_2, # of connection points: 2
#     Edge 73, Type (0, 0), BuildingBlock: XUDNAN_clean_linker_2, # of connection points: 2
#     Edge 74, Type (0, 0), BuildingBlock: XUDNAN_clean_linker_2, # of connection points: 2
#     Edge 75, Type (0, 0), BuildingBlock: XUDNAN_clean_linker_2, # of connection points: 2
#     Edge 76, Type (0, 0), BuildingBlock: XUDNAN_clean_linker_2, # of connection points: 2
#     Edge 77, Type (0, 0), BuildingBlock: XUDNAN_clean_linker_2, # of connection points: 2
#     Edge 78, Type (0, 0), BuildingBlock: XUDNAN_clean_linker_2, # of connection points: 2
#     Edge 79, Type (0, 0), BuildingBlock: XUDNAN_clean_linker_2, # of connection points: 2
#     Edge 80, Type (0, 0), BuildingBlock: XUDNAN_clean_linker_2, # of connection points: 2
#     Edge 81, Type (0, 0), BuildingBlock: XUDNAN_clean_linker_2, # of connection points: 2
#     Edge 82, Type (0, 0), BuildingBlock: XUDNAN_clean_linker_2, # of connection points: 2
#     Edge 83, Type (0, 0), BuildingBlock: XUDNAN_clean_linker_2, # of connection points: 2
#     Edge 84, Type (0, 0), BuildingBlock: XUDNAN_clean_linker_2, # of connection points: 2
#     Edge 85, Type (0, 0), BuildingBlock: XUDNAN_clean_linker_2, # of connection points: 2
#     Edge 86, Type (0, 0), BuildingBlock: XUDNAN_clean_linker_2, # of connection points: 2
#     Edge 87, Type (0, 0), BuildingBlock: XUDNAN_clean_linker_2, # of connection points: 2
#     Edge 88, Type (0, 0), BuildingBlock: XUDNAN_clean_linker_2, # of connection points: 2
#     Edge 89, Type (0, 0), BuildingBlock: XUDNAN_clean_linker_2, # of connection points: 2
#     Edge 90, Type (0, 0), BuildingBlock: XUDNAN_clean_linker_2, # of connection points: 2
#     Edge 91, Type (0, 0), BuildingBlock: XUDNAN_clean_linker_2, # of connection points: 2
#     Edge 92, Type (0, 0), BuildingBlock: XUDNAN_clean_linker_2, # of connection points: 2
#     Edge 93, Type (0, 0), BuildingBlock: XUDNAN_clean_linker_2, # of connection points: 2
#     Edge 94, Type (0, 0), BuildingBlock: XUDNAN_clean_linker_2, # of connection points: 2
#     Edge 95, Type (0, 0), BuildingBlock: XUDNAN_clean_linker_2, # of connection points: 2
# Relax obj value: 0.123
# Max RMSD: 0.119
# Mean RMSD: 0.119
data_MOF--net-umr--node1-NAHDIM_clean_sbu_0--edge1-XUDNAN_clean_linker_2
_symmetry_space_group_name_H-M    P1
_symmetry_Int_Tables_number       1
_symmetry_cell_setting            triclinic
loop_
_symmetry_equiv_pos_as_xyz
'x, y, z'
_cell_length_a     88.057178
_cell_length_b     88.097124
_cell_length_c     24.027393
_cell_angle_alpha  89.978467
_cell_angle_beta   90.008929
_cell_angle_gamma 90.020497
loop_
_atom_site_label
_atom_site_type_symbol
_atom_site_fract_x
_atom_site_fract_y
_atom_site_fract_z
_atom_type_partial_charge
C0 C 0.14505 0.32128 0.06941 0.0
O1 O 0.13817 0.30823 0.0613 0.0
O2 O 0.16443 0.29791 0.95682 0.0
Zn3 Zn 0.16992 0.30335 0.03581 0.0
O4 O 0.16325 0.28666 0.08814 0.0
C5 C 0.20154 0.29636 0.02483 0.0
O6 O 0.19602 0.28303 0.01109 0.0
O7 O 0.15917 0.32229 0.05936 0.0
C8 C 0.17102 0.28181 0.12895 0.0
O9 O 0.18453 0.28759 0.13835 0.0
C10 C 0.16221 0.2841 0.94389 0.0
O11 O 0.16292 0.27369 0.98295 0.0
O12 O 0.19246 0.3069 0.03866 0.0
C13 C 0.93317 0.89671 0.31817 0.0
O14 O 0.94664 0.89103 0.30705 0.0
O15 O 0.95663 0.92007 0.22029 0.0
Zn16 Zn 0.94972 0.92355 0.2993 0.0
O17 O 0.96548 0.91665 0.35449 0.0
C18 C 0.95052 0.95572 0.27896 0.0
O19 O 0.96051 0.95159 0.2413 0.0
O20 O 0.93129 0.91098 0.31524 0.0
C21 C 0.97475 0.92506 0.38073 0.0
O22 O 0.97486 0.93974 0.37114 0.0
C23 C 0.97022 0.91646 0.20829 0.0
O24 O 0.98005 0.91432 0.24865 0.0
O25 O 0.94452 0.94566 0.30985 0.0
C26 C 0.33784 0.67432 0.53854 0.0
O27 O 0.34422 0.68746 0.54962 0.0
O28 O 0.31948 0.70696 0.45609 0.0
Zn29 Zn 0.31314 0.6941 0.52139 0.0
O30 O 0.31812 0.70421 0.59423 0.0
C31 C 0.28583 0.68321 0.4729 0.0
O32 O 0.29562 0.6779 0.43652 0.0
O33 O 0.32413 0.6741 0.52218 0.0
C34 C 0.31499 0.71768 0.60912 0.0
O35 O 0.30738 0.72657 0.57519 0.0
C36 C 0.33032 0.71648 0.45694 0.0
O37 O 0.33844 0.71804 0.50246 0.0
O38 O 0.29073 0.6905 0.51487 0.0
C39 C 0.56906 0.09954 0.86022 0.0
O40 O 0.56327 0.08654 0.87665 0.0
O41 O 0.54068 0.10296 0.70463 0.0
Zn42 Zn 0.54653 0.09468 0.78 0.0
O43 O 0.52864 0.09394 0.83203 0.0
C44 C 0.54281 0.06421 0.74798 0.0
O45 O 0.52886 0.06925 0.742 0.0
O46 O 0.56373 0.10583 0.81676 0.0
C47 C 0.52616 0.10367 0.86996 0.0
O48 O 0.53548 0.11521 0.87578 0.0
C49 C 0.52674 0.10425 0.69157 0.0
O50 O 0.51639 0.10233 0.73028 0.0
O51 O 0.55298 0.07322 0.76568 0.0
C52 C 0.12057 0.69768 0.4873 0.0
O53 O 0.1177 0.71167 0.50307 0.0
O54 O 0.14782 0.71448 0.58942 0.0
Zn55 Zn 0.14976 0.70862 0.50904 0.0
O56 O 0.14589 0.7268 0.45997 0.0
C57 C 0.17504 0.69258 0.45668 0.0
O58 O 0.16503 0.68861 0.41881 0.0
O59 O 0.13421 0.69299 0.48828 0.0
C60 C 0.15622 0.73383 0.43349 0.0
O61 O 0.17044 0.72962 0.43951 0.0
C62 C 0.15692 0.72456 0.60722 0.0
O63 O 0.16659 0.73076 0.57229 0.0
O64 O 0.17087 0.70074 0.49746 0.0
C65 C 0.57 0.90052 0.61543 0.0
O66 O 0.55638 0.89464 0.62131 0.0
O67 O 0.53616 0.92071 0.64976 0.0
Zn68 Zn 0.5528 0.92756 0.59837 0.0
O69 O 0.54568 0.9255 0.51928 0.0
C70 C 0.54689 0.95864 0.61955 0.0
O71 O 0.533 0.95395 0.60934 0.0
O72 O 0.57132 0.91468 0.60696 0.0
C73 C 0.53164 0.92455 0.50759 0.0
O74 O 0.52158 0.92556 0.54777 0.0
C75 C 0.53608 0.92422 0.701 0.0
O76 O 0.54762 0.93178 0.72183 0.0
O77 O 0.55777 0.94924 0.616 0.0
C78 C 0.37358 0.30352 0.97857 0.0
O79 O 0.37555 0.28958 0.99668 0.0
O80 O 0.34696 0.2889 0.08583 0.0
Zn81 Zn 0.34413 0.29469 0.00557 0.0
O82 O 0.34548 0.27621 0.95632 0.0
C83 C 0.31271 0.293 0.00371 0.0
O84 O 0.31682 0.2788 0.01093 0.0
O85 O 0.36035 0.30925 0.98057 0.0
C86 C 0.34844 0.27796 0.90497 0.0
O87 O 0.35048 0.29174 0.88542 0.0
C88 C 0.35126 0.27574 0.10064 0.0
O89 O 0.35491 0.26575 0.06237 0.0
O90 O 0.32297 0.30308 0.9988 0.0
C91 C 0.94343 0.12067 0.18553 0.0
O92 O 0.95768 0.12383 0.1968 0.0
O93 O 0.96091 0.09882 0.30269 0.0
Zn94 Zn 0.95434 0.09318 0.22558 0.0
O95 O 0.9726 0.09535 0.17606 0.0
C96 C 0.93917 0.06631 0.26509 0.0
O97 O 0.93384 0.07572 0.30272 0.0
O98 O 0.93843 0.10747 0.19665 0.0
C99 C 0.97527 0.08662 0.13519 0.0
O100 O 0.96598 0.07528 0.12498 0.0
C101 C 0.9711 0.09022 0.32284 0.0
O102 O 0.97603 0.07878 0.29277 0.0
O103 O 0.94754 0.07143 0.22636 0.0
C104 C 0.8534 0.67438 0.96361 0.0
O105 O 0.85952 0.6879 0.95842 0.0
O106 O 0.83404 0.70482 0.04976 0.0
Zn107 Zn 0.828 0.693 0.98143 0.0
O108 O 0.83356 0.70436 0.91161 0.0
C109 C 0.79666 0.69861 0.00465 0.0
O110 O 0.80222 0.71179 0.02009 0.0
O111 O 0.83948 0.67336 0.9769 0.0
C112 C 0.83039 0.71794 0.89826 0.0
O113 O 0.82193 0.72622 0.93151 0.0
C114 C 0.84462 0.71464 0.0505 0.0
O115 O 0.8525 0.71718 0.00503 0.0
O116 O 0.80559 0.68863 0.98511 0.0
C117 C 0.0853 0.09728 0.73974 0.0
O118 O 0.08705 0.08716 0.7794 0.0
O119 O 0.04657 0.08435 0.79682 0.0
Zn120 Zn 0.05701 0.08161 0.72306 0.0
O121 O 0.04147 0.08392 0.66291 0.0
C122 C 0.06692 0.05204 0.76043 0.0
O123 O 0.06233 0.05708 0.80903 0.0
O124 O 0.07325 0.09713 0.71075 0.0
C125 C 0.03221 0.09498 0.66316 0.0
O126 O 0.03291 0.105 0.70357 0.0
C127 C 0.04806 0.09578 0.82857 0.0
O128 O 0.05706 0.10696 0.81368 0.0
O129 O 0.06596 0.06062 0.71807 0.0
C130 C 0.63146 0.31801 0.47915 0.0
O131 O 0.62425 0.30495 0.4785 0.0
O132 O 0.65194 0.29018 0.58554 0.0
Zn133 Zn 0.65629 0.2989 0.50952 0.0
O134 O 0.64973 0.2837 0.45182 0.0
C135 C 0.68825 0.2924 0.4938 0.0
O136 O 0.68334 0.27848 0.48631 0.0
O137 O 0.64526 0.31835 0.49436 0.0
C138 C 0.65535 0.28312 0.40326 0.0
O139 O 0.66573 0.29305 0.38853 0.0
C140 C 0.6532 0.27585 0.59001 0.0
O141 O 0.6566 0.26785 0.54563 0.0
O142 O 0.67876 0.30291 0.5039 0.0
C143 C 0.44186 0.88615 0.0793 0.0
O144 O 0.45673 0.88569 0.07481 0.0
O145 O 0.46472 0.91251 0.16084 0.0
Zn146 Zn 0.44958 0.91651 0.10003 0.0
O147 O 0.4609 0.91958 0.02838 0.0
C148 C 0.43509 0.93731 0.17249 0.0
O149 O 0.43697 0.92583 0.20675 0.0
O150 O 0.43555 0.89867 0.09176 0.0
C151 C 0.45547 0.91586 0.98134 0.0
O152 O 0.44155 0.91055 0.97845 0.0
C153 C 0.47883 0.91052 0.15244 0.0
O154 O 0.48399 0.91004 0.10119 0.0
O155 O 0.43876 0.93568 0.12166 0.0
C156 C 0.85719 0.31029 0.53222 0.0
O157 O 0.86272 0.29647 0.52926 0.0
O158 O 0.83663 0.28854 0.41142 0.0
Zn159 Zn 0.83107 0.29527 0.48886 0.0
O160 O 0.83388 0.27836 0.54431 0.0
C161 C 0.79934 0.29276 0.46697 0.0
O162 O 0.80395 0.28038 0.44173 0.0
O163 O 0.84379 0.31278 0.51484 0.0
C164 C 0.83094 0.2644 0.53644 0.0
O165 O 0.8257 0.25991 0.48799 0.0
C166 C 0.84675 0.27862 0.40172 0.0
O167 O 0.8547 0.27306 0.44326 0.0
O168 O 0.80908 0.30136 0.4899 0.0
C169 C 0.43011 0.10004 0.32437 0.0
O170 O 0.44384 0.10573 0.32919 0.0
O171 O 0.45487 0.07932 0.21216 0.0
Zn172 Zn 0.44729 0.07453 0.28926 0.0
O173 O 0.463 0.07979 0.34718 0.0
C174 C 0.4371 0.04571 0.24977 0.0
O175 O 0.43521 0.05366 0.20401 0.0
O176 O 0.42854 0.08658 0.30629 0.0
C177 C 0.47728 0.08007 0.33951 0.0
O178 O 0.48284 0.07604 0.29099 0.0
C179 C 0.46206 0.09123 0.19818 0.0
O180 O 0.46489 0.1017 0.2357 0.0
O181 O 0.44219 0.05227 0.29306 0.0
C182 C 0.62623 0.6838 0.08204 0.0
O183 O 0.62423 0.69858 0.08215 0.0
O184 O 0.65249 0.70877 0.01246 0.0
Zn185 Zn 0.65539 0.69518 0.0792 0.0
O186 O 0.65168 0.70742 0.14853 0.0
C187 C 0.68686 0.69802 0.07393 0.0
O188 O 0.68238 0.71223 0.07704 0.0
O189 O 0.63969 0.67865 0.07877 0.0
C190 C 0.65977 0.70823 0.19213 0.0
O191 O 0.67238 0.70033 0.19555 0.0
C192 C 0.64869 0.72262 0.01765 0.0
O193 O 0.64583 0.72805 0.06744 0.0
O194 O 0.67692 0.68756 0.07588 0.0
C195 C 0.0752 0.89222 0.77274 0.0
O196 O 0.07024 0.89407 0.72163 0.0
O197 O 0.0434 0.914 0.72497 0.0
Zn198 Zn 0.05396 0.9165 0.79875 0.0
O199 O 0.03855 0.91507 0.86034 0.0
C200 C 0.07084 0.94187 0.75823 0.0
O201 O 0.07356 0.93242 0.71713 0.0
O202 O 0.07007 0.90064 0.8113 0.0
C203 C 0.02488 0.91926 0.85307 0.0
O204 O 0.02076 0.92464 0.80437 0.0
C205 C 0.03594 0.90227 0.7109 0.0
O206 O 0.03531 0.89063 0.74502 0.0
O207 O 0.06305 0.93733 0.79952 0.0
C208 C 0.64452 0.81812 0.59538 0.0
O209 O 0.63926 0.80609 0.62136 0.0
O210 O 0.66441 0.78328 0.51853 0.0
Zn211 Zn 0.66974 0.79839 0.57804 0.0
O212 O 0.66607 0.78957 0.65382 0.0
C213 C 0.70156 0.79321 0.57552 0.0
O214 O 0.69705 0.77956 0.59015 0.0
O215 O 0.65741 0.81744 0.57173 0.0
C216 C 0.66462 0.77547 0.66334 0.0
O217 O 0.66608 0.76575 0.62224 0.0
C218 C 0.6515 0.78207 0.49538 0.0
O219 O 0.64044 0.79118 0.51033 0.0
O220 O 0.69172 0.80358 0.56885 0.0
C221 C 0.44353 0.36985 0.773 0.0
O222 O 0.45799 0.3679 0.76156 0.0
O223 O 0.46163 0.39544 0.66944 0.0
Zn224 Zn 0.45268 0.39921 0.74573 0.0
O225 O 0.46925 0.3979 0.80325 0.0
C226 C 0.44866 0.43012 0.71449 0.0
O227 O 0.46081 0.42685 0.68513 0.0
O228 O 0.43775 0.38294 0.76632 0.0
C229 C 0.47566 0.40867 0.82929 0.0
O230 O 0.47127 0.42272 0.82056 0.0
C231 C 0.47588 0.39376 0.66364 0.0
O232 O 0.48452 0.39313 0.70811 0.0
O233 O 0.44291 0.41996 0.74566 0.0
C234 C 0.86603 0.18307 0.00054 0.0
O235 O 0.86726 0.19678 0.97948 0.0
O236 O 0.83772 0.19826 0.90728 0.0
Zn237 Zn 0.83617 0.19216 0.9879 0.0
O238 O 0.8387 0.21047 0.03749 0.0
C239 C 0.80509 0.19432 0.99419 0.0
O240 O 0.80958 0.20814 0.98173 0.0
O241 O 0.85284 0.17747 0.00704 0.0
C242 C 0.84345 0.20895 0.08712 0.0
O243 O 0.84669 0.19531 0.10576 0.0
C244 C 0.84146 0.21162 0.89279 0.0
O245 O 0.84493 0.22162 0.93127 0.0
O246 O 0.81508 0.18403 0.00022 0.0
C247 C 0.05441 0.62365 0.3011 0.0
O248 O 0.03997 0.62476 0.28778 0.0
O249 O 0.03848 0.6 0.19154 0.0
Zn250 Zn 0.04662 0.59488 0.26771 0.0
O251 O 0.02955 0.5947 0.32339 0.0
C252 C 0.04547 0.56349 0.25999 0.0
O253 O 0.03113 0.56753 0.25763 0.0
O254 O 0.06108 0.61101 0.29379 0.0
C255 C 0.03135 0.58822 0.37011 0.0
O256 O 0.04442 0.58172 0.38137 0.0
C257 C 0.02434 0.59882 0.18183 0.0
O258 O 0.01515 0.59495 0.22248 0.0
O259 O 0.05554 0.57377 0.26458 0.0
C260 C 0.64676 0.16458 0.03066 0.0
O261 O 0.65608 0.16248 0.0727 0.0
O262 O 0.65907 0.2034 0.09256 0.0
Zn263 Zn 0.66223 0.19362 0.01847 0.0
O264 O 0.65897 0.21001 0.96205 0.0
C265 C 0.69389 0.19654 0.01485 0.0
O266 O 0.6896 0.2108 0.01809 0.0
O267 O 0.64743 0.17687 0.00318 0.0
C268 C 0.6589 0.20728 0.91023 0.0
O269 O 0.66112 0.1933 0.89293 0.0
C270 C 0.6468 0.20351 0.12031 0.0
O271 O 0.63503 0.19577 0.10232 0.0
O272 O 0.68379 0.18625 0.01393 0.0
C273 C 0.07118 0.39484 0.21075 0.0
O274 O 0.05762 0.38892 0.20399 0.0
O275 O 0.04083 0.41559 0.29501 0.0
Zn276 Zn 0.0528 0.42066 0.22581 0.0
O277 O 0.04125 0.41461 0.15685 0.0
C278 C 0.04759 0.45233 0.24226 0.0
O279 O 0.03443 0.44711 0.25949 0.0
O280 O 0.07228 0.4088 0.22341 0.0
C281 C 0.02787 0.41843 0.14291 0.0
O282 O 0.02012 0.42774 0.17476 0.0
C283 C 0.03125 0.40481 0.29666 0.0
O284 O 0.02909 0.39644 0.25213 0.0
O285 O 0.05755 0.44301 0.22504 0.0
C286 C 0.86754 0.81531 0.45869 0.0
O287 O 0.87411 0.80217 0.44931 0.0
O288 O 0.84791 0.78491 0.55417 0.0
Zn289 Zn 0.84267 0.79587 0.48332 0.0
O290 O 0.84766 0.7833 0.41572 0.0
C291 C 0.81149 0.79135 0.51147 0.0
O292 O 0.81718 0.77918 0.53526 0.0
O293 O 0.85395 0.81552 0.47635 0.0
C294 C 0.84029 0.77162 0.40047 0.0
O295 O 0.82872 0.76697 0.43041 0.0
C296 C 0.85604 0.77303 0.55652 0.0
O297 O 0.86275 0.7681 0.51117 0.0
O298 O 0.82028 0.80032 0.48542 0.0
C299 C 0.40614 0.59449 0.67309 0.0
O300 O 0.41928 0.60078 0.68504 0.0
O301 O 0.43077 0.57478 0.77334 0.0
Zn302 Zn 0.42431 0.5694 0.69532 0.0
O303 O 0.43944 0.57681 0.6383 0.0
C304 C 0.42561 0.53759 0.65642 0.0
O305 O 0.43193 0.5429 0.61092 0.0
O306 O 0.40488 0.58016 0.67671 0.0
C307 C 0.45251 0.57186 0.6252 0.0
O308 O 0.45811 0.55994 0.65088 0.0
C309 C 0.44327 0.5811 0.78601 0.0
O310 O 0.45262 0.58525 0.74625 0.0
O311 O 0.42138 0.54672 0.69427 0.0
C312 C 0.35717 0.1739 0.47107 0.0
O313 O 0.3641 0.18699 0.47748 0.0
O314 O 0.33808 0.19913 0.5785 0.0
Zn315 Zn 0.33242 0.19237 0.50128 0.0
O316 O 0.33784 0.20829 0.44495 0.0
C317 C 0.30314 0.1787 0.52239 0.0
O318 O 0.31114 0.16837 0.54876 0.0
O319 O 0.34301 0.17309 0.48053 0.0
C320 C 0.33326 0.2219 0.44942 0.0
O321 O 0.32497 0.22579 0.49259 0.0
C322 C 0.34813 0.20919 0.58743 0.0
O323 O 0.35577 0.21486 0.54532 0.0
O324 O 0.30991 0.18965 0.49862 0.0
C325 C 0.55327 0.60254 0.16395 0.0
O326 O 0.55878 0.58918 0.1505 0.0
O327 O 0.51615 0.58698 0.27167 0.0
Zn328 Zn 0.52601 0.58578 0.19642 0.0
O329 O 0.51012 0.58651 0.13635 0.0
C330 C 0.54657 0.5617 0.22733 0.0
O331 O 0.5505 0.57118 0.26701 0.0
O332 O 0.54004 0.60346 0.18485 0.0
C333 C 0.49661 0.58184 0.14362 0.0
O334 O 0.49268 0.5763 0.1923 0.0
C335 C 0.50844 0.59843 0.28684 0.0
O336 O 0.5071 0.61003 0.25282 0.0
O337 O 0.53675 0.5658 0.1916 0.0
C338 C 0.14252 0.81559 0.93715 0.0
O339 O 0.1429 0.80099 0.92636 0.0
O340 O 0.16124 0.79985 0.08488 0.0
Zn341 Zn 0.16715 0.80691 0.0083 0.0
O342 O 0.16947 0.7887 0.95817 0.0
C343 C 0.19664 0.81406 0.05211 0.0
O344 O 0.19189 0.80521 0.09251 0.0
O345 O 0.15154 0.82103 0.97344 0.0
C346 C 0.16339 0.77584 0.9673 0.0
O347 O 0.15584 0.77366 0.01376 0.0
C348 C 0.14807 0.79917 0.10629 0.0
O349 O 0.13628 0.80388 0.07758 0.0
O350 O 0.18774 0.81696 0.0118 0.0
C351 C 0.93172 0.37808 0.70533 0.0
O352 O 0.94533 0.37235 0.6976 0.0
O353 O 0.9602 0.40233 0.79831 0.0
Zn354 Zn 0.94887 0.40509 0.72626 0.0
O355 O 0.96219 0.40015 0.66081 0.0
C356 C 0.94788 0.43733 0.74774 0.0
O357 O 0.95913 0.43418 0.78179 0.0
O358 O 0.93047 0.39178 0.72106 0.0
C359 C 0.97306 0.40852 0.64447 0.0
O360 O 0.97623 0.42101 0.67199 0.0
C361 C 0.9715 0.39346 0.80271 0.0
O362 O 0.97542 0.38505 0.7599 0.0
O363 O 0.94186 0.4267 0.71967 0.0
C364 C 0.36514 0.80736 0.01297 0.0
O365 O 0.3668 0.79257 0.00973 0.0
O366 O 0.33414 0.78398 0.95684 0.0
Zn367 Zn 0.33441 0.79818 0.02286 0.0
O368 O 0.33728 0.78653 0.09435 0.0
C369 C 0.30637 0.81132 0.06613 0.0
O370 O 0.31138 0.80655 0.11455 0.0
O371 O 0.35184 0.81283 0.01717 0.0
C372 C 0.32885 0.77566 0.11038 0.0
O373 O 0.31733 0.77147 0.07918 0.0
C374 C 0.33986 0.77073 0.95744 0.0
O375 O 0.34676 0.7659 0.00255 0.0
O376 O 0.31446 0.80938 0.02294 0.0
C377 C 0.92498 0.6009 0.80662 0.0
O378 O 0.93816 0.60763 0.79957 0.0
O379 O 0.95094 0.58143 0.70226 0.0
Zn380 Zn 0.94311 0.57578 0.77789 0.0
O381 O 0.95863 0.58106 0.83619 0.0
C382 C 0.93059 0.54717 0.74504 0.0
O383 O 0.92285 0.55578 0.71055 0.0
O384 O 0.92392 0.58677 0.7971 0.0
C385 C 0.96986 0.58989 0.8284 0.0
O386 O 0.97199 0.59603 0.7792 0.0
C387 C 0.96239 0.57389 0.68592 0.0
O388 O 0.96792 0.56326 0.71853 0.0
O389 O 0.93971 0.55335 0.77914 0.0
C390 C 0.15195 0.17915 0.60818 0.0
O391 O 0.16373 0.18536 0.63292 0.0
O392 O 0.15839 0.20977 0.46076 0.0
Zn393 Zn 0.16175 0.2012 0.53716 0.0
O394 O 0.16007 0.21771 0.59431 0.0
C395 C 0.19397 0.19998 0.51782 0.0
O396 O 0.19151 0.2131 0.49339 0.0
O397 O 0.14786 0.18428 0.56096 0.0
C398 C 0.16033 0.23188 0.58453 0.0
O399 O 0.16181 0.23672 0.53309 0.0
C400 C 0.14613 0.21253 0.43485 0.0
O401 O 0.13305 0.20887 0.45745 0.0
O402 O 0.1829 0.1929 0.53949 0.0
C403 C 0.56948 0.39329 0.28227 0.0
O404 O 0.55535 0.38851 0.28091 0.0
O405 O 0.54802 0.4155 0.16137 0.0
Zn406 Zn 0.55541 0.41993 0.23884 0.0
O407 O 0.53795 0.41655 0.29107 0.0
C408 C 0.55412 0.45141 0.21503 0.0
O409 O 0.54301 0.44655 0.18319 0.0
O410 O 0.57259 0.40642 0.26346 0.0
C411 C 0.54048 0.41667 0.34309 0.0
O412 O 0.55428 0.41958 0.36096 0.0
C413 C 0.54866 0.40293 0.13562 0.0
O414 O 0.55546 0.39129 0.15892 0.0
O415 O 0.56157 0.44186 0.24374 0.0
H416 H 0.28865 0.2736 0.99761 0.0
H417 H 0.29997 0.32141 0.01126 0.0
H418 H 0.2726 0.32764 0.0177 0.0
H419 H 0.25493 0.27855 0.91321 0.0
H420 H 0.24491 0.26323 0.94679 0.0
H421 H 0.26532 0.26276 0.94194 0.0
H422 H 0.26714 0.25969 0.04906 0.0
H423 H 0.24675 0.26025 0.05429 0.0
H424 H 0.25812 0.27348 0.09353 0.0
H425 H 0.24395 0.32834 0.0273 0.0
H426 H 0.21632 0.32368 0.03346 0.0
H427 H 0.22415 0.27541 0.01118 0.0
C428 C 0.28541 0.28541 0.00167 0.0
C429 C 0.29643 0.29703 0.00411 0.0
C430 C 0.29169 0.31233 0.00917 0.0
C431 C 0.2762 0.31596 0.013 0.0
C432 C 0.26564 0.30417 0.01121 0.0
C433 C 0.27005 0.28922 0.00511 0.0
C434 C 0.25654 0.27862 0.00435 0.0
C435 C 0.25536 0.27031 0.94823 0.0
C436 C 0.25718 0.26735 0.05322 0.0
C437 C 0.24378 0.28992 0.01158 0.0
C438 C 0.24923 0.3046 0.01564 0.0
C439 C 0.23955 0.3169 0.02378 0.0
C440 C 0.22389 0.31413 0.02743 0.0
C441 C 0.21808 0.29918 0.02262 0.0
C442 C 0.22822 0.28697 0.01468 0.0
H443 H 0.96022 0.97963 0.21547 0.0
H444 H 0.93081 0.9683 0.35448 0.0
H445 H 0.92348 0.99529 0.36283 0.0
H446 H 0.97375 0.01464 0.26943 0.0
H447 H 0.97415 0.02401 0.20274 0.0
H448 H 0.97658 0.00375 0.20676 0.0
H449 H 0.95409 4e-05 0.13842 0.0
H450 H 0.95154 0.0203 0.13444 0.0
H451 H 0.93589 0.00831 0.15453 0.0
H452 H 0.92013 0.02373 0.35799 0.0
H453 H 0.92145 0.0514 0.34149 0.0
H454 H 0.95274 0.04374 0.20473 0.0
C455 C 0.95219 0.98278 0.2476 0.0
C456 C 0.94609 0.97185 0.28433 0.0
C457 C 0.93563 0.97648 0.32583 0.0
C458 C 0.93137 0.99177 0.33082 0.0
C459 C 0.9376 0.00225 0.29383 0.0
C460 C 0.94779 0.99794 0.25304 0.0
C461 C 0.95315 0.01144 0.21939 0.0
C462 C 0.97043 0.01358 0.22495 0.0
C463 C 0.94838 0.00993 0.15806 0.0
C464 C 0.94454 0.02405 0.24807 0.0
C465 C 0.93558 0.01854 0.29074 0.0
C466 C 0.92702 0.02817 0.32442 0.0
C467 C 0.92783 0.04386 0.3147 0.0
C468 C 0.93713 0.04974 0.27168 0.0
C469 C 0.94539 0.03962 0.23758 0.0
H470 H 0.19839 0.7002 0.5262 0.0
H471 H 0.18827 0.67537 0.37456 0.0
H472 H 0.21552 0.66912 0.3644 0.0
H473 H 0.23268 0.71662 0.47987 0.0
H474 H 0.24205 0.71522 0.54639 0.0
H475 H 0.2217 0.71692 0.54318 0.0
H476 H 0.21887 0.69221 0.60093 0.0
H477 H 0.23923 0.69044 0.60436 0.0
H478 H 0.22795 0.67505 0.57722 0.0
H479 H 0.24411 0.66662 0.369 0.0
H480 H 0.27167 0.66817 0.38751 0.0
H481 H 0.26266 0.69467 0.53622 0.0
C482 C 0.20183 0.69332 0.49106 0.0
C483 C 0.19119 0.68823 0.45121 0.0
C484 C 0.19623 0.67936 0.40567 0.0
C485 C 0.21167 0.67574 0.3996 0.0
C486 C 0.22187 0.68105 0.43949 0.0
C487 C 0.21713 0.68963 0.48438 0.0
C488 C 0.23037 0.69442 0.52046 0.0
C489 C 0.23178 0.71183 0.52256 0.0
C490 C 0.22902 0.68762 0.57922 0.0
C491 C 0.24335 0.68736 0.48853 0.0
C492 C 0.23824 0.67963 0.44212 0.0
C493 C 0.24823 0.67256 0.40542 0.0
C494 C 0.26386 0.67351 0.41629 0.0
C495 C 0.26933 0.68152 0.46338 0.0
C496 C 0.25886 0.68839 0.50006 0.0
H497 H 0.52348 0.04235 0.70925 0.0
H498 H 0.57082 0.05055 0.75012 0.0
H499 H 0.57718 0.02446 0.72033 0.0
H500 H 0.52224 0.00361 0.75592 0.0
H501 H 0.50975 0.99759 0.70073 0.0
H502 H 0.50904 0.01687 0.72548 0.0
H503 H 0.51366 0.02665 0.6251 0.0
H504 H 0.51446 0.0074 0.60008 0.0
H505 H 0.53007 0.02016 0.58712 0.0
H506 H 0.57832 0.99751 0.68507 0.0
H507 H 0.57404 0.97152 0.64976 0.0
H508 H 0.52592 0.98127 0.63252 0.0
C509 C 0.53519 0.03868 0.71213 0.0
C510 C 0.54666 0.04849 0.73198 0.0
C511 C 0.56184 0.04322 0.73507 0.0
C512 C 0.56557 0.02844 0.71817 0.0
C513 C 0.55398 0.01911 0.69841 0.0
C514 C 0.5391 0.02401 0.69554 0.0
C515 C 0.52874 0.01177 0.67298 0.0
C516 C 0.51674 0.00719 0.71638 0.0
C517 C 0.5213 0.0168 0.61806 0.0
C518 C 0.54013 -0.0008 0.66354 0.0
C519 C 0.55463 0.00364 0.67832 0.0
C520 C 0.56701 0.9939 0.67337 0.0
C521 C 0.56446 0.97917 0.65319 0.0
C522 C 0.54965 0.97436 0.63834 0.0
C523 C 0.53739 0.98459 0.64341 0.0
H524 H 0.7107 0.71778 0.07889 0.0
H525 H 0.69971 0.67047 0.0483 0.0
H526 H 0.72675 0.6653 0.02754 0.0
H527 H 0.73781 0.72193 0.97117 0.0
H528 H 0.75021 0.7341 0.01079 0.0
H529 H 0.73015 0.73389 0.02516 0.0
H530 H 0.73557 0.72739 0.12851 0.0
H531 H 0.75566 0.72768 0.11457 0.0
H532 H 0.74708 0.71108 0.14514 0.0
H533 H 0.75492 0.66572 0.00585 0.0
H534 H 0.78209 0.67133 0.99015 0.0
H535 H 0.77429 0.71831 0.03667 0.0
C536 C 0.71396 0.70629 0.0682 0.0
C537 C 0.7031 0.69452 0.06511 0.0
C538 C 0.70786 0.67965 0.05107 0.0
C539 C 0.72317 0.67662 0.03907 0.0
C540 C 0.73355 0.68856 0.04172 0.0
C541 C 0.72914 0.70307 0.05644 0.0
C542 C 0.74243 0.71395 0.05603 0.0
C543 C 0.74 0.72672 0.01323 0.0
C544 C 0.74536 0.7204 0.11454 0.0
C545 C 0.75502 0.70335 0.03821 0.0
C546 C 0.74969 0.68876 0.03004 0.0
C547 C 0.75923 0.67708 0.01246 0.0
C548 C 0.77463 0.6804 0.00348 0.0
C549 C 0.78033 0.69525 0.0123 0.0
C550 C 0.77032 0.70683 0.02976 0.0
H551 H 0.06563 0.96448 0.83393 0.0
H552 H 0.08495 0.95598 0.67066 0.0
H553 H 0.08874 0.98352 0.65761 0.0
H554 H 0.04459 0.99574 0.79718 0.0
H555 H 0.04747 0.00609 0.86101 0.0
H556 H 0.04838 0.98571 0.86111 0.0
H557 H 0.07539 0.98676 0.90385 0.0
H558 H 0.07453 0.00721 0.90426 0.0
H559 H 0.08999 0.99768 0.86972 0.0
H560 H 0.08716 0.01196 0.65715 0.0
H561 H 0.08115 0.0391 0.67083 0.0
H562 H 0.06331 0.02889 0.83502 0.0
C563 C 0.07101 0.96835 0.79597 0.0
C564 C 0.07502 0.95807 0.75335 0.0
C565 C 0.08185 0.96364 0.70401 0.0
C566 C 0.08407 0.97926 0.69624 0.0
C567 C 0.07956 0.98913 0.73844 0.0
C568 C 0.07333 0.98387 0.78762 0.0
C569 C 0.06835 0.99684 0.82463 0.0
C570 C 0.05118 0.99604 0.83664 0.0
C571 C 0.07762 0.99714 0.87882 0.0
C572 C 0.07222 0.0102 0.78775 0.0
C573 C 0.07882 0.00554 0.73844 0.0
C574 C 0.08227 0.01577 0.69604 0.0
C575 C 0.07876 0.03115 0.70408 0.0
C576 C 0.07186 0.03611 0.75412 0.0
C577 C 0.06882 0.02549 0.79671 0.0
H578 H 0.71106 0.27346 0.45973 0.0
H579 H 0.70253 0.31903 0.52106 0.0
H580 H 0.73004 0.32444 0.51808 0.0
H581 H 0.74507 0.26689 0.53551 0.0
H582 H 0.75424 0.25657 0.48016 0.0
H583 H 0.73386 0.25648 0.48567 0.0
H584 H 0.7317 0.26645 0.38444 0.0
H585 H 0.7521 0.26658 0.37862 0.0
H586 H 0.74145 0.28366 0.36508 0.0
H587 H 0.75861 0.32443 0.51251 0.0
H588 H 0.78605 0.31921 0.50225 0.0
H589 H 0.77562 0.27392 0.44213 0.0
C590 C 0.71495 0.2846 0.47239 0.0
C591 C 0.70466 0.29581 0.49075 0.0
C592 C 0.71022 0.31027 0.50677 0.0
C593 C 0.72582 0.31345 0.50523 0.0
C594 C 0.73567 0.30211 0.48717 0.0
C595 C 0.73045 0.28801 0.47073 0.0
C596 C 0.74339 0.27774 0.45351 0.0
C597 C 0.74418 0.26359 0.49096 0.0
C598 C 0.74208 0.27336 0.39174 0.0
C599 C 0.75673 0.28821 0.46348 0.0
C600 C 0.75206 0.30221 0.48291 0.0
C601 C 0.76241 0.31356 0.49688 0.0
C602 C 0.77795 0.31048 0.49101 0.0
C603 C 0.78296 0.29619 0.47111 0.0
C604 C 0.77215 0.285 0.45687 0.0
H605 H 0.43186 0.96383 0.11385 0.0
H606 H 0.43064 0.94534 0.28132 0.0
H607 H 0.42862 0.97125 0.31943 0.0
H608 H 0.45516 0.99414 0.14258 0.0
H609 H 0.4459 0.00748 0.09693 0.0
H610 H 0.44499 0.9875 0.08214 0.0
H611 H 0.41558 0.98864 0.0812 0.0
H612 H 0.41639 0.00871 0.09541 0.0
H613 H 0.40565 0.99634 0.14038 0.0
H614 H 0.43044 -0.00086 0.33972 0.0
H615 H 0.43419 0.02695 0.34017 0.0
H616 H 0.43355 0.02717 0.15956 0.0
C617 C 0.43076 0.96518 0.15846 0.0
C618 C 0.43138 0.95254 0.19457 0.0
C619 C 0.4301 0.95483 0.25276 0.0
C620 C 0.42896 0.96952 0.27485 0.0
C621 C 0.42891 0.98177 0.23818 0.0
C622 C 0.42954 0.97975 0.18117 0.0
C623 C 0.43034 0.99481 0.15097 0.0
C624 C 0.44497 0.99605 0.11613 0.0
C625 C 0.41614 0.99727 0.11486 0.0
C626 C 0.43061 0.00559 0.19996 0.0
C627 C 0.42968 0.99787 0.24991 0.0
C628 C 0.43087 0.00534 0.30087 0.0
C629 C 0.43308 0.02111 0.30072 0.0
C630 C 0.43404 0.02922 0.24993 0.0
C631 C 0.43261 0.02133 0.19906 0.0
H632 H 0.72561 0.77415 0.59323 0.0
H633 H 0.71409 0.81902 0.53137 0.0
H634 H 0.74105 0.82352 0.50822 0.0
H635 H 0.76153 0.78466 0.65526 0.0
H636 H 0.77061 0.76706 0.6365 0.0
H637 H 0.75045 0.76753 0.64894 0.0
H638 H 0.74567 0.75602 0.55118 0.0
H639 H 0.76581 0.75558 0.53835 0.0
H640 H 0.75339 0.76535 0.49067 0.0
H641 H 0.76915 0.82273 0.48884 0.0
H642 H 0.79651 0.81715 0.47874 0.0
H643 H 0.78945 0.77299 0.55493 0.0
C644 C 0.72874 0.78496 0.57505 0.0
C645 C 0.71775 0.79623 0.56403 0.0
C646 C 0.72234 0.81023 0.54029 0.0
C647 C 0.7376 0.81288 0.52689 0.0
C648 C 0.74812 0.80146 0.53782 0.0
C649 C 0.74391 0.78783 0.56173 0.0
C650 C 0.75741 0.77741 0.5692 0.0
C651 C 0.76016 0.77397 0.63116 0.0
C652 C 0.75545 0.76273 0.53532 0.0
C653 C 0.76986 0.78728 0.54541 0.0
C654 C 0.76429 0.80109 0.52738 0.0
C655 C 0.77366 0.81199 0.50306 0.0
C656 C 0.78916 0.80869 0.49737 0.0
C657 C 0.79511 0.79466 0.51617 0.0
C658 C 0.78527 0.78385 0.54037 0.0
H659 H 0.45667 0.45304 0.64359 0.0
H660 H 0.42546 0.44192 0.77742 0.0
H661 H 0.41479 0.46785 0.77244 0.0
H662 H 0.46473 0.49046 0.68646 0.0
H663 H 0.46568 0.49808 0.61691 0.0
H664 H 0.47018 0.47844 0.62914 0.0
H665 H 0.44991 0.4704 0.55667 0.0
H666 H 0.4453 0.49004 0.54434 0.0
H667 H 0.43061 0.47688 0.56449 0.0
H668 H 0.40884 0.49549 0.75711 0.0
H669 H 0.40789 0.52269 0.73222 0.0
H670 H 0.44245 0.51533 0.60637 0.0
C671 C 0.44752 0.45599 0.67166 0.0
C672 C 0.4419 0.44546 0.71096 0.0
C673 C 0.42992 0.4498 0.74691 0.0
C674 C 0.42377 0.46448 0.74432 0.0
C675 C 0.42964 0.4746 0.70522 0.0
C676 C 0.4412 0.47052 0.66938 0.0
C677 C 0.44584 0.48363 0.63237 0.0
C678 C 0.4626 0.4879 0.64182 0.0
C679 C 0.44272 0.48002 0.57082 0.0
C680 C 0.43527 0.49585 0.65366 0.0
C681 C 0.42599 0.49041 0.69557 0.0
C682 C 0.41591 0.49983 0.72387 0.0
C683 C 0.41547 0.51525 0.7095 0.0
C684 C 0.425 0.52108 0.66704 0.0
C685 C 0.43483 0.51116 0.63825 0.0
H686 H 0.71771 0.2162 0.00623 0.0
H687 H 0.70702 0.16822 0.01888 0.0
H688 H 0.73447 0.16215 0.01661 0.0
H689 H 0.74866 0.21227 0.9111 0.0
H690 H 0.75956 0.22736 0.94222 0.0
H691 H 0.73915 0.22773 0.94573 0.0
H692 H 0.74053 0.22978 0.05329 0.0
H693 H 0.76095 0.22939 0.05011 0.0
H694 H 0.75094 0.2157 0.09213 0.0
H695 H 0.76344 0.16158 0.01357 0.0
H696 H 0.7911 0.16653 0.00671 0.0
H697 H 0.782 0.21485 0.99478 0.0
C698 C 0.72109 0.2044 0.00863 0.0
C699 C 0.71022 0.19268 0.01287 0.0
C700 C 0.71516 0.17739 0.01558 0.0
C701 C 0.73072 0.17384 0.01443 0.0
C702 C 0.74114 0.18571 0.01036 0.0
C703 C 0.73648 0.20067 0.00728 0.0
C704 C 0.74982 0.21137 0.00228 0.0
C705 C 0.74926 0.2202 0.94704 0.0
C706 C 0.7506 0.22219 0.05245 0.0
C707 C 0.76276 0.20012 0.00299 0.0
C708 C 0.75759 0.18537 0.00792 0.0
C709 C 0.7676 0.17309 0.00962 0.0
C710 C 0.78327 0.17601 0.00579 0.0
C711 C 0.7887 0.19107 6e-05 0.0
C712 C 0.77824 0.2032 0.9989 0.0
H713 H 0.02732 0.4752 0.26069 0.0
H714 H 0.07494 0.46671 0.22605 0.0
H715 H 0.07998 0.49434 0.22899 0.0
H716 H 0.02404 0.50846 0.17651 0.0
H717 H 0.01118 0.51784 0.22362 0.0
H718 H 0.01157 0.49743 0.22024 0.0
H719 H 0.01667 0.49617 0.32645 0.0
H720 H 0.01632 0.51658 0.33013 0.0
H721 H 0.03264 0.5063 0.35525 0.0
H722 H 0.07965 0.52321 0.23674 0.0
H723 H 0.07367 0.55065 0.24388 0.0
H724 H 0.02621 0.53954 0.27076 0.0
C725 C 0.03883 0.47911 0.2539 0.0
C726 C 0.05074 0.46881 0.24336 0.0
C727 C 0.06562 0.47442 0.23419 0.0
C728 C 0.06861 0.49008 0.23592 0.0
C729 C 0.05657 0.49994 0.24655 0.0
C730 C 0.04197 0.49464 0.25504 0.0
C731 C 0.03092 0.50751 0.26424 0.0
C732 C 0.01871 0.50782 0.21841 0.0
C733 C 0.02372 0.50658 0.32248 0.0
C734 C 0.04155 0.52091 0.25954 0.0
C735 C 0.05633 0.51638 0.24975 0.0
C736 C 0.06811 0.52688 0.24428 0.0
C737 C 0.06462 0.54242 0.2485 0.0
C738 C 0.04948 0.54722 0.25759 0.0
C739 C 0.03789 0.53626 0.26341 0.0
H740 H 0.28363 0.19958 0.47795 0.0
H741 H 0.28472 0.15702 0.56912 0.0
H742 H 0.25668 0.15725 0.57445 0.0
H743 H 0.25416 0.2165 0.55505 0.0
H744 H 0.24566 0.22591 0.49617 0.0
H745 H 0.26568 0.22183 0.49619 0.0
H746 H 0.26282 0.20716 0.40328 0.0
H747 H 0.24277 0.21125 0.40283 0.0
H748 H 0.24926 0.19188 0.39847 0.0
H749 H 0.22864 0.16285 0.57367 0.0
H750 H 0.2027 0.17326 0.56656 0.0
H751 H 0.22025 0.21223 0.47635 0.0
C752 C 0.278 0.19019 0.49852 0.0
C753 C 0.28637 0.17825 0.52305 0.0
C754 C 0.27854 0.16627 0.54995 0.0
C755 C 0.26263 0.1663 0.55314 0.0
C756 C 0.25476 0.17836 0.52911 0.0
C757 C 0.26219 0.19006 0.50217 0.0
C758 C 0.25118 0.20199 0.48162 0.0
C759 C 0.25436 0.21747 0.50891 0.0
C760 C 0.25153 0.20313 0.41776 0.0
C761 C 0.23638 0.19529 0.50189 0.0
C762 C 0.23866 0.18162 0.52889 0.0
C763 C 0.2267 0.17349 0.55231 0.0
C764 C 0.21202 0.17952 0.54812 0.0
C765 C 0.20944 0.19356 0.52086 0.0
C766 C 0.22182 0.20146 0.4973 0.0
H767 H 0.54119 0.47425 0.15463 0.0
H768 H 0.57387 0.46574 0.28627 0.0
H769 H 0.57743 0.4934 0.29807 0.0
H770 H 0.56005 0.50803 0.09617 0.0
H771 H 0.54221 0.51725 0.08167 0.0
H772 H 0.54348 0.49684 0.08004 0.0
H773 H 0.52157 0.49501 0.15184 0.0
H774 H 0.52025 0.51537 0.15374 0.0
H775 H 0.52323 0.5049 0.21726 0.0
H776 H 0.57542 0.52201 0.3015 0.0
H777 H 0.56818 0.54908 0.29557 0.0
H778 H 0.5372 0.53845 0.16049 0.0
C779 C 0.54928 0.47816 0.1854 0.0
C780 C 0.55726 0.46784 0.21952 0.0
C781 C 0.56767 0.47345 0.25951 0.0
C782 C 0.56979 0.48913 0.26645 0.0
C783 C 0.56153 0.499 0.23269 0.0
C784 C 0.55157 0.49371 0.19267 0.0
C785 C 0.54339 0.50659 0.16387 0.0
C786 C 0.54754 0.50721 0.10175 0.0
C787 C 0.5261 0.50539 0.17222 0.0
C788 C 0.54996 0.51997 0.19505 0.0
C789 C 0.5605 0.51541 0.23426 0.0
C790 C 0.56735 0.52573 0.27038 0.0
C791 C 0.56315 0.54107 0.26677 0.0
C792 C 0.55218 0.54589 0.22742 0.0
C793 C 0.54575 0.53518 0.19059 0.0
H794 H 0.28293 0.80761 0.13932 0.0
H795 H 0.29419 0.82705 0.97862 0.0
H796 H 0.26716 0.83334 0.96351 0.0
H797 H 0.25089 0.78917 0.09588 0.0
H798 H 0.24003 0.79202 0.15859 0.0
H799 H 0.26041 0.79172 0.16167 0.0
H800 H 0.26045 0.81829 0.20797 0.0
H801 H 0.23999 0.81864 0.2053 0.0
H802 H 0.2508 0.83384 0.17437 0.0
H803 H 0.23874 0.83448 0.96058 0.0
H804 H 0.21121 0.82966 0.96878 0.0
H805 H 0.21855 0.80891 0.13048 0.0
C806 C 0.27978 0.81364 0.10177 0.0
C807 C 0.29066 0.81698 0.06038 0.0
C808 C 0.28603 0.82447 0.01102 0.0
C809 C 0.27073 0.82814 0.00218 0.0
C810 C 0.2602 0.82427 0.04312 0.0
C811 C 0.26454 0.81723 0.09205 0.0
C812 C 0.25089 0.81265 0.12644 0.0
C813 C 0.25054 0.79537 0.13616 0.0
C814 C 0.25051 0.82138 0.1818 0.0
C815 C 0.23819 0.81769 0.08826 0.0
C816 C 0.24377 0.82464 0.04093 0.0
C817 C 0.23422 0.82928 0.99787 0.0
C818 C 0.21859 0.82647 0.00287 0.0
C819 C 0.21271 0.81892 0.05029 0.0
C820 C 0.22266 0.81482 0.09392 0.0
H821 H 0.95822 0.46264 0.80193 0.0
H822 H 0.92507 0.44763 0.67995 0.0
H823 H 0.91613 0.47403 0.66909 0.0
H824 H 0.93465 0.49138 0.86679 0.0
H825 H 0.95025 0.50435 0.87679 0.0
H826 H 0.95364 0.48418 0.87641 0.0
H827 H 0.9735 0.48756 0.79773 0.0
H828 H 0.9702 0.50772 0.79794 0.0
H829 H 0.96808 0.49709 0.73434 0.0
H830 H 0.9115 0.50223 0.66894 0.0
H831 H 0.9117 0.53015 0.67913 0.0
H832 H 0.94774 0.52642 0.80179 0.0
C833 C 0.94903 0.46487 0.77314 0.0
C834 C 0.94234 0.45307 0.74182 0.0
C835 C 0.93036 0.45649 0.70445 0.0
C836 C 0.92518 0.47144 0.69804 0.0
C837 C 0.93207 0.4828 0.72945 0.0
C838 C 0.94371 0.47969 0.76629 0.0
C839 C 0.94947 0.49399 0.794 0.0
C840 C 0.94684 0.49343 0.85725 0.0
C841 C 0.96631 0.49675 0.78014 0.0
C842 C 0.93935 0.50566 0.76652 0.0
C843 C 0.92935 0.499 0.72957 0.0
C844 C 0.91921 0.50758 0.69803 0.0
C845 C 0.91942 0.52342 0.70409 0.0
C846 C 0.92969 0.53046 0.74137 0.0
C847 C 0.93966 0.52139 0.77326 0.0
H848 H 0.15831 0.25541 0.90337 0.0
H849 H 0.16176 0.30249 0.85144 0.0
H850 H 0.16029 0.29445 0.75298 0.0
H851 H 0.18158 0.24027 0.79904 0.0
H852 H 0.17063 0.22315 0.79015 0.0
H853 H 0.17067 0.23275 0.85624 0.0
H854 H 0.14128 0.23452 0.85352 0.0
H855 H 0.14115 0.22485 0.78747 0.0
H856 H 0.13211 0.24311 0.79426 0.0
H857 H 0.16013 0.28091 0.65976 0.0
H858 H 0.16093 0.26308 0.58023 0.0
H859 H 0.15763 0.22514 0.69502 0.0
C860 C 0.15855 0.26408 0.87144 0.0
C861 C 0.16013 0.27958 0.88512 0.0
C862 C 0.16051 0.29054 0.84194 0.0
C863 C 0.15967 0.28609 0.7859 0.0
C864 C 0.15839 0.27066 0.7739 0.0
C865 C 0.15774 0.25985 0.81554 0.0
C866 C 0.15701 0.24397 0.79191 0.0
C867 C 0.17079 0.23449 0.81043 0.0
C868 C 0.14199 0.23616 0.80773 0.0
C869 C 0.15762 0.24749 0.73041 0.0
C870 C 0.15832 0.26293 0.72067 0.0
C871 C 0.15945 0.2688 0.66691 0.0
C872 C 0.15993 0.25859 0.62204 0.0
C873 C 0.15932 0.24272 0.63136 0.0
C874 C 0.15805 0.2372 0.68635 0.0
H875 H 0.0305 0.91178 0.9619 0.0
H876 H 0.99432 0.92494 0.84895 0.0
H877 H 0.97602 0.92418 0.9268 0.0
H878 H 0.00803 0.88622 0.04814 0.0
H879 H 0.01745 0.89184 0.11148 0.0
H880 H 0.0275 0.89254 0.04621 0.0
H881 H 0.03363 0.92097 0.06265 0.0
H882 H 0.02362 0.92036 0.12791 0.0
H883 H 0.01833 0.93409 0.07575 0.0
H884 H 0.9619 0.92299 0.01768 0.0
H885 H 0.95312 0.9221 0.1152 0.0
H886 H -0.00135 0.90994 0.16848 0.0
C887 C 0.0187 0.91436 0.95334 0.0
C888 C 0.01383 0.91838 0.89928 0.0
C889 C 0.99832 0.92182 0.89002 0.0
C890 C 0.98783 0.92138 0.93393 0.0
C891 C 0.99304 0.91747 0.98678 0.0
C892 C 0.00811 0.91403 0.99665 0.0
C893 C 0.01093 0.91082 0.05768 0.0
C894 C 0.01629 0.89438 0.06636 0.0
C895 C 0.02229 0.92224 0.08244 0.0
C896 C 0.99512 0.9132 0.08075 0.0
C897 C 0.98494 0.9169 0.03914 0.0
C898 C 0.96975 0.92001 0.05058 0.0
C899 C 0.96487 0.91947 0.10611 0.0
C900 C 0.97518 0.91593 0.14952 0.0
C901 C 0.99046 0.91261 0.13631 0.0
H902 H 0.31397 0.71775 0.35991 0.0
H903 H 0.35313 0.73734 0.4431 0.0
H904 H 0.35738 0.75418 0.36238 0.0
H905 H 0.32942 0.71855 0.22013 0.0
H906 H 0.31149 0.72341 0.1886 0.0
H907 H 0.3119 0.71253 0.25207 0.0
H908 H 0.29459 0.73246 0.29966 0.0
H909 H 0.29416 0.74343 0.23642 0.0
H910 H 0.30033 0.75211 0.30047 0.0
H911 H 0.35693 0.76934 0.27375 0.0
H912 H 0.35187 0.78175 0.18361 0.0
H913 H 0.31287 0.75233 0.15872 0.0
C914 C 0.32352 0.72549 0.36108 0.0
C915 C 0.33325 0.7262 0.40783 0.0
C916 C 0.34554 0.73657 0.40775 0.0
C917 C 0.34805 0.74618 0.36209 0.0
C918 C 0.33817 0.74526 0.3169 0.0
C919 C 0.32616 0.73517 0.316 0.0
C920 C 0.31699 0.73669 0.26296 0.0
C921 C 0.31749 0.72191 0.22893 0.0
C922 C 0.30055 0.74146 0.27566 0.0
C923 C 0.32566 0.74929 0.23425 0.0
C924 C 0.33786 0.75404 0.26597 0.0
C925 C 0.34744 0.76568 0.24847 0.0
C926 C 0.34445 0.77267 0.19719 0.0
C927 C 0.33197 0.76802 0.16402 0.0
C928 C 0.32251 0.75613 0.18297 0.0
H929 H 0.4979 0.10355 0.64956 0.0
H930 H 0.54526 0.10475 0.59956 0.0
H931 H 0.53761 0.10049 0.5019 0.0
H932 H 0.48735 0.07374 0.56592 0.0
H933 H 0.46874 0.08087 0.54878 0.0
H934 H 0.47762 0.08632 0.61313 0.0
H935 H 0.47473 0.11474 0.58731 0.0
H936 H 0.4656 0.10939 0.5231 0.0
H937 H 0.48209 0.12152 0.52184 0.0
H938 H 0.52496 0.0929 0.41173 0.0
H939 H 0.50819 0.08417 0.33562 0.0
H940 H 0.46928 0.08791 0.4457 0.0
C941 C 0.50667 0.10335 0.61797 0.0
C942 C 0.52218 0.10453 0.63227 0.0
C943 C 0.53329 0.10397 0.58962 0.0
C944 C 0.52906 0.10153 0.534 0.0
C945 C 0.51368 0.0998 0.52171 0.0
C946 C 0.50265 0.1009 0.56243 0.0
C947 C 0.48702 0.09757 0.53925 0.0
C948 C 0.47977 0.08381 0.56851 0.0
C949 C 0.47676 0.11165 0.54309 0.0
C950 C 0.49102 0.09398 0.47951 0.0
C951 C 0.50643 0.09543 0.46998 0.0
C952 C 0.51285 0.09194 0.41851 0.0
C953 C 0.50325 0.08691 0.37563 0.0
C954 C 0.48742 0.08537 0.38463 0.0
C955 C 0.48131 0.08904 0.43729 0.0
H956 H 0.1767 0.77762 0.86464 0.0
H957 H 0.14802 0.74873 0.96662 0.0
H958 H 0.14418 0.73161 0.88643 0.0
H959 H 0.15497 0.77543 0.74394 0.0
H960 H 0.17085 0.7752 0.6966 0.0
H961 H 0.17266 0.7843 0.76331 0.0
H962 H 0.19593 0.76745 0.78671 0.0
H963 H 0.19431 0.7584 0.71972 0.0
H964 H 0.19425 0.74709 0.78225 0.0
H965 H 0.1415 0.71906 0.79243 0.0
H966 H 0.14148 0.71123 0.69361 0.0
H967 H 0.17214 0.74833 0.65445 0.0
C968 C 0.16985 0.76754 0.87057 0.0
C969 C 0.16267 0.76451 0.92197 0.0
C970 C 0.15369 0.75126 0.92771 0.0
C971 C 0.15141 0.74147 0.88237 0.0
C972 C 0.15831 0.74505 0.83183 0.0
C973 C 0.16749 0.75768 0.82592 0.0
C974 C 0.17303 0.75941 0.76667 0.0
C975 C 0.16754 0.77448 0.74115 0.0
C976 C 0.19041 0.758 0.76368 0.0
C977 C 0.1653 0.74595 0.73984 0.0
C978 C 0.15688 0.73778 0.77804 0.0
C979 C 0.1482 0.72526 0.76229 0.0
C980 C 0.14821 0.72095 0.70606 0.0
C981 C 0.15686 0.72913 0.66639 0.0
C982 C 0.16552 0.74175 0.68381 0.0
H983 H 0.48468 0.92638 0.97384 0.0
H984 H 0.4484 0.90629 0.87594 0.0
H985 H 0.46527 0.90582 0.79381 0.0
H986 H 0.49968 0.95035 0.86512 0.0
H987 H 0.51913 0.94772 0.88651 0.0
H988 H 0.50409 0.94661 0.93712 0.0
H989 H 0.51332 0.91982 0.96614 0.0
H990 H 0.52833 0.92079 0.91533 0.0
H991 H 0.51508 0.90519 0.91408 0.0
H992 H 0.48627 0.90702 0.72313 0.0
H993 H 0.50948 0.91096 0.66747 0.0
H994 H 0.5319 0.93042 0.81185 0.0
C995 C 0.48022 0.92196 0.93509 0.0
C996 C 0.46521 0.91637 0.93129 0.0
C997 C 0.45985 0.91066 0.8798 0.0
C998 C 0.46935 0.91031 0.83298 0.0
C999 C 0.48414 0.91574 0.83839 0.0
C1000 C 0.48952 0.92155 0.88802 0.0
C1001 C 0.50585 0.9267 0.88284 0.0
C1002 C 0.50726 0.94386 0.89352 0.0
C1003 C 0.51626 0.91758 0.92192 0.0
C1004 C 0.50885 0.92287 0.82247 0.0
C1005 C 0.4962 0.91651 0.79763 0.0
C1006 C 0.49624 0.91202 0.74208 0.0
C1007 C 0.50949 0.91427 0.71088 0.0
C1008 C 0.52252 0.921 0.7353 0.0
C1009 C 0.52216 0.92523 0.79197 0.0
H1010 H 0.35731 0.2478 0.14538 0.0
H1011 H 0.34272 0.29332 0.18939 0.0
H1012 H 0.33838 0.28492 0.28608 0.0
H1013 H 0.33014 0.22856 0.22259 0.0
H1014 H 0.34239 0.21324 0.24388 0.0
H1015 H 0.34609 0.22318 0.17992 0.0
H1016 H 0.37338 0.22942 0.21339 0.0
H1017 H 0.3698 0.21937 0.27742 0.0
H1018 H 0.37609 0.23884 0.27925 0.0
H1019 H 0.33306 0.27095 0.3752 0.0
H1020 H 0.32807 0.25259 0.45084 0.0
H1021 H 0.34643 0.21639 0.34837 0.0
C1022 C 0.35351 0.2561 0.17555 0.0
C1023 C 0.35038 0.27122 0.15981 0.0
C1024 C 0.34524 0.28167 0.20049 0.0
C1025 C 0.34276 0.27702 0.25556 0.0
C1026 C 0.34558 0.26193 0.26933 0.0
C1027 C 0.35099 0.25166 0.23063 0.0
C1028 C 0.35224 0.23589 0.25515 0.0
C1029 C 0.34211 0.22456 0.2235 0.0
C1030 C 0.36887 0.23057 0.25638 0.0
C1031 C 0.34631 0.23881 0.31322 0.0
C1032 C 0.34262 0.25391 0.32078 0.0
C1033 C 0.33611 0.25913 0.37006 0.0
C1034 C 0.33327 0.24862 0.41268 0.0
C1035 C 0.33691 0.23308 0.40559 0.0
C1036 C 0.34366 0.22822 0.35534 0.0
H1037 H 0.02852 0.07652 0.57276 0.0
H1038 H 0.01058 0.11717 0.65092 0.0
H1039 H 0.99223 0.12003 0.57373 0.0
H1040 H 0.02644 0.08977 0.43365 0.0
H1041 H 0.0211 0.07161 0.40518 0.0
H1042 H 0.03232 0.07251 0.46771 0.0
H1043 H 0.0123 0.05614 0.51941 0.0
H1044 H 0.00101 0.0552 0.45699 0.0
H1045 H 0.99275 0.06221 0.52061 0.0
H1046 H 0.9763 0.11873 0.48602 0.0
H1047 H 0.96432 0.11348 0.39488 0.0
H1048 H 0.99298 0.07373 0.37576 0.0
C1049 C 0.02069 0.08599 0.57395 0.0
C1050 C 0.02097 0.09662 0.61789 0.0
C1051 C 0.01056 0.10888 0.61766 0.0
C1052 C 9e-05 0.11059 0.57407 0.0
C1053 C 0.00018 0.09992 0.53123 0.0
C1054 C 0.01021 0.08786 0.53095 0.0
C1055 C 0.00828 0.07816 0.47957 0.0
C1056 C 0.0229 0.07801 0.44446 0.0
C1057 C 0.00329 0.06197 0.4951 0.0
C1058 C 0.99569 0.08672 0.45062 0.0
C1059 C 0.9911 0.0992 0.48106 0.0
C1060 C 0.97977 0.10895 0.46194 0.0
C1061 C 0.97304 0.10588 0.41017 0.0
C1062 C 0.97772 0.0932 0.37823 0.0
C1063 C 0.98912 0.0835 0.39914 0.0
H1064 H 0.82814 0.71455 0.14725 0.0
H1065 H 0.86736 0.73531 0.06836 0.0
H1066 H 0.87132 0.75124 0.15167 0.0
H1067 H 0.81405 0.74796 0.20948 0.0
H1068 H 0.80767 0.73875 0.27228 0.0
H1069 H 0.80856 0.72825 0.20813 0.0
H1070 H 0.82589 0.70821 0.25511 0.0
H1071 H 0.82504 0.71865 0.3195 0.0
H1072 H 0.84317 0.71422 0.28878 0.0
H1073 H 0.87026 0.76575 0.24154 0.0
H1074 H 0.86416 0.77795 0.3312 0.0
H1075 H 0.82554 0.74773 0.35094 0.0
C1076 C 0.83768 0.7223 0.14767 0.0
C1077 C 0.84748 0.72364 0.10134 0.0
C1078 C 0.85972 0.73406 0.10339 0.0
C1079 C 0.86209 0.74314 0.15055 0.0
C1080 C 0.85212 0.74164 0.19526 0.0
C1081 C 0.84018 0.73146 0.19426 0.0
C1082 C 0.83073 0.7325 0.24675 0.0
C1083 C 0.81428 0.73715 0.23334 0.0
C1084 C 0.83125 0.7175 0.27947 0.0
C1085 C 0.8391 0.74499 0.27715 0.0
C1086 C 0.85146 0.75004 0.24691 0.0
C1087 C 0.86067 0.76182 0.26576 0.0
C1088 C 0.85709 0.76869 0.31672 0.0
C1089 C 0.84438 0.76379 0.34816 0.0
C1090 C 0.83538 0.75169 0.32812 0.0
H1091 H 0.98454 0.07009 0.04468 0.0
H1092 H 0.99505 0.11057 0.14033 0.0
H1093 H 0.01563 0.11679 0.0745 0.0
H1094 H 0.02372 0.06077 0.00755 0.0
H1095 H 0.01857 0.05429 0.93896 0.0
H1096 H 0.00524 0.05258 0.99552 0.0
H1097 H 0.98528 0.06763 0.93851 0.0
H1098 H -0.00145 0.06943 0.88192 0.0
H1099 H 0.99009 0.08616 0.91194 0.0
H1100 H 0.03406 0.11942 0.99505 0.0
H1101 H 0.04934 0.11787 0.90894 0.0
H1102 H 0.02687 0.07553 0.86641 0.0
C1103 C 0.99126 0.08018 0.05217 0.0
C1104 C 0.98818 0.08983 0.09767 0.0
C1105 C 0.99722 0.10297 0.10582 0.0
C1106 C 0.00894 0.10661 0.06867 0.0
C1107 C 0.01154 0.09695 0.02384 0.0
C1108 C 0.00303 0.08395 0.01565 0.0
C1109 C 0.00785 0.07571 0.96332 0.0
C1110 C 0.01423 0.05991 0.97719 0.0
C1111 C 0.99466 0.07468 0.92146 0.0
C1112 C 0.0202 0.08626 0.94282 0.0
C1113 C 0.02222 0.0984 0.97838 0.0
C1114 C 0.03267 0.10989 0.9671 0.0
C1115 C 0.04127 0.10892 0.91806 0.0
C1116 C 0.03933 0.09658 0.88101 0.0
C1117 C 0.0287 0.08508 0.89399 0.0
H1118 H 0.65562 0.24552 0.61077 0.0
H1119 H 0.64814 0.28883 0.69247 0.0
H1120 H 0.64774 0.27582 0.78376 0.0
H1121 H 0.63188 0.22277 0.70257 0.0
H1122 H 0.64459 0.20675 0.70022 0.0
H1123 H 0.64332 0.21943 0.64156 0.0
H1124 H 0.67238 0.22395 0.64616 0.0
H1125 H 0.67375 0.21136 0.70494 0.0
H1126 H 0.68079 0.23052 0.7102 0.0
H1127 H 0.6496 0.25811 0.86622 0.0
H1128 H 0.6531 0.23718 0.93332 0.0
H1129 H 0.65937 0.20564 0.79638 0.0
C1130 C 0.65373 0.2523 0.64772 0.0
C1131 C 0.65189 0.2682 0.64453 0.0
C1132 C 0.64952 0.27663 0.69396 0.0
C1133 C 0.64928 0.26934 0.74593 0.0
C1134 C 0.65136 0.25365 0.74754 0.0
C1135 C 0.65346 0.24524 0.69966 0.0
C1136 C 0.65595 0.22861 0.71255 0.0
C1137 C 0.64317 0.21882 0.68776 0.0
C1138 C 0.67165 0.22331 0.69227 0.0
C1139 C 0.65514 0.22898 0.77534 0.0
C1140 C 0.65242 0.2435 0.79477 0.0
C1141 C 0.65162 0.24669 0.85145 0.0
C1142 C 0.65365 0.23472 0.88921 0.0
C1143 C 0.65649 0.21976 0.87008 0.0
C1144 C 0.65716 0.21692 0.81235 0.0
H1145 H 0.4718 0.91363 0.26274 0.0
H1146 H 0.50985 0.90769 0.14982 0.0
H1147 H 0.52761 0.91 0.229 0.0
H1148 H 0.48868 0.94163 0.34664 0.0
H1149 H 0.48057 0.93483 0.41087 0.0
H1150 H 0.47083 0.9316 0.34609 0.0
H1151 H 0.47047 0.90265 0.36549 0.0
H1152 H 0.4801 0.9058 0.43063 0.0
H1153 H 0.48804 0.89293 0.38012 0.0
H1154 H 0.5412 0.91448 0.31983 0.0
H1155 H 0.54959 0.91978 0.41599 0.0
H1156 H 0.5025 0.92281 0.4685 0.0
C1157 C 0.48386 0.91259 0.25463 0.0
C1158 C 0.48944 0.91045 0.20008 0.0
C1159 C 0.50531 0.90929 0.19129 0.0
C1160 C 0.51548 0.9106 0.23597 0.0
C1161 C 0.50959 0.91302 0.28905 0.0
C1162 C 0.49414 0.91389 0.29858 0.0
C1163 C 0.4907 0.91703 0.35917 0.0
C1164 C 0.4822 0.93217 0.36606 0.0
C1165 C 0.48181 0.90381 0.38539 0.0
C1166 C 0.50665 0.91798 0.3822 0.0
C1167 C 0.51739 0.9156 0.34118 0.0
C1168 C 0.5329 0.91626 0.35237 0.0
C1169 C 0.53754 0.91932 0.40707 0.0
C1170 C 0.5267 0.92169 0.44978 0.0
C1171 C 0.51107 0.92101 0.43689 0.0
H1172 H 0.85556 0.20985 0.19196 0.0
H1173 H 0.83425 0.23812 0.0662 0.0
H1174 H 0.83511 0.25996 0.13053 0.0
H1175 H 0.8359 0.2244 0.30606 0.0
H1176 H 0.85174 0.22354 0.3535 0.0
H1177 H 0.85075 0.21059 0.29576 0.0
H1178 H 0.87726 0.21957 0.26231 0.0
H1179 H 0.87832 0.23259 0.32004 0.0
H1180 H 0.88056 0.23949 0.24988 0.0
H1181 H 0.83583 0.27788 0.21176 0.0
H1182 H 0.83681 0.29065 0.30327 0.0
H1183 H 0.85849 0.25091 0.37451 0.0
C1184 C 0.85125 0.22068 0.17762 0.0
C1185 C 0.84482 0.22228 0.12409 0.0
C1186 C 0.83926 0.23663 0.107 0.0
C1187 C 0.83973 0.24911 0.14319 0.0
C1188 C 0.84596 0.24709 0.19598 0.0
C1189 C 0.85173 0.23325 0.21299 0.0
C1190 C 0.85711 0.23385 0.27278 0.0
C1191 C 0.84835 0.22242 0.30915 0.0
C1192 C 0.87434 0.23122 0.27644 0.0
C1193 C 0.85304 0.25005 0.28732 0.0
C1194 C 0.84671 0.25753 0.24238 0.0
C1195 C 0.84101 0.27223 0.24697 0.0
C1196 C 0.84159 0.27938 0.29908 0.0
C1197 C 0.84788 0.27182 0.34575 0.0
C1198 C 0.85392 0.25709 0.33933 0.0
H1199 H 0.48322 0.11158 0.15985 0.0
H1200 H 0.45511 0.07361 0.10817 0.0
H1201 H 0.46693 0.07432 0.01519 0.0
H1202 H 0.48377 0.1315 0.02407 0.0
H1203 H 0.50332 0.13716 0.0321 0.0
H1204 H 0.49143 0.13484 0.09256 0.0
H1205 H 0.51083 0.11584 0.13412 0.0
H1206 H 0.52274 0.11805 0.07383 0.0
H1207 H 0.51633 0.09942 0.09414 0.0
H1208 H 0.48326 0.07751 0.93135 0.0
H1209 H 0.50317 0.08295 0.86198 0.0
H1210 H 0.52079 0.11882 0.96781 0.0
C1211 C 0.47932 0.10363 0.12862 0.0
C1212 C 0.4682 0.09259 0.14118 0.0
C1213 C 0.4636 0.08219 0.09947 0.0
C1214 C 0.4702 0.08253 0.04645 0.0
C1215 C 0.48135 0.09336 0.03575 0.0
C1216 C 0.48585 0.10376 0.07551 0.0
C1217 C 0.49883 0.1135 0.05457 0.0
C1218 C 0.49405 0.13024 0.05058 0.0
C1219 C 0.51302 0.11158 0.09135 0.0
C1220 C 0.50118 0.10666 0.9974 0.0
C1221 C 0.49086 0.09517 0.98718 0.0
C1222 C 0.49129 0.08661 0.93852 0.0
C1223 C 0.50267 0.08976 0.89946 0.0
C1224 C 0.5135 0.10134 0.90939 0.0
C1225 C 0.51257 0.11002 0.9587 0.0
H1226 H 0.65505 0.71533 0.90904 0.0
H1227 H 0.64283 0.7531 0.01626 0.0
H1228 H 0.64488 0.77057 0.93645 0.0
H1229 H 0.68263 0.7348 0.8298 0.0
H1230 H 0.67787 0.72576 0.76481 0.0
H1231 H 0.67456 0.71599 0.82951 0.0
H1232 H 0.64621 0.71245 0.80349 0.0
H1233 H 0.64945 0.72212 0.73849 0.0
H1234 H 0.63495 0.7288 0.78538 0.0
H1235 H 0.64979 0.78414 0.84698 0.0
H1236 H 0.6561 0.79282 0.75221 0.0
H1237 H 0.66477 0.74621 0.70269 0.0
C1238 C 0.65262 0.72725 0.91565 0.0
C1239 C 0.64877 0.73285 0.96892 0.0
C1240 C 0.64577 0.74853 0.97584 0.0
C1241 C 0.64691 0.75856 0.93078 0.0
C1242 C 0.65097 0.7527 0.87907 0.0
C1243 C 0.65366 0.73741 0.87112 0.0
C1244 C 0.65822 0.73412 0.81156 0.0
C1245 C 0.67427 0.72727 0.80879 0.0
C1246 C 0.64651 0.72376 0.78305 0.0
C1247 C 0.65787 0.74999 0.7875 0.0
C1248 C 0.65366 0.76053 0.82716 0.0
C1249 C 0.65298 0.77599 0.81539 0.0
C1250 C 0.65664 0.7808 0.7615 0.0
C1251 C 0.66089 0.77019 0.72003 0.0
C1252 C 0.66146 0.75458 0.73336 0.0
H1253 H 0.99509 0.93971 0.44892 0.0
H1254 H 0.9763 0.89524 0.41214 0.0
H1255 H 0.99109 0.88425 0.48937 0.0
H1256 H 0.0331 0.92642 0.489 0.0
H1257 H 0.03493 0.94034 0.54358 0.0
H1258 H 0.0237 0.94452 0.48276 0.0
H1259 H 0.00054 0.95046 0.54565 0.0
H1260 H 0.01166 0.94626 0.60655 0.0
H1261 H 0.99404 0.93637 0.5946 0.0
H1262 H 0.00634 0.87843 0.57508 0.0
H1263 H 0.0216 0.87816 0.66145 0.0
H1264 H 0.03075 0.92628 0.64106 0.0
C1265 C 0.99424 0.92762 0.45657 0.0
C1266 C 0.98453 0.91835 0.42441 0.0
C1267 C 0.98367 0.90259 0.43612 0.0
C1268 C 0.99204 0.89622 0.47989 0.0
C1269 C 0.00131 0.90572 0.51135 0.0
C1270 C 0.00255 0.92106 0.50001 0.0
C1271 C 0.01287 0.92887 0.54149 0.0
C1272 C 0.02699 0.93542 0.51246 0.0
C1273 C 0.00426 0.94121 0.57399 0.0
C1274 C 0.01697 0.91559 0.57853 0.0
C1275 C 0.01025 0.90232 0.56036 0.0
C1276 C 0.01182 0.88871 0.58938 0.0
C1277 C 0.02047 0.88867 0.63845 0.0
C1278 C 0.02743 0.90216 0.65785 0.0
C1279 C 0.02573 0.91573 0.62704 0.0
H1280 H 0.67191 0.76101 0.45749 0.0
H1281 H 0.62601 0.77766 0.43191 0.0
H1282 H 0.6227 0.75951 0.35454 0.0
H1283 H 0.68131 0.75656 0.31577 0.0
H1284 H 0.69225 0.73948 0.32579 0.0
H1285 H 0.69067 0.7531 0.3813 0.0
H1286 H 0.68033 0.73216 0.44692 0.0
H1287 H 0.68189 0.71845 0.39158 0.0
H1288 H 0.66395 0.72125 0.42619 0.0
H1289 H 0.62495 0.74076 0.2767 0.0
H1290 H 0.6324 0.72239 0.20433 0.0
H1291 H 0.67674 0.71769 0.28161 0.0
C1292 C 0.6611 0.76077 0.43599 0.0
C1293 C 0.64921 0.77076 0.45073 0.0
C1294 C 0.63527 0.7701 0.42141 0.0
C1295 C 0.63328 0.75982 0.37746 0.0
C1296 C 0.64529 0.75024 0.36369 0.0
C1297 C 0.6589 0.75057 0.39222 0.0
C1298 C 0.67019 0.73941 0.36801 0.0
C1299 C 0.68444 0.74764 0.34643 0.0
C1300 C 0.67433 0.72709 0.41073 0.0
C1301 C 0.66088 0.73294 0.3207 0.0
C1302 C 0.64654 0.7393 0.3191 0.0
C1303 C 0.6361 0.73559 0.27781 0.0
C1304 C 0.64046 0.72517 0.23682 0.0
C1305 C 0.65514 0.71857 0.23745 0.0
C1306 C 0.6654 0.72242 0.28035 0.0
H1307 H 0.50603 0.39673 0.63992 0.0
H1308 H 0.46164 0.39393 0.56189 0.0
H1309 H 0.47347 0.39859 0.47007 0.0
H1310 H 0.5194 0.42717 0.56015 0.0
H1311 H 0.53869 0.42044 0.55623 0.0
H1312 H 0.527 0.41536 0.61475 0.0
H1313 H 0.53183 0.38682 0.59551 0.0
H1314 H 0.5437 0.3918 0.53724 0.0
H1315 H 0.52781 0.37917 0.52749 0.0
H1316 H 0.49011 0.40498 0.38757 0.0
H1317 H 0.51023 0.4123 0.32096 0.0
H1318 H 0.54334 0.41162 0.45484 0.0
C1319 C 0.49879 0.39679 0.60348 0.0
C1320 C 0.48292 0.39486 0.60799 0.0
C1321 C 0.47385 0.3953 0.55933 0.0
C1322 C 0.48045 0.39795 0.50705 0.0
C1323 C 0.49611 0.40016 0.50433 0.0
C1324 C 0.50516 0.39955 0.55128 0.0
C1325 C 0.52155 0.40311 0.53784 0.0
C1326 C 0.52697 0.41737 0.56909 0.0
C1327 C 0.53183 0.38941 0.55024 0.0
C1328 C 0.52032 0.406 0.47602 0.0
C1329 C 0.50559 0.40414 0.45731 0.0
C1330 C 0.50169 0.4064 0.40172 0.0
C1331 C 0.51318 0.41058 0.36426 0.0
C1332 C 0.52834 0.41257 0.38275 0.0
C1333 C 0.53187 0.41025 0.43941 0.0
H1334 H 0.84069 0.27043 0.64218 0.0
H1335 H 0.82597 0.23363 0.53472 0.0
H1336 H 0.82863 0.21564 0.61311 0.0
H1337 H 0.86835 0.24871 0.72234 0.0
H1338 H 0.86384 0.25838 0.78633 0.0
H1339 H 0.86174 0.26807 0.72073 0.0
H1340 H 0.83362 0.27393 0.74423 0.0
H1341 H 0.83561 0.26427 0.8098 0.0
H1342 H 0.82098 0.25855 0.76171 0.0
H1343 H 0.83156 0.202 0.70492 0.0
H1344 H 0.83425 0.19385 0.80281 0.0
H1345 H 0.84703 0.23976 0.84908 0.0
C1346 C 0.83817 0.25856 0.63481 0.0
C1347 C 0.83313 0.25342 0.58227 0.0
C1348 C 0.82986 0.23782 0.57459 0.0
C1349 C 0.83137 0.22751 0.61883 0.0
C1350 C 0.83622 0.23301 0.67025 0.0
C1351 C 0.8396 0.24817 0.67834 0.0
C1352 C 0.84395 0.25135 0.7381 0.0
C1353 C 0.86045 0.25696 0.74209 0.0
C1354 C 0.83287 0.26269 0.76503 0.0
C1355 C 0.84223 0.23565 0.76273 0.0
C1356 C 0.83788 0.22519 0.72292 0.0
C1357 C 0.83508 0.21007 0.73635 0.0
C1358 C 0.83663 0.20555 0.79207 0.0
C1359 C 0.84088 0.21616 0.8336 0.0
C1360 C 0.84386 0.23134 0.81834 0.0
H1361 H 0.99637 0.59047 0.14423 0.0
H1362 H 0.03906 0.61018 0.09002 0.0
H1363 H 0.02941 0.6111 0.99332 0.0
H1364 H 0.99156 0.56634 0.02895 0.0
H1365 H 0.97122 0.56844 0.02616 0.0
H1366 H 0.98103 0.57055 0.0914 0.0
H1367 H 0.96928 0.59732 0.10408 0.0
H1368 H 0.95935 0.59526 0.03897 0.0
H1369 H 0.97164 0.61133 0.05008 0.0
H1370 H 0.01516 0.60902 0.90189 0.0
H1371 H 0.99784 0.60353 0.82331 0.0
H1372 H 0.96513 0.58434 0.93877 0.0
C1373 C 0.00364 0.5952 0.11226 0.0
C1374 C 0.01843 0.60035 0.12464 0.0
C1375 C 0.02766 0.60622 0.0814 0.0
C1376 C 0.02227 0.6068 0.02644 0.0
C1377 C 0.00768 0.60142 0.0156 0.0
C1378 C -0.00148 0.59572 0.05737 0.0
C1379 C 0.9836 0.5899 0.03469 0.0
C1380 C 0.98176 0.5728 0.04597 0.0
C1381 C 0.97018 0.599 0.05836 0.0
C1382 C 0.98584 0.59306 0.97346 0.0
C1383 C -0.00029 0.59985 0.96319 0.0
C1384 C 0.00426 0.60374 0.90948 0.0
C1385 C 0.99436 0.60058 0.86517 0.0
C1386 C 0.98019 0.59345 0.87496 0.0
C1387 C 0.97593 0.58971 0.92989 0.0
H1388 H 0.67071 0.27317 0.31145 0.0
H1389 H 0.63043 0.26468 0.41078 0.0
H1390 H 0.62381 0.24305 0.34986 0.0
H1391 H 0.65461 0.26385 0.17806 0.0
H1392 H 0.6717 0.25488 0.15315 0.0
H1393 H 0.67287 0.26991 0.20369 0.0
H1394 H 0.68808 0.25223 0.26958 0.0
H1395 H 0.68685 0.23711 0.21939 0.0
H1396 H 0.68013 0.23416 0.28943 0.0
H1397 H 0.62151 0.22246 0.27685 0.0
H1398 H 0.62405 0.20434 0.19857 0.0
H1399 H 0.66645 0.22592 0.151 0.0
C1400 C 0.66042 0.26686 0.32008 0.0
C1401 C 0.65103 0.27064 0.36553 0.0
C1402 C 0.63777 0.26196 0.37602 0.0
C1403 C 0.63392 0.24967 0.34171 0.0
C1404 C 0.64352 0.24615 0.2975 0.0
C1405 C 0.65652 0.25447 0.28678 0.0
C1406 C 0.66513 0.24814 0.23758 0.0
C1407 C 0.66613 0.2599 0.19033 0.0
C1408 C 0.68098 0.24258 0.25507 0.0
C1409 C 0.6549 0.23503 0.22205 0.0
C1410 C 0.64246 0.23407 0.25686 0.0
C1411 C 0.63126 0.22305 0.24949 0.0
C1412 C 0.63279 0.21282 0.20501 0.0
C1413 C 0.64548 0.21365 0.16898 0.0
C1414 C 0.65669 0.22485 0.17815 0.0
H1415 H 0.99566 0.42483 0.59297 0.0
H1416 H 0.96929 0.38331 0.57947 0.0
H1417 H 0.98217 0.37731 0.49109 0.0
H1418 H 0.99461 0.43448 0.45024 0.0
H1419 H 0.01373 0.44177 0.44789 0.0
H1420 H 0.00316 0.44239 0.51196 0.0
H1421 H 0.02462 0.42758 0.56197 0.0
H1422 H 0.03529 0.42696 0.49804 0.0
H1423 H 0.03082 0.40961 0.53427 0.0
H1424 H 0.99672 0.37653 0.40167 0.0
H1425 H 0.01244 0.38079 0.31804 0.0
H1426 H 0.02954 0.42264 0.3901 0.0
C1427 C 0.99271 0.41439 0.57179 0.0
C1428 C 0.98147 0.40454 0.59321 0.0
C1429 C 0.97787 0.39104 0.56394 0.0
C1430 C 0.98513 0.38751 0.51371 0.0
C1431 C 0.99601 0.39755 0.4934 0.0
C1432 C -0.00014 0.41067 0.52159 0.0
C1433 C 0.01159 0.41977 0.48976 0.0
C1434 C 0.00539 0.43553 0.47403 0.0
C1435 C 0.02646 0.42105 0.523 0.0
C1436 C 0.01356 0.40982 0.43891 0.0
C1437 C 0.00451 0.39704 0.44192 0.0
C1438 C 0.00397 0.38643 0.39901 0.0
C1439 C 0.01291 0.38897 0.35163 0.0
C1440 C 0.02226 0.40201 0.3476 0.0
C1441 C 0.02262 0.41249 0.39211 0.0
H1442 H 0.82378 0.74539 0.84925 0.0
H1443 H 0.8517 0.70509 0.83042 0.0
H1444 H 0.86264 0.71565 0.74435 0.0
H1445 H 0.81521 0.74978 0.70535 0.0
H1446 H 0.8158 0.77022 0.70672 0.0
H1447 H 0.81075 0.75985 0.76857 0.0
H1448 H 0.83231 0.77339 0.82278 0.0
H1449 H 0.83748 0.78375 0.76094 0.0
H1450 H 0.8515 0.7725 0.79681 0.0
H1451 H 0.86989 0.73006 0.65846 0.0
H1452 H 0.87212 0.74697 0.57682 0.0
H1453 H 0.83954 0.77784 0.65158 0.0
C1454 C 0.83226 0.73883 0.82724 0.0
C1455 C 0.83688 0.72442 0.84667 0.0
C1456 C 0.84794 0.71614 0.81635 0.0
C1457 C 0.85429 0.72207 0.7675 0.0
C1458 C 0.84948 0.73629 0.74943 0.0
C1459 C 0.83869 0.74455 0.7782 0.0
C1460 C 0.83503 0.75926 0.74846 0.0
C1461 C 0.8182 0.7598 0.73125 0.0
C1462 C 0.83934 0.77304 0.7844 0.0
C1463 C 0.84534 0.75787 0.69826 0.0
C1464 C 0.85365 0.74459 0.69979 0.0
C1465 C 0.86353 0.74056 0.65694 0.0
C1466 C 0.86473 0.75024 0.61077 0.0
C1467 C 0.85607 0.76376 0.60785 0.0
C1468 C 0.84645 0.76768 0.65273 0.0
H1469 H 0.50188 0.59048 0.03573 0.0
H1470 H 0.4665 0.57397 0.14616 0.0
H1471 H 0.44842 0.57378 0.06758 0.0
H1472 H 0.47764 0.6147 0.94986 0.0
H1473 H 0.4877 0.61014 0.88672 0.0
H1474 H 0.49755 0.61 0.95246 0.0
H1475 H 0.50605 0.58225 0.93486 0.0
H1476 H 0.49626 0.58231 0.86913 0.0
H1477 H 0.49193 0.56797 0.92027 0.0
H1478 H 0.43463 0.57403 0.97605 0.0
H1479 H 0.42627 0.57416 0.87804 0.0
H1480 H 0.47073 0.59049 0.82762 0.0
C1481 C 0.49029 0.58698 0.04363 0.0
C1482 C 0.4856 0.58227 0.09717 0.0
C1483 C 0.47036 0.57765 0.10554 0.0
C1484 C 0.45999 0.57754 0.0612 0.0
C1485 C 0.46503 0.58214 0.00887 0.0
C1486 C 0.47982 0.58679 -9e-05 0.0
C1487 C 0.48257 0.59047 0.93919 0.0
C1488 C 0.4866 0.60733 0.93163 0.0
C1489 C 0.49493 0.58013 0.91442 0.0
C1490 C 0.46709 0.58691 0.91517 0.0
C1491 C 0.4571 0.58225 0.9561 0.0
C1492 C 0.44231 0.57778 0.94369 0.0
C1493 C 0.43768 0.57788 0.88786 0.0
C1494 C 0.44783 0.58237 0.84511 0.0
C1495 C 0.46265 0.58713 0.8593 0.0
H1496 H 0.35985 0.23692 0.61388 0.0
H1497 H 0.33917 0.19687 0.68675 0.0
H1498 H 0.33912 0.2094 0.77883 0.0
H1499 H 0.38323 0.24811 0.73512 0.0
H1500 H 0.37974 0.26802 0.72358 0.0
H1501 H 0.38012 0.25508 0.6655 0.0
H1502 H 0.35323 0.26405 0.63642 0.0
H1503 H 0.35271 0.2769 0.69451 0.0
H1504 H 0.33789 0.26298 0.68598 0.0
H1505 H 0.33949 0.22707 0.86115 0.0
H1506 H 0.33953 0.24872 0.92654 0.0
H1507 H 0.35896 0.27743 0.79805 0.0
C1508 C 0.35569 0.23063 0.64947 0.0
C1509 C 0.34967 0.21588 0.64342 0.0
C1510 C 0.34392 0.20816 0.69066 0.0
C1511 C 0.34388 0.21516 0.74308 0.0
C1512 C 0.34957 0.22988 0.74737 0.0
C1513 C 0.35538 0.23752 0.70181 0.0
C1514 C 0.35951 0.25371 0.71626 0.0
C1515 C 0.37667 0.25638 0.70974 0.0
C1516 C 0.35028 0.26507 0.68122 0.0
C1517 C 0.35481 0.25411 0.77676 0.0
C1518 C 0.34933 0.2402 0.79423 0.0
C1519 C 0.34388 0.23797 0.84807 0.0
C1520 C 0.34393 0.25034 0.88487 0.0
C1521 C 0.34921 0.26475 0.8673 0.0
C1522 C 0.35484 0.26655 0.8127 0.0
H1523 H 0.47637 0.56047 0.56435 0.0
H1524 H 0.44731 0.59998 0.5818 0.0
H1525 H 0.45987 0.6119 0.5012 0.0
H1526 H 0.51067 0.58089 0.51777 0.0
H1527 H 0.51583 0.56624 0.46897 0.0
H1528 H 0.50562 0.56141 0.53154 0.0
H1529 H 0.48467 0.54851 0.47236 0.0
H1530 H 0.49477 0.55333 0.4097 0.0
H1531 H 0.47531 0.55922 0.41836 0.0
H1532 H 0.47431 0.61887 0.41535 0.0
H1533 H 0.48935 0.62014 0.32877 0.0
H1534 H 0.50872 0.57595 0.36592 0.0
C1535 C 0.47286 0.57174 0.55184 0.0
C1536 C 0.46091 0.57932 0.5795 0.0
C1537 C 0.45644 0.59396 0.56122 0.0
C1538 C 0.46354 0.60086 0.5156 0.0
C1539 C 0.47509 0.59299 0.48863 0.0
C1540 C 0.47975 0.57876 0.50601 0.0
C1541 C 0.49173 0.57235 0.46741 0.0
C1542 C 0.50686 0.57009 0.49827 0.0
C1543 C 0.48629 0.55748 0.44036 0.0
C1544 C 0.49285 0.58506 0.42511 0.0
C1545 C 0.48328 0.59693 0.43847 0.0
C1546 C 0.48194 0.60971 0.40464 0.0
C1547 C 0.49052 0.61032 0.35552 0.0
C1548 C 0.50022 0.59817 0.34054 0.0
C1549 C 0.50147 0.58547 0.37628 0.0
H1550 H 0.17515 0.74899 0.3621 0.0
H1551 H 0.12786 0.74521 0.41135 0.0
H1552 H 0.12072 0.76333 0.3374 0.0
H1553 H 0.17422 0.7895 0.32378 0.0
H1554 H 0.18683 0.7867 0.26558 0.0
H1555 H 0.18833 0.77468 0.32604 0.0
H1556 H 0.18511 0.7509 0.26361 0.0
H1557 H 0.18355 0.76283 0.20311 0.0
H1558 H 0.16871 0.74941 0.219 0.0
H1559 H 0.11852 0.78017 0.25256 0.0
H1560 H 0.12157 0.79436 0.16434 0.0
H1561 H 0.17028 0.78697 0.1719 0.0
C1562 C 0.16332 0.75217 0.3581 0.0
C1563 C 0.15208 0.74571 0.39266 0.0
C1564 C 0.1367 0.75004 0.38547 0.0
C1565 C 0.13252 0.76035 0.34364 0.0
C1566 C 0.14387 0.76628 0.30957 0.0
C1567 C 0.15897 0.76241 0.31659 0.0
C1568 C 0.16886 0.76962 0.27243 0.0
C1569 C 0.18023 0.78079 0.29853 0.0
C1570 C 0.17703 0.75746 0.23748 0.0
C1571 C 0.15693 0.77786 0.23869 0.0
C1572 C 0.1426 0.77593 0.26092 0.0
C1573 C 0.12972 0.78191 0.23514 0.0
C1574 C 0.13155 0.78993 0.18503 0.0
C1575 C 0.14615 0.79182 0.16125 0.0
C1576 C 0.15896 0.78585 0.18909 0.0
H1577 H 0.96798 0.41155 0.89478 0.0
H1578 H 0.99667 0.37625 0.82511 0.0
H1579 H 0.01366 0.37819 0.90651 0.0
H1580 H 0.99754 0.43443 0.94688 0.0
H1581 H 0.98762 0.44003 0.0092 0.0
H1582 H 0.97708 0.43514 0.94757 0.0
H1583 H 0.96206 0.41486 0.00304 0.0
H1584 H 0.97249 0.41975 0.065 0.0
H1585 H 0.97223 0.40039 0.04077 0.0
H1586 H 0.02836 0.38506 0.99205 0.0
H1587 H 0.03939 0.39579 0.07771 0.0
H1588 H 0.00105 0.42654 0.09223 0.0
C1589 C 0.97771 0.40406 0.89695 0.0
C1590 C 0.98097 0.39371 0.85357 0.0
C1591 C 0.99391 0.38423 0.85785 0.0
C1592 C 0.00363 0.38525 0.90392 0.0
C1593 C 0.00022 0.39575 0.94542 0.0
C1594 C 0.98752 0.40492 0.9426 0.0
C1595 C 0.98673 0.41563 0.99185 0.0
C1596 C 0.98728 0.43229 0.97271 0.0
C1597 C 0.97254 0.41246 0.02726 0.0
C1598 C 0.0011 0.41119 0.02243 0.0
C1599 C 0.00868 0.39968 0.99498 0.0
C1600 C 0.02246 0.39399 0.01417 0.0
C1601 C 0.02866 0.40021 0.06278 0.0
C1602 C 0.02107 0.412 0.09177 0.0
C1603 C 0.00707 0.41748 0.07126 0.0
H1604 H 0.32495 0.77667 0.8593 0.0
H1605 H 0.35099 0.74193 0.94505 0.0
H1606 H 0.34764 0.72478 0.86482 0.0
H1607 H 0.29775 0.7517 0.79789 0.0
H1608 H 0.29652 0.76209 0.73341 0.0
H1609 H 0.30131 0.77186 0.79687 0.0
H1610 H 0.32597 0.78202 0.75133 0.0
H1611 H 0.32124 0.77232 0.68765 0.0
H1612 H 0.33924 0.76882 0.72096 0.0
H1613 H 0.34107 0.71125 0.77663 0.0
H1614 H 0.33197 0.70221 0.68556 0.0
H1615 H 0.31013 0.74572 0.65673 0.0
C1616 C 0.33003 0.76549 0.86115 0.0
C1617 C 0.33826 0.76065 0.90852 0.0
C1618 C 0.34466 0.7459 0.90926 0.0
C1619 C 0.34282 0.73608 0.86389 0.0
C1620 C 0.33456 0.74117 0.81809 0.0
C1621 C 0.3283 0.75553 0.81626 0.0
C1622 C 0.31977 0.75811 0.76226 0.0
C1623 C 0.30283 0.76111 0.77329 0.0
C1624 C 0.32699 0.77109 0.72856 0.0
C1625 C 0.32217 0.74292 0.73413 0.0
C1626 C 0.33074 0.73333 0.76708 0.0
C1627 C 0.33437 0.71865 0.75038 0.0
C1628 C 0.32911 0.71363 0.69855 0.0
C1629 C 0.32031 0.72325 0.66391 0.0
C1630 C 0.31683 0.73809 0.68215 0.0
H1631 H 0.9896 0.56305 0.6488 0.0
H1632 H 0.95258 0.5932 0.60377 0.0
H1633 H 0.96595 0.59978 0.51649 0.0
H1634 H 0.01938 0.58667 0.59942 0.0
H1635 H 0.03088 0.57114 0.57479 0.0
H1636 H 0.01805 0.5683 0.63218 0.0
H1637 H 0.00517 0.54611 0.57928 0.0
H1638 H 0.01799 0.54886 0.52175 0.0
H1639 H 0.99777 0.54929 0.5103 0.0
H1640 H 0.98361 0.60323 0.43468 0.0
H1641 H 0.00442 0.60375 0.36574 0.0
H1642 H 0.02997 0.57179 0.46657 0.0
C1643 C 0.98421 0.57094 0.62044 0.0
C1644 C 0.97002 0.57757 0.63291 0.0
C1645 C 0.96345 0.58797 0.59495 0.0
C1646 C 0.97094 0.59176 0.5453 0.0
C1647 C 0.98498 0.58508 0.5345 0.0
C1648 C 0.99155 0.57492 0.57107 0.0
C1649 C 0.00693 0.56967 0.55069 0.0
C1650 C 0.01955 0.57422 0.59171 0.0
C1651 C 0.00696 0.55246 0.53985 0.0
C1652 C 0.00804 0.57854 0.49699 0.0
C1653 C 0.99524 0.58728 0.48815 0.0
C1654 C 0.99368 0.59642 0.44117 0.0
C1655 C 0.00556 0.59664 0.40229 0.0
C1656 C 0.01883 0.58785 0.41092 0.0
C1657 C 0.02001 0.57869 0.45892 0.0
H1658 H 0.18555 0.26671 0.21323 0.0
H1659 H 0.14187 0.27084 0.13079 0.0
H1660 H 0.13083 0.25248 0.19718 0.0
H1661 H 0.18267 0.22621 0.2436 0.0
H1662 H 0.19202 0.22806 0.31001 0.0
H1663 H 0.19657 0.24096 0.25424 0.0
H1664 H 0.19003 0.2638 0.3179 0.0
H1665 H 0.18545 0.25098 0.37375 0.0
H1666 H 0.17162 0.26468 0.3506 0.0
H1667 H 0.12419 0.23487 0.27715 0.0
H1668 H 0.12283 0.21899 0.36211 0.0
H1669 H 0.17106 0.22607 0.38917 0.0
C1670 C 0.17369 0.26368 0.20879 0.0
C1671 C 0.16458 0.27023 0.16686 0.0
C1672 C 0.1491 0.26594 0.16252 0.0
C1673 C 0.14272 0.25552 0.20004 0.0
C1674 C 0.152 0.24938 0.24127 0.0
C1675 C 0.16718 0.25323 0.24553 0.0
C1676 C 0.17464 0.24531 0.29423 0.0
C1677 C 0.18722 0.23449 0.27431 0.0
C1678 C 0.18079 0.25688 0.33661 0.0
C1679 C 0.16123 0.23664 0.31735 0.0
C1680 C 0.14826 0.23908 0.28631 0.0
C1681 C 0.13432 0.23275 0.30142 0.0
C1682 C 0.13364 0.22376 0.34973 0.0
C1683 C 0.14684 0.22119 0.38211 0.0
C1684 C 0.16079 0.22764 0.36508 0.0
H1685 H 0.53297 0.42479 0.07867 0.0
H1686 H 0.54497 0.377 0.07382 0.0
H1687 H 0.52869 0.37364 0.99097 0.0
H1688 H 0.49472 0.42031 0.04524 0.0
H1689 H 0.49337 0.43717 0.00299 0.0
H1690 H 0.50714 0.43619 0.0582 0.0
H1691 H 0.52872 0.44219 0.98827 0.0
H1692 H 0.515 0.44331 0.93278 0.0
H1693 H 0.53093 0.43056 0.92707 0.0
H1694 H 0.50945 0.37506 0.91419 0.0
H1695 H 0.4893 0.38121 0.84671 0.0
H1696 H 0.48994 0.42817 0.90167 0.0
C1697 C 0.53241 0.41366 0.0597 0.0
C1698 C 0.54027 0.40115 0.08271 0.0
C1699 C 0.53911 0.38676 0.05682 0.0
C1700 C 0.52989 0.38474 0.00977 0.0
C1701 C 0.52202 0.39725 0.989 0.0
C1702 C 0.52329 0.41146 0.01283 0.0
C1703 C 0.51308 0.42288 0.98422 0.0
C1704 C 0.50139 0.42952 0.02511 0.0
C1705 C 0.5225 0.43548 0.95643 0.0
C1706 C 0.50557 0.4128 0.94134 0.0
C1707 C 0.51096 0.39808 0.94458 0.0
C1708 C 0.50527 0.38657 0.91084 0.0
C1709 C 0.49377 0.39019 0.8728 0.0
C1710 C 0.48805 0.4052 0.86882 0.0
C1711 C 0.49415 0.41663 0.90339 0.0
H1712 H 0.11478 0.32269 0.09402 0.0
H1713 H 0.15628 0.34931 0.09767 0.0
H1714 H 0.14216 0.37077 0.139 0.0
H1715 H 0.09001 0.35301 0.05627 0.0
H1716 H 0.07452 0.34628 0.09864 0.0
H1717 H 0.08806 0.33302 0.07074 0.0
H1718 H 0.09354 0.32305 0.1703 0.0
H1719 H 0.08009 0.33637 0.19856 0.0
H1720 H 0.09937 0.33619 0.22368 0.0
H1721 H 0.12329 0.38945 0.17898 0.0
H1722 H 0.10096 0.40419 0.21012 0.0
H1723 H 0.07214 0.36504 0.17994 0.0
C1724 C 0.12094 0.33301 0.10351 0.0
C1725 C 0.13663 0.33432 0.09267 0.0
C1726 C 0.14424 0.34806 0.10558 0.0
C1727 C 0.13634 0.36029 0.12924 0.0
C1728 C 0.12087 0.35856 0.13971 0.0
C1729 C 0.11325 0.34529 0.12702 0.0
C1730 C 0.09656 0.34642 0.14104 0.0
C1731 C 0.08671 0.34458 0.08855 0.0
C1732 C 0.09214 0.33482 0.18608 0.0
C1733 C 0.09593 0.36246 0.16319 0.0
C1734 C 0.11006 0.36927 0.16247 0.0
C1735 C 0.11217 0.38421 0.1799 0.0
C1736 C 0.09944 0.39248 0.19763 0.0
C1737 C 0.08481 0.38577 0.1975 0.0
C1738 C 0.08316 0.3705 0.18076 0.0
H1739 H 0.89622 0.81867 0.41645 0.0
H1740 H 0.85627 0.84425 0.46561 0.0
H1741 H 0.86856 0.8679 0.43369 0.0
H1742 H 0.92392 0.84695 0.45711 0.0
H1743 H 0.93625 0.84298 0.39905 0.0
H1744 H 0.92438 0.8282 0.42718 0.0
H1745 H 0.91276 0.82375 0.32939 0.0
H1746 H 0.92448 0.83862 0.30107 0.0
H1747 H 0.90415 0.83942 0.29286 0.0
H1748 H 0.88492 0.88863 0.39359 0.0
H1749 H 0.90475 0.90513 0.35319 0.0
H1750 H 0.93389 0.86584 0.33071 0.0
C1751 C 0.89009 0.82925 0.42098 0.0
C1752 C 0.87528 0.82961 0.44353 0.0
C1753 C 0.86764 0.8437 0.44855 0.0
C1754 C 0.8745 0.85718 0.4304 0.0
C1755 C 0.88901 0.85638 0.4075 0.0
C1756 C 0.89676 0.84279 0.40315 0.0
C1757 C 0.91221 0.84499 0.37682 0.0
C1758 C 0.92494 0.84052 0.41748 0.0
C1759 C 0.91346 0.83617 0.32177 0.0
C1760 C 0.91192 0.86194 0.36686 0.0
C1761 C 0.89843 0.8683 0.38468 0.0
C1762 C 0.89555 0.88379 0.37963 0.0
C1763 C 0.90686 0.89305 0.35647 0.0
C1764 C 0.92088 0.88678 0.33881 0.0
C1765 C 0.92331 0.87099 0.34375 0.0
H1766 H 0.36683 0.67138 0.57734 0.0
H1767 H 0.32724 0.64507 0.52935 0.0
H1768 H 0.34038 0.62154 0.55835 0.0
H1769 H 0.39517 0.64399 0.53332 0.0
H1770 H 0.40756 0.64817 0.59104 0.0
H1771 H 0.39521 0.66268 0.56389 0.0
H1772 H 0.38377 0.66655 0.66231 0.0
H1773 H 0.39597 0.65195 0.68965 0.0
H1774 H 0.3757 0.65056 0.69861 0.0
H1775 H 0.35765 0.60098 0.5968 0.0
H1776 H 0.37802 0.58506 0.63714 0.0
H1777 H 0.40589 0.62526 0.65975 0.0
C1778 C 0.36095 0.66067 0.57228 0.0
C1779 C 0.34601 0.66006 0.55103 0.0
C1780 C 0.33871 0.6458 0.54538 0.0
C1781 C 0.34606 0.63239 0.56186 0.0
C1782 C 0.36069 0.63345 0.58371 0.0
C1783 C 0.36808 0.64724 0.5885 0.0
C1784 C 0.38365 0.64542 0.61413 0.0
C1785 C 0.39613 0.65035 0.57314 0.0
C1786 C 0.38483 0.65414 0.66945 0.0
C1787 C 0.38386 0.62846 0.62348 0.0
C1788 C 0.37054 0.62172 0.60571 0.0
C1789 C 0.36814 0.60613 0.61065 0.0
C1790 C 0.37975 0.5972 0.63378 0.0
C1791 C 0.39355 0.60391 0.65162 0.0
C1792 C 0.3955 0.61976 0.64657 0.0
H1793 H 0.62712 0.1652 0.94249 0.0
H1794 H 0.64151 0.13715 0.08152 0.0
H1795 H 0.62321 0.11735 0.05278 0.0
H1796 H 0.58752 0.15565 0.94823 0.0
H1797 H 0.58522 0.15569 0.87369 0.0
H1798 H 0.59938 0.16761 0.90555 0.0
H1799 H 0.62014 0.15535 0.84369 0.0
H1800 H 0.60605 0.14337 0.81171 0.0
H1801 H 0.6225 0.13503 0.84422 0.0
H1802 H 0.60332 0.10066 0.00859 0.0
H1803 H 0.58333 0.08832 0.95262 0.0
H1804 H 0.58225 0.12736 0.84228 0.0
C1805 C 0.62643 0.15491 0.96708 0.0
C1806 C 0.63574 0.15272 0.01434 0.0
C1807 C 0.63449 0.13908 0.04519 0.0
C1808 C 0.62414 0.12777 0.02918 0.0
C1809 C 0.61518 0.1303 0.98225 0.0
C1810 C 0.61623 0.14354 0.95168 0.0
C1811 C 0.60537 0.14347 0.90284 0.0
C1812 C 0.59368 0.15637 0.90792 0.0
C1813 C 0.61404 0.14435 0.84734 0.0
C1814 C 0.59802 0.12811 0.91064 0.0
C1815 C 0.60382 0.12069 0.95669 0.0
C1816 C 0.59871 0.10636 0.97243 0.0
C1817 C 0.58735 0.09945 0.94033 0.0
C1818 C 0.58124 0.10687 0.893 0.0
C1819 C 0.58672 0.12137 0.87808 0.0
H1820 H 0.08433 0.62566 0.33428 0.0
H1821 H 0.04194 0.65085 0.32971 0.0
H1822 H 0.05414 0.67205 0.37912 0.0
H1823 H 0.09605 0.63768 0.47048 0.0
H1824 H 0.11587 0.6392 0.45263 0.0
H1825 H 0.10392 0.62585 0.41649 0.0
H1826 H 0.11144 0.63791 0.32204 0.0
H1827 H 0.12351 0.65122 0.35786 0.0
H1828 H 0.10887 0.65802 0.3117 0.0
H1829 H 0.07053 0.69031 0.4301 0.0
H1830 H 0.09072 0.70529 0.47501 0.0
H1831 H 0.12273 0.66862 0.44591 0.0
C1832 C 0.07764 0.63566 0.34347 0.0
C1833 C 0.06217 0.63657 0.32816 0.0
C1834 C 0.05381 0.64987 0.34092 0.0
C1835 C 0.06061 0.66197 0.36916 0.0
C1836 C 0.07581 0.66065 0.38418 0.0
C1837 C 0.08428 0.64792 0.3715 0.0
C1838 C 0.10049 0.64956 0.39189 0.0
C1839 C 0.1043 0.63734 0.43546 0.0
C1840 C 0.11174 0.64916 0.34295 0.0
C1841 C 0.09975 0.6652 0.41799 0.0
C1842 C 0.08538 0.67133 0.41329 0.0
C1843 C 0.08185 0.68566 0.434 0.0
C1844 C 0.0934 0.69406 0.45955 0.0
C1845 C 0.10831 0.68815 0.46398 0.0
C1846 C 0.11145 0.67345 0.44331 0.0
H1847 H 0.61482 0.82205 0.62544 0.0
H1848 H 0.65443 0.84639 0.56513 0.0
H1849 H 0.63993 0.87037 0.56762 0.0
H1850 H 0.58751 0.84305 0.54628 0.0
H1851 H 0.57331 0.84269 0.60028 0.0
H1852 H 0.58699 0.82757 0.59532 0.0
H1853 H 0.59501 0.8323 0.69767 0.0
H1854 H 0.58141 0.84751 0.70284 0.0
H1855 H 0.60113 0.85099 0.71848 0.0
H1856 H 0.62121 0.89165 0.57737 0.0
H1857 H 0.59903 0.90854 0.58723 0.0
H1858 H 0.5715 0.8701 0.63875 0.0
C1859 C 0.62047 0.83243 0.61289 0.0
C1860 C 0.63576 0.83239 0.5953 0.0
C1861 C 0.6427 0.84617 0.57868 0.0
C1862 C 0.63459 0.85985 0.58018 0.0
C1863 C 0.61955 0.8595 0.59806 0.0
C1864 C 0.61251 0.84614 0.61366 0.0
C1865 C 0.59609 0.84878 0.62942 0.0
C1866 C 0.58534 0.84 0.59049 0.0
C1867 C 0.59325 0.84465 0.69075 0.0
C1868 C 0.59497 0.86572 0.6201 0.0
C1869 C 0.60866 0.87171 0.60252 0.0
C1870 C 0.61042 0.8871 0.59106 0.0
C1871 C 0.59776 0.8966 0.59693 0.0
C1872 C 0.58353 0.89063 0.61365 0.0
C1873 C 0.58221 0.87501 0.62585 0.0
H1874 H 0.41389 0.37053 0.80949 0.0
H1875 H 0.45345 0.34126 0.79742 0.0
H1876 H 0.43985 0.32132 0.84918 0.0
H1877 H 0.40343 0.36027 0.94703 0.0
H1878 H 0.38326 0.36067 0.93432 0.0
H1879 H 0.39575 0.37254 0.89397 0.0
H1880 H 0.38532 0.3608 0.80277 0.0
H1881 H 0.37266 0.34901 0.84282 0.0
H1882 H 0.38561 0.34048 0.79389 0.0
H1883 H 0.42265 0.3051 0.906 0.0
H1884 H 0.40212 0.29273 0.95884 0.0
H1885 H 0.37345 0.33227 0.93344 0.0
C1886 C 0.41963 0.35986 0.81714 0.0
C1887 C 0.43475 0.35747 0.7994 0.0
C1888 C 0.44188 0.34337 0.8105 0.0
C1889 C 0.43426 0.33197 0.84001 0.0
C1890 C 0.4195 0.33481 0.85789 0.0
C1891 C 0.41218 0.34832 0.84645 0.0
C1892 C 0.39632 0.34848 0.87095 0.0
C1893 C 0.3946 0.36125 0.91413 0.0
C1894 C 0.38427 0.34977 0.82485 0.0
C1895 C 0.39595 0.33299 0.89835 0.0
C1896 C 0.40947 0.32534 0.89038 0.0
C1897 C 0.41197 0.31093 0.91228 0.0
C1898 C 0.40024 0.30403 0.94244 0.0
C1899 C 0.38616 0.31152 0.95029 0.0
C1900 C 0.38408 0.32625 0.92821 0.0
H1901 H 0.8677 0.15511 0.05167 0.0
H1902 H 0.89519 0.19341 0.99835 0.0
H1903 H 0.91779 0.18152 0.03994 0.0
H1904 H 0.88584 0.14945 0.18229 0.0
H1905 H 0.88496 0.12902 0.17988 0.0
H1906 H 0.87086 0.14016 0.14409 0.0
H1907 H 0.87719 0.12641 0.05165 0.0
H1908 H 0.89122 0.11512 0.08724 0.0
H1909 H 0.89653 0.12612 0.02702 0.0
H1910 H 0.93707 0.16638 0.0908 0.0
H1911 H 0.95246 0.14788 0.14292 0.0
H1912 H 0.91283 0.11895 0.16216 0.0
C1913 C 0.8785 0.16091 0.04824 0.0
C1914 C 0.87967 0.1752 0.02175 0.0
C1915 C 0.894 0.18245 0.01835 0.0
C1916 C 0.90692 0.17581 0.04194 0.0
C1917 C 0.90534 0.16187 0.06852 0.0
C1918 C 0.89156 0.1544 0.0714 0.0
C1919 C 0.89305 0.13955 0.1028 0.0
C1920 C 0.88309 0.13955 0.15538 0.0
C1921 C 0.88927 0.126 0.0649 0.0
C1922 C 0.90978 0.13994 0.11744 0.0
C1923 C 0.91661 0.15296 0.09738 0.0
C1924 C 0.9319 0.15608 0.10644 0.0
C1925 C 0.94052 0.14551 0.1363 0.0
C1926 C 0.93386 0.13195 0.15653 0.0
C1927 C 0.91826 0.12919 0.14707 0.0
H1928 H 0.883 0.67327 0.93025 0.0
H1929 H 0.84344 0.64485 0.95844 0.0
H1930 H 0.8575 0.62272 0.92169 0.0
H1931 H 0.89386 0.65703 0.80254 0.0
H1932 H 0.91397 0.65838 0.81555 0.0
H1933 H 0.90117 0.67172 0.8474 0.0
H1934 H 0.91144 0.66455 0.94507 0.0
H1935 H 0.92442 0.65132 0.91347 0.0
H1936 H 0.91143 0.64494 0.96653 0.0
H1937 H 0.87557 0.60404 0.87697 0.0
H1938 H 0.89666 0.58999 0.83283 0.0
H1939 H 0.92406 0.63098 0.83412 0.0
C1940 C 0.87732 0.66236 0.92944 0.0
C1941 C 0.86213 0.66078 0.94725 0.0
C1942 C 0.85511 0.64631 0.94519 0.0
C1943 C 0.86298 0.6337 0.92425 0.0
C1944 C 0.87785 0.63576 0.90583 0.0
C1945 C 0.88498 0.64971 0.90873 0.0
C1946 C 0.90088 0.64905 0.88516 0.0
C1947 C 0.90256 0.65968 0.83467 0.0
C1948 C 0.91274 0.65268 0.93025 0.0
C1949 C 0.90156 0.63258 0.86796 0.0
C1950 C 0.88818 0.62507 0.88021 0.0
C1951 C 0.88612 0.60978 0.86747 0.0
C1952 C 0.89814 0.60192 0.84222 0.0
C1953 C 0.91201 0.60939 0.83003 0.0
C1954 C 0.91362 0.62493 0.84285 0.0
H1955 H 0.12526 0.16535 0.57597 0.0
H1956 H 0.16054 0.16421 0.7023 0.0
H1957 H 0.14742 0.14311 0.74917 0.0
H1958 H 0.09412 0.15768 0.66868 0.0
H1959 H 0.084 0.14598 0.61956 0.0
H1960 H 0.09629 0.1609 0.595 0.0
H1961 H 0.11121 0.14142 0.53551 0.0
H1962 H 0.09897 0.12645 0.55988 0.0
H1963 H 0.11924 0.12488 0.56853 0.0
H1964 H 0.1307 0.1221 0.78241 0.0
H1965 H 0.111 0.10278 0.80067 0.0
H1966 H 0.08635 0.1178 0.65403 0.0
C1967 C 0.13024 0.16063 0.61338 0.0
C1968 C 0.14393 0.16642 0.63538 0.0
C1969 C 0.15004 0.15999 0.68463 0.0
C1970 C 0.1427 0.14797 0.7116 0.0
C1971 C 0.12922 0.14254 0.68896 0.0
C1972 C 0.123 0.14865 0.6411 0.0
C1973 C 0.10826 0.1408 0.62604 0.0
C1974 C 0.09488 0.15201 0.62743 0.0
C1975 C 0.1095 0.13292 0.56912 0.0
C1976 C 0.10722 0.12935 0.67291 0.0
C1977 C 0.11944 0.13051 0.70863 0.0
C1978 C 0.12104 0.12107 0.75481 0.0
C1979 C 0.10981 0.11013 0.7648 0.0
C1980 C 0.09713 0.10879 0.72889 0.0
C1981 C 0.09587 0.11856 0.68241 0.0
H1982 H 0.56656 0.36453 0.32388 0.0
H1983 H 0.59893 0.40136 0.30493 0.0
H1984 H 0.618 0.38653 0.35721 0.0
H1985 H 0.57716 0.35392 0.46262 0.0
H1986 H 0.5747 0.33387 0.45067 0.0
H1987 H 0.56358 0.34738 0.41184 0.0
H1988 H 0.57317 0.33574 0.31919 0.0
H1989 H 0.58419 0.32211 0.3577 0.0
H1990 H 0.59331 0.33413 0.30702 0.0
H1991 H 0.63338 0.36779 0.41266 0.0
H1992 H 0.64461 0.34577 0.46102 0.0
H1993 H 0.60215 0.32119 0.44256 0.0
C1994 C 0.57767 0.36948 0.33049 0.0
C1995 C 0.58126 0.38411 0.31034 0.0
C1996 C 0.59594 0.39015 0.31984 0.0
C1997 C 0.60682 0.38185 0.34972 0.0
C1998 C 0.60283 0.36754 0.36962 0.0
C1999 C 0.58865 0.36135 0.36001 0.0
C2000 C 0.5873 0.34564 0.38495 0.0
C2001 C 0.57496 0.34519 0.43021 0.0
C2002 C 0.58432 0.3337 0.3395 0.0
C2003 C 0.60298 0.34389 0.40983 0.0
C2004 C 0.61172 0.3567 0.40099 0.0
C2005 C 0.62665 0.3577 0.4198 0.0
C2006 C 0.63291 0.34514 0.44739 0.0
C2007 C 0.62427 0.33174 0.45555 0.0
C2008 C 0.60905 0.33126 0.4371 0.0
H2009 H 0.36601 0.83782 0.03713 0.0
H2010 H 0.39478 0.7993 0.99725 0.0
H2011 H 0.41749 0.8154 0.00873 0.0
H2012 H 0.38898 0.86659 0.96814 0.0
H2013 H 0.3855 0.88066 0.02105 0.0
H2014 H 0.37148 0.86627 0.00702 0.0
H2015 H 0.37188 0.85836 0.11093 0.0
H2016 H 0.38598 0.87265 0.1252 0.0
H2017 H 0.38964 0.8531 0.14289 0.0
H2018 H 0.43705 0.83532 0.02773 0.0
H2019 H 0.45223 0.85797 0.05089 0.0
H2020 H 0.41076 0.88351 0.0793 0.0
C2021 C 0.37707 0.83281 0.03015 0.0
C2022 C 0.37862 0.8173 0.01616 0.0
C2023 C 0.39331 0.81115 0.00796 0.0
C2024 C 0.40628 0.8202 0.01438 0.0
C2025 C 0.40437 0.83536 0.02903 0.0
C2026 C 0.39015 0.84166 0.03661 0.0
C2027 C 0.39126 0.85817 0.05367 0.0
C2028 C 0.38387 0.86853 0.00984 0.0
C2029 C 0.38428 0.86071 0.11161 0.0
C2030 C 0.40834 0.86014 0.0548 0.0
C2031 C 0.41567 0.84685 0.04035 0.0
C2032 C 0.43144 0.84581 0.03891 0.0
C2033 C 0.43996 0.85874 0.05227 0.0
C2034 C 0.43269 0.87252 0.06694 0.0
C2035 C 0.41666 0.87315 0.06831 0.0
H2036 H 0.93034 0.34873 0.66764 0.0
H2037 H 0.90231 0.38816 0.7026 0.0
H2038 H 0.88008 0.37492 0.66337 0.0
H2039 H 0.91406 0.3396 0.5386 0.0
H2040 H 0.91492 0.31932 0.5481 0.0
H2041 H 0.92846 0.33139 0.5826 0.0
H2042 H 0.92081 0.32003 0.67811 0.0
H2043 H 0.90736 0.30778 0.64382 0.0
H2044 H 0.90114 0.32019 0.69889 0.0
H2045 H 0.86142 0.35826 0.61348 0.0
H2046 H 0.84706 0.3384 0.56362 0.0
H2047 H 0.88714 0.30968 0.56301 0.0
C2048 C 0.91948 0.35451 0.66789 0.0
C2049 C 0.91808 0.36949 0.68815 0.0
C2050 C 0.90367 0.37666 0.68746 0.0
C2051 C 0.89097 0.36925 0.66512 0.0
C2052 C 0.89284 0.35464 0.64413 0.0
C2053 C 0.90668 0.34726 0.64602 0.0
C2054 C 0.9057 0.33169 0.61961 0.0
C2055 C 0.91642 0.33044 0.56924 0.0
C2056 C 0.90894 0.31918 0.66269 0.0
C2057 C 0.88923 0.33159 0.60174 0.0
C2058 C 0.88202 0.34494 0.61618 0.0
C2059 C 0.86689 0.34768 0.60245 0.0
C2060 C 0.85886 0.33637 0.57386 0.0
C2061 C 0.86596 0.32248 0.55957 0.0
C2062 C 0.88136 0.32014 0.57362 0.0
H2063 H 0.38758 0.17194 0.44962 0.0
H2064 H 0.34575 0.14585 0.44428 0.0
H2065 H 0.35979 0.12407 0.40491 0.0
H2066 H 0.40306 0.15835 0.32192 0.0
H2067 H 0.42233 0.15788 0.34721 0.0
H2068 H 0.40902 0.17129 0.37579 0.0
H2069 H 0.4143 0.161 0.47504 0.0
H2070 H 0.42769 0.14762 0.44682 0.0
H2071 H 0.41208 0.141 0.48885 0.0
H2072 H 0.37841 0.10535 0.36418 0.0
H2073 H 0.40038 0.09076 0.32903 0.0
H2074 H 0.4298 0.1293 0.36209 0.0
C2075 C 0.38135 0.16164 0.44042 0.0
C2076 C 0.36557 0.1606 0.44996 0.0
C2077 C 0.35786 0.1469 0.43737 0.0
C2078 C 0.36572 0.13449 0.4149 0.0
C2079 C 0.38126 0.13597 0.40549 0.0
C2080 C 0.389 0.14917 0.41817 0.0
C2081 C 0.40569 0.14788 0.40425 0.0
C2082 C 0.41029 0.15954 0.35963 0.0
C2083 C 0.41552 0.14946 0.45688 0.0
C2084 C 0.40615 0.13189 0.38161 0.0
C2085 C 0.39195 0.1252 0.38248 0.0
C2086 C 0.38959 0.11046 0.36341 0.0
C2087 C 0.40212 0.10228 0.34341 0.0
C2088 C 0.4168 0.10889 0.34287 0.0
C2089 C 0.41874 0.12391 0.36198 0.0
H2090 H 0.62606 0.65252 0.08625 0.0
H2091 H 0.59672 0.69205 0.09774 0.0
H2092 H 0.57496 0.67547 0.11859 0.0
H2093 H 0.59801 0.62757 0.02127 0.0
H2094 H 0.60429 0.61103 0.05903 0.0
H2095 H 0.61755 0.62597 0.04283 0.0
H2096 H 0.62432 0.62837 0.14741 0.0
H2097 H 0.61101 0.61353 0.16399 0.0
H2098 H 0.60942 0.63179 0.1973 0.0
H2099 H 0.55676 0.65505 0.14362 0.0
H2100 H 0.54267 0.63164 0.16551 0.0
H2101 H 0.58342 0.60508 0.13559 0.0
C2102 C 0.61503 0.65767 0.09258 0.0
C2103 C 0.61311 0.67359 0.09043 0.0
C2104 C 0.59849 0.67989 0.09913 0.0
C2105 C 0.58604 0.67057 0.11108 0.0
C2106 C 0.58836 0.65497 0.1138 0.0
C2107 C 0.60242 0.64852 0.1043 0.0
C2108 C 0.60177 0.6314 0.11041 0.0
C2109 C 0.60563 0.62353 0.05508 0.0
C2110 C 0.61225 0.62596 0.15759 0.0
C2111 C 0.58519 0.62931 0.12545 0.0
C2112 C 0.5777 0.64308 0.12731 0.0
C2113 C 0.56245 0.64417 0.14187 0.0
C2114 C 0.55457 0.63081 0.15446 0.0
C2115 C 0.56193 0.61652 0.15209 0.0
C2116 C 0.57746 0.61582 0.13738 0.0
H2117 H 0.09245 0.88882 0.86701 0.0
H2118 H 0.08172 0.8674 0.70909 0.0
H2119 H 0.09807 0.84568 0.73396 0.0
H2120 H 0.13212 0.87677 0.8708 0.0
H2121 H 0.13209 0.87395 0.94511 0.0
H2122 H 0.1198 0.88799 0.91435 0.0
H2123 H 0.09656 0.8753 0.96137 0.0
H2124 H 0.10875 0.86118 0.99199 0.0
H2125 H 0.09289 0.85543 0.9495 0.0
H2126 H 0.11397 0.82564 0.77828 0.0
H2127 H 0.13038 0.80931 0.83579 0.0
H2128 H 0.13204 0.84418 0.9633 0.0
C2129 C 0.09363 0.8796 0.83752 0.0
C2130 C 0.08579 0.87976 0.78616 0.0
C2131 C 0.08767 0.86754 0.74855 0.0
C2132 C 0.09688 0.85513 0.76237 0.0
C2133 C 0.10429 0.85525 0.8136 0.0
C2134 C 0.10296 0.86723 0.8503 0.0
C2135 C 0.11222 0.86452 0.90255 0.0
C2136 C 0.12481 0.87652 0.90853 0.0
C2137 C 0.10199 0.86408 0.9544 0.0
C2138 C 0.11878 0.84902 0.88983 0.0
C2139 C 0.11397 0.84386 0.83842 0.0
C2140 C 0.11796 0.82961 0.81833 0.0
C2141 C 0.12722 0.82039 0.85147 0.0
C2142 C 0.13252 0.82552 0.90388 0.0
C2143 C 0.12827 0.84005 0.92316 0.0
loop_
_geom_bond_atom_site_label_1
_geom_bond_atom_site_label_2
_geom_bond_distance
_geom_bond_site_symmetry_2
_ccdc_geom_bond_type
C0 O1 1.160 . S
C0 O7 1.185 . S
O1 C0 1.160 . S
O2 Zn3 1.899 1_556 S
O2 C10 1.284 . S
Zn3 O2 1.899 1_554 S
Zn3 O4 2.032 . S
Zn3 O7 2.086 . S
Zn3 O12 1.977 . S
O4 Zn3 2.032 . S
O4 C8 1.278 . S
C5 O6 1.203 . S
C5 O12 1.267 . S
O6 C5 1.203 . S
O7 C0 1.185 . S
O7 Zn3 2.086 . S
C8 O4 1.278 . S
C8 O9 1.211 . S
O9 C8 1.211 . S
C10 O2 1.284 . S
C10 O11 1.273 1_556 S
O11 C10 1.273 1_554 S
O12 Zn3 1.977 . S
O12 C5 1.267 . S
C13 O14 1.160 . S
C13 O20 1.185 . S
O14 C13 1.160 . S
O15 Zn16 1.899 . S
O15 C23 1.284 . S
Zn16 O15 1.899 . S
Zn16 O17 2.032 . S
Zn16 O20 2.086 . S
Zn16 O25 1.977 . S
O17 Zn16 2.032 . S
O17 C21 1.278 . S
C18 O19 1.203 . S
C18 O25 1.267 . S
O19 C18 1.203 . S
O20 C13 1.185 . S
O20 Zn16 2.086 . S
C21 O17 1.278 . S
C21 O22 1.211 . S
O22 C21 1.211 . S
C23 O15 1.284 . S
C23 O24 1.273 . S
O24 C23 1.273 . S
O25 Zn16 1.977 . S
O25 C18 1.267 . S
C26 O27 1.160 . S
C26 O33 1.185 . S
O27 C26 1.160 . S
O28 Zn29 1.899 . S
O28 C36 1.284 . S
Zn29 O28 1.899 . S
Zn29 O30 2.032 . S
Zn29 O33 2.086 . S
Zn29 O38 1.977 . S
O30 Zn29 2.032 . S
O30 C34 1.278 . S
C31 O32 1.203 . S
C31 O38 1.267 . S
O32 C31 1.203 . S
O33 C26 1.185 . S
O33 Zn29 2.086 . S
C34 O30 1.278 . S
C34 O35 1.211 . S
O35 C34 1.211 . S
C36 O28 1.284 . S
C36 O37 1.273 . S
O37 C36 1.273 . S
O38 Zn29 1.977 . S
O38 C31 1.267 . S
C39 O40 1.160 . S
C39 O46 1.185 . S
O40 C39 1.160 . S
O41 Zn42 1.899 . S
O41 C49 1.284 . S
Zn42 O41 1.899 . S
Zn42 O43 2.032 . S
Zn42 O46 2.086 . S
Zn42 O51 1.977 . S
O43 Zn42 2.032 . S
O43 C47 1.278 . S
C44 O45 1.203 . S
C44 O51 1.267 . S
O45 C44 1.203 . S
O46 C39 1.185 . S
O46 Zn42 2.086 . S
C47 O43 1.278 . S
C47 O48 1.211 . S
O48 C47 1.211 . S
C49 O41 1.284 . S
C49 O50 1.273 . S
O50 C49 1.273 . S
O51 Zn42 1.977 . S
O51 C44 1.267 . S
C52 O53 1.160 . S
C52 O59 1.185 . S
O53 C52 1.160 . S
O54 Zn55 1.899 . S
O54 C62 1.284 . S
Zn55 O54 1.899 . S
Zn55 O56 2.032 . S
Zn55 O59 2.086 . S
Zn55 O64 1.977 . S
O56 Zn55 2.032 . S
O56 C60 1.278 . S
C57 O58 1.203 . S
C57 O64 1.267 . S
O58 C57 1.203 . S
O59 C52 1.185 . S
O59 Zn55 2.086 . S
C60 O56 1.278 . S
C60 O61 1.211 . S
O61 C60 1.211 . S
C62 O54 1.284 . S
C62 O63 1.273 . S
O63 C62 1.273 . S
O64 Zn55 1.977 . S
O64 C57 1.267 . S
C65 O66 1.160 . S
C65 O72 1.185 . S
O66 C65 1.160 . S
O67 Zn68 1.899 . S
O67 C75 1.284 . S
Zn68 O67 1.899 . S
Zn68 O69 2.032 . S
Zn68 O72 2.086 . S
Zn68 O77 1.977 . S
O69 Zn68 2.032 . S
O69 C73 1.278 . S
C70 O71 1.203 . S
C70 O77 1.267 . S
O71 C70 1.203 . S
O72 C65 1.185 . S
O72 Zn68 2.086 . S
C73 O69 1.278 . S
C73 O74 1.211 . S
O74 C73 1.211 . S
C75 O67 1.284 . S
C75 O76 1.273 . S
O76 C75 1.273 . S
O77 Zn68 1.977 . S
O77 C70 1.267 . S
C78 O79 1.160 . S
C78 O85 1.185 . S
O79 C78 1.160 . S
O80 Zn81 1.899 1_554 S
O80 C88 1.284 . S
Zn81 O80 1.899 1_556 S
Zn81 O82 2.032 . S
Zn81 O85 2.086 . S
Zn81 O90 1.977 . S
O82 Zn81 2.032 . S
O82 C86 1.278 . S
C83 O84 1.203 . S
C83 O90 1.267 . S
O84 C83 1.203 . S
O85 C78 1.185 . S
O85 Zn81 2.086 . S
C86 O82 1.278 . S
C86 O87 1.211 . S
O87 C86 1.211 . S
C88 O80 1.284 . S
C88 O89 1.273 1_554 S
O89 C88 1.273 1_556 S
O90 Zn81 1.977 . S
O90 C83 1.267 . S
C91 O92 1.160 . S
C91 O98 1.185 . S
O92 C91 1.160 . S
O93 Zn94 1.899 . S
O93 C101 1.284 . S
Zn94 O93 1.899 . S
Zn94 O95 2.032 . S
Zn94 O98 2.086 . S
Zn94 O103 1.977 . S
O95 Zn94 2.032 . S
O95 C99 1.278 . S
C96 O97 1.203 . S
C96 O103 1.267 . S
O97 C96 1.203 . S
O98 C91 1.185 . S
O98 Zn94 2.086 . S
C99 O95 1.278 . S
C99 O100 1.211 . S
O100 C99 1.211 . S
C101 O93 1.284 . S
C101 O102 1.273 . S
O102 C101 1.273 . S
O103 Zn94 1.977 . S
O103 C96 1.267 . S
C104 O105 1.160 . S
C104 O111 1.185 . S
O105 C104 1.160 . S
O106 Zn107 1.899 1_554 S
O106 C114 1.284 . S
Zn107 O106 1.899 1_556 S
Zn107 O108 2.032 . S
Zn107 O111 2.086 . S
Zn107 O116 1.977 . S
O108 Zn107 2.032 . S
O108 C112 1.278 . S
C109 O110 1.203 . S
C109 O116 1.267 . S
O110 C109 1.203 . S
O111 C104 1.185 . S
O111 Zn107 2.086 . S
C112 O108 1.278 . S
C112 O113 1.211 . S
O113 C112 1.211 . S
C114 O106 1.284 . S
C114 O115 1.273 1_554 S
O115 C114 1.273 1_556 S
O116 Zn107 1.977 . S
O116 C109 1.267 . S
C117 O118 1.160 . S
C117 O124 1.185 . S
O118 C117 1.160 . S
O119 Zn120 1.899 . S
O119 C127 1.284 . S
Zn120 O119 1.899 . S
Zn120 O121 2.032 . S
Zn120 O124 2.086 . S
Zn120 O129 1.977 . S
O121 Zn120 2.032 . S
O121 C125 1.278 . S
C122 O123 1.203 . S
C122 O129 1.267 . S
O123 C122 1.203 . S
O124 C117 1.185 . S
O124 Zn120 2.086 . S
C125 O121 1.278 . S
C125 O126 1.211 . S
O126 C125 1.211 . S
C127 O119 1.284 . S
C127 O128 1.273 . S
O128 C127 1.273 . S
O129 Zn120 1.977 . S
O129 C122 1.267 . S
C130 O131 1.160 . S
C130 O137 1.185 . S
O131 C130 1.160 . S
O132 Zn133 1.899 . S
O132 C140 1.284 . S
Zn133 O132 1.899 . S
Zn133 O134 2.032 . S
Zn133 O137 2.086 . S
Zn133 O142 1.977 . S
O134 Zn133 2.032 . S
O134 C138 1.278 . S
C135 O136 1.203 . S
C135 O142 1.267 . S
O136 C135 1.203 . S
O137 C130 1.185 . S
O137 Zn133 2.086 . S
C138 O134 1.278 . S
C138 O139 1.211 . S
O139 C138 1.211 . S
C140 O132 1.284 . S
C140 O141 1.273 . S
O141 C140 1.273 . S
O142 Zn133 1.977 . S
O142 C135 1.267 . S
C143 O144 1.160 . S
C143 O150 1.185 . S
O144 C143 1.160 . S
O145 Zn146 1.899 . S
O145 C153 1.284 . S
Zn146 O145 1.899 . S
Zn146 O147 2.032 . S
Zn146 O150 2.086 . S
Zn146 O155 1.977 . S
O147 Zn146 2.032 . S
O147 C151 1.278 . S
C148 O149 1.203 . S
C148 O155 1.267 . S
O149 C148 1.203 . S
O150 C143 1.185 . S
O150 Zn146 2.086 . S
C151 O147 1.278 . S
C151 O152 1.211 . S
O152 C151 1.211 . S
C153 O145 1.284 . S
C153 O154 1.273 . S
O154 C153 1.273 . S
O155 Zn146 1.977 . S
O155 C148 1.267 . S
C156 O157 1.160 . S
C156 O163 1.185 . S
O157 C156 1.160 . S
O158 Zn159 1.899 . S
O158 C166 1.284 . S
Zn159 O158 1.899 . S
Zn159 O160 2.032 . S
Zn159 O163 2.086 . S
Zn159 O168 1.977 . S
O160 Zn159 2.032 . S
O160 C164 1.278 . S
C161 O162 1.203 . S
C161 O168 1.267 . S
O162 C161 1.203 . S
O163 C156 1.185 . S
O163 Zn159 2.086 . S
C164 O160 1.278 . S
C164 O165 1.211 . S
O165 C164 1.211 . S
C166 O158 1.284 . S
C166 O167 1.273 . S
O167 C166 1.273 . S
O168 Zn159 1.977 . S
O168 C161 1.267 . S
C169 O170 1.160 . S
C169 O176 1.185 . S
O170 C169 1.160 . S
O171 Zn172 1.899 . S
O171 C179 1.284 . S
Zn172 O171 1.899 . S
Zn172 O173 2.032 . S
Zn172 O176 2.086 . S
Zn172 O181 1.977 . S
O173 Zn172 2.032 . S
O173 C177 1.278 . S
C174 O175 1.203 . S
C174 O181 1.267 . S
O175 C174 1.203 . S
O176 C169 1.185 . S
O176 Zn172 2.086 . S
C177 O173 1.278 . S
C177 O178 1.211 . S
O178 C177 1.211 . S
C179 O171 1.284 . S
C179 O180 1.273 . S
O180 C179 1.273 . S
O181 Zn172 1.977 . S
O181 C174 1.267 . S
C182 O183 1.160 . S
C182 O189 1.185 . S
O183 C182 1.160 . S
O184 Zn185 1.899 1_556 S
O184 C192 1.284 . S
Zn185 O184 1.899 1_554 S
Zn185 O186 2.032 . S
Zn185 O189 2.086 . S
Zn185 O194 1.977 . S
O186 Zn185 2.032 . S
O186 C190 1.278 . S
C187 O188 1.203 . S
C187 O194 1.267 . S
O188 C187 1.203 . S
O189 C182 1.185 . S
O189 Zn185 2.086 . S
C190 O186 1.278 . S
C190 O191 1.211 . S
O191 C190 1.211 . S
C192 O184 1.284 . S
C192 O193 1.273 1_556 S
O193 C192 1.273 1_554 S
O194 Zn185 1.977 . S
O194 C187 1.267 . S
C195 O196 1.160 . S
C195 O202 1.185 . S
O196 C195 1.160 . S
O197 Zn198 1.899 . S
O197 C205 1.284 . S
Zn198 O197 1.899 . S
Zn198 O199 2.032 . S
Zn198 O202 2.086 . S
Zn198 O207 1.977 . S
O199 Zn198 2.032 . S
O199 C203 1.278 . S
C200 O201 1.203 . S
C200 O207 1.267 . S
O201 C200 1.203 . S
O202 C195 1.185 . S
O202 Zn198 2.086 . S
C203 O199 1.278 . S
C203 O204 1.211 . S
O204 C203 1.211 . S
C205 O197 1.284 . S
C205 O206 1.273 . S
O206 C205 1.273 . S
O207 Zn198 1.977 . S
O207 C200 1.267 . S
C208 O209 1.160 . S
C208 O215 1.185 . S
O209 C208 1.160 . S
O210 Zn211 1.899 . S
O210 C218 1.284 . S
Zn211 O210 1.899 . S
Zn211 O212 2.032 . S
Zn211 O215 2.086 . S
Zn211 O220 1.977 . S
O212 Zn211 2.032 . S
O212 C216 1.278 . S
C213 O214 1.203 . S
C213 O220 1.267 . S
O214 C213 1.203 . S
O215 C208 1.185 . S
O215 Zn211 2.086 . S
C216 O212 1.278 . S
C216 O217 1.211 . S
O217 C216 1.211 . S
C218 O210 1.284 . S
C218 O219 1.273 . S
O219 C218 1.273 . S
O220 Zn211 1.977 . S
O220 C213 1.267 . S
C221 O222 1.160 . S
C221 O228 1.185 . S
O222 C221 1.160 . S
O223 Zn224 1.899 . S
O223 C231 1.284 . S
Zn224 O223 1.899 . S
Zn224 O225 2.032 . S
Zn224 O228 2.086 . S
Zn224 O233 1.977 . S
O225 Zn224 2.032 . S
O225 C229 1.278 . S
C226 O227 1.203 . S
C226 O233 1.267 . S
O227 C226 1.203 . S
O228 C221 1.185 . S
O228 Zn224 2.086 . S
C229 O225 1.278 . S
C229 O230 1.211 . S
O230 C229 1.211 . S
C231 O223 1.284 . S
C231 O232 1.273 . S
O232 C231 1.273 . S
O233 Zn224 1.977 . S
O233 C226 1.267 . S
C234 O235 1.160 . S
C234 O241 1.185 . S
O235 C234 1.160 . S
O236 Zn237 1.899 1_556 S
O236 C244 1.284 . S
Zn237 O236 1.899 1_554 S
Zn237 O238 2.032 . S
Zn237 O241 2.086 . S
Zn237 O246 1.977 . S
O238 Zn237 2.032 . S
O238 C242 1.278 . S
C239 O240 1.203 . S
C239 O246 1.267 . S
O240 C239 1.203 . S
O241 C234 1.185 . S
O241 Zn237 2.086 . S
C242 O238 1.278 . S
C242 O243 1.211 . S
O243 C242 1.211 . S
C244 O236 1.284 . S
C244 O245 1.273 1_556 S
O245 C244 1.273 1_554 S
O246 Zn237 1.977 . S
O246 C239 1.267 . S
C247 O248 1.160 . S
C247 O254 1.185 . S
O248 C247 1.160 . S
O249 Zn250 1.899 . S
O249 C257 1.284 . S
Zn250 O249 1.899 . S
Zn250 O251 2.032 . S
Zn250 O254 2.086 . S
Zn250 O259 1.977 . S
O251 Zn250 2.032 . S
O251 C255 1.278 . S
C252 O253 1.203 . S
C252 O259 1.267 . S
O253 C252 1.203 . S
O254 C247 1.185 . S
O254 Zn250 2.086 . S
C255 O251 1.278 . S
C255 O256 1.211 . S
O256 C255 1.211 . S
C257 O249 1.284 . S
C257 O258 1.273 . S
O258 C257 1.273 . S
O259 Zn250 1.977 . S
O259 C252 1.267 . S
C260 O261 1.160 . S
C260 O267 1.185 . S
O261 C260 1.160 . S
O262 Zn263 1.899 1_554 S
O262 C270 1.284 . S
Zn263 O262 1.899 1_556 S
Zn263 O264 2.032 . S
Zn263 O267 2.086 . S
Zn263 O272 1.977 . S
O264 Zn263 2.032 . S
O264 C268 1.278 . S
C265 O266 1.203 . S
C265 O272 1.267 . S
O266 C265 1.203 . S
O267 C260 1.185 . S
O267 Zn263 2.086 . S
C268 O264 1.278 . S
C268 O269 1.211 . S
O269 C268 1.211 . S
C270 O262 1.284 . S
C270 O271 1.273 1_554 S
O271 C270 1.273 1_556 S
O272 Zn263 1.977 . S
O272 C265 1.267 . S
C273 O274 1.160 . S
C273 O280 1.185 . S
O274 C273 1.160 . S
O275 Zn276 1.899 . S
O275 C283 1.284 . S
Zn276 O275 1.899 . S
Zn276 O277 2.032 . S
Zn276 O280 2.086 . S
Zn276 O285 1.977 . S
O277 Zn276 2.032 . S
O277 C281 1.278 . S
C278 O279 1.203 . S
C278 O285 1.267 . S
O279 C278 1.203 . S
O280 C273 1.185 . S
O280 Zn276 2.086 . S
C281 O277 1.278 . S
C281 O282 1.211 . S
O282 C281 1.211 . S
C283 O275 1.284 . S
C283 O284 1.273 . S
O284 C283 1.273 . S
O285 Zn276 1.977 . S
O285 C278 1.267 . S
C286 O287 1.160 . S
C286 O293 1.185 . S
O287 C286 1.160 . S
O288 Zn289 1.899 . S
O288 C296 1.284 . S
Zn289 O288 1.899 . S
Zn289 O290 2.032 . S
Zn289 O293 2.086 . S
Zn289 O298 1.977 . S
O290 Zn289 2.032 . S
O290 C294 1.278 . S
C291 O292 1.203 . S
C291 O298 1.267 . S
O292 C291 1.203 . S
O293 C286 1.185 . S
O293 Zn289 2.086 . S
C294 O290 1.278 . S
C294 O295 1.211 . S
O295 C294 1.211 . S
C296 O288 1.284 . S
C296 O297 1.273 . S
O297 C296 1.273 . S
O298 Zn289 1.977 . S
O298 C291 1.267 . S
C299 O300 1.160 . S
C299 O306 1.185 . S
O300 C299 1.160 . S
O301 Zn302 1.899 . S
O301 C309 1.284 . S
Zn302 O301 1.899 . S
Zn302 O303 2.032 . S
Zn302 O306 2.086 . S
Zn302 O311 1.977 . S
O303 Zn302 2.032 . S
O303 C307 1.278 . S
C304 O305 1.203 . S
C304 O311 1.267 . S
O305 C304 1.203 . S
O306 C299 1.185 . S
O306 Zn302 2.086 . S
C307 O303 1.278 . S
C307 O308 1.211 . S
O308 C307 1.211 . S
C309 O301 1.284 . S
C309 O310 1.273 . S
O310 C309 1.273 . S
O311 Zn302 1.977 . S
O311 C304 1.267 . S
C312 O313 1.160 . S
C312 O319 1.185 . S
O313 C312 1.160 . S
O314 Zn315 1.899 . S
O314 C322 1.284 . S
Zn315 O314 1.899 . S
Zn315 O316 2.032 . S
Zn315 O319 2.086 . S
Zn315 O324 1.977 . S
O316 Zn315 2.032 . S
O316 C320 1.278 . S
C317 O318 1.203 . S
C317 O324 1.267 . S
O318 C317 1.203 . S
O319 C312 1.185 . S
O319 Zn315 2.086 . S
C320 O316 1.278 . S
C320 O321 1.211 . S
O321 C320 1.211 . S
C322 O314 1.284 . S
C322 O323 1.273 . S
O323 C322 1.273 . S
O324 Zn315 1.977 . S
O324 C317 1.267 . S
C325 O326 1.160 . S
C325 O332 1.185 . S
O326 C325 1.160 . S
O327 Zn328 1.899 . S
O327 C335 1.284 . S
Zn328 O327 1.899 . S
Zn328 O329 2.032 . S
Zn328 O332 2.086 . S
Zn328 O337 1.977 . S
O329 Zn328 2.032 . S
O329 C333 1.278 . S
C330 O331 1.203 . S
C330 O337 1.267 . S
O331 C330 1.203 . S
O332 C325 1.185 . S
O332 Zn328 2.086 . S
C333 O329 1.278 . S
C333 O334 1.211 . S
O334 C333 1.211 . S
C335 O327 1.284 . S
C335 O336 1.273 . S
O336 C335 1.273 . S
O337 Zn328 1.977 . S
O337 C330 1.267 . S
C338 O339 1.160 . S
C338 O345 1.185 . S
O339 C338 1.160 . S
O340 Zn341 1.899 1_554 S
O340 C348 1.284 . S
Zn341 O340 1.899 1_556 S
Zn341 O342 2.032 . S
Zn341 O345 2.086 . S
Zn341 O350 1.977 . S
O342 Zn341 2.032 . S
O342 C346 1.278 . S
C343 O344 1.203 . S
C343 O350 1.267 . S
O344 C343 1.203 . S
O345 C338 1.185 . S
O345 Zn341 2.086 . S
C346 O342 1.278 . S
C346 O347 1.211 . S
O347 C346 1.211 . S
C348 O340 1.284 . S
C348 O349 1.273 1_554 S
O349 C348 1.273 1_556 S
O350 Zn341 1.977 . S
O350 C343 1.267 . S
C351 O352 1.160 . S
C351 O358 1.185 . S
O352 C351 1.160 . S
O353 Zn354 1.899 . S
O353 C361 1.284 . S
Zn354 O353 1.899 . S
Zn354 O355 2.032 . S
Zn354 O358 2.086 . S
Zn354 O363 1.977 . S
O355 Zn354 2.032 . S
O355 C359 1.278 . S
C356 O357 1.203 . S
C356 O363 1.267 . S
O357 C356 1.203 . S
O358 C351 1.185 . S
O358 Zn354 2.086 . S
C359 O355 1.278 . S
C359 O360 1.211 . S
O360 C359 1.211 . S
C361 O353 1.284 . S
C361 O362 1.273 . S
O362 C361 1.273 . S
O363 Zn354 1.977 . S
O363 C356 1.267 . S
C364 O365 1.160 . S
C364 O371 1.185 . S
O365 C364 1.160 . S
O366 Zn367 1.899 1_556 S
O366 C374 1.284 . S
Zn367 O366 1.899 1_554 S
Zn367 O368 2.032 . S
Zn367 O371 2.086 . S
Zn367 O376 1.977 . S
O368 Zn367 2.032 . S
O368 C372 1.278 . S
C369 O370 1.203 . S
C369 O376 1.267 . S
O370 C369 1.203 . S
O371 C364 1.185 . S
O371 Zn367 2.086 . S
C372 O368 1.278 . S
C372 O373 1.211 . S
O373 C372 1.211 . S
C374 O366 1.284 . S
C374 O375 1.273 1_556 S
O375 C374 1.273 1_554 S
O376 Zn367 1.977 . S
O376 C369 1.267 . S
C377 O378 1.160 . S
C377 O384 1.185 . S
O378 C377 1.160 . S
O379 Zn380 1.899 . S
O379 C387 1.284 . S
Zn380 O379 1.899 . S
Zn380 O381 2.032 . S
Zn380 O384 2.086 . S
Zn380 O389 1.977 . S
O381 Zn380 2.032 . S
O381 C385 1.278 . S
C382 O383 1.203 . S
C382 O389 1.267 . S
O383 C382 1.203 . S
O384 C377 1.185 . S
O384 Zn380 2.086 . S
C385 O381 1.278 . S
C385 O386 1.211 . S
O386 C385 1.211 . S
C387 O379 1.284 . S
C387 O388 1.273 . S
O388 C387 1.273 . S
O389 Zn380 1.977 . S
O389 C382 1.267 . S
C390 O391 1.160 . S
C390 O397 1.185 . S
O391 C390 1.160 . S
O392 Zn393 1.899 . S
O392 C400 1.284 . S
Zn393 O392 1.899 . S
Zn393 O394 2.032 . S
Zn393 O397 2.086 . S
Zn393 O402 1.977 . S
O394 Zn393 2.032 . S
O394 C398 1.278 . S
C395 O396 1.203 . S
C395 O402 1.267 . S
O396 C395 1.203 . S
O397 C390 1.185 . S
O397 Zn393 2.086 . S
C398 O394 1.278 . S
C398 O399 1.211 . S
O399 C398 1.211 . S
C400 O392 1.284 . S
C400 O401 1.273 . S
O401 C400 1.273 . S
O402 Zn393 1.977 . S
O402 C395 1.267 . S
C403 O404 1.160 . S
C403 O410 1.185 . S
O404 C403 1.160 . S
O405 Zn406 1.899 . S
O405 C413 1.284 . S
Zn406 O405 1.899 . S
Zn406 O407 2.032 . S
Zn406 O410 2.086 . S
Zn406 O415 1.977 . S
O407 Zn406 2.032 . S
O407 C411 1.278 . S
C408 O409 1.203 . S
C408 O415 1.267 . S
O409 C408 1.203 . S
O410 C403 1.185 . S
O410 Zn406 2.086 . S
C411 O407 1.278 . S
C411 O412 1.211 . S
O412 C411 1.211 . S
C413 O405 1.284 . S
C413 O414 1.273 . S
O414 C413 1.273 . S
O415 Zn406 1.977 . S
O415 C408 1.267 . S
H416 C428 0.930 . S
H417 C430 0.930 . S
H418 C431 0.930 1_554 S
H419 C435 0.959 . S
H420 C435 0.959 . S
H421 C435 0.961 . S
H422 C436 0.960 . S
H423 C436 0.961 . S
H424 C436 0.959 . S
H425 C439 0.929 . S
H426 C440 0.931 . S
H427 C442 0.930 . S
C428 H416 0.930 . S
C428 C429 1.399 . S
C428 C433 1.399 . S
C429 C428 1.399 . S
C429 C430 1.376 . S
C430 H417 0.930 . S
C430 C429 1.376 . S
C430 C431 1.388 . S
C431 H418 0.930 1_556 S
C431 C430 1.388 . S
C431 C432 1.390 1_556 S
C432 C431 1.390 1_554 S
C432 C433 1.394 1_554 S
C432 C438 1.465 . S
C433 C428 1.399 . S
C433 C432 1.394 1_556 S
C433 C434 1.516 1_556 S
C434 C433 1.516 1_554 S
C434 C435 1.502 1_554 S
C434 C436 1.561 . S
C434 C437 1.526 . S
C435 H419 0.959 . S
C435 H420 0.959 . S
C435 H421 0.961 . S
C435 C434 1.502 1_556 S
C436 H422 0.960 . S
C436 H423 0.961 . S
C436 H424 0.959 . S
C436 C434 1.561 . S
C437 C434 1.526 . S
C437 C438 1.396 . S
C437 C442 1.390 . S
C438 C432 1.465 . S
C438 C437 1.396 . S
C438 C439 1.399 . S
C439 H425 0.929 . S
C439 C438 1.399 . S
C439 C440 1.385 . S
C440 H426 0.931 . S
C440 C439 1.385 . S
C440 C441 1.389 . S
C441 C440 1.389 . S
C441 C442 1.387 . S
C442 H427 0.930 . S
C442 C437 1.390 . S
C442 C441 1.387 . S
H443 C455 0.930 . S
H444 C457 0.930 . S
H445 C458 0.930 . S
H446 C462 0.959 . S
H447 C462 0.954 1_545 S
H448 C462 0.961 . S
H449 C463 0.960 . S
H450 C463 0.961 1_545 S
H451 C463 0.941 1_545 S
H452 C466 0.929 . S
H453 C467 0.931 . S
H454 C469 0.930 . S
C455 H443 0.930 . S
C455 C456 1.399 . S
C455 C460 1.399 . S
C456 C455 1.399 . S
C456 C457 1.376 . S
C457 H444 0.930 . S
C457 C456 1.376 . S
C457 C458 1.388 . S
C458 H445 0.930 . S
C458 C457 1.388 . S
C458 C459 1.390 . S
C459 C458 1.390 . S
C459 C460 1.394 . S
C459 C465 1.465 1_565 S
C460 C455 1.399 . S
C460 C459 1.394 . S
C460 C461 1.516 . S
C461 C460 1.516 . S
C461 C462 1.502 . S
C461 C463 1.561 . S
C461 C464 1.526 1_565 S
C462 H446 0.959 . S
C462 H447 0.954 1_565 S
C462 H448 0.961 . S
C462 C461 1.502 . S
C463 H449 0.960 . S
C463 H450 0.961 1_565 S
C463 H451 0.941 1_565 S
C463 C461 1.561 . S
C464 C461 1.526 1_545 S
C464 C465 1.396 . S
C464 C469 1.390 . S
C465 C459 1.465 1_545 S
C465 C464 1.396 . S
C465 C466 1.399 . S
C466 H452 0.929 . S
C466 C465 1.399 . S
C466 C467 1.385 . S
C467 H453 0.931 . S
C467 C466 1.385 . S
C467 C468 1.389 . S
C468 C467 1.389 . S
C468 C469 1.387 . S
C469 H454 0.930 . S
C469 C464 1.390 . S
C469 C468 1.387 . S
H470 C482 0.930 . S
H471 C484 0.930 . S
H472 C485 0.930 . S
H473 C489 0.959 . S
H474 C489 0.959 . S
H475 C489 0.961 . S
H476 C490 0.960 . S
H477 C490 0.961 . S
H478 C490 0.959 . S
H479 C493 0.929 . S
H480 C494 0.931 . S
H481 C496 0.930 . S
C482 H470 0.930 . S
C482 C483 1.399 . S
C482 C487 1.399 . S
C483 C482 1.399 . S
C483 C484 1.376 . S
C484 H471 0.930 . S
C484 C483 1.376 . S
C484 C485 1.388 . S
C485 H472 0.930 . S
C485 C484 1.388 . S
C485 C486 1.390 . S
C486 C485 1.390 . S
C486 C487 1.394 . S
C486 C492 1.465 . S
C487 C482 1.399 . S
C487 C486 1.394 . S
C487 C488 1.516 . S
C488 C487 1.516 . S
C488 C489 1.502 . S
C488 C490 1.561 . S
C488 C491 1.526 . S
C489 H473 0.959 . S
C489 H474 0.959 . S
C489 H475 0.961 . S
C489 C488 1.502 . S
C490 H476 0.960 . S
C490 H477 0.961 . S
C490 H478 0.959 . S
C490 C488 1.561 . S
C491 C488 1.526 . S
C491 C492 1.396 . S
C491 C496 1.390 . S
C492 C486 1.465 . S
C492 C491 1.396 . S
C492 C493 1.399 . S
C493 H479 0.929 . S
C493 C492 1.399 . S
C493 C494 1.385 . S
C494 H480 0.931 . S
C494 C493 1.385 . S
C494 C495 1.389 . S
C495 C494 1.389 . S
C495 C496 1.387 . S
C496 H481 0.930 . S
C496 C491 1.390 . S
C496 C495 1.387 . S
H497 C509 0.930 . S
H498 C511 0.930 . S
H499 C512 0.930 . S
H500 C516 0.938 1_565 S
H501 C516 0.959 1_565 S
H502 C516 0.961 . S
H503 C517 0.960 . S
H504 C517 0.962 . S
H505 C517 0.959 . S
H506 C520 0.929 . S
H507 C521 0.931 . S
H508 C523 0.930 . S
C509 H497 0.930 . S
C509 C510 1.399 . S
C509 C514 1.399 . S
C510 C509 1.399 . S
C510 C511 1.376 . S
C511 H498 0.930 . S
C511 C510 1.376 . S
C511 C512 1.388 . S
C512 H499 0.930 . S
C512 C511 1.388 . S
C512 C513 1.390 . S
C513 C512 1.390 . S
C513 C514 1.394 . S
C513 C519 1.465 1_545 S
C514 C509 1.399 . S
C514 C513 1.394 . S
C514 C515 1.516 . S
C515 C514 1.516 . S
C515 C516 1.502 . S
C515 C517 1.561 . S
C515 C518 1.526 1_545 S
C516 H500 0.938 1_545 S
C516 H501 0.959 1_545 S
C516 H502 0.961 . S
C516 C515 1.502 . S
C517 H503 0.960 . S
C517 H504 0.962 . S
C517 H505 0.959 . S
C517 C515 1.561 . S
C518 C515 1.526 1_565 S
C518 C519 1.396 . S
C518 C523 1.390 . S
C519 C513 1.465 1_565 S
C519 C518 1.396 . S
C519 C520 1.399 . S
C520 H506 0.929 . S
C520 C519 1.399 . S
C520 C521 1.385 . S
C521 H507 0.931 . S
C521 C520 1.385 . S
C521 C522 1.389 . S
C522 C521 1.389 . S
C522 C523 1.387 . S
C523 H508 0.930 . S
C523 C518 1.390 . S
C523 C522 1.387 . S
H524 C536 0.930 . S
H525 C538 0.930 . S
H526 C539 0.930 . S
H527 C543 0.959 . S
H528 C543 0.959 . S
H529 C543 0.961 . S
H530 C544 0.960 . S
H531 C544 0.961 . S
H532 C544 0.959 . S
H533 C547 0.929 . S
H534 C548 0.931 . S
H535 C550 0.930 . S
C536 H524 0.930 . S
C536 C537 1.399 . S
C536 C541 1.399 . S
C537 C536 1.399 . S
C537 C538 1.376 . S
C538 H525 0.930 . S
C538 C537 1.376 . S
C538 C539 1.388 . S
C539 H526 0.930 . S
C539 C538 1.388 . S
C539 C540 1.390 . S
C540 C539 1.390 . S
C540 C541 1.394 . S
C540 C546 1.465 . S
C541 C536 1.399 . S
C541 C540 1.394 . S
C541 C542 1.516 1_554 S
C542 C541 1.516 1_556 S
C542 C543 1.502 . S
C542 C544 1.561 1_556 S
C542 C545 1.526 . S
C543 H527 0.959 . S
C543 H528 0.959 . S
C543 H529 0.961 . S
C543 C542 1.502 . S
C544 H530 0.960 . S
C544 H531 0.961 . S
C544 H532 0.959 . S
C544 C542 1.561 1_554 S
C545 C542 1.526 . S
C545 C546 1.396 1_556 S
C545 C550 1.390 . S
C546 C540 1.465 . S
C546 C545 1.396 1_554 S
C546 C547 1.399 . S
C547 H533 0.929 . S
C547 C546 1.399 . S
C547 C548 1.385 1_554 S
C548 H534 0.931 . S
C548 C547 1.385 1_556 S
C548 C549 1.389 . S
C549 C548 1.389 . S
C549 C550 1.387 . S
C550 H535 0.930 . S
C550 C545 1.390 . S
C550 C549 1.387 . S
H551 C563 0.930 . S
H552 C565 0.930 . S
H553 C566 0.930 . S
H554 C570 0.959 . S
H555 C570 0.959 . S
H556 C570 0.961 1_565 S
H557 C571 0.959 1_565 S
H558 C571 0.961 . S
H559 C571 0.959 . S
H560 C574 0.929 . S
H561 C575 0.931 . S
H562 C577 0.930 . S
C563 H551 0.930 . S
C563 C564 1.399 . S
C563 C568 1.399 . S
C564 C563 1.399 . S
C564 C565 1.376 . S
C565 H552 0.930 . S
C565 C564 1.376 . S
C565 C566 1.388 . S
C566 H553 0.930 . S
C566 C565 1.388 . S
C566 C567 1.390 . S
C567 C566 1.390 . S
C567 C568 1.394 . S
C567 C573 1.465 1_565 S
C568 C563 1.399 . S
C568 C567 1.394 . S
C568 C569 1.516 1_565 S
C569 C568 1.516 1_545 S
C569 C570 1.502 . S
C569 C571 1.561 . S
C569 C572 1.526 . S
C570 H554 0.959 . S
C570 H555 0.959 . S
C570 H556 0.961 1_545 S
C570 C569 1.502 . S
C571 H557 0.959 1_545 S
C571 H558 0.961 . S
C571 H559 0.959 . S
C571 C569 1.561 . S
C572 C569 1.526 . S
C572 C573 1.396 . S
C572 C577 1.390 . S
C573 C567 1.465 1_545 S
C573 C572 1.396 . S
C573 C574 1.399 . S
C574 H560 0.929 . S
C574 C573 1.399 . S
C574 C575 1.385 . S
C575 H561 0.931 . S
C575 C574 1.385 . S
C575 C576 1.389 . S
C576 C575 1.389 . S
C576 C577 1.387 . S
C577 H562 0.930 . S
C577 C572 1.390 . S
C577 C576 1.387 . S
H578 C590 0.930 . S
H579 C592 0.930 . S
H580 C593 0.930 . S
H581 C597 0.959 . S
H582 C597 0.959 . S
H583 C597 0.961 . S
H584 C598 0.960 . S
H585 C598 0.961 . S
H586 C598 0.959 . S
H587 C601 0.929 . S
H588 C602 0.931 . S
H589 C604 0.930 . S
C590 H578 0.930 . S
C590 C591 1.399 . S
C590 C595 1.399 . S
C591 C590 1.399 . S
C591 C592 1.376 . S
C592 H579 0.930 . S
C592 C591 1.376 . S
C592 C593 1.388 . S
C593 H580 0.930 . S
C593 C592 1.388 . S
C593 C594 1.390 . S
C594 C593 1.390 . S
C594 C595 1.394 . S
C594 C600 1.465 . S
C595 C590 1.399 . S
C595 C594 1.394 . S
C595 C596 1.516 . S
C596 C595 1.516 . S
C596 C597 1.502 . S
C596 C598 1.561 . S
C596 C599 1.526 . S
C597 H581 0.959 . S
C597 H582 0.959 . S
C597 H583 0.961 . S
C597 C596 1.502 . S
C598 H584 0.960 . S
C598 H585 0.961 . S
C598 H586 0.959 . S
C598 C596 1.561 . S
C599 C596 1.526 . S
C599 C600 1.396 . S
C599 C604 1.390 . S
C600 C594 1.465 . S
C600 C599 1.396 . S
C600 C601 1.399 . S
C601 H587 0.929 . S
C601 C600 1.399 . S
C601 C602 1.385 . S
C602 H588 0.931 . S
C602 C601 1.385 . S
C602 C603 1.389 . S
C603 C602 1.389 . S
C603 C604 1.387 . S
C604 H589 0.930 . S
C604 C599 1.390 . S
C604 C603 1.387 . S
H605 C617 0.930 . S
H606 C619 0.930 . S
H607 C620 0.930 . S
H608 C624 0.959 . S
H609 C624 0.959 . S
H610 C624 0.960 1_565 S
H611 C625 0.960 1_565 S
H612 C625 0.961 . S
H613 C625 0.959 . S
H614 C628 0.929 . S
H615 C629 0.931 . S
H616 C631 0.930 . S
C617 H605 0.930 . S
C617 C618 1.399 . S
C617 C622 1.399 . S
C618 C617 1.399 . S
C618 C619 1.376 . S
C619 H606 0.930 . S
C619 C618 1.376 . S
C619 C620 1.388 . S
C620 H607 0.930 . S
C620 C619 1.388 . S
C620 C621 1.390 . S
C621 C620 1.390 . S
C621 C622 1.394 . S
C621 C627 1.465 1_565 S
C622 C617 1.399 . S
C622 C621 1.394 . S
C622 C623 1.516 1_565 S
C623 C622 1.516 1_545 S
C623 C624 1.502 . S
C623 C625 1.561 . S
C623 C626 1.526 . S
C624 H608 0.959 . S
C624 H609 0.959 . S
C624 H610 0.960 1_545 S
C624 C623 1.502 . S
C625 H611 0.960 1_545 S
C625 H612 0.961 . S
C625 H613 0.959 . S
C625 C623 1.561 . S
C626 C623 1.526 . S
C626 C627 1.396 . S
C626 C631 1.390 . S
C627 C621 1.465 1_545 S
C627 C626 1.396 . S
C627 C628 1.399 . S
C628 H614 0.929 . S
C628 C627 1.399 . S
C628 C629 1.385 . S
C629 H615 0.931 . S
C629 C628 1.385 . S
C629 C630 1.389 . S
C630 C629 1.389 . S
C630 C631 1.387 . S
C631 H616 0.930 . S
C631 C626 1.390 . S
C631 C630 1.387 . S
H632 C644 0.930 . S
H633 C646 0.930 . S
H634 C647 0.930 . S
H635 C651 0.959 . S
H636 C651 0.959 . S
H637 C651 0.961 . S
H638 C652 0.960 . S
H639 C652 0.961 . S
H640 C652 0.959 . S
H641 C655 0.929 . S
H642 C656 0.931 . S
H643 C658 0.930 . S
C644 H632 0.930 . S
C644 C645 1.399 . S
C644 C649 1.399 . S
C645 C644 1.399 . S
C645 C646 1.376 . S
C646 H633 0.930 . S
C646 C645 1.376 . S
C646 C647 1.388 . S
C647 H634 0.930 . S
C647 C646 1.388 . S
C647 C648 1.390 . S
C648 C647 1.390 . S
C648 C649 1.394 . S
C648 C654 1.465 . S
C649 C644 1.399 . S
C649 C648 1.394 . S
C649 C650 1.516 . S
C650 C649 1.516 . S
C650 C651 1.502 . S
C650 C652 1.561 . S
C650 C653 1.526 . S
C651 H635 0.959 . S
C651 H636 0.959 . S
C651 H637 0.961 . S
C651 C650 1.502 . S
C652 H638 0.960 . S
C652 H639 0.961 . S
C652 H640 0.959 . S
C652 C650 1.561 . S
C653 C650 1.526 . S
C653 C654 1.396 . S
C653 C658 1.390 . S
C654 C648 1.465 . S
C654 C653 1.396 . S
C654 C655 1.399 . S
C655 H641 0.929 . S
C655 C654 1.399 . S
C655 C656 1.385 . S
C656 H642 0.931 . S
C656 C655 1.385 . S
C656 C657 1.389 . S
C657 C656 1.389 . S
C657 C658 1.387 . S
C658 H643 0.930 . S
C658 C653 1.390 . S
C658 C657 1.387 . S
H659 C671 0.930 . S
H660 C673 0.930 . S
H661 C674 0.930 . S
H662 C678 0.959 . S
H663 C678 0.959 . S
H664 C678 0.961 . S
H665 C679 0.960 . S
H666 C679 0.961 . S
H667 C679 0.959 . S
H668 C682 0.929 . S
H669 C683 0.931 . S
H670 C685 0.930 . S
C671 H659 0.930 . S
C671 C672 1.399 . S
C671 C676 1.399 . S
C672 C671 1.399 . S
C672 C673 1.376 . S
C673 H660 0.930 . S
C673 C672 1.376 . S
C673 C674 1.388 . S
C674 H661 0.930 . S
C674 C673 1.388 . S
C674 C675 1.390 . S
C675 C674 1.390 . S
C675 C676 1.394 . S
C675 C681 1.465 . S
C676 C671 1.399 . S
C676 C675 1.394 . S
C676 C677 1.516 . S
C677 C676 1.516 . S
C677 C678 1.502 . S
C677 C679 1.561 . S
C677 C680 1.526 . S
C678 H662 0.959 . S
C678 H663 0.959 . S
C678 H664 0.961 . S
C678 C677 1.502 . S
C679 H665 0.960 . S
C679 H666 0.961 . S
C679 H667 0.959 . S
C679 C677 1.561 . S
C680 C677 1.526 . S
C680 C681 1.396 . S
C680 C685 1.390 . S
C681 C675 1.465 . S
C681 C680 1.396 . S
C681 C682 1.399 . S
C682 H668 0.929 . S
C682 C681 1.399 . S
C682 C683 1.385 . S
C683 H669 0.931 . S
C683 C682 1.385 . S
C683 C684 1.389 . S
C684 C683 1.389 . S
C684 C685 1.387 . S
C685 H670 0.930 . S
C685 C680 1.390 . S
C685 C684 1.387 . S
H686 C698 0.930 . S
H687 C700 0.930 . S
H688 C701 0.930 . S
H689 C705 0.959 . S
H690 C705 0.959 . S
H691 C705 0.961 . S
H692 C706 0.960 . S
H693 C706 0.961 . S
H694 C706 0.959 1_554 S
H695 C709 0.929 . S
H696 C710 0.931 . S
H697 C712 0.930 . S
C698 H686 0.930 . S
C698 C699 1.399 . S
C698 C703 1.399 . S
C699 C698 1.399 . S
C699 C700 1.376 1_556 S
C700 H687 0.930 . S
C700 C699 1.376 1_554 S
C700 C701 1.388 . S
C701 H688 0.930 . S
C701 C700 1.388 . S
C701 C702 1.390 . S
C702 C701 1.390 . S
C702 C703 1.394 1_554 S
C702 C708 1.465 . S
C703 C698 1.399 . S
C703 C702 1.394 1_556 S
C703 C704 1.516 . S
C704 C703 1.516 . S
C704 C705 1.502 . S
C704 C706 1.561 . S
C704 C707 1.526 . S
C705 H689 0.959 . S
C705 H690 0.959 . S
C705 H691 0.961 . S
C705 C704 1.502 . S
C706 H692 0.960 . S
C706 H693 0.961 . S
C706 H694 0.959 1_556 S
C706 C704 1.561 . S
C707 C704 1.526 . S
C707 C708 1.396 1_556 S
C707 C712 1.390 . S
C708 C702 1.465 . S
C708 C707 1.396 1_554 S
C708 C709 1.399 . S
C709 H695 0.929 . S
C709 C708 1.399 . S
C709 C710 1.385 . S
C710 H696 0.931 . S
C710 C709 1.385 . S
C710 C711 1.389 . S
C711 C710 1.389 . S
C711 C712 1.387 1_554 S
C712 H697 0.930 . S
C712 C707 1.390 . S
C712 C711 1.387 1_556 S
H713 C725 0.930 . S
H714 C727 0.930 . S
H715 C728 0.930 . S
H716 C732 0.959 . S
H717 C732 0.959 . S
H718 C732 0.961 . S
H719 C733 0.960 . S
H720 C733 0.961 . S
H721 C733 0.959 . S
H722 C736 0.929 . S
H723 C737 0.931 . S
H724 C739 0.930 . S
C725 H713 0.930 . S
C725 C726 1.399 . S
C725 C730 1.399 . S
C726 C725 1.399 . S
C726 C727 1.376 . S
C727 H714 0.930 . S
C727 C726 1.376 . S
C727 C728 1.388 . S
C728 H715 0.930 . S
C728 C727 1.388 . S
C728 C729 1.390 . S
C729 C728 1.390 . S
C729 C730 1.394 . S
C729 C735 1.465 . S
C730 C725 1.399 . S
C730 C729 1.394 . S
C730 C731 1.516 . S
C731 C730 1.516 . S
C731 C732 1.502 . S
C731 C733 1.561 . S
C731 C734 1.526 . S
C732 H716 0.959 . S
C732 H717 0.959 . S
C732 H718 0.961 . S
C732 C731 1.502 . S
C733 H719 0.960 . S
C733 H720 0.961 . S
C733 H721 0.959 . S
C733 C731 1.561 . S
C734 C731 1.526 . S
C734 C735 1.396 . S
C734 C739 1.390 . S
C735 C729 1.465 . S
C735 C734 1.396 . S
C735 C736 1.399 . S
C736 H722 0.929 . S
C736 C735 1.399 . S
C736 C737 1.385 . S
C737 H723 0.931 . S
C737 C736 1.385 . S
C737 C738 1.389 . S
C738 C737 1.389 . S
C738 C739 1.387 . S
C739 H724 0.930 . S
C739 C734 1.390 . S
C739 C738 1.387 . S
H740 C752 0.930 . S
H741 C754 0.930 . S
H742 C755 0.930 . S
H743 C759 0.959 . S
H744 C759 0.959 . S
H745 C759 0.961 . S
H746 C760 0.960 . S
H747 C760 0.961 . S
H748 C760 0.959 . S
H749 C763 0.929 . S
H750 C764 0.931 . S
H751 C766 0.930 . S
C752 H740 0.930 . S
C752 C753 1.399 . S
C752 C757 1.399 . S
C753 C752 1.399 . S
C753 C754 1.376 . S
C754 H741 0.930 . S
C754 C753 1.376 . S
C754 C755 1.388 . S
C755 H742 0.930 . S
C755 C754 1.388 . S
C755 C756 1.390 . S
C756 C755 1.390 . S
C756 C757 1.394 . S
C756 C762 1.465 . S
C757 C752 1.399 . S
C757 C756 1.394 . S
C757 C758 1.516 . S
C758 C757 1.516 . S
C758 C759 1.502 . S
C758 C760 1.561 . S
C758 C761 1.526 . S
C759 H743 0.959 . S
C759 H744 0.959 . S
C759 H745 0.961 . S
C759 C758 1.502 . S
C760 H746 0.960 . S
C760 H747 0.961 . S
C760 H748 0.959 . S
C760 C758 1.561 . S
C761 C758 1.526 . S
C761 C762 1.396 . S
C761 C766 1.390 . S
C762 C756 1.465 . S
C762 C761 1.396 . S
C762 C763 1.399 . S
C763 H749 0.929 . S
C763 C762 1.399 . S
C763 C764 1.385 . S
C764 H750 0.931 . S
C764 C763 1.385 . S
C764 C765 1.389 . S
C765 C764 1.389 . S
C765 C766 1.387 . S
C766 H751 0.930 . S
C766 C761 1.390 . S
C766 C765 1.387 . S
H767 C779 0.930 . S
H768 C781 0.930 . S
H769 C782 0.930 . S
H770 C786 0.959 . S
H771 C786 0.959 . S
H772 C786 0.961 . S
H773 C787 0.960 . S
H774 C787 0.961 . S
H775 C787 0.959 . S
H776 C790 0.929 . S
H777 C791 0.931 . S
H778 C793 0.930 . S
C779 H767 0.930 . S
C779 C780 1.399 . S
C779 C784 1.399 . S
C780 C779 1.399 . S
C780 C781 1.376 . S
C781 H768 0.930 . S
C781 C780 1.376 . S
C781 C782 1.388 . S
C782 H769 0.930 . S
C782 C781 1.388 . S
C782 C783 1.390 . S
C783 C782 1.390 . S
C783 C784 1.394 . S
C783 C789 1.465 . S
C784 C779 1.399 . S
C784 C783 1.394 . S
C784 C785 1.516 . S
C785 C784 1.516 . S
C785 C786 1.502 . S
C785 C787 1.561 . S
C785 C788 1.526 . S
C786 H770 0.959 . S
C786 H771 0.959 . S
C786 H772 0.961 . S
C786 C785 1.502 . S
C787 H773 0.960 . S
C787 H774 0.961 . S
C787 H775 0.959 . S
C787 C785 1.561 . S
C788 C785 1.526 . S
C788 C789 1.396 . S
C788 C793 1.390 . S
C789 C783 1.465 . S
C789 C788 1.396 . S
C789 C790 1.399 . S
C790 H776 0.929 . S
C790 C789 1.399 . S
C790 C791 1.385 . S
C791 H777 0.931 . S
C791 C790 1.385 . S
C791 C792 1.389 . S
C792 C791 1.389 . S
C792 C793 1.387 . S
C793 H778 0.930 . S
C793 C788 1.390 . S
C793 C792 1.387 . S
H794 C806 0.930 1_556 S
H795 C808 0.930 . S
H796 C809 0.930 . S
H797 C813 0.959 . S
H798 C813 0.959 . S
H799 C813 0.961 . S
H800 C814 0.960 . S
H801 C814 0.961 . S
H802 C814 0.959 . S
H803 C817 0.929 . S
H804 C818 0.929 1_554 S
H805 C820 0.930 . S
C806 H794 0.930 1_554 S
C806 C807 1.399 . S
C806 C811 1.399 . S
C807 C806 1.399 . S
C807 C808 1.376 . S
C808 H795 0.930 . S
C808 C807 1.376 . S
C808 C809 1.388 . S
C809 H796 0.930 . S
C809 C808 1.388 . S
C809 C810 1.390 . S
C810 C809 1.390 . S
C810 C811 1.394 . S
C810 C816 1.465 . S
C811 C806 1.399 . S
C811 C810 1.394 . S
C811 C812 1.516 1_554 S
C812 C811 1.516 1_556 S
C812 C813 1.502 . S
C812 C814 1.561 1_556 S
C812 C815 1.526 . S
C813 H797 0.959 . S
C813 H798 0.959 . S
C813 H799 0.961 . S
C813 C812 1.502 . S
C814 H800 0.960 . S
C814 H801 0.961 . S
C814 H802 0.959 . S
C814 C812 1.561 1_554 S
C815 C812 1.526 . S
C815 C816 1.396 1_556 S
C815 C820 1.390 . S
C816 C810 1.465 . S
C816 C815 1.396 1_554 S
C816 C817 1.399 . S
C817 H803 0.929 . S
C817 C816 1.399 . S
C817 C818 1.385 1_554 S
C818 H804 0.929 1_556 S
C818 C817 1.385 1_556 S
C818 C819 1.389 . S
C819 C818 1.389 . S
C819 C820 1.387 . S
C820 H805 0.930 . S
C820 C815 1.390 . S
C820 C819 1.387 . S
H821 C833 0.930 . S
H822 C835 0.930 . S
H823 C836 0.930 . S
H824 C840 0.959 . S
H825 C840 0.959 . S
H826 C840 0.961 . S
H827 C841 0.960 . S
H828 C841 0.961 . S
H829 C841 0.959 . S
H830 C844 0.929 . S
H831 C845 0.931 . S
H832 C847 0.930 . S
C833 H821 0.930 . S
C833 C834 1.399 . S
C833 C838 1.399 . S
C834 C833 1.399 . S
C834 C835 1.376 . S
C835 H822 0.930 . S
C835 C834 1.376 . S
C835 C836 1.388 . S
C836 H823 0.930 . S
C836 C835 1.388 . S
C836 C837 1.390 . S
C837 C836 1.390 . S
C837 C838 1.394 . S
C837 C843 1.465 . S
C838 C833 1.399 . S
C838 C837 1.394 . S
C838 C839 1.516 . S
C839 C838 1.516 . S
C839 C840 1.502 . S
C839 C841 1.561 . S
C839 C842 1.526 . S
C840 H824 0.959 . S
C840 H825 0.959 . S
C840 H826 0.961 . S
C840 C839 1.502 . S
C841 H827 0.960 . S
C841 H828 0.961 . S
C841 H829 0.959 . S
C841 C839 1.561 . S
C842 C839 1.526 . S
C842 C843 1.396 . S
C842 C847 1.390 . S
C843 C837 1.465 . S
C843 C842 1.396 . S
C843 C844 1.399 . S
C844 H830 0.929 . S
C844 C843 1.399 . S
C844 C845 1.385 . S
C845 H831 0.931 . S
C845 C844 1.385 . S
C845 C846 1.389 . S
C846 C845 1.389 . S
C846 C847 1.387 . S
C847 H832 0.930 . S
C847 C842 1.390 . S
C847 C846 1.387 . S
H848 C860 0.930 . S
H849 C862 0.930 . S
H850 C863 0.930 . S
H851 C867 0.959 . S
H852 C867 0.959 . S
H853 C867 0.961 . S
H854 C868 0.960 . S
H855 C868 0.961 . S
H856 C868 0.959 . S
H857 C871 0.929 . S
H858 C872 0.931 . S
H859 C874 0.930 . S
C860 H848 0.930 . S
C860 C861 1.399 . S
C860 C865 1.399 . S
C861 C860 1.399 . S
C861 C862 1.376 . S
C862 H849 0.930 . S
C862 C861 1.376 . S
C862 C863 1.388 . S
C863 H850 0.930 . S
C863 C862 1.388 . S
C863 C864 1.390 . S
C864 C863 1.390 . S
C864 C865 1.394 . S
C864 C870 1.465 . S
C865 C860 1.399 . S
C865 C864 1.394 . S
C865 C866 1.516 . S
C866 C865 1.516 . S
C866 C867 1.502 . S
C866 C868 1.561 . S
C866 C869 1.526 . S
C867 H851 0.959 . S
C867 H852 0.959 . S
C867 H853 0.961 . S
C867 C866 1.502 . S
C868 H854 0.960 . S
C868 H855 0.961 . S
C868 H856 0.959 . S
C868 C866 1.561 . S
C869 C866 1.526 . S
C869 C870 1.396 . S
C869 C874 1.390 . S
C870 C864 1.465 . S
C870 C869 1.396 . S
C870 C871 1.399 . S
C871 H857 0.929 . S
C871 C870 1.399 . S
C871 C872 1.385 . S
C872 H858 0.931 . S
C872 C871 1.385 . S
C872 C873 1.389 . S
C873 C872 1.389 . S
C873 C874 1.387 . S
C874 H859 0.930 . S
C874 C869 1.390 . S
C874 C873 1.387 . S
H875 C887 0.930 . S
H876 C889 0.930 . S
H877 C890 0.930 . S
H878 C894 0.959 1_556 S
H879 C894 0.959 . S
H880 C894 0.961 1_556 S
H881 C895 0.960 . S
H882 C895 0.961 1_655 S
H883 C895 0.959 . S
H884 C898 0.929 1_455 S
H885 C899 0.931 . S
H886 C901 0.930 . S
C887 H875 0.930 . S
C887 C888 1.399 . S
C887 C892 1.399 1_556 S
C888 C887 1.399 . S
C888 C889 1.376 . S
C889 H876 0.930 . S
C889 C888 1.376 . S
C889 C890 1.388 1_556 S
C890 H877 0.930 . S
C890 C889 1.388 1_554 S
C890 C891 1.390 . S
C891 C890 1.390 . S
C891 C892 1.394 . S
C891 C897 1.465 1_455 S
C892 C887 1.399 1_554 S
C892 C891 1.394 . S
C892 C893 1.516 1_455 S
C893 C892 1.516 1_655 S
C893 C894 1.502 . S
C893 C895 1.561 1_655 S
C893 C896 1.526 . S
C894 H878 0.959 1_554 S
C894 H879 0.959 . S
C894 H880 0.961 1_554 S
C894 C893 1.502 . S
C895 H881 0.960 . S
C895 H882 0.961 1_455 S
C895 H883 0.959 . S
C895 C893 1.561 1_455 S
C896 C893 1.526 . S
C896 C897 1.396 . S
C896 C901 1.390 . S
C897 C891 1.465 1_655 S
C897 C896 1.396 . S
C897 C898 1.399 . S
C898 H884 0.929 1_655 S
C898 C897 1.399 . S
C898 C899 1.385 . S
C899 H885 0.931 . S
C899 C898 1.385 . S
C899 C900 1.389 . S
C900 C899 1.389 . S
C900 C901 1.387 . S
C901 H886 0.930 . S
C901 C896 1.390 . S
C901 C900 1.387 . S
H902 C914 0.930 . S
H903 C916 0.930 . S
H904 C917 0.930 . S
H905 C921 0.959 . S
H906 C921 0.959 . S
H907 C921 0.961 . S
H908 C922 0.960 . S
H909 C922 0.961 . S
H910 C922 0.959 . S
H911 C925 0.929 . S
H912 C926 0.931 . S
H913 C928 0.930 . S
C914 H902 0.930 . S
C914 C915 1.399 . S
C914 C919 1.399 . S
C915 C914 1.399 . S
C915 C916 1.376 . S
C916 H903 0.930 . S
C916 C915 1.376 . S
C916 C917 1.388 . S
C917 H904 0.930 . S
C917 C916 1.388 . S
C917 C918 1.390 . S
C918 C917 1.390 . S
C918 C919 1.394 . S
C918 C924 1.465 . S
C919 C914 1.399 . S
C919 C918 1.394 . S
C919 C920 1.516 . S
C920 C919 1.516 . S
C920 C921 1.502 . S
C920 C922 1.561 . S
C920 C923 1.526 . S
C921 H905 0.959 . S
C921 H906 0.959 . S
C921 H907 0.961 . S
C921 C920 1.502 . S
C922 H908 0.960 . S
C922 H909 0.961 . S
C922 H910 0.959 . S
C922 C920 1.561 . S
C923 C920 1.526 . S
C923 C924 1.396 . S
C923 C928 1.390 . S
C924 C918 1.465 . S
C924 C923 1.396 . S
C924 C925 1.399 . S
C925 H911 0.929 . S
C925 C924 1.399 . S
C925 C926 1.385 . S
C926 H912 0.931 . S
C926 C925 1.385 . S
C926 C927 1.389 . S
C927 C926 1.389 . S
C927 C928 1.387 . S
C928 H913 0.930 . S
C928 C923 1.390 . S
C928 C927 1.387 . S
H929 C941 0.930 . S
H930 C943 0.930 . S
H931 C944 0.930 . S
H932 C948 0.959 . S
H933 C948 0.959 . S
H934 C948 0.961 . S
H935 C949 0.960 . S
H936 C949 0.961 . S
H937 C949 0.959 . S
H938 C952 0.929 . S
H939 C953 0.931 . S
H940 C955 0.930 . S
C941 H929 0.930 . S
C941 C942 1.399 . S
C941 C946 1.399 . S
C942 C941 1.399 . S
C942 C943 1.376 . S
C943 H930 0.930 . S
C943 C942 1.376 . S
C943 C944 1.388 . S
C944 H931 0.930 . S
C944 C943 1.388 . S
C944 C945 1.390 . S
C945 C944 1.390 . S
C945 C946 1.394 . S
C945 C951 1.465 . S
C946 C941 1.399 . S
C946 C945 1.394 . S
C946 C947 1.516 . S
C947 C946 1.516 . S
C947 C948 1.502 . S
C947 C949 1.561 . S
C947 C950 1.526 . S
C948 H932 0.959 . S
C948 H933 0.959 . S
C948 H934 0.961 . S
C948 C947 1.502 . S
C949 H935 0.960 . S
C949 H936 0.961 . S
C949 H937 0.959 . S
C949 C947 1.561 . S
C950 C947 1.526 . S
C950 C951 1.396 . S
C950 C955 1.390 . S
C951 C945 1.465 . S
C951 C950 1.396 . S
C951 C952 1.399 . S
C952 H938 0.929 . S
C952 C951 1.399 . S
C952 C953 1.385 . S
C953 H939 0.931 . S
C953 C952 1.385 . S
C953 C954 1.389 . S
C954 C953 1.389 . S
C954 C955 1.387 . S
C955 H940 0.930 . S
C955 C950 1.390 . S
C955 C954 1.387 . S
H956 C968 0.930 . S
H957 C970 0.930 . S
H958 C971 0.930 . S
H959 C975 0.959 . S
H960 C975 0.959 . S
H961 C975 0.961 . S
H962 C976 0.960 . S
H963 C976 0.961 . S
H964 C976 0.959 . S
H965 C979 0.929 . S
H966 C980 0.931 . S
H967 C982 0.930 . S
C968 H956 0.930 . S
C968 C969 1.399 . S
C968 C973 1.399 . S
C969 C968 1.399 . S
C969 C970 1.376 . S
C970 H957 0.930 . S
C970 C969 1.376 . S
C970 C971 1.388 . S
C971 H958 0.930 . S
C971 C970 1.388 . S
C971 C972 1.390 . S
C972 C971 1.390 . S
C972 C973 1.394 . S
C972 C978 1.465 . S
C973 C968 1.399 . S
C973 C972 1.394 . S
C973 C974 1.516 . S
C974 C973 1.516 . S
C974 C975 1.502 . S
C974 C976 1.561 . S
C974 C977 1.526 . S
C975 H959 0.959 . S
C975 H960 0.959 . S
C975 H961 0.961 . S
C975 C974 1.502 . S
C976 H962 0.960 . S
C976 H963 0.961 . S
C976 H964 0.959 . S
C976 C974 1.561 . S
C977 C974 1.526 . S
C977 C978 1.396 . S
C977 C982 1.390 . S
C978 C972 1.465 . S
C978 C977 1.396 . S
C978 C979 1.399 . S
C979 H965 0.929 . S
C979 C978 1.399 . S
C979 C980 1.385 . S
C980 H966 0.931 . S
C980 C979 1.385 . S
C980 C981 1.389 . S
C981 C980 1.389 . S
C981 C982 1.387 . S
C982 H967 0.930 . S
C982 C977 1.390 . S
C982 C981 1.387 . S
H983 C995 0.930 . S
H984 C997 0.930 . S
H985 C998 0.930 . S
H986 C1002 0.959 . S
H987 C1002 0.959 . S
H988 C1002 0.961 1_554 S
H989 C1003 0.960 . S
H990 C1003 0.961 . S
H991 C1003 0.959 . S
H992 C1006 0.929 . S
H993 C1007 0.931 . S
H994 C1009 0.930 . S
C995 H983 0.930 . S
C995 C996 1.399 . S
C995 C1000 1.399 1_554 S
C996 C995 1.399 . S
C996 C997 1.376 . S
C997 H984 0.930 . S
C997 C996 1.376 . S
C997 C998 1.388 1_554 S
C998 H985 0.930 . S
C998 C997 1.388 1_556 S
C998 C999 1.390 . S
C999 C998 1.390 . S
C999 C1000 1.394 . S
C999 C1005 1.465 . S
C1000 C995 1.399 1_556 S
C1000 C999 1.394 . S
C1000 C1001 1.516 . S
C1001 C1000 1.516 . S
C1001 C1002 1.502 . S
C1001 C1003 1.561 . S
C1001 C1004 1.526 . S
C1002 H986 0.959 . S
C1002 H987 0.959 . S
C1002 H988 0.961 1_556 S
C1002 C1001 1.502 . S
C1003 H989 0.960 . S
C1003 H990 0.961 . S
C1003 H991 0.959 . S
C1003 C1001 1.561 . S
C1004 C1001 1.526 . S
C1004 C1005 1.396 . S
C1004 C1009 1.390 . S
C1005 C999 1.465 . S
C1005 C1004 1.396 . S
C1005 C1006 1.399 . S
C1006 H992 0.929 . S
C1006 C1005 1.399 . S
C1006 C1007 1.385 . S
C1007 H993 0.931 . S
C1007 C1006 1.385 . S
C1007 C1008 1.389 . S
C1008 C1007 1.389 . S
C1008 C1009 1.387 . S
C1009 H994 0.930 . S
C1009 C1004 1.390 . S
C1009 C1008 1.387 . S
H1010 C1022 0.930 . S
H1011 C1024 0.930 . S
H1012 C1025 0.930 . S
H1013 C1029 0.959 . S
H1014 C1029 0.959 . S
H1015 C1029 0.961 . S
H1016 C1030 0.960 . S
H1017 C1030 0.961 . S
H1018 C1030 0.959 . S
H1019 C1033 0.929 . S
H1020 C1034 0.931 . S
H1021 C1036 0.930 . S
C1022 H1010 0.930 . S
C1022 C1023 1.399 . S
C1022 C1027 1.399 . S
C1023 C1022 1.399 . S
C1023 C1024 1.376 . S
C1024 H1011 0.930 . S
C1024 C1023 1.376 . S
C1024 C1025 1.388 . S
C1025 H1012 0.930 . S
C1025 C1024 1.388 . S
C1025 C1026 1.390 . S
C1026 C1025 1.390 . S
C1026 C1027 1.394 . S
C1026 C1032 1.465 . S
C1027 C1022 1.399 . S
C1027 C1026 1.394 . S
C1027 C1028 1.516 . S
C1028 C1027 1.516 . S
C1028 C1029 1.502 . S
C1028 C1030 1.561 . S
C1028 C1031 1.526 . S
C1029 H1013 0.959 . S
C1029 H1014 0.959 . S
C1029 H1015 0.961 . S
C1029 C1028 1.502 . S
C1030 H1016 0.960 . S
C1030 H1017 0.961 . S
C1030 H1018 0.959 . S
C1030 C1028 1.561 . S
C1031 C1028 1.526 . S
C1031 C1032 1.396 . S
C1031 C1036 1.390 . S
C1032 C1026 1.465 . S
C1032 C1031 1.396 . S
C1032 C1033 1.399 . S
C1033 H1019 0.929 . S
C1033 C1032 1.399 . S
C1033 C1034 1.385 . S
C1034 H1020 0.931 . S
C1034 C1033 1.385 . S
C1034 C1035 1.389 . S
C1035 C1034 1.389 . S
C1035 C1036 1.387 . S
C1036 H1021 0.930 . S
C1036 C1031 1.390 . S
C1036 C1035 1.387 . S
H1037 C1049 0.930 . S
H1038 C1051 0.930 . S
H1039 C1052 0.930 . S
H1040 C1056 0.959 . S
H1041 C1056 0.959 . S
H1042 C1056 0.961 . S
H1043 C1057 0.960 . S
H1044 C1057 0.961 . S
H1045 C1057 0.959 . S
H1046 C1060 0.929 . S
H1047 C1061 0.931 . S
H1048 C1063 0.930 . S
C1049 H1037 0.930 . S
C1049 C1050 1.399 . S
C1049 C1054 1.399 . S
C1050 C1049 1.399 . S
C1050 C1051 1.376 . S
C1051 H1038 0.930 . S
C1051 C1050 1.376 . S
C1051 C1052 1.388 . S
C1052 H1039 0.930 . S
C1052 C1051 1.388 . S
C1052 C1053 1.390 . S
C1053 C1052 1.390 . S
C1053 C1054 1.394 . S
C1053 C1059 1.465 1_455 S
C1054 C1049 1.399 . S
C1054 C1053 1.394 . S
C1054 C1055 1.516 1_455 S
C1055 C1054 1.516 1_655 S
C1055 C1056 1.502 . S
C1055 C1057 1.561 1_655 S
C1055 C1058 1.526 . S
C1056 H1040 0.959 . S
C1056 H1041 0.959 . S
C1056 H1042 0.961 . S
C1056 C1055 1.502 . S
C1057 H1043 0.960 . S
C1057 H1044 0.961 . S
C1057 H1045 0.959 . S
C1057 C1055 1.561 1_455 S
C1058 C1055 1.526 . S
C1058 C1059 1.396 . S
C1058 C1063 1.390 . S
C1059 C1053 1.465 1_655 S
C1059 C1058 1.396 . S
C1059 C1060 1.399 . S
C1060 H1046 0.929 . S
C1060 C1059 1.399 . S
C1060 C1061 1.385 . S
C1061 H1047 0.931 . S
C1061 C1060 1.385 . S
C1061 C1062 1.389 . S
C1062 C1061 1.389 . S
C1062 C1063 1.387 . S
C1063 H1048 0.930 . S
C1063 C1058 1.390 . S
C1063 C1062 1.387 . S
H1064 C1076 0.930 . S
H1065 C1078 0.930 . S
H1066 C1079 0.930 . S
H1067 C1083 0.959 . S
H1068 C1083 0.959 . S
H1069 C1083 0.961 . S
H1070 C1084 0.960 . S
H1071 C1084 0.961 . S
H1072 C1084 0.959 . S
H1073 C1087 0.929 . S
H1074 C1088 0.931 . S
H1075 C1090 0.930 . S
C1076 H1064 0.930 . S
C1076 C1077 1.399 . S
C1076 C1081 1.399 . S
C1077 C1076 1.399 . S
C1077 C1078 1.376 . S
C1078 H1065 0.930 . S
C1078 C1077 1.376 . S
C1078 C1079 1.388 . S
C1079 H1066 0.930 . S
C1079 C1078 1.388 . S
C1079 C1080 1.390 . S
C1080 C1079 1.390 . S
C1080 C1081 1.394 . S
C1080 C1086 1.465 . S
C1081 C1076 1.399 . S
C1081 C1080 1.394 . S
C1081 C1082 1.516 . S
C1082 C1081 1.516 . S
C1082 C1083 1.502 . S
C1082 C1084 1.561 . S
C1082 C1085 1.526 . S
C1083 H1067 0.959 . S
C1083 H1068 0.959 . S
C1083 H1069 0.961 . S
C1083 C1082 1.502 . S
C1084 H1070 0.960 . S
C1084 H1071 0.961 . S
C1084 H1072 0.959 . S
C1084 C1082 1.561 . S
C1085 C1082 1.526 . S
C1085 C1086 1.396 . S
C1085 C1090 1.390 . S
C1086 C1080 1.465 . S
C1086 C1085 1.396 . S
C1086 C1087 1.399 . S
C1087 H1073 0.929 . S
C1087 C1086 1.399 . S
C1087 C1088 1.385 . S
C1088 H1074 0.931 . S
C1088 C1087 1.385 . S
C1088 C1089 1.389 . S
C1089 C1088 1.389 . S
C1089 C1090 1.387 . S
C1090 H1075 0.930 . S
C1090 C1085 1.390 . S
C1090 C1089 1.387 . S
H1091 C1103 0.930 . S
H1092 C1105 0.930 . S
H1093 C1106 0.930 . S
H1094 C1110 0.959 . S
H1095 C1110 0.959 . S
H1096 C1110 0.961 . S
H1097 C1111 0.960 . S
H1098 C1111 0.961 . S
H1099 C1111 0.959 . S
H1100 C1114 0.929 . S
H1101 C1115 0.931 . S
H1102 C1117 0.930 . S
C1103 H1091 0.930 . S
C1103 C1104 1.399 . S
C1103 C1108 1.399 1_554 S
C1104 C1103 1.399 . S
C1104 C1105 1.376 . S
C1105 H1092 0.930 . S
C1105 C1104 1.376 . S
C1105 C1106 1.388 1_554 S
C1106 H1093 0.930 . S
C1106 C1105 1.388 1_556 S
C1106 C1107 1.390 . S
C1107 C1106 1.390 . S
C1107 C1108 1.394 . S
C1107 C1113 1.465 1_655 S
C1108 C1103 1.399 1_556 S
C1108 C1107 1.394 . S
C1108 C1109 1.516 1_655 S
C1109 C1108 1.516 1_455 S
C1109 C1110 1.502 . S
C1109 C1111 1.561 1_455 S
C1109 C1112 1.526 . S
C1110 H1094 0.959 . S
C1110 H1095 0.959 . S
C1110 H1096 0.961 . S
C1110 C1109 1.502 . S
C1111 H1097 0.960 . S
C1111 H1098 0.961 . S
C1111 H1099 0.959 . S
C1111 C1109 1.561 1_655 S
C1112 C1109 1.526 . S
C1112 C1113 1.396 . S
C1112 C1117 1.390 . S
C1113 C1107 1.465 1_455 S
C1113 C1112 1.396 . S
C1113 C1114 1.399 . S
C1114 H1100 0.929 . S
C1114 C1113 1.399 . S
C1114 C1115 1.385 . S
C1115 H1101 0.931 . S
C1115 C1114 1.385 . S
C1115 C1116 1.389 . S
C1116 C1115 1.389 . S
C1116 C1117 1.387 . S
C1117 H1102 0.930 . S
C1117 C1112 1.390 . S
C1117 C1116 1.387 . S
H1118 C1130 0.930 . S
H1119 C1132 0.930 . S
H1120 C1133 0.930 . S
H1121 C1137 0.959 . S
H1122 C1137 0.959 . S
H1123 C1137 0.961 . S
H1124 C1138 0.960 . S
H1125 C1138 0.961 . S
H1126 C1138 0.959 . S
H1127 C1141 0.929 . S
H1128 C1142 0.931 . S
H1129 C1144 0.930 . S
C1130 H1118 0.930 . S
C1130 C1131 1.399 . S
C1130 C1135 1.399 . S
C1131 C1130 1.399 . S
C1131 C1132 1.376 . S
C1132 H1119 0.930 . S
C1132 C1131 1.376 . S
C1132 C1133 1.388 . S
C1133 H1120 0.930 . S
C1133 C1132 1.388 . S
C1133 C1134 1.390 . S
C1134 C1133 1.390 . S
C1134 C1135 1.394 . S
C1134 C1140 1.465 . S
C1135 C1130 1.399 . S
C1135 C1134 1.394 . S
C1135 C1136 1.516 . S
C1136 C1135 1.516 . S
C1136 C1137 1.502 . S
C1136 C1138 1.561 . S
C1136 C1139 1.526 . S
C1137 H1121 0.959 . S
C1137 H1122 0.959 . S
C1137 H1123 0.961 . S
C1137 C1136 1.502 . S
C1138 H1124 0.960 . S
C1138 H1125 0.961 . S
C1138 H1126 0.959 . S
C1138 C1136 1.561 . S
C1139 C1136 1.526 . S
C1139 C1140 1.396 . S
C1139 C1144 1.390 . S
C1140 C1134 1.465 . S
C1140 C1139 1.396 . S
C1140 C1141 1.399 . S
C1141 H1127 0.929 . S
C1141 C1140 1.399 . S
C1141 C1142 1.385 . S
C1142 H1128 0.931 . S
C1142 C1141 1.385 . S
C1142 C1143 1.389 . S
C1143 C1142 1.389 . S
C1143 C1144 1.387 . S
C1144 H1129 0.930 . S
C1144 C1139 1.390 . S
C1144 C1143 1.387 . S
H1145 C1157 0.930 . S
H1146 C1159 0.930 . S
H1147 C1160 0.930 . S
H1148 C1164 0.959 . S
H1149 C1164 0.959 . S
H1150 C1164 0.961 . S
H1151 C1165 0.960 . S
H1152 C1165 0.961 . S
H1153 C1165 0.959 . S
H1154 C1168 0.929 . S
H1155 C1169 0.931 . S
H1156 C1171 0.930 . S
C1157 H1145 0.930 . S
C1157 C1158 1.399 . S
C1157 C1162 1.399 . S
C1158 C1157 1.399 . S
C1158 C1159 1.376 . S
C1159 H1146 0.930 . S
C1159 C1158 1.376 . S
C1159 C1160 1.388 . S
C1160 H1147 0.930 . S
C1160 C1159 1.388 . S
C1160 C1161 1.390 . S
C1161 C1160 1.390 . S
C1161 C1162 1.394 . S
C1161 C1167 1.465 . S
C1162 C1157 1.399 . S
C1162 C1161 1.394 . S
C1162 C1163 1.516 . S
C1163 C1162 1.516 . S
C1163 C1164 1.502 . S
C1163 C1165 1.561 . S
C1163 C1166 1.526 . S
C1164 H1148 0.959 . S
C1164 H1149 0.959 . S
C1164 H1150 0.961 . S
C1164 C1163 1.502 . S
C1165 H1151 0.960 . S
C1165 H1152 0.961 . S
C1165 H1153 0.959 . S
C1165 C1163 1.561 . S
C1166 C1163 1.526 . S
C1166 C1167 1.396 . S
C1166 C1171 1.390 . S
C1167 C1161 1.465 . S
C1167 C1166 1.396 . S
C1167 C1168 1.399 . S
C1168 H1154 0.929 . S
C1168 C1167 1.399 . S
C1168 C1169 1.385 . S
C1169 H1155 0.931 . S
C1169 C1168 1.385 . S
C1169 C1170 1.389 . S
C1170 C1169 1.389 . S
C1170 C1171 1.387 . S
C1171 H1156 0.930 . S
C1171 C1166 1.390 . S
C1171 C1170 1.387 . S
H1172 C1184 0.930 . S
H1173 C1186 0.930 . S
H1174 C1187 0.930 . S
H1175 C1191 0.959 . S
H1176 C1191 0.959 . S
H1177 C1191 0.961 . S
H1178 C1192 0.960 . S
H1179 C1192 0.961 . S
H1180 C1192 0.959 . S
H1181 C1195 0.929 . S
H1182 C1196 0.931 . S
H1183 C1198 0.930 . S
C1184 H1172 0.930 . S
C1184 C1185 1.399 . S
C1184 C1189 1.399 . S
C1185 C1184 1.399 . S
C1185 C1186 1.376 . S
C1186 H1173 0.930 . S
C1186 C1185 1.376 . S
C1186 C1187 1.388 . S
C1187 H1174 0.930 . S
C1187 C1186 1.388 . S
C1187 C1188 1.390 . S
C1188 C1187 1.390 . S
C1188 C1189 1.394 . S
C1188 C1194 1.465 . S
C1189 C1184 1.399 . S
C1189 C1188 1.394 . S
C1189 C1190 1.516 . S
C1190 C1189 1.516 . S
C1190 C1191 1.502 . S
C1190 C1192 1.561 . S
C1190 C1193 1.526 . S
C1191 H1175 0.959 . S
C1191 H1176 0.959 . S
C1191 H1177 0.961 . S
C1191 C1190 1.502 . S
C1192 H1178 0.960 . S
C1192 H1179 0.961 . S
C1192 H1180 0.959 . S
C1192 C1190 1.561 . S
C1193 C1190 1.526 . S
C1193 C1194 1.396 . S
C1193 C1198 1.390 . S
C1194 C1188 1.465 . S
C1194 C1193 1.396 . S
C1194 C1195 1.399 . S
C1195 H1181 0.929 . S
C1195 C1194 1.399 . S
C1195 C1196 1.385 . S
C1196 H1182 0.931 . S
C1196 C1195 1.385 . S
C1196 C1197 1.389 . S
C1197 C1196 1.389 . S
C1197 C1198 1.387 . S
C1198 H1183 0.930 . S
C1198 C1193 1.390 . S
C1198 C1197 1.387 . S
H1199 C1211 0.930 . S
H1200 C1213 0.930 . S
H1201 C1214 0.930 . S
H1202 C1218 0.959 1_556 S
H1203 C1218 0.959 1_556 S
H1204 C1218 0.961 . S
H1205 C1219 0.960 . S
H1206 C1219 0.961 . S
H1207 C1219 0.959 . S
H1208 C1222 0.929 . S
H1209 C1223 0.931 . S
H1210 C1225 0.930 . S
C1211 H1199 0.930 . S
C1211 C1212 1.399 . S
C1211 C1216 1.399 . S
C1212 C1211 1.399 . S
C1212 C1213 1.376 . S
C1213 H1200 0.930 . S
C1213 C1212 1.376 . S
C1213 C1214 1.388 . S
C1214 H1201 0.930 . S
C1214 C1213 1.388 . S
C1214 C1215 1.390 . S
C1215 C1214 1.390 . S
C1215 C1216 1.394 . S
C1215 C1221 1.465 . S
C1216 C1211 1.399 . S
C1216 C1215 1.394 . S
C1216 C1217 1.516 . S
C1217 C1216 1.516 . S
C1217 C1218 1.502 . S
C1217 C1219 1.561 . S
C1217 C1220 1.526 . S
C1218 H1202 0.959 1_554 S
C1218 H1203 0.959 1_554 S
C1218 H1204 0.961 . S
C1218 C1217 1.502 . S
C1219 H1205 0.960 . S
C1219 H1206 0.961 . S
C1219 H1207 0.959 . S
C1219 C1217 1.561 . S
C1220 C1217 1.526 . S
C1220 C1221 1.396 . S
C1220 C1225 1.390 1_554 S
C1221 C1215 1.465 . S
C1221 C1220 1.396 . S
C1221 C1222 1.399 . S
C1222 H1208 0.929 . S
C1222 C1221 1.399 . S
C1222 C1223 1.385 1_554 S
C1223 H1209 0.931 . S
C1223 C1222 1.385 1_556 S
C1223 C1224 1.389 . S
C1224 C1223 1.389 . S
C1224 C1225 1.387 . S
C1225 H1210 0.930 . S
C1225 C1220 1.390 1_556 S
C1225 C1224 1.387 . S
H1226 C1238 0.930 . S
H1227 C1240 0.930 . S
H1228 C1241 0.930 . S
H1229 C1245 0.959 . S
H1230 C1245 0.959 . S
H1231 C1245 0.961 . S
H1232 C1246 0.960 . S
H1233 C1246 0.961 . S
H1234 C1246 0.959 . S
H1235 C1249 0.929 . S
H1236 C1250 0.931 . S
H1237 C1252 0.930 . S
C1238 H1226 0.930 . S
C1238 C1239 1.399 . S
C1238 C1243 1.399 . S
C1239 C1238 1.399 . S
C1239 C1240 1.376 . S
C1240 H1227 0.930 . S
C1240 C1239 1.376 . S
C1240 C1241 1.388 . S
C1241 H1228 0.930 . S
C1241 C1240 1.388 . S
C1241 C1242 1.390 . S
C1242 C1241 1.390 . S
C1242 C1243 1.394 . S
C1242 C1248 1.465 . S
C1243 C1238 1.399 . S
C1243 C1242 1.394 . S
C1243 C1244 1.516 . S
C1244 C1243 1.516 . S
C1244 C1245 1.502 . S
C1244 C1246 1.561 . S
C1244 C1247 1.526 . S
C1245 H1229 0.959 . S
C1245 H1230 0.959 . S
C1245 H1231 0.961 . S
C1245 C1244 1.502 . S
C1246 H1232 0.960 . S
C1246 H1233 0.961 . S
C1246 H1234 0.959 . S
C1246 C1244 1.561 . S
C1247 C1244 1.526 . S
C1247 C1248 1.396 . S
C1247 C1252 1.390 . S
C1248 C1242 1.465 . S
C1248 C1247 1.396 . S
C1248 C1249 1.399 . S
C1249 H1235 0.929 . S
C1249 C1248 1.399 . S
C1249 C1250 1.385 . S
C1250 H1236 0.931 . S
C1250 C1249 1.385 . S
C1250 C1251 1.389 . S
C1251 C1250 1.389 . S
C1251 C1252 1.387 . S
C1252 H1237 0.930 . S
C1252 C1247 1.390 . S
C1252 C1251 1.387 . S
H1253 C1265 0.930 . S
H1254 C1267 0.930 . S
H1255 C1268 0.930 . S
H1256 C1272 0.959 . S
H1257 C1272 0.959 . S
H1258 C1272 0.961 . S
H1259 C1273 0.960 . S
H1260 C1273 0.961 . S
H1261 C1273 0.959 . S
H1262 C1276 0.929 . S
H1263 C1277 0.931 . S
H1264 C1279 0.930 . S
C1265 H1253 0.930 . S
C1265 C1266 1.399 . S
C1265 C1270 1.399 . S
C1266 C1265 1.399 . S
C1266 C1267 1.376 . S
C1267 H1254 0.930 . S
C1267 C1266 1.376 . S
C1267 C1268 1.388 . S
C1268 H1255 0.930 . S
C1268 C1267 1.388 . S
C1268 C1269 1.390 . S
C1269 C1268 1.390 . S
C1269 C1270 1.394 . S
C1269 C1275 1.465 1_655 S
C1270 C1265 1.399 . S
C1270 C1269 1.394 . S
C1270 C1271 1.516 . S
C1271 C1270 1.516 . S
C1271 C1272 1.502 1_655 S
C1271 C1273 1.561 . S
C1271 C1274 1.526 1_655 S
C1272 H1256 0.959 . S
C1272 H1257 0.959 . S
C1272 H1258 0.961 . S
C1272 C1271 1.502 1_455 S
C1273 H1259 0.960 . S
C1273 H1260 0.961 . S
C1273 H1261 0.959 . S
C1273 C1271 1.561 . S
C1274 C1271 1.526 1_455 S
C1274 C1275 1.396 . S
C1274 C1279 1.390 . S
C1275 C1269 1.465 1_455 S
C1275 C1274 1.396 . S
C1275 C1276 1.399 . S
C1276 H1262 0.929 . S
C1276 C1275 1.399 . S
C1276 C1277 1.385 . S
C1277 H1263 0.931 . S
C1277 C1276 1.385 . S
C1277 C1278 1.389 . S
C1278 C1277 1.389 . S
C1278 C1279 1.387 . S
C1279 H1264 0.930 . S
C1279 C1274 1.390 . S
C1279 C1278 1.387 . S
H1280 C1292 0.930 . S
H1281 C1294 0.930 . S
H1282 C1295 0.930 . S
H1283 C1299 0.959 . S
H1284 C1299 0.959 . S
H1285 C1299 0.961 . S
H1286 C1300 0.960 . S
H1287 C1300 0.961 . S
H1288 C1300 0.959 . S
H1289 C1303 0.929 . S
H1290 C1304 0.931 . S
H1291 C1306 0.930 . S
C1292 H1280 0.930 . S
C1292 C1293 1.399 . S
C1292 C1297 1.399 . S
C1293 C1292 1.399 . S
C1293 C1294 1.376 . S
C1294 H1281 0.930 . S
C1294 C1293 1.376 . S
C1294 C1295 1.388 . S
C1295 H1282 0.930 . S
C1295 C1294 1.388 . S
C1295 C1296 1.390 . S
C1296 C1295 1.390 . S
C1296 C1297 1.394 . S
C1296 C1302 1.465 . S
C1297 C1292 1.399 . S
C1297 C1296 1.394 . S
C1297 C1298 1.516 . S
C1298 C1297 1.516 . S
C1298 C1299 1.502 . S
C1298 C1300 1.561 . S
C1298 C1301 1.526 . S
C1299 H1283 0.959 . S
C1299 H1284 0.959 . S
C1299 H1285 0.961 . S
C1299 C1298 1.502 . S
C1300 H1286 0.960 . S
C1300 H1287 0.961 . S
C1300 H1288 0.959 . S
C1300 C1298 1.561 . S
C1301 C1298 1.526 . S
C1301 C1302 1.396 . S
C1301 C1306 1.390 . S
C1302 C1296 1.465 . S
C1302 C1301 1.396 . S
C1302 C1303 1.399 . S
C1303 H1289 0.929 . S
C1303 C1302 1.399 . S
C1303 C1304 1.385 . S
C1304 H1290 0.931 . S
C1304 C1303 1.385 . S
C1304 C1305 1.389 . S
C1305 C1304 1.389 . S
C1305 C1306 1.387 . S
C1306 H1291 0.930 . S
C1306 C1301 1.390 . S
C1306 C1305 1.387 . S
H1307 C1319 0.930 . S
H1308 C1321 0.930 . S
H1309 C1322 0.930 . S
H1310 C1326 0.959 . S
H1311 C1326 0.959 . S
H1312 C1326 0.961 . S
H1313 C1327 0.960 . S
H1314 C1327 0.961 . S
H1315 C1327 0.959 . S
H1316 C1330 0.929 . S
H1317 C1331 0.931 . S
H1318 C1333 0.930 . S
C1319 H1307 0.930 . S
C1319 C1320 1.399 . S
C1319 C1324 1.399 . S
C1320 C1319 1.399 . S
C1320 C1321 1.376 . S
C1321 H1308 0.930 . S
C1321 C1320 1.376 . S
C1321 C1322 1.388 . S
C1322 H1309 0.930 . S
C1322 C1321 1.388 . S
C1322 C1323 1.390 . S
C1323 C1322 1.390 . S
C1323 C1324 1.394 . S
C1323 C1329 1.465 . S
C1324 C1319 1.399 . S
C1324 C1323 1.394 . S
C1324 C1325 1.516 . S
C1325 C1324 1.516 . S
C1325 C1326 1.502 . S
C1325 C1327 1.561 . S
C1325 C1328 1.526 . S
C1326 H1310 0.959 . S
C1326 H1311 0.959 . S
C1326 H1312 0.961 . S
C1326 C1325 1.502 . S
C1327 H1313 0.960 . S
C1327 H1314 0.961 . S
C1327 H1315 0.959 . S
C1327 C1325 1.561 . S
C1328 C1325 1.526 . S
C1328 C1329 1.396 . S
C1328 C1333 1.390 . S
C1329 C1323 1.465 . S
C1329 C1328 1.396 . S
C1329 C1330 1.399 . S
C1330 H1316 0.929 . S
C1330 C1329 1.399 . S
C1330 C1331 1.385 . S
C1331 H1317 0.931 . S
C1331 C1330 1.385 . S
C1331 C1332 1.389 . S
C1332 C1331 1.389 . S
C1332 C1333 1.387 . S
C1333 H1318 0.930 . S
C1333 C1328 1.390 . S
C1333 C1332 1.387 . S
H1334 C1346 0.930 . S
H1335 C1348 0.930 . S
H1336 C1349 0.930 . S
H1337 C1353 0.959 . S
H1338 C1353 0.959 . S
H1339 C1353 0.961 . S
H1340 C1354 0.960 . S
H1341 C1354 0.961 . S
H1342 C1354 0.959 . S
H1343 C1357 0.929 . S
H1344 C1358 0.931 . S
H1345 C1360 0.930 . S
C1346 H1334 0.930 . S
C1346 C1347 1.399 . S
C1346 C1351 1.399 . S
C1347 C1346 1.399 . S
C1347 C1348 1.376 . S
C1348 H1335 0.930 . S
C1348 C1347 1.376 . S
C1348 C1349 1.388 . S
C1349 H1336 0.930 . S
C1349 C1348 1.388 . S
C1349 C1350 1.390 . S
C1350 C1349 1.390 . S
C1350 C1351 1.394 . S
C1350 C1356 1.465 . S
C1351 C1346 1.399 . S
C1351 C1350 1.394 . S
C1351 C1352 1.516 . S
C1352 C1351 1.516 . S
C1352 C1353 1.502 . S
C1352 C1354 1.561 . S
C1352 C1355 1.526 . S
C1353 H1337 0.959 . S
C1353 H1338 0.959 . S
C1353 H1339 0.961 . S
C1353 C1352 1.502 . S
C1354 H1340 0.960 . S
C1354 H1341 0.961 . S
C1354 H1342 0.959 . S
C1354 C1352 1.561 . S
C1355 C1352 1.526 . S
C1355 C1356 1.396 . S
C1355 C1360 1.390 . S
C1356 C1350 1.465 . S
C1356 C1355 1.396 . S
C1356 C1357 1.399 . S
C1357 H1343 0.929 . S
C1357 C1356 1.399 . S
C1357 C1358 1.385 . S
C1358 H1344 0.931 . S
C1358 C1357 1.385 . S
C1358 C1359 1.389 . S
C1359 C1358 1.389 . S
C1359 C1360 1.387 . S
C1360 H1345 0.930 . S
C1360 C1355 1.390 . S
C1360 C1359 1.387 . S
H1361 C1373 0.930 . S
H1362 C1375 0.930 . S
H1363 C1376 0.930 . S
H1364 C1380 0.959 . S
H1365 C1380 0.959 . S
H1366 C1380 0.961 . S
H1367 C1381 0.960 1_455 S
H1368 C1381 0.961 . S
H1369 C1381 0.959 1_455 S
H1370 C1384 0.956 . S
H1371 C1385 0.931 . S
H1372 C1387 0.930 . S
C1373 H1361 0.930 . S
C1373 C1374 1.399 . S
C1373 C1378 1.399 . S
C1374 C1373 1.399 . S
C1374 C1375 1.376 . S
C1375 H1362 0.930 . S
C1375 C1374 1.376 . S
C1375 C1376 1.388 . S
C1376 H1363 0.930 . S
C1376 C1375 1.388 . S
C1376 C1377 1.390 . S
C1377 C1376 1.390 . S
C1377 C1378 1.394 . S
C1377 C1383 1.483 . S
C1378 C1373 1.399 . S
C1378 C1377 1.394 . S
C1378 C1379 1.516 1_455 S
C1379 C1378 1.516 1_655 S
C1379 C1380 1.502 . S
C1379 C1381 1.561 . S
C1379 C1382 1.526 . S
C1380 H1364 0.959 . S
C1380 H1365 0.959 . S
C1380 H1366 0.961 . S
C1380 C1379 1.502 . S
C1381 H1367 0.960 1_655 S
C1381 H1368 0.961 . S
C1381 H1369 0.959 1_655 S
C1381 C1379 1.561 . S
C1382 C1379 1.526 . S
C1382 C1383 1.375 1_655 S
C1382 C1387 1.390 1_554 S
C1383 C1377 1.483 . S
C1383 C1382 1.375 1_455 S
C1383 C1384 1.399 1_554 S
C1384 H1370 0.956 . S
C1384 C1383 1.399 1_556 S
C1384 C1385 1.358 1_455 S
C1385 H1371 0.931 . S
C1385 C1384 1.358 1_655 S
C1385 C1386 1.389 . S
C1386 C1385 1.389 . S
C1386 C1387 1.387 . S
C1387 H1372 0.930 . S
C1387 C1382 1.390 1_556 S
C1387 C1386 1.387 . S
H1388 C1400 0.930 . S
H1389 C1402 0.930 . S
H1390 C1403 0.930 . S
H1391 C1407 0.959 . S
H1392 C1407 0.959 . S
H1393 C1407 0.961 . S
H1394 C1408 0.960 . S
H1395 C1408 0.961 . S
H1396 C1408 0.959 . S
H1397 C1411 0.929 . S
H1398 C1412 0.931 . S
H1399 C1414 0.930 . S
C1400 H1388 0.930 . S
C1400 C1401 1.399 . S
C1400 C1405 1.399 . S
C1401 C1400 1.399 . S
C1401 C1402 1.376 . S
C1402 H1389 0.930 . S
C1402 C1401 1.376 . S
C1402 C1403 1.388 . S
C1403 H1390 0.930 . S
C1403 C1402 1.388 . S
C1403 C1404 1.390 . S
C1404 C1403 1.390 . S
C1404 C1405 1.394 . S
C1404 C1410 1.465 . S
C1405 C1400 1.399 . S
C1405 C1404 1.394 . S
C1405 C1406 1.516 . S
C1406 C1405 1.516 . S
C1406 C1407 1.502 . S
C1406 C1408 1.561 . S
C1406 C1409 1.526 . S
C1407 H1391 0.959 . S
C1407 H1392 0.959 . S
C1407 H1393 0.961 . S
C1407 C1406 1.502 . S
C1408 H1394 0.960 . S
C1408 H1395 0.961 . S
C1408 H1396 0.959 . S
C1408 C1406 1.561 . S
C1409 C1406 1.526 . S
C1409 C1410 1.396 . S
C1409 C1414 1.390 . S
C1410 C1404 1.465 . S
C1410 C1409 1.396 . S
C1410 C1411 1.399 . S
C1411 H1397 0.929 . S
C1411 C1410 1.399 . S
C1411 C1412 1.385 . S
C1412 H1398 0.931 . S
C1412 C1411 1.385 . S
C1412 C1413 1.389 . S
C1413 C1412 1.389 . S
C1413 C1414 1.387 . S
C1414 H1399 0.930 . S
C1414 C1409 1.390 . S
C1414 C1413 1.387 . S
H1415 C1427 0.930 . S
H1416 C1429 0.930 . S
H1417 C1430 0.930 . S
H1418 C1434 0.959 . S
H1419 C1434 0.959 . S
H1420 C1434 0.961 . S
H1421 C1435 0.960 . S
H1422 C1435 0.961 . S
H1423 C1435 0.959 . S
H1424 C1438 0.929 . S
H1425 C1439 0.931 . S
H1426 C1441 0.930 . S
C1427 H1415 0.930 . S
C1427 C1428 1.399 . S
C1427 C1432 1.399 . S
C1428 C1427 1.399 . S
C1428 C1429 1.376 . S
C1429 H1416 0.930 . S
C1429 C1428 1.376 . S
C1429 C1430 1.388 . S
C1430 H1417 0.930 . S
C1430 C1429 1.388 . S
C1430 C1431 1.390 . S
C1431 C1430 1.390 . S
C1431 C1432 1.394 . S
C1431 C1437 1.465 . S
C1432 C1427 1.399 . S
C1432 C1431 1.394 . S
C1432 C1433 1.516 1_655 S
C1433 C1432 1.516 1_455 S
C1433 C1434 1.502 . S
C1433 C1435 1.561 . S
C1433 C1436 1.526 . S
C1434 H1418 0.959 . S
C1434 H1419 0.959 . S
C1434 H1420 0.961 . S
C1434 C1433 1.502 . S
C1435 H1421 0.960 . S
C1435 H1422 0.961 . S
C1435 H1423 0.959 . S
C1435 C1433 1.561 . S
C1436 C1433 1.526 . S
C1436 C1437 1.396 1_455 S
C1436 C1441 1.390 . S
C1437 C1431 1.465 . S
C1437 C1436 1.396 1_655 S
C1437 C1438 1.399 . S
C1438 H1424 0.929 . S
C1438 C1437 1.399 . S
C1438 C1439 1.385 1_655 S
C1439 H1425 0.931 . S
C1439 C1438 1.385 1_455 S
C1439 C1440 1.389 . S
C1440 C1439 1.389 . S
C1440 C1441 1.387 . S
C1441 H1426 0.930 . S
C1441 C1436 1.390 . S
C1441 C1440 1.387 . S
H1442 C1454 0.930 . S
H1443 C1456 0.930 . S
H1444 C1457 0.930 . S
H1445 C1461 0.959 . S
H1446 C1461 0.959 . S
H1447 C1461 0.961 . S
H1448 C1462 0.960 . S
H1449 C1462 0.961 . S
H1450 C1462 0.959 . S
H1451 C1465 0.929 . S
H1452 C1466 0.931 . S
H1453 C1468 0.930 . S
C1454 H1442 0.930 . S
C1454 C1455 1.399 . S
C1454 C1459 1.399 . S
C1455 C1454 1.399 . S
C1455 C1456 1.376 . S
C1456 H1443 0.930 . S
C1456 C1455 1.376 . S
C1456 C1457 1.388 . S
C1457 H1444 0.930 . S
C1457 C1456 1.388 . S
C1457 C1458 1.390 . S
C1458 C1457 1.390 . S
C1458 C1459 1.394 . S
C1458 C1464 1.465 . S
C1459 C1454 1.399 . S
C1459 C1458 1.394 . S
C1459 C1460 1.516 . S
C1460 C1459 1.516 . S
C1460 C1461 1.502 . S
C1460 C1462 1.561 . S
C1460 C1463 1.526 . S
C1461 H1445 0.959 . S
C1461 H1446 0.959 . S
C1461 H1447 0.961 . S
C1461 C1460 1.502 . S
C1462 H1448 0.960 . S
C1462 H1449 0.961 . S
C1462 H1450 0.959 . S
C1462 C1460 1.561 . S
C1463 C1460 1.526 . S
C1463 C1464 1.396 . S
C1463 C1468 1.390 . S
C1464 C1458 1.465 . S
C1464 C1463 1.396 . S
C1464 C1465 1.399 . S
C1465 H1451 0.929 . S
C1465 C1464 1.399 . S
C1465 C1466 1.385 . S
C1466 H1452 0.931 . S
C1466 C1465 1.385 . S
C1466 C1467 1.389 . S
C1467 C1466 1.389 . S
C1467 C1468 1.387 . S
C1468 H1453 0.930 . S
C1468 C1463 1.390 . S
C1468 C1467 1.387 . S
H1469 C1481 0.930 . S
H1470 C1483 0.930 . S
H1471 C1484 0.930 . S
H1472 C1488 0.959 . S
H1473 C1488 0.959 . S
H1474 C1488 0.961 1_554 S
H1475 C1489 0.960 . S
H1476 C1489 0.961 . S
H1477 C1489 0.959 . S
H1478 C1492 0.929 . S
H1479 C1493 0.931 . S
H1480 C1495 0.930 . S
C1481 H1469 0.930 . S
C1481 C1482 1.399 . S
C1481 C1486 1.399 1_554 S
C1482 C1481 1.399 . S
C1482 C1483 1.376 . S
C1483 H1470 0.930 . S
C1483 C1482 1.376 . S
C1483 C1484 1.388 1_554 S
C1484 H1471 0.930 . S
C1484 C1483 1.388 1_556 S
C1484 C1485 1.390 . S
C1485 C1484 1.390 . S
C1485 C1486 1.394 . S
C1485 C1491 1.465 . S
C1486 C1481 1.399 1_556 S
C1486 C1485 1.394 . S
C1486 C1487 1.516 . S
C1487 C1486 1.516 . S
C1487 C1488 1.502 . S
C1487 C1489 1.561 . S
C1487 C1490 1.526 . S
C1488 H1472 0.959 . S
C1488 H1473 0.959 . S
C1488 H1474 0.961 1_556 S
C1488 C1487 1.502 . S
C1489 H1475 0.960 . S
C1489 H1476 0.961 . S
C1489 H1477 0.959 . S
C1489 C1487 1.561 . S
C1490 C1487 1.526 . S
C1490 C1491 1.396 . S
C1490 C1495 1.390 . S
C1491 C1485 1.465 . S
C1491 C1490 1.396 . S
C1491 C1492 1.399 . S
C1492 H1478 0.929 . S
C1492 C1491 1.399 . S
C1492 C1493 1.385 . S
C1493 H1479 0.931 . S
C1493 C1492 1.385 . S
C1493 C1494 1.389 . S
C1494 C1493 1.389 . S
C1494 C1495 1.387 . S
C1495 H1480 0.930 . S
C1495 C1490 1.390 . S
C1495 C1494 1.387 . S
H1496 C1508 0.930 . S
H1497 C1510 0.930 . S
H1498 C1511 0.930 . S
H1499 C1515 0.959 . S
H1500 C1515 0.959 . S
H1501 C1515 0.961 . S
H1502 C1516 0.960 . S
H1503 C1516 0.961 . S
H1504 C1516 0.959 . S
H1505 C1519 0.929 . S
H1506 C1520 0.931 . S
H1507 C1522 0.930 . S
C1508 H1496 0.930 . S
C1508 C1509 1.399 . S
C1508 C1513 1.399 . S
C1509 C1508 1.399 . S
C1509 C1510 1.376 . S
C1510 H1497 0.930 . S
C1510 C1509 1.376 . S
C1510 C1511 1.388 . S
C1511 H1498 0.930 . S
C1511 C1510 1.388 . S
C1511 C1512 1.390 . S
C1512 C1511 1.390 . S
C1512 C1513 1.394 . S
C1512 C1518 1.465 . S
C1513 C1508 1.399 . S
C1513 C1512 1.394 . S
C1513 C1514 1.516 . S
C1514 C1513 1.516 . S
C1514 C1515 1.502 . S
C1514 C1516 1.561 . S
C1514 C1517 1.526 . S
C1515 H1499 0.959 . S
C1515 H1500 0.959 . S
C1515 H1501 0.961 . S
C1515 C1514 1.502 . S
C1516 H1502 0.960 . S
C1516 H1503 0.961 . S
C1516 H1504 0.959 . S
C1516 C1514 1.561 . S
C1517 C1514 1.526 . S
C1517 C1518 1.396 . S
C1517 C1522 1.390 . S
C1518 C1512 1.465 . S
C1518 C1517 1.396 . S
C1518 C1519 1.399 . S
C1519 H1505 0.929 . S
C1519 C1518 1.399 . S
C1519 C1520 1.385 . S
C1520 H1506 0.931 . S
C1520 C1519 1.385 . S
C1520 C1521 1.389 . S
C1521 C1520 1.389 . S
C1521 C1522 1.387 . S
C1522 H1507 0.930 . S
C1522 C1517 1.390 . S
C1522 C1521 1.387 . S
H1523 C1535 0.930 . S
H1524 C1537 0.930 . S
H1525 C1538 0.930 . S
H1526 C1542 0.959 . S
H1527 C1542 0.959 . S
H1528 C1542 0.961 . S
H1529 C1543 0.960 . S
H1530 C1543 0.961 . S
H1531 C1543 0.959 . S
H1532 C1546 0.929 . S
H1533 C1547 0.931 . S
H1534 C1549 0.930 . S
C1535 H1523 0.930 . S
C1535 C1536 1.399 . S
C1535 C1540 1.399 . S
C1536 C1535 1.399 . S
C1536 C1537 1.376 . S
C1537 H1524 0.930 . S
C1537 C1536 1.376 . S
C1537 C1538 1.388 . S
C1538 H1525 0.930 . S
C1538 C1537 1.388 . S
C1538 C1539 1.390 . S
C1539 C1538 1.390 . S
C1539 C1540 1.394 . S
C1539 C1545 1.465 . S
C1540 C1535 1.399 . S
C1540 C1539 1.394 . S
C1540 C1541 1.516 . S
C1541 C1540 1.516 . S
C1541 C1542 1.502 . S
C1541 C1543 1.561 . S
C1541 C1544 1.526 . S
C1542 H1526 0.959 . S
C1542 H1527 0.959 . S
C1542 H1528 0.961 . S
C1542 C1541 1.502 . S
C1543 H1529 0.960 . S
C1543 H1530 0.961 . S
C1543 H1531 0.959 . S
C1543 C1541 1.561 . S
C1544 C1541 1.526 . S
C1544 C1545 1.396 . S
C1544 C1549 1.390 . S
C1545 C1539 1.465 . S
C1545 C1544 1.396 . S
C1545 C1546 1.399 . S
C1546 H1532 0.929 . S
C1546 C1545 1.399 . S
C1546 C1547 1.385 . S
C1547 H1533 0.931 . S
C1547 C1546 1.385 . S
C1547 C1548 1.389 . S
C1548 C1547 1.389 . S
C1548 C1549 1.387 . S
C1549 H1534 0.930 . S
C1549 C1544 1.390 . S
C1549 C1548 1.387 . S
H1550 C1562 0.930 . S
H1551 C1564 0.930 . S
H1552 C1565 0.930 . S
H1553 C1569 0.959 . S
H1554 C1569 0.959 . S
H1555 C1569 0.961 . S
H1556 C1570 0.960 . S
H1557 C1570 0.961 . S
H1558 C1570 0.959 . S
H1559 C1573 0.929 . S
H1560 C1574 0.931 . S
H1561 C1576 0.930 . S
C1562 H1550 0.930 . S
C1562 C1563 1.399 . S
C1562 C1567 1.399 . S
C1563 C1562 1.399 . S
C1563 C1564 1.376 . S
C1564 H1551 0.930 . S
C1564 C1563 1.376 . S
C1564 C1565 1.388 . S
C1565 H1552 0.930 . S
C1565 C1564 1.388 . S
C1565 C1566 1.390 . S
C1566 C1565 1.390 . S
C1566 C1567 1.394 . S
C1566 C1572 1.465 . S
C1567 C1562 1.399 . S
C1567 C1566 1.394 . S
C1567 C1568 1.516 . S
C1568 C1567 1.516 . S
C1568 C1569 1.502 . S
C1568 C1570 1.561 . S
C1568 C1571 1.526 . S
C1569 H1553 0.959 . S
C1569 H1554 0.959 . S
C1569 H1555 0.961 . S
C1569 C1568 1.502 . S
C1570 H1556 0.960 . S
C1570 H1557 0.961 . S
C1570 H1558 0.959 . S
C1570 C1568 1.561 . S
C1571 C1568 1.526 . S
C1571 C1572 1.396 . S
C1571 C1576 1.390 . S
C1572 C1566 1.465 . S
C1572 C1571 1.396 . S
C1572 C1573 1.399 . S
C1573 H1559 0.929 . S
C1573 C1572 1.399 . S
C1573 C1574 1.385 . S
C1574 H1560 0.931 . S
C1574 C1573 1.385 . S
C1574 C1575 1.389 . S
C1575 C1574 1.389 . S
C1575 C1576 1.387 . S
C1576 H1561 0.930 . S
C1576 C1571 1.390 . S
C1576 C1575 1.387 . S
H1577 C1589 0.930 . S
H1578 C1591 0.930 . S
H1579 C1592 0.921 1_455 S
H1580 C1596 0.959 . S
H1581 C1596 0.959 1_554 S
H1582 C1596 0.961 . S
H1583 C1597 0.960 1_556 S
H1584 C1597 0.961 . S
H1585 C1597 0.959 . S
H1586 C1600 0.929 . S
H1587 C1601 0.931 . S
H1588 C1603 0.930 . S
C1589 H1577 0.930 . S
C1589 C1590 1.399 . S
C1589 C1594 1.399 . S
C1590 C1589 1.399 . S
C1590 C1591 1.376 . S
C1591 H1578 0.930 . S
C1591 C1590 1.376 . S
C1591 C1592 1.396 . S
C1592 H1579 0.921 1_655 S
C1592 C1591 1.396 . S
C1592 C1593 1.391 . S
C1593 C1592 1.391 . S
C1593 C1594 1.394 . S
C1593 C1599 1.465 1_655 S
C1594 C1589 1.399 . S
C1594 C1593 1.394 . S
C1594 C1595 1.516 . S
C1595 C1594 1.516 . S
C1595 C1596 1.502 . S
C1595 C1597 1.561 1_556 S
C1595 C1598 1.526 1_655 S
C1596 H1580 0.959 . S
C1596 H1581 0.959 1_556 S
C1596 H1582 0.961 . S
C1596 C1595 1.502 . S
C1597 H1583 0.960 1_554 S
C1597 H1584 0.961 . S
C1597 H1585 0.959 . S
C1597 C1595 1.561 1_554 S
C1598 C1595 1.526 1_455 S
C1598 C1599 1.396 . S
C1598 C1603 1.390 1_556 S
C1599 C1593 1.465 1_455 S
C1599 C1598 1.396 . S
C1599 C1600 1.399 . S
C1600 H1586 0.929 . S
C1600 C1599 1.399 . S
C1600 C1601 1.385 1_556 S
C1601 H1587 0.931 . S
C1601 C1600 1.385 1_554 S
C1601 C1602 1.389 . S
C1602 C1601 1.389 . S
C1602 C1603 1.387 . S
C1603 H1588 0.930 . S
C1603 C1598 1.390 1_554 S
C1603 C1602 1.387 . S
H1604 C1616 0.930 . S
H1605 C1618 0.930 . S
H1606 C1619 0.930 . S
H1607 C1623 0.959 . S
H1608 C1623 0.959 . S
H1609 C1623 0.961 . S
H1610 C1624 0.960 . S
H1611 C1624 0.961 . S
H1612 C1624 0.959 . S
H1613 C1627 0.929 . S
H1614 C1628 0.931 . S
H1615 C1630 0.930 . S
C1616 H1604 0.930 . S
C1616 C1617 1.399 . S
C1616 C1621 1.399 . S
C1617 C1616 1.399 . S
C1617 C1618 1.376 . S
C1618 H1605 0.930 . S
C1618 C1617 1.376 . S
C1618 C1619 1.388 . S
C1619 H1606 0.930 . S
C1619 C1618 1.388 . S
C1619 C1620 1.390 . S
C1620 C1619 1.390 . S
C1620 C1621 1.394 . S
C1620 C1626 1.465 . S
C1621 C1616 1.399 . S
C1621 C1620 1.394 . S
C1621 C1622 1.516 . S
C1622 C1621 1.516 . S
C1622 C1623 1.502 . S
C1622 C1624 1.561 . S
C1622 C1625 1.526 . S
C1623 H1607 0.959 . S
C1623 H1608 0.959 . S
C1623 H1609 0.961 . S
C1623 C1622 1.502 . S
C1624 H1610 0.960 . S
C1624 H1611 0.961 . S
C1624 H1612 0.959 . S
C1624 C1622 1.561 . S
C1625 C1622 1.526 . S
C1625 C1626 1.396 . S
C1625 C1630 1.390 . S
C1626 C1620 1.465 . S
C1626 C1625 1.396 . S
C1626 C1627 1.399 . S
C1627 H1613 0.929 . S
C1627 C1626 1.399 . S
C1627 C1628 1.385 . S
C1628 H1614 0.931 . S
C1628 C1627 1.385 . S
C1628 C1629 1.389 . S
C1629 C1628 1.389 . S
C1629 C1630 1.387 . S
C1630 H1615 0.930 . S
C1630 C1625 1.390 . S
C1630 C1629 1.387 . S
H1631 C1643 0.930 . S
H1632 C1645 0.930 . S
H1633 C1646 0.930 . S
H1634 C1650 0.959 . S
H1635 C1650 0.959 . S
H1636 C1650 0.961 . S
H1637 C1651 0.960 . S
H1638 C1651 0.961 1_455 S
H1639 C1651 0.959 . S
H1640 C1654 0.929 1_655 S
H1641 C1655 0.931 . S
H1642 C1657 0.930 . S
C1643 H1631 0.930 . S
C1643 C1644 1.399 . S
C1643 C1648 1.399 . S
C1644 C1643 1.399 . S
C1644 C1645 1.376 . S
C1645 H1632 0.930 . S
C1645 C1644 1.376 . S
C1645 C1646 1.388 . S
C1646 H1633 0.930 . S
C1646 C1645 1.388 . S
C1646 C1647 1.390 . S
C1647 C1646 1.390 . S
C1647 C1648 1.394 . S
C1647 C1653 1.451 1_655 S
C1648 C1643 1.399 . S
C1648 C1647 1.394 . S
C1648 C1649 1.516 1_655 S
C1649 C1648 1.516 1_455 S
C1649 C1650 1.502 . S
C1649 C1651 1.561 1_455 S
C1649 C1652 1.526 . S
C1650 H1634 0.959 . S
C1650 H1635 0.959 . S
C1650 H1636 0.961 . S
C1650 C1649 1.502 . S
C1651 H1637 0.960 . S
C1651 H1638 0.961 1_655 S
C1651 H1639 0.959 . S
C1651 C1649 1.561 1_655 S
C1652 C1649 1.526 . S
C1652 C1653 1.409 . S
C1652 C1657 1.390 . S
C1653 C1647 1.451 1_455 S
C1653 C1652 1.409 . S
C1653 C1654 1.401 . S
C1654 H1640 0.929 1_455 S
C1654 C1653 1.401 . S
C1654 C1655 1.385 . S
C1655 H1641 0.931 . S
C1655 C1654 1.385 . S
C1655 C1656 1.389 . S
C1656 C1655 1.389 . S
C1656 C1657 1.387 . S
C1657 H1642 0.930 . S
C1657 C1652 1.390 . S
C1657 C1656 1.387 . S
H1658 C1670 0.930 . S
H1659 C1672 0.930 . S
H1660 C1673 0.930 . S
H1661 C1677 0.959 . S
H1662 C1677 0.959 . S
H1663 C1677 0.961 . S
H1664 C1678 0.960 . S
H1665 C1678 0.961 . S
H1666 C1678 0.959 . S
H1667 C1681 0.929 . S
H1668 C1682 0.931 . S
H1669 C1684 0.930 . S
C1670 H1658 0.930 . S
C1670 C1671 1.399 . S
C1670 C1675 1.399 . S
C1671 C1670 1.399 . S
C1671 C1672 1.376 . S
C1672 H1659 0.930 . S
C1672 C1671 1.376 . S
C1672 C1673 1.388 . S
C1673 H1660 0.930 . S
C1673 C1672 1.388 . S
C1673 C1674 1.390 . S
C1674 C1673 1.390 . S
C1674 C1675 1.394 . S
C1674 C1680 1.465 . S
C1675 C1670 1.399 . S
C1675 C1674 1.394 . S
C1675 C1676 1.516 . S
C1676 C1675 1.516 . S
C1676 C1677 1.502 . S
C1676 C1678 1.561 . S
C1676 C1679 1.526 . S
C1677 H1661 0.959 . S
C1677 H1662 0.959 . S
C1677 H1663 0.961 . S
C1677 C1676 1.502 . S
C1678 H1664 0.960 . S
C1678 H1665 0.961 . S
C1678 H1666 0.959 . S
C1678 C1676 1.561 . S
C1679 C1676 1.526 . S
C1679 C1680 1.396 . S
C1679 C1684 1.390 . S
C1680 C1674 1.465 . S
C1680 C1679 1.396 . S
C1680 C1681 1.399 . S
C1681 H1667 0.929 . S
C1681 C1680 1.399 . S
C1681 C1682 1.385 . S
C1682 H1668 0.931 . S
C1682 C1681 1.385 . S
C1682 C1683 1.389 . S
C1683 C1682 1.389 . S
C1683 C1684 1.387 . S
C1684 H1669 0.930 . S
C1684 C1679 1.390 . S
C1684 C1683 1.387 . S
H1685 C1697 0.930 . S
H1686 C1699 0.930 . S
H1687 C1700 0.930 . S
H1688 C1704 0.959 . S
H1689 C1704 0.959 . S
H1690 C1704 0.961 1_554 S
H1691 C1705 0.960 . S
H1692 C1705 0.961 1_556 S
H1693 C1705 0.959 . S
H1694 C1708 0.929 . S
H1695 C1709 0.931 . S
H1696 C1711 0.930 . S
C1697 H1685 0.930 . S
C1697 C1698 1.399 . S
C1697 C1702 1.399 . S
C1698 C1697 1.399 . S
C1698 C1699 1.376 . S
C1699 H1686 0.930 . S
C1699 C1698 1.376 . S
C1699 C1700 1.388 . S
C1700 H1687 0.930 . S
C1700 C1699 1.388 . S
C1700 C1701 1.390 . S
C1701 C1700 1.390 . S
C1701 C1702 1.394 . S
C1701 C1707 1.465 . S
C1702 C1697 1.399 . S
C1702 C1701 1.394 . S
C1702 C1703 1.516 . S
C1703 C1702 1.516 . S
C1703 C1704 1.502 1_554 S
C1703 C1705 1.561 . S
C1703 C1706 1.526 . S
C1704 H1688 0.959 . S
C1704 H1689 0.959 . S
C1704 H1690 0.961 1_556 S
C1704 C1703 1.502 1_556 S
C1705 H1691 0.960 . S
C1705 H1692 0.961 1_554 S
C1705 H1693 0.959 . S
C1705 C1703 1.561 . S
C1706 C1703 1.526 . S
C1706 C1707 1.396 . S
C1706 C1711 1.390 1_554 S
C1707 C1701 1.465 . S
C1707 C1706 1.396 . S
C1707 C1708 1.399 . S
C1708 H1694 0.929 . S
C1708 C1707 1.399 . S
C1708 C1709 1.385 1_554 S
C1709 H1695 0.931 . S
C1709 C1708 1.385 1_556 S
C1709 C1710 1.389 . S
C1710 C1709 1.389 . S
C1710 C1711 1.387 . S
C1711 H1696 0.930 . S
C1711 C1706 1.390 1_556 S
C1711 C1710 1.387 . S
H1712 C1724 0.930 . S
H1713 C1726 0.930 . S
H1714 C1727 0.930 . S
H1715 C1731 0.959 . S
H1716 C1731 0.959 . S
H1717 C1731 0.961 . S
H1718 C1732 0.960 . S
H1719 C1732 0.961 . S
H1720 C1732 0.959 . S
H1721 C1735 0.929 . S
H1722 C1736 0.931 . S
H1723 C1738 0.930 . S
C1724 H1712 0.930 . S
C1724 C1725 1.399 . S
C1724 C1729 1.399 . S
C1725 C1724 1.399 . S
C1725 C1726 1.376 . S
C1726 H1713 0.930 . S
C1726 C1725 1.376 . S
C1726 C1727 1.388 . S
C1727 H1714 0.930 . S
C1727 C1726 1.388 . S
C1727 C1728 1.390 . S
C1728 C1727 1.390 . S
C1728 C1729 1.394 . S
C1728 C1734 1.465 . S
C1729 C1724 1.399 . S
C1729 C1728 1.394 . S
C1729 C1730 1.516 . S
C1730 C1729 1.516 . S
C1730 C1731 1.502 . S
C1730 C1732 1.561 . S
C1730 C1733 1.526 . S
C1731 H1715 0.959 . S
C1731 H1716 0.959 . S
C1731 H1717 0.961 . S
C1731 C1730 1.502 . S
C1732 H1718 0.960 . S
C1732 H1719 0.961 . S
C1732 H1720 0.959 . S
C1732 C1730 1.561 . S
C1733 C1730 1.526 . S
C1733 C1734 1.396 . S
C1733 C1738 1.390 . S
C1734 C1728 1.465 . S
C1734 C1733 1.396 . S
C1734 C1735 1.399 . S
C1735 H1721 0.929 . S
C1735 C1734 1.399 . S
C1735 C1736 1.385 . S
C1736 H1722 0.931 . S
C1736 C1735 1.385 . S
C1736 C1737 1.389 . S
C1737 C1736 1.389 . S
C1737 C1738 1.387 . S
C1738 H1723 0.930 . S
C1738 C1733 1.390 . S
C1738 C1737 1.387 . S
H1739 C1751 0.930 . S
H1740 C1753 0.930 . S
H1741 C1754 0.930 . S
H1742 C1758 0.959 . S
H1743 C1758 0.959 . S
H1744 C1758 0.961 . S
H1745 C1759 0.960 . S
H1746 C1759 0.961 . S
H1747 C1759 0.959 . S
H1748 C1762 0.929 . S
H1749 C1763 0.931 . S
H1750 C1765 0.930 . S
C1751 H1739 0.930 . S
C1751 C1752 1.399 . S
C1751 C1756 1.399 . S
C1752 C1751 1.399 . S
C1752 C1753 1.376 . S
C1753 H1740 0.930 . S
C1753 C1752 1.376 . S
C1753 C1754 1.388 . S
C1754 H1741 0.930 . S
C1754 C1753 1.388 . S
C1754 C1755 1.390 . S
C1755 C1754 1.390 . S
C1755 C1756 1.394 . S
C1755 C1761 1.465 . S
C1756 C1751 1.399 . S
C1756 C1755 1.394 . S
C1756 C1757 1.516 . S
C1757 C1756 1.516 . S
C1757 C1758 1.502 . S
C1757 C1759 1.561 . S
C1757 C1760 1.526 . S
C1758 H1742 0.959 . S
C1758 H1743 0.959 . S
C1758 H1744 0.961 . S
C1758 C1757 1.502 . S
C1759 H1745 0.960 . S
C1759 H1746 0.961 . S
C1759 H1747 0.959 . S
C1759 C1757 1.561 . S
C1760 C1757 1.526 . S
C1760 C1761 1.396 . S
C1760 C1765 1.390 . S
C1761 C1755 1.465 . S
C1761 C1760 1.396 . S
C1761 C1762 1.399 . S
C1762 H1748 0.929 . S
C1762 C1761 1.399 . S
C1762 C1763 1.385 . S
C1763 H1749 0.931 . S
C1763 C1762 1.385 . S
C1763 C1764 1.389 . S
C1764 C1763 1.389 . S
C1764 C1765 1.387 . S
C1765 H1750 0.930 . S
C1765 C1760 1.390 . S
C1765 C1764 1.387 . S
H1766 C1778 0.930 . S
H1767 C1780 0.930 . S
H1768 C1781 0.930 . S
H1769 C1785 0.959 . S
H1770 C1785 0.959 . S
H1771 C1785 0.961 . S
H1772 C1786 0.960 . S
H1773 C1786 0.961 . S
H1774 C1786 0.959 . S
H1775 C1789 0.929 . S
H1776 C1790 0.931 . S
H1777 C1792 0.930 . S
C1778 H1766 0.930 . S
C1778 C1779 1.399 . S
C1778 C1783 1.399 . S
C1779 C1778 1.399 . S
C1779 C1780 1.376 . S
C1780 H1767 0.930 . S
C1780 C1779 1.376 . S
C1780 C1781 1.388 . S
C1781 H1768 0.930 . S
C1781 C1780 1.388 . S
C1781 C1782 1.390 . S
C1782 C1781 1.390 . S
C1782 C1783 1.394 . S
C1782 C1788 1.465 . S
C1783 C1778 1.399 . S
C1783 C1782 1.394 . S
C1783 C1784 1.516 . S
C1784 C1783 1.516 . S
C1784 C1785 1.502 . S
C1784 C1786 1.561 . S
C1784 C1787 1.526 . S
C1785 H1769 0.959 . S
C1785 H1770 0.959 . S
C1785 H1771 0.961 . S
C1785 C1784 1.502 . S
C1786 H1772 0.960 . S
C1786 H1773 0.961 . S
C1786 H1774 0.959 . S
C1786 C1784 1.561 . S
C1787 C1784 1.526 . S
C1787 C1788 1.396 . S
C1787 C1792 1.390 . S
C1788 C1782 1.465 . S
C1788 C1787 1.396 . S
C1788 C1789 1.399 . S
C1789 H1775 0.929 . S
C1789 C1788 1.399 . S
C1789 C1790 1.385 . S
C1790 H1776 0.931 . S
C1790 C1789 1.385 . S
C1790 C1791 1.389 . S
C1791 C1790 1.389 . S
C1791 C1792 1.387 . S
C1792 H1777 0.930 . S
C1792 C1787 1.390 . S
C1792 C1791 1.387 . S
H1793 C1805 0.930 . S
H1794 C1807 0.930 . S
H1795 C1808 0.930 . S
H1796 C1812 0.959 . S
H1797 C1812 0.959 . S
H1798 C1812 0.961 . S
H1799 C1813 0.960 . S
H1800 C1813 0.961 . S
H1801 C1813 0.959 . S
H1802 C1816 0.929 . S
H1803 C1817 0.931 . S
H1804 C1819 0.930 . S
C1805 H1793 0.930 . S
C1805 C1806 1.399 . S
C1805 C1810 1.399 . S
C1806 C1805 1.399 . S
C1806 C1807 1.376 . S
C1807 H1794 0.930 . S
C1807 C1806 1.376 . S
C1807 C1808 1.388 . S
C1808 H1795 0.930 . S
C1808 C1807 1.388 . S
C1808 C1809 1.390 . S
C1809 C1808 1.390 . S
C1809 C1810 1.394 . S
C1809 C1815 1.465 . S
C1810 C1805 1.399 . S
C1810 C1809 1.394 . S
C1810 C1811 1.516 . S
C1811 C1810 1.516 . S
C1811 C1812 1.502 . S
C1811 C1813 1.561 . S
C1811 C1814 1.526 . S
C1812 H1796 0.959 . S
C1812 H1797 0.959 . S
C1812 H1798 0.961 . S
C1812 C1811 1.502 . S
C1813 H1799 0.960 . S
C1813 H1800 0.961 . S
C1813 H1801 0.959 . S
C1813 C1811 1.561 . S
C1814 C1811 1.526 . S
C1814 C1815 1.396 . S
C1814 C1819 1.390 . S
C1815 C1809 1.465 . S
C1815 C1814 1.396 . S
C1815 C1816 1.399 . S
C1816 H1802 0.929 . S
C1816 C1815 1.399 . S
C1816 C1817 1.385 . S
C1817 H1803 0.931 . S
C1817 C1816 1.385 . S
C1817 C1818 1.389 . S
C1818 C1817 1.389 . S
C1818 C1819 1.387 . S
C1819 H1804 0.930 . S
C1819 C1814 1.390 . S
C1819 C1818 1.387 . S
H1820 C1832 0.930 . S
H1821 C1834 0.930 . S
H1822 C1835 0.930 . S
H1823 C1839 0.959 . S
H1824 C1839 0.959 . S
H1825 C1839 0.961 . S
H1826 C1840 0.960 . S
H1827 C1840 0.961 . S
H1828 C1840 0.959 . S
H1829 C1843 0.929 . S
H1830 C1844 0.931 . S
H1831 C1846 0.930 . S
C1832 H1820 0.930 . S
C1832 C1833 1.399 . S
C1832 C1837 1.399 . S
C1833 C1832 1.399 . S
C1833 C1834 1.376 . S
C1834 H1821 0.930 . S
C1834 C1833 1.376 . S
C1834 C1835 1.388 . S
C1835 H1822 0.930 . S
C1835 C1834 1.388 . S
C1835 C1836 1.390 . S
C1836 C1835 1.390 . S
C1836 C1837 1.394 . S
C1836 C1842 1.465 . S
C1837 C1832 1.399 . S
C1837 C1836 1.394 . S
C1837 C1838 1.516 . S
C1838 C1837 1.516 . S
C1838 C1839 1.502 . S
C1838 C1840 1.561 . S
C1838 C1841 1.526 . S
C1839 H1823 0.959 . S
C1839 H1824 0.959 . S
C1839 H1825 0.961 . S
C1839 C1838 1.502 . S
C1840 H1826 0.960 . S
C1840 H1827 0.961 . S
C1840 H1828 0.959 . S
C1840 C1838 1.561 . S
C1841 C1838 1.526 . S
C1841 C1842 1.396 . S
C1841 C1846 1.390 . S
C1842 C1836 1.465 . S
C1842 C1841 1.396 . S
C1842 C1843 1.399 . S
C1843 H1829 0.929 . S
C1843 C1842 1.399 . S
C1843 C1844 1.385 . S
C1844 H1830 0.931 . S
C1844 C1843 1.385 . S
C1844 C1845 1.389 . S
C1845 C1844 1.389 . S
C1845 C1846 1.387 . S
C1846 H1831 0.930 . S
C1846 C1841 1.390 . S
C1846 C1845 1.387 . S
H1847 C1859 0.930 . S
H1848 C1861 0.930 . S
H1849 C1862 0.930 . S
H1850 C1866 0.959 . S
H1851 C1866 0.959 . S
H1852 C1866 0.961 . S
H1853 C1867 0.960 . S
H1854 C1867 0.961 . S
H1855 C1867 0.959 . S
H1856 C1870 0.929 . S
H1857 C1871 0.931 . S
H1858 C1873 0.930 . S
C1859 H1847 0.930 . S
C1859 C1860 1.399 . S
C1859 C1864 1.399 . S
C1860 C1859 1.399 . S
C1860 C1861 1.376 . S
C1861 H1848 0.930 . S
C1861 C1860 1.376 . S
C1861 C1862 1.388 . S
C1862 H1849 0.930 . S
C1862 C1861 1.388 . S
C1862 C1863 1.390 . S
C1863 C1862 1.390 . S
C1863 C1864 1.394 . S
C1863 C1869 1.465 . S
C1864 C1859 1.399 . S
C1864 C1863 1.394 . S
C1864 C1865 1.516 . S
C1865 C1864 1.516 . S
C1865 C1866 1.502 . S
C1865 C1867 1.561 . S
C1865 C1868 1.526 . S
C1866 H1850 0.959 . S
C1866 H1851 0.959 . S
C1866 H1852 0.961 . S
C1866 C1865 1.502 . S
C1867 H1853 0.960 . S
C1867 H1854 0.961 . S
C1867 H1855 0.959 . S
C1867 C1865 1.561 . S
C1868 C1865 1.526 . S
C1868 C1869 1.396 . S
C1868 C1873 1.390 . S
C1869 C1863 1.465 . S
C1869 C1868 1.396 . S
C1869 C1870 1.399 . S
C1870 H1856 0.929 . S
C1870 C1869 1.399 . S
C1870 C1871 1.385 . S
C1871 H1857 0.931 . S
C1871 C1870 1.385 . S
C1871 C1872 1.389 . S
C1872 C1871 1.389 . S
C1872 C1873 1.387 . S
C1873 H1858 0.930 . S
C1873 C1868 1.390 . S
C1873 C1872 1.387 . S
H1874 C1886 0.930 . S
H1875 C1888 0.930 . S
H1876 C1889 0.930 . S
H1877 C1893 0.959 . S
H1878 C1893 0.959 . S
H1879 C1893 0.961 . S
H1880 C1894 0.960 . S
H1881 C1894 0.961 . S
H1882 C1894 0.959 . S
H1883 C1897 0.929 . S
H1884 C1898 0.931 1_554 S
H1885 C1900 0.930 . S
C1886 H1874 0.930 . S
C1886 C1887 1.399 . S
C1886 C1891 1.399 . S
C1887 C1886 1.399 . S
C1887 C1888 1.376 . S
C1888 H1875 0.930 . S
C1888 C1887 1.376 . S
C1888 C1889 1.388 . S
C1889 H1876 0.930 . S
C1889 C1888 1.388 . S
C1889 C1890 1.390 . S
C1890 C1889 1.390 . S
C1890 C1891 1.394 . S
C1890 C1896 1.465 . S
C1891 C1886 1.399 . S
C1891 C1890 1.394 . S
C1891 C1892 1.516 . S
C1892 C1891 1.516 . S
C1892 C1893 1.502 . S
C1892 C1894 1.561 . S
C1892 C1895 1.526 . S
C1893 H1877 0.959 . S
C1893 H1878 0.959 . S
C1893 H1879 0.961 . S
C1893 C1892 1.502 . S
C1894 H1880 0.960 . S
C1894 H1881 0.961 . S
C1894 H1882 0.959 . S
C1894 C1892 1.561 . S
C1895 C1892 1.526 . S
C1895 C1896 1.396 . S
C1895 C1900 1.390 . S
C1896 C1890 1.465 . S
C1896 C1895 1.396 . S
C1896 C1897 1.399 . S
C1897 H1883 0.929 . S
C1897 C1896 1.399 . S
C1897 C1898 1.385 . S
C1898 H1884 0.931 1_556 S
C1898 C1897 1.385 . S
C1898 C1899 1.389 . S
C1899 C1898 1.389 . S
C1899 C1900 1.387 . S
C1900 H1885 0.930 . S
C1900 C1895 1.390 . S
C1900 C1899 1.387 . S
H1901 C1913 0.930 . S
H1902 C1915 0.930 . S
H1903 C1916 0.930 . S
H1904 C1920 0.959 . S
H1905 C1920 0.959 . S
H1906 C1920 0.961 . S
H1907 C1921 0.960 . S
H1908 C1921 0.961 . S
H1909 C1921 0.959 . S
H1910 C1924 0.929 . S
H1911 C1925 0.931 . S
H1912 C1927 0.930 . S
C1913 H1901 0.930 . S
C1913 C1914 1.399 . S
C1913 C1918 1.399 . S
C1914 C1913 1.399 . S
C1914 C1915 1.376 . S
C1915 H1902 0.930 . S
C1915 C1914 1.376 . S
C1915 C1916 1.388 . S
C1916 H1903 0.930 . S
C1916 C1915 1.388 . S
C1916 C1917 1.390 . S
C1917 C1916 1.390 . S
C1917 C1918 1.394 . S
C1917 C1923 1.465 . S
C1918 C1913 1.399 . S
C1918 C1917 1.394 . S
C1918 C1919 1.516 . S
C1919 C1918 1.516 . S
C1919 C1920 1.502 . S
C1919 C1921 1.561 . S
C1919 C1922 1.526 . S
C1920 H1904 0.959 . S
C1920 H1905 0.959 . S
C1920 H1906 0.961 . S
C1920 C1919 1.502 . S
C1921 H1907 0.960 . S
C1921 H1908 0.961 . S
C1921 H1909 0.959 . S
C1921 C1919 1.561 . S
C1922 C1919 1.526 . S
C1922 C1923 1.396 . S
C1922 C1927 1.390 . S
C1923 C1917 1.465 . S
C1923 C1922 1.396 . S
C1923 C1924 1.399 . S
C1924 H1910 0.929 . S
C1924 C1923 1.399 . S
C1924 C1925 1.385 . S
C1925 H1911 0.931 . S
C1925 C1924 1.385 . S
C1925 C1926 1.389 . S
C1926 C1925 1.389 . S
C1926 C1927 1.387 . S
C1927 H1912 0.930 . S
C1927 C1922 1.390 . S
C1927 C1926 1.387 . S
H1928 C1940 0.930 . S
H1929 C1942 0.930 . S
H1930 C1943 0.930 . S
H1931 C1947 0.959 . S
H1932 C1947 0.959 . S
H1933 C1947 0.961 . S
H1934 C1948 0.960 . S
H1935 C1948 0.961 . S
H1936 C1948 0.959 . S
H1937 C1951 0.929 . S
H1938 C1952 0.931 . S
H1939 C1954 0.930 . S
C1940 H1928 0.930 . S
C1940 C1941 1.399 . S
C1940 C1945 1.399 . S
C1941 C1940 1.399 . S
C1941 C1942 1.376 . S
C1942 H1929 0.930 . S
C1942 C1941 1.376 . S
C1942 C1943 1.388 . S
C1943 H1930 0.930 . S
C1943 C1942 1.388 . S
C1943 C1944 1.390 . S
C1944 C1943 1.390 . S
C1944 C1945 1.394 . S
C1944 C1950 1.465 . S
C1945 C1940 1.399 . S
C1945 C1944 1.394 . S
C1945 C1946 1.516 . S
C1946 C1945 1.516 . S
C1946 C1947 1.502 . S
C1946 C1948 1.561 . S
C1946 C1949 1.526 . S
C1947 H1931 0.959 . S
C1947 H1932 0.959 . S
C1947 H1933 0.961 . S
C1947 C1946 1.502 . S
C1948 H1934 0.960 . S
C1948 H1935 0.961 . S
C1948 H1936 0.959 . S
C1948 C1946 1.561 . S
C1949 C1946 1.526 . S
C1949 C1950 1.396 . S
C1949 C1954 1.390 . S
C1950 C1944 1.465 . S
C1950 C1949 1.396 . S
C1950 C1951 1.399 . S
C1951 H1937 0.929 . S
C1951 C1950 1.399 . S
C1951 C1952 1.385 . S
C1952 H1938 0.931 . S
C1952 C1951 1.385 . S
C1952 C1953 1.389 . S
C1953 C1952 1.389 . S
C1953 C1954 1.387 . S
C1954 H1939 0.930 . S
C1954 C1949 1.390 . S
C1954 C1953 1.387 . S
H1955 C1967 0.930 . S
H1956 C1969 0.930 . S
H1957 C1970 0.930 . S
H1958 C1974 0.959 . S
H1959 C1974 0.959 . S
H1960 C1974 0.961 . S
H1961 C1975 0.960 . S
H1962 C1975 0.961 . S
H1963 C1975 0.959 . S
H1964 C1978 0.929 . S
H1965 C1979 0.931 . S
H1966 C1981 0.930 . S
C1967 H1955 0.930 . S
C1967 C1968 1.399 . S
C1967 C1972 1.399 . S
C1968 C1967 1.399 . S
C1968 C1969 1.376 . S
C1969 H1956 0.930 . S
C1969 C1968 1.376 . S
C1969 C1970 1.388 . S
C1970 H1957 0.930 . S
C1970 C1969 1.388 . S
C1970 C1971 1.390 . S
C1971 C1970 1.390 . S
C1971 C1972 1.394 . S
C1971 C1977 1.465 . S
C1972 C1967 1.399 . S
C1972 C1971 1.394 . S
C1972 C1973 1.516 . S
C1973 C1972 1.516 . S
C1973 C1974 1.502 . S
C1973 C1975 1.561 . S
C1973 C1976 1.526 . S
C1974 H1958 0.959 . S
C1974 H1959 0.959 . S
C1974 H1960 0.961 . S
C1974 C1973 1.502 . S
C1975 H1961 0.960 . S
C1975 H1962 0.961 . S
C1975 H1963 0.959 . S
C1975 C1973 1.561 . S
C1976 C1973 1.526 . S
C1976 C1977 1.396 . S
C1976 C1981 1.390 . S
C1977 C1971 1.465 . S
C1977 C1976 1.396 . S
C1977 C1978 1.399 . S
C1978 H1964 0.929 . S
C1978 C1977 1.399 . S
C1978 C1979 1.385 . S
C1979 H1965 0.931 . S
C1979 C1978 1.385 . S
C1979 C1980 1.389 . S
C1980 C1979 1.389 . S
C1980 C1981 1.387 . S
C1981 H1966 0.930 . S
C1981 C1976 1.390 . S
C1981 C1980 1.387 . S
H1982 C1994 0.930 . S
H1983 C1996 0.930 . S
H1984 C1997 0.930 . S
H1985 C2001 0.959 . S
H1986 C2001 0.959 . S
H1987 C2001 0.961 . S
H1988 C2002 0.960 . S
H1989 C2002 0.961 . S
H1990 C2002 0.959 . S
H1991 C2005 0.929 . S
H1992 C2006 0.931 . S
H1993 C2008 0.930 . S
C1994 H1982 0.930 . S
C1994 C1995 1.399 . S
C1994 C1999 1.399 . S
C1995 C1994 1.399 . S
C1995 C1996 1.376 . S
C1996 H1983 0.930 . S
C1996 C1995 1.376 . S
C1996 C1997 1.388 . S
C1997 H1984 0.930 . S
C1997 C1996 1.388 . S
C1997 C1998 1.390 . S
C1998 C1997 1.390 . S
C1998 C1999 1.394 . S
C1998 C2004 1.465 . S
C1999 C1994 1.399 . S
C1999 C1998 1.394 . S
C1999 C2000 1.516 . S
C2000 C1999 1.516 . S
C2000 C2001 1.502 . S
C2000 C2002 1.561 . S
C2000 C2003 1.526 . S
C2001 H1985 0.959 . S
C2001 H1986 0.959 . S
C2001 H1987 0.961 . S
C2001 C2000 1.502 . S
C2002 H1988 0.960 . S
C2002 H1989 0.961 . S
C2002 H1990 0.959 . S
C2002 C2000 1.561 . S
C2003 C2000 1.526 . S
C2003 C2004 1.396 . S
C2003 C2008 1.390 . S
C2004 C1998 1.465 . S
C2004 C2003 1.396 . S
C2004 C2005 1.399 . S
C2005 H1991 0.929 . S
C2005 C2004 1.399 . S
C2005 C2006 1.385 . S
C2006 H1992 0.931 . S
C2006 C2005 1.385 . S
C2006 C2007 1.389 . S
C2007 C2006 1.389 . S
C2007 C2008 1.387 . S
C2008 H1993 0.930 . S
C2008 C2003 1.390 . S
C2008 C2007 1.387 . S
H2009 C2021 0.930 . S
H2010 C2023 0.930 . S
H2011 C2024 0.930 . S
H2012 C2028 0.959 . S
H2013 C2028 0.959 . S
H2014 C2028 0.961 . S
H2015 C2029 0.960 . S
H2016 C2029 0.961 . S
H2017 C2029 0.959 . S
H2018 C2032 0.929 . S
H2019 C2033 0.931 . S
H2020 C2035 0.930 . S
C2021 H2009 0.930 . S
C2021 C2022 1.399 . S
C2021 C2026 1.399 . S
C2022 C2021 1.399 . S
C2022 C2023 1.376 . S
C2023 H2010 0.930 . S
C2023 C2022 1.376 . S
C2023 C2024 1.388 . S
C2024 H2011 0.930 . S
C2024 C2023 1.388 . S
C2024 C2025 1.390 . S
C2025 C2024 1.390 . S
C2025 C2026 1.394 . S
C2025 C2031 1.465 . S
C2026 C2021 1.399 . S
C2026 C2025 1.394 . S
C2026 C2027 1.516 . S
C2027 C2026 1.516 . S
C2027 C2028 1.502 . S
C2027 C2029 1.561 . S
C2027 C2030 1.526 . S
C2028 H2012 0.959 . S
C2028 H2013 0.959 . S
C2028 H2014 0.961 . S
C2028 C2027 1.502 . S
C2029 H2015 0.960 . S
C2029 H2016 0.961 . S
C2029 H2017 0.959 . S
C2029 C2027 1.561 . S
C2030 C2027 1.526 . S
C2030 C2031 1.396 . S
C2030 C2035 1.390 . S
C2031 C2025 1.465 . S
C2031 C2030 1.396 . S
C2031 C2032 1.399 . S
C2032 H2018 0.929 . S
C2032 C2031 1.399 . S
C2032 C2033 1.385 . S
C2033 H2019 0.931 . S
C2033 C2032 1.385 . S
C2033 C2034 1.389 . S
C2034 C2033 1.389 . S
C2034 C2035 1.387 . S
C2035 H2020 0.930 . S
C2035 C2030 1.390 . S
C2035 C2034 1.387 . S
H2036 C2048 0.930 . S
H2037 C2050 0.930 . S
H2038 C2051 0.930 . S
H2039 C2055 0.959 . S
H2040 C2055 0.959 . S
H2041 C2055 0.961 . S
H2042 C2056 0.960 . S
H2043 C2056 0.961 . S
H2044 C2056 0.959 . S
H2045 C2059 0.929 . S
H2046 C2060 0.931 . S
H2047 C2062 0.930 . S
C2048 H2036 0.930 . S
C2048 C2049 1.399 . S
C2048 C2053 1.399 . S
C2049 C2048 1.399 . S
C2049 C2050 1.376 . S
C2050 H2037 0.930 . S
C2050 C2049 1.376 . S
C2050 C2051 1.388 . S
C2051 H2038 0.930 . S
C2051 C2050 1.388 . S
C2051 C2052 1.390 . S
C2052 C2051 1.390 . S
C2052 C2053 1.394 . S
C2052 C2058 1.465 . S
C2053 C2048 1.399 . S
C2053 C2052 1.394 . S
C2053 C2054 1.516 . S
C2054 C2053 1.516 . S
C2054 C2055 1.502 . S
C2054 C2056 1.561 . S
C2054 C2057 1.526 . S
C2055 H2039 0.959 . S
C2055 H2040 0.959 . S
C2055 H2041 0.961 . S
C2055 C2054 1.502 . S
C2056 H2042 0.960 . S
C2056 H2043 0.961 . S
C2056 H2044 0.959 . S
C2056 C2054 1.561 . S
C2057 C2054 1.526 . S
C2057 C2058 1.396 . S
C2057 C2062 1.390 . S
C2058 C2052 1.465 . S
C2058 C2057 1.396 . S
C2058 C2059 1.399 . S
C2059 H2045 0.929 . S
C2059 C2058 1.399 . S
C2059 C2060 1.385 . S
C2060 H2046 0.931 . S
C2060 C2059 1.385 . S
C2060 C2061 1.389 . S
C2061 C2060 1.389 . S
C2061 C2062 1.387 . S
C2062 H2047 0.930 . S
C2062 C2057 1.390 . S
C2062 C2061 1.387 . S
H2063 C2075 0.930 . S
H2064 C2077 0.930 . S
H2065 C2078 0.930 . S
H2066 C2082 0.959 . S
H2067 C2082 0.959 . S
H2068 C2082 0.961 . S
H2069 C2083 0.960 . S
H2070 C2083 0.961 . S
H2071 C2083 0.959 . S
H2072 C2086 0.929 . S
H2073 C2087 0.931 . S
H2074 C2089 0.930 . S
C2075 H2063 0.930 . S
C2075 C2076 1.399 . S
C2075 C2080 1.399 . S
C2076 C2075 1.399 . S
C2076 C2077 1.376 . S
C2077 H2064 0.930 . S
C2077 C2076 1.376 . S
C2077 C2078 1.388 . S
C2078 H2065 0.930 . S
C2078 C2077 1.388 . S
C2078 C2079 1.390 . S
C2079 C2078 1.390 . S
C2079 C2080 1.394 . S
C2079 C2085 1.465 . S
C2080 C2075 1.399 . S
C2080 C2079 1.394 . S
C2080 C2081 1.516 . S
C2081 C2080 1.516 . S
C2081 C2082 1.502 . S
C2081 C2083 1.561 . S
C2081 C2084 1.526 . S
C2082 H2066 0.959 . S
C2082 H2067 0.959 . S
C2082 H2068 0.961 . S
C2082 C2081 1.502 . S
C2083 H2069 0.960 . S
C2083 H2070 0.961 . S
C2083 H2071 0.959 . S
C2083 C2081 1.561 . S
C2084 C2081 1.526 . S
C2084 C2085 1.396 . S
C2084 C2089 1.390 . S
C2085 C2079 1.465 . S
C2085 C2084 1.396 . S
C2085 C2086 1.399 . S
C2086 H2072 0.929 . S
C2086 C2085 1.399 . S
C2086 C2087 1.385 . S
C2087 H2073 0.931 . S
C2087 C2086 1.385 . S
C2087 C2088 1.389 . S
C2088 C2087 1.389 . S
C2088 C2089 1.387 . S
C2089 H2074 0.930 . S
C2089 C2084 1.390 . S
C2089 C2088 1.387 . S
H2090 C2102 0.930 . S
H2091 C2104 0.930 1_556 S
H2092 C2105 0.930 . S
H2093 C2109 0.959 . S
H2094 C2109 0.959 . S
H2095 C2109 0.961 . S
H2096 C2110 0.960 . S
H2097 C2110 0.961 . S
H2098 C2110 0.959 . S
H2099 C2113 0.929 . S
H2100 C2114 0.931 . S
H2101 C2116 0.930 . S
C2102 H2090 0.930 . S
C2102 C2103 1.399 . S
C2102 C2107 1.399 . S
C2103 C2102 1.399 . S
C2103 C2104 1.376 . S
C2104 H2091 0.930 1_554 S
C2104 C2103 1.376 . S
C2104 C2105 1.388 . S
C2105 H2092 0.930 . S
C2105 C2104 1.388 . S
C2105 C2106 1.390 . S
C2106 C2105 1.390 . S
C2106 C2107 1.394 . S
C2106 C2112 1.465 . S
C2107 C2102 1.399 . S
C2107 C2106 1.394 . S
C2107 C2108 1.516 . S
C2108 C2107 1.516 . S
C2108 C2109 1.502 . S
C2108 C2110 1.561 . S
C2108 C2111 1.526 . S
C2109 H2093 0.959 . S
C2109 H2094 0.959 . S
C2109 H2095 0.961 . S
C2109 C2108 1.502 . S
C2110 H2096 0.960 . S
C2110 H2097 0.961 . S
C2110 H2098 0.959 . S
C2110 C2108 1.561 . S
C2111 C2108 1.526 . S
C2111 C2112 1.396 . S
C2111 C2116 1.390 . S
C2112 C2106 1.465 . S
C2112 C2111 1.396 . S
C2112 C2113 1.399 . S
C2113 H2099 0.929 . S
C2113 C2112 1.399 . S
C2113 C2114 1.385 . S
C2114 H2100 0.931 . S
C2114 C2113 1.385 . S
C2114 C2115 1.389 . S
C2115 C2114 1.389 . S
C2115 C2116 1.387 . S
C2116 H2101 0.930 . S
C2116 C2111 1.390 . S
C2116 C2115 1.387 . S
H2117 C2129 0.930 . S
H2118 C2131 0.930 . S
H2119 C2132 0.930 . S
H2120 C2136 0.959 . S
H2121 C2136 0.959 . S
H2122 C2136 0.961 . S
H2123 C2137 0.960 . S
H2124 C2137 0.961 . S
H2125 C2137 0.959 . S
H2126 C2140 0.929 . S
H2127 C2141 0.931 . S
H2128 C2143 0.930 . S
C2129 H2117 0.930 . S
C2129 C2130 1.399 . S
C2129 C2134 1.399 . S
C2130 C2129 1.399 . S
C2130 C2131 1.376 . S
C2131 H2118 0.930 . S
C2131 C2130 1.376 . S
C2131 C2132 1.388 . S
C2132 H2119 0.930 . S
C2132 C2131 1.388 . S
C2132 C2133 1.390 . S
C2133 C2132 1.390 . S
C2133 C2134 1.394 . S
C2133 C2139 1.465 . S
C2134 C2129 1.399 . S
C2134 C2133 1.394 . S
C2134 C2135 1.516 . S
C2135 C2134 1.516 . S
C2135 C2136 1.502 . S
C2135 C2137 1.561 . S
C2135 C2138 1.526 . S
C2136 H2120 0.959 . S
C2136 H2121 0.959 . S
C2136 H2122 0.961 . S
C2136 C2135 1.502 . S
C2137 H2123 0.960 . S
C2137 H2124 0.961 . S
C2137 H2125 0.959 . S
C2137 C2135 1.561 . S
C2138 C2135 1.526 . S
C2138 C2139 1.396 . S
C2138 C2143 1.390 . S
C2139 C2133 1.465 . S
C2139 C2138 1.396 . S
C2139 C2140 1.399 . S
C2140 H2126 0.929 . S
C2140 C2139 1.399 . S
C2140 C2141 1.385 . S
C2141 H2127 0.931 . S
C2141 C2140 1.385 . S
C2141 C2142 1.389 . S
C2142 C2141 1.389 . S
C2142 C2143 1.387 . S
C2143 H2128 0.930 . S
C2143 C2138 1.390 . S
C2143 C2142 1.387 . S
C429 C83 1.295 . S
C441 C5 1.315 . S
C456 C18 1.284 . S
C468 C96 1.226 . S
C483 C57 1.252 . S
C495 C31 1.218 . S
C510 C44 1.316 . S
C522 C70 1.292 . S
C537 C187 1.317 . S
C549 C109 1.298 . S
C564 C200 1.288 . S
C576 C122 1.311 . S
C591 C135 1.316 . S
C603 C161 1.297 . S
C618 C148 1.265 . S
C630 C174 1.297 . S
C645 C213 1.296 . S
C657 C291 1.315 . S
C672 C226 1.296 . S
C684 C304 1.315 . S
C699 C265 1.255 . S
C711 C239 1.310 . S
C726 C278 1.318 . S
C738 C252 1.281 . S
C753 C317 1.223 . S
C765 C395 1.250 . S
C780 C408 1.255 . S
C792 C330 1.228 . S
C807 C369 1.315 . S
C819 C343 1.293 . S
C834 C356 1.254 . S
C846 C382 1.227 . S
C861 C10 1.343 . S
C873 C398 1.305 . S
C888 C203 1.315 . S
C900 C23 1.310 . S
C915 C36 1.309 . S
C927 C372 1.315 . S
C942 C49 1.341 . S
C954 C177 1.303 . S
C969 C346 1.301 . S
C981 C62 1.329 . S
C996 C151 1.310 . S
C1008 C75 1.313 . S
C1023 C88 1.330 . S
C1035 C320 1.301 . S
C1050 C125 1.310 . S
C1062 C101 1.313 . S
C1077 C114 1.331 . S
C1089 C294 1.348 . S
C1104 C99 1.364 . S
C1116 C127 1.351 . S
C1131 C140 1.361 . S
C1143 C268 1.340 . S
C1158 C153 1.308 . S
C1170 C73 1.316 . S
C1185 C242 1.361 . S
C1197 C166 1.368 . S
C1212 C179 1.308 . S
C1224 C47 1.306 . S
C1239 C192 1.315 . S
C1251 C216 1.329 . S
C1266 C21 1.366 . S
C1278 C205 1.355 . S
C1293 C218 1.357 . S
C1305 C190 1.364 . S
C1320 C231 1.368 . S
C1332 C411 1.352 . S
C1347 C164 1.303 . S
C1359 C244 1.342 . S
C1374 C257 1.351 . S
C1386 C385 1.309 . S
C1401 C138 1.367 . S
C1413 C270 1.342 . S
C1428 C359 1.342 . S
C1440 C283 1.312 . S
C1455 C112 1.362 . S
C1467 C296 1.330 . S
C1482 C333 1.309 . S
C1494 C309 1.313 . S
C1509 C322 1.339 . S
C1521 C86 1.314 . S
C1536 C307 1.357 . S
C1548 C335 1.341 . S
C1563 C60 1.318 . S
C1575 C348 1.310 . S
C1590 C361 1.348 . S
C1602 C281 1.362 . S
C1617 C374 1.341 . S
C1629 C34 1.357 . S
C1644 C387 1.369 . S
C1656 C255 1.358 . S
C1671 C8 1.310 . S
C1683 C400 1.308 . S
C1698 C413 1.317 . S
C1710 C229 1.331 . S
C1725 C0 1.208 . S
C1737 C273 1.194 . S
C1752 C286 1.191 . S
C1764 C13 1.206 . S
C1779 C26 1.195 . S
C1791 C299 1.208 . S
C1806 C260 1.160 . S
C1818 C39 1.180 . S
C1833 C247 1.155 . S
C1845 C52 1.155 . S
C1860 C208 1.202 . S
C1872 C65 1.208 . S
C1887 C221 1.185 . S
C1899 C78 1.164 . S
C1914 C234 1.161 . S
C1926 C91 1.182 . S
C1941 C104 1.199 . S
C1953 C377 1.204 . S
C1968 C390 1.186 . S
C1980 C117 1.154 . S
C1995 C403 1.209 . S
C2007 C130 1.188 . S
C2022 C364 1.156 . S
C2034 C143 1.164 . S
C2049 C351 1.200 . S
C2061 C156 1.204 . S
C2076 C312 1.199 . S
C2088 C169 1.204 . S
C2103 C182 1.155 . S
C2115 C325 1.188 . S
C2130 C195 1.157 . S
C2142 C338 1.162 . S
