# Generated by pormake.
# Topology umu, (4)-cn, num edge types: 1
# Building blocks:
#     Node 0, Type 0, BuildingBlock: TATPOV_clean_sbu_0, # of connection points: 4
#     Node 1, Type 0, BuildingBlock: TATPOV_clean_sbu_0, # of connection points: 4
#     Node 2, Type 0, BuildingBlock: TATPOV_clean_sbu_0, # of connection points: 4
#     Node 3, Type 0, BuildingBlock: TATPOV_clean_sbu_0, # of connection points: 4
#     Node 4, Type 0, BuildingBlock: TATPOV_clean_sbu_0, # of connection points: 4
#     Node 5, Type 0, BuildingBlock: TATPOV_clean_sbu_0, # of connection points: 4
#     Node 6, Type 0, BuildingBlock: TATPOV_clean_sbu_0, # of connection points: 4
#     Node 7, Type 0, BuildingBlock: TATPOV_clean_sbu_0, # of connection points: 4
#     Node 8, Type 0, BuildingBlock: TATPOV_clean_sbu_0, # of connection points: 4
#     Node 9, Type 0, BuildingBlock: TATPOV_clean_sbu_0, # of connection points: 4
#     Node 10, Type 0, BuildingBlock: TATPOV_clean_sbu_0, # of connection points: 4
#     Node 11, Type 0, BuildingBlock: TATPOV_clean_sbu_0, # of connection points: 4
#     Node 12, Type 0, BuildingBlock: TATPOV_clean_sbu_0, # of connection points: 4
#     Node 13, Type 0, BuildingBlock: TATPOV_clean_sbu_0, # of connection points: 4
#     Node 14, Type 0, BuildingBlock: TATPOV_clean_sbu_0, # of connection points: 4
#     Node 15, Type 0, BuildingBlock: TATPOV_clean_sbu_0, # of connection points: 4
#     Node 16, Type 0, BuildingBlock: TATPOV_clean_sbu_0, # of connection points: 4
#     Node 17, Type 0, BuildingBlock: TATPOV_clean_sbu_0, # of connection points: 4
#     Node 18, Type 0, BuildingBlock: TATPOV_clean_sbu_0, # of connection points: 4
#     Node 19, Type 0, BuildingBlock: TATPOV_clean_sbu_0, # of connection points: 4
#     Node 20, Type 0, BuildingBlock: TATPOV_clean_sbu_0, # of connection points: 4
#     Node 21, Type 0, BuildingBlock: TATPOV_clean_sbu_0, # of connection points: 4
#     Node 22, Type 0, BuildingBlock: TATPOV_clean_sbu_0, # of connection points: 4
#     Node 23, Type 0, BuildingBlock: TATPOV_clean_sbu_0, # of connection points: 4
#     Node 24, Type 0, BuildingBlock: TATPOV_clean_sbu_0, # of connection points: 4
#     Node 25, Type 0, BuildingBlock: TATPOV_clean_sbu_0, # of connection points: 4
#     Node 26, Type 0, BuildingBlock: TATPOV_clean_sbu_0, # of connection points: 4
#     Node 27, Type 0, BuildingBlock: TATPOV_clean_sbu_0, # of connection points: 4
#     Node 28, Type 0, BuildingBlock: TATPOV_clean_sbu_0, # of connection points: 4
#     Node 29, Type 0, BuildingBlock: TATPOV_clean_sbu_0, # of connection points: 4
#     Node 30, Type 0, BuildingBlock: TATPOV_clean_sbu_0, # of connection points: 4
#     Node 31, Type 0, BuildingBlock: TATPOV_clean_sbu_0, # of connection points: 4
#     Edge 32, Type (0, 0), BuildingBlock: OJICUG_clean_linker_0, # of connection points: 2
#     Edge 33, Type (0, 0), BuildingBlock: OJICUG_clean_linker_0, # of connection points: 2
#     Edge 34, Type (0, 0), BuildingBlock: OJICUG_clean_linker_0, # of connection points: 2
#     Edge 35, Type (0, 0), BuildingBlock: OJICUG_clean_linker_0, # of connection points: 2
#     Edge 36, Type (0, 0), BuildingBlock: OJICUG_clean_linker_0, # of connection points: 2
#     Edge 37, Type (0, 0), BuildingBlock: OJICUG_clean_linker_0, # of connection points: 2
#     Edge 38, Type (0, 0), BuildingBlock: OJICUG_clean_linker_0, # of connection points: 2
#     Edge 39, Type (0, 0), BuildingBlock: OJICUG_clean_linker_0, # of connection points: 2
#     Edge 40, Type (0, 0), BuildingBlock: OJICUG_clean_linker_0, # of connection points: 2
#     Edge 41, Type (0, 0), BuildingBlock: OJICUG_clean_linker_0, # of connection points: 2
#     Edge 42, Type (0, 0), BuildingBlock: OJICUG_clean_linker_0, # of connection points: 2
#     Edge 43, Type (0, 0), BuildingBlock: OJICUG_clean_linker_0, # of connection points: 2
#     Edge 44, Type (0, 0), BuildingBlock: OJICUG_clean_linker_0, # of connection points: 2
#     Edge 45, Type (0, 0), BuildingBlock: OJICUG_clean_linker_0, # of connection points: 2
#     Edge 46, Type (0, 0), BuildingBlock: OJICUG_clean_linker_0, # of connection points: 2
#     Edge 47, Type (0, 0), BuildingBlock: OJICUG_clean_linker_0, # of connection points: 2
#     Edge 48, Type (0, 0), BuildingBlock: OJICUG_clean_linker_0, # of connection points: 2
#     Edge 49, Type (0, 0), BuildingBlock: OJICUG_clean_linker_0, # of connection points: 2
#     Edge 50, Type (0, 0), BuildingBlock: OJICUG_clean_linker_0, # of connection points: 2
#     Edge 51, Type (0, 0), BuildingBlock: OJICUG_clean_linker_0, # of connection points: 2
#     Edge 52, Type (0, 0), BuildingBlock: OJICUG_clean_linker_0, # of connection points: 2
#     Edge 53, Type (0, 0), BuildingBlock: OJICUG_clean_linker_0, # of connection points: 2
#     Edge 54, Type (0, 0), BuildingBlock: OJICUG_clean_linker_0, # of connection points: 2
#     Edge 55, Type (0, 0), BuildingBlock: OJICUG_clean_linker_0, # of connection points: 2
#     Edge 56, Type (0, 0), BuildingBlock: OJICUG_clean_linker_0, # of connection points: 2
#     Edge 57, Type (0, 0), BuildingBlock: OJICUG_clean_linker_0, # of connection points: 2
#     Edge 58, Type (0, 0), BuildingBlock: OJICUG_clean_linker_0, # of connection points: 2
#     Edge 59, Type (0, 0), BuildingBlock: OJICUG_clean_linker_0, # of connection points: 2
#     Edge 60, Type (0, 0), BuildingBlock: OJICUG_clean_linker_0, # of connection points: 2
#     Edge 61, Type (0, 0), BuildingBlock: OJICUG_clean_linker_0, # of connection points: 2
#     Edge 62, Type (0, 0), BuildingBlock: OJICUG_clean_linker_0, # of connection points: 2
#     Edge 63, Type (0, 0), BuildingBlock: OJICUG_clean_linker_0, # of connection points: 2
#     Edge 64, Type (0, 0), BuildingBlock: OJICUG_clean_linker_0, # of connection points: 2
#     Edge 65, Type (0, 0), BuildingBlock: OJICUG_clean_linker_0, # of connection points: 2
#     Edge 66, Type (0, 0), BuildingBlock: OJICUG_clean_linker_0, # of connection points: 2
#     Edge 67, Type (0, 0), BuildingBlock: OJICUG_clean_linker_0, # of connection points: 2
#     Edge 68, Type (0, 0), BuildingBlock: OJICUG_clean_linker_0, # of connection points: 2
#     Edge 69, Type (0, 0), BuildingBlock: OJICUG_clean_linker_0, # of connection points: 2
#     Edge 70, Type (0, 0), BuildingBlock: OJICUG_clean_linker_0, # of connection points: 2
#     Edge 71, Type (0, 0), BuildingBlock: OJICUG_clean_linker_0, # of connection points: 2
#     Edge 72, Type (0, 0), BuildingBlock: OJICUG_clean_linker_0, # of connection points: 2
#     Edge 73, Type (0, 0), BuildingBlock: OJICUG_clean_linker_0, # of connection points: 2
#     Edge 74, Type (0, 0), BuildingBlock: OJICUG_clean_linker_0, # of connection points: 2
#     Edge 75, Type (0, 0), BuildingBlock: OJICUG_clean_linker_0, # of connection points: 2
#     Edge 76, Type (0, 0), BuildingBlock: OJICUG_clean_linker_0, # of connection points: 2
#     Edge 77, Type (0, 0), BuildingBlock: OJICUG_clean_linker_0, # of connection points: 2
#     Edge 78, Type (0, 0), BuildingBlock: OJICUG_clean_linker_0, # of connection points: 2
#     Edge 79, Type (0, 0), BuildingBlock: OJICUG_clean_linker_0, # of connection points: 2
#     Edge 80, Type (0, 0), BuildingBlock: OJICUG_clean_linker_0, # of connection points: 2
#     Edge 81, Type (0, 0), BuildingBlock: OJICUG_clean_linker_0, # of connection points: 2
#     Edge 82, Type (0, 0), BuildingBlock: OJICUG_clean_linker_0, # of connection points: 2
#     Edge 83, Type (0, 0), BuildingBlock: OJICUG_clean_linker_0, # of connection points: 2
#     Edge 84, Type (0, 0), BuildingBlock: OJICUG_clean_linker_0, # of connection points: 2
#     Edge 85, Type (0, 0), BuildingBlock: OJICUG_clean_linker_0, # of connection points: 2
#     Edge 86, Type (0, 0), BuildingBlock: OJICUG_clean_linker_0, # of connection points: 2
#     Edge 87, Type (0, 0), BuildingBlock: OJICUG_clean_linker_0, # of connection points: 2
#     Edge 88, Type (0, 0), BuildingBlock: OJICUG_clean_linker_0, # of connection points: 2
#     Edge 89, Type (0, 0), BuildingBlock: OJICUG_clean_linker_0, # of connection points: 2
#     Edge 90, Type (0, 0), BuildingBlock: OJICUG_clean_linker_0, # of connection points: 2
#     Edge 91, Type (0, 0), BuildingBlock: OJICUG_clean_linker_0, # of connection points: 2
#     Edge 92, Type (0, 0), BuildingBlock: OJICUG_clean_linker_0, # of connection points: 2
#     Edge 93, Type (0, 0), BuildingBlock: OJICUG_clean_linker_0, # of connection points: 2
#     Edge 94, Type (0, 0), BuildingBlock: OJICUG_clean_linker_0, # of connection points: 2
#     Edge 95, Type (0, 0), BuildingBlock: OJICUG_clean_linker_0, # of connection points: 2
# Relax obj value: 0.144
# Max RMSD: 0.105
# Mean RMSD: 0.105
data_MOF--net-umu--node1-TATPOV_clean_sbu_0--edge1-OJICUG_clean_linker_0
_symmetry_space_group_name_H-M    P1
_symmetry_Int_Tables_number       1
_symmetry_cell_setting            triclinic
loop_
_symmetry_equiv_pos_as_xyz
'x, y, z'
_cell_length_a     60.883442
_cell_length_b     60.982266
_cell_length_c     18.664014
_cell_angle_alpha  89.687291
_cell_angle_beta   90.093692
_cell_angle_gamma 89.895689
loop_
_atom_site_label
_atom_site_type_symbol
_atom_site_fract_x
_atom_site_fract_y
_atom_site_fract_z
_atom_type_partial_charge
Zn0 Zn 0.26488 0.18387 0.97125 0.0
Zn1 Zn 0.22311 0.17268 -0.01651 0.0
O2 O 0.23367 0.16885 0.08813 0.0
O3 O 0.26772 0.1808 0.07627 0.0
O4 O 0.19235 0.1599 0.97063 0.0
O5 O 0.27402 0.15788 0.91549 0.0
O6 O 0.23873 0.15089 0.91774 0.0
C7 C 0.25252 0.17311 0.11495 0.0
C8 C 0.23599 0.21871 0.92838 0.0
O9 O 0.22129 0.20564 0.95222 0.0
O10 O 0.25584 0.21252 0.92569 0.0
C11 C 0.18545 0.16051 0.90603 0.0
O12 O 0.19676 0.17186 0.8588 0.0
C13 C 0.25808 0.14576 0.89838 0.0
Zn14 Zn 0.10477 0.01266 0.22824 0.0
Zn15 Zn 0.11309 0.9705 0.24671 0.0
O16 O 0.11629 0.98294 0.34935 0.0
O17 O 0.10674 0.01754 0.33243 0.0
O18 O 0.12555 0.93939 0.24379 0.0
O19 O 0.13164 0.01908 0.1719 0.0
O20 O 0.13514 0.98337 0.17563 0.0
C21 C 0.11278 1.00221 0.37378 0.0
C22 C 0.06827 0.98491 0.18815 0.0
O23 O 0.08029 0.96963 0.21431 0.0
O24 O 0.07576 1.00425 0.18313 0.0
C25 C 0.12028 0.92588 0.19473 0.0
O26 O 0.10342 0.93034 0.15316 0.0
C27 C 0.14189 1.00197 0.15388 0.0
Zn28 Zn 0.2661 0.84506 0.48109 0.0
Zn29 Zn 0.30857 0.85226 0.49394 0.0
O30 O 0.29855 0.85553 0.59938 0.0
O31 O 0.26349 0.84712 0.58586 0.0
O32 O 0.3399 0.86356 0.47966 0.0
O33 O 0.25838 0.87186 0.4262 0.0
O34 O 0.29417 0.87484 0.42687 0.0
C35 C 0.27937 0.85257 0.6256 0.0
C36 C 0.29226 0.80812 0.43647 0.0
O37 O 0.30809 0.81954 0.46136 0.0
O38 O 0.27306 0.81614 0.43397 0.0
C39 C 0.34518 0.8638 0.41347 0.0
O40 O 0.33238 0.85344 0.36811 0.0
C41 C 0.27548 0.88192 0.40673 0.0
Zn42 Zn 0.42694 1.00317 0.73749 0.0
Zn43 Zn 0.41811 0.04569 0.74899 0.0
O44 O 0.41599 0.03506 0.85413 0.0
O45 O 0.42549 1.00028 0.8428 0.0
O46 O 0.4049 0.07641 0.7402 0.0
O47 O 0.39997 0.99542 0.68317 0.0
O48 O 0.39587 0.03108 0.68259 0.0
C49 C 0.41982 0.01619 0.88175 0.0
C50 C 0.46277 0.03104 0.69072 0.0
O51 O 0.45062 0.0465 0.71434 0.0
O52 O 0.45561 0.01153 0.68986 0.0
C53 C 0.41133 0.09131 0.69691 0.0
O54 O 0.43013 0.08895 0.66341 0.0
C55 C 0.38931 0.01219 0.66356 0.0
Zn56 Zn 0.26978 0.83708 0.0694 0.0
Zn57 Zn 0.2286 0.85082 0.05367 0.0
O58 O 0.24065 0.85393 0.95066 0.0
O59 O 0.27395 0.84009 0.9649 0.0
O60 O 0.1992 0.86685 0.06163 0.0
O61 O 0.27973 0.86236 0.12721 0.0
O62 O 0.24483 0.8711 0.12255 0.0
C63 C 0.25941 0.84863 0.92518 0.0
C64 C 0.23804 0.804 0.10792 0.0
O65 O 0.22421 0.81802 0.08377 0.0
O66 O 0.25819 0.80899 0.11236 0.0
C67 C 0.18176 0.86044 0.093 0.0
O68 O 0.18004 0.83993 0.114 0.0
C69 C 0.26425 0.87515 0.14378 0.0
Zn70 Zn 0.43155 0.0166 0.32919 0.0
Zn71 Zn 0.42514 0.97328 0.32005 0.0
O72 O 0.42165 0.98251 0.21418 0.0
O73 O 0.42896 0.01787 0.22342 0.0
O74 O 0.41657 0.94122 0.3348 0.0
O75 O 0.40415 0.02237 0.38386 0.0
O76 O 0.40111 0.98657 0.38255 0.0
C77 C 0.42394 1.00147 0.18561 0.0
C78 C 0.46908 0.9918 0.37646 0.0
O79 O 0.45756 0.97567 0.35462 0.0
O80 O 0.46101 0.01097 0.37605 0.0
C81 C 0.40035 0.93291 0.30166 0.0
O82 O 0.39118 0.94413 0.24925 0.0
C83 C 0.39374 1.00524 0.40102 0.0
Zn84 Zn 0.26243 0.17466 0.55901 0.0
Zn85 Zn 0.30374 0.16476 0.54326 0.0
O86 O 0.29152 0.16225 0.43959 0.0
O87 O 0.25735 0.17342 0.45526 0.0
O88 O 0.33405 0.15041 0.54821 0.0
O89 O 0.2538 0.14832 0.61435 0.0
O90 O 0.28944 0.14372 0.6154 0.0
C91 C 0.27244 0.16674 0.41449 0.0
C92 C 0.29132 0.20989 0.60089 0.0
O93 O 0.30622 0.19747 0.57491 0.0
O94 O 0.27172 0.20304 0.60531 0.0
C95 C 0.34931 0.15606 0.59116 0.0
O96 O 0.34766 0.17468 0.62575 0.0
C97 C 0.27041 0.13771 0.63556 0.0
Zn98 Zn 0.09993 1.00563 0.8178 0.0
Zn99 Zn 0.11005 0.04766 0.80947 0.0
O100 O 0.11359 0.03909 0.70291 0.0
O101 O 0.1026 1.00467 0.71254 0.0
O102 O 0.12162 0.0784 0.83014 0.0
O103 O 0.12627 0.99604 0.87191 0.0
O104 O 0.13244 0.03142 0.87255 0.0
C105 C 0.10958 0.02043 0.67472 0.0
C106 C 0.06456 0.03283 0.86442 0.0
O107 O 0.07724 0.04802 0.84172 0.0
O108 O 0.07118 0.01313 0.86504 0.0
C109 C 0.12694 0.09465 0.79096 0.0
O110 O 0.12381 0.09362 0.7214 0.0
C111 C 0.13809 0.01203 0.89037 0.0
Zn112 Zn 0.78047 0.82569 0.05141 0.0
Zn113 Zn 0.81242 0.84964 0.0667 0.0
O114 O 0.79381 0.86416 -0.0162 0.0
O115 O 0.76198 0.84837 0.00294 0.0
O116 O 0.83698 0.87106 0.09223 0.0
O117 O 0.77574 0.81897 0.15417 0.0
O118 O 0.79679 0.84797 0.16536 0.0
C119 C 0.77326 0.86255 0.96996 0.0
C120 C 0.81829 0.8047 0.00038 0.0
O121 O 0.8275 0.82016 0.03518 0.0
O122 O 0.79768 0.80463 -0.00756 0.0
C123 C 0.85719 0.86979 0.07529 0.0
O124 O 0.86376 0.85399 0.03281 0.0
C125 C 0.78399 0.83374 0.1928 0.0
Zn126 Zn 0.93435 1.00855 0.82319 0.0
Zn127 Zn 0.92642 0.05111 0.81044 0.0
O128 O 0.92334 0.04133 0.70532 0.0
O129 O 0.9321 1.00633 0.71799 0.0
O130 O 0.9152 0.08235 0.82253 0.0
O131 O 0.9075 1.00121 0.87838 0.0
O132 O 0.90384 0.03691 0.8768 0.0
C133 C 0.92656 0.02233 0.67857 0.0
C134 C 0.97105 0.03512 0.86728 0.0
O135 O 0.95913 0.05076 0.84318 0.0
O136 O 0.96346 0.01579 0.86971 0.0
C137 C 0.9175 0.09003 0.88554 0.0
O138 O 0.92969 0.07909 0.93167 0.0
C139 C 0.89704 0.01815 0.89684 0.0
Zn140 Zn 0.74359 0.19034 0.48794 0.0
Zn141 Zn 0.71231 0.16871 0.51746 0.0
O142 O 0.72685 0.15318 0.42857 0.0
O143 O 0.76016 0.166 0.44234 0.0
O144 O 0.68772 0.14891 0.55434 0.0
O145 O 0.75134 0.19898 0.58728 0.0
O146 O 0.73176 0.16949 0.60844 0.0
C147 C 0.74722 0.15292 0.41152 0.0
C148 C 0.70646 0.21366 0.45022 0.0
O149 O 0.69844 0.19957 0.49379 0.0
O150 O 0.72586 0.21109 0.42771 0.0
C151 C 0.66775 0.14797 0.53443 0.0
O152 O 0.66105 0.16037 0.48088 0.0
C153 C 0.74507 0.18415 0.62989 0.0
Zn154 Zn 0.6002 0.01887 0.33002 0.0
Zn155 Zn 0.60712 0.97538 0.31972 0.0
O156 O 0.60994 0.98454 0.21384 0.0
O157 O 0.60268 0.01993 0.22404 0.0
O158 O 0.61722 0.94384 0.33597 0.0
O159 O 0.62738 0.02503 0.38627 0.0
O160 O 0.63021 0.98927 0.38376 0.0
C161 C 0.60731 1.00353 0.18566 0.0
C162 C 0.56297 0.9928 0.37574 0.0
O163 O 0.57471 0.9769 0.35332 0.0
O164 O 0.57075 0.01208 0.37616 0.0
C165 C 0.61408 0.93691 0.39976 0.0
O166 O 0.60214 0.94887 0.44325 0.0
C167 C 0.63749 1.00773 0.40418 0.0
Zn168 Zn 0.78055 0.19284 0.05902 0.0
Zn169 Zn 0.8125 0.17183 0.02851 0.0
O170 O 0.79916 0.15583 0.11902 0.0
O171 O 0.76549 0.16827 0.10908 0.0
O172 O 0.8378 0.15295 -0.00794 0.0
O173 O 0.77166 0.20009 0.95915 0.0
O174 O 0.79251 0.17139 0.93887 0.0
C175 C 0.77897 0.1552 0.13807 0.0
C176 C 0.81703 0.21772 0.08955 0.0
O177 O 0.82517 0.20334 0.04769 0.0
O178 O 0.79794 0.21484 0.1144 0.0
C179 C 0.85788 0.15315 0.01108 0.0
O180 O 0.86412 0.16626 0.06285 0.0
C181 C 0.77834 0.18534 0.9173 0.0
Zn182 Zn 0.59265 1.00266 0.73809 0.0
Zn183 Zn 0.60131 0.04597 0.74795 0.0
O184 O 0.6048 0.03671 0.85333 0.0
O185 O 0.5958 1.00172 0.84426 0.0
O186 O 0.61248 0.07709 0.73155 0.0
O187 O 0.6196 0.99555 0.68197 0.0
O188 O 0.62426 0.03112 0.68584 0.0
C189 C 0.60176 0.01786 0.88189 0.0
C190 C 0.55637 0.03016 0.69238 0.0
O191 O 0.56866 0.04562 0.71482 0.0
O192 O 0.56348 0.0106 0.69203 0.0
C193 C 0.6103 0.08391 0.66717 0.0
O194 O 0.5985 0.0722 0.62251 0.0
C195 C 0.63079 0.01231 0.66611 0.0
Zn196 Zn 0.73857 0.82346 0.61457 0.0
Zn197 Zn 0.71049 0.84879 0.57067 0.0
O198 O 0.7208 0.86279 0.66871 0.0
O199 O 0.75218 0.84521 0.67893 0.0
O200 O 0.68805 0.86973 0.52591 0.0
O201 O 0.75235 0.81893 0.51928 0.0
O202 O 0.73434 0.84908 0.49204 0.0
C203 C 0.73954 0.86038 0.69902 0.0
C204 C 0.69946 0.80134 0.61376 0.0
O205 O 0.69502 0.81802 0.57459 0.0
O206 O 0.71689 0.80133 0.65068 0.0
C207 C 0.66767 0.87087 0.54044 0.0
O208 O 0.6596 0.85824 0.59118 0.0
C209 C 0.74869 0.83464 0.47652 0.0
Zn210 Zn 0.93993 0.01742 0.23254 0.0
Zn211 Zn 0.92915 0.97527 0.24769 0.0
O212 O 0.9261 0.98642 0.35101 0.0
O213 O 0.93746 0.0206 0.33779 0.0
O214 O 0.91627 0.94455 0.24046 0.0
O215 O 0.9133 0.02538 0.17633 0.0
O216 O 0.90707 0.99003 0.18068 0.0
C217 C 0.93034 1.00527 0.37723 0.0
C218 C 0.97478 0.98801 0.19037 0.0
O219 O 0.96186 0.97333 0.21509 0.0
O220 O 0.96851 1.00783 0.18714 0.0
C221 C 0.91797 0.93547 0.17931 0.0
O222 O 0.93045 0.94478 0.13054 0.0
C223 C 0.9015 1.00914 0.15997 0.0
Zn224 Zn 0.73879 0.69498 0.48994 0.0
Zn225 Zn 0.70698 0.67088 0.47365 0.0
O226 O 0.72536 0.65631 0.55694 0.0
O227 O 0.75714 0.67232 0.539 0.0
O228 O 0.68266 0.64942 0.44674 0.0
O229 O 0.74389 0.7017 0.38739 0.0
O230 O 0.72293 0.67267 0.37561 0.0
C231 C 0.74587 0.658 0.57134 0.0
C232 C 0.70067 0.71581 0.53968 0.0
O233 O 0.69163 0.70027 0.5048 0.0
O234 O 0.72127 0.71599 0.54815 0.0
C235 C 0.66283 0.64912 0.46816 0.0
O236 O 0.65642 0.66324 0.51678 0.0
C237 C 0.73581 0.6869 0.34855 0.0
Zn238 Zn 0.59081 0.51548 0.70722 0.0
Zn239 Zn 0.59763 0.47212 0.71835 0.0
O240 O 0.60047 0.48108 0.82403 0.0
O241 O 0.59327 0.51649 0.81306 0.0
O242 O 0.60795 0.44067 0.70368 0.0
O243 O 0.61794 0.52193 0.65141 0.0
O244 O 0.62076 0.48616 0.65432 0.0
C245 C 0.5979 0.50002 0.85179 0.0
C246 C 0.55349 0.48964 0.66188 0.0
O247 O 0.56516 0.47363 0.68458 0.0
O248 O 0.56138 0.50887 0.66101 0.0
C249 C 0.60597 0.43401 0.63929 0.0
O250 O 0.59468 0.44612 0.59382 0.0
C251 C 0.62807 0.50468 0.6339 0.0
Zn252 Zn 0.77486 0.33167 0.04211 0.0
Zn253 Zn 0.80962 0.35342 0.01486 0.0
O254 O 0.79436 0.37072 0.09934 0.0
O255 O 0.76193 0.35492 0.10082 0.0
O256 O 0.83455 0.37281 -0.02202 0.0
O257 O 0.76354 0.32956 0.94371 0.0
O258 O 0.79157 0.35134 0.92169 0.0
C259 C 0.77456 0.36989 0.12232 0.0
C260 C 0.81373 0.30704 0.07446 0.0
O261 O 0.8233 0.3231 0.04338 0.0
O262 O 0.79322 0.30765 0.08523 0.0
C263 C 0.85449 0.37356 -0.00171 0.0
O264 O 0.86094 0.36118 0.05221 0.0
C265 C 0.77438 0.34133 0.90077 0.0
Zn266 Zn 0.92177 0.50337 0.20558 0.0
Zn267 Zn 0.91486 0.54667 0.21639 0.0
O268 O 0.91208 0.53725 0.32213 0.0
O269 O 0.91946 0.50192 0.31138 0.0
O270 O 0.90442 0.57813 0.20125 0.0
O271 O 0.89465 0.49704 0.14954 0.0
O272 O 0.89199 0.53281 0.15132 0.0
C273 C 0.9148 0.51824 0.35003 0.0
C274 C 0.95898 0.52954 0.15999 0.0
O275 O 0.94731 0.54543 0.18286 0.0
O276 O 0.95114 0.51028 0.15923 0.0
C277 C 0.90743 0.58536 0.13775 0.0
O278 O 0.9196 0.57379 0.09379 0.0
C279 C 0.88469 0.51435 0.1309 0.0
Zn280 Zn 0.74516 0.32926 0.46875 0.0
Zn281 Zn 0.70933 0.35019 0.49695 0.0
O282 O 0.72339 0.36803 0.41112 0.0
O283 O 0.75614 0.35279 0.40626 0.0
O284 O 0.68379 0.36863 0.53405 0.0
O285 O 0.75703 0.32879 0.56707 0.0
O286 O 0.72797 0.34923 0.58879 0.0
C287 C 0.74298 0.36761 0.38623 0.0
C288 C 0.70681 0.30311 0.44332 0.0
O289 O 0.69684 0.3192 0.47244 0.0
O290 O 0.72722 0.30424 0.43108 0.0
C291 C 0.66433 0.37047 0.50986 0.0
O292 O 0.65879 0.35984 0.45154 0.0
C293 C 0.74578 0.34023 0.60957 0.0
Zn294 Zn 0.93133 0.51826 0.79673 0.0
Zn295 Zn 0.92212 0.47511 0.78665 0.0
O296 O 0.91843 0.48455 0.68156 0.0
O297 O 0.9279 0.51941 0.69071 0.0
O298 O 0.91065 0.44409 0.8026 0.0
O299 O 0.90458 0.52563 0.85342 0.0
O300 O 0.8994 0.49012 0.84929 0.0
C301 C 0.92159 0.5034 0.65313 0.0
C302 C 0.9674 0.49039 0.84117 0.0
O303 O 0.95488 0.47508 0.81894 0.0
O304 O 0.96051 0.51001 0.84193 0.0
C305 C 0.91278 0.4371 0.86681 0.0
O306 O 0.92473 0.44857 0.91168 0.0
C307 C 0.89316 0.50902 0.86917 0.0
Zn308 Zn 0.78075 0.69676 0.92617 0.0
Zn309 Zn 0.80895 0.67164 0.96949 0.0
O310 O 0.79845 0.65759 0.87175 0.0
O311 O 0.76688 0.67487 0.86284 0.0
O312 O 0.83173 0.65091 0.01346 0.0
O313 O 0.76737 0.70147 0.02192 0.0
O314 O 0.78532 0.67125 0.04882 0.0
C315 C 0.77958 0.65982 0.84218 0.0
C316 C 0.81962 0.71909 0.92559 0.0
O317 O 0.82417 0.70251 0.96508 0.0
O318 O 0.80219 0.7189 0.88867 0.0
C319 C 0.85216 0.65044 -0.00067 0.0
O320 O 0.85997 0.66361 0.94964 0.0
C321 C 0.77108 0.68577 0.06469 0.0
Zn322 Zn 0.58461 0.50032 0.29966 0.0
Zn323 Zn 0.59372 0.54341 0.28654 0.0
O324 O 0.59668 0.53326 0.18234 0.0
O325 O 0.58719 0.49845 0.19367 0.0
O326 O 0.60535 0.57453 0.29653 0.0
O327 O 0.61173 0.49339 0.35564 0.0
O328 O 0.61661 0.52895 0.35071 0.0
C329 C 0.59327 0.51441 0.15496 0.0
C330 C 0.54886 0.52849 0.34471 0.0
O331 O 0.56124 0.54377 0.32099 0.0
O332 O 0.55573 0.50885 0.34589 0.0
C333 C 0.60385 0.58257 0.35928 0.0
O334 O 0.59232 0.57193 0.40765 0.0
C335 C 0.62299 0.51008 0.37126 0.0
Zn336 Zn 0.25938 0.33726 0.55507 0.0
Zn337 Zn 0.30135 0.34925 0.54494 0.0
O338 O 0.2919 0.3529 0.43935 0.0
O339 O 0.2578 0.34086 0.44976 0.0
O340 O 0.33156 0.36283 0.56319 0.0
O341 O 0.24918 0.36285 0.61105 0.0
O342 O 0.28424 0.37077 0.60762 0.0
C343 C 0.27316 0.3486 0.41177 0.0
C344 C 0.28891 0.30296 0.59919 0.0
O345 O 0.3035 0.31631 0.5764 0.0
O346 O 0.26892 0.30875 0.60053 0.0
C347 C 0.33579 0.36386 0.63012 0.0
O348 O 0.32282 0.35329 0.67465 0.0
C349 C 0.26481 0.37547 0.62716 0.0
Zn350 Zn 0.41851 0.50441 0.30479 0.0
Zn351 Zn 0.41068 0.547 0.29201 0.0
O352 O 0.40788 0.53669 0.18689 0.0
O353 O 0.41669 0.50172 0.19957 0.0
O354 O 0.39952 0.57851 0.30163 0.0
O355 O 0.39149 0.49732 0.35956 0.0
O356 O 0.38795 0.53306 0.35876 0.0
C357 C 0.41124 0.51772 0.16002 0.0
C358 C 0.45524 0.53084 0.34953 0.0
O359 O 0.44336 0.54654 0.32548 0.0
O360 O 0.44759 0.51152 0.35178 0.0
C361 C 0.40279 0.58809 0.36133 0.0
O362 O 0.416 0.57882 0.4083 0.0
C363 C 0.38109 0.51427 0.3784 0.0
Zn364 Zn 0.25761 0.67343 0.05909 0.0
Zn365 Zn 0.21496 0.66699 0.04166 0.0
O366 O 0.22642 0.66327 0.93787 0.0
O367 O 0.2615 0.67102 0.9546 0.0
O368 O 0.18327 0.65632 0.05183 0.0
O369 O 0.26364 0.64653 0.11606 0.0
O370 O 0.22781 0.64444 0.11163 0.0
C371 C 0.24589 0.66581 0.91341 0.0
C372 C 0.23135 0.71096 0.09978 0.0
O373 O 0.2156 0.69971 0.07368 0.0
O374 O 0.25043 0.70269 0.10427 0.0
C375 C 0.17682 0.65699 0.11686 0.0
O376 O 0.18894 0.66774 0.16319 0.0
C377 C 0.24609 0.637 0.13413 0.0
Zn378 Zn 0.09736 0.51644 0.79621 0.0
Zn379 Zn 0.10549 0.4739 0.78215 0.0
O380 O 0.10783 0.48537 0.67793 0.0
O381 O 0.09889 0.52023 0.69118 0.0
O382 O 0.11829 0.44298 0.78817 0.0
O383 O 0.12442 0.52324 0.85153 0.0
O384 O 0.12771 0.48751 0.8507 0.0
C385 C 0.10431 0.50444 0.65134 0.0
C386 C 0.06104 0.48869 0.84088 0.0
O387 O 0.07298 0.47319 0.81642 0.0
O388 O 0.06849 0.50809 0.8429 0.0
C389 C 0.11272 0.42896 0.83569 0.0
O390 O 0.09513 0.43255 0.87454 0.0
C391 C 0.13459 0.50615 0.87098 0.0
Zn392 Zn 0.25368 0.68254 0.47082 0.0
Zn393 Zn 0.29471 0.66812 0.48142 0.0
O394 O 0.28486 0.66458 0.58691 0.0
O395 O 0.25159 0.67883 0.57577 0.0
O396 O 0.3237 0.65235 0.46125 0.0
O397 O 0.24188 0.65793 0.41382 0.0
O398 O 0.27652 0.64817 0.4167 0.0
C399 C 0.26635 0.67002 0.61405 0.0
C400 C 0.28505 0.71529 0.42944 0.0
O401 O 0.29888 0.70103 0.45196 0.0
O402 O 0.2648 0.71062 0.42697 0.0
C403 C 0.34408 0.65441 0.47467 0.0
O404 O 0.35085 0.67036 0.51619 0.0
C405 C 0.25685 0.6446 0.3969 0.0
Zn406 Zn 0.08978 0.50402 0.20553 0.0
Zn407 Zn 0.09745 0.54707 0.21242 0.0
O408 O 0.10125 0.53863 0.31894 0.0
O409 O 0.09279 0.50349 0.31118 0.0
O410 O 0.10676 0.57871 0.19277 0.0
O411 O 0.11676 0.49679 0.15084 0.0
O412 O 0.12102 0.53247 0.15103 0.0
C413 C 0.09855 0.51982 0.34818 0.0
C414 C 0.05281 0.52934 0.15834 0.0
O415 O 0.06478 0.54524 0.17946 0.0
O416 O 0.06042 0.50999 0.159 0.0
C417 C 0.11958 0.58999 0.23172 0.0
O418 O 0.12527 0.58238 0.29508 0.0
C419 C 0.12778 0.5135 0.13332 0.0
Zn420 Zn 0.26314 0.34759 0.9671 0.0
Zn421 Zn 0.22144 0.35693 -0.01497 0.0
O422 O 0.23418 0.3596 0.08781 0.0
O423 O 0.26855 0.34923 0.07083 0.0
O424 O 0.19095 0.37086 -0.01836 0.0
O425 O 0.27069 0.37403 0.91018 0.0
O426 O 0.23498 0.37803 0.91188 0.0
C427 C 0.25344 0.35554 0.11219 0.0
C428 C 0.23415 0.31194 0.92746 0.0
O429 O 0.21921 0.32425 0.95364 0.0
O430 O 0.25369 0.31895 0.92238 0.0
C431 C 0.17551 0.36484 0.93994 0.0
O432 O 0.17719 0.34611 0.90602 0.0
C433 C 0.25374 0.38431 0.89006 0.0
Zn434 Zn 0.42306 0.5166 0.71281 0.0
Zn435 Zn 0.4154 0.4737 0.72404 0.0
O436 O 0.41216 0.48331 0.82946 0.0
O437 O 0.4208 0.51834 0.81844 0.0
O438 O 0.40625 0.44177 0.71151 0.0
O439 O 0.39571 0.52309 0.65838 0.0
O440 O 0.39169 0.48739 0.66025 0.0
C441 C 0.41515 0.50222 0.85707 0.0
C442 C 0.45971 0.49082 0.66586 0.0
O443 O 0.44782 0.47508 0.68904 0.0
O444 O 0.45218 0.51021 0.6654 0.0
C445 C 0.38903 0.43438 0.74156 0.0
O446 O 0.37902 0.44653 0.78944 0.0
C447 C 0.38484 0.50628 0.64133 0.0
C448 C 0.14663 0.13079 0.78035 0.0
C449 C 0.13929 0.11327 0.82316 0.0
H450 H 0.16658 0.15957 0.7732 0.0
C451 C 0.14533 0.11287 0.89616 0.0
H452 H 0.14223 0.13176 0.72418 0.0
C453 C 0.15934 0.1289 0.9245 0.0
C454 C 0.16766 0.14572 0.88054 0.0
H455 H 0.13993 0.09969 0.93098 0.0
H456 H 0.1644 0.12753 -0.02001 0.0
C457 C 0.16062 0.14679 0.80865 0.0
C458 C 0.15852 0.91226 0.17478 0.0
C459 C 0.1358 0.90828 0.17358 0.0
H460 H 0.19068 0.90056 0.14792 0.0
C461 C 0.12818 0.88838 0.14509 0.0
H462 H 0.16487 0.92759 0.19522 0.0
C463 C 0.14305 0.87263 0.11934 0.0
C464 C 0.16572 0.87694 0.11871 0.0
H465 H 0.11073 0.885 0.14284 0.0
H466 H 0.13681 0.8573 0.09859 0.0
C467 C 0.17327 0.89692 0.14671 0.0
C468 C 0.37597 0.90048 0.28364 0.0
C469 C 0.38935 0.91286 0.3293 0.0
H470 H 0.35214 0.87505 0.27399 0.0
C471 C 0.38992 0.90741 0.40276 0.0
H472 H 0.37517 0.90424 0.22689 0.0
C473 C 0.3763 0.89081 0.43044 0.0
C474 C 0.36217 0.87907 0.38494 0.0
H475 H 0.39994 0.91678 0.43947 0.0
H476 H 0.37627 0.88771 0.48763 0.0
C477 C 0.36275 0.88367 0.3109 0.0
C478 C 0.3736 0.10269 0.65924 0.0
C479 C 0.39561 0.10836 0.67218 0.0
H480 H 0.34204 0.11313 0.62095 0.0
C481 C 0.40257 0.1298 0.65601 0.0
H482 H 0.36785 0.0862 0.67007 0.0
C483 C 0.3876 0.14543 0.62931 0.0
C484 C 0.3657 0.13957 0.61521 0.0
H485 H 0.4195 0.13453 0.66487 0.0
H486 H 0.39318 0.162 0.61898 0.0
C487 C 0.35891 0.11801 0.63011 0.0
C488 C 0.89393 0.88848 0.07258 0.0
C489 C 0.87324 0.88576 0.10467 0.0
H490 H 0.92427 0.90627 0.07114 0.0
C491 C 0.86807 0.89846 0.16517 0.0
H492 H 0.89849 0.87893 0.02612 0.0
C493 C 0.88308 0.91379 0.19204 0.0
C494 C 0.90343 0.91706 0.1582 0.0
H495 H 0.85235 0.89663 0.19161 0.0
H496 H 0.87838 0.92367 0.23759 0.0
C497 C 0.90875 0.9041 0.09856 0.0
C498 C 0.88352 0.11347 0.87829 0.0
C499 C 0.90359 0.10834 0.91176 0.0
H500 H 0.85321 0.13135 0.88388 0.0
C501 C 0.90903 0.11906 0.97596 0.0
H502 H 0.87873 0.10536 0.8292 0.0
C503 C 0.89449 0.13406 0.00708 0.0
C504 C 0.87397 0.13842 0.97544 0.0
H505 H 0.92435 0.11545 0.00319 0.0
H506 H 0.89906 0.14169 0.0572 0.0
C507 C 0.8688 0.1282 0.91007 0.0
C508 C 0.65767 0.12342 0.63824 0.0
C509 C 0.65225 0.13285 0.57141 0.0
H510 H 0.64842 0.10101 0.72201 0.0
C511 C 0.63204 0.12739 0.53981 0.0
H512 H 0.67303 0.1274 0.66442 0.0
C513 C 0.61804 0.11217 0.57261 0.0
C514 C 0.62369 0.10231 0.63847 0.0
H515 H 0.6273 0.13437 0.48858 0.0
H516 H 0.60294 0.10776 0.54552 0.0
C517 C 0.64346 0.10845 0.67167 0.0
C518 C 0.61938 0.90779 0.49325 0.0
C519 C 0.62654 0.91799 0.42969 0.0
H520 H 0.62655 0.88485 0.57749 0.0
C521 C 0.64688 0.91173 0.40071 0.0
H522 H 0.60381 0.91229 0.51708 0.0
C523 C 0.66017 0.89629 0.43626 0.0
C524 C 0.65323 0.88651 0.5009 0.0
H525 H 0.65298 0.91945 0.35229 0.0
H526 H 0.67601 0.89222 0.41352 0.0
C527 C 0.63246 0.8921 0.52804 0.0
C528 C 0.6518 0.62207 0.37329 0.0
C529 C 0.64705 0.63308 0.43759 0.0
H530 H 0.64161 0.59792 0.29692 0.0
C531 C 0.62714 0.6285 0.47253 0.0
H532 H 0.6669 0.62535 0.34462 0.0
C533 C 0.61275 0.61266 0.44546 0.0
C534 C 0.6177 0.60132 0.38204 0.0
H535 H 0.62292 0.63671 0.52196 0.0
H536 H 0.59789 0.60902 0.475 0.0
C537 C 0.6372 0.60651 0.34549 0.0
C538 C 0.6145 0.40654 0.5439 0.0
C539 C 0.6193 0.41549 0.61148 0.0
H540 H 0.62473 0.38526 0.45921 0.0
C541 C 0.63834 0.40838 0.64745 0.0
H542 H 0.59996 0.41166 0.51468 0.0
C543 C 0.65276 0.39348 0.61502 0.0
C544 C 0.64832 0.38512 0.5463 0.0
H545 H 0.64263 0.41506 0.69927 0.0
H546 H 0.66762 0.38883 0.64333 0.0
C547 C 0.62874 0.39143 0.51194 0.0
C548 C 0.87936 0.41291 0.86165 0.0
C549 C 0.89917 0.41881 0.89513 0.0
H550 H 0.84958 0.39428 0.86838 0.0
C551 C 0.90465 0.40881 0.96091 0.0
H552 H 0.87453 0.42046 0.81136 0.0
C553 C 0.89045 0.39371 -0.0066 0.0
C554 C 0.8702 0.38851 0.96154 0.0
H555 H 0.91977 0.41301 -0.0118 0.0
H556 H 0.89506 0.38662 0.0446 0.0
C557 C 0.86496 0.39806 0.89475 0.0
C558 C 0.88794 0.63015 0.01116 0.0
C559 C 0.86698 0.63503 0.0383 0.0
H560 H 0.91714 0.61073 0.02161 0.0
C561 C 0.86026 0.6248 0.10243 0.0
H562 H 0.89368 0.63776 0.9621 0.0
C563 C 0.87395 0.60961 0.13749 0.0
C564 C 0.8945 0.60405 0.10849 0.0
H565 H 0.84429 0.62833 0.12516 0.0
H566 H 0.86802 0.60153 0.18551 0.0
C567 C 0.90142 0.6147 0.04545 0.0
C568 C 0.35077 0.38566 0.73225 0.0
C569 C 0.35193 0.37981 0.65943 0.0
H570 H 0.36148 0.40742 0.81491 0.0
C571 C 0.36717 0.39072 0.61536 0.0
H572 H 0.33921 0.37773 0.76798 0.0
C573 C 0.38034 0.4076 0.64307 0.0
C574 C 0.37818 0.41419 0.71497 0.0
H575 H 0.36847 0.38664 0.55912 0.0
H576 H 0.39136 0.41624 0.60728 0.0
C577 C 0.36353 0.40275 0.75939 0.0
C578 C 0.35365 0.62588 0.38298 0.0
C579 C 0.35996 0.63877 0.44196 0.0
H580 H 0.36239 0.60026 0.30997 0.0
C581 C 0.38127 0.63614 0.4698 0.0
H582 H 0.33743 0.62759 0.35966 0.0
C583 C 0.39551 0.62026 0.44162 0.0
C584 C 0.38898 0.60698 0.38392 0.0
H585 H 0.38669 0.64582 0.51495 0.0
H586 H 0.41152 0.61806 0.46608 0.0
C587 C 0.36805 0.61033 0.35392 0.0
C588 C 0.13339 0.61214 0.12654 0.0
C589 C 0.13108 0.60942 0.20121 0.0
H590 H 0.14967 0.62925 0.04083 0.0
C591 C 0.1419 0.62416 0.24664 0.0
H592 H 0.12534 0.601 0.08995 0.0
C593 C 0.15556 0.64048 0.21851 0.0
C594 C 0.15909 0.64233 0.14411 0.0
H595 H 0.14039 0.62263 0.30428 0.0
H596 H 0.1642 0.65098 0.25568 0.0
C597 C 0.14737 0.62833 0.09829 0.0
C598 C 0.1216 0.39095 0.8807 0.0
C599 C 0.12862 0.41192 0.85905 0.0
H600 H 0.13112 0.35926 0.92194 0.0
C601 C 0.15095 0.41732 0.86602 0.0
H602 H 0.10444 0.38648 0.87657 0.0
C603 C 0.1659 0.40221 0.89491 0.0
C604 C 0.15901 0.38113 0.91554 0.0
H605 H 0.15677 0.43348 0.85096 0.0
H606 H 0.18301 0.40686 0.89965 0.0
C607 C 0.13678 0.37549 0.90714 0.0
C608 C 0.28273 0.12493 0.81832 0.0
C609 C 0.26134 0.12906 0.84299 0.0
H610 H 0.30282 0.12267 0.72535 0.0
C611 C 0.24345 0.12327 0.79948 0.0
H612 H 0.29685 0.12797 0.85226 0.0
C613 C 0.24692 0.12017 0.7265 0.0
C614 C 0.26811 0.12335 0.69865 0.0
H615 H 0.22672 0.12507 0.81829 0.0
H616 H 0.23274 0.11988 0.69134 0.0
C617 C 0.28614 0.12173 0.74538 0.0
C618 C 0.16169 0.02393 0.06353 0.0
C619 C 0.15714 1.00319 0.09301 0.0
H620 H 0.15962 0.04332 0.96843 0.0
C621 C 0.15903 0.98469 0.04895 0.0
H622 H 0.1618 0.0384 0.097 0.0
C623 C 0.15761 0.98749 0.97498 0.0
C624 C 0.15461 1.00873 0.947 0.0
H625 H 0.15704 0.9683 0.07071 0.0
H626 H 0.15468 0.97318 0.94218 0.0
C627 C 0.16039 0.02675 -0.01044 0.0
C628 C 0.25001 0.89805 0.24232 0.0
C629 C 0.26789 0.8915 0.20003 0.0
H630 H 0.23885 0.90182 0.34973 0.0
C631 C 0.28929 0.89471 0.22615 0.0
H632 H 0.23333 0.897 0.22231 0.0
C633 C 0.29241 0.89787 0.29927 0.0
C634 C 0.27408 0.89686 0.34478 0.0
H635 H 0.30346 0.89107 0.19322 0.0
H636 H 0.30893 0.89628 0.32042 0.0
C637 C 0.25319 0.901 0.31554 0.0
C638 C 0.37093 0.98959 0.57225 0.0
C639 C 0.37381 1.01032 0.60331 0.0
H640 H 0.37468 0.97144 0.47578 0.0
C641 C 0.37026 0.02905 0.5606 0.0
H642 H 0.37202 0.97482 0.60458 0.0
C643 C 0.37199 0.02715 0.48649 0.0
C644 C 0.37685 1.00655 0.45708 0.0
H645 H 0.37081 0.04532 0.58361 0.0
H646 H 0.37374 0.042 0.45486 0.0
C647 C 0.37252 0.98767 0.49811 0.0
C648 C 0.77572 0.81514 0.30754 0.0
C649 C 0.77778 0.8347 0.26846 0.0
H650 H 0.76531 0.79994 0.40491 0.0
C651 C 0.7717 0.85465 0.2999 0.0
H652 H 0.78034 0.79959 0.28406 0.0
C653 C 0.76248 0.85483 0.36849 0.0
C654 C 0.75989 0.83512 0.40684 0.0
H655 H 0.77303 0.8699 0.27014 0.0
H656 H 0.75711 0.87026 0.39103 0.0
C657 C 0.76715 0.81538 0.37655 0.0
C658 C 0.87788 0.9958 -0.01248 0.0
C659 C 0.88159 0.01659 0.95714 0.0
H660 H 0.88118 0.97682 0.08316 0.0
C661 C 0.8791 0.03516 0.00062 0.0
H662 H 0.87819 0.98122 0.95459 0.0
C663 C 0.88108 0.03268 0.07455 0.0
C664 C 0.88495 0.01167 0.10312 0.0
H665 H 0.88035 0.05154 -0.0218 0.0
H666 H 0.88365 0.0472 0.1067 0.0
C667 C 0.87969 0.99329 0.0615 0.0
C668 C 0.76646 0.16464 0.80902 0.0
C669 C 0.76989 0.18469 0.84381 0.0
H670 H 0.75513 0.14874 0.71356 0.0
C671 C 0.76486 0.2044 0.80828 0.0
H672 H 0.77015 0.14926 0.83583 0.0
C673 C 0.75687 0.20411 0.73843 0.0
C674 C 0.75316 0.18411 0.70384 0.0
H675 H 0.76745 0.22005 0.83415 0.0
H676 H 0.75335 0.21955 0.7117 0.0
C677 C 0.75778 0.16434 0.73968 0.0
C678 C 0.65356 0.02986 0.57267 0.0
C679 C 0.64789 0.01075 0.61084 0.0
H680 H 0.65613 0.04377 0.46802 0.0
C681 C 0.65224 0.99029 0.57982 0.0
H682 H 0.65178 0.04592 0.59657 0.0
C683 C 0.65525 0.98912 0.50598 0.0
C684 C 0.65292 1.00839 0.46493 0.0
H685 H 0.6494 0.97522 0.60939 0.0
H686 H 0.65444 0.97313 0.48108 0.0
C687 C 0.65624 0.02863 0.49871 0.0
C688 C 0.74803 0.66593 0.24145 0.0
C689 C 0.7422 0.68594 0.27306 0.0
H690 H 0.76238 0.6502 0.15011 0.0
C691 C 0.74454 0.7055 0.23418 0.0
H692 H 0.74647 0.65068 0.27103 0.0
C693 C 0.7531 0.70521 0.16516 0.0
C694 C 0.76006 0.68539 0.13464 0.0
H695 H 0.7401 0.7211 0.25775 0.0
H696 H 0.75512 0.72064 0.1369 0.0
C697 C 0.75723 0.66569 0.17284 0.0
C698 C 0.64398 0.48781 0.45891 0.0
C699 C 0.63987 0.50838 0.42747 0.0
H700 H 0.64524 0.47031 0.55782 0.0
C701 C 0.64523 0.52735 0.46616 0.0
H702 H 0.64139 0.47284 0.42905 0.0
C703 C 0.64724 0.52589 0.54037 0.0
C704 C 0.64368 0.50552 0.57383 0.0
H705 H 0.64362 0.54349 0.4421 0.0
H706 H 0.6469 0.54092 0.57104 0.0
C707 C 0.64629 0.48639 0.53304 0.0
C708 C 0.77559 0.34304 0.6998 0.0
C709 C 0.75306 0.34251 0.68375 0.0
H710 H 0.80005 0.3437 0.78237 0.0
C711 C 0.73761 0.34301 0.73924 0.0
H712 H 0.78774 0.34279 0.65745 0.0
C713 C 0.74463 0.34296 0.81024 0.0
C714 C 0.76715 0.34307 0.82633 0.0
H715 H 0.72016 0.34256 0.72779 0.0
H716 H 0.73248 0.34264 0.8526 0.0
C717 C 0.7826 0.34366 0.77083 0.0
C718 C 0.86645 0.49334 0.03573 0.0
C719 C 0.86961 0.51366 0.06921 0.0
H720 H 0.87174 0.47572 0.93897 0.0
C721 C 0.86778 0.53282 0.02738 0.0
H722 H 0.86614 0.47831 0.06694 0.0
C723 C 0.8715 0.53142 0.95394 0.0
C724 C 0.87594 0.51083 0.92392 0.0
H725 H 0.86847 0.54888 0.05191 0.0
H726 H 0.87469 0.54639 0.92421 0.0
C727 C 0.86985 0.49187 0.96214 0.0
C728 C 0.23998 0.39592 0.70774 0.0
C729 C 0.26133 0.39234 0.6819 0.0
H730 H 0.2204 0.39809 0.80185 0.0
C731 C 0.27929 0.39889 0.72396 0.0
H732 H 0.22577 0.39228 0.6749 0.0
C733 C 0.27618 0.40218 0.79701 0.0
C734 C 0.25526 0.39851 0.82635 0.0
H735 H 0.29596 0.39754 0.70415 0.0
H736 H 0.29055 0.403 0.83122 0.0
C737 C 0.23692 0.39942 0.7807 0.0
C738 C 0.36204 0.49183 0.46932 0.0
C739 C 0.36553 0.51259 0.43842 0.0
H740 H 0.36509 0.47324 0.56586 0.0
C741 C 0.36239 0.53125 0.48107 0.0
H742 H 0.36282 0.47715 0.43697 0.0
C743 C 0.36382 0.52903 0.55525 0.0
C744 C 0.36807 0.5082 0.58478 0.0
H745 H 0.36346 0.54758 0.45817 0.0
H746 H 0.36586 0.54371 0.58701 0.0
C747 C 0.36338 0.48959 0.54351 0.0
C748 C 0.27008 0.62036 0.30033 0.0
C749 C 0.25246 0.62813 0.34157 0.0
H750 H 0.28139 0.61545 0.19358 0.0
C751 C 0.231 0.62597 0.31481 0.0
H752 H 0.28673 0.62056 0.32094 0.0
C753 C 0.22795 0.62259 0.24175 0.0
C754 C 0.24647 0.62234 0.19691 0.0
H755 H 0.21694 0.63056 0.34696 0.0
H756 H 0.21162 0.62499 0.21987 0.0
C757 C 0.26699 0.61722 0.22717 0.0
C758 C 0.15046 0.53007 0.03775 0.0
C759 C 0.14489 0.51142 0.07824 0.0
H760 H 0.15294 0.54281 0.93151 0.0
C761 C 0.1492 0.4906 0.04951 0.0
H762 H 0.14871 0.54638 0.05981 0.0
C763 C 0.1519 0.48859 0.97574 0.0
C764 C 0.14966 0.50741 0.93256 0.0
H765 H 0.14645 0.47587 0.08092 0.0
H766 H 0.15098 0.47234 0.95274 0.0
C767 C 0.15302 0.52802 0.96395 0.0
C768 C 0.24567 0.25411 0.86935 0.0
C769 C 0.23107 0.24207 0.91246 0.0
H770 H 0.25765 0.2857 0.83886 0.0
C771 C 0.21443 0.2534 0.94929 0.0
H772 H 0.25847 0.24587 0.83942 0.0
C773 C 0.21396 0.27646 0.94905 0.0
C774 C 0.23013 0.28843 0.91194 0.0
H775 H 0.20294 0.24457 -0.01704 0.0
H776 H 0.20213 0.28481 -0.01743 0.0
C777 C 0.24519 0.27698 0.86903 0.0
C778 C 0.03246 0.96519 0.20896 0.0
C779 C 0.04457 0.98149 0.17288 0.0
H780 H 1.0005 0.9543 0.2424 0.0
C781 C 0.03317 0.9971 0.13135 0.0
H782 H 0.04076 0.95293 0.24137 0.0
C783 C 1.01026 0.9979 0.13205 0.0
C784 C 0.99814 0.98309 0.17417 0.0
H785 H 0.04197 1.00967 0.10194 0.0
H786 H 1.00209 0.01105 0.10314 0.0
C787 C 1.00938 0.96598 0.20956 0.0
C788 C 0.27937 0.77441 0.37465 0.0
C789 C 0.295 0.78457 0.41886 0.0
H790 H 0.26442 0.74442 0.34193 0.0
C791 C 0.31044 0.77134 0.45513 0.0
H792 H 0.26746 0.78412 0.34512 0.0
C793 C 0.30868 0.74836 0.45328 0.0
C794 C 0.29147 0.73837 0.41513 0.0
H795 H 0.32267 0.7787 0.48964 0.0
H796 H 0.31958 0.73858 0.48647 0.0
C797 C 0.27764 0.75162 0.37279 0.0
C798 C 0.49816 0.05186 0.70608 0.0
C799 C 0.48637 0.03462 0.67431 0.0
H800 H 0.52989 0.06412 0.73631 0.0
C801 C 0.49806 0.01845 0.63674 0.0
H802 H 0.48964 0.06458 0.73533 0.0
C803 C 0.52099 0.01814 0.63749 0.0
C804 C 0.53282 0.03404 0.67566 0.0
H805 H 0.48949 1.00514 0.61059 0.0
H806 H 0.52941 1.00464 0.61181 0.0
C807 C 0.52124 0.05158 0.7067 0.0
C808 C 0.2458 0.76758 0.16359 0.0
C809 C 0.23186 0.78081 0.12155 0.0
H810 H 0.25622 0.73511 0.19075 0.0
C811 C 0.21475 0.77074 0.08311 0.0
H812 H 0.25895 0.77481 0.19469 0.0
C813 C 0.21317 0.74775 0.08085 0.0
C814 C 0.22869 0.73457 0.11694 0.0
H815 H 0.20376 0.78049 0.05015 0.0
H816 H 0.20096 0.74037 0.04632 0.0
C817 C 0.24425 0.74477 0.16127 0.0
C818 C 0.50443 1.0064 0.42492 0.0
C819 C 0.49284 0.98914 0.39256 0.0
H820 H 0.5357 0.02085 0.4463 0.0
C821 C 0.50474 0.9711 0.36635 0.0
H822 H 0.49578 0.02038 0.44683 0.0
C823 C 0.5278 0.97137 0.36607 0.0
C824 C 0.5393 0.9897 0.39196 0.0
H825 H 0.49632 0.9575 0.34135 0.0
H826 H 0.5365 0.95796 0.34093 0.0
C827 C 0.52736 1.00668 0.4246 0.0
C828 C 0.31141 0.2454 0.5789 0.0
C829 C 0.29544 0.23336 0.61668 0.0
H830 H 0.32207 0.27734 0.54415 0.0
C831 C 0.28047 0.24476 0.66009 0.0
H832 H 0.32315 0.23709 0.54493 0.0
C833 C 0.27982 0.26762 0.65949 0.0
C834 C 0.29417 0.27971 0.61565 0.0
H835 H 0.26816 0.23598 0.69074 0.0
H836 H 0.26704 0.2758 0.68969 0.0
C837 C 0.31078 0.26846 0.57843 0.0
C838 C 1.00627 0.02208 0.92125 0.0
C839 C 0.99474 0.03833 0.88284 0.0
H840 H 0.03746 1.00794 0.94681 0.0
C841 C 1.0067 0.05535 0.84996 0.0
H842 H 0.99757 1.00894 0.94822 0.0
C843 C 0.02977 0.05477 0.84918 0.0
C844 C 0.04115 0.03716 0.88124 0.0
H845 H 0.9983 0.06812 0.82006 0.0
H846 H 0.03854 0.06712 0.81872 0.0
C847 C 0.02917 0.0215 0.92043 0.0
C848 C 0.83665 0.74688 0.00627 0.0
C849 C 0.83028 0.74063 0.9368 0.0
H850 H 0.83841 0.77335 0.08149 0.0
C851 C 0.82762 0.75702 0.88423 0.0
H852 H 0.83876 0.73465 0.04803 0.0
C853 C 0.82747 0.77912 0.90347 0.0
C854 C 0.83021 0.78518 0.97532 0.0
H855 H 0.82287 0.75272 0.83013 0.0
H856 H 0.8224 0.7912 0.86393 0.0
C857 C 0.83654 0.76911 0.02551 0.0
C858 C 0.70146 0.24661 0.37393 0.0
C859 C 0.69624 0.23537 0.43755 0.0
H860 H 0.70836 0.2777 0.32547 0.0
C861 C 0.68765 0.24732 0.49537 0.0
H862 H 0.70803 0.23781 0.32843 0.0
C863 C 0.6877 0.27036 0.49341 0.0
C864 C 0.69636 0.28151 0.43368 0.0
H865 H 0.68365 0.23909 0.54524 0.0
H866 H 0.68376 0.27925 0.54183 0.0
C867 C 0.70162 0.26949 0.37214 0.0
C868 C 0.83385 0.27397 0.03218 0.0
C869 C 0.82492 0.28602 0.08919 0.0
H870 H 0.83886 0.2419 -0.0119 0.0
C871 C 0.82009 0.27511 0.15362 0.0
H872 H 0.83745 0.282 -0.01836 0.0
C873 C 0.82097 0.25227 0.15747 0.0
C874 C 0.82648 0.23994 0.09668 0.0
H875 H 0.81314 0.28404 0.19826 0.0
H876 H 0.81474 0.24421 0.20517 0.0
C877 C 0.83464 0.25096 0.03591 0.0
C878 C 0.69106 0.74141 0.63605 0.0
C879 C 0.68861 0.73533 0.56411 0.0
H880 H 0.69552 0.76784 0.70939 0.0
C881 C 0.68258 0.7514 0.51355 0.0
H882 H 0.6959 0.72933 0.67587 0.0
C883 C 0.68251 0.77364 0.53264 0.0
C884 C 0.68863 0.7799 0.60233 0.0
H885 H 0.68094 0.74713 0.45751 0.0
H886 H 0.68067 0.78586 0.49068 0.0
C887 C 0.69096 0.76353 0.65513 0.0
C888 C 0.51796 0.46897 0.67502 0.0
C889 C 0.52972 0.48682 0.64647 0.0
H890 H 0.48632 0.45608 0.70317 0.0
C891 C 0.51799 0.50384 0.61255 0.0
H892 H 0.5265 0.45556 0.70129 0.0
C893 C 0.49506 0.50414 0.61364 0.0
C894 C 0.48328 0.48743 0.64867 0.0
H895 H 0.52652 0.51766 0.58885 0.0
H896 H 0.48661 0.51817 0.5907 0.0
C897 C 0.4949 0.46927 0.67612 0.0
C898 C 0.99441 0.55051 0.17091 0.0
C899 C 0.98265 0.53255 0.14356 0.0
H900 H 0.0261 0.56375 0.19656 0.0
C901 C 0.99433 0.5157 0.10932 0.0
H902 H 0.9859 0.56381 0.19736 0.0
C903 C 0.01726 0.51568 0.10882 0.0
C904 C 0.0291 0.5325 0.14256 0.0
H905 H 0.98579 0.50181 0.0865 0.0
H906 H 0.02571 0.50177 0.08565 0.0
C907 C 0.01747 0.55049 0.17041 0.0
C908 C 1.00233 0.46874 0.82524 0.0
C909 C 0.99096 0.48627 0.85714 0.0
H910 H 0.03375 0.45557 0.79547 0.0
C911 C 1.00301 0.50197 0.89546 0.0
H912 H 0.9935 0.45635 0.79547 0.0
C913 C 0.02594 0.50149 0.89563 0.0
C914 C 0.03742 0.48532 0.85733 0.0
H915 H 0.99476 0.51546 0.92177 0.0
H916 H 0.03467 0.51465 0.92201 0.0
C917 C 0.02541 0.46828 0.82528 0.0
C918 C 0.49092 0.55104 0.3324 0.0
C919 C 0.47899 0.53392 0.3648 0.0
H920 H 0.5227 0.56291 0.30102 0.0
C921 C 0.49058 0.51749 0.40218 0.0
H922 H 0.48248 0.56397 0.3033 0.0
C923 C 0.5135 0.51686 0.40076 0.0
C924 C 0.52542 0.53267 0.36201 0.0
H925 H 0.48192 0.50426 0.42881 0.0
H926 H 0.52182 0.50319 0.42639 0.0
C927 C 0.51398 0.55043 0.33105 0.0
C928 C 0.27944 0.16826 0.21433 0.0
C929 C 0.25741 0.16904 0.19107 0.0
H930 H 0.30155 0.16655 0.30354 0.0
C931 C 0.24053 0.16676 0.2413 0.0
H932 H 0.29286 0.16961 0.17652 0.0
C933 C 0.24558 0.16506 0.31399 0.0
C934 C 0.26759 0.16538 0.33748 0.0
H935 H 0.22347 0.16712 0.2248 0.0
H936 H 0.23218 0.16409 0.352 0.0
C937 C 0.28449 0.16632 0.28693 0.0
C938 C 0.11558 0.98987 0.501 0.0
C939 C 0.11466 1.00696 0.45078 0.0
H940 H 0.11478 0.98088 0.61139 0.0
C941 C 0.11408 0.02884 0.47489 0.0
H942 H 0.11616 0.97291 0.4841 0.0
C943 C 0.11336 0.03348 0.548 0.0
C944 C 0.11298 0.0163 0.59796 0.0
H945 H 0.11363 0.04241 0.43722 0.0
H946 H 0.11222 0.05039 0.56515 0.0
C947 C 0.11466 0.9945 0.57387 0.0
C948 C 0.28668 0.85042 0.82578 0.0
C949 C 0.26473 0.85214 0.84913 0.0
H950 H 0.30867 0.84955 0.73628 0.0
C951 C 0.24813 0.85631 0.79895 0.0
H952 H 0.29992 0.84754 0.86354 0.0
C953 C 0.25321 0.85743 0.72631 0.0
C954 C 0.27499 0.85457 0.70267 0.0
H955 H 0.23115 0.8579 0.81542 0.0
H956 H 0.23993 0.85993 0.68842 0.0
C957 C 0.29179 0.85174 0.75309 0.0
C958 C 0.41828 0.03021 0.00697 0.0
C959 C 0.41863 0.01251 0.95962 0.0
H960 H 0.4197 0.04054 0.11579 0.0
C961 C 0.4192 0.99096 -0.01272 0.0
H962 H 0.41778 0.04695 -0.01277 0.0
C963 C 0.42027 0.98722 0.06094 0.0
C964 C 0.42095 1.00496 0.10813 0.0
H965 H 0.41927 0.97693 0.95194 0.0
H966 H 0.4212 0.9705 0.08067 0.0
C967 C 0.41951 0.02648 0.08056 0.0
C968 C 0.77693 0.87715 0.84551 0.0
C969 C 0.76348 0.87245 0.90453 0.0
H970 H 0.77931 0.87749 0.73115 0.0
C971 C 0.74055 0.87134 0.89394 0.0
H972 H 0.79459 0.87829 0.85174 0.0
C973 C 0.73175 0.87108 0.82457 0.0
C974 C 0.74581 0.87186 0.76529 0.0
H975 H 0.72969 0.86806 0.93864 0.0
H976 H 0.71449 0.86729 0.81765 0.0
C977 C 0.76815 0.87672 0.77626 0.0
C978 C 0.92669 0.03581 0.55214 0.0
C979 C 0.92484 0.01848 0.60117 0.0
H980 H 0.92999 0.04514 0.44237 0.0
C981 C 0.92308 0.99685 0.57577 0.0
H982 H 0.92804 0.0526 0.57031 0.0
C983 C 0.92416 0.99251 0.50271 0.0
C984 C 0.9272 1.00973 0.45387 0.0
H985 H 0.92138 0.98314 0.61252 0.0
H986 H 0.92333 0.97566 0.48482 0.0
C987 C 0.92796 0.03146 0.47904 0.0
C988 C 0.78619 0.14188 0.2624 0.0
C989 C 0.7717 0.14391 0.20428 0.0
H990 H 0.78943 0.14242 0.37647 0.0
C991 C 0.74903 0.14116 0.21646 0.0
H992 H 0.80373 0.14368 0.25477 0.0
C993 C 0.74077 0.14049 0.28632 0.0
C994 C 0.75513 0.14263 0.34466 0.0
H995 H 0.73748 0.14223 0.17235 0.0
H996 H 0.72315 0.14124 0.29398 0.0
C997 C 0.77793 0.14124 0.33229 0.0
C998 C 0.60932 0.0283 0.07934 0.0
C999 C 0.60838 1.00686 0.10762 0.0
H1000 H 0.60802 0.04864 -0.0143 0.0
C1001 C 0.60679 0.98907 0.06082 0.0
H1002 H 0.61077 0.04238 0.11425 0.0
C1003 C 0.60508 0.99274 -0.01274 0.0
C1004 C 0.6051 0.01424 0.9592 0.0
H1005 H 0.60606 0.97242 0.08106 0.0
H1006 H 0.60335 0.97866 0.95248 0.0
C1007 C 0.60776 0.03196 0.00576 0.0
C1008 C 0.78731 0.64912 0.71659 0.0
C1009 C 0.77324 0.6484 0.77587 0.0
H1010 H 0.78939 0.65219 0.60256 0.0
C1011 C 0.75087 0.64366 0.76486 0.0
H1012 H 0.80458 0.6528 0.72355 0.0
C1013 C 0.74209 0.64331 0.69561 0.0
C1014 C 0.75558 0.64797 0.63664 0.0
H1015 H 0.73971 0.64292 0.80998 0.0
H1016 H 0.72443 0.64228 0.68937 0.0
C1017 C 0.77851 0.64894 0.64723 0.0
C1018 C 0.59928 0.52834 0.03062 0.0
C1019 C 0.59629 0.51066 0.0778 0.0
H1020 H 0.60236 0.53872 0.92182 0.0
C1021 C 0.59568 0.48918 0.05049 0.0
H1022 H 0.59999 0.545 0.0501 0.0
C1023 C 0.59717 0.48549 0.97703 0.0
C1024 C 0.59913 0.50327 0.92967 0.0
H1025 H 0.59366 0.47514 0.08579 0.0
H1026 H 0.59601 0.46889 0.9573 0.0
C1027 C 0.60062 0.52466 0.9572 0.0
C1028 C 0.73562 0.38353 0.26596 0.0
C1029 C 0.74994 0.38096 0.32416 0.0
H1030 H 0.73284 0.38303 0.15185 0.0
C1031 C 0.77263 0.3841 0.31317 0.0
H1032 H 0.71807 0.38149 0.27288 0.0
C1033 C 0.78117 0.38476 0.24371 0.0
C1034 C 0.76698 0.38236 0.18519 0.0
H1035 H 0.78401 0.3827 0.35768 0.0
H1036 H 0.7988 0.38362 0.2367 0.0
C1037 C 0.74416 0.38433 0.19649 0.0
C1038 C 0.91483 0.48955 0.52939 0.0
C1039 C 0.9179 0.50717 0.57609 0.0
H1040 H 0.91118 0.47934 0.42093 0.0
C1041 C 0.91795 0.52872 0.5484 0.0
H1042 H 0.91452 0.47283 0.54921 0.0
C1043 C 0.91589 0.53252 0.47501 0.0
C1044 C 0.91392 0.51482 0.42802 0.0
H1045 H 0.91999 0.54271 0.58329 0.0
H1046 H 0.91669 0.5492 0.45498 0.0
C1047 C 0.91292 0.49334 0.45598 0.0
C1048 C 0.2804 0.35664 0.21275 0.0
C1049 C 0.25839 0.35675 0.1892 0.0
H1050 H 0.30245 0.35409 0.3021 0.0
C1051 C 0.24146 0.3561 0.23973 0.0
H1052 H 0.29382 0.35737 0.17478 0.0
C1053 C 0.24645 0.35404 0.31228 0.0
C1054 C 0.26845 0.35282 0.33562 0.0
H1055 H 0.2244 0.35622 0.22315 0.0
H1056 H 0.23299 0.35295 0.35002 0.0
C1057 C 0.2854 0.3548 0.28549 0.0
C1058 C 0.41147 0.52761 0.96059 0.0
C1059 C 0.41216 0.506 0.93429 0.0
H1060 H 0.41037 0.54833 0.05272 0.0
C1061 C 0.41068 0.4884 -0.01751 0.0
H1062 H 0.41228 0.54157 0.92456 0.0
C1063 C 0.40962 0.49235 0.05589 0.0
C1064 C 0.40985 0.51396 0.08232 0.0
H1065 H 0.41101 0.47162 0.96376 0.0
H1066 H 0.40909 0.4784 0.09204 0.0
C1067 C 0.41024 0.53156 0.03394 0.0
C1068 C 0.23399 0.66543 0.78551 0.0
C1069 C 0.25077 0.66384 0.83653 0.0
H1070 H 0.2259 0.66861 0.67482 0.0
C1071 C 0.27276 0.66215 0.81351 0.0
H1072 H 0.21695 0.66665 0.80165 0.0
C1073 C 0.27796 0.66323 0.74083 0.0
C1074 C 0.26127 0.66621 0.69014 0.0
H1075 H 0.28607 0.66062 0.85184 0.0
H1076 H 0.29504 0.66263 0.72468 0.0
C1077 C 0.2392 0.6667 0.71297 0.0
C1078 C 0.10301 0.53393 0.47293 0.0
C1079 C 0.10211 0.51628 0.42539 0.0
H1080 H 0.10453 0.54395 0.58222 0.0
C1081 C 0.10387 0.49472 0.45235 0.0
H1082 H 0.10186 0.55068 0.4536 0.0
C1083 C 0.10552 0.49082 0.52572 0.0
C1084 C 0.1053 0.5084 0.57356 0.0
H1085 H 0.10356 0.48074 0.41682 0.0
H1086 H 0.1062 0.47403 0.54494 0.0
C1087 C 0.1045 0.53001 0.54648 0.0
loop_
_geom_bond_atom_site_label_1
_geom_bond_atom_site_label_2
_geom_bond_distance
_geom_bond_site_symmetry_2
_ccdc_geom_bond_type
Zn0 O3 2.031 . S
Zn0 O5 2.049 1_554 S
Zn0 O10 2.067 . S
Zn1 O2 1.962 . S
Zn1 O4 1.986 1_554 S
Zn1 O6 1.996 1_554 S
Zn1 O9 1.943 . S
O2 Zn1 1.962 . S
O2 C7 1.254 . S
O3 Zn0 2.031 . S
O3 C7 1.269 . S
O4 Zn1 1.986 1_556 S
O4 C11 1.262 1_556 S
O5 Zn0 2.049 1_556 S
O5 C13 1.260 . S
O6 Zn1 1.996 1_556 S
O6 C13 1.257 . S
C7 O2 1.254 . S
C7 O3 1.269 . S
C8 O9 1.249 . S
C8 O10 1.270 . S
O9 Zn1 1.943 . S
O9 C8 1.249 . S
O10 Zn0 2.067 . S
O10 C8 1.270 . S
C11 O4 1.262 1_554 S
C11 O12 1.232 . S
O12 C11 1.232 . S
C13 O5 1.260 . S
C13 O6 1.257 . S
Zn14 O17 2.031 . S
Zn14 O19 2.049 . S
Zn14 O24 2.067 . S
Zn15 O16 1.962 . S
Zn15 O18 1.986 . S
Zn15 O20 1.996 . S
Zn15 O23 1.943 . S
O16 Zn15 1.962 . S
O16 C21 1.254 . S
O17 Zn14 2.031 . S
O17 C21 1.269 . S
O18 Zn15 1.986 . S
O18 C25 1.262 . S
O19 Zn14 2.049 . S
O19 C27 1.260 . S
O20 Zn15 1.996 . S
O20 C27 1.257 . S
C21 O16 1.254 . S
C21 O17 1.269 . S
C22 O23 1.249 . S
C22 O24 1.270 . S
O23 Zn15 1.943 . S
O23 C22 1.249 . S
O24 Zn14 2.067 . S
O24 C22 1.270 . S
C25 O18 1.262 . S
C25 O26 1.232 . S
O26 C25 1.232 . S
C27 O19 1.260 . S
C27 O20 1.257 . S
Zn28 O31 2.031 . S
Zn28 O33 2.049 . S
Zn28 O38 2.067 . S
Zn29 O30 1.962 . S
Zn29 O32 1.986 . S
Zn29 O34 1.996 . S
Zn29 O37 1.943 . S
O30 Zn29 1.962 . S
O30 C35 1.254 . S
O31 Zn28 2.031 . S
O31 C35 1.269 . S
O32 Zn29 1.986 . S
O32 C39 1.262 . S
O33 Zn28 2.049 . S
O33 C41 1.260 . S
O34 Zn29 1.996 . S
O34 C41 1.257 . S
C35 O30 1.254 . S
C35 O31 1.269 . S
C36 O37 1.249 . S
C36 O38 1.270 . S
O37 Zn29 1.943 . S
O37 C36 1.249 . S
O38 Zn28 2.067 . S
O38 C36 1.270 . S
C39 O32 1.262 . S
C39 O40 1.232 . S
O40 C39 1.232 . S
C41 O33 1.260 . S
C41 O34 1.257 . S
Zn42 O45 2.031 . S
Zn42 O47 2.049 . S
Zn42 O52 2.067 . S
Zn43 O44 1.962 . S
Zn43 O46 1.986 . S
Zn43 O48 1.996 . S
Zn43 O51 1.943 . S
O44 Zn43 1.962 . S
O44 C49 1.254 . S
O45 Zn42 2.031 . S
O45 C49 1.269 . S
O46 Zn43 1.986 . S
O46 C53 1.262 . S
O47 Zn42 2.049 . S
O47 C55 1.260 . S
O48 Zn43 1.996 . S
O48 C55 1.257 . S
C49 O44 1.254 . S
C49 O45 1.269 . S
C50 O51 1.249 . S
C50 O52 1.270 . S
O51 Zn43 1.943 . S
O51 C50 1.249 . S
O52 Zn42 2.067 . S
O52 C50 1.270 . S
C53 O46 1.262 . S
C53 O54 1.232 . S
O54 C53 1.232 . S
C55 O47 1.260 . S
C55 O48 1.257 . S
Zn56 O59 2.031 1_554 S
Zn56 O61 2.049 . S
Zn56 O66 2.067 . S
Zn57 O58 1.962 1_554 S
Zn57 O60 1.986 . S
Zn57 O62 1.996 . S
Zn57 O65 1.943 . S
O58 Zn57 1.962 1_556 S
O58 C63 1.254 . S
O59 Zn56 2.031 1_556 S
O59 C63 1.269 . S
O60 Zn57 1.986 . S
O60 C67 1.262 . S
O61 Zn56 2.049 . S
O61 C69 1.260 . S
O62 Zn57 1.996 . S
O62 C69 1.257 . S
C63 O58 1.254 . S
C63 O59 1.269 . S
C64 O65 1.249 . S
C64 O66 1.270 . S
O65 Zn57 1.943 . S
O65 C64 1.249 . S
O66 Zn56 2.067 . S
O66 C64 1.270 . S
C67 O60 1.262 . S
C67 O68 1.232 . S
O68 C67 1.232 . S
C69 O61 1.260 . S
C69 O62 1.257 . S
Zn70 O73 2.031 . S
Zn70 O75 2.049 . S
Zn70 O80 2.067 . S
Zn71 O72 1.962 . S
Zn71 O74 1.986 . S
Zn71 O76 1.996 . S
Zn71 O79 1.943 . S
O72 Zn71 1.962 . S
O72 C77 1.254 . S
O73 Zn70 2.031 . S
O73 C77 1.269 . S
O74 Zn71 1.986 . S
O74 C81 1.262 . S
O75 Zn70 2.049 . S
O75 C83 1.260 . S
O76 Zn71 1.996 . S
O76 C83 1.257 . S
C77 O72 1.254 . S
C77 O73 1.269 . S
C78 O79 1.249 . S
C78 O80 1.270 . S
O79 Zn71 1.943 . S
O79 C78 1.249 . S
O80 Zn70 2.067 . S
O80 C78 1.270 . S
C81 O74 1.262 . S
C81 O82 1.232 . S
O82 C81 1.232 . S
C83 O75 1.260 . S
C83 O76 1.257 . S
Zn84 O87 2.031 . S
Zn84 O89 2.049 . S
Zn84 O94 2.067 . S
Zn85 O86 1.962 . S
Zn85 O88 1.986 . S
Zn85 O90 1.996 . S
Zn85 O93 1.943 . S
O86 Zn85 1.962 . S
O86 C91 1.254 . S
O87 Zn84 2.031 . S
O87 C91 1.269 . S
O88 Zn85 1.986 . S
O88 C95 1.262 . S
O89 Zn84 2.049 . S
O89 C97 1.260 . S
O90 Zn85 1.996 . S
O90 C97 1.257 . S
C91 O86 1.254 . S
C91 O87 1.269 . S
C92 O93 1.249 . S
C92 O94 1.270 . S
O93 Zn85 1.943 . S
O93 C92 1.249 . S
O94 Zn84 2.067 . S
O94 C92 1.270 . S
C95 O88 1.262 . S
C95 O96 1.232 . S
O96 C95 1.232 . S
C97 O89 1.260 . S
C97 O90 1.257 . S
Zn98 O101 2.031 . S
Zn98 O103 2.049 . S
Zn98 O108 2.067 . S
Zn99 O100 1.962 . S
Zn99 O102 1.986 . S
Zn99 O104 1.996 . S
Zn99 O107 1.943 . S
O100 Zn99 1.962 . S
O100 C105 1.254 . S
O101 Zn98 2.031 . S
O101 C105 1.269 . S
O102 Zn99 1.986 . S
O102 C109 1.262 . S
O103 Zn98 2.049 . S
O103 C111 1.260 . S
O104 Zn99 1.996 . S
O104 C111 1.257 . S
C105 O100 1.254 . S
C105 O101 1.269 . S
C106 O107 1.249 . S
C106 O108 1.270 . S
O107 Zn99 1.943 . S
O107 C106 1.249 . S
O108 Zn98 2.067 . S
O108 C106 1.270 . S
C109 O102 1.262 . S
C109 O110 1.232 . S
O110 C109 1.232 . S
C111 O103 1.260 . S
C111 O104 1.257 . S
Zn112 O115 2.031 1_554 S
Zn112 O117 2.049 . S
Zn112 O122 2.067 . S
Zn113 O114 1.962 1_554 S
Zn113 O116 1.986 . S
Zn113 O118 1.996 . S
Zn113 O121 1.943 . S
O114 Zn113 1.962 1_556 S
O114 C119 1.254 . S
O115 Zn112 2.031 1_556 S
O115 C119 1.269 . S
O116 Zn113 1.986 . S
O116 C123 1.262 . S
O117 Zn112 2.049 . S
O117 C125 1.260 . S
O118 Zn113 1.996 . S
O118 C125 1.257 . S
C119 O114 1.254 . S
C119 O115 1.269 . S
C120 O121 1.249 . S
C120 O122 1.270 . S
O121 Zn113 1.943 . S
O121 C120 1.249 . S
O122 Zn112 2.067 . S
O122 C120 1.270 . S
C123 O116 1.262 . S
C123 O124 1.232 . S
O124 C123 1.232 . S
C125 O117 1.260 . S
C125 O118 1.257 . S
Zn126 O129 2.031 . S
Zn126 O131 2.049 . S
Zn126 O136 2.067 . S
Zn127 O128 1.962 . S
Zn127 O130 1.986 . S
Zn127 O132 1.996 . S
Zn127 O135 1.943 . S
O128 Zn127 1.962 . S
O128 C133 1.254 . S
O129 Zn126 2.031 . S
O129 C133 1.269 . S
O130 Zn127 1.986 . S
O130 C137 1.262 . S
O131 Zn126 2.049 . S
O131 C139 1.260 . S
O132 Zn127 1.996 . S
O132 C139 1.257 . S
C133 O128 1.254 . S
C133 O129 1.269 . S
C134 O135 1.249 . S
C134 O136 1.270 . S
O135 Zn127 1.943 . S
O135 C134 1.249 . S
O136 Zn126 2.067 . S
O136 C134 1.270 . S
C137 O130 1.262 . S
C137 O138 1.232 . S
O138 C137 1.232 . S
C139 O131 1.260 . S
C139 O132 1.257 . S
Zn140 O143 2.031 . S
Zn140 O145 2.049 . S
Zn140 O150 2.067 . S
Zn141 O142 1.962 . S
Zn141 O144 1.986 . S
Zn141 O146 1.996 . S
Zn141 O149 1.943 . S
O142 Zn141 1.962 . S
O142 C147 1.254 . S
O143 Zn140 2.031 . S
O143 C147 1.269 . S
O144 Zn141 1.986 . S
O144 C151 1.262 . S
O145 Zn140 2.049 . S
O145 C153 1.260 . S
O146 Zn141 1.996 . S
O146 C153 1.257 . S
C147 O142 1.254 . S
C147 O143 1.269 . S
C148 O149 1.249 . S
C148 O150 1.270 . S
O149 Zn141 1.943 . S
O149 C148 1.249 . S
O150 Zn140 2.067 . S
O150 C148 1.270 . S
C151 O144 1.262 . S
C151 O152 1.232 . S
O152 C151 1.232 . S
C153 O145 1.260 . S
C153 O146 1.257 . S
Zn154 O157 2.031 . S
Zn154 O159 2.049 . S
Zn154 O164 2.067 . S
Zn155 O156 1.962 . S
Zn155 O158 1.986 . S
Zn155 O160 1.996 . S
Zn155 O163 1.943 . S
O156 Zn155 1.962 . S
O156 C161 1.254 . S
O157 Zn154 2.031 . S
O157 C161 1.269 . S
O158 Zn155 1.986 . S
O158 C165 1.262 . S
O159 Zn154 2.049 . S
O159 C167 1.260 . S
O160 Zn155 1.996 . S
O160 C167 1.257 . S
C161 O156 1.254 . S
C161 O157 1.269 . S
C162 O163 1.249 . S
C162 O164 1.270 . S
O163 Zn155 1.943 . S
O163 C162 1.249 . S
O164 Zn154 2.067 . S
O164 C162 1.270 . S
C165 O158 1.262 . S
C165 O166 1.232 . S
O166 C165 1.232 . S
C167 O159 1.260 . S
C167 O160 1.257 . S
Zn168 O171 2.031 . S
Zn168 O173 2.049 1_554 S
Zn168 O178 2.067 . S
Zn169 O170 1.962 . S
Zn169 O172 1.986 1_554 S
Zn169 O174 1.996 1_554 S
Zn169 O177 1.943 . S
O170 Zn169 1.962 . S
O170 C175 1.254 . S
O171 Zn168 2.031 . S
O171 C175 1.269 . S
O172 Zn169 1.986 1_556 S
O172 C179 1.262 1_556 S
O173 Zn168 2.049 1_556 S
O173 C181 1.260 . S
O174 Zn169 1.996 1_556 S
O174 C181 1.257 . S
C175 O170 1.254 . S
C175 O171 1.269 . S
C176 O177 1.249 . S
C176 O178 1.270 . S
O177 Zn169 1.943 . S
O177 C176 1.249 . S
O178 Zn168 2.067 . S
O178 C176 1.270 . S
C179 O172 1.262 1_554 S
C179 O180 1.232 . S
O180 C179 1.232 . S
C181 O173 1.260 . S
C181 O174 1.257 . S
Zn182 O185 2.031 . S
Zn182 O187 2.049 . S
Zn182 O192 2.067 . S
Zn183 O184 1.962 . S
Zn183 O186 1.986 . S
Zn183 O188 1.996 . S
Zn183 O191 1.943 . S
O184 Zn183 1.962 . S
O184 C189 1.254 . S
O185 Zn182 2.031 . S
O185 C189 1.269 . S
O186 Zn183 1.986 . S
O186 C193 1.262 . S
O187 Zn182 2.049 . S
O187 C195 1.260 . S
O188 Zn183 1.996 . S
O188 C195 1.257 . S
C189 O184 1.254 . S
C189 O185 1.269 . S
C190 O191 1.249 . S
C190 O192 1.270 . S
O191 Zn183 1.943 . S
O191 C190 1.249 . S
O192 Zn182 2.067 . S
O192 C190 1.270 . S
C193 O186 1.262 . S
C193 O194 1.232 . S
O194 C193 1.232 . S
C195 O187 1.260 . S
C195 O188 1.257 . S
Zn196 O199 2.031 . S
Zn196 O201 2.049 . S
Zn196 O206 2.067 . S
Zn197 O198 1.962 . S
Zn197 O200 1.986 . S
Zn197 O202 1.996 . S
Zn197 O205 1.943 . S
O198 Zn197 1.962 . S
O198 C203 1.254 . S
O199 Zn196 2.031 . S
O199 C203 1.269 . S
O200 Zn197 1.986 . S
O200 C207 1.262 . S
O201 Zn196 2.049 . S
O201 C209 1.260 . S
O202 Zn197 1.996 . S
O202 C209 1.257 . S
C203 O198 1.254 . S
C203 O199 1.269 . S
C204 O205 1.249 . S
C204 O206 1.270 . S
O205 Zn197 1.943 . S
O205 C204 1.249 . S
O206 Zn196 2.067 . S
O206 C204 1.270 . S
C207 O200 1.262 . S
C207 O208 1.232 . S
O208 C207 1.232 . S
C209 O201 1.260 . S
C209 O202 1.257 . S
Zn210 O213 2.031 . S
Zn210 O215 2.049 . S
Zn210 O220 2.067 . S
Zn211 O212 1.962 . S
Zn211 O214 1.986 . S
Zn211 O216 1.996 . S
Zn211 O219 1.943 . S
O212 Zn211 1.962 . S
O212 C217 1.254 . S
O213 Zn210 2.031 . S
O213 C217 1.269 . S
O214 Zn211 1.986 . S
O214 C221 1.262 . S
O215 Zn210 2.049 . S
O215 C223 1.260 . S
O216 Zn211 1.996 . S
O216 C223 1.257 . S
C217 O212 1.254 . S
C217 O213 1.269 . S
C218 O219 1.249 . S
C218 O220 1.270 . S
O219 Zn211 1.943 . S
O219 C218 1.249 . S
O220 Zn210 2.067 . S
O220 C218 1.270 . S
C221 O214 1.262 . S
C221 O222 1.232 . S
O222 C221 1.232 . S
C223 O215 1.260 . S
C223 O216 1.257 . S
Zn224 O227 2.031 . S
Zn224 O229 2.049 . S
Zn224 O234 2.067 . S
Zn225 O226 1.962 . S
Zn225 O228 1.986 . S
Zn225 O230 1.996 . S
Zn225 O233 1.943 . S
O226 Zn225 1.962 . S
O226 C231 1.254 . S
O227 Zn224 2.031 . S
O227 C231 1.269 . S
O228 Zn225 1.986 . S
O228 C235 1.262 . S
O229 Zn224 2.049 . S
O229 C237 1.260 . S
O230 Zn225 1.996 . S
O230 C237 1.257 . S
C231 O226 1.254 . S
C231 O227 1.269 . S
C232 O233 1.249 . S
C232 O234 1.270 . S
O233 Zn225 1.943 . S
O233 C232 1.249 . S
O234 Zn224 2.067 . S
O234 C232 1.270 . S
C235 O228 1.262 . S
C235 O236 1.232 . S
O236 C235 1.232 . S
C237 O229 1.260 . S
C237 O230 1.257 . S
Zn238 O241 2.031 . S
Zn238 O243 2.049 . S
Zn238 O248 2.067 . S
Zn239 O240 1.962 . S
Zn239 O242 1.986 . S
Zn239 O244 1.996 . S
Zn239 O247 1.943 . S
O240 Zn239 1.962 . S
O240 C245 1.254 . S
O241 Zn238 2.031 . S
O241 C245 1.269 . S
O242 Zn239 1.986 . S
O242 C249 1.262 . S
O243 Zn238 2.049 . S
O243 C251 1.260 . S
O244 Zn239 1.996 . S
O244 C251 1.257 . S
C245 O240 1.254 . S
C245 O241 1.269 . S
C246 O247 1.249 . S
C246 O248 1.270 . S
O247 Zn239 1.943 . S
O247 C246 1.249 . S
O248 Zn238 2.067 . S
O248 C246 1.270 . S
C249 O242 1.262 . S
C249 O250 1.232 . S
O250 C249 1.232 . S
C251 O243 1.260 . S
C251 O244 1.257 . S
Zn252 O255 2.031 . S
Zn252 O257 2.049 1_554 S
Zn252 O262 2.067 . S
Zn253 O254 1.962 . S
Zn253 O256 1.986 1_554 S
Zn253 O258 1.996 1_554 S
Zn253 O261 1.943 . S
O254 Zn253 1.962 . S
O254 C259 1.254 . S
O255 Zn252 2.031 . S
O255 C259 1.269 . S
O256 Zn253 1.986 1_556 S
O256 C263 1.262 1_556 S
O257 Zn252 2.049 1_556 S
O257 C265 1.260 . S
O258 Zn253 1.996 1_556 S
O258 C265 1.257 . S
C259 O254 1.254 . S
C259 O255 1.269 . S
C260 O261 1.249 . S
C260 O262 1.270 . S
O261 Zn253 1.943 . S
O261 C260 1.249 . S
O262 Zn252 2.067 . S
O262 C260 1.270 . S
C263 O256 1.262 1_554 S
C263 O264 1.232 . S
O264 C263 1.232 . S
C265 O257 1.260 . S
C265 O258 1.257 . S
Zn266 O269 2.031 . S
Zn266 O271 2.049 . S
Zn266 O276 2.067 . S
Zn267 O268 1.962 . S
Zn267 O270 1.986 . S
Zn267 O272 1.996 . S
Zn267 O275 1.943 . S
O268 Zn267 1.962 . S
O268 C273 1.254 . S
O269 Zn266 2.031 . S
O269 C273 1.269 . S
O270 Zn267 1.986 . S
O270 C277 1.262 . S
O271 Zn266 2.049 . S
O271 C279 1.260 . S
O272 Zn267 1.996 . S
O272 C279 1.257 . S
C273 O268 1.254 . S
C273 O269 1.269 . S
C274 O275 1.249 . S
C274 O276 1.270 . S
O275 Zn267 1.943 . S
O275 C274 1.249 . S
O276 Zn266 2.067 . S
O276 C274 1.270 . S
C277 O270 1.262 . S
C277 O278 1.232 . S
O278 C277 1.232 . S
C279 O271 1.260 . S
C279 O272 1.257 . S
Zn280 O283 2.031 . S
Zn280 O285 2.049 . S
Zn280 O290 2.067 . S
Zn281 O282 1.962 . S
Zn281 O284 1.986 . S
Zn281 O286 1.996 . S
Zn281 O289 1.943 . S
O282 Zn281 1.962 . S
O282 C287 1.254 . S
O283 Zn280 2.031 . S
O283 C287 1.269 . S
O284 Zn281 1.986 . S
O284 C291 1.262 . S
O285 Zn280 2.049 . S
O285 C293 1.260 . S
O286 Zn281 1.996 . S
O286 C293 1.257 . S
C287 O282 1.254 . S
C287 O283 1.269 . S
C288 O289 1.249 . S
C288 O290 1.270 . S
O289 Zn281 1.943 . S
O289 C288 1.249 . S
O290 Zn280 2.067 . S
O290 C288 1.270 . S
C291 O284 1.262 . S
C291 O292 1.232 . S
O292 C291 1.232 . S
C293 O285 1.260 . S
C293 O286 1.257 . S
Zn294 O297 2.031 . S
Zn294 O299 2.049 . S
Zn294 O304 2.067 . S
Zn295 O296 1.962 . S
Zn295 O298 1.986 . S
Zn295 O300 1.996 . S
Zn295 O303 1.943 . S
O296 Zn295 1.962 . S
O296 C301 1.254 . S
O297 Zn294 2.031 . S
O297 C301 1.269 . S
O298 Zn295 1.986 . S
O298 C305 1.262 . S
O299 Zn294 2.049 . S
O299 C307 1.260 . S
O300 Zn295 1.996 . S
O300 C307 1.257 . S
C301 O296 1.254 . S
C301 O297 1.269 . S
C302 O303 1.249 . S
C302 O304 1.270 . S
O303 Zn295 1.943 . S
O303 C302 1.249 . S
O304 Zn294 2.067 . S
O304 C302 1.270 . S
C305 O298 1.262 . S
C305 O306 1.232 . S
O306 C305 1.232 . S
C307 O299 1.260 . S
C307 O300 1.257 . S
Zn308 O311 2.031 1_554 S
Zn308 O313 2.049 . S
Zn308 O318 2.067 . S
Zn309 O310 1.962 1_554 S
Zn309 O312 1.986 . S
Zn309 O314 1.996 . S
Zn309 O317 1.943 . S
O310 Zn309 1.962 1_556 S
O310 C315 1.254 . S
O311 Zn308 2.031 1_556 S
O311 C315 1.269 . S
O312 Zn309 1.986 . S
O312 C319 1.262 . S
O313 Zn308 2.049 . S
O313 C321 1.260 . S
O314 Zn309 1.996 . S
O314 C321 1.257 . S
C315 O310 1.254 . S
C315 O311 1.269 . S
C316 O317 1.249 . S
C316 O318 1.270 . S
O317 Zn309 1.943 . S
O317 C316 1.249 . S
O318 Zn308 2.067 . S
O318 C316 1.270 . S
C319 O312 1.262 . S
C319 O320 1.232 . S
O320 C319 1.232 . S
C321 O313 1.260 . S
C321 O314 1.257 . S
Zn322 O325 2.031 . S
Zn322 O327 2.049 . S
Zn322 O332 2.067 . S
Zn323 O324 1.962 . S
Zn323 O326 1.986 . S
Zn323 O328 1.996 . S
Zn323 O331 1.943 . S
O324 Zn323 1.962 . S
O324 C329 1.254 . S
O325 Zn322 2.031 . S
O325 C329 1.269 . S
O326 Zn323 1.986 . S
O326 C333 1.262 . S
O327 Zn322 2.049 . S
O327 C335 1.260 . S
O328 Zn323 1.996 . S
O328 C335 1.257 . S
C329 O324 1.254 . S
C329 O325 1.269 . S
C330 O331 1.249 . S
C330 O332 1.270 . S
O331 Zn323 1.943 . S
O331 C330 1.249 . S
O332 Zn322 2.067 . S
O332 C330 1.270 . S
C333 O326 1.262 . S
C333 O334 1.232 . S
O334 C333 1.232 . S
C335 O327 1.260 . S
C335 O328 1.257 . S
Zn336 O339 2.031 . S
Zn336 O341 2.049 . S
Zn336 O346 2.067 . S
Zn337 O338 1.962 . S
Zn337 O340 1.986 . S
Zn337 O342 1.996 . S
Zn337 O345 1.943 . S
O338 Zn337 1.962 . S
O338 C343 1.254 . S
O339 Zn336 2.031 . S
O339 C343 1.269 . S
O340 Zn337 1.986 . S
O340 C347 1.262 . S
O341 Zn336 2.049 . S
O341 C349 1.260 . S
O342 Zn337 1.996 . S
O342 C349 1.257 . S
C343 O338 1.254 . S
C343 O339 1.269 . S
C344 O345 1.249 . S
C344 O346 1.270 . S
O345 Zn337 1.943 . S
O345 C344 1.249 . S
O346 Zn336 2.067 . S
O346 C344 1.270 . S
C347 O340 1.262 . S
C347 O348 1.232 . S
O348 C347 1.232 . S
C349 O341 1.260 . S
C349 O342 1.257 . S
Zn350 O353 2.031 . S
Zn350 O355 2.049 . S
Zn350 O360 2.067 . S
Zn351 O352 1.962 . S
Zn351 O354 1.986 . S
Zn351 O356 1.996 . S
Zn351 O359 1.943 . S
O352 Zn351 1.962 . S
O352 C357 1.254 . S
O353 Zn350 2.031 . S
O353 C357 1.269 . S
O354 Zn351 1.986 . S
O354 C361 1.262 . S
O355 Zn350 2.049 . S
O355 C363 1.260 . S
O356 Zn351 1.996 . S
O356 C363 1.257 . S
C357 O352 1.254 . S
C357 O353 1.269 . S
C358 O359 1.249 . S
C358 O360 1.270 . S
O359 Zn351 1.943 . S
O359 C358 1.249 . S
O360 Zn350 2.067 . S
O360 C358 1.270 . S
C361 O354 1.262 . S
C361 O362 1.232 . S
O362 C361 1.232 . S
C363 O355 1.260 . S
C363 O356 1.257 . S
Zn364 O367 2.031 1_554 S
Zn364 O369 2.049 . S
Zn364 O374 2.067 . S
Zn365 O366 1.962 1_554 S
Zn365 O368 1.986 . S
Zn365 O370 1.996 . S
Zn365 O373 1.943 . S
O366 Zn365 1.962 1_556 S
O366 C371 1.254 . S
O367 Zn364 2.031 1_556 S
O367 C371 1.269 . S
O368 Zn365 1.986 . S
O368 C375 1.262 . S
O369 Zn364 2.049 . S
O369 C377 1.260 . S
O370 Zn365 1.996 . S
O370 C377 1.257 . S
C371 O366 1.254 . S
C371 O367 1.269 . S
C372 O373 1.249 . S
C372 O374 1.270 . S
O373 Zn365 1.943 . S
O373 C372 1.249 . S
O374 Zn364 2.067 . S
O374 C372 1.270 . S
C375 O368 1.262 . S
C375 O376 1.232 . S
O376 C375 1.232 . S
C377 O369 1.260 . S
C377 O370 1.257 . S
Zn378 O381 2.031 . S
Zn378 O383 2.049 . S
Zn378 O388 2.067 . S
Zn379 O380 1.962 . S
Zn379 O382 1.986 . S
Zn379 O384 1.996 . S
Zn379 O387 1.943 . S
O380 Zn379 1.962 . S
O380 C385 1.254 . S
O381 Zn378 2.031 . S
O381 C385 1.269 . S
O382 Zn379 1.986 . S
O382 C389 1.262 . S
O383 Zn378 2.049 . S
O383 C391 1.260 . S
O384 Zn379 1.996 . S
O384 C391 1.257 . S
C385 O380 1.254 . S
C385 O381 1.269 . S
C386 O387 1.249 . S
C386 O388 1.270 . S
O387 Zn379 1.943 . S
O387 C386 1.249 . S
O388 Zn378 2.067 . S
O388 C386 1.270 . S
C389 O382 1.262 . S
C389 O390 1.232 . S
O390 C389 1.232 . S
C391 O383 1.260 . S
C391 O384 1.257 . S
Zn392 O395 2.031 . S
Zn392 O397 2.049 . S
Zn392 O402 2.067 . S
Zn393 O394 1.962 . S
Zn393 O396 1.986 . S
Zn393 O398 1.996 . S
Zn393 O401 1.943 . S
O394 Zn393 1.962 . S
O394 C399 1.254 . S
O395 Zn392 2.031 . S
O395 C399 1.269 . S
O396 Zn393 1.986 . S
O396 C403 1.262 . S
O397 Zn392 2.049 . S
O397 C405 1.260 . S
O398 Zn393 1.996 . S
O398 C405 1.257 . S
C399 O394 1.254 . S
C399 O395 1.269 . S
C400 O401 1.249 . S
C400 O402 1.270 . S
O401 Zn393 1.943 . S
O401 C400 1.249 . S
O402 Zn392 2.067 . S
O402 C400 1.270 . S
C403 O396 1.262 . S
C403 O404 1.232 . S
O404 C403 1.232 . S
C405 O397 1.260 . S
C405 O398 1.257 . S
Zn406 O409 2.031 . S
Zn406 O411 2.049 . S
Zn406 O416 2.067 . S
Zn407 O408 1.962 . S
Zn407 O410 1.986 . S
Zn407 O412 1.996 . S
Zn407 O415 1.943 . S
O408 Zn407 1.962 . S
O408 C413 1.254 . S
O409 Zn406 2.031 . S
O409 C413 1.269 . S
O410 Zn407 1.986 . S
O410 C417 1.262 . S
O411 Zn406 2.049 . S
O411 C419 1.260 . S
O412 Zn407 1.996 . S
O412 C419 1.257 . S
C413 O408 1.254 . S
C413 O409 1.269 . S
C414 O415 1.249 . S
C414 O416 1.270 . S
O415 Zn407 1.943 . S
O415 C414 1.249 . S
O416 Zn406 2.067 . S
O416 C414 1.270 . S
C417 O410 1.262 . S
C417 O418 1.232 . S
O418 C417 1.232 . S
C419 O411 1.260 . S
C419 O412 1.257 . S
Zn420 O423 2.031 . S
Zn420 O425 2.049 1_554 S
Zn420 O430 2.067 . S
Zn421 O422 1.962 . S
Zn421 O424 1.986 1_554 S
Zn421 O426 1.996 1_554 S
Zn421 O429 1.943 . S
O422 Zn421 1.962 . S
O422 C427 1.254 . S
O423 Zn420 2.031 . S
O423 C427 1.269 . S
O424 Zn421 1.986 1_556 S
O424 C431 1.262 1_556 S
O425 Zn420 2.049 1_556 S
O425 C433 1.260 . S
O426 Zn421 1.996 1_556 S
O426 C433 1.257 . S
C427 O422 1.254 . S
C427 O423 1.269 . S
C428 O429 1.249 . S
C428 O430 1.270 . S
O429 Zn421 1.943 . S
O429 C428 1.249 . S
O430 Zn420 2.067 . S
O430 C428 1.270 . S
C431 O424 1.262 1_554 S
C431 O432 1.232 . S
O432 C431 1.232 . S
C433 O425 1.260 . S
C433 O426 1.257 . S
Zn434 O437 2.031 . S
Zn434 O439 2.049 . S
Zn434 O444 2.067 . S
Zn435 O436 1.962 . S
Zn435 O438 1.986 . S
Zn435 O440 1.996 . S
Zn435 O443 1.943 . S
O436 Zn435 1.962 . S
O436 C441 1.254 . S
O437 Zn434 2.031 . S
O437 C441 1.269 . S
O438 Zn435 1.986 . S
O438 C445 1.262 . S
O439 Zn434 2.049 . S
O439 C447 1.260 . S
O440 Zn435 1.996 . S
O440 C447 1.257 . S
C441 O436 1.254 . S
C441 O437 1.269 . S
C442 O443 1.249 . S
C442 O444 1.270 . S
O443 Zn435 1.943 . S
O443 C442 1.249 . S
O444 Zn434 2.067 . S
O444 C442 1.270 . S
C445 O438 1.262 . S
C445 O446 1.232 . S
O446 C445 1.232 . S
C447 O439 1.260 . S
C447 O440 1.257 . S
C448 C449 1.387 . S
C448 H452 0.950 . S
C448 C457 1.390 . S
C449 C448 1.387 . S
C449 C451 1.387 . S
H450 C457 0.950 . S
C451 C449 1.387 . S
C451 C453 1.390 . S
C451 H455 0.950 . S
H452 C448 0.950 . S
C453 C451 1.390 . S
C453 C454 1.387 . S
C453 H456 0.950 1_556 S
C454 C453 1.387 . S
C454 C457 1.387 . S
H455 C451 0.950 . S
H456 C453 0.950 1_554 S
C457 C448 1.390 . S
C457 H450 0.950 . S
C457 C454 1.387 . S
C458 C459 1.387 . S
C458 H462 0.950 . S
C458 C467 1.390 . S
C459 C458 1.387 . S
C459 C461 1.387 . S
H460 C467 0.950 . S
C461 C459 1.387 . S
C461 C463 1.390 . S
C461 H465 0.950 . S
H462 C458 0.950 . S
C463 C461 1.390 . S
C463 C464 1.387 . S
C463 H466 0.950 . S
C464 C463 1.387 . S
C464 C467 1.387 . S
H465 C461 0.950 . S
H466 C463 0.950 . S
C467 C458 1.390 . S
C467 H460 0.950 . S
C467 C464 1.387 . S
C468 C469 1.387 . S
C468 H472 0.950 . S
C468 C477 1.390 . S
C469 C468 1.387 . S
C469 C471 1.387 . S
H470 C477 0.950 . S
C471 C469 1.387 . S
C471 C473 1.390 . S
C471 H475 0.950 . S
H472 C468 0.950 . S
C473 C471 1.390 . S
C473 C474 1.387 . S
C473 H476 0.950 . S
C474 C473 1.387 . S
C474 C477 1.387 . S
H475 C471 0.950 . S
H476 C473 0.950 . S
C477 C468 1.390 . S
C477 H470 0.950 . S
C477 C474 1.387 . S
C478 C479 1.387 . S
C478 H482 0.950 . S
C478 C487 1.390 . S
C479 C478 1.387 . S
C479 C481 1.387 . S
H480 C487 0.950 . S
C481 C479 1.387 . S
C481 C483 1.390 . S
C481 H485 0.950 . S
H482 C478 0.950 . S
C483 C481 1.390 . S
C483 C484 1.387 . S
C483 H486 0.950 . S
C484 C483 1.387 . S
C484 C487 1.387 . S
H485 C481 0.950 . S
H486 C483 0.950 . S
C487 C478 1.390 . S
C487 H480 0.950 . S
C487 C484 1.387 . S
C488 C489 1.387 . S
C488 H492 0.950 . S
C488 C497 1.390 . S
C489 C488 1.387 . S
C489 C491 1.387 . S
H490 C497 0.950 . S
C491 C489 1.387 . S
C491 C493 1.390 . S
C491 H495 0.950 . S
H492 C488 0.950 . S
C493 C491 1.390 . S
C493 C494 1.387 . S
C493 H496 0.950 . S
C494 C493 1.387 . S
C494 C497 1.387 . S
H495 C491 0.950 . S
H496 C493 0.950 . S
C497 C488 1.390 . S
C497 H490 0.950 . S
C497 C494 1.387 . S
C498 C499 1.387 . S
C498 H502 0.950 . S
C498 C507 1.390 . S
C499 C498 1.387 . S
C499 C501 1.387 . S
H500 C507 0.950 1_554 S
C501 C499 1.387 . S
C501 C503 1.390 . S
C501 H505 0.950 . S
H502 C498 0.950 . S
C503 C501 1.390 . S
C503 C504 1.387 . S
C503 H506 0.950 . S
C504 C503 1.387 . S
C504 C507 1.387 . S
H505 C501 0.950 . S
H506 C503 0.950 . S
C507 C498 1.390 . S
C507 H500 0.950 1_556 S
C507 C504 1.387 . S
C508 C509 1.387 . S
C508 H512 0.950 . S
C508 C517 1.390 . S
C509 C508 1.387 . S
C509 C511 1.387 . S
H510 C517 0.950 . S
C511 C509 1.387 . S
C511 C513 1.390 . S
C511 H515 0.950 . S
H512 C508 0.950 . S
C513 C511 1.390 . S
C513 C514 1.387 . S
C513 H516 0.950 . S
C514 C513 1.387 . S
C514 C517 1.387 . S
H515 C511 0.950 . S
H516 C513 0.950 . S
C517 C508 1.390 . S
C517 H510 0.950 . S
C517 C514 1.387 . S
C518 C519 1.387 . S
C518 H522 0.950 . S
C518 C527 1.390 . S
C519 C518 1.387 . S
C519 C521 1.387 . S
H520 C527 0.950 . S
C521 C519 1.387 . S
C521 C523 1.390 . S
C521 H525 0.950 . S
H522 C518 0.950 . S
C523 C521 1.390 . S
C523 C524 1.387 . S
C523 H526 0.950 . S
C524 C523 1.387 . S
C524 C527 1.387 . S
H525 C521 0.950 . S
H526 C523 0.950 . S
C527 C518 1.390 . S
C527 H520 0.950 . S
C527 C524 1.387 . S
C528 C529 1.387 . S
C528 H532 0.950 . S
C528 C537 1.390 . S
C529 C528 1.387 . S
C529 C531 1.387 . S
H530 C537 0.950 . S
C531 C529 1.387 . S
C531 C533 1.390 . S
C531 H535 0.950 . S
H532 C528 0.950 . S
C533 C531 1.390 . S
C533 C534 1.387 . S
C533 H536 0.950 . S
C534 C533 1.387 . S
C534 C537 1.387 . S
H535 C531 0.950 . S
H536 C533 0.950 . S
C537 C528 1.390 . S
C537 H530 0.950 . S
C537 C534 1.387 . S
C538 C539 1.387 . S
C538 H542 0.950 . S
C538 C547 1.390 . S
C539 C538 1.387 . S
C539 C541 1.387 . S
H540 C547 0.950 . S
C541 C539 1.387 . S
C541 C543 1.390 . S
C541 H545 0.950 . S
H542 C538 0.950 . S
C543 C541 1.390 . S
C543 C544 1.387 . S
C543 H546 0.950 . S
C544 C543 1.387 . S
C544 C547 1.387 . S
H545 C541 0.950 . S
H546 C543 0.950 . S
C547 C538 1.390 . S
C547 H540 0.950 . S
C547 C544 1.387 . S
C548 C549 1.387 . S
C548 H552 0.950 . S
C548 C557 1.390 . S
C549 C548 1.387 . S
C549 C551 1.387 . S
H550 C557 0.950 1_554 S
C551 C549 1.387 . S
C551 C553 1.390 . S
C551 H555 0.950 . S
H552 C548 0.950 . S
C553 C551 1.390 . S
C553 C554 1.387 . S
C553 H556 0.950 . S
C554 C553 1.387 . S
C554 C557 1.387 . S
H555 C551 0.950 . S
H556 C553 0.950 . S
C557 C548 1.390 . S
C557 H550 0.950 1_556 S
C557 C554 1.387 . S
C558 C559 1.387 . S
C558 H562 0.950 . S
C558 C567 1.390 . S
C559 C558 1.387 . S
C559 C561 1.387 . S
H560 C567 0.950 . S
C561 C559 1.387 . S
C561 C563 1.390 . S
C561 H565 0.950 . S
H562 C558 0.950 . S
C563 C561 1.390 . S
C563 C564 1.387 . S
C563 H566 0.950 . S
C564 C563 1.387 . S
C564 C567 1.387 . S
H565 C561 0.950 . S
H566 C563 0.950 . S
C567 C558 1.390 . S
C567 H560 0.950 . S
C567 C564 1.387 . S
C568 C569 1.387 . S
C568 H572 0.950 . S
C568 C577 1.390 . S
C569 C568 1.387 . S
C569 C571 1.387 . S
H570 C577 0.950 . S
C571 C569 1.387 . S
C571 C573 1.390 . S
C571 H575 0.950 . S
H572 C568 0.950 . S
C573 C571 1.390 . S
C573 C574 1.387 . S
C573 H576 0.950 . S
C574 C573 1.387 . S
C574 C577 1.387 . S
H575 C571 0.950 . S
H576 C573 0.950 . S
C577 C568 1.390 . S
C577 H570 0.950 . S
C577 C574 1.387 . S
C578 C579 1.387 . S
C578 H582 0.950 . S
C578 C587 1.390 . S
C579 C578 1.387 . S
C579 C581 1.387 . S
H580 C587 0.950 . S
C581 C579 1.387 . S
C581 C583 1.390 . S
C581 H585 0.950 . S
H582 C578 0.950 . S
C583 C581 1.390 . S
C583 C584 1.387 . S
C583 H586 0.950 . S
C584 C583 1.387 . S
C584 C587 1.387 . S
H585 C581 0.950 . S
H586 C583 0.950 . S
C587 C578 1.390 . S
C587 H580 0.950 . S
C587 C584 1.387 . S
C588 C589 1.387 . S
C588 H592 0.950 . S
C588 C597 1.390 . S
C589 C588 1.387 . S
C589 C591 1.387 . S
H590 C597 0.950 . S
C591 C589 1.387 . S
C591 C593 1.390 . S
C591 H595 0.950 . S
H592 C588 0.950 . S
C593 C591 1.390 . S
C593 C594 1.387 . S
C593 H596 0.950 . S
C594 C593 1.387 . S
C594 C597 1.387 . S
H595 C591 0.950 . S
H596 C593 0.950 . S
C597 C588 1.390 . S
C597 H590 0.950 . S
C597 C594 1.387 . S
C598 C599 1.387 . S
C598 H602 0.950 . S
C598 C607 1.390 . S
C599 C598 1.387 . S
C599 C601 1.387 . S
H600 C607 0.950 . S
C601 C599 1.387 . S
C601 C603 1.390 . S
C601 H605 0.950 . S
H602 C598 0.950 . S
C603 C601 1.390 . S
C603 C604 1.387 . S
C603 H606 0.950 . S
C604 C603 1.387 . S
C604 C607 1.387 . S
H605 C601 0.950 . S
H606 C603 0.950 . S
C607 C598 1.390 . S
C607 H600 0.950 . S
C607 C604 1.387 . S
C608 C609 1.387 . S
C608 H612 0.950 . S
C608 C617 1.390 . S
C609 C608 1.387 . S
C609 C611 1.387 . S
H610 C617 0.950 . S
C611 C609 1.387 . S
C611 C613 1.390 . S
C611 H615 0.950 . S
H612 C608 0.950 . S
C613 C611 1.390 . S
C613 C614 1.387 . S
C613 H616 0.950 . S
C614 C613 1.387 . S
C614 C617 1.387 . S
H615 C611 0.950 . S
H616 C613 0.950 . S
C617 C608 1.390 . S
C617 H610 0.950 . S
C617 C614 1.387 . S
C618 C619 1.387 . S
C618 H622 0.950 . S
C618 C627 1.390 1_565 S
C619 C618 1.387 . S
C619 C621 1.387 . S
H620 C627 0.950 1_556 S
C621 C619 1.387 . S
C621 C623 1.390 1_565 S
C621 H625 0.950 . S
H622 C618 0.950 . S
C623 C621 1.390 1_545 S
C623 C624 1.387 1_554 S
C623 H626 0.950 1_554 S
C624 C623 1.387 1_556 S
C624 C627 1.387 1_556 S
H625 C621 0.950 . S
H626 C623 0.950 1_556 S
C627 C618 1.390 1_545 S
C627 H620 0.950 1_554 S
C627 C624 1.387 1_554 S
C628 C629 1.387 . S
C628 H632 0.950 . S
C628 C637 1.390 . S
C629 C628 1.387 . S
C629 C631 1.387 . S
H630 C637 0.950 . S
C631 C629 1.387 . S
C631 C633 1.390 . S
C631 H635 0.950 . S
H632 C628 0.950 . S
C633 C631 1.390 . S
C633 C634 1.387 . S
C633 H636 0.950 . S
C634 C633 1.387 . S
C634 C637 1.387 . S
H635 C631 0.950 . S
H636 C633 0.950 . S
C637 C628 1.390 . S
C637 H630 0.950 . S
C637 C634 1.387 . S
C638 C639 1.387 . S
C638 H642 0.950 . S
C638 C647 1.390 1_545 S
C639 C638 1.387 . S
C639 C641 1.387 . S
H640 C647 0.950 . S
C641 C639 1.387 . S
C641 C643 1.390 1_545 S
C641 H645 0.950 . S
H642 C638 0.950 . S
C643 C641 1.390 1_565 S
C643 C644 1.387 . S
C643 H646 0.950 . S
C644 C643 1.387 . S
C644 C647 1.387 . S
H645 C641 0.950 . S
H646 C643 0.950 . S
C647 C638 1.390 1_565 S
C647 H640 0.950 . S
C647 C644 1.387 . S
C648 C649 1.387 . S
C648 H652 0.950 . S
C648 C657 1.390 . S
C649 C648 1.387 . S
C649 C651 1.387 . S
H650 C657 0.950 . S
C651 C649 1.387 . S
C651 C653 1.390 . S
C651 H655 0.950 . S
H652 C648 0.950 . S
C653 C651 1.390 . S
C653 C654 1.387 . S
C653 H656 0.950 . S
C654 C653 1.387 . S
C654 C657 1.387 . S
H655 C651 0.950 . S
H656 C653 0.950 . S
C657 C648 1.390 . S
C657 H650 0.950 . S
C657 C654 1.387 . S
C658 C659 1.387 1_554 S
C658 H662 0.950 1_554 S
C658 C667 1.390 1_545 S
C659 C658 1.387 1_556 S
C659 C661 1.387 1_556 S
H660 C667 0.950 . S
C661 C659 1.387 1_554 S
C661 C663 1.390 1_545 S
C661 H665 0.950 1_554 S
H662 C658 0.950 1_556 S
C663 C661 1.390 1_565 S
C663 C664 1.387 . S
C663 H666 0.950 . S
C664 C663 1.387 . S
C664 C667 1.387 . S
H665 C661 0.950 1_556 S
H666 C663 0.950 . S
C667 C658 1.390 1_565 S
C667 H660 0.950 . S
C667 C664 1.387 . S
C668 C669 1.387 . S
C668 H672 0.950 . S
C668 C677 1.390 . S
C669 C668 1.387 . S
C669 C671 1.387 . S
H670 C677 0.950 . S
C671 C669 1.387 . S
C671 C673 1.390 . S
C671 H675 0.950 . S
H672 C668 0.950 . S
C673 C671 1.390 . S
C673 C674 1.387 . S
C673 H676 0.950 . S
C674 C673 1.387 . S
C674 C677 1.387 . S
H675 C671 0.950 . S
H676 C673 0.950 . S
C677 C668 1.390 . S
C677 H670 0.950 . S
C677 C674 1.387 . S
C678 C679 1.387 . S
C678 H682 0.950 . S
C678 C687 1.390 1_545 S
C679 C678 1.387 . S
C679 C681 1.387 . S
H680 C687 0.950 . S
C681 C679 1.387 . S
C681 C683 1.390 1_545 S
C681 H685 0.950 . S
H682 C678 0.950 . S
C683 C681 1.390 1_565 S
C683 C684 1.387 . S
C683 H686 0.950 . S
C684 C683 1.387 . S
C684 C687 1.387 . S
H685 C681 0.950 . S
H686 C683 0.950 . S
C687 C678 1.390 1_565 S
C687 H680 0.950 . S
C687 C684 1.387 . S
C688 C689 1.387 . S
C688 H692 0.950 . S
C688 C697 1.390 . S
C689 C688 1.387 . S
C689 C691 1.387 . S
H690 C697 0.950 . S
C691 C689 1.387 . S
C691 C693 1.390 . S
C691 H695 0.950 . S
H692 C688 0.950 . S
C693 C691 1.390 . S
C693 C694 1.387 . S
C693 H696 0.950 . S
C694 C693 1.387 . S
C694 C697 1.387 . S
H695 C691 0.950 . S
H696 C693 0.950 . S
C697 C688 1.390 . S
C697 H690 0.950 . S
C697 C694 1.387 . S
C698 C699 1.387 . S
C698 H702 0.950 . S
C698 C707 1.390 . S
C699 C698 1.387 . S
C699 C701 1.387 . S
H700 C707 0.950 . S
C701 C699 1.387 . S
C701 C703 1.390 . S
C701 H705 0.950 . S
H702 C698 0.950 . S
C703 C701 1.390 . S
C703 C704 1.387 . S
C703 H706 0.950 . S
C704 C703 1.387 . S
C704 C707 1.387 . S
H705 C701 0.950 . S
H706 C703 0.950 . S
C707 C698 1.390 . S
C707 H700 0.950 . S
C707 C704 1.387 . S
C708 C709 1.387 . S
C708 H712 0.950 . S
C708 C717 1.390 . S
C709 C708 1.387 . S
C709 C711 1.387 . S
H710 C717 0.950 . S
C711 C709 1.387 . S
C711 C713 1.390 . S
C711 H715 0.950 . S
H712 C708 0.950 . S
C713 C711 1.390 . S
C713 C714 1.387 . S
C713 H716 0.950 . S
C714 C713 1.387 . S
C714 C717 1.387 . S
H715 C711 0.950 . S
H716 C713 0.950 . S
C717 C708 1.390 . S
C717 H710 0.950 . S
C717 C714 1.387 . S
C718 C719 1.387 . S
C718 H722 0.950 . S
C718 C727 1.390 . S
C719 C718 1.387 . S
C719 C721 1.387 . S
H720 C727 0.950 1_556 S
C721 C719 1.387 . S
C721 C723 1.390 . S
C721 H725 0.950 . S
H722 C718 0.950 . S
C723 C721 1.390 . S
C723 C724 1.387 1_554 S
C723 H726 0.950 1_554 S
C724 C723 1.387 1_556 S
C724 C727 1.387 1_556 S
H725 C721 0.950 . S
H726 C723 0.950 1_556 S
C727 C718 1.390 . S
C727 H720 0.950 1_554 S
C727 C724 1.387 1_554 S
C728 C729 1.387 . S
C728 H732 0.950 . S
C728 C737 1.390 . S
C729 C728 1.387 . S
C729 C731 1.387 . S
H730 C737 0.950 . S
C731 C729 1.387 . S
C731 C733 1.390 . S
C731 H735 0.950 . S
H732 C728 0.950 . S
C733 C731 1.390 . S
C733 C734 1.387 . S
C733 H736 0.950 . S
C734 C733 1.387 . S
C734 C737 1.387 . S
H735 C731 0.950 . S
H736 C733 0.950 . S
C737 C728 1.390 . S
C737 H730 0.950 . S
C737 C734 1.387 . S
C738 C739 1.387 . S
C738 H742 0.950 . S
C738 C747 1.390 . S
C739 C738 1.387 . S
C739 C741 1.387 . S
H740 C747 0.950 . S
C741 C739 1.387 . S
C741 C743 1.390 . S
C741 H745 0.950 . S
H742 C738 0.950 . S
C743 C741 1.390 . S
C743 C744 1.387 . S
C743 H746 0.950 . S
C744 C743 1.387 . S
C744 C747 1.387 . S
H745 C741 0.950 . S
H746 C743 0.950 . S
C747 C738 1.390 . S
C747 H740 0.950 . S
C747 C744 1.387 . S
C748 C749 1.387 . S
C748 H752 0.950 . S
C748 C757 1.390 . S
C749 C748 1.387 . S
C749 C751 1.387 . S
H750 C757 0.950 . S
C751 C749 1.387 . S
C751 C753 1.390 . S
C751 H755 0.950 . S
H752 C748 0.950 . S
C753 C751 1.390 . S
C753 C754 1.387 . S
C753 H756 0.950 . S
C754 C753 1.387 . S
C754 C757 1.387 . S
H755 C751 0.950 . S
H756 C753 0.950 . S
C757 C748 1.390 . S
C757 H750 0.950 . S
C757 C754 1.387 . S
C758 C759 1.387 . S
C758 H762 0.950 . S
C758 C767 1.390 . S
C759 C758 1.387 . S
C759 C761 1.387 . S
H760 C767 0.950 1_556 S
C761 C759 1.387 . S
C761 C763 1.390 . S
C761 H765 0.950 . S
H762 C758 0.950 . S
C763 C761 1.390 . S
C763 C764 1.387 1_554 S
C763 H766 0.950 1_554 S
C764 C763 1.387 1_556 S
C764 C767 1.387 1_556 S
H765 C761 0.950 . S
H766 C763 0.950 1_556 S
C767 C758 1.390 . S
C767 H760 0.950 1_554 S
C767 C764 1.387 1_554 S
C768 C769 1.387 1_556 S
C768 H772 0.950 . S
C768 C777 1.390 . S
C769 C768 1.387 1_554 S
C769 C771 1.387 . S
H770 C777 0.950 . S
C771 C769 1.387 . S
C771 C773 1.390 . S
C771 H775 0.950 . S
H772 C768 0.950 . S
C773 C771 1.390 . S
C773 C774 1.387 . S
C773 H776 0.950 . S
C774 C773 1.387 . S
C774 C777 1.387 1_554 S
H775 C771 0.950 . S
H776 C773 0.950 . S
C777 C768 1.390 . S
C777 H770 0.950 . S
C777 C774 1.387 1_556 S
C778 C779 1.387 . S
C778 H782 0.950 . S
C778 C787 1.390 1_455 S
C779 C778 1.387 . S
C779 C781 1.387 . S
H780 C787 0.950 . S
C781 C779 1.387 . S
C781 C783 1.390 1_455 S
C781 H785 0.950 . S
H782 C778 0.950 . S
C783 C781 1.390 1_655 S
C783 C784 1.387 . S
C783 H786 0.950 . S
C784 C783 1.387 . S
C784 C787 1.387 . S
H785 C781 0.950 . S
H786 C783 0.950 . S
C787 C778 1.390 1_655 S
C787 H780 0.950 . S
C787 C784 1.387 . S
C788 C789 1.387 . S
C788 H792 0.950 . S
C788 C797 1.390 . S
C789 C788 1.387 . S
C789 C791 1.387 . S
H790 C797 0.950 . S
C791 C789 1.387 . S
C791 C793 1.390 . S
C791 H795 0.950 . S
H792 C788 0.950 . S
C793 C791 1.390 . S
C793 C794 1.387 . S
C793 H796 0.950 . S
C794 C793 1.387 . S
C794 C797 1.387 . S
H795 C791 0.950 . S
H796 C793 0.950 . S
C797 C788 1.390 . S
C797 H790 0.950 . S
C797 C794 1.387 . S
C798 C799 1.387 . S
C798 H802 0.950 . S
C798 C807 1.390 . S
C799 C798 1.387 . S
C799 C801 1.387 . S
H800 C807 0.950 . S
C801 C799 1.387 . S
C801 C803 1.390 . S
C801 H805 0.950 . S
H802 C798 0.950 . S
C803 C801 1.390 . S
C803 C804 1.387 . S
C803 H806 0.950 . S
C804 C803 1.387 . S
C804 C807 1.387 . S
H805 C801 0.950 . S
H806 C803 0.950 . S
C807 C798 1.390 . S
C807 H800 0.950 . S
C807 C804 1.387 . S
C808 C809 1.387 . S
C808 H812 0.950 . S
C808 C817 1.390 . S
C809 C808 1.387 . S
C809 C811 1.387 1_554 S
H810 C817 0.950 . S
C811 C809 1.387 1_556 S
C811 C813 1.390 . S
C811 H815 0.950 . S
H812 C808 0.950 . S
C813 C811 1.390 . S
C813 C814 1.387 1_556 S
C813 H816 0.950 . S
C814 C813 1.387 1_554 S
C814 C817 1.387 . S
H815 C811 0.950 . S
H816 C813 0.950 . S
C817 C808 1.390 . S
C817 H810 0.950 . S
C817 C814 1.387 . S
C818 C819 1.387 . S
C818 H822 0.950 . S
C818 C827 1.390 . S
C819 C818 1.387 . S
C819 C821 1.387 . S
H820 C827 0.950 . S
C821 C819 1.387 . S
C821 C823 1.390 . S
C821 H825 0.950 . S
H822 C818 0.950 . S
C823 C821 1.390 . S
C823 C824 1.387 . S
C823 H826 0.950 . S
C824 C823 1.387 . S
C824 C827 1.387 . S
H825 C821 0.950 . S
H826 C823 0.950 . S
C827 C818 1.390 . S
C827 H820 0.950 . S
C827 C824 1.387 . S
C828 C829 1.387 . S
C828 H832 0.950 . S
C828 C837 1.390 . S
C829 C828 1.387 . S
C829 C831 1.387 . S
H830 C837 0.950 . S
C831 C829 1.387 . S
C831 C833 1.390 . S
C831 H835 0.950 . S
H832 C828 0.950 . S
C833 C831 1.390 . S
C833 C834 1.387 . S
C833 H836 0.950 . S
C834 C833 1.387 . S
C834 C837 1.387 . S
H835 C831 0.950 . S
H836 C833 0.950 . S
C837 C828 1.390 . S
C837 H830 0.950 . S
C837 C834 1.387 . S
C838 C839 1.387 . S
C838 H842 0.950 . S
C838 C847 1.390 1_655 S
C839 C838 1.387 . S
C839 C841 1.387 . S
H840 C847 0.950 . S
C841 C839 1.387 . S
C841 C843 1.390 1_655 S
C841 H845 0.950 . S
H842 C838 0.950 . S
C843 C841 1.390 1_455 S
C843 C844 1.387 . S
C843 H846 0.950 . S
C844 C843 1.387 . S
C844 C847 1.387 . S
H845 C841 0.950 . S
H846 C843 0.950 . S
C847 C838 1.390 1_455 S
C847 H840 0.950 . S
C847 C844 1.387 . S
C848 C849 1.387 . S
C848 H852 0.950 . S
C848 C857 1.390 . S
C849 C848 1.387 . S
C849 C851 1.387 . S
H850 C857 0.950 . S
C851 C849 1.387 . S
C851 C853 1.390 . S
C851 H855 0.950 . S
H852 C848 0.950 . S
C853 C851 1.390 . S
C853 C854 1.387 . S
C853 H856 0.950 . S
C854 C853 1.387 . S
C854 C857 1.387 . S
H855 C851 0.950 . S
H856 C853 0.950 . S
C857 C848 1.390 . S
C857 H850 0.950 . S
C857 C854 1.387 . S
C858 C859 1.387 . S
C858 H862 0.950 . S
C858 C867 1.390 . S
C859 C858 1.387 . S
C859 C861 1.387 . S
H860 C867 0.950 . S
C861 C859 1.387 . S
C861 C863 1.390 . S
C861 H865 0.950 . S
H862 C858 0.950 . S
C863 C861 1.390 . S
C863 C864 1.387 . S
C863 H866 0.950 . S
C864 C863 1.387 . S
C864 C867 1.387 . S
H865 C861 0.950 . S
H866 C863 0.950 . S
C867 C858 1.390 . S
C867 H860 0.950 . S
C867 C864 1.387 . S
C868 C869 1.387 . S
C868 H872 0.950 1_554 S
C868 C877 1.390 . S
C869 C868 1.387 . S
C869 C871 1.387 . S
H870 C877 0.950 1_556 S
C871 C869 1.387 . S
C871 C873 1.390 . S
C871 H875 0.950 . S
H872 C868 0.950 1_556 S
C873 C871 1.390 . S
C873 C874 1.387 . S
C873 H876 0.950 . S
C874 C873 1.387 . S
C874 C877 1.387 . S
H875 C871 0.950 . S
H876 C873 0.950 . S
C877 C868 1.390 . S
C877 H870 0.950 1_554 S
C877 C874 1.387 . S
C878 C879 1.387 . S
C878 H882 0.950 . S
C878 C887 1.390 . S
C879 C878 1.387 . S
C879 C881 1.387 . S
H880 C887 0.950 . S
C881 C879 1.387 . S
C881 C883 1.390 . S
C881 H885 0.950 . S
H882 C878 0.950 . S
C883 C881 1.390 . S
C883 C884 1.387 . S
C883 H886 0.950 . S
C884 C883 1.387 . S
C884 C887 1.387 . S
H885 C881 0.950 . S
H886 C883 0.950 . S
C887 C878 1.390 . S
C887 H880 0.950 . S
C887 C884 1.387 . S
C888 C889 1.387 . S
C888 H892 0.950 . S
C888 C897 1.390 . S
C889 C888 1.387 . S
C889 C891 1.387 . S
H890 C897 0.950 . S
C891 C889 1.387 . S
C891 C893 1.390 . S
C891 H895 0.950 . S
H892 C888 0.950 . S
C893 C891 1.390 . S
C893 C894 1.387 . S
C893 H896 0.950 . S
C894 C893 1.387 . S
C894 C897 1.387 . S
H895 C891 0.950 . S
H896 C893 0.950 . S
C897 C888 1.390 . S
C897 H890 0.950 . S
C897 C894 1.387 . S
C898 C899 1.387 . S
C898 H902 0.950 . S
C898 C907 1.390 1_655 S
C899 C898 1.387 . S
C899 C901 1.387 . S
H900 C907 0.950 . S
C901 C899 1.387 . S
C901 C903 1.390 1_655 S
C901 H905 0.950 . S
H902 C898 0.950 . S
C903 C901 1.390 1_455 S
C903 C904 1.387 . S
C903 H906 0.950 . S
C904 C903 1.387 . S
C904 C907 1.387 . S
H905 C901 0.950 . S
H906 C903 0.950 . S
C907 C898 1.390 1_455 S
C907 H900 0.950 . S
C907 C904 1.387 . S
C908 C909 1.387 . S
C908 H912 0.950 . S
C908 C917 1.390 1_655 S
C909 C908 1.387 . S
C909 C911 1.387 . S
H910 C917 0.950 . S
C911 C909 1.387 . S
C911 C913 1.390 1_655 S
C911 H915 0.950 . S
H912 C908 0.950 . S
C913 C911 1.390 1_455 S
C913 C914 1.387 . S
C913 H916 0.950 . S
C914 C913 1.387 . S
C914 C917 1.387 . S
H915 C911 0.950 . S
H916 C913 0.950 . S
C917 C908 1.390 1_455 S
C917 H910 0.950 . S
C917 C914 1.387 . S
C918 C919 1.387 . S
C918 H922 0.950 . S
C918 C927 1.390 . S
C919 C918 1.387 . S
C919 C921 1.387 . S
H920 C927 0.950 . S
C921 C919 1.387 . S
C921 C923 1.390 . S
C921 H925 0.950 . S
H922 C918 0.950 . S
C923 C921 1.390 . S
C923 C924 1.387 . S
C923 H926 0.950 . S
C924 C923 1.387 . S
C924 C927 1.387 . S
H925 C921 0.950 . S
H926 C923 0.950 . S
C927 C918 1.390 . S
C927 H920 0.950 . S
C927 C924 1.387 . S
C928 C929 1.387 . S
C928 H932 0.950 . S
C928 C937 1.390 . S
C929 C928 1.387 . S
C929 C931 1.387 . S
H930 C937 0.950 . S
C931 C929 1.387 . S
C931 C933 1.390 . S
C931 H935 0.950 . S
H932 C928 0.950 . S
C933 C931 1.390 . S
C933 C934 1.387 . S
C933 H936 0.950 . S
C934 C933 1.387 . S
C934 C937 1.387 . S
H935 C931 0.950 . S
H936 C933 0.950 . S
C937 C928 1.390 . S
C937 H930 0.950 . S
C937 C934 1.387 . S
C938 C939 1.387 . S
C938 H942 0.950 . S
C938 C947 1.390 1_565 S
C939 C938 1.387 . S
C939 C941 1.387 . S
H940 C947 0.950 . S
C941 C939 1.387 . S
C941 C943 1.390 1_565 S
C941 H945 0.950 . S
H942 C938 0.950 . S
C943 C941 1.390 1_545 S
C943 C944 1.387 . S
C943 H946 0.950 . S
C944 C943 1.387 . S
C944 C947 1.387 . S
H945 C941 0.950 . S
H946 C943 0.950 . S
C947 C938 1.390 1_545 S
C947 H940 0.950 . S
C947 C944 1.387 . S
C948 C949 1.387 . S
C948 H952 0.950 . S
C948 C957 1.390 . S
C949 C948 1.387 . S
C949 C951 1.387 . S
H950 C957 0.950 . S
C951 C949 1.387 . S
C951 C953 1.390 . S
C951 H955 0.950 . S
H952 C948 0.950 . S
C953 C951 1.390 . S
C953 C954 1.387 . S
C953 H956 0.950 . S
C954 C953 1.387 . S
C954 C957 1.387 . S
H955 C951 0.950 . S
H956 C953 0.950 . S
C957 C948 1.390 . S
C957 H950 0.950 . S
C957 C954 1.387 . S
C958 C959 1.387 1_554 S
C958 H962 0.950 1_554 S
C958 C967 1.390 1_545 S
C959 C958 1.387 1_556 S
C959 C961 1.387 1_556 S
H960 C967 0.950 . S
C961 C959 1.387 1_554 S
C961 C963 1.390 1_545 S
C961 H965 0.950 1_554 S
H962 C958 0.950 1_556 S
C963 C961 1.390 1_565 S
C963 C964 1.387 . S
C963 H966 0.950 . S
C964 C963 1.387 . S
C964 C967 1.387 . S
H965 C961 0.950 1_556 S
H966 C963 0.950 . S
C967 C958 1.390 1_565 S
C967 H960 0.950 . S
C967 C964 1.387 . S
C968 C969 1.387 . S
C968 H972 0.950 . S
C968 C977 1.390 . S
C969 C968 1.387 . S
C969 C971 1.387 . S
H970 C977 0.950 . S
C971 C969 1.387 . S
C971 C973 1.390 . S
C971 H975 0.950 . S
H972 C968 0.950 . S
C973 C971 1.390 . S
C973 C974 1.387 . S
C973 H976 0.950 . S
C974 C973 1.387 . S
C974 C977 1.387 . S
H975 C971 0.950 . S
H976 C973 0.950 . S
C977 C968 1.390 . S
C977 H970 0.950 . S
C977 C974 1.387 . S
C978 C979 1.387 . S
C978 H982 0.950 . S
C978 C987 1.390 1_545 S
C979 C978 1.387 . S
C979 C981 1.387 . S
H980 C987 0.950 . S
C981 C979 1.387 . S
C981 C983 1.390 1_545 S
C981 H985 0.950 . S
H982 C978 0.950 . S
C983 C981 1.390 1_565 S
C983 C984 1.387 . S
C983 H986 0.950 . S
C984 C983 1.387 . S
C984 C987 1.387 . S
H985 C981 0.950 . S
H986 C983 0.950 . S
C987 C978 1.390 1_565 S
C987 H980 0.950 . S
C987 C984 1.387 . S
C988 C989 1.387 . S
C988 H992 0.950 . S
C988 C997 1.390 . S
C989 C988 1.387 . S
C989 C991 1.387 . S
H990 C997 0.950 . S
C991 C989 1.387 . S
C991 C993 1.390 . S
C991 H995 0.950 . S
H992 C988 0.950 . S
C993 C991 1.390 . S
C993 C994 1.387 . S
C993 H996 0.950 . S
C994 C993 1.387 . S
C994 C997 1.387 . S
H995 C991 0.950 . S
H996 C993 0.950 . S
C997 C988 1.390 . S
C997 H990 0.950 . S
C997 C994 1.387 . S
C998 C999 1.387 . S
C998 H1002 0.950 . S
C998 C1007 1.390 1_565 S
C999 C998 1.387 . S
C999 C1001 1.387 . S
H1000 C1007 0.950 1_556 S
C1001 C999 1.387 . S
C1001 C1003 1.390 1_565 S
C1001 H1005 0.950 . S
H1002 C998 0.950 . S
C1003 C1001 1.390 1_545 S
C1003 C1004 1.387 1_554 S
C1003 H1006 0.950 1_554 S
C1004 C1003 1.387 1_556 S
C1004 C1007 1.387 1_556 S
H1005 C1001 0.950 . S
H1006 C1003 0.950 1_556 S
C1007 C998 1.390 1_545 S
C1007 H1000 0.950 1_554 S
C1007 C1004 1.387 1_554 S
C1008 C1009 1.387 . S
C1008 H1012 0.950 . S
C1008 C1017 1.390 . S
C1009 C1008 1.387 . S
C1009 C1011 1.387 . S
H1010 C1017 0.950 . S
C1011 C1009 1.387 . S
C1011 C1013 1.390 . S
C1011 H1015 0.950 . S
H1012 C1008 0.950 . S
C1013 C1011 1.390 . S
C1013 C1014 1.387 . S
C1013 H1016 0.950 . S
C1014 C1013 1.387 . S
C1014 C1017 1.387 . S
H1015 C1011 0.950 . S
H1016 C1013 0.950 . S
C1017 C1008 1.390 . S
C1017 H1010 0.950 . S
C1017 C1014 1.387 . S
C1018 C1019 1.387 . S
C1018 H1022 0.950 . S
C1018 C1027 1.390 . S
C1019 C1018 1.387 . S
C1019 C1021 1.387 . S
H1020 C1027 0.950 1_556 S
C1021 C1019 1.387 . S
C1021 C1023 1.390 . S
C1021 H1025 0.950 . S
H1022 C1018 0.950 . S
C1023 C1021 1.390 . S
C1023 C1024 1.387 1_554 S
C1023 H1026 0.950 1_554 S
C1024 C1023 1.387 1_556 S
C1024 C1027 1.387 1_556 S
H1025 C1021 0.950 . S
H1026 C1023 0.950 1_556 S
C1027 C1018 1.390 . S
C1027 H1020 0.950 1_554 S
C1027 C1024 1.387 1_554 S
C1028 C1029 1.387 . S
C1028 H1032 0.950 . S
C1028 C1037 1.390 . S
C1029 C1028 1.387 . S
C1029 C1031 1.387 . S
H1030 C1037 0.950 . S
C1031 C1029 1.387 . S
C1031 C1033 1.390 . S
C1031 H1035 0.950 . S
H1032 C1028 0.950 . S
C1033 C1031 1.390 . S
C1033 C1034 1.387 . S
C1033 H1036 0.950 . S
C1034 C1033 1.387 . S
C1034 C1037 1.387 . S
H1035 C1031 0.950 . S
H1036 C1033 0.950 . S
C1037 C1028 1.390 . S
C1037 H1030 0.950 . S
C1037 C1034 1.387 . S
C1038 C1039 1.387 . S
C1038 H1042 0.950 . S
C1038 C1047 1.390 . S
C1039 C1038 1.387 . S
C1039 C1041 1.387 . S
H1040 C1047 0.950 . S
C1041 C1039 1.387 . S
C1041 C1043 1.390 . S
C1041 H1045 0.950 . S
H1042 C1038 0.950 . S
C1043 C1041 1.390 . S
C1043 C1044 1.387 . S
C1043 H1046 0.950 . S
C1044 C1043 1.387 . S
C1044 C1047 1.387 . S
H1045 C1041 0.950 . S
H1046 C1043 0.950 . S
C1047 C1038 1.390 . S
C1047 H1040 0.950 . S
C1047 C1044 1.387 . S
C1048 C1049 1.387 . S
C1048 H1052 0.950 . S
C1048 C1057 1.390 . S
C1049 C1048 1.387 . S
C1049 C1051 1.387 . S
H1050 C1057 0.950 . S
C1051 C1049 1.387 . S
C1051 C1053 1.390 . S
C1051 H1055 0.950 . S
H1052 C1048 0.950 . S
C1053 C1051 1.390 . S
C1053 C1054 1.387 . S
C1053 H1056 0.950 . S
C1054 C1053 1.387 . S
C1054 C1057 1.387 . S
H1055 C1051 0.950 . S
H1056 C1053 0.950 . S
C1057 C1048 1.390 . S
C1057 H1050 0.950 . S
C1057 C1054 1.387 . S
C1058 C1059 1.387 1_554 S
C1058 H1062 0.950 1_554 S
C1058 C1067 1.390 . S
C1059 C1058 1.387 1_556 S
C1059 C1061 1.387 1_556 S
H1060 C1067 0.950 . S
C1061 C1059 1.387 1_554 S
C1061 C1063 1.390 . S
C1061 H1065 0.950 1_554 S
H1062 C1058 0.950 1_556 S
C1063 C1061 1.390 . S
C1063 C1064 1.387 . S
C1063 H1066 0.950 . S
C1064 C1063 1.387 . S
C1064 C1067 1.387 . S
H1065 C1061 0.950 1_556 S
H1066 C1063 0.950 . S
C1067 C1058 1.390 . S
C1067 H1060 0.950 . S
C1067 C1064 1.387 . S
C1068 C1069 1.387 . S
C1068 H1072 0.950 . S
C1068 C1077 1.390 . S
C1069 C1068 1.387 . S
C1069 C1071 1.387 . S
H1070 C1077 0.950 . S
C1071 C1069 1.387 . S
C1071 C1073 1.390 . S
C1071 H1075 0.950 . S
H1072 C1068 0.950 . S
C1073 C1071 1.390 . S
C1073 C1074 1.387 . S
C1073 H1076 0.950 . S
C1074 C1073 1.387 . S
C1074 C1077 1.387 . S
H1075 C1071 0.950 . S
H1076 C1073 0.950 . S
C1077 C1068 1.390 . S
C1077 H1070 0.950 . S
C1077 C1074 1.387 . S
C1078 C1079 1.387 . S
C1078 H1082 0.950 . S
C1078 C1087 1.390 . S
C1079 C1078 1.387 . S
C1079 C1081 1.387 . S
H1080 C1087 0.950 . S
C1081 C1079 1.387 . S
C1081 C1083 1.390 . S
C1081 H1085 0.950 . S
H1082 C1078 0.950 . S
C1083 C1081 1.390 . S
C1083 C1084 1.387 . S
C1083 H1086 0.950 . S
C1084 C1083 1.387 . S
C1084 C1087 1.387 . S
H1085 C1081 0.950 . S
H1086 C1083 0.950 . S
C1087 C1078 1.390 . S
C1087 H1080 0.950 . S
C1087 C1084 1.387 . S
C449 C109 1.513 . S
C454 C11 1.513 1_556 S
C459 C25 1.511 . S
C464 C67 1.511 . S
C469 C81 1.513 . S
C474 C39 1.513 . S
C479 C53 1.511 . S
C484 C95 1.511 . S
C489 C123 1.511 . S
C494 C221 1.512 . S
C499 C137 1.512 . S
C504 C179 1.513 1_556 S
C509 C151 1.513 . S
C514 C193 1.513 . S
C519 C165 1.511 . S
C524 C207 1.512 . S
C529 C235 1.511 . S
C534 C333 1.511 . S
C539 C249 1.513 . S
C544 C291 1.513 . S
C549 C305 1.512 . S
C554 C263 1.511 1_556 S
C559 C319 1.513 . S
C564 C277 1.513 . S
C569 C347 1.511 . S
C574 C445 1.511 . S
C579 C403 1.513 . S
C584 C361 1.513 . S
C589 C417 1.512 . S
C594 C375 1.513 . S
C599 C389 1.511 . S
C604 C431 1.511 1_556 S
C609 C13 0.986 . S
C614 C97 0.986 . S
C619 C27 0.986 . S
C624 C111 0.986 . S
C629 C69 0.986 . S
C634 C41 0.986 . S
C639 C55 0.981 . S
C644 C83 0.981 . S
C649 C125 0.981 . S
C654 C209 0.981 . S
C659 C139 0.986 . S
C664 C223 0.986 . S
C669 C181 0.986 . S
C674 C153 0.986 . S
C679 C195 0.981 . S
C684 C167 0.981 . S
C689 C237 0.986 . S
C694 C321 0.986 . S
C699 C335 0.981 . S
C704 C251 0.981 . S
C709 C293 0.981 . S
C714 C265 0.981 . S
C719 C279 0.985 . S
C724 C307 0.986 . S
C729 C349 0.986 . S
C734 C433 0.986 . S
C739 C363 0.986 . S
C744 C447 0.986 . S
C749 C405 0.986 . S
C754 C377 0.986 . S
C759 C419 0.986 . S
C764 C391 0.986 . S
C769 C8 1.305 . S
C774 C428 1.308 . S
C779 C22 1.308 . S
C784 C218 1.304 . S
C789 C36 1.305 . S
C794 C400 1.308 . S
C799 C50 1.307 . S
C804 C190 1.305 . S
C809 C64 1.305 . S
C814 C372 1.308 . S
C819 C78 1.305 . S
C824 C162 1.308 . S
C829 C92 1.307 . S
C834 C344 1.306 . S
C839 C134 1.308 . S
C844 C106 1.304 . S
C849 C316 1.306 . S
C854 C120 1.307 . S
C859 C148 1.304 . S
C864 C288 1.309 . S
C869 C260 1.306 . S
C874 C176 1.306 . S
C879 C232 1.308 . S
C884 C204 1.305 . S
C889 C246 1.308 . S
C894 C442 1.304 . S
C899 C274 1.308 . S
C904 C414 1.305 . S
C909 C302 1.309 . S
C914 C386 1.304 . S
C919 C358 1.305 . S
C924 C330 1.308 . S
C929 C7 1.637 . S
C934 C91 1.637 . S
C939 C21 1.639 . S
C944 C105 1.639 . S
C949 C63 1.637 . S
C954 C35 1.637 . S
C959 C49 1.640 . S
C964 C77 1.639 . S
C969 C119 1.639 . S
C974 C203 1.639 . S
C979 C133 1.639 . S
C984 C217 1.639 . S
C989 C175 1.637 . S
C994 C147 1.637 . S
C999 C161 1.637 . S
C1004 C189 1.637 . S
C1009 C315 1.637 . S
C1014 C231 1.637 . S
C1019 C329 1.637 . S
C1024 C245 1.637 . S
C1029 C287 1.637 . S
C1034 C259 1.637 . S
C1039 C301 1.637 . S
C1044 C273 1.637 . S
C1049 C427 1.639 . S
C1054 C343 1.639 . S
C1059 C441 1.637 . S
C1064 C357 1.637 . S
C1069 C371 1.639 . S
C1074 C399 1.639 . S
C1079 C413 1.637 . S
C1084 C385 1.637 . S
