# Generated by pormake.
# Topology uod, (4)-cn, num edge types: 1
# Building blocks:
#     Node 0, Type 0, BuildingBlock: QUQFOY_clean_sbu_1, # of connection points: 4
#     Node 1, Type 0, BuildingBlock: QUQFOY_clean_sbu_1, # of connection points: 4
#     Node 2, Type 0, BuildingBlock: QUQFOY_clean_sbu_1, # of connection points: 4
#     Node 3, Type 0, BuildingBlock: QUQFOY_clean_sbu_1, # of connection points: 4
#     Node 4, Type 0, BuildingBlock: QUQFOY_clean_sbu_1, # of connection points: 4
#     Node 5, Type 0, BuildingBlock: QUQFOY_clean_sbu_1, # of connection points: 4
#     Node 6, Type 0, BuildingBlock: QUQFOY_clean_sbu_1, # of connection points: 4
#     Node 7, Type 0, BuildingBlock: QUQFOY_clean_sbu_1, # of connection points: 4
#     Node 8, Type 0, BuildingBlock: QUQFOY_clean_sbu_1, # of connection points: 4
#     Node 9, Type 0, BuildingBlock: QUQFOY_clean_sbu_1, # of connection points: 4
#     Node 10, Type 0, BuildingBlock: QUQFOY_clean_sbu_1, # of connection points: 4
#     Node 11, Type 0, BuildingBlock: QUQFOY_clean_sbu_1, # of connection points: 4
#     Node 12, Type 0, BuildingBlock: QUQFOY_clean_sbu_1, # of connection points: 4
#     Node 13, Type 0, BuildingBlock: QUQFOY_clean_sbu_1, # of connection points: 4
#     Node 14, Type 0, BuildingBlock: QUQFOY_clean_sbu_1, # of connection points: 4
#     Node 15, Type 0, BuildingBlock: QUQFOY_clean_sbu_1, # of connection points: 4
#     Node 16, Type 0, BuildingBlock: QUQFOY_clean_sbu_1, # of connection points: 4
#     Node 17, Type 0, BuildingBlock: QUQFOY_clean_sbu_1, # of connection points: 4
#     Node 18, Type 0, BuildingBlock: QUQFOY_clean_sbu_1, # of connection points: 4
#     Node 19, Type 0, BuildingBlock: QUQFOY_clean_sbu_1, # of connection points: 4
#     Node 20, Type 0, BuildingBlock: QUQFOY_clean_sbu_1, # of connection points: 4
#     Node 21, Type 0, BuildingBlock: QUQFOY_clean_sbu_1, # of connection points: 4
#     Node 22, Type 0, BuildingBlock: QUQFOY_clean_sbu_1, # of connection points: 4
#     Node 23, Type 0, BuildingBlock: QUQFOY_clean_sbu_1, # of connection points: 4
#     Node 24, Type 0, BuildingBlock: QUQFOY_clean_sbu_1, # of connection points: 4
#     Node 25, Type 0, BuildingBlock: QUQFOY_clean_sbu_1, # of connection points: 4
#     Node 26, Type 0, BuildingBlock: QUQFOY_clean_sbu_1, # of connection points: 4
#     Node 27, Type 0, BuildingBlock: QUQFOY_clean_sbu_1, # of connection points: 4
#     Node 28, Type 0, BuildingBlock: QUQFOY_clean_sbu_1, # of connection points: 4
#     Node 29, Type 0, BuildingBlock: QUQFOY_clean_sbu_1, # of connection points: 4
#     Node 30, Type 0, BuildingBlock: QUQFOY_clean_sbu_1, # of connection points: 4
#     Node 31, Type 0, BuildingBlock: QUQFOY_clean_sbu_1, # of connection points: 4
#     Edge 32, Type (0, 0), BuildingBlock: KIFKEQ_clean_linker_1, # of connection points: 2
#     Edge 33, Type (0, 0), BuildingBlock: KIFKEQ_clean_linker_1, # of connection points: 2
#     Edge 34, Type (0, 0), BuildingBlock: KIFKEQ_clean_linker_1, # of connection points: 2
#     Edge 35, Type (0, 0), BuildingBlock: KIFKEQ_clean_linker_1, # of connection points: 2
#     Edge 36, Type (0, 0), BuildingBlock: KIFKEQ_clean_linker_1, # of connection points: 2
#     Edge 37, Type (0, 0), BuildingBlock: KIFKEQ_clean_linker_1, # of connection points: 2
#     Edge 38, Type (0, 0), BuildingBlock: KIFKEQ_clean_linker_1, # of connection points: 2
#     Edge 39, Type (0, 0), BuildingBlock: KIFKEQ_clean_linker_1, # of connection points: 2
#     Edge 40, Type (0, 0), BuildingBlock: KIFKEQ_clean_linker_1, # of connection points: 2
#     Edge 41, Type (0, 0), BuildingBlock: KIFKEQ_clean_linker_1, # of connection points: 2
#     Edge 42, Type (0, 0), BuildingBlock: KIFKEQ_clean_linker_1, # of connection points: 2
#     Edge 43, Type (0, 0), BuildingBlock: KIFKEQ_clean_linker_1, # of connection points: 2
#     Edge 44, Type (0, 0), BuildingBlock: KIFKEQ_clean_linker_1, # of connection points: 2
#     Edge 45, Type (0, 0), BuildingBlock: KIFKEQ_clean_linker_1, # of connection points: 2
#     Edge 46, Type (0, 0), BuildingBlock: KIFKEQ_clean_linker_1, # of connection points: 2
#     Edge 47, Type (0, 0), BuildingBlock: KIFKEQ_clean_linker_1, # of connection points: 2
#     Edge 48, Type (0, 0), BuildingBlock: KIFKEQ_clean_linker_1, # of connection points: 2
#     Edge 49, Type (0, 0), BuildingBlock: KIFKEQ_clean_linker_1, # of connection points: 2
#     Edge 50, Type (0, 0), BuildingBlock: KIFKEQ_clean_linker_1, # of connection points: 2
#     Edge 51, Type (0, 0), BuildingBlock: KIFKEQ_clean_linker_1, # of connection points: 2
#     Edge 52, Type (0, 0), BuildingBlock: KIFKEQ_clean_linker_1, # of connection points: 2
#     Edge 53, Type (0, 0), BuildingBlock: KIFKEQ_clean_linker_1, # of connection points: 2
#     Edge 54, Type (0, 0), BuildingBlock: KIFKEQ_clean_linker_1, # of connection points: 2
#     Edge 55, Type (0, 0), BuildingBlock: KIFKEQ_clean_linker_1, # of connection points: 2
#     Edge 56, Type (0, 0), BuildingBlock: KIFKEQ_clean_linker_1, # of connection points: 2
#     Edge 57, Type (0, 0), BuildingBlock: KIFKEQ_clean_linker_1, # of connection points: 2
#     Edge 58, Type (0, 0), BuildingBlock: KIFKEQ_clean_linker_1, # of connection points: 2
#     Edge 59, Type (0, 0), BuildingBlock: KIFKEQ_clean_linker_1, # of connection points: 2
#     Edge 60, Type (0, 0), BuildingBlock: KIFKEQ_clean_linker_1, # of connection points: 2
#     Edge 61, Type (0, 0), BuildingBlock: KIFKEQ_clean_linker_1, # of connection points: 2
#     Edge 62, Type (0, 0), BuildingBlock: KIFKEQ_clean_linker_1, # of connection points: 2
#     Edge 63, Type (0, 0), BuildingBlock: KIFKEQ_clean_linker_1, # of connection points: 2
#     Edge 64, Type (0, 0), BuildingBlock: KIFKEQ_clean_linker_1, # of connection points: 2
#     Edge 65, Type (0, 0), BuildingBlock: KIFKEQ_clean_linker_1, # of connection points: 2
#     Edge 66, Type (0, 0), BuildingBlock: KIFKEQ_clean_linker_1, # of connection points: 2
#     Edge 67, Type (0, 0), BuildingBlock: KIFKEQ_clean_linker_1, # of connection points: 2
#     Edge 68, Type (0, 0), BuildingBlock: KIFKEQ_clean_linker_1, # of connection points: 2
#     Edge 69, Type (0, 0), BuildingBlock: KIFKEQ_clean_linker_1, # of connection points: 2
#     Edge 70, Type (0, 0), BuildingBlock: KIFKEQ_clean_linker_1, # of connection points: 2
#     Edge 71, Type (0, 0), BuildingBlock: KIFKEQ_clean_linker_1, # of connection points: 2
#     Edge 72, Type (0, 0), BuildingBlock: KIFKEQ_clean_linker_1, # of connection points: 2
#     Edge 73, Type (0, 0), BuildingBlock: KIFKEQ_clean_linker_1, # of connection points: 2
#     Edge 74, Type (0, 0), BuildingBlock: KIFKEQ_clean_linker_1, # of connection points: 2
#     Edge 75, Type (0, 0), BuildingBlock: KIFKEQ_clean_linker_1, # of connection points: 2
#     Edge 76, Type (0, 0), BuildingBlock: KIFKEQ_clean_linker_1, # of connection points: 2
#     Edge 77, Type (0, 0), BuildingBlock: KIFKEQ_clean_linker_1, # of connection points: 2
#     Edge 78, Type (0, 0), BuildingBlock: KIFKEQ_clean_linker_1, # of connection points: 2
#     Edge 79, Type (0, 0), BuildingBlock: KIFKEQ_clean_linker_1, # of connection points: 2
#     Edge 80, Type (0, 0), BuildingBlock: KIFKEQ_clean_linker_1, # of connection points: 2
#     Edge 81, Type (0, 0), BuildingBlock: KIFKEQ_clean_linker_1, # of connection points: 2
#     Edge 82, Type (0, 0), BuildingBlock: KIFKEQ_clean_linker_1, # of connection points: 2
#     Edge 83, Type (0, 0), BuildingBlock: KIFKEQ_clean_linker_1, # of connection points: 2
#     Edge 84, Type (0, 0), BuildingBlock: KIFKEQ_clean_linker_1, # of connection points: 2
#     Edge 85, Type (0, 0), BuildingBlock: KIFKEQ_clean_linker_1, # of connection points: 2
#     Edge 86, Type (0, 0), BuildingBlock: KIFKEQ_clean_linker_1, # of connection points: 2
#     Edge 87, Type (0, 0), BuildingBlock: KIFKEQ_clean_linker_1, # of connection points: 2
#     Edge 88, Type (0, 0), BuildingBlock: KIFKEQ_clean_linker_1, # of connection points: 2
#     Edge 89, Type (0, 0), BuildingBlock: KIFKEQ_clean_linker_1, # of connection points: 2
#     Edge 90, Type (0, 0), BuildingBlock: KIFKEQ_clean_linker_1, # of connection points: 2
#     Edge 91, Type (0, 0), BuildingBlock: KIFKEQ_clean_linker_1, # of connection points: 2
#     Edge 92, Type (0, 0), BuildingBlock: KIFKEQ_clean_linker_1, # of connection points: 2
#     Edge 93, Type (0, 0), BuildingBlock: KIFKEQ_clean_linker_1, # of connection points: 2
#     Edge 94, Type (0, 0), BuildingBlock: KIFKEQ_clean_linker_1, # of connection points: 2
#     Edge 95, Type (0, 0), BuildingBlock: KIFKEQ_clean_linker_1, # of connection points: 2
# Relax obj value: 0.043
# Max RMSD: 0.084
# Mean RMSD: 0.084
data_MOF--net-uod--node1-QUQFOY_clean_sbu_1--edge1-KIFKEQ_clean_linker_1
_symmetry_space_group_name_H-M    P1
_symmetry_Int_Tables_number       1
_symmetry_cell_setting            triclinic
loop_
_symmetry_equiv_pos_as_xyz
'x, y, z'
_cell_length_a     90.946396
_cell_length_b     28.881486
_cell_length_c     68.924119
_cell_angle_alpha  89.905514
_cell_angle_beta   89.968187
_cell_angle_gamma 90.0203
loop_
_atom_site_label
_atom_site_type_symbol
_atom_site_fract_x
_atom_site_fract_y
_atom_site_fract_z
_atom_type_partial_charge
O0 O 0.05482 0.4869 0.10398 0.0
Cd1 Cd 0.06433 0.43428 0.08882 0.0
Cd2 Cd 0.05615 0.38898 0.1215 0.0
O3 O 0.04247 0.44528 0.12534 0.0
O4 O 0.06451 0.46188 0.06224 0.0
O5 O 0.04965 0.40474 0.07088 0.0
C6 C 0.05318 0.43651 0.05845 0.0
C7 C 0.04753 0.31326 0.12415 0.0
C8 C 0.04497 0.48358 0.11691 0.0
C9 C 0.08859 0.40448 0.1149 0.0
O10 O 0.07831 0.39727 0.12706 0.0
O11 O 0.08551 0.41444 0.09731 0.0
O12 O 0.04925 0.33898 0.13927 0.0
O13 O 0.05015 0.33131 0.10732 0.0
O14 O 0.22674 0.78049 0.10184 0.0
Cd15 Cd 0.21842 0.83572 0.08703 0.0
Cd16 Cd 0.22605 0.87689 0.12082 0.0
O17 O 0.23868 0.81809 0.1248 0.0
O18 O 0.21907 0.81112 0.06001 0.0
O19 O 0.23409 0.86575 0.07068 0.0
C20 C 0.23076 0.83576 0.05746 0.0
C21 C 0.23528 0.95129 0.12582 0.0
C22 C 0.23606 0.78105 0.11551 0.0
C23 C 0.19362 0.86632 0.1118 0.0
O24 O 0.20359 0.87158 0.12454 0.0
O25 O 0.19714 0.85682 0.09433 0.0
O26 O 0.23216 0.92431 0.14018 0.0
O27 O 0.23389 0.93498 0.10845 0.0
O28 O 0.05173 0.79392 0.164 0.0
Cd29 Cd 0.06192 0.84176 0.18105 0.0
Cd30 Cd 0.05512 0.89404 0.14835 0.0
O31 O 0.04153 0.83895 0.14185 0.0
O32 O 0.06191 0.8078 0.20635 0.0
O33 O 0.04784 0.86869 0.20056 0.0
C34 C 0.05108 0.8338 0.21155 0.0
C35 C 0.04686 0.97014 0.14513 0.0
C36 C 0.04292 0.79973 0.14997 0.0
C37 C 0.08725 0.87366 0.15677 0.0
O38 O 0.07747 0.88546 0.14454 0.0
O39 O 0.08352 0.85953 0.17364 0.0
O40 O 0.04952 0.94477 0.13016 0.0
O41 O 0.04837 0.95164 0.1621 0.0
O42 O 0.23206 0.47103 0.16673 0.0
Cd43 Cd 0.22028 0.43047 0.18542 0.0
Cd44 Cd 0.22628 0.37062 0.152 0.0
O45 O 0.2393 0.42503 0.14297 0.0
O46 O 0.21993 0.47381 0.20806 0.0
O47 O 0.2325 0.40848 0.20815 0.0
C48 C 0.22961 0.44777 0.21627 0.0
C49 C 0.23417 0.2944 0.14685 0.0
C50 C 0.23945 0.46401 0.15143 0.0
C51 C 0.19437 0.39667 0.16215 0.0
O52 O 0.20382 0.37962 0.15057 0.0
O53 O 0.19843 0.41563 0.17799 0.0
O54 O 0.22976 0.32027 0.13277 0.0
O55 O 0.2346 0.31237 0.164 0.0
O56 O 0.98365 0.55514 0.91435 0.0
Cd57 Cd 0.97248 0.59789 0.93262 0.0
Cd58 Cd 0.97879 0.65435 0.89855 0.0
O59 O 0.99223 0.59943 0.89082 0.0
O60 O 0.97153 0.55447 0.95526 0.0
O61 O 0.98478 0.61839 0.95557 0.0
C62 C 0.98143 0.57932 0.96361 0.0
C63 C 0.98641 0.73122 0.89404 0.0
C64 C 0.99159 0.56053 0.8994 0.0
C65 C 0.94681 0.62952 0.90846 0.0
O66 O 0.95633 0.64425 0.89637 0.0
O67 O 0.95079 0.61347 0.92492 0.0
O68 O 0.98321 0.7049 0.87956 0.0
O69 O 0.98583 0.71335 0.91123 0.0
O70 O 0.79933 0.20957 0.9146 0.0
Cd71 Cd 0.81088 0.16957 0.93367 0.0
Cd72 Cd 0.80487 0.10789 0.90092 0.0
O73 O 0.79179 0.16194 0.8916 0.0
O74 O 0.81138 0.21427 0.95583 0.0
O75 O 0.79865 0.14927 0.9567 0.0
C76 C 0.80166 0.18897 0.96438 0.0
C77 C 0.79695 0.03138 0.8968 0.0
C78 C 0.79184 0.2016 0.89949 0.0
C79 C 0.83676 0.13422 0.91058 0.0
O80 O 0.82733 0.11683 0.89906 0.0
O81 O 0.83268 0.15384 0.92629 0.0
O82 O 0.80063 0.05686 0.88223 0.0
O83 O 0.79729 0.0498 0.91386 0.0
O84 O 0.96994 0.24383 0.84954 0.0
Cd85 Cd 0.96441 0.18511 0.83506 0.0
Cd86 Cd 0.97464 0.14856 0.8666 0.0
O87 O 0.98712 0.20916 0.86655 0.0
O88 O 0.96517 0.206 0.80747 0.0
O89 O 0.98174 0.15935 0.82066 0.0
C90 C 0.97783 0.18584 0.80639 0.0
C91 C 0.98435 0.07409 0.86959 0.0
C92 C 0.98155 0.2461 0.85965 0.0
C93 C 0.94186 0.15101 0.86141 0.0
O94 O 0.95245 0.15273 0.87347 0.0
O95 O 0.94447 0.1558 0.84333 0.0
O96 O 0.98343 0.10131 0.88438 0.0
O97 O 0.98058 0.09033 0.85281 0.0
O98 O 0.8096 0.51772 0.85163 0.0
Cd99 Cd 0.81697 0.5747 0.83717 0.0
Cd100 Cd 0.80832 0.61498 0.86992 0.0
O101 O 0.79564 0.55563 0.8724 0.0
O102 O 0.81584 0.55335 0.80968 0.0
O103 O 0.8004 0.60416 0.82251 0.0
C104 C 0.80367 0.57627 0.80847 0.0
C105 C 0.79871 0.68937 0.8731 0.0
C106 C 0.79929 0.5182 0.86402 0.0
C107 C 0.84088 0.60789 0.86266 0.0
O108 O 0.83064 0.6105 0.87521 0.0
O109 O 0.83773 0.59963 0.84495 0.0
O110 O 0.80052 0.66293 0.88802 0.0
O111 O 0.80165 0.67254 0.85616 0.0
O112 O 0.06328 0.9946 0.59983 0.0
Cd113 Cd 0.06854 0.93534 0.58553 0.0
Cd114 Cd 0.05814 0.89907 0.61706 0.0
O115 O 0.04599 0.96026 0.61684 0.0
O116 O 0.06699 0.95383 0.55766 0.0
O117 O 0.05076 0.90879 0.57257 0.0
C118 C 0.05426 0.93386 0.55767 0.0
C119 C 0.04797 0.82522 0.62024 0.0
C120 C 0.05166 0.99709 0.60996 0.0
C121 C 0.0909 0.89991 0.6119 0.0
O122 O 0.08031 0.90213 0.62397 0.0
O123 O 0.08833 0.90495 0.59382 0.0
O124 O 0.04902 0.85261 0.63496 0.0
O125 O 0.05188 0.84095 0.60344 0.0
O126 O 0.21631 0.26489 0.59702 0.0
Cd127 Cd 0.21175 0.32464 0.58255 0.0
Cd128 Cd 0.22223 0.35965 0.61421 0.0
O129 O 0.23373 0.29727 0.61437 0.0
O130 O 0.21332 0.30555 0.55483 0.0
O131 O 0.22978 0.34989 0.56957 0.0
C132 C 0.22617 0.32478 0.55477 0.0
C133 C 0.23308 0.43201 0.61892 0.0
C134 C 0.22777 0.26111 0.60737 0.0
C135 C 0.1894 0.36176 0.6082 0.0
O136 O 0.1999 0.359 0.62035 0.0
O137 O 0.19202 0.35611 0.59018 0.0
O138 O 0.23082 0.4041 0.63327 0.0
O139 O 0.23006 0.41747 0.60165 0.0
O140 O 0.04893 0.30665 0.66472 0.0
Cd141 Cd 0.05959 0.35085 0.6829 0.0
Cd142 Cd 0.05256 0.4068 0.64938 0.0
O143 O 0.03951 0.35088 0.64174 0.0
O144 O 0.06067 0.30887 0.70601 0.0
O145 O 0.04683 0.37153 0.70534 0.0
C146 C 0.05043 0.33328 0.71387 0.0
C147 C 0.04448 0.48316 0.64501 0.0
C148 C 0.04072 0.31174 0.65002 0.0
C149 C 0.08481 0.3848 0.65864 0.0
O150 O 0.07505 0.39864 0.64673 0.0
O151 O 0.08113 0.36834 0.67515 0.0
O152 O 0.04765 0.457 0.63047 0.0
O153 O 0.04528 0.4653 0.66218 0.0
O154 O 0.23314 0.95115 0.66259 0.0
Cd155 Cd 0.22232 0.9108 0.68225 0.0
Cd156 Cd 0.22774 0.85075 0.64816 0.0
O157 O 0.24012 0.90625 0.63838 0.0
O158 O 0.2222 0.95626 0.70418 0.0
O159 O 0.2351 0.89167 0.70497 0.0
C160 C 0.23213 0.93151 0.71254 0.0
C161 C 0.23535 0.7745 0.64196 0.0
C162 C 0.24008 0.94529 0.64684 0.0
C163 C 0.19598 0.87587 0.6603 0.0
O164 O 0.20518 0.85905 0.64832 0.0
O165 O 0.20036 0.89522 0.67591 0.0
O166 O 0.23044 0.801 0.62839 0.0
O167 O 0.23656 0.79193 0.65914 0.0
O168 O 0.97304 0.02034 0.42156 0.0
Cd169 Cd 0.96659 0.07677 0.43693 0.0
Cd170 Cd 0.97664 0.11635 0.40514 0.0
O171 O 0.98961 0.05684 0.40413 0.0
O172 O 0.96607 0.04938 0.4635 0.0
O173 O 0.98265 0.10103 0.45426 0.0
C174 C 0.9783 0.07065 0.46685 0.0
C175 C 0.98582 0.19154 0.40191 0.0
C176 C 0.98446 0.01932 0.41105 0.0
C177 C 0.94377 0.11027 0.41075 0.0
O178 O 0.95439 0.11079 0.39869 0.0
O179 O 0.94637 0.10409 0.42876 0.0
O180 O 0.98475 0.16433 0.38713 0.0
O181 O 0.9825 0.17497 0.4188 0.0
O182 O 0.80862 0.74194 0.41899 0.0
Cd183 Cd 0.81637 0.68569 0.43361 0.0
Cd184 Cd 0.808 0.64481 0.40068 0.0
O185 O 0.79518 0.70369 0.39775 0.0
O186 O 0.81564 0.70866 0.46088 0.0
O187 O 0.80021 0.65632 0.44919 0.0
C188 C 0.80363 0.68519 0.46282 0.0
C189 C 0.79866 0.57006 0.39756 0.0
C190 C 0.79854 0.74116 0.4063 0.0
C191 C 0.84051 0.65325 0.40819 0.0
O192 O 0.83033 0.64987 0.3956 0.0
O193 O 0.83727 0.66187 0.42585 0.0
O194 O 0.80051 0.59636 0.3826 0.0
O195 O 0.80138 0.58725 0.4145 0.0
O196 O 0.98307 0.70994 0.35524 0.0
Cd197 Cd 0.97184 0.66619 0.33749 0.0
Cd198 Cd 0.97867 0.61126 0.37184 0.0
O199 O 0.99231 0.66658 0.37861 0.0
O200 O 0.97038 0.70939 0.31485 0.0
O201 O 0.98392 0.64613 0.31424 0.0
C202 C 0.98031 0.68505 0.30629 0.0
C203 C 0.98635 0.53451 0.37655 0.0
C204 C 0.99138 0.70523 0.36986 0.0
C205 C 0.94654 0.63492 0.36237 0.0
O206 O 0.95621 0.62131 0.37446 0.0
O207 O 0.95032 0.65001 0.34567 0.0
O208 O 0.9834 0.56127 0.39098 0.0
O209 O 0.98551 0.55188 0.35929 0.0
O210 O 0.80104 0.05024 0.3563 0.0
Cd211 Cd 0.81308 0.08985 0.33759 0.0
Cd212 Cd 0.80674 0.15129 0.37051 0.0
O213 O 0.79342 0.09741 0.37942 0.0
O214 O 0.81403 0.04426 0.31579 0.0
O215 O 0.80142 0.10932 0.31392 0.0
C216 C 0.80454 0.06923 0.30669 0.0
C217 C 0.79877 0.22776 0.37441 0.0
C218 C 0.7934 0.05802 0.37131 0.0
C219 C 0.83871 0.1247 0.36137 0.0
O220 O 0.82917 0.14206 0.37276 0.0
O221 O 0.83477 0.10532 0.34555 0.0
O222 O 0.80229 0.20238 0.38907 0.0
O223 O 0.79936 0.2093 0.35736 0.0
O224 O 0.55775 0.47572 0.60034 0.0
Cd225 Cd 0.56607 0.42388 0.58379 0.0
Cd226 Cd 0.55604 0.37692 0.61565 0.0
O227 O 0.54266 0.435 0.61858 0.0
O228 O 0.56789 0.45913 0.55897 0.0
O229 O 0.55174 0.40284 0.56322 0.0
C230 C 0.55636 0.43747 0.55296 0.0
C231 C 0.54709 0.30144 0.61926 0.0
C232 C 0.5468 0.4737 0.61167 0.0
C233 C 0.58903 0.3888 0.61005 0.0
O234 O 0.57831 0.38314 0.62172 0.0
O235 O 0.5866 0.39946 0.59236 0.0
O236 O 0.54866 0.3285 0.63398 0.0
O237 O 0.54987 0.31814 0.60223 0.0
O238 O 0.72861 0.79328 0.60243 0.0
Cd239 Cd 0.71918 0.84144 0.58481 0.0
Cd240 Cd 0.72674 0.89252 0.61893 0.0
O241 O 0.7394 0.83461 0.62523 0.0
O242 O 0.71837 0.80312 0.5607 0.0
O243 O 0.733 0.86364 0.56375 0.0
C244 C 0.72924 0.82711 0.55413 0.0
C245 C 0.73532 0.96756 0.62543 0.0
C246 C 0.73732 0.79614 0.61672 0.0
C247 C 0.69421 0.87564 0.60879 0.0
O248 O 0.70411 0.88621 0.62107 0.0
O249 O 0.69778 0.86122 0.59193 0.0
O250 O 0.73132 0.93992 0.63915 0.0
O251 O 0.73515 0.9518 0.60789 0.0
O252 O 0.55619 0.78534 0.66583 0.0
Cd253 Cd 0.56466 0.83747 0.68216 0.0
Cd254 Cd 0.55579 0.88364 0.64932 0.0
O255 O 0.54243 0.82582 0.64575 0.0
O256 O 0.56572 0.80407 0.70752 0.0
O257 O 0.55011 0.86113 0.70192 0.0
C258 C 0.55429 0.82717 0.71287 0.0
C259 C 0.54705 0.9592 0.64512 0.0
C260 C 0.54591 0.78734 0.65346 0.0
C261 C 0.58853 0.87061 0.65654 0.0
O262 O 0.57818 0.8767 0.64436 0.0
O263 O 0.58554 0.86033 0.67413 0.0
O264 O 0.54906 0.93199 0.63053 0.0
O265 O 0.54931 0.94265 0.6623 0.0
O266 O 0.72267 0.48093 0.67301 0.0
Cd267 Cd 0.71595 0.42627 0.68935 0.0
Cd268 Cd 0.72578 0.38328 0.65707 0.0
O269 O 0.73813 0.44367 0.65411 0.0
O270 O 0.7155 0.4569 0.71527 0.0
O271 O 0.7318 0.40328 0.70741 0.0
C272 C 0.72757 0.43538 0.71924 0.0
C273 C 0.73548 0.30946 0.65137 0.0
C274 C 0.73343 0.48138 0.66132 0.0
C275 C 0.69274 0.39008 0.66433 0.0
O276 O 0.70328 0.38657 0.65225 0.0
O277 O 0.69542 0.39996 0.68201 0.0
O278 O 0.73262 0.33756 0.63731 0.0
O279 O 0.7337 0.32441 0.66889 0.0
O280 O 0.48012 0.55478 0.41475 0.0
Cd281 Cd 0.47179 0.60377 0.43285 0.0
Cd282 Cd 0.47856 0.65544 0.39953 0.0
O283 O 0.49069 0.59742 0.39207 0.0
O284 O 0.47252 0.56935 0.45808 0.0
O285 O 0.48728 0.62795 0.45112 0.0
C286 C 0.484 0.59351 0.46235 0.0
C287 C 0.48726 0.73035 0.39327 0.0
C288 C 0.48854 0.55841 0.40015 0.0
C289 C 0.44628 0.63939 0.4105 0.0
O290 O 0.45594 0.65025 0.39792 0.0
O291 O 0.45019 0.62423 0.42712 0.0
O292 O 0.48293 0.70347 0.37951 0.0
O293 O 0.4874 0.71379 0.4107 0.0
O294 O 0.30039 0.20905 0.41559 0.0
Cd295 Cd 0.31065 0.16417 0.43396 0.0
Cd296 Cd 0.30361 0.10898 0.40028 0.0
O297 O 0.29118 0.16581 0.39217 0.0
O298 O 0.3113 0.20501 0.45738 0.0
O299 O 0.29738 0.14254 0.45572 0.0
C300 C 0.30085 0.18033 0.46466 0.0
C301 C 0.29518 0.03356 0.39451 0.0
C302 C 0.29242 0.20467 0.40062 0.0
C303 C 0.33595 0.12898 0.41048 0.0
O304 O 0.32619 0.11537 0.39857 0.0
O305 O 0.33225 0.14616 0.42682 0.0
O306 O 0.2995 0.0601 0.3806 0.0
O307 O 0.29495 0.05063 0.41183 0.0
O308 O 0.46829 0.23994 0.34776 0.0
Cd309 Cd 0.46299 0.18085 0.33334 0.0
Cd310 Cd 0.4734 0.14454 0.36507 0.0
O311 O 0.48513 0.20628 0.36575 0.0
O312 O 0.46417 0.20095 0.30568 0.0
O313 O 0.48055 0.15474 0.31957 0.0
C314 C 0.47686 0.18079 0.30506 0.0
C315 C 0.48419 0.07216 0.36989 0.0
C316 C 0.47957 0.24281 0.35849 0.0
C317 C 0.44048 0.14494 0.3593 0.0
O318 O 0.4511 0.14604 0.37131 0.0
O319 O 0.443 0.15125 0.34128 0.0
O320 O 0.48178 0.09989 0.38421 0.0
O321 O 0.48126 0.08677 0.35258 0.0
O322 O 0.31363 0.52446 0.3498 0.0
Cd323 Cd 0.3187 0.58429 0.33564 0.0
Cd324 Cd 0.30847 0.61923 0.36761 0.0
O325 O 0.29684 0.55722 0.36813 0.0
O326 O 0.31723 0.56567 0.30785 0.0
O327 O 0.30098 0.61098 0.32244 0.0
C328 C 0.30454 0.58582 0.30764 0.0
C329 C 0.2976 0.69146 0.37236 0.0
C330 C 0.30242 0.52101 0.36064 0.0
C331 C 0.34131 0.62016 0.36144 0.0
O332 O 0.33081 0.61823 0.37362 0.0
O333 O 0.33866 0.61426 0.34345 0.0
O334 O 0.30002 0.66375 0.38672 0.0
O335 O 0.30055 0.67687 0.35506 0.0
O336 O 0.56205 0.98717 0.09933 0.0
Cd337 Cd 0.56751 0.92794 0.08511 0.0
Cd338 Cd 0.55736 0.89251 0.11712 0.0
O339 O 0.54529 0.95371 0.11753 0.0
O340 O 0.56663 0.9482 0.05746 0.0
O341 O 0.55017 0.90153 0.0709 0.0
C342 C 0.55401 0.92773 0.0565 0.0
C343 C 0.54711 0.81925 0.1217 0.0
C344 C 0.55076 0.99015 0.11005 0.0
C345 C 0.59022 0.89383 0.11114 0.0
O346 O 0.57967 0.89531 0.12326 0.0
O347 O 0.58758 0.89915 0.0931 0.0
O348 O 0.54921 0.84698 0.13611 0.0
O349 O 0.54998 0.83438 0.10444 0.0
O350 O 0.72459 0.27435 0.1019 0.0
Cd351 Cd 0.71611 0.32939 0.08709 0.0
Cd352 Cd 0.72433 0.37134 0.12041 0.0
O353 O 0.73677 0.31245 0.1245 0.0
O354 O 0.71654 0.30473 0.06007 0.0
O355 O 0.73165 0.35934 0.07054 0.0
C356 C 0.72823 0.32932 0.05737 0.0
C357 C 0.73425 0.44487 0.12497 0.0
C358 C 0.73402 0.27523 0.11543 0.0
C359 C 0.69173 0.36148 0.11237 0.0
O360 O 0.70192 0.36713 0.12477 0.0
O361 O 0.69495 0.35114 0.09487 0.0
O362 O 0.73099 0.41853 0.13948 0.0
O363 O 0.73249 0.42849 0.10768 0.0
O364 O 0.54928 0.30027 0.16459 0.0
Cd365 Cd 0.56025 0.34324 0.18301 0.0
Cd366 Cd 0.55379 0.39964 0.14899 0.0
O367 O 0.54077 0.34419 0.14089 0.0
O368 O 0.56094 0.30061 0.20593 0.0
O369 O 0.54759 0.36433 0.20548 0.0
C370 C 0.55087 0.32562 0.21386 0.0
C371 C 0.546 0.47593 0.14348 0.0
C372 C 0.54145 0.30537 0.14953 0.0
C373 C 0.5859 0.37599 0.15925 0.0
O374 O 0.57631 0.39073 0.1473 0.0
O375 O 0.58199 0.35925 0.17562 0.0
O376 O 0.55014 0.44947 0.12947 0.0
O377 O 0.54566 0.45842 0.16074 0.0
O378 O 0.7306 0.9623 0.16569 0.0
Cd379 Cd 0.72087 0.91471 0.18343 0.0
Cd380 Cd 0.7274 0.86156 0.15045 0.0
O381 O 0.73978 0.91827 0.14245 0.0
O382 O 0.72147 0.94891 0.20861 0.0
O383 O 0.73538 0.88788 0.20246 0.0
C384 C 0.73238 0.92282 0.2135 0.0
C385 C 0.73626 0.78677 0.14514 0.0
C386 C 0.73861 0.95723 0.15079 0.0
C387 C 0.69521 0.88 0.16064 0.0
O388 O 0.70486 0.86708 0.14844 0.0
O389 O 0.69911 0.89668 0.17699 0.0
O390 O 0.73194 0.8127 0.13103 0.0
O391 O 0.73617 0.80413 0.16241 0.0
O392 O 0.48419 0.05736 0.91362 0.0
Cd393 Cd 0.47211 0.09381 0.93316 0.0
Cd394 Cd 0.47718 0.15854 0.89922 0.0
O395 O 0.48991 0.10375 0.88923 0.0
O396 O 0.47189 0.04647 0.95448 0.0
O397 O 0.48376 0.11275 0.95692 0.0
C398 C 0.48109 0.07197 0.96382 0.0
C399 C 0.48461 0.23522 0.893 0.0
C400 C 0.49082 0.06476 0.89775 0.0
C401 C 0.44564 0.12861 0.91094 0.0
O402 O 0.4546 0.14949 0.89974 0.0
O403 O 0.45018 0.10607 0.92572 0.0
O404 O 0.47959 0.20886 0.87948 0.0
O405 O 0.48597 0.21753 0.91014 0.0
O406 O 0.30138 0.71728 0.91564 0.0
Cd407 Cd 0.31317 0.67626 0.93405 0.0
Cd408 Cd 0.30641 0.61681 0.90043 0.0
O409 O 0.29358 0.67219 0.89188 0.0
O410 O 0.31406 0.72012 0.95646 0.0
O411 O 0.30118 0.65539 0.95719 0.0
C412 C 0.30435 0.6948 0.96502 0.0
C413 C 0.2983 0.54094 0.89494 0.0
C414 C 0.29376 0.711 0.90049 0.0
C415 C 0.3386 0.64092 0.91024 0.0
O416 O 0.32892 0.62453 0.89882 0.0
O417 O 0.33483 0.66026 0.92613 0.0
O418 O 0.30263 0.56723 0.88095 0.0
O419 O 0.29799 0.55839 0.91219 0.0
O420 O 0.47062 0.74653 0.84666 0.0
Cd421 Cd 0.46561 0.68683 0.83255 0.0
Cd422 Cd 0.47598 0.65249 0.86442 0.0
O423 O 0.48795 0.71418 0.86426 0.0
O424 O 0.46698 0.70561 0.80472 0.0
O425 O 0.48338 0.66069 0.8193 0.0
C426 C 0.47974 0.68587 0.80451 0.0
C427 C 0.4859 0.57868 0.86916 0.0
C428 C 0.48209 0.75032 0.85701 0.0
C429 C 0.44312 0.65309 0.8588 0.0
O430 O 0.45372 0.65575 0.8708 0.0
O431 O 0.44569 0.65716 0.84068 0.0
O432 O 0.48417 0.60699 0.88346 0.0
O433 O 0.48298 0.59362 0.85189 0.0
O434 O 0.30805 0.02445 0.8504 0.0
Cd435 Cd 0.31737 0.0764 0.83475 0.0
Cd436 Cd 0.30908 0.12457 0.86788 0.0
O437 O 0.29675 0.06529 0.87303 0.0
O438 O 0.31705 0.04855 0.80827 0.0
O439 O 0.30249 0.10617 0.81712 0.0
C440 C 0.30575 0.07423 0.80469 0.0
C441 C 0.2993 0.19835 0.87306 0.0
C442 C 0.29893 0.02721 0.86426 0.0
C443 C 0.34181 0.11167 0.85938 0.0
O444 O 0.33166 0.12213 0.87129 0.0
O445 O 0.33867 0.09584 0.84262 0.0
O446 O 0.30292 0.17177 0.88733 0.0
O447 O 0.3005 0.18198 0.85569 0.0
H448 H 0.0258 0.74249 0.17109 0.0
H449 H 0.04286 0.76502 0.11349 0.0
H450 H 0.01872 0.66382 0.16233 0.0
H451 H 0.03686 0.68569 0.10493 0.0
H452 H 0.03126 0.54158 0.09219 0.0
H453 H 0.023 0.62014 0.0991 0.0
H454 H 0.03361 0.59924 0.15974 0.0
H455 H 0.04078 0.51991 0.15278 0.0
C456 C 0.02764 0.73074 0.15635 0.0
C457 C 0.03493 0.75916 0.14294 0.0
C458 C 0.02376 0.6856 0.15138 0.0
C459 C 0.02761 0.66766 0.13312 0.0
C460 C 0.0336 0.69801 0.11911 0.0
C461 C 0.03712 0.7436 0.12396 0.0
C462 C 0.03127 0.5536 0.10708 0.0
C463 C 0.03677 0.52541 0.12198 0.0
C464 C 0.02667 0.59864 0.11103 0.0
C465 C 0.02801 0.61675 0.12987 0.0
C466 C 0.03228 0.58675 0.14505 0.0
C467 C 0.03649 0.54122 0.14113 0.0
H468 H 0.24763 0.72015 0.09013 0.0
H469 H 0.24126 0.74437 0.15127 0.0
H470 H 0.25575 0.64139 0.09689 0.0
H471 H 0.24839 0.66482 0.15817 0.0
H472 H 0.2374 0.49641 0.11463 0.0
H473 H 0.24242 0.57562 0.10475 0.0
H474 H 0.26389 0.60101 0.15976 0.0
H475 H 0.2579 0.52235 0.16992 0.0
C476 C 0.24819 0.70856 0.10507 0.0
C477 C 0.24365 0.73769 0.12021 0.0
C478 C 0.25275 0.66342 0.10895 0.0
C479 C 0.25241 0.6461 0.12801 0.0
C480 C 0.24896 0.67676 0.1433 0.0
C481 C 0.24476 0.72238 0.13941 0.0
C482 C 0.2437 0.5185 0.12423 0.0
C483 C 0.24713 0.50386 0.14304 0.0
C484 C 0.24662 0.56408 0.11862 0.0
C485 C 0.25324 0.59537 0.13169 0.0
C486 C 0.25835 0.57845 0.14959 0.0
C487 C 0.2551 0.53327 0.15533 0.0
H488 H 0.97377 0.32728 0.84273 0.0
H489 H 1.00515 0.26854 0.8829 0.0
H490 H 0.98303 0.40378 0.84939 0.0
H491 H 1.01486 0.34618 0.88928 0.0
H492 H 1.00125 0.48645 0.91965 0.0
H493 H 1.00457 0.40903 0.9071 0.0
H494 H 1.00159 0.4621 0.84853 0.0
H495 H 0.99768 0.5401 0.86135 0.0
C496 C 0.98283 0.33062 0.85283 0.0
C497 C 0.98847 0.29187 0.86269 0.0
C498 C 0.98836 0.37469 0.85639 0.0
C499 C 0.99971 0.38136 0.8699 0.0
C500 C 1.006 0.34226 0.87892 0.0
C501 C 1.00042 0.29785 0.87533 0.0
C502 C 1.00177 0.48183 0.90406 0.0
C503 C 0.99874 0.5189 0.89145 0.0
C504 C 1.00382 0.43734 0.89682 0.0
C505 C 1.0029 0.42905 0.8768 0.0
C506 C 1.00194 0.46726 0.86408 0.0
C507 C 0.99984 0.51199 0.87138 0.0
H508 H 0.78916 0.45742 0.83757 0.0
H509 H 0.79208 0.48149 0.89916 0.0
H510 H 0.78002 0.37937 0.8435 0.0
H511 H 0.78401 0.40248 0.90534 0.0
H512 H 0.79551 0.23262 0.86278 0.0
H513 H 0.79177 0.31209 0.85245 0.0
H514 H 0.76807 0.34015 0.90565 0.0
H515 H 0.77286 0.26111 0.91638 0.0
C516 C 0.78767 0.44588 0.85241 0.0
C517 C 0.79149 0.47477 0.86796 0.0
C518 C 0.78252 0.40113 0.85583 0.0
C519 C 0.78156 0.38389 0.87488 0.0
C520 C 0.78441 0.41433 0.89045 0.0
C521 C 0.78918 0.45961 0.88699 0.0
C522 C 0.78897 0.25535 0.87183 0.0
C523 C 0.78458 0.24127 0.89037 0.0
C524 C 0.7868 0.30115 0.86597 0.0
C525 C 0.77996 0.33326 0.87848 0.0
C526 C 0.77384 0.31697 0.89594 0.0
C527 C 0.77636 0.27154 0.90198 0.0
H528 H 0.02792 0.01929 0.63294 0.0
H529 H 0.05973 0.07858 0.59345 0.0
H530 H 0.01818 0.09681 0.63938 0.0
H531 H 0.05039 0.15506 0.60016 0.0
H532 H 0.03494 0.29115 0.61194 0.0
H533 H 0.03151 0.21298 0.59903 0.0
H534 H 0.02853 0.15948 0.65753 0.0
H535 H 0.03147 0.23703 0.67018 0.0
C536 C 0.03274 0.04871 0.62553 0.0
C537 C 0.04481 0.0429 0.61305 0.0
C538 C 0.02714 0.09304 0.62915 0.0
C539 C 0.03351 0.13225 0.62032 0.0
C540 C 0.04501 0.12582 0.60699 0.0
C541 C 0.05057 0.0818 0.6034 0.0
C542 C 0.03289 0.26287 0.62193 0.0
C543 C 0.03386 0.26973 0.64202 0.0
C544 C 0.03106 0.21807 0.61458 0.0
C545 C 0.0302 0.17979 0.62726 0.0
C546 C 0.0292 0.1879 0.6473 0.0
C547 C 0.03101 0.23244 0.65458 0.0
H548 H 0.25175 0.01877 0.66545 0.0
H549 H 0.24264 0.96599 0.60815 0.0
H550 H 0.25378 0.09647 0.65254 0.0
H551 H 0.24519 0.04423 0.59489 0.0
H552 H 0.21747 0.17957 0.5933 0.0
H553 H 0.22678 0.10259 0.59909 0.0
H554 H 0.26244 0.15931 0.63305 0.0
H555 H 0.25276 0.23735 0.6276 0.0
C556 C 0.2508 0.02365 0.6499 0.0
C557 C 0.24662 0.98674 0.63785 0.0
C558 C 0.25207 0.06828 0.64245 0.0
C559 C 0.2492 0.07684 0.62276 0.0
C560 C 0.24707 0.03883 0.61025 0.0
C561 C 0.24576 0.99396 0.61776 0.0
C562 C 0.22737 0.17591 0.60191 0.0
C563 C 0.2342 0.21462 0.61034 0.0
C564 C 0.23288 0.13157 0.60495 0.0
C565 C 0.24542 0.12459 0.61647 0.0
C566 C 0.25269 0.16349 0.62421 0.0
C567 C 0.24712 0.20813 0.62117 0.0
H568 H 1.00624 0.99723 0.38472 0.0
H569 H 0.97883 0.93883 0.42978 0.0
H570 H 1.01543 0.91957 0.37713 0.0
H571 H 0.98746 0.86236 0.42194 0.0
H572 H 1.00008 0.72546 0.40712 0.0
H573 H 1.00528 0.80308 0.41955 0.0
H574 H 1.00378 0.85718 0.36103 0.0
H575 H 0.9993 0.78017 0.34879 0.0
C576 C 1.00232 0.96801 0.39312 0.0
C577 C 0.99152 0.97401 0.40746 0.0
C578 C 1.00757 0.92355 0.38881 0.0
C579 C 1.00211 0.88447 0.39879 0.0
C580 C 0.99212 0.89133 0.41406 0.0
C581 C 0.98693 0.9354 0.41833 0.0
C582 C 1.00147 0.75373 0.39693 0.0
C583 C 0.99882 0.74718 0.37709 0.0
C584 C 1.00433 0.79827 0.40402 0.0
C585 C 1.00446 0.83671 0.39135 0.0
C586 C 1.00372 0.82875 0.37129 0.0
C587 C 1.00096 0.78446 0.36425 0.0
H588 H 0.7923 0.7782 0.37091 0.0
H589 H 0.7876 0.80149 0.43237 0.0
H590 H 0.78469 0.85754 0.36453 0.0
H591 H 0.77893 0.87995 0.42618 0.0
H592 H 0.79597 0.02602 0.40806 0.0
H593 H 0.79146 0.94661 0.41798 0.0
H594 H 0.76907 0.92076 0.36364 0.0
H595 H 0.77461 0.99968 0.35338 0.0
C596 C 0.78907 0.79995 0.38298 0.0
C597 C 0.79077 0.78447 0.40207 0.0
C598 C 0.78458 0.84545 0.3794 0.0
C599 C 0.78141 0.8758 0.3949 0.0
C600 C 0.7817 0.85823 0.41393 0.0
C601 C 0.78657 0.81325 0.41749 0.0
C602 C 0.78956 1.0038 0.39865 0.0
C603 C 0.78575 0.01843 0.37996 0.0
C604 C 0.78694 0.95805 0.40427 0.0
C605 C 0.78024 0.92656 0.39137 0.0
C606 C 0.77471 0.94346 0.37367 0.0
C607 C 0.77767 0.98881 0.36789 0.0
H608 H 0.53064 0.76642 0.62008 0.0
H609 H 0.54436 0.70958 0.67517 0.0
H610 H 0.52323 0.68888 0.60951 0.0
H611 H 0.53756 0.63293 0.66459 0.0
H612 H 0.52993 0.49454 0.64373 0.0
H613 H 0.52206 0.57212 0.65374 0.0
H614 H 0.53936 0.62836 0.60018 0.0
H615 H 0.54662 0.55177 0.59014 0.0
C616 C 0.53176 0.73762 0.63005 0.0
C617 C 0.53851 0.74368 0.64816 0.0
C618 C 0.52757 0.69322 0.62402 0.0
C619 C 0.5301 0.65441 0.63603 0.0
C620 C 0.53537 0.66169 0.65492 0.0
C621 C 0.53952 0.70576 0.66089 0.0
C622 C 0.53162 0.52345 0.63395 0.0
C623 C 0.5393 0.51748 0.61648 0.0
C624 C 0.52716 0.56785 0.63965 0.0
C625 C 0.53034 0.60673 0.62794 0.0
C626 C 0.53664 0.59956 0.60959 0.0
C627 C 0.54105 0.55552 0.60395 0.0
H628 H 0.74193 0.71856 0.5957 0.0
H629 H 0.74848 0.77586 0.6529 0.0
H630 H 0.74714 0.64193 0.60789 0.0
H631 H 0.75437 0.69844 0.66517 0.0
H632 H 0.72966 0.56185 0.68072 0.0
H633 H 0.73721 0.63843 0.67109 0.0
H634 H 0.76079 0.58095 0.62222 0.0
H635 H 0.75265 0.5032 0.63168 0.0
C636 C 0.7449 0.71487 0.61085 0.0
C637 C 0.74429 0.75292 0.62353 0.0
C638 C 0.74812 0.6708 0.61781 0.0
C639 C 0.75085 0.66369 0.63763 0.0
C640 C 0.75194 0.70263 0.64989 0.0
C641 C 0.74865 0.747 0.64288 0.0
C642 C 0.73658 0.56526 0.66799 0.0
C643 C 0.74017 0.52657 0.65659 0.0
C644 C 0.74116 0.60939 0.66265 0.0
C645 C 0.74951 0.61615 0.64575 0.0
C646 C 0.75415 0.577 0.63517 0.0
C647 C 0.74951 0.5325 0.64055 0.0
H648 H 0.49535 0.5378 0.36235 0.0
H649 H 0.49596 0.48214 0.42052 0.0
H650 H 0.49927 0.45984 0.34938 0.0
H651 H 0.49946 0.40492 0.40778 0.0
H652 H 0.50234 0.26585 0.38291 0.0
H653 H 0.51139 0.34377 0.39014 0.0
H654 H 0.4805 0.40084 0.3489 0.0
H655 H 0.47182 0.32392 0.34142 0.0
C656 C 0.4968 0.50918 0.37234 0.0
C657 C 0.49495 0.51555 0.39235 0.0
C658 C 0.49896 0.46457 0.36496 0.0
C659 C 0.49931 0.42603 0.37754 0.0
C660 C 0.49925 0.4336 0.39765 0.0
C661 C 0.49707 0.47791 0.40496 0.0
C662 C 0.49767 0.29508 0.37522 0.0
C663 C 0.48612 0.28884 0.36197 0.0
C664 C 0.50289 0.33963 0.37929 0.0
C665 C 0.49664 0.37857 0.37015 0.0
C666 C 0.48575 0.37177 0.35601 0.0
C667 C 0.48057 0.32751 0.35198 0.0
H668 H 0.27897 0.49733 0.3839 0.0
H669 H 0.31091 0.44003 0.34416 0.0
H670 H 0.26961 0.41933 0.39034 0.0
H671 H 0.30194 0.36303 0.35089 0.0
H672 H 0.2868 0.22608 0.36254 0.0
H673 H 0.28325 0.30442 0.34975 0.0
H674 H 0.28028 0.35691 0.40835 0.0
H675 H 0.28333 0.27922 0.42087 0.0
C676 C 0.28391 0.46824 0.37645 0.0
C677 C 0.29589 0.47477 0.36387 0.0
C678 C 0.27852 0.42363 0.38007 0.0
C679 C 0.28503 0.38484 0.37116 0.0
C680 C 0.29646 0.39195 0.35777 0.0
C681 C 0.3018 0.43626 0.35417 0.0
C682 C 0.28476 0.25419 0.37257 0.0
C683 C 0.28574 0.24702 0.39265 0.0
C684 C 0.28284 0.29907 0.3653 0.0
C685 C 0.28192 0.33711 0.37805 0.0
C686 C 0.28098 0.32867 0.39807 0.0
C687 C 0.28288 0.28407 0.40529 0.0
H688 H 0.53547 0.28463 0.11149 0.0
H689 H 0.53176 0.23145 0.16986 0.0
H690 H 0.53143 0.2066 0.09877 0.0
H691 H 0.5283 0.154 0.1574 0.0
H692 H 0.5273 0.01348 0.13338 0.0
H693 H 0.51783 0.0914 0.13966 0.0
H694 H 0.54987 0.14788 0.09972 0.0
H695 H 0.5589 0.07107 0.09314 0.0
C696 C 0.53327 0.25661 0.12155 0.0
C697 C 0.53436 0.26363 0.14162 0.0
C698 C 0.53108 0.21187 0.11431 0.0
C699 C 0.53003 0.1738 0.12708 0.0
C700 C 0.52913 0.18222 0.1471 0.0
C701 C 0.53126 0.22671 0.15428 0.0
C702 C 0.53214 0.04261 0.12579 0.0
C703 C 0.54407 0.0362 0.11314 0.0
C704 C 0.52669 0.08717 0.12931 0.0
C705 C 0.5331 0.12602 0.12024 0.0
C706 C 0.54445 0.11896 0.10675 0.0
C707 C 0.54984 0.07473 0.10324 0.0
H708 H 0.73671 0.99063 0.11416 0.0
H709 H 0.75589 0.01723 0.17022 0.0
H710 H 0.74142 0.07023 0.10459 0.0
H711 H 0.76167 0.09628 0.16037 0.0
H712 H 0.73886 0.23876 0.15123 0.0
H713 H 0.74618 0.15952 0.15829 0.0
H714 H 0.75448 0.13646 0.09718 0.0
H715 H 0.74609 0.21486 0.09023 0.0
C716 C 0.74262 0.01308 0.12403 0.0
C717 C 0.74579 0.99848 0.14292 0.0
C718 C 0.74539 0.05883 0.1186 0.0
C719 C 0.75162 0.09032 0.13191 0.0
C720 C 0.75642 0.07356 0.14999 0.0
C721 C 0.75328 0.02821 0.15557 0.0
C722 C 0.74259 0.21689 0.13946 0.0
C723 C 0.74166 0.23212 0.12023 0.0
C724 C 0.74691 0.17147 0.14343 0.0
C725 C 0.75068 0.14099 0.12822 0.0
C726 C 0.75121 0.15833 0.10917 0.0
C727 C 0.7465 0.20325 0.10519 0.0
H728 H 0.47218 0.83118 0.84183 0.0
H729 H 0.50655 0.77513 0.87823 0.0
H730 H 0.48086 0.9085 0.84802 0.0
H731 H 0.5157 0.85366 0.88403 0.0
H732 H 0.50331 0.9922 0.91622 0.0
H733 H 0.50654 0.91546 0.90298 0.0
H734 H 0.49832 0.96892 0.84536 0.0
H735 H 0.4944 0.04609 0.85897 0.0
C736 C 0.48177 0.8353 0.85098 0.0
C737 C 0.48846 0.79694 0.85992 0.0
C738 C 0.48695 0.87991 0.85426 0.0
C739 C 0.49903 0.88761 0.86652 0.0
C740 C 0.50626 0.84903 0.87465 0.0
C741 C 0.50101 0.80406 0.8714 0.0
C742 C 0.50265 0.98788 0.90063 0.0
C743 C 0.49812 0.02468 0.88867 0.0
C744 C 0.50463 0.94375 0.89297 0.0
C745 C 0.50219 0.93558 0.87316 0.0
C746 C 0.49981 0.97385 0.8608 0.0
C747 C 0.49772 0.01819 0.86853 0.0
H748 H 0.29501 0.7436 0.8636 0.0
H749 H 0.27634 0.77062 0.91995 0.0
H750 H 0.29033 0.8233 0.85409 0.0
H751 H 0.27076 0.84988 0.91024 0.0
H752 H 0.29463 0.99131 0.90041 0.0
H753 H 0.28697 0.91237 0.90777 0.0
H754 H 0.27697 0.89002 0.8471 0.0
H755 H 0.28553 0.96808 0.83981 0.0
C756 C 0.28918 0.76606 0.87355 0.0
C757 C 0.28617 0.7515 0.8925 0.0
C758 C 0.28646 0.81193 0.86816 0.0
C759 C 0.28049 0.8436 0.88161 0.0
C760 C 0.27579 0.82694 0.89974 0.0
C761 C 0.2788 0.78144 0.90524 0.0
C762 C 0.2904 0.96977 0.88882 0.0
C763 C 0.29088 0.98507 0.86957 0.0
C764 C 0.28592 0.92451 0.89297 0.0
C765 C 0.28159 0.89428 0.87793 0.0
C766 C 0.28063 0.91175 0.85895 0.0
C767 C 0.28543 0.9565 0.85478 0.0
H768 H 1.00391 0.62043 0.98393 0.0
H769 H 0.97966 0.49243 0.97913 0.0
H770 H 0.02108 0.58313 1.00621 0.0
H771 H 0.99708 0.45465 1.00062 0.0
H772 H 0.02452 0.41037 0.05339 0.0
H773 H 1.00645 0.4458 0.03197 0.0
H774 H 0.04065 0.52964 1.00611 0.0
H775 H 0.05856 0.49543 0.02813 0.0
C776 C 1.00213 0.58451 0.98781 0.0
C777 C 0.99035 0.55959 0.97974 0.0
C778 C 1.01212 0.56279 1.00037 0.0
C779 C 1.01071 0.51542 1.00506 0.0
C780 C 0.99856 0.49113 0.99756 0.0
C781 C 0.98851 0.51294 0.98517 0.0
C782 C 0.02825 0.43562 0.04284 0.0
C783 C 0.04303 0.44994 0.0425 0.0
C784 C 0.01784 0.4562 0.03055 0.0
C785 C 0.02195 0.49138 0.01742 0.0
C786 C 0.03691 0.50374 0.01637 0.0
C787 C 0.04728 0.48351 0.0288 0.0
H788 H 0.30614 0.78133 0.98086 0.0
H789 H 0.28165 0.65354 0.98487 0.0
H790 H 0.2884 0.81897 1.00199 0.0
H791 H 0.26413 0.69077 1.00664 0.0
H792 H 0.22617 0.77924 0.02625 0.0
H793 H 0.24468 0.74549 1.00502 0.0
H794 H 0.2783 0.82645 0.03344 0.0
H795 H 0.25967 0.8613 0.05423 0.0
C796 C 0.29717 0.76084 0.98665 0.0
C797 C 0.29534 0.71431 0.98108 0.0
C798 C 0.28694 0.78257 0.99881 0.0
C799 C 0.27462 0.75832 1.00585 0.0
C800 C 0.27324 0.71104 1.00111 0.0
C801 C 0.28343 0.68937 0.98884 0.0
C802 C 0.23746 0.79064 0.02768 0.0
C803 C 0.24139 0.82312 0.04194 0.0
C804 C 0.24815 0.77068 0.01569 0.0
C805 C 0.26311 0.78232 0.01772 0.0
C806 C 0.26693 0.8166 0.03134 0.0
C807 C 0.2562 0.83684 0.04325 0.0
H808 H 0.05663 0.77046 0.24019 0.0
H809 H 0.02265 0.86038 0.21804 0.0
H810 H 0.03895 0.73467 0.26213 0.0
H811 H 1.00478 0.82327 0.23924 0.0
H812 H 0.97857 0.77281 0.29178 0.0
H813 H 0.99579 0.81148 0.27032 0.0
H814 H 0.01922 0.68263 0.26244 0.0
H815 H 1.0023 0.64446 0.28483 0.0
C816 C 0.04541 0.78301 0.24018 0.0
C817 C 0.04111 0.81854 0.22743 0.0
C818 C 0.03517 0.7619 0.25256 0.0
C819 C 0.02026 0.77522 0.25233 0.0
C820 C 1.01612 0.8121 0.24007 0.0
C821 C 0.02642 0.83364 0.22789 0.0
C822 C 0.98725 0.75242 0.28524 0.0
C823 C 0.98902 0.70539 0.29009 0.0
C824 C 0.99719 0.77475 0.27285 0.0
C825 C 1.00913 0.75061 0.26471 0.0
C826 C 1.01044 0.70289 0.26879 0.0
C827 C 1.00058 0.68067 0.28141 0.0
H828 H 0.25314 0.40642 0.23423 0.0
H829 H 0.22748 0.5322 0.23397 0.0
H830 H 0.27091 0.44275 0.25591 0.0
H831 H 0.24541 0.56891 0.25514 0.0
H832 H 0.27514 0.60673 0.30712 0.0
H833 H 0.25624 0.57231 0.28663 0.0
H834 H 0.28979 0.50054 0.25406 0.0
H835 H 0.30864 0.53401 0.27486 0.0
C836 C 0.25115 0.44156 0.23903 0.0
C837 C 0.23885 0.46627 0.23231 0.0
C838 C 0.26148 0.46272 0.25125 0.0
C839 C 0.2598 0.50921 0.25704 0.0
C840 C 0.2471 0.5331 0.25109 0.0
C841 C 0.23677 0.51192 0.23892 0.0
C842 C 0.27852 0.58437 0.29533 0.0
C843 C 0.29345 0.5732 0.29268 0.0
C844 C 0.26764 0.56441 0.28359 0.0
C845 C 0.27141 0.53285 0.26885 0.0
C846 C 0.28641 0.52365 0.26558 0.0
C847 C 0.29727 0.54346 0.27735 0.0
H848 H 0.8032 0.27581 0.97996 0.0
H849 H 0.77901 0.14754 0.98429 0.0
H850 H 0.78546 0.31324 1.00115 0.0
H851 H 0.76149 0.18456 1.00613 0.0
H852 H 0.7235 0.2723 0.02634 0.0
H853 H 0.7419 0.23877 1.00487 0.0
H854 H 0.77559 0.32069 0.03267 0.0
H855 H 0.75707 0.35531 0.05368 0.0
C856 C 0.79429 0.25519 0.98582 0.0
C857 C 0.79256 0.20856 0.98035 0.0
C858 C 0.78406 0.27679 0.99802 0.0
C859 C 0.77183 0.25232 1.0052 0.0
C860 C 0.77052 0.20499 1.0005 0.0
C861 C 0.78072 0.18345 0.98819 0.0
C862 C 0.73478 0.28396 0.02758 0.0
C863 C 0.73876 0.31665 0.04173 0.0
C864 C 0.74541 0.26413 0.01545 0.0
C865 C 0.76036 0.27612 0.01723 0.0
C866 C 0.76422 0.31057 0.03075 0.0
C867 C 0.75356 0.33067 0.0428 0.0
H868 H 0.97277 0.23838 0.77398 0.0
H869 H 1.00737 0.1676 0.80496 0.0
H870 H 0.99099 0.27417 0.7528 0.0
H871 H 0.02565 0.20448 0.7842 0.0
H872 H 0.05362 0.24916 0.73162 0.0
H873 H 0.03623 0.21025 0.75292 0.0
H874 H 1.00922 0.33328 0.75384 0.0
H875 H 0.02643 0.3717 0.73193 0.0
C876 C 0.98426 0.22988 0.7761 0.0
C877 C 0.98856 0.19993 0.79117 0.0
C878 C 0.99476 0.25104 0.76413 0.0
C879 C 1.00989 0.24312 0.76695 0.0
C880 C 1.01414 0.21142 0.78146 0.0
C881 C 1.00362 0.19003 0.79337 0.0
C882 C 0.0441 0.2683 0.73662 0.0
C883 C 0.04145 0.31367 0.72998 0.0
C884 C 0.03408 0.24585 0.74888 0.0
C885 C 0.02112 0.26816 0.75495 0.0
C886 C 0.01886 0.31443 0.7491 0.0
C887 C 0.02886 0.33683 0.73675 0.0
H888 H 0.75348 0.3978 0.73249 0.0
H889 H 0.7246 0.51495 0.74014 0.0
H890 H 0.77161 0.4344 0.75356 0.0
H891 H 0.7429 0.55261 0.76022 0.0
H892 H 0.77412 0.59295 0.80924 0.0
H893 H 0.75532 0.55695 0.78931 0.0
H894 H 0.7891 0.49349 0.7541 0.0
H895 H 0.80789 0.52776 0.77479 0.0
C896 C 0.75092 0.43111 0.73885 0.0
C897 C 0.73751 0.45318 0.73467 0.0
C898 C 0.76144 0.4526 0.7507 0.0
C899 C 0.75895 0.4971 0.75847 0.0
C900 C 0.74528 0.51828 0.75479 0.0
C901 C 0.73471 0.49652 0.74321 0.0
C902 C 0.77756 0.57213 0.79699 0.0
C903 C 0.79255 0.56342 0.79361 0.0
C904 C 0.76672 0.55121 0.78551 0.0
C905 C 0.77055 0.52148 0.77012 0.0
C906 C 0.78561 0.51494 0.76611 0.0
C907 C 0.79645 0.53531 0.77779 0.0
H908 H 0.97488 0.99433 0.48979 0.0
H909 H 1.00464 0.10783 0.47871 0.0
H910 H 0.9931 0.95793 0.51046 0.0
H911 H 0.02271 0.0726 0.50032 0.0
H912 H 0.05844 0.97835 0.52292 0.0
H913 H 0.0397 0.012 0.50193 0.0
H914 H 1.00581 0.95665 0.53941 0.0
H915 H 0.02453 0.92124 0.55969 0.0
C916 C 0.98518 0.01229 0.49221 0.0
C917 C 0.98825 0.05416 0.48256 0.0
C918 C 0.9957 0.99127 0.50414 0.0
C919 C 1.00958 0.01176 0.50702 0.0
C920 C 1.01235 0.05492 0.49811 0.0
C921 C 1.00187 0.07566 0.48594 0.0
C922 C 0.04697 0.97247 0.52639 0.0
C923 C 0.04303 0.94676 0.54294 0.0
C924 C 0.03618 0.9925 0.51453 0.0
C925 C 0.02112 0.98798 0.51903 0.0
C926 C 0.01721 0.96074 0.53522 0.0
C927 C 0.028 0.94019 0.54691 0.0
H928 H 0.27632 0.14152 0.48132 0.0
H929 H 0.30382 0.26334 0.48327 0.0
H930 H 0.25864 0.17922 0.50273 0.0
H931 H 0.28598 0.30153 0.5041 0.0
H932 H 0.2558 0.34188 0.55511 0.0
H933 H 0.27456 0.3056 0.53498 0.0
H934 H 0.24063 0.23914 0.50113 0.0
H935 H 0.22191 0.27435 0.52164 0.0
C936 C 0.27872 0.17606 0.48654 0.0
C937 C 0.29153 0.19927 0.48054 0.0
C938 C 0.26845 0.19804 0.49861 0.0
C939 C 0.27068 0.24392 0.50492 0.0
C940 C 0.28385 0.26622 0.49966 0.0
C941 C 0.29414 0.24418 0.48768 0.0
C942 C 0.25232 0.3203 0.54312 0.0
C943 C 0.23731 0.31112 0.54003 0.0
C944 C 0.26311 0.29926 0.53158 0.0
C945 C 0.25919 0.26863 0.51656 0.0
C946 C 0.24413 0.26144 0.51286 0.0
C947 C 0.23335 0.28226 0.52446 0.0
H948 H 0.23111 0.01946 0.72701 0.0
H949 H 0.25467 0.89042 0.73277 0.0
H950 H 0.24898 0.0574 0.74779 0.0
H951 H 0.27231 0.92795 0.75429 0.0
H952 H 0.3105 0.01452 0.77456 0.0
H953 H 0.29216 0.98065 0.7531 0.0
H954 H 0.25869 0.06681 0.77908 0.0
H955 H 0.27717 0.10182 0.79999 0.0
C956 C 0.23991 0.99881 0.73311 0.0
C957 C 0.24142 0.95176 0.72817 0.0
C958 C 0.25022 0.0207 0.74508 0.0
C959 C 0.26231 0.99613 0.7526 0.0
C960 C 0.26341 0.94847 0.74839 0.0
C961 C 0.25314 0.92665 0.73627 0.0
C962 C 0.29929 0.02701 0.77538 0.0
C963 C 0.29535 0.06105 0.78899 0.0
C964 C 0.28868 1.007 0.76326 0.0
C965 C 0.2738 0.0201 0.76454 0.0
C966 C 0.27001 0.05582 0.77753 0.0
C967 C 0.28066 0.07614 0.78952 0.0
H968 H 0.80826 0.73822 0.49513 0.0
H969 H 0.77433 0.66412 0.46432 0.0
H970 H 0.78973 0.77255 0.51618 0.0
H971 H 0.75571 0.69982 0.48478 0.0
H972 H 0.7267 0.74357 0.53594 0.0
H973 H 0.74462 0.70579 0.51522 0.0
H974 H 0.77127 0.82973 0.51566 0.0
H975 H 0.75355 0.86683 0.5372 0.0
C976 C 0.79685 0.7287 0.49302 0.0
C977 C 0.79282 0.69818 0.47807 0.0
C978 C 0.78615 0.74906 0.50491 0.0
C979 C 0.77109 0.73991 0.50204 0.0
C980 C 0.76715 0.70768 0.48761 0.0
C981 C 0.77787 0.68694 0.47587 0.0
C982 C 0.73625 0.76316 0.53137 0.0
C983 C 0.73865 0.80836 0.5383 0.0
C984 C 0.74659 0.74134 0.51943 0.0
C985 C 0.7596 0.76422 0.51387 0.0
C986 C 0.76162 0.81037 0.52 0.0
C987 C 0.75132 0.83205 0.53213 0.0
H988 H 0.76068 0.8944 0.21975 0.0
H989 H 0.7275 0.98731 0.2418 0.0
H990 H 0.77895 0.93067 0.24059 0.0
H991 H 0.74558 0.02239 0.26329 0.0
H992 H 0.78304 0.11073 0.28469 0.0
H993 H 0.76582 0.07305 0.26264 0.0
H994 H 0.788 0.94251 0.27184 0.0
H995 H 0.80551 0.98058 0.29306 0.0
C996 C 0.75718 0.92168 0.22948 0.0
C997 C 0.7426 0.93784 0.2291 0.0
C998 C 0.7677 0.94272 0.24144 0.0
C999 C 0.7639 0.98019 0.25352 0.0
C1000 C 0.7491 0.99463 0.25384 0.0
C1001 C 0.73863 0.97396 0.24172 0.0
C1002 C 0.78443 0.07422 0.28165 0.0
C1003 C 0.79571 0.04883 0.29065 0.0
C1004 C 0.77439 0.05232 0.26922 0.0
C1005 C 0.77526 1.00431 0.26563 0.0
C1006 C 0.78695 0.97946 0.27403 0.0
C1007 C 0.79705 1.00143 0.28627 0.0
H1008 H 0.47858 0.53314 0.49219 0.0
H1009 H 0.51324 0.61341 0.46574 0.0
H1010 H 0.49651 0.49514 0.51308 0.0
H1011 H 0.53131 0.57378 0.4857 0.0
H1012 H 0.55944 0.52207 0.53587 0.0
H1013 H 0.54195 0.56229 0.51542 0.0
H1014 H 0.51483 0.43936 0.51354 0.0
H1015 H 0.53205 0.40001 0.53511 0.0
C1016 C 0.49003 0.54304 0.49099 0.0
C1017 C 0.49443 0.57667 0.4774 0.0
C1018 C 0.5004 0.52061 0.50275 0.0
C1019 C 0.51553 0.53049 0.50101 0.0
C1020 C 0.51982 0.56531 0.48779 0.0
C1021 C 0.50941 0.58831 0.47629 0.0
C1022 C 0.54988 0.50322 0.53084 0.0
C1023 C 0.5472 0.45764 0.53716 0.0
C1024 C 0.53976 0.52646 0.51902 0.0
C1025 C 0.52674 0.50461 0.51284 0.0
C1026 C 0.52446 0.45806 0.51836 0.0
C1027 C 0.53449 0.43505 0.5305 0.0
H1028 H 0.55781 0.74768 0.73388 0.0
H1029 H 0.52882 0.86501 0.72734 0.0
H1030 H 0.53997 0.71018 0.75489 0.0
H1031 H 0.51114 0.82834 0.74913 0.0
H1032 H 0.47524 0.73307 0.77051 0.0
H1033 H 0.49378 0.76769 0.74948 0.0
H1034 H 0.52802 0.70733 0.78487 0.0
H1035 H 0.50946 0.67127 0.80535 0.0
C1036 C 0.54778 0.76614 0.73735 0.0
C1037 C 0.54479 0.80949 0.72886 0.0
C1038 C 0.53748 0.74448 0.74945 0.0
C1039 C 0.52391 0.76569 0.7536 0.0
C1040 C 0.52126 0.8102 0.7459 0.0
C1041 C 0.53152 0.83169 0.73363 0.0
C1042 C 0.48672 0.72633 0.77354 0.0
C1043 C 0.49082 0.69915 0.7896 0.0
C1044 C 0.49741 0.74687 0.76165 0.0
C1045 C 0.51251 0.74126 0.76559 0.0
C1046 C 0.51656 0.71238 0.78119 0.0
C1047 C 0.50587 0.69146 0.79296 0.0
H1048 H 0.50636 0.16171 0.30431 0.0
H1049 H 0.47235 0.23317 0.27247 0.0
H1050 H 0.525 0.19791 0.28388 0.0
H1051 H 0.49093 0.26834 0.25167 0.0
H1052 H 0.52691 0.36495 0.23164 0.0
H1053 H 0.50936 0.32709 0.25326 0.0
H1054 H 0.53588 0.20302 0.25265 0.0
H1055 H 0.5536 0.24132 0.2316 0.0
C1056 C 0.50282 0.18415 0.29261 0.0
C1057 C 0.48782 0.19444 0.29007 0.0
C1058 C 0.51354 0.20515 0.2809 0.0
C1059 C 0.50956 0.23686 0.26627 0.0
C1060 C 0.49449 0.24518 0.2631 0.0
C1061 C 0.48378 0.22438 0.27486 0.0
C1062 C 0.52917 0.32996 0.23647 0.0
C1063 C 0.5417 0.30631 0.22985 0.0
C1064 C 0.51897 0.3079 0.24865 0.0
C1065 C 0.521 0.26152 0.25448 0.0
C1066 C 0.53392 0.23872 0.24859 0.0
C1067 C 0.54413 0.26081 0.23649 0.0
H1068 H 0.50393 0.11208 0.98366 0.0
H1069 H 0.4789 0.98536 0.97972 0.0
H1070 H 0.52122 0.07407 1.00556 0.0
H1071 H 0.49635 0.94708 1.00119 0.0
H1072 H 0.52469 0.90586 0.05436 0.0
H1073 H 0.50622 0.94134 0.03342 0.0
H1074 H 0.54038 0.01681 1.0034 0.0
H1075 H 0.55878 0.98216 0.02458 0.0
C1076 C 0.50197 0.07634 0.98769 0.0
C1077 C 0.49 0.05188 0.97988 0.0
C1078 C 0.51202 0.05427 1.00005 0.0
C1079 C 0.51039 1.00712 1.00491 0.0
C1080 C 0.49799 0.98337 0.99786 0.0
C1081 C 0.48795 1.00544 0.98551 0.0
C1082 C 0.52831 0.92926 0.04302 0.0
C1083 C 0.54326 0.9411 0.0412 0.0
C1084 C 0.51768 0.94983 0.03103 0.0
C1085 C 0.52173 0.98273 0.0169 0.0
C1086 C 0.53678 0.99263 0.01445 0.0
C1087 C 0.54738 0.97217 0.02643 0.0
H1088 H 0.1703 0.43375 0.18104 0.0
H1089 H 0.18266 0.35857 0.12938 0.0
H1090 H 0.14482 0.43615 0.1696 0.0
H1091 H 0.15738 0.36059 0.11819 0.0
H1092 H 0.11404 0.41679 0.09377 0.0
H1093 H 0.13936 0.41526 0.10566 0.0
H1094 H 0.12362 0.38609 0.16352 0.0
H1095 H 0.09841 0.38815 0.15178 0.0
C1096 C 0.1676 0.41743 0.16736 0.0
C1097 C 0.17861 0.39605 0.15618 0.0
C1098 C 0.15298 0.41872 0.1608 0.0
C1099 C 0.14904 0.39886 0.14286 0.0
C1100 C 0.16002 0.37699 0.13187 0.0
C1101 C 0.17455 0.37554 0.13843 0.0
C1102 C 0.11597 0.40997 0.10901 0.0
C1103 C 0.10413 0.40251 0.12175 0.0
C1104 C 0.13051 0.40893 0.11584 0.0
C1105 C 0.13356 0.40059 0.13559 0.0
C1106 C 0.1217 0.39322 0.1483 0.0
C1107 C 0.10722 0.39406 0.14148 0.0
H1108 H 0.09854 0.90511 0.12243 0.0
H1109 H 0.11166 0.84444 0.17708 0.0
H1110 H 0.12394 0.90439 0.11151 0.0
H1111 H 0.13717 0.84294 0.16594 0.0
H1112 H 0.18301 0.89008 0.1475 0.0
H1113 H 0.15762 0.89291 0.15839 0.0
H1114 H 0.14309 0.85192 0.10129 0.0
H1115 H 0.16863 0.8499 0.09021 0.0
C1116 C 0.10684 0.89156 0.13217 0.0
C1117 C 0.10298 0.87484 0.1507 0.0
C1118 C 0.12144 0.89084 0.12579 0.0
C1119 C 0.13266 0.87338 0.13775 0.0
C1120 C 0.12885 0.85711 0.15639 0.0
C1121 C 0.1142 0.85783 0.16278 0.0
C1122 C 0.17443 0.88178 0.13717 0.0
C1123 C 0.17793 0.86973 0.11792 0.0
C1124 C 0.15983 0.88308 0.14351 0.0
C1125 C 0.14825 0.87237 0.13081 0.0
C1126 C 0.1517 0.86084 0.11146 0.0
C1127 C 0.16636 0.85953 0.10509 0.0
H1128 H 0.86626 0.59947 0.8411 0.0
H1129 H 0.85077 0.628 0.89913 0.0
H1130 H 0.89164 0.60526 0.85251 0.0
H1131 H 0.876 0.63462 0.91038 0.0
H1132 H 0.92301 0.59319 0.92804 0.0
H1133 H 0.89756 0.58837 0.91685 0.0
H1134 H 0.90949 0.66043 0.86418 0.0
H1135 H 0.93485 0.66452 0.87513 0.0
C1136 C 0.86824 0.6073 0.85623 0.0
C1137 C 0.85642 0.61319 0.86915 0.0
C1138 C 0.88281 0.61081 0.86279 0.0
C1139 C 0.88592 0.6203 0.88243 0.0
C1140 C 0.87408 0.62654 0.89526 0.0
C1141 C 0.85956 0.62306 0.88872 0.0
C1142 C 0.92018 0.60826 0.91414 0.0
C1143 C 0.93105 0.62916 0.90253 0.0
C1144 C 0.90556 0.60561 0.90771 0.0
C1145 C 0.90143 0.62377 0.88951 0.0
C1146 C 0.91227 0.6453 0.87809 0.0
C1147 C 0.92684 0.64796 0.88449 0.0
H1148 H 0.91606 0.15044 0.84061 0.0
H1149 H 0.9329 0.14006 0.89905 0.0
H1150 H 0.891 0.14543 0.85315 0.0
H1151 H 0.90791 0.13425 0.91151 0.0
H1152 H 0.86045 0.17718 0.92795 0.0
H1153 H 0.88583 0.18015 0.91622 0.0
H1154 H 0.8741 0.09188 0.86813 0.0
H1155 H 0.84886 0.08952 0.87956 0.0
C1156 C 0.91444 0.14669 0.8561 0.0
C1157 C 0.92655 0.14564 0.86877 0.0
C1158 C 0.90006 0.14365 0.86332 0.0
C1159 C 0.89738 0.13948 0.8834 0.0
C1160 C 0.90951 0.13809 0.89602 0.0
C1161 C 0.92387 0.14107 0.88881 0.0
C1162 C 0.86332 0.15813 0.91498 0.0
C1163 C 0.85254 0.13331 0.90471 0.0
C1164 C 0.87789 0.15973 0.90824 0.0
C1165 C 0.88203 0.13658 0.89109 0.0
C1166 C 0.8713 0.11091 0.88115 0.0
C1167 C 0.85679 0.10931 0.88784 0.0
H1168 H 0.18323 0.82992 0.63011 0.0
H1169 H 0.17274 0.92085 0.67787 0.0
H1170 H 0.15796 0.83397 0.61893 0.0
H1171 H 0.14731 0.92544 0.6664 0.0
H1172 H 0.11669 0.89625 0.59107 0.0
H1173 H 0.14169 0.88906 0.60361 0.0
H1174 H 0.12469 0.88164 0.66206 0.0
H1175 H 0.09978 0.88956 0.6496 0.0
C1176 C 0.17552 0.85071 0.63832 0.0
C1177 C 0.18011 0.87523 0.6549 0.0
C1178 C 0.161 0.8533 0.63177 0.0
C1179 C 0.15058 0.88048 0.64157 0.0
C1180 C 0.15501 0.90393 0.65853 0.0
C1181 C 0.1696 0.90134 0.66511 0.0
C1182 C 0.11827 0.89289 0.60658 0.0
C1183 C 0.10617 0.89347 0.61927 0.0
C1184 C 0.13262 0.88857 0.6138 0.0
C1185 C 0.13526 0.88477 0.6339 0.0
C1186 C 0.12314 0.8851 0.64655 0.0
C1187 C 0.1088 0.88931 0.63934 0.0
H1188 H 0.09626 0.42488 0.62602 0.0
H1189 H 0.10893 0.34632 0.67672 0.0
H1190 H 0.12138 0.42191 0.6141 0.0
H1191 H 0.13414 0.34253 0.66452 0.0
H1192 H 0.18075 0.37927 0.64546 0.0
H1193 H 0.1559 0.38747 0.65805 0.0
H1194 H 0.13848 0.36773 0.60036 0.0
H1195 H 0.16345 0.36047 0.58764 0.0
C1196 C 0.10441 0.407 0.63469 0.0
C1197 C 0.1005 0.38572 0.65237 0.0
C1198 C 0.11884 0.405 0.62773 0.0
C1199 C 0.12983 0.38162 0.6382 0.0
C1200 C 0.12602 0.36123 0.65612 0.0
C1201 C 0.11154 0.3633 0.66312 0.0
C1202 C 0.17164 0.37691 0.63538 0.0
C1203 C 0.17415 0.36917 0.61548 0.0
C1204 C 0.15735 0.38128 0.64268 0.0
C1205 C 0.14511 0.37804 0.6303 0.0
C1206 C 0.14762 0.37097 0.61033 0.0
C1207 C 0.16195 0.36664 0.60301 0.0
H1208 H 0.86263 0.08369 0.34371 0.0
H1209 H 0.85048 0.16722 0.39314 0.0
H1210 H 0.88797 0.08099 0.35554 0.0
H1211 H 0.87568 0.1651 0.40469 0.0
H1212 H 0.91794 0.10715 0.43151 0.0
H1213 H 0.89286 0.11129 0.419 0.0
H1214 H 0.90976 0.12809 0.36084 0.0
H1215 H 0.93477 0.12319 0.37325 0.0
C1216 C 0.86536 0.10186 0.35695 0.0
C1217 C 0.85443 0.1255 0.36745 0.0
C1218 C 0.87991 0.10042 0.36374 0.0
C1219 C 0.88389 0.12253 0.38119 0.0
C1220 C 0.873 0.14691 0.39142 0.0
C1221 C 0.85852 0.14839 0.38466 0.0
C1222 C 0.91632 0.11192 0.41607 0.0
C1223 C 0.92843 0.11485 0.40344 0.0
C1224 C 0.90192 0.11447 0.40887 0.0
C1225 C 0.89924 0.11998 0.38886 0.0
C1226 C 0.91137 0.12319 0.37627 0.0
C1227 C 0.92574 0.12071 0.38346 0.0
H1228 H 0.9349 0.60197 0.3963 0.0
H1229 H 0.92249 0.6685 0.34255 0.0
H1230 H 0.90953 0.6052 0.40733 0.0
H1231 H 0.89705 0.67253 0.35382 0.0
H1232 H 0.85058 0.63123 0.372 0.0
H1233 H 0.87586 0.62539 0.36086 0.0
H1234 H 0.89123 0.65954 0.41837 0.0
H1235 H 0.8658 0.66451 0.42969 0.0
C1236 C 0.92676 0.61731 0.38678 0.0
C1237 C 0.93081 0.63497 0.36847 0.0
C1238 C 0.91219 0.61948 0.39323 0.0
C1239 C 0.90119 0.63937 0.38157 0.0
C1240 C 0.90518 0.6565 0.36314 0.0
C1241 C 0.91979 0.65432 0.35667 0.0
C1242 C 0.85932 0.6374 0.38235 0.0
C1243 C 0.85609 0.64838 0.4018 0.0
C1244 C 0.87387 0.63436 0.37588 0.0
C1245 C 0.88565 0.64221 0.38863 0.0
C1246 C 0.88245 0.65276 0.40815 0.0
C1247 C 0.86785 0.6558 0.41466 0.0
H1248 H 0.61503 0.40889 0.59136 0.0
H1249 H 0.59773 0.36049 0.64615 0.0
H1250 H 0.63983 0.40721 0.60484 0.0
H1251 H 0.62248 0.35775 0.65943 0.0
H1252 H 0.66684 0.40964 0.68338 0.0
H1253 H 0.64193 0.40756 0.67015 0.0
H1254 H 0.659 0.35678 0.61569 0.0
H1255 H 0.6838 0.3599 0.6287 0.0
C1256 C 0.61651 0.39739 0.60619 0.0
C1257 C 0.60432 0.38495 0.61763 0.0
C1258 C 0.63077 0.39625 0.61394 0.0
C1259 C 0.63323 0.38248 0.63331 0.0
C1260 C 0.62104 0.36931 0.6446 0.0
C1261 C 0.60681 0.37057 0.63689 0.0
C1262 C 0.66525 0.39768 0.66865 0.0
C1263 C 0.67738 0.38515 0.65713 0.0
C1264 C 0.65095 0.39636 0.66104 0.0
C1265 C 0.64839 0.38231 0.64174 0.0
C1266 C 0.66051 0.36869 0.63044 0.0
C1267 C 0.67477 0.37015 0.63801 0.0
H1268 H 0.59834 0.89345 0.62023 0.0
H1269 H 0.61396 0.8547 0.67717 0.0
H1270 H 0.62353 0.89632 0.60842 0.0
H1271 H 0.63924 0.85676 0.6652 0.0
H1272 H 0.68329 0.9094 0.64288 0.0
H1273 H 0.658 0.90961 0.65421 0.0
H1274 H 0.64408 0.84662 0.60048 0.0
H1275 H 0.6695 0.84713 0.58891 0.0
C1276 C 0.60715 0.88551 0.63028 0.0
C1277 C 0.60406 0.87388 0.64972 0.0
C1278 C 0.62163 0.88683 0.62342 0.0
C1279 C 0.63348 0.87662 0.63578 0.0
C1280 C 0.63042 0.86538 0.65528 0.0
C1281 C 0.6159 0.86403 0.66217 0.0
C1282 C 0.67486 0.89575 0.63336 0.0
C1283 C 0.67851 0.87816 0.61492 0.0
C1284 C 0.66032 0.89556 0.63998 0.0
C1285 C 0.64895 0.87778 0.62839 0.0
C1286 C 0.65252 0.86097 0.60977 0.0
C1287 C 0.66712 0.86115 0.60312 0.0
H1288 H 0.43465 0.68078 0.37838 0.0
H1289 H 0.42215 0.60269 0.42929 0.0
H1290 H 0.40941 0.67877 0.3669 0.0
H1291 H 0.39679 0.59985 0.41753 0.0
H1292 H 0.36722 0.61807 0.34078 0.0
H1293 H 0.39223 0.62476 0.35335 0.0
H1294 H 0.37501 0.64481 0.41115 0.0
H1295 H 0.35011 0.63718 0.39869 0.0
C1296 C 0.4265 0.66326 0.38721 0.0
C1297 C 0.4305 0.64174 0.40478 0.0
C1298 C 0.412 0.6618 0.38049 0.0
C1299 C 0.40103 0.63868 0.39111 0.0
C1300 C 0.40491 0.6183 0.409 0.0
C1301 C 0.41947 0.61986 0.41577 0.0
C1302 C 0.36876 0.62417 0.35614 0.0
C1303 C 0.3566 0.62702 0.36867 0.0
C1304 C 0.38312 0.62819 0.36338 0.0
C1305 C 0.3857 0.63525 0.38333 0.0
C1306 C 0.37351 0.63868 0.39578 0.0
C1307 C 0.35918 0.63463 0.38856 0.0
H1308 H 0.43192 0.12904 0.39675 0.0
H1309 H 0.41441 0.14757 0.339 0.0
H1310 H 0.40709 0.12281 0.40964 0.0
H1311 H 0.38948 0.14215 0.35201 0.0
H1312 H 0.34722 0.0868 0.37833 0.0
H1313 H 0.37231 0.08841 0.36629 0.0
H1314 H 0.3855 0.1694 0.41595 0.0
H1315 H 0.36028 0.16712 0.42827 0.0
C1316 C 0.42277 0.13173 0.38675 0.0
C1317 C 0.42522 0.13879 0.36677 0.0
C1318 C 0.4085 0.12851 0.39422 0.0
C1319 C 0.39622 0.13216 0.38194 0.0
C1320 C 0.39866 0.13862 0.36191 0.0
C1321 C 0.41297 0.14188 0.35442 0.0
C1322 C 0.35545 0.10476 0.38682 0.0
C1323 C 0.35165 0.12698 0.4043 0.0
C1324 C 0.36987 0.10596 0.37978 0.0
C1325 C 0.38096 0.12944 0.38998 0.0
C1326 C 0.37728 0.15067 0.40775 0.0
C1327 C 0.3628 0.14944 0.41483 0.0
H1328 H 0.67103 0.91804 0.17886 0.0
H1329 H 0.68364 0.83725 0.12885 0.0
H1330 H 0.64568 0.91992 0.16701 0.0
H1331 H 0.65844 0.8384 0.1173 0.0
H1332 H 0.61614 0.89636 0.0905 0.0
H1333 H 0.64116 0.89155 0.10317 0.0
H1334 H 0.624 0.87355 0.16114 0.0
H1335 H 0.59907 0.87926 0.14858 0.0
C1336 C 0.66839 0.90016 0.16551 0.0
C1337 C 0.67945 0.87772 0.15481 0.0
C1338 C 0.65383 0.90116 0.1587 0.0
C1339 C 0.64999 0.87969 0.14104 0.0
C1340 C 0.661 0.85618 0.1307 0.0
C1341 C 0.67548 0.85523 0.13746 0.0
C1342 C 0.6177 0.89112 0.10593 0.0
C1343 C 0.60554 0.88823 0.11847 0.0
C1344 C 0.63206 0.88819 0.11322 0.0
C1345 C 0.63466 0.88224 0.13324 0.0
C1346 C 0.62248 0.87885 0.14572 0.0
C1347 C 0.60814 0.88178 0.13844 0.0
H1348 H 0.66632 0.34907 0.09114 0.0
H1349 H 0.68179 0.38254 0.1487 0.0
H1350 H 0.64094 0.35281 0.10282 0.0
H1351 H 0.65657 0.38689 0.1602 0.0
H1352 H 0.61005 0.34152 0.17873 0.0
H1353 H 0.63547 0.33807 0.16721 0.0
H1354 H 0.62275 0.40783 0.11437 0.0
H1355 H 0.59746 0.41075 0.12565 0.0
C1356 C 0.66434 0.35751 0.10622 0.0
C1357 C 0.67616 0.36548 0.11892 0.0
C1358 C 0.64977 0.35981 0.11293 0.0
C1359 C 0.64667 0.37001 0.13252 0.0
C1360 C 0.65851 0.37823 0.14513 0.0
C1361 C 0.67301 0.37607 0.13844 0.0
C1362 C 0.61269 0.35638 0.16472 0.0
C1363 C 0.60164 0.37635 0.15317 0.0
C1364 C 0.62729 0.35449 0.1581 0.0
C1365 C 0.63118 0.37242 0.13976 0.0
C1366 C 0.62015 0.39293 0.12838 0.0
C1367 C 0.60562 0.39492 0.13499 0.0
H1368 H 0.43018 0.19729 0.89316 0.0
H1369 H 0.42569 0.05823 0.91544 0.0
H1370 H 0.40507 0.19384 0.88044 0.0
H1371 H 0.40065 0.05435 0.90209 0.0
H1372 H 0.36555 0.05755 0.84983 0.0
H1373 H 0.39046 0.06149 0.86362 0.0
H1374 H 0.37786 0.18075 0.89731 0.0
H1375 H 0.35293 0.17603 0.88411 0.0
C1376 C 0.42377 0.16614 0.89549 0.0
C1377 C 0.42986 0.12816 0.90544 0.0
C1378 C 0.40943 0.16416 0.88816 0.0
C1379 C 0.40101 0.12369 0.89013 0.0
C1380 C 0.40699 0.08582 0.90026 0.0
C1381 C 0.42122 0.08824 0.90807 0.0
C1382 C 0.36816 0.08482 0.86004 0.0
C1383 C 0.3573 0.11656 0.86585 0.0
C1384 C 0.38234 0.08679 0.86805 0.0
C1385 C 0.38602 0.12126 0.88161 0.0
C1386 C 0.3753 0.15382 0.88692 0.0
C1387 C 0.36106 0.15113 0.87933 0.0
H1388 H 0.43451 0.64194 0.89653 0.0
H1389 H 0.41709 0.65301 0.8384 0.0
H1390 H 0.40967 0.63714 0.90947 0.0
H1391 H 0.39214 0.649 0.85145 0.0
H1392 H 0.36276 0.6826 0.92702 0.0
H1393 H 0.38798 0.68425 0.91464 0.0
H1394 H 0.37508 0.59663 0.86687 0.0
H1395 H 0.35001 0.59559 0.87894 0.0
C1396 C 0.42538 0.6433 0.88645 0.0
C1397 C 0.42786 0.64784 0.86636 0.0
C1398 C 0.4111 0.64091 0.89394 0.0
C1399 C 0.39884 0.64289 0.88157 0.0
C1400 C 0.4013 0.64684 0.86143 0.0
C1401 C 0.41563 0.64928 0.85392 0.0
C1402 C 0.36534 0.6634 0.91398 0.0
C1403 C 0.35428 0.63917 0.90399 0.0
C1404 C 0.37982 0.66425 0.90687 0.0
C1405 C 0.38358 0.64088 0.88961 0.0
C1406 C 0.37257 0.6158 0.87995 0.0
C1407 C 0.35817 0.61495 0.88701 0.0
H1408 H 0.04931 0.03905 0.17202 0.0
H1409 H 0.03676 0.01355 0.1126 0.0
H1410 H 0.04711 0.12201 0.16656 0.0
H1411 H 0.03381 0.0964 0.1073 0.0
H1412 H 0.05128 0.24416 0.09763 0.0
H1413 H 0.04876 0.16129 0.10296 0.0
H1414 H 0.03253 0.18723 0.16094 0.0
H1415 H 0.0358 0.27007 0.15583 0.0
C1416 C 0.04571 0.05117 0.15792 0.0
C1417 C 0.04333 0.01982 0.14271 0.0
C1418 C 0.04437 0.09886 0.15477 0.0
C1419 C 0.0404 0.11629 0.13639 0.0
C1420 C 0.03724 0.08453 0.1215 0.0
C1421 C 0.03881 0.03693 0.12457 0.0
C1422 C 0.04698 0.23215 0.11141 0.0
C1423 C 0.04385 0.26361 0.12635 0.0
C1424 C 0.04545 0.1845 0.11447 0.0
C1425 C 0.04054 0.16718 0.13248 0.0
C1426 C 0.03668 0.19902 0.14705 0.0
C1427 C 0.03843 0.24661 0.14407 0.0
H1428 H 0.24512 0.0156 0.09953 0.0
H1429 H 0.23341 0.99876 0.15986 0.0
H1430 H 0.24809 0.09866 0.10459 0.0
H1431 H 0.23565 0.08161 0.16474 0.0
H1432 H 0.24632 0.23171 0.17218 0.0
H1433 H 0.24998 0.14886 0.16703 0.0
H1434 H 0.23264 0.16254 0.10888 0.0
H1435 H 0.22968 0.24507 0.11377 0.0
C1436 C 0.24329 0.02958 0.1139 0.0
C1437 C 0.23894 1.0006 0.12924 0.0
C1438 C 0.24487 0.07731 0.11679 0.0
C1439 C 0.24193 0.09726 0.13504 0.0
C1440 C 0.23821 0.06776 0.15055 0.0
C1441 C 0.23682 0.02007 0.14771 0.0
C1442 C 0.24351 0.217 0.15822 0.0
C1443 C 0.23765 0.24495 0.14343 0.0
C1444 C 0.2455 0.16942 0.15528 0.0
C1445 C 0.24152 0.14862 0.13756 0.0
C1446 C 0.23609 0.17709 0.12261 0.0
C1447 C 0.23427 0.2246 0.12547 0.0
H1448 H 0.98471 0.80164 0.92043 0.0
H1449 H 0.99491 0.77353 0.86044 0.0
H1450 H 0.98644 0.88444 0.9141 0.0
H1451 H 0.99743 0.85614 0.85422 0.0
H1452 H 0.97991 1.00318 0.84411 0.0
H1453 H 0.98255 0.92075 0.85019 0.0
H1454 H 1.0004 0.95011 0.90701 0.0
H1455 H 0.99702 0.03269 0.90117 0.0
C1456 C 0.98768 0.81316 0.90598 0.0
C1457 C 0.98955 0.78105 0.89091 0.0
C1458 C 0.98875 0.86078 0.90233 0.0
C1459 C 0.99195 0.87746 0.88355 0.0
C1460 C 0.99458 0.84496 0.86874 0.0
C1461 C 0.99326 0.79744 0.87233 0.0
C1462 C 0.98461 0.99207 0.85779 0.0
C1463 C 0.98818 0.02453 0.87218 0.0
C1464 C 0.9862 0.94459 0.86129 0.0
C1465 C 0.99161 0.92827 0.8792 0.0
C1466 C 0.99587 0.96106 0.89322 0.0
C1467 C 0.99407 0.00854 0.88981 0.0
H1468 H 0.78776 0.98941 0.86358 0.0
H1469 H 0.79871 0.96126 0.92335 0.0
H1470 H 0.78493 0.90686 0.85759 0.0
H1471 H 0.79673 0.87851 0.91723 0.0
H1472 H 0.78637 0.73041 0.90488 0.0
H1473 H 0.78279 0.81288 0.9106 0.0
H1474 H 0.7997 0.84242 0.85322 0.0
H1475 H 0.80247 0.76003 0.84726 0.0
C1476 C 0.7895 0.96548 0.87547 0.0
C1477 C 0.79352 0.98177 0.89391 0.0
C1478 C 0.78801 0.91802 0.87201 0.0
C1479 C 0.79081 0.88554 0.88681 0.0
C1480 C 0.79428 0.90216 0.90548 0.0
C1481 C 0.7955 0.94974 0.90902 0.0
C1482 C 0.78906 0.7546 0.89338 0.0
C1483 C 0.79474 0.73872 0.87564 0.0
C1484 C 0.78714 0.802 0.89672 0.0
C1485 C 0.79111 0.83479 0.88251 0.0
C1486 C 0.79629 0.81855 0.86447 0.0
C1487 C 0.79796 0.77112 0.86104 0.0
H1488 H 0.03509 0.78497 0.65196 0.0
H1489 H 0.05181 0.75386 0.59483 0.0
H1490 H 0.03115 0.70266 0.65794 0.0
H1491 H 0.04861 0.67169 0.60104 0.0
H1492 H 0.03563 0.52539 0.61157 0.0
H1493 H 0.03331 0.60804 0.60531 0.0
H1494 H 0.04482 0.63633 0.66501 0.0
H1495 H 0.04636 0.55354 0.67138 0.0
C1496 C 0.03782 0.76054 0.64061 0.0
C1497 C 0.04379 0.77598 0.62293 0.0
C1498 C 0.0357 0.71321 0.6441 0.0
C1499 C 0.03969 0.68005 0.63009 0.0
C1500 C 0.04516 0.69586 0.61213 0.0
C1501 C 0.04708 0.74318 0.60855 0.0
C1502 C 0.03742 0.54932 0.62343 0.0
C1503 C 0.04125 0.53294 0.64195 0.0
C1504 C 0.03622 0.59684 0.61981 0.0
C1505 C 0.03908 0.62933 0.63454 0.0
C1506 C 0.04234 0.61268 0.6533 0.0
C1507 C 0.0433 0.56506 0.65698 0.0
H1508 H 0.24211 0.4967 0.59232 0.0
H1509 H 0.2336 0.47793 0.65346 0.0
H1510 H 0.24592 0.57928 0.59765 0.0
H1511 H 0.23664 0.56046 0.6587 0.0
H1512 H 0.24823 0.71025 0.66601 0.0
H1513 H 0.25111 0.62733 0.66019 0.0
H1514 H 0.23128 0.64382 0.60359 0.0
H1515 H 0.2291 0.72633 0.60907 0.0
C1516 C 0.24118 0.51015 0.60693 0.0
C1517 C 0.23747 0.48076 0.62243 0.0
C1518 C 0.24322 0.55764 0.60999 0.0
C1519 C 0.24137 0.57706 0.62859 0.0
C1520 C 0.23834 0.54708 0.64422 0.0
C1521 C 0.23651 0.49955 0.64119 0.0
C1522 C 0.24471 0.69613 0.65222 0.0
C1523 C 0.2384 0.72492 0.63804 0.0
C1524 C 0.24625 0.64848 0.64891 0.0
C1525 C 0.24136 0.62841 0.63143 0.0
C1526 C 0.23544 0.65771 0.61709 0.0
C1527 C 0.23408 0.70526 0.6203 0.0
H1528 H 0.98455 0.46348 0.35044 0.0
H1529 H 0.9951 0.49292 0.4102 0.0
H1530 H 0.98653 0.38086 0.357 0.0
H1531 H 0.99786 0.41047 0.41664 0.0
H1532 H 0.98124 0.26249 0.42736 0.0
H1533 H 0.98338 0.34505 0.42107 0.0
H1534 H 1.00083 0.316 0.36399 0.0
H1535 H 0.99794 0.23334 0.37004 0.0
C1536 C 0.98764 0.4523 0.36489 0.0
C1537 C 0.98956 0.48474 0.37982 0.0
C1538 C 0.98886 0.40477 0.36867 0.0
C1539 C 0.99225 0.38849 0.38745 0.0
C1540 C 0.99487 0.42133 0.40213 0.0
C1541 C 0.99342 0.46876 0.3984 0.0
C1542 C 0.98573 0.27373 0.41357 0.0
C1543 C 0.98934 0.24131 0.39917 0.0
C1544 C 0.98704 0.32127 0.40995 0.0
C1545 C 0.99219 0.3377 0.39191 0.0
C1546 C 0.99649 0.30498 0.37788 0.0
C1547 C 0.99497 0.25745 0.38141 0.0
H1548 H 0.80061 0.29782 0.34782 0.0
H1549 H 0.78908 0.26958 0.40743 0.0
H1550 H 0.79818 0.38052 0.35379 0.0
H1551 H 0.78581 0.35203 0.41325 0.0
H1552 H 0.80248 0.49992 0.42363 0.0
H1553 H 0.80021 0.41733 0.41778 0.0
H1554 H 0.78376 0.44535 0.36006 0.0
H1555 H 0.78683 0.52806 0.36568 0.0
C1556 C 0.79718 0.30929 0.36208 0.0
C1557 C 0.79517 0.27728 0.37719 0.0
C1558 C 0.7957 0.35682 0.36553 0.0
C1559 C 0.79192 0.37341 0.38411 0.0
C1560 C 0.78912 0.34091 0.3989 0.0
C1561 C 0.79087 0.29351 0.39553 0.0
C1562 C 0.79816 0.48845 0.4098 0.0
C1563 C 0.79493 0.52051 0.39508 0.0
C1564 C 0.79678 0.4409 0.40642 0.0
C1565 C 0.7919 0.4242 0.38833 0.0
C1566 C 0.7879 0.45662 0.37399 0.0
C1567 C 0.78952 0.50415 0.37728 0.0
H1568 H 0.53679 1.00015 0.61202 0.0
H1569 H 0.54972 0.03057 0.67089 0.0
H1570 H 0.53385 0.08256 0.60554 0.0
H1571 H 0.54749 0.11302 0.66425 0.0
H1572 H 0.53575 0.26017 0.65168 0.0
H1573 H 0.5328 0.17766 0.65796 0.0
H1574 H 0.5485 0.14773 0.60009 0.0
H1575 H 0.55074 0.23026 0.59361 0.0
C1576 C 0.53892 0.02449 0.62363 0.0
C1577 C 0.54353 0.00879 0.64196 0.0
C1578 C 0.53736 0.07187 0.61987 0.0
C1579 C 0.54059 0.1049 0.63426 0.0
C1580 C 0.54469 0.08892 0.65282 0.0
C1581 C 0.54604 0.04148 0.65665 0.0
C1582 C 0.53833 0.23592 0.6402 0.0
C1583 C 0.54352 0.25178 0.62216 0.0
C1584 C 0.53677 0.18848 0.64385 0.0
C1585 C 0.54058 0.15558 0.62966 0.0
C1586 C 0.54525 0.17172 0.61135 0.0
C1587 C 0.54661 0.21921 0.60762 0.0
H1588 H 0.7451 0.24313 0.67696 0.0
H1589 H 0.73398 0.26441 0.61672 0.0
H1590 H 0.74828 0.16055 0.67083 0.0
H1591 H 0.73637 0.18205 0.61075 0.0
H1592 H 0.74719 0.03302 0.60106 0.0
H1593 H 0.75054 0.11545 0.60747 0.0
H1594 H 0.73363 0.09581 0.66557 0.0
H1595 H 0.73104 0.01362 0.65942 0.0
C1596 C 0.74344 0.23022 0.66238 0.0
C1597 C 0.73923 0.26037 0.64737 0.0
C1598 C 0.74513 0.18273 0.65886 0.0
C1599 C 0.74241 0.16408 0.64031 0.0
C1600 C 0.73878 0.19477 0.62516 0.0
C1601 C 0.73731 0.24224 0.62862 0.0
C1602 C 0.74442 0.04632 0.61528 0.0
C1603 C 0.7388 0.01673 0.62968 0.0
C1604 C 0.74623 0.09372 0.61895 0.0
C1605 C 0.74224 0.11283 0.63702 0.0
C1606 C 0.73707 0.0827 0.65158 0.0
C1607 C 0.73547 0.03534 0.648 0.0
H1608 H 0.49949 0.79482 0.41769 0.0
H1609 H 0.4823 0.77775 0.35976 0.0
H1610 H 0.50236 0.87773 0.41181 0.0
H1611 H 0.48439 0.86027 0.35419 0.0
H1612 H 0.49414 0.00846 0.34354 0.0
H1613 H 0.49846 0.92611 0.34896 0.0
H1614 H 0.48765 0.94346 0.40964 0.0
H1615 H 0.48418 0.02576 0.40434 0.0
C1616 C 0.49641 0.80872 0.40367 0.0
C1617 C 0.49061 0.77969 0.38924 0.0
C1618 C 0.49794 0.85638 0.40031 0.0
C1619 C 0.49349 0.87621 0.38255 0.0
C1620 C 0.48819 0.84662 0.36793 0.0
C1621 C 0.48688 0.79905 0.37118 0.0
C1622 C 0.49298 0.99472 0.35809 0.0
C1623 C 0.48873 0.02361 0.37347 0.0
C1624 C 0.49532 0.94736 0.36121 0.0
C1625 C 0.4932 0.92758 0.37972 0.0
C1626 C 0.4896 0.95712 0.39523 0.0
C1627 C 0.4875 1.00452 0.39217 0.0
H1628 H 0.29774 0.73807 0.4067 0.0
H1629 H 0.28761 0.75502 0.34592 0.0
H1630 H 0.29444 0.8205 0.41178 0.0
H1631 H 0.28348 0.83749 0.35112 0.0
H1632 H 0.30011 0.98542 0.36125 0.0
H1633 H 0.29783 0.90286 0.35604 0.0
H1634 H 0.27989 0.88672 0.41379 0.0
H1635 H 0.28294 0.96967 0.41931 0.0
C1636 C 0.29441 0.75927 0.39449 0.0
C1637 C 0.29309 0.74004 0.37586 0.0
C1638 C 0.29242 0.80674 0.39743 0.0
C1639 C 0.28884 0.8362 0.38184 0.0
C1640 C 0.28661 0.81629 0.36341 0.0
C1641 C 0.28884 0.76887 0.36042 0.0
C1642 C 0.29551 0.9644 0.37279 0.0
C1643 C 0.29182 0.98414 0.39076 0.0
C1644 C 0.29408 0.91683 0.36974 0.0
C1645 C 0.28872 0.8876 0.38449 0.0
C1646 C 0.28435 0.9078 0.4022 0.0
C1647 C 0.28598 0.95547 0.40534 0.0
H1648 H 0.55133 0.52492 0.11045 0.0
H1649 H 0.53374 0.53943 0.16832 0.0
H1650 H 0.54896 0.60756 0.10534 0.0
H1651 H 0.53061 0.62243 0.1629 0.0
H1652 H 0.54748 0.7722 0.15601 0.0
H1653 H 0.54479 0.68947 0.16102 0.0
H1654 H 0.53433 0.67226 0.10025 0.0
H1655 H 0.53785 0.75508 0.09512 0.0
C1656 C 0.54664 0.54569 0.12197 0.0
C1657 C 0.54282 0.52556 0.13986 0.0
C1658 C 0.54516 0.5933 0.11898 0.0
C1659 C 0.53961 0.62219 0.13369 0.0
C1660 C 0.5352 0.60163 0.15133 0.0
C1661 C 0.53688 0.55393 0.15442 0.0
C1662 C 0.5444 0.75087 0.14376 0.0
C1663 C 0.54302 0.77021 0.12512 0.0
C1664 C 0.54276 0.70321 0.14665 0.0
C1665 C 0.53949 0.67363 0.13102 0.0
C1666 C 0.53723 0.69356 0.11257 0.0
C1667 C 0.53911 0.74119 0.10963 0.0
H1668 H 0.73296 0.49329 0.15877 0.0
H1669 H 0.74516 0.50689 0.09847 0.0
H1670 H 0.73645 0.57574 0.16335 0.0
H1671 H 0.74943 0.58951 0.10323 0.0
H1672 H 0.74825 0.72405 0.17056 0.0
H1673 H 0.75155 0.64104 0.16552 0.0
H1674 H 0.7349 0.65539 0.10704 0.0
H1675 H 0.73235 0.73803 0.11181 0.0
C1676 C 0.73676 0.51376 0.14657 0.0
C1677 C 0.73862 0.49363 0.12819 0.0
C1678 C 0.73888 0.56121 0.14923 0.0
C1679 C 0.74312 0.58972 0.13363 0.0
C1680 C 0.74583 0.56895 0.11549 0.0
C1681 C 0.74349 0.5215 0.11276 0.0
C1682 C 0.74556 0.70945 0.15654 0.0
C1683 C 0.73995 0.73757 0.14164 0.0
C1684 C 0.74734 0.66179 0.15366 0.0
C1685 C 0.74335 0.64111 0.13592 0.0
C1686 C 0.73832 0.66981 0.12081 0.0
C1687 C 0.73674 0.7174 0.12359 0.0
H1688 H 0.4781 0.28407 0.86029 0.0
H1689 H 0.49806 0.29879 0.91676 0.0
H1690 H 0.48088 0.36643 0.8546 0.0
H1691 H 0.50153 0.38145 0.91074 0.0
H1692 H 0.49352 0.51233 0.84258 0.0
H1693 H 0.49613 0.42932 0.8481 0.0
H1694 H 0.48794 0.45005 0.90928 0.0
H1695 H 0.4861 0.53291 0.90383 0.0
C1696 C 0.48337 0.30481 0.87138 0.0
C1697 C 0.48778 0.2848 0.88904 0.0
C1698 C 0.48508 0.35225 0.86804 0.0
C1699 C 0.49144 0.38112 0.88218 0.0
C1700 C 0.49635 0.36069 0.89961 0.0
C1701 C 0.49446 0.31317 0.90305 0.0
C1702 C 0.49257 0.49917 0.85725 0.0
C1703 C 0.48954 0.52928 0.87273 0.0
C1704 C 0.49392 0.45143 0.86043 0.0
C1705 C 0.49203 0.43245 0.87913 0.0
C1706 C 0.48965 0.46302 0.89471 0.0
C1707 C 0.48851 0.51077 0.89156 0.0
H1708 H 0.30103 0.24574 0.90713 0.0
H1709 H 0.28876 0.26208 0.84699 0.0
H1710 H 0.29814 0.32829 0.91218 0.0
H1711 H 0.28514 0.34484 0.85222 0.0
H1712 H 0.28655 0.4772 0.92018 0.0
H1713 H 0.28331 0.39427 0.9148 0.0
H1714 H 0.30006 0.41003 0.85643 0.0
H1715 H 0.3026 0.49263 0.86154 0.0
C1716 C 0.29736 0.26684 0.89506 0.0
C1717 C 0.29527 0.24735 0.87659 0.0
C1718 C 0.2956 0.31437 0.898 0.0
C1719 C 0.29152 0.34368 0.88259 0.0
C1720 C 0.28862 0.32365 0.86435 0.0
C1721 C 0.29057 0.27609 0.86135 0.0
C1722 C 0.2893 0.46294 0.90612 0.0
C1723 C 0.2949 0.4915 0.89134 0.0
C1724 C 0.28755 0.4153 0.90305 0.0
C1725 C 0.29153 0.39504 0.88521 0.0
C1726 C 0.29664 0.42413 0.87025 0.0
C1727 C 0.29821 0.47168 0.87324 0.0
loop_
_geom_bond_atom_site_label_1
_geom_bond_atom_site_label_2
_geom_bond_distance
_geom_bond_site_symmetry_2
_ccdc_geom_bond_type
O0 Cd1 2.223 . S
O0 C8 1.315 . S
Cd1 O0 2.223 . S
Cd1 O4 2.297 . S
Cd1 O5 2.439 . S
Cd1 O11 2.240 . S
Cd2 O3 2.240 . S
Cd2 O10 2.223 . S
Cd2 O12 2.297 . S
Cd2 O13 2.439 . S
O3 Cd2 2.240 . S
O3 C8 1.279 . S
O4 Cd1 2.297 . S
O4 C6 1.247 . S
O5 Cd1 2.439 . S
O5 C6 1.208 . S
C6 O4 1.247 . S
C6 O5 1.208 . S
C7 O12 1.247 . S
C7 O13 1.208 . S
C8 O0 1.315 . S
C8 O3 1.279 . S
C9 O10 1.315 . S
C9 O11 1.279 . S
O10 Cd2 2.223 . S
O10 C9 1.315 . S
O11 Cd1 2.240 . S
O11 C9 1.279 . S
O12 Cd2 2.297 . S
O12 C7 1.247 . S
O13 Cd2 2.439 . S
O13 C7 1.208 . S
O14 Cd15 2.223 . S
O14 C22 1.315 . S
Cd15 O14 2.223 . S
Cd15 O18 2.297 . S
Cd15 O19 2.439 . S
Cd15 O25 2.240 . S
Cd16 O17 2.240 . S
Cd16 O24 2.223 . S
Cd16 O26 2.297 . S
Cd16 O27 2.439 . S
O17 Cd16 2.240 . S
O17 C22 1.279 . S
O18 Cd15 2.297 . S
O18 C20 1.247 . S
O19 Cd15 2.439 . S
O19 C20 1.208 . S
C20 O18 1.247 . S
C20 O19 1.208 . S
C21 O26 1.247 . S
C21 O27 1.208 . S
C22 O14 1.315 . S
C22 O17 1.279 . S
C23 O24 1.315 . S
C23 O25 1.279 . S
O24 Cd16 2.223 . S
O24 C23 1.315 . S
O25 Cd15 2.240 . S
O25 C23 1.279 . S
O26 Cd16 2.297 . S
O26 C21 1.247 . S
O27 Cd16 2.439 . S
O27 C21 1.208 . S
O28 Cd29 2.223 . S
O28 C36 1.315 . S
Cd29 O28 2.223 . S
Cd29 O32 2.297 . S
Cd29 O33 2.439 . S
Cd29 O39 2.240 . S
Cd30 O31 2.240 . S
Cd30 O38 2.223 . S
Cd30 O40 2.297 . S
Cd30 O41 2.439 . S
O31 Cd30 2.240 . S
O31 C36 1.279 . S
O32 Cd29 2.297 . S
O32 C34 1.247 . S
O33 Cd29 2.439 . S
O33 C34 1.208 . S
C34 O32 1.247 . S
C34 O33 1.208 . S
C35 O40 1.247 . S
C35 O41 1.208 . S
C36 O28 1.315 . S
C36 O31 1.279 . S
C37 O38 1.315 . S
C37 O39 1.279 . S
O38 Cd30 2.223 . S
O38 C37 1.315 . S
O39 Cd29 2.240 . S
O39 C37 1.279 . S
O40 Cd30 2.297 . S
O40 C35 1.247 . S
O41 Cd30 2.439 . S
O41 C35 1.208 . S
O42 Cd43 2.223 . S
O42 C50 1.315 . S
Cd43 O42 2.223 . S
Cd43 O46 2.297 . S
Cd43 O47 2.439 . S
Cd43 O53 2.240 . S
Cd44 O45 2.240 . S
Cd44 O52 2.223 . S
Cd44 O54 2.297 . S
Cd44 O55 2.439 . S
O45 Cd44 2.240 . S
O45 C50 1.279 . S
O46 Cd43 2.297 . S
O46 C48 1.247 . S
O47 Cd43 2.439 . S
O47 C48 1.208 . S
C48 O46 1.247 . S
C48 O47 1.208 . S
C49 O54 1.247 . S
C49 O55 1.208 . S
C50 O42 1.315 . S
C50 O45 1.279 . S
C51 O52 1.315 . S
C51 O53 1.279 . S
O52 Cd44 2.223 . S
O52 C51 1.315 . S
O53 Cd43 2.240 . S
O53 C51 1.279 . S
O54 Cd44 2.297 . S
O54 C49 1.247 . S
O55 Cd44 2.439 . S
O55 C49 1.208 . S
O56 Cd57 2.223 . S
O56 C64 1.315 . S
Cd57 O56 2.223 . S
Cd57 O60 2.297 . S
Cd57 O61 2.439 . S
Cd57 O67 2.240 . S
Cd58 O59 2.240 . S
Cd58 O66 2.223 . S
Cd58 O68 2.297 . S
Cd58 O69 2.439 . S
O59 Cd58 2.240 . S
O59 C64 1.279 . S
O60 Cd57 2.297 . S
O60 C62 1.247 . S
O61 Cd57 2.439 . S
O61 C62 1.208 . S
C62 O60 1.247 . S
C62 O61 1.208 . S
C63 O68 1.247 . S
C63 O69 1.208 . S
C64 O56 1.315 . S
C64 O59 1.279 . S
C65 O66 1.315 . S
C65 O67 1.279 . S
O66 Cd58 2.223 . S
O66 C65 1.315 . S
O67 Cd57 2.240 . S
O67 C65 1.279 . S
O68 Cd58 2.297 . S
O68 C63 1.247 . S
O69 Cd58 2.439 . S
O69 C63 1.208 . S
O70 Cd71 2.223 . S
O70 C78 1.315 . S
Cd71 O70 2.223 . S
Cd71 O74 2.297 . S
Cd71 O75 2.439 . S
Cd71 O81 2.240 . S
Cd72 O73 2.240 . S
Cd72 O80 2.223 . S
Cd72 O82 2.297 . S
Cd72 O83 2.439 . S
O73 Cd72 2.240 . S
O73 C78 1.279 . S
O74 Cd71 2.297 . S
O74 C76 1.247 . S
O75 Cd71 2.439 . S
O75 C76 1.208 . S
C76 O74 1.247 . S
C76 O75 1.208 . S
C77 O82 1.247 . S
C77 O83 1.208 . S
C78 O70 1.315 . S
C78 O73 1.279 . S
C79 O80 1.315 . S
C79 O81 1.279 . S
O80 Cd72 2.223 . S
O80 C79 1.315 . S
O81 Cd71 2.240 . S
O81 C79 1.279 . S
O82 Cd72 2.297 . S
O82 C77 1.247 . S
O83 Cd72 2.439 . S
O83 C77 1.208 . S
O84 Cd85 2.223 . S
O84 C92 1.315 . S
Cd85 O84 2.223 . S
Cd85 O88 2.297 . S
Cd85 O89 2.439 . S
Cd85 O95 2.240 . S
Cd86 O87 2.240 . S
Cd86 O94 2.223 . S
Cd86 O96 2.297 . S
Cd86 O97 2.439 . S
O87 Cd86 2.240 . S
O87 C92 1.279 . S
O88 Cd85 2.297 . S
O88 C90 1.247 . S
O89 Cd85 2.439 . S
O89 C90 1.208 . S
C90 O88 1.247 . S
C90 O89 1.208 . S
C91 O96 1.247 . S
C91 O97 1.208 . S
C92 O84 1.315 . S
C92 O87 1.279 . S
C93 O94 1.315 . S
C93 O95 1.279 . S
O94 Cd86 2.223 . S
O94 C93 1.315 . S
O95 Cd85 2.240 . S
O95 C93 1.279 . S
O96 Cd86 2.297 . S
O96 C91 1.247 . S
O97 Cd86 2.439 . S
O97 C91 1.208 . S
O98 Cd99 2.223 . S
O98 C106 1.315 . S
Cd99 O98 2.223 . S
Cd99 O102 2.297 . S
Cd99 O103 2.439 . S
Cd99 O109 2.240 . S
Cd100 O101 2.240 . S
Cd100 O108 2.223 . S
Cd100 O110 2.297 . S
Cd100 O111 2.439 . S
O101 Cd100 2.240 . S
O101 C106 1.279 . S
O102 Cd99 2.297 . S
O102 C104 1.247 . S
O103 Cd99 2.439 . S
O103 C104 1.208 . S
C104 O102 1.247 . S
C104 O103 1.208 . S
C105 O110 1.247 . S
C105 O111 1.208 . S
C106 O98 1.315 . S
C106 O101 1.279 . S
C107 O108 1.315 . S
C107 O109 1.279 . S
O108 Cd100 2.223 . S
O108 C107 1.315 . S
O109 Cd99 2.240 . S
O109 C107 1.279 . S
O110 Cd100 2.297 . S
O110 C105 1.247 . S
O111 Cd100 2.439 . S
O111 C105 1.208 . S
O112 Cd113 2.223 . S
O112 C120 1.315 . S
Cd113 O112 2.223 . S
Cd113 O116 2.297 . S
Cd113 O117 2.439 . S
Cd113 O123 2.240 . S
Cd114 O115 2.240 . S
Cd114 O122 2.223 . S
Cd114 O124 2.297 . S
Cd114 O125 2.439 . S
O115 Cd114 2.240 . S
O115 C120 1.279 . S
O116 Cd113 2.297 . S
O116 C118 1.247 . S
O117 Cd113 2.439 . S
O117 C118 1.208 . S
C118 O116 1.247 . S
C118 O117 1.208 . S
C119 O124 1.247 . S
C119 O125 1.208 . S
C120 O112 1.315 . S
C120 O115 1.279 . S
C121 O122 1.315 . S
C121 O123 1.279 . S
O122 Cd114 2.223 . S
O122 C121 1.315 . S
O123 Cd113 2.240 . S
O123 C121 1.279 . S
O124 Cd114 2.297 . S
O124 C119 1.247 . S
O125 Cd114 2.439 . S
O125 C119 1.208 . S
O126 Cd127 2.223 . S
O126 C134 1.315 . S
Cd127 O126 2.223 . S
Cd127 O130 2.297 . S
Cd127 O131 2.439 . S
Cd127 O137 2.240 . S
Cd128 O129 2.240 . S
Cd128 O136 2.223 . S
Cd128 O138 2.297 . S
Cd128 O139 2.439 . S
O129 Cd128 2.240 . S
O129 C134 1.279 . S
O130 Cd127 2.297 . S
O130 C132 1.247 . S
O131 Cd127 2.439 . S
O131 C132 1.208 . S
C132 O130 1.247 . S
C132 O131 1.208 . S
C133 O138 1.247 . S
C133 O139 1.208 . S
C134 O126 1.315 . S
C134 O129 1.279 . S
C135 O136 1.315 . S
C135 O137 1.279 . S
O136 Cd128 2.223 . S
O136 C135 1.315 . S
O137 Cd127 2.240 . S
O137 C135 1.279 . S
O138 Cd128 2.297 . S
O138 C133 1.247 . S
O139 Cd128 2.439 . S
O139 C133 1.208 . S
O140 Cd141 2.223 . S
O140 C148 1.315 . S
Cd141 O140 2.223 . S
Cd141 O144 2.297 . S
Cd141 O145 2.439 . S
Cd141 O151 2.240 . S
Cd142 O143 2.240 . S
Cd142 O150 2.223 . S
Cd142 O152 2.297 . S
Cd142 O153 2.439 . S
O143 Cd142 2.240 . S
O143 C148 1.279 . S
O144 Cd141 2.297 . S
O144 C146 1.247 . S
O145 Cd141 2.439 . S
O145 C146 1.208 . S
C146 O144 1.247 . S
C146 O145 1.208 . S
C147 O152 1.247 . S
C147 O153 1.208 . S
C148 O140 1.315 . S
C148 O143 1.279 . S
C149 O150 1.315 . S
C149 O151 1.279 . S
O150 Cd142 2.223 . S
O150 C149 1.315 . S
O151 Cd141 2.240 . S
O151 C149 1.279 . S
O152 Cd142 2.297 . S
O152 C147 1.247 . S
O153 Cd142 2.439 . S
O153 C147 1.208 . S
O154 Cd155 2.223 . S
O154 C162 1.315 . S
Cd155 O154 2.223 . S
Cd155 O158 2.297 . S
Cd155 O159 2.439 . S
Cd155 O165 2.240 . S
Cd156 O157 2.240 . S
Cd156 O164 2.223 . S
Cd156 O166 2.297 . S
Cd156 O167 2.439 . S
O157 Cd156 2.240 . S
O157 C162 1.279 . S
O158 Cd155 2.297 . S
O158 C160 1.247 . S
O159 Cd155 2.439 . S
O159 C160 1.208 . S
C160 O158 1.247 . S
C160 O159 1.208 . S
C161 O166 1.247 . S
C161 O167 1.208 . S
C162 O154 1.315 . S
C162 O157 1.279 . S
C163 O164 1.315 . S
C163 O165 1.279 . S
O164 Cd156 2.223 . S
O164 C163 1.315 . S
O165 Cd155 2.240 . S
O165 C163 1.279 . S
O166 Cd156 2.297 . S
O166 C161 1.247 . S
O167 Cd156 2.439 . S
O167 C161 1.208 . S
O168 Cd169 2.223 . S
O168 C176 1.315 . S
Cd169 O168 2.223 . S
Cd169 O172 2.297 . S
Cd169 O173 2.439 . S
Cd169 O179 2.240 . S
Cd170 O171 2.240 . S
Cd170 O178 2.223 . S
Cd170 O180 2.297 . S
Cd170 O181 2.439 . S
O171 Cd170 2.240 . S
O171 C176 1.279 . S
O172 Cd169 2.297 . S
O172 C174 1.247 . S
O173 Cd169 2.439 . S
O173 C174 1.208 . S
C174 O172 1.247 . S
C174 O173 1.208 . S
C175 O180 1.247 . S
C175 O181 1.208 . S
C176 O168 1.315 . S
C176 O171 1.279 . S
C177 O178 1.315 . S
C177 O179 1.279 . S
O178 Cd170 2.223 . S
O178 C177 1.315 . S
O179 Cd169 2.240 . S
O179 C177 1.279 . S
O180 Cd170 2.297 . S
O180 C175 1.247 . S
O181 Cd170 2.439 . S
O181 C175 1.208 . S
O182 Cd183 2.223 . S
O182 C190 1.315 . S
Cd183 O182 2.223 . S
Cd183 O186 2.297 . S
Cd183 O187 2.439 . S
Cd183 O193 2.240 . S
Cd184 O185 2.240 . S
Cd184 O192 2.223 . S
Cd184 O194 2.297 . S
Cd184 O195 2.439 . S
O185 Cd184 2.240 . S
O185 C190 1.279 . S
O186 Cd183 2.297 . S
O186 C188 1.247 . S
O187 Cd183 2.439 . S
O187 C188 1.208 . S
C188 O186 1.247 . S
C188 O187 1.208 . S
C189 O194 1.247 . S
C189 O195 1.208 . S
C190 O182 1.315 . S
C190 O185 1.279 . S
C191 O192 1.315 . S
C191 O193 1.279 . S
O192 Cd184 2.223 . S
O192 C191 1.315 . S
O193 Cd183 2.240 . S
O193 C191 1.279 . S
O194 Cd184 2.297 . S
O194 C189 1.247 . S
O195 Cd184 2.439 . S
O195 C189 1.208 . S
O196 Cd197 2.223 . S
O196 C204 1.315 . S
Cd197 O196 2.223 . S
Cd197 O200 2.297 . S
Cd197 O201 2.439 . S
Cd197 O207 2.240 . S
Cd198 O199 2.240 . S
Cd198 O206 2.223 . S
Cd198 O208 2.297 . S
Cd198 O209 2.439 . S
O199 Cd198 2.240 . S
O199 C204 1.279 . S
O200 Cd197 2.297 . S
O200 C202 1.247 . S
O201 Cd197 2.439 . S
O201 C202 1.208 . S
C202 O200 1.247 . S
C202 O201 1.208 . S
C203 O208 1.247 . S
C203 O209 1.208 . S
C204 O196 1.315 . S
C204 O199 1.279 . S
C205 O206 1.315 . S
C205 O207 1.279 . S
O206 Cd198 2.223 . S
O206 C205 1.315 . S
O207 Cd197 2.240 . S
O207 C205 1.279 . S
O208 Cd198 2.297 . S
O208 C203 1.247 . S
O209 Cd198 2.439 . S
O209 C203 1.208 . S
O210 Cd211 2.223 . S
O210 C218 1.315 . S
Cd211 O210 2.223 . S
Cd211 O214 2.297 . S
Cd211 O215 2.439 . S
Cd211 O221 2.240 . S
Cd212 O213 2.240 . S
Cd212 O220 2.223 . S
Cd212 O222 2.297 . S
Cd212 O223 2.439 . S
O213 Cd212 2.240 . S
O213 C218 1.279 . S
O214 Cd211 2.297 . S
O214 C216 1.247 . S
O215 Cd211 2.439 . S
O215 C216 1.208 . S
C216 O214 1.247 . S
C216 O215 1.208 . S
C217 O222 1.247 . S
C217 O223 1.208 . S
C218 O210 1.315 . S
C218 O213 1.279 . S
C219 O220 1.315 . S
C219 O221 1.279 . S
O220 Cd212 2.223 . S
O220 C219 1.315 . S
O221 Cd211 2.240 . S
O221 C219 1.279 . S
O222 Cd212 2.297 . S
O222 C217 1.247 . S
O223 Cd212 2.439 . S
O223 C217 1.208 . S
O224 Cd225 2.223 . S
O224 C232 1.315 . S
Cd225 O224 2.223 . S
Cd225 O228 2.297 . S
Cd225 O229 2.439 . S
Cd225 O235 2.240 . S
Cd226 O227 2.240 . S
Cd226 O234 2.223 . S
Cd226 O236 2.297 . S
Cd226 O237 2.439 . S
O227 Cd226 2.240 . S
O227 C232 1.279 . S
O228 Cd225 2.297 . S
O228 C230 1.247 . S
O229 Cd225 2.439 . S
O229 C230 1.208 . S
C230 O228 1.247 . S
C230 O229 1.208 . S
C231 O236 1.247 . S
C231 O237 1.208 . S
C232 O224 1.315 . S
C232 O227 1.279 . S
C233 O234 1.315 . S
C233 O235 1.279 . S
O234 Cd226 2.223 . S
O234 C233 1.315 . S
O235 Cd225 2.240 . S
O235 C233 1.279 . S
O236 Cd226 2.297 . S
O236 C231 1.247 . S
O237 Cd226 2.439 . S
O237 C231 1.208 . S
O238 Cd239 2.223 . S
O238 C246 1.315 . S
Cd239 O238 2.223 . S
Cd239 O242 2.297 . S
Cd239 O243 2.439 . S
Cd239 O249 2.240 . S
Cd240 O241 2.240 . S
Cd240 O248 2.223 . S
Cd240 O250 2.297 . S
Cd240 O251 2.439 . S
O241 Cd240 2.240 . S
O241 C246 1.279 . S
O242 Cd239 2.297 . S
O242 C244 1.247 . S
O243 Cd239 2.439 . S
O243 C244 1.208 . S
C244 O242 1.247 . S
C244 O243 1.208 . S
C245 O250 1.247 . S
C245 O251 1.208 . S
C246 O238 1.315 . S
C246 O241 1.279 . S
C247 O248 1.315 . S
C247 O249 1.279 . S
O248 Cd240 2.223 . S
O248 C247 1.315 . S
O249 Cd239 2.240 . S
O249 C247 1.279 . S
O250 Cd240 2.297 . S
O250 C245 1.247 . S
O251 Cd240 2.439 . S
O251 C245 1.208 . S
O252 Cd253 2.223 . S
O252 C260 1.315 . S
Cd253 O252 2.223 . S
Cd253 O256 2.297 . S
Cd253 O257 2.439 . S
Cd253 O263 2.240 . S
Cd254 O255 2.240 . S
Cd254 O262 2.223 . S
Cd254 O264 2.297 . S
Cd254 O265 2.439 . S
O255 Cd254 2.240 . S
O255 C260 1.279 . S
O256 Cd253 2.297 . S
O256 C258 1.247 . S
O257 Cd253 2.439 . S
O257 C258 1.208 . S
C258 O256 1.247 . S
C258 O257 1.208 . S
C259 O264 1.247 . S
C259 O265 1.208 . S
C260 O252 1.315 . S
C260 O255 1.279 . S
C261 O262 1.315 . S
C261 O263 1.279 . S
O262 Cd254 2.223 . S
O262 C261 1.315 . S
O263 Cd253 2.240 . S
O263 C261 1.279 . S
O264 Cd254 2.297 . S
O264 C259 1.247 . S
O265 Cd254 2.439 . S
O265 C259 1.208 . S
O266 Cd267 2.223 . S
O266 C274 1.315 . S
Cd267 O266 2.223 . S
Cd267 O270 2.297 . S
Cd267 O271 2.439 . S
Cd267 O277 2.240 . S
Cd268 O269 2.240 . S
Cd268 O276 2.223 . S
Cd268 O278 2.297 . S
Cd268 O279 2.439 . S
O269 Cd268 2.240 . S
O269 C274 1.279 . S
O270 Cd267 2.297 . S
O270 C272 1.247 . S
O271 Cd267 2.439 . S
O271 C272 1.208 . S
C272 O270 1.247 . S
C272 O271 1.208 . S
C273 O278 1.247 . S
C273 O279 1.208 . S
C274 O266 1.315 . S
C274 O269 1.279 . S
C275 O276 1.315 . S
C275 O277 1.279 . S
O276 Cd268 2.223 . S
O276 C275 1.315 . S
O277 Cd267 2.240 . S
O277 C275 1.279 . S
O278 Cd268 2.297 . S
O278 C273 1.247 . S
O279 Cd268 2.439 . S
O279 C273 1.208 . S
O280 Cd281 2.223 . S
O280 C288 1.315 . S
Cd281 O280 2.223 . S
Cd281 O284 2.297 . S
Cd281 O285 2.439 . S
Cd281 O291 2.240 . S
Cd282 O283 2.240 . S
Cd282 O290 2.223 . S
Cd282 O292 2.297 . S
Cd282 O293 2.439 . S
O283 Cd282 2.240 . S
O283 C288 1.279 . S
O284 Cd281 2.297 . S
O284 C286 1.247 . S
O285 Cd281 2.439 . S
O285 C286 1.208 . S
C286 O284 1.247 . S
C286 O285 1.208 . S
C287 O292 1.247 . S
C287 O293 1.208 . S
C288 O280 1.315 . S
C288 O283 1.279 . S
C289 O290 1.315 . S
C289 O291 1.279 . S
O290 Cd282 2.223 . S
O290 C289 1.315 . S
O291 Cd281 2.240 . S
O291 C289 1.279 . S
O292 Cd282 2.297 . S
O292 C287 1.247 . S
O293 Cd282 2.439 . S
O293 C287 1.208 . S
O294 Cd295 2.223 . S
O294 C302 1.315 . S
Cd295 O294 2.223 . S
Cd295 O298 2.297 . S
Cd295 O299 2.439 . S
Cd295 O305 2.240 . S
Cd296 O297 2.240 . S
Cd296 O304 2.223 . S
Cd296 O306 2.297 . S
Cd296 O307 2.439 . S
O297 Cd296 2.240 . S
O297 C302 1.279 . S
O298 Cd295 2.297 . S
O298 C300 1.247 . S
O299 Cd295 2.439 . S
O299 C300 1.208 . S
C300 O298 1.247 . S
C300 O299 1.208 . S
C301 O306 1.247 . S
C301 O307 1.208 . S
C302 O294 1.315 . S
C302 O297 1.279 . S
C303 O304 1.315 . S
C303 O305 1.279 . S
O304 Cd296 2.223 . S
O304 C303 1.315 . S
O305 Cd295 2.240 . S
O305 C303 1.279 . S
O306 Cd296 2.297 . S
O306 C301 1.247 . S
O307 Cd296 2.439 . S
O307 C301 1.208 . S
O308 Cd309 2.223 . S
O308 C316 1.315 . S
Cd309 O308 2.223 . S
Cd309 O312 2.297 . S
Cd309 O313 2.439 . S
Cd309 O319 2.240 . S
Cd310 O311 2.240 . S
Cd310 O318 2.223 . S
Cd310 O320 2.297 . S
Cd310 O321 2.439 . S
O311 Cd310 2.240 . S
O311 C316 1.279 . S
O312 Cd309 2.297 . S
O312 C314 1.247 . S
O313 Cd309 2.439 . S
O313 C314 1.208 . S
C314 O312 1.247 . S
C314 O313 1.208 . S
C315 O320 1.247 . S
C315 O321 1.208 . S
C316 O308 1.315 . S
C316 O311 1.279 . S
C317 O318 1.315 . S
C317 O319 1.279 . S
O318 Cd310 2.223 . S
O318 C317 1.315 . S
O319 Cd309 2.240 . S
O319 C317 1.279 . S
O320 Cd310 2.297 . S
O320 C315 1.247 . S
O321 Cd310 2.439 . S
O321 C315 1.208 . S
O322 Cd323 2.223 . S
O322 C330 1.315 . S
Cd323 O322 2.223 . S
Cd323 O326 2.297 . S
Cd323 O327 2.439 . S
Cd323 O333 2.240 . S
Cd324 O325 2.240 . S
Cd324 O332 2.223 . S
Cd324 O334 2.297 . S
Cd324 O335 2.439 . S
O325 Cd324 2.240 . S
O325 C330 1.279 . S
O326 Cd323 2.297 . S
O326 C328 1.247 . S
O327 Cd323 2.439 . S
O327 C328 1.208 . S
C328 O326 1.247 . S
C328 O327 1.208 . S
C329 O334 1.247 . S
C329 O335 1.208 . S
C330 O322 1.315 . S
C330 O325 1.279 . S
C331 O332 1.315 . S
C331 O333 1.279 . S
O332 Cd324 2.223 . S
O332 C331 1.315 . S
O333 Cd323 2.240 . S
O333 C331 1.279 . S
O334 Cd324 2.297 . S
O334 C329 1.247 . S
O335 Cd324 2.439 . S
O335 C329 1.208 . S
O336 Cd337 2.223 . S
O336 C344 1.315 . S
Cd337 O336 2.223 . S
Cd337 O340 2.297 . S
Cd337 O341 2.439 . S
Cd337 O347 2.240 . S
Cd338 O339 2.240 . S
Cd338 O346 2.223 . S
Cd338 O348 2.297 . S
Cd338 O349 2.439 . S
O339 Cd338 2.240 . S
O339 C344 1.279 . S
O340 Cd337 2.297 . S
O340 C342 1.247 . S
O341 Cd337 2.439 . S
O341 C342 1.208 . S
C342 O340 1.247 . S
C342 O341 1.208 . S
C343 O348 1.247 . S
C343 O349 1.208 . S
C344 O336 1.315 . S
C344 O339 1.279 . S
C345 O346 1.315 . S
C345 O347 1.279 . S
O346 Cd338 2.223 . S
O346 C345 1.315 . S
O347 Cd337 2.240 . S
O347 C345 1.279 . S
O348 Cd338 2.297 . S
O348 C343 1.247 . S
O349 Cd338 2.439 . S
O349 C343 1.208 . S
O350 Cd351 2.223 . S
O350 C358 1.315 . S
Cd351 O350 2.223 . S
Cd351 O354 2.297 . S
Cd351 O355 2.439 . S
Cd351 O361 2.240 . S
Cd352 O353 2.240 . S
Cd352 O360 2.223 . S
Cd352 O362 2.297 . S
Cd352 O363 2.439 . S
O353 Cd352 2.240 . S
O353 C358 1.279 . S
O354 Cd351 2.297 . S
O354 C356 1.247 . S
O355 Cd351 2.439 . S
O355 C356 1.208 . S
C356 O354 1.247 . S
C356 O355 1.208 . S
C357 O362 1.247 . S
C357 O363 1.208 . S
C358 O350 1.315 . S
C358 O353 1.279 . S
C359 O360 1.315 . S
C359 O361 1.279 . S
O360 Cd352 2.223 . S
O360 C359 1.315 . S
O361 Cd351 2.240 . S
O361 C359 1.279 . S
O362 Cd352 2.297 . S
O362 C357 1.247 . S
O363 Cd352 2.439 . S
O363 C357 1.208 . S
O364 Cd365 2.223 . S
O364 C372 1.315 . S
Cd365 O364 2.223 . S
Cd365 O368 2.297 . S
Cd365 O369 2.439 . S
Cd365 O375 2.240 . S
Cd366 O367 2.240 . S
Cd366 O374 2.223 . S
Cd366 O376 2.297 . S
Cd366 O377 2.439 . S
O367 Cd366 2.240 . S
O367 C372 1.279 . S
O368 Cd365 2.297 . S
O368 C370 1.247 . S
O369 Cd365 2.439 . S
O369 C370 1.208 . S
C370 O368 1.247 . S
C370 O369 1.208 . S
C371 O376 1.247 . S
C371 O377 1.208 . S
C372 O364 1.315 . S
C372 O367 1.279 . S
C373 O374 1.315 . S
C373 O375 1.279 . S
O374 Cd366 2.223 . S
O374 C373 1.315 . S
O375 Cd365 2.240 . S
O375 C373 1.279 . S
O376 Cd366 2.297 . S
O376 C371 1.247 . S
O377 Cd366 2.439 . S
O377 C371 1.208 . S
O378 Cd379 2.223 . S
O378 C386 1.315 . S
Cd379 O378 2.223 . S
Cd379 O382 2.297 . S
Cd379 O383 2.439 . S
Cd379 O389 2.240 . S
Cd380 O381 2.240 . S
Cd380 O388 2.223 . S
Cd380 O390 2.297 . S
Cd380 O391 2.439 . S
O381 Cd380 2.240 . S
O381 C386 1.279 . S
O382 Cd379 2.297 . S
O382 C384 1.247 . S
O383 Cd379 2.439 . S
O383 C384 1.208 . S
C384 O382 1.247 . S
C384 O383 1.208 . S
C385 O390 1.247 . S
C385 O391 1.208 . S
C386 O378 1.315 . S
C386 O381 1.279 . S
C387 O388 1.315 . S
C387 O389 1.279 . S
O388 Cd380 2.223 . S
O388 C387 1.315 . S
O389 Cd379 2.240 . S
O389 C387 1.279 . S
O390 Cd380 2.297 . S
O390 C385 1.247 . S
O391 Cd380 2.439 . S
O391 C385 1.208 . S
O392 Cd393 2.223 . S
O392 C400 1.315 . S
Cd393 O392 2.223 . S
Cd393 O396 2.297 . S
Cd393 O397 2.439 . S
Cd393 O403 2.240 . S
Cd394 O395 2.240 . S
Cd394 O402 2.223 . S
Cd394 O404 2.297 . S
Cd394 O405 2.439 . S
O395 Cd394 2.240 . S
O395 C400 1.279 . S
O396 Cd393 2.297 . S
O396 C398 1.247 . S
O397 Cd393 2.439 . S
O397 C398 1.208 . S
C398 O396 1.247 . S
C398 O397 1.208 . S
C399 O404 1.247 . S
C399 O405 1.208 . S
C400 O392 1.315 . S
C400 O395 1.279 . S
C401 O402 1.315 . S
C401 O403 1.279 . S
O402 Cd394 2.223 . S
O402 C401 1.315 . S
O403 Cd393 2.240 . S
O403 C401 1.279 . S
O404 Cd394 2.297 . S
O404 C399 1.247 . S
O405 Cd394 2.439 . S
O405 C399 1.208 . S
O406 Cd407 2.223 . S
O406 C414 1.315 . S
Cd407 O406 2.223 . S
Cd407 O410 2.297 . S
Cd407 O411 2.439 . S
Cd407 O417 2.240 . S
Cd408 O409 2.240 . S
Cd408 O416 2.223 . S
Cd408 O418 2.297 . S
Cd408 O419 2.439 . S
O409 Cd408 2.240 . S
O409 C414 1.279 . S
O410 Cd407 2.297 . S
O410 C412 1.247 . S
O411 Cd407 2.439 . S
O411 C412 1.208 . S
C412 O410 1.247 . S
C412 O411 1.208 . S
C413 O418 1.247 . S
C413 O419 1.208 . S
C414 O406 1.315 . S
C414 O409 1.279 . S
C415 O416 1.315 . S
C415 O417 1.279 . S
O416 Cd408 2.223 . S
O416 C415 1.315 . S
O417 Cd407 2.240 . S
O417 C415 1.279 . S
O418 Cd408 2.297 . S
O418 C413 1.247 . S
O419 Cd408 2.439 . S
O419 C413 1.208 . S
O420 Cd421 2.223 . S
O420 C428 1.315 . S
Cd421 O420 2.223 . S
Cd421 O424 2.297 . S
Cd421 O425 2.439 . S
Cd421 O431 2.240 . S
Cd422 O423 2.240 . S
Cd422 O430 2.223 . S
Cd422 O432 2.297 . S
Cd422 O433 2.439 . S
O423 Cd422 2.240 . S
O423 C428 1.279 . S
O424 Cd421 2.297 . S
O424 C426 1.247 . S
O425 Cd421 2.439 . S
O425 C426 1.208 . S
C426 O424 1.247 . S
C426 O425 1.208 . S
C427 O432 1.247 . S
C427 O433 1.208 . S
C428 O420 1.315 . S
C428 O423 1.279 . S
C429 O430 1.315 . S
C429 O431 1.279 . S
O430 Cd422 2.223 . S
O430 C429 1.315 . S
O431 Cd421 2.240 . S
O431 C429 1.279 . S
O432 Cd422 2.297 . S
O432 C427 1.247 . S
O433 Cd422 2.439 . S
O433 C427 1.208 . S
O434 Cd435 2.223 . S
O434 C442 1.315 . S
Cd435 O434 2.223 . S
Cd435 O438 2.297 . S
Cd435 O439 2.439 . S
Cd435 O445 2.240 . S
Cd436 O437 2.240 . S
Cd436 O444 2.223 . S
Cd436 O446 2.297 . S
Cd436 O447 2.439 . S
O437 Cd436 2.240 . S
O437 C442 1.279 . S
O438 Cd435 2.297 . S
O438 C440 1.247 . S
O439 Cd435 2.439 . S
O439 C440 1.208 . S
C440 O438 1.247 . S
C440 O439 1.208 . S
C441 O446 1.247 . S
C441 O447 1.208 . S
C442 O434 1.315 . S
C442 O437 1.279 . S
C443 O444 1.315 . S
C443 O445 1.279 . S
O444 Cd436 2.223 . S
O444 C443 1.315 . S
O445 Cd435 2.240 . S
O445 C443 1.279 . S
O446 Cd436 2.297 . S
O446 C441 1.247 . S
O447 Cd436 2.439 . S
O447 C441 1.208 . S
H448 C456 0.950 . S
H449 C461 0.950 . S
H450 C458 0.950 . S
H451 C460 0.950 . S
H452 C462 0.950 . S
H453 C464 0.950 . S
H454 C466 0.950 . S
H455 C467 0.950 . S
C456 H448 0.950 . S
C456 C457 1.386 . S
C456 C458 1.391 . S
C457 C456 1.386 . S
C457 C461 1.393 . S
C458 H450 0.950 . S
C458 C456 1.391 . S
C458 C459 1.400 . S
C459 C458 1.400 . S
C459 C460 1.398 . S
C459 C465 1.491 . S
C460 H451 0.950 . S
C460 C459 1.398 . S
C460 C461 1.391 . S
C461 H449 0.950 . S
C461 C457 1.393 . S
C461 C460 1.391 . S
C462 H452 0.950 . S
C462 C463 1.386 . S
C462 C464 1.391 . S
C463 C462 1.386 . S
C463 C467 1.393 . S
C464 H453 0.950 . S
C464 C462 1.391 . S
C464 C465 1.400 . S
C465 C459 1.491 . S
C465 C464 1.400 . S
C465 C466 1.398 . S
C466 H454 0.950 . S
C466 C465 1.398 . S
C466 C467 1.391 . S
C467 H455 0.950 . S
C467 C463 1.393 . S
C467 C466 1.391 . S
H468 C476 0.950 . S
H469 C481 0.950 . S
H470 C478 0.950 . S
H471 C480 0.950 . S
H472 C482 0.950 . S
H473 C484 0.950 . S
H474 C486 0.950 . S
H475 C487 0.950 . S
C476 H468 0.950 . S
C476 C477 1.386 . S
C476 C478 1.391 . S
C477 C476 1.386 . S
C477 C481 1.393 . S
C478 H470 0.950 . S
C478 C476 1.391 . S
C478 C479 1.400 . S
C479 C478 1.400 . S
C479 C480 1.398 . S
C479 C485 1.491 . S
C480 H471 0.950 . S
C480 C479 1.398 . S
C480 C481 1.391 . S
C481 H469 0.950 . S
C481 C477 1.393 . S
C481 C480 1.391 . S
C482 H472 0.950 . S
C482 C483 1.386 . S
C482 C484 1.391 . S
C483 C482 1.386 . S
C483 C487 1.393 . S
C484 H473 0.950 . S
C484 C482 1.391 . S
C484 C485 1.400 . S
C485 C479 1.491 . S
C485 C484 1.400 . S
C485 C486 1.398 . S
C486 H474 0.950 . S
C486 C485 1.398 . S
C486 C487 1.391 . S
C487 H475 0.950 . S
C487 C483 1.393 . S
C487 C486 1.391 . S
H488 C496 0.950 . S
H489 C501 0.950 . S
H490 C498 0.950 . S
H491 C500 0.950 . S
H492 C502 0.950 . S
H493 C504 0.950 . S
H494 C506 0.950 . S
H495 C507 0.950 . S
C496 H488 0.950 . S
C496 C497 1.386 . S
C496 C498 1.391 . S
C497 C496 1.386 . S
C497 C501 1.393 . S
C498 H490 0.950 . S
C498 C496 1.391 . S
C498 C499 1.400 . S
C499 C498 1.400 . S
C499 C500 1.398 . S
C499 C505 1.491 . S
C500 H491 0.950 . S
C500 C499 1.398 . S
C500 C501 1.391 . S
C501 H489 0.950 . S
C501 C497 1.393 . S
C501 C500 1.391 . S
C502 H492 0.950 . S
C502 C503 1.386 . S
C502 C504 1.391 . S
C503 C502 1.386 . S
C503 C507 1.393 . S
C504 H493 0.950 . S
C504 C502 1.391 . S
C504 C505 1.400 . S
C505 C499 1.491 . S
C505 C504 1.400 . S
C505 C506 1.398 . S
C506 H494 0.950 . S
C506 C505 1.398 . S
C506 C507 1.391 . S
C507 H495 0.950 . S
C507 C503 1.393 . S
C507 C506 1.391 . S
H508 C516 0.950 . S
H509 C521 0.950 . S
H510 C518 0.950 . S
H511 C520 0.950 . S
H512 C522 0.950 . S
H513 C524 0.950 . S
H514 C526 0.950 . S
H515 C527 0.950 . S
C516 H508 0.950 . S
C516 C517 1.386 . S
C516 C518 1.391 . S
C517 C516 1.386 . S
C517 C521 1.393 . S
C518 H510 0.950 . S
C518 C516 1.391 . S
C518 C519 1.400 . S
C519 C518 1.400 . S
C519 C520 1.398 . S
C519 C525 1.491 . S
C520 H511 0.950 . S
C520 C519 1.398 . S
C520 C521 1.391 . S
C521 H509 0.950 . S
C521 C517 1.393 . S
C521 C520 1.391 . S
C522 H512 0.950 . S
C522 C523 1.386 . S
C522 C524 1.391 . S
C523 C522 1.386 . S
C523 C527 1.393 . S
C524 H513 0.950 . S
C524 C522 1.391 . S
C524 C525 1.400 . S
C525 C519 1.491 . S
C525 C524 1.400 . S
C525 C526 1.398 . S
C526 H514 0.950 . S
C526 C525 1.398 . S
C526 C527 1.391 . S
C527 H515 0.950 . S
C527 C523 1.393 . S
C527 C526 1.391 . S
H528 C536 0.950 . S
H529 C541 0.950 . S
H530 C538 0.950 . S
H531 C540 0.950 . S
H532 C542 0.950 . S
H533 C544 0.950 . S
H534 C546 0.950 . S
H535 C547 0.950 . S
C536 H528 0.950 . S
C536 C537 1.386 . S
C536 C538 1.391 . S
C537 C536 1.386 . S
C537 C541 1.393 . S
C538 H530 0.950 . S
C538 C536 1.391 . S
C538 C539 1.400 . S
C539 C538 1.400 . S
C539 C540 1.398 . S
C539 C545 1.491 . S
C540 H531 0.950 . S
C540 C539 1.398 . S
C540 C541 1.391 . S
C541 H529 0.950 . S
C541 C537 1.393 . S
C541 C540 1.391 . S
C542 H532 0.950 . S
C542 C543 1.386 . S
C542 C544 1.391 . S
C543 C542 1.386 . S
C543 C547 1.393 . S
C544 H533 0.950 . S
C544 C542 1.391 . S
C544 C545 1.400 . S
C545 C539 1.491 . S
C545 C544 1.400 . S
C545 C546 1.398 . S
C546 H534 0.950 . S
C546 C545 1.398 . S
C546 C547 1.391 . S
C547 H535 0.950 . S
C547 C543 1.393 . S
C547 C546 1.391 . S
H548 C556 0.950 . S
H549 C561 0.950 . S
H550 C558 0.950 . S
H551 C560 0.950 . S
H552 C562 0.950 . S
H553 C564 0.950 . S
H554 C566 0.950 . S
H555 C567 0.950 . S
C556 H548 0.950 . S
C556 C557 1.386 . S
C556 C558 1.391 . S
C557 C556 1.386 . S
C557 C561 1.393 . S
C558 H550 0.950 . S
C558 C556 1.391 . S
C558 C559 1.400 . S
C559 C558 1.400 . S
C559 C560 1.398 . S
C559 C565 1.491 . S
C560 H551 0.950 . S
C560 C559 1.398 . S
C560 C561 1.391 . S
C561 H549 0.950 . S
C561 C557 1.393 . S
C561 C560 1.391 . S
C562 H552 0.950 . S
C562 C563 1.386 . S
C562 C564 1.391 . S
C563 C562 1.386 . S
C563 C567 1.393 . S
C564 H553 0.950 . S
C564 C562 1.391 . S
C564 C565 1.400 . S
C565 C559 1.491 . S
C565 C564 1.400 . S
C565 C566 1.398 . S
C566 H554 0.950 . S
C566 C565 1.398 . S
C566 C567 1.391 . S
C567 H555 0.950 . S
C567 C563 1.393 . S
C567 C566 1.391 . S
H568 C576 0.950 . S
H569 C581 0.950 . S
H570 C578 0.950 . S
H571 C580 0.950 . S
H572 C582 0.950 . S
H573 C584 0.950 . S
H574 C586 0.950 . S
H575 C587 0.950 . S
C576 H568 0.950 . S
C576 C577 1.386 . S
C576 C578 1.391 . S
C577 C576 1.386 . S
C577 C581 1.393 . S
C578 H570 0.950 . S
C578 C576 1.391 . S
C578 C579 1.400 . S
C579 C578 1.400 . S
C579 C580 1.398 . S
C579 C585 1.491 . S
C580 H571 0.950 . S
C580 C579 1.398 . S
C580 C581 1.391 . S
C581 H569 0.950 . S
C581 C577 1.393 . S
C581 C580 1.391 . S
C582 H572 0.950 . S
C582 C583 1.386 . S
C582 C584 1.391 . S
C583 C582 1.386 . S
C583 C587 1.393 . S
C584 H573 0.950 . S
C584 C582 1.391 . S
C584 C585 1.400 . S
C585 C579 1.491 . S
C585 C584 1.400 . S
C585 C586 1.398 . S
C586 H574 0.950 . S
C586 C585 1.398 . S
C586 C587 1.391 . S
C587 H575 0.950 . S
C587 C583 1.393 . S
C587 C586 1.391 . S
H588 C596 0.950 . S
H589 C601 0.950 . S
H590 C598 0.950 . S
H591 C600 0.950 . S
H592 C602 0.950 . S
H593 C604 0.950 . S
H594 C606 0.950 . S
H595 C607 0.950 . S
C596 H588 0.950 . S
C596 C597 1.386 . S
C596 C598 1.391 . S
C597 C596 1.386 . S
C597 C601 1.393 . S
C598 H590 0.950 . S
C598 C596 1.391 . S
C598 C599 1.400 . S
C599 C598 1.400 . S
C599 C600 1.398 . S
C599 C605 1.491 . S
C600 H591 0.950 . S
C600 C599 1.398 . S
C600 C601 1.391 . S
C601 H589 0.950 . S
C601 C597 1.393 . S
C601 C600 1.391 . S
C602 H592 0.950 . S
C602 C603 1.386 . S
C602 C604 1.391 . S
C603 C602 1.386 . S
C603 C607 1.393 . S
C604 H593 0.950 . S
C604 C602 1.391 . S
C604 C605 1.400 . S
C605 C599 1.491 . S
C605 C604 1.400 . S
C605 C606 1.398 . S
C606 H594 0.950 . S
C606 C605 1.398 . S
C606 C607 1.391 . S
C607 H595 0.950 . S
C607 C603 1.393 . S
C607 C606 1.391 . S
H608 C616 0.950 . S
H609 C621 0.950 . S
H610 C618 0.950 . S
H611 C620 0.950 . S
H612 C622 0.950 . S
H613 C624 0.950 . S
H614 C626 0.950 . S
H615 C627 0.950 . S
C616 H608 0.950 . S
C616 C617 1.386 . S
C616 C618 1.391 . S
C617 C616 1.386 . S
C617 C621 1.393 . S
C618 H610 0.950 . S
C618 C616 1.391 . S
C618 C619 1.400 . S
C619 C618 1.400 . S
C619 C620 1.398 . S
C619 C625 1.491 . S
C620 H611 0.950 . S
C620 C619 1.398 . S
C620 C621 1.391 . S
C621 H609 0.950 . S
C621 C617 1.393 . S
C621 C620 1.391 . S
C622 H612 0.950 . S
C622 C623 1.386 . S
C622 C624 1.391 . S
C623 C622 1.386 . S
C623 C627 1.393 . S
C624 H613 0.950 . S
C624 C622 1.391 . S
C624 C625 1.400 . S
C625 C619 1.491 . S
C625 C624 1.400 . S
C625 C626 1.398 . S
C626 H614 0.950 . S
C626 C625 1.398 . S
C626 C627 1.391 . S
C627 H615 0.950 . S
C627 C623 1.393 . S
C627 C626 1.391 . S
H628 C636 0.950 . S
H629 C641 0.950 . S
H630 C638 0.950 . S
H631 C640 0.950 . S
H632 C642 0.950 . S
H633 C644 0.950 . S
H634 C646 0.950 . S
H635 C647 0.950 . S
C636 H628 0.950 . S
C636 C637 1.386 . S
C636 C638 1.391 . S
C637 C636 1.386 . S
C637 C641 1.393 . S
C638 H630 0.950 . S
C638 C636 1.391 . S
C638 C639 1.400 . S
C639 C638 1.400 . S
C639 C640 1.398 . S
C639 C645 1.491 . S
C640 H631 0.950 . S
C640 C639 1.398 . S
C640 C641 1.391 . S
C641 H629 0.950 . S
C641 C637 1.393 . S
C641 C640 1.391 . S
C642 H632 0.950 . S
C642 C643 1.386 . S
C642 C644 1.391 . S
C643 C642 1.386 . S
C643 C647 1.393 . S
C644 H633 0.950 . S
C644 C642 1.391 . S
C644 C645 1.400 . S
C645 C639 1.491 . S
C645 C644 1.400 . S
C645 C646 1.398 . S
C646 H634 0.950 . S
C646 C645 1.398 . S
C646 C647 1.391 . S
C647 H635 0.950 . S
C647 C643 1.393 . S
C647 C646 1.391 . S
H648 C656 0.950 . S
H649 C661 0.950 . S
H650 C658 0.950 . S
H651 C660 0.950 . S
H652 C662 0.950 . S
H653 C664 0.950 . S
H654 C666 0.950 . S
H655 C667 0.950 . S
C656 H648 0.950 . S
C656 C657 1.386 . S
C656 C658 1.391 . S
C657 C656 1.386 . S
C657 C661 1.393 . S
C658 H650 0.950 . S
C658 C656 1.391 . S
C658 C659 1.400 . S
C659 C658 1.400 . S
C659 C660 1.398 . S
C659 C665 1.491 . S
C660 H651 0.950 . S
C660 C659 1.398 . S
C660 C661 1.391 . S
C661 H649 0.950 . S
C661 C657 1.393 . S
C661 C660 1.391 . S
C662 H652 0.950 . S
C662 C663 1.386 . S
C662 C664 1.391 . S
C663 C662 1.386 . S
C663 C667 1.393 . S
C664 H653 0.950 . S
C664 C662 1.391 . S
C664 C665 1.400 . S
C665 C659 1.491 . S
C665 C664 1.400 . S
C665 C666 1.398 . S
C666 H654 0.950 . S
C666 C665 1.398 . S
C666 C667 1.391 . S
C667 H655 0.950 . S
C667 C663 1.393 . S
C667 C666 1.391 . S
H668 C676 0.950 . S
H669 C681 0.950 . S
H670 C678 0.950 . S
H671 C680 0.950 . S
H672 C682 0.950 . S
H673 C684 0.950 . S
H674 C686 0.950 . S
H675 C687 0.950 . S
C676 H668 0.950 . S
C676 C677 1.386 . S
C676 C678 1.391 . S
C677 C676 1.386 . S
C677 C681 1.393 . S
C678 H670 0.950 . S
C678 C676 1.391 . S
C678 C679 1.400 . S
C679 C678 1.400 . S
C679 C680 1.398 . S
C679 C685 1.491 . S
C680 H671 0.950 . S
C680 C679 1.398 . S
C680 C681 1.391 . S
C681 H669 0.950 . S
C681 C677 1.393 . S
C681 C680 1.391 . S
C682 H672 0.950 . S
C682 C683 1.386 . S
C682 C684 1.391 . S
C683 C682 1.386 . S
C683 C687 1.393 . S
C684 H673 0.950 . S
C684 C682 1.391 . S
C684 C685 1.400 . S
C685 C679 1.491 . S
C685 C684 1.400 . S
C685 C686 1.398 . S
C686 H674 0.950 . S
C686 C685 1.398 . S
C686 C687 1.391 . S
C687 H675 0.950 . S
C687 C683 1.393 . S
C687 C686 1.391 . S
H688 C696 0.950 . S
H689 C701 0.950 . S
H690 C698 0.950 . S
H691 C700 0.950 . S
H692 C702 0.950 . S
H693 C704 0.950 . S
H694 C706 0.950 . S
H695 C707 0.950 . S
C696 H688 0.950 . S
C696 C697 1.386 . S
C696 C698 1.391 . S
C697 C696 1.386 . S
C697 C701 1.393 . S
C698 H690 0.950 . S
C698 C696 1.391 . S
C698 C699 1.400 . S
C699 C698 1.400 . S
C699 C700 1.398 . S
C699 C705 1.491 . S
C700 H691 0.950 . S
C700 C699 1.398 . S
C700 C701 1.391 . S
C701 H689 0.950 . S
C701 C697 1.393 . S
C701 C700 1.391 . S
C702 H692 0.950 . S
C702 C703 1.386 . S
C702 C704 1.391 . S
C703 C702 1.386 . S
C703 C707 1.393 . S
C704 H693 0.950 . S
C704 C702 1.391 . S
C704 C705 1.400 . S
C705 C699 1.491 . S
C705 C704 1.400 . S
C705 C706 1.398 . S
C706 H694 0.950 . S
C706 C705 1.398 . S
C706 C707 1.391 . S
C707 H695 0.950 . S
C707 C703 1.393 . S
C707 C706 1.391 . S
H708 C716 0.950 . S
H709 C721 0.950 . S
H710 C718 0.950 . S
H711 C720 0.950 . S
H712 C722 0.950 . S
H713 C724 0.950 . S
H714 C726 0.950 . S
H715 C727 0.950 . S
C716 H708 0.950 . S
C716 C717 1.386 . S
C716 C718 1.391 . S
C717 C716 1.386 . S
C717 C721 1.393 . S
C718 H710 0.950 . S
C718 C716 1.391 . S
C718 C719 1.400 . S
C719 C718 1.400 . S
C719 C720 1.398 . S
C719 C725 1.491 . S
C720 H711 0.950 . S
C720 C719 1.398 . S
C720 C721 1.391 . S
C721 H709 0.950 . S
C721 C717 1.393 . S
C721 C720 1.391 . S
C722 H712 0.950 . S
C722 C723 1.386 . S
C722 C724 1.391 . S
C723 C722 1.386 . S
C723 C727 1.393 . S
C724 H713 0.950 . S
C724 C722 1.391 . S
C724 C725 1.400 . S
C725 C719 1.491 . S
C725 C724 1.400 . S
C725 C726 1.398 . S
C726 H714 0.950 . S
C726 C725 1.398 . S
C726 C727 1.391 . S
C727 H715 0.950 . S
C727 C723 1.393 . S
C727 C726 1.391 . S
H728 C736 0.950 . S
H729 C741 0.950 . S
H730 C738 0.950 . S
H731 C740 0.950 . S
H732 C742 0.950 . S
H733 C744 0.950 . S
H734 C746 0.950 . S
H735 C747 0.950 . S
C736 H728 0.950 . S
C736 C737 1.386 . S
C736 C738 1.391 . S
C737 C736 1.386 . S
C737 C741 1.393 . S
C738 H730 0.950 . S
C738 C736 1.391 . S
C738 C739 1.400 . S
C739 C738 1.400 . S
C739 C740 1.398 . S
C739 C745 1.491 . S
C740 H731 0.950 . S
C740 C739 1.398 . S
C740 C741 1.391 . S
C741 H729 0.950 . S
C741 C737 1.393 . S
C741 C740 1.391 . S
C742 H732 0.950 . S
C742 C743 1.386 . S
C742 C744 1.391 . S
C743 C742 1.386 . S
C743 C747 1.393 . S
C744 H733 0.950 . S
C744 C742 1.391 . S
C744 C745 1.400 . S
C745 C739 1.491 . S
C745 C744 1.400 . S
C745 C746 1.398 . S
C746 H734 0.950 . S
C746 C745 1.398 . S
C746 C747 1.391 . S
C747 H735 0.950 . S
C747 C743 1.393 . S
C747 C746 1.391 . S
H748 C756 0.950 . S
H749 C761 0.950 . S
H750 C758 0.950 . S
H751 C760 0.950 . S
H752 C762 0.961 . S
H753 C764 0.950 . S
H754 C766 0.950 . S
H755 C767 0.950 . S
C756 H748 0.950 . S
C756 C757 1.386 . S
C756 C758 1.391 . S
C757 C756 1.386 . S
C757 C761 1.393 . S
C758 H750 0.950 . S
C758 C756 1.391 . S
C758 C759 1.400 . S
C759 C758 1.400 . S
C759 C760 1.398 . S
C759 C765 1.491 . S
C760 H751 0.950 . S
C760 C759 1.398 . S
C760 C761 1.391 . S
C761 H749 0.950 . S
C761 C757 1.393 . S
C761 C760 1.391 . S
C762 H752 0.961 . S
C762 C763 1.386 . S
C762 C764 1.391 . S
C763 C762 1.386 . S
C763 C767 1.393 . S
C764 H753 0.950 . S
C764 C762 1.391 . S
C764 C765 1.400 . S
C765 C759 1.491 . S
C765 C764 1.400 . S
C765 C766 1.398 . S
C766 H754 0.950 . S
C766 C765 1.398 . S
C766 C767 1.391 . S
C767 H755 0.950 . S
C767 C763 1.393 . S
C767 C766 1.391 . S
H768 C776 0.950 . S
H769 C781 0.950 . S
H770 C778 0.923 1_455 S
H771 C780 0.950 . S
H772 C782 0.950 . S
H773 C784 0.923 1_655 S
H774 C786 0.950 . S
H775 C787 0.950 . S
C776 H768 0.950 . S
C776 C777 1.386 . S
C776 C778 1.409 . S
C777 C776 1.386 . S
C777 C781 1.393 . S
C778 H770 0.923 1_655 S
C778 C776 1.409 . S
C778 C779 1.409 . S
C779 C778 1.409 . S
C779 C780 1.398 . S
C779 C785 1.491 1_656 S
C780 H771 0.950 . S
C780 C779 1.398 . S
C780 C781 1.391 . S
C781 H769 0.950 . S
C781 C777 1.393 . S
C781 C780 1.391 . S
C782 H772 0.950 . S
C782 C783 1.386 . S
C782 C784 1.409 . S
C783 C782 1.386 . S
C783 C787 1.393 . S
C784 H773 0.923 1_455 S
C784 C782 1.409 . S
C784 C785 1.409 . S
C785 C779 1.491 1_454 S
C785 C784 1.409 . S
C785 C786 1.398 . S
C786 H774 0.950 . S
C786 C785 1.398 . S
C786 C787 1.391 . S
C787 H775 0.950 . S
C787 C783 1.393 . S
C787 C786 1.391 . S
H788 C796 0.950 . S
H789 C801 0.950 . S
H790 C798 0.950 1_554 S
H791 C800 0.950 . S
H792 C802 0.950 . S
H793 C804 0.950 1_556 S
H794 C806 0.950 . S
H795 C807 0.950 . S
C796 H788 0.950 . S
C796 C797 1.386 . S
C796 C798 1.391 . S
C797 C796 1.386 . S
C797 C801 1.393 . S
C798 H790 0.950 1_556 S
C798 C796 1.391 . S
C798 C799 1.400 . S
C799 C798 1.400 . S
C799 C800 1.398 . S
C799 C805 1.491 1_556 S
C800 H791 0.950 . S
C800 C799 1.398 . S
C800 C801 1.391 . S
C801 H789 0.950 . S
C801 C797 1.393 . S
C801 C800 1.391 . S
C802 H792 0.950 . S
C802 C803 1.386 . S
C802 C804 1.391 . S
C803 C802 1.386 . S
C803 C807 1.393 . S
C804 H793 0.950 1_554 S
C804 C802 1.391 . S
C804 C805 1.400 . S
C805 C799 1.491 1_554 S
C805 C804 1.400 . S
C805 C806 1.398 . S
C806 H794 0.950 . S
C806 C805 1.398 . S
C806 C807 1.391 . S
C807 H795 0.950 . S
C807 C803 1.393 . S
C807 C806 1.391 . S
H808 C816 0.950 . S
H809 C821 0.950 . S
H810 C818 0.950 . S
H811 C820 0.950 . S
H812 C822 0.950 . S
H813 C824 0.950 . S
H814 C826 0.950 . S
H815 C827 0.950 . S
C816 H808 0.950 . S
C816 C817 1.386 . S
C816 C818 1.391 . S
C817 C816 1.386 . S
C817 C821 1.393 . S
C818 H810 0.950 . S
C818 C816 1.391 . S
C818 C819 1.400 . S
C819 C818 1.400 . S
C819 C820 1.398 . S
C819 C825 1.491 1_455 S
C820 H811 0.950 . S
C820 C819 1.398 . S
C820 C821 1.391 . S
C821 H809 0.950 . S
C821 C817 1.393 . S
C821 C820 1.391 . S
C822 H812 0.950 . S
C822 C823 1.386 . S
C822 C824 1.391 . S
C823 C822 1.386 . S
C823 C827 1.393 . S
C824 H813 0.950 . S
C824 C822 1.391 . S
C824 C825 1.400 . S
C825 C819 1.491 1_655 S
C825 C824 1.400 . S
C825 C826 1.398 . S
C826 H814 0.950 . S
C826 C825 1.398 . S
C826 C827 1.391 . S
C827 H815 0.950 . S
C827 C823 1.393 . S
C827 C826 1.391 . S
H828 C836 0.950 . S
H829 C841 0.950 . S
H830 C838 0.950 . S
H831 C840 0.950 . S
H832 C842 0.950 . S
H833 C844 0.950 . S
H834 C846 0.950 . S
H835 C847 0.950 . S
C836 H828 0.950 . S
C836 C837 1.386 . S
C836 C838 1.391 . S
C837 C836 1.386 . S
C837 C841 1.393 . S
C838 H830 0.950 . S
C838 C836 1.391 . S
C838 C839 1.400 . S
C839 C838 1.400 . S
C839 C840 1.398 . S
C839 C845 1.491 . S
C840 H831 0.950 . S
C840 C839 1.398 . S
C840 C841 1.391 . S
C841 H829 0.950 . S
C841 C837 1.393 . S
C841 C840 1.391 . S
C842 H832 0.950 . S
C842 C843 1.386 . S
C842 C844 1.391 . S
C843 C842 1.386 . S
C843 C847 1.393 . S
C844 H833 0.950 . S
C844 C842 1.391 . S
C844 C845 1.400 . S
C845 C839 1.491 . S
C845 C844 1.400 . S
C845 C846 1.398 . S
C846 H834 0.950 . S
C846 C845 1.398 . S
C846 C847 1.391 . S
C847 H835 0.950 . S
C847 C843 1.393 . S
C847 C846 1.391 . S
H848 C856 0.950 . S
H849 C861 0.950 . S
H850 C858 0.950 . S
H851 C860 0.950 . S
H852 C862 0.950 . S
H853 C864 0.950 . S
H854 C866 0.950 . S
H855 C867 0.950 . S
C856 H848 0.950 . S
C856 C857 1.386 . S
C856 C858 1.391 . S
C857 C856 1.386 . S
C857 C861 1.393 . S
C858 H850 0.950 . S
C858 C856 1.391 . S
C858 C859 1.400 . S
C859 C858 1.400 . S
C859 C860 1.398 . S
C859 C865 1.491 1_556 S
C860 H851 0.950 . S
C860 C859 1.398 . S
C860 C861 1.391 . S
C861 H849 0.950 . S
C861 C857 1.393 . S
C861 C860 1.391 . S
C862 H852 0.950 . S
C862 C863 1.386 . S
C862 C864 1.391 . S
C863 C862 1.386 . S
C863 C867 1.393 . S
C864 H853 0.950 . S
C864 C862 1.391 . S
C864 C865 1.400 . S
C865 C859 1.491 1_554 S
C865 C864 1.400 . S
C865 C866 1.398 . S
C866 H854 0.950 . S
C866 C865 1.398 . S
C866 C867 1.391 . S
C867 H855 0.950 . S
C867 C863 1.393 . S
C867 C866 1.391 . S
H868 C876 0.950 . S
H869 C881 0.982 . S
H870 C878 0.950 . S
H871 C880 0.950 . S
H872 C882 0.950 . S
H873 C884 0.950 . S
H874 C886 0.950 . S
H875 C887 0.982 . S
C876 H868 0.950 . S
C876 C877 1.386 . S
C876 C878 1.391 . S
C877 C876 1.386 . S
C877 C881 1.393 . S
C878 H870 0.950 . S
C878 C876 1.391 . S
C878 C879 1.400 . S
C879 C878 1.400 . S
C879 C880 1.398 1_655 S
C879 C885 1.491 1_655 S
C880 H871 0.950 . S
C880 C879 1.398 1_455 S
C880 C881 1.391 1_455 S
C881 H869 0.982 . S
C881 C877 1.393 . S
C881 C880 1.391 1_655 S
C882 H872 0.950 . S
C882 C883 1.386 . S
C882 C884 1.391 . S
C883 C882 1.386 . S
C883 C887 1.393 . S
C884 H873 0.950 . S
C884 C882 1.391 . S
C884 C885 1.400 . S
C885 C879 1.491 1_455 S
C885 C884 1.400 . S
C885 C886 1.398 1_455 S
C886 H874 0.950 . S
C886 C885 1.398 1_655 S
C886 C887 1.391 1_655 S
C887 H875 0.982 . S
C887 C883 1.393 . S
C887 C886 1.391 1_455 S
H888 C896 0.950 . S
H889 C901 0.950 . S
H890 C898 0.950 . S
H891 C900 0.950 . S
H892 C902 0.950 . S
H893 C904 0.950 . S
H894 C906 0.950 . S
H895 C907 0.950 . S
C896 H888 0.950 . S
C896 C897 1.386 . S
C896 C898 1.391 . S
C897 C896 1.386 . S
C897 C901 1.393 . S
C898 H890 0.950 . S
C898 C896 1.391 . S
C898 C899 1.400 . S
C899 C898 1.400 . S
C899 C900 1.398 . S
C899 C905 1.491 . S
C900 H891 0.950 . S
C900 C899 1.398 . S
C900 C901 1.391 . S
C901 H889 0.950 . S
C901 C897 1.393 . S
C901 C900 1.391 . S
C902 H892 0.950 . S
C902 C903 1.386 . S
C902 C904 1.391 . S
C903 C902 1.386 . S
C903 C907 1.393 . S
C904 H893 0.950 . S
C904 C902 1.391 . S
C904 C905 1.400 . S
C905 C899 1.491 . S
C905 C904 1.400 . S
C905 C906 1.398 . S
C906 H894 0.950 . S
C906 C905 1.398 . S
C906 C907 1.391 . S
C907 H895 0.950 . S
C907 C903 1.393 . S
C907 C906 1.391 . S
H908 C916 0.950 . S
H909 C921 0.951 . S
H910 C918 0.950 . S
H911 C920 0.950 . S
H912 C922 0.950 . S
H913 C924 0.950 . S
H914 C926 0.950 . S
H915 C927 0.950 . S
C916 H908 0.950 . S
C916 C917 1.386 . S
C916 C918 1.391 . S
C917 C916 1.386 . S
C917 C921 1.393 . S
C918 H910 0.950 . S
C918 C916 1.391 . S
C918 C919 1.400 . S
C919 C918 1.400 . S
C919 C920 1.398 1_655 S
C919 C925 1.491 1_645 S
C920 H911 0.950 . S
C920 C919 1.398 1_455 S
C920 C921 1.391 1_455 S
C921 H909 0.951 . S
C921 C917 1.393 . S
C921 C920 1.391 1_655 S
C922 H912 0.950 . S
C922 C923 1.386 . S
C922 C924 1.391 . S
C923 C922 1.386 . S
C923 C927 1.393 . S
C924 H913 0.950 . S
C924 C922 1.391 . S
C924 C925 1.400 . S
C925 C919 1.491 1_465 S
C925 C924 1.400 . S
C925 C926 1.398 1_455 S
C926 H914 0.950 . S
C926 C925 1.398 1_655 S
C926 C927 1.391 1_655 S
C927 H915 0.950 . S
C927 C923 1.393 . S
C927 C926 1.391 1_455 S
H928 C936 0.950 . S
H929 C941 0.950 . S
H930 C938 0.950 . S
H931 C940 0.950 . S
H932 C942 0.950 . S
H933 C944 0.950 . S
H934 C946 0.950 . S
H935 C947 0.950 . S
C936 H928 0.950 . S
C936 C937 1.386 . S
C936 C938 1.391 . S
C937 C936 1.386 . S
C937 C941 1.393 . S
C938 H930 0.950 . S
C938 C936 1.391 . S
C938 C939 1.400 . S
C939 C938 1.400 . S
C939 C940 1.398 . S
C939 C945 1.491 . S
C940 H931 0.950 . S
C940 C939 1.398 . S
C940 C941 1.391 . S
C941 H929 0.950 . S
C941 C937 1.393 . S
C941 C940 1.391 . S
C942 H932 0.950 . S
C942 C943 1.386 . S
C942 C944 1.391 . S
C943 C942 1.386 . S
C943 C947 1.393 . S
C944 H933 0.950 . S
C944 C942 1.391 . S
C944 C945 1.400 . S
C945 C939 1.491 . S
C945 C944 1.400 . S
C945 C946 1.398 . S
C946 H934 0.950 . S
C946 C945 1.398 . S
C946 C947 1.391 . S
C947 H935 0.950 . S
C947 C943 1.393 . S
C947 C946 1.391 . S
H948 C956 0.950 1_545 S
H949 C961 0.950 . S
H950 C958 0.950 . S
H951 C960 0.950 . S
H952 C962 0.950 1_565 S
H953 C964 0.950 . S
H954 C966 0.950 . S
H955 C967 0.950 . S
C956 H948 0.950 1_565 S
C956 C957 1.386 . S
C956 C958 1.391 1_565 S
C957 C956 1.386 . S
C957 C961 1.393 . S
C958 H950 0.950 . S
C958 C956 1.391 1_545 S
C958 C959 1.400 1_545 S
C959 C958 1.400 1_565 S
C959 C960 1.398 . S
C959 C965 1.491 1_565 S
C960 H951 0.950 . S
C960 C959 1.398 . S
C960 C961 1.391 . S
C961 H949 0.950 . S
C961 C957 1.393 . S
C961 C960 1.391 . S
C962 H952 0.950 1_545 S
C962 C963 1.386 . S
C962 C964 1.391 1_545 S
C963 C962 1.386 . S
C963 C967 1.393 . S
C964 H953 0.950 . S
C964 C962 1.391 1_565 S
C964 C965 1.400 1_565 S
C965 C959 1.491 1_545 S
C965 C964 1.400 1_545 S
C965 C966 1.398 . S
C966 H954 0.950 . S
C966 C965 1.398 . S
C966 C967 1.391 . S
C967 H955 0.950 . S
C967 C963 1.393 . S
C967 C966 1.391 . S
H968 C976 0.950 . S
H969 C981 0.950 . S
H970 C978 0.950 . S
H971 C980 0.950 . S
H972 C982 0.950 . S
H973 C984 0.950 . S
H974 C986 0.950 . S
H975 C987 0.950 . S
C976 H968 0.950 . S
C976 C977 1.386 . S
C976 C978 1.391 . S
C977 C976 1.386 . S
C977 C981 1.393 . S
C978 H970 0.950 . S
C978 C976 1.391 . S
C978 C979 1.400 . S
C979 C978 1.400 . S
C979 C980 1.398 . S
C979 C985 1.491 . S
C980 H971 0.950 . S
C980 C979 1.398 . S
C980 C981 1.391 . S
C981 H969 0.950 . S
C981 C977 1.393 . S
C981 C980 1.391 . S
C982 H972 0.950 . S
C982 C983 1.386 . S
C982 C984 1.391 . S
C983 C982 1.386 . S
C983 C987 1.393 . S
C984 H973 0.950 . S
C984 C982 1.391 . S
C984 C985 1.400 . S
C985 C979 1.491 . S
C985 C984 1.400 . S
C985 C986 1.398 . S
C986 H974 0.950 . S
C986 C985 1.398 . S
C986 C987 1.391 . S
C987 H975 0.950 . S
C987 C983 1.393 . S
C987 C986 1.391 . S
H988 C996 0.950 . S
H989 C1001 0.950 . S
H990 C998 0.950 1_545 S
H991 C1000 0.950 . S
H992 C1002 0.950 . S
H993 C1004 0.950 1_565 S
H994 C1006 0.950 . S
H995 C1007 0.950 . S
C996 H988 0.950 . S
C996 C997 1.386 . S
C996 C998 1.391 . S
C997 C996 1.386 . S
C997 C1001 1.393 . S
C998 H990 0.950 1_565 S
C998 C996 1.391 . S
C998 C999 1.400 . S
C999 C998 1.400 . S
C999 C1000 1.398 . S
C999 C1005 1.491 1_565 S
C1000 H991 0.950 . S
C1000 C999 1.398 . S
C1000 C1001 1.391 . S
C1001 H989 0.950 . S
C1001 C997 1.393 . S
C1001 C1000 1.391 . S
C1002 H992 0.950 . S
C1002 C1003 1.386 . S
C1002 C1004 1.391 . S
C1003 C1002 1.386 . S
C1003 C1007 1.393 . S
C1004 H993 0.950 1_545 S
C1004 C1002 1.391 . S
C1004 C1005 1.400 . S
C1005 C999 1.491 1_545 S
C1005 C1004 1.400 . S
C1005 C1006 1.398 . S
C1006 H994 0.950 . S
C1006 C1005 1.398 . S
C1006 C1007 1.391 . S
C1007 H995 0.950 . S
C1007 C1003 1.393 . S
C1007 C1006 1.391 . S
H1008 C1016 0.950 . S
H1009 C1021 0.950 . S
H1010 C1018 0.950 . S
H1011 C1020 0.950 . S
H1012 C1022 0.950 . S
H1013 C1024 0.950 . S
H1014 C1026 0.950 . S
H1015 C1027 0.950 . S
C1016 H1008 0.950 . S
C1016 C1017 1.386 . S
C1016 C1018 1.391 . S
C1017 C1016 1.386 . S
C1017 C1021 1.393 . S
C1018 H1010 0.950 . S
C1018 C1016 1.391 . S
C1018 C1019 1.400 . S
C1019 C1018 1.400 . S
C1019 C1020 1.398 . S
C1019 C1025 1.491 . S
C1020 H1011 0.950 . S
C1020 C1019 1.398 . S
C1020 C1021 1.391 . S
C1021 H1009 0.950 . S
C1021 C1017 1.393 . S
C1021 C1020 1.391 . S
C1022 H1012 0.950 . S
C1022 C1023 1.386 . S
C1022 C1024 1.391 . S
C1023 C1022 1.386 . S
C1023 C1027 1.393 . S
C1024 H1013 0.950 . S
C1024 C1022 1.391 . S
C1024 C1025 1.400 . S
C1025 C1019 1.491 . S
C1025 C1024 1.400 . S
C1025 C1026 1.398 . S
C1026 H1014 0.950 . S
C1026 C1025 1.398 . S
C1026 C1027 1.391 . S
C1027 H1015 0.950 . S
C1027 C1023 1.393 . S
C1027 C1026 1.391 . S
H1028 C1036 0.950 . S
H1029 C1041 0.950 . S
H1030 C1038 0.950 . S
H1031 C1040 0.950 . S
H1032 C1042 0.950 . S
H1033 C1044 0.950 . S
H1034 C1046 0.950 . S
H1035 C1047 0.950 . S
C1036 H1028 0.950 . S
C1036 C1037 1.386 . S
C1036 C1038 1.391 . S
C1037 C1036 1.386 . S
C1037 C1041 1.393 . S
C1038 H1030 0.950 . S
C1038 C1036 1.391 . S
C1038 C1039 1.400 . S
C1039 C1038 1.400 . S
C1039 C1040 1.398 . S
C1039 C1045 1.491 . S
C1040 H1031 0.950 . S
C1040 C1039 1.398 . S
C1040 C1041 1.391 . S
C1041 H1029 0.950 . S
C1041 C1037 1.393 . S
C1041 C1040 1.391 . S
C1042 H1032 0.950 . S
C1042 C1043 1.386 . S
C1042 C1044 1.391 . S
C1043 C1042 1.386 . S
C1043 C1047 1.393 . S
C1044 H1033 0.950 . S
C1044 C1042 1.391 . S
C1044 C1045 1.400 . S
C1045 C1039 1.491 . S
C1045 C1044 1.400 . S
C1045 C1046 1.398 . S
C1046 H1034 0.950 . S
C1046 C1045 1.398 . S
C1046 C1047 1.391 . S
C1047 H1035 0.950 . S
C1047 C1043 1.393 . S
C1047 C1046 1.391 . S
H1048 C1056 0.950 . S
H1049 C1061 0.950 . S
H1050 C1058 0.950 . S
H1051 C1060 0.950 . S
H1052 C1062 0.950 . S
H1053 C1064 0.950 . S
H1054 C1066 0.950 . S
H1055 C1067 0.950 . S
C1056 H1048 0.950 . S
C1056 C1057 1.386 . S
C1056 C1058 1.391 . S
C1057 C1056 1.386 . S
C1057 C1061 1.393 . S
C1058 H1050 0.950 . S
C1058 C1056 1.391 . S
C1058 C1059 1.400 . S
C1059 C1058 1.400 . S
C1059 C1060 1.398 . S
C1059 C1065 1.491 . S
C1060 H1051 0.950 . S
C1060 C1059 1.398 . S
C1060 C1061 1.391 . S
C1061 H1049 0.950 . S
C1061 C1057 1.393 . S
C1061 C1060 1.391 . S
C1062 H1052 0.950 . S
C1062 C1063 1.386 . S
C1062 C1064 1.391 . S
C1063 C1062 1.386 . S
C1063 C1067 1.393 . S
C1064 H1053 0.950 . S
C1064 C1062 1.391 . S
C1064 C1065 1.400 . S
C1065 C1059 1.491 . S
C1065 C1064 1.400 . S
C1065 C1066 1.398 . S
C1066 H1054 0.950 . S
C1066 C1065 1.398 . S
C1066 C1067 1.391 . S
C1067 H1055 0.950 . S
C1067 C1063 1.393 . S
C1067 C1066 1.391 . S
H1068 C1076 0.950 . S
H1069 C1081 0.950 1_565 S
H1070 C1078 0.950 . S
H1071 C1080 0.950 . S
H1072 C1082 0.950 . S
H1073 C1084 0.950 . S
H1074 C1086 0.950 . S
H1075 C1087 0.950 1_545 S
C1076 H1068 0.950 . S
C1076 C1077 1.386 . S
C1076 C1078 1.391 . S
C1077 C1076 1.386 . S
C1077 C1081 1.393 . S
C1078 H1070 0.950 . S
C1078 C1076 1.391 . S
C1078 C1079 1.400 . S
C1079 C1078 1.400 . S
C1079 C1080 1.398 1_545 S
C1079 C1085 1.491 1_546 S
C1080 H1071 0.950 . S
C1080 C1079 1.398 1_565 S
C1080 C1081 1.391 1_565 S
C1081 H1069 0.950 1_545 S
C1081 C1077 1.393 . S
C1081 C1080 1.391 1_545 S
C1082 H1072 0.950 . S
C1082 C1083 1.386 . S
C1082 C1084 1.391 . S
C1083 C1082 1.386 . S
C1083 C1087 1.393 . S
C1084 H1073 0.950 . S
C1084 C1082 1.391 . S
C1084 C1085 1.400 . S
C1085 C1079 1.491 1_564 S
C1085 C1084 1.400 . S
C1085 C1086 1.398 1_565 S
C1086 H1074 0.950 . S
C1086 C1085 1.398 1_545 S
C1086 C1087 1.391 1_545 S
C1087 H1075 0.950 1_565 S
C1087 C1083 1.393 . S
C1087 C1086 1.391 1_565 S
H1088 C1096 0.950 . S
H1089 C1101 0.950 . S
H1090 C1098 0.950 . S
H1091 C1100 0.950 . S
H1092 C1102 0.950 . S
H1093 C1104 0.950 . S
H1094 C1106 0.950 . S
H1095 C1107 0.950 . S
C1096 H1088 0.950 . S
C1096 C1097 1.386 . S
C1096 C1098 1.391 . S
C1097 C1096 1.386 . S
C1097 C1101 1.393 . S
C1098 H1090 0.950 . S
C1098 C1096 1.391 . S
C1098 C1099 1.400 . S
C1099 C1098 1.400 . S
C1099 C1100 1.398 . S
C1099 C1105 1.491 . S
C1100 H1091 0.950 . S
C1100 C1099 1.398 . S
C1100 C1101 1.391 . S
C1101 H1089 0.950 . S
C1101 C1097 1.393 . S
C1101 C1100 1.391 . S
C1102 H1092 0.950 . S
C1102 C1103 1.386 . S
C1102 C1104 1.391 . S
C1103 C1102 1.386 . S
C1103 C1107 1.393 . S
C1104 H1093 0.950 . S
C1104 C1102 1.391 . S
C1104 C1105 1.400 . S
C1105 C1099 1.491 . S
C1105 C1104 1.400 . S
C1105 C1106 1.398 . S
C1106 H1094 0.950 . S
C1106 C1105 1.398 . S
C1106 C1107 1.391 . S
C1107 H1095 0.950 . S
C1107 C1103 1.393 . S
C1107 C1106 1.391 . S
H1108 C1116 0.950 . S
H1109 C1121 0.950 . S
H1110 C1118 0.950 . S
H1111 C1120 0.950 . S
H1112 C1122 0.950 . S
H1113 C1124 0.950 . S
H1114 C1126 0.950 . S
H1115 C1127 0.950 . S
C1116 H1108 0.950 . S
C1116 C1117 1.386 . S
C1116 C1118 1.391 . S
C1117 C1116 1.386 . S
C1117 C1121 1.393 . S
C1118 H1110 0.950 . S
C1118 C1116 1.391 . S
C1118 C1119 1.400 . S
C1119 C1118 1.400 . S
C1119 C1120 1.398 . S
C1119 C1125 1.491 . S
C1120 H1111 0.950 . S
C1120 C1119 1.398 . S
C1120 C1121 1.391 . S
C1121 H1109 0.950 . S
C1121 C1117 1.393 . S
C1121 C1120 1.391 . S
C1122 H1112 0.950 . S
C1122 C1123 1.386 . S
C1122 C1124 1.391 . S
C1123 C1122 1.386 . S
C1123 C1127 1.393 . S
C1124 H1113 0.950 . S
C1124 C1122 1.391 . S
C1124 C1125 1.400 . S
C1125 C1119 1.491 . S
C1125 C1124 1.400 . S
C1125 C1126 1.398 . S
C1126 H1114 0.950 . S
C1126 C1125 1.398 . S
C1126 C1127 1.391 . S
C1127 H1115 0.950 . S
C1127 C1123 1.393 . S
C1127 C1126 1.391 . S
H1128 C1136 0.950 . S
H1129 C1141 0.950 . S
H1130 C1138 0.950 . S
H1131 C1140 0.950 . S
H1132 C1142 0.950 . S
H1133 C1144 0.950 . S
H1134 C1146 0.950 . S
H1135 C1147 0.950 . S
C1136 H1128 0.950 . S
C1136 C1137 1.386 . S
C1136 C1138 1.391 . S
C1137 C1136 1.386 . S
C1137 C1141 1.393 . S
C1138 H1130 0.950 . S
C1138 C1136 1.391 . S
C1138 C1139 1.400 . S
C1139 C1138 1.400 . S
C1139 C1140 1.398 . S
C1139 C1145 1.491 . S
C1140 H1131 0.950 . S
C1140 C1139 1.398 . S
C1140 C1141 1.391 . S
C1141 H1129 0.950 . S
C1141 C1137 1.393 . S
C1141 C1140 1.391 . S
C1142 H1132 0.950 . S
C1142 C1143 1.386 . S
C1142 C1144 1.391 . S
C1143 C1142 1.386 . S
C1143 C1147 1.393 . S
C1144 H1133 0.950 . S
C1144 C1142 1.391 . S
C1144 C1145 1.400 . S
C1145 C1139 1.491 . S
C1145 C1144 1.400 . S
C1145 C1146 1.398 . S
C1146 H1134 0.950 . S
C1146 C1145 1.398 . S
C1146 C1147 1.391 . S
C1147 H1135 0.950 . S
C1147 C1143 1.393 . S
C1147 C1146 1.391 . S
H1148 C1156 0.950 . S
H1149 C1161 0.950 . S
H1150 C1158 0.950 . S
H1151 C1160 0.950 . S
H1152 C1162 0.950 . S
H1153 C1164 0.950 . S
H1154 C1166 0.950 . S
H1155 C1167 0.950 . S
C1156 H1148 0.950 . S
C1156 C1157 1.386 . S
C1156 C1158 1.391 . S
C1157 C1156 1.386 . S
C1157 C1161 1.393 . S
C1158 H1150 0.950 . S
C1158 C1156 1.391 . S
C1158 C1159 1.400 . S
C1159 C1158 1.400 . S
C1159 C1160 1.398 . S
C1159 C1165 1.491 . S
C1160 H1151 0.950 . S
C1160 C1159 1.398 . S
C1160 C1161 1.391 . S
C1161 H1149 0.950 . S
C1161 C1157 1.393 . S
C1161 C1160 1.391 . S
C1162 H1152 0.950 . S
C1162 C1163 1.386 . S
C1162 C1164 1.391 . S
C1163 C1162 1.386 . S
C1163 C1167 1.393 . S
C1164 H1153 0.950 . S
C1164 C1162 1.391 . S
C1164 C1165 1.400 . S
C1165 C1159 1.491 . S
C1165 C1164 1.400 . S
C1165 C1166 1.398 . S
C1166 H1154 0.950 . S
C1166 C1165 1.398 . S
C1166 C1167 1.391 . S
C1167 H1155 0.950 . S
C1167 C1163 1.393 . S
C1167 C1166 1.391 . S
H1168 C1176 0.950 . S
H1169 C1181 0.950 . S
H1170 C1178 0.950 . S
H1171 C1180 0.950 . S
H1172 C1182 0.950 . S
H1173 C1184 0.950 . S
H1174 C1186 0.950 . S
H1175 C1187 0.950 . S
C1176 H1168 0.950 . S
C1176 C1177 1.386 . S
C1176 C1178 1.391 . S
C1177 C1176 1.386 . S
C1177 C1181 1.393 . S
C1178 H1170 0.950 . S
C1178 C1176 1.391 . S
C1178 C1179 1.400 . S
C1179 C1178 1.400 . S
C1179 C1180 1.398 . S
C1179 C1185 1.491 . S
C1180 H1171 0.950 . S
C1180 C1179 1.398 . S
C1180 C1181 1.391 . S
C1181 H1169 0.950 . S
C1181 C1177 1.393 . S
C1181 C1180 1.391 . S
C1182 H1172 0.950 . S
C1182 C1183 1.386 . S
C1182 C1184 1.391 . S
C1183 C1182 1.386 . S
C1183 C1187 1.393 . S
C1184 H1173 0.950 . S
C1184 C1182 1.391 . S
C1184 C1185 1.400 . S
C1185 C1179 1.491 . S
C1185 C1184 1.400 . S
C1185 C1186 1.398 . S
C1186 H1174 0.950 . S
C1186 C1185 1.398 . S
C1186 C1187 1.391 . S
C1187 H1175 0.950 . S
C1187 C1183 1.393 . S
C1187 C1186 1.391 . S
H1188 C1196 0.950 . S
H1189 C1201 0.950 . S
H1190 C1198 0.950 . S
H1191 C1200 0.950 . S
H1192 C1202 0.950 . S
H1193 C1204 0.950 . S
H1194 C1206 0.950 . S
H1195 C1207 0.950 . S
C1196 H1188 0.950 . S
C1196 C1197 1.386 . S
C1196 C1198 1.391 . S
C1197 C1196 1.386 . S
C1197 C1201 1.393 . S
C1198 H1190 0.950 . S
C1198 C1196 1.391 . S
C1198 C1199 1.400 . S
C1199 C1198 1.400 . S
C1199 C1200 1.398 . S
C1199 C1205 1.491 . S
C1200 H1191 0.950 . S
C1200 C1199 1.398 . S
C1200 C1201 1.391 . S
C1201 H1189 0.950 . S
C1201 C1197 1.393 . S
C1201 C1200 1.391 . S
C1202 H1192 0.950 . S
C1202 C1203 1.386 . S
C1202 C1204 1.391 . S
C1203 C1202 1.386 . S
C1203 C1207 1.393 . S
C1204 H1193 0.950 . S
C1204 C1202 1.391 . S
C1204 C1205 1.400 . S
C1205 C1199 1.491 . S
C1205 C1204 1.400 . S
C1205 C1206 1.398 . S
C1206 H1194 0.950 . S
C1206 C1205 1.398 . S
C1206 C1207 1.391 . S
C1207 H1195 0.950 . S
C1207 C1203 1.393 . S
C1207 C1206 1.391 . S
H1208 C1216 0.950 . S
H1209 C1221 0.950 . S
H1210 C1218 0.950 . S
H1211 C1220 0.950 . S
H1212 C1222 0.950 . S
H1213 C1224 0.950 . S
H1214 C1226 0.950 . S
H1215 C1227 0.950 . S
C1216 H1208 0.950 . S
C1216 C1217 1.386 . S
C1216 C1218 1.391 . S
C1217 C1216 1.386 . S
C1217 C1221 1.393 . S
C1218 H1210 0.950 . S
C1218 C1216 1.391 . S
C1218 C1219 1.400 . S
C1219 C1218 1.400 . S
C1219 C1220 1.398 . S
C1219 C1225 1.491 . S
C1220 H1211 0.950 . S
C1220 C1219 1.398 . S
C1220 C1221 1.391 . S
C1221 H1209 0.950 . S
C1221 C1217 1.393 . S
C1221 C1220 1.391 . S
C1222 H1212 0.950 . S
C1222 C1223 1.386 . S
C1222 C1224 1.391 . S
C1223 C1222 1.386 . S
C1223 C1227 1.393 . S
C1224 H1213 0.950 . S
C1224 C1222 1.391 . S
C1224 C1225 1.400 . S
C1225 C1219 1.491 . S
C1225 C1224 1.400 . S
C1225 C1226 1.398 . S
C1226 H1214 0.950 . S
C1226 C1225 1.398 . S
C1226 C1227 1.391 . S
C1227 H1215 0.950 . S
C1227 C1223 1.393 . S
C1227 C1226 1.391 . S
H1228 C1236 0.950 . S
H1229 C1241 0.950 . S
H1230 C1238 0.950 . S
H1231 C1240 0.950 . S
H1232 C1242 0.950 . S
H1233 C1244 0.950 . S
H1234 C1246 0.950 . S
H1235 C1247 0.950 . S
C1236 H1228 0.950 . S
C1236 C1237 1.386 . S
C1236 C1238 1.391 . S
C1237 C1236 1.386 . S
C1237 C1241 1.393 . S
C1238 H1230 0.950 . S
C1238 C1236 1.391 . S
C1238 C1239 1.400 . S
C1239 C1238 1.400 . S
C1239 C1240 1.398 . S
C1239 C1245 1.491 . S
C1240 H1231 0.950 . S
C1240 C1239 1.398 . S
C1240 C1241 1.391 . S
C1241 H1229 0.950 . S
C1241 C1237 1.393 . S
C1241 C1240 1.391 . S
C1242 H1232 0.950 . S
C1242 C1243 1.386 . S
C1242 C1244 1.391 . S
C1243 C1242 1.386 . S
C1243 C1247 1.393 . S
C1244 H1233 0.950 . S
C1244 C1242 1.391 . S
C1244 C1245 1.400 . S
C1245 C1239 1.491 . S
C1245 C1244 1.400 . S
C1245 C1246 1.398 . S
C1246 H1234 0.950 . S
C1246 C1245 1.398 . S
C1246 C1247 1.391 . S
C1247 H1235 0.950 . S
C1247 C1243 1.393 . S
C1247 C1246 1.391 . S
H1248 C1256 0.950 . S
H1249 C1261 0.950 . S
H1250 C1258 0.950 . S
H1251 C1260 0.950 . S
H1252 C1262 0.950 . S
H1253 C1264 0.950 . S
H1254 C1266 0.950 . S
H1255 C1267 0.950 . S
C1256 H1248 0.950 . S
C1256 C1257 1.386 . S
C1256 C1258 1.391 . S
C1257 C1256 1.386 . S
C1257 C1261 1.393 . S
C1258 H1250 0.950 . S
C1258 C1256 1.391 . S
C1258 C1259 1.400 . S
C1259 C1258 1.400 . S
C1259 C1260 1.398 . S
C1259 C1265 1.491 . S
C1260 H1251 0.950 . S
C1260 C1259 1.398 . S
C1260 C1261 1.391 . S
C1261 H1249 0.950 . S
C1261 C1257 1.393 . S
C1261 C1260 1.391 . S
C1262 H1252 0.950 . S
C1262 C1263 1.386 . S
C1262 C1264 1.391 . S
C1263 C1262 1.386 . S
C1263 C1267 1.393 . S
C1264 H1253 0.950 . S
C1264 C1262 1.391 . S
C1264 C1265 1.400 . S
C1265 C1259 1.491 . S
C1265 C1264 1.400 . S
C1265 C1266 1.398 . S
C1266 H1254 0.950 . S
C1266 C1265 1.398 . S
C1266 C1267 1.391 . S
C1267 H1255 0.950 . S
C1267 C1263 1.393 . S
C1267 C1266 1.391 . S
H1268 C1276 0.950 . S
H1269 C1281 0.950 . S
H1270 C1278 0.950 . S
H1271 C1280 0.950 . S
H1272 C1282 0.950 . S
H1273 C1284 0.950 . S
H1274 C1286 0.950 . S
H1275 C1287 0.950 . S
C1276 H1268 0.950 . S
C1276 C1277 1.386 . S
C1276 C1278 1.391 . S
C1277 C1276 1.386 . S
C1277 C1281 1.393 . S
C1278 H1270 0.950 . S
C1278 C1276 1.391 . S
C1278 C1279 1.400 . S
C1279 C1278 1.400 . S
C1279 C1280 1.398 . S
C1279 C1285 1.491 . S
C1280 H1271 0.950 . S
C1280 C1279 1.398 . S
C1280 C1281 1.391 . S
C1281 H1269 0.950 . S
C1281 C1277 1.393 . S
C1281 C1280 1.391 . S
C1282 H1272 0.950 . S
C1282 C1283 1.386 . S
C1282 C1284 1.391 . S
C1283 C1282 1.386 . S
C1283 C1287 1.393 . S
C1284 H1273 0.950 . S
C1284 C1282 1.391 . S
C1284 C1285 1.400 . S
C1285 C1279 1.491 . S
C1285 C1284 1.400 . S
C1285 C1286 1.398 . S
C1286 H1274 0.950 . S
C1286 C1285 1.398 . S
C1286 C1287 1.391 . S
C1287 H1275 0.950 . S
C1287 C1283 1.393 . S
C1287 C1286 1.391 . S
H1288 C1296 0.950 . S
H1289 C1301 0.950 . S
H1290 C1298 0.950 . S
H1291 C1300 0.950 . S
H1292 C1302 0.950 . S
H1293 C1304 0.950 . S
H1294 C1306 0.950 . S
H1295 C1307 0.950 . S
C1296 H1288 0.950 . S
C1296 C1297 1.386 . S
C1296 C1298 1.391 . S
C1297 C1296 1.386 . S
C1297 C1301 1.393 . S
C1298 H1290 0.950 . S
C1298 C1296 1.391 . S
C1298 C1299 1.400 . S
C1299 C1298 1.400 . S
C1299 C1300 1.398 . S
C1299 C1305 1.491 . S
C1300 H1291 0.950 . S
C1300 C1299 1.398 . S
C1300 C1301 1.391 . S
C1301 H1289 0.950 . S
C1301 C1297 1.393 . S
C1301 C1300 1.391 . S
C1302 H1292 0.950 . S
C1302 C1303 1.386 . S
C1302 C1304 1.391 . S
C1303 C1302 1.386 . S
C1303 C1307 1.393 . S
C1304 H1293 0.950 . S
C1304 C1302 1.391 . S
C1304 C1305 1.400 . S
C1305 C1299 1.491 . S
C1305 C1304 1.400 . S
C1305 C1306 1.398 . S
C1306 H1294 0.950 . S
C1306 C1305 1.398 . S
C1306 C1307 1.391 . S
C1307 H1295 0.950 . S
C1307 C1303 1.393 . S
C1307 C1306 1.391 . S
H1308 C1316 0.950 . S
H1309 C1321 0.950 . S
H1310 C1318 0.950 . S
H1311 C1320 0.950 . S
H1312 C1322 0.950 . S
H1313 C1324 0.950 . S
H1314 C1326 0.950 . S
H1315 C1327 0.950 . S
C1316 H1308 0.950 . S
C1316 C1317 1.386 . S
C1316 C1318 1.391 . S
C1317 C1316 1.386 . S
C1317 C1321 1.393 . S
C1318 H1310 0.950 . S
C1318 C1316 1.391 . S
C1318 C1319 1.400 . S
C1319 C1318 1.400 . S
C1319 C1320 1.398 . S
C1319 C1325 1.491 . S
C1320 H1311 0.950 . S
C1320 C1319 1.398 . S
C1320 C1321 1.391 . S
C1321 H1309 0.950 . S
C1321 C1317 1.393 . S
C1321 C1320 1.391 . S
C1322 H1312 0.950 . S
C1322 C1323 1.386 . S
C1322 C1324 1.391 . S
C1323 C1322 1.386 . S
C1323 C1327 1.393 . S
C1324 H1313 0.950 . S
C1324 C1322 1.391 . S
C1324 C1325 1.400 . S
C1325 C1319 1.491 . S
C1325 C1324 1.400 . S
C1325 C1326 1.398 . S
C1326 H1314 0.950 . S
C1326 C1325 1.398 . S
C1326 C1327 1.391 . S
C1327 H1315 0.950 . S
C1327 C1323 1.393 . S
C1327 C1326 1.391 . S
H1328 C1336 0.950 . S
H1329 C1341 0.950 . S
H1330 C1338 0.950 . S
H1331 C1340 0.950 . S
H1332 C1342 0.950 . S
H1333 C1344 0.950 . S
H1334 C1346 0.950 . S
H1335 C1347 0.950 . S
C1336 H1328 0.950 . S
C1336 C1337 1.386 . S
C1336 C1338 1.391 . S
C1337 C1336 1.386 . S
C1337 C1341 1.393 . S
C1338 H1330 0.950 . S
C1338 C1336 1.391 . S
C1338 C1339 1.400 . S
C1339 C1338 1.400 . S
C1339 C1340 1.398 . S
C1339 C1345 1.491 . S
C1340 H1331 0.950 . S
C1340 C1339 1.398 . S
C1340 C1341 1.391 . S
C1341 H1329 0.950 . S
C1341 C1337 1.393 . S
C1341 C1340 1.391 . S
C1342 H1332 0.950 . S
C1342 C1343 1.386 . S
C1342 C1344 1.391 . S
C1343 C1342 1.386 . S
C1343 C1347 1.393 . S
C1344 H1333 0.950 . S
C1344 C1342 1.391 . S
C1344 C1345 1.400 . S
C1345 C1339 1.491 . S
C1345 C1344 1.400 . S
C1345 C1346 1.398 . S
C1346 H1334 0.950 . S
C1346 C1345 1.398 . S
C1346 C1347 1.391 . S
C1347 H1335 0.950 . S
C1347 C1343 1.393 . S
C1347 C1346 1.391 . S
H1348 C1356 0.950 . S
H1349 C1361 0.950 . S
H1350 C1358 0.950 . S
H1351 C1360 0.950 . S
H1352 C1362 0.950 . S
H1353 C1364 0.950 . S
H1354 C1366 0.950 . S
H1355 C1367 0.950 . S
C1356 H1348 0.950 . S
C1356 C1357 1.386 . S
C1356 C1358 1.391 . S
C1357 C1356 1.386 . S
C1357 C1361 1.393 . S
C1358 H1350 0.950 . S
C1358 C1356 1.391 . S
C1358 C1359 1.400 . S
C1359 C1358 1.400 . S
C1359 C1360 1.398 . S
C1359 C1365 1.491 . S
C1360 H1351 0.950 . S
C1360 C1359 1.398 . S
C1360 C1361 1.391 . S
C1361 H1349 0.950 . S
C1361 C1357 1.393 . S
C1361 C1360 1.391 . S
C1362 H1352 0.950 . S
C1362 C1363 1.386 . S
C1362 C1364 1.391 . S
C1363 C1362 1.386 . S
C1363 C1367 1.393 . S
C1364 H1353 0.950 . S
C1364 C1362 1.391 . S
C1364 C1365 1.400 . S
C1365 C1359 1.491 . S
C1365 C1364 1.400 . S
C1365 C1366 1.398 . S
C1366 H1354 0.950 . S
C1366 C1365 1.398 . S
C1366 C1367 1.391 . S
C1367 H1355 0.950 . S
C1367 C1363 1.393 . S
C1367 C1366 1.391 . S
H1368 C1376 0.950 . S
H1369 C1381 0.950 . S
H1370 C1378 0.950 . S
H1371 C1380 0.950 . S
H1372 C1382 0.950 . S
H1373 C1384 0.950 . S
H1374 C1386 0.950 . S
H1375 C1387 0.950 . S
C1376 H1368 0.950 . S
C1376 C1377 1.386 . S
C1376 C1378 1.391 . S
C1377 C1376 1.386 . S
C1377 C1381 1.393 . S
C1378 H1370 0.950 . S
C1378 C1376 1.391 . S
C1378 C1379 1.400 . S
C1379 C1378 1.400 . S
C1379 C1380 1.398 . S
C1379 C1385 1.491 . S
C1380 H1371 0.950 . S
C1380 C1379 1.398 . S
C1380 C1381 1.391 . S
C1381 H1369 0.950 . S
C1381 C1377 1.393 . S
C1381 C1380 1.391 . S
C1382 H1372 0.950 . S
C1382 C1383 1.386 . S
C1382 C1384 1.391 . S
C1383 C1382 1.386 . S
C1383 C1387 1.393 . S
C1384 H1373 0.950 . S
C1384 C1382 1.391 . S
C1384 C1385 1.400 . S
C1385 C1379 1.491 . S
C1385 C1384 1.400 . S
C1385 C1386 1.398 . S
C1386 H1374 0.950 . S
C1386 C1385 1.398 . S
C1386 C1387 1.391 . S
C1387 H1375 0.950 . S
C1387 C1383 1.393 . S
C1387 C1386 1.391 . S
H1388 C1396 0.950 . S
H1389 C1401 0.950 . S
H1390 C1398 0.950 . S
H1391 C1400 0.950 . S
H1392 C1402 0.950 . S
H1393 C1404 0.950 . S
H1394 C1406 0.950 . S
H1395 C1407 0.950 . S
C1396 H1388 0.950 . S
C1396 C1397 1.386 . S
C1396 C1398 1.391 . S
C1397 C1396 1.386 . S
C1397 C1401 1.393 . S
C1398 H1390 0.950 . S
C1398 C1396 1.391 . S
C1398 C1399 1.400 . S
C1399 C1398 1.400 . S
C1399 C1400 1.398 . S
C1399 C1405 1.491 . S
C1400 H1391 0.950 . S
C1400 C1399 1.398 . S
C1400 C1401 1.391 . S
C1401 H1389 0.950 . S
C1401 C1397 1.393 . S
C1401 C1400 1.391 . S
C1402 H1392 0.950 . S
C1402 C1403 1.386 . S
C1402 C1404 1.391 . S
C1403 C1402 1.386 . S
C1403 C1407 1.393 . S
C1404 H1393 0.950 . S
C1404 C1402 1.391 . S
C1404 C1405 1.400 . S
C1405 C1399 1.491 . S
C1405 C1404 1.400 . S
C1405 C1406 1.398 . S
C1406 H1394 0.950 . S
C1406 C1405 1.398 . S
C1406 C1407 1.391 . S
C1407 H1395 0.950 . S
C1407 C1403 1.393 . S
C1407 C1406 1.391 . S
H1408 C1416 0.950 . S
H1409 C1421 0.950 1_565 S
H1410 C1418 0.950 . S
H1411 C1420 0.950 . S
H1412 C1422 0.950 . S
H1413 C1424 0.950 . S
H1414 C1426 0.950 . S
H1415 C1427 0.950 . S
C1416 H1408 0.950 . S
C1416 C1417 1.386 . S
C1416 C1418 1.391 . S
C1417 C1416 1.386 . S
C1417 C1421 1.393 . S
C1418 H1410 0.950 . S
C1418 C1416 1.391 . S
C1418 C1419 1.400 . S
C1419 C1418 1.400 . S
C1419 C1420 1.398 . S
C1419 C1425 1.491 . S
C1420 H1411 0.950 . S
C1420 C1419 1.398 . S
C1420 C1421 1.391 . S
C1421 H1409 0.950 1_545 S
C1421 C1417 1.393 . S
C1421 C1420 1.391 . S
C1422 H1412 0.950 . S
C1422 C1423 1.386 . S
C1422 C1424 1.391 . S
C1423 C1422 1.386 . S
C1423 C1427 1.393 . S
C1424 H1413 0.950 . S
C1424 C1422 1.391 . S
C1424 C1425 1.400 . S
C1425 C1419 1.491 . S
C1425 C1424 1.400 . S
C1425 C1426 1.398 . S
C1426 H1414 0.950 . S
C1426 C1425 1.398 . S
C1426 C1427 1.391 . S
C1427 H1415 0.950 . S
C1427 C1423 1.393 . S
C1427 C1426 1.391 . S
H1428 C1436 0.950 . S
H1429 C1441 0.960 . S
H1430 C1438 0.950 . S
H1431 C1440 0.950 . S
H1432 C1442 0.950 . S
H1433 C1444 0.950 . S
H1434 C1446 0.950 . S
H1435 C1447 0.950 . S
C1436 H1428 0.950 . S
C1436 C1437 1.386 . S
C1436 C1438 1.391 . S
C1437 C1436 1.386 . S
C1437 C1441 1.393 . S
C1438 H1430 0.950 . S
C1438 C1436 1.391 . S
C1438 C1439 1.400 . S
C1439 C1438 1.400 . S
C1439 C1440 1.398 . S
C1439 C1445 1.491 . S
C1440 H1431 0.950 . S
C1440 C1439 1.398 . S
C1440 C1441 1.391 . S
C1441 H1429 0.960 . S
C1441 C1437 1.393 . S
C1441 C1440 1.391 . S
C1442 H1432 0.950 . S
C1442 C1443 1.386 . S
C1442 C1444 1.391 . S
C1443 C1442 1.386 . S
C1443 C1447 1.393 . S
C1444 H1433 0.950 . S
C1444 C1442 1.391 . S
C1444 C1445 1.400 . S
C1445 C1439 1.491 . S
C1445 C1444 1.400 . S
C1445 C1446 1.398 . S
C1446 H1434 0.950 . S
C1446 C1445 1.398 . S
C1446 C1447 1.391 . S
C1447 H1435 0.950 . S
C1447 C1443 1.393 . S
C1447 C1446 1.391 . S
H1448 C1456 0.950 . S
H1449 C1461 0.950 . S
H1450 C1458 0.950 . S
H1451 C1460 0.950 . S
H1452 C1462 0.950 . S
H1453 C1464 0.950 . S
H1454 C1466 0.950 . S
H1455 C1467 0.950 . S
C1456 H1448 0.950 . S
C1456 C1457 1.386 . S
C1456 C1458 1.391 . S
C1457 C1456 1.386 . S
C1457 C1461 1.393 . S
C1458 H1450 0.950 . S
C1458 C1456 1.391 . S
C1458 C1459 1.400 . S
C1459 C1458 1.400 . S
C1459 C1460 1.398 . S
C1459 C1465 1.491 . S
C1460 H1451 0.950 . S
C1460 C1459 1.398 . S
C1460 C1461 1.391 . S
C1461 H1449 0.950 . S
C1461 C1457 1.393 . S
C1461 C1460 1.391 . S
C1462 H1452 0.950 . S
C1462 C1463 1.386 . S
C1462 C1464 1.391 . S
C1463 C1462 1.386 . S
C1463 C1467 1.393 . S
C1464 H1453 0.950 . S
C1464 C1462 1.391 . S
C1464 C1465 1.400 . S
C1465 C1459 1.491 . S
C1465 C1464 1.400 . S
C1465 C1466 1.398 . S
C1466 H1454 0.950 . S
C1466 C1465 1.398 . S
C1466 C1467 1.391 . S
C1467 H1455 0.950 . S
C1467 C1463 1.393 . S
C1467 C1466 1.391 . S
H1468 C1476 0.950 . S
H1469 C1481 0.950 . S
H1470 C1478 0.950 . S
H1471 C1480 0.950 . S
H1472 C1482 0.950 . S
H1473 C1484 0.950 . S
H1474 C1486 0.950 . S
H1475 C1487 0.950 . S
C1476 H1468 0.950 . S
C1476 C1477 1.386 . S
C1476 C1478 1.391 . S
C1477 C1476 1.386 . S
C1477 C1481 1.393 . S
C1478 H1470 0.950 . S
C1478 C1476 1.391 . S
C1478 C1479 1.400 . S
C1479 C1478 1.400 . S
C1479 C1480 1.398 . S
C1479 C1485 1.491 . S
C1480 H1471 0.950 . S
C1480 C1479 1.398 . S
C1480 C1481 1.391 . S
C1481 H1469 0.950 . S
C1481 C1477 1.393 . S
C1481 C1480 1.391 . S
C1482 H1472 0.950 . S
C1482 C1483 1.386 . S
C1482 C1484 1.391 . S
C1483 C1482 1.386 . S
C1483 C1487 1.393 . S
C1484 H1473 0.950 . S
C1484 C1482 1.391 . S
C1484 C1485 1.400 . S
C1485 C1479 1.491 . S
C1485 C1484 1.400 . S
C1485 C1486 1.398 . S
C1486 H1474 0.950 . S
C1486 C1485 1.398 . S
C1486 C1487 1.391 . S
C1487 H1475 0.950 . S
C1487 C1483 1.393 . S
C1487 C1486 1.391 . S
H1488 C1496 0.950 . S
H1489 C1501 0.950 . S
H1490 C1498 0.950 . S
H1491 C1500 0.950 . S
H1492 C1502 0.950 . S
H1493 C1504 0.950 . S
H1494 C1506 0.950 . S
H1495 C1507 0.950 . S
C1496 H1488 0.950 . S
C1496 C1497 1.386 . S
C1496 C1498 1.391 . S
C1497 C1496 1.386 . S
C1497 C1501 1.393 . S
C1498 H1490 0.950 . S
C1498 C1496 1.391 . S
C1498 C1499 1.400 . S
C1499 C1498 1.400 . S
C1499 C1500 1.398 . S
C1499 C1505 1.491 . S
C1500 H1491 0.950 . S
C1500 C1499 1.398 . S
C1500 C1501 1.391 . S
C1501 H1489 0.950 . S
C1501 C1497 1.393 . S
C1501 C1500 1.391 . S
C1502 H1492 0.950 . S
C1502 C1503 1.386 . S
C1502 C1504 1.391 . S
C1503 C1502 1.386 . S
C1503 C1507 1.393 . S
C1504 H1493 0.950 . S
C1504 C1502 1.391 . S
C1504 C1505 1.400 . S
C1505 C1499 1.491 . S
C1505 C1504 1.400 . S
C1505 C1506 1.398 . S
C1506 H1494 0.950 . S
C1506 C1505 1.398 . S
C1506 C1507 1.391 . S
C1507 H1495 0.950 . S
C1507 C1503 1.393 . S
C1507 C1506 1.391 . S
H1508 C1516 0.950 . S
H1509 C1521 0.950 . S
H1510 C1518 0.950 . S
H1511 C1520 0.950 . S
H1512 C1522 0.950 . S
H1513 C1524 0.950 . S
H1514 C1526 0.950 . S
H1515 C1527 0.950 . S
C1516 H1508 0.950 . S
C1516 C1517 1.386 . S
C1516 C1518 1.391 . S
C1517 C1516 1.386 . S
C1517 C1521 1.393 . S
C1518 H1510 0.950 . S
C1518 C1516 1.391 . S
C1518 C1519 1.400 . S
C1519 C1518 1.400 . S
C1519 C1520 1.398 . S
C1519 C1525 1.491 . S
C1520 H1511 0.950 . S
C1520 C1519 1.398 . S
C1520 C1521 1.391 . S
C1521 H1509 0.950 . S
C1521 C1517 1.393 . S
C1521 C1520 1.391 . S
C1522 H1512 0.950 . S
C1522 C1523 1.386 . S
C1522 C1524 1.391 . S
C1523 C1522 1.386 . S
C1523 C1527 1.393 . S
C1524 H1513 0.950 . S
C1524 C1522 1.391 . S
C1524 C1525 1.400 . S
C1525 C1519 1.491 . S
C1525 C1524 1.400 . S
C1525 C1526 1.398 . S
C1526 H1514 0.950 . S
C1526 C1525 1.398 . S
C1526 C1527 1.391 . S
C1527 H1515 0.950 . S
C1527 C1523 1.393 . S
C1527 C1526 1.391 . S
H1528 C1536 0.950 . S
H1529 C1541 0.950 . S
H1530 C1538 0.950 . S
H1531 C1540 0.950 . S
H1532 C1542 0.950 . S
H1533 C1544 0.950 . S
H1534 C1546 0.950 . S
H1535 C1547 0.950 . S
C1536 H1528 0.950 . S
C1536 C1537 1.386 . S
C1536 C1538 1.391 . S
C1537 C1536 1.386 . S
C1537 C1541 1.393 . S
C1538 H1530 0.950 . S
C1538 C1536 1.391 . S
C1538 C1539 1.400 . S
C1539 C1538 1.400 . S
C1539 C1540 1.398 . S
C1539 C1545 1.491 . S
C1540 H1531 0.950 . S
C1540 C1539 1.398 . S
C1540 C1541 1.391 . S
C1541 H1529 0.950 . S
C1541 C1537 1.393 . S
C1541 C1540 1.391 . S
C1542 H1532 0.950 . S
C1542 C1543 1.386 . S
C1542 C1544 1.391 . S
C1543 C1542 1.386 . S
C1543 C1547 1.393 . S
C1544 H1533 0.950 . S
C1544 C1542 1.391 . S
C1544 C1545 1.400 . S
C1545 C1539 1.491 . S
C1545 C1544 1.400 . S
C1545 C1546 1.398 . S
C1546 H1534 0.950 . S
C1546 C1545 1.398 . S
C1546 C1547 1.391 . S
C1547 H1535 0.950 . S
C1547 C1543 1.393 . S
C1547 C1546 1.391 . S
H1548 C1556 0.950 . S
H1549 C1561 0.950 . S
H1550 C1558 0.950 . S
H1551 C1560 0.950 . S
H1552 C1562 0.950 . S
H1553 C1564 0.950 . S
H1554 C1566 0.950 . S
H1555 C1567 0.950 . S
C1556 H1548 0.950 . S
C1556 C1557 1.386 . S
C1556 C1558 1.391 . S
C1557 C1556 1.386 . S
C1557 C1561 1.393 . S
C1558 H1550 0.950 . S
C1558 C1556 1.391 . S
C1558 C1559 1.400 . S
C1559 C1558 1.400 . S
C1559 C1560 1.398 . S
C1559 C1565 1.491 . S
C1560 H1551 0.950 . S
C1560 C1559 1.398 . S
C1560 C1561 1.391 . S
C1561 H1549 0.950 . S
C1561 C1557 1.393 . S
C1561 C1560 1.391 . S
C1562 H1552 0.950 . S
C1562 C1563 1.386 . S
C1562 C1564 1.391 . S
C1563 C1562 1.386 . S
C1563 C1567 1.393 . S
C1564 H1553 0.950 . S
C1564 C1562 1.391 . S
C1564 C1565 1.400 . S
C1565 C1559 1.491 . S
C1565 C1564 1.400 . S
C1565 C1566 1.398 . S
C1566 H1554 0.950 . S
C1566 C1565 1.398 . S
C1566 C1567 1.391 . S
C1567 H1555 0.950 . S
C1567 C1563 1.393 . S
C1567 C1566 1.391 . S
H1568 C1576 0.950 1_565 S
H1569 C1581 0.950 . S
H1570 C1578 0.950 . S
H1571 C1580 0.950 . S
H1572 C1582 0.950 . S
H1573 C1584 0.950 . S
H1574 C1586 0.950 . S
H1575 C1587 0.950 . S
C1576 H1568 0.950 1_545 S
C1576 C1577 1.386 . S
C1576 C1578 1.391 . S
C1577 C1576 1.386 . S
C1577 C1581 1.393 . S
C1578 H1570 0.950 . S
C1578 C1576 1.391 . S
C1578 C1579 1.400 . S
C1579 C1578 1.400 . S
C1579 C1580 1.398 . S
C1579 C1585 1.491 . S
C1580 H1571 0.950 . S
C1580 C1579 1.398 . S
C1580 C1581 1.391 . S
C1581 H1569 0.950 . S
C1581 C1577 1.393 . S
C1581 C1580 1.391 . S
C1582 H1572 0.950 . S
C1582 C1583 1.386 . S
C1582 C1584 1.391 . S
C1583 C1582 1.386 . S
C1583 C1587 1.393 . S
C1584 H1573 0.950 . S
C1584 C1582 1.391 . S
C1584 C1585 1.400 . S
C1585 C1579 1.491 . S
C1585 C1584 1.400 . S
C1585 C1586 1.398 . S
C1586 H1574 0.950 . S
C1586 C1585 1.398 . S
C1586 C1587 1.391 . S
C1587 H1575 0.950 . S
C1587 C1583 1.393 . S
C1587 C1586 1.391 . S
H1588 C1596 0.950 . S
H1589 C1601 0.950 . S
H1590 C1598 0.950 . S
H1591 C1600 0.950 . S
H1592 C1602 0.950 . S
H1593 C1604 0.950 . S
H1594 C1606 0.950 . S
H1595 C1607 0.956 . S
C1596 H1588 0.950 . S
C1596 C1597 1.386 . S
C1596 C1598 1.391 . S
C1597 C1596 1.386 . S
C1597 C1601 1.393 . S
C1598 H1590 0.950 . S
C1598 C1596 1.391 . S
C1598 C1599 1.400 . S
C1599 C1598 1.400 . S
C1599 C1600 1.398 . S
C1599 C1605 1.491 . S
C1600 H1591 0.950 . S
C1600 C1599 1.398 . S
C1600 C1601 1.391 . S
C1601 H1589 0.950 . S
C1601 C1597 1.393 . S
C1601 C1600 1.391 . S
C1602 H1592 0.950 . S
C1602 C1603 1.386 . S
C1602 C1604 1.391 . S
C1603 C1602 1.386 . S
C1603 C1607 1.393 . S
C1604 H1593 0.950 . S
C1604 C1602 1.391 . S
C1604 C1605 1.400 . S
C1605 C1599 1.491 . S
C1605 C1604 1.400 . S
C1605 C1606 1.398 . S
C1606 H1594 0.950 . S
C1606 C1605 1.398 . S
C1606 C1607 1.391 . S
C1607 H1595 0.956 . S
C1607 C1603 1.393 . S
C1607 C1606 1.391 . S
H1608 C1616 0.950 . S
H1609 C1621 0.950 . S
H1610 C1618 0.950 . S
H1611 C1620 0.950 . S
H1612 C1622 0.950 . S
H1613 C1624 0.950 . S
H1614 C1626 0.950 . S
H1615 C1627 0.950 . S
C1616 H1608 0.950 . S
C1616 C1617 1.386 . S
C1616 C1618 1.391 . S
C1617 C1616 1.386 . S
C1617 C1621 1.393 . S
C1618 H1610 0.950 . S
C1618 C1616 1.391 . S
C1618 C1619 1.400 . S
C1619 C1618 1.400 . S
C1619 C1620 1.398 . S
C1619 C1625 1.491 . S
C1620 H1611 0.950 . S
C1620 C1619 1.398 . S
C1620 C1621 1.391 . S
C1621 H1609 0.950 . S
C1621 C1617 1.393 . S
C1621 C1620 1.391 . S
C1622 H1612 0.950 . S
C1622 C1623 1.386 . S
C1622 C1624 1.391 . S
C1623 C1622 1.386 . S
C1623 C1627 1.393 . S
C1624 H1613 0.950 . S
C1624 C1622 1.391 . S
C1624 C1625 1.400 . S
C1625 C1619 1.491 . S
C1625 C1624 1.400 . S
C1625 C1626 1.398 . S
C1626 H1614 0.950 . S
C1626 C1625 1.398 . S
C1626 C1627 1.391 . S
C1627 H1615 0.950 . S
C1627 C1623 1.393 . S
C1627 C1626 1.391 . S
H1628 C1636 0.950 . S
H1629 C1641 0.950 . S
H1630 C1638 0.950 . S
H1631 C1640 0.950 . S
H1632 C1642 0.950 . S
H1633 C1644 0.950 . S
H1634 C1646 0.950 . S
H1635 C1647 0.950 . S
C1636 H1628 0.950 . S
C1636 C1637 1.386 . S
C1636 C1638 1.391 . S
C1637 C1636 1.386 . S
C1637 C1641 1.393 . S
C1638 H1630 0.950 . S
C1638 C1636 1.391 . S
C1638 C1639 1.400 . S
C1639 C1638 1.400 . S
C1639 C1640 1.398 . S
C1639 C1645 1.491 . S
C1640 H1631 0.950 . S
C1640 C1639 1.398 . S
C1640 C1641 1.391 . S
C1641 H1629 0.950 . S
C1641 C1637 1.393 . S
C1641 C1640 1.391 . S
C1642 H1632 0.950 . S
C1642 C1643 1.386 . S
C1642 C1644 1.391 . S
C1643 C1642 1.386 . S
C1643 C1647 1.393 . S
C1644 H1633 0.950 . S
C1644 C1642 1.391 . S
C1644 C1645 1.400 . S
C1645 C1639 1.491 . S
C1645 C1644 1.400 . S
C1645 C1646 1.398 . S
C1646 H1634 0.950 . S
C1646 C1645 1.398 . S
C1646 C1647 1.391 . S
C1647 H1635 0.950 . S
C1647 C1643 1.393 . S
C1647 C1646 1.391 . S
H1648 C1656 0.950 . S
H1649 C1661 0.950 . S
H1650 C1658 0.950 . S
H1651 C1660 0.950 . S
H1652 C1662 0.950 . S
H1653 C1664 0.950 . S
H1654 C1666 0.950 . S
H1655 C1667 0.950 . S
C1656 H1648 0.950 . S
C1656 C1657 1.386 . S
C1656 C1658 1.391 . S
C1657 C1656 1.386 . S
C1657 C1661 1.393 . S
C1658 H1650 0.950 . S
C1658 C1656 1.391 . S
C1658 C1659 1.400 . S
C1659 C1658 1.400 . S
C1659 C1660 1.398 . S
C1659 C1665 1.491 . S
C1660 H1651 0.950 . S
C1660 C1659 1.398 . S
C1660 C1661 1.391 . S
C1661 H1649 0.950 . S
C1661 C1657 1.393 . S
C1661 C1660 1.391 . S
C1662 H1652 0.950 . S
C1662 C1663 1.386 . S
C1662 C1664 1.391 . S
C1663 C1662 1.386 . S
C1663 C1667 1.393 . S
C1664 H1653 0.950 . S
C1664 C1662 1.391 . S
C1664 C1665 1.400 . S
C1665 C1659 1.491 . S
C1665 C1664 1.400 . S
C1665 C1666 1.398 . S
C1666 H1654 0.950 . S
C1666 C1665 1.398 . S
C1666 C1667 1.391 . S
C1667 H1655 0.950 . S
C1667 C1663 1.393 . S
C1667 C1666 1.391 . S
H1668 C1676 0.950 . S
H1669 C1681 0.950 . S
H1670 C1678 0.950 . S
H1671 C1680 0.950 . S
H1672 C1682 0.950 . S
H1673 C1684 0.950 . S
H1674 C1686 0.950 . S
H1675 C1687 0.950 . S
C1676 H1668 0.950 . S
C1676 C1677 1.386 . S
C1676 C1678 1.391 . S
C1677 C1676 1.386 . S
C1677 C1681 1.393 . S
C1678 H1670 0.950 . S
C1678 C1676 1.391 . S
C1678 C1679 1.400 . S
C1679 C1678 1.400 . S
C1679 C1680 1.398 . S
C1679 C1685 1.491 . S
C1680 H1671 0.950 . S
C1680 C1679 1.398 . S
C1680 C1681 1.391 . S
C1681 H1669 0.950 . S
C1681 C1677 1.393 . S
C1681 C1680 1.391 . S
C1682 H1672 0.950 . S
C1682 C1683 1.386 . S
C1682 C1684 1.391 . S
C1683 C1682 1.386 . S
C1683 C1687 1.393 . S
C1684 H1673 0.950 . S
C1684 C1682 1.391 . S
C1684 C1685 1.400 . S
C1685 C1679 1.491 . S
C1685 C1684 1.400 . S
C1685 C1686 1.398 . S
C1686 H1674 0.950 . S
C1686 C1685 1.398 . S
C1686 C1687 1.391 . S
C1687 H1675 0.950 . S
C1687 C1683 1.393 . S
C1687 C1686 1.391 . S
H1688 C1696 0.950 . S
H1689 C1701 0.950 . S
H1690 C1698 0.950 . S
H1691 C1700 0.950 . S
H1692 C1702 0.950 . S
H1693 C1704 0.950 . S
H1694 C1706 0.950 . S
H1695 C1707 0.950 . S
C1696 H1688 0.950 . S
C1696 C1697 1.386 . S
C1696 C1698 1.391 . S
C1697 C1696 1.386 . S
C1697 C1701 1.393 . S
C1698 H1690 0.950 . S
C1698 C1696 1.391 . S
C1698 C1699 1.400 . S
C1699 C1698 1.400 . S
C1699 C1700 1.398 . S
C1699 C1705 1.491 . S
C1700 H1691 0.950 . S
C1700 C1699 1.398 . S
C1700 C1701 1.391 . S
C1701 H1689 0.950 . S
C1701 C1697 1.393 . S
C1701 C1700 1.391 . S
C1702 H1692 0.950 . S
C1702 C1703 1.386 . S
C1702 C1704 1.391 . S
C1703 C1702 1.386 . S
C1703 C1707 1.393 . S
C1704 H1693 0.950 . S
C1704 C1702 1.391 . S
C1704 C1705 1.400 . S
C1705 C1699 1.491 . S
C1705 C1704 1.400 . S
C1705 C1706 1.398 . S
C1706 H1694 0.950 . S
C1706 C1705 1.398 . S
C1706 C1707 1.391 . S
C1707 H1695 0.950 . S
C1707 C1703 1.393 . S
C1707 C1706 1.391 . S
H1708 C1716 0.950 . S
H1709 C1721 0.950 . S
H1710 C1718 0.950 . S
H1711 C1720 0.950 . S
H1712 C1722 0.950 . S
H1713 C1724 0.950 . S
H1714 C1726 0.950 . S
H1715 C1727 0.950 . S
C1716 H1708 0.950 . S
C1716 C1717 1.386 . S
C1716 C1718 1.391 . S
C1717 C1716 1.386 . S
C1717 C1721 1.393 . S
C1718 H1710 0.950 . S
C1718 C1716 1.391 . S
C1718 C1719 1.400 . S
C1719 C1718 1.400 . S
C1719 C1720 1.398 . S
C1719 C1725 1.491 . S
C1720 H1711 0.950 . S
C1720 C1719 1.398 . S
C1720 C1721 1.391 . S
C1721 H1709 0.950 . S
C1721 C1717 1.393 . S
C1721 C1720 1.391 . S
C1722 H1712 0.950 . S
C1722 C1723 1.386 . S
C1722 C1724 1.391 . S
C1723 C1722 1.386 . S
C1723 C1727 1.393 . S
C1724 H1713 0.950 . S
C1724 C1722 1.391 . S
C1724 C1725 1.400 . S
C1725 C1719 1.491 . S
C1725 C1724 1.400 . S
C1725 C1726 1.398 . S
C1726 H1714 0.950 . S
C1726 C1725 1.398 . S
C1726 C1727 1.391 . S
C1727 H1715 0.950 . S
C1727 C1723 1.393 . S
C1727 C1726 1.391 . S
C457 C36 0.816 . S
C463 C8 0.803 . S
C477 C22 0.830 . S
C483 C50 0.828 . S
C497 C92 0.824 . S
C503 C64 0.829 . S
C517 C106 0.779 . S
C523 C78 0.781 . S
C537 C120 0.824 1_545 S
C543 C148 0.830 . S
C557 C162 0.829 1_545 S
C563 C134 0.829 . S
C577 C176 0.780 1_565 S
C583 C204 0.779 . S
C597 C190 0.792 . S
C603 C218 0.782 1_565 S
C617 C260 0.779 . S
C623 C232 0.781 . S
C637 C246 0.826 . S
C643 C274 0.817 . S
C657 C288 0.830 . S
C663 C316 0.827 . S
C677 C330 0.780 . S
C683 C302 0.779 . S
C697 C372 0.779 . S
C703 C344 0.779 1_545 S
C717 C386 0.784 1_545 S
C723 C358 0.794 . S
C737 C428 0.824 . S
C743 C400 0.829 1_565 S
C757 C414 0.796 . S
C763 C442 0.785 1_565 S
C777 C62 1.471 . S
C783 C6 1.471 . S
C797 C412 1.469 . S
C803 C20 1.469 . S
C817 C34 1.464 . S
C823 C202 1.464 . S
C837 C48 1.480 . S
C843 C328 1.480 . S
C857 C76 1.474 . S
C863 C356 1.474 . S
C877 C90 1.473 . S
C883 C146 1.473 . S
C897 C272 1.466 . S
C903 C104 1.466 . S
C917 C174 1.467 . S
C923 C118 1.467 . S
C937 C300 1.465 . S
C943 C132 1.465 . S
C957 C160 1.472 . S
C963 C440 1.472 . S
C977 C188 1.476 . S
C983 C244 1.476 . S
C997 C384 1.462 . S
C1003 C216 1.462 . S
C1017 C286 1.486 . S
C1023 C230 1.486 . S
C1037 C258 1.472 . S
C1043 C426 1.472 . S
C1057 C314 1.474 . S
C1063 C370 1.474 . S
C1077 C398 1.470 . S
C1083 C342 1.470 . S
C1097 C51 1.467 . S
C1103 C9 1.458 . S
C1117 C37 1.470 . S
C1123 C23 1.476 . S
C1137 C107 1.463 . S
C1143 C65 1.472 . S
C1157 C93 1.457 . S
C1163 C79 1.466 . S
C1177 C163 1.475 . S
C1183 C121 1.473 . S
C1197 C149 1.468 . S
C1203 C135 1.475 . S
C1217 C219 1.459 . S
C1223 C177 1.469 . S
C1237 C205 1.475 . S
C1243 C191 1.473 . S
C1257 C233 1.462 . S
C1263 C275 1.455 . S
C1277 C261 1.460 . S
C1283 C247 1.470 . S
C1297 C289 1.457 . S
C1303 C331 1.456 . S
C1317 C317 1.473 . S
C1323 C303 1.464 . S
C1337 C387 1.466 . S
C1343 C345 1.457 . S
C1357 C359 1.475 . S
C1363 C373 1.473 . S
C1377 C401 1.455 . S
C1383 C443 1.458 . S
C1397 C429 1.459 . S
C1403 C415 1.455 . S
C1417 C35 1.500 1_545 S
C1423 C7 1.507 . S
C1437 C21 1.503 1_545 S
C1443 C49 1.510 . S
C1457 C63 1.496 . S
C1463 C91 1.496 1_565 S
C1477 C77 1.511 1_565 S
C1483 C105 1.512 . S
C1497 C119 1.509 . S
C1503 C147 1.502 . S
C1517 C133 1.496 . S
C1523 C161 1.501 . S
C1537 C203 1.507 . S
C1543 C175 1.500 . S
C1557 C217 1.497 . S
C1563 C189 1.496 . S
C1577 C259 1.508 1_545 S
C1583 C231 1.501 . S
C1597 C273 1.496 . S
C1603 C245 1.502 1_545 S
C1617 C287 1.497 . S
C1623 C315 1.495 1_565 S
C1637 C329 1.496 . S
C1643 C301 1.501 1_565 S
C1657 C371 1.503 . S
C1663 C343 1.497 . S
C1677 C357 1.496 . S
C1683 C385 1.496 . S
C1697 C399 1.512 . S
C1703 C427 1.511 . S
C1717 C441 1.512 . S
C1723 C413 1.512 . S
