# Generated by pormake.
# Topology wio, (6)-cn, num edge types: 1
# Building blocks:
#     Node 0, Type 0, BuildingBlock: BETDIP_clean_sbu_0, # of connection points: 6
#     Node 1, Type 0, BuildingBlock: BETDIP_clean_sbu_0, # of connection points: 6
#     Node 2, Type 0, BuildingBlock: BETDIP_clean_sbu_0, # of connection points: 6
#     Node 3, Type 0, BuildingBlock: BETDIP_clean_sbu_0, # of connection points: 6
#     Node 4, Type 0, BuildingBlock: BETDIP_clean_sbu_0, # of connection points: 6
#     Node 5, Type 0, BuildingBlock: BETDIP_clean_sbu_0, # of connection points: 6
#     Node 6, Type 0, BuildingBlock: BETDIP_clean_sbu_0, # of connection points: 6
#     Node 7, Type 0, BuildingBlock: BETDIP_clean_sbu_0, # of connection points: 6
#     Node 8, Type 0, BuildingBlock: BETDIP_clean_sbu_0, # of connection points: 6
#     Node 9, Type 0, BuildingBlock: BETDIP_clean_sbu_0, # of connection points: 6
#     Node 10, Type 0, BuildingBlock: BETDIP_clean_sbu_0, # of connection points: 6
#     Node 11, Type 0, BuildingBlock: BETDIP_clean_sbu_0, # of connection points: 6
#     Node 12, Type 0, BuildingBlock: BETDIP_clean_sbu_0, # of connection points: 6
#     Node 13, Type 0, BuildingBlock: BETDIP_clean_sbu_0, # of connection points: 6
#     Node 14, Type 0, BuildingBlock: BETDIP_clean_sbu_0, # of connection points: 6
#     Node 15, Type 0, BuildingBlock: BETDIP_clean_sbu_0, # of connection points: 6
#     Node 16, Type 0, BuildingBlock: BETDIP_clean_sbu_0, # of connection points: 6
#     Node 17, Type 0, BuildingBlock: BETDIP_clean_sbu_0, # of connection points: 6
#     Node 18, Type 0, BuildingBlock: BETDIP_clean_sbu_0, # of connection points: 6
#     Node 19, Type 0, BuildingBlock: BETDIP_clean_sbu_0, # of connection points: 6
#     Node 20, Type 0, BuildingBlock: BETDIP_clean_sbu_0, # of connection points: 6
#     Node 21, Type 0, BuildingBlock: BETDIP_clean_sbu_0, # of connection points: 6
#     Node 22, Type 0, BuildingBlock: BETDIP_clean_sbu_0, # of connection points: 6
#     Node 23, Type 0, BuildingBlock: BETDIP_clean_sbu_0, # of connection points: 6
#     Node 24, Type 0, BuildingBlock: BETDIP_clean_sbu_0, # of connection points: 6
#     Node 25, Type 0, BuildingBlock: BETDIP_clean_sbu_0, # of connection points: 6
#     Node 26, Type 0, BuildingBlock: BETDIP_clean_sbu_0, # of connection points: 6
#     Node 27, Type 0, BuildingBlock: BETDIP_clean_sbu_0, # of connection points: 6
#     Node 28, Type 0, BuildingBlock: BETDIP_clean_sbu_0, # of connection points: 6
#     Node 29, Type 0, BuildingBlock: BETDIP_clean_sbu_0, # of connection points: 6
#     Node 30, Type 0, BuildingBlock: BETDIP_clean_sbu_0, # of connection points: 6
#     Node 31, Type 0, BuildingBlock: BETDIP_clean_sbu_0, # of connection points: 6
#     Edge 32, Type (0, 0), BuildingBlock: CIFDUS_clean_linker_0, # of connection points: 2
#     Edge 33, Type (0, 0), BuildingBlock: CIFDUS_clean_linker_0, # of connection points: 2
#     Edge 34, Type (0, 0), BuildingBlock: CIFDUS_clean_linker_0, # of connection points: 2
#     Edge 35, Type (0, 0), BuildingBlock: CIFDUS_clean_linker_0, # of connection points: 2
#     Edge 36, Type (0, 0), BuildingBlock: CIFDUS_clean_linker_0, # of connection points: 2
#     Edge 37, Type (0, 0), BuildingBlock: CIFDUS_clean_linker_0, # of connection points: 2
#     Edge 38, Type (0, 0), BuildingBlock: CIFDUS_clean_linker_0, # of connection points: 2
#     Edge 39, Type (0, 0), BuildingBlock: CIFDUS_clean_linker_0, # of connection points: 2
#     Edge 40, Type (0, 0), BuildingBlock: CIFDUS_clean_linker_0, # of connection points: 2
#     Edge 41, Type (0, 0), BuildingBlock: CIFDUS_clean_linker_0, # of connection points: 2
#     Edge 42, Type (0, 0), BuildingBlock: CIFDUS_clean_linker_0, # of connection points: 2
#     Edge 43, Type (0, 0), BuildingBlock: CIFDUS_clean_linker_0, # of connection points: 2
#     Edge 44, Type (0, 0), BuildingBlock: CIFDUS_clean_linker_0, # of connection points: 2
#     Edge 45, Type (0, 0), BuildingBlock: CIFDUS_clean_linker_0, # of connection points: 2
#     Edge 46, Type (0, 0), BuildingBlock: CIFDUS_clean_linker_0, # of connection points: 2
#     Edge 47, Type (0, 0), BuildingBlock: CIFDUS_clean_linker_0, # of connection points: 2
#     Edge 48, Type (0, 0), BuildingBlock: CIFDUS_clean_linker_0, # of connection points: 2
#     Edge 49, Type (0, 0), BuildingBlock: CIFDUS_clean_linker_0, # of connection points: 2
#     Edge 50, Type (0, 0), BuildingBlock: CIFDUS_clean_linker_0, # of connection points: 2
#     Edge 51, Type (0, 0), BuildingBlock: CIFDUS_clean_linker_0, # of connection points: 2
#     Edge 52, Type (0, 0), BuildingBlock: CIFDUS_clean_linker_0, # of connection points: 2
#     Edge 53, Type (0, 0), BuildingBlock: CIFDUS_clean_linker_0, # of connection points: 2
#     Edge 54, Type (0, 0), BuildingBlock: CIFDUS_clean_linker_0, # of connection points: 2
#     Edge 55, Type (0, 0), BuildingBlock: CIFDUS_clean_linker_0, # of connection points: 2
#     Edge 56, Type (0, 0), BuildingBlock: CIFDUS_clean_linker_0, # of connection points: 2
#     Edge 57, Type (0, 0), BuildingBlock: CIFDUS_clean_linker_0, # of connection points: 2
#     Edge 58, Type (0, 0), BuildingBlock: CIFDUS_clean_linker_0, # of connection points: 2
#     Edge 59, Type (0, 0), BuildingBlock: CIFDUS_clean_linker_0, # of connection points: 2
#     Edge 60, Type (0, 0), BuildingBlock: CIFDUS_clean_linker_0, # of connection points: 2
#     Edge 61, Type (0, 0), BuildingBlock: CIFDUS_clean_linker_0, # of connection points: 2
#     Edge 62, Type (0, 0), BuildingBlock: CIFDUS_clean_linker_0, # of connection points: 2
#     Edge 63, Type (0, 0), BuildingBlock: CIFDUS_clean_linker_0, # of connection points: 2
#     Edge 64, Type (0, 0), BuildingBlock: CIFDUS_clean_linker_0, # of connection points: 2
#     Edge 65, Type (0, 0), BuildingBlock: CIFDUS_clean_linker_0, # of connection points: 2
#     Edge 66, Type (0, 0), BuildingBlock: CIFDUS_clean_linker_0, # of connection points: 2
#     Edge 67, Type (0, 0), BuildingBlock: CIFDUS_clean_linker_0, # of connection points: 2
#     Edge 68, Type (0, 0), BuildingBlock: CIFDUS_clean_linker_0, # of connection points: 2
#     Edge 69, Type (0, 0), BuildingBlock: CIFDUS_clean_linker_0, # of connection points: 2
#     Edge 70, Type (0, 0), BuildingBlock: CIFDUS_clean_linker_0, # of connection points: 2
#     Edge 71, Type (0, 0), BuildingBlock: CIFDUS_clean_linker_0, # of connection points: 2
#     Edge 72, Type (0, 0), BuildingBlock: CIFDUS_clean_linker_0, # of connection points: 2
#     Edge 73, Type (0, 0), BuildingBlock: CIFDUS_clean_linker_0, # of connection points: 2
#     Edge 74, Type (0, 0), BuildingBlock: CIFDUS_clean_linker_0, # of connection points: 2
#     Edge 75, Type (0, 0), BuildingBlock: CIFDUS_clean_linker_0, # of connection points: 2
#     Edge 76, Type (0, 0), BuildingBlock: CIFDUS_clean_linker_0, # of connection points: 2
#     Edge 77, Type (0, 0), BuildingBlock: CIFDUS_clean_linker_0, # of connection points: 2
#     Edge 78, Type (0, 0), BuildingBlock: CIFDUS_clean_linker_0, # of connection points: 2
#     Edge 79, Type (0, 0), BuildingBlock: CIFDUS_clean_linker_0, # of connection points: 2
#     Edge 80, Type (0, 0), BuildingBlock: CIFDUS_clean_linker_0, # of connection points: 2
#     Edge 81, Type (0, 0), BuildingBlock: CIFDUS_clean_linker_0, # of connection points: 2
#     Edge 82, Type (0, 0), BuildingBlock: CIFDUS_clean_linker_0, # of connection points: 2
#     Edge 83, Type (0, 0), BuildingBlock: CIFDUS_clean_linker_0, # of connection points: 2
#     Edge 84, Type (0, 0), BuildingBlock: CIFDUS_clean_linker_0, # of connection points: 2
#     Edge 85, Type (0, 0), BuildingBlock: CIFDUS_clean_linker_0, # of connection points: 2
#     Edge 86, Type (0, 0), BuildingBlock: CIFDUS_clean_linker_0, # of connection points: 2
#     Edge 87, Type (0, 0), BuildingBlock: CIFDUS_clean_linker_0, # of connection points: 2
#     Edge 88, Type (0, 0), BuildingBlock: CIFDUS_clean_linker_0, # of connection points: 2
#     Edge 89, Type (0, 0), BuildingBlock: CIFDUS_clean_linker_0, # of connection points: 2
#     Edge 90, Type (0, 0), BuildingBlock: CIFDUS_clean_linker_0, # of connection points: 2
#     Edge 91, Type (0, 0), BuildingBlock: CIFDUS_clean_linker_0, # of connection points: 2
#     Edge 92, Type (0, 0), BuildingBlock: CIFDUS_clean_linker_0, # of connection points: 2
#     Edge 93, Type (0, 0), BuildingBlock: CIFDUS_clean_linker_0, # of connection points: 2
#     Edge 94, Type (0, 0), BuildingBlock: CIFDUS_clean_linker_0, # of connection points: 2
#     Edge 95, Type (0, 0), BuildingBlock: CIFDUS_clean_linker_0, # of connection points: 2
#     Edge 96, Type (0, 0), BuildingBlock: CIFDUS_clean_linker_0, # of connection points: 2
#     Edge 97, Type (0, 0), BuildingBlock: CIFDUS_clean_linker_0, # of connection points: 2
#     Edge 98, Type (0, 0), BuildingBlock: CIFDUS_clean_linker_0, # of connection points: 2
#     Edge 99, Type (0, 0), BuildingBlock: CIFDUS_clean_linker_0, # of connection points: 2
#     Edge 100, Type (0, 0), BuildingBlock: CIFDUS_clean_linker_0, # of connection points: 2
#     Edge 101, Type (0, 0), BuildingBlock: CIFDUS_clean_linker_0, # of connection points: 2
#     Edge 102, Type (0, 0), BuildingBlock: CIFDUS_clean_linker_0, # of connection points: 2
#     Edge 103, Type (0, 0), BuildingBlock: CIFDUS_clean_linker_0, # of connection points: 2
#     Edge 104, Type (0, 0), BuildingBlock: CIFDUS_clean_linker_0, # of connection points: 2
#     Edge 105, Type (0, 0), BuildingBlock: CIFDUS_clean_linker_0, # of connection points: 2
#     Edge 106, Type (0, 0), BuildingBlock: CIFDUS_clean_linker_0, # of connection points: 2
#     Edge 107, Type (0, 0), BuildingBlock: CIFDUS_clean_linker_0, # of connection points: 2
#     Edge 108, Type (0, 0), BuildingBlock: CIFDUS_clean_linker_0, # of connection points: 2
#     Edge 109, Type (0, 0), BuildingBlock: CIFDUS_clean_linker_0, # of connection points: 2
#     Edge 110, Type (0, 0), BuildingBlock: CIFDUS_clean_linker_0, # of connection points: 2
#     Edge 111, Type (0, 0), BuildingBlock: CIFDUS_clean_linker_0, # of connection points: 2
#     Edge 112, Type (0, 0), BuildingBlock: CIFDUS_clean_linker_0, # of connection points: 2
#     Edge 113, Type (0, 0), BuildingBlock: CIFDUS_clean_linker_0, # of connection points: 2
#     Edge 114, Type (0, 0), BuildingBlock: CIFDUS_clean_linker_0, # of connection points: 2
#     Edge 115, Type (0, 0), BuildingBlock: CIFDUS_clean_linker_0, # of connection points: 2
#     Edge 116, Type (0, 0), BuildingBlock: CIFDUS_clean_linker_0, # of connection points: 2
#     Edge 117, Type (0, 0), BuildingBlock: CIFDUS_clean_linker_0, # of connection points: 2
#     Edge 118, Type (0, 0), BuildingBlock: CIFDUS_clean_linker_0, # of connection points: 2
#     Edge 119, Type (0, 0), BuildingBlock: CIFDUS_clean_linker_0, # of connection points: 2
#     Edge 120, Type (0, 0), BuildingBlock: CIFDUS_clean_linker_0, # of connection points: 2
#     Edge 121, Type (0, 0), BuildingBlock: CIFDUS_clean_linker_0, # of connection points: 2
#     Edge 122, Type (0, 0), BuildingBlock: CIFDUS_clean_linker_0, # of connection points: 2
#     Edge 123, Type (0, 0), BuildingBlock: CIFDUS_clean_linker_0, # of connection points: 2
#     Edge 124, Type (0, 0), BuildingBlock: CIFDUS_clean_linker_0, # of connection points: 2
#     Edge 125, Type (0, 0), BuildingBlock: CIFDUS_clean_linker_0, # of connection points: 2
#     Edge 126, Type (0, 0), BuildingBlock: CIFDUS_clean_linker_0, # of connection points: 2
#     Edge 127, Type (0, 0), BuildingBlock: CIFDUS_clean_linker_0, # of connection points: 2
# Relax obj value: 0.204
# Max RMSD: 0.235
# Mean RMSD: 0.235
data_MOF--net-wio--node1-BETDIP_clean_sbu_0--edge1-CIFDUS_clean_linker_0
_symmetry_space_group_name_H-M    P1
_symmetry_Int_Tables_number       1
_symmetry_cell_setting            triclinic
loop_
_symmetry_equiv_pos_as_xyz
'x, y, z'
_cell_length_a     55.561038
_cell_length_b     55.65791
_cell_length_c     47.78744
_cell_angle_alpha  90.027745
_cell_angle_beta   90.008914
_cell_angle_gamma 89.95267
loop_
_atom_site_label
_atom_site_type_symbol
_atom_site_fract_x
_atom_site_fract_y
_atom_site_fract_z
_atom_type_partial_charge
Tb0 Tb 0.16395 0.11172 0.29884 0.0
Tb1 Tb 0.11099 0.12324 0.30409 0.0
C2 C 0.20472 0.09754 0.28307 0.0
C3 C 0.2207 0.10278 0.25927 0.0
C4 C 0.21146 0.10649 0.23227 0.0
C5 C 0.22689 0.11202 0.21013 0.0
C6 C 0.25189 0.11382 0.21451 0.0
C7 C 0.26102 0.11041 0.24165 0.0
C8 C 0.24554 0.10494 0.26382 0.0
C9 C 0.15443 0.15228 0.32445 0.0
C10 C 0.13612 0.13522 0.24652 0.0
C11 C 0.07224 0.14097 0.32281 0.0
C12 C 0.05478 0.13738 0.34594 0.0
C13 C 0.04234 0.15731 0.35677 0.0
C14 C 0.02468 0.15441 0.3775 0.0
C15 C 0.01895 0.13144 0.38782 0.0
C16 C 0.03204 0.11157 0.3775 0.0
C17 C 0.04978 0.1145 0.35685 0.0
C18 C 0.12066 0.08024 0.28272 0.0
C19 C 0.1393 0.09579 0.35421 0.0
O20 O 0.18468 0.08604 0.2776 0.0
O21 O 0.20147 0.11533 0.30052 0.0
O22 O 0.14319 0.14423 0.30332 0.0
O23 O 0.17242 0.13837 0.33015 0.0
O24 O 0.1552 0.12405 0.25676 0.0
O25 O 0.11662 0.13909 0.26207 0.0
O26 O 0.09366 0.14858 0.32984 0.0
O27 O 0.07318 0.1245 0.30326 0.0
O28 O 0.13194 0.09123 0.30152 0.0
O29 O 0.1012 0.09246 0.27765 0.0
O30 O 0.11958 0.1073 0.3457 0.0
O31 O 0.15815 0.0928 0.33774 0.0
H32 H 0.19235 0.10507 0.22822 0.0
H33 H 0.21925 0.11485 0.18954 0.0
H34 H 0.28019 0.1114 0.24563 0.0
H35 H 0.25299 0.10227 0.28455 0.0
H36 H 0.04594 0.17515 0.34875 0.0
H37 H 0.0149 0.17008 0.38467 0.0
H38 H 0.02842 0.09364 0.38523 0.0
H39 H 0.0593 0.09886 0.34911 0.0
Tb40 Tb 0.15217 0.89839 0.54196 0.0
Tb41 Tb 0.14962 0.84487 0.5539 0.0
C42 C 0.16364 0.94138 0.53251 0.0
C43 C 0.15636 0.96028 0.5124 0.0
C44 C 0.17412 0.97215 0.49681 0.0
C45 C 0.16784 0.98996 0.4775 0.0
C46 C 0.14359 0.99651 0.47343 0.0
C47 C 0.12579 0.98457 0.48913 0.0
C48 C 0.1321 0.96661 0.50835 0.0
C49 C 0.1106 0.88256 0.56268 0.0
C50 C 0.13619 0.86559 0.49245 0.0
C51 C 0.13336 0.80349 0.56375 0.0
C52 C 0.13226 0.78624 0.58716 0.0
C53 C 0.13523 0.79338 0.61518 0.0
C54 C 0.13612 0.77609 0.63661 0.0
C55 C 0.13431 0.75147 0.63019 0.0
C56 C 0.13043 0.74462 0.60222 0.0
C57 C 0.12941 0.76182 0.58098 0.0
C58 C 0.193 0.85961 0.54281 0.0
C59 C 0.1719 0.87773 0.59998 0.0
O60 O 0.17515 0.92294 0.52198 0.0
O61 O 0.14782 0.93495 0.55137 0.0
O62 O 0.13152 0.87578 0.56849 0.0
O63 O 0.11244 0.9001 0.5449 0.0
O64 O 0.14079 0.88774 0.50053 0.0
O65 O 0.13825 0.84686 0.50952 0.0
O66 O 0.12051 0.82316 0.56596 0.0
O67 O 0.15479 0.80755 0.55341 0.0
O68 O 0.17392 0.86766 0.53119 0.0
O69 O 0.1879 0.84114 0.55832 0.0
O70 O 0.16157 0.85663 0.59522 0.0
O71 O 0.17204 0.8953 0.58128 0.0
H72 H 0.19293 0.96751 0.49944 0.0
H73 H 0.18203 0.99832 0.46543 0.0
H74 H 0.10698 0.98924 0.48678 0.0
H75 H 0.11796 0.95772 0.52 0.0
H76 H 0.13753 0.81218 0.62039 0.0
H77 H 0.13931 0.78185 0.65793 0.0
H78 H 0.12882 0.72581 0.59666 0.0
H79 H 0.12704 0.75594 0.55953 0.0
Tb80 Tb 0.36766 0.91012 0.79026 0.0
Tb81 Tb 0.41949 0.90026 0.80569 0.0
C82 C 0.32883 0.92372 0.76832 0.0
C83 C 0.31121 0.91384 0.7484 0.0
C84 C 0.30022 0.92924 0.72909 0.0
C85 C 0.28261 0.92058 0.71085 0.0
C86 C 0.27547 0.89631 0.7117 0.0
C87 C 0.28695 0.88077 0.73072 0.0
C88 C 0.30471 0.88944 0.74886 0.0
C89 C 0.37509 0.86798 0.8141 0.0
C90 C 0.40375 0.89089 0.74338 0.0
C91 C 0.45609 0.88251 0.8293 0.0
C92 C 0.47247 0.8868 0.85313 0.0
C93 C 0.48567 0.86746 0.86408 0.0
C94 C 0.50274 0.87116 0.88522 0.0
C95 C 0.50704 0.89435 0.8958 0.0
C96 C 0.49309 0.91359 0.88543 0.0
C97 C 0.47595 0.90985 0.86432 0.0
C98 C 0.41187 0.94373 0.7843 0.0
C99 C 0.38455 0.92664 0.84975 0.0
O100 O 0.35003 0.92913 0.75821 0.0
O101 O 0.3302 0.91303 0.79263 0.0
O102 O 0.389 0.87828 0.79697 0.0
O103 O 0.35532 0.88007 0.81554 0.0
O104 O 0.38299 0.9011 0.74958 0.0
O105 O 0.42017 0.88598 0.76274 0.0
O106 O 0.43397 0.87642 0.83537 0.0
O107 O 0.45709 0.89776 0.80849 0.0
O108 O 0.39803 0.93179 0.79972 0.0
O109 O 0.43225 0.93231 0.78343 0.0
O110 O 0.40498 0.91469 0.84558 0.0
O111 O 0.369 0.93022 0.82918 0.0
H112 H 0.30513 0.94807 0.72827 0.0
H113 H 0.27461 0.93293 0.69601 0.0
H114 H 0.28184 0.86204 0.73205 0.0
H115 H 0.31309 0.87716 0.76349 0.0
H116 H 0.48321 0.84952 0.85575 0.0
H117 H 0.51325 0.85599 0.89244 0.0
H118 H 0.49567 0.93163 0.89337 0.0
H119 H 0.4658 0.925 0.85636 0.0
Tb120 Tb 0.37148 0.123 0.0428 0.0
Tb121 Tb 0.38223 0.17447 0.05532 0.0
C122 C 0.35667 0.0835 1.02371 0.0
C123 C 0.36431 0.06435 1.00446 0.0
C124 C 0.35437 0.0414 1.00761 0.0
C125 C 0.36114 0.02273 0.98975 0.0
C126 C 0.37797 0.02666 0.96825 0.0
C127 C 0.38821 0.04968 0.96541 0.0
C128 C 0.38145 0.06838 0.98342 0.0
C129 C 0.41194 0.13003 0.07062 0.0
C130 C 0.39614 0.15514 0.99541 0.0
C131 C 0.39907 0.21213 0.07751 0.0
C132 C 0.39467 0.22874 0.10112 0.0
C133 C 0.41401 0.24193 0.11208 0.0
C134 C 0.41023 0.2592 0.13295 0.0
C135 C 0.38695 0.26372 0.14328 0.0
C136 C 0.36769 0.24984 0.13286 0.0
C137 C 0.37152 0.23249 0.11202 0.0
C138 C 0.33952 0.16749 1.03107 0.0
C139 C 0.35203 0.14305 0.09947 0.0
O140 O 0.35123 0.10438 1.01272 0.0
O141 O 0.36928 0.08558 0.04666 0.0
O142 O 0.40392 0.14308 0.05104 0.0
O143 O 0.39829 0.1114 0.07315 0.0
O144 O 0.38532 0.13486 1.00235 0.0
O145 O 0.39929 0.17276 1.01379 0.0
O146 O 0.40626 0.19044 0.08382 0.0
O147 O 0.3833 0.21212 0.05719 0.0
O148 O 0.34991 0.1543 0.04867 0.0
O149 O 0.35281 0.18647 1.02795 0.0
O150 O 0.3659 0.16222 0.09549 0.0
O151 O 0.34882 0.12723 0.0792 0.0
H152 H 0.34129 0.03791 1.02394 0.0
H153 H 0.35319 1.00516 0.99283 0.0
H154 H 0.40105 0.05338 0.94891 0.0
H155 H 0.38943 0.08596 0.98084 0.0
H156 H 0.43203 0.23929 0.10396 0.0
H157 H 0.42544 0.26965 0.14022 0.0
H158 H 0.34958 0.25258 0.14061 0.0
H159 H 0.35634 0.22236 0.10406 0.0
Tb160 Tb 0.15389 0.90538 0.28182 0.0
Tb161 Tb 0.10233 0.89464 0.26788 0.0
C162 C 0.19296 0.92037 0.30179 0.0
C163 C 0.21196 0.9122 0.32093 0.0
C164 C 0.23555 0.92 0.31623 0.0
C165 C 0.25417 0.91264 0.33383 0.0
C166 C 0.24953 0.89737 0.35663 0.0
C167 C 0.22585 0.88918 0.36101 0.0
C168 C 0.20718 0.89651 0.34325 0.0
C169 C 0.14716 0.86424 0.2557 0.0
C170 C 0.12028 0.88212 0.32864 0.0
C171 C 0.06531 0.87721 0.24488 0.0
C172 C 0.04919 0.88181 0.22093 0.0
C173 C 0.0346 0.86315 0.21087 0.0
C174 C 0.01775 0.86741 0.18964 0.0
C175 C 0.0151 0.89051 0.17812 0.0
C176 C 0.03047 0.90898 0.18756 0.0
C177 C 0.04739 0.90466 0.20873 0.0
C178 C 0.10921 0.93744 0.29141 0.0
C179 C 0.13497 0.92362 0.22389 0.0
O180 O 0.17187 0.92535 0.31265 0.0
O181 O 0.1913 0.90847 0.2783 0.0
O182 O 0.13359 0.87311 0.27423 0.0
O183 O 0.16622 0.87734 0.2535 0.0
O184 O 0.14096 0.89244 0.32226 0.0
O185 O 0.10302 0.87874 0.30987 0.0
O186 O 0.08727 0.87047 0.23896 0.0
O187 O 0.0647 0.8928 0.26538 0.0
O188 O 0.12273 0.92669 0.27447 0.0
O189 O 0.08974 0.92473 0.29381 0.0
O190 O 0.11533 0.91043 0.2279 0.0
O191 O 0.15059 0.92696 0.24438 0.0
H192 H 0.23959 0.93188 0.29889 0.0
H193 H 0.27224 0.91895 0.32958 0.0
H194 H 0.22165 0.87758 0.37853 0.0
H195 H 0.18907 0.8901 0.34706 0.0
H196 H 0.03579 0.84536 0.21998 0.0
H197 H 1.00611 0.85286 0.18309 0.0
H198 H 0.02914 0.9269 0.17887 0.0
H199 H 0.05866 0.91926 0.21599 0.0
Tb200 Tb 0.36951 0.9101 0.5305 0.0
Tb201 Tb 0.37706 0.85788 0.51892 0.0
C202 C 0.35736 0.95046 0.54964 0.0
C203 C 0.36674 0.96876 0.56903 0.0
C204 C 0.36285 0.99305 0.56279 0.0
C205 C 0.37148 1.01099 0.58057 0.0
C206 C 0.38415 1.005 0.60508 0.0
C207 C 0.38838 0.98057 0.61108 0.0
C208 C 0.37976 0.96259 0.59317 0.0
C209 C 0.4097 0.90034 0.50371 0.0
C210 C 0.39153 0.87649 0.57868 0.0
C211 C 0.39129 0.81863 0.49786 0.0
C212 C 0.38846 0.80352 0.47255 0.0
C213 C 0.36682 0.80284 0.45741 0.0
C214 C 0.36388 0.78646 0.43536 0.0
C215 C 0.38251 0.77042 0.42793 0.0
C216 C 0.40454 0.77203 0.44232 0.0
C217 C 0.40743 0.78836 0.46442 0.0
C218 C 0.33556 0.86839 0.54356 0.0
C219 C 0.3509 0.89099 0.47326 0.0
O220 O 0.35019 0.93 0.56034 0.0
O221 O 0.36965 0.94757 0.52659 0.0
O222 O 0.40062 0.88788 0.52314 0.0
O223 O 0.39745 0.9199 0.50091 0.0
O224 O 0.38266 0.89763 0.57123 0.0
O225 O 0.39325 0.85838 0.56074 0.0
O226 O 0.40261 0.83904 0.49486 0.0
O227 O 0.37266 0.82062 0.51444 0.0
O228 O 0.34594 0.88029 0.52477 0.0
O229 O 0.34797 0.849 0.548 0.0
O230 O 0.36256 0.87065 0.47839 0.0
O231 O 0.34812 0.90755 0.49279 0.0
H232 H 0.35307 0.99816 0.5441 0.0
H233 H 0.36823 0.02959 0.57509 0.0
H234 H 0.39784 0.97532 0.62992 0.0
H235 H 0.38309 0.94394 0.59829 0.0
H236 H 0.35199 0.81452 0.46309 0.0
H237 H 0.34679 0.78599 0.42447 0.0
H238 H 0.41919 0.75989 0.4374 0.0
H239 H 0.42431 0.78861 0.47578 0.0
Tb240 Tb 0.37647 0.11728 0.78124 0.0
Tb241 Tb 0.42775 0.13126 0.76922 0.0
C242 C 0.33767 0.09939 0.79884 0.0
C243 C 0.31935 0.10256 0.82071 0.0
C244 C 0.30222 0.08444 0.82443 0.0
C245 C 0.28371 0.08724 0.84389 0.0
C246 C 0.28197 0.10826 0.86013 0.0
C247 C 0.29918 0.12653 0.85627 0.0
C248 C 0.31779 0.12368 0.8367 0.0
C249 C 0.38185 0.16027 0.75881 0.0
C250 C 0.4089 0.1383 0.83066 0.0
C251 C 0.4645 0.15038 0.74735 0.0
C252 C 0.4811 0.1459 0.72366 0.0
C253 C 0.49557 0.16466 0.71359 0.0
C254 C 0.51245 0.16054 0.69228 0.0
C255 C 0.51531 0.13748 0.68065 0.0
C256 C 0.50019 0.11887 0.69026 0.0
C257 C 0.48324 0.12304 0.71149 0.0
C258 C 0.42256 0.08694 0.78875 0.0
C259 C 0.39595 0.10496 0.72184 0.0
O260 O 0.35896 0.09185 0.80666 0.0
O261 O 0.33888 0.11635 0.78003 0.0
O262 O 0.39553 0.15084 0.77686 0.0
O263 O 0.36349 0.14646 0.755 0.0
O264 O 0.38961 0.12605 0.82306 0.0
O265 O 0.42526 0.1455 0.8122 0.0
O266 O 0.44239 0.15625 0.74093 0.0
O267 O 0.46532 0.13509 0.76812 0.0
O268 O 0.40869 0.09788 0.77229 0.0
O269 O 0.44129 0.1004 0.7928 0.0
O270 O 0.41566 0.11739 0.72797 0.0
O271 O 0.37971 0.09977 0.74103 0.0
H272 H 0.30299 0.06815 0.81202 0.0
H273 H 0.2706 0.07297 0.84603 0.0
H274 H 0.29846 0.14282 0.86866 0.0
H275 H 0.33085 0.13793 0.83395 0.0
H276 H 0.49416 0.18246 0.72263 0.0
H277 H 0.52387 0.17524 0.68565 0.0
H278 H 0.5016 0.10096 0.68153 0.0
H279 H 0.4721 0.10833 0.71871 0.0
Tb280 Tb 0.16325 0.11804 1.03133 0.0
Tb281 Tb 0.15261 0.17044 1.01951 0.0
C282 C 0.17814 0.07789 0.04829 0.0
C283 C 0.17418 0.0601 0.07045 0.0
C284 C 0.19278 0.04401 0.07669 0.0
C285 C 0.18948 0.02616 0.09676 0.0
C286 C 0.16745 0.02405 0.11103 0.0
C287 C 0.14872 0.04018 0.10467 0.0
C288 C 0.15209 0.05817 0.08455 0.0
C289 C 0.12236 0.1264 1.00495 0.0
C290 C 0.14096 0.15037 0.08 0.0
C291 C 0.1347 0.20768 0.99741 0.0
C292 C 0.13872 0.22468 0.97404 0.0
C293 C 0.11906 0.23745 0.96309 0.0
C294 C 0.12232 0.2546 0.94194 0.0
C295 C 0.14542 0.25943 0.93127 0.0
C296 C 0.16502 0.24598 0.94172 0.0
C297 C 0.16171 0.22876 0.96284 0.0
C298 C 0.19581 0.16215 0.04183 0.0
C299 C 0.181 0.13847 0.97378 0.0
O300 O 0.18778 0.09836 0.05573 0.0
O301 O 0.16075 0.08058 1.03013 0.0
O302 O 0.13115 0.13902 1.02449 0.0
O303 O 0.13568 0.10762 1.00138 0.0
O304 O 0.15259 0.13055 0.07291 0.0
O305 O 0.13606 0.16757 0.06149 0.0
O306 O 0.12866 0.18576 0.99053 0.0
O307 O 0.15 0.20812 1.01827 0.0
O308 O 0.18426 0.1493 1.02495 0.0
O309 O 0.18414 0.18233 0.04384 0.0
O310 O 0.16832 0.15829 0.97901 0.0
O311 O 0.18396 0.1218 0.99321 0.0
H312 H 0.20987 0.04514 0.06583 0.0
H313 H 0.20415 0.01384 0.10096 0.0
H314 H 0.13165 0.03912 0.11556 0.0
H315 H 0.1375 0.07047 0.07993 0.0
H316 H 0.10114 0.2345 0.97134 0.0
H317 H 0.10686 0.26468 0.93468 0.0
H318 H 0.18301 0.24893 0.93374 0.0
H319 H 0.17712 0.21892 0.97069 0.0
Tb320 Tb 0.91908 0.90158 0.76858 0.0
Tb321 Tb 0.86701 0.91224 0.78143 0.0
C322 C 0.95647 0.88438 0.74614 0.0
C323 C 0.97209 0.88798 0.72134 0.0
C324 C 0.96263 0.89206 0.69444 0.0
C325 C 0.97798 0.89349 0.67113 0.0
C326 C 1.00306 0.89081 0.67423 0.0
C327 C 1.01238 0.88741 0.70136 0.0
C328 C 0.99708 0.88596 0.72455 0.0
C329 C 0.91151 0.94475 0.79094 0.0
C330 C 0.88704 0.93026 0.72379 0.0
C331 C 0.82717 0.92777 0.79883 0.0
C332 C 0.80785 0.92264 0.81878 0.0
C333 C 0.78907 0.93926 0.82119 0.0
C334 C 0.77049 0.93542 0.84022 0.0
C335 C 0.77036 0.91486 0.85728 0.0
C336 C 0.78895 0.89784 0.85434 0.0
C337 C 0.80767 0.90175 0.83521 0.0
C338 C 0.87476 0.87102 0.75562 0.0
C339 C 0.90054 0.89125 0.82984 0.0
O340 O 0.93471 0.87624 0.74169 0.0
O341 O 0.9569 0.90103 0.76545 0.0
O342 O 0.89814 0.93339 0.77441 0.0
O343 O 0.93147 0.93273 0.79288 0.0
O344 O 0.90618 0.91638 0.72802 0.0
O345 O 0.87125 0.93393 0.74408 0.0
O346 O 0.84794 0.93427 0.80931 0.0
O347 O 0.82946 0.91285 0.77788 0.0
O348 O 0.88778 0.88004 0.77462 0.0
O349 O 0.8558 0.88417 0.75259 0.0
O350 O 0.87998 0.90154 0.82272 0.0
O351 O 0.91791 0.88693 0.81138 0.0
H352 H 0.94339 0.89368 0.69133 0.0
H353 H 0.97012 0.89603 0.6506 0.0
H354 H 0.03159 0.88579 0.70473 0.0
H355 H 1.00482 0.88287 0.74506 0.0
H356 H 0.78888 0.95538 0.80847 0.0
H357 H 0.75628 0.9487 0.84179 0.0
H358 H 0.78937 0.88194 0.86739 0.0
H359 H 0.82208 0.88871 0.83346 0.0
Tb360 Tb 0.88248 0.1758 0.51498 0.0
Tb361 Tb 0.87001 0.12496 0.52721 0.0
C362 C 0.90089 0.21249 0.49243 0.0
C363 C 0.89652 0.22857 0.46844 0.0
C364 C 0.91519 0.24338 0.45883 0.0
C365 C 0.91114 0.2599 0.43724 0.0
C366 C 0.88825 0.26199 0.4249 0.0
C367 C 0.86979 0.24644 0.43396 0.0
C368 C 0.8739 0.22986 0.45549 0.0
C369 C 0.83916 0.17053 0.5379 0.0
C370 C 0.85282 0.14467 0.46961 0.0
C371 C 0.85452 0.08592 0.5466 0.0
C372 C 0.86018 0.06914 0.56945 0.0
C373 C 0.86577 0.07727 0.5965 0.0
C374 C 0.87003 0.06078 0.618 0.0
C375 C 0.86887 0.0359 0.61278 0.0
C376 C 0.86403 0.02789 0.58548 0.0
C377 C 0.85966 0.04438 0.56405 0.0
C378 C 0.9109 0.13087 0.49996 0.0
C379 C 0.89488 0.15637 0.57521 0.0
O380 O 0.90721 0.19046 0.48646 0.0
O381 O 0.88526 0.21335 0.51287 0.0
O382 O 0.84927 0.15676 0.52062 0.0
O383 O 0.8531 0.18898 0.54143 0.0
O384 O 0.86611 0.16409 0.47461 0.0
O385 O 0.84917 0.12848 0.48934 0.0
O386 O 0.84578 0.107 0.55351 0.0
O387 O 0.87052 0.0873 0.52663 0.0
O388 O 0.9032 0.14388 0.51978 0.0
O389 O 0.89634 0.11304 0.49645 0.0
O390 O 0.88326 0.13658 0.56809 0.0
O391 O 0.89899 0.17375 0.55681 0.0
H392 H 0.93281 0.24255 0.4685 0.0
H393 H 0.92566 0.2717 0.43099 0.0
H394 H 0.85204 0.24735 0.42466 0.0
H395 H 0.85931 0.21841 0.46241 0.0
H396 H 0.86649 0.0963 0.60114 0.0
H397 H 0.87398 0.06747 0.63879 0.0
H398 H 0.86276 1.00887 0.5809 0.0
H399 H 0.85545 0.03778 0.54328 0.0
Tb400 Tb 0.60779 0.12758 0.27138 0.0
Tb401 Tb 0.66081 0.11568 0.27635 0.0
C402 C 0.56878 0.14487 0.25286 0.0
C403 C 0.55169 0.1409 0.22944 0.0
C404 C 0.53854 0.16042 0.21877 0.0
C405 C 0.52141 0.15706 0.19752 0.0
C406 C 0.51695 0.13404 0.18651 0.0
C407 C 0.53073 0.11461 0.19673 0.0
C408 C 0.54793 0.118 0.21789 0.0
C409 C 0.61753 0.08494 0.29367 0.0
C410 C 0.63528 0.09966 0.22155 0.0
C411 C 0.70124 0.09948 0.29082 0.0
C412 C 0.7199 0.1038 0.31201 0.0
C413 C 0.73781 0.08644 0.31591 0.0
C414 C 0.75603 0.09007 0.33555 0.0
C415 C 0.75667 0.11116 0.35179 0.0
C416 C 0.73882 0.12875 0.34756 0.0
C417 C 0.72052 0.12507 0.3278 0.0
C418 C 0.65141 0.15612 0.25029 0.0
C419 C 0.63371 0.14091 0.32802 0.0
O420 O 0.59007 0.15298 0.24613 0.0
O421 O 0.56997 0.12829 0.27225 0.0
O422 O 0.6286 0.09541 0.27431 0.0
O423 O 0.5983 0.09743 0.29892 0.0
O424 O 0.61594 0.1118 0.2298 0.0
O425 O 0.6539 0.09608 0.23818 0.0
O426 O 0.68076 0.09066 0.29973 0.0
O427 O 0.69827 0.11644 0.27222 0.0
O428 O 0.64025 0.14817 0.27148 0.0
O429 O 0.6696 0.14233 0.24498 0.0
O430 O 0.65289 0.12971 0.31799 0.0
O431 O 0.61397 0.14419 0.31272 0.0
H432 H 0.5412 0.17827 0.22726 0.0
H433 H 0.51107 0.1724 0.19042 0.0
H434 H 0.52808 0.09667 0.18849 0.0
H435 H 0.55805 0.10268 0.22548 0.0
H436 H 0.73772 0.07003 0.3037 0.0
H437 H 0.76968 0.07633 0.33801 0.0
H438 H 0.73869 0.14506 0.35992 0.0
H439 H 0.70688 0.13875 0.32487 0.0
Tb440 Tb 0.64435 0.85225 1.02024 0.0
Tb441 Tb 0.65712 0.90337 1.03207 0.0
C442 C 0.62594 0.81547 0.99789 0.0
C443 C 0.6306 0.79938 0.97396 0.0
C444 C 0.65333 0.79825 0.96126 0.0
C445 C 0.6577 0.78177 0.93968 0.0
C446 C 0.6394 0.76616 0.93033 0.0
C447 C 0.61642 0.76804 0.94247 0.0
C448 C 0.6121 0.78447 0.96411 0.0
C449 C 0.68776 0.85782 0.04275 0.0
C450 C 0.67382 0.8831 0.97464 0.0
C451 C 0.67202 0.9424 0.05204 0.0
C452 C 0.66321 0.96026 0.07249 0.0
C453 C 0.66028 0.98419 0.06394 0.0
C454 C 0.65176 1.00152 0.08261 0.0
C455 C 0.6461 0.99533 0.11036 0.0
C456 C 0.64893 0.97129 0.11889 0.0
C457 C 0.65741 0.95391 0.10014 0.0
C458 C 0.61552 0.89741 1.00644 0.0
C459 C 0.63275 0.87194 0.08033 0.0
O460 O 0.61961 0.83747 0.9918 0.0
O461 O 0.64145 0.8147 1.01848 0.0
O462 O 0.67747 0.87143 1.02551 0.0
O463 O 0.67411 0.83916 0.04624 0.0
O464 O 0.66007 0.86402 0.97962 0.0
O465 O 0.67821 0.899 0.99452 0.0
O466 O 0.67861 0.9213 0.06155 0.0
O467 O 0.65954 0.94081 1.02892 0.0
O468 O 0.62391 0.88429 1.02568 0.0
O469 O 0.62962 0.91557 1.00291 0.0
O470 O 0.64447 0.89157 0.07293 0.0
O471 O 0.62813 0.85452 0.06214 0.0
H472 H 0.66779 0.80979 0.96836 0.0
H473 H 0.67552 0.78102 0.93053 0.0
H474 H 0.60201 0.75618 0.936 0.0
H475 H 0.5944 0.78516 0.9736 0.0
H476 H 0.66456 0.98949 0.04269 0.0
H477 H 0.64954 0.0198 0.07526 0.0
H478 H 0.64511 0.96599 0.14023 0.0
H479 H 0.65956 0.9356 0.10738 0.0
Tb480 Tb 0.92947 0.131 0.80113 0.0
Tb481 Tb 0.87805 0.11819 0.78969 0.0
C482 C 0.9663 0.14957 0.82352 0.0
C483 C 0.98283 0.1448 0.8472 0.0
C484 C 0.98587 0.12157 0.85809 0.0
C485 C 1.00283 0.11725 0.87926 0.0
C486 C 0.01706 0.13606 0.89011 0.0
C487 C 1.01325 0.15945 0.87985 0.0
C488 C 0.99636 0.16373 0.85858 0.0
C489 C 0.92366 0.08741 0.77943 0.0
C490 C 0.89893 0.10104 0.84691 0.0
C491 C 0.83822 0.10299 0.77202 0.0
C492 C 0.82098 0.10811 0.74944 0.0
C493 C 0.82839 0.11084 0.72153 0.0
C494 C 0.81135 0.11467 0.70048 0.0
C495 C 0.78668 0.116 0.70701 0.0
C496 C 0.77943 0.11394 0.73505 0.0
C497 C 0.79645 0.10994 0.75604 0.0
C498 C 0.88449 0.15972 0.81524 0.0
C499 C 0.90997 0.13943 0.74011 0.0
O500 O 0.94421 0.15552 0.82995 0.0
O501 O 0.96707 0.13452 0.80249 0.0
O502 O 0.9101 0.09814 0.79635 0.0
O503 O 0.94267 0.10065 0.77607 0.0
O504 O 0.91801 0.11485 0.84184 0.0
O505 O 0.88245 0.09745 0.82745 0.0
O506 O 0.85897 0.09353 0.76503 0.0
O507 O 0.84039 0.11969 0.79106 0.0
O508 O 0.89737 0.15146 0.79562 0.0
O509 O 0.86668 0.14533 0.81952 0.0
O510 O 0.89046 0.12772 0.74795 0.0
O511 O 0.92693 0.14576 0.75831 0.0
H512 H 0.97545 0.10671 0.84987 0.0
H513 H 1.00499 0.09907 0.88693 0.0
H514 H 0.02397 0.17431 0.88748 0.0
H515 H 0.99424 0.18182 0.85057 0.0
H516 H 0.84725 0.10974 0.71593 0.0
H517 H 0.81744 0.11644 0.67905 0.0
H518 H 0.76055 0.11465 0.74064 0.0
H519 H 0.7904 0.10791 0.77747 0.0
Tb520 Tb 0.65194 0.17325 0.55417 0.0
Tb521 Tb 0.66193 0.12128 0.53959 0.0
C522 C 0.63446 0.21002 0.57765 0.0
C523 C 0.63912 0.22716 0.60064 0.0
C524 C 0.6198 0.24033 0.61173 0.0
C525 C 0.62364 0.25767 0.63249 0.0
C526 C 0.64696 0.26229 0.64262 0.0
C527 C 0.66623 0.24851 0.63197 0.0
C528 C 0.66235 0.23109 0.6112 0.0
C529 C 0.69507 0.16565 0.53103 0.0
C530 C 0.68107 0.13985 0.59729 0.0
C531 C 0.6757 0.08196 0.51911 0.0
C532 C 0.66611 0.06373 0.5 0.0
C533 C 0.6817 0.04644 0.4889 0.0
C534 C 0.67293 0.02862 0.47106 0.0
C535 C 0.64834 0.02774 0.46408 0.0
C536 C 0.63275 0.04525 0.47523 0.0
C537 C 0.64159 0.06314 0.49304 0.0
C538 C 0.62076 0.12904 0.5659 0.0
C539 C 0.63915 0.15547 0.49323 0.0
O540 O 0.62927 0.18797 0.5849 0.0
O541 O 0.6488 0.21083 0.55592 0.0
O542 O 0.68344 0.15205 0.54695 0.0
O543 O 0.68361 0.186 0.53061 0.0
O544 O 0.66724 0.15918 0.59398 0.0
O545 O 0.68452 0.12468 0.57633 0.0
O546 O 0.68068 0.10288 0.50804 0.0
O547 O 0.66466 0.08393 0.54316 0.0
O548 O 0.63014 0.14231 0.54747 0.0
O549 O 0.63333 0.1096 0.56783 0.0
O550 O 0.65079 0.1354 0.49903 0.0
O551 O 0.63457 0.17196 0.51265 0.0
H552 H 0.60172 0.23752 0.60389 0.0
H553 H 0.60842 0.26805 0.63988 0.0
H554 H 0.68438 0.25131 0.63954 0.0
H555 H 0.6775 0.22095 0.60314 0.0
H556 H 0.70071 0.04674 0.494 0.0
H557 H 0.68552 0.01576 0.46238 0.0
H558 H 0.61371 0.045 0.47038 0.0
H559 H 0.6293 0.07643 0.50149 0.0
Tb560 Tb 0.6045 0.89703 0.30518 0.0
Tb561 Tb 0.65588 0.91201 0.29637 0.0
C562 C 0.56715 0.87747 0.32481 0.0
C563 C 0.5503 0.88184 0.34816 0.0
C564 C 0.54802 0.90471 0.36023 0.0
C565 C 0.53089 0.90887 0.38118 0.0
C566 C 0.51579 0.89022 0.39062 0.0
C567 C 0.51883 0.86711 0.37921 0.0
C568 C 0.53589 0.863 0.35812 0.0
C569 C 0.61008 0.94166 0.28656 0.0
C570 C 0.6337 0.92318 0.35469 0.0
C571 C 0.69502 0.9302 0.28029 0.0
C572 C 0.71281 0.92732 0.25778 0.0
C573 C 0.72963 0.94562 0.25331 0.0
C574 C 0.74752 0.94298 0.23303 0.0
C575 C 0.74896 0.92192 0.21681 0.0
C576 C 0.73201 0.90355 0.22135 0.0
C577 C 0.714 0.90625 0.24165 0.0
C578 C 0.65035 0.86906 0.31871 0.0
C579 C 0.62541 0.89082 0.24519 0.0
O580 O 0.58904 0.87122 0.33175 0.0
O581 O 0.56694 0.89323 0.30449 0.0
O582 O 0.62312 0.93072 0.30382 0.0
O583 O 0.59181 0.92805 0.28077 0.0
O584 O 0.61477 0.91011 0.34732 0.0
O585 O 0.65042 0.92933 0.33642 0.0
O586 O 0.67389 0.93867 0.27325 0.0
O587 O 0.69347 0.91242 0.29802 0.0
O588 O 0.63743 0.87806 0.29958 0.0
O589 O 0.66806 0.88341 0.3238 0.0
O590 O 0.64395 0.90371 0.25387 0.0
O591 O 0.6089 0.88263 0.26276 0.0
H592 H 0.55917 0.91945 0.35309 0.0
H593 H 0.52925 0.92681 0.38979 0.0
H594 H 0.5074 0.85241 0.38582 0.0
H595 H 0.53748 0.84518 0.34917 0.0
H596 H 0.72908 0.9619 0.26573 0.0
H597 H 0.76044 0.95735 0.23027 0.0
H598 H 0.73247 0.88725 0.20897 0.0
H599 H 0.70113 0.89191 0.24488 0.0
Tb600 Tb 0.87419 0.85634 0.05538 0.0
Tb601 Tb 0.86553 0.90871 0.04269 0.0
C602 C 0.89117 0.81888 0.07784 0.0
C603 C 0.88726 0.80256 0.10182 0.0
C604 C 0.90681 0.7894 0.11237 0.0
C605 C 0.90352 0.77251 0.13375 0.0
C606 C 0.88051 0.76835 0.14501 0.0
C607 C 0.86106 0.78225 0.13503 0.0
C608 C 0.8644 0.79921 0.11368 0.0
C609 C 0.83121 0.86539 1.03323 0.0
C610 C 0.84711 0.88982 0.10057 0.0
C611 C 0.85332 0.94887 1.02319 0.0
C612 C 0.86171 0.96516 1.00103 0.0
C613 C 0.87118 0.95626 0.97587 0.0
C614 C 0.8783 0.97207 0.95476 0.0
C615 C 0.87606 0.99706 0.95843 0.0
C616 C 0.86733 1.00591 0.98404 0.0
C617 C 0.86019 0.99006 1.00515 0.0
C618 C 0.90629 0.89936 0.06852 0.0
C619 C 0.88674 0.87468 0.99456 0.0
O620 O 0.89847 0.84062 0.08372 0.0
O621 O 0.87507 0.81868 0.05784 0.0
O622 O 0.84309 0.87843 0.04964 0.0
O623 O 0.84244 0.84497 1.03148 0.0
O624 O 0.85929 0.86963 0.09571 0.0
O625 O 0.8444 0.9062 0.08074 0.0
O626 O 0.84385 0.92844 1.01515 0.0
O627 O 0.86786 0.94629 0.04447 0.0
O628 O 0.89688 0.88679 0.04938 0.0
O629 O 0.8937 0.91864 0.07198 0.0
O630 O 0.87748 0.89567 1.00184 0.0
O631 O 0.88934 0.85686 1.01282 0.0
H632 H 0.92462 0.79177 0.10355 0.0
H633 H 0.91884 0.76204 0.14066 0.0
H634 H 0.84315 0.77978 0.14349 0.0
H635 H 0.84909 0.80935 0.10608 0.0
H636 H 0.8727 0.93712 0.9723 0.0
H637 H 0.88521 0.96472 0.93535 0.0
H638 H 0.86514 0.02504 0.98737 0.0
H639 H 0.85305 0.99724 1.02453 0.0
Tb640 Tb 0.657 0.61929 0.79208 0.0
Tb641 Tb 0.60439 0.6284 0.8056 0.0
C642 C 0.69599 0.60524 0.77101 0.0
C643 C 0.71393 0.61398 0.75075 0.0
C644 C 0.72362 0.59785 0.73128 0.0
C645 C 0.7417 0.60521 0.71291 0.0
C646 C 0.75065 0.62886 0.71379 0.0
C647 C 0.74048 0.64518 0.73294 0.0
C648 C 0.72223 0.63783 0.75121 0.0
C649 C 0.64853 0.66055 0.81691 0.0
C650 C 0.62243 0.64109 0.74474 0.0
C651 C 0.56717 0.64577 0.82827 0.0
C652 C 0.55076 0.64194 0.85218 0.0
C653 C 0.53726 0.66141 0.86229 0.0
C654 C 0.52037 0.65819 0.88372 0.0
C655 C 0.51657 0.63534 0.89546 0.0
C656 C 0.53079 0.61599 0.88588 0.0
C657 C 0.54774 0.61926 0.86447 0.0
C658 C 0.61337 0.58535 0.78366 0.0
C659 C 0.63841 0.60233 0.85072 0.0
O660 O 0.67486 0.59941 0.76095 0.0
O661 O 0.69447 0.61696 0.79469 0.0
O662 O 0.63516 0.6506 0.7989 0.0
O663 O 0.66843 0.64865 0.81889 0.0
O664 O 0.64357 0.6319 0.75171 0.0
O665 O 0.60467 0.64352 0.76312 0.0
O666 O 0.58908 0.6526 0.83427 0.0
O667 O 0.56669 0.62984 0.80809 0.0
O668 O 0.6265 0.59737 0.79982 0.0
O669 O 0.5928 0.5964 0.78222 0.0
O670 O 0.61778 0.61363 0.8457 0.0
O671 O 0.65489 0.59938 0.83104 0.0
H672 H 0.71736 0.57942 0.73048 0.0
H673 H 0.74867 0.59231 0.69798 0.0
H674 H 0.74698 0.66348 0.73428 0.0
H675 H 0.71493 0.65069 0.76597 0.0
H676 H 0.53938 0.67909 0.85313 0.0
H677 H 0.50963 0.67342 0.8903 0.0
H678 H 0.5286 0.59821 0.89472 0.0
H679 H 0.55816 0.60402 0.85719 0.0
Tb680 Tb 0.6604 0.40165 1.03536 0.0
Tb681 Tb 0.64729 0.35074 0.04985 0.0
C682 C 0.6763 0.43943 1.01338 0.0
C683 C 0.66742 0.45767 0.99364 0.0
C684 C 0.68376 0.46926 0.97592 0.0
C685 C 0.67601 0.48768 0.95823 0.0
C686 C 0.65174 0.49502 0.95808 0.0
C687 C 0.63527 0.4829 0.97544 0.0
C688 C 0.64303 0.46433 0.99299 0.0
C689 C 0.61947 0.39699 0.06266 0.0
C690 C 0.63401 0.36931 0.98946 0.0
C691 C 0.62863 0.31499 0.07406 0.0
C692 C 0.63351 0.29867 0.09774 0.0
C693 C 0.61442 0.2858 0.10975 0.0
C694 C 0.61875 0.26878 0.13076 0.0
C695 C 0.64233 0.26423 0.14007 0.0
C696 C 0.66132 0.27792 0.12872 0.0
C697 C 0.65694 0.29501 0.1078 0.0
C698 C 0.69026 0.35534 1.02569 0.0
C699 C 0.67886 0.38241 0.09281 0.0
O700 O 0.68035 0.41795 1.00316 0.0
O701 O 0.66556 0.43876 0.03773 0.0
O702 O 0.62734 0.38301 0.04395 0.0
O703 O 0.63352 0.4154 0.06443 0.0
O704 O 0.64583 0.38919 0.99565 0.0
O705 O 0.63013 0.35223 1.00833 0.0
O706 O 0.62361 0.3373 0.08036 0.0
O707 O 0.64303 0.31337 0.05247 0.0
O708 O 0.68016 0.3695 0.04243 0.0
O709 O 0.67668 0.33643 1.02393 0.0
O710 O 0.66452 0.36348 0.08934 0.0
O711 O 0.68269 0.3976 0.07204 0.0
H712 H 0.7026 0.46423 0.97599 0.0
H713 H 0.68908 0.49616 0.94465 0.0
H714 H 0.6165 0.48812 0.97597 0.0
H715 H 0.63006 0.45549 1.00641 0.0
H716 H 0.59618 0.28845 0.10233 0.0
H717 H 0.60376 0.25847 0.13884 0.0
H718 H 0.67965 0.27509 0.13569 0.0
H719 H 0.67191 0.30495 0.09904 0.0
Tb720 Tb 0.87102 0.41067 0.28954 0.0
Tb721 Tb 0.92372 0.40132 0.30241 0.0
C722 C 0.83126 0.42562 0.27135 0.0
C723 C 0.81402 0.42123 0.24864 0.0
C724 C 0.7994 0.44023 0.2398 0.0
C725 C 0.78215 0.43662 0.21904 0.0
C726 C 0.77919 0.41387 0.20669 0.0
C727 C 0.79382 0.39474 0.21568 0.0
C728 C 0.81122 0.39841 0.23647 0.0
C729 C 0.87988 0.3691 0.31345 0.0
C730 C 0.90528 0.39109 0.24091 0.0
C731 C 0.96126 0.38376 0.32429 0.0
C732 C 0.97785 0.38762 0.34809 0.0
C733 C 0.99232 0.3685 0.35728 0.0
C734 C 1.00928 0.37186 0.37865 0.0
C735 C 1.01221 0.39451 0.39129 0.0
C736 C 0.99706 0.41348 0.38258 0.0
C737 C 0.98005 0.41006 0.36123 0.0
C738 C 0.91449 0.44476 0.28199 0.0
C739 C 0.88979 0.4259 0.34889 0.0
O740 O 0.85197 0.43506 0.26435 0.0
O741 O 0.83346 0.40862 0.29005 0.0
O742 O 0.893 0.37916 0.29525 0.0
O743 O 0.86027 0.3813 0.31649 0.0
O744 O 0.88428 0.4004 0.24815 0.0
O745 O 0.92293 0.38752 0.25924 0.0
O746 O 0.93942 0.37679 0.33044 0.0
O747 O 0.96146 0.39981 0.30427 0.0
O748 O 0.90154 0.4324 0.29801 0.0
O749 O 0.9351 0.43385 0.28006 0.0
O750 O 0.91063 0.41525 0.3431 0.0
O751 O 0.8729 0.42879 0.32968 0.0
H752 H 0.8012 0.45789 0.24912 0.0
H753 H 0.77098 0.45164 0.21276 0.0
H754 H 0.79208 0.3771 0.20631 0.0
H755 H 0.8224 0.3835 0.24307 0.0
H756 H 0.99086 0.351 0.34747 0.0
H757 H 0.02071 0.35693 0.38454 0.0
H758 H 0.99853 0.43108 0.39209 0.0
H759 H 0.9689 0.42502 0.35469 0.0
Tb760 Tb 0.87086 0.62122 0.54194 0.0
Tb761 Tb 0.87945 0.67374 0.55518 0.0
C762 C 0.85681 0.58171 0.52223 0.0
C763 C 0.86524 0.56305 0.50275 0.0
C764 C 0.88 0.56847 0.47977 0.0
C765 C 0.88766 0.55017 0.46169 0.0
C766 C 0.8807 0.52617 0.46637 0.0
C767 C 0.86627 0.52089 0.48975 0.0
C768 C 0.85861 0.53915 0.50769 0.0
C769 C 0.91207 0.62989 0.56712 0.0
C770 C 0.89247 0.65537 0.49437 0.0
C771 C 0.89547 0.71174 0.57741 0.0
C772 C 0.88982 0.73006 0.59918 0.0
C773 C 0.89291 0.72544 0.62797 0.0
C774 C 0.88922 0.7437 0.64788 0.0
C775 C 0.88236 0.76695 0.63947 0.0
C776 C 0.8795 0.77148 0.61067 0.0
C777 C 0.88323 0.75334 0.59086 0.0
C778 C 0.83598 0.66432 0.53403 0.0
C779 C 0.85418 0.6398 0.60074 0.0
O780 O 0.85092 0.60261 0.5116 0.0
O781 O 0.86912 0.58375 0.54541 0.0
O782 O 0.90223 0.64325 0.54896 0.0
O783 O 0.90023 0.60999 0.56879 0.0
O784 O 0.88303 0.6344 0.50129 0.0
O785 O 0.89512 0.67299 0.51288 0.0
O786 O 0.90129 0.69007 0.58564 0.0
O787 O 0.88192 0.71142 0.55498 0.0
O788 O 0.84849 0.65139 0.54987 0.0
O789 O 0.84684 0.68491 0.53246 0.0
O790 O 0.86535 0.66041 0.59558 0.0
O791 O 0.85106 0.6234 0.58103 0.0
H792 H 0.88545 0.58681 0.47569 0.0
H793 H 0.89856 0.5549 0.44373 0.0
H794 H 0.86089 0.50259 0.49422 0.0
H795 H 0.84743 0.53461 0.5255 0.0
H796 H 0.89834 0.7078 0.63515 0.0
H797 H 0.89145 0.73952 0.66986 0.0
H798 H 0.87468 0.78925 0.6033 0.0
H799 H 0.88127 0.75768 0.56888 0.0
Tb800 Tb 0.65388 0.41268 0.77823 0.0
Tb801 Tb 0.6032 0.39808 0.76486 0.0
C802 C 0.69226 0.43065 0.79697 0.0
C803 C 0.71074 0.42701 0.81855 0.0
C804 C 0.71282 0.40535 0.83342 0.0
C805 C 0.73143 0.40227 0.85294 0.0
C806 C 0.74812 0.42083 0.85786 0.0
C807 C 0.74589 0.44238 0.8427 0.0
C808 C 0.72739 0.44541 0.82329 0.0
C809 C 0.64952 0.37025 0.75395 0.0
C810 C 0.6214 0.38955 0.82614 0.0
C811 C 0.56717 0.37855 0.742 0.0
C812 C 0.55058 0.38318 0.71846 0.0
C813 C 0.53643 0.36434 0.70799 0.0
C814 C 0.51948 0.36855 0.68683 0.0
C815 C 0.51626 0.39176 0.67577 0.0
C816 C 0.53104 0.41047 0.68579 0.0
C817 C 0.54807 0.40621 0.70688 0.0
C818 C 0.60709 0.44182 0.78663 0.0
C819 C 0.63444 0.42738 0.71943 0.0
O820 O 0.67081 0.43717 0.80538 0.0
O821 O 0.69145 0.4146 0.77704 0.0
O822 O 0.63566 0.37887 0.77232 0.0
O823 O 0.66747 0.38465 0.75053 0.0
O824 O 0.64047 0.4025 0.81945 0.0
O825 O 0.60552 0.38249 0.80709 0.0
O826 O 0.58947 0.37352 0.73547 0.0
O827 O 0.56579 0.39328 0.7633 0.0
O828 O 0.62136 0.43174 0.7699 0.0
O829 O 0.58862 0.42783 0.78967 0.0
O830 O 0.61536 0.41357 0.72431 0.0
O831 O 0.65003 0.43226 0.7395 0.0
H832 H 0.70013 0.3909 0.82989 0.0
H833 H 0.73254 0.38556 0.86448 0.0
H834 H 0.75861 0.4569 0.84567 0.0
H835 H 0.7262 0.46213 0.81176 0.0
H836 H 0.53814 0.34642 0.71661 0.0
H837 H 0.5083 0.35378 0.67986 0.0
H838 H 0.52929 0.42849 0.67749 0.0
H839 H 0.55897 0.42097 0.71449 0.0
Tb840 Tb 0.86696 0.40841 1.02904 0.0
Tb841 Tb 0.87715 0.3561 1.01526 0.0
C842 C 0.85084 0.4475 0.04771 0.0
C843 C 0.85565 0.46656 0.06812 0.0
C844 C 0.83816 0.48435 0.07185 0.0
C845 C 0.84172 0.50273 0.0912 0.0
C846 C 0.86288 0.50366 0.10727 0.0
C847 C 0.88073 0.48605 0.10308 0.0
C848 C 0.87709 0.46751 0.08363 0.0
C849 C 0.90845 0.40049 1.00412 0.0
C850 C 0.88863 0.37449 0.07672 0.0
C851 C 0.89561 0.31941 0.99261 0.0
C852 C 0.89191 0.30278 0.96886 0.0
C853 C 0.91162 0.28981 0.9584 0.0
C854 C 0.90853 0.27271 0.93717 0.0
C855 C 0.88556 0.26815 0.92599 0.0
C856 C 0.86594 0.28186 0.93588 0.0
C857 C 0.86909 0.29903 0.95707 0.0
C858 C 0.83356 0.36398 1.03649 0.0
C859 C 0.84962 0.38928 0.97036 0.0
O860 O 0.84479 0.42644 0.05769 0.0
O861 O 0.86567 0.44594 1.02653 0.0
O862 O 0.89876 0.38716 1.02232 0.0
O863 O 0.89594 0.41996 1.00158 0.0
O864 O 0.87936 0.39557 0.06977 0.0
O865 O 0.89145 0.3568 0.05827 0.0
O866 O 0.9016 0.34147 0.98634 0.0
O867 O 0.88 0.31852 1.01312 0.0
O868 O 0.84574 0.37749 1.02097 0.0
O869 O 0.84493 0.34359 0.03765 0.0
O870 O 0.86216 0.36928 0.97494 0.0
O871 O 0.8465 0.40534 0.99049 0.0
H872 H 0.82159 0.48395 0.05987 0.0
H873 H 0.82779 0.51619 0.09372 0.0
H874 H 0.89712 0.48625 0.11536 0.0
H875 H 0.8908 0.45386 0.08089 0.0
H876 H 0.92941 0.2925 0.96716 0.0
H877 H 0.92398 0.26239 0.93032 0.0
H878 H 0.84806 0.27909 0.92748 0.0
H879 H 0.85365 0.30903 0.9646 0.0
Tb880 Tb 0.87369 0.61854 0.28119 0.0
Tb881 Tb 0.92457 0.63152 0.26857 0.0
C882 C 0.83434 0.60353 0.30049 0.0
C883 C 0.81761 0.61076 0.32273 0.0
C884 C 0.82575 0.62287 0.34668 0.0
C885 C 0.80951 0.62946 0.36763 0.0
C886 C 0.78486 0.62418 0.3649 0.0
C887 C 0.7767 0.61266 0.34051 0.0
C888 C 0.79299 0.60598 0.31962 0.0
C889 C 0.87924 0.66048 0.2563 0.0
C890 C 0.90641 0.6405 0.32971 0.0
C891 C 0.96108 0.65014 0.24577 0.0
C892 C 0.97699 0.6454 0.22166 0.0
C893 C 0.978 0.62264 0.2091 0.0
C894 C 0.99448 0.61806 0.18756 0.0
C895 C 1.01022 0.63618 0.1781 0.0
C896 C 1.00839 0.65924 0.18997 0.0
C897 C 0.99196 0.66376 0.2116 0.0
C898 C 0.91933 0.58804 0.29068 0.0
C899 C 0.89315 0.60225 0.22311 0.0
O900 O 0.85537 0.59529 0.30836 0.0
O901 O 0.83601 0.61846 0.27954 0.0
O902 O 0.89268 0.65197 0.27521 0.0
O903 O 0.8613 0.64618 0.2525 0.0
O904 O 0.88698 0.62834 0.3226 0.0
O905 O 0.92284 0.64684 0.31097 0.0
O906 O 0.93894 0.65631 0.23992 0.0
O907 O 0.96214 0.63477 0.26644 0.0
O908 O 0.9056 0.59835 0.27358 0.0
O909 O 0.93804 0.60166 0.29414 0.0
O910 O 0.91239 0.61585 0.22802 0.0
O911 O 0.8773 0.59803 0.2431 0.0
H912 H 0.84463 0.62706 0.34934 0.0
H913 H 0.81626 0.63853 0.38609 0.0
H914 H 0.75787 0.60814 0.33798 0.0
H915 H 0.78639 0.59683 0.30112 0.0
H916 H 0.96642 0.60828 0.21636 0.0
H917 H 0.9952 0.60019 0.17862 0.0
H918 H 0.02034 0.67351 0.18338 0.0
H919 H 0.99136 0.68149 0.22095 0.0
Tb920 Tb 0.66274 0.6239 0.53256 0.0
Tb921 Tb 0.64841 0.67472 0.51996 0.0
C922 C 0.68056 0.58514 0.55023 0.0
C923 C 0.67541 0.56493 0.56897 0.0
C924 C 0.69146 0.54555 0.56928 0.0
C925 C 0.6875 0.52606 0.58699 0.0
C926 C 0.66739 0.52558 0.60482 0.0
C927 C 0.65091 0.5448 0.60397 0.0
C928 C 0.65493 0.56442 0.58616 0.0
C929 C 0.62038 0.62878 0.50788 0.0
C930 C 0.6393 0.65554 0.58083 0.0
C931 C 0.62902 0.71113 0.49784 0.0
C932 C 0.63374 0.7295 0.47592 0.0
C933 C 0.63277 0.72406 0.44713 0.0
C934 C 0.63633 0.74213 0.427 0.0
C935 C 0.64101 0.76594 0.43524 0.0
C936 C 0.6416 0.7713 0.46402 0.0
C937 C 0.63795 0.75337 0.48403 0.0
C938 C 0.6922 0.67053 0.54234 0.0
C939 C 0.67945 0.64493 0.47514 0.0
O940 O 0.68453 0.60607 0.56185 0.0
O941 O 0.66715 0.58675 0.52787 0.0
O942 O 0.62898 0.64233 0.52652 0.0
O943 O 0.63466 0.61074 0.50448 0.0
O944 O 0.65219 0.6365 0.57397 0.0
O945 O 0.63252 0.67173 0.562 0.0
O946 O 0.62491 0.68902 0.48979 0.0
O947 O 0.64246 0.71198 0.52032 0.0
O948 O 0.68201 0.65643 0.52557 0.0
O949 O 0.67829 0.68912 0.54493 0.0
O950 O 0.66434 0.66311 0.47932 0.0
O951 O 0.68418 0.62953 0.49543 0.0
H952 H 0.70722 0.54557 0.55592 0.0
H953 H 0.70034 0.5114 0.58691 0.0
H954 H 0.63537 0.545 0.61765 0.0
H955 H 0.64228 0.57925 0.586 0.0
H956 H 0.62927 0.70589 0.4401 0.0
H957 H 0.63586 0.73738 0.40502 0.0
H958 H 0.64475 0.78951 0.47114 0.0
H959 H 0.63831 0.75825 0.50598 0.0
Tb960 Tb 0.42896 0.39881 0.27053 0.0
Tb961 Tb 0.37747 0.41144 0.28341 0.0
C962 C 0.46586 0.38109 0.24753 0.0
C963 C 0.48359 0.38633 0.22503 0.0
C964 C 0.47795 0.3833 0.1965 0.0
C965 C 0.49554 0.38682 0.1758 0.0
C966 C 0.51914 0.39348 0.18315 0.0
C967 C 0.5247 0.39637 0.2117 0.0
C968 C 0.50721 0.39277 0.23231 0.0
C969 C 0.42346 0.44145 0.29513 0.0
C970 C 0.39848 0.43049 0.22686 0.0
C971 C 0.33878 0.42824 0.30259 0.0
C972 C 0.32027 0.42395 0.32394 0.0
C973 C 0.30401 0.44248 0.32985 0.0
C974 C 0.28579 0.43914 0.34951 0.0
C975 C 0.28343 0.41715 0.36372 0.0
C976 C 0.29964 0.39842 0.35756 0.0
C977 C 0.31803 0.40183 0.33782 0.0
C978 C 0.38357 0.37115 0.25524 0.0
C979 C 0.40887 0.38464 0.32991 0.0
O980 O 0.44377 0.37595 0.2401 0.0
O981 O 0.46655 0.39467 0.26989 0.0
O982 O 0.4097 0.43152 0.27779 0.0
O983 O 0.44238 0.42789 0.29739 0.0
O984 O 0.41734 0.41616 0.2308 0.0
O985 O 0.38227 0.43369 0.24675 0.0
O986 O 0.3601 0.43478 0.31146 0.0
O987 O 0.33986 0.41279 0.282 0.0
O988 O 0.39665 0.37869 0.27499 0.0
O989 O 0.36535 0.38541 0.25234 0.0
O990 O 0.38905 0.39662 0.32352 0.0
O991 O 0.42628 0.38094 0.31137 0.0
H992 H 0.46 0.37805 0.19011 0.0
H993 H 0.4906 0.38459 0.15403 0.0
H994 H 0.54277 0.40106 0.21821 0.0
H995 H 0.5123 0.39474 0.25408 0.0
H996 H 0.30537 0.45959 0.31916 0.0
H997 H 0.27342 0.4538 0.35351 0.0
H998 H 0.29839 0.38137 0.36837 0.0
H999 H 0.33046 0.3873 0.33343 0.0
Tb1000 Tb 0.37956 0.67803 1.02289 0.0
Tb1001 Tb 0.36897 0.62646 1.03546 0.0
C1002 C 0.39599 0.71546 0.99977 0.0
C1003 C 0.39053 0.73268 0.97676 0.0
C1004 C 0.39604 0.72746 0.9486 0.0
C1005 C 0.39221 0.74466 0.92752 0.0
C1006 C 0.38279 0.76745 0.93411 0.0
C1007 C 0.37755 0.77264 0.9623 0.0
C1008 C 0.38143 0.75555 0.98328 0.0
C1009 C 0.33705 0.67093 0.04701 0.0
C1010 C 0.34969 0.64596 0.97852 0.0
C1011 C 0.35508 0.58702 0.05533 0.0
C1012 C 0.36277 0.57036 0.07744 0.0
C1013 C 0.37346 0.57869 0.10221 0.0
C1014 C 0.38031 0.56247 0.12305 0.0
C1015 C 0.3766 0.53765 0.11944 0.0
C1016 C 0.36644 0.52937 0.09429 0.0
C1017 C 0.35957 0.54562 0.07349 0.0
C1018 C 0.40923 0.63377 1.00769 0.0
C1019 C 0.39333 0.65878 0.08289 0.0
O1020 O 0.40245 0.69361 0.99296 0.0
O1021 O 0.38177 0.7157 1.0216 0.0
O1022 O 0.34745 0.65768 1.02949 0.0
O1023 O 0.34996 0.6902 0.0498 0.0
O1024 O 0.36259 0.66574 0.98306 0.0
O1025 O 0.3471 0.62963 0.99833 0.0
O1026 O 0.34657 0.6079 0.06334 0.0
O1027 O 0.36969 0.58884 1.03402 0.0
O1028 O 0.40128 0.6467 1.02743 0.0
O1029 O 0.39548 0.61526 1.00472 0.0
O1030 O 0.38258 0.63851 0.07591 0.0
O1031 O 0.39654 0.67643 0.06454 0.0
H1032 H 0.40345 0.71015 0.94282 0.0
H1033 H 0.39634 0.74001 0.90604 0.0
H1034 H 0.37071 0.79012 0.96829 0.0
H1035 H 0.37754 0.7604 1.00477 0.0
H1036 H 0.37626 0.5977 0.10562 0.0
H1037 H 0.38832 0.56937 0.1421 0.0
H1038 H 0.36306 0.51041 0.09105 0.0
H1039 H 0.35145 0.53888 0.05442 0.0
Tb1040 Tb 0.10568 0.62626 0.77002 0.0
Tb1041 Tb 0.1588 0.61668 0.78104 0.0
C1042 C 0.06768 0.64368 0.74918 0.0
C1043 C 0.05185 0.64041 0.72461 0.0
C1044 C 0.03646 0.65917 0.71653 0.0
C1045 C 0.02017 0.6561 0.69441 0.0
C1046 C 0.01889 0.63412 0.67995 0.0
C1047 C 0.03503 0.61563 0.68751 0.0
C1048 C 0.05136 0.61875 0.70958 0.0
C1049 C 0.11543 0.58296 0.79066 0.0
C1050 C 0.13846 0.60192 0.72241 0.0
C1051 C 0.19875 0.60165 0.79857 0.0
C1052 C 0.21583 0.60571 0.82154 0.0
C1053 C 0.23231 0.58753 0.82805 0.0
C1054 C 0.24955 0.59107 0.84884 0.0
C1055 C 0.25069 0.61294 0.86356 0.0
C1056 C 0.23412 0.63122 0.85699 0.0
C1057 C 0.21672 0.6276 0.83616 0.0
C1058 C 0.14941 0.65748 0.75578 0.0
C1059 C 0.12586 0.63779 0.83034 0.0
O1060 O 0.08923 0.65206 0.74423 0.0
O1061 O 0.06794 0.62641 0.76776 0.0
O1062 O 0.12794 0.59506 0.77392 0.0
O1063 O 0.09502 0.59409 0.79355 0.0
O1064 O 0.11783 0.61261 0.72894 0.0
O1065 O 0.15583 0.59869 0.74096 0.0
O1066 O 0.17816 0.59166 0.80507 0.0
O1067 O 0.19632 0.61921 0.78062 0.0
O1068 O 0.1369 0.64803 0.77501 0.0
O1069 O 0.16892 0.64513 0.75249 0.0
O1070 O 0.14663 0.62836 0.82233 0.0
O1071 O 0.10759 0.6408 0.81273 0.0
H1072 H 0.03664 0.67607 0.72778 0.0
H1073 H 1.00793 0.67063 0.68939 0.0
H1074 H 0.03478 0.59858 0.67658 0.0
H1075 H 0.06328 0.60412 0.71525 0.0
H1076 H 0.23197 0.5706 0.81683 0.0
H1077 H 0.2622 0.57674 0.85324 0.0
H1078 H 0.23441 0.64813 0.86821 0.0
H1079 H 0.20409 0.64186 0.83139 0.0
Tb1080 Tb 0.15022 0.35399 0.51779 0.0
Tb1081 Tb 0.15985 0.40607 0.53141 0.0
C1082 C 0.13309 0.31681 0.49501 0.0
C1083 C 0.13871 0.29787 0.47408 0.0
C1084 C 0.13751 0.30217 0.44505 0.0
C1085 C 0.14122 0.2834 0.42586 0.0
C1086 C 0.14624 0.25998 0.43531 0.0
C1087 C 0.14717 0.25578 0.46432 0.0
C1088 C 0.1434 0.27442 0.48339 0.0
C1089 C 0.19308 0.36177 0.54127 0.0
C1090 C 0.17997 0.38658 0.47429 0.0
C1091 C 0.17366 0.44518 0.55212 0.0
C1092 C 0.16461 0.4634 0.57179 0.0
C1093 C 0.1807 0.47393 0.59067 0.0
C1094 C 0.17298 0.49211 0.60868 0.0
C1095 C 0.149 0.50027 0.608 0.0
C1096 C 0.13274 0.48928 0.58941 0.0
C1097 C 0.14047 0.47095 0.57149 0.0
C1098 C 0.11937 0.39822 0.50409 0.0
C1099 C 0.13634 0.3726 0.57829 0.0
O1100 O 0.12909 0.33867 0.48599 0.0
O1101 O 0.14546 0.3166 0.51833 0.0
O1102 O 0.18152 0.37523 0.5251 0.0
O1103 O 0.18174 0.34139 0.54163 0.0
O1104 O 0.16684 0.36685 0.47815 0.0
O1105 O 0.18252 0.40254 0.49464 0.0
O1106 O 0.1791 0.4242 0.56278 0.0
O1107 O 0.16239 0.44342 0.52815 0.0
O1108 O 0.12813 0.38504 0.5231 0.0
O1109 O 0.1321 0.41756 0.50219 0.0
O1110 O 0.14638 0.39334 0.57164 0.0
O1111 O 0.13363 0.35509 0.55965 0.0
H1112 H 0.13356 0.31997 0.43713 0.0
H1113 H 0.14049 0.28726 0.40366 0.0
H1114 H 0.15054 0.2379 0.47237 0.0
H1115 H 0.14387 0.27037 0.50557 0.0
H1116 H 0.19934 0.46822 0.59135 0.0
H1117 H 0.18584 0.49972 0.62322 0.0
H1118 H 0.11418 0.49517 0.58831 0.0
H1119 H 0.12767 0.46293 0.55716 0.0
Tb1120 Tb 0.42286 0.62871 0.3088 0.0
Tb1121 Tb 0.37076 0.61906 0.29471 0.0
C1122 C 0.46006 0.64613 0.33147 0.0
C1123 C 0.47701 0.64143 0.3547 0.0
C1124 C 0.48049 0.61825 0.36556 0.0
C1125 C 0.49789 0.61417 0.38631 0.0
C1126 C 0.51213 0.63319 0.39669 0.0
C1127 C 0.50795 0.65648 0.38633 0.0
C1128 C 0.49061 0.66051 0.36556 0.0
C1129 C 0.4147 0.58488 0.28851 0.0
C1130 C 0.38862 0.60335 0.35413 0.0
C1131 C 0.33117 0.60489 0.27518 0.0
C1132 C 0.31209 0.61368 0.25646 0.0
C1133 C 0.28818 0.6077 0.26254 0.0
C1134 C 0.26952 0.61556 0.24527 0.0
C1135 C 0.27442 0.62952 0.22142 0.0
C1136 C 0.29844 0.63589 0.21565 0.0
C1137 C 0.31715 0.62808 0.23308 0.0
C1138 C 0.37873 0.66134 0.31807 0.0
C1139 C 0.40577 0.63843 0.24688 0.0
O1140 O 0.4381 0.65218 0.33839 0.0
O1141 O 0.46053 0.6312 0.31029 0.0
O1142 O 0.40111 0.59721 0.30386 0.0
O1143 O 0.4351 0.59615 0.28699 0.0
O1144 O 0.40903 0.61506 0.34931 0.0
O1145 O 0.37279 0.5995 0.33395 0.0
O1146 O 0.35204 0.59969 0.26395 0.0
O1147 O 0.33333 0.61641 0.29885 0.0
O1148 O 0.39229 0.65088 0.30066 0.0
O1149 O 0.35895 0.64936 0.31999 0.0
O1150 O 0.38524 0.62794 0.2535 0.0
O1151 O 0.4225 0.64329 0.26591 0.0
H1152 H 0.47004 0.60328 0.35768 0.0
H1153 H 0.50036 0.59606 0.39406 0.0
H1154 H 0.51867 0.6715 0.39353 0.0
H1155 H 0.48818 0.67855 0.35749 0.0
H1156 H 0.28392 0.59683 0.28069 0.0
H1157 H 0.25123 0.61066 0.25059 0.0
H1158 H 0.30286 0.64641 0.19729 0.0
H1159 H 0.3355 0.63308 0.22815 0.0
Tb1160 Tb 0.14951 0.66865 0.05667 0.0
Tb1161 Tb 0.16065 0.61628 0.0457 0.0
C1162 C 0.13086 0.70609 0.07722 0.0
C1163 C 0.13512 0.72307 0.10043 0.0
C1164 C 0.11604 0.73731 0.11018 0.0
C1165 C 0.11978 0.75436 0.1313 0.0
C1166 C 0.14277 0.75757 0.14305 0.0
C1167 C 0.16173 0.74272 0.13374 0.0
C1168 C 0.15794 0.72559 0.11268 0.0
C1169 C 0.19387 0.66051 0.03836 0.0
C1170 C 0.17358 0.63632 0.10498 0.0
C1171 C 0.17637 0.57618 1.02949 0.0
C1172 C 0.17277 0.5584 1.00723 0.0
C1173 C 0.19086 0.5414 1.00247 0.0
C1174 C 0.18777 0.52358 0.9823 0.0
C1175 C 0.16647 0.52242 0.96645 0.0
C1176 C 0.14823 0.53947 0.97135 0.0
C1177 C 0.1514 0.55742 0.99159 0.0
C1178 C 0.11784 0.62468 0.06735 0.0
C1179 C 0.14251 0.64929 0.99539 0.0
O1180 O 0.12464 0.68428 0.08432 0.0
O1181 O 0.14647 0.70624 0.05669 0.0
O1182 O 0.18155 0.64739 0.05425 0.0
O1183 O 0.18232 0.68062 1.03532 0.0
O1184 O 0.16241 0.65663 0.09826 0.0
O1185 O 0.17775 0.61934 0.08627 0.0
O1186 O 0.18595 0.59672 1.02225 0.0
O1187 O 0.15863 0.5788 0.04717 0.0
O1188 O 0.12832 0.63744 0.04918 0.0
O1189 O 0.13049 0.60561 0.07175 0.0
O1190 O 0.15326 0.62928 1.00349 0.0
O1191 O 0.13625 0.66641 1.01334 0.0
H1192 H 0.09827 0.73554 0.10106 0.0
H1193 H 0.10485 0.7656 0.13772 0.0
H1194 H 0.17959 0.74448 0.1426 0.0
H1195 H 0.17286 0.71458 0.1057 0.0
H1196 H 0.20738 0.5418 1.01454 0.0
H1197 H 0.20202 0.51055 0.97924 0.0
H1198 H 0.13176 0.53917 0.95924 0.0
H1199 H 0.13721 0.57045 0.99508 0.0
Tb1200 Tb 0.1037 0.39618 0.80405 0.0
Tb1201 Tb 0.1549 0.40779 0.79247 0.0
C1202 C 0.06627 0.3785 0.82591 0.0
C1203 C 0.04998 0.38314 0.84973 0.0
C1204 C 0.0353 0.36452 0.85972 0.0
C1205 C 0.01848 0.36881 0.881 0.0
C1206 C 0.01593 0.39189 0.89262 0.0
C1207 C 0.03132 0.41033 0.88319 0.0
C1208 C 0.04821 0.40598 0.86199 0.0
C1209 C 0.11014 0.4395 0.7819 0.0
C1210 C 0.13514 0.42469 0.8501 0.0
C1211 C 0.19509 0.42181 0.77448 0.0
C1212 C 0.2117 0.416 0.75155 0.0
C1213 C 0.20327 0.40804 0.72547 0.0
C1214 C 0.21954 0.40295 0.70397 0.0
C1215 C 0.24447 0.4056 0.70826 0.0
C1216 C 0.2528 0.41297 0.73465 0.0
C1217 C 0.23652 0.41817 0.75609 0.0
C1218 C 0.14793 0.36654 0.81851 0.0
C1219 C 0.12248 0.38669 0.74325 0.0
O1220 O 0.08811 0.37157 0.83207 0.0
O1221 O 0.06602 0.39423 0.80559 0.0
O1222 O 0.12348 0.429 0.79931 0.0
O1223 O 0.09134 0.42612 0.77793 0.0
O1224 O 0.11555 0.41171 0.8448 0.0
O1225 O 0.15145 0.42834 0.83048 0.0
O1226 O 0.1746 0.43193 0.76776 0.0
O1227 O 0.1925 0.40511 0.79338 0.0
O1228 O 0.13518 0.37478 0.79873 0.0
O1229 O 0.16585 0.3808 0.82269 0.0
O1230 O 0.14211 0.39834 0.75076 0.0
O1231 O 0.10564 0.38078 0.76167 0.0
H1232 H 0.03645 0.34673 0.85058 0.0
H1233 H 1.00683 0.35427 0.88754 0.0
H1234 H 0.03008 0.42824 0.89195 0.0
H1235 H 0.05955 0.42056 0.8548 0.0
H1236 H 0.18418 0.40596 0.72163 0.0
H1237 H 0.21262 0.39706 0.68391 0.0
H1238 H 0.27186 0.41543 0.73847 0.0
H1239 H 0.24332 0.42414 0.77617 0.0
Tb1240 Tb 0.38036 0.35189 0.5542 0.0
Tb1241 Tb 0.36681 0.4023 0.53889 0.0
C1242 C 0.39984 0.31659 0.57859 0.0
C1243 C 0.39548 0.30046 0.6026 0.0
C1244 C 0.41458 0.28678 0.61335 0.0
C1245 C 0.41066 0.27015 0.63488 0.0
C1246 C 0.38748 0.26679 0.64604 0.0
C1247 C 0.36852 0.2812 0.63582 0.0
C1248 C 0.37248 0.2979 0.61435 0.0
C1249 C 0.33665 0.35555 0.53177 0.0
C1250 C 0.34952 0.38411 0.5972 0.0
C1251 C 0.35149 0.44065 0.51732 0.0
C1252 C 0.36052 0.45956 0.49846 0.0
C1253 C 0.3448 0.46979 0.47889 0.0
C1254 C 0.35246 0.48864 0.46177 0.0
C1255 C 0.37601 0.49779 0.46399 0.0
C1256 C 0.39189 0.48714 0.48329 0.0
C1257 C 0.38424 0.46816 0.50033 0.0
C1258 C 0.40947 0.39758 0.56303 0.0
C1259 C 0.38893 0.36796 0.49227 0.0
O1260 O 0.4046 0.33903 0.58448 0.0
O1261 O 0.38515 0.31459 0.55731 0.0
O1262 O 0.34692 0.37038 0.54763 0.0
O1263 O 0.35044 0.33678 0.53005 0.0
O1264 O 0.3645 0.36564 0.59403 0.0
O1265 O 0.34495 0.39867 0.57602 0.0
O1266 O 0.34796 0.41942 0.50629 0.0
O1267 O 0.36147 0.4394 0.54204 0.0
O1268 O 0.40022 0.38358 0.54537 0.0
O1269 O 0.39564 0.41604 0.56568 0.0
O1270 O 0.37616 0.38726 0.49829 0.0
O1271 O 0.39599 0.35261 0.51188 0.0
H1272 H 0.43249 0.28856 0.60461 0.0
H1273 H 0.42561 0.25925 0.642 0.0
H1274 H 0.3505 0.27935 0.64419 0.0
H1275 H 0.35753 0.30846 0.60655 0.0
H1276 H 0.32648 0.46333 0.477 0.0
H1277 H 0.33989 0.49598 0.44669 0.0
H1278 H 0.4101 0.49378 0.48567 0.0
H1279 H 0.39676 0.46047 0.51523 0.0
H1280 H 0.29136 0.14337 0.21187 0.0
H1281 H 0.24958 0.09297 0.16324 0.0
H1282 H 0.27673 0.09808 0.1238 0.0
H1283 H 0.31238 0.11564 0.10357 0.0
H1284 H 0.35503 0.1665 0.15038 0.0
H1285 H 0.32752 0.1622 0.1904 0.0
C1286 C 0.28831 0.13346 0.19266 0.0
C1287 C 0.2684 0.11784 0.19052 0.0
C1288 C 0.30417 0.1364 0.16993 0.0
C1289 C 0.2645 0.10535 0.16536 0.0
C1290 C 0.28013 0.10811 0.14285 0.0
C1291 C 0.31592 0.12578 0.12252 0.0
C1292 C 0.33597 0.14115 0.12411 0.0
C1293 C 0.30004 0.12341 0.145 0.0
C1294 C 0.33981 0.15443 0.1487 0.0
C1295 C 0.32409 0.15197 0.17153 0.0
H1296 H 0.10794 0.06201 0.37293 0.0
H1297 H 0.17277 0.1001 0.39462 0.0
H1298 H 0.17872 0.07393 0.43515 0.0
H1299 H 0.16753 0.03813 0.4618 0.0
H1300 H 0.1048 0.99738 0.43768 0.0
H1301 H 0.09573 0.02675 0.40121 0.0
C1302 C 0.12295 0.06489 0.38706 0.0
C1303 C 0.13973 0.0831 0.38123 0.0
C1304 C 0.12679 0.04908 0.40968 0.0
C1305 C 0.15953 0.08633 0.39905 0.0
C1306 C 0.16301 0.07127 0.42205 0.0
C1307 C 0.15191 0.03556 0.44854 0.0
C1308 C 0.13704 0.01535 0.45247 0.0
C1309 C 0.14714 0.05218 0.42711 0.0
C1310 C 0.11652 1.01279 0.43542 0.0
C1311 C 0.11138 0.02954 0.41437 0.0
H1312 H 0.23412 0.91937 0.69752 0.0
H1313 H 0.27296 0.85323 0.68373 0.0
H1314 H 0.2419 0.83984 0.65104 0.0
H1315 H 0.20542 0.84856 0.62319 0.0
H1316 H 0.16966 0.91672 0.6334 0.0
H1317 H 0.19753 0.92761 0.67091 0.0
C1318 C 0.23591 0.90206 0.68729 0.0
C1319 C 0.25601 0.88746 0.69293 0.0
C1320 C 0.21836 0.89478 0.66799 0.0
C1321 C 0.25763 0.86481 0.67997 0.0
C1322 C 0.23992 0.85717 0.66115 0.0
C1323 C 0.20352 0.86554 0.63412 0.0
C1324 C 0.18552 0.88179 0.62589 0.0
C1325 C 0.22039 0.87217 0.65467 0.0
C1326 C 0.18335 0.90393 0.63969 0.0
C1327 C 0.19936 0.91021 0.66093 0.0
H1328 H 0.41784 0.95162 0.87977 0.0
H1329 H 0.34243 0.93362 0.8765 0.0
H1330 H 0.33396 0.96217 0.91406 0.0
H1331 H 0.34725 0.99476 0.94451 0.0
H1332 H 0.42228 0.01452 0.94694 0.0
H1333 H 0.4316 0.98315 0.91266 0.0
C1334 C 0.39969 0.95358 0.88785 0.0
C1335 C 0.38077 0.94045 0.87568 0.0
C1336 C 0.39482 0.97071 0.90879 0.0
C1337 C 0.35724 0.9435 0.88575 0.0
C1338 C 0.35238 0.95991 0.90706 0.0
C1339 C 0.36573 0.99195 0.93797 0.0
C1340 C 0.38402 1.00699 0.94831 0.0
C1341 C 0.37091 0.97402 0.91824 0.0
C1342 C 0.40779 1.0034 0.93907 0.0
C1343 C 0.41317 0.98535 0.91961 0.0
H1344 H 0.32345 0.85775 0.44644 0.0
H1345 H 0.34641 0.93166 0.44332 0.0
H1346 H 0.31788 0.93978 0.40562 0.0
H1347 H 0.28392 0.927 0.37704 0.0
H1348 H 0.2591 0.85367 0.38098 0.0
H1349 H 0.2905 0.84423 0.41526 0.0
C1350 C 0.32255 0.87542 0.43692 0.0
C1351 C 0.33706 0.89408 0.4473 0.0
C1352 C 0.30543 0.88017 0.41593 0.0
C1353 C 0.33544 0.91706 0.43542 0.0
C1354 C 0.31905 0.92174 0.41404 0.0
C1355 C 0.28563 0.90882 0.38496 0.0
C1356 C 0.26919 0.89108 0.37643 0.0
C1357 C 0.30355 0.9036 0.40466 0.0
C1358 C 0.27136 0.86774 0.38744 0.0
C1359 C 0.28939 0.86229 0.4069 0.0
H1360 H 0.35885 0.0444 0.62102 0.0
H1361 H 0.42681 1.00851 0.63387 0.0
H1362 H 0.43818 0.03876 0.66862 0.0
H1363 H 0.4272 0.0736 0.69825 0.0
H1364 H 0.35822 0.10756 0.68674 0.0
H1365 H 0.34919 0.08051 0.64779 0.0
C1366 C 0.37638 0.04343 0.63096 0.0
C1367 C 0.39191 0.02416 0.62487 0.0
C1368 C 0.38269 0.06074 0.651 0.0
C1369 C 0.41435 0.02296 0.63844 0.0
C1370 C 0.42094 0.04034 0.65818 0.0
C1371 C 0.41057 0.07546 0.68653 0.0
C1372 C 0.39352 0.0927 0.6948 0.0
C1373 C 0.40508 0.05911 0.66498 0.0
C1374 C 0.37168 0.09459 0.68027 0.0
C1375 C 0.36644 0.07899 0.65825 0.0
H1376 H 0.20508 0.09924 0.95626 0.0
H1377 H 0.19177 0.17334 0.93461 0.0
H1378 H 0.2218 0.17059 0.89706 0.0
H1379 H 0.25356 0.14739 0.87213 0.0
H1380 H 0.26713 0.07392 0.89656 0.0
H1381 H 0.2354 0.07632 0.93147 0.0
C1382 C 0.20855 0.11485 0.94327 0.0
C1383 C 0.19624 0.13651 0.94839 0.0
C1384 C 0.22612 0.1133 0.92237 0.0
C1385 C 0.20089 0.1564 0.93109 0.0
C1386 C 0.21822 0.15488 0.90977 0.0
C1387 C 0.24961 0.13198 0.88521 0.0
C1388 C 0.26268 0.11046 0.88159 0.0
C1389 C 0.23129 0.13351 0.90557 0.0
C1390 C 0.25717 0.09057 0.89854 0.0
C1391 C 0.23906 0.09194 0.91862 0.0
H1392 H 0.17336 0.9507 0.21063 0.0
H1393 H 0.10248 0.93162 0.18108 0.0
H1394 H 0.10619 0.96116 0.14317 0.0
H1395 H 0.1293 0.99373 0.11977 0.0
H1396 H 0.19935 1.01289 0.15193 0.0
H1397 H 0.19604 0.98209 0.1878 0.0
C1398 C 0.15866 0.9528 0.19589 0.0
C1399 C 0.13762 0.93899 0.19879 0.0
C1400 C 0.1607 0.97004 0.17478 0.0
C1401 C 0.11892 0.94194 0.17928 0.0
C1402 C 0.12098 0.95896 0.15774 0.0
C1403 C 0.14373 0.99119 0.13476 0.0
C1404 C 0.16461 1.00551 0.13308 0.0
C1405 C 0.14168 0.97338 0.15556 0.0
C1406 C 0.18327 1.0019 0.15249 0.0
C1407 C 0.18137 0.98434 0.17306 0.0
H1408 H 0.74349 0.87507 0.87039 0.0
H1409 H 0.75557 0.94908 0.89358 0.0
H1410 H 0.72505 0.94611 0.92987 0.0
H1411 H 0.69629 0.92258 0.95607 0.0
H1412 H 0.68405 0.84813 0.93535 0.0
H1413 H 0.7129 0.8513 0.89656 0.0
C1414 C 0.7394 0.89047 0.88348 0.0
C1415 C 0.75169 0.91231 0.87923 0.0
C1416 C 0.72173 0.88863 0.90451 0.0
C1417 C 0.74614 0.93219 0.89616 0.0
C1418 C 0.72875 0.9305 0.91698 0.0
C1419 C 0.69976 0.90699 0.94302 0.0
C1420 C 0.68819 0.8851 0.94872 0.0
C1421 C 0.71657 0.90884 0.92139 0.0
C1422 C 0.69268 0.86523 0.93134 0.0
C1423 C 0.70933 0.867 0.90933 0.0
H1424 H 0.89438 0.99377 0.61411 0.0
H1425 H 0.84744 0.03872 0.66363 0.0
H1426 H 0.84858 1.00958 0.70158 0.0
H1427 H 0.8622 0.97163 0.72044 0.0
H1428 H 0.91029 0.92633 0.67296 0.0
H1429 H 0.90915 0.95526 0.63412 0.0
C1430 C 0.88441 0.9971 0.63322 0.0
C1431 C 0.87089 0.01842 0.63608 0.0
C1432 C 0.88515 0.98019 0.6551 0.0
C1433 C 0.85824 0.02265 0.66105 0.0
C1434 C 0.85872 1.00591 0.68267 0.0
C1435 C 0.8723 0.9678 0.70153 0.0
C1436 C 0.88603 0.94662 0.69942 0.0
C1437 C 0.87197 0.98462 0.67983 0.0
C1438 C 0.89942 0.9424 0.67498 0.0
C1439 C 0.89881 0.95896 0.65286 0.0
H1440 H 0.78348 0.15116 0.36467 0.0
H1441 H 0.77147 0.07739 0.38888 0.0
H1442 H 0.80173 0.08094 0.42539 0.0
H1443 H 0.83027 0.1049 0.45154 0.0
H1444 H 0.84227 0.17918 0.42986 0.0
H1445 H 0.81363 0.17542 0.39092 0.0
C1446 C 0.78748 0.13593 0.37803 0.0
C1447 C 0.77527 0.11399 0.37392 0.0
C1448 C 0.80496 0.13812 0.39927 0.0
C1449 C 0.78081 0.09435 0.39125 0.0
C1450 C 0.79805 0.09638 0.41224 0.0
C1451 C 0.82679 0.12033 0.43827 0.0
C1452 C 0.83828 0.14234 0.44375 0.0
C1453 C 0.81011 0.11815 0.4165 0.0
C1454 C 0.83373 0.162 0.42606 0.0
C1455 C 0.81721 0.15988 0.40395 0.0
H1456 H 0.66397 0.04046 0.11611 0.0
H1457 H 0.61084 0.99222 0.15037 0.0
H1458 H 0.6002 0.02211 0.18583 0.0
H1459 H 0.60852 0.06073 0.20946 0.0
H1460 H 0.66324 0.10756 0.17649 0.0
H1461 H 0.67015 0.07992 0.13742 0.0
C1462 C 0.64969 0.03665 0.13092 0.0
C1463 C 0.63829 0.01408 0.13061 0.0
C1464 C 0.6438 0.05382 0.15129 0.0
C1465 C 0.62015 1.00931 0.15038 0.0
C1466 C 0.61394 0.02645 0.17054 0.0
C1467 C 0.62136 0.06511 0.19313 0.0
C1468 C 0.63503 0.08623 0.19522 0.0
C1469 C 0.62593 0.04862 0.17148 0.0
C1470 C 0.65225 0.09154 0.17474 0.0
C1471 C 0.65636 0.07565 0.15265 0.0
H1472 H 0.74726 0.14546 0.70501 0.0
H1473 H 0.78515 0.09061 0.65865 0.0
H1474 H 0.75504 0.0925 0.62167 0.0
H1475 H 0.71862 0.10955 0.60247 0.0
H1476 H 0.68062 0.16565 0.64664 0.0
H1477 H 0.70998 0.16311 0.68497 0.0
C1478 C 0.74881 0.1339 0.68682 0.0
C1479 C 0.76847 0.11799 0.68448 0.0
C1480 C 0.7314 0.13515 0.66548 0.0
C1481 C 0.77041 0.10324 0.66074 0.0
C1482 C 0.75311 0.10418 0.6397 0.0
C1483 C 0.71647 0.12118 0.62052 0.0
C1484 C 0.69729 0.13768 0.62174 0.0
C1485 C 0.7336 0.12003 0.64188 0.0
C1486 C 0.69514 0.15271 0.64524 0.0
C1487 C 0.71197 0.15131 0.66707 0.0
H1488 H 0.66061 0.98038 0.46243 0.0
H1489 H 0.61592 0.03323 0.42149 0.0
H1490 H 0.60423 1.00365 0.38633 0.0
H1491 H 0.61038 0.96425 0.3642 0.0
H1492 H 0.65789 0.91271 0.40242 0.0
H1493 H 0.66474 0.94011 0.4419 0.0
C1494 C 0.64826 0.9854 0.44587 0.0
C1495 C 0.63933 1.00906 0.44448 0.0
C1496 C 0.64208 0.96847 0.42533 0.0
C1497 C 0.62293 0.01513 0.4232 0.0
C1498 C 0.61634 0.99826 0.40298 0.0
C1499 C 0.62163 0.95886 0.38168 0.0
C1500 C 0.6333 0.93652 0.38101 0.0
C1501 C 0.62621 0.97507 0.40349 0.0
C1502 C 0.64842 0.92973 0.40307 0.0
C1503 C 0.65249 0.94546 0.42538 0.0
H1504 H 0.82286 0.92936 0.11727 0.0
H1505 H 0.83738 0.85596 0.14108 0.0
H1506 H 0.80841 0.85943 0.17956 0.0
H1507 H 0.77734 0.88295 0.2049 0.0
H1508 H 0.76268 0.95585 0.17918 0.0
H1509 H 0.79328 0.95284 0.14288 0.0
C1510 C 0.81989 0.91409 0.13094 0.0
C1511 C 0.83222 0.89238 0.12616 0.0
C1512 C 0.80299 0.91608 0.15257 0.0
C1513 C 0.82821 0.87292 0.14431 0.0
C1514 C 0.81151 0.87485 0.16619 0.0
C1515 C 0.78081 0.89811 0.19125 0.0
C1516 C 0.76772 0.91961 0.1948 0.0
C1517 C 0.79847 0.89623 0.17021 0.0
C1518 C 0.77264 0.93921 0.17716 0.0
C1519 C 0.79009 0.93748 0.15631 0.0
H1520 H 0.87936 0.05721 0.84765 0.0
H1521 H 0.91813 0.10718 0.89988 0.0
H1522 H 0.91516 0.07889 0.93939 0.0
H1523 H 0.89996 0.04025 0.959 0.0
H1524 H 0.86195 0.99119 0.90463 0.0
H1525 H 0.86655 0.01888 0.86572 0.0
C1526 C 0.88711 0.06213 0.86769 0.0
C1527 C 0.8985 0.08449 0.87107 0.0
C1528 C 0.88558 0.04584 0.88979 0.0
C1529 C 0.90905 0.09016 0.89692 0.0
C1530 C 0.90732 0.074 0.91942 0.0
C1531 C 0.89275 0.03569 0.9386 0.0
C1532 C 0.88064 1.01365 0.93473 0.0
C1533 C 0.89538 0.05185 0.91614 0.0
C1534 C 0.87162 1.00782 0.90812 0.0
C1535 C 0.87405 0.02374 0.88589 0.0
H1536 H 0.79008 0.60279 0.69913 0.0
H1537 H 0.75619 0.67168 0.68599 0.0
H1538 H 0.7878 0.68272 0.65288 0.0
H1539 H 0.82291 0.67116 0.62413 0.0
H1540 H 0.8539 0.6007 0.63402 0.0
H1541 H 0.8257 0.59187 0.67197 0.0
C1542 C 0.78949 0.62019 0.68894 0.0
C1543 C 0.7706 0.63625 0.69488 0.0
C1544 C 0.80732 0.62615 0.66939 0.0
C1545 C 0.77056 0.65899 0.68199 0.0
C1546 C 0.78858 0.66528 0.66292 0.0
C1547 C 0.82381 0.65417 0.6352 0.0
C1548 C 0.84054 0.63668 0.62678 0.0
C1549 C 0.80681 0.64884 0.65609 0.0
C1550 C 0.84125 0.61444 0.64053 0.0
C1551 C 0.82505 0.60935 0.66202 0.0
H1552 H 0.60818 0.56853 0.87064 0.0
H1553 H 0.67611 0.60326 0.88628 0.0
H1554 H 0.68533 0.57403 0.92303 0.0
H1555 H 0.67575 0.53659 0.94735 0.0
H1556 H 0.60975 0.49918 0.92813 0.0
H1557 H 0.59788 0.53154 0.89649 0.0
C1558 C 0.62464 0.57 0.88275 0.0
C1559 C 0.64131 0.58813 0.87634 0.0
C1560 C 0.6303 0.55244 0.90284 0.0
C1561 C 0.66295 0.58957 0.89133 0.0
C1562 C 0.66828 0.57277 0.9121 0.0
C1563 C 0.65881 0.53541 0.93616 0.0
C1564 C 0.64381 0.51531 0.93997 0.0
C1565 C 0.65241 0.55373 0.91743 0.0
C1566 C 0.62162 0.51447 0.9258 0.0
C1567 C 0.61486 0.53293 0.90756 0.0
H1568 H 0.70983 0.4184 0.10324 0.0
H1569 H 0.6837 0.3518 0.13813 0.0
H1570 H 0.71277 0.35543 0.17669 0.0
H1571 H 0.74642 0.3775 0.19967 0.0
H1572 H 0.77233 0.44315 0.16218 0.0
H1573 H 0.74258 0.43966 0.12509 0.0
C1574 C 0.71028 0.40458 0.11924 0.0
C1575 C 0.69456 0.38482 0.11773 0.0
C1576 C 0.72717 0.40655 0.14075 0.0
C1577 C 0.69551 0.36726 0.13883 0.0
C1578 C 0.71223 0.36927 0.16076 0.0
C1579 C 0.74558 0.3909 0.18325 0.0
C1580 C 0.76144 0.41068 0.1838 0.0
C1581 C 0.72833 0.38877 0.16177 0.0
C1582 C 0.7601 0.428 0.1625 0.0
C1583 C 0.74314 0.42599 0.14123 0.0
H1584 H 0.85248 0.49006 0.44706 0.0
H1585 H 0.92429 0.51893 0.44059 0.0
H1586 H 0.93462 0.48817 0.40596 0.0
H1587 H 0.92216 0.45471 0.37506 0.0
H1588 H 0.84963 0.42769 0.38042 0.0
H1589 H 0.84089 0.45547 0.41871 0.0
C1590 C 0.87055 0.48938 0.43851 0.0
C1591 C 0.88756 0.50681 0.44642 0.0
C1592 C 0.87628 0.47179 0.41857 0.0
C1593 C 0.91075 0.50592 0.43462 0.0
C1594 C 0.91671 0.48824 0.41496 0.0
C1595 C 0.9047 0.45453 0.38522 0.0
C1596 C 0.8866 0.43907 0.37531 0.0
C1597 C 0.89951 0.47126 0.40649 0.0
C1598 C 0.86382 0.43935 0.38798 0.0
C1599 C 0.85879 0.45534 0.40968 0.0
H1600 H 0.77763 0.38216 0.86795 0.0
H1601 H 0.7617 0.45414 0.89624 0.0
H1602 H 0.79336 0.45135 0.93122 0.0
H1603 H 0.82434 0.42842 0.9549 0.0
H1604 H 0.83998 0.3557 0.9293 0.0
H1605 H 0.80999 0.35899 0.89179 0.0
C1606 C 0.78106 0.39715 0.88188 0.0
C1607 C 0.76734 0.41839 0.87935 0.0
C1608 C 0.79934 0.39539 0.90225 0.0
C1609 C 0.77217 0.43774 0.8974 0.0
C1610 C 0.79024 0.43614 0.91751 0.0
C1611 C 0.8214 0.41325 0.94105 0.0
C1612 C 0.83436 0.3918 0.94505 0.0
C1613 C 0.80383 0.41508 0.92017 0.0
C1614 C 0.83036 0.37248 0.92666 0.0
C1615 C 0.81305 0.37429 0.90536 0.0
H1616 H 0.8544 0.57731 0.20638 0.0
H1617 H 0.92749 0.59354 0.18246 0.0
H1618 H 0.92473 0.5643 0.14406 0.0
H1619 H 0.90177 0.53244 0.1189 0.0
H1620 H 0.82929 0.51628 0.14549 0.0
H1621 H 0.83179 0.54697 0.18159 0.0
C1622 C 0.86978 0.57464 0.19273 0.0
C1623 C 0.89117 0.58751 0.19741 0.0
C1624 C 0.86824 0.55756 0.17137 0.0
C1625 C 0.91076 0.58394 0.17927 0.0
C1626 C 0.90924 0.56707 0.15748 0.0
C1627 C 0.88662 0.53566 0.13271 0.0
C1628 C 0.86531 0.5222 0.12941 0.0
C1629 C 0.88817 0.55345 0.15364 0.0
C1630 C 0.84574 0.52662 0.14731 0.0
C1631 C 0.84716 0.54412 0.16801 0.0
H1632 H 0.73965 0.64388 0.36271 0.0
H1633 H 0.79243 0.61475 0.41976 0.0
H1634 H 0.7646 0.61974 0.45861 0.0
H1635 H 0.72517 0.63021 0.47595 0.0
H1636 H 0.67144 0.66 0.42081 0.0
H1637 H 0.69984 0.65694 0.38134 0.0
C1638 C 0.74497 0.63869 0.38368 0.0
C1639 C 0.76807 0.62894 0.38836 0.0
C1640 C 0.72876 0.64154 0.40606 0.0
C1641 C 0.77491 0.62254 0.41565 0.0
C1642 C 0.75895 0.62522 0.43785 0.0
C1643 C 0.71951 0.63599 0.45529 0.0
C1644 C 0.69609 0.64484 0.45108 0.0
C1645 C 0.73581 0.63436 0.43319 0.0
C1646 C 0.68934 0.65292 0.42441 0.0
C1647 C 0.70554 0.65111 0.40194 0.0
H1648 H 0.67473 0.44727 0.69922 0.0
H1649 H 0.59897 0.4398 0.68168 0.0
H1650 H 0.60244 0.4694 0.64377 0.0
H1651 H 0.62683 0.49979 0.61812 0.0
H1652 H 0.70227 0.50715 0.63807 0.0
H1653 H 0.69903 0.47535 0.67272 0.0
C1654 C 0.65897 0.4519 0.68694 0.0
C1655 C 0.63661 0.44152 0.69337 0.0
C1656 C 0.66101 0.46917 0.66583 0.0
C1657 C 0.61643 0.44747 0.67704 0.0
C1658 C 0.61838 0.46457 0.65557 0.0
C1659 C 0.6425 0.49437 0.6301 0.0
C1660 C 0.66478 0.5058 0.62546 0.0
C1661 C 0.6405 0.47598 0.65023 0.0
C1662 C 0.685 0.49847 0.64094 0.0
C1663 C 0.68316 0.48033 0.66085 0.0
H1664 H 0.20846 0.42428 0.46194 0.0
H1665 H 0.18841 0.35399 0.43175 0.0
H1666 H 0.2189 0.35701 0.39474 0.0
H1667 H 0.25241 0.37943 0.37206 0.0
H1668 H 0.27232 0.449 0.40464 0.0
H1669 H 0.24085 0.44626 0.43987 0.0
C1670 C 0.21055 0.40957 0.44725 0.0
C1671 C 0.19616 0.38889 0.44974 0.0
C1672 C 0.22831 0.41123 0.42658 0.0
C1673 C 0.19917 0.37016 0.43029 0.0
C1674 C 0.21672 0.37182 0.40925 0.0
C1675 C 0.24989 0.39387 0.38701 0.0
C1676 C 0.26461 0.41447 0.3856 0.0
C1677 C 0.23165 0.39217 0.40743 0.0
C1678 C 0.26104 0.43313 0.40498 0.0
C1679 C 0.24308 0.43156 0.42519 0.0
H1680 H 0.38181 0.47551 0.2288 0.0
H1681 H 0.41492 0.42445 0.17284 0.0
H1682 H 0.41192 0.45369 0.13433 0.0
H1683 H 0.39815 0.4934 0.11667 0.0
H1684 H 0.36574 0.5437 0.17434 0.0
H1685 H 0.37063 0.51511 0.21241 0.0
C1686 C 0.3883 0.47064 0.20815 0.0
C1687 C 0.39808 0.4477 0.20341 0.0
C1688 C 0.38678 0.48746 0.18658 0.0
C1689 C 0.4071 0.44195 0.17681 0.0
C1690 C 0.40535 0.45864 0.15489 0.0
C1691 C 0.3922 0.49804 0.13759 0.0
C1692 C 0.38152 0.52064 0.14264 0.0
C1693 C 0.39495 0.48138 0.1595 0.0
C1694 C 0.37423 0.52658 0.16993 0.0
C1695 C 0.37683 0.51017 0.19168 0.0
H1696 H 0.28015 0.65156 0.87347 0.0
H1697 H 0.26153 0.58117 0.90461 0.0
H1698 H 0.29169 0.58479 0.94128 0.0
H1699 H 0.32258 0.60766 0.96482 0.0
H1700 H 0.34142 0.67871 0.93605 0.0
H1701 H 0.31216 0.67495 0.89775 0.0
C1702 C 0.28266 0.63713 0.88843 0.0
C1703 C 0.26869 0.61605 0.88622 0.0
C1704 C 0.30015 0.63933 0.90964 0.0
C1705 C 0.27224 0.59741 0.90559 0.0
C1706 C 0.28944 0.59948 0.92662 0.0
C1707 C 0.32048 0.62241 0.9502 0.0
C1708 C 0.33417 0.6435 0.95342 0.0
C1709 C 0.30347 0.62029 0.92879 0.0
C1710 C 0.33118 0.66224 0.93403 0.0
C1711 C 0.31434 0.66015 0.91225 0.0
H1712 H 0.107 0.57051 0.69974 0.0
H1713 H 0.17606 0.60385 0.68685 0.0
H1714 H 0.18433 0.57662 0.6478 0.0
H1715 H 0.17378 0.54078 0.62098 0.0
H1716 H 0.10658 0.50448 0.63707 0.0
H1717 H 0.09546 0.53556 0.67083 0.0
C1718 C 0.12351 0.57215 0.68777 0.0
C1719 C 0.14084 0.58918 0.6957 0.0
C1720 C 0.12858 0.55568 0.66625 0.0
C1721 C 0.16247 0.59091 0.68075 0.0
C1722 C 0.16724 0.57526 0.65863 0.0
C1723 C 0.15671 0.5396 0.6319 0.0
C1724 C 0.14121 0.52014 0.62674 0.0
C1725 C 0.15078 0.55709 0.65184 0.0
C1726 C 0.11885 0.51929 0.64053 0.0
C1727 C 0.11253 0.537 0.65997 0.0
H1728 H 0.20235 0.6693 0.12986 0.0
H1729 H 0.17428 0.59755 0.13863 0.0
H1730 H 0.20207 0.58974 0.17722 0.0
H1731 H 0.23728 0.60157 0.20436 0.0
H1732 H 0.2673 0.67252 0.19441 0.0
H1733 H 0.23616 0.6823 0.15999 0.0
C1734 C 0.2019 0.65227 0.14089 0.0
C1735 C 0.18619 0.63408 0.13185 0.0
C1736 C 0.21868 0.64757 0.16226 0.0
C1737 C 0.18612 0.61182 0.14558 0.0
C1738 C 0.20212 0.6073 0.16742 0.0
C1739 C 0.23675 0.61937 0.19516 0.0
C1740 C 0.25464 0.63625 0.20195 0.0
C1741 C 0.21895 0.62477 0.17534 0.0
C1742 C 0.25393 0.65906 0.18929 0.0
C1743 C 0.23604 0.66472 0.16975 0.0
H1744 H 0.1742 0.44906 0.867 0.0
H1745 H 0.10085 0.43373 0.8907 0.0
H1746 H 0.10403 0.4627 0.92934 0.0
H1747 H 0.12742 0.494 0.95474 0.0
H1748 H 0.20002 0.50959 0.92811 0.0
H1749 H 0.19718 0.47903 0.8919 0.0
C1750 C 0.15884 0.45187 0.88063 0.0
C1751 C 0.13726 0.43933 0.87585 0.0
C1752 C 0.16061 0.46882 0.90209 0.0
C1753 C 0.11771 0.44308 0.89398 0.0
C1754 C 0.11947 0.45979 0.91591 0.0
C1755 C 0.14253 0.49072 0.94089 0.0
C1756 C 0.16397 0.50397 0.94423 0.0
C1757 C 0.14074 0.47308 0.91984 0.0
C1758 C 0.18348 0.49942 0.92629 0.0
C1759 C 0.18186 0.482 0.90551 0.0
H1760 H 0.30646 0.40597 0.59858 0.0
H1761 H 0.35515 0.36463 0.64995 0.0
H1762 H 0.3266 0.36729 0.68919 0.0
H1763 H 0.28772 0.38194 0.70858 0.0
H1764 H 0.23963 0.42222 0.65525 0.0
H1765 H 0.26807 0.41899 0.6167 0.0
C1766 C 0.31109 0.39763 0.61838 0.0
C1767 C 0.33313 0.38546 0.62152 0.0
C1768 C 0.29457 0.39887 0.64033 0.0
C1769 C 0.3384 0.3743 0.64714 0.0
C1770 C 0.32207 0.3758 0.66949 0.0
C1771 C 0.28356 0.39002 0.6885 0.0
C1772 C 0.26158 0.4023 0.68476 0.0
C1773 C 0.3001 0.38813 0.66631 0.0
C1774 C 0.25625 0.41243 0.65857 0.0
C1775 C 0.27258 0.41076 0.63659 0.0
H1776 H 0.35006 0.53748 0.44991 0.0
H1777 H 0.41959 0.50441 0.43798 0.0
H1778 H 0.43123 0.53679 0.40625 0.0
H1779 H 0.42001 0.57227 0.37796 0.0
H1780 H 0.34906 0.60262 0.38674 0.0
H1781 H 0.33961 0.57372 0.42368 0.0
C1782 C 0.36774 0.53727 0.44033 0.0
C1783 C 0.38379 0.51833 0.44615 0.0
C1784 C 0.37409 0.55559 0.42157 0.0
C1785 C 0.40688 0.51877 0.43405 0.0
C1786 C 0.41352 0.53724 0.41575 0.0
C1787 C 0.40279 0.57292 0.38864 0.0
C1788 C 0.38534 0.58968 0.38014 0.0
C1789 C 0.39711 0.55551 0.40894 0.0
C1790 C 0.3628 0.59001 0.39335 0.0
C1791 C 0.35735 0.57338 0.41425 0.0
H1792 H 0.12217 0.24808 0.38668 0.0
H1793 H 0.18178 0.22673 0.43911 0.0
H1794 H 0.18912 0.19205 0.40938 0.0
H1795 H 0.17829 0.1671 0.3698 0.0
H1796 H 0.11989 0.18756 0.31538 0.0
H1797 H 0.11236 0.22328 0.34454 0.0
C1798 C 0.1369 0.23595 0.39137 0.0
C1799 C 0.15121 0.2399 0.41541 0.0
C1800 C 0.14112 0.21582 0.37399 0.0
C1801 C 0.17018 0.22393 0.42118 0.0
C1802 C 0.17448 0.20411 0.40411 0.0
C1803 C 0.1639 0.17937 0.36414 0.0
C1804 C 0.14945 0.17449 0.34065 0.0
C1805 C 0.15994 0.19975 0.38072 0.0
C1806 C 0.13104 0.1907 0.33361 0.0
C1807 C 0.12683 0.21116 0.35023 0.0
H1808 H 0.06769 0.90739 0.56585 0.0
H1809 H 0.10878 0.85127 0.60591 0.0
H1810 H 0.07861 0.8478 0.64235 0.0
H1811 H 0.04189 0.86207 0.66482 0.0
H1812 H 1.00134 0.9199 0.62755 0.0
H1813 H 0.02963 0.92118 0.58827 0.0
C1814 C 0.0698 0.89418 0.58233 0.0
C1815 C 0.09037 0.87932 0.58272 0.0
C1816 C 0.05254 0.89274 0.60405 0.0
C1817 C 0.09296 0.86255 0.60454 0.0
C1818 C 0.07579 0.86072 0.6257 0.0
C1819 C 0.03926 0.87511 0.64825 0.0
C1820 C 0.01958 0.89103 0.64946 0.0
C1821 C 0.05575 0.87597 0.62596 0.0
C1822 C 0.01622 0.90733 0.62725 0.0
C1823 C 0.0325 0.90815 0.60478 0.0
H1824 H 0.34747 0.85195 0.85608 0.0
H1825 H 0.414 0.83674 0.81322 0.0
H1826 H 0.42222 0.80378 0.84621 0.0
H1827 H 0.4107 0.78014 0.88857 0.0
H1828 H 0.34325 0.79596 0.92955 0.0
H1829 H 0.3352 0.82773 0.89591 0.0
C1830 C 0.36377 0.84139 0.85378 0.0
C1831 C 0.3803 0.84707 0.83248 0.0
C1832 C 0.36821 0.82256 0.87261 0.0
C1833 C 0.40119 0.83302 0.82974 0.0
C1834 C 0.40582 0.81413 0.84855 0.0
C1835 C 0.39414 0.79038 0.88993 0.0
C1836 C 0.37776 0.78577 0.91194 0.0
C1837 C 0.38952 0.80883 0.87028 0.0
C1838 C 0.35643 0.79936 0.91334 0.0
C1839 C 0.35172 0.81749 0.89397 0.0
H1840 H 0.42655 0.10316 0.11426 0.0
H1841 H 0.44575 0.16641 0.06733 0.0
H1842 H 0.47989 0.17347 0.09903 0.0
H1843 H 0.50414 0.16152 0.14068 0.0
H1844 H 0.48438 0.09749 0.18617 0.0
H1845 H 0.45095 0.09073 0.15421 0.0
C1846 C 0.43822 0.1185 0.11084 0.0
C1847 C 0.43336 0.13444 0.08865 0.0
C1848 C 0.45787 0.12221 0.12888 0.0
C1849 C 0.44882 0.15408 0.08449 0.0
C1850 C 0.46841 0.15804 0.10258 0.0
C1851 C 0.49249 0.14612 0.14362 0.0
C1852 C 0.497 0.12998 0.16589 0.0
C1853 C 0.47306 0.14227 0.12499 0.0
C1854 C 0.48174 0.11001 0.16909 0.0
C1855 C 0.46244 0.10619 0.1509 0.0
H1856 H 0.17509 0.84774 0.21402 0.0
H1857 H 0.10989 0.83159 0.25908 0.0
H1858 H 0.10269 0.79695 0.22829 0.0
H1859 H 0.11489 0.7717 0.18775 0.0
H1860 H 0.18079 0.78836 0.14401 0.0
H1861 H 0.18796 0.82206 0.17543 0.0
C1862 C 0.15932 0.83661 0.21723 0.0
C1863 C 0.14282 0.84247 0.23851 0.0
C1864 C 0.15552 0.8167 0.19974 0.0
C1865 C 0.12262 0.82772 0.24252 0.0
C1866 C 0.11858 0.80786 0.22498 0.0
C1867 C 0.1308 0.78273 0.18511 0.0
C1868 C 0.14731 0.77737 0.16349 0.0
C1869 C 0.13484 0.80228 0.20334 0.0
C1870 C 0.16796 0.79175 0.16062 0.0
C1871 C 0.17201 0.81118 0.17848 0.0
H1872 H 0.50138 0.86387 0.43644 0.0
H1873 H 0.48491 0.92803 0.38941 0.0
H1874 H 0.45125 0.93661 0.42044 0.0
H1875 H 0.42586 0.92573 0.45993 0.0
H1876 H 0.44196 0.86267 0.5088 0.0
H1877 H 0.47619 0.85362 0.47791 0.0
C1878 C 0.49039 0.8797 0.43303 0.0
C1879 C 0.49581 0.89535 0.41062 0.0
C1880 C 0.4709 0.88462 0.45113 0.0
C1881 C 0.48146 0.91588 0.40665 0.0
C1882 C 0.46207 0.92074 0.4243 0.0
C1883 C 0.43687 0.91 0.46396 0.0
C1884 C 0.4311 0.89464 0.48634 0.0
C1885 C 0.45658 0.90523 0.44648 0.0
C1886 C 0.4457 0.87448 0.49134 0.0
C1887 C 0.46535 0.86941 0.47377 0.0
H1888 H 0.41452 0.25323 0.69179 0.0
H1889 H 0.34981 0.23561 0.64614 0.0
H1890 H 0.34229 0.20203 0.67753 0.0
H1891 H 0.35458 0.17663 0.71651 0.0
H1892 H 0.41857 0.19355 0.76353 0.0
H1893 H 0.42604 0.22826 0.73292 0.0
C1894 C 0.39878 0.24203 0.68874 0.0
C1895 C 0.38271 0.24711 0.66658 0.0
C1896 C 0.39453 0.22251 0.70697 0.0
C1897 C 0.36229 0.23248 0.66318 0.0
C1898 C 0.35805 0.21311 0.68102 0.0
C1899 C 0.37014 0.18795 0.72022 0.0
C1900 C 0.38624 0.18226 0.74198 0.0
C1901 C 0.3741 0.20786 0.70281 0.0
C1902 C 0.40614 0.19728 0.74661 0.0
C1903 C 0.41035 0.21717 0.72916 0.0
H1904 H 0.10706 0.1012 0.96037 0.0
H1905 H 0.08919 0.16327 1.01018 0.0
H1906 H 0.05503 0.17197 0.97906 0.0
H1907 H 0.03044 0.16184 0.93702 0.0
H1908 H 0.04885 0.09886 0.88872 0.0
H1909 H 0.08227 0.09045 0.92015 0.0
C1910 C 0.09568 0.11664 0.96455 0.0
C1911 C 0.10093 0.13179 0.98735 0.0
C1912 C 0.07601 0.12127 0.94685 0.0
C1913 C 0.08582 0.15155 0.99252 0.0
C1914 C 0.06623 0.15645 0.97476 0.0
C1915 C 0.04179 0.1463 0.93338 0.0
C1916 C 0.03693 0.13095 0.91047 0.0
C1917 C 0.06121 0.14149 0.9517 0.0
C1918 C 0.05178 0.11078 0.90631 0.0
C1919 C 0.07107 0.10603 0.9242 0.0
H1920 H 0.84942 0.85668 0.7109 0.0
H1921 H 0.911 0.83702 0.76073 0.0
H1922 H 0.91873 0.80267 0.72952 0.0
H1923 H 0.90811 0.77876 0.68703 0.0
H1924 H 0.84551 0.79912 0.63896 0.0
H1925 H 0.83806 0.83257 0.67056 0.0
C1926 C 0.86454 0.84487 0.71508 0.0
C1927 C 0.8798 0.84961 0.73792 0.0
C1928 C 0.86868 0.82525 0.69726 0.0
C1929 C 0.89919 0.834 0.74304 0.0
C1930 C 0.90353 0.81431 0.72524 0.0
C1931 C 0.89272 0.79039 0.68365 0.0
C1932 C 0.87756 0.78648 0.6603 0.0
C1933 C 0.88843 0.8098 0.70213 0.0
C1934 C 0.85777 0.80187 0.65629 0.0
C1935 C 0.8534 0.82099 0.67447 0.0
H1936 H 1.00622 0.15891 0.43373 0.0
H1937 H 0.98485 0.0963 0.38649 0.0
H1938 H 0.95034 0.09069 0.41715 0.0
H1939 H 0.92545 0.10381 0.45641 0.0
H1940 H 0.94615 0.16571 0.50497 0.0
H1941 H 0.98143 0.17151 0.47466 0.0
C1942 C 0.99399 0.14406 0.43013 0.0
C1943 C 0.99837 0.12798 0.40774 0.0
C1944 C 0.97392 0.1409 0.44799 0.0
C1945 C 0.98234 0.10874 0.40368 0.0
C1946 C 0.96242 0.10559 0.42113 0.0
C1947 C 0.93769 0.11858 0.46049 0.0
C1948 C 0.93296 0.1345 0.48275 0.0
C1949 C 0.95797 0.12158 0.44323 0.0
C1950 C 0.94915 0.15339 0.48777 0.0
C1951 C 0.96938 0.15665 0.47047 0.0
H1952 H 0.61799 0.25137 0.18805 0.0
H1953 H 0.67784 0.23095 0.13551 0.0
H1954 H 0.68571 0.19633 0.16519 0.0
H1955 H 0.6752 0.17113 0.20485 0.0
H1956 H 0.61659 0.19098 0.25925 0.0
H1957 H 0.60838 0.22636 0.22989 0.0
C1958 C 0.63275 0.23933 0.18317 0.0
C1959 C 0.64738 0.24391 0.15957 0.0
C1960 C 0.63726 0.21925 0.20048 0.0
C1961 C 0.66654 0.22819 0.15369 0.0
C1962 C 0.67096 0.20824 0.17056 0.0
C1963 C 0.66063 0.1832 0.21043 0.0
C1964 C 0.64624 0.17819 0.23394 0.0
C1965 C 0.65639 0.20353 0.19385 0.0
C1966 C 0.62762 0.19417 0.24095 0.0
C1967 C 0.62304 0.21445 0.22424 0.0
H1968 H 0.52047 0.86735 0.94155 0.0
H1969 H 0.5394 0.93104 0.89493 0.0
H1970 H 0.57381 0.93765 0.92549 0.0
H1971 H 0.59954 0.92479 0.96404 0.0
H1972 H 0.5813 0.86174 1.01186 0.0
H1973 H 0.54582 0.85524 0.98207 0.0
C1974 C 0.53213 0.88267 0.9381 0.0
C1975 C 0.52719 0.89872 0.91591 0.0
C1976 C 0.55214 0.88637 0.95581 0.0
C1977 C 0.54242 0.91861 0.912 0.0
C1978 C 0.56227 0.92231 0.92936 0.0
C1979 C 0.58777 0.90964 0.96808 0.0
C1980 C 0.59326 0.89354 0.98987 0.0
C1981 C 0.56741 0.90624 0.95114 0.0
C1982 C 0.57769 0.87416 0.99493 0.0
C1983 C 0.55737 0.87052 0.97795 0.0
H1984 H 0.91344 0.25489 0.88071 0.0
H1985 H 0.84925 0.23542 0.9263 0.0
H1986 H 0.84331 0.20102 0.89566 0.0
H1987 H 0.85676 0.17555 0.85732 0.0
H1988 H 0.92021 0.19418 0.81023 0.0
H1989 H 0.92621 0.22963 0.84021 0.0
C1990 C 0.89816 0.24311 0.88391 0.0
C1991 C 0.88175 0.24793 0.90584 0.0
C1992 C 0.89483 0.22309 0.8661 0.0
C1993 C 0.86194 0.23252 0.90943 0.0
C1994 C 0.85862 0.21267 0.89202 0.0
C1995 C 0.87191 0.18738 0.85346 0.0
C1996 C 0.88824 0.182 0.83182 0.0
C1997 C 0.875 0.2077 0.87047 0.0
C1998 C 0.90759 0.19769 0.82701 0.0
C1999 C 0.91095 0.21799 0.84412 0.0
H2000 H 0.53014 0.16489 0.63572 0.0
H2001 H 0.54528 0.09874 0.6795 0.0
H2002 H 0.57841 0.09037 0.64762 0.0
H2003 H 0.60396 0.10204 0.60833 0.0
H2004 H 0.58935 0.16748 0.56323 0.0
H2005 H 0.55541 0.17606 0.59469 0.0
C2006 C 0.54072 0.14867 0.63829 0.0
C2007 C 0.53501 0.13243 0.66006 0.0
C2008 C 0.55998 0.1439 0.61975 0.0
C2009 C 0.54886 0.11139 0.6628 0.0
C2010 C 0.56799 0.10664 0.64466 0.0
C2011 C 0.59332 0.11818 0.60526 0.0
C2012 C 0.59943 0.13429 0.5837 0.0
C2013 C 0.57378 0.12278 0.62318 0.0
C2014 C 0.58529 0.15498 0.57993 0.0
C2015 C 0.56583 0.15982 0.59788 0.0
H2016 H 0.67439 0.85559 0.36463 0.0
H2017 H 0.61571 0.83375 0.31143 0.0
H2018 H 0.60784 0.79928 0.34239 0.0
H2019 H 0.61729 0.7761 0.38585 0.0
H2020 H 0.67671 0.79908 0.43757 0.0
H2021 H 0.68468 0.83228 0.40584 0.0
C2022 C 0.6599 0.84326 0.35962 0.0
C2023 C 0.64546 0.8474 0.33592 0.0
C2024 C 0.65561 0.82368 0.37737 0.0
C2025 C 0.62687 0.83114 0.32976 0.0
C2026 C 0.62245 0.81142 0.34743 0.0
C2027 C 0.6321 0.78827 0.38997 0.0
C2028 C 0.6462 0.7852 0.41434 0.0
C2029 C 0.63663 0.80758 0.37148 0.0
C2030 C 0.66528 0.80121 0.41937 0.0
C2031 C 0.66994 0.82018 0.40114 0.0
H2032 H 0.92419 0.92586 0.11049 0.0
H2033 H 0.93813 0.86138 0.06319 0.0
H2034 H 0.97329 0.85284 0.09285 0.0
H2035 H 0.99963 0.86372 0.13309 0.0
H2036 H 0.98513 0.92911 0.17876 0.0
H2037 H 0.95091 0.93749 0.14851 0.0
C2038 C 0.93494 0.90994 0.10653 0.0
C2039 C 0.9283 0.89403 0.08498 0.0
C2040 C 0.95515 0.90542 0.12331 0.0
C2041 C 0.94259 0.87366 0.07999 0.0
C2042 C 0.96274 0.86886 0.09688 0.0
C2043 C 0.98897 0.8798 0.13636 0.0
C2044 C 0.99509 0.89581 0.15819 0.0
C2045 C 0.9691 0.88456 0.11878 0.0
C2046 C 0.98117 0.91667 0.16194 0.0
C2047 C 0.96144 0.9214 0.14476 0.0
H2048 H 0.67562 0.67806 0.85861 0.0
H2049 H 0.60981 0.69168 0.81354 0.0
H2050 H 0.60104 0.72578 0.84464 0.0
H2051 H 0.61208 0.75124 0.88551 0.0
H2052 H 0.67876 0.73715 0.92898 0.0
H2053 H 0.68739 0.70402 0.89727 0.0
C2054 C 0.65936 0.68853 0.85544 0.0
C2055 C 0.64313 0.68206 0.83414 0.0
C2056 C 0.6547 0.70814 0.87306 0.0
C2057 C 0.62232 0.69597 0.83017 0.0
C2058 C 0.61739 0.71553 0.84787 0.0
C2059 C 0.62849 0.7409 0.888 0.0
C2060 C 0.64479 0.7468 0.90963 0.0
C2061 C 0.63339 0.72167 0.86958 0.0
C2062 C 0.66607 0.73333 0.91235 0.0
C2063 C 0.67096 0.71423 0.89433 0.0
H2064 H 0.60691 0.42391 0.107 0.0
H2065 H 0.58465 0.36173 0.0599 0.0
H2066 H 0.55115 0.35531 0.09264 0.0
H2067 H 0.52894 0.36701 0.13579 0.0
H2068 H 0.55177 0.42989 0.18157 0.0
H2069 H 0.58423 0.43639 0.14821 0.0
C2070 C 0.59468 0.40899 0.10377 0.0
C2071 C 0.59843 0.39315 0.08124 0.0
C2072 C 0.57556 0.40552 0.12254 0.0
C2073 C 0.58234 0.37399 0.0773 0.0
C2074 C 0.56316 0.37038 0.09599 0.0
C2075 C 0.54087 0.38227 0.13827 0.0
C2076 C 0.53799 0.3978 0.16143 0.0
C2077 C 0.55967 0.38597 0.11885 0.0
C2078 C 0.55377 0.41739 0.16434 0.0
C2079 C 0.5723 0.42121 0.14517 0.0
H2080 H 0.85278 0.35113 0.35473 0.0
H2081 H 0.91855 0.3378 0.30947 0.0
H2082 H 0.9271 0.30321 0.33997 0.0
H2083 H 0.91583 0.27727 0.38041 0.0
H2084 H 0.84913 0.29124 0.42389 0.0
H2085 H 0.84079 0.3248 0.39278 0.0
C2086 C 0.86899 0.34064 0.35137 0.0
C2087 C 0.88526 0.34731 0.33021 0.0
C2088 C 0.8735 0.32077 0.3686 0.0
C2089 C 0.906 0.33334 0.326 0.0
C2090 C 0.9108 0.31351 0.34336 0.0
C2091 C 0.89947 0.28767 0.38301 0.0
C2092 C 0.88307 0.28159 0.40448 0.0
C2093 C 0.89474 0.30717 0.36493 0.0
C2094 C 0.86187 0.29517 0.40737 0.0
C2095 C 0.85716 0.31453 0.3897 0.0
H2096 H 0.93136 0.60054 0.60544 0.0
H2097 H 0.94179 0.66995 0.56738 0.0
H2098 H 0.97601 0.67753 0.59888 0.0
H2099 H 1.00244 0.66432 0.63825 0.0
H2100 H 0.99125 0.59414 0.6745 0.0
H2101 H 0.95815 0.58684 0.64232 0.0
C2102 C 0.94113 0.61736 0.60385 0.0
C2103 C 0.93375 0.63485 0.58439 0.0
C2104 C 0.96079 0.62136 0.62167 0.0
C2105 C 0.94681 0.65638 0.58252 0.0
C2106 C 0.96643 0.66064 0.60047 0.0
C2107 C 0.99275 0.64744 0.63906 0.0
C2108 C 0.99952 0.62976 0.65882 0.0
C2109 C 0.97348 0.6433 0.62035 0.0
C2110 C 0.98683 0.60791 0.65934 0.0
C2111 C 0.96772 0.60377 0.64105 0.0
H2112 H 0.67728 0.3545 0.71155 0.0
H2113 H 0.61392 0.33603 0.75889 0.0
H2114 H 0.60762 0.3007 0.72893 0.0
H2115 H 0.61992 0.27554 0.68844 0.0
H2116 H 0.68368 0.29476 0.64191 0.0
H2117 H 0.69024 0.32898 0.67273 0.0
C2118 C 0.66212 0.3427 0.71545 0.0
C2119 C 0.64589 0.34807 0.73719 0.0
C2120 C 0.65877 0.32244 0.69833 0.0
C2121 C 0.62647 0.33248 0.74204 0.0
C2122 C 0.62292 0.31225 0.72495 0.0
C2123 C 0.63524 0.28723 0.68502 0.0
C2124 C 0.65131 0.28241 0.66278 0.0
C2125 C 0.63887 0.30715 0.70284 0.0
C2126 C 0.67121 0.29768 0.65899 0.0
C2127 C 0.67489 0.31742 0.67651 0.0
H2128 H 0.92593 0.42733 0.96209 0.0
H2129 H 0.94031 0.36256 1.00858 0.0
H2130 H 0.97502 0.35404 0.97826 0.0
H2131 H 1.00084 0.36498 0.93767 0.0
H2132 H 0.98604 0.43061 0.89269 0.0
H2133 H 0.95225 0.43903 0.92361 0.0
C2134 C 0.93669 0.41136 0.96572 0.0
C2135 C 0.93027 0.39535 0.98723 0.0
C2136 C 0.95667 0.40684 0.94853 0.0
C2137 C 0.94458 0.37491 0.9918 0.0
C2138 C 0.96448 0.37012 0.97453 0.0
C2139 C 0.99021 0.38111 0.93467 0.0
C2140 C 0.99612 0.39718 0.91285 0.0
C2141 C 0.9706 0.38589 0.95264 0.0
C2142 C 0.98224 0.41811 0.90948 0.0
C2143 C 0.96275 0.42287 0.92705 0.0
H2144 H 0.90843 0.75509 0.19019 0.0
H2145 H 0.84369 0.73613 0.14532 0.0
H2146 H 0.83756 0.70198 0.17627 0.0
H2147 H 0.85108 0.67648 0.21461 0.0
H2148 H 0.91518 0.69465 0.26079 0.0
H2149 H 0.92123 0.72993 0.23065 0.0
C2150 C 0.89298 0.74348 0.18721 0.0
C2151 C 0.8765 0.74835 0.16539 0.0
C2152 C 0.88956 0.72361 0.20517 0.0
C2153 C 0.85646 0.73318 0.1621 0.0
C2154 C 0.85302 0.71347 0.17969 0.0
C2155 C 0.86637 0.68818 0.21823 0.0
C2156 C 0.88288 0.68271 0.23965 0.0
C2157 C 0.86951 0.70842 0.20109 0.0
C2158 C 0.90242 0.69823 0.24417 0.0
C2159 C 0.90582 0.71844 0.22697 0.0
H2160 H 0.60404 0.60122 0.46558 0.0
H2161 H 0.58683 0.66503 0.51263 0.0
H2162 H 0.55157 0.67199 0.48268 0.0
H2163 H 0.52609 0.66012 0.44227 0.0
H2164 H 0.54396 0.59585 0.39606 0.0
H2165 H 0.57816 0.58868 0.42682 0.0
C2166 C 0.59253 0.61662 0.4694 0.0
C2167 C 0.59824 0.63277 0.49108 0.0
C2168 C 0.57229 0.62034 0.45228 0.0
C2169 C 0.58302 0.65252 0.49585 0.0
C2170 C 0.56283 0.65645 0.47875 0.0
C2171 C 0.53749 0.64457 0.43891 0.0
C2172 C 0.53228 0.62853 0.41678 0.0
C2173 C 0.55738 0.64056 0.45672 0.0
C2174 C 0.54717 0.60832 0.41306 0.0
C2175 C 0.56691 0.60428 0.43055 0.0
H2176 H 0.41386 0.27697 0.18911 0.0
H2177 H 0.3503 0.2963 0.14222 0.0
H2178 H 0.34362 0.33057 0.17298 0.0
H2179 H 0.35632 0.35595 0.21209 0.0
H2180 H 0.41932 0.3371 0.25995 0.0
H2181 H 0.42593 0.302 0.22976 0.0
C2182 C 0.39857 0.2887 0.18562 0.0
C2183 C 0.38257 0.2839 0.16332 0.0
C2184 C 0.39484 0.3086 0.20343 0.0
C2185 C 0.36271 0.29922 0.15938 0.0
C2186 C 0.35896 0.31898 0.17686 0.0
C2187 C 0.37148 0.34413 0.21601 0.0
C2188 C 0.3875 0.34931 0.23801 0.0
C2189 C 0.37496 0.32394 0.1988 0.0
C2190 C 0.40693 0.3337 0.24291 0.0
C2191 C 0.41064 0.31359 0.22569 0.0
H2192 H 0.50287 0.6638 0.93997 0.0
H2193 H 0.48497 0.59802 0.89678 0.0
H2194 H 0.45099 0.59182 0.92805 0.0
H2195 H 0.4254 0.60546 0.96628 0.0
H2196 H 0.44253 0.67061 1.0108 0.0
H2197 H 0.47755 0.67687 0.98019 0.0
C2198 C 0.49152 0.64812 0.93741 0.0
C2199 C 0.49665 0.63135 0.91598 0.0
C2200 C 0.47174 0.64466 0.95554 0.0
C2201 C 0.48182 0.61102 0.91325 0.0
C2202 C 0.46221 0.60754 0.93101 0.0
C2203 C 0.43681 0.62104 0.96942 0.0
C2204 C 0.43116 0.63774 0.99055 0.0
C2205 C 0.45691 0.62429 0.95205 0.0
C2206 C 0.44628 0.65767 0.99444 0.0
C2207 C 0.46634 0.66118 0.97698 0.0
H2208 H 0.11394 0.74618 0.68257 0.0
H2209 H 0.16555 0.71457 0.62594 0.0
H2210 H 0.17407 0.68292 0.65959 0.0
H2211 H 0.16735 0.6642 0.70465 0.0
H2212 H 0.11576 0.69389 0.76242 0.0
H2213 H 0.1065 0.72619 0.72879 0.0
C2214 C 0.12706 0.73236 0.67776 0.0
C2215 C 0.13901 0.73267 0.65168 0.0
C2216 C 0.13178 0.71386 0.6973 0.0
C2217 C 0.1559 0.71459 0.64564 0.0
C2218 C 0.16085 0.69651 0.66492 0.0
C2219 C 0.15406 0.67774 0.71 0.0
C2220 C 0.14227 0.67671 0.73599 0.0
C2221 C 0.14892 0.69596 0.69071 0.0
C2222 C 0.12497 0.69426 0.74246 0.0
C2223 C 0.11978 0.71274 0.72327 0.0
H2224 H 0.02758 0.36532 0.43447 0.0
H2225 H 0.04202 0.43325 0.39421 0.0
H2226 H 0.0756 0.44025 0.42585 0.0
H2227 H 0.10179 0.42687 0.46372 0.0
H2228 H 0.08812 0.35954 0.50527 0.0
H2229 H 0.05358 0.35236 0.47419 0.0
C2230 C 0.03809 0.38164 0.43261 0.0
C2231 C 0.03205 0.39878 0.41191 0.0
C2232 C 0.05766 0.38558 0.45097 0.0
C2233 C 0.04583 0.41992 0.4101 0.0
C2234 C 0.06524 0.42387 0.42809 0.0
C2235 C 0.09123 0.41061 0.46612 0.0
C2236 C 0.09773 0.39361 0.48658 0.0
C2237 C 0.07139 0.40681 0.44845 0.0
C2238 C 0.08372 0.37276 0.48946 0.0
C2239 C 0.06392 0.36872 0.47172 0.0
H2240 H 0.41269 0.75344 0.38636 0.0
H2241 H 0.34265 0.74245 0.42337 0.0
H2242 H 0.33548 0.70869 0.39217 0.0
H2243 H 0.34929 0.68121 0.356 0.0
H2244 H 0.41848 0.69151 0.31709 0.0
H2245 H 0.42592 0.72639 0.34756 0.0
C2246 C 0.39585 0.74367 0.38753 0.0
C2247 C 0.37818 0.75069 0.40724 0.0
C2248 C 0.39178 0.724 0.36938 0.0
C2249 C 0.35641 0.73786 0.40823 0.0
C2250 C 0.35234 0.71836 0.3905 0.0
C2251 C 0.36602 0.6911 0.35401 0.0
C2252 C 0.38352 0.68345 0.33465 0.0
C2253 C 0.36992 0.71117 0.37121 0.0
C2254 C 0.40493 0.6967 0.3322 0.0
C2255 C 0.4091 0.71671 0.34956 0.0
H2256 H 0.0994 0.5986 0.10921 0.0
H2257 H 0.08643 0.66312 0.06168 0.0
H2258 H 0.05174 0.67256 0.09177 0.0
H2259 H 0.02571 0.66255 0.13269 0.0
H2260 H 0.03928 0.59698 0.17834 0.0
H2261 H 0.07288 0.58769 0.14754 0.0
C2262 C 0.08897 0.61472 0.10525 0.0
C2263 C 0.09581 0.63041 0.0836 0.0
C2264 C 0.06904 0.61975 0.12227 0.0
C2265 C 0.08185 0.65102 0.0786 0.0
C2266 C 0.06197 0.65634 0.09574 0.0
C2267 C 0.03602 0.64623 0.13582 0.0
C2268 C 0.02984 0.63044 0.15782 0.0
C2269 C 0.05552 0.64092 0.11787 0.0
C2270 C 0.04331 0.60927 0.16141 0.0
C2271 C 0.06268 0.60401 0.1439 0.0
H2272 H 0.17499 0.35129 0.86152 0.0
H2273 H 0.11204 0.33214 0.81376 0.0
H2274 H 0.1056 0.29715 0.84432 0.0
H2275 H 0.11792 0.27233 0.8854 0.0
H2276 H 0.18157 0.29239 0.93173 0.0
H2277 H 0.18785 0.3264 0.90064 0.0
C2278 C 0.15984 0.33946 0.85763 0.0
C2279 C 0.14382 0.34455 0.83557 0.0
C2280 C 0.15649 0.3194 0.87502 0.0
C2281 C 0.12445 0.32885 0.83081 0.0
C2282 C 0.12084 0.30881 0.84826 0.0
C2283 C 0.13315 0.28416 0.88869 0.0
C2284 C 0.14932 0.27957 0.91096 0.0
C2285 C 0.13669 0.30397 0.8706 0.0
C2286 C 0.16906 0.29507 0.91463 0.0
C2287 C 0.17258 0.31471 0.89695 0.0
H2288 H 0.50232 0.36482 0.63027 0.0
H2289 H 0.4854 0.42983 0.67552 0.0
H2290 H 0.45175 0.43757 0.6441 0.0
H2291 H 0.426 0.42528 0.60511 0.0
H2292 H 0.44247 0.36083 0.55887 0.0
H2293 H 0.47721 0.35333 0.58943 0.0
C2294 C 0.49126 0.38067 0.63325 0.0
C2295 C 0.49652 0.39674 0.65531 0.0
C2296 C 0.47172 0.38503 0.61504 0.0
C2297 C 0.48209 0.41733 0.65858 0.0
C2298 C 0.46268 0.4217 0.64071 0.0
C2299 C 0.43726 0.40963 0.60159 0.0
C2300 C 0.43144 0.39341 0.58004 0.0
C2301 C 0.45722 0.40561 0.61905 0.0
C2302 C 0.44635 0.37338 0.5756 0.0
C2303 C 0.46624 0.36914 0.59304 0.0
H2304 H 0.08963 0.04872 0.30597 0.0
H2305 H 0.15421 0.05287 0.25643 0.0
H2306 H 0.15738 1.0089 0.25624 0.0
H2307 H 0.1415 0.96934 0.26998 0.0
H2308 H 0.07681 0.96513 0.31964 0.0
H2309 H 0.07418 1.00903 0.32056 0.0
C2310 C 0.10421 0.03988 0.2949 0.0
C2311 C 0.12149 0.05381 0.28086 0.0
C2312 C 0.10605 0.01466 0.2953 0.0
C2313 C 0.14066 0.04239 0.26717 0.0
C2314 C 0.14249 0.0173 0.26716 0.0
C2315 C 0.12692 0.978 0.28118 0.0
C2316 C 0.10931 0.96395 0.29467 0.0
C2317 C 0.12532 1.00324 0.28123 0.0
C2318 C 0.09058 0.97552 0.30911 0.0
C2319 C 0.08899 1.00062 0.3095 0.0
H2320 H 0.22849 0.85073 0.57872 0.0
H2321 H 0.21407 0.88773 0.50133 0.0
H2322 H 0.25745 0.8961 0.49603 0.0
H2323 H 0.29988 0.88902 0.51164 0.0
H2324 H 0.31259 0.85001 0.58827 0.0
H2325 H 0.2693 0.84658 0.59595 0.0
C2326 C 0.2347 0.86091 0.56079 0.0
C2327 C 0.21812 0.86841 0.54029 0.0
C2328 C 0.2594 0.86518 0.55781 0.0
C2329 C 0.22648 0.88177 0.51737 0.0
C2330 C 0.25128 0.8864 0.51432 0.0
C2331 C 0.2931 0.88016 0.53024 0.0
C2332 C 0.30941 0.86968 0.54942 0.0
C2333 C 0.26799 0.87767 0.53412 0.0
C2334 C 0.30041 0.85808 0.57325 0.0
C2335 C 0.27568 0.85608 0.57759 0.0
H2336 H 0.44638 0.97621 0.79714 0.0
H2337 H 0.37311 0.97043 0.76853 0.0
H2338 H 0.36953 0.01435 0.76764 0.0
H2339 H 0.38751 0.05458 0.77514 0.0
H2340 H 0.45985 0.05971 0.80741 0.0
H2341 H 0.46343 0.01601 0.80717 0.0
C2342 C 0.42973 0.98461 0.79041 0.0
C2343 C 0.41018 0.97019 0.78229 0.0
C2344 C 0.42757 1.00979 0.79098 0.0
C2345 C 0.38848 0.98122 0.77446 0.0
C2346 C 0.38641 1.00632 0.7741 0.0
C2347 C 0.40396 0.04608 0.78232 0.0
C2348 C 0.42343 0.0604 0.79114 0.0
C2349 C 0.40583 0.02081 0.78241 0.0
C2350 C 0.4446 0.04914 0.8005 0.0
C2351 C 0.44672 0.02413 0.80025 0.0
H2352 H 0.22862 0.19136 1.0173 0.0
H2353 H 0.22227 0.12873 0.06962 0.0
H2354 H 0.26613 0.12379 0.06953 0.0
H2355 H 0.30632 0.13737 0.05442 0.0
H2356 H 0.31272 0.20007 1.00197 0.0
H2357 H 0.26891 0.20464 1.00167 0.0
C2358 C 0.23694 0.17683 1.02893 0.0
C2359 C 0.22234 0.16057 0.04375 0.0
C2360 C 0.26215 0.17392 1.02834 0.0
C2361 C 0.23319 0.14147 0.05818 0.0
C2362 C 0.25825 0.13863 0.05804 0.0
C2363 C 0.29815 0.15194 0.04276 0.0
C2364 C 0.31286 0.1684 1.02827 0.0
C2365 C 0.27292 0.15467 0.04306 0.0
C2366 C 0.30187 0.18714 1.01326 0.0
C2367 C 0.2768 0.18985 1.01322 0.0
H2368 H 0.88906 0.05589 0.79577 0.0
H2369 H 0.95971 0.05921 0.75862 0.0
H2370 H 0.9628 0.01539 0.76049 0.0
H2371 H 0.9458 0.97606 0.77379 0.0
H2372 H 0.87477 0.97269 0.80962 0.0
H2373 H 0.87161 0.01656 0.80789 0.0
C2374 C 0.90509 0.04702 0.78798 0.0
C2375 C 0.9242 0.06083 0.77725 0.0
C2376 C 0.90682 0.02181 0.78938 0.0
C2377 C 0.94474 0.04903 0.76697 0.0
C2378 C 0.94659 0.02396 0.76822 0.0
C2379 C 0.92979 0.98501 0.78157 0.0
C2380 C 0.91068 0.97126 0.79232 0.0
C2381 C 0.92789 1.01019 0.77974 0.0
C2382 C 0.88976 0.98295 0.80155 0.0
C2383 C 0.88792 1.00801 0.80041 0.0
H2384 H 0.72878 0.19811 0.54759 0.0
H2385 H 0.72076 0.12798 0.51071 0.0
H2386 H 0.76453 0.12269 0.51036 0.0
H2387 H 0.8053 0.13806 0.52083 0.0
H2388 H 0.81306 0.20735 0.56025 0.0
H2389 H 0.7694 0.21275 0.55982 0.0
C2390 C 0.73669 0.18184 0.53911 0.0
C2391 C 0.7216 0.16365 0.52857 0.0
C2392 C 0.76187 0.17863 0.53988 0.0
C2393 C 0.73201 0.14234 0.51852 0.0
C2394 C 0.75705 0.13928 0.51849 0.0
C2395 C 0.79742 0.15425 0.52955 0.0
C2396 C 0.81251 0.17231 0.54048 0.0
C2397 C 0.77219 0.15724 0.52926 0.0
C2398 C 0.80194 0.19315 0.55173 0.0
C2399 C 0.77693 0.19632 0.55134 0.0
H2400 H 0.59374 0.05234 0.26238 0.0
H2401 H 0.6437 0.05885 0.33082 0.0
H2402 H 0.64667 0.01488 0.33403 0.0
H2403 H 0.63506 0.97466 0.31707 0.0
H2404 H 0.58439 0.96815 0.24913 0.0
H2405 H 0.58202 1.012 0.24548 0.0
C2406 C 0.60511 0.04401 0.27808 0.0
C2407 C 0.61828 0.05858 0.2966 0.0
C2408 C 0.60682 0.01879 0.27958 0.0
C2409 C 0.63325 0.04783 0.31661 0.0
C2410 C 0.63502 0.02276 0.31831 0.0
C2411 C 0.62359 0.98283 0.30138 0.0
C2412 C 0.60991 0.96817 0.28335 0.0
C2413 C 0.62195 1.00805 0.29984 0.0
C2414 C 0.59505 0.97905 0.26324 0.0
C2415 C 0.59364 1.00411 0.26122 0.0
H2416 H 0.72057 0.89114 1.02588 0.0
H2417 H 0.71471 0.82151 0.06487 0.0
H2418 H 0.75849 0.81711 0.06389 0.0
H2419 H 0.79854 0.83261 0.05088 0.0
H2420 H 0.80461 0.90283 1.01376 0.0
H2421 H 0.76075 0.90735 1.01462 0.0
C2422 C 0.7289 0.87509 1.03438 0.0
C2423 C 0.71436 0.85662 0.04533 0.0
C2424 C 0.75413 0.87265 1.03364 0.0
C2425 C 0.72545 0.83599 0.05635 0.0
C2426 C 0.7505 0.8334 0.05563 0.0
C2427 C 0.79018 0.84875 0.04266 0.0
C2428 C 0.80469 0.86721 1.03175 0.0
C2429 C 0.765 0.85145 0.04399 0.0
C2430 C 0.79376 0.88832 1.02196 0.0
C2431 C 0.7687 0.89093 1.02257 0.0
H2432 H 0.58046 0.55179 0.79857 0.0
H2433 H 0.65199 0.55977 0.76525 0.0
H2434 H 0.65692 0.51608 0.76403 0.0
H2435 H 0.64062 0.47539 0.77225 0.0
H2436 H 0.56983 0.46766 0.80819 0.0
H2437 H 0.56501 0.51129 0.80908 0.0
C2438 C 0.597 0.5439 0.79075 0.0
C2439 C 0.61569 0.55894 0.78144 0.0
C2440 C 0.59993 0.51877 0.79096 0.0
C2441 C 0.63729 0.54856 0.77219 0.0
C2442 C 0.64013 0.52357 0.77161 0.0
C2443 C 0.62423 0.48329 0.78048 0.0
C2444 C 0.60555 0.46827 0.78997 0.0
C2445 C 0.62158 0.50847 0.781 0.0
C2446 C 0.58447 0.47878 0.80071 0.0
C2447 C 0.58164 0.50375 0.8011 0.0
H2448 H 0.80116 0.33009 1.0206 0.0
H2449 H 0.80648 0.40216 0.05284 0.0
H2450 H 0.76271 0.40647 0.05088 0.0
H2451 H 0.72283 0.38965 0.03999 0.0
H2452 H 0.71745 0.31799 1.00618 0.0
H2453 H 0.76126 0.3138 1.008 0.0
C2454 C 0.79266 0.34661 1.02752 0.0
C2455 C 0.80699 0.36567 0.03738 0.0
C2456 C 0.76749 0.34916 1.02553 0.0
C2457 C 0.79584 0.3872 0.04548 0.0
C2458 C 0.77081 0.38969 0.04421 0.0
C2459 C 0.73125 0.37319 1.03281 0.0
C2460 C 0.71685 0.35411 1.02309 0.0
C2461 C 0.75645 0.37083 1.03415 0.0
C2462 C 0.72808 0.33296 1.01371 0.0
C2463 C 0.75314 0.33048 1.01495 0.0
H2464 H 0.88905 0.55473 0.26817 0.0
H2465 H 0.95209 0.56187 0.32019 0.0
H2466 H 0.95652 0.51814 0.32157 0.0
H2467 H 0.94322 0.47777 0.30666 0.0
H2468 H 0.8803 0.47069 0.25471 0.0
H2469 H 0.87515 0.51442 0.2543 0.0
C2470 C 0.90364 0.54672 0.28 0.0
C2471 C 0.92028 0.56156 0.29399 0.0
C2472 C 0.90624 0.52156 0.2804 0.0
C2473 C 0.93907 0.55086 0.30923 0.0
C2474 C 0.94168 0.52585 0.30991 0.0
C2475 C 0.92852 0.4859 0.2951 0.0
C2476 C 0.91221 0.47116 0.28056 0.0
C2477 C 0.92559 0.51104 0.29525 0.0
C2478 C 0.89297 0.48173 0.2661 0.0
C2479 C 0.89006 0.50672 0.26587 0.0
H2480 H 0.7256 0.63648 0.5288 0.0
H2481 H 0.71859 0.70847 0.56124 0.0
H2482 H 0.76228 0.71337 0.56005 0.0
H2483 H 0.80258 0.69767 0.54858 0.0
H2484 H 0.80997 0.62514 0.51835 0.0
H2485 H 0.76616 0.62012 0.51918 0.0
C2486 C 0.73366 0.65319 0.53571 0.0
C2487 C 0.7188 0.67215 0.54486 0.0
C2488 C 0.75888 0.65592 0.53489 0.0
C2489 C 0.72956 0.69359 0.55408 0.0
C2490 C 0.75457 0.69647 0.55323 0.0
C2491 C 0.79454 0.68087 0.54188 0.0
C2492 C 0.80944 0.66193 0.53285 0.0
C2493 C 0.76939 0.6779 0.54332 0.0
C2494 C 0.79886 0.64004 0.52503 0.0
C2495 C 0.77382 0.63714 0.52566 0.0
H2496 H 0.44869 0.55205 0.30287 0.0
H2497 H 0.37589 0.55839 0.27277 0.0
H2498 H 0.37163 0.51455 0.27318 0.0
H2499 H 0.38877 0.4743 0.28221 0.0
H2500 H 0.46097 0.46828 0.31465 0.0
H2501 H 0.4651 0.51199 0.314 0.0
C2502 C 0.43199 0.54377 0.29612 0.0
C2503 C 0.41276 0.55836 0.28722 0.0
C2504 C 0.42945 0.51861 0.29735 0.0
C2505 C 0.39101 0.54749 0.27933 0.0
C2506 C 0.38854 0.52244 0.27973 0.0
C2507 C 0.40534 0.48258 0.28933 0.0
C2508 C 0.42459 0.46799 0.2983 0.0
C2509 C 0.40762 0.5078 0.28881 0.0
C2510 C 0.44586 0.47903 0.30766 0.0
C2511 C 0.4483 0.50405 0.30711 0.0
H2512 H 0.30489 0.63821 1.02718 0.0
H2513 H 0.3096 0.70406 0.0745 0.0
H2514 H 0.26565 0.70695 0.0755 0.0
H2515 H 0.22578 0.69156 0.06125 0.0
H2516 H 0.22119 0.62579 1.01409 0.0
H2517 H 0.26513 0.62215 1.01431 0.0
C2518 C 0.29632 0.65308 0.03793 0.0
C2519 C 0.31053 0.67096 0.05066 0.0
C2520 C 0.27104 0.65478 0.03809 0.0
C2521 C 0.29909 0.69007 0.06455 0.0
C2522 C 0.27396 0.6918 0.06498 0.0
C2523 C 0.23449 0.67654 0.05089 0.0
C2524 C 0.22039 0.659 0.03749 0.0
C2525 C 0.25975 0.67448 0.05144 0.0
C2526 C 0.23172 0.63939 1.0246 0.0
C2527 C 0.25683 0.63735 1.02473 0.0
H2528 H 0.13975 0.47274 0.80599 0.0
H2529 H 0.07871 0.46589 0.7508 0.0
H2530 H 0.0746 0.50965 0.7491 0.0
H2531 H 0.08753 0.55 0.76458 0.0
H2532 H 0.14852 0.55689 0.81957 0.0
H2533 H 0.15339 0.51309 0.82038 0.0
C2534 C 0.12568 0.48082 0.79339 0.0
C2535 C 0.10949 0.46603 0.77859 0.0
C2536 C 0.12325 0.50603 0.7928 0.0
C2537 C 0.09137 0.47684 0.7624 0.0
C2538 C 0.08894 0.50187 0.76153 0.0
C2539 C 0.10175 0.54181 0.77689 0.0
C2540 C 0.11754 0.55652 0.79224 0.0
C2541 C 0.10455 0.51664 0.77695 0.0
C2542 C 0.13619 0.54587 0.80764 0.0
C2543 C 0.13896 0.52085 0.80808 0.0
H2544 H 0.22622 0.32843 0.52586 0.0
H2545 H 0.21923 0.39981 0.55973 0.0
H2546 H 0.26302 0.40476 0.55878 0.0
H2547 H 0.30333 0.38894 0.54746 0.0
H2548 H 0.31016 0.31803 0.51186 0.0
H2549 H 0.26648 0.31297 0.51355 0.0
C2550 C 0.23436 0.3449 0.53342 0.0
C2551 C 0.21959 0.36358 0.54341 0.0
C2552 C 0.2595 0.34788 0.53191 0.0
C2553 C 0.23026 0.38511 0.55232 0.0
C2554 C 0.25528 0.38799 0.55158 0.0
C2555 C 0.29525 0.37243 0.53995 0.0
C2556 C 0.31004 0.35384 0.52968 0.0
C2557 C 0.27008 0.36957 0.54118 0.0
C2558 C 0.29923 0.33263 0.51984 0.0
C2559 C 0.27424 0.32966 0.52098 0.0
H2560 H 0.17128 0.15636 0.12329 0.0
H2561 H 0.09605 0.1484 0.10436 0.0
H2562 H 0.08684 0.14486 0.15463 0.0
H2563 H 0.10122 0.14017 0.20438 0.0
H2564 H 0.17698 0.1495 0.22129 0.0
H2565 H 0.18476 0.15653 0.17209 0.0
C2566 C 0.15278 0.15444 0.13024 0.0
C2567 C 0.13436 0.15296 0.11013 0.0
C2568 C 0.14771 0.15239 0.15909 0.0
C2569 C 0.11053 0.15005 0.11942 0.0
C2570 C 0.10531 0.14782 0.14822 0.0
C2571 C 0.11929 0.14429 0.19735 0.0
C2572 C 0.1385 0.14389 0.21685 0.0
C2573 C 0.12385 0.14846 0.16838 0.0
C2574 C 0.16183 0.1492 0.20702 0.0
C2575 C 0.16638 0.15329 0.17871 0.0
H2576 H 0.10228 0.88594 0.45855 0.0
H2577 H 0.16244 0.83709 0.45823 0.0
H2578 H 0.16211 0.8364 0.40697 0.0
H2579 H 0.14735 0.85329 0.36215 0.0
H2580 H 0.08483 0.89907 0.36221 0.0
H2581 H 0.08309 0.89717 0.41344 0.0
C2582 C 0.11488 0.87469 0.44719 0.0
C2583 C 0.13236 0.86156 0.46209 0.0
C2584 C 0.11421 0.87396 0.41765 0.0
C2585 C 0.14867 0.84711 0.4472 0.0
C2586 C 0.14859 0.84688 0.41788 0.0
C2587 C 0.13296 0.86226 0.37341 0.0
C2588 C 0.11616 0.87621 0.35849 0.0
C2589 C 0.13182 0.86068 0.40286 0.0
C2590 C 0.09772 0.88794 0.37325 0.0
C2591 C 0.09688 0.88703 0.40256 0.0
H2592 H 0.39673 0.85241 0.70813 0.0
H2593 H 0.42138 0.92571 0.71073 0.0
H2594 H 0.42154 0.92742 0.65961 0.0
H2595 H 0.41045 0.9096 0.61432 0.0
H2596 H 0.38681 0.83597 0.6107 0.0
H2597 H 0.39085 0.83263 0.66168 0.0
C2598 C 0.40291 0.86841 0.6974 0.0
C2599 C 0.40946 0.88881 0.71316 0.0
C2600 C 0.40284 0.86929 0.66775 0.0
C2601 C 0.41677 0.90967 0.69903 0.0
C2602 C 0.41663 0.91073 0.66978 0.0
C2603 C 0.40656 0.89269 0.62463 0.0
C2604 C 0.39818 0.87311 0.60867 0.0
C2605 C 0.40907 0.89089 0.65393 0.0
C2606 C 0.39344 0.85127 0.62239 0.0
C2607 C 0.39558 0.84942 0.65163 0.0
H2608 H 0.40773 0.17806 0.86578 0.0
H2609 H 0.41852 0.10137 0.8643 0.0
H2610 H 0.41795 0.10011 0.91531 0.0
H2611 H 0.41026 0.11981 0.96007 0.0
H2612 H 0.39867 0.19627 0.96331 0.0
H2613 H 0.40417 0.19878 0.91234 0.0
C2614 C 0.41064 0.16126 0.87675 0.0
C2615 C 0.41345 0.13982 0.86126 0.0
C2616 C 0.4099 0.16059 0.90647 0.0
C2617 C 0.41661 0.1181 0.87574 0.0
C2618 C 0.41614 0.11734 0.90494 0.0
C2619 C 0.4092 0.13711 0.94973 0.0
C2620 C 0.40382 0.15777 0.96558 0.0
C2621 C 0.41214 0.13832 0.92049 0.0
C2622 C 0.4029 0.18007 0.95175 0.0
C2623 C 0.40586 0.18146 0.9225 0.0
H2624 H 0.89305 0.85221 0.86448 0.0
H2625 H 0.91643 0.92599 0.86372 0.0
H2626 H 0.91605 0.92697 0.91483 0.0
H2627 H 0.90539 0.90824 0.95961 0.0
H2628 H 0.88267 0.8343 0.96173 0.0
H2629 H 0.88698 0.83172 0.91064 0.0
C2630 C 0.89876 0.8682 0.87562 0.0
C2631 C 0.90517 0.88893 0.86034 0.0
C2632 C 0.89841 0.86865 0.90532 0.0
C2633 C 0.9119 0.90972 0.87502 0.0
C2634 C 0.91149 0.91034 0.90427 0.0
C2635 C 0.90168 0.89144 0.94895 0.0
C2636 C 0.89351 0.87155 0.96453 0.0
C2637 C 0.90423 0.89013 0.91963 0.0
C2638 C 0.8891 0.84985 0.95035 0.0
C2639 C 0.89139 0.84844 0.92105 0.0
H2640 H 0.91056 0.17916 0.70464 0.0
H2641 H 0.91644 0.10195 0.70636 0.0
H2642 H 0.91404 0.10042 0.65549 0.0
H2643 H 0.90638 0.12027 0.61083 0.0
H2644 H 0.90045 0.19737 0.60716 0.0
H2645 H 0.90715 0.19979 0.65796 0.0
C2646 C 0.91207 0.16215 0.69374 0.0
C2647 C 0.91401 0.14067 0.70933 0.0
C2648 C 0.91038 0.16134 0.66404 0.0
C2649 C 0.91528 0.11871 0.69488 0.0
C2650 C 0.91373 0.11779 0.66574 0.0
C2651 C 0.90683 0.13768 0.62102 0.0
C2652 C 0.90271 0.15859 0.60509 0.0
C2653 C 0.91066 0.13889 0.65015 0.0
C2654 C 0.90366 0.18097 0.61877 0.0
C2655 C 0.90735 0.18233 0.64793 0.0
H2656 H 0.66843 0.16526 0.45016 0.0
H2657 H 0.59421 0.15144 0.46981 0.0
H2658 H 0.58475 0.14799 0.41963 0.0
H2659 H 0.59905 0.14431 0.36997 0.0
H2660 H 0.67391 0.15816 0.35219 0.0
H2661 H 0.68152 0.16647 0.40127 0.0
C2662 C 0.65004 0.16221 0.44337 0.0
C2663 C 0.63198 0.15901 0.46358 0.0
C2664 C 0.64491 0.15995 0.41461 0.0
C2665 C 0.60832 0.15449 0.45459 0.0
C2666 C 0.603 0.15228 0.42588 0.0
C2667 C 0.61684 0.14973 0.37679 0.0
C2668 C 0.63593 0.15031 0.35724 0.0
C2669 C 0.62129 0.15435 0.4056 0.0
C2670 C 0.65893 0.15719 0.36665 0.0
C2671 C 0.66336 0.16199 0.39483 0.0
H2672 H 0.62424 0.90865 0.1157 0.0
H2673 H 0.62557 0.83131 0.1127 0.0
H2674 H 0.62094 0.82974 0.1639 0.0
H2675 H 0.62096 0.85103 0.21038 0.0
H2676 H 0.62206 0.92851 0.21116 0.0
H2677 H 0.62133 0.92937 0.16023 0.0
C2678 C 0.62335 0.89138 0.12613 0.0
C2679 C 0.62555 0.87014 0.11033 0.0
C2680 C 0.62131 0.8907 0.1554 0.0
C2681 C 0.62386 0.84795 0.12428 0.0
C2682 C 0.62142 0.84709 0.15362 0.0
C2683 C 0.62059 0.868 0.19927 0.0
C2684 C 0.62158 0.88972 0.21449 0.0
C2685 C 0.62076 0.86839 0.16956 0.0
C2686 C 0.62138 0.91161 0.19989 0.0
C2687 C 0.621 0.91213 0.17075 0.0
H2688 H 0.65604 0.65981 0.71019 0.0
H2689 H 0.58176 0.63778 0.71215 0.0
H2690 H 0.57912 0.64268 0.66113 0.0
H2691 H 0.59978 0.64882 0.61505 0.0
H2692 H 0.67398 0.67127 0.61467 0.0
H2693 H 0.67478 0.67091 0.66573 0.0
C2694 C 0.63912 0.65648 0.69953 0.0
C2695 C 0.61917 0.64828 0.71496 0.0
C2696 C 0.63778 0.65936 0.67031 0.0
C2697 C 0.59735 0.64424 0.70082 0.0
C2698 C 0.5959 0.64687 0.67158 0.0
C2699 C 0.61581 0.65434 0.62628 0.0
C2700 C 0.63675 0.66036 0.61117 0.0
C2701 C 0.61621 0.65386 0.65595 0.0
C2702 C 0.65759 0.66691 0.6259 0.0
C2703 C 0.65812 0.66652 0.6551 0.0
H2704 H 0.6229 0.34892 0.85966 0.0
H2705 H 0.61018 0.42532 0.86071 0.0
H2706 H 0.61007 0.4253 0.91172 0.0
H2707 H 0.61845 0.40482 0.95572 0.0
H2708 H 0.63182 0.3286 0.95659 0.0
H2709 H 0.62639 0.32709 0.90551 0.0
C2710 C 0.61941 0.36534 0.87118 0.0
C2711 C 0.61635 0.38712 0.85647 0.0
C2712 C 0.61975 0.36527 0.90088 0.0
C2713 C 0.61236 0.40837 0.8716 0.0
C2714 C 0.61243 0.4084 0.90078 0.0
C2715 C 0.61971 0.38775 0.94483 0.0
C2716 C 0.62566 0.36687 0.95996 0.0
C2717 C 0.61683 0.38713 0.91561 0.0
C2718 C 0.62708 0.3449 0.94551 0.0
C2719 C 0.6242 0.34411 0.91623 0.0
H2720 H 0.91388 0.40453 0.11065 0.0
H2721 H 0.87633 0.33688 0.11041 0.0
H2722 H 0.87946 0.33478 0.1616 0.0
H2723 H 0.88927 0.35462 0.20705 0.0
H2724 H 0.92934 0.42081 0.20651 0.0
H2725 H 0.92918 0.42099 0.15527 0.0
C2726 C 0.9069 0.38905 0.12178 0.0
C2727 C 0.89489 0.37087 0.10673 0.0
C2728 C 0.90915 0.3878 0.15119 0.0
C2729 C 0.88589 0.35096 0.12144 0.0
C2730 C 0.88751 0.34987 0.15077 0.0
C2731 C 0.89857 0.36865 0.19561 0.0
C2732 C 0.90957 0.38757 0.21052 0.0
C2733 C 0.89863 0.36846 0.16597 0.0
C2734 C 0.92115 0.40588 0.1955 0.0
C2735 C 0.92086 0.40609 0.16618 0.0
H2736 H 0.90055 0.67955 0.36489 0.0
H2737 H 0.92114 0.60492 0.36292 0.0
H2738 H 0.92058 0.60332 0.41396 0.0
H2739 H 0.91021 0.62175 0.45891 0.0
H2740 H 0.88995 0.69639 0.4624 0.0
H2741 H 0.89482 0.69961 0.41142 0.0
C2742 C 0.90565 0.66323 0.37576 0.0
C2743 C 0.91126 0.64244 0.36016 0.0
C2744 C 0.90507 0.66238 0.40544 0.0
C2745 C 0.91718 0.62122 0.37448 0.0
C2746 C 0.91667 0.62024 0.40369 0.0
C2747 C 0.90718 0.63883 0.44859 0.0
C2748 C 0.89953 0.65874 0.46449 0.0
C2749 C 0.91002 0.64049 0.41936 0.0
C2750 C 0.89597 0.68081 0.45075 0.0
C2751 C 0.89859 0.68259 0.42152 0.0
H2752 H 0.37338 0.36769 0.36307 0.0
H2753 H 0.44942 0.38265 0.36273 0.0
H2754 H 0.45117 0.37569 0.41347 0.0
H2755 H 0.42951 0.37052 0.45905 0.0
H2756 H 0.3535 0.35524 0.45779 0.0
H2757 H 0.35331 0.35676 0.40678 0.0
C2758 C 0.39045 0.36896 0.37401 0.0
C2759 C 0.4112 0.37585 0.35918 0.0
C2760 C 0.39127 0.36491 0.40305 0.0
C2761 C 0.4332 0.37726 0.37362 0.0
C2762 C 0.43415 0.37344 0.4027 0.0
C2763 C 0.41318 0.36666 0.44746 0.0
C2764 C 0.39157 0.36247 0.46211 0.0
C2765 C 0.41314 0.36791 0.41783 0.0
C2766 C 0.37038 0.35815 0.44692 0.0
C2767 C 0.37021 0.35924 0.41775 0.0
H2768 H 0.39983 0.67841 0.21337 0.0
H2769 H 0.42114 0.60399 0.21213 0.0
H2770 H 0.42152 0.60428 0.16099 0.0
H2771 H 0.41171 0.62429 0.1167 0.0
H2772 H 0.39053 0.69873 0.11662 0.0
H2773 H 0.39466 0.70011 0.16781 0.0
C2774 C 0.40526 0.66254 0.20181 0.0
C2775 C 0.41084 0.64126 0.21652 0.0
C2776 C 0.40525 0.66281 0.17211 0.0
C2777 C 0.41721 0.62064 0.20129 0.0
C2778 C 0.41724 0.62076 0.17203 0.0
C2779 C 0.4084 0.64096 0.12783 0.0
C2780 C 0.40072 0.66136 0.11279 0.0
C2781 C 0.41071 0.64153 0.15721 0.0
C2782 C 0.3967 0.68284 0.12757 0.0
C2783 C 0.39884 0.68354 0.15692 0.0
H2784 H 0.16166 0.65007 0.86609 0.0
H2785 H 0.08482 0.6399 0.86268 0.0
H2786 H 0.08236 0.64491 0.91367 0.0
H2787 H 0.10303 0.64827 0.96016 0.0
H2788 H 0.17994 0.65803 0.962 0.0
H2789 H 0.18139 0.65736 0.91095 0.0
C2790 C 0.14428 0.64924 0.8764 0.0
C2791 C 0.12347 0.64443 0.8605 0.0
C2792 C 0.14305 0.65206 0.90564 0.0
C2793 C 0.10112 0.64367 0.8743 0.0
C2794 C 0.09974 0.6464 0.90355 0.0
C2795 C 0.11992 0.65089 0.94925 0.0
C2796 C 0.14136 0.65348 0.96478 0.0
C2797 C 0.12068 0.65011 0.91958 0.0
C2798 C 0.16323 0.65629 0.95045 0.0
C2799 C 0.16408 0.65575 0.92126 0.0
H2800 H 0.12613 0.34759 0.70748 0.0
H2801 H 0.11032 0.42336 0.71034 0.0
H2802 H 0.11118 0.42541 0.65935 0.0
H2803 H 0.12067 0.40689 0.61424 0.0
H2804 H 0.13605 0.33112 0.60972 0.0
H2805 H 0.13079 0.32769 0.66062 0.0
C2806 C 0.12216 0.36431 0.6968 0.0
C2807 C 0.11784 0.38528 0.71267 0.0
C2808 C 0.1229 0.36543 0.66712 0.0
C2809 C 0.11333 0.40696 0.69859 0.0
C2810 C 0.114 0.40818 0.66941 0.0
C2811 C 0.12247 0.38951 0.62428 0.0
C2812 C 0.12889 0.36932 0.6081 0.0
C2813 C 0.11941 0.38772 0.65348 0.0
C2814 C 0.13098 0.34693 0.62155 0.0
C2815 C 0.12814 0.34502 0.65076 0.0
loop_
_geom_bond_atom_site_label_1
_geom_bond_atom_site_label_2
_geom_bond_distance
_geom_bond_site_symmetry_2
_ccdc_geom_bond_type
Tb0 C2 2.809 . S
Tb0 O20 2.484 . S
Tb0 O21 2.440 . S
Tb0 O22 2.658 . S
Tb0 O23 2.409 . S
Tb0 O24 2.378 . S
Tb0 O28 2.325 . S
Tb0 O31 2.341 . S
Tb1 C11 2.809 . S
Tb1 O22 2.325 . S
Tb1 O25 2.341 . S
Tb1 O26 2.484 . S
Tb1 O27 2.440 . S
Tb1 O28 2.658 . S
Tb1 O29 2.409 . S
Tb1 O30 2.378 . S
C2 Tb0 2.809 . S
C2 C3 1.514 . S
C2 O20 1.248 . S
C2 O21 1.266 . S
C3 C2 1.514 . S
C3 C4 1.359 . S
C3 C8 1.348 . S
C4 C3 1.359 . S
C4 C5 1.380 . S
C4 H32 0.929 . S
C5 C4 1.380 . S
C5 C6 1.347 . S
C5 H33 0.931 . S
C6 C5 1.347 . S
C6 C7 1.369 . S
C7 C6 1.369 . S
C7 C8 1.408 . S
C7 H34 0.930 . S
C8 C3 1.348 . S
C8 C7 1.408 . S
C8 H35 0.930 . S
C9 O22 1.281 . S
C9 O23 1.254 . S
C10 O24 1.236 . S
C10 O25 1.266 . S
C11 Tb1 2.809 . S
C11 C12 1.514 . S
C11 O26 1.248 . S
C11 O27 1.266 . S
C12 C11 1.514 . S
C12 C13 1.359 . S
C12 C17 1.348 . S
C13 C12 1.359 . S
C13 C14 1.380 . S
C13 H36 0.929 . S
C14 C13 1.380 . S
C14 C15 1.347 . S
C14 H37 0.931 . S
C15 C14 1.347 . S
C15 C16 1.369 . S
C16 C15 1.369 . S
C16 C17 1.408 . S
C16 H38 0.930 1_455 S
C17 C12 1.348 . S
C17 C16 1.408 . S
C17 H39 0.930 . S
C18 O28 1.281 . S
C18 O29 1.254 . S
C19 O30 1.236 . S
C19 O31 1.266 . S
O20 Tb0 2.484 . S
O20 C2 1.248 . S
O21 Tb0 2.440 . S
O21 C2 1.266 . S
O22 Tb0 2.658 . S
O22 Tb1 2.325 . S
O22 C9 1.281 . S
O23 Tb0 2.409 . S
O23 C9 1.254 . S
O24 Tb0 2.378 . S
O24 C10 1.236 . S
O25 Tb1 2.341 . S
O25 C10 1.266 . S
O26 Tb1 2.484 . S
O26 C11 1.248 . S
O27 Tb1 2.440 . S
O27 C11 1.266 . S
O28 Tb0 2.325 . S
O28 Tb1 2.658 . S
O28 C18 1.281 . S
O29 Tb1 2.409 . S
O29 C18 1.254 . S
O30 Tb1 2.378 . S
O30 C19 1.236 . S
O31 Tb0 2.341 . S
O31 C19 1.266 . S
H32 C4 0.929 . S
H33 C5 0.931 . S
H34 C7 0.930 . S
H35 C8 0.930 . S
H36 C13 0.929 . S
H37 C14 0.931 . S
H38 C16 0.930 1_655 S
H39 C17 0.930 . S
Tb40 C42 2.809 . S
Tb40 O60 2.484 . S
Tb40 O61 2.440 . S
Tb40 O62 2.658 . S
Tb40 O63 2.409 . S
Tb40 O64 2.378 . S
Tb40 O68 2.325 . S
Tb40 O71 2.341 . S
Tb41 C51 2.809 . S
Tb41 O62 2.325 . S
Tb41 O65 2.341 . S
Tb41 O66 2.484 . S
Tb41 O67 2.440 . S
Tb41 O68 2.658 . S
Tb41 O69 2.409 . S
Tb41 O70 2.378 . S
C42 Tb40 2.809 . S
C42 C43 1.514 . S
C42 O60 1.248 . S
C42 O61 1.266 . S
C43 C42 1.514 . S
C43 C44 1.359 . S
C43 C48 1.348 . S
C44 C43 1.359 . S
C44 C45 1.380 . S
C44 H72 0.929 . S
C45 C44 1.380 . S
C45 C46 1.347 . S
C45 H73 0.931 . S
C46 C45 1.347 . S
C46 C47 1.369 . S
C47 C46 1.369 . S
C47 C48 1.408 . S
C47 H74 0.930 1_565 S
C48 C43 1.348 . S
C48 C47 1.408 . S
C48 H75 0.930 . S
C49 O62 1.281 . S
C49 O63 1.254 . S
C50 O64 1.236 . S
C50 O65 1.266 . S
C51 Tb41 2.809 . S
C51 C52 1.514 . S
C51 O66 1.248 . S
C51 O67 1.266 . S
C52 C51 1.514 . S
C52 C53 1.359 . S
C52 C57 1.348 . S
C53 C52 1.359 . S
C53 C54 1.380 . S
C53 H76 0.929 . S
C54 C53 1.380 . S
C54 C55 1.347 . S
C54 H77 0.931 . S
C55 C54 1.347 . S
C55 C56 1.369 . S
C56 C55 1.369 . S
C56 C57 1.408 . S
C56 H78 0.930 . S
C57 C52 1.348 . S
C57 C56 1.408 . S
C57 H79 0.930 . S
C58 O68 1.281 . S
C58 O69 1.254 . S
C59 O70 1.236 . S
C59 O71 1.266 . S
O60 Tb40 2.484 . S
O60 C42 1.248 . S
O61 Tb40 2.440 . S
O61 C42 1.266 . S
O62 Tb40 2.658 . S
O62 Tb41 2.325 . S
O62 C49 1.281 . S
O63 Tb40 2.409 . S
O63 C49 1.254 . S
O64 Tb40 2.378 . S
O64 C50 1.236 . S
O65 Tb41 2.341 . S
O65 C50 1.266 . S
O66 Tb41 2.484 . S
O66 C51 1.248 . S
O67 Tb41 2.440 . S
O67 C51 1.266 . S
O68 Tb40 2.325 . S
O68 Tb41 2.658 . S
O68 C58 1.281 . S
O69 Tb41 2.409 . S
O69 C58 1.254 . S
O70 Tb41 2.378 . S
O70 C59 1.236 . S
O71 Tb40 2.341 . S
O71 C59 1.266 . S
H72 C44 0.929 . S
H73 C45 0.931 . S
H74 C47 0.930 1_545 S
H75 C48 0.930 . S
H76 C53 0.929 . S
H77 C54 0.931 . S
H78 C56 0.930 . S
H79 C57 0.930 . S
Tb80 C82 2.809 . S
Tb80 O100 2.484 . S
Tb80 O101 2.440 . S
Tb80 O102 2.658 . S
Tb80 O103 2.409 . S
Tb80 O104 2.378 . S
Tb80 O108 2.325 . S
Tb80 O111 2.341 . S
Tb81 C91 2.809 . S
Tb81 O102 2.325 . S
Tb81 O105 2.341 . S
Tb81 O106 2.484 . S
Tb81 O107 2.440 . S
Tb81 O108 2.658 . S
Tb81 O109 2.409 . S
Tb81 O110 2.378 . S
C82 Tb80 2.809 . S
C82 C83 1.514 . S
C82 O100 1.248 . S
C82 O101 1.266 . S
C83 C82 1.514 . S
C83 C84 1.359 . S
C83 C88 1.348 . S
C84 C83 1.359 . S
C84 C85 1.380 . S
C84 H112 0.929 . S
C85 C84 1.380 . S
C85 C86 1.347 . S
C85 H113 0.931 . S
C86 C85 1.347 . S
C86 C87 1.369 . S
C87 C86 1.369 . S
C87 C88 1.408 . S
C87 H114 0.930 . S
C88 C83 1.348 . S
C88 C87 1.408 . S
C88 H115 0.930 . S
C89 O102 1.281 . S
C89 O103 1.254 . S
C90 O104 1.236 . S
C90 O105 1.266 . S
C91 Tb81 2.809 . S
C91 C92 1.514 . S
C91 O106 1.248 . S
C91 O107 1.266 . S
C92 C91 1.514 . S
C92 C93 1.359 . S
C92 C97 1.348 . S
C93 C92 1.359 . S
C93 C94 1.380 . S
C93 H116 0.929 . S
C94 C93 1.380 . S
C94 C95 1.347 . S
C94 H117 0.931 . S
C95 C94 1.347 . S
C95 C96 1.369 . S
C96 C95 1.369 . S
C96 C97 1.408 . S
C96 H118 0.930 . S
C97 C92 1.348 . S
C97 C96 1.408 . S
C97 H119 0.930 . S
C98 O108 1.281 . S
C98 O109 1.254 . S
C99 O110 1.236 . S
C99 O111 1.266 . S
O100 Tb80 2.484 . S
O100 C82 1.248 . S
O101 Tb80 2.440 . S
O101 C82 1.266 . S
O102 Tb80 2.658 . S
O102 Tb81 2.325 . S
O102 C89 1.281 . S
O103 Tb80 2.409 . S
O103 C89 1.254 . S
O104 Tb80 2.378 . S
O104 C90 1.236 . S
O105 Tb81 2.341 . S
O105 C90 1.266 . S
O106 Tb81 2.484 . S
O106 C91 1.248 . S
O107 Tb81 2.440 . S
O107 C91 1.266 . S
O108 Tb80 2.325 . S
O108 Tb81 2.658 . S
O108 C98 1.281 . S
O109 Tb81 2.409 . S
O109 C98 1.254 . S
O110 Tb81 2.378 . S
O110 C99 1.236 . S
O111 Tb80 2.341 . S
O111 C99 1.266 . S
H112 C84 0.929 . S
H113 C85 0.931 . S
H114 C87 0.930 . S
H115 C88 0.930 . S
H116 C93 0.929 . S
H117 C94 0.931 . S
H118 C96 0.930 . S
H119 C97 0.930 . S
Tb120 C122 2.809 1_554 S
Tb120 O140 2.484 1_554 S
Tb120 O141 2.444 . S
Tb120 O142 2.658 . S
Tb120 O143 2.409 . S
Tb120 O144 2.378 1_554 S
Tb120 O148 2.325 . S
Tb120 O151 2.341 . S
Tb121 C131 2.809 . S
Tb121 O142 2.325 . S
Tb121 O145 2.341 1_554 S
Tb121 O146 2.484 . S
Tb121 O147 2.440 . S
Tb121 O148 2.658 . S
Tb121 O149 2.409 . S
Tb121 O150 2.378 . S
C122 Tb120 2.809 1_556 S
C122 C123 1.514 . S
C122 O140 1.248 . S
C122 O141 1.260 1_556 S
C123 C122 1.514 . S
C123 C124 1.359 . S
C123 C128 1.348 . S
C124 C123 1.359 . S
C124 C125 1.380 . S
C124 H152 0.929 . S
C125 C124 1.380 . S
C125 C126 1.347 . S
C125 H153 0.931 . S
C126 C125 1.347 . S
C126 C127 1.369 . S
C127 C126 1.369 . S
C127 C128 1.408 . S
C127 H154 0.930 1_545 S
C128 C123 1.348 . S
C128 C127 1.408 . S
C128 H155 0.930 . S
C129 O142 1.281 . S
C129 O143 1.254 . S
C130 O144 1.236 . S
C130 O145 1.266 . S
C131 Tb121 2.809 . S
C131 C132 1.514 . S
C131 O146 1.248 . S
C131 O147 1.266 . S
C132 C131 1.514 . S
C132 C133 1.359 . S
C132 C137 1.348 . S
C133 C132 1.359 . S
C133 C134 1.380 . S
C133 H156 0.929 . S
C134 C133 1.380 . S
C134 C135 1.347 . S
C134 H157 0.931 . S
C135 C134 1.347 . S
C135 C136 1.369 . S
C136 C135 1.369 . S
C136 C137 1.408 . S
C136 H158 0.930 . S
C137 C132 1.348 . S
C137 C136 1.408 . S
C137 H159 0.930 . S
C138 O148 1.281 . S
C138 O149 1.254 . S
C139 O150 1.236 . S
C139 O151 1.266 . S
O140 Tb120 2.484 1_556 S
O140 C122 1.248 . S
O141 Tb120 2.444 . S
O141 C122 1.260 1_554 S
O142 Tb120 2.658 . S
O142 Tb121 2.325 . S
O142 C129 1.281 . S
O143 Tb120 2.409 . S
O143 C129 1.254 . S
O144 Tb120 2.378 1_556 S
O144 C130 1.236 . S
O145 Tb121 2.341 1_556 S
O145 C130 1.266 . S
O146 Tb121 2.484 . S
O146 C131 1.248 . S
O147 Tb121 2.440 . S
O147 C131 1.266 . S
O148 Tb120 2.325 . S
O148 Tb121 2.658 . S
O148 C138 1.281 . S
O149 Tb121 2.409 . S
O149 C138 1.254 . S
O150 Tb121 2.378 . S
O150 C139 1.236 . S
O151 Tb120 2.341 . S
O151 C139 1.266 . S
H152 C124 0.929 . S
H153 C125 0.931 . S
H154 C127 0.930 1_565 S
H155 C128 0.930 . S
H156 C133 0.929 . S
H157 C134 0.931 . S
H158 C136 0.930 . S
H159 C137 0.930 . S
Tb160 C162 2.809 . S
Tb160 O180 2.484 . S
Tb160 O181 2.440 . S
Tb160 O182 2.658 . S
Tb160 O183 2.409 . S
Tb160 O184 2.378 . S
Tb160 O188 2.325 . S
Tb160 O191 2.341 . S
Tb161 C171 2.809 . S
Tb161 O182 2.325 . S
Tb161 O185 2.341 . S
Tb161 O186 2.484 . S
Tb161 O187 2.440 . S
Tb161 O188 2.658 . S
Tb161 O189 2.409 . S
Tb161 O190 2.378 . S
C162 Tb160 2.809 . S
C162 C163 1.514 . S
C162 O180 1.248 . S
C162 O181 1.266 . S
C163 C162 1.514 . S
C163 C164 1.359 . S
C163 C168 1.348 . S
C164 C163 1.359 . S
C164 C165 1.380 . S
C164 H192 0.929 . S
C165 C164 1.380 . S
C165 C166 1.347 . S
C165 H193 0.931 . S
C166 C165 1.347 . S
C166 C167 1.369 . S
C167 C166 1.369 . S
C167 C168 1.408 . S
C167 H194 0.930 . S
C168 C163 1.348 . S
C168 C167 1.408 . S
C168 H195 0.930 . S
C169 O182 1.281 . S
C169 O183 1.254 . S
C170 O184 1.236 . S
C170 O185 1.266 . S
C171 Tb161 2.809 . S
C171 C172 1.514 . S
C171 O186 1.248 . S
C171 O187 1.266 . S
C172 C171 1.514 . S
C172 C173 1.359 . S
C172 C177 1.348 . S
C173 C172 1.359 . S
C173 C174 1.380 . S
C173 H196 0.929 . S
C174 C173 1.380 . S
C174 C175 1.347 . S
C174 H197 0.931 . S
C175 C174 1.347 . S
C175 C176 1.369 . S
C176 C175 1.369 . S
C176 C177 1.408 . S
C176 H198 0.930 1_455 S
C177 C172 1.348 . S
C177 C176 1.408 . S
C177 H199 0.930 . S
C178 O188 1.281 . S
C178 O189 1.254 . S
C179 O190 1.236 . S
C179 O191 1.266 . S
O180 Tb160 2.484 . S
O180 C162 1.248 . S
O181 Tb160 2.440 . S
O181 C162 1.266 . S
O182 Tb160 2.658 . S
O182 Tb161 2.325 . S
O182 C169 1.281 . S
O183 Tb160 2.409 . S
O183 C169 1.254 . S
O184 Tb160 2.378 . S
O184 C170 1.236 . S
O185 Tb161 2.341 . S
O185 C170 1.266 . S
O186 Tb161 2.484 . S
O186 C171 1.248 . S
O187 Tb161 2.440 . S
O187 C171 1.266 . S
O188 Tb160 2.325 . S
O188 Tb161 2.658 . S
O188 C178 1.281 . S
O189 Tb161 2.409 . S
O189 C178 1.254 . S
O190 Tb161 2.378 . S
O190 C179 1.236 . S
O191 Tb160 2.341 . S
O191 C179 1.266 . S
H192 C164 0.929 . S
H193 C165 0.931 . S
H194 C167 0.930 . S
H195 C168 0.930 . S
H196 C173 0.929 . S
H197 C174 0.931 . S
H198 C176 0.930 1_655 S
H199 C177 0.930 . S
Tb200 C202 2.809 . S
Tb200 O220 2.484 . S
Tb200 O221 2.440 . S
Tb200 O222 2.658 . S
Tb200 O223 2.409 . S
Tb200 O224 2.378 . S
Tb200 O228 2.325 . S
Tb200 O231 2.341 . S
Tb201 C211 2.809 . S
Tb201 O222 2.325 . S
Tb201 O225 2.341 . S
Tb201 O226 2.484 . S
Tb201 O227 2.440 . S
Tb201 O228 2.658 . S
Tb201 O229 2.409 . S
Tb201 O230 2.378 . S
C202 Tb200 2.809 . S
C202 C203 1.514 . S
C202 O220 1.248 . S
C202 O221 1.266 . S
C203 C202 1.514 . S
C203 C204 1.359 . S
C203 C208 1.348 . S
C204 C203 1.359 . S
C204 C205 1.380 . S
C204 H232 0.929 . S
C205 C204 1.380 . S
C205 C206 1.347 . S
C205 H233 0.931 . S
C206 C205 1.347 . S
C206 C207 1.369 . S
C207 C206 1.369 . S
C207 C208 1.408 . S
C207 H234 0.930 1_565 S
C208 C203 1.348 . S
C208 C207 1.408 . S
C208 H235 0.930 . S
C209 O222 1.281 . S
C209 O223 1.254 . S
C210 O224 1.236 . S
C210 O225 1.266 . S
C211 Tb201 2.809 . S
C211 C212 1.514 . S
C211 O226 1.248 . S
C211 O227 1.266 . S
C212 C211 1.514 . S
C212 C213 1.359 . S
C212 C217 1.348 . S
C213 C212 1.359 . S
C213 C214 1.380 . S
C213 H236 0.929 . S
C214 C213 1.380 . S
C214 C215 1.347 . S
C214 H237 0.931 . S
C215 C214 1.347 . S
C215 C216 1.369 . S
C216 C215 1.369 . S
C216 C217 1.408 . S
C216 H238 0.930 . S
C217 C212 1.348 . S
C217 C216 1.408 . S
C217 H239 0.930 . S
C218 O228 1.281 . S
C218 O229 1.254 . S
C219 O230 1.236 . S
C219 O231 1.266 . S
O220 Tb200 2.484 . S
O220 C202 1.248 . S
O221 Tb200 2.440 . S
O221 C202 1.266 . S
O222 Tb200 2.658 . S
O222 Tb201 2.325 . S
O222 C209 1.281 . S
O223 Tb200 2.409 . S
O223 C209 1.254 . S
O224 Tb200 2.378 . S
O224 C210 1.236 . S
O225 Tb201 2.341 . S
O225 C210 1.266 . S
O226 Tb201 2.484 . S
O226 C211 1.248 . S
O227 Tb201 2.440 . S
O227 C211 1.266 . S
O228 Tb200 2.325 . S
O228 Tb201 2.658 . S
O228 C218 1.281 . S
O229 Tb201 2.409 . S
O229 C218 1.254 . S
O230 Tb201 2.378 . S
O230 C219 1.236 . S
O231 Tb200 2.341 . S
O231 C219 1.266 . S
H232 C204 0.929 . S
H233 C205 0.931 . S
H234 C207 0.930 1_545 S
H235 C208 0.930 . S
H236 C213 0.929 . S
H237 C214 0.931 . S
H238 C216 0.930 . S
H239 C217 0.930 . S
Tb240 C242 2.809 . S
Tb240 O260 2.484 . S
Tb240 O261 2.440 . S
Tb240 O262 2.658 . S
Tb240 O263 2.409 . S
Tb240 O264 2.378 . S
Tb240 O268 2.325 . S
Tb240 O271 2.341 . S
Tb241 C251 2.809 . S
Tb241 O262 2.325 . S
Tb241 O265 2.341 . S
Tb241 O266 2.484 . S
Tb241 O267 2.440 . S
Tb241 O268 2.658 . S
Tb241 O269 2.409 . S
Tb241 O270 2.378 . S
C242 Tb240 2.809 . S
C242 C243 1.514 . S
C242 O260 1.248 . S
C242 O261 1.266 . S
C243 C242 1.514 . S
C243 C244 1.359 . S
C243 C248 1.348 . S
C244 C243 1.359 . S
C244 C245 1.380 . S
C244 H272 0.929 . S
C245 C244 1.380 . S
C245 C246 1.347 . S
C245 H273 0.931 . S
C246 C245 1.347 . S
C246 C247 1.369 . S
C247 C246 1.369 . S
C247 C248 1.408 . S
C247 H274 0.930 . S
C248 C243 1.348 . S
C248 C247 1.408 . S
C248 H275 0.930 . S
C249 O262 1.281 . S
C249 O263 1.254 . S
C250 O264 1.236 . S
C250 O265 1.266 . S
C251 Tb241 2.809 . S
C251 C252 1.514 . S
C251 O266 1.248 . S
C251 O267 1.266 . S
C252 C251 1.514 . S
C252 C253 1.359 . S
C252 C257 1.348 . S
C253 C252 1.359 . S
C253 C254 1.380 . S
C253 H276 0.929 . S
C254 C253 1.380 . S
C254 C255 1.347 . S
C254 H277 0.931 . S
C255 C254 1.347 . S
C255 C256 1.369 . S
C256 C255 1.369 . S
C256 C257 1.408 . S
C256 H278 0.930 . S
C257 C252 1.348 . S
C257 C256 1.408 . S
C257 H279 0.930 . S
C258 O268 1.281 . S
C258 O269 1.254 . S
C259 O270 1.236 . S
C259 O271 1.266 . S
O260 Tb240 2.484 . S
O260 C242 1.248 . S
O261 Tb240 2.440 . S
O261 C242 1.266 . S
O262 Tb240 2.658 . S
O262 Tb241 2.325 . S
O262 C249 1.281 . S
O263 Tb240 2.409 . S
O263 C249 1.254 . S
O264 Tb240 2.378 . S
O264 C250 1.236 . S
O265 Tb241 2.341 . S
O265 C250 1.266 . S
O266 Tb241 2.484 . S
O266 C251 1.248 . S
O267 Tb241 2.440 . S
O267 C251 1.266 . S
O268 Tb240 2.325 . S
O268 Tb241 2.658 . S
O268 C258 1.281 . S
O269 Tb241 2.409 . S
O269 C258 1.254 . S
O270 Tb241 2.378 . S
O270 C259 1.236 . S
O271 Tb240 2.341 . S
O271 C259 1.266 . S
H272 C244 0.929 . S
H273 C245 0.931 . S
H274 C247 0.930 . S
H275 C248 0.930 . S
H276 C253 0.929 . S
H277 C254 0.931 . S
H278 C256 0.930 . S
H279 C257 0.930 . S
Tb280 C282 2.809 1_556 S
Tb280 O300 2.484 1_556 S
Tb280 O301 2.444 . S
Tb280 O302 2.658 . S
Tb280 O303 2.409 . S
Tb280 O304 2.378 1_556 S
Tb280 O308 2.325 . S
Tb280 O311 2.341 . S
Tb281 C291 2.809 . S
Tb281 O302 2.325 . S
Tb281 O305 2.341 1_556 S
Tb281 O306 2.484 . S
Tb281 O307 2.440 . S
Tb281 O308 2.658 . S
Tb281 O309 2.409 . S
Tb281 O310 2.378 . S
C282 Tb280 2.809 1_554 S
C282 C283 1.514 . S
C282 O300 1.248 . S
C282 O301 1.260 1_554 S
C283 C282 1.514 . S
C283 C284 1.359 . S
C283 C288 1.348 . S
C284 C283 1.359 . S
C284 C285 1.380 . S
C284 H312 0.929 . S
C285 C284 1.380 . S
C285 C286 1.347 . S
C285 H313 0.931 . S
C286 C285 1.347 . S
C286 C287 1.369 . S
C287 C286 1.369 . S
C287 C288 1.408 . S
C287 H314 0.930 1_545 S
C288 C283 1.348 . S
C288 C287 1.408 . S
C288 H315 0.930 . S
C289 O302 1.281 . S
C289 O303 1.254 . S
C290 O304 1.236 . S
C290 O305 1.266 . S
C291 Tb281 2.809 . S
C291 C292 1.514 . S
C291 O306 1.248 . S
C291 O307 1.266 . S
C292 C291 1.514 . S
C292 C293 1.359 . S
C292 C297 1.348 . S
C293 C292 1.359 . S
C293 C294 1.380 . S
C293 H316 0.929 . S
C294 C293 1.380 . S
C294 C295 1.347 . S
C294 H317 0.931 . S
C295 C294 1.347 . S
C295 C296 1.369 . S
C296 C295 1.369 . S
C296 C297 1.408 . S
C296 H318 0.930 . S
C297 C292 1.348 . S
C297 C296 1.408 . S
C297 H319 0.930 . S
C298 O308 1.281 . S
C298 O309 1.254 . S
C299 O310 1.236 . S
C299 O311 1.266 . S
O300 Tb280 2.484 1_554 S
O300 C282 1.248 . S
O301 Tb280 2.444 . S
O301 C282 1.260 1_556 S
O302 Tb280 2.658 . S
O302 Tb281 2.325 . S
O302 C289 1.281 . S
O303 Tb280 2.409 . S
O303 C289 1.254 . S
O304 Tb280 2.378 1_554 S
O304 C290 1.236 . S
O305 Tb281 2.341 1_554 S
O305 C290 1.266 . S
O306 Tb281 2.484 . S
O306 C291 1.248 . S
O307 Tb281 2.440 . S
O307 C291 1.266 . S
O308 Tb280 2.325 . S
O308 Tb281 2.658 . S
O308 C298 1.281 . S
O309 Tb281 2.409 . S
O309 C298 1.254 . S
O310 Tb281 2.378 . S
O310 C299 1.236 . S
O311 Tb280 2.341 . S
O311 C299 1.266 . S
H312 C284 0.929 . S
H313 C285 0.931 . S
H314 C287 0.930 1_565 S
H315 C288 0.930 . S
H316 C293 0.929 . S
H317 C294 0.931 . S
H318 C296 0.930 . S
H319 C297 0.930 . S
Tb320 C322 2.809 . S
Tb320 O340 2.484 . S
Tb320 O341 2.440 . S
Tb320 O342 2.658 . S
Tb320 O343 2.409 . S
Tb320 O344 2.378 . S
Tb320 O348 2.325 . S
Tb320 O351 2.341 . S
Tb321 C331 2.809 . S
Tb321 O342 2.325 . S
Tb321 O345 2.341 . S
Tb321 O346 2.484 . S
Tb321 O347 2.440 . S
Tb321 O348 2.658 . S
Tb321 O349 2.409 . S
Tb321 O350 2.378 . S
C322 Tb320 2.809 . S
C322 C323 1.514 . S
C322 O340 1.248 . S
C322 O341 1.266 . S
C323 C322 1.514 . S
C323 C324 1.359 . S
C323 C328 1.348 . S
C324 C323 1.359 . S
C324 C325 1.380 . S
C324 H352 0.929 . S
C325 C324 1.380 . S
C325 C326 1.347 . S
C325 H353 0.931 . S
C326 C325 1.347 . S
C326 C327 1.369 . S
C327 C326 1.369 . S
C327 C328 1.408 . S
C327 H354 0.930 1_655 S
C328 C323 1.348 . S
C328 C327 1.408 . S
C328 H355 0.930 . S
C329 O342 1.281 . S
C329 O343 1.254 . S
C330 O344 1.236 . S
C330 O345 1.266 . S
C331 Tb321 2.809 . S
C331 C332 1.514 . S
C331 O346 1.248 . S
C331 O347 1.266 . S
C332 C331 1.514 . S
C332 C333 1.359 . S
C332 C337 1.348 . S
C333 C332 1.359 . S
C333 C334 1.380 . S
C333 H356 0.929 . S
C334 C333 1.380 . S
C334 C335 1.347 . S
C334 H357 0.931 . S
C335 C334 1.347 . S
C335 C336 1.369 . S
C336 C335 1.369 . S
C336 C337 1.408 . S
C336 H358 0.930 . S
C337 C332 1.348 . S
C337 C336 1.408 . S
C337 H359 0.930 . S
C338 O348 1.281 . S
C338 O349 1.254 . S
C339 O350 1.236 . S
C339 O351 1.266 . S
O340 Tb320 2.484 . S
O340 C322 1.248 . S
O341 Tb320 2.440 . S
O341 C322 1.266 . S
O342 Tb320 2.658 . S
O342 Tb321 2.325 . S
O342 C329 1.281 . S
O343 Tb320 2.409 . S
O343 C329 1.254 . S
O344 Tb320 2.378 . S
O344 C330 1.236 . S
O345 Tb321 2.341 . S
O345 C330 1.266 . S
O346 Tb321 2.484 . S
O346 C331 1.248 . S
O347 Tb321 2.440 . S
O347 C331 1.266 . S
O348 Tb320 2.325 . S
O348 Tb321 2.658 . S
O348 C338 1.281 . S
O349 Tb321 2.409 . S
O349 C338 1.254 . S
O350 Tb321 2.378 . S
O350 C339 1.236 . S
O351 Tb320 2.341 . S
O351 C339 1.266 . S
H352 C324 0.929 . S
H353 C325 0.931 . S
H354 C327 0.930 1_455 S
H355 C328 0.930 . S
H356 C333 0.929 . S
H357 C334 0.931 . S
H358 C336 0.930 . S
H359 C337 0.930 . S
Tb360 C362 2.809 . S
Tb360 O380 2.484 . S
Tb360 O381 2.440 . S
Tb360 O382 2.658 . S
Tb360 O383 2.409 . S
Tb360 O384 2.378 . S
Tb360 O388 2.325 . S
Tb360 O391 2.341 . S
Tb361 C371 2.809 . S
Tb361 O382 2.325 . S
Tb361 O385 2.341 . S
Tb361 O386 2.484 . S
Tb361 O387 2.440 . S
Tb361 O388 2.658 . S
Tb361 O389 2.409 . S
Tb361 O390 2.378 . S
C362 Tb360 2.809 . S
C362 C363 1.514 . S
C362 O380 1.248 . S
C362 O381 1.266 . S
C363 C362 1.514 . S
C363 C364 1.359 . S
C363 C368 1.348 . S
C364 C363 1.359 . S
C364 C365 1.380 . S
C364 H392 0.929 . S
C365 C364 1.380 . S
C365 C366 1.347 . S
C365 H393 0.931 . S
C366 C365 1.347 . S
C366 C367 1.369 . S
C367 C366 1.369 . S
C367 C368 1.408 . S
C367 H394 0.930 . S
C368 C363 1.348 . S
C368 C367 1.408 . S
C368 H395 0.930 . S
C369 O382 1.281 . S
C369 O383 1.254 . S
C370 O384 1.236 . S
C370 O385 1.266 . S
C371 Tb361 2.809 . S
C371 C372 1.514 . S
C371 O386 1.248 . S
C371 O387 1.266 . S
C372 C371 1.514 . S
C372 C373 1.359 . S
C372 C377 1.348 . S
C373 C372 1.359 . S
C373 C374 1.380 . S
C373 H396 0.929 . S
C374 C373 1.380 . S
C374 C375 1.347 . S
C374 H397 0.931 . S
C375 C374 1.347 . S
C375 C376 1.369 . S
C376 C375 1.369 . S
C376 C377 1.408 . S
C376 H398 0.930 1_545 S
C377 C372 1.348 . S
C377 C376 1.408 . S
C377 H399 0.930 . S
C378 O388 1.281 . S
C378 O389 1.254 . S
C379 O390 1.236 . S
C379 O391 1.266 . S
O380 Tb360 2.484 . S
O380 C362 1.248 . S
O381 Tb360 2.440 . S
O381 C362 1.266 . S
O382 Tb360 2.658 . S
O382 Tb361 2.325 . S
O382 C369 1.281 . S
O383 Tb360 2.409 . S
O383 C369 1.254 . S
O384 Tb360 2.378 . S
O384 C370 1.236 . S
O385 Tb361 2.341 . S
O385 C370 1.266 . S
O386 Tb361 2.484 . S
O386 C371 1.248 . S
O387 Tb361 2.440 . S
O387 C371 1.266 . S
O388 Tb360 2.325 . S
O388 Tb361 2.658 . S
O388 C378 1.281 . S
O389 Tb361 2.409 . S
O389 C378 1.254 . S
O390 Tb361 2.378 . S
O390 C379 1.236 . S
O391 Tb360 2.341 . S
O391 C379 1.266 . S
H392 C364 0.929 . S
H393 C365 0.931 . S
H394 C367 0.930 . S
H395 C368 0.930 . S
H396 C373 0.929 . S
H397 C374 0.931 . S
H398 C376 0.930 1_565 S
H399 C377 0.930 . S
Tb400 C402 2.809 . S
Tb400 O420 2.484 . S
Tb400 O421 2.440 . S
Tb400 O422 2.658 . S
Tb400 O423 2.409 . S
Tb400 O424 2.378 . S
Tb400 O428 2.325 . S
Tb400 O431 2.341 . S
Tb401 C411 2.809 . S
Tb401 O422 2.325 . S
Tb401 O425 2.341 . S
Tb401 O426 2.484 . S
Tb401 O427 2.440 . S
Tb401 O428 2.658 . S
Tb401 O429 2.409 . S
Tb401 O430 2.378 . S
C402 Tb400 2.809 . S
C402 C403 1.514 . S
C402 O420 1.248 . S
C402 O421 1.266 . S
C403 C402 1.514 . S
C403 C404 1.359 . S
C403 C408 1.348 . S
C404 C403 1.359 . S
C404 C405 1.380 . S
C404 H432 0.929 . S
C405 C404 1.380 . S
C405 C406 1.347 . S
C405 H433 0.931 . S
C406 C405 1.347 . S
C406 C407 1.369 . S
C407 C406 1.369 . S
C407 C408 1.408 . S
C407 H434 0.930 . S
C408 C403 1.348 . S
C408 C407 1.408 . S
C408 H435 0.930 . S
C409 O422 1.281 . S
C409 O423 1.254 . S
C410 O424 1.236 . S
C410 O425 1.266 . S
C411 Tb401 2.809 . S
C411 C412 1.514 . S
C411 O426 1.248 . S
C411 O427 1.266 . S
C412 C411 1.514 . S
C412 C413 1.359 . S
C412 C417 1.348 . S
C413 C412 1.359 . S
C413 C414 1.380 . S
C413 H436 0.929 . S
C414 C413 1.380 . S
C414 C415 1.347 . S
C414 H437 0.931 . S
C415 C414 1.347 . S
C415 C416 1.369 . S
C416 C415 1.369 . S
C416 C417 1.408 . S
C416 H438 0.930 . S
C417 C412 1.348 . S
C417 C416 1.408 . S
C417 H439 0.930 . S
C418 O428 1.281 . S
C418 O429 1.254 . S
C419 O430 1.236 . S
C419 O431 1.266 . S
O420 Tb400 2.484 . S
O420 C402 1.248 . S
O421 Tb400 2.440 . S
O421 C402 1.266 . S
O422 Tb400 2.658 . S
O422 Tb401 2.325 . S
O422 C409 1.281 . S
O423 Tb400 2.409 . S
O423 C409 1.254 . S
O424 Tb400 2.378 . S
O424 C410 1.236 . S
O425 Tb401 2.341 . S
O425 C410 1.266 . S
O426 Tb401 2.484 . S
O426 C411 1.248 . S
O427 Tb401 2.440 . S
O427 C411 1.266 . S
O428 Tb400 2.325 . S
O428 Tb401 2.658 . S
O428 C418 1.281 . S
O429 Tb401 2.409 . S
O429 C418 1.254 . S
O430 Tb401 2.378 . S
O430 C419 1.236 . S
O431 Tb400 2.341 . S
O431 C419 1.266 . S
H432 C404 0.929 . S
H433 C405 0.931 . S
H434 C407 0.930 . S
H435 C408 0.930 . S
H436 C413 0.929 . S
H437 C414 0.931 . S
H438 C416 0.930 . S
H439 C417 0.930 . S
Tb440 C442 2.809 . S
Tb440 O460 2.484 . S
Tb440 O461 2.440 . S
Tb440 O462 2.658 . S
Tb440 O463 2.409 . S
Tb440 O464 2.378 . S
Tb440 O468 2.325 . S
Tb440 O471 2.341 1_556 S
Tb441 C451 2.809 1_556 S
Tb441 O462 2.325 . S
Tb441 O465 2.341 . S
Tb441 O466 2.484 1_556 S
Tb441 O467 2.444 . S
Tb441 O468 2.658 . S
Tb441 O469 2.409 . S
Tb441 O470 2.378 1_556 S
C442 Tb440 2.809 . S
C442 C443 1.514 . S
C442 O460 1.248 . S
C442 O461 1.266 . S
C443 C442 1.514 . S
C443 C444 1.359 . S
C443 C448 1.348 . S
C444 C443 1.359 . S
C444 C445 1.380 . S
C444 H472 0.929 . S
C445 C444 1.380 . S
C445 C446 1.347 . S
C445 H473 0.931 . S
C446 C445 1.347 . S
C446 C447 1.369 . S
C447 C446 1.369 . S
C447 C448 1.408 . S
C447 H474 0.930 . S
C448 C443 1.348 . S
C448 C447 1.408 . S
C448 H475 0.930 . S
C449 O462 1.281 . S
C449 O463 1.254 . S
C450 O464 1.236 . S
C450 O465 1.266 . S
C451 Tb441 2.809 1_554 S
C451 C452 1.514 . S
C451 O466 1.248 . S
C451 O467 1.260 1_554 S
C452 C451 1.514 . S
C452 C453 1.359 . S
C452 C457 1.348 . S
C453 C452 1.359 . S
C453 C454 1.380 . S
C453 H476 0.929 . S
C454 C453 1.380 . S
C454 C455 1.347 . S
C454 H477 0.931 . S
C455 C454 1.347 . S
C455 C456 1.369 . S
C456 C455 1.369 . S
C456 C457 1.408 . S
C456 H478 0.930 1_565 S
C457 C452 1.348 . S
C457 C456 1.408 . S
C457 H479 0.930 . S
C458 O468 1.281 . S
C458 O469 1.254 . S
C459 O470 1.236 . S
C459 O471 1.266 . S
O460 Tb440 2.484 . S
O460 C442 1.248 . S
O461 Tb440 2.440 . S
O461 C442 1.266 . S
O462 Tb440 2.658 . S
O462 Tb441 2.325 . S
O462 C449 1.281 . S
O463 Tb440 2.409 . S
O463 C449 1.254 . S
O464 Tb440 2.378 . S
O464 C450 1.236 . S
O465 Tb441 2.341 . S
O465 C450 1.266 . S
O466 Tb441 2.484 1_554 S
O466 C451 1.248 . S
O467 Tb441 2.444 . S
O467 C451 1.260 1_556 S
O468 Tb440 2.325 . S
O468 Tb441 2.658 . S
O468 C458 1.281 . S
O469 Tb441 2.409 . S
O469 C458 1.254 . S
O470 Tb441 2.378 1_554 S
O470 C459 1.236 . S
O471 Tb440 2.341 1_554 S
O471 C459 1.266 . S
H472 C444 0.929 . S
H473 C445 0.931 . S
H474 C447 0.930 . S
H475 C448 0.930 . S
H476 C453 0.929 . S
H477 C454 0.931 . S
H478 C456 0.930 1_545 S
H479 C457 0.930 . S
Tb480 C482 2.809 . S
Tb480 O500 2.484 . S
Tb480 O501 2.440 . S
Tb480 O502 2.658 . S
Tb480 O503 2.409 . S
Tb480 O504 2.378 . S
Tb480 O508 2.325 . S
Tb480 O511 2.341 . S
Tb481 C491 2.809 . S
Tb481 O502 2.325 . S
Tb481 O505 2.341 . S
Tb481 O506 2.484 . S
Tb481 O507 2.440 . S
Tb481 O508 2.658 . S
Tb481 O509 2.409 . S
Tb481 O510 2.378 . S
C482 Tb480 2.809 . S
C482 C483 1.514 . S
C482 O500 1.248 . S
C482 O501 1.266 . S
C483 C482 1.514 . S
C483 C484 1.359 . S
C483 C488 1.348 . S
C484 C483 1.359 . S
C484 C485 1.380 . S
C484 H512 0.929 . S
C485 C484 1.380 . S
C485 C486 1.347 . S
C485 H513 0.931 . S
C486 C485 1.347 . S
C486 C487 1.369 . S
C487 C486 1.369 . S
C487 C488 1.408 . S
C487 H514 0.930 1_655 S
C488 C483 1.348 . S
C488 C487 1.408 . S
C488 H515 0.930 . S
C489 O502 1.281 . S
C489 O503 1.254 . S
C490 O504 1.236 . S
C490 O505 1.266 . S
C491 Tb481 2.809 . S
C491 C492 1.514 . S
C491 O506 1.248 . S
C491 O507 1.266 . S
C492 C491 1.514 . S
C492 C493 1.359 . S
C492 C497 1.348 . S
C493 C492 1.359 . S
C493 C494 1.380 . S
C493 H516 0.929 . S
C494 C493 1.380 . S
C494 C495 1.347 . S
C494 H517 0.931 . S
C495 C494 1.347 . S
C495 C496 1.369 . S
C496 C495 1.369 . S
C496 C497 1.408 . S
C496 H518 0.930 . S
C497 C492 1.348 . S
C497 C496 1.408 . S
C497 H519 0.930 . S
C498 O508 1.281 . S
C498 O509 1.254 . S
C499 O510 1.236 . S
C499 O511 1.266 . S
O500 Tb480 2.484 . S
O500 C482 1.248 . S
O501 Tb480 2.440 . S
O501 C482 1.266 . S
O502 Tb480 2.658 . S
O502 Tb481 2.325 . S
O502 C489 1.281 . S
O503 Tb480 2.409 . S
O503 C489 1.254 . S
O504 Tb480 2.378 . S
O504 C490 1.236 . S
O505 Tb481 2.341 . S
O505 C490 1.266 . S
O506 Tb481 2.484 . S
O506 C491 1.248 . S
O507 Tb481 2.440 . S
O507 C491 1.266 . S
O508 Tb480 2.325 . S
O508 Tb481 2.658 . S
O508 C498 1.281 . S
O509 Tb481 2.409 . S
O509 C498 1.254 . S
O510 Tb481 2.378 . S
O510 C499 1.236 . S
O511 Tb480 2.341 . S
O511 C499 1.266 . S
H512 C484 0.929 . S
H513 C485 0.931 . S
H514 C487 0.930 1_455 S
H515 C488 0.930 . S
H516 C493 0.929 . S
H517 C494 0.931 . S
H518 C496 0.930 . S
H519 C497 0.930 . S
Tb520 C522 2.809 . S
Tb520 O540 2.484 . S
Tb520 O541 2.440 . S
Tb520 O542 2.658 . S
Tb520 O543 2.409 . S
Tb520 O544 2.378 . S
Tb520 O548 2.325 . S
Tb520 O551 2.341 . S
Tb521 C531 2.809 . S
Tb521 O542 2.325 . S
Tb521 O545 2.341 . S
Tb521 O546 2.484 . S
Tb521 O547 2.440 . S
Tb521 O548 2.658 . S
Tb521 O549 2.409 . S
Tb521 O550 2.378 . S
C522 Tb520 2.809 . S
C522 C523 1.514 . S
C522 O540 1.248 . S
C522 O541 1.266 . S
C523 C522 1.514 . S
C523 C524 1.359 . S
C523 C528 1.348 . S
C524 C523 1.359 . S
C524 C525 1.380 . S
C524 H552 0.929 . S
C525 C524 1.380 . S
C525 C526 1.347 . S
C525 H553 0.931 . S
C526 C525 1.347 . S
C526 C527 1.369 . S
C527 C526 1.369 . S
C527 C528 1.408 . S
C527 H554 0.930 . S
C528 C523 1.348 . S
C528 C527 1.408 . S
C528 H555 0.930 . S
C529 O542 1.281 . S
C529 O543 1.254 . S
C530 O544 1.236 . S
C530 O545 1.266 . S
C531 Tb521 2.809 . S
C531 C532 1.514 . S
C531 O546 1.248 . S
C531 O547 1.266 . S
C532 C531 1.514 . S
C532 C533 1.359 . S
C532 C537 1.348 . S
C533 C532 1.359 . S
C533 C534 1.380 . S
C533 H556 0.929 . S
C534 C533 1.380 . S
C534 C535 1.347 . S
C534 H557 0.931 . S
C535 C534 1.347 . S
C535 C536 1.369 . S
C536 C535 1.369 . S
C536 C537 1.408 . S
C536 H558 0.930 1_545 S
C537 C532 1.348 . S
C537 C536 1.408 . S
C537 H559 0.930 . S
C538 O548 1.281 . S
C538 O549 1.254 . S
C539 O550 1.236 . S
C539 O551 1.266 . S
O540 Tb520 2.484 . S
O540 C522 1.248 . S
O541 Tb520 2.440 . S
O541 C522 1.266 . S
O542 Tb520 2.658 . S
O542 Tb521 2.325 . S
O542 C529 1.281 . S
O543 Tb520 2.409 . S
O543 C529 1.254 . S
O544 Tb520 2.378 . S
O544 C530 1.236 . S
O545 Tb521 2.341 . S
O545 C530 1.266 . S
O546 Tb521 2.484 . S
O546 C531 1.248 . S
O547 Tb521 2.440 . S
O547 C531 1.266 . S
O548 Tb520 2.325 . S
O548 Tb521 2.658 . S
O548 C538 1.281 . S
O549 Tb521 2.409 . S
O549 C538 1.254 . S
O550 Tb521 2.378 . S
O550 C539 1.236 . S
O551 Tb520 2.341 . S
O551 C539 1.266 . S
H552 C524 0.929 . S
H553 C525 0.931 . S
H554 C527 0.930 . S
H555 C528 0.930 . S
H556 C533 0.929 . S
H557 C534 0.931 . S
H558 C536 0.930 1_565 S
H559 C537 0.930 . S
Tb560 C562 2.809 . S
Tb560 O580 2.484 . S
Tb560 O581 2.440 . S
Tb560 O582 2.658 . S
Tb560 O583 2.409 . S
Tb560 O584 2.378 . S
Tb560 O588 2.325 . S
Tb560 O591 2.341 . S
Tb561 C571 2.809 . S
Tb561 O582 2.325 . S
Tb561 O585 2.341 . S
Tb561 O586 2.484 . S
Tb561 O587 2.440 . S
Tb561 O588 2.658 . S
Tb561 O589 2.409 . S
Tb561 O590 2.378 . S
C562 Tb560 2.809 . S
C562 C563 1.514 . S
C562 O580 1.248 . S
C562 O581 1.266 . S
C563 C562 1.514 . S
C563 C564 1.359 . S
C563 C568 1.348 . S
C564 C563 1.359 . S
C564 C565 1.380 . S
C564 H592 0.929 . S
C565 C564 1.380 . S
C565 C566 1.347 . S
C565 H593 0.931 . S
C566 C565 1.347 . S
C566 C567 1.369 . S
C567 C566 1.369 . S
C567 C568 1.408 . S
C567 H594 0.930 . S
C568 C563 1.348 . S
C568 C567 1.408 . S
C568 H595 0.930 . S
C569 O582 1.281 . S
C569 O583 1.254 . S
C570 O584 1.236 . S
C570 O585 1.266 . S
C571 Tb561 2.809 . S
C571 C572 1.514 . S
C571 O586 1.248 . S
C571 O587 1.266 . S
C572 C571 1.514 . S
C572 C573 1.359 . S
C572 C577 1.348 . S
C573 C572 1.359 . S
C573 C574 1.380 . S
C573 H596 0.929 . S
C574 C573 1.380 . S
C574 C575 1.347 . S
C574 H597 0.931 . S
C575 C574 1.347 . S
C575 C576 1.369 . S
C576 C575 1.369 . S
C576 C577 1.408 . S
C576 H598 0.930 . S
C577 C572 1.348 . S
C577 C576 1.408 . S
C577 H599 0.930 . S
C578 O588 1.281 . S
C578 O589 1.254 . S
C579 O590 1.236 . S
C579 O591 1.266 . S
O580 Tb560 2.484 . S
O580 C562 1.248 . S
O581 Tb560 2.440 . S
O581 C562 1.266 . S
O582 Tb560 2.658 . S
O582 Tb561 2.325 . S
O582 C569 1.281 . S
O583 Tb560 2.409 . S
O583 C569 1.254 . S
O584 Tb560 2.378 . S
O584 C570 1.236 . S
O585 Tb561 2.341 . S
O585 C570 1.266 . S
O586 Tb561 2.484 . S
O586 C571 1.248 . S
O587 Tb561 2.440 . S
O587 C571 1.266 . S
O588 Tb560 2.325 . S
O588 Tb561 2.658 . S
O588 C578 1.281 . S
O589 Tb561 2.409 . S
O589 C578 1.254 . S
O590 Tb561 2.378 . S
O590 C579 1.236 . S
O591 Tb560 2.341 . S
O591 C579 1.266 . S
H592 C564 0.929 . S
H593 C565 0.931 . S
H594 C567 0.930 . S
H595 C568 0.930 . S
H596 C573 0.929 . S
H597 C574 0.931 . S
H598 C576 0.930 . S
H599 C577 0.930 . S
Tb600 C602 2.809 . S
Tb600 O620 2.484 . S
Tb600 O621 2.440 . S
Tb600 O622 2.658 . S
Tb600 O623 2.409 . S
Tb600 O624 2.378 . S
Tb600 O628 2.325 . S
Tb600 O631 2.341 1_554 S
Tb601 C611 2.809 1_554 S
Tb601 O622 2.325 . S
Tb601 O625 2.341 . S
Tb601 O626 2.484 1_554 S
Tb601 O627 2.444 . S
Tb601 O628 2.658 . S
Tb601 O629 2.409 . S
Tb601 O630 2.378 1_554 S
C602 Tb600 2.809 . S
C602 C603 1.514 . S
C602 O620 1.248 . S
C602 O621 1.266 . S
C603 C602 1.514 . S
C603 C604 1.359 . S
C603 C608 1.348 . S
C604 C603 1.359 . S
C604 C605 1.380 . S
C604 H632 0.929 . S
C605 C604 1.380 . S
C605 C606 1.347 . S
C605 H633 0.931 . S
C606 C605 1.347 . S
C606 C607 1.369 . S
C607 C606 1.369 . S
C607 C608 1.408 . S
C607 H634 0.930 . S
C608 C603 1.348 . S
C608 C607 1.408 . S
C608 H635 0.930 . S
C609 O622 1.281 . S
C609 O623 1.254 . S
C610 O624 1.236 . S
C610 O625 1.266 . S
C611 Tb601 2.809 1_556 S
C611 C612 1.514 . S
C611 O626 1.248 . S
C611 O627 1.260 1_556 S
C612 C611 1.514 . S
C612 C613 1.359 . S
C612 C617 1.348 . S
C613 C612 1.359 . S
C613 C614 1.380 . S
C613 H636 0.929 . S
C614 C613 1.380 . S
C614 C615 1.347 . S
C614 H637 0.931 . S
C615 C614 1.347 . S
C615 C616 1.369 . S
C616 C615 1.369 . S
C616 C617 1.408 . S
C616 H638 0.930 1_565 S
C617 C612 1.348 . S
C617 C616 1.408 . S
C617 H639 0.930 . S
C618 O628 1.281 . S
C618 O629 1.254 . S
C619 O630 1.236 . S
C619 O631 1.266 . S
O620 Tb600 2.484 . S
O620 C602 1.248 . S
O621 Tb600 2.440 . S
O621 C602 1.266 . S
O622 Tb600 2.658 . S
O622 Tb601 2.325 . S
O622 C609 1.281 . S
O623 Tb600 2.409 . S
O623 C609 1.254 . S
O624 Tb600 2.378 . S
O624 C610 1.236 . S
O625 Tb601 2.341 . S
O625 C610 1.266 . S
O626 Tb601 2.484 1_556 S
O626 C611 1.248 . S
O627 Tb601 2.444 . S
O627 C611 1.260 1_554 S
O628 Tb600 2.325 . S
O628 Tb601 2.658 . S
O628 C618 1.281 . S
O629 Tb601 2.409 . S
O629 C618 1.254 . S
O630 Tb601 2.378 1_556 S
O630 C619 1.236 . S
O631 Tb600 2.341 1_556 S
O631 C619 1.266 . S
H632 C604 0.929 . S
H633 C605 0.931 . S
H634 C607 0.930 . S
H635 C608 0.930 . S
H636 C613 0.929 . S
H637 C614 0.931 . S
H638 C616 0.930 1_545 S
H639 C617 0.930 . S
Tb640 C642 2.809 . S
Tb640 O660 2.484 . S
Tb640 O661 2.440 . S
Tb640 O662 2.658 . S
Tb640 O663 2.409 . S
Tb640 O664 2.378 . S
Tb640 O668 2.325 . S
Tb640 O671 2.341 . S
Tb641 C651 2.809 . S
Tb641 O662 2.325 . S
Tb641 O665 2.341 . S
Tb641 O666 2.484 . S
Tb641 O667 2.440 . S
Tb641 O668 2.658 . S
Tb641 O669 2.409 . S
Tb641 O670 2.378 . S
C642 Tb640 2.809 . S
C642 C643 1.514 . S
C642 O660 1.248 . S
C642 O661 1.266 . S
C643 C642 1.514 . S
C643 C644 1.359 . S
C643 C648 1.348 . S
C644 C643 1.359 . S
C644 C645 1.380 . S
C644 H672 0.929 . S
C645 C644 1.380 . S
C645 C646 1.347 . S
C645 H673 0.931 . S
C646 C645 1.347 . S
C646 C647 1.369 . S
C647 C646 1.369 . S
C647 C648 1.408 . S
C647 H674 0.930 . S
C648 C643 1.348 . S
C648 C647 1.408 . S
C648 H675 0.930 . S
C649 O662 1.281 . S
C649 O663 1.254 . S
C650 O664 1.236 . S
C650 O665 1.266 . S
C651 Tb641 2.809 . S
C651 C652 1.514 . S
C651 O666 1.248 . S
C651 O667 1.266 . S
C652 C651 1.514 . S
C652 C653 1.359 . S
C652 C657 1.348 . S
C653 C652 1.359 . S
C653 C654 1.380 . S
C653 H676 0.929 . S
C654 C653 1.380 . S
C654 C655 1.347 . S
C654 H677 0.931 . S
C655 C654 1.347 . S
C655 C656 1.369 . S
C656 C655 1.369 . S
C656 C657 1.408 . S
C656 H678 0.930 . S
C657 C652 1.348 . S
C657 C656 1.408 . S
C657 H679 0.930 . S
C658 O668 1.281 . S
C658 O669 1.254 . S
C659 O670 1.236 . S
C659 O671 1.266 . S
O660 Tb640 2.484 . S
O660 C642 1.248 . S
O661 Tb640 2.440 . S
O661 C642 1.266 . S
O662 Tb640 2.658 . S
O662 Tb641 2.325 . S
O662 C649 1.281 . S
O663 Tb640 2.409 . S
O663 C649 1.254 . S
O664 Tb640 2.378 . S
O664 C650 1.236 . S
O665 Tb641 2.341 . S
O665 C650 1.266 . S
O666 Tb641 2.484 . S
O666 C651 1.248 . S
O667 Tb641 2.440 . S
O667 C651 1.266 . S
O668 Tb640 2.325 . S
O668 Tb641 2.658 . S
O668 C658 1.281 . S
O669 Tb641 2.409 . S
O669 C658 1.254 . S
O670 Tb641 2.378 . S
O670 C659 1.236 . S
O671 Tb640 2.341 . S
O671 C659 1.266 . S
H672 C644 0.929 . S
H673 C645 0.931 . S
H674 C647 0.930 . S
H675 C648 0.930 . S
H676 C653 0.929 . S
H677 C654 0.931 . S
H678 C656 0.930 . S
H679 C657 0.930 . S
Tb680 C682 2.809 1_554 S
Tb680 O700 2.484 1_554 S
Tb680 O701 2.444 . S
Tb680 O702 2.658 . S
Tb680 O703 2.409 . S
Tb680 O704 2.378 1_554 S
Tb680 O708 2.325 . S
Tb680 O711 2.341 . S
Tb681 C691 2.809 . S
Tb681 O702 2.325 . S
Tb681 O705 2.341 1_554 S
Tb681 O706 2.484 . S
Tb681 O707 2.440 . S
Tb681 O708 2.658 . S
Tb681 O709 2.409 . S
Tb681 O710 2.378 . S
C682 Tb680 2.809 1_556 S
C682 C683 1.514 . S
C682 O700 1.248 . S
C682 O701 1.260 1_556 S
C683 C682 1.514 . S
C683 C684 1.359 . S
C683 C688 1.348 . S
C684 C683 1.359 . S
C684 C685 1.380 . S
C684 H712 0.929 . S
C685 C684 1.380 . S
C685 C686 1.347 . S
C685 H713 0.931 . S
C686 C685 1.347 . S
C686 C687 1.369 . S
C687 C686 1.369 . S
C687 C688 1.408 . S
C687 H714 0.930 . S
C688 C683 1.348 . S
C688 C687 1.408 . S
C688 H715 0.930 . S
C689 O702 1.281 . S
C689 O703 1.254 . S
C690 O704 1.236 . S
C690 O705 1.266 . S
C691 Tb681 2.809 . S
C691 C692 1.514 . S
C691 O706 1.248 . S
C691 O707 1.266 . S
C692 C691 1.514 . S
C692 C693 1.359 . S
C692 C697 1.348 . S
C693 C692 1.359 . S
C693 C694 1.380 . S
C693 H716 0.929 . S
C694 C693 1.380 . S
C694 C695 1.347 . S
C694 H717 0.931 . S
C695 C694 1.347 . S
C695 C696 1.369 . S
C696 C695 1.369 . S
C696 C697 1.408 . S
C696 H718 0.930 . S
C697 C692 1.348 . S
C697 C696 1.408 . S
C697 H719 0.930 . S
C698 O708 1.281 . S
C698 O709 1.254 . S
C699 O710 1.236 . S
C699 O711 1.266 . S
O700 Tb680 2.484 1_556 S
O700 C682 1.248 . S
O701 Tb680 2.444 . S
O701 C682 1.260 1_554 S
O702 Tb680 2.658 . S
O702 Tb681 2.325 . S
O702 C689 1.281 . S
O703 Tb680 2.409 . S
O703 C689 1.254 . S
O704 Tb680 2.378 1_556 S
O704 C690 1.236 . S
O705 Tb681 2.341 1_556 S
O705 C690 1.266 . S
O706 Tb681 2.484 . S
O706 C691 1.248 . S
O707 Tb681 2.440 . S
O707 C691 1.266 . S
O708 Tb680 2.325 . S
O708 Tb681 2.658 . S
O708 C698 1.281 . S
O709 Tb681 2.409 . S
O709 C698 1.254 . S
O710 Tb681 2.378 . S
O710 C699 1.236 . S
O711 Tb680 2.341 . S
O711 C699 1.266 . S
H712 C684 0.929 . S
H713 C685 0.931 . S
H714 C687 0.930 . S
H715 C688 0.930 . S
H716 C693 0.929 . S
H717 C694 0.931 . S
H718 C696 0.930 . S
H719 C697 0.930 . S
Tb720 C722 2.809 . S
Tb720 O740 2.484 . S
Tb720 O741 2.440 . S
Tb720 O742 2.658 . S
Tb720 O743 2.409 . S
Tb720 O744 2.378 . S
Tb720 O748 2.325 . S
Tb720 O751 2.341 . S
Tb721 C731 2.809 . S
Tb721 O742 2.325 . S
Tb721 O745 2.341 . S
Tb721 O746 2.484 . S
Tb721 O747 2.440 . S
Tb721 O748 2.658 . S
Tb721 O749 2.409 . S
Tb721 O750 2.378 . S
C722 Tb720 2.809 . S
C722 C723 1.514 . S
C722 O740 1.248 . S
C722 O741 1.266 . S
C723 C722 1.514 . S
C723 C724 1.359 . S
C723 C728 1.348 . S
C724 C723 1.359 . S
C724 C725 1.380 . S
C724 H752 0.929 . S
C725 C724 1.380 . S
C725 C726 1.347 . S
C725 H753 0.931 . S
C726 C725 1.347 . S
C726 C727 1.369 . S
C727 C726 1.369 . S
C727 C728 1.408 . S
C727 H754 0.930 . S
C728 C723 1.348 . S
C728 C727 1.408 . S
C728 H755 0.930 . S
C729 O742 1.281 . S
C729 O743 1.254 . S
C730 O744 1.236 . S
C730 O745 1.266 . S
C731 Tb721 2.809 . S
C731 C732 1.514 . S
C731 O746 1.248 . S
C731 O747 1.266 . S
C732 C731 1.514 . S
C732 C733 1.359 . S
C732 C737 1.348 . S
C733 C732 1.359 . S
C733 C734 1.380 . S
C733 H756 0.929 . S
C734 C733 1.380 . S
C734 C735 1.347 . S
C734 H757 0.931 . S
C735 C734 1.347 . S
C735 C736 1.369 . S
C736 C735 1.369 . S
C736 C737 1.408 . S
C736 H758 0.930 1_655 S
C737 C732 1.348 . S
C737 C736 1.408 . S
C737 H759 0.930 . S
C738 O748 1.281 . S
C738 O749 1.254 . S
C739 O750 1.236 . S
C739 O751 1.266 . S
O740 Tb720 2.484 . S
O740 C722 1.248 . S
O741 Tb720 2.440 . S
O741 C722 1.266 . S
O742 Tb720 2.658 . S
O742 Tb721 2.325 . S
O742 C729 1.281 . S
O743 Tb720 2.409 . S
O743 C729 1.254 . S
O744 Tb720 2.378 . S
O744 C730 1.236 . S
O745 Tb721 2.341 . S
O745 C730 1.266 . S
O746 Tb721 2.484 . S
O746 C731 1.248 . S
O747 Tb721 2.440 . S
O747 C731 1.266 . S
O748 Tb720 2.325 . S
O748 Tb721 2.658 . S
O748 C738 1.281 . S
O749 Tb721 2.409 . S
O749 C738 1.254 . S
O750 Tb721 2.378 . S
O750 C739 1.236 . S
O751 Tb720 2.341 . S
O751 C739 1.266 . S
H752 C724 0.929 . S
H753 C725 0.931 . S
H754 C727 0.930 . S
H755 C728 0.930 . S
H756 C733 0.929 . S
H757 C734 0.931 . S
H758 C736 0.930 1_455 S
H759 C737 0.930 . S
Tb760 C762 2.809 . S
Tb760 O780 2.484 . S
Tb760 O781 2.440 . S
Tb760 O782 2.658 . S
Tb760 O783 2.409 . S
Tb760 O784 2.378 . S
Tb760 O788 2.325 . S
Tb760 O791 2.341 . S
Tb761 C771 2.809 . S
Tb761 O782 2.325 . S
Tb761 O785 2.341 . S
Tb761 O786 2.484 . S
Tb761 O787 2.440 . S
Tb761 O788 2.658 . S
Tb761 O789 2.409 . S
Tb761 O790 2.378 . S
C762 Tb760 2.809 . S
C762 C763 1.514 . S
C762 O780 1.248 . S
C762 O781 1.266 . S
C763 C762 1.514 . S
C763 C764 1.359 . S
C763 C768 1.348 . S
C764 C763 1.359 . S
C764 C765 1.380 . S
C764 H792 0.929 . S
C765 C764 1.380 . S
C765 C766 1.347 . S
C765 H793 0.931 . S
C766 C765 1.347 . S
C766 C767 1.369 . S
C767 C766 1.369 . S
C767 C768 1.408 . S
C767 H794 0.930 . S
C768 C763 1.348 . S
C768 C767 1.408 . S
C768 H795 0.930 . S
C769 O782 1.281 . S
C769 O783 1.254 . S
C770 O784 1.236 . S
C770 O785 1.266 . S
C771 Tb761 2.809 . S
C771 C772 1.514 . S
C771 O786 1.248 . S
C771 O787 1.266 . S
C772 C771 1.514 . S
C772 C773 1.359 . S
C772 C777 1.348 . S
C773 C772 1.359 . S
C773 C774 1.380 . S
C773 H796 0.929 . S
C774 C773 1.380 . S
C774 C775 1.347 . S
C774 H797 0.931 . S
C775 C774 1.347 . S
C775 C776 1.369 . S
C776 C775 1.369 . S
C776 C777 1.408 . S
C776 H798 0.930 . S
C777 C772 1.348 . S
C777 C776 1.408 . S
C777 H799 0.930 . S
C778 O788 1.281 . S
C778 O789 1.254 . S
C779 O790 1.236 . S
C779 O791 1.266 . S
O780 Tb760 2.484 . S
O780 C762 1.248 . S
O781 Tb760 2.440 . S
O781 C762 1.266 . S
O782 Tb760 2.658 . S
O782 Tb761 2.325 . S
O782 C769 1.281 . S
O783 Tb760 2.409 . S
O783 C769 1.254 . S
O784 Tb760 2.378 . S
O784 C770 1.236 . S
O785 Tb761 2.341 . S
O785 C770 1.266 . S
O786 Tb761 2.484 . S
O786 C771 1.248 . S
O787 Tb761 2.440 . S
O787 C771 1.266 . S
O788 Tb760 2.325 . S
O788 Tb761 2.658 . S
O788 C778 1.281 . S
O789 Tb761 2.409 . S
O789 C778 1.254 . S
O790 Tb761 2.378 . S
O790 C779 1.236 . S
O791 Tb760 2.341 . S
O791 C779 1.266 . S
H792 C764 0.929 . S
H793 C765 0.931 . S
H794 C767 0.930 . S
H795 C768 0.930 . S
H796 C773 0.929 . S
H797 C774 0.931 . S
H798 C776 0.930 . S
H799 C777 0.930 . S
Tb800 C802 2.809 . S
Tb800 O820 2.484 . S
Tb800 O821 2.440 . S
Tb800 O822 2.658 . S
Tb800 O823 2.409 . S
Tb800 O824 2.378 . S
Tb800 O828 2.325 . S
Tb800 O831 2.341 . S
Tb801 C811 2.809 . S
Tb801 O822 2.325 . S
Tb801 O825 2.341 . S
Tb801 O826 2.484 . S
Tb801 O827 2.440 . S
Tb801 O828 2.658 . S
Tb801 O829 2.409 . S
Tb801 O830 2.378 . S
C802 Tb800 2.809 . S
C802 C803 1.514 . S
C802 O820 1.248 . S
C802 O821 1.266 . S
C803 C802 1.514 . S
C803 C804 1.359 . S
C803 C808 1.348 . S
C804 C803 1.359 . S
C804 C805 1.380 . S
C804 H832 0.929 . S
C805 C804 1.380 . S
C805 C806 1.347 . S
C805 H833 0.931 . S
C806 C805 1.347 . S
C806 C807 1.369 . S
C807 C806 1.369 . S
C807 C808 1.408 . S
C807 H834 0.930 . S
C808 C803 1.348 . S
C808 C807 1.408 . S
C808 H835 0.930 . S
C809 O822 1.281 . S
C809 O823 1.254 . S
C810 O824 1.236 . S
C810 O825 1.266 . S
C811 Tb801 2.809 . S
C811 C812 1.514 . S
C811 O826 1.248 . S
C811 O827 1.266 . S
C812 C811 1.514 . S
C812 C813 1.359 . S
C812 C817 1.348 . S
C813 C812 1.359 . S
C813 C814 1.380 . S
C813 H836 0.929 . S
C814 C813 1.380 . S
C814 C815 1.347 . S
C814 H837 0.931 . S
C815 C814 1.347 . S
C815 C816 1.369 . S
C816 C815 1.369 . S
C816 C817 1.408 . S
C816 H838 0.930 . S
C817 C812 1.348 . S
C817 C816 1.408 . S
C817 H839 0.930 . S
C818 O828 1.281 . S
C818 O829 1.254 . S
C819 O830 1.236 . S
C819 O831 1.266 . S
O820 Tb800 2.484 . S
O820 C802 1.248 . S
O821 Tb800 2.440 . S
O821 C802 1.266 . S
O822 Tb800 2.658 . S
O822 Tb801 2.325 . S
O822 C809 1.281 . S
O823 Tb800 2.409 . S
O823 C809 1.254 . S
O824 Tb800 2.378 . S
O824 C810 1.236 . S
O825 Tb801 2.341 . S
O825 C810 1.266 . S
O826 Tb801 2.484 . S
O826 C811 1.248 . S
O827 Tb801 2.440 . S
O827 C811 1.266 . S
O828 Tb800 2.325 . S
O828 Tb801 2.658 . S
O828 C818 1.281 . S
O829 Tb801 2.409 . S
O829 C818 1.254 . S
O830 Tb801 2.378 . S
O830 C819 1.236 . S
O831 Tb800 2.341 . S
O831 C819 1.266 . S
H832 C804 0.929 . S
H833 C805 0.931 . S
H834 C807 0.930 . S
H835 C808 0.930 . S
H836 C813 0.929 . S
H837 C814 0.931 . S
H838 C816 0.930 . S
H839 C817 0.930 . S
Tb840 C842 2.809 1_556 S
Tb840 O860 2.484 1_556 S
Tb840 O861 2.444 . S
Tb840 O862 2.658 . S
Tb840 O863 2.409 . S
Tb840 O864 2.378 1_556 S
Tb840 O868 2.325 . S
Tb840 O871 2.341 . S
Tb841 C851 2.809 . S
Tb841 O862 2.325 . S
Tb841 O865 2.341 1_556 S
Tb841 O866 2.484 . S
Tb841 O867 2.440 . S
Tb841 O868 2.658 . S
Tb841 O869 2.409 . S
Tb841 O870 2.378 . S
C842 Tb840 2.809 1_554 S
C842 C843 1.514 . S
C842 O860 1.248 . S
C842 O861 1.260 1_554 S
C843 C842 1.514 . S
C843 C844 1.359 . S
C843 C848 1.348 . S
C844 C843 1.359 . S
C844 C845 1.380 . S
C844 H872 0.929 . S
C845 C844 1.380 . S
C845 C846 1.347 . S
C845 H873 0.931 . S
C846 C845 1.347 . S
C846 C847 1.369 . S
C847 C846 1.369 . S
C847 C848 1.408 . S
C847 H874 0.930 . S
C848 C843 1.348 . S
C848 C847 1.408 . S
C848 H875 0.930 . S
C849 O862 1.281 . S
C849 O863 1.254 . S
C850 O864 1.236 . S
C850 O865 1.266 . S
C851 Tb841 2.809 . S
C851 C852 1.514 . S
C851 O866 1.248 . S
C851 O867 1.266 . S
C852 C851 1.514 . S
C852 C853 1.359 . S
C852 C857 1.348 . S
C853 C852 1.359 . S
C853 C854 1.380 . S
C853 H876 0.929 . S
C854 C853 1.380 . S
C854 C855 1.347 . S
C854 H877 0.931 . S
C855 C854 1.347 . S
C855 C856 1.369 . S
C856 C855 1.369 . S
C856 C857 1.408 . S
C856 H878 0.930 . S
C857 C852 1.348 . S
C857 C856 1.408 . S
C857 H879 0.930 . S
C858 O868 1.281 . S
C858 O869 1.254 . S
C859 O870 1.236 . S
C859 O871 1.266 . S
O860 Tb840 2.484 1_554 S
O860 C842 1.248 . S
O861 Tb840 2.444 . S
O861 C842 1.260 1_556 S
O862 Tb840 2.658 . S
O862 Tb841 2.325 . S
O862 C849 1.281 . S
O863 Tb840 2.409 . S
O863 C849 1.254 . S
O864 Tb840 2.378 1_554 S
O864 C850 1.236 . S
O865 Tb841 2.341 1_554 S
O865 C850 1.266 . S
O866 Tb841 2.484 . S
O866 C851 1.248 . S
O867 Tb841 2.440 . S
O867 C851 1.266 . S
O868 Tb840 2.325 . S
O868 Tb841 2.658 . S
O868 C858 1.281 . S
O869 Tb841 2.409 . S
O869 C858 1.254 . S
O870 Tb841 2.378 . S
O870 C859 1.236 . S
O871 Tb840 2.341 . S
O871 C859 1.266 . S
H872 C844 0.929 . S
H873 C845 0.931 . S
H874 C847 0.930 . S
H875 C848 0.930 . S
H876 C853 0.929 . S
H877 C854 0.931 . S
H878 C856 0.930 . S
H879 C857 0.930 . S
Tb880 C882 2.809 . S
Tb880 O900 2.484 . S
Tb880 O901 2.440 . S
Tb880 O902 2.658 . S
Tb880 O903 2.409 . S
Tb880 O904 2.378 . S
Tb880 O908 2.325 . S
Tb880 O911 2.341 . S
Tb881 C891 2.809 . S
Tb881 O902 2.325 . S
Tb881 O905 2.341 . S
Tb881 O906 2.484 . S
Tb881 O907 2.440 . S
Tb881 O908 2.658 . S
Tb881 O909 2.409 . S
Tb881 O910 2.378 . S
C882 Tb880 2.809 . S
C882 C883 1.514 . S
C882 O900 1.248 . S
C882 O901 1.266 . S
C883 C882 1.514 . S
C883 C884 1.359 . S
C883 C888 1.348 . S
C884 C883 1.359 . S
C884 C885 1.380 . S
C884 H912 0.929 . S
C885 C884 1.380 . S
C885 C886 1.347 . S
C885 H913 0.931 . S
C886 C885 1.347 . S
C886 C887 1.369 . S
C887 C886 1.369 . S
C887 C888 1.408 . S
C887 H914 0.930 . S
C888 C883 1.348 . S
C888 C887 1.408 . S
C888 H915 0.930 . S
C889 O902 1.281 . S
C889 O903 1.254 . S
C890 O904 1.236 . S
C890 O905 1.266 . S
C891 Tb881 2.809 . S
C891 C892 1.514 . S
C891 O906 1.248 . S
C891 O907 1.266 . S
C892 C891 1.514 . S
C892 C893 1.359 . S
C892 C897 1.348 . S
C893 C892 1.359 . S
C893 C894 1.380 . S
C893 H916 0.929 . S
C894 C893 1.380 . S
C894 C895 1.347 . S
C894 H917 0.931 . S
C895 C894 1.347 . S
C895 C896 1.369 . S
C896 C895 1.369 . S
C896 C897 1.408 . S
C896 H918 0.930 1_655 S
C897 C892 1.348 . S
C897 C896 1.408 . S
C897 H919 0.930 . S
C898 O908 1.281 . S
C898 O909 1.254 . S
C899 O910 1.236 . S
C899 O911 1.266 . S
O900 Tb880 2.484 . S
O900 C882 1.248 . S
O901 Tb880 2.440 . S
O901 C882 1.266 . S
O902 Tb880 2.658 . S
O902 Tb881 2.325 . S
O902 C889 1.281 . S
O903 Tb880 2.409 . S
O903 C889 1.254 . S
O904 Tb880 2.378 . S
O904 C890 1.236 . S
O905 Tb881 2.341 . S
O905 C890 1.266 . S
O906 Tb881 2.484 . S
O906 C891 1.248 . S
O907 Tb881 2.440 . S
O907 C891 1.266 . S
O908 Tb880 2.325 . S
O908 Tb881 2.658 . S
O908 C898 1.281 . S
O909 Tb881 2.409 . S
O909 C898 1.254 . S
O910 Tb881 2.378 . S
O910 C899 1.236 . S
O911 Tb880 2.341 . S
O911 C899 1.266 . S
H912 C884 0.929 . S
H913 C885 0.931 . S
H914 C887 0.930 . S
H915 C888 0.930 . S
H916 C893 0.929 . S
H917 C894 0.931 . S
H918 C896 0.930 1_455 S
H919 C897 0.930 . S
Tb920 C922 2.809 . S
Tb920 O940 2.484 . S
Tb920 O941 2.440 . S
Tb920 O942 2.658 . S
Tb920 O943 2.409 . S
Tb920 O944 2.378 . S
Tb920 O948 2.325 . S
Tb920 O951 2.341 . S
Tb921 C931 2.809 . S
Tb921 O942 2.325 . S
Tb921 O945 2.341 . S
Tb921 O946 2.484 . S
Tb921 O947 2.440 . S
Tb921 O948 2.658 . S
Tb921 O949 2.409 . S
Tb921 O950 2.378 . S
C922 Tb920 2.809 . S
C922 C923 1.514 . S
C922 O940 1.248 . S
C922 O941 1.266 . S
C923 C922 1.514 . S
C923 C924 1.359 . S
C923 C928 1.348 . S
C924 C923 1.359 . S
C924 C925 1.380 . S
C924 H952 0.929 . S
C925 C924 1.380 . S
C925 C926 1.347 . S
C925 H953 0.931 . S
C926 C925 1.347 . S
C926 C927 1.369 . S
C927 C926 1.369 . S
C927 C928 1.408 . S
C927 H954 0.930 . S
C928 C923 1.348 . S
C928 C927 1.408 . S
C928 H955 0.930 . S
C929 O942 1.281 . S
C929 O943 1.254 . S
C930 O944 1.236 . S
C930 O945 1.266 . S
C931 Tb921 2.809 . S
C931 C932 1.514 . S
C931 O946 1.248 . S
C931 O947 1.266 . S
C932 C931 1.514 . S
C932 C933 1.359 . S
C932 C937 1.348 . S
C933 C932 1.359 . S
C933 C934 1.380 . S
C933 H956 0.929 . S
C934 C933 1.380 . S
C934 C935 1.347 . S
C934 H957 0.931 . S
C935 C934 1.347 . S
C935 C936 1.369 . S
C936 C935 1.369 . S
C936 C937 1.408 . S
C936 H958 0.930 . S
C937 C932 1.348 . S
C937 C936 1.408 . S
C937 H959 0.930 . S
C938 O948 1.281 . S
C938 O949 1.254 . S
C939 O950 1.236 . S
C939 O951 1.266 . S
O940 Tb920 2.484 . S
O940 C922 1.248 . S
O941 Tb920 2.440 . S
O941 C922 1.266 . S
O942 Tb920 2.658 . S
O942 Tb921 2.325 . S
O942 C929 1.281 . S
O943 Tb920 2.409 . S
O943 C929 1.254 . S
O944 Tb920 2.378 . S
O944 C930 1.236 . S
O945 Tb921 2.341 . S
O945 C930 1.266 . S
O946 Tb921 2.484 . S
O946 C931 1.248 . S
O947 Tb921 2.440 . S
O947 C931 1.266 . S
O948 Tb920 2.325 . S
O948 Tb921 2.658 . S
O948 C938 1.281 . S
O949 Tb921 2.409 . S
O949 C938 1.254 . S
O950 Tb921 2.378 . S
O950 C939 1.236 . S
O951 Tb920 2.341 . S
O951 C939 1.266 . S
H952 C924 0.929 . S
H953 C925 0.931 . S
H954 C927 0.930 . S
H955 C928 0.930 . S
H956 C933 0.929 . S
H957 C934 0.931 . S
H958 C936 0.930 . S
H959 C937 0.930 . S
Tb960 C962 2.809 . S
Tb960 O980 2.484 . S
Tb960 O981 2.440 . S
Tb960 O982 2.658 . S
Tb960 O983 2.409 . S
Tb960 O984 2.378 . S
Tb960 O988 2.325 . S
Tb960 O991 2.341 . S
Tb961 C971 2.809 . S
Tb961 O982 2.325 . S
Tb961 O985 2.341 . S
Tb961 O986 2.484 . S
Tb961 O987 2.440 . S
Tb961 O988 2.658 . S
Tb961 O989 2.409 . S
Tb961 O990 2.378 . S
C962 Tb960 2.809 . S
C962 C963 1.514 . S
C962 O980 1.248 . S
C962 O981 1.266 . S
C963 C962 1.514 . S
C963 C964 1.359 . S
C963 C968 1.348 . S
C964 C963 1.359 . S
C964 C965 1.380 . S
C964 H992 0.929 . S
C965 C964 1.380 . S
C965 C966 1.347 . S
C965 H993 0.931 . S
C966 C965 1.347 . S
C966 C967 1.369 . S
C967 C966 1.369 . S
C967 C968 1.408 . S
C967 H994 0.930 . S
C968 C963 1.348 . S
C968 C967 1.408 . S
C968 H995 0.930 . S
C969 O982 1.281 . S
C969 O983 1.254 . S
C970 O984 1.236 . S
C970 O985 1.266 . S
C971 Tb961 2.809 . S
C971 C972 1.514 . S
C971 O986 1.248 . S
C971 O987 1.266 . S
C972 C971 1.514 . S
C972 C973 1.359 . S
C972 C977 1.348 . S
C973 C972 1.359 . S
C973 C974 1.380 . S
C973 H996 0.929 . S
C974 C973 1.380 . S
C974 C975 1.347 . S
C974 H997 0.931 . S
C975 C974 1.347 . S
C975 C976 1.369 . S
C976 C975 1.369 . S
C976 C977 1.408 . S
C976 H998 0.930 . S
C977 C972 1.348 . S
C977 C976 1.408 . S
C977 H999 0.930 . S
C978 O988 1.281 . S
C978 O989 1.254 . S
C979 O990 1.236 . S
C979 O991 1.266 . S
O980 Tb960 2.484 . S
O980 C962 1.248 . S
O981 Tb960 2.440 . S
O981 C962 1.266 . S
O982 Tb960 2.658 . S
O982 Tb961 2.325 . S
O982 C969 1.281 . S
O983 Tb960 2.409 . S
O983 C969 1.254 . S
O984 Tb960 2.378 . S
O984 C970 1.236 . S
O985 Tb961 2.341 . S
O985 C970 1.266 . S
O986 Tb961 2.484 . S
O986 C971 1.248 . S
O987 Tb961 2.440 . S
O987 C971 1.266 . S
O988 Tb960 2.325 . S
O988 Tb961 2.658 . S
O988 C978 1.281 . S
O989 Tb961 2.409 . S
O989 C978 1.254 . S
O990 Tb961 2.378 . S
O990 C979 1.236 . S
O991 Tb960 2.341 . S
O991 C979 1.266 . S
H992 C964 0.929 . S
H993 C965 0.931 . S
H994 C967 0.930 . S
H995 C968 0.930 . S
H996 C973 0.929 . S
H997 C974 0.931 . S
H998 C976 0.930 . S
H999 C977 0.930 . S
Tb1000 C1002 2.809 . S
Tb1000 O1020 2.484 . S
Tb1000 O1021 2.440 . S
Tb1000 O1022 2.658 . S
Tb1000 O1023 2.409 . S
Tb1000 O1024 2.378 . S
Tb1000 O1028 2.325 . S
Tb1000 O1031 2.341 1_556 S
Tb1001 C1011 2.809 1_556 S
Tb1001 O1022 2.325 . S
Tb1001 O1025 2.341 . S
Tb1001 O1026 2.484 1_556 S
Tb1001 O1027 2.444 . S
Tb1001 O1028 2.658 . S
Tb1001 O1029 2.409 . S
Tb1001 O1030 2.378 1_556 S
C1002 Tb1000 2.809 . S
C1002 C1003 1.514 . S
C1002 O1020 1.248 . S
C1002 O1021 1.266 . S
C1003 C1002 1.514 . S
C1003 C1004 1.359 . S
C1003 C1008 1.348 . S
C1004 C1003 1.359 . S
C1004 C1005 1.380 . S
C1004 H1032 0.929 . S
C1005 C1004 1.380 . S
C1005 C1006 1.347 . S
C1005 H1033 0.931 . S
C1006 C1005 1.347 . S
C1006 C1007 1.369 . S
C1007 C1006 1.369 . S
C1007 C1008 1.408 . S
C1007 H1034 0.930 . S
C1008 C1003 1.348 . S
C1008 C1007 1.408 . S
C1008 H1035 0.930 . S
C1009 O1022 1.281 . S
C1009 O1023 1.254 . S
C1010 O1024 1.236 . S
C1010 O1025 1.266 . S
C1011 Tb1001 2.809 1_554 S
C1011 C1012 1.514 . S
C1011 O1026 1.248 . S
C1011 O1027 1.260 1_554 S
C1012 C1011 1.514 . S
C1012 C1013 1.359 . S
C1012 C1017 1.348 . S
C1013 C1012 1.359 . S
C1013 C1014 1.380 . S
C1013 H1036 0.929 . S
C1014 C1013 1.380 . S
C1014 C1015 1.347 . S
C1014 H1037 0.931 . S
C1015 C1014 1.347 . S
C1015 C1016 1.369 . S
C1016 C1015 1.369 . S
C1016 C1017 1.408 . S
C1016 H1038 0.930 . S
C1017 C1012 1.348 . S
C1017 C1016 1.408 . S
C1017 H1039 0.930 . S
C1018 O1028 1.281 . S
C1018 O1029 1.254 . S
C1019 O1030 1.236 . S
C1019 O1031 1.266 . S
O1020 Tb1000 2.484 . S
O1020 C1002 1.248 . S
O1021 Tb1000 2.440 . S
O1021 C1002 1.266 . S
O1022 Tb1000 2.658 . S
O1022 Tb1001 2.325 . S
O1022 C1009 1.281 . S
O1023 Tb1000 2.409 . S
O1023 C1009 1.254 . S
O1024 Tb1000 2.378 . S
O1024 C1010 1.236 . S
O1025 Tb1001 2.341 . S
O1025 C1010 1.266 . S
O1026 Tb1001 2.484 1_554 S
O1026 C1011 1.248 . S
O1027 Tb1001 2.444 . S
O1027 C1011 1.260 1_556 S
O1028 Tb1000 2.325 . S
O1028 Tb1001 2.658 . S
O1028 C1018 1.281 . S
O1029 Tb1001 2.409 . S
O1029 C1018 1.254 . S
O1030 Tb1001 2.378 1_554 S
O1030 C1019 1.236 . S
O1031 Tb1000 2.341 1_554 S
O1031 C1019 1.266 . S
H1032 C1004 0.929 . S
H1033 C1005 0.931 . S
H1034 C1007 0.930 . S
H1035 C1008 0.930 . S
H1036 C1013 0.929 . S
H1037 C1014 0.931 . S
H1038 C1016 0.930 . S
H1039 C1017 0.930 . S
Tb1040 C1042 2.809 . S
Tb1040 O1060 2.484 . S
Tb1040 O1061 2.440 . S
Tb1040 O1062 2.658 . S
Tb1040 O1063 2.409 . S
Tb1040 O1064 2.378 . S
Tb1040 O1068 2.325 . S
Tb1040 O1071 2.341 . S
Tb1041 C1051 2.809 . S
Tb1041 O1062 2.325 . S
Tb1041 O1065 2.341 . S
Tb1041 O1066 2.484 . S
Tb1041 O1067 2.440 . S
Tb1041 O1068 2.658 . S
Tb1041 O1069 2.409 . S
Tb1041 O1070 2.378 . S
C1042 Tb1040 2.809 . S
C1042 C1043 1.514 . S
C1042 O1060 1.248 . S
C1042 O1061 1.266 . S
C1043 C1042 1.514 . S
C1043 C1044 1.359 . S
C1043 C1048 1.348 . S
C1044 C1043 1.359 . S
C1044 C1045 1.380 . S
C1044 H1072 0.929 . S
C1045 C1044 1.380 . S
C1045 C1046 1.347 . S
C1045 H1073 0.931 . S
C1046 C1045 1.347 . S
C1046 C1047 1.369 . S
C1047 C1046 1.369 . S
C1047 C1048 1.408 . S
C1047 H1074 0.930 1_455 S
C1048 C1043 1.348 . S
C1048 C1047 1.408 . S
C1048 H1075 0.930 . S
C1049 O1062 1.281 . S
C1049 O1063 1.254 . S
C1050 O1064 1.236 . S
C1050 O1065 1.266 . S
C1051 Tb1041 2.809 . S
C1051 C1052 1.514 . S
C1051 O1066 1.248 . S
C1051 O1067 1.266 . S
C1052 C1051 1.514 . S
C1052 C1053 1.359 . S
C1052 C1057 1.348 . S
C1053 C1052 1.359 . S
C1053 C1054 1.380 . S
C1053 H1076 0.929 . S
C1054 C1053 1.380 . S
C1054 C1055 1.347 . S
C1054 H1077 0.931 . S
C1055 C1054 1.347 . S
C1055 C1056 1.369 . S
C1056 C1055 1.369 . S
C1056 C1057 1.408 . S
C1056 H1078 0.930 . S
C1057 C1052 1.348 . S
C1057 C1056 1.408 . S
C1057 H1079 0.930 . S
C1058 O1068 1.281 . S
C1058 O1069 1.254 . S
C1059 O1070 1.236 . S
C1059 O1071 1.266 . S
O1060 Tb1040 2.484 . S
O1060 C1042 1.248 . S
O1061 Tb1040 2.440 . S
O1061 C1042 1.266 . S
O1062 Tb1040 2.658 . S
O1062 Tb1041 2.325 . S
O1062 C1049 1.281 . S
O1063 Tb1040 2.409 . S
O1063 C1049 1.254 . S
O1064 Tb1040 2.378 . S
O1064 C1050 1.236 . S
O1065 Tb1041 2.341 . S
O1065 C1050 1.266 . S
O1066 Tb1041 2.484 . S
O1066 C1051 1.248 . S
O1067 Tb1041 2.440 . S
O1067 C1051 1.266 . S
O1068 Tb1040 2.325 . S
O1068 Tb1041 2.658 . S
O1068 C1058 1.281 . S
O1069 Tb1041 2.409 . S
O1069 C1058 1.254 . S
O1070 Tb1041 2.378 . S
O1070 C1059 1.236 . S
O1071 Tb1040 2.341 . S
O1071 C1059 1.266 . S
H1072 C1044 0.929 . S
H1073 C1045 0.931 . S
H1074 C1047 0.930 1_655 S
H1075 C1048 0.930 . S
H1076 C1053 0.929 . S
H1077 C1054 0.931 . S
H1078 C1056 0.930 . S
H1079 C1057 0.930 . S
Tb1080 C1082 2.809 . S
Tb1080 O1100 2.484 . S
Tb1080 O1101 2.440 . S
Tb1080 O1102 2.658 . S
Tb1080 O1103 2.409 . S
Tb1080 O1104 2.378 . S
Tb1080 O1108 2.325 . S
Tb1080 O1111 2.341 . S
Tb1081 C1091 2.809 . S
Tb1081 O1102 2.325 . S
Tb1081 O1105 2.341 . S
Tb1081 O1106 2.484 . S
Tb1081 O1107 2.440 . S
Tb1081 O1108 2.658 . S
Tb1081 O1109 2.409 . S
Tb1081 O1110 2.378 . S
C1082 Tb1080 2.809 . S
C1082 C1083 1.514 . S
C1082 O1100 1.248 . S
C1082 O1101 1.266 . S
C1083 C1082 1.514 . S
C1083 C1084 1.359 . S
C1083 C1088 1.348 . S
C1084 C1083 1.359 . S
C1084 C1085 1.380 . S
C1084 H1112 0.929 . S
C1085 C1084 1.380 . S
C1085 C1086 1.347 . S
C1085 H1113 0.931 . S
C1086 C1085 1.347 . S
C1086 C1087 1.369 . S
C1087 C1086 1.369 . S
C1087 C1088 1.408 . S
C1087 H1114 0.930 . S
C1088 C1083 1.348 . S
C1088 C1087 1.408 . S
C1088 H1115 0.930 . S
C1089 O1102 1.281 . S
C1089 O1103 1.254 . S
C1090 O1104 1.236 . S
C1090 O1105 1.266 . S
C1091 Tb1081 2.809 . S
C1091 C1092 1.514 . S
C1091 O1106 1.248 . S
C1091 O1107 1.266 . S
C1092 C1091 1.514 . S
C1092 C1093 1.359 . S
C1092 C1097 1.348 . S
C1093 C1092 1.359 . S
C1093 C1094 1.380 . S
C1093 H1116 0.929 . S
C1094 C1093 1.380 . S
C1094 C1095 1.347 . S
C1094 H1117 0.931 . S
C1095 C1094 1.347 . S
C1095 C1096 1.369 . S
C1096 C1095 1.369 . S
C1096 C1097 1.408 . S
C1096 H1118 0.930 . S
C1097 C1092 1.348 . S
C1097 C1096 1.408 . S
C1097 H1119 0.930 . S
C1098 O1108 1.281 . S
C1098 O1109 1.254 . S
C1099 O1110 1.236 . S
C1099 O1111 1.266 . S
O1100 Tb1080 2.484 . S
O1100 C1082 1.248 . S
O1101 Tb1080 2.440 . S
O1101 C1082 1.266 . S
O1102 Tb1080 2.658 . S
O1102 Tb1081 2.325 . S
O1102 C1089 1.281 . S
O1103 Tb1080 2.409 . S
O1103 C1089 1.254 . S
O1104 Tb1080 2.378 . S
O1104 C1090 1.236 . S
O1105 Tb1081 2.341 . S
O1105 C1090 1.266 . S
O1106 Tb1081 2.484 . S
O1106 C1091 1.248 . S
O1107 Tb1081 2.440 . S
O1107 C1091 1.266 . S
O1108 Tb1080 2.325 . S
O1108 Tb1081 2.658 . S
O1108 C1098 1.281 . S
O1109 Tb1081 2.409 . S
O1109 C1098 1.254 . S
O1110 Tb1081 2.378 . S
O1110 C1099 1.236 . S
O1111 Tb1080 2.341 . S
O1111 C1099 1.266 . S
H1112 C1084 0.929 . S
H1113 C1085 0.931 . S
H1114 C1087 0.930 . S
H1115 C1088 0.930 . S
H1116 C1093 0.929 . S
H1117 C1094 0.931 . S
H1118 C1096 0.930 . S
H1119 C1097 0.930 . S
Tb1120 C1122 2.809 . S
Tb1120 O1140 2.484 . S
Tb1120 O1141 2.440 . S
Tb1120 O1142 2.658 . S
Tb1120 O1143 2.409 . S
Tb1120 O1144 2.378 . S
Tb1120 O1148 2.325 . S
Tb1120 O1151 2.341 . S
Tb1121 C1131 2.809 . S
Tb1121 O1142 2.325 . S
Tb1121 O1145 2.341 . S
Tb1121 O1146 2.484 . S
Tb1121 O1147 2.440 . S
Tb1121 O1148 2.658 . S
Tb1121 O1149 2.409 . S
Tb1121 O1150 2.378 . S
C1122 Tb1120 2.809 . S
C1122 C1123 1.514 . S
C1122 O1140 1.248 . S
C1122 O1141 1.266 . S
C1123 C1122 1.514 . S
C1123 C1124 1.359 . S
C1123 C1128 1.348 . S
C1124 C1123 1.359 . S
C1124 C1125 1.380 . S
C1124 H1152 0.929 . S
C1125 C1124 1.380 . S
C1125 C1126 1.347 . S
C1125 H1153 0.931 . S
C1126 C1125 1.347 . S
C1126 C1127 1.369 . S
C1127 C1126 1.369 . S
C1127 C1128 1.408 . S
C1127 H1154 0.930 . S
C1128 C1123 1.348 . S
C1128 C1127 1.408 . S
C1128 H1155 0.930 . S
C1129 O1142 1.281 . S
C1129 O1143 1.254 . S
C1130 O1144 1.236 . S
C1130 O1145 1.266 . S
C1131 Tb1121 2.809 . S
C1131 C1132 1.514 . S
C1131 O1146 1.248 . S
C1131 O1147 1.266 . S
C1132 C1131 1.514 . S
C1132 C1133 1.359 . S
C1132 C1137 1.348 . S
C1133 C1132 1.359 . S
C1133 C1134 1.380 . S
C1133 H1156 0.929 . S
C1134 C1133 1.380 . S
C1134 C1135 1.347 . S
C1134 H1157 0.931 . S
C1135 C1134 1.347 . S
C1135 C1136 1.369 . S
C1136 C1135 1.369 . S
C1136 C1137 1.408 . S
C1136 H1158 0.930 . S
C1137 C1132 1.348 . S
C1137 C1136 1.408 . S
C1137 H1159 0.930 . S
C1138 O1148 1.281 . S
C1138 O1149 1.254 . S
C1139 O1150 1.236 . S
C1139 O1151 1.266 . S
O1140 Tb1120 2.484 . S
O1140 C1122 1.248 . S
O1141 Tb1120 2.440 . S
O1141 C1122 1.266 . S
O1142 Tb1120 2.658 . S
O1142 Tb1121 2.325 . S
O1142 C1129 1.281 . S
O1143 Tb1120 2.409 . S
O1143 C1129 1.254 . S
O1144 Tb1120 2.378 . S
O1144 C1130 1.236 . S
O1145 Tb1121 2.341 . S
O1145 C1130 1.266 . S
O1146 Tb1121 2.484 . S
O1146 C1131 1.248 . S
O1147 Tb1121 2.440 . S
O1147 C1131 1.266 . S
O1148 Tb1120 2.325 . S
O1148 Tb1121 2.658 . S
O1148 C1138 1.281 . S
O1149 Tb1121 2.409 . S
O1149 C1138 1.254 . S
O1150 Tb1121 2.378 . S
O1150 C1139 1.236 . S
O1151 Tb1120 2.341 . S
O1151 C1139 1.266 . S
H1152 C1124 0.929 . S
H1153 C1125 0.931 . S
H1154 C1127 0.930 . S
H1155 C1128 0.930 . S
H1156 C1133 0.929 . S
H1157 C1134 0.931 . S
H1158 C1136 0.930 . S
H1159 C1137 0.930 . S
Tb1160 C1162 2.809 . S
Tb1160 O1180 2.484 . S
Tb1160 O1181 2.440 . S
Tb1160 O1182 2.658 . S
Tb1160 O1183 2.409 . S
Tb1160 O1184 2.378 . S
Tb1160 O1188 2.325 . S
Tb1160 O1191 2.341 1_554 S
Tb1161 C1171 2.809 1_554 S
Tb1161 O1182 2.325 . S
Tb1161 O1185 2.341 . S
Tb1161 O1186 2.484 1_554 S
Tb1161 O1187 2.444 . S
Tb1161 O1188 2.658 . S
Tb1161 O1189 2.409 . S
Tb1161 O1190 2.378 1_554 S
C1162 Tb1160 2.809 . S
C1162 C1163 1.514 . S
C1162 O1180 1.248 . S
C1162 O1181 1.266 . S
C1163 C1162 1.514 . S
C1163 C1164 1.359 . S
C1163 C1168 1.348 . S
C1164 C1163 1.359 . S
C1164 C1165 1.380 . S
C1164 H1192 0.929 . S
C1165 C1164 1.380 . S
C1165 C1166 1.347 . S
C1165 H1193 0.931 . S
C1166 C1165 1.347 . S
C1166 C1167 1.369 . S
C1167 C1166 1.369 . S
C1167 C1168 1.408 . S
C1167 H1194 0.930 . S
C1168 C1163 1.348 . S
C1168 C1167 1.408 . S
C1168 H1195 0.930 . S
C1169 O1182 1.281 . S
C1169 O1183 1.254 . S
C1170 O1184 1.236 . S
C1170 O1185 1.266 . S
C1171 Tb1161 2.809 1_556 S
C1171 C1172 1.514 . S
C1171 O1186 1.248 . S
C1171 O1187 1.260 1_556 S
C1172 C1171 1.514 . S
C1172 C1173 1.359 . S
C1172 C1177 1.348 . S
C1173 C1172 1.359 . S
C1173 C1174 1.380 . S
C1173 H1196 0.929 . S
C1174 C1173 1.380 . S
C1174 C1175 1.347 . S
C1174 H1197 0.931 . S
C1175 C1174 1.347 . S
C1175 C1176 1.369 . S
C1176 C1175 1.369 . S
C1176 C1177 1.408 . S
C1176 H1198 0.930 . S
C1177 C1172 1.348 . S
C1177 C1176 1.408 . S
C1177 H1199 0.930 . S
C1178 O1188 1.281 . S
C1178 O1189 1.254 . S
C1179 O1190 1.236 . S
C1179 O1191 1.266 . S
O1180 Tb1160 2.484 . S
O1180 C1162 1.248 . S
O1181 Tb1160 2.440 . S
O1181 C1162 1.266 . S
O1182 Tb1160 2.658 . S
O1182 Tb1161 2.325 . S
O1182 C1169 1.281 . S
O1183 Tb1160 2.409 . S
O1183 C1169 1.254 . S
O1184 Tb1160 2.378 . S
O1184 C1170 1.236 . S
O1185 Tb1161 2.341 . S
O1185 C1170 1.266 . S
O1186 Tb1161 2.484 1_556 S
O1186 C1171 1.248 . S
O1187 Tb1161 2.444 . S
O1187 C1171 1.260 1_554 S
O1188 Tb1160 2.325 . S
O1188 Tb1161 2.658 . S
O1188 C1178 1.281 . S
O1189 Tb1161 2.409 . S
O1189 C1178 1.254 . S
O1190 Tb1161 2.378 1_556 S
O1190 C1179 1.236 . S
O1191 Tb1160 2.341 1_556 S
O1191 C1179 1.266 . S
H1192 C1164 0.929 . S
H1193 C1165 0.931 . S
H1194 C1167 0.930 . S
H1195 C1168 0.930 . S
H1196 C1173 0.929 . S
H1197 C1174 0.931 . S
H1198 C1176 0.930 . S
H1199 C1177 0.930 . S
Tb1200 C1202 2.809 . S
Tb1200 O1220 2.484 . S
Tb1200 O1221 2.440 . S
Tb1200 O1222 2.658 . S
Tb1200 O1223 2.409 . S
Tb1200 O1224 2.378 . S
Tb1200 O1228 2.325 . S
Tb1200 O1231 2.341 . S
Tb1201 C1211 2.809 . S
Tb1201 O1222 2.325 . S
Tb1201 O1225 2.341 . S
Tb1201 O1226 2.484 . S
Tb1201 O1227 2.440 . S
Tb1201 O1228 2.658 . S
Tb1201 O1229 2.409 . S
Tb1201 O1230 2.378 . S
C1202 Tb1200 2.809 . S
C1202 C1203 1.514 . S
C1202 O1220 1.248 . S
C1202 O1221 1.266 . S
C1203 C1202 1.514 . S
C1203 C1204 1.359 . S
C1203 C1208 1.348 . S
C1204 C1203 1.359 . S
C1204 C1205 1.380 . S
C1204 H1232 0.929 . S
C1205 C1204 1.380 . S
C1205 C1206 1.347 . S
C1205 H1233 0.931 . S
C1206 C1205 1.347 . S
C1206 C1207 1.369 . S
C1207 C1206 1.369 . S
C1207 C1208 1.408 . S
C1207 H1234 0.930 1_455 S
C1208 C1203 1.348 . S
C1208 C1207 1.408 . S
C1208 H1235 0.930 . S
C1209 O1222 1.281 . S
C1209 O1223 1.254 . S
C1210 O1224 1.236 . S
C1210 O1225 1.266 . S
C1211 Tb1201 2.809 . S
C1211 C1212 1.514 . S
C1211 O1226 1.248 . S
C1211 O1227 1.266 . S
C1212 C1211 1.514 . S
C1212 C1213 1.359 . S
C1212 C1217 1.348 . S
C1213 C1212 1.359 . S
C1213 C1214 1.380 . S
C1213 H1236 0.929 . S
C1214 C1213 1.380 . S
C1214 C1215 1.347 . S
C1214 H1237 0.931 . S
C1215 C1214 1.347 . S
C1215 C1216 1.369 . S
C1216 C1215 1.369 . S
C1216 C1217 1.408 . S
C1216 H1238 0.930 . S
C1217 C1212 1.348 . S
C1217 C1216 1.408 . S
C1217 H1239 0.930 . S
C1218 O1228 1.281 . S
C1218 O1229 1.254 . S
C1219 O1230 1.236 . S
C1219 O1231 1.266 . S
O1220 Tb1200 2.484 . S
O1220 C1202 1.248 . S
O1221 Tb1200 2.440 . S
O1221 C1202 1.266 . S
O1222 Tb1200 2.658 . S
O1222 Tb1201 2.325 . S
O1222 C1209 1.281 . S
O1223 Tb1200 2.409 . S
O1223 C1209 1.254 . S
O1224 Tb1200 2.378 . S
O1224 C1210 1.236 . S
O1225 Tb1201 2.341 . S
O1225 C1210 1.266 . S
O1226 Tb1201 2.484 . S
O1226 C1211 1.248 . S
O1227 Tb1201 2.440 . S
O1227 C1211 1.266 . S
O1228 Tb1200 2.325 . S
O1228 Tb1201 2.658 . S
O1228 C1218 1.281 . S
O1229 Tb1201 2.409 . S
O1229 C1218 1.254 . S
O1230 Tb1201 2.378 . S
O1230 C1219 1.236 . S
O1231 Tb1200 2.341 . S
O1231 C1219 1.266 . S
H1232 C1204 0.929 . S
H1233 C1205 0.931 . S
H1234 C1207 0.930 1_655 S
H1235 C1208 0.930 . S
H1236 C1213 0.929 . S
H1237 C1214 0.931 . S
H1238 C1216 0.930 . S
H1239 C1217 0.930 . S
Tb1240 C1242 2.809 . S
Tb1240 O1260 2.484 . S
Tb1240 O1261 2.440 . S
Tb1240 O1262 2.658 . S
Tb1240 O1263 2.409 . S
Tb1240 O1264 2.378 . S
Tb1240 O1268 2.325 . S
Tb1240 O1271 2.341 . S
Tb1241 C1251 2.809 . S
Tb1241 O1262 2.325 . S
Tb1241 O1265 2.341 . S
Tb1241 O1266 2.484 . S
Tb1241 O1267 2.440 . S
Tb1241 O1268 2.658 . S
Tb1241 O1269 2.409 . S
Tb1241 O1270 2.378 . S
C1242 Tb1240 2.809 . S
C1242 C1243 1.514 . S
C1242 O1260 1.248 . S
C1242 O1261 1.266 . S
C1243 C1242 1.514 . S
C1243 C1244 1.359 . S
C1243 C1248 1.348 . S
C1244 C1243 1.359 . S
C1244 C1245 1.380 . S
C1244 H1272 0.929 . S
C1245 C1244 1.380 . S
C1245 C1246 1.347 . S
C1245 H1273 0.931 . S
C1246 C1245 1.347 . S
C1246 C1247 1.369 . S
C1247 C1246 1.369 . S
C1247 C1248 1.408 . S
C1247 H1274 0.930 . S
C1248 C1243 1.348 . S
C1248 C1247 1.408 . S
C1248 H1275 0.930 . S
C1249 O1262 1.281 . S
C1249 O1263 1.254 . S
C1250 O1264 1.236 . S
C1250 O1265 1.266 . S
C1251 Tb1241 2.809 . S
C1251 C1252 1.514 . S
C1251 O1266 1.248 . S
C1251 O1267 1.266 . S
C1252 C1251 1.514 . S
C1252 C1253 1.359 . S
C1252 C1257 1.348 . S
C1253 C1252 1.359 . S
C1253 C1254 1.380 . S
C1253 H1276 0.929 . S
C1254 C1253 1.380 . S
C1254 C1255 1.347 . S
C1254 H1277 0.931 . S
C1255 C1254 1.347 . S
C1255 C1256 1.369 . S
C1256 C1255 1.369 . S
C1256 C1257 1.408 . S
C1256 H1278 0.930 . S
C1257 C1252 1.348 . S
C1257 C1256 1.408 . S
C1257 H1279 0.930 . S
C1258 O1268 1.281 . S
C1258 O1269 1.254 . S
C1259 O1270 1.236 . S
C1259 O1271 1.266 . S
O1260 Tb1240 2.484 . S
O1260 C1242 1.248 . S
O1261 Tb1240 2.440 . S
O1261 C1242 1.266 . S
O1262 Tb1240 2.658 . S
O1262 Tb1241 2.325 . S
O1262 C1249 1.281 . S
O1263 Tb1240 2.409 . S
O1263 C1249 1.254 . S
O1264 Tb1240 2.378 . S
O1264 C1250 1.236 . S
O1265 Tb1241 2.341 . S
O1265 C1250 1.266 . S
O1266 Tb1241 2.484 . S
O1266 C1251 1.248 . S
O1267 Tb1241 2.440 . S
O1267 C1251 1.266 . S
O1268 Tb1240 2.325 . S
O1268 Tb1241 2.658 . S
O1268 C1258 1.281 . S
O1269 Tb1241 2.409 . S
O1269 C1258 1.254 . S
O1270 Tb1241 2.378 . S
O1270 C1259 1.236 . S
O1271 Tb1240 2.341 . S
O1271 C1259 1.266 . S
H1272 C1244 0.929 . S
H1273 C1245 0.931 . S
H1274 C1247 0.930 . S
H1275 C1248 0.930 . S
H1276 C1253 0.929 . S
H1277 C1254 0.931 . S
H1278 C1256 0.930 . S
H1279 C1257 0.930 . S
H1280 C1286 0.930 . S
H1281 C1289 0.930 . S
H1282 C1290 0.930 . S
H1283 C1291 0.930 . S
H1284 C1294 0.930 . S
H1285 C1295 0.930 . S
C1286 H1280 0.930 . S
C1286 C1287 1.355 . S
C1286 C1288 1.415 . S
C1287 C1286 1.355 . S
C1287 C1289 1.419 . S
C1288 C1286 1.415 . S
C1288 C1293 1.425 . S
C1288 C1295 1.409 . S
C1289 H1281 0.930 . S
C1289 C1287 1.419 . S
C1289 C1290 1.362 . S
C1290 H1282 0.930 . S
C1290 C1289 1.362 . S
C1290 C1293 1.409 . S
C1291 H1283 0.930 . S
C1291 C1292 1.355 . S
C1291 C1293 1.415 . S
C1292 C1291 1.355 . S
C1292 C1294 1.419 . S
C1293 C1288 1.425 . S
C1293 C1290 1.409 . S
C1293 C1291 1.415 . S
C1294 H1284 0.930 . S
C1294 C1292 1.419 . S
C1294 C1295 1.362 . S
C1295 H1285 0.930 . S
C1295 C1288 1.409 . S
C1295 C1294 1.362 . S
H1296 C1302 0.930 . S
H1297 C1305 0.930 . S
H1298 C1306 0.930 . S
H1299 C1307 0.930 . S
H1300 C1310 0.930 . S
H1301 C1311 0.930 . S
C1302 H1296 0.930 . S
C1302 C1303 1.355 . S
C1302 C1304 1.415 . S
C1303 C1302 1.355 . S
C1303 C1305 1.419 . S
C1304 C1302 1.415 . S
C1304 C1309 1.425 . S
C1304 C1311 1.409 . S
C1305 H1297 0.930 . S
C1305 C1303 1.419 . S
C1305 C1306 1.362 . S
C1306 H1298 0.930 . S
C1306 C1305 1.362 . S
C1306 C1309 1.409 . S
C1307 H1299 0.930 . S
C1307 C1308 1.355 . S
C1307 C1309 1.415 . S
C1308 C1307 1.355 . S
C1308 C1310 1.419 . S
C1309 C1304 1.425 . S
C1309 C1306 1.409 . S
C1309 C1307 1.415 . S
C1310 H1300 0.930 . S
C1310 C1308 1.419 . S
C1310 C1311 1.362 . S
C1311 H1301 0.930 . S
C1311 C1304 1.409 . S
C1311 C1310 1.362 . S
H1312 C1318 0.930 . S
H1313 C1321 0.930 . S
H1314 C1322 0.930 . S
H1315 C1323 0.930 . S
H1316 C1326 0.930 . S
H1317 C1327 0.930 . S
C1318 H1312 0.930 . S
C1318 C1319 1.355 . S
C1318 C1320 1.415 . S
C1319 C1318 1.355 . S
C1319 C1321 1.419 . S
C1320 C1318 1.415 . S
C1320 C1325 1.425 . S
C1320 C1327 1.409 . S
C1321 H1313 0.930 . S
C1321 C1319 1.419 . S
C1321 C1322 1.362 . S
C1322 H1314 0.930 . S
C1322 C1321 1.362 . S
C1322 C1325 1.409 . S
C1323 H1315 0.930 . S
C1323 C1324 1.355 . S
C1323 C1325 1.415 . S
C1324 C1323 1.355 . S
C1324 C1326 1.419 . S
C1325 C1320 1.425 . S
C1325 C1322 1.409 . S
C1325 C1323 1.415 . S
C1326 H1316 0.930 . S
C1326 C1324 1.419 . S
C1326 C1327 1.362 . S
C1327 H1317 0.930 . S
C1327 C1320 1.409 . S
C1327 C1326 1.362 . S
H1328 C1334 0.930 . S
H1329 C1337 0.930 . S
H1330 C1338 0.930 . S
H1331 C1339 0.930 1_545 S
H1332 C1342 0.930 . S
H1333 C1343 0.930 . S
C1334 H1328 0.930 . S
C1334 C1335 1.355 . S
C1334 C1336 1.415 . S
C1335 C1334 1.355 . S
C1335 C1337 1.419 . S
C1336 C1334 1.415 . S
C1336 C1341 1.425 . S
C1336 C1343 1.409 . S
C1337 H1329 0.930 . S
C1337 C1335 1.419 . S
C1337 C1338 1.362 . S
C1338 H1330 0.930 . S
C1338 C1337 1.362 . S
C1338 C1341 1.409 . S
C1339 H1331 0.930 1_565 S
C1339 C1340 1.355 . S
C1339 C1341 1.415 . S
C1340 C1339 1.355 . S
C1340 C1342 1.419 . S
C1341 C1336 1.425 . S
C1341 C1338 1.409 . S
C1341 C1339 1.415 . S
C1342 H1332 0.930 . S
C1342 C1340 1.419 . S
C1342 C1343 1.362 . S
C1343 H1333 0.930 . S
C1343 C1336 1.409 . S
C1343 C1342 1.362 . S
H1344 C1350 0.930 . S
H1345 C1353 0.930 . S
H1346 C1354 0.930 . S
H1347 C1355 0.930 . S
H1348 C1358 0.930 . S
H1349 C1359 0.930 . S
C1350 H1344 0.930 . S
C1350 C1351 1.355 . S
C1350 C1352 1.415 . S
C1351 C1350 1.355 . S
C1351 C1353 1.419 . S
C1352 C1350 1.415 . S
C1352 C1357 1.425 . S
C1352 C1359 1.409 . S
C1353 H1345 0.930 . S
C1353 C1351 1.419 . S
C1353 C1354 1.362 . S
C1354 H1346 0.930 . S
C1354 C1353 1.362 . S
C1354 C1357 1.409 . S
C1355 H1347 0.930 . S
C1355 C1356 1.355 . S
C1355 C1357 1.415 . S
C1356 C1355 1.355 . S
C1356 C1358 1.419 . S
C1357 C1352 1.425 . S
C1357 C1354 1.409 . S
C1357 C1355 1.415 . S
C1358 H1348 0.930 . S
C1358 C1356 1.419 . S
C1358 C1359 1.362 . S
C1359 H1349 0.930 . S
C1359 C1352 1.409 . S
C1359 C1358 1.362 . S
H1360 C1366 0.930 1_565 S
H1361 C1369 0.930 . S
H1362 C1370 0.930 . S
H1363 C1371 0.930 . S
H1364 C1374 0.930 . S
H1365 C1375 0.930 . S
C1366 H1360 0.930 1_545 S
C1366 C1367 1.355 . S
C1366 C1368 1.415 . S
C1367 C1366 1.355 . S
C1367 C1369 1.419 . S
C1368 C1366 1.415 . S
C1368 C1373 1.425 . S
C1368 C1375 1.409 . S
C1369 H1361 0.930 . S
C1369 C1367 1.419 . S
C1369 C1370 1.362 . S
C1370 H1362 0.930 . S
C1370 C1369 1.362 . S
C1370 C1373 1.409 . S
C1371 H1363 0.930 . S
C1371 C1372 1.355 . S
C1371 C1373 1.415 . S
C1372 C1371 1.355 . S
C1372 C1374 1.419 . S
C1373 C1368 1.425 . S
C1373 C1370 1.409 . S
C1373 C1371 1.415 . S
C1374 H1364 0.930 . S
C1374 C1372 1.419 . S
C1374 C1375 1.362 . S
C1375 H1365 0.930 . S
C1375 C1368 1.409 . S
C1375 C1374 1.362 . S
H1376 C1382 0.930 . S
H1377 C1385 0.930 . S
H1378 C1386 0.930 . S
H1379 C1387 0.930 . S
H1380 C1390 0.930 . S
H1381 C1391 0.930 . S
C1382 H1376 0.930 . S
C1382 C1383 1.355 . S
C1382 C1384 1.415 . S
C1383 C1382 1.355 . S
C1383 C1385 1.419 . S
C1384 C1382 1.415 . S
C1384 C1389 1.425 . S
C1384 C1391 1.409 . S
C1385 H1377 0.930 . S
C1385 C1383 1.419 . S
C1385 C1386 1.362 . S
C1386 H1378 0.930 . S
C1386 C1385 1.362 . S
C1386 C1389 1.409 . S
C1387 H1379 0.930 . S
C1387 C1388 1.355 . S
C1387 C1389 1.415 . S
C1388 C1387 1.355 . S
C1388 C1390 1.419 . S
C1389 C1384 1.425 . S
C1389 C1386 1.409 . S
C1389 C1387 1.415 . S
C1390 H1380 0.930 . S
C1390 C1388 1.419 . S
C1390 C1391 1.362 . S
C1391 H1381 0.930 . S
C1391 C1384 1.409 . S
C1391 C1390 1.362 . S
H1392 C1398 0.930 . S
H1393 C1401 0.930 . S
H1394 C1402 0.930 . S
H1395 C1403 0.930 . S
H1396 C1406 0.930 1_545 S
H1397 C1407 0.930 . S
C1398 H1392 0.930 . S
C1398 C1399 1.355 . S
C1398 C1400 1.415 . S
C1399 C1398 1.355 . S
C1399 C1401 1.419 . S
C1400 C1398 1.415 . S
C1400 C1405 1.425 . S
C1400 C1407 1.409 . S
C1401 H1393 0.930 . S
C1401 C1399 1.419 . S
C1401 C1402 1.362 . S
C1402 H1394 0.930 . S
C1402 C1401 1.362 . S
C1402 C1405 1.409 . S
C1403 H1395 0.930 . S
C1403 C1404 1.355 . S
C1403 C1405 1.415 . S
C1404 C1403 1.355 . S
C1404 C1406 1.419 . S
C1405 C1400 1.425 . S
C1405 C1402 1.409 . S
C1405 C1403 1.415 . S
C1406 H1396 0.930 1_565 S
C1406 C1404 1.419 . S
C1406 C1407 1.362 . S
C1407 H1397 0.930 . S
C1407 C1400 1.409 . S
C1407 C1406 1.362 . S
H1408 C1414 0.930 . S
H1409 C1417 0.930 . S
H1410 C1418 0.930 . S
H1411 C1419 0.930 . S
H1412 C1422 0.930 . S
H1413 C1423 0.930 . S
C1414 H1408 0.930 . S
C1414 C1415 1.355 . S
C1414 C1416 1.415 . S
C1415 C1414 1.355 . S
C1415 C1417 1.419 . S
C1416 C1414 1.415 . S
C1416 C1421 1.425 . S
C1416 C1423 1.409 . S
C1417 H1409 0.930 . S
C1417 C1415 1.419 . S
C1417 C1418 1.362 . S
C1418 H1410 0.930 . S
C1418 C1417 1.362 . S
C1418 C1421 1.409 . S
C1419 H1411 0.930 . S
C1419 C1420 1.355 . S
C1419 C1421 1.415 . S
C1420 C1419 1.355 . S
C1420 C1422 1.419 . S
C1421 C1416 1.425 . S
C1421 C1418 1.409 . S
C1421 C1419 1.415 . S
C1422 H1412 0.930 . S
C1422 C1420 1.419 . S
C1422 C1423 1.362 . S
C1423 H1413 0.930 . S
C1423 C1416 1.409 . S
C1423 C1422 1.362 . S
H1424 C1430 0.930 . S
H1425 C1433 0.930 . S
H1426 C1434 0.930 . S
H1427 C1435 0.930 . S
H1428 C1438 0.930 . S
H1429 C1439 0.930 . S
C1430 H1424 0.930 . S
C1430 C1431 1.355 . S
C1430 C1432 1.415 . S
C1431 C1430 1.355 . S
C1431 C1433 1.419 . S
C1432 C1430 1.415 . S
C1432 C1437 1.425 . S
C1432 C1439 1.409 . S
C1433 H1425 0.930 . S
C1433 C1431 1.419 . S
C1433 C1434 1.362 . S
C1434 H1426 0.930 . S
C1434 C1433 1.362 . S
C1434 C1437 1.409 . S
C1435 H1427 0.930 . S
C1435 C1436 1.355 . S
C1435 C1437 1.415 . S
C1436 C1435 1.355 . S
C1436 C1438 1.419 . S
C1437 C1432 1.425 . S
C1437 C1434 1.409 . S
C1437 C1435 1.415 . S
C1438 H1428 0.930 . S
C1438 C1436 1.419 . S
C1438 C1439 1.362 . S
C1439 H1429 0.930 . S
C1439 C1432 1.409 . S
C1439 C1438 1.362 . S
H1440 C1446 0.930 . S
H1441 C1449 0.930 . S
H1442 C1450 0.930 . S
H1443 C1451 0.930 . S
H1444 C1454 0.930 . S
H1445 C1455 0.930 . S
C1446 H1440 0.930 . S
C1446 C1447 1.355 . S
C1446 C1448 1.415 . S
C1447 C1446 1.355 . S
C1447 C1449 1.419 . S
C1448 C1446 1.415 . S
C1448 C1453 1.425 . S
C1448 C1455 1.409 . S
C1449 H1441 0.930 . S
C1449 C1447 1.419 . S
C1449 C1450 1.362 . S
C1450 H1442 0.930 . S
C1450 C1449 1.362 . S
C1450 C1453 1.409 . S
C1451 H1443 0.930 . S
C1451 C1452 1.355 . S
C1451 C1453 1.415 . S
C1452 C1451 1.355 . S
C1452 C1454 1.419 . S
C1453 C1448 1.425 . S
C1453 C1450 1.409 . S
C1453 C1451 1.415 . S
C1454 H1444 0.930 . S
C1454 C1452 1.419 . S
C1454 C1455 1.362 . S
C1455 H1445 0.930 . S
C1455 C1448 1.409 . S
C1455 C1454 1.362 . S
H1456 C1462 0.930 1_565 S
H1457 C1465 0.930 . S
H1458 C1466 0.930 . S
H1459 C1467 0.930 . S
H1460 C1470 0.930 . S
H1461 C1471 0.930 . S
C1462 H1456 0.930 1_545 S
C1462 C1463 1.355 . S
C1462 C1464 1.415 . S
C1463 C1462 1.355 . S
C1463 C1465 1.419 . S
C1464 C1462 1.415 . S
C1464 C1469 1.425 . S
C1464 C1471 1.409 . S
C1465 H1457 0.930 . S
C1465 C1463 1.419 . S
C1465 C1466 1.362 . S
C1466 H1458 0.930 . S
C1466 C1465 1.362 . S
C1466 C1469 1.409 . S
C1467 H1459 0.930 . S
C1467 C1468 1.355 . S
C1467 C1469 1.415 . S
C1468 C1467 1.355 . S
C1468 C1470 1.419 . S
C1469 C1464 1.425 . S
C1469 C1466 1.409 . S
C1469 C1467 1.415 . S
C1470 H1460 0.930 . S
C1470 C1468 1.419 . S
C1470 C1471 1.362 . S
C1471 H1461 0.930 . S
C1471 C1464 1.409 . S
C1471 C1470 1.362 . S
H1472 C1478 0.930 . S
H1473 C1481 0.930 . S
H1474 C1482 0.930 . S
H1475 C1483 0.930 . S
H1476 C1486 0.930 . S
H1477 C1487 0.930 . S
C1478 H1472 0.930 . S
C1478 C1479 1.355 . S
C1478 C1480 1.415 . S
C1479 C1478 1.355 . S
C1479 C1481 1.419 . S
C1480 C1478 1.415 . S
C1480 C1485 1.425 . S
C1480 C1487 1.409 . S
C1481 H1473 0.930 . S
C1481 C1479 1.419 . S
C1481 C1482 1.362 . S
C1482 H1474 0.930 . S
C1482 C1481 1.362 . S
C1482 C1485 1.409 . S
C1483 H1475 0.930 . S
C1483 C1484 1.355 . S
C1483 C1485 1.415 . S
C1484 C1483 1.355 . S
C1484 C1486 1.419 . S
C1485 C1480 1.425 . S
C1485 C1482 1.409 . S
C1485 C1483 1.415 . S
C1486 H1476 0.930 . S
C1486 C1484 1.419 . S
C1486 C1487 1.362 . S
C1487 H1477 0.930 . S
C1487 C1480 1.409 . S
C1487 C1486 1.362 . S
H1488 C1494 0.930 . S
H1489 C1497 0.930 . S
H1490 C1498 0.930 . S
H1491 C1499 0.930 . S
H1492 C1502 0.930 . S
H1493 C1503 0.930 . S
C1494 H1488 0.930 . S
C1494 C1495 1.355 . S
C1494 C1496 1.415 . S
C1495 C1494 1.355 . S
C1495 C1497 1.419 . S
C1496 C1494 1.415 . S
C1496 C1501 1.425 . S
C1496 C1503 1.409 . S
C1497 H1489 0.930 . S
C1497 C1495 1.419 . S
C1497 C1498 1.362 . S
C1498 H1490 0.930 . S
C1498 C1497 1.362 . S
C1498 C1501 1.409 . S
C1499 H1491 0.930 . S
C1499 C1500 1.355 . S
C1499 C1501 1.415 . S
C1500 C1499 1.355 . S
C1500 C1502 1.419 . S
C1501 C1496 1.425 . S
C1501 C1498 1.409 . S
C1501 C1499 1.415 . S
C1502 H1492 0.930 . S
C1502 C1500 1.419 . S
C1502 C1503 1.362 . S
C1503 H1493 0.930 . S
C1503 C1496 1.409 . S
C1503 C1502 1.362 . S
H1504 C1510 0.930 . S
H1505 C1513 0.930 . S
H1506 C1514 0.930 . S
H1507 C1515 0.930 . S
H1508 C1518 0.930 . S
H1509 C1519 0.930 . S
C1510 H1504 0.930 . S
C1510 C1511 1.355 . S
C1510 C1512 1.415 . S
C1511 C1510 1.355 . S
C1511 C1513 1.419 . S
C1512 C1510 1.415 . S
C1512 C1517 1.425 . S
C1512 C1519 1.409 . S
C1513 H1505 0.930 . S
C1513 C1511 1.419 . S
C1513 C1514 1.362 . S
C1514 H1506 0.930 . S
C1514 C1513 1.362 . S
C1514 C1517 1.409 . S
C1515 H1507 0.930 . S
C1515 C1516 1.355 . S
C1515 C1517 1.415 . S
C1516 C1515 1.355 . S
C1516 C1518 1.419 . S
C1517 C1512 1.425 . S
C1517 C1514 1.409 . S
C1517 C1515 1.415 . S
C1518 H1508 0.930 . S
C1518 C1516 1.419 . S
C1518 C1519 1.362 . S
C1519 H1509 0.930 . S
C1519 C1512 1.409 . S
C1519 C1518 1.362 . S
H1520 C1526 0.930 . S
H1521 C1529 0.930 . S
H1522 C1530 0.930 . S
H1523 C1531 0.930 . S
H1524 C1534 0.930 . S
H1525 C1535 0.930 . S
C1526 H1520 0.930 . S
C1526 C1527 1.355 . S
C1526 C1528 1.415 . S
C1527 C1526 1.355 . S
C1527 C1529 1.419 . S
C1528 C1526 1.415 . S
C1528 C1533 1.425 . S
C1528 C1535 1.409 . S
C1529 H1521 0.930 . S
C1529 C1527 1.419 . S
C1529 C1530 1.362 . S
C1530 H1522 0.930 . S
C1530 C1529 1.362 . S
C1530 C1533 1.409 . S
C1531 H1523 0.930 . S
C1531 C1532 1.355 . S
C1531 C1533 1.415 . S
C1532 C1531 1.355 . S
C1532 C1534 1.419 . S
C1533 C1528 1.425 . S
C1533 C1530 1.409 . S
C1533 C1531 1.415 . S
C1534 H1524 0.930 . S
C1534 C1532 1.419 . S
C1534 C1535 1.362 . S
C1535 H1525 0.930 . S
C1535 C1528 1.409 . S
C1535 C1534 1.362 . S
H1536 C1542 0.930 . S
H1537 C1545 0.930 . S
H1538 C1546 0.930 . S
H1539 C1547 0.930 . S
H1540 C1550 0.930 . S
H1541 C1551 0.930 . S
C1542 H1536 0.930 . S
C1542 C1543 1.355 . S
C1542 C1544 1.415 . S
C1543 C1542 1.355 . S
C1543 C1545 1.419 . S
C1544 C1542 1.415 . S
C1544 C1549 1.425 . S
C1544 C1551 1.409 . S
C1545 H1537 0.930 . S
C1545 C1543 1.419 . S
C1545 C1546 1.362 . S
C1546 H1538 0.930 . S
C1546 C1545 1.362 . S
C1546 C1549 1.409 . S
C1547 H1539 0.930 . S
C1547 C1548 1.355 . S
C1547 C1549 1.415 . S
C1548 C1547 1.355 . S
C1548 C1550 1.419 . S
C1549 C1544 1.425 . S
C1549 C1546 1.409 . S
C1549 C1547 1.415 . S
C1550 H1540 0.930 . S
C1550 C1548 1.419 . S
C1550 C1551 1.362 . S
C1551 H1541 0.930 . S
C1551 C1544 1.409 . S
C1551 C1550 1.362 . S
H1552 C1558 0.930 . S
H1553 C1561 0.930 . S
H1554 C1562 0.930 . S
H1555 C1563 0.930 . S
H1556 C1566 0.930 . S
H1557 C1567 0.930 . S
C1558 H1552 0.930 . S
C1558 C1559 1.355 . S
C1558 C1560 1.415 . S
C1559 C1558 1.355 . S
C1559 C1561 1.419 . S
C1560 C1558 1.415 . S
C1560 C1565 1.425 . S
C1560 C1567 1.409 . S
C1561 H1553 0.930 . S
C1561 C1559 1.419 . S
C1561 C1562 1.362 . S
C1562 H1554 0.930 . S
C1562 C1561 1.362 . S
C1562 C1565 1.409 . S
C1563 H1555 0.930 . S
C1563 C1564 1.355 . S
C1563 C1565 1.415 . S
C1564 C1563 1.355 . S
C1564 C1566 1.419 . S
C1565 C1560 1.425 . S
C1565 C1562 1.409 . S
C1565 C1563 1.415 . S
C1566 H1556 0.930 . S
C1566 C1564 1.419 . S
C1566 C1567 1.362 . S
C1567 H1557 0.930 . S
C1567 C1560 1.409 . S
C1567 C1566 1.362 . S
H1568 C1574 0.930 . S
H1569 C1577 0.930 . S
H1570 C1578 0.930 . S
H1571 C1579 0.930 . S
H1572 C1582 0.930 . S
H1573 C1583 0.930 . S
C1574 H1568 0.930 . S
C1574 C1575 1.355 . S
C1574 C1576 1.415 . S
C1575 C1574 1.355 . S
C1575 C1577 1.419 . S
C1576 C1574 1.415 . S
C1576 C1581 1.425 . S
C1576 C1583 1.409 . S
C1577 H1569 0.930 . S
C1577 C1575 1.419 . S
C1577 C1578 1.362 . S
C1578 H1570 0.930 . S
C1578 C1577 1.362 . S
C1578 C1581 1.409 . S
C1579 H1571 0.930 . S
C1579 C1580 1.355 . S
C1579 C1581 1.415 . S
C1580 C1579 1.355 . S
C1580 C1582 1.419 . S
C1581 C1576 1.425 . S
C1581 C1578 1.409 . S
C1581 C1579 1.415 . S
C1582 H1572 0.930 . S
C1582 C1580 1.419 . S
C1582 C1583 1.362 . S
C1583 H1573 0.930 . S
C1583 C1576 1.409 . S
C1583 C1582 1.362 . S
H1584 C1590 0.930 . S
H1585 C1593 0.930 . S
H1586 C1594 0.930 . S
H1587 C1595 0.930 . S
H1588 C1598 0.930 . S
H1589 C1599 0.930 . S
C1590 H1584 0.930 . S
C1590 C1591 1.355 . S
C1590 C1592 1.415 . S
C1591 C1590 1.355 . S
C1591 C1593 1.419 . S
C1592 C1590 1.415 . S
C1592 C1597 1.425 . S
C1592 C1599 1.409 . S
C1593 H1585 0.930 . S
C1593 C1591 1.419 . S
C1593 C1594 1.362 . S
C1594 H1586 0.930 . S
C1594 C1593 1.362 . S
C1594 C1597 1.409 . S
C1595 H1587 0.930 . S
C1595 C1596 1.355 . S
C1595 C1597 1.415 . S
C1596 C1595 1.355 . S
C1596 C1598 1.419 . S
C1597 C1592 1.425 . S
C1597 C1594 1.409 . S
C1597 C1595 1.415 . S
C1598 H1588 0.930 . S
C1598 C1596 1.419 . S
C1598 C1599 1.362 . S
C1599 H1589 0.930 . S
C1599 C1592 1.409 . S
C1599 C1598 1.362 . S
H1600 C1606 0.930 . S
H1601 C1609 0.930 . S
H1602 C1610 0.930 . S
H1603 C1611 0.930 . S
H1604 C1614 0.930 . S
H1605 C1615 0.930 . S
C1606 H1600 0.930 . S
C1606 C1607 1.355 . S
C1606 C1608 1.415 . S
C1607 C1606 1.355 . S
C1607 C1609 1.419 . S
C1608 C1606 1.415 . S
C1608 C1613 1.425 . S
C1608 C1615 1.409 . S
C1609 H1601 0.930 . S
C1609 C1607 1.419 . S
C1609 C1610 1.362 . S
C1610 H1602 0.930 . S
C1610 C1609 1.362 . S
C1610 C1613 1.409 . S
C1611 H1603 0.930 . S
C1611 C1612 1.355 . S
C1611 C1613 1.415 . S
C1612 C1611 1.355 . S
C1612 C1614 1.419 . S
C1613 C1608 1.425 . S
C1613 C1610 1.409 . S
C1613 C1611 1.415 . S
C1614 H1604 0.930 . S
C1614 C1612 1.419 . S
C1614 C1615 1.362 . S
C1615 H1605 0.930 . S
C1615 C1608 1.409 . S
C1615 C1614 1.362 . S
H1616 C1622 0.930 . S
H1617 C1625 0.930 . S
H1618 C1626 0.930 . S
H1619 C1627 0.930 . S
H1620 C1630 0.930 . S
H1621 C1631 0.930 . S
C1622 H1616 0.930 . S
C1622 C1623 1.355 . S
C1622 C1624 1.415 . S
C1623 C1622 1.355 . S
C1623 C1625 1.419 . S
C1624 C1622 1.415 . S
C1624 C1629 1.425 . S
C1624 C1631 1.409 . S
C1625 H1617 0.930 . S
C1625 C1623 1.419 . S
C1625 C1626 1.362 . S
C1626 H1618 0.930 . S
C1626 C1625 1.362 . S
C1626 C1629 1.409 . S
C1627 H1619 0.930 . S
C1627 C1628 1.355 . S
C1627 C1629 1.415 . S
C1628 C1627 1.355 . S
C1628 C1630 1.419 . S
C1629 C1624 1.425 . S
C1629 C1626 1.409 . S
C1629 C1627 1.415 . S
C1630 H1620 0.930 . S
C1630 C1628 1.419 . S
C1630 C1631 1.362 . S
C1631 H1621 0.930 . S
C1631 C1624 1.409 . S
C1631 C1630 1.362 . S
H1632 C1638 0.930 . S
H1633 C1641 0.930 . S
H1634 C1642 0.930 . S
H1635 C1643 0.930 . S
H1636 C1646 0.930 . S
H1637 C1647 0.930 . S
C1638 H1632 0.930 . S
C1638 C1639 1.355 . S
C1638 C1640 1.415 . S
C1639 C1638 1.355 . S
C1639 C1641 1.419 . S
C1640 C1638 1.415 . S
C1640 C1645 1.425 . S
C1640 C1647 1.409 . S
C1641 H1633 0.930 . S
C1641 C1639 1.419 . S
C1641 C1642 1.362 . S
C1642 H1634 0.930 . S
C1642 C1641 1.362 . S
C1642 C1645 1.409 . S
C1643 H1635 0.930 . S
C1643 C1644 1.355 . S
C1643 C1645 1.415 . S
C1644 C1643 1.355 . S
C1644 C1646 1.419 . S
C1645 C1640 1.425 . S
C1645 C1642 1.409 . S
C1645 C1643 1.415 . S
C1646 H1636 0.930 . S
C1646 C1644 1.419 . S
C1646 C1647 1.362 . S
C1647 H1637 0.930 . S
C1647 C1640 1.409 . S
C1647 C1646 1.362 . S
H1648 C1654 0.930 . S
H1649 C1657 0.930 . S
H1650 C1658 0.930 . S
H1651 C1659 0.930 . S
H1652 C1662 0.930 . S
H1653 C1663 0.930 . S
C1654 H1648 0.930 . S
C1654 C1655 1.355 . S
C1654 C1656 1.415 . S
C1655 C1654 1.355 . S
C1655 C1657 1.419 . S
C1656 C1654 1.415 . S
C1656 C1661 1.425 . S
C1656 C1663 1.409 . S
C1657 H1649 0.930 . S
C1657 C1655 1.419 . S
C1657 C1658 1.362 . S
C1658 H1650 0.930 . S
C1658 C1657 1.362 . S
C1658 C1661 1.409 . S
C1659 H1651 0.930 . S
C1659 C1660 1.355 . S
C1659 C1661 1.415 . S
C1660 C1659 1.355 . S
C1660 C1662 1.419 . S
C1661 C1656 1.425 . S
C1661 C1658 1.409 . S
C1661 C1659 1.415 . S
C1662 H1652 0.930 . S
C1662 C1660 1.419 . S
C1662 C1663 1.362 . S
C1663 H1653 0.930 . S
C1663 C1656 1.409 . S
C1663 C1662 1.362 . S
H1664 C1670 0.930 . S
H1665 C1673 0.930 . S
H1666 C1674 0.930 . S
H1667 C1675 0.930 . S
H1668 C1678 0.930 . S
H1669 C1679 0.930 . S
C1670 H1664 0.930 . S
C1670 C1671 1.355 . S
C1670 C1672 1.415 . S
C1671 C1670 1.355 . S
C1671 C1673 1.419 . S
C1672 C1670 1.415 . S
C1672 C1677 1.425 . S
C1672 C1679 1.409 . S
C1673 H1665 0.930 . S
C1673 C1671 1.419 . S
C1673 C1674 1.362 . S
C1674 H1666 0.930 . S
C1674 C1673 1.362 . S
C1674 C1677 1.409 . S
C1675 H1667 0.930 . S
C1675 C1676 1.355 . S
C1675 C1677 1.415 . S
C1676 C1675 1.355 . S
C1676 C1678 1.419 . S
C1677 C1672 1.425 . S
C1677 C1674 1.409 . S
C1677 C1675 1.415 . S
C1678 H1668 0.930 . S
C1678 C1676 1.419 . S
C1678 C1679 1.362 . S
C1679 H1669 0.930 . S
C1679 C1672 1.409 . S
C1679 C1678 1.362 . S
H1680 C1686 0.930 . S
H1681 C1689 0.930 . S
H1682 C1690 0.930 . S
H1683 C1691 0.930 . S
H1684 C1694 0.930 . S
H1685 C1695 0.930 . S
C1686 H1680 0.930 . S
C1686 C1687 1.355 . S
C1686 C1688 1.415 . S
C1687 C1686 1.355 . S
C1687 C1689 1.419 . S
C1688 C1686 1.415 . S
C1688 C1693 1.425 . S
C1688 C1695 1.409 . S
C1689 H1681 0.930 . S
C1689 C1687 1.419 . S
C1689 C1690 1.362 . S
C1690 H1682 0.930 . S
C1690 C1689 1.362 . S
C1690 C1693 1.409 . S
C1691 H1683 0.930 . S
C1691 C1692 1.355 . S
C1691 C1693 1.415 . S
C1692 C1691 1.355 . S
C1692 C1694 1.419 . S
C1693 C1688 1.425 . S
C1693 C1690 1.409 . S
C1693 C1691 1.415 . S
C1694 H1684 0.930 . S
C1694 C1692 1.419 . S
C1694 C1695 1.362 . S
C1695 H1685 0.930 . S
C1695 C1688 1.409 . S
C1695 C1694 1.362 . S
H1696 C1702 0.930 . S
H1697 C1705 0.930 . S
H1698 C1706 0.930 . S
H1699 C1707 0.930 . S
H1700 C1710 0.930 . S
H1701 C1711 0.930 . S
C1702 H1696 0.930 . S
C1702 C1703 1.355 . S
C1702 C1704 1.415 . S
C1703 C1702 1.355 . S
C1703 C1705 1.419 . S
C1704 C1702 1.415 . S
C1704 C1709 1.425 . S
C1704 C1711 1.409 . S
C1705 H1697 0.930 . S
C1705 C1703 1.419 . S
C1705 C1706 1.362 . S
C1706 H1698 0.930 . S
C1706 C1705 1.362 . S
C1706 C1709 1.409 . S
C1707 H1699 0.930 . S
C1707 C1708 1.355 . S
C1707 C1709 1.415 . S
C1708 C1707 1.355 . S
C1708 C1710 1.419 . S
C1709 C1704 1.425 . S
C1709 C1706 1.409 . S
C1709 C1707 1.415 . S
C1710 H1700 0.930 . S
C1710 C1708 1.419 . S
C1710 C1711 1.362 . S
C1711 H1701 0.930 . S
C1711 C1704 1.409 . S
C1711 C1710 1.362 . S
H1712 C1718 0.930 . S
H1713 C1721 0.930 . S
H1714 C1722 0.930 . S
H1715 C1723 0.930 . S
H1716 C1726 0.930 . S
H1717 C1727 0.930 . S
C1718 H1712 0.930 . S
C1718 C1719 1.355 . S
C1718 C1720 1.415 . S
C1719 C1718 1.355 . S
C1719 C1721 1.419 . S
C1720 C1718 1.415 . S
C1720 C1725 1.425 . S
C1720 C1727 1.409 . S
C1721 H1713 0.930 . S
C1721 C1719 1.419 . S
C1721 C1722 1.362 . S
C1722 H1714 0.930 . S
C1722 C1721 1.362 . S
C1722 C1725 1.409 . S
C1723 H1715 0.930 . S
C1723 C1724 1.355 . S
C1723 C1725 1.415 . S
C1724 C1723 1.355 . S
C1724 C1726 1.419 . S
C1725 C1720 1.425 . S
C1725 C1722 1.409 . S
C1725 C1723 1.415 . S
C1726 H1716 0.930 . S
C1726 C1724 1.419 . S
C1726 C1727 1.362 . S
C1727 H1717 0.930 . S
C1727 C1720 1.409 . S
C1727 C1726 1.362 . S
H1728 C1734 0.930 . S
H1729 C1737 0.930 . S
H1730 C1738 0.930 . S
H1731 C1739 0.930 . S
H1732 C1742 0.930 . S
H1733 C1743 0.930 . S
C1734 H1728 0.930 . S
C1734 C1735 1.355 . S
C1734 C1736 1.415 . S
C1735 C1734 1.355 . S
C1735 C1737 1.419 . S
C1736 C1734 1.415 . S
C1736 C1741 1.425 . S
C1736 C1743 1.409 . S
C1737 H1729 0.930 . S
C1737 C1735 1.419 . S
C1737 C1738 1.362 . S
C1738 H1730 0.930 . S
C1738 C1737 1.362 . S
C1738 C1741 1.409 . S
C1739 H1731 0.930 . S
C1739 C1740 1.355 . S
C1739 C1741 1.415 . S
C1740 C1739 1.355 . S
C1740 C1742 1.419 . S
C1741 C1736 1.425 . S
C1741 C1738 1.409 . S
C1741 C1739 1.415 . S
C1742 H1732 0.930 . S
C1742 C1740 1.419 . S
C1742 C1743 1.362 . S
C1743 H1733 0.930 . S
C1743 C1736 1.409 . S
C1743 C1742 1.362 . S
H1744 C1750 0.930 . S
H1745 C1753 0.930 . S
H1746 C1754 0.930 . S
H1747 C1755 0.930 . S
H1748 C1758 0.930 . S
H1749 C1759 0.930 . S
C1750 H1744 0.930 . S
C1750 C1751 1.355 . S
C1750 C1752 1.415 . S
C1751 C1750 1.355 . S
C1751 C1753 1.419 . S
C1752 C1750 1.415 . S
C1752 C1757 1.425 . S
C1752 C1759 1.409 . S
C1753 H1745 0.930 . S
C1753 C1751 1.419 . S
C1753 C1754 1.362 . S
C1754 H1746 0.930 . S
C1754 C1753 1.362 . S
C1754 C1757 1.409 . S
C1755 H1747 0.930 . S
C1755 C1756 1.355 . S
C1755 C1757 1.415 . S
C1756 C1755 1.355 . S
C1756 C1758 1.419 . S
C1757 C1752 1.425 . S
C1757 C1754 1.409 . S
C1757 C1755 1.415 . S
C1758 H1748 0.930 . S
C1758 C1756 1.419 . S
C1758 C1759 1.362 . S
C1759 H1749 0.930 . S
C1759 C1752 1.409 . S
C1759 C1758 1.362 . S
H1760 C1766 0.930 . S
H1761 C1769 0.930 . S
H1762 C1770 0.930 . S
H1763 C1771 0.930 . S
H1764 C1774 0.930 . S
H1765 C1775 0.930 . S
C1766 H1760 0.930 . S
C1766 C1767 1.355 . S
C1766 C1768 1.415 . S
C1767 C1766 1.355 . S
C1767 C1769 1.419 . S
C1768 C1766 1.415 . S
C1768 C1773 1.425 . S
C1768 C1775 1.409 . S
C1769 H1761 0.930 . S
C1769 C1767 1.419 . S
C1769 C1770 1.362 . S
C1770 H1762 0.930 . S
C1770 C1769 1.362 . S
C1770 C1773 1.409 . S
C1771 H1763 0.930 . S
C1771 C1772 1.355 . S
C1771 C1773 1.415 . S
C1772 C1771 1.355 . S
C1772 C1774 1.419 . S
C1773 C1768 1.425 . S
C1773 C1770 1.409 . S
C1773 C1771 1.415 . S
C1774 H1764 0.930 . S
C1774 C1772 1.419 . S
C1774 C1775 1.362 . S
C1775 H1765 0.930 . S
C1775 C1768 1.409 . S
C1775 C1774 1.362 . S
H1776 C1782 0.930 . S
H1777 C1785 0.930 . S
H1778 C1786 0.930 . S
H1779 C1787 0.930 . S
H1780 C1790 0.930 . S
H1781 C1791 0.930 . S
C1782 H1776 0.930 . S
C1782 C1783 1.355 . S
C1782 C1784 1.415 . S
C1783 C1782 1.355 . S
C1783 C1785 1.419 . S
C1784 C1782 1.415 . S
C1784 C1789 1.425 . S
C1784 C1791 1.409 . S
C1785 H1777 0.930 . S
C1785 C1783 1.419 . S
C1785 C1786 1.362 . S
C1786 H1778 0.930 . S
C1786 C1785 1.362 . S
C1786 C1789 1.409 . S
C1787 H1779 0.930 . S
C1787 C1788 1.355 . S
C1787 C1789 1.415 . S
C1788 C1787 1.355 . S
C1788 C1790 1.419 . S
C1789 C1784 1.425 . S
C1789 C1786 1.409 . S
C1789 C1787 1.415 . S
C1790 H1780 0.930 . S
C1790 C1788 1.419 . S
C1790 C1791 1.362 . S
C1791 H1781 0.930 . S
C1791 C1784 1.409 . S
C1791 C1790 1.362 . S
H1792 C1798 0.930 . S
H1793 C1801 0.930 . S
H1794 C1802 0.930 . S
H1795 C1803 0.930 . S
H1796 C1806 0.930 . S
H1797 C1807 0.930 . S
C1798 H1792 0.930 . S
C1798 C1799 1.355 . S
C1798 C1800 1.415 . S
C1799 C1798 1.355 . S
C1799 C1801 1.419 . S
C1800 C1798 1.415 . S
C1800 C1805 1.425 . S
C1800 C1807 1.409 . S
C1801 H1793 0.930 . S
C1801 C1799 1.419 . S
C1801 C1802 1.362 . S
C1802 H1794 0.930 . S
C1802 C1801 1.362 . S
C1802 C1805 1.409 . S
C1803 H1795 0.930 . S
C1803 C1804 1.355 . S
C1803 C1805 1.415 . S
C1804 C1803 1.355 . S
C1804 C1806 1.419 . S
C1805 C1800 1.425 . S
C1805 C1802 1.409 . S
C1805 C1803 1.415 . S
C1806 H1796 0.930 . S
C1806 C1804 1.419 . S
C1806 C1807 1.362 . S
C1807 H1797 0.930 . S
C1807 C1800 1.409 . S
C1807 C1806 1.362 . S
H1808 C1814 0.930 . S
H1809 C1817 0.930 . S
H1810 C1818 0.930 . S
H1811 C1819 0.930 . S
H1812 C1822 0.930 1_655 S
H1813 C1823 0.930 . S
C1814 H1808 0.930 . S
C1814 C1815 1.355 . S
C1814 C1816 1.415 . S
C1815 C1814 1.355 . S
C1815 C1817 1.419 . S
C1816 C1814 1.415 . S
C1816 C1821 1.425 . S
C1816 C1823 1.409 . S
C1817 H1809 0.930 . S
C1817 C1815 1.419 . S
C1817 C1818 1.362 . S
C1818 H1810 0.930 . S
C1818 C1817 1.362 . S
C1818 C1821 1.409 . S
C1819 H1811 0.930 . S
C1819 C1820 1.355 . S
C1819 C1821 1.415 . S
C1820 C1819 1.355 . S
C1820 C1822 1.419 . S
C1821 C1816 1.425 . S
C1821 C1818 1.409 . S
C1821 C1819 1.415 . S
C1822 H1812 0.930 1_455 S
C1822 C1820 1.419 . S
C1822 C1823 1.362 . S
C1823 H1813 0.930 . S
C1823 C1816 1.409 . S
C1823 C1822 1.362 . S
H1824 C1830 0.930 . S
H1825 C1833 0.930 . S
H1826 C1834 0.930 . S
H1827 C1835 0.930 . S
H1828 C1838 0.930 . S
H1829 C1839 0.930 . S
C1830 H1824 0.930 . S
C1830 C1831 1.355 . S
C1830 C1832 1.415 . S
C1831 C1830 1.355 . S
C1831 C1833 1.419 . S
C1832 C1830 1.415 . S
C1832 C1837 1.425 . S
C1832 C1839 1.409 . S
C1833 H1825 0.930 . S
C1833 C1831 1.419 . S
C1833 C1834 1.362 . S
C1834 H1826 0.930 . S
C1834 C1833 1.362 . S
C1834 C1837 1.409 . S
C1835 H1827 0.930 . S
C1835 C1836 1.355 . S
C1835 C1837 1.415 . S
C1836 C1835 1.355 . S
C1836 C1838 1.419 . S
C1837 C1832 1.425 . S
C1837 C1834 1.409 . S
C1837 C1835 1.415 . S
C1838 H1828 0.930 . S
C1838 C1836 1.419 . S
C1838 C1839 1.362 . S
C1839 H1829 0.930 . S
C1839 C1832 1.409 . S
C1839 C1838 1.362 . S
H1840 C1846 0.930 . S
H1841 C1849 0.930 . S
H1842 C1850 0.930 . S
H1843 C1851 0.930 . S
H1844 C1854 0.930 . S
H1845 C1855 0.930 . S
C1846 H1840 0.930 . S
C1846 C1847 1.355 . S
C1846 C1848 1.415 . S
C1847 C1846 1.355 . S
C1847 C1849 1.419 . S
C1848 C1846 1.415 . S
C1848 C1853 1.425 . S
C1848 C1855 1.409 . S
C1849 H1841 0.930 . S
C1849 C1847 1.419 . S
C1849 C1850 1.362 . S
C1850 H1842 0.930 . S
C1850 C1849 1.362 . S
C1850 C1853 1.409 . S
C1851 H1843 0.930 . S
C1851 C1852 1.355 . S
C1851 C1853 1.415 . S
C1852 C1851 1.355 . S
C1852 C1854 1.419 . S
C1853 C1848 1.425 . S
C1853 C1850 1.409 . S
C1853 C1851 1.415 . S
C1854 H1844 0.930 . S
C1854 C1852 1.419 . S
C1854 C1855 1.362 . S
C1855 H1845 0.930 . S
C1855 C1848 1.409 . S
C1855 C1854 1.362 . S
H1856 C1862 0.930 . S
H1857 C1865 0.930 . S
H1858 C1866 0.930 . S
H1859 C1867 0.930 . S
H1860 C1870 0.930 . S
H1861 C1871 0.930 . S
C1862 H1856 0.930 . S
C1862 C1863 1.355 . S
C1862 C1864 1.415 . S
C1863 C1862 1.355 . S
C1863 C1865 1.419 . S
C1864 C1862 1.415 . S
C1864 C1869 1.425 . S
C1864 C1871 1.409 . S
C1865 H1857 0.930 . S
C1865 C1863 1.419 . S
C1865 C1866 1.362 . S
C1866 H1858 0.930 . S
C1866 C1865 1.362 . S
C1866 C1869 1.409 . S
C1867 H1859 0.930 . S
C1867 C1868 1.355 . S
C1867 C1869 1.415 . S
C1868 C1867 1.355 . S
C1868 C1870 1.419 . S
C1869 C1864 1.425 . S
C1869 C1866 1.409 . S
C1869 C1867 1.415 . S
C1870 H1860 0.930 . S
C1870 C1868 1.419 . S
C1870 C1871 1.362 . S
C1871 H1861 0.930 . S
C1871 C1864 1.409 . S
C1871 C1870 1.362 . S
H1872 C1878 0.930 . S
H1873 C1881 0.930 . S
H1874 C1882 0.930 . S
H1875 C1883 0.930 . S
H1876 C1886 0.930 . S
H1877 C1887 0.930 . S
C1878 H1872 0.930 . S
C1878 C1879 1.355 . S
C1878 C1880 1.415 . S
C1879 C1878 1.355 . S
C1879 C1881 1.419 . S
C1880 C1878 1.415 . S
C1880 C1885 1.425 . S
C1880 C1887 1.409 . S
C1881 H1873 0.930 . S
C1881 C1879 1.419 . S
C1881 C1882 1.362 . S
C1882 H1874 0.930 . S
C1882 C1881 1.362 . S
C1882 C1885 1.409 . S
C1883 H1875 0.930 . S
C1883 C1884 1.355 . S
C1883 C1885 1.415 . S
C1884 C1883 1.355 . S
C1884 C1886 1.419 . S
C1885 C1880 1.425 . S
C1885 C1882 1.409 . S
C1885 C1883 1.415 . S
C1886 H1876 0.930 . S
C1886 C1884 1.419 . S
C1886 C1887 1.362 . S
C1887 H1877 0.930 . S
C1887 C1880 1.409 . S
C1887 C1886 1.362 . S
H1888 C1894 0.930 . S
H1889 C1897 0.930 . S
H1890 C1898 0.930 . S
H1891 C1899 0.930 . S
H1892 C1902 0.930 . S
H1893 C1903 0.930 . S
C1894 H1888 0.930 . S
C1894 C1895 1.355 . S
C1894 C1896 1.415 . S
C1895 C1894 1.355 . S
C1895 C1897 1.419 . S
C1896 C1894 1.415 . S
C1896 C1901 1.425 . S
C1896 C1903 1.409 . S
C1897 H1889 0.930 . S
C1897 C1895 1.419 . S
C1897 C1898 1.362 . S
C1898 H1890 0.930 . S
C1898 C1897 1.362 . S
C1898 C1901 1.409 . S
C1899 H1891 0.930 . S
C1899 C1900 1.355 . S
C1899 C1901 1.415 . S
C1900 C1899 1.355 . S
C1900 C1902 1.419 . S
C1901 C1896 1.425 . S
C1901 C1898 1.409 . S
C1901 C1899 1.415 . S
C1902 H1892 0.930 . S
C1902 C1900 1.419 . S
C1902 C1903 1.362 . S
C1903 H1893 0.930 . S
C1903 C1896 1.409 . S
C1903 C1902 1.362 . S
H1904 C1910 0.930 . S
H1905 C1913 0.930 . S
H1906 C1914 0.930 . S
H1907 C1915 0.930 . S
H1908 C1918 0.930 1_655 S
H1909 C1919 0.930 . S
C1910 H1904 0.930 . S
C1910 C1911 1.355 . S
C1910 C1912 1.415 . S
C1911 C1910 1.355 . S
C1911 C1913 1.419 . S
C1912 C1910 1.415 . S
C1912 C1917 1.425 . S
C1912 C1919 1.409 . S
C1913 H1905 0.930 . S
C1913 C1911 1.419 . S
C1913 C1914 1.362 . S
C1914 H1906 0.930 . S
C1914 C1913 1.362 . S
C1914 C1917 1.409 . S
C1915 H1907 0.930 . S
C1915 C1916 1.355 . S
C1915 C1917 1.415 . S
C1916 C1915 1.355 . S
C1916 C1918 1.419 . S
C1917 C1912 1.425 . S
C1917 C1914 1.409 . S
C1917 C1915 1.415 . S
C1918 H1908 0.930 1_455 S
C1918 C1916 1.419 . S
C1918 C1919 1.362 . S
C1919 H1909 0.930 . S
C1919 C1912 1.409 . S
C1919 C1918 1.362 . S
H1920 C1926 0.930 . S
H1921 C1929 0.930 . S
H1922 C1930 0.930 . S
H1923 C1931 0.930 . S
H1924 C1934 0.930 . S
H1925 C1935 0.930 . S
C1926 H1920 0.930 . S
C1926 C1927 1.355 . S
C1926 C1928 1.415 . S
C1927 C1926 1.355 . S
C1927 C1929 1.419 . S
C1928 C1926 1.415 . S
C1928 C1933 1.425 . S
C1928 C1935 1.409 . S
C1929 H1921 0.930 . S
C1929 C1927 1.419 . S
C1929 C1930 1.362 . S
C1930 H1922 0.930 . S
C1930 C1929 1.362 . S
C1930 C1933 1.409 . S
C1931 H1923 0.930 . S
C1931 C1932 1.355 . S
C1931 C1933 1.415 . S
C1932 C1931 1.355 . S
C1932 C1934 1.419 . S
C1933 C1928 1.425 . S
C1933 C1930 1.409 . S
C1933 C1931 1.415 . S
C1934 H1924 0.930 . S
C1934 C1932 1.419 . S
C1934 C1935 1.362 . S
C1935 H1925 0.930 . S
C1935 C1928 1.409 . S
C1935 C1934 1.362 . S
H1936 C1942 0.930 . S
H1937 C1945 0.930 . S
H1938 C1946 0.930 . S
H1939 C1947 0.930 . S
H1940 C1950 0.930 . S
H1941 C1951 0.930 . S
C1942 H1936 0.930 . S
C1942 C1943 1.355 . S
C1942 C1944 1.415 . S
C1943 C1942 1.355 . S
C1943 C1945 1.419 . S
C1944 C1942 1.415 . S
C1944 C1949 1.425 . S
C1944 C1951 1.409 . S
C1945 H1937 0.930 . S
C1945 C1943 1.419 . S
C1945 C1946 1.362 . S
C1946 H1938 0.930 . S
C1946 C1945 1.362 . S
C1946 C1949 1.409 . S
C1947 H1939 0.930 . S
C1947 C1948 1.355 . S
C1947 C1949 1.415 . S
C1948 C1947 1.355 . S
C1948 C1950 1.419 . S
C1949 C1944 1.425 . S
C1949 C1946 1.409 . S
C1949 C1947 1.415 . S
C1950 H1940 0.930 . S
C1950 C1948 1.419 . S
C1950 C1951 1.362 . S
C1951 H1941 0.930 . S
C1951 C1944 1.409 . S
C1951 C1950 1.362 . S
H1952 C1958 0.930 . S
H1953 C1961 0.930 . S
H1954 C1962 0.930 . S
H1955 C1963 0.930 . S
H1956 C1966 0.930 . S
H1957 C1967 0.930 . S
C1958 H1952 0.930 . S
C1958 C1959 1.355 . S
C1958 C1960 1.415 . S
C1959 C1958 1.355 . S
C1959 C1961 1.419 . S
C1960 C1958 1.415 . S
C1960 C1965 1.425 . S
C1960 C1967 1.409 . S
C1961 H1953 0.930 . S
C1961 C1959 1.419 . S
C1961 C1962 1.362 . S
C1962 H1954 0.930 . S
C1962 C1961 1.362 . S
C1962 C1965 1.409 . S
C1963 H1955 0.930 . S
C1963 C1964 1.355 . S
C1963 C1965 1.415 . S
C1964 C1963 1.355 . S
C1964 C1966 1.419 . S
C1965 C1960 1.425 . S
C1965 C1962 1.409 . S
C1965 C1963 1.415 . S
C1966 H1956 0.930 . S
C1966 C1964 1.419 . S
C1966 C1967 1.362 . S
C1967 H1957 0.930 . S
C1967 C1960 1.409 . S
C1967 C1966 1.362 . S
H1968 C1974 0.930 . S
H1969 C1977 0.930 . S
H1970 C1978 0.930 . S
H1971 C1979 0.930 . S
H1972 C1982 0.930 . S
H1973 C1983 0.930 . S
C1974 H1968 0.930 . S
C1974 C1975 1.355 . S
C1974 C1976 1.415 . S
C1975 C1974 1.355 . S
C1975 C1977 1.419 . S
C1976 C1974 1.415 . S
C1976 C1981 1.425 . S
C1976 C1983 1.409 . S
C1977 H1969 0.930 . S
C1977 C1975 1.419 . S
C1977 C1978 1.362 . S
C1978 H1970 0.930 . S
C1978 C1977 1.362 . S
C1978 C1981 1.409 . S
C1979 H1971 0.930 . S
C1979 C1980 1.355 . S
C1979 C1981 1.415 . S
C1980 C1979 1.355 . S
C1980 C1982 1.419 . S
C1981 C1976 1.425 . S
C1981 C1978 1.409 . S
C1981 C1979 1.415 . S
C1982 H1972 0.930 . S
C1982 C1980 1.419 . S
C1982 C1983 1.362 . S
C1983 H1973 0.930 . S
C1983 C1976 1.409 . S
C1983 C1982 1.362 . S
H1984 C1990 0.930 . S
H1985 C1993 0.930 . S
H1986 C1994 0.930 . S
H1987 C1995 0.930 . S
H1988 C1998 0.930 . S
H1989 C1999 0.930 . S
C1990 H1984 0.930 . S
C1990 C1991 1.355 . S
C1990 C1992 1.415 . S
C1991 C1990 1.355 . S
C1991 C1993 1.419 . S
C1992 C1990 1.415 . S
C1992 C1997 1.425 . S
C1992 C1999 1.409 . S
C1993 H1985 0.930 . S
C1993 C1991 1.419 . S
C1993 C1994 1.362 . S
C1994 H1986 0.930 . S
C1994 C1993 1.362 . S
C1994 C1997 1.409 . S
C1995 H1987 0.930 . S
C1995 C1996 1.355 . S
C1995 C1997 1.415 . S
C1996 C1995 1.355 . S
C1996 C1998 1.419 . S
C1997 C1992 1.425 . S
C1997 C1994 1.409 . S
C1997 C1995 1.415 . S
C1998 H1988 0.930 . S
C1998 C1996 1.419 . S
C1998 C1999 1.362 . S
C1999 H1989 0.930 . S
C1999 C1992 1.409 . S
C1999 C1998 1.362 . S
H2000 C2006 0.930 . S
H2001 C2009 0.930 . S
H2002 C2010 0.930 . S
H2003 C2011 0.930 . S
H2004 C2014 0.930 . S
H2005 C2015 0.930 . S
C2006 H2000 0.930 . S
C2006 C2007 1.355 . S
C2006 C2008 1.415 . S
C2007 C2006 1.355 . S
C2007 C2009 1.419 . S
C2008 C2006 1.415 . S
C2008 C2013 1.425 . S
C2008 C2015 1.409 . S
C2009 H2001 0.930 . S
C2009 C2007 1.419 . S
C2009 C2010 1.362 . S
C2010 H2002 0.930 . S
C2010 C2009 1.362 . S
C2010 C2013 1.409 . S
C2011 H2003 0.930 . S
C2011 C2012 1.355 . S
C2011 C2013 1.415 . S
C2012 C2011 1.355 . S
C2012 C2014 1.419 . S
C2013 C2008 1.425 . S
C2013 C2010 1.409 . S
C2013 C2011 1.415 . S
C2014 H2004 0.930 . S
C2014 C2012 1.419 . S
C2014 C2015 1.362 . S
C2015 H2005 0.930 . S
C2015 C2008 1.409 . S
C2015 C2014 1.362 . S
H2016 C2022 0.930 . S
H2017 C2025 0.930 . S
H2018 C2026 0.930 . S
H2019 C2027 0.930 . S
H2020 C2030 0.930 . S
H2021 C2031 0.930 . S
C2022 H2016 0.930 . S
C2022 C2023 1.355 . S
C2022 C2024 1.415 . S
C2023 C2022 1.355 . S
C2023 C2025 1.419 . S
C2024 C2022 1.415 . S
C2024 C2029 1.425 . S
C2024 C2031 1.409 . S
C2025 H2017 0.930 . S
C2025 C2023 1.419 . S
C2025 C2026 1.362 . S
C2026 H2018 0.930 . S
C2026 C2025 1.362 . S
C2026 C2029 1.409 . S
C2027 H2019 0.930 . S
C2027 C2028 1.355 . S
C2027 C2029 1.415 . S
C2028 C2027 1.355 . S
C2028 C2030 1.419 . S
C2029 C2024 1.425 . S
C2029 C2026 1.409 . S
C2029 C2027 1.415 . S
C2030 H2020 0.930 . S
C2030 C2028 1.419 . S
C2030 C2031 1.362 . S
C2031 H2021 0.930 . S
C2031 C2024 1.409 . S
C2031 C2030 1.362 . S
H2032 C2038 0.930 . S
H2033 C2041 0.930 . S
H2034 C2042 0.930 . S
H2035 C2043 0.930 . S
H2036 C2046 0.930 . S
H2037 C2047 0.930 . S
C2038 H2032 0.930 . S
C2038 C2039 1.355 . S
C2038 C2040 1.415 . S
C2039 C2038 1.355 . S
C2039 C2041 1.419 . S
C2040 C2038 1.415 . S
C2040 C2045 1.425 . S
C2040 C2047 1.409 . S
C2041 H2033 0.930 . S
C2041 C2039 1.419 . S
C2041 C2042 1.362 . S
C2042 H2034 0.930 . S
C2042 C2041 1.362 . S
C2042 C2045 1.409 . S
C2043 H2035 0.930 . S
C2043 C2044 1.355 . S
C2043 C2045 1.415 . S
C2044 C2043 1.355 . S
C2044 C2046 1.419 . S
C2045 C2040 1.425 . S
C2045 C2042 1.409 . S
C2045 C2043 1.415 . S
C2046 H2036 0.930 . S
C2046 C2044 1.419 . S
C2046 C2047 1.362 . S
C2047 H2037 0.930 . S
C2047 C2040 1.409 . S
C2047 C2046 1.362 . S
H2048 C2054 0.930 . S
H2049 C2057 0.930 . S
H2050 C2058 0.930 . S
H2051 C2059 0.930 . S
H2052 C2062 0.930 . S
H2053 C2063 0.930 . S
C2054 H2048 0.930 . S
C2054 C2055 1.355 . S
C2054 C2056 1.415 . S
C2055 C2054 1.355 . S
C2055 C2057 1.419 . S
C2056 C2054 1.415 . S
C2056 C2061 1.425 . S
C2056 C2063 1.409 . S
C2057 H2049 0.930 . S
C2057 C2055 1.419 . S
C2057 C2058 1.362 . S
C2058 H2050 0.930 . S
C2058 C2057 1.362 . S
C2058 C2061 1.409 . S
C2059 H2051 0.930 . S
C2059 C2060 1.355 . S
C2059 C2061 1.415 . S
C2060 C2059 1.355 . S
C2060 C2062 1.419 . S
C2061 C2056 1.425 . S
C2061 C2058 1.409 . S
C2061 C2059 1.415 . S
C2062 H2052 0.930 . S
C2062 C2060 1.419 . S
C2062 C2063 1.362 . S
C2063 H2053 0.930 . S
C2063 C2056 1.409 . S
C2063 C2062 1.362 . S
H2064 C2070 0.930 . S
H2065 C2073 0.930 . S
H2066 C2074 0.930 . S
H2067 C2075 0.930 . S
H2068 C2078 0.930 . S
H2069 C2079 0.930 . S
C2070 H2064 0.930 . S
C2070 C2071 1.355 . S
C2070 C2072 1.415 . S
C2071 C2070 1.355 . S
C2071 C2073 1.419 . S
C2072 C2070 1.415 . S
C2072 C2077 1.425 . S
C2072 C2079 1.409 . S
C2073 H2065 0.930 . S
C2073 C2071 1.419 . S
C2073 C2074 1.362 . S
C2074 H2066 0.930 . S
C2074 C2073 1.362 . S
C2074 C2077 1.409 . S
C2075 H2067 0.930 . S
C2075 C2076 1.355 . S
C2075 C2077 1.415 . S
C2076 C2075 1.355 . S
C2076 C2078 1.419 . S
C2077 C2072 1.425 . S
C2077 C2074 1.409 . S
C2077 C2075 1.415 . S
C2078 H2068 0.930 . S
C2078 C2076 1.419 . S
C2078 C2079 1.362 . S
C2079 H2069 0.930 . S
C2079 C2072 1.409 . S
C2079 C2078 1.362 . S
H2080 C2086 0.930 . S
H2081 C2089 0.930 . S
H2082 C2090 0.930 . S
H2083 C2091 0.930 . S
H2084 C2094 0.930 . S
H2085 C2095 0.930 . S
C2086 H2080 0.930 . S
C2086 C2087 1.355 . S
C2086 C2088 1.415 . S
C2087 C2086 1.355 . S
C2087 C2089 1.419 . S
C2088 C2086 1.415 . S
C2088 C2093 1.425 . S
C2088 C2095 1.409 . S
C2089 H2081 0.930 . S
C2089 C2087 1.419 . S
C2089 C2090 1.362 . S
C2090 H2082 0.930 . S
C2090 C2089 1.362 . S
C2090 C2093 1.409 . S
C2091 H2083 0.930 . S
C2091 C2092 1.355 . S
C2091 C2093 1.415 . S
C2092 C2091 1.355 . S
C2092 C2094 1.419 . S
C2093 C2088 1.425 . S
C2093 C2090 1.409 . S
C2093 C2091 1.415 . S
C2094 H2084 0.930 . S
C2094 C2092 1.419 . S
C2094 C2095 1.362 . S
C2095 H2085 0.930 . S
C2095 C2088 1.409 . S
C2095 C2094 1.362 . S
H2096 C2102 0.930 . S
H2097 C2105 0.930 . S
H2098 C2106 0.930 . S
H2099 C2107 0.930 . S
H2100 C2110 0.930 . S
H2101 C2111 0.930 . S
C2102 H2096 0.930 . S
C2102 C2103 1.355 . S
C2102 C2104 1.415 . S
C2103 C2102 1.355 . S
C2103 C2105 1.419 . S
C2104 C2102 1.415 . S
C2104 C2109 1.425 . S
C2104 C2111 1.409 . S
C2105 H2097 0.930 . S
C2105 C2103 1.419 . S
C2105 C2106 1.362 . S
C2106 H2098 0.930 . S
C2106 C2105 1.362 . S
C2106 C2109 1.409 . S
C2107 H2099 0.930 . S
C2107 C2108 1.355 . S
C2107 C2109 1.415 . S
C2108 C2107 1.355 . S
C2108 C2110 1.419 . S
C2109 C2104 1.425 . S
C2109 C2106 1.409 . S
C2109 C2107 1.415 . S
C2110 H2100 0.930 . S
C2110 C2108 1.419 . S
C2110 C2111 1.362 . S
C2111 H2101 0.930 . S
C2111 C2104 1.409 . S
C2111 C2110 1.362 . S
H2112 C2118 0.930 . S
H2113 C2121 0.930 . S
H2114 C2122 0.930 . S
H2115 C2123 0.930 . S
H2116 C2126 0.930 . S
H2117 C2127 0.930 . S
C2118 H2112 0.930 . S
C2118 C2119 1.355 . S
C2118 C2120 1.415 . S
C2119 C2118 1.355 . S
C2119 C2121 1.419 . S
C2120 C2118 1.415 . S
C2120 C2125 1.425 . S
C2120 C2127 1.409 . S
C2121 H2113 0.930 . S
C2121 C2119 1.419 . S
C2121 C2122 1.362 . S
C2122 H2114 0.930 . S
C2122 C2121 1.362 . S
C2122 C2125 1.409 . S
C2123 H2115 0.930 . S
C2123 C2124 1.355 . S
C2123 C2125 1.415 . S
C2124 C2123 1.355 . S
C2124 C2126 1.419 . S
C2125 C2120 1.425 . S
C2125 C2122 1.409 . S
C2125 C2123 1.415 . S
C2126 H2116 0.930 . S
C2126 C2124 1.419 . S
C2126 C2127 1.362 . S
C2127 H2117 0.930 . S
C2127 C2120 1.409 . S
C2127 C2126 1.362 . S
H2128 C2134 0.930 . S
H2129 C2137 0.930 . S
H2130 C2138 0.930 . S
H2131 C2139 0.930 . S
H2132 C2142 0.930 . S
H2133 C2143 0.930 . S
C2134 H2128 0.930 . S
C2134 C2135 1.355 . S
C2134 C2136 1.415 . S
C2135 C2134 1.355 . S
C2135 C2137 1.419 . S
C2136 C2134 1.415 . S
C2136 C2141 1.425 . S
C2136 C2143 1.409 . S
C2137 H2129 0.930 . S
C2137 C2135 1.419 . S
C2137 C2138 1.362 . S
C2138 H2130 0.930 . S
C2138 C2137 1.362 . S
C2138 C2141 1.409 . S
C2139 H2131 0.930 . S
C2139 C2140 1.355 . S
C2139 C2141 1.415 . S
C2140 C2139 1.355 . S
C2140 C2142 1.419 . S
C2141 C2136 1.425 . S
C2141 C2138 1.409 . S
C2141 C2139 1.415 . S
C2142 H2132 0.930 . S
C2142 C2140 1.419 . S
C2142 C2143 1.362 . S
C2143 H2133 0.930 . S
C2143 C2136 1.409 . S
C2143 C2142 1.362 . S
H2144 C2150 0.930 . S
H2145 C2153 0.930 . S
H2146 C2154 0.930 . S
H2147 C2155 0.930 . S
H2148 C2158 0.930 . S
H2149 C2159 0.930 . S
C2150 H2144 0.930 . S
C2150 C2151 1.355 . S
C2150 C2152 1.415 . S
C2151 C2150 1.355 . S
C2151 C2153 1.419 . S
C2152 C2150 1.415 . S
C2152 C2157 1.425 . S
C2152 C2159 1.409 . S
C2153 H2145 0.930 . S
C2153 C2151 1.419 . S
C2153 C2154 1.362 . S
C2154 H2146 0.930 . S
C2154 C2153 1.362 . S
C2154 C2157 1.409 . S
C2155 H2147 0.930 . S
C2155 C2156 1.355 . S
C2155 C2157 1.415 . S
C2156 C2155 1.355 . S
C2156 C2158 1.419 . S
C2157 C2152 1.425 . S
C2157 C2154 1.409 . S
C2157 C2155 1.415 . S
C2158 H2148 0.930 . S
C2158 C2156 1.419 . S
C2158 C2159 1.362 . S
C2159 H2149 0.930 . S
C2159 C2152 1.409 . S
C2159 C2158 1.362 . S
H2160 C2166 0.930 . S
H2161 C2169 0.930 . S
H2162 C2170 0.930 . S
H2163 C2171 0.930 . S
H2164 C2174 0.930 . S
H2165 C2175 0.930 . S
C2166 H2160 0.930 . S
C2166 C2167 1.355 . S
C2166 C2168 1.415 . S
C2167 C2166 1.355 . S
C2167 C2169 1.419 . S
C2168 C2166 1.415 . S
C2168 C2173 1.425 . S
C2168 C2175 1.409 . S
C2169 H2161 0.930 . S
C2169 C2167 1.419 . S
C2169 C2170 1.362 . S
C2170 H2162 0.930 . S
C2170 C2169 1.362 . S
C2170 C2173 1.409 . S
C2171 H2163 0.930 . S
C2171 C2172 1.355 . S
C2171 C2173 1.415 . S
C2172 C2171 1.355 . S
C2172 C2174 1.419 . S
C2173 C2168 1.425 . S
C2173 C2170 1.409 . S
C2173 C2171 1.415 . S
C2174 H2164 0.930 . S
C2174 C2172 1.419 . S
C2174 C2175 1.362 . S
C2175 H2165 0.930 . S
C2175 C2168 1.409 . S
C2175 C2174 1.362 . S
H2176 C2182 0.930 . S
H2177 C2185 0.930 . S
H2178 C2186 0.930 . S
H2179 C2187 0.930 . S
H2180 C2190 0.930 . S
H2181 C2191 0.930 . S
C2182 H2176 0.930 . S
C2182 C2183 1.355 . S
C2182 C2184 1.415 . S
C2183 C2182 1.355 . S
C2183 C2185 1.419 . S
C2184 C2182 1.415 . S
C2184 C2189 1.425 . S
C2184 C2191 1.409 . S
C2185 H2177 0.930 . S
C2185 C2183 1.419 . S
C2185 C2186 1.362 . S
C2186 H2178 0.930 . S
C2186 C2185 1.362 . S
C2186 C2189 1.409 . S
C2187 H2179 0.930 . S
C2187 C2188 1.355 . S
C2187 C2189 1.415 . S
C2188 C2187 1.355 . S
C2188 C2190 1.419 . S
C2189 C2184 1.425 . S
C2189 C2186 1.409 . S
C2189 C2187 1.415 . S
C2190 H2180 0.930 . S
C2190 C2188 1.419 . S
C2190 C2191 1.362 . S
C2191 H2181 0.930 . S
C2191 C2184 1.409 . S
C2191 C2190 1.362 . S
H2192 C2198 0.930 . S
H2193 C2201 0.930 . S
H2194 C2202 0.930 . S
H2195 C2203 0.930 . S
H2196 C2206 0.930 . S
H2197 C2207 0.930 . S
C2198 H2192 0.930 . S
C2198 C2199 1.355 . S
C2198 C2200 1.415 . S
C2199 C2198 1.355 . S
C2199 C2201 1.419 . S
C2200 C2198 1.415 . S
C2200 C2205 1.425 . S
C2200 C2207 1.409 . S
C2201 H2193 0.930 . S
C2201 C2199 1.419 . S
C2201 C2202 1.362 . S
C2202 H2194 0.930 . S
C2202 C2201 1.362 . S
C2202 C2205 1.409 . S
C2203 H2195 0.930 . S
C2203 C2204 1.355 . S
C2203 C2205 1.415 . S
C2204 C2203 1.355 . S
C2204 C2206 1.419 . S
C2205 C2200 1.425 . S
C2205 C2202 1.409 . S
C2205 C2203 1.415 . S
C2206 H2196 0.930 . S
C2206 C2204 1.419 . S
C2206 C2207 1.362 . S
C2207 H2197 0.930 . S
C2207 C2200 1.409 . S
C2207 C2206 1.362 . S
H2208 C2214 0.930 . S
H2209 C2217 0.930 . S
H2210 C2218 0.930 . S
H2211 C2219 0.930 . S
H2212 C2222 0.930 . S
H2213 C2223 0.930 . S
C2214 H2208 0.930 . S
C2214 C2215 1.355 . S
C2214 C2216 1.415 . S
C2215 C2214 1.355 . S
C2215 C2217 1.419 . S
C2216 C2214 1.415 . S
C2216 C2221 1.425 . S
C2216 C2223 1.409 . S
C2217 H2209 0.930 . S
C2217 C2215 1.419 . S
C2217 C2218 1.362 . S
C2218 H2210 0.930 . S
C2218 C2217 1.362 . S
C2218 C2221 1.409 . S
C2219 H2211 0.930 . S
C2219 C2220 1.355 . S
C2219 C2221 1.415 . S
C2220 C2219 1.355 . S
C2220 C2222 1.419 . S
C2221 C2216 1.425 . S
C2221 C2218 1.409 . S
C2221 C2219 1.415 . S
C2222 H2212 0.930 . S
C2222 C2220 1.419 . S
C2222 C2223 1.362 . S
C2223 H2213 0.930 . S
C2223 C2216 1.409 . S
C2223 C2222 1.362 . S
H2224 C2230 0.930 . S
H2225 C2233 0.930 . S
H2226 C2234 0.930 . S
H2227 C2235 0.930 . S
H2228 C2238 0.930 . S
H2229 C2239 0.930 . S
C2230 H2224 0.930 . S
C2230 C2231 1.355 . S
C2230 C2232 1.415 . S
C2231 C2230 1.355 . S
C2231 C2233 1.419 . S
C2232 C2230 1.415 . S
C2232 C2237 1.425 . S
C2232 C2239 1.409 . S
C2233 H2225 0.930 . S
C2233 C2231 1.419 . S
C2233 C2234 1.362 . S
C2234 H2226 0.930 . S
C2234 C2233 1.362 . S
C2234 C2237 1.409 . S
C2235 H2227 0.930 . S
C2235 C2236 1.355 . S
C2235 C2237 1.415 . S
C2236 C2235 1.355 . S
C2236 C2238 1.419 . S
C2237 C2232 1.425 . S
C2237 C2234 1.409 . S
C2237 C2235 1.415 . S
C2238 H2228 0.930 . S
C2238 C2236 1.419 . S
C2238 C2239 1.362 . S
C2239 H2229 0.930 . S
C2239 C2232 1.409 . S
C2239 C2238 1.362 . S
H2240 C2246 0.930 . S
H2241 C2249 0.930 . S
H2242 C2250 0.930 . S
H2243 C2251 0.930 . S
H2244 C2254 0.930 . S
H2245 C2255 0.930 . S
C2246 H2240 0.930 . S
C2246 C2247 1.355 . S
C2246 C2248 1.415 . S
C2247 C2246 1.355 . S
C2247 C2249 1.419 . S
C2248 C2246 1.415 . S
C2248 C2253 1.425 . S
C2248 C2255 1.409 . S
C2249 H2241 0.930 . S
C2249 C2247 1.419 . S
C2249 C2250 1.362 . S
C2250 H2242 0.930 . S
C2250 C2249 1.362 . S
C2250 C2253 1.409 . S
C2251 H2243 0.930 . S
C2251 C2252 1.355 . S
C2251 C2253 1.415 . S
C2252 C2251 1.355 . S
C2252 C2254 1.419 . S
C2253 C2248 1.425 . S
C2253 C2250 1.409 . S
C2253 C2251 1.415 . S
C2254 H2244 0.930 . S
C2254 C2252 1.419 . S
C2254 C2255 1.362 . S
C2255 H2245 0.930 . S
C2255 C2248 1.409 . S
C2255 C2254 1.362 . S
H2256 C2262 0.930 . S
H2257 C2265 0.930 . S
H2258 C2266 0.930 . S
H2259 C2267 0.930 . S
H2260 C2270 0.930 1_655 S
H2261 C2271 0.930 . S
C2262 H2256 0.930 . S
C2262 C2263 1.355 . S
C2262 C2264 1.415 . S
C2263 C2262 1.355 . S
C2263 C2265 1.419 . S
C2264 C2262 1.415 . S
C2264 C2269 1.425 . S
C2264 C2271 1.409 . S
C2265 H2257 0.930 . S
C2265 C2263 1.419 . S
C2265 C2266 1.362 . S
C2266 H2258 0.930 . S
C2266 C2265 1.362 . S
C2266 C2269 1.409 . S
C2267 H2259 0.930 . S
C2267 C2268 1.355 . S
C2267 C2269 1.415 . S
C2268 C2267 1.355 . S
C2268 C2270 1.419 . S
C2269 C2264 1.425 . S
C2269 C2266 1.409 . S
C2269 C2267 1.415 . S
C2270 H2260 0.930 1_455 S
C2270 C2268 1.419 . S
C2270 C2271 1.362 . S
C2271 H2261 0.930 . S
C2271 C2264 1.409 . S
C2271 C2270 1.362 . S
H2272 C2278 0.930 . S
H2273 C2281 0.930 . S
H2274 C2282 0.930 . S
H2275 C2283 0.930 . S
H2276 C2286 0.930 . S
H2277 C2287 0.930 . S
C2278 H2272 0.930 . S
C2278 C2279 1.355 . S
C2278 C2280 1.415 . S
C2279 C2278 1.355 . S
C2279 C2281 1.419 . S
C2280 C2278 1.415 . S
C2280 C2285 1.425 . S
C2280 C2287 1.409 . S
C2281 H2273 0.930 . S
C2281 C2279 1.419 . S
C2281 C2282 1.362 . S
C2282 H2274 0.930 . S
C2282 C2281 1.362 . S
C2282 C2285 1.409 . S
C2283 H2275 0.930 . S
C2283 C2284 1.355 . S
C2283 C2285 1.415 . S
C2284 C2283 1.355 . S
C2284 C2286 1.419 . S
C2285 C2280 1.425 . S
C2285 C2282 1.409 . S
C2285 C2283 1.415 . S
C2286 H2276 0.930 . S
C2286 C2284 1.419 . S
C2286 C2287 1.362 . S
C2287 H2277 0.930 . S
C2287 C2280 1.409 . S
C2287 C2286 1.362 . S
H2288 C2294 0.930 . S
H2289 C2297 0.930 . S
H2290 C2298 0.930 . S
H2291 C2299 0.930 . S
H2292 C2302 0.930 . S
H2293 C2303 0.930 . S
C2294 H2288 0.930 . S
C2294 C2295 1.355 . S
C2294 C2296 1.415 . S
C2295 C2294 1.355 . S
C2295 C2297 1.419 . S
C2296 C2294 1.415 . S
C2296 C2301 1.425 . S
C2296 C2303 1.409 . S
C2297 H2289 0.930 . S
C2297 C2295 1.419 . S
C2297 C2298 1.362 . S
C2298 H2290 0.930 . S
C2298 C2297 1.362 . S
C2298 C2301 1.409 . S
C2299 H2291 0.930 . S
C2299 C2300 1.355 . S
C2299 C2301 1.415 . S
C2300 C2299 1.355 . S
C2300 C2302 1.419 . S
C2301 C2296 1.425 . S
C2301 C2298 1.409 . S
C2301 C2299 1.415 . S
C2302 H2292 0.930 . S
C2302 C2300 1.419 . S
C2302 C2303 1.362 . S
C2303 H2293 0.930 . S
C2303 C2296 1.409 . S
C2303 C2302 1.362 . S
H2304 C2310 0.930 . S
H2305 C2313 0.930 . S
H2306 C2314 0.930 . S
H2307 C2315 0.930 . S
H2308 C2318 0.930 . S
H2309 C2319 0.930 . S
C2310 H2304 0.930 . S
C2310 C2311 1.355 . S
C2310 C2312 1.415 . S
C2311 C2310 1.355 . S
C2311 C2313 1.419 . S
C2312 C2310 1.415 . S
C2312 C2317 1.425 1_545 S
C2312 C2319 1.409 1_545 S
C2313 H2305 0.930 . S
C2313 C2311 1.419 . S
C2313 C2314 1.362 . S
C2314 H2306 0.930 . S
C2314 C2313 1.362 . S
C2314 C2317 1.409 1_545 S
C2315 H2307 0.930 . S
C2315 C2316 1.355 . S
C2315 C2317 1.415 . S
C2316 C2315 1.355 . S
C2316 C2318 1.419 . S
C2317 C2312 1.425 1_565 S
C2317 C2314 1.409 1_565 S
C2317 C2315 1.415 . S
C2318 H2308 0.930 . S
C2318 C2316 1.419 . S
C2318 C2319 1.362 . S
C2319 H2309 0.930 . S
C2319 C2312 1.409 1_565 S
C2319 C2318 1.362 . S
H2320 C2326 0.930 . S
H2321 C2329 0.930 . S
H2322 C2330 0.930 . S
H2323 C2331 0.930 . S
H2324 C2334 0.930 . S
H2325 C2335 0.930 . S
C2326 H2320 0.930 . S
C2326 C2327 1.355 . S
C2326 C2328 1.415 . S
C2327 C2326 1.355 . S
C2327 C2329 1.419 . S
C2328 C2326 1.415 . S
C2328 C2333 1.425 . S
C2328 C2335 1.409 . S
C2329 H2321 0.930 . S
C2329 C2327 1.419 . S
C2329 C2330 1.362 . S
C2330 H2322 0.930 . S
C2330 C2329 1.362 . S
C2330 C2333 1.409 . S
C2331 H2323 0.930 . S
C2331 C2332 1.355 . S
C2331 C2333 1.415 . S
C2332 C2331 1.355 . S
C2332 C2334 1.419 . S
C2333 C2328 1.425 . S
C2333 C2330 1.409 . S
C2333 C2331 1.415 . S
C2334 H2324 0.930 . S
C2334 C2332 1.419 . S
C2334 C2335 1.362 . S
C2335 H2325 0.930 . S
C2335 C2328 1.409 . S
C2335 C2334 1.362 . S
H2336 C2342 0.930 . S
H2337 C2345 0.930 . S
H2338 C2346 0.930 . S
H2339 C2347 0.930 . S
H2340 C2350 0.930 . S
H2341 C2351 0.930 . S
C2342 H2336 0.930 . S
C2342 C2343 1.355 . S
C2342 C2344 1.415 . S
C2343 C2342 1.355 . S
C2343 C2345 1.419 . S
C2344 C2342 1.415 . S
C2344 C2349 1.425 1_565 S
C2344 C2351 1.409 1_565 S
C2345 H2337 0.930 . S
C2345 C2343 1.419 . S
C2345 C2346 1.362 . S
C2346 H2338 0.930 . S
C2346 C2345 1.362 . S
C2346 C2349 1.409 1_565 S
C2347 H2339 0.930 . S
C2347 C2348 1.355 . S
C2347 C2349 1.415 . S
C2348 C2347 1.355 . S
C2348 C2350 1.419 . S
C2349 C2344 1.425 1_545 S
C2349 C2346 1.409 1_545 S
C2349 C2347 1.415 . S
C2350 H2340 0.930 . S
C2350 C2348 1.419 . S
C2350 C2351 1.362 . S
C2351 H2341 0.930 . S
C2351 C2344 1.409 1_545 S
C2351 C2350 1.362 . S
H2352 C2358 0.930 . S
H2353 C2361 0.930 . S
H2354 C2362 0.930 . S
H2355 C2363 0.930 . S
H2356 C2366 0.930 . S
H2357 C2367 0.930 . S
C2358 H2352 0.930 . S
C2358 C2359 1.355 1_556 S
C2358 C2360 1.415 . S
C2359 C2358 1.355 1_554 S
C2359 C2361 1.419 . S
C2360 C2358 1.415 . S
C2360 C2365 1.425 1_556 S
C2360 C2367 1.409 . S
C2361 H2353 0.930 . S
C2361 C2359 1.419 . S
C2361 C2362 1.362 . S
C2362 H2354 0.930 . S
C2362 C2361 1.362 . S
C2362 C2365 1.409 . S
C2363 H2355 0.930 . S
C2363 C2364 1.355 1_554 S
C2363 C2365 1.415 . S
C2364 C2363 1.355 1_556 S
C2364 C2366 1.419 . S
C2365 C2360 1.425 1_554 S
C2365 C2362 1.409 . S
C2365 C2363 1.415 . S
C2366 H2356 0.930 . S
C2366 C2364 1.419 . S
C2366 C2367 1.362 . S
C2367 H2357 0.930 . S
C2367 C2360 1.409 . S
C2367 C2366 1.362 . S
H2368 C2374 0.930 . S
H2369 C2377 0.930 . S
H2370 C2378 0.930 . S
H2371 C2379 0.930 . S
H2372 C2382 0.930 . S
H2373 C2383 0.930 . S
C2374 H2368 0.930 . S
C2374 C2375 1.355 . S
C2374 C2376 1.415 . S
C2375 C2374 1.355 . S
C2375 C2377 1.419 . S
C2376 C2374 1.415 . S
C2376 C2381 1.425 1_545 S
C2376 C2383 1.409 1_545 S
C2377 H2369 0.930 . S
C2377 C2375 1.419 . S
C2377 C2378 1.362 . S
C2378 H2370 0.930 . S
C2378 C2377 1.362 . S
C2378 C2381 1.409 1_545 S
C2379 H2371 0.930 . S
C2379 C2380 1.355 . S
C2379 C2381 1.415 . S
C2380 C2379 1.355 . S
C2380 C2382 1.419 . S
C2381 C2376 1.425 1_565 S
C2381 C2378 1.409 1_565 S
C2381 C2379 1.415 . S
C2382 H2372 0.930 . S
C2382 C2380 1.419 . S
C2382 C2383 1.362 . S
C2383 H2373 0.930 . S
C2383 C2376 1.409 1_565 S
C2383 C2382 1.362 . S
H2384 C2390 0.930 . S
H2385 C2393 0.930 . S
H2386 C2394 0.930 . S
H2387 C2395 0.930 . S
H2388 C2398 0.930 . S
H2389 C2399 0.930 . S
C2390 H2384 0.930 . S
C2390 C2391 1.355 . S
C2390 C2392 1.415 . S
C2391 C2390 1.355 . S
C2391 C2393 1.419 . S
C2392 C2390 1.415 . S
C2392 C2397 1.425 . S
C2392 C2399 1.409 . S
C2393 H2385 0.930 . S
C2393 C2391 1.419 . S
C2393 C2394 1.362 . S
C2394 H2386 0.930 . S
C2394 C2393 1.362 . S
C2394 C2397 1.409 . S
C2395 H2387 0.930 . S
C2395 C2396 1.355 . S
C2395 C2397 1.415 . S
C2396 C2395 1.355 . S
C2396 C2398 1.419 . S
C2397 C2392 1.425 . S
C2397 C2394 1.409 . S
C2397 C2395 1.415 . S
C2398 H2388 0.930 . S
C2398 C2396 1.419 . S
C2398 C2399 1.362 . S
C2399 H2389 0.930 . S
C2399 C2392 1.409 . S
C2399 C2398 1.362 . S
H2400 C2406 0.930 . S
H2401 C2409 0.930 . S
H2402 C2410 0.930 . S
H2403 C2411 0.930 . S
H2404 C2414 0.930 . S
H2405 C2415 0.930 . S
C2406 H2400 0.930 . S
C2406 C2407 1.355 . S
C2406 C2408 1.415 . S
C2407 C2406 1.355 . S
C2407 C2409 1.419 . S
C2408 C2406 1.415 . S
C2408 C2413 1.425 1_545 S
C2408 C2415 1.409 1_545 S
C2409 H2401 0.930 . S
C2409 C2407 1.419 . S
C2409 C2410 1.362 . S
C2410 H2402 0.930 . S
C2410 C2409 1.362 . S
C2410 C2413 1.409 1_545 S
C2411 H2403 0.930 . S
C2411 C2412 1.355 . S
C2411 C2413 1.415 . S
C2412 C2411 1.355 . S
C2412 C2414 1.419 . S
C2413 C2408 1.425 1_565 S
C2413 C2410 1.409 1_565 S
C2413 C2411 1.415 . S
C2414 H2404 0.930 . S
C2414 C2412 1.419 . S
C2414 C2415 1.362 . S
C2415 H2405 0.930 . S
C2415 C2408 1.409 1_565 S
C2415 C2414 1.362 . S
H2416 C2422 0.930 . S
H2417 C2425 0.930 . S
H2418 C2426 0.930 . S
H2419 C2427 0.930 . S
H2420 C2430 0.930 . S
H2421 C2431 0.930 . S
C2422 H2416 0.930 . S
C2422 C2423 1.334 1_554 S
C2422 C2424 1.415 . S
C2423 C2422 1.334 1_556 S
C2423 C2425 1.447 . S
C2424 C2422 1.415 . S
C2424 C2429 1.425 1_554 S
C2424 C2431 1.409 . S
C2425 H2417 0.930 . S
C2425 C2423 1.447 . S
C2425 C2426 1.362 . S
C2426 H2418 0.930 . S
C2426 C2425 1.362 . S
C2426 C2429 1.409 . S
C2427 H2419 0.930 . S
C2427 C2428 1.334 1_556 S
C2427 C2429 1.415 . S
C2428 C2427 1.334 1_554 S
C2428 C2430 1.447 . S
C2429 C2424 1.425 1_556 S
C2429 C2426 1.409 . S
C2429 C2427 1.415 . S
C2430 H2420 0.930 . S
C2430 C2428 1.447 . S
C2430 C2431 1.362 . S
C2431 H2421 0.930 . S
C2431 C2424 1.409 . S
C2431 C2430 1.362 . S
H2432 C2438 0.930 . S
H2433 C2441 0.930 . S
H2434 C2442 0.930 . S
H2435 C2443 0.930 . S
H2436 C2446 0.930 . S
H2437 C2447 0.930 . S
C2438 H2432 0.930 . S
C2438 C2439 1.355 . S
C2438 C2440 1.415 . S
C2439 C2438 1.355 . S
C2439 C2441 1.419 . S
C2440 C2438 1.415 . S
C2440 C2445 1.425 . S
C2440 C2447 1.409 . S
C2441 H2433 0.930 . S
C2441 C2439 1.419 . S
C2441 C2442 1.362 . S
C2442 H2434 0.930 . S
C2442 C2441 1.362 . S
C2442 C2445 1.409 . S
C2443 H2435 0.930 . S
C2443 C2444 1.355 . S
C2443 C2445 1.415 . S
C2444 C2443 1.355 . S
C2444 C2446 1.419 . S
C2445 C2440 1.425 . S
C2445 C2442 1.409 . S
C2445 C2443 1.415 . S
C2446 H2436 0.930 . S
C2446 C2444 1.419 . S
C2446 C2447 1.362 . S
C2447 H2437 0.930 . S
C2447 C2440 1.409 . S
C2447 C2446 1.362 . S
H2448 C2454 0.930 . S
H2449 C2457 0.930 . S
H2450 C2458 0.930 . S
H2451 C2459 0.930 . S
H2452 C2462 0.930 . S
H2453 C2463 0.930 . S
C2454 H2448 0.930 . S
C2454 C2455 1.355 1_554 S
C2454 C2456 1.415 . S
C2455 C2454 1.355 1_556 S
C2455 C2457 1.419 . S
C2456 C2454 1.415 . S
C2456 C2461 1.425 1_554 S
C2456 C2463 1.409 . S
C2457 H2449 0.930 . S
C2457 C2455 1.419 . S
C2457 C2458 1.362 . S
C2458 H2450 0.930 . S
C2458 C2457 1.362 . S
C2458 C2461 1.409 . S
C2459 H2451 0.930 . S
C2459 C2460 1.355 1_556 S
C2459 C2461 1.415 . S
C2460 C2459 1.355 1_554 S
C2460 C2462 1.419 . S
C2461 C2456 1.425 1_556 S
C2461 C2458 1.409 . S
C2461 C2459 1.415 . S
C2462 H2452 0.930 . S
C2462 C2460 1.419 . S
C2462 C2463 1.362 . S
C2463 H2453 0.930 . S
C2463 C2456 1.409 . S
C2463 C2462 1.362 . S
H2464 C2470 0.930 . S
H2465 C2473 0.930 . S
H2466 C2474 0.930 . S
H2467 C2475 0.930 . S
H2468 C2478 0.930 . S
H2469 C2479 0.930 . S
C2470 H2464 0.930 . S
C2470 C2471 1.355 . S
C2470 C2472 1.415 . S
C2471 C2470 1.355 . S
C2471 C2473 1.419 . S
C2472 C2470 1.415 . S
C2472 C2477 1.425 . S
C2472 C2479 1.409 . S
C2473 H2465 0.930 . S
C2473 C2471 1.419 . S
C2473 C2474 1.362 . S
C2474 H2466 0.930 . S
C2474 C2473 1.362 . S
C2474 C2477 1.409 . S
C2475 H2467 0.930 . S
C2475 C2476 1.355 . S
C2475 C2477 1.415 . S
C2476 C2475 1.355 . S
C2476 C2478 1.419 . S
C2477 C2472 1.425 . S
C2477 C2474 1.409 . S
C2477 C2475 1.415 . S
C2478 H2468 0.930 . S
C2478 C2476 1.419 . S
C2478 C2479 1.362 . S
C2479 H2469 0.930 . S
C2479 C2472 1.409 . S
C2479 C2478 1.362 . S
H2480 C2486 0.930 . S
H2481 C2489 0.930 . S
H2482 C2490 0.930 . S
H2483 C2491 0.930 . S
H2484 C2494 0.930 . S
H2485 C2495 0.930 . S
C2486 H2480 0.930 . S
C2486 C2487 1.355 . S
C2486 C2488 1.415 . S
C2487 C2486 1.355 . S
C2487 C2489 1.419 . S
C2488 C2486 1.415 . S
C2488 C2493 1.425 . S
C2488 C2495 1.409 . S
C2489 H2481 0.930 . S
C2489 C2487 1.419 . S
C2489 C2490 1.362 . S
C2490 H2482 0.930 . S
C2490 C2489 1.362 . S
C2490 C2493 1.409 . S
C2491 H2483 0.930 . S
C2491 C2492 1.355 . S
C2491 C2493 1.415 . S
C2492 C2491 1.355 . S
C2492 C2494 1.419 . S
C2493 C2488 1.425 . S
C2493 C2490 1.409 . S
C2493 C2491 1.415 . S
C2494 H2484 0.930 . S
C2494 C2492 1.419 . S
C2494 C2495 1.362 . S
C2495 H2485 0.930 . S
C2495 C2488 1.409 . S
C2495 C2494 1.362 . S
H2496 C2502 0.930 . S
H2497 C2505 0.930 . S
H2498 C2506 0.930 . S
H2499 C2507 0.930 . S
H2500 C2510 0.930 . S
H2501 C2511 0.930 . S
C2502 H2496 0.930 . S
C2502 C2503 1.355 . S
C2502 C2504 1.415 . S
C2503 C2502 1.355 . S
C2503 C2505 1.419 . S
C2504 C2502 1.415 . S
C2504 C2509 1.425 . S
C2504 C2511 1.409 . S
C2505 H2497 0.930 . S
C2505 C2503 1.419 . S
C2505 C2506 1.362 . S
C2506 H2498 0.930 . S
C2506 C2505 1.362 . S
C2506 C2509 1.409 . S
C2507 H2499 0.930 . S
C2507 C2508 1.355 . S
C2507 C2509 1.415 . S
C2508 C2507 1.355 . S
C2508 C2510 1.419 . S
C2509 C2504 1.425 . S
C2509 C2506 1.409 . S
C2509 C2507 1.415 . S
C2510 H2500 0.930 . S
C2510 C2508 1.419 . S
C2510 C2511 1.362 . S
C2511 H2501 0.930 . S
C2511 C2504 1.409 . S
C2511 C2510 1.362 . S
H2512 C2518 0.930 . S
H2513 C2521 0.930 . S
H2514 C2522 0.930 . S
H2515 C2523 0.930 . S
H2516 C2526 0.930 . S
H2517 C2527 0.930 . S
C2518 H2512 0.930 . S
C2518 C2519 1.355 1_556 S
C2518 C2520 1.415 . S
C2519 C2518 1.355 1_554 S
C2519 C2521 1.419 . S
C2520 C2518 1.415 . S
C2520 C2525 1.425 1_556 S
C2520 C2527 1.409 . S
C2521 H2513 0.930 . S
C2521 C2519 1.419 . S
C2521 C2522 1.362 . S
C2522 H2514 0.930 . S
C2522 C2521 1.362 . S
C2522 C2525 1.409 . S
C2523 H2515 0.930 . S
C2523 C2524 1.355 1_554 S
C2523 C2525 1.415 . S
C2524 C2523 1.355 1_556 S
C2524 C2526 1.419 . S
C2525 C2520 1.425 1_554 S
C2525 C2522 1.409 . S
C2525 C2523 1.415 . S
C2526 H2516 0.930 . S
C2526 C2524 1.419 . S
C2526 C2527 1.362 . S
C2527 H2517 0.930 . S
C2527 C2520 1.409 . S
C2527 C2526 1.362 . S
H2528 C2534 0.930 . S
H2529 C2537 0.930 . S
H2530 C2538 0.930 . S
H2531 C2539 0.930 . S
H2532 C2542 0.930 . S
H2533 C2543 0.930 . S
C2534 H2528 0.930 . S
C2534 C2535 1.355 . S
C2534 C2536 1.415 . S
C2535 C2534 1.355 . S
C2535 C2537 1.419 . S
C2536 C2534 1.415 . S
C2536 C2541 1.425 . S
C2536 C2543 1.409 . S
C2537 H2529 0.930 . S
C2537 C2535 1.419 . S
C2537 C2538 1.362 . S
C2538 H2530 0.930 . S
C2538 C2537 1.362 . S
C2538 C2541 1.409 . S
C2539 H2531 0.930 . S
C2539 C2540 1.355 . S
C2539 C2541 1.415 . S
C2540 C2539 1.355 . S
C2540 C2542 1.419 . S
C2541 C2536 1.425 . S
C2541 C2538 1.409 . S
C2541 C2539 1.415 . S
C2542 H2532 0.930 . S
C2542 C2540 1.419 . S
C2542 C2543 1.362 . S
C2543 H2533 0.930 . S
C2543 C2536 1.409 . S
C2543 C2542 1.362 . S
H2544 C2550 0.930 . S
H2545 C2553 0.930 . S
H2546 C2554 0.930 . S
H2547 C2555 0.930 . S
H2548 C2558 0.930 . S
H2549 C2559 0.930 . S
C2550 H2544 0.930 . S
C2550 C2551 1.355 . S
C2550 C2552 1.415 . S
C2551 C2550 1.355 . S
C2551 C2553 1.419 . S
C2552 C2550 1.415 . S
C2552 C2557 1.425 . S
C2552 C2559 1.409 . S
C2553 H2545 0.930 . S
C2553 C2551 1.419 . S
C2553 C2554 1.362 . S
C2554 H2546 0.930 . S
C2554 C2553 1.362 . S
C2554 C2557 1.409 . S
C2555 H2547 0.930 . S
C2555 C2556 1.355 . S
C2555 C2557 1.415 . S
C2556 C2555 1.355 . S
C2556 C2558 1.419 . S
C2557 C2552 1.425 . S
C2557 C2554 1.409 . S
C2557 C2555 1.415 . S
C2558 H2548 0.930 . S
C2558 C2556 1.419 . S
C2558 C2559 1.362 . S
C2559 H2549 0.930 . S
C2559 C2552 1.409 . S
C2559 C2558 1.362 . S
H2560 C2566 0.930 . S
H2561 C2569 0.930 . S
H2562 C2570 0.930 . S
H2563 C2571 0.930 . S
H2564 C2574 0.930 . S
H2565 C2575 0.930 . S
C2566 H2560 0.930 . S
C2566 C2567 1.355 . S
C2566 C2568 1.415 . S
C2567 C2566 1.355 . S
C2567 C2569 1.419 . S
C2568 C2566 1.415 . S
C2568 C2573 1.425 . S
C2568 C2575 1.409 . S
C2569 H2561 0.930 . S
C2569 C2567 1.419 . S
C2569 C2570 1.362 . S
C2570 H2562 0.930 . S
C2570 C2569 1.362 . S
C2570 C2573 1.409 . S
C2571 H2563 0.930 . S
C2571 C2572 1.355 . S
C2571 C2573 1.415 . S
C2572 C2571 1.355 . S
C2572 C2574 1.419 . S
C2573 C2568 1.425 . S
C2573 C2570 1.409 . S
C2573 C2571 1.415 . S
C2574 H2564 0.930 . S
C2574 C2572 1.419 . S
C2574 C2575 1.362 . S
C2575 H2565 0.930 . S
C2575 C2568 1.409 . S
C2575 C2574 1.362 . S
H2576 C2582 0.930 . S
H2577 C2585 0.930 . S
H2578 C2586 0.930 . S
H2579 C2587 0.930 . S
H2580 C2590 0.930 . S
H2581 C2591 0.930 . S
C2582 H2576 0.930 . S
C2582 C2583 1.355 . S
C2582 C2584 1.415 . S
C2583 C2582 1.355 . S
C2583 C2585 1.419 . S
C2584 C2582 1.415 . S
C2584 C2589 1.425 . S
C2584 C2591 1.409 . S
C2585 H2577 0.930 . S
C2585 C2583 1.419 . S
C2585 C2586 1.362 . S
C2586 H2578 0.930 . S
C2586 C2585 1.362 . S
C2586 C2589 1.409 . S
C2587 H2579 0.930 . S
C2587 C2588 1.355 . S
C2587 C2589 1.415 . S
C2588 C2587 1.355 . S
C2588 C2590 1.419 . S
C2589 C2584 1.425 . S
C2589 C2586 1.409 . S
C2589 C2587 1.415 . S
C2590 H2580 0.930 . S
C2590 C2588 1.419 . S
C2590 C2591 1.362 . S
C2591 H2581 0.930 . S
C2591 C2584 1.409 . S
C2591 C2590 1.362 . S
H2592 C2598 0.930 . S
H2593 C2601 0.930 . S
H2594 C2602 0.930 . S
H2595 C2603 0.930 . S
H2596 C2606 0.930 . S
H2597 C2607 0.930 . S
C2598 H2592 0.930 . S
C2598 C2599 1.355 . S
C2598 C2600 1.415 . S
C2599 C2598 1.355 . S
C2599 C2601 1.419 . S
C2600 C2598 1.415 . S
C2600 C2605 1.425 . S
C2600 C2607 1.409 . S
C2601 H2593 0.930 . S
C2601 C2599 1.419 . S
C2601 C2602 1.362 . S
C2602 H2594 0.930 . S
C2602 C2601 1.362 . S
C2602 C2605 1.409 . S
C2603 H2595 0.930 . S
C2603 C2604 1.355 . S
C2603 C2605 1.415 . S
C2604 C2603 1.355 . S
C2604 C2606 1.419 . S
C2605 C2600 1.425 . S
C2605 C2602 1.409 . S
C2605 C2603 1.415 . S
C2606 H2596 0.930 . S
C2606 C2604 1.419 . S
C2606 C2607 1.362 . S
C2607 H2597 0.930 . S
C2607 C2600 1.409 . S
C2607 C2606 1.362 . S
H2608 C2614 0.930 . S
H2609 C2617 0.930 . S
H2610 C2618 0.930 . S
H2611 C2619 0.930 . S
H2612 C2622 0.930 . S
H2613 C2623 0.930 . S
C2614 H2608 0.930 . S
C2614 C2615 1.355 . S
C2614 C2616 1.415 . S
C2615 C2614 1.355 . S
C2615 C2617 1.419 . S
C2616 C2614 1.415 . S
C2616 C2621 1.425 . S
C2616 C2623 1.409 . S
C2617 H2609 0.930 . S
C2617 C2615 1.419 . S
C2617 C2618 1.362 . S
C2618 H2610 0.930 . S
C2618 C2617 1.362 . S
C2618 C2621 1.409 . S
C2619 H2611 0.930 . S
C2619 C2620 1.355 . S
C2619 C2621 1.415 . S
C2620 C2619 1.355 . S
C2620 C2622 1.419 . S
C2621 C2616 1.425 . S
C2621 C2618 1.409 . S
C2621 C2619 1.415 . S
C2622 H2612 0.930 . S
C2622 C2620 1.419 . S
C2622 C2623 1.362 . S
C2623 H2613 0.930 . S
C2623 C2616 1.409 . S
C2623 C2622 1.362 . S
H2624 C2630 0.930 . S
H2625 C2633 0.930 . S
H2626 C2634 0.930 . S
H2627 C2635 0.930 . S
H2628 C2638 0.930 . S
H2629 C2639 0.930 . S
C2630 H2624 0.930 . S
C2630 C2631 1.355 . S
C2630 C2632 1.415 . S
C2631 C2630 1.355 . S
C2631 C2633 1.419 . S
C2632 C2630 1.415 . S
C2632 C2637 1.425 . S
C2632 C2639 1.409 . S
C2633 H2625 0.930 . S
C2633 C2631 1.419 . S
C2633 C2634 1.362 . S
C2634 H2626 0.930 . S
C2634 C2633 1.362 . S
C2634 C2637 1.409 . S
C2635 H2627 0.930 . S
C2635 C2636 1.355 . S
C2635 C2637 1.415 . S
C2636 C2635 1.355 . S
C2636 C2638 1.419 . S
C2637 C2632 1.425 . S
C2637 C2634 1.409 . S
C2637 C2635 1.415 . S
C2638 H2628 0.930 . S
C2638 C2636 1.419 . S
C2638 C2639 1.362 . S
C2639 H2629 0.930 . S
C2639 C2632 1.409 . S
C2639 C2638 1.362 . S
H2640 C2646 0.930 . S
H2641 C2649 0.930 . S
H2642 C2650 0.930 . S
H2643 C2651 0.930 . S
H2644 C2654 0.930 . S
H2645 C2655 0.930 . S
C2646 H2640 0.930 . S
C2646 C2647 1.355 . S
C2646 C2648 1.415 . S
C2647 C2646 1.355 . S
C2647 C2649 1.419 . S
C2648 C2646 1.415 . S
C2648 C2653 1.425 . S
C2648 C2655 1.409 . S
C2649 H2641 0.930 . S
C2649 C2647 1.419 . S
C2649 C2650 1.362 . S
C2650 H2642 0.930 . S
C2650 C2649 1.362 . S
C2650 C2653 1.409 . S
C2651 H2643 0.930 . S
C2651 C2652 1.355 . S
C2651 C2653 1.415 . S
C2652 C2651 1.355 . S
C2652 C2654 1.419 . S
C2653 C2648 1.425 . S
C2653 C2650 1.409 . S
C2653 C2651 1.415 . S
C2654 H2644 0.930 . S
C2654 C2652 1.419 . S
C2654 C2655 1.362 . S
C2655 H2645 0.930 . S
C2655 C2648 1.409 . S
C2655 C2654 1.362 . S
H2656 C2662 0.930 . S
H2657 C2665 0.930 . S
H2658 C2666 0.930 . S
H2659 C2667 0.930 . S
H2660 C2670 0.930 . S
H2661 C2671 0.930 . S
C2662 H2656 0.930 . S
C2662 C2663 1.355 . S
C2662 C2664 1.415 . S
C2663 C2662 1.355 . S
C2663 C2665 1.419 . S
C2664 C2662 1.415 . S
C2664 C2669 1.425 . S
C2664 C2671 1.409 . S
C2665 H2657 0.930 . S
C2665 C2663 1.419 . S
C2665 C2666 1.362 . S
C2666 H2658 0.930 . S
C2666 C2665 1.362 . S
C2666 C2669 1.409 . S
C2667 H2659 0.930 . S
C2667 C2668 1.355 . S
C2667 C2669 1.415 . S
C2668 C2667 1.355 . S
C2668 C2670 1.419 . S
C2669 C2664 1.425 . S
C2669 C2666 1.409 . S
C2669 C2667 1.415 . S
C2670 H2660 0.930 . S
C2670 C2668 1.419 . S
C2670 C2671 1.362 . S
C2671 H2661 0.930 . S
C2671 C2664 1.409 . S
C2671 C2670 1.362 . S
H2672 C2678 0.930 . S
H2673 C2681 0.930 . S
H2674 C2682 0.930 . S
H2675 C2683 0.930 . S
H2676 C2686 0.930 . S
H2677 C2687 0.930 . S
C2678 H2672 0.930 . S
C2678 C2679 1.355 . S
C2678 C2680 1.415 . S
C2679 C2678 1.355 . S
C2679 C2681 1.419 . S
C2680 C2678 1.415 . S
C2680 C2685 1.425 . S
C2680 C2687 1.409 . S
C2681 H2673 0.930 . S
C2681 C2679 1.419 . S
C2681 C2682 1.362 . S
C2682 H2674 0.930 . S
C2682 C2681 1.362 . S
C2682 C2685 1.409 . S
C2683 H2675 0.930 . S
C2683 C2684 1.355 . S
C2683 C2685 1.415 . S
C2684 C2683 1.355 . S
C2684 C2686 1.419 . S
C2685 C2680 1.425 . S
C2685 C2682 1.409 . S
C2685 C2683 1.415 . S
C2686 H2676 0.930 . S
C2686 C2684 1.419 . S
C2686 C2687 1.362 . S
C2687 H2677 0.930 . S
C2687 C2680 1.409 . S
C2687 C2686 1.362 . S
H2688 C2694 0.930 . S
H2689 C2697 0.930 . S
H2690 C2698 0.930 . S
H2691 C2699 0.930 . S
H2692 C2702 0.930 . S
H2693 C2703 0.930 . S
C2694 H2688 0.930 . S
C2694 C2695 1.355 . S
C2694 C2696 1.415 . S
C2695 C2694 1.355 . S
C2695 C2697 1.419 . S
C2696 C2694 1.415 . S
C2696 C2701 1.425 . S
C2696 C2703 1.409 . S
C2697 H2689 0.930 . S
C2697 C2695 1.419 . S
C2697 C2698 1.362 . S
C2698 H2690 0.930 . S
C2698 C2697 1.362 . S
C2698 C2701 1.409 . S
C2699 H2691 0.930 . S
C2699 C2700 1.355 . S
C2699 C2701 1.415 . S
C2700 C2699 1.355 . S
C2700 C2702 1.419 . S
C2701 C2696 1.425 . S
C2701 C2698 1.409 . S
C2701 C2699 1.415 . S
C2702 H2692 0.930 . S
C2702 C2700 1.419 . S
C2702 C2703 1.362 . S
C2703 H2693 0.930 . S
C2703 C2696 1.409 . S
C2703 C2702 1.362 . S
H2704 C2710 0.930 . S
H2705 C2713 0.930 . S
H2706 C2714 0.930 . S
H2707 C2715 0.930 . S
H2708 C2718 0.930 . S
H2709 C2719 0.930 . S
C2710 H2704 0.930 . S
C2710 C2711 1.355 . S
C2710 C2712 1.415 . S
C2711 C2710 1.355 . S
C2711 C2713 1.419 . S
C2712 C2710 1.415 . S
C2712 C2717 1.425 . S
C2712 C2719 1.409 . S
C2713 H2705 0.930 . S
C2713 C2711 1.419 . S
C2713 C2714 1.362 . S
C2714 H2706 0.930 . S
C2714 C2713 1.362 . S
C2714 C2717 1.409 . S
C2715 H2707 0.930 . S
C2715 C2716 1.355 . S
C2715 C2717 1.415 . S
C2716 C2715 1.355 . S
C2716 C2718 1.419 . S
C2717 C2712 1.425 . S
C2717 C2714 1.409 . S
C2717 C2715 1.415 . S
C2718 H2708 0.930 . S
C2718 C2716 1.419 . S
C2718 C2719 1.362 . S
C2719 H2709 0.930 . S
C2719 C2712 1.409 . S
C2719 C2718 1.362 . S
H2720 C2726 0.930 . S
H2721 C2729 0.930 . S
H2722 C2730 0.930 . S
H2723 C2731 0.930 . S
H2724 C2734 0.930 . S
H2725 C2735 0.930 . S
C2726 H2720 0.930 . S
C2726 C2727 1.355 . S
C2726 C2728 1.415 . S
C2727 C2726 1.355 . S
C2727 C2729 1.419 . S
C2728 C2726 1.415 . S
C2728 C2733 1.425 . S
C2728 C2735 1.409 . S
C2729 H2721 0.930 . S
C2729 C2727 1.419 . S
C2729 C2730 1.362 . S
C2730 H2722 0.930 . S
C2730 C2729 1.362 . S
C2730 C2733 1.409 . S
C2731 H2723 0.930 . S
C2731 C2732 1.355 . S
C2731 C2733 1.415 . S
C2732 C2731 1.355 . S
C2732 C2734 1.419 . S
C2733 C2728 1.425 . S
C2733 C2730 1.409 . S
C2733 C2731 1.415 . S
C2734 H2724 0.930 . S
C2734 C2732 1.419 . S
C2734 C2735 1.362 . S
C2735 H2725 0.930 . S
C2735 C2728 1.409 . S
C2735 C2734 1.362 . S
H2736 C2742 0.930 . S
H2737 C2745 0.930 . S
H2738 C2746 0.930 . S
H2739 C2747 0.930 . S
H2740 C2750 0.930 . S
H2741 C2751 0.930 . S
C2742 H2736 0.930 . S
C2742 C2743 1.355 . S
C2742 C2744 1.415 . S
C2743 C2742 1.355 . S
C2743 C2745 1.419 . S
C2744 C2742 1.415 . S
C2744 C2749 1.425 . S
C2744 C2751 1.409 . S
C2745 H2737 0.930 . S
C2745 C2743 1.419 . S
C2745 C2746 1.362 . S
C2746 H2738 0.930 . S
C2746 C2745 1.362 . S
C2746 C2749 1.409 . S
C2747 H2739 0.930 . S
C2747 C2748 1.355 . S
C2747 C2749 1.415 . S
C2748 C2747 1.355 . S
C2748 C2750 1.419 . S
C2749 C2744 1.425 . S
C2749 C2746 1.409 . S
C2749 C2747 1.415 . S
C2750 H2740 0.930 . S
C2750 C2748 1.419 . S
C2750 C2751 1.362 . S
C2751 H2741 0.930 . S
C2751 C2744 1.409 . S
C2751 C2750 1.362 . S
H2752 C2758 0.930 . S
H2753 C2761 0.930 . S
H2754 C2762 0.930 . S
H2755 C2763 0.930 . S
H2756 C2766 0.930 . S
H2757 C2767 0.930 . S
C2758 H2752 0.930 . S
C2758 C2759 1.355 . S
C2758 C2760 1.415 . S
C2759 C2758 1.355 . S
C2759 C2761 1.419 . S
C2760 C2758 1.415 . S
C2760 C2765 1.425 . S
C2760 C2767 1.409 . S
C2761 H2753 0.930 . S
C2761 C2759 1.419 . S
C2761 C2762 1.362 . S
C2762 H2754 0.930 . S
C2762 C2761 1.362 . S
C2762 C2765 1.409 . S
C2763 H2755 0.930 . S
C2763 C2764 1.355 . S
C2763 C2765 1.415 . S
C2764 C2763 1.355 . S
C2764 C2766 1.419 . S
C2765 C2760 1.425 . S
C2765 C2762 1.409 . S
C2765 C2763 1.415 . S
C2766 H2756 0.930 . S
C2766 C2764 1.419 . S
C2766 C2767 1.362 . S
C2767 H2757 0.930 . S
C2767 C2760 1.409 . S
C2767 C2766 1.362 . S
H2768 C2774 0.930 . S
H2769 C2777 0.930 . S
H2770 C2778 0.930 . S
H2771 C2779 0.930 . S
H2772 C2782 0.930 . S
H2773 C2783 0.930 . S
C2774 H2768 0.930 . S
C2774 C2775 1.355 . S
C2774 C2776 1.415 . S
C2775 C2774 1.355 . S
C2775 C2777 1.419 . S
C2776 C2774 1.415 . S
C2776 C2781 1.425 . S
C2776 C2783 1.409 . S
C2777 H2769 0.930 . S
C2777 C2775 1.419 . S
C2777 C2778 1.362 . S
C2778 H2770 0.930 . S
C2778 C2777 1.362 . S
C2778 C2781 1.409 . S
C2779 H2771 0.930 . S
C2779 C2780 1.355 . S
C2779 C2781 1.415 . S
C2780 C2779 1.355 . S
C2780 C2782 1.419 . S
C2781 C2776 1.425 . S
C2781 C2778 1.409 . S
C2781 C2779 1.415 . S
C2782 H2772 0.930 . S
C2782 C2780 1.419 . S
C2782 C2783 1.362 . S
C2783 H2773 0.930 . S
C2783 C2776 1.409 . S
C2783 C2782 1.362 . S
H2784 C2790 0.930 . S
H2785 C2793 0.930 . S
H2786 C2794 0.930 . S
H2787 C2795 0.930 . S
H2788 C2798 0.930 . S
H2789 C2799 0.930 . S
C2790 H2784 0.930 . S
C2790 C2791 1.355 . S
C2790 C2792 1.415 . S
C2791 C2790 1.355 . S
C2791 C2793 1.419 . S
C2792 C2790 1.415 . S
C2792 C2797 1.425 . S
C2792 C2799 1.409 . S
C2793 H2785 0.930 . S
C2793 C2791 1.419 . S
C2793 C2794 1.362 . S
C2794 H2786 0.930 . S
C2794 C2793 1.362 . S
C2794 C2797 1.409 . S
C2795 H2787 0.930 . S
C2795 C2796 1.355 . S
C2795 C2797 1.415 . S
C2796 C2795 1.355 . S
C2796 C2798 1.419 . S
C2797 C2792 1.425 . S
C2797 C2794 1.409 . S
C2797 C2795 1.415 . S
C2798 H2788 0.930 . S
C2798 C2796 1.419 . S
C2798 C2799 1.362 . S
C2799 H2789 0.930 . S
C2799 C2792 1.409 . S
C2799 C2798 1.362 . S
H2800 C2806 0.930 . S
H2801 C2809 0.930 . S
H2802 C2810 0.930 . S
H2803 C2811 0.930 . S
H2804 C2814 0.930 . S
H2805 C2815 0.930 . S
C2806 H2800 0.930 . S
C2806 C2807 1.355 . S
C2806 C2808 1.415 . S
C2807 C2806 1.355 . S
C2807 C2809 1.419 . S
C2808 C2806 1.415 . S
C2808 C2813 1.425 . S
C2808 C2815 1.409 . S
C2809 H2801 0.930 . S
C2809 C2807 1.419 . S
C2809 C2810 1.362 . S
C2810 H2802 0.930 . S
C2810 C2809 1.362 . S
C2810 C2813 1.409 . S
C2811 H2803 0.930 . S
C2811 C2812 1.355 . S
C2811 C2813 1.415 . S
C2812 C2811 1.355 . S
C2812 C2814 1.419 . S
C2813 C2808 1.425 . S
C2813 C2810 1.409 . S
C2813 C2811 1.415 . S
C2814 H2804 0.930 . S
C2814 C2812 1.419 . S
C2814 C2815 1.362 . S
C2815 H2805 0.930 . S
C2815 C2808 1.409 . S
C2815 C2814 1.362 . S
C1287 C6 1.101 . S
C1292 C139 1.082 . S
C1303 C19 1.057 . S
C1308 C46 1.093 1_545 S
C1319 C86 1.093 . S
C1324 C59 1.046 . S
C1335 C99 1.002 . S
C1340 C126 1.097 1_565 S
C1351 C219 0.990 . S
C1356 C166 1.101 . S
C1367 C206 1.103 1_545 S
C1372 C259 1.000 . S
C1383 C299 1.107 . S
C1388 C246 1.095 . S
C1399 C179 1.088 . S
C1404 C286 1.100 1_565 S
C1415 C335 1.096 . S
C1420 C450 1.107 . S
C1431 C375 1.103 1_565 S
C1436 C330 1.010 . S
C1447 C415 1.096 . S
C1452 C370 1.107 . S
C1463 C455 1.097 1_545 S
C1468 C410 0.999 . S
C1479 C495 1.104 . S
C1484 C530 1.032 . S
C1495 C535 1.095 1_565 S
C1500 C570 1.022 . S
C1511 C610 1.104 . S
C1516 C575 1.097 . S
C1527 C490 1.052 . S
C1532 C615 1.103 1_545 S
C1543 C646 1.093 . S
C1548 C779 1.060 . S
C1559 C659 1.032 . S
C1564 C686 1.094 . S
C1575 C699 1.103 . S
C1580 C726 1.098 . S
C1591 C766 1.092 . S
C1596 C739 1.075 . S
C1607 C806 1.103 . S
C1612 C859 1.006 . S
C1623 C899 1.102 . S
C1628 C846 1.098 . S
C1639 C886 1.103 . S
C1644 C939 1.048 . S
C1655 C819 1.102 . S
C1660 C926 1.098 . S
C1671 C1090 1.088 . S
C1676 C975 1.093 . S
C1687 C970 1.093 . S
C1692 C1015 1.100 . S
C1703 C1055 1.097 . S
C1708 C1010 1.106 . S
C1719 C1050 1.022 . S
C1724 C1095 1.095 . S
C1735 C1170 0.991 . S
C1740 C1135 1.101 . S
C1751 C1210 1.099 . S
C1756 C1175 1.093 . S
C1767 C1250 1.087 . S
C1772 C1215 1.100 . S
C1783 C1255 1.093 . S
C1788 C1130 1.060 . S
C1799 C1086 1.641 . S
C1804 C9 1.584 . S
C1815 C49 1.508 . S
C1820 C326 1.605 1_455 S
C1831 C89 1.564 . S
C1836 C1006 1.639 . S
C1847 C129 1.578 . S
C1852 C406 1.618 . S
C1863 C169 1.574 . S
C1868 C1166 1.615 . S
C1879 C566 1.631 . S
C1884 C209 1.542 . S
C1895 C1246 1.596 . S
C1900 C249 1.527 . S
C1911 C289 1.516 . S
C1916 C486 1.615 1_455 S
C1927 C338 1.589 . S
C1932 C775 1.639 . S
C1943 C15 1.601 1_655 S
C1948 C378 1.545 . S
C1959 C695 1.604 . S
C1964 C418 1.553 . S
C1975 C95 1.628 . S
C1980 C458 1.589 . S
C1991 C855 1.596 . S
C1996 C498 1.518 . S
C2007 C255 1.613 . S
C2012 C538 1.572 . S
C2023 C578 1.585 . S
C2028 C935 1.641 . S
C2039 C618 1.530 . S
C2044 C175 1.597 1_655 S
C2055 C649 1.515 . S
C2060 C446 1.615 . S
C2071 C689 1.591 . S
C2076 C966 1.637 . S
C2087 C729 1.532 . S
C2092 C366 1.597 . S
C2103 C769 1.518 . S
C2108 C1046 1.596 1_655 S
C2119 C809 1.572 . S
C2124 C526 1.613 . S
C2135 C849 1.518 . S
C2140 C1206 1.596 1_655 S
C2151 C606 1.617 . S
C2156 C889 1.577 . S
C2167 C929 1.514 . S
C2172 C1126 1.614 . S
C2183 C135 1.602 . S
C2188 C978 1.549 . S
C2199 C655 1.626 . S
C2204 C1018 1.587 . S
C2215 C55 1.639 . S
C2220 C1058 1.590 . S
C2231 C735 1.614 1_455 S
C2236 C1098 1.573 . S
C2247 C215 1.611 . S
C2252 C1138 1.511 . S
C2263 C1178 1.530 . S
C2268 C895 1.625 1_455 S
C2279 C1218 1.572 . S
C2284 C295 1.613 . S
C2295 C815 1.606 . S
C2300 C1258 1.557 . S
C2311 C18 1.065 . S
C2316 C178 1.014 . S
C2327 C58 1.012 . S
C2332 C218 1.065 . S
C2343 C98 1.014 . S
C2348 C258 0.961 . S
C2359 C298 1.063 1_554 S
C2364 C138 1.023 1_556 S
C2375 C489 0.964 . S
C2380 C329 1.003 . S
C2391 C529 1.010 . S
C2396 C369 0.962 . S
C2407 C409 1.051 . S
C2412 C569 1.044 . S
C2423 C449 0.970 . S
C2428 C609 1.011 . S
C2439 C658 1.007 . S
C2444 C818 1.066 . S
C2455 C858 0.971 . S
C2460 C698 0.992 . S
C2471 C898 0.999 . S
C2476 C738 1.065 . S
C2487 C938 1.039 . S
C2492 C778 1.055 . S
C2503 C1129 0.963 . S
C2508 C969 1.040 . S
C2519 C1009 1.053 1_554 S
C2524 C1169 1.042 1_556 S
C2535 C1209 1.016 . S
C2540 C1049 1.065 . S
C2551 C1089 1.056 . S
C2556 C1249 1.037 . S
C2567 C290 2.667 . S
C2572 C10 2.667 . S
C2583 C50 2.660 . S
C2588 C170 2.654 . S
C2599 C90 2.664 . S
C2604 C210 2.656 . S
C2615 C250 2.657 . S
C2620 C130 2.664 . S
C2631 C339 2.655 . S
C2636 C619 2.660 . S
C2647 C499 2.666 . S
C2652 C379 2.668 . S
C2663 C539 2.668 . S
C2668 C419 2.665 . S
C2679 C459 2.655 . S
C2684 C579 2.661 . S
C2695 C650 2.655 . S
C2700 C930 2.655 . S
C2711 C810 2.655 . S
C2716 C690 2.655 . S
C2727 C850 2.668 . S
C2732 C730 2.666 . S
C2743 C890 2.657 . S
C2748 C770 2.654 . S
C2759 C979 2.663 . S
C2764 C1259 2.656 . S
C2775 C1139 2.658 . S
C2780 C1019 2.665 . S
C2791 C1059 2.656 . S
C2796 C1179 2.663 . S
C2807 C1219 2.658 . S
C2812 C1099 2.665 . S
