# Generated by pormake.
# Topology ukc, (4)-cn, num edge types: 1
# Building blocks:
#     Node 0, Type 0, BuildingBlock: CEKHIL_clean_sbu_0, # of connection points: 4
#     Node 1, Type 0, BuildingBlock: CEKHIL_clean_sbu_0, # of connection points: 4
#     Node 2, Type 0, BuildingBlock: CEKHIL_clean_sbu_0, # of connection points: 4
#     Node 3, Type 0, BuildingBlock: CEKHIL_clean_sbu_0, # of connection points: 4
#     Node 4, Type 0, BuildingBlock: CEKHIL_clean_sbu_0, # of connection points: 4
#     Node 5, Type 0, BuildingBlock: CEKHIL_clean_sbu_0, # of connection points: 4
#     Node 6, Type 0, BuildingBlock: CEKHIL_clean_sbu_0, # of connection points: 4
#     Node 7, Type 0, BuildingBlock: CEKHIL_clean_sbu_0, # of connection points: 4
#     Node 8, Type 0, BuildingBlock: CEKHIL_clean_sbu_0, # of connection points: 4
#     Node 9, Type 0, BuildingBlock: CEKHIL_clean_sbu_0, # of connection points: 4
#     Node 10, Type 0, BuildingBlock: CEKHIL_clean_sbu_0, # of connection points: 4
#     Node 11, Type 0, BuildingBlock: CEKHIL_clean_sbu_0, # of connection points: 4
#     Node 12, Type 0, BuildingBlock: CEKHIL_clean_sbu_0, # of connection points: 4
#     Node 13, Type 0, BuildingBlock: CEKHIL_clean_sbu_0, # of connection points: 4
#     Node 14, Type 0, BuildingBlock: CEKHIL_clean_sbu_0, # of connection points: 4
#     Node 15, Type 0, BuildingBlock: CEKHIL_clean_sbu_0, # of connection points: 4
#     Node 16, Type 0, BuildingBlock: CEKHIL_clean_sbu_0, # of connection points: 4
#     Node 17, Type 0, BuildingBlock: CEKHIL_clean_sbu_0, # of connection points: 4
#     Node 18, Type 0, BuildingBlock: CEKHIL_clean_sbu_0, # of connection points: 4
#     Node 19, Type 0, BuildingBlock: CEKHIL_clean_sbu_0, # of connection points: 4
#     Node 20, Type 0, BuildingBlock: CEKHIL_clean_sbu_0, # of connection points: 4
#     Node 21, Type 0, BuildingBlock: CEKHIL_clean_sbu_0, # of connection points: 4
#     Node 22, Type 0, BuildingBlock: CEKHIL_clean_sbu_0, # of connection points: 4
#     Node 23, Type 0, BuildingBlock: CEKHIL_clean_sbu_0, # of connection points: 4
#     Node 24, Type 0, BuildingBlock: CEKHIL_clean_sbu_0, # of connection points: 4
#     Node 25, Type 0, BuildingBlock: CEKHIL_clean_sbu_0, # of connection points: 4
#     Node 26, Type 0, BuildingBlock: CEKHIL_clean_sbu_0, # of connection points: 4
#     Node 27, Type 0, BuildingBlock: CEKHIL_clean_sbu_0, # of connection points: 4
#     Node 28, Type 0, BuildingBlock: CEKHIL_clean_sbu_0, # of connection points: 4
#     Node 29, Type 0, BuildingBlock: CEKHIL_clean_sbu_0, # of connection points: 4
#     Node 30, Type 0, BuildingBlock: CEKHIL_clean_sbu_0, # of connection points: 4
#     Node 31, Type 0, BuildingBlock: CEKHIL_clean_sbu_0, # of connection points: 4
#     Edge 32, Type (0, 0), BuildingBlock: XIVTED_clean_linker_0, # of connection points: 2
#     Edge 33, Type (0, 0), BuildingBlock: XIVTED_clean_linker_0, # of connection points: 2
#     Edge 34, Type (0, 0), BuildingBlock: XIVTED_clean_linker_0, # of connection points: 2
#     Edge 35, Type (0, 0), BuildingBlock: XIVTED_clean_linker_0, # of connection points: 2
#     Edge 36, Type (0, 0), BuildingBlock: XIVTED_clean_linker_0, # of connection points: 2
#     Edge 37, Type (0, 0), BuildingBlock: XIVTED_clean_linker_0, # of connection points: 2
#     Edge 38, Type (0, 0), BuildingBlock: XIVTED_clean_linker_0, # of connection points: 2
#     Edge 39, Type (0, 0), BuildingBlock: XIVTED_clean_linker_0, # of connection points: 2
#     Edge 40, Type (0, 0), BuildingBlock: XIVTED_clean_linker_0, # of connection points: 2
#     Edge 41, Type (0, 0), BuildingBlock: XIVTED_clean_linker_0, # of connection points: 2
#     Edge 42, Type (0, 0), BuildingBlock: XIVTED_clean_linker_0, # of connection points: 2
#     Edge 43, Type (0, 0), BuildingBlock: XIVTED_clean_linker_0, # of connection points: 2
#     Edge 44, Type (0, 0), BuildingBlock: XIVTED_clean_linker_0, # of connection points: 2
#     Edge 45, Type (0, 0), BuildingBlock: XIVTED_clean_linker_0, # of connection points: 2
#     Edge 46, Type (0, 0), BuildingBlock: XIVTED_clean_linker_0, # of connection points: 2
#     Edge 47, Type (0, 0), BuildingBlock: XIVTED_clean_linker_0, # of connection points: 2
#     Edge 48, Type (0, 0), BuildingBlock: XIVTED_clean_linker_0, # of connection points: 2
#     Edge 49, Type (0, 0), BuildingBlock: XIVTED_clean_linker_0, # of connection points: 2
#     Edge 50, Type (0, 0), BuildingBlock: XIVTED_clean_linker_0, # of connection points: 2
#     Edge 51, Type (0, 0), BuildingBlock: XIVTED_clean_linker_0, # of connection points: 2
#     Edge 52, Type (0, 0), BuildingBlock: XIVTED_clean_linker_0, # of connection points: 2
#     Edge 53, Type (0, 0), BuildingBlock: XIVTED_clean_linker_0, # of connection points: 2
#     Edge 54, Type (0, 0), BuildingBlock: XIVTED_clean_linker_0, # of connection points: 2
#     Edge 55, Type (0, 0), BuildingBlock: XIVTED_clean_linker_0, # of connection points: 2
#     Edge 56, Type (0, 0), BuildingBlock: XIVTED_clean_linker_0, # of connection points: 2
#     Edge 57, Type (0, 0), BuildingBlock: XIVTED_clean_linker_0, # of connection points: 2
#     Edge 58, Type (0, 0), BuildingBlock: XIVTED_clean_linker_0, # of connection points: 2
#     Edge 59, Type (0, 0), BuildingBlock: XIVTED_clean_linker_0, # of connection points: 2
#     Edge 60, Type (0, 0), BuildingBlock: XIVTED_clean_linker_0, # of connection points: 2
#     Edge 61, Type (0, 0), BuildingBlock: XIVTED_clean_linker_0, # of connection points: 2
#     Edge 62, Type (0, 0), BuildingBlock: XIVTED_clean_linker_0, # of connection points: 2
#     Edge 63, Type (0, 0), BuildingBlock: XIVTED_clean_linker_0, # of connection points: 2
#     Edge 64, Type (0, 0), BuildingBlock: XIVTED_clean_linker_0, # of connection points: 2
#     Edge 65, Type (0, 0), BuildingBlock: XIVTED_clean_linker_0, # of connection points: 2
#     Edge 66, Type (0, 0), BuildingBlock: XIVTED_clean_linker_0, # of connection points: 2
#     Edge 67, Type (0, 0), BuildingBlock: XIVTED_clean_linker_0, # of connection points: 2
#     Edge 68, Type (0, 0), BuildingBlock: XIVTED_clean_linker_0, # of connection points: 2
#     Edge 69, Type (0, 0), BuildingBlock: XIVTED_clean_linker_0, # of connection points: 2
#     Edge 70, Type (0, 0), BuildingBlock: XIVTED_clean_linker_0, # of connection points: 2
#     Edge 71, Type (0, 0), BuildingBlock: XIVTED_clean_linker_0, # of connection points: 2
#     Edge 72, Type (0, 0), BuildingBlock: XIVTED_clean_linker_0, # of connection points: 2
#     Edge 73, Type (0, 0), BuildingBlock: XIVTED_clean_linker_0, # of connection points: 2
#     Edge 74, Type (0, 0), BuildingBlock: XIVTED_clean_linker_0, # of connection points: 2
#     Edge 75, Type (0, 0), BuildingBlock: XIVTED_clean_linker_0, # of connection points: 2
#     Edge 76, Type (0, 0), BuildingBlock: XIVTED_clean_linker_0, # of connection points: 2
#     Edge 77, Type (0, 0), BuildingBlock: XIVTED_clean_linker_0, # of connection points: 2
#     Edge 78, Type (0, 0), BuildingBlock: XIVTED_clean_linker_0, # of connection points: 2
#     Edge 79, Type (0, 0), BuildingBlock: XIVTED_clean_linker_0, # of connection points: 2
#     Edge 80, Type (0, 0), BuildingBlock: XIVTED_clean_linker_0, # of connection points: 2
#     Edge 81, Type (0, 0), BuildingBlock: XIVTED_clean_linker_0, # of connection points: 2
#     Edge 82, Type (0, 0), BuildingBlock: XIVTED_clean_linker_0, # of connection points: 2
#     Edge 83, Type (0, 0), BuildingBlock: XIVTED_clean_linker_0, # of connection points: 2
#     Edge 84, Type (0, 0), BuildingBlock: XIVTED_clean_linker_0, # of connection points: 2
#     Edge 85, Type (0, 0), BuildingBlock: XIVTED_clean_linker_0, # of connection points: 2
#     Edge 86, Type (0, 0), BuildingBlock: XIVTED_clean_linker_0, # of connection points: 2
#     Edge 87, Type (0, 0), BuildingBlock: XIVTED_clean_linker_0, # of connection points: 2
#     Edge 88, Type (0, 0), BuildingBlock: XIVTED_clean_linker_0, # of connection points: 2
#     Edge 89, Type (0, 0), BuildingBlock: XIVTED_clean_linker_0, # of connection points: 2
#     Edge 90, Type (0, 0), BuildingBlock: XIVTED_clean_linker_0, # of connection points: 2
#     Edge 91, Type (0, 0), BuildingBlock: XIVTED_clean_linker_0, # of connection points: 2
#     Edge 92, Type (0, 0), BuildingBlock: XIVTED_clean_linker_0, # of connection points: 2
#     Edge 93, Type (0, 0), BuildingBlock: XIVTED_clean_linker_0, # of connection points: 2
#     Edge 94, Type (0, 0), BuildingBlock: XIVTED_clean_linker_0, # of connection points: 2
#     Edge 95, Type (0, 0), BuildingBlock: XIVTED_clean_linker_0, # of connection points: 2
# Relax obj value: 0.050
# Max RMSD: 0.066
# Mean RMSD: 0.066
data_MOF--net-ukc--node1-CEKHIL_clean_sbu_0--edge1-XIVTED_clean_linker_0
_symmetry_space_group_name_H-M    P1
_symmetry_Int_Tables_number       1
_symmetry_cell_setting            triclinic
loop_
_symmetry_equiv_pos_as_xyz
'x, y, z'
_cell_length_a     44.602509
_cell_length_b     44.582757
_cell_length_c     86.294044
_cell_angle_alpha  90.001042
_cell_angle_beta   89.998095
_cell_angle_gamma 90.015094
loop_
_atom_site_label
_atom_site_type_symbol
_atom_site_fract_x
_atom_site_fract_y
_atom_site_fract_z
_atom_type_partial_charge
Co0 Co 0.11432 0.39007 0.04122 0.0
O1 O 0.1486 0.41534 0.03674 0.0
O2 O 0.13548 0.3755 0.0231 0.0
C3 C 0.12326 0.38602 0.06683 0.0
O4 O 0.08198 0.35746 0.04246 0.0
Co5 Co 0.06351 0.40923 0.06416 0.0
O6 O 0.04749 0.36838 0.06067 0.0
C7 C 0.06894 0.43776 0.03342 0.0
C8 C 0.15456 0.39709 0.02542 0.0
C9 C 0.05832 0.35097 0.0504 0.0
O10 O 0.08718 0.41722 0.02861 0.0
O11 O 0.06045 0.44013 0.04753 0.0
O12 O 0.13757 0.36889 0.05713 0.0
O13 O 0.10607 0.4059 0.06073 0.0
Co14 Co 0.87018 0.86151 0.29127 0.0
O15 O 0.84449 0.89453 0.28527 0.0
O16 O 0.88563 0.88122 0.27283 0.0
C17 C 0.87179 0.87421 0.31656 0.0
O18 O 0.90344 0.83007 0.29429 0.0
Co19 Co 0.85122 0.81385 0.31607 0.0
O20 O 0.89461 0.80473 0.31638 0.0
C21 C 0.82675 0.81115 0.28401 0.0
C22 C 0.86358 0.90012 0.2743 0.0
C23 C 0.9116 0.81172 0.30508 0.0
O24 O 0.84469 0.83193 0.2791 0.0
O25 O 0.82485 0.80332 0.29825 0.0
O26 O 0.88955 0.88738 0.30675 0.0
O27 O 0.85296 0.85561 0.3107 0.0
Co28 Co 0.3978 0.61832 0.54083 0.0
O29 O 0.36356 0.59373 0.53542 0.0
O30 O 0.37818 0.63376 0.52237 0.0
C31 C 0.38653 0.62176 0.56624 0.0
O32 O 0.43067 0.65034 0.54319 0.0
Co33 Co 0.44574 0.59746 0.56504 0.0
O34 O 0.45778 0.6402 0.56457 0.0
C35 C 0.44409 0.57084 0.53359 0.0
C36 C 0.35856 0.61244 0.5242 0.0
C37 C 0.45047 0.65757 0.55346 0.0
O38 O 0.42565 0.59108 0.52863 0.0
O39 O 0.45185 0.56827 0.54781 0.0
O40 O 0.37349 0.63947 0.55635 0.0
O41 O 0.40382 0.60172 0.56037 0.0
Co42 Co 0.64042 0.14476 0.79107 0.0
O43 O 0.66481 0.1093 0.78808 0.0
O44 O 0.62773 0.12309 0.77266 0.0
C45 C 0.63299 0.13764 0.81666 0.0
O46 O 0.60869 0.17801 0.79087 0.0
Co47 Co 0.65893 0.19638 0.81368 0.0
O48 O 0.61847 0.21253 0.80926 0.0
C49 C 0.68981 0.18921 0.7837 0.0
C50 C 0.64811 0.10335 0.77615 0.0
C51 C 0.60183 0.20181 0.79861 0.0
O52 O 0.66972 0.1705 0.77885 0.0
O53 O 0.69108 0.19873 0.79767 0.0
O54 O 0.61665 0.12313 0.80667 0.0
O55 O 0.65412 0.15375 0.81091 0.0
Co56 Co 0.11472 0.61771 0.4579 0.0
O57 O 0.14927 0.59281 0.46237 0.0
O58 O 0.13591 0.63258 0.47598 0.0
C59 C 0.12361 0.62189 0.43227 0.0
O60 O 0.08205 0.64998 0.45657 0.0
Co61 Co 0.06418 0.59764 0.43499 0.0
O62 O 0.04777 0.63837 0.43835 0.0
C63 C 0.06963 0.56964 0.46584 0.0
C64 C 0.15523 0.61122 0.47361 0.0
C65 C 0.05837 0.65607 0.44857 0.0
O66 O 0.08776 0.59036 0.47057 0.0
O67 O 0.06125 0.56695 0.45173 0.0
O68 O 0.13776 0.63911 0.44198 0.0
O69 O 0.10668 0.60176 0.43837 0.0
Co70 Co 0.6425 0.86244 0.70702 0.0
O71 O 0.66702 0.89715 0.71146 0.0
O72 O 0.62832 0.88278 0.72561 0.0
C73 C 0.63799 0.87246 0.6815 0.0
O74 O 0.61054 0.82931 0.70548 0.0
Co75 Co 0.66278 0.8134 0.68322 0.0
O76 O 0.62 0.80169 0.68419 0.0
C77 C 0.69047 0.81656 0.71433 0.0
C78 C 0.64928 0.90249 0.72304 0.0
C79 C 0.60297 0.8093 0.69538 0.0
O80 O 0.67042 0.83527 0.71922 0.0
O81 O 0.69262 0.80811 0.7002 0.0
O82 O 0.62055 0.88592 0.69138 0.0
O83 O 0.6582 0.85547 0.68742 0.0
Co84 Co 0.39715 0.39114 0.95808 0.0
O85 O 0.36248 0.41584 0.96265 0.0
O86 O 0.37643 0.37621 0.97623 0.0
C87 C 0.38825 0.38671 0.93246 0.0
O88 O 0.42984 0.35901 0.95676 0.0
Co89 Co 0.44757 0.41105 0.93508 0.0
O90 O 0.46396 0.37027 0.93843 0.0
C91 C 0.44219 0.43931 0.96586 0.0
C92 C 0.35692 0.39742 0.97396 0.0
C93 C 0.45339 0.35272 0.94873 0.0
O94 O 0.42413 0.4186 0.97067 0.0
O95 O 0.45047 0.44194 0.95174 0.0
O96 O 0.37414 0.36954 0.94222 0.0
O97 O 0.40506 0.407 0.93851 0.0
Co98 Co 0.8648 0.14409 0.20824 0.0
O99 O 0.84055 0.10968 0.21368 0.0
O100 O 0.88082 0.1242 0.22653 0.0
C101 C 0.8679 0.1331 0.18278 0.0
O102 O 0.89639 0.17731 0.20567 0.0
Co103 Co 0.84234 0.19182 0.18423 0.0
O104 O 0.88485 0.2046 0.18453 0.0
C105 C 0.81753 0.19041 0.21605 0.0
C106 C 0.85954 0.10451 0.22473 0.0
C107 C 0.90279 0.19746 0.19543 0.0
O108 O 0.83786 0.17179 0.22073 0.0
O109 O 0.81415 0.19808 0.20187 0.0
O110 O 0.88583 0.12008 0.19255 0.0
O111 O 0.8477 0.15002 0.1888 0.0
Co112 Co 0.89829 0.61656 0.95786 0.0
O113 O 0.86365 0.59183 0.96195 0.0
O114 O 0.87738 0.6304 0.97636 0.0
C115 C 0.88889 0.62149 0.93233 0.0
O116 O 0.93136 0.64864 0.95657 0.0
Co117 Co 0.94781 0.59641 0.93427 0.0
O118 O 0.9587 0.63942 0.93514 0.0
C119 C 0.94397 0.5685 0.9653 0.0
C120 C 0.85785 0.6094 0.97353 0.0
C121 C 0.95105 0.65642 0.94634 0.0
O122 O 0.9252 0.58853 0.97013 0.0
O123 O 0.95275 0.56647 0.95122 0.0
O124 O 0.87513 0.63872 0.9422 0.0
O125 O 0.90571 0.60114 0.93826 0.0
Co126 Co 0.14149 0.14663 0.70912 0.0
O127 O 0.16586 0.11242 0.71478 0.0
O128 O 0.12544 0.12706 0.72747 0.0
C129 C 0.13883 0.13501 0.6837 0.0
O130 O 0.10961 0.17951 0.7064 0.0
Co131 Co 0.16321 0.19422 0.68489 0.0
O132 O 0.12054 0.20642 0.68506 0.0
C133 C 0.18844 0.1934 0.71667 0.0
C134 C 0.14675 0.10738 0.72581 0.0
C135 C 0.10281 0.19929 0.69605 0.0
O136 O 0.16829 0.17471 0.72149 0.0
O137 O 0.19149 0.20097 0.70245 0.0
O138 O 0.1208 0.12215 0.69349 0.0
O139 O 0.1587 0.15238 0.68967 0.0
Co140 Co 0.61233 0.38912 0.45806 0.0
O141 O 0.64723 0.4137 0.46236 0.0
O142 O 0.6334 0.37438 0.47619 0.0
C143 C 0.62079 0.38437 0.43241 0.0
O144 O 0.57926 0.35717 0.45697 0.0
Co145 Co 0.56174 0.4094 0.43525 0.0
O146 O 0.54504 0.36883 0.43874 0.0
C147 C 0.56814 0.43804 0.46589 0.0
C148 C 0.65291 0.39554 0.47375 0.0
C149 C 0.5555 0.35116 0.44901 0.0
O150 O 0.58591 0.41707 0.47067 0.0
O151 O 0.55956 0.44053 0.4518 0.0
O152 O 0.6349 0.36716 0.44215 0.0
O153 O 0.60424 0.40482 0.43849 0.0
Co154 Co 0.36541 0.86583 0.2083 0.0
O155 O 0.34044 0.90055 0.21246 0.0
O156 O 0.37987 0.88732 0.22635 0.0
C157 C 0.3703 0.87389 0.18262 0.0
O158 O 0.39777 0.83324 0.20741 0.0
Co159 Co 0.34618 0.81452 0.18567 0.0
O160 O 0.38699 0.7985 0.1893 0.0
C161 C 0.31737 0.82065 0.21628 0.0
C162 C 0.35858 0.90662 0.22381 0.0
C163 C 0.40432 0.80947 0.19958 0.0
O164 O 0.33782 0.83911 0.22099 0.0
O165 O 0.3151 0.8118 0.20223 0.0
O166 O 0.38719 0.88843 0.19234 0.0
O167 O 0.34998 0.85719 0.18871 0.0
Co168 Co 0.89538 0.39397 0.54147 0.0
O169 O 0.86077 0.41862 0.53669 0.0
O170 O 0.87458 0.37858 0.52341 0.0
C171 C 0.88635 0.39027 0.5671 0.0
O172 O 0.92805 0.36179 0.54311 0.0
Co173 Co 0.9457 0.41453 0.56439 0.0
O174 O 0.962 0.37362 0.56144 0.0
C175 C 0.94046 0.44195 0.53339 0.0
C176 C 0.85513 0.39992 0.52553 0.0
C177 C 0.95151 0.35575 0.55128 0.0
O178 O 0.92242 0.4211 0.52872 0.0
O179 O 0.94872 0.4449 0.54751 0.0
O180 O 0.87226 0.37285 0.55746 0.0
O181 O 0.90321 0.41036 0.56093 0.0
Co182 Co 0.36856 0.14907 0.29129 0.0
O183 O 0.34296 0.11513 0.28641 0.0
O184 O 0.38267 0.1287 0.27283 0.0
C185 C 0.37281 0.13854 0.31678 0.0
O186 O 0.40163 0.18099 0.29278 0.0
Co187 Co 0.35128 0.19873 0.31535 0.0
O188 O 0.39238 0.21391 0.312 0.0
C189 C 0.32332 0.19787 0.28416 0.0
C190 C 0.3611 0.10953 0.275 0.0
C191 C 0.409 0.20376 0.3012 0.0
O192 O 0.34144 0.17732 0.27919 0.0
O193 O 0.3223 0.20649 0.29829 0.0
O194 O 0.38972 0.12469 0.30681 0.0
O195 O 0.35317 0.1564 0.31102 0.0
Co196 Co 0.61503 0.61572 0.04104 0.0
O197 O 0.65077 0.59166 0.03837 0.0
O198 O 0.63714 0.6286 0.02281 0.0
C199 C 0.62131 0.6233 0.06665 0.0
O200 O 0.58148 0.64709 0.04059 0.0
Co201 Co 0.56303 0.59655 0.06329 0.0
O202 O 0.54661 0.63687 0.05874 0.0
C203 C 0.57188 0.5655 0.03352 0.0
C204 C 0.65696 0.60843 0.0265 0.0
C205 C 0.55743 0.65367 0.04818 0.0
O206 O 0.58997 0.58614 0.02868 0.0
O207 O 0.56229 0.56396 0.04746 0.0
O208 O 0.63593 0.63977 0.05676 0.0
O209 O 0.60562 0.60195 0.06081 0.0
Co210 Co 0.14042 0.86303 0.79169 0.0
O211 O 0.1651 0.89737 0.78664 0.0
O212 O 0.12471 0.88382 0.77361 0.0
C213 C 0.13762 0.87301 0.81727 0.0
O214 O 0.10832 0.83013 0.79381 0.0
Co215 Co 0.16187 0.81382 0.81512 0.0
O216 O 0.11912 0.80193 0.81473 0.0
C217 C 0.18759 0.81702 0.78351 0.0
C218 C 0.14625 0.90314 0.7756 0.0
C219 C 0.10142 0.8098 0.80387 0.0
O220 O 0.16724 0.8357 0.77893 0.0
O221 O 0.19055 0.80858 0.7976 0.0
O222 O 0.11976 0.88663 0.80768 0.0
O223 O 0.15744 0.85594 0.81105 0.0
Co224 Co 0.61332 0.89364 0.54073 0.0
O225 O 0.64745 0.91827 0.53518 0.0
O226 O 0.63328 0.87768 0.52248 0.0
C227 C 0.62429 0.89121 0.56621 0.0
O228 O 0.58061 0.8615 0.54333 0.0
Co229 Co 0.56502 0.91517 0.56463 0.0
O230 O 0.55338 0.8723 0.56459 0.0
C231 C 0.56714 0.9408 0.53299 0.0
C232 C 0.65272 0.89921 0.52415 0.0
C233 C 0.56085 0.85454 0.55367 0.0
O234 O 0.58539 0.92025 0.5282 0.0
O235 O 0.55944 0.94397 0.54719 0.0
O236 O 0.63758 0.87322 0.55655 0.0
O237 O 0.60697 0.91092 0.56008 0.0
Co238 Co 0.36714 0.36576 0.79151 0.0
O239 O 0.34303 0.40143 0.78853 0.0
O240 O 0.38002 0.38733 0.77312 0.0
C241 C 0.37453 0.3728 0.81711 0.0
O242 O 0.39862 0.33229 0.79128 0.0
Co243 Co 0.34835 0.31419 0.81407 0.0
O244 O 0.38868 0.29771 0.80961 0.0
C245 C 0.31731 0.32187 0.78418 0.0
C246 C 0.3598 0.40723 0.7766 0.0
C247 C 0.40536 0.30839 0.79897 0.0
O248 O 0.33764 0.34029 0.77929 0.0
O249 O 0.316 0.31237 0.79815 0.0
O250 O 0.39102 0.3872 0.80714 0.0
O251 O 0.35333 0.35681 0.81133 0.0
Co252 Co 0.89358 0.11619 0.04192 0.0
O253 O 0.85849 0.09147 0.0387 0.0
O254 O 0.87202 0.12898 0.02349 0.0
C255 C 0.8859 0.123 0.0675 0.0
O256 O 0.92669 0.14812 0.04205 0.0
Co257 Co 0.94481 0.09726 0.0647 0.0
O258 O 0.96107 0.13776 0.06044 0.0
C259 C 0.93792 0.06688 0.0346 0.0
C260 C 0.85249 0.10828 0.02683 0.0
C261 C 0.95047 0.15469 0.04988 0.0
O262 O 0.91967 0.08732 0.0297 0.0
O263 O 0.94696 0.06517 0.04864 0.0
O264 O 0.87148 0.13947 0.05753 0.0
O265 O 0.90228 0.10213 0.06171 0.0
Co266 Co 0.14376 0.64348 0.29143 0.0
O267 O 0.16795 0.60903 0.28598 0.0
O268 O 0.12786 0.62378 0.27305 0.0
C269 C 0.14046 0.63228 0.31686 0.0
O270 O 0.11226 0.6768 0.29396 0.0
Co271 Co 0.1661 0.691 0.31557 0.0
O272 O 0.12368 0.70404 0.31514 0.0
C273 C 0.19146 0.68955 0.28387 0.0
C274 C 0.14906 0.60402 0.27486 0.0
C275 C 0.10583 0.69698 0.30419 0.0
O276 O 0.17101 0.67116 0.27907 0.0
O277 O 0.19468 0.6971 0.29808 0.0
O278 O 0.12252 0.61942 0.30704 0.0
O279 O 0.1607 0.64923 0.31091 0.0
Co280 Co 0.61186 0.1147 0.95745 0.0
O281 O 0.64706 0.09012 0.96067 0.0
O282 O 0.63346 0.12768 0.97583 0.0
C283 C 0.61925 0.12158 0.93184 0.0
O284 O 0.5788 0.1466 0.95733 0.0
Co285 Co 0.5605 0.09566 0.93477 0.0
O286 O 0.54457 0.13635 0.93885 0.0
C287 C 0.56698 0.06583 0.96508 0.0
C288 C 0.65305 0.10706 0.9725 0.0
C289 C 0.55517 0.15328 0.94942 0.0
O290 O 0.58582 0.0859 0.9698 0.0
O291 O 0.55761 0.06415 0.9511 0.0
O292 O 0.63376 0.13802 0.94178 0.0
O293 O 0.60304 0.10059 0.93766 0.0
Co294 Co 0.1388 0.3615 0.20765 0.0
O295 O 0.16441 0.39467 0.21358 0.0
O296 O 0.1233 0.38129 0.22605 0.0
C297 C 0.1371 0.37387 0.18232 0.0
O298 O 0.1056 0.32995 0.20473 0.0
Co299 Co 0.15767 0.31356 0.18297 0.0
O300 O 0.11425 0.30465 0.18262 0.0
C301 C 0.18154 0.31058 0.21514 0.0
C302 C 0.14531 0.40025 0.22455 0.0
C303 C 0.09734 0.31162 0.19396 0.0
O304 O 0.16436 0.3321 0.2199 0.0
O305 O 0.18319 0.30222 0.20097 0.0
O306 O 0.11935 0.38713 0.1921 0.0
O307 O 0.156 0.3554 0.18823 0.0
Co308 Co 0.89596 0.89298 0.45749 0.0
O309 O 0.86222 0.91871 0.46241 0.0
O310 O 0.87522 0.87855 0.4758 0.0
C311 C 0.88552 0.8894 0.43198 0.0
O312 O 0.92766 0.85974 0.45581 0.0
Co313 Co 0.94581 0.91065 0.43362 0.0
O314 O 0.96071 0.86935 0.43671 0.0
C315 C 0.94457 0.9382 0.46489 0.0
C316 C 0.85623 0.90029 0.47365 0.0
C317 C 0.95041 0.85247 0.44737 0.0
O318 O 0.92434 0.91963 0.46979 0.0
O319 O 0.95298 0.93968 0.45074 0.0
O320 O 0.87154 0.87233 0.44183 0.0
O321 O 0.90348 0.90881 0.43788 0.0
Co322 Co 0.36607 0.64762 0.70699 0.0
O323 O 0.34188 0.61273 0.71145 0.0
O324 O 0.38019 0.62769 0.72572 0.0
C325 C 0.37125 0.6373 0.68155 0.0
O326 O 0.39765 0.68113 0.70538 0.0
Co327 Co 0.34515 0.69595 0.68297 0.0
O328 O 0.38789 0.70786 0.68381 0.0
C329 C 0.31755 0.69322 0.7141 0.0
C330 C 0.35948 0.60772 0.72312 0.0
C331 C 0.40503 0.70079 0.69506 0.0
O332 O 0.33767 0.6746 0.719 0.0
O333 O 0.31538 0.7016 0.69996 0.0
O334 O 0.38862 0.62419 0.69158 0.0
O335 O 0.35061 0.65402 0.68728 0.0
Co336 Co 0.39251 0.11558 0.45778 0.0
O337 O 0.35772 0.0909 0.46215 0.0
O338 O 0.37158 0.13022 0.47598 0.0
C339 C 0.3838 0.12046 0.43217 0.0
O340 O 0.42552 0.14757 0.45663 0.0
Co341 Co 0.44287 0.09538 0.43481 0.0
O342 O 0.45969 0.13591 0.43837 0.0
C343 C 0.43672 0.06661 0.46539 0.0
C344 C 0.3521 0.10902 0.47356 0.0
C345 C 0.44927 0.15357 0.44866 0.0
O346 O 0.41917 0.08768 0.47027 0.0
O347 O 0.44495 0.06401 0.45125 0.0
O348 O 0.36974 0.13758 0.44197 0.0
O349 O 0.40042 0.09999 0.43817 0.0
Co350 Co 0.64184 0.64862 0.20721 0.0
O351 O 0.6667 0.61353 0.21039 0.0
O352 O 0.62978 0.62743 0.22588 0.0
C353 C 0.63416 0.64051 0.18173 0.0
O354 O 0.60963 0.68149 0.20732 0.0
Co355 Co 0.65872 0.69974 0.18393 0.0
O356 O 0.61801 0.71511 0.18831 0.0
C357 C 0.69047 0.6944 0.21386 0.0
C358 C 0.65033 0.60782 0.22248 0.0
C359 C 0.60199 0.70468 0.19928 0.0
O360 O 0.67126 0.67502 0.21898 0.0
O361 O 0.69072 0.70388 0.19987 0.0
O362 O 0.61807 0.62617 0.1919 0.0
O363 O 0.65507 0.65716 0.18727 0.0
Co364 Co 0.11214 0.89371 0.95813 0.0
O365 O 0.14709 0.91788 0.96248 0.0
O366 O 0.13248 0.87931 0.97666 0.0
C367 C 0.12182 0.88899 0.93259 0.0
O368 O 0.07868 0.86212 0.95666 0.0
Co369 Co 0.06318 0.91478 0.93447 0.0
O370 O 0.05071 0.8722 0.93556 0.0
C371 C 0.06681 0.94212 0.96563 0.0
C372 C 0.15236 0.90007 0.97404 0.0
C373 C 0.05832 0.85495 0.94668 0.0
O374 O 0.08533 0.92183 0.97043 0.0
O375 O 0.05837 0.94458 0.95151 0.0
O376 O 0.13522 0.87146 0.94244 0.0
O377 O 0.10519 0.90947 0.93853 0.0
Co378 Co 0.86635 0.36263 0.70789 0.0
O379 O 0.84181 0.39743 0.71201 0.0
O380 O 0.88042 0.38358 0.72634 0.0
C381 C 0.87118 0.37214 0.68233 0.0
O382 O 0.89832 0.32948 0.70657 0.0
Co383 Co 0.84614 0.31317 0.6843 0.0
O384 O 0.88907 0.30203 0.68518 0.0
C385 C 0.81871 0.31638 0.7155 0.0
C386 C 0.85957 0.40326 0.72352 0.0
C387 C 0.90603 0.30964 0.6964 0.0
O388 O 0.83839 0.33564 0.72024 0.0
O389 O 0.8167 0.30752 0.70143 0.0
O390 O 0.88848 0.38579 0.69219 0.0
O391 O 0.85084 0.35531 0.68826 0.0
Co392 Co 0.39484 0.88961 0.04159 0.0
O393 O 0.35973 0.91442 0.0385 0.0
O394 O 0.37296 0.87681 0.02328 0.0
C395 C 0.38761 0.88292 0.06723 0.0
O396 O 0.42767 0.85747 0.0415 0.0
Co397 Co 0.44675 0.90781 0.06407 0.0
O398 O 0.46255 0.86718 0.0597 0.0
C399 C 0.43999 0.93814 0.0339 0.0
C400 C 0.35352 0.89754 0.02667 0.0
C401 C 0.45154 0.85051 0.04914 0.0
O402 O 0.42092 0.91827 0.02918 0.0
O403 O 0.44958 0.93953 0.04785 0.0
O404 O 0.37293 0.8665 0.05735 0.0
O405 O 0.40406 0.90364 0.06134 0.0
Co406 Co 0.86571 0.64565 0.79169 0.0
O407 O 0.84171 0.61036 0.78783 0.0
O408 O 0.87989 0.62462 0.77329 0.0
C409 C 0.87101 0.63683 0.81726 0.0
O410 O 0.89712 0.67941 0.79278 0.0
Co411 Co 0.84468 0.69519 0.81507 0.0
O412 O 0.8874 0.7071 0.81403 0.0
C413 C 0.81678 0.69037 0.78408 0.0
C414 C 0.85937 0.60466 0.77627 0.0
C415 C 0.90451 0.69955 0.80286 0.0
O416 O 0.83711 0.67183 0.77933 0.0
O417 O 0.8146 0.69932 0.79813 0.0
O418 O 0.88843 0.62324 0.80742 0.0
O419 O 0.85027 0.6531 0.8113 0.0
Co420 Co 0.11164 0.1176 0.54282 0.0
O421 O 0.14525 0.09192 0.53749 0.0
O422 O 0.13161 0.13217 0.52435 0.0
C423 C 0.12279 0.12104 0.56827 0.0
O424 O 0.08013 0.15088 0.54481 0.0
Co425 Co 0.06237 0.09999 0.56697 0.0
O426 O 0.04748 0.14138 0.56409 0.0
C427 C 0.06261 0.07265 0.53566 0.0
C428 C 0.15068 0.11043 0.52621 0.0
C429 C 0.05764 0.15825 0.5534 0.0
O430 O 0.08286 0.09112 0.53069 0.0
O431 O 0.05445 0.07114 0.54985 0.0
O432 O 0.13656 0.1381 0.55833 0.0
O433 O 0.10465 0.10167 0.56248 0.0
Co434 Co 0.64402 0.36648 0.29146 0.0
O435 O 0.66804 0.40207 0.28813 0.0
O436 O 0.63075 0.3877 0.273 0.0
C437 C 0.63707 0.37394 0.31706 0.0
O438 O 0.6127 0.33279 0.29166 0.0
Co439 Co 0.66405 0.31562 0.31422 0.0
O440 O 0.62382 0.29863 0.31005 0.0
C441 C 0.69383 0.32264 0.28398 0.0
C442 C 0.65112 0.40762 0.27624 0.0
C443 C 0.60661 0.3089 0.29951 0.0
O444 O 0.67323 0.34081 0.27918 0.0
O445 O 0.69584 0.31361 0.29801 0.0
O446 O 0.62037 0.38813 0.30711 0.0
O447 O 0.65829 0.35806 0.31124 0.0
H448 H 0.95376 0.57594 0.99657 0.0
H449 H 0.05892 0.4301 0.00218 0.0
H450 H 0.96834 0.51414 0.9588 0.0
H451 H 0.04505 0.49239 0.03981 0.0
H452 H 0.02668 0.46136 0.98577 0.0
H453 H 0.98606 0.5447 0.01297 0.0
C454 C 0.9633 0.55557 0.99183 0.0
C455 C 0.95858 0.54777 0.9763 0.0
C456 C 0.03089 0.46825 0.99761 0.0
C457 C 0.99591 0.51234 0.99477 0.0
C458 C 0.04956 0.45058 0.00689 0.0
C459 C 0.05446 0.45851 0.02239 0.0
C460 C 0.01717 0.49396 0.00391 0.0
C461 C 0.04157 0.48521 0.02796 0.0
C462 C 0.982 0.53792 0.0011 0.0
C463 C 0.97168 0.52122 0.97068 0.0
N464 N 0.02338 0.50182 0.01877 0.0
N465 N 0.98988 0.5046 0.97986 0.0
H466 H 0.69569 0.68868 0.24564 0.0
H467 H 0.82215 0.81645 0.25209 0.0
H468 H 0.73567 0.73285 0.20613 0.0
H469 H 0.78716 0.76663 0.2911 0.0
H470 H 0.79028 0.7863 0.23489 0.0
H471 H 0.72976 0.71675 0.26257 0.0
C472 C 0.71171 0.70401 0.24051 0.0
C473 C 0.71254 0.70849 0.22444 0.0
C474 C 0.78972 0.78204 0.24724 0.0
C475 C 0.75132 0.74094 0.24369 0.0
C476 C 0.80785 0.79932 0.25705 0.0
C477 C 0.80746 0.79421 0.27308 0.0
C478 C 0.77113 0.75958 0.25355 0.0
C479 C 0.7884 0.77157 0.27884 0.0
C480 C 0.73108 0.72014 0.25017 0.0
C481 C 0.73387 0.72874 0.21845 0.0
N482 N 0.77109 0.7552 0.26911 0.0
N483 N 0.7522 0.74429 0.22806 0.0
H484 H 0.55766 0.43061 0.49711 0.0
H485 H 0.45545 0.57868 0.50245 0.0
H486 H 0.54599 0.49343 0.45952 0.0
H487 H 0.46807 0.51633 0.54017 0.0
H488 H 0.48788 0.54716 0.48623 0.0
H489 H 0.52611 0.46271 0.51346 0.0
C490 C 0.54895 0.45138 0.4924 0.0
C491 C 0.55424 0.45922 0.47692 0.0
C492 C 0.48338 0.54035 0.49805 0.0
C493 C 0.51772 0.49565 0.49534 0.0
C494 C 0.46462 0.55818 0.50722 0.0
C495 C 0.45924 0.55026 0.52269 0.0
C496 C 0.49669 0.51447 0.50442 0.0
C497 C 0.4719 0.52352 0.52835 0.0
C498 C 0.53067 0.46954 0.50165 0.0
C499 C 0.54218 0.48631 0.47136 0.0
N500 N 0.49012 0.50672 0.51926 0.0
N501 N 0.52434 0.50339 0.48051 0.0
H502 H 0.8267 0.30651 0.74679 0.0
H503 H 0.6837 0.19729 0.75224 0.0
H504 H 0.76488 0.29071 0.70917 0.0
H505 H 0.7437 0.21463 0.79045 0.0
H506 H 0.71474 0.22974 0.73585 0.0
H507 H 0.7964 0.27326 0.76321 0.0
C508 C 0.80652 0.29651 0.74208 0.0
C509 C 0.79843 0.30122 0.72658 0.0
C510 C 0.72122 0.22623 0.7478 0.0
C511 C 0.76413 0.26275 0.74508 0.0
C512 C 0.70368 0.20741 0.75709 0.0
C513 C 0.71097 0.20343 0.77274 0.0
C514 C 0.74618 0.24106 0.75424 0.0
C515 C 0.73703 0.21735 0.77847 0.0
C516 C 0.78942 0.27726 0.75138 0.0
C517 C 0.77217 0.28745 0.72102 0.0
N518 N 0.75353 0.23568 0.76927 0.0
N519 N 0.75612 0.26875 0.73021 0.0
H520 H 0.95328 0.43216 0.50259 0.0
H521 H 0.05715 0.57902 0.49671 0.0
H522 H 0.96241 0.49763 0.53913 0.0
H523 H 0.04735 0.51412 0.45994 0.0
H524 H 0.02369 0.54852 0.51287 0.0
H525 H 0.98678 0.46258 0.4864 0.0
C526 C 0.96181 0.45318 0.50707 0.0
C527 C 0.95524 0.46227 0.52223 0.0
C528 C 0.02907 0.54088 0.50129 0.0
C529 C 0.99402 0.49674 0.50404 0.0
C530 C 0.04848 0.5581 0.49217 0.0
C531 C 0.05486 0.54921 0.47695 0.0
C532 C 0.01611 0.51464 0.49512 0.0
C533 C 0.04275 0.522 0.47157 0.0
C534 C 0.98123 0.47037 0.49793 0.0
C535 C 0.96717 0.4896 0.52754 0.0
N536 N 0.02382 0.50583 0.48058 0.0
N537 N 0.98612 0.50572 0.51852 0.0
H538 H 0.74507 0.79266 0.70792 0.0
H539 H 0.76166 0.71322 0.7903 0.0
H540 H 0.68232 0.80526 0.74544 0.0
H541 H 0.82493 0.70137 0.75296 0.0
H542 H 0.7316 0.74558 0.77377 0.0
H543 H 0.77488 0.75991 0.72436 0.0
C544 C 0.73773 0.78881 0.71972 0.0
C545 C 0.71101 0.80157 0.7253 0.0
C546 C 0.75191 0.73578 0.76911 0.0
C547 C 0.74499 0.7636 0.74415 0.0
C548 C 0.76904 0.71713 0.77851 0.0
C549 C 0.796 0.70473 0.77302 0.0
C550 C 0.76175 0.74226 0.75407 0.0
C551 C 0.80427 0.71036 0.75763 0.0
C552 C 0.75473 0.76994 0.72907 0.0
C553 C 0.7028 0.79599 0.7407 0.0
N554 N 0.78732 0.72898 0.74872 0.0
N555 N 0.71962 0.77716 0.74956 0.0
H556 H 0.46178 0.49583 0.9602 0.0
H557 H 0.55229 0.50908 0.03969 0.0
H558 H 0.45786 0.42885 0.99623 0.0
H559 H 0.55839 0.57407 0.00278 0.0
H560 H 0.51889 0.47875 0.02375 0.0
H561 H 0.4959 0.52539 0.97604 0.0
C562 C 0.46776 0.48756 0.97159 0.0
C563 C 0.45708 0.45975 0.97689 0.0
C564 C 0.52773 0.49945 0.01904 0.0
C565 C 0.49675 0.49331 0.995 0.0
C566 C 0.54702 0.51669 0.02808 0.0
C567 C 0.55803 0.54422 0.02255 0.0
C568 C 0.51917 0.50987 0.00438 0.0
C569 C 0.55056 0.55292 0.00744 0.0
C570 C 0.48747 0.50437 0.98058 0.0
C571 C 0.46543 0.45024 0.99175 0.0
N572 N 0.53128 0.53594 0.99893 0.0
N573 N 0.48505 0.46689 0.00025 0.0
H574 H 0.82868 0.2036 0.24674 0.0
H575 H 0.68561 0.31241 0.25285 0.0
H576 H 0.76275 0.21466 0.21056 0.0
H577 H 0.74862 0.29863 0.29014 0.0
H578 H 0.71558 0.27885 0.23656 0.0
H579 H 0.79987 0.23843 0.26299 0.0
C580 C 0.80791 0.21288 0.24234 0.0
C581 C 0.79821 0.20638 0.22726 0.0
C582 C 0.72297 0.28339 0.24827 0.0
C583 C 0.76562 0.24665 0.24553 0.0
C584 C 0.70606 0.30287 0.25749 0.0
C585 C 0.71449 0.30813 0.27289 0.0
C586 C 0.74846 0.2692 0.25453 0.0
C587 C 0.7411 0.29492 0.27836 0.0
C588 C 0.79166 0.23303 0.25152 0.0
C589 C 0.77126 0.21929 0.22207 0.0
N590 N 0.75698 0.2759 0.26925 0.0
N591 N 0.75606 0.23891 0.23113 0.0
H592 H 0.32355 0.31294 0.7528 0.0
H593 H 0.1789 0.20586 0.74762 0.0
H594 H 0.26281 0.29782 0.79095 0.0
H595 H 0.24285 0.21798 0.71058 0.0
H596 H 0.20894 0.2398 0.76381 0.0
H597 H 0.29215 0.28055 0.73657 0.0
C598 C 0.30331 0.30334 0.75766 0.0
C599 C 0.29593 0.30789 0.77326 0.0
C600 C 0.21642 0.23485 0.75215 0.0
C601 C 0.2603 0.27032 0.75495 0.0
C602 C 0.19946 0.21522 0.743 0.0
C603 C 0.20825 0.20924 0.72771 0.0
C604 C 0.24227 0.24847 0.74594 0.0
C605 C 0.23499 0.22222 0.72225 0.0
C606 C 0.28557 0.28454 0.74847 0.0
C607 C 0.26954 0.29464 0.77901 0.0
N608 N 0.2509 0.2413 0.7313 0.0
N609 N 0.25284 0.2763 0.76991 0.0
H610 H 0.18123 0.70269 0.2531 0.0
H611 H 0.32612 0.80932 0.24731 0.0
H612 H 0.24636 0.71334 0.28969 0.0
H613 H 0.26227 0.79748 0.21023 0.0
H614 H 0.29576 0.77589 0.26355 0.0
H615 H 0.21087 0.737 0.23695 0.0
C616 C 0.20199 0.71177 0.25761 0.0
C617 C 0.21121 0.70531 0.27277 0.0
C618 C 0.2883 0.78083 0.25189 0.0
C619 C 0.2448 0.74499 0.25461 0.0
C620 C 0.30544 0.80022 0.24271 0.0
C621 C 0.29683 0.80601 0.22739 0.0
C622 C 0.26242 0.76727 0.24566 0.0
C623 C 0.26993 0.79335 0.22195 0.0
C624 C 0.21873 0.73163 0.24849 0.0
C625 C 0.2382 0.71796 0.27811 0.0
N626 N 0.25383 0.77443 0.23101 0.0
N627 N 0.25389 0.73729 0.2691 0.0
H628 H 0.30713 0.18296 0.25413 0.0
H629 H 0.19755 0.3252 0.24518 0.0
H630 H 0.29253 0.24936 0.28984 0.0
H631 H 0.20942 0.25721 0.21002 0.0
H632 H 0.23215 0.2973 0.26196 0.0
H633 H 0.2715 0.21008 0.23755 0.0
C634 C 0.29657 0.20317 0.25847 0.0
C635 C 0.30275 0.21368 0.27343 0.0
C636 C 0.22706 0.28854 0.25056 0.0
C637 C 0.26208 0.24475 0.25464 0.0
C638 C 0.20723 0.30442 0.24103 0.0
C639 C 0.20073 0.29376 0.22613 0.0
C640 C 0.24034 0.26183 0.24513 0.0
C641 C 0.21399 0.26662 0.22134 0.0
C642 C 0.27617 0.2186 0.24905 0.0
C643 C 0.28834 0.24007 0.27846 0.0
N644 N 0.23317 0.25172 0.23076 0.0
N645 N 0.26876 0.25461 0.26911 0.0
H646 H 0.17912 0.80747 0.75222 0.0
H647 H 0.32426 0.70151 0.74554 0.0
H648 H 0.24202 0.79234 0.78944 0.0
H649 H 0.26401 0.71949 0.70749 0.0
H650 H 0.29301 0.73325 0.76219 0.0
H651 H 0.2101 0.77564 0.7354 0.0
C652 C 0.19963 0.79789 0.75677 0.0
C653 C 0.20784 0.80236 0.77227 0.0
C654 C 0.28658 0.73009 0.7502 0.0
C655 C 0.24297 0.76558 0.75331 0.0
C656 C 0.30425 0.71172 0.74076 0.0
C657 C 0.29689 0.70803 0.72509 0.0
C658 C 0.26138 0.74473 0.7439 0.0
C659 C 0.27077 0.72198 0.71947 0.0
C660 C 0.21715 0.77948 0.74724 0.0
C661 C 0.23458 0.78921 0.77761 0.0
N662 N 0.25409 0.73981 0.72883 0.0
N663 N 0.25103 0.77131 0.7682 0.0
H664 H 0.54819 0.99755 0.53841 0.0
H665 H 0.45562 0.00986 0.45953 0.0
H666 H 0.55014 0.92952 0.50286 0.0
H667 H 0.45204 0.07631 0.49584 0.0
H668 H 0.48909 0.97957 0.47542 0.0
H669 H 0.51415 0.02719 0.52258 0.0
C670 C 0.54174 0.98904 0.52712 0.0
C671 C 0.55188 0.96093 0.52195 0.0
C672 C 0.48082 1.00061 0.48 0.0
C673 C 0.51235 0.99464 0.50386 0.0
C674 C 0.46152 0.01785 0.471 0.0
C675 C 0.45116 0.04575 0.47636 0.0
C676 C 0.49004 0.01136 0.49449 0.0
C677 C 0.45937 0.0549 0.4913 0.0
C678 C 0.52211 0.00591 0.51815 0.0
C679 C 0.54299 0.95112 0.50723 0.0
N680 N 0.47863 0.03786 0.49979 0.0
N681 N 0.52346 0.96787 0.49873 0.0
H682 H 0.04472 0.99766 0.95973 0.0
H683 H 0.96025 0.01152 0.04094 0.0
H684 H 0.05351 0.93238 0.99638 0.0
H685 H 0.94971 0.07509 0.00362 0.0
H686 H 0.9934 0.98168 0.02465 0.0
H687 H 0.01113 0.02692 0.976 0.0
C688 C 0.03988 0.98968 0.97133 0.0
C689 C 0.05179 0.96241 0.97669 0.0
C690 C 0.98367 1.00198 0.01995 0.0
C691 C 0.0128 0.99569 0.99531 0.0
C692 C 0.96456 0.01896 0.02919 0.0
C693 C 0.95233 0.04595 0.02364 0.0
C694 C 0.99082 0.01208 0.00503 0.0
C695 C 0.95853 0.05438 0.00833 0.0
C696 C 0.0205 0.00633 0.98056 0.0
C697 C 0.04494 0.95332 0.99183 0.0
N698 N 0.97764 0.03764 -0.0004 0.0
N699 N 0.02563 0.96982 0.00058 0.0
H700 H 0.55849 0.07316 0.99646 0.0
H701 H 0.44817 0.93113 0.00248 0.0
H702 H 0.5412 0.01194 0.95875 0.0
H703 H 0.46599 0.99187 0.04034 0.0
H704 H 0.48101 0.96148 0.98592 0.0
H705 H 0.52561 0.04288 0.01303 0.0
C706 C 0.54828 0.05307 0.99177 0.0
C707 C 0.55243 0.04519 0.97619 0.0
C708 C 0.47753 0.96825 0.99784 0.0
C709 C 0.51431 0.0109 0.99488 0.0
C710 C 0.45849 0.95113 0.00721 0.0
C711 C 0.4545 0.95885 0.02282 0.0
C712 C 0.49256 0.99322 0.00414 0.0
C713 C 0.46868 0.98489 0.0284 0.0
C714 C 0.52922 0.03599 0.00115 0.0
C715 C 0.53839 0.01905 0.97066 0.0
N716 N 0.48721 1.00098 0.01912 0.0
N717 N 0.51983 1.003 0.97994 0.0
H718 H 0.0707 0.06512 0.50408 0.0
H719 H 0.93637 0.94559 0.49651 0.0
H720 H 0.01687 0.03433 0.54259 0.0
H721 H 0.98991 0.97698 0.45801 0.0
H722 H 0.96552 0.97832 0.51372 0.0
H723 H 0.04141 0.03248 0.4869 0.0
C724 C 0.05288 0.05154 0.50893 0.0
C725 C 0.04637 0.05259 0.52481 0.0
C726 C 0.97077 0.97796 0.50148 0.0
C727 C 0.01266 0.0154 0.50529 0.0
C728 C 0.95408 0.95932 0.49166 0.0
C729 C 0.96057 0.95839 0.47578 0.0
C730 C 0.99411 0.99566 0.49534 0.0
C731 C 0.98389 0.97678 0.47015 0.0
C732 C 0.03611 0.03295 0.49914 0.0
C733 C 0.02291 0.0344 0.53045 0.0
N734 N 0.99977 0.9945 0.4799 0.0
N735 N 0.00696 0.01669 0.52072 0.0
H736 H 0.92652 0.2085 0.04058 0.0
H737 H 0.08242 0.29733 0.04089 0.0
H738 H 0.01033 0.16615 0.05255 0.0
H739 H 0.99866 0.33896 0.05361 0.0
H740 H 0.05614 0.24905 0.03837 0.0
H741 H 0.9529 0.2568 0.03848 0.0
C742 C 0.9505 0.20928 0.04253 0.0
C743 C 0.96623 0.18336 0.04687 0.0
C744 C 0.04357 0.26888 0.04159 0.0
C745 C 0.99645 0.23822 0.04431 0.0
C746 C 0.05848 0.29638 0.04296 0.0
C747 C 0.04274 0.3221 0.0476 0.0
C748 C 0.01261 0.26729 0.04451 0.0
C749 C 0.01172 0.3196 0.05019 0.0
C750 C 0.96547 0.23681 0.04141 0.0
C751 C 0.9973 0.18566 0.04933 0.0
N752 N 0.99766 0.29272 0.04857 0.0
N753 N 0.0114 0.21258 0.048 0.0
H754 H 0.06744 0.70421 0.27921 0.0
H755 H 0.94463 0.7912 0.32927 0.0
H756 H 0.07822 0.72759 0.32743 0.0
H757 H 0.9461 0.79789 0.2794 0.0
H758 H 0.9915 0.76338 0.32845 0.0
H759 H 0.02066 0.73366 0.27865 0.0
C760 C 0.05996 0.71535 0.28966 0.0
C761 C 0.07687 0.71341 0.30338 0.0
C762 C 0.98176 0.77101 0.31766 0.0
C763 C 0.02356 0.74693 0.30281 0.0
C764 C 0.95491 0.7869 0.31811 0.0
C765 C 0.94138 0.79692 0.30438 0.0
C766 C 0.99523 0.76454 0.30334 0.0
C767 C 0.95589 0.79075 0.29027 0.0
C768 C 0.03341 0.7323 0.2893 0.0
C769 C 0.06614 0.72849 0.31656 0.0
N770 N 0.98195 0.77468 0.29009 0.0
N771 N 0.04025 0.7444 0.31595 0.0
H772 H 0.45858 0.69459 0.52802 0.0
H773 H 0.53554 0.82433 0.57769 0.0
H774 H 0.47806 0.68767 0.57689 0.0
H775 H 0.5509 0.81744 0.52844 0.0
H776 H 0.50845 0.777 0.577 0.0
H777 H 0.48639 0.74241 0.52732 0.0
C778 C 0.46852 0.70315 0.53859 0.0
C779 C 0.466 0.68702 0.55253 0.0
C780 C 0.51778 0.78571 0.56632 0.0
C781 C 0.49753 0.74154 0.5518 0.0
C782 C 0.53322 0.81285 0.56669 0.0
C783 C 0.54557 0.82495 0.55309 0.0
C784 C 0.51411 0.77049 0.55222 0.0
C785 C 0.5419 0.80883 0.53921 0.0
C786 C 0.48453 0.73027 0.53815 0.0
C787 C 0.4795 0.69912 0.56585 0.0
N788 N 0.52627 0.78248 0.53909 0.0
N789 N 0.49446 0.72559 0.56516 0.0
H790 H 0.54849 0.17735 0.78902 0.0
H791 H 0.45852 0.33259 0.78895 0.0
H792 H 0.58984 0.26163 0.80113 0.0
H793 H 0.41739 0.24858 0.80176 0.0
H794 H 0.50686 0.30657 0.7863 0.0
H795 H 0.50004 0.20328 0.78658 0.0
C796 C 0.54746 0.20135 0.79092 0.0
C797 C 0.57313 0.21734 0.7954 0.0
C798 C 0.48712 0.29387 0.78953 0.0
C799 C 0.51811 0.24705 0.79245 0.0
C800 C 0.45956 0.30863 0.79097 0.0
C801 C 0.43398 0.29275 0.7957 0.0
C802 C 0.4889 0.26293 0.79251 0.0
C803 C 0.43663 0.26173 0.79824 0.0
C804 C 0.51985 0.21606 0.78961 0.0
C805 C 0.57052 0.24841 0.7978 0.0
N806 N 0.46358 0.24782 0.7966 0.0
N807 N 0.54352 0.26226 0.79628 0.0
H808 H 0.92633 0.79895 0.45716 0.0
H809 H 0.08217 0.71026 0.45737 0.0
H810 H 0.00983 0.84028 0.44372 0.0
H811 H 0.99856 0.66746 0.44541 0.0
H812 H 0.05567 0.75851 0.45918 0.0
H813 H 0.95259 0.75059 0.4596 0.0
C814 C 0.9502 0.79791 0.45491 0.0
C815 C 0.96589 0.82356 0.4501 0.0
C816 C 0.04318 0.73844 0.4563 0.0
C817 C 0.99599 0.76873 0.45311 0.0
C818 C 0.05822 0.71095 0.45534 0.0
C819 C 0.04258 0.6849 0.4511 0.0
C820 C 0.0122 0.73971 0.45337 0.0
C821 C 0.01153 0.68708 0.44853 0.0
C822 C 0.9651 0.77038 0.45624 0.0
C823 C 0.99681 0.82097 0.44729 0.0
N824 N 0.99734 0.71397 0.44974 0.0
N825 N 0.01087 0.7941 0.44888 0.0
H826 H 0.56611 0.80176 0.72099 0.0
H827 H 0.43554 0.72645 0.6713 0.0
H828 H 0.57237 0.78187 0.67215 0.0
H829 H 0.44181 0.71054 0.72053 0.0
H830 H 0.48292 0.75319 0.67217 0.0
H831 H 0.51789 0.77457 0.72183 0.0
C832 C 0.55735 0.79185 0.71047 0.0
C833 C 0.57339 0.79406 0.69648 0.0
C834 C 0.47407 0.74384 0.68281 0.0
C835 C 0.51846 0.7633 0.69736 0.0
C836 C 0.44687 0.7286 0.68235 0.0
C837 C 0.43456 0.71618 0.69587 0.0
C838 C 0.48925 0.74719 0.69694 0.0
C839 C 0.45056 0.71962 0.70981 0.0
C840 C 0.53 0.7762 0.71099 0.0
C841 C 0.56102 0.78064 0.68322 0.0
N842 N 0.47706 0.73502 0.71003 0.0
N843 N 0.53437 0.76607 0.68398 0.0
H844 H 0.49539 0.16505 0.94692 0.0
H845 H 0.51288 0.3404 0.94481 0.0
H846 H 0.57972 0.20714 0.95815 0.0
H847 H 0.42942 0.29927 0.95851 0.0
H848 H 0.5379 0.29179 0.94756 0.0
H849 H 0.47052 0.21382 0.94916 0.0
C850 C 0.50863 0.18456 0.94997 0.0
C851 C 0.53968 0.1821 0.95231 0.0
C852 C 0.51418 0.2935 0.95011 0.0
C853 C 0.51144 0.23798 0.95459 0.0
C854 C 0.49984 0.32115 0.94846 0.0
C855 C 0.46898 0.32383 0.95137 0.0
C856 C 0.49742 0.26815 0.95433 0.0
C857 C 0.45325 0.2982 0.95618 0.0
C858 C 0.49439 0.21231 0.95131 0.0
C859 C 0.55572 0.20806 0.95631 0.0
N860 N 0.46755 0.2713 0.95728 0.0
N861 N 0.5415 0.23505 0.95708 0.0
H862 H 0.06436 0.29057 0.16986 0.0
H863 H 0.94123 0.20492 0.22036 0.0
H864 H 0.06281 0.29831 0.2197 0.0
H865 H 0.93053 0.22747 0.17202 0.0
H866 H 0.98816 0.23417 0.22076 0.0
H867 H 0.01745 0.2628 0.17082 0.0
C868 C 0.05406 0.28651 0.18104 0.0
C869 C 0.06758 0.29681 0.19472 0.0
C870 C 0.97539 0.23267 0.21012 0.0
C871 C 0.01368 0.26452 0.19592 0.0
C872 C 0.94877 0.21583 0.20984 0.0
C873 C 0.93184 0.21374 0.19614 0.0
C874 C 0.9853 0.24701 0.19653 0.0
C875 C 0.94262 0.22852 0.18289 0.0
C876 C 0.02719 0.27065 0.18158 0.0
C877 C 0.05304 0.29094 0.20886 0.0
N878 N 0.96859 0.24432 0.18341 0.0
N879 N 0.02695 0.27491 0.20913 0.0
H880 H 0.97415 0.68837 0.92245 0.0
H881 H 0.05251 0.81709 0.97202 0.0
H882 H 0.96171 0.69241 0.972 0.0
H883 H 0.02836 0.82572 0.92377 0.0
H884 H 0.02523 0.76893 0.97289 0.0
H885 H 1.00019 0.73619 0.92333 0.0
C886 C 0.97691 0.69934 0.93357 0.0
C887 C 0.96571 0.68628 0.94718 0.0
C888 C 0.02592 0.78156 0.96217 0.0
C889 C 0.99592 0.74139 0.94827 0.0
C890 C 0.04161 0.80889 0.96163 0.0
C891 C 0.04273 0.82555 0.9478 0.0
C892 C 0.01186 0.77068 0.94872 0.0
C893 C 0.02805 0.81388 0.93473 0.0
C894 C 0.99173 0.72677 0.93404 0.0
C895 C 0.96985 0.70177 0.96122 0.0
N896 N 0.01347 0.78723 0.9355 0.0
N897 N 0.98488 0.72849 0.96144 0.0
H898 H 0.94194 0.30013 0.72218 0.0
H899 H 0.07383 0.22712 0.67236 0.0
H900 H 0.93763 0.28456 0.67286 0.0
H901 H 0.06506 0.20788 0.72117 0.0
H902 H 0.02686 0.25465 0.67321 0.0
H903 H 0.98999 0.27266 0.72291 0.0
C904 C 0.95113 0.29114 0.71153 0.0
C905 C 0.93566 0.29457 0.69744 0.0
C906 C 0.03508 0.24438 0.68376 0.0
C907 C 0.99039 0.26351 0.6982 0.0
C908 C 0.06202 0.22867 0.6833 0.0
C909 C 0.07349 0.21506 0.69672 0.0
C910 C 0.01935 0.247 0.69777 0.0
C911 C 0.05695 0.21784 0.71053 0.0
C912 C 0.97838 0.27533 0.71198 0.0
C913 C 0.94854 0.28232 0.68401 0.0
N914 N 0.03074 0.23369 0.71074 0.0
N915 N 0.97508 0.26755 0.68472 0.0
H916 H 0.4956 0.34039 0.44595 0.0
H917 H 0.50913 0.16443 0.44535 0.0
H918 H 0.57873 0.29666 0.45781 0.0
H919 H 0.42619 0.20791 0.45783 0.0
H920 H 0.53518 0.21254 0.44783 0.0
H921 H 0.46959 0.29223 0.44824 0.0
C922 C 0.50836 0.32065 0.44912 0.0
C923 C 0.53942 0.3225 0.45164 0.0
C924 C 0.51135 0.21149 0.45018 0.0
C925 C 0.50982 0.26725 0.45403 0.0
C926 C 0.49642 0.1841 0.44869 0.0
C927 C 0.4654 0.1822 0.45133 0.0
C928 C 0.49506 0.23738 0.45396 0.0
C929 C 0.45012 0.20837 0.45573 0.0
C930 C 0.49346 0.29323 0.45049 0.0
C931 C 0.55478 0.29624 0.45582 0.0
N932 N 0.46502 0.235 0.45667 0.0
N933 N 0.5399 0.26958 0.45664 0.0
H934 H 0.45761 0.83416 0.2091 0.0
H935 H 0.54895 0.67976 0.20905 0.0
H936 H 0.417 0.74985 0.19636 0.0
H937 H 0.58942 0.76429 0.19662 0.0
H938 H 0.50022 0.70526 0.21141 0.0
H939 H 0.50621 0.80856 0.21149 0.0
C940 C 0.45884 0.81023 0.20701 0.0
C941 C 0.43331 0.79415 0.20239 0.0
C942 C 0.5199 0.71818 0.20833 0.0
C943 C 0.48853 0.76478 0.20533 0.0
C944 C 0.54767 0.70373 0.20708 0.0
C945 C 0.57317 0.71993 0.20253 0.0
C946 C 0.51786 0.74912 0.20539 0.0
C947 C 0.57024 0.75092 0.20001 0.0
C948 C 0.48654 0.7957 0.20831 0.0
C949 C 0.4362 0.76316 0.19978 0.0
N950 N 0.54312 0.76453 0.20149 0.0
N951 N 0.46328 0.74947 0.20131 0.0
H952 H 0.92729 0.3016 0.5428 0.0
H953 H 0.08203 0.21139 0.54334 0.0
H954 H 0.01117 0.34385 0.55479 0.0
H955 H 0.99844 0.17117 0.55753 0.0
H956 H 0.05623 0.25996 0.54083 0.0
H957 H 0.9533 0.25304 0.54141 0.0
C958 C 0.95121 0.30072 0.54493 0.0
C959 C 0.96706 0.32671 0.54904 0.0
C960 C 0.0436 0.24037 0.54438 0.0
C961 C 0.99688 0.27155 0.54725 0.0
C962 C 0.05824 0.21272 0.54575 0.0
C963 C 0.04239 0.18732 0.55077 0.0
C964 C 0.01281 0.24239 0.54767 0.0
C965 C 0.01157 0.19028 0.55379 0.0
C966 C 0.96596 0.27305 0.54421 0.0
C967 C 0.99804 0.32428 0.55175 0.0
N968 N 0.99776 0.21727 0.55214 0.0
N969 N 0.01197 0.29721 0.55076 0.0
H970 H 0.42071 0.26333 0.30461 0.0
H971 H 0.59606 0.24884 0.30223 0.0
H972 H 0.46257 0.18008 0.29121 0.0
H973 H 0.55229 0.33209 0.29057 0.0
H974 H 0.54783 0.22287 0.30007 0.0
H975 H 0.46886 0.28894 0.30149 0.0
C976 C 0.44005 0.25046 0.30095 0.0
C977 C 0.4377 0.21949 0.29824 0.0
C978 C 0.54886 0.24674 0.2978 0.0
C979 C 0.49294 0.24864 0.29486 0.0
C980 C 0.57632 0.26161 0.29909 0.0
C981 C 0.57814 0.2927 0.29663 0.0
C982 C 0.52287 0.26319 0.29443 0.0
C983 C 0.55189 0.3081 0.29251 0.0
C984 C 0.46745 0.26514 0.29908 0.0
C985 C 0.46343 0.20398 0.29339 0.0
N986 N 0.52521 0.29327 0.2918 0.0
N987 N 0.49014 0.21863 0.2921 0.0
H988 H 0.42685 0.79744 0.03925 0.0
H989 H 0.58181 0.70704 0.03859 0.0
H990 H 0.51125 0.83813 0.05169 0.0
H991 H 0.4976 0.66563 0.05074 0.0
H992 H 0.55592 0.75553 0.03628 0.0
H993 H 0.45259 0.74896 0.03641 0.0
C994 C 0.45082 0.79626 0.04116 0.0
C995 C 0.46691 0.82175 0.04585 0.0
C996 C 0.54314 0.7357 0.03928 0.0
C997 C 0.49641 0.76671 0.04241 0.0
C998 C 0.55783 0.70806 0.04051 0.0
C999 C 0.54185 0.68236 0.04498 0.0
C1000 C 0.5122 0.73745 0.04219 0.0
C1001 C 0.51081 0.68497 0.04742 0.0
C1002 C 0.46543 0.76864 0.0396 0.0
C1003 C 0.49795 0.81895 0.04823 0.0
N1004 N 0.49699 0.71201 0.04599 0.0
N1005 N 0.5117 0.79195 0.04646 0.0
H1006 H 0.94076 0.70897 0.77717 0.0
H1007 H 0.07193 0.78208 0.82738 0.0
H1008 H 0.93551 0.72535 0.82639 0.0
H1009 H 0.06388 0.80173 0.77858 0.0
H1010 H 0.02483 0.75477 0.82633 0.0
H1011 H 0.98876 0.73663 0.77655 0.0
C1012 C 0.94972 0.7182 0.78782 0.0
C1013 C 0.93401 0.71491 0.80184 0.0
C1014 C 0.03323 0.76509 0.81583 0.0
C1015 C 0.98866 0.74617 0.80122 0.0
C1016 C 0.06024 0.78067 0.8164 0.0
C1017 C 0.07195 0.79431 0.80305 0.0
C1018 C 0.01767 0.76262 0.80176 0.0
C1019 C 0.05557 0.79173 0.78918 0.0
C1020 C 0.97693 0.73411 0.78743 0.0
C1021 C 0.9466 0.72746 0.81528 0.0
N1022 N 0.02929 0.77598 0.78885 0.0
N1023 N 0.9731 0.74231 0.81463 0.0
H1024 H 0.32965 0.35209 0.98997 0.0
H1025 H 0.19128 0.44597 0.02164 0.0
H1026 H 0.31822 0.44496 0.97728 0.0
H1027 H 0.18381 0.35219 0.01002 0.0
H1028 H 0.241 0.44708 0.00931 0.0
H1029 H 0.27977 0.35265 0.00191 0.0
C1030 C 0.31684 0.37273 0.98988 0.0
C1031 C 0.32816 0.39854 0.98263 0.0
C1032 C 0.22833 0.42635 0.00939 0.0
C1033 C 0.27108 0.39931 0.99633 0.0
C1034 C 0.19999 0.42569 0.01639 0.0
C1035 C 0.18329 0.39898 0.01677 0.0
C1036 C 0.24041 0.39992 0.00312 0.0
C1037 C 0.19576 0.37332 0.00987 0.0
C1038 C 0.28827 0.37293 0.99657 0.0
C1039 C 0.31036 0.42456 0.98274 0.0
N1040 N 0.22369 0.37433 0.00351 0.0
N1041 N 0.28278 0.42436 0.98956 0.0
H1042 H 0.81165 0.06718 0.22932 0.0
H1043 H 0.90931 0.92905 0.25918 0.0
H1044 H 0.90603 0.07548 0.23922 0.0
H1045 H 0.81526 0.93717 0.26998 0.0
H1046 H 0.90815 0.97955 0.24782 0.0
H1047 H 0.81208 0.01689 0.24088 0.0
C1048 C 0.8324 0.05855 0.23407 0.0
C1049 C 0.8588 0.07569 0.2334 0.0
C1050 C 0.88775 0.97016 0.2526 0.0
C1051 C 0.85963 0.01772 0.2462 0.0
C1052 C 0.8883 0.94122 0.25893 0.0
C1053 C 0.86231 0.92878 0.2655 0.0
C1054 C 0.86089 0.98664 0.25256 0.0
C1055 C 0.83582 0.94583 0.26502 0.0
C1056 C 0.83263 0.02982 0.24062 0.0
C1057 C 0.8851 0.06323 0.23964 0.0
N1058 N 0.83575 0.97378 0.25862 0.0
N1059 N 0.88493 0.03489 0.24561 0.0
H1060 H 0.19264 0.56289 0.47717 0.0
H1061 H 0.33078 0.65827 0.50866 0.0
H1062 H 0.18453 0.65666 0.48868 0.0
H1063 H 0.32082 0.56457 0.51995 0.0
H1064 H 0.28074 0.65757 0.4968 0.0
H1065 H 0.24279 0.56246 0.48898 0.0
C1066 C 0.2013 0.58332 0.48229 0.0
C1067 C 0.18426 0.6098 0.48204 0.0
C1068 C 0.28963 0.63714 0.50179 0.0
C1069 C 0.24195 0.60966 0.49511 0.0
C1070 C 0.3183 0.63743 0.50842 0.0
C1071 C 0.33006 0.61141 0.51528 0.0
C1072 C 0.27279 0.6105 0.50173 0.0
C1073 C 0.31264 0.58514 0.5148 0.0
C1074 C 0.22991 0.58305 0.48899 0.0
C1075 C 0.19672 0.63567 0.48876 0.0
N1076 N 0.28498 0.5853 0.50808 0.0
N1077 N 0.22491 0.63504 0.49485 0.0
H1078 H 0.63531 0.09082 0.74569 0.0
H1079 H 0.63232 0.91471 0.75311 0.0
H1080 H 0.66504 0.0493 0.78811 0.0
H1081 H 0.66932 0.9562 0.71222 0.0
H1082 H 0.6336 0.96388 0.76623 0.0
H1083 H 0.63704 0.04143 0.73291 0.0
C1084 C 0.64226 0.07135 0.75228 0.0
C1085 C 0.65032 0.07418 0.76793 0.0
C1086 C 0.64153 0.96204 0.75441 0.0
C1087 C 0.65133 0.01772 0.75357 0.0
C1088 C 0.64077 0.93409 0.74693 0.0
C1089 C 0.65096 0.93134 0.73161 0.0
C1090 C 0.65153 0.9875 0.7463 0.0
C1091 C 0.66155 0.95725 0.7241 0.0
C1092 C 0.64326 0.04327 0.745 0.0
C1093 C 0.659 0.04816 0.77597 0.0
N1094 N 0.66118 0.98429 0.73143 0.0
N1095 N 0.65889 0.02095 0.76878 0.0
H1096 H 0.71042 0.59144 0.03907 0.0
H1097 H 0.80489 0.58923 0.96196 0.0
H1098 H 0.67097 0.62196 0.99627 0.0
H1099 H 0.84407 0.62577 0.00357 0.0
H1100 H 0.75578 0.58868 0.97473 0.0
H1101 H 0.75995 0.59159 0.02657 0.0
C1102 C 0.71212 0.59782 0.02698 0.0
C1103 C 0.68652 0.60661 0.01866 0.0
C1104 C 0.77518 0.59667 0.98106 0.0
C1105 C 0.74296 0.60638 0.00432 0.0
C1106 C 0.80324 0.5968 0.97386 0.0
C1107 C 0.82865 0.6075 0.98174 0.0
C1108 C 0.77256 0.60644 0.99643 0.0
C1109 C 0.82506 0.61737 0.99708 0.0
C1110 C 0.74039 0.59812 0.01994 0.0
C1111 C 0.69011 0.61502 0.00309 0.0
N1112 N 0.79756 0.61629 0.00401 0.0
N1113 N 0.71777 0.61436 0.99636 0.0
H1114 H 0.19483 0.9397 0.77126 0.0
H1115 H 0.10032 0.07963 0.74097 0.0
H1116 H 0.10041 0.93311 0.76108 0.0
H1117 H 0.19409 0.06912 0.73008 0.0
H1118 H 0.10032 0.02921 0.75246 0.0
H1119 H 0.19546 0.98994 0.75964 0.0
C1120 C 0.17429 0.94871 0.76645 0.0
C1121 C 0.14757 0.93206 0.76704 0.0
C1122 C 0.12092 0.03806 0.74763 0.0
C1123 C 0.14797 0.98995 0.75416 0.0
C1124 C 0.12103 0.06695 0.74122 0.0
C1125 C 0.14729 0.07868 0.73459 0.0
C1126 C 0.14739 0.02096 0.74769 0.0
C1127 C 0.17336 0.061 0.73507 0.0
C1128 C 0.17466 0.9774 0.75985 0.0
C1129 C 0.12157 0.94499 0.76072 0.0
N1130 N 0.1728 0.03314 0.74156 0.0
N1131 N 0.12233 0.97328 0.75471 0.0
H1132 H 0.81745 0.44794 0.52136 0.0
H1133 H 0.68091 0.35077 0.48991 0.0
H1134 H 0.82669 0.354 0.51047 0.0
H1135 H 0.69085 0.44367 0.47697 0.0
H1136 H 0.73072 0.35237 0.50197 0.0
H1137 H 0.76777 0.44775 0.50899 0.0
C1138 C 0.80914 0.42735 0.51627 0.0
C1139 C 0.82636 0.40099 0.51686 0.0
C1140 C 0.7219 0.37242 0.49655 0.0
C1141 C 0.76923 0.40044 0.50314 0.0
C1142 C 0.69338 0.37162 0.48979 0.0
C1143 C 0.68166 0.39714 0.48243 0.0
C1144 C 0.73864 0.39911 0.49626 0.0
C1145 C 0.69902 0.42347 0.4825 0.0
C1146 C 0.78081 0.42727 0.50924 0.0
C1147 C 0.81436 0.3749 0.51015 0.0
N1148 N 0.72654 0.42385 0.48938 0.0
N1149 N 0.78643 0.37519 0.50375 0.0
H1150 H 0.40587 0.08171 0.25882 0.0
H1151 H 0.31024 0.94428 0.22718 0.0
H1152 H 0.3129 0.0716 0.27153 0.0
H1153 H 0.4037 0.93562 0.23917 0.0
H1154 H 0.30974 0.99425 0.23931 0.0
H1155 H 0.40453 0.03187 0.24683 0.0
C1156 C 0.38504 0.06922 0.25889 0.0
C1157 C 0.35943 0.0809 0.26618 0.0
C1158 C 0.33026 0.98127 0.23935 0.0
C1159 C 0.35778 0.02382 0.25241 0.0
C1160 C 0.33058 0.95279 0.23246 0.0
C1161 C 0.35701 0.93565 0.23226 0.0
C1162 C 0.35678 0.99307 0.24568 0.0
C1163 C 0.38275 0.94789 0.23919 0.0
C1164 C 0.38439 0.04066 0.25217 0.0
C1165 C 0.33315 0.06347 0.26604 0.0
N1166 N 0.38209 0.97595 0.24543 0.0
N1167 N 0.33293 0.03588 0.2592 0.0
H1168 H 0.8189 0.94874 0.47726 0.0
H1169 H 0.68088 0.8532 0.50892 0.0
H1170 H 0.827 0.85502 0.48887 0.0
H1171 H 0.69025 0.94718 0.5197 0.0
H1172 H 0.731 0.85393 0.49714 0.0
H1173 H 0.76873 0.94921 0.48906 0.0
C1174 C 0.81025 0.92834 0.48241 0.0
C1175 C 0.8273 0.90185 0.48218 0.0
C1176 C 0.72197 0.87442 0.502 0.0
C1177 C 0.76956 0.90203 0.49524 0.0
C1178 C 0.69325 0.8741 0.50859 0.0
C1179 C 0.6813 0.90019 0.51528 0.0
C1180 C 0.73867 0.90116 0.50182 0.0
C1181 C 0.69858 0.92655 0.51468 0.0
C1182 C 0.78162 0.92862 0.48911 0.0
C1183 C 0.81482 0.87602 0.48893 0.0
N1184 N 0.72629 0.92641 0.50801 0.0
N1185 N 0.78662 0.87666 0.49501 0.0
H1186 H 0.37618 0.59584 0.75329 0.0
H1187 H 0.37295 0.41955 0.74618 0.0
H1188 H 0.3399 0.55385 0.71236 0.0
H1189 H 0.34308 0.46145 0.78848 0.0
H1190 H 0.37164 0.46888 0.73333 0.0
H1191 H 0.37482 0.54677 0.76653 0.0
C1192 C 0.36789 0.57637 0.74713 0.0
C1193 C 0.3579 0.57895 0.73176 0.0
C1194 C 0.3653 0.46714 0.74541 0.0
C1195 C 0.35722 0.52293 0.74659 0.0
C1196 C 0.36606 0.43909 0.75273 0.0
C1197 C 0.35784 0.43639 0.76836 0.0
C1198 C 0.3573 0.49278 0.75393 0.0
C1199 C 0.34924 0.4625 0.77635 0.0
C1200 C 0.36707 0.54848 0.75467 0.0
C1201 C 0.3475 0.55294 0.72427 0.0
N1202 N 0.34957 0.48967 0.76912 0.0
N1203 N 0.3478 0.52598 0.73167 0.0
H1204 H 0.79916 0.08912 0.0386 0.0
H1205 H 0.70656 0.08839 0.96069 0.0
H1206 H 0.8393 0.12243 0.99653 0.0
H1207 H 0.66618 0.12139 0.00277 0.0
H1208 H 0.75559 0.08807 0.97367 0.0
H1209 H 0.75019 0.08814 0.0256 0.0
C1210 C 0.79774 0.09587 0.02656 0.0
C1211 C 0.82336 0.10582 0.01861 0.0
C1212 C 0.73593 0.09521 0.98004 0.0
C1213 C 0.76753 0.10427 0.00367 0.0
C1214 C 0.70794 0.0952 0.97272 0.0
C1215 C 0.68224 0.10487 0.98069 0.0
C1216 C 0.73813 0.10408 0.99559 0.0
C1217 C 0.68542 0.11379 0.99621 0.0
C1218 C 0.76978 0.0955 0.01922 0.0
C1219 C 0.82012 0.11464 0.00307 0.0
N1220 N 0.71282 0.11288 0.00322 0.0
N1221 N 0.79275 0.11336 0.99604 0.0
H1222 H 0.19698 0.56676 0.27021 0.0
H1223 H 0.09957 0.42896 0.23976 0.0
H1224 H 0.10266 0.57518 0.26018 0.0
H1225 H 0.19355 0.43747 0.22887 0.0
H1226 H 0.10066 0.47931 0.25128 0.0
H1227 H 0.19662 0.51667 0.25842 0.0
C1228 C 0.17625 0.5582 0.26538 0.0
C1229 C 0.14985 0.57532 0.26608 0.0
C1230 C 0.12106 0.47005 0.24645 0.0
C1231 C 0.14911 0.51757 0.25301 0.0
C1232 C 0.12055 0.44119 0.24002 0.0
C1233 C 0.14654 0.4289 0.23337 0.0
C1234 C 0.14789 0.48659 0.24651 0.0
C1235 C 0.17299 0.44602 0.23387 0.0
C1236 C 0.17607 0.52958 0.2587 0.0
C1237 C 0.1236 0.56294 0.25974 0.0
N1238 N 0.17303 0.47388 0.24037 0.0
N1239 N 0.1238 0.53471 0.25365 0.0
H1240 H 0.17808 0.15559 0.51013 0.0
H1241 H 0.31472 0.06059 0.47721 0.0
H1242 H 0.18857 0.06234 0.52225 0.0
H1243 H 0.3235 0.15406 0.48924 0.0
H1244 H 0.26515 0.05986 0.48972 0.0
H1245 H 0.22762 0.1546 0.49782 0.0
C1246 C 0.19059 0.13477 0.51 0.0
C1247 C 0.1791 0.10898 0.51722 0.0
C1248 C 0.27807 0.08044 0.48969 0.0
C1249 C 0.23584 0.10773 0.5031 0.0
C1250 C 0.30633 0.08089 0.48258 0.0
C1251 C 0.32337 0.10739 0.48227 0.0
C1252 C 0.26639 0.10689 0.49614 0.0
C1253 C 0.31129 0.13307 0.48933 0.0
C1254 C 0.21898 0.13432 0.5031 0.0
C1255 C 0.19655 0.08273 0.51683 0.0
N1256 N 0.28343 0.13228 0.4958 0.0
N1257 N 0.22397 0.08271 0.50982 0.0
H1258 H 0.63671 0.41964 0.24588 0.0
H1259 H 0.63696 0.59583 0.25295 0.0
H1260 H 0.66956 0.46168 0.28755 0.0
H1261 H 0.66885 0.55382 0.21107 0.0
H1262 H 0.63898 0.54676 0.26605 0.0
H1263 H 0.63848 0.46872 0.23275 0.0
C1264 C 0.64435 0.43915 0.25224 0.0
C1265 C 0.65322 0.43656 0.26778 0.0
C1266 C 0.64566 0.54843 0.25401 0.0
C1267 C 0.65439 0.49267 0.25304 0.0
C1268 C 0.64449 0.57634 0.24655 0.0
C1269 C 0.65299 0.57893 0.23094 0.0
C1270 C 0.65437 0.52281 0.24567 0.0
C1271 C 0.66242 0.55288 0.22316 0.0
C1272 C 0.64541 0.46705 0.24475 0.0
C1273 C 0.66283 0.46262 0.27551 0.0
N1274 N 0.66246 0.52585 0.23052 0.0
N1275 N 0.66277 0.48964 0.26813 0.0
H1276 H 0.16467 0.88321 0.00411 0.0
H1277 H 0.34064 0.88426 0.99631 0.0
H1278 H 0.20615 0.91937 0.96302 0.0
H1279 H 0.2998 0.91531 0.03866 0.0
H1280 H 0.29118 0.88625 0.98362 0.0
H1281 H 0.21396 0.88411 0.01711 0.0
C1282 C 0.18408 0.89139 0.99786 0.0
C1283 C 0.18129 0.90148 0.98252 0.0
C1284 C 0.29319 0.8927 0.99568 0.0
C1285 C 0.23756 0.90161 0.99707 0.0
C1286 C 0.3213 0.89156 0.0029 0.0
C1287 C 0.32434 0.89991 0.0185 0.0
C1288 C 0.26781 0.90121 0.00427 0.0
C1289 C 0.29849 0.90903 0.02655 0.0
C1290 C 0.21209 0.89194 0.00526 0.0
C1291 C 0.20722 0.91171 0.97491 0.0
N1292 N 0.27124 0.90906 0.01942 0.0
N1293 N 0.23431 0.91114 0.98217 0.0
H1294 H 0.84088 0.45651 0.71157 0.0
H1295 H 0.84149 0.55126 0.78837 0.0
H1296 H 0.87574 0.41728 0.75354 0.0
H1297 H 0.87508 0.59069 0.74618 0.0
H1298 H 0.84186 0.50185 0.77584 0.0
H1299 H 0.8412 0.50591 0.72413 0.0
C1300 C 0.84828 0.45822 0.7235 0.0
C1301 C 0.8582 0.43269 0.73156 0.0
C1302 C 0.84904 0.52136 0.76934 0.0
C1303 C 0.85816 0.4891 0.74599 0.0
C1304 C 0.84863 0.54958 0.7764 0.0
C1305 C 0.85817 0.57518 0.76827 0.0
C1306 C 0.85817 0.51875 0.75386 0.0
C1307 C 0.86754 0.57157 0.75285 0.0
C1308 C 0.84866 0.48644 0.73057 0.0
C1309 C 0.8679 0.43635 0.74692 0.0
N1310 N 0.86695 0.54391 0.74606 0.0
N1311 N 0.86728 0.464 0.75372 0.0
H1312 H 0.15817 0.34732 0.08379 0.0
H1313 H 0.09638 0.40693 0.16553 0.0
H1314 H 0.09175 0.41718 0.08842 0.0
H1315 H 0.17084 0.34579 0.16057 0.0
H1316 H 0.09202 0.40887 0.1372 0.0
H1317 H 0.16072 0.34384 0.11211 0.0
C1318 C 0.14409 0.3618 0.09075 0.0
C1319 C 0.12481 0.38257 0.08378 0.0
C1320 C 0.10929 0.39504 0.14235 0.0
C1321 C 0.12754 0.37883 0.11603 0.0
C1322 C 0.11178 0.39399 0.15849 0.0
C1323 C 0.13395 0.3762 0.16538 0.0
C1324 C 0.12909 0.37811 0.13314 0.0
C1325 C 0.15333 0.35977 0.15576 0.0
C1326 C 0.14555 0.35989 0.10689 0.0
C1327 C 0.10699 0.40085 0.09332 0.0
N1328 N 0.15043 0.3611 0.14015 0.0
N1329 N 0.1088 0.39857 0.10895 0.0
H1330 H 0.85035 0.85032 0.41533 0.0
H1331 H 0.91168 0.90847 0.33322 0.0
H1332 H 0.91584 0.92095 0.41013 0.0
H1333 H 0.8382 0.84621 0.33842 0.0
H1334 H 0.91551 0.91152 0.36153 0.0
H1335 H 0.84748 0.84631 0.38702 0.0
C1336 C 0.86412 0.86489 0.40824 0.0
C1337 C 0.88333 0.88595 0.41505 0.0
C1338 C 0.89856 0.8972 0.35643 0.0
C1339 C 0.88026 0.88158 0.38283 0.0
C1340 C 0.89639 0.8955 0.34031 0.0
C1341 C 0.87466 0.87707 0.3335 0.0
C1342 C 0.87888 0.88027 0.36572 0.0
C1343 C 0.85538 0.86066 0.34319 0.0
C1344 C 0.86249 0.86266 0.39212 0.0
C1345 C 0.90072 0.90434 0.40537 0.0
N1346 N 0.85797 0.86262 0.35879 0.0
N1347 N 0.89878 0.90173 0.38976 0.0
H1348 H 0.41222 0.60378 0.66517 0.0
H1349 H 0.35361 0.66294 0.58272 0.0
H1350 H 0.33982 0.6671 0.65948 0.0
H1351 H 0.4155 0.58926 0.58824 0.0
H1352 H 0.35143 0.66797 0.61099 0.0
H1353 H 0.41718 0.60123 0.63687 0.0
C1354 C 0.3975 0.61718 0.65798 0.0
C1355 C 0.37558 0.63559 0.66465 0.0
C1356 C 0.36552 0.65074 0.60598 0.0
C1357 C 0.38106 0.63291 0.63245 0.0
C1358 C 0.36673 0.6479 0.58987 0.0
C1359 C 0.38468 0.62566 0.58316 0.0
C1360 C 0.38247 0.63125 0.61536 0.0
C1361 C 0.40134 0.60675 0.59293 0.0
C1362 C 0.40027 0.61572 0.64187 0.0
C1363 C 0.35705 0.65256 0.65484 0.0
N1364 N 0.39982 0.60998 0.60853 0.0
N1365 N 0.3602 0.65079 0.63925 0.0
H1366 H 0.5921 0.10417 0.8331 0.0
H1367 H 0.65166 0.16329 0.9154 0.0
H1368 H 0.6622 0.17013 0.83857 0.0
H1369 H 0.58727 0.09175 0.90994 0.0
H1370 H 0.65253 0.16948 0.88717 0.0
H1371 H 0.58649 0.10255 0.86136 0.0
C1372 C 0.60614 0.11841 0.84023 0.0
C1373 C 0.62772 0.13715 0.83351 0.0
C1374 C 0.63812 0.15252 0.89219 0.0
C1375 C 0.62156 0.13547 0.86571 0.0
C1376 C 0.63764 0.14902 0.90828 0.0
C1377 C 0.61952 0.12691 0.91499 0.0
C1378 C 0.62032 0.13376 0.88282 0.0
C1379 C 0.60168 0.10904 0.90525 0.0
C1380 C 0.60299 0.11748 0.85634 0.0
C1381 C 0.64533 0.15522 0.84326 0.0
N1382 N 0.60261 0.11279 0.88968 0.0
N1383 N 0.64194 0.15385 0.85885 0.0
H1384 H 0.09812 0.60104 0.33347 0.0
H1385 H 0.15863 0.66067 0.41545 0.0
H1386 H 0.17381 0.66056 0.33875 0.0
H1387 H 0.092 0.59104 0.41057 0.0
H1388 H 0.16151 0.66425 0.38714 0.0
H1389 H 0.09261 0.59998 0.36176 0.0
C1390 C 0.11352 0.61385 0.34057 0.0
C1391 C 0.13644 0.63085 0.33379 0.0
C1392 C 0.14621 0.64825 0.3923 0.0
C1393 C 0.13028 0.62993 0.36598 0.0
C1394 C 0.14455 0.64627 0.40843 0.0
C1395 C 0.12516 0.62549 0.41533 0.0
C1396 C 0.12827 0.62937 0.38308 0.0
C1397 C 0.10734 0.60735 0.40572 0.0
C1398 C 0.11039 0.61328 0.35668 0.0
C1399 C 0.15578 0.64715 0.34349 0.0
N1400 N 0.10936 0.60967 0.3901 0.0
N1401 N 0.15225 0.64629 0.35908 0.0
H1402 H 0.66946 0.84164 0.65983 0.0
H1403 H 0.59487 0.92445 0.58778 0.0
H1404 H 0.59879 0.90718 0.66455 0.0
H1405 H 0.65649 0.85029 0.58327 0.0
H1406 H 0.59644 0.91898 0.61581 0.0
H1407 H 0.66522 0.84497 0.63185 0.0
C1408 C 0.65288 0.85669 0.65498 0.0
C1409 C 0.6344 0.87421 0.66455 0.0
C1410 C 0.60956 0.90382 0.60872 0.0
C1411 C 0.62965 0.87825 0.63237 0.0
C1412 C 0.60874 0.90692 0.59269 0.0
C1413 C 0.62562 0.88775 0.58317 0.0
C1414 C 0.62756 0.88151 0.61534 0.0
C1415 C 0.64319 0.86556 0.59019 0.0
C1416 C 0.65051 0.85855 0.63896 0.0
C1417 C 0.61345 0.89331 0.65758 0.0
N1418 N 0.64378 0.8631 0.60589 0.0
N1419 N 0.61173 0.89494 0.64186 0.0
H1420 H 0.41495 0.40661 0.83369 0.0
H1421 H 0.35592 0.34547 0.91571 0.0
H1422 H 0.34532 0.34009 0.83891 0.0
H1423 H 0.41898 0.41832 0.91071 0.0
H1424 H 0.35483 0.34019 0.88745 0.0
H1425 H 0.42017 0.40825 0.86199 0.0
C1426 C 0.40095 0.39226 0.84078 0.0
C1427 C 0.37962 0.37333 0.83398 0.0
C1428 C 0.36897 0.35727 0.89257 0.0
C1429 C 0.38532 0.37503 0.86619 0.0
C1430 C 0.36956 0.36026 0.90868 0.0
C1431 C 0.38744 0.3824 0.91554 0.0
C1432 C 0.38643 0.37655 0.88332 0.0
C1433 C 0.40479 0.40096 0.9059 0.0
C1434 C 0.40385 0.39321 0.8569 0.0
C1435 C 0.36201 0.35513 0.84366 0.0
N1436 N 0.4038 0.39765 0.89029 0.0
N1437 N 0.36519 0.3565 0.85926 0.0
H1438 H 0.91093 0.10296 0.16619 0.0
H1439 H 0.85007 0.16159 0.08407 0.0
H1440 H 0.8344 0.16135 0.16091 0.0
H1441 H 0.91895 0.09434 0.08935 0.0
H1442 H 0.84698 0.16555 0.11239 0.0
H1443 H 0.91704 0.10271 0.13796 0.0
C1444 C 0.89545 0.11569 0.1591 0.0
C1445 C 0.87213 0.13211 0.16586 0.0
C1446 C 0.86285 0.15003 0.10731 0.0
C1447 C 0.87897 0.13213 0.13371 0.0
C1448 C 0.86465 0.14786 0.09118 0.0
C1449 C 0.88465 0.12754 0.08439 0.0
C1450 C 0.88128 0.13179 0.11661 0.0
C1451 C 0.90309 0.11024 0.09409 0.0
C1452 C 0.89894 0.11561 0.14301 0.0
C1453 C 0.85272 0.14835 0.15617 0.0
N1454 N 0.90089 0.1127 0.10969 0.0
N1455 N 0.85657 0.14794 0.14059 0.0
H1456 H 0.83947 0.66777 0.83889 0.0
H1457 H 0.92023 0.59047 0.91067 0.0
H1458 H 0.91229 0.60464 0.83411 0.0
H1459 H 0.85533 0.66171 0.91548 0.0
H1460 H 0.918 0.59585 0.88271 0.0
H1461 H 0.84538 0.66627 0.86685 0.0
C1462 C 0.85686 0.65364 0.84372 0.0
C1463 C 0.87544 0.63622 0.83415 0.0
C1464 C 0.90434 0.61044 0.88984 0.0
C1465 C 0.88213 0.6343 0.86628 0.0
C1466 C 0.90556 0.60741 0.90585 0.0
C1467 C 0.88785 0.62569 0.91543 0.0
C1468 C 0.88509 0.63176 0.88329 0.0
C1469 C 0.86928 0.64715 0.9085 0.0
C1470 C 0.8602 0.65285 0.85972 0.0
C1471 C 0.89748 0.61835 0.84108 0.0
N1472 N 0.86825 0.6495 0.8928 0.0
N1473 N 0.90013 0.61773 0.85678 0.0
H1474 H 0.15847 0.15999 0.58477 0.0
H1475 H 0.09773 0.10226 0.66709 0.0
H1476 H 0.09255 0.08986 0.59029 0.0
H1477 H 0.17231 0.16315 0.66178 0.0
H1478 H 0.0932 0.09983 0.63881 0.0
H1479 H 0.16172 0.16411 0.61308 0.0
C1480 C 0.14468 0.14555 0.59192 0.0
C1481 C 0.12525 0.12458 0.58519 0.0
C1482 C 0.11055 0.11373 0.64386 0.0
C1483 C 0.12874 0.12912 0.61742 0.0
C1484 C 0.1131 0.11509 0.65998 0.0
C1485 C 0.1354 0.13288 0.66676 0.0
C1486 C 0.13039 0.13037 0.63453 0.0
C1487 C 0.15474 0.14914 0.65703 0.0
C1488 C 0.14653 0.14786 0.60805 0.0
C1489 C 0.10784 0.10638 0.59497 0.0
N1490 N 0.15178 0.14751 0.64142 0.0
N1491 N 0.10999 0.10908 0.61057 0.0
H1492 H 0.65386 0.34391 0.41555 0.0
H1493 H 0.59555 0.40636 0.33366 0.0
H1494 H 0.58967 0.41578 0.41075 0.0
H1495 H 0.66697 0.34179 0.33882 0.0
H1496 H 0.58959 0.40697 0.36194 0.0
H1497 H 0.65566 0.33951 0.38725 0.0
C1498 C 0.64009 0.35864 0.40855 0.0
C1499 C 0.62172 0.38029 0.41548 0.0
C1500 C 0.60648 0.39259 0.35683 0.0
C1501 C 0.62358 0.37547 0.38323 0.0
C1502 C 0.60982 0.39225 0.34072 0.0
C1503 C 0.63183 0.37413 0.33392 0.0
C1504 C 0.62524 0.37463 0.3661 0.0
C1505 C 0.64975 0.35619 0.34357 0.0
C1506 C 0.6411 0.35617 0.39242 0.0
C1507 C 0.60424 0.3988 0.40589 0.0
N1508 N 0.6461 0.35695 0.35916 0.0
N1509 N 0.60566 0.39602 0.39026 0.0
H1510 H 0.35256 0.84384 0.08399 0.0
H1511 H 0.41215 0.90535 0.16583 0.0
H1512 H 0.4205 0.91216 0.08897 0.0
H1513 H 0.33904 0.84258 0.16095 0.0
H1514 H 0.41825 0.90527 0.13761 0.0
H1515 H 0.35001 0.83982 0.11232 0.0
C1516 C 0.36704 0.8578 0.09103 0.0
C1517 C 0.38662 0.87843 0.08415 0.0
C1518 C 0.40093 0.89145 0.14274 0.0
C1519 C 0.38386 0.8741 0.11641 0.0
C1520 C 0.39747 0.89154 0.15883 0.0
C1521 C 0.37503 0.87407 0.16571 0.0
C1522 C 0.38181 0.87374 0.13353 0.0
C1523 C 0.35663 0.85646 0.15613 0.0
C1524 C 0.36556 0.85558 0.10717 0.0
C1525 C 0.40495 0.89601 0.09378 0.0
N1526 N 0.36038 0.8568 0.14053 0.0
N1527 N 0.40305 0.89351 0.1094 0.0
H1528 H 0.84006 0.34107 0.66059 0.0
H1529 H 0.91758 0.42189 0.58868 0.0
H1530 H 0.91106 0.40623 0.66549 0.0
H1531 H 0.85338 0.34995 0.5841 0.0
H1532 H 0.91585 0.41631 0.61672 0.0
H1533 H 0.84511 0.34385 0.63262 0.0
C1534 C 0.85687 0.35592 0.65578 0.0
C1535 C 0.87519 0.37352 0.6654 0.0
C1536 C 0.90222 0.40165 0.60961 0.0
C1537 C 0.88089 0.37692 0.63324 0.0
C1538 C 0.90314 0.40482 0.59357 0.0
C1539 C 0.88551 0.38635 0.58404 0.0
C1540 C 0.88338 0.37999 0.61621 0.0
C1541 C 0.86727 0.36467 0.59103 0.0
C1542 C 0.85971 0.35747 0.63977 0.0
C1543 C 0.89648 0.39234 0.65849 0.0
N1544 N 0.86658 0.36216 0.60673 0.0
N1545 N 0.89867 0.39366 0.64277 0.0
H1546 H 0.4121 0.10323 0.33331 0.0
H1547 H 0.35144 0.16177 0.41552 0.0
H1548 H 0.34181 0.16897 0.33877 0.0
H1549 H 0.41448 0.089 0.41034 0.0
H1550 H 0.35033 0.1673 0.38728 0.0
H1551 H 0.41616 0.10003 0.36164 0.0
C1552 C 0.39764 0.11702 0.34045 0.0
C1553 C 0.3766 0.13632 0.33371 0.0
C1554 C 0.36446 0.15016 0.39235 0.0
C1555 C 0.38105 0.13289 0.36594 0.0
C1556 C 0.36507 0.14705 0.40845 0.0
C1557 C 0.38298 0.12488 0.41525 0.0
C1558 C 0.38193 0.13099 0.38305 0.0
C1559 C 0.40029 0.10639 0.40558 0.0
C1560 C 0.39992 0.1152 0.35659 0.0
C1561 C 0.35838 0.15375 0.34347 0.0
N1562 N 0.39931 0.10983 0.38997 0.0
N1563 N 0.36101 0.15159 0.35906 0.0
H1564 H 0.59375 0.60599 0.16545 0.0
H1565 H 0.6527 0.66563 0.08312 0.0
H1566 H 0.66264 0.67315 0.1597 0.0
H1567 H 0.58925 0.5932 0.08844 0.0
H1568 H 0.6531 0.67196 0.11133 0.0
H1569 H 0.5881 0.60401 0.13715 0.0
C1570 C 0.60749 0.62041 0.15826 0.0
C1571 C 0.62874 0.63962 0.1649 0.0
C1572 C 0.63898 0.65477 0.10629 0.0
C1573 C 0.62253 0.63755 0.13272 0.0
C1574 C 0.63877 0.65121 0.09021 0.0
C1575 C 0.62108 0.6288 0.08347 0.0
C1576 C 0.62137 0.63577 0.11562 0.0
C1577 C 0.60335 0.61072 0.09316 0.0
C1578 C 0.60432 0.61928 0.14214 0.0
C1579 C 0.646 0.6579 0.15509 0.0
N1580 N 0.60403 0.61452 0.10874 0.0
N1581 N 0.64258 0.65633 0.13952 0.0
H1582 H 0.17016 0.84251 0.83874 0.0
H1583 H 0.09129 0.92081 0.91094 0.0
H1584 H 0.09766 0.9061 0.83443 0.0
H1585 H 0.15516 0.84862 0.91564 0.0
H1586 H 0.09367 0.91576 0.88297 0.0
H1587 H 0.16531 0.84458 0.86681 0.0
C1588 C 0.15311 0.85689 0.8437 0.0
C1589 C 0.13425 0.87423 0.83424 0.0
C1590 C 0.10709 0.90089 0.89007 0.0
C1591 C 0.12874 0.87676 0.86643 0.0
C1592 C 0.10578 0.90374 0.90609 0.0
C1593 C 0.12311 0.88506 0.91565 0.0
C1594 C 0.12604 0.87936 0.88347 0.0
C1595 C 0.14148 0.86347 0.90867 0.0
C1596 C 0.15037 0.858 0.85975 0.0
C1597 C 0.11266 0.89243 0.84132 0.0
N1598 N 0.14258 0.86128 0.89295 0.0
N1599 N 0.11056 0.89331 0.85703 0.0
loop_
_geom_bond_atom_site_label_1
_geom_bond_atom_site_label_2
_geom_bond_distance
_geom_bond_site_symmetry_2
_ccdc_geom_bond_type
Co0 O1 2.216 . S
Co0 O2 2.091 . S
Co0 O4 2.004 . S
Co0 O10 2.021 . S
Co0 O12 2.137 . S
Co0 O13 2.244 . S
O1 Co0 2.216 . S
O1 C8 1.247 . S
O2 Co0 2.091 . S
O2 C8 1.261 . S
C3 O12 1.247 . S
C3 O13 1.272 . S
O4 Co0 2.004 . S
O4 C9 1.259 . S
Co5 O6 2.061 . S
Co5 O11 2.052 . S
Co5 O13 2.135 . S
O6 Co5 2.061 . S
O6 C9 1.235 . S
C7 O10 1.238 . S
C7 O11 1.241 . S
C8 O1 1.247 . S
C8 O2 1.261 . S
C9 O4 1.259 . S
C9 O6 1.235 . S
O10 Co0 2.021 . S
O10 C7 1.238 . S
O11 Co5 2.052 . S
O11 C7 1.241 . S
O12 Co0 2.137 . S
O12 C3 1.247 . S
O13 Co0 2.244 . S
O13 C3 1.272 . S
O13 Co5 2.135 . S
Co14 O15 2.216 . S
Co14 O16 2.091 . S
Co14 O18 2.004 . S
Co14 O24 2.021 . S
Co14 O26 2.137 . S
Co14 O27 2.244 . S
O15 Co14 2.216 . S
O15 C22 1.247 . S
O16 Co14 2.091 . S
O16 C22 1.261 . S
C17 O26 1.247 . S
C17 O27 1.272 . S
O18 Co14 2.004 . S
O18 C23 1.259 . S
Co19 O20 2.061 . S
Co19 O25 2.052 . S
Co19 O27 2.135 . S
O20 Co19 2.061 . S
O20 C23 1.235 . S
C21 O24 1.238 . S
C21 O25 1.241 . S
C22 O15 1.247 . S
C22 O16 1.261 . S
C23 O18 1.259 . S
C23 O20 1.235 . S
O24 Co14 2.021 . S
O24 C21 1.238 . S
O25 Co19 2.052 . S
O25 C21 1.241 . S
O26 Co14 2.137 . S
O26 C17 1.247 . S
O27 Co14 2.244 . S
O27 C17 1.272 . S
O27 Co19 2.135 . S
Co28 O29 2.216 . S
Co28 O30 2.091 . S
Co28 O32 2.004 . S
Co28 O38 2.021 . S
Co28 O40 2.137 . S
Co28 O41 2.244 . S
O29 Co28 2.216 . S
O29 C36 1.247 . S
O30 Co28 2.091 . S
O30 C36 1.261 . S
C31 O40 1.247 . S
C31 O41 1.272 . S
O32 Co28 2.004 . S
O32 C37 1.259 . S
Co33 O34 2.061 . S
Co33 O39 2.052 . S
Co33 O41 2.135 . S
O34 Co33 2.061 . S
O34 C37 1.235 . S
C35 O38 1.238 . S
C35 O39 1.241 . S
C36 O29 1.247 . S
C36 O30 1.261 . S
C37 O32 1.259 . S
C37 O34 1.235 . S
O38 Co28 2.021 . S
O38 C35 1.238 . S
O39 Co33 2.052 . S
O39 C35 1.241 . S
O40 Co28 2.137 . S
O40 C31 1.247 . S
O41 Co28 2.244 . S
O41 C31 1.272 . S
O41 Co33 2.135 . S
Co42 O43 2.216 . S
Co42 O44 2.091 . S
Co42 O46 2.004 . S
Co42 O52 2.021 . S
Co42 O54 2.137 . S
Co42 O55 2.244 . S
O43 Co42 2.216 . S
O43 C50 1.247 . S
O44 Co42 2.091 . S
O44 C50 1.261 . S
C45 O54 1.247 . S
C45 O55 1.272 . S
O46 Co42 2.004 . S
O46 C51 1.259 . S
Co47 O48 2.061 . S
Co47 O53 2.052 . S
Co47 O55 2.135 . S
O48 Co47 2.061 . S
O48 C51 1.235 . S
C49 O52 1.238 . S
C49 O53 1.241 . S
C50 O43 1.247 . S
C50 O44 1.261 . S
C51 O46 1.259 . S
C51 O48 1.235 . S
O52 Co42 2.021 . S
O52 C49 1.238 . S
O53 Co47 2.052 . S
O53 C49 1.241 . S
O54 Co42 2.137 . S
O54 C45 1.247 . S
O55 Co42 2.244 . S
O55 C45 1.272 . S
O55 Co47 2.135 . S
Co56 O57 2.216 . S
Co56 O58 2.091 . S
Co56 O60 2.004 . S
Co56 O66 2.021 . S
Co56 O68 2.137 . S
Co56 O69 2.244 . S
O57 Co56 2.216 . S
O57 C64 1.247 . S
O58 Co56 2.091 . S
O58 C64 1.261 . S
C59 O68 1.247 . S
C59 O69 1.272 . S
O60 Co56 2.004 . S
O60 C65 1.259 . S
Co61 O62 2.061 . S
Co61 O67 2.052 . S
Co61 O69 2.135 . S
O62 Co61 2.061 . S
O62 C65 1.235 . S
C63 O66 1.238 . S
C63 O67 1.241 . S
C64 O57 1.247 . S
C64 O58 1.261 . S
C65 O60 1.259 . S
C65 O62 1.235 . S
O66 Co56 2.021 . S
O66 C63 1.238 . S
O67 Co61 2.052 . S
O67 C63 1.241 . S
O68 Co56 2.137 . S
O68 C59 1.247 . S
O69 Co56 2.244 . S
O69 C59 1.272 . S
O69 Co61 2.135 . S
Co70 O71 2.216 . S
Co70 O72 2.091 . S
Co70 O74 2.004 . S
Co70 O80 2.021 . S
Co70 O82 2.137 . S
Co70 O83 2.244 . S
O71 Co70 2.216 . S
O71 C78 1.247 . S
O72 Co70 2.091 . S
O72 C78 1.261 . S
C73 O82 1.247 . S
C73 O83 1.272 . S
O74 Co70 2.004 . S
O74 C79 1.259 . S
Co75 O76 2.061 . S
Co75 O81 2.052 . S
Co75 O83 2.135 . S
O76 Co75 2.061 . S
O76 C79 1.235 . S
C77 O80 1.238 . S
C77 O81 1.241 . S
C78 O71 1.247 . S
C78 O72 1.261 . S
C79 O74 1.259 . S
C79 O76 1.235 . S
O80 Co70 2.021 . S
O80 C77 1.238 . S
O81 Co75 2.052 . S
O81 C77 1.241 . S
O82 Co70 2.137 . S
O82 C73 1.247 . S
O83 Co70 2.244 . S
O83 C73 1.272 . S
O83 Co75 2.135 . S
Co84 O85 2.216 . S
Co84 O86 2.091 . S
Co84 O88 2.004 . S
Co84 O94 2.021 . S
Co84 O96 2.137 . S
Co84 O97 2.244 . S
O85 Co84 2.216 . S
O85 C92 1.247 . S
O86 Co84 2.091 . S
O86 C92 1.261 . S
C87 O96 1.247 . S
C87 O97 1.272 . S
O88 Co84 2.004 . S
O88 C93 1.259 . S
Co89 O90 2.061 . S
Co89 O95 2.052 . S
Co89 O97 2.135 . S
O90 Co89 2.061 . S
O90 C93 1.235 . S
C91 O94 1.238 . S
C91 O95 1.241 . S
C92 O85 1.247 . S
C92 O86 1.261 . S
C93 O88 1.259 . S
C93 O90 1.235 . S
O94 Co84 2.021 . S
O94 C91 1.238 . S
O95 Co89 2.052 . S
O95 C91 1.241 . S
O96 Co84 2.137 . S
O96 C87 1.247 . S
O97 Co84 2.244 . S
O97 C87 1.272 . S
O97 Co89 2.135 . S
Co98 O99 2.216 . S
Co98 O100 2.091 . S
Co98 O102 2.004 . S
Co98 O108 2.021 . S
Co98 O110 2.137 . S
Co98 O111 2.244 . S
O99 Co98 2.216 . S
O99 C106 1.247 . S
O100 Co98 2.091 . S
O100 C106 1.261 . S
C101 O110 1.247 . S
C101 O111 1.272 . S
O102 Co98 2.004 . S
O102 C107 1.259 . S
Co103 O104 2.061 . S
Co103 O109 2.052 . S
Co103 O111 2.135 . S
O104 Co103 2.061 . S
O104 C107 1.235 . S
C105 O108 1.238 . S
C105 O109 1.241 . S
C106 O99 1.247 . S
C106 O100 1.261 . S
C107 O102 1.259 . S
C107 O104 1.235 . S
O108 Co98 2.021 . S
O108 C105 1.238 . S
O109 Co103 2.052 . S
O109 C105 1.241 . S
O110 Co98 2.137 . S
O110 C101 1.247 . S
O111 Co98 2.244 . S
O111 C101 1.272 . S
O111 Co103 2.135 . S
Co112 O113 2.216 . S
Co112 O114 2.091 . S
Co112 O116 2.004 . S
Co112 O122 2.021 . S
Co112 O124 2.137 . S
Co112 O125 2.244 . S
O113 Co112 2.216 . S
O113 C120 1.247 . S
O114 Co112 2.091 . S
O114 C120 1.261 . S
C115 O124 1.247 . S
C115 O125 1.272 . S
O116 Co112 2.004 . S
O116 C121 1.259 . S
Co117 O118 2.061 . S
Co117 O123 2.052 . S
Co117 O125 2.135 . S
O118 Co117 2.061 . S
O118 C121 1.235 . S
C119 O122 1.238 . S
C119 O123 1.241 . S
C120 O113 1.247 . S
C120 O114 1.261 . S
C121 O116 1.259 . S
C121 O118 1.235 . S
O122 Co112 2.021 . S
O122 C119 1.238 . S
O123 Co117 2.052 . S
O123 C119 1.241 . S
O124 Co112 2.137 . S
O124 C115 1.247 . S
O125 Co112 2.244 . S
O125 C115 1.272 . S
O125 Co117 2.135 . S
Co126 O127 2.216 . S
Co126 O128 2.091 . S
Co126 O130 2.004 . S
Co126 O136 2.021 . S
Co126 O138 2.137 . S
Co126 O139 2.244 . S
O127 Co126 2.216 . S
O127 C134 1.247 . S
O128 Co126 2.091 . S
O128 C134 1.261 . S
C129 O138 1.247 . S
C129 O139 1.272 . S
O130 Co126 2.004 . S
O130 C135 1.259 . S
Co131 O132 2.061 . S
Co131 O137 2.052 . S
Co131 O139 2.135 . S
O132 Co131 2.061 . S
O132 C135 1.235 . S
C133 O136 1.238 . S
C133 O137 1.241 . S
C134 O127 1.247 . S
C134 O128 1.261 . S
C135 O130 1.259 . S
C135 O132 1.235 . S
O136 Co126 2.021 . S
O136 C133 1.238 . S
O137 Co131 2.052 . S
O137 C133 1.241 . S
O138 Co126 2.137 . S
O138 C129 1.247 . S
O139 Co126 2.244 . S
O139 C129 1.272 . S
O139 Co131 2.135 . S
Co140 O141 2.216 . S
Co140 O142 2.091 . S
Co140 O144 2.004 . S
Co140 O150 2.021 . S
Co140 O152 2.137 . S
Co140 O153 2.244 . S
O141 Co140 2.216 . S
O141 C148 1.247 . S
O142 Co140 2.091 . S
O142 C148 1.261 . S
C143 O152 1.247 . S
C143 O153 1.272 . S
O144 Co140 2.004 . S
O144 C149 1.259 . S
Co145 O146 2.061 . S
Co145 O151 2.052 . S
Co145 O153 2.135 . S
O146 Co145 2.061 . S
O146 C149 1.235 . S
C147 O150 1.238 . S
C147 O151 1.241 . S
C148 O141 1.247 . S
C148 O142 1.261 . S
C149 O144 1.259 . S
C149 O146 1.235 . S
O150 Co140 2.021 . S
O150 C147 1.238 . S
O151 Co145 2.052 . S
O151 C147 1.241 . S
O152 Co140 2.137 . S
O152 C143 1.247 . S
O153 Co140 2.244 . S
O153 C143 1.272 . S
O153 Co145 2.135 . S
Co154 O155 2.216 . S
Co154 O156 2.091 . S
Co154 O158 2.004 . S
Co154 O164 2.021 . S
Co154 O166 2.137 . S
Co154 O167 2.244 . S
O155 Co154 2.216 . S
O155 C162 1.247 . S
O156 Co154 2.091 . S
O156 C162 1.261 . S
C157 O166 1.247 . S
C157 O167 1.272 . S
O158 Co154 2.004 . S
O158 C163 1.259 . S
Co159 O160 2.061 . S
Co159 O165 2.052 . S
Co159 O167 2.135 . S
O160 Co159 2.061 . S
O160 C163 1.235 . S
C161 O164 1.238 . S
C161 O165 1.241 . S
C162 O155 1.247 . S
C162 O156 1.261 . S
C163 O158 1.259 . S
C163 O160 1.235 . S
O164 Co154 2.021 . S
O164 C161 1.238 . S
O165 Co159 2.052 . S
O165 C161 1.241 . S
O166 Co154 2.137 . S
O166 C157 1.247 . S
O167 Co154 2.244 . S
O167 C157 1.272 . S
O167 Co159 2.135 . S
Co168 O169 2.216 . S
Co168 O170 2.091 . S
Co168 O172 2.004 . S
Co168 O178 2.021 . S
Co168 O180 2.137 . S
Co168 O181 2.244 . S
O169 Co168 2.216 . S
O169 C176 1.247 . S
O170 Co168 2.091 . S
O170 C176 1.261 . S
C171 O180 1.247 . S
C171 O181 1.272 . S
O172 Co168 2.004 . S
O172 C177 1.259 . S
Co173 O174 2.061 . S
Co173 O179 2.052 . S
Co173 O181 2.135 . S
O174 Co173 2.061 . S
O174 C177 1.235 . S
C175 O178 1.238 . S
C175 O179 1.241 . S
C176 O169 1.247 . S
C176 O170 1.261 . S
C177 O172 1.259 . S
C177 O174 1.235 . S
O178 Co168 2.021 . S
O178 C175 1.238 . S
O179 Co173 2.052 . S
O179 C175 1.241 . S
O180 Co168 2.137 . S
O180 C171 1.247 . S
O181 Co168 2.244 . S
O181 C171 1.272 . S
O181 Co173 2.135 . S
Co182 O183 2.216 . S
Co182 O184 2.091 . S
Co182 O186 2.004 . S
Co182 O192 2.021 . S
Co182 O194 2.137 . S
Co182 O195 2.244 . S
O183 Co182 2.216 . S
O183 C190 1.247 . S
O184 Co182 2.091 . S
O184 C190 1.261 . S
C185 O194 1.247 . S
C185 O195 1.272 . S
O186 Co182 2.004 . S
O186 C191 1.259 . S
Co187 O188 2.061 . S
Co187 O193 2.052 . S
Co187 O195 2.135 . S
O188 Co187 2.061 . S
O188 C191 1.235 . S
C189 O192 1.238 . S
C189 O193 1.241 . S
C190 O183 1.247 . S
C190 O184 1.261 . S
C191 O186 1.259 . S
C191 O188 1.235 . S
O192 Co182 2.021 . S
O192 C189 1.238 . S
O193 Co187 2.052 . S
O193 C189 1.241 . S
O194 Co182 2.137 . S
O194 C185 1.247 . S
O195 Co182 2.244 . S
O195 C185 1.272 . S
O195 Co187 2.135 . S
Co196 O197 2.216 . S
Co196 O198 2.091 . S
Co196 O200 2.004 . S
Co196 O206 2.021 . S
Co196 O208 2.137 . S
Co196 O209 2.244 . S
O197 Co196 2.216 . S
O197 C204 1.247 . S
O198 Co196 2.091 . S
O198 C204 1.261 . S
C199 O208 1.247 . S
C199 O209 1.272 . S
O200 Co196 2.004 . S
O200 C205 1.259 . S
Co201 O202 2.061 . S
Co201 O207 2.052 . S
Co201 O209 2.135 . S
O202 Co201 2.061 . S
O202 C205 1.235 . S
C203 O206 1.238 . S
C203 O207 1.241 . S
C204 O197 1.247 . S
C204 O198 1.261 . S
C205 O200 1.259 . S
C205 O202 1.235 . S
O206 Co196 2.021 . S
O206 C203 1.238 . S
O207 Co201 2.052 . S
O207 C203 1.241 . S
O208 Co196 2.137 . S
O208 C199 1.247 . S
O209 Co196 2.244 . S
O209 C199 1.272 . S
O209 Co201 2.135 . S
Co210 O211 2.216 . S
Co210 O212 2.091 . S
Co210 O214 2.004 . S
Co210 O220 2.021 . S
Co210 O222 2.137 . S
Co210 O223 2.244 . S
O211 Co210 2.216 . S
O211 C218 1.247 . S
O212 Co210 2.091 . S
O212 C218 1.261 . S
C213 O222 1.247 . S
C213 O223 1.272 . S
O214 Co210 2.004 . S
O214 C219 1.259 . S
Co215 O216 2.061 . S
Co215 O221 2.052 . S
Co215 O223 2.135 . S
O216 Co215 2.061 . S
O216 C219 1.235 . S
C217 O220 1.238 . S
C217 O221 1.241 . S
C218 O211 1.247 . S
C218 O212 1.261 . S
C219 O214 1.259 . S
C219 O216 1.235 . S
O220 Co210 2.021 . S
O220 C217 1.238 . S
O221 Co215 2.052 . S
O221 C217 1.241 . S
O222 Co210 2.137 . S
O222 C213 1.247 . S
O223 Co210 2.244 . S
O223 C213 1.272 . S
O223 Co215 2.135 . S
Co224 O225 2.216 . S
Co224 O226 2.091 . S
Co224 O228 2.004 . S
Co224 O234 2.021 . S
Co224 O236 2.137 . S
Co224 O237 2.244 . S
O225 Co224 2.216 . S
O225 C232 1.247 . S
O226 Co224 2.091 . S
O226 C232 1.261 . S
C227 O236 1.247 . S
C227 O237 1.272 . S
O228 Co224 2.004 . S
O228 C233 1.259 . S
Co229 O230 2.061 . S
Co229 O235 2.052 . S
Co229 O237 2.135 . S
O230 Co229 2.061 . S
O230 C233 1.235 . S
C231 O234 1.238 . S
C231 O235 1.241 . S
C232 O225 1.247 . S
C232 O226 1.261 . S
C233 O228 1.259 . S
C233 O230 1.235 . S
O234 Co224 2.021 . S
O234 C231 1.238 . S
O235 Co229 2.052 . S
O235 C231 1.241 . S
O236 Co224 2.137 . S
O236 C227 1.247 . S
O237 Co224 2.244 . S
O237 C227 1.272 . S
O237 Co229 2.135 . S
Co238 O239 2.216 . S
Co238 O240 2.091 . S
Co238 O242 2.004 . S
Co238 O248 2.021 . S
Co238 O250 2.137 . S
Co238 O251 2.244 . S
O239 Co238 2.216 . S
O239 C246 1.247 . S
O240 Co238 2.091 . S
O240 C246 1.261 . S
C241 O250 1.247 . S
C241 O251 1.272 . S
O242 Co238 2.004 . S
O242 C247 1.259 . S
Co243 O244 2.061 . S
Co243 O249 2.052 . S
Co243 O251 2.135 . S
O244 Co243 2.061 . S
O244 C247 1.235 . S
C245 O248 1.238 . S
C245 O249 1.241 . S
C246 O239 1.247 . S
C246 O240 1.261 . S
C247 O242 1.259 . S
C247 O244 1.235 . S
O248 Co238 2.021 . S
O248 C245 1.238 . S
O249 Co243 2.052 . S
O249 C245 1.241 . S
O250 Co238 2.137 . S
O250 C241 1.247 . S
O251 Co238 2.244 . S
O251 C241 1.272 . S
O251 Co243 2.135 . S
Co252 O253 2.216 . S
Co252 O254 2.091 . S
Co252 O256 2.004 . S
Co252 O262 2.021 . S
Co252 O264 2.137 . S
Co252 O265 2.244 . S
O253 Co252 2.216 . S
O253 C260 1.247 . S
O254 Co252 2.091 . S
O254 C260 1.261 . S
C255 O264 1.247 . S
C255 O265 1.272 . S
O256 Co252 2.004 . S
O256 C261 1.259 . S
Co257 O258 2.061 . S
Co257 O263 2.052 . S
Co257 O265 2.135 . S
O258 Co257 2.061 . S
O258 C261 1.235 . S
C259 O262 1.238 . S
C259 O263 1.241 . S
C260 O253 1.247 . S
C260 O254 1.261 . S
C261 O256 1.259 . S
C261 O258 1.235 . S
O262 Co252 2.021 . S
O262 C259 1.238 . S
O263 Co257 2.052 . S
O263 C259 1.241 . S
O264 Co252 2.137 . S
O264 C255 1.247 . S
O265 Co252 2.244 . S
O265 C255 1.272 . S
O265 Co257 2.135 . S
Co266 O267 2.216 . S
Co266 O268 2.091 . S
Co266 O270 2.004 . S
Co266 O276 2.021 . S
Co266 O278 2.137 . S
Co266 O279 2.244 . S
O267 Co266 2.216 . S
O267 C274 1.247 . S
O268 Co266 2.091 . S
O268 C274 1.261 . S
C269 O278 1.247 . S
C269 O279 1.272 . S
O270 Co266 2.004 . S
O270 C275 1.259 . S
Co271 O272 2.061 . S
Co271 O277 2.052 . S
Co271 O279 2.135 . S
O272 Co271 2.061 . S
O272 C275 1.235 . S
C273 O276 1.238 . S
C273 O277 1.241 . S
C274 O267 1.247 . S
C274 O268 1.261 . S
C275 O270 1.259 . S
C275 O272 1.235 . S
O276 Co266 2.021 . S
O276 C273 1.238 . S
O277 Co271 2.052 . S
O277 C273 1.241 . S
O278 Co266 2.137 . S
O278 C269 1.247 . S
O279 Co266 2.244 . S
O279 C269 1.272 . S
O279 Co271 2.135 . S
Co280 O281 2.216 . S
Co280 O282 2.091 . S
Co280 O284 2.004 . S
Co280 O290 2.021 . S
Co280 O292 2.137 . S
Co280 O293 2.244 . S
O281 Co280 2.216 . S
O281 C288 1.247 . S
O282 Co280 2.091 . S
O282 C288 1.261 . S
C283 O292 1.247 . S
C283 O293 1.272 . S
O284 Co280 2.004 . S
O284 C289 1.259 . S
Co285 O286 2.061 . S
Co285 O291 2.052 . S
Co285 O293 2.135 . S
O286 Co285 2.061 . S
O286 C289 1.235 . S
C287 O290 1.238 . S
C287 O291 1.241 . S
C288 O281 1.247 . S
C288 O282 1.261 . S
C289 O284 1.259 . S
C289 O286 1.235 . S
O290 Co280 2.021 . S
O290 C287 1.238 . S
O291 Co285 2.052 . S
O291 C287 1.241 . S
O292 Co280 2.137 . S
O292 C283 1.247 . S
O293 Co280 2.244 . S
O293 C283 1.272 . S
O293 Co285 2.135 . S
Co294 O295 2.216 . S
Co294 O296 2.091 . S
Co294 O298 2.004 . S
Co294 O304 2.021 . S
Co294 O306 2.137 . S
Co294 O307 2.244 . S
O295 Co294 2.216 . S
O295 C302 1.247 . S
O296 Co294 2.091 . S
O296 C302 1.261 . S
C297 O306 1.247 . S
C297 O307 1.272 . S
O298 Co294 2.004 . S
O298 C303 1.259 . S
Co299 O300 2.061 . S
Co299 O305 2.052 . S
Co299 O307 2.135 . S
O300 Co299 2.061 . S
O300 C303 1.235 . S
C301 O304 1.238 . S
C301 O305 1.241 . S
C302 O295 1.247 . S
C302 O296 1.261 . S
C303 O298 1.259 . S
C303 O300 1.235 . S
O304 Co294 2.021 . S
O304 C301 1.238 . S
O305 Co299 2.052 . S
O305 C301 1.241 . S
O306 Co294 2.137 . S
O306 C297 1.247 . S
O307 Co294 2.244 . S
O307 C297 1.272 . S
O307 Co299 2.135 . S
Co308 O309 2.216 . S
Co308 O310 2.091 . S
Co308 O312 2.004 . S
Co308 O318 2.021 . S
Co308 O320 2.137 . S
Co308 O321 2.244 . S
O309 Co308 2.216 . S
O309 C316 1.247 . S
O310 Co308 2.091 . S
O310 C316 1.261 . S
C311 O320 1.247 . S
C311 O321 1.272 . S
O312 Co308 2.004 . S
O312 C317 1.259 . S
Co313 O314 2.061 . S
Co313 O319 2.052 . S
Co313 O321 2.135 . S
O314 Co313 2.061 . S
O314 C317 1.235 . S
C315 O318 1.238 . S
C315 O319 1.241 . S
C316 O309 1.247 . S
C316 O310 1.261 . S
C317 O312 1.259 . S
C317 O314 1.235 . S
O318 Co308 2.021 . S
O318 C315 1.238 . S
O319 Co313 2.052 . S
O319 C315 1.241 . S
O320 Co308 2.137 . S
O320 C311 1.247 . S
O321 Co308 2.244 . S
O321 C311 1.272 . S
O321 Co313 2.135 . S
Co322 O323 2.216 . S
Co322 O324 2.091 . S
Co322 O326 2.004 . S
Co322 O332 2.021 . S
Co322 O334 2.137 . S
Co322 O335 2.244 . S
O323 Co322 2.216 . S
O323 C330 1.247 . S
O324 Co322 2.091 . S
O324 C330 1.261 . S
C325 O334 1.247 . S
C325 O335 1.272 . S
O326 Co322 2.004 . S
O326 C331 1.259 . S
Co327 O328 2.061 . S
Co327 O333 2.052 . S
Co327 O335 2.135 . S
O328 Co327 2.061 . S
O328 C331 1.235 . S
C329 O332 1.238 . S
C329 O333 1.241 . S
C330 O323 1.247 . S
C330 O324 1.261 . S
C331 O326 1.259 . S
C331 O328 1.235 . S
O332 Co322 2.021 . S
O332 C329 1.238 . S
O333 Co327 2.052 . S
O333 C329 1.241 . S
O334 Co322 2.137 . S
O334 C325 1.247 . S
O335 Co322 2.244 . S
O335 C325 1.272 . S
O335 Co327 2.135 . S
Co336 O337 2.216 . S
Co336 O338 2.091 . S
Co336 O340 2.004 . S
Co336 O346 2.021 . S
Co336 O348 2.137 . S
Co336 O349 2.244 . S
O337 Co336 2.216 . S
O337 C344 1.247 . S
O338 Co336 2.091 . S
O338 C344 1.261 . S
C339 O348 1.247 . S
C339 O349 1.272 . S
O340 Co336 2.004 . S
O340 C345 1.259 . S
Co341 O342 2.061 . S
Co341 O347 2.052 . S
Co341 O349 2.135 . S
O342 Co341 2.061 . S
O342 C345 1.235 . S
C343 O346 1.238 . S
C343 O347 1.241 . S
C344 O337 1.247 . S
C344 O338 1.261 . S
C345 O340 1.259 . S
C345 O342 1.235 . S
O346 Co336 2.021 . S
O346 C343 1.238 . S
O347 Co341 2.052 . S
O347 C343 1.241 . S
O348 Co336 2.137 . S
O348 C339 1.247 . S
O349 Co336 2.244 . S
O349 C339 1.272 . S
O349 Co341 2.135 . S
Co350 O351 2.216 . S
Co350 O352 2.091 . S
Co350 O354 2.004 . S
Co350 O360 2.021 . S
Co350 O362 2.137 . S
Co350 O363 2.244 . S
O351 Co350 2.216 . S
O351 C358 1.247 . S
O352 Co350 2.091 . S
O352 C358 1.261 . S
C353 O362 1.247 . S
C353 O363 1.272 . S
O354 Co350 2.004 . S
O354 C359 1.259 . S
Co355 O356 2.061 . S
Co355 O361 2.052 . S
Co355 O363 2.135 . S
O356 Co355 2.061 . S
O356 C359 1.235 . S
C357 O360 1.238 . S
C357 O361 1.241 . S
C358 O351 1.247 . S
C358 O352 1.261 . S
C359 O354 1.259 . S
C359 O356 1.235 . S
O360 Co350 2.021 . S
O360 C357 1.238 . S
O361 Co355 2.052 . S
O361 C357 1.241 . S
O362 Co350 2.137 . S
O362 C353 1.247 . S
O363 Co350 2.244 . S
O363 C353 1.272 . S
O363 Co355 2.135 . S
Co364 O365 2.216 . S
Co364 O366 2.091 . S
Co364 O368 2.004 . S
Co364 O374 2.021 . S
Co364 O376 2.137 . S
Co364 O377 2.244 . S
O365 Co364 2.216 . S
O365 C372 1.247 . S
O366 Co364 2.091 . S
O366 C372 1.261 . S
C367 O376 1.247 . S
C367 O377 1.272 . S
O368 Co364 2.004 . S
O368 C373 1.259 . S
Co369 O370 2.061 . S
Co369 O375 2.052 . S
Co369 O377 2.135 . S
O370 Co369 2.061 . S
O370 C373 1.235 . S
C371 O374 1.238 . S
C371 O375 1.241 . S
C372 O365 1.247 . S
C372 O366 1.261 . S
C373 O368 1.259 . S
C373 O370 1.235 . S
O374 Co364 2.021 . S
O374 C371 1.238 . S
O375 Co369 2.052 . S
O375 C371 1.241 . S
O376 Co364 2.137 . S
O376 C367 1.247 . S
O377 Co364 2.244 . S
O377 C367 1.272 . S
O377 Co369 2.135 . S
Co378 O379 2.216 . S
Co378 O380 2.091 . S
Co378 O382 2.004 . S
Co378 O388 2.021 . S
Co378 O390 2.137 . S
Co378 O391 2.244 . S
O379 Co378 2.216 . S
O379 C386 1.247 . S
O380 Co378 2.091 . S
O380 C386 1.261 . S
C381 O390 1.247 . S
C381 O391 1.272 . S
O382 Co378 2.004 . S
O382 C387 1.259 . S
Co383 O384 2.061 . S
Co383 O389 2.052 . S
Co383 O391 2.135 . S
O384 Co383 2.061 . S
O384 C387 1.235 . S
C385 O388 1.238 . S
C385 O389 1.241 . S
C386 O379 1.247 . S
C386 O380 1.261 . S
C387 O382 1.259 . S
C387 O384 1.235 . S
O388 Co378 2.021 . S
O388 C385 1.238 . S
O389 Co383 2.052 . S
O389 C385 1.241 . S
O390 Co378 2.137 . S
O390 C381 1.247 . S
O391 Co378 2.244 . S
O391 C381 1.272 . S
O391 Co383 2.135 . S
Co392 O393 2.216 . S
Co392 O394 2.091 . S
Co392 O396 2.004 . S
Co392 O402 2.021 . S
Co392 O404 2.137 . S
Co392 O405 2.244 . S
O393 Co392 2.216 . S
O393 C400 1.247 . S
O394 Co392 2.091 . S
O394 C400 1.261 . S
C395 O404 1.247 . S
C395 O405 1.272 . S
O396 Co392 2.004 . S
O396 C401 1.259 . S
Co397 O398 2.061 . S
Co397 O403 2.052 . S
Co397 O405 2.135 . S
O398 Co397 2.061 . S
O398 C401 1.235 . S
C399 O402 1.238 . S
C399 O403 1.241 . S
C400 O393 1.247 . S
C400 O394 1.261 . S
C401 O396 1.259 . S
C401 O398 1.235 . S
O402 Co392 2.021 . S
O402 C399 1.238 . S
O403 Co397 2.052 . S
O403 C399 1.241 . S
O404 Co392 2.137 . S
O404 C395 1.247 . S
O405 Co392 2.244 . S
O405 C395 1.272 . S
O405 Co397 2.135 . S
Co406 O407 2.216 . S
Co406 O408 2.091 . S
Co406 O410 2.004 . S
Co406 O416 2.021 . S
Co406 O418 2.137 . S
Co406 O419 2.244 . S
O407 Co406 2.216 . S
O407 C414 1.247 . S
O408 Co406 2.091 . S
O408 C414 1.261 . S
C409 O418 1.247 . S
C409 O419 1.272 . S
O410 Co406 2.004 . S
O410 C415 1.259 . S
Co411 O412 2.061 . S
Co411 O417 2.052 . S
Co411 O419 2.135 . S
O412 Co411 2.061 . S
O412 C415 1.235 . S
C413 O416 1.238 . S
C413 O417 1.241 . S
C414 O407 1.247 . S
C414 O408 1.261 . S
C415 O410 1.259 . S
C415 O412 1.235 . S
O416 Co406 2.021 . S
O416 C413 1.238 . S
O417 Co411 2.052 . S
O417 C413 1.241 . S
O418 Co406 2.137 . S
O418 C409 1.247 . S
O419 Co406 2.244 . S
O419 C409 1.272 . S
O419 Co411 2.135 . S
Co420 O421 2.216 . S
Co420 O422 2.091 . S
Co420 O424 2.004 . S
Co420 O430 2.021 . S
Co420 O432 2.137 . S
Co420 O433 2.244 . S
O421 Co420 2.216 . S
O421 C428 1.247 . S
O422 Co420 2.091 . S
O422 C428 1.261 . S
C423 O432 1.247 . S
C423 O433 1.272 . S
O424 Co420 2.004 . S
O424 C429 1.259 . S
Co425 O426 2.061 . S
Co425 O431 2.052 . S
Co425 O433 2.135 . S
O426 Co425 2.061 . S
O426 C429 1.235 . S
C427 O430 1.238 . S
C427 O431 1.241 . S
C428 O421 1.247 . S
C428 O422 1.261 . S
C429 O424 1.259 . S
C429 O426 1.235 . S
O430 Co420 2.021 . S
O430 C427 1.238 . S
O431 Co425 2.052 . S
O431 C427 1.241 . S
O432 Co420 2.137 . S
O432 C423 1.247 . S
O433 Co420 2.244 . S
O433 C423 1.272 . S
O433 Co425 2.135 . S
Co434 O435 2.216 . S
Co434 O436 2.091 . S
Co434 O438 2.004 . S
Co434 O444 2.021 . S
Co434 O446 2.137 . S
Co434 O447 2.244 . S
O435 Co434 2.216 . S
O435 C442 1.247 . S
O436 Co434 2.091 . S
O436 C442 1.261 . S
C437 O446 1.247 . S
C437 O447 1.272 . S
O438 Co434 2.004 . S
O438 C443 1.259 . S
Co439 O440 2.061 . S
Co439 O445 2.052 . S
Co439 O447 2.135 . S
O440 Co439 2.061 . S
O440 C443 1.235 . S
C441 O444 1.238 . S
C441 O445 1.241 . S
C442 O435 1.247 . S
C442 O436 1.261 . S
C443 O438 1.259 . S
C443 O440 1.235 . S
O444 Co434 2.021 . S
O444 C441 1.238 . S
O445 Co439 2.052 . S
O445 C441 1.241 . S
O446 Co434 2.137 . S
O446 C437 1.247 . S
O447 Co434 2.244 . S
O447 C437 1.272 . S
O447 Co439 2.135 . S
H448 C454 0.930 . S
H449 C458 0.930 . S
H450 C463 0.929 . S
H451 C461 0.929 . S
H452 C456 0.922 1_656 S
H453 C462 0.922 1_454 S
C454 H448 0.930 . S
C454 C455 1.367 . S
C454 C462 1.382 . S
C455 C454 1.367 . S
C455 C463 1.433 . S
C456 H452 0.922 1_454 S
C456 C458 1.382 . S
C456 C460 1.352 . S
C457 C460 1.463 1_656 S
C457 C462 1.352 . S
C457 N465 1.427 . S
C458 H449 0.930 . S
C458 C456 1.382 . S
C458 C459 1.367 . S
C459 C458 1.367 . S
C459 C461 1.433 . S
C460 C456 1.352 . S
C460 C457 1.463 1_454 S
C460 N464 1.427 . S
C461 H451 0.929 . S
C461 C459 1.433 . S
C461 N464 1.384 . S
C462 H453 0.922 1_656 S
C462 C454 1.382 . S
C462 C457 1.352 . S
C463 H450 0.929 . S
C463 C455 1.433 . S
C463 N465 1.384 . S
N464 C460 1.427 . S
N464 C461 1.384 . S
N465 C457 1.427 . S
N465 C463 1.384 . S
H466 C472 0.930 . S
H467 C476 0.930 . S
H468 C481 0.929 . S
H469 C479 0.929 . S
H470 C474 0.929 . S
H471 C480 0.929 . S
C472 H466 0.930 . S
C472 C473 1.367 . S
C472 C480 1.378 . S
C473 C472 1.367 . S
C473 C481 1.433 . S
C474 H470 0.929 . S
C474 C476 1.378 . S
C474 C478 1.350 . S
C475 C478 1.463 . S
C475 C480 1.350 . S
C475 N483 1.427 . S
C476 H467 0.930 . S
C476 C474 1.378 . S
C476 C477 1.367 . S
C477 C476 1.367 . S
C477 C479 1.433 . S
C478 C474 1.350 . S
C478 C475 1.463 . S
C478 N482 1.427 . S
C479 H469 0.929 . S
C479 C477 1.433 . S
C479 N482 1.384 . S
C480 H471 0.929 . S
C480 C472 1.378 . S
C480 C475 1.350 . S
C481 H468 0.929 . S
C481 C473 1.433 . S
C481 N483 1.384 . S
N482 C478 1.427 . S
N482 C479 1.384 . S
N483 C475 1.427 . S
N483 C481 1.384 . S
H484 C490 0.930 . S
H485 C494 0.930 . S
H486 C499 0.929 . S
H487 C497 0.929 . S
H488 C492 0.929 . S
H489 C498 0.929 . S
C490 H484 0.930 . S
C490 C491 1.367 . S
C490 C498 1.378 . S
C491 C490 1.367 . S
C491 C499 1.433 . S
C492 H488 0.929 . S
C492 C494 1.378 . S
C492 C496 1.350 . S
C493 C496 1.463 . S
C493 C498 1.350 . S
C493 N501 1.427 . S
C494 H485 0.930 . S
C494 C492 1.378 . S
C494 C495 1.367 . S
C495 C494 1.367 . S
C495 C497 1.433 . S
C496 C492 1.350 . S
C496 C493 1.463 . S
C496 N500 1.427 . S
C497 H487 0.929 . S
C497 C495 1.433 . S
C497 N500 1.384 . S
C498 H489 0.929 . S
C498 C490 1.378 . S
C498 C493 1.350 . S
C499 H486 0.929 . S
C499 C491 1.433 . S
C499 N501 1.384 . S
N500 C496 1.427 . S
N500 C497 1.384 . S
N501 C493 1.427 . S
N501 C499 1.384 . S
H502 C508 0.930 . S
H503 C512 0.930 . S
H504 C517 0.929 . S
H505 C515 0.929 . S
H506 C510 0.929 . S
H507 C516 0.929 . S
C508 H502 0.930 . S
C508 C509 1.367 . S
C508 C516 1.378 . S
C509 C508 1.367 . S
C509 C517 1.433 . S
C510 H506 0.929 . S
C510 C512 1.378 . S
C510 C514 1.350 . S
C511 C514 1.463 . S
C511 C516 1.350 . S
C511 N519 1.427 . S
C512 H503 0.930 . S
C512 C510 1.378 . S
C512 C513 1.367 . S
C513 C512 1.367 . S
C513 C515 1.433 . S
C514 C510 1.350 . S
C514 C511 1.463 . S
C514 N518 1.427 . S
C515 H505 0.929 . S
C515 C513 1.433 . S
C515 N518 1.384 . S
C516 H507 0.929 . S
C516 C508 1.378 . S
C516 C511 1.350 . S
C517 H504 0.929 . S
C517 C509 1.433 . S
C517 N519 1.384 . S
N518 C514 1.427 . S
N518 C515 1.384 . S
N519 C511 1.427 . S
N519 C517 1.384 . S
H520 C526 0.930 . S
H521 C530 0.930 . S
H522 C535 0.929 . S
H523 C533 0.929 . S
H524 C528 0.929 . S
H525 C534 0.929 . S
C526 H520 0.930 . S
C526 C527 1.367 . S
C526 C534 1.378 . S
C527 C526 1.367 . S
C527 C535 1.433 . S
C528 H524 0.929 . S
C528 C530 1.378 . S
C528 C532 1.350 . S
C529 C532 1.463 1_655 S
C529 C534 1.350 . S
C529 N537 1.427 . S
C530 H521 0.930 . S
C530 C528 1.378 . S
C530 C531 1.367 . S
C531 C530 1.367 . S
C531 C533 1.433 . S
C532 C528 1.350 . S
C532 C529 1.463 1_455 S
C532 N536 1.427 . S
C533 H523 0.929 . S
C533 C531 1.433 . S
C533 N536 1.384 . S
C534 H525 0.929 . S
C534 C526 1.378 . S
C534 C529 1.350 . S
C535 H522 0.929 . S
C535 C527 1.433 . S
C535 N537 1.384 . S
N536 C532 1.427 . S
N536 C533 1.384 . S
N537 C529 1.427 . S
N537 C535 1.384 . S
H538 C544 0.930 . S
H539 C548 0.930 . S
H540 C553 0.929 . S
H541 C551 0.929 . S
H542 C546 0.929 . S
H543 C552 0.929 . S
C544 H538 0.930 . S
C544 C545 1.367 . S
C544 C552 1.378 . S
C545 C544 1.367 . S
C545 C553 1.433 . S
C546 H542 0.929 . S
C546 C548 1.378 . S
C546 C550 1.350 . S
C547 C550 1.463 . S
C547 C552 1.350 . S
C547 N555 1.427 . S
C548 H539 0.930 . S
C548 C546 1.378 . S
C548 C549 1.367 . S
C549 C548 1.367 . S
C549 C551 1.433 . S
C550 C546 1.350 . S
C550 C547 1.463 . S
C550 N554 1.427 . S
C551 H541 0.929 . S
C551 C549 1.433 . S
C551 N554 1.384 . S
C552 H543 0.929 . S
C552 C544 1.378 . S
C552 C547 1.350 . S
C553 H540 0.929 . S
C553 C545 1.433 . S
C553 N555 1.384 . S
N554 C550 1.427 . S
N554 C551 1.384 . S
N555 C547 1.427 . S
N555 C553 1.384 . S
H556 C562 0.930 . S
H557 C566 0.930 . S
H558 C571 0.929 . S
H559 C569 0.929 . S
H560 C564 0.929 . S
H561 C570 0.929 . S
C562 H556 0.930 . S
C562 C563 1.367 . S
C562 C570 1.378 . S
C563 C562 1.367 . S
C563 C571 1.433 . S
C564 H560 0.929 . S
C564 C566 1.378 . S
C564 C568 1.350 . S
C565 C568 1.463 1_556 S
C565 C570 1.350 . S
C565 N573 1.427 . S
C566 H557 0.930 . S
C566 C564 1.378 . S
C566 C567 1.367 . S
C567 C566 1.367 . S
C567 C569 1.433 . S
C568 C564 1.350 . S
C568 C565 1.463 1_554 S
C568 N572 1.427 . S
C569 H559 0.929 . S
C569 C567 1.433 . S
C569 N572 1.384 . S
C570 H561 0.929 . S
C570 C562 1.378 . S
C570 C565 1.350 . S
C571 H558 0.929 . S
C571 C563 1.433 . S
C571 N573 1.384 . S
N572 C568 1.427 . S
N572 C569 1.384 . S
N573 C565 1.427 . S
N573 C571 1.384 . S
H574 C580 0.930 . S
H575 C584 0.930 . S
H576 C589 0.929 . S
H577 C587 0.929 . S
H578 C582 0.929 . S
H579 C588 0.929 . S
C580 H574 0.930 . S
C580 C581 1.367 . S
C580 C588 1.378 . S
C581 C580 1.367 . S
C581 C589 1.433 . S
C582 H578 0.929 . S
C582 C584 1.378 . S
C582 C586 1.350 . S
C583 C586 1.463 . S
C583 C588 1.350 . S
C583 N591 1.427 . S
C584 H575 0.930 . S
C584 C582 1.378 . S
C584 C585 1.367 . S
C585 C584 1.367 . S
C585 C587 1.433 . S
C586 C582 1.350 . S
C586 C583 1.463 . S
C586 N590 1.427 . S
C587 H577 0.929 . S
C587 C585 1.433 . S
C587 N590 1.384 . S
C588 H579 0.929 . S
C588 C580 1.378 . S
C588 C583 1.350 . S
C589 H576 0.929 . S
C589 C581 1.433 . S
C589 N591 1.384 . S
N590 C586 1.427 . S
N590 C587 1.384 . S
N591 C583 1.427 . S
N591 C589 1.384 . S
H592 C598 0.930 . S
H593 C602 0.930 . S
H594 C607 0.929 . S
H595 C605 0.929 . S
H596 C600 0.929 . S
H597 C606 0.929 . S
C598 H592 0.930 . S
C598 C599 1.367 . S
C598 C606 1.378 . S
C599 C598 1.367 . S
C599 C607 1.433 . S
C600 H596 0.929 . S
C600 C602 1.378 . S
C600 C604 1.350 . S
C601 C604 1.463 . S
C601 C606 1.350 . S
C601 N609 1.427 . S
C602 H593 0.930 . S
C602 C600 1.378 . S
C602 C603 1.367 . S
C603 C602 1.367 . S
C603 C605 1.433 . S
C604 C600 1.350 . S
C604 C601 1.463 . S
C604 N608 1.427 . S
C605 H595 0.929 . S
C605 C603 1.433 . S
C605 N608 1.384 . S
C606 H597 0.929 . S
C606 C598 1.378 . S
C606 C601 1.350 . S
C607 H594 0.929 . S
C607 C599 1.433 . S
C607 N609 1.384 . S
N608 C604 1.427 . S
N608 C605 1.384 . S
N609 C601 1.427 . S
N609 C607 1.384 . S
H610 C616 0.930 . S
H611 C620 0.930 . S
H612 C625 0.929 . S
H613 C623 0.929 . S
H614 C618 0.929 . S
H615 C624 0.929 . S
C616 H610 0.930 . S
C616 C617 1.367 . S
C616 C624 1.378 . S
C617 C616 1.367 . S
C617 C625 1.433 . S
C618 H614 0.929 . S
C618 C620 1.378 . S
C618 C622 1.350 . S
C619 C622 1.463 . S
C619 C624 1.350 . S
C619 N627 1.427 . S
C620 H611 0.930 . S
C620 C618 1.378 . S
C620 C621 1.367 . S
C621 C620 1.367 . S
C621 C623 1.433 . S
C622 C618 1.350 . S
C622 C619 1.463 . S
C622 N626 1.427 . S
C623 H613 0.929 . S
C623 C621 1.433 . S
C623 N626 1.384 . S
C624 H615 0.929 . S
C624 C616 1.378 . S
C624 C619 1.350 . S
C625 H612 0.929 . S
C625 C617 1.433 . S
C625 N627 1.384 . S
N626 C622 1.427 . S
N626 C623 1.384 . S
N627 C619 1.427 . S
N627 C625 1.384 . S
H628 C634 0.930 . S
H629 C638 0.930 . S
H630 C643 0.929 . S
H631 C641 0.929 . S
H632 C636 0.929 . S
H633 C642 0.929 . S
C634 H628 0.930 . S
C634 C635 1.367 . S
C634 C642 1.378 . S
C635 C634 1.367 . S
C635 C643 1.433 . S
C636 H632 0.929 . S
C636 C638 1.378 . S
C636 C640 1.350 . S
C637 C640 1.463 . S
C637 C642 1.350 . S
C637 N645 1.427 . S
C638 H629 0.930 . S
C638 C636 1.378 . S
C638 C639 1.367 . S
C639 C638 1.367 . S
C639 C641 1.433 . S
C640 C636 1.350 . S
C640 C637 1.463 . S
C640 N644 1.427 . S
C641 H631 0.929 . S
C641 C639 1.433 . S
C641 N644 1.384 . S
C642 H633 0.929 . S
C642 C634 1.378 . S
C642 C637 1.350 . S
C643 H630 0.929 . S
C643 C635 1.433 . S
C643 N645 1.384 . S
N644 C640 1.427 . S
N644 C641 1.384 . S
N645 C637 1.427 . S
N645 C643 1.384 . S
H646 C652 0.930 . S
H647 C656 0.930 . S
H648 C661 0.929 . S
H649 C659 0.929 . S
H650 C654 0.929 . S
H651 C660 0.929 . S
C652 H646 0.930 . S
C652 C653 1.367 . S
C652 C660 1.378 . S
C653 C652 1.367 . S
C653 C661 1.433 . S
C654 H650 0.929 . S
C654 C656 1.378 . S
C654 C658 1.350 . S
C655 C658 1.463 . S
C655 C660 1.350 . S
C655 N663 1.427 . S
C656 H647 0.930 . S
C656 C654 1.378 . S
C656 C657 1.367 . S
C657 C656 1.367 . S
C657 C659 1.433 . S
C658 C654 1.350 . S
C658 C655 1.463 . S
C658 N662 1.427 . S
C659 H649 0.929 . S
C659 C657 1.433 . S
C659 N662 1.384 . S
C660 H651 0.929 . S
C660 C652 1.378 . S
C660 C655 1.350 . S
C661 H648 0.929 . S
C661 C653 1.433 . S
C661 N663 1.384 . S
N662 C658 1.427 . S
N662 C659 1.384 . S
N663 C655 1.427 . S
N663 C661 1.384 . S
H664 C670 0.930 . S
H665 C674 0.930 . S
H666 C679 0.929 . S
H667 C677 0.929 . S
H668 C672 0.929 . S
H669 C678 0.929 . S
C670 H664 0.930 . S
C670 C671 1.367 . S
C670 C678 1.378 1_565 S
C671 C670 1.367 . S
C671 C679 1.433 . S
C672 H668 0.929 . S
C672 C674 1.378 1_565 S
C672 C676 1.350 1_565 S
C673 C676 1.463 1_565 S
C673 C678 1.350 1_565 S
C673 N681 1.427 . S
C674 H665 0.930 . S
C674 C672 1.378 1_545 S
C674 C675 1.367 . S
C675 C674 1.367 . S
C675 C677 1.433 . S
C676 C672 1.350 1_545 S
C676 C673 1.463 1_545 S
C676 N680 1.427 . S
C677 H667 0.929 . S
C677 C675 1.433 . S
C677 N680 1.384 . S
C678 H669 0.929 . S
C678 C670 1.378 1_545 S
C678 C673 1.350 1_545 S
C679 H666 0.929 . S
C679 C671 1.433 . S
C679 N681 1.384 . S
N680 C676 1.427 . S
N680 C677 1.384 . S
N681 C673 1.427 . S
N681 C679 1.384 . S
H682 C688 0.930 . S
H683 C692 0.930 . S
H684 C697 0.926 . S
H685 C695 0.926 . S
H686 C690 0.929 1_565 S
H687 C696 0.929 1_545 S
C688 H682 0.930 . S
C688 C689 1.367 . S
C688 C696 1.378 . S
C689 C688 1.367 . S
C689 C697 1.433 . S
C690 H686 0.929 1_545 S
C690 C692 1.378 . S
C690 C694 1.350 . S
C691 C694 1.463 1_466 S
C691 C696 1.350 . S
C691 N699 1.427 1_556 S
C692 H683 0.930 . S
C692 C690 1.378 . S
C692 C693 1.367 . S
C693 C692 1.367 . S
C693 C695 1.433 . S
C694 C690 1.350 . S
C694 C691 1.463 1_644 S
C694 N698 1.427 1_554 S
C695 H685 0.926 . S
C695 C693 1.433 . S
C695 N698 1.384 1_554 S
C696 H687 0.929 1_565 S
C696 C688 1.378 . S
C696 C691 1.350 . S
C697 H684 0.926 . S
C697 C689 1.433 . S
C697 N699 1.384 1_556 S
N698 C694 1.427 1_556 S
N698 C695 1.384 1_556 S
N699 C691 1.427 1_554 S
N699 C697 1.384 1_554 S
H700 C706 0.930 . S
H701 C710 0.930 . S
H702 C715 0.929 . S
H703 C713 0.929 . S
H704 C708 0.929 1_556 S
H705 C714 0.929 1_554 S
C706 H700 0.930 . S
C706 C707 1.367 . S
C706 C714 1.378 . S
C707 C706 1.367 . S
C707 C715 1.433 . S
C708 H704 0.929 1_554 S
C708 C710 1.378 . S
C708 C712 1.350 . S
C709 C712 1.463 1_546 S
C709 C714 1.350 . S
C709 N717 1.427 1_545 S
C710 H701 0.930 . S
C710 C708 1.378 . S
C710 C711 1.367 . S
C711 C710 1.367 . S
C711 C713 1.433 . S
C712 C708 1.350 . S
C712 C709 1.463 1_564 S
C712 N716 1.427 1_565 S
C713 H703 0.929 . S
C713 C711 1.433 . S
C713 N716 1.384 1_565 S
C714 H705 0.929 1_556 S
C714 C706 1.378 . S
C714 C709 1.350 . S
C715 H702 0.929 . S
C715 C707 1.433 . S
C715 N717 1.384 1_545 S
N716 C712 1.427 1_545 S
N716 C713 1.384 1_545 S
N717 C709 1.427 1_565 S
N717 C715 1.384 1_565 S
H718 C724 0.930 . S
H719 C728 0.930 . S
H720 C733 0.929 . S
H721 C731 0.929 . S
H722 C726 0.929 1_545 S
H723 C732 0.929 1_565 S
C724 H718 0.930 . S
C724 C725 1.367 . S
C724 C732 1.378 . S
C725 C724 1.367 . S
C725 C733 1.433 . S
C726 H722 0.929 1_565 S
C726 C728 1.378 . S
C726 C730 1.350 . S
C727 C730 1.463 1_445 S
C727 C732 1.350 . S
C727 N735 1.427 1_455 S
C728 H719 0.930 . S
C728 C726 1.378 . S
C728 C729 1.367 . S
C729 C728 1.367 . S
C729 C731 1.433 . S
C730 C726 1.350 . S
C730 C727 1.463 1_665 S
C730 N734 1.427 1_655 S
C731 H721 0.929 . S
C731 C729 1.433 . S
C731 N734 1.384 1_655 S
C732 H723 0.929 1_545 S
C732 C724 1.378 . S
C732 C727 1.350 . S
C733 H720 0.929 . S
C733 C725 1.433 . S
C733 N735 1.384 1_455 S
N734 C730 1.427 1_455 S
N734 C731 1.384 1_455 S
N735 C727 1.427 1_655 S
N735 C733 1.384 1_655 S
H736 C742 0.930 . S
H737 C746 0.930 . S
H738 C751 0.929 1_455 S
H739 C749 0.929 1_655 S
H740 C744 0.929 . S
H741 C750 0.929 . S
C742 H736 0.930 . S
C742 C743 1.367 . S
C742 C750 1.378 . S
C743 C742 1.367 . S
C743 C751 1.433 . S
C744 H740 0.929 . S
C744 C746 1.378 . S
C744 C748 1.350 . S
C745 C748 1.463 1_655 S
C745 C750 1.350 . S
C745 N753 1.427 1_655 S
C746 H737 0.930 . S
C746 C744 1.378 . S
C746 C747 1.367 . S
C747 C746 1.367 . S
C747 C749 1.433 . S
C748 C744 1.350 . S
C748 C745 1.463 1_455 S
C748 N752 1.427 1_455 S
C749 H739 0.929 1_455 S
C749 C747 1.433 . S
C749 N752 1.384 1_455 S
C750 H741 0.929 . S
C750 C742 1.378 . S
C750 C745 1.350 . S
C751 H738 0.929 1_655 S
C751 C743 1.433 . S
C751 N753 1.384 1_655 S
N752 C748 1.427 1_655 S
N752 C749 1.384 1_655 S
N753 C745 1.427 1_455 S
N753 C751 1.384 1_455 S
H754 C760 0.930 . S
H755 C764 0.930 . S
H756 C769 0.929 . S
H757 C767 0.929 . S
H758 C762 0.929 . S
H759 C768 0.929 . S
C760 H754 0.930 . S
C760 C761 1.367 . S
C760 C768 1.378 . S
C761 C760 1.367 . S
C761 C769 1.433 . S
C762 H758 0.929 . S
C762 C764 1.378 . S
C762 C766 1.350 . S
C763 C766 1.463 1_455 S
C763 C768 1.350 . S
C763 N771 1.427 . S
C764 H755 0.930 . S
C764 C762 1.378 . S
C764 C765 1.367 . S
C765 C764 1.367 . S
C765 C767 1.433 . S
C766 C762 1.350 . S
C766 C763 1.463 1_655 S
C766 N770 1.427 . S
C767 H757 0.929 . S
C767 C765 1.433 . S
C767 N770 1.384 . S
C768 H759 0.929 . S
C768 C760 1.378 . S
C768 C763 1.350 . S
C769 H756 0.929 . S
C769 C761 1.433 . S
C769 N771 1.384 . S
N770 C766 1.427 . S
N770 C767 1.384 . S
N771 C763 1.427 . S
N771 C769 1.384 . S
H772 C778 0.930 . S
H773 C782 0.930 . S
H774 C787 0.929 . S
H775 C785 0.929 . S
H776 C780 0.929 . S
H777 C786 0.929 . S
C778 H772 0.930 . S
C778 C779 1.367 . S
C778 C786 1.378 . S
C779 C778 1.367 . S
C779 C787 1.433 . S
C780 H776 0.929 . S
C780 C782 1.378 . S
C780 C784 1.350 . S
C781 C784 1.463 . S
C781 C786 1.350 . S
C781 N789 1.427 . S
C782 H773 0.930 . S
C782 C780 1.378 . S
C782 C783 1.367 . S
C783 C782 1.367 . S
C783 C785 1.433 . S
C784 C780 1.350 . S
C784 C781 1.463 . S
C784 N788 1.427 . S
C785 H775 0.929 . S
C785 C783 1.433 . S
C785 N788 1.384 . S
C786 H777 0.929 . S
C786 C778 1.378 . S
C786 C781 1.350 . S
C787 H774 0.929 . S
C787 C779 1.433 . S
C787 N789 1.384 . S
N788 C784 1.427 . S
N788 C785 1.384 . S
N789 C781 1.427 . S
N789 C787 1.384 . S
H790 C796 0.930 . S
H791 C800 0.930 . S
H792 C805 0.929 . S
H793 C803 0.929 . S
H794 C798 0.929 . S
H795 C804 0.929 . S
C796 H790 0.930 . S
C796 C797 1.367 . S
C796 C804 1.378 . S
C797 C796 1.367 . S
C797 C805 1.433 . S
C798 H794 0.929 . S
C798 C800 1.378 . S
C798 C802 1.350 . S
C799 C802 1.463 . S
C799 C804 1.350 . S
C799 N807 1.427 . S
C800 H791 0.930 . S
C800 C798 1.378 . S
C800 C801 1.367 . S
C801 C800 1.367 . S
C801 C803 1.433 . S
C802 C798 1.350 . S
C802 C799 1.463 . S
C802 N806 1.427 . S
C803 H793 0.929 . S
C803 C801 1.433 . S
C803 N806 1.384 . S
C804 H795 0.929 . S
C804 C796 1.378 . S
C804 C799 1.350 . S
C805 H792 0.929 . S
C805 C797 1.433 . S
C805 N807 1.384 . S
N806 C802 1.427 . S
N806 C803 1.384 . S
N807 C799 1.427 . S
N807 C805 1.384 . S
H808 C814 0.930 . S
H809 C818 0.930 . S
H810 C823 0.929 . S
H811 C821 0.929 . S
H812 C816 0.929 . S
H813 C822 0.929 . S
C814 H808 0.930 . S
C814 C815 1.367 . S
C814 C822 1.378 . S
C815 C814 1.367 . S
C815 C823 1.433 . S
C816 H812 0.929 . S
C816 C818 1.378 . S
C816 C820 1.350 . S
C817 C820 1.463 1_655 S
C817 C822 1.350 . S
C817 N825 1.427 . S
C818 H809 0.930 . S
C818 C816 1.378 . S
C818 C819 1.367 . S
C819 C818 1.367 . S
C819 C821 1.433 . S
C820 C816 1.350 . S
C820 C817 1.463 1_455 S
C820 N824 1.427 . S
C821 H811 0.929 . S
C821 C819 1.433 . S
C821 N824 1.384 . S
C822 H813 0.929 . S
C822 C814 1.378 . S
C822 C817 1.350 . S
C823 H810 0.929 . S
C823 C815 1.433 . S
C823 N825 1.384 . S
N824 C820 1.427 . S
N824 C821 1.384 . S
N825 C817 1.427 . S
N825 C823 1.384 . S
H826 C832 0.930 . S
H827 C836 0.930 . S
H828 C841 0.929 . S
H829 C839 0.929 . S
H830 C834 0.929 . S
H831 C840 0.929 . S
C832 H826 0.930 . S
C832 C833 1.367 . S
C832 C840 1.378 . S
C833 C832 1.367 . S
C833 C841 1.433 . S
C834 H830 0.929 . S
C834 C836 1.378 . S
C834 C838 1.350 . S
C835 C838 1.463 . S
C835 C840 1.350 . S
C835 N843 1.427 . S
C836 H827 0.930 . S
C836 C834 1.378 . S
C836 C837 1.367 . S
C837 C836 1.367 . S
C837 C839 1.433 . S
C838 C834 1.350 . S
C838 C835 1.463 . S
C838 N842 1.427 . S
C839 H829 0.929 . S
C839 C837 1.433 . S
C839 N842 1.384 . S
C840 H831 0.929 . S
C840 C832 1.378 . S
C840 C835 1.350 . S
C841 H828 0.929 . S
C841 C833 1.433 . S
C841 N843 1.384 . S
N842 C838 1.427 . S
N842 C839 1.384 . S
N843 C835 1.427 . S
N843 C841 1.384 . S
H844 C850 0.930 . S
H845 C854 0.930 . S
H846 C859 0.929 . S
H847 C857 0.929 . S
H848 C852 0.929 . S
H849 C858 0.929 . S
C850 H844 0.930 . S
C850 C851 1.367 . S
C850 C858 1.378 . S
C851 C850 1.367 . S
C851 C859 1.433 . S
C852 H848 0.929 . S
C852 C854 1.378 . S
C852 C856 1.350 . S
C853 C856 1.463 . S
C853 C858 1.350 . S
C853 N861 1.427 . S
C854 H845 0.930 . S
C854 C852 1.378 . S
C854 C855 1.367 . S
C855 C854 1.367 . S
C855 C857 1.433 . S
C856 C852 1.350 . S
C856 C853 1.463 . S
C856 N860 1.427 . S
C857 H847 0.929 . S
C857 C855 1.433 . S
C857 N860 1.384 . S
C858 H849 0.929 . S
C858 C850 1.378 . S
C858 C853 1.350 . S
C859 H846 0.929 . S
C859 C851 1.433 . S
C859 N861 1.384 . S
N860 C856 1.427 . S
N860 C857 1.384 . S
N861 C853 1.427 . S
N861 C859 1.384 . S
H862 C868 0.930 . S
H863 C872 0.930 . S
H864 C877 0.929 . S
H865 C875 0.929 . S
H866 C870 0.929 . S
H867 C876 0.929 . S
C868 H862 0.930 . S
C868 C869 1.367 . S
C868 C876 1.378 . S
C869 C868 1.367 . S
C869 C877 1.433 . S
C870 H866 0.929 . S
C870 C872 1.378 . S
C870 C874 1.350 . S
C871 C874 1.463 1_455 S
C871 C876 1.350 . S
C871 N879 1.427 . S
C872 H863 0.930 . S
C872 C870 1.378 . S
C872 C873 1.367 . S
C873 C872 1.367 . S
C873 C875 1.433 . S
C874 C870 1.350 . S
C874 C871 1.463 1_655 S
C874 N878 1.427 . S
C875 H865 0.929 . S
C875 C873 1.433 . S
C875 N878 1.384 . S
C876 H867 0.929 . S
C876 C868 1.378 . S
C876 C871 1.350 . S
C877 H864 0.929 . S
C877 C869 1.433 . S
C877 N879 1.384 . S
N878 C874 1.427 . S
N878 C875 1.384 . S
N879 C871 1.427 . S
N879 C877 1.384 . S
H880 C886 0.930 . S
H881 C890 0.930 . S
H882 C895 0.929 . S
H883 C893 0.929 . S
H884 C888 0.929 . S
H885 C894 0.929 . S
C886 H880 0.930 . S
C886 C887 1.367 . S
C886 C894 1.378 . S
C887 C886 1.367 . S
C887 C895 1.433 . S
C888 H884 0.929 . S
C888 C890 1.378 . S
C888 C892 1.350 . S
C889 C892 1.463 1_655 S
C889 C894 1.350 . S
C889 N897 1.427 . S
C890 H881 0.930 . S
C890 C888 1.378 . S
C890 C891 1.367 . S
C891 C890 1.367 . S
C891 C893 1.433 . S
C892 C888 1.350 . S
C892 C889 1.463 1_455 S
C892 N896 1.427 . S
C893 H883 0.929 . S
C893 C891 1.433 . S
C893 N896 1.384 . S
C894 H885 0.929 . S
C894 C886 1.378 . S
C894 C889 1.350 . S
C895 H882 0.929 . S
C895 C887 1.433 . S
C895 N897 1.384 . S
N896 C892 1.427 . S
N896 C893 1.384 . S
N897 C889 1.427 . S
N897 C895 1.384 . S
H898 C904 0.930 . S
H899 C908 0.930 . S
H900 C913 0.929 . S
H901 C911 0.929 . S
H902 C906 0.929 . S
H903 C912 0.929 . S
C904 H898 0.930 . S
C904 C905 1.367 . S
C904 C912 1.378 . S
C905 C904 1.367 . S
C905 C913 1.433 . S
C906 H902 0.929 . S
C906 C908 1.378 . S
C906 C910 1.350 . S
C907 C910 1.463 1_655 S
C907 C912 1.350 . S
C907 N915 1.427 . S
C908 H899 0.930 . S
C908 C906 1.378 . S
C908 C909 1.367 . S
C909 C908 1.367 . S
C909 C911 1.433 . S
C910 C906 1.350 . S
C910 C907 1.463 1_455 S
C910 N914 1.427 . S
C911 H901 0.929 . S
C911 C909 1.433 . S
C911 N914 1.384 . S
C912 H903 0.929 . S
C912 C904 1.378 . S
C912 C907 1.350 . S
C913 H900 0.929 . S
C913 C905 1.433 . S
C913 N915 1.384 . S
N914 C910 1.427 . S
N914 C911 1.384 . S
N915 C907 1.427 . S
N915 C913 1.384 . S
H916 C922 0.930 . S
H917 C926 0.930 . S
H918 C931 0.929 . S
H919 C929 0.929 . S
H920 C924 0.929 . S
H921 C930 0.929 . S
C922 H916 0.930 . S
C922 C923 1.367 . S
C922 C930 1.378 . S
C923 C922 1.367 . S
C923 C931 1.433 . S
C924 H920 0.929 . S
C924 C926 1.378 . S
C924 C928 1.350 . S
C925 C928 1.463 . S
C925 C930 1.350 . S
C925 N933 1.427 . S
C926 H917 0.930 . S
C926 C924 1.378 . S
C926 C927 1.367 . S
C927 C926 1.367 . S
C927 C929 1.433 . S
C928 C924 1.350 . S
C928 C925 1.463 . S
C928 N932 1.427 . S
C929 H919 0.929 . S
C929 C927 1.433 . S
C929 N932 1.384 . S
C930 H921 0.929 . S
C930 C922 1.378 . S
C930 C925 1.350 . S
C931 H918 0.929 . S
C931 C923 1.433 . S
C931 N933 1.384 . S
N932 C928 1.427 . S
N932 C929 1.384 . S
N933 C925 1.427 . S
N933 C931 1.384 . S
H934 C940 0.930 . S
H935 C944 0.930 . S
H936 C949 0.929 . S
H937 C947 0.929 . S
H938 C942 0.929 . S
H939 C948 0.929 . S
C940 H934 0.930 . S
C940 C941 1.367 . S
C940 C948 1.378 . S
C941 C940 1.367 . S
C941 C949 1.433 . S
C942 H938 0.929 . S
C942 C944 1.378 . S
C942 C946 1.350 . S
C943 C946 1.463 . S
C943 C948 1.350 . S
C943 N951 1.427 . S
C944 H935 0.930 . S
C944 C942 1.378 . S
C944 C945 1.367 . S
C945 C944 1.367 . S
C945 C947 1.433 . S
C946 C942 1.350 . S
C946 C943 1.463 . S
C946 N950 1.427 . S
C947 H937 0.929 . S
C947 C945 1.433 . S
C947 N950 1.384 . S
C948 H939 0.929 . S
C948 C940 1.378 . S
C948 C943 1.350 . S
C949 H936 0.929 . S
C949 C941 1.433 . S
C949 N951 1.384 . S
N950 C946 1.427 . S
N950 C947 1.384 . S
N951 C943 1.427 . S
N951 C949 1.384 . S
H952 C958 0.930 . S
H953 C962 0.930 . S
H954 C967 0.929 . S
H955 C965 0.929 . S
H956 C960 0.929 . S
H957 C966 0.929 . S
C958 H952 0.930 . S
C958 C959 1.367 . S
C958 C966 1.378 . S
C959 C958 1.367 . S
C959 C967 1.433 . S
C960 H956 0.929 . S
C960 C962 1.378 . S
C960 C964 1.350 . S
C961 C964 1.463 1_655 S
C961 C966 1.350 . S
C961 N969 1.427 1_655 S
C962 H953 0.930 . S
C962 C960 1.378 . S
C962 C963 1.367 . S
C963 C962 1.367 . S
C963 C965 1.433 . S
C964 C960 1.350 . S
C964 C961 1.463 1_455 S
C964 N968 1.427 1_455 S
C965 H955 0.929 . S
C965 C963 1.433 . S
C965 N968 1.384 1_455 S
C966 H957 0.929 . S
C966 C958 1.378 . S
C966 C961 1.350 . S
C967 H954 0.929 . S
C967 C959 1.433 . S
C967 N969 1.384 1_655 S
N968 C964 1.427 1_655 S
N968 C965 1.384 1_655 S
N969 C961 1.427 1_455 S
N969 C967 1.384 1_455 S
H970 C976 0.930 . S
H971 C980 0.930 . S
H972 C985 0.929 . S
H973 C983 0.929 . S
H974 C978 0.929 . S
H975 C984 0.929 . S
C976 H970 0.930 . S
C976 C977 1.367 . S
C976 C984 1.378 . S
C977 C976 1.367 . S
C977 C985 1.433 . S
C978 H974 0.929 . S
C978 C980 1.378 . S
C978 C982 1.350 . S
C979 C982 1.463 . S
C979 C984 1.350 . S
C979 N987 1.427 . S
C980 H971 0.930 . S
C980 C978 1.378 . S
C980 C981 1.367 . S
C981 C980 1.367 . S
C981 C983 1.433 . S
C982 C978 1.350 . S
C982 C979 1.463 . S
C982 N986 1.427 . S
C983 H973 0.929 . S
C983 C981 1.433 . S
C983 N986 1.384 . S
C984 H975 0.929 . S
C984 C976 1.378 . S
C984 C979 1.350 . S
C985 H972 0.929 . S
C985 C977 1.433 . S
C985 N987 1.384 . S
N986 C982 1.427 . S
N986 C983 1.384 . S
N987 C979 1.427 . S
N987 C985 1.384 . S
H988 C994 0.930 . S
H989 C998 0.930 . S
H990 C1003 0.929 . S
H991 C1001 0.929 . S
H992 C996 0.929 . S
H993 C1002 0.929 . S
C994 H988 0.930 . S
C994 C995 1.367 . S
C994 C1002 1.378 . S
C995 C994 1.367 . S
C995 C1003 1.433 . S
C996 H992 0.929 . S
C996 C998 1.378 . S
C996 C1000 1.350 . S
C997 C1000 1.463 . S
C997 C1002 1.350 . S
C997 N1005 1.427 . S
C998 H989 0.930 . S
C998 C996 1.378 . S
C998 C999 1.367 . S
C999 C998 1.367 . S
C999 C1001 1.433 . S
C1000 C996 1.350 . S
C1000 C997 1.463 . S
C1000 N1004 1.427 . S
C1001 H991 0.929 . S
C1001 C999 1.433 . S
C1001 N1004 1.384 . S
C1002 H993 0.929 . S
C1002 C994 1.378 . S
C1002 C997 1.350 . S
C1003 H990 0.929 . S
C1003 C995 1.433 . S
C1003 N1005 1.384 . S
N1004 C1000 1.427 . S
N1004 C1001 1.384 . S
N1005 C997 1.427 . S
N1005 C1003 1.384 . S
H1006 C1012 0.930 . S
H1007 C1016 0.930 . S
H1008 C1021 0.929 . S
H1009 C1019 0.929 . S
H1010 C1014 0.929 . S
H1011 C1020 0.929 . S
C1012 H1006 0.930 . S
C1012 C1013 1.367 . S
C1012 C1020 1.378 . S
C1013 C1012 1.367 . S
C1013 C1021 1.433 . S
C1014 H1010 0.929 . S
C1014 C1016 1.378 . S
C1014 C1018 1.350 . S
C1015 C1018 1.463 1_655 S
C1015 C1020 1.350 . S
C1015 N1023 1.427 . S
C1016 H1007 0.930 . S
C1016 C1014 1.378 . S
C1016 C1017 1.367 . S
C1017 C1016 1.367 . S
C1017 C1019 1.433 . S
C1018 C1014 1.350 . S
C1018 C1015 1.463 1_455 S
C1018 N1022 1.427 . S
C1019 H1009 0.929 . S
C1019 C1017 1.433 . S
C1019 N1022 1.384 . S
C1020 H1011 0.929 . S
C1020 C1012 1.378 . S
C1020 C1015 1.350 . S
C1021 H1008 0.929 . S
C1021 C1013 1.433 . S
C1021 N1023 1.384 . S
N1022 C1018 1.427 . S
N1022 C1019 1.384 . S
N1023 C1015 1.427 . S
N1023 C1021 1.384 . S
H1024 C1030 0.930 . S
H1025 C1034 0.930 . S
H1026 C1039 0.929 . S
H1027 C1037 0.929 . S
H1028 C1032 0.929 . S
H1029 C1038 0.929 . S
C1030 H1024 0.930 . S
C1030 C1031 1.367 . S
C1030 C1038 1.378 . S
C1031 C1030 1.367 . S
C1031 C1039 1.433 . S
C1032 H1028 0.929 . S
C1032 C1034 1.378 . S
C1032 C1036 1.350 . S
C1033 C1036 1.463 1_556 S
C1033 C1038 1.350 . S
C1033 N1041 1.427 . S
C1034 H1025 0.930 . S
C1034 C1032 1.378 . S
C1034 C1035 1.367 . S
C1035 C1034 1.367 . S
C1035 C1037 1.433 . S
C1036 C1032 1.350 . S
C1036 C1033 1.463 1_554 S
C1036 N1040 1.427 . S
C1037 H1027 0.929 . S
C1037 C1035 1.433 . S
C1037 N1040 1.384 . S
C1038 H1029 0.929 . S
C1038 C1030 1.378 . S
C1038 C1033 1.350 . S
C1039 H1026 0.929 . S
C1039 C1031 1.433 . S
C1039 N1041 1.384 . S
N1040 C1036 1.427 . S
N1040 C1037 1.384 . S
N1041 C1033 1.427 . S
N1041 C1039 1.384 . S
H1042 C1048 0.930 . S
H1043 C1052 0.930 . S
H1044 C1057 0.929 . S
H1045 C1055 0.929 . S
H1046 C1050 0.929 . S
H1047 C1056 0.929 . S
C1048 H1042 0.930 . S
C1048 C1049 1.367 . S
C1048 C1056 1.378 . S
C1049 C1048 1.367 . S
C1049 C1057 1.433 . S
C1050 H1046 0.929 . S
C1050 C1052 1.378 . S
C1050 C1054 1.350 . S
C1051 C1054 1.463 1_545 S
C1051 C1056 1.350 . S
C1051 N1059 1.427 . S
C1052 H1043 0.930 . S
C1052 C1050 1.378 . S
C1052 C1053 1.367 . S
C1053 C1052 1.367 . S
C1053 C1055 1.433 . S
C1054 C1050 1.350 . S
C1054 C1051 1.463 1_565 S
C1054 N1058 1.427 . S
C1055 H1045 0.929 . S
C1055 C1053 1.433 . S
C1055 N1058 1.384 . S
C1056 H1047 0.929 . S
C1056 C1048 1.378 . S
C1056 C1051 1.350 . S
C1057 H1044 0.929 . S
C1057 C1049 1.433 . S
C1057 N1059 1.384 . S
N1058 C1054 1.427 . S
N1058 C1055 1.384 . S
N1059 C1051 1.427 . S
N1059 C1057 1.384 . S
H1060 C1066 0.930 . S
H1061 C1070 0.930 . S
H1062 C1075 0.929 . S
H1063 C1073 0.929 . S
H1064 C1068 0.929 . S
H1065 C1074 0.929 . S
C1066 H1060 0.930 . S
C1066 C1067 1.367 . S
C1066 C1074 1.378 . S
C1067 C1066 1.367 . S
C1067 C1075 1.433 . S
C1068 H1064 0.929 . S
C1068 C1070 1.378 . S
C1068 C1072 1.350 . S
C1069 C1072 1.463 . S
C1069 C1074 1.350 . S
C1069 N1077 1.427 . S
C1070 H1061 0.930 . S
C1070 C1068 1.378 . S
C1070 C1071 1.367 . S
C1071 C1070 1.367 . S
C1071 C1073 1.433 . S
C1072 C1068 1.350 . S
C1072 C1069 1.463 . S
C1072 N1076 1.427 . S
C1073 H1063 0.929 . S
C1073 C1071 1.433 . S
C1073 N1076 1.384 . S
C1074 H1065 0.929 . S
C1074 C1066 1.378 . S
C1074 C1069 1.350 . S
C1075 H1062 0.929 . S
C1075 C1067 1.433 . S
C1075 N1077 1.384 . S
N1076 C1072 1.427 . S
N1076 C1073 1.384 . S
N1077 C1069 1.427 . S
N1077 C1075 1.384 . S
H1078 C1084 0.930 . S
H1079 C1088 0.930 . S
H1080 C1093 0.929 . S
H1081 C1091 0.929 . S
H1082 C1086 0.929 . S
H1083 C1092 0.929 . S
C1084 H1078 0.930 . S
C1084 C1085 1.367 . S
C1084 C1092 1.378 . S
C1085 C1084 1.367 . S
C1085 C1093 1.433 . S
C1086 H1082 0.929 . S
C1086 C1088 1.378 . S
C1086 C1090 1.350 . S
C1087 C1090 1.463 1_545 S
C1087 C1092 1.350 . S
C1087 N1095 1.427 . S
C1088 H1079 0.930 . S
C1088 C1086 1.378 . S
C1088 C1089 1.367 . S
C1089 C1088 1.367 . S
C1089 C1091 1.433 . S
C1090 C1086 1.350 . S
C1090 C1087 1.463 1_565 S
C1090 N1094 1.427 . S
C1091 H1081 0.929 . S
C1091 C1089 1.433 . S
C1091 N1094 1.384 . S
C1092 H1083 0.929 . S
C1092 C1084 1.378 . S
C1092 C1087 1.350 . S
C1093 H1080 0.929 . S
C1093 C1085 1.433 . S
C1093 N1095 1.384 . S
N1094 C1090 1.427 . S
N1094 C1091 1.384 . S
N1095 C1087 1.427 . S
N1095 C1093 1.384 . S
H1096 C1102 0.930 . S
H1097 C1106 0.930 . S
H1098 C1111 0.929 1_556 S
H1099 C1109 0.929 1_554 S
H1100 C1104 0.929 . S
H1101 C1110 0.929 . S
C1102 H1096 0.930 . S
C1102 C1103 1.367 . S
C1102 C1110 1.378 . S
C1103 C1102 1.367 . S
C1103 C1111 1.433 . S
C1104 H1100 0.929 . S
C1104 C1106 1.378 . S
C1104 C1108 1.350 . S
C1105 C1108 1.463 1_554 S
C1105 C1110 1.350 . S
C1105 N1113 1.427 1_554 S
C1106 H1097 0.930 . S
C1106 C1104 1.378 . S
C1106 C1107 1.367 . S
C1107 C1106 1.367 . S
C1107 C1109 1.433 . S
C1108 C1104 1.350 . S
C1108 C1105 1.463 1_556 S
C1108 N1112 1.427 1_556 S
C1109 H1099 0.929 1_556 S
C1109 C1107 1.433 . S
C1109 N1112 1.384 1_556 S
C1110 H1101 0.929 . S
C1110 C1102 1.378 . S
C1110 C1105 1.350 . S
C1111 H1098 0.929 1_554 S
C1111 C1103 1.433 . S
C1111 N1113 1.384 1_554 S
N1112 C1108 1.427 1_554 S
N1112 C1109 1.384 1_554 S
N1113 C1105 1.427 1_556 S
N1113 C1111 1.384 1_556 S
H1114 C1120 0.930 . S
H1115 C1124 0.930 . S
H1116 C1129 0.929 . S
H1117 C1127 0.929 . S
H1118 C1122 0.929 . S
H1119 C1128 0.929 . S
C1120 H1114 0.930 . S
C1120 C1121 1.367 . S
C1120 C1128 1.378 . S
C1121 C1120 1.367 . S
C1121 C1129 1.433 . S
C1122 H1118 0.929 . S
C1122 C1124 1.378 . S
C1122 C1126 1.350 . S
C1123 C1126 1.463 1_565 S
C1123 C1128 1.350 . S
C1123 N1131 1.427 . S
C1124 H1115 0.930 . S
C1124 C1122 1.378 . S
C1124 C1125 1.367 . S
C1125 C1124 1.367 . S
C1125 C1127 1.433 . S
C1126 C1122 1.350 . S
C1126 C1123 1.463 1_545 S
C1126 N1130 1.427 . S
C1127 H1117 0.929 . S
C1127 C1125 1.433 . S
C1127 N1130 1.384 . S
C1128 H1119 0.929 . S
C1128 C1120 1.378 . S
C1128 C1123 1.350 . S
C1129 H1116 0.929 . S
C1129 C1121 1.433 . S
C1129 N1131 1.384 . S
N1130 C1126 1.427 . S
N1130 C1127 1.384 . S
N1131 C1123 1.427 . S
N1131 C1129 1.384 . S
H1132 C1138 0.930 . S
H1133 C1142 0.930 . S
H1134 C1147 0.929 . S
H1135 C1145 0.929 . S
H1136 C1140 0.929 . S
H1137 C1146 0.929 . S
C1138 H1132 0.930 . S
C1138 C1139 1.367 . S
C1138 C1146 1.378 . S
C1139 C1138 1.367 . S
C1139 C1147 1.433 . S
C1140 H1136 0.929 . S
C1140 C1142 1.378 . S
C1140 C1144 1.350 . S
C1141 C1144 1.463 . S
C1141 C1146 1.350 . S
C1141 N1149 1.427 . S
C1142 H1133 0.930 . S
C1142 C1140 1.378 . S
C1142 C1143 1.367 . S
C1143 C1142 1.367 . S
C1143 C1145 1.433 . S
C1144 C1140 1.350 . S
C1144 C1141 1.463 . S
C1144 N1148 1.427 . S
C1145 H1135 0.929 . S
C1145 C1143 1.433 . S
C1145 N1148 1.384 . S
C1146 H1137 0.929 . S
C1146 C1138 1.378 . S
C1146 C1141 1.350 . S
C1147 H1134 0.929 . S
C1147 C1139 1.433 . S
C1147 N1149 1.384 . S
N1148 C1144 1.427 . S
N1148 C1145 1.384 . S
N1149 C1141 1.427 . S
N1149 C1147 1.384 . S
H1150 C1156 0.930 . S
H1151 C1160 0.930 . S
H1152 C1165 0.929 . S
H1153 C1163 0.929 . S
H1154 C1158 0.929 . S
H1155 C1164 0.929 . S
C1156 H1150 0.930 . S
C1156 C1157 1.367 . S
C1156 C1164 1.378 . S
C1157 C1156 1.367 . S
C1157 C1165 1.433 . S
C1158 H1154 0.929 . S
C1158 C1160 1.378 . S
C1158 C1162 1.350 . S
C1159 C1162 1.463 1_545 S
C1159 C1164 1.350 . S
C1159 N1167 1.427 . S
C1160 H1151 0.930 . S
C1160 C1158 1.378 . S
C1160 C1161 1.367 . S
C1161 C1160 1.367 . S
C1161 C1163 1.433 . S
C1162 C1158 1.350 . S
C1162 C1159 1.463 1_565 S
C1162 N1166 1.427 . S
C1163 H1153 0.929 . S
C1163 C1161 1.433 . S
C1163 N1166 1.384 . S
C1164 H1155 0.929 . S
C1164 C1156 1.378 . S
C1164 C1159 1.350 . S
C1165 H1152 0.929 . S
C1165 C1157 1.433 . S
C1165 N1167 1.384 . S
N1166 C1162 1.427 . S
N1166 C1163 1.384 . S
N1167 C1159 1.427 . S
N1167 C1165 1.384 . S
H1168 C1174 0.930 . S
H1169 C1178 0.930 . S
H1170 C1183 0.929 . S
H1171 C1181 0.929 . S
H1172 C1176 0.929 . S
H1173 C1182 0.929 . S
C1174 H1168 0.930 . S
C1174 C1175 1.367 . S
C1174 C1182 1.378 . S
C1175 C1174 1.367 . S
C1175 C1183 1.433 . S
C1176 H1172 0.929 . S
C1176 C1178 1.378 . S
C1176 C1180 1.350 . S
C1177 C1180 1.463 . S
C1177 C1182 1.350 . S
C1177 N1185 1.427 . S
C1178 H1169 0.930 . S
C1178 C1176 1.378 . S
C1178 C1179 1.367 . S
C1179 C1178 1.367 . S
C1179 C1181 1.433 . S
C1180 C1176 1.350 . S
C1180 C1177 1.463 . S
C1180 N1184 1.427 . S
C1181 H1171 0.929 . S
C1181 C1179 1.433 . S
C1181 N1184 1.384 . S
C1182 H1173 0.929 . S
C1182 C1174 1.378 . S
C1182 C1177 1.350 . S
C1183 H1170 0.929 . S
C1183 C1175 1.433 . S
C1183 N1185 1.384 . S
N1184 C1180 1.427 . S
N1184 C1181 1.384 . S
N1185 C1177 1.427 . S
N1185 C1183 1.384 . S
H1186 C1192 0.930 . S
H1187 C1196 0.930 . S
H1188 C1201 0.929 . S
H1189 C1199 0.929 . S
H1190 C1194 0.929 . S
H1191 C1200 0.929 . S
C1192 H1186 0.930 . S
C1192 C1193 1.367 . S
C1192 C1200 1.378 . S
C1193 C1192 1.367 . S
C1193 C1201 1.433 . S
C1194 H1190 0.929 . S
C1194 C1196 1.378 . S
C1194 C1198 1.350 . S
C1195 C1198 1.463 . S
C1195 C1200 1.350 . S
C1195 N1203 1.427 . S
C1196 H1187 0.930 . S
C1196 C1194 1.378 . S
C1196 C1197 1.367 . S
C1197 C1196 1.367 . S
C1197 C1199 1.433 . S
C1198 C1194 1.350 . S
C1198 C1195 1.463 . S
C1198 N1202 1.427 . S
C1199 H1189 0.929 . S
C1199 C1197 1.433 . S
C1199 N1202 1.384 . S
C1200 H1191 0.929 . S
C1200 C1192 1.378 . S
C1200 C1195 1.350 . S
C1201 H1188 0.929 . S
C1201 C1193 1.433 . S
C1201 N1203 1.384 . S
N1202 C1198 1.427 . S
N1202 C1199 1.384 . S
N1203 C1195 1.427 . S
N1203 C1201 1.384 . S
H1204 C1210 0.930 . S
H1205 C1214 0.930 . S
H1206 C1219 0.932 . S
H1207 C1217 0.932 . S
H1208 C1212 0.929 . S
H1209 C1218 0.929 . S
C1210 H1204 0.930 . S
C1210 C1211 1.367 . S
C1210 C1218 1.378 . S
C1211 C1210 1.367 . S
C1211 C1219 1.433 . S
C1212 H1208 0.929 . S
C1212 C1214 1.378 . S
C1212 C1216 1.350 . S
C1213 C1216 1.463 1_554 S
C1213 C1218 1.350 . S
C1213 N1221 1.427 1_554 S
C1214 H1205 0.930 . S
C1214 C1212 1.378 . S
C1214 C1215 1.367 . S
C1215 C1214 1.367 . S
C1215 C1217 1.433 . S
C1216 C1212 1.350 . S
C1216 C1213 1.463 1_556 S
C1216 N1220 1.427 1_556 S
C1217 H1207 0.932 . S
C1217 C1215 1.433 . S
C1217 N1220 1.384 1_556 S
C1218 H1209 0.929 . S
C1218 C1210 1.378 . S
C1218 C1213 1.350 . S
C1219 H1206 0.932 . S
C1219 C1211 1.433 . S
C1219 N1221 1.384 1_554 S
N1220 C1216 1.427 1_554 S
N1220 C1217 1.384 1_554 S
N1221 C1213 1.427 1_556 S
N1221 C1219 1.384 1_556 S
H1222 C1228 0.930 . S
H1223 C1232 0.930 . S
H1224 C1237 0.929 . S
H1225 C1235 0.929 . S
H1226 C1230 0.929 . S
H1227 C1236 0.929 . S
C1228 H1222 0.930 . S
C1228 C1229 1.367 . S
C1228 C1236 1.378 . S
C1229 C1228 1.367 . S
C1229 C1237 1.433 . S
C1230 H1226 0.929 . S
C1230 C1232 1.378 . S
C1230 C1234 1.350 . S
C1231 C1234 1.463 . S
C1231 C1236 1.350 . S
C1231 N1239 1.427 . S
C1232 H1223 0.930 . S
C1232 C1230 1.378 . S
C1232 C1233 1.367 . S
C1233 C1232 1.367 . S
C1233 C1235 1.433 . S
C1234 C1230 1.350 . S
C1234 C1231 1.463 . S
C1234 N1238 1.427 . S
C1235 H1225 0.929 . S
C1235 C1233 1.433 . S
C1235 N1238 1.384 . S
C1236 H1227 0.929 . S
C1236 C1228 1.378 . S
C1236 C1231 1.350 . S
C1237 H1224 0.929 . S
C1237 C1229 1.433 . S
C1237 N1239 1.384 . S
N1238 C1234 1.427 . S
N1238 C1235 1.384 . S
N1239 C1231 1.427 . S
N1239 C1237 1.384 . S
H1240 C1246 0.930 . S
H1241 C1250 0.930 . S
H1242 C1255 0.929 . S
H1243 C1253 0.929 . S
H1244 C1248 0.929 . S
H1245 C1254 0.929 . S
C1246 H1240 0.930 . S
C1246 C1247 1.367 . S
C1246 C1254 1.378 . S
C1247 C1246 1.367 . S
C1247 C1255 1.433 . S
C1248 H1244 0.929 . S
C1248 C1250 1.378 . S
C1248 C1252 1.350 . S
C1249 C1252 1.463 . S
C1249 C1254 1.350 . S
C1249 N1257 1.427 . S
C1250 H1241 0.930 . S
C1250 C1248 1.378 . S
C1250 C1251 1.367 . S
C1251 C1250 1.367 . S
C1251 C1253 1.433 . S
C1252 C1248 1.350 . S
C1252 C1249 1.463 . S
C1252 N1256 1.427 . S
C1253 H1243 0.929 . S
C1253 C1251 1.433 . S
C1253 N1256 1.384 . S
C1254 H1245 0.929 . S
C1254 C1246 1.378 . S
C1254 C1249 1.350 . S
C1255 H1242 0.929 . S
C1255 C1247 1.433 . S
C1255 N1257 1.384 . S
N1256 C1252 1.427 . S
N1256 C1253 1.384 . S
N1257 C1249 1.427 . S
N1257 C1255 1.384 . S
H1258 C1264 0.930 . S
H1259 C1268 0.930 . S
H1260 C1273 0.929 . S
H1261 C1271 0.929 . S
H1262 C1266 0.929 . S
H1263 C1272 0.929 . S
C1264 H1258 0.930 . S
C1264 C1265 1.367 . S
C1264 C1272 1.378 . S
C1265 C1264 1.367 . S
C1265 C1273 1.433 . S
C1266 H1262 0.929 . S
C1266 C1268 1.378 . S
C1266 C1270 1.350 . S
C1267 C1270 1.463 . S
C1267 C1272 1.350 . S
C1267 N1275 1.427 . S
C1268 H1259 0.930 . S
C1268 C1266 1.378 . S
C1268 C1269 1.367 . S
C1269 C1268 1.367 . S
C1269 C1271 1.433 . S
C1270 C1266 1.350 . S
C1270 C1267 1.463 . S
C1270 N1274 1.427 . S
C1271 H1261 0.929 . S
C1271 C1269 1.433 . S
C1271 N1274 1.384 . S
C1272 H1263 0.929 . S
C1272 C1264 1.378 . S
C1272 C1267 1.350 . S
C1273 H1260 0.929 . S
C1273 C1265 1.433 . S
C1273 N1275 1.384 . S
N1274 C1270 1.427 . S
N1274 C1271 1.384 . S
N1275 C1267 1.427 . S
N1275 C1273 1.384 . S
H1276 C1282 0.930 1_554 S
H1277 C1286 0.930 1_556 S
H1278 C1291 0.929 . S
H1279 C1289 0.929 . S
H1280 C1284 0.929 . S
H1281 C1290 0.929 . S
C1282 H1276 0.930 1_556 S
C1282 C1283 1.367 . S
C1282 C1290 1.378 1_556 S
C1283 C1282 1.367 . S
C1283 C1291 1.433 . S
C1284 H1280 0.929 . S
C1284 C1286 1.378 1_556 S
C1284 C1288 1.350 1_556 S
C1285 C1288 1.463 1_556 S
C1285 C1290 1.350 1_556 S
C1285 N1293 1.427 . S
C1286 H1277 0.930 1_554 S
C1286 C1284 1.378 1_554 S
C1286 C1287 1.367 . S
C1287 C1286 1.367 . S
C1287 C1289 1.433 . S
C1288 C1284 1.350 1_554 S
C1288 C1285 1.463 1_554 S
C1288 N1292 1.427 . S
C1289 H1279 0.929 . S
C1289 C1287 1.433 . S
C1289 N1292 1.384 . S
C1290 H1281 0.929 . S
C1290 C1282 1.378 1_554 S
C1290 C1285 1.350 1_554 S
C1291 H1278 0.929 . S
C1291 C1283 1.433 . S
C1291 N1293 1.384 . S
N1292 C1288 1.427 . S
N1292 C1289 1.384 . S
N1293 C1285 1.427 . S
N1293 C1291 1.384 . S
H1294 C1300 0.930 . S
H1295 C1304 0.930 . S
H1296 C1309 0.929 . S
H1297 C1307 0.929 . S
H1298 C1302 0.929 . S
H1299 C1308 0.929 . S
C1300 H1294 0.930 . S
C1300 C1301 1.367 . S
C1300 C1308 1.378 . S
C1301 C1300 1.367 . S
C1301 C1309 1.433 . S
C1302 H1298 0.929 . S
C1302 C1304 1.378 . S
C1302 C1306 1.350 . S
C1303 C1306 1.463 . S
C1303 C1308 1.350 . S
C1303 N1311 1.427 . S
C1304 H1295 0.930 . S
C1304 C1302 1.378 . S
C1304 C1305 1.367 . S
C1305 C1304 1.367 . S
C1305 C1307 1.433 . S
C1306 C1302 1.350 . S
C1306 C1303 1.463 . S
C1306 N1310 1.427 . S
C1307 H1297 0.929 . S
C1307 C1305 1.433 . S
C1307 N1310 1.384 . S
C1308 H1299 0.929 . S
C1308 C1300 1.378 . S
C1308 C1303 1.350 . S
C1309 H1296 0.929 . S
C1309 C1301 1.433 . S
C1309 N1311 1.384 . S
N1310 C1306 1.427 . S
N1310 C1307 1.384 . S
N1311 C1303 1.427 . S
N1311 C1309 1.384 . S
H1312 C1318 0.930 . S
H1313 C1322 0.930 . S
H1314 C1327 0.929 . S
H1315 C1325 0.929 . S
H1316 C1320 0.929 . S
H1317 C1326 0.929 . S
C1318 H1312 0.930 . S
C1318 C1319 1.367 . S
C1318 C1326 1.378 . S
C1319 C1318 1.367 . S
C1319 C1327 1.433 . S
C1320 H1316 0.929 . S
C1320 C1322 1.378 . S
C1320 C1324 1.350 . S
C1321 C1324 1.463 . S
C1321 C1326 1.350 . S
C1321 N1329 1.427 . S
C1322 H1313 0.930 . S
C1322 C1320 1.378 . S
C1322 C1323 1.367 . S
C1323 C1322 1.367 . S
C1323 C1325 1.433 . S
C1324 C1320 1.350 . S
C1324 C1321 1.463 . S
C1324 N1328 1.427 . S
C1325 H1315 0.929 . S
C1325 C1323 1.433 . S
C1325 N1328 1.384 . S
C1326 H1317 0.929 . S
C1326 C1318 1.378 . S
C1326 C1321 1.350 . S
C1327 H1314 0.929 . S
C1327 C1319 1.433 . S
C1327 N1329 1.384 . S
N1328 C1324 1.427 . S
N1328 C1325 1.384 . S
N1329 C1321 1.427 . S
N1329 C1327 1.384 . S
H1330 C1336 0.930 . S
H1331 C1340 0.930 . S
H1332 C1345 0.929 . S
H1333 C1343 0.929 . S
H1334 C1338 0.929 . S
H1335 C1344 0.929 . S
C1336 H1330 0.930 . S
C1336 C1337 1.367 . S
C1336 C1344 1.378 . S
C1337 C1336 1.367 . S
C1337 C1345 1.433 . S
C1338 H1334 0.929 . S
C1338 C1340 1.378 . S
C1338 C1342 1.350 . S
C1339 C1342 1.463 . S
C1339 C1344 1.350 . S
C1339 N1347 1.427 . S
C1340 H1331 0.930 . S
C1340 C1338 1.378 . S
C1340 C1341 1.367 . S
C1341 C1340 1.367 . S
C1341 C1343 1.433 . S
C1342 C1338 1.350 . S
C1342 C1339 1.463 . S
C1342 N1346 1.427 . S
C1343 H1333 0.929 . S
C1343 C1341 1.433 . S
C1343 N1346 1.384 . S
C1344 H1335 0.929 . S
C1344 C1336 1.378 . S
C1344 C1339 1.350 . S
C1345 H1332 0.929 . S
C1345 C1337 1.433 . S
C1345 N1347 1.384 . S
N1346 C1342 1.427 . S
N1346 C1343 1.384 . S
N1347 C1339 1.427 . S
N1347 C1345 1.384 . S
H1348 C1354 0.930 . S
H1349 C1358 0.930 . S
H1350 C1363 0.929 . S
H1351 C1361 0.929 . S
H1352 C1356 0.929 . S
H1353 C1362 0.929 . S
C1354 H1348 0.930 . S
C1354 C1355 1.367 . S
C1354 C1362 1.378 . S
C1355 C1354 1.367 . S
C1355 C1363 1.433 . S
C1356 H1352 0.929 . S
C1356 C1358 1.378 . S
C1356 C1360 1.350 . S
C1357 C1360 1.463 . S
C1357 C1362 1.350 . S
C1357 N1365 1.427 . S
C1358 H1349 0.930 . S
C1358 C1356 1.378 . S
C1358 C1359 1.367 . S
C1359 C1358 1.367 . S
C1359 C1361 1.433 . S
C1360 C1356 1.350 . S
C1360 C1357 1.463 . S
C1360 N1364 1.427 . S
C1361 H1351 0.929 . S
C1361 C1359 1.433 . S
C1361 N1364 1.384 . S
C1362 H1353 0.929 . S
C1362 C1354 1.378 . S
C1362 C1357 1.350 . S
C1363 H1350 0.929 . S
C1363 C1355 1.433 . S
C1363 N1365 1.384 . S
N1364 C1360 1.427 . S
N1364 C1361 1.384 . S
N1365 C1357 1.427 . S
N1365 C1363 1.384 . S
H1366 C1372 0.930 . S
H1367 C1376 0.930 . S
H1368 C1381 0.929 . S
H1369 C1379 0.929 . S
H1370 C1374 0.929 . S
H1371 C1380 0.929 . S
C1372 H1366 0.930 . S
C1372 C1373 1.367 . S
C1372 C1380 1.378 . S
C1373 C1372 1.367 . S
C1373 C1381 1.433 . S
C1374 H1370 0.929 . S
C1374 C1376 1.378 . S
C1374 C1378 1.350 . S
C1375 C1378 1.463 . S
C1375 C1380 1.350 . S
C1375 N1383 1.427 . S
C1376 H1367 0.930 . S
C1376 C1374 1.378 . S
C1376 C1377 1.367 . S
C1377 C1376 1.367 . S
C1377 C1379 1.433 . S
C1378 C1374 1.350 . S
C1378 C1375 1.463 . S
C1378 N1382 1.427 . S
C1379 H1369 0.929 . S
C1379 C1377 1.433 . S
C1379 N1382 1.384 . S
C1380 H1371 0.929 . S
C1380 C1372 1.378 . S
C1380 C1375 1.350 . S
C1381 H1368 0.929 . S
C1381 C1373 1.433 . S
C1381 N1383 1.384 . S
N1382 C1378 1.427 . S
N1382 C1379 1.384 . S
N1383 C1375 1.427 . S
N1383 C1381 1.384 . S
H1384 C1390 0.930 . S
H1385 C1394 0.930 . S
H1386 C1399 0.929 . S
H1387 C1397 0.929 . S
H1388 C1392 0.929 . S
H1389 C1398 0.929 . S
C1390 H1384 0.930 . S
C1390 C1391 1.367 . S
C1390 C1398 1.378 . S
C1391 C1390 1.367 . S
C1391 C1399 1.433 . S
C1392 H1388 0.929 . S
C1392 C1394 1.378 . S
C1392 C1396 1.350 . S
C1393 C1396 1.463 . S
C1393 C1398 1.350 . S
C1393 N1401 1.427 . S
C1394 H1385 0.930 . S
C1394 C1392 1.378 . S
C1394 C1395 1.367 . S
C1395 C1394 1.367 . S
C1395 C1397 1.433 . S
C1396 C1392 1.350 . S
C1396 C1393 1.463 . S
C1396 N1400 1.427 . S
C1397 H1387 0.929 . S
C1397 C1395 1.433 . S
C1397 N1400 1.384 . S
C1398 H1389 0.929 . S
C1398 C1390 1.378 . S
C1398 C1393 1.350 . S
C1399 H1386 0.929 . S
C1399 C1391 1.433 . S
C1399 N1401 1.384 . S
N1400 C1396 1.427 . S
N1400 C1397 1.384 . S
N1401 C1393 1.427 . S
N1401 C1399 1.384 . S
H1402 C1408 0.930 . S
H1403 C1412 0.930 . S
H1404 C1417 0.929 . S
H1405 C1415 0.929 . S
H1406 C1410 0.929 . S
H1407 C1416 0.929 . S
C1408 H1402 0.930 . S
C1408 C1409 1.367 . S
C1408 C1416 1.378 . S
C1409 C1408 1.367 . S
C1409 C1417 1.433 . S
C1410 H1406 0.929 . S
C1410 C1412 1.378 . S
C1410 C1414 1.350 . S
C1411 C1414 1.463 . S
C1411 C1416 1.350 . S
C1411 N1419 1.427 . S
C1412 H1403 0.930 . S
C1412 C1410 1.378 . S
C1412 C1413 1.367 . S
C1413 C1412 1.367 . S
C1413 C1415 1.433 . S
C1414 C1410 1.350 . S
C1414 C1411 1.463 . S
C1414 N1418 1.427 . S
C1415 H1405 0.929 . S
C1415 C1413 1.433 . S
C1415 N1418 1.384 . S
C1416 H1407 0.929 . S
C1416 C1408 1.378 . S
C1416 C1411 1.350 . S
C1417 H1404 0.929 . S
C1417 C1409 1.433 . S
C1417 N1419 1.384 . S
N1418 C1414 1.427 . S
N1418 C1415 1.384 . S
N1419 C1411 1.427 . S
N1419 C1417 1.384 . S
H1420 C1426 0.930 . S
H1421 C1430 0.930 . S
H1422 C1435 0.929 . S
H1423 C1433 0.929 . S
H1424 C1428 0.929 . S
H1425 C1434 0.929 . S
C1426 H1420 0.930 . S
C1426 C1427 1.367 . S
C1426 C1434 1.378 . S
C1427 C1426 1.367 . S
C1427 C1435 1.433 . S
C1428 H1424 0.929 . S
C1428 C1430 1.378 . S
C1428 C1432 1.350 . S
C1429 C1432 1.463 . S
C1429 C1434 1.350 . S
C1429 N1437 1.427 . S
C1430 H1421 0.930 . S
C1430 C1428 1.378 . S
C1430 C1431 1.367 . S
C1431 C1430 1.367 . S
C1431 C1433 1.433 . S
C1432 C1428 1.350 . S
C1432 C1429 1.463 . S
C1432 N1436 1.427 . S
C1433 H1423 0.929 . S
C1433 C1431 1.433 . S
C1433 N1436 1.384 . S
C1434 H1425 0.929 . S
C1434 C1426 1.378 . S
C1434 C1429 1.350 . S
C1435 H1422 0.929 . S
C1435 C1427 1.433 . S
C1435 N1437 1.384 . S
N1436 C1432 1.427 . S
N1436 C1433 1.384 . S
N1437 C1429 1.427 . S
N1437 C1435 1.384 . S
H1438 C1444 0.930 . S
H1439 C1448 0.930 . S
H1440 C1453 0.929 . S
H1441 C1451 0.929 . S
H1442 C1446 0.929 . S
H1443 C1452 0.929 . S
C1444 H1438 0.930 . S
C1444 C1445 1.367 . S
C1444 C1452 1.378 . S
C1445 C1444 1.367 . S
C1445 C1453 1.433 . S
C1446 H1442 0.929 . S
C1446 C1448 1.378 . S
C1446 C1450 1.350 . S
C1447 C1450 1.463 . S
C1447 C1452 1.350 . S
C1447 N1455 1.427 . S
C1448 H1439 0.930 . S
C1448 C1446 1.378 . S
C1448 C1449 1.367 . S
C1449 C1448 1.367 . S
C1449 C1451 1.433 . S
C1450 C1446 1.350 . S
C1450 C1447 1.463 . S
C1450 N1454 1.427 . S
C1451 H1441 0.929 . S
C1451 C1449 1.433 . S
C1451 N1454 1.384 . S
C1452 H1443 0.929 . S
C1452 C1444 1.378 . S
C1452 C1447 1.350 . S
C1453 H1440 0.929 . S
C1453 C1445 1.433 . S
C1453 N1455 1.384 . S
N1454 C1450 1.427 . S
N1454 C1451 1.384 . S
N1455 C1447 1.427 . S
N1455 C1453 1.384 . S
H1456 C1462 0.930 . S
H1457 C1466 0.930 . S
H1458 C1471 0.929 . S
H1459 C1469 0.929 . S
H1460 C1464 0.929 . S
H1461 C1470 0.929 . S
C1462 H1456 0.930 . S
C1462 C1463 1.367 . S
C1462 C1470 1.378 . S
C1463 C1462 1.367 . S
C1463 C1471 1.433 . S
C1464 H1460 0.929 . S
C1464 C1466 1.378 . S
C1464 C1468 1.350 . S
C1465 C1468 1.463 . S
C1465 C1470 1.350 . S
C1465 N1473 1.427 . S
C1466 H1457 0.930 . S
C1466 C1464 1.378 . S
C1466 C1467 1.367 . S
C1467 C1466 1.367 . S
C1467 C1469 1.433 . S
C1468 C1464 1.350 . S
C1468 C1465 1.463 . S
C1468 N1472 1.427 . S
C1469 H1459 0.929 . S
C1469 C1467 1.433 . S
C1469 N1472 1.384 . S
C1470 H1461 0.929 . S
C1470 C1462 1.378 . S
C1470 C1465 1.350 . S
C1471 H1458 0.929 . S
C1471 C1463 1.433 . S
C1471 N1473 1.384 . S
N1472 C1468 1.427 . S
N1472 C1469 1.384 . S
N1473 C1465 1.427 . S
N1473 C1471 1.384 . S
H1474 C1480 0.930 . S
H1475 C1484 0.930 . S
H1476 C1489 0.929 . S
H1477 C1487 0.929 . S
H1478 C1482 0.929 . S
H1479 C1488 0.929 . S
C1480 H1474 0.930 . S
C1480 C1481 1.367 . S
C1480 C1488 1.378 . S
C1481 C1480 1.367 . S
C1481 C1489 1.433 . S
C1482 H1478 0.929 . S
C1482 C1484 1.378 . S
C1482 C1486 1.350 . S
C1483 C1486 1.463 . S
C1483 C1488 1.350 . S
C1483 N1491 1.427 . S
C1484 H1475 0.930 . S
C1484 C1482 1.378 . S
C1484 C1485 1.367 . S
C1485 C1484 1.367 . S
C1485 C1487 1.433 . S
C1486 C1482 1.350 . S
C1486 C1483 1.463 . S
C1486 N1490 1.427 . S
C1487 H1477 0.929 . S
C1487 C1485 1.433 . S
C1487 N1490 1.384 . S
C1488 H1479 0.929 . S
C1488 C1480 1.378 . S
C1488 C1483 1.350 . S
C1489 H1476 0.929 . S
C1489 C1481 1.433 . S
C1489 N1491 1.384 . S
N1490 C1486 1.427 . S
N1490 C1487 1.384 . S
N1491 C1483 1.427 . S
N1491 C1489 1.384 . S
H1492 C1498 0.930 . S
H1493 C1502 0.930 . S
H1494 C1507 0.929 . S
H1495 C1505 0.929 . S
H1496 C1500 0.929 . S
H1497 C1506 0.929 . S
C1498 H1492 0.930 . S
C1498 C1499 1.367 . S
C1498 C1506 1.378 . S
C1499 C1498 1.367 . S
C1499 C1507 1.433 . S
C1500 H1496 0.929 . S
C1500 C1502 1.378 . S
C1500 C1504 1.350 . S
C1501 C1504 1.463 . S
C1501 C1506 1.350 . S
C1501 N1509 1.427 . S
C1502 H1493 0.930 . S
C1502 C1500 1.378 . S
C1502 C1503 1.367 . S
C1503 C1502 1.367 . S
C1503 C1505 1.433 . S
C1504 C1500 1.350 . S
C1504 C1501 1.463 . S
C1504 N1508 1.427 . S
C1505 H1495 0.929 . S
C1505 C1503 1.433 . S
C1505 N1508 1.384 . S
C1506 H1497 0.929 . S
C1506 C1498 1.378 . S
C1506 C1501 1.350 . S
C1507 H1494 0.929 . S
C1507 C1499 1.433 . S
C1507 N1509 1.384 . S
N1508 C1504 1.427 . S
N1508 C1505 1.384 . S
N1509 C1501 1.427 . S
N1509 C1507 1.384 . S
H1510 C1516 0.930 . S
H1511 C1520 0.930 . S
H1512 C1525 0.929 . S
H1513 C1523 0.929 . S
H1514 C1518 0.929 . S
H1515 C1524 0.929 . S
C1516 H1510 0.930 . S
C1516 C1517 1.367 . S
C1516 C1524 1.378 . S
C1517 C1516 1.367 . S
C1517 C1525 1.433 . S
C1518 H1514 0.929 . S
C1518 C1520 1.378 . S
C1518 C1522 1.350 . S
C1519 C1522 1.463 . S
C1519 C1524 1.350 . S
C1519 N1527 1.427 . S
C1520 H1511 0.930 . S
C1520 C1518 1.378 . S
C1520 C1521 1.367 . S
C1521 C1520 1.367 . S
C1521 C1523 1.433 . S
C1522 C1518 1.350 . S
C1522 C1519 1.463 . S
C1522 N1526 1.427 . S
C1523 H1513 0.929 . S
C1523 C1521 1.433 . S
C1523 N1526 1.384 . S
C1524 H1515 0.929 . S
C1524 C1516 1.378 . S
C1524 C1519 1.350 . S
C1525 H1512 0.929 . S
C1525 C1517 1.433 . S
C1525 N1527 1.384 . S
N1526 C1522 1.427 . S
N1526 C1523 1.384 . S
N1527 C1519 1.427 . S
N1527 C1525 1.384 . S
H1528 C1534 0.930 . S
H1529 C1538 0.930 . S
H1530 C1543 0.929 . S
H1531 C1541 0.929 . S
H1532 C1536 0.929 . S
H1533 C1542 0.929 . S
C1534 H1528 0.930 . S
C1534 C1535 1.367 . S
C1534 C1542 1.378 . S
C1535 C1534 1.367 . S
C1535 C1543 1.433 . S
C1536 H1532 0.929 . S
C1536 C1538 1.378 . S
C1536 C1540 1.350 . S
C1537 C1540 1.463 . S
C1537 C1542 1.350 . S
C1537 N1545 1.427 . S
C1538 H1529 0.930 . S
C1538 C1536 1.378 . S
C1538 C1539 1.367 . S
C1539 C1538 1.367 . S
C1539 C1541 1.433 . S
C1540 C1536 1.350 . S
C1540 C1537 1.463 . S
C1540 N1544 1.427 . S
C1541 H1531 0.929 . S
C1541 C1539 1.433 . S
C1541 N1544 1.384 . S
C1542 H1533 0.929 . S
C1542 C1534 1.378 . S
C1542 C1537 1.350 . S
C1543 H1530 0.929 . S
C1543 C1535 1.433 . S
C1543 N1545 1.384 . S
N1544 C1540 1.427 . S
N1544 C1541 1.384 . S
N1545 C1537 1.427 . S
N1545 C1543 1.384 . S
H1546 C1552 0.930 . S
H1547 C1556 0.930 . S
H1548 C1561 0.929 . S
H1549 C1559 0.929 . S
H1550 C1554 0.929 . S
H1551 C1560 0.929 . S
C1552 H1546 0.930 . S
C1552 C1553 1.367 . S
C1552 C1560 1.378 . S
C1553 C1552 1.367 . S
C1553 C1561 1.433 . S
C1554 H1550 0.929 . S
C1554 C1556 1.378 . S
C1554 C1558 1.350 . S
C1555 C1558 1.463 . S
C1555 C1560 1.350 . S
C1555 N1563 1.427 . S
C1556 H1547 0.930 . S
C1556 C1554 1.378 . S
C1556 C1557 1.367 . S
C1557 C1556 1.367 . S
C1557 C1559 1.433 . S
C1558 C1554 1.350 . S
C1558 C1555 1.463 . S
C1558 N1562 1.427 . S
C1559 H1549 0.929 . S
C1559 C1557 1.433 . S
C1559 N1562 1.384 . S
C1560 H1551 0.929 . S
C1560 C1552 1.378 . S
C1560 C1555 1.350 . S
C1561 H1548 0.929 . S
C1561 C1553 1.433 . S
C1561 N1563 1.384 . S
N1562 C1558 1.427 . S
N1562 C1559 1.384 . S
N1563 C1555 1.427 . S
N1563 C1561 1.384 . S
H1564 C1570 0.930 . S
H1565 C1574 0.930 . S
H1566 C1579 0.929 . S
H1567 C1577 0.929 . S
H1568 C1572 0.929 . S
H1569 C1578 0.929 . S
C1570 H1564 0.930 . S
C1570 C1571 1.367 . S
C1570 C1578 1.378 . S
C1571 C1570 1.367 . S
C1571 C1579 1.433 . S
C1572 H1568 0.929 . S
C1572 C1574 1.378 . S
C1572 C1576 1.350 . S
C1573 C1576 1.463 . S
C1573 C1578 1.350 . S
C1573 N1581 1.427 . S
C1574 H1565 0.930 . S
C1574 C1572 1.378 . S
C1574 C1575 1.367 . S
C1575 C1574 1.367 . S
C1575 C1577 1.433 . S
C1576 C1572 1.350 . S
C1576 C1573 1.463 . S
C1576 N1580 1.427 . S
C1577 H1567 0.929 . S
C1577 C1575 1.433 . S
C1577 N1580 1.384 . S
C1578 H1569 0.929 . S
C1578 C1570 1.378 . S
C1578 C1573 1.350 . S
C1579 H1566 0.929 . S
C1579 C1571 1.433 . S
C1579 N1581 1.384 . S
N1580 C1576 1.427 . S
N1580 C1577 1.384 . S
N1581 C1573 1.427 . S
N1581 C1579 1.384 . S
H1582 C1588 0.930 . S
H1583 C1592 0.930 . S
H1584 C1597 0.929 . S
H1585 C1595 0.929 . S
H1586 C1590 0.929 . S
H1587 C1596 0.929 . S
C1588 H1582 0.930 . S
C1588 C1589 1.367 . S
C1588 C1596 1.378 . S
C1589 C1588 1.367 . S
C1589 C1597 1.433 . S
C1590 H1586 0.929 . S
C1590 C1592 1.378 . S
C1590 C1594 1.350 . S
C1591 C1594 1.463 . S
C1591 C1596 1.350 . S
C1591 N1599 1.427 . S
C1592 H1583 0.930 . S
C1592 C1590 1.378 . S
C1592 C1593 1.367 . S
C1593 C1592 1.367 . S
C1593 C1595 1.433 . S
C1594 C1590 1.350 . S
C1594 C1591 1.463 . S
C1594 N1598 1.427 . S
C1595 H1585 0.929 . S
C1595 C1593 1.433 . S
C1595 N1598 1.384 . S
C1596 H1587 0.929 . S
C1596 C1588 1.378 . S
C1596 C1591 1.350 . S
C1597 H1584 0.929 . S
C1597 C1589 1.433 . S
C1597 N1599 1.384 . S
N1598 C1594 1.427 . S
N1598 C1595 1.384 . S
N1599 C1591 1.427 . S
N1599 C1597 1.384 . S
C455 C119 1.505 . S
C459 C7 1.505 . S
C473 C357 1.512 . S
C477 C21 1.512 . S
C491 C147 1.502 . S
C495 C35 1.502 . S
C509 C385 1.511 . S
C513 C49 1.511 . S
C527 C175 1.507 . S
C531 C63 1.507 . S
C545 C77 1.499 . S
C549 C413 1.499 . S
C563 C91 1.509 . S
C567 C203 1.509 . S
C581 C105 1.509 . S
C585 C441 1.509 . S
C599 C245 1.505 . S
C603 C133 1.505 . S
C617 C273 1.512 . S
C621 C161 1.512 . S
C635 C189 1.512 . S
C639 C301 1.512 . S
C653 C217 1.509 . S
C657 C329 1.509 . S
C671 C231 1.507 . S
C675 C343 1.507 . S
C689 C371 1.504 . S
C693 C259 1.504 . S
C707 C287 1.503 . S
C711 C399 1.503 . S
C725 C427 1.512 . S
C729 C315 1.512 . S
C743 C261 1.591 . S
C747 C9 1.589 . S
C761 C275 1.593 . S
C765 C23 1.588 . S
C779 C37 1.593 . S
C783 C233 1.587 . S
C797 C51 1.591 . S
C801 C247 1.590 . S
C815 C317 1.592 . S
C819 C65 1.588 . S
C833 C79 1.593 . S
C837 C331 1.587 . S
C851 C289 1.589 . S
C855 C93 1.590 . S
C869 C303 1.587 . S
C873 C107 1.593 . S
C887 C121 1.587 . S
C891 C373 1.593 . S
C905 C387 1.593 . S
C909 C135 1.587 . S
C923 C149 1.591 . S
C927 C345 1.588 . S
C941 C163 1.588 . S
C945 C359 1.592 . S
C959 C177 1.588 . S
C963 C429 1.592 . S
C977 C191 1.590 . S
C981 C443 1.589 . S
C995 C401 1.589 . S
C999 C205 1.591 . S
C1013 C415 1.593 . S
C1017 C219 1.587 . S
C1031 C92 1.539 . S
C1035 C8 1.545 . S
C1049 C106 1.544 . S
C1053 C22 1.539 . S
C1067 C64 1.545 . S
C1071 C36 1.539 . S
C1085 C50 1.541 . S
C1089 C78 1.541 . S
C1103 C204 1.542 . S
C1107 C120 1.543 . S
C1121 C218 1.545 . S
C1125 C134 1.539 . S
C1139 C176 1.545 . S
C1143 C148 1.539 . S
C1157 C190 1.539 . S
C1161 C162 1.543 . S
C1175 C316 1.544 . S
C1179 C232 1.539 . S
C1193 C330 1.541 . S
C1197 C246 1.541 . S
C1211 C260 1.544 . S
C1215 C288 1.541 . S
C1229 C274 1.544 . S
C1233 C302 1.539 . S
C1247 C428 1.539 . S
C1251 C344 1.545 . S
C1265 C442 1.540 . S
C1269 C358 1.543 . S
C1283 C372 1.541 . S
C1287 C400 1.542 . S
C1301 C386 1.543 . S
C1305 C414 1.541 . S
C1319 C3 1.399 . S
C1323 C297 1.399 . S
C1337 C311 1.400 . S
C1341 C17 1.399 . S
C1355 C325 1.402 . S
C1359 C31 1.398 . S
C1373 C45 1.402 . S
C1377 C283 1.398 . S
C1391 C269 1.399 . S
C1395 C59 1.402 . S
C1409 C73 1.403 . S
C1413 C227 1.399 . S
C1427 C241 1.403 . S
C1431 C87 1.399 . S
C1445 C101 1.402 . S
C1449 C255 1.399 . S
C1463 C409 1.404 . S
C1467 C115 1.402 . S
C1481 C423 1.398 . S
C1485 C129 1.402 . S
C1499 C143 1.398 . S
C1503 C437 1.401 . S
C1517 C395 1.401 . S
C1521 C157 1.398 . S
C1535 C381 1.402 . S
C1539 C171 1.404 . S
C1553 C185 1.399 . S
C1557 C339 1.400 . S
C1571 C353 1.400 . S
C1575 C199 1.399 . S
C1589 C213 1.399 . S
C1593 C367 1.403 . S
