# Generated by pormake.
# Topology smd, (6)-cn, num edge types: 1
# Building blocks:
#     Node 0, Type 0, BuildingBlock: CUKXOW_clean_sbu_0, # of connection points: 6
#     Node 1, Type 0, BuildingBlock: CUKXOW_clean_sbu_0, # of connection points: 6
#     Node 2, Type 0, BuildingBlock: CUKXOW_clean_sbu_0, # of connection points: 6
#     Node 3, Type 0, BuildingBlock: CUKXOW_clean_sbu_0, # of connection points: 6
#     Node 4, Type 0, BuildingBlock: CUKXOW_clean_sbu_0, # of connection points: 6
#     Node 5, Type 0, BuildingBlock: CUKXOW_clean_sbu_0, # of connection points: 6
#     Node 6, Type 0, BuildingBlock: CUKXOW_clean_sbu_0, # of connection points: 6
#     Node 7, Type 0, BuildingBlock: CUKXOW_clean_sbu_0, # of connection points: 6
#     Node 8, Type 0, BuildingBlock: CUKXOW_clean_sbu_0, # of connection points: 6
#     Node 9, Type 0, BuildingBlock: CUKXOW_clean_sbu_0, # of connection points: 6
#     Node 10, Type 0, BuildingBlock: CUKXOW_clean_sbu_0, # of connection points: 6
#     Node 11, Type 0, BuildingBlock: CUKXOW_clean_sbu_0, # of connection points: 6
#     Node 12, Type 0, BuildingBlock: CUKXOW_clean_sbu_0, # of connection points: 6
#     Node 13, Type 0, BuildingBlock: CUKXOW_clean_sbu_0, # of connection points: 6
#     Node 14, Type 0, BuildingBlock: CUKXOW_clean_sbu_0, # of connection points: 6
#     Node 15, Type 0, BuildingBlock: CUKXOW_clean_sbu_0, # of connection points: 6
#     Node 16, Type 0, BuildingBlock: CUKXOW_clean_sbu_0, # of connection points: 6
#     Node 17, Type 0, BuildingBlock: CUKXOW_clean_sbu_0, # of connection points: 6
#     Edge 18, Type (0, 0), BuildingBlock: AJUNOK_clean_linker_0, # of connection points: 2
#     Edge 19, Type (0, 0), BuildingBlock: AJUNOK_clean_linker_0, # of connection points: 2
#     Edge 20, Type (0, 0), BuildingBlock: AJUNOK_clean_linker_0, # of connection points: 2
#     Edge 21, Type (0, 0), BuildingBlock: AJUNOK_clean_linker_0, # of connection points: 2
#     Edge 22, Type (0, 0), BuildingBlock: AJUNOK_clean_linker_0, # of connection points: 2
#     Edge 23, Type (0, 0), BuildingBlock: AJUNOK_clean_linker_0, # of connection points: 2
#     Edge 24, Type (0, 0), BuildingBlock: AJUNOK_clean_linker_0, # of connection points: 2
#     Edge 25, Type (0, 0), BuildingBlock: AJUNOK_clean_linker_0, # of connection points: 2
#     Edge 26, Type (0, 0), BuildingBlock: AJUNOK_clean_linker_0, # of connection points: 2
#     Edge 27, Type (0, 0), BuildingBlock: AJUNOK_clean_linker_0, # of connection points: 2
#     Edge 28, Type (0, 0), BuildingBlock: AJUNOK_clean_linker_0, # of connection points: 2
#     Edge 29, Type (0, 0), BuildingBlock: AJUNOK_clean_linker_0, # of connection points: 2
#     Edge 30, Type (0, 0), BuildingBlock: AJUNOK_clean_linker_0, # of connection points: 2
#     Edge 31, Type (0, 0), BuildingBlock: AJUNOK_clean_linker_0, # of connection points: 2
#     Edge 32, Type (0, 0), BuildingBlock: AJUNOK_clean_linker_0, # of connection points: 2
#     Edge 33, Type (0, 0), BuildingBlock: AJUNOK_clean_linker_0, # of connection points: 2
#     Edge 34, Type (0, 0), BuildingBlock: AJUNOK_clean_linker_0, # of connection points: 2
#     Edge 35, Type (0, 0), BuildingBlock: AJUNOK_clean_linker_0, # of connection points: 2
#     Edge 36, Type (0, 0), BuildingBlock: AJUNOK_clean_linker_0, # of connection points: 2
#     Edge 37, Type (0, 0), BuildingBlock: AJUNOK_clean_linker_0, # of connection points: 2
#     Edge 38, Type (0, 0), BuildingBlock: AJUNOK_clean_linker_0, # of connection points: 2
#     Edge 39, Type (0, 0), BuildingBlock: AJUNOK_clean_linker_0, # of connection points: 2
#     Edge 40, Type (0, 0), BuildingBlock: AJUNOK_clean_linker_0, # of connection points: 2
#     Edge 41, Type (0, 0), BuildingBlock: AJUNOK_clean_linker_0, # of connection points: 2
#     Edge 42, Type (0, 0), BuildingBlock: AJUNOK_clean_linker_0, # of connection points: 2
#     Edge 43, Type (0, 0), BuildingBlock: AJUNOK_clean_linker_0, # of connection points: 2
#     Edge 44, Type (0, 0), BuildingBlock: AJUNOK_clean_linker_0, # of connection points: 2
#     Edge 45, Type (0, 0), BuildingBlock: AJUNOK_clean_linker_0, # of connection points: 2
#     Edge 46, Type (0, 0), BuildingBlock: AJUNOK_clean_linker_0, # of connection points: 2
#     Edge 47, Type (0, 0), BuildingBlock: AJUNOK_clean_linker_0, # of connection points: 2
#     Edge 48, Type (0, 0), BuildingBlock: AJUNOK_clean_linker_0, # of connection points: 2
#     Edge 49, Type (0, 0), BuildingBlock: AJUNOK_clean_linker_0, # of connection points: 2
#     Edge 50, Type (0, 0), BuildingBlock: AJUNOK_clean_linker_0, # of connection points: 2
#     Edge 51, Type (0, 0), BuildingBlock: AJUNOK_clean_linker_0, # of connection points: 2
#     Edge 52, Type (0, 0), BuildingBlock: AJUNOK_clean_linker_0, # of connection points: 2
#     Edge 53, Type (0, 0), BuildingBlock: AJUNOK_clean_linker_0, # of connection points: 2
#     Edge 54, Type (0, 0), BuildingBlock: AJUNOK_clean_linker_0, # of connection points: 2
#     Edge 55, Type (0, 0), BuildingBlock: AJUNOK_clean_linker_0, # of connection points: 2
#     Edge 56, Type (0, 0), BuildingBlock: AJUNOK_clean_linker_0, # of connection points: 2
#     Edge 57, Type (0, 0), BuildingBlock: AJUNOK_clean_linker_0, # of connection points: 2
#     Edge 58, Type (0, 0), BuildingBlock: AJUNOK_clean_linker_0, # of connection points: 2
#     Edge 59, Type (0, 0), BuildingBlock: AJUNOK_clean_linker_0, # of connection points: 2
#     Edge 60, Type (0, 0), BuildingBlock: AJUNOK_clean_linker_0, # of connection points: 2
#     Edge 61, Type (0, 0), BuildingBlock: AJUNOK_clean_linker_0, # of connection points: 2
#     Edge 62, Type (0, 0), BuildingBlock: AJUNOK_clean_linker_0, # of connection points: 2
#     Edge 63, Type (0, 0), BuildingBlock: AJUNOK_clean_linker_0, # of connection points: 2
#     Edge 64, Type (0, 0), BuildingBlock: AJUNOK_clean_linker_0, # of connection points: 2
#     Edge 65, Type (0, 0), BuildingBlock: AJUNOK_clean_linker_0, # of connection points: 2
#     Edge 66, Type (0, 0), BuildingBlock: AJUNOK_clean_linker_0, # of connection points: 2
#     Edge 67, Type (0, 0), BuildingBlock: AJUNOK_clean_linker_0, # of connection points: 2
#     Edge 68, Type (0, 0), BuildingBlock: AJUNOK_clean_linker_0, # of connection points: 2
#     Edge 69, Type (0, 0), BuildingBlock: AJUNOK_clean_linker_0, # of connection points: 2
#     Edge 70, Type (0, 0), BuildingBlock: AJUNOK_clean_linker_0, # of connection points: 2
#     Edge 71, Type (0, 0), BuildingBlock: AJUNOK_clean_linker_0, # of connection points: 2
# Relax obj value: 0.287
# Max RMSD: 0.299
# Mean RMSD: 0.278
data_MOF--net-smd--node1-CUKXOW_clean_sbu_0--edge1-AJUNOK_clean_linker_0
_symmetry_space_group_name_H-M    P1
_symmetry_Int_Tables_number       1
_symmetry_cell_setting            triclinic
loop_
_symmetry_equiv_pos_as_xyz
'x, y, z'
_cell_length_a     55.558293
_cell_length_b     59.721629
_cell_length_c     10.318228
_cell_angle_alpha  92.909333
_cell_angle_beta   92.945634
_cell_angle_gamma 120.1449
loop_
_atom_site_label
_atom_site_type_symbol
_atom_site_fract_x
_atom_site_fract_y
_atom_site_fract_z
_atom_type_partial_charge
Tb0 Tb 0.02002 0.22356 0.62954 0.0
C1 C 0.08177 0.23055 0.63686 0.0
Tb2 Tb 0.07058 0.27656 0.62453 0.0
O3 O 1.00781 0.22329 0.42303 0.0
O4 O 0.04923 0.24306 0.49167 0.0
O5 O 0.05525 0.21566 0.66535 0.0
C6 C 0.10468 0.3207 0.52379 0.0
O7 O 0.0912 0.25422 0.59946 0.0
C8 C 0.06037 0.26099 0.85936 0.0
C9 C 1.01211 0.27315 0.65086 0.0
O10 O 0.10823 0.31539 0.64154 0.0
O11 O 0.08199 0.30142 0.4653 0.0
O12 O 0.08508 0.27753 0.82644 0.0
O13 O 0.04239 0.25647 0.76629 0.0
O14 O 0.03796 0.28689 0.61699 0.0
O15 O 1.00176 0.24849 0.67859 0.0
C16 C 0.97638 0.17586 0.6576 0.0
O17 O 0.97576 0.19403 0.59752 0.0
O18 O 1.00193 0.18465 0.7062 0.0
C19 C 0.03279 0.23901 0.39377 0.0
Tb20 Tb 0.83287 0.82462 0.58712 0.0
C21 C 0.87594 0.80583 0.61843 0.0
Tb22 Tb 0.8097 0.76578 0.59256 0.0
O23 O 0.84877 0.83014 0.7913 0.0
O24 O 0.81234 0.79602 0.72113 0.0
O25 O 0.87221 0.82483 0.57794 0.0
C26 C 0.7924 0.71609 0.64801 0.0
O27 O 0.85474 0.78287 0.644 0.0
C28 C 0.81208 0.78172 0.35779 0.0
C29 C 0.76785 0.7848 0.53674 0.0
O30 O 0.80193 0.72608 0.54013 0.0
O31 O 0.79324 0.73439 0.72551 0.0
O32 O 0.79406 0.75869 0.38799 0.0
O33 O 0.82941 0.79405 0.45575 0.0
O34 O 0.77125 0.76693 0.59239 0.0
O35 O 0.78921 0.80717 0.50874 0.0
C36 C 0.84037 0.87298 0.57085 0.0
O37 O 0.82853 0.85739 0.65979 0.0
O38 O 0.84858 0.86136 0.48854 0.0
C39 C 0.82949 0.80754 0.82009 0.0
Tb40 Tb 0.23854 0.03406 0.62956 0.0
C41 C 0.19105 0.9741 0.59796 0.0
Tb42 Tb 0.25501 0.99098 0.59369 0.0
O43 O 0.22018 0.02394 0.42738 0.0
O44 O 0.25411 0.01971 0.48266 0.0
O45 O 0.19809 0.99809 0.64693 0.0
C46 C 0.27247 0.95948 0.50226 0.0
O47 O 0.20959 0.96811 0.55605 0.0
C48 C 0.24969 1.00032 0.84159 0.0
C49 C 0.30317 0.0498 0.64088 0.0
O50 O 0.27934 0.97188 0.61702 0.0
O51 O 0.25527 0.96456 0.43758 0.0
O52 O 0.25632 0.98339 0.80096 0.0
O53 O 0.24638 0.0102 0.74291 0.0
O54 O 0.29529 0.02598 0.59081 0.0
O55 O 0.28468 0.05639 0.67814 0.0
C56 C 0.23596 0.0774 0.67793 0.0
O57 O 0.24643 0.07197 0.58028 0.0
O58 O 0.22641 0.05798 0.75101 0.0
C59 C 0.2368 0.01611 0.38847 0.0
Tb60 Tb 1.00542 0.76937 0.64687 0.0
C61 C 0.07034 0.78958 0.64376 0.0
Tb62 Tb 0.04708 0.82804 0.64902 0.0
O63 O 0.99117 0.76738 0.44242 0.0
O64 O 0.03167 0.79484 0.51284 0.0
O65 O 0.04536 0.77072 0.66856 0.0
C66 C 0.08349 0.87844 0.61091 0.0
O67 O 0.07515 0.81298 0.61854 0.0
C68 C 0.03957 0.8088 0.87813 0.0
C69 C 0.98165 0.80693 0.65069 0.0
O70 O 0.07224 0.85884 0.52242 0.0
O71 O 0.073 0.86967 0.71936 0.0
O72 O 0.06279 0.82812 0.84747 0.0
O73 O 0.02126 0.80231 0.78436 0.0
O74 O 1.006 0.82561 0.61444 0.0
O75 O 0.97855 0.78484 0.69042 0.0
C76 C 0.97857 0.71873 0.698 0.0
O77 O 0.97212 0.72832 0.60089 0.0
O78 O 0.99963 0.7379 0.7683 0.0
C79 C 0.01413 0.78747 0.41492 0.0
Tb80 Tb 0.24635 0.27631 0.67652 0.0
C81 C 0.29914 0.26921 0.69602 0.0
Tb82 Tb 0.23654 0.22009 0.68521 0.0
O83 O 0.24573 0.28493 0.88627 0.0
O84 O 0.24062 0.25 0.81495 0.0
O85 O 0.28823 0.28335 0.65877 0.0
C86 C 0.23683 0.17571 0.71214 0.0
O87 O 0.28303 0.24488 0.72851 0.0
C88 C 0.23219 0.23479 0.4525 0.0
C89 C 0.18449 0.22938 0.66624 0.0
O90 O 0.24757 0.19136 0.62217 0.0
O91 O 0.22581 0.18519 0.79064 0.0
O92 O 0.21807 0.21101 0.48292 0.0
O93 O 0.24885 0.24858 0.54917 0.0
O94 O 0.19381 0.21375 0.70524 0.0
O95 O 0.2013 0.25327 0.63354 0.0
C96 C 0.25983 0.32271 0.60152 0.0
O97 O 0.23918 0.3008 0.54707 0.0
O98 O 0.272 0.31823 0.69891 0.0
C99 C 0.24198 0.26275 0.9182 0.0
Tb100 Tb 0.80784 0.04786 0.63364 0.0
C101 C 0.76821 0.98997 0.58699 0.0
Tb102 Tb 0.83339 0.01349 0.60972 0.0
O103 O 0.79311 0.03933 0.42724 0.0
O104 O 0.82897 0.0392 0.48878 0.0
O105 O 0.77329 0.01017 0.6663 0.0
C106 C 0.84096 0.97201 0.5823 0.0
O107 O 0.78903 0.98915 0.53384 0.0
C108 C 0.83197 0.02969 0.84855 0.0
C109 C 0.87421 0.07452 0.64627 0.0
O110 O 0.82906 0.9774 0.67356 0.0
O111 O 0.84927 0.99055 0.50373 0.0
O112 O 0.8516 0.02606 0.80918 0.0
O113 O 0.81314 0.02282 0.75628 0.0
O114 O 0.872 0.0517 0.60787 0.0
O115 O 0.85215 0.07668 0.67179 0.0
C116 C 0.78431 0.07735 0.67482 0.0
O117 O 0.77643 0.05837 0.58621 0.0
O118 O 0.80608 0.08007 0.74401 0.0
C119 C 0.8119 0.03425 0.39184 0.0
Tb120 Tb 0.70396 0.5425 0.67847 0.0
C121 C 0.63898 0.50129 0.67283 0.0
Tb122 Tb 0.66516 0.56223 0.71277 0.0
O123 O 0.69884 0.52974 0.87585 0.0
O124 O 0.69688 0.56242 0.83574 0.0
O125 O 0.66347 0.50533 0.63562 0.0
C126 C 0.63084 0.5757 0.81579 0.0
O127 O 0.63588 0.52085 0.71632 0.0
C128 C 0.67655 0.55927 0.47018 0.0
C129 C 0.72735 0.60448 0.70775 0.0
O130 O 0.6392 0.57996 0.69982 0.0
O131 O 0.64121 0.56312 0.87189 0.0
O132 O 0.67045 0.57608 0.51896 0.0
O133 O 0.67309 0.54321 0.55279 0.0
O134 O 0.70348 0.59914 0.7539 0.0
O135 O 0.73157 0.5854 0.66283 0.0
C136 C 0.74298 0.53071 0.61433 0.0
O137 O 0.73576 0.54491 0.55042 0.0
O138 O 0.72798 0.52307 0.71206 0.0
C139 C 0.69372 0.54727 0.92232 0.0
Tb140 Tb 0.48667 0.16639 0.70293 0.0
C141 C 0.54094 0.16054 0.72193 0.0
Tb142 Tb 0.48101 0.11414 0.72565 0.0
O143 O 0.4736 0.16642 0.90097 0.0
O144 O 0.49551 0.14799 0.85313 0.0
O145 O 0.52946 0.17357 0.6716 0.0
C146 C 0.46825 0.07275 0.85288 0.0
O147 O 0.5256 0.13798 0.76983 0.0
C148 C 0.48542 0.12784 0.48585 0.0
C149 C 0.42532 0.11724 0.69212 0.0
O150 O 0.48129 0.07786 0.74727 0.0
O151 O 0.46194 0.09035 0.88248 0.0
O152 O 0.49236 0.11142 0.52763 0.0
O153 O 0.47322 0.13286 0.57303 0.0
O154 O 0.43707 0.10293 0.71017 0.0
O155 O 0.44041 0.14274 0.68125 0.0
C156 C 0.49696 0.21302 0.63678 0.0
O157 O 0.47934 0.19088 0.57327 0.0
O158 O 0.5087 0.20882 0.73698 0.0
C159 C 0.48297 0.1518 0.94219 0.0
Tb160 Tb 0.91179 0.35237 0.71018 0.0
C161 C 0.92873 0.41268 0.71715 0.0
Tb162 Tb 0.97371 0.39647 0.77326 0.0
O163 O 0.91271 0.33884 0.90196 0.0
O164 O 0.93726 0.37795 0.87584 0.0
O165 O 0.90999 0.38808 0.67236 0.0
C166 C 0.02094 0.42855 0.9184 0.0
O167 O 0.9533 0.41928 0.77811 0.0
C168 C 0.96147 0.38468 0.5182 0.0
C169 C 0.95999 0.33788 0.72025 0.0
O170 O 1.01191 0.43431 0.81388 0.0
O171 O 1.00355 0.40467 0.93959 0.0
O172 O 0.9858 0.40289 0.57095 0.0
O173 O 0.94653 0.37489 0.61002 0.0
O174 O 0.97765 0.36183 0.77405 0.0
O175 O 0.93374 0.33043 0.67648 0.0
C176 C 0.85782 0.31776 0.64003 0.0
O177 O 0.87888 0.31945 0.58233 0.0
O178 O 0.8673 0.33628 0.73341 0.0
C179 C 0.93169 0.36126 0.95708 0.0
Tb180 Tb 0.65929 0.12073 0.75886 0.0
C181 C 0.72083 0.1312 0.7251 0.0
Tb182 Tb 0.71022 0.1796 0.74964 0.0
O183 O 0.64799 0.11212 0.54465 0.0
O184 O 0.68063 0.14739 0.62457 0.0
O185 O 0.69393 0.11483 0.73204 0.0
C186 C 0.75206 0.22384 0.67597 0.0
O187 O 0.73202 0.15702 0.73246 0.0
C188 C 0.69775 0.16641 0.99175 0.0
C189 C 0.64669 0.1661 0.7537 0.0
O190 O 0.74782 0.20066 0.64662 0.0
O191 O 0.73221 0.22205 0.74433 0.0
O192 O 0.71744 0.1891 0.96479 0.0
O193 O 0.68821 0.1533 0.88334 0.0
O194 O 0.6715 0.18134 0.70736 0.0
O195 O 0.63968 0.14348 0.80142 0.0
C196 C 0.6405 0.07922 0.89306 0.0
O197 O 0.62423 0.08483 0.82251 0.0
O198 O 0.66631 0.09654 0.88426 0.0
C199 C 0.66773 0.13507 0.51716 0.0
Tb200 Tb 0.96373 0.56893 0.77957 0.0
C201 C 0.94174 0.60861 0.74437 0.0
Tb202 Tb 0.89953 0.5472 0.71709 0.0
O203 O 0.97577 0.57367 0.57631 0.0
O204 O 0.93575 0.56185 0.61997 0.0
O205 O 0.96192 0.60472 0.79134 0.0
C206 C 0.8465 0.52966 0.6246 0.0
O207 O 0.91649 0.58907 0.69962 0.0
C208 C 0.91883 0.55798 0.9669 0.0
C209 C 0.9241 0.50825 0.71321 0.0
O210 O 0.86864 0.5461 0.57151 0.0
O211 O 0.8544 0.52221 0.72636 0.0
O212 O 0.89773 0.55963 0.91961 0.0
O213 O 0.92667 0.549 0.87573 0.0
O214 O 0.90273 0.51173 0.67584 0.0
O215 O 0.94848 0.5274 0.76969 0.0
C216 C 1.01 0.59088 0.94104 0.0
O217 O 1.00603 0.57641 0.83397 0.0
O218 O 0.98816 0.59299 0.95501 0.0
C219 C 0.95065 0.56653 0.52596 0.0
Tb220 Tb 0.47061 0.38976 0.74943 0.0
C221 C 0.42196 0.33007 0.7326 0.0
Tb222 Tb 0.48581 0.34585 0.70676 0.0
O223 O 0.47831 0.40128 0.55073 0.0
O224 O 0.4688 0.36422 0.59296 0.0
O225 O 0.43013 0.35488 0.76572 0.0
C226 C 0.49673 0.30918 0.61954 0.0
O227 O 0.43958 0.32209 0.69891 0.0
C228 C 0.48497 0.35769 0.95897 0.0
C229 C 0.53271 0.40601 0.70667 0.0
O230 O 0.47369 0.30926 0.59145 0.0
O231 O 0.51375 0.33019 0.69302 0.0
O232 O 0.49043 0.3401 0.91608 0.0
O233 O 0.48126 0.36721 0.85972 0.0
O234 O 0.52442 0.38152 0.66328 0.0
O235 O 0.51599 0.41252 0.76413 0.0
C236 C 0.45835 0.42346 0.86086 0.0
O237 O 0.47991 0.42144 0.8957 0.0
O238 O 0.4437 0.40645 0.76319 0.0
C239 C 0.47752 0.3801 0.50677 0.0
Tb240 Tb 0.36937 0.88566 0.30083 0.0
C241 C 0.43398 0.9098 0.32245 0.0
Tb242 Tb 0.40651 0.94534 0.29052 0.0
O243 O 0.37847 0.8798 0.10118 0.0
O244 O 0.37757 0.91306 0.16017 0.0
O245 O 0.41 0.88941 0.3489 0.0
C246 C 0.43679 0.98869 0.17825 0.0
O247 O 0.43589 0.93144 0.28289 0.0
C248 C 0.40198 0.93292 0.53534 0.0
C249 C 0.34428 0.92275 0.33014 0.0
O250 O 0.43505 0.96659 0.1468 0.0
O251 O 0.42177 0.98645 0.27476 0.0
O252 O 0.41533 0.95681 0.50384 0.0
O253 O 0.39305 0.91873 0.42984 0.0
O254 O 0.36521 0.9407 0.27177 0.0
O255 O 0.34445 0.90214 0.37162 0.0
C256 C 0.32571 0.83953 0.32907 0.0
O257 O 0.32613 0.85622 0.25291 0.0
O258 O 0.35041 0.8484 0.38932 0.0
C259 C 0.38281 0.90207 0.06723 0.0
Tb260 Tb 0.19681 0.52184 0.20649 0.0
C261 C 0.24149 0.50668 0.24948 0.0
Tb262 Tb 0.17691 0.46619 0.2285 0.0
O263 O 0.20941 0.53099 0.41675 0.0
O264 O 0.17554 0.49525 0.3481 0.0
O265 O 0.23576 0.52255 0.18852 0.0
C266 C 0.16355 0.41996 0.31104 0.0
O267 O 0.22158 0.48418 0.28415 0.0
C268 C 0.18041 0.47919 0.98627 0.0
C269 C 0.13197 0.48144 0.17344 0.0
O270 O 0.17538 0.44179 0.38323 0.0
O271 O 0.15975 0.42432 0.19225 0.0
O272 O 0.16256 0.45657 1.02102 0.0
O273 O 0.19723 0.4925 0.08402 0.0
O274 O 0.13738 0.465 0.23158 0.0
O275 O 0.15225 0.50447 0.14606 0.0
C276 C 0.21026 0.56857 0.13365 0.0
O277 O 0.22057 0.56407 0.23762 0.0
O278 O 0.19186 0.54662 0.07128 0.0
C279 C 0.19131 0.50826 0.44862 0.0
Tb280 Tb 0.58964 0.72373 0.29498 0.0
C281 C 0.54341 0.66683 0.21987 0.0
Tb282 Tb 0.60714 0.68507 0.24236 0.0
O283 O 0.57827 0.72341 0.08783 0.0
O284 O 0.60992 0.71631 0.14187 0.0
O285 O 0.54974 0.68777 0.29705 0.0
C286 C 0.61276 0.64852 0.11386 0.0
O287 O 0.56324 0.66383 0.1719 0.0
C288 C 0.60323 0.6943 0.4916 0.0
C289 C 0.6541 0.74061 0.33385 0.0
O290 O 0.6159 0.66949 0.06842 0.0
O291 O 0.60769 0.6485 0.23529 0.0
O292 O 0.62078 0.68783 0.44951 0.0
O293 O 0.58722 0.69286 0.39577 0.0
O294 O 0.64848 0.71868 0.26851 0.0
O295 O 0.63439 0.7459 0.36421 0.0
C296 C 0.57775 0.75888 0.39406 0.0
O297 O 0.59843 0.7562 0.43668 0.0
O298 O 0.5642 0.74206 0.29543 0.0
C299 C 0.59475 0.71588 1.04526 0.0
Tb300 Tb 0.355 0.46222 0.26117 0.0
C301 C 0.41396 0.47381 0.17948 0.0
Tb302 Tb 0.40543 0.5214 0.25994 0.0
O303 O 0.34403 0.45486 0.04806 0.0
O304 O 0.37426 0.49068 0.13212 0.0
O305 O 0.38973 0.4568 0.22177 0.0
C306 C 0.4414 0.56917 0.20257 0.0
O307 O 0.42391 0.49931 0.182 0.0
C308 C 0.3971 0.50479 0.49924 0.0
C309 C 0.34417 0.50867 0.28723 0.0
O310 O 0.44249 0.54847 0.16848 0.0
O311 O 0.41991 0.56289 0.26799 0.0
O312 O 0.41707 0.52745 0.47444 0.0
O313 O 0.38532 0.49321 0.38973 0.0
O314 O 0.36764 0.52387 0.23364 0.0
O315 O 0.33721 0.48535 0.32329 0.0
C316 C 0.32209 0.41722 0.35436 0.0
O317 O 0.31355 0.42835 0.27361 0.0
O318 O 0.34896 0.43143 0.38191 0.0
C319 C 0.36275 0.47824 1.02328 0.0
Tb320 Tb 0.60765 0.95604 0.35144 0.0
C321 C 0.65205 0.93997 0.40447 0.0
Tb322 Tb 0.58685 0.89995 0.37393 0.0
O323 O 0.62136 0.96711 0.55965 0.0
O324 O 0.58819 0.9301 0.49746 0.0
O325 O 0.64707 0.95665 0.34574 0.0
C326 C 0.57518 0.85309 0.44004 0.0
O327 O 0.63155 0.91747 0.43666 0.0
C328 C 0.5923 0.91399 0.13146 0.0
C329 C 0.54229 0.91693 0.3558 0.0
O330 O 0.59541 0.87506 0.49416 0.0
O331 O 0.5617 0.85762 0.34905 0.0
O332 O 0.57416 0.89122 0.1626 0.0
O333 O 0.60798 0.92647 0.2325 0.0
O334 O 0.54772 0.89932 0.39996 0.0
O335 O 0.56246 0.93941 0.32198 0.0
C336 C 0.61412 0.99697 0.23124 0.0
O337 O 0.59659 0.9729 0.19245 0.0
O338 O 0.6281 0.99812 0.33902 0.0
C339 C 0.6048 0.94397 0.59469 0.0
Tb340 Tb 0.15392 0.72012 0.3157 0.0
C341 C 0.11574 0.66018 0.23172 0.0
Tb342 Tb 0.18138 0.68552 0.27591 0.0
O343 O 0.14082 0.71605 0.10748 0.0
O344 O 0.1745 0.71171 0.16847 0.0
O345 O 0.11726 0.68127 0.28972 0.0
C346 C 0.20259 0.65889 0.16595 0.0
O347 O 0.13798 0.65843 0.20797 0.0
C348 C 0.17023 0.68919 0.5226 0.0
C349 C 0.2199 0.74576 0.34205 0.0
O350 O 0.1789 0.65688 0.12904 0.0
O351 O 0.21429 0.67583 0.26659 0.0
O352 O 0.18039 0.67497 0.48131 0.0
O353 O 0.16622 0.69856 0.42349 0.0
O354 O 0.21784 0.7242 0.28717 0.0
O355 O 0.19799 0.74773 0.37201 0.0
C356 C 0.13349 0.74605 0.44006 0.0
O357 O 0.14961 0.75453 0.34541 0.0
O358 O 0.12859 0.72299 0.46153 0.0
C359 C 0.15786 0.70841 0.07098 0.0
C360 C 0.15558 0.39189 0.49367 0.0
C361 C 0.15157 0.39409 0.36019 0.0
C362 C 0.14125 0.36778 0.54578 0.0
C363 C 0.12221 0.34525 0.46617 0.0
H364 H 0.16918 0.40902 0.55909 0.0
H365 H 0.14424 0.36698 0.64967 0.0
S366 S 0.10596 0.34029 0.10875 0.0
N367 N 0.12874 0.37139 0.14811 0.0
N368 N 0.1014 0.32629 0.24631 0.0
C369 C 0.11888 0.34704 0.33179 0.0
C370 C 0.1337 0.37144 0.27861 0.0
C371 C 0.71726 0.76433 0.56925 0.0
C372 C 0.73928 0.77813 0.49152 0.0
C373 C 0.68943 0.75431 0.52041 0.0
C374 C 0.68282 0.75731 0.39165 0.0
H375 H 0.72154 0.76051 0.66679 0.0
H376 H 0.67293 0.74269 0.58082 0.0
S377 S 0.73269 0.7923 0.14991 0.0
N378 N 0.75266 0.79538 0.28175 0.0
N379 N 0.70013 0.77537 0.18847 0.0
C380 C 0.70457 0.77173 0.3144 0.0
C381 C 0.73293 0.78252 0.36498 0.0
C382 C 0.29952 0.93732 0.53986 0.0
C383 C 0.2861 0.94555 0.451 0.0
C384 C 0.317 0.92833 0.4982 0.0
C385 C 0.32222 0.92794 0.36676 0.0
H386 H 0.2973 0.93871 0.64323 0.0
H387 H 0.32778 0.92312 0.57041 0.0
S388 S 0.2901 0.94475 0.09338 0.0
N389 N 0.27695 0.95008 0.22367 0.0
N390 N 0.3112 0.93454 0.14633 0.0
C391 C 0.30807 0.93499 0.27598 0.0
C392 C 0.28954 0.94338 0.31788 0.0
C393 C 0.35184 0.06102 0.5995 0.0
C394 C 0.33406 0.06911 0.65046 0.0
C395 C 0.38089 0.0772 0.61023 0.0
C396 C 0.39409 0.1026 0.67152 0.0
H397 H 0.34344 0.04167 0.55165 0.0
H398 H 0.3932 0.06946 0.57081 0.0
S399 S 0.35788 0.13447 0.81618 0.0
N400 N 0.33218 0.10513 0.76103 0.0
N401 N 0.38717 0.13572 0.78014 0.0
C402 C 0.37684 0.11159 0.71912 0.0
C403 C 0.34685 0.09485 0.70905 0.0
C404 C 1.00039 0.3298 0.73347 0.0
C405 C 0.97143 0.31969 0.70552 0.0
C406 C 1.01271 0.31438 0.71749 0.0
C407 C 0.9969 0.28774 0.67425 0.0
H408 H 0.0141 0.35013 0.76641 0.0
H409 H 0.03512 0.32363 0.73936 0.0
S410 S 0.92018 0.25087 0.58933 0.0
N411 N 0.9271 0.28069 0.63274 0.0
N412 N 0.95037 0.25164 0.60527 0.0
C413 C 0.96782 0.27698 0.64845 0.0
C414 C 0.95514 0.29292 0.66304 0.0
C415 C 0.77734 0.66925 0.57494 0.0
C416 C 0.77935 0.68786 0.67195 0.0
C417 C 0.76233 0.64226 0.59045 0.0
C418 C 0.74852 0.63275 0.70326 0.0
H419 H 0.78659 0.6755 0.48418 0.0
H420 H 0.76018 0.62873 0.51048 0.0
S421 S 0.74956 0.67325 0.99155 0.0
N422 N 0.76797 0.69459 0.88919 0.0
N423 N 0.73978 0.64443 0.91746 0.0
C424 C 0.75154 0.65126 0.80307 0.0
C425 C 0.76692 0.6786 0.78778 0.0
C426 C 0.98051 0.68281 0.80626 0.0
C427 C 0.96689 0.69046 0.71521 0.0
C428 C 0.97177 0.65642 0.81668 0.0
C429 C 0.94875 0.63631 0.7376 0.0
H430 H 0.99864 0.69737 0.86791 0.0
H431 H 0.98348 0.65182 0.88677 0.0
S432 S 0.90509 0.64582 0.48657 0.0
N433 N 0.92865 0.67564 0.54636 0.0
N434 N 0.91202 0.62619 0.56695 0.0
C435 C 0.93438 0.64367 0.64871 0.0
C436 C 0.94351 0.67064 0.63717 0.0
C437 C 0.3469 0.27558 0.77791 0.0
C438 C 0.33052 0.28193 0.69512 0.0
C439 C 0.37664 0.29025 0.78677 0.0
C440 C 0.39101 0.31179 0.71329 0.0
H441 H 0.33676 0.2599 0.83995 0.0
H442 H 0.38837 0.28538 0.85524 0.0
S443 S 0.35866 0.33462 0.47013 0.0
N444 N 0.33189 0.30998 0.52833 0.0
N445 N 0.38673 0.3372 0.548 0.0
C446 C 0.37495 0.31745 0.62644 0.0
C447 C 0.34507 0.30263 0.61646 0.0
C448 C 0.76678 0.13107 0.7517 0.0
C449 C 0.73814 0.11861 0.70743 0.0
C450 C 0.78189 0.11773 0.74513 0.0
C451 C 0.7689 0.09161 0.6927 0.0
H452 H 0.77743 0.15102 0.79399 0.0
H453 H 0.80385 0.128 0.77951 0.0
S454 S 0.69452 0.04982 0.56579 0.0
N455 N 0.69779 0.07824 0.60859 0.0
N456 N 0.72577 0.05373 0.59943 0.0
C457 C 0.74045 0.07909 0.64843 0.0
C458 C 0.72521 0.09242 0.65473 0.0
C459 C 0.68954 0.9504 0.57917 0.0
C460 C 0.68124 0.94797 0.44578 0.0
C461 C 0.71794 0.96259 0.62426 0.0
C462 C 0.73885 0.9719 0.53702 0.0
H463 H 0.67412 0.94439 0.64976 0.0
H464 H 0.72364 0.96573 0.72837 0.0
S465 S 0.7276 0.9683 0.17735 0.0
N466 N 0.69581 0.95481 0.22664 0.0
N467 N 0.74912 0.97649 0.31046 0.0
C468 C 0.73063 0.96806 0.40276 0.0
C469 C 0.7018 0.95643 0.35731 0.0
C470 C 0.10997 0.79416 0.52151 0.0
C471 C 0.09133 0.78212 0.61664 0.0
C472 C 0.12462 0.78299 0.46807 0.0
C473 C 0.12132 0.75963 0.50944 0.0
H474 H 0.11193 0.81137 0.48192 0.0
H475 H 0.13755 0.79205 0.38988 0.0
S476 S 0.07994 0.7237 0.77651 0.0
N477 N 0.07385 0.74791 0.76438 0.0
N478 N 0.1016 0.72709 0.66539 0.0
C479 C 0.10488 0.74881 0.61321 0.0
C480 C 0.08986 0.76006 0.6668 0.0
C481 C 0.31484 0.38979 0.53558 0.0
C482 C 0.30424 0.39367 0.41792 0.0
C483 C 0.29926 0.36741 0.59826 0.0
C484 C 0.27271 0.34776 0.54415 0.0
H485 H 0.33548 0.40412 0.57959 0.0
H486 H 0.30869 0.36509 0.68728 0.0
S487 S 0.23512 0.34899 0.23972 0.0
N488 N 0.26513 0.37682 0.25201 0.0
N489 N 0.23593 0.33394 0.36851 0.0
C490 C 0.26142 0.35166 0.42835 0.0
C491 C 0.27721 0.37483 0.3653 0.0
C492 C 0.05432 0.43643 0.10776 0.0
C493 C 0.04795 0.44528 0.99483 0.0
C494 C 0.08121 0.4496 0.17165 0.0
C495 C 0.10273 0.47209 0.12474 0.0
H496 H 0.03876 0.41855 0.14407 0.0
H497 H 0.08545 0.4413 0.25462 0.0
S498 S 0.09562 0.50504 0.84188 0.0
N499 N 0.06425 0.47929 0.84616 0.0
N500 N 0.11503 0.50412 0.9658 0.0
C501 C 0.09604 0.48228 1.01765 0.0
C502 C 0.06855 0.4688 0.9525 0.0
C503 C 0.61992 0.59026 1.02284 0.0
C504 C 0.62004 0.59027 0.88648 0.0
C505 C 0.61655 0.60869 0.09653 0.0
C506 C 0.61332 0.62762 1.03571 0.0
H507 H 0.62403 0.57694 0.07372 0.0
H508 H 0.61776 0.60883 0.20174 0.0
S509 S 0.60733 0.63298 0.68006 0.0
N510 N 0.61304 0.60855 0.6926 0.0
N511 N 0.60678 0.64322 0.83089 0.0
C512 C 0.61131 0.62657 0.89892 0.0
C513 C 0.61456 0.60777 0.82412 0.0
C514 C 0.45435 0.0531 0.06037 0.0
C515 C 0.46291 0.05177 0.9357 0.0
C516 C 0.44744 0.03312 0.14118 0.0
C517 C 0.44877 0.01107 0.1001 0.0
H518 H 0.4525 0.06954 0.0955 0.0
H519 H 0.44013 0.03463 0.23479 0.0
S520 S 0.47143 0.99883 0.78521 0.0
N521 N 0.47368 0.02737 0.77689 0.0
N522 N 0.46057 0.98945 0.92942 0.0
C523 C 0.45843 0.00991 0.97782 0.0
C524 C 0.4655 0.03038 0.89517 0.0
C525 C 0.60656 0.03577 0.96796 0.0
C526 C 0.63245 0.05899 0.98506 0.0
C527 C 0.60042 0.01586 0.05043 0.0
C528 C 0.61968 0.01893 0.15416 0.0
H529 H 0.59146 0.03262 0.88808 0.0
H530 H 0.58064 0.99782 1.03169 0.0
S531 S 0.68963 0.07673 0.24468 0.0
N532 N 0.67714 0.08417 0.11591 0.0
N533 N 0.66499 0.04728 0.27218 0.0
C534 C 0.64508 0.04243 0.17503 0.0
C535 C 0.65162 0.06234 0.08995 0.0
C536 C 0.08657 0.62412 0.05978 0.0
C537 C 0.08816 0.63905 0.17368 0.0
C538 C 0.06093 0.60742 0.98791 0.0
C539 C 0.03604 0.60504 1.02782 0.0
H540 H 0.10539 0.62641 1.0214 0.0
H541 H 0.06081 0.59733 0.8974 0.0
S542 S 0.02819 0.63598 0.33142 0.0
N543 N 0.06217 0.64768 0.33174 0.0
N544 N 0.01395 0.61613 0.19732 0.0
C545 C 0.03705 0.61826 0.14662 0.0
C546 C 0.06314 0.63534 0.21942 0.0
C547 C 0.4099 0.4434 0.99835 0.0
C548 C 0.42692 0.46261 0.09885 0.0
C549 C 0.42073 0.43182 0.91767 0.0
C550 C 0.44888 0.43871 0.93619 0.0
H551 H 0.38794 0.43727 0.9817 0.0
H552 H 0.40666 0.41675 0.84312 0.0
S553 S 0.50241 0.48882 0.18249 0.0
N554 N 0.47346 0.48909 0.20895 0.0
N555 N 0.49393 0.46657 0.05965 0.0
C556 C 0.46635 0.45832 1.03466 0.0
C557 C 0.45534 0.47053 0.11543 0.0
C558 C 0.11452 0.21959 0.7603 0.0
C559 C 0.10227 0.22125 0.64061 0.0
C560 C 0.13997 0.21935 0.76763 0.0
C561 C 0.15407 0.22082 0.65555 0.0
H562 H 0.10567 0.22064 0.84996 0.0
H563 H 0.14978 0.22018 0.86264 0.0
S564 S 0.12938 0.22285 0.31803 0.0
N565 N 0.10517 0.22216 0.40707 0.0
N566 N 0.1526 0.22196 0.42092 0.0
C567 C 0.141 0.22075 0.53507 0.0
C568 C 0.11526 0.2209 0.52761 0.0
C569 C 0.83295 0.93119 0.67454 0.0
C570 C 0.84288 0.94776 0.57354 0.0
C571 C 0.83278 0.90759 0.67181 0.0
C572 C 0.84253 0.89907 0.56793 0.0
H573 H 0.82487 0.93633 0.75717 0.0
H574 H 0.82458 0.89577 0.75245 0.0
S575 S 0.87141 0.93517 0.27886 0.0
N576 N 0.8633 0.95405 0.36621 0.0
N577 N 0.86299 0.90953 0.36105 0.0
C578 C 0.85296 0.91551 0.46639 0.0
C579 C 0.85314 0.93982 0.4692 0.0
C580 C 0.12008 0.92387 0.70506 0.0
C581 C 0.10851 0.90469 0.59833 0.0
C582 C 0.1459 0.94723 0.70177 0.0
C583 C 0.16143 0.95215 0.59236 0.0
H584 H 0.1096 0.92043 0.7938 0.0
H585 H 0.15446 0.9608 0.78814 0.0
S586 S 0.13943 0.90966 0.28297 0.0
N587 N 0.11383 0.89359 0.37598 0.0
N588 N 0.16229 0.93674 0.37129 0.0
C589 C 0.14951 0.93368 0.48327 0.0
C590 C 0.12311 0.91021 0.48576 0.0
C591 C 0.24961 0.14454 0.61703 0.0
C592 C 0.23658 0.15069 0.7146 0.0
C593 C 0.24925 0.12096 0.60844 0.0
C594 C 0.2359 0.10224 0.6971 0.0
H595 H 0.26007 0.158 0.54488 0.0
H596 H 0.25952 0.11739 0.53023 0.0
S597 S 0.19924 0.10883 0.9741 0.0
N598 N 0.21028 0.13627 0.90438 0.0
N599 N 0.20973 0.09164 0.88844 0.0
C600 C 0.22309 0.10813 0.79701 0.0
C601 C 0.2234 0.1324 0.80569 0.0
C602 C 0.9006 0.12224 0.62742 0.0
C603 C 0.90135 0.09952 0.65038 0.0
C604 C 0.92498 0.14653 0.63239 0.0
C605 C 0.95146 0.14957 0.66227 0.0
H606 H 0.88089 0.12133 0.60352 0.0
H607 H 0.92296 0.16318 0.61225 0.0
S608 S 0.96549 0.09663 0.73189 0.0
N609 N 0.93109 0.08169 0.70433 0.0
N610 N 0.97721 0.12776 0.7157 0.0
C611 C 0.95279 0.12719 0.68669 0.0
C612 C 0.92771 0.1021 0.67974 0.0
C613 C 0.93472 0.79409 0.72454 0.0
C614 C 0.95667 0.8101 0.65045 0.0
C615 C 0.90932 0.79373 0.71652 0.0
C616 C 0.90452 0.80942 0.63429 0.0
H617 H 0.93684 0.78115 0.78802 0.0
H618 H 0.89309 0.78057 0.77399 0.0
S619 S 0.95557 0.8561 0.42482 0.0
N620 N 0.97236 0.8431 0.49614 0.0
N621 N 0.92445 0.84251 0.48137 0.0
C622 C 0.92665 0.82648 0.5638 0.0
C623 C 0.95273 0.8268 0.57177 0.0
C624 C 0.79716 0.51095 0.67874 0.0
C625 C 0.81821 0.52613 0.59895 0.0
C626 C 0.7722 0.51148 0.67712 0.0
C627 C 0.76723 0.52719 0.59554 0.0
H628 H 0.80054 0.49955 0.74802 0.0
H629 H 0.75721 0.50035 0.74478 0.0
S630 S 0.81421 0.56831 0.3567 0.0
N631 N 0.83135 0.55556 0.42727 0.0
N632 N 0.78435 0.5565 0.42429 0.0
C633 C 0.78724 0.54112 0.50884 0.0
C634 C 0.81275 0.54059 0.51051 0.0
C635 C 0.47836 0.26293 0.5355 0.0
C636 C 0.50001 0.28612 0.60191 0.0
C637 C 0.47839 0.23947 0.54003 0.0
C638 C 0.49986 0.23841 0.61262 0.0
H639 H 0.46061 0.26262 0.48487 0.0
H640 H 0.46068 0.22184 0.49262 0.0
S641 S 0.56323 0.29423 0.78852 0.0
N642 N 0.54508 0.30702 0.72979 0.0
N643 N 0.54474 0.2629 0.74041 0.0
C644 C 0.52249 0.26171 0.67215 0.0
C645 C 0.52267 0.28561 0.66612 0.0
C646 C 0.78337 0.27204 0.71476 0.0
C647 C 0.77707 0.24836 0.64803 0.0
C648 C 0.80896 0.29488 0.70499 0.0
C649 C 0.82907 0.29493 0.62711 0.0
H650 H 0.76904 0.27273 0.78001 0.0
H651 H 0.81348 0.31235 0.76346 0.0
S652 S 0.8211 0.23869 0.41901 0.0
N653 N 0.79185 0.22684 0.49169 0.0
N654 N 0.83974 0.26978 0.47221 0.0
C655 C 0.8222 0.27177 0.55293 0.0
C656 C 0.79625 0.24846 0.56381 0.0
C657 C 0.89929 0.459 0.72639 0.0
C658 C 0.92202 0.48226 0.69054 0.0
C659 C 0.90036 0.4357 0.7273 0.0
C660 C 0.92418 0.4349 0.69219 0.0
H661 H 0.8813 0.45918 0.76093 0.0
H662 H 0.88318 0.41872 0.76257 0.0
S663 S 0.98714 0.48921 0.5709 0.0
N664 N 0.96746 0.50182 0.60479 0.0
N665 N 0.96943 0.45872 0.60635 0.0
C666 C 0.94603 0.45757 0.64807 0.0
C667 C 0.94497 0.48101 0.64727 0.0
C668 C 0.58604 0.4297 0.7149 0.0
C669 C 0.56037 0.4281 0.67739 0.0
C670 C 0.61196 0.45283 0.70539 0.0
C671 C 0.61299 0.47501 0.65743 0.0
H672 H 0.58606 0.41357 0.75826 0.0
H673 H 0.6311 0.45384 0.74255 0.0
S674 S 0.55192 0.47913 0.52654 0.0
N675 N 0.53809 0.44971 0.57669 0.0
N676 N 0.58602 0.49243 0.5578 0.0
C677 C 0.58749 0.47277 0.61155 0.0
C678 C 0.56143 0.44956 0.62179 0.0
C679 C 0.61221 0.17459 0.62909 0.0
C680 C 0.6246 0.17324 0.74907 0.0
C681 C 0.58603 0.17333 0.62096 0.0
C682 C 0.5716 0.17084 0.73271 0.0
H683 H 0.6216 0.17438 0.53989 0.0
H684 H 0.57603 0.17209 0.52578 0.0
S685 S 0.59708 0.17028 0.07126 0.0
N686 N 0.62179 0.17204 0.98255 0.0
N687 N 0.57326 0.17008 0.96784 0.0
C688 C 0.58501 0.1717 0.85379 0.0
C689 C 0.61132 0.17279 0.86185 0.0
C690 C 0.51163 0.93583 0.36315 0.0
C691 C 0.51401 0.91349 0.35658 0.0
C692 C 0.48566 0.93408 0.35581 0.0
C693 C 0.46066 0.90988 0.34074 0.0
H694 H 0.53005 0.95507 0.37334 0.0
H695 H 0.48535 0.9521 0.36085 0.0
S696 S 0.45521 0.84527 0.32418 0.0
N697 N 0.4892 0.86621 0.33952 0.0
N698 N 0.43985 0.86287 0.32465 0.0
C699 C 0.46254 0.88723 0.33844 0.0
C700 C 0.48932 0.88904 0.34651 0.0
C701 C 0.231 0.63825 0.20386 0.0
C702 C 0.21047 0.63971 0.12592 0.0
C703 C 0.23268 0.61568 0.19635 0.0
C704 C 0.21397 0.59408 0.11038 0.0
H705 H 0.24417 0.65361 0.27907 0.0
H706 H 0.24721 0.61443 0.26565 0.0
S707 S 0.16159 0.59105 0.86191 0.0
N708 N 0.17494 0.61998 0.94239 0.0
N709 N 0.17816 0.57739 0.92821 0.0
C710 C 0.19593 0.59664 1.02007 0.0
C711 C 0.19417 0.61962 1.02788 0.0
C712 C 0.50897 0.62365 0.10807 0.0
C713 C 0.51463 0.64439 0.19972 0.0
C714 C 0.48423 0.59976 0.10418 0.0
C715 C 0.46404 0.59583 0.19027 0.0
H716 H 0.52437 0.62533 1.04296 0.0
H717 H 0.4815 0.58391 1.03722 0.0
S718 S 0.4665 0.64488 0.43454 0.0
N719 N 0.4965 0.66028 0.36856 0.0
N720 N 0.44953 0.61527 0.35938 0.0
C721 C 0.46815 0.61698 0.27433 0.0
C722 C 0.49359 0.64135 0.27936 0.0
C723 C 0.59498 0.80277 0.50677 0.0
C724 C 0.57359 0.78067 0.43217 0.0
C725 C 0.59428 0.82591 0.51844 0.0
C726 C 0.57219 0.82751 0.45572 0.0
H727 H 0.61323 0.80275 0.54895 0.0
H728 H 0.61205 0.84306 0.56913 0.0
S729 S 0.50844 0.77347 0.27262 0.0
N730 N 0.52772 0.76057 0.31246 0.0
N731 N 0.52646 0.80409 0.33416 0.0
C732 C 0.54944 0.80484 0.39191 0.0
C733 C 0.55013 0.78134 0.38015 0.0
C734 C 0.27475 0.8161 0.33656 0.0
C735 C 0.29985 0.81578 0.35037 0.0
C736 C 0.24905 0.79349 0.34094 0.0
C737 C 0.24751 0.7696 0.35632 0.0
H738 H 0.27491 0.83394 0.31961 0.0
H739 H 0.23025 0.7946 0.32597 0.0
S740 S 0.30746 0.75886 0.40648 0.0
N741 N 0.32202 0.79029 0.38934 0.0
N742 N 0.27335 0.74718 0.39402 0.0
C743 C 0.27254 0.76914 0.37508 0.0
C744 C 0.29887 0.79244 0.37331 0.0
C745 C 0.31473 0.52442 0.18523 0.0
C746 C 0.3227 0.51583 0.29469 0.0
C747 C 0.28882 0.52315 0.17435 0.0
C748 C 0.27046 0.51305 0.27227 0.0
H749 H 0.32737 0.53 0.10326 0.0
H750 H 0.2823 0.52819 0.08505 0.0
S751 S 0.28484 0.49407 0.59026 0.0
N752 N 0.31277 0.50158 0.51209 0.0
N753 N 0.26387 0.49875 0.49056 0.0
C754 C 0.27951 0.50699 0.38737 0.0
C755 C 0.30583 0.50855 0.39899 0.0
C756 C 0.01958 0.23772 0.15686 0.0
C757 C 0.04063 0.24481 0.25875 0.0
C758 C 0.02606 0.24263 1.02775 0.0
C759 C 0.0539 0.25498 0.99546 0.0
H760 H 0.99784 0.22833 0.17694 0.0
H761 H 1.00912 0.23694 0.95298 0.0
S762 S 0.1168 0.27664 0.2247 0.0
N763 N 0.09047 0.26404 0.31708 0.0
N764 N 0.10268 0.27363 0.07547 0.0
C765 C 0.07515 0.26194 0.09602 0.0
C766 C 0.06853 0.2568 0.22736 0.0
C767 C 0.84107 0.80961 0.18843 0.0
C768 C 0.81578 0.78876 0.22144 0.0
C769 C 0.84534 0.81527 0.0581 0.0
C770 C 0.82447 0.80042 0.95602 0.0
H771 H 0.85785 0.82137 0.26339 0.0
H772 H 0.86525 0.83142 1.03721 0.0
S773 S 0.7537 0.74494 0.99234 0.0
N774 N 0.7691 0.75385 0.14206 0.0
N775 N 0.77698 0.76484 0.8985 0.0
C776 C 0.79887 0.77987 0.98825 0.0
C777 C 0.79458 0.774 0.12061 0.0
C778 C 0.22098 0.01063 0.15076 0.0
C779 C 0.24059 0.01235 0.24916 0.0
C780 C 0.22453 1.00792 1.01789 0.0
C781 C 0.24763 1.00651 0.97934 0.0
H782 H 0.20267 0.01128 0.17654 0.0
H783 H 0.2087 1.00609 0.94528 0.0
S784 S 0.30661 0.01319 0.19609 0.0
N785 N 0.28523 0.01477 0.29658 0.0
N786 N 0.29135 0.00889 0.04802 0.0
C787 C 0.26763 0.00876 0.07606 0.0
C788 C 0.26426 0.01187 0.21077 0.0
C789 C 1.00586 0.78773 0.04665 0.0
C790 C 0.03357 0.80261 1.01432 0.0
C791 C 0.99983 0.78327 0.17668 0.0
C792 C 0.02124 0.79349 0.27929 0.0
H793 H 0.98866 0.77975 0.97129 0.0
H794 H 0.97817 0.77174 0.19695 0.0
S795 S 0.09739 0.83241 0.24489 0.0
N796 N 0.08267 0.82666 0.0947 0.0
N797 N 0.07138 0.8183 0.33804 0.0
C798 C 0.04905 0.80809 0.24776 0.0
C799 C 0.05518 0.81258 0.11555 0.0
C800 C 0.21945 0.22329 0.21166 0.0
C801 C 0.23491 0.24222 0.31656 0.0
C802 C 0.22241 0.22964 0.08167 0.0
C803 C 0.24047 0.25525 0.05282 0.0
H804 H 0.20502 0.20337 0.22994 0.0
H805 H 0.20999 0.21463 1.00382 0.0
S806 S 0.28683 0.31164 0.28922 0.0
N807 N 0.27029 0.28729 0.38014 0.0
N808 N 0.27466 0.2994 0.13752 0.0
C809 C 0.2561 0.27425 0.15613 0.0
C810 C 0.25363 0.26771 0.28766 0.0
C811 C 0.79781 0.03032 0.15543 0.0
C812 C 0.8175 0.03268 0.25472 0.0
C813 C 0.80286 0.02991 1.02407 0.0
C814 C 0.82783 0.03194 0.98755 0.0
H815 H 0.77831 0.0288 0.17924 0.0
H816 H 0.78699 0.02778 0.9508 0.0
S817 S 0.88646 0.03919 0.21069 0.0
N818 N 0.863 0.03738 0.30805 0.0
N819 N 0.8728 0.03697 0.06137 0.0
C820 C 0.84785 0.0346 0.08606 0.0
C821 C 0.84258 0.03482 0.2197 0.0
C822 C 0.68586 0.53198 0.14654 0.0
C823 C 0.68965 0.55105 0.06161 0.0
C824 C 0.68192 0.53481 0.27872 0.0
C825 C 0.68149 0.5568 0.33115 0.0
H826 H 0.6858 0.51459 0.11054 0.0
H827 H 0.67895 0.51956 0.33983 0.0
S828 S 0.6919 0.61305 0.15254 0.0
N829 N 0.69389 0.59323 1.04178 0.0
N830 N 0.68616 0.59844 0.2886 0.0
C831 C 0.6856 0.57616 0.24775 0.0
C832 C 0.68974 0.57333 0.11347 0.0
C833 C 0.47068 0.14622 0.30351 0.0
C834 C 0.48533 0.13405 0.34748 0.0
C835 C 0.46996 0.15176 0.17262 0.0
C836 C 0.48394 0.14547 0.08015 0.0
H837 H 0.45943 0.15129 0.37036 0.0
H838 H 0.45828 0.16102 0.1437 0.0
S839 S 0.52586 0.11392 0.14606 0.0
N840 N 0.51435 0.11609 0.28779 0.0
N841 N 0.51343 0.12683 1.04392 0.0
C842 C 0.49887 0.1335 0.12336 0.0
C843 C 0.49943 0.12771 0.25625 0.0
C844 C 0.95836 0.39229 0.1549 0.0
C845 C 0.93936 0.36686 0.10024 0.0
C846 C 0.96546 0.3978 0.29025 0.0
C847 C 0.9532 0.37826 0.37633 0.0
H848 H 0.96779 0.40808 0.09293 0.0
H849 H 0.98037 0.41762 0.32797 0.0
S850 S 0.9028 0.30848 0.28387 0.0
N851 N 0.90901 0.32179 0.14398 0.0
N852 N 0.92178 0.3325 0.39738 0.0
C853 C 0.93413 0.35286 0.32338 0.0
C854 C 0.92735 0.34708 0.18562 0.0
C855 C 0.66819 0.13351 0.1463 0.0
C856 C 0.6884 0.15901 0.12462 0.0
C857 C 0.66144 0.126 0.27295 0.0
C858 C 0.67394 0.14401 0.38357 0.0
H859 H 0.6575 0.11922 0.06518 0.0
H860 H 0.64647 0.10583 0.28412 0.0
S861 S 0.72152 0.21499 0.37617 0.0
N862 N 0.71704 0.20328 0.22309 0.0
N863 N 0.703 0.18969 0.45885 0.0
C864 C 0.69212 0.17012 0.36204 0.0
C865 C 0.69958 0.17754 0.23343 0.0
C866 C 0.91429 0.56735 0.20294 0.0
C867 C 0.92703 0.5597 0.10922 0.0
C868 C 0.92132 0.5688 0.33778 0.0
C869 C 0.94178 0.56317 0.38419 0.0
H870 H 0.89873 0.57228 0.17199 0.0
H871 H 0.91122 0.57505 0.40588 0.0
S872 S 0.98003 0.5405 0.18193 0.0
N873 N 0.95963 0.54449 0.07509 0.0
N874 N 0.97398 0.5488 0.32645 0.0
C875 C 0.95452 0.55535 0.29204 0.0
C876 C 0.94685 0.55319 0.15526 0.0
C877 C 0.49514 0.35649 0.19665 0.0
C878 C 0.48219 0.36333 0.09761 0.0
C879 C 0.49299 0.36129 0.32927 0.0
C880 C 0.47805 0.37336 0.36743 0.0
H881 H 0.5073 0.34756 0.17152 0.0
H882 H 0.50362 0.35609 0.40221 0.0
S883 S 0.43614 0.39069 0.14832 0.0
N884 N 0.45062 0.37935 0.04848 0.0
N885 N 0.44773 0.38957 0.29697 0.0
C886 C 0.46426 0.37951 0.26989 0.0
C887 C 0.46603 0.37419 0.13507 0.0
C888 C 0.39494 0.90199 0.70571 0.0
C889 C 0.39596 0.9248 0.66938 0.0
C890 C 0.39096 0.89501 0.83471 0.0
C891 C 0.38724 0.91026 0.9318 0.0
H892 H 0.3979 0.88978 0.63476 0.0
H893 H 0.39082 0.87749 0.85845 0.0
S894 S 0.3846 0.97014 0.88114 0.0
N895 N 0.39129 0.96181 0.73822 0.0
N896 N 0.38235 0.94806 0.97771 0.0
C897 C 0.38717 0.93261 0.89487 0.0
C898 C 0.3919 0.94003 0.76452 0.0
C899 C 0.2055 0.50981 0.81646 0.0
C900 C 0.18265 0.48652 0.84927 0.0
C901 C 0.20803 0.51662 0.68695 0.0
C902 C 0.18775 0.50049 0.58484 0.0
H903 H 0.22171 0.52283 0.89123 0.0
H904 H 0.22614 0.53464 0.66664 0.0
S905 S 0.1231 0.43798 0.61983 0.0
N906 N 0.13887 0.44763 0.76878 0.0
N907 N 0.14345 0.46062 0.52733 0.0
C908 C 0.16459 0.47737 0.61681 0.0
C909 C 0.16206 0.47034 0.74832 0.0
C910 C 0.61931 0.70806 0.86258 0.0
C911 C 0.59696 0.71061 0.90396 0.0
C912 C 0.62114 0.70276 0.72956 0.0
C913 C 0.60087 0.70004 0.63194 0.0
H914 H 0.63566 0.71036 0.93323 0.0
H915 H 0.63869 0.70086 0.70306 0.0
S916 S 0.53848 0.70554 0.68763 0.0
N917 N 0.55421 0.71022 0.83491 0.0
N918 N 0.55795 0.70077 0.58699 0.0
C919 C 0.57866 0.70291 0.67193 0.0
C920 C 0.57667 0.70809 0.80707 0.0
C921 C 0.39841 0.50528 0.87019 0.0
C922 C 0.37113 0.48593 0.89074 0.0
C923 C 0.40666 0.51077 0.7431 0.0
C924 C 0.38798 0.49714 0.6317 0.0
H925 H 0.41363 0.51593 0.95235 0.0
H926 H 0.42791 0.52584 0.73205 0.0
S927 S 0.31312 0.44697 0.63493 0.0
N928 N 0.32492 0.45451 0.79011 0.0
N929 N 0.34017 0.46504 0.55335 0.0
C930 C 0.36047 0.47825 0.65192 0.0
C931 C 0.35213 0.47263 0.78081 0.0
C932 C 0.57725 0.90553 0.89114 0.0
C933 C 0.59631 0.92214 0.9957 0.0
C934 C 0.58022 0.9126 0.76212 0.0
C935 C 0.6023 0.9367 0.73199 0.0
H936 H 0.55975 0.88684 0.90899 0.0
H937 H 0.56496 0.89912 0.68556 0.0
S938 S 0.65854 0.98701 0.96886 0.0
N939 N 0.63866 0.96354 0.05872 0.0
N940 N 0.64398 0.97699 0.81792 0.0
C941 C 0.62165 0.95342 0.8354 0.0
C942 C 0.61873 0.94614 0.96664 0.0
C943 C 0.16154 0.67577 0.75036 0.0
C944 C 0.16666 0.69448 0.66123 0.0
C945 C 0.15896 0.68042 0.88289 0.0
C946 C 0.16185 0.70412 0.93216 0.0
H947 H 0.15915 0.6572 0.7171 0.0
H948 H 0.15393 0.66508 0.9461 0.0
S949 S 0.17795 0.76048 0.74358 0.0
N950 N 0.17654 0.73842 0.63526 0.0
N951 N 0.171 0.74682 0.8825 0.0
C952 C 0.16719 0.72305 0.84464 0.0
C953 C 0.16988 0.71837 0.70988 0.0
loop_
_geom_bond_atom_site_label_1
_geom_bond_atom_site_label_2
_geom_bond_distance
_geom_bond_site_symmetry_2
_ccdc_geom_bond_type
Tb0 O3 2.451 1_655 S
Tb0 O4 2.588 1_655 S
Tb0 O5 2.351 1_655 S
Tb0 O13 2.339 1_655 S
Tb0 O15 2.371 . S
Tb0 O17 2.441 . S
Tb0 O18 2.507 . S
C1 O5 1.251 . S
C1 O7 1.263 . S
Tb2 O4 2.343 . S
Tb2 O7 2.353 . S
Tb2 O10 2.427 . S
Tb2 O11 2.513 . S
Tb2 O12 2.453 . S
Tb2 O13 2.596 . S
Tb2 O14 2.374 . S
O3 Tb0 2.451 1_455 S
O3 C19 1.245 . S
O4 Tb0 2.588 1_455 S
O4 Tb2 2.343 . S
O4 C19 1.259 . S
O5 Tb0 2.351 1_455 S
O5 C1 1.251 . S
C6 O10 1.275 . S
C6 O11 1.246 . S
O7 C1 1.263 . S
O7 Tb2 2.353 . S
C8 O12 1.245 . S
C8 O13 1.259 . S
C9 O14 1.250 1_655 S
C9 O15 1.263 . S
O10 Tb2 2.427 . S
O10 C6 1.275 . S
O11 Tb2 2.513 . S
O11 C6 1.246 . S
O12 Tb2 2.453 . S
O12 C8 1.245 . S
O13 Tb0 2.339 1_455 S
O13 Tb2 2.596 . S
O13 C8 1.259 . S
O14 Tb2 2.374 . S
O14 C9 1.250 1_455 S
O15 Tb0 2.371 . S
O15 C9 1.263 . S
C16 O17 1.275 . S
C16 O18 1.246 . S
O17 Tb0 2.441 . S
O17 C16 1.275 . S
O18 Tb0 2.507 . S
O18 C16 1.246 . S
C19 O3 1.245 . S
C19 O4 1.259 . S
Tb20 O23 2.453 . S
Tb20 O24 2.596 . S
Tb20 O25 2.374 . S
Tb20 O33 2.343 . S
Tb20 O35 2.353 . S
Tb20 O37 2.427 . S
Tb20 O38 2.513 . S
C21 O25 1.251 . S
C21 O27 1.263 . S
Tb22 O24 2.343 . S
Tb22 O27 2.353 . S
Tb22 O30 2.427 . S
Tb22 O31 2.513 . S
Tb22 O32 2.453 . S
Tb22 O33 2.596 . S
Tb22 O34 2.374 . S
O23 Tb20 2.453 . S
O23 C39 1.245 . S
O24 Tb20 2.596 . S
O24 Tb22 2.343 . S
O24 C39 1.259 . S
O25 Tb20 2.374 . S
O25 C21 1.251 . S
C26 O30 1.275 . S
C26 O31 1.246 . S
O27 C21 1.263 . S
O27 Tb22 2.353 . S
C28 O32 1.245 . S
C28 O33 1.259 . S
C29 O34 1.250 . S
C29 O35 1.263 . S
O30 Tb22 2.427 . S
O30 C26 1.275 . S
O31 Tb22 2.513 . S
O31 C26 1.246 . S
O32 Tb22 2.453 . S
O32 C28 1.245 . S
O33 Tb20 2.343 . S
O33 Tb22 2.596 . S
O33 C28 1.259 . S
O34 Tb22 2.374 . S
O34 C29 1.250 . S
O35 Tb20 2.353 . S
O35 C29 1.263 . S
C36 O37 1.275 . S
C36 O38 1.246 . S
O37 Tb20 2.427 . S
O37 C36 1.275 . S
O38 Tb20 2.513 . S
O38 C36 1.246 . S
C39 O23 1.245 . S
C39 O24 1.259 . S
Tb40 O43 2.453 . S
Tb40 O44 2.596 . S
Tb40 O45 2.374 1_545 S
Tb40 O53 2.343 . S
Tb40 O55 2.353 . S
Tb40 O57 2.427 . S
Tb40 O58 2.513 . S
C41 O45 1.251 . S
C41 O47 1.263 . S
Tb42 O44 2.343 1_565 S
Tb42 O47 2.353 . S
Tb42 O50 2.427 . S
Tb42 O51 2.513 . S
Tb42 O52 2.453 . S
Tb42 O53 2.596 1_565 S
Tb42 O54 2.374 1_565 S
O43 Tb40 2.453 . S
O43 C59 1.245 . S
O44 Tb40 2.596 . S
O44 Tb42 2.343 1_545 S
O44 C59 1.259 . S
O45 Tb40 2.374 1_565 S
O45 C41 1.251 . S
C46 O50 1.275 . S
C46 O51 1.246 . S
O47 C41 1.263 . S
O47 Tb42 2.353 . S
C48 O52 1.245 1_545 S
C48 O53 1.259 . S
C49 O54 1.250 . S
C49 O55 1.263 . S
O50 Tb42 2.427 . S
O50 C46 1.275 . S
O51 Tb42 2.513 . S
O51 C46 1.246 . S
O52 Tb42 2.453 . S
O52 C48 1.245 1_565 S
O53 Tb40 2.343 . S
O53 Tb42 2.596 1_545 S
O53 C48 1.259 . S
O54 Tb42 2.374 1_545 S
O54 C49 1.250 . S
O55 Tb40 2.353 . S
O55 C49 1.263 . S
C56 O57 1.275 . S
C56 O58 1.246 . S
O57 Tb40 2.427 . S
O57 C56 1.275 . S
O58 Tb40 2.513 . S
O58 C56 1.246 . S
C59 O43 1.245 . S
C59 O44 1.259 . S
Tb60 O63 2.454 . S
Tb60 O64 2.596 1_655 S
Tb60 O65 2.374 1_655 S
Tb60 O73 2.343 1_655 S
Tb60 O75 2.353 . S
Tb60 O77 2.427 . S
Tb60 O78 2.513 . S
C61 O65 1.251 . S
C61 O67 1.263 . S
Tb62 O64 2.343 . S
Tb62 O67 2.353 . S
Tb62 O70 2.427 . S
Tb62 O71 2.513 . S
Tb62 O72 2.453 . S
Tb62 O73 2.596 . S
Tb62 O74 2.374 . S
O63 Tb60 2.454 . S
O63 C79 1.235 1_655 S
O64 Tb60 2.596 1_455 S
O64 Tb62 2.343 . S
O64 C79 1.259 . S
O65 Tb60 2.374 1_455 S
O65 C61 1.251 . S
C66 O70 1.275 . S
C66 O71 1.246 . S
O67 C61 1.263 . S
O67 Tb62 2.353 . S
C68 O72 1.245 . S
C68 O73 1.259 . S
C69 O74 1.250 1_655 S
C69 O75 1.263 . S
O70 Tb62 2.427 . S
O70 C66 1.275 . S
O71 Tb62 2.513 . S
O71 C66 1.246 . S
O72 Tb62 2.453 . S
O72 C68 1.245 . S
O73 Tb60 2.343 1_455 S
O73 Tb62 2.596 . S
O73 C68 1.259 . S
O74 Tb62 2.374 . S
O74 C69 1.250 1_455 S
O75 Tb60 2.353 . S
O75 C69 1.263 . S
C76 O77 1.275 . S
C76 O78 1.246 . S
O77 Tb60 2.427 . S
O77 C76 1.275 . S
O78 Tb60 2.513 . S
O78 C76 1.246 . S
C79 O63 1.235 1_455 S
C79 O64 1.259 . S
Tb80 O83 2.453 . S
Tb80 O84 2.596 . S
Tb80 O85 2.374 . S
Tb80 O93 2.343 . S
Tb80 O95 2.353 . S
Tb80 O97 2.427 . S
Tb80 O98 2.513 . S
C81 O85 1.251 . S
C81 O87 1.263 . S
Tb82 O84 2.343 . S
Tb82 O87 2.353 . S
Tb82 O90 2.427 . S
Tb82 O91 2.513 . S
Tb82 O92 2.453 . S
Tb82 O93 2.596 . S
Tb82 O94 2.374 . S
O83 Tb80 2.453 . S
O83 C99 1.245 . S
O84 Tb80 2.596 . S
O84 Tb82 2.343 . S
O84 C99 1.259 . S
O85 Tb80 2.374 . S
O85 C81 1.251 . S
C86 O90 1.275 . S
C86 O91 1.246 . S
O87 C81 1.263 . S
O87 Tb82 2.353 . S
C88 O92 1.245 . S
C88 O93 1.259 . S
C89 O94 1.250 . S
C89 O95 1.263 . S
O90 Tb82 2.427 . S
O90 C86 1.275 . S
O91 Tb82 2.513 . S
O91 C86 1.246 . S
O92 Tb82 2.453 . S
O92 C88 1.245 . S
O93 Tb80 2.343 . S
O93 Tb82 2.596 . S
O93 C88 1.259 . S
O94 Tb82 2.374 . S
O94 C89 1.250 . S
O95 Tb80 2.353 . S
O95 C89 1.263 . S
C96 O97 1.275 . S
C96 O98 1.246 . S
O97 Tb80 2.427 . S
O97 C96 1.275 . S
O98 Tb80 2.513 . S
O98 C96 1.246 . S
C99 O83 1.245 . S
C99 O84 1.259 . S
Tb100 O103 2.453 . S
Tb100 O104 2.596 . S
Tb100 O105 2.374 . S
Tb100 O113 2.343 . S
Tb100 O115 2.353 . S
Tb100 O117 2.427 . S
Tb100 O118 2.513 . S
C101 O105 1.251 1_565 S
C101 O107 1.263 . S
Tb102 O104 2.343 1_565 S
Tb102 O107 2.353 . S
Tb102 O110 2.427 . S
Tb102 O111 2.513 . S
Tb102 O112 2.453 1_565 S
Tb102 O113 2.596 1_565 S
Tb102 O114 2.374 1_565 S
O103 Tb100 2.453 . S
O103 C119 1.245 . S
O104 Tb100 2.596 . S
O104 Tb102 2.343 1_545 S
O104 C119 1.259 . S
O105 Tb100 2.374 . S
O105 C101 1.251 1_545 S
C106 O110 1.275 . S
C106 O111 1.246 . S
O107 C101 1.263 . S
O107 Tb102 2.353 . S
C108 O112 1.245 . S
C108 O113 1.259 . S
C109 O114 1.250 . S
C109 O115 1.263 . S
O110 Tb102 2.427 . S
O110 C106 1.275 . S
O111 Tb102 2.513 . S
O111 C106 1.246 . S
O112 Tb102 2.453 1_545 S
O112 C108 1.245 . S
O113 Tb100 2.343 . S
O113 Tb102 2.596 1_545 S
O113 C108 1.259 . S
O114 Tb102 2.374 1_545 S
O114 C109 1.250 . S
O115 Tb100 2.353 . S
O115 C109 1.263 . S
C116 O117 1.275 . S
C116 O118 1.246 . S
O117 Tb100 2.427 . S
O117 C116 1.275 . S
O118 Tb100 2.513 . S
O118 C116 1.246 . S
C119 O103 1.245 . S
C119 O104 1.259 . S
Tb120 O123 2.453 . S
Tb120 O124 2.596 . S
Tb120 O125 2.374 . S
Tb120 O133 2.343 . S
Tb120 O135 2.353 . S
Tb120 O137 2.427 . S
Tb120 O138 2.513 . S
C121 O125 1.251 . S
C121 O127 1.263 . S
Tb122 O124 2.343 . S
Tb122 O127 2.353 . S
Tb122 O130 2.427 . S
Tb122 O131 2.513 . S
Tb122 O132 2.453 . S
Tb122 O133 2.596 . S
Tb122 O134 2.374 . S
O123 Tb120 2.453 . S
O123 C139 1.245 . S
O124 Tb120 2.596 . S
O124 Tb122 2.343 . S
O124 C139 1.259 . S
O125 Tb120 2.374 . S
O125 C121 1.251 . S
C126 O130 1.275 . S
C126 O131 1.246 . S
O127 C121 1.263 . S
O127 Tb122 2.353 . S
C128 O132 1.245 . S
C128 O133 1.259 . S
C129 O134 1.250 . S
C129 O135 1.263 . S
O130 Tb122 2.427 . S
O130 C126 1.275 . S
O131 Tb122 2.513 . S
O131 C126 1.246 . S
O132 Tb122 2.453 . S
O132 C128 1.245 . S
O133 Tb120 2.343 . S
O133 Tb122 2.596 . S
O133 C128 1.259 . S
O134 Tb122 2.374 . S
O134 C129 1.250 . S
O135 Tb120 2.353 . S
O135 C129 1.263 . S
C136 O137 1.275 . S
C136 O138 1.246 . S
O137 Tb120 2.427 . S
O137 C136 1.275 . S
O138 Tb120 2.513 . S
O138 C136 1.246 . S
C139 O123 1.245 . S
C139 O124 1.259 . S
Tb140 O143 2.453 . S
Tb140 O144 2.596 . S
Tb140 O145 2.374 . S
Tb140 O153 2.343 . S
Tb140 O155 2.353 . S
Tb140 O157 2.427 . S
Tb140 O158 2.513 . S
C141 O145 1.251 . S
C141 O147 1.263 . S
Tb142 O144 2.343 . S
Tb142 O147 2.353 . S
Tb142 O150 2.427 . S
Tb142 O151 2.513 . S
Tb142 O152 2.453 . S
Tb142 O153 2.596 . S
Tb142 O154 2.374 . S
O143 Tb140 2.453 . S
O143 C159 1.245 . S
O144 Tb140 2.596 . S
O144 Tb142 2.343 . S
O144 C159 1.259 . S
O145 Tb140 2.374 . S
O145 C141 1.251 . S
C146 O150 1.275 . S
C146 O151 1.246 . S
O147 C141 1.263 . S
O147 Tb142 2.353 . S
C148 O152 1.245 . S
C148 O153 1.259 . S
C149 O154 1.250 . S
C149 O155 1.263 . S
O150 Tb142 2.427 . S
O150 C146 1.275 . S
O151 Tb142 2.513 . S
O151 C146 1.246 . S
O152 Tb142 2.453 . S
O152 C148 1.245 . S
O153 Tb140 2.343 . S
O153 Tb142 2.596 . S
O153 C148 1.259 . S
O154 Tb142 2.374 . S
O154 C149 1.250 . S
O155 Tb140 2.353 . S
O155 C149 1.263 . S
C156 O157 1.275 . S
C156 O158 1.246 . S
O157 Tb140 2.427 . S
O157 C156 1.275 . S
O158 Tb140 2.513 . S
O158 C156 1.246 . S
C159 O143 1.245 . S
C159 O144 1.259 . S
Tb160 O163 2.453 . S
Tb160 O164 2.596 . S
Tb160 O165 2.374 . S
Tb160 O173 2.343 . S
Tb160 O175 2.353 . S
Tb160 O177 2.427 . S
Tb160 O178 2.513 . S
C161 O165 1.251 . S
C161 O167 1.263 . S
Tb162 O164 2.343 . S
Tb162 O167 2.353 . S
Tb162 O170 2.427 . S
Tb162 O171 2.513 1_655 S
Tb162 O172 2.453 . S
Tb162 O173 2.596 . S
Tb162 O174 2.374 . S
O163 Tb160 2.453 . S
O163 C179 1.245 . S
O164 Tb160 2.596 . S
O164 Tb162 2.343 . S
O164 C179 1.259 . S
O165 Tb160 2.374 . S
O165 C161 1.251 . S
C166 O170 1.275 1_455 S
C166 O171 1.246 . S
O167 C161 1.263 . S
O167 Tb162 2.353 . S
C168 O172 1.245 . S
C168 O173 1.259 . S
C169 O174 1.250 . S
C169 O175 1.263 . S
O170 Tb162 2.427 . S
O170 C166 1.275 1_655 S
O171 Tb162 2.513 1_455 S
O171 C166 1.246 . S
O172 Tb162 2.453 . S
O172 C168 1.245 . S
O173 Tb160 2.343 . S
O173 Tb162 2.596 . S
O173 C168 1.259 . S
O174 Tb162 2.374 . S
O174 C169 1.250 . S
O175 Tb160 2.353 . S
O175 C169 1.263 . S
C176 O177 1.275 . S
C176 O178 1.246 . S
O177 Tb160 2.427 . S
O177 C176 1.275 . S
O178 Tb160 2.513 . S
O178 C176 1.246 . S
C179 O163 1.245 . S
C179 O164 1.259 . S
Tb180 O183 2.453 . S
Tb180 O184 2.596 . S
Tb180 O185 2.374 . S
Tb180 O193 2.343 . S
Tb180 O195 2.353 . S
Tb180 O197 2.427 . S
Tb180 O198 2.513 . S
C181 O185 1.251 . S
C181 O187 1.263 . S
Tb182 O184 2.343 . S
Tb182 O187 2.353 . S
Tb182 O190 2.427 . S
Tb182 O191 2.513 . S
Tb182 O192 2.453 1_556 S
Tb182 O193 2.596 . S
Tb182 O194 2.374 . S
O183 Tb180 2.453 . S
O183 C199 1.245 . S
O184 Tb180 2.596 . S
O184 Tb182 2.343 . S
O184 C199 1.259 . S
O185 Tb180 2.374 . S
O185 C181 1.251 . S
C186 O190 1.275 . S
C186 O191 1.246 . S
O187 C181 1.263 . S
O187 Tb182 2.353 . S
C188 O192 1.245 . S
C188 O193 1.259 1_554 S
C189 O194 1.250 . S
C189 O195 1.263 . S
O190 Tb182 2.427 . S
O190 C186 1.275 . S
O191 Tb182 2.513 . S
O191 C186 1.246 . S
O192 Tb182 2.453 1_554 S
O192 C188 1.245 . S
O193 Tb180 2.343 . S
O193 Tb182 2.596 . S
O193 C188 1.259 1_556 S
O194 Tb182 2.374 . S
O194 C189 1.250 . S
O195 Tb180 2.353 . S
O195 C189 1.263 . S
C196 O197 1.275 . S
C196 O198 1.246 . S
O197 Tb180 2.427 . S
O197 C196 1.275 . S
O198 Tb180 2.513 . S
O198 C196 1.246 . S
C199 O183 1.245 . S
C199 O184 1.259 . S
Tb200 O203 2.453 . S
Tb200 O204 2.596 . S
Tb200 O205 2.374 . S
Tb200 O213 2.343 . S
Tb200 O215 2.353 . S
Tb200 O217 2.427 . S
Tb200 O218 2.513 . S
C201 O205 1.251 . S
C201 O207 1.263 . S
Tb202 O204 2.343 . S
Tb202 O207 2.353 . S
Tb202 O210 2.427 . S
Tb202 O211 2.513 . S
Tb202 O212 2.453 1_556 S
Tb202 O213 2.596 . S
Tb202 O214 2.374 . S
O203 Tb200 2.453 . S
O203 C219 1.245 . S
O204 Tb200 2.596 . S
O204 Tb202 2.343 . S
O204 C219 1.259 . S
O205 Tb200 2.374 . S
O205 C201 1.251 . S
C206 O210 1.275 . S
C206 O211 1.246 . S
O207 C201 1.263 . S
O207 Tb202 2.353 . S
C208 O212 1.245 . S
C208 O213 1.259 1_554 S
C209 O214 1.250 . S
C209 O215 1.263 . S
O210 Tb202 2.427 . S
O210 C206 1.275 . S
O211 Tb202 2.513 . S
O211 C206 1.246 . S
O212 Tb202 2.453 1_554 S
O212 C208 1.245 . S
O213 Tb200 2.343 . S
O213 Tb202 2.596 . S
O213 C208 1.259 1_556 S
O214 Tb202 2.374 . S
O214 C209 1.250 . S
O215 Tb200 2.353 . S
O215 C209 1.263 . S
C216 O217 1.276 1_455 S
C216 O218 1.213 1_455 S
O217 Tb200 2.427 . S
O217 C216 1.276 1_655 S
O218 Tb200 2.513 . S
O218 C216 1.213 1_655 S
C219 O203 1.245 . S
C219 O204 1.259 . S
Tb220 O223 2.453 . S
Tb220 O224 2.596 . S
Tb220 O225 2.374 . S
Tb220 O233 2.343 . S
Tb220 O235 2.353 . S
Tb220 O237 2.427 . S
Tb220 O238 2.513 . S
C221 O225 1.251 . S
C221 O227 1.263 . S
Tb222 O224 2.343 . S
Tb222 O227 2.353 . S
Tb222 O230 2.427 . S
Tb222 O231 2.513 . S
Tb222 O232 2.453 1_556 S
Tb222 O233 2.596 . S
Tb222 O234 2.374 . S
O223 Tb220 2.453 . S
O223 C239 1.245 . S
O224 Tb220 2.596 . S
O224 Tb222 2.343 . S
O224 C239 1.259 . S
O225 Tb220 2.374 . S
O225 C221 1.251 . S
C226 O230 1.275 . S
C226 O231 1.246 . S
O227 C221 1.263 . S
O227 Tb222 2.353 . S
C228 O232 1.245 . S
C228 O233 1.259 1_554 S
C229 O234 1.250 . S
C229 O235 1.263 . S
O230 Tb222 2.427 . S
O230 C226 1.275 . S
O231 Tb222 2.513 . S
O231 C226 1.246 . S
O232 Tb222 2.453 1_554 S
O232 C228 1.245 . S
O233 Tb220 2.343 . S
O233 Tb222 2.596 . S
O233 C228 1.259 1_556 S
O234 Tb222 2.374 . S
O234 C229 1.250 . S
O235 Tb220 2.353 . S
O235 C229 1.263 . S
C236 O237 1.275 . S
C236 O238 1.246 . S
O237 Tb220 2.427 . S
O237 C236 1.275 . S
O238 Tb220 2.513 . S
O238 C236 1.246 . S
C239 O223 1.245 . S
C239 O224 1.259 . S
Tb240 O243 2.453 1_554 S
Tb240 O244 2.596 . S
Tb240 O245 2.374 . S
Tb240 O253 2.343 . S
Tb240 O255 2.353 . S
Tb240 O257 2.427 . S
Tb240 O258 2.513 . S
C241 O245 1.251 . S
C241 O247 1.263 . S
Tb242 O244 2.343 . S
Tb242 O247 2.353 . S
Tb242 O250 2.427 . S
Tb242 O251 2.513 . S
Tb242 O252 2.453 . S
Tb242 O253 2.596 . S
Tb242 O254 2.374 . S
O243 Tb240 2.453 1_556 S
O243 C259 1.245 . S
O244 Tb240 2.596 . S
O244 Tb242 2.343 . S
O244 C259 1.259 1_554 S
O245 Tb240 2.374 . S
O245 C241 1.251 . S
C246 O250 1.275 . S
C246 O251 1.246 . S
O247 C241 1.263 . S
O247 Tb242 2.353 . S
C248 O252 1.245 . S
C248 O253 1.259 . S
C249 O254 1.250 . S
C249 O255 1.263 . S
O250 Tb242 2.427 . S
O250 C246 1.275 . S
O251 Tb242 2.513 . S
O251 C246 1.246 . S
O252 Tb242 2.453 . S
O252 C248 1.245 . S
O253 Tb240 2.343 . S
O253 Tb242 2.596 . S
O253 C248 1.259 . S
O254 Tb242 2.374 . S
O254 C249 1.250 . S
O255 Tb240 2.353 . S
O255 C249 1.263 . S
C256 O257 1.275 . S
C256 O258 1.246 . S
O257 Tb240 2.427 . S
O257 C256 1.275 . S
O258 Tb240 2.513 . S
O258 C256 1.246 . S
C259 O243 1.245 . S
C259 O244 1.259 1_556 S
Tb260 O263 2.453 . S
Tb260 O264 2.596 . S
Tb260 O265 2.374 . S
Tb260 O273 2.343 . S
Tb260 O275 2.353 . S
Tb260 O277 2.427 . S
Tb260 O278 2.513 . S
C261 O265 1.251 . S
C261 O267 1.263 . S
Tb262 O264 2.343 . S
Tb262 O267 2.353 . S
Tb262 O270 2.427 . S
Tb262 O271 2.513 . S
Tb262 O272 2.453 1_554 S
Tb262 O273 2.596 . S
Tb262 O274 2.374 . S
O263 Tb260 2.453 . S
O263 C279 1.245 . S
O264 Tb260 2.596 . S
O264 Tb262 2.343 . S
O264 C279 1.259 . S
O265 Tb260 2.374 . S
O265 C261 1.251 . S
C266 O270 1.275 . S
C266 O271 1.246 . S
O267 C261 1.263 . S
O267 Tb262 2.353 . S
C268 O272 1.245 . S
C268 O273 1.259 1_556 S
C269 O274 1.250 . S
C269 O275 1.263 . S
O270 Tb262 2.427 . S
O270 C266 1.275 . S
O271 Tb262 2.513 . S
O271 C266 1.246 . S
O272 Tb262 2.453 1_556 S
O272 C268 1.245 . S
O273 Tb260 2.343 . S
O273 Tb262 2.596 . S
O273 C268 1.259 1_554 S
O274 Tb262 2.374 . S
O274 C269 1.250 . S
O275 Tb260 2.353 . S
O275 C269 1.263 . S
C276 O277 1.275 . S
C276 O278 1.246 . S
O277 Tb260 2.427 . S
O277 C276 1.275 . S
O278 Tb260 2.513 . S
O278 C276 1.246 . S
C279 O263 1.245 . S
C279 O264 1.259 . S
Tb280 O283 2.453 1_554 S
Tb280 O284 2.596 . S
Tb280 O285 2.374 . S
Tb280 O293 2.343 . S
Tb280 O295 2.353 . S
Tb280 O297 2.427 . S
Tb280 O298 2.513 . S
C281 O285 1.251 . S
C281 O287 1.263 . S
Tb282 O284 2.343 . S
Tb282 O287 2.353 . S
Tb282 O290 2.427 . S
Tb282 O291 2.513 . S
Tb282 O292 2.453 . S
Tb282 O293 2.596 . S
Tb282 O294 2.374 . S
O283 Tb280 2.453 1_556 S
O283 C299 1.245 . S
O284 Tb280 2.596 . S
O284 Tb282 2.343 . S
O284 C299 1.259 1_554 S
O285 Tb280 2.374 . S
O285 C281 1.251 . S
C286 O290 1.275 . S
C286 O291 1.246 . S
O287 C281 1.263 . S
O287 Tb282 2.353 . S
C288 O292 1.245 . S
C288 O293 1.259 . S
C289 O294 1.250 . S
C289 O295 1.263 . S
O290 Tb282 2.427 . S
O290 C286 1.275 . S
O291 Tb282 2.513 . S
O291 C286 1.246 . S
O292 Tb282 2.453 . S
O292 C288 1.245 . S
O293 Tb280 2.343 . S
O293 Tb282 2.596 . S
O293 C288 1.259 . S
O294 Tb282 2.374 . S
O294 C289 1.250 . S
O295 Tb280 2.353 . S
O295 C289 1.263 . S
C296 O297 1.275 . S
C296 O298 1.246 . S
O297 Tb280 2.427 . S
O297 C296 1.275 . S
O298 Tb280 2.513 . S
O298 C296 1.246 . S
C299 O283 1.245 . S
C299 O284 1.259 1_556 S
Tb300 O303 2.453 1_554 S
Tb300 O304 2.596 . S
Tb300 O305 2.374 . S
Tb300 O313 2.343 . S
Tb300 O315 2.353 . S
Tb300 O317 2.427 . S
Tb300 O318 2.513 . S
C301 O305 1.251 . S
C301 O307 1.263 . S
Tb302 O304 2.343 . S
Tb302 O307 2.353 . S
Tb302 O310 2.427 . S
Tb302 O311 2.513 . S
Tb302 O312 2.453 . S
Tb302 O313 2.596 . S
Tb302 O314 2.374 . S
O303 Tb300 2.453 1_556 S
O303 C319 1.245 . S
O304 Tb300 2.596 . S
O304 Tb302 2.343 . S
O304 C319 1.259 1_554 S
O305 Tb300 2.374 . S
O305 C301 1.251 . S
C306 O310 1.275 . S
C306 O311 1.246 . S
O307 C301 1.263 . S
O307 Tb302 2.353 . S
C308 O312 1.245 . S
C308 O313 1.259 . S
C309 O314 1.250 . S
C309 O315 1.263 . S
O310 Tb302 2.427 . S
O310 C306 1.275 . S
O311 Tb302 2.513 . S
O311 C306 1.246 . S
O312 Tb302 2.453 . S
O312 C308 1.245 . S
O313 Tb300 2.343 . S
O313 Tb302 2.596 . S
O313 C308 1.259 . S
O314 Tb302 2.374 . S
O314 C309 1.250 . S
O315 Tb300 2.353 . S
O315 C309 1.263 . S
C316 O317 1.275 . S
C316 O318 1.246 . S
O317 Tb300 2.427 . S
O317 C316 1.275 . S
O318 Tb300 2.513 . S
O318 C316 1.246 . S
C319 O303 1.245 . S
C319 O304 1.259 1_556 S
Tb320 O323 2.453 . S
Tb320 O324 2.596 . S
Tb320 O325 2.374 . S
Tb320 O333 2.343 . S
Tb320 O335 2.353 . S
Tb320 O337 2.427 . S
Tb320 O338 2.513 . S
C321 O325 1.251 . S
C321 O327 1.263 . S
Tb322 O324 2.343 . S
Tb322 O327 2.353 . S
Tb322 O330 2.427 . S
Tb322 O331 2.513 . S
Tb322 O332 2.453 . S
Tb322 O333 2.596 . S
Tb322 O334 2.374 . S
O323 Tb320 2.453 . S
O323 C339 1.245 . S
O324 Tb320 2.596 . S
O324 Tb322 2.343 . S
O324 C339 1.259 . S
O325 Tb320 2.374 . S
O325 C321 1.251 . S
C326 O330 1.275 . S
C326 O331 1.246 . S
O327 C321 1.263 . S
O327 Tb322 2.353 . S
C328 O332 1.245 . S
C328 O333 1.259 . S
C329 O334 1.250 . S
C329 O335 1.263 . S
O330 Tb322 2.427 . S
O330 C326 1.275 . S
O331 Tb322 2.513 . S
O331 C326 1.246 . S
O332 Tb322 2.453 . S
O332 C328 1.245 . S
O333 Tb320 2.343 . S
O333 Tb322 2.596 . S
O333 C328 1.259 . S
O334 Tb322 2.374 . S
O334 C329 1.250 . S
O335 Tb320 2.353 . S
O335 C329 1.263 . S
C336 O337 1.275 . S
C336 O338 1.246 . S
O337 Tb320 2.427 . S
O337 C336 1.275 . S
O338 Tb320 2.513 . S
O338 C336 1.246 . S
C339 O323 1.245 . S
C339 O324 1.259 . S
Tb340 O343 2.453 1_554 S
Tb340 O344 2.596 . S
Tb340 O345 2.374 . S
Tb340 O353 2.343 . S
Tb340 O355 2.353 . S
Tb340 O357 2.427 . S
Tb340 O358 2.513 . S
C341 O345 1.251 . S
C341 O347 1.263 . S
Tb342 O344 2.343 . S
Tb342 O347 2.353 . S
Tb342 O350 2.427 . S
Tb342 O351 2.513 . S
Tb342 O352 2.453 . S
Tb342 O353 2.596 . S
Tb342 O354 2.374 . S
O343 Tb340 2.453 1_556 S
O343 C359 1.244 1_556 S
O344 Tb340 2.596 . S
O344 Tb342 2.343 . S
O344 C359 1.260 . S
O345 Tb340 2.374 . S
O345 C341 1.251 . S
C346 O350 1.275 . S
C346 O351 1.246 . S
O347 C341 1.263 . S
O347 Tb342 2.353 . S
C348 O352 1.245 . S
C348 O353 1.259 . S
C349 O354 1.250 . S
C349 O355 1.263 . S
O350 Tb342 2.427 . S
O350 C346 1.275 . S
O351 Tb342 2.513 . S
O351 C346 1.246 . S
O352 Tb342 2.453 . S
O352 C348 1.245 . S
O353 Tb340 2.343 . S
O353 Tb342 2.596 . S
O353 C348 1.259 . S
O354 Tb342 2.374 . S
O354 C349 1.250 . S
O355 Tb340 2.353 . S
O355 C349 1.263 . S
C356 O357 1.275 . S
C356 O358 1.246 . S
O357 Tb340 2.427 . S
O357 C356 1.275 . S
O358 Tb340 2.513 . S
O358 C356 1.246 . S
C359 O343 1.244 1_554 S
C359 O344 1.260 . S
C360 C361 1.369 . S
C360 C362 1.419 . S
C360 H364 0.930 . S
C361 C360 1.369 . S
C361 C370 1.429 . S
C362 C360 1.419 . S
C362 C363 1.363 . S
C362 H365 0.929 . S
C363 C362 1.363 . S
C363 C369 1.428 . S
H364 C360 0.930 . S
H365 C362 0.929 . S
S366 N367 1.613 . S
S366 N368 1.610 . S
N367 S366 1.613 . S
N367 C370 1.350 . S
N368 S366 1.610 . S
N368 C369 1.351 . S
C369 C363 1.428 . S
C369 N368 1.351 . S
C369 C370 1.434 . S
C370 C361 1.429 . S
C370 N367 1.350 . S
C370 C369 1.434 . S
C371 C372 1.369 . S
C371 C373 1.419 . S
C371 H375 0.930 . S
C372 C371 1.369 . S
C372 C381 1.429 . S
C373 C371 1.419 . S
C373 C374 1.363 . S
C373 H376 0.929 . S
C374 C373 1.363 . S
C374 C380 1.428 . S
H375 C371 0.930 . S
H376 C373 0.929 . S
S377 N378 1.613 . S
S377 N379 1.610 . S
N378 S377 1.613 . S
N378 C381 1.350 . S
N379 S377 1.610 . S
N379 C380 1.351 . S
C380 C374 1.428 . S
C380 N379 1.351 . S
C380 C381 1.434 . S
C381 C372 1.429 . S
C381 N378 1.350 . S
C381 C380 1.434 . S
C382 C383 1.369 . S
C382 C384 1.419 . S
C382 H386 0.930 . S
C383 C382 1.369 . S
C383 C392 1.429 . S
C384 C382 1.419 . S
C384 C385 1.363 . S
C384 H387 0.929 . S
C385 C384 1.363 . S
C385 C391 1.428 . S
H386 C382 0.930 . S
H387 C384 0.929 . S
S388 N389 1.613 . S
S388 N390 1.610 . S
N389 S388 1.613 . S
N389 C392 1.350 . S
N390 S388 1.610 . S
N390 C391 1.351 . S
C391 C385 1.428 . S
C391 N390 1.351 . S
C391 C392 1.434 . S
C392 C383 1.429 . S
C392 N389 1.350 . S
C392 C391 1.434 . S
C393 C394 1.369 . S
C393 C395 1.419 . S
C393 H397 0.930 . S
C394 C393 1.369 . S
C394 C403 1.429 . S
C395 C393 1.419 . S
C395 C396 1.363 . S
C395 H398 0.929 . S
C396 C395 1.363 . S
C396 C402 1.428 . S
H397 C393 0.930 . S
H398 C395 0.929 . S
S399 N400 1.613 . S
S399 N401 1.610 . S
N400 S399 1.613 . S
N400 C403 1.350 . S
N401 S399 1.610 . S
N401 C402 1.351 . S
C402 C396 1.428 . S
C402 N401 1.351 . S
C402 C403 1.434 . S
C403 C394 1.429 . S
C403 N400 1.350 . S
C403 C402 1.434 . S
C404 C405 1.369 . S
C404 C406 1.419 . S
C404 H408 0.930 . S
C405 C404 1.369 . S
C405 C414 1.429 . S
C406 C404 1.419 . S
C406 C407 1.363 . S
C406 H409 0.929 . S
C407 C406 1.363 . S
C407 C413 1.428 . S
H408 C404 0.930 . S
H409 C406 0.929 . S
S410 N411 1.613 . S
S410 N412 1.610 . S
N411 S410 1.613 . S
N411 C414 1.350 . S
N412 S410 1.610 . S
N412 C413 1.351 . S
C413 C407 1.428 . S
C413 N412 1.351 . S
C413 C414 1.434 . S
C414 C405 1.429 . S
C414 N411 1.350 . S
C414 C413 1.434 . S
C415 C416 1.369 . S
C415 C417 1.419 . S
C415 H419 0.930 . S
C416 C415 1.369 . S
C416 C425 1.429 . S
C417 C415 1.419 . S
C417 C418 1.363 . S
C417 H420 0.929 . S
C418 C417 1.363 . S
C418 C424 1.428 . S
H419 C415 0.930 . S
H420 C417 0.929 . S
S421 N422 1.613 . S
S421 N423 1.610 . S
N422 S421 1.613 . S
N422 C425 1.350 . S
N423 S421 1.610 . S
N423 C424 1.351 . S
C424 C418 1.428 . S
C424 N423 1.351 . S
C424 C425 1.434 . S
C425 C416 1.429 . S
C425 N422 1.350 . S
C425 C424 1.434 . S
C426 C427 1.369 . S
C426 C428 1.419 . S
C426 H430 0.930 . S
C427 C426 1.369 . S
C427 C436 1.429 . S
C428 C426 1.419 . S
C428 C429 1.363 . S
C428 H431 0.929 . S
C429 C428 1.363 . S
C429 C435 1.428 . S
H430 C426 0.930 . S
H431 C428 0.929 . S
S432 N433 1.613 . S
S432 N434 1.610 . S
N433 S432 1.613 . S
N433 C436 1.350 . S
N434 S432 1.610 . S
N434 C435 1.351 . S
C435 C429 1.428 . S
C435 N434 1.351 . S
C435 C436 1.434 . S
C436 C427 1.429 . S
C436 N433 1.350 . S
C436 C435 1.434 . S
C437 C438 1.369 . S
C437 C439 1.419 . S
C437 H441 0.930 . S
C438 C437 1.369 . S
C438 C447 1.429 . S
C439 C437 1.419 . S
C439 C440 1.363 . S
C439 H442 0.929 . S
C440 C439 1.363 . S
C440 C446 1.428 . S
H441 C437 0.930 . S
H442 C439 0.929 . S
S443 N444 1.613 . S
S443 N445 1.610 . S
N444 S443 1.613 . S
N444 C447 1.350 . S
N445 S443 1.610 . S
N445 C446 1.351 . S
C446 C440 1.428 . S
C446 N445 1.351 . S
C446 C447 1.434 . S
C447 C438 1.429 . S
C447 N444 1.350 . S
C447 C446 1.434 . S
C448 C449 1.369 . S
C448 C450 1.419 . S
C448 H452 0.930 . S
C449 C448 1.369 . S
C449 C458 1.429 . S
C450 C448 1.419 . S
C450 C451 1.363 . S
C450 H453 0.929 . S
C451 C450 1.363 . S
C451 C457 1.428 . S
H452 C448 0.930 . S
H453 C450 0.929 . S
S454 N455 1.613 . S
S454 N456 1.610 . S
N455 S454 1.613 . S
N455 C458 1.350 . S
N456 S454 1.610 . S
N456 C457 1.351 . S
C457 C451 1.428 . S
C457 N456 1.351 . S
C457 C458 1.434 . S
C458 C449 1.429 . S
C458 N455 1.350 . S
C458 C457 1.434 . S
C459 C460 1.369 . S
C459 C461 1.419 . S
C459 H463 0.930 . S
C460 C459 1.369 . S
C460 C469 1.429 . S
C461 C459 1.419 . S
C461 C462 1.363 . S
C461 H464 0.929 . S
C462 C461 1.363 . S
C462 C468 1.428 . S
H463 C459 0.930 . S
H464 C461 0.929 . S
S465 N466 1.613 . S
S465 N467 1.610 . S
N466 S465 1.613 . S
N466 C469 1.350 . S
N467 S465 1.610 . S
N467 C468 1.351 . S
C468 C462 1.428 . S
C468 N467 1.351 . S
C468 C469 1.434 . S
C469 C460 1.429 . S
C469 N466 1.350 . S
C469 C468 1.434 . S
C470 C471 1.369 . S
C470 C472 1.419 . S
C470 H474 0.930 . S
C471 C470 1.369 . S
C471 C480 1.429 . S
C472 C470 1.419 . S
C472 C473 1.363 . S
C472 H475 0.929 . S
C473 C472 1.363 . S
C473 C479 1.428 . S
H474 C470 0.930 . S
H475 C472 0.929 . S
S476 N477 1.613 . S
S476 N478 1.610 . S
N477 S476 1.613 . S
N477 C480 1.350 . S
N478 S476 1.610 . S
N478 C479 1.351 . S
C479 C473 1.428 . S
C479 N478 1.351 . S
C479 C480 1.434 . S
C480 C471 1.429 . S
C480 N477 1.350 . S
C480 C479 1.434 . S
C481 C482 1.369 . S
C481 C483 1.419 . S
C481 H485 0.930 . S
C482 C481 1.369 . S
C482 C491 1.429 . S
C483 C481 1.419 . S
C483 C484 1.363 . S
C483 H486 0.929 . S
C484 C483 1.363 . S
C484 C490 1.428 . S
H485 C481 0.930 . S
H486 C483 0.929 . S
S487 N488 1.613 . S
S487 N489 1.610 . S
N488 S487 1.613 . S
N488 C491 1.350 . S
N489 S487 1.610 . S
N489 C490 1.351 . S
C490 C484 1.428 . S
C490 N489 1.351 . S
C490 C491 1.434 . S
C491 C482 1.429 . S
C491 N488 1.350 . S
C491 C490 1.434 . S
C492 C493 1.369 . S
C492 C494 1.419 1_556 S
C492 H496 0.930 . S
C493 C492 1.369 . S
C493 C502 1.429 . S
C494 C492 1.419 1_554 S
C494 C495 1.363 . S
C494 H497 0.929 . S
C495 C494 1.363 . S
C495 C501 1.428 1_554 S
H496 C492 0.930 . S
H497 C494 0.929 . S
S498 N499 1.613 . S
S498 N500 1.610 . S
N499 S498 1.613 . S
N499 C502 1.350 . S
N500 S498 1.610 . S
N500 C501 1.351 . S
C501 C495 1.428 1_556 S
C501 N500 1.351 . S
C501 C502 1.434 . S
C502 C493 1.429 . S
C502 N499 1.350 . S
C502 C501 1.434 . S
C503 C504 1.369 1_554 S
C503 C505 1.419 . S
C503 H507 0.930 . S
C504 C503 1.369 1_556 S
C504 C513 1.429 . S
C505 C503 1.419 . S
C505 C506 1.363 . S
C505 H508 0.929 . S
C506 C505 1.363 . S
C506 C512 1.428 1_554 S
H507 C503 0.930 . S
H508 C505 0.929 . S
S509 N510 1.613 . S
S509 N511 1.610 . S
N510 S509 1.613 . S
N510 C513 1.350 . S
N511 S509 1.610 . S
N511 C512 1.351 . S
C512 C506 1.428 1_556 S
C512 N511 1.351 . S
C512 C513 1.434 . S
C513 C504 1.429 . S
C513 N510 1.350 . S
C513 C512 1.434 . S
C514 C515 1.369 1_554 S
C514 C516 1.419 . S
C514 H518 0.930 . S
C515 C514 1.369 1_556 S
C515 C524 1.429 . S
C516 C514 1.419 . S
C516 C517 1.363 1_545 S
C516 H519 0.929 . S
C517 C516 1.363 1_565 S
C517 C523 1.428 1_554 S
H518 C514 0.930 . S
H519 C516 0.929 . S
S520 N521 1.613 1_565 S
S520 N522 1.610 . S
N521 S520 1.613 1_545 S
N521 C524 1.350 . S
N522 S520 1.610 . S
N522 C523 1.351 . S
C523 C517 1.428 1_556 S
C523 N522 1.351 . S
C523 C524 1.434 1_565 S
C524 C515 1.429 . S
C524 N521 1.350 . S
C524 C523 1.434 1_545 S
C525 C526 1.369 . S
C525 C527 1.419 1_556 S
C525 H529 0.930 . S
C526 C525 1.369 . S
C526 C535 1.429 1_556 S
C527 C525 1.419 1_554 S
C527 C528 1.363 . S
C527 H530 0.929 . S
C528 C527 1.363 . S
C528 C534 1.428 . S
H529 C525 0.930 . S
H530 C527 0.929 . S
S531 N532 1.613 1_554 S
S531 N533 1.610 . S
N532 S531 1.613 1_556 S
N532 C535 1.350 1_556 S
N533 S531 1.610 . S
N533 C534 1.351 . S
C534 C528 1.428 . S
C534 N533 1.351 . S
C534 C535 1.434 . S
C535 C526 1.429 1_554 S
C535 N532 1.350 1_554 S
C535 C534 1.434 . S
C536 C537 1.369 1_556 S
C536 C538 1.419 . S
C536 H540 0.930 . S
C537 C536 1.369 1_554 S
C537 C546 1.429 . S
C538 C536 1.419 . S
C538 C539 1.363 1_556 S
C538 H541 0.929 . S
C539 C538 1.363 1_554 S
C539 C545 1.428 . S
H540 C536 0.930 . S
H541 C538 0.929 . S
S542 N543 1.613 . S
S542 N544 1.610 . S
N543 S542 1.613 . S
N543 C546 1.350 . S
N544 S542 1.610 . S
N544 C545 1.351 . S
C545 C539 1.428 . S
C545 N544 1.351 . S
C545 C546 1.434 . S
C546 C537 1.429 . S
C546 N543 1.350 . S
C546 C545 1.434 . S
C547 C548 1.369 . S
C547 C549 1.419 1_554 S
C547 H551 0.930 . S
C548 C547 1.369 . S
C548 C557 1.429 . S
C549 C547 1.419 1_556 S
C549 C550 1.363 . S
C549 H552 0.929 . S
C550 C549 1.363 . S
C550 C556 1.428 1_556 S
H551 C547 0.930 . S
H552 C549 0.929 . S
S553 N554 1.613 . S
S553 N555 1.610 . S
N554 S553 1.613 . S
N554 C557 1.350 . S
N555 S553 1.610 . S
N555 C556 1.351 . S
C556 C550 1.428 1_554 S
C556 N555 1.351 . S
C556 C557 1.434 . S
C557 C548 1.429 . S
C557 N554 1.350 . S
C557 C556 1.434 . S
C558 C559 1.369 . S
C558 C560 1.419 . S
C558 H562 0.930 . S
C559 C558 1.369 . S
C559 C568 1.429 . S
C560 C558 1.419 . S
C560 C561 1.363 . S
C560 H563 0.929 . S
C561 C560 1.363 . S
C561 C567 1.428 . S
H562 C558 0.930 . S
H563 C560 0.929 . S
S564 N565 1.613 . S
S564 N566 1.610 . S
N565 S564 1.613 . S
N565 C568 1.350 . S
N566 S564 1.610 . S
N566 C567 1.351 . S
C567 C561 1.428 . S
C567 N566 1.351 . S
C567 C568 1.434 . S
C568 C559 1.429 . S
C568 N565 1.350 . S
C568 C567 1.434 . S
C569 C570 1.369 . S
C569 C571 1.419 . S
C569 H573 0.930 . S
C570 C569 1.369 . S
C570 C579 1.429 . S
C571 C569 1.419 . S
C571 C572 1.363 . S
C571 H574 0.929 . S
C572 C571 1.363 . S
C572 C578 1.428 . S
H573 C569 0.930 . S
H574 C571 0.929 . S
S575 N576 1.613 . S
S575 N577 1.610 . S
N576 S575 1.613 . S
N576 C579 1.350 . S
N577 S575 1.610 . S
N577 C578 1.351 . S
C578 C572 1.428 . S
C578 N577 1.351 . S
C578 C579 1.434 . S
C579 C570 1.429 . S
C579 N576 1.350 . S
C579 C578 1.434 . S
C580 C581 1.369 . S
C580 C582 1.419 . S
C580 H584 0.930 . S
C581 C580 1.369 . S
C581 C590 1.429 . S
C582 C580 1.419 . S
C582 C583 1.363 . S
C582 H585 0.929 . S
C583 C582 1.363 . S
C583 C589 1.428 . S
H584 C580 0.930 . S
H585 C582 0.929 . S
S586 N587 1.613 . S
S586 N588 1.610 . S
N587 S586 1.613 . S
N587 C590 1.350 . S
N588 S586 1.610 . S
N588 C589 1.351 . S
C589 C583 1.428 . S
C589 N588 1.351 . S
C589 C590 1.434 . S
C590 C581 1.429 . S
C590 N587 1.350 . S
C590 C589 1.434 . S
C591 C592 1.369 . S
C591 C593 1.419 . S
C591 H595 0.930 . S
C592 C591 1.369 . S
C592 C601 1.429 . S
C593 C591 1.419 . S
C593 C594 1.363 . S
C593 H596 0.929 . S
C594 C593 1.363 . S
C594 C600 1.428 . S
H595 C591 0.930 . S
H596 C593 0.929 . S
S597 N598 1.613 1_554 S
S597 N599 1.610 1_554 S
N598 S597 1.613 1_556 S
N598 C601 1.350 . S
N599 S597 1.610 1_556 S
N599 C600 1.351 . S
C600 C594 1.428 . S
C600 N599 1.351 . S
C600 C601 1.434 . S
C601 C592 1.429 . S
C601 N598 1.350 . S
C601 C600 1.434 . S
C602 C603 1.369 . S
C602 C604 1.419 . S
C602 H606 0.930 . S
C603 C602 1.369 . S
C603 C612 1.429 . S
C604 C602 1.419 . S
C604 C605 1.363 . S
C604 H607 0.929 . S
C605 C604 1.363 . S
C605 C611 1.428 . S
H606 C602 0.930 . S
H607 C604 0.929 . S
S608 N609 1.613 . S
S608 N610 1.610 . S
N609 S608 1.613 . S
N609 C612 1.350 . S
N610 S608 1.610 . S
N610 C611 1.351 . S
C611 C605 1.428 . S
C611 N610 1.351 . S
C611 C612 1.434 . S
C612 C603 1.429 . S
C612 N609 1.350 . S
C612 C611 1.434 . S
C613 C614 1.369 . S
C613 C615 1.419 . S
C613 H617 0.930 . S
C614 C613 1.369 . S
C614 C623 1.429 . S
C615 C613 1.419 . S
C615 C616 1.363 . S
C615 H618 0.929 . S
C616 C615 1.363 . S
C616 C622 1.428 . S
H617 C613 0.930 . S
H618 C615 0.929 . S
S619 N620 1.613 . S
S619 N621 1.610 . S
N620 S619 1.613 . S
N620 C623 1.350 . S
N621 S619 1.610 . S
N621 C622 1.351 . S
C622 C616 1.428 . S
C622 N621 1.351 . S
C622 C623 1.434 . S
C623 C614 1.429 . S
C623 N620 1.350 . S
C623 C622 1.434 . S
C624 C625 1.369 . S
C624 C626 1.419 . S
C624 H628 0.930 . S
C625 C624 1.369 . S
C625 C634 1.429 . S
C626 C624 1.419 . S
C626 C627 1.363 . S
C626 H629 0.929 . S
C627 C626 1.363 . S
C627 C633 1.428 . S
H628 C624 0.930 . S
H629 C626 0.929 . S
S630 N631 1.613 . S
S630 N632 1.610 . S
N631 S630 1.613 . S
N631 C634 1.350 . S
N632 S630 1.610 . S
N632 C633 1.351 . S
C633 C627 1.428 . S
C633 N632 1.351 . S
C633 C634 1.434 . S
C634 C625 1.429 . S
C634 N631 1.350 . S
C634 C633 1.434 . S
C635 C636 1.369 . S
C635 C637 1.419 . S
C635 H639 0.930 . S
C636 C635 1.369 . S
C636 C645 1.429 . S
C637 C635 1.419 . S
C637 C638 1.363 . S
C637 H640 0.929 . S
C638 C637 1.363 . S
C638 C644 1.428 . S
H639 C635 0.930 . S
H640 C637 0.929 . S
S641 N642 1.613 . S
S641 N643 1.610 . S
N642 S641 1.613 . S
N642 C645 1.350 . S
N643 S641 1.610 . S
N643 C644 1.351 . S
C644 C638 1.428 . S
C644 N643 1.351 . S
C644 C645 1.434 . S
C645 C636 1.429 . S
C645 N642 1.350 . S
C645 C644 1.434 . S
C646 C647 1.369 . S
C646 C648 1.419 . S
C646 H650 0.930 . S
C647 C646 1.369 . S
C647 C656 1.429 . S
C648 C646 1.419 . S
C648 C649 1.363 . S
C648 H651 0.929 . S
C649 C648 1.363 . S
C649 C655 1.428 . S
H650 C646 0.930 . S
H651 C648 0.929 . S
S652 N653 1.613 . S
S652 N654 1.610 . S
N653 S652 1.613 . S
N653 C656 1.350 . S
N654 S652 1.610 . S
N654 C655 1.351 . S
C655 C649 1.428 . S
C655 N654 1.351 . S
C655 C656 1.434 . S
C656 C647 1.429 . S
C656 N653 1.350 . S
C656 C655 1.434 . S
C657 C658 1.369 . S
C657 C659 1.419 . S
C657 H661 0.930 . S
C658 C657 1.369 . S
C658 C667 1.429 . S
C659 C657 1.419 . S
C659 C660 1.363 . S
C659 H662 0.929 . S
C660 C659 1.363 . S
C660 C666 1.428 . S
H661 C657 0.930 . S
H662 C659 0.929 . S
S663 N664 1.613 . S
S663 N665 1.610 . S
N664 S663 1.613 . S
N664 C667 1.350 . S
N665 S663 1.610 . S
N665 C666 1.351 . S
C666 C660 1.428 . S
C666 N665 1.351 . S
C666 C667 1.434 . S
C667 C658 1.429 . S
C667 N664 1.350 . S
C667 C666 1.434 . S
C668 C669 1.369 . S
C668 C670 1.419 . S
C668 H672 0.930 . S
C669 C668 1.369 . S
C669 C678 1.429 . S
C670 C668 1.419 . S
C670 C671 1.363 . S
C670 H673 0.929 . S
C671 C670 1.363 . S
C671 C677 1.428 . S
H672 C668 0.930 . S
H673 C670 0.929 . S
S674 N675 1.613 . S
S674 N676 1.610 . S
N675 S674 1.613 . S
N675 C678 1.350 . S
N676 S674 1.610 . S
N676 C677 1.351 . S
C677 C671 1.428 . S
C677 N676 1.351 . S
C677 C678 1.434 . S
C678 C669 1.429 . S
C678 N675 1.350 . S
C678 C677 1.434 . S
C679 C680 1.369 . S
C679 C681 1.419 . S
C679 H683 0.930 . S
C680 C679 1.369 . S
C680 C689 1.429 . S
C681 C679 1.419 . S
C681 C682 1.363 . S
C681 H684 0.929 . S
C682 C681 1.363 . S
C682 C688 1.428 . S
H683 C679 0.930 . S
H684 C681 0.929 . S
S685 N686 1.613 . S
S685 N687 1.610 . S
N686 S685 1.613 . S
N686 C689 1.350 1_554 S
N687 S685 1.610 . S
N687 C688 1.351 1_554 S
C688 C682 1.428 . S
C688 N687 1.351 1_556 S
C688 C689 1.434 . S
C689 C680 1.429 . S
C689 N686 1.350 1_556 S
C689 C688 1.434 . S
C690 C691 1.369 . S
C690 C692 1.419 . S
C690 H694 0.930 . S
C691 C690 1.369 . S
C691 C700 1.429 . S
C692 C690 1.419 . S
C692 C693 1.363 . S
C692 H695 0.929 . S
C693 C692 1.363 . S
C693 C699 1.428 . S
H694 C690 0.930 . S
H695 C692 0.929 . S
S696 N697 1.613 1_556 S
S696 N698 1.610 1_556 S
N697 S696 1.613 1_554 S
N697 C700 1.350 . S
N698 S696 1.610 1_554 S
N698 C699 1.351 . S
C699 C693 1.428 . S
C699 N698 1.351 . S
C699 C700 1.434 . S
C700 C691 1.429 . S
C700 N697 1.350 . S
C700 C699 1.434 . S
C701 C702 1.369 . S
C701 C703 1.419 . S
C701 H705 0.930 . S
C702 C701 1.369 . S
C702 C711 1.429 1_554 S
C703 C701 1.419 . S
C703 C704 1.363 . S
C703 H706 0.929 . S
C704 C703 1.363 . S
C704 C710 1.428 1_554 S
H705 C701 0.930 . S
H706 C703 0.929 . S
S707 N708 1.613 . S
S707 N709 1.610 . S
N708 S707 1.613 . S
N708 C711 1.350 . S
N709 S707 1.610 . S
N709 C710 1.351 . S
C710 C704 1.428 1_556 S
C710 N709 1.351 . S
C710 C711 1.434 . S
C711 C702 1.429 1_556 S
C711 N708 1.350 . S
C711 C710 1.434 . S
C712 C713 1.369 . S
C712 C714 1.419 . S
C712 H716 0.930 . S
C713 C712 1.369 . S
C713 C722 1.429 . S
C714 C712 1.419 . S
C714 C715 1.363 . S
C714 H717 0.929 . S
C715 C714 1.363 . S
C715 C721 1.428 . S
H716 C712 0.930 . S
H717 C714 0.929 . S
S718 N719 1.613 . S
S718 N720 1.610 . S
N719 S718 1.613 . S
N719 C722 1.350 . S
N720 S718 1.610 . S
N720 C721 1.351 . S
C721 C715 1.428 . S
C721 N720 1.351 . S
C721 C722 1.434 . S
C722 C713 1.429 . S
C722 N719 1.350 . S
C722 C721 1.434 . S
C723 C724 1.369 . S
C723 C725 1.419 . S
C723 H727 0.930 . S
C724 C723 1.369 . S
C724 C733 1.429 . S
C725 C723 1.419 . S
C725 C726 1.363 . S
C725 H728 0.929 . S
C726 C725 1.363 . S
C726 C732 1.428 . S
H727 C723 0.930 . S
H728 C725 0.929 . S
S729 N730 1.613 . S
S729 N731 1.610 . S
N730 S729 1.613 . S
N730 C733 1.350 . S
N731 S729 1.610 . S
N731 C732 1.351 . S
C732 C726 1.428 . S
C732 N731 1.351 . S
C732 C733 1.434 . S
C733 C724 1.429 . S
C733 N730 1.350 . S
C733 C732 1.434 . S
C734 C735 1.369 . S
C734 C736 1.419 . S
C734 H738 0.930 . S
C735 C734 1.369 . S
C735 C744 1.429 . S
C736 C734 1.419 . S
C736 C737 1.363 . S
C736 H739 0.929 . S
C737 C736 1.363 . S
C737 C743 1.428 . S
H738 C734 0.930 . S
H739 C736 0.929 . S
S740 N741 1.613 . S
S740 N742 1.610 . S
N741 S740 1.613 . S
N741 C744 1.350 . S
N742 S740 1.610 . S
N742 C743 1.351 . S
C743 C737 1.428 . S
C743 N742 1.351 . S
C743 C744 1.434 . S
C744 C735 1.429 . S
C744 N741 1.350 . S
C744 C743 1.434 . S
C745 C746 1.369 . S
C745 C747 1.419 . S
C745 H749 0.930 . S
C746 C745 1.369 . S
C746 C755 1.429 . S
C747 C745 1.419 . S
C747 C748 1.363 . S
C747 H750 0.929 . S
C748 C747 1.363 . S
C748 C754 1.428 . S
H749 C745 0.930 . S
H750 C747 0.929 . S
S751 N752 1.613 . S
S751 N753 1.610 . S
N752 S751 1.613 . S
N752 C755 1.350 . S
N753 S751 1.610 . S
N753 C754 1.351 . S
C754 C748 1.428 . S
C754 N753 1.351 . S
C754 C755 1.434 . S
C755 C746 1.429 . S
C755 N752 1.350 . S
C755 C754 1.434 . S
C756 C757 1.369 . S
C756 C758 1.412 1_554 S
C756 H760 0.930 . S
C757 C756 1.369 . S
C757 C766 1.429 . S
C758 C756 1.412 1_556 S
C758 C759 1.368 . S
C758 H761 0.931 1_455 S
C759 C758 1.368 . S
C759 C765 1.428 . S
H760 C756 0.930 . S
H761 C758 0.931 1_655 S
S762 N763 1.613 . S
S762 N764 1.610 1_554 S
N763 S762 1.613 . S
N763 C766 1.350 . S
N764 S762 1.610 1_556 S
N764 C765 1.351 . S
C765 C759 1.428 . S
C765 N764 1.351 . S
C765 C766 1.434 1_556 S
C766 C757 1.429 . S
C766 N763 1.350 . S
C766 C765 1.434 1_554 S
C767 C768 1.369 . S
C767 C769 1.419 1_554 S
C767 H771 0.930 . S
C768 C767 1.369 . S
C768 C777 1.429 . S
C769 C767 1.419 1_556 S
C769 C770 1.363 . S
C769 H772 0.929 . S
C770 C769 1.363 . S
C770 C776 1.428 . S
H771 C767 0.930 . S
H772 C769 0.929 . S
S773 N774 1.613 1_556 S
S773 N775 1.610 . S
N774 S773 1.613 1_554 S
N774 C777 1.350 . S
N775 S773 1.610 . S
N775 C776 1.351 . S
C776 C770 1.428 . S
C776 N775 1.351 . S
C776 C777 1.434 1_556 S
C777 C768 1.429 . S
C777 N774 1.350 . S
C777 C776 1.434 1_554 S
C778 C779 1.369 1_565 S
C778 C780 1.419 1_564 S
C778 H782 0.930 . S
C779 C778 1.369 1_545 S
C779 C788 1.429 . S
C780 C778 1.419 1_546 S
C780 C781 1.363 . S
C780 H783 0.929 1_545 S
C781 C780 1.363 . S
C781 C787 1.428 . S
H782 C778 0.930 . S
H783 C780 0.929 1_565 S
S784 N785 1.613 . S
S784 N786 1.610 1_554 S
N785 S784 1.613 . S
N785 C788 1.350 . S
N786 S784 1.610 1_556 S
N786 C787 1.351 . S
C787 C781 1.428 . S
C787 N786 1.351 . S
C787 C788 1.434 1_556 S
C788 C779 1.429 . S
C788 N785 1.350 . S
C788 C787 1.434 1_554 S
C789 C790 1.372 . S
C789 C791 1.415 1_556 S
C789 H793 0.931 1_455 S
C790 C789 1.372 . S
C790 C799 1.429 . S
C791 C789 1.415 1_554 S
C791 C792 1.363 . S
C791 H794 0.929 . S
C792 C791 1.363 . S
C792 C798 1.428 . S
H793 C789 0.931 1_655 S
H794 C791 0.929 . S
S795 N796 1.613 1_554 S
S795 N797 1.610 . S
N796 S795 1.613 1_556 S
N796 C799 1.350 . S
N797 S795 1.610 . S
N797 C798 1.351 . S
C798 C792 1.428 . S
C798 N797 1.351 . S
C798 C799 1.434 1_554 S
C799 C790 1.429 . S
C799 N796 1.350 . S
C799 C798 1.434 1_556 S
C800 C801 1.369 . S
C800 C802 1.419 . S
C800 H804 0.930 . S
C801 C800 1.369 . S
C801 C810 1.429 . S
C802 C800 1.419 . S
C802 C803 1.363 1_554 S
C802 H805 0.929 1_554 S
C803 C802 1.363 1_556 S
C803 C809 1.428 1_556 S
H804 C800 0.930 . S
H805 C802 0.929 1_556 S
S806 N807 1.613 . S
S806 N808 1.610 1_554 S
N807 S806 1.613 . S
N807 C810 1.350 . S
N808 S806 1.610 1_556 S
N808 C809 1.351 1_556 S
C809 C803 1.428 1_554 S
C809 N808 1.351 1_554 S
C809 C810 1.434 . S
C810 C801 1.429 . S
C810 N807 1.350 . S
C810 C809 1.434 . S
C811 C812 1.369 . S
C811 C813 1.419 . S
C811 H815 0.930 . S
C812 C811 1.369 . S
C812 C821 1.429 1_545 S
C813 C811 1.419 . S
C813 C814 1.363 1_554 S
C813 H816 0.929 1_554 S
C814 C813 1.363 1_556 S
C814 C820 1.428 . S
H815 C811 0.930 . S
H816 C813 0.929 1_556 S
S817 N818 1.613 1_556 S
S817 N819 1.610 . S
N818 S817 1.613 1_554 S
N818 C821 1.350 . S
N819 S817 1.610 . S
N819 C820 1.351 1_565 S
C820 C814 1.428 . S
C820 N819 1.351 1_545 S
C820 C821 1.434 1_546 S
C821 C812 1.429 1_565 S
C821 N818 1.350 . S
C821 C820 1.434 1_564 S
C822 C823 1.369 . S
C822 C824 1.419 . S
C822 H826 0.930 . S
C823 C822 1.369 . S
C823 C832 1.429 . S
C824 C822 1.419 . S
C824 C825 1.363 . S
C824 H827 0.929 . S
C825 C824 1.363 . S
C825 C831 1.428 . S
H826 C822 0.930 . S
H827 C824 0.929 . S
S828 N829 1.613 . S
S828 N830 1.610 . S
N829 S828 1.613 . S
N829 C832 1.350 . S
N830 S828 1.610 . S
N830 C831 1.351 . S
C831 C825 1.428 . S
C831 N830 1.351 . S
C831 C832 1.434 . S
C832 C823 1.429 . S
C832 N829 1.350 . S
C832 C831 1.434 . S
C833 C834 1.369 . S
C833 C835 1.419 . S
C833 H837 0.930 . S
C834 C833 1.369 . S
C834 C843 1.429 . S
C835 C833 1.419 . S
C835 C836 1.363 . S
C835 H838 0.929 . S
C836 C835 1.363 . S
C836 C842 1.428 . S
H837 C833 0.930 . S
H838 C835 0.929 . S
S839 N840 1.613 . S
S839 N841 1.610 . S
N840 S839 1.613 . S
N840 C843 1.350 . S
N841 S839 1.610 . S
N841 C842 1.351 . S
C842 C836 1.428 . S
C842 N841 1.351 . S
C842 C843 1.434 . S
C843 C834 1.429 . S
C843 N840 1.350 . S
C843 C842 1.434 . S
C844 C845 1.369 . S
C844 C846 1.419 . S
C844 H848 0.930 . S
C845 C844 1.369 . S
C845 C854 1.429 . S
C846 C844 1.419 . S
C846 C847 1.363 . S
C846 H849 0.929 . S
C847 C846 1.363 . S
C847 C853 1.428 . S
H848 C844 0.930 . S
H849 C846 0.929 . S
S850 N851 1.613 . S
S850 N852 1.610 . S
N851 S850 1.613 . S
N851 C854 1.350 . S
N852 S850 1.610 . S
N852 C853 1.351 . S
C853 C847 1.428 . S
C853 N852 1.351 . S
C853 C854 1.434 . S
C854 C845 1.429 . S
C854 N851 1.350 . S
C854 C853 1.434 . S
C855 C856 1.369 . S
C855 C857 1.419 . S
C855 H859 0.930 . S
C856 C855 1.369 . S
C856 C865 1.429 . S
C857 C855 1.419 . S
C857 C858 1.363 . S
C857 H860 0.929 . S
C858 C857 1.363 . S
C858 C864 1.428 . S
H859 C855 0.930 . S
H860 C857 0.929 . S
S861 N862 1.613 . S
S861 N863 1.610 . S
N862 S861 1.613 . S
N862 C865 1.350 . S
N863 S861 1.610 . S
N863 C864 1.351 . S
C864 C858 1.428 . S
C864 N863 1.351 . S
C864 C865 1.434 . S
C865 C856 1.429 . S
C865 N862 1.350 . S
C865 C864 1.434 . S
C866 C867 1.369 . S
C866 C868 1.419 . S
C866 H870 0.930 . S
C867 C866 1.369 . S
C867 C876 1.429 . S
C868 C866 1.419 . S
C868 C869 1.363 . S
C868 H871 0.929 . S
C869 C868 1.363 . S
C869 C875 1.428 . S
H870 C866 0.930 . S
H871 C868 0.929 . S
S872 N873 1.613 . S
S872 N874 1.610 . S
N873 S872 1.613 . S
N873 C876 1.350 . S
N874 S872 1.610 . S
N874 C875 1.351 . S
C875 C869 1.428 . S
C875 N874 1.351 . S
C875 C876 1.434 . S
C876 C867 1.429 . S
C876 N873 1.350 . S
C876 C875 1.434 . S
C877 C878 1.369 . S
C877 C879 1.419 . S
C877 H881 0.930 . S
C878 C877 1.369 . S
C878 C887 1.429 . S
C879 C877 1.419 . S
C879 C880 1.363 . S
C879 H882 0.929 . S
C880 C879 1.363 . S
C880 C886 1.428 . S
H881 C877 0.930 . S
H882 C879 0.929 . S
S883 N884 1.613 . S
S883 N885 1.610 . S
N884 S883 1.613 . S
N884 C887 1.350 . S
N885 S883 1.610 . S
N885 C886 1.351 . S
C886 C880 1.428 . S
C886 N885 1.351 . S
C886 C887 1.434 . S
C887 C878 1.429 . S
C887 N884 1.350 . S
C887 C886 1.434 . S
C888 C889 1.369 . S
C888 C890 1.419 . S
C888 H892 0.930 . S
C889 C888 1.369 . S
C889 C898 1.429 . S
C890 C888 1.419 . S
C890 C891 1.363 . S
C890 H893 0.929 . S
C891 C890 1.363 . S
C891 C897 1.428 . S
H892 C888 0.930 . S
H893 C890 0.929 . S
S894 N895 1.613 . S
S894 N896 1.610 . S
N895 S894 1.613 . S
N895 C898 1.350 . S
N896 S894 1.610 . S
N896 C897 1.351 . S
C897 C891 1.428 . S
C897 N896 1.351 . S
C897 C898 1.434 . S
C898 C889 1.429 . S
C898 N895 1.350 . S
C898 C897 1.434 . S
C899 C900 1.369 . S
C899 C901 1.419 . S
C899 H903 0.930 . S
C900 C899 1.369 . S
C900 C909 1.429 . S
C901 C899 1.419 . S
C901 C902 1.363 . S
C901 H904 0.929 . S
C902 C901 1.363 . S
C902 C908 1.428 . S
H903 C899 0.930 . S
H904 C901 0.929 . S
S905 N906 1.613 . S
S905 N907 1.610 . S
N906 S905 1.613 . S
N906 C909 1.350 . S
N907 S905 1.610 . S
N907 C908 1.351 . S
C908 C902 1.428 . S
C908 N907 1.351 . S
C908 C909 1.434 . S
C909 C900 1.429 . S
C909 N906 1.350 . S
C909 C908 1.434 . S
C910 C911 1.369 . S
C910 C912 1.419 . S
C910 H914 0.930 . S
C911 C910 1.369 . S
C911 C920 1.429 . S
C912 C910 1.419 . S
C912 C913 1.363 . S
C912 H915 0.929 . S
C913 C912 1.363 . S
C913 C919 1.428 . S
H914 C910 0.930 . S
H915 C912 0.929 . S
S916 N917 1.613 . S
S916 N918 1.610 . S
N917 S916 1.613 . S
N917 C920 1.350 . S
N918 S916 1.610 . S
N918 C919 1.351 . S
C919 C913 1.428 . S
C919 N918 1.351 . S
C919 C920 1.434 . S
C920 C911 1.429 . S
C920 N917 1.350 . S
C920 C919 1.434 . S
C921 C922 1.369 . S
C921 C923 1.419 . S
C921 H925 0.930 . S
C922 C921 1.369 . S
C922 C931 1.429 . S
C923 C921 1.419 . S
C923 C924 1.363 . S
C923 H926 0.929 . S
C924 C923 1.363 . S
C924 C930 1.428 . S
H925 C921 0.930 . S
H926 C923 0.929 . S
S927 N928 1.613 . S
S927 N929 1.610 . S
N928 S927 1.613 . S
N928 C931 1.350 . S
N929 S927 1.610 . S
N929 C930 1.351 . S
C930 C924 1.428 . S
C930 N929 1.351 . S
C930 C931 1.434 . S
C931 C922 1.429 . S
C931 N928 1.350 . S
C931 C930 1.434 . S
C932 C933 1.369 . S
C932 C934 1.419 . S
C932 H936 0.930 . S
C933 C932 1.369 . S
C933 C942 1.429 . S
C934 C932 1.419 . S
C934 C935 1.363 . S
C934 H937 0.929 . S
C935 C934 1.363 . S
C935 C941 1.428 . S
H936 C932 0.930 . S
H937 C934 0.929 . S
S938 N939 1.613 . S
S938 N940 1.610 . S
N939 S938 1.613 . S
N939 C942 1.350 . S
N940 S938 1.610 . S
N940 C941 1.351 . S
C941 C935 1.428 . S
C941 N940 1.351 . S
C941 C942 1.434 . S
C942 C933 1.429 . S
C942 N939 1.350 . S
C942 C941 1.434 . S
C943 C944 1.369 . S
C943 C945 1.419 . S
C943 H947 0.930 . S
C944 C943 1.369 . S
C944 C953 1.429 . S
C945 C943 1.419 . S
C945 C946 1.363 . S
C945 H948 0.929 . S
C946 C945 1.363 . S
C946 C952 1.428 . S
H947 C943 0.930 . S
H948 C945 0.929 . S
S949 N950 1.613 . S
S949 N951 1.610 . S
N950 S949 1.613 . S
N950 C953 1.350 . S
N951 S949 1.610 . S
N951 C952 1.351 . S
C952 C946 1.428 . S
C952 N951 1.351 . S
C952 C953 1.434 . S
C953 C944 1.429 . S
C953 N950 1.350 . S
C953 C952 1.434 . S
C361 C266 1.454 . S
C363 C6 1.465 . S
C372 C29 1.604 . S
C374 C289 1.587 . S
C383 C46 1.502 . S
C385 C249 1.544 . S
C394 C49 1.651 . S
C396 C149 1.640 . S
C405 C169 1.946 . S
C407 C9 1.913 . S
C416 C26 1.720 . S
C418 C129 1.775 . S
C427 C76 1.760 . S
C429 C201 1.855 . S
C438 C81 1.661 . S
C440 C221 1.691 . S
C449 C181 1.554 . S
C451 C116 1.493 . S
C460 C321 1.599 . S
C462 C101 1.590 . S
C471 C61 1.539 . S
C473 C356 1.486 . S
C482 C316 1.459 . S
C484 C96 1.455 . S
C493 C166 1.321 . S
C495 C269 1.370 . S
C504 C126 1.237 . S
C506 C286 1.272 . S
C515 C146 1.441 . S
C517 C246 1.435 . S
C526 C196 1.451 . S
C528 C336 1.474 1_545 S
C537 C341 1.440 . S
C539 C216 1.405 1_554 S
C548 C301 1.592 . S
C550 C236 1.565 . S
C559 C1 1.688 . S
C561 C89 1.700 . S
C570 C106 2.041 . S
C572 C36 2.033 . S
C581 C66 1.816 . S
C583 C41 1.919 . S
C592 C86 1.885 . S
C594 C56 1.940 . S
C603 C109 1.956 . S
C605 C16 1.790 . S
C614 C69 1.862 . S
C616 C21 1.899 . S
C625 C206 1.746 . S
C627 C136 1.715 . S
C636 C226 1.889 . S
C638 C156 1.866 . S
C647 C186 1.853 . S
C649 C176 1.750 . S
C658 C209 1.819 . S
C660 C161 1.828 . S
C669 C229 1.667 . S
C671 C121 1.737 . S
C680 C189 1.534 . S
C682 C141 1.549 . S
C691 C329 1.490 . S
C693 C241 1.448 . S
C702 C346 1.700 . S
C704 C276 1.634 . S
C713 C281 1.647 . S
C715 C306 1.469 . S
C724 C296 1.776 . S
C726 C326 1.772 . S
C735 C256 1.469 . S
C737 C349 1.571 . S
C746 C309 1.244 . S
C748 C261 1.253 . S
C757 C19 1.665 . S
C759 C8 1.657 . S
C768 C28 1.681 . S
C770 C39 1.681 . S
C779 C59 1.693 . S
C781 C48 1.702 . S
C790 C68 1.660 . S
C792 C79 1.671 . S
C801 C88 1.680 . S
C803 C99 1.672 . S
C812 C119 1.709 . S
C814 C108 1.697 . S
C823 C139 1.667 1_554 S
C825 C128 1.667 . S
C834 C148 1.665 . S
C836 C159 1.671 1_554 S
C845 C179 1.701 1_554 S
C847 C168 1.710 . S
C856 C188 1.650 . S
C858 C199 1.655 . S
C867 C208 1.683 . S
C869 C219 1.674 . S
C878 C228 1.705 . S
C880 C239 1.693 . S
C889 C248 1.651 . S
C891 C259 1.653 . S
C900 C268 1.661 . S
C902 C279 1.669 . S
C911 C299 1.680 . S
C913 C288 1.674 . S
C922 C319 1.655 . S
C924 C308 1.664 . S
C933 C328 1.663 1_556 S
C935 C339 1.661 . S
C944 C348 1.686 . S
C946 C359 1.677 1_556 S
