# Generated by pormake.
# Topology ukx, (4)-cn, num edge types: 1
# Building blocks:
#     Node 0, Type 0, BuildingBlock: CEKHIL_clean_sbu_0, # of connection points: 4
#     Node 1, Type 0, BuildingBlock: CEKHIL_clean_sbu_0, # of connection points: 4
#     Node 2, Type 0, BuildingBlock: CEKHIL_clean_sbu_0, # of connection points: 4
#     Node 3, Type 0, BuildingBlock: CEKHIL_clean_sbu_0, # of connection points: 4
#     Node 4, Type 0, BuildingBlock: CEKHIL_clean_sbu_0, # of connection points: 4
#     Node 5, Type 0, BuildingBlock: CEKHIL_clean_sbu_0, # of connection points: 4
#     Node 6, Type 0, BuildingBlock: CEKHIL_clean_sbu_0, # of connection points: 4
#     Node 7, Type 0, BuildingBlock: CEKHIL_clean_sbu_0, # of connection points: 4
#     Node 8, Type 0, BuildingBlock: CEKHIL_clean_sbu_0, # of connection points: 4
#     Node 9, Type 0, BuildingBlock: CEKHIL_clean_sbu_0, # of connection points: 4
#     Node 10, Type 0, BuildingBlock: CEKHIL_clean_sbu_0, # of connection points: 4
#     Node 11, Type 0, BuildingBlock: CEKHIL_clean_sbu_0, # of connection points: 4
#     Node 12, Type 0, BuildingBlock: CEKHIL_clean_sbu_0, # of connection points: 4
#     Node 13, Type 0, BuildingBlock: CEKHIL_clean_sbu_0, # of connection points: 4
#     Node 14, Type 0, BuildingBlock: CEKHIL_clean_sbu_0, # of connection points: 4
#     Node 15, Type 0, BuildingBlock: CEKHIL_clean_sbu_0, # of connection points: 4
#     Node 16, Type 0, BuildingBlock: CEKHIL_clean_sbu_0, # of connection points: 4
#     Node 17, Type 0, BuildingBlock: CEKHIL_clean_sbu_0, # of connection points: 4
#     Node 18, Type 0, BuildingBlock: CEKHIL_clean_sbu_0, # of connection points: 4
#     Node 19, Type 0, BuildingBlock: CEKHIL_clean_sbu_0, # of connection points: 4
#     Node 20, Type 0, BuildingBlock: CEKHIL_clean_sbu_0, # of connection points: 4
#     Node 21, Type 0, BuildingBlock: CEKHIL_clean_sbu_0, # of connection points: 4
#     Node 22, Type 0, BuildingBlock: CEKHIL_clean_sbu_0, # of connection points: 4
#     Node 23, Type 0, BuildingBlock: CEKHIL_clean_sbu_0, # of connection points: 4
#     Node 24, Type 0, BuildingBlock: CEKHIL_clean_sbu_0, # of connection points: 4
#     Node 25, Type 0, BuildingBlock: CEKHIL_clean_sbu_0, # of connection points: 4
#     Node 26, Type 0, BuildingBlock: CEKHIL_clean_sbu_0, # of connection points: 4
#     Node 27, Type 0, BuildingBlock: CEKHIL_clean_sbu_0, # of connection points: 4
#     Node 28, Type 0, BuildingBlock: CEKHIL_clean_sbu_0, # of connection points: 4
#     Node 29, Type 0, BuildingBlock: CEKHIL_clean_sbu_0, # of connection points: 4
#     Node 30, Type 0, BuildingBlock: CEKHIL_clean_sbu_0, # of connection points: 4
#     Node 31, Type 0, BuildingBlock: CEKHIL_clean_sbu_0, # of connection points: 4
#     Node 32, Type 0, BuildingBlock: CEKHIL_clean_sbu_0, # of connection points: 4
#     Node 33, Type 0, BuildingBlock: CEKHIL_clean_sbu_0, # of connection points: 4
#     Node 34, Type 0, BuildingBlock: CEKHIL_clean_sbu_0, # of connection points: 4
#     Node 35, Type 0, BuildingBlock: CEKHIL_clean_sbu_0, # of connection points: 4
#     Node 36, Type 0, BuildingBlock: CEKHIL_clean_sbu_0, # of connection points: 4
#     Node 37, Type 0, BuildingBlock: CEKHIL_clean_sbu_0, # of connection points: 4
#     Node 38, Type 0, BuildingBlock: CEKHIL_clean_sbu_0, # of connection points: 4
#     Node 39, Type 0, BuildingBlock: CEKHIL_clean_sbu_0, # of connection points: 4
#     Node 40, Type 0, BuildingBlock: CEKHIL_clean_sbu_0, # of connection points: 4
#     Node 41, Type 0, BuildingBlock: CEKHIL_clean_sbu_0, # of connection points: 4
#     Node 42, Type 0, BuildingBlock: CEKHIL_clean_sbu_0, # of connection points: 4
#     Node 43, Type 0, BuildingBlock: CEKHIL_clean_sbu_0, # of connection points: 4
#     Node 44, Type 0, BuildingBlock: CEKHIL_clean_sbu_0, # of connection points: 4
#     Node 45, Type 0, BuildingBlock: CEKHIL_clean_sbu_0, # of connection points: 4
#     Node 46, Type 0, BuildingBlock: CEKHIL_clean_sbu_0, # of connection points: 4
#     Node 47, Type 0, BuildingBlock: CEKHIL_clean_sbu_0, # of connection points: 4
#     Node 48, Type 0, BuildingBlock: CEKHIL_clean_sbu_0, # of connection points: 4
#     Node 49, Type 0, BuildingBlock: CEKHIL_clean_sbu_0, # of connection points: 4
#     Node 50, Type 0, BuildingBlock: CEKHIL_clean_sbu_0, # of connection points: 4
#     Node 51, Type 0, BuildingBlock: CEKHIL_clean_sbu_0, # of connection points: 4
#     Node 52, Type 0, BuildingBlock: CEKHIL_clean_sbu_0, # of connection points: 4
#     Node 53, Type 0, BuildingBlock: CEKHIL_clean_sbu_0, # of connection points: 4
#     Node 54, Type 0, BuildingBlock: CEKHIL_clean_sbu_0, # of connection points: 4
#     Node 55, Type 0, BuildingBlock: CEKHIL_clean_sbu_0, # of connection points: 4
#     Node 56, Type 0, BuildingBlock: CEKHIL_clean_sbu_0, # of connection points: 4
#     Node 57, Type 0, BuildingBlock: CEKHIL_clean_sbu_0, # of connection points: 4
#     Node 58, Type 0, BuildingBlock: CEKHIL_clean_sbu_0, # of connection points: 4
#     Node 59, Type 0, BuildingBlock: CEKHIL_clean_sbu_0, # of connection points: 4
#     Node 60, Type 0, BuildingBlock: CEKHIL_clean_sbu_0, # of connection points: 4
#     Node 61, Type 0, BuildingBlock: CEKHIL_clean_sbu_0, # of connection points: 4
#     Node 62, Type 0, BuildingBlock: CEKHIL_clean_sbu_0, # of connection points: 4
#     Node 63, Type 0, BuildingBlock: CEKHIL_clean_sbu_0, # of connection points: 4
#     Node 64, Type 0, BuildingBlock: CEKHIL_clean_sbu_0, # of connection points: 4
#     Node 65, Type 0, BuildingBlock: CEKHIL_clean_sbu_0, # of connection points: 4
#     Node 66, Type 0, BuildingBlock: CEKHIL_clean_sbu_0, # of connection points: 4
#     Node 67, Type 0, BuildingBlock: CEKHIL_clean_sbu_0, # of connection points: 4
#     Node 68, Type 0, BuildingBlock: CEKHIL_clean_sbu_0, # of connection points: 4
#     Node 69, Type 0, BuildingBlock: CEKHIL_clean_sbu_0, # of connection points: 4
#     Node 70, Type 0, BuildingBlock: CEKHIL_clean_sbu_0, # of connection points: 4
#     Node 71, Type 0, BuildingBlock: CEKHIL_clean_sbu_0, # of connection points: 4
#     Node 72, Type 0, BuildingBlock: CEKHIL_clean_sbu_0, # of connection points: 4
#     Node 73, Type 0, BuildingBlock: CEKHIL_clean_sbu_0, # of connection points: 4
#     Node 74, Type 0, BuildingBlock: CEKHIL_clean_sbu_0, # of connection points: 4
#     Node 75, Type 0, BuildingBlock: CEKHIL_clean_sbu_0, # of connection points: 4
#     Node 76, Type 0, BuildingBlock: CEKHIL_clean_sbu_0, # of connection points: 4
#     Node 77, Type 0, BuildingBlock: CEKHIL_clean_sbu_0, # of connection points: 4
#     Node 78, Type 0, BuildingBlock: CEKHIL_clean_sbu_0, # of connection points: 4
#     Node 79, Type 0, BuildingBlock: CEKHIL_clean_sbu_0, # of connection points: 4
#     Node 80, Type 0, BuildingBlock: CEKHIL_clean_sbu_0, # of connection points: 4
#     Node 81, Type 0, BuildingBlock: CEKHIL_clean_sbu_0, # of connection points: 4
#     Node 82, Type 0, BuildingBlock: CEKHIL_clean_sbu_0, # of connection points: 4
#     Node 83, Type 0, BuildingBlock: CEKHIL_clean_sbu_0, # of connection points: 4
#     Node 84, Type 0, BuildingBlock: CEKHIL_clean_sbu_0, # of connection points: 4
#     Node 85, Type 0, BuildingBlock: CEKHIL_clean_sbu_0, # of connection points: 4
#     Node 86, Type 0, BuildingBlock: CEKHIL_clean_sbu_0, # of connection points: 4
#     Node 87, Type 0, BuildingBlock: CEKHIL_clean_sbu_0, # of connection points: 4
#     Node 88, Type 0, BuildingBlock: CEKHIL_clean_sbu_0, # of connection points: 4
#     Node 89, Type 0, BuildingBlock: CEKHIL_clean_sbu_0, # of connection points: 4
#     Node 90, Type 0, BuildingBlock: CEKHIL_clean_sbu_0, # of connection points: 4
#     Node 91, Type 0, BuildingBlock: CEKHIL_clean_sbu_0, # of connection points: 4
#     Node 92, Type 0, BuildingBlock: CEKHIL_clean_sbu_0, # of connection points: 4
#     Node 93, Type 0, BuildingBlock: CEKHIL_clean_sbu_0, # of connection points: 4
#     Node 94, Type 0, BuildingBlock: CEKHIL_clean_sbu_0, # of connection points: 4
#     Node 95, Type 0, BuildingBlock: CEKHIL_clean_sbu_0, # of connection points: 4
#     Edge 96, Type (0, 0), None
#     Edge 97, Type (0, 0), None
#     Edge 98, Type (0, 0), None
#     Edge 99, Type (0, 0), None
#     Edge 100, Type (0, 0), None
#     Edge 101, Type (0, 0), None
#     Edge 102, Type (0, 0), None
#     Edge 103, Type (0, 0), None
#     Edge 104, Type (0, 0), None
#     Edge 105, Type (0, 0), None
#     Edge 106, Type (0, 0), None
#     Edge 107, Type (0, 0), None
#     Edge 108, Type (0, 0), None
#     Edge 109, Type (0, 0), None
#     Edge 110, Type (0, 0), None
#     Edge 111, Type (0, 0), None
#     Edge 112, Type (0, 0), None
#     Edge 113, Type (0, 0), None
#     Edge 114, Type (0, 0), None
#     Edge 115, Type (0, 0), None
#     Edge 116, Type (0, 0), None
#     Edge 117, Type (0, 0), None
#     Edge 118, Type (0, 0), None
#     Edge 119, Type (0, 0), None
#     Edge 120, Type (0, 0), None
#     Edge 121, Type (0, 0), None
#     Edge 122, Type (0, 0), None
#     Edge 123, Type (0, 0), None
#     Edge 124, Type (0, 0), None
#     Edge 125, Type (0, 0), None
#     Edge 126, Type (0, 0), None
#     Edge 127, Type (0, 0), None
#     Edge 128, Type (0, 0), None
#     Edge 129, Type (0, 0), None
#     Edge 130, Type (0, 0), None
#     Edge 131, Type (0, 0), None
#     Edge 132, Type (0, 0), None
#     Edge 133, Type (0, 0), None
#     Edge 134, Type (0, 0), None
#     Edge 135, Type (0, 0), None
#     Edge 136, Type (0, 0), None
#     Edge 137, Type (0, 0), None
#     Edge 138, Type (0, 0), None
#     Edge 139, Type (0, 0), None
#     Edge 140, Type (0, 0), None
#     Edge 141, Type (0, 0), None
#     Edge 142, Type (0, 0), None
#     Edge 143, Type (0, 0), None
#     Edge 144, Type (0, 0), None
#     Edge 145, Type (0, 0), None
#     Edge 146, Type (0, 0), None
#     Edge 147, Type (0, 0), None
#     Edge 148, Type (0, 0), None
#     Edge 149, Type (0, 0), None
#     Edge 150, Type (0, 0), None
#     Edge 151, Type (0, 0), None
#     Edge 152, Type (0, 0), None
#     Edge 153, Type (0, 0), None
#     Edge 154, Type (0, 0), None
#     Edge 155, Type (0, 0), None
#     Edge 156, Type (0, 0), None
#     Edge 157, Type (0, 0), None
#     Edge 158, Type (0, 0), None
#     Edge 159, Type (0, 0), None
#     Edge 160, Type (0, 0), None
#     Edge 161, Type (0, 0), None
#     Edge 162, Type (0, 0), None
#     Edge 163, Type (0, 0), None
#     Edge 164, Type (0, 0), None
#     Edge 165, Type (0, 0), None
#     Edge 166, Type (0, 0), None
#     Edge 167, Type (0, 0), None
#     Edge 168, Type (0, 0), None
#     Edge 169, Type (0, 0), None
#     Edge 170, Type (0, 0), None
#     Edge 171, Type (0, 0), None
#     Edge 172, Type (0, 0), None
#     Edge 173, Type (0, 0), None
#     Edge 174, Type (0, 0), None
#     Edge 175, Type (0, 0), None
#     Edge 176, Type (0, 0), None
#     Edge 177, Type (0, 0), None
#     Edge 178, Type (0, 0), None
#     Edge 179, Type (0, 0), None
#     Edge 180, Type (0, 0), None
#     Edge 181, Type (0, 0), None
#     Edge 182, Type (0, 0), None
#     Edge 183, Type (0, 0), None
#     Edge 184, Type (0, 0), None
#     Edge 185, Type (0, 0), None
#     Edge 186, Type (0, 0), None
#     Edge 187, Type (0, 0), None
#     Edge 188, Type (0, 0), None
#     Edge 189, Type (0, 0), None
#     Edge 190, Type (0, 0), None
#     Edge 191, Type (0, 0), None
#     Edge 192, Type (0, 0), None
#     Edge 193, Type (0, 0), None
#     Edge 194, Type (0, 0), None
#     Edge 195, Type (0, 0), None
#     Edge 196, Type (0, 0), None
#     Edge 197, Type (0, 0), None
#     Edge 198, Type (0, 0), None
#     Edge 199, Type (0, 0), None
#     Edge 200, Type (0, 0), None
#     Edge 201, Type (0, 0), None
#     Edge 202, Type (0, 0), None
#     Edge 203, Type (0, 0), None
#     Edge 204, Type (0, 0), None
#     Edge 205, Type (0, 0), None
#     Edge 206, Type (0, 0), None
#     Edge 207, Type (0, 0), None
#     Edge 208, Type (0, 0), None
#     Edge 209, Type (0, 0), None
#     Edge 210, Type (0, 0), None
#     Edge 211, Type (0, 0), None
#     Edge 212, Type (0, 0), None
#     Edge 213, Type (0, 0), None
#     Edge 214, Type (0, 0), None
#     Edge 215, Type (0, 0), None
#     Edge 216, Type (0, 0), None
#     Edge 217, Type (0, 0), None
#     Edge 218, Type (0, 0), None
#     Edge 219, Type (0, 0), None
#     Edge 220, Type (0, 0), None
#     Edge 221, Type (0, 0), None
#     Edge 222, Type (0, 0), None
#     Edge 223, Type (0, 0), None
#     Edge 224, Type (0, 0), None
#     Edge 225, Type (0, 0), None
#     Edge 226, Type (0, 0), None
#     Edge 227, Type (0, 0), None
#     Edge 228, Type (0, 0), None
#     Edge 229, Type (0, 0), None
#     Edge 230, Type (0, 0), None
#     Edge 231, Type (0, 0), None
#     Edge 232, Type (0, 0), None
#     Edge 233, Type (0, 0), None
#     Edge 234, Type (0, 0), None
#     Edge 235, Type (0, 0), None
#     Edge 236, Type (0, 0), None
#     Edge 237, Type (0, 0), None
#     Edge 238, Type (0, 0), None
#     Edge 239, Type (0, 0), None
#     Edge 240, Type (0, 0), None
#     Edge 241, Type (0, 0), None
#     Edge 242, Type (0, 0), None
#     Edge 243, Type (0, 0), None
#     Edge 244, Type (0, 0), None
#     Edge 245, Type (0, 0), None
#     Edge 246, Type (0, 0), None
#     Edge 247, Type (0, 0), None
#     Edge 248, Type (0, 0), None
#     Edge 249, Type (0, 0), None
#     Edge 250, Type (0, 0), None
#     Edge 251, Type (0, 0), None
#     Edge 252, Type (0, 0), None
#     Edge 253, Type (0, 0), None
#     Edge 254, Type (0, 0), None
#     Edge 255, Type (0, 0), None
#     Edge 256, Type (0, 0), None
#     Edge 257, Type (0, 0), None
#     Edge 258, Type (0, 0), None
#     Edge 259, Type (0, 0), None
#     Edge 260, Type (0, 0), None
#     Edge 261, Type (0, 0), None
#     Edge 262, Type (0, 0), None
#     Edge 263, Type (0, 0), None
#     Edge 264, Type (0, 0), None
#     Edge 265, Type (0, 0), None
#     Edge 266, Type (0, 0), None
#     Edge 267, Type (0, 0), None
#     Edge 268, Type (0, 0), None
#     Edge 269, Type (0, 0), None
#     Edge 270, Type (0, 0), None
#     Edge 271, Type (0, 0), None
#     Edge 272, Type (0, 0), None
#     Edge 273, Type (0, 0), None
#     Edge 274, Type (0, 0), None
#     Edge 275, Type (0, 0), None
#     Edge 276, Type (0, 0), None
#     Edge 277, Type (0, 0), None
#     Edge 278, Type (0, 0), None
#     Edge 279, Type (0, 0), None
#     Edge 280, Type (0, 0), None
#     Edge 281, Type (0, 0), None
#     Edge 282, Type (0, 0), None
#     Edge 283, Type (0, 0), None
#     Edge 284, Type (0, 0), None
#     Edge 285, Type (0, 0), None
#     Edge 286, Type (0, 0), None
#     Edge 287, Type (0, 0), None
# Relax obj value: 0.267
# Max RMSD: 0.167
# Mean RMSD: 0.152
data_MOF--net-ukx--node1-CEKHIL_clean_sbu_0--edge1-none
_symmetry_space_group_name_H-M    P1
_symmetry_Int_Tables_number       1
_symmetry_cell_setting            triclinic
loop_
_symmetry_equiv_pos_as_xyz
'x, y, z'
_cell_length_a     34.242966
_cell_length_b     34.029657
_cell_length_c     34.02927
_cell_angle_alpha  90.000036
_cell_angle_beta   90.000013
_cell_angle_gamma 89.999949
loop_
_atom_site_label
_atom_site_type_symbol
_atom_site_fract_x
_atom_site_fract_y
_atom_site_fract_z
_atom_type_partial_charge
Co0 Co 0.06318 0.14266 0.32392 0.0
O1 O 0.11502 0.12554 0.30933 0.0
O2 O 0.08554 0.11103 0.36549 0.0
C3 C 0.03231 0.12916 0.26644 0.0
O4 O 1.00928 0.15601 0.34822 0.0
Co5 Co 0.03107 0.21511 0.27785 0.0
O6 O 0.98433 0.20484 0.31074 0.0
C7 C 0.09847 0.22216 0.33007 0.0
C8 C 0.11668 0.10905 0.34359 0.0
C9 C 0.98174 0.18051 0.33919 0.0
O10 O 0.08726 0.19103 0.34796 0.0
O11 O 0.08326 0.23348 0.29763 0.0
O12 O 0.0385 0.10133 0.29187 0.0
O13 O 0.04942 0.16186 0.27439 0.0
Co14 Co 0.12416 0.81442 0.57336 0.0
O15 O 0.16229 0.79037 0.53887 0.0
O16 O 0.09958 0.79758 0.52494 0.0
C17 C 0.15971 0.86692 0.59351 0.0
O18 O 0.07595 0.83815 0.59928 0.0
Co19 Co 0.13764 0.82101 0.66303 0.0
O20 O 0.08474 0.84476 0.66441 0.0
C21 C 0.11473 0.74498 0.63009 0.0
C22 C 0.1334 0.78341 0.51504 0.0
C23 C 0.06403 0.84853 0.63358 0.0
O24 O 0.1117 0.76116 0.59615 0.0
O25 O 0.12664 0.76318 0.66069 0.0
O26 O 0.14156 0.86762 0.55989 0.0
O27 O 0.15941 0.8336 0.61164 0.0
Co28 Co 0.45712 0.87528 0.82392 0.0
O29 O 0.40528 0.8924 0.80933 0.0
O30 O 0.43476 0.9069 0.86549 0.0
C31 C 0.48799 0.88877 0.76643 0.0
O32 O 0.51102 0.86193 0.84821 0.0
Co33 Co 0.48923 0.80283 0.77785 0.0
O34 O 0.53597 0.8131 0.81074 0.0
C35 C 0.42182 0.79577 0.83006 0.0
C36 C 0.40362 0.90888 0.84359 0.0
C37 C 0.53855 0.83742 0.83919 0.0
O38 O 0.43304 0.82691 0.84796 0.0
O39 O 0.43704 0.78446 0.79763 0.0
O40 O 0.4818 0.9166 0.79187 0.0
O41 O 0.47088 0.85607 0.77438 0.0
Co42 Co 0.39614 0.20351 0.07336 0.0
O43 O 0.35801 0.22757 0.03887 0.0
O44 O 0.42072 0.22035 0.02493 0.0
C45 C 0.36059 0.15101 0.09351 0.0
O46 O 0.44435 0.17978 0.09928 0.0
Co47 Co 0.38266 0.19692 0.16303 0.0
O48 O 0.43556 0.17318 0.1644 0.0
C49 C 0.40557 0.27296 0.13009 0.0
C50 C 0.3869 0.23453 0.01504 0.0
C51 C 0.45627 0.16941 0.13358 0.0
O52 O 0.4086 0.25677 0.09615 0.0
O53 O 0.39365 0.25475 0.16069 0.0
O54 O 0.37873 0.15032 0.05989 0.0
O55 O 0.36089 0.18434 0.11164 0.0
Co56 Co 0.06318 0.87528 0.19397 0.0
O57 O 0.11502 0.8924 0.20855 0.0
O58 O 0.08554 0.90691 0.1524 0.0
C59 C 0.03231 0.88878 0.25145 0.0
O60 O 1.00928 0.86193 0.16967 0.0
Co61 Co 0.03107 0.80283 0.24003 0.0
O62 O 0.98433 0.8131 0.20715 0.0
C63 C 0.09848 0.79578 0.18782 0.0
C64 C 0.11668 0.90889 0.17429 0.0
C65 C 0.98174 0.83743 0.17869 0.0
O66 O 0.08726 0.82691 0.16993 0.0
O67 O 0.08326 0.78446 0.22025 0.0
O68 O 0.0385 0.9166 0.22602 0.0
O69 O 0.04942 0.85607 0.2435 0.0
Co70 Co 0.39614 0.81442 0.44453 0.0
O71 O 0.35801 0.79037 0.47902 0.0
O72 O 0.42072 0.79758 0.49296 0.0
C73 C 0.36059 0.86692 0.42438 0.0
O74 O 0.44435 0.83815 0.41861 0.0
Co75 Co 0.38266 0.82101 0.35486 0.0
O76 O 0.43556 0.84476 0.35349 0.0
C77 C 0.40557 0.74498 0.3878 0.0
C78 C 0.3869 0.78341 0.50285 0.0
C79 C 0.45627 0.84853 0.38431 0.0
O80 O 0.4086 0.76116 0.42174 0.0
O81 O 0.39365 0.76318 0.3572 0.0
O82 O 0.37873 0.86762 0.458 0.0
O83 O 0.36089 0.8336 0.40625 0.0
Co84 Co 0.45712 0.14266 0.69397 0.0
O85 O 0.40528 0.12554 0.70855 0.0
O86 O 0.43476 0.11103 0.6524 0.0
C87 C 0.48799 0.12916 0.75145 0.0
O88 O 0.51102 0.15601 0.66967 0.0
Co89 Co 0.48923 0.21511 0.74003 0.0
O90 O 0.53597 0.20484 0.70714 0.0
C91 C 0.42182 0.22216 0.68782 0.0
C92 C 0.40362 0.10905 0.6743 0.0
C93 C 0.53855 0.18051 0.67869 0.0
O94 O 0.43304 0.19102 0.66993 0.0
O95 O 0.43704 0.23348 0.72025 0.0
O96 O 0.4818 0.10133 0.72602 0.0
O97 O 0.47088 0.16186 0.7435 0.0
Co98 Co 0.12416 0.20351 0.94453 0.0
O99 O 0.16229 0.22757 0.97902 0.0
O100 O 0.09958 0.22035 0.99295 0.0
C101 C 0.15971 0.15101 0.92438 0.0
O102 O 0.07595 0.17978 0.91861 0.0
Co103 Co 0.13764 0.19692 0.85486 0.0
O104 O 0.08474 0.17318 0.85348 0.0
C105 C 0.11473 0.27295 0.88779 0.0
C106 C 0.1334 0.23452 1.00285 0.0
C107 C 0.06402 0.1694 0.88431 0.0
O108 O 0.1117 0.25677 0.92174 0.0
O109 O 0.12664 0.25475 0.8572 0.0
O110 O 0.14156 0.15032 0.958 0.0
O111 O 0.15941 0.18433 0.90625 0.0
Co112 Co 0.32662 0.06321 0.14933 0.0
O113 O 0.29261 0.0374 0.11195 0.0
O114 O 0.27955 0.04561 0.17522 0.0
C115 C 0.34437 0.11534 0.11188 0.0
O116 O 0.35209 0.08888 0.19705 0.0
Co117 Co 0.41501 0.07166 0.13493 0.0
O118 O 0.41627 0.09789 0.18702 0.0
C119 C 0.38448 0.9949 0.15811 0.0
C120 C 0.26965 0.03053 0.14161 0.0
C121 C 0.38582 0.1012 0.20819 0.0
O122 O 0.35077 0.01081 0.1624 0.0
O123 O 0.41426 0.0135 0.1452 0.0
O124 O 0.31136 0.11549 0.13086 0.0
O125 O 0.36356 0.08264 0.11279 0.0
Co126 Co 0.20712 0.07394 0.39264 0.0
O127 O 0.15528 0.05936 0.37552 0.0
O128 O 0.18476 0.11551 0.36101 0.0
C129 C 0.23799 0.01646 0.37914 0.0
O130 O 0.26102 0.09824 0.40599 0.0
Co131 Co 0.23923 0.02788 0.46509 0.0
O132 O 0.28597 0.06077 0.45482 0.0
C133 C 0.17183 0.0801 0.47214 0.0
C134 C 0.15362 0.09362 0.35904 0.0
C135 C 0.28856 0.08922 0.43049 0.0
O136 O 0.18304 0.09798 0.44101 0.0
O137 O 0.18704 0.04766 0.48346 0.0
O138 O 0.2318 0.04189 0.35131 0.0
O139 O 0.22088 0.02441 0.41184 0.0
Co140 Co 0.19367 0.95473 0.64933 0.0
O141 O 0.22769 0.98053 0.61195 0.0
O142 O 0.24075 0.97233 0.67522 0.0
C143 C 0.17592 0.9026 0.61188 0.0
O144 O 0.1682 0.92905 0.69705 0.0
Co145 Co 0.10528 0.94628 0.63493 0.0
O146 O 0.10402 0.92004 0.68702 0.0
C147 C 0.13582 0.02304 0.65811 0.0
C148 C 0.25065 0.9874 0.64161 0.0
C149 C 0.13448 0.91674 0.70819 0.0
O150 O 0.16953 1.00713 0.6624 0.0
O151 O 0.10603 1.00443 0.6452 0.0
O152 O 0.20894 0.90244 0.63086 0.0
O153 O 0.15674 0.93529 0.61279 0.0
Co154 Co 0.31318 0.94399 0.89264 0.0
O155 O 0.36502 0.95858 0.87552 0.0
O156 O 0.33554 0.90242 0.86101 0.0
C157 C 0.28231 1.00147 0.87914 0.0
O158 O 0.25928 0.91969 0.90599 0.0
Co159 Co 0.28107 0.99006 0.96509 0.0
O160 O 0.23433 0.95717 0.95482 0.0
C161 C 0.34848 0.93784 0.97214 0.0
C162 C 0.36668 0.92432 0.85904 0.0
C163 C 0.23175 0.92871 0.93049 0.0
O164 O 0.33726 0.91995 0.941 0.0
O165 O 0.33326 0.97027 0.98346 0.0
O166 O 0.2885 0.97604 0.85131 0.0
O167 O 0.29942 0.99352 0.91184 0.0
Co168 Co 0.32662 0.95473 0.36855 0.0
O169 O 0.2926 0.98053 0.40594 0.0
O170 O 0.27955 0.97232 0.34266 0.0
C171 C 0.34437 0.9026 0.40601 0.0
O172 O 0.3521 0.92905 0.32084 0.0
Co173 Co 0.41501 0.94628 0.38296 0.0
O174 O 0.41627 0.92004 0.33087 0.0
C175 C 0.38447 0.02303 0.35978 0.0
C176 C 0.26965 0.98741 0.37627 0.0
C177 C 0.38582 0.91673 0.3097 0.0
O178 O 0.35077 1.00712 0.35549 0.0
O179 O 0.41426 1.00443 0.37269 0.0
O180 O 0.31136 0.90244 0.38703 0.0
O181 O 0.36356 0.9353 0.4051 0.0
Co182 Co 0.31317 0.07394 0.62525 0.0
O183 O 0.36502 0.05935 0.64237 0.0
O184 O 0.33554 0.11551 0.65688 0.0
C185 C 0.28229 0.01649 0.63874 0.0
O186 O 0.25928 0.09825 0.6119 0.0
Co187 Co 0.28107 0.02789 0.55279 0.0
O188 O 0.23433 0.06078 0.56307 0.0
C189 C 0.34848 0.08009 0.54575 0.0
C190 C 0.36668 0.09361 0.65885 0.0
C191 C 0.23175 0.08923 0.58739 0.0
O192 O 0.33726 0.09798 0.57688 0.0
O193 O 0.33326 0.04766 0.53443 0.0
O194 O 0.28849 0.0419 0.66658 0.0
O195 O 0.29941 0.02442 0.60604 0.0
Co196 Co 0.19367 0.06321 0.86855 0.0
O197 O 0.22769 0.0374 0.90594 0.0
O198 O 0.24075 0.04561 0.84266 0.0
C199 C 0.17592 0.11533 0.90601 0.0
O200 O 0.1682 0.08888 0.82084 0.0
Co201 Co 0.10529 0.07165 0.88296 0.0
O202 O 0.10402 0.09789 0.83087 0.0
C203 C 0.13582 0.99489 0.85978 0.0
C204 C 0.25065 0.03053 0.87627 0.0
C205 C 0.13448 0.1012 0.8097 0.0
O206 O 0.16953 0.01081 0.85549 0.0
O207 O 0.10603 0.0135 0.8727 0.0
O208 O 0.20894 0.11549 0.88703 0.0
O209 O 0.15674 0.08264 0.9051 0.0
Co210 Co 0.20712 0.94399 0.12525 0.0
O211 O 0.15528 0.95858 0.14237 0.0
O212 O 0.18476 0.90242 0.15687 0.0
C213 C 0.23801 1.00145 0.13873 0.0
O214 O 0.26102 0.91969 0.1119 0.0
Co215 Co 0.23922 0.99005 0.05279 0.0
O216 O 0.28597 0.95716 0.06306 0.0
C217 C 0.17182 0.93784 0.04574 0.0
C218 C 0.15362 0.92432 0.15885 0.0
C219 C 0.28855 0.92871 0.08739 0.0
O220 O 0.18304 0.91995 0.07688 0.0
O221 O 0.18704 0.97028 0.03443 0.0
O222 O 0.23181 0.97603 0.16657 0.0
O223 O 0.22089 0.99352 0.10603 0.0
Co224 Co 0.14614 0.32338 0.0644 0.0
O225 O 0.10801 0.2889 0.04034 0.0
O226 O 0.17073 0.27496 0.04756 0.0
C227 C 0.11058 0.34353 0.11689 0.0
O228 O 0.19434 0.3493 0.08813 0.0
Co229 Co 0.13265 0.41305 0.07099 0.0
O230 O 0.18556 0.41443 0.09473 0.0
C231 C 0.15557 0.38012 0.99496 0.0
C232 C 0.1369 0.26507 0.03338 0.0
C233 C 0.20627 0.38361 0.09851 0.0
O234 O 0.1586 0.34617 0.01114 0.0
O235 O 0.14365 0.41071 0.01316 0.0
O236 O 0.12873 0.30991 0.11759 0.0
O237 O 0.11088 0.36166 0.08357 0.0
Co238 Co 0.64614 0.19457 0.95349 0.0
O239 O 0.60801 0.22905 0.97754 0.0
O240 O 0.67072 0.24299 0.97033 0.0
C241 C 0.61058 0.17441 0.90098 0.0
O242 O 0.69434 0.16864 0.92976 0.0
Co243 Co 0.63265 0.1049 0.94689 0.0
O244 O 0.68556 0.10352 0.92315 0.0
C245 C 0.65557 0.13783 0.02293 0.0
C246 C 0.63689 0.25288 0.9845 0.0
C247 C 0.70627 0.13434 0.91938 0.0
O248 O 0.6586 0.17177 1.00675 0.0
O249 O 0.64365 0.10724 1.00473 0.0
O250 O 0.62873 0.20803 0.90029 0.0
O251 O 0.61088 0.15628 0.93431 0.0
Co252 Co 0.07661 0.39936 0.2047 0.0
O253 O 0.0426 0.36197 0.2305 0.0
O254 O 0.02954 0.42525 0.2223 0.0
C255 C 0.09436 0.3619 0.15257 0.0
O256 O 0.10209 0.44708 0.17902 0.0
Co257 Co 0.165 0.38496 0.19625 0.0
O258 O 0.16626 0.43704 0.17001 0.0
C259 C 0.13447 0.40814 0.27301 0.0
C260 C 0.01964 0.39164 0.23737 0.0
C261 C 0.13581 0.45822 0.16671 0.0
O262 O 0.10076 0.41243 0.2571 0.0
O263 O 0.16426 0.39522 0.2544 0.0
O264 O 0.06135 0.38089 0.15241 0.0
O265 O 0.11355 0.36281 0.18527 0.0
Co266 Co 0.87416 0.82337 0.45348 0.0
O267 O 0.91229 0.78889 0.47754 0.0
O268 O 0.84958 0.77495 0.47033 0.0
C269 C 0.90971 0.84353 0.40098 0.0
O270 O 0.82595 0.84929 0.42975 0.0
Co271 Co 0.88764 0.91304 0.44689 0.0
O272 O 0.83474 0.91442 0.42315 0.0
C273 C 0.86472 0.88011 0.52293 0.0
C274 C 0.8834 0.76505 0.4845 0.0
C275 C 0.81403 0.8836 0.41938 0.0
O276 O 0.8617 0.84616 0.50675 0.0
O277 O 0.87664 0.9107 0.50473 0.0
O278 O 0.89157 0.8099 0.40029 0.0
O279 O 0.90941 0.86165 0.43431 0.0
Co280 Co 0.94368 0.11858 0.2047 0.0
O281 O 0.9777 0.15596 0.23052 0.0
O282 O 0.99076 0.09269 0.22229 0.0
C283 C 0.92593 0.15606 0.15259 0.0
O284 O 0.91821 0.07087 0.17902 0.0
Co285 Co 0.85529 0.13298 0.19626 0.0
O286 O 0.85403 0.0809 0.17002 0.0
C287 C 0.88583 0.10979 0.27301 0.0
C288 C 1.00065 0.12629 0.23738 0.0
C289 C 0.88448 0.05973 0.16671 0.0
O290 O 0.91953 0.1055 0.2571 0.0
O291 O 0.85604 0.12271 0.25441 0.0
O292 O 0.95894 0.13707 0.15242 0.0
O293 O 0.90674 0.15513 0.18528 0.0
Co294 Co 0.37416 0.69456 0.5644 0.0
O295 O 0.41229 0.72904 0.54034 0.0
O296 O 0.34957 0.74298 0.54756 0.0
C297 C 0.40972 0.6744 0.6169 0.0
O298 O 0.32595 0.66863 0.58814 0.0
Co299 Co 0.38764 0.60489 0.57099 0.0
O300 O 0.33474 0.60351 0.59474 0.0
C301 C 0.36472 0.63782 0.49496 0.0
C302 C 0.3834 0.75286 0.53338 0.0
C303 C 0.31403 0.63433 0.59851 0.0
O304 O 0.3617 0.67176 0.51114 0.0
O305 O 0.37664 0.60723 0.51316 0.0
O306 O 0.39157 0.70803 0.61759 0.0
O307 O 0.40941 0.65627 0.58357 0.0
Co308 Co 0.07661 0.61858 0.31319 0.0
O309 O 0.0426 0.65596 0.28738 0.0
O310 O 0.02954 0.59269 0.29559 0.0
C311 C 0.09437 0.65605 0.36531 0.0
O312 O 0.10209 0.57086 0.33887 0.0
Co313 Co 0.16501 0.63298 0.32164 0.0
O314 O 0.16627 0.5809 0.34787 0.0
C315 C 0.13447 0.6098 0.24488 0.0
C316 C 0.01964 0.6263 0.28051 0.0
C317 C 0.13581 0.55972 0.35118 0.0
O318 O 0.10076 0.60551 0.26079 0.0
O319 O 0.16425 0.62272 0.26348 0.0
O320 O 0.06136 0.63706 0.36547 0.0
O321 O 0.11355 0.65513 0.33262 0.0
Co322 Co 0.44368 0.39936 0.81319 0.0
O323 O 0.4777 0.36197 0.78738 0.0
O324 O 0.49076 0.42524 0.79559 0.0
C325 C 0.42593 0.36189 0.86531 0.0
O326 O 0.41821 0.44707 0.83887 0.0
Co327 Co 0.35529 0.38495 0.82164 0.0
O328 O 0.35403 0.43704 0.84787 0.0
C329 C 0.38583 0.40814 0.74488 0.0
C330 C 0.50066 0.39164 0.78051 0.0
C331 C 0.38449 0.45821 0.85118 0.0
O332 O 0.41954 0.41243 0.76079 0.0
O333 O 0.35604 0.39522 0.76348 0.0
O334 O 0.45894 0.38088 0.86547 0.0
O335 O 0.40675 0.36281 0.83261 0.0
Co336 Co 0.95477 0.87232 0.69525 0.0
O337 O 0.97882 0.90971 0.73035 0.0
O338 O 0.9711 0.84629 0.743 0.0
C339 C 0.90286 0.90887 0.6762 0.0
O340 O 0.93076 0.8247 0.66873 0.0
Co341 Co 0.94819 0.88719 0.60606 0.0
O342 O 0.92338 0.83454 0.6039 0.0
C343 C 0.02368 0.86268 0.63798 0.0
C344 C 0.98521 0.88007 0.75362 0.0
C345 C 0.91979 0.81336 0.6345 0.0
O346 O 1.00767 0.85978 0.67202 0.0
O347 O 1.00554 0.87499 0.60754 0.0
O348 O 0.9022 0.88986 0.70939 0.0
O349 O 0.93586 0.90873 0.65776 0.0
Co350 Co 0.89171 0.21777 0.42356 0.0
O351 O 0.85646 0.2466 0.45865 0.0
O352 O 0.92025 0.24601 0.46501 0.0
C353 C 0.85663 0.16031 0.42048 0.0
O354 O 0.93766 0.19259 0.39306 0.0
Co355 Co 0.85908 0.18899 0.34149 0.0
O356 O 0.91485 0.17536 0.33327 0.0
C357 C 0.89646 0.26739 0.34989 0.0
C358 C 0.8868 0.2593 0.47752 0.0
C359 C 0.94271 0.17919 0.3578 0.0
O360 O 0.89804 0.2647 0.38767 0.0
O361 O 0.88082 0.24158 0.32756 0.0
O362 O 0.88016 0.16679 0.4498 0.0
O363 O 0.85214 0.18953 0.39722 0.0
Co364 Co 0.56552 0.14562 0.19525 0.0
O365 O 0.54147 0.10822 0.23035 0.0
O366 O 0.54919 0.17164 0.243 0.0
C367 C 0.61744 0.10907 0.1762 0.0
O368 O 0.58953 0.19324 0.16874 0.0
Co369 Co 0.57211 0.13075 0.10606 0.0
O370 O 0.59692 0.1834 0.10391 0.0
C371 C 0.49662 0.15525 0.13798 0.0
C372 C 0.53508 0.13787 0.25362 0.0
C373 C 0.60051 0.20458 0.13451 0.0
O374 O 0.51263 0.15816 0.17202 0.0
O375 O 0.51475 0.14295 0.10754 0.0
O376 O 0.61809 0.12808 0.20939 0.0
O377 O 0.58443 0.1092 0.15776 0.0
Co378 Co 0.62858 0.80016 0.92356 0.0
O379 O 0.66384 0.77134 0.95864 0.0
O380 O 0.60004 0.77192 0.965 0.0
C381 C 0.66367 0.85762 0.92048 0.0
O382 O 0.58263 0.82535 0.89306 0.0
Co383 Co 0.66121 0.82894 0.84149 0.0
O384 O 0.60545 0.84258 0.83327 0.0
C385 C 0.62383 0.75055 0.84989 0.0
C386 C 0.6335 0.75864 0.97752 0.0
C387 C 0.57759 0.83875 0.85779 0.0
O388 O 0.62225 0.75323 0.88767 0.0
O389 O 0.63947 0.77635 0.82756 0.0
O390 O 0.64014 0.85114 0.9498 0.0
O391 O 0.66816 0.8284 0.89722 0.0
Co392 Co 0.95477 0.14562 0.82264 0.0
O393 O 0.97882 0.10822 0.78754 0.0
O394 O 0.9711 0.17164 0.77489 0.0
C395 C 0.90286 0.10907 0.84169 0.0
O396 O 0.93076 0.19324 0.84915 0.0
Co397 Co 0.94818 0.13074 0.91183 0.0
O398 O 0.92338 0.1834 0.91398 0.0
C399 C 0.02368 0.15525 0.87991 0.0
C400 C 0.98521 0.13787 0.76427 0.0
C401 C 0.91979 0.20458 0.88338 0.0
O402 O 1.00767 0.15815 0.84587 0.0
O403 O 1.00554 0.14294 0.91035 0.0
O404 O 0.9022 0.12808 0.8085 0.0
O405 O 0.93586 0.1092 0.86013 0.0
Co406 Co 0.62859 0.21777 0.59432 0.0
O407 O 0.66384 0.2466 0.55924 0.0
O408 O 0.60005 0.24601 0.55288 0.0
C409 C 0.66367 0.16031 0.5974 0.0
O410 O 0.58263 0.19259 0.62482 0.0
Co411 Co 0.66121 0.189 0.67639 0.0
O412 O 0.60545 0.17536 0.68461 0.0
C413 C 0.62383 0.26739 0.66799 0.0
C414 C 0.6335 0.2593 0.54036 0.0
C415 C 0.57759 0.17919 0.66009 0.0
O416 O 0.62225 0.2647 0.63021 0.0
O417 O 0.63948 0.24159 0.69032 0.0
O418 O 0.64014 0.16679 0.56808 0.0
O419 O 0.66816 0.18954 0.62067 0.0
Co420 Co 0.56552 0.87231 0.32264 0.0
O421 O 0.54147 0.90971 0.28754 0.0
O422 O 0.54919 0.84629 0.27489 0.0
C423 C 0.61744 0.90886 0.34169 0.0
O424 O 0.58953 0.8247 0.34915 0.0
Co425 Co 0.57211 0.88719 0.41183 0.0
O426 O 0.59692 0.83454 0.41398 0.0
C427 C 0.49662 0.86268 0.37991 0.0
C428 C 0.53508 0.88007 0.26427 0.0
C429 C 0.60051 0.81335 0.38338 0.0
O430 O 0.51263 0.85978 0.34587 0.0
O431 O 0.51475 0.87499 0.41035 0.0
O432 O 0.61809 0.88986 0.3085 0.0
O433 O 0.58443 0.90873 0.36013 0.0
Co434 Co 0.89171 0.80017 0.09433 0.0
O435 O 0.85646 0.77134 0.05924 0.0
O436 O 0.92025 0.77193 0.05288 0.0
C437 C 0.85663 0.85762 0.09741 0.0
O438 O 0.93766 0.82535 0.12483 0.0
Co439 Co 0.85908 0.82894 0.1764 0.0
O440 O 0.91485 0.84258 0.18462 0.0
C441 C 0.89646 0.75055 0.16799 0.0
C442 C 0.8868 0.75864 0.04036 0.0
C443 C 0.94271 0.83875 0.16009 0.0
O444 O 0.89804 0.75323 0.13021 0.0
O445 O 0.88082 0.77635 0.19032 0.0
O446 O 0.88016 0.85115 0.06809 0.0
O447 O 0.85214 0.8284 0.12067 0.0
Co448 Co 0.69857 0.95097 0.87611 0.0
O449 O 0.73281 0.97502 0.91443 0.0
O450 O 0.74546 0.96941 0.85081 0.0
C451 C 0.68086 0.89623 0.91037 0.0
O452 O 0.67327 0.92812 0.82717 0.0
Co453 Co 0.61032 0.94276 0.89018 0.0
O454 O 0.60826 0.9245 0.83487 0.0
C455 C 0.64034 0.01941 0.86626 0.0
C456 C 0.75561 0.9831 0.88488 0.0
C457 C 0.63893 0.92051 0.81413 0.0
O458 O 0.67452 1.00401 0.86477 0.0
O459 O 0.61008 1.00045 0.8774 0.0
O460 O 0.71401 0.89809 0.89179 0.0
O461 O 0.66144 0.9289 0.91174 0.0
Co462 Co 0.81552 0.94527 0.62229 0.0
O463 O 0.79147 0.98037 0.65969 0.0
O464 O 0.79919 0.99302 0.59626 0.0
C465 C 0.86744 0.92622 0.65883 0.0
O466 O 0.83953 0.91875 0.57467 0.0
Co467 Co 0.82211 0.85608 0.63717 0.0
O468 O 0.84692 0.85392 0.58451 0.0
C469 C 0.74662 0.88799 0.61266 0.0
C470 C 0.78508 1.00364 0.63004 0.0
C471 C 0.85051 0.88452 0.56333 0.0
O472 O 0.76263 0.92203 0.60976 0.0
O473 O 0.76475 0.85756 0.62497 0.0
O474 O 0.86809 0.95941 0.63983 0.0
O475 O 0.83444 0.90778 0.65871 0.0
Co476 Co 0.82173 0.06696 0.37612 0.0
O477 O 0.78749 0.04291 0.41443 0.0
O478 O 0.77484 0.04852 0.35081 0.0
C479 C 0.83944 0.1217 0.41037 0.0
O480 O 0.84703 0.08981 0.32717 0.0
Co481 Co 0.90998 0.07517 0.39018 0.0
O482 O 0.91204 0.09343 0.33487 0.0
C483 C 0.87996 0.99852 0.36626 0.0
C484 C 0.76469 0.03484 0.38488 0.0
C485 C 0.88136 0.09743 0.31413 0.0
O486 O 0.84577 0.01393 0.36477 0.0
O487 O 0.91022 0.01749 0.3774 0.0
O488 O 0.80628 0.11984 0.39179 0.0
O489 O 0.85886 0.08903 0.41175 0.0
Co490 Co 0.70477 0.07267 0.12229 0.0
O491 O 0.72883 0.03757 0.15969 0.0
O492 O 0.72111 0.02492 0.09627 0.0
C493 C 0.65285 0.09172 0.15883 0.0
O494 O 0.68077 0.09918 0.07467 0.0
Co495 Co 0.69818 0.16185 0.13717 0.0
O496 O 0.67338 0.16401 0.08451 0.0
C497 C 0.77368 0.12994 0.11266 0.0
C498 C 0.73522 0.0143 0.13004 0.0
C499 C 0.66978 0.13341 0.06333 0.0
O500 O 0.75767 0.0959 0.10976 0.0
O501 O 0.75554 0.16038 0.12497 0.0
O502 O 0.65221 0.05853 0.13983 0.0
O503 O 0.68586 0.11016 0.15871 0.0
Co504 Co 0.69857 0.06697 0.64177 0.0
O505 O 0.73281 0.04291 0.60345 0.0
O506 O 0.74546 0.04852 0.66709 0.0
C507 C 0.68086 0.12171 0.60752 0.0
O508 O 0.67327 0.08982 0.69072 0.0
Co509 Co 0.61032 0.07518 0.62771 0.0
O510 O 0.60826 0.09344 0.68301 0.0
C511 C 0.64034 0.99853 0.65163 0.0
C512 C 0.7556 0.03483 0.63301 0.0
C513 C 0.63893 0.09743 0.70376 0.0
O514 O 0.67452 0.01393 0.65312 0.0
O515 O 0.61008 0.01749 0.64049 0.0
O516 O 0.71402 0.11984 0.62609 0.0
O517 O 0.66144 0.08903 0.60614 0.0
Co518 Co 0.70478 0.94526 0.3956 0.0
O519 O 0.72883 0.98037 0.3582 0.0
O520 O 0.72111 0.99302 0.42163 0.0
C521 C 0.65286 0.92622 0.35906 0.0
O522 O 0.68077 0.91875 0.44321 0.0
Co523 Co 0.69819 0.85608 0.38072 0.0
O524 O 0.67338 0.85392 0.43337 0.0
C525 C 0.77368 0.888 0.40522 0.0
C526 C 0.73523 1.00363 0.38785 0.0
C527 C 0.66979 0.88452 0.45455 0.0
O528 O 0.75767 0.92203 0.40813 0.0
O529 O 0.75555 0.85756 0.39292 0.0
O530 O 0.65221 0.95941 0.37806 0.0
O531 O 0.68586 0.90778 0.35918 0.0
Co532 Co 0.82173 0.95097 0.14177 0.0
O533 O 0.78749 0.97503 0.10345 0.0
O534 O 0.77484 0.96941 0.16709 0.0
C535 C 0.83944 0.89623 0.10752 0.0
O536 O 0.84703 0.92812 0.19072 0.0
Co537 Co 0.90997 0.94277 0.12771 0.0
O538 O 0.91203 0.9245 0.18302 0.0
C539 C 0.87996 0.01942 0.15162 0.0
C540 C 0.7647 0.9831 0.13301 0.0
C541 C 0.88136 0.92051 0.20376 0.0
O542 O 0.84577 1.00401 0.15312 0.0
O543 O 0.91021 1.00045 0.14049 0.0
O544 O 0.80628 0.89809 0.1261 0.0
O545 O 0.85886 0.92891 0.10614 0.0
Co546 Co 0.81552 0.07267 0.8956 0.0
O547 O 0.79147 0.03757 0.8582 0.0
O548 O 0.79919 0.02492 0.92163 0.0
C549 C 0.86744 0.09172 0.85906 0.0
O550 O 0.83953 0.09918 0.94322 0.0
Co551 Co 0.82211 0.16185 0.88072 0.0
O552 O 0.84692 0.16401 0.93337 0.0
C553 C 0.74661 0.12994 0.90523 0.0
C554 C 0.78507 0.01431 0.88785 0.0
C555 C 0.85051 0.13341 0.95456 0.0
O556 O 0.76263 0.0959 0.90813 0.0
O557 O 0.76475 0.16038 0.89292 0.0
O558 O 0.86809 0.05853 0.87806 0.0
O559 O 0.83443 0.11016 0.85918 0.0
Co560 Co 0.87859 0.67359 0.96775 0.0
O561 O 0.91384 0.70868 0.99658 0.0
O562 O 0.85004 0.71503 0.99599 0.0
C563 C 0.91367 0.67051 0.9103 0.0
O564 O 0.83264 0.64308 0.94257 0.0
Co565 Co 0.91122 0.59152 0.93898 0.0
O566 O 0.85545 0.58329 0.92539 0.0
C567 C 0.87384 0.59993 0.01738 0.0
C568 C 0.8835 0.72755 0.00928 0.0
C569 C 0.82758 0.6078 0.92923 0.0
O570 O 0.87226 0.6377 0.01469 0.0
O571 O 0.88949 0.57759 0.99157 0.0
O572 O 0.89014 0.69983 0.91677 0.0
O573 O 0.91816 0.64725 0.93952 0.0
Co574 Co 0.37859 0.84434 0.05014 0.0
O575 O 0.41385 0.80926 0.02132 0.0
O576 O 0.35005 0.80289 0.0219 0.0
C577 C 0.41367 0.84743 0.1076 0.0
O578 O 0.33263 0.87484 0.07532 0.0
Co579 Co 0.41121 0.92642 0.07891 0.0
O580 O 0.35545 0.93463 0.09254 0.0
C581 C 0.37386 0.918 1.0005 0.0
C582 C 0.3835 0.79038 1.00862 0.0
C583 C 0.32758 0.91011 0.08871 0.0
O584 O 0.37225 0.88023 1.0032 0.0
O585 O 0.38949 0.94034 0.02631 0.0
O586 O 0.39014 0.81811 0.10112 0.0
O587 O 0.41816 0.87069 0.07837 0.0
Co588 Co 0.94857 0.62614 0.81695 0.0
O589 O 0.98281 0.66446 0.79289 0.0
O590 O 0.99546 0.60083 0.79851 0.0
C591 C 0.93086 0.6604 0.87169 0.0
O592 O 0.92327 0.5772 0.8398 0.0
Co593 Co 0.86032 0.64021 0.82516 0.0
O594 O 0.85827 0.58491 0.84345 0.0
C595 C 0.89034 0.61628 0.74851 0.0
C596 C 1.00561 0.63491 0.78482 0.0
C597 C 0.88894 0.56417 0.84743 0.0
O598 O 0.92453 0.6148 0.76391 0.0
O599 O 0.86008 0.62742 0.76747 0.0
O600 O 0.96402 0.64182 0.86983 0.0
O601 O 0.91144 0.66178 0.83901 0.0
Co602 Co 0.14171 0.17359 0.55014 0.0
O603 O 0.10645 0.20868 0.52132 0.0
O604 O 0.17025 0.21504 0.52191 0.0
C605 C 0.10663 0.17051 0.6076 0.0
O606 O 0.18766 0.14309 0.57532 0.0
Co607 Co 0.10909 0.09152 0.57891 0.0
O608 O 0.16485 0.0833 0.59255 0.0
C609 C 0.14644 0.09994 0.5005 0.0
C610 C 0.1368 0.22756 0.50862 0.0
C611 C 0.19271 0.10783 0.58872 0.0
O612 O 0.14805 0.13771 0.50321 0.0
O613 O 0.13081 0.0776 0.52631 0.0
O614 O 0.13015 0.19983 0.60112 0.0
O615 O 0.10214 0.14724 0.57837 0.0
Co616 Co 0.07173 0.89179 0.81695 0.0
O617 O 0.03749 0.85348 0.79289 0.0
O618 O 0.02483 0.91711 0.79851 0.0
C619 C 0.08944 0.85751 0.87168 0.0
O620 O 0.09703 0.94074 0.8398 0.0
Co621 Co 0.15997 0.87773 0.82515 0.0
O622 O 0.16203 0.93303 0.84342 0.0
C623 C 0.12995 0.90165 0.7485 0.0
C624 C 0.0147 0.88303 0.78482 0.0
C625 C 0.13136 0.95377 0.84742 0.0
O626 O 0.09577 0.90315 0.76391 0.0
O627 O 0.16021 0.89052 0.76747 0.0
O628 O 0.05629 0.8761 0.86982 0.0
O629 O 0.10885 0.85616 0.839 0.0
Co630 Co 0.64171 0.34435 0.46775 0.0
O631 O 0.60646 0.30926 0.49657 0.0
O632 O 0.67025 0.3029 0.49599 0.0
C633 C 0.60663 0.34742 0.41029 0.0
O634 O 0.68766 0.37485 0.44257 0.0
Co635 Co 0.60908 0.42641 0.43898 0.0
O636 O 0.66485 0.43465 0.42539 0.0
C637 C 0.64645 0.41801 0.51737 0.0
C638 C 0.6368 0.29039 0.50928 0.0
C639 C 0.69272 0.41014 0.42922 0.0
O640 O 0.64804 0.38024 0.51468 0.0
O641 O 0.63081 0.44034 0.49157 0.0
O642 O 0.63016 0.31811 0.41677 0.0
O643 O 0.60214 0.37069 0.43951 0.0
Co644 Co 0.94857 0.39179 0.70094 0.0
O645 O 0.98281 0.35348 0.725 0.0
O646 O 0.99547 0.4171 0.71937 0.0
C647 C 0.93086 0.35751 0.64621 0.0
O648 O 0.92327 0.44074 0.67809 0.0
Co649 Co 0.86032 0.37773 0.69274 0.0
O650 O 0.85827 0.43304 0.67447 0.0
C651 C 0.89035 0.40166 0.76938 0.0
C652 C 1.00561 0.38303 0.73306 0.0
C653 C 0.88894 0.45378 0.67047 0.0
O654 O 0.92453 0.40315 0.75398 0.0
O655 O 0.86009 0.39052 0.75042 0.0
O656 O 0.96401 0.3761 0.64806 0.0
O657 O 0.91144 0.35616 0.67889 0.0
Co658 Co 0.57173 0.62614 0.20094 0.0
O659 O 0.53749 0.66446 0.225 0.0
O660 O 0.52483 0.60083 0.21937 0.0
C661 C 0.58944 0.66043 0.14621 0.0
O662 O 0.59703 0.5772 0.17809 0.0
Co663 Co 0.65997 0.64021 0.19273 0.0
O664 O 0.66203 0.5849 0.17447 0.0
C665 C 0.62995 0.61627 0.26938 0.0
C666 C 0.51468 0.63491 0.23306 0.0
C667 C 0.63136 0.56416 0.17047 0.0
O668 O 0.59576 0.61479 0.25398 0.0
O669 O 0.66021 0.62741 0.25042 0.0
O670 O 0.55629 0.64184 0.14806 0.0
O671 O 0.60885 0.66178 0.17889 0.0
Co672 Co 0.56318 0.64267 0.82391 0.0
O673 O 0.61503 0.62555 0.80933 0.0
O674 O 0.58555 0.61105 0.86549 0.0
C675 C 0.53232 0.62916 0.76643 0.0
O676 O 0.50928 0.65601 0.84821 0.0
Co677 Co 0.53107 0.7151 0.77784 0.0
O678 O 0.48433 0.70484 0.81073 0.0
C679 C 0.59848 0.72216 0.83004 0.0
C680 C 0.61669 0.60907 0.84359 0.0
C681 C 0.48175 0.68052 0.83918 0.0
O682 O 0.58725 0.69104 0.84795 0.0
O683 O 0.58326 0.73348 0.79761 0.0
O684 O 0.53851 0.60134 0.79187 0.0
O685 O 0.54942 0.66186 0.77438 0.0
Co686 Co 0.62415 0.31443 0.07336 0.0
O687 O 0.66229 0.29037 0.03887 0.0
O688 O 0.59957 0.29759 0.02494 0.0
C689 C 0.65971 0.36693 0.09351 0.0
O690 O 0.57595 0.33816 0.09928 0.0
Co691 Co 0.63764 0.32102 0.16303 0.0
O692 O 0.58473 0.34476 0.16441 0.0
C693 C 0.61473 0.24498 0.13009 0.0
C694 C 0.63339 0.28341 0.01505 0.0
C695 C 0.56402 0.34854 0.13359 0.0
O696 O 0.6117 0.26117 0.09615 0.0
O697 O 0.62664 0.26318 0.16069 0.0
O698 O 0.64156 0.36762 0.05989 0.0
O699 O 0.65941 0.3336 0.11164 0.0
Co700 Co 0.95712 0.37527 0.32392 0.0
O701 O 0.90527 0.39239 0.30933 0.0
O702 O 0.93475 0.40689 0.36549 0.0
C703 C 0.988 0.38876 0.26646 0.0
O704 O 0.01102 0.36192 0.34821 0.0
Co705 Co 0.98922 0.30282 0.27785 0.0
O706 O 0.03597 0.31309 0.31074 0.0
C707 C 0.92181 0.29577 0.33004 0.0
C708 C 0.90361 0.40887 0.34359 0.0
C709 C 0.03855 0.33741 0.33919 0.0
O710 O 0.93304 0.32689 0.34795 0.0
O711 O 0.93703 0.28446 0.29761 0.0
O712 O 0.9818 0.4166 0.29187 0.0
O713 O 0.97088 0.35606 0.27438 0.0
Co714 Co 0.89614 0.70351 0.57336 0.0
O715 O 0.85801 0.72757 0.53887 0.0
O716 O 0.92073 0.72034 0.52494 0.0
C717 C 0.86059 0.65101 0.59351 0.0
O718 O 0.94435 0.67978 0.59928 0.0
Co719 Co 0.88266 0.69692 0.66303 0.0
O720 O 0.93556 0.67318 0.66441 0.0
C721 C 0.90557 0.77295 0.63009 0.0
C722 C 0.8869 0.73452 0.51505 0.0
C723 C 0.95627 0.6694 0.63358 0.0
O724 O 0.9086 0.75677 0.59615 0.0
O725 O 0.89365 0.75475 0.66068 0.0
O726 O 0.87873 0.65031 0.55989 0.0
O727 O 0.86089 0.68434 0.61164 0.0
Co728 Co 0.56318 0.37527 0.69397 0.0
O729 O 0.61502 0.39239 0.70855 0.0
O730 O 0.58554 0.40689 0.6524 0.0
C731 C 0.53229 0.38876 0.75143 0.0
O732 O 0.50928 0.36192 0.66967 0.0
Co733 Co 0.53107 0.30282 0.74004 0.0
O734 O 0.48433 0.31309 0.70715 0.0
C735 C 0.59849 0.29578 0.68784 0.0
C736 C 0.61668 0.40888 0.67429 0.0
C737 C 0.48174 0.33741 0.6787 0.0
O738 O 0.58726 0.3269 0.66993 0.0
O739 O 0.58326 0.28446 0.72027 0.0
O740 O 0.53849 0.4166 0.72601 0.0
O741 O 0.54942 0.35606 0.7435 0.0
Co742 Co 0.89614 0.31443 0.94453 0.0
O743 O 0.85801 0.29037 0.97902 0.0
O744 O 0.92072 0.29759 0.99296 0.0
C745 C 0.86059 0.36693 0.92438 0.0
O746 O 0.94435 0.33816 0.91861 0.0
Co747 Co 0.88266 0.32102 0.85486 0.0
O748 O 0.93556 0.34476 0.85348 0.0
C749 C 0.90557 0.24498 0.8878 0.0
C750 C 0.8869 0.28342 1.00285 0.0
C751 C 0.95628 0.34853 0.88431 0.0
O752 O 0.9086 0.26117 0.92174 0.0
O753 O 0.89366 0.26318 0.8572 0.0
O754 O 0.87874 0.36762 0.958 0.0
O755 O 0.86089 0.3336 0.90625 0.0
Co756 Co 0.95712 0.64267 0.19397 0.0
O757 O 0.90528 0.62554 0.20856 0.0
O758 O 0.93476 0.61105 0.1524 0.0
C759 C 0.988 0.62917 0.25143 0.0
O760 O 0.01102 0.65602 0.16967 0.0
Co761 Co 0.98922 0.71512 0.24004 0.0
O762 O 0.03597 0.70485 0.20715 0.0
C763 C 0.92181 0.72216 0.18784 0.0
C764 C 0.90362 0.60906 0.1743 0.0
C765 C 0.03855 0.68052 0.1787 0.0
O766 O 0.93304 0.69104 0.16994 0.0
O767 O 0.93703 0.73348 0.22027 0.0
O768 O 0.9818 0.60134 0.22601 0.0
O769 O 0.97088 0.66187 0.2435 0.0
Co770 Co 0.62415 0.7035 0.44453 0.0
O771 O 0.66229 0.72756 0.47902 0.0
O772 O 0.59957 0.72034 0.49296 0.0
C773 C 0.65971 0.65101 0.42438 0.0
O774 O 0.57595 0.67978 0.41861 0.0
Co775 Co 0.63764 0.69692 0.35486 0.0
O776 O 0.58473 0.67317 0.35348 0.0
C777 C 0.61473 0.77295 0.3878 0.0
C778 C 0.6334 0.73452 0.50285 0.0
C779 C 0.56402 0.6694 0.38431 0.0
O780 O 0.6117 0.75677 0.42174 0.0
O781 O 0.62664 0.75475 0.3572 0.0
O782 O 0.64156 0.65031 0.458 0.0
O783 O 0.65941 0.68433 0.40625 0.0
Co784 Co 0.82662 0.56321 0.64934 0.0
O785 O 0.7926 0.5374 0.61195 0.0
O786 O 0.77954 0.54561 0.67523 0.0
C787 C 0.84437 0.61533 0.61188 0.0
O788 O 0.85209 0.58888 0.69706 0.0
Co789 Co 0.91501 0.57166 0.63494 0.0
O790 O 0.91627 0.5979 0.68702 0.0
C791 C 0.88447 0.4949 0.65811 0.0
C792 C 0.76964 0.53053 0.64162 0.0
C793 C 0.88581 0.60121 0.70819 0.0
O794 O 0.85077 0.51081 0.66241 0.0
O795 O 0.91426 0.5135 0.6452 0.0
O796 O 0.81136 0.61549 0.63087 0.0
O797 O 0.86356 0.58264 0.61279 0.0
Co798 Co 0.70712 0.57394 0.89264 0.0
O799 O 0.65528 0.55936 0.87551 0.0
O800 O 0.68476 0.61552 0.86102 0.0
C801 C 0.73799 0.51647 0.87914 0.0
O802 O 0.76102 0.59824 0.90601 0.0
Co803 Co 0.7392 0.52785 0.96509 0.0
O804 O 0.78595 0.56074 0.95483 0.0
C805 C 0.67181 0.58008 0.97214 0.0
C806 C 0.65362 0.59363 0.85904 0.0
C807 C 0.78854 0.5892 0.93052 0.0
O808 O 0.68304 0.59797 0.94101 0.0
O809 O 0.68702 0.54764 0.98346 0.0
O810 O 0.73181 0.5419 0.85131 0.0
O811 O 0.72088 0.52441 0.91184 0.0
Co812 Co 0.69368 0.45473 0.14934 0.0
O813 O 0.72769 0.48054 0.11195 0.0
O814 O 0.74075 0.47233 0.17523 0.0
C815 C 0.67592 0.4026 0.11188 0.0
O816 O 0.6682 0.42906 0.19706 0.0
Co817 Co 0.60529 0.44628 0.13494 0.0
O818 O 0.60403 0.42004 0.18702 0.0
C819 C 0.63582 0.52304 0.15811 0.0
C820 C 0.75065 0.48741 0.14162 0.0
C821 C 0.63448 0.41674 0.2082 0.0
O822 O 0.66953 0.50713 0.16241 0.0
O823 O 0.60603 0.50444 0.1452 0.0
O824 O 0.70894 0.40245 0.13087 0.0
O825 O 0.65674 0.4353 0.11279 0.0
Co826 Co 0.81318 0.44399 0.39264 0.0
O827 O 0.86502 0.45857 0.37551 0.0
O828 O 0.83554 0.40241 0.36102 0.0
C829 C 0.78231 0.50147 0.37913 0.0
O830 O 0.75928 0.4197 0.406 0.0
Co831 Co 0.7811 0.49008 0.46508 0.0
O832 O 0.73435 0.4572 0.45483 0.0
C833 C 0.84849 0.43785 0.47214 0.0
C834 C 0.86668 0.42431 0.35904 0.0
C835 C 0.73176 0.42873 0.43052 0.0
O836 O 0.83726 0.41996 0.44101 0.0
O837 O 0.83328 0.47029 0.48345 0.0
O838 O 0.78849 0.47603 0.35131 0.0
O839 O 0.79942 0.49353 0.41183 0.0
Co840 Co 0.82662 0.45473 0.86855 0.0
O841 O 0.7926 0.48054 0.90594 0.0
O842 O 0.77955 0.47233 0.84266 0.0
C843 C 0.84438 0.40261 0.90601 0.0
O844 O 0.8521 0.42906 0.82083 0.0
Co845 Co 0.91501 0.44628 0.88296 0.0
O846 O 0.91628 0.42005 0.83087 0.0
C847 C 0.88447 0.52305 0.85979 0.0
C848 C 0.76965 0.48741 0.87627 0.0
C849 C 0.88582 0.41674 0.8097 0.0
O850 O 0.85077 0.50713 0.85549 0.0
O851 O 0.91426 0.50444 0.8727 0.0
O852 O 0.81136 0.40245 0.88702 0.0
O853 O 0.86356 0.4353 0.9051 0.0
Co854 Co 0.81318 0.57395 0.12525 0.0
O855 O 0.86502 0.55936 0.14237 0.0
O856 O 0.83554 0.61552 0.15687 0.0
C857 C 0.78229 0.51649 0.13874 0.0
O858 O 0.75928 0.59825 0.1119 0.0
Co859 Co 0.78108 0.52788 0.0528 0.0
O860 O 0.73434 0.56077 0.06306 0.0
C861 C 0.84849 0.58007 0.04576 0.0
C862 C 0.86668 0.59362 0.15885 0.0
C863 C 0.73175 0.58923 0.08739 0.0
O864 O 0.83726 0.59798 0.07688 0.0
O865 O 0.83327 0.54764 0.03444 0.0
O866 O 0.78849 0.54191 0.16658 0.0
O867 O 0.79942 0.52442 0.10604 0.0
Co868 Co 0.69368 0.5632 0.36855 0.0
O869 O 0.7277 0.5374 0.40593 0.0
O870 O 0.74075 0.54561 0.34266 0.0
C871 C 0.67592 0.61533 0.40601 0.0
O872 O 0.6682 0.58888 0.32083 0.0
Co873 Co 0.60529 0.57165 0.38296 0.0
O874 O 0.60402 0.59789 0.33087 0.0
C875 C 0.63582 0.49489 0.35979 0.0
C876 C 0.75065 0.53053 0.37626 0.0
C877 C 0.63448 0.6012 0.3097 0.0
O878 O 0.66953 0.5108 0.35549 0.0
O879 O 0.60604 0.51349 0.3727 0.0
O880 O 0.70894 0.61549 0.38702 0.0
O881 O 0.65674 0.58263 0.4051 0.0
Co882 Co 0.70712 0.44399 0.62525 0.0
O883 O 0.65528 0.45858 0.64237 0.0
O884 O 0.68475 0.40242 0.65687 0.0
C885 C 0.73801 0.50145 0.63874 0.0
O886 O 0.76102 0.41969 0.6119 0.0
Co887 Co 0.73922 0.49006 0.5528 0.0
O888 O 0.78596 0.45716 0.56306 0.0
C889 C 0.6718 0.43786 0.54576 0.0
C890 C 0.65362 0.42432 0.65885 0.0
C891 C 0.78855 0.42871 0.58739 0.0
O892 O 0.68304 0.41996 0.57688 0.0
O893 O 0.68703 0.47029 0.53444 0.0
O894 O 0.7318 0.47603 0.66658 0.0
O895 O 0.72088 0.49352 0.60604 0.0
Co896 Co 0.64614 0.82337 0.5644 0.0
O897 O 0.60801 0.78889 0.54034 0.0
O898 O 0.67073 0.77495 0.54756 0.0
C899 C 0.61059 0.84353 0.6169 0.0
O900 O 0.69435 0.84929 0.58813 0.0
Co901 Co 0.63266 0.91304 0.57099 0.0
O902 O 0.68556 0.91442 0.59474 0.0
C903 C 0.65557 0.8801 0.49496 0.0
C904 C 0.6369 0.76506 0.53338 0.0
C905 C 0.70627 0.88359 0.59852 0.0
O906 O 0.6586 0.84616 0.51114 0.0
O907 O 0.64366 0.9107 0.51316 0.0
O908 O 0.62873 0.8099 0.61759 0.0
O909 O 0.61089 0.86165 0.58357 0.0
Co910 Co 0.14614 0.69456 0.45349 0.0
O911 O 0.10801 0.72904 0.47755 0.0
O912 O 0.17073 0.74297 0.47033 0.0
C913 C 0.1106 0.6744 0.40099 0.0
O914 O 0.19435 0.66863 0.42976 0.0
Co915 Co 0.13266 0.60489 0.4469 0.0
O916 O 0.18556 0.60351 0.42315 0.0
C917 C 0.15558 0.63782 0.52293 0.0
C918 C 0.1369 0.75286 0.48451 0.0
C919 C 0.20627 0.63433 0.41938 0.0
O920 O 0.1586 0.67176 0.50675 0.0
O921 O 0.14366 0.60722 0.50473 0.0
O922 O 0.12873 0.70803 0.4003 0.0
O923 O 0.11089 0.65627 0.43431 0.0
Co924 Co 0.57662 0.89936 0.7047 0.0
O925 O 0.5426 0.86198 0.73051 0.0
O926 O 0.52954 0.92525 0.72229 0.0
C927 C 0.59437 0.8619 0.65258 0.0
O928 O 0.60209 0.94707 0.67902 0.0
Co929 Co 0.66501 0.88496 0.69625 0.0
O930 O 0.66627 0.93704 0.67001 0.0
C931 C 0.63447 0.90814 0.77301 0.0
C932 C 0.51964 0.89164 0.73738 0.0
C933 C 0.63581 0.95821 0.6667 0.0
O934 O 0.60077 0.91243 0.7571 0.0
O935 O 0.66426 0.89523 0.75441 0.0
O936 O 0.56136 0.88088 0.65242 0.0
O937 O 0.61355 0.86281 0.68527 0.0
Co938 Co 0.37416 0.32338 0.95349 0.0
O939 O 0.41229 0.2889 0.97755 0.0
O940 O 0.34957 0.27496 0.97033 0.0
C941 C 0.4097 0.34353 0.90098 0.0
O942 O 0.32595 0.3493 0.92976 0.0
Co943 Co 0.38764 0.41305 0.9469 0.0
O944 O 0.33474 0.41443 0.92315 0.0
C945 C 0.36472 0.38012 0.02293 0.0
C946 C 0.38339 0.26507 0.98451 0.0
C947 C 0.31403 0.38361 0.91938 0.0
O948 O 0.3617 0.34617 1.00675 0.0
O949 O 0.37664 0.41071 1.00473 0.0
O950 O 0.39156 0.3099 0.9003 0.0
O951 O 0.40941 0.36166 0.93431 0.0
Co952 Co 0.44369 0.61857 0.7047 0.0
O953 O 0.47771 0.65596 0.73051 0.0
O954 O 0.49076 0.59268 0.72229 0.0
C955 C 0.42593 0.65603 0.65258 0.0
O956 O 0.41821 0.57086 0.67902 0.0
Co957 Co 0.3553 0.63298 0.69625 0.0
O958 O 0.35403 0.58089 0.67002 0.0
C959 C 0.38583 0.6098 0.77301 0.0
C960 C 0.50066 0.62629 0.73738 0.0
C961 C 0.38449 0.55972 0.66671 0.0
O962 O 0.41954 0.60551 0.7571 0.0
O963 O 0.35604 0.62271 0.75441 0.0
O964 O 0.45895 0.63705 0.65241 0.0
O965 O 0.40675 0.65512 0.68527 0.0
Co966 Co 0.87416 0.19457 0.06441 0.0
O967 O 0.91229 0.22905 0.04035 0.0
O968 O 0.84957 0.24299 0.04756 0.0
C969 C 0.9097 0.17441 0.11691 0.0
O970 O 0.82595 0.16864 0.08813 0.0
Co971 Co 0.88764 0.1049 0.07099 0.0
O972 O 0.83473 0.10352 0.09474 0.0
C973 C 0.86473 0.13783 0.99496 0.0
C974 C 0.8834 0.25287 0.03338 0.0
C975 C 0.81403 0.13434 0.09852 0.0
O976 O 0.8617 0.17177 0.01114 0.0
O977 O 0.87664 0.10723 0.01316 0.0
O978 O 0.89156 0.20804 0.1176 0.0
O979 O 0.90941 0.15628 0.08358 0.0
Co980 Co 0.57662 0.11858 0.81319 0.0
O981 O 0.5426 0.15596 0.78737 0.0
O982 O 0.52954 0.09269 0.79559 0.0
C983 C 0.59437 0.15604 0.86531 0.0
O984 O 0.60209 0.07086 0.83886 0.0
Co985 Co 0.66501 0.13298 0.82163 0.0
O986 O 0.66627 0.0809 0.84787 0.0
C987 C 0.63447 0.1098 0.74488 0.0
C988 C 0.51965 0.12629 0.78051 0.0
C989 C 0.63581 0.05973 0.85119 0.0
O990 O 0.60077 0.10551 0.76079 0.0
O991 O 0.66426 0.12271 0.76348 0.0
O992 O 0.56136 0.13706 0.86547 0.0
O993 O 0.61355 0.15513 0.83261 0.0
Co994 Co 0.94368 0.89936 0.31319 0.0
O995 O 0.9777 0.86198 0.28737 0.0
O996 O 0.99075 0.92525 0.29559 0.0
C997 C 0.92593 0.8619 0.36531 0.0
O998 O 0.91821 0.94707 0.33887 0.0
Co999 Co 0.85529 0.88496 0.32163 0.0
O1000 O 0.85403 0.93704 0.34787 0.0
C1001 C 0.88583 0.90814 0.24488 0.0
C1002 C 1.00065 0.89164 0.28051 0.0
C1003 C 0.88449 0.95821 0.35119 0.0
O1004 O 0.91953 0.91243 0.26079 0.0
O1005 O 0.85604 0.89523 0.26348 0.0
O1006 O 0.95894 0.88088 0.36547 0.0
O1007 O 0.90674 0.86281 0.33261 0.0
Co1008 Co 0.45477 0.37232 0.19525 0.0
O1009 O 0.47882 0.40972 0.23035 0.0
O1010 O 0.4711 0.34629 0.24301 0.0
C1011 C 0.40286 0.40887 0.1762 0.0
O1012 O 0.43076 0.3247 0.16874 0.0
Co1013 Co 0.44818 0.38719 0.10606 0.0
O1014 O 0.42338 0.33454 0.10391 0.0
C1015 C 0.52368 0.36269 0.13799 0.0
C1016 C 0.48521 0.38007 0.25363 0.0
C1017 C 0.41978 0.31336 0.13451 0.0
O1018 O 0.50766 0.35979 0.17202 0.0
O1019 O 0.50554 0.375 0.10755 0.0
O1020 O 0.4022 0.38986 0.20939 0.0
O1021 O 0.43586 0.40874 0.15776 0.0
Co1022 Co 0.39172 0.71777 0.92356 0.0
O1023 O 0.35646 0.74659 0.95865 0.0
O1024 O 0.42026 0.74601 0.96501 0.0
C1025 C 0.35664 0.66032 0.92048 0.0
O1026 O 0.43767 0.69259 0.89305 0.0
Co1027 Co 0.35909 0.68901 0.84149 0.0
O1028 O 0.41485 0.67537 0.83326 0.0
C1029 C 0.39644 0.76741 0.84991 0.0
C1030 C 0.38681 0.7593 0.97752 0.0
C1031 C 0.44271 0.6792 0.85779 0.0
O1032 O 0.39805 0.76471 0.88768 0.0
O1033 O 0.38081 0.74161 0.82756 0.0
O1034 O 0.38017 0.66679 0.9498 0.0
O1035 O 0.35215 0.68954 0.89721 0.0
Co1036 Co 0.06553 0.64562 0.69525 0.0
O1037 O 0.04147 0.60822 0.73035 0.0
O1038 O 0.0492 0.67165 0.743 0.0
C1039 C 0.11744 0.60907 0.6762 0.0
O1040 O 0.08954 0.69323 0.66874 0.0
Co1041 Co 0.07211 0.63074 0.60607 0.0
O1042 O 0.09692 0.68339 0.60391 0.0
C1043 C 0.99662 0.65525 0.63798 0.0
C1044 C 0.03508 0.63787 0.75362 0.0
C1045 C 0.10052 0.70457 0.63451 0.0
O1046 O 0.01263 0.65815 0.67202 0.0
O1047 O 0.01475 0.64294 0.60755 0.0
O1048 O 0.11809 0.62807 0.70939 0.0
O1049 O 0.08443 0.6092 0.65776 0.0
Co1050 Co 0.12858 0.30016 0.42356 0.0
O1051 O 0.16384 0.27134 0.45865 0.0
O1052 O 0.10004 0.27193 0.46501 0.0
C1053 C 0.16366 0.35762 0.42048 0.0
O1054 O 0.08263 0.32534 0.39306 0.0
Co1055 Co 0.16121 0.32893 0.34149 0.0
O1056 O 0.10545 0.34256 0.33327 0.0
C1057 C 0.12386 0.25052 0.34991 0.0
C1058 C 0.13349 0.25864 0.47753 0.0
C1059 C 0.07758 0.33873 0.35779 0.0
O1060 O 0.12225 0.25323 0.38768 0.0
O1061 O 0.13949 0.27633 0.32757 0.0
O1062 O 0.14013 0.35115 0.4498 0.0
O1063 O 0.16815 0.3284 0.39722 0.0
Co1064 Co 0.45477 0.64562 0.32264 0.0
O1065 O 0.47882 0.60822 0.28754 0.0
O1066 O 0.4711 0.67165 0.27489 0.0
C1067 C 0.40286 0.60906 0.34168 0.0
O1068 O 0.43076 0.69323 0.34915 0.0
Co1069 Co 0.44818 0.63074 0.41182 0.0
O1070 O 0.42338 0.68339 0.41398 0.0
C1071 C 0.52368 0.65525 0.3799 0.0
C1072 C 0.48522 0.63787 0.26427 0.0
C1073 C 0.41978 0.70457 0.38338 0.0
O1074 O 0.50766 0.65815 0.34587 0.0
O1075 O 0.50554 0.64294 0.41034 0.0
O1076 O 0.4022 0.62807 0.3085 0.0
O1077 O 0.43586 0.6092 0.36013 0.0
Co1078 Co 0.12858 0.71778 0.09432 0.0
O1079 O 0.16384 0.74659 0.05924 0.0
O1080 O 0.10004 0.74601 0.05287 0.0
C1081 C 0.16366 0.66032 0.09741 0.0
O1082 O 0.08263 0.6926 0.12483 0.0
Co1083 Co 0.16121 0.68901 0.1764 0.0
O1084 O 0.10545 0.67537 0.18462 0.0
C1085 C 0.12386 0.76742 0.16798 0.0
C1086 C 0.1335 0.75929 0.04036 0.0
C1087 C 0.07758 0.6792 0.16009 0.0
O1088 O 0.12225 0.76471 0.1302 0.0
O1089 O 0.13949 0.74161 0.19032 0.0
O1090 O 0.14014 0.66679 0.06809 0.0
O1091 O 0.16815 0.68954 0.12067 0.0
Co1092 Co 0.06553 0.37232 0.82264 0.0
O1093 O 0.04147 0.40971 0.78754 0.0
O1094 O 0.0492 0.34629 0.77488 0.0
C1095 C 0.11744 0.40887 0.84168 0.0
O1096 O 0.08954 0.3247 0.84915 0.0
Co1097 Co 0.07212 0.38719 0.91182 0.0
O1098 O 0.09692 0.33454 0.91398 0.0
C1099 C 0.99662 0.36269 0.8799 0.0
C1100 C 0.03508 0.38006 0.76427 0.0
C1101 C 0.10052 0.31336 0.88338 0.0
O1102 O 0.01263 0.35978 0.84587 0.0
O1103 O 0.01476 0.37499 0.91034 0.0
O1104 O 0.11809 0.38986 0.8085 0.0
O1105 O 0.08444 0.40873 0.86012 0.0
Co1106 Co 0.39171 0.30016 0.59432 0.0
O1107 O 0.35646 0.27134 0.55923 0.0
O1108 O 0.42025 0.27193 0.55287 0.0
C1109 C 0.35663 0.35762 0.59741 0.0
O1110 O 0.43767 0.32534 0.62483 0.0
Co1111 Co 0.35909 0.32893 0.6764 0.0
O1112 O 0.41485 0.34256 0.68462 0.0
C1113 C 0.39644 0.25052 0.66798 0.0
C1114 C 0.3868 0.25865 0.54035 0.0
C1115 C 0.44271 0.33873 0.66009 0.0
O1116 O 0.39805 0.25323 0.6302 0.0
O1117 O 0.38081 0.27633 0.69032 0.0
O1118 O 0.38016 0.35115 0.56809 0.0
O1119 O 0.35214 0.3284 0.62067 0.0
Co1120 Co 0.19856 0.45097 0.37611 0.0
O1121 O 0.2328 0.47502 0.41443 0.0
O1122 O 0.24546 0.46941 0.3508 0.0
C1123 C 0.18085 0.39623 0.41036 0.0
O1124 O 0.17326 0.42812 0.32716 0.0
Co1125 Co 0.11032 0.44276 0.39018 0.0
O1126 O 0.10826 0.42449 0.33487 0.0
C1127 C 0.14033 0.51941 0.36626 0.0
C1128 C 0.2556 0.48309 0.38488 0.0
C1129 C 0.13893 0.4205 0.31413 0.0
O1130 O 0.17452 0.504 0.36477 0.0
O1131 O 0.11008 0.50045 0.37739 0.0
O1132 O 0.21401 0.39809 0.39179 0.0
O1133 O 0.16144 0.4289 0.41174 0.0
Co1134 Co 0.31552 0.44527 0.1223 0.0
O1135 O 0.29147 0.48037 0.15969 0.0
O1136 O 0.29919 0.49303 0.09627 0.0
C1137 C 0.36744 0.42623 0.15883 0.0
O1138 O 0.33953 0.41876 0.07468 0.0
Co1139 Co 0.32211 0.35609 0.13717 0.0
O1140 O 0.34692 0.35393 0.08452 0.0
C1141 C 0.24661 0.38801 0.11266 0.0
C1142 C 0.28507 0.50365 0.13005 0.0
C1143 C 0.35051 0.38453 0.06334 0.0
O1144 O 0.26263 0.42204 0.10976 0.0
O1145 O 0.26475 0.35757 0.12497 0.0
O1146 O 0.36809 0.45942 0.13983 0.0
O1147 O 0.33443 0.40779 0.15871 0.0
Co1148 Co 0.32174 0.56697 0.87611 0.0
O1149 O 0.28749 0.54292 0.91443 0.0
O1150 O 0.27484 0.54853 0.8508 0.0
C1151 C 0.33944 0.62171 0.91036 0.0
O1152 O 0.34704 0.58981 0.82716 0.0
Co1153 Co 0.40998 0.57518 0.89018 0.0
O1154 O 0.41204 0.59344 0.83487 0.0
C1155 C 0.37996 0.49852 0.86626 0.0
C1156 C 0.26469 0.53484 0.88488 0.0
C1157 C 0.38137 0.59744 0.81413 0.0
O1158 O 0.34578 0.51393 0.86477 0.0
O1159 O 0.41022 0.51749 0.8774 0.0
O1160 O 0.30629 0.61985 0.89178 0.0
O1161 O 0.35886 0.58903 0.91174 0.0
Co1162 Co 0.20478 0.57266 0.6223 0.0
O1163 O 0.22883 0.53756 0.6597 0.0
O1164 O 0.22111 0.52491 0.59627 0.0
C1165 C 0.15286 0.59171 0.65883 0.0
O1166 O 0.18077 0.59917 0.57468 0.0
Co1167 Co 0.19819 0.66185 0.63717 0.0
O1168 O 0.17338 0.664 0.58452 0.0
C1169 C 0.27368 0.62993 0.61267 0.0
C1170 C 0.23522 0.51429 0.63005 0.0
C1171 C 0.16979 0.6334 0.56334 0.0
O1172 O 0.25767 0.59589 0.60976 0.0
O1173 O 0.25555 0.66037 0.62497 0.0
O1174 O 0.15221 0.55852 0.63983 0.0
O1175 O 0.18586 0.61015 0.65871 0.0
Co1176 Co 0.19856 0.56697 0.14178 0.0
O1177 O 0.2328 0.54292 0.10346 0.0
O1178 O 0.24545 0.54853 0.16709 0.0
C1179 C 0.18086 0.62171 0.10752 0.0
O1180 O 0.17326 0.58982 0.19072 0.0
Co1181 Co 0.11032 0.57518 0.12771 0.0
O1182 O 0.10826 0.59345 0.18302 0.0
C1183 C 0.14033 0.49853 0.15163 0.0
C1184 C 0.25559 0.53484 0.13302 0.0
C1185 C 0.13893 0.59744 0.20376 0.0
O1186 O 0.17452 0.51393 0.15312 0.0
O1187 O 0.11008 0.51749 0.14049 0.0
O1188 O 0.21401 0.61985 0.1261 0.0
O1189 O 0.16144 0.58904 0.10615 0.0
Co1190 Co 0.20478 0.44527 0.89559 0.0
O1191 O 0.22883 0.48037 0.85819 0.0
O1192 O 0.22111 0.49303 0.92162 0.0
C1193 C 0.15286 0.42623 0.85905 0.0
O1194 O 0.18077 0.41876 0.94321 0.0
Co1195 Co 0.19819 0.35609 0.88072 0.0
O1196 O 0.17338 0.35393 0.93337 0.0
C1197 C 0.27368 0.38801 0.90522 0.0
C1198 C 0.23523 0.50364 0.88784 0.0
C1199 C 0.16979 0.38453 0.95455 0.0
O1200 O 0.25767 0.42204 0.90813 0.0
O1201 O 0.25555 0.35757 0.89292 0.0
O1202 O 0.15221 0.45942 0.87805 0.0
O1203 O 0.18586 0.40779 0.85918 0.0
Co1204 Co 0.32173 0.45097 0.64178 0.0
O1205 O 0.28749 0.47502 0.60346 0.0
O1206 O 0.27484 0.46941 0.66709 0.0
C1207 C 0.33944 0.39623 0.60752 0.0
O1208 O 0.34703 0.42812 0.69072 0.0
Co1209 Co 0.40998 0.44276 0.62771 0.0
O1210 O 0.41204 0.42449 0.68302 0.0
C1211 C 0.37996 0.51941 0.65163 0.0
C1212 C 0.2647 0.4831 0.63302 0.0
C1213 C 0.38137 0.4205 0.70376 0.0
O1214 O 0.34578 0.504 0.65312 0.0
O1215 O 0.41022 0.50045 0.64049 0.0
O1216 O 0.30628 0.39809 0.6261 0.0
O1217 O 0.35886 0.4289 0.60615 0.0
Co1218 Co 0.31552 0.57266 0.39559 0.0
O1219 O 0.29147 0.53756 0.35819 0.0
O1220 O 0.29919 0.52491 0.42162 0.0
C1221 C 0.36744 0.59171 0.35905 0.0
O1222 O 0.33953 0.59917 0.44321 0.0
Co1223 Co 0.32211 0.66185 0.38072 0.0
O1224 O 0.34692 0.664 0.43337 0.0
C1225 C 0.24662 0.62993 0.40523 0.0
C1226 C 0.28507 0.5143 0.38785 0.0
C1227 C 0.35051 0.6334 0.45455 0.0
O1228 O 0.26263 0.59589 0.40813 0.0
O1229 O 0.26475 0.66037 0.39292 0.0
O1230 O 0.36809 0.55852 0.37806 0.0
O1231 O 0.33443 0.61015 0.35918 0.0
Co1232 Co 0.37858 0.17359 0.46775 0.0
O1233 O 0.41384 0.20868 0.49657 0.0
O1234 O 0.35004 0.21504 0.49598 0.0
C1235 C 0.41367 0.17051 0.41029 0.0
O1236 O 0.33263 0.14309 0.44257 0.0
Co1237 Co 0.41121 0.09152 0.43898 0.0
O1238 O 0.35545 0.0833 0.42535 0.0
C1239 C 0.37387 0.09994 0.51739 0.0
C1240 C 0.3835 0.22755 0.50927 0.0
C1241 C 0.32759 0.10782 0.42917 0.0
O1242 O 0.37225 0.13771 0.51468 0.0
O1243 O 0.38949 0.0776 0.49158 0.0
O1244 O 0.39014 0.19983 0.41677 0.0
O1245 O 0.41816 0.14724 0.43952 0.0
Co1246 Co 0.87858 0.34435 0.55014 0.0
O1247 O 0.91384 0.30926 0.52131 0.0
O1248 O 0.85004 0.3029 0.52189 0.0
C1249 C 0.91364 0.34743 0.6076 0.0
O1250 O 0.83263 0.37485 0.57531 0.0
Co1251 Co 0.91121 0.42642 0.57891 0.0
O1252 O 0.85544 0.43464 0.59254 0.0
C1253 C 0.87387 0.41801 0.5005 0.0
C1254 C 0.88349 0.29039 0.5086 0.0
C1255 C 0.82758 0.41011 0.58871 0.0
O1256 O 0.87225 0.38024 0.5032 0.0
O1257 O 0.88949 0.44035 0.52631 0.0
O1258 O 0.89013 0.3181 0.60112 0.0
O1259 O 0.91815 0.37069 0.57838 0.0
Co1260 Co 0.44857 0.12614 0.31695 0.0
O1261 O 0.48281 0.16446 0.29289 0.0
O1262 O 0.49546 0.10082 0.29851 0.0
C1263 C 0.43086 0.16039 0.37168 0.0
O1264 O 0.42327 0.07719 0.3398 0.0
Co1265 Co 0.36032 0.1402 0.32516 0.0
O1266 O 0.35827 0.0849 0.34342 0.0
C1267 C 0.39034 0.11628 0.2485 0.0
C1268 C 0.5056 0.1349 0.28482 0.0
C1269 C 0.38894 0.06416 0.34742 0.0
O1270 O 0.42453 0.11479 0.26391 0.0
O1271 O 0.36008 0.12742 0.26747 0.0
O1272 O 0.46402 0.14182 0.36983 0.0
O1273 O 0.41144 0.16177 0.33901 0.0
Co1274 Co 0.64172 0.67359 0.05014 0.0
O1275 O 0.60646 0.70867 0.02131 0.0
O1276 O 0.67025 0.71503 0.02189 0.0
C1277 C 0.60666 0.67051 0.1076 0.0
O1278 O 0.68767 0.64309 0.07532 0.0
Co1279 Co 0.60909 0.59152 0.07892 0.0
O1280 O 0.66486 0.5833 0.09254 0.0
C1281 C 0.64643 0.59993 1.0005 0.0
C1282 C 0.6368 0.72755 1.0086 0.0
C1283 C 0.69272 0.60783 0.08871 0.0
O1284 O 0.64804 0.6377 1.00321 0.0
O1285 O 0.6308 0.57759 0.02632 0.0
O1286 O 0.63017 0.69984 0.10111 0.0
O1287 O 0.60215 0.64725 0.07838 0.0
Co1288 Co 0.57173 0.39179 0.31695 0.0
O1289 O 0.53749 0.35348 0.29289 0.0
O1290 O 0.52483 0.41711 0.29851 0.0
C1291 C 0.58943 0.35753 0.37168 0.0
O1292 O 0.59703 0.44074 0.3398 0.0
Co1293 Co 0.65997 0.37773 0.32516 0.0
O1294 O 0.66203 0.43303 0.34344 0.0
C1295 C 0.62996 0.40165 0.24851 0.0
C1296 C 0.5147 0.38304 0.28482 0.0
C1297 C 0.63136 0.45377 0.34743 0.0
O1298 O 0.59577 0.40314 0.26391 0.0
O1299 O 0.66021 0.39052 0.26747 0.0
O1300 O 0.55628 0.37611 0.36983 0.0
O1301 O 0.60885 0.35616 0.33901 0.0
Co1302 Co 0.14172 0.84434 0.96775 0.0
O1303 O 0.10646 0.80926 0.99657 0.0
O1304 O 0.17026 0.8029 0.99599 0.0
C1305 C 0.10665 0.84743 0.91028 0.0
O1306 O 0.18767 0.87485 0.94257 0.0
Co1307 Co 0.10909 0.92642 0.93898 0.0
O1308 O 0.16485 0.93464 0.92535 0.0
C1309 C 0.14643 0.918 0.01739 0.0
C1310 C 0.1368 0.79039 0.00927 0.0
C1311 C 0.19272 0.91011 0.92917 0.0
O1312 O 0.14804 0.88023 0.01468 0.0
O1313 O 0.1308 0.94034 0.99158 0.0
O1314 O 0.13017 0.8181 0.91677 0.0
O1315 O 0.10215 0.87069 0.9395 0.0
Co1316 Co 0.44857 0.8918 0.20094 0.0
O1317 O 0.48281 0.85348 0.225 0.0
O1318 O 0.49546 0.91711 0.21938 0.0
C1319 C 0.43086 0.85754 0.1462 0.0
O1320 O 0.42327 0.94074 0.17809 0.0
Co1321 Co 0.36033 0.87773 0.19273 0.0
O1322 O 0.35827 0.93304 0.17447 0.0
C1323 C 0.39034 0.90165 0.26939 0.0
C1324 C 0.5056 0.88303 0.23307 0.0
C1325 C 0.38894 0.95378 0.17047 0.0
O1326 O 0.42453 0.90314 0.25398 0.0
O1327 O 0.36009 0.89052 0.25042 0.0
O1328 O 0.46402 0.87612 0.14806 0.0
O1329 O 0.41144 0.85617 0.17888 0.0
Co1330 Co 0.07172 0.12614 0.70094 0.0
O1331 O 0.03749 0.16446 0.725 0.0
O1332 O 0.02483 0.10082 0.71938 0.0
C1333 C 0.08943 0.16039 0.64621 0.0
O1334 O 0.09702 0.07719 0.67809 0.0
Co1335 Co 0.15997 0.1402 0.69274 0.0
O1336 O 0.16203 0.0849 0.67447 0.0
C1337 C 0.12995 0.11628 0.76939 0.0
C1338 C 0.01469 0.1349 0.73307 0.0
C1339 C 0.13136 0.06416 0.67047 0.0
O1340 O 0.09577 0.11479 0.75398 0.0
O1341 O 0.16021 0.12741 0.75043 0.0
O1342 O 0.05628 0.14182 0.64806 0.0
O1343 O 0.10885 0.16177 0.67888 0.0
loop_
_geom_bond_atom_site_label_1
_geom_bond_atom_site_label_2
_geom_bond_distance
_geom_bond_site_symmetry_2
_ccdc_geom_bond_type
Co0 O1 2.216 . S
Co0 O2 2.091 . S
Co0 O4 2.004 . S
Co0 O10 2.021 . S
Co0 O12 2.137 . S
Co0 O13 2.244 . S
O1 Co0 2.216 . S
O1 C8 1.247 . S
O2 Co0 2.091 . S
O2 C8 1.261 . S
C3 O12 1.247 . S
C3 O13 1.272 . S
O4 Co0 2.004 . S
O4 C9 1.259 1_455 S
Co5 O6 2.061 1_455 S
Co5 O11 2.052 . S
Co5 O13 2.135 . S
O6 Co5 2.061 1_655 S
O6 C9 1.235 . S
C7 O10 1.238 . S
C7 O11 1.241 . S
C8 O1 1.247 . S
C8 O2 1.261 . S
C9 O4 1.259 1_655 S
C9 O6 1.235 . S
O10 Co0 2.021 . S
O10 C7 1.238 . S
O11 Co5 2.052 . S
O11 C7 1.241 . S
O12 Co0 2.137 . S
O12 C3 1.247 . S
O13 Co0 2.244 . S
O13 C3 1.272 . S
O13 Co5 2.135 . S
Co14 O15 2.216 . S
Co14 O16 2.091 . S
Co14 O18 2.004 . S
Co14 O24 2.021 . S
Co14 O26 2.137 . S
Co14 O27 2.244 . S
O15 Co14 2.216 . S
O15 C22 1.247 . S
O16 Co14 2.091 . S
O16 C22 1.261 . S
C17 O26 1.247 . S
C17 O27 1.272 . S
O18 Co14 2.004 . S
O18 C23 1.259 . S
Co19 O20 2.061 . S
Co19 O25 2.052 . S
Co19 O27 2.135 . S
O20 Co19 2.061 . S
O20 C23 1.235 . S
C21 O24 1.238 . S
C21 O25 1.241 . S
C22 O15 1.247 . S
C22 O16 1.261 . S
C23 O18 1.259 . S
C23 O20 1.235 . S
O24 Co14 2.021 . S
O24 C21 1.238 . S
O25 Co19 2.052 . S
O25 C21 1.241 . S
O26 Co14 2.137 . S
O26 C17 1.247 . S
O27 Co14 2.244 . S
O27 C17 1.272 . S
O27 Co19 2.135 . S
Co28 O29 2.216 . S
Co28 O30 2.091 . S
Co28 O32 2.004 . S
Co28 O38 2.021 . S
Co28 O40 2.137 . S
Co28 O41 2.244 . S
O29 Co28 2.216 . S
O29 C36 1.247 . S
O30 Co28 2.091 . S
O30 C36 1.261 . S
C31 O40 1.247 . S
C31 O41 1.272 . S
O32 Co28 2.004 . S
O32 C37 1.259 . S
Co33 O34 2.061 . S
Co33 O39 2.052 . S
Co33 O41 2.135 . S
O34 Co33 2.061 . S
O34 C37 1.235 . S
C35 O38 1.238 . S
C35 O39 1.241 . S
C36 O29 1.247 . S
C36 O30 1.261 . S
C37 O32 1.259 . S
C37 O34 1.235 . S
O38 Co28 2.021 . S
O38 C35 1.238 . S
O39 Co33 2.052 . S
O39 C35 1.241 . S
O40 Co28 2.137 . S
O40 C31 1.247 . S
O41 Co28 2.244 . S
O41 C31 1.272 . S
O41 Co33 2.135 . S
Co42 O43 2.216 . S
Co42 O44 2.091 . S
Co42 O46 2.004 . S
Co42 O52 2.021 . S
Co42 O54 2.137 . S
Co42 O55 2.244 . S
O43 Co42 2.216 . S
O43 C50 1.247 . S
O44 Co42 2.091 . S
O44 C50 1.261 . S
C45 O54 1.247 . S
C45 O55 1.272 . S
O46 Co42 2.004 . S
O46 C51 1.259 . S
Co47 O48 2.061 . S
Co47 O53 2.052 . S
Co47 O55 2.135 . S
O48 Co47 2.061 . S
O48 C51 1.235 . S
C49 O52 1.238 . S
C49 O53 1.241 . S
C50 O43 1.247 . S
C50 O44 1.261 . S
C51 O46 1.259 . S
C51 O48 1.235 . S
O52 Co42 2.021 . S
O52 C49 1.238 . S
O53 Co47 2.052 . S
O53 C49 1.241 . S
O54 Co42 2.137 . S
O54 C45 1.247 . S
O55 Co42 2.244 . S
O55 C45 1.272 . S
O55 Co47 2.135 . S
Co56 O57 2.216 . S
Co56 O58 2.091 . S
Co56 O60 2.004 . S
Co56 O66 2.021 . S
Co56 O68 2.137 . S
Co56 O69 2.244 . S
O57 Co56 2.216 . S
O57 C64 1.247 . S
O58 Co56 2.091 . S
O58 C64 1.261 . S
C59 O68 1.247 . S
C59 O69 1.272 . S
O60 Co56 2.004 . S
O60 C65 1.259 1_455 S
Co61 O62 2.061 1_455 S
Co61 O67 2.052 . S
Co61 O69 2.135 . S
O62 Co61 2.061 1_655 S
O62 C65 1.235 . S
C63 O66 1.238 . S
C63 O67 1.241 . S
C64 O57 1.247 . S
C64 O58 1.261 . S
C65 O60 1.259 1_655 S
C65 O62 1.235 . S
O66 Co56 2.021 . S
O66 C63 1.238 . S
O67 Co61 2.052 . S
O67 C63 1.241 . S
O68 Co56 2.137 . S
O68 C59 1.247 . S
O69 Co56 2.244 . S
O69 C59 1.272 . S
O69 Co61 2.135 . S
Co70 O71 2.216 . S
Co70 O72 2.091 . S
Co70 O74 2.004 . S
Co70 O80 2.021 . S
Co70 O82 2.137 . S
Co70 O83 2.244 . S
O71 Co70 2.216 . S
O71 C78 1.247 . S
O72 Co70 2.091 . S
O72 C78 1.261 . S
C73 O82 1.247 . S
C73 O83 1.272 . S
O74 Co70 2.004 . S
O74 C79 1.259 . S
Co75 O76 2.061 . S
Co75 O81 2.052 . S
Co75 O83 2.135 . S
O76 Co75 2.061 . S
O76 C79 1.235 . S
C77 O80 1.238 . S
C77 O81 1.241 . S
C78 O71 1.247 . S
C78 O72 1.261 . S
C79 O74 1.259 . S
C79 O76 1.235 . S
O80 Co70 2.021 . S
O80 C77 1.238 . S
O81 Co75 2.052 . S
O81 C77 1.241 . S
O82 Co70 2.137 . S
O82 C73 1.247 . S
O83 Co70 2.244 . S
O83 C73 1.272 . S
O83 Co75 2.135 . S
Co84 O85 2.216 . S
Co84 O86 2.091 . S
Co84 O88 2.004 . S
Co84 O94 2.021 . S
Co84 O96 2.137 . S
Co84 O97 2.244 . S
O85 Co84 2.216 . S
O85 C92 1.247 . S
O86 Co84 2.091 . S
O86 C92 1.261 . S
C87 O96 1.247 . S
C87 O97 1.272 . S
O88 Co84 2.004 . S
O88 C93 1.259 . S
Co89 O90 2.061 . S
Co89 O95 2.052 . S
Co89 O97 2.135 . S
O90 Co89 2.061 . S
O90 C93 1.235 . S
C91 O94 1.238 . S
C91 O95 1.241 . S
C92 O85 1.247 . S
C92 O86 1.261 . S
C93 O88 1.259 . S
C93 O90 1.235 . S
O94 Co84 2.021 . S
O94 C91 1.238 . S
O95 Co89 2.052 . S
O95 C91 1.241 . S
O96 Co84 2.137 . S
O96 C87 1.247 . S
O97 Co84 2.244 . S
O97 C87 1.272 . S
O97 Co89 2.135 . S
Co98 O99 2.216 . S
Co98 O100 2.091 . S
Co98 O102 2.004 . S
Co98 O108 2.021 . S
Co98 O110 2.137 . S
Co98 O111 2.244 . S
O99 Co98 2.216 . S
O99 C106 1.247 . S
O100 Co98 2.091 . S
O100 C106 1.261 . S
C101 O110 1.247 . S
C101 O111 1.272 . S
O102 Co98 2.004 . S
O102 C107 1.259 . S
Co103 O104 2.061 . S
Co103 O109 2.052 . S
Co103 O111 2.135 . S
O104 Co103 2.061 . S
O104 C107 1.235 . S
C105 O108 1.238 . S
C105 O109 1.241 . S
C106 O99 1.247 . S
C106 O100 1.261 . S
C107 O102 1.259 . S
C107 O104 1.235 . S
O108 Co98 2.021 . S
O108 C105 1.238 . S
O109 Co103 2.052 . S
O109 C105 1.241 . S
O110 Co98 2.137 . S
O110 C101 1.247 . S
O111 Co98 2.244 . S
O111 C101 1.272 . S
O111 Co103 2.135 . S
Co112 O113 2.216 . S
Co112 O114 2.091 . S
Co112 O116 2.004 . S
Co112 O122 2.021 . S
Co112 O124 2.137 . S
Co112 O125 2.244 . S
O113 Co112 2.216 . S
O113 C120 1.247 . S
O114 Co112 2.091 . S
O114 C120 1.261 . S
C115 O124 1.247 . S
C115 O125 1.272 . S
O116 Co112 2.004 . S
O116 C121 1.259 . S
Co117 O118 2.061 . S
Co117 O123 2.052 . S
Co117 O125 2.135 . S
O118 Co117 2.061 . S
O118 C121 1.235 . S
C119 O122 1.238 . S
C119 O123 1.241 . S
C120 O113 1.247 . S
C120 O114 1.261 . S
C121 O116 1.259 . S
C121 O118 1.235 . S
O122 Co112 2.021 . S
O122 C119 1.238 . S
O123 Co117 2.052 . S
O123 C119 1.241 . S
O124 Co112 2.137 . S
O124 C115 1.247 . S
O125 Co112 2.244 . S
O125 C115 1.272 . S
O125 Co117 2.135 . S
Co126 O127 2.216 . S
Co126 O128 2.091 . S
Co126 O130 2.004 . S
Co126 O136 2.021 . S
Co126 O138 2.137 . S
Co126 O139 2.244 . S
O127 Co126 2.216 . S
O127 C134 1.247 . S
O128 Co126 2.091 . S
O128 C134 1.261 . S
C129 O138 1.247 1_565 S
C129 O139 1.272 1_565 S
O130 Co126 2.004 . S
O130 C135 1.259 . S
Co131 O132 2.061 . S
Co131 O137 2.052 . S
Co131 O139 2.135 . S
O132 Co131 2.061 . S
O132 C135 1.235 . S
C133 O136 1.238 . S
C133 O137 1.241 . S
C134 O127 1.247 . S
C134 O128 1.261 . S
C135 O130 1.259 . S
C135 O132 1.235 . S
O136 Co126 2.021 . S
O136 C133 1.238 . S
O137 Co131 2.052 . S
O137 C133 1.241 . S
O138 Co126 2.137 . S
O138 C129 1.247 1_545 S
O139 Co126 2.244 . S
O139 C129 1.272 1_545 S
O139 Co131 2.135 . S
Co140 O141 2.216 . S
Co140 O142 2.091 . S
Co140 O144 2.004 . S
Co140 O150 2.021 . S
Co140 O152 2.137 . S
Co140 O153 2.244 . S
O141 Co140 2.216 . S
O141 C148 1.247 . S
O142 Co140 2.091 . S
O142 C148 1.261 . S
C143 O152 1.247 . S
C143 O153 1.272 . S
O144 Co140 2.004 . S
O144 C149 1.259 . S
Co145 O146 2.061 . S
Co145 O151 2.052 . S
Co145 O153 2.135 . S
O146 Co145 2.061 . S
O146 C149 1.235 . S
C147 O150 1.238 . S
C147 O151 1.241 . S
C148 O141 1.247 . S
C148 O142 1.261 . S
C149 O144 1.259 . S
C149 O146 1.235 . S
O150 Co140 2.021 . S
O150 C147 1.238 . S
O151 Co145 2.052 . S
O151 C147 1.241 . S
O152 Co140 2.137 . S
O152 C143 1.247 . S
O153 Co140 2.244 . S
O153 C143 1.272 . S
O153 Co145 2.135 . S
Co154 O155 2.216 . S
Co154 O156 2.091 . S
Co154 O158 2.004 . S
Co154 O164 2.021 . S
Co154 O166 2.137 . S
Co154 O167 2.244 . S
O155 Co154 2.216 . S
O155 C162 1.247 . S
O156 Co154 2.091 . S
O156 C162 1.261 . S
C157 O166 1.247 1_545 S
C157 O167 1.272 1_545 S
O158 Co154 2.004 . S
O158 C163 1.259 . S
Co159 O160 2.061 . S
Co159 O165 2.052 . S
Co159 O167 2.135 . S
O160 Co159 2.061 . S
O160 C163 1.235 . S
C161 O164 1.238 . S
C161 O165 1.241 . S
C162 O155 1.247 . S
C162 O156 1.261 . S
C163 O158 1.259 . S
C163 O160 1.235 . S
O164 Co154 2.021 . S
O164 C161 1.238 . S
O165 Co159 2.052 . S
O165 C161 1.241 . S
O166 Co154 2.137 . S
O166 C157 1.247 1_565 S
O167 Co154 2.244 . S
O167 C157 1.272 1_565 S
O167 Co159 2.135 . S
Co168 O169 2.216 . S
Co168 O170 2.091 . S
Co168 O172 2.004 . S
Co168 O178 2.021 . S
Co168 O180 2.137 . S
Co168 O181 2.244 . S
O169 Co168 2.216 . S
O169 C176 1.247 . S
O170 Co168 2.091 . S
O170 C176 1.261 . S
C171 O180 1.247 . S
C171 O181 1.272 . S
O172 Co168 2.004 . S
O172 C177 1.259 . S
Co173 O174 2.061 . S
Co173 O179 2.052 . S
Co173 O181 2.135 . S
O174 Co173 2.061 . S
O174 C177 1.235 . S
C175 O178 1.238 . S
C175 O179 1.241 . S
C176 O169 1.247 . S
C176 O170 1.261 . S
C177 O172 1.259 . S
C177 O174 1.235 . S
O178 Co168 2.021 . S
O178 C175 1.238 . S
O179 Co173 2.052 . S
O179 C175 1.241 . S
O180 Co168 2.137 . S
O180 C171 1.247 . S
O181 Co168 2.244 . S
O181 C171 1.272 . S
O181 Co173 2.135 . S
Co182 O183 2.216 . S
Co182 O184 2.091 . S
Co182 O186 2.004 . S
Co182 O192 2.021 . S
Co182 O194 2.137 . S
Co182 O195 2.244 . S
O183 Co182 2.216 . S
O183 C190 1.247 . S
O184 Co182 2.091 . S
O184 C190 1.261 . S
C185 O194 1.247 1_565 S
C185 O195 1.272 1_565 S
O186 Co182 2.004 . S
O186 C191 1.259 . S
Co187 O188 2.061 . S
Co187 O193 2.052 . S
Co187 O195 2.135 . S
O188 Co187 2.061 . S
O188 C191 1.235 . S
C189 O192 1.238 . S
C189 O193 1.241 . S
C190 O183 1.247 . S
C190 O184 1.261 . S
C191 O186 1.259 . S
C191 O188 1.235 . S
O192 Co182 2.021 . S
O192 C189 1.238 . S
O193 Co187 2.052 . S
O193 C189 1.241 . S
O194 Co182 2.137 . S
O194 C185 1.247 1_545 S
O195 Co182 2.244 . S
O195 C185 1.272 1_545 S
O195 Co187 2.135 . S
Co196 O197 2.216 . S
Co196 O198 2.091 . S
Co196 O200 2.004 . S
Co196 O206 2.021 . S
Co196 O208 2.137 . S
Co196 O209 2.244 . S
O197 Co196 2.216 . S
O197 C204 1.247 . S
O198 Co196 2.091 . S
O198 C204 1.261 . S
C199 O208 1.247 . S
C199 O209 1.272 . S
O200 Co196 2.004 . S
O200 C205 1.259 . S
Co201 O202 2.061 . S
Co201 O207 2.052 . S
Co201 O209 2.135 . S
O202 Co201 2.061 . S
O202 C205 1.235 . S
C203 O206 1.238 . S
C203 O207 1.241 . S
C204 O197 1.247 . S
C204 O198 1.261 . S
C205 O200 1.259 . S
C205 O202 1.235 . S
O206 Co196 2.021 . S
O206 C203 1.238 . S
O207 Co201 2.052 . S
O207 C203 1.241 . S
O208 Co196 2.137 . S
O208 C199 1.247 . S
O209 Co196 2.244 . S
O209 C199 1.272 . S
O209 Co201 2.135 . S
Co210 O211 2.216 . S
Co210 O212 2.091 . S
Co210 O214 2.004 . S
Co210 O220 2.021 . S
Co210 O222 2.137 . S
Co210 O223 2.244 . S
O211 Co210 2.216 . S
O211 C218 1.247 . S
O212 Co210 2.091 . S
O212 C218 1.261 . S
C213 O222 1.247 1_545 S
C213 O223 1.272 1_545 S
O214 Co210 2.004 . S
O214 C219 1.259 . S
Co215 O216 2.061 . S
Co215 O221 2.052 . S
Co215 O223 2.135 . S
O216 Co215 2.061 . S
O216 C219 1.235 . S
C217 O220 1.238 . S
C217 O221 1.241 . S
C218 O211 1.247 . S
C218 O212 1.261 . S
C219 O214 1.259 . S
C219 O216 1.235 . S
O220 Co210 2.021 . S
O220 C217 1.238 . S
O221 Co215 2.052 . S
O221 C217 1.241 . S
O222 Co210 2.137 . S
O222 C213 1.247 1_565 S
O223 Co210 2.244 . S
O223 C213 1.272 1_565 S
O223 Co215 2.135 . S
Co224 O225 2.216 . S
Co224 O226 2.091 . S
Co224 O228 2.004 . S
Co224 O234 2.021 . S
Co224 O236 2.137 . S
Co224 O237 2.244 . S
O225 Co224 2.216 . S
O225 C232 1.247 . S
O226 Co224 2.091 . S
O226 C232 1.261 . S
C227 O236 1.247 . S
C227 O237 1.272 . S
O228 Co224 2.004 . S
O228 C233 1.259 . S
Co229 O230 2.061 . S
Co229 O235 2.052 . S
Co229 O237 2.135 . S
O230 Co229 2.061 . S
O230 C233 1.235 . S
C231 O234 1.238 1_556 S
C231 O235 1.241 1_556 S
C232 O225 1.247 . S
C232 O226 1.261 . S
C233 O228 1.259 . S
C233 O230 1.235 . S
O234 Co224 2.021 . S
O234 C231 1.238 1_554 S
O235 Co229 2.052 . S
O235 C231 1.241 1_554 S
O236 Co224 2.137 . S
O236 C227 1.247 . S
O237 Co224 2.244 . S
O237 C227 1.272 . S
O237 Co229 2.135 . S
Co238 O239 2.216 . S
Co238 O240 2.091 . S
Co238 O242 2.004 . S
Co238 O248 2.021 . S
Co238 O250 2.137 . S
Co238 O251 2.244 . S
O239 Co238 2.216 . S
O239 C246 1.247 . S
O240 Co238 2.091 . S
O240 C246 1.261 . S
C241 O250 1.247 . S
C241 O251 1.272 . S
O242 Co238 2.004 . S
O242 C247 1.259 . S
Co243 O244 2.061 . S
Co243 O249 2.052 . S
Co243 O251 2.135 . S
O244 Co243 2.061 . S
O244 C247 1.235 . S
C245 O248 1.238 1_554 S
C245 O249 1.241 1_554 S
C246 O239 1.247 . S
C246 O240 1.261 . S
C247 O242 1.259 . S
C247 O244 1.235 . S
O248 Co238 2.021 . S
O248 C245 1.238 1_556 S
O249 Co243 2.052 . S
O249 C245 1.241 1_556 S
O250 Co238 2.137 . S
O250 C241 1.247 . S
O251 Co238 2.244 . S
O251 C241 1.272 . S
O251 Co243 2.135 . S
Co252 O253 2.216 . S
Co252 O254 2.091 . S
Co252 O256 2.004 . S
Co252 O262 2.021 . S
Co252 O264 2.137 . S
Co252 O265 2.244 . S
O253 Co252 2.216 . S
O253 C260 1.247 . S
O254 Co252 2.091 . S
O254 C260 1.261 . S
C255 O264 1.247 . S
C255 O265 1.272 . S
O256 Co252 2.004 . S
O256 C261 1.259 . S
Co257 O258 2.061 . S
Co257 O263 2.052 . S
Co257 O265 2.135 . S
O258 Co257 2.061 . S
O258 C261 1.235 . S
C259 O262 1.238 . S
C259 O263 1.241 . S
C260 O253 1.247 . S
C260 O254 1.261 . S
C261 O256 1.259 . S
C261 O258 1.235 . S
O262 Co252 2.021 . S
O262 C259 1.238 . S
O263 Co257 2.052 . S
O263 C259 1.241 . S
O264 Co252 2.137 . S
O264 C255 1.247 . S
O265 Co252 2.244 . S
O265 C255 1.272 . S
O265 Co257 2.135 . S
Co266 O267 2.216 . S
Co266 O268 2.091 . S
Co266 O270 2.004 . S
Co266 O276 2.021 . S
Co266 O278 2.137 . S
Co266 O279 2.244 . S
O267 Co266 2.216 . S
O267 C274 1.247 . S
O268 Co266 2.091 . S
O268 C274 1.261 . S
C269 O278 1.247 . S
C269 O279 1.272 . S
O270 Co266 2.004 . S
O270 C275 1.259 . S
Co271 O272 2.061 . S
Co271 O277 2.052 . S
Co271 O279 2.135 . S
O272 Co271 2.061 . S
O272 C275 1.235 . S
C273 O276 1.238 . S
C273 O277 1.241 . S
C274 O267 1.247 . S
C274 O268 1.261 . S
C275 O270 1.259 . S
C275 O272 1.235 . S
O276 Co266 2.021 . S
O276 C273 1.238 . S
O277 Co271 2.052 . S
O277 C273 1.241 . S
O278 Co266 2.137 . S
O278 C269 1.247 . S
O279 Co266 2.244 . S
O279 C269 1.272 . S
O279 Co271 2.135 . S
Co280 O281 2.216 . S
Co280 O282 2.091 . S
Co280 O284 2.004 . S
Co280 O290 2.021 . S
Co280 O292 2.137 . S
Co280 O293 2.244 . S
O281 Co280 2.216 . S
O281 C288 1.247 . S
O282 Co280 2.091 . S
O282 C288 1.261 . S
C283 O292 1.247 . S
C283 O293 1.272 . S
O284 Co280 2.004 . S
O284 C289 1.259 . S
Co285 O286 2.061 . S
Co285 O291 2.052 . S
Co285 O293 2.135 . S
O286 Co285 2.061 . S
O286 C289 1.235 . S
C287 O290 1.238 . S
C287 O291 1.241 . S
C288 O281 1.247 . S
C288 O282 1.261 . S
C289 O284 1.259 . S
C289 O286 1.235 . S
O290 Co280 2.021 . S
O290 C287 1.238 . S
O291 Co285 2.052 . S
O291 C287 1.241 . S
O292 Co280 2.137 . S
O292 C283 1.247 . S
O293 Co280 2.244 . S
O293 C283 1.272 . S
O293 Co285 2.135 . S
Co294 O295 2.216 . S
Co294 O296 2.091 . S
Co294 O298 2.004 . S
Co294 O304 2.021 . S
Co294 O306 2.137 . S
Co294 O307 2.244 . S
O295 Co294 2.216 . S
O295 C302 1.247 . S
O296 Co294 2.091 . S
O296 C302 1.261 . S
C297 O306 1.247 . S
C297 O307 1.272 . S
O298 Co294 2.004 . S
O298 C303 1.259 . S
Co299 O300 2.061 . S
Co299 O305 2.052 . S
Co299 O307 2.135 . S
O300 Co299 2.061 . S
O300 C303 1.235 . S
C301 O304 1.238 . S
C301 O305 1.241 . S
C302 O295 1.247 . S
C302 O296 1.261 . S
C303 O298 1.259 . S
C303 O300 1.235 . S
O304 Co294 2.021 . S
O304 C301 1.238 . S
O305 Co299 2.052 . S
O305 C301 1.241 . S
O306 Co294 2.137 . S
O306 C297 1.247 . S
O307 Co294 2.244 . S
O307 C297 1.272 . S
O307 Co299 2.135 . S
Co308 O309 2.216 . S
Co308 O310 2.091 . S
Co308 O312 2.004 . S
Co308 O318 2.021 . S
Co308 O320 2.137 . S
Co308 O321 2.244 . S
O309 Co308 2.216 . S
O309 C316 1.247 . S
O310 Co308 2.091 . S
O310 C316 1.261 . S
C311 O320 1.247 . S
C311 O321 1.272 . S
O312 Co308 2.004 . S
O312 C317 1.259 . S
Co313 O314 2.061 . S
Co313 O319 2.052 . S
Co313 O321 2.135 . S
O314 Co313 2.061 . S
O314 C317 1.235 . S
C315 O318 1.238 . S
C315 O319 1.241 . S
C316 O309 1.247 . S
C316 O310 1.261 . S
C317 O312 1.259 . S
C317 O314 1.235 . S
O318 Co308 2.021 . S
O318 C315 1.238 . S
O319 Co313 2.052 . S
O319 C315 1.241 . S
O320 Co308 2.137 . S
O320 C311 1.247 . S
O321 Co308 2.244 . S
O321 C311 1.272 . S
O321 Co313 2.135 . S
Co322 O323 2.216 . S
Co322 O324 2.091 . S
Co322 O326 2.004 . S
Co322 O332 2.021 . S
Co322 O334 2.137 . S
Co322 O335 2.244 . S
O323 Co322 2.216 . S
O323 C330 1.247 . S
O324 Co322 2.091 . S
O324 C330 1.261 . S
C325 O334 1.247 . S
C325 O335 1.272 . S
O326 Co322 2.004 . S
O326 C331 1.259 . S
Co327 O328 2.061 . S
Co327 O333 2.052 . S
Co327 O335 2.135 . S
O328 Co327 2.061 . S
O328 C331 1.235 . S
C329 O332 1.238 . S
C329 O333 1.241 . S
C330 O323 1.247 . S
C330 O324 1.261 . S
C331 O326 1.259 . S
C331 O328 1.235 . S
O332 Co322 2.021 . S
O332 C329 1.238 . S
O333 Co327 2.052 . S
O333 C329 1.241 . S
O334 Co322 2.137 . S
O334 C325 1.247 . S
O335 Co322 2.244 . S
O335 C325 1.272 . S
O335 Co327 2.135 . S
Co336 O337 2.216 . S
Co336 O338 2.091 . S
Co336 O340 2.004 . S
Co336 O346 2.021 . S
Co336 O348 2.137 . S
Co336 O349 2.244 . S
O337 Co336 2.216 . S
O337 C344 1.247 . S
O338 Co336 2.091 . S
O338 C344 1.261 . S
C339 O348 1.247 . S
C339 O349 1.272 . S
O340 Co336 2.004 . S
O340 C345 1.259 . S
Co341 O342 2.061 . S
Co341 O347 2.052 . S
Co341 O349 2.135 . S
O342 Co341 2.061 . S
O342 C345 1.235 . S
C343 O346 1.238 1_455 S
C343 O347 1.241 1_455 S
C344 O337 1.247 . S
C344 O338 1.261 . S
C345 O340 1.259 . S
C345 O342 1.235 . S
O346 Co336 2.021 . S
O346 C343 1.238 1_655 S
O347 Co341 2.052 . S
O347 C343 1.241 1_655 S
O348 Co336 2.137 . S
O348 C339 1.247 . S
O349 Co336 2.244 . S
O349 C339 1.272 . S
O349 Co341 2.135 . S
Co350 O351 2.216 . S
Co350 O352 2.091 . S
Co350 O354 2.004 . S
Co350 O360 2.021 . S
Co350 O362 2.137 . S
Co350 O363 2.244 . S
O351 Co350 2.216 . S
O351 C358 1.247 . S
O352 Co350 2.091 . S
O352 C358 1.261 . S
C353 O362 1.247 . S
C353 O363 1.272 . S
O354 Co350 2.004 . S
O354 C359 1.259 . S
Co355 O356 2.061 . S
Co355 O361 2.052 . S
Co355 O363 2.135 . S
O356 Co355 2.061 . S
O356 C359 1.235 . S
C357 O360 1.238 . S
C357 O361 1.241 . S
C358 O351 1.247 . S
C358 O352 1.261 . S
C359 O354 1.259 . S
C359 O356 1.235 . S
O360 Co350 2.021 . S
O360 C357 1.238 . S
O361 Co355 2.052 . S
O361 C357 1.241 . S
O362 Co350 2.137 . S
O362 C353 1.247 . S
O363 Co350 2.244 . S
O363 C353 1.272 . S
O363 Co355 2.135 . S
Co364 O365 2.216 . S
Co364 O366 2.091 . S
Co364 O368 2.004 . S
Co364 O374 2.021 . S
Co364 O376 2.137 . S
Co364 O377 2.244 . S
O365 Co364 2.216 . S
O365 C372 1.247 . S
O366 Co364 2.091 . S
O366 C372 1.261 . S
C367 O376 1.247 . S
C367 O377 1.272 . S
O368 Co364 2.004 . S
O368 C373 1.259 . S
Co369 O370 2.061 . S
Co369 O375 2.052 . S
Co369 O377 2.135 . S
O370 Co369 2.061 . S
O370 C373 1.235 . S
C371 O374 1.238 . S
C371 O375 1.241 . S
C372 O365 1.247 . S
C372 O366 1.261 . S
C373 O368 1.259 . S
C373 O370 1.235 . S
O374 Co364 2.021 . S
O374 C371 1.238 . S
O375 Co369 2.052 . S
O375 C371 1.241 . S
O376 Co364 2.137 . S
O376 C367 1.247 . S
O377 Co364 2.244 . S
O377 C367 1.272 . S
O377 Co369 2.135 . S
Co378 O379 2.216 . S
Co378 O380 2.091 . S
Co378 O382 2.004 . S
Co378 O388 2.021 . S
Co378 O390 2.137 . S
Co378 O391 2.244 . S
O379 Co378 2.216 . S
O379 C386 1.247 . S
O380 Co378 2.091 . S
O380 C386 1.261 . S
C381 O390 1.247 . S
C381 O391 1.272 . S
O382 Co378 2.004 . S
O382 C387 1.259 . S
Co383 O384 2.061 . S
Co383 O389 2.052 . S
Co383 O391 2.135 . S
O384 Co383 2.061 . S
O384 C387 1.235 . S
C385 O388 1.238 . S
C385 O389 1.241 . S
C386 O379 1.247 . S
C386 O380 1.261 . S
C387 O382 1.259 . S
C387 O384 1.235 . S
O388 Co378 2.021 . S
O388 C385 1.238 . S
O389 Co383 2.052 . S
O389 C385 1.241 . S
O390 Co378 2.137 . S
O390 C381 1.247 . S
O391 Co378 2.244 . S
O391 C381 1.272 . S
O391 Co383 2.135 . S
Co392 O393 2.216 . S
Co392 O394 2.091 . S
Co392 O396 2.004 . S
Co392 O402 2.021 . S
Co392 O404 2.137 . S
Co392 O405 2.244 . S
O393 Co392 2.216 . S
O393 C400 1.247 . S
O394 Co392 2.091 . S
O394 C400 1.261 . S
C395 O404 1.247 . S
C395 O405 1.272 . S
O396 Co392 2.004 . S
O396 C401 1.259 . S
Co397 O398 2.061 . S
Co397 O403 2.052 . S
Co397 O405 2.135 . S
O398 Co397 2.061 . S
O398 C401 1.235 . S
C399 O402 1.238 1_455 S
C399 O403 1.241 1_455 S
C400 O393 1.247 . S
C400 O394 1.261 . S
C401 O396 1.259 . S
C401 O398 1.235 . S
O402 Co392 2.021 . S
O402 C399 1.238 1_655 S
O403 Co397 2.052 . S
O403 C399 1.241 1_655 S
O404 Co392 2.137 . S
O404 C395 1.247 . S
O405 Co392 2.244 . S
O405 C395 1.272 . S
O405 Co397 2.135 . S
Co406 O407 2.216 . S
Co406 O408 2.091 . S
Co406 O410 2.004 . S
Co406 O416 2.021 . S
Co406 O418 2.137 . S
Co406 O419 2.244 . S
O407 Co406 2.216 . S
O407 C414 1.247 . S
O408 Co406 2.091 . S
O408 C414 1.261 . S
C409 O418 1.247 . S
C409 O419 1.272 . S
O410 Co406 2.004 . S
O410 C415 1.259 . S
Co411 O412 2.061 . S
Co411 O417 2.052 . S
Co411 O419 2.135 . S
O412 Co411 2.061 . S
O412 C415 1.235 . S
C413 O416 1.238 . S
C413 O417 1.241 . S
C414 O407 1.247 . S
C414 O408 1.261 . S
C415 O410 1.259 . S
C415 O412 1.235 . S
O416 Co406 2.021 . S
O416 C413 1.238 . S
O417 Co411 2.052 . S
O417 C413 1.241 . S
O418 Co406 2.137 . S
O418 C409 1.247 . S
O419 Co406 2.244 . S
O419 C409 1.272 . S
O419 Co411 2.135 . S
Co420 O421 2.216 . S
Co420 O422 2.091 . S
Co420 O424 2.004 . S
Co420 O430 2.021 . S
Co420 O432 2.137 . S
Co420 O433 2.244 . S
O421 Co420 2.216 . S
O421 C428 1.247 . S
O422 Co420 2.091 . S
O422 C428 1.261 . S
C423 O432 1.247 . S
C423 O433 1.272 . S
O424 Co420 2.004 . S
O424 C429 1.259 . S
Co425 O426 2.061 . S
Co425 O431 2.052 . S
Co425 O433 2.135 . S
O426 Co425 2.061 . S
O426 C429 1.235 . S
C427 O430 1.238 . S
C427 O431 1.241 . S
C428 O421 1.247 . S
C428 O422 1.261 . S
C429 O424 1.259 . S
C429 O426 1.235 . S
O430 Co420 2.021 . S
O430 C427 1.238 . S
O431 Co425 2.052 . S
O431 C427 1.241 . S
O432 Co420 2.137 . S
O432 C423 1.247 . S
O433 Co420 2.244 . S
O433 C423 1.272 . S
O433 Co425 2.135 . S
Co434 O435 2.216 . S
Co434 O436 2.091 . S
Co434 O438 2.004 . S
Co434 O444 2.021 . S
Co434 O446 2.137 . S
Co434 O447 2.244 . S
O435 Co434 2.216 . S
O435 C442 1.247 . S
O436 Co434 2.091 . S
O436 C442 1.261 . S
C437 O446 1.247 . S
C437 O447 1.272 . S
O438 Co434 2.004 . S
O438 C443 1.259 . S
Co439 O440 2.061 . S
Co439 O445 2.052 . S
Co439 O447 2.135 . S
O440 Co439 2.061 . S
O440 C443 1.235 . S
C441 O444 1.238 . S
C441 O445 1.241 . S
C442 O435 1.247 . S
C442 O436 1.261 . S
C443 O438 1.259 . S
C443 O440 1.235 . S
O444 Co434 2.021 . S
O444 C441 1.238 . S
O445 Co439 2.052 . S
O445 C441 1.241 . S
O446 Co434 2.137 . S
O446 C437 1.247 . S
O447 Co434 2.244 . S
O447 C437 1.272 . S
O447 Co439 2.135 . S
Co448 O449 2.216 . S
Co448 O450 2.091 . S
Co448 O452 2.004 . S
Co448 O458 2.021 . S
Co448 O460 2.137 . S
Co448 O461 2.244 . S
O449 Co448 2.216 . S
O449 C456 1.247 . S
O450 Co448 2.091 . S
O450 C456 1.261 . S
C451 O460 1.247 . S
C451 O461 1.272 . S
O452 Co448 2.004 . S
O452 C457 1.259 . S
Co453 O454 2.061 . S
Co453 O459 2.052 . S
Co453 O461 2.135 . S
O454 Co453 2.061 . S
O454 C457 1.235 . S
C455 O458 1.238 . S
C455 O459 1.241 . S
C456 O449 1.247 . S
C456 O450 1.261 . S
C457 O452 1.259 . S
C457 O454 1.235 . S
O458 Co448 2.021 . S
O458 C455 1.238 . S
O459 Co453 2.052 . S
O459 C455 1.241 . S
O460 Co448 2.137 . S
O460 C451 1.247 . S
O461 Co448 2.244 . S
O461 C451 1.272 . S
O461 Co453 2.135 . S
Co462 O463 2.216 . S
Co462 O464 2.091 1_565 S
Co462 O466 2.004 . S
Co462 O472 2.021 . S
Co462 O474 2.137 . S
Co462 O475 2.244 . S
O463 Co462 2.216 . S
O463 C470 1.247 1_565 S
O464 Co462 2.091 1_545 S
O464 C470 1.261 . S
C465 O474 1.247 . S
C465 O475 1.272 . S
O466 Co462 2.004 . S
O466 C471 1.259 . S
Co467 O468 2.061 . S
Co467 O473 2.052 . S
Co467 O475 2.135 . S
O468 Co467 2.061 . S
O468 C471 1.235 . S
C469 O472 1.238 . S
C469 O473 1.241 . S
C470 O463 1.247 1_545 S
C470 O464 1.261 . S
C471 O466 1.259 . S
C471 O468 1.235 . S
O472 Co462 2.021 . S
O472 C469 1.238 . S
O473 Co467 2.052 . S
O473 C469 1.241 . S
O474 Co462 2.137 . S
O474 C465 1.247 . S
O475 Co462 2.244 . S
O475 C465 1.272 . S
O475 Co467 2.135 . S
Co476 O477 2.216 . S
Co476 O478 2.091 . S
Co476 O480 2.004 . S
Co476 O486 2.021 . S
Co476 O488 2.137 . S
Co476 O489 2.244 . S
O477 Co476 2.216 . S
O477 C484 1.247 . S
O478 Co476 2.091 . S
O478 C484 1.261 . S
C479 O488 1.247 . S
C479 O489 1.272 . S
O480 Co476 2.004 . S
O480 C485 1.259 . S
Co481 O482 2.061 . S
Co481 O487 2.052 . S
Co481 O489 2.135 . S
O482 Co481 2.061 . S
O482 C485 1.235 . S
C483 O486 1.238 . S
C483 O487 1.241 . S
C484 O477 1.247 . S
C484 O478 1.261 . S
C485 O480 1.259 . S
C485 O482 1.235 . S
O486 Co476 2.021 . S
O486 C483 1.238 . S
O487 Co481 2.052 . S
O487 C483 1.241 . S
O488 Co476 2.137 . S
O488 C479 1.247 . S
O489 Co476 2.244 . S
O489 C479 1.272 . S
O489 Co481 2.135 . S
Co490 O491 2.216 . S
Co490 O492 2.091 1_545 S
Co490 O494 2.004 . S
Co490 O500 2.021 . S
Co490 O502 2.137 . S
Co490 O503 2.244 . S
O491 Co490 2.216 . S
O491 C498 1.247 1_545 S
O492 Co490 2.091 1_565 S
O492 C498 1.261 . S
C493 O502 1.247 . S
C493 O503 1.272 . S
O494 Co490 2.004 . S
O494 C499 1.259 . S
Co495 O496 2.061 . S
Co495 O501 2.052 . S
Co495 O503 2.135 . S
O496 Co495 2.061 . S
O496 C499 1.235 . S
C497 O500 1.238 . S
C497 O501 1.241 . S
C498 O491 1.247 1_565 S
C498 O492 1.261 . S
C499 O494 1.259 . S
C499 O496 1.235 . S
O500 Co490 2.021 . S
O500 C497 1.238 . S
O501 Co495 2.052 . S
O501 C497 1.241 . S
O502 Co490 2.137 . S
O502 C493 1.247 . S
O503 Co490 2.244 . S
O503 C493 1.272 . S
O503 Co495 2.135 . S
Co504 O505 2.216 . S
Co504 O506 2.091 . S
Co504 O508 2.004 . S
Co504 O514 2.021 . S
Co504 O516 2.137 . S
Co504 O517 2.244 . S
O505 Co504 2.216 . S
O505 C512 1.247 . S
O506 Co504 2.091 . S
O506 C512 1.261 . S
C507 O516 1.247 . S
C507 O517 1.272 . S
O508 Co504 2.004 . S
O508 C513 1.259 . S
Co509 O510 2.061 . S
Co509 O515 2.052 . S
Co509 O517 2.135 . S
O510 Co509 2.061 . S
O510 C513 1.235 . S
C511 O514 1.238 . S
C511 O515 1.241 . S
C512 O505 1.247 . S
C512 O506 1.261 . S
C513 O508 1.259 . S
C513 O510 1.235 . S
O514 Co504 2.021 . S
O514 C511 1.238 . S
O515 Co509 2.052 . S
O515 C511 1.241 . S
O516 Co504 2.137 . S
O516 C507 1.247 . S
O517 Co504 2.244 . S
O517 C507 1.272 . S
O517 Co509 2.135 . S
Co518 O519 2.216 . S
Co518 O520 2.091 1_565 S
Co518 O522 2.004 . S
Co518 O528 2.021 . S
Co518 O530 2.137 . S
Co518 O531 2.244 . S
O519 Co518 2.216 . S
O519 C526 1.247 1_565 S
O520 Co518 2.091 1_545 S
O520 C526 1.261 . S
C521 O530 1.247 . S
C521 O531 1.272 . S
O522 Co518 2.004 . S
O522 C527 1.259 . S
Co523 O524 2.061 . S
Co523 O529 2.052 . S
Co523 O531 2.135 . S
O524 Co523 2.061 . S
O524 C527 1.235 . S
C525 O528 1.238 . S
C525 O529 1.241 . S
C526 O519 1.247 1_545 S
C526 O520 1.261 . S
C527 O522 1.259 . S
C527 O524 1.235 . S
O528 Co518 2.021 . S
O528 C525 1.238 . S
O529 Co523 2.052 . S
O529 C525 1.241 . S
O530 Co518 2.137 . S
O530 C521 1.247 . S
O531 Co518 2.244 . S
O531 C521 1.272 . S
O531 Co523 2.135 . S
Co532 O533 2.216 . S
Co532 O534 2.091 . S
Co532 O536 2.004 . S
Co532 O542 2.021 . S
Co532 O544 2.137 . S
Co532 O545 2.244 . S
O533 Co532 2.216 . S
O533 C540 1.247 . S
O534 Co532 2.091 . S
O534 C540 1.261 . S
C535 O544 1.247 . S
C535 O545 1.272 . S
O536 Co532 2.004 . S
O536 C541 1.259 . S
Co537 O538 2.061 . S
Co537 O543 2.052 . S
Co537 O545 2.135 . S
O538 Co537 2.061 . S
O538 C541 1.235 . S
C539 O542 1.238 . S
C539 O543 1.241 . S
C540 O533 1.247 . S
C540 O534 1.261 . S
C541 O536 1.259 . S
C541 O538 1.235 . S
O542 Co532 2.021 . S
O542 C539 1.238 . S
O543 Co537 2.052 . S
O543 C539 1.241 . S
O544 Co532 2.137 . S
O544 C535 1.247 . S
O545 Co532 2.244 . S
O545 C535 1.272 . S
O545 Co537 2.135 . S
Co546 O547 2.216 . S
Co546 O548 2.091 1_545 S
Co546 O550 2.004 . S
Co546 O556 2.021 . S
Co546 O558 2.137 . S
Co546 O559 2.244 . S
O547 Co546 2.216 . S
O547 C554 1.247 1_545 S
O548 Co546 2.091 1_565 S
O548 C554 1.261 . S
C549 O558 1.247 . S
C549 O559 1.272 . S
O550 Co546 2.004 . S
O550 C555 1.259 . S
Co551 O552 2.061 . S
Co551 O557 2.052 . S
Co551 O559 2.135 . S
O552 Co551 2.061 . S
O552 C555 1.235 . S
C553 O556 1.238 . S
C553 O557 1.241 . S
C554 O547 1.247 1_565 S
C554 O548 1.261 . S
C555 O550 1.259 . S
C555 O552 1.235 . S
O556 Co546 2.021 . S
O556 C553 1.238 . S
O557 Co551 2.052 . S
O557 C553 1.241 . S
O558 Co546 2.137 . S
O558 C549 1.247 . S
O559 Co546 2.244 . S
O559 C549 1.272 . S
O559 Co551 2.135 . S
Co560 O561 2.216 . S
Co560 O562 2.091 . S
Co560 O564 2.004 . S
Co560 O570 2.021 1_556 S
Co560 O572 2.137 . S
Co560 O573 2.244 . S
O561 Co560 2.216 . S
O561 C568 1.247 . S
O562 Co560 2.091 . S
O562 C568 1.261 . S
C563 O572 1.247 . S
C563 O573 1.272 . S
O564 Co560 2.004 . S
O564 C569 1.259 . S
Co565 O566 2.061 . S
Co565 O571 2.052 . S
Co565 O573 2.135 . S
O566 Co565 2.061 . S
O566 C569 1.235 . S
C567 O570 1.238 . S
C567 O571 1.241 1_554 S
C568 O561 1.247 . S
C568 O562 1.261 . S
C569 O564 1.259 . S
C569 O566 1.235 . S
O570 Co560 2.021 1_554 S
O570 C567 1.238 . S
O571 Co565 2.052 . S
O571 C567 1.241 1_556 S
O572 Co560 2.137 . S
O572 C563 1.247 . S
O573 Co560 2.244 . S
O573 C563 1.272 . S
O573 Co565 2.135 . S
Co574 O575 2.216 . S
Co574 O576 2.091 . S
Co574 O578 2.004 . S
Co574 O584 2.021 1_554 S
Co574 O586 2.137 . S
Co574 O587 2.244 . S
O575 Co574 2.216 . S
O575 C582 1.247 . S
O576 Co574 2.091 . S
O576 C582 1.261 . S
C577 O586 1.247 . S
C577 O587 1.272 . S
O578 Co574 2.004 . S
O578 C583 1.259 . S
Co579 O580 2.061 . S
Co579 O585 2.052 . S
Co579 O587 2.135 . S
O580 Co579 2.061 . S
O580 C583 1.235 . S
C581 O584 1.238 . S
C581 O585 1.241 1_556 S
C582 O575 1.247 . S
C582 O576 1.261 . S
C583 O578 1.259 . S
C583 O580 1.235 . S
O584 Co574 2.021 1_556 S
O584 C581 1.238 . S
O585 Co579 2.052 . S
O585 C581 1.241 1_554 S
O586 Co574 2.137 . S
O586 C577 1.247 . S
O587 Co574 2.244 . S
O587 C577 1.272 . S
O587 Co579 2.135 . S
Co588 O589 2.216 . S
Co588 O590 2.091 . S
Co588 O592 2.004 . S
Co588 O598 2.021 . S
Co588 O600 2.137 . S
Co588 O601 2.244 . S
O589 Co588 2.216 . S
O589 C596 1.247 . S
O590 Co588 2.091 . S
O590 C596 1.261 . S
C591 O600 1.247 . S
C591 O601 1.272 . S
O592 Co588 2.004 . S
O592 C597 1.259 . S
Co593 O594 2.061 . S
Co593 O599 2.052 . S
Co593 O601 2.135 . S
O594 Co593 2.061 . S
O594 C597 1.235 . S
C595 O598 1.238 . S
C595 O599 1.241 . S
C596 O589 1.247 . S
C596 O590 1.261 . S
C597 O592 1.259 . S
C597 O594 1.235 . S
O598 Co588 2.021 . S
O598 C595 1.238 . S
O599 Co593 2.052 . S
O599 C595 1.241 . S
O600 Co588 2.137 . S
O600 C591 1.247 . S
O601 Co588 2.244 . S
O601 C591 1.272 . S
O601 Co593 2.135 . S
Co602 O603 2.216 . S
Co602 O604 2.091 . S
Co602 O606 2.004 . S
Co602 O612 2.021 . S
Co602 O614 2.137 . S
Co602 O615 2.244 . S
O603 Co602 2.216 . S
O603 C610 1.247 . S
O604 Co602 2.091 . S
O604 C610 1.261 . S
C605 O614 1.247 . S
C605 O615 1.272 . S
O606 Co602 2.004 . S
O606 C611 1.259 . S
Co607 O608 2.061 . S
Co607 O613 2.052 . S
Co607 O615 2.135 . S
O608 Co607 2.061 . S
O608 C611 1.235 . S
C609 O612 1.238 . S
C609 O613 1.241 . S
C610 O603 1.247 . S
C610 O604 1.261 . S
C611 O606 1.259 . S
C611 O608 1.235 . S
O612 Co602 2.021 . S
O612 C609 1.238 . S
O613 Co607 2.052 . S
O613 C609 1.241 . S
O614 Co602 2.137 . S
O614 C605 1.247 . S
O615 Co602 2.244 . S
O615 C605 1.272 . S
O615 Co607 2.135 . S
Co616 O617 2.216 . S
Co616 O618 2.091 . S
Co616 O620 2.004 . S
Co616 O626 2.021 . S
Co616 O628 2.137 . S
Co616 O629 2.244 . S
O617 Co616 2.216 . S
O617 C624 1.247 . S
O618 Co616 2.091 . S
O618 C624 1.261 . S
C619 O628 1.247 . S
C619 O629 1.272 . S
O620 Co616 2.004 . S
O620 C625 1.259 . S
Co621 O622 2.061 . S
Co621 O627 2.052 . S
Co621 O629 2.135 . S
O622 Co621 2.061 . S
O622 C625 1.235 . S
C623 O626 1.238 . S
C623 O627 1.241 . S
C624 O617 1.247 . S
C624 O618 1.261 . S
C625 O620 1.259 . S
C625 O622 1.235 . S
O626 Co616 2.021 . S
O626 C623 1.238 . S
O627 Co621 2.052 . S
O627 C623 1.241 . S
O628 Co616 2.137 . S
O628 C619 1.247 . S
O629 Co616 2.244 . S
O629 C619 1.272 . S
O629 Co621 2.135 . S
Co630 O631 2.216 . S
Co630 O632 2.091 . S
Co630 O634 2.004 . S
Co630 O640 2.021 . S
Co630 O642 2.137 . S
Co630 O643 2.244 . S
O631 Co630 2.216 . S
O631 C638 1.247 . S
O632 Co630 2.091 . S
O632 C638 1.261 . S
C633 O642 1.247 . S
C633 O643 1.272 . S
O634 Co630 2.004 . S
O634 C639 1.259 . S
Co635 O636 2.061 . S
Co635 O641 2.052 . S
Co635 O643 2.135 . S
O636 Co635 2.061 . S
O636 C639 1.235 . S
C637 O640 1.238 . S
C637 O641 1.241 . S
C638 O631 1.247 . S
C638 O632 1.261 . S
C639 O634 1.259 . S
C639 O636 1.235 . S
O640 Co630 2.021 . S
O640 C637 1.238 . S
O641 Co635 2.052 . S
O641 C637 1.241 . S
O642 Co630 2.137 . S
O642 C633 1.247 . S
O643 Co630 2.244 . S
O643 C633 1.272 . S
O643 Co635 2.135 . S
Co644 O645 2.216 . S
Co644 O646 2.091 . S
Co644 O648 2.004 . S
Co644 O654 2.021 . S
Co644 O656 2.137 . S
Co644 O657 2.244 . S
O645 Co644 2.216 . S
O645 C652 1.247 . S
O646 Co644 2.091 . S
O646 C652 1.261 . S
C647 O656 1.247 . S
C647 O657 1.272 . S
O648 Co644 2.004 . S
O648 C653 1.259 . S
Co649 O650 2.061 . S
Co649 O655 2.052 . S
Co649 O657 2.135 . S
O650 Co649 2.061 . S
O650 C653 1.235 . S
C651 O654 1.238 . S
C651 O655 1.241 . S
C652 O645 1.247 . S
C652 O646 1.261 . S
C653 O648 1.259 . S
C653 O650 1.235 . S
O654 Co644 2.021 . S
O654 C651 1.238 . S
O655 Co649 2.052 . S
O655 C651 1.241 . S
O656 Co644 2.137 . S
O656 C647 1.247 . S
O657 Co644 2.244 . S
O657 C647 1.272 . S
O657 Co649 2.135 . S
Co658 O659 2.216 . S
Co658 O660 2.091 . S
Co658 O662 2.004 . S
Co658 O668 2.021 . S
Co658 O670 2.137 . S
Co658 O671 2.244 . S
O659 Co658 2.216 . S
O659 C666 1.247 . S
O660 Co658 2.091 . S
O660 C666 1.261 . S
C661 O670 1.247 . S
C661 O671 1.272 . S
O662 Co658 2.004 . S
O662 C667 1.259 . S
Co663 O664 2.061 . S
Co663 O669 2.052 . S
Co663 O671 2.135 . S
O664 Co663 2.061 . S
O664 C667 1.235 . S
C665 O668 1.238 . S
C665 O669 1.241 . S
C666 O659 1.247 . S
C666 O660 1.261 . S
C667 O662 1.259 . S
C667 O664 1.235 . S
O668 Co658 2.021 . S
O668 C665 1.238 . S
O669 Co663 2.052 . S
O669 C665 1.241 . S
O670 Co658 2.137 . S
O670 C661 1.247 . S
O671 Co658 2.244 . S
O671 C661 1.272 . S
O671 Co663 2.135 . S
Co672 O673 2.216 . S
Co672 O674 2.091 . S
Co672 O676 2.004 . S
Co672 O682 2.021 . S
Co672 O684 2.137 . S
Co672 O685 2.244 . S
O673 Co672 2.216 . S
O673 C680 1.247 . S
O674 Co672 2.091 . S
O674 C680 1.261 . S
C675 O684 1.247 . S
C675 O685 1.272 . S
O676 Co672 2.004 . S
O676 C681 1.259 . S
Co677 O678 2.061 . S
Co677 O683 2.052 . S
Co677 O685 2.135 . S
O678 Co677 2.061 . S
O678 C681 1.235 . S
C679 O682 1.238 . S
C679 O683 1.241 . S
C680 O673 1.247 . S
C680 O674 1.261 . S
C681 O676 1.259 . S
C681 O678 1.235 . S
O682 Co672 2.021 . S
O682 C679 1.238 . S
O683 Co677 2.052 . S
O683 C679 1.241 . S
O684 Co672 2.137 . S
O684 C675 1.247 . S
O685 Co672 2.244 . S
O685 C675 1.272 . S
O685 Co677 2.135 . S
Co686 O687 2.216 . S
Co686 O688 2.091 . S
Co686 O690 2.004 . S
Co686 O696 2.021 . S
Co686 O698 2.137 . S
Co686 O699 2.244 . S
O687 Co686 2.216 . S
O687 C694 1.247 . S
O688 Co686 2.091 . S
O688 C694 1.261 . S
C689 O698 1.247 . S
C689 O699 1.272 . S
O690 Co686 2.004 . S
O690 C695 1.259 . S
Co691 O692 2.061 . S
Co691 O697 2.052 . S
Co691 O699 2.135 . S
O692 Co691 2.061 . S
O692 C695 1.235 . S
C693 O696 1.238 . S
C693 O697 1.241 . S
C694 O687 1.247 . S
C694 O688 1.261 . S
C695 O690 1.259 . S
C695 O692 1.235 . S
O696 Co686 2.021 . S
O696 C693 1.238 . S
O697 Co691 2.052 . S
O697 C693 1.241 . S
O698 Co686 2.137 . S
O698 C689 1.247 . S
O699 Co686 2.244 . S
O699 C689 1.272 . S
O699 Co691 2.135 . S
Co700 O701 2.216 . S
Co700 O702 2.091 . S
Co700 O704 2.004 . S
Co700 O710 2.021 . S
Co700 O712 2.137 . S
Co700 O713 2.244 . S
O701 Co700 2.216 . S
O701 C708 1.247 . S
O702 Co700 2.091 . S
O702 C708 1.261 . S
C703 O712 1.247 . S
C703 O713 1.272 . S
O704 Co700 2.004 . S
O704 C709 1.259 1_655 S
Co705 O706 2.061 1_655 S
Co705 O711 2.052 . S
Co705 O713 2.135 . S
O706 Co705 2.061 1_455 S
O706 C709 1.235 . S
C707 O710 1.238 . S
C707 O711 1.241 . S
C708 O701 1.247 . S
C708 O702 1.261 . S
C709 O704 1.259 1_455 S
C709 O706 1.235 . S
O710 Co700 2.021 . S
O710 C707 1.238 . S
O711 Co705 2.052 . S
O711 C707 1.241 . S
O712 Co700 2.137 . S
O712 C703 1.247 . S
O713 Co700 2.244 . S
O713 C703 1.272 . S
O713 Co705 2.135 . S
Co714 O715 2.216 . S
Co714 O716 2.091 . S
Co714 O718 2.004 . S
Co714 O724 2.021 . S
Co714 O726 2.137 . S
Co714 O727 2.244 . S
O715 Co714 2.216 . S
O715 C722 1.247 . S
O716 Co714 2.091 . S
O716 C722 1.261 . S
C717 O726 1.247 . S
C717 O727 1.272 . S
O718 Co714 2.004 . S
O718 C723 1.259 . S
Co719 O720 2.061 . S
Co719 O725 2.052 . S
Co719 O727 2.135 . S
O720 Co719 2.061 . S
O720 C723 1.235 . S
C721 O724 1.238 . S
C721 O725 1.241 . S
C722 O715 1.247 . S
C722 O716 1.261 . S
C723 O718 1.259 . S
C723 O720 1.235 . S
O724 Co714 2.021 . S
O724 C721 1.238 . S
O725 Co719 2.052 . S
O725 C721 1.241 . S
O726 Co714 2.137 . S
O726 C717 1.247 . S
O727 Co714 2.244 . S
O727 C717 1.272 . S
O727 Co719 2.135 . S
Co728 O729 2.216 . S
Co728 O730 2.091 . S
Co728 O732 2.004 . S
Co728 O738 2.021 . S
Co728 O740 2.137 . S
Co728 O741 2.244 . S
O729 Co728 2.216 . S
O729 C736 1.247 . S
O730 Co728 2.091 . S
O730 C736 1.261 . S
C731 O740 1.247 . S
C731 O741 1.272 . S
O732 Co728 2.004 . S
O732 C737 1.259 . S
Co733 O734 2.061 . S
Co733 O739 2.052 . S
Co733 O741 2.135 . S
O734 Co733 2.061 . S
O734 C737 1.235 . S
C735 O738 1.238 . S
C735 O739 1.241 . S
C736 O729 1.247 . S
C736 O730 1.261 . S
C737 O732 1.259 . S
C737 O734 1.235 . S
O738 Co728 2.021 . S
O738 C735 1.238 . S
O739 Co733 2.052 . S
O739 C735 1.241 . S
O740 Co728 2.137 . S
O740 C731 1.247 . S
O741 Co728 2.244 . S
O741 C731 1.272 . S
O741 Co733 2.135 . S
Co742 O743 2.216 . S
Co742 O744 2.091 . S
Co742 O746 2.004 . S
Co742 O752 2.021 . S
Co742 O754 2.137 . S
Co742 O755 2.244 . S
O743 Co742 2.216 . S
O743 C750 1.247 . S
O744 Co742 2.091 . S
O744 C750 1.261 . S
C745 O754 1.247 . S
C745 O755 1.272 . S
O746 Co742 2.004 . S
O746 C751 1.259 . S
Co747 O748 2.061 . S
Co747 O753 2.052 . S
Co747 O755 2.135 . S
O748 Co747 2.061 . S
O748 C751 1.235 . S
C749 O752 1.238 . S
C749 O753 1.241 . S
C750 O743 1.247 . S
C750 O744 1.261 . S
C751 O746 1.259 . S
C751 O748 1.235 . S
O752 Co742 2.021 . S
O752 C749 1.238 . S
O753 Co747 2.052 . S
O753 C749 1.241 . S
O754 Co742 2.137 . S
O754 C745 1.247 . S
O755 Co742 2.244 . S
O755 C745 1.272 . S
O755 Co747 2.135 . S
Co756 O757 2.216 . S
Co756 O758 2.091 . S
Co756 O760 2.004 . S
Co756 O766 2.021 . S
Co756 O768 2.137 . S
Co756 O769 2.244 . S
O757 Co756 2.216 . S
O757 C764 1.247 . S
O758 Co756 2.091 . S
O758 C764 1.261 . S
C759 O768 1.247 . S
C759 O769 1.272 . S
O760 Co756 2.004 . S
O760 C765 1.259 1_655 S
Co761 O762 2.061 1_655 S
Co761 O767 2.052 . S
Co761 O769 2.135 . S
O762 Co761 2.061 1_455 S
O762 C765 1.235 . S
C763 O766 1.238 . S
C763 O767 1.241 . S
C764 O757 1.247 . S
C764 O758 1.261 . S
C765 O760 1.259 1_455 S
C765 O762 1.235 . S
O766 Co756 2.021 . S
O766 C763 1.238 . S
O767 Co761 2.052 . S
O767 C763 1.241 . S
O768 Co756 2.137 . S
O768 C759 1.247 . S
O769 Co756 2.244 . S
O769 C759 1.272 . S
O769 Co761 2.135 . S
Co770 O771 2.216 . S
Co770 O772 2.091 . S
Co770 O774 2.004 . S
Co770 O780 2.021 . S
Co770 O782 2.137 . S
Co770 O783 2.244 . S
O771 Co770 2.216 . S
O771 C778 1.247 . S
O772 Co770 2.091 . S
O772 C778 1.261 . S
C773 O782 1.247 . S
C773 O783 1.272 . S
O774 Co770 2.004 . S
O774 C779 1.259 . S
Co775 O776 2.061 . S
Co775 O781 2.052 . S
Co775 O783 2.135 . S
O776 Co775 2.061 . S
O776 C779 1.235 . S
C777 O780 1.238 . S
C777 O781 1.241 . S
C778 O771 1.247 . S
C778 O772 1.261 . S
C779 O774 1.259 . S
C779 O776 1.235 . S
O780 Co770 2.021 . S
O780 C777 1.238 . S
O781 Co775 2.052 . S
O781 C777 1.241 . S
O782 Co770 2.137 . S
O782 C773 1.247 . S
O783 Co770 2.244 . S
O783 C773 1.272 . S
O783 Co775 2.135 . S
Co784 O785 2.216 . S
Co784 O786 2.091 . S
Co784 O788 2.004 . S
Co784 O794 2.021 . S
Co784 O796 2.137 . S
Co784 O797 2.244 . S
O785 Co784 2.216 . S
O785 C792 1.247 . S
O786 Co784 2.091 . S
O786 C792 1.261 . S
C787 O796 1.247 . S
C787 O797 1.272 . S
O788 Co784 2.004 . S
O788 C793 1.259 . S
Co789 O790 2.061 . S
Co789 O795 2.052 . S
Co789 O797 2.135 . S
O790 Co789 2.061 . S
O790 C793 1.235 . S
C791 O794 1.238 . S
C791 O795 1.241 . S
C792 O785 1.247 . S
C792 O786 1.261 . S
C793 O788 1.259 . S
C793 O790 1.235 . S
O794 Co784 2.021 . S
O794 C791 1.238 . S
O795 Co789 2.052 . S
O795 C791 1.241 . S
O796 Co784 2.137 . S
O796 C787 1.247 . S
O797 Co784 2.244 . S
O797 C787 1.272 . S
O797 Co789 2.135 . S
Co798 O799 2.216 . S
Co798 O800 2.091 . S
Co798 O802 2.004 . S
Co798 O808 2.021 . S
Co798 O810 2.137 . S
Co798 O811 2.244 . S
O799 Co798 2.216 . S
O799 C806 1.247 . S
O800 Co798 2.091 . S
O800 C806 1.261 . S
C801 O810 1.247 . S
C801 O811 1.272 . S
O802 Co798 2.004 . S
O802 C807 1.259 . S
Co803 O804 2.061 . S
Co803 O809 2.052 . S
Co803 O811 2.135 . S
O804 Co803 2.061 . S
O804 C807 1.235 . S
C805 O808 1.238 . S
C805 O809 1.241 . S
C806 O799 1.247 . S
C806 O800 1.261 . S
C807 O802 1.259 . S
C807 O804 1.235 . S
O808 Co798 2.021 . S
O808 C805 1.238 . S
O809 Co803 2.052 . S
O809 C805 1.241 . S
O810 Co798 2.137 . S
O810 C801 1.247 . S
O811 Co798 2.244 . S
O811 C801 1.272 . S
O811 Co803 2.135 . S
Co812 O813 2.216 . S
Co812 O814 2.091 . S
Co812 O816 2.004 . S
Co812 O822 2.021 . S
Co812 O824 2.137 . S
Co812 O825 2.244 . S
O813 Co812 2.216 . S
O813 C820 1.247 . S
O814 Co812 2.091 . S
O814 C820 1.261 . S
C815 O824 1.247 . S
C815 O825 1.272 . S
O816 Co812 2.004 . S
O816 C821 1.259 . S
Co817 O818 2.061 . S
Co817 O823 2.052 . S
Co817 O825 2.135 . S
O818 Co817 2.061 . S
O818 C821 1.235 . S
C819 O822 1.238 . S
C819 O823 1.241 . S
C820 O813 1.247 . S
C820 O814 1.261 . S
C821 O816 1.259 . S
C821 O818 1.235 . S
O822 Co812 2.021 . S
O822 C819 1.238 . S
O823 Co817 2.052 . S
O823 C819 1.241 . S
O824 Co812 2.137 . S
O824 C815 1.247 . S
O825 Co812 2.244 . S
O825 C815 1.272 . S
O825 Co817 2.135 . S
Co826 O827 2.216 . S
Co826 O828 2.091 . S
Co826 O830 2.004 . S
Co826 O836 2.021 . S
Co826 O838 2.137 . S
Co826 O839 2.244 . S
O827 Co826 2.216 . S
O827 C834 1.247 . S
O828 Co826 2.091 . S
O828 C834 1.261 . S
C829 O838 1.247 . S
C829 O839 1.272 . S
O830 Co826 2.004 . S
O830 C835 1.259 . S
Co831 O832 2.061 . S
Co831 O837 2.052 . S
Co831 O839 2.135 . S
O832 Co831 2.061 . S
O832 C835 1.235 . S
C833 O836 1.238 . S
C833 O837 1.241 . S
C834 O827 1.247 . S
C834 O828 1.261 . S
C835 O830 1.259 . S
C835 O832 1.235 . S
O836 Co826 2.021 . S
O836 C833 1.238 . S
O837 Co831 2.052 . S
O837 C833 1.241 . S
O838 Co826 2.137 . S
O838 C829 1.247 . S
O839 Co826 2.244 . S
O839 C829 1.272 . S
O839 Co831 2.135 . S
Co840 O841 2.216 . S
Co840 O842 2.091 . S
Co840 O844 2.004 . S
Co840 O850 2.021 . S
Co840 O852 2.137 . S
Co840 O853 2.244 . S
O841 Co840 2.216 . S
O841 C848 1.247 . S
O842 Co840 2.091 . S
O842 C848 1.261 . S
C843 O852 1.247 . S
C843 O853 1.272 . S
O844 Co840 2.004 . S
O844 C849 1.259 . S
Co845 O846 2.061 . S
Co845 O851 2.052 . S
Co845 O853 2.135 . S
O846 Co845 2.061 . S
O846 C849 1.235 . S
C847 O850 1.238 . S
C847 O851 1.241 . S
C848 O841 1.247 . S
C848 O842 1.261 . S
C849 O844 1.259 . S
C849 O846 1.235 . S
O850 Co840 2.021 . S
O850 C847 1.238 . S
O851 Co845 2.052 . S
O851 C847 1.241 . S
O852 Co840 2.137 . S
O852 C843 1.247 . S
O853 Co840 2.244 . S
O853 C843 1.272 . S
O853 Co845 2.135 . S
Co854 O855 2.216 . S
Co854 O856 2.091 . S
Co854 O858 2.004 . S
Co854 O864 2.021 . S
Co854 O866 2.137 . S
Co854 O867 2.244 . S
O855 Co854 2.216 . S
O855 C862 1.247 . S
O856 Co854 2.091 . S
O856 C862 1.261 . S
C857 O866 1.247 . S
C857 O867 1.272 . S
O858 Co854 2.004 . S
O858 C863 1.259 . S
Co859 O860 2.061 . S
Co859 O865 2.052 . S
Co859 O867 2.135 . S
O860 Co859 2.061 . S
O860 C863 1.235 . S
C861 O864 1.238 . S
C861 O865 1.241 . S
C862 O855 1.247 . S
C862 O856 1.261 . S
C863 O858 1.259 . S
C863 O860 1.235 . S
O864 Co854 2.021 . S
O864 C861 1.238 . S
O865 Co859 2.052 . S
O865 C861 1.241 . S
O866 Co854 2.137 . S
O866 C857 1.247 . S
O867 Co854 2.244 . S
O867 C857 1.272 . S
O867 Co859 2.135 . S
Co868 O869 2.216 . S
Co868 O870 2.091 . S
Co868 O872 2.004 . S
Co868 O878 2.021 . S
Co868 O880 2.137 . S
Co868 O881 2.244 . S
O869 Co868 2.216 . S
O869 C876 1.247 . S
O870 Co868 2.091 . S
O870 C876 1.261 . S
C871 O880 1.247 . S
C871 O881 1.272 . S
O872 Co868 2.004 . S
O872 C877 1.259 . S
Co873 O874 2.061 . S
Co873 O879 2.052 . S
Co873 O881 2.135 . S
O874 Co873 2.061 . S
O874 C877 1.235 . S
C875 O878 1.238 . S
C875 O879 1.241 . S
C876 O869 1.247 . S
C876 O870 1.261 . S
C877 O872 1.259 . S
C877 O874 1.235 . S
O878 Co868 2.021 . S
O878 C875 1.238 . S
O879 Co873 2.052 . S
O879 C875 1.241 . S
O880 Co868 2.137 . S
O880 C871 1.247 . S
O881 Co868 2.244 . S
O881 C871 1.272 . S
O881 Co873 2.135 . S
Co882 O883 2.216 . S
Co882 O884 2.091 . S
Co882 O886 2.004 . S
Co882 O892 2.021 . S
Co882 O894 2.137 . S
Co882 O895 2.244 . S
O883 Co882 2.216 . S
O883 C890 1.247 . S
O884 Co882 2.091 . S
O884 C890 1.261 . S
C885 O894 1.247 . S
C885 O895 1.272 . S
O886 Co882 2.004 . S
O886 C891 1.259 . S
Co887 O888 2.061 . S
Co887 O893 2.052 . S
Co887 O895 2.135 . S
O888 Co887 2.061 . S
O888 C891 1.235 . S
C889 O892 1.238 . S
C889 O893 1.241 . S
C890 O883 1.247 . S
C890 O884 1.261 . S
C891 O886 1.259 . S
C891 O888 1.235 . S
O892 Co882 2.021 . S
O892 C889 1.238 . S
O893 Co887 2.052 . S
O893 C889 1.241 . S
O894 Co882 2.137 . S
O894 C885 1.247 . S
O895 Co882 2.244 . S
O895 C885 1.272 . S
O895 Co887 2.135 . S
Co896 O897 2.216 . S
Co896 O898 2.091 . S
Co896 O900 2.004 . S
Co896 O906 2.021 . S
Co896 O908 2.137 . S
Co896 O909 2.244 . S
O897 Co896 2.216 . S
O897 C904 1.247 . S
O898 Co896 2.091 . S
O898 C904 1.261 . S
C899 O908 1.247 . S
C899 O909 1.272 . S
O900 Co896 2.004 . S
O900 C905 1.259 . S
Co901 O902 2.061 . S
Co901 O907 2.052 . S
Co901 O909 2.135 . S
O902 Co901 2.061 . S
O902 C905 1.235 . S
C903 O906 1.238 . S
C903 O907 1.241 . S
C904 O897 1.247 . S
C904 O898 1.261 . S
C905 O900 1.259 . S
C905 O902 1.235 . S
O906 Co896 2.021 . S
O906 C903 1.238 . S
O907 Co901 2.052 . S
O907 C903 1.241 . S
O908 Co896 2.137 . S
O908 C899 1.247 . S
O909 Co896 2.244 . S
O909 C899 1.272 . S
O909 Co901 2.135 . S
Co910 O911 2.216 . S
Co910 O912 2.091 . S
Co910 O914 2.004 . S
Co910 O920 2.021 . S
Co910 O922 2.137 . S
Co910 O923 2.244 . S
O911 Co910 2.216 . S
O911 C918 1.247 . S
O912 Co910 2.091 . S
O912 C918 1.261 . S
C913 O922 1.247 . S
C913 O923 1.272 . S
O914 Co910 2.004 . S
O914 C919 1.259 . S
Co915 O916 2.061 . S
Co915 O921 2.052 . S
Co915 O923 2.135 . S
O916 Co915 2.061 . S
O916 C919 1.235 . S
C917 O920 1.238 . S
C917 O921 1.241 . S
C918 O911 1.247 . S
C918 O912 1.261 . S
C919 O914 1.259 . S
C919 O916 1.235 . S
O920 Co910 2.021 . S
O920 C917 1.238 . S
O921 Co915 2.052 . S
O921 C917 1.241 . S
O922 Co910 2.137 . S
O922 C913 1.247 . S
O923 Co910 2.244 . S
O923 C913 1.272 . S
O923 Co915 2.135 . S
Co924 O925 2.216 . S
Co924 O926 2.091 . S
Co924 O928 2.004 . S
Co924 O934 2.021 . S
Co924 O936 2.137 . S
Co924 O937 2.244 . S
O925 Co924 2.216 . S
O925 C932 1.247 . S
O926 Co924 2.091 . S
O926 C932 1.261 . S
C927 O936 1.247 . S
C927 O937 1.272 . S
O928 Co924 2.004 . S
O928 C933 1.259 . S
Co929 O930 2.061 . S
Co929 O935 2.052 . S
Co929 O937 2.135 . S
O930 Co929 2.061 . S
O930 C933 1.235 . S
C931 O934 1.238 . S
C931 O935 1.241 . S
C932 O925 1.247 . S
C932 O926 1.261 . S
C933 O928 1.259 . S
C933 O930 1.235 . S
O934 Co924 2.021 . S
O934 C931 1.238 . S
O935 Co929 2.052 . S
O935 C931 1.241 . S
O936 Co924 2.137 . S
O936 C927 1.247 . S
O937 Co924 2.244 . S
O937 C927 1.272 . S
O937 Co929 2.135 . S
Co938 O939 2.216 . S
Co938 O940 2.091 . S
Co938 O942 2.004 . S
Co938 O948 2.021 . S
Co938 O950 2.137 . S
Co938 O951 2.244 . S
O939 Co938 2.216 . S
O939 C946 1.247 . S
O940 Co938 2.091 . S
O940 C946 1.261 . S
C941 O950 1.247 . S
C941 O951 1.272 . S
O942 Co938 2.004 . S
O942 C947 1.259 . S
Co943 O944 2.061 . S
Co943 O949 2.052 . S
Co943 O951 2.135 . S
O944 Co943 2.061 . S
O944 C947 1.235 . S
C945 O948 1.238 1_554 S
C945 O949 1.241 1_554 S
C946 O939 1.247 . S
C946 O940 1.261 . S
C947 O942 1.259 . S
C947 O944 1.235 . S
O948 Co938 2.021 . S
O948 C945 1.238 1_556 S
O949 Co943 2.052 . S
O949 C945 1.241 1_556 S
O950 Co938 2.137 . S
O950 C941 1.247 . S
O951 Co938 2.244 . S
O951 C941 1.272 . S
O951 Co943 2.135 . S
Co952 O953 2.216 . S
Co952 O954 2.091 . S
Co952 O956 2.004 . S
Co952 O962 2.021 . S
Co952 O964 2.137 . S
Co952 O965 2.244 . S
O953 Co952 2.216 . S
O953 C960 1.247 . S
O954 Co952 2.091 . S
O954 C960 1.261 . S
C955 O964 1.247 . S
C955 O965 1.272 . S
O956 Co952 2.004 . S
O956 C961 1.259 . S
Co957 O958 2.061 . S
Co957 O963 2.052 . S
Co957 O965 2.135 . S
O958 Co957 2.061 . S
O958 C961 1.235 . S
C959 O962 1.238 . S
C959 O963 1.241 . S
C960 O953 1.247 . S
C960 O954 1.261 . S
C961 O956 1.259 . S
C961 O958 1.235 . S
O962 Co952 2.021 . S
O962 C959 1.238 . S
O963 Co957 2.052 . S
O963 C959 1.241 . S
O964 Co952 2.137 . S
O964 C955 1.247 . S
O965 Co952 2.244 . S
O965 C955 1.272 . S
O965 Co957 2.135 . S
Co966 O967 2.216 . S
Co966 O968 2.091 . S
Co966 O970 2.004 . S
Co966 O976 2.021 . S
Co966 O978 2.137 . S
Co966 O979 2.244 . S
O967 Co966 2.216 . S
O967 C974 1.247 . S
O968 Co966 2.091 . S
O968 C974 1.261 . S
C969 O978 1.247 . S
C969 O979 1.272 . S
O970 Co966 2.004 . S
O970 C975 1.259 . S
Co971 O972 2.061 . S
Co971 O977 2.052 . S
Co971 O979 2.135 . S
O972 Co971 2.061 . S
O972 C975 1.235 . S
C973 O976 1.238 1_556 S
C973 O977 1.241 1_556 S
C974 O967 1.247 . S
C974 O968 1.261 . S
C975 O970 1.259 . S
C975 O972 1.235 . S
O976 Co966 2.021 . S
O976 C973 1.238 1_554 S
O977 Co971 2.052 . S
O977 C973 1.241 1_554 S
O978 Co966 2.137 . S
O978 C969 1.247 . S
O979 Co966 2.244 . S
O979 C969 1.272 . S
O979 Co971 2.135 . S
Co980 O981 2.216 . S
Co980 O982 2.091 . S
Co980 O984 2.004 . S
Co980 O990 2.021 . S
Co980 O992 2.137 . S
Co980 O993 2.244 . S
O981 Co980 2.216 . S
O981 C988 1.247 . S
O982 Co980 2.091 . S
O982 C988 1.261 . S
C983 O992 1.247 . S
C983 O993 1.272 . S
O984 Co980 2.004 . S
O984 C989 1.259 . S
Co985 O986 2.061 . S
Co985 O991 2.052 . S
Co985 O993 2.135 . S
O986 Co985 2.061 . S
O986 C989 1.235 . S
C987 O990 1.238 . S
C987 O991 1.241 . S
C988 O981 1.247 . S
C988 O982 1.261 . S
C989 O984 1.259 . S
C989 O986 1.235 . S
O990 Co980 2.021 . S
O990 C987 1.238 . S
O991 Co985 2.052 . S
O991 C987 1.241 . S
O992 Co980 2.137 . S
O992 C983 1.247 . S
O993 Co980 2.244 . S
O993 C983 1.272 . S
O993 Co985 2.135 . S
Co994 O995 2.216 . S
Co994 O996 2.091 . S
Co994 O998 2.004 . S
Co994 O1004 2.021 . S
Co994 O1006 2.137 . S
Co994 O1007 2.244 . S
O995 Co994 2.216 . S
O995 C1002 1.247 . S
O996 Co994 2.091 . S
O996 C1002 1.261 . S
C997 O1006 1.247 . S
C997 O1007 1.272 . S
O998 Co994 2.004 . S
O998 C1003 1.259 . S
Co999 O1000 2.061 . S
Co999 O1005 2.052 . S
Co999 O1007 2.135 . S
O1000 Co999 2.061 . S
O1000 C1003 1.235 . S
C1001 O1004 1.238 . S
C1001 O1005 1.241 . S
C1002 O995 1.247 . S
C1002 O996 1.261 . S
C1003 O998 1.259 . S
C1003 O1000 1.235 . S
O1004 Co994 2.021 . S
O1004 C1001 1.238 . S
O1005 Co999 2.052 . S
O1005 C1001 1.241 . S
O1006 Co994 2.137 . S
O1006 C997 1.247 . S
O1007 Co994 2.244 . S
O1007 C997 1.272 . S
O1007 Co999 2.135 . S
Co1008 O1009 2.216 . S
Co1008 O1010 2.091 . S
Co1008 O1012 2.004 . S
Co1008 O1018 2.021 . S
Co1008 O1020 2.137 . S
Co1008 O1021 2.244 . S
O1009 Co1008 2.216 . S
O1009 C1016 1.247 . S
O1010 Co1008 2.091 . S
O1010 C1016 1.261 . S
C1011 O1020 1.247 . S
C1011 O1021 1.272 . S
O1012 Co1008 2.004 . S
O1012 C1017 1.259 . S
Co1013 O1014 2.061 . S
Co1013 O1019 2.052 . S
Co1013 O1021 2.135 . S
O1014 Co1013 2.061 . S
O1014 C1017 1.235 . S
C1015 O1018 1.238 . S
C1015 O1019 1.241 . S
C1016 O1009 1.247 . S
C1016 O1010 1.261 . S
C1017 O1012 1.259 . S
C1017 O1014 1.235 . S
O1018 Co1008 2.021 . S
O1018 C1015 1.238 . S
O1019 Co1013 2.052 . S
O1019 C1015 1.241 . S
O1020 Co1008 2.137 . S
O1020 C1011 1.247 . S
O1021 Co1008 2.244 . S
O1021 C1011 1.272 . S
O1021 Co1013 2.135 . S
Co1022 O1023 2.216 . S
Co1022 O1024 2.091 . S
Co1022 O1026 2.004 . S
Co1022 O1032 2.021 . S
Co1022 O1034 2.137 . S
Co1022 O1035 2.244 . S
O1023 Co1022 2.216 . S
O1023 C1030 1.247 . S
O1024 Co1022 2.091 . S
O1024 C1030 1.261 . S
C1025 O1034 1.247 . S
C1025 O1035 1.272 . S
O1026 Co1022 2.004 . S
O1026 C1031 1.259 . S
Co1027 O1028 2.061 . S
Co1027 O1033 2.052 . S
Co1027 O1035 2.135 . S
O1028 Co1027 2.061 . S
O1028 C1031 1.235 . S
C1029 O1032 1.238 . S
C1029 O1033 1.241 . S
C1030 O1023 1.247 . S
C1030 O1024 1.261 . S
C1031 O1026 1.259 . S
C1031 O1028 1.235 . S
O1032 Co1022 2.021 . S
O1032 C1029 1.238 . S
O1033 Co1027 2.052 . S
O1033 C1029 1.241 . S
O1034 Co1022 2.137 . S
O1034 C1025 1.247 . S
O1035 Co1022 2.244 . S
O1035 C1025 1.272 . S
O1035 Co1027 2.135 . S
Co1036 O1037 2.216 . S
Co1036 O1038 2.091 . S
Co1036 O1040 2.004 . S
Co1036 O1046 2.021 . S
Co1036 O1048 2.137 . S
Co1036 O1049 2.244 . S
O1037 Co1036 2.216 . S
O1037 C1044 1.247 . S
O1038 Co1036 2.091 . S
O1038 C1044 1.261 . S
C1039 O1048 1.247 . S
C1039 O1049 1.272 . S
O1040 Co1036 2.004 . S
O1040 C1045 1.259 . S
Co1041 O1042 2.061 . S
Co1041 O1047 2.052 . S
Co1041 O1049 2.135 . S
O1042 Co1041 2.061 . S
O1042 C1045 1.235 . S
C1043 O1046 1.238 1_655 S
C1043 O1047 1.241 1_655 S
C1044 O1037 1.247 . S
C1044 O1038 1.261 . S
C1045 O1040 1.259 . S
C1045 O1042 1.235 . S
O1046 Co1036 2.021 . S
O1046 C1043 1.238 1_455 S
O1047 Co1041 2.052 . S
O1047 C1043 1.241 1_455 S
O1048 Co1036 2.137 . S
O1048 C1039 1.247 . S
O1049 Co1036 2.244 . S
O1049 C1039 1.272 . S
O1049 Co1041 2.135 . S
Co1050 O1051 2.216 . S
Co1050 O1052 2.091 . S
Co1050 O1054 2.004 . S
Co1050 O1060 2.021 . S
Co1050 O1062 2.137 . S
Co1050 O1063 2.244 . S
O1051 Co1050 2.216 . S
O1051 C1058 1.247 . S
O1052 Co1050 2.091 . S
O1052 C1058 1.261 . S
C1053 O1062 1.247 . S
C1053 O1063 1.272 . S
O1054 Co1050 2.004 . S
O1054 C1059 1.259 . S
Co1055 O1056 2.061 . S
Co1055 O1061 2.052 . S
Co1055 O1063 2.135 . S
O1056 Co1055 2.061 . S
O1056 C1059 1.235 . S
C1057 O1060 1.238 . S
C1057 O1061 1.241 . S
C1058 O1051 1.247 . S
C1058 O1052 1.261 . S
C1059 O1054 1.259 . S
C1059 O1056 1.235 . S
O1060 Co1050 2.021 . S
O1060 C1057 1.238 . S
O1061 Co1055 2.052 . S
O1061 C1057 1.241 . S
O1062 Co1050 2.137 . S
O1062 C1053 1.247 . S
O1063 Co1050 2.244 . S
O1063 C1053 1.272 . S
O1063 Co1055 2.135 . S
Co1064 O1065 2.216 . S
Co1064 O1066 2.091 . S
Co1064 O1068 2.004 . S
Co1064 O1074 2.021 . S
Co1064 O1076 2.137 . S
Co1064 O1077 2.244 . S
O1065 Co1064 2.216 . S
O1065 C1072 1.247 . S
O1066 Co1064 2.091 . S
O1066 C1072 1.261 . S
C1067 O1076 1.247 . S
C1067 O1077 1.272 . S
O1068 Co1064 2.004 . S
O1068 C1073 1.259 . S
Co1069 O1070 2.061 . S
Co1069 O1075 2.052 . S
Co1069 O1077 2.135 . S
O1070 Co1069 2.061 . S
O1070 C1073 1.235 . S
C1071 O1074 1.238 . S
C1071 O1075 1.241 . S
C1072 O1065 1.247 . S
C1072 O1066 1.261 . S
C1073 O1068 1.259 . S
C1073 O1070 1.235 . S
O1074 Co1064 2.021 . S
O1074 C1071 1.238 . S
O1075 Co1069 2.052 . S
O1075 C1071 1.241 . S
O1076 Co1064 2.137 . S
O1076 C1067 1.247 . S
O1077 Co1064 2.244 . S
O1077 C1067 1.272 . S
O1077 Co1069 2.135 . S
Co1078 O1079 2.216 . S
Co1078 O1080 2.091 . S
Co1078 O1082 2.004 . S
Co1078 O1088 2.021 . S
Co1078 O1090 2.137 . S
Co1078 O1091 2.244 . S
O1079 Co1078 2.216 . S
O1079 C1086 1.247 . S
O1080 Co1078 2.091 . S
O1080 C1086 1.261 . S
C1081 O1090 1.247 . S
C1081 O1091 1.272 . S
O1082 Co1078 2.004 . S
O1082 C1087 1.259 . S
Co1083 O1084 2.061 . S
Co1083 O1089 2.052 . S
Co1083 O1091 2.135 . S
O1084 Co1083 2.061 . S
O1084 C1087 1.235 . S
C1085 O1088 1.238 . S
C1085 O1089 1.241 . S
C1086 O1079 1.247 . S
C1086 O1080 1.261 . S
C1087 O1082 1.259 . S
C1087 O1084 1.235 . S
O1088 Co1078 2.021 . S
O1088 C1085 1.238 . S
O1089 Co1083 2.052 . S
O1089 C1085 1.241 . S
O1090 Co1078 2.137 . S
O1090 C1081 1.247 . S
O1091 Co1078 2.244 . S
O1091 C1081 1.272 . S
O1091 Co1083 2.135 . S
Co1092 O1093 2.216 . S
Co1092 O1094 2.091 . S
Co1092 O1096 2.004 . S
Co1092 O1102 2.021 . S
Co1092 O1104 2.137 . S
Co1092 O1105 2.244 . S
O1093 Co1092 2.216 . S
O1093 C1100 1.247 . S
O1094 Co1092 2.091 . S
O1094 C1100 1.261 . S
C1095 O1104 1.247 . S
C1095 O1105 1.272 . S
O1096 Co1092 2.004 . S
O1096 C1101 1.259 . S
Co1097 O1098 2.061 . S
Co1097 O1103 2.052 . S
Co1097 O1105 2.135 . S
O1098 Co1097 2.061 . S
O1098 C1101 1.235 . S
C1099 O1102 1.238 1_655 S
C1099 O1103 1.241 1_655 S
C1100 O1093 1.247 . S
C1100 O1094 1.261 . S
C1101 O1096 1.259 . S
C1101 O1098 1.235 . S
O1102 Co1092 2.021 . S
O1102 C1099 1.238 1_455 S
O1103 Co1097 2.052 . S
O1103 C1099 1.241 1_455 S
O1104 Co1092 2.137 . S
O1104 C1095 1.247 . S
O1105 Co1092 2.244 . S
O1105 C1095 1.272 . S
O1105 Co1097 2.135 . S
Co1106 O1107 2.216 . S
Co1106 O1108 2.091 . S
Co1106 O1110 2.004 . S
Co1106 O1116 2.021 . S
Co1106 O1118 2.137 . S
Co1106 O1119 2.244 . S
O1107 Co1106 2.216 . S
O1107 C1114 1.247 . S
O1108 Co1106 2.091 . S
O1108 C1114 1.261 . S
C1109 O1118 1.247 . S
C1109 O1119 1.272 . S
O1110 Co1106 2.004 . S
O1110 C1115 1.259 . S
Co1111 O1112 2.061 . S
Co1111 O1117 2.052 . S
Co1111 O1119 2.135 . S
O1112 Co1111 2.061 . S
O1112 C1115 1.235 . S
C1113 O1116 1.238 . S
C1113 O1117 1.241 . S
C1114 O1107 1.247 . S
C1114 O1108 1.261 . S
C1115 O1110 1.259 . S
C1115 O1112 1.235 . S
O1116 Co1106 2.021 . S
O1116 C1113 1.238 . S
O1117 Co1111 2.052 . S
O1117 C1113 1.241 . S
O1118 Co1106 2.137 . S
O1118 C1109 1.247 . S
O1119 Co1106 2.244 . S
O1119 C1109 1.272 . S
O1119 Co1111 2.135 . S
Co1120 O1121 2.216 . S
Co1120 O1122 2.091 . S
Co1120 O1124 2.004 . S
Co1120 O1130 2.021 . S
Co1120 O1132 2.137 . S
Co1120 O1133 2.244 . S
O1121 Co1120 2.216 . S
O1121 C1128 1.247 . S
O1122 Co1120 2.091 . S
O1122 C1128 1.261 . S
C1123 O1132 1.247 . S
C1123 O1133 1.272 . S
O1124 Co1120 2.004 . S
O1124 C1129 1.259 . S
Co1125 O1126 2.061 . S
Co1125 O1131 2.052 . S
Co1125 O1133 2.135 . S
O1126 Co1125 2.061 . S
O1126 C1129 1.235 . S
C1127 O1130 1.238 . S
C1127 O1131 1.241 . S
C1128 O1121 1.247 . S
C1128 O1122 1.261 . S
C1129 O1124 1.259 . S
C1129 O1126 1.235 . S
O1130 Co1120 2.021 . S
O1130 C1127 1.238 . S
O1131 Co1125 2.052 . S
O1131 C1127 1.241 . S
O1132 Co1120 2.137 . S
O1132 C1123 1.247 . S
O1133 Co1120 2.244 . S
O1133 C1123 1.272 . S
O1133 Co1125 2.135 . S
Co1134 O1135 2.216 . S
Co1134 O1136 2.091 . S
Co1134 O1138 2.004 . S
Co1134 O1144 2.021 . S
Co1134 O1146 2.137 . S
Co1134 O1147 2.244 . S
O1135 Co1134 2.216 . S
O1135 C1142 1.247 . S
O1136 Co1134 2.091 . S
O1136 C1142 1.261 . S
C1137 O1146 1.247 . S
C1137 O1147 1.272 . S
O1138 Co1134 2.004 . S
O1138 C1143 1.259 . S
Co1139 O1140 2.061 . S
Co1139 O1145 2.052 . S
Co1139 O1147 2.135 . S
O1140 Co1139 2.061 . S
O1140 C1143 1.235 . S
C1141 O1144 1.238 . S
C1141 O1145 1.241 . S
C1142 O1135 1.247 . S
C1142 O1136 1.261 . S
C1143 O1138 1.259 . S
C1143 O1140 1.235 . S
O1144 Co1134 2.021 . S
O1144 C1141 1.238 . S
O1145 Co1139 2.052 . S
O1145 C1141 1.241 . S
O1146 Co1134 2.137 . S
O1146 C1137 1.247 . S
O1147 Co1134 2.244 . S
O1147 C1137 1.272 . S
O1147 Co1139 2.135 . S
Co1148 O1149 2.216 . S
Co1148 O1150 2.091 . S
Co1148 O1152 2.004 . S
Co1148 O1158 2.021 . S
Co1148 O1160 2.137 . S
Co1148 O1161 2.244 . S
O1149 Co1148 2.216 . S
O1149 C1156 1.247 . S
O1150 Co1148 2.091 . S
O1150 C1156 1.261 . S
C1151 O1160 1.247 . S
C1151 O1161 1.272 . S
O1152 Co1148 2.004 . S
O1152 C1157 1.259 . S
Co1153 O1154 2.061 . S
Co1153 O1159 2.052 . S
Co1153 O1161 2.135 . S
O1154 Co1153 2.061 . S
O1154 C1157 1.235 . S
C1155 O1158 1.238 . S
C1155 O1159 1.241 . S
C1156 O1149 1.247 . S
C1156 O1150 1.261 . S
C1157 O1152 1.259 . S
C1157 O1154 1.235 . S
O1158 Co1148 2.021 . S
O1158 C1155 1.238 . S
O1159 Co1153 2.052 . S
O1159 C1155 1.241 . S
O1160 Co1148 2.137 . S
O1160 C1151 1.247 . S
O1161 Co1148 2.244 . S
O1161 C1151 1.272 . S
O1161 Co1153 2.135 . S
Co1162 O1163 2.216 . S
Co1162 O1164 2.091 . S
Co1162 O1166 2.004 . S
Co1162 O1172 2.021 . S
Co1162 O1174 2.137 . S
Co1162 O1175 2.244 . S
O1163 Co1162 2.216 . S
O1163 C1170 1.247 . S
O1164 Co1162 2.091 . S
O1164 C1170 1.261 . S
C1165 O1174 1.247 . S
C1165 O1175 1.272 . S
O1166 Co1162 2.004 . S
O1166 C1171 1.259 . S
Co1167 O1168 2.061 . S
Co1167 O1173 2.052 . S
Co1167 O1175 2.135 . S
O1168 Co1167 2.061 . S
O1168 C1171 1.235 . S
C1169 O1172 1.238 . S
C1169 O1173 1.241 . S
C1170 O1163 1.247 . S
C1170 O1164 1.261 . S
C1171 O1166 1.259 . S
C1171 O1168 1.235 . S
O1172 Co1162 2.021 . S
O1172 C1169 1.238 . S
O1173 Co1167 2.052 . S
O1173 C1169 1.241 . S
O1174 Co1162 2.137 . S
O1174 C1165 1.247 . S
O1175 Co1162 2.244 . S
O1175 C1165 1.272 . S
O1175 Co1167 2.135 . S
Co1176 O1177 2.216 . S
Co1176 O1178 2.091 . S
Co1176 O1180 2.004 . S
Co1176 O1186 2.021 . S
Co1176 O1188 2.137 . S
Co1176 O1189 2.244 . S
O1177 Co1176 2.216 . S
O1177 C1184 1.247 . S
O1178 Co1176 2.091 . S
O1178 C1184 1.261 . S
C1179 O1188 1.247 . S
C1179 O1189 1.272 . S
O1180 Co1176 2.004 . S
O1180 C1185 1.259 . S
Co1181 O1182 2.061 . S
Co1181 O1187 2.052 . S
Co1181 O1189 2.135 . S
O1182 Co1181 2.061 . S
O1182 C1185 1.235 . S
C1183 O1186 1.238 . S
C1183 O1187 1.241 . S
C1184 O1177 1.247 . S
C1184 O1178 1.261 . S
C1185 O1180 1.259 . S
C1185 O1182 1.235 . S
O1186 Co1176 2.021 . S
O1186 C1183 1.238 . S
O1187 Co1181 2.052 . S
O1187 C1183 1.241 . S
O1188 Co1176 2.137 . S
O1188 C1179 1.247 . S
O1189 Co1176 2.244 . S
O1189 C1179 1.272 . S
O1189 Co1181 2.135 . S
Co1190 O1191 2.216 . S
Co1190 O1192 2.091 . S
Co1190 O1194 2.004 . S
Co1190 O1200 2.021 . S
Co1190 O1202 2.137 . S
Co1190 O1203 2.244 . S
O1191 Co1190 2.216 . S
O1191 C1198 1.247 . S
O1192 Co1190 2.091 . S
O1192 C1198 1.261 . S
C1193 O1202 1.247 . S
C1193 O1203 1.272 . S
O1194 Co1190 2.004 . S
O1194 C1199 1.259 . S
Co1195 O1196 2.061 . S
Co1195 O1201 2.052 . S
Co1195 O1203 2.135 . S
O1196 Co1195 2.061 . S
O1196 C1199 1.235 . S
C1197 O1200 1.238 . S
C1197 O1201 1.241 . S
C1198 O1191 1.247 . S
C1198 O1192 1.261 . S
C1199 O1194 1.259 . S
C1199 O1196 1.235 . S
O1200 Co1190 2.021 . S
O1200 C1197 1.238 . S
O1201 Co1195 2.052 . S
O1201 C1197 1.241 . S
O1202 Co1190 2.137 . S
O1202 C1193 1.247 . S
O1203 Co1190 2.244 . S
O1203 C1193 1.272 . S
O1203 Co1195 2.135 . S
Co1204 O1205 2.216 . S
Co1204 O1206 2.091 . S
Co1204 O1208 2.004 . S
Co1204 O1214 2.021 . S
Co1204 O1216 2.137 . S
Co1204 O1217 2.244 . S
O1205 Co1204 2.216 . S
O1205 C1212 1.247 . S
O1206 Co1204 2.091 . S
O1206 C1212 1.261 . S
C1207 O1216 1.247 . S
C1207 O1217 1.272 . S
O1208 Co1204 2.004 . S
O1208 C1213 1.259 . S
Co1209 O1210 2.061 . S
Co1209 O1215 2.052 . S
Co1209 O1217 2.135 . S
O1210 Co1209 2.061 . S
O1210 C1213 1.235 . S
C1211 O1214 1.238 . S
C1211 O1215 1.241 . S
C1212 O1205 1.247 . S
C1212 O1206 1.261 . S
C1213 O1208 1.259 . S
C1213 O1210 1.235 . S
O1214 Co1204 2.021 . S
O1214 C1211 1.238 . S
O1215 Co1209 2.052 . S
O1215 C1211 1.241 . S
O1216 Co1204 2.137 . S
O1216 C1207 1.247 . S
O1217 Co1204 2.244 . S
O1217 C1207 1.272 . S
O1217 Co1209 2.135 . S
Co1218 O1219 2.216 . S
Co1218 O1220 2.091 . S
Co1218 O1222 2.004 . S
Co1218 O1228 2.021 . S
Co1218 O1230 2.137 . S
Co1218 O1231 2.244 . S
O1219 Co1218 2.216 . S
O1219 C1226 1.247 . S
O1220 Co1218 2.091 . S
O1220 C1226 1.261 . S
C1221 O1230 1.247 . S
C1221 O1231 1.272 . S
O1222 Co1218 2.004 . S
O1222 C1227 1.259 . S
Co1223 O1224 2.061 . S
Co1223 O1229 2.052 . S
Co1223 O1231 2.135 . S
O1224 Co1223 2.061 . S
O1224 C1227 1.235 . S
C1225 O1228 1.238 . S
C1225 O1229 1.241 . S
C1226 O1219 1.247 . S
C1226 O1220 1.261 . S
C1227 O1222 1.259 . S
C1227 O1224 1.235 . S
O1228 Co1218 2.021 . S
O1228 C1225 1.238 . S
O1229 Co1223 2.052 . S
O1229 C1225 1.241 . S
O1230 Co1218 2.137 . S
O1230 C1221 1.247 . S
O1231 Co1218 2.244 . S
O1231 C1221 1.272 . S
O1231 Co1223 2.135 . S
Co1232 O1233 2.216 . S
Co1232 O1234 2.091 . S
Co1232 O1236 2.004 . S
Co1232 O1242 2.021 . S
Co1232 O1244 2.137 . S
Co1232 O1245 2.244 . S
O1233 Co1232 2.216 . S
O1233 C1240 1.247 . S
O1234 Co1232 2.091 . S
O1234 C1240 1.261 . S
C1235 O1244 1.247 . S
C1235 O1245 1.272 . S
O1236 Co1232 2.004 . S
O1236 C1241 1.259 . S
Co1237 O1238 2.061 . S
Co1237 O1243 2.052 . S
Co1237 O1245 2.135 . S
O1238 Co1237 2.061 . S
O1238 C1241 1.235 . S
C1239 O1242 1.238 . S
C1239 O1243 1.241 . S
C1240 O1233 1.247 . S
C1240 O1234 1.261 . S
C1241 O1236 1.259 . S
C1241 O1238 1.235 . S
O1242 Co1232 2.021 . S
O1242 C1239 1.238 . S
O1243 Co1237 2.052 . S
O1243 C1239 1.241 . S
O1244 Co1232 2.137 . S
O1244 C1235 1.247 . S
O1245 Co1232 2.244 . S
O1245 C1235 1.272 . S
O1245 Co1237 2.135 . S
Co1246 O1247 2.216 . S
Co1246 O1248 2.091 . S
Co1246 O1250 2.004 . S
Co1246 O1256 2.021 . S
Co1246 O1258 2.137 . S
Co1246 O1259 2.244 . S
O1247 Co1246 2.216 . S
O1247 C1254 1.247 . S
O1248 Co1246 2.091 . S
O1248 C1254 1.261 . S
C1249 O1258 1.247 . S
C1249 O1259 1.272 . S
O1250 Co1246 2.004 . S
O1250 C1255 1.259 . S
Co1251 O1252 2.061 . S
Co1251 O1257 2.052 . S
Co1251 O1259 2.135 . S
O1252 Co1251 2.061 . S
O1252 C1255 1.235 . S
C1253 O1256 1.238 . S
C1253 O1257 1.241 . S
C1254 O1247 1.247 . S
C1254 O1248 1.261 . S
C1255 O1250 1.259 . S
C1255 O1252 1.235 . S
O1256 Co1246 2.021 . S
O1256 C1253 1.238 . S
O1257 Co1251 2.052 . S
O1257 C1253 1.241 . S
O1258 Co1246 2.137 . S
O1258 C1249 1.247 . S
O1259 Co1246 2.244 . S
O1259 C1249 1.272 . S
O1259 Co1251 2.135 . S
Co1260 O1261 2.216 . S
Co1260 O1262 2.091 . S
Co1260 O1264 2.004 . S
Co1260 O1270 2.021 . S
Co1260 O1272 2.137 . S
Co1260 O1273 2.244 . S
O1261 Co1260 2.216 . S
O1261 C1268 1.247 . S
O1262 Co1260 2.091 . S
O1262 C1268 1.261 . S
C1263 O1272 1.247 . S
C1263 O1273 1.272 . S
O1264 Co1260 2.004 . S
O1264 C1269 1.259 . S
Co1265 O1266 2.061 . S
Co1265 O1271 2.052 . S
Co1265 O1273 2.135 . S
O1266 Co1265 2.061 . S
O1266 C1269 1.235 . S
C1267 O1270 1.238 . S
C1267 O1271 1.241 . S
C1268 O1261 1.247 . S
C1268 O1262 1.261 . S
C1269 O1264 1.259 . S
C1269 O1266 1.235 . S
O1270 Co1260 2.021 . S
O1270 C1267 1.238 . S
O1271 Co1265 2.052 . S
O1271 C1267 1.241 . S
O1272 Co1260 2.137 . S
O1272 C1263 1.247 . S
O1273 Co1260 2.244 . S
O1273 C1263 1.272 . S
O1273 Co1265 2.135 . S
Co1274 O1275 2.216 . S
Co1274 O1276 2.091 . S
Co1274 O1278 2.004 . S
Co1274 O1284 2.021 1_554 S
Co1274 O1286 2.137 . S
Co1274 O1287 2.244 . S
O1275 Co1274 2.216 . S
O1275 C1282 1.247 . S
O1276 Co1274 2.091 . S
O1276 C1282 1.261 . S
C1277 O1286 1.247 . S
C1277 O1287 1.272 . S
O1278 Co1274 2.004 . S
O1278 C1283 1.259 . S
Co1279 O1280 2.061 . S
Co1279 O1285 2.052 . S
Co1279 O1287 2.135 . S
O1280 Co1279 2.061 . S
O1280 C1283 1.235 . S
C1281 O1284 1.238 . S
C1281 O1285 1.241 1_556 S
C1282 O1275 1.247 . S
C1282 O1276 1.261 . S
C1283 O1278 1.259 . S
C1283 O1280 1.235 . S
O1284 Co1274 2.021 1_556 S
O1284 C1281 1.238 . S
O1285 Co1279 2.052 . S
O1285 C1281 1.241 1_554 S
O1286 Co1274 2.137 . S
O1286 C1277 1.247 . S
O1287 Co1274 2.244 . S
O1287 C1277 1.272 . S
O1287 Co1279 2.135 . S
Co1288 O1289 2.216 . S
Co1288 O1290 2.091 . S
Co1288 O1292 2.004 . S
Co1288 O1298 2.021 . S
Co1288 O1300 2.137 . S
Co1288 O1301 2.244 . S
O1289 Co1288 2.216 . S
O1289 C1296 1.247 . S
O1290 Co1288 2.091 . S
O1290 C1296 1.261 . S
C1291 O1300 1.247 . S
C1291 O1301 1.272 . S
O1292 Co1288 2.004 . S
O1292 C1297 1.259 . S
Co1293 O1294 2.061 . S
Co1293 O1299 2.052 . S
Co1293 O1301 2.135 . S
O1294 Co1293 2.061 . S
O1294 C1297 1.235 . S
C1295 O1298 1.238 . S
C1295 O1299 1.241 . S
C1296 O1289 1.247 . S
C1296 O1290 1.261 . S
C1297 O1292 1.259 . S
C1297 O1294 1.235 . S
O1298 Co1288 2.021 . S
O1298 C1295 1.238 . S
O1299 Co1293 2.052 . S
O1299 C1295 1.241 . S
O1300 Co1288 2.137 . S
O1300 C1291 1.247 . S
O1301 Co1288 2.244 . S
O1301 C1291 1.272 . S
O1301 Co1293 2.135 . S
Co1302 O1303 2.216 . S
Co1302 O1304 2.091 . S
Co1302 O1306 2.004 . S
Co1302 O1312 2.021 1_556 S
Co1302 O1314 2.137 . S
Co1302 O1315 2.244 . S
O1303 Co1302 2.216 . S
O1303 C1310 1.247 . S
O1304 Co1302 2.091 . S
O1304 C1310 1.261 . S
C1305 O1314 1.247 . S
C1305 O1315 1.272 . S
O1306 Co1302 2.004 . S
O1306 C1311 1.259 . S
Co1307 O1308 2.061 . S
Co1307 O1313 2.052 . S
Co1307 O1315 2.135 . S
O1308 Co1307 2.061 . S
O1308 C1311 1.235 . S
C1309 O1312 1.238 . S
C1309 O1313 1.241 1_554 S
C1310 O1303 1.247 . S
C1310 O1304 1.261 . S
C1311 O1306 1.259 . S
C1311 O1308 1.235 . S
O1312 Co1302 2.021 1_554 S
O1312 C1309 1.238 . S
O1313 Co1307 2.052 . S
O1313 C1309 1.241 1_556 S
O1314 Co1302 2.137 . S
O1314 C1305 1.247 . S
O1315 Co1302 2.244 . S
O1315 C1305 1.272 . S
O1315 Co1307 2.135 . S
Co1316 O1317 2.216 . S
Co1316 O1318 2.091 . S
Co1316 O1320 2.004 . S
Co1316 O1326 2.021 . S
Co1316 O1328 2.137 . S
Co1316 O1329 2.244 . S
O1317 Co1316 2.216 . S
O1317 C1324 1.247 . S
O1318 Co1316 2.091 . S
O1318 C1324 1.261 . S
C1319 O1328 1.247 . S
C1319 O1329 1.272 . S
O1320 Co1316 2.004 . S
O1320 C1325 1.259 . S
Co1321 O1322 2.061 . S
Co1321 O1327 2.052 . S
Co1321 O1329 2.135 . S
O1322 Co1321 2.061 . S
O1322 C1325 1.235 . S
C1323 O1326 1.238 . S
C1323 O1327 1.241 . S
C1324 O1317 1.247 . S
C1324 O1318 1.261 . S
C1325 O1320 1.259 . S
C1325 O1322 1.235 . S
O1326 Co1316 2.021 . S
O1326 C1323 1.238 . S
O1327 Co1321 2.052 . S
O1327 C1323 1.241 . S
O1328 Co1316 2.137 . S
O1328 C1319 1.247 . S
O1329 Co1316 2.244 . S
O1329 C1319 1.272 . S
O1329 Co1321 2.135 . S
Co1330 O1331 2.216 . S
Co1330 O1332 2.091 . S
Co1330 O1334 2.004 . S
Co1330 O1340 2.021 . S
Co1330 O1342 2.137 . S
Co1330 O1343 2.244 . S
O1331 Co1330 2.216 . S
O1331 C1338 1.247 . S
O1332 Co1330 2.091 . S
O1332 C1338 1.261 . S
C1333 O1342 1.247 . S
C1333 O1343 1.272 . S
O1334 Co1330 2.004 . S
O1334 C1339 1.259 . S
Co1335 O1336 2.061 . S
Co1335 O1341 2.052 . S
Co1335 O1343 2.135 . S
O1336 Co1335 2.061 . S
O1336 C1339 1.235 . S
C1337 O1340 1.238 . S
C1337 O1341 1.241 . S
C1338 O1331 1.247 . S
C1338 O1332 1.261 . S
C1339 O1334 1.259 . S
C1339 O1336 1.235 . S
O1340 Co1330 2.021 . S
O1340 C1337 1.238 . S
O1341 Co1335 2.052 . S
O1341 C1337 1.241 . S
O1342 Co1330 2.137 . S
O1342 C1333 1.247 . S
O1343 Co1330 2.244 . S
O1343 C1333 1.272 . S
O1343 Co1335 2.135 . S
C7 C1057 1.470 . S
C343 C23 1.340 . S
C1029 C35 1.470 . S
C371 C51 1.340 . S
C63 C1085 1.470 . S
C79 C427 1.340 . S
C1113 C91 1.470 . S
C107 C399 1.340 . S
C121 C1267 1.262 . S
C609 C133 1.470 . S
C149 C623 1.262 . S
C161 C581 1.470 . S
C177 C1323 1.262 . S
C189 C1239 1.470 . S
C205 C1337 1.262 . S
C217 C1309 1.470 . S
C1141 C233 1.340 . S
C247 C553 1.340 . S
C261 C1183 1.261 . S
C525 C275 1.340 . S
C289 C539 1.261 1_545 S
C1169 C303 1.340 . S
C317 C1127 1.261 . S
C1155 C331 1.261 . S
C721 C345 1.288 . S
C9 C359 1.565 . S
C373 C693 1.288 . S
C387 C37 1.565 . S
C401 C749 1.288 . S
C93 C415 1.565 . S
C429 C777 1.288 . S
C443 C65 1.565 . S
C457 C931 1.306 . S
C273 C471 1.288 . S
C485 C287 1.306 . S
C245 C499 1.288 . S
C513 C987 1.306 . S
C527 C903 1.288 . S
C541 C1001 1.306 . S
C973 C555 1.288 . S
C807 C569 1.565 . S
C219 C583 1.565 . S
C847 C597 1.306 . S
C611 C191 1.565 . S
C625 C203 1.306 1_565 S
C639 C835 1.565 . S
C791 C653 1.306 . S
C667 C819 1.306 . S
C385 C679 1.470 . S
C1015 C695 1.340 . S
C707 C357 1.470 . S
C1043 C723 1.340 . S
C735 C413 1.470 . S
C1099 C751 1.340 . S
C763 C441 1.470 . S
C1071 C779 1.340 . S
C595 C793 1.262 . S
C805 C1281 1.470 . S
C1295 C821 1.262 . S
C833 C1253 1.470 . S
C651 C849 1.262 . S
C861 C567 1.470 . S
C665 C877 1.262 . S
C637 C889 1.470 . S
C469 C905 1.340 . S
C1225 C919 1.340 . S
C933 C511 1.261 1_565 S
C947 C1197 1.340 . S
C1211 C961 1.261 . S
C497 C975 1.340 . S
C455 C989 1.261 1_565 S
C483 C1003 1.261 1_545 S
C1017 C49 1.288 . S
C1031 C681 1.565 . S
C1045 C21 1.288 . S
C1059 C709 1.565 . S
C77 C1073 1.288 . S
C765 C1087 1.565 . S
C105 C1101 1.288 . S
C737 C1115 1.565 . S
C1129 C259 1.306 . S
C945 C1143 1.288 . S
C1157 C959 1.306 . S
C1171 C917 1.288 . S
C315 C1185 1.306 . S
C231 C1199 1.288 . S
C1213 C329 1.306 . S
C301 C1227 1.288 . S
C1241 C135 1.565 . S
C1255 C891 1.565 . S
C175 C1269 1.306 1_565 S
C1283 C863 1.565 . S
C875 C1297 1.306 . S
C1311 C163 1.565 . S
C1325 C119 1.306 1_565 S
C1339 C147 1.306 1_545 S
C8 C134 1.558 . S
C17 C143 1.593 . S
C162 C36 1.558 . S
C45 C115 1.593 . S
C218 C64 1.558 . S
C73 C171 1.593 . S
C92 C190 1.558 . S
C199 C101 1.593 . S
C255 C227 1.593 . S
C241 C983 1.593 . S
C997 C269 1.593 . S
C283 C969 1.593 . S
C955 C297 1.593 . S
C311 C913 1.593 . S
C325 C941 1.593 . S
C339 C465 1.691 . S
C479 C353 1.418 . S
C493 C367 1.691 . S
C381 C451 1.418 . S
C549 C395 1.691 . S
C409 C507 1.418 . S
C521 C423 1.691 . S
C437 C535 1.418 . S
C591 C563 1.418 . S
C577 C1319 1.418 . S
C605 C1333 1.418 . S
C1305 C619 1.418 . S
C1291 C633 1.418 . S
C1249 C647 1.418 . S
C1277 C661 1.418 . S
C806 C680 1.558 . S
C815 C689 1.593 . S
C834 C708 1.558 . S
C717 C787 1.593 . S
C736 C890 1.558 . S
C745 C843 1.593 . S
C764 C862 1.558 . S
C773 C871 1.593 . S
C927 C899 1.593 . S
C1137 C1011 1.691 . S
C1025 C1151 1.418 . S
C1165 C1039 1.691 . S
C1123 C1053 1.418 . S
C1221 C1067 1.691 . S
C1179 C1081 1.418 . S
C1193 C1095 1.691 . S
C1207 C1109 1.418 . S
C1263 C1235 1.418 . S
C3 C288 1.635 1_455 S
C918 C22 1.746 . S
C932 C31 1.635 . S
C946 C50 1.746 1_556 S
C1002 C59 1.635 1_655 S
C78 C302 1.746 . S
C87 C988 1.635 . S
C106 C232 1.746 1_556 S
C120 C213 1.635 . S
C129 C176 1.635 . S
C148 C185 1.635 . S
C204 C157 1.635 . S
C694 C246 1.746 1_554 S
C260 C703 1.635 1_455 S
C274 C722 1.746 . S
C759 C316 1.635 1_655 S
C330 C731 1.635 . S
C344 C624 1.757 1_655 S
C1254 C358 1.810 . S
C1268 C372 1.757 . S
C1282 C386 1.810 1_554 S
C400 C1338 1.757 1_655 S
C414 C638 1.810 . S
C428 C1324 1.757 . S
C442 C568 1.810 1_554 S
C456 C554 1.757 . S
C470 C512 1.757 . S
C526 C484 1.757 . S
C498 C540 1.757 . S
C1030 C582 1.810 1_556 S
C596 C1044 1.756 1_655 S
C1058 C610 1.810 . S
C652 C1100 1.756 1_655 S
C1072 C666 1.756 . S
C675 C960 1.635 . S
C750 C974 1.746 1_556 S
C778 C904 1.746 . S
C885 C792 1.635 . S
C801 C848 1.635 . S
C857 C820 1.635 . S
C829 C876 1.635 . S
C1296 C1016 1.756 . S
C1086 C1310 1.810 1_554 S
C1114 C1240 1.810 . S
C1226 C1128 1.757 . S
C1184 C1142 1.757 . S
C1156 C1198 1.757 . S
C1170 C1212 1.757 . S
