# Generated by pormake.
# Topology ure, (4)-cn, num edge types: 1
# Building blocks:
#     Node 0, Type 0, BuildingBlock: GALJAG_clean_sbu_0, # of connection points: 4
#     Node 1, Type 0, BuildingBlock: GALJAG_clean_sbu_0, # of connection points: 4
#     Node 2, Type 0, BuildingBlock: GALJAG_clean_sbu_0, # of connection points: 4
#     Node 3, Type 0, BuildingBlock: GALJAG_clean_sbu_0, # of connection points: 4
#     Node 4, Type 0, BuildingBlock: GALJAG_clean_sbu_0, # of connection points: 4
#     Node 5, Type 0, BuildingBlock: GALJAG_clean_sbu_0, # of connection points: 4
#     Node 6, Type 0, BuildingBlock: GALJAG_clean_sbu_0, # of connection points: 4
#     Node 7, Type 0, BuildingBlock: GALJAG_clean_sbu_0, # of connection points: 4
#     Node 8, Type 0, BuildingBlock: GALJAG_clean_sbu_0, # of connection points: 4
#     Node 9, Type 0, BuildingBlock: GALJAG_clean_sbu_0, # of connection points: 4
#     Node 10, Type 0, BuildingBlock: GALJAG_clean_sbu_0, # of connection points: 4
#     Node 11, Type 0, BuildingBlock: GALJAG_clean_sbu_0, # of connection points: 4
#     Node 12, Type 0, BuildingBlock: GALJAG_clean_sbu_0, # of connection points: 4
#     Node 13, Type 0, BuildingBlock: GALJAG_clean_sbu_0, # of connection points: 4
#     Node 14, Type 0, BuildingBlock: GALJAG_clean_sbu_0, # of connection points: 4
#     Node 15, Type 0, BuildingBlock: GALJAG_clean_sbu_0, # of connection points: 4
#     Edge 16, Type (0, 0), BuildingBlock: TEMPAE_clean_linker_10, # of connection points: 2
#     Edge 17, Type (0, 0), BuildingBlock: TEMPAE_clean_linker_10, # of connection points: 2
#     Edge 18, Type (0, 0), BuildingBlock: TEMPAE_clean_linker_10, # of connection points: 2
#     Edge 19, Type (0, 0), BuildingBlock: TEMPAE_clean_linker_10, # of connection points: 2
#     Edge 20, Type (0, 0), BuildingBlock: TEMPAE_clean_linker_10, # of connection points: 2
#     Edge 21, Type (0, 0), BuildingBlock: TEMPAE_clean_linker_10, # of connection points: 2
#     Edge 22, Type (0, 0), BuildingBlock: TEMPAE_clean_linker_10, # of connection points: 2
#     Edge 23, Type (0, 0), BuildingBlock: TEMPAE_clean_linker_10, # of connection points: 2
#     Edge 24, Type (0, 0), BuildingBlock: TEMPAE_clean_linker_10, # of connection points: 2
#     Edge 25, Type (0, 0), BuildingBlock: TEMPAE_clean_linker_10, # of connection points: 2
#     Edge 26, Type (0, 0), BuildingBlock: TEMPAE_clean_linker_10, # of connection points: 2
#     Edge 27, Type (0, 0), BuildingBlock: TEMPAE_clean_linker_10, # of connection points: 2
#     Edge 28, Type (0, 0), BuildingBlock: TEMPAE_clean_linker_10, # of connection points: 2
#     Edge 29, Type (0, 0), BuildingBlock: TEMPAE_clean_linker_10, # of connection points: 2
#     Edge 30, Type (0, 0), BuildingBlock: TEMPAE_clean_linker_10, # of connection points: 2
#     Edge 31, Type (0, 0), BuildingBlock: TEMPAE_clean_linker_10, # of connection points: 2
#     Edge 32, Type (0, 0), BuildingBlock: TEMPAE_clean_linker_10, # of connection points: 2
#     Edge 33, Type (0, 0), BuildingBlock: TEMPAE_clean_linker_10, # of connection points: 2
#     Edge 34, Type (0, 0), BuildingBlock: TEMPAE_clean_linker_10, # of connection points: 2
#     Edge 35, Type (0, 0), BuildingBlock: TEMPAE_clean_linker_10, # of connection points: 2
#     Edge 36, Type (0, 0), BuildingBlock: TEMPAE_clean_linker_10, # of connection points: 2
#     Edge 37, Type (0, 0), BuildingBlock: TEMPAE_clean_linker_10, # of connection points: 2
#     Edge 38, Type (0, 0), BuildingBlock: TEMPAE_clean_linker_10, # of connection points: 2
#     Edge 39, Type (0, 0), BuildingBlock: TEMPAE_clean_linker_10, # of connection points: 2
#     Edge 40, Type (0, 0), BuildingBlock: TEMPAE_clean_linker_10, # of connection points: 2
#     Edge 41, Type (0, 0), BuildingBlock: TEMPAE_clean_linker_10, # of connection points: 2
#     Edge 42, Type (0, 0), BuildingBlock: TEMPAE_clean_linker_10, # of connection points: 2
#     Edge 43, Type (0, 0), BuildingBlock: TEMPAE_clean_linker_10, # of connection points: 2
#     Edge 44, Type (0, 0), BuildingBlock: TEMPAE_clean_linker_10, # of connection points: 2
#     Edge 45, Type (0, 0), BuildingBlock: TEMPAE_clean_linker_10, # of connection points: 2
#     Edge 46, Type (0, 0), BuildingBlock: TEMPAE_clean_linker_10, # of connection points: 2
#     Edge 47, Type (0, 0), BuildingBlock: TEMPAE_clean_linker_10, # of connection points: 2
# Relax obj value: 0.290
# Max RMSD: 0.221
# Mean RMSD: 0.173
data_MOF--net-ure--node1-GALJAG_clean_sbu_0--edge1-TEMPAE_clean_linker_10
_symmetry_space_group_name_H-M    P1
_symmetry_Int_Tables_number       1
_symmetry_cell_setting            triclinic
loop_
_symmetry_equiv_pos_as_xyz
'x, y, z'
_cell_length_a     27.874764
_cell_length_b     32.768007
_cell_length_c     32.686105
_cell_angle_alpha  100.24675
_cell_angle_beta   96.199048
_cell_angle_gamma 96.090299
loop_
_atom_site_label
_atom_site_type_symbol
_atom_site_fract_x
_atom_site_fract_y
_atom_site_fract_z
_atom_type_partial_charge
In0 In 0.32409 0.31536 0.30474 0.0
O1 O 0.29823 0.24512 0.28822 0.0
O2 O 0.26554 0.28397 0.25069 0.0
C3 C 0.33211 0.31049 0.38685 0.0
C4 C 0.40921 0.30953 0.27386 0.0
C5 C 0.30277 0.39343 0.30024 0.0
O6 O 0.29169 0.31197 0.36605 0.0
O7 O 0.36747 0.31015 0.36603 0.0
O8 O 0.34366 0.38179 0.29556 0.0
O9 O 0.27126 0.36526 0.30619 0.0
C10 C 0.26825 0.24733 0.25708 0.0
O11 O 0.406 0.32815 0.31051 0.0
O12 O 0.36907 0.294 0.25213 0.0
In13 In 0.00169 0.02505 0.516 0.0
O14 O 0.04687 0.04112 0.58059 0.0
O15 O 0.99043 0.9901 0.56943 0.0
C16 C 0.02578 0.10537 0.51069 0.0
C17 C 0.05273 0.98032 0.4634 0.0
C18 C 0.90479 0.00772 0.49265 0.0
O19 O 0.00237 0.09466 0.53886 0.0
O20 O 0.03804 0.07551 0.48566 0.0
O21 O 0.93211 0.97937 0.49192 0.0
O22 O 0.92629 0.04426 0.50537 0.0
C23 C 0.02422 0.01257 0.59497 0.0
O24 O 0.01644 0.99669 0.45062 0.0
O25 O 0.06289 0.98611 0.50272 0.0
In26 In 0.33966 0.75511 0.7796 0.0
O27 O 0.2599 0.72794 0.76302 0.0
O28 O 0.2781 0.79437 0.77414 0.0
C29 C 0.38764 0.68783 0.77375 0.0
C30 C 0.36789 0.79321 0.71846 0.0
C31 C 0.34208 0.77136 0.8633 0.0
O32 O 0.34383 0.686 0.75791 0.0
O33 O 0.40807 0.72416 0.79041 0.0
O34 O 0.36614 0.79614 0.84497 0.0
O35 O 0.31807 0.73973 0.8394 0.0
C36 C 0.24524 0.76342 0.76523 0.0
O37 O 0.38293 0.80837 0.75676 0.0
O38 O 0.34138 0.75837 0.71172 0.0
In39 In 0.49457 0.97558 0.99965 0.0
O40 O 0.45558 0.99201 0.941 0.0
O41 O 0.47793 0.04063 0.99458 0.0
C42 C 0.49688 0.89287 0.98141 0.0
C43 C 0.58993 0.99515 0.99638 0.0
C44 C 0.44405 0.97885 0.06545 0.0
O45 O 0.4736 0.91138 0.95639 0.0
O46 O 0.517 0.91588 0.01524 0.0
O47 O 0.48743 0.99602 0.0684 0.0
O48 O 0.42532 0.96143 0.02872 0.0
C49 C 0.45868 0.03047 0.95685 0.0
O50 O 0.57222 0.00024 0.03068 0.0
O51 O 0.55927 0.98197 0.96426 0.0
In52 In 0.31917 0.76325 0.24773 0.0
O53 O 0.29008 0.69435 0.22329 0.0
O54 O 0.30066 0.71661 0.28921 0.0
C55 C 0.32447 0.77594 0.16854 0.0
C56 C 0.25974 0.81389 0.28351 0.0
C57 C 0.41109 0.77966 0.28682 0.0
O58 O 0.28691 0.78062 0.18615 0.0
O59 O 0.35819 0.76394 0.19031 0.0
O60 O 0.38253 0.80714 0.28771 0.0
O61 O 0.39271 0.74377 0.26726 0.0
C62 C 0.28797 0.6859 0.25934 0.0
O63 O 0.30457 0.82538 0.28431 0.0
O64 O 0.24502 0.77692 0.26454 0.0
In65 In 0.44576 0.98176 0.41863 0.0
O66 O 0.40856 0.9788 0.47762 0.0
O67 O 0.43253 0.92357 0.44624 0.0
C68 C 0.45895 0.06508 0.42187 0.0
C69 C 0.54127 0.97514 0.43137 0.0
C70 C 0.39032 0.95098 0.34406 0.0
O71 O 0.42645 0.04829 0.44005 0.0
O72 O 0.48355 0.03994 0.40237 0.0
O73 O 0.42715 0.93529 0.35682 0.0
O74 O 0.37961 0.98079 0.37013 0.0
C75 C 0.41394 0.94091 0.47722 0.0
O76 O 0.51706 0.96733 0.39532 0.0
O77 O 0.51714 0.98603 0.46112 0.0
In78 In 0.37893 0.33703 0.78323 0.0
O79 O 0.36459 0.26844 0.78527 0.0
O80 O 0.43181 0.30126 0.81745 0.0
C81 C 0.37706 0.33178 0.69992 0.0
C82 C 0.28617 0.33737 0.79896 0.0
C83 C 0.43359 0.4106 0.8174 0.0
O84 O 0.39368 0.30466 0.7186 0.0
O85 O 0.36239 0.36145 0.72336 0.0
O86 O 0.39468 0.39835 0.83053 0.0
O87 O 0.4469 0.38411 0.78935 0.0
C88 C 0.40363 0.26719 0.80798 0.0
O89 O 0.32014 0.33477 0.82686 0.0
O90 O 0.29943 0.34119 0.76405 0.0
In91 In 0.0357 0.96008 0.96958 0.0
O92 O 0.97475 0.00087 0.97549 0.0
O93 O 0.95786 0.9363 0.97654 0.0
C94 C 0.05237 0.98228 0.89634 0.0
C95 C 0.09421 0.00763 0.03672 0.0
C96 C 0.03676 0.8767 0.96017 0.0
O97 O 0.01903 0.99459 0.9167 0.0
O98 O 0.07923 0.95995 0.91386 0.0
O99 O 0.05489 0.90154 0.99372 0.0
O100 O 0.01977 0.89412 0.93142 0.0
C101 C 0.94275 0.97135 0.97764 0.0
O102 O 0.05208 0.99067 0.03878 0.0
O103 O 0.10786 0.99955 0.0009 0.0
In104 In 0.83629 0.24081 0.74579 0.0
O105 O 0.82172 0.30381 0.77994 0.0
O106 O 0.76488 0.25268 0.77007 0.0
C107 C 0.92957 0.26148 0.78186 0.0
C108 C 0.80911 0.16296 0.75797 0.0
C109 C 0.82804 0.25082 0.66493 0.0
O110 O 0.90015 0.28803 0.78107 0.0
O111 O 0.91165 0.2246 0.7654 0.0
O112 O 0.86391 0.23713 0.68209 0.0
O113 O 0.79567 0.25866 0.68807 0.0
C114 C 0.77871 0.29099 0.78474 0.0
O115 O 0.81823 0.17044 0.72285 0.0
O116 O 0.81268 0.19474 0.78681 0.0
In117 In 0.96817 0.48046 0.9315 0.0
O118 O 0.03981 0.47721 0.90432 0.0
O119 O 0.03053 0.44783 0.95631 0.0
C120 C 0.91372 0.44887 0.85664 0.0
C121 C 0.93679 0.45706 1.00012 0.0
C122 C 0.98068 0.56459 0.93956 0.0
O123 O 0.94706 0.43067 0.87187 0.0
O124 O 0.90577 0.48143 0.88051 0.0
O125 O 0.9415 0.54491 0.94578 0.0
O126 O 0.01312 0.54196 0.93016 0.0
C127 C 0.05827 0.45747 0.93055 0.0
O128 O 0.96812 0.48822 0.00183 0.0
O129 O 0.91948 0.43835 0.96344 0.0
In130 In 0.86297 0.83721 0.2905 0.0
O131 O 0.84474 0.77081 0.29942 0.0
O132 O 0.91567 0.80106 0.32451 0.0
C133 C 0.86312 0.82579 0.20675 0.0
C134 C 0.76985 0.84183 0.30367 0.0
C135 C 0.91789 0.91118 0.32365 0.0
O136 O 0.87921 0.80052 0.22819 0.0
O137 O 0.84804 0.85689 0.22769 0.0
O138 O 0.87956 0.8988 0.33749 0.0
O139 O 0.93031 0.8849 0.29491 0.0
C140 C 0.88524 0.76854 0.31939 0.0
O141 O 0.80298 0.84151 0.33316 0.0
O142 O 0.78413 0.84092 0.26826 0.0
In143 In 0.004 0.48154 0.5051 0.0
O144 O 0.07954 0.51499 0.53289 0.0
O145 O 0.06421 0.49458 0.46664 0.0
C146 C 0.95967 0.47681 0.57344 0.0
C147 C 0.95671 0.53191 0.46357 0.0
C148 C 0.02027 0.40171 0.48754 0.0
O149 O -0.00046 0.49965 0.57466 0.0
O150 O 0.94106 0.45756 0.53728 0.0
O151 O 0.98502 0.41444 0.46762 0.0
O152 O 0.04566 0.42898 0.51582 0.0
C153 C 0.09533 0.51118 0.49768 0.0
O154 O 0.96029 0.49465 0.4468 0.0
O155 O 0.97497 0.54271 0.50153 0.0
In156 In 0.51533 0.51791 0.99708 0.0
O157 O 0.52896 0.48 0.93473 0.0
O158 O 0.58518 0.49043 0.98616 0.0
C159 C 0.41999 0.4906 0.98906 0.0
C160 C 0.53933 0.51235 0.07804 0.0
C161 C 0.52037 0.59232 0.97214 0.0
O162 O 0.44921 0.46978 0.96984 0.0
O163 O 0.43932 0.52419 0.01304 0.0
O164 O 0.55641 0.58162 0.99263 0.0
O165 O 0.48307 0.56575 0.96453 0.0
C166 C 0.57121 0.47405 0.94831 0.0
O167 O 0.5415 0.54704 0.06606 0.0
O168 O 0.52543 0.4809 0.04922 0.0
In169 In 0.81011 0.794 0.81183 0.0
O170 O 0.88772 0.82545 0.81654 0.0
O171 O 0.86397 0.77468 0.76608 0.0
C172 C 0.78194 0.86949 0.80688 0.0
C173 C 0.75311 0.72611 0.76504 0.0
C174 C 0.81944 0.78305 0.89187 0.0
O175 O 0.7822 0.84174 0.77479 0.0
O176 O 0.79369 0.85854 0.84119 0.0
O177 O 0.77836 0.784 0.87171 0.0
O178 O 0.85466 0.78519 0.87094 0.0
C179 C 0.89832 0.80185 0.78497 0.0
O180 O 0.79347 0.72394 0.7856 0.0
O181 O 0.74033 0.76235 0.76969 0.0
In182 In 0.83829 0.25888 0.28322 0.0
O183 O 0.76368 0.22228 0.25651 0.0
O184 O 0.77494 0.28716 0.2549 0.0
C185 C 0.88698 0.19235 0.28415 0.0
C186 C 0.88179 0.30873 0.23742 0.0
C187 C 0.82546 0.27716 0.36469 0.0
O188 O 0.84866 0.19141 0.25931 0.0
O189 O 0.90225 0.22762 0.30698 0.0
O190 O 0.86122 0.29497 0.35097 0.0
O191 O 0.79655 0.2518 0.33727 0.0
C192 C 0.74583 0.25381 0.24722 0.0
O193 O 0.86744 0.32296 0.27191 0.0
O194 O 0.87676 0.26933 0.2274 0.0
In195 In 0.53107 0.45951 0.45255 0.0
O196 O 0.55019 0.48041 0.52331 0.0
O197 O 0.59781 0.50584 0.48527 0.0
C198 C 0.53091 0.37569 0.43977 0.0
C199 C 0.44182 0.47746 0.46665 0.0
C200 C 0.54713 0.47942 0.37816 0.0
O201 O 0.55653 0.39991 0.47055 0.0
O202 O 0.50708 0.39385 0.41518 0.0
O203 O 0.50834 0.48386 0.39401 0.0
O204 O 0.57963 0.46632 0.40076 0.0
C205 C 0.58761 0.50502 0.52188 0.0
O206 O 0.47483 0.50466 0.46116 0.0
O207 O 0.45414 0.4414 0.46566 0.0
C208 C 0.20671 0.21416 0.19557 0.0
C209 C 0.24141 0.20982 0.22836 0.0
C210 C 0.18337 0.17916 0.16629 0.0
C211 C 0.19527 0.13881 0.16965 0.0
C212 C 0.22969 0.13413 0.20313 0.0
C213 C 0.25224 0.1697 0.23218 0.0
C214 C 0.14652 0.18547 0.1313 0.0
C215 C 0.24352 0.09171 0.20773 0.0
C216 C 0.10342 0.04796 0.11022 0.0
C217 C 0.12297 0.03764 0.07247 0.0
C218 C 0.12744 0.07979 0.1428 0.0
C219 C 0.17217 0.1018 0.13753 0.0
C220 C 0.19316 0.09023 0.10023 0.0
C221 C 0.16824 0.05833 0.06809 0.0
C222 C 0.10392 0.09099 0.18211 0.0
C223 C 0.24104 0.11264 0.09359 0.0
H224 H 0.19813 0.24506 0.19248 0.0
H225 H 0.2792 0.16615 0.25737 0.0
H226 H 0.15914 0.17486 0.10058 0.0
H227 H 0.1113 0.16631 0.13155 0.0
H228 H 0.14026 0.2187 0.13383 0.0
H229 H 0.269 0.0932 0.23669 0.0
H230 H 0.21057 0.06977 0.20838 0.0
H231 H 0.26106 0.07848 0.18032 0.0
H232 H 0.06848 0.03203 0.11389 0.0
H233 H 0.18361 0.05042 0.03906 0.0
H234 H 0.09295 0.1228 0.18423 0.0
H235 H 0.13019 0.0916 0.21031 0.0
H236 H 0.0712 0.0687 0.18279 0.0
H237 H 0.23691 0.14563 0.0919 0.0
H238 H 0.25423 0.09786 0.06432 0.0
H239 H 0.26915 0.11307 0.12047 0.0
C240 C 0.11651 0.93387 0.45005 0.0
C241 C 0.08199 0.9573 0.43465 0.0
C242 C 0.14496 0.912 0.42323 0.0
C243 C 0.13913 0.91422 0.38015 0.0
C244 C 0.10486 0.93845 0.36453 0.0
C245 C 0.07618 0.95934 0.39196 0.0
C246 C 0.18089 0.88616 0.44093 0.0
C247 C 0.09777 0.94195 0.31889 0.0
C248 C 0.24452 0.88254 0.32318 0.0
C249 C 0.22744 0.84082 0.30492 0.0
C250 C 0.21524 0.90754 0.34629 0.0
C251 C 0.16817 0.89007 0.35157 0.0
C252 C 0.15013 0.84843 0.33191 0.0
C253 C 0.17999 0.8243 0.30862 0.0
C254 C 0.23508 0.95224 0.36591 0.0
C255 C 0.09999 0.82889 0.33678 0.0
H256 H 0.12098 0.93227 0.48307 0.0
H257 H 0.04962 0.97767 0.38005 0.0
H258 H 0.172 0.85295 0.42491 0.0
H259 H 0.21816 0.89706 0.43511 0.0
H260 H 0.18097 0.88783 0.47518 0.0
H261 H 0.07343 0.91415 0.30079 0.0
H262 H 0.08076 0.97026 0.31441 0.0
H263 H 0.13276 0.94313 0.30561 0.0
H264 H 0.28105 0.89547 0.31999 0.0
H265 H 0.16663 0.79207 0.29435 0.0
H266 H 0.23981 0.95596 0.40057 0.0
H267 H 0.20894 0.9736 0.3574 0.0
H268 H 0.27069 0.96201 0.35593 0.0
H269 H 0.09776 0.82785 0.37029 0.0
H270 H 0.09078 0.79661 0.31819 0.0
H271 H 0.07219 0.84819 0.32675 0.0
C272 C 0.3763 0.93549 0.54267 0.0
C273 C 0.40511 0.91971 0.5125 0.0
C274 C 0.37013 0.9163 0.5773 0.0
C275 C 0.39437 0.88124 0.58226 0.0
C276 C 0.42388 0.86554 0.55204 0.0
C277 C 0.4284 0.88464 0.51731 0.0
C278 C 0.33738 0.93325 0.60834 0.0
C279 C 0.45092 0.82864 0.55648 0.0
C280 C 0.41189 0.85036 0.6894 0.0
C281 C 0.37605 0.8158 0.68398 0.0
C282 C 0.41828 0.87219 0.65659 0.0
C283 C 0.38734 0.85963 0.61797 0.0
C284 C 0.35065 0.82516 0.61271 0.0
C285 C 0.34582 0.80343 0.64557 0.0
C286 C 0.45844 0.90831 0.66302 0.0
C287 C 0.3164 0.81116 0.57232 0.0
H288 H 0.35836 0.96265 0.53905 0.0
H289 H 0.45126 0.87264 0.49434 0.0
H290 H 0.30754 0.90851 0.60986 0.0
H291 H 0.35816 0.94262 0.64016 0.0
H292 H 0.32113 0.96067 0.59998 0.0
H293 H 0.47427 0.82159 0.5313 0.0
H294 H 0.47414 0.83486 0.58726 0.0
H295 H 0.42466 0.80047 0.55552 0.0
H296 H 0.4352 0.86005 0.71909 0.0
H297 H 0.31759 0.77705 0.64136 0.0
H298 H 0.44305 0.93714 0.65798 0.0
H299 H 0.48405 0.90178 0.63963 0.0
H300 H 0.47919 0.91428 0.69494 0.0
H301 H 0.29798 0.83772 0.56452 0.0
H302 H 0.28821 0.78512 0.57409 0.0
H303 H 0.3372 0.80068 0.54616 0.0
C304 C 0.44867 0.05515 0.88904 0.0
C305 C 0.446 0.06213 0.93223 0.0
C306 C 0.44289 0.08712 0.86621 0.0
C307 C 0.43294 0.12644 0.88701 0.0
C308 C 0.42846 0.13306 0.93035 0.0
C309 C 0.43574 0.10094 0.95258 0.0
C310 C 0.44885 0.07926 0.82021 0.0
C311 C 0.41649 0.17419 0.95335 0.0
C312 C 0.45909 0.22566 0.84408 0.0
C313 C 0.4128 0.22966 0.82508 0.0
C314 C 0.46668 0.19116 0.86293 0.0
C315 C 0.42675 0.16075 0.86356 0.0
C316 C 0.38016 0.16437 0.84373 0.0
C317 C 0.37389 0.19855 0.82432 0.0
C318 C 0.51712 0.18776 0.88298 0.0
C319 C 0.33651 0.13307 0.84449 0.0
H320 H 0.45731 0.02526 0.87346 0.0
H321 H 0.43368 0.10625 0.98602 0.0
H322 H 0.41552 0.08486 0.80134 0.0
H323 H 0.4793 0.10146 0.81465 0.0
H324 H 0.45634 0.04686 0.80871 0.0
H325 H 0.4121 0.17354 0.98662 0.0
H326 H 0.44581 0.19959 0.95253 0.0
H327 H 0.38234 0.18211 0.93763 0.0
H328 H 0.48922 0.24961 0.8445 0.0
H329 H 0.33794 0.20169 0.80985 0.0
H330 H 0.5275 0.15641 0.87132 0.0
H331 H 0.51764 0.19128 0.91741 0.0
H332 H 0.54489 0.21195 0.87659 0.0
H333 H 0.34367 0.10098 0.83156 0.0
H334 H 0.30313 0.13961 0.82626 0.0
H335 H 0.32951 0.13366 0.87736 0.0
C336 C 0.76041 0.36209 0.81482 0.0
C337 C 0.74709 0.31868 0.80609 0.0
C338 C 0.73105 0.38875 0.83581 0.0
C339 C 0.68796 0.37139 0.84892 0.0
C340 C 0.67411 0.32759 0.83978 0.0
C341 C 0.70375 0.30173 0.81814 0.0
C342 C 0.74646 0.43539 0.84446 0.0
C343 C 0.62872 0.30797 0.85384 0.0
C344 C 0.64157 0.43385 0.94192 0.0
C345 C 0.60154 0.44883 0.92254 0.0
C346 C 0.67001 0.40857 0.91823 0.0
C347 C 0.65861 0.39882 0.87407 0.0
C348 C 0.61882 0.41462 0.85422 0.0
C349 C 0.59029 0.43911 0.87883 0.0
C350 C 0.71173 0.39172 0.94052 0.0
C351 C 0.60619 0.40542 0.80713 0.0
H352 H 0.79379 0.37527 0.80522 0.0
H353 H 0.69347 0.26814 0.81143 0.0
H354 H 0.71615 0.45171 0.83333 0.0
H355 H 0.75555 0.44702 0.87873 0.0
H356 H 0.77865 0.44397 0.82906 0.0
H357 H 0.62265 0.27343 0.84351 0.0
H358 H 0.63146 0.31544 0.88855 0.0
H359 H 0.5964 0.32107 0.84127 0.0
H360 H 0.65011 0.44119 0.97578 0.0
H361 H 0.55943 0.45087 0.86385 0.0
H362 H 0.74639 0.40215 0.92946 0.0
H363 H 0.70623 0.35703 0.93307 0.0
H364 H 0.71547 0.40204 0.97511 0.0
H365 H 0.63902 0.41226 0.79187 0.0
H366 H 0.57782 0.42395 0.79647 0.0
H367 H 0.59264 0.37174 0.79625 0.0
C368 C 0.95842 0.45367 0.07524 0.0
C369 C 0.92616 0.44091 0.038 0.0
C370 C 0.9527 0.43507 0.11016 0.0
C371 C 0.91314 0.40361 0.10806 0.0
C372 C 0.8791 0.39202 0.0712 0.0
C373 C 0.88637 0.41049 0.03636 0.0
C374 C 0.99021 0.44777 0.14858 0.0
C375 C 0.83577 0.3593 0.06816 0.0
C376 C 0.92182 0.32076 0.17528 0.0
C377 C 0.89556 0.3356 0.20777 0.0
C378 C 0.92931 0.34343 0.14342 0.0
C379 C 0.90881 0.3812 0.14352 0.0
C380 C 0.88318 0.39679 0.17683 0.0
C381 C 0.8774 0.37402 0.2089 0.0
C382 C 0.95803 0.32637 0.10906 0.0
C383 C 0.85996 0.43647 0.17758 0.0
H384 H 0.98945 0.47702 0.07654 0.0
H385 H 0.86129 0.4007 0.00766 0.0
H386 H 0.97233 0.45703 0.17692 0.0
H387 H 0.00953 0.42073 0.15337 0.0
H388 H 0.0175 0.47414 0.14595 0.0
H389 H 0.81042 0.35664 0.03887 0.0
H390 H 0.84834 0.32841 0.06896 0.0
H391 H 0.81554 0.36685 0.09539 0.0
H392 H 0.93583 0.29103 0.17439 0.0
H393 H 0.85645 0.38524 0.23371 0.0
H394 H 0.9874 0.35066 0.10554 0.0
H395 H 0.9339 0.31772 0.07875 0.0
H396 H 0.97461 0.29835 0.11528 0.0
H397 H 0.88734 0.46271 0.175 0.0
H398 H 0.84306 0.4453 0.20662 0.0
H399 H 0.83145 0.43226 0.15018 0.0
C400 C 0.93833 0.55614 0.39613 0.0
C401 C 0.93858 0.5625 0.43969 0.0
C402 C 0.92864 0.58797 0.37399 0.0
C403 C 0.91815 0.6266 0.39599 0.0
C404 C 0.91605 0.63234 0.43968 0.0
C405 C 0.92675 0.60031 0.46108 0.0
C406 C 0.93164 0.58092 0.32746 0.0
C407 C 0.90389 0.67276 0.46406 0.0
C408 C 0.94163 0.72672 0.35404 0.0
C409 C 0.89471 0.73123 0.33686 0.0
C410 C 0.95009 0.69198 0.3722 0.0
C411 C 0.9105 0.66156 0.37372 0.0
C412 C 0.8632 0.66571 0.35583 0.0
C413 C 0.85595 0.70036 0.33735 0.0
C414 C 0.00118 0.6882 0.39045 0.0
C415 C 0.82 0.63426 0.35737 0.0
H416 H 0.94796 0.52703 0.37962 0.0
H417 H 0.92683 0.60521 0.49478 0.0
H418 H 0.89764 0.58751 0.31034 0.0
H419 H 0.96186 0.60284 0.3211 0.0
H420 H 0.93789 0.54844 0.3147 0.0
H421 H 0.90079 0.67119 0.49736 0.0
H422 H 0.93255 0.69869 0.46317 0.0
H423 H 0.86906 0.6806 0.44951 0.0
H424 H 0.97167 0.75044 0.35349 0.0
H425 H 0.81953 0.70379 0.32417 0.0
H426 H 0.0114 0.65723 0.37718 0.0
H427 H 0.00301 0.69038 0.42486 0.0
H428 H 0.02834 0.71298 0.38426 0.0
H429 H 0.82677 0.60232 0.34338 0.0
H430 H 0.78593 0.64117 0.3405 0.0
H431 H 0.81455 0.63414 0.39048 0.0
C432 C 0.59908 0.53221 0.59931 0.0
C433 C 0.61457 0.53302 0.55995 0.0
C434 C 0.62119 0.56106 0.63519 0.0
C435 C 0.65977 0.59149 0.63165 0.0
C436 C 0.67657 0.59159 0.59224 0.0
C437 C 0.65376 0.56237 0.55687 0.0
C438 C 0.60227 0.55976 0.6766 0.0
C439 C 0.71774 0.62341 0.58718 0.0
C440 C 0.68411 0.69524 0.70881 0.0
C441 C 0.72598 0.69011 0.73428 0.0
C442 C 0.66144 0.66294 0.67605 0.0
C443 C 0.68107 0.62454 0.66858 0.0
C444 C 0.72223 0.6186 0.69525 0.0
C445 C 0.74421 0.65147 0.72776 0.0
C446 C 0.61744 0.67048 0.6485 0.0
C447 C 0.74405 0.57804 0.68859 0.0
H448 H 0.5688 0.50959 0.60196 0.0
H449 H 0.66591 0.56316 0.52658 0.0
H450 H 0.63257 0.55845 0.70111 0.0
H451 H 0.58602 0.58874 0.68692 0.0
H452 H 0.57424 0.53248 0.67468 0.0
H453 H 0.72806 0.61806 0.55494 0.0
H454 H 0.70696 0.65529 0.59435 0.0
H455 H 0.75021 0.6225 0.60969 0.0
H456 H 0.66982 0.72499 0.71365 0.0
H457 H 0.77657 0.64726 0.74733 0.0
H458 H 0.58687 0.64549 0.64724 0.0
H459 H 0.62611 0.66938 0.61601 0.0
H460 H 0.6052 0.70121 0.65974 0.0
H461 H 0.7157 0.55125 0.68741 0.0
H462 H 0.77401 0.57737 0.71372 0.0
H463 H 0.75859 0.57345 0.65804 0.0
C464 C 0.38484 0.32435 0.45541 0.0
C465 C 0.33861 0.31171 0.43241 0.0
C466 C 0.39184 0.32774 0.49901 0.0
C467 C 0.35186 0.31699 0.51994 0.0
C468 C 0.30517 0.30355 0.49677 0.0
C469 C 0.29898 0.30155 0.45322 0.0
C470 C 0.44209 0.34287 0.52246 0.0
C471 C 0.26183 0.29123 0.51797 0.0
C472 C 0.3802 0.29135 0.62815 0.0
C473 C 0.37251 0.32832 0.65405 0.0
C474 C 0.37301 0.28696 0.58437 0.0
C475 C 0.35873 0.32068 0.56621 0.0
C476 C 0.352 0.35844 0.59235 0.0
C477 C 0.35853 0.36165 0.63596 0.0
C478 C 0.3814 0.2464 0.55783 0.0
C479 C 0.33772 0.39542 0.5743 0.0
H480 H 0.41548 0.33266 0.43943 0.0
H481 H 0.26323 0.29173 0.43541 0.0
H482 H 0.44057 0.36413 0.55263 0.0
H483 H 0.45956 0.31559 0.5295 0.0
H484 H 0.46544 0.35976 0.50379 0.0
H485 H 0.22854 0.27962 0.49521 0.0
H486 H 0.26987 0.26643 0.53586 0.0
H487 H 0.25432 0.31847 0.5407 0.0
H488 H 0.39109 0.26555 0.64207 0.0
H489 H 0.35268 0.39038 0.65593 0.0
H490 H 0.41754 0.25069 0.54686 0.0
H491 H 0.3534 0.23701 0.52993 0.0
H492 H 0.38108 0.2206 0.57576 0.0
H493 H 0.36194 0.40257 0.551 0.0
H494 H 0.33922 0.4239 0.59884 0.0
H495 H 0.30006 0.38771 0.55784 0.0
C496 C 0.08964 0.97201 0.82947 0.0
C497 C 0.05587 0.98998 0.85354 0.0
C498 C 0.08935 0.97562 0.78725 0.0
C499 C 0.05452 0.99779 0.76893 0.0
C500 C 0.02126 0.01692 0.79349 0.0
C501 C 0.02245 0.01289 0.83551 0.0
C502 C 0.12602 0.95549 0.76227 0.0
C503 C 0.98348 0.04074 0.7751 0.0
C504 C 0.06801 0.03655 0.66755 0.0
C505 C 0.03511 0.00698 0.63873 0.0
C506 C 0.07608 0.03323 0.7099 0.0
C507 C 0.05083 0.99941 0.72357 0.0
C508 C 0.01902 0.96858 0.69428 0.0
C509 C 0.01136 0.97285 0.65221 0.0
C510 C 0.11032 0.06663 0.74022 0.0
C511 C 0.99198 0.93173 0.70766 0.0
H512 H 0.11556 0.95431 0.84332 0.0
H513 H 0.99622 0.02685 0.85396 0.0
H514 H 0.1082 0.9378 0.73127 0.0
H515 H 0.15342 0.98018 0.75642 0.0
H516 H 0.14528 0.934 0.77894 0.0
H517 H 0.95944 0.05287 0.79817 0.0
H518 H 0.00164 0.06748 0.76357 0.0
H519 H 0.96053 0.0202 0.7478 0.0
H520 H 0.08657 0.06294 0.65723 0.0
H521 H 0.98618 0.94975 0.62998 0.0
H522 H 0.13753 0.05217 0.75836 0.0
H523 H 0.08958 0.08416 0.76302 0.0
H524 H 0.12983 0.08917 0.72409 0.0
H525 H 0.01794 0.91498 0.72447 0.0
H526 H 0.97085 0.90923 0.68065 0.0
H527 H 0.96651 0.94293 0.72975 0.0
C528 C 0.36146 0.81504 0.93599 0.0
C529 C 0.34099 0.77764 0.90908 0.0
C530 C 0.35897 0.82032 0.97937 0.0
C531 C 0.33677 0.78709 0.99607 0.0
C532 C 0.31641 0.74926 0.96893 0.0
C533 C 0.31819 0.74524 0.92583 0.0
C534 C 0.38048 0.86119 0.00738 0.0
C535 C 0.29377 0.71252 0.98549 0.0
C536 C 0.37099 0.77431 0.10782 0.0
C537 C 0.32895 0.78305 0.12573 0.0
C538 C 0.3752 0.77788 0.06633 0.0
C539 C 0.3364 0.79057 0.04202 0.0
C540 C 0.29495 0.80186 0.06071 0.0
C541 C 0.29156 0.79772 0.10241 0.0
C542 C 0.42006 0.76531 0.04821 0.0
C543 C 0.25348 0.81681 0.0362 0.0
H544 H 0.37897 0.8402 0.92318 0.0
H545 H 0.30249 0.71608 0.90527 0.0
H546 H 0.35562 0.87131 0.03037 0.0
H547 H 0.4152 0.85713 0.02533 0.0
H548 H 0.38764 0.88612 0.98907 0.0
H549 H 0.27992 0.68514 0.96012 0.0
H550 H 0.32107 0.70289 0.00798 0.0
H551 H 0.26315 0.72161 0.00267 0.0
H552 H 0.40028 0.76337 0.12585 0.0
H553 H 0.25931 0.80524 0.11644 0.0
H554 H 0.42983 0.78367 0.02432 0.0
H555 H 0.41311 0.73177 0.03316 0.0
H556 H 0.45151 0.76934 0.07312 0.0
H557 H 0.26759 0.84162 0.01988 0.0
H558 H 0.22686 0.82923 0.05658 0.0
H559 H 0.23415 0.79052 0.01184 0.0
C560 C 0.3867 0.91104 0.27138 0.0
C561 C 0.37029 0.9426 0.29921 0.0
C562 C 0.38374 0.91193 0.22849 0.0
C563 C 0.36434 0.94551 0.21347 0.0
C564 C 0.34056 0.97332 0.24024 0.0
C565 C 0.34378 0.97151 0.28304 0.0
C566 C 0.40765 0.88038 0.20075 0.0
C567 C 0.31751 0.00849 0.2252 0.0
C568 C 0.44468 0.99181 0.14278 0.0
C569 C 0.41968 0.97504 0.10286 0.0
C570 C 0.42582 0.98362 0.17889 0.0
C571 C 0.38076 0.95781 0.17507 0.0
C572 C 0.35416 0.94228 0.13491 0.0
C573 C 0.37376 0.95153 0.09921 0.0
C574 C 0.4554 0.00118 0.22112 0.0
C575 C 0.30566 0.91535 0.12959 0.0
H576 H 0.40617 0.88801 0.28355 0.0
H577 H 0.32994 0.99549 0.30428 0.0
H578 H 0.38696 0.87131 0.16888 0.0
H579 H 0.44476 0.89448 0.19762 0.0
H580 H 0.41096 0.85176 0.21414 0.0
H581 H 0.28931 0.0189 0.24484 0.0
H582 H 0.3459 0.03551 0.2274 0.0
H583 H 0.30073 0.99912 0.19204 0.0
H584 H 0.47998 0.01028 0.14584 0.0
H585 H 0.35378 0.93935 0.0684 0.0
H586 H 0.46635 0.97524 0.23623 0.0
H587 H 0.43324 0.01941 0.24204 0.0
H588 H 0.48881 0.02186 0.21866 0.0
H589 H 0.30807 0.88951 0.14722 0.0
H590 H 0.29243 0.90178 0.09615 0.0
H591 H 0.2783 0.93443 0.14259 0.0
C592 C 0.49924 0.32447 0.28415 0.0
C593 C 0.45664 0.30348 0.2594 0.0
C594 C 0.54492 0.31442 0.27507 0.0
C595 C 0.54804 0.2834 0.23962 0.0
C596 C 0.50534 0.26431 0.2127 0.0
C597 C 0.45989 0.27437 0.22311 0.0
C598 C 0.58957 0.33563 0.30463 0.0
C599 C 0.50759 0.23226 0.17383 0.0
C600 C 0.6772 0.28453 0.21458 0.0
C601 C 0.69341 0.25417 0.23602 0.0
C602 C 0.62845 0.29189 0.21207 0.0
C603 C 0.59587 0.26929 0.23282 0.0
C604 C 0.61142 0.2367 0.25218 0.0
C605 C 0.66003 0.22907 0.25295 0.0
C606 C 0.6132 0.32625 0.1903 0.0
C607 C 0.57798 0.21249 0.27539 0.0
H608 H 0.49682 0.34784 0.31158 0.0
H609 H 0.42694 0.25839 0.20367 0.0
H610 H 0.608 0.31194 0.31853 0.0
H611 H 0.61578 0.35118 0.28725 0.0
H612 H 0.58071 0.3594 0.33052 0.0
H613 H 0.47182 0.22385 0.15383 0.0
H614 H 0.53488 0.24424 0.15507 0.0
H615 H 0.51934 0.20345 0.1829 0.0
H616 H 0.70312 0.30386 0.20138 0.0
H617 H 0.67276 0.20585 0.26988 0.0
H618 H 0.61621 0.35562 0.2138 0.0
H619 H 0.57492 0.31887 0.17512 0.0
H620 H 0.63705 0.33192 0.16623 0.0
H621 H 0.56896 0.23381 0.3031 0.0
H622 H 0.59463 0.18636 0.28635 0.0
H623 H 0.54329 0.19958 0.25507 0.0
C624 C 0.07155 0.3477 0.50344 0.0
C625 C 0.03009 0.35792 0.4811 0.0
C626 C 0.07816 0.30603 0.50353 0.0
C627 C 0.04197 0.27394 0.48127 0.0
C628 C 0.00251 0.28396 0.45524 0.0
C629 C 0.99711 0.32607 0.45551 0.0
C630 C 0.12227 0.2968 0.52978 0.0
C631 C 0.9639 0.25095 0.42919 0.0
C632 C 0.05858 0.15951 0.47245 0.0
C633 C 0.03441 0.14913 0.50539 0.0
C634 C 0.06247 0.20041 0.46469 0.0
C635 C 0.0415 0.23125 0.49037 0.0
C636 C 0.01949 0.22141 0.52508 0.0
C637 C 0.01607 0.18038 0.53206 0.0
C638 C 0.08822 0.21055 0.42873 0.0
C639 C 0.00014 0.25424 0.55533 0.0
H640 H 0.09805 0.3723 0.52237 0.0
H641 H 0.96591 0.33395 0.43719 0.0
H642 H 0.13538 0.26756 0.5151 0.0
H643 H 0.15257 0.32281 0.5347 0.0
H644 H 0.11256 0.29283 0.56098 0.0
H645 H 0.95154 0.26018 0.39906 0.0
H646 H 0.97647 0.21977 0.42227 0.0
H647 H 0.93182 0.24827 0.44623 0.0
H648 H 0.07345 0.13549 0.45213 0.0
H649 H 0.99823 0.17265 0.55808 0.0
H650 H 0.11628 0.23812 0.43978 0.0
H651 H 0.06172 0.21882 0.40464 0.0
H652 H 0.106 0.18396 0.41385 0.0
H653 H 0.03111 0.27451 0.57578 0.0
H654 H 0.97644 0.24024 0.57578 0.0
H655 H 0.97945 0.27457 0.5384 0.0
C656 C 0.98647 0.82831 0.8017 0.0
C657 C 0.94846 0.80252 0.77458 0.0
C658 C 0.03508 0.82398 0.79687 0.0
C659 C 0.04569 0.79386 0.76344 0.0
C660 C 0.00746 0.7702 0.73395 0.0
C661 C 0.95912 0.7745 0.74013 0.0
C662 C 0.07483 0.84987 0.82899 0.0
C663 C 0.01755 0.73883 0.69713 0.0
C664 C 0.17704 0.80051 0.74202 0.0
C665 C 0.19352 0.76888 0.76143 0.0
C666 C 0.12843 0.80821 0.74117 0.0
C667 C 0.09638 0.78459 0.76149 0.0
C668 C 0.11306 0.75257 0.78113 0.0
C669 C 0.16135 0.74458 0.78016 0.0
C670 C 0.11137 0.84136 0.71843 0.0
C671 C 0.08056 0.728 0.80477 0.0
H672 H 0.97829 0.85041 0.82809 0.0
H673 H 0.92974 0.75487 0.71882 0.0
H674 H 0.10302 0.86532 0.81333 0.0
H675 H 0.06064 0.87429 0.85092 0.0
H676 H 0.09282 0.82917 0.84754 0.0
H677 H 0.98434 0.72684 0.67438 0.0
H678 H 0.04574 0.7531 0.6806 0.0
H679 H 0.03186 0.71195 0.70848 0.0
H680 H 0.20219 0.81911 0.7274 0.0
H681 H 0.1746 0.72061 0.79577 0.0
H682 H 0.0901 0.86201 0.73793 0.0
H683 H 0.08689 0.82608 0.68948 0.0
H684 H 0.14215 0.8609 0.70952 0.0
H685 H 0.07042 0.7495 0.8318 0.0
H686 H 0.09849 0.70299 0.81675 0.0
H687 H 0.04641 0.71353 0.78438 0.0
C688 C 0.56228 0.6595 0.95923 0.0
C689 C 0.51941 0.63397 0.96129 0.0
C690 C 0.5607 0.7005 0.95237 0.0
C691 C 0.51549 0.71674 0.94987 0.0
C692 C 0.47191 0.68982 0.94884 0.0
C693 C 0.47452 0.64869 0.95411 0.0
C694 C 0.60771 0.72646 0.94915 0.0
C695 C 0.42212 0.70386 0.94343 0.0
C696 C 0.51918 0.82884 0.00498 0.0
C697 C 0.50184 0.84798 0.97229 0.0
C698 C 0.525 0.78643 0.99776 0.0
C699 C 0.51433 0.76266 0.95647 0.0
C700 C 0.49867 0.78229 0.92299 0.0
C701 C 0.49166 0.82465 0.93142 0.0
C702 C 0.54167 0.76716 0.03475 0.0
C703 C 0.48912 0.75866 0.87841 0.0
H704 H 0.597 0.64766 0.96332 0.0
H705 H 0.44115 0.62867 0.95476 0.0
H706 H 0.60158 0.75252 0.93248 0.0
H707 H 0.62687 0.73967 0.98103 0.0
H708 H 0.63222 0.70668 0.93242 0.0
H709 H 0.39672 0.68763 0.96106 0.0
H710 H 0.42268 0.73801 0.95354 0.0
H711 H 0.40689 0.69514 0.90981 0.0
H712 H 0.52737 0.84691 0.03664 0.0
H713 H 0.47895 0.8396 0.90598 0.0
H714 H 0.58007 0.76155 0.03393 0.0
H715 H 0.51958 0.73665 0.03366 0.0
H716 H 0.53953 0.78787 0.06517 0.0
H717 H 0.51744 0.73784 0.872 0.0
H718 H 0.48833 0.78002 0.85555 0.0
H719 H 0.45331 0.73906 0.87343 0.0
C720 C 0.70197 0.83343 0.34692 0.0
C721 C 0.7178 0.83932 0.30886 0.0
C722 C 0.65211 0.82619 0.35032 0.0
C723 C 0.61771 0.82417 0.31465 0.0
C724 C 0.63356 0.83212 0.27679 0.0
C725 C 0.68342 0.83966 0.27439 0.0
C726 C 0.63624 0.81986 0.39167 0.0
C727 C 0.59781 0.83176 0.23849 0.0
C728 C 0.49446 0.75891 0.29561 0.0
C729 C 0.46351 0.78985 0.30192 0.0
C730 C 0.54512 0.76944 0.30255 0.0
C731 C 0.56511 0.81193 0.31564 0.0
C732 C 0.53398 0.84287 0.32444 0.0
C733 C 0.4835 0.83131 0.31822 0.0
C734 C 0.57713 0.73543 0.29315 0.0
C735 C 0.55342 0.88835 0.3394 0.0
H736 H 0.72852 0.83322 0.37363 0.0
H737 H 0.69548 0.84466 0.24502 0.0
H738 H 0.61245 0.84366 0.40228 0.0
H739 H 0.61459 0.78867 0.38783 0.0
H740 H 0.66758 0.82232 0.41644 0.0
H741 H 0.61605 0.83991 0.2119 0.0
H742 H 0.57655 0.80028 0.22817 0.0
H743 H 0.57165 0.85435 0.24627 0.0
H744 H 0.47914 0.72666 0.28341 0.0
H745 H 0.45973 0.85516 0.3243 0.0
H746 H 0.6067 0.7381 0.31946 0.0
H747 H 0.59447 0.73905 0.26477 0.0
H748 H 0.55634 0.70366 0.28758 0.0
H749 H 0.56209 0.89408 0.374 0.0
H750 H 0.52603 0.90883 0.3312 0.0
H751 H 0.58706 0.8974 0.32613 0.0
C752 C 0.43603 0.13773 0.43727 0.0
C753 C 0.46901 0.11055 0.42349 0.0
C754 C 0.44603 0.18093 0.43848 0.0
C755 C 0.49028 0.19711 0.42616 0.0
C756 C 0.52341 0.16969 0.41187 0.0
C757 C 0.5123 0.12676 0.4106 0.0
C758 C 0.40886 0.20905 0.45216 0.0
C759 C 0.57066 0.18572 0.39799 0.0
C760 C 0.49878 0.3049 0.39826 0.0
C761 C 0.52469 0.32975 0.43498 0.0
C762 C 0.48803 0.26156 0.39458 0.0
C763 C 0.50259 0.2428 0.4289 0.0
C764 C 0.52913 0.26769 0.46596 0.0
C765 C 0.54044 0.31087 0.46835 0.0
C766 C 0.46008 0.23613 0.35437 0.0
C767 C 0.54414 0.24889 0.50357 0.0
H768 H 0.40224 0.1252 0.44667 0.0
H769 H 0.53793 0.10586 0.39983 0.0
H770 H 0.42657 0.23804 0.47369 0.0
H771 H 0.3901 0.21852 0.42431 0.0
H772 H 0.38094 0.19314 0.4678 0.0
H773 H 0.59155 0.16006 0.38606 0.0
H774 H 0.56332 0.20389 0.37291 0.0
H775 H 0.59369 0.20718 0.42465 0.0
H776 H 0.48596 0.31946 0.37265 0.0
H777 H 0.55985 0.33007 0.49702 0.0
H778 H 0.42265 0.22544 0.35992 0.0
H779 H 0.47751 0.20792 0.34359 0.0
H780 H 0.45751 0.25442 0.32888 0.0
H781 H 0.51126 0.23484 0.51487 0.0
H782 H 0.56525 0.27241 0.52979 0.0
H783 H 0.56653 0.22347 0.4947 0.0
C784 C 0.21945 0.31723 0.83957 0.0
C785 C 0.23439 0.33249 0.80495 0.0
C786 C 0.16991 0.30916 0.8435 0.0
C787 C 0.13476 0.31458 0.81098 0.0
C788 C 0.14968 0.33084 0.77639 0.0
C789 C 0.19938 0.34001 0.77405 0.0
C790 C 0.15528 0.2932 0.8815 0.0
C791 C 0.11327 0.33646 0.74071 0.0
C792 C 0.01454 0.24488 0.78427 0.0
C793 C 0.98197 0.27324 0.79592 0.0
C794 C 0.06478 0.25746 0.79102 0.0
C795 C 0.0827 0.29925 0.81044 0.0
C796 C 0.05012 0.32716 0.82495 0.0
C797 C -7e-05 0.31383 0.81734 0.0
C798 C 0.09834 0.22682 0.77473 0.0
C799 C 0.06812 0.37154 0.84677 0.0
H800 H 0.24642 0.31055 0.86308 0.0
H801 H 0.21081 0.3517 0.74715 0.0
H802 H 0.12631 0.31031 0.89448 0.0
H803 H 0.14029 0.25967 0.87238 0.0
H804 H 0.18653 0.29653 0.90653 0.0
H805 H 0.13081 0.3513 0.71712 0.0
H806 H 0.09353 0.30556 0.72476 0.0
H807 H 0.08583 0.35599 0.7528 0.0
H808 H 0.00072 0.2134 0.7678 0.0
H809 H 0.97474 0.33549 0.82713 0.0
H810 H 0.12807 0.22545 0.79969 0.0
H811 H 0.11541 0.23744 0.74865 0.0
H812 H 0.0789 0.19476 0.76306 0.0
H813 H 0.09724 0.37183 0.87282 0.0
H814 H 0.03845 0.38796 0.85939 0.0
H815 H 0.08415 0.38926 0.82453 0.0
C816 C 0.00996 0.80524 0.91779 0.0
C817 C 0.0313 0.83079 0.95586 0.0
C818 C 0.00077 0.76175 0.91391 0.0
C819 C 0.01273 0.74347 0.94916 0.0
C820 C 0.03436 0.76911 0.98767 0.0
C821 C 0.04382 0.81249 0.99045 0.0
C822 C 0.9774 0.7356 0.87234 0.0
C823 C 0.04644 0.75079 0.02619 0.0
C824 C 0.95135 0.63486 0.95189 0.0
C825 C 0.98823 0.61031 0.94198 0.0
C826 C 0.95855 0.6783 0.95396 0.0
C827 C 0.0036 0.69742 0.94574 0.0
C828 C 0.04063 0.67265 0.93509 0.0
C829 C 0.03256 0.62943 0.9335 0.0
C830 C 0.91779 0.70355 0.96447 0.0
C831 C 0.08879 0.69182 0.92534 0.0
H832 H -0.00026 0.8193 0.8911 0.0
H833 H 0.05973 0.83218 0.02008 0.0
H834 H 0.99705 0.70829 0.86345 0.0
H835 H 0.93942 0.72344 0.875 0.0
H836 H 0.97661 0.75384 0.84675 0.0
H837 H 0.06311 0.77501 0.05375 0.0
H838 H 0.01282 0.73437 0.03422 0.0
H839 H 0.07196 0.72733 0.01986 0.0
H840 H 0.91685 0.62015 0.95802 0.0
H841 H 0.0611 0.61056 0.92549 0.0
H842 H 0.90171 0.71346 0.93585 0.0
H843 H 0.93176 0.73225 0.98799 0.0
H844 H 0.88845 0.68542 0.9767 0.0
H845 H 0.11299 0.66797 0.9158 0.0
H846 H 0.1078 0.71429 0.9533 0.0
H847 H 0.08265 0.70958 0.89974 0.0
C848 C 0.24609 0.44734 0.29447 0.0
C849 C 0.29354 0.43675 0.29896 0.0
C850 C 0.23776 0.48811 0.29038 0.0
C851 C 0.27788 0.51878 0.29123 0.0
C852 C 0.32585 0.50867 0.29806 0.0
C853 C 0.33306 0.46772 0.30142 0.0
C854 C 0.18616 0.49793 0.28371 0.0
C855 C 0.36974 0.54071 0.30037 0.0
C856 C 0.27307 0.60872 0.23325 0.0
C857 C 0.27671 0.64286 0.26649 0.0
C858 C 0.27016 0.5677 0.24065 0.0
C859 C 0.27061 0.56076 0.28224 0.0
C860 C 0.27099 0.59497 0.31557 0.0
C861 C 0.27404 0.63567 0.30726 0.0
C862 C 0.26999 0.53208 0.20427 0.0
C863 C 0.27075 0.58882 0.36023 0.0
H864 H 0.2155 0.42351 0.29295 0.0
H865 H 0.36987 0.45987 0.30559 0.0
H866 H 0.1818 0.52728 0.30503 0.0
H867 H 0.17755 0.5028 0.25112 0.0
H868 H 0.1594 0.47237 0.28898 0.0
H869 H 0.40388 0.52989 0.31266 0.0
H870 H 0.37334 0.54715 0.26856 0.0
H871 H 0.3656 0.57063 0.32085 0.0
H872 H 0.27491 0.61412 0.20165 0.0
H873 H 0.27624 0.66199 0.333 0.0
H874 H 0.24112 0.50626 0.20498 0.0
H875 H 0.30537 0.51946 0.20684 0.0
H876 H 0.26421 0.54204 0.17353 0.0
H877 H 0.23672 0.56917 0.36281 0.0
H878 H 0.27325 0.61888 0.38277 0.0
H879 H 0.30163 0.57218 0.36949 0.0
C880 C 0.7669 0.11124 0.79392 0.0
C881 C 0.79891 0.12017 0.76557 0.0
C882 C 0.75821 0.07066 0.80217 0.0
C883 C 0.78409 0.03903 0.78314 0.0
C884 C 0.81698 0.04824 0.75487 0.0
C885 C 0.82317 0.08853 0.74575 0.0
C886 C 0.72192 0.06202 0.83166 0.0
C887 C 0.84657 0.01585 0.73504 0.0
C888 C 0.80501 0.94556 0.83326 0.0
C889 C 0.77632 0.91312 0.80431 0.0
C890 C 0.80683 0.98707 0.82755 0.0
C891 C 0.77777 0.99636 0.79294 0.0
C892 C 0.74597 0.96398 0.76545 0.0
C893 C 0.74648 0.92249 0.7709 0.0
C894 C 0.84212 0.02042 0.857 0.0
C895 C 0.7127 0.97301 0.72945 0.0
H896 H 0.7482 0.13588 0.80923 0.0
H897 H 0.84845 0.09573 0.72426 0.0
H898 H 0.70031 0.03077 0.82069 0.0
H899 H 0.7416 0.0625 0.86312 0.0
H900 H 0.69655 0.08602 0.83503 0.0
H901 H 0.87221 0.02869 0.71534 0.0
H902 H 0.86772 0.00343 0.75978 0.0
H903 H 0.82208 0.98914 0.71516 0.0
H904 H 0.82833 0.93819 0.85901 0.0
H905 H 0.72408 0.89732 0.74874 0.0
H906 H 0.82323 0.04708 0.86966 0.0
H907 H 0.87075 0.0326 0.83957 0.0
H908 H 0.85994 0.0084 0.88373 0.0
H909 H 0.69273 0.99957 0.74056 0.0
H910 H 0.68589 0.94546 0.71444 0.0
H911 H 0.73452 0.98221 0.70535 0.0
C912 C 0.34634 0.44077 0.95576 0.0
C913 C 0.36683 0.47877 0.98157 0.0
C914 C 0.29569 0.4309 0.94606 0.0
C915 C 0.26506 0.46004 0.9619 0.0
C916 C 0.28564 0.49814 0.98865 0.0
C917 C 0.33628 0.50692 0.99836 0.0
C918 C 0.27514 0.39009 0.91758 0.0
C919 C 0.25427 0.53024 0.00599 0.0
C920 C 0.14018 0.46601 0.90691 0.0
C921 C 0.11007 0.45107 0.93412 0.0
C922 C 0.19078 0.46666 0.91409 0.0
C923 C 0.21158 0.45201 0.94931 0.0
C924 C 0.18106 0.43399 0.97503 0.0
C925 C 0.13054 0.43377 0.96714 0.0
C926 C 0.22208 0.48566 0.88562 0.0
C927 C 0.20193 0.41727 0.01234 0.0
H928 H 0.36988 0.419 0.94259 0.0
H929 H 0.35199 0.53646 0.01821 0.0
H930 H 0.24403 0.37459 0.93002 0.0
H931 H 0.26139 0.39638 0.8865 0.0
H932 H 0.30292 0.36831 0.91325 0.0
H933 H 0.27597 0.55785 0.02718 0.0
H934 H 0.23375 0.54113 0.97983 0.0
H935 H 0.22722 0.51603 0.02359 0.0
H936 H 0.12442 0.47893 0.88102 0.0
H937 H 0.10732 0.42179 0.98801 0.0
H938 H 0.24923 0.46486 0.87551 0.0
H939 H 0.24247 0.51579 0.90297 0.0
H940 H 0.2002 0.49156 0.85728 0.0
H941 H 0.22941 0.39637 0.00331 0.0
H942 H 0.17337 0.39974 0.02601 0.0
H943 H 0.22063 0.44364 0.03693 0.0
C944 C 0.9485 0.1557 0.32027 0.0
C945 C 0.90798 0.15395 0.29024 0.0
C946 C 0.96387 0.11897 0.33081 0.0
C947 C 0.93756 0.07976 0.31135 0.0
C948 C 0.89803 0.07786 0.27958 0.0
C949 C 0.88404 0.11493 0.26921 0.0
C950 C 0.00666 0.12303 0.36426 0.0
C951 C 0.86868 0.03672 0.25802 0.0
C952 C 0.96961 0.97057 0.30566 0.0
C953 C 0.938 0.95584 0.33195 0.0
C954 C 0.97509 0.01291 0.30247 0.0
C955 C 0.94781 0.04056 0.32564 0.0
C956 C 0.92204 0.02706 0.35684 0.0
C957 C 0.91749 0.98467 0.35972 0.0
C958 C 0.00606 0.0272 0.27132 0.0
C959 C 0.89497 0.05638 0.38401 0.0
H960 H 0.96733 0.18579 0.33666 0.0
H961 H 0.85275 0.11335 0.24594 0.0
H962 H 0.99534 0.13561 0.39504 0.0
H963 H 0.02109 0.09303 0.36597 0.0
H964 H 0.03643 0.14576 0.3585 0.0
H965 H 0.83948 0.04067 0.23362 0.0
H966 H 0.89278 0.01536 0.24302 0.0
H967 H 0.85166 0.02136 0.28149 0.0
H968 H 0.98661 0.94857 0.28484 0.0
H969 H 0.89416 0.9736 0.38102 0.0
H970 H 0.02791 0.05784 0.2852 0.0
H971 H 0.98228 0.03146 0.2433 0.0
H972 H 0.03096 0.00422 0.26097 0.0
H973 H 0.91929 0.08557 0.39849 0.0
H974 H 0.88058 0.0421 0.40927 0.0
H975 H 0.86398 0.06499 0.36441 0.0
C976 C 0.85669 0.94263 0.97908 0.0
C977 C 0.89141 0.97712 0.98007 0.0
C978 C 0.80764 0.94763 0.98091 0.0
C979 C 0.79326 0.98814 0.98417 0.0
C980 C 0.82808 0.02298 0.98469 0.0
C981 C 0.87685 0.01703 0.98258 0.0
C982 C 0.77123 0.90959 0.97921 0.0
C983 C 0.81381 0.06647 0.98741 0.0
C984 C 0.65932 0.99334 0.9545 0.0
C985 C 0.64262 0.99896 0.99384 0.0
C986 C 0.70858 0.9909 0.9509 0.0
C987 C 0.74178 0.99404 0.98757 0.0
C988 C 0.72547 0.00128 0.02748 0.0
C989 C 0.67596 0.0038 0.03016 0.0
C990 C 0.72468 0.98326 0.90783 0.0
C991 C 0.75999 0.00468 0.06721 0.0
H992 H 0.8678 0.91165 0.9767 0.0
H993 H 0.9036 0.04369 0.98297 0.0
H994 H 0.75218 0.91359 0.00748 0.0
H995 H 0.7432 0.90598 0.95158 0.0
H996 H 0.78852 0.88037 0.97714 0.0
H997 H 0.84544 0.09027 0.98777 0.0
H998 H 0.78652 0.06725 0.9603 0.0
H999 H 0.79661 0.07527 0.01624 0.0
H1000 H 0.63361 0.98959 0.92631 0.0
H1001 H 0.66311 0.00795 0.06059 0.0
H1002 H 0.7355 0.9514 0.90083 0.0
H1003 H 0.75696 0.0057 0.90667 0.0
H1004 H 0.69552 0.98607 0.88288 0.0
H1005 H 0.77493 0.97463 0.06741 0.0
H1006 H 0.742 0.01238 0.09583 0.0
H1007 H 0.79118 0.02912 0.06852 0.0
C1008 C 0.45451 0.65268 0.80437 0.0
C1009 C 0.41031 0.64982 0.77841 0.0
C1010 C 0.47143 0.61689 0.81586 0.0
C1011 C 0.44412 0.57728 0.79983 0.0
C1012 C 0.4013 0.57401 0.77114 0.0
C1013 C 0.38479 0.61035 0.761 0.0
C1014 C 0.51758 0.62169 0.84599 0.0
C1015 C 0.37144 0.53226 0.75268 0.0
C1016 C 0.48171 0.47 0.79633 0.0
C1017 C 0.45261 0.45544 0.82449 0.0
C1018 C 0.48435 0.51176 0.79122 0.0
C1019 C 0.45725 0.53919 0.81491 0.0
C1020 C 0.43401 0.52611 0.84772 0.0
C1021 C 0.43209 0.48424 0.85224 0.0
C1022 C 0.51086 0.52478 0.75681 0.0
C1023 C 0.40566 0.55462 0.87446 0.0
H1024 H 0.47489 0.68304 0.81714 0.0
H1025 H 0.35083 0.60789 0.74062 0.0
H1026 H 0.54713 0.61024 0.82871 0.0
H1027 H 0.52936 0.65481 0.86144 0.0
H1028 H 0.5128 0.60269 0.8705 0.0
H1029 H 0.34097 0.53488 0.7288 0.0
H1030 H 0.39477 0.51004 0.73785 0.0
H1031 H 0.35604 0.51871 0.77797 0.0
H1032 H 0.49822 0.44797 0.77511 0.0
H1033 H 0.41037 0.47331 0.87469 0.0
H1034 H 0.5292 0.55735 0.76636 0.0
H1035 H 0.48426 0.52344 0.72862 0.0
H1036 H 0.5384 0.50378 0.748 0.0
H1037 H 0.42437 0.58712 0.88192 0.0
H1038 H 0.40005 0.54381 0.90415 0.0
H1039 H 0.36938 0.55495 0.85688 0.0
C1040 C 0.16253 0.50936 0.45347 0.0
C1041 C 0.14754 0.51777 0.4934 0.0
C1042 C 0.21146 0.50653 0.44877 0.0
C1043 C 0.24611 0.51239 0.48494 0.0
C1044 C 0.23171 0.52354 0.52525 0.0
C1045 C 0.18244 0.52618 0.52901 0.0
C1046 C 0.22524 0.49423 0.40521 0.0
C1047 C 0.26782 0.53002 0.56447 0.0
C1048 C 0.35631 0.45468 0.47595 0.0
C1049 C 0.39215 0.48669 0.47223 0.0
C1050 C 0.30854 0.46268 0.48007 0.0
C1051 C 0.29659 0.50371 0.48072 0.0
C1052 C 0.33258 0.5361 0.47679 0.0
C1053 C 0.38009 0.52721 0.47269 0.0
C1054 C 0.27081 0.42716 0.48337 0.0
C1055 C 0.32078 0.58 0.47665 0.0
H1056 H 0.13566 0.50282 0.42579 0.0
H1057 H 0.17098 0.53259 0.55992 0.0
H1058 H 0.26056 0.51161 0.40199 0.0
H1059 H 0.22927 0.46044 0.3991 0.0
H1060 H 0.19705 0.49974 0.38078 0.0
H1061 H 0.25164 0.54205 0.59313 0.0
H1062 H 0.28112 0.49988 0.56783 0.0
H1063 H 0.29987 0.55229 0.56225 0.0
H1064 H 0.36546 0.42324 0.47529 0.0
H1065 H 0.40773 0.55196 0.46958 0.0
H1066 H 0.24024 0.42338 0.45774 0.0
H1067 H 0.25556 0.43434 0.51344 0.0
H1068 H 0.28597 0.39696 0.48159 0.0
H1069 H 0.28935 0.57958 0.45258 0.0
H1070 H 0.35204 0.6009 0.4703 0.0
H1071 H 0.31014 0.5934 0.50748 0.0
C1072 C 0.87255 0.80166 0.96024 0.0
C1073 C 0.827 0.785 0.93752 0.0
C1074 C 0.87966 0.80802 0.0041 0.0
C1075 C 0.84074 0.79599 0.02564 0.0
C1076 C 0.79503 0.77798 0.00275 0.0
C1077 C 0.78848 0.77326 0.95889 0.0
C1078 C 0.92869 0.82804 0.02724 0.0
C1079 C 0.75291 0.76425 0.02466 0.0
C1080 C 0.8709 0.78128 0.13787 0.0
C1081 C 0.85946 0.81865 0.16058 0.0
C1082 C 0.86475 0.77327 0.09386 0.0
C1083 C 0.84734 0.80365 0.0722 0.0
C1084 C 0.83667 0.8418 0.09507 0.0
C1085 C 0.84262 0.84874 0.13898 0.0
C1086 C 0.87751 0.73254 0.07081 0.0
C1087 C 0.81892 0.87528 0.07314 0.0
H1088 H 0.90238 0.81108 0.9438 0.0
H1089 H 0.75324 0.76048 0.94131 0.0
H1090 H 0.9247 0.85207 0.05478 0.0
H1091 H 0.94835 0.80381 0.03889 0.0
H1092 H 0.95128 0.84314 0.00678 0.0
H1093 H 0.72089 0.74821 0.00219 0.0
H1094 H 0.7641 0.74271 0.04552 0.0
H1095 H 0.74183 0.79181 0.04464 0.0
H1096 H 0.8841 0.75799 0.15447 0.0
H1097 H 0.83387 0.87776 0.15641 0.0
H1098 H 0.85054 0.71937 0.04281 0.0
H1099 H 0.87964 0.70888 0.09121 0.0
H1100 H 0.91358 0.73832 0.06007 0.0
H1101 H 0.84494 0.88395 0.05175 0.0
H1102 H 0.81429 0.90394 0.09549 0.0
H1103 H 0.78346 0.86308 0.05374 0.0
C1104 C 0.59677 0.48762 0.31971 0.0
C1105 C 0.55176 0.48613 0.33515 0.0
C1106 C 0.60029 0.49295 0.2783 0.0
C1107 C 0.55768 0.49605 0.25173 0.0
C1108 C 0.51211 0.49391 0.26713 0.0
C1109 C 0.50986 0.48956 0.30874 0.0
C1110 C 0.6494 0.49478 0.2628 0.0
C1111 C 0.46551 0.49634 0.23985 0.0
C1112 C 0.55874 0.54425 0.15439 0.0
C1113 C 0.54962 0.50857 0.12249 0.0
C1114 C 0.56388 0.54069 0.19681 0.0
C1115 C 0.55997 0.50051 0.20745 0.0
C1116 C 0.55295 0.46443 0.17532 0.0
C1117 C 0.54777 0.46891 0.13324 0.0
C1118 C 0.57121 0.57987 0.23021 0.0
C1119 C 0.54769 0.42102 0.18527 0.0
H1120 H 0.62917 0.48475 0.33999 0.0
H1121 H 0.47485 0.48796 0.32034 0.0
H1122 H 0.64936 0.46819 0.2365 0.0
H1123 H 0.65704 0.52396 0.25055 0.0
H1124 H 0.67925 0.49356 0.28782 0.0
H1125 H 0.43288 0.48476 0.25318 0.0
H1126 H 0.46333 0.52936 0.23702 0.0
H1127 H 0.46433 0.47778 0.20781 0.0
H1128 H 0.56033 0.57499 0.14626 0.0
H1129 H 0.54087 0.44117 0.10872 0.0
H1130 H 0.60189 0.5787 0.25443 0.0
H1131 H 0.53806 0.58205 0.24605 0.0
H1132 H 0.57862 0.60859 0.21707 0.0
H1133 H 0.55055 0.39664 0.1576 0.0
H1134 H 0.51162 0.4144 0.19581 0.0
H1135 H 0.57575 0.41863 0.21118 0.0
C1136 C 0.78391 0.25454 0.42188 0.0
C1137 C 0.82015 0.28118 0.40962 0.0
C1138 C 0.78213 0.25284 0.46415 0.0
C1139 C 0.8174 0.27856 0.49495 0.0
C1140 C 0.8521 0.30759 0.48304 0.0
C1141 C 0.85308 0.30851 0.44033 0.0
C1142 C 0.74417 0.22176 0.47551 0.0
C1143 C 0.88966 0.33615 0.51514 0.0
C1144 C 0.7954 0.28646 0.60855 0.0
C1145 C 0.82484 0.25783 0.62154 0.0
C1146 C 0.79339 0.29434 0.56761 0.0
C1147 C 0.82049 0.27221 0.53894 0.0
C1148 C 0.84929 0.24249 0.55174 0.0
C1149 C 0.85183 0.23623 0.59315 0.0
C1150 C 0.76216 0.3261 0.55496 0.0
C1151 C 0.87654 0.2166 0.52142 0.0
H1152 H 0.75798 0.23357 0.39827 0.0
H1153 H 0.88043 0.32968 0.43092 0.0
H1154 H 0.76198 0.1962 0.48642 0.0
H1155 H 0.72584 0.23689 0.50157 0.0
H1156 H 0.71607 0.2077 0.4485 0.0
H1157 H 0.90912 0.36094 0.50164 0.0
H1158 H 0.87251 0.35115 0.54205 0.0
H1159 H 0.91677 0.3175 0.52752 0.0
H1160 H 0.77469 0.30331 0.63065 0.0
H1161 H 0.87421 0.21377 0.60312 0.0
H1162 H 0.73428 0.31107 0.52821 0.0
H1163 H 0.78493 0.35104 0.54429 0.0
H1164 H 0.74345 0.34073 0.58107 0.0
H1165 H 0.89851 0.19572 0.53662 0.0
H1166 H 0.90091 0.23741 0.50724 0.0
H1167 H 0.85051 0.19704 0.4955 0.0
C1168 C 0.8954 0.44369 0.60974 0.0
C1169 C 0.939 0.47017 0.6119 0.0
C1170 C 0.87806 0.43451 0.64635 0.0
C1171 C 0.90553 0.4516 0.68583 0.0
C1172 C 0.94901 0.47909 0.68808 0.0
C1173 C 0.96496 0.48821 0.65116 0.0
C1174 C 0.83142 0.40538 0.64224 0.0
C1175 C 0.97956 0.49813 0.72952 0.0
C1176 C 0.86877 0.46779 0.79399 0.0
C1177 C 0.89535 0.43958 0.8114 0.0
C1178 C 0.86594 0.46846 0.75101 0.0
C1179 C 0.89073 0.44062 0.72531 0.0
C1180 C 0.91096 0.40805 0.74157 0.0
C1181 C 0.91301 0.40791 0.78461 0.0
C1182 C 0.84134 0.50204 0.7342 0.0
C1183 C 0.93553 0.37636 0.71467 0.0
H1184 H 0.87516 0.42956 0.57942 0.0
H1185 H 0.99869 0.50865 0.65305 0.0
H1186 H 0.8401 0.37279 0.63851 0.0
H1187 H 0.81211 0.41174 0.6702 0.0
H1188 H 0.80654 0.40777 0.61409 0.0
H1189 H 0.01236 0.51885 0.72576 0.0
H1190 H 0.95766 0.5167 0.75042 0.0
H1191 H 0.99153 0.47301 0.74542 0.0
H1192 H 0.85397 0.4918 0.81439 0.0
H1193 H 0.93249 0.38538 0.79773 0.0
H1194 H 0.82132 0.48958 0.70243 0.0
H1195 H 0.8693 0.52788 0.73159 0.0
H1196 H 0.81556 0.51512 0.75512 0.0
H1197 H 0.91274 0.36413 0.68408 0.0
H1198 H 0.94282 0.34967 0.73016 0.0
H1199 H 0.97072 0.39165 0.70832 0.0
C1200 C 0.82804 0.95819 0.46976 0.0
C1201 C 0.85174 0.99926 0.48025 0.0
C1202 C 0.77727 0.9503 0.45952 0.0
C1203 C 0.74992 0.98435 0.45979 0.0
C1204 C 0.77392 0.02582 0.46926 0.0
C1205 C 0.82452 0.03276 0.47955 0.0
C1206 C 0.75296 0.90566 0.44986 0.0
C1207 C 0.74606 0.06296 0.46924 0.0
C1208 C 0.62143 0.97273 0.40435 0.0
C1209 C 0.5942 0.974 0.43808 0.0
C1210 C 0.67211 0.97378 0.41061 0.0
C1211 C 0.69605 0.97719 0.45172 0.0
C1212 C 0.66861 0.97732 0.48573 0.0
C1213 C 0.61791 0.97573 0.47849 0.0
C1214 C 0.70016 0.9725 0.37347 0.0
C1215 C 0.69294 0.98045 0.52995 0.0
H1216 H 0.84903 0.93221 0.47023 0.0
H1217 H 0.84277 0.06458 0.48728 0.0
H1218 H 0.73734 0.89833 0.47791 0.0
H1219 H 0.72265 0.90094 0.42388 0.0
H1220 H 0.7791 0.88319 0.44141 0.0
H1221 H 0.77044 0.09312 0.47583 0.0
H1222 H 0.72373 0.06006 0.43839 0.0
H1223 H 0.72078 0.06377 0.49329 0.0
H1224 H 0.60325 0.97191 0.37314 0.0
H1225 H 0.59688 0.97652 0.50459 0.0
H1226 H 0.72403 0.94739 0.37248 0.0
H1227 H 0.72398 0.00255 0.37665 0.0
H1228 H 0.67579 0.96692 0.34325 0.0
H1229 H 0.71711 0.95576 0.53105 0.0
H1230 H 0.66621 0.9774 0.55244 0.0
H1231 H 0.71603 0.01108 0.54038 0.0
loop_
_geom_bond_atom_site_label_1
_geom_bond_atom_site_label_2
_geom_bond_distance
_geom_bond_site_symmetry_2
_ccdc_geom_bond_type
In0 O1 2.294 . S
In0 O2 2.326 . S
In0 O6 2.266 . S
In0 O7 2.326 . S
In0 O8 2.266 . S
In0 O9 2.326 . S
In0 O11 2.294 . S
In0 O12 2.326 . S
O1 In0 2.294 . S
O1 C10 1.240 . S
O2 In0 2.326 . S
O2 C10 1.252 . S
C3 O6 1.252 . S
C3 O7 1.260 . S
C4 O11 1.240 . S
C4 O12 1.252 . S
C5 O8 1.252 . S
C5 O9 1.260 . S
O6 In0 2.266 . S
O6 C3 1.252 . S
O7 In0 2.326 . S
O7 C3 1.260 . S
O8 In0 2.266 . S
O8 C5 1.252 . S
O9 In0 2.326 . S
O9 C5 1.260 . S
C10 O1 1.240 . S
C10 O2 1.252 . S
O11 In0 2.294 . S
O11 C4 1.240 . S
O12 In0 2.326 . S
O12 C4 1.252 . S
In13 O14 2.294 1_655 S
In13 O15 2.329 1_545 S
In13 O19 2.263 1_655 S
In13 O20 2.323 . S
In13 O21 2.267 1_545 S
In13 O22 2.324 . S
In13 O24 2.296 1_645 S
In13 O25 2.327 1_645 S
O14 In13 2.294 1_455 S
O14 C23 1.240 1_545 S
O15 In13 2.329 1_565 S
O15 C23 1.252 1_655 S
C16 O19 1.252 1_655 S
C16 O20 1.260 . S
C17 O24 1.240 . S
C17 O25 1.252 . S
C18 O21 1.245 1_545 S
C18 O22 1.266 . S
O19 In13 2.263 1_455 S
O19 C16 1.252 1_455 S
O20 In13 2.323 . S
O20 C16 1.260 . S
O21 In13 2.267 1_565 S
O21 C18 1.245 1_565 S
O22 In13 2.324 . S
O22 C18 1.266 . S
C23 O14 1.240 1_565 S
C23 O15 1.252 1_455 S
O24 In13 2.296 1_465 S
O24 C17 1.240 . S
O25 In13 2.327 1_465 S
O25 C17 1.252 . S
In26 O27 2.294 . S
In26 O28 2.326 . S
In26 O32 2.266 . S
In26 O33 2.326 . S
In26 O34 2.266 . S
In26 O35 2.326 . S
In26 O37 2.294 . S
In26 O38 2.326 . S
O27 In26 2.294 . S
O27 C36 1.240 . S
O28 In26 2.326 . S
O28 C36 1.252 . S
C29 O32 1.252 . S
C29 O33 1.260 . S
C30 O37 1.240 . S
C30 O38 1.252 . S
C31 O34 1.252 . S
C31 O35 1.260 . S
O32 In26 2.266 . S
O32 C29 1.252 . S
O33 In26 2.326 . S
O33 C29 1.260 . S
O34 In26 2.266 . S
O34 C31 1.252 . S
O35 In26 2.326 . S
O35 C31 1.260 . S
C36 O27 1.240 . S
C36 O28 1.252 . S
O37 In26 2.294 . S
O37 C30 1.240 . S
O38 In26 2.326 . S
O38 C30 1.252 . S
In39 O40 2.294 1_554 S
In39 O41 2.322 1_564 S
In39 O45 2.266 1_554 S
In39 O46 2.326 . S
In39 O47 2.266 . S
In39 O48 2.326 . S
In39 O50 2.294 . S
In39 O51 2.326 1_554 S
O40 In39 2.294 1_556 S
O40 C49 1.240 1_565 S
O41 In39 2.322 1_546 S
O41 C49 1.260 . S
C42 O45 1.252 1_554 S
C42 O46 1.260 . S
C43 O50 1.240 1_556 S
C43 O51 1.252 . S
C44 O47 1.252 . S
C44 O48 1.260 . S
O45 In39 2.266 1_556 S
O45 C42 1.252 1_556 S
O46 In39 2.326 . S
O46 C42 1.260 . S
O47 In39 2.266 . S
O47 C44 1.252 . S
O48 In39 2.326 . S
O48 C44 1.260 . S
C49 O40 1.240 1_545 S
C49 O41 1.260 . S
O50 In39 2.294 . S
O50 C43 1.240 1_554 S
O51 In39 2.326 1_556 S
O51 C43 1.252 . S
In52 O53 2.294 . S
In52 O54 2.326 . S
In52 O58 2.266 . S
In52 O59 2.326 . S
In52 O60 2.266 . S
In52 O61 2.326 . S
In52 O63 2.294 . S
In52 O64 2.326 . S
O53 In52 2.294 . S
O53 C62 1.240 . S
O54 In52 2.326 . S
O54 C62 1.252 . S
C55 O58 1.252 . S
C55 O59 1.260 . S
C56 O63 1.240 . S
C56 O64 1.252 . S
C57 O60 1.252 . S
C57 O61 1.260 . S
O58 In52 2.266 . S
O58 C55 1.252 . S
O59 In52 2.326 . S
O59 C55 1.260 . S
O60 In52 2.266 . S
O60 C57 1.252 . S
O61 In52 2.326 . S
O61 C57 1.260 . S
C62 O53 1.240 . S
C62 O54 1.252 . S
O63 In52 2.294 . S
O63 C56 1.240 . S
O64 In52 2.326 . S
O64 C56 1.252 . S
In65 O66 2.296 . S
In65 O67 2.326 1_545 S
In65 O71 2.266 . S
In65 O72 2.326 . S
In65 O73 2.266 1_545 S
In65 O74 2.326 . S
In65 O76 2.294 1_545 S
In65 O77 2.326 . S
O66 In65 2.296 . S
O66 C75 1.232 1_545 S
O67 In65 2.326 1_565 S
O67 C75 1.252 . S
C68 O71 1.252 . S
C68 O72 1.260 . S
C69 O76 1.240 1_545 S
C69 O77 1.252 . S
C70 O73 1.258 . S
C70 O74 1.253 1_565 S
O71 In65 2.266 . S
O71 C68 1.252 . S
O72 In65 2.326 . S
O72 C68 1.260 . S
O73 In65 2.266 1_565 S
O73 C70 1.258 . S
O74 In65 2.326 . S
O74 C70 1.253 1_545 S
C75 O66 1.232 1_565 S
C75 O67 1.252 . S
O76 In65 2.294 1_565 S
O76 C69 1.240 1_565 S
O77 In65 2.326 . S
O77 C69 1.252 . S
In78 O79 2.294 . S
In78 O80 2.326 . S
In78 O84 2.266 . S
In78 O85 2.326 . S
In78 O86 2.266 . S
In78 O87 2.326 . S
In78 O89 2.294 . S
In78 O90 2.326 . S
O79 In78 2.294 . S
O79 C88 1.240 . S
O80 In78 2.326 . S
O80 C88 1.252 . S
C81 O84 1.252 . S
C81 O85 1.260 . S
C82 O89 1.240 . S
C82 O90 1.252 . S
C83 O86 1.252 . S
C83 O87 1.260 . S
O84 In78 2.266 . S
O84 C81 1.252 . S
O85 In78 2.326 . S
O85 C81 1.260 . S
O86 In78 2.266 . S
O86 C83 1.252 . S
O87 In78 2.326 . S
O87 C83 1.260 . S
C88 O79 1.240 . S
C88 O80 1.252 . S
O89 In78 2.294 . S
O89 C82 1.240 . S
O90 In78 2.326 . S
O90 C82 1.252 . S
In91 O92 2.295 . S
In91 O93 2.327 . S
In91 O97 2.266 . S
In91 O98 2.325 1_655 S
In91 O99 2.266 1_655 S
In91 O100 2.326 . S
In91 O102 2.294 1_655 S
In91 O103 2.326 1_665 S
O92 In91 2.295 . S
O92 C101 1.240 . S
O93 In91 2.327 . S
O93 C101 1.252 . S
C94 O97 1.252 1_455 S
C94 O98 1.260 . S
C95 O102 1.238 1_545 S
C95 O103 1.252 . S
C96 O99 1.252 . S
C96 O100 1.260 1_455 S
O97 In91 2.266 . S
O97 C94 1.252 1_655 S
O98 In91 2.325 1_455 S
O98 C94 1.260 . S
O99 In91 2.266 1_455 S
O99 C96 1.252 . S
O100 In91 2.326 . S
O100 C96 1.260 1_655 S
C101 O92 1.240 . S
C101 O93 1.252 . S
O102 In91 2.294 1_455 S
O102 C95 1.238 1_565 S
O103 In91 2.326 1_445 S
O103 C95 1.252 . S
In104 O105 2.294 . S
In104 O106 2.326 . S
In104 O110 2.266 . S
In104 O111 2.326 . S
In104 O112 2.266 . S
In104 O113 2.326 . S
In104 O115 2.294 . S
In104 O116 2.326 . S
O105 In104 2.294 . S
O105 C114 1.240 . S
O106 In104 2.326 . S
O106 C114 1.252 . S
C107 O110 1.252 . S
C107 O111 1.260 . S
C108 O115 1.240 . S
C108 O116 1.252 . S
C109 O112 1.252 . S
C109 O113 1.260 . S
O110 In104 2.266 . S
O110 C107 1.252 . S
O111 In104 2.326 . S
O111 C107 1.260 . S
O112 In104 2.266 . S
O112 C109 1.252 . S
O113 In104 2.326 . S
O113 C109 1.260 . S
C114 O105 1.240 . S
C114 O106 1.252 . S
O115 In104 2.294 . S
O115 C108 1.240 . S
O116 In104 2.326 . S
O116 C108 1.252 . S
In117 O118 2.296 . S
In117 O119 2.327 1_556 S
In117 O123 2.266 . S
In117 O124 2.324 1_455 S
In117 O125 2.265 1_455 S
In117 O126 2.326 . S
In117 O128 2.293 1_455 S
In117 O129 2.326 1_455 S
O118 In117 2.296 . S
O118 C127 1.240 . S
O119 In117 2.327 1_554 S
O119 C127 1.252 1_554 S
C120 O123 1.252 1_655 S
C120 O124 1.260 . S
C121 O128 1.240 . S
C121 O129 1.252 . S
C122 O125 1.252 . S
C122 O126 1.260 1_655 S
O123 In117 2.266 . S
O123 C120 1.252 1_455 S
O124 In117 2.324 1_655 S
O124 C120 1.260 . S
O125 In117 2.265 1_655 S
O125 C122 1.252 . S
O126 In117 2.326 . S
O126 C122 1.260 1_455 S
C127 O118 1.240 . S
C127 O119 1.252 1_556 S
O128 In117 2.293 1_655 S
O128 C121 1.240 . S
O129 In117 2.326 1_655 S
O129 C121 1.252 . S
In130 O131 2.294 . S
In130 O132 2.326 . S
In130 O136 2.266 . S
In130 O137 2.326 . S
In130 O138 2.266 . S
In130 O139 2.326 . S
In130 O141 2.294 . S
In130 O142 2.326 . S
O131 In130 2.294 . S
O131 C140 1.240 . S
O132 In130 2.326 . S
O132 C140 1.252 . S
C133 O136 1.252 . S
C133 O137 1.260 . S
C134 O141 1.240 . S
C134 O142 1.252 . S
C135 O138 1.252 . S
C135 O139 1.260 . S
O136 In130 2.266 . S
O136 C133 1.252 . S
O137 In130 2.326 . S
O137 C133 1.260 . S
O138 In130 2.266 . S
O138 C135 1.252 . S
O139 In130 2.326 . S
O139 C135 1.260 . S
C140 O131 1.240 . S
C140 O132 1.252 . S
O141 In130 2.294 . S
O141 C134 1.240 . S
O142 In130 2.326 . S
O142 C134 1.252 . S
In143 O144 2.294 . S
In143 O145 2.326 . S
In143 O149 2.266 . S
In143 O150 2.326 1_455 S
In143 O151 2.266 1_455 S
In143 O152 2.326 . S
In143 O154 2.294 1_455 S
In143 O155 2.326 . S
O144 In143 2.294 . S
O144 C153 1.240 . S
O145 In143 2.326 . S
O145 C153 1.252 . S
C146 O149 1.252 1_655 S
C146 O150 1.260 . S
C147 O154 1.240 . S
C147 O155 1.252 1_655 S
C148 O151 1.252 . S
C148 O152 1.260 1_655 S
O149 In143 2.266 . S
O149 C146 1.252 1_455 S
O150 In143 2.326 1_655 S
O150 C146 1.260 . S
O151 In143 2.266 1_655 S
O151 C148 1.252 . S
O152 In143 2.326 . S
O152 C148 1.260 1_455 S
C153 O144 1.240 . S
C153 O145 1.252 . S
O154 In143 2.294 1_655 S
O154 C147 1.240 . S
O155 In143 2.326 . S
O155 C147 1.252 1_455 S
In156 O157 2.294 1_554 S
In156 O158 2.326 . S
In156 O162 2.266 1_554 S
In156 O163 2.326 . S
In156 O164 2.266 . S
In156 O165 2.326 1_554 S
In156 O167 2.294 . S
In156 O168 2.326 . S
O157 In156 2.294 1_556 S
O157 C166 1.240 . S
O158 In156 2.326 . S
O158 C166 1.252 1_554 S
C159 O162 1.252 1_554 S
C159 O163 1.260 . S
C160 O167 1.240 . S
C160 O168 1.252 . S
C161 O164 1.252 . S
C161 O165 1.260 1_554 S
O162 In156 2.266 1_556 S
O162 C159 1.252 1_556 S
O163 In156 2.326 . S
O163 C159 1.260 . S
O164 In156 2.266 . S
O164 C161 1.252 . S
O165 In156 2.326 1_556 S
O165 C161 1.260 1_556 S
C166 O157 1.240 . S
C166 O158 1.252 1_556 S
O167 In156 2.294 . S
O167 C160 1.240 . S
O168 In156 2.326 . S
O168 C160 1.252 . S
In169 O170 2.294 . S
In169 O171 2.326 . S
In169 O175 2.266 . S
In169 O176 2.326 . S
In169 O177 2.266 . S
In169 O178 2.326 . S
In169 O180 2.294 . S
In169 O181 2.326 . S
O170 In169 2.294 . S
O170 C179 1.240 . S
O171 In169 2.326 . S
O171 C179 1.252 . S
C172 O175 1.252 . S
C172 O176 1.260 . S
C173 O180 1.240 . S
C173 O181 1.252 . S
C174 O177 1.252 . S
C174 O178 1.260 . S
O175 In169 2.266 . S
O175 C172 1.252 . S
O176 In169 2.326 . S
O176 C172 1.260 . S
O177 In169 2.266 . S
O177 C174 1.252 . S
O178 In169 2.326 . S
O178 C174 1.260 . S
C179 O170 1.240 . S
C179 O171 1.252 . S
O180 In169 2.294 . S
O180 C173 1.240 . S
O181 In169 2.326 . S
O181 C173 1.252 . S
In182 O183 2.294 . S
In182 O184 2.326 . S
In182 O188 2.266 . S
In182 O189 2.326 . S
In182 O190 2.266 . S
In182 O191 2.326 . S
In182 O193 2.294 . S
In182 O194 2.326 . S
O183 In182 2.294 . S
O183 C192 1.240 . S
O184 In182 2.326 . S
O184 C192 1.252 . S
C185 O188 1.252 . S
C185 O189 1.260 . S
C186 O193 1.240 . S
C186 O194 1.252 . S
C187 O190 1.252 . S
C187 O191 1.260 . S
O188 In182 2.266 . S
O188 C185 1.252 . S
O189 In182 2.326 . S
O189 C185 1.260 . S
O190 In182 2.266 . S
O190 C187 1.252 . S
O191 In182 2.326 . S
O191 C187 1.260 . S
C192 O183 1.240 . S
C192 O184 1.252 . S
O193 In182 2.294 . S
O193 C186 1.240 . S
O194 In182 2.326 . S
O194 C186 1.252 . S
In195 O196 2.294 . S
In195 O197 2.326 . S
In195 O201 2.266 . S
In195 O202 2.326 . S
In195 O203 2.266 . S
In195 O204 2.326 . S
In195 O206 2.294 . S
In195 O207 2.326 . S
O196 In195 2.294 . S
O196 C205 1.240 . S
O197 In195 2.326 . S
O197 C205 1.252 . S
C198 O201 1.252 . S
C198 O202 1.260 . S
C199 O206 1.240 . S
C199 O207 1.252 . S
C200 O203 1.252 . S
C200 O204 1.260 . S
O201 In195 2.266 . S
O201 C198 1.252 . S
O202 In195 2.326 . S
O202 C198 1.260 . S
O203 In195 2.266 . S
O203 C200 1.252 . S
O204 In195 2.326 . S
O204 C200 1.260 . S
C205 O196 1.240 . S
C205 O197 1.252 . S
O206 In195 2.294 . S
O206 C199 1.240 . S
O207 In195 2.326 . S
O207 C199 1.252 . S
C208 C209 1.391 . S
C208 C210 1.394 . S
C208 H224 0.931 . S
C209 C208 1.391 . S
C209 C213 1.376 . S
C210 C208 1.394 . S
C210 C211 1.369 . S
C210 C214 1.531 . S
C211 C210 1.369 . S
C211 C212 1.410 . S
C211 C219 1.503 . S
C212 C211 1.410 . S
C212 C213 1.392 . S
C212 C215 1.511 . S
C213 C209 1.376 . S
C213 C212 1.392 . S
C213 H225 0.929 . S
C214 C210 1.531 . S
C214 H226 0.960 . S
C214 H227 0.962 . S
C214 H228 0.960 . S
C215 C212 1.511 . S
C215 H229 0.961 . S
C215 H230 0.961 . S
C215 H231 0.961 . S
C216 C217 1.370 . S
C216 C218 1.363 . S
C216 H232 0.931 . S
C217 C216 1.370 . S
C217 C221 1.408 . S
C218 C216 1.363 . S
C218 C219 1.370 . S
C218 C222 1.524 . S
C219 C211 1.503 . S
C219 C218 1.370 . S
C219 C220 1.403 . S
C220 C219 1.403 . S
C220 C221 1.404 . S
C220 C223 1.539 . S
C221 C217 1.408 . S
C221 C220 1.404 . S
C221 H233 0.930 1_554 S
C222 C218 1.524 . S
C222 H234 0.956 . S
C222 H235 0.961 . S
C222 H236 0.961 . S
C223 C220 1.539 . S
C223 H237 0.958 . S
C223 H238 0.961 . S
C223 H239 0.960 . S
H224 C208 0.931 . S
H225 C213 0.929 . S
H226 C214 0.960 . S
H227 C214 0.962 . S
H228 C214 0.960 . S
H229 C215 0.961 . S
H230 C215 0.961 . S
H231 C215 0.961 . S
H232 C216 0.931 . S
H233 C221 0.930 1_556 S
H234 C222 0.956 . S
H235 C222 0.961 . S
H236 C222 0.961 . S
H237 C223 0.958 . S
H238 C223 0.961 . S
H239 C223 0.960 . S
C240 C241 1.391 . S
C240 C242 1.394 . S
C240 H256 0.931 . S
C241 C240 1.391 . S
C241 C245 1.376 . S
C242 C240 1.394 . S
C242 C243 1.369 . S
C242 C246 1.531 . S
C243 C242 1.369 . S
C243 C244 1.410 . S
C243 C251 1.503 . S
C244 C243 1.410 . S
C244 C245 1.392 . S
C244 C247 1.511 . S
C245 C241 1.376 . S
C245 C244 1.392 . S
C245 H257 0.929 . S
C246 C242 1.531 . S
C246 H258 0.960 . S
C246 H259 0.962 . S
C246 H260 0.960 . S
C247 C244 1.511 . S
C247 H261 0.961 . S
C247 H262 0.961 . S
C247 H263 0.961 . S
C248 C249 1.370 . S
C248 C250 1.363 . S
C248 H264 0.931 . S
C249 C248 1.370 . S
C249 C253 1.408 . S
C250 C248 1.363 . S
C250 C251 1.370 . S
C250 C254 1.524 . S
C251 C243 1.503 . S
C251 C250 1.370 . S
C251 C252 1.403 . S
C252 C251 1.403 . S
C252 C253 1.404 . S
C252 C255 1.539 . S
C253 C249 1.408 . S
C253 C252 1.404 . S
C253 H265 0.930 . S
C254 C250 1.524 . S
C254 H266 0.956 . S
C254 H267 0.961 . S
C254 H268 0.961 . S
C255 C252 1.539 . S
C255 H269 0.958 . S
C255 H270 0.961 . S
C255 H271 0.960 . S
H256 C240 0.931 . S
H257 C245 0.929 . S
H258 C246 0.960 . S
H259 C246 0.962 . S
H260 C246 0.960 . S
H261 C247 0.961 . S
H262 C247 0.961 . S
H263 C247 0.961 . S
H264 C248 0.931 . S
H265 C253 0.930 . S
H266 C254 0.956 . S
H267 C254 0.961 . S
H268 C254 0.961 . S
H269 C255 0.958 . S
H270 C255 0.961 . S
H271 C255 0.960 . S
C272 C273 1.391 . S
C272 C274 1.394 . S
C272 H288 0.931 . S
C273 C272 1.391 . S
C273 C277 1.376 . S
C274 C272 1.394 . S
C274 C275 1.369 . S
C274 C278 1.531 . S
C275 C274 1.369 . S
C275 C276 1.410 . S
C275 C283 1.503 . S
C276 C275 1.410 . S
C276 C277 1.392 . S
C276 C279 1.511 . S
C277 C273 1.376 . S
C277 C276 1.392 . S
C277 H289 0.929 . S
C278 C274 1.531 . S
C278 H290 0.960 . S
C278 H291 0.962 . S
C278 H292 0.960 . S
C279 C276 1.511 . S
C279 H293 0.961 . S
C279 H294 0.961 . S
C279 H295 0.961 . S
C280 C281 1.370 . S
C280 C282 1.363 . S
C280 H296 0.931 . S
C281 C280 1.370 . S
C281 C285 1.408 . S
C282 C280 1.363 . S
C282 C283 1.370 . S
C282 C286 1.524 . S
C283 C275 1.503 . S
C283 C282 1.370 . S
C283 C284 1.403 . S
C284 C283 1.403 . S
C284 C285 1.404 . S
C284 C287 1.539 . S
C285 C281 1.408 . S
C285 C284 1.404 . S
C285 H297 0.930 . S
C286 C282 1.524 . S
C286 H298 0.956 . S
C286 H299 0.961 . S
C286 H300 0.961 . S
C287 C284 1.539 . S
C287 H301 0.958 . S
C287 H302 0.961 . S
C287 H303 0.960 . S
H288 C272 0.931 . S
H289 C277 0.929 . S
H290 C278 0.960 . S
H291 C278 0.962 . S
H292 C278 0.960 . S
H293 C279 0.961 . S
H294 C279 0.961 . S
H295 C279 0.961 . S
H296 C280 0.931 . S
H297 C285 0.930 . S
H298 C286 0.956 . S
H299 C286 0.961 . S
H300 C286 0.961 . S
H301 C287 0.958 . S
H302 C287 0.961 . S
H303 C287 0.960 . S
C304 C305 1.391 . S
C304 C306 1.394 . S
C304 H320 0.931 . S
C305 C304 1.391 . S
C305 C309 1.376 . S
C306 C304 1.394 . S
C306 C307 1.369 . S
C306 C310 1.531 . S
C307 C306 1.369 . S
C307 C308 1.410 . S
C307 C315 1.503 . S
C308 C307 1.410 . S
C308 C309 1.392 . S
C308 C311 1.511 . S
C309 C305 1.376 . S
C309 C308 1.392 . S
C309 H321 0.929 . S
C310 C306 1.531 . S
C310 H322 0.960 . S
C310 H323 0.962 . S
C310 H324 0.960 . S
C311 C308 1.511 . S
C311 H325 0.961 . S
C311 H326 0.961 . S
C311 H327 0.961 . S
C312 C313 1.370 . S
C312 C314 1.363 . S
C312 H328 0.931 . S
C313 C312 1.370 . S
C313 C317 1.408 . S
C314 C312 1.363 . S
C314 C315 1.370 . S
C314 C318 1.524 . S
C315 C307 1.503 . S
C315 C314 1.370 . S
C315 C316 1.403 . S
C316 C315 1.403 . S
C316 C317 1.404 . S
C316 C319 1.539 . S
C317 C313 1.408 . S
C317 C316 1.404 . S
C317 H329 0.930 . S
C318 C314 1.524 . S
C318 H330 0.956 . S
C318 H331 0.961 . S
C318 H332 0.961 . S
C319 C316 1.539 . S
C319 H333 0.958 . S
C319 H334 0.961 . S
C319 H335 0.960 . S
H320 C304 0.931 . S
H321 C309 0.929 . S
H322 C310 0.960 . S
H323 C310 0.962 . S
H324 C310 0.960 . S
H325 C311 0.961 . S
H326 C311 0.961 . S
H327 C311 0.961 . S
H328 C312 0.931 . S
H329 C317 0.930 . S
H330 C318 0.956 . S
H331 C318 0.961 . S
H332 C318 0.961 . S
H333 C319 0.958 . S
H334 C319 0.961 . S
H335 C319 0.960 . S
C336 C337 1.391 . S
C336 C338 1.394 . S
C336 H352 0.931 . S
C337 C336 1.391 . S
C337 C341 1.376 . S
C338 C336 1.394 . S
C338 C339 1.369 . S
C338 C342 1.531 . S
C339 C338 1.369 . S
C339 C340 1.410 . S
C339 C347 1.503 . S
C340 C339 1.410 . S
C340 C341 1.392 . S
C340 C343 1.511 . S
C341 C337 1.376 . S
C341 C340 1.392 . S
C341 H353 0.929 . S
C342 C338 1.531 . S
C342 H354 0.960 . S
C342 H355 0.962 . S
C342 H356 0.960 . S
C343 C340 1.511 . S
C343 H357 0.961 . S
C343 H358 0.961 . S
C343 H359 0.961 . S
C344 C345 1.370 . S
C344 C346 1.363 . S
C344 H360 0.931 1_556 S
C345 C344 1.370 . S
C345 C349 1.408 . S
C346 C344 1.363 . S
C346 C347 1.370 . S
C346 C350 1.524 . S
C347 C339 1.503 . S
C347 C346 1.370 . S
C347 C348 1.403 . S
C348 C347 1.403 . S
C348 C349 1.404 . S
C348 C351 1.539 . S
C349 C345 1.408 . S
C349 C348 1.404 . S
C349 H361 0.930 . S
C350 C346 1.524 . S
C350 H362 0.956 . S
C350 H363 0.961 . S
C350 H364 0.982 . S
C351 C348 1.539 . S
C351 H365 0.958 . S
C351 H366 0.961 . S
C351 H367 0.960 . S
H352 C336 0.931 . S
H353 C341 0.929 . S
H354 C342 0.960 . S
H355 C342 0.962 . S
H356 C342 0.960 . S
H357 C343 0.961 . S
H358 C343 0.961 . S
H359 C343 0.961 . S
H360 C344 0.931 1_554 S
H361 C349 0.930 . S
H362 C350 0.956 . S
H363 C350 0.961 . S
H364 C350 0.982 . S
H365 C351 0.958 . S
H366 C351 0.961 . S
H367 C351 0.960 . S
C368 C369 1.391 . S
C368 C370 1.394 . S
C368 H384 0.931 . S
C369 C368 1.391 . S
C369 C373 1.376 . S
C370 C368 1.394 . S
C370 C371 1.369 . S
C370 C374 1.531 . S
C371 C370 1.369 . S
C371 C372 1.410 . S
C371 C379 1.503 . S
C372 C371 1.410 . S
C372 C373 1.392 . S
C372 C375 1.511 . S
C373 C369 1.376 . S
C373 C372 1.392 . S
C373 H385 0.929 1_554 S
C374 C370 1.531 . S
C374 H386 0.960 . S
C374 H387 0.962 1_655 S
C374 H388 0.960 . S
C375 C372 1.511 . S
C375 H389 0.961 . S
C375 H390 0.961 . S
C375 H391 0.961 . S
C376 C377 1.370 . S
C376 C378 1.363 . S
C376 H392 0.931 . S
C377 C376 1.370 . S
C377 C381 1.408 . S
C378 C376 1.363 . S
C378 C379 1.370 . S
C378 C382 1.524 . S
C379 C371 1.503 . S
C379 C378 1.370 . S
C379 C380 1.403 . S
C380 C379 1.403 . S
C380 C381 1.404 . S
C380 C383 1.539 . S
C381 C377 1.408 . S
C381 C380 1.404 . S
C381 H393 0.930 . S
C382 C378 1.524 . S
C382 H394 0.956 . S
C382 H395 0.961 . S
C382 H396 0.961 . S
C383 C380 1.539 . S
C383 H397 0.958 . S
C383 H398 0.961 . S
C383 H399 0.960 . S
H384 C368 0.931 . S
H385 C373 0.929 1_556 S
H386 C374 0.960 . S
H387 C374 0.962 1_455 S
H388 C374 0.960 . S
H389 C375 0.961 . S
H390 C375 0.961 . S
H391 C375 0.961 . S
H392 C376 0.931 . S
H393 C381 0.930 . S
H394 C382 0.956 . S
H395 C382 0.961 . S
H396 C382 0.961 . S
H397 C383 0.958 . S
H398 C383 0.961 . S
H399 C383 0.960 . S
C400 C401 1.391 . S
C400 C402 1.394 . S
C400 H416 0.931 . S
C401 C400 1.391 . S
C401 C405 1.376 . S
C402 C400 1.394 . S
C402 C403 1.369 . S
C402 C406 1.531 . S
C403 C402 1.369 . S
C403 C404 1.410 . S
C403 C411 1.503 . S
C404 C403 1.410 . S
C404 C405 1.392 . S
C404 C407 1.511 . S
C405 C401 1.376 . S
C405 C404 1.392 . S
C405 H417 0.929 . S
C406 C402 1.531 . S
C406 H418 0.960 . S
C406 H419 0.962 1_655 S
C406 H420 0.960 . S
C407 C404 1.511 . S
C407 H421 0.961 . S
C407 H422 0.961 . S
C407 H423 0.961 . S
C408 C409 1.370 . S
C408 C410 1.363 . S
C408 H424 0.931 . S
C409 C408 1.370 . S
C409 C413 1.408 . S
C410 C408 1.363 . S
C410 C411 1.370 . S
C410 C414 1.524 1_655 S
C411 C403 1.503 . S
C411 C410 1.370 . S
C411 C412 1.403 . S
C412 C411 1.403 . S
C412 C413 1.404 . S
C412 C415 1.539 . S
C413 C409 1.408 . S
C413 C412 1.404 . S
C413 H425 0.930 . S
C414 C410 1.524 1_455 S
C414 H426 0.956 . S
C414 H427 0.961 . S
C414 H428 0.961 . S
C415 C412 1.539 . S
C415 H429 0.958 . S
C415 H430 0.961 . S
C415 H431 0.960 . S
H416 C400 0.931 . S
H417 C405 0.929 . S
H418 C406 0.960 . S
H419 C406 0.962 1_455 S
H420 C406 0.960 . S
H421 C407 0.961 . S
H422 C407 0.961 . S
H423 C407 0.961 . S
H424 C408 0.931 . S
H425 C413 0.930 . S
H426 C414 0.956 . S
H427 C414 0.961 . S
H428 C414 0.961 . S
H429 C415 0.958 . S
H430 C415 0.961 . S
H431 C415 0.960 . S
C432 C433 1.391 . S
C432 C434 1.394 . S
C432 H448 0.931 . S
C433 C432 1.391 . S
C433 C437 1.376 . S
C434 C432 1.394 . S
C434 C435 1.369 . S
C434 C438 1.531 . S
C435 C434 1.369 . S
C435 C436 1.410 . S
C435 C443 1.503 . S
C436 C435 1.410 . S
C436 C437 1.392 . S
C436 C439 1.511 . S
C437 C433 1.376 . S
C437 C436 1.392 . S
C437 H449 0.929 . S
C438 C434 1.531 . S
C438 H450 0.960 . S
C438 H451 0.962 . S
C438 H452 0.960 . S
C439 C436 1.511 . S
C439 H453 0.961 . S
C439 H454 0.961 . S
C439 H455 0.961 . S
C440 C441 1.370 . S
C440 C442 1.363 . S
C440 H456 0.931 . S
C441 C440 1.370 . S
C441 C445 1.408 . S
C442 C440 1.363 . S
C442 C443 1.370 . S
C442 C446 1.524 . S
C443 C435 1.503 . S
C443 C442 1.370 . S
C443 C444 1.403 . S
C444 C443 1.403 . S
C444 C445 1.404 . S
C444 C447 1.539 . S
C445 C441 1.408 . S
C445 C444 1.404 . S
C445 H457 0.930 . S
C446 C442 1.524 . S
C446 H458 0.956 . S
C446 H459 0.961 . S
C446 H460 0.961 . S
C447 C444 1.539 . S
C447 H461 0.958 . S
C447 H462 0.961 . S
C447 H463 0.960 . S
H448 C432 0.931 . S
H449 C437 0.929 . S
H450 C438 0.960 . S
H451 C438 0.962 . S
H452 C438 0.960 . S
H453 C439 0.961 . S
H454 C439 0.961 . S
H455 C439 0.961 . S
H456 C440 0.931 . S
H457 C445 0.930 . S
H458 C446 0.956 . S
H459 C446 0.961 . S
H460 C446 0.961 . S
H461 C447 0.958 . S
H462 C447 0.961 . S
H463 C447 0.960 . S
C464 C465 1.391 . S
C464 C466 1.394 . S
C464 H480 0.931 . S
C465 C464 1.391 . S
C465 C469 1.376 . S
C466 C464 1.394 . S
C466 C467 1.369 . S
C466 C470 1.531 . S
C467 C466 1.369 . S
C467 C468 1.410 . S
C467 C475 1.503 . S
C468 C467 1.410 . S
C468 C469 1.392 . S
C468 C471 1.511 . S
C469 C465 1.376 . S
C469 C468 1.392 . S
C469 H481 0.929 . S
C470 C466 1.531 . S
C470 H482 0.960 . S
C470 H483 0.962 . S
C470 H484 0.960 . S
C471 C468 1.511 . S
C471 H485 0.961 . S
C471 H486 0.961 . S
C471 H487 0.961 . S
C472 C473 1.370 . S
C472 C474 1.363 . S
C472 H488 0.931 . S
C473 C472 1.370 . S
C473 C477 1.408 . S
C474 C472 1.363 . S
C474 C475 1.370 . S
C474 C478 1.524 . S
C475 C467 1.503 . S
C475 C474 1.370 . S
C475 C476 1.403 . S
C476 C475 1.403 . S
C476 C477 1.404 . S
C476 C479 1.539 . S
C477 C473 1.408 . S
C477 C476 1.404 . S
C477 H489 0.930 . S
C478 C474 1.524 . S
C478 H490 0.956 . S
C478 H491 0.961 . S
C478 H492 0.961 . S
C479 C476 1.539 . S
C479 H493 0.958 . S
C479 H494 0.961 . S
C479 H495 0.960 . S
H480 C464 0.931 . S
H481 C469 0.929 . S
H482 C470 0.960 . S
H483 C470 0.962 . S
H484 C470 0.960 . S
H485 C471 0.961 . S
H486 C471 0.961 . S
H487 C471 0.961 . S
H488 C472 0.931 . S
H489 C477 0.930 . S
H490 C478 0.956 . S
H491 C478 0.961 . S
H492 C478 0.961 . S
H493 C479 0.958 . S
H494 C479 0.961 . S
H495 C479 0.960 . S
C496 C497 1.391 . S
C496 C498 1.394 . S
C496 H512 0.931 . S
C497 C496 1.391 . S
C497 C501 1.376 1_455 S
C498 C496 1.394 . S
C498 C499 1.369 . S
C498 C502 1.531 . S
C499 C498 1.369 . S
C499 C500 1.410 1_455 S
C499 C507 1.503 . S
C500 C499 1.410 1_655 S
C500 C501 1.392 . S
C500 C503 1.511 1_565 S
C501 C497 1.376 1_655 S
C501 C500 1.392 . S
C501 H513 0.929 1_565 S
C502 C498 1.531 . S
C502 H514 0.960 . S
C502 H515 0.962 . S
C502 H516 0.960 . S
C503 C500 1.511 1_545 S
C503 H517 0.961 . S
C503 H518 0.961 . S
C503 H519 0.961 1_545 S
C504 C505 1.370 . S
C504 C506 1.363 . S
C504 H520 0.931 1_565 S
C505 C504 1.370 . S
C505 C509 1.408 1_455 S
C506 C504 1.363 . S
C506 C507 1.370 . S
C506 C510 1.524 1_565 S
C507 C499 1.503 . S
C507 C506 1.370 . S
C507 C508 1.403 1_455 S
C508 C507 1.403 1_655 S
C508 C509 1.404 . S
C508 C511 1.539 . S
C509 C505 1.408 1_655 S
C509 C508 1.404 . S
C509 H521 0.930 . S
C510 C506 1.524 1_545 S
C510 H522 0.956 . S
C510 H523 0.961 . S
C510 H524 0.961 . S
C511 C508 1.539 . S
C511 H525 0.958 . S
C511 H526 0.961 . S
C511 H527 0.960 . S
H512 C496 0.931 . S
H513 C501 0.929 1_545 S
H514 C502 0.960 . S
H515 C502 0.962 . S
H516 C502 0.960 . S
H517 C503 0.961 . S
H518 C503 0.961 . S
H519 C503 0.961 1_565 S
H520 C504 0.931 1_545 S
H521 C509 0.930 . S
H522 C510 0.956 . S
H523 C510 0.961 . S
H524 C510 0.961 . S
H525 C511 0.958 . S
H526 C511 0.961 . S
H527 C511 0.960 . S
C528 C529 1.391 . S
C528 C530 1.394 . S
C528 H544 0.931 . S
C529 C528 1.391 . S
C529 C533 1.376 . S
C530 C528 1.394 . S
C530 C531 1.369 1_556 S
C530 C534 1.531 1_556 S
C531 C530 1.369 1_554 S
C531 C532 1.410 1_554 S
C531 C539 1.503 . S
C532 C531 1.410 1_556 S
C532 C533 1.392 . S
C532 C535 1.511 . S
C533 C529 1.376 . S
C533 C532 1.392 . S
C533 H545 0.929 . S
C534 C530 1.531 1_554 S
C534 H546 0.960 . S
C534 H547 0.962 . S
C534 H548 0.960 . S
C535 C532 1.511 . S
C535 H549 0.961 . S
C535 H550 0.961 1_556 S
C535 H551 0.961 . S
C536 C537 1.370 . S
C536 C538 1.363 . S
C536 H552 0.931 . S
C537 C536 1.370 . S
C537 C541 1.408 . S
C538 C536 1.363 . S
C538 C539 1.370 . S
C538 C542 1.524 . S
C539 C531 1.503 . S
C539 C538 1.370 . S
C539 C540 1.403 . S
C540 C539 1.403 . S
C540 C541 1.404 . S
C540 C543 1.539 . S
C541 C537 1.408 . S
C541 C540 1.404 . S
C541 H553 0.930 . S
C542 C538 1.524 . S
C542 H554 0.956 . S
C542 H555 0.961 . S
C542 H556 0.961 . S
C543 C540 1.539 . S
C543 H557 0.958 . S
C543 H558 0.961 . S
C543 H559 0.960 . S
H544 C528 0.931 . S
H545 C533 0.929 . S
H546 C534 0.960 . S
H547 C534 0.962 . S
H548 C534 0.960 . S
H549 C535 0.961 . S
H550 C535 0.961 1_554 S
H551 C535 0.961 . S
H552 C536 0.931 . S
H553 C541 0.930 . S
H554 C542 0.956 . S
H555 C542 0.961 . S
H556 C542 0.961 . S
H557 C543 0.958 . S
H558 C543 0.961 . S
H559 C543 0.960 . S
C560 C561 1.391 . S
C560 C562 1.394 . S
C560 H576 0.931 . S
C561 C560 1.391 . S
C561 C565 1.376 1_565 S
C562 C560 1.394 . S
C562 C563 1.369 . S
C562 C566 1.531 . S
C563 C562 1.369 . S
C563 C564 1.410 1_565 S
C563 C571 1.503 . S
C564 C563 1.410 1_545 S
C564 C565 1.392 . S
C564 C567 1.511 . S
C565 C561 1.376 1_545 S
C565 C564 1.392 . S
C565 H577 0.929 . S
C566 C562 1.531 . S
C566 H578 0.960 . S
C566 H579 0.962 . S
C566 H580 0.960 . S
C567 C564 1.511 . S
C567 H581 0.961 . S
C567 H582 0.961 . S
C567 H583 0.977 . S
C568 C569 1.370 1_545 S
C568 C570 1.363 . S
C568 H584 0.931 . S
C569 C568 1.370 1_565 S
C569 C573 1.408 . S
C570 C568 1.363 . S
C570 C571 1.370 1_545 S
C570 C574 1.524 . S
C571 C563 1.503 . S
C571 C570 1.370 1_565 S
C571 C572 1.403 . S
C572 C571 1.403 . S
C572 C573 1.404 . S
C572 C575 1.539 . S
C573 C569 1.408 . S
C573 C572 1.404 . S
C573 H585 0.930 . S
C574 C570 1.524 . S
C574 H586 0.956 . S
C574 H587 0.961 . S
C574 H588 0.961 . S
C575 C572 1.539 . S
C575 H589 0.958 . S
C575 H590 0.961 . S
C575 H591 0.960 . S
H576 C560 0.931 . S
H577 C565 0.929 . S
H578 C566 0.960 . S
H579 C566 0.962 . S
H580 C566 0.960 . S
H581 C567 0.961 . S
H582 C567 0.961 . S
H583 C567 0.977 . S
H584 C568 0.931 . S
H585 C573 0.930 . S
H586 C574 0.956 . S
H587 C574 0.961 . S
H588 C574 0.961 . S
H589 C575 0.958 . S
H590 C575 0.961 . S
H591 C575 0.960 . S
C592 C593 1.391 . S
C592 C594 1.394 . S
C592 H608 0.931 . S
C593 C592 1.391 . S
C593 C597 1.376 . S
C594 C592 1.394 . S
C594 C595 1.369 . S
C594 C598 1.531 . S
C595 C594 1.369 . S
C595 C596 1.410 . S
C595 C603 1.503 . S
C596 C595 1.410 . S
C596 C597 1.392 . S
C596 C599 1.511 . S
C597 C593 1.376 . S
C597 C596 1.392 . S
C597 H609 0.929 . S
C598 C594 1.531 . S
C598 H610 0.960 . S
C598 H611 0.962 . S
C598 H612 0.960 . S
C599 C596 1.511 . S
C599 H613 0.961 . S
C599 H614 0.961 . S
C599 H615 0.961 . S
C600 C601 1.370 . S
C600 C602 1.363 . S
C600 H616 0.931 . S
C601 C600 1.370 . S
C601 C605 1.408 . S
C602 C600 1.363 . S
C602 C603 1.370 . S
C602 C606 1.524 . S
C603 C595 1.503 . S
C603 C602 1.370 . S
C603 C604 1.403 . S
C604 C603 1.403 . S
C604 C605 1.404 . S
C604 C607 1.539 . S
C605 C601 1.408 . S
C605 C604 1.404 . S
C605 H617 0.930 . S
C606 C602 1.524 . S
C606 H618 0.956 . S
C606 H619 0.961 . S
C606 H620 0.961 . S
C607 C604 1.539 . S
C607 H621 0.958 . S
C607 H622 0.961 . S
C607 H623 0.960 . S
H608 C592 0.931 . S
H609 C597 0.929 . S
H610 C598 0.960 . S
H611 C598 0.962 . S
H612 C598 0.960 . S
H613 C599 0.961 . S
H614 C599 0.961 . S
H615 C599 0.961 . S
H616 C600 0.931 . S
H617 C605 0.930 . S
H618 C606 0.956 . S
H619 C606 0.961 . S
H620 C606 0.961 . S
H621 C607 0.958 . S
H622 C607 0.961 . S
H623 C607 0.960 . S
C624 C625 1.391 1_455 S
C624 C626 1.394 . S
C624 H640 0.931 . S
C625 C624 1.391 1_655 S
C625 C629 1.376 . S
C626 C624 1.394 . S
C626 C627 1.369 1_455 S
C626 C630 1.531 . S
C627 C626 1.369 1_655 S
C627 C628 1.410 . S
C627 C635 1.503 . S
C628 C627 1.410 . S
C628 C629 1.392 . S
C628 C631 1.511 . S
C629 C625 1.376 . S
C629 C628 1.392 . S
C629 H641 0.929 . S
C630 C626 1.531 . S
C630 H642 0.960 . S
C630 H643 0.962 . S
C630 H644 0.960 . S
C631 C628 1.511 . S
C631 H645 0.961 . S
C631 H646 0.961 . S
C631 H647 0.961 . S
C632 C633 1.370 1_455 S
C632 C634 1.363 . S
C632 H648 0.931 . S
C633 C632 1.370 1_655 S
C633 C637 1.408 . S
C634 C632 1.363 . S
C634 C635 1.370 1_455 S
C634 C638 1.524 . S
C635 C627 1.503 . S
C635 C634 1.370 1_655 S
C635 C636 1.403 . S
C636 C635 1.403 . S
C636 C637 1.404 . S
C636 C639 1.539 . S
C637 C633 1.408 . S
C637 C636 1.404 . S
C637 H649 0.930 . S
C638 C634 1.524 . S
C638 H650 0.956 . S
C638 H651 0.961 . S
C638 H652 0.961 . S
C639 C636 1.539 . S
C639 H653 0.958 . S
C639 H654 0.961 . S
C639 H655 0.960 . S
H640 C624 0.931 . S
H641 C629 0.929 . S
H642 C630 0.960 . S
H643 C630 0.962 . S
H644 C630 0.960 . S
H645 C631 0.961 . S
H646 C631 0.961 . S
H647 C631 0.961 . S
H648 C632 0.931 . S
H649 C637 0.930 . S
H650 C638 0.956 . S
H651 C638 0.961 . S
H652 C638 0.961 . S
H653 C639 0.958 . S
H654 C639 0.961 . S
H655 C639 0.960 . S
C656 C657 1.391 . S
C656 C658 1.394 1_655 S
C656 H672 0.931 . S
C657 C656 1.391 . S
C657 C661 1.376 . S
C658 C656 1.394 1_455 S
C658 C659 1.369 . S
C658 C662 1.531 . S
C659 C658 1.369 . S
C659 C660 1.410 . S
C659 C667 1.503 . S
C660 C659 1.410 . S
C660 C661 1.392 1_455 S
C660 C663 1.511 . S
C661 C657 1.376 . S
C661 C660 1.392 1_655 S
C661 H673 0.929 . S
C662 C658 1.531 . S
C662 H674 0.960 . S
C662 H675 0.962 . S
C662 H676 0.960 . S
C663 C660 1.511 . S
C663 H677 0.961 . S
C663 H678 0.961 . S
C663 H679 0.961 . S
C664 C665 1.370 . S
C664 C666 1.363 . S
C664 H680 0.931 . S
C665 C664 1.370 . S
C665 C669 1.408 . S
C666 C664 1.363 . S
C666 C667 1.370 . S
C666 C670 1.524 . S
C667 C659 1.503 . S
C667 C666 1.370 . S
C667 C668 1.403 . S
C668 C667 1.403 . S
C668 C669 1.404 . S
C668 C671 1.539 . S
C669 C665 1.408 . S
C669 C668 1.404 . S
C669 H681 0.930 . S
C670 C666 1.524 . S
C670 H682 0.956 . S
C670 H683 0.961 . S
C670 H684 0.961 . S
C671 C668 1.539 . S
C671 H685 0.958 . S
C671 H686 0.961 . S
C671 H687 0.960 . S
H672 C656 0.931 . S
H673 C661 0.929 . S
H674 C662 0.960 . S
H675 C662 0.962 . S
H676 C662 0.960 . S
H677 C663 0.961 . S
H678 C663 0.961 . S
H679 C663 0.961 . S
H680 C664 0.931 . S
H681 C669 0.930 . S
H682 C670 0.956 . S
H683 C670 0.961 . S
H684 C670 0.961 . S
H685 C671 0.958 . S
H686 C671 0.961 . S
H687 C671 0.960 . S
C688 C689 1.391 1_556 S
C688 C690 1.394 . S
C688 H704 0.931 . S
C689 C688 1.391 1_554 S
C689 C693 1.376 . S
C690 C688 1.394 . S
C690 C691 1.369 . S
C690 C694 1.531 . S
C691 C690 1.369 . S
C691 C692 1.410 1_556 S
C691 C699 1.503 1_556 S
C692 C691 1.410 1_554 S
C692 C693 1.392 . S
C692 C695 1.511 . S
C693 C689 1.376 . S
C693 C692 1.392 . S
C693 H705 0.929 . S
C694 C690 1.531 . S
C694 H706 0.960 . S
C694 H707 0.962 . S
C694 H708 0.960 . S
C695 C692 1.511 . S
C695 H709 0.961 . S
C695 H710 0.961 . S
C695 H711 0.961 . S
C696 C697 1.370 . S
C696 C698 1.363 . S
C696 H712 0.931 . S
C697 C696 1.370 . S
C697 C701 1.408 1_554 S
C698 C696 1.363 . S
C698 C699 1.370 . S
C698 C702 1.524 . S
C699 C691 1.503 1_554 S
C699 C698 1.370 . S
C699 C700 1.403 1_554 S
C700 C699 1.403 1_556 S
C700 C701 1.404 . S
C700 C703 1.539 . S
C701 C697 1.408 1_556 S
C701 C700 1.404 . S
C701 H713 0.930 . S
C702 C698 1.524 . S
C702 H714 0.956 . S
C702 H715 0.961 . S
C702 H716 0.961 . S
C703 C700 1.539 . S
C703 H717 0.958 . S
C703 H718 0.961 . S
C703 H719 0.960 . S
H704 C688 0.931 . S
H705 C693 0.929 . S
H706 C694 0.960 . S
H707 C694 0.962 . S
H708 C694 0.960 . S
H709 C695 0.961 . S
H710 C695 0.961 . S
H711 C695 0.961 . S
H712 C696 0.931 . S
H713 C701 0.930 . S
H714 C702 0.956 . S
H715 C702 0.961 . S
H716 C702 0.961 . S
H717 C703 0.958 . S
H718 C703 0.961 . S
H719 C703 0.960 . S
C720 C721 1.391 . S
C720 C722 1.394 . S
C720 H736 0.931 . S
C721 C720 1.391 . S
C721 C725 1.376 . S
C722 C720 1.394 . S
C722 C723 1.369 . S
C722 C726 1.531 . S
C723 C722 1.369 . S
C723 C724 1.410 . S
C723 C731 1.503 . S
C724 C723 1.410 . S
C724 C725 1.392 . S
C724 C727 1.511 . S
C725 C721 1.376 . S
C725 C724 1.392 . S
C725 H737 0.929 . S
C726 C722 1.531 . S
C726 H738 0.960 . S
C726 H739 0.962 . S
C726 H740 0.960 . S
C727 C724 1.511 . S
C727 H741 0.961 . S
C727 H742 0.961 . S
C727 H743 0.961 . S
C728 C729 1.370 . S
C728 C730 1.363 . S
C728 H744 0.931 . S
C729 C728 1.370 . S
C729 C733 1.408 . S
C730 C728 1.363 . S
C730 C731 1.370 . S
C730 C734 1.524 . S
C731 C723 1.503 . S
C731 C730 1.370 . S
C731 C732 1.403 . S
C732 C731 1.403 . S
C732 C733 1.404 . S
C732 C735 1.539 . S
C733 C729 1.408 . S
C733 C732 1.404 . S
C733 H745 0.930 . S
C734 C730 1.524 . S
C734 H746 0.956 . S
C734 H747 0.961 . S
C734 H748 0.961 . S
C735 C732 1.539 . S
C735 H749 0.958 . S
C735 H750 0.961 . S
C735 H751 0.960 . S
H736 C720 0.931 . S
H737 C725 0.929 . S
H738 C726 0.960 . S
H739 C726 0.962 . S
H740 C726 0.960 . S
H741 C727 0.961 . S
H742 C727 0.961 . S
H743 C727 0.961 . S
H744 C728 0.931 . S
H745 C733 0.930 . S
H746 C734 0.956 . S
H747 C734 0.961 . S
H748 C734 0.961 . S
H749 C735 0.958 . S
H750 C735 0.961 . S
H751 C735 0.960 . S
C752 C753 1.391 . S
C752 C754 1.394 . S
C752 H768 0.931 . S
C753 C752 1.391 . S
C753 C757 1.376 . S
C754 C752 1.394 . S
C754 C755 1.369 . S
C754 C758 1.531 . S
C755 C754 1.369 . S
C755 C756 1.410 . S
C755 C763 1.503 . S
C756 C755 1.410 . S
C756 C757 1.392 . S
C756 C759 1.511 . S
C757 C753 1.376 . S
C757 C756 1.392 . S
C757 H769 0.929 . S
C758 C754 1.531 . S
C758 H770 0.960 . S
C758 H771 0.962 . S
C758 H772 0.960 . S
C759 C756 1.511 . S
C759 H773 0.961 . S
C759 H774 0.961 . S
C759 H775 0.961 . S
C760 C761 1.370 . S
C760 C762 1.363 . S
C760 H776 0.931 . S
C761 C760 1.370 . S
C761 C765 1.408 . S
C762 C760 1.363 . S
C762 C763 1.370 . S
C762 C766 1.524 . S
C763 C755 1.503 . S
C763 C762 1.370 . S
C763 C764 1.403 . S
C764 C763 1.403 . S
C764 C765 1.404 . S
C764 C767 1.539 . S
C765 C761 1.408 . S
C765 C764 1.404 . S
C765 H777 0.930 . S
C766 C762 1.524 . S
C766 H778 0.956 . S
C766 H779 0.961 . S
C766 H780 0.961 . S
C767 C764 1.539 . S
C767 H781 0.958 . S
C767 H782 0.961 . S
C767 H783 0.960 . S
H768 C752 0.931 . S
H769 C757 0.929 . S
H770 C758 0.960 . S
H771 C758 0.962 . S
H772 C758 0.960 . S
H773 C759 0.961 . S
H774 C759 0.961 . S
H775 C759 0.961 . S
H776 C760 0.931 . S
H777 C765 0.930 . S
H778 C766 0.956 . S
H779 C766 0.961 . S
H780 C766 0.961 . S
H781 C767 0.958 . S
H782 C767 0.961 . S
H783 C767 0.960 . S
C784 C785 1.391 . S
C784 C786 1.394 . S
C784 H800 0.931 . S
C785 C784 1.391 . S
C785 C789 1.376 . S
C786 C784 1.394 . S
C786 C787 1.369 . S
C786 C790 1.531 . S
C787 C786 1.369 . S
C787 C788 1.410 . S
C787 C795 1.503 . S
C788 C787 1.410 . S
C788 C789 1.392 . S
C788 C791 1.511 . S
C789 C785 1.376 . S
C789 C788 1.392 . S
C789 H801 0.929 . S
C790 C786 1.531 . S
C790 H802 0.960 . S
C790 H803 0.962 . S
C790 H804 0.960 . S
C791 C788 1.511 . S
C791 H805 0.961 . S
C791 H806 0.961 . S
C791 H807 0.961 . S
C792 C793 1.370 1_455 S
C792 C794 1.363 . S
C792 H808 0.931 1_455 S
C793 C792 1.370 1_655 S
C793 C797 1.408 1_655 S
C794 C792 1.363 . S
C794 C795 1.370 . S
C794 C798 1.524 . S
C795 C787 1.503 . S
C795 C794 1.370 . S
C795 C796 1.403 . S
C796 C795 1.403 . S
C796 C797 1.404 . S
C796 C799 1.539 . S
C797 C793 1.408 1_455 S
C797 C796 1.404 . S
C797 H809 0.930 . S
C798 C794 1.524 . S
C798 H810 0.956 . S
C798 H811 0.961 . S
C798 H812 0.961 . S
C799 C796 1.539 . S
C799 H813 0.958 . S
C799 H814 0.961 . S
C799 H815 0.960 . S
H800 C784 0.931 . S
H801 C789 0.929 . S
H802 C790 0.960 . S
H803 C790 0.962 . S
H804 C790 0.960 . S
H805 C791 0.961 . S
H806 C791 0.961 . S
H807 C791 0.961 . S
H808 C792 0.931 1_655 S
H809 C797 0.930 . S
H810 C798 0.956 . S
H811 C798 0.961 . S
H812 C798 0.961 . S
H813 C799 0.958 . S
H814 C799 0.961 . S
H815 C799 0.960 . S
C816 C817 1.391 1_655 S
C816 C818 1.394 . S
C816 H832 0.931 . S
C817 C816 1.391 1_455 S
C817 C821 1.376 . S
C818 C816 1.394 . S
C818 C819 1.369 1_655 S
C818 C822 1.531 . S
C819 C818 1.369 1_455 S
C819 C820 1.410 . S
C819 C827 1.503 . S
C820 C819 1.410 . S
C820 C821 1.392 . S
C820 C823 1.511 . S
C821 C817 1.376 . S
C821 C820 1.392 . S
C821 H833 0.929 . S
C822 C818 1.531 . S
C822 H834 0.960 . S
C822 H835 0.962 . S
C822 H836 0.960 . S
C823 C820 1.511 . S
C823 H837 0.961 1_556 S
C823 H838 0.961 . S
C823 H839 0.961 . S
C824 C825 1.370 . S
C824 C826 1.363 . S
C824 H840 0.931 . S
C825 C824 1.370 . S
C825 C829 1.408 1_655 S
C826 C824 1.363 . S
C826 C827 1.370 1_655 S
C826 C830 1.524 . S
C827 C819 1.503 . S
C827 C826 1.370 1_455 S
C827 C828 1.403 . S
C828 C827 1.403 . S
C828 C829 1.404 . S
C828 C831 1.539 . S
C829 C825 1.408 1_455 S
C829 C828 1.404 . S
C829 H841 0.930 . S
C830 C826 1.524 . S
C830 H842 0.956 . S
C830 H843 0.961 . S
C830 H844 0.961 . S
C831 C828 1.539 . S
C831 H845 0.958 . S
C831 H846 0.961 . S
C831 H847 0.960 . S
H832 C816 0.931 . S
H833 C821 0.929 . S
H834 C822 0.960 . S
H835 C822 0.962 . S
H836 C822 0.960 . S
H837 C823 0.961 1_554 S
H838 C823 0.961 . S
H839 C823 0.961 . S
H840 C824 0.931 . S
H841 C829 0.930 . S
H842 C830 0.956 . S
H843 C830 0.961 . S
H844 C830 0.961 . S
H845 C831 0.958 . S
H846 C831 0.961 . S
H847 C831 0.960 . S
C848 C849 1.391 . S
C848 C850 1.394 . S
C848 H864 0.931 . S
C849 C848 1.391 . S
C849 C853 1.376 . S
C850 C848 1.394 . S
C850 C851 1.369 . S
C850 C854 1.531 . S
C851 C850 1.369 . S
C851 C852 1.410 . S
C851 C859 1.503 . S
C852 C851 1.410 . S
C852 C853 1.392 . S
C852 C855 1.511 . S
C853 C849 1.376 . S
C853 C852 1.392 . S
C853 H865 0.929 . S
C854 C850 1.531 . S
C854 H866 0.960 . S
C854 H867 0.962 . S
C854 H868 0.960 . S
C855 C852 1.511 . S
C855 H869 0.961 . S
C855 H870 0.961 . S
C855 H871 0.961 . S
C856 C857 1.370 . S
C856 C858 1.363 . S
C856 H872 0.931 . S
C857 C856 1.370 . S
C857 C861 1.408 . S
C858 C856 1.363 . S
C858 C859 1.370 . S
C858 C862 1.524 . S
C859 C851 1.503 . S
C859 C858 1.370 . S
C859 C860 1.403 . S
C860 C859 1.403 . S
C860 C861 1.404 . S
C860 C863 1.539 . S
C861 C857 1.408 . S
C861 C860 1.404 . S
C861 H873 0.930 . S
C862 C858 1.524 . S
C862 H874 0.956 . S
C862 H875 0.961 . S
C862 H876 0.961 . S
C863 C860 1.539 . S
C863 H877 0.958 . S
C863 H878 0.961 . S
C863 H879 0.960 . S
H864 C848 0.931 . S
H865 C853 0.929 . S
H866 C854 0.960 . S
H867 C854 0.962 . S
H868 C854 0.960 . S
H869 C855 0.961 . S
H870 C855 0.961 . S
H871 C855 0.961 . S
H872 C856 0.931 . S
H873 C861 0.930 . S
H874 C862 0.956 . S
H875 C862 0.961 . S
H876 C862 0.961 . S
H877 C863 0.958 . S
H878 C863 0.961 . S
H879 C863 0.960 . S
C880 C881 1.391 . S
C880 C882 1.394 . S
C880 H896 0.931 . S
C881 C880 1.391 . S
C881 C885 1.376 . S
C882 C880 1.394 . S
C882 C883 1.369 . S
C882 C886 1.531 . S
C883 C882 1.369 . S
C883 C884 1.410 . S
C883 C891 1.503 . S
C884 C883 1.410 . S
C884 C885 1.392 . S
C884 C887 1.511 . S
C885 C881 1.376 . S
C885 C884 1.392 . S
C885 H897 0.929 . S
C886 C882 1.531 . S
C886 H898 0.960 . S
C886 H899 0.962 . S
C886 H900 0.960 . S
C887 C884 1.511 . S
C887 H901 0.961 . S
C887 H902 0.961 . S
C887 H903 0.961 . S
C888 C889 1.370 . S
C888 C890 1.364 1_565 S
C888 H904 0.931 . S
C889 C888 1.370 . S
C889 C893 1.408 . S
C890 C888 1.364 1_545 S
C890 C891 1.370 . S
C890 C894 1.524 . S
C891 C883 1.503 . S
C891 C890 1.370 . S
C891 C892 1.403 1_545 S
C892 C891 1.403 1_565 S
C892 C893 1.404 . S
C892 C895 1.539 1_565 S
C893 C889 1.408 . S
C893 C892 1.404 . S
C893 H905 0.930 . S
C894 C890 1.524 . S
C894 H906 0.956 . S
C894 H907 0.961 . S
C894 H908 0.961 . S
C895 C892 1.539 1_545 S
C895 H909 0.958 . S
C895 H910 0.961 1_545 S
C895 H911 0.960 . S
H896 C880 0.931 . S
H897 C885 0.929 . S
H898 C886 0.960 . S
H899 C886 0.962 . S
H900 C886 0.960 . S
H901 C887 0.961 . S
H902 C887 0.961 . S
H903 C887 0.961 . S
H904 C888 0.931 . S
H905 C893 0.930 . S
H906 C894 0.956 . S
H907 C894 0.961 . S
H908 C894 0.961 . S
H909 C895 0.958 . S
H910 C895 0.961 1_565 S
H911 C895 0.960 . S
C912 C913 1.391 . S
C912 C914 1.394 . S
C912 H928 0.931 . S
C913 C912 1.391 . S
C913 C917 1.376 . S
C914 C912 1.394 . S
C914 C915 1.369 . S
C914 C918 1.531 . S
C915 C914 1.369 . S
C915 C916 1.410 . S
C915 C923 1.503 . S
C916 C915 1.410 . S
C916 C917 1.392 . S
C916 C919 1.511 . S
C917 C913 1.376 . S
C917 C916 1.392 . S
C917 H929 0.929 . S
C918 C914 1.531 . S
C918 H930 0.960 . S
C918 H931 0.962 1_554 S
C918 H932 0.960 . S
C919 C916 1.511 . S
C919 H933 0.961 . S
C919 H934 0.961 . S
C919 H935 0.961 . S
C920 C921 1.370 . S
C920 C922 1.363 . S
C920 H936 0.931 . S
C921 C920 1.370 . S
C921 C925 1.408 1_556 S
C922 C920 1.363 . S
C922 C923 1.370 1_556 S
C922 C926 1.524 . S
C923 C915 1.503 . S
C923 C922 1.370 1_554 S
C923 C924 1.403 . S
C924 C923 1.403 . S
C924 C925 1.404 . S
C924 C927 1.539 . S
C925 C921 1.408 1_554 S
C925 C924 1.404 . S
C925 H937 0.930 . S
C926 C922 1.524 . S
C926 H938 0.956 . S
C926 H939 0.961 . S
C926 H940 0.961 . S
C927 C924 1.539 . S
C927 H941 0.958 . S
C927 H942 0.961 . S
C927 H943 0.960 . S
H928 C912 0.931 . S
H929 C917 0.929 . S
H930 C918 0.960 . S
H931 C918 0.962 1_556 S
H932 C918 0.960 . S
H933 C919 0.961 . S
H934 C919 0.961 . S
H935 C919 0.961 . S
H936 C920 0.931 . S
H937 C925 0.930 . S
H938 C926 0.956 . S
H939 C926 0.961 . S
H940 C926 0.961 . S
H941 C927 0.958 . S
H942 C927 0.961 . S
H943 C927 0.960 . S
C944 C945 1.391 . S
C944 C946 1.394 . S
C944 H960 0.931 . S
C945 C944 1.391 . S
C945 C949 1.376 . S
C946 C944 1.394 . S
C946 C947 1.369 . S
C946 C950 1.531 . S
C947 C946 1.369 . S
C947 C948 1.410 . S
C947 C955 1.503 . S
C948 C947 1.410 . S
C948 C949 1.392 . S
C948 C951 1.511 . S
C949 C945 1.376 . S
C949 C948 1.392 . S
C949 H961 0.929 . S
C950 C946 1.531 . S
C950 H962 0.960 . S
C950 H963 0.962 . S
C950 H964 0.960 . S
C951 C948 1.511 . S
C951 H965 0.961 . S
C951 H966 0.961 . S
C951 H967 0.961 . S
C952 C953 1.370 . S
C952 C954 1.363 1_565 S
C952 H968 0.931 . S
C953 C952 1.370 . S
C953 C957 1.408 . S
C954 C952 1.363 1_545 S
C954 C955 1.370 . S
C954 C958 1.524 . S
C955 C947 1.503 . S
C955 C954 1.370 . S
C955 C956 1.403 1_545 S
C956 C955 1.403 1_565 S
C956 C957 1.404 . S
C956 C959 1.539 . S
C957 C953 1.408 . S
C957 C956 1.404 . S
C957 H969 0.930 . S
C958 C954 1.524 . S
C958 H970 0.956 . S
C958 H971 0.961 . S
C958 H972 0.951 1_655 S
C959 C956 1.539 . S
C959 H973 0.958 1_565 S
C959 H974 0.961 . S
C959 H975 0.960 1_565 S
H960 C944 0.931 . S
H961 C949 0.929 . S
H962 C950 0.960 . S
H963 C950 0.962 . S
H964 C950 0.960 . S
H965 C951 0.961 . S
H966 C951 0.961 . S
H967 C951 0.961 . S
H968 C952 0.931 . S
H969 C957 0.930 . S
H970 C958 0.956 . S
H971 C958 0.961 . S
H972 C958 0.951 1_455 S
H973 C959 0.958 1_545 S
H974 C959 0.961 . S
H975 C959 0.960 1_545 S
C976 C977 1.391 . S
C976 C978 1.394 . S
C976 H992 0.931 . S
C977 C976 1.391 . S
C977 C981 1.376 1_565 S
C978 C976 1.394 . S
C978 C979 1.369 . S
C978 C982 1.531 . S
C979 C978 1.369 . S
C979 C980 1.410 1_565 S
C979 C987 1.503 . S
C980 C979 1.410 1_545 S
C980 C981 1.392 . S
C980 C983 1.511 . S
C981 C977 1.376 1_545 S
C981 C980 1.392 . S
C981 H993 0.929 . S
C982 C978 1.531 . S
C982 H994 0.960 1_556 S
C982 H995 0.962 . S
C982 H996 0.960 1_556 S
C983 C980 1.511 . S
C983 H997 0.961 . S
C983 H998 0.961 . S
C983 H999 0.961 1_556 S
C984 C985 1.370 . S
C984 C986 1.363 . S
C984 H1000 0.931 . S
C985 C984 1.370 . S
C985 C989 1.408 1_556 S
C986 C984 1.363 . S
C986 C987 1.370 . S
C986 C990 1.524 . S
C987 C979 1.503 . S
C987 C986 1.370 . S
C987 C988 1.403 1_556 S
C988 C987 1.403 1_554 S
C988 C989 1.404 . S
C988 C991 1.539 1_565 S
C989 C985 1.408 1_554 S
C989 C988 1.404 . S
C989 H1001 0.931 . S
C990 C986 1.524 . S
C990 H1002 0.956 . S
C990 H1003 0.961 . S
C990 H1004 0.961 . S
C991 C988 1.539 1_545 S
C991 H1005 0.958 1_545 S
C991 H1006 0.961 . S
C991 H1007 0.960 . S
H992 C976 0.931 . S
H993 C981 0.929 . S
H994 C982 0.960 1_554 S
H995 C982 0.962 . S
H996 C982 0.960 1_554 S
H997 C983 0.961 . S
H998 C983 0.961 . S
H999 C983 0.961 1_554 S
H1000 C984 0.931 . S
H1001 C989 0.931 . S
H1002 C990 0.956 . S
H1003 C990 0.961 . S
H1004 C990 0.961 . S
H1005 C991 0.958 1_565 S
H1006 C991 0.961 . S
H1007 C991 0.960 . S
C1008 C1009 1.391 . S
C1008 C1010 1.394 . S
C1008 H1024 0.931 . S
C1009 C1008 1.391 . S
C1009 C1013 1.376 . S
C1010 C1008 1.394 . S
C1010 C1011 1.369 . S
C1010 C1014 1.531 . S
C1011 C1010 1.369 . S
C1011 C1012 1.410 . S
C1011 C1019 1.503 . S
C1012 C1011 1.410 . S
C1012 C1013 1.392 . S
C1012 C1015 1.511 . S
C1013 C1009 1.376 . S
C1013 C1012 1.392 . S
C1013 H1025 0.929 . S
C1014 C1010 1.531 . S
C1014 H1026 0.960 . S
C1014 H1027 0.962 . S
C1014 H1028 0.960 . S
C1015 C1012 1.511 . S
C1015 H1029 0.961 . S
C1015 H1030 0.961 . S
C1015 H1031 0.961 . S
C1016 C1017 1.370 . S
C1016 C1018 1.363 . S
C1016 H1032 0.931 . S
C1017 C1016 1.370 . S
C1017 C1021 1.408 . S
C1018 C1016 1.363 . S
C1018 C1019 1.370 . S
C1018 C1022 1.524 . S
C1019 C1011 1.503 . S
C1019 C1018 1.370 . S
C1019 C1020 1.403 . S
C1020 C1019 1.403 . S
C1020 C1021 1.404 . S
C1020 C1023 1.539 . S
C1021 C1017 1.408 . S
C1021 C1020 1.404 . S
C1021 H1033 0.930 . S
C1022 C1018 1.524 . S
C1022 H1034 0.956 . S
C1022 H1035 0.961 . S
C1022 H1036 0.961 . S
C1023 C1020 1.539 . S
C1023 H1037 0.958 . S
C1023 H1038 0.961 . S
C1023 H1039 0.960 . S
H1024 C1008 0.931 . S
H1025 C1013 0.929 . S
H1026 C1014 0.960 . S
H1027 C1014 0.962 . S
H1028 C1014 0.960 . S
H1029 C1015 0.961 . S
H1030 C1015 0.961 . S
H1031 C1015 0.961 . S
H1032 C1016 0.931 . S
H1033 C1021 0.930 . S
H1034 C1022 0.956 . S
H1035 C1022 0.961 . S
H1036 C1022 0.961 . S
H1037 C1023 0.958 . S
H1038 C1023 0.961 . S
H1039 C1023 0.960 . S
C1040 C1041 1.391 . S
C1040 C1042 1.394 . S
C1040 H1056 0.931 . S
C1041 C1040 1.391 . S
C1041 C1045 1.376 . S
C1042 C1040 1.394 . S
C1042 C1043 1.369 . S
C1042 C1046 1.531 . S
C1043 C1042 1.369 . S
C1043 C1044 1.410 . S
C1043 C1051 1.503 . S
C1044 C1043 1.410 . S
C1044 C1045 1.392 . S
C1044 C1047 1.511 . S
C1045 C1041 1.376 . S
C1045 C1044 1.392 . S
C1045 H1057 0.929 . S
C1046 C1042 1.531 . S
C1046 H1058 0.960 . S
C1046 H1059 0.962 . S
C1046 H1060 0.960 . S
C1047 C1044 1.511 . S
C1047 H1061 0.961 . S
C1047 H1062 0.961 . S
C1047 H1063 0.961 . S
C1048 C1049 1.370 . S
C1048 C1050 1.363 . S
C1048 H1064 0.931 . S
C1049 C1048 1.370 . S
C1049 C1053 1.408 . S
C1050 C1048 1.363 . S
C1050 C1051 1.370 . S
C1050 C1054 1.524 . S
C1051 C1043 1.503 . S
C1051 C1050 1.370 . S
C1051 C1052 1.403 . S
C1052 C1051 1.403 . S
C1052 C1053 1.404 . S
C1052 C1055 1.539 . S
C1053 C1049 1.408 . S
C1053 C1052 1.404 . S
C1053 H1065 0.930 . S
C1054 C1050 1.524 . S
C1054 H1066 0.956 . S
C1054 H1067 0.961 . S
C1054 H1068 0.961 . S
C1055 C1052 1.539 . S
C1055 H1069 0.958 . S
C1055 H1070 0.961 . S
C1055 H1071 0.960 . S
H1056 C1040 0.931 . S
H1057 C1045 0.929 . S
H1058 C1046 0.960 . S
H1059 C1046 0.962 . S
H1060 C1046 0.960 . S
H1061 C1047 0.961 . S
H1062 C1047 0.961 . S
H1063 C1047 0.961 . S
H1064 C1048 0.931 . S
H1065 C1053 0.930 . S
H1066 C1054 0.956 . S
H1067 C1054 0.961 . S
H1068 C1054 0.961 . S
H1069 C1055 0.958 . S
H1070 C1055 0.961 . S
H1071 C1055 0.960 . S
C1072 C1073 1.391 . S
C1072 C1074 1.394 . S
C1072 H1088 0.931 . S
C1073 C1072 1.391 . S
C1073 C1077 1.376 . S
C1074 C1072 1.394 . S
C1074 C1075 1.369 1_556 S
C1074 C1078 1.531 . S
C1075 C1074 1.369 1_554 S
C1075 C1076 1.410 1_554 S
C1075 C1083 1.503 . S
C1076 C1075 1.410 1_556 S
C1076 C1077 1.392 . S
C1076 C1079 1.511 1_556 S
C1077 C1073 1.376 . S
C1077 C1076 1.392 . S
C1077 H1089 0.929 . S
C1078 C1074 1.531 . S
C1078 H1090 0.960 1_556 S
C1078 H1091 0.962 . S
C1078 H1092 0.960 . S
C1079 C1076 1.511 1_554 S
C1079 H1093 0.961 . S
C1079 H1094 0.961 . S
C1079 H1095 0.961 . S
C1080 C1081 1.370 . S
C1080 C1082 1.363 . S
C1080 H1096 0.931 . S
C1081 C1080 1.370 . S
C1081 C1085 1.408 . S
C1082 C1080 1.363 . S
C1082 C1083 1.370 . S
C1082 C1086 1.524 . S
C1083 C1075 1.503 . S
C1083 C1082 1.370 . S
C1083 C1084 1.403 . S
C1084 C1083 1.403 . S
C1084 C1085 1.404 . S
C1084 C1087 1.539 . S
C1085 C1081 1.408 . S
C1085 C1084 1.404 . S
C1085 H1097 0.930 . S
C1086 C1082 1.524 . S
C1086 H1098 0.956 . S
C1086 H1099 0.961 . S
C1086 H1100 0.961 . S
C1087 C1084 1.539 . S
C1087 H1101 0.958 . S
C1087 H1102 0.961 . S
C1087 H1103 0.960 . S
H1088 C1072 0.931 . S
H1089 C1077 0.929 . S
H1090 C1078 0.960 1_554 S
H1091 C1078 0.962 . S
H1092 C1078 0.960 . S
H1093 C1079 0.961 . S
H1094 C1079 0.961 . S
H1095 C1079 0.961 . S
H1096 C1080 0.931 . S
H1097 C1085 0.930 . S
H1098 C1086 0.956 . S
H1099 C1086 0.961 . S
H1100 C1086 0.961 . S
H1101 C1087 0.958 . S
H1102 C1087 0.961 . S
H1103 C1087 0.960 . S
C1104 C1105 1.391 . S
C1104 C1106 1.394 . S
C1104 H1120 0.931 . S
C1105 C1104 1.391 . S
C1105 C1109 1.376 . S
C1106 C1104 1.394 . S
C1106 C1107 1.369 . S
C1106 C1110 1.531 . S
C1107 C1106 1.369 . S
C1107 C1108 1.410 . S
C1107 C1115 1.503 . S
C1108 C1107 1.410 . S
C1108 C1109 1.392 . S
C1108 C1111 1.511 . S
C1109 C1105 1.376 . S
C1109 C1108 1.392 . S
C1109 H1121 0.929 . S
C1110 C1106 1.531 . S
C1110 H1122 0.960 . S
C1110 H1123 0.962 . S
C1110 H1124 0.960 . S
C1111 C1108 1.511 . S
C1111 H1125 0.961 . S
C1111 H1126 0.961 . S
C1111 H1127 0.961 . S
C1112 C1113 1.370 . S
C1112 C1114 1.363 . S
C1112 H1128 0.931 . S
C1113 C1112 1.370 . S
C1113 C1117 1.408 . S
C1114 C1112 1.363 . S
C1114 C1115 1.370 . S
C1114 C1118 1.524 . S
C1115 C1107 1.503 . S
C1115 C1114 1.370 . S
C1115 C1116 1.403 . S
C1116 C1115 1.403 . S
C1116 C1117 1.404 . S
C1116 C1119 1.539 . S
C1117 C1113 1.408 . S
C1117 C1116 1.404 . S
C1117 H1129 0.930 . S
C1118 C1114 1.524 . S
C1118 H1130 0.956 . S
C1118 H1131 0.961 . S
C1118 H1132 0.961 . S
C1119 C1116 1.539 . S
C1119 H1133 0.958 . S
C1119 H1134 0.961 . S
C1119 H1135 0.960 . S
H1120 C1104 0.931 . S
H1121 C1109 0.929 . S
H1122 C1110 0.960 . S
H1123 C1110 0.962 . S
H1124 C1110 0.960 . S
H1125 C1111 0.961 . S
H1126 C1111 0.961 . S
H1127 C1111 0.961 . S
H1128 C1112 0.931 . S
H1129 C1117 0.930 . S
H1130 C1118 0.956 . S
H1131 C1118 0.961 . S
H1132 C1118 0.961 . S
H1133 C1119 0.958 . S
H1134 C1119 0.961 . S
H1135 C1119 0.960 . S
C1136 C1137 1.391 . S
C1136 C1138 1.394 . S
C1136 H1152 0.931 . S
C1137 C1136 1.391 . S
C1137 C1141 1.376 . S
C1138 C1136 1.394 . S
C1138 C1139 1.369 . S
C1138 C1142 1.531 . S
C1139 C1138 1.369 . S
C1139 C1140 1.410 . S
C1139 C1147 1.503 . S
C1140 C1139 1.410 . S
C1140 C1141 1.392 . S
C1140 C1143 1.511 . S
C1141 C1137 1.376 . S
C1141 C1140 1.392 . S
C1141 H1153 0.929 . S
C1142 C1138 1.531 . S
C1142 H1154 0.960 . S
C1142 H1155 0.962 . S
C1142 H1156 0.960 . S
C1143 C1140 1.511 . S
C1143 H1157 0.961 . S
C1143 H1158 0.961 . S
C1143 H1159 0.961 . S
C1144 C1145 1.370 . S
C1144 C1146 1.363 . S
C1144 H1160 0.931 . S
C1145 C1144 1.370 . S
C1145 C1149 1.408 . S
C1146 C1144 1.363 . S
C1146 C1147 1.370 . S
C1146 C1150 1.524 . S
C1147 C1139 1.503 . S
C1147 C1146 1.370 . S
C1147 C1148 1.403 . S
C1148 C1147 1.403 . S
C1148 C1149 1.404 . S
C1148 C1151 1.539 . S
C1149 C1145 1.408 . S
C1149 C1148 1.404 . S
C1149 H1161 0.930 . S
C1150 C1146 1.524 . S
C1150 H1162 0.956 . S
C1150 H1163 0.961 . S
C1150 H1164 0.961 . S
C1151 C1148 1.539 . S
C1151 H1165 0.958 . S
C1151 H1166 0.961 . S
C1151 H1167 0.960 . S
H1152 C1136 0.931 . S
H1153 C1141 0.929 . S
H1154 C1142 0.960 . S
H1155 C1142 0.962 . S
H1156 C1142 0.960 . S
H1157 C1143 0.961 . S
H1158 C1143 0.961 . S
H1159 C1143 0.961 . S
H1160 C1144 0.931 . S
H1161 C1149 0.930 . S
H1162 C1150 0.956 . S
H1163 C1150 0.961 . S
H1164 C1150 0.961 . S
H1165 C1151 0.958 . S
H1166 C1151 0.961 . S
H1167 C1151 0.960 . S
C1168 C1169 1.391 . S
C1168 C1170 1.394 . S
C1168 H1184 0.931 . S
C1169 C1168 1.391 . S
C1169 C1173 1.376 1_655 S
C1170 C1168 1.394 . S
C1170 C1171 1.369 . S
C1170 C1174 1.531 . S
C1171 C1170 1.369 . S
C1171 C1172 1.410 1_655 S
C1171 C1179 1.503 . S
C1172 C1171 1.410 1_455 S
C1172 C1173 1.392 . S
C1172 C1175 1.511 . S
C1173 C1169 1.376 1_455 S
C1173 C1172 1.392 . S
C1173 H1185 0.929 . S
C1174 C1170 1.531 . S
C1174 H1186 0.960 . S
C1174 H1187 0.962 . S
C1174 H1188 0.960 . S
C1175 C1172 1.511 . S
C1175 H1189 0.961 . S
C1175 H1190 0.961 . S
C1175 H1191 0.961 . S
C1176 C1177 1.370 . S
C1176 C1178 1.363 . S
C1176 H1192 0.931 . S
C1177 C1176 1.370 . S
C1177 C1181 1.408 . S
C1178 C1176 1.363 . S
C1178 C1179 1.370 . S
C1178 C1182 1.524 . S
C1179 C1171 1.503 . S
C1179 C1178 1.370 . S
C1179 C1180 1.403 . S
C1180 C1179 1.403 . S
C1180 C1181 1.404 . S
C1180 C1183 1.539 1_655 S
C1181 C1177 1.408 . S
C1181 C1180 1.404 . S
C1181 H1193 0.930 1_655 S
C1182 C1178 1.524 . S
C1182 H1194 0.956 . S
C1182 H1195 0.961 . S
C1182 H1196 0.961 . S
C1183 C1180 1.539 1_455 S
C1183 H1197 0.958 . S
C1183 H1198 0.961 . S
C1183 H1199 0.960 . S
H1184 C1168 0.931 . S
H1185 C1173 0.929 . S
H1186 C1174 0.960 . S
H1187 C1174 0.962 . S
H1188 C1174 0.960 . S
H1189 C1175 0.961 . S
H1190 C1175 0.961 . S
H1191 C1175 0.961 . S
H1192 C1176 0.931 . S
H1193 C1181 0.930 1_455 S
H1194 C1182 0.956 . S
H1195 C1182 0.961 . S
H1196 C1182 0.961 . S
H1197 C1183 0.958 . S
H1198 C1183 0.961 . S
H1199 C1183 0.960 . S
C1200 C1201 1.373 1_565 S
C1200 C1202 1.394 . S
C1200 H1216 0.931 . S
C1201 C1200 1.373 1_545 S
C1201 C1205 1.398 . S
C1202 C1200 1.394 . S
C1202 C1203 1.369 1_565 S
C1202 C1206 1.531 . S
C1203 C1202 1.369 1_545 S
C1203 C1204 1.410 . S
C1203 C1211 1.503 . S
C1204 C1203 1.410 . S
C1204 C1205 1.392 . S
C1204 C1207 1.511 . S
C1205 C1201 1.398 . S
C1205 C1204 1.392 . S
C1205 H1217 0.929 . S
C1206 C1202 1.531 . S
C1206 H1218 0.960 . S
C1206 H1219 0.962 . S
C1206 H1220 0.960 . S
C1207 C1204 1.511 . S
C1207 H1221 0.961 . S
C1207 H1222 0.961 . S
C1207 H1223 0.961 . S
C1208 C1209 1.368 1_565 S
C1208 C1210 1.365 . S
C1208 H1224 0.931 . S
C1209 C1208 1.368 1_545 S
C1209 C1213 1.408 . S
C1210 C1208 1.365 . S
C1210 C1211 1.370 1_565 S
C1210 C1214 1.524 . S
C1211 C1203 1.503 . S
C1211 C1210 1.370 1_545 S
C1211 C1212 1.403 . S
C1212 C1211 1.403 . S
C1212 C1213 1.404 . S
C1212 C1215 1.539 . S
C1213 C1209 1.408 . S
C1213 C1212 1.404 . S
C1213 H1225 0.930 . S
C1214 C1210 1.524 . S
C1214 H1226 0.956 . S
C1214 H1227 0.961 1_565 S
C1214 H1228 0.961 . S
C1215 C1212 1.539 . S
C1215 H1229 0.958 . S
C1215 H1230 0.961 . S
C1215 H1231 0.960 . S
H1216 C1200 0.931 . S
H1217 C1205 0.929 . S
H1218 C1206 0.960 . S
H1219 C1206 0.962 . S
H1220 C1206 0.960 . S
H1221 C1207 0.961 . S
H1222 C1207 0.961 . S
H1223 C1207 0.961 . S
H1224 C1208 0.931 . S
H1225 C1213 0.930 . S
H1226 C1214 0.956 . S
H1227 C1214 0.961 1_545 S
H1228 C1214 0.961 . S
H1229 C1215 0.958 . S
H1230 C1215 0.961 . S
H1231 C1215 0.960 . S
C209 C10 1.939 . S
C217 C95 1.940 1_554 S
C241 C17 1.914 . S
C249 C56 1.926 . S
C273 C75 1.961 . S
C281 C30 1.977 . S
C305 C49 1.969 . S
C313 C88 1.932 . S
C337 C114 1.893 . S
C345 C166 1.888 . S
C369 C121 1.958 1_554 S
C377 C186 1.983 . S
C401 C147 1.969 . S
C409 C140 1.932 . S
C433 C205 1.827 . S
C441 C173 1.833 . S
C465 C3 1.349 . S
C473 C81 1.330 . S
C497 C94 0.777 . S
C505 C23 0.820 . S
C529 C31 1.699 . S
C537 C55 1.726 . S
C561 C70 1.084 . S
C569 C44 1.077 . S
C593 C4 1.611 . S
C601 C192 1.605 . S
C625 C148 1.724 . S
C633 C16 1.709 . S
C657 C179 1.525 . S
C665 C36 1.508 . S
C689 C161 1.684 . S
C697 C42 1.683 . S
C721 C134 1.170 . S
C729 C57 1.225 . S
C753 C68 1.317 . S
C761 C198 1.309 . S
C785 C82 1.089 . S
C793 C107 1.143 . S
C817 C96 1.317 . S
C825 C122 1.304 . S
C849 C5 0.832 . S
C857 C62 0.855 . S
C881 C108 0.829 . S
C889 C172 0.872 . S
C913 C159 0.985 . S
C921 C127 0.999 . S
C945 C185 1.055 . S
C953 C135 1.015 . S
C977 C101 1.382 . S
C985 C43 1.352 . S
C1009 C29 1.117 . S
C1017 C83 1.061 . S
C1041 C153 1.540 . S
C1049 C199 1.536 . S
C1073 C174 1.315 . S
C1081 C133 1.311 . S
C1105 C200 0.790 . S
C1113 C160 0.815 . S
C1137 C187 1.726 . S
C1145 C109 1.708 . S
C1169 C146 1.046 . S
C1177 C120 1.031 . S
C1201 C18 1.155 . S
C1209 C69 1.169 . S
